# Generated by pormake.
# Topology ptr, (4,4)-cn, num edge types: 1
# Building blocks:
#     Node 0, Type 0, BuildingBlock: GALJAG_clean_sbu_0, # of connection points: 4
#     Node 1, Type 0, BuildingBlock: GALJAG_clean_sbu_0, # of connection points: 4
#     Node 2, Type 0, BuildingBlock: GALJAG_clean_sbu_0, # of connection points: 4
#     Node 3, Type 0, BuildingBlock: GALJAG_clean_sbu_0, # of connection points: 4
#     Node 4, Type 0, BuildingBlock: GALJAG_clean_sbu_0, # of connection points: 4
#     Node 5, Type 0, BuildingBlock: GALJAG_clean_sbu_0, # of connection points: 4
#     Node 6, Type 0, BuildingBlock: GALJAG_clean_sbu_0, # of connection points: 4
#     Node 7, Type 0, BuildingBlock: GALJAG_clean_sbu_0, # of connection points: 4
#     Node 8, Type 0, BuildingBlock: GALJAG_clean_sbu_0, # of connection points: 4
#     Node 9, Type 0, BuildingBlock: GALJAG_clean_sbu_0, # of connection points: 4
#     Node 10, Type 0, BuildingBlock: GALJAG_clean_sbu_0, # of connection points: 4
#     Node 11, Type 0, BuildingBlock: GALJAG_clean_sbu_0, # of connection points: 4
#     Node 12, Type 0, BuildingBlock: GALJAG_clean_sbu_0, # of connection points: 4
#     Node 13, Type 0, BuildingBlock: GALJAG_clean_sbu_0, # of connection points: 4
#     Node 14, Type 0, BuildingBlock: GALJAG_clean_sbu_0, # of connection points: 4
#     Node 15, Type 0, BuildingBlock: GALJAG_clean_sbu_0, # of connection points: 4
#     Node 16, Type 0, BuildingBlock: GALJAG_clean_sbu_0, # of connection points: 4
#     Node 17, Type 0, BuildingBlock: GALJAG_clean_sbu_0, # of connection points: 4
#     Node 18, Type 1, BuildingBlock: NAWXER_clean_linker_0, # of connection points: 4
#     Node 19, Type 1, BuildingBlock: NAWXER_clean_linker_0, # of connection points: 4
#     Node 20, Type 1, BuildingBlock: NAWXER_clean_linker_0, # of connection points: 4
#     Node 21, Type 1, BuildingBlock: NAWXER_clean_linker_0, # of connection points: 4
#     Node 22, Type 1, BuildingBlock: NAWXER_clean_linker_0, # of connection points: 4
#     Node 23, Type 1, BuildingBlock: NAWXER_clean_linker_0, # of connection points: 4
#     Node 24, Type 1, BuildingBlock: NAWXER_clean_linker_0, # of connection points: 4
#     Node 25, Type 1, BuildingBlock: NAWXER_clean_linker_0, # of connection points: 4
#     Node 26, Type 1, BuildingBlock: NAWXER_clean_linker_0, # of connection points: 4
#     Node 27, Type 1, BuildingBlock: NAWXER_clean_linker_0, # of connection points: 4
#     Node 28, Type 1, BuildingBlock: NAWXER_clean_linker_0, # of connection points: 4
#     Node 29, Type 1, BuildingBlock: NAWXER_clean_linker_0, # of connection points: 4
#     Node 30, Type 1, BuildingBlock: NAWXER_clean_linker_0, # of connection points: 4
#     Node 31, Type 1, BuildingBlock: NAWXER_clean_linker_0, # of connection points: 4
#     Node 32, Type 1, BuildingBlock: NAWXER_clean_linker_0, # of connection points: 4
#     Node 33, Type 1, BuildingBlock: NAWXER_clean_linker_0, # of connection points: 4
#     Node 34, Type 1, BuildingBlock: NAWXER_clean_linker_0, # of connection points: 4
#     Node 35, Type 1, BuildingBlock: NAWXER_clean_linker_0, # of connection points: 4
#     Edge 36, Type (0, 1), BuildingBlock: ZUJKAS_clean_linker_0, # of connection points: 2
#     Edge 37, Type (0, 1), BuildingBlock: ZUJKAS_clean_linker_0, # of connection points: 2
#     Edge 38, Type (0, 1), BuildingBlock: ZUJKAS_clean_linker_0, # of connection points: 2
#     Edge 39, Type (0, 1), BuildingBlock: ZUJKAS_clean_linker_0, # of connection points: 2
#     Edge 40, Type (0, 1), BuildingBlock: ZUJKAS_clean_linker_0, # of connection points: 2
#     Edge 41, Type (0, 1), BuildingBlock: ZUJKAS_clean_linker_0, # of connection points: 2
#     Edge 42, Type (0, 1), BuildingBlock: ZUJKAS_clean_linker_0, # of connection points: 2
#     Edge 43, Type (0, 1), BuildingBlock: ZUJKAS_clean_linker_0, # of connection points: 2
#     Edge 44, Type (0, 1), BuildingBlock: ZUJKAS_clean_linker_0, # of connection points: 2
#     Edge 45, Type (0, 1), BuildingBlock: ZUJKAS_clean_linker_0, # of connection points: 2
#     Edge 46, Type (0, 1), BuildingBlock: ZUJKAS_clean_linker_0, # of connection points: 2
#     Edge 47, Type (0, 1), BuildingBlock: ZUJKAS_clean_linker_0, # of connection points: 2
#     Edge 48, Type (0, 1), BuildingBlock: ZUJKAS_clean_linker_0, # of connection points: 2
#     Edge 49, Type (0, 1), BuildingBlock: ZUJKAS_clean_linker_0, # of connection points: 2
#     Edge 50, Type (0, 1), BuildingBlock: ZUJKAS_clean_linker_0, # of connection points: 2
#     Edge 51, Type (0, 1), BuildingBlock: ZUJKAS_clean_linker_0, # of connection points: 2
#     Edge 52, Type (0, 1), BuildingBlock: ZUJKAS_clean_linker_0, # of connection points: 2
#     Edge 53, Type (0, 1), BuildingBlock: ZUJKAS_clean_linker_0, # of connection points: 2
#     Edge 54, Type (0, 1), BuildingBlock: ZUJKAS_clean_linker_0, # of connection points: 2
#     Edge 55, Type (0, 1), BuildingBlock: ZUJKAS_clean_linker_0, # of connection points: 2
#     Edge 56, Type (0, 1), BuildingBlock: ZUJKAS_clean_linker_0, # of connection points: 2
#     Edge 57, Type (0, 1), BuildingBlock: ZUJKAS_clean_linker_0, # of connection points: 2
#     Edge 58, Type (0, 1), BuildingBlock: ZUJKAS_clean_linker_0, # of connection points: 2
#     Edge 59, Type (0, 1), BuildingBlock: ZUJKAS_clean_linker_0, # of connection points: 2
#     Edge 60, Type (0, 1), BuildingBlock: ZUJKAS_clean_linker_0, # of connection points: 2
#     Edge 61, Type (0, 1), BuildingBlock: ZUJKAS_clean_linker_0, # of connection points: 2
#     Edge 62, Type (0, 1), BuildingBlock: ZUJKAS_clean_linker_0, # of connection points: 2
#     Edge 63, Type (0, 1), BuildingBlock: ZUJKAS_clean_linker_0, # of connection points: 2
#     Edge 64, Type (0, 1), BuildingBlock: ZUJKAS_clean_linker_0, # of connection points: 2
#     Edge 65, Type (0, 1), BuildingBlock: ZUJKAS_clean_linker_0, # of connection points: 2
#     Edge 66, Type (0, 1), BuildingBlock: ZUJKAS_clean_linker_0, # of connection points: 2
#     Edge 67, Type (0, 1), BuildingBlock: ZUJKAS_clean_linker_0, # of connection points: 2
#     Edge 68, Type (0, 1), BuildingBlock: ZUJKAS_clean_linker_0, # of connection points: 2
#     Edge 69, Type (0, 1), BuildingBlock: ZUJKAS_clean_linker_0, # of connection points: 2
#     Edge 70, Type (0, 1), BuildingBlock: ZUJKAS_clean_linker_0, # of connection points: 2
#     Edge 71, Type (0, 1), BuildingBlock: ZUJKAS_clean_linker_0, # of connection points: 2
#     Edge 72, Type (0, 1), BuildingBlock: ZUJKAS_clean_linker_0, # of connection points: 2
#     Edge 73, Type (0, 1), BuildingBlock: ZUJKAS_clean_linker_0, # of connection points: 2
#     Edge 74, Type (0, 1), BuildingBlock: ZUJKAS_clean_linker_0, # of connection points: 2
#     Edge 75, Type (0, 1), BuildingBlock: ZUJKAS_clean_linker_0, # of connection points: 2
#     Edge 76, Type (0, 1), BuildingBlock: ZUJKAS_clean_linker_0, # of connection points: 2
#     Edge 77, Type (0, 1), BuildingBlock: ZUJKAS_clean_linker_0, # of connection points: 2
#     Edge 78, Type (0, 1), BuildingBlock: ZUJKAS_clean_linker_0, # of connection points: 2
#     Edge 79, Type (0, 1), BuildingBlock: ZUJKAS_clean_linker_0, # of connection points: 2
#     Edge 80, Type (0, 1), BuildingBlock: ZUJKAS_clean_linker_0, # of connection points: 2
#     Edge 81, Type (0, 1), BuildingBlock: ZUJKAS_clean_linker_0, # of connection points: 2
#     Edge 82, Type (0, 1), BuildingBlock: ZUJKAS_clean_linker_0, # of connection points: 2
#     Edge 83, Type (0, 1), BuildingBlock: ZUJKAS_clean_linker_0, # of connection points: 2
#     Edge 84, Type (0, 1), BuildingBlock: ZUJKAS_clean_linker_0, # of connection points: 2
#     Edge 85, Type (0, 1), BuildingBlock: ZUJKAS_clean_linker_0, # of connection points: 2
#     Edge 86, Type (0, 1), BuildingBlock: ZUJKAS_clean_linker_0, # of connection points: 2
#     Edge 87, Type (0, 1), BuildingBlock: ZUJKAS_clean_linker_0, # of connection points: 2
#     Edge 88, Type (0, 1), BuildingBlock: ZUJKAS_clean_linker_0, # of connection points: 2
#     Edge 89, Type (0, 1), BuildingBlock: ZUJKAS_clean_linker_0, # of connection points: 2
#     Edge 90, Type (0, 1), BuildingBlock: ZUJKAS_clean_linker_0, # of connection points: 2
#     Edge 91, Type (0, 1), BuildingBlock: ZUJKAS_clean_linker_0, # of connection points: 2
#     Edge 92, Type (0, 1), BuildingBlock: ZUJKAS_clean_linker_0, # of connection points: 2
#     Edge 93, Type (0, 1), BuildingBlock: ZUJKAS_clean_linker_0, # of connection points: 2
#     Edge 94, Type (0, 1), BuildingBlock: ZUJKAS_clean_linker_0, # of connection points: 2
#     Edge 95, Type (0, 1), BuildingBlock: ZUJKAS_clean_linker_0, # of connection points: 2
#     Edge 96, Type (0, 1), BuildingBlock: ZUJKAS_clean_linker_0, # of connection points: 2
#     Edge 97, Type (0, 1), BuildingBlock: ZUJKAS_clean_linker_0, # of connection points: 2
#     Edge 98, Type (0, 1), BuildingBlock: ZUJKAS_clean_linker_0, # of connection points: 2
#     Edge 99, Type (0, 1), BuildingBlock: ZUJKAS_clean_linker_0, # of connection points: 2
#     Edge 100, Type (0, 1), BuildingBlock: ZUJKAS_clean_linker_0, # of connection points: 2
#     Edge 101, Type (0, 1), BuildingBlock: ZUJKAS_clean_linker_0, # of connection points: 2
#     Edge 102, Type (0, 1), BuildingBlock: ZUJKAS_clean_linker_0, # of connection points: 2
#     Edge 103, Type (0, 1), BuildingBlock: ZUJKAS_clean_linker_0, # of connection points: 2
#     Edge 104, Type (0, 1), BuildingBlock: ZUJKAS_clean_linker_0, # of connection points: 2
#     Edge 105, Type (0, 1), BuildingBlock: ZUJKAS_clean_linker_0, # of connection points: 2
#     Edge 106, Type (0, 1), BuildingBlock: ZUJKAS_clean_linker_0, # of connection points: 2
#     Edge 107, Type (0, 1), BuildingBlock: ZUJKAS_clean_linker_0, # of connection points: 2
# Relax obj value: 0.045
# Max RMSD: 0.081
# Mean RMSD: 0.066
data_MOF--net-ptr--node1-GALJAG_clean_sbu_0--node2-NAWXER_clean_linker_0--edge1-ZUJKAS_clean_linker_0
_symmetry_space_group_name_H-M    P1
_symmetry_Int_Tables_number       1
_symmetry_cell_setting            triclinic
loop_
_symmetry_equiv_pos_as_xyz
'x, y, z'
_cell_length_a     107.34415
_cell_length_b     107.47207
_cell_length_c     84.361953
_cell_angle_alpha  90.059972
_cell_angle_beta   89.953745
_cell_angle_gamma 120.04171
loop_
_atom_site_label
_atom_site_type_symbol
_atom_site_fract_x
_atom_site_fract_y
_atom_site_fract_z
_atom_type_partial_charge
In0 In 0.00098 0.34989 0.01033 0.0
O1 O 0.9872 0.35075 0.0306 0.0
O2 O 0.00827 0.36857 0.02748 0.0
C3 C 0.9825 0.32488 0.99607 0.0
C4 C 0.0205 0.34391 0.02288 0.0
C5 C 0.00388 0.36794 0.98657 0.0
O6 O 0.97894 0.32961 0.00792 0.0
O7 O 0.99537 0.33266 0.99162 0.0
O8 O 0.01415 0.3662 0.991 0.0
O9 O 0.99233 0.3607 0.99419 0.0
C10 C 0.99674 0.36302 0.03537 0.0
O11 O 0.02377 0.35338 0.01232 0.0
O12 O 0.00743 0.33742 0.02689 0.0
In13 In 0.64834 0.64969 0.00917 0.0
O14 O 0.64684 0.63353 0.02787 0.0
O15 O 0.62977 0.6381 0.02643 0.0
C16 C 0.67323 0.65612 0.99462 0.0
C17 C 0.65543 0.67476 0.02368 0.0
C18 C 0.62966 0.63644 0.98516 0.0
O19 O 0.66779 0.64675 0.00541 0.0
O20 O 0.66622 0.66234 0.99138 0.0
O21 O 0.63127 0.6478 0.9915 0.0
O22 O 0.63739 0.63181 0.99098 0.0
C23 C 0.63489 0.63122 0.03327 0.0
O24 O 0.64686 0.67007 0.01207 0.0
O25 O 0.66052 0.66691 0.02776 0.0
In26 In 0.34895 0.99948 0.00925 0.0
O27 O 0.35077 0.02157 0.00735 0.0
O28 O 0.33784 0.00556 0.99045 0.0
C29 C 0.36692 0.00364 0.03365 0.0
C30 C 0.36294 0.99574 0.98477 0.0
C31 C 0.32369 0.98036 0.0227 0.0
O32 O 0.36485 0.01352 0.02859 0.0
O33 O 0.35998 0.99184 0.02641 0.0
O34 O 0.33031 0.97662 0.01319 0.0
O35 O 0.3297 0.9937 0.02519 0.0
C36 C 0.3428 0.0183 0.99524 0.0
O37 O 0.35032 0.9863 0.98866 0.0
O38 O 0.36845 0.00688 0.9933 0.0
In39 In 0.00131 0.65279 0.00953 0.0
O40 O 0.01486 0.65102 0.9896 0.0
O41 O 0.99407 0.63311 0.99401 0.0
C42 C 0.01976 0.67832 0.02285 0.0
C43 C 0.98233 0.65846 0.99504 0.0
C44 C 0.99784 0.6355 0.03432 0.0
O45 O 0.0237 0.67252 0.01247 0.0
O46 O 0.00654 0.67135 0.02626 0.0
O47 O 0.98759 0.63685 0.02895 0.0
O48 O 0.00965 0.64278 0.02717 0.0
C49 C 0.0054 0.63839 0.98578 0.0
O50 O 0.97898 0.65042 0.00707 0.0
O51 O 0.99522 0.66372 0.99057 0.0
In52 In 0.35079 0.35135 0.00981 0.0
O53 O 0.35108 0.36629 0.99025 0.0
O54 O 0.36956 0.36411 0.99307 0.0
C55 C 0.32608 0.34542 0.02455 0.0
C56 C 0.3448 0.32694 0.99448 0.0
C57 C 0.36885 0.36322 0.03466 0.0
O58 O 0.33284 0.35621 0.01564 0.0
O59 O 0.33166 0.33756 0.0258 0.0
O60 O 0.36482 0.35063 0.02986 0.0
O61 O 0.36389 0.36976 0.02685 0.0
C62 C 0.36357 0.3698 0.9855 0.0
O63 O 0.35505 0.33303 0.00423 0.0
O64 O 0.33749 0.33307 0.99265 0.0
In65 In 0.65109 0.99901 0.01036 0.0
O66 O 0.6494 0.01302 0.02978 0.0
O67 O 0.63256 0.9913 0.02781 0.0
C68 C 0.67593 0.0179 0.996 0.0
C69 C 0.65767 0.98019 0.02363 0.0
C70 C 0.63288 0.99492 0.9863 0.0
O71 O 0.67112 0.02128 0.00792 0.0
O72 O 0.66834 0.00501 0.99157 0.0
O73 O 0.6359 0.98543 0.9904 0.0
O74 O 0.63891 0.00629 0.99444 0.0
C75 C 0.63752 0.00313 0.03503 0.0
O76 O 0.64789 0.97645 0.01335 0.0
O77 O 0.6642 0.99339 0.02702 0.0
In78 In 0.66474 0.68257 0.34448 0.0
O79 O 0.65043 0.68453 0.36331 0.0
O80 O 0.67174 0.702 0.36047 0.0
C81 C 0.64596 0.65714 0.3311 0.0
C82 C 0.68322 0.67632 0.35926 0.0
C83 C 0.66972 0.70032 0.31966 0.0
O84 O 0.64221 0.66308 0.3415 0.0
O85 O 0.65916 0.66392 0.32767 0.0
O86 O 0.67957 0.69882 0.32591 0.0
O87 O 0.6575 0.69294 0.32595 0.0
C88 C 0.65994 0.69691 0.36778 0.0
O89 O 0.68667 0.6841 0.34701 0.0
O90 O 0.67047 0.67163 0.3639 0.0
In91 In 0.31728 0.98225 0.34572 0.0
O92 O 0.31679 0.96846 0.3667 0.0
O93 O 0.29724 0.96737 0.36 0.0
C94 C 0.34251 0.98818 0.33241 0.0
C95 C 0.32313 0.00728 0.35954 0.0
C96 C 0.30015 0.97011 0.32027 0.0
O97 O 0.33542 0.97745 0.34131 0.0
O98 O 0.33701 0.99606 0.33049 0.0
O99 O 0.29991 0.97995 0.32822 0.0
O100 O 0.30889 0.9664 0.32523 0.0
C101 C 0.30352 0.96315 0.36933 0.0
O102 O 0.31506 0.0023 0.34756 0.0
O103 O 0.32829 0.99971 0.36439 0.0
In104 In 0.0181 0.33434 0.34311 0.0
O105 O 0.02313 0.3574 0.33869 0.0
O106 O 0.00614 0.34066 0.32553 0.0
C107 C 0.03599 0.33947 0.36783 0.0
C108 C 0.03092 0.32854 0.31895 0.0
C109 C 0.99311 0.31548 0.35736 0.0
O110 O 0.03178 0.34809 0.36387 0.0
O111 O 0.03122 0.32836 0.35931 0.0
O112 O 0.9992 0.31163 0.34726 0.0
O113 O 0.99952 0.3288 0.36007 0.0
C114 C 0.01353 0.35396 0.32825 0.0
O115 O 0.01788 0.32031 0.32256 0.0
O116 O 0.03744 0.33956 0.32757 0.0
In117 In 0.66664 0.98236 0.34361 0.0
O118 O 0.68139 0.9814 0.32465 0.0
O119 O 0.6603 0.96344 0.32699 0.0
C120 C 0.68491 0.00803 0.35694 0.0
C121 C 0.64768 0.98761 0.32834 0.0
C122 C 0.66152 0.9645 0.36843 0.0
O123 O 0.68914 0.0015 0.34794 0.0
O124 O 0.67149 0.0017 0.35906 0.0
O125 O 0.65186 0.9665 0.36252 0.0
O126 O 0.67363 0.97144 0.36179 0.0
C127 C 0.67216 0.96907 0.31974 0.0
O128 O 0.64428 0.9797 0.34048 0.0
O129 O 0.66065 0.99301 0.32412 0.0
In130 In 0.01772 0.68468 0.34423 0.0
O131 O 0.01744 0.69892 0.3242 0.0
O132 O 0.03678 0.69857 0.32824 0.0
C133 C 0.99238 0.67717 0.35845 0.0
C134 C 0.01327 0.66038 0.32971 0.0
C135 C 0.03533 0.69799 0.36904 0.0
O136 O 0.99805 0.68719 0.34839 0.0
O137 O 0.99938 0.67083 0.36111 0.0
O138 O 0.03345 0.68625 0.36348 0.0
O139 O 0.02844 0.70301 0.362 0.0
C140 C 0.03031 0.70341 0.32009 0.0
O141 O 0.02256 0.66646 0.34048 0.0
O142 O 0.00612 0.66645 0.32646 0.0
In143 In 0.31717 0.33357 0.3449 0.0
O144 O 0.31308 0.31084 0.34913 0.0
O145 O 0.33222 0.32832 0.3586 0.0
C146 C 0.29726 0.32776 0.32218 0.0
C147 C 0.30531 0.3389 0.3704 0.0
C148 C 0.34143 0.35257 0.32966 0.0
O149 O 0.30187 0.3193 0.32532 0.0
O150 O 0.30253 0.33894 0.33062 0.0
O151 O 0.33823 0.3551 0.34324 0.0
O152 O 0.33249 0.3405 0.32395 0.0
C153 C 0.32446 0.31488 0.35703 0.0
O154 O 0.31465 0.34886 0.36188 0.0
O155 O 0.30207 0.32641 0.3661 0.0
In156 In 0.33375 0.01766 0.67737 0.0
O157 O 0.35692 0.02316 0.68195 0.0
O158 O 0.34022 0.00474 0.69338 0.0
C159 C 0.33793 0.03539 0.65276 0.0
C160 C 0.32828 0.03058 0.70171 0.0
C161 C 0.31529 0.99237 0.66353 0.0
O162 O 0.3471 0.03188 0.6567 0.0
O163 O 0.32677 0.03002 0.66125 0.0
O164 O 0.31171 0.99734 0.67514 0.0
O165 O 0.32818 6e-05 0.65911 0.0
C166 C 0.35356 0.01278 0.69126 0.0
O167 O 0.31887 0.01853 0.69632 0.0
O168 O 0.3403 0.03601 0.69482 0.0
In169 In 0.98169 0.31551 0.67691 0.0
O170 O 0.97669 0.33345 0.68185 0.0
O171 O 0.99492 0.33461 0.69318 0.0
C172 C 0.96323 0.30172 0.65285 0.0
C173 C 0.96944 0.29685 0.70119 0.0
C174 C 0.00685 0.32303 0.66229 0.0
O175 O 0.96595 0.31397 0.65763 0.0
O176 O 0.96975 0.29649 0.66024 0.0
O177 O 0.00246 0.31472 0.67411 0.0
O178 O 0.99864 0.32765 0.65801 0.0
C179 C 0.98713 0.34021 0.69122 0.0
O180 O 0.98088 0.29892 0.69459 0.0
O181 O 0.96427 0.30416 0.69555 0.0
In182 In 0.68384 0.6669 0.67647 0.0
O183 O 0.68627 0.68909 0.67267 0.0
O184 O 0.67073 0.6717 0.65886 0.0
C185 C 0.703 0.67259 0.69998 0.0
C186 C 0.69714 0.66167 0.65234 0.0
C187 C 0.6593 0.64839 0.69166 0.0
O188 O 0.69992 0.68183 0.69508 0.0
O189 O 0.69645 0.66061 0.69302 0.0
O190 O 0.66384 0.64475 0.67971 0.0
O191 O 0.66702 0.66135 0.69576 0.0
C192 C 0.67677 0.68493 0.66201 0.0
O193 O 0.68541 0.65199 0.65815 0.0
O194 O 0.70206 0.67386 0.6587 0.0
In195 In 0.33228 0.31581 0.67594 0.0
O196 O 0.34698 0.31575 0.65623 0.0
O197 O 0.32601 0.2976 0.65835 0.0
C198 C 0.35085 0.3403 0.69107 0.0
C199 C 0.31325 0.32204 0.66235 0.0
C200 C 0.32751 0.29722 0.6998 0.0
O201 O 0.35452 0.3356 0.67929 0.0
O202 O 0.33781 0.33273 0.69506 0.0
O203 O 0.31823 0.30047 0.69553 0.0
O204 O 0.33908 0.30326 0.69198 0.0
C205 C 0.33781 0.30354 0.65098 0.0
O206 O 0.30938 0.31122 0.67115 0.0
O207 O 0.32668 0.32978 0.66063 0.0
In208 In 0.68627 0.01922 0.67594 0.0
O209 O 0.68705 0.03504 0.65729 0.0
O210 O 0.7037 0.0298 0.65717 0.0
C211 C 0.66211 0.01431 0.69123 0.0
C212 C 0.67927 0.99404 0.66168 0.0
C213 C 0.70559 0.03215 0.69953 0.0
O214 O 0.66737 0.02308 0.67987 0.0
O215 O 0.66891 0.00794 0.69469 0.0
O216 O 0.70028 0.019 0.69625 0.0
O217 O 0.70128 0.03876 0.69082 0.0
C218 C 0.69844 0.03679 0.65086 0.0
O219 O 0.68987 0.00036 0.67094 0.0
O220 O 0.67209 0.0003 0.65982 0.0
In221 In 0.98131 0.66661 0.67751 0.0
O222 O 0.97671 0.6438 0.68246 0.0
O223 O 0.99474 0.66106 0.69384 0.0
C224 C 0.963 0.66146 0.65313 0.0
C225 C 0.96868 0.67263 0.70175 0.0
C226 C 0.00648 0.68497 0.66335 0.0
O227 O 0.96619 0.65226 0.65785 0.0
O228 O 0.96896 0.67312 0.66074 0.0
O229 O 0.00145 0.68866 0.67479 0.0
O230 O 0.99891 0.672 0.65919 0.0
C231 C 0.98716 0.64766 0.69185 0.0
O232 O 0.98016 0.6821 0.69533 0.0
O233 O 0.96363 0.66021 0.69594 0.0
C234 C 0.20921 0.33354 0.1339 0.0
C235 C 0.20676 0.32375 0.12159 0.0
C236 C 0.19782 0.33205 0.1433 0.0
C237 C 0.18376 0.32072 0.14058 0.0
C238 C 0.19269 0.31236 0.11897 0.0
C239 C 0.18128 0.31094 0.12828 0.0
C240 C 0.1715 0.31967 0.14969 0.0
C241 C 0.19699 0.31001 0.18534 0.0
C242 C 0.20199 0.31936 0.19844 0.0
C243 C 0.18727 0.31047 0.17463 0.0
C244 C 0.18254 0.32042 0.17673 0.0
C245 C 0.19737 0.32942 0.20036 0.0
C246 C 0.18771 0.32989 0.18967 0.0
C247 C 0.17134 0.32033 0.16641 0.0
C248 C 0.11194 0.30898 0.18167 0.0
C249 C 0.11532 0.31908 0.19389 0.0
C250 C 0.12282 0.30947 0.17207 0.0
C251 C 0.13725 0.32006 0.17458 0.0
C252 C 0.12976 0.32974 0.19623 0.0
C253 C 0.14061 0.33015 0.18675 0.0
C254 C 0.14903 0.32016 0.16537 0.0
C255 C 0.12532 0.33248 0.13082 0.0
C256 C 0.11911 0.32301 0.11795 0.0
C257 C 0.13493 0.33124 0.14093 0.0
C258 C 0.13842 0.32041 0.13851 0.0
C259 C 0.1227 0.31223 0.11549 0.0
C260 C 0.13232 0.311 0.12563 0.0
C261 C 0.14919 0.31952 0.14866 0.0
H262 H 0.21995 0.34238 0.13624 0.0
H263 H 0.19995 0.33993 0.15247 0.0
H264 H 0.19046 0.30476 0.10944 0.0
H265 H 0.17049 0.30224 0.12586 0.0
H266 H 0.2002 0.30202 0.18366 0.0
H267 H 0.18314 0.30276 0.16501 0.0
H268 H 0.20119 0.33691 0.21019 0.0
H269 H 0.18419 0.33762 0.19157 0.0
H270 H 0.10091 0.30066 0.1796 0.0
H271 H 0.12 0.30139 0.16295 0.0
H272 H 0.13272 0.33753 0.20571 0.0
H273 H 0.15169 0.33832 0.18899 0.0
H274 H 0.12305 0.34109 0.13285 0.0
H275 H 0.13989 0.33898 0.15043 0.0
H276 H 0.11802 0.30471 0.10576 0.0
H277 H 0.13498 0.30267 0.12343 0.0
N278 N 0.16038 0.31922 0.14147 0.0
N279 N 0.16013 0.32059 0.17355 0.0
C280 C 0.67107 0.87649 0.1319 0.0
C281 C 0.68056 0.88301 0.1191 0.0
C282 C 0.6724 0.86676 0.14171 0.0
C283 C 0.68335 0.86348 0.13907 0.0
C284 C 0.69148 0.87964 0.11644 0.0
C285 C 0.6928 0.86991 0.12628 0.0
C286 C 0.68431 0.85255 0.14881 0.0
C287 C 0.69337 0.88884 0.18255 0.0
C288 C 0.68378 0.88484 0.19543 0.0
C289 C 0.69334 0.87837 0.17264 0.0
C290 C 0.68361 0.86372 0.17532 0.0
C291 C 0.67413 0.87016 0.19809 0.0
C292 C 0.67408 0.85974 0.18818 0.0
C293 C 0.68376 0.85233 0.16555 0.0
C294 C 0.69208 0.80258 0.18314 0.0
C295 C 0.68215 0.79701 0.19572 0.0
C296 C 0.69245 0.81314 0.17314 0.0
C297 C 0.68283 0.81826 0.17549 0.0
C298 C 0.6726 0.80222 0.19802 0.0
C299 C 0.67297 0.81274 0.18806 0.0
C300 C 0.6834 0.82993 0.16564 0.0
C301 C 0.66983 0.79266 0.13232 0.0
C302 C 0.6791 0.79532 0.11938 0.0
C303 C 0.67151 0.8039 0.14208 0.0
C304 C 0.68265 0.81802 0.13926 0.0
C305 C 0.69021 0.80948 0.11655 0.0
C306 C 0.69191 0.82073 0.12635 0.0
C307 C 0.68396 0.83014 0.1489 0.0
H308 H 0.66236 0.87861 0.13407 0.0
H309 H 0.66465 0.86157 0.15115 0.0
H310 H 0.69903 0.88455 0.10677 0.0
H311 H 0.70123 0.8674 0.12392 0.0
H312 H 0.70091 0.90006 0.18013 0.0
H313 H 0.70108 0.88173 0.16306 0.0
H314 H 0.66681 0.86666 0.20808 0.0
H315 H 0.66659 0.84851 0.19062 0.0
H316 H 0.69957 0.79878 0.18105 0.0
H317 H 0.70039 0.81747 0.16375 0.0
H318 H 0.66501 0.79839 0.20777 0.0
H319 H 0.66555 0.81663 0.19022 0.0
H320 H 0.66122 0.78187 0.13491 0.0
H321 H 0.66392 0.80157 0.15164 0.0
H322 H 0.6974 0.81194 0.10655 0.0
H323 H 0.70042 0.83157 0.12379 0.0
N324 N 0.6845 0.84149 0.14117 0.0
N325 N 0.68327 0.841 0.17324 0.0
C326 C 0.12224 0.79506 0.13254 0.0
C327 C 0.11597 0.79823 0.11968 0.0
C328 C 0.13214 0.80602 0.14238 0.0
C329 C 0.13582 0.82036 0.1397 0.0
C330 C 0.11975 0.81261 0.11697 0.0
C331 C 0.12963 0.82357 0.12684 0.0
C332 C 0.14694 0.83213 0.14945 0.0
C333 C 0.1106 0.80596 0.18393 0.0
C334 C 0.11457 0.80041 0.19684 0.0
C335 C 0.12108 0.81593 0.17363 0.0
C336 C 0.13569 0.82035 0.17597 0.0
C337 C 0.12917 0.80471 0.19894 0.0
C338 C 0.13959 0.81461 0.18867 0.0
C339 C 0.14717 0.83176 0.16617 0.0
C340 C 0.19765 0.88957 0.18395 0.0
C341 C 0.20176 0.88503 0.19758 0.0
C342 C 0.18746 0.87946 0.1735 0.0
C343 C 0.18151 0.86465 0.17633 0.0
C344 C 0.19588 0.87025 0.20032 0.0
C345 C 0.18589 0.8602 0.18981 0.0
C346 C 0.16982 0.85362 0.16634 0.0
C347 C 0.20705 0.87618 0.13251 0.0
C348 C 0.20471 0.88366 0.12031 0.0
C349 C 0.19571 0.86674 0.14228 0.0
C350 C 0.18183 0.86464 0.14002 0.0
C351 C 0.19081 0.88158 0.11811 0.0
C352 C 0.17944 0.87204 0.12779 0.0
C353 C 0.1696 0.85399 0.14961 0.0
H354 H 0.11981 0.78415 0.13476 0.0
H355 H 0.13715 0.8033 0.15185 0.0
H356 H 0.11503 0.81539 0.10724 0.0
H357 H 0.13245 0.83457 0.12443 0.0
H358 H 0.09945 0.80297 0.18211 0.0
H359 H 0.11782 0.82047 0.16416 0.0
H360 H 0.13256 0.80045 0.2086 0.0
H361 H 0.15078 0.81786 0.19073 0.0
H362 H 0.20193 0.90091 0.18167 0.0
H363 H 0.18394 0.88325 0.16353 0.0
H364 H 0.19899 0.86647 0.21065 0.0
H365 H 0.18145 0.84887 0.19234 0.0
H366 H 0.21766 0.87762 0.13451 0.0
H367 H 0.19774 0.8609 0.15141 0.0
H368 H 0.18866 0.88708 0.10868 0.0
H369 H 0.16877 0.87041 0.12572 0.0
N370 N 0.15813 0.84329 0.14183 0.0
N371 N 0.1586 0.8425 0.17388 0.0
C372 C 0.32429 0.12084 0.83678 0.0
C373 C 0.31323 0.11384 0.82556 0.0
C374 C 0.32438 0.13111 0.84704 0.0
C375 C 0.31332 0.13447 0.8464 0.0
C376 C 0.30204 0.11705 0.82514 0.0
C377 C 0.30214 0.12732 0.8354 0.0
C378 C 0.31409 0.1464 0.85595 0.0
C379 C 0.30955 0.11314 0.89157 0.0
C380 C 0.32143 0.1178 0.90179 0.0
C381 C 0.3082 0.12293 0.88184 0.0
C382 C 0.31875 0.13756 0.88208 0.0
C383 C 0.33194 0.13248 0.90199 0.0
C384 C 0.33055 0.14225 0.89233 0.0
C385 C 0.3173 0.1482 0.87232 0.0
C386 C 0.31096 0.19945 0.88901 0.0
C387 C 0.32223 0.20606 0.90006 0.0
C388 C 0.3094 0.18793 0.8798 0.0
C389 C 0.31925 0.18299 0.88124 0.0
C390 C 0.33193 0.20096 0.90165 0.0
C391 C 0.33043 0.18953 0.89236 0.0
C392 C 0.31762 0.17058 0.87187 0.0
C393 C 0.32596 0.2045 0.83538 0.0
C394 C 0.31479 0.20064 0.82434 0.0
C395 C 0.32575 0.19427 0.84575 0.0
C396 C 0.3143 0.18001 0.84542 0.0
C397 C 0.3033 0.18638 0.82411 0.0
C398 C 0.30312 0.17616 0.83448 0.0
C399 C 0.31453 0.16884 0.85547 0.0
H400 H 0.33302 0.11855 0.83747 0.0
H401 H 0.33336 0.13674 0.85509 0.0
H402 H 0.29348 0.11202 0.81649 0.0
H403 H 0.2936 0.12989 0.83454 0.0
H404 H 0.30113 0.10197 0.89131 0.0
H405 H 0.2988 0.11911 0.87434 0.0
H406 H 0.34133 0.13643 0.90952 0.0
H407 H 0.33879 0.1535 0.89275 0.0
H408 H 0.30318 0.20298 0.88774 0.0
H409 H 0.30037 0.18277 0.87173 0.0
H410 H 0.34079 0.20591 0.90997 0.0
H411 H 0.33809 0.18584 0.89378 0.0
H412 H 0.33492 0.2154 0.83591 0.0
H413 H 0.33472 0.19744 0.85379 0.0
H414 H 0.29465 0.18302 0.81559 0.0
H415 H 0.29429 0.16518 0.83385 0.0
N416 N 0.31278 0.15677 0.84821 0.0
N417 N 0.31897 0.16022 0.8796 0.0
C418 C 0.88822 0.19766 0.8914 0.0
C419 C 0.88332 0.20523 0.9007 0.0
C420 C 0.87867 0.18619 0.88184 0.0
C421 C 0.86404 0.18212 0.88132 0.0
C422 C 0.86866 0.20112 0.9001 0.0
C423 C 0.85911 0.18963 0.89059 0.0
C424 C 0.85362 0.16951 0.87199 0.0
C425 C 0.88139 0.2017 0.83472 0.0
C426 C 0.88931 0.19731 0.82524 0.0
C427 C 0.87088 0.19207 0.84518 0.0
C428 C 0.86809 0.17787 0.84641 0.0
C429 C 0.88671 0.18317 0.82683 0.0
C430 C 0.87611 0.17352 0.83719 0.0
C431 C 0.85592 0.16718 0.85605 0.0
C432 C 0.79857 0.11874 0.83581 0.0
C433 C 0.8032 0.11183 0.82514 0.0
C434 C 0.80833 0.12925 0.84619 0.0
C435 C 0.82285 0.13286 0.84632 0.0
C436 C 0.81769 0.11535 0.82538 0.0
C437 C 0.82742 0.12578 0.83584 0.0
C438 C 0.83362 0.14497 0.85604 0.0
C439 C 0.80338 0.11265 0.89152 0.0
C440 C 0.79571 0.11748 0.90077 0.0
C441 C 0.81488 0.12224 0.88203 0.0
C442 C 0.81889 0.13684 0.88151 0.0
C443 C 0.79981 0.13212 0.90024 0.0
C444 C 0.81133 0.1417 0.8908 0.0
C445 C 0.83139 0.14726 0.87204 0.0
H446 H 0.89938 0.20036 0.8918 0.0
H447 H 0.88266 0.18031 0.87516 0.0
H448 H 0.86454 0.20682 0.90693 0.0
H449 H 0.84785 0.18662 0.89044 0.0
H450 H 0.88288 0.21239 0.83361 0.0
H451 H 0.86457 0.19557 0.85185 0.0
H452 H 0.89273 0.17947 0.81991 0.0
H453 H 0.87407 0.16259 0.8379 0.0
H454 H 0.78754 0.11646 0.83569 0.0
H455 H 0.8046 0.13491 0.85368 0.0
H456 H 0.82155 0.11014 0.81737 0.0
H457 H 0.83859 0.12847 0.83559 0.0
H458 H 0.80069 0.10151 0.89187 0.0
H459 H 0.8208 0.1183 0.87531 0.0
H460 H 0.79403 0.13618 0.90702 0.0
H461 H 0.81429 0.15293 0.89065 0.0
N462 N 0.84144 0.15947 0.87934 0.0
N463 N 0.84585 0.15499 0.84873 0.0
C464 C 0.80148 0.69074 0.89037 0.0
C465 C 0.7944 0.67868 0.90033 0.0
C466 C 0.81316 0.69279 0.8811 0.0
C467 C 0.8179 0.68275 0.88151 0.0
C468 C 0.79927 0.66874 0.90082 0.0
C469 C 0.81094 0.6708 0.89157 0.0
C470 C 0.83052 0.68494 0.87216 0.0
C471 C 0.79716 0.67772 0.83535 0.0
C472 C 0.8011 0.68911 0.82464 0.0
C473 C 0.80725 0.67783 0.84589 0.0
C474 C 0.82144 0.68943 0.84608 0.0
C475 C 0.81526 0.7008 0.82501 0.0
C476 C 0.82535 0.7009 0.83555 0.0
C477 C 0.83257 0.68896 0.85601 0.0
C478 C 0.88061 0.68034 0.83532 0.0
C479 C 0.88845 0.69248 0.82562 0.0
C480 C 0.87013 0.6796 0.84574 0.0
C481 C 0.8673 0.69099 0.84671 0.0
C482 C 0.88582 0.70402 0.82695 0.0
C483 C 0.87525 0.70321 0.83728 0.0
C484 C 0.85513 0.68961 0.85628 0.0
C485 C 0.88775 0.69215 0.89161 0.0
C486 C 0.88291 0.67981 0.9011 0.0
C487 C 0.87812 0.69395 0.88209 0.0
C488 C 0.86347 0.68341 0.88179 0.0
C489 C 0.86823 0.66929 0.90076 0.0
C490 C 0.85861 0.67113 0.89129 0.0
C491 C 0.85299 0.68539 0.87235 0.0
H492 H 0.79795 0.69856 0.88967 0.0
H493 H 0.81858 0.70231 0.87376 0.0
H494 H 0.79421 0.65947 0.90857 0.0
H495 H 0.81451 0.663 0.89223 0.0
H496 H 0.78632 0.6686 0.83543 0.0
H497 H 0.80404 0.66864 0.85355 0.0
H498 H 0.81869 0.70964 0.81676 0.0
H499 H 0.83629 0.70986 0.83532 0.0
H500 H 0.88211 0.67113 0.83441 0.0
H501 H 0.86387 0.66989 0.85259 0.0
H502 H 0.89179 0.71363 0.81986 0.0
H503 H 0.87317 0.71208 0.83778 0.0
H504 H 0.89893 0.70057 0.89181 0.0
H505 H 0.88207 0.70372 0.87522 0.0
H506 H 0.86416 0.65957 0.90773 0.0
H507 H 0.84735 0.66289 0.8913 0.0
N508 N 0.84076 0.68322 0.87964 0.0
N509 N 0.84486 0.69125 0.84876 0.0
C510 C 0.77865 0.64312 0.46197 0.0
C511 C 0.78335 0.65507 0.45188 0.0
C512 C 0.78847 0.64156 0.47145 0.0
C513 C 0.80315 0.65197 0.4711 0.0
C514 C 0.79809 0.66541 0.45151 0.0
C515 C 0.80789 0.66381 0.46094 0.0
C516 C 0.81377 0.65034 0.48072 0.0
C517 C 0.78681 0.65758 0.51654 0.0
C518 C 0.77967 0.64647 0.52767 0.0
C519 C 0.79701 0.65758 0.50624 0.0
C520 C 0.80017 0.64638 0.50672 0.0
C521 C 0.7827 0.63516 0.52796 0.0
C522 C 0.79291 0.63517 0.51765 0.0
C523 C 0.81198 0.647 0.49706 0.0
C524 C 0.86986 0.65791 0.51728 0.0
C525 C 0.86587 0.6467 0.52825 0.0
C526 C 0.8597 0.65787 0.5069 0.0
C527 C 0.84537 0.64654 0.50718 0.0
C528 C 0.85156 0.63529 0.52838 0.0
C529 C 0.8414 0.63527 0.51801 0.0
C530 C 0.83425 0.64704 0.49728 0.0
C531 C 0.86418 0.64303 0.46309 0.0
C532 C 0.87155 0.65488 0.4529 0.0
C533 C 0.85267 0.64153 0.47229 0.0
C534 C 0.84837 0.65189 0.47155 0.0
C535 C 0.8671 0.66514 0.45206 0.0
C536 C 0.85557 0.66361 0.46122 0.0
C537 C 0.83601 0.65034 0.48094 0.0
H538 H 0.76743 0.63482 0.46233 0.0
H539 H 0.7846 0.63212 0.47887 0.0
H540 H 0.80207 0.67483 0.44405 0.0
H541 H 0.81918 0.67194 0.46043 0.0
H542 H 0.78466 0.6664 0.51595 0.0
H543 H 0.80275 0.66658 0.49826 0.0
H544 H 0.77757 0.62657 0.53654 0.0
H545 H 0.79531 0.62653 0.5184 0.0
H546 H 0.88081 0.66681 0.51683 0.0
H547 H 0.86298 0.6669 0.49897 0.0
H548 H 0.8481 0.6266 0.53684 0.0
H549 H 0.83036 0.62652 0.51859 0.0
H550 H 0.86739 0.63497 0.46404 0.0
H551 H 0.84706 0.6322 0.47987 0.0
H552 H 0.8724 0.67426 0.44414 0.0
H553 H 0.85233 0.67164 0.46031 0.0
N554 N 0.82574 0.65193 0.47333 0.0
N555 N 0.82227 0.64542 0.50466 0.0
C556 C 0.33654 0.20989 0.4634 0.0
C557 C 0.34669 0.21685 0.45128 0.0
C558 C 0.33748 0.19997 0.47327 0.0
C559 C 0.34863 0.19687 0.47126 0.0
C560 C 0.35787 0.21375 0.44931 0.0
C561 C 0.35874 0.20374 0.45913 0.0
C562 C 0.34917 0.18574 0.48104 0.0
C563 C 0.35877 0.22185 0.51546 0.0
C564 C 0.34887 0.21794 0.52801 0.0
C565 C 0.35836 0.21136 0.50527 0.0
C566 C 0.34796 0.19681 0.50737 0.0
C567 C 0.33831 0.2034 0.52985 0.0
C568 C 0.33793 0.19296 0.51971 0.0
C569 C 0.34808 0.18535 0.49773 0.0
C570 C 0.35697 0.13643 0.5165 0.0
C571 C 0.34712 0.13103 0.52916 0.0
C572 C 0.35697 0.14655 0.50605 0.0
C573 C 0.34702 0.1513 0.50799 0.0
C574 C 0.33704 0.13566 0.53086 0.0
C575 C 0.33705 0.14573 0.52045 0.0
C576 C 0.34759 0.16291 0.49802 0.0
C577 C 0.33498 0.12587 0.46473 0.0
C578 C 0.34482 0.12853 0.45238 0.0
C579 C 0.33632 0.13709 0.47429 0.0
C580 C 0.34761 0.1512 0.47181 0.0
C581 C 0.35608 0.14269 0.44989 0.0
C582 C 0.3574 0.15392 0.45945 0.0
C583 C 0.34865 0.16326 0.48132 0.0
H584 H 0.32786 0.21212 0.46525 0.0
H585 H 0.32933 0.19454 0.48228 0.0
H586 H 0.36574 0.21882 0.43995 0.0
H587 H 0.36731 0.20135 0.45725 0.0
H588 H 0.36714 0.23293 0.51385 0.0
H589 H 0.36645 0.21457 0.49609 0.0
H590 H 0.33037 0.20006 0.53921 0.0
H591 H 0.32982 0.18181 0.52158 0.0
H592 H 0.36498 0.13322 0.51499 0.0
H593 H 0.36503 0.15096 0.49679 0.0
H594 H 0.32916 0.13154 0.54033 0.0
H595 H 0.3293 0.14926 0.5222 0.0
H596 H 0.32599 0.11516 0.46676 0.0
H597 H 0.32833 0.13478 0.48339 0.0
H598 H 0.36392 0.1451 0.44058 0.0
H599 H 0.36611 0.16475 0.45723 0.0
N600 N 0.34949 0.17471 0.47348 0.0
N601 N 0.34729 0.17394 0.50552 0.0
C602 C 0.79031 0.12708 0.46177 0.0
C603 C 0.78314 0.12995 0.44964 0.0
C604 C 0.80018 0.13814 0.47152 0.0
C605 C 0.80302 0.15228 0.46936 0.0
C606 C 0.78603 0.14412 0.44747 0.0
C607 C 0.79599 0.15521 0.45717 0.0
C608 C 0.81391 0.16412 0.4792 0.0
C609 C 0.77717 0.13666 0.51233 0.0
C610 C 0.78098 0.13068 0.52497 0.0
C611 C 0.7878 0.14724 0.50267 0.0
C612 C 0.80241 0.15195 0.50541 0.0
C613 C 0.79562 0.13548 0.52767 0.0
C614 C 0.8062 0.14603 0.51804 0.0
C615 C 0.81393 0.16363 0.49592 0.0
C616 C 0.86335 0.22177 0.51437 0.0
C617 C 0.86856 0.21741 0.52727 0.0
C618 C 0.85301 0.21157 0.50413 0.0
C619 C 0.8478 0.19683 0.50653 0.0
C620 C 0.86323 0.20265 0.52964 0.0
C621 C 0.85296 0.1925 0.51942 0.0
C622 C 0.83633 0.18572 0.49643 0.0
C623 C 0.87418 0.20997 0.46399 0.0
C624 C 0.87168 0.21649 0.45086 0.0
C625 C 0.86277 0.20026 0.47347 0.0
C626 C 0.84863 0.19705 0.47024 0.0
C627 C 0.85749 0.21316 0.44757 0.0
C628 C 0.84609 0.2035 0.45713 0.0
C629 C 0.83636 0.18618 0.47968 0.0
H630 H 0.78826 0.11626 0.46377 0.0
H631 H 0.80573 0.13568 0.48062 0.0
H632 H 0.78079 0.14667 0.43809 0.0
H633 H 0.79818 0.16609 0.45518 0.0
H634 H 0.76599 0.13317 0.50993 0.0
H635 H 0.78459 0.1519 0.49327 0.0
H636 H 0.79895 0.13133 0.53747 0.0
H637 H 0.8174 0.1496 0.5205 0.0
H638 H 0.86725 0.23306 0.51219 0.0
H639 H 0.84893 0.2152 0.49452 0.0
H640 H 0.86675 0.19887 0.53963 0.0
H641 H 0.84899 0.18119 0.52164 0.0
H642 H 0.88497 0.21235 0.46695 0.0
H643 H 0.865 0.19508 0.48318 0.0
H644 H 0.85515 0.21779 0.43741 0.0
H645 H 0.83524 0.201 0.45424 0.0
N646 N 0.82508 0.17541 0.47173 0.0
N647 N 0.82515 0.17443 0.50383 0.0
C648 C 0.98515 0.53614 0.17012 0.0
C649 C 0.99454 0.54173 0.15709 0.0
C650 C 0.98548 0.52586 0.18002 0.0
C651 C 0.99531 0.5211 0.17714 0.0
C652 C 0.00433 0.5369 0.15426 0.0
C653 C 0.00467 0.52667 0.16414 0.0
C654 C 0.99532 0.5096 0.18679 0.0
C655 C 0.00835 0.54673 0.22028 0.0
C656 C 0.99897 0.54375 0.23319 0.0
C657 C 0.00708 0.53565 0.21051 0.0
C658 C 0.99629 0.52137 0.21333 0.0
C659 C 0.98825 0.52943 0.23605 0.0
C660 C 0.98698 0.51835 0.22626 0.0
C661 C 0.9952 0.50944 0.20354 0.0
C662 C 0.00708 0.46181 0.21888 0.0
C663 C 0.99829 0.45598 0.23233 0.0
C664 C 0.00587 0.47176 0.20932 0.0
C665 C 0.99567 0.47591 0.21284 0.0
C666 C 0.98817 0.46025 0.2359 0.0
C667 C 0.98693 0.47016 0.22628 0.0
C668 C 0.99478 0.487 0.2033 0.0
C669 C 0.98241 0.45007 0.16933 0.0
C670 C 0.9915 0.45348 0.15607 0.0
C671 C 0.98357 0.46091 0.17947 0.0
C672 C 0.99396 0.47535 0.17663 0.0
C673 C 0.00194 0.46793 0.15336 0.0
C674 C 0.00309 0.47874 0.16348 0.0
C675 C 0.99477 0.48711 0.18654 0.0
H676 H 0.9775 0.53966 0.17265 0.0
H677 H 0.97788 0.52146 0.18971 0.0
H678 H 0.01152 0.54075 0.14416 0.0
H679 H 0.01221 0.52302 0.16155 0.0
H680 H 0.0169 0.5576 0.21794 0.0
H681 H 0.0147 0.53821 0.20093 0.0
H682 H 0.98076 0.52677 0.24579 0.0
H683 H 0.97866 0.5074 0.22875 0.0
H684 H 0.01492 0.4587 0.21572 0.0
H685 H 0.01309 0.47638 0.19932 0.0
H686 H 0.9814 0.45617 0.24631 0.0
H687 H 0.97915 0.47337 0.22939 0.0
H688 H 0.97413 0.43907 0.17162 0.0
H689 H 0.97612 0.45805 0.18929 0.0
H690 H 0.00925 0.4709 0.1434 0.0
H691 H 0.01115 0.48979 0.16101 0.0
N692 N 0.99514 0.49845 0.179 0.0
N693 N 0.99487 0.49812 0.21111 0.0
C694 C 0.47134 0.44384 0.17045 0.0
C695 C 0.46594 0.4475 0.15716 0.0
C696 C 0.4811 0.45453 0.18071 0.0
C697 C 0.48544 0.46905 0.17798 0.0
C698 C 0.47024 0.46202 0.15456 0.0
C699 C 0.47993 0.47266 0.16481 0.0
C700 C 0.49648 0.48069 0.18796 0.0
C701 C 0.45878 0.45562 0.22034 0.0
C702 C 0.46167 0.44998 0.23396 0.0
C703 C 0.47001 0.46539 0.21069 0.0
C704 C 0.48434 0.46948 0.21428 0.0
C705 C 0.47601 0.45419 0.23764 0.0
C706 C 0.48724 0.46386 0.2279 0.0
C707 C 0.49641 0.4805 0.20472 0.0
C708 C 0.54187 0.54034 0.22201 0.0
C709 C 0.54847 0.53751 0.23481 0.0
C710 C 0.53224 0.52921 0.21215 0.0
C711 C 0.52915 0.51504 0.21478 0.0
C712 C 0.54528 0.52329 0.23745 0.0
C713 C 0.53566 0.51217 0.22758 0.0
C714 C 0.5184 0.50304 0.20497 0.0
C715 C 0.55459 0.53078 0.17112 0.0
C716 C 0.55034 0.53622 0.15835 0.0
C717 C 0.54428 0.52025 0.18111 0.0
C718 C 0.52955 0.51507 0.17855 0.0
C719 C 0.53558 0.53098 0.15588 0.0
C720 C 0.52533 0.52051 0.16583 0.0
C721 C 0.51834 0.50331 0.18824 0.0
H722 H 0.46837 0.43276 0.17265 0.0
H723 H 0.48549 0.45148 0.19054 0.0
H724 H 0.46611 0.46518 0.14458 0.0
H725 H 0.48315 0.48378 0.16242 0.0
H726 H 0.44786 0.45281 0.21739 0.0
H727 H 0.46748 0.47 0.20065 0.0
H728 H 0.47855 0.44997 0.24803 0.0
H729 H 0.49821 0.467 0.23103 0.0
H730 H 0.54386 0.55112 0.21984 0.0
H731 H 0.52699 0.53165 0.20269 0.0
H732 H 0.55027 0.52076 0.24712 0.0
H733 H 0.53331 0.50129 0.22993 0.0
H734 H 0.56587 0.53461 0.17336 0.0
H735 H 0.54781 0.51597 0.19061 0.0
H736 H 0.53191 0.53471 0.14598 0.0
H737 H 0.51403 0.51656 0.1635 0.0
N738 N 0.50738 0.49213 0.18045 0.0
N739 N 0.50745 0.49163 0.21254 0.0
C740 C 0.46489 0.01506 0.22255 0.0
C741 C 0.45827 0.00374 0.23352 0.0
C742 C 0.47597 0.01628 0.21277 0.0
C743 C 0.48045 0.00604 0.21357 0.0
C744 C 0.46284 0.99359 0.23438 0.0
C745 C 0.47384 0.99475 0.22454 0.0
C746 C 0.4926 0.00745 0.20387 0.0
C747 C 0.45868 0.00104 0.16804 0.0
C748 C 0.46286 0.01243 0.15726 0.0
C749 C 0.46877 0.00065 0.17818 0.0
C750 C 0.48322 0.01171 0.17784 0.0
C751 C 0.4773 0.02356 0.15707 0.0
C752 C 0.48739 0.02314 0.16719 0.0
C753 C 0.49426 0.01085 0.18753 0.0
C754 C 0.54222 0.00095 0.16789 0.0
C755 C 0.54955 0.01238 0.15717 0.0
C756 C 0.53167 0.00053 0.17796 0.0
C757 C 0.52834 0.01161 0.17765 0.0
C758 C 0.54624 0.0235 0.15695 0.0
C759 C 0.53568 0.02306 0.16702 0.0
C760 C 0.51648 0.01077 0.1874 0.0
C761 C 0.55007 0.01493 0.22229 0.0
C762 C 0.54556 0.0029 0.23222 0.0
C763 C 0.54014 0.01636 0.21289 0.0
C764 C 0.52552 0.00577 0.21316 0.0
C765 C 0.53088 0.99235 0.23249 0.0
C766 C 0.52096 0.99383 0.22314 0.0
C767 C 0.51479 0.00734 0.20371 0.0
H768 H 0.46175 0.02318 0.22181 0.0
H769 H 0.48121 0.02538 0.20483 0.0
H770 H 0.45786 0.98468 0.24262 0.0
H771 H 0.47717 0.98679 0.22548 0.0
H772 H 0.44763 0.99234 0.16852 0.0
H773 H 0.46534 0.99151 0.18599 0.0
H774 H 0.48092 0.03236 0.14874 0.0
H775 H 0.49851 0.0317 0.16658 0.0
H776 H 0.54456 0.99226 0.16841 0.0
H777 H 0.5259 0.99136 0.18571 0.0
H778 H 0.55152 0.03234 0.14868 0.0
H779 H 0.53315 0.03162 0.16642 0.0
H780 H 0.56123 0.02339 0.22202 0.0
H781 H 0.54386 0.02587 0.20561 0.0
H782 H 0.52705 0.98286 0.23982 0.0
H783 H 0.50972 0.98556 0.2236 0.0
N784 N 0.5029 0.00576 0.21126 0.0
N785 N 0.50618 0.01246 0.17999 0.0
C786 C 0.54736 0.00786 0.8004 0.0
C787 C 0.54447 0.99883 0.78719 0.0
C788 C 0.53615 0.00671 0.80987 0.0
C789 C 0.52182 0.99635 0.80648 0.0
C790 C 0.53009 0.98856 0.78373 0.0
C791 C 0.51889 0.98739 0.79324 0.0
C792 C 0.50979 0.99541 0.81602 0.0
C793 C 0.53449 0.98345 0.85031 0.0
C794 C 0.53996 0.9925 0.86362 0.0
C795 C 0.52491 0.9846 0.83999 0.0
C796 C 0.52079 0.99494 0.84269 0.0
C797 C 0.53595 0.00295 0.86614 0.0
C798 C 0.52641 0.0041 0.85584 0.0
C799 C 0.50975 0.99557 0.83277 0.0
C800 C 0.45066 0.98434 0.84955 0.0
C801 C 0.45425 0.99348 0.86278 0.0
C802 C 0.4614 0.98524 0.83942 0.0
C803 C 0.47593 0.99542 0.84223 0.0
C804 C 0.46878 0.00378 0.86541 0.0
C805 C 0.47949 0.00468 0.85529 0.0
C806 C 0.48759 0.99573 0.83256 0.0
C807 C 0.46343 0.00852 0.79906 0.0
C808 C 0.45638 0.99858 0.78679 0.0
C809 C 0.47344 0.00743 0.80866 0.0
C810 C 0.47658 0.99637 0.80615 0.0
C811 C 0.45957 0.98753 0.78429 0.0
C812 C 0.46968 0.98653 0.7938 0.0
C813 C 0.48756 0.99547 0.81583 0.0
H814 H 0.5583 0.01583 0.80347 0.0
H815 H 0.53869 0.01407 0.81972 0.0
H816 H 0.52746 0.98161 0.77349 0.0
H817 H 0.5079 0.97947 0.79024 0.0
H818 H 0.53722 0.97517 0.84816 0.0
H819 H 0.52042 0.97713 0.83018 0.0
H820 H 0.54013 0.01023 0.87615 0.0
H821 H 0.52334 0.01212 0.85821 0.0
H822 H 0.43959 0.97616 0.84734 0.0
H823 H 0.45839 0.97768 0.8297 0.0
H824 H 0.47189 0.01112 0.87536 0.0
H825 H 0.49061 0.01257 0.85774 0.0
H826 H 0.46114 0.01711 0.80129 0.0
H827 H 0.47886 0.01534 0.8179 0.0
H828 H 0.45443 0.97983 0.7748 0.0
H829 H 0.47208 0.97802 0.79157 0.0
N830 N 0.49863 0.99526 0.80821 0.0
N831 N 0.4987 0.99581 0.84034 0.0
C832 C 0.99502 0.53995 0.79912 0.0
C833 C 0.00513 0.54709 0.78701 0.0
C834 C 0.99592 0.52979 0.80862 0.0
C835 C 0.00698 0.52661 0.80623 0.0
C836 C 0.01621 0.5439 0.78465 0.0
C837 C 0.01704 0.53365 0.79409 0.0
C838 C 0.00756 0.51533 0.81568 0.0
C839 C 0.01797 0.55123 0.85056 0.0
C840 C 0.00834 0.54736 0.86337 0.0
C841 C 0.01728 0.54074 0.84018 0.0
C842 C 0.00684 0.52621 0.84233 0.0
C843 C 0.99779 0.53283 0.86532 0.0
C844 C 0.99711 0.52238 0.85497 0.0
C845 C 0.00668 0.51476 0.83239 0.0
C846 C 0.01582 0.46548 0.84913 0.0
C847 C 0.00626 0.45994 0.86203 0.0
C848 C 0.0157 0.4758 0.83912 0.0
C849 C 0.00588 0.48064 0.84171 0.0
C850 C 0.99644 0.46479 0.86453 0.0
C851 C 0.99629 0.47504 0.85451 0.0
C852 C 0.00625 0.49234 0.83208 0.0
C853 C 0.99369 0.45592 0.79781 0.0
C854 C 0.00401 0.45879 0.78597 0.0
C855 C 0.99479 0.46696 0.80752 0.0
C856 C 0.00624 0.48107 0.80558 0.0
C857 C 0.01544 0.47294 0.78403 0.0
C858 C 0.01647 0.484 0.79366 0.0
C859 C 0.00715 0.49292 0.81537 0.0
H860 H 0.98641 0.54223 0.80126 0.0
H861 H 0.98783 0.52425 0.81766 0.0
H862 H 0.02404 0.5491 0.77529 0.0
H863 H 0.02554 0.53122 0.79192 0.0
H864 H 0.02634 0.5623 0.84886 0.0
H865 H 0.02518 0.54394 0.83079 0.0
H866 H 0.99007 0.52952 0.87492 0.0
H867 H 0.989 0.51124 0.85691 0.0
H868 H 0.02348 0.46194 0.84683 0.0
H869 H 0.02351 0.48023 0.82963 0.0
H870 H 0.98911 0.46099 0.87451 0.0
H871 H 0.98874 0.47873 0.85689 0.0
H872 H 0.9848 0.44511 0.79961 0.0
H873 H 0.9866 0.4645 0.81641 0.0
H874 H 0.02344 0.47549 0.77488 0.0
H875 H 0.02528 0.49486 0.79185 0.0
N876 N 0.00785 0.50443 0.80782 0.0
N877 N 0.006 0.50327 0.83989 0.0
C878 C 0.53054 0.55406 0.79544 0.0
C879 C 0.53823 0.5494 0.78598 0.0
C880 C 0.51898 0.54428 0.80476 0.0
C881 C 0.51495 0.52967 0.80487 0.0
C882 C 0.53413 0.53475 0.78615 0.0
C883 C 0.52255 0.52499 0.7954 0.0
C884 C 0.50237 0.51905 0.81412 0.0
C885 C 0.53479 0.54629 0.85145 0.0
C886 C 0.53041 0.55396 0.86133 0.0
C887 C 0.5251 0.53592 0.84091 0.0
C888 C 0.51084 0.53304 0.83999 0.0
C889 C 0.51618 0.55125 0.86009 0.0
C890 C 0.50647 0.5408 0.84964 0.0
C891 C 0.50011 0.52102 0.8302 0.0
C892 C 0.4532 0.463 0.84999 0.0
C893 C 0.44562 0.4669 0.86059 0.0
C894 C 0.46346 0.47316 0.83972 0.0
C895 C 0.46624 0.4874 0.8397 0.0
C896 C 0.44828 0.48111 0.8604 0.0
C897 C 0.45856 0.49128 0.85013 0.0
C898 C 0.47809 0.49856 0.83004 0.0
C899 C 0.44556 0.46841 0.79479 0.0
C900 C 0.45045 0.461 0.78519 0.0
C901 C 0.45518 0.47992 0.80424 0.0
C902 C 0.46987 0.48421 0.80436 0.0
C903 C 0.46519 0.46538 0.78531 0.0
C904 C 0.4748 0.47693 0.79471 0.0
C905 C 0.48028 0.49666 0.8139 0.0
H906 H 0.53322 0.5652 0.79538 0.0
H907 H 0.51303 0.5481 0.81161 0.0
H908 H 0.53993 0.53082 0.7792 0.0
H909 H 0.51959 0.51375 0.79526 0.0
H910 H 0.54555 0.54786 0.85228 0.0
H911 H 0.52861 0.52979 0.83392 0.0
H912 H 0.51249 0.55708 0.86734 0.0
H913 H 0.49549 0.53867 0.84918 0.0
H914 H 0.45135 0.45213 0.84978 0.0
H915 H 0.46952 0.46996 0.83214 0.0
H916 H 0.44277 0.48451 0.86857 0.0
H917 H 0.46067 0.50224 0.85049 0.0
H918 H 0.43434 0.46551 0.79475 0.0
H919 H 0.45118 0.48562 0.81126 0.0
H920 H 0.46931 0.45982 0.77824 0.0
H921 H 0.48611 0.4801 0.79456 0.0
N922 N 0.49238 0.50694 0.80662 0.0
N923 N 0.48805 0.51071 0.83751 0.0
C924 C 0.65801 0.78827 0.50291 0.0
C925 C 0.64675 0.7811 0.49194 0.0
C926 C 0.65805 0.79839 0.51336 0.0
C927 C 0.64677 0.80144 0.51316 0.0
C928 C 0.63537 0.78403 0.49193 0.0
C929 C 0.63544 0.79418 0.50236 0.0
C930 C 0.6474 0.81313 0.52305 0.0
C931 C 0.6435 0.77929 0.55723 0.0
C932 C 0.65533 0.78383 0.56748 0.0
C933 C 0.64198 0.78926 0.54802 0.0
C934 C 0.65231 0.80395 0.5488 0.0
C935 C 0.66555 0.79857 0.56837 0.0
C936 C 0.66401 0.80852 0.55919 0.0
C937 C 0.65075 0.81472 0.53939 0.0
C938 C 0.64397 0.86518 0.55807 0.0
C939 C 0.65606 0.87254 0.56796 0.0
C940 C 0.64225 0.85365 0.54876 0.0
C941 C 0.65261 0.84931 0.54913 0.0
C942 C 0.66631 0.86806 0.56843 0.0
C943 C 0.66454 0.8565 0.55918 0.0
C944 C 0.65087 0.837 0.53956 0.0
C945 C 0.65815 0.87115 0.5038 0.0
C946 C 0.64694 0.8672 0.49279 0.0
C947 C 0.65819 0.86093 0.51399 0.0
C948 C 0.64693 0.84659 0.51354 0.0
C949 C 0.63561 0.85286 0.49248 0.0
C950 C 0.63566 0.84265 0.50269 0.0
C951 C 0.6475 0.8354 0.52323 0.0
H952 H 0.66689 0.7862 0.50327 0.0
H953 H 0.66713 0.80412 0.52127 0.0
H954 H 0.62665 0.77886 0.48347 0.0
H955 H 0.62672 0.79651 0.50185 0.0
H956 H 0.63547 0.76802 0.55623 0.0
H957 H 0.63265 0.78549 0.54041 0.0
H958 H 0.67465 0.80244 0.57634 0.0
H959 H 0.67202 0.81981 0.56013 0.0
H960 H 0.63592 0.86841 0.55742 0.0
H961 H 0.63277 0.84806 0.54137 0.0
H962 H 0.67562 0.87337 0.57611 0.0
H963 H 0.67259 0.85323 0.55979 0.0
H964 H 0.66699 0.88212 0.50441 0.0
H965 H 0.66724 0.86419 0.52191 0.0
H966 H 0.62693 0.84942 0.48399 0.0
H967 H 0.62697 0.83161 0.50196 0.0
N968 N 0.64583 0.82349 0.51566 0.0
N969 N 0.65243 0.82663 0.54697 0.0
C970 C 0.13503 0.77886 0.50709 0.0
C971 C 0.12933 0.78293 0.49441 0.0
C972 C 0.14558 0.78927 0.51696 0.0
C973 C 0.15052 0.80394 0.51443 0.0
C974 C 0.13437 0.79763 0.4919 0.0
C975 C 0.14487 0.808 0.50176 0.0
C976 C 0.16219 0.81521 0.52418 0.0
C977 C 0.12517 0.79108 0.55757 0.0
C978 C 0.12786 0.78395 0.56992 0.0
C979 C 0.13641 0.80103 0.54806 0.0
C980 C 0.15055 0.80395 0.55057 0.0
C981 C 0.14207 0.78702 0.57251 0.0
C982 C 0.15331 0.79699 0.56298 0.0
C983 C 0.16258 0.81485 0.54091 0.0
C984 C 0.20953 0.87401 0.55759 0.0
C985 C 0.21663 0.87111 0.56981 0.0
C986 C 0.19943 0.86293 0.54804 0.0
C987 C 0.19626 0.84871 0.55043 0.0
C988 C 0.21336 0.85683 0.57222 0.0
C989 C 0.20319 0.84573 0.56269 0.0
C990 C 0.18506 0.83685 0.54086 0.0
C991 C 0.2212 0.86286 0.50641 0.0
C992 C 0.21741 0.8692 0.49415 0.0
C993 C 0.21064 0.85268 0.51645 0.0
C994 C 0.19612 0.84868 0.5144 0.0
C995 C 0.20288 0.86523 0.49223 0.0
C996 C 0.19234 0.85501 0.50218 0.0
C997 C 0.18464 0.83723 0.52415 0.0
H998 H 0.13135 0.76763 0.50938 0.0
H999 H 0.15003 0.78585 0.52638 0.0
H1000 H 0.13045 0.80118 0.48206 0.0
H1001 H 0.14864 0.81925 0.49945 0.0
H1002 H 0.11442 0.78923 0.55547 0.0
H1003 H 0.13406 0.80661 0.5389 0.0
H1004 H 0.1445 0.78164 0.58183 0.0
H1005 H 0.16417 0.79919 0.56523 0.0
H1006 H 0.21151 0.88481 0.55563 0.0
H1007 H 0.19387 0.86544 0.539 0.0
H1008 H 0.21872 0.85422 0.58141 0.0
H1009 H 0.2008 0.83481 0.56483 0.0
H1010 H 0.23232 0.86573 0.50819 0.0
H1011 H 0.21379 0.84772 0.52558 0.0
H1012 H 0.19959 0.86974 0.48274 0.0
H1013 H 0.18119 0.85197 0.50028 0.0
N1014 N 0.17321 0.82643 0.5165 0.0
N1015 N 0.17405 0.82563 0.5486 0.0
C1016 C 0.22087 0.35848 0.50421 0.0
C1017 C 0.21672 0.35013 0.49032 0.0
C1018 C 0.21045 0.35791 0.51466 0.0
C1019 C 0.19572 0.34869 0.51159 0.0
C1020 C 0.20202 0.34093 0.4873 0.0
C1021 C 0.19165 0.34021 0.49781 0.0
C1022 C 0.18436 0.34858 0.52173 0.0
C1023 C 0.20814 0.3346 0.55452 0.0
C1024 C 0.21533 0.34424 0.567 0.0
C1025 C 0.19834 0.33617 0.54505 0.0
C1026 C 0.19558 0.34744 0.54787 0.0
C1027 C 0.21254 0.35552 0.56978 0.0
C1028 C 0.20265 0.35702 0.56039 0.0
C1029 C 0.18465 0.34873 0.53849 0.0
C1030 C 0.12507 0.33572 0.55549 0.0
C1031 C 0.12795 0.34496 0.5685 0.0
C1032 C 0.13623 0.33702 0.54584 0.0
C1033 C 0.15051 0.34774 0.54883 0.0
C1034 C 0.14228 0.35559 0.57158 0.0
C1035 C 0.15346 0.3569 0.56189 0.0
C1036 C 0.16246 0.34885 0.539 0.0
C1037 C 0.13624 0.35961 0.50556 0.0
C1038 C 0.12971 0.34953 0.49328 0.0
C1039 C 0.14661 0.35922 0.51527 0.0
C1040 C 0.15063 0.34878 0.5128 0.0
C1041 C 0.1337 0.33905 0.49093 0.0
C1042 C 0.14414 0.33876 0.50052 0.0
C1043 C 0.16216 0.34866 0.52227 0.0
H1044 H 0.23214 0.36578 0.50671 0.0
H1045 H 0.21393 0.36498 0.52485 0.0
H1046 H 0.19854 0.33428 0.47675 0.0
H1047 H 0.18039 0.33307 0.49509 0.0
H1048 H 0.21013 0.32584 0.55205 0.0
H1049 H 0.19277 0.32845 0.53569 0.0
H1050 H 0.21777 0.363 0.57944 0.0
H1051 H 0.20052 0.36567 0.56289 0.0
H1052 H 0.11415 0.32748 0.55271 0.0
H1053 H 0.13369 0.32951 0.53616 0.0
H1054 H 0.1449 0.36273 0.58165 0.0
H1055 H 0.16442 0.3651 0.56457 0.0
H1056 H 0.13336 0.36779 0.50763 0.0
H1057 H 0.15168 0.36724 0.52449 0.0
H1058 H 0.12902 0.33129 0.48141 0.0
H1059 H 0.14718 0.3307 0.49832 0.0
N1060 N 0.17307 0.34849 0.51434 0.0
N1061 N 0.17375 0.34897 0.54646 0.0
H1062 H 0.01589 0.38936 0.04715 0.0
H1063 H 0.01271 0.40179 0.06965 0.0
H1064 H 0.97001 0.36589 0.07726 0.0
H1065 H 0.97305 0.35339 0.05451 0.0
H1066 H 0.97106 0.39215 0.07787 0.0
H1067 H 0.01325 0.39351 0.11671 0.0
H1068 H 0.01992 0.40056 0.09732 0.0
H1069 H 0.0064 0.38193 0.09957 0.0
C1070 C 0.00584 0.38406 0.05364 0.0
C1071 C 0.99473 0.37037 0.0491 0.0
C1072 C 0.00408 0.39114 0.06658 0.0
C1073 C 0.99123 0.38464 0.07532 0.0
C1074 C 0.98006 0.37102 0.07075 0.0
H1075 H 0.98687 0.42653 0.16296 0.0
H1076 H 0.98481 0.40813 0.14423 0.0
C1077 C 0.98181 0.36391 0.05777 0.0
C1078 C 0.98936 0.39245 0.08875 0.0
H1079 H 0.00521 0.41016 0.12306 0.0
C1080 C 0.9784 0.39592 0.08788 0.0
C1081 C 0.99877 0.39715 0.10193 0.0
C1082 C 0.01015 0.39297 0.10405 0.0
C1083 C 0.97708 0.40462 0.09941 0.0
C1084 C 0.98714 0.41016 0.11198 0.0
C1085 C 0.99762 0.40605 0.11331 0.0
C1086 C 0.98754 0.4209 0.12332 0.0
C1087 C 0.965 0.40789 0.09795 0.0
C1088 C 0.98985 0.43419 0.11778 0.0
C1089 C 0.99097 0.44466 0.12841 0.0
C1090 C 0.98993 0.44212 0.14484 0.0
C1091 C 0.98756 0.42876 0.15038 0.0
C1092 C 0.98645 0.41827 0.13971 0.0
H1093 H 0.95585 0.39944 0.09105 0.0
H1094 H 0.96101 0.40885 0.10978 0.0
H1095 H 0.96899 0.41824 0.09159 0.0
H1096 H 0.99104 0.43657 0.10522 0.0
H1097 H 0.99262 0.45476 0.12373 0.0
H1098 H 0.61013 0.62624 0.04765 0.0
H1099 H 0.59773 0.61013 0.06982 0.0
H1100 H 0.63015 0.59763 0.07113 0.0
H1101 H 0.64282 0.614 0.04906 0.0
H1102 H 0.58628 0.58088 0.07097 0.0
H1103 H 0.62821 0.60773 0.11739 0.0
H1104 H 0.6287 0.61632 0.09883 0.0
H1105 H 0.63411 0.60299 0.09963 0.0
C1106 C 0.61467 0.62011 0.05269 0.0
C1107 C 0.62746 0.6214 0.04665 0.0
C1108 C 0.60757 0.61092 0.06536 0.0
C1109 C 0.61311 0.60283 0.07226 0.0
C1110 C 0.62585 0.604 0.0662 0.0
H1111 H 0.57433 0.5369 0.14599 0.0
H1112 H 0.59055 0.55316 0.12554 0.0
C1113 C 0.63301 0.61327 0.05353 0.0
C1114 C 0.60517 0.59283 0.08541 0.0
H1115 H 0.60732 0.586 0.12458 0.0
C1116 C 0.5909 0.58199 0.08268 0.0
C1117 C 0.61125 0.59427 0.10066 0.0
C1118 C 0.62637 0.60602 0.10441 0.0
C1119 C 0.58248 0.57266 0.09481 0.0
C1120 C 0.58845 0.57428 0.11011 0.0
C1121 C 0.60282 0.58485 0.11281 0.0
C1122 C 0.57964 0.5654 0.12352 0.0
C1123 C 0.56722 0.56114 0.09123 0.0
C1124 C 0.56845 0.56723 0.12942 0.0
C1125 C 0.55927 0.55808 0.14115 0.0
C1126 C 0.56108 0.54689 0.14718 0.0
C1127 C 0.5727 0.54547 0.14169 0.0
C1128 C 0.58193 0.55469 0.12997 0.0
H1129 H 0.56523 0.55938 0.07828 0.0
H1130 H 0.56472 0.55081 0.09688 0.0
H1131 H 0.55969 0.56442 0.09614 0.0
H1132 H 0.56665 0.57558 0.12471 0.0
H1133 H 0.55061 0.55964 0.14533 0.0
H1134 H 0.38392 0.02815 0.05071 0.0
H1135 H 0.4007 0.0312 0.07215 0.0
H1136 H 0.38869 0.98657 0.06792 0.0
H1137 H 0.37212 0.98349 0.04648 0.0
H1138 H 0.3954 0.01661 0.10152 0.0
H1139 H 0.43261 0.00766 0.06398 0.0
H1140 H 0.41931 0.0114 0.05576 0.0
H1141 H 0.41419 0.99357 0.0624 0.0
C1142 C 0.38489 0.01901 0.05436 0.0
C1143 C 0.3768 0.00561 0.04684 0.0
C1144 C 0.39445 0.02076 0.0666 0.0
C1145 C 0.39611 0.00917 0.07141 0.0
C1146 C 0.3878 0.99573 0.06415 0.0
H1147 H 0.44273 0.98966 0.14007 0.0
H1148 H 0.42638 0.9897 0.11995 0.0
C1149 C 0.37829 0.99398 0.05194 0.0
C1150 C 0.40641 0.01097 0.08411 0.0
H1151 H 0.43535 0.00687 0.09195 0.0
C1152 C 0.40424 0.01465 0.09943 0.0
C1153 C 0.41794 0.00843 0.08131 0.0
C1154 C 0.42127 0.00518 0.06494 0.0
C1155 C 0.41298 0.0153 0.11217 0.0
C1156 C 0.42425 0.01236 0.10941 0.0
C1157 C 0.42662 0.00902 0.09403 0.0
C1158 C 0.43356 0.01234 0.12235 0.0
C1159 C 0.40982 0.01865 0.12855 0.0
C1160 C 0.44299 0.02507 0.13039 0.0
C1161 C 0.45232 0.02507 0.14196 0.0
C1162 C 0.4524 0.01234 0.14566 0.0
C1163 C 0.4428 0.99959 0.13769 0.0
C1164 C 0.43351 0.99961 0.12611 0.0
H1165 H 0.39907 0.01776 0.12923 0.0
H1166 H 0.41032 0.0113 0.13744 0.0
H1167 H 0.41806 0.02981 0.13177 0.0
H1168 H 0.44333 0.03505 0.1275 0.0
H1169 H 0.45953 0.03505 0.14795 0.0
H1170 H 0.38987 0.01491 0.97441 0.0
H1171 H 0.40272 0.01249 0.9518 0.0
H1172 H 0.36645 0.97062 0.9416 0.0
H1173 H 0.35351 0.9729 0.96441 0.0
H1174 H 0.39289 0.97141 0.94114 0.0
H1175 H 0.39511 0.01534 0.90475 0.0
H1176 H 0.40171 0.02095 0.92452 0.0
H1177 H 0.38311 0.00767 0.92146 0.0
C1178 C 0.3846 0.00519 0.96734 0.0
C1179 C 0.37066 0.99411 0.97114 0.0
C1180 C 0.39192 0.00388 0.95435 0.0
C1181 C 0.38543 0.9915 0.94485 0.0
C1182 C 0.37159 0.98031 0.94872 0.0
H1183 H 0.42734 0.98922 0.85629 0.0
H1184 H 0.40905 0.98698 0.87534 0.0
C1185 C 0.36423 0.98163 0.96174 0.0
C1186 C 0.3934 0.99013 0.93126 0.0
H1187 H 0.41144 0.00717 0.89753 0.0
C1188 C 0.39679 0.97911 0.93148 0.0
C1189 C 0.39828 4e-05 0.91855 0.0
C1190 C 0.39425 0.01158 0.91718 0.0
C1191 C 0.40555 0.97817 0.91973 0.0
C1192 C 0.41121 0.98866 0.90761 0.0
C1193 C 0.40722 0.99924 0.90694 0.0
C1194 C 0.42194 0.98934 0.89605 0.0
C1195 C 0.40877 0.96603 0.92049 0.0
C1196 C 0.43526 0.99155 0.90139 0.0
C1197 C 0.44568 0.99279 0.89059 0.0
C1198 C 0.44302 0.99197 0.87418 0.0
C1199 C 0.42965 0.98976 0.86885 0.0
C1200 C 0.41922 0.98853 0.8797 0.0
H1201 H 0.40035 0.95673 0.92723 0.0
H1202 H 0.4096 0.96235 0.90844 0.0
H1203 H 0.41918 0.96981 0.92666 0.0
H1204 H 0.43769 0.99249 0.91394 0.0
H1205 H 0.45579 0.99433 0.8951 0.0
H1206 H 0.02796 0.38613 0.96953 0.0
H1207 H 0.02976 0.40223 0.94792 0.0
H1208 H 0.98435 0.38719 0.95211 0.0
H1209 H 0.98253 0.37137 0.97382 0.0
H1210 H 0.01594 0.39611 0.91889 0.0
H1211 H 0.00171 0.43043 0.95473 0.0
H1212 H 0.00645 0.41808 0.96359 0.0
H1213 H 0.98853 0.41169 0.95618 0.0
C1214 C 0.01839 0.38632 0.96587 0.0
C1215 C 0.00513 0.37759 0.97344 0.0
C1216 C 0.01942 0.3955 0.95353 0.0
C1217 C 0.00724 0.3961 0.94862 0.0
C1218 C 0.99396 0.38717 0.95597 0.0
H1219 H 0.9837 0.43654 0.87613 0.0
H1220 H 0.9848 0.42102 0.89659 0.0
C1221 C 0.99293 0.37808 0.96833 0.0
C1222 C 0.00826 0.40587 0.93565 0.0
H1223 H 0.001 0.43256 0.9266 0.0
C1224 C 0.01283 0.40419 0.9206 0.0
C1225 C 0.00426 0.41645 0.93794 0.0
C1226 C 0.00011 0.41939 0.95402 0.0
C1227 C 0.013 0.41247 0.90764 0.0
C1228 C 0.00855 0.42269 0.90986 0.0
C1229 C 0.00428 0.42459 0.92495 0.0
C1230 C 0.00802 0.43145 0.89665 0.0
C1231 C 0.01752 0.40999 0.89156 0.0
C1232 C 0.02074 0.4424 0.88988 0.0
C1233 C 0.02017 0.45141 0.8783 0.0
C1234 C 0.00686 0.44962 0.87332 0.0
C1235 C 0.99414 0.43836 0.87987 0.0
C1236 C 0.99473 0.42943 0.89148 0.0
H1237 H 0.01848 0.40017 0.89129 0.0
H1238 H 0.00967 0.40901 0.88237 0.0
H1239 H 0.02813 0.41934 0.88841 0.0
H1240 H 0.03112 0.44424 0.8939 0.0
H1241 H 0.03019 0.46009 0.8737 0.0
H1242 H 0.62708 0.61397 0.96771 0.0
H1243 H 0.61033 0.60148 0.94603 0.0
H1244 H 0.59238 0.62929 0.9514 0.0
H1245 H 0.60943 0.64213 0.97288 0.0
H1246 H 0.58153 0.58646 0.94678 0.0
H1247 H 0.59951 0.63149 0.90411 0.0
H1248 H 0.60986 0.63253 0.92142 0.0
H1249 H 0.59464 0.63517 0.92319 0.0
C1250 C 0.61963 0.6175 0.96421 0.0
C1251 C 0.61958 0.62905 0.97195 0.0
C1252 C 0.61007 0.61034 0.95182 0.0
C1253 C 0.60023 0.61456 0.94693 0.0
C1254 C 0.6001 0.62606 0.95471 0.0
H1255 H 0.524 0.55807 0.89167 0.0
H1256 H 0.54057 0.57355 0.91213 0.0
C1257 C 0.60977 0.63332 0.96705 0.0
C1258 C 0.58977 0.60646 0.93415 0.0
H1259 H 0.57807 0.60984 0.89762 0.0
C1260 C 0.58078 0.59158 0.93602 0.0
C1261 C 0.58894 0.61312 0.92004 0.0
C1262 C 0.59884 0.62893 0.91695 0.0
C1263 C 0.57097 0.58316 0.92422 0.0
C1264 C 0.56982 0.58987 0.91031 0.0
C1265 C 0.57885 0.60475 0.90838 0.0
C1266 C 0.55959 0.58151 0.89746 0.0
C1267 C 0.56222 0.56709 0.92659 0.0
C1268 C 0.56469 0.58138 0.88217 0.0
C1269 C 0.55519 0.57276 0.8703 0.0
C1270 C 0.54039 0.56409 0.8735 0.0
C1271 C 0.53528 0.56467 0.8887 0.0
C1272 C 0.54478 0.57337 0.90051 0.0
H1273 H 0.56714 0.56333 0.93559 0.0
H1274 H 0.55131 0.56419 0.93083 0.0
H1275 H 0.56107 0.56126 0.91532 0.0
H1276 H 0.57607 0.58769 0.87953 0.0
H1277 H 0.55946 0.5728 0.85866 0.0
H1278 H 0.98638 0.61123 0.97603 0.0
H1279 H 0.98896 0.59794 0.954 0.0
H1280 H 0.03076 0.63413 0.9433 0.0
H1281 H 0.02832 0.64751 0.96554 0.0
H1282 H 0.99304 0.60537 0.9218 0.0
H1283 H 0.03825 0.60017 0.94653 0.0
H1284 H 0.02765 0.60533 0.95853 0.0
H1285 H 0.04116 0.61814 0.94541 0.0
C1286 C 0.99616 0.61636 0.96904 0.0
C1287 C 0.00718 0.63039 0.97255 0.0
C1288 C 0.9976 0.60876 0.95644 0.0
C1289 C 0.01009 0.615 0.94712 0.0
C1290 C 0.02112 0.62904 0.95051 0.0
H1291 H 0.01352 0.5747 0.85759 0.0
H1292 H 0.01517 0.59243 0.87704 0.0
C1293 C 0.01969 0.63668 0.96316 0.0
C1294 C 0.01136 0.60672 0.93379 0.0
H1295 H 0.02981 0.5903 0.92117 0.0
C1296 C 0.00114 0.60216 0.92157 0.0
C1297 C 0.02189 0.60248 0.93364 0.0
C1298 C 0.03281 0.60666 0.94676 0.0
C1299 C 0.00098 0.59323 0.90932 0.0
C1300 C 0.01147 0.58894 0.90919 0.0
C1301 C 0.02185 0.59371 0.92126 0.0
C1302 C 0.01116 0.57862 0.89733 0.0
C1303 C 0.98924 0.588 0.89698 0.0
C1304 C 0.00875 0.56516 0.90235 0.0
C1305 C 0.00793 0.55509 0.89132 0.0
C1306 C 0.00954 0.55829 0.87503 0.0
C1307 C 0.01227 0.57192 0.87005 0.0
C1308 C 0.01309 0.58201 0.88112 0.0
H1309 H 0.98038 0.58991 0.90059 0.0
H1310 H 0.99383 0.59381 0.8857 0.0
H1311 H 0.98467 0.57633 0.89471 0.0
H1312 H 0.00731 0.56237 0.91482 0.0
H1313 H 0.0061 0.54481 0.89558 0.0
H1314 H 0.35365 0.3846 0.96816 0.0
H1315 H 0.36555 0.40066 0.94559 0.0
H1316 H 0.40131 0.39322 0.94996 0.0
H1317 H 0.38955 0.37721 0.9724 0.0
H1318 H 0.39381 0.42612 0.945 0.0
H1319 H 0.38907 0.38434 0.9028 0.0
H1320 H 0.3782 0.3801 0.9205 0.0
H1321 H 0.39649 0.38389 0.92174 0.0
C1322 C 0.36403 0.38638 0.96427 0.0
C1323 C 0.37065 0.37961 0.972 0.0
C1324 C 0.3708 0.39554 0.9514 0.0
C1325 C 0.38419 0.39794 0.94599 0.0
C1326 C 0.39086 0.3913 0.95379 0.0
H1327 H 0.4495 0.44784 0.87827 0.0
H1328 H 0.43345 0.43113 0.89833 0.0
C1329 C 0.38416 0.38222 0.96666 0.0
C1330 C 0.39147 0.40764 0.93243 0.0
H1331 H 0.40523 0.40869 0.89565 0.0
C1332 C 0.39617 0.42233 0.93411 0.0
C1333 C 0.3945 0.40261 0.91828 0.0
C1334 C 0.3892 0.38685 0.9156 0.0
C1335 C 0.4044 0.43224 0.92226 0.0
C1336 C 0.40775 0.42725 0.90826 0.0
C1337 C 0.40268 0.41249 0.90641 0.0
C1338 C 0.41715 0.43721 0.89574 0.0
C1339 C 0.40996 0.44802 0.92513 0.0
C1340 C 0.41321 0.44603 0.88745 0.0
C1341 C 0.42237 0.4556 0.87592 0.0
C1342 C 0.43557 0.45641 0.87239 0.0
C1343 C 0.43933 0.44735 0.88054 0.0
C1344 C 0.4302 0.43784 0.89207 0.0
H1345 H 0.40917 0.45034 0.93781 0.0
H1346 H 0.42136 0.45456 0.92132 0.0
H1347 H 0.40349 0.45148 0.9181 0.0
H1348 H 0.40304 0.44549 0.88986 0.0
H1349 H 0.41909 0.46229 0.86969 0.0
H1350 H 0.61902 0.97176 0.96645 0.0
H1351 H 0.60374 0.96931 0.94366 0.0
H1352 H 0.60991 0.01148 0.9531 0.0
H1353 H 0.62525 0.01407 0.97568 0.0
H1354 H 0.57828 0.97036 0.94287 0.0
H1355 H 0.62042 0.0137 0.90614 0.0
H1356 H 0.62459 0.00615 0.92306 0.0
H1357 H 0.61945 0.01958 0.92579 0.0
C1358 C 0.61713 0.98051 0.96362 0.0
C1359 C 0.62337 0.99314 0.97279 0.0
C1360 C 0.60842 0.9791 0.95062 0.0
C1361 C 0.60593 0.99033 0.94653 0.0
C1362 C 0.61198 0.00283 0.95583 0.0
H1363 H 0.53891 0.99328 0.89592 0.0
H1364 H 0.55491 0.99132 0.915 0.0
C1365 C 0.62065 0.00425 0.9688 0.0
C1366 C 0.59665 0.9889 0.93287 0.0
H1367 H 0.59597 0.00566 0.8988 0.0
C1368 C 0.58217 0.97796 0.93312 0.0
C1369 C 0.60182 0.99867 0.92002 0.0
C1370 C 0.61746 0.0101 0.91861 0.0
C1371 C 0.57255 0.97697 0.92126 0.0
C1372 C 0.57752 0.98733 0.909 0.0
C1373 C 0.59215 0.99783 0.90831 0.0
C1374 C 0.56758 0.98801 0.89731 0.0
C1375 C 0.55713 0.96491 0.92205 0.0
C1376 C 0.5696 0.98713 0.88099 0.0
C1377 C 0.56056 0.98844 0.87 0.0
C1378 C 0.54944 0.9908 0.87517 0.0
C1379 C 0.54747 0.99164 0.89154 0.0
C1380 C 0.55648 0.99032 0.90248 0.0
H1381 H 0.55613 0.95563 0.9289 0.0
H1382 H 0.55055 0.96881 0.92813 0.0
H1383 H 0.55262 0.96117 0.91001 0.0
H1384 H 0.5782 0.98549 0.87676 0.0
H1385 H 0.56244 0.98789 0.85748 0.0
H1386 H 0.6452 0.02778 0.05178 0.0
H1387 H 0.63225 0.0308 0.07409 0.0
H1388 H 0.59968 0.98604 0.07084 0.0
H1389 H 0.61254 0.98292 0.0487 0.0
H1390 H 0.60344 0.02539 0.07425 0.0
H1391 H 0.61113 0.99133 0.11798 0.0
H1392 H 0.62192 0.99808 0.10025 0.0
H1393 H 0.60413 0.98264 0.09927 0.0
C1394 C 0.63532 0.01858 0.05589 0.0
C1395 C 0.62991 0.0051 0.04854 0.0
C1396 C 0.62794 0.02032 0.06861 0.0
C1397 C 0.61514 0.00859 0.07426 0.0
C1398 C 0.6097 0.99516 0.06687 0.0
H1399 H 0.54732 0.98969 0.14017 0.0
H1400 H 0.56428 0.98984 0.12072 0.0
C1401 C 0.61702 0.99342 0.05416 0.0
C1402 C 0.60709 0.0104 0.08747 0.0
H1403 H 0.59327 0.99761 0.1242 0.0
C1404 C 0.60135 0.01948 0.08527 0.0
C1405 C 0.6044 0.00265 0.1018 0.0
C1406 C 0.61082 0.99322 0.10508 0.0
C1407 C 0.59247 0.02055 0.09677 0.0
C1408 C 0.58949 0.01251 0.11095 0.0
C1409 C 0.59554 0.00372 0.11331 0.0
C1410 C 0.57957 0.01255 0.12315 0.0
C1411 C 0.58586 0.02979 0.09337 0.0
C1412 C 0.58268 0.02522 0.13118 0.0
C1413 C 0.57301 0.02517 0.14235 0.0
C1414 C 0.56013 0.0124 0.14579 0.0
C1415 C 0.55722 0.99967 0.13795 0.0
C1416 C 0.56686 0.99974 0.12677 0.0
H1417 H 0.58663 0.03266 0.08062 0.0
H1418 H 0.57437 0.02423 0.09696 0.0
H1419 H 0.59163 0.03991 0.10029 0.0
H1420 H 0.59257 0.03516 0.1288 0.0
H1421 H 0.57567 0.03511 0.14836 0.0
H1422 H 0.97326 0.6171 0.05055 0.0
H1423 H 0.97093 0.60101 0.0724 0.0
H1424 H 0.01658 0.61672 0.07042 0.0
H1425 H 0.01894 0.63256 0.04851 0.0
H1426 H 0.00034 0.58719 0.07082 0.0
H1427 H 0.98304 0.61077 0.11878 0.0
H1428 H 0.97227 0.60579 0.10111 0.0
H1429 H 0.99069 0.62005 0.10038 0.0
C1430 C 0.9828 0.61717 0.05486 0.0
C1431 C 0.99628 0.62608 0.04783 0.0
C1432 C 0.98147 0.60804 0.0674 0.0
C1433 C 0.99362 0.60781 0.07317 0.0
C1434 C 0.00708 0.61676 0.06619 0.0
H1435 H 0.01702 0.56545 0.14345 0.0
H1436 H 0.01589 0.58122 0.12335 0.0
C1437 C 0.0084 0.62581 0.05366 0.0
C1438 C 0.99238 0.59781 0.08597 0.0
H1439 H 0.9839 0.58975 0.1251 0.0
C1440 C 0.99673 0.58775 0.08268 0.0
C1441 C 0.9876 0.59852 0.10141 0.0
C1442 C 0.98323 0.60943 0.10574 0.0
C1443 C 0.99655 0.57845 0.09443 0.0
C1444 C 0.99206 0.57936 0.10993 0.0
C1445 C 0.98737 0.58915 0.11318 0.0
C1446 C 0.99264 0.57046 0.12296 0.0
C1447 C 0.00118 0.56772 0.0902 0.0
C1448 C 0.97993 0.55947 0.1297 0.0
C1449 C 0.98053 0.55036 0.14113 0.0
C1450 C 0.99386 0.55216 0.14605 0.0
C1451 C 0.00658 0.56358 0.1397 0.0
C1452 C 0.00596 0.57264 0.12826 0.0
H1453 H 0.00117 0.56616 0.07717 0.0
H1454 H 0.01226 0.57166 0.09463 0.0
H1455 H 0.994 0.55715 0.09583 0.0
H1456 H 0.96956 0.55767 0.12575 0.0
H1457 H 0.97054 0.5416 0.14568 0.0
H1458 H 0.38105 0.35146 0.05351 0.0
H1459 H 0.39678 0.36257 0.07652 0.0
H1460 H 0.39416 0.40096 0.06966 0.0
H1461 H 0.3784 0.38993 0.04686 0.0
H1462 H 0.42344 0.38784 0.07782 0.0
H1463 H 0.38389 0.39177 0.11654 0.0
H1464 H 0.37867 0.38047 0.09913 0.0
H1465 H 0.38517 0.39943 0.09729 0.0
C1466 C 0.3838 0.36224 0.05696 0.0
C1467 C 0.37845 0.36981 0.04843 0.0
C1468 C 0.39276 0.36856 0.0701 0.0
C1469 C 0.39641 0.38248 0.07496 0.0
C1470 C 0.3912 0.39008 0.06634 0.0
H1471 H 0.46676 0.44898 0.12486 0.0
H1472 H 0.44987 0.43137 0.10605 0.0
C1473 C 0.38228 0.3838 0.05324 0.0
C1474 C 0.40609 0.38938 0.08866 0.0
H1475 H 0.40879 0.4068 0.12345 0.0
C1476 C 0.42019 0.39181 0.08792 0.0
C1477 C 0.40176 0.39432 0.10196 0.0
C1478 C 0.3865 0.39124 0.10389 0.0
C1479 C 0.43032 0.39975 0.09972 0.0
C1480 C 0.42626 0.40559 0.11242 0.0
C1481 C 0.41194 0.40246 0.11361 0.0
C1482 C 0.4369 0.4158 0.12393 0.0
C1483 C 0.44531 0.40197 0.09836 0.0
C1484 C 0.43507 0.41301 0.14028 0.0
C1485 C 0.44465 0.42317 0.15111 0.0
C1486 C 0.45611 0.43635 0.14577 0.0
C1487 C 0.45796 0.43901 0.12937 0.0
C1488 C 0.44842 0.42887 0.11858 0.0
H1489 H 0.44539 0.39328 0.0913 0.0
H1490 H 0.45232 0.41231 0.09223 0.0
H1491 H 0.44998 0.40238 0.11022 0.0
H1492 H 0.42616 0.40304 0.14465 0.0
H1493 H 0.44287 0.42087 0.16367 0.0
H1494 H 0.63533 0.6886 0.38491 0.0
H1495 H 0.63158 0.70208 0.40606 0.0
H1496 H 0.67547 0.73643 0.4009 0.0
H1497 H 0.67923 0.72318 0.37968 0.0
H1498 H 0.64604 0.71195 0.4349 0.0
H1499 H 0.65272 0.75742 0.39779 0.0
H1500 H 0.64991 0.74074 0.3894 0.0
H1501 H 0.6675 0.75414 0.39613 0.0
C1502 C 0.64415 0.69905 0.38825 0.0
C1503 C 0.65754 0.70489 0.38058 0.0
C1504 C 0.642 0.70672 0.40033 0.0
C1505 C 0.65317 0.72035 0.40485 0.0
C1506 C 0.6666 0.72608 0.39735 0.0
H1507 H 0.66994 0.785 0.47465 0.0
H1508 H 0.67067 0.76934 0.45408 0.0
C1509 C 0.66875 0.71845 0.38528 0.0
C1510 C 0.65098 0.72853 0.41763 0.0
H1511 H 0.65342 0.7608 0.42581 0.0
C1512 C 0.6475 0.72257 0.43291 0.0
C1513 C 0.65284 0.74235 0.41496 0.0
C1514 C 0.65581 0.749 0.39865 0.0
C1515 C 0.64636 0.73031 0.44572 0.0
C1516 C 0.64863 0.74428 0.4431 0.0
C1517 C 0.65179 0.75011 0.42777 0.0
C1518 C 0.64815 0.75325 0.45615 0.0
C1519 C 0.64322 0.7237 0.46204 0.0
C1520 C 0.63524 0.74935 0.46413 0.0
C1521 C 0.63479 0.75827 0.47595 0.0
C1522 C 0.64727 0.77122 0.47997 0.0
C1523 C 0.6602 0.77499 0.47202 0.0
C1524 C 0.66062 0.76612 0.46019 0.0
H1525 H 0.64454 0.71409 0.4626 0.0
H1526 H 0.65042 0.73165 0.47098 0.0
H1527 H 0.63196 0.72034 0.46531 0.0
H1528 H 0.62546 0.73955 0.46103 0.0
H1529 H 0.62469 0.75504 0.48191 0.0
H1530 H 0.2748 0.94927 0.3757 0.0
H1531 H 0.26222 0.93322 0.39792 0.0
H1532 H 0.30235 0.93822 0.41492 0.0
H1533 H 0.31508 0.95435 0.39267 0.0
H1534 H 0.26182 0.90684 0.40644 0.0
H1535 H 0.28472 0.94886 0.45341 0.0
H1536 H 0.2851 0.9532 0.43268 0.0
H1537 H 0.29731 0.94779 0.44017 0.0
C1538 C 0.28096 0.94694 0.38415 0.0
C1539 C 0.29593 0.9531 0.38249 0.0
C1540 C 0.27375 0.93777 0.39681 0.0
C1541 C 0.28139 0.93467 0.40811 0.0
C1542 C 0.29631 0.94064 0.4064 0.0
H1543 H 0.23913 0.86709 0.47971 0.0
H1544 H 0.25595 0.88309 0.45952 0.0
C1545 C 0.30354 0.94978 0.39367 0.0
C1546 C 0.27361 0.92517 0.42164 0.0
H1547 H 0.26859 0.92514 0.46163 0.0
C1548 C 0.26336 0.91078 0.41853 0.0
C1549 C 0.2756 0.93044 0.43735 0.0
C1550 C 0.2862 0.94593 0.4412 0.0
C1551 C 0.25493 0.9015 0.43073 0.0
C1552 C 0.25689 0.90677 0.44644 0.0
C1553 C 0.26722 0.92114 0.44957 0.0
C1554 C 0.24764 0.89774 0.45956 0.0
C1555 C 0.24365 0.88627 0.42667 0.0
C1556 C 0.23773 0.90095 0.46656 0.0
C1557 C 0.22816 0.89188 0.4781 0.0
C1558 C 0.2284 0.87948 0.48293 0.0
C1559 C 0.23873 0.8766 0.47631 0.0
C1560 C 0.24826 0.88565 0.4647 0.0
H1561 H 0.24181 0.88465 0.41369 0.0
H1562 H 0.24719 0.8788 0.43103 0.0
H1563 H 0.23328 0.88337 0.43255 0.0
H1564 H 0.23714 0.91027 0.46278 0.0
H1565 H 0.22045 0.89448 0.48313 0.0
H1566 H 0.04506 0.36074 0.39016 0.0
H1567 H 0.06111 0.36482 0.41273 0.0
H1568 H 0.06488 0.32828 0.39858 0.0
H1569 H 0.04881 0.32406 0.37613 0.0
H1570 H 0.05682 0.34277 0.43777 0.0
H1571 H 0.10736 0.36395 0.40284 0.0
H1572 H 0.09167 0.36422 0.39556 0.0
H1573 H 0.09216 0.34777 0.39539 0.0
C1574 C 0.04934 0.35361 0.39186 0.0
C1575 C 0.04572 0.34211 0.38138 0.0
C1576 C 0.05846 0.35593 0.40474 0.0
C1577 C 0.06423 0.34691 0.40718 0.0
C1578 C 0.06062 0.33543 0.39676 0.0
H1579 H 0.10401 0.32728 0.48311 0.0
H1580 H 0.08778 0.32804 0.46327 0.0
C1581 C 0.05142 0.33302 0.38399 0.0
C1582 C 0.07391 0.3493 0.42072 0.0
H1583 H 0.10831 0.35799 0.42974 0.0
C1584 C 0.06811 0.34624 0.43608 0.0
C1585 C 0.08864 0.35395 0.41843 0.0
C1586 C 0.09542 0.35779 0.40219 0.0
C1587 C 0.0766 0.34717 0.44919 0.0
C1588 C 0.09118 0.35122 0.44679 0.0
C1589 C 0.0971 0.35483 0.43151 0.0
C1590 C 0.10033 0.35105 0.45981 0.0
C1591 C 0.0699 0.34371 0.46547 0.0
C1592 C 0.11276 0.36374 0.46439 0.0
C1593 C 0.12206 0.36333 0.47572 0.0
C1594 C 0.11917 0.35019 0.48246 0.0
C1595 C 0.10655 0.33754 0.47805 0.0
C1596 C 0.09722 0.33797 0.46683 0.0
H1597 H 0.05988 0.34434 0.46589 0.0
H1598 H 0.06712 0.33261 0.46871 0.0
H1599 H 0.07754 0.35116 0.47448 0.0
H1600 H 0.11539 0.37391 0.45899 0.0
H1601 H 0.13178 0.37322 0.47876 0.0
H1602 H 0.01855 0.30757 0.29631 0.0
H1603 H 0.03056 0.3033 0.2739 0.0
H1604 H 0.07127 0.33874 0.28911 0.0
H1605 H 0.0594 0.34313 0.31141 0.0
H1606 H 0.04863 0.32491 0.24943 0.0
H1607 H 0.07747 0.30314 0.28406 0.0
H1608 H 0.06176 0.3033 0.29152 0.0
H1609 H 0.07898 0.31949 0.29164 0.0
C1610 C 0.03007 0.3144 0.2949 0.0
C1611 C 0.03805 0.32566 0.30562 0.0
C1612 C 0.03689 0.31196 0.2821 0.0
C1613 C 0.05179 0.32063 0.27998 0.0
C1614 C 0.05978 0.33184 0.29067 0.0
H1615 H 0.1115 0.34107 0.20413 0.0
H1616 H 0.09433 0.33999 0.22396 0.0
C1617 C 0.05297 0.33436 0.30336 0.0
C1618 C 0.05909 0.31825 0.26642 0.0
H1619 H 0.08487 0.3097 0.2573 0.0
C1620 C 0.05644 0.32143 0.25109 0.0
C1621 C 0.06914 0.31358 0.26865 0.0
C1622 C 0.07197 0.30955 0.28483 0.0
C1623 C 0.06407 0.32062 0.23797 0.0
C1624 C 0.07462 0.31661 0.24032 0.0
C1625 C 0.07682 0.31285 0.25556 0.0
C1626 C 0.08407 0.31698 0.22732 0.0
C1627 C 0.06089 0.3242 0.22173 0.0
C1628 C 0.084 0.3044 0.22269 0.0
C1629 C 0.09382 0.305 0.21138 0.0
C1630 C 0.104 0.31822 0.20469 0.0
C1631 C 0.10384 0.33075 0.20915 0.0
C1632 C 0.09396 0.33013 0.22036 0.0
H1633 H 0.05017 0.3234 0.22128 0.0
H1634 H 0.06915 0.33539 0.21867 0.0
H1635 H 0.06128 0.31694 0.21261 0.0
H1636 H 0.07652 0.29417 0.22804 0.0
H1637 H 0.0938 0.2952 0.20832 0.0
H1638 H 0.64971 0.70392 0.30378 0.0
H1639 H 0.65361 0.72018 0.28173 0.0
H1640 H 0.69913 0.73514 0.28307 0.0
H1641 H 0.69526 0.71865 0.30505 0.0
H1642 H 0.67041 0.74975 0.28198 0.0
H1643 H 0.68952 0.72605 0.23603 0.0
H1644 H 0.68069 0.71661 0.25399 0.0
H1645 H 0.69925 0.73056 0.25443 0.0
C1646 C 0.66054 0.71059 0.29933 0.0
C1647 C 0.67218 0.71 0.30612 0.0
C1648 C 0.66275 0.71988 0.28673 0.0
C1649 C 0.67662 0.72874 0.28064 0.0
C1650 C 0.68829 0.72818 0.28738 0.0
H1651 H 0.70518 0.7962 0.20865 0.0
H1652 H 0.70464 0.77956 0.22888 0.0
C1653 C 0.68608 0.71883 0.29999 0.0
C1654 C 0.6788 0.73898 0.26773 0.0
H1655 H 0.68962 0.74747 0.2292 0.0
C1656 C 0.67463 0.74926 0.27045 0.0
C1657 C 0.68438 0.73835 0.25272 0.0
C1658 C 0.68862 0.72724 0.249 0.0
C1659 C 0.67575 0.75885 0.25854 0.0
C1660 C 0.68103 0.75803 0.24346 0.0
C1661 C 0.68554 0.74801 0.2408 0.0
C1662 C 0.68142 0.76722 0.23022 0.0
C1663 C 0.67128 0.76981 0.26218 0.0
C1664 C 0.66854 0.76547 0.22399 0.0
C1665 C 0.6688 0.77486 0.2124 0.0
C1666 C 0.68196 0.78619 0.20682 0.0
C1667 C 0.69487 0.78753 0.21262 0.0
C1668 C 0.69459 0.77809 0.22421 0.0
H1669 H 0.67065 0.77124 0.27515 0.0
H1670 H 0.67893 0.78039 0.25686 0.0
H1671 H 0.66048 0.76617 0.25702 0.0
H1672 H 0.65827 0.75699 0.22831 0.0
H1673 H 0.65867 0.77335 0.20795 0.0
H1674 H 0.30297 0.95327 0.29819 0.0
H1675 H 0.28719 0.94099 0.27574 0.0
H1676 H 0.26019 0.9585 0.28891 0.0
H1677 H 0.27632 0.97129 0.31109 0.0
H1678 H 0.26024 0.92065 0.27663 0.0
H1679 H 0.2637 0.96609 0.24214 0.0
H1680 H 0.27592 0.96866 0.25814 0.0
H1681 H 0.25828 0.96599 0.26228 0.0
C1682 C 0.29376 0.95464 0.29619 0.0
C1683 C 0.29086 0.96323 0.30636 0.0
C1684 C 0.28475 0.94763 0.28335 0.0
C1685 C 0.27259 0.94895 0.28048 0.0
C1686 C 0.26971 0.95761 0.2906 0.0
H1687 H 0.19811 0.88482 0.22947 0.0
H1688 H 0.21527 0.90101 0.24917 0.0
C1689 C 0.27886 0.96482 0.30335 0.0
C1690 C 0.26243 0.94041 0.26762 0.0
H1691 H 0.24477 0.9426 0.235 0.0
C1692 C 0.25695 0.92549 0.26747 0.0
C1693 C 0.25827 0.94672 0.25553 0.0
C1694 C 0.26446 0.96276 0.2544 0.0
C1695 C 0.2473 0.9167 0.25576 0.0
C1696 C 0.24258 0.9229 0.24414 0.0
C1697 C 0.24825 0.93784 0.24405 0.0
C1698 C 0.23174 0.91396 0.23204 0.0
C1699 C 0.24246 0.90086 0.25583 0.0
C1700 C 0.235 0.91632 0.2158 0.0
C1701 C 0.22509 0.90718 0.20449 0.0
C1702 C 0.21183 0.89552 0.20928 0.0
C1703 C 0.20838 0.89356 0.22549 0.0
C1704 C 0.21818 0.90277 0.23674 0.0
H1705 H 0.25023 0.8987 0.26222 0.0
H1706 H 0.23195 0.8949 0.26201 0.0
H1707 H 0.24115 0.89658 0.24358 0.0
H1708 H 0.24536 0.92496 0.21192 0.0
H1709 H 0.22798 0.90892 0.19205 0.0
H1710 H 0.69746 0.97772 0.3039 0.0
H1711 H 0.7015 0.96581 0.28122 0.0
H1712 H 0.6569 0.9325 0.28251 0.0
H1713 H 0.65279 0.94422 0.30515 0.0
H1714 H 0.6948 0.93515 0.2803 0.0
H1715 H 0.66529 0.94846 0.23559 0.0
H1716 H 0.67228 0.95855 0.25374 0.0
H1717 H 0.65604 0.94138 0.25405 0.0
C1718 C 0.68853 0.96786 0.29933 0.0
C1719 C 0.6748 0.9619 0.30627 0.0
C1720 C 0.69085 0.96109 0.28641 0.0
C1721 C 0.67944 0.9484 0.28013 0.0
C1722 C 0.66578 0.9424 0.28709 0.0
H1723 H 0.66079 0.8853 0.20882 0.0
H1724 H 0.66118 0.90194 0.22878 0.0
C1725 C 0.66347 0.94907 0.30006 0.0
C1726 C 0.68177 0.94113 0.26651 0.0
H1727 H 0.67148 0.93089 0.22824 0.0
C1728 C 0.68988 0.93434 0.26883 0.0
C1729 C 0.67529 0.94012 0.25164 0.0
C1730 C 0.66682 0.9476 0.24848 0.0
C1731 C 0.69114 0.92597 0.25683 0.0
C1732 C 0.68439 0.92469 0.24202 0.0
C1733 C 0.67665 0.93188 0.23959 0.0
C1734 C 0.68439 0.91517 0.22928 0.0
C1735 C 0.69909 0.91802 0.26039 0.0
C1736 C 0.6973 0.91728 0.22264 0.0
C1737 C 0.69712 0.90764 0.21136 0.0
C1738 C 0.68401 0.8958 0.20641 0.0
C1739 C 0.67108 0.89411 0.21261 0.0
C1740 C 0.67128 0.90369 0.22393 0.0
H1741 H 0.70066 0.91743 0.27333 0.0
H1742 H 0.69322 0.90692 0.25557 0.0
H1743 H 0.70987 0.92373 0.25475 0.0
H1744 H 0.70752 0.92625 0.22634 0.0
H1745 H 0.70727 0.90923 0.20688 0.0
H1746 H 0.05779 0.71427 0.30959 0.0
H1747 H 0.06937 0.73045 0.28723 0.0
H1748 H 0.03018 0.73097 0.27761 0.0
H1749 H 0.01851 0.71484 0.30017 0.0
H1750 H 0.06107 0.72596 0.25516 0.0
H1751 H 0.06107 0.77392 0.28011 0.0
H1752 H 0.05789 0.75874 0.29217 0.0
H1753 H 0.04394 0.75759 0.27948 0.0
C1754 C 0.05164 0.71787 0.30277 0.0
C1755 C 0.03726 0.71334 0.30667 0.0
C1756 C 0.05826 0.72708 0.28997 0.0
C1757 C 0.05067 0.732 0.28086 0.0
C1758 C 0.03629 0.72746 0.28465 0.0
H1759 H 0.08768 0.77741 0.19091 0.0
H1760 H 0.07041 0.76058 0.2103 0.0
C1761 C 0.02963 0.71822 0.29749 0.0
C1762 C 0.05794 0.74179 0.26734 0.0
H1763 H 0.071 0.77627 0.25462 0.0
C1764 C 0.06313 0.73692 0.25493 0.0
C1765 C 0.06066 0.75609 0.26719 0.0
C1766 C 0.05572 0.762 0.28048 0.0
C1767 C 0.07129 0.74609 0.24253 0.0
C1768 C 0.07415 0.76045 0.24245 0.0
C1769 C 0.06867 0.76522 0.25467 0.0
C1770 C 0.08394 0.77103 0.23065 0.0
C1771 C 0.07734 0.74055 0.23 0.0
C1772 C 0.09703 0.78269 0.23573 0.0
C1773 C 0.10682 0.79232 0.22475 0.0
C1774 C 0.10371 0.79051 0.20844 0.0
C1775 C 0.09038 0.77908 0.20339 0.0
C1776 C 0.08056 0.76941 0.21443 0.0
H1777 H 0.07637 0.73011 0.2334 0.0
H1778 H 0.07137 0.73896 0.21876 0.0
H1779 H 0.08886 0.74843 0.22776 0.0
H1780 H 0.09981 0.78417 0.2482 0.0
H1781 H 0.11687 0.80118 0.22905 0.0
H1782 H 0.28631 0.34476 0.31357 0.0
H1783 H 0.27001 0.34115 0.29161 0.0
H1784 H 0.26884 0.30161 0.27934 0.0
H1785 H 0.2851 0.30508 0.30147 0.0
H1786 H 0.27488 0.33863 0.2592 0.0
H1787 H 0.22594 0.2902 0.28182 0.0
H1788 H 0.24103 0.30153 0.29442 0.0
H1789 H 0.24209 0.28908 0.28105 0.0
C1790 C 0.28251 0.33523 0.30628 0.0
C1791 C 0.28695 0.32518 0.30926 0.0
C1792 C 0.27323 0.33321 0.29372 0.0
C1793 C 0.26814 0.32107 0.28394 0.0
C1794 C 0.27249 0.31095 0.2869 0.0
H1795 H 0.22532 0.31587 0.19331 0.0
H1796 H 0.24151 0.31503 0.21324 0.0
C1797 C 0.2818 0.31297 0.2995 0.0
C1798 C 0.25859 0.31933 0.27044 0.0
H1799 H 0.22427 0.29877 0.25663 0.0
C1800 C 0.26384 0.32987 0.25855 0.0
C1801 C 0.24418 0.30792 0.26973 0.0
C1802 C 0.23787 0.29657 0.28247 0.0
C1803 C 0.255 0.32945 0.24608 0.0
C1804 C 0.24058 0.31808 0.24539 0.0
C1805 C 0.23538 0.30741 0.25715 0.0
C1806 C 0.23043 0.3177 0.23326 0.0
C1807 C 0.261 0.34148 0.23408 0.0
C1808 C 0.21865 0.31907 0.23795 0.0
C1809 C 0.20936 0.31945 0.22665 0.0
C1810 C 0.21165 0.31843 0.21039 0.0
C1811 C 0.22326 0.31666 0.20573 0.0
C1812 C 0.23258 0.3163 0.21708 0.0
H1813 H 0.27134 0.3508 0.23804 0.0
H1814 H 0.26294 0.3375 0.22273 0.0
H1815 H 0.25322 0.34523 0.23177 0.0
H1816 H 0.21677 0.32009 0.25038 0.0
H1817 H 0.20036 0.32054 0.23065 0.0
H1818 H 0.28842 0.31965 0.39283 0.0
H1819 H 0.27513 0.32324 0.41416 0.0
H1820 H 0.29235 0.36735 0.39971 0.0
H1821 H 0.30606 0.36393 0.37857 0.0
H1822 H 0.29151 0.36452 0.4321 0.0
H1823 H 0.23898 0.32508 0.40594 0.0
H1824 H 0.25025 0.31753 0.40987 0.0
H1825 H 0.25573 0.33162 0.3954 0.0
C1826 C 0.28944 0.33014 0.39425 0.0
C1827 C 0.29815 0.34147 0.38394 0.0
C1828 C 0.28179 0.33216 0.40639 0.0
C1829 C 0.28247 0.34546 0.40828 0.0
C1830 C 0.29159 0.35697 0.39839 0.0
H1831 H 0.2168 0.35408 0.4585 0.0
H1832 H 0.23377 0.35444 0.43892 0.0
C1833 C 0.29939 0.355 0.38631 0.0
C1834 C 0.27332 0.34719 0.42026 0.0
H1835 H 0.23841 0.33325 0.43196 0.0
C1836 C 0.27989 0.35775 0.43205 0.0
C1837 C 0.25815 0.3385 0.42 0.0
C1838 C 0.25034 0.32765 0.40703 0.0
C1839 C 0.27169 0.35966 0.44379 0.0
C1840 C 0.25656 0.35055 0.44391 0.0
C1841 C 0.25002 0.34015 0.43196 0.0
C1842 C 0.24715 0.35164 0.45609 0.0
C1843 C 0.27929 0.3716 0.45572 0.0
C1844 C 0.24908 0.35007 0.4723 0.0
C1845 C 0.23944 0.35002 0.48353 0.0
C1846 C 0.22757 0.35123 0.4787 0.0
C1847 C 0.22578 0.35297 0.46252 0.0
C1848 C 0.23549 0.35322 0.45134 0.0
H1849 H 0.28993 0.38008 0.45124 0.0
H1850 H 0.27274 0.37663 0.45876 0.0
H1851 H 0.28117 0.36714 0.46673 0.0
H1852 H 0.25777 0.34847 0.47622 0.0
H1853 H 0.24098 0.34852 0.49593 0.0
H1854 H 0.63622 0.94765 0.38421 0.0
H1855 H 0.63226 0.93166 0.40676 0.0
H1856 H 0.67703 0.94349 0.40567 0.0
H1857 H 0.68109 0.9595 0.3833 0.0
H1858 H 0.63721 0.90812 0.40805 0.0
H1859 H 0.67039 0.94993 0.45224 0.0
H1860 H 0.66439 0.95401 0.434 0.0
H1861 H 0.67967 0.95139 0.43401 0.0
C1862 C 0.64522 0.94688 0.38884 0.0
C1863 C 0.65898 0.95486 0.38204 0.0
C1864 C 0.64294 0.93776 0.4017 0.0
C1865 C 0.65441 0.93659 0.40803 0.0
C1866 C 0.66811 0.94447 0.40118 0.0
H1867 H 0.67026 0.88733 0.47625 0.0
H1868 H 0.67097 0.90416 0.45633 0.0
C1869 C 0.67038 0.95354 0.38833 0.0
C1870 C 0.65204 0.92676 0.42145 0.0
H1871 H 0.66358 0.92575 0.45888 0.0
C1872 C 0.64281 0.91196 0.41925 0.0
C1873 C 0.65938 0.93183 0.43603 0.0
C1874 C 0.66891 0.94767 0.43931 0.0
C1875 C 0.6412 0.90202 0.43101 0.0
C1876 C 0.64884 0.90707 0.44544 0.0
C1877 C 0.65777 0.92191 0.44779 0.0
C1878 C 0.64828 0.89713 0.45794 0.0
C1879 C 0.63182 0.88617 0.42765 0.0
C1880 C 0.63532 0.88776 0.46566 0.0
C1881 C 0.63488 0.87815 0.47711 0.0
C1882 C 0.64743 0.87781 0.48114 0.0
C1883 C 0.66044 0.88743 0.4736 0.0
C1884 C 0.66086 0.89701 0.46214 0.0
H1885 H 0.62925 0.884 0.41484 0.0
H1886 H 0.63713 0.88012 0.43166 0.0
H1887 H 0.62154 0.882 0.43423 0.0
H1888 H 0.62555 0.88789 0.46282 0.0
H1889 H 0.62474 0.87103 0.48288 0.0
H1890 H 0.03928 0.72213 0.38409 0.0
H1891 H 0.05485 0.73427 0.40681 0.0
H1892 H 0.06814 0.70249 0.40783 0.0
H1893 H 0.05256 0.69024 0.38505 0.0
H1894 H 0.05426 0.72161 0.43794 0.0
H1895 H 0.10627 0.74244 0.40576 0.0
H1896 H 0.08945 0.73663 0.39556 0.0
H1897 H 0.09341 0.72359 0.40374 0.0
C1898 C 0.04553 0.71773 0.38913 0.0
C1899 C 0.04476 0.70527 0.38276 0.0
C1900 C 0.05438 0.72465 0.40212 0.0
C1901 C 0.0627 0.71933 0.40888 0.0
C1902 C 0.06191 0.70684 0.40264 0.0
H1903 H 0.1287 0.75894 0.48227 0.0
H1904 H 0.11173 0.74189 0.46295 0.0
C1905 C 0.05299 0.69985 0.38967 0.0
C1906 C 0.0722 0.72692 0.42248 0.0
H1907 H 0.10745 0.74801 0.43288 0.0
C1908 C 0.0659 0.72733 0.4369 0.0
C1909 C 0.08735 0.73426 0.42105 0.0
C1910 C 0.09461 0.73435 0.40569 0.0
C1911 C 0.07438 0.73502 0.44995 0.0
C1912 C 0.08954 0.74279 0.44837 0.0
C1913 C 0.09583 0.74206 0.43406 0.0
C1914 C 0.09906 0.75237 0.46107 0.0
C1915 C 0.067 0.73469 0.46531 0.0
C1916 C 0.09754 0.7639 0.46646 0.0
C1917 C 0.10711 0.77357 0.47761 0.0
C1918 C 0.11853 0.77201 0.48346 0.0
C1919 C 0.11992 0.76034 0.47819 0.0
C1920 C 0.11029 0.75064 0.46706 0.0
H1921 H 0.05622 0.72488 0.46619 0.0
H1922 H 0.07353 0.73508 0.4757 0.0
H1923 H 0.06546 0.74415 0.46583 0.0
H1924 H 0.08915 0.76564 0.46177 0.0
H1925 H 0.10565 0.78235 0.48153 0.0
H1926 H 0.34741 0.05592 0.71556 0.0
H1927 H 0.34304 0.06841 0.73715 0.0
H1928 H 0.29863 0.03465 0.73919 0.0
H1929 H 0.30299 0.02193 0.71766 0.0
H1930 H 0.32373 0.07848 0.73736 0.0
H1931 H 0.31145 0.03874 0.7856 0.0
H1932 H 0.31985 0.03827 0.76723 0.0
H1933 H 0.30085 0.03177 0.76791 0.0
C1934 C 0.33673 0.0511 0.72065 0.0
C1935 C 0.32554 0.03793 0.71495 0.0
C1936 C 0.33425 0.05825 0.73299 0.0
C1937 C 0.32056 0.05238 0.7399 0.0
C1938 C 0.30934 0.03923 0.73422 0.0
H1939 H 0.29108 0.08808 0.81487 0.0
H1940 H 0.29201 0.07268 0.79395 0.0
C1941 C 0.31182 0.03202 0.72187 0.0
C1942 C 0.31807 0.06039 0.75265 0.0
H1943 H 0.30947 0.05913 0.79185 0.0
C1944 C 0.32059 0.07424 0.74926 0.0
C1945 C 0.31389 0.05478 0.76814 0.0
C1946 C 0.31145 0.04013 0.77255 0.0
C1947 C 0.31917 0.08271 0.76098 0.0
C1948 C 0.31534 0.07726 0.77656 0.0
C1949 C 0.31245 0.06327 0.77988 0.0
C1950 C 0.31482 0.08619 0.78963 0.0
C1951 C 0.32175 0.09743 0.75658 0.0
C1952 C 0.3274 0.09868 0.79432 0.0
C1953 C 0.3269 0.10749 0.80619 0.0
C1954 C 0.31382 0.10393 0.81367 0.0
C1955 C 0.30129 0.09119 0.80921 0.0
C1956 C 0.3018 0.08236 0.79733 0.0
H1957 H 0.32088 0.09849 0.74359 0.0
H1958 H 0.31397 0.09976 0.76268 0.0
H1959 H 0.33276 0.10565 0.76031 0.0
H1960 H 0.33759 0.10171 0.78866 0.0
H1961 H 0.33672 0.11728 0.80921 0.0
H1962 H 0.97676 0.27781 0.7135 0.0
H1963 H 0.96436 0.26018 0.73464 0.0
H1964 H 0.93427 0.27541 0.7399 0.0
H1965 H 0.94635 0.29277 0.71863 0.0
H1966 H 0.95923 0.26349 0.76595 0.0
H1967 H 0.90781 0.23258 0.73344 0.0
H1968 H 0.9242 0.24576 0.72388 0.0
H1969 H 0.91348 0.25133 0.73496 0.0
C1970 C 0.96749 0.27737 0.71917 0.0
C1971 C 0.96243 0.28656 0.71432 0.0
C1972 C 0.96044 0.26732 0.73124 0.0
C1973 C 0.94823 0.2663 0.73862 0.0
C1974 C 0.94344 0.27576 0.73409 0.0
H1975 H 0.90779 0.22647 0.82747 0.0
H1976 H 0.92287 0.24279 0.80657 0.0
C1977 C 0.95041 0.28573 0.72199 0.0
C1978 C 0.94046 0.25538 0.75108 0.0
H1979 H 0.90722 0.22781 0.76111 0.0
C1980 C 0.94789 0.2556 0.76487 0.0
C1981 C 0.92572 0.24494 0.74952 0.0
C1982 C 0.91737 0.24351 0.73458 0.0
C1983 C 0.94085 0.24593 0.77735 0.0
C1984 C 0.92593 0.23599 0.77612 0.0
C1985 C 0.91863 0.23552 0.76213 0.0
C1986 C 0.91756 0.22604 0.78918 0.0
C1987 C 0.94951 0.24636 0.79163 0.0
C1988 C 0.90934 0.21121 0.7863 0.0
C1989 C 0.90044 0.20188 0.79811 0.0
C1990 C 0.89959 0.20717 0.8131 0.0
C1991 C 0.90807 0.22202 0.81604 0.0
C1992 C 0.91688 0.23136 0.80416 0.0
H1993 H 0.96111 0.25118 0.7887 0.0
H1994 H 0.94852 0.2531 0.80097 0.0
H1995 H 0.94557 0.23543 0.79654 0.0
H1996 H 0.90959 0.20687 0.77479 0.0
H1997 H 0.89389 0.19058 0.79527 0.0
H1998 H 0.71876 0.69755 0.71672 0.0
H1999 H 0.7362 0.70212 0.73792 0.0
H2000 H 0.72791 0.65863 0.73366 0.0
H2001 H 0.71069 0.65405 0.71242 0.0
H2002 H 0.73197 0.68794 0.76715 0.0
H2003 H 0.77175 0.68262 0.73015 0.0
H2004 H 0.75755 0.68488 0.72173 0.0
H2005 H 0.75386 0.6675 0.72854 0.0
C2006 C 0.72072 0.68899 0.72028 0.0
C2007 C 0.71344 0.67547 0.71285 0.0
C2008 C 0.73065 0.69161 0.73238 0.0
C2009 C 0.73351 0.68078 0.73716 0.0
C2010 C 0.7261 0.66723 0.72991 0.0
H2011 H 0.78255 0.66593 0.80685 0.0
H2012 H 0.76613 0.66489 0.78617 0.0
C2013 C 0.7162 0.66461 0.71783 0.0
C2014 C 0.74403 0.68347 0.74994 0.0
H2015 H 0.77448 0.68216 0.75818 0.0
C2016 C 0.74137 0.68685 0.76518 0.0
C2017 C 0.7563 0.68208 0.7473 0.0
C2018 C 0.76014 0.67921 0.73101 0.0
C2019 C 0.75034 0.68831 0.77801 0.0
C2020 C 0.76234 0.68648 0.77544 0.0
C2021 C 0.76521 0.68346 0.76012 0.0
C2022 C 0.77184 0.68716 0.78854 0.0
C2023 C 0.74664 0.69127 0.79432 0.0
C2024 C 0.78048 0.70006 0.79672 0.0
C2025 C 0.78985 0.70068 0.80862 0.0
C2026 C 0.79072 0.68841 0.81253 0.0
C2027 C 0.78196 0.67551 0.80434 0.0
C2028 C 0.77265 0.67491 0.79243 0.0
H2029 H 0.73555 0.68958 0.79485 0.0
H2030 H 0.74763 0.68425 0.80327 0.0
H2031 H 0.75428 0.7026 0.79759 0.0
H2032 H 0.78015 0.70968 0.79372 0.0
H2033 H 0.79641 0.71076 0.81476 0.0
H2034 H 0.68902 0.63636 0.63675 0.0
H2035 H 0.702 0.63218 0.61534 0.0
H2036 H 0.73503 0.67686 0.61686 0.0
H2037 H 0.72226 0.68108 0.63827 0.0
H2038 H 0.7104 0.6455 0.58514 0.0
H2039 H 0.75763 0.65554 0.62136 0.0
H2040 H 0.74088 0.65228 0.63006 0.0
H2041 H 0.75349 0.66977 0.62243 0.0
C2042 C 0.69906 0.64527 0.63252 0.0
C2043 C 0.70468 0.65903 0.63925 0.0
C2044 C 0.70645 0.64287 0.6203 0.0
C2045 C 0.71959 0.65416 0.61472 0.0
C2046 C 0.72506 0.66794 0.62123 0.0
H2047 H 0.78336 0.66992 0.54424 0.0
H2048 H 0.76777 0.67087 0.56474 0.0
C2049 C 0.71771 0.67035 0.63341 0.0
C2050 C 0.72759 0.65169 0.60196 0.0
H2051 H 0.76015 0.65491 0.59335 0.0
C2052 C 0.72122 0.64739 0.58694 0.0
C2053 C 0.74168 0.65414 0.60439 0.0
C2054 C 0.74879 0.65805 0.62047 0.0
C2055 C 0.72881 0.64604 0.5741 0.0
C2056 C 0.74304 0.64888 0.57646 0.0
C2057 C 0.74927 0.65283 0.59157 0.0
C2058 C 0.75189 0.64825 0.56334 0.0
C2059 C 0.72175 0.64208 0.558 0.0
C2060 C 0.74809 0.63521 0.55574 0.0
C2061 C 0.75695 0.63464 0.54393 0.0
C2062 C 0.76978 0.64711 0.53955 0.0
C2063 C 0.77345 0.66017 0.54712 0.0
C2064 C 0.76461 0.66072 0.55892 0.0
H2065 H 0.712 0.64317 0.55746 0.0
H2066 H 0.72939 0.64892 0.54864 0.0
H2067 H 0.71848 0.63073 0.55535 0.0
H2068 H 0.73842 0.62543 0.55915 0.0
H2069 H 0.75379 0.62444 0.53827 0.0
H2070 H 0.36078 0.04793 0.63233 0.0
H2071 H 0.36397 0.06375 0.60989 0.0
H2072 H 0.32301 0.06029 0.62032 0.0
H2073 H 0.31966 0.04437 0.64258 0.0
H2074 H 0.32697 0.05669 0.58812 0.0
H2075 H 0.37358 0.10585 0.61317 0.0
H2076 H 0.37562 0.09026 0.61209 0.0
H2077 H 0.36233 0.09022 0.62507 0.0
C2078 C 0.35248 0.05057 0.62984 0.0
C2079 C 0.34 0.04497 0.63924 0.0
C2080 C 0.35434 0.05965 0.61707 0.0
C2081 C 0.34379 0.06331 0.61357 0.0
C2082 C 0.33128 0.05761 0.62285 0.0
H2083 H 0.34467 0.13164 0.56131 0.0
H2084 H 0.34456 0.11477 0.58073 0.0
C2085 C 0.32941 0.04854 0.63558 0.0
C2086 C 0.34566 0.07305 0.60024 0.0
H2087 H 0.36588 0.10774 0.58756 0.0
C2088 C 0.33553 0.06783 0.58791 0.0
C2089 C 0.35679 0.0876 0.60012 0.0
C2090 C 0.36766 0.09391 0.61336 0.0
C2091 C 0.33607 0.07683 0.57556 0.0
C2092 C 0.34718 0.09138 0.57544 0.0
C2093 C 0.35745 0.09654 0.58764 0.0
C2094 C 0.34768 0.10168 0.56346 0.0
C2095 C 0.32445 0.07085 0.56307 0.0
C2096 C 0.34966 0.10001 0.54731 0.0
C2097 C 0.34961 0.10959 0.53612 0.0
C2098 C 0.3476 0.12101 0.54093 0.0
C2099 C 0.34595 0.12279 0.55717 0.0
C2100 C 0.34601 0.11324 0.56831 0.0
H2101 H 0.31515 0.06032 0.56661 0.0
H2102 H 0.32051 0.07844 0.56065 0.0
H2103 H 0.32893 0.06927 0.55188 0.0
H2104 H 0.35118 0.09127 0.54336 0.0
H2105 H 0.35088 0.10792 0.5237 0.0
H2106 H 0.94661 0.30986 0.63616 0.0
H2107 H 0.92994 0.29678 0.61442 0.0
H2108 H 0.94119 0.26355 0.61768 0.0
H2109 H 0.95757 0.27636 0.63952 0.0
H2110 H 0.93497 0.28851 0.5851 0.0
H2111 H 0.8976 0.24072 0.62029 0.0
H2112 H 0.91099 0.25728 0.62937 0.0
H2113 H 0.9159 0.24468 0.62171 0.0
C2114 C 0.94546 0.29973 0.63227 0.0
C2115 C 0.95329 0.29406 0.63962 0.0
C2116 C 0.93597 0.29229 0.61985 0.0
C2117 C 0.93413 0.27907 0.61464 0.0
C2118 C 0.94217 0.27356 0.62177 0.0
H2119 H 0.89156 0.21729 0.54106 0.0
H2120 H 0.9074 0.23333 0.56174 0.0
C2121 C 0.95158 0.28093 0.6342 0.0
C2122 C 0.924 0.27104 0.6016 0.0
H2123 H 0.89549 0.23817 0.59209 0.0
C2124 C 0.92623 0.27757 0.58665 0.0
C2125 C 0.91253 0.25679 0.6037 0.0
C2126 C 0.909 0.2495 0.61968 0.0
C2127 C 0.91764 0.26999 0.57359 0.0
C2128 C 0.90658 0.25559 0.5756 0.0
C2129 C 0.9041 0.2492 0.59061 0.0
C2130 C 0.89768 0.24674 0.5622 0.0
C2131 C 0.9207 0.27721 0.5576 0.0
C2132 C 0.88705 0.24908 0.55556 0.0
C2133 C 0.87785 0.23982 0.54385 0.0
C2134 C 0.87912 0.22806 0.53862 0.0
C2135 C 0.89011 0.22607 0.545 0.0
C2136 C 0.89923 0.23527 0.55674 0.0
H2137 H 0.93075 0.28783 0.55761 0.0
H2138 H 0.92161 0.27026 0.54846 0.0
H2139 H 0.91162 0.27881 0.55418 0.0
H2140 H 0.88561 0.2578 0.55979 0.0
H2141 H 0.8694 0.24156 0.53933 0.0
H2142 H 0.31973 0.27712 0.63862 0.0
H2143 H 0.3241 0.26542 0.61621 0.0
H2144 H 0.36618 0.30261 0.60971 0.0
H2145 H 0.36196 0.31436 0.63238 0.0
H2146 H 0.33017 0.27431 0.58477 0.0
H2147 H 0.37456 0.26937 0.61239 0.0
H2148 H 0.36299 0.27373 0.62373 0.0
H2149 H 0.37709 0.28721 0.6117 0.0
C2150 C 0.32994 0.28282 0.63246 0.0
C2151 C 0.34054 0.29663 0.63731 0.0
C2152 C 0.3324 0.27613 0.61963 0.0
C2153 C 0.34551 0.28309 0.6114 0.0
C2154 C 0.35608 0.29696 0.61606 0.0
H2155 H 0.35413 0.2453 0.52204 0.0
H2156 H 0.35491 0.26281 0.54128 0.0
C2157 C 0.35363 0.30367 0.62897 0.0
C2158 C 0.34794 0.27564 0.59799 0.0
H2159 H 0.36775 0.26035 0.58647 0.0
C2160 C 0.33847 0.27136 0.58504 0.0
C2161 C 0.35872 0.27175 0.59847 0.0
C2162 C 0.36887 0.27563 0.61235 0.0
C2163 C 0.33924 0.26296 0.57274 0.0
C2164 C 0.34993 0.25895 0.5733 0.0
C2165 C 0.35964 0.26354 0.58604 0.0
C2166 C 0.35036 0.24889 0.56159 0.0
C2167 C 0.32819 0.2579 0.55964 0.0
C2168 C 0.34798 0.23546 0.56669 0.0
C2169 C 0.34768 0.22554 0.55581 0.0
C2170 C 0.34974 0.22883 0.53954 0.0
C2171 C 0.35251 0.24245 0.53448 0.0
C2172 C 0.35283 0.25241 0.54543 0.0
H2173 H 0.31903 0.25955 0.56263 0.0
H2174 H 0.33332 0.26403 0.54867 0.0
H2175 H 0.32391 0.24632 0.5571 0.0
H2176 H 0.34614 0.23256 0.57912 0.0
H2177 H 0.34584 0.21527 0.56015 0.0
H2178 H 0.72179 0.04055 0.63415 0.0
H2179 H 0.73298 0.05609 0.61119 0.0
H2180 H 0.70142 0.06969 0.61304 0.0
H2181 H 0.69013 0.05413 0.63611 0.0
H2182 H 0.71917 0.0557 0.58106 0.0
H2183 H 0.74149 0.1076 0.61371 0.0
H2184 H 0.73594 0.09076 0.62369 0.0
H2185 H 0.72268 0.09482 0.61639 0.0
C2186 C 0.71723 0.04685 0.6297 0.0
C2187 C 0.70512 0.04618 0.63697 0.0
C2188 C 0.72361 0.05569 0.61656 0.0
C2189 C 0.71808 0.06409 0.61053 0.0
C2190 C 0.70593 0.06338 0.61766 0.0
H2191 H 0.7572 0.13042 0.53726 0.0
H2192 H 0.73999 0.11348 0.55651 0.0
C2193 C 0.69948 0.05448 0.63079 0.0
C2194 C 0.72516 0.0736 0.59679 0.0
H2195 H 0.74636 0.1088 0.58642 0.0
C2196 C 0.72503 0.06732 0.58216 0.0
C2197 C 0.73269 0.08873 0.5983 0.0
C2198 C 0.73335 0.09596 0.61386 0.0
C2199 C 0.73245 0.07579 0.56901 0.0
C2200 C 0.74048 0.09092 0.57067 0.0
C2201 C 0.74021 0.0972 0.58518 0.0
C2202 C 0.75003 0.10038 0.55792 0.0
C2203 C 0.73162 0.06845 0.55347 0.0
C2204 C 0.76135 0.09859 0.55229 0.0
C2205 C 0.7711 0.10817 0.54122 0.0
C2206 C 0.76986 0.11983 0.53568 0.0
C2207 C 0.75836 0.12145 0.54113 0.0
C2208 C 0.74857 0.11184 0.5522 0.0
H2209 H 0.72163 0.05781 0.55268 0.0
H2210 H 0.73197 0.07512 0.54324 0.0
H2211 H 0.74091 0.06664 0.55255 0.0
H2212 H 0.76288 0.09002 0.55678 0.0
H2213 H 0.77976 0.10653 0.53716 0.0
H2214 H 0.94767 0.63678 0.63582 0.0
H2215 H 0.93162 0.6329 0.61333 0.0
H2216 H 0.94019 0.67647 0.61766 0.0
H2217 H 0.95621 0.68045 0.64004 0.0
H2218 H 0.90658 0.63637 0.61299 0.0
H2219 H 0.94853 0.67263 0.57042 0.0
H2220 H 0.95267 0.6659 0.58808 0.0
H2221 H 0.94926 0.68063 0.58936 0.0
C2222 C 0.94615 0.64553 0.63194 0.0
C2223 C 0.95323 0.65893 0.63965 0.0
C2224 C 0.93699 0.6433 0.61912 0.0
C2225 C 0.9349 0.65447 0.61372 0.0
C2226 C 0.94187 0.6678 0.62148 0.0
H2227 H 0.88535 0.66992 0.54536 0.0
H2228 H 0.90207 0.67076 0.56553 0.0
C2229 C 0.95095 0.67002 0.63431 0.0
C2230 C 0.92516 0.65217 0.60024 0.0
H2231 H 0.92421 0.66461 0.56332 0.0
C2232 C 0.91041 0.64239 0.60204 0.0
C2233 C 0.93024 0.66008 0.58601 0.0
C2234 C 0.94606 0.67031 0.58323 0.0
C2235 C 0.9005 0.64075 0.59021 0.0
C2236 C 0.90555 0.64889 0.57609 0.0
C2237 C 0.92036 0.6584 0.57416 0.0
C2238 C 0.89561 0.64825 0.56351 0.0
C2239 C 0.88466 0.63076 0.5932 0.0
C2240 C 0.8866 0.63536 0.55549 0.0
C2241 C 0.87701 0.63485 0.54392 0.0
C2242 C 0.8764 0.64726 0.54006 0.0
C2243 C 0.88568 0.66021 0.5479 0.0
C2244 C 0.89519 0.6607 0.55949 0.0
H2245 H 0.88236 0.62794 0.60594 0.0
H2246 H 0.87824 0.63567 0.58918 0.0
H2247 H 0.88104 0.62066 0.58644 0.0
H2248 H 0.88698 0.6257 0.55815 0.0
H2249 H 0.87015 0.62476 0.53793 0.0
H2250 H 0.94556 0.65343 0.71902 0.0
H2251 H 0.93334 0.65853 0.74034 0.0
H2252 H 0.96321 0.70393 0.73533 0.0
H2253 H 0.97574 0.69887 0.71418 0.0
H2254 H 0.95817 0.69556 0.76647 0.0
H2255 H 0.90659 0.67451 0.73413 0.0
H2256 H 0.91241 0.66155 0.73572 0.0
H2257 H 0.92299 0.67778 0.72454 0.0
C2258 C 0.94953 0.66451 0.72245 0.0
C2259 C 0.96154 0.67577 0.71486 0.0
C2260 C 0.94249 0.66741 0.73458 0.0
C2261 C 0.94718 0.68163 0.73919 0.0
C2262 C 0.95936 0.69289 0.73187 0.0
H2263 H 0.89286 0.70331 0.79545 0.0
H2264 H 0.90847 0.70242 0.77503 0.0
C2265 C 0.96649 0.68998 0.71979 0.0
C2266 C 0.93935 0.68469 0.75169 0.0
H2267 H 0.90609 0.67895 0.76175 0.0
C2268 C 0.9468 0.69203 0.76541 0.0
C2269 C 0.92459 0.6803 0.75016 0.0
C2270 C 0.9162 0.67323 0.73527 0.0
C2271 C 0.93978 0.69475 0.77786 0.0
C2272 C 0.92485 0.6897 0.77666 0.0
C2273 C 0.91751 0.68269 0.76274 0.0
C2274 C 0.91651 0.69144 0.78965 0.0
C2275 C 0.94847 0.70314 0.79206 0.0
C2276 C 0.91591 0.68568 0.80475 0.0
C2277 C 0.90717 0.6864 0.81659 0.0
C2278 C 0.89866 0.69271 0.8135 0.0
C2279 C 0.89944 0.69861 0.7984 0.0
C2280 C 0.90827 0.69799 0.78663 0.0
H2281 H 0.96006 0.70991 0.78908 0.0
H2282 H 0.94452 0.71017 0.79686 0.0
H2283 H 0.94752 0.69553 0.8015 0.0
H2284 H 0.92192 0.68028 0.80727 0.0
H2285 H 0.90695 0.68186 0.8281 0.0
H2286 H 0.34663 0.29005 0.71182 0.0
H2287 H 0.34299 0.27383 0.73389 0.0
H2288 H 0.2997 0.26583 0.73991 0.0
H2289 H 0.30323 0.28206 0.71776 0.0
H2290 H 0.33493 0.27619 0.76602 0.0
H2291 H 0.29536 0.22516 0.73649 0.0
H2292 H 0.3068 0.24137 0.72551 0.0
H2293 H 0.29145 0.23958 0.73603 0.0
C2294 C 0.33631 0.2848 0.7178 0.0
C2295 C 0.32519 0.28728 0.71303 0.0
C2296 C 0.33426 0.27557 0.73041 0.0
C2297 C 0.32104 0.26855 0.73841 0.0
C2298 C 0.30991 0.27101 0.73373 0.0
H2299 H 0.29287 0.20494 0.81459 0.0
H2300 H 0.29392 0.22196 0.79458 0.0
C2301 C 0.31197 0.28031 0.72113 0.0
C2302 C 0.31908 0.25884 0.7518 0.0
H2303 H 0.30125 0.2236 0.76304 0.0
C2304 C 0.32754 0.26469 0.76541 0.0
C2305 C 0.30936 0.24388 0.75097 0.0
C2306 C 0.30026 0.23704 0.73645 0.0
C2307 C 0.3266 0.25596 0.77824 0.0
C2308 C 0.31718 0.24093 0.77724 0.0
C2309 C 0.30848 0.23512 0.76376 0.0
C2310 C 0.31663 0.23098 0.78975 0.0
C2311 C 0.33562 0.26292 0.79277 0.0
C2312 C 0.32901 0.23032 0.79355 0.0
C2313 C 0.32844 0.22063 0.80494 0.0
C2314 C 0.31544 0.21129 0.81266 0.0
C2315 C 0.30302 0.21193 0.80878 0.0
C2316 C 0.30362 0.22167 0.7974 0.0
H2317 H 0.33871 0.27443 0.79367 0.0
H2318 H 0.32982 0.25733 0.80375 0.0
H2319 H 0.34567 0.26239 0.79204 0.0
H2320 H 0.33908 0.23713 0.78748 0.0
H2321 H 0.33812 0.22021 0.80741 0.0
H2322 H 0.71394 0.01958 0.72211 0.0
H2323 H 0.72987 0.03127 0.74477 0.0
H2324 H 0.73625 0.07231 0.7293 0.0
H2325 H 0.7201 0.06066 0.70689 0.0
H2326 H 0.75799 0.05215 0.74627 0.0
H2327 H 0.72418 0.07121 0.77493 0.0
H2328 H 0.71766 0.05828 0.75898 0.0
H2329 H 0.72847 0.07719 0.75479 0.0
C2330 C 0.71873 0.03109 0.72356 0.0
C2331 C 0.71569 0.0392 0.71281 0.0
C2332 C 0.72782 0.03775 0.73651 0.0
C2333 C 0.734 0.05262 0.73891 0.0
C2334 C 0.73128 0.06077 0.72792 0.0
H2335 H 0.80815 0.11067 0.7936 0.0
H2336 H 0.79118 0.09497 0.77351 0.0
C2337 C 0.72214 0.05412 0.71506 0.0
C2338 C 0.74348 0.05968 0.75275 0.0
H2339 H 0.74843 0.08171 0.78418 0.0
C2340 C 0.75584 0.05851 0.75465 0.0
C2341 C 0.74052 0.06773 0.76387 0.0
C2342 C 0.7269 0.06856 0.76316 0.0
C2343 C 0.76561 0.06562 0.76704 0.0
C2344 C 0.76309 0.07439 0.77757 0.0
C2345 C 0.75045 0.07512 0.77601 0.0
C2346 C 0.77362 0.0833 0.78996 0.0
C2347 C 0.77846 0.06358 0.76875 0.0
C2348 C 0.76932 0.08219 0.80587 0.0
C2349 C 0.77898 0.09127 0.81738 0.0
C2350 C 0.79312 0.10162 0.81317 0.0
C2351 C 0.79742 0.10261 0.79726 0.0
C2352 C 0.78774 0.09361 0.78576 0.0
H2353 H 0.77639 0.05326 0.7634 0.0
H2354 H 0.78778 0.07241 0.76247 0.0
H2355 H 0.78142 0.06376 0.78139 0.0
H2356 H 0.75845 0.07436 0.80936 0.0
H2357 H 0.77538 0.09021 0.82956 0.0
H2358 H 0.04957 0.35759 0.01777 0.0
H2359 H 0.06728 0.3535 0.03162 0.0
H2360 H 0.03327 0.31987 0.05921 0.0
H2361 H 0.01554 0.32379 0.04537 0.0
H2362 H 0.07257 0.35614 0.06414 0.0
H2363 H 0.05606 0.30099 0.04364 0.0
H2364 H 0.05041 0.31227 0.03381 0.0
H2365 H 0.04146 0.30271 0.05157 0.0
C2366 C 0.04586 0.34921 0.02666 0.0
C2367 C 0.03118 0.34099 0.03047 0.0
C2368 C 0.05598 0.3469 0.03456 0.0
C2369 C 0.05156 0.33625 0.04628 0.0
C2370 C 0.03688 0.32794 0.04998 0.0
H2371 H 0.09778 0.32888 0.1255 0.0
H2372 H 0.08208 0.33244 0.10737 0.0
C2373 C 0.02678 0.33025 0.04212 0.0
C2374 C 0.06231 0.3344 0.05539 0.0
H2375 H 0.07164 0.30954 0.0662 0.0
C2376 C 0.07247 0.346 0.06448 0.0
C2377 C 0.06224 0.32121 0.05567 0.0
C2378 C 0.05205 0.30862 0.04553 0.0
C2379 C 0.08226 0.3446 0.07427 0.0
C2380 C 0.08171 0.3312 0.07515 0.0
C2381 C 0.0719 0.31975 0.06564 0.0
C2382 C 0.09109 0.32881 0.0861 0.0
C2383 C 0.0931 0.35749 0.0836 0.0
C2384 C 0.10108 0.3252 0.08015 0.0
C2385 C 0.11009 0.32317 0.09049 0.0
C2386 C 0.10919 0.32463 0.10697 0.0
C2387 C 0.09893 0.32795 0.11287 0.0
C2388 C 0.08995 0.32998 0.10253 0.0
H2389 H 0.09464 0.3677 0.0785 0.0
H2390 H 0.0892 0.35665 0.09596 0.0
H2391 H 0.10367 0.35797 0.08397 0.0
H2392 H 0.10207 0.32419 0.0675 0.0
H2393 H 0.11796 0.32077 0.08554 0.0
H2394 H 0.67256 0.68598 0.04967 0.0
H2395 H 0.67696 0.70712 0.06502 0.0
H2396 H 0.65019 0.71458 0.03285 0.0
H2397 H 0.64577 0.69344 0.01733 0.0
H2398 H 0.67718 0.73988 0.04151 0.0
H2399 H 0.64565 0.70783 0.0935 0.0
H2400 H 0.65925 0.70401 0.08664 0.0
H2401 H 0.64413 0.69998 0.07416 0.0
C2402 C 0.66766 0.69216 0.0458 0.0
C2403 C 0.65875 0.68802 0.03235 0.0
C2404 C 0.67015 0.70419 0.05462 0.0
C2405 C 0.66373 0.71226 0.05017 0.0
C2406 C 0.65517 0.70843 0.03649 0.0
H2407 H 0.65367 0.77318 0.10827 0.0
H2408 H 0.65012 0.75341 0.09098 0.0
C2409 C 0.65265 0.69636 0.02766 0.0
C2410 C 0.66576 0.72454 0.06001 0.0
H2411 H 0.6589 0.73312 0.09671 0.0
C2412 C 0.67317 0.73843 0.05357 0.0
C2413 C 0.66035 0.72255 0.07565 0.0
C2414 C 0.65179 0.70779 0.0829 0.0
C2415 C 0.67555 0.75046 0.06251 0.0
C2416 C 0.67049 0.7485 0.07831 0.0
C2417 C 0.66287 0.73458 0.08463 0.0
C2418 C 0.67281 0.76072 0.08846 0.0
C2419 C 0.68329 0.76514 0.05493 0.0
C2420 C 0.68675 0.77131 0.09288 0.0
C2421 C 0.68882 0.78258 0.10287 0.0
C2422 C 0.67697 0.78341 0.10868 0.0
C2423 C 0.66302 0.77276 0.10421 0.0
C2424 C 0.66096 0.7615 0.09424 0.0
H2425 H 0.68345 0.76444 0.0418 0.0
H2426 H 0.67815 0.77153 0.05826 0.0
H2427 H 0.69459 0.77099 0.05917 0.0
H2428 H 0.69602 0.77073 0.08879 0.0
H2429 H 0.69969 0.79049 0.10627 0.0
H2430 H 0.31135 0.95112 0.02352 0.0
H2431 H 0.29026 0.93411 0.03896 0.0
H2432 H 0.28499 0.96902 0.05601 0.0
H2433 H 0.30612 0.98612 0.04077 0.0
H2434 H 0.28818 0.93818 0.07501 0.0
H2435 H 0.24407 0.93588 0.03814 0.0
H2436 H 0.26138 0.94036 0.0299 0.0
H2437 H 0.25963 0.95326 0.04175 0.0
C2438 C 0.3056 0.95515 0.03042 0.0
C2439 C 0.31037 0.96994 0.03096 0.0
C2440 C 0.2936 0.94543 0.03923 0.0
C2441 C 0.28608 0.95035 0.04851 0.0
C2442 C 0.29061 0.96505 0.0488 0.0
H2443 H 0.21195 0.91075 0.11072 0.0
H2444 H 0.23185 0.92681 0.09332 0.0
C2445 C 0.30269 0.97478 0.04013 0.0
C2446 C 0.27399 0.94024 0.05862 0.0
H2447 H 0.23753 0.92381 0.06273 0.0
C2448 C 0.27708 0.93494 0.07232 0.0
C2449 C 0.25961 0.93624 0.0551 0.0
C2450 C 0.25585 0.94163 0.04039 0.0
C2451 C 0.26613 0.92586 0.08282 0.0
C2452 C 0.25167 0.92168 0.07923 0.0
C2453 C 0.2486 0.92699 0.06546 0.0
C2454 C 0.23957 0.91187 0.08966 0.0
C2455 C 0.27024 0.92123 0.09789 0.0
C2456 C 0.23718 0.89808 0.0932 0.0
C2457 C 0.22591 0.88897 0.10322 0.0
C2458 C 0.21667 0.89338 0.10969 0.0
C2459 C 0.21888 0.90706 0.10586 0.0
C2460 C 0.23024 0.91623 0.09595 0.0
H2461 H 0.28169 0.92861 0.10106 0.0
H2462 H 0.26338 0.9208 0.10797 0.0
H2463 H 0.2688 0.91035 0.09617 0.0
H2464 H 0.24397 0.89433 0.08812 0.0
H2465 H 0.22429 0.87837 0.10573 0.0
H2466 H 0.32819 0.01411 0.96757 0.0
H2467 H 0.3243 0.03149 0.95295 0.0
H2468 H 0.34655 0.0631 0.98948 0.0
H2469 H 0.3508 0.04584 0.00402 0.0
H2470 H 0.31013 0.04569 0.9611 0.0
H2471 H 0.36788 0.0846 0.9499 0.0
H2472 H 0.36173 0.0667 0.9573 0.0
H2473 H 0.3634 0.08062 0.97048 0.0
C2474 C 0.33226 0.02477 0.97251 0.0
C2475 C 0.33989 0.02866 0.98689 0.0
C2476 C 0.33001 0.03468 0.96414 0.0
C2477 C 0.33534 0.04866 0.96999 0.0
C2478 C 0.34264 0.05247 0.98457 0.0
H2479 H 0.33106 0.12187 0.9325 0.0
H2480 H 0.33406 0.1051 0.94943 0.0
C2481 C 0.34498 0.04258 0.99291 0.0
C2482 C 0.33321 0.05918 0.96074 0.0
H2483 H 0.35115 0.09161 0.94189 0.0
C2484 C 0.3191 0.05573 0.9569 0.0
C2485 C 0.34493 0.07225 0.95523 0.0
C2486 C 0.36034 0.07624 0.95829 0.0
C2487 C 0.31641 0.06503 0.94775 0.0
C2488 C 0.32812 0.07805 0.94222 0.0
C2489 C 0.34221 0.08161 0.9462 0.0
C2490 C 0.32601 0.08804 0.93202 0.0
C2491 C 0.30105 0.06095 0.94417 0.0
C2492 C 0.32061 0.08401 0.91659 0.0
C2493 C 0.31904 0.09362 0.9068 0.0
C2494 C 0.32286 0.10746 0.91227 0.0
C2495 C 0.32822 0.1114 0.9278 0.0
C2496 C 0.32985 0.1018 0.93754 0.0
H2497 H 0.2933 0.05222 0.95206 0.0
H2498 H 0.29953 0.07039 0.94543 0.0
H2499 H 0.2985 0.05711 0.93173 0.0
H2500 H 0.31782 0.0735 0.91204 0.0
H2501 H 0.31511 0.09031 0.89484 0.0
H2502 H 0.95446 0.3059 0.00366 0.0
H2503 H 0.9374 0.28444 0.98882 0.0
H2504 H 0.97032 0.2928 0.95426 0.0
H2505 H 0.98746 0.31402 0.96916 0.0
H2506 H 0.92809 0.28313 0.95838 0.0
H2507 H 0.95489 0.25068 0.96384 0.0
H2508 H 0.95974 0.26627 0.97602 0.0
H2509 H 0.96658 0.26834 0.95613 0.0
C2510 C 0.95809 0.30305 0.993 0.0
C2511 C 0.9723 0.31159 0.9876 0.0
C2512 C 0.94834 0.29082 0.98453 0.0
C2513 C 0.95265 0.28689 0.97057 0.0
C2514 C 0.96685 0.29541 0.9652 0.0
H2515 H 0.91115 0.22611 0.89451 0.0
H2516 H 0.92766 0.24565 0.91198 0.0
C2517 C 0.97661 0.30759 0.97368 0.0
C2518 C 0.94214 0.27436 0.96114 0.0
H2519 H 0.93634 0.24298 0.94431 0.0
C2520 C 0.92981 0.27427 0.95544 0.0
C2521 C 0.94442 0.26283 0.95731 0.0
C2522 C 0.95705 0.26193 0.96377 0.0
C2523 C 0.91991 0.26315 0.94564 0.0
C2524 C 0.92235 0.2518 0.94157 0.0
C2525 C 0.93457 0.25178 0.9474 0.0
C2526 C 0.91237 0.23987 0.93116 0.0
C2527 C 0.90709 0.26381 0.93936 0.0
C2528 C 0.89839 0.23008 0.93628 0.0
C2529 C 0.88898 0.21884 0.92641 0.0
C2530 C 0.89338 0.21718 0.91121 0.0
C2531 C 0.90746 0.22698 0.90619 0.0
C2532 C 0.91689 0.23818 0.91611 0.0
H2533 H 0.90826 0.2746 0.94103 0.0
H2534 H 0.9055 0.26106 0.92655 0.0
H2535 H 0.89726 0.25583 0.94574 0.0
H2536 H 0.89481 0.23108 0.94798 0.0
H2537 H 0.87832 0.21133 0.93079 0.0
H2538 H 0.68647 0.6755 0.97082 0.0
H2539 H 0.70746 0.67955 0.95536 0.0
H2540 H 0.71059 0.64749 0.983 0.0
H2541 H 0.68965 0.64347 0.99867 0.0
H2542 H 0.73726 0.67295 0.97779 0.0
H2543 H 0.70652 0.65109 0.92195 0.0
H2544 H 0.70439 0.66507 0.93095 0.0
H2545 H 0.69789 0.64821 0.94104 0.0
C2546 C 0.69166 0.66935 0.97366 0.0
C2547 C 0.68638 0.65911 0.98589 0.0
C2548 C 0.7036 0.67163 0.96476 0.0
C2549 C 0.7104 0.66364 0.96788 0.0
C2550 C 0.70541 0.6537 0.98037 0.0
H2551 H 0.76924 0.65361 0.90584 0.0
H2552 H 0.74919 0.64998 0.92279 0.0
C2553 C 0.69346 0.65141 0.98929 0.0
C2554 C 0.72265 0.66559 0.958 0.0
H2555 H 0.73195 0.66247 0.92011 0.0
C2556 C 0.73612 0.67064 0.96519 0.0
C2557 C 0.72105 0.66237 0.94161 0.0
C2558 C 0.70666 0.65626 0.93342 0.0
C2559 C 0.74813 0.6728 0.95634 0.0
C2560 C 0.74662 0.67001 0.93985 0.0
C2561 C 0.73309 0.66473 0.93273 0.0
C2562 C 0.7589 0.67229 0.92979 0.0
C2563 C 0.76226 0.67783 0.96475 0.0
C2564 C 0.77091 0.68607 0.92798 0.0
C2565 C 0.78242 0.68817 0.91836 0.0
C2566 C 0.78208 0.67653 0.91034 0.0
C2567 C 0.76993 0.66276 0.91205 0.0
C2568 C 0.75843 0.66068 0.92165 0.0
H2569 H 0.76077 0.676 0.97774 0.0
H2570 H 0.76784 0.67223 0.96009 0.0
H2571 H 0.76934 0.68953 0.96273 0.0
H2572 H 0.77136 0.69522 0.93394 0.0
H2573 H 0.79166 0.69889 0.91739 0.0
H2574 H 0.95421 0.64919 0.00263 0.0
H2575 H 0.93686 0.65287 0.98734 0.0
H2576 H 0.96965 0.6773 0.95266 0.0
H2577 H 0.98701 0.67372 0.9678 0.0
H2578 H 0.93968 0.68061 0.97678 0.0
H2579 H 0.93522 0.6443 0.92741 0.0
H2580 H 0.94199 0.6435 0.94676 0.0
H2581 H 0.95323 0.65747 0.93311 0.0
C2582 C 0.95772 0.65539 0.99178 0.0
C2583 C 0.97194 0.66112 0.98637 0.0
C2584 C 0.94781 0.65748 0.98308 0.0
C2585 C 0.95197 0.6652 0.96881 0.0
C2586 C 0.96621 0.67115 0.96355 0.0
H2587 H 0.91052 0.68635 0.89432 0.0
H2588 H 0.92718 0.68326 0.91139 0.0
C2589 C 0.97612 0.66914 0.97225 0.0
C2590 C 0.94144 0.66701 0.95926 0.0
H2591 H 0.92405 0.65827 0.92365 0.0
C2592 C 0.93616 0.67567 0.96521 0.0
C2593 C 0.93697 0.66058 0.94417 0.0
C2594 C 0.94203 0.65084 0.93747 0.0
C2595 C 0.92677 0.67839 0.95623 0.0
C2596 C 0.92231 0.67198 0.94108 0.0
C2597 C 0.92751 0.6632 0.93524 0.0
C2598 C 0.9123 0.67426 0.93103 0.0
C2599 C 0.92205 0.68843 0.96284 0.0
C2600 C 0.89839 0.67014 0.93637 0.0
C2601 C 0.8889 0.67204 0.92672 0.0
C2602 C 0.89308 0.67795 0.91144 0.0
C2603 C 0.90702 0.68198 0.9061 0.0
C2604 C 0.91652 0.68012 0.91579 0.0
H2605 H 0.92941 0.69542 0.97233 0.0
H2606 H 0.92155 0.69536 0.9534 0.0
H2607 H 0.91114 0.682 0.96806 0.0
H2608 H 0.89481 0.66532 0.94796 0.0
H2609 H 0.87831 0.66895 0.93128 0.0
H2610 H 0.36067 0.31348 0.99409 0.0
H2611 H 0.35631 0.29258 0.97819 0.0
H2612 H 0.31807 0.29021 0.95868 0.0
H2613 H 0.32234 0.31111 0.9745 0.0
H2614 H 0.31528 0.263 0.96974 0.0
H2615 H 0.3613 0.29371 0.9287 0.0
H2616 H 0.36537 0.29651 0.94952 0.0
H2617 H 0.35382 0.30225 0.94081 0.0
C2618 C 0.35131 0.30848 0.98646 0.0
C2619 C 0.34188 0.31395 0.98548 0.0
C2620 C 0.34888 0.29659 0.97735 0.0
C2621 C 0.33697 0.28999 0.96716 0.0
C2622 C 0.32735 0.29522 0.96644 0.0
H2623 H 0.32022 0.22937 0.89077 0.0
H2624 H 0.3232 0.2495 0.90721 0.0
C2625 C 0.32982 0.30715 0.97546 0.0
C2626 C 0.33458 0.27767 0.95716 0.0
H2627 H 0.34854 0.2684 0.92595 0.0
C2628 C 0.32253 0.26415 0.96016 0.0
C2629 C 0.34399 0.2793 0.94458 0.0
C2630 C 0.3568 0.29373 0.94056 0.0
C2631 C 0.31977 0.2521 0.95102 0.0
C2632 C 0.32935 0.25367 0.93866 0.0
C2633 C 0.34127 0.26725 0.93551 0.0
C2634 C 0.32721 0.24133 0.92887 0.0
C2635 C 0.30655 0.23782 0.95452 0.0
C2636 C 0.32858 0.23016 0.93563 0.0
C2637 C 0.32691 0.21868 0.92628 0.0
C2638 C 0.32382 0.21817 0.91001 0.0
C2639 C 0.32243 0.22938 0.9033 0.0
C2640 C 0.3242 0.24091 0.91264 0.0
H2641 H 0.29874 0.23903 0.96208 0.0
H2642 H 0.3011 0.23229 0.94336 0.0
H2643 H 0.30979 0.23084 0.96086 0.0
H2644 H 0.33107 0.23039 0.9481 0.0
H2645 H 0.32793 0.21014 0.93181 0.0
H2646 H 0.6867 0.01324 0.96884 0.0
H2647 H 0.70764 0.03066 0.95368 0.0
H2648 H 0.71561 0.06344 0.98821 0.0
H2649 H 0.69461 0.04604 0.0035 0.0
H2650 H 0.7114 0.05774 0.94137 0.0
H2651 H 0.75514 0.06487 0.9823 0.0
H2652 H 0.73725 0.04938 0.98316 0.0
H2653 H 0.74057 0.06634 0.99084 0.0
C2654 C 0.69297 0.02412 0.9733 0.0
C2655 C 0.68903 0.02829 0.98737 0.0
C2656 C 0.70491 0.03405 0.96461 0.0
C2657 C 0.7132 0.04827 0.96991 0.0
C2658 C 0.70943 0.05245 0.98405 0.0
H2659 H 0.78908 0.1222 0.93074 0.0
H2660 H 0.7688 0.10571 0.94733 0.0
C2661 C 0.69742 0.04253 0.99273 0.0
C2662 C 0.72541 0.05883 0.9602 0.0
H2663 H 0.76203 0.07943 0.9594 0.0
C2664 C 0.72248 0.06249 0.94527 0.0
C2665 C 0.73981 0.06504 0.96543 0.0
C2666 C 0.74349 0.06119 0.98126 0.0
C2667 C 0.73359 0.07231 0.93542 0.0
C2668 C 0.74804 0.07833 0.94049 0.0
C2669 C 0.75095 0.07476 0.95552 0.0
C2670 C 0.76029 0.08828 0.93034 0.0
C2671 C 0.72972 0.07635 0.9198 0.0
C2672 C 0.76234 0.08389 0.91536 0.0
C2673 C 0.77381 0.09335 0.90576 0.0
C2674 C 0.78357 0.10734 0.91102 0.0
C2675 C 0.78162 0.1116 0.92618 0.0
C2676 C 0.7701 0.10215 0.93574 0.0
H2677 H 0.71845 0.07417 0.91979 0.0
H2678 H 0.73702 0.08789 0.91707 0.0
H2679 H 0.73074 0.06986 0.91019 0.0
H2680 H 0.75506 0.07313 0.91109 0.0
H2681 H 0.77492 0.08974 0.89413 0.0
H2682 H 0.67812 0.98598 0.04608 0.0
H2683 H 0.68249 0.9688 0.06047 0.0
H2684 H 0.64885 0.93394 0.03377 0.0
H2685 H 0.64429 0.95108 0.01941 0.0
H2686 H 0.64658 0.92929 0.06631 0.0
H2687 H 0.70184 0.94632 0.04551 0.0
H2688 H 0.69986 0.96081 0.05321 0.0
H2689 H 0.69028 0.95157 0.03558 0.0
C2690 C 0.67175 0.97467 0.04315 0.0
C2691 C 0.66087 0.96987 0.0316 0.0
C2692 C 0.67432 0.96488 0.05132 0.0
C2693 C 0.66613 0.95013 0.04802 0.0
C2694 C 0.65534 0.9453 0.03641 0.0
H2695 H 0.68277 0.88457 0.08672 0.0
H2696 H 0.67915 0.90054 0.06905 0.0
C2697 C 0.65277 0.9551 0.02821 0.0
C2698 C 0.66828 0.9397 0.05738 0.0
H2699 H 0.69352 0.93081 0.06806 0.0
C2700 C 0.6568 0.92954 0.0666 0.0
C2701 C 0.68159 0.93996 0.0576 0.0
C2702 C 0.69406 0.95016 0.04733 0.0
C2703 C 0.65839 0.91989 0.0764 0.0
C2704 C 0.67188 0.92057 0.07716 0.0
C2705 C 0.68324 0.93044 0.06758 0.0
C2706 C 0.67442 0.91119 0.08792 0.0
C2707 C 0.64559 0.90899 0.0858 0.0
C2708 C 0.67323 0.9121 0.10439 0.0
C2709 C 0.67537 0.90306 0.11452 0.0
C2710 C 0.67881 0.89298 0.10837 0.0
C2711 C 0.68028 0.89231 0.09186 0.0
C2712 C 0.67814 0.90136 0.08173 0.0
H2713 H 0.6353 0.90737 0.08082 0.0
H2714 H 0.6452 0.89846 0.0861 0.0
H2715 H 0.64649 0.91285 0.09818 0.0
H2716 H 0.67068 0.91984 0.10941 0.0
H2717 H 0.67442 0.90403 0.12718 0.0
H2718 H 0.04892 0.69457 0.01893 0.0
H2719 H 0.06574 0.71601 0.03399 0.0
H2720 H 0.0303 0.71376 0.06048 0.0
H2721 H 0.01344 0.69247 0.04541 0.0
H2722 H 0.05073 0.74181 0.05038 0.0
H2723 H 0.07622 0.71427 0.08069 0.0
H2724 H 0.07612 0.71347 0.05941 0.0
H2725 H 0.05941 0.70459 0.07009 0.0
C2726 C 0.04472 0.69871 0.02789 0.0
C2727 C 0.02988 0.6918 0.03107 0.0
C2728 C 0.05433 0.7109 0.03652 0.0
C2729 C 0.04926 0.71631 0.04849 0.0
C2730 C 0.03442 0.7097 0.05133 0.0
H2731 H 0.09439 0.77132 0.12777 0.0
H2732 H 0.07826 0.75188 0.10999 0.0
C2733 C 0.02481 0.69753 0.04273 0.0
C2734 C 0.05938 0.72866 0.05839 0.0
H2735 H 0.08605 0.73903 0.08594 0.0
C2736 C 0.0585 0.74125 0.05813 0.0
C2737 C 0.06934 0.72778 0.06862 0.0
C2738 C 0.07031 0.71428 0.06989 0.0
C2739 C 0.06738 0.75304 0.06781 0.0
C2740 C 0.07749 0.75224 0.07786 0.0
C2741 C 0.07834 0.73963 0.07814 0.0
C2742 C 0.08706 0.76421 0.08851 0.0
C2743 C 0.06562 0.76612 0.06751 0.0
C2744 C 0.09738 0.77754 0.0823 0.0
C2745 C 0.10665 0.78866 0.09242 0.0
C2746 C 0.10581 0.78659 0.10894 0.0
C2747 C 0.09542 0.7732 0.1151 0.0
C2748 C 0.08616 0.76211 0.10498 0.0
H2749 H 0.05525 0.76376 0.06204 0.0
H2750 H 0.06619 0.77033 0.07967 0.0
H2751 H 0.07447 0.77469 0.06043 0.0
H2752 H 0.09844 0.77928 0.06961 0.0
H2753 H 0.11469 0.79875 0.08728 0.0
H2754 H 0.31446 0.36285 0.02754 0.0
H2755 H 0.2938 0.35866 0.0438 0.0
H2756 H 0.28741 0.3172 0.05749 0.0
H2757 H 0.30827 0.32149 0.04165 0.0
H2758 H 0.26556 0.33798 0.04288 0.0
H2759 H 0.28951 0.33527 0.10011 0.0
H2760 H 0.2999 0.34149 0.08209 0.0
H2761 H 0.28868 0.32254 0.08577 0.0
C2762 C 0.30863 0.35283 0.034 0.0
C2763 C 0.31304 0.34254 0.03345 0.0
C2764 C 0.29683 0.35046 0.04328 0.0
C2765 C 0.28925 0.33776 0.05213 0.0
C2766 C 0.29334 0.32725 0.05112 0.0
H2767 H 0.21308 0.30324 0.11188 0.0
H2768 H 0.23288 0.30648 0.09458 0.0
C2769 C 0.3052 0.32967 0.04197 0.0
C2770 C 0.27707 0.33551 0.0624 0.0
H2771 H 0.26483 0.32876 0.1006 0.0
C2772 C 0.26543 0.33602 0.05551 0.0
C2773 C 0.27695 0.33302 0.07891 0.0
C2774 C 0.28949 0.33318 0.0872 0.0
C2775 C 0.25359 0.33391 0.06464 0.0
C2776 C 0.25342 0.33125 0.08105 0.0
C2777 C 0.26501 0.33071 0.08797 0.0
C2778 C 0.24141 0.32928 0.09131 0.0
C2779 C 0.24124 0.33439 0.05672 0.0
C2780 C 0.23981 0.34108 0.09525 0.0
C2781 C 0.2286 0.33929 0.10517 0.0
C2782 C 0.21877 0.32565 0.11124 0.0
C2783 C 0.22042 0.31384 0.10725 0.0
C2784 C 0.23173 0.31568 0.09745 0.0
H2785 H 0.242 0.33439 0.04359 0.0
H2786 H 0.23083 0.32505 0.06047 0.0
H2787 H 0.24125 0.3443 0.06043 0.0
H2788 H 0.24727 0.35168 0.09069 0.0
H2789 H 0.22751 0.34855 0.10792 0.0
H2790 H 0.71082 0.68418 0.35093 0.0
H2791 H 0.72778 0.67956 0.36561 0.0
H2792 H 0.69571 0.65742 0.40175 0.0
H2793 H 0.67864 0.66172 0.38702 0.0
H2794 H 0.73833 0.68842 0.39548 0.0
H2795 H 0.70902 0.62891 0.39267 0.0
H2796 H 0.70439 0.63969 0.3803 0.0
H2797 H 0.69829 0.63599 0.40052 0.0
C2798 C 0.70735 0.6782 0.36193 0.0
C2799 C 0.69339 0.67324 0.36779 0.0
C2800 C 0.71705 0.67559 0.3703 0.0
C2801 C 0.71293 0.66793 0.38464 0.0
C2802 C 0.69901 0.66302 0.39052 0.0
H2803 H 0.75608 0.64919 0.45944 0.0
H2804 H 0.73918 0.65222 0.44268 0.0
C2805 C 0.68929 0.66557 0.38213 0.0
C2806 C 0.7234 0.66568 0.39384 0.0
H2807 H 0.72853 0.63982 0.41102 0.0
C2808 C 0.73625 0.67779 0.39875 0.0
C2809 C 0.72066 0.6518 0.39811 0.0
C2810 C 0.70741 0.63835 0.3925 0.0
C2811 C 0.74628 0.67641 0.40815 0.0
C2812 C 0.74341 0.66255 0.41262 0.0
C2813 C 0.73063 0.65043 0.40762 0.0
C2814 C 0.75354 0.66044 0.42255 0.0
C2815 C 0.7597 0.68979 0.41356 0.0
C2816 C 0.7671 0.66387 0.41666 0.0
C2817 C 0.77673 0.66203 0.42613 0.0
C2818 C 0.77298 0.65673 0.4417 0.0
C2819 C 0.75927 0.65315 0.44747 0.0
C2820 C 0.74963 0.65493 0.43795 0.0
H2821 H 0.75894 0.69962 0.41177 0.0
H2822 H 0.76181 0.68897 0.4263 0.0
H2823 H 0.76905 0.69098 0.40668 0.0
H2824 H 0.77021 0.66791 0.40469 0.0
H2825 H 0.78707 0.66463 0.42119 0.0
H2826 H 0.31172 0.02442 0.35275 0.0
H2827 H 0.31601 0.04619 0.36684 0.0
H2828 H 0.34519 0.04204 0.39858 0.0
H2829 H 0.34103 0.02036 0.38456 0.0
H2830 H 0.31086 0.04817 0.39948 0.0
H2831 H 0.3682 0.08425 0.38366 0.0
H2832 H 0.35665 0.06792 0.37288 0.0
H2833 H 0.36434 0.06715 0.39151 0.0
C2834 C 0.31914 0.02823 0.36265 0.0
C2835 C 0.32607 0.02072 0.36754 0.0
C2836 C 0.32157 0.04064 0.37068 0.0
C2837 C 0.33106 0.04581 0.38361 0.0
C2838 C 0.33804 0.03837 0.38845 0.0
H2839 H 0.33729 0.10107 0.46096 0.0
H2840 H 0.33366 0.08126 0.44365 0.0
C2841 C 0.33558 0.02595 0.38048 0.0
C2842 C 0.33315 0.05857 0.39257 0.0
H2843 H 0.35876 0.09216 0.40447 0.0
C2844 C 0.32131 0.05783 0.40048 0.0
C2845 C 0.34676 0.0712 0.39371 0.0
C2846 C 0.35971 0.07279 0.38488 0.0
C2847 C 0.3228 0.06926 0.40992 0.0
C2848 C 0.33652 0.08165 0.41159 0.0
C2849 C 0.34829 0.08257 0.40329 0.0
C2850 C 0.33889 0.09371 0.42205 0.0
C2851 C 0.30967 0.06801 0.418 0.0
C2852 C 0.34336 0.10735 0.41565 0.0
C2853 C 0.3454 0.11869 0.4255 0.0
C2854 C 0.3431 0.11661 0.44195 0.0
C2855 C 0.33889 0.10297 0.44832 0.0
C2856 C 0.33683 0.09164 0.43846 0.0
H2857 H 0.29955 0.05954 0.41249 0.0
H2858 H 0.30966 0.06513 0.43063 0.0
H2859 H 0.30976 0.07838 0.41758 0.0
H2860 H 0.34505 0.10915 0.403 0.0
H2861 H 0.34848 0.12899 0.42017 0.0
H2862 H 0.97967 0.32129 0.38125 0.0
H2863 H 0.95853 0.30413 0.39638 0.0
H2864 H 0.95554 0.26934 0.36802 0.0
H2865 H 0.97675 0.28645 0.3528 0.0
H2866 H 0.92838 0.26963 0.37367 0.0
H2867 H 0.95948 0.27457 0.42835 0.0
H2868 H 0.96267 0.29118 0.41964 0.0
H2869 H 0.96783 0.27996 0.40907 0.0
C2870 C 0.97448 0.30999 0.37818 0.0
C2871 C 0.9799 0.30519 0.36589 0.0
C2872 C 0.96245 0.30022 0.38686 0.0
C2873 C 0.95561 0.28549 0.3834 0.0
C2874 C 0.96074 0.28068 0.37088 0.0
H2875 H 0.89472 0.21408 0.44102 0.0
H2876 H 0.9148 0.23068 0.42428 0.0
C2877 C 0.97283 0.29045 0.36222 0.0
C2878 C 0.94326 0.27509 0.39305 0.0
H2879 H 0.9341 0.26083 0.43023 0.0
C2880 C 0.9296 0.26766 0.38603 0.0
C2881 C 0.94497 0.2725 0.40911 0.0
C2882 C 0.95953 0.27986 0.41702 0.0
C2883 C 0.9175 0.25784 0.39477 0.0
C2884 C 0.91916 0.25549 0.41093 0.0
C2885 C 0.93287 0.26275 0.41786 0.0
C2886 C 0.90683 0.2454 0.42084 0.0
C2887 C 0.90306 0.24991 0.38665 0.0
C2888 C 0.89579 0.24829 0.42456 0.0
C2889 C 0.88436 0.23891 0.43428 0.0
C2890 C 0.88379 0.22648 0.44047 0.0
C2891 C 0.89491 0.22365 0.43667 0.0
C2892 C 0.90635 0.23307 0.42701 0.0
H2893 H 0.90412 0.25065 0.37353 0.0
H2894 H 0.89727 0.2384 0.39012 0.0
H2895 H 0.89641 0.25466 0.39034 0.0
H2896 H 0.89612 0.2579 0.42012 0.0
H2897 H 0.87611 0.24153 0.43716 0.0
H2898 H 0.99495 0.34898 0.30388 0.0
H2899 H 0.99245 0.36677 0.28823 0.0
H2900 H 0.02498 0.40083 0.31678 0.0
H2901 H 0.02756 0.38309 0.33254 0.0
H2902 H 0.99901 0.40251 0.31053 0.0
H2903 H 0.02378 0.39478 0.25625 0.0
H2904 H 0.00949 0.37863 0.26489 0.0
H2905 H 0.026 0.38901 0.27563 0.0
C2906 C 0.00153 0.36025 0.30688 0.0
C2907 C 0.0115 0.36466 0.31938 0.0
C2908 C 0.00013 0.37039 0.29789 0.0
C2909 C 0.00866 0.38509 0.30125 0.0
C2910 C 0.01835 0.38952 0.31398 0.0
H2911 H 0.02319 0.45684 0.24154 0.0
H2912 H 0.02572 0.43987 0.2586 0.0
C2913 C 0.01982 0.37938 0.32295 0.0
C2914 C 0.00756 0.39584 0.29133 0.0
H2915 H 0.01327 0.40952 0.25383 0.0
C2916 C 0.00214 0.40409 0.29814 0.0
C2917 C 0.01182 0.39794 0.27524 0.0
C2918 C 0.01822 0.38973 0.26754 0.0
C2919 C 0.00062 0.41423 0.28915 0.0
C2920 C 0.00452 0.41605 0.27295 0.0
C2921 C 0.01019 0.408 0.26623 0.0
C2922 C 0.00288 0.42634 0.26275 0.0
C2923 C 0.99499 0.42304 0.29707 0.0
C2924 C 0.98918 0.42423 0.25929 0.0
C2925 C 0.98767 0.43382 0.2494 0.0
C2926 C -0.00015 0.4457 0.24277 0.0
C2927 C 0.01357 0.44771 0.24625 0.0
C2928 C 0.01505 0.43809 0.25608 0.0
H2929 H 0.99554 0.42266 0.3102 0.0
H2930 H 0.00117 0.43442 0.29317 0.0
H2931 H 0.98357 0.41873 0.29366 0.0
H2932 H 0.97964 0.41506 0.26408 0.0
H2933 H 0.97694 0.43181 0.24677 0.0
H2934 H 0.61683 0.6413 0.33534 0.0
H2935 H 0.59966 0.61976 0.32071 0.0
H2936 H 0.63454 0.62133 0.29369 0.0
H2937 H 0.65175 0.64273 0.30834 0.0
H2938 H 0.59502 0.61775 0.28811 0.0
H2939 H 0.61199 0.57933 0.30808 0.0
H2940 H 0.61724 0.59602 0.31828 0.0
H2941 H 0.6265 0.59591 0.30056 0.0
C2942 C 0.62084 0.63695 0.32641 0.0
C2943 C 0.63563 0.64367 0.32301 0.0
C2944 C 0.61103 0.62467 0.31805 0.0
C2945 C 0.61585 0.61885 0.30626 0.0
C2946 C 0.63062 0.62547 0.30296 0.0
H2947 H 0.5693 0.5648 0.22678 0.0
H2948 H 0.58517 0.58435 0.24458 0.0
C2949 C 0.64043 0.63775 0.31129 0.0
C2950 C 0.6054 0.60637 0.29676 0.0
H2951 H 0.59636 0.57231 0.28564 0.0
C2952 C 0.59523 0.60777 0.28765 0.0
C2953 C 0.60561 0.59332 0.29632 0.0
C2954 C 0.61582 0.59095 0.30644 0.0
C2955 C 0.58552 0.5966 0.27778 0.0
C2956 C 0.58615 0.58379 0.27682 0.0
C2957 C 0.59603 0.58222 0.28627 0.0
C2958 C 0.57664 0.5719 0.26605 0.0
C2959 C 0.57461 0.59858 0.26852 0.0
C2960 C 0.56685 0.55834 0.2722 0.0
C2961 C 0.55776 0.54714 0.26206 0.0
C2962 C 0.55837 0.5493 0.24557 0.0
C2963 C 0.56838 0.56286 0.23944 0.0
C2964 C 0.57746 0.57404 0.24959 0.0
H2965 H 0.57306 0.60725 0.27363 0.0
H2966 H 0.57844 0.60159 0.25614 0.0
H2967 H 0.56405 0.58847 0.26821 0.0
H2968 H 0.56609 0.55647 0.28487 0.0
H2969 H 0.55007 0.53688 0.26718 0.0
H2970 H 0.35453 0.97103 0.33197 0.0
H2971 H 0.37521 0.97438 0.31629 0.0
H2972 H 0.38063 0.01422 0.29793 0.0
H2973 H 0.35998 0.01097 0.31356 0.0
H2974 H 0.37707 0.97725 0.28227 0.0
H2975 H 0.42158 0.02422 0.31308 0.0
H2976 H 0.40426 0.01289 0.32221 0.0
H2977 H 0.40636 0.02607 0.30778 0.0
C2978 C 0.36024 0.98059 0.32475 0.0
C2979 C 0.35566 0.99075 0.32399 0.0
C2980 C 0.37202 0.98247 0.31579 0.0
C2981 C 0.37949 0.99459 0.30608 0.0
C2982 C 0.37512 0.00489 0.30553 0.0
H2983 H 0.43535 0.00712 0.22598 0.0
H2984 H 0.41626 0.00498 0.24371 0.0
C2985 C 0.3633 0.00299 0.31442 0.0
C2986 C 0.39133 0.99606 0.29582 0.0
H2987 H 0.42736 0.01707 0.28882 0.0
C2988 C 0.38808 0.98593 0.28371 0.0
C2989 C 0.40566 0.00734 0.29784 0.0
C2990 C 0.40977 0.01821 0.311 0.0
C2991 C 0.39878 0.98691 0.27337 0.0
C2992 C 0.41304 0.99837 0.27516 0.0
C2993 C 0.41636 0.00837 0.28743 0.0
C2994 C 0.42472 0.0 0.26451 0.0
C2995 C 0.39479 0.9756 0.26071 0.0
C2996 C 0.43589 0.99817 0.27044 0.0
C2997 C 0.44679 0.9994 0.26038 0.0
C2998 C 0.44677 0.00262 0.24422 0.0
C2999 C 0.43568 0.0047 0.23838 0.0
C3000 C 0.42473 0.00338 0.24845 0.0
H3001 H 0.38407 0.966 0.26292 0.0
H3002 H 0.39445 0.98019 0.24905 0.0
H3003 H 0.40296 0.97216 0.26 0.0
H3004 H 0.43608 0.99563 0.28284 0.0
H3005 H 0.4553 0.99794 0.26526 0.0
H3006 H 0.65213 0.00199 0.30044 0.0
H3007 H 0.63452 0.00485 0.28481 0.0
H3008 H 0.602 0.9812 0.32002 0.0
H3009 H 0.61955 0.97825 0.33576 0.0
H3010 H 0.60714 0.98099 0.27328 0.0
H3011 H 0.60065 0.01912 0.31236 0.0
H3012 H 0.61616 0.01676 0.31343 0.0
H3013 H 0.59929 0.00344 0.32171 0.0
C3014 C 0.64126 0.99749 0.30493 0.0
C3015 C 0.63721 0.98992 0.31934 0.0
C3016 C 0.63122 0.99912 0.29597 0.0
C3017 C 0.61703 0.99334 0.30134 0.0
C3018 C 0.61297 0.98589 0.3158 0.0
H3019 H 0.54188 0.99294 0.26276 0.0
H3020 H 0.559 0.99009 0.27922 0.0
C3021 C 0.62298 0.98418 0.32473 0.0
C3022 C 0.60635 0.99462 0.29147 0.0
H3023 H 0.58548 0.01028 0.28996 0.0
C3024 C 0.60241 0.98741 0.27688 0.0
C3025 C 0.60016 0.00293 0.29631 0.0
C3026 C 0.60431 0.01111 0.31175 0.0
C3027 C 0.59229 0.98816 0.267 0.0
C3028 C 0.58625 0.99666 0.2717 0.0
C3029 C 0.59015 0.0038 0.28637 0.0
C3030 C 0.57588 0.9983 0.26156 0.0
C3031 C 0.58793 0.97957 0.25181 0.0
C3032 C 0.57974 0.00401 0.24622 0.0
C3033 C 0.56991 0.00547 0.23668 0.0
C3034 C 0.55607 0.00141 0.24237 0.0
C3035 C 0.55234 0.99592 0.25787 0.0
C3036 C 0.56215 0.99439 0.26736 0.0
H3037 H 0.59024 0.97059 0.25222 0.0
H3038 H 0.57629 0.97507 0.24936 0.0
H3039 H 0.59414 0.98669 0.24181 0.0
H3040 H 0.59039 0.00738 0.24162 0.0
H3041 H 0.57312 0.00964 0.22479 0.0
H3042 H 0.99402 0.64572 0.30619 0.0
H3043 H 0.99149 0.62514 0.29109 0.0
H3044 H 0.02546 0.62543 0.31864 0.0
H3045 H 0.02816 0.64614 0.33372 0.0
H3046 H 0.02876 0.62405 0.28587 0.0
H3047 H 0.9739 0.58314 0.30532 0.0
H3048 H 0.97513 0.59938 0.29791 0.0
H3049 H 0.98458 0.59991 0.31572 0.0
C3050 C 0.00087 0.64132 0.30913 0.0
C3051 C 0.01126 0.64751 0.32116 0.0
C3052 C 0.99935 0.62952 0.30055 0.0
C3053 C 0.00816 0.62365 0.3039 0.0
C3054 C 0.01852 0.62976 0.31594 0.0
H3055 H 0.99694 0.54342 0.26557 0.0
H3056 H 0.99952 0.56279 0.28298 0.0
C3057 C 0.02002 0.64157 0.32455 0.0
C3058 C 0.00698 0.61154 0.29433 0.0
H3059 H 0.98355 0.57696 0.2832 0.0
C3060 C 0.01891 0.61372 0.28535 0.0
C3061 C 0.99416 0.59804 0.29383 0.0
C3062 C 0.98124 0.59488 0.30382 0.0
C3063 C 0.01827 0.60285 0.27555 0.0
C3064 C 0.00527 0.58954 0.27457 0.0
C3065 C 0.99345 0.58724 0.28386 0.0
C3066 C 0.00372 0.57787 0.26396 0.0
C3067 C 0.03153 0.60566 0.26644 0.0
C3068 C 0.00504 0.57988 0.24748 0.0
C3069 C 0.0035 0.56882 0.23749 0.0
C3070 C 0.00052 0.55549 0.24379 0.0
C3071 C 0.99906 0.55348 0.26031 0.0
C3072 C 0.00061 0.56456 0.27029 0.0
H3073 H 0.04144 0.61477 0.27156 0.0
H3074 H 0.03272 0.59598 0.26627 0.0
H3075 H 0.03055 0.60843 0.25401 0.0
H3076 H 0.00713 0.58998 0.24234 0.0
H3077 H 0.00444 0.57064 0.22481 0.0
H3078 H 0.34853 0.35036 0.29924 0.0
H3079 H 0.36971 0.36773 0.28434 0.0
H3080 H 0.38489 0.39557 0.32517 0.0
H3081 H 0.36361 0.37826 0.34021 0.0
H3082 H 0.37858 0.39994 0.28112 0.0
H3083 H 0.41893 0.38825 0.30834 0.0
H3084 H 0.39998 0.37499 0.30776 0.0
H3085 H 0.40635 0.38997 0.32104 0.0
C3086 C 0.35639 0.36015 0.30509 0.0
C3087 C 0.35443 0.36296 0.32089 0.0
C3088 C 0.36846 0.37004 0.29656 0.0
C3089 C 0.37884 0.38284 0.30372 0.0
C3090 C 0.377 0.38568 0.31952 0.0
H3091 H 0.46059 0.45065 0.26632 0.0
H3092 H 0.44052 0.43481 0.28362 0.0
C3093 C 0.36485 0.37582 0.32805 0.0
C3094 C 0.39137 0.39334 0.29442 0.0
H3095 H 0.42715 0.4059 0.28838 0.0
C3096 C 0.38923 0.40131 0.2827 0.0
C3097 C 0.4052 0.39512 0.29668 0.0
C3098 C 0.40788 0.38663 0.30908 0.0
C3099 C 0.40061 0.41105 0.27308 0.0
C3100 C 0.41439 0.41251 0.27495 0.0
C3101 C 0.41657 0.40471 0.28691 0.0
C3102 C 0.42662 0.42193 0.26447 0.0
C3103 C 0.39779 0.41982 0.26116 0.0
C3104 C 0.42557 0.41975 0.248 0.0
C3105 C 0.43698 0.4288 0.2381 0.0
C3106 C 0.44975 0.44007 0.24452 0.0
C3107 C 0.45092 0.44199 0.26105 0.0
C3108 C 0.43945 0.43299 0.27094 0.0
H3109 H 0.38824 0.4207 0.26449 0.0
H3110 H 0.40722 0.43082 0.26001 0.0
H3111 H 0.39562 0.41449 0.24941 0.0
H3112 H 0.41592 0.41102 0.24279 0.0
H3113 H 0.43586 0.42692 0.22543 0.0
H3114 H 0.34937 0.32111 0.37213 0.0
H3115 H 0.35473 0.30446 0.38626 0.0
H3116 H 0.31281 0.26922 0.37391 0.0
H3117 H 0.30755 0.28574 0.3594 0.0
H3118 H 0.34093 0.28853 0.41167 0.0
H3119 H 0.33791 0.25245 0.36305 0.0
H3120 H 0.33884 0.26944 0.35941 0.0
H3121 H 0.32196 0.25381 0.36449 0.0
C3122 C 0.34138 0.30977 0.37224 0.0
C3123 C 0.32806 0.30471 0.36463 0.0
C3124 C 0.34445 0.30028 0.38032 0.0
C3125 C 0.33426 0.28556 0.38096 0.0
C3126 C 0.32099 0.28046 0.37324 0.0
H3127 H 0.32246 0.2135 0.43682 0.0
H3128 H 0.32024 0.23056 0.41949 0.0
C3129 C 0.31796 0.28993 0.36504 0.0
C3130 C 0.33711 0.27573 0.39062 0.0
H3131 H 0.33744 0.24411 0.3895 0.0
C3132 C 0.34034 0.27891 0.40677 0.0
C3133 C 0.33633 0.26318 0.38422 0.0
C3134 C 0.33372 0.25958 0.36681 0.0
C3135 C 0.34241 0.26968 0.41677 0.0
C3136 C 0.34128 0.25699 0.41043 0.0
C3137 C 0.33824 0.25386 0.39428 0.0
C3138 C 0.34282 0.24664 0.42056 0.0
C3139 C 0.34542 0.27333 0.43413 0.0
C3140 C 0.35629 0.25003 0.42673 0.0
C3141 C 0.3576 0.24031 0.43662 0.0
C3142 C 0.34543 0.22709 0.44054 0.0
C3143 C 0.33198 0.22369 0.43418 0.0
C3144 C 0.33071 0.23336 0.42421 0.0
H3145 H 0.34388 0.28245 0.43761 0.0
H3146 H 0.33829 0.26385 0.44153 0.0
H3147 H 0.35671 0.27632 0.43676 0.0
H3148 H 0.36577 0.26022 0.42394 0.0
H3149 H 0.36807 0.24324 0.44141 0.0
H3150 H 0.67811 0.02521 0.37434 0.0
H3151 H 0.69461 0.0473 0.38849 0.0
H3152 H 0.73066 0.04346 0.37223 0.0
H3153 H 0.71425 0.0216 0.35768 0.0
H3154 H 0.71239 0.05044 0.41237 0.0
H3155 H 0.7445 0.08499 0.36235 0.0
H3156 H 0.72785 0.06834 0.35941 0.0
H3157 H 0.74435 0.06824 0.36286 0.0
C3158 C 0.68957 0.02918 0.37362 0.0
C3159 C 0.69491 0.02172 0.36486 0.0
C3160 C 0.69898 0.04179 0.38172 0.0
C3161 C 0.71389 0.04717 0.38123 0.0
C3162 C 0.71924 0.03974 0.37244 0.0
H3163 H 0.78662 0.10906 0.43539 0.0
H3164 H 0.7694 0.08934 0.41854 0.0
C3165 C 0.70984 0.0272 0.36423 0.0
C3166 C 0.72375 0.06004 0.39067 0.0
H3167 H 0.75413 0.09307 0.38837 0.0
C3168 C 0.72141 0.05982 0.40709 0.0
C3169 C 0.73552 0.0723 0.38376 0.0
C3170 C 0.73813 0.07357 0.36611 0.0
C3171 C 0.73074 0.07135 0.41681 0.0
C3172 C 0.74268 0.08338 0.40994 0.0
C3173 C 0.74496 0.08374 0.39355 0.0
C3174 C 0.75312 0.09554 0.41975 0.0
C3175 C 0.72801 0.07051 0.43443 0.0
C3176 C 0.74963 0.10556 0.42584 0.0
C3177 C 0.75944 0.11685 0.43543 0.0
C3178 C 0.77284 0.1182 0.43915 0.0
C3179 C 0.77631 0.10818 0.43289 0.0
C3180 C 0.76655 0.09698 0.4232 0.0
H3181 H 0.71908 0.05982 0.43812 0.0
H3182 H 0.7379 0.07281 0.441 0.0
H3183 H 0.72523 0.0788 0.43788 0.0
H3184 H 0.7393 0.10459 0.42324 0.0
H3185 H 0.75645 0.12435 0.44018 0.0
H3186 H 0.9788 0.65659 0.38106 0.0
H3187 H 0.95739 0.65154 0.39635 0.0
H3188 H 0.95452 0.68478 0.37085 0.0
H3189 H 0.97586 0.6898 0.35539 0.0
H3190 H 0.95452 0.67093 0.41592 0.0
H3191 H 0.91336 0.65031 0.36823 0.0
H3192 H 0.93073 0.65168 0.36596 0.0
H3193 H 0.92899 0.66738 0.364 0.0
C3194 C 0.97352 0.66272 0.37859 0.0
C3195 C 0.97898 0.67357 0.36701 0.0
C3196 C 0.96131 0.65983 0.38734 0.0
C3197 C 0.95429 0.66767 0.38461 0.0
C3198 C 0.95962 0.67842 0.37294 0.0
H3199 H 0.89725 0.67936 0.44747 0.0
H3200 H 0.91721 0.6821 0.43094 0.0
C3201 C 0.97185 0.68132 0.36417 0.0
C3202 C 0.94185 0.66512 0.39456 0.0
H3203 H 0.90632 0.65534 0.39309 0.0
C3204 C 0.94396 0.66746 0.41095 0.0
C3205 C 0.92807 0.66045 0.38804 0.0
C3206 C 0.92506 0.65717 0.37061 0.0
C3207 C 0.9327 0.66553 0.42099 0.0
C3208 C 0.91905 0.66133 0.4144 0.0
C3209 C 0.91685 0.65869 0.39806 0.0
C3210 C 0.90692 0.65966 0.42431 0.0
C3211 C 0.93547 0.66789 0.43857 0.0
C3212 C 0.89442 0.64619 0.42579 0.0
C3213 C 0.88296 0.6446 0.43516 0.0
C3214 C 0.88376 0.6565 0.44308 0.0
C3215 C 0.89627 0.67001 0.44143 0.0
C3216 C 0.90773 0.67157 0.43212 0.0
H3217 H 0.94529 0.66761 0.44212 0.0
H3218 H 0.93703 0.67859 0.44179 0.0
H3219 H 0.92618 0.65963 0.44545 0.0
H3220 H 0.89357 0.63689 0.41977 0.0
H3221 H 0.8734 0.63409 0.43601 0.0
H3222 H 0.38262 0.0309 0.69227 0.0
H3223 H 0.40033 0.02795 0.70768 0.0
H3224 H 0.36673 0.98691 0.7246 0.0
H3225 H 0.3489 0.98982 0.70937 0.0
H3226 H 0.39619 0.02129 0.744 0.0
H3227 H 0.40169 0.9819 0.70596 0.0
H3228 H 0.39647 0.99422 0.69799 0.0
H3229 H 0.38391 0.97911 0.70953 0.0
C3230 C 0.37902 0.02119 0.69916 0.0
C3231 C 0.36439 0.01059 0.69964 0.0
C3232 C 0.38914 0.01954 0.70794 0.0
C3233 C 0.38479 0.00719 0.71716 0.0
C3234 C 0.37025 0.99646 0.71743 0.0
H3235 H 0.42982 0.97721 0.77744 0.0
H3236 H 0.41241 0.97944 0.76068 0.0
C3237 C 0.36011 0.99816 0.70877 0.0
C3238 C 0.39535 0.00586 0.72715 0.0
H3239 H 0.41427 0.98824 0.73024 0.0
C3240 C 0.40022 0.01412 0.74101 0.0
C3241 C 0.40037 0.99637 0.72322 0.0
C3242 C 0.39545 0.98739 0.70834 0.0
C3243 C 0.40993 0.01302 0.75123 0.0
C3244 C 0.4152 0.00371 0.74718 0.0
C3245 C 0.41026 0.99541 0.73329 0.0
C3246 C 0.42582 0.00239 0.75722 0.0
C3247 C 0.41413 0.02157 0.76644 0.0
C3248 C 0.43922 0.01451 0.76064 0.0
C3249 C 0.44911 0.01327 0.7703 0.0
C3250 C 0.44589 -0.00015 0.7765 0.0
C3251 C 0.43261 0.98767 0.77277 0.0
C3252 C 0.42266 0.98894 0.76323 0.0
H3253 H 0.40607 0.02467 0.76996 0.0
H3254 H 0.41532 0.0154 0.7763 0.0
H3255 H 0.42459 0.0316 0.76473 0.0
H3256 H 0.44206 0.02492 0.75577 0.0
H3257 H 0.45937 0.02279 0.77273 0.0
H3258 H 0.0104 0.35805 0.70926 0.0
H3259 H 0.01405 0.37895 0.72458 0.0
H3260 H 0.97313 0.37247 0.70833 0.0
H3261 H 0.9696 0.35179 0.6926 0.0
H3262 H 0.99379 0.40066 0.70777 0.0
H3263 H 0.99425 0.37693 0.76598 0.0
H3264 H 0.00759 0.37779 0.75249 0.0
H3265 H 0.9888 0.36651 0.74794 0.0
C3266 C 0.00221 0.36112 0.70891 0.0
C3267 C 0.98967 0.35324 0.69983 0.0
C3268 C 0.00426 0.37299 0.71776 0.0
C3269 C 0.99371 0.37707 0.71789 0.0
C3270 C 0.98136 0.36945 0.70848 0.0
H3271 H 0.97995 0.43817 0.77093 0.0
H3272 H 0.9778 0.41868 0.75392 0.0
C3273 C 0.97936 0.35765 0.69951 0.0
C3274 C 0.99552 0.38924 0.72785 0.0
H3275 H 0.00056 0.40151 0.76602 0.0
C3276 C 0.99522 0.40082 0.72051 0.0
C3277 C 0.99731 0.3894 0.7445 0.0
C3278 C 0.99687 0.37693 0.75323 0.0
C3279 C 0.99685 0.41262 0.72935 0.0
C3280 C 0.99881 0.41281 0.74591 0.0
C3281 C 0.99915 0.40131 0.75328 0.0
C3282 C 0.00022 0.42476 0.75587 0.0
C3283 C 0.99661 0.42488 0.72097 0.0
C3284 C 0.01353 0.4345 0.76265 0.0
C3285 C 0.0148 0.44564 0.77233 0.0
C3286 C 0.00273 0.44709 0.77554 0.0
C3287 C 0.9894 0.43724 0.76877 0.0
C3288 C 0.98817 0.42619 0.75898 0.0
H3289 H 0.99717 0.42411 0.70788 0.0
H3290 H 0.9865 0.4248 0.72399 0.0
H3291 H 0.00575 0.43533 0.72498 0.0
H3292 H 0.02292 0.43347 0.76043 0.0
H3293 H 0.02517 0.45299 0.77751 0.0
H3294 H 0.64913 0.65336 0.71913 0.0
H3295 H 0.62818 0.63625 0.7345 0.0
H3296 H 0.61887 0.60344 0.6995 0.0
H3297 H 0.64003 0.62042 0.68423 0.0
H3298 H 0.59963 0.62123 0.72677 0.0
H3299 H 0.61958 0.58367 0.74014 0.0
H3300 H 0.63102 0.60136 0.73201 0.0
H3301 H 0.6189 0.58684 0.71935 0.0
C3302 C 0.64262 0.6425 0.7147 0.0
C3303 C 0.64626 0.63819 0.70053 0.0
C3304 C 0.63065 0.63274 0.7235 0.0
C3305 C 0.62211 0.6185 0.7183 0.0
C3306 C 0.62551 0.61427 0.70393 0.0
H3307 H 0.54496 0.54514 0.75585 0.0
H3308 H 0.56511 0.56199 0.73934 0.0
C3309 C 0.63754 0.62401 0.69517 0.0
C3310 C 0.60962 0.60816 0.72791 0.0
H3311 H 0.59554 0.57618 0.74764 0.0
C3312 C 0.59875 0.6114 0.73137 0.0
C3313 C 0.60851 0.59535 0.73394 0.0
C3314 C 0.62018 0.59163 0.73132 0.0
C3315 C 0.58674 0.6021 0.74055 0.0
C3316 C 0.58564 0.58931 0.74651 0.0
C3317 C 0.59643 0.58601 0.74299 0.0
C3318 C 0.5734 0.57923 0.75653 0.0
C3319 C 0.5752 0.60591 0.74363 0.0
C3320 C 0.5715 0.58332 0.77173 0.0
C3321 C 0.56009 0.57367 0.78129 0.0
C3322 C 0.55036 0.55973 0.77582 0.0
C3323 C 0.55235 0.5557 0.76055 0.0
C3324 C 0.5638 0.56533 0.75104 0.0
H3325 H 0.57611 0.61446 0.73549 0.0
H3326 H 0.56433 0.59631 0.7423 0.0
H3327 H 0.57622 0.60988 0.75597 0.0
H3328 H 0.57896 0.59393 0.77627 0.0
H3329 H 0.55904 0.57706 0.79307 0.0
H3330 H 0.68897 0.71399 0.6659 0.0
H3331 H 0.68428 0.73047 0.65038 0.0
H3332 H 0.65237 0.69476 0.62307 0.0
H3333 H 0.6571 0.67825 0.63839 0.0
H3334 H 0.67213 0.71756 0.60456 0.0
H3335 H 0.6494 0.73647 0.65168 0.0
H3336 H 0.66649 0.73818 0.65652 0.0
H3337 H 0.65102 0.72063 0.65386 0.0
C3338 C 0.68085 0.70964 0.65669 0.0
C3339 C 0.67338 0.69483 0.65337 0.0
C3340 C 0.67814 0.71905 0.64789 0.0
C3341 C 0.66786 0.71381 0.63571 0.0
C3342 C 0.6603 0.69901 0.63247 0.0
H3343 H 0.63446 0.76092 0.58401 0.0
H3344 H 0.63728 0.74359 0.60021 0.0
C3345 C 0.663 0.6896 0.64125 0.0
C3346 C 0.66547 0.72379 0.62578 0.0
H3347 H 0.65502 0.74901 0.62712 0.0
C3348 C 0.66834 0.7244 0.60947 0.0
C3349 C 0.66038 0.73258 0.6322 0.0
C3350 C 0.65651 0.73188 0.6495 0.0
C3351 C 0.66649 0.73377 0.59945 0.0
C3352 C 0.66184 0.74289 0.60596 0.0
C3353 C 0.65871 0.74208 0.62221 0.0
C3354 C 0.66017 0.75334 0.59607 0.0
C3355 C 0.66937 0.7337 0.58194 0.0
C3356 C 0.67214 0.76461 0.58849 0.0
C3357 C 0.67055 0.77447 0.57918 0.0
C3358 C 0.65697 0.77328 0.57731 0.0
C3359 C 0.64502 0.76201 0.58502 0.0
C3360 C 0.64663 0.75217 0.59437 0.0
H3361 H 0.66929 0.72372 0.57831 0.0
H3362 H 0.66125 0.73474 0.57481 0.0
H3363 H 0.68014 0.74296 0.57913 0.0
H3364 H 0.68272 0.76582 0.58985 0.0
H3365 H 0.67995 0.78296 0.57331 0.0
H3366 H 0.32055 0.98046 0.6377 0.0
H3367 H 0.30341 0.95896 0.62311 0.0
H3368 H 0.26997 0.95225 0.65621 0.0
H3369 H 0.28704 0.9739 0.67078 0.0
H3370 H 0.28648 0.93021 0.63314 0.0
H3371 H 0.25299 0.95325 0.61284 0.0
H3372 H 0.2707 0.96417 0.62123 0.0
H3373 H 0.25557 0.95353 0.6339 0.0
C3374 C 0.30956 0.97438 0.64192 0.0
C3375 C 0.3051 0.97891 0.65532 0.0
C3376 C 0.2998 0.9621 0.63358 0.0
C3377 C 0.28539 0.95414 0.63846 0.0
C3378 C 0.28099 0.95839 0.6521 0.0
H3379 H 0.22035 0.87049 0.60193 0.0
H3380 H 0.23724 0.89019 0.61896 0.0
C3381 C 0.29076 0.97071 0.66044 0.0
C3382 C 0.27499 0.94156 0.62904 0.0
H3383 H 0.24494 0.92907 0.60599 0.0
C3384 C 0.27736 0.92991 0.62725 0.0
C3385 C 0.26321 0.94131 0.62123 0.0
C3386 C 0.26047 0.95377 0.62224 0.0
C3387 C 0.2682 0.91799 0.61788 0.0
C3388 C 0.25637 0.9177 0.61021 0.0
C3389 C 0.254 0.92933 0.61198 0.0
C3390 C 0.24653 0.90561 0.59989 0.0
C3391 C 0.27142 0.90592 0.61592 0.0
C3392 C 0.24615 0.90781 0.58357 0.0
C3393 C 0.23662 0.89657 0.57378 0.0
C3394 C 0.22716 0.88292 0.58016 0.0
C3395 C 0.22763 0.88077 0.59656 0.0
C3396 C 0.23723 0.89202 0.60633 0.0
H3397 H 0.28232 0.90892 0.62031 0.0
H3398 H 0.2634 0.89641 0.62269 0.0
H3399 H 0.27057 0.90275 0.60326 0.0
H3400 H 0.25326 0.91825 0.5784 0.0
H3401 H 0.23671 0.89856 0.56119 0.0
H3402 H 0.02601 0.31401 0.66883 0.0
H3403 H 0.04749 0.31904 0.65364 0.0
H3404 H 0.03941 0.3452 0.62121 0.0
H3405 H 0.01786 0.34011 0.63623 0.0
H3406 H 0.04435 0.32491 0.60629 0.0
H3407 H 0.08669 0.35628 0.65087 0.0
H3408 H 0.07248 0.33927 0.65789 0.0
H3409 H 0.06856 0.35313 0.65254 0.0
C3410 C 0.02889 0.32094 0.65855 0.0
C3411 C 0.02027 0.32668 0.65372 0.0
C3412 C 0.0412 0.32387 0.64994 0.0
C3413 C 0.04513 0.33264 0.63642 0.0
C3414 C 0.0366 0.33847 0.63166 0.0
H3415 H 0.12418 0.36627 0.58143 0.0
H3416 H 0.10422 0.3635 0.59804 0.0
C3417 C 0.0243 0.33556 0.64026 0.0
C3418 C 0.05766 0.33508 0.6267 0.0
H3419 H 0.09405 0.34894 0.62775 0.0
C3420 C 0.05523 0.33022 0.61095 0.0
C3421 C 0.07184 0.34214 0.63279 0.0
C3422 C 0.07513 0.34814 0.6494 0.0
C3423 C 0.06658 0.33197 0.60119 0.0
C3424 C 0.0807 0.33861 0.60743 0.0
C3425 C 0.08319 0.34374 0.62307 0.0
C3426 C 0.09299 0.34026 0.59784 0.0
C3427 C 0.0634 0.32684 0.58423 0.0
C3428 C 0.09339 0.32811 0.5925 0.0
C3429 C 0.10479 0.32964 0.58309 0.0
C3430 C 0.11604 0.34338 0.57888 0.0
C3431 C 0.11575 0.35555 0.58455 0.0
C3432 C 0.10433 0.35399 0.59398 0.0
H3433 H 0.05285 0.32527 0.58023 0.0
H3434 H 0.07193 0.3346 0.57615 0.0
H3435 H 0.06307 0.31639 0.58322 0.0
H3436 H 0.08487 0.31742 0.59562 0.0
H3437 H 0.10483 0.32005 0.57921 0.0
H3438 H 0.31921 0.34604 0.64556 0.0
H3439 H 0.30234 0.35059 0.63069 0.0
H3440 H 0.26732 0.30922 0.64496 0.0
H3441 H 0.28409 0.3048 0.66024 0.0
H3442 H 0.28605 0.33581 0.60587 0.0
H3443 H 0.25062 0.33464 0.65437 0.0
H3444 H 0.26768 0.33571 0.65808 0.0
H3445 H 0.25199 0.31869 0.65361 0.0
C3446 C 0.30788 0.338 0.64569 0.0
C3447 C 0.30294 0.32509 0.65411 0.0
C3448 C 0.29826 0.3406 0.63718 0.0
C3449 C 0.28353 0.33034 0.63688 0.0
C3450 C 0.27857 0.31746 0.64534 0.0
H3451 H 0.21156 0.31939 0.58021 0.0
H3452 H 0.22836 0.31635 0.59721 0.0
C3453 C 0.28817 0.3149 0.65398 0.0
C3454 C 0.27354 0.3328 0.62699 0.0
H3455 H 0.24224 0.33383 0.62795 0.0
C3456 C 0.27654 0.3355 0.61074 0.0
C3457 C 0.26113 0.3324 0.63335 0.0
C3458 C 0.25772 0.33035 0.65084 0.0
C3459 C 0.26734 0.33754 0.60064 0.0
C3460 C 0.25484 0.33688 0.60696 0.0
C3461 C 0.25183 0.33426 0.62318 0.0
C3462 C 0.24473 0.33882 0.59682 0.0
C3463 C 0.27085 0.34015 0.58321 0.0
C3464 C 0.24842 0.35249 0.59111 0.0
C3465 C 0.23885 0.35427 0.58144 0.0
C3466 C 0.22549 0.34239 0.57727 0.0
C3467 C 0.22185 0.32871 0.58307 0.0
C3468 C 0.23137 0.32696 0.59284 0.0
H3469 H 0.27991 0.33847 0.57982 0.0
H3470 H 0.26127 0.3329 0.576 0.0
H3471 H 0.27387 0.35138 0.58027 0.0
H3472 H 0.25869 0.36176 0.59414 0.0
H3473 H 0.24198 0.36491 0.57707 0.0
H3474 H 0.69349 0.97894 0.66332 0.0
H3475 H 0.68883 0.9578 0.64771 0.0
H3476 H 0.65294 0.958 0.62504 0.0
H3477 H 0.65758 0.97918 0.6405 0.0
H3478 H 0.66337 0.93021 0.64532 0.0
H3479 H 0.67883 0.95941 0.58787 0.0
H3480 H 0.68335 0.96857 0.60675 0.0
H3481 H 0.66544 0.96108 0.59896 0.0
C3482 C 0.68456 0.97444 0.65506 0.0
C3483 C 0.67595 0.98076 0.65305 0.0
C3484 C 0.68192 0.96237 0.64617 0.0
C3485 C 0.67068 0.95649 0.63508 0.0
C3486 C 0.66182 0.96254 0.63336 0.0
H3487 H 0.63576 0.87456 0.58569 0.0
H3488 H 0.6391 0.89481 0.60214 0.0
C3489 C 0.66444 0.97459 0.64225 0.0
C3490 C 0.66837 0.94416 0.62514 0.0
H3491 H 0.66909 0.9342 0.58685 0.0
C3492 C 0.66461 0.93105 0.63254 0.0
C3493 C 0.67017 0.94539 0.60849 0.0
C3494 C 0.67479 0.95939 0.60001 0.0
C3495 C 0.66242 0.91905 0.62368 0.0
C3496 C 0.66392 0.9202 0.60701 0.0
C3497 C 0.66784 0.93335 0.59963 0.0
C3498 C 0.66182 0.90797 0.59702 0.0
C3499 C 0.65877 0.90531 0.63222 0.0
C3500 C 0.67342 0.90883 0.58846 0.0
C3501 C 0.67154 0.89733 0.57901 0.0
C3502 C 0.65797 0.88482 0.57784 0.0
C3503 C 0.64632 0.88409 0.58627 0.0
C3504 C 0.64823 0.89557 0.59579 0.0
H3505 H 0.66101 0.90708 0.64513 0.0
H3506 H 0.64715 0.89746 0.63066 0.0
H3507 H 0.66496 0.90048 0.62723 0.0
H3508 H 0.68397 0.91836 0.58918 0.0
H3509 H 0.68068 0.89829 0.57249 0.0
H3510 H 0.01945 0.67926 0.63881 0.0
H3511 H 0.04107 0.69633 0.6243 0.0
H3512 H 0.04547 0.73067 0.65457 0.0
H3513 H 0.02377 0.71367 0.66909 0.0
H3514 H 0.04714 0.73683 0.62198 0.0
H3515 H 0.08346 0.71611 0.63849 0.0
H3516 H 0.0663 0.70269 0.63086 0.0
H3517 H 0.06717 0.71147 0.6493 0.0
C3518 C 0.02509 0.69043 0.64247 0.0
C3519 C 0.01994 0.69514 0.6551 0.0
C3520 C 0.03748 0.70014 0.63423 0.0
C3521 C 0.04496 0.71472 0.6385 0.0
C3522 C 0.03989 0.71944 0.65116 0.0
H3523 H 0.12807 0.78063 0.60212 0.0
H3524 H 0.10813 0.76395 0.61904 0.0
C3525 C 0.02751 0.70972 0.65944 0.0
C3526 C 0.05764 0.72515 0.62923 0.0
H3527 H 0.09134 0.73325 0.61755 0.0
C3528 C 0.05684 0.73611 0.62107 0.0
C3529 C 0.07031 0.72425 0.62821 0.0
C3530 C 0.07198 0.71308 0.63729 0.0
C3531 C 0.06827 0.746 0.6116 0.0
C3532 C 0.08074 0.74477 0.61012 0.0
C3533 C 0.08169 0.73405 0.61859 0.0
C3534 C 0.09289 0.75454 0.5998 0.0
C3535 C 0.06697 0.75774 0.60334 0.0
C3536 C 0.09098 0.75456 0.58336 0.0
C3537 C 0.10236 0.76399 0.57365 0.0
C3538 C 0.1159 0.77357 0.5802 0.0
C3539 C 0.11784 0.77331 0.59667 0.0
C3540 C 0.10644 0.76384 0.60637 0.0
H3541 H 0.0584 0.75932 0.60868 0.0
H3542 H 0.0773 0.76808 0.6038 0.0
H3543 H 0.0642 0.75478 0.5907 0.0
H3544 H 0.08066 0.74725 0.57803 0.0
H3545 H 0.10057 0.76372 0.56098 0.0
H3546 H 0.01035 0.65353 0.71028 0.0
H3547 H 0.01455 0.63647 0.72521 0.0
H3548 H 0.97431 0.60149 0.70809 0.0
H3549 H 0.97025 0.61845 0.69279 0.0
H3550 H 0.9987 0.61902 0.7489 0.0
H3551 H 0.00102 0.58608 0.69966 0.0
H3552 H 0.00188 0.60309 0.69639 0.0
H3553 H 0.98481 0.58703 0.6995 0.0
C3554 C 0.00248 0.64218 0.70955 0.0
C3555 C 0.99 0.63731 0.70031 0.0
C3556 C 0.00489 0.63245 0.7181 0.0
C3557 C 0.99486 0.61767 0.71758 0.0
C3558 C 0.98238 0.61279 0.70835 0.0
H3559 H 0.98096 0.54432 0.77295 0.0
H3560 H 0.979 0.56179 0.75603 0.0
C3561 C 0.98003 0.6225 0.69969 0.0
C3562 C 0.99708 0.60749 0.72737 0.0
H3563 H 0.9987 0.57654 0.72579 0.0
C3564 C 0.99884 0.60982 0.74382 0.0
C3565 C 0.99729 0.59548 0.72073 0.0
C3566 C 0.99629 0.59283 0.70308 0.0
C3567 C 0.00046 0.60029 0.75381 0.0
C3568 C 0.00032 0.58816 0.74719 0.0
C3569 C 0.99871 0.58586 0.73078 0.0
C3570 C 0.00164 0.57764 0.75723 0.0
C3571 C 0.00203 0.60305 0.77143 0.0
C3572 C 0.01505 0.58081 0.76336 0.0
C3573 C 0.01622 0.57087 0.77299 0.0
C3574 C 0.00397 0.55763 0.7767 0.0
C3575 C 0.99055 0.5545 0.77046 0.0
C3576 C 0.98942 0.5644 0.76073 0.0
H3577 H 0.00053 0.61219 0.77488 0.0
H3578 H 0.99407 0.59329 0.77792 0.0
H3579 H 0.01293 0.60549 0.77522 0.0
H3580 H 0.02459 0.591 0.76072 0.0
H3581 H 0.02667 0.5736 0.77772 0.0
H3582 H 0.34581 0.35084 0.71821 0.0
H3583 H 0.36289 0.37197 0.73331 0.0
H3584 H 0.39596 0.38056 0.69886 0.0
H3585 H 0.37898 0.3592 0.68385 0.0
H3586 H 0.40535 0.3821 0.72916 0.0
H3587 H 0.37792 0.41397 0.72373 0.0
H3588 H 0.36645 0.39631 0.73158 0.0
H3589 H 0.37316 0.39835 0.71163 0.0
C3590 C 0.35669 0.35729 0.71378 0.0
C3591 C 0.36105 0.3534 0.69982 0.0
C3592 C 0.36641 0.36942 0.72237 0.0
C3593 C 0.38063 0.378 0.71706 0.0
C3594 C 0.38501 0.37414 0.70311 0.0
H3595 H 0.45484 0.45466 0.75493 0.0
H3596 H 0.43817 0.43451 0.7383 0.0
C3597 C 0.3753 0.36195 0.69454 0.0
C3598 C 0.39107 0.3906 0.72645 0.0
H3599 H 0.39674 0.42208 0.74292 0.0
C3600 C 0.40354 0.39091 0.73205 0.0
C3601 C 0.38867 0.40208 0.73021 0.0
C3602 C 0.3759 0.40277 0.72385 0.0
C3603 C 0.4135 0.40221 0.74162 0.0
C3604 C 0.41096 0.41353 0.74558 0.0
C3605 C 0.39858 0.41331 0.7399 0.0
C3606 C 0.42105 0.42569 0.75566 0.0
C3607 C 0.42651 0.40184 0.74773 0.0
C3608 C 0.41683 0.42748 0.77083 0.0
C3609 C 0.42637 0.43891 0.78044 0.0
C3610 C 0.44026 0.44884 0.77497 0.0
C3611 C 0.44434 0.44707 0.75965 0.0
C3612 C 0.43482 0.4356 0.75009 0.0
H3613 H 0.4255 0.3911 0.74612 0.0
H3614 H 0.4362 0.40986 0.7412 0.0
H3615 H 0.42821 0.4047 0.76051 0.0
H3616 H 0.40622 0.41992 0.7753 0.0
H3617 H 0.42292 0.43984 0.79223 0.0
H3618 H 0.64993 0.99699 0.71687 0.0
H3619 H 0.62931 0.99386 0.73241 0.0
H3620 H 0.62485 0.02342 0.70164 0.0
H3621 H 0.64546 0.02656 0.68595 0.0
H3622 H 0.62707 0.0159 0.74837 0.0
H3623 H 0.58381 0.98788 0.7036 0.0
H3624 H 0.60119 0.98916 0.70191 0.0
H3625 H 0.59917 0.00431 0.69699 0.0
C3626 C 0.64449 0.00274 0.71333 0.0
C3627 C 0.64928 0.012 0.70017 0.0
C3628 C 0.63273 0.00095 0.72223 0.0
C3629 C 0.62549 0.00829 0.71807 0.0
C3630 C 0.63017 0.01748 0.70488 0.0
H3631 H 0.56832 0.02356 0.77731 0.0
H3632 H 0.58801 0.02583 0.76067 0.0
C3633 C 0.64197 0.01931 0.69598 0.0
C3634 C 0.6134 0.00676 0.72797 0.0
H3635 H 0.57739 0.99502 0.72742 0.0
C3636 C 0.6162 0.01133 0.74381 0.0
C3637 C 0.59924 0.00066 0.722 0.0
C3638 C 0.59557 0.99509 0.70523 0.0
C3639 C 0.6052 0.01011 0.75383 0.0
C3640 C 0.59109 0.0043 0.74776 0.0
C3641 C 0.58825 0.99956 0.73198 0.0
C3642 C 0.57911 0.00293 0.75771 0.0
C3643 C 0.60871 0.01484 0.77088 0.0
C3644 C 0.56747 0.9893 0.76131 0.0
C3645 C 0.55623 0.98795 0.77089 0.0
C3646 C 0.55638 0.00023 0.77695 0.0
C3647 C 0.568 0.01388 0.77311 0.0
C3648 C 0.57924 0.01521 0.76356 0.0
H3649 H 0.61916 0.01596 0.77457 0.0
H3650 H 0.60942 0.02544 0.77235 0.0
H3651 H 0.60014 0.00707 0.77891 0.0
H3652 H 0.56719 0.9797 0.75688 0.0
H3653 H 0.54753 0.97728 0.77374 0.0
loop_
_geom_bond_atom_site_label_1
_geom_bond_atom_site_label_2
_geom_bond_distance
_geom_bond_site_symmetry_2
_ccdc_geom_bond_type
In0 O1 2.294 1_455 S
In0 O2 2.326 . S
In0 O6 2.266 1_455 S
In0 O7 2.326 1_454 S
In0 O8 2.266 1_554 S
In0 O9 2.326 1_454 S
In0 O11 2.294 . S
In0 O12 2.326 . S
O1 In0 2.294 1_655 S
O1 C10 1.231 1_655 S
O2 In0 2.326 . S
O2 C10 1.269 . S
C3 O6 1.252 1_556 S
C3 O7 1.260 . S
C4 O11 1.240 . S
C4 O12 1.252 . S
C5 O8 1.252 . S
C5 O9 1.260 1_455 S
O6 In0 2.266 1_655 S
O6 C3 1.252 1_554 S
O7 In0 2.326 1_656 S
O7 C3 1.260 . S
O8 In0 2.266 1_556 S
O8 C5 1.252 . S
O9 In0 2.326 1_656 S
O9 C5 1.260 1_655 S
C10 O1 1.231 1_455 S
C10 O2 1.269 . S
O11 In0 2.294 . S
O11 C4 1.240 . S
O12 In0 2.326 . S
O12 C4 1.252 . S
In13 O14 2.294 . S
In13 O15 2.326 . S
In13 O19 2.266 . S
In13 O20 2.326 1_554 S
In13 O21 2.266 1_554 S
In13 O22 2.326 1_554 S
In13 O24 2.294 . S
In13 O25 2.326 . S
O14 In13 2.294 . S
O14 C23 1.240 . S
O15 In13 2.326 . S
O15 C23 1.252 . S
C16 O19 1.252 1_556 S
C16 O20 1.260 . S
C17 O24 1.240 . S
C17 O25 1.252 . S
C18 O21 1.252 . S
C18 O22 1.260 . S
O19 In13 2.266 . S
O19 C16 1.252 1_554 S
O20 In13 2.326 1_556 S
O20 C16 1.260 . S
O21 In13 2.266 1_556 S
O21 C18 1.252 . S
O22 In13 2.326 1_556 S
O22 C18 1.260 . S
C23 O14 1.240 . S
C23 O15 1.252 . S
O24 In13 2.294 . S
O24 C17 1.240 . S
O25 In13 2.326 . S
O25 C17 1.252 . S
In26 O27 2.294 . S
In26 O28 2.326 1_554 S
In26 O32 2.266 . S
In26 O33 2.326 1_545 S
In26 O34 2.266 1_545 S
In26 O35 2.326 1_545 S
In26 O37 2.294 1_544 S
In26 O38 2.326 1_554 S
O27 In26 2.294 . S
O27 C36 1.240 1_554 S
O28 In26 2.326 1_556 S
O28 C36 1.252 . S
C29 O32 1.252 . S
C29 O33 1.260 1_545 S
C30 O37 1.221 1_545 S
C30 O38 1.290 . S
C31 O34 1.252 . S
C31 O35 1.260 . S
O32 In26 2.266 . S
O32 C29 1.252 . S
O33 In26 2.326 1_565 S
O33 C29 1.260 1_565 S
O34 In26 2.266 1_565 S
O34 C31 1.252 . S
O35 In26 2.326 1_565 S
O35 C31 1.260 . S
C36 O27 1.240 1_556 S
C36 O28 1.252 . S
O37 In26 2.294 1_566 S
O37 C30 1.221 1_565 S
O38 In26 2.326 1_556 S
O38 C30 1.290 . S
In39 O40 2.293 1_554 S
In39 O41 2.326 1_454 S
In39 O45 2.265 . S
In39 O46 2.326 . S
In39 O47 2.267 1_455 S
In39 O48 2.324 . S
In39 O50 2.296 1_455 S
In39 O51 2.327 1_454 S
O40 In39 2.293 1_556 S
O40 C49 1.273 . S
O41 In39 2.326 1_656 S
O41 C49 1.195 1_655 S
C42 O45 1.252 . S
C42 O46 1.260 . S
C43 O50 1.240 1_556 S
C43 O51 1.252 . S
C44 O47 1.283 . S
C44 O48 1.238 1_655 S
O45 In39 2.265 . S
O45 C42 1.252 . S
O46 In39 2.326 . S
O46 C42 1.260 . S
O47 In39 2.267 1_655 S
O47 C44 1.283 . S
O48 In39 2.324 . S
O48 C44 1.238 1_455 S
C49 O40 1.273 . S
C49 O41 1.195 1_455 S
O50 In39 2.296 1_655 S
O50 C43 1.240 1_554 S
O51 In39 2.327 1_656 S
O51 C43 1.252 . S
In52 O53 2.294 1_554 S
In52 O54 2.326 1_554 S
In52 O58 2.266 . S
In52 O59 2.326 . S
In52 O60 2.266 . S
In52 O61 2.326 . S
In52 O63 2.294 . S
In52 O64 2.326 1_554 S
O53 In52 2.294 1_556 S
O53 C62 1.240 . S
O54 In52 2.326 1_556 S
O54 C62 1.252 . S
C55 O58 1.252 . S
C55 O59 1.260 . S
C56 O63 1.240 1_556 S
C56 O64 1.252 . S
C57 O60 1.252 . S
C57 O61 1.260 . S
O58 In52 2.266 . S
O58 C55 1.252 . S
O59 In52 2.326 . S
O59 C55 1.260 . S
O60 In52 2.266 . S
O60 C57 1.252 . S
O61 In52 2.326 . S
O61 C57 1.260 . S
C62 O53 1.240 . S
C62 O54 1.252 . S
O63 In52 2.294 . S
O63 C56 1.240 1_554 S
O64 In52 2.326 1_556 S
O64 C56 1.252 . S
In65 O66 2.293 . S
In65 O67 2.326 1_545 S
In65 O71 2.265 . S
In65 O72 2.326 1_554 S
In65 O73 2.267 1_544 S
In65 O74 2.324 1_554 S
In65 O76 2.296 1_545 S
In65 O77 2.327 1_545 S
O66 In65 2.293 . S
O66 C75 1.272 . S
O67 In65 2.326 1_565 S
O67 C75 1.197 1_565 S
C68 O71 1.252 1_556 S
C68 O72 1.260 . S
C69 O76 1.240 . S
C69 O77 1.252 . S
C70 O73 1.285 . S
C70 O74 1.236 1_565 S
O71 In65 2.265 . S
O71 C68 1.252 1_554 S
O72 In65 2.326 1_556 S
O72 C68 1.260 . S
O73 In65 2.267 1_566 S
O73 C70 1.285 . S
O74 In65 2.324 1_556 S
O74 C70 1.236 1_545 S
C75 O66 1.272 . S
C75 O67 1.197 1_545 S
O76 In65 2.296 1_565 S
O76 C69 1.240 . S
O77 In65 2.327 1_565 S
O77 C69 1.252 . S
In78 O79 2.294 . S
In78 O80 2.326 . S
In78 O84 2.266 . S
In78 O85 2.326 . S
In78 O86 2.266 . S
In78 O87 2.326 . S
In78 O89 2.294 . S
In78 O90 2.326 . S
O79 In78 2.294 . S
O79 C88 1.240 . S
O80 In78 2.326 . S
O80 C88 1.252 . S
C81 O84 1.252 . S
C81 O85 1.260 . S
C82 O89 1.240 . S
C82 O90 1.252 . S
C83 O86 1.252 . S
C83 O87 1.260 . S
O84 In78 2.266 . S
O84 C81 1.252 . S
O85 In78 2.326 . S
O85 C81 1.260 . S
O86 In78 2.266 . S
O86 C83 1.252 . S
O87 In78 2.326 . S
O87 C83 1.260 . S
C88 O79 1.240 . S
C88 O80 1.252 . S
O89 In78 2.294 . S
O89 C82 1.240 . S
O90 In78 2.326 . S
O90 C82 1.252 . S
In91 O92 2.294 . S
In91 O93 2.326 . S
In91 O97 2.266 . S
In91 O98 2.326 . S
In91 O99 2.266 . S
In91 O100 2.326 . S
In91 O102 2.294 1_565 S
In91 O103 2.326 . S
O92 In91 2.294 . S
O92 C101 1.240 . S
O93 In91 2.326 . S
O93 C101 1.252 . S
C94 O97 1.252 . S
C94 O98 1.260 . S
C95 O102 1.240 . S
C95 O103 1.252 1_545 S
C96 O99 1.252 . S
C96 O100 1.260 . S
O97 In91 2.266 . S
O97 C94 1.252 . S
O98 In91 2.326 . S
O98 C94 1.260 . S
O99 In91 2.266 . S
O99 C96 1.252 . S
O100 In91 2.326 . S
O100 C96 1.260 . S
C101 O92 1.240 . S
C101 O93 1.252 . S
O102 In91 2.294 1_545 S
O102 C95 1.240 . S
O103 In91 2.326 . S
O103 C95 1.252 1_565 S
In104 O105 2.294 . S
In104 O106 2.326 . S
In104 O110 2.266 . S
In104 O111 2.326 . S
In104 O112 2.266 1_455 S
In104 O113 2.326 . S
In104 O115 2.294 . S
In104 O116 2.326 . S
O105 In104 2.294 . S
O105 C114 1.240 . S
O106 In104 2.326 . S
O106 C114 1.252 . S
C107 O110 1.252 . S
C107 O111 1.260 . S
C108 O115 1.240 . S
C108 O116 1.252 . S
C109 O112 1.253 . S
C109 O113 1.260 1_655 S
O110 In104 2.266 . S
O110 C107 1.252 . S
O111 In104 2.326 . S
O111 C107 1.260 . S
O112 In104 2.266 1_655 S
O112 C109 1.253 . S
O113 In104 2.326 . S
O113 C109 1.260 1_455 S
C114 O105 1.240 . S
C114 O106 1.252 . S
O115 In104 2.294 . S
O115 C108 1.240 . S
O116 In104 2.326 . S
O116 C108 1.252 . S
In117 O118 2.294 . S
In117 O119 2.326 . S
In117 O123 2.266 1_565 S
In117 O124 2.326 . S
In117 O125 2.266 . S
In117 O126 2.326 . S
In117 O128 2.294 . S
In117 O129 2.326 . S
O118 In117 2.294 . S
O118 C127 1.240 . S
O119 In117 2.326 . S
O119 C127 1.252 . S
C120 O123 1.252 . S
C120 O124 1.260 1_545 S
C121 O128 1.240 . S
C121 O129 1.252 . S
C122 O125 1.252 . S
C122 O126 1.260 . S
O123 In117 2.266 1_545 S
O123 C120 1.252 . S
O124 In117 2.326 . S
O124 C120 1.260 1_565 S
O125 In117 2.266 . S
O125 C122 1.252 . S
O126 In117 2.326 . S
O126 C122 1.260 . S
C127 O118 1.240 . S
C127 O119 1.252 . S
O128 In117 2.294 . S
O128 C121 1.240 . S
O129 In117 2.326 . S
O129 C121 1.252 . S
In130 O131 2.294 . S
In130 O132 2.326 . S
In130 O136 2.262 1_455 S
In130 O137 2.326 . S
In130 O138 2.266 . S
In130 O139 2.326 . S
In130 O141 2.294 . S
In130 O142 2.326 . S
O131 In130 2.294 . S
O131 C140 1.240 . S
O132 In130 2.326 . S
O132 C140 1.252 . S
C133 O136 1.252 . S
C133 O137 1.260 1_655 S
C134 O141 1.240 . S
C134 O142 1.252 . S
C135 O138 1.252 . S
C135 O139 1.260 . S
O136 In130 2.262 1_655 S
O136 C133 1.252 . S
O137 In130 2.326 . S
O137 C133 1.260 1_455 S
O138 In130 2.266 . S
O138 C135 1.252 . S
O139 In130 2.326 . S
O139 C135 1.260 . S
C140 O131 1.240 . S
C140 O132 1.252 . S
O141 In130 2.294 . S
O141 C134 1.240 . S
O142 In130 2.326 . S
O142 C134 1.252 . S
In143 O144 2.294 . S
In143 O145 2.326 . S
In143 O149 2.266 . S
In143 O150 2.326 . S
In143 O151 2.266 . S
In143 O152 2.326 . S
In143 O154 2.294 . S
In143 O155 2.326 . S
O144 In143 2.294 . S
O144 C153 1.240 . S
O145 In143 2.326 . S
O145 C153 1.252 . S
C146 O149 1.252 . S
C146 O150 1.260 . S
C147 O154 1.240 . S
C147 O155 1.252 . S
C148 O151 1.252 . S
C148 O152 1.260 . S
O149 In143 2.266 . S
O149 C146 1.252 . S
O150 In143 2.326 . S
O150 C146 1.260 . S
O151 In143 2.266 . S
O151 C148 1.252 . S
O152 In143 2.326 . S
O152 C148 1.260 . S
C153 O144 1.240 . S
C153 O145 1.252 . S
O154 In143 2.294 . S
O154 C147 1.240 . S
O155 In143 2.326 . S
O155 C147 1.252 . S
In156 O157 2.294 . S
In156 O158 2.326 . S
In156 O162 2.266 . S
In156 O163 2.326 . S
In156 O164 2.263 . S
In156 O165 2.326 . S
In156 O167 2.294 . S
In156 O168 2.326 . S
O157 In156 2.294 . S
O157 C166 1.240 . S
O158 In156 2.326 . S
O158 C166 1.252 . S
C159 O162 1.252 . S
C159 O163 1.260 . S
C160 O167 1.240 . S
C160 O168 1.252 . S
C161 O164 1.256 1_565 S
C161 O165 1.260 1_565 S
O162 In156 2.266 . S
O162 C159 1.252 . S
O163 In156 2.326 . S
O163 C159 1.260 . S
O164 In156 2.263 . S
O164 C161 1.256 1_545 S
O165 In156 2.326 . S
O165 C161 1.260 1_545 S
C166 O157 1.240 . S
C166 O158 1.252 . S
O167 In156 2.294 . S
O167 C160 1.240 . S
O168 In156 2.326 . S
O168 C160 1.252 . S
In169 O170 2.294 . S
In169 O171 2.326 . S
In169 O175 2.266 . S
In169 O176 2.326 . S
In169 O177 2.182 1_655 S
In169 O178 2.326 . S
In169 O180 2.294 . S
In169 O181 2.326 . S
O170 In169 2.294 . S
O170 C179 1.240 . S
O171 In169 2.326 . S
O171 C179 1.252 . S
C172 O175 1.252 . S
C172 O176 1.260 . S
C173 O180 1.240 . S
C173 O181 1.252 . S
C174 O177 1.253 . S
C174 O178 1.260 1_455 S
O175 In169 2.266 . S
O175 C172 1.252 . S
O176 In169 2.326 . S
O176 C172 1.260 . S
O177 In169 2.182 1_455 S
O177 C174 1.253 . S
O178 In169 2.326 . S
O178 C174 1.260 1_655 S
C179 O170 1.240 . S
C179 O171 1.252 . S
O180 In169 2.294 . S
O180 C173 1.240 . S
O181 In169 2.326 . S
O181 C173 1.252 . S
In182 O183 2.294 . S
In182 O184 2.326 . S
In182 O188 2.266 . S
In182 O189 2.326 . S
In182 O190 2.266 . S
In182 O191 2.326 . S
In182 O193 2.294 . S
In182 O194 2.326 . S
O183 In182 2.294 . S
O183 C192 1.240 . S
O184 In182 2.326 . S
O184 C192 1.252 . S
C185 O188 1.252 . S
C185 O189 1.260 . S
C186 O193 1.240 . S
C186 O194 1.252 . S
C187 O190 1.252 . S
C187 O191 1.260 . S
O188 In182 2.266 . S
O188 C185 1.252 . S
O189 In182 2.326 . S
O189 C185 1.260 . S
O190 In182 2.266 . S
O190 C187 1.252 . S
O191 In182 2.326 . S
O191 C187 1.260 . S
C192 O183 1.240 . S
C192 O184 1.252 . S
O193 In182 2.294 . S
O193 C186 1.240 . S
O194 In182 2.326 . S
O194 C186 1.252 . S
In195 O196 2.294 . S
In195 O197 2.326 . S
In195 O201 2.266 . S
In195 O202 2.326 . S
In195 O203 2.266 . S
In195 O204 2.326 . S
In195 O206 2.294 . S
In195 O207 2.326 . S
O196 In195 2.294 . S
O196 C205 1.240 . S
O197 In195 2.326 . S
O197 C205 1.252 . S
C198 O201 1.252 . S
C198 O202 1.260 . S
C199 O206 1.240 . S
C199 O207 1.252 . S
C200 O203 1.252 . S
C200 O204 1.260 . S
O201 In195 2.266 . S
O201 C198 1.252 . S
O202 In195 2.326 . S
O202 C198 1.260 . S
O203 In195 2.266 . S
O203 C200 1.252 . S
O204 In195 2.326 . S
O204 C200 1.260 . S
C205 O196 1.240 . S
C205 O197 1.252 . S
O206 In195 2.294 . S
O206 C199 1.240 . S
O207 In195 2.326 . S
O207 C199 1.252 . S
In208 O209 2.294 . S
In208 O210 2.326 . S
In208 O214 2.266 . S
In208 O215 2.326 . S
In208 O216 2.266 . S
In208 O217 2.326 . S
In208 O219 2.249 1_545 S
In208 O220 2.326 . S
O209 In208 2.294 . S
O209 C218 1.240 . S
O210 In208 2.326 . S
O210 C218 1.252 . S
C211 O214 1.252 . S
C211 O215 1.260 . S
C212 O219 1.239 . S
C212 O220 1.252 1_565 S
C213 O216 1.252 . S
C213 O217 1.260 . S
O214 In208 2.266 . S
O214 C211 1.252 . S
O215 In208 2.326 . S
O215 C211 1.260 . S
O216 In208 2.266 . S
O216 C213 1.252 . S
O217 In208 2.326 . S
O217 C213 1.260 . S
C218 O209 1.240 . S
C218 O210 1.252 . S
O219 In208 2.249 1_565 S
O219 C212 1.239 . S
O220 In208 2.326 . S
O220 C212 1.252 1_545 S
In221 O222 2.294 . S
In221 O223 2.326 . S
In221 O227 2.266 . S
In221 O228 2.326 . S
In221 O229 2.234 1_655 S
In221 O230 2.326 . S
In221 O232 2.294 . S
In221 O233 2.326 . S
O222 In221 2.294 . S
O222 C231 1.240 . S
O223 In221 2.326 . S
O223 C231 1.252 . S
C224 O227 1.252 . S
C224 O228 1.260 . S
C225 O232 1.240 . S
C225 O233 1.252 . S
C226 O229 1.304 . S
C226 O230 1.260 1_455 S
O227 In221 2.266 . S
O227 C224 1.252 . S
O228 In221 2.326 . S
O228 C224 1.260 . S
O229 In221 2.234 1_455 S
O229 C226 1.304 . S
O230 In221 2.326 . S
O230 C226 1.260 1_655 S
C231 O222 1.240 . S
C231 O223 1.252 . S
O232 In221 2.294 . S
O232 C225 1.240 . S
O233 In221 2.326 . S
O233 C225 1.252 . S
C234 C235 1.384 . S
C234 C236 1.384 . S
C234 H262 0.931 . S
C235 C234 1.384 . S
C235 C238 1.382 . S
C236 C234 1.384 . S
C236 C237 1.381 . S
C236 H263 0.930 . S
C237 C236 1.381 . S
C237 C239 1.381 . S
C237 C240 1.487 . S
C238 C235 1.382 . S
C238 C239 1.387 . S
C238 H264 0.930 . S
C239 C237 1.381 . S
C239 C238 1.387 . S
C239 H265 0.931 . S
C240 C237 1.487 . S
C240 C247 1.399 . S
C240 N278 1.343 . S
C241 C242 1.384 . S
C241 C243 1.384 . S
C241 H266 0.931 . S
C242 C241 1.384 . S
C242 C245 1.382 . S
C243 C241 1.384 . S
C243 C244 1.381 . S
C243 H267 0.930 . S
C244 C243 1.381 . S
C244 C246 1.381 . S
C244 C247 1.487 . S
C245 C242 1.382 . S
C245 C246 1.387 . S
C245 H268 0.930 . S
C246 C244 1.381 . S
C246 C245 1.387 . S
C246 H269 0.931 . S
C247 C240 1.399 . S
C247 C244 1.487 . S
C247 N279 1.343 . S
C248 C249 1.384 . S
C248 C250 1.384 . S
C248 H270 0.931 . S
C249 C248 1.384 . S
C249 C252 1.382 . S
C250 C248 1.384 . S
C250 C251 1.381 . S
C250 H271 0.930 . S
C251 C250 1.381 . S
C251 C253 1.381 . S
C251 C254 1.487 . S
C252 C249 1.382 . S
C252 C253 1.387 . S
C252 H272 0.930 . S
C253 C251 1.381 . S
C253 C252 1.387 . S
C253 H273 0.931 . S
C254 C251 1.487 . S
C254 C261 1.399 . S
C254 N279 1.343 . S
C255 C256 1.384 . S
C255 C257 1.384 . S
C255 H274 0.931 . S
C256 C255 1.384 . S
C256 C259 1.382 . S
C257 C255 1.384 . S
C257 C258 1.381 . S
C257 H275 0.930 . S
C258 C257 1.381 . S
C258 C260 1.381 . S
C258 C261 1.487 . S
C259 C256 1.382 . S
C259 C260 1.387 . S
C259 H276 0.930 . S
C260 C258 1.381 . S
C260 C259 1.387 . S
C260 H277 0.931 . S
C261 C254 1.399 . S
C261 C258 1.487 . S
C261 N278 1.343 . S
H262 C234 0.931 . S
H263 C236 0.930 . S
H264 C238 0.930 . S
H265 C239 0.931 . S
H266 C241 0.931 . S
H267 C243 0.930 . S
H268 C245 0.930 . S
H269 C246 0.931 . S
H270 C248 0.931 . S
H271 C250 0.930 . S
H272 C252 0.930 . S
H273 C253 0.931 . S
H274 C255 0.931 . S
H275 C257 0.930 . S
H276 C259 0.930 . S
H277 C260 0.931 . S
N278 C240 1.343 . S
N278 C261 1.343 . S
N279 C247 1.343 . S
N279 C254 1.343 . S
C280 C281 1.384 . S
C280 C282 1.384 . S
C280 H308 0.931 . S
C281 C280 1.384 . S
C281 C284 1.382 . S
C282 C280 1.384 . S
C282 C283 1.381 . S
C282 H309 0.930 . S
C283 C282 1.381 . S
C283 C285 1.381 . S
C283 C286 1.487 . S
C284 C281 1.382 . S
C284 C285 1.387 . S
C284 H310 0.930 . S
C285 C283 1.381 . S
C285 C284 1.387 . S
C285 H311 0.931 . S
C286 C283 1.487 . S
C286 C293 1.399 . S
C286 N324 1.343 . S
C287 C288 1.384 . S
C287 C289 1.384 . S
C287 H312 0.931 . S
C288 C287 1.384 . S
C288 C291 1.382 . S
C289 C287 1.384 . S
C289 C290 1.381 . S
C289 H313 0.930 . S
C290 C289 1.381 . S
C290 C292 1.381 . S
C290 C293 1.487 . S
C291 C288 1.382 . S
C291 C292 1.387 . S
C291 H314 0.930 . S
C292 C290 1.381 . S
C292 C291 1.387 . S
C292 H315 0.931 . S
C293 C286 1.399 . S
C293 C290 1.487 . S
C293 N325 1.343 . S
C294 C295 1.384 . S
C294 C296 1.384 . S
C294 H316 0.931 . S
C295 C294 1.384 . S
C295 C298 1.382 . S
C296 C294 1.384 . S
C296 C297 1.381 . S
C296 H317 0.930 . S
C297 C296 1.381 . S
C297 C299 1.381 . S
C297 C300 1.487 . S
C298 C295 1.382 . S
C298 C299 1.387 . S
C298 H318 0.930 . S
C299 C297 1.381 . S
C299 C298 1.387 . S
C299 H319 0.931 . S
C300 C297 1.487 . S
C300 C307 1.399 . S
C300 N325 1.343 . S
C301 C302 1.384 . S
C301 C303 1.384 . S
C301 H320 0.931 . S
C302 C301 1.384 . S
C302 C305 1.382 . S
C303 C301 1.384 . S
C303 C304 1.381 . S
C303 H321 0.930 . S
C304 C303 1.381 . S
C304 C306 1.381 . S
C304 C307 1.487 . S
C305 C302 1.382 . S
C305 C306 1.387 . S
C305 H322 0.930 . S
C306 C304 1.381 . S
C306 C305 1.387 . S
C306 H323 0.931 . S
C307 C300 1.399 . S
C307 C304 1.487 . S
C307 N324 1.343 . S
H308 C280 0.931 . S
H309 C282 0.930 . S
H310 C284 0.930 . S
H311 C285 0.931 . S
H312 C287 0.931 . S
H313 C289 0.930 . S
H314 C291 0.930 . S
H315 C292 0.931 . S
H316 C294 0.931 . S
H317 C296 0.930 . S
H318 C298 0.930 . S
H319 C299 0.931 . S
H320 C301 0.931 . S
H321 C303 0.930 . S
H322 C305 0.930 . S
H323 C306 0.931 . S
N324 C286 1.343 . S
N324 C307 1.343 . S
N325 C293 1.343 . S
N325 C300 1.343 . S
C326 C327 1.384 . S
C326 C328 1.384 . S
C326 H354 0.931 . S
C327 C326 1.384 . S
C327 C330 1.382 . S
C328 C326 1.384 . S
C328 C329 1.381 . S
C328 H355 0.930 . S
C329 C328 1.381 . S
C329 C331 1.381 . S
C329 C332 1.487 . S
C330 C327 1.382 . S
C330 C331 1.387 . S
C330 H356 0.930 . S
C331 C329 1.381 . S
C331 C330 1.387 . S
C331 H357 0.931 . S
C332 C329 1.487 . S
C332 C339 1.399 . S
C332 N370 1.343 . S
C333 C334 1.384 . S
C333 C335 1.384 . S
C333 H358 0.931 . S
C334 C333 1.384 . S
C334 C337 1.382 . S
C335 C333 1.384 . S
C335 C336 1.381 . S
C335 H359 0.930 . S
C336 C335 1.381 . S
C336 C338 1.381 . S
C336 C339 1.487 . S
C337 C334 1.382 . S
C337 C338 1.387 . S
C337 H360 0.930 . S
C338 C336 1.381 . S
C338 C337 1.387 . S
C338 H361 0.931 . S
C339 C332 1.399 . S
C339 C336 1.487 . S
C339 N371 1.343 . S
C340 C341 1.384 . S
C340 C342 1.384 . S
C340 H362 0.931 . S
C341 C340 1.384 . S
C341 C344 1.382 . S
C342 C340 1.384 . S
C342 C343 1.381 . S
C342 H363 0.930 . S
C343 C342 1.381 . S
C343 C345 1.381 . S
C343 C346 1.487 . S
C344 C341 1.382 . S
C344 C345 1.387 . S
C344 H364 0.930 . S
C345 C343 1.381 . S
C345 C344 1.387 . S
C345 H365 0.931 . S
C346 C343 1.487 . S
C346 C353 1.399 . S
C346 N371 1.343 . S
C347 C348 1.384 . S
C347 C349 1.384 . S
C347 H366 0.931 . S
C348 C347 1.384 . S
C348 C351 1.382 . S
C349 C347 1.384 . S
C349 C350 1.381 . S
C349 H367 0.930 . S
C350 C349 1.381 . S
C350 C352 1.381 . S
C350 C353 1.487 . S
C351 C348 1.382 . S
C351 C352 1.387 . S
C351 H368 0.930 . S
C352 C350 1.381 . S
C352 C351 1.387 . S
C352 H369 0.931 . S
C353 C346 1.399 . S
C353 C350 1.487 . S
C353 N370 1.343 . S
H354 C326 0.931 . S
H355 C328 0.930 . S
H356 C330 0.930 . S
H357 C331 0.931 . S
H358 C333 0.931 . S
H359 C335 0.930 . S
H360 C337 0.930 . S
H361 C338 0.931 . S
H362 C340 0.931 . S
H363 C342 0.930 . S
H364 C344 0.930 . S
H365 C345 0.931 . S
H366 C347 0.931 . S
H367 C349 0.930 . S
H368 C351 0.930 . S
H369 C352 0.931 . S
N370 C332 1.343 . S
N370 C353 1.343 . S
N371 C339 1.343 . S
N371 C346 1.343 . S
C372 C373 1.384 . S
C372 C374 1.384 . S
C372 H400 0.931 . S
C373 C372 1.384 . S
C373 C376 1.382 . S
C374 C372 1.384 . S
C374 C375 1.381 . S
C374 H401 0.930 . S
C375 C374 1.381 . S
C375 C377 1.381 . S
C375 C378 1.487 . S
C376 C373 1.382 . S
C376 C377 1.387 . S
C376 H402 0.930 . S
C377 C375 1.381 . S
C377 C376 1.387 . S
C377 H403 0.931 . S
C378 C375 1.487 . S
C378 C385 1.399 . S
C378 N416 1.343 . S
C379 C380 1.384 . S
C379 C381 1.384 . S
C379 H404 0.931 . S
C380 C379 1.384 . S
C380 C383 1.382 . S
C381 C379 1.384 . S
C381 C382 1.381 . S
C381 H405 0.930 . S
C382 C381 1.381 . S
C382 C384 1.381 . S
C382 C385 1.487 . S
C383 C380 1.382 . S
C383 C384 1.387 . S
C383 H406 0.930 . S
C384 C382 1.381 . S
C384 C383 1.387 . S
C384 H407 0.931 . S
C385 C378 1.399 . S
C385 C382 1.487 . S
C385 N417 1.343 . S
C386 C387 1.384 . S
C386 C388 1.384 . S
C386 H408 0.931 . S
C387 C386 1.384 . S
C387 C390 1.382 . S
C388 C386 1.384 . S
C388 C389 1.381 . S
C388 H409 0.930 . S
C389 C388 1.381 . S
C389 C391 1.381 . S
C389 C392 1.487 . S
C390 C387 1.382 . S
C390 C391 1.387 . S
C390 H410 0.930 . S
C391 C389 1.381 . S
C391 C390 1.387 . S
C391 H411 0.931 . S
C392 C389 1.487 . S
C392 C399 1.399 . S
C392 N417 1.343 . S
C393 C394 1.384 . S
C393 C395 1.384 . S
C393 H412 0.931 . S
C394 C393 1.384 . S
C394 C397 1.382 . S
C395 C393 1.384 . S
C395 C396 1.381 . S
C395 H413 0.930 . S
C396 C395 1.381 . S
C396 C398 1.381 . S
C396 C399 1.487 . S
C397 C394 1.382 . S
C397 C398 1.387 . S
C397 H414 0.930 . S
C398 C396 1.381 . S
C398 C397 1.387 . S
C398 H415 0.931 . S
C399 C392 1.399 . S
C399 C396 1.487 . S
C399 N416 1.343 . S
H400 C372 0.931 . S
H401 C374 0.930 . S
H402 C376 0.930 . S
H403 C377 0.931 . S
H404 C379 0.931 . S
H405 C381 0.930 . S
H406 C383 0.930 . S
H407 C384 0.931 . S
H408 C386 0.931 . S
H409 C388 0.930 . S
H410 C390 0.930 . S
H411 C391 0.931 . S
H412 C393 0.931 . S
H413 C395 0.930 . S
H414 C397 0.930 . S
H415 C398 0.931 . S
N416 C378 1.343 . S
N416 C399 1.343 . S
N417 C385 1.343 . S
N417 C392 1.343 . S
C418 C419 1.384 . S
C418 C420 1.384 . S
C418 H446 0.931 . S
C419 C418 1.384 . S
C419 C422 1.382 . S
C420 C418 1.384 . S
C420 C421 1.381 . S
C420 H447 0.930 . S
C421 C420 1.381 . S
C421 C423 1.381 . S
C421 C424 1.487 . S
C422 C419 1.382 . S
C422 C423 1.387 . S
C422 H448 0.930 . S
C423 C421 1.381 . S
C423 C422 1.387 . S
C423 H449 0.931 . S
C424 C421 1.487 . S
C424 C431 1.399 . S
C424 N462 1.343 . S
C425 C426 1.384 . S
C425 C427 1.384 . S
C425 H450 0.931 . S
C426 C425 1.384 . S
C426 C429 1.382 . S
C427 C425 1.384 . S
C427 C428 1.381 . S
C427 H451 0.930 . S
C428 C427 1.381 . S
C428 C430 1.381 . S
C428 C431 1.487 . S
C429 C426 1.382 . S
C429 C430 1.387 . S
C429 H452 0.930 . S
C430 C428 1.381 . S
C430 C429 1.387 . S
C430 H453 0.931 . S
C431 C424 1.399 . S
C431 C428 1.487 . S
C431 N463 1.343 . S
C432 C433 1.384 . S
C432 C434 1.384 . S
C432 H454 0.931 . S
C433 C432 1.384 . S
C433 C436 1.382 . S
C434 C432 1.384 . S
C434 C435 1.381 . S
C434 H455 0.930 . S
C435 C434 1.381 . S
C435 C437 1.381 . S
C435 C438 1.487 . S
C436 C433 1.382 . S
C436 C437 1.387 . S
C436 H456 0.930 . S
C437 C435 1.381 . S
C437 C436 1.387 . S
C437 H457 0.931 . S
C438 C435 1.487 . S
C438 C445 1.399 . S
C438 N463 1.343 . S
C439 C440 1.384 . S
C439 C441 1.384 . S
C439 H458 0.931 . S
C440 C439 1.384 . S
C440 C443 1.382 . S
C441 C439 1.384 . S
C441 C442 1.381 . S
C441 H459 0.930 . S
C442 C441 1.381 . S
C442 C444 1.381 . S
C442 C445 1.487 . S
C443 C440 1.382 . S
C443 C444 1.387 . S
C443 H460 0.930 . S
C444 C442 1.381 . S
C444 C443 1.387 . S
C444 H461 0.931 . S
C445 C438 1.399 . S
C445 C442 1.487 . S
C445 N462 1.343 . S
H446 C418 0.931 . S
H447 C420 0.930 . S
H448 C422 0.930 . S
H449 C423 0.931 . S
H450 C425 0.931 . S
H451 C427 0.930 . S
H452 C429 0.930 . S
H453 C430 0.931 . S
H454 C432 0.931 . S
H455 C434 0.930 . S
H456 C436 0.930 . S
H457 C437 0.931 . S
H458 C439 0.931 . S
H459 C441 0.930 . S
H460 C443 0.930 . S
H461 C444 0.931 . S
N462 C424 1.343 . S
N462 C445 1.343 . S
N463 C431 1.343 . S
N463 C438 1.343 . S
C464 C465 1.384 . S
C464 C466 1.384 . S
C464 H492 0.931 . S
C465 C464 1.384 . S
C465 C468 1.382 . S
C466 C464 1.384 . S
C466 C467 1.381 . S
C466 H493 0.930 . S
C467 C466 1.381 . S
C467 C469 1.381 . S
C467 C470 1.487 . S
C468 C465 1.382 . S
C468 C469 1.387 . S
C468 H494 0.930 . S
C469 C467 1.381 . S
C469 C468 1.387 . S
C469 H495 0.931 . S
C470 C467 1.487 . S
C470 C477 1.399 . S
C470 N508 1.343 . S
C471 C472 1.384 . S
C471 C473 1.384 . S
C471 H496 0.931 . S
C472 C471 1.384 . S
C472 C475 1.382 . S
C473 C471 1.384 . S
C473 C474 1.381 . S
C473 H497 0.930 . S
C474 C473 1.381 . S
C474 C476 1.381 . S
C474 C477 1.487 . S
C475 C472 1.382 . S
C475 C476 1.387 . S
C475 H498 0.930 . S
C476 C474 1.381 . S
C476 C475 1.387 . S
C476 H499 0.931 . S
C477 C470 1.399 . S
C477 C474 1.487 . S
C477 N509 1.343 . S
C478 C479 1.384 . S
C478 C480 1.384 . S
C478 H500 0.931 . S
C479 C478 1.384 . S
C479 C482 1.382 . S
C480 C478 1.384 . S
C480 C481 1.381 . S
C480 H501 0.930 . S
C481 C480 1.381 . S
C481 C483 1.381 . S
C481 C484 1.487 . S
C482 C479 1.382 . S
C482 C483 1.387 . S
C482 H502 0.930 . S
C483 C481 1.381 . S
C483 C482 1.387 . S
C483 H503 0.931 . S
C484 C481 1.487 . S
C484 C491 1.399 . S
C484 N509 1.343 . S
C485 C486 1.384 . S
C485 C487 1.384 . S
C485 H504 0.931 . S
C486 C485 1.384 . S
C486 C489 1.382 . S
C487 C485 1.384 . S
C487 C488 1.381 . S
C487 H505 0.930 . S
C488 C487 1.381 . S
C488 C490 1.381 . S
C488 C491 1.487 . S
C489 C486 1.382 . S
C489 C490 1.387 . S
C489 H506 0.930 . S
C490 C488 1.381 . S
C490 C489 1.387 . S
C490 H507 0.931 . S
C491 C484 1.399 . S
C491 C488 1.487 . S
C491 N508 1.343 . S
H492 C464 0.931 . S
H493 C466 0.930 . S
H494 C468 0.930 . S
H495 C469 0.931 . S
H496 C471 0.931 . S
H497 C473 0.930 . S
H498 C475 0.930 . S
H499 C476 0.931 . S
H500 C478 0.931 . S
H501 C480 0.930 . S
H502 C482 0.930 . S
H503 C483 0.931 . S
H504 C485 0.931 . S
H505 C487 0.930 . S
H506 C489 0.930 . S
H507 C490 0.931 . S
N508 C470 1.343 . S
N508 C491 1.343 . S
N509 C477 1.343 . S
N509 C484 1.343 . S
C510 C511 1.384 . S
C510 C512 1.384 . S
C510 H538 0.931 . S
C511 C510 1.384 . S
C511 C514 1.382 . S
C512 C510 1.384 . S
C512 C513 1.381 . S
C512 H539 0.930 . S
C513 C512 1.381 . S
C513 C515 1.381 . S
C513 C516 1.487 . S
C514 C511 1.382 . S
C514 C515 1.387 . S
C514 H540 0.930 . S
C515 C513 1.381 . S
C515 C514 1.387 . S
C515 H541 0.931 . S
C516 C513 1.487 . S
C516 C523 1.399 . S
C516 N554 1.343 . S
C517 C518 1.384 . S
C517 C519 1.384 . S
C517 H542 0.931 . S
C518 C517 1.384 . S
C518 C521 1.382 . S
C519 C517 1.384 . S
C519 C520 1.381 . S
C519 H543 0.930 . S
C520 C519 1.381 . S
C520 C522 1.381 . S
C520 C523 1.487 . S
C521 C518 1.382 . S
C521 C522 1.387 . S
C521 H544 0.930 . S
C522 C520 1.381 . S
C522 C521 1.387 . S
C522 H545 0.931 . S
C523 C516 1.399 . S
C523 C520 1.487 . S
C523 N555 1.343 . S
C524 C525 1.384 . S
C524 C526 1.384 . S
C524 H546 0.931 . S
C525 C524 1.384 . S
C525 C528 1.382 . S
C526 C524 1.384 . S
C526 C527 1.381 . S
C526 H547 0.930 . S
C527 C526 1.381 . S
C527 C529 1.381 . S
C527 C530 1.487 . S
C528 C525 1.382 . S
C528 C529 1.387 . S
C528 H548 0.930 . S
C529 C527 1.381 . S
C529 C528 1.387 . S
C529 H549 0.931 . S
C530 C527 1.487 . S
C530 C537 1.399 . S
C530 N555 1.343 . S
C531 C532 1.384 . S
C531 C533 1.384 . S
C531 H550 0.931 . S
C532 C531 1.384 . S
C532 C535 1.382 . S
C533 C531 1.384 . S
C533 C534 1.381 . S
C533 H551 0.930 . S
C534 C533 1.381 . S
C534 C536 1.381 . S
C534 C537 1.487 . S
C535 C532 1.382 . S
C535 C536 1.387 . S
C535 H552 0.930 . S
C536 C534 1.381 . S
C536 C535 1.387 . S
C536 H553 0.931 . S
C537 C530 1.399 . S
C537 C534 1.487 . S
C537 N554 1.343 . S
H538 C510 0.931 . S
H539 C512 0.930 . S
H540 C514 0.930 . S
H541 C515 0.931 . S
H542 C517 0.931 . S
H543 C519 0.930 . S
H544 C521 0.930 . S
H545 C522 0.931 . S
H546 C524 0.931 . S
H547 C526 0.930 . S
H548 C528 0.930 . S
H549 C529 0.931 . S
H550 C531 0.931 . S
H551 C533 0.930 . S
H552 C535 0.930 . S
H553 C536 0.931 . S
N554 C516 1.343 . S
N554 C537 1.343 . S
N555 C523 1.343 . S
N555 C530 1.343 . S
C556 C557 1.384 . S
C556 C558 1.384 . S
C556 H584 0.931 . S
C557 C556 1.384 . S
C557 C560 1.382 . S
C558 C556 1.384 . S
C558 C559 1.381 . S
C558 H585 0.930 . S
C559 C558 1.381 . S
C559 C561 1.381 . S
C559 C562 1.487 . S
C560 C557 1.382 . S
C560 C561 1.387 . S
C560 H586 0.930 . S
C561 C559 1.381 . S
C561 C560 1.387 . S
C561 H587 0.931 . S
C562 C559 1.487 . S
C562 C569 1.399 . S
C562 N600 1.343 . S
C563 C564 1.384 . S
C563 C565 1.384 . S
C563 H588 0.931 . S
C564 C563 1.384 . S
C564 C567 1.382 . S
C565 C563 1.384 . S
C565 C566 1.381 . S
C565 H589 0.930 . S
C566 C565 1.381 . S
C566 C568 1.381 . S
C566 C569 1.487 . S
C567 C564 1.382 . S
C567 C568 1.387 . S
C567 H590 0.930 . S
C568 C566 1.381 . S
C568 C567 1.387 . S
C568 H591 0.931 . S
C569 C562 1.399 . S
C569 C566 1.487 . S
C569 N601 1.343 . S
C570 C571 1.384 . S
C570 C572 1.384 . S
C570 H592 0.931 . S
C571 C570 1.384 . S
C571 C574 1.382 . S
C572 C570 1.384 . S
C572 C573 1.381 . S
C572 H593 0.930 . S
C573 C572 1.381 . S
C573 C575 1.381 . S
C573 C576 1.487 . S
C574 C571 1.382 . S
C574 C575 1.387 . S
C574 H594 0.930 . S
C575 C573 1.381 . S
C575 C574 1.387 . S
C575 H595 0.931 . S
C576 C573 1.487 . S
C576 C583 1.399 . S
C576 N601 1.343 . S
C577 C578 1.384 . S
C577 C579 1.384 . S
C577 H596 0.931 . S
C578 C577 1.384 . S
C578 C581 1.382 . S
C579 C577 1.384 . S
C579 C580 1.381 . S
C579 H597 0.930 . S
C580 C579 1.381 . S
C580 C582 1.381 . S
C580 C583 1.487 . S
C581 C578 1.382 . S
C581 C582 1.387 . S
C581 H598 0.930 . S
C582 C580 1.381 . S
C582 C581 1.387 . S
C582 H599 0.931 . S
C583 C576 1.399 . S
C583 C580 1.487 . S
C583 N600 1.343 . S
H584 C556 0.931 . S
H585 C558 0.930 . S
H586 C560 0.930 . S
H587 C561 0.931 . S
H588 C563 0.931 . S
H589 C565 0.930 . S
H590 C567 0.930 . S
H591 C568 0.931 . S
H592 C570 0.931 . S
H593 C572 0.930 . S
H594 C574 0.930 . S
H595 C575 0.931 . S
H596 C577 0.931 . S
H597 C579 0.930 . S
H598 C581 0.930 . S
H599 C582 0.931 . S
N600 C562 1.343 . S
N600 C583 1.343 . S
N601 C569 1.343 . S
N601 C576 1.343 . S
C602 C603 1.384 . S
C602 C604 1.384 . S
C602 H630 0.931 . S
C603 C602 1.384 . S
C603 C606 1.382 . S
C604 C602 1.384 . S
C604 C605 1.381 . S
C604 H631 0.930 . S
C605 C604 1.381 . S
C605 C607 1.381 . S
C605 C608 1.487 . S
C606 C603 1.382 . S
C606 C607 1.387 . S
C606 H632 0.930 . S
C607 C605 1.381 . S
C607 C606 1.387 . S
C607 H633 0.931 . S
C608 C605 1.487 . S
C608 C615 1.399 . S
C608 N646 1.343 . S
C609 C610 1.384 . S
C609 C611 1.384 . S
C609 H634 0.931 . S
C610 C609 1.384 . S
C610 C613 1.382 . S
C611 C609 1.384 . S
C611 C612 1.381 . S
C611 H635 0.930 . S
C612 C611 1.381 . S
C612 C614 1.381 . S
C612 C615 1.487 . S
C613 C610 1.382 . S
C613 C614 1.387 . S
C613 H636 0.930 . S
C614 C612 1.381 . S
C614 C613 1.387 . S
C614 H637 0.931 . S
C615 C608 1.399 . S
C615 C612 1.487 . S
C615 N647 1.343 . S
C616 C617 1.384 . S
C616 C618 1.384 . S
C616 H638 0.931 . S
C617 C616 1.384 . S
C617 C620 1.382 . S
C618 C616 1.384 . S
C618 C619 1.381 . S
C618 H639 0.930 . S
C619 C618 1.381 . S
C619 C621 1.381 . S
C619 C622 1.487 . S
C620 C617 1.382 . S
C620 C621 1.387 . S
C620 H640 0.930 . S
C621 C619 1.381 . S
C621 C620 1.387 . S
C621 H641 0.931 . S
C622 C619 1.487 . S
C622 C629 1.399 . S
C622 N647 1.343 . S
C623 C624 1.384 . S
C623 C625 1.384 . S
C623 H642 0.931 . S
C624 C623 1.384 . S
C624 C627 1.382 . S
C625 C623 1.384 . S
C625 C626 1.381 . S
C625 H643 0.930 . S
C626 C625 1.381 . S
C626 C628 1.381 . S
C626 C629 1.487 . S
C627 C624 1.382 . S
C627 C628 1.387 . S
C627 H644 0.930 . S
C628 C626 1.381 . S
C628 C627 1.387 . S
C628 H645 0.931 . S
C629 C622 1.399 . S
C629 C626 1.487 . S
C629 N646 1.343 . S
H630 C602 0.931 . S
H631 C604 0.930 . S
H632 C606 0.930 . S
H633 C607 0.931 . S
H634 C609 0.931 . S
H635 C611 0.930 . S
H636 C613 0.930 . S
H637 C614 0.931 . S
H638 C616 0.931 . S
H639 C618 0.930 . S
H640 C620 0.930 . S
H641 C621 0.931 . S
H642 C623 0.931 . S
H643 C625 0.930 . S
H644 C627 0.930 . S
H645 C628 0.931 . S
N646 C608 1.343 . S
N646 C629 1.343 . S
N647 C615 1.343 . S
N647 C622 1.343 . S
C648 C649 1.384 . S
C648 C650 1.384 . S
C648 H676 0.931 . S
C649 C648 1.384 . S
C649 C652 1.382 1_655 S
C650 C648 1.384 . S
C650 C651 1.384 . S
C650 H677 0.930 . S
C651 C650 1.384 . S
C651 C653 1.380 1_655 S
C651 C654 1.479 1_655 S
C652 C649 1.382 1_455 S
C652 C653 1.387 . S
C652 H678 0.930 . S
C653 C651 1.380 1_455 S
C653 C652 1.387 . S
C653 H679 0.931 . S
C654 C651 1.479 1_455 S
C654 C661 1.399 1_455 S
C654 N692 1.319 . S
C655 C656 1.384 . S
C655 C657 1.384 . S
C655 H680 0.931 . S
C656 C655 1.384 . S
C656 C659 1.382 1_455 S
C657 C655 1.384 . S
C657 C658 1.385 . S
C657 H681 0.930 . S
C658 C657 1.385 . S
C658 C660 1.373 1_455 S
C658 C661 1.493 1_455 S
C659 C656 1.382 1_655 S
C659 C660 1.387 . S
C659 H682 0.930 . S
C660 C658 1.373 1_655 S
C660 C659 1.387 . S
C660 H683 0.931 . S
C661 C654 1.399 1_655 S
C661 C658 1.493 1_655 S
C661 N693 1.364 . S
C662 C663 1.384 . S
C662 C664 1.384 . S
C662 H684 0.931 . S
C663 C662 1.384 . S
C663 C666 1.382 1_455 S
C664 C662 1.384 . S
C664 C665 1.404 . S
C664 H685 0.930 . S
C665 C664 1.404 . S
C665 C667 1.370 1_455 S
C665 C668 1.479 1_455 S
C666 C663 1.382 1_655 S
C666 C667 1.387 . S
C666 H686 0.930 . S
C667 C665 1.370 1_655 S
C667 C666 1.387 . S
C667 H687 0.931 . S
C668 C665 1.479 1_655 S
C668 C675 1.399 1_655 S
C668 N693 1.319 . S
C669 C670 1.384 . S
C669 C671 1.384 . S
C669 H688 0.931 . S
C670 C669 1.384 . S
C670 C673 1.382 1_655 S
C671 C669 1.384 . S
C671 C672 1.380 . S
C671 H689 0.930 . S
C672 C671 1.380 . S
C672 C674 1.385 1_655 S
C672 C675 1.493 1_655 S
C673 C670 1.382 1_455 S
C673 C674 1.387 . S
C673 H690 0.930 . S
C674 C672 1.385 1_455 S
C674 C673 1.387 . S
C674 H691 0.931 . S
C675 C668 1.399 1_455 S
C675 C672 1.493 1_455 S
C675 N692 1.364 . S
H676 C648 0.931 . S
H677 C650 0.930 . S
H678 C652 0.930 . S
H679 C653 0.931 . S
H680 C655 0.931 . S
H681 C657 0.930 . S
H682 C659 0.930 . S
H683 C660 0.931 . S
H684 C662 0.931 . S
H685 C664 0.930 . S
H686 C666 0.930 . S
H687 C667 0.931 . S
H688 C669 0.931 . S
H689 C671 0.930 . S
H690 C673 0.930 . S
H691 C674 0.931 . S
N692 C654 1.319 . S
N692 C675 1.364 . S
N693 C661 1.364 . S
N693 C668 1.319 . S
C694 C695 1.384 . S
C694 C696 1.384 . S
C694 H722 0.931 . S
C695 C694 1.384 . S
C695 C698 1.382 . S
C696 C694 1.384 . S
C696 C697 1.381 . S
C696 H723 0.930 . S
C697 C696 1.381 . S
C697 C699 1.381 . S
C697 C700 1.487 . S
C698 C695 1.382 . S
C698 C699 1.387 . S
C698 H724 0.930 . S
C699 C697 1.381 . S
C699 C698 1.387 . S
C699 H725 0.931 . S
C700 C697 1.487 . S
C700 C707 1.399 . S
C700 N738 1.343 . S
C701 C702 1.384 . S
C701 C703 1.384 . S
C701 H726 0.931 . S
C702 C701 1.384 . S
C702 C705 1.382 . S
C703 C701 1.384 . S
C703 C704 1.381 . S
C703 H727 0.930 . S
C704 C703 1.381 . S
C704 C706 1.381 . S
C704 C707 1.487 . S
C705 C702 1.382 . S
C705 C706 1.387 . S
C705 H728 0.930 . S
C706 C704 1.381 . S
C706 C705 1.387 . S
C706 H729 0.931 . S
C707 C700 1.399 . S
C707 C704 1.487 . S
C707 N739 1.343 . S
C708 C709 1.384 . S
C708 C710 1.384 . S
C708 H730 0.931 . S
C709 C708 1.384 . S
C709 C712 1.382 . S
C710 C708 1.384 . S
C710 C711 1.381 . S
C710 H731 0.930 . S
C711 C710 1.381 . S
C711 C713 1.381 . S
C711 C714 1.487 . S
C712 C709 1.382 . S
C712 C713 1.387 . S
C712 H732 0.930 . S
C713 C711 1.381 . S
C713 C712 1.387 . S
C713 H733 0.931 . S
C714 C711 1.487 . S
C714 C721 1.399 . S
C714 N739 1.343 . S
C715 C716 1.384 . S
C715 C717 1.384 . S
C715 H734 0.931 . S
C716 C715 1.384 . S
C716 C719 1.382 . S
C717 C715 1.384 . S
C717 C718 1.381 . S
C717 H735 0.930 . S
C718 C717 1.381 . S
C718 C720 1.381 . S
C718 C721 1.487 . S
C719 C716 1.382 . S
C719 C720 1.387 . S
C719 H736 0.930 . S
C720 C718 1.381 . S
C720 C719 1.387 . S
C720 H737 0.931 . S
C721 C714 1.399 . S
C721 C718 1.487 . S
C721 N738 1.343 . S
H722 C694 0.931 . S
H723 C696 0.930 . S
H724 C698 0.930 . S
H725 C699 0.931 . S
H726 C701 0.931 . S
H727 C703 0.930 . S
H728 C705 0.930 . S
H729 C706 0.931 . S
H730 C708 0.931 . S
H731 C710 0.930 . S
H732 C712 0.930 . S
H733 C713 0.931 . S
H734 C715 0.931 . S
H735 C717 0.930 . S
H736 C719 0.930 . S
H737 C720 0.931 . S
N738 C700 1.343 . S
N738 C721 1.343 . S
N739 C707 1.343 . S
N739 C714 1.343 . S
C740 C741 1.384 1_545 S
C740 C742 1.384 . S
C740 H768 0.931 . S
C741 C740 1.384 1_565 S
C741 C744 1.382 . S
C742 C740 1.384 . S
C742 C743 1.381 1_545 S
C742 H769 0.930 . S
C743 C742 1.381 1_565 S
C743 C745 1.381 . S
C743 C746 1.487 . S
C744 C741 1.382 . S
C744 C745 1.387 . S
C744 H770 0.930 . S
C745 C743 1.381 . S
C745 C744 1.387 . S
C745 H771 0.931 . S
C746 C743 1.487 . S
C746 C753 1.399 1_565 S
C746 N784 1.343 . S
C747 C748 1.384 1_565 S
C747 C749 1.384 . S
C747 H772 0.931 . S
C748 C747 1.384 1_545 S
C748 C751 1.382 . S
C749 C747 1.384 . S
C749 C750 1.381 1_565 S
C749 H773 0.930 . S
C750 C749 1.381 1_545 S
C750 C752 1.381 . S
C750 C753 1.487 . S
C751 C748 1.382 . S
C751 C752 1.387 . S
C751 H774 0.930 . S
C752 C750 1.381 . S
C752 C751 1.387 . S
C752 H775 0.931 . S
C753 C746 1.399 1_545 S
C753 C750 1.487 . S
C753 N785 1.343 . S
C754 C755 1.384 1_565 S
C754 C756 1.384 . S
C754 H776 0.931 . S
C755 C754 1.384 1_545 S
C755 C758 1.382 . S
C756 C754 1.384 . S
C756 C757 1.381 1_565 S
C756 H777 0.930 . S
C757 C756 1.381 1_545 S
C757 C759 1.381 . S
C757 C760 1.455 . S
C758 C755 1.382 . S
C758 C759 1.387 . S
C758 H778 0.930 . S
C759 C757 1.381 . S
C759 C758 1.387 . S
C759 H779 0.931 . S
C760 C757 1.455 . S
C760 C767 1.390 1_545 S
C760 N785 1.393 . S
C761 C762 1.384 1_545 S
C761 C763 1.384 . S
C761 H780 0.931 . S
C762 C761 1.384 1_565 S
C762 C765 1.382 . S
C763 C761 1.384 . S
C763 C764 1.381 1_545 S
C763 H781 0.930 . S
C764 C763 1.381 1_565 S
C764 C766 1.381 . S
C764 C767 1.487 . S
C765 C762 1.382 . S
C765 C766 1.387 . S
C765 H782 0.930 . S
C766 C764 1.381 . S
C766 C765 1.387 . S
C766 H783 0.931 . S
C767 C760 1.390 1_565 S
C767 C764 1.487 . S
C767 N784 1.343 . S
H768 C740 0.931 . S
H769 C742 0.930 . S
H770 C744 0.930 . S
H771 C745 0.931 . S
H772 C747 0.931 . S
H773 C749 0.930 . S
H774 C751 0.930 . S
H775 C752 0.931 . S
H776 C754 0.931 . S
H777 C756 0.930 . S
H778 C758 0.930 . S
H779 C759 0.931 . S
H780 C761 0.931 . S
H781 C763 0.930 . S
H782 C765 0.930 . S
H783 C766 0.931 . S
N784 C746 1.343 . S
N784 C767 1.343 . S
N785 C753 1.343 . S
N785 C760 1.393 . S
C786 C787 1.384 . S
C786 C788 1.384 . S
C786 H814 0.931 . S
C787 C786 1.384 . S
C787 C790 1.382 1_545 S
C788 C786 1.384 . S
C788 C789 1.384 . S
C788 H815 0.930 . S
C789 C788 1.384 . S
C789 C791 1.374 1_545 S
C789 C792 1.492 1_545 S
C790 C787 1.382 1_565 S
C790 C791 1.387 . S
C790 H816 0.930 . S
C791 C789 1.374 1_565 S
C791 C790 1.387 . S
C791 H817 0.931 . S
C792 C789 1.492 1_565 S
C792 C799 1.399 1_565 S
C792 N830 1.364 . S
C793 C794 1.384 . S
C793 C795 1.384 . S
C793 H818 0.931 . S
C794 C793 1.384 . S
C794 C797 1.382 1_565 S
C795 C793 1.384 . S
C795 C796 1.385 . S
C795 H819 0.930 . S
C796 C795 1.385 . S
C796 C798 1.379 1_565 S
C796 C799 1.479 1_565 S
C797 C794 1.382 1_545 S
C797 C798 1.387 . S
C797 H820 0.930 . S
C798 C796 1.379 1_545 S
C798 C797 1.387 . S
C798 H821 0.931 . S
C799 C792 1.399 1_545 S
C799 C796 1.479 1_545 S
C799 N831 1.318 . S
C800 C801 1.384 . S
C800 C802 1.384 . S
C800 H822 0.931 . S
C801 C800 1.384 . S
C801 C804 1.382 1_565 S
C802 C800 1.384 . S
C802 C803 1.380 . S
C802 H823 0.930 . S
C803 C802 1.380 . S
C803 C805 1.386 1_565 S
C803 C806 1.492 1_565 S
C804 C801 1.382 1_545 S
C804 C805 1.387 . S
C804 H824 0.930 . S
C805 C803 1.386 1_545 S
C805 C804 1.387 . S
C805 H825 0.931 . S
C806 C803 1.492 1_545 S
C806 C813 1.399 1_545 S
C806 N831 1.364 . S
C807 C808 1.384 . S
C807 C809 1.384 . S
C807 H826 0.931 . S
C808 C807 1.384 . S
C808 C811 1.382 1_545 S
C809 C807 1.384 . S
C809 C810 1.405 . S
C809 H827 0.930 . S
C810 C809 1.405 . S
C810 C812 1.369 1_545 S
C810 C813 1.479 1_545 S
C811 C808 1.382 1_565 S
C811 C812 1.387 . S
C811 H828 0.930 . S
C812 C810 1.369 1_565 S
C812 C811 1.387 . S
C812 H829 0.931 . S
C813 C806 1.399 1_565 S
C813 C810 1.479 1_565 S
C813 N830 1.318 . S
H814 C786 0.931 . S
H815 C788 0.930 . S
H816 C790 0.930 . S
H817 C791 0.931 . S
H818 C793 0.931 . S
H819 C795 0.930 . S
H820 C797 0.930 . S
H821 C798 0.931 . S
H822 C800 0.931 . S
H823 C802 0.930 . S
H824 C804 0.930 . S
H825 C805 0.931 . S
H826 C807 0.931 . S
H827 C809 0.930 . S
H828 C811 0.930 . S
H829 C812 0.931 . S
N830 C792 1.364 . S
N830 C813 1.318 . S
N831 C799 1.318 . S
N831 C806 1.364 . S
C832 C833 1.384 . S
C832 C834 1.384 . S
C832 H860 0.931 . S
C833 C832 1.384 . S
C833 C836 1.382 1_655 S
C834 C832 1.384 . S
C834 C835 1.405 . S
C834 H861 0.930 . S
C835 C834 1.405 . S
C835 C837 1.369 1_655 S
C835 C838 1.479 1_655 S
C836 C833 1.382 1_455 S
C836 C837 1.387 . S
C836 H862 0.930 . S
C837 C835 1.369 1_455 S
C837 C836 1.387 . S
C837 H863 0.931 . S
C838 C835 1.479 1_455 S
C838 C845 1.399 1_455 S
C838 N876 1.319 . S
C839 C840 1.384 . S
C839 C841 1.384 . S
C839 H864 0.931 . S
C840 C839 1.384 . S
C840 C843 1.382 1_455 S
C841 C839 1.384 . S
C841 C842 1.381 . S
C841 H865 0.930 . S
C842 C841 1.381 . S
C842 C844 1.383 1_455 S
C842 C845 1.493 1_455 S
C843 C840 1.382 1_655 S
C843 C844 1.387 . S
C843 H866 0.930 . S
C844 C842 1.383 1_655 S
C844 C843 1.387 . S
C844 H867 0.931 . S
C845 C838 1.399 1_655 S
C845 C842 1.493 1_655 S
C845 N877 1.364 . S
C846 C847 1.384 . S
C846 C848 1.384 . S
C846 H868 0.931 . S
C847 C846 1.384 . S
C847 C850 1.382 1_455 S
C848 C846 1.384 . S
C848 C849 1.385 . S
C848 H869 0.930 . S
C849 C848 1.385 . S
C849 C851 1.379 1_455 S
C849 C852 1.479 1_455 S
C850 C847 1.382 1_655 S
C850 C851 1.387 . S
C850 H870 0.930 . S
C851 C849 1.379 1_655 S
C851 C850 1.387 . S
C851 H871 0.931 . S
C852 C849 1.479 1_655 S
C852 C859 1.399 1_655 S
C852 N877 1.319 . S
C853 C854 1.384 . S
C853 C855 1.384 . S
C853 H872 0.931 . S
C854 C853 1.384 . S
C854 C857 1.382 1_655 S
C855 C853 1.384 . S
C855 C856 1.385 . S
C855 H873 0.930 . S
C856 C855 1.385 . S
C856 C858 1.372 1_655 S
C856 C859 1.493 1_655 S
C857 C854 1.382 1_455 S
C857 C858 1.387 . S
C857 H874 0.930 . S
C858 C856 1.372 1_455 S
C858 C857 1.387 . S
C858 H875 0.931 . S
C859 C852 1.399 1_455 S
C859 C856 1.493 1_455 S
C859 N876 1.364 . S
H860 C832 0.931 . S
H861 C834 0.930 . S
H862 C836 0.930 . S
H863 C837 0.931 . S
H864 C839 0.931 . S
H865 C841 0.930 . S
H866 C843 0.930 . S
H867 C844 0.931 . S
H868 C846 0.931 . S
H869 C848 0.930 . S
H870 C850 0.930 . S
H871 C851 0.931 . S
H872 C853 0.931 . S
H873 C855 0.930 . S
H874 C857 0.930 . S
H875 C858 0.931 . S
N876 C838 1.319 . S
N876 C859 1.364 . S
N877 C845 1.364 . S
N877 C852 1.319 . S
C878 C879 1.384 . S
C878 C880 1.384 . S
C878 H906 0.931 . S
C879 C878 1.384 . S
C879 C882 1.382 . S
C880 C878 1.384 . S
C880 C881 1.381 . S
C880 H907 0.930 . S
C881 C880 1.381 . S
C881 C883 1.381 . S
C881 C884 1.487 . S
C882 C879 1.382 . S
C882 C883 1.387 . S
C882 H908 0.930 . S
C883 C881 1.381 . S
C883 C882 1.387 . S
C883 H909 0.931 . S
C884 C881 1.487 . S
C884 C891 1.399 . S
C884 N922 1.343 . S
C885 C886 1.384 . S
C885 C887 1.384 . S
C885 H910 0.931 . S
C886 C885 1.384 . S
C886 C889 1.382 . S
C887 C885 1.384 . S
C887 C888 1.381 . S
C887 H911 0.930 . S
C888 C887 1.381 . S
C888 C890 1.381 . S
C888 C891 1.487 . S
C889 C886 1.382 . S
C889 C890 1.387 . S
C889 H912 0.930 . S
C890 C888 1.381 . S
C890 C889 1.387 . S
C890 H913 0.931 . S
C891 C884 1.399 . S
C891 C888 1.487 . S
C891 N923 1.343 . S
C892 C893 1.384 . S
C892 C894 1.384 . S
C892 H914 0.931 . S
C893 C892 1.384 . S
C893 C896 1.382 . S
C894 C892 1.384 . S
C894 C895 1.381 . S
C894 H915 0.930 . S
C895 C894 1.381 . S
C895 C897 1.381 . S
C895 C898 1.487 . S
C896 C893 1.382 . S
C896 C897 1.387 . S
C896 H916 0.930 . S
C897 C895 1.381 . S
C897 C896 1.387 . S
C897 H917 0.931 . S
C898 C895 1.487 . S
C898 C905 1.399 . S
C898 N923 1.343 . S
C899 C900 1.384 . S
C899 C901 1.384 . S
C899 H918 0.931 . S
C900 C899 1.384 . S
C900 C903 1.382 . S
C901 C899 1.384 . S
C901 C902 1.381 . S
C901 H919 0.930 . S
C902 C901 1.381 . S
C902 C904 1.381 . S
C902 C905 1.487 . S
C903 C900 1.382 . S
C903 C904 1.387 . S
C903 H920 0.930 . S
C904 C902 1.381 . S
C904 C903 1.387 . S
C904 H921 0.931 . S
C905 C898 1.399 . S
C905 C902 1.487 . S
C905 N922 1.343 . S
H906 C878 0.931 . S
H907 C880 0.930 . S
H908 C882 0.930 . S
H909 C883 0.931 . S
H910 C885 0.931 . S
H911 C887 0.930 . S
H912 C889 0.930 . S
H913 C890 0.931 . S
H914 C892 0.931 . S
H915 C894 0.930 . S
H916 C896 0.930 . S
H917 C897 0.931 . S
H918 C899 0.931 . S
H919 C901 0.930 . S
H920 C903 0.930 . S
H921 C904 0.931 . S
N922 C884 1.343 . S
N922 C905 1.343 . S
N923 C891 1.343 . S
N923 C898 1.343 . S
C924 C925 1.384 . S
C924 C926 1.384 . S
C924 H952 0.931 . S
C925 C924 1.384 . S
C925 C928 1.382 . S
C926 C924 1.384 . S
C926 C927 1.381 . S
C926 H953 0.930 . S
C927 C926 1.381 . S
C927 C929 1.381 . S
C927 C930 1.487 . S
C928 C925 1.382 . S
C928 C929 1.387 . S
C928 H954 0.930 . S
C929 C927 1.381 . S
C929 C928 1.387 . S
C929 H955 0.931 . S
C930 C927 1.487 . S
C930 C937 1.399 . S
C930 N968 1.343 . S
C931 C932 1.384 . S
C931 C933 1.384 . S
C931 H956 0.931 . S
C932 C931 1.384 . S
C932 C935 1.382 . S
C933 C931 1.384 . S
C933 C934 1.381 . S
C933 H957 0.930 . S
C934 C933 1.381 . S
C934 C936 1.381 . S
C934 C937 1.487 . S
C935 C932 1.382 . S
C935 C936 1.387 . S
C935 H958 0.930 . S
C936 C934 1.381 . S
C936 C935 1.387 . S
C936 H959 0.931 . S
C937 C930 1.399 . S
C937 C934 1.487 . S
C937 N969 1.343 . S
C938 C939 1.384 . S
C938 C940 1.384 . S
C938 H960 0.931 . S
C939 C938 1.384 . S
C939 C942 1.382 . S
C940 C938 1.384 . S
C940 C941 1.381 . S
C940 H961 0.930 . S
C941 C940 1.381 . S
C941 C943 1.381 . S
C941 C944 1.487 . S
C942 C939 1.382 . S
C942 C943 1.387 . S
C942 H962 0.930 . S
C943 C941 1.381 . S
C943 C942 1.387 . S
C943 H963 0.931 . S
C944 C941 1.487 . S
C944 C951 1.399 . S
C944 N969 1.343 . S
C945 C946 1.384 . S
C945 C947 1.384 . S
C945 H964 0.931 . S
C946 C945 1.384 . S
C946 C949 1.382 . S
C947 C945 1.384 . S
C947 C948 1.381 . S
C947 H965 0.930 . S
C948 C947 1.381 . S
C948 C950 1.381 . S
C948 C951 1.487 . S
C949 C946 1.382 . S
C949 C950 1.387 . S
C949 H966 0.930 . S
C950 C948 1.381 . S
C950 C949 1.387 . S
C950 H967 0.931 . S
C951 C944 1.399 . S
C951 C948 1.487 . S
C951 N968 1.343 . S
H952 C924 0.931 . S
H953 C926 0.930 . S
H954 C928 0.930 . S
H955 C929 0.931 . S
H956 C931 0.931 . S
H957 C933 0.930 . S
H958 C935 0.930 . S
H959 C936 0.931 . S
H960 C938 0.931 . S
H961 C940 0.930 . S
H962 C942 0.930 . S
H963 C943 0.931 . S
H964 C945 0.931 . S
H965 C947 0.930 . S
H966 C949 0.930 . S
H967 C950 0.931 . S
N968 C930 1.343 . S
N968 C951 1.343 . S
N969 C937 1.343 . S
N969 C944 1.343 . S
C970 C971 1.384 . S
C970 C972 1.384 . S
C970 H998 0.931 . S
C971 C970 1.384 . S
C971 C974 1.382 . S
C972 C970 1.384 . S
C972 C973 1.381 . S
C972 H999 0.930 . S
C973 C972 1.381 . S
C973 C975 1.381 . S
C973 C976 1.487 . S
C974 C971 1.382 . S
C974 C975 1.387 . S
C974 H1000 0.930 . S
C975 C973 1.381 . S
C975 C974 1.387 . S
C975 H1001 0.931 . S
C976 C973 1.487 . S
C976 C983 1.399 . S
C976 N1014 1.343 . S
C977 C978 1.384 . S
C977 C979 1.384 . S
C977 H1002 0.931 . S
C978 C977 1.384 . S
C978 C981 1.382 . S
C979 C977 1.384 . S
C979 C980 1.381 . S
C979 H1003 0.930 . S
C980 C979 1.381 . S
C980 C982 1.381 . S
C980 C983 1.487 . S
C981 C978 1.382 . S
C981 C982 1.387 . S
C981 H1004 0.930 . S
C982 C980 1.381 . S
C982 C981 1.387 . S
C982 H1005 0.931 . S
C983 C976 1.399 . S
C983 C980 1.487 . S
C983 N1015 1.343 . S
C984 C985 1.384 . S
C984 C986 1.384 . S
C984 H1006 0.931 . S
C985 C984 1.384 . S
C985 C988 1.382 . S
C986 C984 1.384 . S
C986 C987 1.381 . S
C986 H1007 0.930 . S
C987 C986 1.381 . S
C987 C989 1.381 . S
C987 C990 1.487 . S
C988 C985 1.382 . S
C988 C989 1.387 . S
C988 H1008 0.930 . S
C989 C987 1.381 . S
C989 C988 1.387 . S
C989 H1009 0.931 . S
C990 C987 1.487 . S
C990 C997 1.399 . S
C990 N1015 1.343 . S
C991 C992 1.384 . S
C991 C993 1.384 . S
C991 H1010 0.931 . S
C992 C991 1.384 . S
C992 C995 1.382 . S
C993 C991 1.384 . S
C993 C994 1.381 . S
C993 H1011 0.930 . S
C994 C993 1.381 . S
C994 C996 1.381 . S
C994 C997 1.487 . S
C995 C992 1.382 . S
C995 C996 1.387 . S
C995 H1012 0.930 . S
C996 C994 1.381 . S
C996 C995 1.387 . S
C996 H1013 0.931 . S
C997 C990 1.399 . S
C997 C994 1.487 . S
C997 N1014 1.343 . S
H998 C970 0.931 . S
H999 C972 0.930 . S
H1000 C974 0.930 . S
H1001 C975 0.931 . S
H1002 C977 0.931 . S
H1003 C979 0.930 . S
H1004 C981 0.930 . S
H1005 C982 0.931 . S
H1006 C984 0.931 . S
H1007 C986 0.930 . S
H1008 C988 0.930 . S
H1009 C989 0.931 . S
H1010 C991 0.931 . S
H1011 C993 0.930 . S
H1012 C995 0.930 . S
H1013 C996 0.931 . S
N1014 C976 1.343 . S
N1014 C997 1.343 . S
N1015 C983 1.343 . S
N1015 C990 1.343 . S
C1016 C1017 1.384 . S
C1016 C1018 1.384 . S
C1016 H1044 0.931 . S
C1017 C1016 1.384 . S
C1017 C1020 1.382 . S
C1018 C1016 1.384 . S
C1018 C1019 1.381 . S
C1018 H1045 0.930 . S
C1019 C1018 1.381 . S
C1019 C1021 1.381 . S
C1019 C1022 1.487 . S
C1020 C1017 1.382 . S
C1020 C1021 1.387 . S
C1020 H1046 0.930 . S
C1021 C1019 1.381 . S
C1021 C1020 1.387 . S
C1021 H1047 0.931 . S
C1022 C1019 1.487 . S
C1022 C1029 1.399 . S
C1022 N1060 1.343 . S
C1023 C1024 1.384 . S
C1023 C1025 1.384 . S
C1023 H1048 0.931 . S
C1024 C1023 1.384 . S
C1024 C1027 1.382 . S
C1025 C1023 1.384 . S
C1025 C1026 1.381 . S
C1025 H1049 0.930 . S
C1026 C1025 1.381 . S
C1026 C1028 1.381 . S
C1026 C1029 1.487 . S
C1027 C1024 1.382 . S
C1027 C1028 1.387 . S
C1027 H1050 0.930 . S
C1028 C1026 1.381 . S
C1028 C1027 1.387 . S
C1028 H1051 0.931 . S
C1029 C1022 1.399 . S
C1029 C1026 1.487 . S
C1029 N1061 1.343 . S
C1030 C1031 1.384 . S
C1030 C1032 1.384 . S
C1030 H1052 0.931 . S
C1031 C1030 1.384 . S
C1031 C1034 1.382 . S
C1032 C1030 1.384 . S
C1032 C1033 1.381 . S
C1032 H1053 0.930 . S
C1033 C1032 1.381 . S
C1033 C1035 1.381 . S
C1033 C1036 1.487 . S
C1034 C1031 1.382 . S
C1034 C1035 1.387 . S
C1034 H1054 0.930 . S
C1035 C1033 1.381 . S
C1035 C1034 1.387 . S
C1035 H1055 0.931 . S
C1036 C1033 1.487 . S
C1036 C1043 1.399 . S
C1036 N1061 1.343 . S
C1037 C1038 1.384 . S
C1037 C1039 1.384 . S
C1037 H1056 0.931 . S
C1038 C1037 1.384 . S
C1038 C1041 1.382 . S
C1039 C1037 1.384 . S
C1039 C1040 1.381 . S
C1039 H1057 0.930 . S
C1040 C1039 1.381 . S
C1040 C1042 1.381 . S
C1040 C1043 1.487 . S
C1041 C1038 1.382 . S
C1041 C1042 1.387 . S
C1041 H1058 0.930 . S
C1042 C1040 1.381 . S
C1042 C1041 1.387 . S
C1042 H1059 0.931 . S
C1043 C1036 1.399 . S
C1043 C1040 1.487 . S
C1043 N1060 1.343 . S
H1044 C1016 0.931 . S
H1045 C1018 0.930 . S
H1046 C1020 0.930 . S
H1047 C1021 0.931 . S
H1048 C1023 0.931 . S
H1049 C1025 0.930 . S
H1050 C1027 0.930 . S
H1051 C1028 0.931 . S
H1052 C1030 0.931 . S
H1053 C1032 0.930 . S
H1054 C1034 0.930 . S
H1055 C1035 0.931 . S
H1056 C1037 0.931 . S
H1057 C1039 0.930 . S
H1058 C1041 0.930 . S
H1059 C1042 0.931 . S
N1060 C1022 1.343 . S
N1060 C1043 1.343 . S
N1061 C1029 1.343 . S
N1061 C1036 1.343 . S
H1062 C1070 0.929 . S
H1063 C1072 0.930 . S
H1064 C1074 0.930 . S
H1065 C1077 0.929 . S
H1066 C1080 0.930 . S
H1067 C1082 0.960 . S
H1068 C1082 0.960 . S
H1069 C1082 0.960 . S
C1070 H1062 0.929 . S
C1070 C1071 1.379 1_455 S
C1070 C1072 1.384 . S
C1071 C1070 1.379 1_655 S
C1071 C1077 1.391 . S
C1072 H1063 0.930 . S
C1072 C1070 1.384 . S
C1072 C1073 1.366 1_455 S
C1073 C1072 1.366 1_655 S
C1073 C1074 1.394 . S
C1073 C1078 1.467 . S
C1074 H1064 0.930 . S
C1074 C1073 1.394 . S
C1074 C1077 1.386 . S
H1075 C1091 0.930 . S
H1076 C1092 0.931 . S
C1077 H1065 0.929 . S
C1077 C1071 1.391 . S
C1077 C1074 1.386 . S
C1078 C1073 1.467 . S
C1078 C1080 1.479 . S
C1078 C1081 1.359 1_655 S
H1079 C1085 0.930 . S
C1080 H1066 0.930 . S
C1080 C1078 1.479 . S
C1080 C1083 1.403 . S
C1081 C1078 1.359 1_455 S
C1081 C1082 1.524 . S
C1081 C1085 1.400 . S
C1082 H1067 0.960 . S
C1082 H1068 0.960 . S
C1082 H1069 0.960 . S
C1082 C1081 1.524 . S
C1083 C1080 1.403 . S
C1083 C1084 1.392 . S
C1083 C1087 1.495 . S
C1084 C1083 1.392 . S
C1084 C1085 1.385 1_655 S
C1084 C1086 1.478 . S
C1085 H1079 0.930 . S
C1085 C1081 1.400 . S
C1085 C1084 1.385 1_455 S
C1086 C1084 1.478 . S
C1086 C1088 1.381 1_655 S
C1086 C1092 1.383 . S
C1087 C1083 1.495 . S
C1087 H1093 0.959 . S
C1087 H1094 0.961 . S
C1087 H1095 0.960 . S
C1088 C1086 1.381 1_455 S
C1088 C1089 1.394 . S
C1088 H1096 0.930 . S
C1089 C1088 1.394 . S
C1089 C1090 1.383 1_455 S
C1089 H1097 0.929 . S
C1090 C1089 1.383 1_655 S
C1090 C1091 1.377 . S
C1091 H1075 0.930 . S
C1091 C1090 1.377 . S
C1091 C1092 1.379 . S
C1092 H1076 0.931 . S
C1092 C1086 1.383 . S
C1092 C1091 1.379 . S
H1093 C1087 0.959 . S
H1094 C1087 0.961 . S
H1095 C1087 0.960 . S
H1096 C1088 0.930 . S
H1097 C1089 0.929 . S
H1098 C1106 0.929 . S
H1099 C1108 0.930 . S
H1100 C1110 0.930 . S
H1101 C1113 0.929 . S
H1102 C1116 0.930 . S
H1103 C1118 0.960 . S
H1104 C1118 0.960 . S
H1105 C1118 0.960 . S
C1106 H1098 0.929 . S
C1106 C1107 1.377 . S
C1106 C1108 1.384 . S
C1107 C1106 1.377 . S
C1107 C1113 1.390 . S
C1108 H1099 0.930 . S
C1108 C1106 1.384 . S
C1108 C1109 1.372 . S
C1109 C1108 1.372 . S
C1109 C1110 1.400 . S
C1109 C1114 1.490 . S
C1110 H1100 0.930 . S
C1110 C1109 1.400 . S
C1110 C1113 1.386 . S
H1111 C1127 0.930 . S
H1112 C1128 0.931 . S
C1113 H1101 0.929 . S
C1113 C1107 1.390 . S
C1113 C1110 1.386 . S
C1114 C1109 1.490 . S
C1114 C1116 1.395 . S
C1114 C1117 1.403 . S
H1115 C1121 0.930 . S
C1116 H1102 0.930 . S
C1116 C1114 1.395 . S
C1116 C1119 1.403 . S
C1117 C1114 1.403 . S
C1117 C1118 1.524 . S
C1117 C1121 1.400 . S
C1118 H1103 0.960 . S
C1118 H1104 0.960 . S
C1118 H1105 0.960 . S
C1118 C1117 1.524 . S
C1119 C1116 1.403 . S
C1119 C1120 1.392 . S
C1119 C1123 1.495 . S
C1120 C1119 1.392 . S
C1120 C1121 1.385 . S
C1120 C1122 1.478 . S
C1121 H1115 0.930 . S
C1121 C1117 1.400 . S
C1121 C1120 1.385 . S
C1122 C1120 1.478 . S
C1122 C1124 1.381 . S
C1122 C1128 1.383 . S
C1123 C1119 1.495 . S
C1123 H1129 0.959 . S
C1123 H1130 0.961 . S
C1123 H1131 0.960 . S
C1124 C1122 1.381 . S
C1124 C1125 1.394 . S
C1124 H1132 0.930 . S
C1125 C1124 1.394 . S
C1125 C1126 1.383 . S
C1125 H1133 0.929 . S
C1126 C1125 1.383 . S
C1126 C1127 1.377 . S
C1127 H1111 0.930 . S
C1127 C1126 1.377 . S
C1127 C1128 1.379 . S
C1128 H1112 0.931 . S
C1128 C1122 1.383 . S
C1128 C1127 1.379 . S
H1129 C1123 0.959 . S
H1130 C1123 0.961 . S
H1131 C1123 0.960 . S
H1132 C1124 0.930 . S
H1133 C1125 0.929 . S
H1134 C1142 0.929 . S
H1135 C1144 0.930 . S
H1136 C1146 0.930 . S
H1137 C1149 0.929 . S
H1138 C1152 0.930 . S
H1139 C1154 0.960 . S
H1140 C1154 0.960 1_545 S
H1141 C1154 0.960 . S
C1142 H1134 0.929 . S
C1142 C1143 1.377 . S
C1142 C1144 1.384 . S
C1143 C1142 1.377 . S
C1143 C1149 1.390 1_545 S
C1144 H1135 0.930 . S
C1144 C1142 1.384 . S
C1144 C1145 1.372 . S
C1145 C1144 1.372 . S
C1145 C1146 1.400 1_545 S
C1145 C1150 1.490 . S
C1146 H1136 0.930 . S
C1146 C1145 1.400 1_565 S
C1146 C1149 1.386 . S
H1147 C1163 0.930 . S
H1148 C1164 0.931 . S
C1149 H1137 0.929 . S
C1149 C1143 1.390 1_565 S
C1149 C1146 1.386 . S
C1150 C1145 1.490 . S
C1150 C1152 1.395 . S
C1150 C1153 1.377 1_545 S
H1151 C1157 0.944 . S
C1152 H1138 0.930 . S
C1152 C1150 1.395 . S
C1152 C1155 1.403 . S
C1153 C1150 1.377 1_565 S
C1153 C1154 1.539 . S
C1153 C1157 1.406 . S
C1154 H1139 0.960 . S
C1154 H1140 0.960 1_565 S
C1154 H1141 0.960 . S
C1154 C1153 1.539 . S
C1155 C1152 1.403 . S
C1155 C1156 1.392 . S
C1155 C1159 1.495 . S
C1156 C1155 1.392 . S
C1156 C1157 1.378 1_545 S
C1156 C1158 1.478 . S
C1157 H1151 0.944 . S
C1157 C1153 1.406 . S
C1157 C1156 1.378 1_565 S
C1158 C1156 1.478 . S
C1158 C1160 1.381 . S
C1158 C1164 1.383 1_545 S
C1159 C1155 1.495 . S
C1159 H1165 0.959 . S
C1159 H1166 0.961 . S
C1159 H1167 0.960 . S
C1160 C1158 1.381 . S
C1160 C1161 1.394 . S
C1160 H1168 0.930 . S
C1161 C1160 1.394 . S
C1161 C1162 1.383 . S
C1161 H1169 0.929 . S
C1162 C1161 1.383 . S
C1162 C1163 1.377 1_545 S
C1163 H1147 0.930 . S
C1163 C1162 1.377 1_565 S
C1163 C1164 1.379 . S
C1164 H1148 0.931 . S
C1164 C1158 1.383 1_565 S
C1164 C1163 1.379 . S
H1165 C1159 0.959 . S
H1166 C1159 0.961 . S
H1167 C1159 0.960 . S
H1168 C1160 0.930 . S
H1169 C1161 0.929 . S
H1170 C1178 0.929 . S
H1171 C1180 0.930 . S
H1172 C1182 0.930 . S
H1173 C1185 0.929 . S
H1174 C1188 0.930 . S
H1175 C1190 0.960 . S
H1176 C1190 0.960 . S
H1177 C1190 0.960 . S
C1178 H1170 0.929 . S
C1178 C1179 1.378 . S
C1178 C1180 1.384 . S
C1179 C1178 1.378 . S
C1179 C1185 1.391 1_545 S
C1180 H1171 0.930 . S
C1180 C1178 1.384 . S
C1180 C1181 1.370 1_545 S
C1181 C1180 1.370 1_565 S
C1181 C1182 1.399 . S
C1181 C1186 1.468 . S
C1182 H1172 0.930 . S
C1182 C1181 1.399 . S
C1182 C1185 1.386 . S
H1183 C1199 0.930 . S
H1184 C1200 0.931 . S
C1185 H1173 0.929 . S
C1185 C1179 1.391 1_565 S
C1185 C1182 1.386 . S
C1186 C1181 1.468 . S
C1186 C1188 1.451 . S
C1186 C1189 1.374 1_565 S
H1187 C1193 0.930 . S
C1188 H1174 0.930 . S
C1188 C1186 1.451 . S
C1188 C1191 1.403 . S
C1189 C1186 1.374 1_545 S
C1189 C1190 1.524 . S
C1189 C1193 1.400 . S
C1190 H1175 0.960 . S
C1190 H1176 0.960 . S
C1190 H1177 0.960 . S
C1190 C1189 1.524 . S
C1191 C1188 1.403 . S
C1191 C1192 1.392 . S
C1191 C1195 1.495 . S
C1192 C1191 1.392 . S
C1192 C1193 1.385 1_565 S
C1192 C1194 1.478 . S
C1193 H1187 0.930 . S
C1193 C1189 1.400 . S
C1193 C1192 1.385 1_545 S
C1194 C1192 1.478 . S
C1194 C1196 1.381 1_565 S
C1194 C1200 1.383 . S
C1195 C1191 1.495 . S
C1195 H1201 0.959 . S
C1195 H1202 0.961 . S
C1195 H1203 0.960 . S
C1196 C1194 1.381 1_545 S
C1196 C1197 1.394 . S
C1196 H1204 0.930 . S
C1197 C1196 1.394 . S
C1197 C1198 1.383 1_545 S
C1197 H1205 0.929 . S
C1198 C1197 1.383 1_565 S
C1198 C1199 1.377 . S
C1199 H1183 0.930 . S
C1199 C1198 1.377 . S
C1199 C1200 1.379 . S
C1200 H1184 0.931 . S
C1200 C1194 1.383 . S
C1200 C1199 1.379 . S
H1201 C1195 0.959 . S
H1202 C1195 0.961 . S
H1203 C1195 0.960 . S
H1204 C1196 0.930 . S
H1205 C1197 0.929 . S
H1206 C1214 0.929 . S
H1207 C1216 0.930 . S
H1208 C1218 0.930 . S
H1209 C1221 0.929 . S
H1210 C1224 0.930 . S
H1211 C1226 0.960 . S
H1212 C1226 0.960 . S
H1213 C1226 0.960 . S
C1214 H1206 0.929 . S
C1214 C1215 1.377 . S
C1214 C1216 1.384 . S
C1215 C1214 1.377 . S
C1215 C1221 1.390 1_455 S
C1216 H1207 0.930 . S
C1216 C1214 1.384 . S
C1216 C1217 1.372 . S
C1217 C1216 1.372 . S
C1217 C1218 1.400 1_455 S
C1217 C1222 1.490 . S
C1218 H1208 0.930 . S
C1218 C1217 1.400 1_655 S
C1218 C1221 1.386 . S
H1219 C1235 0.930 . S
H1220 C1236 0.931 . S
C1221 H1209 0.929 . S
C1221 C1215 1.390 1_655 S
C1221 C1218 1.386 . S
C1222 C1217 1.490 . S
C1222 C1224 1.395 . S
C1222 C1225 1.403 1_455 S
H1223 C1229 0.930 . S
C1224 H1210 0.930 . S
C1224 C1222 1.395 . S
C1224 C1227 1.403 . S
C1225 C1222 1.403 1_655 S
C1225 C1226 1.524 . S
C1225 C1229 1.400 . S
C1226 H1211 0.960 . S
C1226 H1212 0.960 . S
C1226 H1213 0.960 . S
C1226 C1225 1.524 . S
C1227 C1224 1.403 . S
C1227 C1228 1.392 . S
C1227 C1231 1.495 . S
C1228 C1227 1.392 . S
C1228 C1229 1.385 1_455 S
C1228 C1230 1.478 . S
C1229 H1223 0.930 . S
C1229 C1225 1.400 . S
C1229 C1228 1.385 1_655 S
C1230 C1228 1.478 . S
C1230 C1232 1.381 . S
C1230 C1236 1.383 1_455 S
C1231 C1227 1.495 . S
C1231 H1237 0.959 . S
C1231 H1238 0.961 . S
C1231 H1239 0.960 . S
C1232 C1230 1.381 . S
C1232 C1233 1.394 . S
C1232 H1240 0.930 . S
C1233 C1232 1.394 . S
C1233 C1234 1.383 . S
C1233 H1241 0.929 . S
C1234 C1233 1.383 . S
C1234 C1235 1.377 1_455 S
C1235 H1219 0.930 . S
C1235 C1234 1.377 1_655 S
C1235 C1236 1.379 . S
C1236 H1220 0.931 . S
C1236 C1230 1.383 1_655 S
C1236 C1235 1.379 . S
H1237 C1231 0.959 . S
H1238 C1231 0.961 . S
H1239 C1231 0.960 . S
H1240 C1232 0.930 . S
H1241 C1233 0.929 . S
H1242 C1250 0.929 . S
H1243 C1252 0.930 . S
H1244 C1254 0.930 . S
H1245 C1257 0.929 . S
H1246 C1260 0.930 . S
H1247 C1262 0.960 . S
H1248 C1262 0.960 . S
H1249 C1262 0.960 . S
C1250 H1242 0.929 . S
C1250 C1251 1.377 . S
C1250 C1252 1.384 . S
C1251 C1250 1.377 . S
C1251 C1257 1.390 . S
C1252 H1243 0.930 . S
C1252 C1250 1.384 . S
C1252 C1253 1.372 . S
C1253 C1252 1.372 . S
C1253 C1254 1.400 . S
C1253 C1258 1.490 . S
C1254 H1244 0.930 . S
C1254 C1253 1.400 . S
C1254 C1257 1.386 . S
H1255 C1271 0.930 . S
H1256 C1272 0.931 . S
C1257 H1245 0.929 . S
C1257 C1251 1.390 . S
C1257 C1254 1.386 . S
C1258 C1253 1.490 . S
C1258 C1260 1.395 . S
C1258 C1261 1.403 . S
H1259 C1265 0.930 . S
C1260 H1246 0.930 . S
C1260 C1258 1.395 . S
C1260 C1263 1.403 . S
C1261 C1258 1.403 . S
C1261 C1262 1.524 . S
C1261 C1265 1.400 . S
C1262 H1247 0.960 . S
C1262 H1248 0.960 . S
C1262 H1249 0.960 . S
C1262 C1261 1.524 . S
C1263 C1260 1.403 . S
C1263 C1264 1.392 . S
C1263 C1267 1.495 . S
C1264 C1263 1.392 . S
C1264 C1265 1.385 . S
C1264 C1266 1.478 . S
C1265 H1259 0.930 . S
C1265 C1261 1.400 . S
C1265 C1264 1.385 . S
C1266 C1264 1.478 . S
C1266 C1268 1.381 . S
C1266 C1272 1.383 . S
C1267 C1263 1.495 . S
C1267 H1273 0.959 . S
C1267 H1274 0.961 . S
C1267 H1275 0.960 . S
C1268 C1266 1.381 . S
C1268 C1269 1.394 . S
C1268 H1276 0.930 . S
C1269 C1268 1.394 . S
C1269 C1270 1.383 . S
C1269 H1277 0.929 . S
C1270 C1269 1.383 . S
C1270 C1271 1.377 . S
C1271 H1255 0.930 . S
C1271 C1270 1.377 . S
C1271 C1272 1.379 . S
C1272 H1256 0.931 . S
C1272 C1266 1.383 . S
C1272 C1271 1.379 . S
H1273 C1267 0.959 . S
H1274 C1267 0.961 . S
H1275 C1267 0.960 . S
H1276 C1268 0.930 . S
H1277 C1269 0.929 . S
H1278 C1286 0.929 . S
H1279 C1288 0.930 . S
H1280 C1290 0.930 . S
H1281 C1293 0.929 . S
H1282 C1296 0.930 . S
H1283 C1298 0.960 . S
H1284 C1298 0.960 . S
H1285 C1298 0.960 . S
C1286 H1278 0.929 . S
C1286 C1287 1.377 1_655 S
C1286 C1288 1.384 . S
C1287 C1286 1.377 1_455 S
C1287 C1293 1.390 . S
C1288 H1279 0.930 . S
C1288 C1286 1.384 . S
C1288 C1289 1.372 1_655 S
C1289 C1288 1.372 1_455 S
C1289 C1290 1.400 . S
C1289 C1294 1.465 . S
C1290 H1280 0.930 . S
C1290 C1289 1.400 . S
C1290 C1293 1.386 . S
H1291 C1307 0.930 . S
H1292 C1308 0.931 . S
C1293 H1281 0.929 . S
C1293 C1287 1.390 . S
C1293 C1290 1.386 . S
C1294 C1289 1.465 . S
C1294 C1296 1.341 1_455 S
C1294 C1297 1.483 . S
H1295 C1301 0.930 . S
C1296 H1282 0.930 . S
C1296 C1294 1.341 1_655 S
C1296 C1299 1.403 . S
C1297 C1294 1.483 . S
C1297 C1298 1.524 . S
C1297 C1301 1.400 . S
C1298 H1283 0.960 . S
C1298 H1284 0.960 . S
C1298 H1285 0.960 . S
C1298 C1297 1.524 . S
C1299 C1296 1.403 . S
C1299 C1300 1.469 . S
C1299 C1303 1.495 . S
C1300 C1299 1.469 . S
C1300 C1301 1.334 1_655 S
C1300 C1302 1.472 . S
C1301 H1295 0.930 . S
C1301 C1297 1.400 . S
C1301 C1300 1.334 1_455 S
C1302 C1300 1.472 . S
C1302 C1304 1.382 . S
C1302 C1308 1.358 1_655 S
C1303 C1299 1.495 . S
C1303 H1309 0.959 . S
C1303 H1310 0.961 . S
C1303 H1311 0.960 . S
C1304 C1302 1.382 . S
C1304 C1305 1.394 . S
C1304 H1312 0.930 . S
C1305 C1304 1.394 . S
C1305 C1306 1.383 1_655 S
C1305 H1313 0.929 . S
C1306 C1305 1.383 1_455 S
C1306 C1307 1.377 . S
C1307 H1291 0.930 . S
C1307 C1306 1.377 . S
C1307 C1308 1.379 . S
C1308 H1292 0.931 . S
C1308 C1302 1.358 1_455 S
C1308 C1307 1.379 . S
H1309 C1303 0.959 . S
H1310 C1303 0.961 . S
H1311 C1303 0.960 . S
H1312 C1304 0.930 . S
H1313 C1305 0.929 . S
H1314 C1322 0.929 . S
H1315 C1324 0.930 . S
H1316 C1326 0.930 . S
H1317 C1329 0.929 . S
H1318 C1332 0.930 . S
H1319 C1334 0.960 . S
H1320 C1334 0.960 . S
H1321 C1334 0.960 . S
C1322 H1314 0.929 . S
C1322 C1323 1.377 . S
C1322 C1324 1.384 . S
C1323 C1322 1.377 . S
C1323 C1329 1.390 . S
C1324 H1315 0.930 . S
C1324 C1322 1.384 . S
C1324 C1325 1.372 . S
C1325 C1324 1.372 . S
C1325 C1326 1.400 . S
C1325 C1330 1.490 . S
C1326 H1316 0.930 . S
C1326 C1325 1.400 . S
C1326 C1329 1.386 . S
H1327 C1343 0.930 . S
H1328 C1344 0.931 . S
C1329 H1317 0.929 . S
C1329 C1323 1.390 . S
C1329 C1326 1.386 . S
C1330 C1325 1.490 . S
C1330 C1332 1.395 . S
C1330 C1333 1.403 . S
H1331 C1337 0.930 . S
C1332 H1318 0.930 . S
C1332 C1330 1.395 . S
C1332 C1335 1.403 . S
C1333 C1330 1.403 . S
C1333 C1334 1.524 . S
C1333 C1337 1.400 . S
C1334 H1319 0.960 . S
C1334 H1320 0.960 . S
C1334 H1321 0.960 . S
C1334 C1333 1.524 . S
C1335 C1332 1.403 . S
C1335 C1336 1.392 . S
C1335 C1339 1.495 . S
C1336 C1335 1.392 . S
C1336 C1337 1.385 . S
C1336 C1338 1.478 . S
C1337 H1331 0.930 . S
C1337 C1333 1.400 . S
C1337 C1336 1.385 . S
C1338 C1336 1.478 . S
C1338 C1340 1.381 . S
C1338 C1344 1.383 . S
C1339 C1335 1.495 . S
C1339 H1345 0.959 . S
C1339 H1346 0.961 . S
C1339 H1347 0.960 . S
C1340 C1338 1.381 . S
C1340 C1341 1.394 . S
C1340 H1348 0.930 . S
C1341 C1340 1.394 . S
C1341 C1342 1.383 . S
C1341 H1349 0.929 . S
C1342 C1341 1.383 . S
C1342 C1343 1.377 . S
C1343 H1327 0.930 . S
C1343 C1342 1.377 . S
C1343 C1344 1.379 . S
C1344 H1328 0.931 . S
C1344 C1338 1.383 . S
C1344 C1343 1.379 . S
H1345 C1339 0.959 . S
H1346 C1339 0.961 . S
H1347 C1339 0.960 . S
H1348 C1340 0.930 . S
H1349 C1341 0.929 . S
H1350 C1358 0.929 . S
H1351 C1360 0.930 . S
H1352 C1362 0.930 . S
H1353 C1365 0.929 . S
H1354 C1368 0.930 . S
H1355 C1370 0.960 . S
H1356 C1370 0.960 . S
H1357 C1370 0.960 . S
C1358 H1350 0.929 . S
C1358 C1359 1.371 1_545 S
C1358 C1360 1.384 . S
C1359 C1358 1.371 1_565 S
C1359 C1365 1.371 . S
C1360 H1351 0.930 . S
C1360 C1358 1.384 . S
C1360 C1361 1.372 1_545 S
C1361 C1360 1.372 1_565 S
C1361 C1362 1.400 . S
C1361 C1366 1.490 . S
C1362 H1352 0.930 . S
C1362 C1361 1.400 . S
C1362 C1365 1.386 . S
H1363 C1379 0.930 . S
H1364 C1380 0.931 . S
C1365 H1353 0.929 . S
C1365 C1359 1.371 . S
C1365 C1362 1.386 . S
C1366 C1361 1.490 . S
C1366 C1368 1.395 . S
C1366 C1369 1.403 1_565 S
H1367 C1373 0.930 . S
C1368 H1354 0.930 . S
C1368 C1366 1.395 . S
C1368 C1371 1.403 . S
C1369 C1366 1.403 1_545 S
C1369 C1370 1.524 . S
C1369 C1373 1.400 . S
C1370 H1355 0.960 . S
C1370 H1356 0.960 . S
C1370 H1357 0.960 . S
C1370 C1369 1.524 . S
C1371 C1368 1.403 . S
C1371 C1372 1.392 . S
C1371 C1375 1.495 . S
C1372 C1371 1.392 . S
C1372 C1373 1.385 1_565 S
C1372 C1374 1.478 . S
C1373 H1367 0.930 . S
C1373 C1369 1.400 . S
C1373 C1372 1.385 1_545 S
C1374 C1372 1.478 . S
C1374 C1376 1.381 1_565 S
C1374 C1380 1.383 . S
C1375 C1371 1.495 . S
C1375 H1381 0.959 . S
C1375 H1382 0.961 . S
C1375 H1383 0.960 . S
C1376 C1374 1.381 1_545 S
C1376 C1377 1.394 . S
C1376 H1384 0.930 . S
C1377 C1376 1.394 . S
C1377 C1378 1.383 1_545 S
C1377 H1385 0.929 . S
C1378 C1377 1.383 1_565 S
C1378 C1379 1.377 . S
C1379 H1363 0.930 . S
C1379 C1378 1.377 . S
C1379 C1380 1.379 . S
C1380 H1364 0.931 . S
C1380 C1374 1.383 . S
C1380 C1379 1.379 . S
H1381 C1375 0.959 . S
H1382 C1375 0.961 . S
H1383 C1375 0.960 . S
H1384 C1376 0.930 . S
H1385 C1377 0.929 . S
H1386 C1394 0.929 . S
H1387 C1396 0.930 . S
H1388 C1398 0.930 . S
H1389 C1401 0.929 . S
H1390 C1404 0.930 . S
H1391 C1406 0.960 . S
H1392 C1406 0.960 . S
H1393 C1406 0.960 . S
C1394 H1386 0.929 . S
C1394 C1395 1.377 . S
C1394 C1396 1.384 . S
C1395 C1394 1.377 . S
C1395 C1401 1.390 1_545 S
C1396 H1387 0.930 . S
C1396 C1394 1.384 . S
C1396 C1397 1.372 . S
C1397 C1396 1.372 . S
C1397 C1398 1.400 1_545 S
C1397 C1402 1.490 . S
C1398 H1388 0.930 . S
C1398 C1397 1.400 1_565 S
C1398 C1401 1.386 . S
H1399 C1415 0.930 . S
H1400 C1416 0.931 . S
C1401 H1389 0.929 . S
C1401 C1395 1.390 1_565 S
C1401 C1398 1.386 . S
C1402 C1397 1.490 . S
C1402 C1404 1.395 . S
C1402 C1405 1.403 1_545 S
H1403 C1409 0.930 . S
C1404 H1390 0.930 . S
C1404 C1402 1.395 . S
C1404 C1407 1.403 . S
C1405 C1402 1.403 1_565 S
C1405 C1406 1.524 . S
C1405 C1409 1.400 . S
C1406 H1391 0.960 . S
C1406 H1392 0.960 . S
C1406 H1393 0.960 . S
C1406 C1405 1.524 . S
C1407 C1404 1.403 . S
C1407 C1408 1.392 . S
C1407 C1411 1.495 . S
C1408 C1407 1.392 . S
C1408 C1409 1.385 1_545 S
C1408 C1410 1.478 . S
C1409 H1403 0.930 . S
C1409 C1405 1.400 . S
C1409 C1408 1.385 1_565 S
C1410 C1408 1.478 . S
C1410 C1412 1.381 . S
C1410 C1416 1.383 1_545 S
C1411 C1407 1.495 . S
C1411 H1417 0.959 . S
C1411 H1418 0.961 . S
C1411 H1419 0.960 . S
C1412 C1410 1.381 . S
C1412 C1413 1.394 . S
C1412 H1420 0.930 . S
C1413 C1412 1.394 . S
C1413 C1414 1.383 . S
C1413 H1421 0.929 . S
C1414 C1413 1.383 . S
C1414 C1415 1.377 1_545 S
C1415 H1399 0.930 . S
C1415 C1414 1.377 1_565 S
C1415 C1416 1.379 . S
C1416 H1400 0.931 . S
C1416 C1410 1.383 1_565 S
C1416 C1415 1.379 . S
H1417 C1411 0.959 . S
H1418 C1411 0.961 . S
H1419 C1411 0.960 . S
H1420 C1412 0.930 . S
H1421 C1413 0.929 . S
H1422 C1430 0.929 . S
H1423 C1432 0.930 . S
H1424 C1434 0.930 . S
H1425 C1437 0.929 . S
H1426 C1440 0.930 . S
H1427 C1442 0.960 . S
H1428 C1442 0.960 . S
H1429 C1442 0.960 . S
C1430 H1422 0.929 . S
C1430 C1431 1.377 . S
C1430 C1432 1.384 . S
C1431 C1430 1.377 . S
C1431 C1437 1.390 1_655 S
C1432 H1423 0.930 . S
C1432 C1430 1.384 . S
C1432 C1433 1.372 . S
C1433 C1432 1.372 . S
C1433 C1434 1.400 1_655 S
C1433 C1438 1.490 . S
C1434 H1424 0.930 . S
C1434 C1433 1.400 1_455 S
C1434 C1437 1.386 . S
H1435 C1451 0.930 . S
H1436 C1452 0.931 . S
C1437 H1425 0.929 . S
C1437 C1431 1.390 1_455 S
C1437 C1434 1.386 . S
C1438 C1433 1.490 . S
C1438 C1440 1.395 1_655 S
C1438 C1441 1.403 . S
H1439 C1445 0.930 . S
C1440 H1426 0.930 . S
C1440 C1438 1.395 1_455 S
C1440 C1443 1.403 . S
C1441 C1438 1.403 . S
C1441 C1442 1.524 . S
C1441 C1445 1.400 . S
C1442 H1427 0.960 . S
C1442 H1428 0.960 . S
C1442 H1429 0.960 . S
C1442 C1441 1.524 . S
C1443 C1440 1.403 . S
C1443 C1444 1.392 1_455 S
C1443 C1447 1.495 . S
C1444 C1443 1.392 1_655 S
C1444 C1445 1.385 . S
C1444 C1446 1.510 . S
C1445 H1439 0.930 . S
C1445 C1441 1.400 . S
C1445 C1444 1.385 . S
C1446 C1444 1.510 . S
C1446 C1448 1.394 . S
C1446 C1452 1.348 1_655 S
C1447 C1443 1.495 . S
C1447 H1453 0.959 . S
C1447 H1454 0.961 . S
C1447 H1455 0.960 . S
C1448 C1446 1.394 . S
C1448 C1449 1.394 . S
C1448 H1456 0.930 . S
C1449 C1448 1.394 . S
C1449 C1450 1.383 . S
C1449 H1457 0.929 . S
C1450 C1449 1.383 . S
C1450 C1451 1.377 1_655 S
C1451 H1435 0.930 . S
C1451 C1450 1.377 1_455 S
C1451 C1452 1.379 . S
C1452 H1436 0.931 . S
C1452 C1446 1.348 1_455 S
C1452 C1451 1.379 . S
H1453 C1447 0.959 . S
H1454 C1447 0.961 . S
H1455 C1447 0.960 . S
H1456 C1448 0.930 . S
H1457 C1449 0.929 . S
H1458 C1466 0.929 . S
H1459 C1468 0.930 . S
H1460 C1470 0.930 . S
H1461 C1473 0.929 . S
H1462 C1476 0.930 . S
H1463 C1478 0.960 . S
H1464 C1478 0.960 . S
H1465 C1478 0.960 . S
C1466 H1458 0.929 . S
C1466 C1467 1.377 . S
C1466 C1468 1.384 . S
C1467 C1466 1.377 . S
C1467 C1473 1.390 . S
C1468 H1459 0.930 . S
C1468 C1466 1.384 . S
C1468 C1469 1.372 . S
C1469 C1468 1.372 . S
C1469 C1470 1.400 . S
C1469 C1474 1.490 . S
C1470 H1460 0.930 . S
C1470 C1469 1.400 . S
C1470 C1473 1.386 . S
H1471 C1487 0.930 . S
H1472 C1488 0.931 . S
C1473 H1461 0.929 . S
C1473 C1467 1.390 . S
C1473 C1470 1.386 . S
C1474 C1469 1.490 . S
C1474 C1476 1.395 . S
C1474 C1477 1.403 . S
H1475 C1481 0.930 . S
C1476 H1462 0.930 . S
C1476 C1474 1.395 . S
C1476 C1479 1.403 . S
C1477 C1474 1.403 . S
C1477 C1478 1.524 . S
C1477 C1481 1.400 . S
C1478 H1463 0.960 . S
C1478 H1464 0.960 . S
C1478 H1465 0.960 . S
C1478 C1477 1.524 . S
C1479 C1476 1.403 . S
C1479 C1480 1.392 . S
C1479 C1483 1.495 . S
C1480 C1479 1.392 . S
C1480 C1481 1.385 . S
C1480 C1482 1.478 . S
C1481 H1475 0.930 . S
C1481 C1477 1.400 . S
C1481 C1480 1.385 . S
C1482 C1480 1.478 . S
C1482 C1484 1.381 . S
C1482 C1488 1.383 . S
C1483 C1479 1.495 . S
C1483 H1489 0.959 . S
C1483 H1490 0.961 . S
C1483 H1491 0.960 . S
C1484 C1482 1.381 . S
C1484 C1485 1.394 . S
C1484 H1492 0.930 . S
C1485 C1484 1.394 . S
C1485 C1486 1.383 . S
C1485 H1493 0.929 . S
C1486 C1485 1.383 . S
C1486 C1487 1.377 . S
C1487 H1471 0.930 . S
C1487 C1486 1.377 . S
C1487 C1488 1.379 . S
C1488 H1472 0.931 . S
C1488 C1482 1.383 . S
C1488 C1487 1.379 . S
H1489 C1483 0.959 . S
H1490 C1483 0.961 . S
H1491 C1483 0.960 . S
H1492 C1484 0.930 . S
H1493 C1485 0.929 . S
H1494 C1502 0.929 . S
H1495 C1504 0.930 . S
H1496 C1506 0.930 . S
H1497 C1509 0.929 . S
H1498 C1512 0.930 . S
H1499 C1514 0.960 . S
H1500 C1514 0.960 . S
H1501 C1514 0.960 . S
C1502 H1494 0.929 . S
C1502 C1503 1.377 . S
C1502 C1504 1.384 . S
C1503 C1502 1.377 . S
C1503 C1509 1.390 . S
C1504 H1495 0.930 . S
C1504 C1502 1.384 . S
C1504 C1505 1.372 . S
C1505 C1504 1.372 . S
C1505 C1506 1.400 . S
C1505 C1510 1.490 . S
C1506 H1496 0.930 . S
C1506 C1505 1.400 . S
C1506 C1509 1.386 . S
H1507 C1523 0.930 . S
H1508 C1524 0.931 . S
C1509 H1497 0.929 . S
C1509 C1503 1.390 . S
C1509 C1506 1.386 . S
C1510 C1505 1.490 . S
C1510 C1512 1.395 . S
C1510 C1513 1.403 . S
H1511 C1517 0.930 . S
C1512 H1498 0.930 . S
C1512 C1510 1.395 . S
C1512 C1515 1.403 . S
C1513 C1510 1.403 . S
C1513 C1514 1.524 . S
C1513 C1517 1.400 . S
C1514 H1499 0.960 . S
C1514 H1500 0.960 . S
C1514 H1501 0.960 . S
C1514 C1513 1.524 . S
C1515 C1512 1.403 . S
C1515 C1516 1.392 . S
C1515 C1519 1.495 . S
C1516 C1515 1.392 . S
C1516 C1517 1.385 . S
C1516 C1518 1.478 . S
C1517 H1511 0.930 . S
C1517 C1513 1.400 . S
C1517 C1516 1.385 . S
C1518 C1516 1.478 . S
C1518 C1520 1.381 . S
C1518 C1524 1.383 . S
C1519 C1515 1.495 . S
C1519 H1525 0.959 . S
C1519 H1526 0.961 . S
C1519 H1527 0.960 . S
C1520 C1518 1.381 . S
C1520 C1521 1.394 . S
C1520 H1528 0.930 . S
C1521 C1520 1.394 . S
C1521 C1522 1.383 . S
C1521 H1529 0.929 . S
C1522 C1521 1.383 . S
C1522 C1523 1.377 . S
C1523 H1507 0.930 . S
C1523 C1522 1.377 . S
C1523 C1524 1.379 . S
C1524 H1508 0.931 . S
C1524 C1518 1.383 . S
C1524 C1523 1.379 . S
H1525 C1519 0.959 . S
H1526 C1519 0.961 . S
H1527 C1519 0.960 . S
H1528 C1520 0.930 . S
H1529 C1521 0.929 . S
H1530 C1538 0.929 . S
H1531 C1540 0.930 . S
H1532 C1542 0.930 . S
H1533 C1545 0.929 . S
H1534 C1548 0.930 . S
H1535 C1550 0.960 . S
H1536 C1550 0.960 . S
H1537 C1550 0.960 . S
C1538 H1530 0.929 . S
C1538 C1539 1.377 . S
C1538 C1540 1.384 . S
C1539 C1538 1.377 . S
C1539 C1545 1.390 . S
C1540 H1531 0.930 . S
C1540 C1538 1.384 . S
C1540 C1541 1.372 . S
C1541 C1540 1.372 . S
C1541 C1542 1.400 . S
C1541 C1546 1.490 . S
C1542 H1532 0.930 . S
C1542 C1541 1.400 . S
C1542 C1545 1.386 . S
H1543 C1559 0.930 . S
H1544 C1560 0.931 . S
C1545 H1533 0.929 . S
C1545 C1539 1.390 . S
C1545 C1542 1.386 . S
C1546 C1541 1.490 . S
C1546 C1548 1.395 . S
C1546 C1549 1.403 . S
H1547 C1553 0.930 . S
C1548 H1534 0.930 . S
C1548 C1546 1.395 . S
C1548 C1551 1.403 . S
C1549 C1546 1.403 . S
C1549 C1550 1.524 . S
C1549 C1553 1.400 . S
C1550 H1535 0.960 . S
C1550 H1536 0.960 . S
C1550 H1537 0.960 . S
C1550 C1549 1.524 . S
C1551 C1548 1.403 . S
C1551 C1552 1.392 . S
C1551 C1555 1.495 . S
C1552 C1551 1.392 . S
C1552 C1553 1.385 . S
C1552 C1554 1.478 . S
C1553 H1547 0.930 . S
C1553 C1549 1.400 . S
C1553 C1552 1.385 . S
C1554 C1552 1.478 . S
C1554 C1556 1.381 . S
C1554 C1560 1.383 . S
C1555 C1551 1.495 . S
C1555 H1561 0.959 . S
C1555 H1562 0.961 . S
C1555 H1563 0.960 . S
C1556 C1554 1.381 . S
C1556 C1557 1.394 . S
C1556 H1564 0.930 . S
C1557 C1556 1.394 . S
C1557 C1558 1.383 . S
C1557 H1565 0.929 . S
C1558 C1557 1.383 . S
C1558 C1559 1.377 . S
C1559 H1543 0.930 . S
C1559 C1558 1.377 . S
C1559 C1560 1.379 . S
C1560 H1544 0.931 . S
C1560 C1554 1.383 . S
C1560 C1559 1.379 . S
H1561 C1555 0.959 . S
H1562 C1555 0.961 . S
H1563 C1555 0.960 . S
H1564 C1556 0.930 . S
H1565 C1557 0.929 . S
H1566 C1574 0.929 . S
H1567 C1576 0.930 . S
H1568 C1578 0.930 . S
H1569 C1581 0.929 . S
H1570 C1584 0.930 . S
H1571 C1586 0.960 . S
H1572 C1586 0.960 . S
H1573 C1586 0.960 . S
C1574 H1566 0.929 . S
C1574 C1575 1.377 . S
C1574 C1576 1.384 . S
C1575 C1574 1.377 . S
C1575 C1581 1.390 . S
C1576 H1567 0.930 . S
C1576 C1574 1.384 . S
C1576 C1577 1.372 . S
C1577 C1576 1.372 . S
C1577 C1578 1.400 . S
C1577 C1582 1.490 . S
C1578 H1568 0.930 . S
C1578 C1577 1.400 . S
C1578 C1581 1.386 . S
H1579 C1595 0.930 . S
H1580 C1596 0.931 . S
C1581 H1569 0.929 . S
C1581 C1575 1.390 . S
C1581 C1578 1.386 . S
C1582 C1577 1.490 . S
C1582 C1584 1.395 . S
C1582 C1585 1.403 . S
H1583 C1589 0.930 . S
C1584 H1570 0.930 . S
C1584 C1582 1.395 . S
C1584 C1587 1.403 . S
C1585 C1582 1.403 . S
C1585 C1586 1.524 . S
C1585 C1589 1.400 . S
C1586 H1571 0.960 . S
C1586 H1572 0.960 . S
C1586 H1573 0.960 . S
C1586 C1585 1.524 . S
C1587 C1584 1.403 . S
C1587 C1588 1.392 . S
C1587 C1591 1.495 . S
C1588 C1587 1.392 . S
C1588 C1589 1.385 . S
C1588 C1590 1.478 . S
C1589 H1583 0.930 . S
C1589 C1585 1.400 . S
C1589 C1588 1.385 . S
C1590 C1588 1.478 . S
C1590 C1592 1.381 . S
C1590 C1596 1.383 . S
C1591 C1587 1.495 . S
C1591 H1597 0.959 . S
C1591 H1598 0.961 . S
C1591 H1599 0.960 . S
C1592 C1590 1.381 . S
C1592 C1593 1.394 . S
C1592 H1600 0.930 . S
C1593 C1592 1.394 . S
C1593 C1594 1.383 . S
C1593 H1601 0.929 . S
C1594 C1593 1.383 . S
C1594 C1595 1.377 . S
C1595 H1579 0.930 . S
C1595 C1594 1.377 . S
C1595 C1596 1.379 . S
C1596 H1580 0.931 . S
C1596 C1590 1.383 . S
C1596 C1595 1.379 . S
H1597 C1591 0.959 . S
H1598 C1591 0.961 . S
H1599 C1591 0.960 . S
H1600 C1592 0.930 . S
H1601 C1593 0.929 . S
H1602 C1610 0.929 . S
H1603 C1612 0.930 . S
H1604 C1614 0.930 . S
H1605 C1617 0.929 . S
H1606 C1620 0.930 . S
H1607 C1622 0.960 . S
H1608 C1622 0.960 . S
H1609 C1622 0.960 . S
C1610 H1602 0.929 . S
C1610 C1611 1.377 . S
C1610 C1612 1.384 . S
C1611 C1610 1.377 . S
C1611 C1617 1.390 . S
C1612 H1603 0.930 . S
C1612 C1610 1.384 . S
C1612 C1613 1.372 . S
C1613 C1612 1.372 . S
C1613 C1614 1.400 . S
C1613 C1618 1.490 . S
C1614 H1604 0.930 . S
C1614 C1613 1.400 . S
C1614 C1617 1.386 . S
H1615 C1631 0.930 . S
H1616 C1632 0.931 . S
C1617 H1605 0.929 . S
C1617 C1611 1.390 . S
C1617 C1614 1.386 . S
C1618 C1613 1.490 . S
C1618 C1620 1.395 . S
C1618 C1621 1.403 . S
H1619 C1625 0.930 . S
C1620 H1606 0.930 . S
C1620 C1618 1.395 . S
C1620 C1623 1.403 . S
C1621 C1618 1.403 . S
C1621 C1622 1.524 . S
C1621 C1625 1.400 . S
C1622 H1607 0.960 . S
C1622 H1608 0.960 . S
C1622 H1609 0.960 . S
C1622 C1621 1.524 . S
C1623 C1620 1.403 . S
C1623 C1624 1.392 . S
C1623 C1627 1.495 . S
C1624 C1623 1.392 . S
C1624 C1625 1.385 . S
C1624 C1626 1.478 . S
C1625 H1619 0.930 . S
C1625 C1621 1.400 . S
C1625 C1624 1.385 . S
C1626 C1624 1.478 . S
C1626 C1628 1.381 . S
C1626 C1632 1.383 . S
C1627 C1623 1.495 . S
C1627 H1633 0.959 . S
C1627 H1634 0.961 . S
C1627 H1635 0.960 . S
C1628 C1626 1.381 . S
C1628 C1629 1.394 . S
C1628 H1636 0.930 . S
C1629 C1628 1.394 . S
C1629 C1630 1.383 . S
C1629 H1637 0.929 . S
C1630 C1629 1.383 . S
C1630 C1631 1.377 . S
C1631 H1615 0.930 . S
C1631 C1630 1.377 . S
C1631 C1632 1.379 . S
C1632 H1616 0.931 . S
C1632 C1626 1.383 . S
C1632 C1631 1.379 . S
H1633 C1627 0.959 . S
H1634 C1627 0.961 . S
H1635 C1627 0.960 . S
H1636 C1628 0.930 . S
H1637 C1629 0.929 . S
H1638 C1646 0.929 . S
H1639 C1648 0.930 . S
H1640 C1650 0.930 . S
H1641 C1653 0.929 . S
H1642 C1656 0.930 . S
H1643 C1658 0.960 . S
H1644 C1658 0.960 . S
H1645 C1658 0.960 . S
C1646 H1638 0.929 . S
C1646 C1647 1.377 . S
C1646 C1648 1.384 . S
C1647 C1646 1.377 . S
C1647 C1653 1.390 . S
C1648 H1639 0.930 . S
C1648 C1646 1.384 . S
C1648 C1649 1.372 . S
C1649 C1648 1.372 . S
C1649 C1650 1.400 . S
C1649 C1654 1.490 . S
C1650 H1640 0.930 . S
C1650 C1649 1.400 . S
C1650 C1653 1.386 . S
H1651 C1667 0.930 . S
H1652 C1668 0.931 . S
C1653 H1641 0.929 . S
C1653 C1647 1.390 . S
C1653 C1650 1.386 . S
C1654 C1649 1.490 . S
C1654 C1656 1.395 . S
C1654 C1657 1.403 . S
H1655 C1661 0.930 . S
C1656 H1642 0.930 . S
C1656 C1654 1.395 . S
C1656 C1659 1.403 . S
C1657 C1654 1.403 . S
C1657 C1658 1.524 . S
C1657 C1661 1.400 . S
C1658 H1643 0.960 . S
C1658 H1644 0.960 . S
C1658 H1645 0.960 . S
C1658 C1657 1.524 . S
C1659 C1656 1.403 . S
C1659 C1660 1.392 . S
C1659 C1663 1.495 . S
C1660 C1659 1.392 . S
C1660 C1661 1.385 . S
C1660 C1662 1.478 . S
C1661 H1655 0.930 . S
C1661 C1657 1.400 . S
C1661 C1660 1.385 . S
C1662 C1660 1.478 . S
C1662 C1664 1.381 . S
C1662 C1668 1.383 . S
C1663 C1659 1.495 . S
C1663 H1669 0.959 . S
C1663 H1670 0.961 . S
C1663 H1671 0.960 . S
C1664 C1662 1.381 . S
C1664 C1665 1.394 . S
C1664 H1672 0.930 . S
C1665 C1664 1.394 . S
C1665 C1666 1.383 . S
C1665 H1673 0.929 . S
C1666 C1665 1.383 . S
C1666 C1667 1.377 . S
C1667 H1651 0.930 . S
C1667 C1666 1.377 . S
C1667 C1668 1.379 . S
C1668 H1652 0.931 . S
C1668 C1662 1.383 . S
C1668 C1667 1.379 . S
H1669 C1663 0.959 . S
H1670 C1663 0.961 . S
H1671 C1663 0.960 . S
H1672 C1664 0.930 . S
H1673 C1665 0.929 . S
H1674 C1682 0.929 . S
H1675 C1684 0.930 . S
H1676 C1686 0.930 . S
H1677 C1689 0.929 . S
H1678 C1692 0.930 . S
H1679 C1694 0.960 . S
H1680 C1694 0.960 . S
H1681 C1694 0.960 . S
C1682 H1674 0.929 . S
C1682 C1683 1.377 . S
C1682 C1684 1.384 . S
C1683 C1682 1.377 . S
C1683 C1689 1.390 . S
C1684 H1675 0.930 . S
C1684 C1682 1.384 . S
C1684 C1685 1.372 . S
C1685 C1684 1.372 . S
C1685 C1686 1.400 . S
C1685 C1690 1.490 . S
C1686 H1676 0.930 . S
C1686 C1685 1.400 . S
C1686 C1689 1.386 . S
H1687 C1703 0.930 . S
H1688 C1704 0.931 . S
C1689 H1677 0.929 . S
C1689 C1683 1.390 . S
C1689 C1686 1.386 . S
C1690 C1685 1.490 . S
C1690 C1692 1.395 . S
C1690 C1693 1.403 . S
H1691 C1697 0.930 . S
C1692 H1678 0.930 . S
C1692 C1690 1.395 . S
C1692 C1695 1.403 . S
C1693 C1690 1.403 . S
C1693 C1694 1.524 . S
C1693 C1697 1.400 . S
C1694 H1679 0.960 . S
C1694 H1680 0.960 . S
C1694 H1681 0.960 . S
C1694 C1693 1.524 . S
C1695 C1692 1.403 . S
C1695 C1696 1.392 . S
C1695 C1699 1.495 . S
C1696 C1695 1.392 . S
C1696 C1697 1.385 . S
C1696 C1698 1.478 . S
C1697 H1691 0.930 . S
C1697 C1693 1.400 . S
C1697 C1696 1.385 . S
C1698 C1696 1.478 . S
C1698 C1700 1.381 . S
C1698 C1704 1.383 . S
C1699 C1695 1.495 . S
C1699 H1705 0.959 . S
C1699 H1706 0.961 . S
C1699 H1707 0.960 . S
C1700 C1698 1.381 . S
C1700 C1701 1.394 . S
C1700 H1708 0.930 . S
C1701 C1700 1.394 . S
C1701 C1702 1.383 . S
C1701 H1709 0.929 . S
C1702 C1701 1.383 . S
C1702 C1703 1.377 . S
C1703 H1687 0.930 . S
C1703 C1702 1.377 . S
C1703 C1704 1.379 . S
C1704 H1688 0.931 . S
C1704 C1698 1.383 . S
C1704 C1703 1.379 . S
H1705 C1699 0.959 . S
H1706 C1699 0.961 . S
H1707 C1699 0.960 . S
H1708 C1700 0.930 . S
H1709 C1701 0.929 . S
H1710 C1718 0.929 . S
H1711 C1720 0.930 . S
H1712 C1722 0.930 . S
H1713 C1725 0.929 . S
H1714 C1728 0.930 . S
H1715 C1730 0.960 . S
H1716 C1730 0.960 . S
H1717 C1730 0.960 . S
C1718 H1710 0.929 . S
C1718 C1719 1.377 . S
C1718 C1720 1.384 . S
C1719 C1718 1.377 . S
C1719 C1725 1.390 . S
C1720 H1711 0.930 . S
C1720 C1718 1.384 . S
C1720 C1721 1.372 . S
C1721 C1720 1.372 . S
C1721 C1722 1.400 . S
C1721 C1726 1.490 . S
C1722 H1712 0.930 . S
C1722 C1721 1.400 . S
C1722 C1725 1.386 . S
H1723 C1739 0.930 . S
H1724 C1740 0.931 . S
C1725 H1713 0.929 . S
C1725 C1719 1.390 . S
C1725 C1722 1.386 . S
C1726 C1721 1.490 . S
C1726 C1728 1.395 . S
C1726 C1729 1.403 . S
H1727 C1733 0.930 . S
C1728 H1714 0.930 . S
C1728 C1726 1.395 . S
C1728 C1731 1.403 . S
C1729 C1726 1.403 . S
C1729 C1730 1.524 . S
C1729 C1733 1.400 . S
C1730 H1715 0.960 . S
C1730 H1716 0.960 . S
C1730 H1717 0.960 . S
C1730 C1729 1.524 . S
C1731 C1728 1.403 . S
C1731 C1732 1.392 . S
C1731 C1735 1.495 . S
C1732 C1731 1.392 . S
C1732 C1733 1.385 . S
C1732 C1734 1.478 . S
C1733 H1727 0.930 . S
C1733 C1729 1.400 . S
C1733 C1732 1.385 . S
C1734 C1732 1.478 . S
C1734 C1736 1.381 . S
C1734 C1740 1.383 . S
C1735 C1731 1.495 . S
C1735 H1741 0.959 . S
C1735 H1742 0.961 . S
C1735 H1743 0.960 . S
C1736 C1734 1.381 . S
C1736 C1737 1.394 . S
C1736 H1744 0.930 . S
C1737 C1736 1.394 . S
C1737 C1738 1.383 . S
C1737 H1745 0.929 . S
C1738 C1737 1.383 . S
C1738 C1739 1.377 . S
C1739 H1723 0.930 . S
C1739 C1738 1.377 . S
C1739 C1740 1.379 . S
C1740 H1724 0.931 . S
C1740 C1734 1.383 . S
C1740 C1739 1.379 . S
H1741 C1735 0.959 . S
H1742 C1735 0.961 . S
H1743 C1735 0.960 . S
H1744 C1736 0.930 . S
H1745 C1737 0.929 . S
H1746 C1754 0.929 . S
H1747 C1756 0.930 . S
H1748 C1758 0.930 . S
H1749 C1761 0.929 . S
H1750 C1764 0.930 . S
H1751 C1766 0.960 . S
H1752 C1766 0.960 . S
H1753 C1766 0.960 . S
C1754 H1746 0.929 . S
C1754 C1755 1.377 . S
C1754 C1756 1.384 . S
C1755 C1754 1.377 . S
C1755 C1761 1.390 . S
C1756 H1747 0.930 . S
C1756 C1754 1.384 . S
C1756 C1757 1.372 . S
C1757 C1756 1.372 . S
C1757 C1758 1.400 . S
C1757 C1762 1.490 . S
C1758 H1748 0.930 . S
C1758 C1757 1.400 . S
C1758 C1761 1.386 . S
H1759 C1775 0.930 . S
H1760 C1776 0.931 . S
C1761 H1749 0.929 . S
C1761 C1755 1.390 . S
C1761 C1758 1.386 . S
C1762 C1757 1.490 . S
C1762 C1764 1.395 . S
C1762 C1765 1.403 . S
H1763 C1769 0.930 . S
C1764 H1750 0.930 . S
C1764 C1762 1.395 . S
C1764 C1767 1.403 . S
C1765 C1762 1.403 . S
C1765 C1766 1.524 . S
C1765 C1769 1.400 . S
C1766 H1751 0.960 . S
C1766 H1752 0.960 . S
C1766 H1753 0.960 . S
C1766 C1765 1.524 . S
C1767 C1764 1.403 . S
C1767 C1768 1.392 . S
C1767 C1771 1.495 . S
C1768 C1767 1.392 . S
C1768 C1769 1.385 . S
C1768 C1770 1.478 . S
C1769 H1763 0.930 . S
C1769 C1765 1.400 . S
C1769 C1768 1.385 . S
C1770 C1768 1.478 . S
C1770 C1772 1.381 . S
C1770 C1776 1.383 . S
C1771 C1767 1.495 . S
C1771 H1777 0.959 . S
C1771 H1778 0.961 . S
C1771 H1779 0.960 . S
C1772 C1770 1.381 . S
C1772 C1773 1.394 . S
C1772 H1780 0.930 . S
C1773 C1772 1.394 . S
C1773 C1774 1.383 . S
C1773 H1781 0.929 . S
C1774 C1773 1.383 . S
C1774 C1775 1.377 . S
C1775 H1759 0.930 . S
C1775 C1774 1.377 . S
C1775 C1776 1.379 . S
C1776 H1760 0.931 . S
C1776 C1770 1.383 . S
C1776 C1775 1.379 . S
H1777 C1771 0.959 . S
H1778 C1771 0.961 . S
H1779 C1771 0.960 . S
H1780 C1772 0.930 . S
H1781 C1773 0.929 . S
H1782 C1790 0.929 . S
H1783 C1792 0.930 . S
H1784 C1794 0.930 . S
H1785 C1797 0.929 . S
H1786 C1800 0.930 . S
H1787 C1802 0.960 . S
H1788 C1802 0.960 . S
H1789 C1802 0.960 . S
C1790 H1782 0.929 . S
C1790 C1791 1.377 . S
C1790 C1792 1.384 . S
C1791 C1790 1.377 . S
C1791 C1797 1.390 . S
C1792 H1783 0.930 . S
C1792 C1790 1.384 . S
C1792 C1793 1.372 . S
C1793 C1792 1.372 . S
C1793 C1794 1.400 . S
C1793 C1798 1.490 . S
C1794 H1784 0.930 . S
C1794 C1793 1.400 . S
C1794 C1797 1.386 . S
H1795 C1811 0.930 . S
H1796 C1812 0.931 . S
C1797 H1785 0.929 . S
C1797 C1791 1.390 . S
C1797 C1794 1.386 . S
C1798 C1793 1.490 . S
C1798 C1800 1.395 . S
C1798 C1801 1.403 . S
H1799 C1805 0.930 . S
C1800 H1786 0.930 . S
C1800 C1798 1.395 . S
C1800 C1803 1.403 . S
C1801 C1798 1.403 . S
C1801 C1802 1.524 . S
C1801 C1805 1.400 . S
C1802 H1787 0.960 . S
C1802 H1788 0.960 . S
C1802 H1789 0.960 . S
C1802 C1801 1.524 . S
C1803 C1800 1.403 . S
C1803 C1804 1.392 . S
C1803 C1807 1.495 . S
C1804 C1803 1.392 . S
C1804 C1805 1.385 . S
C1804 C1806 1.478 . S
C1805 H1799 0.930 . S
C1805 C1801 1.400 . S
C1805 C1804 1.385 . S
C1806 C1804 1.478 . S
C1806 C1808 1.381 . S
C1806 C1812 1.383 . S
C1807 C1803 1.495 . S
C1807 H1813 0.959 . S
C1807 H1814 0.961 . S
C1807 H1815 0.960 . S
C1808 C1806 1.381 . S
C1808 C1809 1.394 . S
C1808 H1816 0.930 . S
C1809 C1808 1.394 . S
C1809 C1810 1.383 . S
C1809 H1817 0.929 . S
C1810 C1809 1.383 . S
C1810 C1811 1.377 . S
C1811 H1795 0.930 . S
C1811 C1810 1.377 . S
C1811 C1812 1.379 . S
C1812 H1796 0.931 . S
C1812 C1806 1.383 . S
C1812 C1811 1.379 . S
H1813 C1807 0.959 . S
H1814 C1807 0.961 . S
H1815 C1807 0.960 . S
H1816 C1808 0.930 . S
H1817 C1809 0.929 . S
H1818 C1826 0.929 . S
H1819 C1828 0.930 . S
H1820 C1830 0.930 . S
H1821 C1833 0.929 . S
H1822 C1836 0.930 . S
H1823 C1838 0.960 . S
H1824 C1838 0.960 . S
H1825 C1838 0.960 . S
C1826 H1818 0.929 . S
C1826 C1827 1.377 . S
C1826 C1828 1.384 . S
C1827 C1826 1.377 . S
C1827 C1833 1.390 . S
C1828 H1819 0.930 . S
C1828 C1826 1.384 . S
C1828 C1829 1.372 . S
C1829 C1828 1.372 . S
C1829 C1830 1.400 . S
C1829 C1834 1.490 . S
C1830 H1820 0.930 . S
C1830 C1829 1.400 . S
C1830 C1833 1.386 . S
H1831 C1847 0.930 . S
H1832 C1848 0.931 . S
C1833 H1821 0.929 . S
C1833 C1827 1.390 . S
C1833 C1830 1.386 . S
C1834 C1829 1.490 . S
C1834 C1836 1.395 . S
C1834 C1837 1.403 . S
H1835 C1841 0.930 . S
C1836 H1822 0.930 . S
C1836 C1834 1.395 . S
C1836 C1839 1.403 . S
C1837 C1834 1.403 . S
C1837 C1838 1.524 . S
C1837 C1841 1.400 . S
C1838 H1823 0.960 . S
C1838 H1824 0.960 . S
C1838 H1825 0.960 . S
C1838 C1837 1.524 . S
C1839 C1836 1.403 . S
C1839 C1840 1.392 . S
C1839 C1843 1.495 . S
C1840 C1839 1.392 . S
C1840 C1841 1.385 . S
C1840 C1842 1.478 . S
C1841 H1835 0.930 . S
C1841 C1837 1.400 . S
C1841 C1840 1.385 . S
C1842 C1840 1.478 . S
C1842 C1844 1.381 . S
C1842 C1848 1.383 . S
C1843 C1839 1.495 . S
C1843 H1849 0.959 . S
C1843 H1850 0.961 . S
C1843 H1851 0.960 . S
C1844 C1842 1.381 . S
C1844 C1845 1.394 . S
C1844 H1852 0.930 . S
C1845 C1844 1.394 . S
C1845 C1846 1.383 . S
C1845 H1853 0.929 . S
C1846 C1845 1.383 . S
C1846 C1847 1.377 . S
C1847 H1831 0.930 . S
C1847 C1846 1.377 . S
C1847 C1848 1.379 . S
C1848 H1832 0.931 . S
C1848 C1842 1.383 . S
C1848 C1847 1.379 . S
H1849 C1843 0.959 . S
H1850 C1843 0.961 . S
H1851 C1843 0.960 . S
H1852 C1844 0.930 . S
H1853 C1845 0.929 . S
H1854 C1862 0.929 . S
H1855 C1864 0.930 . S
H1856 C1866 0.930 . S
H1857 C1869 0.929 . S
H1858 C1872 0.930 . S
H1859 C1874 0.960 . S
H1860 C1874 0.960 . S
H1861 C1874 0.960 . S
C1862 H1854 0.929 . S
C1862 C1863 1.377 . S
C1862 C1864 1.384 . S
C1863 C1862 1.377 . S
C1863 C1869 1.390 . S
C1864 H1855 0.930 . S
C1864 C1862 1.384 . S
C1864 C1865 1.372 . S
C1865 C1864 1.372 . S
C1865 C1866 1.400 . S
C1865 C1870 1.490 . S
C1866 H1856 0.930 . S
C1866 C1865 1.400 . S
C1866 C1869 1.386 . S
H1867 C1883 0.930 . S
H1868 C1884 0.931 . S
C1869 H1857 0.929 . S
C1869 C1863 1.390 . S
C1869 C1866 1.386 . S
C1870 C1865 1.490 . S
C1870 C1872 1.395 . S
C1870 C1873 1.403 . S
H1871 C1877 0.930 . S
C1872 H1858 0.930 . S
C1872 C1870 1.395 . S
C1872 C1875 1.403 . S
C1873 C1870 1.403 . S
C1873 C1874 1.524 . S
C1873 C1877 1.400 . S
C1874 H1859 0.960 . S
C1874 H1860 0.960 . S
C1874 H1861 0.960 . S
C1874 C1873 1.524 . S
C1875 C1872 1.403 . S
C1875 C1876 1.392 . S
C1875 C1879 1.495 . S
C1876 C1875 1.392 . S
C1876 C1877 1.385 . S
C1876 C1878 1.478 . S
C1877 H1871 0.930 . S
C1877 C1873 1.400 . S
C1877 C1876 1.385 . S
C1878 C1876 1.478 . S
C1878 C1880 1.381 . S
C1878 C1884 1.383 . S
C1879 C1875 1.495 . S
C1879 H1885 0.959 . S
C1879 H1886 0.961 . S
C1879 H1887 0.960 . S
C1880 C1878 1.381 . S
C1880 C1881 1.394 . S
C1880 H1888 0.930 . S
C1881 C1880 1.394 . S
C1881 C1882 1.383 . S
C1881 H1889 0.929 . S
C1882 C1881 1.383 . S
C1882 C1883 1.377 . S
C1883 H1867 0.930 . S
C1883 C1882 1.377 . S
C1883 C1884 1.379 . S
C1884 H1868 0.931 . S
C1884 C1878 1.383 . S
C1884 C1883 1.379 . S
H1885 C1879 0.959 . S
H1886 C1879 0.961 . S
H1887 C1879 0.960 . S
H1888 C1880 0.930 . S
H1889 C1881 0.929 . S
H1890 C1898 0.929 . S
H1891 C1900 0.930 . S
H1892 C1902 0.930 . S
H1893 C1905 0.929 . S
H1894 C1908 0.930 . S
H1895 C1910 0.960 . S
H1896 C1910 0.960 . S
H1897 C1910 0.960 . S
C1898 H1890 0.929 . S
C1898 C1899 1.377 . S
C1898 C1900 1.384 . S
C1899 C1898 1.377 . S
C1899 C1905 1.390 . S
C1900 H1891 0.930 . S
C1900 C1898 1.384 . S
C1900 C1901 1.372 . S
C1901 C1900 1.372 . S
C1901 C1902 1.400 . S
C1901 C1906 1.490 . S
C1902 H1892 0.930 . S
C1902 C1901 1.400 . S
C1902 C1905 1.386 . S
H1903 C1919 0.930 . S
H1904 C1920 0.931 . S
C1905 H1893 0.929 . S
C1905 C1899 1.390 . S
C1905 C1902 1.386 . S
C1906 C1901 1.490 . S
C1906 C1908 1.395 . S
C1906 C1909 1.403 . S
H1907 C1913 0.930 . S
C1908 H1894 0.930 . S
C1908 C1906 1.395 . S
C1908 C1911 1.403 . S
C1909 C1906 1.403 . S
C1909 C1910 1.524 . S
C1909 C1913 1.400 . S
C1910 H1895 0.960 . S
C1910 H1896 0.960 . S
C1910 H1897 0.960 . S
C1910 C1909 1.524 . S
C1911 C1908 1.403 . S
C1911 C1912 1.392 . S
C1911 C1915 1.495 . S
C1912 C1911 1.392 . S
C1912 C1913 1.385 . S
C1912 C1914 1.478 . S
C1913 H1907 0.930 . S
C1913 C1909 1.400 . S
C1913 C1912 1.385 . S
C1914 C1912 1.478 . S
C1914 C1916 1.381 . S
C1914 C1920 1.383 . S
C1915 C1911 1.495 . S
C1915 H1921 0.959 . S
C1915 H1922 0.961 . S
C1915 H1923 0.960 . S
C1916 C1914 1.381 . S
C1916 C1917 1.394 . S
C1916 H1924 0.930 . S
C1917 C1916 1.394 . S
C1917 C1918 1.383 . S
C1917 H1925 0.929 . S
C1918 C1917 1.383 . S
C1918 C1919 1.377 . S
C1919 H1903 0.930 . S
C1919 C1918 1.377 . S
C1919 C1920 1.379 . S
C1920 H1904 0.931 . S
C1920 C1914 1.383 . S
C1920 C1919 1.379 . S
H1921 C1915 0.959 . S
H1922 C1915 0.961 . S
H1923 C1915 0.960 . S
H1924 C1916 0.930 . S
H1925 C1917 0.929 . S
H1926 C1934 0.929 . S
H1927 C1936 0.930 . S
H1928 C1938 0.930 . S
H1929 C1941 0.929 . S
H1930 C1944 0.930 . S
H1931 C1946 0.960 . S
H1932 C1946 0.960 . S
H1933 C1946 0.960 . S
C1934 H1926 0.929 . S
C1934 C1935 1.377 . S
C1934 C1936 1.384 . S
C1935 C1934 1.377 . S
C1935 C1941 1.390 . S
C1936 H1927 0.930 . S
C1936 C1934 1.384 . S
C1936 C1937 1.372 . S
C1937 C1936 1.372 . S
C1937 C1938 1.400 . S
C1937 C1942 1.490 . S
C1938 H1928 0.930 . S
C1938 C1937 1.400 . S
C1938 C1941 1.386 . S
H1939 C1955 0.930 . S
H1940 C1956 0.931 . S
C1941 H1929 0.929 . S
C1941 C1935 1.390 . S
C1941 C1938 1.386 . S
C1942 C1937 1.490 . S
C1942 C1944 1.395 . S
C1942 C1945 1.403 . S
H1943 C1949 0.930 . S
C1944 H1930 0.930 . S
C1944 C1942 1.395 . S
C1944 C1947 1.403 . S
C1945 C1942 1.403 . S
C1945 C1946 1.524 . S
C1945 C1949 1.400 . S
C1946 H1931 0.960 . S
C1946 H1932 0.960 . S
C1946 H1933 0.960 . S
C1946 C1945 1.524 . S
C1947 C1944 1.403 . S
C1947 C1948 1.392 . S
C1947 C1951 1.495 . S
C1948 C1947 1.392 . S
C1948 C1949 1.385 . S
C1948 C1950 1.478 . S
C1949 H1943 0.930 . S
C1949 C1945 1.400 . S
C1949 C1948 1.385 . S
C1950 C1948 1.478 . S
C1950 C1952 1.381 . S
C1950 C1956 1.383 . S
C1951 C1947 1.495 . S
C1951 H1957 0.959 . S
C1951 H1958 0.961 . S
C1951 H1959 0.960 . S
C1952 C1950 1.381 . S
C1952 C1953 1.394 . S
C1952 H1960 0.930 . S
C1953 C1952 1.394 . S
C1953 C1954 1.383 . S
C1953 H1961 0.929 . S
C1954 C1953 1.383 . S
C1954 C1955 1.377 . S
C1955 H1939 0.930 . S
C1955 C1954 1.377 . S
C1955 C1956 1.379 . S
C1956 H1940 0.931 . S
C1956 C1950 1.383 . S
C1956 C1955 1.379 . S
H1957 C1951 0.959 . S
H1958 C1951 0.961 . S
H1959 C1951 0.960 . S
H1960 C1952 0.930 . S
H1961 C1953 0.929 . S
H1962 C1970 0.929 . S
H1963 C1972 0.930 . S
H1964 C1974 0.930 . S
H1965 C1977 0.929 . S
H1966 C1980 0.930 . S
H1967 C1982 0.960 . S
H1968 C1982 0.960 . S
H1969 C1982 0.960 . S
C1970 H1962 0.929 . S
C1970 C1971 1.377 . S
C1970 C1972 1.384 . S
C1971 C1970 1.377 . S
C1971 C1977 1.390 . S
C1972 H1963 0.930 . S
C1972 C1970 1.384 . S
C1972 C1973 1.372 . S
C1973 C1972 1.372 . S
C1973 C1974 1.400 . S
C1973 C1978 1.490 . S
C1974 H1964 0.930 . S
C1974 C1973 1.400 . S
C1974 C1977 1.386 . S
H1975 C1991 0.930 . S
H1976 C1992 0.931 . S
C1977 H1965 0.929 . S
C1977 C1971 1.390 . S
C1977 C1974 1.386 . S
C1978 C1973 1.490 . S
C1978 C1980 1.395 . S
C1978 C1981 1.403 . S
H1979 C1985 0.930 . S
C1980 H1966 0.930 . S
C1980 C1978 1.395 . S
C1980 C1983 1.403 . S
C1981 C1978 1.403 . S
C1981 C1982 1.524 . S
C1981 C1985 1.400 . S
C1982 H1967 0.960 . S
C1982 H1968 0.960 . S
C1982 H1969 0.960 . S
C1982 C1981 1.524 . S
C1983 C1980 1.403 . S
C1983 C1984 1.392 . S
C1983 C1987 1.495 . S
C1984 C1983 1.392 . S
C1984 C1985 1.385 . S
C1984 C1986 1.478 . S
C1985 H1979 0.930 . S
C1985 C1981 1.400 . S
C1985 C1984 1.385 . S
C1986 C1984 1.478 . S
C1986 C1988 1.381 . S
C1986 C1992 1.383 . S
C1987 C1983 1.495 . S
C1987 H1993 0.959 . S
C1987 H1994 0.961 . S
C1987 H1995 0.960 . S
C1988 C1986 1.381 . S
C1988 C1989 1.394 . S
C1988 H1996 0.930 . S
C1989 C1988 1.394 . S
C1989 C1990 1.383 . S
C1989 H1997 0.929 . S
C1990 C1989 1.383 . S
C1990 C1991 1.377 . S
C1991 H1975 0.930 . S
C1991 C1990 1.377 . S
C1991 C1992 1.379 . S
C1992 H1976 0.931 . S
C1992 C1986 1.383 . S
C1992 C1991 1.379 . S
H1993 C1987 0.959 . S
H1994 C1987 0.961 . S
H1995 C1987 0.960 . S
H1996 C1988 0.930 . S
H1997 C1989 0.929 . S
H1998 C2006 0.929 . S
H1999 C2008 0.930 . S
H2000 C2010 0.930 . S
H2001 C2013 0.929 . S
H2002 C2016 0.930 . S
H2003 C2018 0.960 . S
H2004 C2018 0.960 . S
H2005 C2018 0.960 . S
C2006 H1998 0.929 . S
C2006 C2007 1.377 . S
C2006 C2008 1.384 . S
C2007 C2006 1.377 . S
C2007 C2013 1.390 . S
C2008 H1999 0.930 . S
C2008 C2006 1.384 . S
C2008 C2009 1.372 . S
C2009 C2008 1.372 . S
C2009 C2010 1.400 . S
C2009 C2014 1.490 . S
C2010 H2000 0.930 . S
C2010 C2009 1.400 . S
C2010 C2013 1.386 . S
H2011 C2027 0.930 . S
H2012 C2028 0.931 . S
C2013 H2001 0.929 . S
C2013 C2007 1.390 . S
C2013 C2010 1.386 . S
C2014 C2009 1.490 . S
C2014 C2016 1.395 . S
C2014 C2017 1.403 . S
H2015 C2021 0.930 . S
C2016 H2002 0.930 . S
C2016 C2014 1.395 . S
C2016 C2019 1.403 . S
C2017 C2014 1.403 . S
C2017 C2018 1.524 . S
C2017 C2021 1.400 . S
C2018 H2003 0.960 . S
C2018 H2004 0.960 . S
C2018 H2005 0.960 . S
C2018 C2017 1.524 . S
C2019 C2016 1.403 . S
C2019 C2020 1.392 . S
C2019 C2023 1.495 . S
C2020 C2019 1.392 . S
C2020 C2021 1.385 . S
C2020 C2022 1.478 . S
C2021 H2015 0.930 . S
C2021 C2017 1.400 . S
C2021 C2020 1.385 . S
C2022 C2020 1.478 . S
C2022 C2024 1.381 . S
C2022 C2028 1.383 . S
C2023 C2019 1.495 . S
C2023 H2029 0.959 . S
C2023 H2030 0.961 . S
C2023 H2031 0.960 . S
C2024 C2022 1.381 . S
C2024 C2025 1.394 . S
C2024 H2032 0.930 . S
C2025 C2024 1.394 . S
C2025 C2026 1.383 . S
C2025 H2033 0.929 . S
C2026 C2025 1.383 . S
C2026 C2027 1.377 . S
C2027 H2011 0.930 . S
C2027 C2026 1.377 . S
C2027 C2028 1.379 . S
C2028 H2012 0.931 . S
C2028 C2022 1.383 . S
C2028 C2027 1.379 . S
H2029 C2023 0.959 . S
H2030 C2023 0.961 . S
H2031 C2023 0.960 . S
H2032 C2024 0.930 . S
H2033 C2025 0.929 . S
H2034 C2042 0.929 . S
H2035 C2044 0.930 . S
H2036 C2046 0.930 . S
H2037 C2049 0.929 . S
H2038 C2052 0.930 . S
H2039 C2054 0.960 . S
H2040 C2054 0.960 . S
H2041 C2054 0.960 . S
C2042 H2034 0.929 . S
C2042 C2043 1.377 . S
C2042 C2044 1.384 . S
C2043 C2042 1.377 . S
C2043 C2049 1.390 . S
C2044 H2035 0.930 . S
C2044 C2042 1.384 . S
C2044 C2045 1.372 . S
C2045 C2044 1.372 . S
C2045 C2046 1.400 . S
C2045 C2050 1.490 . S
C2046 H2036 0.930 . S
C2046 C2045 1.400 . S
C2046 C2049 1.386 . S
H2047 C2063 0.930 . S
H2048 C2064 0.931 . S
C2049 H2037 0.929 . S
C2049 C2043 1.390 . S
C2049 C2046 1.386 . S
C2050 C2045 1.490 . S
C2050 C2052 1.395 . S
C2050 C2053 1.403 . S
H2051 C2057 0.930 . S
C2052 H2038 0.930 . S
C2052 C2050 1.395 . S
C2052 C2055 1.403 . S
C2053 C2050 1.403 . S
C2053 C2054 1.524 . S
C2053 C2057 1.400 . S
C2054 H2039 0.960 . S
C2054 H2040 0.960 . S
C2054 H2041 0.960 . S
C2054 C2053 1.524 . S
C2055 C2052 1.403 . S
C2055 C2056 1.392 . S
C2055 C2059 1.495 . S
C2056 C2055 1.392 . S
C2056 C2057 1.385 . S
C2056 C2058 1.478 . S
C2057 H2051 0.930 . S
C2057 C2053 1.400 . S
C2057 C2056 1.385 . S
C2058 C2056 1.478 . S
C2058 C2060 1.381 . S
C2058 C2064 1.383 . S
C2059 C2055 1.495 . S
C2059 H2065 0.959 . S
C2059 H2066 0.961 . S
C2059 H2067 0.960 . S
C2060 C2058 1.381 . S
C2060 C2061 1.394 . S
C2060 H2068 0.930 . S
C2061 C2060 1.394 . S
C2061 C2062 1.383 . S
C2061 H2069 0.929 . S
C2062 C2061 1.383 . S
C2062 C2063 1.377 . S
C2063 H2047 0.930 . S
C2063 C2062 1.377 . S
C2063 C2064 1.379 . S
C2064 H2048 0.931 . S
C2064 C2058 1.383 . S
C2064 C2063 1.379 . S
H2065 C2059 0.959 . S
H2066 C2059 0.961 . S
H2067 C2059 0.960 . S
H2068 C2060 0.930 . S
H2069 C2061 0.929 . S
H2070 C2078 0.929 . S
H2071 C2080 0.930 . S
H2072 C2082 0.930 . S
H2073 C2085 0.929 . S
H2074 C2088 0.930 . S
H2075 C2090 0.960 . S
H2076 C2090 0.960 . S
H2077 C2090 0.960 . S
C2078 H2070 0.929 . S
C2078 C2079 1.377 . S
C2078 C2080 1.384 . S
C2079 C2078 1.377 . S
C2079 C2085 1.390 . S
C2080 H2071 0.930 . S
C2080 C2078 1.384 . S
C2080 C2081 1.372 . S
C2081 C2080 1.372 . S
C2081 C2082 1.400 . S
C2081 C2086 1.490 . S
C2082 H2072 0.930 . S
C2082 C2081 1.400 . S
C2082 C2085 1.386 . S
H2083 C2099 0.930 . S
H2084 C2100 0.931 . S
C2085 H2073 0.929 . S
C2085 C2079 1.390 . S
C2085 C2082 1.386 . S
C2086 C2081 1.490 . S
C2086 C2088 1.395 . S
C2086 C2089 1.403 . S
H2087 C2093 0.930 . S
C2088 H2074 0.930 . S
C2088 C2086 1.395 . S
C2088 C2091 1.403 . S
C2089 C2086 1.403 . S
C2089 C2090 1.524 . S
C2089 C2093 1.400 . S
C2090 H2075 0.960 . S
C2090 H2076 0.960 . S
C2090 H2077 0.960 . S
C2090 C2089 1.524 . S
C2091 C2088 1.403 . S
C2091 C2092 1.392 . S
C2091 C2095 1.495 . S
C2092 C2091 1.392 . S
C2092 C2093 1.385 . S
C2092 C2094 1.478 . S
C2093 H2087 0.930 . S
C2093 C2089 1.400 . S
C2093 C2092 1.385 . S
C2094 C2092 1.478 . S
C2094 C2096 1.381 . S
C2094 C2100 1.383 . S
C2095 C2091 1.495 . S
C2095 H2101 0.959 . S
C2095 H2102 0.961 . S
C2095 H2103 0.960 . S
C2096 C2094 1.381 . S
C2096 C2097 1.394 . S
C2096 H2104 0.930 . S
C2097 C2096 1.394 . S
C2097 C2098 1.383 . S
C2097 H2105 0.929 . S
C2098 C2097 1.383 . S
C2098 C2099 1.377 . S
C2099 H2083 0.930 . S
C2099 C2098 1.377 . S
C2099 C2100 1.379 . S
C2100 H2084 0.931 . S
C2100 C2094 1.383 . S
C2100 C2099 1.379 . S
H2101 C2095 0.959 . S
H2102 C2095 0.961 . S
H2103 C2095 0.960 . S
H2104 C2096 0.930 . S
H2105 C2097 0.929 . S
H2106 C2114 0.929 . S
H2107 C2116 0.930 . S
H2108 C2118 0.930 . S
H2109 C2121 0.929 . S
H2110 C2124 0.930 . S
H2111 C2126 0.960 . S
H2112 C2126 0.960 . S
H2113 C2126 0.960 . S
C2114 H2106 0.929 . S
C2114 C2115 1.377 . S
C2114 C2116 1.384 . S
C2115 C2114 1.377 . S
C2115 C2121 1.390 . S
C2116 H2107 0.930 . S
C2116 C2114 1.384 . S
C2116 C2117 1.372 . S
C2117 C2116 1.372 . S
C2117 C2118 1.400 . S
C2117 C2122 1.490 . S
C2118 H2108 0.930 . S
C2118 C2117 1.400 . S
C2118 C2121 1.386 . S
H2119 C2135 0.930 . S
H2120 C2136 0.931 . S
C2121 H2109 0.929 . S
C2121 C2115 1.390 . S
C2121 C2118 1.386 . S
C2122 C2117 1.490 . S
C2122 C2124 1.395 . S
C2122 C2125 1.403 . S
H2123 C2129 0.930 . S
C2124 H2110 0.930 . S
C2124 C2122 1.395 . S
C2124 C2127 1.403 . S
C2125 C2122 1.403 . S
C2125 C2126 1.524 . S
C2125 C2129 1.400 . S
C2126 H2111 0.960 . S
C2126 H2112 0.960 . S
C2126 H2113 0.960 . S
C2126 C2125 1.524 . S
C2127 C2124 1.403 . S
C2127 C2128 1.392 . S
C2127 C2131 1.495 . S
C2128 C2127 1.392 . S
C2128 C2129 1.385 . S
C2128 C2130 1.478 . S
C2129 H2123 0.930 . S
C2129 C2125 1.400 . S
C2129 C2128 1.385 . S
C2130 C2128 1.478 . S
C2130 C2132 1.381 . S
C2130 C2136 1.383 . S
C2131 C2127 1.495 . S
C2131 H2137 0.959 . S
C2131 H2138 0.961 . S
C2131 H2139 0.960 . S
C2132 C2130 1.381 . S
C2132 C2133 1.394 . S
C2132 H2140 0.930 . S
C2133 C2132 1.394 . S
C2133 C2134 1.383 . S
C2133 H2141 0.929 . S
C2134 C2133 1.383 . S
C2134 C2135 1.377 . S
C2135 H2119 0.930 . S
C2135 C2134 1.377 . S
C2135 C2136 1.379 . S
C2136 H2120 0.931 . S
C2136 C2130 1.383 . S
C2136 C2135 1.379 . S
H2137 C2131 0.959 . S
H2138 C2131 0.961 . S
H2139 C2131 0.960 . S
H2140 C2132 0.930 . S
H2141 C2133 0.929 . S
H2142 C2150 0.929 . S
H2143 C2152 0.930 . S
H2144 C2154 0.930 . S
H2145 C2157 0.929 . S
H2146 C2160 0.930 . S
H2147 C2162 0.960 . S
H2148 C2162 0.960 . S
H2149 C2162 0.960 . S
C2150 H2142 0.929 . S
C2150 C2151 1.377 . S
C2150 C2152 1.384 . S
C2151 C2150 1.377 . S
C2151 C2157 1.390 . S
C2152 H2143 0.930 . S
C2152 C2150 1.384 . S
C2152 C2153 1.372 . S
C2153 C2152 1.372 . S
C2153 C2154 1.400 . S
C2153 C2158 1.490 . S
C2154 H2144 0.930 . S
C2154 C2153 1.400 . S
C2154 C2157 1.386 . S
H2155 C2171 0.930 . S
H2156 C2172 0.931 . S
C2157 H2145 0.929 . S
C2157 C2151 1.390 . S
C2157 C2154 1.386 . S
C2158 C2153 1.490 . S
C2158 C2160 1.395 . S
C2158 C2161 1.403 . S
H2159 C2165 0.930 . S
C2160 H2146 0.930 . S
C2160 C2158 1.395 . S
C2160 C2163 1.403 . S
C2161 C2158 1.403 . S
C2161 C2162 1.524 . S
C2161 C2165 1.400 . S
C2162 H2147 0.960 . S
C2162 H2148 0.960 . S
C2162 H2149 0.960 . S
C2162 C2161 1.524 . S
C2163 C2160 1.403 . S
C2163 C2164 1.392 . S
C2163 C2167 1.495 . S
C2164 C2163 1.392 . S
C2164 C2165 1.385 . S
C2164 C2166 1.478 . S
C2165 H2159 0.930 . S
C2165 C2161 1.400 . S
C2165 C2164 1.385 . S
C2166 C2164 1.478 . S
C2166 C2168 1.381 . S
C2166 C2172 1.383 . S
C2167 C2163 1.495 . S
C2167 H2173 0.959 . S
C2167 H2174 0.961 . S
C2167 H2175 0.960 . S
C2168 C2166 1.381 . S
C2168 C2169 1.394 . S
C2168 H2176 0.930 . S
C2169 C2168 1.394 . S
C2169 C2170 1.383 . S
C2169 H2177 0.929 . S
C2170 C2169 1.383 . S
C2170 C2171 1.377 . S
C2171 H2155 0.930 . S
C2171 C2170 1.377 . S
C2171 C2172 1.379 . S
C2172 H2156 0.931 . S
C2172 C2166 1.383 . S
C2172 C2171 1.379 . S
H2173 C2167 0.959 . S
H2174 C2167 0.961 . S
H2175 C2167 0.960 . S
H2176 C2168 0.930 . S
H2177 C2169 0.929 . S
H2178 C2186 0.929 . S
H2179 C2188 0.930 . S
H2180 C2190 0.930 . S
H2181 C2193 0.929 . S
H2182 C2196 0.930 . S
H2183 C2198 0.960 . S
H2184 C2198 0.960 . S
H2185 C2198 0.960 . S
C2186 H2178 0.929 . S
C2186 C2187 1.377 . S
C2186 C2188 1.384 . S
C2187 C2186 1.377 . S
C2187 C2193 1.390 . S
C2188 H2179 0.930 . S
C2188 C2186 1.384 . S
C2188 C2189 1.372 . S
C2189 C2188 1.372 . S
C2189 C2190 1.400 . S
C2189 C2194 1.490 . S
C2190 H2180 0.930 . S
C2190 C2189 1.400 . S
C2190 C2193 1.386 . S
H2191 C2207 0.930 . S
H2192 C2208 0.931 . S
C2193 H2181 0.929 . S
C2193 C2187 1.390 . S
C2193 C2190 1.386 . S
C2194 C2189 1.490 . S
C2194 C2196 1.395 . S
C2194 C2197 1.403 . S
H2195 C2201 0.930 . S
C2196 H2182 0.930 . S
C2196 C2194 1.395 . S
C2196 C2199 1.403 . S
C2197 C2194 1.403 . S
C2197 C2198 1.524 . S
C2197 C2201 1.400 . S
C2198 H2183 0.960 . S
C2198 H2184 0.960 . S
C2198 H2185 0.960 . S
C2198 C2197 1.524 . S
C2199 C2196 1.403 . S
C2199 C2200 1.392 . S
C2199 C2203 1.495 . S
C2200 C2199 1.392 . S
C2200 C2201 1.385 . S
C2200 C2202 1.478 . S
C2201 H2195 0.930 . S
C2201 C2197 1.400 . S
C2201 C2200 1.385 . S
C2202 C2200 1.478 . S
C2202 C2204 1.381 . S
C2202 C2208 1.383 . S
C2203 C2199 1.495 . S
C2203 H2209 0.959 . S
C2203 H2210 0.961 . S
C2203 H2211 0.960 . S
C2204 C2202 1.381 . S
C2204 C2205 1.394 . S
C2204 H2212 0.930 . S
C2205 C2204 1.394 . S
C2205 C2206 1.383 . S
C2205 H2213 0.929 . S
C2206 C2205 1.383 . S
C2206 C2207 1.377 . S
C2207 H2191 0.930 . S
C2207 C2206 1.377 . S
C2207 C2208 1.379 . S
C2208 H2192 0.931 . S
C2208 C2202 1.383 . S
C2208 C2207 1.379 . S
H2209 C2203 0.959 . S
H2210 C2203 0.961 . S
H2211 C2203 0.960 . S
H2212 C2204 0.930 . S
H2213 C2205 0.929 . S
H2214 C2222 0.929 . S
H2215 C2224 0.930 . S
H2216 C2226 0.930 . S
H2217 C2229 0.929 . S
H2218 C2232 0.930 . S
H2219 C2234 0.960 . S
H2220 C2234 0.960 . S
H2221 C2234 0.960 . S
C2222 H2214 0.929 . S
C2222 C2223 1.377 . S
C2222 C2224 1.384 . S
C2223 C2222 1.377 . S
C2223 C2229 1.390 . S
C2224 H2215 0.930 . S
C2224 C2222 1.384 . S
C2224 C2225 1.372 . S
C2225 C2224 1.372 . S
C2225 C2226 1.400 . S
C2225 C2230 1.490 . S
C2226 H2216 0.930 . S
C2226 C2225 1.400 . S
C2226 C2229 1.386 . S
H2227 C2243 0.930 . S
H2228 C2244 0.931 . S
C2229 H2217 0.929 . S
C2229 C2223 1.390 . S
C2229 C2226 1.386 . S
C2230 C2225 1.490 . S
C2230 C2232 1.395 . S
C2230 C2233 1.403 . S
H2231 C2237 0.930 . S
C2232 H2218 0.930 . S
C2232 C2230 1.395 . S
C2232 C2235 1.403 . S
C2233 C2230 1.403 . S
C2233 C2234 1.524 . S
C2233 C2237 1.400 . S
C2234 H2219 0.960 . S
C2234 H2220 0.960 . S
C2234 H2221 0.960 . S
C2234 C2233 1.524 . S
C2235 C2232 1.403 . S
C2235 C2236 1.392 . S
C2235 C2239 1.495 . S
C2236 C2235 1.392 . S
C2236 C2237 1.385 . S
C2236 C2238 1.478 . S
C2237 H2231 0.930 . S
C2237 C2233 1.400 . S
C2237 C2236 1.385 . S
C2238 C2236 1.478 . S
C2238 C2240 1.381 . S
C2238 C2244 1.383 . S
C2239 C2235 1.495 . S
C2239 H2245 0.959 . S
C2239 H2246 0.961 . S
C2239 H2247 0.960 . S
C2240 C2238 1.381 . S
C2240 C2241 1.394 . S
C2240 H2248 0.930 . S
C2241 C2240 1.394 . S
C2241 C2242 1.383 . S
C2241 H2249 0.929 . S
C2242 C2241 1.383 . S
C2242 C2243 1.377 . S
C2243 H2227 0.930 . S
C2243 C2242 1.377 . S
C2243 C2244 1.379 . S
C2244 H2228 0.931 . S
C2244 C2238 1.383 . S
C2244 C2243 1.379 . S
H2245 C2239 0.959 . S
H2246 C2239 0.961 . S
H2247 C2239 0.960 . S
H2248 C2240 0.930 . S
H2249 C2241 0.929 . S
H2250 C2258 0.929 . S
H2251 C2260 0.930 . S
H2252 C2262 0.930 . S
H2253 C2265 0.929 . S
H2254 C2268 0.930 . S
H2255 C2270 0.960 . S
H2256 C2270 0.960 . S
H2257 C2270 0.960 . S
C2258 H2250 0.929 . S
C2258 C2259 1.377 . S
C2258 C2260 1.384 . S
C2259 C2258 1.377 . S
C2259 C2265 1.390 . S
C2260 H2251 0.930 . S
C2260 C2258 1.384 . S
C2260 C2261 1.372 . S
C2261 C2260 1.372 . S
C2261 C2262 1.400 . S
C2261 C2266 1.490 . S
C2262 H2252 0.930 . S
C2262 C2261 1.400 . S
C2262 C2265 1.386 . S
H2263 C2279 0.930 . S
H2264 C2280 0.931 . S
C2265 H2253 0.929 . S
C2265 C2259 1.390 . S
C2265 C2262 1.386 . S
C2266 C2261 1.490 . S
C2266 C2268 1.395 . S
C2266 C2269 1.403 . S
H2267 C2273 0.930 . S
C2268 H2254 0.930 . S
C2268 C2266 1.395 . S
C2268 C2271 1.403 . S
C2269 C2266 1.403 . S
C2269 C2270 1.524 . S
C2269 C2273 1.400 . S
C2270 H2255 0.960 . S
C2270 H2256 0.960 . S
C2270 H2257 0.960 . S
C2270 C2269 1.524 . S
C2271 C2268 1.403 . S
C2271 C2272 1.392 . S
C2271 C2275 1.495 . S
C2272 C2271 1.392 . S
C2272 C2273 1.385 . S
C2272 C2274 1.478 . S
C2273 H2267 0.930 . S
C2273 C2269 1.400 . S
C2273 C2272 1.385 . S
C2274 C2272 1.478 . S
C2274 C2276 1.381 . S
C2274 C2280 1.383 . S
C2275 C2271 1.495 . S
C2275 H2281 0.959 . S
C2275 H2282 0.961 . S
C2275 H2283 0.960 . S
C2276 C2274 1.381 . S
C2276 C2277 1.394 . S
C2276 H2284 0.930 . S
C2277 C2276 1.394 . S
C2277 C2278 1.383 . S
C2277 H2285 0.929 . S
C2278 C2277 1.383 . S
C2278 C2279 1.377 . S
C2279 H2263 0.930 . S
C2279 C2278 1.377 . S
C2279 C2280 1.379 . S
C2280 H2264 0.931 . S
C2280 C2274 1.383 . S
C2280 C2279 1.379 . S
H2281 C2275 0.959 . S
H2282 C2275 0.961 . S
H2283 C2275 0.960 . S
H2284 C2276 0.930 . S
H2285 C2277 0.929 . S
H2286 C2294 0.929 . S
H2287 C2296 0.930 . S
H2288 C2298 0.930 . S
H2289 C2301 0.929 . S
H2290 C2304 0.930 . S
H2291 C2306 0.960 . S
H2292 C2306 0.960 . S
H2293 C2306 0.960 . S
C2294 H2286 0.929 . S
C2294 C2295 1.377 . S
C2294 C2296 1.384 . S
C2295 C2294 1.377 . S
C2295 C2301 1.390 . S
C2296 H2287 0.930 . S
C2296 C2294 1.384 . S
C2296 C2297 1.372 . S
C2297 C2296 1.372 . S
C2297 C2298 1.400 . S
C2297 C2302 1.490 . S
C2298 H2288 0.930 . S
C2298 C2297 1.400 . S
C2298 C2301 1.386 . S
H2299 C2315 0.930 . S
H2300 C2316 0.931 . S
C2301 H2289 0.929 . S
C2301 C2295 1.390 . S
C2301 C2298 1.386 . S
C2302 C2297 1.490 . S
C2302 C2304 1.395 . S
C2302 C2305 1.403 . S
H2303 C2309 0.930 . S
C2304 H2290 0.930 . S
C2304 C2302 1.395 . S
C2304 C2307 1.403 . S
C2305 C2302 1.403 . S
C2305 C2306 1.524 . S
C2305 C2309 1.400 . S
C2306 H2291 0.960 . S
C2306 H2292 0.960 . S
C2306 H2293 0.960 . S
C2306 C2305 1.524 . S
C2307 C2304 1.403 . S
C2307 C2308 1.392 . S
C2307 C2311 1.495 . S
C2308 C2307 1.392 . S
C2308 C2309 1.385 . S
C2308 C2310 1.478 . S
C2309 H2303 0.930 . S
C2309 C2305 1.400 . S
C2309 C2308 1.385 . S
C2310 C2308 1.478 . S
C2310 C2312 1.381 . S
C2310 C2316 1.383 . S
C2311 C2307 1.495 . S
C2311 H2317 0.959 . S
C2311 H2318 0.961 . S
C2311 H2319 0.960 . S
C2312 C2310 1.381 . S
C2312 C2313 1.394 . S
C2312 H2320 0.930 . S
C2313 C2312 1.394 . S
C2313 C2314 1.383 . S
C2313 H2321 0.929 . S
C2314 C2313 1.383 . S
C2314 C2315 1.377 . S
C2315 H2299 0.930 . S
C2315 C2314 1.377 . S
C2315 C2316 1.379 . S
C2316 H2300 0.931 . S
C2316 C2310 1.383 . S
C2316 C2315 1.379 . S
H2317 C2311 0.959 . S
H2318 C2311 0.961 . S
H2319 C2311 0.960 . S
H2320 C2312 0.930 . S
H2321 C2313 0.929 . S
H2322 C2330 0.929 . S
H2323 C2332 0.930 . S
H2324 C2334 0.930 . S
H2325 C2337 0.929 . S
H2326 C2340 0.930 . S
H2327 C2342 0.960 . S
H2328 C2342 0.960 . S
H2329 C2342 0.960 . S
C2330 H2322 0.929 . S
C2330 C2331 1.377 . S
C2330 C2332 1.384 . S
C2331 C2330 1.377 . S
C2331 C2337 1.390 . S
C2332 H2323 0.930 . S
C2332 C2330 1.384 . S
C2332 C2333 1.372 . S
C2333 C2332 1.372 . S
C2333 C2334 1.400 . S
C2333 C2338 1.490 . S
C2334 H2324 0.930 . S
C2334 C2333 1.400 . S
C2334 C2337 1.386 . S
H2335 C2351 0.930 . S
H2336 C2352 0.931 . S
C2337 H2325 0.929 . S
C2337 C2331 1.390 . S
C2337 C2334 1.386 . S
C2338 C2333 1.490 . S
C2338 C2340 1.395 . S
C2338 C2341 1.403 . S
H2339 C2345 0.930 . S
C2340 H2326 0.930 . S
C2340 C2338 1.395 . S
C2340 C2343 1.403 . S
C2341 C2338 1.403 . S
C2341 C2342 1.524 . S
C2341 C2345 1.400 . S
C2342 H2327 0.960 . S
C2342 H2328 0.960 . S
C2342 H2329 0.960 . S
C2342 C2341 1.524 . S
C2343 C2340 1.403 . S
C2343 C2344 1.392 . S
C2343 C2347 1.495 . S
C2344 C2343 1.392 . S
C2344 C2345 1.385 . S
C2344 C2346 1.478 . S
C2345 H2339 0.930 . S
C2345 C2341 1.400 . S
C2345 C2344 1.385 . S
C2346 C2344 1.478 . S
C2346 C2348 1.381 . S
C2346 C2352 1.383 . S
C2347 C2343 1.495 . S
C2347 H2353 0.959 . S
C2347 H2354 0.961 . S
C2347 H2355 0.960 . S
C2348 C2346 1.381 . S
C2348 C2349 1.394 . S
C2348 H2356 0.930 . S
C2349 C2348 1.394 . S
C2349 C2350 1.383 . S
C2349 H2357 0.929 . S
C2350 C2349 1.383 . S
C2350 C2351 1.377 . S
C2351 H2335 0.930 . S
C2351 C2350 1.377 . S
C2351 C2352 1.379 . S
C2352 H2336 0.931 . S
C2352 C2346 1.383 . S
C2352 C2351 1.379 . S
H2353 C2347 0.959 . S
H2354 C2347 0.961 . S
H2355 C2347 0.960 . S
H2356 C2348 0.930 . S
H2357 C2349 0.929 . S
H2358 C2366 0.929 . S
H2359 C2368 0.930 . S
H2360 C2370 0.930 . S
H2361 C2373 0.929 . S
H2362 C2376 0.930 . S
H2363 C2378 0.960 . S
H2364 C2378 0.960 . S
H2365 C2378 0.960 . S
C2366 H2358 0.929 . S
C2366 C2367 1.377 . S
C2366 C2368 1.384 . S
C2367 C2366 1.377 . S
C2367 C2373 1.390 . S
C2368 H2359 0.930 . S
C2368 C2366 1.384 . S
C2368 C2369 1.372 . S
C2369 C2368 1.372 . S
C2369 C2370 1.400 . S
C2369 C2374 1.490 . S
C2370 H2360 0.930 . S
C2370 C2369 1.400 . S
C2370 C2373 1.386 . S
H2371 C2387 0.930 . S
H2372 C2388 0.931 . S
C2373 H2361 0.929 . S
C2373 C2367 1.390 . S
C2373 C2370 1.386 . S
C2374 C2369 1.490 . S
C2374 C2376 1.395 . S
C2374 C2377 1.403 . S
H2375 C2381 0.930 . S
C2376 H2362 0.930 . S
C2376 C2374 1.395 . S
C2376 C2379 1.403 . S
C2377 C2374 1.403 . S
C2377 C2378 1.524 . S
C2377 C2381 1.400 . S
C2378 H2363 0.960 . S
C2378 H2364 0.960 . S
C2378 H2365 0.960 . S
C2378 C2377 1.524 . S
C2379 C2376 1.403 . S
C2379 C2380 1.392 . S
C2379 C2383 1.495 . S
C2380 C2379 1.392 . S
C2380 C2381 1.385 . S
C2380 C2382 1.478 . S
C2381 H2375 0.930 . S
C2381 C2377 1.400 . S
C2381 C2380 1.385 . S
C2382 C2380 1.478 . S
C2382 C2384 1.381 . S
C2382 C2388 1.383 . S
C2383 C2379 1.495 . S
C2383 H2389 0.959 . S
C2383 H2390 0.961 . S
C2383 H2391 0.960 . S
C2384 C2382 1.381 . S
C2384 C2385 1.394 . S
C2384 H2392 0.930 . S
C2385 C2384 1.394 . S
C2385 C2386 1.383 . S
C2385 H2393 0.929 . S
C2386 C2385 1.383 . S
C2386 C2387 1.377 . S
C2387 H2371 0.930 . S
C2387 C2386 1.377 . S
C2387 C2388 1.379 . S
C2388 H2372 0.931 . S
C2388 C2382 1.383 . S
C2388 C2387 1.379 . S
H2389 C2383 0.959 . S
H2390 C2383 0.961 . S
H2391 C2383 0.960 . S
H2392 C2384 0.930 . S
H2393 C2385 0.929 . S
H2394 C2402 0.929 . S
H2395 C2404 0.930 . S
H2396 C2406 0.930 . S
H2397 C2409 0.929 . S
H2398 C2412 0.930 . S
H2399 C2414 0.960 . S
H2400 C2414 0.960 . S
H2401 C2414 0.960 . S
C2402 H2394 0.929 . S
C2402 C2403 1.377 . S
C2402 C2404 1.384 . S
C2403 C2402 1.377 . S
C2403 C2409 1.390 . S
C2404 H2395 0.930 . S
C2404 C2402 1.384 . S
C2404 C2405 1.372 . S
C2405 C2404 1.372 . S
C2405 C2406 1.400 . S
C2405 C2410 1.490 . S
C2406 H2396 0.930 . S
C2406 C2405 1.400 . S
C2406 C2409 1.386 . S
H2407 C2423 0.930 . S
H2408 C2424 0.931 . S
C2409 H2397 0.929 . S
C2409 C2403 1.390 . S
C2409 C2406 1.386 . S
C2410 C2405 1.490 . S
C2410 C2412 1.395 . S
C2410 C2413 1.403 . S
H2411 C2417 0.930 . S
C2412 H2398 0.930 . S
C2412 C2410 1.395 . S
C2412 C2415 1.403 . S
C2413 C2410 1.403 . S
C2413 C2414 1.524 . S
C2413 C2417 1.400 . S
C2414 H2399 0.960 . S
C2414 H2400 0.960 . S
C2414 H2401 0.960 . S
C2414 C2413 1.524 . S
C2415 C2412 1.403 . S
C2415 C2416 1.392 . S
C2415 C2419 1.495 . S
C2416 C2415 1.392 . S
C2416 C2417 1.385 . S
C2416 C2418 1.478 . S
C2417 H2411 0.930 . S
C2417 C2413 1.400 . S
C2417 C2416 1.385 . S
C2418 C2416 1.478 . S
C2418 C2420 1.381 . S
C2418 C2424 1.383 . S
C2419 C2415 1.495 . S
C2419 H2425 0.959 . S
C2419 H2426 0.961 . S
C2419 H2427 0.960 . S
C2420 C2418 1.381 . S
C2420 C2421 1.394 . S
C2420 H2428 0.930 . S
C2421 C2420 1.394 . S
C2421 C2422 1.383 . S
C2421 H2429 0.929 . S
C2422 C2421 1.383 . S
C2422 C2423 1.377 . S
C2423 H2407 0.930 . S
C2423 C2422 1.377 . S
C2423 C2424 1.379 . S
C2424 H2408 0.931 . S
C2424 C2418 1.383 . S
C2424 C2423 1.379 . S
H2425 C2419 0.959 . S
H2426 C2419 0.961 . S
H2427 C2419 0.960 . S
H2428 C2420 0.930 . S
H2429 C2421 0.929 . S
H2430 C2438 0.929 . S
H2431 C2440 0.930 . S
H2432 C2442 0.930 . S
H2433 C2445 0.929 . S
H2434 C2448 0.930 . S
H2435 C2450 0.960 . S
H2436 C2450 0.960 . S
H2437 C2450 0.960 . S
C2438 H2430 0.929 . S
C2438 C2439 1.377 . S
C2438 C2440 1.384 . S
C2439 C2438 1.377 . S
C2439 C2445 1.390 . S
C2440 H2431 0.930 . S
C2440 C2438 1.384 . S
C2440 C2441 1.372 . S
C2441 C2440 1.372 . S
C2441 C2442 1.400 . S
C2441 C2446 1.490 . S
C2442 H2432 0.930 . S
C2442 C2441 1.400 . S
C2442 C2445 1.386 . S
H2443 C2459 0.930 . S
H2444 C2460 0.931 . S
C2445 H2433 0.929 . S
C2445 C2439 1.390 . S
C2445 C2442 1.386 . S
C2446 C2441 1.490 . S
C2446 C2448 1.395 . S
C2446 C2449 1.403 . S
H2447 C2453 0.930 . S
C2448 H2434 0.930 . S
C2448 C2446 1.395 . S
C2448 C2451 1.403 . S
C2449 C2446 1.403 . S
C2449 C2450 1.524 . S
C2449 C2453 1.400 . S
C2450 H2435 0.960 . S
C2450 H2436 0.960 . S
C2450 H2437 0.960 . S
C2450 C2449 1.524 . S
C2451 C2448 1.403 . S
C2451 C2452 1.392 . S
C2451 C2455 1.495 . S
C2452 C2451 1.392 . S
C2452 C2453 1.385 . S
C2452 C2454 1.478 . S
C2453 H2447 0.930 . S
C2453 C2449 1.400 . S
C2453 C2452 1.385 . S
C2454 C2452 1.478 . S
C2454 C2456 1.381 . S
C2454 C2460 1.383 . S
C2455 C2451 1.495 . S
C2455 H2461 0.959 . S
C2455 H2462 0.961 . S
C2455 H2463 0.960 . S
C2456 C2454 1.381 . S
C2456 C2457 1.394 . S
C2456 H2464 0.930 . S
C2457 C2456 1.394 . S
C2457 C2458 1.383 . S
C2457 H2465 0.929 . S
C2458 C2457 1.383 . S
C2458 C2459 1.377 . S
C2459 H2443 0.930 . S
C2459 C2458 1.377 . S
C2459 C2460 1.379 . S
C2460 H2444 0.931 . S
C2460 C2454 1.383 . S
C2460 C2459 1.379 . S
H2461 C2455 0.959 . S
H2462 C2455 0.961 . S
H2463 C2455 0.960 . S
H2464 C2456 0.930 . S
H2465 C2457 0.929 . S
H2466 C2474 0.929 . S
H2467 C2476 0.930 . S
H2468 C2478 0.930 . S
H2469 C2481 0.929 1_554 S
H2470 C2484 0.930 . S
H2471 C2486 0.960 . S
H2472 C2486 0.960 . S
H2473 C2486 0.960 . S
C2474 H2466 0.929 . S
C2474 C2475 1.377 . S
C2474 C2476 1.384 . S
C2475 C2474 1.377 . S
C2475 C2481 1.390 . S
C2476 H2467 0.930 . S
C2476 C2474 1.384 . S
C2476 C2477 1.372 . S
C2477 C2476 1.372 . S
C2477 C2478 1.400 . S
C2477 C2482 1.490 . S
C2478 H2468 0.930 . S
C2478 C2477 1.400 . S
C2478 C2481 1.386 . S
H2479 C2495 0.930 . S
H2480 C2496 0.931 . S
C2481 H2469 0.929 1_556 S
C2481 C2475 1.390 . S
C2481 C2478 1.386 . S
C2482 C2477 1.490 . S
C2482 C2484 1.395 . S
C2482 C2485 1.403 . S
H2483 C2489 0.930 . S
C2484 H2470 0.930 . S
C2484 C2482 1.395 . S
C2484 C2487 1.403 . S
C2485 C2482 1.403 . S
C2485 C2486 1.524 . S
C2485 C2489 1.400 . S
C2486 H2471 0.960 . S
C2486 H2472 0.960 . S
C2486 H2473 0.960 . S
C2486 C2485 1.524 . S
C2487 C2484 1.403 . S
C2487 C2488 1.392 . S
C2487 C2491 1.495 . S
C2488 C2487 1.392 . S
C2488 C2489 1.385 . S
C2488 C2490 1.478 . S
C2489 H2483 0.930 . S
C2489 C2485 1.400 . S
C2489 C2488 1.385 . S
C2490 C2488 1.478 . S
C2490 C2492 1.381 . S
C2490 C2496 1.383 . S
C2491 C2487 1.495 . S
C2491 H2497 0.959 . S
C2491 H2498 0.961 . S
C2491 H2499 0.960 . S
C2492 C2490 1.381 . S
C2492 C2493 1.394 . S
C2492 H2500 0.930 . S
C2493 C2492 1.394 . S
C2493 C2494 1.383 . S
C2493 H2501 0.929 . S
C2494 C2493 1.383 . S
C2494 C2495 1.377 . S
C2495 H2479 0.930 . S
C2495 C2494 1.377 . S
C2495 C2496 1.379 . S
C2496 H2480 0.931 . S
C2496 C2490 1.383 . S
C2496 C2495 1.379 . S
H2497 C2491 0.959 . S
H2498 C2491 0.961 . S
H2499 C2491 0.960 . S
H2500 C2492 0.930 . S
H2501 C2493 0.929 . S
H2502 C2510 0.929 1_554 S
H2503 C2512 0.930 . S
H2504 C2514 0.930 . S
H2505 C2517 0.929 . S
H2506 C2520 0.930 . S
H2507 C2522 0.960 . S
H2508 C2522 0.960 . S
H2509 C2522 0.960 . S
C2510 H2502 0.929 1_556 S
C2510 C2511 1.377 . S
C2510 C2512 1.384 . S
C2511 C2510 1.377 . S
C2511 C2517 1.390 . S
C2512 H2503 0.930 . S
C2512 C2510 1.384 . S
C2512 C2513 1.372 . S
C2513 C2512 1.372 . S
C2513 C2514 1.400 . S
C2513 C2518 1.490 . S
C2514 H2504 0.930 . S
C2514 C2513 1.400 . S
C2514 C2517 1.386 . S
H2515 C2531 0.930 . S
H2516 C2532 0.931 . S
C2517 H2505 0.929 . S
C2517 C2511 1.390 . S
C2517 C2514 1.386 . S
C2518 C2513 1.490 . S
C2518 C2520 1.395 . S
C2518 C2521 1.403 . S
H2519 C2525 0.930 . S
C2520 H2506 0.930 . S
C2520 C2518 1.395 . S
C2520 C2523 1.403 . S
C2521 C2518 1.403 . S
C2521 C2522 1.524 . S
C2521 C2525 1.400 . S
C2522 H2507 0.960 . S
C2522 H2508 0.960 . S
C2522 H2509 0.960 . S
C2522 C2521 1.524 . S
C2523 C2520 1.403 . S
C2523 C2524 1.392 . S
C2523 C2527 1.495 . S
C2524 C2523 1.392 . S
C2524 C2525 1.385 . S
C2524 C2526 1.478 . S
C2525 H2519 0.930 . S
C2525 C2521 1.400 . S
C2525 C2524 1.385 . S
C2526 C2524 1.478 . S
C2526 C2528 1.381 . S
C2526 C2532 1.383 . S
C2527 C2523 1.495 . S
C2527 H2533 0.959 . S
C2527 H2534 0.961 . S
C2527 H2535 0.960 . S
C2528 C2526 1.381 . S
C2528 C2529 1.394 . S
C2528 H2536 0.930 . S
C2529 C2528 1.394 . S
C2529 C2530 1.383 . S
C2529 H2537 0.929 . S
C2530 C2529 1.383 . S
C2530 C2531 1.377 . S
C2531 H2515 0.930 . S
C2531 C2530 1.377 . S
C2531 C2532 1.379 . S
C2532 H2516 0.931 . S
C2532 C2526 1.383 . S
C2532 C2531 1.379 . S
H2533 C2527 0.959 . S
H2534 C2527 0.961 . S
H2535 C2527 0.960 . S
H2536 C2528 0.930 . S
H2537 C2529 0.929 . S
H2538 C2546 0.929 . S
H2539 C2548 0.930 . S
H2540 C2550 0.930 . S
H2541 C2553 0.929 . S
H2542 C2556 0.930 . S
H2543 C2558 0.960 . S
H2544 C2558 0.960 . S
H2545 C2558 0.960 . S
C2546 H2538 0.929 . S
C2546 C2547 1.377 . S
C2546 C2548 1.384 . S
C2547 C2546 1.377 . S
C2547 C2553 1.390 . S
C2548 H2539 0.930 . S
C2548 C2546 1.384 . S
C2548 C2549 1.372 . S
C2549 C2548 1.372 . S
C2549 C2550 1.400 . S
C2549 C2554 1.490 . S
C2550 H2540 0.930 . S
C2550 C2549 1.400 . S
C2550 C2553 1.386 . S
H2551 C2567 0.930 . S
H2552 C2568 0.931 . S
C2553 H2541 0.929 . S
C2553 C2547 1.390 . S
C2553 C2550 1.386 . S
C2554 C2549 1.490 . S
C2554 C2556 1.395 . S
C2554 C2557 1.403 . S
H2555 C2561 0.930 . S
C2556 H2542 0.930 . S
C2556 C2554 1.395 . S
C2556 C2559 1.403 . S
C2557 C2554 1.403 . S
C2557 C2558 1.524 . S
C2557 C2561 1.400 . S
C2558 H2543 0.960 . S
C2558 H2544 0.960 . S
C2558 H2545 0.960 . S
C2558 C2557 1.524 . S
C2559 C2556 1.403 . S
C2559 C2560 1.392 . S
C2559 C2563 1.495 . S
C2560 C2559 1.392 . S
C2560 C2561 1.385 . S
C2560 C2562 1.478 . S
C2561 H2555 0.930 . S
C2561 C2557 1.400 . S
C2561 C2560 1.385 . S
C2562 C2560 1.478 . S
C2562 C2564 1.381 . S
C2562 C2568 1.383 . S
C2563 C2559 1.495 . S
C2563 H2569 0.959 . S
C2563 H2570 0.961 . S
C2563 H2571 0.960 . S
C2564 C2562 1.381 . S
C2564 C2565 1.394 . S
C2564 H2572 0.930 . S
C2565 C2564 1.394 . S
C2565 C2566 1.383 . S
C2565 H2573 0.929 . S
C2566 C2565 1.383 . S
C2566 C2567 1.377 . S
C2567 H2551 0.930 . S
C2567 C2566 1.377 . S
C2567 C2568 1.379 . S
C2568 H2552 0.931 . S
C2568 C2562 1.383 . S
C2568 C2567 1.379 . S
H2569 C2563 0.959 . S
H2570 C2563 0.961 . S
H2571 C2563 0.960 . S
H2572 C2564 0.930 . S
H2573 C2565 0.929 . S
H2574 C2582 0.965 . S
H2575 C2584 0.930 . S
H2576 C2586 0.930 . S
H2577 C2589 0.929 . S
H2578 C2592 0.930 . S
H2579 C2594 0.960 . S
H2580 C2594 0.960 . S
H2581 C2594 0.960 . S
C2582 H2574 0.965 . S
C2582 C2583 1.377 . S
C2582 C2584 1.384 . S
C2583 C2582 1.377 . S
C2583 C2589 1.390 . S
C2584 H2575 0.930 . S
C2584 C2582 1.384 . S
C2584 C2585 1.372 . S
C2585 C2584 1.372 . S
C2585 C2586 1.400 . S
C2585 C2590 1.490 . S
C2586 H2576 0.930 . S
C2586 C2585 1.400 . S
C2586 C2589 1.386 . S
H2587 C2603 0.930 . S
H2588 C2604 0.931 . S
C2589 H2577 0.929 . S
C2589 C2583 1.390 . S
C2589 C2586 1.386 . S
C2590 C2585 1.490 . S
C2590 C2592 1.395 . S
C2590 C2593 1.403 . S
H2591 C2597 0.930 . S
C2592 H2578 0.930 . S
C2592 C2590 1.395 . S
C2592 C2595 1.403 . S
C2593 C2590 1.403 . S
C2593 C2594 1.524 . S
C2593 C2597 1.400 . S
C2594 H2579 0.960 . S
C2594 H2580 0.960 . S
C2594 H2581 0.960 . S
C2594 C2593 1.524 . S
C2595 C2592 1.403 . S
C2595 C2596 1.392 . S
C2595 C2599 1.495 . S
C2596 C2595 1.392 . S
C2596 C2597 1.385 . S
C2596 C2598 1.478 . S
C2597 H2591 0.930 . S
C2597 C2593 1.400 . S
C2597 C2596 1.385 . S
C2598 C2596 1.478 . S
C2598 C2600 1.381 . S
C2598 C2604 1.383 . S
C2599 C2595 1.495 . S
C2599 H2605 0.959 . S
C2599 H2606 0.961 . S
C2599 H2607 0.960 . S
C2600 C2598 1.381 . S
C2600 C2601 1.394 . S
C2600 H2608 0.930 . S
C2601 C2600 1.394 . S
C2601 C2602 1.383 . S
C2601 H2609 0.929 . S
C2602 C2601 1.383 . S
C2602 C2603 1.377 . S
C2603 H2587 0.930 . S
C2603 C2602 1.377 . S
C2603 C2604 1.379 . S
C2604 H2588 0.931 . S
C2604 C2598 1.383 . S
C2604 C2603 1.379 . S
H2605 C2599 0.959 . S
H2606 C2599 0.961 . S
H2607 C2599 0.960 . S
H2608 C2600 0.930 . S
H2609 C2601 0.929 . S
H2610 C2618 0.929 1_554 S
H2611 C2620 0.930 . S
H2612 C2622 0.930 . S
H2613 C2625 0.929 . S
H2614 C2628 0.930 . S
H2615 C2630 0.960 . S
H2616 C2630 0.960 . S
H2617 C2630 0.960 . S
C2618 H2610 0.929 1_556 S
C2618 C2619 1.377 . S
C2618 C2620 1.384 . S
C2619 C2618 1.377 . S
C2619 C2625 1.390 . S
C2620 H2611 0.930 . S
C2620 C2618 1.384 . S
C2620 C2621 1.372 . S
C2621 C2620 1.372 . S
C2621 C2622 1.400 . S
C2621 C2626 1.490 . S
C2622 H2612 0.930 . S
C2622 C2621 1.400 . S
C2622 C2625 1.386 . S
H2623 C2639 0.930 . S
H2624 C2640 0.931 . S
C2625 H2613 0.929 . S
C2625 C2619 1.390 . S
C2625 C2622 1.386 . S
C2626 C2621 1.490 . S
C2626 C2628 1.395 . S
C2626 C2629 1.403 . S
H2627 C2633 0.930 . S
C2628 H2614 0.930 . S
C2628 C2626 1.395 . S
C2628 C2631 1.403 . S
C2629 C2626 1.403 . S
C2629 C2630 1.524 . S
C2629 C2633 1.400 . S
C2630 H2615 0.960 . S
C2630 H2616 0.960 . S
C2630 H2617 0.960 . S
C2630 C2629 1.524 . S
C2631 C2628 1.403 . S
C2631 C2632 1.392 . S
C2631 C2635 1.495 . S
C2632 C2631 1.392 . S
C2632 C2633 1.385 . S
C2632 C2634 1.478 . S
C2633 H2627 0.930 . S
C2633 C2629 1.400 . S
C2633 C2632 1.385 . S
C2634 C2632 1.478 . S
C2634 C2636 1.381 . S
C2634 C2640 1.383 . S
C2635 C2631 1.495 . S
C2635 H2641 0.959 . S
C2635 H2642 0.961 . S
C2635 H2643 0.960 . S
C2636 C2634 1.381 . S
C2636 C2637 1.394 . S
C2636 H2644 0.930 . S
C2637 C2636 1.394 . S
C2637 C2638 1.383 . S
C2637 H2645 0.929 . S
C2638 C2637 1.383 . S
C2638 C2639 1.377 . S
C2639 H2623 0.930 . S
C2639 C2638 1.377 . S
C2639 C2640 1.379 . S
C2640 H2624 0.931 . S
C2640 C2634 1.383 . S
C2640 C2639 1.379 . S
H2641 C2635 0.959 . S
H2642 C2635 0.961 . S
H2643 C2635 0.960 . S
H2644 C2636 0.930 . S
H2645 C2637 0.929 . S
H2646 C2654 0.929 . S
H2647 C2656 0.930 . S
H2648 C2658 0.930 . S
H2649 C2661 0.929 1_554 S
H2650 C2664 0.930 . S
H2651 C2666 0.960 . S
H2652 C2666 0.960 . S
H2653 C2666 0.960 . S
C2654 H2646 0.929 . S
C2654 C2655 1.377 . S
C2654 C2656 1.384 . S
C2655 C2654 1.377 . S
C2655 C2661 1.390 . S
C2656 H2647 0.930 . S
C2656 C2654 1.384 . S
C2656 C2657 1.372 . S
C2657 C2656 1.372 . S
C2657 C2658 1.400 . S
C2657 C2662 1.490 . S
C2658 H2648 0.930 . S
C2658 C2657 1.400 . S
C2658 C2661 1.386 . S
H2659 C2675 0.930 . S
H2660 C2676 0.931 . S
C2661 H2649 0.929 1_556 S
C2661 C2655 1.390 . S
C2661 C2658 1.386 . S
C2662 C2657 1.490 . S
C2662 C2664 1.395 . S
C2662 C2665 1.403 . S
H2663 C2669 0.930 . S
C2664 H2650 0.930 . S
C2664 C2662 1.395 . S
C2664 C2667 1.403 . S
C2665 C2662 1.403 . S
C2665 C2666 1.524 . S
C2665 C2669 1.400 . S
C2666 H2651 0.960 . S
C2666 H2652 0.960 . S
C2666 H2653 0.960 . S
C2666 C2665 1.524 . S
C2667 C2664 1.403 . S
C2667 C2668 1.392 . S
C2667 C2671 1.495 . S
C2668 C2667 1.392 . S
C2668 C2669 1.385 . S
C2668 C2670 1.478 . S
C2669 H2663 0.930 . S
C2669 C2665 1.400 . S
C2669 C2668 1.385 . S
C2670 C2668 1.478 . S
C2670 C2672 1.381 . S
C2670 C2676 1.383 . S
C2671 C2667 1.495 . S
C2671 H2677 0.959 . S
C2671 H2678 0.961 . S
C2671 H2679 0.960 . S
C2672 C2670 1.381 . S
C2672 C2673 1.394 . S
C2672 H2680 0.930 . S
C2673 C2672 1.394 . S
C2673 C2674 1.383 . S
C2673 H2681 0.929 . S
C2674 C2673 1.383 . S
C2674 C2675 1.377 . S
C2675 H2659 0.930 . S
C2675 C2674 1.377 . S
C2675 C2676 1.379 . S
C2676 H2660 0.931 . S
C2676 C2670 1.383 . S
C2676 C2675 1.379 . S
H2677 C2671 0.959 . S
H2678 C2671 0.961 . S
H2679 C2671 0.960 . S
H2680 C2672 0.930 . S
H2681 C2673 0.929 . S
H2682 C2690 0.929 . S
H2683 C2692 0.930 . S
H2684 C2694 0.930 . S
H2685 C2697 0.929 . S
H2686 C2700 0.930 . S
H2687 C2702 0.960 . S
H2688 C2702 0.960 . S
H2689 C2702 0.960 . S
C2690 H2682 0.929 . S
C2690 C2691 1.377 . S
C2690 C2692 1.384 . S
C2691 C2690 1.377 . S
C2691 C2697 1.390 . S
C2692 H2683 0.930 . S
C2692 C2690 1.384 . S
C2692 C2693 1.372 . S
C2693 C2692 1.372 . S
C2693 C2694 1.400 . S
C2693 C2698 1.490 . S
C2694 H2684 0.930 . S
C2694 C2693 1.400 . S
C2694 C2697 1.386 . S
H2695 C2711 0.930 . S
H2696 C2712 0.931 . S
C2697 H2685 0.929 . S
C2697 C2691 1.390 . S
C2697 C2694 1.386 . S
C2698 C2693 1.490 . S
C2698 C2700 1.395 . S
C2698 C2701 1.403 . S
H2699 C2705 0.930 . S
C2700 H2686 0.930 . S
C2700 C2698 1.395 . S
C2700 C2703 1.403 . S
C2701 C2698 1.403 . S
C2701 C2702 1.524 . S
C2701 C2705 1.400 . S
C2702 H2687 0.960 . S
C2702 H2688 0.960 . S
C2702 H2689 0.960 . S
C2702 C2701 1.524 . S
C2703 C2700 1.403 . S
C2703 C2704 1.392 . S
C2703 C2707 1.495 . S
C2704 C2703 1.392 . S
C2704 C2705 1.385 . S
C2704 C2706 1.478 . S
C2705 H2699 0.930 . S
C2705 C2701 1.400 . S
C2705 C2704 1.385 . S
C2706 C2704 1.478 . S
C2706 C2708 1.381 . S
C2706 C2712 1.383 . S
C2707 C2703 1.495 . S
C2707 H2713 0.959 . S
C2707 H2714 0.961 . S
C2707 H2715 0.960 . S
C2708 C2706 1.381 . S
C2708 C2709 1.394 . S
C2708 H2716 0.930 . S
C2709 C2708 1.394 . S
C2709 C2710 1.383 . S
C2709 H2717 0.929 . S
C2710 C2709 1.383 . S
C2710 C2711 1.377 . S
C2711 H2695 0.930 . S
C2711 C2710 1.377 . S
C2711 C2712 1.379 . S
C2712 H2696 0.931 . S
C2712 C2706 1.383 . S
C2712 C2711 1.379 . S
H2713 C2707 0.959 . S
H2714 C2707 0.961 . S
H2715 C2707 0.960 . S
H2716 C2708 0.930 . S
H2717 C2709 0.929 . S
H2718 C2726 0.929 . S
H2719 C2728 0.930 . S
H2720 C2730 0.930 . S
H2721 C2733 0.929 . S
H2722 C2736 0.930 . S
H2723 C2738 0.960 . S
H2724 C2738 0.960 . S
H2725 C2738 0.960 . S
C2726 H2718 0.929 . S
C2726 C2727 1.377 . S
C2726 C2728 1.384 . S
C2727 C2726 1.377 . S
C2727 C2733 1.390 . S
C2728 H2719 0.930 . S
C2728 C2726 1.384 . S
C2728 C2729 1.372 . S
C2729 C2728 1.372 . S
C2729 C2730 1.400 . S
C2729 C2734 1.490 . S
C2730 H2720 0.930 . S
C2730 C2729 1.400 . S
C2730 C2733 1.386 . S
H2731 C2747 0.930 . S
H2732 C2748 0.931 . S
C2733 H2721 0.929 . S
C2733 C2727 1.390 . S
C2733 C2730 1.386 . S
C2734 C2729 1.490 . S
C2734 C2736 1.395 . S
C2734 C2737 1.403 . S
H2735 C2741 0.930 . S
C2736 H2722 0.930 . S
C2736 C2734 1.395 . S
C2736 C2739 1.403 . S
C2737 C2734 1.403 . S
C2737 C2738 1.524 . S
C2737 C2741 1.400 . S
C2738 H2723 0.960 . S
C2738 H2724 0.960 . S
C2738 H2725 0.960 . S
C2738 C2737 1.524 . S
C2739 C2736 1.403 . S
C2739 C2740 1.392 . S
C2739 C2743 1.495 . S
C2740 C2739 1.392 . S
C2740 C2741 1.385 . S
C2740 C2742 1.478 . S
C2741 H2735 0.930 . S
C2741 C2737 1.400 . S
C2741 C2740 1.385 . S
C2742 C2740 1.478 . S
C2742 C2744 1.381 . S
C2742 C2748 1.383 . S
C2743 C2739 1.495 . S
C2743 H2749 0.959 . S
C2743 H2750 0.961 . S
C2743 H2751 0.960 . S
C2744 C2742 1.381 . S
C2744 C2745 1.394 . S
C2744 H2752 0.930 . S
C2745 C2744 1.394 . S
C2745 C2746 1.383 . S
C2745 H2753 0.929 . S
C2746 C2745 1.383 . S
C2746 C2747 1.377 . S
C2747 H2731 0.930 . S
C2747 C2746 1.377 . S
C2747 C2748 1.379 . S
C2748 H2732 0.931 . S
C2748 C2742 1.383 . S
C2748 C2747 1.379 . S
H2749 C2743 0.959 . S
H2750 C2743 0.961 . S
H2751 C2743 0.960 . S
H2752 C2744 0.930 . S
H2753 C2745 0.929 . S
H2754 C2762 0.929 . S
H2755 C2764 0.930 . S
H2756 C2766 0.930 . S
H2757 C2769 0.929 . S
H2758 C2772 0.930 . S
H2759 C2774 0.960 . S
H2760 C2774 0.960 . S
H2761 C2774 0.960 . S
C2762 H2754 0.929 . S
C2762 C2763 1.377 . S
C2762 C2764 1.384 . S
C2763 C2762 1.377 . S
C2763 C2769 1.390 . S
C2764 H2755 0.930 . S
C2764 C2762 1.384 . S
C2764 C2765 1.372 . S
C2765 C2764 1.372 . S
C2765 C2766 1.400 . S
C2765 C2770 1.490 . S
C2766 H2756 0.930 . S
C2766 C2765 1.400 . S
C2766 C2769 1.386 . S
H2767 C2783 0.930 . S
H2768 C2784 0.931 . S
C2769 H2757 0.929 . S
C2769 C2763 1.390 . S
C2769 C2766 1.386 . S
C2770 C2765 1.490 . S
C2770 C2772 1.395 . S
C2770 C2773 1.403 . S
H2771 C2777 0.930 . S
C2772 H2758 0.930 . S
C2772 C2770 1.395 . S
C2772 C2775 1.403 . S
C2773 C2770 1.403 . S
C2773 C2774 1.524 . S
C2773 C2777 1.400 . S
C2774 H2759 0.960 . S
C2774 H2760 0.960 . S
C2774 H2761 0.960 . S
C2774 C2773 1.524 . S
C2775 C2772 1.403 . S
C2775 C2776 1.392 . S
C2775 C2779 1.495 . S
C2776 C2775 1.392 . S
C2776 C2777 1.385 . S
C2776 C2778 1.478 . S
C2777 H2771 0.930 . S
C2777 C2773 1.400 . S
C2777 C2776 1.385 . S
C2778 C2776 1.478 . S
C2778 C2780 1.381 . S
C2778 C2784 1.383 . S
C2779 C2775 1.495 . S
C2779 H2785 0.959 . S
C2779 H2786 0.961 . S
C2779 H2787 0.960 . S
C2780 C2778 1.381 . S
C2780 C2781 1.394 . S
C2780 H2788 0.930 . S
C2781 C2780 1.394 . S
C2781 C2782 1.383 . S
C2781 H2789 0.929 . S
C2782 C2781 1.383 . S
C2782 C2783 1.377 . S
C2783 H2767 0.930 . S
C2783 C2782 1.377 . S
C2783 C2784 1.379 . S
C2784 H2768 0.931 . S
C2784 C2778 1.383 . S
C2784 C2783 1.379 . S
H2785 C2779 0.959 . S
H2786 C2779 0.961 . S
H2787 C2779 0.960 . S
H2788 C2780 0.930 . S
H2789 C2781 0.929 . S
H2790 C2798 0.929 . S
H2791 C2800 0.930 . S
H2792 C2802 0.930 . S
H2793 C2805 0.929 . S
H2794 C2808 0.930 . S
H2795 C2810 0.960 . S
H2796 C2810 0.960 . S
H2797 C2810 0.960 . S
C2798 H2790 0.929 . S
C2798 C2799 1.377 . S
C2798 C2800 1.384 . S
C2799 C2798 1.377 . S
C2799 C2805 1.390 . S
C2800 H2791 0.930 . S
C2800 C2798 1.384 . S
C2800 C2801 1.372 . S
C2801 C2800 1.372 . S
C2801 C2802 1.400 . S
C2801 C2806 1.490 . S
C2802 H2792 0.930 . S
C2802 C2801 1.400 . S
C2802 C2805 1.386 . S
H2803 C2819 0.930 . S
H2804 C2820 0.931 . S
C2805 H2793 0.929 . S
C2805 C2799 1.390 . S
C2805 C2802 1.386 . S
C2806 C2801 1.490 . S
C2806 C2808 1.395 . S
C2806 C2809 1.403 . S
H2807 C2813 0.930 . S
C2808 H2794 0.930 . S
C2808 C2806 1.395 . S
C2808 C2811 1.403 . S
C2809 C2806 1.403 . S
C2809 C2810 1.524 . S
C2809 C2813 1.400 . S
C2810 H2795 0.960 . S
C2810 H2796 0.960 . S
C2810 H2797 0.960 . S
C2810 C2809 1.524 . S
C2811 C2808 1.403 . S
C2811 C2812 1.392 . S
C2811 C2815 1.495 . S
C2812 C2811 1.392 . S
C2812 C2813 1.385 . S
C2812 C2814 1.478 . S
C2813 H2807 0.930 . S
C2813 C2809 1.400 . S
C2813 C2812 1.385 . S
C2814 C2812 1.478 . S
C2814 C2816 1.381 . S
C2814 C2820 1.383 . S
C2815 C2811 1.495 . S
C2815 H2821 0.959 . S
C2815 H2822 0.961 . S
C2815 H2823 0.960 . S
C2816 C2814 1.381 . S
C2816 C2817 1.394 . S
C2816 H2824 0.930 . S
C2817 C2816 1.394 . S
C2817 C2818 1.383 . S
C2817 H2825 0.929 . S
C2818 C2817 1.383 . S
C2818 C2819 1.377 . S
C2819 H2803 0.930 . S
C2819 C2818 1.377 . S
C2819 C2820 1.379 . S
C2820 H2804 0.931 . S
C2820 C2814 1.383 . S
C2820 C2819 1.379 . S
H2821 C2815 0.959 . S
H2822 C2815 0.961 . S
H2823 C2815 0.960 . S
H2824 C2816 0.930 . S
H2825 C2817 0.929 . S
H2826 C2834 0.929 . S
H2827 C2836 0.930 . S
H2828 C2838 0.930 . S
H2829 C2841 0.929 . S
H2830 C2844 0.930 . S
H2831 C2846 0.960 . S
H2832 C2846 0.960 . S
H2833 C2846 0.960 . S
C2834 H2826 0.929 . S
C2834 C2835 1.377 . S
C2834 C2836 1.384 . S
C2835 C2834 1.377 . S
C2835 C2841 1.390 . S
C2836 H2827 0.930 . S
C2836 C2834 1.384 . S
C2836 C2837 1.372 . S
C2837 C2836 1.372 . S
C2837 C2838 1.400 . S
C2837 C2842 1.490 . S
C2838 H2828 0.930 . S
C2838 C2837 1.400 . S
C2838 C2841 1.386 . S
H2839 C2855 0.930 . S
H2840 C2856 0.931 . S
C2841 H2829 0.929 . S
C2841 C2835 1.390 . S
C2841 C2838 1.386 . S
C2842 C2837 1.490 . S
C2842 C2844 1.395 . S
C2842 C2845 1.403 . S
H2843 C2849 0.930 . S
C2844 H2830 0.930 . S
C2844 C2842 1.395 . S
C2844 C2847 1.403 . S
C2845 C2842 1.403 . S
C2845 C2846 1.524 . S
C2845 C2849 1.400 . S
C2846 H2831 0.960 . S
C2846 H2832 0.960 . S
C2846 H2833 0.960 . S
C2846 C2845 1.524 . S
C2847 C2844 1.403 . S
C2847 C2848 1.392 . S
C2847 C2851 1.495 . S
C2848 C2847 1.392 . S
C2848 C2849 1.385 . S
C2848 C2850 1.478 . S
C2849 H2843 0.930 . S
C2849 C2845 1.400 . S
C2849 C2848 1.385 . S
C2850 C2848 1.478 . S
C2850 C2852 1.381 . S
C2850 C2856 1.383 . S
C2851 C2847 1.495 . S
C2851 H2857 0.959 . S
C2851 H2858 0.961 . S
C2851 H2859 0.960 . S
C2852 C2850 1.381 . S
C2852 C2853 1.394 . S
C2852 H2860 0.930 . S
C2853 C2852 1.394 . S
C2853 C2854 1.383 . S
C2853 H2861 0.929 . S
C2854 C2853 1.383 . S
C2854 C2855 1.377 . S
C2855 H2839 0.930 . S
C2855 C2854 1.377 . S
C2855 C2856 1.379 . S
C2856 H2840 0.931 . S
C2856 C2850 1.383 . S
C2856 C2855 1.379 . S
H2857 C2851 0.959 . S
H2858 C2851 0.961 . S
H2859 C2851 0.960 . S
H2860 C2852 0.930 . S
H2861 C2853 0.929 . S
H2862 C2870 0.929 . S
H2863 C2872 0.930 . S
H2864 C2874 0.930 . S
H2865 C2877 0.929 . S
H2866 C2880 0.930 . S
H2867 C2882 0.960 . S
H2868 C2882 0.960 . S
H2869 C2882 0.960 . S
C2870 H2862 0.929 . S
C2870 C2871 1.377 . S
C2870 C2872 1.384 . S
C2871 C2870 1.377 . S
C2871 C2877 1.390 . S
C2872 H2863 0.930 . S
C2872 C2870 1.384 . S
C2872 C2873 1.372 . S
C2873 C2872 1.372 . S
C2873 C2874 1.400 . S
C2873 C2878 1.490 . S
C2874 H2864 0.930 . S
C2874 C2873 1.400 . S
C2874 C2877 1.386 . S
H2875 C2891 0.930 . S
H2876 C2892 0.931 . S
C2877 H2865 0.929 . S
C2877 C2871 1.390 . S
C2877 C2874 1.386 . S
C2878 C2873 1.490 . S
C2878 C2880 1.395 . S
C2878 C2881 1.403 . S
H2879 C2885 0.930 . S
C2880 H2866 0.930 . S
C2880 C2878 1.395 . S
C2880 C2883 1.403 . S
C2881 C2878 1.403 . S
C2881 C2882 1.524 . S
C2881 C2885 1.400 . S
C2882 H2867 0.960 . S
C2882 H2868 0.960 . S
C2882 H2869 0.960 . S
C2882 C2881 1.524 . S
C2883 C2880 1.403 . S
C2883 C2884 1.392 . S
C2883 C2887 1.495 . S
C2884 C2883 1.392 . S
C2884 C2885 1.385 . S
C2884 C2886 1.478 . S
C2885 H2879 0.930 . S
C2885 C2881 1.400 . S
C2885 C2884 1.385 . S
C2886 C2884 1.478 . S
C2886 C2888 1.381 . S
C2886 C2892 1.383 . S
C2887 C2883 1.495 . S
C2887 H2893 0.959 . S
C2887 H2894 0.961 . S
C2887 H2895 0.960 . S
C2888 C2886 1.381 . S
C2888 C2889 1.394 . S
C2888 H2896 0.930 . S
C2889 C2888 1.394 . S
C2889 C2890 1.383 . S
C2889 H2897 0.929 . S
C2890 C2889 1.383 . S
C2890 C2891 1.377 . S
C2891 H2875 0.930 . S
C2891 C2890 1.377 . S
C2891 C2892 1.379 . S
C2892 H2876 0.931 . S
C2892 C2886 1.383 . S
C2892 C2891 1.379 . S
H2893 C2887 0.959 . S
H2894 C2887 0.961 . S
H2895 C2887 0.960 . S
H2896 C2888 0.930 . S
H2897 C2889 0.929 . S
H2898 C2906 0.929 . S
H2899 C2908 0.930 . S
H2900 C2910 0.930 . S
H2901 C2913 0.929 . S
H2902 C2916 0.930 . S
H2903 C2918 0.960 . S
H2904 C2918 0.960 . S
H2905 C2918 0.960 . S
C2906 H2898 0.929 . S
C2906 C2907 1.377 1_655 S
C2906 C2908 1.384 . S
C2907 C2906 1.377 1_455 S
C2907 C2913 1.390 . S
C2908 H2899 0.930 . S
C2908 C2906 1.384 . S
C2908 C2909 1.372 1_655 S
C2909 C2908 1.372 1_455 S
C2909 C2910 1.400 . S
C2909 C2914 1.490 . S
C2910 H2900 0.930 . S
C2910 C2909 1.400 . S
C2910 C2913 1.386 . S
H2911 C2927 0.930 . S
H2912 C2928 0.931 . S
C2913 H2901 0.929 . S
C2913 C2907 1.390 . S
C2913 C2910 1.386 . S
C2914 C2909 1.490 . S
C2914 C2916 1.395 . S
C2914 C2917 1.403 . S
H2915 C2921 0.930 . S
C2916 H2902 0.930 . S
C2916 C2914 1.395 . S
C2916 C2919 1.403 . S
C2917 C2914 1.403 . S
C2917 C2918 1.524 . S
C2917 C2921 1.400 . S
C2918 H2903 0.960 . S
C2918 H2904 0.960 . S
C2918 H2905 0.960 . S
C2918 C2917 1.524 . S
C2919 C2916 1.403 . S
C2919 C2920 1.392 . S
C2919 C2923 1.495 1_455 S
C2920 C2919 1.392 . S
C2920 C2921 1.385 . S
C2920 C2922 1.478 . S
C2921 H2915 0.930 . S
C2921 C2917 1.400 . S
C2921 C2920 1.385 . S
C2922 C2920 1.478 . S
C2922 C2924 1.381 1_455 S
C2922 C2928 1.383 . S
C2923 C2919 1.495 1_655 S
C2923 H2929 0.959 . S
C2923 H2930 0.961 1_655 S
C2923 H2931 0.960 . S
C2924 C2922 1.381 1_655 S
C2924 C2925 1.394 . S
C2924 H2932 0.930 . S
C2925 C2924 1.394 . S
C2925 C2926 1.383 1_655 S
C2925 H2933 0.929 . S
C2926 C2925 1.383 1_455 S
C2926 C2927 1.377 . S
C2927 H2911 0.930 . S
C2927 C2926 1.377 . S
C2927 C2928 1.379 . S
C2928 H2912 0.931 . S
C2928 C2922 1.383 . S
C2928 C2927 1.379 . S
H2929 C2923 0.959 . S
H2930 C2923 0.961 1_455 S
H2931 C2923 0.960 . S
H2932 C2924 0.930 . S
H2933 C2925 0.929 . S
H2934 C2942 0.929 . S
H2935 C2944 0.930 . S
H2936 C2946 0.930 . S
H2937 C2949 0.929 . S
H2938 C2952 0.930 . S
H2939 C2954 0.960 . S
H2940 C2954 0.960 . S
H2941 C2954 0.960 . S
C2942 H2934 0.929 . S
C2942 C2943 1.377 . S
C2942 C2944 1.384 . S
C2943 C2942 1.377 . S
C2943 C2949 1.390 . S
C2944 H2935 0.930 . S
C2944 C2942 1.384 . S
C2944 C2945 1.372 . S
C2945 C2944 1.372 . S
C2945 C2946 1.400 . S
C2945 C2950 1.490 . S
C2946 H2936 0.930 . S
C2946 C2945 1.400 . S
C2946 C2949 1.386 . S
H2947 C2963 0.930 . S
H2948 C2964 0.931 . S
C2949 H2937 0.929 . S
C2949 C2943 1.390 . S
C2949 C2946 1.386 . S
C2950 C2945 1.490 . S
C2950 C2952 1.395 . S
C2950 C2953 1.403 . S
H2951 C2957 0.930 . S
C2952 H2938 0.930 . S
C2952 C2950 1.395 . S
C2952 C2955 1.403 . S
C2953 C2950 1.403 . S
C2953 C2954 1.524 . S
C2953 C2957 1.400 . S
C2954 H2939 0.960 . S
C2954 H2940 0.960 . S
C2954 H2941 0.960 . S
C2954 C2953 1.524 . S
C2955 C2952 1.403 . S
C2955 C2956 1.392 . S
C2955 C2959 1.495 . S
C2956 C2955 1.392 . S
C2956 C2957 1.385 . S
C2956 C2958 1.478 . S
C2957 H2951 0.930 . S
C2957 C2953 1.400 . S
C2957 C2956 1.385 . S
C2958 C2956 1.478 . S
C2958 C2960 1.381 . S
C2958 C2964 1.383 . S
C2959 C2955 1.495 . S
C2959 H2965 0.959 . S
C2959 H2966 0.961 . S
C2959 H2967 0.960 . S
C2960 C2958 1.381 . S
C2960 C2961 1.394 . S
C2960 H2968 0.930 . S
C2961 C2960 1.394 . S
C2961 C2962 1.383 . S
C2961 H2969 0.929 . S
C2962 C2961 1.383 . S
C2962 C2963 1.377 . S
C2963 H2947 0.930 . S
C2963 C2962 1.377 . S
C2963 C2964 1.379 . S
C2964 H2948 0.931 . S
C2964 C2958 1.383 . S
C2964 C2963 1.379 . S
H2965 C2959 0.959 . S
H2966 C2959 0.961 . S
H2967 C2959 0.960 . S
H2968 C2960 0.930 . S
H2969 C2961 0.929 . S
H2970 C2978 0.929 . S
H2971 C2980 0.930 . S
H2972 C2982 0.942 . S
H2973 C2985 0.888 1_545 S
H2974 C2988 0.930 . S
H2975 C2990 0.960 . S
H2976 C2990 0.960 . S
H2977 C2990 0.960 . S
C2978 H2970 0.929 . S
C2978 C2979 1.377 . S
C2978 C2980 1.384 . S
C2979 C2978 1.377 . S
C2979 C2985 1.415 . S
C2980 H2971 0.930 . S
C2980 C2978 1.384 . S
C2980 C2981 1.372 . S
C2981 C2980 1.372 . S
C2981 C2982 1.381 1_565 S
C2981 C2986 1.490 . S
C2982 H2972 0.942 . S
C2982 C2981 1.381 1_545 S
C2982 C2985 1.411 1_545 S
H2983 C2999 0.930 . S
H2984 C3000 0.931 . S
C2985 H2973 0.888 1_565 S
C2985 C2979 1.415 . S
C2985 C2982 1.411 1_565 S
C2986 C2981 1.490 . S
C2986 C2988 1.395 . S
C2986 C2989 1.403 1_565 S
H2987 C2993 0.930 . S
C2988 H2974 0.930 . S
C2988 C2986 1.395 . S
C2988 C2991 1.403 . S
C2989 C2986 1.403 1_545 S
C2989 C2990 1.524 . S
C2989 C2993 1.400 . S
C2990 H2975 0.960 . S
C2990 H2976 0.960 . S
C2990 H2977 0.960 . S
C2990 C2989 1.524 . S
C2991 C2988 1.403 . S
C2991 C2992 1.392 . S
C2991 C2995 1.495 . S
C2992 C2991 1.392 . S
C2992 C2993 1.385 1_565 S
C2992 C2994 1.478 . S
C2993 H2987 0.930 . S
C2993 C2989 1.400 . S
C2993 C2992 1.385 1_545 S
C2994 C2992 1.478 . S
C2994 C2996 1.381 . S
C2994 C3000 1.383 1_565 S
C2995 C2991 1.495 . S
C2995 H3001 0.959 . S
C2995 H3002 0.961 . S
C2995 H3003 0.960 . S
C2996 C2994 1.381 . S
C2996 C2997 1.394 . S
C2996 H3004 0.930 . S
C2997 C2996 1.394 . S
C2997 C2998 1.383 . S
C2997 H3005 0.929 . S
C2998 C2997 1.383 . S
C2998 C2999 1.377 1_565 S
C2999 H2983 0.930 . S
C2999 C2998 1.377 1_545 S
C2999 C3000 1.379 . S
C3000 H2984 0.931 . S
C3000 C2994 1.383 1_545 S
C3000 C2999 1.379 . S
H3001 C2995 0.959 . S
H3002 C2995 0.961 . S
H3003 C2995 0.960 . S
H3004 C2996 0.930 . S
H3005 C2997 0.929 . S
H3006 C3014 0.929 . S
H3007 C3016 0.930 . S
H3008 C3018 0.930 . S
H3009 C3021 0.929 . S
H3010 C3024 0.930 . S
H3011 C3026 0.960 . S
H3012 C3026 0.960 . S
H3013 C3026 0.960 . S
C3014 H3006 0.929 . S
C3014 C3015 1.377 . S
C3014 C3016 1.384 . S
C3015 C3014 1.377 . S
C3015 C3021 1.390 . S
C3016 H3007 0.930 . S
C3016 C3014 1.384 . S
C3016 C3017 1.372 . S
C3017 C3016 1.372 . S
C3017 C3018 1.400 . S
C3017 C3022 1.490 . S
C3018 H3008 0.930 . S
C3018 C3017 1.400 . S
C3018 C3021 1.386 . S
H3019 C3035 0.930 . S
H3020 C3036 0.931 . S
C3021 H3009 0.929 . S
C3021 C3015 1.390 . S
C3021 C3018 1.386 . S
C3022 C3017 1.490 . S
C3022 C3024 1.395 . S
C3022 C3025 1.403 1_565 S
H3023 C3029 0.930 . S
C3024 H3010 0.930 . S
C3024 C3022 1.395 . S
C3024 C3027 1.403 . S
C3025 C3022 1.403 1_545 S
C3025 C3026 1.524 . S
C3025 C3029 1.400 . S
C3026 H3011 0.960 . S
C3026 H3012 0.960 . S
C3026 H3013 0.960 . S
C3026 C3025 1.524 . S
C3027 C3024 1.403 . S
C3027 C3028 1.392 . S
C3027 C3031 1.495 . S
C3028 C3027 1.392 . S
C3028 C3029 1.385 1_565 S
C3028 C3030 1.478 . S
C3029 H3023 0.930 . S
C3029 C3025 1.400 . S
C3029 C3028 1.385 1_545 S
C3030 C3028 1.478 . S
C3030 C3032 1.381 . S
C3030 C3036 1.383 . S
C3031 C3027 1.495 . S
C3031 H3037 0.959 . S
C3031 H3038 0.961 . S
C3031 H3039 0.960 . S
C3032 C3030 1.381 . S
C3032 C3033 1.394 . S
C3032 H3040 0.930 . S
C3033 C3032 1.394 . S
C3033 C3034 1.383 . S
C3033 H3041 0.929 . S
C3034 C3033 1.383 . S
C3034 C3035 1.377 . S
C3035 H3019 0.930 . S
C3035 C3034 1.377 . S
C3035 C3036 1.379 . S
C3036 H3020 0.931 . S
C3036 C3030 1.383 . S
C3036 C3035 1.379 . S
H3037 C3031 0.959 . S
H3038 C3031 0.961 . S
H3039 C3031 0.960 . S
H3040 C3032 0.930 . S
H3041 C3033 0.929 . S
H3042 C3050 0.984 . S
H3043 C3052 0.930 1_655 S
H3044 C3054 0.930 . S
H3045 C3057 0.929 . S
H3046 C3060 0.930 . S
H3047 C3062 0.960 . S
H3048 C3062 0.960 . S
H3049 C3062 0.956 . S
C3050 H3042 0.984 . S
C3050 C3051 1.377 . S
C3050 C3052 1.384 . S
C3051 C3050 1.377 . S
C3051 C3057 1.390 . S
C3052 H3043 0.930 1_455 S
C3052 C3050 1.384 . S
C3052 C3053 1.372 . S
C3053 C3052 1.372 . S
C3053 C3054 1.400 . S
C3053 C3058 1.490 . S
C3054 H3044 0.930 . S
C3054 C3053 1.400 . S
C3054 C3057 1.386 . S
H3055 C3071 0.930 . S
H3056 C3072 0.931 . S
C3057 H3045 0.929 . S
C3057 C3051 1.390 . S
C3057 C3054 1.386 . S
C3058 C3053 1.490 . S
C3058 C3060 1.395 . S
C3058 C3061 1.403 . S
H3059 C3065 0.930 1_655 S
C3060 H3046 0.930 . S
C3060 C3058 1.395 . S
C3060 C3063 1.403 . S
C3061 C3058 1.403 . S
C3061 C3062 1.524 1_455 S
C3061 C3065 1.400 . S
C3062 H3047 0.960 . S
C3062 H3048 0.960 . S
C3062 H3049 0.956 . S
C3062 C3061 1.524 1_655 S
C3063 C3060 1.403 . S
C3063 C3064 1.392 . S
C3063 C3067 1.495 . S
C3064 C3063 1.392 . S
C3064 C3065 1.385 . S
C3064 C3066 1.478 . S
C3065 H3059 0.930 1_455 S
C3065 C3061 1.400 . S
C3065 C3064 1.385 . S
C3066 C3064 1.478 . S
C3066 C3068 1.381 1_455 S
C3066 C3072 1.383 . S
C3067 C3063 1.495 . S
C3067 H3073 0.959 . S
C3067 H3074 0.961 . S
C3067 H3075 0.960 . S
C3068 C3066 1.381 1_655 S
C3068 C3069 1.394 . S
C3068 H3076 0.930 . S
C3069 C3068 1.394 . S
C3069 C3070 1.383 1_655 S
C3069 H3077 0.929 . S
C3070 C3069 1.383 1_455 S
C3070 C3071 1.377 . S
C3071 H3055 0.930 . S
C3071 C3070 1.377 . S
C3071 C3072 1.379 . S
C3072 H3056 0.931 . S
C3072 C3066 1.383 . S
C3072 C3071 1.379 . S
H3073 C3067 0.959 . S
H3074 C3067 0.961 . S
H3075 C3067 0.960 . S
H3076 C3068 0.930 . S
H3077 C3069 0.929 . S
H3078 C3086 0.929 . S
H3079 C3088 0.930 . S
H3080 C3090 0.930 . S
H3081 C3093 0.929 . S
H3082 C3096 0.930 . S
H3083 C3098 0.960 . S
H3084 C3098 0.960 . S
H3085 C3098 0.960 . S
C3086 H3078 0.929 . S
C3086 C3087 1.377 . S
C3086 C3088 1.384 . S
C3087 C3086 1.377 . S
C3087 C3093 1.390 . S
C3088 H3079 0.930 . S
C3088 C3086 1.384 . S
C3088 C3089 1.372 . S
C3089 C3088 1.372 . S
C3089 C3090 1.400 . S
C3089 C3094 1.490 . S
C3090 H3080 0.930 . S
C3090 C3089 1.400 . S
C3090 C3093 1.386 . S
H3091 C3107 0.930 . S
H3092 C3108 0.931 . S
C3093 H3081 0.929 . S
C3093 C3087 1.390 . S
C3093 C3090 1.386 . S
C3094 C3089 1.490 . S
C3094 C3096 1.395 . S
C3094 C3097 1.403 . S
H3095 C3101 0.930 . S
C3096 H3082 0.930 . S
C3096 C3094 1.395 . S
C3096 C3099 1.403 . S
C3097 C3094 1.403 . S
C3097 C3098 1.524 . S
C3097 C3101 1.400 . S
C3098 H3083 0.960 . S
C3098 H3084 0.960 . S
C3098 H3085 0.960 . S
C3098 C3097 1.524 . S
C3099 C3096 1.403 . S
C3099 C3100 1.392 . S
C3099 C3103 1.495 . S
C3100 C3099 1.392 . S
C3100 C3101 1.385 . S
C3100 C3102 1.478 . S
C3101 H3095 0.930 . S
C3101 C3097 1.400 . S
C3101 C3100 1.385 . S
C3102 C3100 1.478 . S
C3102 C3104 1.381 . S
C3102 C3108 1.383 . S
C3103 C3099 1.495 . S
C3103 H3109 0.959 . S
C3103 H3110 0.961 . S
C3103 H3111 0.960 . S
C3104 C3102 1.381 . S
C3104 C3105 1.394 . S
C3104 H3112 0.930 . S
C3105 C3104 1.394 . S
C3105 C3106 1.383 . S
C3105 H3113 0.929 . S
C3106 C3105 1.383 . S
C3106 C3107 1.377 . S
C3107 H3091 0.930 . S
C3107 C3106 1.377 . S
C3107 C3108 1.379 . S
C3108 H3092 0.931 . S
C3108 C3102 1.383 . S
C3108 C3107 1.379 . S
H3109 C3103 0.959 . S
H3110 C3103 0.961 . S
H3111 C3103 0.960 . S
H3112 C3104 0.930 . S
H3113 C3105 0.929 . S
H3114 C3122 0.929 . S
H3115 C3124 0.930 . S
H3116 C3126 0.930 . S
H3117 C3129 0.929 . S
H3118 C3132 0.930 . S
H3119 C3134 0.960 . S
H3120 C3134 0.960 . S
H3121 C3134 0.960 . S
C3122 H3114 0.929 . S
C3122 C3123 1.377 . S
C3122 C3124 1.384 . S
C3123 C3122 1.377 . S
C3123 C3129 1.390 . S
C3124 H3115 0.930 . S
C3124 C3122 1.384 . S
C3124 C3125 1.372 . S
C3125 C3124 1.372 . S
C3125 C3126 1.400 . S
C3125 C3130 1.490 . S
C3126 H3116 0.930 . S
C3126 C3125 1.400 . S
C3126 C3129 1.386 . S
H3127 C3143 0.930 . S
H3128 C3144 0.931 . S
C3129 H3117 0.929 . S
C3129 C3123 1.390 . S
C3129 C3126 1.386 . S
C3130 C3125 1.490 . S
C3130 C3132 1.395 . S
C3130 C3133 1.403 . S
H3131 C3137 0.930 . S
C3132 H3118 0.930 . S
C3132 C3130 1.395 . S
C3132 C3135 1.403 . S
C3133 C3130 1.403 . S
C3133 C3134 1.524 . S
C3133 C3137 1.400 . S
C3134 H3119 0.960 . S
C3134 H3120 0.960 . S
C3134 H3121 0.960 . S
C3134 C3133 1.524 . S
C3135 C3132 1.403 . S
C3135 C3136 1.392 . S
C3135 C3139 1.495 . S
C3136 C3135 1.392 . S
C3136 C3137 1.385 . S
C3136 C3138 1.478 . S
C3137 H3131 0.930 . S
C3137 C3133 1.400 . S
C3137 C3136 1.385 . S
C3138 C3136 1.478 . S
C3138 C3140 1.381 . S
C3138 C3144 1.383 . S
C3139 C3135 1.495 . S
C3139 H3145 0.959 . S
C3139 H3146 0.961 . S
C3139 H3147 0.960 . S
C3140 C3138 1.381 . S
C3140 C3141 1.394 . S
C3140 H3148 0.930 . S
C3141 C3140 1.394 . S
C3141 C3142 1.383 . S
C3141 H3149 0.929 . S
C3142 C3141 1.383 . S
C3142 C3143 1.377 . S
C3143 H3127 0.930 . S
C3143 C3142 1.377 . S
C3143 C3144 1.379 . S
C3144 H3128 0.931 . S
C3144 C3138 1.383 . S
C3144 C3143 1.379 . S
H3145 C3139 0.959 . S
H3146 C3139 0.961 . S
H3147 C3139 0.960 . S
H3148 C3140 0.930 . S
H3149 C3141 0.929 . S
H3150 C3158 0.929 . S
H3151 C3160 0.930 . S
H3152 C3162 0.930 . S
H3153 C3165 0.929 . S
H3154 C3168 0.930 . S
H3155 C3170 0.960 . S
H3156 C3170 0.960 . S
H3157 C3170 0.960 . S
C3158 H3150 0.929 . S
C3158 C3159 1.377 . S
C3158 C3160 1.384 . S
C3159 C3158 1.377 . S
C3159 C3165 1.390 . S
C3160 H3151 0.930 . S
C3160 C3158 1.384 . S
C3160 C3161 1.372 . S
C3161 C3160 1.372 . S
C3161 C3162 1.400 . S
C3161 C3166 1.490 . S
C3162 H3152 0.930 . S
C3162 C3161 1.400 . S
C3162 C3165 1.386 . S
H3163 C3179 0.930 . S
H3164 C3180 0.931 . S
C3165 H3153 0.929 . S
C3165 C3159 1.390 . S
C3165 C3162 1.386 . S
C3166 C3161 1.490 . S
C3166 C3168 1.395 . S
C3166 C3169 1.403 . S
H3167 C3173 0.930 . S
C3168 H3154 0.930 . S
C3168 C3166 1.395 . S
C3168 C3171 1.403 . S
C3169 C3166 1.403 . S
C3169 C3170 1.524 . S
C3169 C3173 1.400 . S
C3170 H3155 0.960 . S
C3170 H3156 0.960 . S
C3170 H3157 0.960 . S
C3170 C3169 1.524 . S
C3171 C3168 1.403 . S
C3171 C3172 1.392 . S
C3171 C3175 1.495 . S
C3172 C3171 1.392 . S
C3172 C3173 1.385 . S
C3172 C3174 1.478 . S
C3173 H3167 0.930 . S
C3173 C3169 1.400 . S
C3173 C3172 1.385 . S
C3174 C3172 1.478 . S
C3174 C3176 1.381 . S
C3174 C3180 1.383 . S
C3175 C3171 1.495 . S
C3175 H3181 0.959 . S
C3175 H3182 0.961 . S
C3175 H3183 0.960 . S
C3176 C3174 1.381 . S
C3176 C3177 1.394 . S
C3176 H3184 0.930 . S
C3177 C3176 1.394 . S
C3177 C3178 1.383 . S
C3177 H3185 0.929 . S
C3178 C3177 1.383 . S
C3178 C3179 1.377 . S
C3179 H3163 0.930 . S
C3179 C3178 1.377 . S
C3179 C3180 1.379 . S
C3180 H3164 0.931 . S
C3180 C3174 1.383 . S
C3180 C3179 1.379 . S
H3181 C3175 0.959 . S
H3182 C3175 0.961 . S
H3183 C3175 0.960 . S
H3184 C3176 0.930 . S
H3185 C3177 0.929 . S
H3186 C3194 0.929 . S
H3187 C3196 0.930 . S
H3188 C3198 0.930 . S
H3189 C3201 0.929 . S
H3190 C3204 0.930 . S
H3191 C3206 0.960 . S
H3192 C3206 0.960 . S
H3193 C3206 0.960 . S
C3194 H3186 0.929 . S
C3194 C3195 1.377 . S
C3194 C3196 1.384 . S
C3195 C3194 1.377 . S
C3195 C3201 1.390 . S
C3196 H3187 0.930 . S
C3196 C3194 1.384 . S
C3196 C3197 1.372 . S
C3197 C3196 1.372 . S
C3197 C3198 1.400 . S
C3197 C3202 1.490 . S
C3198 H3188 0.930 . S
C3198 C3197 1.400 . S
C3198 C3201 1.386 . S
H3199 C3215 0.930 . S
H3200 C3216 0.931 . S
C3201 H3189 0.929 . S
C3201 C3195 1.390 . S
C3201 C3198 1.386 . S
C3202 C3197 1.490 . S
C3202 C3204 1.395 . S
C3202 C3205 1.403 . S
H3203 C3209 0.930 . S
C3204 H3190 0.930 . S
C3204 C3202 1.395 . S
C3204 C3207 1.403 . S
C3205 C3202 1.403 . S
C3205 C3206 1.524 . S
C3205 C3209 1.400 . S
C3206 H3191 0.960 . S
C3206 H3192 0.960 . S
C3206 H3193 0.960 . S
C3206 C3205 1.524 . S
C3207 C3204 1.403 . S
C3207 C3208 1.392 . S
C3207 C3211 1.495 . S
C3208 C3207 1.392 . S
C3208 C3209 1.385 . S
C3208 C3210 1.478 . S
C3209 H3203 0.930 . S
C3209 C3205 1.400 . S
C3209 C3208 1.385 . S
C3210 C3208 1.478 . S
C3210 C3212 1.381 . S
C3210 C3216 1.383 . S
C3211 C3207 1.495 . S
C3211 H3217 0.959 . S
C3211 H3218 0.961 . S
C3211 H3219 0.960 . S
C3212 C3210 1.381 . S
C3212 C3213 1.394 . S
C3212 H3220 0.930 . S
C3213 C3212 1.394 . S
C3213 C3214 1.383 . S
C3213 H3221 0.929 . S
C3214 C3213 1.383 . S
C3214 C3215 1.377 . S
C3215 H3199 0.930 . S
C3215 C3214 1.377 . S
C3215 C3216 1.379 . S
C3216 H3200 0.931 . S
C3216 C3210 1.383 . S
C3216 C3215 1.379 . S
H3217 C3211 0.959 . S
H3218 C3211 0.961 . S
H3219 C3211 0.960 . S
H3220 C3212 0.930 . S
H3221 C3213 0.929 . S
H3222 C3230 0.929 . S
H3223 C3232 0.930 . S
H3224 C3234 0.925 . S
H3225 C3237 0.912 1_565 S
H3226 C3240 0.930 . S
H3227 C3242 0.960 . S
H3228 C3242 0.960 . S
H3229 C3242 0.960 . S
C3230 H3222 0.929 . S
C3230 C3231 1.377 . S
C3230 C3232 1.384 . S
C3231 C3230 1.377 . S
C3231 C3237 1.449 . S
C3232 H3223 0.930 . S
C3232 C3230 1.384 . S
C3232 C3233 1.372 . S
C3233 C3232 1.372 . S
C3233 C3234 1.401 1_545 S
C3233 C3238 1.490 . S
C3234 H3224 0.925 . S
C3234 C3233 1.401 1_565 S
C3234 C3237 1.353 1_565 S
H3235 C3251 0.930 . S
H3236 C3252 0.931 . S
C3237 H3225 0.912 1_545 S
C3237 C3231 1.449 . S
C3237 C3234 1.353 1_545 S
C3238 C3233 1.490 . S
C3238 C3240 1.395 . S
C3238 C3241 1.403 1_545 S
H3239 C3245 0.930 . S
C3240 H3226 0.930 . S
C3240 C3238 1.395 . S
C3240 C3243 1.403 . S
C3241 C3238 1.403 1_565 S
C3241 C3242 1.524 . S
C3241 C3245 1.400 . S
C3242 H3227 0.960 . S
C3242 H3228 0.960 . S
C3242 H3229 0.960 . S
C3242 C3241 1.524 . S
C3243 C3240 1.403 . S
C3243 C3244 1.392 . S
C3243 C3247 1.495 . S
C3244 C3243 1.392 . S
C3244 C3245 1.385 1_545 S
C3244 C3246 1.478 . S
C3245 H3239 0.930 . S
C3245 C3241 1.400 . S
C3245 C3244 1.385 1_565 S
C3246 C3244 1.478 . S
C3246 C3248 1.381 . S
C3246 C3252 1.383 1_545 S
C3247 C3243 1.495 . S
C3247 H3253 0.959 . S
C3247 H3254 0.961 . S
C3247 H3255 0.960 . S
C3248 C3246 1.381 . S
C3248 C3249 1.394 . S
C3248 H3256 0.930 . S
C3249 C3248 1.394 . S
C3249 C3250 1.383 . S
C3249 H3257 0.929 . S
C3250 C3249 1.383 . S
C3250 C3251 1.377 1_545 S
C3251 H3235 0.930 . S
C3251 C3250 1.377 1_565 S
C3251 C3252 1.379 . S
C3252 H3236 0.931 . S
C3252 C3246 1.383 1_565 S
C3252 C3251 1.379 . S
H3253 C3247 0.959 . S
H3254 C3247 0.961 . S
H3255 C3247 0.960 . S
H3256 C3248 0.930 . S
H3257 C3249 0.929 . S
H3258 C3266 0.927 . S
H3259 C3268 0.930 . S
H3260 C3270 0.930 . S
H3261 C3273 0.929 . S
H3262 C3276 0.930 . S
H3263 C3278 0.960 . S
H3264 C3278 0.960 1_455 S
H3265 C3278 0.960 . S
C3266 H3258 0.927 . S
C3266 C3267 1.379 1_455 S
C3266 C3268 1.385 . S
C3267 C3266 1.379 1_655 S
C3267 C3273 1.390 . S
C3268 H3259 0.930 . S
C3268 C3266 1.385 . S
C3268 C3269 1.372 1_455 S
C3269 C3268 1.372 1_655 S
C3269 C3270 1.400 . S
C3269 C3274 1.490 . S
C3270 H3260 0.930 . S
C3270 C3269 1.400 . S
C3270 C3273 1.386 . S
H3271 C3287 0.930 . S
H3272 C3288 0.931 . S
C3273 H3261 0.929 . S
C3273 C3267 1.390 . S
C3273 C3270 1.386 . S
C3274 C3269 1.490 . S
C3274 C3276 1.395 . S
C3274 C3277 1.403 . S
H3275 C3281 0.930 . S
C3276 H3262 0.930 . S
C3276 C3274 1.395 . S
C3276 C3279 1.403 . S
C3277 C3274 1.403 . S
C3277 C3278 1.524 . S
C3277 C3281 1.400 . S
C3278 H3263 0.960 . S
C3278 H3264 0.960 1_655 S
C3278 H3265 0.960 . S
C3278 C3277 1.524 . S
C3279 C3276 1.403 . S
C3279 C3280 1.392 . S
C3279 C3283 1.495 . S
C3280 C3279 1.392 . S
C3280 C3281 1.385 . S
C3280 C3282 1.478 . S
C3281 H3275 0.930 . S
C3281 C3277 1.400 . S
C3281 C3280 1.385 . S
C3282 C3280 1.478 . S
C3282 C3284 1.381 1_655 S
C3282 C3288 1.383 . S
C3283 C3279 1.495 . S
C3283 H3289 0.959 . S
C3283 H3290 0.961 . S
C3283 H3291 0.950 1_655 S
C3284 C3282 1.381 1_455 S
C3284 C3285 1.394 . S
C3284 H3292 0.930 . S
C3285 C3284 1.394 . S
C3285 C3286 1.383 1_455 S
C3285 H3293 0.929 . S
C3286 C3285 1.383 1_655 S
C3286 C3287 1.377 . S
C3287 H3271 0.930 . S
C3287 C3286 1.377 . S
C3287 C3288 1.379 . S
C3288 H3272 0.931 . S
C3288 C3282 1.383 . S
C3288 C3287 1.379 . S
H3289 C3283 0.959 . S
H3290 C3283 0.961 . S
H3291 C3283 0.950 1_455 S
H3292 C3284 0.930 . S
H3293 C3285 0.929 . S
H3294 C3302 0.929 . S
H3295 C3304 0.930 . S
H3296 C3306 0.930 . S
H3297 C3309 0.929 . S
H3298 C3312 0.930 . S
H3299 C3314 0.960 . S
H3300 C3314 0.960 . S
H3301 C3314 0.960 . S
C3302 H3294 0.929 . S
C3302 C3303 1.377 . S
C3302 C3304 1.384 . S
C3303 C3302 1.377 . S
C3303 C3309 1.390 . S
C3304 H3295 0.930 . S
C3304 C3302 1.384 . S
C3304 C3305 1.372 . S
C3305 C3304 1.372 . S
C3305 C3306 1.400 . S
C3305 C3310 1.490 . S
C3306 H3296 0.930 . S
C3306 C3305 1.400 . S
C3306 C3309 1.386 . S
H3307 C3323 0.930 . S
H3308 C3324 0.931 . S
C3309 H3297 0.929 . S
C3309 C3303 1.390 . S
C3309 C3306 1.386 . S
C3310 C3305 1.490 . S
C3310 C3312 1.395 . S
C3310 C3313 1.403 . S
H3311 C3317 0.930 . S
C3312 H3298 0.930 . S
C3312 C3310 1.395 . S
C3312 C3315 1.403 . S
C3313 C3310 1.403 . S
C3313 C3314 1.524 . S
C3313 C3317 1.400 . S
C3314 H3299 0.960 . S
C3314 H3300 0.960 . S
C3314 H3301 0.960 . S
C3314 C3313 1.524 . S
C3315 C3312 1.403 . S
C3315 C3316 1.392 . S
C3315 C3319 1.495 . S
C3316 C3315 1.392 . S
C3316 C3317 1.385 . S
C3316 C3318 1.478 . S
C3317 H3311 0.930 . S
C3317 C3313 1.400 . S
C3317 C3316 1.385 . S
C3318 C3316 1.478 . S
C3318 C3320 1.381 . S
C3318 C3324 1.383 . S
C3319 C3315 1.495 . S
C3319 H3325 0.959 . S
C3319 H3326 0.961 . S
C3319 H3327 0.960 . S
C3320 C3318 1.381 . S
C3320 C3321 1.394 . S
C3320 H3328 0.930 . S
C3321 C3320 1.394 . S
C3321 C3322 1.383 . S
C3321 H3329 0.929 . S
C3322 C3321 1.383 . S
C3322 C3323 1.377 . S
C3323 H3307 0.930 . S
C3323 C3322 1.377 . S
C3323 C3324 1.379 . S
C3324 H3308 0.931 . S
C3324 C3318 1.383 . S
C3324 C3323 1.379 . S
H3325 C3319 0.959 . S
H3326 C3319 0.961 . S
H3327 C3319 0.960 . S
H3328 C3320 0.930 . S
H3329 C3321 0.929 . S
H3330 C3338 0.929 . S
H3331 C3340 0.930 . S
H3332 C3342 0.930 . S
H3333 C3345 0.929 . S
H3334 C3348 0.930 . S
H3335 C3350 0.960 . S
H3336 C3350 0.960 . S
H3337 C3350 0.960 . S
C3338 H3330 0.929 . S
C3338 C3339 1.377 . S
C3338 C3340 1.384 . S
C3339 C3338 1.377 . S
C3339 C3345 1.390 . S
C3340 H3331 0.930 . S
C3340 C3338 1.384 . S
C3340 C3341 1.372 . S
C3341 C3340 1.372 . S
C3341 C3342 1.400 . S
C3341 C3346 1.490 . S
C3342 H3332 0.930 . S
C3342 C3341 1.400 . S
C3342 C3345 1.386 . S
H3343 C3359 0.930 . S
H3344 C3360 0.931 . S
C3345 H3333 0.929 . S
C3345 C3339 1.390 . S
C3345 C3342 1.386 . S
C3346 C3341 1.490 . S
C3346 C3348 1.395 . S
C3346 C3349 1.403 . S
H3347 C3353 0.930 . S
C3348 H3334 0.930 . S
C3348 C3346 1.395 . S
C3348 C3351 1.403 . S
C3349 C3346 1.403 . S
C3349 C3350 1.524 . S
C3349 C3353 1.400 . S
C3350 H3335 0.960 . S
C3350 H3336 0.960 . S
C3350 H3337 0.960 . S
C3350 C3349 1.524 . S
C3351 C3348 1.403 . S
C3351 C3352 1.392 . S
C3351 C3355 1.495 . S
C3352 C3351 1.392 . S
C3352 C3353 1.385 . S
C3352 C3354 1.478 . S
C3353 H3347 0.930 . S
C3353 C3349 1.400 . S
C3353 C3352 1.385 . S
C3354 C3352 1.478 . S
C3354 C3356 1.381 . S
C3354 C3360 1.383 . S
C3355 C3351 1.495 . S
C3355 H3361 0.959 . S
C3355 H3362 0.961 . S
C3355 H3363 0.960 . S
C3356 C3354 1.381 . S
C3356 C3357 1.394 . S
C3356 H3364 0.930 . S
C3357 C3356 1.394 . S
C3357 C3358 1.383 . S
C3357 H3365 0.929 . S
C3358 C3357 1.383 . S
C3358 C3359 1.377 . S
C3359 H3343 0.930 . S
C3359 C3358 1.377 . S
C3359 C3360 1.379 . S
C3360 H3344 0.931 . S
C3360 C3354 1.383 . S
C3360 C3359 1.379 . S
H3361 C3355 0.959 . S
H3362 C3355 0.961 . S
H3363 C3355 0.960 . S
H3364 C3356 0.930 . S
H3365 C3357 0.929 . S
H3366 C3374 0.929 . S
H3367 C3376 0.930 . S
H3368 C3378 0.930 . S
H3369 C3381 0.929 . S
H3370 C3384 0.930 . S
H3371 C3386 0.960 . S
H3372 C3386 0.960 . S
H3373 C3386 0.960 . S
C3374 H3366 0.929 . S
C3374 C3375 1.377 . S
C3374 C3376 1.384 . S
C3375 C3374 1.377 . S
C3375 C3381 1.390 . S
C3376 H3367 0.930 . S
C3376 C3374 1.384 . S
C3376 C3377 1.372 . S
C3377 C3376 1.372 . S
C3377 C3378 1.400 . S
C3377 C3382 1.490 . S
C3378 H3368 0.930 . S
C3378 C3377 1.400 . S
C3378 C3381 1.386 . S
H3379 C3395 0.930 . S
H3380 C3396 0.931 . S
C3381 H3369 0.929 . S
C3381 C3375 1.390 . S
C3381 C3378 1.386 . S
C3382 C3377 1.490 . S
C3382 C3384 1.395 . S
C3382 C3385 1.403 . S
H3383 C3389 0.930 . S
C3384 H3370 0.930 . S
C3384 C3382 1.395 . S
C3384 C3387 1.403 . S
C3385 C3382 1.403 . S
C3385 C3386 1.524 . S
C3385 C3389 1.400 . S
C3386 H3371 0.960 . S
C3386 H3372 0.960 . S
C3386 H3373 0.960 . S
C3386 C3385 1.524 . S
C3387 C3384 1.403 . S
C3387 C3388 1.392 . S
C3387 C3391 1.495 . S
C3388 C3387 1.392 . S
C3388 C3389 1.385 . S
C3388 C3390 1.478 . S
C3389 H3383 0.930 . S
C3389 C3385 1.400 . S
C3389 C3388 1.385 . S
C3390 C3388 1.478 . S
C3390 C3392 1.381 . S
C3390 C3396 1.383 . S
C3391 C3387 1.495 . S
C3391 H3397 0.959 . S
C3391 H3398 0.961 . S
C3391 H3399 0.960 . S
C3392 C3390 1.381 . S
C3392 C3393 1.394 . S
C3392 H3400 0.930 . S
C3393 C3392 1.394 . S
C3393 C3394 1.383 . S
C3393 H3401 0.929 . S
C3394 C3393 1.383 . S
C3394 C3395 1.377 . S
C3395 H3379 0.930 . S
C3395 C3394 1.377 . S
C3395 C3396 1.379 . S
C3396 H3380 0.931 . S
C3396 C3390 1.383 . S
C3396 C3395 1.379 . S
H3397 C3391 0.959 . S
H3398 C3391 0.961 . S
H3399 C3391 0.960 . S
H3400 C3392 0.930 . S
H3401 C3393 0.929 . S
H3402 C3410 0.929 . S
H3403 C3412 0.930 . S
H3404 C3414 0.930 . S
H3405 C3417 0.929 . S
H3406 C3420 0.930 . S
H3407 C3422 0.960 . S
H3408 C3422 0.960 . S
H3409 C3422 0.960 . S
C3410 H3402 0.929 . S
C3410 C3411 1.377 . S
C3410 C3412 1.384 . S
C3411 C3410 1.377 . S
C3411 C3417 1.390 . S
C3412 H3403 0.930 . S
C3412 C3410 1.384 . S
C3412 C3413 1.372 . S
C3413 C3412 1.372 . S
C3413 C3414 1.400 . S
C3413 C3418 1.490 . S
C3414 H3404 0.930 . S
C3414 C3413 1.400 . S
C3414 C3417 1.386 . S
H3415 C3431 0.930 . S
H3416 C3432 0.931 . S
C3417 H3405 0.929 . S
C3417 C3411 1.390 . S
C3417 C3414 1.386 . S
C3418 C3413 1.490 . S
C3418 C3420 1.395 . S
C3418 C3421 1.403 . S
H3419 C3425 0.930 . S
C3420 H3406 0.930 . S
C3420 C3418 1.395 . S
C3420 C3423 1.403 . S
C3421 C3418 1.403 . S
C3421 C3422 1.524 . S
C3421 C3425 1.400 . S
C3422 H3407 0.960 . S
C3422 H3408 0.960 . S
C3422 H3409 0.960 . S
C3422 C3421 1.524 . S
C3423 C3420 1.403 . S
C3423 C3424 1.392 . S
C3423 C3427 1.495 . S
C3424 C3423 1.392 . S
C3424 C3425 1.385 . S
C3424 C3426 1.478 . S
C3425 H3419 0.930 . S
C3425 C3421 1.400 . S
C3425 C3424 1.385 . S
C3426 C3424 1.478 . S
C3426 C3428 1.381 . S
C3426 C3432 1.383 . S
C3427 C3423 1.495 . S
C3427 H3433 0.959 . S
C3427 H3434 0.961 . S
C3427 H3435 0.960 . S
C3428 C3426 1.381 . S
C3428 C3429 1.394 . S
C3428 H3436 0.930 . S
C3429 C3428 1.394 . S
C3429 C3430 1.383 . S
C3429 H3437 0.929 . S
C3430 C3429 1.383 . S
C3430 C3431 1.377 . S
C3431 H3415 0.930 . S
C3431 C3430 1.377 . S
C3431 C3432 1.379 . S
C3432 H3416 0.931 . S
C3432 C3426 1.383 . S
C3432 C3431 1.379 . S
H3433 C3427 0.959 . S
H3434 C3427 0.961 . S
H3435 C3427 0.960 . S
H3436 C3428 0.930 . S
H3437 C3429 0.929 . S
H3438 C3446 0.929 . S
H3439 C3448 0.930 . S
H3440 C3450 0.930 . S
H3441 C3453 0.929 . S
H3442 C3456 0.930 . S
H3443 C3458 0.960 . S
H3444 C3458 0.960 . S
H3445 C3458 0.960 . S
C3446 H3438 0.929 . S
C3446 C3447 1.377 . S
C3446 C3448 1.384 . S
C3447 C3446 1.377 . S
C3447 C3453 1.390 . S
C3448 H3439 0.930 . S
C3448 C3446 1.384 . S
C3448 C3449 1.372 . S
C3449 C3448 1.372 . S
C3449 C3450 1.400 . S
C3449 C3454 1.490 . S
C3450 H3440 0.930 . S
C3450 C3449 1.400 . S
C3450 C3453 1.386 . S
H3451 C3467 0.930 . S
H3452 C3468 0.931 . S
C3453 H3441 0.929 . S
C3453 C3447 1.390 . S
C3453 C3450 1.386 . S
C3454 C3449 1.490 . S
C3454 C3456 1.395 . S
C3454 C3457 1.403 . S
H3455 C3461 0.930 . S
C3456 H3442 0.930 . S
C3456 C3454 1.395 . S
C3456 C3459 1.403 . S
C3457 C3454 1.403 . S
C3457 C3458 1.524 . S
C3457 C3461 1.400 . S
C3458 H3443 0.960 . S
C3458 H3444 0.960 . S
C3458 H3445 0.960 . S
C3458 C3457 1.524 . S
C3459 C3456 1.403 . S
C3459 C3460 1.392 . S
C3459 C3463 1.495 . S
C3460 C3459 1.392 . S
C3460 C3461 1.385 . S
C3460 C3462 1.478 . S
C3461 H3455 0.930 . S
C3461 C3457 1.400 . S
C3461 C3460 1.385 . S
C3462 C3460 1.478 . S
C3462 C3464 1.381 . S
C3462 C3468 1.383 . S
C3463 C3459 1.495 . S
C3463 H3469 0.959 . S
C3463 H3470 0.961 . S
C3463 H3471 0.960 . S
C3464 C3462 1.381 . S
C3464 C3465 1.394 . S
C3464 H3472 0.930 . S
C3465 C3464 1.394 . S
C3465 C3466 1.383 . S
C3465 H3473 0.929 . S
C3466 C3465 1.383 . S
C3466 C3467 1.377 . S
C3467 H3451 0.930 . S
C3467 C3466 1.377 . S
C3467 C3468 1.379 . S
C3468 H3452 0.931 . S
C3468 C3462 1.383 . S
C3468 C3467 1.379 . S
H3469 C3463 0.959 . S
H3470 C3463 0.961 . S
H3471 C3463 0.960 . S
H3472 C3464 0.930 . S
H3473 C3465 0.929 . S
H3474 C3482 0.929 . S
H3475 C3484 0.930 . S
H3476 C3486 0.930 . S
H3477 C3489 0.929 . S
H3478 C3492 0.930 . S
H3479 C3494 0.960 . S
H3480 C3494 0.960 . S
H3481 C3494 0.960 . S
C3482 H3474 0.929 . S
C3482 C3483 1.377 . S
C3482 C3484 1.384 . S
C3483 C3482 1.377 . S
C3483 C3489 1.390 . S
C3484 H3475 0.930 . S
C3484 C3482 1.384 . S
C3484 C3485 1.372 . S
C3485 C3484 1.372 . S
C3485 C3486 1.400 . S
C3485 C3490 1.490 . S
C3486 H3476 0.930 . S
C3486 C3485 1.400 . S
C3486 C3489 1.386 . S
H3487 C3503 0.930 . S
H3488 C3504 0.931 . S
C3489 H3477 0.929 . S
C3489 C3483 1.390 . S
C3489 C3486 1.386 . S
C3490 C3485 1.490 . S
C3490 C3492 1.395 . S
C3490 C3493 1.403 . S
H3491 C3497 0.930 . S
C3492 H3478 0.930 . S
C3492 C3490 1.395 . S
C3492 C3495 1.403 . S
C3493 C3490 1.403 . S
C3493 C3494 1.524 . S
C3493 C3497 1.400 . S
C3494 H3479 0.960 . S
C3494 H3480 0.960 . S
C3494 H3481 0.960 . S
C3494 C3493 1.524 . S
C3495 C3492 1.403 . S
C3495 C3496 1.392 . S
C3495 C3499 1.495 . S
C3496 C3495 1.392 . S
C3496 C3497 1.385 . S
C3496 C3498 1.478 . S
C3497 H3491 0.930 . S
C3497 C3493 1.400 . S
C3497 C3496 1.385 . S
C3498 C3496 1.478 . S
C3498 C3500 1.381 . S
C3498 C3504 1.383 . S
C3499 C3495 1.495 . S
C3499 H3505 0.959 . S
C3499 H3506 0.961 . S
C3499 H3507 0.960 . S
C3500 C3498 1.381 . S
C3500 C3501 1.394 . S
C3500 H3508 0.930 . S
C3501 C3500 1.394 . S
C3501 C3502 1.383 . S
C3501 H3509 0.929 . S
C3502 C3501 1.383 . S
C3502 C3503 1.377 . S
C3503 H3487 0.930 . S
C3503 C3502 1.377 . S
C3503 C3504 1.379 . S
C3504 H3488 0.931 . S
C3504 C3498 1.383 . S
C3504 C3503 1.379 . S
H3505 C3499 0.959 . S
H3506 C3499 0.961 . S
H3507 C3499 0.960 . S
H3508 C3500 0.930 . S
H3509 C3501 0.929 . S
H3510 C3518 0.929 . S
H3511 C3520 0.930 . S
H3512 C3522 0.930 . S
H3513 C3525 0.929 . S
H3514 C3528 0.930 . S
H3515 C3530 0.960 . S
H3516 C3530 0.960 . S
H3517 C3530 0.960 . S
C3518 H3510 0.929 . S
C3518 C3519 1.377 . S
C3518 C3520 1.384 . S
C3519 C3518 1.377 . S
C3519 C3525 1.390 . S
C3520 H3511 0.930 . S
C3520 C3518 1.384 . S
C3520 C3521 1.372 . S
C3521 C3520 1.372 . S
C3521 C3522 1.400 . S
C3521 C3526 1.490 . S
C3522 H3512 0.930 . S
C3522 C3521 1.400 . S
C3522 C3525 1.386 . S
H3523 C3539 0.930 . S
H3524 C3540 0.931 . S
C3525 H3513 0.929 . S
C3525 C3519 1.390 . S
C3525 C3522 1.386 . S
C3526 C3521 1.490 . S
C3526 C3528 1.395 . S
C3526 C3529 1.403 . S
H3527 C3533 0.930 . S
C3528 H3514 0.930 . S
C3528 C3526 1.395 . S
C3528 C3531 1.403 . S
C3529 C3526 1.403 . S
C3529 C3530 1.524 . S
C3529 C3533 1.400 . S
C3530 H3515 0.960 . S
C3530 H3516 0.960 . S
C3530 H3517 0.960 . S
C3530 C3529 1.524 . S
C3531 C3528 1.403 . S
C3531 C3532 1.392 . S
C3531 C3535 1.495 . S
C3532 C3531 1.392 . S
C3532 C3533 1.385 . S
C3532 C3534 1.478 . S
C3533 H3527 0.930 . S
C3533 C3529 1.400 . S
C3533 C3532 1.385 . S
C3534 C3532 1.478 . S
C3534 C3536 1.381 . S
C3534 C3540 1.383 . S
C3535 C3531 1.495 . S
C3535 H3541 0.959 . S
C3535 H3542 0.961 . S
C3535 H3543 0.960 . S
C3536 C3534 1.381 . S
C3536 C3537 1.394 . S
C3536 H3544 0.930 . S
C3537 C3536 1.394 . S
C3537 C3538 1.383 . S
C3537 H3545 0.929 . S
C3538 C3537 1.383 . S
C3538 C3539 1.377 . S
C3539 H3523 0.930 . S
C3539 C3538 1.377 . S
C3539 C3540 1.379 . S
C3540 H3524 0.931 . S
C3540 C3534 1.383 . S
C3540 C3539 1.379 . S
H3541 C3535 0.959 . S
H3542 C3535 0.961 . S
H3543 C3535 0.960 . S
H3544 C3536 0.930 . S
H3545 C3537 0.929 . S
H3546 C3554 0.929 . S
H3547 C3556 0.930 . S
H3548 C3558 0.930 . S
H3549 C3561 0.929 . S
H3550 C3564 0.929 . S
H3551 C3566 0.960 . S
H3552 C3566 0.960 . S
H3553 C3566 0.960 . S
C3554 H3546 0.929 . S
C3554 C3555 1.377 1_455 S
C3554 C3556 1.384 . S
C3555 C3554 1.377 1_655 S
C3555 C3561 1.390 . S
C3556 H3547 0.930 . S
C3556 C3554 1.384 . S
C3556 C3557 1.372 1_455 S
C3557 C3556 1.372 1_655 S
C3557 C3558 1.400 . S
C3557 C3562 1.490 . S
C3558 H3548 0.930 . S
C3558 C3557 1.400 . S
C3558 C3561 1.386 . S
H3559 C3575 0.930 . S
H3560 C3576 0.931 . S
C3561 H3549 0.929 . S
C3561 C3555 1.390 . S
C3561 C3558 1.386 . S
C3562 C3557 1.490 . S
C3562 C3564 1.366 1_655 S
C3562 C3565 1.403 . S
H3563 C3569 0.930 . S
C3564 H3550 0.929 . S
C3564 C3562 1.366 1_455 S
C3564 C3567 1.437 . S
C3565 C3562 1.403 . S
C3565 C3566 1.524 . S
C3565 C3569 1.400 . S
C3566 H3551 0.960 . S
C3566 H3552 0.960 . S
C3566 H3553 0.960 . S
C3566 C3565 1.524 . S
C3567 C3564 1.437 . S
C3567 C3568 1.392 1_455 S
C3567 C3571 1.495 . S
C3568 C3567 1.392 1_655 S
C3568 C3569 1.385 . S
C3568 C3570 1.478 . S
C3569 H3563 0.930 . S
C3569 C3565 1.400 . S
C3569 C3568 1.385 . S
C3570 C3568 1.478 . S
C3570 C3572 1.381 1_655 S
C3570 C3576 1.383 . S
C3571 C3567 1.495 . S
C3571 H3577 0.959 . S
C3571 H3578 0.961 . S
C3571 H3579 0.960 . S
C3572 C3570 1.381 1_455 S
C3572 C3573 1.394 . S
C3572 H3580 0.930 . S
C3573 C3572 1.394 . S
C3573 C3574 1.383 1_455 S
C3573 H3581 0.929 . S
C3574 C3573 1.383 1_655 S
C3574 C3575 1.377 . S
C3575 H3559 0.930 . S
C3575 C3574 1.377 . S
C3575 C3576 1.379 . S
C3576 H3560 0.931 . S
C3576 C3570 1.383 . S
C3576 C3575 1.379 . S
H3577 C3571 0.959 . S
H3578 C3571 0.961 . S
H3579 C3571 0.960 . S
H3580 C3572 0.930 . S
H3581 C3573 0.929 . S
H3582 C3590 0.929 . S
H3583 C3592 0.930 . S
H3584 C3594 0.930 . S
H3585 C3597 0.929 . S
H3586 C3600 0.930 . S
H3587 C3602 0.960 . S
H3588 C3602 0.960 . S
H3589 C3602 0.960 . S
C3590 H3582 0.929 . S
C3590 C3591 1.377 . S
C3590 C3592 1.384 . S
C3591 C3590 1.377 . S
C3591 C3597 1.390 . S
C3592 H3583 0.930 . S
C3592 C3590 1.384 . S
C3592 C3593 1.372 . S
C3593 C3592 1.372 . S
C3593 C3594 1.400 . S
C3593 C3598 1.490 . S
C3594 H3584 0.930 . S
C3594 C3593 1.400 . S
C3594 C3597 1.386 . S
H3595 C3611 0.930 . S
H3596 C3612 0.931 . S
C3597 H3585 0.929 . S
C3597 C3591 1.390 . S
C3597 C3594 1.386 . S
C3598 C3593 1.490 . S
C3598 C3600 1.395 . S
C3598 C3601 1.403 . S
H3599 C3605 0.930 . S
C3600 H3586 0.930 . S
C3600 C3598 1.395 . S
C3600 C3603 1.403 . S
C3601 C3598 1.403 . S
C3601 C3602 1.524 . S
C3601 C3605 1.400 . S
C3602 H3587 0.960 . S
C3602 H3588 0.960 . S
C3602 H3589 0.960 . S
C3602 C3601 1.524 . S
C3603 C3600 1.403 . S
C3603 C3604 1.392 . S
C3603 C3607 1.495 . S
C3604 C3603 1.392 . S
C3604 C3605 1.385 . S
C3604 C3606 1.478 . S
C3605 H3599 0.930 . S
C3605 C3601 1.400 . S
C3605 C3604 1.385 . S
C3606 C3604 1.478 . S
C3606 C3608 1.381 . S
C3606 C3612 1.383 . S
C3607 C3603 1.495 . S
C3607 H3613 0.959 . S
C3607 H3614 0.961 . S
C3607 H3615 0.960 . S
C3608 C3606 1.381 . S
C3608 C3609 1.394 . S
C3608 H3616 0.930 . S
C3609 C3608 1.394 . S
C3609 C3610 1.383 . S
C3609 H3617 0.929 . S
C3610 C3609 1.383 . S
C3610 C3611 1.377 . S
C3611 H3595 0.930 . S
C3611 C3610 1.377 . S
C3611 C3612 1.379 . S
C3612 H3596 0.931 . S
C3612 C3606 1.383 . S
C3612 C3611 1.379 . S
H3613 C3607 0.959 . S
H3614 C3607 0.961 . S
H3615 C3607 0.960 . S
H3616 C3608 0.930 . S
H3617 C3609 0.929 . S
H3618 C3626 0.929 1_565 S
H3619 C3628 0.940 . S
H3620 C3630 0.930 . S
H3621 C3633 0.929 . S
H3622 C3636 0.930 . S
H3623 C3638 0.960 . S
H3624 C3638 0.960 1_565 S
H3625 C3638 0.960 . S
C3626 H3618 0.929 1_545 S
C3626 C3627 1.377 . S
C3626 C3628 1.390 1_545 S
C3627 C3626 1.377 . S
C3627 C3633 1.390 . S
C3628 H3619 0.940 . S
C3628 C3626 1.390 1_565 S
C3628 C3629 1.356 1_565 S
C3629 C3628 1.356 1_545 S
C3629 C3630 1.400 . S
C3629 C3634 1.490 . S
C3630 H3620 0.930 . S
C3630 C3629 1.400 . S
C3630 C3633 1.386 . S
H3631 C3647 0.930 . S
H3632 C3648 0.931 . S
C3633 H3621 0.929 . S
C3633 C3627 1.390 . S
C3633 C3630 1.386 . S
C3634 C3629 1.490 . S
C3634 C3636 1.395 . S
C3634 C3637 1.403 . S
H3635 C3641 0.930 . S
C3636 H3622 0.930 . S
C3636 C3634 1.395 . S
C3636 C3639 1.403 . S
C3637 C3634 1.403 . S
C3637 C3638 1.524 . S
C3637 C3641 1.400 . S
C3638 H3623 0.960 . S
C3638 H3624 0.960 1_545 S
C3638 H3625 0.960 . S
C3638 C3637 1.524 . S
C3639 C3636 1.403 . S
C3639 C3640 1.392 . S
C3639 C3643 1.495 . S
C3640 C3639 1.392 . S
C3640 C3641 1.385 . S
C3640 C3642 1.478 . S
C3641 H3635 0.930 . S
C3641 C3637 1.400 . S
C3641 C3640 1.385 . S
C3642 C3640 1.478 . S
C3642 C3644 1.381 1_545 S
C3642 C3648 1.383 . S
C3643 C3639 1.495 . S
C3643 H3649 0.959 . S
C3643 H3650 0.961 . S
C3643 H3651 0.960 . S
C3644 C3642 1.381 1_565 S
C3644 C3645 1.394 . S
C3644 H3652 0.930 . S
C3645 C3644 1.394 . S
C3645 C3646 1.383 1_565 S
C3645 H3653 0.929 . S
C3646 C3645 1.383 1_545 S
C3646 C3647 1.377 . S
C3647 H3631 0.930 . S
C3647 C3646 1.377 . S
C3647 C3648 1.379 . S
C3648 H3632 0.931 . S
C3648 C3642 1.383 . S
C3648 C3647 1.379 . S
H3649 C3643 0.959 . S
H3650 C3643 0.961 . S
H3651 C3643 0.960 . S
H3652 C3644 0.930 . S
H3653 C3645 0.929 . S
C1071 C10 1.546 1_655 S
C1090 C670 1.548 . S
C1107 C23 1.612 . S
C1126 C716 1.587 . S
C1162 C748 1.563 . S
C1143 C29 1.562 . S
C1179 C30 1.538 . S
C1198 C801 1.547 . S
C1215 C5 1.566 . S
C1234 C847 1.576 . S
C1251 C18 1.618 . S
C1270 C886 1.604 . S
C1287 C49 1.582 . S
C1306 C840 1.536 . S
C1342 C893 1.604 . S
C1323 C62 1.612 . S
C1378 C794 1.569 . S
C1359 C70 1.580 . S
C1395 C75 1.581 . S
C1414 C755 1.536 . S
C1450 C649 1.562 . S
C1431 C44 1.564 . S
C1467 C57 1.617 . S
C1486 C695 1.614 . S
C1503 C88 1.663 . S
C1522 C925 1.656 . S
C1539 C101 1.663 . S
C1558 C992 1.642 . S
C1594 C1038 1.628 . S
C1575 C107 1.638 . S
C1611 C108 1.612 . S
C1630 C249 1.601 . S
C1647 C83 1.643 . S
C1666 C295 1.621 . S
C1683 C96 1.640 . S
C1702 C341 1.614 . S
C1719 C127 1.613 . S
C1738 C288 1.600 . S
C1755 C140 1.635 . S
C1774 C334 1.608 . S
C1810 C242 1.610 . S
C1791 C146 1.633 . S
C1846 C1017 1.660 . S
C1827 C147 1.664 . S
C1882 C946 1.636 . S
C1863 C122 1.646 . S
C1918 C971 1.654 . S
C1899 C135 1.666 . S
C1935 C160 1.615 . S
C1954 C373 1.598 . S
C1971 C173 1.633 . S
C1990 C426 1.630 . S
C2007 C185 1.632 . S
C2026 C472 1.634 . S
C2043 C186 1.661 . S
C2062 C518 1.659 . S
C2098 C571 1.627 . S
C2079 C159 1.649 . S
C2134 C617 1.662 . S
C2115 C172 1.667 . S
C2170 C564 1.645 . S
C2151 C205 1.665 . S
C2206 C610 1.654 . S
C2187 C218 1.662 . S
C2223 C224 1.637 . S
C2242 C525 1.626 . S
C2278 C479 1.609 . S
C2259 C225 1.610 . S
C2295 C200 1.642 . S
C2314 C394 1.642 . S
C2350 C433 1.640 . S
C2331 C213 1.642 . S
C2386 C256 1.523 . S
C2367 C4 1.537 . S
C2403 C17 1.485 . S
C2422 C302 1.485 . S
C2458 C348 1.518 . S
C2439 C31 1.536 . S
C2494 C380 1.523 . S
C2475 C36 1.534 . S
C2530 C419 1.524 . S
C2511 C3 1.542 . S
C2566 C465 1.491 . S
C2547 C16 1.493 . S
C2583 C43 1.539 . S
C2602 C486 1.546 . S
C2619 C56 1.486 . S
C2638 C387 1.483 . S
C2655 C68 1.529 . S
C2674 C440 1.501 . S
C2691 C69 1.539 . S
C2710 C281 1.533 . S
C2746 C327 1.535 . S
C2727 C42 1.535 . S
C2763 C55 1.494 . S
C2782 C235 1.491 . S
C2818 C511 1.500 . S
C2799 C82 1.526 . S
C2835 C95 1.563 . S
C2854 C578 1.547 . S
C2871 C109 1.578 . S
C2890 C624 1.576 . S
C2926 C663 1.466 . S
C2907 C114 1.457 . S
C2943 C81 1.540 . S
C2962 C709 1.528 . S
C2979 C94 1.467 . S
C2998 C741 1.457 . S
C3015 C121 1.462 . S
C3034 C762 1.446 . S
C3051 C134 1.459 . S
C3070 C656 1.452 . S
C3106 C702 1.519 . S
C3087 C148 1.536 . S
C3123 C153 1.530 . S
C3142 C557 1.519 . S
C3159 C120 1.581 . S
C3178 C603 1.570 . S
C3214 C532 1.557 . S
C3195 C133 1.569 . S
C3250 C808 1.458 . S
C3231 C166 1.460 . S
C3267 C179 1.457 . S
C3286 C854 1.463 . S
C3303 C187 1.534 . S
C3322 C879 1.530 . S
C3358 C932 1.502 . S
C3339 C192 1.525 . S
C3394 C985 1.574 . S
C3375 C161 1.582 . S
C3411 C174 1.572 . S
C3430 C1031 1.556 . S
C3447 C199 1.530 . S
C3466 C1024 1.521 . S
C3483 C212 1.559 . S
C3502 C939 1.540 . S
C3538 C978 1.563 . S
C3519 C226 1.575 . S
C3574 C833 1.449 . S
C3555 C231 1.454 . S
C3610 C900 1.520 . S
C3591 C198 1.541 . S
C3627 C211 1.470 . S
C3646 C787 1.461 . S
