# Generated by pormake.
# Topology anh, (6,3)-cn, num edge types: 1
# Building blocks:
#     Node 0, Type 0, BuildingBlock: CUKXOW_clean_sbu_0, # of connection points: 6
#     Node 1, Type 0, BuildingBlock: CUKXOW_clean_sbu_0, # of connection points: 6
#     Node 2, Type 0, BuildingBlock: CUKXOW_clean_sbu_0, # of connection points: 6
#     Node 3, Type 1, BuildingBlock: QEWDON_clean_linker_0, # of connection points: 3
#     Node 4, Type 1, BuildingBlock: QEWDON_clean_linker_0, # of connection points: 3
#     Node 5, Type 1, BuildingBlock: QEWDON_clean_linker_0, # of connection points: 3
#     Node 6, Type 1, BuildingBlock: QEWDON_clean_linker_0, # of connection points: 3
#     Node 7, Type 1, BuildingBlock: QEWDON_clean_linker_0, # of connection points: 3
#     Node 8, Type 1, BuildingBlock: QEWDON_clean_linker_0, # of connection points: 3
#     Edge 9, Type (0, 1), BuildingBlock: XIVTED_clean_linker_0, # of connection points: 2
#     Edge 10, Type (0, 1), BuildingBlock: XIVTED_clean_linker_0, # of connection points: 2
#     Edge 11, Type (0, 1), BuildingBlock: XIVTED_clean_linker_0, # of connection points: 2
#     Edge 12, Type (0, 1), BuildingBlock: XIVTED_clean_linker_0, # of connection points: 2
#     Edge 13, Type (0, 1), BuildingBlock: XIVTED_clean_linker_0, # of connection points: 2
#     Edge 14, Type (0, 1), BuildingBlock: XIVTED_clean_linker_0, # of connection points: 2
#     Edge 15, Type (0, 1), BuildingBlock: XIVTED_clean_linker_0, # of connection points: 2
#     Edge 16, Type (0, 1), BuildingBlock: XIVTED_clean_linker_0, # of connection points: 2
#     Edge 17, Type (0, 1), BuildingBlock: XIVTED_clean_linker_0, # of connection points: 2
#     Edge 18, Type (0, 1), BuildingBlock: XIVTED_clean_linker_0, # of connection points: 2
#     Edge 19, Type (0, 1), BuildingBlock: XIVTED_clean_linker_0, # of connection points: 2
#     Edge 20, Type (0, 1), BuildingBlock: XIVTED_clean_linker_0, # of connection points: 2
#     Edge 21, Type (0, 1), BuildingBlock: XIVTED_clean_linker_0, # of connection points: 2
#     Edge 22, Type (0, 1), BuildingBlock: XIVTED_clean_linker_0, # of connection points: 2
#     Edge 23, Type (0, 1), BuildingBlock: XIVTED_clean_linker_0, # of connection points: 2
#     Edge 24, Type (0, 1), BuildingBlock: XIVTED_clean_linker_0, # of connection points: 2
#     Edge 25, Type (0, 1), BuildingBlock: XIVTED_clean_linker_0, # of connection points: 2
#     Edge 26, Type (0, 1), BuildingBlock: XIVTED_clean_linker_0, # of connection points: 2
# Relax obj value: 0.062
# Max RMSD: 0.137
# Mean RMSD: 0.109
data_MOF--net-anh--node1-CUKXOW_clean_sbu_0--node2-QEWDON_clean_linker_0--edge1-XIVTED_clean_linker_0
_symmetry_space_group_name_H-M    P1
_symmetry_Int_Tables_number       1
_symmetry_cell_setting            triclinic
loop_
_symmetry_equiv_pos_as_xyz
'x, y, z'
_cell_length_a     30.539367
_cell_length_b     29.685658
_cell_length_c     47.532693
_cell_angle_alpha  98.959857
_cell_angle_beta   93.109712
_cell_angle_gamma 112.9388
loop_
_atom_site_label
_atom_site_type_symbol
_atom_site_fract_x
_atom_site_fract_y
_atom_site_fract_z
_atom_type_partial_charge
Tb0 Tb 0.09847 0.56517 0.15399 0.0
C1 C 0.07421 0.528 0.21177 0.0
Tb2 Tb 0.03465 0.45254 0.15228 0.0
O3 O 0.03954 0.5863 0.16584 0.0
O4 O 1.02427 0.51592 0.14247 0.0
O5 O 0.10537 0.56099 0.19899 0.0
C6 C 0.95509 0.37255 0.15319 0.0
O7 O 0.04082 0.48528 0.1975 0.0
C8 C 0.12812 0.47098 0.15798 0.0
C9 C 0.06788 0.48808 0.09535 0.0
O10 O 0.96895 0.41532 0.17041 0.0
O11 O 0.98631 0.37447 0.13533 0.0
O12 O 0.09401 0.42681 0.15616 0.0
O13 O 0.10714 0.49987 0.15748 0.0
O14 O 0.03317 0.4561 0.10691 0.0
O15 O 0.10125 0.5301 0.11063 0.0
C16 C 0.16976 0.65328 0.155 0.0
O17 O 0.13447 0.6304 0.13437 0.0
O18 O 0.16477 0.62657 0.17465 0.0
C19 C 1.00558 0.54268 0.1559 0.0
Tb20 Tb 0.55362 0.05272 0.49334 0.0
C21 C 0.59088 0.09079 0.43795 0.0
Tb22 Tb 0.65905 0.12554 0.49734 0.0
O23 O 0.5281 0.10939 0.48518 0.0
O24 O 0.5946 0.12991 0.5089 0.0
O25 O 0.55897 0.05423 0.44825 0.0
C26 C 0.7381 0.20885 0.50188 0.0
O27 O 0.62999 0.12571 0.45399 0.0
C28 C 0.6445 0.03124 0.49189 0.0
C29 C 0.62164 0.08391 0.55206 0.0
O30 O 0.72639 0.1695 0.48184 0.0
O31 O 0.70563 0.20093 0.51908 0.0
O32 O 0.68486 0.06758 0.50357 0.0
O33 O 0.61782 0.04912 0.48121 0.0
O34 O 0.65374 0.12115 0.54234 0.0
O35 O 0.58333 0.04925 0.53541 0.0
C36 C 0.47021 0.97631 0.49254 0.0
O37 O 0.48729 0.01698 0.51182 0.0
O38 O 0.50002 0.97871 0.47385 0.0
C39 C 0.56772 0.14639 0.49689 0.0
Tb40 Tb 0.5464 0.57667 0.8266 0.0
C41 C 0.6033 0.58393 0.88597 0.0
Tb42 Tb 0.6536 0.58534 0.8287 0.0
O43 O 0.52182 0.49942 0.83345 0.0
O44 O 0.58323 0.53113 0.81405 0.0
O45 O 0.56582 0.58811 0.87283 0.0
C46 C 0.71852 0.54692 0.82665 0.0
O47 O 0.63909 0.57948 0.8727 0.0
C48 C 0.64813 0.67313 0.83743 0.0
C49 C 0.59999 0.58709 0.77075 0.0
O50 O 0.68398 0.53612 0.84251 0.0
O51 O 0.71821 0.58153 0.81297 0.0
O52 O 0.689 0.66854 0.83699 0.0
O53 O 0.61646 0.62995 0.83494 0.0
O54 O 0.63341 0.5757 0.78306 0.0
O55 O 0.56541 0.59376 0.78444 0.0
C56 C 0.469 0.59601 0.82213 0.0
O57 O 0.4749 0.55992 0.80578 0.0
O58 O 0.50611 0.62037 0.84135 0.0
C59 C 0.55887 0.49353 0.82406 0.0
H60 H 0.5676 0.1026 0.21206 0.0
C61 C 0.53638 0.06781 0.20542 0.0
C62 C 0.51217 0.04306 0.22646 0.0
C63 C 0.51911 0.04884 0.17601 0.0
H64 H 0.45342 0.97872 0.2341 0.0
C65 C 0.47097 0.99877 0.21789 0.0
C66 C 0.45247 0.97967 0.18886 0.0
C67 C 0.47719 1.00456 0.16804 0.0
C68 C 0.54378 0.07571 0.15356 0.0
H69 H 0.46346 0.98963 0.14558 0.0
C70 C 0.59415 0.10033 0.15658 0.0
C71 C 0.61728 0.12563 0.13533 0.0
C72 C 0.51695 0.07699 0.12887 0.0
H73 H 0.47816 0.05979 0.12608 0.0
C74 C 0.53978 0.10132 0.10757 0.0
H75 H 0.61552 0.09931 0.17522 0.0
C76 C 0.58958 0.12545 0.1107 0.0
H77 H 0.60634 0.14516 0.09419 0.0
H78 H 0.51871 0.10206 0.08872 0.0
H79 H 0.57554 0.61583 0.54716 0.0
C80 C 0.58336 0.58374 0.53958 0.0
C81 C 0.59736 0.56047 0.55972 0.0
C82 C 0.57868 0.56518 0.50991 0.0
H83 H 0.6141 0.4985 0.56589 0.0
C84 C 0.60567 0.51775 0.5502 0.0
C85 C 0.6002 0.49775 0.52089 0.0
C86 C 0.5874 0.52208 0.50083 0.0
C87 C 0.56283 0.58939 0.48848 0.0
H88 H 0.58433 0.50729 0.47816 0.0
C89 C 0.57705 0.64165 0.49314 0.0
C90 C 0.56097 0.66402 0.47307 0.0
C91 C 0.53236 0.55999 0.46329 0.0
H92 H 0.51954 0.51976 0.45924 0.0
C93 C 0.51719 0.58195 0.44313 0.0
H94 H 0.60027 0.66487 0.51245 0.0
C95 C 0.53137 0.63344 0.44787 0.0
H96 H 0.51926 0.64929 0.43162 0.0
H97 H 0.49401 0.55887 0.42377 0.0
H98 H 0.10409 0.545 0.89373 0.0
C99 C 0.07172 0.52129 0.87939 0.0
C100 C 0.04021 0.47597 0.88586 0.0
C101 C 0.05965 0.53867 0.85563 0.0
H102 H 0.97424 0.41113 0.87098 0.0
C103 C 0.99811 0.44682 0.86682 0.0
C104 C 0.98402 0.46559 0.8442 0.0
C105 C 1.01582 0.51127 0.83845 0.0
C106 C 0.09167 0.58701 0.84951 0.0
H107 H 1.00574 0.52739 0.82159 0.0
C108 C 0.13678 0.59304 0.84178 0.0
C109 C 0.16725 0.63792 0.8346 0.0
C110 C 0.07689 0.62638 0.85028 0.0
H111 H 0.04186 0.62216 0.85605 0.0
C112 C 0.10759 0.67165 0.84381 0.0
H113 H 0.148 0.56246 0.84113 0.0
C114 C 0.15278 0.67758 0.83607 0.0
H115 H 0.17602 0.71265 0.83083 0.0
H116 H 0.09624 0.70206 0.84463 0.0
H117 H 1.02164 0.58966 0.43453 0.0
C118 C 0.05604 0.62024 0.44231 0.0
C119 C 0.08847 0.63814 0.42281 0.0
C120 C 0.06699 0.64352 0.47153 0.0
H121 H 0.15826 0.69059 0.4179 0.0
C122 C 0.13248 0.67826 0.43284 0.0
C123 C 0.14368 0.70281 0.4616 0.0
C124 C 0.11096 0.68486 0.48099 0.0
C125 C 0.03163 0.62605 0.49188 0.0
H126 H 0.11941 0.70341 0.50332 0.0
C127 C 1.00595 0.57477 0.49103 0.0
C128 C 0.9716 0.55803 0.50985 0.0
C129 C 1.02283 0.66062 0.51198 0.0
H130 H 0.04146 0.70031 0.51286 0.0
C131 C 0.98899 0.64432 0.53076 0.0
H132 H 1.01335 0.54794 0.47603 0.0
C133 C 0.96342 0.59346 0.5297 0.0
H134 H 0.9366 0.58196 0.54412 0.0
H135 H 0.98217 0.67122 0.54599 0.0
H136 H 0.60627 0.04621 0.772 0.0
C137 C 0.61021 0.08368 0.78082 0.0
C138 C 0.62399 0.1199 0.76347 0.0
C139 C 0.5998 0.09514 0.8089 0.0
H140 H 0.63476 0.19479 0.76019 0.0
C141 C 0.62685 0.16786 0.77421 0.0
C142 C 0.61604 0.18031 0.80189 0.0
C143 C 0.60341 0.144 0.81929 0.0
C144 C 0.58132 0.05519 0.82635 0.0
H145 H 0.59599 0.15388 0.84086 0.0
C146 C 0.59659 0.0155 0.82434 0.0
C147 C 0.57563 0.97608 0.83913 0.0
C148 C 0.54576 0.05504 0.84406 0.0
H149 H 0.53194 0.08371 0.84565 0.0
C150 C 0.5261 0.01691 0.85932 0.0
H151 H 0.62384 0.01453 0.81089 0.0
C152 C 0.54065 0.97762 0.8568 0.0
H153 H 0.52433 0.94817 0.86865 0.0
H154 H 0.49877 0.01736 0.8728 0.0
H155 H 0.55668 0.54639 0.10239 0.0
C156 C 0.58604 0.53713 0.10919 0.0
C157 C 0.61905 0.5355 0.08995 0.0
C158 C 0.59258 0.53064 0.13764 0.0
H159 H 0.6839 0.52444 0.08422 0.0
C160 C 0.65854 0.52584 0.09906 0.0
C161 C 0.66707 0.51992 0.12726 0.0
C162 C 0.63378 0.52225 0.14647 0.0
C163 C 0.55917 0.53785 0.15857 0.0
H164 H 0.6401 0.51735 0.16819 0.0
C165 C 0.50958 0.52568 0.15008 0.0
C166 C 0.48065 0.53772 0.16986 0.0
C167 C 0.57807 0.56081 0.18732 0.0
H168 H 0.61561 0.57214 0.19474 0.0
C169 C 0.54946 0.57152 0.20687 0.0
H170 H 0.4937 0.50787 0.12818 0.0
C171 C 0.50149 0.56045 0.19827 0.0
H172 H 0.48043 0.56965 0.21402 0.0
H173 H 0.56484 0.58935 0.22884 0.0
H174 H 0.2043 0.56249 0.16353 0.0
H175 H 0.4047 0.4493 0.14475 0.0
H176 H 0.17112 0.40527 0.15054 0.0
H177 H 0.43833 0.60399 0.17832 0.0
H178 H 0.31881 0.43318 0.13977 0.0
H179 H 0.28966 0.57916 0.16289 0.0
C180 C 0.2149 0.53149 0.16051 0.0
C181 C 0.18033 0.48246 0.1573 0.0
C182 C 0.34503 0.47076 0.14795 0.0
C183 C 0.27836 0.50109 0.15613 0.0
C184 C 0.39414 0.48003 0.15051 0.0
C185 C 0.42897 0.52807 0.16196 0.0
C186 C 0.33046 0.50989 0.15661 0.0
C187 C 0.41286 0.56632 0.16947 0.0
C188 C 0.26373 0.54096 0.16012 0.0
C189 C 0.19642 0.44372 0.15327 0.0
N190 N 0.36513 0.55645 0.16673 0.0
N191 N 0.24398 0.45379 0.15276 0.0
H192 H 0.77282 0.28452 0.54785 0.0
H193 H 0.93506 0.48301 0.46206 0.0
H194 H 0.79566 0.24244 0.46068 0.0
H195 H 0.94416 0.50924 0.55457 0.0
H196 H 0.88449 0.39513 0.46046 0.0
H197 H 0.83542 0.36744 0.55033 0.0
C198 C 0.79147 0.29272 0.5293 0.0
C199 C 0.77917 0.25685 0.504 0.0
C200 C 0.89797 0.4201 0.48109 0.0
C201 C 0.85035 0.35189 0.50649 0.0
C202 C 0.927 0.47028 0.48206 0.0
C203 C 0.94358 0.50385 0.5085 0.0
C204 C 0.88503 0.40346 0.50671 0.0
C205 C 0.93135 0.48513 0.53366 0.0
C206 C 0.82724 0.34002 0.53073 0.0
C207 C 0.80432 0.26922 0.48058 0.0
N208 N 0.90251 0.43637 0.53211 0.0
N209 N 0.83845 0.31608 0.48225 0.0
H210 H 0.71267 0.7706 0.8533 0.0
H211 H 0.51422 0.87825 0.82658 0.0
H212 H 0.56628 0.67993 0.81728 0.0
H213 H 0.66502 0.97326 0.84397 0.0
H214 H 0.53329 0.80546 0.82475 0.0
H215 H 0.69728 0.84572 0.85155 0.0
C216 C 0.67721 0.76652 0.84522 0.0
C217 C 0.64013 0.71896 0.83632 0.0
C218 C 0.56239 0.84211 0.82881 0.0
C219 C 0.62233 0.80431 0.83406 0.0
C220 C 0.55147 0.88373 0.82993 0.0
C221 C 0.58807 0.93192 0.8356 0.0
C222 C 0.61038 0.84838 0.83369 0.0
C223 C 0.63575 0.93674 0.83945 0.0
C224 C 0.66847 0.80931 0.84417 0.0
C225 C 0.59513 0.71569 0.82562 0.0
N226 N 0.64556 0.89549 0.8387 0.0
N227 N 0.58743 0.75762 0.82494 0.0
H228 H 0.92795 0.46358 0.12298 0.0
H229 H 0.73451 0.57224 0.17458 0.0
H230 H 0.96389 0.59861 0.18529 0.0
H231 H 0.70535 0.45781 0.09959 0.0
H232 H 0.81504 0.57348 0.18384 0.0
H233 H 0.84342 0.45261 0.11878 0.0
C234 C 0.91806 0.49068 0.13595 0.0
C235 C 0.95331 0.53231 0.15436 0.0
C236 C 0.79085 0.54767 0.16552 0.0
C237 C 0.85631 0.51989 0.1498 0.0
C238 C 0.74458 0.5466 0.1604 0.0
C239 C 0.71285 0.51497 0.13621 0.0
C240 C 0.80572 0.51656 0.14649 0.0
C241 C 0.72854 0.4831 0.11839 0.0
C242 C 0.86977 0.4845 0.1335 0.0
C243 C 0.93815 0.56613 0.17067 0.0
N244 N 0.77362 0.48484 0.12379 0.0
N245 N 0.89113 0.55927 0.16798 0.0
H246 H 0.42024 0.9081 0.44513 0.0
H247 H 0.20646 0.73134 0.51162 0.0
H248 H 0.41212 0.95321 0.53479 0.0
H249 H 0.18484 0.77718 0.43194 0.0
H250 H 0.28641 0.8006 0.522 0.0
H251 H 0.33872 0.844 0.44037 0.0
C252 C 0.40137 0.90413 0.46386 0.0
C253 C 0.42251 0.9359 0.49033 0.0
C254 C 0.26367 0.79534 0.50242 0.0
C255 C 0.33001 0.86261 0.48512 0.0
C256 C 0.21814 0.75613 0.49652 0.0
C257 C 0.18933 0.74764 0.47052 0.0
C258 C 0.28038 0.82525 0.48193 0.0
C259 C 0.20638 0.78104 0.45174 0.0
C260 C 0.35495 0.86787 0.4611 0.0
C261 C 0.39663 0.92939 0.51399 0.0
N262 N 0.25108 0.81772 0.45755 0.0
N263 N 0.35152 0.89302 0.51091 0.0
H264 H 0.51661 0.41569 0.85141 0.0
H265 H 0.67829 0.27201 0.79364 0.0
H266 H 0.62456 0.46935 0.79572 0.0
H267 H 0.54834 0.20156 0.83051 0.0
H268 H 0.66698 0.34991 0.80162 0.0
H269 H 0.53441 0.3416 0.85027 0.0
C270 C 0.54421 0.41196 0.83906 0.0
C271 C 0.56947 0.44887 0.82384 0.0
C272 C 0.64108 0.3175 0.80814 0.0
C273 C 0.59024 0.36454 0.82258 0.0
C274 C 0.64753 0.27297 0.80362 0.0
C275 C 0.61389 0.2298 0.81106 0.0
C276 C 0.6007 0.3192 0.82027 0.0
C277 C 0.57531 0.23379 0.8245 0.0
C278 C 0.55441 0.36976 0.83846 0.0
C279 C 0.60476 0.44215 0.80812 0.0
N280 N 0.56955 0.27751 0.82844 0.0
N281 N 0.61416 0.40093 0.80795 0.0
H282 H 0.56793 0.95341 0.46024 0.0
H283 H 0.64738 0.74076 0.49733 0.0
H284 H 0.69498 0.98691 0.51797 0.0
H285 H 0.50459 0.71287 0.4607 0.0
H286 H 0.66826 0.83058 0.50328 0.0
H287 H 0.54707 0.86461 0.45762 0.0
C288 C 0.59111 0.942 0.47266 0.0
C289 C 0.63269 0.97748 0.48976 0.0
C290 C 0.63235 0.80467 0.49402 0.0
C291 C 0.60987 0.87566 0.48629 0.0
C292 C 0.62029 0.75336 0.49074 0.0
C293 C 0.57422 0.71891 0.4782 0.0
C294 C 0.59823 0.82169 0.48453 0.0
C295 C 0.54087 0.73773 0.46982 0.0
C296 C 0.57939 0.89125 0.47104 0.0
C297 C 0.66244 0.96062 0.50463 0.0
N298 N 0.55361 0.78763 0.47297 0.0
N299 N 0.65052 0.91083 0.50252 0.0
H300 H 0.78595 0.55801 0.78989 0.0
H301 H 0.90381 0.42125 0.87 0.0
H302 H 0.71737 0.47054 0.85183 0.0
H303 H 0.94632 0.46325 0.78939 0.0
H304 H 0.82622 0.4207 0.85706 0.0
H305 H 0.83742 0.51227 0.78395 0.0
C306 C 0.78176 0.52906 0.80217 0.0
C307 C 0.74871 0.519 0.82206 0.0
C308 C 0.852 0.42887 0.84179 0.0
C309 C 0.8066 0.4662 0.81516 0.0
C310 C 0.8966 0.42863 0.84904 0.0
C311 C 0.93296 0.44492 0.83141 0.0
C312 C 0.84422 0.44682 0.81722 0.0
C313 C 0.92035 0.45328 0.80442 0.0
C314 C 0.81059 0.50248 0.79849 0.0
C315 C 0.74354 0.48033 0.83688 0.0
N316 N 0.8776 0.45614 0.7986 0.0
N317 N 0.77279 0.45585 0.8335 0.0
H318 H 0.20734 0.70173 0.11147 0.0
H319 H 0.373 0.95346 0.21705 0.0
H320 H 0.2199 0.71706 0.20362 0.0
H321 H 0.42711 0.90235 0.14196 0.0
H322 H 0.30193 0.87538 0.2067 0.0
H323 H 0.27486 0.78415 0.11705 0.0
C324 C 0.22406 0.72264 0.13279 0.0
C325 C 0.20845 0.70289 0.15716 0.0
C326 C 0.32933 0.88155 0.19244 0.0
C327 C 0.28386 0.79634 0.16359 0.0
C328 C 0.37014 0.9259 0.19841 0.0
C329 C 0.40694 0.93419 0.1808 0.0
C330 C 0.32449 0.84544 0.16833 0.0
C331 C 0.39986 0.8977 0.15621 0.0
C332 C 0.26245 0.76925 0.13592 0.0
C333 C 0.23116 0.73101 0.18432 0.0
N334 N 0.35944 0.85467 0.15073 0.0
N335 N 0.26747 0.77651 0.18683 0.0
H336 H 0.51995 0.18285 0.46333 0.0
H337 H 0.66742 0.46697 0.5416 0.0
H338 H 0.63757 0.22984 0.53076 0.0
H339 H 0.5408 0.41733 0.4803 0.0
H340 H 0.6644 0.38237 0.53283 0.0
H341 H 0.53364 0.27003 0.46474 0.0
C342 C 0.54892 0.21166 0.47833 0.0
C343 C 0.5778 0.19924 0.49693 0.0
C344 C 0.63757 0.39006 0.52106 0.0
C345 C 0.59373 0.29916 0.4987 0.0
C346 C 0.63927 0.43837 0.52604 0.0
C347 C 0.60394 0.44917 0.51192 0.0
C348 C 0.6002 0.35209 0.50183 0.0
C349 C 0.56885 0.41083 0.49161 0.0
C350 C 0.5568 0.26142 0.47907 0.0
C351 C 0.61497 0.23791 0.5158 0.0
N352 N 0.56756 0.36391 0.48743 0.0
N353 N 0.62171 0.28617 0.51633 0.0
H354 H 0.38844 0.54723 0.78363 0.0
H355 H 0.25543 0.71099 0.85626 0.0
H356 H 0.45542 0.67337 0.85333 0.0
H357 H 0.18525 0.57445 0.79395 0.0
H358 H 0.33306 0.70822 0.84822 0.0
H359 H 0.31746 0.56619 0.78054 0.0
C360 C 0.38816 0.57904 0.79818 0.0
C361 C 0.42719 0.60833 0.81907 0.0
C362 C 0.30071 0.67929 0.83599 0.0
C363 C 0.34665 0.63037 0.81568 0.0
C364 C 0.25658 0.68111 0.84043 0.0
C365 C 0.2142 0.64245 0.82607 0.0
C366 C 0.30206 0.63856 0.81707 0.0
C367 C 0.2173 0.60444 0.80581 0.0
C368 C 0.34781 0.58997 0.79638 0.0
C369 C 0.42556 0.64949 0.8372 0.0
N370 N 0.26048 0.60311 0.80215 0.0
N371 N 0.38566 0.65909 0.83527 0.0
H372 H 0.89371 0.36258 0.19322 0.0
H373 H 0.68047 0.12948 0.09593 0.0
H374 H 0.91154 0.28748 0.1122 0.0
H375 H 0.67388 0.18799 0.18383 0.0
H376 H 0.76575 0.1845 0.10174 0.0
H377 H 0.81395 0.29671 0.19069 0.0
C378 C 0.88089 0.33186 0.175 0.0
C379 C 0.90898 0.33041 0.15282 0.0
C380 C 0.74578 0.18489 0.11985 0.0
C381 C 0.81752 0.25514 0.14956 0.0
C382 C 0.69709 0.15368 0.11651 0.0
C383 C 0.66998 0.15447 0.13937 0.0
C384 C 0.7674 0.21753 0.14614 0.0
C385 C 0.69344 0.18599 0.16568 0.0
C386 C 0.83538 0.29422 0.17357 0.0
C387 C 0.89083 0.28984 0.12972 0.0
N388 N 0.74064 0.21664 0.16824 0.0
N389 N 0.84592 0.25398 0.12852 0.0
H390 H 0.13952 0.53397 0.06401 0.0
H391 H 0.97021 0.43027 0.91835 0.0
H392 H 0.99681 0.41822 0.0551 0.0
H393 H 0.12439 0.49573 0.92033 0.0
H394 H 0.98016 0.42329 0.96798 0.0
H395 H 0.13606 0.52043 0.01167 0.0
C396 C 0.1076 0.50549 0.05109 0.0
C397 C 0.06811 0.47764 0.06395 0.0
C398 C 1.01187 0.43842 0.95746 0.0
C399 C 0.06401 0.46213 0.00419 0.0
C400 C 1.00631 0.44199 0.92878 0.0
C401 C 0.04656 0.46388 0.91473 0.0
C402 C 0.05793 0.45794 0.97268 0.0
C403 C 0.09222 0.47967 0.93027 0.0
C404 C 0.10583 0.49757 0.02124 0.0
C405 C 1.02796 0.44083 0.04616 0.0
N406 N 0.09668 0.47724 0.95857 0.0
N407 N 1.02669 0.43464 0.01718 0.0
H408 H 0.50438 0.05364 0.40535 0.0
H409 H 0.60353 0.07899 0.2554 0.0
H410 H 0.65552 0.13126 0.40099 0.0
H411 H 0.45743 0.05204 0.26848 0.0
H412 H 0.62563 0.09914 0.30785 0.0
H413 H 0.48796 0.05145 0.35444 0.0
C414 C 0.53419 0.07034 0.39363 0.0
C415 C 0.58142 0.09234 0.40737 0.0
C416 C 0.58891 0.08945 0.29914 0.0
C417 C 0.56285 0.08976 0.34873 0.0
C418 C 0.57635 0.07815 0.26927 0.0
C419 C 0.5284 0.0629 0.25762 0.0
C420 C 0.55315 0.08514 0.31725 0.0
C421 C 0.49458 0.0624 0.27654 0.0
C422 C 0.52477 0.06935 0.36454 0.0
C423 C 0.61857 0.11392 0.39115 0.0
N424 N 0.50746 0.07266 0.30531 0.0
N425 N 0.60857 0.11154 0.3625 0.0
H426 H 0.67328 0.59314 0.7393 0.0
H427 H 0.53102 0.58028 0.5902 0.0
H428 H 0.53154 0.59286 0.73277 0.0
H429 H 0.6719 0.57959 0.60014 0.0
H430 H 0.53335 0.59536 0.64271 0.0
H431 H 0.67578 0.59749 0.68889 0.0
C432 C 0.64254 0.59398 0.72726 0.0
C433 C 0.60182 0.59194 0.74028 0.0
C434 C 0.56399 0.59261 0.63338 0.0
C435 C 0.60454 0.59698 0.68208 0.0
C436 C 0.56281 0.58441 0.60349 0.0
C437 C 0.60118 0.5783 0.59096 0.0
C438 C 0.60388 0.59477 0.65066 0.0
C439 C 0.64137 0.58351 0.60901 0.0
C440 C 0.6441 0.59668 0.69838 0.0
C441 C 0.56352 0.594 0.72356 0.0
N442 N 0.64148 0.59101 0.63789 0.0
N443 N 0.56561 0.59594 0.6952 0.0
H444 H 0.56357 0.01445 0.5807 0.0
H445 H 0.69657 0.17334 0.73528 0.0
H446 H 0.69271 0.14963 0.59411 0.0
H447 H 0.56747 0.03861 0.7225 0.0
H448 H 0.70126 0.15926 0.68371 0.0
H449 H 0.56964 0.01693 0.63239 0.0
C450 C 0.59346 0.04445 0.59444 0.0
C451 C 0.6274 0.08222 0.58298 0.0
C452 C 0.67219 0.1324 0.69217 0.0
C453 C 0.63443 0.08527 0.64231 0.0
C454 C 0.66953 0.14044 0.72161 0.0
C455 C 0.63135 0.10732 0.73313 0.0
C456 C 0.63619 0.09111 0.67402 0.0
C457 C 0.59759 0.06497 0.71453 0.0
C458 C 0.59689 0.04579 0.624 0.0
C459 C 0.66547 0.1199 0.60192 0.0
N460 N 0.60047 0.0584 0.68583 0.0
N461 N 0.6677 0.12068 0.63063 0.0
H462 H 0.68208 0.6042 0.92372 0.0
H463 H 0.53719 0.50584 0.05164 0.0
H464 H 0.52905 0.5601 0.91893 0.0
H465 H 0.69013 0.59171 0.06166 0.0
H466 H 0.53202 0.52228 0.00278 0.0
H467 H 0.68467 0.59617 0.97392 0.0
C468 C 0.64898 0.59303 0.93327 0.0
C469 C 0.60526 0.58272 0.91704 0.0
C470 C 0.56661 0.53762 0.01579 0.0
C471 C 0.60792 0.57295 0.97469 0.0
C472 C 0.5696 0.52836 0.04369 0.0
C473 C 0.61428 0.54669 0.0607 0.0
C474 C 0.60863 0.56514 0.0048 0.0
C475 C 0.65507 0.57554 0.04916 0.0
C476 C 0.65051 0.58858 0.96201 0.0
C477 C 0.56357 0.56864 0.93069 0.0
N478 N 0.65129 0.58348 0.02195 0.0
N479 N 0.56583 0.56367 0.95868 0.0
H480 H 0.12434 0.61854 0.24633 0.0
H481 H 0.0519 0.53978 0.39488 0.0
H482 H 1.02584 0.46842 0.24875 0.0
H483 H 0.09888 0.69014 0.37979 0.0
H484 H 0.04521 0.50968 0.34277 0.0
H485 H 0.12207 0.6425 0.29722 0.0
C486 C 0.10244 0.5904 0.25758 0.0
C487 C 0.0752 0.54133 0.24316 0.0
C488 C 0.05649 0.54915 0.35099 0.0
C489 C 0.07222 0.56888 0.30175 0.0
C490 C 0.06006 0.56625 0.38058 0.0
C491 C 0.07683 0.61755 0.39159 0.0
C492 C 0.07013 0.58381 0.33265 0.0
C493 C 0.08693 0.65038 0.37224 0.0
C494 C 0.10086 0.60428 0.28667 0.0
C495 C 0.04733 0.5067 0.25902 0.0
N496 N 0.08399 0.63304 0.34383 0.0
N497 N 0.04665 0.52109 0.28759 0.0
loop_
_geom_bond_atom_site_label_1
_geom_bond_atom_site_label_2
_geom_bond_distance
_geom_bond_site_symmetry_2
_ccdc_geom_bond_type
Tb0 O3 2.453 1_455 S
Tb0 O4 2.596 1_455 S
Tb0 O5 2.374 . S
Tb0 O13 2.343 . S
Tb0 O15 2.353 . S
Tb0 O17 2.427 . S
Tb0 O18 2.513 . S
C1 O5 1.251 . S
C1 O7 1.263 . S
Tb2 O4 2.343 1_455 S
Tb2 O7 2.353 . S
Tb2 O10 2.427 1_455 S
Tb2 O11 2.513 1_455 S
Tb2 O12 2.453 . S
Tb2 O13 2.596 . S
Tb2 O14 2.374 . S
O3 Tb0 2.453 1_655 S
O3 C19 1.245 . S
O4 Tb0 2.596 1_655 S
O4 Tb2 2.343 1_655 S
O4 C19 1.259 . S
O5 Tb0 2.374 . S
O5 C1 1.251 . S
C6 O10 1.275 . S
C6 O11 1.246 . S
O7 C1 1.263 . S
O7 Tb2 2.353 . S
C8 O12 1.245 . S
C8 O13 1.259 . S
C9 O14 1.250 . S
C9 O15 1.263 . S
O10 Tb2 2.427 1_655 S
O10 C6 1.275 . S
O11 Tb2 2.513 1_655 S
O11 C6 1.246 . S
O12 Tb2 2.453 . S
O12 C8 1.245 . S
O13 Tb0 2.343 . S
O13 Tb2 2.596 . S
O13 C8 1.259 . S
O14 Tb2 2.374 . S
O14 C9 1.250 . S
O15 Tb0 2.353 . S
O15 C9 1.263 . S
C16 O17 1.275 . S
C16 O18 1.246 . S
O17 Tb0 2.427 . S
O17 C16 1.275 . S
O18 Tb0 2.513 . S
O18 C16 1.246 . S
C19 O3 1.245 . S
C19 O4 1.259 . S
Tb20 O23 2.453 . S
Tb20 O24 2.596 . S
Tb20 O25 2.374 . S
Tb20 O33 2.343 . S
Tb20 O35 2.353 . S
Tb20 O37 2.427 1_545 S
Tb20 O38 2.513 1_545 S
C21 O25 1.251 . S
C21 O27 1.263 . S
Tb22 O24 2.343 . S
Tb22 O27 2.353 . S
Tb22 O30 2.427 . S
Tb22 O31 2.513 . S
Tb22 O32 2.453 . S
Tb22 O33 2.596 . S
Tb22 O34 2.374 . S
O23 Tb20 2.453 . S
O23 C39 1.245 . S
O24 Tb20 2.596 . S
O24 Tb22 2.343 . S
O24 C39 1.259 . S
O25 Tb20 2.374 . S
O25 C21 1.251 . S
C26 O30 1.275 . S
C26 O31 1.246 . S
O27 C21 1.263 . S
O27 Tb22 2.353 . S
C28 O32 1.245 1_565 S
C28 O33 1.259 1_565 S
C29 O34 1.250 . S
C29 O35 1.263 . S
O30 Tb22 2.427 . S
O30 C26 1.275 . S
O31 Tb22 2.513 . S
O31 C26 1.246 . S
O32 Tb22 2.453 . S
O32 C28 1.245 1_545 S
O33 Tb20 2.343 . S
O33 Tb22 2.596 . S
O33 C28 1.259 1_545 S
O34 Tb22 2.374 . S
O34 C29 1.250 . S
O35 Tb20 2.353 . S
O35 C29 1.263 . S
C36 O37 1.275 . S
C36 O38 1.246 . S
O37 Tb20 2.427 1_565 S
O37 C36 1.275 . S
O38 Tb20 2.513 1_565 S
O38 C36 1.246 . S
C39 O23 1.245 . S
C39 O24 1.259 . S
Tb40 O43 2.453 . S
Tb40 O44 2.596 . S
Tb40 O45 2.374 . S
Tb40 O53 2.343 . S
Tb40 O55 2.353 . S
Tb40 O57 2.427 . S
Tb40 O58 2.513 . S
C41 O45 1.251 . S
C41 O47 1.263 . S
Tb42 O44 2.343 . S
Tb42 O47 2.353 . S
Tb42 O50 2.427 . S
Tb42 O51 2.513 . S
Tb42 O52 2.453 . S
Tb42 O53 2.596 . S
Tb42 O54 2.374 . S
O43 Tb40 2.453 . S
O43 C59 1.245 . S
O44 Tb40 2.596 . S
O44 Tb42 2.343 . S
O44 C59 1.259 . S
O45 Tb40 2.374 . S
O45 C41 1.251 . S
C46 O50 1.275 . S
C46 O51 1.246 . S
O47 C41 1.263 . S
O47 Tb42 2.353 . S
C48 O52 1.245 . S
C48 O53 1.259 . S
C49 O54 1.250 . S
C49 O55 1.263 . S
O50 Tb42 2.427 . S
O50 C46 1.275 . S
O51 Tb42 2.513 . S
O51 C46 1.246 . S
O52 Tb42 2.453 . S
O52 C48 1.245 . S
O53 Tb40 2.343 . S
O53 Tb42 2.596 . S
O53 C48 1.259 . S
O54 Tb42 2.374 . S
O54 C49 1.250 . S
O55 Tb40 2.353 . S
O55 C49 1.263 . S
C56 O57 1.275 . S
C56 O58 1.246 . S
O57 Tb40 2.427 . S
O57 C56 1.275 . S
O58 Tb40 2.513 . S
O58 C56 1.246 . S
C59 O43 1.245 . S
C59 O44 1.259 . S
H60 C61 0.949 . S
C61 H60 0.949 . S
C61 C62 1.395 . S
C61 C63 1.391 . S
C62 C61 1.395 . S
C62 C65 1.390 . S
C63 C61 1.391 . S
C63 C67 1.387 . S
C63 C68 1.491 . S
H64 C65 0.950 . S
C65 C62 1.390 . S
C65 H64 0.950 . S
C65 C66 1.378 . S
C66 C65 1.378 . S
C66 C67 1.409 . S
C67 C63 1.387 . S
C67 C66 1.409 . S
C67 H69 0.951 . S
C68 C63 1.491 . S
C68 C70 1.382 . S
C68 C72 1.404 . S
H69 C67 0.951 . S
C70 C68 1.382 . S
C70 C71 1.390 . S
C70 H75 0.949 . S
C71 C70 1.390 . S
C71 C76 1.399 . S
C72 C68 1.404 . S
C72 H73 0.950 . S
C72 C74 1.375 . S
H73 C72 0.950 . S
C74 C72 1.375 . S
C74 C76 1.382 . S
C74 H78 0.950 . S
H75 C70 0.949 . S
C76 C71 1.399 . S
C76 C74 1.382 . S
C76 H77 0.952 . S
H77 C76 0.952 . S
H78 C74 0.950 . S
H79 C80 0.949 . S
C80 H79 0.949 . S
C80 C81 1.395 . S
C80 C82 1.391 . S
C81 C80 1.395 . S
C81 C84 1.390 . S
C82 C80 1.391 . S
C82 C86 1.387 . S
C82 C87 1.491 . S
H83 C84 0.950 . S
C84 C81 1.390 . S
C84 H83 0.950 . S
C84 C85 1.378 . S
C85 C84 1.378 . S
C85 C86 1.409 . S
C86 C82 1.387 . S
C86 C85 1.409 . S
C86 H88 0.951 . S
C87 C82 1.491 . S
C87 C89 1.382 . S
C87 C91 1.404 . S
H88 C86 0.951 . S
C89 C87 1.382 . S
C89 C90 1.390 . S
C89 H94 0.949 . S
C90 C89 1.390 . S
C90 C95 1.399 . S
C91 C87 1.404 . S
C91 H92 0.950 . S
C91 C93 1.375 . S
H92 C91 0.950 . S
C93 C91 1.375 . S
C93 C95 1.382 . S
C93 H97 0.950 . S
H94 C89 0.949 . S
C95 C90 1.399 . S
C95 C93 1.382 . S
C95 H96 0.952 . S
H96 C95 0.952 . S
H97 C93 0.950 . S
H98 C99 0.949 . S
C99 H98 0.949 . S
C99 C100 1.395 . S
C99 C101 1.391 . S
C100 C99 1.395 . S
C100 C103 1.390 . S
C101 C99 1.391 . S
C101 C105 1.387 . S
C101 C106 1.491 . S
H102 C103 0.938 1_655 S
C103 C100 1.390 . S
C103 H102 0.938 1_455 S
C103 C104 1.378 . S
C104 C103 1.378 . S
C104 C105 1.409 . S
C105 C101 1.387 . S
C105 C104 1.409 . S
C105 H107 0.951 . S
C106 C101 1.491 . S
C106 C108 1.382 . S
C106 C110 1.404 . S
H107 C105 0.951 . S
C108 C106 1.382 . S
C108 C109 1.390 . S
C108 H113 0.949 . S
C109 C108 1.390 . S
C109 C114 1.399 . S
C110 C106 1.404 . S
C110 H111 0.950 . S
C110 C112 1.375 . S
H111 C110 0.950 . S
C112 C110 1.375 . S
C112 C114 1.382 . S
C112 H116 0.950 . S
H113 C108 0.949 . S
C114 C109 1.399 . S
C114 C112 1.382 . S
C114 H115 0.952 . S
H115 C114 0.952 . S
H116 C112 0.950 . S
H117 C118 0.949 . S
C118 H117 0.949 . S
C118 C119 1.395 1_655 S
C118 C120 1.391 1_655 S
C119 C118 1.395 1_455 S
C119 C122 1.390 . S
C120 C118 1.391 1_455 S
C120 C124 1.389 . S
C120 C125 1.489 1_455 S
H121 C122 0.950 . S
C122 C119 1.390 . S
C122 H121 0.950 . S
C122 C123 1.378 . S
C123 C122 1.378 . S
C123 C124 1.409 . S
C124 C120 1.389 . S
C124 C123 1.409 . S
C124 H126 0.951 . S
C125 C120 1.489 1_655 S
C125 C127 1.382 . S
C125 C129 1.404 . S
H126 C124 0.951 . S
C127 C125 1.382 . S
C127 C128 1.390 . S
C127 H132 0.949 . S
C128 C127 1.390 . S
C128 C133 1.399 . S
C129 C125 1.404 . S
C129 H130 0.950 . S
C129 C131 1.375 . S
H130 C129 0.950 . S
C131 C129 1.375 . S
C131 C133 1.382 . S
C131 H135 0.950 . S
H132 C127 0.949 . S
C133 C128 1.399 . S
C133 C131 1.382 . S
C133 H134 0.952 . S
H134 C133 0.952 . S
H135 C131 0.950 . S
H136 C137 0.949 1_565 S
C137 H136 0.949 1_545 S
C137 C138 1.395 . S
C137 C139 1.391 . S
C138 C137 1.395 . S
C138 C141 1.390 . S
C139 C137 1.391 . S
C139 C143 1.387 . S
C139 C144 1.473 1_545 S
H140 C141 0.950 . S
C141 C138 1.390 . S
C141 H140 0.950 . S
C141 C142 1.378 . S
C142 C141 1.378 . S
C142 C143 1.409 . S
C143 C139 1.387 . S
C143 C142 1.409 . S
C143 H145 0.951 . S
C144 C139 1.473 1_565 S
C144 C146 1.400 . S
C144 C148 1.404 . S
H145 C143 0.951 . S
C146 C144 1.400 . S
C146 C147 1.390 . S
C146 H151 0.949 . S
C147 C146 1.390 . S
C147 C152 1.399 . S
C148 C144 1.404 . S
C148 H149 0.950 1_565 S
C148 C150 1.375 . S
H149 C148 0.950 1_545 S
C150 C148 1.375 . S
C150 C152 1.382 . S
C150 H154 0.950 . S
H151 C146 0.949 . S
C152 C147 1.399 . S
C152 C150 1.382 . S
C152 H153 0.952 . S
H153 C152 0.952 . S
H154 C150 0.950 . S
H155 C156 0.949 . S
C156 H155 0.949 . S
C156 C157 1.395 . S
C156 C158 1.391 . S
C157 C156 1.395 . S
C157 C160 1.390 . S
C158 C156 1.391 . S
C158 C162 1.387 . S
C158 C163 1.491 . S
H159 C160 0.950 . S
C160 C157 1.390 . S
C160 H159 0.950 . S
C160 C161 1.378 . S
C161 C160 1.378 . S
C161 C162 1.409 . S
C162 C158 1.387 . S
C162 C161 1.409 . S
C162 H164 0.951 . S
C163 C158 1.491 . S
C163 C165 1.382 . S
C163 C167 1.404 . S
H164 C162 0.951 . S
C165 C163 1.382 . S
C165 C166 1.390 . S
C165 H170 0.949 . S
C166 C165 1.390 . S
C166 C171 1.399 . S
C167 C163 1.404 . S
C167 H168 0.950 . S
C167 C169 1.375 . S
H168 C167 0.950 . S
C169 C167 1.375 . S
C169 C171 1.382 . S
C169 H173 0.950 . S
H170 C165 0.949 . S
C171 C166 1.399 . S
C171 C169 1.382 . S
C171 H172 0.952 . S
H172 C171 0.952 . S
H173 C169 0.950 . S
H174 C180 0.930 . S
H175 C184 0.930 . S
H176 C189 0.929 . S
H177 C187 0.929 . S
H178 C182 0.929 . S
H179 C188 0.929 . S
C180 H174 0.930 . S
C180 C181 1.367 . S
C180 C188 1.378 . S
C181 C180 1.367 . S
C181 C189 1.433 . S
C182 H178 0.929 . S
C182 C184 1.378 . S
C182 C186 1.350 . S
C183 C186 1.463 . S
C183 C188 1.350 . S
C183 N191 1.427 . S
C184 H175 0.930 . S
C184 C182 1.378 . S
C184 C185 1.367 . S
C185 C184 1.367 . S
C185 C187 1.433 . S
C186 C182 1.350 . S
C186 C183 1.463 . S
C186 N190 1.427 . S
C187 H177 0.929 . S
C187 C185 1.433 . S
C187 N190 1.384 . S
C188 H179 0.929 . S
C188 C180 1.378 . S
C188 C183 1.350 . S
C189 H176 0.929 . S
C189 C181 1.433 . S
C189 N191 1.384 . S
N190 C186 1.427 . S
N190 C187 1.384 . S
N191 C183 1.427 . S
N191 C189 1.384 . S
H192 C198 0.930 . S
H193 C202 0.930 . S
H194 C207 0.929 . S
H195 C205 0.929 . S
H196 C200 0.929 . S
H197 C206 0.929 . S
C198 H192 0.930 . S
C198 C199 1.367 . S
C198 C206 1.378 . S
C199 C198 1.367 . S
C199 C207 1.433 . S
C200 H196 0.929 . S
C200 C202 1.378 . S
C200 C204 1.350 . S
C201 C204 1.463 . S
C201 C206 1.350 . S
C201 N209 1.427 . S
C202 H193 0.930 . S
C202 C200 1.378 . S
C202 C203 1.367 . S
C203 C202 1.367 . S
C203 C205 1.433 . S
C204 C200 1.350 . S
C204 C201 1.463 . S
C204 N208 1.427 . S
C205 H195 0.929 . S
C205 C203 1.433 . S
C205 N208 1.384 . S
C206 H197 0.929 . S
C206 C198 1.378 . S
C206 C201 1.350 . S
C207 H194 0.929 . S
C207 C199 1.433 . S
C207 N209 1.384 . S
N208 C204 1.427 . S
N208 C205 1.384 . S
N209 C201 1.427 . S
N209 C207 1.384 . S
H210 C216 0.930 . S
H211 C220 0.930 . S
H212 C225 0.929 . S
H213 C223 0.929 . S
H214 C218 0.929 . S
H215 C224 0.929 . S
C216 H210 0.930 . S
C216 C217 1.367 . S
C216 C224 1.378 . S
C217 C216 1.367 . S
C217 C225 1.433 . S
C218 H214 0.929 . S
C218 C220 1.378 . S
C218 C222 1.350 . S
C219 C222 1.463 . S
C219 C224 1.350 . S
C219 N227 1.427 . S
C220 H211 0.930 . S
C220 C218 1.378 . S
C220 C221 1.367 . S
C221 C220 1.367 . S
C221 C223 1.433 . S
C222 C218 1.350 . S
C222 C219 1.463 . S
C222 N226 1.427 . S
C223 H213 0.929 . S
C223 C221 1.433 . S
C223 N226 1.384 . S
C224 H215 0.929 . S
C224 C216 1.378 . S
C224 C219 1.350 . S
C225 H212 0.929 . S
C225 C217 1.433 . S
C225 N227 1.384 . S
N226 C222 1.427 . S
N226 C223 1.384 . S
N227 C219 1.427 . S
N227 C225 1.384 . S
H228 C234 0.930 . S
H229 C238 0.930 . S
H230 C243 0.929 . S
H231 C241 0.929 . S
H232 C236 0.929 . S
H233 C242 0.929 . S
C234 H228 0.930 . S
C234 C235 1.367 . S
C234 C242 1.378 . S
C235 C234 1.367 . S
C235 C243 1.433 . S
C236 H232 0.929 . S
C236 C238 1.378 . S
C236 C240 1.350 . S
C237 C240 1.463 . S
C237 C242 1.350 . S
C237 N245 1.427 . S
C238 H229 0.930 . S
C238 C236 1.378 . S
C238 C239 1.367 . S
C239 C238 1.367 . S
C239 C241 1.433 . S
C240 C236 1.350 . S
C240 C237 1.463 . S
C240 N244 1.427 . S
C241 H231 0.929 . S
C241 C239 1.433 . S
C241 N244 1.384 . S
C242 H233 0.929 . S
C242 C234 1.378 . S
C242 C237 1.350 . S
C243 H230 0.929 . S
C243 C235 1.433 . S
C243 N245 1.384 . S
N244 C240 1.427 . S
N244 C241 1.384 . S
N245 C237 1.427 . S
N245 C243 1.384 . S
H246 C252 0.930 . S
H247 C256 0.930 . S
H248 C261 0.929 . S
H249 C259 0.929 . S
H250 C254 0.929 . S
H251 C260 0.929 . S
C252 H246 0.930 . S
C252 C253 1.367 . S
C252 C260 1.378 . S
C253 C252 1.367 . S
C253 C261 1.433 . S
C254 H250 0.929 . S
C254 C256 1.378 . S
C254 C258 1.350 . S
C255 C258 1.463 . S
C255 C260 1.350 . S
C255 N263 1.427 . S
C256 H247 0.930 . S
C256 C254 1.378 . S
C256 C257 1.367 . S
C257 C256 1.367 . S
C257 C259 1.433 . S
C258 C254 1.350 . S
C258 C255 1.463 . S
C258 N262 1.427 . S
C259 H249 0.929 . S
C259 C257 1.433 . S
C259 N262 1.384 . S
C260 H251 0.929 . S
C260 C252 1.378 . S
C260 C255 1.350 . S
C261 H248 0.929 . S
C261 C253 1.433 . S
C261 N263 1.384 . S
N262 C258 1.427 . S
N262 C259 1.384 . S
N263 C255 1.427 . S
N263 C261 1.384 . S
H264 C270 0.930 . S
H265 C274 0.930 . S
H266 C279 0.929 . S
H267 C277 0.929 . S
H268 C272 0.929 . S
H269 C278 0.929 . S
C270 H264 0.930 . S
C270 C271 1.367 . S
C270 C278 1.378 . S
C271 C270 1.367 . S
C271 C279 1.433 . S
C272 H268 0.929 . S
C272 C274 1.378 . S
C272 C276 1.350 . S
C273 C276 1.463 . S
C273 C278 1.350 . S
C273 N281 1.427 . S
C274 H265 0.930 . S
C274 C272 1.378 . S
C274 C275 1.367 . S
C275 C274 1.367 . S
C275 C277 1.433 . S
C276 C272 1.350 . S
C276 C273 1.463 . S
C276 N280 1.427 . S
C277 H267 0.929 . S
C277 C275 1.433 . S
C277 N280 1.384 . S
C278 H269 0.929 . S
C278 C270 1.378 . S
C278 C273 1.350 . S
C279 H266 0.929 . S
C279 C271 1.433 . S
C279 N281 1.384 . S
N280 C276 1.427 . S
N280 C277 1.384 . S
N281 C273 1.427 . S
N281 C279 1.384 . S
H282 C288 0.930 . S
H283 C292 0.930 . S
H284 C297 0.929 . S
H285 C295 0.929 . S
H286 C290 0.929 . S
H287 C296 0.929 . S
C288 H282 0.930 . S
C288 C289 1.367 . S
C288 C296 1.378 . S
C289 C288 1.367 . S
C289 C297 1.433 . S
C290 H286 0.929 . S
C290 C292 1.378 . S
C290 C294 1.350 . S
C291 C294 1.463 . S
C291 C296 1.350 . S
C291 N299 1.427 . S
C292 H283 0.930 . S
C292 C290 1.378 . S
C292 C293 1.367 . S
C293 C292 1.367 . S
C293 C295 1.433 . S
C294 C290 1.350 . S
C294 C291 1.463 . S
C294 N298 1.427 . S
C295 H285 0.929 . S
C295 C293 1.433 . S
C295 N298 1.384 . S
C296 H287 0.929 . S
C296 C288 1.378 . S
C296 C291 1.350 . S
C297 H284 0.929 . S
C297 C289 1.433 . S
C297 N299 1.384 . S
N298 C294 1.427 . S
N298 C295 1.384 . S
N299 C291 1.427 . S
N299 C297 1.384 . S
H300 C306 0.930 . S
H301 C310 0.930 . S
H302 C315 0.929 . S
H303 C313 0.929 . S
H304 C308 0.929 . S
H305 C314 0.929 . S
C306 H300 0.930 . S
C306 C307 1.367 . S
C306 C314 1.378 . S
C307 C306 1.367 . S
C307 C315 1.433 . S
C308 H304 0.929 . S
C308 C310 1.378 . S
C308 C312 1.350 . S
C309 C312 1.463 . S
C309 C314 1.350 . S
C309 N317 1.427 . S
C310 H301 0.930 . S
C310 C308 1.378 . S
C310 C311 1.367 . S
C311 C310 1.367 . S
C311 C313 1.433 . S
C312 C308 1.350 . S
C312 C309 1.463 . S
C312 N316 1.427 . S
C313 H303 0.929 . S
C313 C311 1.433 . S
C313 N316 1.384 . S
C314 H305 0.929 . S
C314 C306 1.378 . S
C314 C309 1.350 . S
C315 H302 0.929 . S
C315 C307 1.433 . S
C315 N317 1.384 . S
N316 C312 1.427 . S
N316 C313 1.384 . S
N317 C309 1.427 . S
N317 C315 1.384 . S
H318 C324 0.930 . S
H319 C328 0.930 . S
H320 C333 0.929 . S
H321 C331 0.929 . S
H322 C326 0.929 . S
H323 C332 0.929 . S
C324 H318 0.930 . S
C324 C325 1.367 . S
C324 C332 1.378 . S
C325 C324 1.367 . S
C325 C333 1.433 . S
C326 H322 0.929 . S
C326 C328 1.378 . S
C326 C330 1.350 . S
C327 C330 1.463 . S
C327 C332 1.350 . S
C327 N335 1.427 . S
C328 H319 0.930 . S
C328 C326 1.378 . S
C328 C329 1.367 . S
C329 C328 1.367 . S
C329 C331 1.433 . S
C330 C326 1.350 . S
C330 C327 1.463 . S
C330 N334 1.427 . S
C331 H321 0.929 . S
C331 C329 1.433 . S
C331 N334 1.384 . S
C332 H323 0.929 . S
C332 C324 1.378 . S
C332 C327 1.350 . S
C333 H320 0.929 . S
C333 C325 1.433 . S
C333 N335 1.384 . S
N334 C330 1.427 . S
N334 C331 1.384 . S
N335 C327 1.427 . S
N335 C333 1.384 . S
H336 C342 0.930 . S
H337 C346 0.930 . S
H338 C351 0.929 . S
H339 C349 0.929 . S
H340 C344 0.929 . S
H341 C350 0.929 . S
C342 H336 0.930 . S
C342 C343 1.367 . S
C342 C350 1.378 . S
C343 C342 1.367 . S
C343 C351 1.433 . S
C344 H340 0.929 . S
C344 C346 1.378 . S
C344 C348 1.350 . S
C345 C348 1.463 . S
C345 C350 1.350 . S
C345 N353 1.427 . S
C346 H337 0.930 . S
C346 C344 1.378 . S
C346 C347 1.367 . S
C347 C346 1.367 . S
C347 C349 1.433 . S
C348 C344 1.350 . S
C348 C345 1.463 . S
C348 N352 1.427 . S
C349 H339 0.929 . S
C349 C347 1.433 . S
C349 N352 1.384 . S
C350 H341 0.929 . S
C350 C342 1.378 . S
C350 C345 1.350 . S
C351 H338 0.929 . S
C351 C343 1.433 . S
C351 N353 1.384 . S
N352 C348 1.427 . S
N352 C349 1.384 . S
N353 C345 1.427 . S
N353 C351 1.384 . S
H354 C360 0.930 . S
H355 C364 0.930 . S
H356 C369 0.929 . S
H357 C367 0.929 . S
H358 C362 0.929 . S
H359 C368 0.929 . S
C360 H354 0.930 . S
C360 C361 1.367 . S
C360 C368 1.378 . S
C361 C360 1.367 . S
C361 C369 1.433 . S
C362 H358 0.929 . S
C362 C364 1.378 . S
C362 C366 1.350 . S
C363 C366 1.463 . S
C363 C368 1.350 . S
C363 N371 1.427 . S
C364 H355 0.930 . S
C364 C362 1.378 . S
C364 C365 1.367 . S
C365 C364 1.367 . S
C365 C367 1.433 . S
C366 C362 1.350 . S
C366 C363 1.463 . S
C366 N370 1.427 . S
C367 H357 0.929 . S
C367 C365 1.433 . S
C367 N370 1.384 . S
C368 H359 0.929 . S
C368 C360 1.378 . S
C368 C363 1.350 . S
C369 H356 0.929 . S
C369 C361 1.433 . S
C369 N371 1.384 . S
N370 C366 1.427 . S
N370 C367 1.384 . S
N371 C363 1.427 . S
N371 C369 1.384 . S
H372 C378 0.930 . S
H373 C382 0.930 . S
H374 C387 0.929 . S
H375 C385 0.929 . S
H376 C380 0.929 . S
H377 C386 0.929 . S
C378 H372 0.930 . S
C378 C379 1.367 . S
C378 C386 1.378 . S
C379 C378 1.367 . S
C379 C387 1.433 . S
C380 H376 0.929 . S
C380 C382 1.378 . S
C380 C384 1.350 . S
C381 C384 1.463 . S
C381 C386 1.350 . S
C381 N389 1.427 . S
C382 H373 0.930 . S
C382 C380 1.378 . S
C382 C383 1.367 . S
C383 C382 1.367 . S
C383 C385 1.433 . S
C384 C380 1.350 . S
C384 C381 1.463 . S
C384 N388 1.427 . S
C385 H375 0.929 . S
C385 C383 1.433 . S
C385 N388 1.384 . S
C386 H377 0.929 . S
C386 C378 1.378 . S
C386 C381 1.350 . S
C387 H374 0.929 . S
C387 C379 1.433 . S
C387 N389 1.384 . S
N388 C384 1.427 . S
N388 C385 1.384 . S
N389 C381 1.427 . S
N389 C387 1.384 . S
H390 C396 0.930 . S
H391 C400 0.930 1_655 S
H392 C405 0.929 1_655 S
H393 C403 0.929 . S
H394 C398 0.929 1_655 S
H395 C404 0.929 . S
C396 H390 0.930 . S
C396 C397 1.367 . S
C396 C404 1.378 . S
C397 C396 1.367 . S
C397 C405 1.433 . S
C398 H394 0.929 1_455 S
C398 C400 1.378 . S
C398 C402 1.350 . S
C399 C402 1.463 1_554 S
C399 C404 1.350 . S
C399 N407 1.427 . S
C400 H391 0.930 1_455 S
C400 C398 1.378 . S
C400 C401 1.367 . S
C401 C400 1.367 . S
C401 C403 1.433 . S
C402 C398 1.350 . S
C402 C399 1.463 1_556 S
C402 N406 1.427 . S
C403 H393 0.929 . S
C403 C401 1.433 . S
C403 N406 1.384 . S
C404 H395 0.929 . S
C404 C396 1.378 . S
C404 C399 1.350 . S
C405 H392 0.929 1_455 S
C405 C397 1.433 . S
C405 N407 1.384 . S
N406 C402 1.427 . S
N406 C403 1.384 . S
N407 C399 1.427 . S
N407 C405 1.384 . S
H408 C414 0.930 1_565 S
H409 C418 0.930 . S
H410 C423 0.929 . S
H411 C421 0.941 . S
H412 C416 0.929 . S
H413 C422 0.929 1_565 S
C414 H408 0.930 1_545 S
C414 C415 1.367 . S
C414 C422 1.378 . S
C415 C414 1.367 . S
C415 C423 1.433 . S
C416 H412 0.929 . S
C416 C418 1.378 . S
C416 C420 1.350 . S
C417 C420 1.463 . S
C417 C422 1.350 . S
C417 N425 1.427 . S
C418 H409 0.930 . S
C418 C416 1.378 . S
C418 C419 1.367 . S
C419 C418 1.367 . S
C419 C421 1.433 . S
C420 C416 1.350 . S
C420 C417 1.463 . S
C420 N424 1.427 . S
C421 H411 0.941 . S
C421 C419 1.433 . S
C421 N424 1.384 . S
C422 H413 0.929 1_545 S
C422 C414 1.378 . S
C422 C417 1.350 . S
C423 H410 0.929 . S
C423 C415 1.433 . S
C423 N425 1.384 . S
N424 C420 1.427 . S
N424 C421 1.384 . S
N425 C417 1.427 . S
N425 C423 1.384 . S
H426 C432 0.930 . S
H427 C436 0.930 . S
H428 C441 0.929 . S
H429 C439 0.929 . S
H430 C434 0.929 . S
H431 C440 0.929 . S
C432 H426 0.930 . S
C432 C433 1.367 . S
C432 C440 1.378 . S
C433 C432 1.367 . S
C433 C441 1.433 . S
C434 H430 0.929 . S
C434 C436 1.378 . S
C434 C438 1.350 . S
C435 C438 1.463 . S
C435 C440 1.350 . S
C435 N443 1.427 . S
C436 H427 0.930 . S
C436 C434 1.378 . S
C436 C437 1.367 . S
C437 C436 1.367 . S
C437 C439 1.433 . S
C438 C434 1.350 . S
C438 C435 1.463 . S
C438 N442 1.427 . S
C439 H429 0.929 . S
C439 C437 1.433 . S
C439 N442 1.384 . S
C440 H431 0.929 . S
C440 C432 1.378 . S
C440 C435 1.350 . S
C441 H428 0.929 . S
C441 C433 1.433 . S
C441 N443 1.384 . S
N442 C438 1.427 . S
N442 C439 1.384 . S
N443 C435 1.427 . S
N443 C441 1.384 . S
H444 C450 0.930 . S
H445 C454 0.930 . S
H446 C459 0.929 . S
H447 C457 0.929 . S
H448 C452 0.929 . S
H449 C458 0.929 . S
C450 H444 0.930 . S
C450 C451 1.367 . S
C450 C458 1.378 . S
C451 C450 1.367 . S
C451 C459 1.433 . S
C452 H448 0.929 . S
C452 C454 1.378 . S
C452 C456 1.350 . S
C453 C456 1.463 . S
C453 C458 1.350 . S
C453 N461 1.427 . S
C454 H445 0.930 . S
C454 C452 1.378 . S
C454 C455 1.367 . S
C455 C454 1.367 . S
C455 C457 1.433 . S
C456 C452 1.350 . S
C456 C453 1.463 . S
C456 N460 1.427 . S
C457 H447 0.929 . S
C457 C455 1.433 . S
C457 N460 1.384 . S
C458 H449 0.929 . S
C458 C450 1.378 . S
C458 C453 1.350 . S
C459 H446 0.929 . S
C459 C451 1.433 . S
C459 N461 1.384 . S
N460 C456 1.427 . S
N460 C457 1.384 . S
N461 C453 1.427 . S
N461 C459 1.384 . S
H462 C468 0.930 . S
H463 C472 0.930 . S
H464 C477 0.929 . S
H465 C475 0.929 . S
H466 C470 0.929 1_556 S
H467 C476 0.929 . S
C468 H462 0.930 . S
C468 C469 1.367 . S
C468 C476 1.378 . S
C469 C468 1.367 . S
C469 C477 1.433 . S
C470 H466 0.929 1_554 S
C470 C472 1.378 . S
C470 C474 1.350 . S
C471 C474 1.463 1_556 S
C471 C476 1.350 . S
C471 N479 1.427 . S
C472 H463 0.930 . S
C472 C470 1.378 . S
C472 C473 1.367 . S
C473 C472 1.367 . S
C473 C475 1.433 . S
C474 C470 1.350 . S
C474 C471 1.463 1_554 S
C474 N478 1.427 . S
C475 H465 0.929 . S
C475 C473 1.433 . S
C475 N478 1.384 . S
C476 H467 0.929 . S
C476 C468 1.378 . S
C476 C471 1.350 . S
C477 H464 0.929 . S
C477 C469 1.433 . S
C477 N479 1.384 . S
N478 C474 1.427 . S
N478 C475 1.384 . S
N479 C471 1.427 . S
N479 C477 1.384 . S
H480 C486 0.928 1_655 S
H481 C490 0.930 . S
H482 C495 0.929 . S
H483 C493 0.926 1_655 S
H484 C488 0.929 . S
H485 C494 0.929 1_655 S
C486 H480 0.928 1_455 S
C486 C487 1.367 . S
C486 C494 1.378 . S
C487 C486 1.367 . S
C487 C495 1.433 . S
C488 H484 0.929 . S
C488 C490 1.378 . S
C488 C492 1.350 . S
C489 C492 1.463 . S
C489 C494 1.350 . S
C489 N497 1.427 . S
C490 H481 0.930 . S
C490 C488 1.378 . S
C490 C491 1.367 . S
C491 C490 1.367 . S
C491 C493 1.436 . S
C492 C488 1.350 . S
C492 C489 1.463 . S
C492 N496 1.427 . S
C493 H483 0.926 1_455 S
C493 C491 1.436 . S
C493 N496 1.384 . S
C494 H485 0.929 1_455 S
C494 C486 1.378 . S
C494 C489 1.350 . S
C495 H482 0.929 . S
C495 C487 1.433 . S
C495 N497 1.384 . S
N496 C492 1.427 . S
N496 C493 1.384 . S
N497 C489 1.427 . S
N497 C495 1.384 . S
C181 C8 2.105 . S
C185 C166 2.128 . S
C199 C26 1.437 . S
C203 C128 1.408 . S
C217 C48 1.597 . S
C221 C147 1.615 . S
C235 C19 1.722 . S
C239 C161 1.748 . S
C257 C123 1.360 . S
C253 C36 1.350 . S
C275 C142 1.552 . S
C271 C59 1.508 . S
C289 C28 1.622 . S
C293 C90 1.628 . S
C307 C46 1.101 . S
C311 C104 1.097 1_655 S
C325 C16 1.362 . S
C329 C66 1.348 1_565 S
C347 C85 1.538 . S
C343 C39 1.514 . S
C365 C109 1.079 . S
C361 C56 1.096 . S
C379 C6 1.453 . S
C383 C71 1.415 . S
C401 C100 1.489 . S
C397 C9 1.497 . S
C415 C21 1.563 . S
C419 C62 1.575 . S
C433 C49 1.560 . S
C437 C81 1.534 . S
C455 C138 1.532 . S
C451 C29 1.553 . S
C473 C157 1.647 . S
C469 C41 1.614 . S
C487 C1 1.536 . S
C491 C119 1.532 . S
