# Generated by pormake.
# Topology pyr, (3,6)-cn, num edge types: 1
# Building blocks:
#     Node 0, Type 0, BuildingBlock: KAKCAD_clean_linker_0, # of connection points: 3
#     Node 1, Type 0, BuildingBlock: KAKCAD_clean_linker_0, # of connection points: 3
#     Node 2, Type 0, BuildingBlock: KAKCAD_clean_linker_0, # of connection points: 3
#     Node 3, Type 0, BuildingBlock: KAKCAD_clean_linker_0, # of connection points: 3
#     Node 4, Type 0, BuildingBlock: KAKCAD_clean_linker_0, # of connection points: 3
#     Node 5, Type 0, BuildingBlock: KAKCAD_clean_linker_0, # of connection points: 3
#     Node 6, Type 0, BuildingBlock: KAKCAD_clean_linker_0, # of connection points: 3
#     Node 7, Type 0, BuildingBlock: KAKCAD_clean_linker_0, # of connection points: 3
#     Node 8, Type 1, BuildingBlock: BETFAJ_clean_sbu_0, # of connection points: 6
#     Node 9, Type 1, BuildingBlock: BETFAJ_clean_sbu_0, # of connection points: 6
#     Node 10, Type 1, BuildingBlock: BETFAJ_clean_sbu_0, # of connection points: 6
#     Node 11, Type 1, BuildingBlock: BETFAJ_clean_sbu_0, # of connection points: 6
#     Edge 12, Type (0, 1), None
#     Edge 13, Type (0, 1), None
#     Edge 14, Type (0, 1), None
#     Edge 15, Type (0, 1), None
#     Edge 16, Type (0, 1), None
#     Edge 17, Type (0, 1), None
#     Edge 18, Type (0, 1), None
#     Edge 19, Type (0, 1), None
#     Edge 20, Type (0, 1), None
#     Edge 21, Type (0, 1), None
#     Edge 22, Type (0, 1), None
#     Edge 23, Type (0, 1), None
#     Edge 24, Type (0, 1), None
#     Edge 25, Type (0, 1), None
#     Edge 26, Type (0, 1), None
#     Edge 27, Type (0, 1), None
#     Edge 28, Type (0, 1), None
#     Edge 29, Type (0, 1), None
#     Edge 30, Type (0, 1), None
#     Edge 31, Type (0, 1), None
#     Edge 32, Type (0, 1), None
#     Edge 33, Type (0, 1), None
#     Edge 34, Type (0, 1), None
#     Edge 35, Type (0, 1), None
# Relax obj value: 0.223
# Max RMSD: 0.155
# Mean RMSD: 0.076
data_MOF--net-pyr--node1-BETFAJ_clean_sbu_0--node2-KAKCAD_clean_linker_0--edge1-none
_symmetry_space_group_name_H-M    P1
_symmetry_Int_Tables_number       1
_symmetry_cell_setting            triclinic
loop_
_symmetry_equiv_pos_as_xyz
'x, y, z'
_cell_length_a     25.835685
_cell_length_b     26.888118
_cell_length_c     24.087077
_cell_angle_alpha  89.81384
_cell_angle_beta   87.642151
_cell_angle_gamma 104.18683
loop_
_atom_site_label
_atom_site_type_symbol
_atom_site_fract_x
_atom_site_fract_y
_atom_site_fract_z
_atom_type_partial_charge
C0 C 0.36059 0.34111 0.49301 0.0
C1 C 0.35438 0.28786 0.4896 0.0
C2 C 0.40443 0.37428 0.46534 0.0
C3 C 0.43882 0.35369 0.43013 0.0
C4 C 0.44103 0.30273 0.44177 0.0
C5 C 0.3984 0.26975 0.4708 0.0
C6 C 0.45083 0.37358 0.37119 0.0
C7 C 0.41615 0.40046 0.34792 0.0
C8 C 0.40219 0.3939 0.29224 0.0
C9 C 0.42865 0.36534 0.25759 0.0
C10 C 0.4675 0.34254 0.27857 0.0
C11 C 0.48112 0.3501 0.33427 0.0
C12 C 0.48163 0.29933 0.24841 0.0
C13 C 0.44017 0.25914 0.23076 0.0
C14 C 0.53459 0.29459 0.24253 0.0
C15 C 0.54574 0.2507 0.21824 0.0
C16 C 0.50392 0.21043 0.20084 0.0
C17 C 0.35245 0.40701 0.27429 0.0
C18 C 0.3066 0.39697 0.31035 0.0
C19 C 0.34881 0.42604 0.22053 0.0
C20 C 0.30051 0.43471 0.20336 0.0
C21 C 0.25487 0.42461 0.23963 0.0
C22 C 0.25867 0.40596 0.29338 0.0
C23 C 0.45109 0.2153 0.20759 0.0
H24 H 0.32864 0.35676 0.51017 0.0
H25 H 0.40532 0.41471 0.46357 0.0
H26 H 0.46974 0.28523 0.42092 0.0
H27 H 0.39628 0.22899 0.47115 0.0
H28 H 0.39395 0.42107 0.37424 0.0
H29 H 0.50949 0.3306 0.35024 0.0
H30 H 0.41564 0.35677 0.21571 0.0
H31 H 0.39883 0.26097 0.23622 0.0
H32 H 0.56717 0.32473 0.25671 0.0
H33 H 0.58689 0.24821 0.21329 0.0
H34 H 0.30708 0.38055 0.35138 0.0
H35 H 0.38324 0.43405 0.19173 0.0
H36 H 0.41777 0.18539 0.19443 0.0
H37 H 0.22405 0.39678 0.32192 0.0
H38 H 0.29888 0.44946 0.16174 0.0
C39 C 0.15809 0.88316 0.97715 0.0
C40 C 0.21191 0.88395 0.98552 0.0
C41 C 0.13279 0.85905 0.93071 0.0
C42 C 0.16086 0.83511 0.89231 0.0
C43 C 0.21206 0.83018 0.90501 0.0
C44 C 0.23719 0.85416 0.95116 0.0
C45 C 0.14273 0.82483 0.83484 0.0
C46 C 0.12676 0.86339 0.80534 0.0
C47 C 0.12479 0.86221 0.74709 0.0
C48 C 0.13718 0.82052 0.71887 0.0
C49 C 0.15739 0.7842 0.74724 0.0
C50 C 0.15546 0.78415 0.80553 0.0
C51 C 0.19587 0.75899 0.71809 0.0
C52 C 0.20395 0.71244 0.7383 0.0
C53 C 0.23386 0.78797 0.67932 0.0
C54 C 0.28151 0.77418 0.66659 0.0
C55 C 0.29232 0.73124 0.69238 0.0
C56 C 0.12014 0.90864 0.71534 0.0
C57 C 0.08912 0.94143 0.73625 0.0
C58 C 0.15013 0.92251 0.66506 0.0
C59 C 0.14705 0.96601 0.63524 0.0
C60 C 0.11524 0.99786 0.65548 0.0
C61 C 0.08749 0.98615 0.70702 0.0
C62 C 0.25201 0.69892 0.72595 0.0
H63 H 0.13708 0.90478 1.0038 0.0
H64 H 0.09292 0.86259 0.92255 0.0
H65 H 0.23538 0.81257 0.87631 0.0
H66 H 0.27865 0.85398 0.9559 0.0
H67 H 0.12175 0.89714 0.82719 0.0
H68 H 0.1712 0.75655 0.82802 0.0
H69 H 0.13678 0.81915 0.67396 0.0
H70 H 0.17507 0.68865 0.76728 0.0
H71 H 0.22967 0.82429 0.66303 0.0
H72 H 0.31176 0.79974 0.64041 0.0
H73 H 0.06574 0.93245 0.77493 0.0
H74 H 0.17675 0.90025 0.64855 0.0
H75 H 0.25888 0.66475 0.74516 0.0
H76 H 0.06356 1.01079 0.72405 0.0
H77 H 0.16963 0.9746 0.596 0.0
C78 C 0.84416 0.5393 1.00024 0.0
C79 C 0.87629 0.5089 1.02177 0.0
C80 C 0.79716 0.51685 0.97255 0.0
C81 C 0.78098 0.46327 0.96501 0.0
C82 C 0.81388 0.43328 0.98596 0.0
C83 C 0.86027 0.45557 1.01409 0.0
C84 C 0.7299 0.43814 0.93675 0.0
C85 C 0.71045 0.46254 0.8926 0.0
C86 C 0.66327 0.43813 0.86563 0.0
C87 C 0.63516 0.38831 0.8843 0.0
C88 C 0.65326 0.3632 0.92874 0.0
C89 C 0.70032 0.38877 0.95428 0.0
C90 C 0.62262 0.31113 0.95079 0.0
C91 C 0.56707 0.30035 0.96174 0.0
C92 C 0.64915 0.27294 0.96496 0.0
C93 C 0.62111 0.22593 0.98992 0.0
C94 C 0.56583 0.21605 1.00236 0.0
C95 C 0.64347 0.46473 0.81809 0.0
C96 C 0.64081 0.51643 0.82173 0.0
C97 C 0.62697 0.43883 0.76854 0.0
C98 C 0.60867 0.46373 0.72429 0.0
C99 C 0.60498 0.5151 0.72842 0.0
C100 C 0.62133 0.54094 0.77803 0.0
C101 C 0.5393 0.25388 0.98756 0.0
H102 H 0.85518 0.58056 1.00495 0.0
H103 H 0.77315 0.54158 0.95781 0.0
H104 H 0.80432 0.3922 0.98008 0.0
H105 H 0.88414 0.43078 1.02908 0.0
H106 H 0.73284 0.50008 0.87797 0.0
H107 H 0.71299 0.37043 0.98958 0.0
H108 H 0.59887 0.36918 0.86447 0.0
H109 H 0.54522 0.32871 0.9522 0.0
H110 H 0.69189 0.27962 0.95712 0.0
H111 H 0.64296 0.19796 1.00089 0.0
H112 H 0.65282 0.5378 0.85904 0.0
H113 H 0.6287 0.39924 0.7637 0.0
H114 H 0.49676 0.24781 0.9965 0.0
H115 H 0.61919 0.5804 0.78317 0.0
H116 H 0.59634 0.44224 0.68713 0.0
C117 C 0.90242 0.62094 0.24057 0.0
C118 C 0.95675 0.63293 0.22327 0.0
C119 C 0.88309 0.64875 0.28284 0.0
C120 C 0.91756 0.6889 0.31126 0.0
C121 C 0.97214 0.70118 0.29305 0.0
C122 C 0.99118 0.67414 0.24953 0.0
C123 C 0.89673 0.7162 0.36008 0.0
C124 C 0.8495 0.69113 0.39157 0.0
C125 C 0.82955 0.71475 0.43726 0.0
C126 C 0.85769 0.7642 0.45196 0.0
C127 C 0.90541 0.7903 0.42365 0.0
C128 C 0.92406 0.76646 0.37695 0.0
C129 C 0.93526 0.84127 0.44646 0.0
C130 C 0.94019 0.84633 0.50432 0.0
C131 C 0.95456 0.88584 0.41314 0.0
C132 C 0.97578 0.9342 0.43756 0.0
C133 C 0.97808 0.93914 0.49586 0.0
C134 C 0.77972 0.68853 0.4711 0.0
C135 C 0.73284 0.66174 0.4459 0.0
C136 C 0.77767 0.69325 0.52943 0.0
C137 C 0.73007 0.67411 0.56116 0.0
C138 C 0.68269 0.64947 0.53581 0.0
C139 C 0.68494 0.64258 0.47782 0.0
C140 C 0.96081 0.89403 0.52842 0.0
H141 H 0.87446 0.5899 0.22108 0.0
H142 H 0.84061 0.63832 0.29284 0.0
H143 H 1.00097 0.73089 0.31319 0.0
H144 H 0.0334 0.68448 0.23772 0.0
H145 H 0.82872 0.65227 0.38214 0.0
H146 H 0.96014 0.78702 0.35457 0.0
H147 H 0.84197 0.78303 0.48613 0.0
H148 H 0.92691 0.8131 0.53157 0.0
H149 H 0.95141 0.88371 0.36849 0.0
H150 H 0.98893 0.96782 0.41091 0.0
H151 H 0.7326 0.6573 0.40124 0.0
H152 H 0.81296 0.71257 0.55075 0.0
H153 H 0.96258 0.8954 0.57326 0.0
H154 H 0.64933 0.62347 0.45689 0.0
H155 H 0.73019 0.67969 0.60568 0.0
C156 C 0.70638 0.80821 0.71152 0.0
C157 C 0.71964 0.86199 0.70707 0.0
C158 C 0.66341 0.78304 0.74668 0.0
C159 C 0.63576 0.81193 0.78009 0.0
C160 C 0.64153 0.86385 0.76516 0.0
C161 C 0.68324 0.88865 0.7288 0.0
C162 C 0.61902 0.79544 0.83896 0.0
C163 C 0.6509 0.76919 0.86789 0.0
C164 C 0.656 0.77408 0.92546 0.0
C165 C 0.62618 0.80324 0.955 0.0
C166 C 0.59193 0.82747 0.92736 0.0
C167 C 0.58572 0.82035 0.87012 0.0
C168 C 0.57673 0.87193 0.9534 0.0
C169 C 0.52392 0.87734 0.95506 0.0
C170 C 0.61754 0.91233 0.97167 0.0
C171 C 0.60613 0.95711 0.99153 0.0
C172 C 0.55337 0.96263 0.99447 0.0
C173 C 0.70194 0.75957 0.95062 0.0
C174 C 0.7132 0.71203 0.93894 0.0
C175 C 0.73955 0.79651 0.97878 0.0
C176 C 0.78846 0.78718 0.99232 0.0
C177 C 0.80093 0.74058 0.97826 0.0
C178 C 0.76202 0.70254 0.95281 0.0
C179 C 0.51217 0.92216 0.97631 0.0
H180 H 0.73279 0.78643 0.69331 0.0
H181 H 0.65757 0.74224 0.75402 0.0
H182 H 0.62013 0.88786 0.78763 0.0
H183 H 0.69159 0.93005 0.72498 0.0
H184 H 0.67842 0.75137 0.84517 0.0
H185 H 0.56116 0.84111 0.84891 0.0
H186 H 0.63298 0.81071 0.99865 0.0
H187 H 0.49197 0.84695 0.94018 0.0
H188 H 0.65879 0.90973 0.96945 0.0
H189 H 0.63894 0.98712 1.00554 0.0
H190 H 0.68496 0.68288 0.91723 0.0
H191 H 0.73265 0.83395 0.98727 0.0
H192 H 0.47109 0.92518 0.97841 0.0
H193 H 0.7697 0.66576 0.94249 0.0
H194 H 0.81753 0.81762 1.01131 0.0
C195 C 0.82687 0.31511 0.23978 0.0
C196 C 0.85068 0.28458 0.20487 0.0
C197 C 0.85274 0.33777 0.28613 0.0
C198 C 0.90334 0.33087 0.29849 0.0
C199 C 0.93021 0.30638 0.25944 0.0
C200 C 0.90408 0.28347 0.21284 0.0
C201 C 0.9216 0.33956 0.35619 0.0
C202 C 0.93732 0.30009 0.38444 0.0
C203 C 0.93816 0.29927 0.44278 0.0
C204 C 0.92446 0.33956 0.47248 0.0
C205 C 0.90507 0.37693 0.44514 0.0
C206 C 0.9088 0.37946 0.38695 0.0
C207 C 0.86492 0.40003 0.47412 0.0
C208 C 0.82405 0.36795 0.50751 0.0
C209 C 0.85892 0.44858 0.4581 0.0
C210 C 0.8108 0.46222 0.46996 0.0
C211 C 0.76805 0.4275 0.49802 0.0
C212 C 0.94305 0.25213 0.47289 0.0
C213 C 0.97655 0.22159 0.45217 0.0
C214 C 0.91145 0.23571 0.52168 0.0
C215 C 0.91549 0.19206 0.55059 0.0
C216 C 0.94999 0.16262 0.53084 0.0
C217 C 0.97938 0.17676 0.48054 0.0
C218 C 0.7761 0.3815 0.51913 0.0
H219 H 0.78578 0.31676 0.23537 0.0
H220 H 0.83017 0.35578 0.31519 0.0
H221 H 0.96964 0.30139 0.2672 0.0
H222 H 0.924 0.26125 0.18576 0.0
H223 H 0.94296 0.2671 0.36153 0.0
H224 H 0.8938 0.40818 0.36552 0.0
H225 H 0.92308 0.33895 0.51749 0.0
H226 H 0.82678 0.33006 0.52031 0.0
H227 H 0.88976 0.47424 0.43267 0.0
H228 H 0.80573 0.49822 0.45358 0.0
H229 H 1.00109 0.23259 0.41449 0.0
H230 H 0.88302 0.25624 0.53776 0.0
H231 H 0.74415 0.35459 0.54195 0.0
H232 H 1.00556 0.15406 0.46399 0.0
H233 H 0.89165 0.18154 0.58884 0.0
C234 C 0.19893 0.6371 0.21449 0.0
C235 C 0.18853 0.65477 0.16202 0.0
C236 C 0.2453 0.66111 0.24217 0.0
C237 C 0.28396 0.70277 0.21763 0.0
C238 C 0.27396 0.71882 0.16384 0.0
C239 C 0.22671 0.69596 0.13715 0.0
C240 C 0.33354 0.72992 0.24789 0.0
C241 C 0.35515 0.70494 0.29013 0.0
C242 C 0.40082 0.73044 0.3188 0.0
C243 C 0.42648 0.78161 0.3026 0.0
C244 C 0.40666 0.80748 0.26004 0.0
C245 C 0.35965 0.78156 0.23452 0.0
C246 C 0.4362 0.86046 0.23935 0.0
C247 C 0.40895 0.89841 0.22627 0.0
C248 C 0.49177 0.87221 0.22818 0.0
C249 C 0.51886 0.91928 0.20324 0.0
C250 C 0.49166 0.95684 0.18941 0.0
C251 C 0.4216 0.70356 0.36553 0.0
C252 C 0.42533 0.65218 0.36101 0.0
C253 C 0.43743 0.72881 0.4156 0.0
C254 C 0.4559 0.70365 0.45948 0.0
C255 C 0.46017 0.6525 0.45471 0.0
C256 C 0.44474 0.62732 0.40451 0.0
C257 C 0.43634 0.94605 0.20206 0.0
H258 H 0.17019 0.60563 0.23516 0.0
H259 H 0.24978 0.64738 0.2835 0.0
H260 H 0.30263 0.74904 0.1415 0.0
H261 H 0.22039 0.7102 0.09649 0.0
H262 H 0.33648 0.66544 0.30124 0.0
H263 H 0.34398 0.8021 0.20327 0.0
H264 H 0.46228 0.80127 0.32291 0.0
H265 H 0.36619 0.89107 0.23431 0.0
H266 H 0.51422 0.84411 0.23676 0.0
H267 H 0.56143 0.92597 0.19411 0.0
H268 H 0.41403 0.63126 0.32327 0.0
H269 H 0.43491 0.76811 0.42124 0.0
H270 H 0.41397 0.97379 0.1918 0.0
H271 H 0.44745 0.58809 0.39878 0.0
H272 H 0.4678 0.72478 0.4969 0.0
C273 C 0.10393 0.26747 0.65575 0.0
C274 C 0.08692 0.22244 0.68848 0.0
C275 C 0.12425 0.31533 0.67969 0.0
C276 C 0.12906 0.32065 0.73756 0.0
C277 C 0.10999 0.27614 0.77101 0.0
C278 C 0.08913 0.22762 0.74677 0.0
C279 C 0.15852 0.37185 0.76026 0.0
C280 C 0.20611 0.39825 0.73192 0.0
C281 C 0.23391 0.44784 0.7466 0.0
C282 C 0.21376 0.47127 0.79228 0.0
C283 C 0.16673 0.4459 0.82386 0.0
C284 C 0.13968 0.39554 0.80701 0.0
C285 C 0.14591 0.47307 0.87276 0.0
C286 C 0.18044 0.51314 0.90121 0.0
C287 C 0.09133 0.46084 0.89098 0.0
C288 C 0.07234 0.48798 0.93447 0.0
C289 C 0.10685 0.5292 0.96067 0.0
C290 C 0.2836 0.47451 0.71279 0.0
C291 C 0.28583 0.46966 0.65449 0.0
C292 C 0.33011 0.50217 0.73799 0.0
C293 C 0.37785 0.52218 0.7061 0.0
C294 C 0.3803 0.51528 0.64812 0.0
C295 C 0.33327 0.48963 0.62279 0.0
C296 C 0.16118 0.54103 0.94342 0.0
H297 H 0.10215 0.26592 0.61092 0.0
H298 H 0.13734 0.34849 0.65231 0.0
H299 H 0.11305 0.27844 0.81567 0.0
H300 H 0.07618 0.19408 0.77355 0.0
H301 H 0.22201 0.37957 0.69774 0.0
H302 H 0.10371 0.37482 0.82945 0.0
H303 H 0.23421 0.51024 0.80167 0.0
H304 H 0.22293 0.52347 0.89124 0.0
H305 H 0.0625 0.43113 0.87084 0.0
H306 H 0.03012 0.47775 0.94628 0.0
H307 H 0.25082 0.44969 0.63314 0.0
H308 H 0.33023 0.50672 0.78264 0.0
H309 H 0.18921 0.57204 0.96289 0.0
H310 H 0.3333 0.48395 0.57829 0.0
H311 H 0.41321 0.54196 0.72704 0.0
Sm312 Sm 0.07279 0.10123 0.54611 0.0
Sm313 Sm 0.99376 1.05933 0.63927 0.0
C314 C 0.14058 0.16065 0.47446 0.0
C315 C 0.19466 0.19377 0.47963 0.0
C316 C 0.20779 0.2268 0.52498 0.0
C317 C 0.2601 0.25657 0.52973 0.0
C318 C 0.30014 0.25294 0.48983 0.0
C319 C 0.28666 0.21938 0.44497 0.0
C320 C 0.23455 0.19022 0.43996 0.0
C321 C 0.10841 1.04023 0.6199 0.0
C322 C 0.06855 0.17154 0.65997 0.0
C323 C 0.92809 0.99706 0.71024 0.0
C324 C 0.87647 0.96012 0.70348 0.0
C325 C 0.8658 0.91236 0.73059 0.0
C326 C 0.81594 0.87795 0.7269 0.0
C327 C 0.77578 0.89096 0.69626 0.0
C328 C 0.78779 0.93751 0.66621 0.0
C329 C 0.83793 0.97169 0.66945 0.0
C330 C 0.95792 0.1205 0.56609 0.0
C331 C 0.99687 0.98982 0.52463 0.0
O332 O 0.1014 0.17523 0.50022 0.0
O333 O 0.13656 0.11144 0.4794 0.0
O334 O 0.08262 1.07284 0.63329 0.0
O335 O 0.11999 1.04233 0.5671 0.0
O336 O 0.07863 0.17025 0.60572 0.0
O337 O 0.04258 0.12923 0.68714 0.0
O338 O 0.96929 0.98515 0.68565 0.0
O339 O 0.92879 1.04564 0.70474 0.0
O340 O 0.9838 0.08803 0.55217 0.0
O341 O 0.9459 0.11771 0.61887 0.0
O342 O 0.98701 0.99084 0.57889 0.0
O343 O 1.02298 1.03221 0.49775 0.0
H344 H 0.17774 0.22971 0.55664 0.0
H345 H 0.26918 0.28244 0.56433 0.0
H346 H 0.31612 0.21679 0.41249 0.0
H347 H 0.22534 0.1649 0.40488 0.0
H348 H 0.89539 0.90239 0.75619 0.0
H349 H 0.80763 0.84279 0.75137 0.0
H350 H 0.75755 0.94852 0.64249 0.0
H351 H 0.84587 1.00787 0.64687 0.0
Sm352 Sm 0.5839 0.09505 0.10925 0.0
Sm353 Sm 0.47268 0.07878 1.08332 0.0
C354 C 0.68779 0.12165 0.1254 0.0
C355 C 0.73303 0.16481 0.13538 0.0
C356 C 0.77907 0.15446 0.15616 0.0
C357 C 0.82016 0.19436 0.17363 0.0
C358 C 0.8158 0.24543 0.17063 0.0
C359 C 0.77138 0.25589 0.14513 0.0
C360 C 0.72997 0.2157 0.12795 0.0
C361 C 0.52154 1.00508 0.15934 0.0
C362 C 0.51412 0.16489 0.17209 0.0
C363 C 0.36901 1.05128 1.06628 0.0
C364 C 0.32508 1.00698 1.05602 0.0
C365 C 0.33012 0.95671 1.06358 0.0
C366 C 0.2902 0.91541 1.04592 0.0
C367 C 0.24533 0.92413 1.01981 0.0
C368 C 0.23894 0.97454 1.01657 0.0
C369 C 0.27855 1.01555 1.03454 0.0
C370 C 0.53549 0.16831 1.03293 0.0
C371 C 0.5425 1.0089 1.02088 0.0
O372 O 0.66775 0.11926 1.07633 0.0
O373 O 0.65149 0.10879 0.16581 0.0
O374 O 0.50792 1.04727 0.15641 0.0
O375 O 0.56932 1.01064 0.13799 0.0
O376 O 0.56231 0.16474 0.15204 0.0
O377 O 0.47286 0.12768 0.16017 0.0
O378 O 0.38864 1.05429 0.11559 0.0
O379 O 0.40558 1.06471 1.0262 0.0
O380 O 0.54861 0.12591 1.03596 0.0
O381 O 0.4878 0.16327 1.05435 0.0
O382 O 0.49436 1.0088 1.04123 0.0
O383 O 0.58346 1.0467 1.03199 0.0
H384 H 0.782 0.11523 0.1617 0.0
H385 H 0.85316 0.18458 0.19369 0.0
H386 H 0.76715 0.29485 0.14159 0.0
H387 H 0.6947 0.22418 0.11129 0.0
H388 H 0.36582 0.94961 1.0807 0.0
H389 H 0.29598 0.877 1.04964 0.0
H390 H 0.20553 0.983 0.99604 0.0
H391 H 0.27413 1.05428 1.02881 0.0
Sm392 Sm 0.52939 0.53931 0.55795 0.0
Sm393 Sm 0.53359 0.62691 0.62596 0.0
C394 C 0.55816 0.46532 0.50265 0.0
C395 C 0.61134 0.45509 0.50065 0.0
C396 C 0.65548 0.49392 0.51579 0.0
C397 C 0.70641 0.485 0.51534 0.0
C398 C 0.71389 0.43679 0.50057 0.0
C399 C 0.66945 0.39772 0.48604 0.0
C400 C 0.61845 0.40687 0.48601 0.0
C401 C 0.43165 0.53212 0.61411 0.0
C402 C 0.58218 0.54075 0.68256 0.0
C403 C 0.50522 0.70011 0.68326 0.0
C404 C 0.45359 0.7143 0.68583 0.0
C405 C 0.42399 0.70952 0.73653 0.0
C406 C 0.37132 0.71417 0.73835 0.0
C407 C 0.34734 0.724 0.68949 0.0
C408 C 0.37748 0.73027 0.63897 0.0
C409 C 0.43005 0.72528 0.63712 0.0
C410 C 0.63124 0.6335 0.5698 0.0
C411 C 0.48235 0.6264 0.50073 0.0
O412 O 0.55596 0.50861 0.47939 0.0
O413 O 0.53268 0.45759 0.55104 0.0
O414 O 0.47711 0.54786 0.63433 0.0
O415 O 0.43702 0.51799 0.56315 0.0
O416 O 0.57993 0.52233 0.63155 0.0
O417 O 0.56309 0.58092 0.6936 0.0
O418 O 0.50345 0.65493 0.7043 0.0
O419 O 0.53366 0.70915 0.63649 0.0
O420 O 0.58575 0.61823 0.54955 0.0
O421 O 0.62602 0.64758 0.62083 0.0
O422 O 0.48415 0.64466 0.55183 0.0
O423 O 0.50126 0.58605 0.48985 0.0
H424 H 0.65049 0.53123 0.52807 0.0
H425 H 0.73981 0.51561 0.52696 0.0
H426 H 0.6743 0.36037 0.47372 0.0
H427 H 0.58474 0.37648 0.4746 0.0
H428 H 0.44113 0.70067 0.77454 0.0
H429 H 0.34947 0.71045 0.77811 0.0
H430 H 0.36008 0.73813 0.60075 0.0
H431 H 0.45167 0.72872 0.59731 0.0
Sm432 Sm 0.02846 0.53537 0.12308 0.0
Sm433 Sm 0.03601 0.62751 1.06081 0.0
C434 C 0.05302 0.45389 0.16664 0.0
C435 C 0.1033 0.44447 0.18697 0.0
C436 C 0.1351 0.42096 0.15214 0.0
C437 C 0.18443 0.41506 0.16895 0.0
C438 C 0.20291 0.43196 0.22132 0.0
C439 C 0.1707 0.45457 0.25668 0.0
C440 C 0.12148 0.46084 0.23969 0.0
C441 C 0.97713 0.60088 0.18014 0.0
C442 C 0.13736 0.63137 0.13461 0.0
C443 C 1.01102 0.70823 1.01621 0.0
C444 C 0.9587 0.71894 1.00469 0.0
C445 C 0.93375 0.74537 1.04361 0.0
C446 C 0.88257 0.752 1.03535 0.0
C447 C 0.85514 0.73276 0.98768 0.0
C448 C 0.8806 0.70723 0.9482 0.0
C449 C 0.9317 0.7004 0.95658 0.0
C450 C 0.08667 0.56153 1.00363 0.0
C451 C 0.92747 0.53229 1.04959 0.0
O452 O 0.05268 0.46223 0.11325 0.0
O453 O 0.02988 0.48405 0.19568 0.0
O454 O 1.02228 0.61403 0.15418 0.0
O455 O 0.95718 0.55172 0.17551 0.0
O456 O 0.11432 0.58218 0.14295 0.0
O457 O 0.11427 0.66023 0.10472 0.0
O458 O 1.02136 0.70522 1.06858 0.0
O459 O 1.02567 0.67304 0.98648 0.0
O460 O 0.04159 0.54879 1.02969 0.0
O461 O 0.10673 0.61064 1.00786 0.0
O462 O 0.9477 0.58246 1.04748 0.0
O463 O 0.95366 0.50257 1.0739 0.0
H464 H 0.12211 0.40757 0.11143 0.0
H465 H 0.20783 0.39667 0.14117 0.0
H466 H 0.18392 0.46814 0.29724 0.0
H467 H 0.09809 0.47909 0.26763 0.0
H468 H 0.95339 0.76022 1.0811 0.0
H469 H 0.8642 0.77152 1.06686 0.0
H470 H 0.86129 0.69289 0.91038 0.0
H471 H 0.94975 0.68011 0.92554 0.0
loop_
_geom_bond_atom_site_label_1
_geom_bond_atom_site_label_2
_geom_bond_distance
_geom_bond_site_symmetry_2
_ccdc_geom_bond_type
C0 C1 1.386 . S
C0 C2 1.397 . S
C0 H24 0.931 . S
C1 C0 1.386 . S
C1 C5 1.397 . S
C2 C0 1.397 . S
C2 C3 1.384 . S
C2 H25 0.930 . S
C3 C2 1.384 . S
C3 C4 1.377 . S
C3 C6 1.481 . S
C4 C3 1.377 . S
C4 C5 1.389 . S
C4 H26 0.929 . S
C5 C1 1.397 . S
C5 C4 1.389 . S
C5 H27 0.931 . S
C6 C3 1.481 . S
C6 C7 1.387 . S
C6 C11 1.390 . S
C7 C6 1.387 . S
C7 C8 1.401 . S
C7 H28 0.930 . S
C8 C7 1.401 . S
C8 C9 1.376 . S
C8 C17 1.511 . S
C9 C8 1.376 . S
C9 C10 1.392 . S
C9 H30 0.931 . S
C10 C9 1.392 . S
C10 C11 1.361 . S
C10 C12 1.500 . S
C11 C6 1.390 . S
C11 C10 1.361 . S
C11 H29 0.931 . S
C12 C10 1.500 . S
C12 C13 1.371 . S
C12 C14 1.365 . S
C13 C12 1.371 . S
C13 C23 1.386 . S
C13 H31 0.931 . S
C14 C12 1.365 . S
C14 C15 1.409 . S
C14 H32 0.929 . S
C15 C14 1.409 . S
C15 C16 1.380 . S
C15 H33 0.930 . S
C16 C15 1.380 . S
C16 C23 1.357 . S
C17 C8 1.511 . S
C17 C18 1.341 . S
C17 C19 1.371 . S
C18 C17 1.341 . S
C18 C22 1.394 . S
C18 H34 0.930 . S
C19 C17 1.371 . S
C19 C20 1.392 . S
C19 H35 0.931 . S
C20 C19 1.392 . S
C20 C21 1.331 . S
C20 H38 0.932 . S
C21 C20 1.331 . S
C21 C22 1.336 . S
C22 C18 1.394 . S
C22 C21 1.336 . S
C22 H37 0.929 . S
C23 C13 1.386 . S
C23 C16 1.357 . S
C23 H36 0.928 . S
H24 C0 0.931 . S
H25 C2 0.930 . S
H26 C4 0.929 . S
H27 C5 0.931 . S
H28 C7 0.930 . S
H29 C11 0.931 . S
H30 C9 0.931 . S
H31 C13 0.931 . S
H32 C14 0.929 . S
H33 C15 0.930 . S
H34 C18 0.930 . S
H35 C19 0.931 . S
H36 C23 0.928 . S
H37 C22 0.929 . S
H38 C20 0.932 . S
C39 C40 1.386 . S
C39 C41 1.397 . S
C39 H63 0.931 . S
C40 C39 1.386 . S
C40 C44 1.397 . S
C41 C39 1.397 . S
C41 C42 1.384 . S
C41 H64 0.930 . S
C42 C41 1.384 . S
C42 C43 1.377 . S
C42 C45 1.481 . S
C43 C42 1.377 . S
C43 C44 1.389 . S
C43 H65 0.929 . S
C44 C40 1.397 . S
C44 C43 1.389 . S
C44 H66 0.931 . S
C45 C42 1.481 . S
C45 C46 1.387 . S
C45 C50 1.390 . S
C46 C45 1.387 . S
C46 C47 1.401 . S
C46 H67 0.930 . S
C47 C46 1.401 . S
C47 C48 1.376 . S
C47 C56 1.511 . S
C48 C47 1.376 . S
C48 C49 1.392 . S
C48 H69 0.931 . S
C49 C48 1.392 . S
C49 C50 1.361 . S
C49 C51 1.500 . S
C50 C45 1.390 . S
C50 C49 1.361 . S
C50 H68 0.931 . S
C51 C49 1.500 . S
C51 C52 1.371 . S
C51 C53 1.365 . S
C52 C51 1.371 . S
C52 C62 1.386 . S
C52 H70 0.931 . S
C53 C51 1.365 . S
C53 C54 1.409 . S
C53 H71 0.929 . S
C54 C53 1.409 . S
C54 C55 1.380 . S
C54 H72 0.930 . S
C55 C54 1.380 . S
C55 C62 1.357 . S
C56 C47 1.511 . S
C56 C57 1.341 . S
C56 C58 1.371 . S
C57 C56 1.341 . S
C57 C61 1.394 . S
C57 H73 0.930 . S
C58 C56 1.371 . S
C58 C59 1.392 . S
C58 H74 0.931 . S
C59 C58 1.392 . S
C59 C60 1.331 . S
C59 H77 0.932 . S
C60 C59 1.331 . S
C60 C61 1.336 . S
C61 C57 1.394 . S
C61 C60 1.336 . S
C61 H76 0.929 . S
C62 C52 1.386 . S
C62 C55 1.357 . S
C62 H75 0.928 . S
H63 C39 0.931 . S
H64 C41 0.930 . S
H65 C43 0.929 . S
H66 C44 0.931 . S
H67 C46 0.930 . S
H68 C50 0.931 . S
H69 C48 0.931 . S
H70 C52 0.931 . S
H71 C53 0.929 . S
H72 C54 0.930 . S
H73 C57 0.930 . S
H74 C58 0.931 . S
H75 C62 0.928 . S
H76 C61 0.929 . S
H77 C59 0.932 . S
C78 C79 1.386 . S
C78 C80 1.397 . S
C78 H102 0.931 . S
C79 C78 1.386 . S
C79 C83 1.397 . S
C80 C78 1.397 . S
C80 C81 1.384 . S
C80 H103 0.930 . S
C81 C80 1.384 . S
C81 C82 1.377 . S
C81 C84 1.481 . S
C82 C81 1.377 . S
C82 C83 1.389 . S
C82 H104 0.929 . S
C83 C79 1.397 . S
C83 C82 1.389 . S
C83 H105 0.931 . S
C84 C81 1.481 . S
C84 C85 1.387 . S
C84 C89 1.390 . S
C85 C84 1.387 . S
C85 C86 1.401 . S
C85 H106 0.930 . S
C86 C85 1.401 . S
C86 C87 1.376 . S
C86 C95 1.511 . S
C87 C86 1.376 . S
C87 C88 1.392 . S
C87 H108 0.931 . S
C88 C87 1.392 . S
C88 C89 1.361 . S
C88 C90 1.500 . S
C89 C84 1.390 . S
C89 C88 1.361 . S
C89 H107 0.931 . S
C90 C88 1.500 . S
C90 C91 1.371 . S
C90 C92 1.365 . S
C91 C90 1.371 . S
C91 C101 1.386 . S
C91 H109 0.931 . S
C92 C90 1.365 . S
C92 C93 1.409 . S
C92 H110 0.929 . S
C93 C92 1.409 . S
C93 C94 1.380 . S
C93 H111 0.930 . S
C94 C93 1.380 . S
C94 C101 1.357 . S
C95 C86 1.511 . S
C95 C96 1.341 . S
C95 C97 1.371 . S
C96 C95 1.341 . S
C96 C100 1.394 . S
C96 H112 0.930 . S
C97 C95 1.371 . S
C97 C98 1.392 . S
C97 H113 0.931 . S
C98 C97 1.392 . S
C98 C99 1.331 . S
C98 H116 0.932 . S
C99 C98 1.331 . S
C99 C100 1.336 . S
C100 C96 1.394 . S
C100 C99 1.336 . S
C100 H115 0.929 . S
C101 C91 1.386 . S
C101 C94 1.357 . S
C101 H114 0.928 . S
H102 C78 0.931 . S
H103 C80 0.930 . S
H104 C82 0.929 . S
H105 C83 0.931 . S
H106 C85 0.930 . S
H107 C89 0.931 . S
H108 C87 0.931 . S
H109 C91 0.931 . S
H110 C92 0.929 . S
H111 C93 0.930 . S
H112 C96 0.930 . S
H113 C97 0.931 . S
H114 C101 0.928 . S
H115 C100 0.929 . S
H116 C98 0.932 . S
C117 C118 1.386 . S
C117 C119 1.397 . S
C117 H141 0.931 . S
C118 C117 1.386 . S
C118 C122 1.397 . S
C119 C117 1.397 . S
C119 C120 1.384 . S
C119 H142 0.930 . S
C120 C119 1.384 . S
C120 C121 1.377 . S
C120 C123 1.481 . S
C121 C120 1.377 . S
C121 C122 1.389 . S
C121 H143 0.929 . S
C122 C118 1.397 . S
C122 C121 1.389 . S
C122 H144 0.931 . S
C123 C120 1.481 . S
C123 C124 1.387 . S
C123 C128 1.390 . S
C124 C123 1.387 . S
C124 C125 1.401 . S
C124 H145 0.930 . S
C125 C124 1.401 . S
C125 C126 1.376 . S
C125 C134 1.511 . S
C126 C125 1.376 . S
C126 C127 1.392 . S
C126 H147 0.931 . S
C127 C126 1.392 . S
C127 C128 1.361 . S
C127 C129 1.500 . S
C128 C123 1.390 . S
C128 C127 1.361 . S
C128 H146 0.931 . S
C129 C127 1.500 . S
C129 C130 1.371 . S
C129 C131 1.365 . S
C130 C129 1.371 . S
C130 C140 1.386 . S
C130 H148 0.931 . S
C131 C129 1.365 . S
C131 C132 1.409 . S
C131 H149 0.929 . S
C132 C131 1.409 . S
C132 C133 1.380 . S
C132 H150 0.936 . S
C133 C132 1.380 . S
C133 C140 1.357 . S
C134 C125 1.511 . S
C134 C135 1.341 . S
C134 C136 1.371 . S
C135 C134 1.341 . S
C135 C139 1.394 . S
C135 H151 0.930 . S
C136 C134 1.371 . S
C136 C137 1.392 . S
C136 H152 0.931 . S
C137 C136 1.392 . S
C137 C138 1.331 . S
C137 H155 0.932 . S
C138 C137 1.331 . S
C138 C139 1.336 . S
C139 C135 1.394 . S
C139 C138 1.336 . S
C139 H154 0.929 . S
C140 C130 1.386 . S
C140 C133 1.357 . S
C140 H153 0.928 . S
H141 C117 0.931 . S
H142 C119 0.930 . S
H143 C121 0.929 . S
H144 C122 0.931 . S
H145 C124 0.930 . S
H146 C128 0.931 . S
H147 C126 0.931 . S
H148 C130 0.931 . S
H149 C131 0.929 . S
H150 C132 0.936 . S
H151 C135 0.930 . S
H152 C136 0.931 . S
H153 C140 0.928 . S
H154 C139 0.929 . S
H155 C137 0.932 . S
C156 C157 1.386 . S
C156 C158 1.397 . S
C156 H180 0.931 . S
C157 C156 1.386 . S
C157 C161 1.397 . S
C158 C156 1.397 . S
C158 C159 1.384 . S
C158 H181 0.930 . S
C159 C158 1.384 . S
C159 C160 1.377 . S
C159 C162 1.481 . S
C160 C159 1.377 . S
C160 C161 1.389 . S
C160 H182 0.929 . S
C161 C157 1.397 . S
C161 C160 1.389 . S
C161 H183 0.931 . S
C162 C159 1.481 . S
C162 C163 1.387 . S
C162 C167 1.390 . S
C163 C162 1.387 . S
C163 C164 1.401 . S
C163 H184 0.930 . S
C164 C163 1.401 . S
C164 C165 1.376 . S
C164 C173 1.511 . S
C165 C164 1.376 . S
C165 C166 1.392 . S
C165 H186 0.931 . S
C166 C165 1.392 . S
C166 C167 1.361 . S
C166 C168 1.500 . S
C167 C162 1.390 . S
C167 C166 1.361 . S
C167 H185 0.931 . S
C168 C166 1.500 . S
C168 C169 1.371 . S
C168 C170 1.365 . S
C169 C168 1.371 . S
C169 C179 1.386 . S
C169 H187 0.931 . S
C170 C168 1.365 . S
C170 C171 1.409 . S
C170 H188 0.929 . S
C171 C170 1.409 . S
C171 C172 1.380 . S
C171 H189 0.930 . S
C172 C171 1.380 . S
C172 C179 1.357 . S
C173 C164 1.511 . S
C173 C174 1.341 . S
C173 C175 1.371 . S
C174 C173 1.341 . S
C174 C178 1.394 . S
C174 H190 0.930 . S
C175 C173 1.371 . S
C175 C176 1.392 . S
C175 H191 0.931 . S
C176 C175 1.392 . S
C176 C177 1.331 . S
C176 H194 0.932 . S
C177 C176 1.331 . S
C177 C178 1.336 . S
C178 C174 1.394 . S
C178 C177 1.336 . S
C178 H193 0.929 . S
C179 C169 1.386 . S
C179 C172 1.357 . S
C179 H192 0.928 . S
H180 C156 0.931 . S
H181 C158 0.930 . S
H182 C160 0.929 . S
H183 C161 0.931 . S
H184 C163 0.930 . S
H185 C167 0.931 . S
H186 C165 0.931 . S
H187 C169 0.931 . S
H188 C170 0.929 . S
H189 C171 0.930 . S
H190 C174 0.930 . S
H191 C175 0.931 . S
H192 C179 0.928 . S
H193 C178 0.929 . S
H194 C176 0.932 . S
C195 C196 1.386 . S
C195 C197 1.397 . S
C195 H219 0.931 . S
C196 C195 1.386 . S
C196 C200 1.397 . S
C197 C195 1.397 . S
C197 C198 1.384 . S
C197 H220 0.930 . S
C198 C197 1.384 . S
C198 C199 1.377 . S
C198 C201 1.481 . S
C199 C198 1.377 . S
C199 C200 1.389 . S
C199 H221 0.929 . S
C200 C196 1.397 . S
C200 C199 1.389 . S
C200 H222 0.931 . S
C201 C198 1.481 . S
C201 C202 1.387 . S
C201 C206 1.390 . S
C202 C201 1.387 . S
C202 C203 1.401 . S
C202 H223 0.930 . S
C203 C202 1.401 . S
C203 C204 1.376 . S
C203 C212 1.511 . S
C204 C203 1.376 . S
C204 C205 1.392 . S
C204 H225 0.931 . S
C205 C204 1.392 . S
C205 C206 1.361 . S
C205 C207 1.500 . S
C206 C201 1.390 . S
C206 C205 1.361 . S
C206 H224 0.931 . S
C207 C205 1.500 . S
C207 C208 1.371 . S
C207 C209 1.365 . S
C208 C207 1.371 . S
C208 C218 1.386 . S
C208 H226 0.931 . S
C209 C207 1.365 . S
C209 C210 1.409 . S
C209 H227 0.929 . S
C210 C209 1.409 . S
C210 C211 1.380 . S
C210 H228 0.930 . S
C211 C210 1.380 . S
C211 C218 1.357 . S
C212 C203 1.511 . S
C212 C213 1.341 . S
C212 C214 1.371 . S
C213 C212 1.341 . S
C213 C217 1.394 . S
C213 H229 0.930 . S
C214 C212 1.371 . S
C214 C215 1.392 . S
C214 H230 0.931 . S
C215 C214 1.392 . S
C215 C216 1.331 . S
C215 H233 0.932 . S
C216 C215 1.331 . S
C216 C217 1.336 . S
C217 C213 1.394 . S
C217 C216 1.336 . S
C217 H232 0.929 . S
C218 C208 1.386 . S
C218 C211 1.357 . S
C218 H231 0.928 . S
H219 C195 0.931 . S
H220 C197 0.930 . S
H221 C199 0.929 . S
H222 C200 0.931 . S
H223 C202 0.930 . S
H224 C206 0.931 . S
H225 C204 0.931 . S
H226 C208 0.931 . S
H227 C209 0.929 . S
H228 C210 0.930 . S
H229 C213 0.930 . S
H230 C214 0.931 . S
H231 C218 0.928 . S
H232 C217 0.929 . S
H233 C215 0.932 . S
C234 C235 1.386 . S
C234 C236 1.397 . S
C234 H258 0.931 . S
C235 C234 1.386 . S
C235 C239 1.397 . S
C236 C234 1.397 . S
C236 C237 1.384 . S
C236 H259 0.930 . S
C237 C236 1.384 . S
C237 C238 1.377 . S
C237 C240 1.481 . S
C238 C237 1.377 . S
C238 C239 1.389 . S
C238 H260 0.929 . S
C239 C235 1.397 . S
C239 C238 1.389 . S
C239 H261 0.931 . S
C240 C237 1.481 . S
C240 C241 1.387 . S
C240 C245 1.390 . S
C241 C240 1.387 . S
C241 C242 1.401 . S
C241 H262 0.930 . S
C242 C241 1.401 . S
C242 C243 1.376 . S
C242 C251 1.511 . S
C243 C242 1.376 . S
C243 C244 1.392 . S
C243 H264 0.931 . S
C244 C243 1.392 . S
C244 C245 1.361 . S
C244 C246 1.500 . S
C245 C240 1.390 . S
C245 C244 1.361 . S
C245 H263 0.931 . S
C246 C244 1.500 . S
C246 C247 1.371 . S
C246 C248 1.365 . S
C247 C246 1.371 . S
C247 C257 1.386 . S
C247 H265 0.931 . S
C248 C246 1.365 . S
C248 C249 1.409 . S
C248 H266 0.929 . S
C249 C248 1.409 . S
C249 C250 1.380 . S
C249 H267 0.930 . S
C250 C249 1.380 . S
C250 C257 1.357 . S
C251 C242 1.511 . S
C251 C252 1.341 . S
C251 C253 1.371 . S
C252 C251 1.341 . S
C252 C256 1.394 . S
C252 H268 0.930 . S
C253 C251 1.371 . S
C253 C254 1.392 . S
C253 H269 0.931 . S
C254 C253 1.392 . S
C254 C255 1.331 . S
C254 H272 0.932 . S
C255 C254 1.331 . S
C255 C256 1.336 . S
C256 C252 1.394 . S
C256 C255 1.336 . S
C256 H271 0.929 . S
C257 C247 1.386 . S
C257 C250 1.357 . S
C257 H270 0.928 . S
H258 C234 0.931 . S
H259 C236 0.930 . S
H260 C238 0.929 . S
H261 C239 0.931 . S
H262 C241 0.930 . S
H263 C245 0.931 . S
H264 C243 0.931 . S
H265 C247 0.931 . S
H266 C248 0.929 . S
H267 C249 0.930 . S
H268 C252 0.930 . S
H269 C253 0.931 . S
H270 C257 0.928 . S
H271 C256 0.929 . S
H272 C254 0.932 . S
C273 C274 1.386 . S
C273 C275 1.397 . S
C273 H297 0.931 . S
C274 C273 1.386 . S
C274 C278 1.397 . S
C275 C273 1.397 . S
C275 C276 1.384 . S
C275 H298 0.930 . S
C276 C275 1.384 . S
C276 C277 1.377 . S
C276 C279 1.481 . S
C277 C276 1.377 . S
C277 C278 1.389 . S
C277 H299 0.929 . S
C278 C274 1.397 . S
C278 C277 1.389 . S
C278 H300 0.931 . S
C279 C276 1.481 . S
C279 C280 1.387 . S
C279 C284 1.390 . S
C280 C279 1.387 . S
C280 C281 1.401 . S
C280 H301 0.930 . S
C281 C280 1.401 . S
C281 C282 1.376 . S
C281 C290 1.511 . S
C282 C281 1.376 . S
C282 C283 1.392 . S
C282 H303 0.931 . S
C283 C282 1.392 . S
C283 C284 1.361 . S
C283 C285 1.500 . S
C284 C279 1.390 . S
C284 C283 1.361 . S
C284 H302 0.931 . S
C285 C283 1.500 . S
C285 C286 1.371 . S
C285 C287 1.365 . S
C286 C285 1.371 . S
C286 C296 1.386 . S
C286 H304 0.931 . S
C287 C285 1.365 . S
C287 C288 1.409 . S
C287 H305 0.929 . S
C288 C287 1.409 . S
C288 C289 1.380 . S
C288 H306 0.930 . S
C289 C288 1.380 . S
C289 C296 1.357 . S
C290 C281 1.511 . S
C290 C291 1.341 . S
C290 C292 1.371 . S
C291 C290 1.341 . S
C291 C295 1.394 . S
C291 H307 0.930 . S
C292 C290 1.371 . S
C292 C293 1.392 . S
C292 H308 0.931 . S
C293 C292 1.392 . S
C293 C294 1.331 . S
C293 H311 0.932 . S
C294 C293 1.331 . S
C294 C295 1.336 . S
C295 C291 1.394 . S
C295 C294 1.336 . S
C295 H310 0.929 . S
C296 C286 1.386 . S
C296 C289 1.357 . S
C296 H309 0.928 . S
H297 C273 0.931 . S
H298 C275 0.930 . S
H299 C277 0.929 . S
H300 C278 0.931 . S
H301 C280 0.930 . S
H302 C284 0.931 . S
H303 C282 0.931 . S
H304 C286 0.931 . S
H305 C287 0.929 . S
H306 C288 0.930 . S
H307 C291 0.930 . S
H308 C292 0.931 . S
H309 C296 0.928 . S
H310 C295 0.929 . S
H311 C293 0.932 . S
Sm312 C314 2.846 . S
Sm312 O332 2.543 . S
Sm312 O333 2.450 . S
Sm312 O334 2.681 1_545 S
Sm312 O335 2.464 1_545 S
Sm312 O336 2.396 . S
Sm312 O340 2.386 1_455 S
Sm312 O343 2.408 1_445 S
Sm313 C323 2.846 1_545 S
Sm313 O334 2.386 1_645 S
Sm313 O337 2.408 1_655 S
Sm313 O338 2.543 1_545 S
Sm313 O339 2.450 1_545 S
Sm313 O340 2.681 . S
Sm313 O341 2.464 . S
Sm313 O342 2.396 1_545 S
C314 Sm312 2.846 . S
C314 C315 1.506 . S
C314 O332 1.261 . S
C314 O333 1.242 . S
C315 C314 1.506 . S
C315 C316 1.358 . S
C315 C320 1.382 . S
C316 C315 1.358 . S
C316 C317 1.385 . S
C316 H344 0.930 . S
C317 C316 1.385 . S
C317 C318 1.395 . S
C317 H345 0.929 . S
C318 C317 1.395 . S
C318 C319 1.335 . S
C319 C318 1.335 . S
C319 C320 1.398 . S
C319 H346 0.930 . S
C320 C315 1.382 . S
C320 C319 1.398 . S
C320 H347 0.929 . S
C321 O334 1.271 . S
C321 O335 1.251 . S
C322 O336 1.252 . S
C322 O337 1.272 . S
C323 Sm313 2.846 1_565 S
C323 C324 1.506 . S
C323 O338 1.261 . S
C323 O339 1.242 . S
C324 C323 1.506 . S
C324 C325 1.358 . S
C324 C329 1.382 . S
C325 C324 1.358 . S
C325 C326 1.385 . S
C325 H348 0.930 . S
C326 C325 1.385 . S
C326 C327 1.395 . S
C326 H349 0.929 . S
C327 C326 1.395 . S
C327 C328 1.335 . S
C328 C327 1.335 . S
C328 C329 1.398 . S
C328 H350 0.930 . S
C329 C324 1.382 . S
C329 C328 1.398 . S
C329 H351 0.929 . S
C330 O340 1.271 . S
C330 O341 1.251 . S
C331 O342 1.252 . S
C331 O343 1.272 . S
O332 Sm312 2.543 . S
O332 C314 1.261 . S
O333 Sm312 2.450 . S
O333 C314 1.242 . S
O334 Sm312 2.681 1_565 S
O334 Sm313 2.386 1_465 S
O334 C321 1.271 . S
O335 Sm312 2.464 1_565 S
O335 C321 1.251 . S
O336 Sm312 2.396 . S
O336 C322 1.252 . S
O337 Sm313 2.408 1_455 S
O337 C322 1.272 . S
O338 Sm313 2.543 1_565 S
O338 C323 1.261 . S
O339 Sm313 2.450 1_565 S
O339 C323 1.242 . S
O340 Sm312 2.386 1_655 S
O340 Sm313 2.681 . S
O340 C330 1.271 . S
O341 Sm313 2.464 . S
O341 C330 1.251 . S
O342 Sm313 2.396 1_565 S
O342 C331 1.252 . S
O343 Sm312 2.408 1_665 S
O343 C331 1.272 . S
H344 C316 0.930 . S
H345 C317 0.929 . S
H346 C319 0.930 . S
H347 C320 0.929 . S
H348 C325 0.930 . S
H349 C326 0.929 . S
H350 C328 0.930 . S
H351 C329 0.929 . S
Sm352 C354 2.846 . S
Sm352 O372 2.543 . S
Sm352 O373 2.450 . S
Sm352 O374 2.681 1_545 S
Sm352 O375 2.464 1_545 S
Sm352 O376 2.396 . S
Sm352 O380 2.386 1_554 S
Sm352 O383 2.408 1_544 S
Sm353 C363 2.846 1_545 S
Sm353 O374 2.386 1_546 S
Sm353 O377 2.408 1_556 S
Sm353 O378 2.543 1_545 S
Sm353 O379 2.449 1_545 S
Sm353 O380 2.681 . S
Sm353 O381 2.464 . S
Sm353 O382 2.396 1_545 S
C354 Sm352 2.846 . S
C354 C355 1.506 . S
C354 O372 1.261 . S
C354 O373 1.242 . S
C355 C354 1.506 . S
C355 C356 1.358 . S
C355 C360 1.382 . S
C356 C355 1.358 . S
C356 C357 1.385 . S
C356 H384 0.930 . S
C357 C356 1.385 . S
C357 C358 1.395 . S
C357 H385 0.929 . S
C358 C357 1.395 . S
C358 C359 1.335 . S
C359 C358 1.335 . S
C359 C360 1.398 . S
C359 H386 0.930 . S
C360 C355 1.382 . S
C360 C359 1.398 . S
C360 H387 0.929 . S
C361 O374 1.271 . S
C361 O375 1.251 . S
C362 O376 1.252 . S
C362 O377 1.272 . S
C363 Sm353 2.846 1_565 S
C363 C364 1.506 . S
C363 O378 1.261 . S
C363 O379 1.267 . S
C364 C363 1.506 . S
C364 C365 1.358 . S
C364 C369 1.382 . S
C365 C364 1.358 . S
C365 C366 1.385 . S
C365 H388 0.930 . S
C366 C365 1.385 . S
C366 C367 1.395 . S
C366 H389 0.929 . S
C367 C366 1.395 . S
C367 C368 1.335 . S
C368 C367 1.335 . S
C368 C369 1.398 . S
C368 H390 0.930 . S
C369 C364 1.382 . S
C369 C368 1.398 . S
C369 H391 0.929 . S
C370 O380 1.271 . S
C370 O381 1.251 . S
C371 O382 1.252 . S
C371 O383 1.272 . S
O372 Sm352 2.543 . S
O372 C354 1.261 . S
O373 Sm352 2.450 . S
O373 C354 1.242 . S
O374 Sm352 2.681 1_565 S
O374 Sm353 2.386 1_564 S
O374 C361 1.271 . S
O375 Sm352 2.464 1_565 S
O375 C361 1.251 . S
O376 Sm352 2.396 . S
O376 C362 1.252 . S
O377 Sm353 2.408 1_554 S
O377 C362 1.272 . S
O378 Sm353 2.543 1_565 S
O378 C363 1.261 . S
O379 Sm353 2.449 1_565 S
O379 C363 1.267 . S
O380 Sm352 2.386 1_556 S
O380 Sm353 2.681 . S
O380 C370 1.271 . S
O381 Sm353 2.464 . S
O381 C370 1.251 . S
O382 Sm353 2.396 1_565 S
O382 C371 1.252 . S
O383 Sm352 2.408 1_566 S
O383 C371 1.272 . S
H384 C356 0.930 . S
H385 C357 0.929 . S
H386 C359 0.930 . S
H387 C360 0.929 . S
H388 C365 0.930 . S
H389 C366 0.929 . S
H390 C368 0.930 . S
H391 C369 0.929 . S
Sm392 C394 2.846 . S
Sm392 O412 2.543 . S
Sm392 O413 2.450 . S
Sm392 O414 2.681 . S
Sm392 O415 2.464 . S
Sm392 O416 2.396 . S
Sm392 O420 2.386 . S
Sm392 O423 2.408 . S
Sm393 C403 2.846 . S
Sm393 O414 2.386 . S
Sm393 O417 2.408 . S
Sm393 O418 2.543 . S
Sm393 O419 2.450 . S
Sm393 O420 2.681 . S
Sm393 O421 2.464 . S
Sm393 O422 2.396 . S
C394 Sm392 2.846 . S
C394 C395 1.506 . S
C394 O412 1.261 . S
C394 O413 1.242 . S
C395 C394 1.506 . S
C395 C396 1.358 . S
C395 C400 1.382 . S
C396 C395 1.358 . S
C396 C397 1.385 . S
C396 H424 0.930 . S
C397 C396 1.385 . S
C397 C398 1.395 . S
C397 H425 0.929 . S
C398 C397 1.395 . S
C398 C399 1.335 . S
C399 C398 1.335 . S
C399 C400 1.398 . S
C399 H426 0.930 . S
C400 C395 1.382 . S
C400 C399 1.398 . S
C400 H427 0.929 . S
C401 O414 1.271 . S
C401 O415 1.251 . S
C402 O416 1.252 . S
C402 O417 1.272 . S
C403 Sm393 2.846 . S
C403 C404 1.506 . S
C403 O418 1.261 . S
C403 O419 1.242 . S
C404 C403 1.506 . S
C404 C405 1.358 . S
C404 C409 1.382 . S
C405 C404 1.358 . S
C405 C406 1.385 . S
C405 H428 0.930 . S
C406 C405 1.385 . S
C406 C407 1.395 . S
C406 H429 0.929 . S
C407 C406 1.395 . S
C407 C408 1.335 . S
C408 C407 1.335 . S
C408 C409 1.398 . S
C408 H430 0.930 . S
C409 C404 1.382 . S
C409 C408 1.398 . S
C409 H431 0.929 . S
C410 O420 1.271 . S
C410 O421 1.251 . S
C411 O422 1.252 . S
C411 O423 1.272 . S
O412 Sm392 2.543 . S
O412 C394 1.261 . S
O413 Sm392 2.450 . S
O413 C394 1.242 . S
O414 Sm392 2.681 . S
O414 Sm393 2.386 . S
O414 C401 1.271 . S
O415 Sm392 2.464 . S
O415 C401 1.251 . S
O416 Sm392 2.396 . S
O416 C402 1.252 . S
O417 Sm393 2.408 . S
O417 C402 1.272 . S
O418 Sm393 2.543 . S
O418 C403 1.261 . S
O419 Sm393 2.450 . S
O419 C403 1.242 . S
O420 Sm392 2.386 . S
O420 Sm393 2.681 . S
O420 C410 1.271 . S
O421 Sm393 2.464 . S
O421 C410 1.251 . S
O422 Sm393 2.396 . S
O422 C411 1.252 . S
O423 Sm392 2.408 . S
O423 C411 1.272 . S
H424 C396 0.930 . S
H425 C397 0.929 . S
H426 C399 0.930 . S
H427 C400 0.929 . S
H428 C405 0.930 . S
H429 C406 0.929 . S
H430 C408 0.930 . S
H431 C409 0.929 . S
Sm432 C434 2.846 . S
Sm432 O452 2.543 . S
Sm432 O453 2.450 . S
Sm432 O454 2.681 1_455 S
Sm432 O455 2.464 1_455 S
Sm432 O456 2.396 . S
Sm432 O460 2.386 1_554 S
Sm432 O463 2.408 1_454 S
Sm433 C443 2.846 . S
Sm433 O454 2.386 1_556 S
Sm433 O457 2.408 1_656 S
Sm433 O458 2.543 . S
Sm433 O459 2.450 . S
Sm433 O460 2.681 1_655 S
Sm433 O461 2.464 1_655 S
Sm433 O462 2.396 . S
C434 Sm432 2.846 . S
C434 C435 1.506 . S
C434 O452 1.261 . S
C434 O453 1.242 . S
C435 C434 1.506 . S
C435 C436 1.358 . S
C435 C440 1.382 . S
C436 C435 1.358 . S
C436 C437 1.385 . S
C436 H464 0.930 . S
C437 C436 1.385 . S
C437 C438 1.395 . S
C437 H465 0.929 . S
C438 C437 1.395 . S
C438 C439 1.335 . S
C439 C438 1.335 . S
C439 C440 1.398 . S
C439 H466 0.930 . S
C440 C435 1.382 . S
C440 C439 1.398 . S
C440 H467 0.929 . S
C441 O454 1.271 . S
C441 O455 1.251 . S
C442 O456 1.252 . S
C442 O457 1.272 . S
C443 Sm433 2.846 . S
C443 C444 1.506 . S
C443 O458 1.261 . S
C443 O459 1.242 . S
C444 C443 1.506 . S
C444 C445 1.358 . S
C444 C449 1.382 . S
C445 C444 1.358 . S
C445 C446 1.385 . S
C445 H468 0.930 . S
C446 C445 1.385 . S
C446 C447 1.395 . S
C446 H469 0.929 . S
C447 C446 1.395 . S
C447 C448 1.335 . S
C448 C447 1.335 . S
C448 C449 1.398 . S
C448 H470 0.930 . S
C449 C444 1.382 . S
C449 C448 1.398 . S
C449 H471 0.929 . S
C450 O460 1.271 . S
C450 O461 1.251 . S
C451 O462 1.252 . S
C451 O463 1.272 . S
O452 Sm432 2.543 . S
O452 C434 1.261 . S
O453 Sm432 2.450 . S
O453 C434 1.242 . S
O454 Sm432 2.681 1_655 S
O454 Sm433 2.386 1_554 S
O454 C441 1.271 . S
O455 Sm432 2.464 1_655 S
O455 C441 1.251 . S
O456 Sm432 2.396 . S
O456 C442 1.252 . S
O457 Sm433 2.408 1_454 S
O457 C442 1.272 . S
O458 Sm433 2.543 . S
O458 C443 1.261 . S
O459 Sm433 2.450 . S
O459 C443 1.242 . S
O460 Sm432 2.386 1_556 S
O460 Sm433 2.681 1_455 S
O460 C450 1.271 . S
O461 Sm433 2.464 1_455 S
O461 C450 1.251 . S
O462 Sm433 2.396 . S
O462 C451 1.252 . S
O463 Sm432 2.408 1_656 S
O463 C451 1.272 . S
H464 C436 0.930 . S
H465 C437 0.929 . S
H466 C439 0.930 . S
H467 C440 0.929 . S
H468 C445 0.930 . S
H469 C446 0.929 . S
H470 C448 0.930 . S
H471 C449 0.929 . S
C1 C318 2.189 . S
C40 C367 1.849 . S
C402 C99 3.639 . S
C118 C441 3.542 . S
C362 C16 4.526 . S
C321 C60 1.556 . S
C451 C79 2.519 . S
C410 C138 2.217 . S
C21 C438 2.974 . S
C370 C94 3.348 . S
C133 C331 3.304 . S
C55 C407 2.502 . S
C327 C157 2.218 . S
C196 C358 1.856 . S
C255 C411 3.637 . S
C289 C450 3.535 . S
C172 C371 4.506 . S
C330 C216 1.516 . S
C442 C235 2.524 . S
C401 C294 2.226 . S
C177 C447 3.005 . S
C361 C250 3.350 . S
C322 C274 3.303 . S
C211 C398 2.521 . S
