# Generated by pormake.
# Topology tsx, (6,3)-cn, num edge types: 1
# Building blocks:
#     Node 0, Type 0, BuildingBlock: CIFDUS_clean_sbu_1, # of connection points: 6
#     Node 1, Type 0, BuildingBlock: CIFDUS_clean_sbu_1, # of connection points: 6
#     Node 2, Type 1, BuildingBlock: KAKCAD_clean_linker_0, # of connection points: 3
#     Node 3, Type 1, BuildingBlock: KAKCAD_clean_linker_0, # of connection points: 3
#     Node 4, Type 1, BuildingBlock: KAKCAD_clean_linker_0, # of connection points: 3
#     Node 5, Type 1, BuildingBlock: KAKCAD_clean_linker_0, # of connection points: 3
#     Edge 6, Type (0, 1), BuildingBlock: AJUNOK_clean_linker_0, # of connection points: 2
#     Edge 7, Type (0, 1), BuildingBlock: AJUNOK_clean_linker_0, # of connection points: 2
#     Edge 8, Type (0, 1), BuildingBlock: AJUNOK_clean_linker_0, # of connection points: 2
#     Edge 9, Type (0, 1), BuildingBlock: AJUNOK_clean_linker_0, # of connection points: 2
#     Edge 10, Type (0, 1), BuildingBlock: AJUNOK_clean_linker_0, # of connection points: 2
#     Edge 11, Type (0, 1), BuildingBlock: AJUNOK_clean_linker_0, # of connection points: 2
#     Edge 12, Type (0, 1), BuildingBlock: AJUNOK_clean_linker_0, # of connection points: 2
#     Edge 13, Type (0, 1), BuildingBlock: AJUNOK_clean_linker_0, # of connection points: 2
#     Edge 14, Type (0, 1), BuildingBlock: AJUNOK_clean_linker_0, # of connection points: 2
#     Edge 15, Type (0, 1), BuildingBlock: AJUNOK_clean_linker_0, # of connection points: 2
#     Edge 16, Type (0, 1), BuildingBlock: AJUNOK_clean_linker_0, # of connection points: 2
#     Edge 17, Type (0, 1), BuildingBlock: AJUNOK_clean_linker_0, # of connection points: 2
# Relax obj value: 0.127
# Max RMSD: 0.155
# Mean RMSD: 0.118
data_MOF--net-tsx--node1-CIFDUS_clean_sbu_1--node2-KAKCAD_clean_linker_0--edge1-AJUNOK_clean_linker_0
_symmetry_space_group_name_H-M    P1
_symmetry_Int_Tables_number       1
_symmetry_cell_setting            triclinic
loop_
_symmetry_equiv_pos_as_xyz
'x, y, z'
_cell_length_a     16.002589
_cell_length_b     21.76223
_cell_length_c     35.870289
_cell_angle_alpha  96.670893
_cell_angle_beta   97.503487
_cell_angle_gamma 91.836978
loop_
_atom_site_label
_atom_site_type_symbol
_atom_site_fract_x
_atom_site_fract_y
_atom_site_fract_z
_atom_type_partial_charge
O0 O 1.03196 0.09876 0.00734 0.0
Mn1 Mn 0.10376 0.02027 0.00431 0.0
O2 O 0.91459 0.07473 0.96555 0.0
Mn3 Mn 0.94442 -0.00317 0.94644 0.0
O4 O 0.17821 0.94181 0.00139 0.0
O5 O 0.20571 0.07643 0.02393 0.0
Mn6 Mn 0.26818 0.04517 0.0604 0.0
O7 O 0.08244 0.00705 0.05948 0.0
O8 O 0.3005 0.97038 0.03874 0.0
O9 O 0.12646 0.03475 0.94912 0.0
O10 O 1.01259 -0.00396 0.90903 0.0
O11 O 0.32355 0.11826 0.05467 0.0
O12 O 0.20181 0.03989 0.0983 0.0
C13 C 0.93732 0.92296 0.97949 0.0
C14 C 0.95999 0.11203 0.99079 0.0
C15 C 0.2539 0.93079 0.01555 0.0
C16 C 0.26085 0.12221 0.0285 0.0
C17 C 0.1254 0.01918 0.0926 0.0
C18 C 0.08739 0.01953 0.91544 0.0
O19 O 0.99931 0.96445 0.98477 0.0
O20 O 0.88008 0.9281 0.95114 0.0
O21 O 0.5461 0.6058 0.51207 0.0
Mn22 Mn 0.60632 0.52133 0.50568 0.0
O23 O 0.40882 0.58453 0.49907 0.0
Mn24 Mn 0.43118 0.51462 0.46901 0.0
O25 O 0.67397 0.43907 0.50003 0.0
O26 O 0.71286 0.5754 0.51547 0.0
Mn27 Mn 0.7873 0.54398 0.54715 0.0
O28 O 0.60728 0.51545 0.56404 0.0
O29 O 0.80825 0.46773 0.52397 0.0
O30 O 0.60702 0.52785 0.44784 0.0
O31 O 0.47039 0.52513 0.42391 0.0
O32 O 0.83932 0.61483 0.53609 0.0
O33 O 0.73986 0.54291 0.59116 0.0
C34 C 0.427 0.42924 0.48795 0.0
C35 C 0.47006 0.62199 0.51228 0.0
C36 C 0.75256 0.42703 0.50751 0.0
C37 C 0.76789 0.62022 0.51549 0.0
C38 C 0.66355 0.52718 0.59347 0.0
C39 C 0.54805 0.52932 0.42007 0.0
O40 O 0.49663 0.46489 0.49486 0.0
O41 O 0.36154 0.44913 0.46845 0.0
C42 C 1.05019 0.9354 0.25849 0.0
C43 C 0.07476 -0.01007 0.24439 0.0
C44 C 0.05447 0.93344 0.29759 0.0
C45 C 0.08272 0.98613 0.32306 0.0
C46 C 0.11005 0.03978 0.30907 0.0
C47 C 0.10695 0.04146 0.27019 0.0
C48 C 0.07897 0.98723 0.36405 0.0
C49 C 0.12209 0.94505 0.38515 0.0
C50 C 0.1222 0.94918 0.4247 0.0
C51 C 0.07673 -0.00436 0.44277 0.0
C52 C 1.03343 0.03804 0.42162 0.0
C53 C 1.03474 0.03321 0.38241 0.0
C54 C 0.99139 0.09079 0.43976 0.0
C55 C 0.9267 0.08212 0.46193 0.0
C56 C 1.01169 0.15056 0.43175 0.0
C57 C 0.96687 0.20053 0.44455 0.0
C58 C 0.90096 0.19232 0.46606 0.0
C59 C 0.17461 0.90727 0.44679 0.0
C60 C 0.17922 0.84495 0.43207 0.0
C61 C 0.22596 0.93015 0.48085 0.0
C62 C 0.28365 0.89217 0.49872 0.0
C63 C 0.29101 0.83112 0.48255 0.0
C64 C 0.23716 0.80744 0.44965 0.0
C65 C 0.88148 0.13271 0.475 0.0
H66 H 1.02613 0.89474 0.23929 0.0
H67 H 1.03317 0.89157 0.30788 0.0
H68 H 0.13346 0.08061 0.3283 0.0
H69 H 0.13002 0.0832 0.26036 0.0
H70 H 0.15874 0.91092 0.37089 0.0
H71 H 1.00139 0.06591 0.36599 0.0
H72 H 0.07672 -0.00023 0.47316 0.0
H73 H 0.90992 0.03623 0.46828 0.0
H74 H 0.06163 0.15849 0.4149 0.0
H75 H 0.9834 0.24591 0.43727 0.0
H76 H 0.13939 0.82551 0.40637 0.0
H77 H 0.22438 0.97807 0.49272 0.0
H78 H 0.83198 0.12539 0.49214 0.0
H79 H 0.24109 0.76001 0.43714 0.0
H80 H 0.32452 0.91101 0.52424 0.0
C81 C 0.11908 0.11749 0.7476 0.0
C82 C 0.10611 0.06195 0.76301 0.0
C83 C 0.10018 0.1201 0.70861 0.0
C84 C 0.07103 0.06665 0.6836 0.0
C85 C 0.05993 0.01086 0.69909 0.0
C86 C 0.0759 0.00882 0.73811 0.0
C87 C 0.05587 0.06823 0.64159 0.0
C88 C 0.10411 0.10916 0.62435 0.0
C89 C 0.09568 0.10771 0.58476 0.0
C90 C 1.03894 0.06398 0.56189 0.0
C91 C 0.99048 0.02274 0.57848 0.0
C92 C 0.99768 0.02593 0.61808 0.0
C93 C 0.94311 0.96951 0.5551 0.0
C94 C 0.86218 0.97485 0.53554 0.0
C95 C 0.97814 0.91138 0.55462 0.0
C96 C 0.93268 0.85895 0.53554 0.0
C97 C 0.85085 0.86335 0.51663 0.0
C98 C 0.15155 0.14914 0.56785 0.0
C99 C 0.16393 0.21191 0.58253 0.0
C100 C 0.19755 0.12549 0.53904 0.0
C101 C 0.25669 0.16357 0.52597 0.0
C102 C 0.26987 0.22631 0.54103 0.0
C103 C 0.22219 0.25007 0.5692 0.0
C104 C 0.81575 0.92177 0.51666 0.0
H105 H 0.14438 0.15911 0.7655 0.0
H106 H 0.10859 0.16435 0.69827 0.0
H107 H 1.04 0.96805 0.68121 0.0
H108 H 0.0639 0.96526 0.74875 0.0
H109 H 0.15209 0.14022 0.6415 0.0
H110 H 0.95925 -0.00626 0.63024 0.0
H111 H 1.03447 0.06067 0.53133 0.0
H112 H 0.83422 0.01955 0.53584 0.0
H113 H 1.0402 0.90636 0.56983 0.0
H114 H 0.96042 0.81433 0.53679 0.0
H115 H 0.12863 0.23147 0.60448 0.0
H116 H 0.18985 0.07711 0.52754 0.0
H117 H 0.75241 0.92611 0.50267 0.0
H118 H 0.22937 0.29848 0.58076 0.0
H119 H 0.29297 0.14363 0.50453 0.0
C120 C 0.57541 0.4399 0.75812 0.0
C121 C 0.58569 0.49763 0.74496 0.0
C122 C 0.56725 0.43671 0.79638 0.0
C123 C 0.56879 0.49128 0.82186 0.0
C124 C 0.57754 0.54876 0.80809 0.0
C125 C 0.58512 0.55184 0.77015 0.0
C126 C 0.56307 0.48963 0.86288 0.0
C127 C 0.60673 0.44681 0.88353 0.0
C128 C 0.60833 0.45028 0.92316 0.0
C129 C 0.56596 0.49736 0.94216 0.0
C130 C 0.52196 0.5401 0.9217 0.0
C131 C 0.5192 0.53498 0.88228 0.0
C132 C 0.48448 0.59401 0.94088 0.0
C133 C 0.41946 0.58685 0.96302 0.0
C134 C 0.50971 0.65353 0.93407 0.0
C135 C 0.46948 0.70506 0.94833 0.0
C136 C 0.40319 0.69821 0.96975 0.0
C137 C 0.6583 0.40629 0.94437 0.0
C138 C 0.6522 0.3431 0.93055 0.0
C139 C 0.71721 0.42735 0.97641 0.0
C140 C 0.77299 0.38632 0.99262 0.0
C141 C 0.76968 0.32399 0.97707 0.0
C142 C 0.70726 0.30241 0.94677 0.0
C143 C 0.37855 0.63881 0.97725 0.0
H144 H 0.57639 0.39747 0.73916 0.0
H145 H 0.56014 0.39172 0.806 0.0
H146 H 0.58095 0.59176 0.82686 0.0
H147 H 0.59312 0.59688 0.76064 0.0
H148 H 0.64291 0.41257 0.86909 0.0
H149 H 0.48397 0.56785 0.86676 0.0
H150 H 0.5686 0.50152 0.97272 0.0
H151 H 0.3989 0.54114 0.96829 0.0
H152 H 0.55986 0.66005 0.91711 0.0
H153 H 0.48949 0.75044 0.94221 0.0
H154 H 0.60664 0.32552 0.9063 0.0
H155 H 0.72327 0.47597 0.98753 0.0
H156 H 0.32804 0.63274 0.99406 0.0
H157 H 0.70373 0.25432 0.93449 0.0
H158 H 0.82119 0.40377 0.01585 0.0
C159 C 0.57637 0.61133 0.2504 0.0
C160 C 0.58854 0.55379 0.26403 0.0
C161 C 0.56891 0.61575 0.21147 0.0
C162 C 0.57275 0.56264 0.18547 0.0
C163 C 0.58746 0.50559 0.19927 0.0
C164 C 0.59534 0.50124 0.23806 0.0
C165 C 0.55976 0.5661 0.14401 0.0
C166 C 0.60188 0.61242 0.12854 0.0
C167 C 0.5925 0.61501 0.08903 0.0
C168 C 0.53931 0.56954 0.06509 0.0
C169 C 0.49904 0.52188 0.08034 0.0
C170 C 0.50848 0.52106 0.11966 0.0
C171 C 0.4559 0.46785 0.05586 0.0
C172 C 0.37685 0.47178 0.03428 0.0
C173 C 0.49091 0.40994 0.05766 0.0
C174 C 0.44679 0.35644 0.03933 0.0
C175 C 0.36632 0.35941 0.01875 0.0
C176 C 0.64372 0.6623 0.07339 0.0
C177 C 0.66929 0.71945 0.09518 0.0
C178 C 0.67259 0.64961 0.03794 0.0
C179 C 0.72765 0.69178 0.02552 0.0
C180 C 0.758 0.74674 0.04876 0.0
C181 C 0.72684 0.76018 0.08351 0.0
C182 C 0.33183 0.41767 0.01605 0.0
H183 H 0.56916 0.6524 0.26965 0.0
H184 H 0.55719 0.66028 0.20161 0.0
H185 H 0.59236 0.46408 0.17999 0.0
H186 H 0.60527 0.45639 0.24777 0.0
H187 H 0.64546 0.64445 0.14754 0.0
H188 H 0.47686 0.48423 0.13122 0.0
H189 H 0.53122 0.56955 0.03467 0.0
H190 H 0.3485 0.51615 0.03299 0.0
H191 H 0.55137 0.40587 0.07453 0.0
H192 H 0.47401 0.31222 0.04297 0.0
H193 H 0.64608 0.73278 0.12182 0.0
H194 H 0.65478 0.60651 0.01997 0.0
H195 H 0.26944 0.42108 0.0008 0.0
H196 H 0.74759 0.80209 0.10219 0.0
H197 H 0.74613 0.68101 0.99763 0.0
C198 C 0.212 0.227 0.02143 0.0
C199 C 0.25701 0.17667 0.0078 0.0
C200 C 0.24138 0.28825 0.02012 0.0
C201 C 0.31646 0.30045 0.00514 0.0
H202 H 0.16082 0.21932 0.03764 0.0
H203 H 0.21111 0.32563 0.03502 0.0
S204 S 0.44373 0.18433 0.95724 0.0
N205 N 0.36977 0.1428 0.97244 0.0
N206 N 0.42416 0.2575 0.9693 0.0
C207 C 0.35388 0.25049 0.98627 0.0
C208 C 0.32417 0.18852 0.98774 0.0
C209 C 0.24169 0.82057 0.98308 0.0
C210 C 0.29074 0.86991 0.00535 0.0
C211 C 0.27705 0.76357 0.97299 0.0
C212 C 0.36258 0.75422 0.98468 0.0
H213 H 0.17589 0.82613 0.97301 0.0
H214 H 0.2381 0.72736 0.95492 0.0
S215 S 0.51777 0.86544 0.0449 0.0
N216 N 0.42998 0.90314 0.03994 0.0
N217 N 0.49423 0.79641 0.02095 0.0
C218 C 0.41152 0.80197 0.00771 0.0
C219 C 0.37623 0.85968 0.01802 0.0
C220 C 0.8581 0.89949 0.03026 0.0
C221 C 0.9184 0.88094 0.00671 0.0
C222 C 0.8087 0.85592 0.04457 0.0
C223 C 0.81839 0.79176 0.03639 0.0
H224 H 0.84348 0.94787 0.0348 0.0
H225 H 0.7589 0.87296 0.06015 0.0
S226 S 0.97715 0.72028 0.97998 0.0
N227 N 0.99013 0.79532 0.97777 0.0
N228 N 0.90191 0.71281 0.00682 0.0
C229 C 0.8836 0.77297 0.01518 0.0
C230 C 0.93261 0.81768 -7e-05 0.0
C231 C 0.93548 0.20942 0.96414 0.0
C232 C 0.93347 0.17609 0.99521 0.0
C233 C 0.88812 0.26157 0.96051 0.0
C234 C 0.83683 0.2821 0.98788 0.0
H235 H 0.9686 0.19216 0.94097 0.0
H236 H 0.88645 0.28313 0.93468 0.0
S237 S 0.82102 0.21738 0.07784 0.0
N238 N 0.88527 0.17161 0.05637 0.0
N239 N 0.79522 0.2706 0.04954 0.0
C240 C 0.84045 0.25297 0.02095 0.0
C241 C 0.8891 0.19946 0.02463 0.0
C242 C 0.70865 0.72349 0.51693 0.0
C243 C 0.75341 0.67759 0.49818 0.0
C244 C 0.73266 0.7866 0.51837 0.0
C245 C 0.80166 0.80506 0.50093 0.0
H246 H 0.66343 0.71053 0.53498 0.0
H247 H 0.70425 0.82004 0.53708 0.0
S248 S 0.9237 0.70344 0.44031 0.0
N249 N 0.85794 0.65546 0.4559 0.0
N250 N 0.90175 0.77372 0.45787 0.0
C251 C 0.83726 0.7602 0.47721 0.0
C252 C 0.81322 0.69635 0.47596 0.0
C253 C 0.8717 0.35639 0.50621 0.0
C254 C 0.7841 0.36407 0.49807 0.0
C255 C 0.90714 0.29985 0.49761 0.0
C256 C 0.85738 0.24777 0.48012 0.0
H257 H 0.91481 0.39471 0.51896 0.0
H258 H 0.975 0.29734 0.5039 0.0
S259 S 0.6244 0.23935 0.45593 0.0
N260 N 0.64733 0.3122 0.47412 0.0
N261 N 0.71529 0.2051 0.45711 0.0
C262 C 0.76938 0.25306 0.47319 0.0
C263 C 0.73254 0.31137 0.48219 0.0
C264 C 0.42588 0.36097 0.53886 0.0
C265 C 0.4175 0.36741 0.50014 0.0
C266 C 0.38267 0.31213 0.55185 0.0
C267 C 0.3297 0.26846 0.52649 0.0
H268 H 0.45898 0.3969 0.55937 0.0
H269 H 0.38651 0.31081 0.58212 0.0
S270 S 0.29694 0.26133 0.42173 0.0
N271 N 0.3619 0.32234 0.43626 0.0
N272 N 0.27876 0.23201 0.46048 0.0
C273 C 0.3275 0.27146 0.48746 0.0
C274 C 0.37213 0.32057 0.47436 0.0
C275 C 0.46577 0.71998 0.48476 0.0
C276 C 0.45112 0.68776 0.5152 0.0
C277 C 0.41821 0.77064 0.47622 0.0
C278 C 0.35612 0.79137 0.4984 0.0
H279 H 0.50726 0.70181 0.46497 0.0
H280 H 0.4254 0.79067 0.45047 0.0
S281 S 0.30646 0.73059 0.58552 0.0
N282 N 0.37899 0.68504 0.57049 0.0
N283 N 0.29161 0.7822 0.55522 0.0
C284 C 0.34797 0.76416 0.53138 0.0
C285 C 0.39518 0.71172 0.53963 0.0
C286 C 0.11265 0.95136 0.14228 0.0
C287 C 0.08929 0.00527 0.12632 0.0
C288 C 0.103 0.94501 0.17995 0.0
C289 C 0.07049 -0.00721 0.20297 0.0
H290 H 0.14386 0.9157 0.12634 0.0
H291 H 0.12633 0.90424 0.19177 0.0
S292 S 0.9912 0.14016 0.17261 0.0
N293 N 1.02653 0.10491 0.13485 0.0
N294 N 1.00612 0.09287 0.20547 0.0
C295 C 1.04157 0.04512 0.18633 0.0
C296 C 1.05162 0.05144 0.14801 0.0
C297 C 0.15133 -0.00533 0.85653 0.0
C298 C 0.12101 0.03917 0.88226 0.0
C299 C 0.1527 0.00471 0.81866 0.0
C300 C 0.12082 0.05869 0.80478 0.0
H301 H 0.16859 0.95011 0.86505 0.0
H302 H 0.17454 0.96822 0.79964 0.0
S303 S 1.03967 0.19106 0.86251 0.0
N304 N 0.06601 0.14113 0.89281 0.0
N305 N 0.06288 0.15899 0.82135 0.0
C306 C 0.09528 0.10522 0.83112 0.0
C307 C 0.09652 0.09553 0.86989 0.0
C308 C 0.56689 0.48907 0.63733 0.0
C309 C 0.64213 0.52058 0.6321 0.0
C310 C 0.54927 0.47993 0.67384 0.0
C311 C 0.60591 0.50258 0.70624 0.0
H312 H 0.52165 0.47095 0.61314 0.0
H313 H 0.49052 0.45602 0.67679 0.0
S314 S 0.81163 0.587 0.70877 0.0
N315 N 0.77356 0.57423 0.66344 0.0
N316 N 0.74035 0.55589 0.7311 0.0
C317 C 0.68114 0.53354 0.70148 0.0
C318 C 0.69918 0.54296 0.6647 0.0
C319 C 0.52253 0.49389 0.3513 0.0
C320 C 0.56814 0.53326 0.38142 0.0
C321 C 0.53145 0.50018 0.31368 0.0
C322 C 0.58554 0.54673 0.30455 0.0
H323 H 0.47829 0.4584 0.35686 0.0
H324 H 0.49349 0.46947 0.29147 0.0
S325 S 0.71891 0.66209 0.37315 0.0
N326 N 0.66978 0.62018 0.39999 0.0
N327 N 0.68646 0.63257 0.32887 0.0
C328 C 0.63241 0.58616 0.33445 0.0
C329 C 0.62401 0.57913 0.373 0.0
loop_
_geom_bond_atom_site_label_1
_geom_bond_atom_site_label_2
_geom_bond_distance
_geom_bond_site_symmetry_2
_ccdc_geom_bond_type
O0 Mn1 2.163 1_654 S
O0 C14 1.244 1_554 S
Mn1 O0 2.163 1_456 S
Mn1 O4 2.160 1_545 S
Mn1 O5 2.221 1_556 S
Mn1 O7 2.163 1_556 S
Mn1 O9 2.160 . S
Mn1 O19 2.221 1_445 S
O2 Mn3 2.087 . S
O2 C14 1.256 . S
Mn3 O2 2.087 . S
Mn3 O10 2.089 . S
Mn3 O19 2.290 1_545 S
Mn3 O20 2.251 1_545 S
O4 Mn1 2.160 1_565 S
O4 C15 1.239 1_556 S
O5 Mn1 2.221 1_554 S
O5 Mn6 2.290 . S
O5 C16 1.278 . S
Mn6 O5 2.290 . S
Mn6 O8 2.089 1_545 S
Mn6 O11 2.251 . S
Mn6 O12 2.087 . S
O7 Mn1 2.163 1_554 S
O7 C17 1.244 . S
O8 Mn6 2.089 1_565 S
O8 C15 1.256 . S
O9 Mn1 2.160 . S
O9 C18 1.239 . S
O10 Mn3 2.089 . S
O10 C18 1.256 1_655 S
O11 Mn6 2.251 . S
O11 C16 1.241 . S
O12 Mn6 2.087 . S
O12 C17 1.256 . S
C13 O19 1.264 1_554 S
C13 O20 1.235 1_554 S
C14 O0 1.244 1_556 S
C14 O2 1.256 . S
C15 O4 1.239 1_554 S
C15 O8 1.256 . S
C16 O5 1.278 . S
C16 O11 1.241 . S
C17 O7 1.244 . S
C17 O12 1.256 . S
C18 O9 1.239 . S
C18 O10 1.256 1_455 S
O19 Mn1 2.221 1_665 S
O19 Mn3 2.290 1_565 S
O19 C13 1.264 1_556 S
O20 Mn3 2.251 1_565 S
O20 C13 1.235 1_556 S
O21 Mn22 2.163 . S
O21 C35 1.244 . S
Mn22 O21 2.163 . S
Mn22 O25 2.160 . S
Mn22 O26 2.221 . S
Mn22 O28 2.163 . S
Mn22 O30 2.160 . S
Mn22 O40 2.221 . S
O23 Mn24 2.087 . S
O23 C35 1.256 . S
Mn24 O23 2.087 . S
Mn24 O31 2.089 . S
Mn24 O40 2.290 . S
Mn24 O41 2.251 . S
O25 Mn22 2.160 . S
O25 C36 1.239 . S
O26 Mn22 2.221 . S
O26 Mn27 2.290 . S
O26 C37 1.278 . S
Mn27 O26 2.290 . S
Mn27 O29 2.089 . S
Mn27 O32 2.251 . S
Mn27 O33 2.087 . S
O28 Mn22 2.163 . S
O28 C38 1.244 . S
O29 Mn27 2.089 . S
O29 C36 1.256 . S
O30 Mn22 2.160 . S
O30 C39 1.239 . S
O31 Mn24 2.089 . S
O31 C39 1.256 . S
O32 Mn27 2.251 . S
O32 C37 1.241 . S
O33 Mn27 2.087 . S
O33 C38 1.256 . S
C34 O40 1.278 . S
C34 O41 1.241 . S
C35 O21 1.244 . S
C35 O23 1.256 . S
C36 O25 1.239 . S
C36 O29 1.256 . S
C37 O26 1.278 . S
C37 O32 1.241 . S
C38 O28 1.244 . S
C38 O33 1.256 . S
C39 O30 1.239 . S
C39 O31 1.256 . S
O40 Mn22 2.221 . S
O40 Mn24 2.290 . S
O40 C34 1.278 . S
O41 Mn24 2.251 . S
O41 C34 1.241 . S
C42 C43 1.386 . S
C42 C44 1.397 . S
C42 H66 0.931 . S
C43 C42 1.386 . S
C43 C47 1.397 1_565 S
C44 C42 1.397 . S
C44 C45 1.384 . S
C44 H67 0.930 . S
C45 C44 1.384 . S
C45 C46 1.377 1_565 S
C45 C48 1.481 . S
C46 C45 1.377 1_545 S
C46 C47 1.389 . S
C46 H68 0.929 . S
C47 C43 1.397 1_545 S
C47 C46 1.389 . S
C47 H69 0.931 . S
C48 C45 1.481 . S
C48 C49 1.387 . S
C48 C53 1.390 1_565 S
C49 C48 1.387 . S
C49 C50 1.401 . S
C49 H70 0.930 . S
C50 C49 1.401 . S
C50 C51 1.376 1_565 S
C50 C59 1.511 . S
C51 C50 1.376 1_545 S
C51 C52 1.392 1_455 S
C51 H72 0.931 . S
C52 C51 1.392 1_655 S
C52 C53 1.361 1_655 S
C52 C54 1.499 . S
C53 C48 1.390 1_545 S
C53 C52 1.361 1_455 S
C53 H71 0.931 1_455 S
C54 C52 1.499 . S
C54 C55 1.371 . S
C54 C56 1.365 . S
C55 C54 1.371 . S
C55 C65 1.386 . S
C55 H73 0.931 . S
C56 C54 1.365 . S
C56 C57 1.409 . S
C56 H74 0.929 . S
C57 C56 1.409 . S
C57 C58 1.380 . S
C57 H75 0.930 . S
C58 C57 1.380 . S
C58 C65 1.357 . S
C59 C50 1.511 . S
C59 C60 1.341 . S
C59 C61 1.371 . S
C60 C59 1.341 . S
C60 C64 1.394 . S
C60 H76 0.930 . S
C61 C59 1.371 . S
C61 C62 1.392 . S
C61 H77 0.931 . S
C62 C61 1.392 . S
C62 C63 1.331 . S
C62 H80 0.932 . S
C63 C62 1.331 . S
C63 C64 1.336 . S
C64 C60 1.394 . S
C64 C63 1.336 . S
C64 H79 0.929 . S
C65 C55 1.386 . S
C65 C58 1.357 . S
C65 H78 0.928 . S
H66 C42 0.931 . S
H67 C44 0.930 . S
H68 C46 0.929 . S
H69 C47 0.931 . S
H70 C49 0.930 . S
H71 C53 0.931 1_655 S
H72 C51 0.931 . S
H73 C55 0.931 . S
H74 C56 0.929 . S
H75 C57 0.930 . S
H76 C60 0.930 . S
H77 C61 0.931 . S
H78 C65 0.928 . S
H79 C64 0.929 . S
H80 C62 0.932 . S
C81 C82 1.386 . S
C81 C83 1.397 . S
C81 H105 0.931 . S
C82 C81 1.386 . S
C82 C86 1.397 . S
C83 C81 1.397 . S
C83 C84 1.384 . S
C83 H106 0.930 . S
C84 C83 1.384 . S
C84 C85 1.377 . S
C84 C87 1.481 . S
C85 C84 1.377 . S
C85 C86 1.389 . S
C85 H107 0.929 1_545 S
C86 C82 1.397 . S
C86 C85 1.389 . S
C86 H108 0.931 1_545 S
C87 C84 1.481 . S
C87 C88 1.387 . S
C87 C92 1.390 1_455 S
C88 C87 1.387 . S
C88 C89 1.401 . S
C88 H109 0.930 . S
C89 C88 1.401 . S
C89 C90 1.376 1_455 S
C89 C98 1.511 . S
C90 C89 1.376 1_655 S
C90 C91 1.392 . S
C90 H111 0.931 . S
C91 C90 1.392 . S
C91 C92 1.361 . S
C91 C93 1.500 1_545 S
C92 C87 1.390 1_655 S
C92 C91 1.361 . S
C92 H110 0.931 . S
C93 C91 1.500 1_565 S
C93 C94 1.371 . S
C93 C95 1.365 . S
C94 C93 1.371 . S
C94 C104 1.386 . S
C94 H112 0.931 1_565 S
C95 C93 1.365 . S
C95 C96 1.409 . S
C95 H113 0.929 . S
C96 C95 1.409 . S
C96 C97 1.380 . S
C96 H114 0.930 . S
C97 C96 1.380 . S
C97 C104 1.357 . S
C98 C89 1.511 . S
C98 C99 1.341 . S
C98 C100 1.371 . S
C99 C98 1.341 . S
C99 C103 1.394 . S
C99 H115 0.930 . S
C100 C98 1.371 . S
C100 C101 1.392 . S
C100 H116 0.931 . S
C101 C100 1.392 . S
C101 C102 1.331 . S
C101 H119 0.932 . S
C102 C101 1.331 . S
C102 C103 1.336 . S
C103 C99 1.394 . S
C103 C102 1.336 . S
C103 H118 0.929 . S
C104 C94 1.386 . S
C104 C97 1.357 . S
C104 H117 0.928 . S
H105 C81 0.931 . S
H106 C83 0.930 . S
H107 C85 0.929 1_565 S
H108 C86 0.931 1_565 S
H109 C88 0.930 . S
H110 C92 0.931 . S
H111 C90 0.931 . S
H112 C94 0.931 1_545 S
H113 C95 0.929 . S
H114 C96 0.930 . S
H115 C99 0.930 . S
H116 C100 0.931 . S
H117 C104 0.928 . S
H118 C103 0.929 . S
H119 C101 0.932 . S
C120 C121 1.386 . S
C120 C122 1.397 . S
C120 H144 0.931 . S
C121 C120 1.386 . S
C121 C125 1.397 . S
C122 C120 1.397 . S
C122 C123 1.384 . S
C122 H145 0.930 . S
C123 C122 1.384 . S
C123 C124 1.377 . S
C123 C126 1.481 . S
C124 C123 1.377 . S
C124 C125 1.389 . S
C124 H146 0.929 . S
C125 C121 1.397 . S
C125 C124 1.389 . S
C125 H147 0.931 . S
C126 C123 1.481 . S
C126 C127 1.387 . S
C126 C131 1.390 . S
C127 C126 1.387 . S
C127 C128 1.401 . S
C127 H148 0.930 . S
C128 C127 1.401 . S
C128 C129 1.376 . S
C128 C137 1.511 . S
C129 C128 1.376 . S
C129 C130 1.392 . S
C129 H150 0.931 . S
C130 C129 1.392 . S
C130 C131 1.361 . S
C130 C132 1.500 . S
C131 C126 1.390 . S
C131 C130 1.361 . S
C131 H149 0.931 . S
C132 C130 1.500 . S
C132 C133 1.371 . S
C132 C134 1.365 . S
C133 C132 1.371 . S
C133 C143 1.386 1_556 S
C133 H151 0.931 . S
C134 C132 1.365 . S
C134 C135 1.409 . S
C134 H152 0.929 . S
C135 C134 1.409 . S
C135 C136 1.380 . S
C135 H153 0.930 . S
C136 C135 1.380 . S
C136 C143 1.357 1_556 S
C137 C128 1.511 . S
C137 C138 1.341 . S
C137 C139 1.371 . S
C138 C137 1.341 . S
C138 C142 1.394 . S
C138 H154 0.930 . S
C139 C137 1.371 . S
C139 C140 1.392 1_556 S
C139 H155 0.931 1_556 S
C140 C139 1.392 1_554 S
C140 C141 1.331 1_554 S
C140 H158 0.932 . S
C141 C140 1.331 1_556 S
C141 C142 1.336 . S
C142 C138 1.394 . S
C142 C141 1.336 . S
C142 H157 0.929 . S
C143 C133 1.386 1_554 S
C143 C136 1.357 1_554 S
C143 H156 0.928 . S
H144 C120 0.931 . S
H145 C122 0.930 . S
H146 C124 0.929 . S
H147 C125 0.931 . S
H148 C127 0.930 . S
H149 C131 0.931 . S
H150 C129 0.931 . S
H151 C133 0.931 . S
H152 C134 0.929 . S
H153 C135 0.930 . S
H154 C138 0.930 . S
H155 C139 0.931 1_554 S
H156 C143 0.928 . S
H157 C142 0.929 . S
H158 C140 0.932 . S
C159 C160 1.386 . S
C159 C161 1.397 . S
C159 H183 0.931 . S
C160 C159 1.386 . S
C160 C164 1.397 . S
C161 C159 1.397 . S
C161 C162 1.384 . S
C161 H184 0.930 . S
C162 C161 1.384 . S
C162 C163 1.377 . S
C162 C165 1.481 . S
C163 C162 1.377 . S
C163 C164 1.389 . S
C163 H185 0.929 . S
C164 C160 1.397 . S
C164 C163 1.389 . S
C164 H186 0.931 . S
C165 C162 1.481 . S
C165 C166 1.387 . S
C165 C170 1.390 . S
C166 C165 1.387 . S
C166 C167 1.401 . S
C166 H187 0.930 . S
C167 C166 1.401 . S
C167 C168 1.376 . S
C167 C176 1.511 . S
C168 C167 1.376 . S
C168 C169 1.392 . S
C168 H189 0.931 . S
C169 C168 1.392 . S
C169 C170 1.361 . S
C169 C171 1.500 . S
C170 C165 1.390 . S
C170 C169 1.361 . S
C170 H188 0.931 . S
C171 C169 1.500 . S
C171 C172 1.371 . S
C171 C173 1.365 . S
C172 C171 1.371 . S
C172 C182 1.380 1_554 S
C172 H190 0.931 . S
C173 C171 1.365 . S
C173 C174 1.409 . S
C173 H191 0.929 . S
C174 C173 1.409 . S
C174 C175 1.380 . S
C174 H192 0.930 . S
C175 C174 1.380 . S
C175 C182 1.351 1_554 S
C176 C167 1.511 . S
C176 C177 1.341 . S
C176 C178 1.371 . S
C177 C176 1.341 . S
C177 C181 1.394 . S
C177 H193 0.930 . S
C178 C176 1.371 . S
C178 C179 1.392 . S
C178 H194 0.931 . S
C179 C178 1.392 . S
C179 C180 1.331 . S
C179 H197 0.932 1_554 S
C180 C179 1.331 . S
C180 C181 1.336 . S
C181 C177 1.394 . S
C181 C180 1.336 . S
C181 H196 0.929 . S
C182 C172 1.380 1_556 S
C182 C175 1.351 1_556 S
C182 H195 0.940 . S
H183 C159 0.931 . S
H184 C161 0.930 . S
H185 C163 0.929 . S
H186 C164 0.931 . S
H187 C166 0.930 . S
H188 C170 0.931 . S
H189 C168 0.931 . S
H190 C172 0.931 . S
H191 C173 0.929 . S
H192 C174 0.930 . S
H193 C177 0.930 . S
H194 C178 0.931 . S
H195 C182 0.940 . S
H196 C181 0.929 . S
H197 C179 0.932 1_556 S
C198 C199 1.369 . S
C198 C200 1.418 1_554 S
C198 H202 0.930 1_554 S
C199 C198 1.369 . S
C199 C208 1.429 . S
C200 C198 1.418 1_556 S
C200 C201 1.363 1_556 S
C200 H203 0.930 . S
C201 C200 1.363 1_554 S
C201 C207 1.428 . S
H202 C198 0.930 1_556 S
H203 C200 0.930 . S
S204 N205 1.613 . S
S204 N206 1.610 . S
N205 S204 1.613 . S
N205 C208 1.350 . S
N206 S204 1.610 . S
N206 C207 1.351 . S
C207 C201 1.428 . S
C207 N206 1.351 . S
C207 C208 1.434 . S
C208 C199 1.429 . S
C208 N205 1.350 . S
C208 C207 1.434 . S
C209 C210 1.369 1_556 S
C209 C211 1.419 . S
C209 H213 0.930 . S
C210 C209 1.369 1_554 S
C210 C219 1.429 . S
C211 C209 1.419 . S
C211 C212 1.363 1_556 S
C211 H214 0.929 . S
C212 C211 1.363 1_554 S
C212 C218 1.428 . S
H213 C209 0.930 . S
H214 C211 0.929 . S
S215 N216 1.613 . S
S215 N217 1.610 . S
N216 S215 1.613 . S
N216 C219 1.350 . S
N217 S215 1.610 . S
N217 C218 1.351 . S
C218 C212 1.428 . S
C218 N217 1.351 . S
C218 C219 1.434 . S
C219 C210 1.429 . S
C219 N216 1.350 . S
C219 C218 1.434 . S
C220 C221 1.369 . S
C220 C222 1.419 . S
C220 H224 0.930 . S
C221 C220 1.369 . S
C221 C230 1.428 . S
C222 C220 1.419 . S
C222 C223 1.363 . S
C222 H225 0.929 . S
C223 C222 1.363 . S
C223 C229 1.428 . S
H224 C220 0.930 . S
H225 C222 0.929 . S
S226 N227 1.613 . S
S226 N228 1.610 . S
N227 S226 1.613 . S
N227 C230 1.351 1_556 S
N228 S226 1.610 . S
N228 C229 1.351 1_556 S
C229 C223 1.428 . S
C229 N228 1.351 1_554 S
C229 C230 1.434 . S
C230 C221 1.428 . S
C230 N227 1.351 1_554 S
C230 C229 1.434 . S
C231 C232 1.382 . S
C231 C233 1.419 . S
C231 H235 0.930 . S
C232 C231 1.382 . S
C232 C241 1.417 1_556 S
C233 C231 1.419 . S
C233 C234 1.363 . S
C233 H236 0.929 . S
C234 C233 1.363 . S
C234 C240 1.428 1_556 S
H235 C231 0.930 . S
H236 C233 0.929 . S
S237 N238 1.613 . S
S237 N239 1.610 . S
N238 S237 1.613 . S
N238 C241 1.350 . S
N239 S237 1.610 . S
N239 C240 1.351 . S
C240 C234 1.428 1_554 S
C240 N239 1.351 . S
C240 C241 1.434 . S
C241 C232 1.417 1_554 S
C241 N238 1.350 . S
C241 C240 1.434 . S
C242 C243 1.369 . S
C242 C244 1.419 . S
C242 H246 0.930 . S
C243 C242 1.369 . S
C243 C252 1.429 . S
C244 C242 1.419 . S
C244 C245 1.363 . S
C244 H247 0.929 . S
C245 C244 1.363 . S
C245 C251 1.428 . S
H246 C242 0.930 . S
H247 C244 0.929 . S
S248 N249 1.613 . S
S248 N250 1.610 . S
N249 S248 1.613 . S
N249 C252 1.350 . S
N250 S248 1.610 . S
N250 C251 1.351 . S
C251 C245 1.428 . S
C251 N250 1.351 . S
C251 C252 1.434 . S
C252 C243 1.429 . S
C252 N249 1.350 . S
C252 C251 1.434 . S
C253 C254 1.369 . S
C253 C255 1.419 . S
C253 H257 0.930 . S
C254 C253 1.369 . S
C254 C263 1.429 . S
C255 C253 1.419 . S
C255 C256 1.363 . S
C255 H258 0.929 . S
C256 C255 1.363 . S
C256 C262 1.428 . S
H257 C253 0.930 . S
H258 C255 0.929 . S
S259 N260 1.613 . S
S259 N261 1.610 . S
N260 S259 1.613 . S
N260 C263 1.350 . S
N261 S259 1.610 . S
N261 C262 1.351 . S
C262 C256 1.428 . S
C262 N261 1.351 . S
C262 C263 1.434 . S
C263 C254 1.429 . S
C263 N260 1.350 . S
C263 C262 1.434 . S
C264 C265 1.369 . S
C264 C266 1.419 . S
C264 H268 0.930 . S
C265 C264 1.369 . S
C265 C274 1.429 . S
C266 C264 1.419 . S
C266 C267 1.363 . S
C266 H269 0.929 . S
C267 C266 1.363 . S
C267 C273 1.428 . S
H268 C264 0.930 . S
H269 C266 0.929 . S
S270 N271 1.613 . S
S270 N272 1.610 . S
N271 S270 1.613 . S
N271 C274 1.350 . S
N272 S270 1.610 . S
N272 C273 1.351 . S
C273 C267 1.428 . S
C273 N272 1.351 . S
C273 C274 1.434 . S
C274 C265 1.429 . S
C274 N271 1.350 . S
C274 C273 1.434 . S
C275 C276 1.369 . S
C275 C277 1.419 . S
C275 H279 0.930 . S
C276 C275 1.369 . S
C276 C285 1.429 . S
C277 C275 1.419 . S
C277 C278 1.363 . S
C277 H280 0.929 . S
C278 C277 1.363 . S
C278 C284 1.428 . S
H279 C275 0.930 . S
H280 C277 0.929 . S
S281 N282 1.613 . S
S281 N283 1.610 . S
N282 S281 1.613 . S
N282 C285 1.350 . S
N283 S281 1.610 . S
N283 C284 1.351 . S
C284 C278 1.428 . S
C284 N283 1.351 . S
C284 C285 1.434 . S
C285 C276 1.429 . S
C285 N282 1.350 . S
C285 C284 1.434 . S
C286 C287 1.369 1_565 S
C286 C288 1.419 . S
C286 H290 0.930 . S
C287 C286 1.369 1_545 S
C287 C296 1.429 . S
C288 C286 1.419 . S
C288 C289 1.363 . S
C288 H291 0.929 . S
C289 C288 1.363 . S
C289 C295 1.428 1_565 S
H290 C286 0.930 . S
H291 C288 0.929 . S
S292 N293 1.613 . S
S292 N294 1.610 . S
N293 S292 1.613 . S
N293 C296 1.350 . S
N294 S292 1.610 . S
N294 C295 1.351 . S
C295 C289 1.428 1_545 S
C295 N294 1.351 . S
C295 C296 1.434 . S
C296 C287 1.429 . S
C296 N293 1.350 . S
C296 C295 1.434 . S
C297 C298 1.369 . S
C297 C299 1.419 . S
C297 H301 0.930 1_545 S
C298 C297 1.369 . S
C298 C307 1.429 . S
C299 C297 1.419 . S
C299 C300 1.363 . S
C299 H302 0.929 1_545 S
C300 C299 1.363 . S
C300 C306 1.428 . S
H301 C297 0.930 1_565 S
H302 C299 0.929 1_565 S
S303 N304 1.613 . S
S303 N305 1.610 . S
N304 S303 1.613 . S
N304 C307 1.350 . S
N305 S303 1.610 . S
N305 C306 1.351 . S
C306 C300 1.428 . S
C306 N305 1.351 . S
C306 C307 1.434 . S
C307 C298 1.429 . S
C307 N304 1.350 . S
C307 C306 1.434 . S
C308 C309 1.369 . S
C308 C310 1.419 . S
C308 H312 0.930 . S
C309 C308 1.369 . S
C309 C318 1.429 . S
C310 C308 1.419 . S
C310 C311 1.363 . S
C310 H313 0.929 . S
C311 C310 1.363 . S
C311 C317 1.428 . S
H312 C308 0.930 . S
H313 C310 0.929 . S
S314 N315 1.613 . S
S314 N316 1.610 . S
N315 S314 1.613 . S
N315 C318 1.350 . S
N316 S314 1.610 . S
N316 C317 1.351 . S
C317 C311 1.428 . S
C317 N316 1.351 . S
C317 C318 1.434 . S
C318 C309 1.429 . S
C318 N315 1.350 . S
C318 C317 1.434 . S
C319 C320 1.369 . S
C319 C321 1.419 . S
C319 H323 0.930 . S
C320 C319 1.369 . S
C320 C329 1.429 . S
C321 C319 1.419 . S
C321 C322 1.363 . S
C321 H324 0.929 . S
C322 C321 1.363 . S
C322 C328 1.428 . S
H323 C319 0.930 . S
H324 C321 0.929 . S
S325 N326 1.613 . S
S325 N327 1.610 . S
N326 S325 1.613 . S
N326 C329 1.350 . S
N327 S325 1.610 . S
N327 C328 1.351 . S
C328 C322 1.428 . S
C328 N327 1.351 . S
C328 C329 1.434 . S
C329 C320 1.429 . S
C329 N326 1.350 . S
C329 C328 1.434 . S
C201 C175 1.544 . S
C199 C16 1.496 . S
C210 C15 1.613 . S
C212 C136 1.577 1_554 S
C221 C13 1.324 . S
C223 C180 1.541 . S
C232 C14 1.422 . S
C234 C141 1.455 . S
C243 C37 1.499 . S
C245 C97 1.548 . S
C254 C36 1.617 . S
C256 C58 1.579 . S
C267 C102 1.544 . S
C265 C34 1.300 . S
C278 C63 1.455 . S
C276 C35 1.422 . S
C287 C17 1.517 . S
C289 C43 1.558 . S
C298 C18 1.403 . S
C300 C82 1.461 . S
C311 C121 1.559 . S
C309 C38 1.516 . S
C320 C39 1.407 . S
C322 C160 1.461 . S
