# Generated by pormake.
# Topology anh, (6,3)-cn, num edge types: 1
# Building blocks:
#     Node 0, Type 0, BuildingBlock: BETGAK_clean_sbu_0, # of connection points: 6
#     Node 1, Type 0, BuildingBlock: BETGAK_clean_sbu_0, # of connection points: 6
#     Node 2, Type 0, BuildingBlock: BETGAK_clean_sbu_0, # of connection points: 6
#     Node 3, Type 1, BuildingBlock: VETTIZ_charged_linker_0, # of connection points: 3
#     Node 4, Type 1, BuildingBlock: VETTIZ_charged_linker_0, # of connection points: 3
#     Node 5, Type 1, BuildingBlock: VETTIZ_charged_linker_0, # of connection points: 3
#     Node 6, Type 1, BuildingBlock: VETTIZ_charged_linker_0, # of connection points: 3
#     Node 7, Type 1, BuildingBlock: VETTIZ_charged_linker_0, # of connection points: 3
#     Node 8, Type 1, BuildingBlock: VETTIZ_charged_linker_0, # of connection points: 3
#     Edge 9, Type (0, 1), BuildingBlock: UVAHIK_clean_linker_0, # of connection points: 2
#     Edge 10, Type (0, 1), BuildingBlock: UVAHIK_clean_linker_0, # of connection points: 2
#     Edge 11, Type (0, 1), BuildingBlock: UVAHIK_clean_linker_0, # of connection points: 2
#     Edge 12, Type (0, 1), BuildingBlock: UVAHIK_clean_linker_0, # of connection points: 2
#     Edge 13, Type (0, 1), BuildingBlock: UVAHIK_clean_linker_0, # of connection points: 2
#     Edge 14, Type (0, 1), BuildingBlock: UVAHIK_clean_linker_0, # of connection points: 2
#     Edge 15, Type (0, 1), BuildingBlock: UVAHIK_clean_linker_0, # of connection points: 2
#     Edge 16, Type (0, 1), BuildingBlock: UVAHIK_clean_linker_0, # of connection points: 2
#     Edge 17, Type (0, 1), BuildingBlock: UVAHIK_clean_linker_0, # of connection points: 2
#     Edge 18, Type (0, 1), BuildingBlock: UVAHIK_clean_linker_0, # of connection points: 2
#     Edge 19, Type (0, 1), BuildingBlock: UVAHIK_clean_linker_0, # of connection points: 2
#     Edge 20, Type (0, 1), BuildingBlock: UVAHIK_clean_linker_0, # of connection points: 2
#     Edge 21, Type (0, 1), BuildingBlock: UVAHIK_clean_linker_0, # of connection points: 2
#     Edge 22, Type (0, 1), BuildingBlock: UVAHIK_clean_linker_0, # of connection points: 2
#     Edge 23, Type (0, 1), BuildingBlock: UVAHIK_clean_linker_0, # of connection points: 2
#     Edge 24, Type (0, 1), BuildingBlock: UVAHIK_clean_linker_0, # of connection points: 2
#     Edge 25, Type (0, 1), BuildingBlock: UVAHIK_clean_linker_0, # of connection points: 2
#     Edge 26, Type (0, 1), BuildingBlock: UVAHIK_clean_linker_0, # of connection points: 2
# Relax obj value: 0.169
# Max RMSD: 0.199
# Mean RMSD: 0.153
data_MOF--net-anh--node1-BETGAK_clean_sbu_0--node2-VETTIZ_charged_linker_0--edge1-UVAHIK_clean_linker_0
_symmetry_space_group_name_H-M    P1
_symmetry_Int_Tables_number       1
_symmetry_cell_setting            triclinic
loop_
_symmetry_equiv_pos_as_xyz
'x, y, z'
_cell_length_a     44.711853
_cell_length_b     52.150774
_cell_length_c     82.332562
_cell_angle_alpha  92.319821
_cell_angle_beta   89.31515
_cell_angle_gamma 127.2578
loop_
_atom_site_label
_atom_site_type_symbol
_atom_site_fract_x
_atom_site_fract_y
_atom_site_fract_z
_atom_type_partial_charge
La0 La 0.09171 0.50615 0.15156 0.0
La1 La 1.04829 0.52956 0.1635 0.0
C2 C 0.13803 0.50138 0.13722 0.0
C3 C 0.17807 0.51881 0.14107 0.0
C4 C 0.19149 0.53152 0.15694 0.0
C5 C 0.2293 0.54766 0.1609 0.0
C6 C 0.25446 0.55189 0.14899 0.0
C7 C 0.2413 0.54022 0.13296 0.0
C8 C 0.20322 0.52363 0.12903 0.0
C9 C 0.08385 0.50608 0.18328 0.0
C10 C 0.13349 0.58225 0.15929 0.0
C11 C 1.00326 0.53477 0.17902 0.0
C12 C 0.96314 0.51084 0.18236 0.0
C13 C 0.9404 0.48403 0.17165 0.0
C14 C 0.90275 0.46036 0.1751 0.0
C15 C 0.88696 0.46319 0.18926 0.0
C16 C 0.9097 0.49016 0.19997 0.0
C17 C 0.94768 0.51373 0.19659 0.0
C18 C 0.05808 0.53086 0.13188 0.0
C19 C 1.007 0.45403 0.15584 0.0
O20 O 0.11506 0.48161 0.14825 0.0
O21 O 0.12874 0.51919 0.13214 0.0
O22 O 0.08597 0.48556 0.17511 0.0
O23 O 0.0895 0.52702 0.17396 0.0
O24 O 0.13389 0.55923 0.15208 0.0
O25 O 0.10323 0.57559 0.16667 0.0
O26 O 1.01163 0.54202 0.16379 0.0
O27 O 1.02549 0.52984 0.18591 0.0
O28 O 0.05708 0.55193 0.14023 0.0
O29 O 1.05102 0.50908 0.14098 0.0
O30 O 1.00824 0.4767 0.16444 0.0
O31 O 1.03578 0.46134 0.1469 0.0
H32 H 0.1726 0.52863 0.16634 0.0
H33 H 0.23888 0.55668 0.1733 0.0
H34 H 0.26023 0.54306 0.1236 0.0
H35 H 0.19337 0.51433 0.11669 0.0
H36 H 0.95174 0.48131 0.16058 0.0
H37 H 0.88574 0.4402 0.16646 0.0
H38 H 0.8981 0.49295 0.21092 0.0
H39 H 0.96494 0.53417 0.20505 0.0
La40 La 0.59225 0.01215 0.49264 0.0
La41 La 0.54282 0.03099 0.48417 0.0
C42 C 0.62125 0.98847 0.50533 0.0
C43 C 0.61428 0.95697 0.50572 0.0
C44 C 0.64427 0.95556 0.503 0.0
C45 C 0.6388 0.92622 0.50339 0.0
C46 C 0.60311 0.89756 0.50652 0.0
C47 C 0.573 0.89902 0.5092 0.0
C48 C 0.57854 0.92845 0.50882 0.0
C49 C 0.58772 0.0192 0.4615 0.0
C50 C 0.50361 0.95774 0.48609 0.0
C51 C 0.51557 0.05611 0.47151 0.0
C52 C 0.52342 0.08785 0.47339 0.0
C53 C 0.5432 0.10816 0.48708 0.0
C54 C 0.54937 0.13778 0.4891 0.0
C55 C 0.53615 0.14785 0.47739 0.0
C56 C 0.51705 0.12761 0.4635 0.0
C57 C 0.51068 0.09786 0.46155 0.0
C58 C 0.54781 0.02465 0.51538 0.0
C59 C 0.63149 0.08553 0.49032 0.0
O60 O 0.63127 1.00219 0.49133 0.0
O61 O 0.59729 0.99138 0.51274 0.0
O62 O 0.61733 0.02551 0.46855 0.0
O63 O 0.56135 0.0069 0.47144 0.0
O64 O 0.53509 0.96587 0.49304 0.0
O65 O 0.50217 0.97944 0.47916 0.0
O66 O 0.50161 0.03831 0.48425 0.0
O67 O 0.54206 0.05579 0.46484 0.0
O68 O 0.51837 0.01878 0.5084 0.0
O69 O 0.57391 0.03649 0.50532 0.0
O70 O 0.5995 0.07713 0.48391 0.0
O71 O 0.63394 0.06407 0.49687 0.0
H72 H 0.67211 0.97729 0.50067 0.0
H73 H 0.66277 0.92615 0.50156 0.0
H74 H 0.54509 0.87739 0.5115 0.0
H75 H 0.55496 0.92891 0.51102 0.0
H76 H 0.55342 0.10088 0.49633 0.0
H77 H 0.56374 0.15242 0.50005 0.0
H78 H 0.50707 0.13475 0.45408 0.0
H79 H 0.49562 0.08259 0.45084 0.0
La80 La 0.6093 0.55318 0.8362 0.0
La81 La 0.5576 0.48239 0.84205 0.0
C82 C 0.64095 0.60807 0.8248 0.0
C83 C 0.63396 0.632 0.82297 0.0
C84 C 0.61264 0.63546 0.83422 0.0
C85 C 0.60868 0.65994 0.83269 0.0
C86 C 0.62592 0.68128 0.81986 0.0
C87 C 0.64616 0.67687 0.80837 0.0
C88 C 0.65021 0.65256 0.80995 0.0
C89 C 0.60198 0.5377 0.8667 0.0
C90 C 0.52016 0.51733 0.84064 0.0
C91 C 0.52828 0.42799 0.85354 0.0
C92 C 0.53578 0.40417 0.85185 0.0
C93 C 0.55383 0.40311 0.83807 0.0
C94 C 0.55978 0.37974 0.8363 0.0
C95 C 0.54816 0.35717 0.84837 0.0
C96 C 0.53088 0.35892 0.86234 0.0
C97 C 0.52468 0.38217 0.86403 0.0
C98 C 0.56481 0.49687 0.81134 0.0
C99 C 0.647 0.51842 0.83791 0.0
O100 O 0.64648 0.60344 0.83962 0.0
O101 O 0.61951 0.58105 0.81613 0.0
O102 O 0.63296 0.56215 0.86078 0.0
O103 O 0.5764 0.52462 0.85605 0.0
O104 O 0.553 0.54257 0.83527 0.0
O105 O 0.51681 0.49216 0.84616 0.0
O106 O 0.5159 0.43238 0.84041 0.0
O107 O 0.55423 0.45528 0.8612 0.0
O108 O 0.53457 0.47194 0.8174 0.0
O109 O 0.59049 0.51078 0.82202 0.0
O110 O 0.61357 0.49257 0.84233 0.0
O111 O 0.65132 0.54449 0.83318 0.0
H112 H 0.59964 0.61964 0.84432 0.0
H113 H 0.593 0.66269 0.84178 0.0
H114 H 0.65903 0.69228 0.79812 0.0
H115 H 0.66651 0.65008 0.80108 0.0
H116 H 0.56289 0.42008 0.82857 0.0
H117 H 0.57272 0.37897 0.82528 0.0
H118 H 0.52222 0.3424 0.87203 0.0
H119 H 0.51105 0.38287 0.87483 0.0
C120 C 0.66022 0.10563 0.18447 0.0
C121 C 0.68739 0.13563 0.19245 0.0
C122 C 0.68862 0.13793 0.20955 0.0
C123 C 0.63534 0.08171 0.21067 0.0
C124 C 0.63417 0.07899 0.19386 0.0
C125 C 0.60186 0.04542 0.18773 0.0
H126 H 0.44447 0.8967 0.20613 0.0
C127 C 0.60391 0.0505 0.21696 0.0
C128 C 0.5838 0.02893 0.20362 0.0
H129 H 0.489 0.92972 0.15833 0.0
H130 H 0.54194 0.98131 0.17025 0.0
H131 H 0.52176 0.92278 0.22223 0.0
H132 H 0.45976 0.96112 0.22042 0.0
H133 H 0.47767 0.96871 0.24034 0.0
H134 H 0.44577 0.92767 0.23245 0.0
H135 H 0.48186 0.90849 0.2348 0.0
H136 H 0.52882 0.94213 0.24127 0.0
C137 C 0.61824 0.03021 0.17848 0.0
C138 C 0.57537 0.04801 0.17728 0.0
C139 C 0.58584 0.03921 0.27808 0.0
C140 C 0.5586 0.01368 0.28768 0.0
C141 C 0.52907 0.98433 0.27994 0.0
C142 C 0.52676 0.9804 0.26296 0.0
C143 C 0.55424 0.00609 0.25353 0.0
C144 C 0.58307 0.03488 0.26111 0.0
C145 C 0.60943 0.05962 0.24913 0.0
C146 C 0.59198 0.04071 0.23309 0.0
C147 C 0.55974 0.00948 0.23577 0.0
C148 C 0.64893 0.06847 0.25206 0.0
C149 C 0.60763 0.0884 0.25115 0.0
C150 C 0.46543 0.91513 0.19819 0.0
C151 C 0.46231 0.90946 0.18129 0.0
C152 C 0.49078 0.9337 0.17141 0.0
C153 C 0.52132 0.9636 0.17835 0.0
C154 C 0.52354 0.96908 0.19534 0.0
C155 C 0.49602 0.94469 0.2049 0.0
C156 C 0.50309 0.95361 0.2227 0.0
C157 C 0.53905 0.98768 0.22241 0.0
C158 C 0.55104 0.99702 0.20638 0.0
C159 C 0.50896 0.93056 0.23081 0.0
C160 C 0.46988 0.95259 0.22949 0.0
H161 H 0.66552 0.11488 0.23162 0.0
H162 H 0.65867 0.10326 0.17132 0.0
H163 H 0.57072 0.06477 0.18334 0.0
H164 H 0.54723 0.02485 0.17547 0.0
H165 H 0.58762 0.05741 0.16518 0.0
H166 H 0.64383 0.03645 0.18484 0.0
H167 H 0.62627 0.03911 0.16597 0.0
H168 H 0.59868 1.00362 0.17781 0.0
H169 H 0.60863 0.06222 0.28363 0.0
H170 H 0.50799 0.96414 0.28704 0.0
H171 H 0.50364 0.95742 0.25786 0.0
H172 H 0.64671 0.04679 0.25511 0.0
H173 H 0.66388 0.08653 0.26231 0.0
H174 H 0.66676 0.07767 0.2412 0.0
H175 H 0.57994 0.08057 0.25585 0.0
H176 H 0.61029 0.09937 0.23948 0.0
H177 H 0.6296 0.10732 0.25981 0.0
H178 H 0.70959 0.16065 0.21594 0.0
C179 C 0.66298 0.11126 0.21866 0.0
C180 C 0.58789 0.60289 0.53887 0.0
C181 C 0.5936 0.62931 0.54766 0.0
C182 C 0.59821 0.63159 0.56468 0.0
C183 C 0.59189 0.58208 0.56398 0.0
C184 C 0.58749 0.57973 0.54727 0.0
C185 C 0.58332 0.55071 0.53993 0.0
H186 H 0.58152 0.42132 0.55136 0.0
C187 C 0.59044 0.55453 0.56906 0.0
C188 C 0.58566 0.53604 0.55503 0.0
H189 H 0.57004 0.45311 0.50583 0.0
H190 H 0.57371 0.49661 0.52012 0.0
H191 H 0.64571 0.49207 0.5678 0.0
H192 H 0.52525 0.42694 0.56987 0.0
H193 H 0.54029 0.44683 0.58906 0.0
H194 H 0.55421 0.42215 0.5822 0.0
H195 H 0.62001 0.45406 0.57741 0.0
H196 H 0.63303 0.49021 0.58828 0.0
C197 C 0.61676 0.56276 0.52849 0.0
C198 C 0.5443 0.52821 0.53144 0.0
C199 C 0.5985 0.54022 0.62922 0.0
C200 C 0.59568 0.51596 0.63767 0.0
C201 C 0.59206 0.49051 0.62881 0.0
C202 C 0.5909 0.48902 0.6118 0.0
C203 C 0.59303 0.51308 0.60348 0.0
C204 C 0.59675 0.53811 0.61219 0.0
C205 C 0.59721 0.56082 0.60129 0.0
C206 C 0.59283 0.54509 0.58464 0.0
C207 C 0.59071 0.51734 0.58602 0.0
C208 C 0.63587 0.59442 0.60348 0.0
C209 C 0.56293 0.56026 0.60549 0.0
C210 C 0.58028 0.4379 0.54444 0.0
C211 C 0.57613 0.43418 0.52745 0.0
C212 C 0.57339 0.45563 0.51894 0.0
C213 C 0.57568 0.4809 0.52725 0.0
C214 C 0.58042 0.48455 0.54428 0.0
C215 C 0.58214 0.46291 0.55255 0.0
C216 C 0.58544 0.46926 0.57062 0.0
C217 C 0.58666 0.49894 0.57189 0.0
C218 C 0.58389 0.50802 0.55645 0.0
C219 C 0.62282 0.47662 0.57648 0.0
C220 C 0.54971 0.43983 0.57846 0.0
H221 H 0.60098 0.61142 0.58582 0.0
H222 H 0.58459 0.60067 0.52576 0.0
H223 H 0.52271 0.52762 0.53866 0.0
H224 H 0.53397 0.50289 0.53027 0.0
H225 H 0.54478 0.53664 0.51919 0.0
H226 H 0.64321 0.58464 0.53393 0.0
H227 H 0.612 0.56917 0.51659 0.0
H228 H 0.62247 0.54509 0.52635 0.0
H229 H 0.60085 0.55985 0.63574 0.0
H230 H 0.59013 0.47171 0.6351 0.0
H231 H 0.58811 0.46902 0.60579 0.0
H232 H 0.65843 0.59215 0.60633 0.0
H233 H 0.63542 0.60895 0.61358 0.0
H234 H 0.64529 0.60824 0.5923 0.0
H235 H 0.53819 0.53556 0.6085 0.0
H236 H 0.55324 0.56669 0.59525 0.0
H237 H 0.56919 0.57661 0.61616 0.0
H238 H 0.60219 0.65148 0.57173 0.0
C239 C 0.59733 0.60819 0.57286 0.0
C240 C 0.17058 0.51944 0.85337 0.0
C241 C 0.19905 0.51991 0.8613 0.0
C242 C 0.201 0.52213 0.87834 0.0
C243 C 0.14761 0.52329 0.87969 0.0
C244 C 0.14489 0.5211 0.8629 0.0
C245 C 0.11185 0.52033 0.85727 0.0
H246 H 0.96802 0.52776 0.88153 0.0
C247 C 0.11783 0.52479 0.8864 0.0
C248 C 0.09633 0.52328 0.87343 0.0
H249 H 0.989 0.51329 0.83197 0.0
H250 H 1.04352 0.5169 0.84122 0.0
H251 H 0.97566 0.47858 0.89568 0.0
H252 H 1.05153 0.58125 0.89218 0.0
H253 H 0.06085 0.57371 0.91131 0.0
H254 H 1.01457 0.56192 0.90673 0.0
H255 H 0.97302 0.50548 0.90876 0.0
H256 H 1.00129 0.49291 0.91401 0.0
C257 C 0.08305 0.48777 0.8482 0.0
C258 C 0.12672 0.54934 0.84666 0.0
C259 C 0.10955 0.53245 0.94799 0.0
C260 C 0.08647 0.53577 0.95815 0.0
C261 C 0.05942 0.53768 0.95104 0.0
C262 C 1.05513 0.53601 0.93413 0.0
C263 C 0.07816 0.53243 0.92409 0.0
C264 C 0.10506 0.53108 0.93106 0.0
C265 C 0.12779 0.52839 0.91849 0.0
C266 C 0.1095 0.52762 0.90279 0.0
C267 C 0.08038 0.52973 0.90619 0.0
C268 C 0.12166 0.49612 0.92079 0.0
C269 C 0.16924 0.55909 0.92039 0.0
C270 C 0.9837 0.52488 0.8725 0.0
C271 C 0.97319 0.51953 0.85602 0.0
C272 C 0.99599 0.51725 0.84482 0.0
C273 C 1.0275 0.51911 0.8502 0.0
C274 C 1.0365 0.52332 0.86697 0.0
C275 C 1.01438 0.52624 0.87762 0.0
C276 C 1.02587 0.52971 0.89498 0.0
C277 C 0.0585 0.52827 0.89336 0.0
C278 C 0.06566 0.52481 0.87694 0.0
C279 C 0.99237 0.50042 0.90397 0.0
C280 C 1.03866 0.56321 0.90181 0.0
H281 H 0.1793 0.52539 0.90039 0.0
H282 H 0.16822 0.51753 0.84024 0.0
H283 H 0.14989 0.57208 0.85311 0.0
H284 H 0.10469 0.552 0.84379 0.0
H285 H 0.13776 0.54678 0.83504 0.0
H286 H 0.07629 0.46753 0.85558 0.0
H287 H 0.09441 0.48631 0.83641 0.0
H288 H 0.05631 0.48385 0.84579 0.0
H289 H 0.13096 0.53136 0.9531 0.0
H290 H 1.04105 0.53993 0.95859 0.0
H291 H 1.03377 0.53736 0.92959 0.0
H292 H 0.09229 0.477 0.92446 0.0
H293 H 0.14071 0.49883 0.93041 0.0
H294 H 0.12535 0.4862 0.9095 0.0
H295 H 0.17113 0.57984 0.92596 0.0
H296 H 0.18339 0.56779 0.90858 0.0
H297 H 0.18583 0.55495 0.92826 0.0
H298 H 0.22236 0.52248 0.88468 0.0
C299 C 0.17578 0.52385 0.88748 0.0
C300 C 0.97973 0.43293 0.46179 0.0
C301 C 0.9487 0.40423 0.45421 0.0
C302 C 0.94512 0.40177 0.43717 0.0
C303 C 1.00224 0.45617 0.4353 0.0
C304 C 1.00604 0.45878 0.45206 0.0
C305 C 1.0399 0.49195 0.4578 0.0
H306 H 0.18489 0.64489 0.43789 0.0
C307 C 1.03314 0.48721 0.42865 0.0
C308 C 1.05536 0.50858 0.44173 0.0
H309 H 0.15596 0.60734 0.486 0.0
H310 H 0.10492 0.55439 0.47459 0.0
H311 H 0.17861 0.58682 0.42181 0.0
H312 H 0.10129 0.60989 0.42445 0.0
H313 H 0.09862 0.59542 0.40447 0.0
H314 H 0.14266 0.63111 0.41225 0.0
H315 H 0.1824 0.61548 0.40887 0.0
H316 H 0.15414 0.57303 0.40315 0.0
C317 C 0.06752 0.48834 0.46652 0.0
C318 C 1.02608 0.50768 0.46862 0.0
C319 C 1.0427 0.49897 0.36737 0.0
C320 C 0.06802 0.52484 0.3575 0.0
C321 C 0.09709 0.55476 0.36496 0.0
C322 C 0.10108 0.55881 0.38191 0.0
C323 C 0.07578 0.53267 0.39161 0.0
C324 C 1.04714 0.50342 0.38431 0.0
C325 C 1.02282 0.47844 0.39657 0.0
C326 C 1.04211 0.49739 0.41241 0.0
C327 C 0.07296 0.52906 0.4094 0.0
C328 C 1.02554 0.45036 0.39367 0.0
C329 C 0.9825 0.46859 0.39493 0.0
C330 C 0.16732 0.62538 0.44602 0.0
C331 C 0.17395 0.63036 0.46286 0.0
C332 C 0.15119 0.60406 0.47297 0.0
C333 C 0.12155 0.57345 0.46632 0.0
C334 C 0.1149 0.56909 0.44939 0.0
C335 C 0.13812 0.59487 0.4396 0.0
C336 C 0.12856 0.58611 0.42188 0.0
C337 C 0.09518 0.55092 0.42252 0.0
C338 C 0.08685 0.54085 0.43864 0.0
C339 C 0.16259 0.59072 0.41335 0.0
C340 C 0.1174 0.60673 0.41526 0.0
H341 H 0.96716 0.42389 0.4148 0.0
H342 H 0.98285 0.4354 0.4749 0.0
H343 H 1.00066 0.50328 0.46311 0.0
H344 H 1.0469 0.53409 0.47002 0.0
H345 H 1.01856 0.49747 0.48088 0.0
H346 H 0.06886 0.46998 0.45998 0.0
H347 H 0.05849 0.48052 0.47914 0.0
H348 H 0.09664 0.51074 0.46685 0.0
H349 H 1.01976 0.47576 0.36205 0.0
H350 H 0.1173 0.57498 0.35767 0.0
H351 H 0.1239 0.58215 0.38677 0.0
H352 H 1.05477 0.45975 0.39061 0.0
H353 H 1.00689 0.43397 0.38341 0.0
H354 H 1.01876 0.43608 0.40451 0.0
H355 H 0.98283 0.48836 0.39005 0.0
H356 H 0.9684 0.46379 0.40677 0.0
H357 H 0.96471 0.4471 0.38657 0.0
H358 H 0.92146 0.37982 0.43116 0.0
C359 C 0.9717 0.42743 0.4277 0.0
C360 C 0.5957 0.95353 0.78885 0.0
C361 C 0.60184 0.93337 0.78012 0.0
C362 C 0.6038 0.93422 0.76306 0.0
C363 C 0.59378 0.97492 0.7635 0.0
C364 C 0.59223 0.97443 0.78029 0.0
C365 C 0.58787 0.99907 0.78747 0.0
H366 H 0.57805 0.12194 0.77507 0.0
C367 C 0.58957 0.99929 0.75824 0.0
C368 C 0.58638 0.01383 0.77221 0.0
H369 H 0.57797 0.08495 0.82107 0.0
H370 H 0.5797 0.04405 0.80702 0.0
H371 H 0.63962 0.11704 0.75705 0.0
H372 H 0.51896 0.05504 0.75836 0.0
H373 H 0.53022 0.04831 0.73896 0.0
H374 H 0.54418 0.08793 0.74496 0.0
H375 H 0.61077 0.12638 0.74836 0.0
H376 H 0.62219 0.10324 0.737 0.0
C377 C 0.62312 0.02377 0.79813 0.0
C378 C 0.55046 0.98111 0.79678 0.0
C379 C 0.58556 0.01423 0.69787 0.0
C380 C 0.57973 0.03358 0.68923 0.0
C381 C 0.57538 0.05497 0.69789 0.0
C382 C 0.57686 0.05709 0.71492 0.0
C383 C 0.58241 0.03741 0.72342 0.0
C384 C 0.58641 0.0163 0.7149 0.0
C385 C 0.59056 0.99637 0.72597 0.0
C386 C 0.58819 0.00889 0.74255 0.0
C387 C 0.58384 0.03312 0.74096 0.0
C388 C 0.62974 1.00439 0.72315 0.0
C389 C 0.5569 0.96046 0.72261 0.0
C390 C 0.57885 0.10526 0.78212 0.0
C391 C 0.57856 0.10695 0.79917 0.0
C392 C 0.57838 0.08416 0.80791 0.0
C393 C 0.57957 0.06059 0.79973 0.0
C394 C 0.58067 0.05968 0.78263 0.0
C395 C 0.57969 0.08152 0.77416 0.0
C396 C 0.57926 0.0763 0.75607 0.0
C397 C 0.58165 0.04852 0.75502 0.0
C398 C 0.58263 0.03885 0.77059 0.0
C399 C 0.61461 0.10732 0.74912 0.0
C400 C 0.54142 0.0666 0.74911 0.0
H401 H 0.60138 0.9541 0.74173 0.0
H402 H 0.59454 0.95354 0.802 0.0
H403 H 0.5281 0.95838 0.79003 0.0
H404 H 0.5394 0.9951 0.79814 0.0
H405 H 0.55367 0.9747 0.809 0.0
H406 H 0.64887 0.02919 0.79232 0.0
H407 H 0.62091 0.01427 0.81027 0.0
H408 H 0.62839 0.04729 0.79976 0.0
H409 H 0.58849 0.99727 0.69152 0.0
H410 H 0.57107 0.07022 0.69145 0.0
H411 H 0.57355 0.07395 0.72078 0.0
H412 H 0.6505 0.02963 0.71936 0.0
H413 H 0.62839 0.98823 0.71347 0.0
H414 H 0.64217 1.00308 0.73431 0.0
H415 H 0.53071 0.95783 0.7202 0.0
H416 H 0.55026 0.94528 0.73305 0.0
H417 H 0.56197 0.95016 0.71182 0.0
H418 H 0.60837 0.91877 0.75615 0.0
C419 C 0.59966 0.95472 0.75472 0.0
C420 C 0.56911 0.39458 0.13592 0.0
C421 C 0.57511 0.37412 0.12745 0.0
C422 C 0.57137 0.37103 0.11034 0.0
C423 C 0.56005 0.41098 0.11043 0.0
C424 C 0.56173 0.4127 0.12722 0.0
C425 C 0.55727 0.43714 0.13441 0.0
H426 H 0.53545 0.55246 0.12288 0.0
C427 C 0.55508 0.43493 0.10513 0.0
C428 C 0.55315 0.45014 0.11915 0.0
H429 H 0.54123 0.51763 0.16861 0.0
H430 H 0.54916 0.48074 0.15422 0.0
H431 H 0.60311 0.55305 0.1048 0.0
H432 H 0.4825 0.48831 0.10592 0.0
H433 H 0.49429 0.48255 0.08643 0.0
H434 H 0.50675 0.52157 0.09271 0.0
H435 H 0.57312 0.56135 0.09632 0.0
H436 H 0.58623 0.53971 0.0847 0.0
C437 C 0.59361 0.46326 0.14417 0.0
C438 C 0.521 0.41913 0.14458 0.0
C439 C 0.55969 0.45672 0.04502 0.0
C440 C 0.55582 0.47767 0.03667 0.0
C441 C 0.54693 0.49584 0.04562 0.0
C442 C 0.54384 0.4945 0.06252 0.0
C443 C 0.5493 0.47455 0.07071 0.0
C444 C 0.55599 0.45536 0.06197 0.0
C445 C 0.55877 0.43426 0.07282 0.0
C446 C 0.55384 0.44484 0.08949 0.0
C447 C 0.54897 0.46882 0.08811 0.0
C448 C 0.59837 0.44289 0.07093 0.0
C449 C 0.52604 0.39856 0.06833 0.0
C450 C 0.53951 0.53759 0.12986 0.0
C451 C 0.53831 0.53832 0.14692 0.0
C452 C 0.54221 0.51758 0.15546 0.0
C453 C 0.54664 0.49612 0.14707 0.0
C454 C 0.54692 0.49525 0.12996 0.0
C455 C 0.54362 0.51595 0.12169 0.0
C456 C 0.54324 0.51117 0.10357 0.0
C457 C 0.54689 0.48411 0.10225 0.0
C458 C 0.54913 0.47492 0.1177 0.0
C459 C 0.57802 0.54291 0.09684 0.0
C460 C 0.50493 0.50056 0.09668 0.0
H461 H 0.56226 0.38652 0.08879 0.0
H462 H 0.57234 0.39799 0.14902 0.0
H463 H 0.49892 0.39499 0.13887 0.0
H464 H 0.50803 0.43164 0.14537 0.0
H465 H 0.52652 0.41539 0.15705 0.0
H466 H 0.61882 0.46821 0.13802 0.0
H467 H 0.59299 0.4554 0.15658 0.0
H468 H 0.59876 0.48681 0.14514 0.0
H469 H 0.56624 0.44218 0.03861 0.0
H470 H 0.54228 0.51124 0.03957 0.0
H471 H 0.53752 0.50928 0.06854 0.0
H472 H 0.62015 0.4695 0.07091 0.0
H473 H 0.60037 0.43246 0.05931 0.0
H474 H 0.60642 0.43477 0.08099 0.0
H475 H 0.50116 0.39606 0.06358 0.0
H476 H 0.51552 0.38315 0.07896 0.0
H477 H 0.53445 0.38844 0.05881 0.0
H478 H 0.57544 0.35518 0.10353 0.0
C479 C 0.56382 0.3893 0.1018 0.0
C480 C 0.30115 0.55425 0.16651 0.0
C481 C 0.29373 0.56642 0.15356 0.0
C482 C 0.33776 0.56529 0.16987 0.0
C483 C 0.42641 0.60085 0.14832 0.0
H484 H 0.45714 0.5907 0.18993 0.0
C485 C 0.54286 0.58855 0.1499 0.0
C486 C 0.52832 0.55782 0.1553 0.0
C487 C 0.52564 0.6029 0.15419 0.0
C488 C 0.44924 0.59415 0.1783 0.0
H489 H 0.31867 0.60119 0.1347 0.0
H490 H 0.38309 0.62152 0.1409 0.0
H491 H 0.40372 0.59228 0.18845 0.0
H492 H 0.48737 0.5199 0.171 0.0
H493 H 0.45746 0.54496 0.17854 0.0
H494 H 0.47099 0.60165 0.13809 0.0
C495 C 0.36056 0.60267 0.14816 0.0
C496 C 0.41848 0.59478 0.17739 0.0
C497 C 0.32376 0.59115 0.1446 0.0
C498 C 0.49926 0.54359 0.16666 0.0
C499 C 0.48212 0.55801 0.171 0.0
C500 C 0.45741 0.60072 0.14927 0.0
C501 C 0.3679 0.58913 0.1605 0.0
C502 C 0.40552 0.59647 0.16225 0.0
C503 C 0.49372 0.58682 0.16401 0.0
C504 C 0.46806 0.59585 0.16413 0.0
H505 H 0.27837 0.53499 0.17352 0.0
H506 H 0.34194 0.55375 0.17925 0.0
H507 H 0.41727 0.60183 0.1364 0.0
H508 H 0.5658 0.60039 0.14141 0.0
H509 H 0.53549 0.62538 0.14885 0.0
C510 C 0.70095 0.12974 0.49423 0.0
C511 C 0.66482 0.11995 0.49023 0.0
C512 C 0.73251 0.16196 0.49282 0.0
C513 C 0.76293 0.23408 0.47063 0.0
H514 H 0.84775 0.28004 0.50081 0.0
C515 C 0.88203 0.36717 0.46249 0.0
C516 C 0.91878 0.37668 0.46357 0.0
C517 C 0.85188 0.33754 0.46821 0.0
C518 C 0.82436 0.26744 0.49223 0.0
H519 H 0.63344 0.1368 0.4824 0.0
H520 H 0.68802 0.19261 0.48019 0.0
H521 H 0.79342 0.22463 0.50601 0.0
H522 H 0.95331 0.36362 0.47205 0.0
H523 H 0.90036 0.3113 0.48198 0.0
H524 H 0.79362 0.2763 0.45671 0.0
C525 C 0.69224 0.17538 0.48404 0.0
C526 C 0.79326 0.23569 0.49519 0.0
C527 C 0.66084 0.1433 0.48539 0.0
C528 C 0.92518 0.35687 0.47129 0.0
C529 C 0.89486 0.32695 0.47693 0.0
C530 C 0.79383 0.26562 0.46768 0.0
C531 C 0.72857 0.18505 0.4874 0.0
C532 C 0.76204 0.21871 0.48446 0.0
C533 C 0.8577 0.31647 0.47493 0.0
C534 C 0.82488 0.28287 0.47847 0.0
H535 H 0.70501 0.11237 0.49799 0.0
H536 H 0.76009 0.16852 0.49542 0.0
H537 H 0.73989 0.22153 0.46187 0.0
H538 H 0.87649 0.3821 0.45655 0.0
H539 H 0.82379 0.33065 0.46683 0.0
C540 C 0.59025 0.70463 0.82188 0.0
C541 C 0.62368 0.70848 0.81852 0.0
C542 C 0.58808 0.73001 0.81977 0.0
C543 C 0.63095 0.80204 0.79602 0.0
H544 H 0.58614 0.82743 0.82688 0.0
C545 C 0.63921 0.91365 0.78557 0.0
C546 C 0.60683 0.91155 0.78841 0.0
C547 C 0.64201 0.8903 0.79121 0.0
C548 C 0.59841 0.82042 0.81806 0.0
H549 H 0.68164 0.74276 0.81123 0.0
H550 H 0.67757 0.78653 0.80729 0.0
H551 H 0.5886 0.78308 0.83288 0.0
H552 H 0.55257 0.88436 0.79989 0.0
H553 H 0.55686 0.84276 0.80948 0.0
H554 H 0.64003 0.83844 0.78099 0.0
C555 C 0.65288 0.76376 0.81131 0.0
C556 C 0.59984 0.79506 0.82152 0.0
C557 C 0.65514 0.73859 0.8135 0.0
C558 C 0.57792 0.8865 0.79766 0.0
C559 C 0.58046 0.86276 0.80314 0.0
C560 C 0.62925 0.82707 0.79251 0.0
C561 C 0.61922 0.75964 0.81417 0.0
C562 C 0.6165 0.78586 0.81058 0.0
C563 C 0.61214 0.86391 0.79957 0.0
C564 C 0.61337 0.8369 0.80354 0.0
H565 H 0.56542 0.68173 0.82567 0.0
H566 H 0.56169 0.7261 0.82199 0.0
H567 H 0.64323 0.79506 0.78719 0.0
H568 H 0.662 0.93296 0.77857 0.0
H569 H 0.6673 0.89256 0.78865 0.0
C570 C 0.8282 0.40622 0.18908 0.0
C571 C 0.84612 0.43935 0.19184 0.0
C572 C 0.78903 0.38442 0.18799 0.0
C573 C 0.71625 0.35455 0.16974 0.0
H574 H 0.65107 0.37435 0.187 0.0
C575 C 0.62119 0.36229 0.12991 0.0
C576 C 0.59046 0.36005 0.13629 0.0
C577 C 0.64173 0.35651 0.13959 0.0
C578 C 0.6682 0.36759 0.18225 0.0
H579 H 0.83729 0.47534 0.19697 0.0
H580 H 0.7694 0.43783 0.19466 0.0
H581 H 0.70838 0.39372 0.20168 0.0
H582 H 0.55455 0.34638 0.15722 0.0
H583 H 0.59058 0.33624 0.1742 0.0
H584 H 0.6765 0.32909 0.15012 0.0
C585 C 0.78511 0.42823 0.19364 0.0
C586 C 0.70145 0.37915 0.19059 0.0
C587 C 0.82419 0.44992 0.1949 0.0
C588 C 0.5786 0.34894 0.15208 0.0
C589 C 0.5992 0.34311 0.1618 0.0
C590 C 0.68276 0.34262 0.16153 0.0
C591 C 0.76709 0.39542 0.18944 0.0
C592 C 0.7271 0.37468 0.18384 0.0
C593 C 0.63204 0.34831 0.15589 0.0
C594 C 0.65971 0.35094 0.16709 0.0
H595 H 0.84457 0.39742 0.18695 0.0
H596 H 0.77609 0.35924 0.18512 0.0
H597 H 0.73505 0.35036 0.16415 0.0
H598 H 0.6314 0.37112 0.11789 0.0
H599 H 0.66709 0.36122 0.13463 0.0
C600 C 0.43643 0.91437 0.47783 0.0
C601 C 0.46964 0.9235 0.48555 0.0
C602 C 0.40412 0.88232 0.47756 0.0
C603 C 0.37154 0.79866 0.48196 0.0
H604 H 0.27416 0.78085 0.48624 0.0
C605 C 0.23252 0.66809 0.47999 0.0
C606 C 0.20478 0.66312 0.46947 0.0
C607 C 0.26415 0.69948 0.48435 0.0
C608 C 0.30113 0.78541 0.48498 0.0
H609 H 0.49467 0.9058 0.49904 0.0
H610 H 0.43824 0.84995 0.49867 0.0
H611 H 0.33111 0.8363 0.48887 0.0
H612 H 0.18733 0.68693 0.45596 0.0
H613 H 0.2421 0.7414 0.46354 0.0
H614 H 0.34138 0.7477 0.47786 0.0
C615 C 0.43733 0.86757 0.49267 0.0
C616 C 0.33381 0.81722 0.48643 0.0
C617 C 0.4697 0.89968 0.49294 0.0
C618 C 0.20839 0.69005 0.46402 0.0
C619 C 0.23968 0.72128 0.46846 0.0
C620 C 0.3388 0.76678 0.48055 0.0
C621 C 0.40405 0.8585 0.48503 0.0
C622 C 0.36944 0.82435 0.48464 0.0
C623 C 0.26834 0.72643 0.47842 0.0
C624 C 0.30317 0.75983 0.48174 0.0
H625 H 0.43528 0.93197 0.47195 0.0
H626 H 0.37926 0.87617 0.47129 0.0
H627 H 0.39845 0.80324 0.48037 0.0
H628 H 0.23053 0.64776 0.4843 0.0
H629 H 0.28558 0.70266 0.49216 0.0
C630 C 0.52558 0.30009 0.85131 0.0
C631 C 0.55322 0.33147 0.84615 0.0
C632 C 0.52951 0.27563 0.84859 0.0
C633 C 0.59941 0.26125 0.83702 0.0
H634 H 0.51039 0.17611 0.82389 0.0
C635 C 0.60371 0.16464 0.80298 0.0
C636 C 0.5784 0.13254 0.80759 0.0
C637 C 0.60191 0.18858 0.80987 0.0
C638 C 0.53542 0.19963 0.82777 0.0
H639 H 0.60736 0.36175 0.83451 0.0
H640 H 0.61342 0.31894 0.82915 0.0
H641 H 0.50471 0.21858 0.83155 0.0
H642 H 0.53186 0.10037 0.82324 0.0
H643 H 0.52837 0.14233 0.83522 0.0
H644 H 0.63019 0.24238 0.83255 0.0
C645 C 0.58894 0.31328 0.83558 0.0
C646 C 0.53221 0.22403 0.8322 0.0
C647 C 0.58518 0.3378 0.83843 0.0
C648 C 0.5518 0.12497 0.81954 0.0
C649 C 0.54965 0.14889 0.82629 0.0
C650 C 0.60265 0.23692 0.83241 0.0
C651 C 0.56103 0.28177 0.84051 0.0
C652 C 0.56422 0.25529 0.83673 0.0
C653 C 0.57447 0.18088 0.8214 0.0
C654 C 0.57074 0.20595 0.82758 0.0
H655 H 0.50037 0.29413 0.85713 0.0
H656 H 0.50768 0.25183 0.85279 0.0
H657 H 0.62459 0.28477 0.84075 0.0
H658 H 0.62464 0.17116 0.79386 0.0
H659 H 0.6212 0.21294 0.80576 0.0
C660 C 0.57541 0.84474 0.5195 0.0
C661 C 0.59782 0.86656 0.5074 0.0
C662 C 0.57261 0.81674 0.52104 0.0
C663 C 0.62543 0.78484 0.51219 0.0
H664 H 0.53339 0.70378 0.52463 0.0
C665 C 0.56687 0.64693 0.52822 0.0
C666 C 0.59507 0.65481 0.53939 0.0
C667 C 0.56647 0.67123 0.52182 0.0
C668 C 0.55921 0.72611 0.52095 0.0
H669 H 0.63331 0.87506 0.4869 0.0
H670 H 0.62861 0.82635 0.48967 0.0
H671 H 0.53229 0.74844 0.51793 0.0
H672 H 0.64589 0.69421 0.55201 0.0
H673 H 0.6453 0.73647 0.54087 0.0
H674 H 0.65246 0.76271 0.51542 0.0
C675 C 0.61368 0.83119 0.49813 0.0
C676 C 0.55866 0.7518 0.51728 0.0
C677 C 0.61642 0.85914 0.49657 0.0
C678 C 0.62364 0.68743 0.54352 0.0
C679 C 0.62345 0.71164 0.53703 0.0
C680 C 0.62601 0.75924 0.51593 0.0
C681 C 0.59219 0.80988 0.51053 0.0
C682 C 0.59189 0.78164 0.5131 0.0
C683 C 0.59456 0.70385 0.52632 0.0
C684 C 0.59305 0.72976 0.52062 0.0
H685 H 0.56106 0.84985 0.52817 0.0
H686 H 0.5562 0.80107 0.53086 0.0
H687 H 0.65159 0.80753 0.50914 0.0
H688 H 0.54443 0.62196 0.52488 0.0
H689 H 0.544 0.6645 0.51349 0.0
C690 C 0.7172 0.54616 0.83792 0.0
C691 C 0.68004 0.51758 0.83784 0.0
C692 C 0.74814 0.54536 0.83845 0.0
C693 C 0.77309 0.48932 0.84697 0.0
H694 H 0.86986 0.5591 0.83048 0.0
C695 C 0.90676 0.49991 0.86157 0.0
C696 C 0.93807 0.51577 0.85126 0.0
C697 C 0.87542 0.49918 0.85865 0.0
C698 C 0.84303 0.53906 0.83498 0.0
H699 H 0.64673 0.46552 0.83777 0.0
H700 H 0.69991 0.46388 0.8379 0.0
H701 H 0.81616 0.55956 0.82746 0.0
H702 H 0.95929 0.54203 0.82912 0.0
H703 H 0.90383 0.53962 0.82355 0.0
H704 H 0.79925 0.46797 0.85376 0.0
C705 C 0.7057 0.48726 0.83821 0.0
C706 C 0.81199 0.53961 0.8335 0.0
C707 C 0.67483 0.48812 0.83798 0.0
C708 C 0.93593 0.52958 0.83738 0.0
C709 C 0.90413 0.52857 0.83433 0.0
C710 C 0.80387 0.48853 0.84822 0.0
C711 C 0.74311 0.51587 0.83865 0.0
C712 C 0.77639 0.51491 0.83964 0.0
C713 C 0.87338 0.51369 0.84505 0.0
C714 C 0.83972 0.51362 0.84251 0.0
H715 H 0.72249 0.56936 0.83794 0.0
H716 H 0.77602 0.5681 0.83907 0.0
H717 H 0.7468 0.46989 0.85213 0.0
H718 H 0.90658 0.4883 0.87222 0.0
H719 H 0.85319 0.48786 0.86746 0.0
C720 C 0.16839 0.64109 0.16676 0.0
C721 C 0.16812 0.61614 0.15942 0.0
C722 C 0.20077 0.67308 0.16669 0.0
C723 C 0.30399 0.72321 0.16221 0.0
H724 H 0.29402 0.7913 0.15699 0.0
C725 C 0.43316 0.85845 0.164 0.0
C726 C 0.42908 0.87813 0.17441 0.0
C727 C 0.40183 0.82697 0.15956 0.0
C728 C 0.29729 0.77258 0.15849 0.0
H729 H 0.20198 0.60541 0.14627 0.0
H730 H 0.25836 0.66129 0.14606 0.0
H731 H 0.23852 0.73513 0.15462 0.0
H732 H 0.38901 0.88109 0.18763 0.0
H733 H 0.33459 0.82659 0.17985 0.0
H734 H 0.36278 0.76082 0.16632 0.0
C735 C 0.23358 0.65605 0.152 0.0
C736 C 0.26544 0.74035 0.1572 0.0
C737 C 0.20114 0.624 0.15206 0.0
C738 C 0.39296 0.86638 0.17963 0.0
C739 C 0.36175 0.83519 0.17508 0.0
C740 C 0.33592 0.7555 0.16347 0.0
C741 C 0.23377 0.68104 0.15927 0.0
C742 C 0.26822 0.71524 0.15936 0.0
C743 C 0.36583 0.81483 0.16527 0.0
C744 C 0.33282 0.78058 0.16195 0.0
H745 H 0.14357 0.63599 0.17259 0.0
H746 H 0.20004 0.69158 0.17267 0.0
H747 H 0.30718 0.70454 0.16408 0.0
H748 H 0.46073 0.86688 0.1599 0.0
H749 H 0.40584 0.81196 0.15187 0.0
C750 C 0.57463 0.20613 0.48722 0.0
C751 C 0.54154 0.17892 0.47986 0.0
C752 C 0.57893 0.23479 0.49022 0.0
C753 C 0.52328 0.26592 0.49485 0.0
H754 H 0.62122 0.34894 0.49278 0.0
C755 C 0.54539 0.3865 0.50764 0.0
C756 C 0.57441 0.40771 0.51889 0.0
C757 C 0.5419 0.3597 0.50087 0.0
C758 C 0.5937 0.32591 0.49343 0.0
H759 H 0.48713 0.16094 0.46975 0.0
H760 H 0.49523 0.21117 0.47441 0.0
H761 H 0.61398 0.29995 0.48459 0.0
H762 H 0.62347 0.41842 0.53132 0.0
H763 H 0.61763 0.37192 0.51942 0.0
H764 H 0.50312 0.29206 0.50368 0.0
C765 C 0.51762 0.21018 0.47817 0.0
C766 C 0.58954 0.29779 0.48881 0.0
C767 C 0.51319 0.18142 0.47528 0.0
C768 C 0.60068 0.40233 0.52276 0.0
C769 C 0.59748 0.37584 0.51586 0.0
C770 C 0.52739 0.29409 0.49931 0.0
C771 C 0.55039 0.23717 0.48583 0.0
C772 C 0.55438 0.26734 0.4897 0.0
C773 C 0.56771 0.35392 0.50505 0.0
C774 C 0.56275 0.32435 0.49889 0.0
H775 H 0.59732 0.20533 0.4907 0.0
H776 H 0.60439 0.25487 0.49632 0.0
H777 H 0.49589 0.24297 0.49595 0.0
H778 H 0.52465 0.39 0.50452 0.0
H779 H 0.51881 0.34331 0.49249 0.0
C780 C 0.48989 0.5454 0.83733 0.0
C781 C 0.48679 0.51777 0.84117 0.0
C782 C 0.45845 0.54557 0.83796 0.0
C783 C 0.36066 0.49999 0.85492 0.0
H784 H 0.34959 0.54962 0.82521 0.0
C785 C 0.22375 0.48896 0.85366 0.0
C786 C 0.22713 0.5175 0.85279 0.0
C787 C 0.25448 0.48862 0.85049 0.0
C788 C 0.35225 0.53575 0.8337 0.0
H789 H 0.44728 0.46841 0.84843 0.0
H790 H 0.39291 0.46842 0.8492 0.0
H791 H 0.40453 0.55007 0.82351 0.0
H792 H 0.26572 0.56806 0.84768 0.0
H793 H 0.31927 0.56751 0.8418 0.0
H794 H 0.30851 0.48564 0.8651 0.0
C795 C 0.41974 0.4904 0.84606 0.0
C796 C 0.38403 0.53608 0.83276 0.0
C797 C 0.45113 0.4903 0.84551 0.0
C798 C 0.26177 0.54543 0.84794 0.0
C799 C 0.29263 0.54512 0.84472 0.0
C800 C 0.32891 0.49954 0.85579 0.0
C801 C 0.42272 0.51807 0.84239 0.0
C802 C 0.38884 0.51812 0.84335 0.0
C803 C 0.28988 0.51692 0.84647 0.0
C804 C 0.32397 0.51731 0.84518 0.0
H805 H 0.51677 0.56712 0.83396 0.0
H806 H 0.46244 0.56758 0.83523 0.0
H807 H 0.36332 0.48642 0.86361 0.0
H808 H 0.19779 0.46723 0.85776 0.0
H809 H 0.25074 0.46624 0.85169 0.0
C810 C 0.94266 0.41292 0.16639 0.0
C811 C 0.97262 0.4201 0.1566 0.0
C812 C 0.91079 0.38119 0.16795 0.0
C813 C 0.85797 0.29749 0.15036 0.0
H814 H 0.81698 0.27676 0.19372 0.0
C815 C 0.74034 0.16741 0.17278 0.0
C816 C 0.71433 0.16531 0.18352 0.0
C817 C 0.77059 0.19749 0.16719 0.0
C818 C 0.82778 0.28218 0.18149 0.0
H819 H 0.99217 0.39919 0.14059 0.0
H820 H 0.93658 0.3433 0.14368 0.0
H821 H 0.87271 0.33071 0.18872 0.0
H822 H 0.69752 0.19221 0.19572 0.0
H823 H 0.7496 0.24429 0.18585 0.0
H824 H 0.8128 0.24826 0.14335 0.0
C825 C 0.93763 0.36252 0.14991 0.0
C826 C 0.85979 0.31321 0.1786 0.0
C827 C 0.96959 0.39455 0.14821 0.0
C828 C 0.71745 0.19325 0.18759 0.0
C829 C 0.74739 0.22307 0.18202 0.0
C830 C 0.82583 0.26614 0.1533 0.0
C831 C 0.90806 0.35545 0.16002 0.0
C832 C 0.87501 0.32155 0.16295 0.0
C833 C 0.77515 0.22579 0.17229 0.0
C834 C 0.81004 0.25836 0.16887 0.0
H835 H 0.94393 0.43177 0.17315 0.0
H836 H 0.88833 0.37686 0.17556 0.0
H837 H 0.86887 0.30307 0.13815 0.0
H838 H 0.73861 0.1462 0.16954 0.0
H839 H 0.79152 0.19882 0.15969 0.0
C840 C 0.06505 0.50744 0.1063 0.0
C841 C 0.06489 0.53166 0.11428 0.0
C842 C 0.07138 0.5083 0.08958 0.0
C843 C 0.10855 0.56329 0.05504 0.0
H844 H 1.04821 0.48372 0.02876 0.0
C845 C 0.08981 0.55976 0.98567 0.0
C846 C 0.09002 0.53694 0.97611 0.0
C847 C 0.09079 0.55974 0.00261 0.0
C848 C 0.06566 0.50608 0.03595 0.0
H849 H 0.07115 0.57571 0.11114 0.0
H850 H 0.08126 0.57689 0.08195 0.0
H851 H 1.04181 0.48225 0.05823 0.0
H852 H 0.09198 0.49648 0.97678 0.0
H853 H 0.09359 0.49637 0.0065 0.0
H854 H 0.13156 0.58715 0.03267 0.0
C855 C 0.07734 0.55756 0.08858 0.0
C856 C 0.06204 0.50526 0.05286 0.0
C857 C 0.07122 0.55676 0.10529 0.0
C858 C 0.092 0.51446 0.98385 0.0
C859 C 0.0926 0.51423 0.00084 0.0
C860 C 0.11197 0.56411 0.03814 0.0
C861 C 0.07748 0.53333 0.08049 0.0
C862 C 0.08308 0.53391 0.0626 0.0
C863 C 0.09171 0.53673 0.01039 0.0
C864 C 0.09023 0.53557 0.0284 0.0
H865 H 0.0603 0.48782 0.11298 0.0
H866 H 0.07173 0.48946 0.0838 0.0
H867 H 0.12579 0.58574 0.06217 0.0
H868 H 0.08863 0.57755 0.98003 0.0
H869 H 0.08974 0.5772 0.00963 0.0
C870 C 0.61555 0.03549 0.43399 0.0
C871 C 0.5841 0.02174 0.44399 0.0
C872 C 0.61208 0.03694 0.41728 0.0
C873 C 0.54248 0.99737 0.38384 0.0
H874 H 0.61944 0.07221 0.36025 0.0
C875 C 0.52871 1.00499 0.31494 0.0
C876 C 0.56112 0.01736 0.3057 0.0
C877 C 0.53087 0.00741 0.33191 0.0
C878 C 0.59786 0.05103 0.36664 0.0
H879 H 0.52451 0.99927 0.44452 0.0
H880 H 0.51838 1.00188 0.41526 0.0
H881 H 0.62428 0.07319 0.38979 0.0
H882 H 0.62124 0.04204 0.30705 0.0
H883 H 0.62502 0.0461 0.33666 0.0
H884 H 0.51637 0.97496 0.36072 0.0
C885 C 0.54566 0.01126 0.42031 0.0
C886 C 0.60062 0.05161 0.38356 0.0
C887 C 0.54918 0.00991 0.43705 0.0
C888 C 0.59584 0.03264 0.31382 0.0
C889 C 0.598 0.03499 0.33079 0.0
C890 C 0.53976 0.99676 0.36692 0.0
C891 C 0.57703 0.02458 0.41022 0.0
C892 C 0.57312 0.02469 0.39234 0.0
C893 C 0.56549 0.0222 0.34005 0.0
C894 C 0.56758 0.02348 0.3581 0.0
H895 H 0.6428 0.04482 0.43906 0.0
H896 H 0.63669 0.04701 0.40983 0.0
H897 H 0.52112 0.97606 0.39022 0.0
H898 H 0.50164 0.99356 0.30904 0.0
H899 H 0.50541 0.99779 0.33866 0.0
C900 C 0.60547 0.5278 0.78775 0.0
C901 C 0.57053 0.50227 0.79377 0.0
C902 C 0.61072 0.53175 0.77098 0.0
C903 C 0.5775 0.48557 0.73268 0.0
H904 H 0.61221 0.56475 0.71225 0.0
C905 C 0.56679 0.48852 0.66363 0.0
C906 C 0.59499 0.51633 0.65565 0.0
C907 C 0.56591 0.48845 0.68056 0.0
C908 C 0.60313 0.54263 0.71776 0.0
H909 H 0.51371 0.46109 0.78709 0.0
H910 H 0.52322 0.46751 0.75786 0.0
H911 H 0.60783 0.56223 0.74187 0.0
H912 H 0.64442 0.56592 0.65906 0.0
H913 H 0.64376 0.56563 0.68876 0.0
H914 H 0.57351 0.46595 0.70887 0.0
C915 C 0.54638 0.48455 0.76608 0.0
C916 C 0.6005 0.54121 0.73471 0.0
C917 C 0.54095 0.48095 0.78279 0.0
C918 C 0.62226 0.54421 0.66495 0.0
C919 C 0.62174 0.54402 0.68195 0.0
C920 C 0.58068 0.4871 0.71582 0.0
C921 C 0.58133 0.50983 0.76002 0.0
C922 C 0.587 0.51247 0.74226 0.0
C923 C 0.59359 0.51607 0.68998 0.0
C924 C 0.5928 0.51543 0.70807 0.0
H925 H 0.62883 0.54439 0.79597 0.0
H926 H 0.63797 0.55134 0.76655 0.0
H927 H 0.56755 0.46327 0.73828 0.0
H928 H 0.54504 0.46688 0.65673 0.0
H929 H 0.54318 0.46674 0.68625 0.0
C930 C 0.58599 0.03256 0.53972 0.0
C931 C 0.55192 0.02328 0.53299 0.0
C932 C 0.58972 0.03161 0.55649 0.0
C933 C 0.53316 0.99816 0.59411 0.0
H934 H 0.6271 0.06638 0.61573 0.0
C935 C 0.5473 0.02718 0.66316 0.0
C936 C 0.57732 0.03101 0.67126 0.0
C937 C 0.54474 0.02452 0.64621 0.0
C938 C 0.60085 0.04702 0.60981 0.0
H939 H 0.49514 0.00601 0.53839 0.0
H940 H 0.5019 0.00549 0.56761 0.0
H941 H 0.62163 0.06501 0.58621 0.0
H942 H 0.62834 0.03532 0.66806 0.0
H943 H 0.62424 0.03128 0.63827 0.0
H944 H 0.5121 0.98104 0.61787 0.0
C945 C 0.5255 0.01256 0.56002 0.0
C946 C 0.5977 0.0461 0.59289 0.0
C947 C 0.52168 0.01312 0.54327 0.0
C948 C 0.60485 0.03225 0.66208 0.0
C949 C 0.60262 0.03012 0.6451 0.0
C950 C 0.53618 0.99938 0.61103 0.0
C951 C 0.55956 0.02177 0.56688 0.0
C952 C 0.56368 0.02182 0.58482 0.0
C953 C 0.57245 0.02611 0.63702 0.0
C954 C 0.56994 0.02395 0.61904 0.0
H955 H 0.60983 0.04068 0.53206 0.0
H956 H 0.6162 0.03848 0.56128 0.0
H957 H 0.50682 0.97866 0.58833 0.0
H958 H 0.52557 0.02591 0.66997 0.0
H959 H 0.52135 0.02168 0.64026 0.0
C960 C 0.6277 0.53957 0.89382 0.0
C961 C 0.59661 0.52784 0.88361 0.0
C962 C 0.62242 0.53063 0.90999 0.0
C963 C 0.55878 0.509 0.94305 0.0
H964 H 0.60664 0.47602 0.96323 0.0
C965 C 0.57771 0.51136 0.01208 0.0
C966 C 0.56143 0.48121 0.0188 0.0
C967 C 0.58129 0.5147 0.99532 0.0
C968 C 0.59302 0.48506 0.95768 0.0
H969 H 0.53578 0.49733 0.88206 0.0
H970 H 0.52661 0.48249 0.9105 0.0
H971 H 0.61425 0.48598 0.93399 0.0
H972 H 0.53727 0.4311 0.01294 0.0
H973 H 0.54516 0.43751 0.98353 0.0
H974 H 0.53868 0.50921 0.96677 0.0
C975 C 0.55495 0.49831 0.90595 0.0
C976 C 0.5975 0.49088 0.94106 0.0
C977 C 0.5602 0.50677 0.88973 0.0
C978 C 0.55021 0.45473 0.00826 0.0
C979 C 0.55452 0.45829 0.99144 0.0
C980 C 0.55495 0.50381 0.95968 0.0
C981 C 0.58601 0.51029 0.91623 0.0
C982 C 0.58045 0.50297 0.93364 0.0
C983 C 0.56951 0.4882 0.98487 0.0
C984 C 0.57215 0.49194 0.96713 0.0
H985 H 0.65604 0.55572 0.88933 0.0
H986 H 0.64678 0.54032 0.91775 0.0
H987 H 0.54558 0.51852 0.93761 0.0
H988 H 0.5878 0.53256 0.01977 0.0
H989 H 0.59344 0.53811 0.99049 0.0
C990 C 0.08443 0.5332 0.20912 0.0
C991 C 0.07935 0.50661 0.201 0.0
C992 C 0.08042 0.53367 0.22596 0.0
C993 C 0.08357 0.49763 0.26287 0.0
H994 H 1.03388 0.53119 0.28263 0.0
C995 C 0.05693 0.49256 0.33174 0.0
C996 C 0.06485 0.52061 0.3395 0.0
C997 C 1.05594 0.48934 0.31478 0.0
C998 C 1.04809 0.52198 0.2773 0.0
H999 H 0.06592 0.4596 0.20397 0.0
H1000 H 0.05872 0.46028 0.2334 0.0
H1001 H 1.03764 0.52859 0.25308 0.0
H1002 H 0.07664 0.56678 0.33552 0.0
H1003 H 0.07563 0.56142 0.30595 0.0
H1004 H 0.09437 0.49131 0.28704 0.0
C1005 C 0.06616 0.48093 0.22681 0.0
C1006 C 1.05026 0.52051 0.26038 0.0
C1007 C 0.07014 0.48047 0.20997 0.0
C1008 C 0.07093 0.54504 0.32991 0.0
C1009 C 0.06991 0.54181 0.31296 0.0
C1010 C 0.08141 0.49911 0.27977 0.0
C1011 C 0.07138 0.50758 0.23501 0.0
C1012 C 0.06818 0.50845 0.25297 0.0
C1013 C 0.06281 0.51407 0.3052 0.0
C1014 C 0.0638 0.51144 0.28719 0.0
H1015 H 0.09193 0.55381 0.20248 0.0
H1016 H 0.08515 0.55476 0.23194 0.0
H1017 H 0.09808 0.48868 0.25756 0.0
H1018 H 1.0524 0.4734 0.33876 0.0
H1019 H 1.04994 0.46749 0.30917 0.0
loop_
_geom_bond_atom_site_label_1
_geom_bond_atom_site_label_2
_geom_bond_distance
_geom_bond_site_symmetry_2
_ccdc_geom_bond_type
La0 C2 2.928 . S
La0 O20 2.521 . S
La0 O21 2.628 . S
La0 O22 2.554 . S
La0 O23 2.757 . S
La0 O24 2.470 . S
La0 O29 2.482 . S
La0 O31 2.503 1_455 S
La1 C11 2.928 . S
La1 O23 2.482 1_655 S
La1 O25 2.503 1_655 S
La1 O26 2.521 . S
La1 O27 2.628 . S
La1 O28 2.551 1_655 S
La1 O29 2.757 1_655 S
La1 O30 2.470 . S
C2 La0 2.928 . S
C2 C3 1.503 . S
C2 O20 1.261 . S
C2 O21 1.243 . S
C3 C2 1.503 . S
C3 C4 1.394 . S
C3 C8 1.373 . S
C4 C3 1.394 . S
C4 C5 1.380 . S
C4 H32 0.930 . S
C5 C4 1.380 . S
C5 C6 1.376 . S
C5 H33 0.930 . S
C6 C5 1.376 . S
C6 C7 1.370 . S
C7 C6 1.370 . S
C7 C8 1.396 . S
C7 H34 0.929 . S
C8 C3 1.373 . S
C8 C7 1.396 . S
C8 H35 0.929 . S
C9 O22 1.240 . S
C9 O23 1.289 . S
C10 O24 1.258 . S
C10 O25 1.256 . S
C11 La1 2.928 . S
C11 C12 1.503 . S
C11 O26 1.261 . S
C11 O27 1.243 . S
C12 C11 1.503 . S
C12 C13 1.394 . S
C12 C17 1.373 . S
C13 C12 1.394 . S
C13 C14 1.380 . S
C13 H36 0.930 . S
C14 C13 1.380 . S
C14 C15 1.376 . S
C14 H37 0.930 . S
C15 C14 1.376 . S
C15 C16 1.370 . S
C16 C15 1.370 . S
C16 C17 1.396 . S
C16 H38 0.929 . S
C17 C12 1.373 . S
C17 C16 1.396 . S
C17 H39 0.929 . S
C18 O28 1.251 . S
C18 O29 1.289 . S
C19 O30 1.258 . S
C19 O31 1.256 . S
O20 La0 2.521 . S
O20 C2 1.261 . S
O21 La0 2.628 . S
O21 C2 1.243 . S
O22 La0 2.554 . S
O22 C9 1.240 . S
O23 La0 2.757 . S
O23 La1 2.482 1_455 S
O23 C9 1.289 . S
O24 La0 2.470 . S
O24 C10 1.258 . S
O25 La1 2.503 1_455 S
O25 C10 1.256 . S
O26 La1 2.521 . S
O26 C11 1.261 . S
O27 La1 2.628 . S
O27 C11 1.243 . S
O28 La1 2.551 1_455 S
O28 C18 1.251 . S
O29 La0 2.482 . S
O29 La1 2.757 1_455 S
O29 C18 1.289 . S
O30 La1 2.470 . S
O30 C19 1.258 . S
O31 La0 2.503 1_655 S
O31 C19 1.256 . S
H32 C4 0.930 . S
H33 C5 0.930 . S
H34 C7 0.929 . S
H35 C8 0.929 . S
H36 C13 0.930 . S
H37 C14 0.930 . S
H38 C16 0.929 . S
H39 C17 0.929 . S
La40 C42 2.928 . S
La40 O60 2.521 . S
La40 O61 2.628 . S
La40 O62 2.554 . S
La40 O63 2.757 1_565 S
La40 O64 2.470 . S
La40 O69 2.493 . S
La40 O71 2.503 1_565 S
La41 C51 2.928 . S
La41 O63 2.482 . S
La41 O65 2.503 1_545 S
La41 O66 2.521 . S
La41 O67 2.628 . S
La41 O68 2.554 . S
La41 O69 2.740 1_545 S
La41 O70 2.470 . S
C42 La40 2.928 . S
C42 C43 1.503 . S
C42 O60 1.261 . S
C42 O61 1.243 . S
C43 C42 1.503 . S
C43 C44 1.394 . S
C43 C48 1.373 . S
C44 C43 1.394 . S
C44 C45 1.380 . S
C44 H72 0.930 . S
C45 C44 1.380 . S
C45 C46 1.376 . S
C45 H73 0.930 . S
C46 C45 1.376 . S
C46 C47 1.370 . S
C47 C46 1.370 . S
C47 C48 1.396 . S
C47 H74 0.929 . S
C48 C43 1.373 . S
C48 C47 1.396 . S
C48 H75 0.929 . S
C49 O62 1.240 1_545 S
C49 O63 1.289 . S
C50 O64 1.258 . S
C50 O65 1.256 . S
C51 La41 2.928 . S
C51 C52 1.503 . S
C51 O66 1.261 . S
C51 O67 1.243 . S
C52 C51 1.503 . S
C52 C53 1.394 . S
C52 C57 1.373 . S
C53 C52 1.394 . S
C53 C54 1.380 . S
C53 H76 0.930 . S
C54 C53 1.380 . S
C54 C55 1.376 . S
C54 H77 0.930 . S
C55 C54 1.376 . S
C55 C56 1.370 . S
C56 C55 1.370 . S
C56 C57 1.396 . S
C56 H78 0.929 . S
C57 C52 1.373 . S
C57 C56 1.396 . S
C57 H79 0.929 . S
C58 O68 1.240 . S
C58 O69 1.280 1_545 S
C59 O70 1.258 . S
C59 O71 1.256 . S
O60 La40 2.521 . S
O60 C42 1.261 . S
O61 La40 2.628 . S
O61 C42 1.243 . S
O62 La40 2.554 . S
O62 C49 1.240 1_565 S
O63 La40 2.757 1_545 S
O63 La41 2.482 . S
O63 C49 1.289 . S
O64 La40 2.470 . S
O64 C50 1.258 . S
O65 La41 2.503 1_565 S
O65 C50 1.256 . S
O66 La41 2.521 . S
O66 C51 1.261 . S
O67 La41 2.628 . S
O67 C51 1.243 . S
O68 La41 2.554 . S
O68 C58 1.240 . S
O69 La40 2.493 . S
O69 La41 2.740 1_565 S
O69 C58 1.280 1_565 S
O70 La41 2.470 . S
O70 C59 1.258 . S
O71 La40 2.503 1_545 S
O71 C59 1.256 . S
H72 C44 0.930 . S
H73 C45 0.930 . S
H74 C47 0.929 . S
H75 C48 0.929 . S
H76 C53 0.930 . S
H77 C54 0.930 . S
H78 C56 0.929 . S
H79 C57 0.929 . S
La80 C82 2.928 . S
La80 O100 2.521 . S
La80 O101 2.628 . S
La80 O102 2.554 . S
La80 O103 2.757 . S
La80 O104 2.470 . S
La80 O109 2.482 . S
La80 O111 2.503 . S
La81 C91 2.928 . S
La81 O103 2.482 . S
La81 O105 2.503 . S
La81 O106 2.521 . S
La81 O107 2.628 . S
La81 O108 2.554 . S
La81 O109 2.757 . S
La81 O110 2.470 . S
C82 La80 2.928 . S
C82 C83 1.503 . S
C82 O100 1.261 . S
C82 O101 1.243 . S
C83 C82 1.503 . S
C83 C84 1.394 . S
C83 C88 1.373 . S
C84 C83 1.394 . S
C84 C85 1.380 . S
C84 H112 0.930 . S
C85 C84 1.380 . S
C85 C86 1.376 . S
C85 H113 0.930 . S
C86 C85 1.376 . S
C86 C87 1.370 . S
C87 C86 1.370 . S
C87 C88 1.396 . S
C87 H114 0.929 . S
C88 C83 1.373 . S
C88 C87 1.396 . S
C88 H115 0.929 . S
C89 O102 1.240 . S
C89 O103 1.289 . S
C90 O104 1.258 . S
C90 O105 1.256 . S
C91 La81 2.928 . S
C91 C92 1.503 . S
C91 O106 1.261 . S
C91 O107 1.243 . S
C92 C91 1.503 . S
C92 C93 1.394 . S
C92 C97 1.373 . S
C93 C92 1.394 . S
C93 C94 1.380 . S
C93 H116 0.930 . S
C94 C93 1.380 . S
C94 C95 1.376 . S
C94 H117 0.930 . S
C95 C94 1.376 . S
C95 C96 1.370 . S
C96 C95 1.370 . S
C96 C97 1.396 . S
C96 H118 0.929 . S
C97 C92 1.373 . S
C97 C96 1.396 . S
C97 H119 0.929 . S
C98 O108 1.240 . S
C98 O109 1.289 . S
C99 O110 1.258 . S
C99 O111 1.256 . S
O100 La80 2.521 . S
O100 C82 1.261 . S
O101 La80 2.628 . S
O101 C82 1.243 . S
O102 La80 2.554 . S
O102 C89 1.240 . S
O103 La80 2.757 . S
O103 La81 2.482 . S
O103 C89 1.289 . S
O104 La80 2.470 . S
O104 C90 1.258 . S
O105 La81 2.503 . S
O105 C90 1.256 . S
O106 La81 2.521 . S
O106 C91 1.261 . S
O107 La81 2.628 . S
O107 C91 1.243 . S
O108 La81 2.554 . S
O108 C98 1.240 . S
O109 La80 2.482 . S
O109 La81 2.757 . S
O109 C98 1.289 . S
O110 La81 2.470 . S
O110 C99 1.258 . S
O111 La80 2.503 . S
O111 C99 1.256 . S
H112 C84 0.930 . S
H113 C85 0.930 . S
H114 C87 0.929 . S
H115 C88 0.929 . S
H116 C93 0.930 . S
H117 C94 0.930 . S
H118 C96 0.929 . S
H119 C97 0.929 . S
C120 C121 1.391 . S
C120 C124 1.391 . S
C120 H162 0.948 . S
C121 C120 1.391 . S
C121 C122 1.391 . S
C122 C121 1.391 . S
C122 H178 0.947 . S
C122 C179 1.392 . S
C123 C124 1.391 . S
C123 C127 1.397 . S
C123 C179 1.419 . S
C124 C120 1.391 . S
C124 C123 1.391 . S
C124 C125 1.399 . S
C125 C124 1.399 . S
C125 C128 1.396 . S
C125 C137 1.453 . S
C125 C138 1.684 . S
H126 C150 0.948 . S
C127 C123 1.397 . S
C127 C128 1.394 . S
C127 C146 1.723 . S
C128 C125 1.396 . S
C128 C127 1.394 . S
C128 C158 1.723 1_545 S
H129 C152 0.947 . S
H130 C153 0.948 . S
H131 C159 0.982 . S
H132 C160 0.979 . S
H133 C160 0.980 . S
H134 C160 0.983 . S
H135 C159 0.979 . S
H136 C159 0.977 . S
C137 C125 1.453 . S
C137 H166 0.982 . S
C137 H167 0.979 . S
C137 H168 0.966 1_545 S
C138 C125 1.684 . S
C138 H163 0.979 . S
C138 H164 0.980 . S
C138 H165 0.983 . S
C139 C140 1.391 . S
C139 C144 1.391 . S
C139 H169 0.948 . S
C140 C139 1.391 . S
C140 C141 1.391 1_545 S
C141 C140 1.391 1_565 S
C141 C142 1.392 . S
C141 H170 0.947 . S
C142 C141 1.392 . S
C142 C143 1.419 1_565 S
C142 H171 0.948 . S
C143 C142 1.419 1_545 S
C143 C144 1.391 . S
C143 C147 1.397 . S
C144 C139 1.391 . S
C144 C143 1.391 . S
C144 C145 1.399 . S
C145 C144 1.399 . S
C145 C146 1.396 . S
C145 C148 1.453 . S
C145 C149 1.684 . S
C146 C127 1.723 . S
C146 C145 1.396 . S
C146 C147 1.394 . S
C147 C143 1.397 . S
C147 C146 1.394 . S
C147 C157 1.723 1_545 S
C148 C145 1.453 . S
C148 H172 0.982 . S
C148 H173 0.979 . S
C148 H174 0.977 . S
C149 C145 1.684 . S
C149 H175 0.979 . S
C149 H176 0.980 . S
C149 H177 0.983 . S
C150 H126 0.948 . S
C150 C151 1.391 . S
C150 C155 1.391 . S
C151 C150 1.391 . S
C151 C152 1.391 . S
C152 H129 0.947 . S
C152 C151 1.391 . S
C152 C153 1.392 . S
C153 H130 0.948 . S
C153 C152 1.392 . S
C153 C154 1.419 . S
C154 C153 1.419 . S
C154 C155 1.391 . S
C154 C158 1.397 . S
C155 C150 1.391 . S
C155 C154 1.391 . S
C155 C156 1.399 . S
C156 C155 1.399 . S
C156 C157 1.396 . S
C156 C159 1.453 . S
C156 C160 1.684 . S
C157 C147 1.723 1_565 S
C157 C156 1.396 . S
C157 C158 1.394 . S
C158 C128 1.723 1_565 S
C158 C154 1.397 . S
C158 C157 1.394 . S
C159 H131 0.982 . S
C159 H135 0.979 . S
C159 H136 0.977 . S
C159 C156 1.453 . S
C160 H132 0.979 . S
C160 H133 0.980 . S
C160 H134 0.983 . S
C160 C156 1.684 . S
H161 C179 0.948 . S
H162 C120 0.948 . S
H163 C138 0.979 . S
H164 C138 0.980 . S
H165 C138 0.983 . S
H166 C137 0.982 . S
H167 C137 0.979 . S
H168 C137 0.966 1_565 S
H169 C139 0.948 . S
H170 C141 0.947 . S
H171 C142 0.948 . S
H172 C148 0.982 . S
H173 C148 0.979 . S
H174 C148 0.977 . S
H175 C149 0.979 . S
H176 C149 0.980 . S
H177 C149 0.983 . S
H178 C122 0.947 . S
C179 C122 1.392 . S
C179 C123 1.419 . S
C179 H161 0.948 . S
C180 C181 1.391 . S
C180 C184 1.391 . S
C180 H222 0.948 . S
C181 C180 1.391 . S
C181 C182 1.391 . S
C182 C181 1.391 . S
C182 H238 0.947 . S
C182 C239 1.392 . S
C183 C184 1.391 . S
C183 C187 1.397 . S
C183 C239 1.419 . S
C184 C180 1.391 . S
C184 C183 1.391 . S
C184 C185 1.399 . S
C185 C184 1.399 . S
C185 C188 1.396 . S
C185 C197 1.453 . S
C185 C198 1.684 . S
H186 C210 0.948 . S
C187 C183 1.397 . S
C187 C188 1.394 . S
C187 C206 1.723 . S
C188 C185 1.396 . S
C188 C187 1.394 . S
C188 C218 1.723 . S
H189 C212 0.947 . S
H190 C213 0.948 . S
H191 C219 0.982 . S
H192 C220 0.979 . S
H193 C220 0.980 . S
H194 C220 0.983 . S
H195 C219 0.979 . S
H196 C219 0.977 . S
C197 C185 1.453 . S
C197 H226 0.982 . S
C197 H227 0.979 . S
C197 H228 0.977 . S
C198 C185 1.684 . S
C198 H223 0.979 . S
C198 H224 0.980 . S
C198 H225 0.983 . S
C199 C200 1.391 . S
C199 C204 1.391 . S
C199 H229 0.948 . S
C200 C199 1.391 . S
C200 C201 1.391 . S
C201 C200 1.391 . S
C201 C202 1.392 . S
C201 H230 0.947 . S
C202 C201 1.392 . S
C202 C203 1.419 . S
C202 H231 0.948 . S
C203 C202 1.419 . S
C203 C204 1.391 . S
C203 C207 1.397 . S
C204 C199 1.391 . S
C204 C203 1.391 . S
C204 C205 1.399 . S
C205 C204 1.399 . S
C205 C206 1.396 . S
C205 C208 1.453 . S
C205 C209 1.684 . S
C206 C187 1.723 . S
C206 C205 1.396 . S
C206 C207 1.394 . S
C207 C203 1.397 . S
C207 C206 1.394 . S
C207 C217 1.723 . S
C208 C205 1.453 . S
C208 H232 0.982 . S
C208 H233 0.979 . S
C208 H234 0.977 . S
C209 C205 1.684 . S
C209 H235 0.979 . S
C209 H236 0.980 . S
C209 H237 0.983 . S
C210 H186 0.948 . S
C210 C211 1.391 . S
C210 C215 1.391 . S
C211 C210 1.391 . S
C211 C212 1.391 . S
C212 H189 0.947 . S
C212 C211 1.391 . S
C212 C213 1.392 . S
C213 H190 0.948 . S
C213 C212 1.392 . S
C213 C214 1.419 . S
C214 C213 1.419 . S
C214 C215 1.391 . S
C214 C218 1.397 . S
C215 C210 1.391 . S
C215 C214 1.391 . S
C215 C216 1.399 . S
C216 C215 1.399 . S
C216 C217 1.396 . S
C216 C219 1.453 . S
C216 C220 1.684 . S
C217 C207 1.723 . S
C217 C216 1.396 . S
C217 C218 1.394 . S
C218 C188 1.723 . S
C218 C214 1.397 . S
C218 C217 1.394 . S
C219 H191 0.982 . S
C219 H195 0.979 . S
C219 H196 0.977 . S
C219 C216 1.453 . S
C220 H192 0.979 . S
C220 H193 0.980 . S
C220 H194 0.983 . S
C220 C216 1.684 . S
H221 C239 0.948 . S
H222 C180 0.948 . S
H223 C198 0.979 . S
H224 C198 0.980 . S
H225 C198 0.983 . S
H226 C197 0.982 . S
H227 C197 0.979 . S
H228 C197 0.977 . S
H229 C199 0.948 . S
H230 C201 0.947 . S
H231 C202 0.948 . S
H232 C208 0.982 . S
H233 C208 0.979 . S
H234 C208 0.977 . S
H235 C209 0.979 . S
H236 C209 0.980 . S
H237 C209 0.983 . S
H238 C182 0.947 . S
C239 C182 1.392 . S
C239 C183 1.419 . S
C239 H221 0.948 . S
C240 C241 1.391 . S
C240 C244 1.391 . S
C240 H282 0.948 . S
C241 C240 1.391 . S
C241 C242 1.391 . S
C242 C241 1.391 . S
C242 H298 0.947 . S
C242 C299 1.392 . S
C243 C244 1.391 . S
C243 C247 1.397 . S
C243 C299 1.419 . S
C244 C240 1.391 . S
C244 C243 1.391 . S
C244 C245 1.399 . S
C245 C244 1.399 . S
C245 C248 1.396 . S
C245 C257 1.453 . S
C245 C258 1.684 . S
H246 C270 0.948 . S
C247 C243 1.397 . S
C247 C248 1.394 . S
C247 C266 1.723 . S
C248 C245 1.396 . S
C248 C247 1.394 . S
C248 C278 1.723 . S
H249 C272 0.947 . S
H250 C273 0.945 . S
H251 C279 0.982 . S
H252 C280 0.979 1_455 S
H253 C280 0.980 . S
H254 C280 0.983 . S
H255 C279 0.979 . S
H256 C279 0.977 . S
C257 C245 1.453 . S
C257 H286 0.982 . S
C257 H287 0.979 . S
C257 H288 0.977 . S
C258 C245 1.684 . S
C258 H283 0.979 . S
C258 H284 0.980 . S
C258 H285 0.983 . S
C259 C260 1.391 . S
C259 C264 1.391 . S
C259 H289 0.948 . S
C260 C259 1.391 . S
C260 C261 1.391 . S
C261 C260 1.391 . S
C261 C262 1.392 . S
C261 H290 0.947 1_455 S
C262 C261 1.392 . S
C262 C263 1.419 . S
C262 H291 0.948 1_455 S
C263 C262 1.419 . S
C263 C264 1.391 . S
C263 C267 1.397 . S
C264 C259 1.391 . S
C264 C263 1.391 . S
C264 C265 1.399 . S
C265 C264 1.399 . S
C265 C266 1.396 . S
C265 C268 1.453 . S
C265 C269 1.684 . S
C266 C247 1.723 . S
C266 C265 1.396 . S
C266 C267 1.394 . S
C267 C263 1.397 . S
C267 C266 1.394 . S
C267 C277 1.723 . S
C268 C265 1.453 . S
C268 H292 0.982 . S
C268 H293 0.979 . S
C268 H294 0.977 . S
C269 C265 1.684 . S
C269 H295 0.979 . S
C269 H296 0.980 . S
C269 H297 0.983 . S
C270 H246 0.948 . S
C270 C271 1.391 . S
C270 C275 1.391 . S
C271 C270 1.391 . S
C271 C272 1.391 . S
C272 H249 0.947 . S
C272 C271 1.391 . S
C272 C273 1.395 1_655 S
C273 H250 0.945 . S
C273 C272 1.395 1_455 S
C273 C274 1.419 1_455 S
C274 C273 1.419 1_655 S
C274 C275 1.403 . S
C274 C278 1.386 1_655 S
C275 C270 1.391 . S
C275 C274 1.403 . S
C275 C276 1.399 . S
C276 C275 1.399 . S
C276 C277 1.396 1_655 S
C276 C279 1.453 . S
C276 C280 1.684 . S
C277 C267 1.723 . S
C277 C276 1.396 1_455 S
C277 C278 1.394 . S
C278 C248 1.723 . S
C278 C274 1.386 1_455 S
C278 C277 1.394 . S
C279 H251 0.982 . S
C279 H255 0.979 . S
C279 H256 0.977 . S
C279 C276 1.453 . S
C280 H252 0.979 1_655 S
C280 H253 0.980 . S
C280 H254 0.983 . S
C280 C276 1.684 . S
H281 C299 0.948 . S
H282 C240 0.948 . S
H283 C258 0.979 . S
H284 C258 0.980 . S
H285 C258 0.983 . S
H286 C257 0.982 . S
H287 C257 0.979 . S
H288 C257 0.977 . S
H289 C259 0.948 . S
H290 C261 0.947 1_655 S
H291 C262 0.948 1_655 S
H292 C268 0.982 . S
H293 C268 0.979 . S
H294 C268 0.977 . S
H295 C269 0.979 . S
H296 C269 0.980 . S
H297 C269 0.983 . S
H298 C242 0.947 . S
C299 C242 1.392 . S
C299 C243 1.419 . S
C299 H281 0.948 . S
C300 C301 1.391 . S
C300 C304 1.391 . S
C300 H342 0.948 . S
C301 C300 1.391 . S
C301 C302 1.391 . S
C302 C301 1.391 . S
C302 H358 0.947 . S
C302 C359 1.392 . S
C303 C304 1.391 . S
C303 C307 1.397 . S
C303 C359 1.419 . S
C304 C300 1.391 . S
C304 C303 1.391 . S
C304 C305 1.399 . S
C305 C304 1.399 . S
C305 C308 1.396 . S
C305 C317 1.453 . S
C305 C318 1.684 . S
H306 C330 0.948 . S
C307 C303 1.397 . S
C307 C308 1.394 . S
C307 C326 1.723 . S
C308 C305 1.396 . S
C308 C307 1.394 . S
C308 C338 1.723 1_655 S
H309 C332 0.947 . S
H310 C333 0.948 . S
H311 C339 0.982 . S
H312 C340 0.979 . S
H313 C340 0.980 . S
H314 C340 0.983 . S
H315 C339 0.979 . S
H316 C339 0.977 . S
C317 C305 1.453 . S
C317 H346 0.982 1_655 S
C317 H347 0.979 . S
C317 H348 0.977 1_655 S
C318 C305 1.684 . S
C318 H343 0.979 . S
C318 H344 0.980 . S
C318 H345 0.983 . S
C319 C320 1.391 1_655 S
C319 C324 1.391 . S
C319 H349 0.948 . S
C320 C319 1.391 1_455 S
C320 C321 1.391 . S
C321 C320 1.391 . S
C321 C322 1.392 . S
C321 H350 0.947 . S
C322 C321 1.392 . S
C322 C323 1.419 . S
C322 H351 0.948 . S
C323 C322 1.419 . S
C323 C324 1.391 1_455 S
C323 C327 1.397 . S
C324 C319 1.391 . S
C324 C323 1.391 1_655 S
C324 C325 1.399 . S
C325 C324 1.399 . S
C325 C326 1.396 . S
C325 C328 1.453 . S
C325 C329 1.684 . S
C326 C307 1.723 . S
C326 C325 1.396 . S
C326 C327 1.394 1_655 S
C327 C323 1.397 . S
C327 C326 1.394 1_455 S
C327 C337 1.723 . S
C328 C325 1.453 . S
C328 H352 0.982 . S
C328 H353 0.979 . S
C328 H354 0.977 . S
C329 C325 1.684 . S
C329 H355 0.979 . S
C329 H356 0.980 . S
C329 H357 0.983 . S
C330 H306 0.948 . S
C330 C331 1.391 . S
C330 C335 1.391 . S
C331 C330 1.391 . S
C331 C332 1.391 . S
C332 H309 0.947 . S
C332 C331 1.391 . S
C332 C333 1.392 . S
C333 H310 0.948 . S
C333 C332 1.392 . S
C333 C334 1.419 . S
C334 C333 1.419 . S
C334 C335 1.391 . S
C334 C338 1.397 . S
C335 C330 1.391 . S
C335 C334 1.391 . S
C335 C336 1.399 . S
C336 C335 1.399 . S
C336 C337 1.396 . S
C336 C339 1.453 . S
C336 C340 1.684 . S
C337 C327 1.723 . S
C337 C336 1.396 . S
C337 C338 1.394 . S
C338 C308 1.723 1_455 S
C338 C334 1.397 . S
C338 C337 1.394 . S
C339 H311 0.982 . S
C339 H315 0.979 . S
C339 H316 0.977 . S
C339 C336 1.453 . S
C340 H312 0.979 . S
C340 H313 0.980 . S
C340 H314 0.983 . S
C340 C336 1.684 . S
H341 C359 0.948 . S
H342 C300 0.948 . S
H343 C318 0.979 . S
H344 C318 0.980 . S
H345 C318 0.983 . S
H346 C317 0.982 1_455 S
H347 C317 0.979 . S
H348 C317 0.977 1_455 S
H349 C319 0.948 . S
H350 C321 0.947 . S
H351 C322 0.948 . S
H352 C328 0.982 . S
H353 C328 0.979 . S
H354 C328 0.977 . S
H355 C329 0.979 . S
H356 C329 0.980 . S
H357 C329 0.983 . S
H358 C302 0.947 . S
C359 C302 1.392 . S
C359 C303 1.419 . S
C359 H341 0.948 . S
C360 C361 1.391 . S
C360 C364 1.391 . S
C360 H402 0.948 . S
C361 C360 1.391 . S
C361 C362 1.391 . S
C362 C361 1.391 . S
C362 H418 0.947 . S
C362 C419 1.392 . S
C363 C364 1.391 . S
C363 C367 1.397 . S
C363 C419 1.419 . S
C364 C360 1.391 . S
C364 C363 1.391 . S
C364 C365 1.399 . S
C365 C364 1.399 . S
C365 C368 1.396 . S
C365 C377 1.453 1_565 S
C365 C378 1.684 . S
H366 C390 0.948 . S
C367 C363 1.397 . S
C367 C368 1.394 . S
C367 C386 1.723 . S
C368 C365 1.396 . S
C368 C367 1.394 . S
C368 C398 1.723 1_565 S
H369 C392 0.947 . S
H370 C393 0.948 . S
H371 C399 0.982 . S
H372 C400 0.979 . S
H373 C400 0.980 . S
H374 C400 0.983 . S
H375 C399 0.979 . S
H376 C399 0.977 . S
C377 C365 1.453 1_545 S
C377 H406 0.982 . S
C377 H407 0.979 1_545 S
C377 H408 0.977 . S
C378 C365 1.684 . S
C378 H403 0.979 . S
C378 H404 0.980 . S
C378 H405 0.983 . S
C379 C380 1.389 1_565 S
C379 C384 1.391 . S
C379 H409 0.948 . S
C380 C379 1.389 1_545 S
C380 C381 1.394 . S
C381 C380 1.394 . S
C381 C382 1.392 . S
C381 H410 0.947 . S
C382 C381 1.392 . S
C382 C383 1.419 . S
C382 H411 0.948 . S
C383 C382 1.419 . S
C383 C384 1.391 1_545 S
C383 C387 1.397 . S
C384 C379 1.391 . S
C384 C383 1.391 1_565 S
C384 C385 1.399 . S
C385 C384 1.399 . S
C385 C386 1.396 . S
C385 C388 1.453 . S
C385 C389 1.684 . S
C386 C367 1.723 . S
C386 C385 1.396 . S
C386 C387 1.394 1_565 S
C387 C383 1.397 . S
C387 C386 1.394 1_545 S
C387 C397 1.723 . S
C388 C385 1.453 . S
C388 H412 0.982 . S
C388 H413 0.979 . S
C388 H414 0.977 . S
C389 C385 1.684 . S
C389 H415 0.979 . S
C389 H416 0.980 . S
C389 H417 0.983 . S
C390 H366 0.948 . S
C390 C391 1.391 . S
C390 C395 1.391 . S
C391 C390 1.391 . S
C391 C392 1.391 . S
C392 H369 0.947 . S
C392 C391 1.391 . S
C392 C393 1.392 . S
C393 H370 0.948 . S
C393 C392 1.392 . S
C393 C394 1.419 . S
C394 C393 1.419 . S
C394 C395 1.391 . S
C394 C398 1.397 . S
C395 C390 1.391 . S
C395 C394 1.391 . S
C395 C396 1.399 . S
C396 C395 1.399 . S
C396 C397 1.396 . S
C396 C399 1.453 . S
C396 C400 1.684 . S
C397 C387 1.723 . S
C397 C396 1.396 . S
C397 C398 1.394 . S
C398 C368 1.723 1_545 S
C398 C394 1.397 . S
C398 C397 1.394 . S
C399 H371 0.982 . S
C399 H375 0.979 . S
C399 H376 0.977 . S
C399 C396 1.453 . S
C400 H372 0.979 . S
C400 H373 0.980 . S
C400 H374 0.983 . S
C400 C396 1.684 . S
H401 C419 0.948 . S
H402 C360 0.948 . S
H403 C378 0.979 . S
H404 C378 0.980 . S
H405 C378 0.983 . S
H406 C377 0.982 . S
H407 C377 0.979 1_565 S
H408 C377 0.977 . S
H409 C379 0.948 . S
H410 C381 0.947 . S
H411 C382 0.948 . S
H412 C388 0.982 . S
H413 C388 0.979 . S
H414 C388 0.977 . S
H415 C389 0.979 . S
H416 C389 0.980 . S
H417 C389 0.983 . S
H418 C362 0.947 . S
C419 C362 1.392 . S
C419 C363 1.419 . S
C419 H401 0.948 . S
C420 C421 1.391 . S
C420 C424 1.391 . S
C420 H462 0.948 . S
C421 C420 1.391 . S
C421 C422 1.391 . S
C422 C421 1.391 . S
C422 H478 0.947 . S
C422 C479 1.392 . S
C423 C424 1.391 . S
C423 C427 1.397 . S
C423 C479 1.419 . S
C424 C420 1.391 . S
C424 C423 1.391 . S
C424 C425 1.399 . S
C425 C424 1.399 . S
C425 C428 1.396 . S
C425 C437 1.453 . S
C425 C438 1.684 . S
H426 C450 0.948 . S
C427 C423 1.397 . S
C427 C428 1.394 . S
C427 C446 1.723 . S
C428 C425 1.396 . S
C428 C427 1.394 . S
C428 C458 1.723 . S
H429 C452 0.947 . S
H430 C453 0.948 . S
H431 C459 0.982 . S
H432 C460 0.979 . S
H433 C460 0.980 . S
H434 C460 0.983 . S
H435 C459 0.979 . S
H436 C459 0.977 . S
C437 C425 1.453 . S
C437 H466 0.982 . S
C437 H467 0.979 . S
C437 H468 0.977 . S
C438 C425 1.684 . S
C438 H463 0.979 . S
C438 H464 0.980 . S
C438 H465 0.983 . S
C439 C440 1.391 . S
C439 C444 1.391 . S
C439 H469 0.948 . S
C440 C439 1.391 . S
C440 C441 1.391 . S
C441 C440 1.391 . S
C441 C442 1.392 . S
C441 H470 0.947 . S
C442 C441 1.392 . S
C442 C443 1.419 . S
C442 H471 0.948 . S
C443 C442 1.419 . S
C443 C444 1.391 . S
C443 C447 1.397 . S
C444 C439 1.391 . S
C444 C443 1.391 . S
C444 C445 1.399 . S
C445 C444 1.399 . S
C445 C446 1.396 . S
C445 C448 1.453 . S
C445 C449 1.684 . S
C446 C427 1.723 . S
C446 C445 1.396 . S
C446 C447 1.394 . S
C447 C443 1.397 . S
C447 C446 1.394 . S
C447 C457 1.723 . S
C448 C445 1.453 . S
C448 H472 0.982 . S
C448 H473 0.979 . S
C448 H474 0.977 . S
C449 C445 1.684 . S
C449 H475 0.979 . S
C449 H476 0.980 . S
C449 H477 0.983 . S
C450 H426 0.948 . S
C450 C451 1.391 . S
C450 C455 1.391 . S
C451 C450 1.391 . S
C451 C452 1.391 . S
C452 H429 0.947 . S
C452 C451 1.391 . S
C452 C453 1.392 . S
C453 H430 0.948 . S
C453 C452 1.392 . S
C453 C454 1.419 . S
C454 C453 1.419 . S
C454 C455 1.391 . S
C454 C458 1.397 . S
C455 C450 1.391 . S
C455 C454 1.391 . S
C455 C456 1.399 . S
C456 C455 1.399 . S
C456 C457 1.396 . S
C456 C459 1.453 . S
C456 C460 1.684 . S
C457 C447 1.723 . S
C457 C456 1.396 . S
C457 C458 1.394 . S
C458 C428 1.723 . S
C458 C454 1.397 . S
C458 C457 1.394 . S
C459 H431 0.982 . S
C459 H435 0.979 . S
C459 H436 0.977 . S
C459 C456 1.453 . S
C460 H432 0.979 . S
C460 H433 0.980 . S
C460 H434 0.983 . S
C460 C456 1.684 . S
H461 C479 0.948 . S
H462 C420 0.948 . S
H463 C438 0.979 . S
H464 C438 0.980 . S
H465 C438 0.983 . S
H466 C437 0.982 . S
H467 C437 0.979 . S
H468 C437 0.977 . S
H469 C439 0.948 . S
H470 C441 0.947 . S
H471 C442 0.948 . S
H472 C448 0.982 . S
H473 C448 0.979 . S
H474 C448 0.977 . S
H475 C449 0.979 . S
H476 C449 0.980 . S
H477 C449 0.983 . S
H478 C422 0.947 . S
C479 C422 1.392 . S
C479 C423 1.419 . S
C479 H461 0.948 . S
C480 C481 1.349 . S
C480 C482 1.327 . S
C480 H505 0.950 . S
C481 C480 1.349 . S
C481 C497 1.349 . S
C482 C480 1.327 . S
C482 C501 1.429 . S
C482 H506 0.950 . S
C483 C500 1.574 . S
C483 C502 1.368 . S
C483 H507 0.949 . S
H484 C488 0.949 . S
C485 C486 1.349 . S
C485 C487 1.327 . S
C485 H508 0.950 . S
C486 C485 1.349 . S
C486 C498 1.349 . S
C487 C485 1.327 . S
C487 C503 1.429 . S
C487 H509 0.950 . S
C488 H484 0.949 . S
C488 C496 1.574 . S
C488 C504 1.368 . S
H489 C497 0.950 . S
H490 C495 0.950 . S
H491 C496 0.949 . S
H492 C498 0.950 . S
H493 C499 0.950 . S
H494 C500 0.949 . S
C495 H490 0.950 . S
C495 C497 1.327 . S
C495 C501 1.429 . S
C496 C488 1.574 . S
C496 H491 0.949 . S
C496 C502 1.368 . S
C497 C481 1.349 . S
C497 H489 0.950 . S
C497 C495 1.327 . S
C498 C486 1.349 . S
C498 H492 0.950 . S
C498 C499 1.327 . S
C499 H493 0.950 . S
C499 C498 1.327 . S
C499 C503 1.429 . S
C500 C483 1.574 . S
C500 H494 0.949 . S
C500 C504 1.368 . S
C501 C482 1.429 . S
C501 C495 1.429 . S
C501 C502 1.523 . S
C502 C483 1.368 . S
C502 C496 1.368 . S
C502 C501 1.523 . S
C503 C487 1.429 . S
C503 C499 1.429 . S
C503 C504 1.523 . S
C504 C488 1.368 . S
C504 C500 1.368 . S
C504 C503 1.523 . S
H505 C480 0.950 . S
H506 C482 0.950 . S
H507 C483 0.949 . S
H508 C485 0.950 . S
H509 C487 0.950 . S
C510 C511 1.349 . S
C510 C512 1.327 . S
C510 H535 0.950 . S
C511 C510 1.349 . S
C511 C527 1.349 . S
C512 C510 1.327 . S
C512 C531 1.429 . S
C512 H536 0.950 . S
C513 C530 1.574 . S
C513 C532 1.368 . S
C513 H537 0.949 . S
H514 C518 0.949 . S
C515 C516 1.349 . S
C515 C517 1.327 . S
C515 H538 0.950 . S
C516 C515 1.349 . S
C516 C528 1.349 . S
C517 C515 1.327 . S
C517 C533 1.429 . S
C517 H539 0.950 . S
C518 H514 0.949 . S
C518 C526 1.574 . S
C518 C534 1.368 . S
H519 C527 0.950 . S
H520 C525 0.950 . S
H521 C526 0.949 . S
H522 C528 0.950 . S
H523 C529 0.950 . S
H524 C530 0.949 . S
C525 H520 0.950 . S
C525 C527 1.327 . S
C525 C531 1.429 . S
C526 C518 1.574 . S
C526 H521 0.949 . S
C526 C532 1.368 . S
C527 C511 1.349 . S
C527 H519 0.950 . S
C527 C525 1.327 . S
C528 C516 1.349 . S
C528 H522 0.950 . S
C528 C529 1.327 . S
C529 H523 0.950 . S
C529 C528 1.327 . S
C529 C533 1.429 . S
C530 C513 1.574 . S
C530 H524 0.949 . S
C530 C534 1.368 . S
C531 C512 1.429 . S
C531 C525 1.429 . S
C531 C532 1.523 . S
C532 C513 1.368 . S
C532 C526 1.368 . S
C532 C531 1.523 . S
C533 C517 1.429 . S
C533 C529 1.429 . S
C533 C534 1.523 . S
C534 C518 1.368 . S
C534 C530 1.368 . S
C534 C533 1.523 . S
H535 C510 0.950 . S
H536 C512 0.950 . S
H537 C513 0.949 . S
H538 C515 0.950 . S
H539 C517 0.950 . S
C540 C541 1.349 . S
C540 C542 1.327 . S
C540 H565 0.950 . S
C541 C540 1.349 . S
C541 C557 1.349 . S
C542 C540 1.327 . S
C542 C561 1.429 . S
C542 H566 0.950 . S
C543 C560 1.574 . S
C543 C562 1.368 . S
C543 H567 0.949 . S
H544 C548 0.949 . S
C545 C546 1.349 . S
C545 C547 1.327 . S
C545 H568 0.950 . S
C546 C545 1.349 . S
C546 C558 1.349 . S
C547 C545 1.327 . S
C547 C563 1.429 . S
C547 H569 0.950 . S
C548 H544 0.949 . S
C548 C556 1.574 . S
C548 C564 1.368 . S
H549 C557 0.950 . S
H550 C555 0.950 . S
H551 C556 0.949 . S
H552 C558 0.950 . S
H553 C559 0.950 . S
H554 C560 0.949 . S
C555 H550 0.950 . S
C555 C557 1.327 . S
C555 C561 1.429 . S
C556 C548 1.574 . S
C556 H551 0.949 . S
C556 C562 1.368 . S
C557 C541 1.349 . S
C557 H549 0.950 . S
C557 C555 1.327 . S
C558 C546 1.349 . S
C558 H552 0.950 . S
C558 C559 1.327 . S
C559 H553 0.950 . S
C559 C558 1.327 . S
C559 C563 1.429 . S
C560 C543 1.574 . S
C560 H554 0.949 . S
C560 C564 1.368 . S
C561 C542 1.429 . S
C561 C555 1.429 . S
C561 C562 1.523 . S
C562 C543 1.368 . S
C562 C556 1.368 . S
C562 C561 1.523 . S
C563 C547 1.429 . S
C563 C559 1.429 . S
C563 C564 1.523 . S
C564 C548 1.368 . S
C564 C560 1.368 . S
C564 C563 1.523 . S
H565 C540 0.950 . S
H566 C542 0.950 . S
H567 C543 0.949 . S
H568 C545 0.950 . S
H569 C547 0.950 . S
C570 C571 1.349 . S
C570 C572 1.327 . S
C570 H595 0.950 . S
C571 C570 1.349 . S
C571 C587 1.349 . S
C572 C570 1.327 . S
C572 C591 1.429 . S
C572 H596 0.950 . S
C573 C590 1.574 . S
C573 C592 1.368 . S
C573 H597 0.949 . S
H574 C578 0.949 . S
C575 C576 1.349 . S
C575 C577 1.327 . S
C575 H598 0.950 . S
C576 C575 1.349 . S
C576 C588 1.349 . S
C577 C575 1.327 . S
C577 C593 1.429 . S
C577 H599 0.950 . S
C578 H574 0.949 . S
C578 C586 1.574 . S
C578 C594 1.368 . S
H579 C587 0.950 . S
H580 C585 0.950 . S
H581 C586 0.949 . S
H582 C588 0.950 . S
H583 C589 0.950 . S
H584 C590 0.949 . S
C585 H580 0.950 . S
C585 C587 1.327 . S
C585 C591 1.429 . S
C586 C578 1.574 . S
C586 H581 0.949 . S
C586 C592 1.368 . S
C587 C571 1.349 . S
C587 H579 0.950 . S
C587 C585 1.327 . S
C588 C576 1.349 . S
C588 H582 0.950 . S
C588 C589 1.327 . S
C589 H583 0.950 . S
C589 C588 1.327 . S
C589 C593 1.429 . S
C590 C573 1.574 . S
C590 H584 0.949 . S
C590 C594 1.368 . S
C591 C572 1.429 . S
C591 C585 1.429 . S
C591 C592 1.523 . S
C592 C573 1.368 . S
C592 C586 1.368 . S
C592 C591 1.523 . S
C593 C577 1.429 . S
C593 C589 1.429 . S
C593 C594 1.523 . S
C594 C578 1.368 . S
C594 C590 1.368 . S
C594 C593 1.523 . S
H595 C570 0.950 . S
H596 C572 0.950 . S
H597 C573 0.949 . S
H598 C575 0.950 . S
H599 C577 0.950 . S
C600 C601 1.349 . S
C600 C602 1.327 . S
C600 H625 0.950 . S
C601 C600 1.349 . S
C601 C617 1.349 . S
C602 C600 1.327 . S
C602 C621 1.429 . S
C602 H626 0.950 . S
C603 C620 1.574 . S
C603 C622 1.368 . S
C603 H627 0.949 . S
H604 C608 0.949 . S
C605 C606 1.349 . S
C605 C607 1.327 . S
C605 H628 0.950 . S
C606 C605 1.349 . S
C606 C618 1.349 . S
C607 C605 1.327 . S
C607 C623 1.429 . S
C607 H629 0.950 . S
C608 H604 0.949 . S
C608 C616 1.574 . S
C608 C624 1.368 . S
H609 C617 0.950 . S
H610 C615 0.950 . S
H611 C616 0.949 . S
H612 C618 0.950 . S
H613 C619 0.950 . S
H614 C620 0.949 . S
C615 H610 0.950 . S
C615 C617 1.327 . S
C615 C621 1.429 . S
C616 C608 1.574 . S
C616 H611 0.949 . S
C616 C622 1.368 . S
C617 C601 1.349 . S
C617 H609 0.950 . S
C617 C615 1.327 . S
C618 C606 1.349 . S
C618 H612 0.950 . S
C618 C619 1.327 . S
C619 H613 0.950 . S
C619 C618 1.327 . S
C619 C623 1.429 . S
C620 C603 1.574 . S
C620 H614 0.949 . S
C620 C624 1.368 . S
C621 C602 1.429 . S
C621 C615 1.429 . S
C621 C622 1.523 . S
C622 C603 1.368 . S
C622 C616 1.368 . S
C622 C621 1.523 . S
C623 C607 1.429 . S
C623 C619 1.429 . S
C623 C624 1.523 . S
C624 C608 1.368 . S
C624 C620 1.368 . S
C624 C623 1.523 . S
H625 C600 0.950 . S
H626 C602 0.950 . S
H627 C603 0.949 . S
H628 C605 0.950 . S
H629 C607 0.950 . S
C630 C631 1.349 . S
C630 C632 1.327 . S
C630 H655 0.950 . S
C631 C630 1.349 . S
C631 C647 1.349 . S
C632 C630 1.327 . S
C632 C651 1.429 . S
C632 H656 0.950 . S
C633 C650 1.574 . S
C633 C652 1.368 . S
C633 H657 0.949 . S
H634 C638 0.949 . S
C635 C636 1.349 . S
C635 C637 1.327 . S
C635 H658 0.950 . S
C636 C635 1.349 . S
C636 C648 1.349 . S
C637 C635 1.327 . S
C637 C653 1.429 . S
C637 H659 0.950 . S
C638 H634 0.949 . S
C638 C646 1.574 . S
C638 C654 1.368 . S
H639 C647 0.950 . S
H640 C645 0.950 . S
H641 C646 0.949 . S
H642 C648 0.950 . S
H643 C649 0.950 . S
H644 C650 0.949 . S
C645 H640 0.950 . S
C645 C647 1.327 . S
C645 C651 1.429 . S
C646 C638 1.574 . S
C646 H641 0.949 . S
C646 C652 1.368 . S
C647 C631 1.349 . S
C647 H639 0.950 . S
C647 C645 1.327 . S
C648 C636 1.349 . S
C648 H642 0.950 . S
C648 C649 1.327 . S
C649 H643 0.950 . S
C649 C648 1.327 . S
C649 C653 1.429 . S
C650 C633 1.574 . S
C650 H644 0.949 . S
C650 C654 1.368 . S
C651 C632 1.429 . S
C651 C645 1.429 . S
C651 C652 1.523 . S
C652 C633 1.368 . S
C652 C646 1.368 . S
C652 C651 1.523 . S
C653 C637 1.429 . S
C653 C649 1.429 . S
C653 C654 1.523 . S
C654 C638 1.368 . S
C654 C650 1.368 . S
C654 C653 1.523 . S
H655 C630 0.950 . S
H656 C632 0.950 . S
H657 C633 0.949 . S
H658 C635 0.950 . S
H659 C637 0.950 . S
C660 C661 1.349 . S
C660 C662 1.327 . S
C660 H685 0.950 . S
C661 C660 1.349 . S
C661 C677 1.349 . S
C662 C660 1.327 . S
C662 C681 1.429 . S
C662 H686 0.950 . S
C663 C680 1.574 . S
C663 C682 1.368 . S
C663 H687 0.949 . S
H664 C668 0.949 . S
C665 C666 1.349 . S
C665 C667 1.327 . S
C665 H688 0.950 . S
C666 C665 1.349 . S
C666 C678 1.349 . S
C667 C665 1.327 . S
C667 C683 1.429 . S
C667 H689 0.950 . S
C668 H664 0.949 . S
C668 C676 1.574 . S
C668 C684 1.368 . S
H669 C677 0.950 . S
H670 C675 0.950 . S
H671 C676 0.949 . S
H672 C678 0.950 . S
H673 C679 0.950 . S
H674 C680 0.949 . S
C675 H670 0.950 . S
C675 C677 1.327 . S
C675 C681 1.429 . S
C676 C668 1.574 . S
C676 H671 0.949 . S
C676 C682 1.368 . S
C677 C661 1.349 . S
C677 H669 0.950 . S
C677 C675 1.327 . S
C678 C666 1.349 . S
C678 H672 0.950 . S
C678 C679 1.327 . S
C679 H673 0.950 . S
C679 C678 1.327 . S
C679 C683 1.429 . S
C680 C663 1.574 . S
C680 H674 0.949 . S
C680 C684 1.368 . S
C681 C662 1.429 . S
C681 C675 1.429 . S
C681 C682 1.523 . S
C682 C663 1.368 . S
C682 C676 1.368 . S
C682 C681 1.523 . S
C683 C667 1.429 . S
C683 C679 1.429 . S
C683 C684 1.523 . S
C684 C668 1.368 . S
C684 C680 1.368 . S
C684 C683 1.523 . S
H685 C660 0.950 . S
H686 C662 0.950 . S
H687 C663 0.949 . S
H688 C665 0.950 . S
H689 C667 0.950 . S
C690 C691 1.349 . S
C690 C692 1.327 . S
C690 H715 0.950 . S
C691 C690 1.349 . S
C691 C707 1.349 . S
C692 C690 1.327 . S
C692 C711 1.429 . S
C692 H716 0.950 . S
C693 C710 1.574 . S
C693 C712 1.368 . S
C693 H717 0.949 . S
H694 C698 0.949 . S
C695 C696 1.349 . S
C695 C697 1.327 . S
C695 H718 0.950 . S
C696 C695 1.349 . S
C696 C708 1.349 . S
C697 C695 1.327 . S
C697 C713 1.429 . S
C697 H719 0.950 . S
C698 H694 0.949 . S
C698 C706 1.574 . S
C698 C714 1.368 . S
H699 C707 0.950 . S
H700 C705 0.950 . S
H701 C706 0.949 . S
H702 C708 0.950 . S
H703 C709 0.950 . S
H704 C710 0.949 . S
C705 H700 0.950 . S
C705 C707 1.327 . S
C705 C711 1.429 . S
C706 C698 1.574 . S
C706 H701 0.949 . S
C706 C712 1.368 . S
C707 C691 1.349 . S
C707 H699 0.950 . S
C707 C705 1.327 . S
C708 C696 1.349 . S
C708 H702 0.950 . S
C708 C709 1.327 . S
C709 H703 0.950 . S
C709 C708 1.327 . S
C709 C713 1.429 . S
C710 C693 1.574 . S
C710 H704 0.949 . S
C710 C714 1.368 . S
C711 C692 1.429 . S
C711 C705 1.429 . S
C711 C712 1.523 . S
C712 C693 1.368 . S
C712 C706 1.368 . S
C712 C711 1.523 . S
C713 C697 1.429 . S
C713 C709 1.429 . S
C713 C714 1.523 . S
C714 C698 1.368 . S
C714 C710 1.368 . S
C714 C713 1.523 . S
H715 C690 0.950 . S
H716 C692 0.950 . S
H717 C693 0.949 . S
H718 C695 0.950 . S
H719 C697 0.950 . S
C720 C721 1.349 . S
C720 C722 1.327 . S
C720 H745 0.950 . S
C721 C720 1.349 . S
C721 C737 1.349 . S
C722 C720 1.327 . S
C722 C741 1.429 . S
C722 H746 0.950 . S
C723 C740 1.574 . S
C723 C742 1.368 . S
C723 H747 0.949 . S
H724 C728 0.949 . S
C725 C726 1.349 . S
C725 C727 1.327 . S
C725 H748 0.950 . S
C726 C725 1.349 . S
C726 C738 1.349 . S
C727 C725 1.327 . S
C727 C743 1.429 . S
C727 H749 0.950 . S
C728 H724 0.949 . S
C728 C736 1.574 . S
C728 C744 1.368 . S
H729 C737 0.950 . S
H730 C735 0.950 . S
H731 C736 0.949 . S
H732 C738 0.950 . S
H733 C739 0.950 . S
H734 C740 0.949 . S
C735 H730 0.950 . S
C735 C737 1.327 . S
C735 C741 1.429 . S
C736 C728 1.574 . S
C736 H731 0.949 . S
C736 C742 1.368 . S
C737 C721 1.349 . S
C737 H729 0.950 . S
C737 C735 1.327 . S
C738 C726 1.349 . S
C738 H732 0.950 . S
C738 C739 1.327 . S
C739 H733 0.950 . S
C739 C738 1.327 . S
C739 C743 1.429 . S
C740 C723 1.574 . S
C740 H734 0.949 . S
C740 C744 1.368 . S
C741 C722 1.429 . S
C741 C735 1.429 . S
C741 C742 1.523 . S
C742 C723 1.368 . S
C742 C736 1.368 . S
C742 C741 1.523 . S
C743 C727 1.429 . S
C743 C739 1.429 . S
C743 C744 1.523 . S
C744 C728 1.368 . S
C744 C740 1.368 . S
C744 C743 1.523 . S
H745 C720 0.950 . S
H746 C722 0.950 . S
H747 C723 0.949 . S
H748 C725 0.950 . S
H749 C727 0.950 . S
C750 C751 1.349 . S
C750 C752 1.327 . S
C750 H775 0.950 . S
C751 C750 1.349 . S
C751 C767 1.349 . S
C752 C750 1.327 . S
C752 C771 1.429 . S
C752 H776 0.950 . S
C753 C770 1.574 . S
C753 C772 1.368 . S
C753 H777 0.949 . S
H754 C758 0.949 . S
C755 C756 1.349 . S
C755 C757 1.327 . S
C755 H778 0.950 . S
C756 C755 1.349 . S
C756 C768 1.349 . S
C757 C755 1.327 . S
C757 C773 1.429 . S
C757 H779 0.950 . S
C758 H754 0.949 . S
C758 C766 1.574 . S
C758 C774 1.368 . S
H759 C767 0.950 . S
H760 C765 0.950 . S
H761 C766 0.949 . S
H762 C768 0.950 . S
H763 C769 0.950 . S
H764 C770 0.949 . S
C765 H760 0.950 . S
C765 C767 1.327 . S
C765 C771 1.429 . S
C766 C758 1.574 . S
C766 H761 0.949 . S
C766 C772 1.368 . S
C767 C751 1.349 . S
C767 H759 0.950 . S
C767 C765 1.327 . S
C768 C756 1.349 . S
C768 H762 0.950 . S
C768 C769 1.327 . S
C769 H763 0.950 . S
C769 C768 1.327 . S
C769 C773 1.429 . S
C770 C753 1.574 . S
C770 H764 0.949 . S
C770 C774 1.368 . S
C771 C752 1.429 . S
C771 C765 1.429 . S
C771 C772 1.523 . S
C772 C753 1.368 . S
C772 C766 1.368 . S
C772 C771 1.523 . S
C773 C757 1.429 . S
C773 C769 1.429 . S
C773 C774 1.523 . S
C774 C758 1.368 . S
C774 C770 1.368 . S
C774 C773 1.523 . S
H775 C750 0.950 . S
H776 C752 0.950 . S
H777 C753 0.949 . S
H778 C755 0.950 . S
H779 C757 0.950 . S
C780 C781 1.349 . S
C780 C782 1.327 . S
C780 H805 0.950 . S
C781 C780 1.349 . S
C781 C797 1.349 . S
C782 C780 1.327 . S
C782 C801 1.429 . S
C782 H806 0.950 . S
C783 C800 1.574 . S
C783 C802 1.368 . S
C783 H807 0.949 . S
H784 C788 0.949 . S
C785 C786 1.349 . S
C785 C787 1.327 . S
C785 H808 0.950 . S
C786 C785 1.349 . S
C786 C798 1.349 . S
C787 C785 1.327 . S
C787 C803 1.429 . S
C787 H809 0.950 . S
C788 H784 0.949 . S
C788 C796 1.574 . S
C788 C804 1.368 . S
H789 C797 0.950 . S
H790 C795 0.950 . S
H791 C796 0.949 . S
H792 C798 0.950 . S
H793 C799 0.950 . S
H794 C800 0.949 . S
C795 H790 0.950 . S
C795 C797 1.327 . S
C795 C801 1.429 . S
C796 C788 1.574 . S
C796 H791 0.949 . S
C796 C802 1.368 . S
C797 C781 1.349 . S
C797 H789 0.950 . S
C797 C795 1.327 . S
C798 C786 1.349 . S
C798 H792 0.950 . S
C798 C799 1.327 . S
C799 H793 0.950 . S
C799 C798 1.327 . S
C799 C803 1.429 . S
C800 C783 1.574 . S
C800 H794 0.949 . S
C800 C804 1.368 . S
C801 C782 1.429 . S
C801 C795 1.429 . S
C801 C802 1.523 . S
C802 C783 1.368 . S
C802 C796 1.368 . S
C802 C801 1.523 . S
C803 C787 1.429 . S
C803 C799 1.429 . S
C803 C804 1.523 . S
C804 C788 1.368 . S
C804 C800 1.368 . S
C804 C803 1.523 . S
H805 C780 0.950 . S
H806 C782 0.950 . S
H807 C783 0.949 . S
H808 C785 0.950 . S
H809 C787 0.950 . S
C810 C811 1.349 . S
C810 C812 1.327 . S
C810 H835 0.950 . S
C811 C810 1.349 . S
C811 C827 1.349 . S
C812 C810 1.327 . S
C812 C831 1.429 . S
C812 H836 0.950 . S
C813 C830 1.574 . S
C813 C832 1.368 . S
C813 H837 0.949 . S
H814 C818 0.949 . S
C815 C816 1.349 . S
C815 C817 1.327 . S
C815 H838 0.950 . S
C816 C815 1.349 . S
C816 C828 1.349 . S
C817 C815 1.327 . S
C817 C833 1.429 . S
C817 H839 0.950 . S
C818 H814 0.949 . S
C818 C826 1.574 . S
C818 C834 1.368 . S
H819 C827 0.950 . S
H820 C825 0.950 . S
H821 C826 0.949 . S
H822 C828 0.950 . S
H823 C829 0.950 . S
H824 C830 0.949 . S
C825 H820 0.950 . S
C825 C827 1.327 . S
C825 C831 1.429 . S
C826 C818 1.574 . S
C826 H821 0.949 . S
C826 C832 1.368 . S
C827 C811 1.349 . S
C827 H819 0.950 . S
C827 C825 1.327 . S
C828 C816 1.349 . S
C828 H822 0.950 . S
C828 C829 1.327 . S
C829 H823 0.950 . S
C829 C828 1.327 . S
C829 C833 1.429 . S
C830 C813 1.574 . S
C830 H824 0.949 . S
C830 C834 1.368 . S
C831 C812 1.429 . S
C831 C825 1.429 . S
C831 C832 1.523 . S
C832 C813 1.368 . S
C832 C826 1.368 . S
C832 C831 1.523 . S
C833 C817 1.429 . S
C833 C829 1.429 . S
C833 C834 1.523 . S
C834 C818 1.368 . S
C834 C830 1.368 . S
C834 C833 1.523 . S
H835 C810 0.950 . S
H836 C812 0.950 . S
H837 C813 0.949 . S
H838 C815 0.950 . S
H839 C817 0.950 . S
C840 C841 1.349 1_655 S
C840 C842 1.327 . S
C840 H865 0.950 . S
C841 C840 1.349 1_455 S
C841 C857 1.349 . S
C842 C840 1.327 . S
C842 C861 1.429 1_655 S
C842 H866 0.950 . S
C843 C860 1.574 . S
C843 C862 1.368 . S
C843 H867 0.949 . S
H844 C848 0.947 . S
C845 C846 1.349 . S
C845 C847 1.327 1_556 S
C845 H868 0.950 . S
C846 C845 1.349 . S
C846 C858 1.349 . S
C847 C845 1.327 1_554 S
C847 C863 1.429 . S
C847 H869 0.950 . S
C848 H844 0.947 . S
C848 C856 1.574 . S
C848 C864 1.371 1_655 S
H849 C857 0.950 . S
H850 C855 0.950 . S
H851 C856 0.949 . S
H852 C858 0.950 1_655 S
H853 C859 0.950 1_655 S
H854 C860 0.949 . S
C855 H850 0.950 . S
C855 C857 1.327 . S
C855 C861 1.429 . S
C856 C848 1.574 . S
C856 H851 0.949 . S
C856 C862 1.368 1_655 S
C857 C841 1.349 . S
C857 H849 0.950 . S
C857 C855 1.327 . S
C858 C846 1.349 . S
C858 H852 0.950 1_455 S
C858 C859 1.327 1_556 S
C859 H853 0.950 1_455 S
C859 C858 1.327 1_554 S
C859 C863 1.429 . S
C860 C843 1.574 . S
C860 H854 0.949 . S
C860 C864 1.368 . S
C861 C842 1.429 1_455 S
C861 C855 1.429 . S
C861 C862 1.523 . S
C862 C843 1.368 . S
C862 C856 1.368 1_455 S
C862 C861 1.523 . S
C863 C847 1.429 . S
C863 C859 1.429 . S
C863 C864 1.523 . S
C864 C848 1.371 1_455 S
C864 C860 1.368 . S
C864 C863 1.523 . S
H865 C840 0.950 . S
H866 C842 0.950 . S
H867 C843 0.949 . S
H868 C845 0.950 . S
H869 C847 0.950 . S
C870 C871 1.349 . S
C870 C872 1.327 . S
C870 H895 0.950 . S
C871 C870 1.349 . S
C871 C887 1.349 1_545 S
C872 C870 1.327 . S
C872 C891 1.429 . S
C872 H896 0.950 . S
C873 C890 1.574 . S
C873 C892 1.368 1_565 S
C873 H897 0.949 . S
H874 C878 0.949 . S
C875 C876 1.349 1_565 S
C875 C877 1.327 . S
C875 H898 0.950 . S
C876 C875 1.349 1_545 S
C876 C888 1.349 . S
C877 C875 1.327 . S
C877 C893 1.429 1_565 S
C877 H899 0.950 . S
C878 H874 0.949 . S
C878 C886 1.574 . S
C878 C894 1.368 . S
H879 C887 0.950 . S
H880 C885 0.950 . S
H881 C886 0.949 . S
H882 C888 0.950 . S
H883 C889 0.950 . S
H884 C890 0.949 . S
C885 H880 0.950 . S
C885 C887 1.327 . S
C885 C891 1.429 1_565 S
C886 C878 1.574 . S
C886 H881 0.949 . S
C886 C892 1.368 . S
C887 C871 1.349 1_565 S
C887 H879 0.950 . S
C887 C885 1.327 . S
C888 C876 1.349 . S
C888 H882 0.950 . S
C888 C889 1.327 . S
C889 H883 0.950 . S
C889 C888 1.327 . S
C889 C893 1.429 . S
C890 C873 1.574 . S
C890 H884 0.949 . S
C890 C894 1.368 1_565 S
C891 C872 1.429 . S
C891 C885 1.429 1_545 S
C891 C892 1.523 . S
C892 C873 1.368 1_545 S
C892 C886 1.368 . S
C892 C891 1.523 . S
C893 C877 1.429 1_545 S
C893 C889 1.429 . S
C893 C894 1.523 . S
C894 C878 1.368 . S
C894 C890 1.368 1_545 S
C894 C893 1.523 . S
H895 C870 0.950 . S
H896 C872 0.950 . S
H897 C873 0.949 . S
H898 C875 0.950 . S
H899 C877 0.950 . S
C900 C901 1.349 . S
C900 C902 1.327 . S
C900 H925 0.950 . S
C901 C900 1.349 . S
C901 C917 1.349 . S
C902 C900 1.327 . S
C902 C921 1.429 . S
C902 H926 0.950 . S
C903 C920 1.574 . S
C903 C922 1.368 . S
C903 H927 0.949 . S
H904 C908 0.949 . S
C905 C906 1.349 . S
C905 C907 1.327 . S
C905 H928 0.950 . S
C906 C905 1.349 . S
C906 C918 1.349 . S
C907 C905 1.327 . S
C907 C923 1.429 . S
C907 H929 0.950 . S
C908 H904 0.949 . S
C908 C916 1.574 . S
C908 C924 1.368 . S
H909 C917 0.950 . S
H910 C915 0.950 . S
H911 C916 0.949 . S
H912 C918 0.950 . S
H913 C919 0.950 . S
H914 C920 0.949 . S
C915 H910 0.950 . S
C915 C917 1.327 . S
C915 C921 1.429 . S
C916 C908 1.574 . S
C916 H911 0.949 . S
C916 C922 1.368 . S
C917 C901 1.349 . S
C917 H909 0.950 . S
C917 C915 1.327 . S
C918 C906 1.349 . S
C918 H912 0.950 . S
C918 C919 1.327 . S
C919 H913 0.950 . S
C919 C918 1.327 . S
C919 C923 1.429 . S
C920 C903 1.574 . S
C920 H914 0.949 . S
C920 C924 1.368 . S
C921 C902 1.429 . S
C921 C915 1.429 . S
C921 C922 1.523 . S
C922 C903 1.368 . S
C922 C916 1.368 . S
C922 C921 1.523 . S
C923 C907 1.429 . S
C923 C919 1.429 . S
C923 C924 1.523 . S
C924 C908 1.368 . S
C924 C920 1.368 . S
C924 C923 1.523 . S
H925 C900 0.950 . S
H926 C902 0.950 . S
H927 C903 0.949 . S
H928 C905 0.950 . S
H929 C907 0.950 . S
C930 C931 1.349 1_565 S
C930 C932 1.327 . S
C930 H955 0.950 . S
C931 C930 1.349 1_545 S
C931 C947 1.349 . S
C932 C930 1.327 . S
C932 C951 1.429 1_565 S
C932 H956 0.950 . S
C933 C950 1.574 . S
C933 C952 1.368 . S
C933 H957 0.949 . S
H934 C938 0.949 . S
C935 C936 1.349 1_545 S
C935 C937 1.327 . S
C935 H958 0.950 . S
C936 C935 1.349 1_565 S
C936 C948 1.349 . S
C937 C935 1.327 . S
C937 C953 1.422 1_545 S
C937 H959 0.950 . S
C938 H934 0.949 . S
C938 C946 1.574 . S
C938 C954 1.334 1_565 S
H939 C947 0.950 . S
H940 C945 0.950 . S
H941 C946 0.949 . S
H942 C948 0.950 . S
H943 C949 0.950 . S
H944 C950 0.949 . S
C945 H940 0.950 . S
C945 C947 1.327 . S
C945 C951 1.429 . S
C946 C938 1.574 . S
C946 H941 0.949 . S
C946 C952 1.368 1_565 S
C947 C931 1.349 . S
C947 H939 0.950 . S
C947 C945 1.327 . S
C948 C936 1.349 . S
C948 H942 0.950 . S
C948 C949 1.327 . S
C949 H943 0.950 . S
C949 C948 1.327 . S
C949 C953 1.436 . S
C950 C933 1.574 . S
C950 H944 0.949 . S
C950 C954 1.405 . S
C951 C932 1.429 1_545 S
C951 C945 1.429 . S
C951 C952 1.523 . S
C952 C933 1.368 . S
C952 C946 1.368 1_545 S
C952 C951 1.523 . S
C953 C937 1.422 1_565 S
C953 C949 1.436 . S
C953 C954 1.520 1_565 S
C954 C938 1.334 1_545 S
C954 C950 1.405 . S
C954 C953 1.520 1_545 S
H955 C930 0.950 . S
H956 C932 0.950 . S
H957 C933 0.949 . S
H958 C935 0.950 . S
H959 C937 0.950 . S
C960 C961 1.349 . S
C960 C962 1.327 . S
C960 H985 0.950 . S
C961 C960 1.349 . S
C961 C977 1.349 . S
C962 C960 1.327 . S
C962 C981 1.429 . S
C962 H986 0.950 . S
C963 C980 1.574 . S
C963 C982 1.368 . S
C963 H987 0.949 . S
H964 C968 0.949 . S
C965 C966 1.349 . S
C965 C967 1.327 1_554 S
C965 H988 0.950 . S
C966 C965 1.349 . S
C966 C978 1.349 . S
C967 C965 1.327 1_556 S
C967 C983 1.429 . S
C967 H989 0.950 . S
C968 H964 0.949 . S
C968 C976 1.574 . S
C968 C984 1.368 . S
H969 C977 0.950 . S
H970 C975 0.950 . S
H971 C976 0.949 . S
H972 C978 0.950 . S
H973 C979 0.950 . S
H974 C980 0.949 . S
C975 H970 0.950 . S
C975 C977 1.327 . S
C975 C981 1.429 . S
C976 C968 1.574 . S
C976 H971 0.949 . S
C976 C982 1.368 . S
C977 C961 1.349 . S
C977 H969 0.950 . S
C977 C975 1.327 . S
C978 C966 1.349 . S
C978 H972 0.950 . S
C978 C979 1.327 1_554 S
C979 H973 0.950 . S
C979 C978 1.327 1_556 S
C979 C983 1.429 . S
C980 C963 1.574 . S
C980 H974 0.949 . S
C980 C984 1.368 . S
C981 C962 1.429 . S
C981 C975 1.429 . S
C981 C982 1.523 . S
C982 C963 1.368 . S
C982 C976 1.368 . S
C982 C981 1.523 . S
C983 C967 1.429 . S
C983 C979 1.429 . S
C983 C984 1.523 . S
C984 C968 1.368 . S
C984 C980 1.368 . S
C984 C983 1.523 . S
H985 C960 0.950 . S
H986 C962 0.950 . S
H987 C963 0.949 . S
H988 C965 0.950 . S
H989 C967 0.950 . S
C990 C991 1.349 . S
C990 C992 1.327 . S
C990 H1015 0.950 . S
C991 C990 1.349 . S
C991 C1007 1.349 . S
C992 C990 1.327 . S
C992 C1011 1.429 . S
C992 H1016 0.950 . S
C993 C1010 1.574 . S
C993 C1012 1.368 . S
C993 H1017 0.949 . S
H994 C998 0.949 . S
C995 C996 1.334 1_455 S
C995 C997 1.327 . S
C995 H1018 0.950 . S
C996 C995 1.334 1_655 S
C996 C1008 1.347 . S
C997 C995 1.327 . S
C997 C1013 1.429 . S
C997 H1019 0.950 . S
C998 H994 0.949 . S
C998 C1006 1.574 . S
C998 C1014 1.368 . S
H999 C1007 0.950 . S
H1000 C1005 0.950 . S
H1001 C1006 0.949 . S
H1002 C1008 0.966 . S
H1003 C1009 0.947 . S
H1004 C1010 0.949 . S
C1005 H1000 0.950 . S
C1005 C1007 1.327 . S
C1005 C1011 1.429 . S
C1006 C998 1.574 . S
C1006 H1001 0.949 . S
C1006 C1012 1.368 . S
C1007 C991 1.349 . S
C1007 H999 0.950 . S
C1007 C1005 1.327 . S
C1008 C996 1.347 . S
C1008 H1002 0.966 . S
C1008 C1009 1.326 1_655 S
C1009 H1003 0.947 . S
C1009 C1008 1.326 1_455 S
C1009 C1013 1.454 . S
C1010 C993 1.574 . S
C1010 H1004 0.949 . S
C1010 C1014 1.368 . S
C1011 C992 1.429 . S
C1011 C1005 1.429 . S
C1011 C1012 1.523 . S
C1012 C993 1.368 . S
C1012 C1006 1.368 . S
C1012 C1011 1.523 . S
C1013 C997 1.429 . S
C1013 C1009 1.454 . S
C1013 C1014 1.523 . S
C1014 C998 1.368 . S
C1014 C1010 1.368 . S
C1014 C1013 1.523 . S
H1015 C990 0.950 . S
H1016 C992 0.950 . S
H1017 C993 0.949 . S
H1018 C995 0.950 . S
H1019 C997 0.950 . S
C481 C6 0.423 . S
C486 C451 0.358 . S
C511 C59 1.846 . S
C516 C301 1.734 . S
C541 C86 1.142 . S
C546 C361 1.113 . S
C571 C15 0.320 . S
C576 C421 0.402 . S
C606 C331 1.965 . S
C601 C50 1.940 . S
C636 C391 1.263 . S
C631 C95 1.254 . S
C661 C46 1.138 . S
C666 C181 1.100 . S
C691 C99 3.058 . S
C696 C271 3.059 . S
C721 C10 1.966 . S
C726 C151 2.001 . S
C756 C211 1.243 . S
C751 C55 1.231 . S
C786 C241 2.816 . S
C781 C90 2.929 . S
C811 C19 1.837 . S
C816 C121 1.729 . S
C846 C260 1.740 . S
C841 C18 1.694 . S
C871 C49 1.328 . S
C876 C140 1.352 . S
C901 C98 1.449 . S
C906 C200 1.479 . S
C936 C380 1.461 1_565 S
C931 C58 1.438 . S
C966 C440 1.091 . S
C961 C89 1.079 . S
C991 C9 1.324 . S
C996 C320 1.345 1_655 S
