# Generated by pormake.
# Topology ctn, (3,4)-cn, num edge types: 1
# Building blocks:
#     Node 0, Type 0, BuildingBlock: BETDAH_clean_linker_0, # of connection points: 3
#     Node 1, Type 0, BuildingBlock: BETDAH_clean_linker_0, # of connection points: 3
#     Node 2, Type 0, BuildingBlock: BETDAH_clean_linker_0, # of connection points: 3
#     Node 3, Type 0, BuildingBlock: BETDAH_clean_linker_0, # of connection points: 3
#     Node 4, Type 0, BuildingBlock: BETDAH_clean_linker_0, # of connection points: 3
#     Node 5, Type 0, BuildingBlock: BETDAH_clean_linker_0, # of connection points: 3
#     Node 6, Type 0, BuildingBlock: BETDAH_clean_linker_0, # of connection points: 3
#     Node 7, Type 0, BuildingBlock: BETDAH_clean_linker_0, # of connection points: 3
#     Node 8, Type 0, BuildingBlock: BETDAH_clean_linker_0, # of connection points: 3
#     Node 9, Type 0, BuildingBlock: BETDAH_clean_linker_0, # of connection points: 3
#     Node 10, Type 0, BuildingBlock: BETDAH_clean_linker_0, # of connection points: 3
#     Node 11, Type 0, BuildingBlock: BETDAH_clean_linker_0, # of connection points: 3
#     Node 12, Type 0, BuildingBlock: BETDAH_clean_linker_0, # of connection points: 3
#     Node 13, Type 0, BuildingBlock: BETDAH_clean_linker_0, # of connection points: 3
#     Node 14, Type 0, BuildingBlock: BETDAH_clean_linker_0, # of connection points: 3
#     Node 15, Type 0, BuildingBlock: BETDAH_clean_linker_0, # of connection points: 3
#     Node 16, Type 1, BuildingBlock: NAHDIM_clean_sbu_0, # of connection points: 4
#     Node 17, Type 1, BuildingBlock: NAHDIM_clean_sbu_0, # of connection points: 4
#     Node 18, Type 1, BuildingBlock: NAHDIM_clean_sbu_0, # of connection points: 4
#     Node 19, Type 1, BuildingBlock: NAHDIM_clean_sbu_0, # of connection points: 4
#     Node 20, Type 1, BuildingBlock: NAHDIM_clean_sbu_0, # of connection points: 4
#     Node 21, Type 1, BuildingBlock: NAHDIM_clean_sbu_0, # of connection points: 4
#     Node 22, Type 1, BuildingBlock: NAHDIM_clean_sbu_0, # of connection points: 4
#     Node 23, Type 1, BuildingBlock: NAHDIM_clean_sbu_0, # of connection points: 4
#     Node 24, Type 1, BuildingBlock: NAHDIM_clean_sbu_0, # of connection points: 4
#     Node 25, Type 1, BuildingBlock: NAHDIM_clean_sbu_0, # of connection points: 4
#     Node 26, Type 1, BuildingBlock: NAHDIM_clean_sbu_0, # of connection points: 4
#     Node 27, Type 1, BuildingBlock: NAHDIM_clean_sbu_0, # of connection points: 4
#     Edge 28, Type (0, 1), BuildingBlock: XUDNAN_clean_linker_2, # of connection points: 2
#     Edge 29, Type (0, 1), BuildingBlock: XUDNAN_clean_linker_2, # of connection points: 2
#     Edge 30, Type (0, 1), BuildingBlock: XUDNAN_clean_linker_2, # of connection points: 2
#     Edge 31, Type (0, 1), BuildingBlock: XUDNAN_clean_linker_2, # of connection points: 2
#     Edge 32, Type (0, 1), BuildingBlock: XUDNAN_clean_linker_2, # of connection points: 2
#     Edge 33, Type (0, 1), BuildingBlock: XUDNAN_clean_linker_2, # of connection points: 2
#     Edge 34, Type (0, 1), BuildingBlock: XUDNAN_clean_linker_2, # of connection points: 2
#     Edge 35, Type (0, 1), BuildingBlock: XUDNAN_clean_linker_2, # of connection points: 2
#     Edge 36, Type (0, 1), BuildingBlock: XUDNAN_clean_linker_2, # of connection points: 2
#     Edge 37, Type (0, 1), BuildingBlock: XUDNAN_clean_linker_2, # of connection points: 2
#     Edge 38, Type (0, 1), BuildingBlock: XUDNAN_clean_linker_2, # of connection points: 2
#     Edge 39, Type (0, 1), BuildingBlock: XUDNAN_clean_linker_2, # of connection points: 2
#     Edge 40, Type (0, 1), BuildingBlock: XUDNAN_clean_linker_2, # of connection points: 2
#     Edge 41, Type (0, 1), BuildingBlock: XUDNAN_clean_linker_2, # of connection points: 2
#     Edge 42, Type (0, 1), BuildingBlock: XUDNAN_clean_linker_2, # of connection points: 2
#     Edge 43, Type (0, 1), BuildingBlock: XUDNAN_clean_linker_2, # of connection points: 2
#     Edge 44, Type (0, 1), BuildingBlock: XUDNAN_clean_linker_2, # of connection points: 2
#     Edge 45, Type (0, 1), BuildingBlock: XUDNAN_clean_linker_2, # of connection points: 2
#     Edge 46, Type (0, 1), BuildingBlock: XUDNAN_clean_linker_2, # of connection points: 2
#     Edge 47, Type (0, 1), BuildingBlock: XUDNAN_clean_linker_2, # of connection points: 2
#     Edge 48, Type (0, 1), BuildingBlock: XUDNAN_clean_linker_2, # of connection points: 2
#     Edge 49, Type (0, 1), BuildingBlock: XUDNAN_clean_linker_2, # of connection points: 2
#     Edge 50, Type (0, 1), BuildingBlock: XUDNAN_clean_linker_2, # of connection points: 2
#     Edge 51, Type (0, 1), BuildingBlock: XUDNAN_clean_linker_2, # of connection points: 2
#     Edge 52, Type (0, 1), BuildingBlock: XUDNAN_clean_linker_2, # of connection points: 2
#     Edge 53, Type (0, 1), BuildingBlock: XUDNAN_clean_linker_2, # of connection points: 2
#     Edge 54, Type (0, 1), BuildingBlock: XUDNAN_clean_linker_2, # of connection points: 2
#     Edge 55, Type (0, 1), BuildingBlock: XUDNAN_clean_linker_2, # of connection points: 2
#     Edge 56, Type (0, 1), BuildingBlock: XUDNAN_clean_linker_2, # of connection points: 2
#     Edge 57, Type (0, 1), BuildingBlock: XUDNAN_clean_linker_2, # of connection points: 2
#     Edge 58, Type (0, 1), BuildingBlock: XUDNAN_clean_linker_2, # of connection points: 2
#     Edge 59, Type (0, 1), BuildingBlock: XUDNAN_clean_linker_2, # of connection points: 2
#     Edge 60, Type (0, 1), BuildingBlock: XUDNAN_clean_linker_2, # of connection points: 2
#     Edge 61, Type (0, 1), BuildingBlock: XUDNAN_clean_linker_2, # of connection points: 2
#     Edge 62, Type (0, 1), BuildingBlock: XUDNAN_clean_linker_2, # of connection points: 2
#     Edge 63, Type (0, 1), BuildingBlock: XUDNAN_clean_linker_2, # of connection points: 2
#     Edge 64, Type (0, 1), BuildingBlock: XUDNAN_clean_linker_2, # of connection points: 2
#     Edge 65, Type (0, 1), BuildingBlock: XUDNAN_clean_linker_2, # of connection points: 2
#     Edge 66, Type (0, 1), BuildingBlock: XUDNAN_clean_linker_2, # of connection points: 2
#     Edge 67, Type (0, 1), BuildingBlock: XUDNAN_clean_linker_2, # of connection points: 2
#     Edge 68, Type (0, 1), BuildingBlock: XUDNAN_clean_linker_2, # of connection points: 2
#     Edge 69, Type (0, 1), BuildingBlock: XUDNAN_clean_linker_2, # of connection points: 2
#     Edge 70, Type (0, 1), BuildingBlock: XUDNAN_clean_linker_2, # of connection points: 2
#     Edge 71, Type (0, 1), BuildingBlock: XUDNAN_clean_linker_2, # of connection points: 2
#     Edge 72, Type (0, 1), BuildingBlock: XUDNAN_clean_linker_2, # of connection points: 2
#     Edge 73, Type (0, 1), BuildingBlock: XUDNAN_clean_linker_2, # of connection points: 2
#     Edge 74, Type (0, 1), BuildingBlock: XUDNAN_clean_linker_2, # of connection points: 2
#     Edge 75, Type (0, 1), BuildingBlock: XUDNAN_clean_linker_2, # of connection points: 2
# Relax obj value: 0.049
# Max RMSD: 0.160
# Mean RMSD: 0.100
data_MOF--net-ctn--node1-NAHDIM_clean_sbu_0--node2-BETDAH_clean_linker_0--edge1-XUDNAN_clean_linker_2
_symmetry_space_group_name_H-M    P1
_symmetry_Int_Tables_number       1
_symmetry_cell_setting            triclinic
loop_
_symmetry_equiv_pos_as_xyz
'x, y, z'
_cell_length_a     53.757389
_cell_length_b     53.949041
_cell_length_c     54.254978
_cell_angle_alpha  99.915622
_cell_angle_beta   90.477445
_cell_angle_gamma 96.98891
loop_
_atom_site_label
_atom_site_type_symbol
_atom_site_fract_x
_atom_site_fract_y
_atom_site_fract_z
_atom_type_partial_charge
H0 H 0.07408 0.02382 0.11074 0.0
H1 H 0.09864 0.07424 0.05948 0.0
H2 H 0.05271 0.09909 0.12073 0.0
C3 C 0.07441 0.04193 0.10457 0.0
C4 C 0.0616 0.06077 0.11815 0.0
C5 C 0.08813 0.04661 0.08345 0.0
C6 C 0.0879 0.07013 0.07543 0.0
C7 C 0.07512 0.089 0.08902 0.0
C8 C 0.06243 0.08431 0.11038 0.0
N9 N 0.07578 0.1135 0.08275 0.0
C10 C 0.07655 0.11866 0.05855 0.0
H11 H 0.33392 0.70094 0.27543 0.0
H12 H 0.33713 0.75685 0.2272 0.0
H13 H 0.27871 0.69381 0.2161 0.0
C14 C 0.32662 0.70777 0.25951 0.0
C15 C 0.30495 0.69454 0.24665 0.0
C16 C 0.33857 0.73012 0.25258 0.0
C17 C 0.32809 0.73969 0.23277 0.0
C18 C 0.30635 0.72652 0.2197 0.0
C19 C 0.29516 0.70401 0.22661 0.0
N20 N 0.29527 0.73467 0.19911 0.0
C21 C 0.3008 0.75818 0.19186 0.0
H22 H 0.03934 0.4462 0.07781 0.0
H23 H 0.01757 0.52006 0.10373 0.0
H24 H 0.9836 0.47463 0.03626 0.0
C25 C 0.02798 0.46099 0.07555 0.0
C26 C 0.01128 0.45764 0.05476 0.0
C27 C 0.03051 0.48347 0.09323 0.0
C28 C 0.01589 0.50261 0.09016 0.0
C29 C 0.99874 0.49949 0.07 0.0
C30 C 0.99637 0.47691 0.05226 0.0
N31 N 0.98478 0.51985 0.06814 0.0
C32 C 0.96493 0.51922 0.05135 0.0
H33 H 0.80162 0.80389 0.18383 0.0
H34 H 0.74922 0.7384 0.1899 0.0
H35 H 0.75056 0.8063 0.24464 0.0
C36 C 0.78676 0.79456 0.19362 0.0
C37 C 0.77773 0.80793 0.21562 0.0
C38 C 0.7765 0.76954 0.18392 0.0
C39 C 0.75699 0.75792 0.19664 0.0
C40 C 0.74725 0.7711 0.21815 0.0
C41 C 0.75754 0.79624 0.22759 0.0
N42 N 0.72764 0.75806 0.23011 0.0
C43 C 0.71146 0.7697 0.2469 0.0
H44 H 0.08221 0.00984 0.45542 0.0
H45 H 0.09646 0.96506 0.51169 0.0
H46 H 0.04549 0.93378 0.44979 0.0
C47 C 0.07891 0.99246 0.46304 0.0
C48 C 0.06229 0.97221 0.45026 0.0
C49 C 0.09178 0.99006 0.48509 0.0
C50 C 0.08659 0.96742 0.49493 0.0
C51 C 0.06971 0.94719 0.48221 0.0
C52 C 0.05812 0.9496 0.45977 0.0
N53 N 0.06476 0.92359 0.49052 0.0
C54 C 0.06736 0.91984 0.51506 0.0
H55 H 0.27988 0.72573 0.85904 0.0
H56 H 0.22414 0.75897 0.82268 0.0
H57 H 0.27083 0.71036 0.77867 0.0
C58 C 0.27041 0.72807 0.84203 0.0
C59 C 0.27768 0.71576 0.81871 0.0
C60 C 0.2513 0.74387 0.84357 0.0
C61 C 0.23886 0.7468 0.82154 0.0
C62 C 0.24571 0.73429 0.79814 0.0
C63 C 0.26524 0.71923 0.7969 0.0
N64 N 0.23393 0.73679 0.77533 0.0
C65 C 0.21118 0.74619 0.77338 0.0
H66 H 0.9385 0.56724 0.53451 0.0
H67 H 0.99949 0.5782 0.48455 0.0
H68 H 0.93604 0.52289 0.46047 0.0
C69 C 0.94708 0.56243 0.5166 0.0
C70 C 0.93444 0.54361 0.49806 0.0
C71 C 0.97058 0.57525 0.5119 0.0
C72 C 0.98163 0.56832 0.4886 0.0
C73 C 0.96904 0.5494 0.4701 0.0
C74 C 0.94554 0.53748 0.4749 0.0
N75 N 0.97883 0.54221 0.44608 0.0
C76 C 0.00373 0.54698 0.43977 0.0
H77 H 0.83383 0.75946 0.80918 0.0
H78 H 0.79924 0.8189 0.78378 0.0
H79 H 0.76425 0.78017 0.83976 0.0
C80 C 0.81846 0.77077 0.80959 0.0
C81 C 0.79892 0.76719 0.82615 0.0
C82 C 0.81877 0.7892 0.79405 0.0
C83 C 0.79934 0.80474 0.79571 0.0
C84 C 0.77978 0.80157 0.81244 0.0
C85 C 0.7797 0.78278 0.82736 0.0
N86 N 0.75961 0.81654 0.81478 0.0
C87 C 0.75674 0.83649 0.8022 0.0
H88 H 0.35496 0.25392 0.32739 0.0
H89 H 0.32621 0.27928 0.26298 0.0
H90 H 0.28206 0.27946 0.32848 0.0
C91 C 0.34035 0.26148 0.31821 0.0
C92 C 0.31802 0.26565 0.33082 0.0
C93 C 0.34378 0.26652 0.29376 0.0
C94 C 0.32442 0.27593 0.28205 0.0
C95 C 0.30254 0.28117 0.29463 0.0
C96 C 0.29928 0.27597 0.319 0.0
N97 N 0.28367 0.29055 0.28174 0.0
C98 C 0.26962 0.3092 0.29286 0.0
H99 H 0.53105 0.96576 0.56613 0.0
H100 H 0.48393 0.02572 0.57052 0.0
H101 H 0.47924 0.9666 0.50595 0.0
C102 C 0.5163 0.97445 0.55846 0.0
C103 C 0.50573 0.96332 0.53489 0.0
C104 C 0.50874 0.99704 0.57165 0.0
C105 C 0.49016 0.00847 0.56065 0.0
C106 C 0.47968 0.99745 0.53679 0.0
C107 C 0.48763 0.9751 0.52417 0.0
N108 N 0.46125 0.00801 0.52443 0.0
C109 C 0.44903 0.02861 0.53425 0.0
H110 H 0.27731 0.35342 0.69624 0.0
H111 H 0.20141 0.32455 0.71105 0.0
H112 H 0.23532 0.39604 0.75182 0.0
C113 C 0.26 0.35548 0.70606 0.0
C114 C 0.25876 0.37684 0.72463 0.0
C115 C 0.23943 0.33631 0.70097 0.0
C116 C 0.21756 0.33888 0.71489 0.0
C117 C 0.21614 0.36051 0.73314 0.0
C118 C 0.23658 0.37942 0.73766 0.0
N119 N 0.19425 0.36407 0.74699 0.0
C120 C 0.17928 0.34449 0.75524 0.0
H121 H 0.8298 0.1924 0.7623 0.0
H122 H 0.87898 0.23749 0.72046 0.0
H123 H 0.80217 0.21434 0.6956 0.0
C124 C 0.833 0.20228 0.7466 0.0
C125 C 0.81329 0.20178 0.72931 0.0
C126 C 0.85678 0.21511 0.74368 0.0
C127 C 0.86063 0.22775 0.72323 0.0
C128 C 0.84103 0.22801 0.70615 0.0
C129 C 0.81728 0.21479 0.70906 0.0
N130 N 0.84628 0.2411 0.68589 0.0
C131 C 0.8287 0.25171 0.67346 0.0
H132 H 0.56005 0.51705 0.57859 0.0
H133 H 0.59512 0.53128 0.5108 0.0
H134 H 0.54243 0.57977 0.54488 0.0
C135 C 0.56211 0.52796 0.56355 0.0
C136 C 0.54882 0.54893 0.56393 0.0
C137 C 0.57876 0.52134 0.54451 0.0
C138 C 0.5824 0.53622 0.52575 0.0
C139 C 0.56941 0.55719 0.52564 0.0
C140 C 0.55259 0.56362 0.54483 0.0
N141 N 0.574 0.57116 0.50586 0.0
C142 C 0.56131 0.59094 0.50126 0.0
H143 H 0.57399 0.51058 0.93705 0.0
H144 H 0.57074 0.46801 0.99779 0.0
H145 H 0.51463 0.45012 0.93849 0.0
C146 C 0.56501 0.49569 0.94624 0.0
C147 C 0.54341 0.48072 0.93503 0.0
C148 C 0.57534 0.49116 0.96879 0.0
C149 C 0.563 0.47187 0.98055 0.0
C150 C 0.5409 0.45724 0.96967 0.0
C151 C 0.53147 0.46168 0.94695 0.0
N152 N 0.52748 0.43771 0.9806 0.0
C153 C 0.53446 0.42906 1.00204 0.0
H154 H 0.77597 0.20608 0.35149 0.0
H155 H 0.73269 0.24456 0.30657 0.0
H156 H 0.77692 0.18815 0.27105 0.0
C157 C 0.76981 0.2089 0.33322 0.0
C158 C 0.77842 0.19462 0.31155 0.0
C159 C 0.75352 0.2271 0.33158 0.0
C160 C 0.74527 0.23059 0.3079 0.0
C161 C 0.75346 0.21616 0.28605 0.0
C162 C 0.77024 0.19863 0.28804 0.0
N163 N 0.74561 0.21898 0.26175 0.0
C164 C 0.72456 0.2301 0.25666 0.0
H165 H 0.44539 0.06405 0.0222 0.0
H166 H 0.51566 0.06493 0.98419 0.0
H167 H 0.46036 0.99947 0.96866 0.0
C168 C 0.45795 0.05477 0.00916 0.0
C169 C 0.44995 0.03041 0.99578 0.0
C170 C 0.48166 0.06754 0.00516 0.0
C171 C 0.49725 0.05556 0.98726 0.0
C172 C 0.48948 0.03093 0.97419 0.0
C173 C 0.46607 0.01853 0.97872 0.0
N174 N 0.50492 0.01759 0.95693 0.0
C175 C 0.52312 0.02892 0.943 0.0
C176 C 0.21153 0.9285 0.03207 0.0
O177 O 0.22128 0.92256 0.01006 0.0
O178 O 0.24151 0.86964 0.01776 0.0
Zn179 Zn 0.25011 0.90036 0.0453 0.0
O180 O 0.27933 0.92222 0.03381 0.0
C181 C 0.27386 0.87064 0.07533 0.0
O182 O 0.28195 0.86148 0.05324 0.0
O183 O 0.22061 0.92084 0.05075 0.0
C184 C 0.29652 0.93663 0.04735 0.0
O185 O 0.29621 0.93836 0.07179 0.0
C186 C 0.24714 0.87075 0.99519 0.0
O187 O 0.25801 0.89221 0.98974 0.0
O188 O 0.25979 0.88817 0.07702 0.0
C189 C 0.18585 0.4621 0.31249 0.0
O190 O 0.1828 0.47871 0.33264 0.0
O191 O 0.14381 0.51 0.31674 0.0
Zn192 Zn 0.16746 0.50045 0.28878 0.0
O193 O 0.19683 0.5278 0.29 0.0
C194 C 0.13291 0.48221 0.24422 0.0
O195 O 0.12606 0.46175 0.25381 0.0
O196 O 0.18019 0.46702 0.29117 0.0
C197 C 0.19255 0.54892 0.28454 0.0
O198 O 0.16932 0.55227 0.2797 0.0
C199 C 0.15032 0.52617 0.3364 0.0
O200 O 0.17361 0.53709 0.33929 0.0
O201 O 0.14942 0.49925 0.2557 0.0
C202 C 0.83208 0.59739 0.98443 0.0
O203 O 0.84111 0.61716 0.97467 0.0
O204 O 0.7905 0.63571 0.95515 0.0
Zn205 Zn 0.78422 0.61936 0.986 0.0
O206 O 0.74939 0.59981 0.98402 0.0
C207 C 0.80686 0.66036 0.02496 0.0
O208 O 0.82737 0.65755 0.01235 0.0
O209 O 0.80905 0.59469 0.9899 0.0
C210 C 0.73956 0.5951 0.00425 0.0
O211 O 0.75222 0.6033 0.0255 0.0
C212 C 0.78415 0.65762 0.95468 0.0
O213 O 0.77349 0.66928 0.97432 0.0
O214 O 0.78659 0.64646 0.01705 0.0
C215 C 0.87928 0.05235 0.29255 0.0
O216 O 0.87241 0.03714 0.27135 0.0
O217 O 0.93738 0.00842 0.31799 0.0
Zn218 Zn 0.91462 0.01712 0.29146 0.0
O219 O 0.88776 0.98762 0.27895 0.0
C220 C 0.94023 0.01544 0.24245 0.0
O221 O 0.92731 0.99313 0.23471 0.0
O222 O 0.89737 0.04752 0.30546 0.0
C223 C 0.89168 0.9646 0.27311 0.0
O224 O 0.91465 0.95888 0.27441 0.0
C225 C 0.95621 0.99725 0.31058 0.0
O226 O 0.95984 0.99168 0.28646 0.0
O227 O 0.93683 0.02752 0.26419 0.0
C228 C 0.3183 0.13489 0.51667 0.0
O229 O 0.31624 0.13714 0.49303 0.0
O230 O 0.2839 0.1794 0.49292 0.0
Zn231 Zn 0.27318 0.16015 0.52103 0.0
O232 O 0.24313 0.13313 0.5122 0.0
C233 C 0.27025 0.20837 0.55547 0.0
O234 O 0.28393 0.21908 0.5393 0.0
O235 O 0.30218 0.14337 0.53186 0.0
C236 C 0.2345 0.12398 0.53098 0.0
O237 O 0.24573 0.13228 0.55297 0.0
C238 C 0.27058 0.18211 0.47428 0.0
O239 O 0.24724 0.1713 0.47165 0.0
O240 O 0.26389 0.18452 0.55112 0.0
C241 C 0.39797 0.59297 0.77357 0.0
O242 O 0.38911 0.57718 0.75337 0.0
O243 O 0.46018 0.55049 0.7923 0.0
Zn244 Zn 0.43492 0.55905 0.76786 0.0
O245 O 0.40787 0.52893 0.76217 0.0
C246 C 0.45601 0.54841 0.71799 0.0
O247 O 0.45028 0.52463 0.72049 0.0
O248 O 0.41849 0.5896 0.7836 0.0
C249 C 0.3945 0.51848 0.74287 0.0
O250 O 0.39716 0.52763 0.72199 0.0
C251 C 0.46516 0.52769 0.78828 0.0
O252 O 0.4551 0.5123 0.76834 0.0
O253 O 0.45132 0.56589 0.73561 0.0
C254 C 0.69646 0.39456 0.53898 0.0
O255 O 0.69299 0.37029 0.54026 0.0
O256 O 0.74112 0.35674 0.50117 0.0
Zn257 Zn 0.7484 0.386 0.52997 0.0
O258 O 0.77678 0.41087 0.52135 0.0
C259 C 0.77062 0.35403 0.55804 0.0
O260 O 0.7803 0.34734 0.5361 0.0
O261 O 0.71829 0.40486 0.53517 0.0
C262 C 0.79503 0.42219 0.53568 0.0
O263 O 0.79727 0.41698 0.55831 0.0
C264 C 0.74361 0.35888 0.47832 0.0
O265 O 0.75076 0.38133 0.47266 0.0
O266 O 0.75643 0.37147 0.56066 0.0
C267 C 0.68119 0.98462 0.77173 0.0
O268 O 0.68111 1.00061 0.79293 0.0
O269 O 0.63227 0.02407 0.78816 0.0
Zn270 Zn 0.6512 0.02021 0.7558 0.0
O271 O 0.67594 0.05169 0.75655 0.0
C272 C 0.61805 0.03761 0.72261 0.0
O273 O 0.62607 0.05932 0.73702 0.0
O274 O 0.66958 0.98897 0.75267 0.0
C275 C 0.6867 0.0581 0.73741 0.0
O276 O 0.68285 0.04297 0.71565 0.0
C277 C 0.63042 0.04588 0.80088 0.0
O278 O 0.64101 0.06613 0.79284 0.0
O279 O 0.62623 0.01752 0.72687 0.0
C280 C 0.03608 0.21915 0.93474 0.0
O281 O 0.01228 0.22244 0.936 0.0
O282 O 0.00704 0.23896 0.88024 0.0
Zn283 Zn 0.03657 0.25623 0.90224 0.0
O284 O 0.02509 0.28567 0.92575 0.0
C285 C 0.06946 0.2532 0.86124 0.0
O286 O 0.05949 0.22936 0.85824 0.0
O287 O 0.05026 0.23169 0.9214 0.0
C288 C 0.04025 0.30374 0.9377 0.0
O289 O 0.06448 0.30318 0.93519 0.0
C290 C 0.99752 0.25245 0.86654 0.0
O291 O 0.00717 0.27625 0.86792 0.0
O292 O 0.06293 0.26882 0.87963 0.0
C293 C 0.51683 0.72733 0.41794 0.0
O294 O 0.49992 0.74292 0.42337 0.0
O295 O 0.50027 0.75996 0.36388 0.0
Zn296 Zn 0.53192 0.76291 0.38576 0.0
O297 O 0.53218 0.792 0.41488 0.0
C298 C 0.56324 0.78182 0.34807 0.0
O299 O 0.54335 0.79265 0.34406 0.0
O300 O 0.53259 0.73137 0.40125 0.0
C301 C 0.54061 0.81503 0.41467 0.0
O302 O 0.55022 0.82149 0.39419 0.0
C303 C 0.48884 0.77908 0.3627 0.0
O304 O 0.49736 0.80108 0.3763 0.0
O305 O 0.56277 0.76802 0.36491 0.0
C306 C 0.0304 0.8265 0.652 0.0
O307 O 0.02774 0.83417 0.67605 0.0
O308 O 0.98208 0.78668 0.68187 0.0
Zn309 Zn 0.01345 0.77675 0.66419 0.0
O310 O 0.00631 0.74237 0.64135 0.0
C311 C 0.06327 0.78241 0.68808 0.0
O312 O 0.07026 0.79237 0.66839 0.0
O313 O 0.02548 0.80301 0.64296 0.0
C314 C 0.02484 0.73142 0.63263 0.0
O315 O 0.04764 0.74271 0.63876 0.0
C316 C 0.96567 0.77044 0.6888 0.0
O317 O 0.96891 0.74635 0.68405 0.0
O318 O 0.04017 0.77482 0.69031 0.0
C319 C 0.52018 0.31073 0.12057 0.0
O320 O 0.50347 0.29147 0.11124 0.0
O321 O 0.49672 0.27592 0.17704 0.0
Zn322 Zn 0.5277 0.27754 0.15554 0.0
O323 O 0.52476 0.24736 0.1269 0.0
C324 C 0.57798 0.26832 0.16936 0.0
O325 O 0.57959 0.26033 0.14522 0.0
O326 O 0.53256 0.30964 0.14037 0.0
C327 C 0.51468 0.22517 0.1287 0.0
O328 O 0.50552 0.22095 0.15015 0.0
C329 C 0.49676 0.26297 0.19458 0.0
O330 O 0.51658 0.25183 0.1981 0.0
O331 O 0.55802 0.27674 0.17763 0.0
H332 H 0.25061 0.79493 0.85602 0.0
H333 H 0.24012 0.72545 0.88664 0.0
H334 H 0.23423 0.75022 0.92862 0.0
H335 H 0.28722 0.83061 0.90635 0.0
H336 H 0.27474 0.85994 0.90519 0.0
H337 H 0.27491 0.83658 0.87721 0.0
H338 H 0.22694 0.83585 0.87106 0.0
H339 H 0.22664 0.85934 0.899 0.0
H340 H 0.20649 0.82966 0.89605 0.0
H341 H 0.23199 0.78302 0.9677 0.0
H342 H 0.23567 0.82108 1.00091 0.0
H343 H 0.2494 0.86895 0.94461 0.0
C344 C 0.24643 0.78494 0.87147 0.0
C345 C 0.24546 0.75831 0.86816 0.0
C346 C 0.24077 0.74586 0.88889 0.0
C347 C 0.23733 0.75976 0.91272 0.0
C348 C 0.23881 0.78608 0.91547 0.0
C349 C 0.24331 0.79854 0.8954 0.0
C350 C 0.24614 0.82703 0.90365 0.0
C351 C 0.27231 0.83925 0.89776 0.0
C352 C 0.22531 0.83865 0.89173 0.0
C353 C 0.24296 0.8287 0.93155 0.0
C354 C 0.23836 0.80491 0.938 0.0
C355 C 0.23542 0.80174 0.96283 0.0
C356 C 0.23751 0.82346 0.98157 0.0
C357 C 0.24285 0.84797 0.97537 0.0
C358 C 0.24532 0.85049 0.94998 0.0
H359 H 0.01524 0.5198 0.39639 0.0
H360 H 0.04671 0.57636 0.45886 0.0
H361 H 0.08847 0.57725 0.4393 0.0
H362 H 0.06841 0.48511 0.38755 0.0
H363 H 0.06471 0.47861 0.35391 0.0
H364 H 0.03775 0.48271 0.37297 0.0
H365 H 0.02694 0.51833 0.34968 0.0
H366 H 0.05385 0.51432 0.33054 0.0
H367 H 0.05022 0.54505 0.34832 0.0
H368 H 0.12663 0.57156 0.41227 0.0
H369 H 0.1579 0.56021 0.38045 0.0
H370 H 0.10059 0.5072 0.33597 0.0
C371 C 0.031 0.53236 0.40588 0.0
C372 C 0.02812 0.54805 0.42896 0.0
C373 C 0.04885 0.56426 0.44107 0.0
C374 C 0.07251 0.56484 0.43011 0.0
C375 C 0.07483 0.54905 0.40717 0.0
C376 C 0.05458 0.53312 0.39523 0.0
C377 C 0.06183 0.51805 0.37077 0.0
C378 C 0.05795 0.48943 0.37135 0.0
C379 C 0.04735 0.52432 0.34852 0.0
C380 C 0.08936 0.52795 0.37067 0.0
C381 C 0.09657 0.5458 0.3918 0.0
C382 C 0.12117 0.5576 0.39568 0.0
C383 C 0.13879 0.55101 0.3775 0.0
C384 C 0.13173 0.5328 0.35569 0.0
C385 C 0.10665 0.52117 0.3524 0.0
H386 H 0.78482 0.76949 0.87523 0.0
H387 H 0.81205 0.71911 0.81289 0.0
H388 H 0.81198 0.68593 0.83903 0.0
H389 H 0.8195 0.75031 0.92395 0.0
H390 H 0.79449 0.75235 0.94585 0.0
H391 H 0.79709 0.77231 0.92235 0.0
H392 H 0.75154 0.7552 0.90667 0.0
H393 H 0.74878 0.73523 0.93016 0.0
H394 H 0.7428 0.72149 0.89763 0.0
H395 H 0.80891 0.65804 0.87214 0.0
H396 H 0.80226 0.63751 0.90935 0.0
H397 H 0.77585 0.70569 0.94949 0.0
C398 C 0.79057 0.75143 0.86695 0.0
C399 C 0.79857 0.74706 0.84196 0.0
C400 C 0.80625 0.72317 0.83208 0.0
C401 C 0.80613 0.70411 0.84674 0.0
C402 C 0.79819 0.7091 0.87128 0.0
C403 C 0.79048 0.73215 0.88128 0.0
C404 C 0.78261 0.73262 0.9081 0.0
C405 C 0.79943 0.75311 0.92612 0.0
C406 C 0.75478 0.73635 0.91079 0.0
C407 C 0.78705 0.70622 0.9116 0.0
C408 C 0.79612 0.69297 0.89018 0.0
C409 C 0.80176 0.66823 0.889 0.0
C410 C 0.79794 0.65673 0.91025 0.0
C411 C 0.78848 0.66992 0.93236 0.0
C412 C 0.78303 0.69502 0.9329 0.0
H413 H 0.02825 0.00406 0.44207 0.0
H414 H 0.06807 0.94359 0.405 0.0
H415 H 0.04574 0.94412 0.36507 0.0
H416 H 0.96935 0.98078 0.41038 0.0
H417 H 0.96081 0.01164 0.40822 0.0
H418 H 0.98115 0.00792 0.43352 0.0
H419 H 0.01476 0.04198 0.42129 0.0
H420 H 0.99445 0.04593 0.39605 0.0
H421 H 0.02574 0.03827 0.38972 0.0
H422 H 0.01913 0.95079 0.32965 0.0
H423 H 0.9887 0.9622 0.30063 0.0
H424 H 0.964 0.01691 0.36084 0.0
C425 C 0.03243 0.99125 0.42539 0.0
C426 C 0.04997 0.97394 0.42632 0.0
C427 C 0.05474 0.95703 0.40442 0.0
C428 C 0.04218 0.95722 0.38175 0.0
C429 C 0.02474 0.97427 0.38143 0.0
C430 C 0.01974 0.99092 0.40264 0.0
C431 C 0.99922 0.00643 0.39732 0.0
C432 C 0.97628 1.00138 0.41331 0.0
C433 C 0.00914 0.03484 0.40133 0.0
C434 C 0.99347 0.99583 0.36985 0.0
C435 C 0.0086 0.97747 0.36107 0.0
C436 C 0.00714 0.96511 0.33629 0.0
C437 C 0.9898 0.97174 0.31995 0.0
C438 C 0.97393 0.99036 0.32849 0.0
C439 C 0.97574 1.00245 0.35384 0.0
H440 H 0.26112 0.33439 0.65503 0.0
H441 H 0.22132 0.28675 0.70254 0.0
H442 H 0.22399 0.2491 0.67008 0.0
H443 H 0.2337 0.30068 0.59624 0.0
H444 H 0.26234 0.30458 0.57951 0.0
H445 H 0.2567 0.3279 0.6062 0.0
H446 H 0.29858 0.32201 0.62714 0.0
H447 H 0.30438 0.29871 0.6005 0.0
H448 H 0.30424 0.29075 0.63143 0.0
H449 H 0.2315 0.21658 0.63274 0.0
H450 H 0.24367 0.19136 0.59337 0.0
H451 H 0.27958 0.26009 0.57064 0.0
C452 C 0.2531 0.31604 0.65873 0.0
C453 C 0.24093 0.3136 0.68137 0.0
C454 C 0.23039 0.28921 0.68523 0.0
C455 C 0.23194 0.26768 0.66696 0.0
C456 C 0.24412 0.2708 0.64493 0.0
C457 C 0.25455 0.29435 0.64075 0.0
C458 C 0.26692 0.29248 0.61562 0.0
C459 C 0.25414 0.30729 0.59838 0.0
C460 C 0.29521 0.30152 0.61888 0.0
C461 C 0.26191 0.26416 0.60634 0.0
C462 C 0.24866 0.25203 0.6235 0.0
C463 C 0.24187 0.22587 0.61915 0.0
C464 C 0.24888 0.21171 0.59671 0.0
C465 C 0.26261 0.22371 0.57888 0.0
C466 C 0.26911 0.25032 0.58385 0.0
H467 H 0.51613 0.51612 0.58485 0.0
H468 H 0.54342 0.59604 0.5909 0.0
H469 H 0.51952 0.60541 0.62951 0.0
H470 H 0.45374 0.5234 0.61083 0.0
H471 H 0.45448 0.49701 0.62706 0.0
H472 H 0.47065 0.49743 0.59815 0.0
H473 H 0.5119 0.49154 0.62029 0.0
H474 H 0.49596 0.49133 0.64928 0.0
H475 H 0.52341 0.51377 0.6479 0.0
H476 H 0.49602 0.60513 0.6701 0.0
H477 H 0.47461 0.59541 0.70813 0.0
H478 H 0.46461 0.51537 0.67563 0.0
C479 C 0.51685 0.53567 0.59408 0.0
C480 C 0.5317 0.55535 0.58486 0.0
C481 C 0.53194 0.58069 0.59741 0.0
C482 C 0.51852 0.58616 0.61944 0.0
C483 C 0.50488 0.5661 0.62853 0.0
C484 C 0.50382 0.54138 0.61607 0.0
C485 C 0.48947 0.52294 0.63049 0.0
C486 C 0.46567 0.5094 0.61575 0.0
C487 C 0.50619 0.50378 0.6374 0.0
C488 C 0.48309 0.54102 0.6534 0.0
C489 C 0.49184 0.56588 0.65186 0.0
C490 C 0.48889 0.58575 0.67134 0.0
C491 C 0.47675 0.58004 0.6929 0.0
C492 C 0.46794 0.55462 0.6949 0.0
C493 C 0.47107 0.535 0.67473 0.0
H494 H 0.83278 0.25498 0.62477 0.0
H495 H 0.79318 0.28096 0.69158 0.0
H496 H 0.77248 0.30953 0.66891 0.0
H497 H 0.84567 0.31405 0.60591 0.0
H498 H 0.84151 0.30199 0.57283 0.0
H499 H 0.8512 0.28203 0.59355 0.0
H500 H 0.81345 0.24809 0.57797 0.0
H501 H 0.80381 0.26782 0.55695 0.0
H502 H 0.78218 0.25701 0.57919 0.0
H503 H 0.75866 0.33743 0.63939 0.0
H504 H 0.75135 0.36094 0.6052 0.0
H505 H 0.80049 0.3164 0.558 0.0
C506 C 0.81926 0.26628 0.63435 0.0
C507 C 0.8141 0.26569 0.65964 0.0
C508 C 0.79692 0.28104 0.672 0.0
C509 C 0.78521 0.29732 0.65931 0.0
C510 C 0.79103 0.29788 0.63436 0.0
C511 C 0.8075 0.28258 0.62197 0.0
C512 C 0.81145 0.28749 0.59556 0.0
C513 C 0.83909 0.29696 0.59176 0.0
C514 C 0.80216 0.26369 0.57628 0.0
C515 C 0.79494 0.3082 0.59508 0.0
C516 C 0.78325 0.31393 0.61757 0.0
C517 C 0.76758 0.33294 0.62164 0.0
C518 C 0.76361 0.34626 0.60215 0.0
C519 C 0.77531 0.34052 0.57889 0.0
C520 C 0.79119 0.32124 0.57549 0.0
H521 H 0.52445 0.9728 0.60859 0.0
H522 H 0.52212 0.04781 0.59038 0.0
H523 H 0.54727 0.06658 0.62883 0.0
H524 H 0.52417 0.99033 0.67684 0.0
H525 H 0.54605 0.96864 0.68148 0.0
H526 H 0.52498 0.96156 0.6545 0.0
H527 H 0.56283 0.95716 0.6255 0.0
H528 H 0.58402 0.96439 0.65233 0.0
H529 H 0.58777 0.98309 0.62779 0.0
H530 H 0.57554 0.07683 0.66761 0.0
H531 H 0.60464 0.07781 0.7033 0.0
H532 H 0.59089 0.99573 0.69419 0.0
C533 C 0.52907 0.99321 0.61264 0.0
C534 C 0.52123 0.00878 0.59629 0.0
C535 C 0.52746 0.03543 0.6027 0.0
C536 C 0.54192 0.04628 0.62445 0.0
C537 C 0.55005 0.03023 0.63959 0.0
C538 C 0.54378 0.00427 0.63398 0.0
C539 C 0.55632 0.99101 0.65222 0.0
C540 C 0.53671 0.97707 0.66715 0.0
C541 C 0.57377 0.97285 0.63865 0.0
C542 C 0.57106 0.01355 0.66876 0.0
C543 C 0.56692 0.03603 0.66139 0.0
C544 C 0.57879 0.05935 0.67362 0.0
C545 C 0.59532 0.05969 0.69387 0.0
C546 C 0.6001 0.03685 0.70153 0.0
C547 C 0.5877 0.01351 0.68877 0.0
H548 H 0.89104 0.2554 0.76433 0.0
H549 H 0.86926 0.17529 0.76456 0.0
H550 H 0.90286 0.17598 0.79611 0.0
H551 H 0.95792 0.25415 0.77041 0.0
H552 H 0.9632 0.28477 0.79039 0.0
H553 H 0.93753 0.27778 0.76772 0.0
H554 H 0.90652 0.28935 0.80296 0.0
H555 H 0.93206 0.29627 0.82575 0.0
H556 H 0.9056 0.27349 0.82966 0.0
H557 H 0.93863 0.18564 0.82807 0.0
H558 H 0.97413 0.20347 0.85764 0.0
H559 H 0.9726 0.27705 0.83582 0.0
C560 C 0.89352 0.23793 0.77078 0.0
C561 C 0.8775 0.2153 0.76201 0.0
C562 C 0.88112 0.19292 0.77125 0.0
C563 C 0.90022 0.19309 0.78906 0.0
C564 C 0.91557 0.21577 0.79742 0.0
C565 C 0.91246 0.23776 0.78853 0.0
C566 C 0.9313 0.25968 0.80071 0.0
C567 C 0.94851 0.26967 0.78114 0.0
C568 C 0.91807 0.28095 0.81566 0.0
C569 C 0.94548 0.24661 0.81786 0.0
C570 C 0.93614 0.2213 0.81571 0.0
C571 C 0.94614 0.20543 0.82987 0.0
C572 C 0.96628 0.21573 0.84663 0.0
C573 C 0.97616 0.24164 0.84904 0.0
C574 C 0.96553 0.25717 0.83442 0.0
H575 H 0.5186 0.95213 0.48585 0.0
H576 H 0.50962 0.92011 0.55376 0.0
H577 H 0.5198 0.87898 0.53088 0.0
H578 H 0.49092 0.89817 0.44395 0.0
H579 H 0.51234 0.90218 0.41915 0.0
H580 H 0.50576 0.92937 0.44123 0.0
H581 H 0.55323 0.94131 0.45209 0.0
H582 H 0.55998 0.91415 0.43 0.0
H583 H 0.57086 0.91827 0.46214 0.0
H584 H 0.52735 0.84055 0.49972 0.0
H585 H 0.53417 0.80816 0.46307 0.0
H586 H 0.53994 0.86585 0.41597 0.0
C587 C 0.51892 0.93647 0.4959 0.0
C588 C 0.51331 0.9392 0.52153 0.0
C589 C 0.51409 0.9184 0.53416 0.0
C590 C 0.51976 0.895 0.52131 0.0
C591 C 0.52491 0.89285 0.49595 0.0
C592 C 0.52482 0.9131 0.48344 0.0
C593 C 0.53057 0.90571 0.45609 0.0
C594 C 0.50858 0.90905 0.43912 0.0
C595 C 0.55512 0.92075 0.44972 0.0
C596 C 0.53342 0.87799 0.45503 0.0
C597 C 0.53005 0.87092 0.4782 0.0
C598 C 0.53038 0.84593 0.48156 0.0
C599 C 0.53418 0.82767 0.46065 0.0
C600 C 0.53782 0.83457 0.43678 0.0
C601 C 0.53766 0.86011 0.43407 0.0
H602 H 0.15437 0.35504 0.79757 0.0
H603 H 0.16983 0.29365 0.73933 0.0
H604 H 0.14363 0.26288 0.76058 0.0
H605 H 0.15613 0.32112 0.84897 0.0
H606 H 0.13109 0.33582 0.86511 0.0
H607 H 0.15086 0.35264 0.8452 0.0
H608 H 0.11172 0.35878 0.81975 0.0
H609 H 0.09183 0.34206 0.83964 0.0
H610 H 0.09017 0.33145 0.80623 0.0
H611 H 0.11552 0.23925 0.78848 0.0
H612 H 0.08746 0.22442 0.82021 0.0
H613 H 0.09097 0.30179 0.86023 0.0
C614 C 0.15211 0.33509 0.78934 0.0
C615 C 0.16379 0.32644 0.76693 0.0
C616 C 0.16076 0.30038 0.75653 0.0
C617 C 0.14602 0.28289 0.76848 0.0
C618 C 0.13466 0.29197 0.79072 0.0
C619 C 0.13755 0.31749 0.80102 0.0
C620 C 0.12341 0.32246 0.82501 0.0
C621 C 0.14145 0.33367 0.84739 0.0
C622 C 0.10307 0.3397 0.82249 0.0
C623 C 0.11198 0.29578 0.82663 0.0
C624 C 0.1187 0.27844 0.80673 0.0
C625 C 0.11018 0.25266 0.80415 0.0
C626 C 0.09426 0.24443 0.82229 0.0
C627 C 0.08703 0.26193 0.84274 0.0
C628 C 0.09619 0.28791 0.8449 0.0
H629 H 0.57895 0.61576 0.46498 0.0
H630 H 0.51946 0.61139 0.51797 0.0
H631 H 0.50079 0.64561 0.50177 0.0
H632 H 0.5861 0.68358 0.46863 0.0
H633 H 0.59213 0.68209 0.43581 0.0
H634 H 0.60047 0.65748 0.45173 0.0
H635 H 0.57386 0.6237 0.41908 0.0
H636 H 0.56533 0.64822 0.40313 0.0
H637 H 0.54126 0.62658 0.4138 0.0
H638 H 0.48897 0.68034 0.47946 0.0
H639 H 0.48512 0.71334 0.45376 0.0
H640 H 0.55254 0.69453 0.41513 0.0
C641 C 0.56203 0.62215 0.47317 0.0
C642 C 0.55053 0.61125 0.49267 0.0
C643 C 0.52843 0.61976 0.50302 0.0
C644 C 0.51775 0.63907 0.49391 0.0
C645 C 0.52949 0.64947 0.47447 0.0
C646 C 0.55118 0.64132 0.46428 0.0
C647 C 0.5602 0.65556 0.44363 0.0
C648 C 0.58627 0.67057 0.45036 0.0
C649 C 0.56015 0.63743 0.41842 0.0
C650 C 0.54023 0.67308 0.44375 0.0
C651 C 0.52266 0.66926 0.46164 0.0
C652 C 0.5026 0.68345 0.46539 0.0
C653 C 0.50057 0.70214 0.45066 0.0
C654 C 0.51849 0.70654 0.43236 0.0
C655 C 0.53845 0.6916 0.42883 0.0
H656 H 0.84109 0.75131 0.7656 0.0
H657 H 0.84393 0.83324 0.78261 0.0
H658 H 0.88044 0.83746 0.75552 0.0
H659 H 0.90649 0.7499 0.76831 0.0
H660 H 0.90628 0.72319 0.74323 0.0
H661 H 0.87908 0.7267 0.76203 0.0
H662 H 0.85165 0.7248 0.72208 0.0
H663 H 0.87877 0.72122 0.70312 0.0
H664 H 0.86036 0.74659 0.70098 0.0
H665 H 0.91853 0.83255 0.72848 0.0
H666 H 0.95447 0.81903 0.70376 0.0
H667 H 0.927 0.74036 0.70579 0.0
C668 C 0.84932 0.77019 0.76366 0.0
C669 C 0.83959 0.79196 0.77634 0.0
C670 C 0.85078 0.81626 0.77289 0.0
C671 C 0.87163 0.81885 0.75763 0.0
C672 C 0.88102 0.79696 0.74587 0.0
C673 C 0.87013 0.7731 0.74866 0.0
C674 C 0.88433 0.75259 0.73494 0.0
C675 C 0.89466 0.7372 0.75322 0.0
C676 C 0.86779 0.73529 0.71404 0.0
C677 C 0.90522 0.76861 0.72427 0.0
C678 C 0.90292 0.79415 0.7306 0.0
C679 C 0.9204 0.81259 0.7233 0.0
C680 C 0.94078 0.80472 0.70927 0.0
C681 C 0.9436 0.77862 0.70279 0.0
C682 C 0.92541 0.76044 0.71034 0.0
H683 H 0.05989 0.87152 0.52165 0.0
H684 H 0.07147 0.94893 0.56151 0.0
H685 H 0.06536 0.93337 0.60189 0.0
H686 H 0.01116 0.8497 0.5582 0.0
H687 H 0.02068 0.81864 0.5571 0.0
H688 H 0.02823 0.83583 0.53196 0.0
H689 H 0.07535 0.83176 0.53801 0.0
H690 H 0.06792 0.81438 0.56309 0.0
H691 H 0.09041 0.84254 0.56843 0.0
H692 H 0.05519 0.9089 0.63747 0.0
H693 H 0.04238 0.87809 0.66525 0.0
H694 H 0.03723 0.81678 0.60136 0.0
C695 C 0.06162 0.88509 0.53899 0.0
C696 C 0.06644 0.91129 0.53883 0.0
C697 C 0.06809 0.92873 0.56156 0.0
C698 C 0.06461 0.92004 0.58446 0.0
C699 C 0.05951 0.89394 0.58405 0.0
C700 C 0.05816 0.87674 0.56186 0.0
C701 C 0.05125 0.84983 0.56623 0.0
C702 C 0.02635 0.83781 0.55256 0.0
C703 C 0.07251 0.83368 0.55848 0.0
C704 C 0.04853 0.85449 0.59431 0.0
C705 C 0.0535 0.88001 0.60432 0.0
C706 C 0.05145 0.88887 0.62983 0.0
C707 C 0.04411 0.87121 0.64546 0.0
C708 C 0.0388 0.84499 0.63553 0.0
C709 C 0.04122 0.83666 0.6096 0.0
H710 H 0.20108 0.77004 0.73556 0.0
H711 H 0.1678 0.73851 0.79756 0.0
H712 H 0.12588 0.74729 0.78426 0.0
H713 H 0.15983 0.82029 0.73579 0.0
H714 H 0.15883 0.81644 0.70212 0.0
H715 H 0.18619 0.8101 0.71823 0.0
H716 H 0.1823 0.76493 0.69168 0.0
H717 H 0.15488 0.77105 0.67563 0.0
H718 H 0.15336 0.74411 0.69138 0.0
H719 H 0.08729 0.75601 0.76161 0.0
H720 H 0.05532 0.76471 0.73228 0.0
H721 H 0.11437 0.79078 0.68527 0.0
C722 C 0.18498 0.7656 0.74662 0.0
C723 C 0.18739 0.75399 0.7677 0.0
C724 C 0.1661 0.74777 0.78152 0.0
C725 C 0.14232 0.75266 0.77408 0.0
C726 C 0.14039 0.7638 0.75286 0.0
C727 C 0.16121 0.77037 0.73944 0.0
C728 C 0.15399 0.78072 0.71653 0.0
C729 C 0.16539 0.80854 0.71828 0.0
C730 C 0.16158 0.76421 0.69239 0.0
C731 C 0.1258 0.77842 0.71876 0.0
C732 C 0.11828 0.76879 0.7399 0.0
C733 C 0.093 0.76386 0.74518 0.0
C734 C 0.07497 0.76881 0.72837 0.0
C735 C 0.08231 0.77854 0.70652 0.0
C736 C 0.1081 0.7836 0.70191 0.0
H737 H 0.94917 0.61344 0.54124 0.0
H738 H 0.0206 0.58513 0.52534 0.0
H739 H 0.04188 0.62138 0.55524 0.0
H740 H 0.97147 0.67879 0.54629 0.0
H741 H 0.95156 0.68921 0.57158 0.0
H742 H 0.94171 0.66051 0.54971 0.0
H743 H 0.93614 0.63534 0.58629 0.0
H744 H 0.94587 0.66399 0.6083 0.0
H745 H 0.96201 0.63655 0.608 0.0
H746 H 0.05559 0.66133 0.58564 0.0
H747 H 0.06094 0.70213 0.61477 0.0
H748 H 0.98051 0.70442 0.61166 0.0
C749 C 0.96924 0.61461 0.54435 0.0
C750 C 0.98321 0.59637 0.53092 0.0
C751 C 0.00952 0.59895 0.53519 0.0
C752 C 0.02176 0.61941 0.55224 0.0
C753 C 0.00745 0.63713 0.56496 0.0
C754 C 0.98176 0.63491 0.56131 0.0
C755 C 0.97089 0.65695 0.5769 0.0
C756 C 0.95816 0.67227 0.56011 0.0
C757 C 0.95265 0.64765 0.59601 0.0
C758 C 0.99452 0.67203 0.58974 0.0
C759 C 0.01537 0.66019 0.58261 0.0
C760 C 0.03939 0.6707 0.59146 0.0
C761 C 0.04222 0.69395 0.608 0.0
C762 C 0.02116 0.70653 0.61558 0.0
C763 C 0.99698 0.69526 0.60636 0.0
H764 H 0.828 0.82371 0.22137 0.0
H765 H 0.75545 0.8504 0.23385 0.0
H766 H 0.77657 0.89369 0.25 0.0
H767 H 0.85957 0.86195 0.27624 0.0
H768 H 0.88879 0.86735 0.26079 0.0
H769 H 0.86779 0.83869 0.25059 0.0
H770 H 0.86725 0.84858 0.20551 0.0
H771 H 0.88819 0.87731 0.21558 0.0
H772 H 0.85856 0.87856 0.20034 0.0
H773 H 0.8061 0.93448 0.26339 0.0
H774 H 0.84129 0.96871 0.27502 0.0
H775 H 0.89417 0.91455 0.25405 0.0
C776 C 0.81652 0.83868 0.2274 0.0
C777 C 0.79008 0.83377 0.22622 0.0
C778 C 0.77574 0.85375 0.23472 0.0
C779 C 0.78757 0.87839 0.24379 0.0
C780 C 0.81372 0.88261 0.24439 0.0
C781 C 0.82799 0.86323 0.23658 0.0
C782 C 0.85575 0.87256 0.23925 0.0
C783 C 0.86873 0.85935 0.25783 0.0
C784 C 0.86816 0.86904 0.21364 0.0
C785 C 0.85497 0.9003 0.24969 0.0
C786 C 0.83058 0.9058 0.25244 0.0
C787 C 0.82525 0.93033 0.26142 0.0
C788 C 0.84537 0.94966 0.26792 0.0
C789 C 0.87051 0.94432 0.26554 0.0
C790 C 0.87521 0.91927 0.25623 0.0
H791 H 0.77877 0.14759 0.28235 0.0
H792 H 0.81821 0.19878 0.34488 0.0
H793 H 0.84729 0.16733 0.348 0.0
H794 H 0.78464 0.08935 0.30438 0.0
H795 H 0.78955 0.07199 0.27369 0.0
H796 H 0.77123 0.09813 0.27705 0.0
H797 H 0.8003 0.11967 0.24692 0.0
H798 H 0.81865 0.09356 0.2434 0.0
H799 H 0.83362 0.1255 0.2536 0.0
H800 H 0.87254 0.13029 0.34387 0.0
H801 H 0.89267 0.09128 0.33189 0.0
H802 H 0.83752 0.06534 0.27113 0.0
C803 C 0.79361 0.15233 0.29661 0.0
C804 C 0.79605 0.17569 0.31345 0.0
C805 C 0.8156 0.18087 0.33203 0.0
C806 C 0.83232 0.16318 0.33388 0.0
C807 C 0.82935 0.14039 0.31695 0.0
C808 C 0.81054 0.13499 0.29862 0.0
C809 C 0.81174 0.10941 0.28234 0.0
C810 C 0.78787 0.09115 0.2845 0.0
C811 C 0.81636 0.11221 0.25495 0.0
C812 C 0.83428 0.10132 0.29427 0.0
C813 C 0.84409 0.11934 0.31431 0.0
C814 C 0.86501 0.11604 0.32821 0.0
C815 C 0.87628 0.09381 0.32128 0.0
C816 C 0.86671 0.07526 0.30056 0.0
C817 C 0.84534 0.07914 0.28704 0.0
H818 H 0.42711 0.02369 0.03976 0.0
H819 H 0.41591 0.00729 0.95903 0.0
H820 H 0.37467 0.98317 0.96373 0.0
H821 H 0.40053 0.96329 0.05078 0.0
H822 H 0.3859 0.97507 0.07948 0.0
H823 H 0.41376 0.99266 0.07003 0.0
H824 H 0.39066 0.03241 0.07243 0.0
H825 H 0.36273 0.01497 0.08201 0.0
H826 H 0.36153 0.03018 0.05501 0.0
H827 H 0.33587 0.95945 0.97679 0.0
H828 H 0.3016 0.93708 0.99738 0.0
H829 H 0.33769 0.96818 0.06994 0.0
C830 C 0.41574 0.01534 0.02314 0.0
C831 C 0.42461 0.01732 0.99902 0.0
C832 C 0.40947 0.00581 0.97765 0.0
C833 C 0.38601 0.9922 0.98014 0.0
C834 C 0.37796 0.99024 0.00412 0.0
C835 C 0.39229 1.00148 0.02528 0.0
C836 C 0.37963 0.99541 0.04879 0.0
C837 C 0.39593 0.98073 0.06311 0.0
C838 C 0.37326 0.01969 0.06555 0.0
C839 C 0.35612 0.97879 0.03749 0.0
C840 C 0.35551 0.97624 0.0117 0.0
C841 C 0.33604 0.9614 0.99698 0.0
C842 C 0.31667 0.94872 0.00889 0.0
C843 C 0.3169 0.95085 0.03531 0.0
C844 C 0.33689 0.96623 0.04974 0.0
H845 H 0.24779 0.33602 0.26336 0.0
H846 H 0.2609 0.32976 0.34077 0.0
H847 H 0.23898 0.36756 0.35451 0.0
H848 H 0.25844 0.40307 0.27167 0.0
H849 H 0.23445 0.40588 0.24926 0.0
H850 H 0.24968 0.37761 0.24576 0.0
H851 H 0.20652 0.35022 0.2453 0.0
H852 H 0.19114 0.37843 0.24873 0.0
H853 H 0.18572 0.35705 0.2708 0.0
H854 H 0.21738 0.4072 0.35941 0.0
H855 H 0.19775 0.44544 0.35549 0.0
H856 H 0.1988 0.42557 0.27451 0.0
C857 C 0.24569 0.34251 0.28318 0.0
C858 C 0.25567 0.33015 0.30114 0.0
C859 C 0.25307 0.33908 0.32689 0.0
C860 C 0.24071 0.36046 0.33478 0.0
C861 C 0.23114 0.37248 0.31658 0.0
C862 C 0.23344 0.36376 0.29131 0.0
C863 C 0.22232 0.38051 0.27554 0.0
C864 C 0.24242 0.39247 0.25963 0.0
C865 C 0.2001 0.36566 0.25913 0.0
C866 C 0.21364 0.40025 0.29586 0.0
C867 C 0.2188 0.39523 0.3194 0.0
C868 C 0.21312 0.41121 0.34107 0.0
C869 C 0.20199 0.43292 0.33863 0.0
C870 C 0.19666 0.43853 0.31469 0.0
C871 C 0.20247 0.42178 0.29308 0.0
H872 H 0.12662 0.01908 0.46171 0.0
H873 H 0.10184 0.00748 0.53532 0.0
H874 H 0.13543 0.04059 0.55479 0.0
H875 H 0.19209 0.02968 0.47627 0.0
H876 H 0.19869 0.05388 0.45727 0.0
H877 H 0.17253 0.02951 0.44907 0.0
H878 H 0.14256 0.06378 0.44992 0.0
H879 H 0.16865 0.08828 0.45802 0.0
H880 H 0.14175 0.0875 0.47762 0.0
H881 H 0.17215 0.07421 0.5662 0.0
H882 H 0.20903 0.10655 0.56905 0.0
H883 H 0.20933 0.09743 0.48795 0.0
C884 C 0.12795 0.02373 0.48194 0.0
C885 C 0.11147 0.01063 0.49698 0.0
C886 C 0.11434 0.017 0.52338 0.0
C887 C 0.13328 0.03589 0.53462 0.0
C888 C 0.14918 0.04833 0.51921 0.0
C889 C 0.14666 0.0426 0.49345 0.0
C890 C 0.16636 0.05864 0.48116 0.0
C891 C 0.18343 0.04193 0.46499 0.0
C892 C 0.1541 0.07555 0.46577 0.0
C893 C 0.18047 0.07425 0.50407 0.0
C894 C 0.17024 0.06794 0.5258 0.0
C895 C 0.18025 0.07937 0.54932 0.0
C896 C 0.20127 0.09772 0.55071 0.0
C897 C 0.21212 0.10461 0.52872 0.0
C898 C 0.20144 0.0927 0.5051 0.0
H899 H 0.7894 0.16186 0.6962 0.0
H900 H 0.78411 0.20624 0.7701 0.0
H901 H 0.74856 0.17574 0.7789 0.0
H902 H 0.72048 0.1396 0.68526 0.0
H903 H 0.72637 0.10866 0.66965 0.0
H904 H 0.74855 0.1361 0.66772 0.0
H905 H 0.78374 0.11422 0.68469 0.0
H906 H 0.76167 0.08694 0.68709 0.0
H907 H 0.78005 0.10341 0.71425 0.0
H908 H 0.71784 0.13803 0.78179 0.0
H909 H 0.69188 0.09654 0.77782 0.0
H910 H 0.71694 0.07599 0.70197 0.0
C911 C 0.78005 0.16559 0.71381 0.0
C912 C 0.78912 0.18651 0.73238 0.0
C913 C 0.77714 0.19042 0.75561 0.0
C914 C 0.757 0.17321 0.76075 0.0
C915 C 0.74907 0.15221 0.74243 0.0
C916 C 0.75998 0.14844 0.7193 0.0
C917 C 0.7493 0.12318 0.70379 0.0
C918 C 0.73534 0.12713 0.68021 0.0
C919 C 0.76992 0.10593 0.69708 0.0
C920 C 0.73128 0.11305 0.7221 0.0
C921 C 0.73132 0.1302 0.74418 0.0
C922 C 0.71733 0.1246 0.76445 0.0
C923 C 0.70277 0.10089 0.76206 0.0
C924 C 0.70231 0.08301 0.73957 0.0
C925 C 0.71671 0.08932 0.71932 0.0
H926 H 0.43272 0.05308 0.49969 0.0
H927 H 0.42773 0.04672 0.57799 0.0
H928 H 0.39517 0.07612 0.58305 0.0
H929 H 0.42187 0.1203 0.50631 0.0
H930 H 0.40359 0.11459 0.47744 0.0
H931 H 0.42831 0.09565 0.48112 0.0
H932 H 0.39665 0.05486 0.47007 0.0
H933 H 0.37181 0.07363 0.46659 0.0
H934 H 0.36875 0.05142 0.48802 0.0
H935 H 0.36056 0.10332 0.57813 0.0
H936 H 0.32745 0.12629 0.5642 0.0
H937 H 0.35524 0.114 0.48874 0.0
C938 C 0.42521 0.0585 0.51804 0.0
C939 C 0.43282 0.04823 0.53861 0.0
C940 C 0.42227 0.05492 0.5622 0.0
C941 C 0.40379 0.07149 0.56516 0.0
C942 C 0.39624 0.08103 0.54429 0.0
C943 C 0.40678 0.07487 0.52122 0.0
C944 C 0.39436 0.08615 0.50135 0.0
C945 C 0.41315 0.10532 0.49095 0.0
C946 C 0.38217 0.06527 0.48028 0.0
C947 C 0.37481 0.09925 0.51666 0.0
C948 C 0.37627 0.09628 0.54142 0.0
C949 C 0.35944 0.10596 0.55884 0.0
C950 C 0.34065 0.11894 0.55073 0.0
C951 C 0.33874 0.12202 0.52537 0.0
C952 C 0.35623 0.11213 0.50826 0.0
H953 H 0.62854 0.51765 0.53569 0.0
H954 H 0.55952 0.47437 0.55315 0.0
H955 H 0.58206 0.43722 0.55392 0.0
H956 H 0.65264 0.46637 0.49493 0.0
H957 H 0.68471 0.47641 0.50561 0.0
H958 H 0.66303 0.49946 0.5063 0.0
H959 H 0.67302 0.51479 0.55368 0.0
H960 H 0.69466 0.49172 0.55316 0.0
H961 H 0.66932 0.4922 0.57472 0.0
H962 H 0.61218 0.4047 0.55261 0.0
H963 H 0.64773 0.37938 0.54958 0.0
H964 H 0.69698 0.44413 0.53321 0.0
C965 C 0.61813 0.50028 0.53943 0.0
C966 C 0.59228 0.49889 0.54437 0.0
C967 C 0.57939 0.47592 0.54956 0.0
C968 C 0.59199 0.4547 0.54994 0.0
C969 C 0.6175 0.45676 0.54513 0.0
C970 C 0.63043 0.47896 0.53999 0.0
C971 C 0.65785 0.47629 0.53574 0.0
C972 C 0.66497 0.47984 0.50905 0.0
C973 C 0.6747 0.49485 0.55551 0.0
C974 C 0.65831 0.4491 0.53923 0.0
C975 C 0.63486 0.43814 0.5446 0.0
C976 C 0.63065 0.41309 0.54844 0.0
C977 C 0.65095 0.39886 0.54668 0.0
C978 C 0.67516 0.40975 0.54121 0.0
C979 C 0.67875 0.43524 0.53751 0.0
H980 H 0.75586 0.27884 0.34186 0.0
H981 H 0.73528 0.21114 0.37382 0.0
H982 H 0.72716 0.23773 0.4141 0.0
H983 H 0.7891 0.31397 0.39444 0.0
H984 H 0.77938 0.34407 0.39109 0.0
H985 H 0.78059 0.31987 0.36395 0.0
H986 H 0.73396 0.32195 0.35305 0.0
H987 H 0.73263 0.34633 0.38011 0.0
H988 H 0.71062 0.31783 0.37617 0.0
H989 H 0.72475 0.27146 0.45164 0.0
H990 H 0.72833 0.30996 0.48405 0.0
H991 H 0.75093 0.35595 0.42785 0.0
C992 C 0.74899 0.26966 0.35717 0.0
C993 C 0.74601 0.24297 0.35476 0.0
C994 C 0.73768 0.23158 0.37535 0.0
C995 C 0.73293 0.24651 0.39823 0.0
C996 C 0.73659 0.27281 0.40018 0.0
C997 C 0.74434 0.28431 0.38019 0.0
C998 C 0.74864 0.31292 0.38778 0.0
C999 C 0.77606 0.3233 0.3841 0.0
C1000 C 0.73037 0.3255 0.37342 0.0
C1001 C 0.74264 0.31566 0.41528 0.0
C1002 C 0.73547 0.29231 0.42198 0.0
C1003 C 0.73007 0.28988 0.44658 0.0
C1004 C 0.73222 0.31188 0.46487 0.0
C1005 C 0.73986 0.33602 0.45852 0.0
C1006 C 0.74486 0.33783 0.4333 0.0
H1007 H 0.54246 0.9985 0.90571 0.0
H1008 H 0.54318 0.0771 0.94052 0.0
H1009 H 0.57216 0.09028 0.90833 0.0
H1010 H 0.6078 1.00268 0.88786 0.0
H1011 H 0.60102 0.98107 0.85868 0.0
H1012 H 0.58148 0.97814 0.8851 0.0
H1013 H 0.54234 0.98153 0.85824 0.0
H1014 H 0.56175 0.98457 0.83179 0.0
H1015 H 0.54185 0.0085 0.84277 0.0
H1016 H 0.59972 0.09449 0.87123 0.0
H1017 H 0.6239 0.08982 0.83257 0.0
H1018 H 0.60476 0.00807 0.8222 0.0
C1019 C 0.54902 0.01845 0.90663 0.0
C1020 C 0.541 0.0369 0.92545 0.0
C1021 C 0.54947 0.06283 0.92618 0.0
C1022 C 0.56584 0.0704 0.90802 0.0
C1023 C 0.57337 0.05171 0.88944 0.0
C1024 C 0.56527 0.02625 0.8887 0.0
C1025 C 0.57546 0.00995 0.86646 0.0
C1026 C 0.59245 0.9919 0.87505 0.0
C1027 C 0.55407 0.99528 0.84877 0.0
C1028 C 0.59043 0.03018 0.85461 0.0
C1029 C 0.58906 0.05413 0.86816 0.0
C1030 C 0.60101 0.07582 0.86056 0.0
C1031 C 0.61468 0.07295 0.83854 0.0
C1032 C 0.61628 0.04857 0.82433 0.0
C1033 C 0.604 0.02696 0.83264 0.0
H1034 H 0.27619 0.23908 0.34709 0.0
H1035 H 0.35136 0.27454 0.37076 0.0
H1036 H 0.34678 0.25821 0.41051 0.0
H1037 H 0.24849 0.25007 0.40938 0.0
H1038 H 0.22893 0.21994 0.40384 0.0
H1039 H 0.23749 0.23594 0.37803 0.0
H1040 H 0.25557 0.19598 0.35551 0.0
H1041 H 0.24728 0.17993 0.38131 0.0
H1042 H 0.27924 0.18299 0.37132 0.0
H1043 H 0.33516 0.23583 0.44644 0.0
H1044 H 0.31684 0.21012 0.47676 0.0
H1045 H 0.2489 0.18931 0.43017 0.0
C1046 C 0.29146 0.24388 0.36088 0.0
C1047 C 0.31415 0.25813 0.35581 0.0
C1048 C 0.33389 0.26352 0.37415 0.0
C1049 C 0.33143 0.2544 0.39682 0.0
C1050 C 0.30906 0.23995 0.40099 0.0
C1051 C 0.28934 0.23486 0.38363 0.0
C1052 C 0.26769 0.21801 0.39236 0.0
C1053 C 0.24426 0.23182 0.39613 0.0
C1054 C 0.26213 0.19273 0.37403 0.0
C1055 C 0.27848 0.21414 0.41715 0.0
C1056 C 0.30233 0.22705 0.42178 0.0
C1057 C 0.31642 0.22581 0.44311 0.0
C1058 C 0.30585 0.21107 0.46021 0.0
C1059 C 0.28138 0.19768 0.45595 0.0
C1060 C 0.26757 0.19938 0.43409 0.0
H1061 H 0.53078 0.52425 0.92077 0.0
H1062 H 0.53441 0.44437 0.89361 0.0
H1063 H 0.5177 0.44879 0.85224 0.0
H1064 H 0.4726 0.52657 0.88998 0.0
H1065 H 0.48081 0.55793 0.8829 0.0
H1066 H 0.49499 0.5491 0.90976 0.0
H1067 H 0.53911 0.56116 0.89326 0.0
H1068 H 0.52505 0.56999 0.86628 0.0
H1069 H 0.54691 0.54689 0.86221 0.0
H1070 H 0.4996 0.4612 0.81468 0.0
H1071 H 0.47855 0.48007 0.78342 0.0
H1072 H 0.48493 0.55204 0.83472 0.0
C1073 C 0.52831 0.50784 0.90595 0.0
C1074 C 0.53392 0.48397 0.91022 0.0
C1075 C 0.5301 0.46276 0.89063 0.0
C1076 C 0.52078 0.46513 0.86709 0.0
C1077 C 0.51523 0.48883 0.86349 0.0
C1078 C 0.51867 0.50981 0.88235 0.0
C1079 C 0.50967 0.53267 0.87385 0.0
C1080 C 0.48824 0.54212 0.89009 0.0
C1081 C 0.53149 0.55393 0.8739 0.0
C1082 C 0.50038 0.52115 0.84738 0.0
C1083 C 0.5041 0.49592 0.84178 0.0
C1084 C 0.49664 0.48096 0.81879 0.0
C1085 C 0.48467 0.49191 0.80114 0.0
C1086 C 0.48003 0.51757 0.80655 0.0
C1087 C 0.48833 0.53244 0.82993 0.0
H1088 H 0.74947 0.73707 0.14566 0.0
H1089 H 0.82543 0.77013 0.16938 0.0
H1090 H 0.84132 0.74697 0.13064 0.0
H1091 H 0.765 0.6753 0.11979 0.0
H1092 H 0.74221 0.67035 0.0943 0.0
H1093 H 0.73678 0.69038 0.1234 0.0
H1094 H 0.73143 0.72725 0.09963 0.0
H1095 H 0.73691 0.70735 0.07046 0.0
H1096 H 0.75601 0.73743 0.07985 0.0
H1097 H 0.84897 0.71969 0.08946 0.0
H1098 H 0.84791 0.68955 0.04954 0.0
H1099 H 0.76708 0.67329 0.05368 0.0
C1100 C 0.76948 0.73933 0.14286 0.0
C1101 C 0.78616 0.75554 0.1606 0.0
C1102 C 0.81219 0.75818 0.15593 0.0
C1103 C 0.82142 0.74499 0.13403 0.0
C1104 C 0.80443 0.72916 0.11701 0.0
C1105 C 0.77902 0.72622 0.12122 0.0
C1106 C 0.76477 0.70765 0.10023 0.0
C1107 C 0.75141 0.68455 0.11002 0.0
C1108 C 0.74619 0.72071 0.08675 0.0
C1109 C 0.78616 0.70047 0.08362 0.0
C1110 C 0.80887 0.71319 0.09353 0.0
C1111 C 0.83129 0.70962 0.08151 0.0
C1112 C 0.83049 0.69247 0.05883 0.0
C1113 C 0.80743 0.67901 0.04848 0.0
C1114 C 0.78502 0.68323 0.06109 0.0
H1115 H 0.02667 0.02039 0.12322 0.0
H1116 H 0.06428 0.09171 0.16362 0.0
H1117 H 0.03781 0.08723 0.19992 0.0
H1118 H 0.96585 0.02924 0.14426 0.0
H1119 H 0.9565 0.99663 0.14709 0.0
H1120 H 0.97961 0.0042 0.12481 0.0
H1121 H 0.01102 0.97997 0.14466 0.0
H1122 H 0.9879 0.97207 0.16685 0.0
H1123 H 0.0184 0.98811 0.17776 0.0
H1124 H 0.00597 0.07668 0.23054 0.0
H1125 H 0.97168 0.05965 0.25498 0.0
H1126 H 0.9542 0.9948 0.19519 0.0
C1127 C 0.02963 0.03475 0.13993 0.0
C1128 C 0.04748 0.05642 0.14068 0.0
C1129 C 0.05057 0.07507 0.16266 0.0
C1130 C 0.03568 0.07267 0.18336 0.0
C1131 C 0.01782 0.05145 0.18181 0.0
C1132 C 0.01481 0.03269 0.1608 0.0
C1133 C 0.99354 0.01231 0.16381 0.0
C1134 C 0.97264 0.0105 0.1438 0.0
C1135 C 1.0033 0.98659 0.16324 0.0
C1136 C 0.98493 0.02274 0.18967 0.0
C1137 C 0.99928 0.04531 0.19966 0.0
C1138 C 0.99471 0.05892 0.22303 0.0
C1139 C 0.97508 0.0491 0.23672 0.0
C1140 C 0.9602 0.02585 0.22706 0.0
C1141 C 0.96523 0.01258 0.20314 0.0
H1142 H 0.31381 0.76256 0.14489 0.0
H1143 H 0.28775 0.80358 0.21352 0.0
H1144 H 0.28148 0.83941 0.19191 0.0
H1145 H 0.34549 0.81903 0.12071 0.0
H1146 H 0.33574 0.80546 0.08888 0.0
H1147 H 0.34164 0.7851 0.1108 0.0
H1148 H 0.29701 0.76089 0.1013 0.0
H1149 H 0.29085 0.78131 0.07964 0.0
H1150 H 0.27026 0.77823 0.10529 0.0
H1151 H 0.27289 0.86802 0.16121 0.0
H1152 H 0.26453 0.88793 0.12467 0.0
H1153 H 0.29664 0.82807 0.0762 0.0
C1154 C 0.30766 0.77953 0.1555 0.0
C1155 C 0.30174 0.78079 0.18088 0.0
C1156 C 0.29287 0.8027 0.19415 0.0
C1157 C 0.28918 0.82303 0.18199 0.0
C1158 C 0.29457 0.82102 0.15664 0.0
C1159 C 0.30393 0.79993 0.14363 0.0
C1160 C 0.30634 0.80149 0.11612 0.0
C1161 C 0.33395 0.80286 0.1087 0.0
C1162 C 0.29014 0.77916 0.09963 0.0
C1163 C 0.29617 0.82634 0.11549 0.0
C1164 C 0.28964 0.83745 0.13904 0.0
C1165 C 0.27833 0.8597 0.14276 0.0
C1166 C 0.27356 0.87082 0.12187 0.0
C1167 C 0.28005 0.85967 0.09757 0.0
C1168 C 0.29174 0.83728 0.09454 0.0
H1169 H 0.03787 0.45041 0.1252 0.0
H1170 H 0.06427 0.52525 0.10964 0.0
H1171 H 0.09409 0.53238 0.14578 0.0
H1172 H 0.04033 0.46778 0.19182 0.0
H1173 H 0.05069 0.43861 0.19734 0.0
H1174 H 0.03214 0.43888 0.16963 0.0
H1175 H 0.06653 0.41973 0.14198 0.0
H1176 H 0.08519 0.41937 0.16963 0.0
H1177 H 0.09824 0.43547 0.14531 0.0
H1178 H 0.12047 0.53174 0.18367 0.0
H1179 H 0.14113 0.52399 0.2218 0.0
H1180 H 0.0974 0.44965 0.21351 0.0
C1181 C 0.05013 0.46817 0.12928 0.0
C1182 C 0.04878 0.4873 0.11464 0.0
C1183 C 0.06486 0.51045 0.12075 0.0
C1184 C 0.08193 0.51461 0.14114 0.0
C1185 C 0.08267 0.49547 0.15529 0.0
C1186 C 0.06719 0.47272 0.1497 0.0
C1187 C 0.07126 0.45565 0.16847 0.0
C1188 C 0.04717 0.4499 0.18265 0.0
C1189 C 0.08088 0.4311 0.15558 0.0
C1190 C 0.09135 0.47242 0.18554 0.0
C1191 C 0.09774 0.49522 0.17745 0.0
C1192 C 0.11567 0.51394 0.19018 0.0
C1193 C 0.12731 0.50932 0.21185 0.0
C1194 C 0.12092 0.4862 0.22073 0.0
C1195 C 0.10274 0.4675 0.20724 0.0
H1196 H 0.37819 0.70833 0.26771 0.0
H1197 H 0.3513 0.78123 0.26936 0.0
H1198 H 0.38802 0.80206 0.29619 0.0
H1199 H 0.39825 0.71871 0.33087 0.0
H1200 H 0.42541 0.70217 0.32538 0.0
H1201 H 0.39844 0.69343 0.30441 0.0
H1202 H 0.4262 0.70065 0.26684 0.0
H1203 H 0.45332 0.70924 0.28767 0.0
H1204 H 0.44523 0.73072 0.26773 0.0
H1205 H 0.42591 0.81426 0.32561 0.0
H1206 H 0.46286 0.81737 0.35374 0.0
H1207 H 0.46452 0.73617 0.33318 0.0
C1208 C 0.38008 0.72872 0.27357 0.0
C1209 C 0.36182 0.74317 0.26648 0.0
C1210 C 0.36516 0.76982 0.27432 0.0
C1211 C 0.38589 0.78178 0.28968 0.0
C1212 C 0.40314 0.76682 0.29686 0.0
C1213 C 0.40055 0.74089 0.28887 0.0
C1214 C 0.42111 0.72894 0.29996 0.0
C1215 C 0.41014 0.70968 0.31611 0.0
C1216 C 0.43743 0.71667 0.27932 0.0
C1217 C 0.4355 0.75214 0.31585 0.0
C1218 C 0.4249 0.77382 0.31373 0.0
C1219 C 0.43447 0.79744 0.32723 0.0
C1220 C 0.45545 0.79898 0.34324 0.0
C1221 C 0.46666 0.77701 0.34567 0.0
C1222 C 0.45649 0.75333 0.33168 0.0
H1223 H 0.05062 0.43405 0.03461 0.0
H1224 H 0.96941 0.42836 0.03139 0.0
H1225 H 0.96783 0.38857 1.00053 0.0
H1226 H 0.05868 0.40996 0.9693 0.0
H1227 H 0.0844 0.39311 0.9754 0.0
H1228 H 0.07894 0.4214 0.99656 0.0
H1229 H 0.07663 0.3965 0.03347 0.0
H1230 H 0.08202 0.36813 0.01243 0.0
H1231 H 0.05471 0.36809 0.03148 0.0
H1232 H 0.97535 0.34845 0.97108 0.0
H1233 H 0.99124 0.31214 0.94448 0.0
H1234 H 0.06756 0.34443 0.96746 0.0
C1235 C 0.03246 0.4244 0.02752 0.0
C1236 C 0.01011 0.43425 0.03551 0.0
C1237 C 0.98677 0.42127 0.0254 0.0
C1238 C 0.9857 0.39861 0.00797 0.0
C1239 C 0.00813 0.38928 1.00077 0.0
C1240 C 0.03107 0.40187 0.01016 0.0
C1241 C 0.05245 0.38789 0.99958 0.0
C1242 C 0.06962 0.40405 0.9843 0.0
C1243 C 0.06732 0.37966 0.02049 0.0
C1244 C 0.03798 0.36529 0.98289 0.0
C1245 C 0.01244 0.36641 0.98381 0.0
C1246 C 0.99531 0.34744 0.97016 0.0
C1247 C 0.00453 0.32686 0.95514 0.0
C1248 C 0.03067 0.3254 0.95384 0.0
C1249 C 0.0475 0.34495 0.96797 0.0
H1250 H 0.69163 0.74881 0.28515 0.0
H1251 H 0.68686 0.80975 0.24346 0.0
H1252 H 0.64952 0.82154 0.26716 0.0
H1253 H 0.62748 0.72925 0.28579 0.0
H1254 H 0.62738 0.72198 0.317 0.0
H1255 H 0.65524 0.72023 0.29896 0.0
H1256 H 0.68081 0.75164 0.33433 0.0
H1257 H 0.65304 0.75331 0.35263 0.0
H1258 H 0.67033 0.78194 0.34567 0.0
H1259 H 0.61046 0.82361 0.29217 0.0
H1260 H 0.57347 0.81737 0.31807 0.0
H1261 H 0.60403 0.75529 0.34412 0.0
C1262 C 0.68303 0.76504 0.28158 0.0
C1263 C 0.69204 0.77872 0.26291 0.0
C1264 C 0.68021 0.79941 0.25805 0.0
C1265 C 0.65905 0.80615 0.27136 0.0
C1266 C 0.65019 0.79199 0.28943 0.0
C1267 C 0.66195 0.77202 0.29474 0.0
C1268 C 0.64787 0.75897 0.314 0.0
C1269 C 0.63897 0.73095 0.30328 0.0
C1270 C 0.66398 0.76163 0.33809 0.0
C1271 C 0.626 0.77429 0.31825 0.0
C1272 C 0.62775 0.7933 0.30397 0.0
C1273 C 0.60907 0.80902 0.30369 0.0
C1274 C 0.58807 0.80524 0.31838 0.0
C1275 C 0.58589 0.78592 0.33321 0.0
C1276 C 0.60528 0.77041 0.33323 0.0
H1277 H 0.03524 0.13257 0.03975 0.0
H1278 H 0.11404 0.12797 0.02694 0.0
H1279 H 0.11164 0.15073 0.99104 0.0
H1280 H 0.01459 0.12617 0.97314 0.0
H1281 H 0.99232 0.14855 0.98073 0.0
H1282 H 0.99978 0.12917 0.00302 0.0
H1283 H 0.01182 0.16965 0.03624 0.0
H1284 H 0.00467 0.18915 0.01402 0.0
H1285 H 0.03524 0.19413 0.02923 0.0
H1286 H 0.10127 0.17783 0.95954 0.0
H1287 H 0.08384 0.20595 0.93422 0.0
H1288 H 0.01167 0.19273 0.96814 0.0
C1289 C 0.05175 0.13574 0.02884 0.0
C1290 C 0.07471 0.1283 0.03554 0.0
C1291 C 0.09622 0.13327 0.02158 0.0
C1292 C 0.095 0.14619 1.00129 0.0
C1293 C 0.07211 0.15386 0.99539 0.0
C1294 C 0.05081 0.14861 0.00865 0.0
C1295 C 0.02898 0.16041 0.99979 0.0
C1296 C 0.00766 0.13985 0.98849 0.0
C1297 C 0.01965 0.17946 0.02109 0.0
C1298 C 0.04141 0.17367 0.97987 0.0
C1299 C 0.06622 0.16954 0.97745 0.0
C1300 C 0.08178 0.18092 0.96106 0.0
C1301 C 0.07173 0.19694 0.94682 0.0
C1302 C 0.04636 0.20151 0.94913 0.0
C1303 C 0.03106 0.18949 0.96576 0.0
H1304 H 0.36924 0.29445 0.26153 0.0
H1305 H 0.37164 0.22719 0.2951 0.0
H1306 H 0.41081 0.21942 0.27356 0.0
H1307 H 0.39127 0.26726 0.20102 0.0
H1308 H 0.40914 0.29651 0.19635 0.0
H1309 H 0.3815 0.29723 0.21488 0.0
H1310 H 0.40756 0.32535 0.25203 0.0
H1311 H 0.4353 0.32468 0.23365 0.0
H1312 H 0.43512 0.31457 0.26364 0.0
H1313 H 0.45013 0.21936 0.24934 0.0
H1314 H 0.48628 0.22595 0.22259 0.0
H1315 H 0.45736 0.29166 0.20231 0.0
C1316 C 0.37778 0.2779 0.26418 0.0
C1317 C 0.36729 0.26158 0.2803 0.0
C1318 C 0.37945 0.24036 0.28339 0.0
C1319 C 0.40165 0.23563 0.27104 0.0
C1320 C 0.41142 0.25213 0.25541 0.0
C1321 C 0.39982 0.27272 0.25177 0.0
C1322 C 0.41416 0.28732 0.23371 0.0
C1323 C 0.39805 0.28705 0.21009 0.0
C1324 C 0.4236 0.31459 0.24653 0.0
C1325 C 0.43572 0.27175 0.22787 0.0
C1326 C 0.43379 0.25163 0.24074 0.0
C1327 C 0.45177 0.23495 0.23905 0.0
C1328 C 0.47229 0.23892 0.22384 0.0
C1329 C 0.47463 0.25927 0.21028 0.0
C1330 C 0.45597 0.27581 0.21226 0.0
H1331 H 0.5059 0.38678 0.00864 0.0
H1332 H 0.56794 0.4415 0.04173 0.0
H1333 H 0.57064 0.4178 0.07702 0.0
H1334 H 0.47651 0.37696 0.06625 0.0
H1335 H 0.46722 0.34359 0.0554 0.0
H1336 H 0.4703 0.36512 0.03335 0.0
H1337 H 0.50153 0.33831 0.0082 0.0
H1338 H 0.49847 0.31666 0.03011 0.0
H1339 H 0.52902 0.33174 0.02394 0.0
H1340 H 0.56623 0.3871 0.10845 0.0
H1341 H 0.55606 0.35229 0.13247 0.0
H1342 H 0.49675 0.31821 0.07795 0.0
C1343 C 0.52003 0.39372 0.02338 0.0
C1344 C 0.53675 0.41579 0.02273 0.0
C1345 C 0.55502 0.42452 0.04212 0.0
C1346 C 0.55662 0.41121 0.06215 0.0
C1347 C 0.53974 0.38936 0.06232 0.0
C1348 C 0.52182 0.38072 0.04337 0.0
C1349 C 0.50605 0.35669 0.04756 0.0
C1350 C 0.47838 0.36085 0.05084 0.0
C1351 C 0.50896 0.33454 0.02619 0.0
C1352 C 0.51793 0.35292 0.07178 0.0
C1353 C 0.53726 0.37195 0.08013 0.0
C1354 C 0.5511 0.37217 0.10206 0.0
C1355 C 0.54515 0.35232 0.11561 0.0
C1356 C 0.52557 0.33248 0.10715 0.0
C1357 C 0.51178 0.33305 0.08502 0.0
H1358 H 0.70885 0.22861 0.20921 0.0
H1359 H 0.69047 0.25241 0.28655 0.0
H1360 H 0.6513 0.26673 0.27263 0.0
H1361 H 0.68443 0.27999 0.18443 0.0
H1362 H 0.67276 0.25976 0.15568 0.0
H1363 H 0.69976 0.25282 0.1719 0.0
H1364 H 0.67759 0.20765 0.17324 0.0
H1365 H 0.65053 0.21447 0.15709 0.0
H1366 H 0.64716 0.20397 0.18682 0.0
H1367 H 0.61339 0.27666 0.24991 0.0
H1368 H 0.57963 0.28139 0.22056 0.0
H1369 H 0.62309 0.25079 0.15798 0.0
C1370 C 0.69664 0.23713 0.22313 0.0
C1371 C 0.70246 0.2397 0.24886 0.0
C1372 C 0.68618 0.25056 0.26673 0.0
C1373 C 0.66398 0.25869 0.25898 0.0
C1374 C 0.65857 0.25578 0.23334 0.0
C1375 C 0.67449 0.24531 0.2157 0.0
C1376 C 0.66403 0.24349 0.18936 0.0
C1377 C 0.68127 0.26 0.17447 0.0
C1378 C 0.65956 0.21575 0.17585 0.0
C1379 C 0.63954 0.25424 0.19489 0.0
C1380 C 0.6368 0.26136 0.22034 0.0
C1381 C 0.61543 0.27129 0.22994 0.0
C1382 C 0.59634 0.27389 0.2131 0.0
C1383 C 0.59869 0.26651 0.18693 0.0
C1384 C 0.62071 0.2567 0.17783 0.0
H1385 H 0.47526 0.08442 0.05509 0.0
H1386 H 0.5069 0.10877 0.98855 0.0
H1387 H 0.51979 0.15159 0.01302 0.0
H1388 H 0.44998 0.14174 0.07897 0.0
H1389 H 0.4569 0.14038 0.11124 0.0
H1390 H 0.45111 0.11154 0.08863 0.0
H1391 H 0.49396 0.09885 0.1007 0.0
H1392 H 0.4999 0.12767 0.12336 0.0
H1393 H 0.52213 0.12037 0.09931 0.0
H1394 H 0.5281 0.19231 0.04484 0.0
H1395 H 0.53154 0.22719 0.08131 0.0
H1396 H 0.49383 0.17585 0.12651 0.0
C1397 C 0.48478 0.09877 0.04557 0.0
C1398 C 0.49002 0.0932 0.01985 0.0
C1399 C 0.50291 0.11247 0.00828 0.0
C1400 C 0.51018 0.13689 0.022 0.0
C1401 C 0.5045 0.14174 0.04727 0.0
C1402 C 0.49214 0.12316 0.05893 0.0
C1403 C 0.48798 0.13321 0.0862 0.0
C1404 C 0.45982 0.13163 0.09156 0.0
C1405 C 0.50183 0.11919 0.1034 0.0
C1406 C 0.49976 0.16043 0.08807 0.0
C1407 C 0.50925 0.16501 0.06547 0.0
C1408 C 0.52079 0.1889 0.06265 0.0
C1409 C 0.52265 0.2086 0.08347 0.0
C1410 C 0.51298 0.20429 0.10681 0.0
C1411 C 0.50146 0.17981 0.10899 0.0
H1412 H 0.28656 0.40409 0.6938 0.0
H1413 H 0.28018 0.39312 0.77092 0.0
H1414 H 0.31552 0.4269 0.78347 0.0
H1415 H 0.35511 0.4188 0.69451 0.0
H1416 H 0.35434 0.44271 0.67514 0.0
H1417 H 0.32982 0.41631 0.67184 0.0
H1418 H 0.29655 0.44753 0.67949 0.0
H1419 H 0.32094 0.474 0.68294 0.0
H1420 H 0.29896 0.47123 0.70752 0.0
H1421 H 0.35007 0.46242 0.78798 0.0
H1422 H 0.38157 0.49869 0.78465 0.0
H1423 H 0.36512 0.48811 0.7047 0.0
C1424 C 0.29294 0.40862 0.71322 0.0
C1425 C 0.28084 0.39607 0.73145 0.0
C1426 C 0.28927 0.40266 0.75677 0.0
C1427 C 0.30933 0.42171 0.76403 0.0
C1428 C 0.32065 0.43404 0.74573 0.0
C1429 C 0.3128 0.42786 0.72085 0.0
C1430 C 0.32742 0.44508 0.70526 0.0
C1431 C 0.34257 0.42981 0.68552 0.0
C1432 C 0.30992 0.46037 0.69309 0.0
C1433 C 0.34447 0.46204 0.72533 0.0
C1434 C 0.34036 0.45512 0.74846 0.0
C1435 C 0.35354 0.46801 0.76997 0.0
C1436 C 0.37139 0.48862 0.76786 0.0
C1437 C 0.37581 0.49632 0.74441 0.0
C1438 C 0.36216 0.48274 0.72288 0.0
H1439 H 0.28056 0.67071 0.78696 0.0
H1440 H 0.32219 0.72458 0.84615 0.0
H1441 H 0.35719 0.69855 0.84204 0.0
H1442 H 0.30122 0.61408 0.80262 0.0
H1443 H 0.30311 0.59926 0.77039 0.0
H1444 H 0.28094 0.62151 0.779 0.0
H1445 H 0.29973 0.64839 0.74681 0.0
H1446 H 0.32197 0.62625 0.73812 0.0
H1447 H 0.33284 0.6594 0.74847 0.0
H1448 H 0.38828 0.66679 0.83053 0.0
H1449 H 0.4126 0.63225 0.8124 0.0
H1450 H 0.35087 0.60064 0.75984 0.0
C1451 C 0.29705 0.67717 0.79903 0.0
C1452 C 0.29852 0.69973 0.81693 0.0
C1453 C 0.32038 0.70719 0.83256 0.0
C1454 C 0.34045 0.69261 0.83026 0.0
C1455 C 0.33843 0.67063 0.81221 0.0
C1456 C 0.31726 0.66297 0.79688 0.0
C1457 C 0.3199 0.63897 0.77856 0.0
C1458 C 0.30012 0.61717 0.78292 0.0
C1459 C 0.31854 0.64354 0.75139 0.0
C1460 C 0.34597 0.6344 0.78581 0.0
C1461 C 0.35635 0.65274 0.80535 0.0
C1462 C 0.38031 0.65233 0.81522 0.0
C1463 C 0.39399 0.63265 0.80481 0.0
C1464 C 0.3837 0.61378 0.78465 0.0
C1465 C 0.35936 0.61481 0.77515 0.0
H1466 H 0.92066 0.51918 0.53729 0.0
H1467 H 0.89267 0.53656 0.46783 0.0
H1468 H 0.85322 0.50888 0.47113 0.0
H1469 H 0.89704 0.45486 0.52614 0.0
H1470 H 0.88854 0.453 0.5579 0.0
H1471 H 0.91357 0.47633 0.55186 0.0
H1472 H 0.89122 0.51218 0.57683 0.0
H1473 H 0.86623 0.48891 0.58324 0.0
H1474 H 0.85923 0.5149 0.56856 0.0
H1475 H 0.819 0.47644 0.47942 0.0
H1476 H 0.79033 0.44297 0.49369 0.0
H1477 H 0.83967 0.44647 0.55835 0.0
C1478 C 0.9059 0.51766 0.5232 0.0
C1479 C 0.90961 0.53001 0.50232 0.0
C1480 C 0.89016 0.52717 0.48391 0.0
C1481 C 0.86771 0.51154 0.48565 0.0
C1482 C 0.86492 0.49896 0.506 0.0
C1483 C 0.8833 0.50202 0.52463 0.0
C1484 C 0.87593 0.4852 0.54378 0.0
C1485 C 0.8949 0.46623 0.54497 0.0
C1486 C 0.87297 0.50126 0.56963 0.0
C1487 C 0.85083 0.47186 0.53266 0.0
C1488 C 0.84487 0.4802 0.51091 0.0
C1489 C 0.82327 0.46998 0.4966 0.0
C1490 C 0.80716 0.45085 0.50481 0.0
C1491 C 0.81267 0.44211 0.5272 0.0
C1492 C 0.83482 0.45286 0.54128 0.0
H1493 H 0.74897 0.88202 0.828 0.0
H1494 H 0.74711 0.83776 0.75331 0.0
H1495 H 0.72944 0.87214 0.73647 0.0
H1496 H 0.69154 0.90534 0.82286 0.0
H1497 H 0.70136 0.93632 0.84098 0.0
H1498 H 0.71614 0.90953 0.84655 0.0
H1499 H 0.75967 0.93287 0.83885 0.0
H1500 H 0.74503 0.95987 0.83347 0.0
H1501 H 0.76472 0.94501 0.8101 0.0
H1502 H 0.70862 0.9102 0.7287 0.0
H1503 H 0.68787 0.94894 0.73029 0.0
H1504 H 0.70368 0.96805 0.81036 0.0
C1505 C 0.74539 0.87994 0.80802 0.0
C1506 C 0.74966 0.85762 0.79177 0.0
C1507 C 0.74425 0.85503 0.76587 0.0
C1508 C 0.73416 0.8744 0.75622 0.0
C1509 C 0.7297 0.89614 0.77282 0.0
C1510 C 0.73535 0.89906 0.79816 0.0
C1511 C 0.72764 0.92357 0.81224 0.0
C1512 C 0.708 0.91837 0.8318 0.0
C1513 C 0.75064 0.94138 0.82437 0.0
C1514 C 0.71635 0.93383 0.791 0.0
C1515 C 0.71777 0.91783 0.76837 0.0
C1516 C 0.70766 0.92297 0.74629 0.0
C1517 C 0.69584 0.945 0.74739 0.0
C1518 C 0.69419 0.96164 0.77041 0.0
C1519 C 0.70475 0.95589 0.7924 0.0
H1520 H 0.61654 0.50734 0.94336 0.0
H1521 H 0.58836 0.50951 0.0184 0.0
H1522 H 0.62759 0.5357 0.03569 0.0
H1523 H 0.6812 0.50476 0.9584 0.0
H1524 H 0.69283 0.52507 0.93682 0.0
H1525 H 0.66301 0.50563 0.93056 0.0
H1526 H 0.64159 0.54552 0.92737 0.0
H1527 H 0.67133 0.5651 0.93364 0.0
H1528 H 0.6451 0.57191 0.95304 0.0
H1529 H 0.66978 0.56234 0.04464 0.0
H1530 H 0.7114 0.58734 0.04463 0.0
H1531 H 0.7109 0.56921 0.96348 0.0
C1532 C 0.61842 0.51345 0.96344 0.0
C1533 C 0.59921 0.50635 0.97949 0.0
C1534 C 0.60285 0.51439 0.0057 0.0
C1535 C 0.62502 0.52942 0.01569 0.0
C1536 C 0.64335 0.53632 0.99925 0.0
C1537 C 0.64025 0.5286 0.97368 0.0
C1538 C 0.66254 0.53895 0.95998 0.0
C1539 C 0.67567 0.51731 0.9456 0.0
C1540 C 0.65466 0.55641 0.94248 0.0
C1541 C 0.67871 0.5538 0.98184 0.0
C1542 C 0.66737 0.55195 0.00434 0.0
C1543 C 0.67881 0.56392 0.02713 0.0
C1544 C 0.70248 0.57808 0.02691 0.0
C1545 C 0.71443 0.58031 0.00405 0.0
C1546 C 0.70224 0.568 0.98126 0.0
H1547 H 0.25443 0.67973 0.24942 0.0
H1548 H 0.32728 0.65585 0.26094 0.0
H1549 H 0.30658 0.61682 0.27374 0.0
H1550 H 0.22395 0.65566 0.30083 0.0
H1551 H 0.19445 0.64558 0.2839 0.0
H1552 H 0.21504 0.67203 0.27647 0.0
H1553 H 0.21494 0.64981 0.23012 0.0
H1554 H 0.19426 0.62337 0.23738 0.0
H1555 H 0.22364 0.61819 0.22282 0.0
H1556 H 0.27774 0.57982 0.2844 0.0
H1557 H 0.24302 0.54741 0.29112 0.0
H1558 H 0.18927 0.5954 0.27178 0.0
C1559 C 0.26607 0.66624 0.25446 0.0
C1560 C 0.29251 0.67093 0.25423 0.0
C1561 C 0.30701 0.65289 0.26132 0.0
C1562 C 0.29543 0.6306 0.26851 0.0
C1563 C 0.26933 0.62661 0.26852 0.0
C1564 C 0.25484 0.64391 0.26162 0.0
C1565 C 0.22715 0.6349 0.26272 0.0
C1566 C 0.21441 0.65313 0.28214 0.0
C1567 C 0.21425 0.63135 0.23671 0.0
C1568 C 0.2283 0.60973 0.27113 0.0
C1569 C 0.25278 0.60532 0.27449 0.0
C1570 C 0.25849 0.5831 0.28188 0.0
C1571 C 0.23864 0.56482 0.28568 0.0
C1572 C 0.21341 0.56884 0.28201 0.0
C1573 C 0.20832 0.59173 0.27484 0.0
H1574 H 0.96176 0.55745 0.02595 0.0
H1575 H 0.91973 0.49044 0.04587 0.0
H1576 H 0.88109 0.50108 0.0269 0.0
H1577 H 0.91663 0.5975 0.04113 0.0
H1578 H 0.92237 0.61505 0.0159 0.0
H1579 H 0.94716 0.60028 0.02761 0.0
H1580 H 0.95313 0.57572 0.98306 0.0
H1581 H 0.92846 0.59063 0.97112 0.0
H1582 H 0.92664 0.55654 0.96593 0.0
H1583 H 0.84642 0.52207 0.01067 0.0
H1584 H 0.81858 0.55064 0.997 0.0
H1585 H 0.88352 0.60381 0.98707 0.0
C1586 C 0.94453 0.54464 0.02552 0.0
C1587 C 0.94353 0.52292 0.03682 0.0
C1588 C 0.92072 0.50691 0.0368 0.0
C1589 C 0.89876 0.51286 0.02614 0.0
C1590 C 0.90013 0.53481 0.01557 0.0
C1591 C 0.92251 0.55031 0.01494 0.0
C1592 C 0.91865 0.57376 0.00421 0.0
C1593 C 0.92667 0.59807 0.02336 0.0
C1594 C 0.93254 0.57417 0.97961 0.0
C1595 C 0.89051 0.56946 0.9996 0.0
C1596 C 0.88018 0.54681 0.00611 0.0
C1597 C 0.85435 0.53962 0.00511 0.0
C1598 C 0.83867 0.55603 0.99741 0.0
C1599 C 0.84886 0.57938 0.99077 0.0
C1600 C 0.87516 0.58592 0.99161 0.0
H1601 H 0.11836 0.01838 0.10519 0.0
H1602 H 0.09372 0.0322 0.03294 0.0
H1603 H 0.12149 1.00227 0.01198 0.0
H1604 H 0.18196 0.01495 0.09063 0.0
H1605 H 0.18576 0.99007 0.10815 0.0
H1606 H 0.16303 0.01153 0.1174 0.0
H1607 H 0.12803 0.97352 0.11445 0.0
H1608 H 0.15069 0.95191 0.10527 0.0
H1609 H 0.12315 0.95084 0.08574 0.0
H1610 H 0.15308 0.9722 0.99904 0.0
H1611 H 0.18628 0.94417 0.99484 0.0
H1612 H 0.19013 0.94945 0.0756 0.0
C1613 C 0.11843 0.01476 0.08493 0.0
C1614 C 0.10375 0.02757 0.07069 0.0
C1615 C 0.1049 0.02275 0.04424 0.0
C1616 C 0.12051 0.00569 0.03217 0.0
C1617 C 0.13485 0.99356 0.0468 0.0
C1618 C 0.13391 0.99782 0.0726 0.0
C1619 C 0.15187 0.98302 0.08401 0.0
C1620 C 0.17184 1.00097 0.10105 0.0
C1621 C 0.13758 0.96367 0.0982 0.0
C1622 C 0.16325 0.96994 0.0606 0.0
C1623 C 0.15309 0.97621 0.03935 0.0
C1624 C 0.16106 0.96704 0.01554 0.0
C1625 C 0.17999 0.95114 0.01337 0.0
C1626 C 0.19083 0.94453 0.03488 0.0
C1627 C 0.18214 0.95399 0.05878 0.0
loop_
_geom_bond_atom_site_label_1
_geom_bond_atom_site_label_2
_geom_bond_distance
_geom_bond_site_symmetry_2
_ccdc_geom_bond_type
H0 C3 0.929 . S
H1 C6 0.929 . S
H2 C8 0.930 . S
C3 H0 0.929 . S
C3 C4 1.398 . S
C3 C5 1.396 . S
C4 C3 1.398 . S
C4 C8 1.407 . S
C5 C3 1.396 . S
C5 C6 1.394 . S
C6 H1 0.929 . S
C6 C5 1.394 . S
C6 C7 1.382 . S
C7 C6 1.382 . S
C7 C8 1.392 . S
C7 N9 1.420 . S
C8 H2 0.930 . S
C8 C4 1.407 . S
C8 C7 1.392 . S
N9 C7 1.420 . S
N9 C10 1.244 . S
C10 N9 1.244 . S
H11 C14 0.929 . S
H12 C17 0.929 . S
H13 C19 0.930 . S
C14 H11 0.929 . S
C14 C15 1.398 . S
C14 C16 1.396 . S
C15 C14 1.398 . S
C15 C19 1.407 . S
C16 C14 1.396 . S
C16 C17 1.394 . S
C17 H12 0.929 . S
C17 C16 1.394 . S
C17 C18 1.382 . S
C18 C17 1.382 . S
C18 C19 1.392 . S
C18 N20 1.420 . S
C19 H13 0.930 . S
C19 C15 1.407 . S
C19 C18 1.392 . S
N20 C18 1.420 . S
N20 C21 1.244 . S
C21 N20 1.244 . S
H22 C25 0.929 . S
H23 C28 0.929 . S
H24 C30 0.930 1_556 S
C25 H22 0.929 . S
C25 C26 1.385 1_455 S
C25 C27 1.396 . S
C26 C25 1.385 1_655 S
C26 C30 1.427 . S
C27 C25 1.396 . S
C27 C28 1.394 1_455 S
C28 H23 0.929 . S
C28 C27 1.394 1_655 S
C28 C29 1.382 . S
C29 C28 1.382 . S
C29 C30 1.392 . S
C29 N31 1.420 . S
C30 H24 0.930 1_554 S
C30 C26 1.427 . S
C30 C29 1.392 . S
N31 C29 1.420 . S
N31 C32 1.244 . S
C32 N31 1.244 . S
H33 C36 0.929 . S
H34 C39 0.929 . S
H35 C41 0.930 . S
C36 H33 0.929 . S
C36 C37 1.398 . S
C36 C38 1.396 . S
C37 C36 1.398 . S
C37 C41 1.407 . S
C38 C36 1.396 . S
C38 C39 1.394 . S
C39 H34 0.929 . S
C39 C38 1.394 . S
C39 C40 1.382 . S
C40 C39 1.382 . S
C40 C41 1.392 . S
C40 N42 1.420 . S
C41 H35 0.930 . S
C41 C37 1.407 . S
C41 C40 1.392 . S
N42 C40 1.420 . S
N42 C43 1.244 . S
C43 N42 1.244 . S
H44 C47 0.929 . S
H45 C50 0.929 . S
H46 C52 0.930 . S
C47 H44 0.929 . S
C47 C48 1.398 1_545 S
C47 C49 1.382 1_545 S
C48 C47 1.398 1_565 S
C48 C52 1.407 . S
C49 C47 1.382 1_565 S
C49 C50 1.426 . S
C50 H45 0.929 . S
C50 C49 1.426 . S
C50 C51 1.382 . S
C51 C50 1.382 . S
C51 C52 1.392 . S
C51 N53 1.420 . S
C52 H46 0.930 . S
C52 C48 1.407 . S
C52 C51 1.392 . S
N53 C51 1.420 . S
N53 C54 1.244 . S
C54 N53 1.244 . S
H55 C58 0.929 . S
H56 C61 0.929 . S
H57 C63 0.930 . S
C58 H55 0.929 . S
C58 C59 1.398 . S
C58 C60 1.396 . S
C59 C58 1.398 . S
C59 C63 1.407 . S
C60 C58 1.396 . S
C60 C61 1.394 . S
C61 H56 0.929 . S
C61 C60 1.394 . S
C61 C62 1.382 . S
C62 C61 1.382 . S
C62 C63 1.392 . S
C62 N64 1.420 . S
C63 H57 0.930 . S
C63 C59 1.407 . S
C63 C62 1.392 . S
N64 C62 1.420 . S
N64 C65 1.244 . S
C65 N64 1.244 . S
H66 C69 0.929 . S
H67 C72 0.925 . S
H68 C74 0.930 . S
C69 H66 0.929 . S
C69 C70 1.398 . S
C69 C71 1.396 . S
C70 C69 1.398 . S
C70 C74 1.407 . S
C71 C69 1.396 . S
C71 C72 1.397 1_655 S
C72 H67 0.925 . S
C72 C71 1.397 1_455 S
C72 C73 1.382 1_455 S
C73 C72 1.382 1_655 S
C73 C74 1.392 . S
C73 N75 1.420 1_655 S
C74 H68 0.930 . S
C74 C70 1.407 . S
C74 C73 1.392 . S
N75 C73 1.420 1_455 S
N75 C76 1.244 . S
C76 N75 1.244 . S
H77 C80 0.929 . S
H78 C83 0.929 . S
H79 C85 0.930 . S
C80 H77 0.929 . S
C80 C81 1.398 . S
C80 C82 1.396 . S
C81 C80 1.398 . S
C81 C85 1.407 . S
C82 C80 1.396 . S
C82 C83 1.394 . S
C83 H78 0.929 . S
C83 C82 1.394 . S
C83 C84 1.382 . S
C84 C83 1.382 . S
C84 C85 1.392 . S
C84 N86 1.420 . S
C85 H79 0.930 . S
C85 C81 1.407 . S
C85 C84 1.392 . S
N86 C84 1.420 . S
N86 C87 1.244 . S
C87 N86 1.244 . S
H88 C91 0.929 . S
H89 C94 0.929 . S
H90 C96 0.930 . S
C91 H88 0.929 . S
C91 C92 1.398 . S
C91 C93 1.396 . S
C92 C91 1.398 . S
C92 C96 1.407 . S
C93 C91 1.396 . S
C93 C94 1.394 . S
C94 H89 0.929 . S
C94 C93 1.394 . S
C94 C95 1.382 . S
C95 C94 1.382 . S
C95 C96 1.392 . S
C95 N97 1.420 . S
C96 H90 0.930 . S
C96 C92 1.407 . S
C96 C95 1.392 . S
N97 C95 1.420 . S
N97 C98 1.244 . S
C98 N97 1.244 . S
H99 C102 0.929 . S
H100 C105 0.929 1_545 S
H101 C107 0.930 . S
C102 H99 0.929 . S
C102 C103 1.398 . S
C102 C104 1.396 . S
C103 C102 1.398 . S
C103 C107 1.407 . S
C104 C102 1.396 . S
C104 C105 1.394 . S
C105 H100 0.929 1_565 S
C105 C104 1.394 . S
C105 C106 1.382 . S
C106 C105 1.382 . S
C106 C107 1.392 . S
C106 N108 1.420 1_565 S
C107 H101 0.930 . S
C107 C103 1.407 . S
C107 C106 1.392 . S
N108 C106 1.420 1_545 S
N108 C109 1.244 . S
C109 N108 1.244 . S
H110 C113 0.929 . S
H111 C116 0.929 . S
H112 C118 0.930 . S
C113 H110 0.929 . S
C113 C114 1.398 . S
C113 C115 1.396 . S
C114 C113 1.398 . S
C114 C118 1.407 . S
C115 C113 1.396 . S
C115 C116 1.394 . S
C116 H111 0.929 . S
C116 C115 1.394 . S
C116 C117 1.382 . S
C117 C116 1.382 . S
C117 C118 1.392 . S
C117 N119 1.420 . S
C118 H112 0.930 . S
C118 C114 1.407 . S
C118 C117 1.392 . S
N119 C117 1.420 . S
N119 C120 1.244 . S
C120 N119 1.244 . S
H121 C124 0.929 . S
H122 C127 0.929 . S
H123 C129 0.930 . S
C124 H121 0.929 . S
C124 C125 1.398 . S
C124 C126 1.396 . S
C125 C124 1.398 . S
C125 C129 1.407 . S
C126 C124 1.396 . S
C126 C127 1.394 . S
C127 H122 0.929 . S
C127 C126 1.394 . S
C127 C128 1.382 . S
C128 C127 1.382 . S
C128 C129 1.392 . S
C128 N130 1.420 . S
C129 H123 0.930 . S
C129 C125 1.407 . S
C129 C128 1.392 . S
N130 C128 1.420 . S
N130 C131 1.244 . S
C131 N130 1.244 . S
H132 C135 0.929 . S
H133 C138 0.929 . S
H134 C140 0.930 . S
C135 H132 0.929 . S
C135 C136 1.398 . S
C135 C137 1.396 . S
C136 C135 1.398 . S
C136 C140 1.407 . S
C137 C135 1.396 . S
C137 C138 1.394 . S
C138 H133 0.929 . S
C138 C137 1.394 . S
C138 C139 1.382 . S
C139 C138 1.382 . S
C139 C140 1.392 . S
C139 N141 1.420 . S
C140 H134 0.930 . S
C140 C136 1.407 . S
C140 C139 1.392 . S
N141 C139 1.420 . S
N141 C142 1.244 . S
C142 N141 1.244 . S
H143 C146 0.929 . S
H144 C149 0.929 . S
H145 C151 0.930 . S
C146 H143 0.929 . S
C146 C147 1.398 . S
C146 C148 1.396 . S
C147 C146 1.398 . S
C147 C151 1.407 . S
C148 C146 1.396 . S
C148 C149 1.394 1_556 S
C149 H144 0.929 . S
C149 C148 1.394 1_554 S
C149 C150 1.382 1_554 S
C150 C149 1.382 1_556 S
C150 C151 1.392 . S
C150 N152 1.420 1_556 S
C151 H145 0.930 . S
C151 C147 1.407 . S
C151 C150 1.392 . S
N152 C150 1.420 1_554 S
N152 C153 1.244 . S
C153 N152 1.244 . S
H154 C157 0.929 . S
H155 C160 0.929 . S
H156 C162 0.930 . S
C157 H154 0.929 . S
C157 C158 1.398 . S
C157 C159 1.396 . S
C158 C157 1.398 . S
C158 C162 1.407 . S
C159 C157 1.396 . S
C159 C160 1.394 . S
C160 H155 0.929 . S
C160 C159 1.394 . S
C160 C161 1.382 . S
C161 C160 1.382 . S
C161 C162 1.392 . S
C161 N163 1.420 . S
C162 H156 0.930 . S
C162 C158 1.407 . S
C162 C161 1.392 . S
N163 C161 1.420 . S
N163 C164 1.244 . S
C164 N163 1.244 . S
H165 C168 0.929 1_554 S
H166 C171 0.929 . S
H167 C173 0.937 . S
C168 H165 0.929 1_556 S
C168 C169 1.398 . S
C168 C170 1.396 . S
C169 C168 1.398 . S
C169 C173 1.407 . S
C170 C168 1.396 . S
C170 C171 1.394 . S
C171 H166 0.929 . S
C171 C170 1.394 . S
C171 C172 1.382 . S
C172 C171 1.382 . S
C172 C173 1.392 . S
C172 N174 1.420 . S
C173 H167 0.937 . S
C173 C169 1.407 . S
C173 C172 1.392 . S
N174 C172 1.420 . S
N174 C175 1.244 . S
C175 N174 1.244 . S
C176 O177 1.160 . S
C176 O183 1.185 . S
O177 C176 1.160 . S
O178 Zn179 1.899 . S
O178 C186 1.284 . S
Zn179 O178 1.899 . S
Zn179 O180 2.032 . S
Zn179 O183 2.086 . S
Zn179 O188 1.977 . S
O180 Zn179 2.032 . S
O180 C184 1.278 . S
C181 O182 1.203 . S
C181 O188 1.267 . S
O182 C181 1.203 . S
O183 C176 1.185 . S
O183 Zn179 2.086 . S
C184 O180 1.278 . S
C184 O185 1.211 . S
O185 C184 1.211 . S
C186 O178 1.284 . S
C186 O187 1.273 . S
O187 C186 1.273 . S
O188 Zn179 1.977 . S
O188 C181 1.267 . S
C189 O190 1.160 . S
C189 O196 1.185 . S
O190 C189 1.160 . S
O191 Zn192 1.899 . S
O191 C199 1.284 . S
Zn192 O191 1.899 . S
Zn192 O193 2.032 . S
Zn192 O196 2.086 . S
Zn192 O201 1.977 . S
O193 Zn192 2.032 . S
O193 C197 1.278 . S
C194 O195 1.203 . S
C194 O201 1.267 . S
O195 C194 1.203 . S
O196 C189 1.185 . S
O196 Zn192 2.086 . S
C197 O193 1.278 . S
C197 O198 1.211 . S
O198 C197 1.211 . S
C199 O191 1.284 . S
C199 O200 1.273 . S
O200 C199 1.273 . S
O201 Zn192 1.977 . S
O201 C194 1.267 . S
C202 O203 1.179 . S
C202 O209 1.173 1_556 S
O203 C202 1.179 . S
O204 Zn205 1.899 1_556 S
O204 C212 1.284 . S
Zn205 O204 1.899 1_554 S
Zn205 O206 2.032 1_554 S
Zn205 O209 2.086 . S
Zn205 O214 1.977 . S
O206 Zn205 2.032 1_556 S
O206 C210 1.278 . S
C207 O208 1.203 . S
C207 O214 1.267 . S
O208 C207 1.203 . S
O209 C202 1.173 1_554 S
O209 Zn205 2.086 . S
C210 O206 1.278 . S
C210 O211 1.211 1_556 S
O211 C210 1.211 1_554 S
C212 O204 1.284 . S
C212 O213 1.273 . S
O213 C212 1.273 . S
O214 Zn205 1.977 . S
O214 C207 1.267 . S
C215 O216 1.160 . S
C215 O222 1.185 . S
O216 C215 1.160 . S
O217 Zn218 1.899 . S
O217 C225 1.284 . S
Zn218 O217 1.899 . S
Zn218 O219 2.032 . S
Zn218 O222 2.086 . S
Zn218 O227 1.977 . S
O219 Zn218 2.032 . S
O219 C223 1.278 1_545 S
C220 O221 1.203 . S
C220 O227 1.267 . S
O221 C220 1.203 . S
O222 C215 1.185 . S
O222 Zn218 2.086 . S
C223 O219 1.278 1_565 S
C223 O224 1.211 . S
O224 C223 1.211 . S
C225 O217 1.284 . S
C225 O226 1.273 . S
O226 C225 1.273 . S
O227 Zn218 1.977 . S
O227 C220 1.267 . S
C228 O229 1.160 . S
C228 O235 1.185 . S
O229 C228 1.160 . S
O230 Zn231 1.899 . S
O230 C238 1.284 . S
Zn231 O230 1.899 . S
Zn231 O232 2.032 . S
Zn231 O235 2.086 . S
Zn231 O240 1.977 . S
O232 Zn231 2.032 . S
O232 C236 1.278 . S
C233 O234 1.203 . S
C233 O240 1.267 . S
O234 C233 1.203 . S
O235 C228 1.185 . S
O235 Zn231 2.086 . S
C236 O232 1.278 . S
C236 O237 1.211 . S
O237 C236 1.211 . S
C238 O230 1.284 . S
C238 O239 1.273 . S
O239 C238 1.273 . S
O240 Zn231 1.977 . S
O240 C233 1.267 . S
C241 O242 1.160 . S
C241 O248 1.185 . S
O242 C241 1.160 . S
O243 Zn244 1.899 . S
O243 C251 1.284 . S
Zn244 O243 1.899 . S
Zn244 O245 2.032 . S
Zn244 O248 2.086 . S
Zn244 O253 1.977 . S
O245 Zn244 2.032 . S
O245 C249 1.278 . S
C246 O247 1.203 . S
C246 O253 1.267 . S
O247 C246 1.203 . S
O248 C241 1.185 . S
O248 Zn244 2.086 . S
C249 O245 1.278 . S
C249 O250 1.211 . S
O250 C249 1.211 . S
C251 O243 1.284 . S
C251 O252 1.273 . S
O252 C251 1.273 . S
O253 Zn244 1.977 . S
O253 C246 1.267 . S
C254 O255 1.160 . S
C254 O261 1.185 . S
O255 C254 1.160 . S
O256 Zn257 1.899 . S
O256 C264 1.284 . S
Zn257 O256 1.899 . S
Zn257 O258 2.032 . S
Zn257 O261 2.086 . S
Zn257 O266 1.977 . S
O258 Zn257 2.032 . S
O258 C262 1.278 . S
C259 O260 1.203 . S
C259 O266 1.267 . S
O260 C259 1.203 . S
O261 C254 1.185 . S
O261 Zn257 2.086 . S
C262 O258 1.278 . S
C262 O263 1.211 . S
O263 C262 1.211 . S
C264 O256 1.284 . S
C264 O265 1.273 . S
O265 C264 1.273 . S
O266 Zn257 1.977 . S
O266 C259 1.267 . S
C267 O268 1.160 . S
C267 O274 1.185 . S
O268 C267 1.160 . S
O269 Zn270 1.899 . S
O269 C277 1.284 1_565 S
Zn270 O269 1.899 . S
Zn270 O271 2.032 1_565 S
Zn270 O274 2.086 . S
Zn270 O279 1.977 . S
O271 Zn270 2.032 1_545 S
O271 C275 1.278 . S
C272 O273 1.203 1_565 S
C272 O279 1.267 . S
O273 C272 1.203 1_545 S
O274 C267 1.185 . S
O274 Zn270 2.086 . S
C275 O271 1.278 . S
C275 O276 1.211 . S
O276 C275 1.211 . S
C277 O269 1.284 1_545 S
C277 O278 1.273 . S
O278 C277 1.273 . S
O279 Zn270 1.977 . S
O279 C272 1.267 . S
C280 O281 1.169 . S
C280 O287 1.185 . S
O281 C280 1.169 . S
O282 Zn283 1.874 1_655 S
O282 C290 1.316 . S
Zn283 O282 1.874 1_455 S
Zn283 O284 2.032 . S
Zn283 O287 2.086 . S
Zn283 O292 1.977 . S
O284 Zn283 2.032 . S
O284 C288 1.278 . S
C285 O286 1.203 . S
C285 O292 1.267 . S
O286 C285 1.203 . S
O287 C280 1.185 . S
O287 Zn283 2.086 . S
C288 O284 1.278 . S
C288 O289 1.211 . S
O289 C288 1.211 . S
C290 O282 1.316 . S
C290 O291 1.273 . S
O291 C290 1.273 . S
O292 Zn283 1.977 . S
O292 C285 1.267 . S
C293 O294 1.160 . S
C293 O300 1.185 . S
O294 C293 1.160 . S
O295 Zn296 1.899 . S
O295 C303 1.284 . S
Zn296 O295 1.899 . S
Zn296 O297 2.032 . S
Zn296 O300 2.086 . S
Zn296 O305 1.977 . S
O297 Zn296 2.032 . S
O297 C301 1.278 . S
C298 O299 1.203 . S
C298 O305 1.267 . S
O299 C298 1.203 . S
O300 C293 1.185 . S
O300 Zn296 2.086 . S
C301 O297 1.278 . S
C301 O302 1.211 . S
O302 C301 1.211 . S
C303 O295 1.284 . S
C303 O304 1.273 . S
O304 C303 1.273 . S
O305 Zn296 1.977 . S
O305 C298 1.267 . S
C306 O307 1.160 1_455 S
C306 O313 1.185 . S
O307 C306 1.160 1_655 S
O308 Zn309 1.899 1_655 S
O308 C316 1.284 . S
Zn309 O308 1.899 1_455 S
Zn309 O310 2.032 . S
Zn309 O313 2.086 . S
Zn309 O318 1.977 . S
O310 Zn309 2.032 . S
O310 C314 1.278 . S
C311 O312 1.203 . S
C311 O318 1.267 . S
O312 C311 1.203 . S
O313 C306 1.185 . S
O313 Zn309 2.086 . S
C314 O310 1.278 . S
C314 O315 1.211 . S
O315 C314 1.211 . S
C316 O308 1.284 . S
C316 O317 1.273 . S
O317 C316 1.273 . S
O318 Zn309 1.977 . S
O318 C311 1.267 . S
C319 O320 1.160 . S
C319 O326 1.185 . S
O320 C319 1.160 . S
O321 Zn322 1.899 . S
O321 C329 1.284 . S
Zn322 O321 1.899 . S
Zn322 O323 2.032 . S
Zn322 O326 2.086 . S
Zn322 O331 1.977 . S
O323 Zn322 2.032 . S
O323 C327 1.278 . S
C324 O325 1.203 . S
C324 O331 1.267 . S
O325 C324 1.203 . S
O326 C319 1.185 . S
O326 Zn322 2.086 . S
C327 O323 1.278 . S
C327 O328 1.211 . S
O328 C327 1.211 . S
C329 O321 1.284 . S
C329 O330 1.273 . S
O330 C329 1.273 . S
O331 Zn322 1.977 . S
O331 C324 1.267 . S
H332 C344 0.930 . S
H333 C346 0.930 . S
H334 C347 0.930 . S
H335 C351 0.959 . S
H336 C351 0.959 . S
H337 C351 0.961 . S
H338 C352 0.960 . S
H339 C352 0.961 . S
H340 C352 0.959 . S
H341 C355 0.929 . S
H342 C356 0.931 1_554 S
H343 C358 0.930 . S
C344 H332 0.930 . S
C344 C345 1.399 . S
C344 C349 1.399 . S
C345 C344 1.399 . S
C345 C346 1.376 . S
C346 H333 0.930 . S
C346 C345 1.376 . S
C346 C347 1.388 . S
C347 H334 0.930 . S
C347 C346 1.388 . S
C347 C348 1.390 . S
C348 C347 1.390 . S
C348 C349 1.394 . S
C348 C354 1.465 . S
C349 C344 1.399 . S
C349 C348 1.394 . S
C349 C350 1.516 . S
C350 C349 1.516 . S
C350 C351 1.502 . S
C350 C352 1.561 . S
C350 C353 1.526 . S
C351 H335 0.959 . S
C351 H336 0.959 . S
C351 H337 0.961 . S
C351 C350 1.502 . S
C352 H338 0.960 . S
C352 H339 0.961 . S
C352 H340 0.959 . S
C352 C350 1.561 . S
C353 C350 1.526 . S
C353 C354 1.396 . S
C353 C358 1.390 . S
C354 C348 1.465 . S
C354 C353 1.396 . S
C354 C355 1.399 . S
C355 H341 0.929 . S
C355 C354 1.399 . S
C355 C356 1.385 . S
C356 H342 0.931 1_556 S
C356 C355 1.385 . S
C356 C357 1.389 . S
C357 C356 1.389 . S
C357 C358 1.387 . S
C358 H343 0.930 . S
C358 C353 1.390 . S
C358 C357 1.387 . S
H359 C371 0.930 . S
H360 C373 0.930 . S
H361 C374 0.930 . S
H362 C378 0.959 . S
H363 C378 0.959 . S
H364 C378 0.961 . S
H365 C379 0.960 . S
H366 C379 0.961 . S
H367 C379 0.959 . S
H368 C382 0.929 . S
H369 C383 0.931 . S
H370 C385 0.930 . S
C371 H359 0.930 . S
C371 C372 1.399 . S
C371 C376 1.399 . S
C372 C371 1.399 . S
C372 C373 1.376 . S
C373 H360 0.930 . S
C373 C372 1.376 . S
C373 C374 1.388 . S
C374 H361 0.930 . S
C374 C373 1.388 . S
C374 C375 1.390 . S
C375 C374 1.390 . S
C375 C376 1.394 . S
C375 C381 1.465 . S
C376 C371 1.399 . S
C376 C375 1.394 . S
C376 C377 1.516 . S
C377 C376 1.516 . S
C377 C378 1.502 . S
C377 C379 1.561 . S
C377 C380 1.526 . S
C378 H362 0.959 . S
C378 H363 0.959 . S
C378 H364 0.961 . S
C378 C377 1.502 . S
C379 H365 0.960 . S
C379 H366 0.961 . S
C379 H367 0.959 . S
C379 C377 1.561 . S
C380 C377 1.526 . S
C380 C381 1.396 . S
C380 C385 1.390 . S
C381 C375 1.465 . S
C381 C380 1.396 . S
C381 C382 1.399 . S
C382 H368 0.929 . S
C382 C381 1.399 . S
C382 C383 1.385 . S
C383 H369 0.931 . S
C383 C382 1.385 . S
C383 C384 1.389 . S
C384 C383 1.389 . S
C384 C385 1.387 . S
C385 H370 0.930 . S
C385 C380 1.390 . S
C385 C384 1.387 . S
H386 C398 0.930 . S
H387 C400 0.930 . S
H388 C401 0.930 . S
H389 C405 0.959 . S
H390 C405 0.959 . S
H391 C405 0.961 . S
H392 C406 0.960 . S
H393 C406 0.961 . S
H394 C406 0.959 . S
H395 C409 0.929 . S
H396 C410 0.931 . S
H397 C412 0.930 . S
C398 H386 0.930 . S
C398 C399 1.399 . S
C398 C403 1.399 . S
C399 C398 1.399 . S
C399 C400 1.376 . S
C400 H387 0.930 . S
C400 C399 1.376 . S
C400 C401 1.388 . S
C401 H388 0.930 . S
C401 C400 1.388 . S
C401 C402 1.390 . S
C402 C401 1.390 . S
C402 C403 1.394 . S
C402 C408 1.465 . S
C403 C398 1.399 . S
C403 C402 1.394 . S
C403 C404 1.516 . S
C404 C403 1.516 . S
C404 C405 1.502 . S
C404 C406 1.561 . S
C404 C407 1.526 . S
C405 H389 0.959 . S
C405 H390 0.959 . S
C405 H391 0.961 . S
C405 C404 1.502 . S
C406 H392 0.960 . S
C406 H393 0.961 . S
C406 H394 0.959 . S
C406 C404 1.561 . S
C407 C404 1.526 . S
C407 C408 1.396 . S
C407 C412 1.390 . S
C408 C402 1.465 . S
C408 C407 1.396 . S
C408 C409 1.399 . S
C409 H395 0.929 . S
C409 C408 1.399 . S
C409 C410 1.385 . S
C410 H396 0.931 . S
C410 C409 1.385 . S
C410 C411 1.389 . S
C411 C410 1.389 . S
C411 C412 1.387 . S
C412 H397 0.930 . S
C412 C407 1.390 . S
C412 C411 1.387 . S
H413 C425 0.930 . S
H414 C427 0.930 . S
H415 C428 0.930 . S
H416 C432 0.959 . S
H417 C432 0.959 . S
H418 C432 0.961 1_455 S
H419 C433 0.960 . S
H420 C433 0.961 . S
H421 C433 0.959 . S
H422 C436 0.929 . S
H423 C437 0.931 . S
H424 C439 0.930 . S
C425 H413 0.930 . S
C425 C426 1.399 1_545 S
C425 C430 1.399 . S
C426 C425 1.399 1_565 S
C426 C427 1.376 . S
C427 H414 0.930 . S
C427 C426 1.376 . S
C427 C428 1.388 . S
C428 H415 0.930 . S
C428 C427 1.388 . S
C428 C429 1.390 . S
C429 C428 1.390 . S
C429 C430 1.394 1_565 S
C429 C435 1.465 1_465 S
C430 C425 1.399 . S
C430 C429 1.394 1_545 S
C430 C431 1.516 . S
C431 C430 1.516 . S
C431 C432 1.502 1_455 S
C431 C433 1.561 . S
C431 C434 1.526 1_455 S
C432 H416 0.959 . S
C432 H417 0.959 . S
C432 H418 0.961 1_655 S
C432 C431 1.502 1_655 S
C433 H419 0.960 . S
C433 H420 0.961 . S
C433 H421 0.959 . S
C433 C431 1.561 . S
C434 C431 1.526 1_655 S
C434 C435 1.396 . S
C434 C439 1.390 . S
C435 C429 1.465 1_645 S
C435 C434 1.396 . S
C435 C436 1.399 1_545 S
C436 H422 0.929 . S
C436 C435 1.399 1_565 S
C436 C437 1.385 . S
C437 H423 0.931 . S
C437 C436 1.385 . S
C437 C438 1.389 1_565 S
C438 C437 1.389 1_545 S
C438 C439 1.387 . S
C439 H424 0.930 . S
C439 C434 1.390 . S
C439 C438 1.387 . S
H440 C452 0.930 . S
H441 C454 0.930 . S
H442 C455 0.930 . S
H443 C459 0.959 . S
H444 C459 0.959 . S
H445 C459 0.961 . S
H446 C460 0.960 . S
H447 C460 0.961 . S
H448 C460 0.959 . S
H449 C463 0.929 . S
H450 C464 0.931 . S
H451 C466 0.930 . S
C452 H440 0.930 . S
C452 C453 1.399 . S
C452 C457 1.399 . S
C453 C452 1.399 . S
C453 C454 1.376 . S
C454 H441 0.930 . S
C454 C453 1.376 . S
C454 C455 1.388 . S
C455 H442 0.930 . S
C455 C454 1.388 . S
C455 C456 1.390 . S
C456 C455 1.390 . S
C456 C457 1.394 . S
C456 C462 1.465 . S
C457 C452 1.399 . S
C457 C456 1.394 . S
C457 C458 1.516 . S
C458 C457 1.516 . S
C458 C459 1.502 . S
C458 C460 1.561 . S
C458 C461 1.526 . S
C459 H443 0.959 . S
C459 H444 0.959 . S
C459 H445 0.961 . S
C459 C458 1.502 . S
C460 H446 0.960 . S
C460 H447 0.961 . S
C460 H448 0.959 . S
C460 C458 1.561 . S
C461 C458 1.526 . S
C461 C462 1.396 . S
C461 C466 1.390 . S
C462 C456 1.465 . S
C462 C461 1.396 . S
C462 C463 1.399 . S
C463 H449 0.929 . S
C463 C462 1.399 . S
C463 C464 1.385 . S
C464 H450 0.931 . S
C464 C463 1.385 . S
C464 C465 1.389 . S
C465 C464 1.389 . S
C465 C466 1.387 . S
C466 H451 0.930 . S
C466 C461 1.390 . S
C466 C465 1.387 . S
H467 C479 0.930 . S
H468 C481 0.930 . S
H469 C482 0.930 . S
H470 C486 0.959 . S
H471 C486 0.959 . S
H472 C486 0.961 . S
H473 C487 0.960 . S
H474 C487 0.961 . S
H475 C487 0.959 . S
H476 C490 0.929 . S
H477 C491 0.931 . S
H478 C493 0.930 . S
C479 H467 0.930 . S
C479 C480 1.399 . S
C479 C484 1.399 . S
C480 C479 1.399 . S
C480 C481 1.376 . S
C481 H468 0.930 . S
C481 C480 1.376 . S
C481 C482 1.388 . S
C482 H469 0.930 . S
C482 C481 1.388 . S
C482 C483 1.390 . S
C483 C482 1.390 . S
C483 C484 1.394 . S
C483 C489 1.465 . S
C484 C479 1.399 . S
C484 C483 1.394 . S
C484 C485 1.516 . S
C485 C484 1.516 . S
C485 C486 1.502 . S
C485 C487 1.561 . S
C485 C488 1.526 . S
C486 H470 0.959 . S
C486 H471 0.959 . S
C486 H472 0.961 . S
C486 C485 1.502 . S
C487 H473 0.960 . S
C487 H474 0.961 . S
C487 H475 0.959 . S
C487 C485 1.561 . S
C488 C485 1.526 . S
C488 C489 1.396 . S
C488 C493 1.390 . S
C489 C483 1.465 . S
C489 C488 1.396 . S
C489 C490 1.399 . S
C490 H476 0.929 . S
C490 C489 1.399 . S
C490 C491 1.385 . S
C491 H477 0.931 . S
C491 C490 1.385 . S
C491 C492 1.389 . S
C492 C491 1.389 . S
C492 C493 1.387 . S
C493 H478 0.930 . S
C493 C488 1.390 . S
C493 C492 1.387 . S
H494 C506 0.930 . S
H495 C508 0.930 . S
H496 C509 0.930 . S
H497 C513 0.959 . S
H498 C513 0.959 . S
H499 C513 0.961 . S
H500 C514 0.960 . S
H501 C514 0.961 . S
H502 C514 0.959 . S
H503 C517 0.929 . S
H504 C518 0.931 . S
H505 C520 0.930 . S
C506 H494 0.930 . S
C506 C507 1.399 . S
C506 C511 1.399 . S
C507 C506 1.399 . S
C507 C508 1.376 . S
C508 H495 0.930 . S
C508 C507 1.376 . S
C508 C509 1.388 . S
C509 H496 0.930 . S
C509 C508 1.388 . S
C509 C510 1.390 . S
C510 C509 1.390 . S
C510 C511 1.394 . S
C510 C516 1.465 . S
C511 C506 1.399 . S
C511 C510 1.394 . S
C511 C512 1.516 . S
C512 C511 1.516 . S
C512 C513 1.502 . S
C512 C514 1.561 . S
C512 C515 1.526 . S
C513 H497 0.959 . S
C513 H498 0.959 . S
C513 H499 0.961 . S
C513 C512 1.502 . S
C514 H500 0.960 . S
C514 H501 0.961 . S
C514 H502 0.959 . S
C514 C512 1.561 . S
C515 C512 1.526 . S
C515 C516 1.396 . S
C515 C520 1.390 . S
C516 C510 1.465 . S
C516 C515 1.396 . S
C516 C517 1.399 . S
C517 H503 0.929 . S
C517 C516 1.399 . S
C517 C518 1.385 . S
C518 H504 0.931 . S
C518 C517 1.385 . S
C518 C519 1.389 . S
C519 C518 1.389 . S
C519 C520 1.387 . S
C520 H505 0.930 . S
C520 C515 1.390 . S
C520 C519 1.387 . S
H521 C533 0.930 . S
H522 C535 0.930 . S
H523 C536 0.930 . S
H524 C540 0.959 . S
H525 C540 0.959 . S
H526 C540 0.961 . S
H527 C541 0.960 . S
H528 C541 0.961 . S
H529 C541 0.959 . S
H530 C544 0.929 . S
H531 C545 0.931 . S
H532 C547 0.930 . S
C533 H521 0.930 . S
C533 C534 1.399 . S
C533 C538 1.399 . S
C534 C533 1.399 . S
C534 C535 1.376 1_565 S
C535 H522 0.930 . S
C535 C534 1.376 1_545 S
C535 C536 1.388 . S
C536 H523 0.930 . S
C536 C535 1.388 . S
C536 C537 1.380 1_545 S
C537 C536 1.380 1_565 S
C537 C538 1.404 . S
C537 C543 1.467 1_565 S
C538 C533 1.399 . S
C538 C537 1.404 . S
C538 C539 1.516 . S
C539 C538 1.516 . S
C539 C540 1.502 . S
C539 C541 1.561 . S
C539 C542 1.526 . S
C540 H524 0.959 . S
C540 H525 0.959 . S
C540 H526 0.961 . S
C540 C539 1.502 . S
C541 H527 0.960 . S
C541 H528 0.961 . S
C541 H529 0.959 . S
C541 C539 1.561 . S
C542 C539 1.526 . S
C542 C543 1.396 1_565 S
C542 C547 1.390 . S
C543 C537 1.467 1_545 S
C543 C542 1.396 1_545 S
C543 C544 1.399 . S
C544 H530 0.929 . S
C544 C543 1.399 . S
C544 C545 1.385 . S
C545 H531 0.931 . S
C545 C544 1.385 . S
C545 C546 1.389 1_545 S
C546 C545 1.389 1_565 S
C546 C547 1.387 . S
C547 H532 0.930 . S
C547 C542 1.390 . S
C547 C546 1.387 . S
H548 C560 0.930 . S
H549 C562 0.930 . S
H550 C563 0.930 . S
H551 C567 0.959 . S
H552 C567 0.959 . S
H553 C567 0.961 . S
H554 C568 0.960 . S
H555 C568 0.961 . S
H556 C568 0.959 . S
H557 C571 0.929 . S
H558 C572 0.931 . S
H559 C574 0.930 . S
C560 H548 0.930 . S
C560 C561 1.399 . S
C560 C565 1.399 . S
C561 C560 1.399 . S
C561 C562 1.376 . S
C562 H549 0.930 . S
C562 C561 1.376 . S
C562 C563 1.388 . S
C563 H550 0.930 . S
C563 C562 1.388 . S
C563 C564 1.390 . S
C564 C563 1.390 . S
C564 C565 1.394 . S
C564 C570 1.465 . S
C565 C560 1.399 . S
C565 C564 1.394 . S
C565 C566 1.516 . S
C566 C565 1.516 . S
C566 C567 1.502 . S
C566 C568 1.561 . S
C566 C569 1.526 . S
C567 H551 0.959 . S
C567 H552 0.959 . S
C567 H553 0.961 . S
C567 C566 1.502 . S
C568 H554 0.960 . S
C568 H555 0.961 . S
C568 H556 0.959 . S
C568 C566 1.561 . S
C569 C566 1.526 . S
C569 C570 1.396 . S
C569 C574 1.390 . S
C570 C564 1.465 . S
C570 C569 1.396 . S
C570 C571 1.399 . S
C571 H557 0.929 . S
C571 C570 1.399 . S
C571 C572 1.385 . S
C572 H558 0.931 . S
C572 C571 1.385 . S
C572 C573 1.389 . S
C573 C572 1.389 . S
C573 C574 1.387 . S
C574 H559 0.930 . S
C574 C569 1.390 . S
C574 C573 1.387 . S
H575 C587 0.930 . S
H576 C589 0.930 . S
H577 C590 0.930 . S
H578 C594 0.959 . S
H579 C594 0.959 . S
H580 C594 0.961 . S
H581 C595 0.960 . S
H582 C595 0.961 . S
H583 C595 0.959 . S
H584 C598 0.929 . S
H585 C599 0.931 . S
H586 C601 0.930 . S
C587 H575 0.930 . S
C587 C588 1.399 . S
C587 C592 1.399 . S
C588 C587 1.399 . S
C588 C589 1.376 . S
C589 H576 0.930 . S
C589 C588 1.376 . S
C589 C590 1.388 . S
C590 H577 0.930 . S
C590 C589 1.388 . S
C590 C591 1.390 . S
C591 C590 1.390 . S
C591 C592 1.394 . S
C591 C597 1.465 . S
C592 C587 1.399 . S
C592 C591 1.394 . S
C592 C593 1.516 . S
C593 C592 1.516 . S
C593 C594 1.502 . S
C593 C595 1.561 . S
C593 C596 1.526 . S
C594 H578 0.959 . S
C594 H579 0.959 . S
C594 H580 0.961 . S
C594 C593 1.502 . S
C595 H581 0.960 . S
C595 H582 0.961 . S
C595 H583 0.959 . S
C595 C593 1.561 . S
C596 C593 1.526 . S
C596 C597 1.396 . S
C596 C601 1.390 . S
C597 C591 1.465 . S
C597 C596 1.396 . S
C597 C598 1.399 . S
C598 H584 0.929 . S
C598 C597 1.399 . S
C598 C599 1.385 . S
C599 H585 0.931 . S
C599 C598 1.385 . S
C599 C600 1.389 . S
C600 C599 1.389 . S
C600 C601 1.387 . S
C601 H586 0.930 . S
C601 C596 1.390 . S
C601 C600 1.387 . S
H602 C614 0.930 . S
H603 C616 0.930 . S
H604 C617 0.930 . S
H605 C621 0.959 . S
H606 C621 0.959 . S
H607 C621 0.961 . S
H608 C622 0.960 . S
H609 C622 0.961 . S
H610 C622 0.959 . S
H611 C625 0.929 . S
H612 C626 0.931 . S
H613 C628 0.930 . S
C614 H602 0.930 . S
C614 C615 1.399 . S
C614 C619 1.399 . S
C615 C614 1.399 . S
C615 C616 1.376 . S
C616 H603 0.930 . S
C616 C615 1.376 . S
C616 C617 1.388 . S
C617 H604 0.930 . S
C617 C616 1.388 . S
C617 C618 1.390 . S
C618 C617 1.390 . S
C618 C619 1.394 . S
C618 C624 1.465 . S
C619 C614 1.399 . S
C619 C618 1.394 . S
C619 C620 1.516 . S
C620 C619 1.516 . S
C620 C621 1.502 . S
C620 C622 1.561 . S
C620 C623 1.526 . S
C621 H605 0.959 . S
C621 H606 0.959 . S
C621 H607 0.961 . S
C621 C620 1.502 . S
C622 H608 0.960 . S
C622 H609 0.961 . S
C622 H610 0.959 . S
C622 C620 1.561 . S
C623 C620 1.526 . S
C623 C624 1.396 . S
C623 C628 1.390 . S
C624 C618 1.465 . S
C624 C623 1.396 . S
C624 C625 1.399 . S
C625 H611 0.929 . S
C625 C624 1.399 . S
C625 C626 1.385 . S
C626 H612 0.931 . S
C626 C625 1.385 . S
C626 C627 1.389 . S
C627 C626 1.389 . S
C627 C628 1.387 . S
C628 H613 0.930 . S
C628 C623 1.390 . S
C628 C627 1.387 . S
H629 C641 0.930 . S
H630 C643 0.930 . S
H631 C644 0.930 . S
H632 C648 0.959 . S
H633 C648 0.959 . S
H634 C648 0.961 . S
H635 C649 0.960 . S
H636 C649 0.961 . S
H637 C649 0.959 . S
H638 C652 0.929 . S
H639 C653 0.931 . S
H640 C655 0.930 . S
C641 H629 0.930 . S
C641 C642 1.399 . S
C641 C646 1.399 . S
C642 C641 1.399 . S
C642 C643 1.376 . S
C643 H630 0.930 . S
C643 C642 1.376 . S
C643 C644 1.388 . S
C644 H631 0.930 . S
C644 C643 1.388 . S
C644 C645 1.390 . S
C645 C644 1.390 . S
C645 C646 1.394 . S
C645 C651 1.465 . S
C646 C641 1.399 . S
C646 C645 1.394 . S
C646 C647 1.516 . S
C647 C646 1.516 . S
C647 C648 1.502 . S
C647 C649 1.561 . S
C647 C650 1.526 . S
C648 H632 0.959 . S
C648 H633 0.959 . S
C648 H634 0.961 . S
C648 C647 1.502 . S
C649 H635 0.960 . S
C649 H636 0.961 . S
C649 H637 0.959 . S
C649 C647 1.561 . S
C650 C647 1.526 . S
C650 C651 1.396 . S
C650 C655 1.390 . S
C651 C645 1.465 . S
C651 C650 1.396 . S
C651 C652 1.399 . S
C652 H638 0.929 . S
C652 C651 1.399 . S
C652 C653 1.385 . S
C653 H639 0.931 . S
C653 C652 1.385 . S
C653 C654 1.389 . S
C654 C653 1.389 . S
C654 C655 1.387 . S
C655 H640 0.930 . S
C655 C650 1.390 . S
C655 C654 1.387 . S
H656 C668 0.930 . S
H657 C670 0.930 . S
H658 C671 0.930 . S
H659 C675 0.959 . S
H660 C675 0.959 . S
H661 C675 0.961 . S
H662 C676 0.960 . S
H663 C676 0.961 . S
H664 C676 0.959 . S
H665 C679 0.929 . S
H666 C680 0.931 . S
H667 C682 0.930 . S
C668 H656 0.930 . S
C668 C669 1.399 . S
C668 C673 1.399 . S
C669 C668 1.399 . S
C669 C670 1.376 . S
C670 H657 0.930 . S
C670 C669 1.376 . S
C670 C671 1.388 . S
C671 H658 0.930 . S
C671 C670 1.388 . S
C671 C672 1.390 . S
C672 C671 1.390 . S
C672 C673 1.394 . S
C672 C678 1.465 . S
C673 C668 1.399 . S
C673 C672 1.394 . S
C673 C674 1.516 . S
C674 C673 1.516 . S
C674 C675 1.502 . S
C674 C676 1.561 . S
C674 C677 1.526 . S
C675 H659 0.959 . S
C675 H660 0.959 . S
C675 H661 0.961 . S
C675 C674 1.502 . S
C676 H662 0.960 . S
C676 H663 0.961 . S
C676 H664 0.959 . S
C676 C674 1.561 . S
C677 C674 1.526 . S
C677 C678 1.396 . S
C677 C682 1.390 . S
C678 C672 1.465 . S
C678 C677 1.396 . S
C678 C679 1.399 . S
C679 H665 0.929 . S
C679 C678 1.399 . S
C679 C680 1.385 . S
C680 H666 0.931 . S
C680 C679 1.385 . S
C680 C681 1.389 . S
C681 C680 1.389 . S
C681 C682 1.387 . S
C682 H667 0.930 . S
C682 C677 1.390 . S
C682 C681 1.387 . S
H683 C695 0.930 . S
H684 C697 0.930 . S
H685 C698 0.930 . S
H686 C702 0.959 . S
H687 C702 0.959 . S
H688 C702 0.961 . S
H689 C703 0.960 . S
H690 C703 0.961 . S
H691 C703 0.959 . S
H692 C706 0.929 . S
H693 C707 0.904 1_655 S
H694 C709 0.930 . S
C695 H683 0.930 . S
C695 C696 1.399 . S
C695 C700 1.399 . S
C696 C695 1.399 . S
C696 C697 1.376 . S
C697 H684 0.930 . S
C697 C696 1.376 . S
C697 C698 1.388 . S
C698 H685 0.930 . S
C698 C697 1.388 . S
C698 C699 1.390 . S
C699 C698 1.390 . S
C699 C700 1.394 . S
C699 C705 1.465 . S
C700 C695 1.399 . S
C700 C699 1.394 . S
C700 C701 1.516 . S
C701 C700 1.516 . S
C701 C702 1.502 . S
C701 C703 1.561 . S
C701 C704 1.526 . S
C702 H686 0.959 . S
C702 H687 0.959 . S
C702 H688 0.961 . S
C702 C701 1.502 . S
C703 H689 0.960 . S
C703 H690 0.961 . S
C703 H691 0.959 . S
C703 C701 1.561 . S
C704 C701 1.526 . S
C704 C705 1.396 . S
C704 C709 1.390 . S
C705 C699 1.465 . S
C705 C704 1.396 . S
C705 C706 1.399 . S
C706 H692 0.929 . S
C706 C705 1.399 . S
C706 C707 1.385 . S
C707 H693 0.904 1_455 S
C707 C706 1.385 . S
C707 C708 1.389 . S
C708 C707 1.389 . S
C708 C709 1.387 . S
C709 H694 0.930 . S
C709 C704 1.390 . S
C709 C708 1.387 . S
H710 C722 0.930 . S
H711 C724 0.930 . S
H712 C725 0.930 . S
H713 C729 0.959 . S
H714 C729 0.959 . S
H715 C729 0.961 . S
H716 C730 0.960 . S
H717 C730 0.961 . S
H718 C730 0.959 . S
H719 C733 0.929 . S
H720 C734 0.931 . S
H721 C736 0.930 . S
C722 H710 0.930 . S
C722 C723 1.399 . S
C722 C727 1.399 . S
C723 C722 1.399 . S
C723 C724 1.376 . S
C724 H711 0.930 . S
C724 C723 1.376 . S
C724 C725 1.388 . S
C725 H712 0.930 . S
C725 C724 1.388 . S
C725 C726 1.390 . S
C726 C725 1.390 . S
C726 C727 1.394 . S
C726 C732 1.465 . S
C727 C722 1.399 . S
C727 C726 1.394 . S
C727 C728 1.516 . S
C728 C727 1.516 . S
C728 C729 1.502 . S
C728 C730 1.561 . S
C728 C731 1.526 . S
C729 H713 0.959 . S
C729 H714 0.959 . S
C729 H715 0.961 . S
C729 C728 1.502 . S
C730 H716 0.960 . S
C730 H717 0.961 . S
C730 H718 0.959 . S
C730 C728 1.561 . S
C731 C728 1.526 . S
C731 C732 1.396 . S
C731 C736 1.390 . S
C732 C726 1.465 . S
C732 C731 1.396 . S
C732 C733 1.399 . S
C733 H719 0.929 . S
C733 C732 1.399 . S
C733 C734 1.385 . S
C734 H720 0.931 . S
C734 C733 1.385 . S
C734 C735 1.389 . S
C735 C734 1.389 . S
C735 C736 1.387 . S
C736 H721 0.930 . S
C736 C731 1.390 . S
C736 C735 1.387 . S
H737 C749 0.930 . S
H738 C751 0.933 . S
H739 C752 0.930 . S
H740 C756 0.959 1_455 S
H741 C756 0.959 . S
H742 C756 0.961 . S
H743 C757 0.960 . S
H744 C757 0.961 . S
H745 C757 0.959 . S
H746 C760 0.929 . S
H747 C761 0.931 . S
H748 C763 0.930 . S
C749 H737 0.930 . S
C749 C750 1.399 . S
C749 C754 1.399 . S
C750 C749 1.399 . S
C750 C751 1.373 1_655 S
C751 H738 0.933 . S
C751 C750 1.373 1_455 S
C751 C752 1.389 . S
C752 H739 0.930 . S
C752 C751 1.389 . S
C752 C753 1.390 1_455 S
C753 C752 1.390 1_655 S
C753 C754 1.394 . S
C753 C759 1.465 1_655 S
C754 C749 1.399 . S
C754 C753 1.394 . S
C754 C755 1.516 . S
C755 C754 1.516 . S
C755 C756 1.502 . S
C755 C757 1.561 . S
C755 C758 1.526 . S
C756 H740 0.959 1_655 S
C756 H741 0.959 . S
C756 H742 0.961 . S
C756 C755 1.502 . S
C757 H743 0.960 . S
C757 H744 0.961 . S
C757 H745 0.959 . S
C757 C755 1.561 . S
C758 C755 1.526 . S
C758 C759 1.382 1_655 S
C758 C763 1.390 . S
C759 C753 1.465 1_455 S
C759 C758 1.382 1_455 S
C759 C760 1.411 . S
C760 H746 0.929 . S
C760 C759 1.411 . S
C760 C761 1.385 . S
C761 H747 0.931 . S
C761 C760 1.385 . S
C761 C762 1.389 . S
C762 C761 1.389 . S
C762 C763 1.387 1_455 S
C763 H748 0.930 . S
C763 C758 1.390 . S
C763 C762 1.387 1_655 S
H764 C776 0.930 . S
H765 C778 0.930 . S
H766 C779 0.930 . S
H767 C783 0.959 . S
H768 C783 0.959 . S
H769 C783 0.961 . S
H770 C784 0.960 . S
H771 C784 0.961 . S
H772 C784 0.959 . S
H773 C787 0.929 . S
H774 C788 0.931 . S
H775 C790 0.930 . S
C776 H764 0.930 . S
C776 C777 1.399 . S
C776 C781 1.399 . S
C777 C776 1.399 . S
C777 C778 1.376 . S
C778 H765 0.930 . S
C778 C777 1.376 . S
C778 C779 1.388 . S
C779 H766 0.930 . S
C779 C778 1.388 . S
C779 C780 1.390 . S
C780 C779 1.390 . S
C780 C781 1.394 . S
C780 C786 1.465 . S
C781 C776 1.399 . S
C781 C780 1.394 . S
C781 C782 1.516 . S
C782 C781 1.516 . S
C782 C783 1.502 . S
C782 C784 1.561 . S
C782 C785 1.526 . S
C783 H767 0.959 . S
C783 H768 0.959 . S
C783 H769 0.961 . S
C783 C782 1.502 . S
C784 H770 0.960 . S
C784 H771 0.961 . S
C784 H772 0.959 . S
C784 C782 1.561 . S
C785 C782 1.526 . S
C785 C786 1.396 . S
C785 C790 1.390 . S
C786 C780 1.465 . S
C786 C785 1.396 . S
C786 C787 1.399 . S
C787 H773 0.929 . S
C787 C786 1.399 . S
C787 C788 1.385 . S
C788 H774 0.931 . S
C788 C787 1.385 . S
C788 C789 1.389 . S
C789 C788 1.389 . S
C789 C790 1.387 . S
C790 H775 0.930 . S
C790 C785 1.390 . S
C790 C789 1.387 . S
H791 C803 0.930 . S
H792 C805 0.930 . S
H793 C806 0.930 . S
H794 C810 0.959 . S
H795 C810 0.959 . S
H796 C810 0.961 . S
H797 C811 0.960 . S
H798 C811 0.961 . S
H799 C811 0.959 . S
H800 C814 0.929 . S
H801 C815 0.931 . S
H802 C817 0.930 . S
C803 H791 0.930 . S
C803 C804 1.399 . S
C803 C808 1.399 . S
C804 C803 1.399 . S
C804 C805 1.376 . S
C805 H792 0.930 . S
C805 C804 1.376 . S
C805 C806 1.388 . S
C806 H793 0.930 . S
C806 C805 1.388 . S
C806 C807 1.390 . S
C807 C806 1.390 . S
C807 C808 1.394 . S
C807 C813 1.465 . S
C808 C803 1.399 . S
C808 C807 1.394 . S
C808 C809 1.516 . S
C809 C808 1.516 . S
C809 C810 1.502 . S
C809 C811 1.561 . S
C809 C812 1.526 . S
C810 H794 0.959 . S
C810 H795 0.959 . S
C810 H796 0.961 . S
C810 C809 1.502 . S
C811 H797 0.960 . S
C811 H798 0.961 . S
C811 H799 0.959 . S
C811 C809 1.561 . S
C812 C809 1.526 . S
C812 C813 1.396 . S
C812 C817 1.390 . S
C813 C807 1.465 . S
C813 C812 1.396 . S
C813 C814 1.399 . S
C814 H800 0.929 . S
C814 C813 1.399 . S
C814 C815 1.385 . S
C815 H801 0.931 . S
C815 C814 1.385 . S
C815 C816 1.389 . S
C816 C815 1.389 . S
C816 C817 1.387 . S
C817 H802 0.930 . S
C817 C812 1.390 . S
C817 C816 1.387 . S
H818 C830 0.930 . S
H819 C832 0.930 . S
H820 C833 0.930 . S
H821 C837 0.959 . S
H822 C837 0.959 . S
H823 C837 0.961 1_545 S
H824 C838 0.960 . S
H825 C838 0.961 . S
H826 C838 0.959 . S
H827 C841 0.929 . S
H828 C842 0.931 1_556 S
H829 C844 0.930 . S
C830 H818 0.930 . S
C830 C831 1.399 1_554 S
C830 C835 1.399 1_545 S
C831 C830 1.399 1_556 S
C831 C832 1.376 1_545 S
C832 H819 0.930 . S
C832 C831 1.376 1_565 S
C832 C833 1.388 . S
C833 H820 0.930 . S
C833 C832 1.388 . S
C833 C834 1.390 . S
C834 C833 1.390 . S
C834 C835 1.394 1_556 S
C834 C840 1.465 1_556 S
C835 C830 1.399 1_565 S
C835 C834 1.394 1_554 S
C835 C836 1.516 . S
C836 C835 1.516 . S
C836 C837 1.502 . S
C836 C838 1.561 1_565 S
C836 C839 1.526 . S
C837 H821 0.959 . S
C837 H822 0.959 . S
C837 H823 0.961 1_565 S
C837 C836 1.502 . S
C838 H824 0.960 . S
C838 H825 0.961 . S
C838 H826 0.959 . S
C838 C836 1.561 1_545 S
C839 C836 1.526 . S
C839 C840 1.396 . S
C839 C844 1.390 . S
C840 C834 1.465 1_554 S
C840 C839 1.396 . S
C840 C841 1.399 1_554 S
C841 H827 0.929 . S
C841 C840 1.399 1_556 S
C841 C842 1.385 1_556 S
C842 H828 0.931 1_554 S
C842 C841 1.385 1_554 S
C842 C843 1.389 . S
C843 C842 1.389 . S
C843 C844 1.387 . S
C844 H829 0.930 . S
C844 C839 1.390 . S
C844 C843 1.387 . S
H845 C857 0.930 . S
H846 C859 0.930 . S
H847 C860 0.930 . S
H848 C864 0.959 . S
H849 C864 0.959 . S
H850 C864 0.961 . S
H851 C865 0.960 . S
H852 C865 0.961 . S
H853 C865 0.959 . S
H854 C868 0.929 . S
H855 C869 0.931 . S
H856 C871 0.930 . S
C857 H845 0.930 . S
C857 C858 1.399 . S
C857 C862 1.399 . S
C858 C857 1.399 . S
C858 C859 1.376 . S
C859 H846 0.930 . S
C859 C858 1.376 . S
C859 C860 1.388 . S
C860 H847 0.930 . S
C860 C859 1.388 . S
C860 C861 1.390 . S
C861 C860 1.390 . S
C861 C862 1.394 . S
C861 C867 1.465 . S
C862 C857 1.399 . S
C862 C861 1.394 . S
C862 C863 1.516 . S
C863 C862 1.516 . S
C863 C864 1.502 . S
C863 C865 1.561 . S
C863 C866 1.526 . S
C864 H848 0.959 . S
C864 H849 0.959 . S
C864 H850 0.961 . S
C864 C863 1.502 . S
C865 H851 0.960 . S
C865 H852 0.961 . S
C865 H853 0.959 . S
C865 C863 1.561 . S
C866 C863 1.526 . S
C866 C867 1.396 . S
C866 C871 1.390 . S
C867 C861 1.465 . S
C867 C866 1.396 . S
C867 C868 1.399 . S
C868 H854 0.929 . S
C868 C867 1.399 . S
C868 C869 1.385 . S
C869 H855 0.931 . S
C869 C868 1.385 . S
C869 C870 1.389 . S
C870 C869 1.389 . S
C870 C871 1.387 . S
C871 H856 0.930 . S
C871 C866 1.390 . S
C871 C870 1.387 . S
H872 C884 0.930 . S
H873 C886 0.930 . S
H874 C887 0.930 . S
H875 C891 0.959 . S
H876 C891 0.959 . S
H877 C891 0.961 . S
H878 C892 0.960 . S
H879 C892 0.961 . S
H880 C892 0.959 . S
H881 C895 0.929 . S
H882 C896 0.931 . S
H883 C898 0.930 . S
C884 H872 0.930 . S
C884 C885 1.399 . S
C884 C889 1.399 . S
C885 C884 1.399 . S
C885 C886 1.376 . S
C886 H873 0.930 . S
C886 C885 1.376 . S
C886 C887 1.388 . S
C887 H874 0.930 . S
C887 C886 1.388 . S
C887 C888 1.390 . S
C888 C887 1.390 . S
C888 C889 1.394 . S
C888 C894 1.465 . S
C889 C884 1.399 . S
C889 C888 1.394 . S
C889 C890 1.516 . S
C890 C889 1.516 . S
C890 C891 1.502 . S
C890 C892 1.561 . S
C890 C893 1.526 . S
C891 H875 0.959 . S
C891 H876 0.959 . S
C891 H877 0.961 . S
C891 C890 1.502 . S
C892 H878 0.960 . S
C892 H879 0.961 . S
C892 H880 0.959 . S
C892 C890 1.561 . S
C893 C890 1.526 . S
C893 C894 1.396 . S
C893 C898 1.390 . S
C894 C888 1.465 . S
C894 C893 1.396 . S
C894 C895 1.399 . S
C895 H881 0.929 . S
C895 C894 1.399 . S
C895 C896 1.385 . S
C896 H882 0.931 . S
C896 C895 1.385 . S
C896 C897 1.389 . S
C897 C896 1.389 . S
C897 C898 1.387 . S
C898 H883 0.930 . S
C898 C893 1.390 . S
C898 C897 1.387 . S
H899 C911 0.930 . S
H900 C913 0.930 . S
H901 C914 0.930 . S
H902 C918 0.959 . S
H903 C918 0.959 . S
H904 C918 0.961 . S
H905 C919 0.960 . S
H906 C919 0.961 . S
H907 C919 0.959 . S
H908 C922 0.929 . S
H909 C923 0.931 . S
H910 C925 0.930 . S
C911 H899 0.930 . S
C911 C912 1.399 . S
C911 C916 1.399 . S
C912 C911 1.399 . S
C912 C913 1.376 . S
C913 H900 0.930 . S
C913 C912 1.376 . S
C913 C914 1.388 . S
C914 H901 0.930 . S
C914 C913 1.388 . S
C914 C915 1.390 . S
C915 C914 1.390 . S
C915 C916 1.394 . S
C915 C921 1.465 . S
C916 C911 1.399 . S
C916 C915 1.394 . S
C916 C917 1.516 . S
C917 C916 1.516 . S
C917 C918 1.502 . S
C917 C919 1.561 . S
C917 C920 1.526 . S
C918 H902 0.959 . S
C918 H903 0.959 . S
C918 H904 0.961 . S
C918 C917 1.502 . S
C919 H905 0.960 . S
C919 H906 0.961 . S
C919 H907 0.959 . S
C919 C917 1.561 . S
C920 C917 1.526 . S
C920 C921 1.396 . S
C920 C925 1.390 . S
C921 C915 1.465 . S
C921 C920 1.396 . S
C921 C922 1.399 . S
C922 H908 0.929 . S
C922 C921 1.399 . S
C922 C923 1.385 . S
C923 H909 0.931 . S
C923 C922 1.385 . S
C923 C924 1.389 . S
C924 C923 1.389 . S
C924 C925 1.387 . S
C925 H910 0.930 . S
C925 C920 1.390 . S
C925 C924 1.387 . S
H926 C938 0.930 . S
H927 C940 0.930 . S
H928 C941 0.930 . S
H929 C945 0.959 . S
H930 C945 0.959 . S
H931 C945 0.961 . S
H932 C946 0.960 . S
H933 C946 0.961 . S
H934 C946 0.959 . S
H935 C949 0.929 . S
H936 C950 0.931 . S
H937 C952 0.930 . S
C938 H926 0.930 . S
C938 C939 1.399 . S
C938 C943 1.399 . S
C939 C938 1.399 . S
C939 C940 1.376 . S
C940 H927 0.930 . S
C940 C939 1.376 . S
C940 C941 1.388 . S
C941 H928 0.930 . S
C941 C940 1.388 . S
C941 C942 1.390 . S
C942 C941 1.390 . S
C942 C943 1.394 . S
C942 C948 1.465 . S
C943 C938 1.399 . S
C943 C942 1.394 . S
C943 C944 1.516 . S
C944 C943 1.516 . S
C944 C945 1.502 . S
C944 C946 1.561 . S
C944 C947 1.526 . S
C945 H929 0.959 . S
C945 H930 0.959 . S
C945 H931 0.961 . S
C945 C944 1.502 . S
C946 H932 0.960 . S
C946 H933 0.961 . S
C946 H934 0.959 . S
C946 C944 1.561 . S
C947 C944 1.526 . S
C947 C948 1.396 . S
C947 C952 1.390 . S
C948 C942 1.465 . S
C948 C947 1.396 . S
C948 C949 1.399 . S
C949 H935 0.929 . S
C949 C948 1.399 . S
C949 C950 1.385 . S
C950 H936 0.931 . S
C950 C949 1.385 . S
C950 C951 1.389 . S
C951 C950 1.389 . S
C951 C952 1.387 . S
C952 H937 0.930 . S
C952 C947 1.390 . S
C952 C951 1.387 . S
H953 C965 0.930 . S
H954 C967 0.930 . S
H955 C968 0.930 . S
H956 C972 0.959 . S
H957 C972 0.959 . S
H958 C972 0.961 . S
H959 C973 0.960 . S
H960 C973 0.961 . S
H961 C973 0.959 . S
H962 C976 0.929 . S
H963 C977 0.931 . S
H964 C979 0.930 . S
C965 H953 0.930 . S
C965 C966 1.399 . S
C965 C970 1.399 . S
C966 C965 1.399 . S
C966 C967 1.376 . S
C967 H954 0.930 . S
C967 C966 1.376 . S
C967 C968 1.388 . S
C968 H955 0.930 . S
C968 C967 1.388 . S
C968 C969 1.390 . S
C969 C968 1.390 . S
C969 C970 1.394 . S
C969 C975 1.465 . S
C970 C965 1.399 . S
C970 C969 1.394 . S
C970 C971 1.516 . S
C971 C970 1.516 . S
C971 C972 1.502 . S
C971 C973 1.561 . S
C971 C974 1.526 . S
C972 H956 0.959 . S
C972 H957 0.959 . S
C972 H958 0.961 . S
C972 C971 1.502 . S
C973 H959 0.960 . S
C973 H960 0.961 . S
C973 H961 0.959 . S
C973 C971 1.561 . S
C974 C971 1.526 . S
C974 C975 1.396 . S
C974 C979 1.390 . S
C975 C969 1.465 . S
C975 C974 1.396 . S
C975 C976 1.399 . S
C976 H962 0.929 . S
C976 C975 1.399 . S
C976 C977 1.385 . S
C977 H963 0.931 . S
C977 C976 1.385 . S
C977 C978 1.389 . S
C978 C977 1.389 . S
C978 C979 1.387 . S
C979 H964 0.930 . S
C979 C974 1.390 . S
C979 C978 1.387 . S
H980 C992 0.930 . S
H981 C994 0.930 . S
H982 C995 0.930 . S
H983 C999 0.959 . S
H984 C999 0.959 . S
H985 C999 0.961 . S
H986 C1000 0.960 . S
H987 C1000 0.961 . S
H988 C1000 0.959 . S
H989 C1003 0.929 . S
H990 C1004 0.931 . S
H991 C1006 0.930 . S
C992 H980 0.930 . S
C992 C993 1.399 . S
C992 C997 1.399 . S
C993 C992 1.399 . S
C993 C994 1.376 . S
C994 H981 0.930 . S
C994 C993 1.376 . S
C994 C995 1.388 . S
C995 H982 0.930 . S
C995 C994 1.388 . S
C995 C996 1.390 . S
C996 C995 1.390 . S
C996 C997 1.394 . S
C996 C1002 1.465 . S
C997 C992 1.399 . S
C997 C996 1.394 . S
C997 C998 1.516 . S
C998 C997 1.516 . S
C998 C999 1.502 . S
C998 C1000 1.561 . S
C998 C1001 1.526 . S
C999 H983 0.959 . S
C999 H984 0.959 . S
C999 H985 0.961 . S
C999 C998 1.502 . S
C1000 H986 0.960 . S
C1000 H987 0.961 . S
C1000 H988 0.959 . S
C1000 C998 1.561 . S
C1001 C998 1.526 . S
C1001 C1002 1.396 . S
C1001 C1006 1.390 . S
C1002 C996 1.465 . S
C1002 C1001 1.396 . S
C1002 C1003 1.399 . S
C1003 H989 0.929 . S
C1003 C1002 1.399 . S
C1003 C1004 1.385 . S
C1004 H990 0.931 . S
C1004 C1003 1.385 . S
C1004 C1005 1.389 . S
C1005 C1004 1.389 . S
C1005 C1006 1.387 . S
C1006 H991 0.930 . S
C1006 C1001 1.390 . S
C1006 C1005 1.387 . S
H1007 C1019 0.930 1_565 S
H1008 C1021 0.930 . S
H1009 C1022 0.930 . S
H1010 C1026 0.959 . S
H1011 C1026 0.959 . S
H1012 C1026 0.961 . S
H1013 C1027 0.960 . S
H1014 C1027 0.961 . S
H1015 C1027 0.959 . S
H1016 C1030 0.929 . S
H1017 C1031 0.931 . S
H1018 C1033 0.930 . S
C1019 H1007 0.930 1_545 S
C1019 C1020 1.399 . S
C1019 C1024 1.399 . S
C1020 C1019 1.399 . S
C1020 C1021 1.376 . S
C1021 H1008 0.930 . S
C1021 C1020 1.376 . S
C1021 C1022 1.388 . S
C1022 H1009 0.930 . S
C1022 C1021 1.388 . S
C1022 C1023 1.390 . S
C1023 C1022 1.390 . S
C1023 C1024 1.394 . S
C1023 C1029 1.465 . S
C1024 C1019 1.399 . S
C1024 C1023 1.394 . S
C1024 C1025 1.516 1_545 S
C1025 C1024 1.516 1_565 S
C1025 C1026 1.502 . S
C1025 C1027 1.561 . S
C1025 C1028 1.526 1_565 S
C1026 H1010 0.959 . S
C1026 H1011 0.959 . S
C1026 H1012 0.961 . S
C1026 C1025 1.502 . S
C1027 H1013 0.960 . S
C1027 H1014 0.961 . S
C1027 H1015 0.959 . S
C1027 C1025 1.561 . S
C1028 C1025 1.526 1_545 S
C1028 C1029 1.396 . S
C1028 C1033 1.389 1_545 S
C1029 C1023 1.465 . S
C1029 C1028 1.396 . S
C1029 C1030 1.399 . S
C1030 H1016 0.929 . S
C1030 C1029 1.399 . S
C1030 C1031 1.385 . S
C1031 H1017 0.931 . S
C1031 C1030 1.385 . S
C1031 C1032 1.389 . S
C1032 C1031 1.389 . S
C1032 C1033 1.386 1_545 S
C1033 H1018 0.930 . S
C1033 C1028 1.389 1_565 S
C1033 C1032 1.386 1_565 S
H1034 C1046 0.930 . S
H1035 C1048 0.930 . S
H1036 C1049 0.930 . S
H1037 C1053 0.959 . S
H1038 C1053 0.959 . S
H1039 C1053 0.961 . S
H1040 C1054 0.960 . S
H1041 C1054 0.961 . S
H1042 C1054 0.959 . S
H1043 C1057 0.929 . S
H1044 C1058 0.931 . S
H1045 C1060 0.930 . S
C1046 H1034 0.930 . S
C1046 C1047 1.399 . S
C1046 C1051 1.399 . S
C1047 C1046 1.399 . S
C1047 C1048 1.376 . S
C1048 H1035 0.930 . S
C1048 C1047 1.376 . S
C1048 C1049 1.388 . S
C1049 H1036 0.930 . S
C1049 C1048 1.388 . S
C1049 C1050 1.390 . S
C1050 C1049 1.390 . S
C1050 C1051 1.394 . S
C1050 C1056 1.465 . S
C1051 C1046 1.399 . S
C1051 C1050 1.394 . S
C1051 C1052 1.516 . S
C1052 C1051 1.516 . S
C1052 C1053 1.502 . S
C1052 C1054 1.561 . S
C1052 C1055 1.526 . S
C1053 H1037 0.959 . S
C1053 H1038 0.959 . S
C1053 H1039 0.961 . S
C1053 C1052 1.502 . S
C1054 H1040 0.960 . S
C1054 H1041 0.961 . S
C1054 H1042 0.959 . S
C1054 C1052 1.561 . S
C1055 C1052 1.526 . S
C1055 C1056 1.396 . S
C1055 C1060 1.390 . S
C1056 C1050 1.465 . S
C1056 C1055 1.396 . S
C1056 C1057 1.399 . S
C1057 H1043 0.929 . S
C1057 C1056 1.399 . S
C1057 C1058 1.385 . S
C1058 H1044 0.931 . S
C1058 C1057 1.385 . S
C1058 C1059 1.389 . S
C1059 C1058 1.389 . S
C1059 C1060 1.387 . S
C1060 H1045 0.930 . S
C1060 C1055 1.390 . S
C1060 C1059 1.387 . S
H1061 C1073 0.930 . S
H1062 C1075 0.930 . S
H1063 C1076 0.930 . S
H1064 C1080 0.959 . S
H1065 C1080 0.959 . S
H1066 C1080 0.961 . S
H1067 C1081 0.960 . S
H1068 C1081 0.961 . S
H1069 C1081 0.959 . S
H1070 C1084 0.929 . S
H1071 C1085 0.931 . S
H1072 C1087 0.930 . S
C1073 H1061 0.930 . S
C1073 C1074 1.399 . S
C1073 C1078 1.399 . S
C1074 C1073 1.399 . S
C1074 C1075 1.376 . S
C1075 H1062 0.930 . S
C1075 C1074 1.376 . S
C1075 C1076 1.388 . S
C1076 H1063 0.930 . S
C1076 C1075 1.388 . S
C1076 C1077 1.390 . S
C1077 C1076 1.390 . S
C1077 C1078 1.394 . S
C1077 C1083 1.465 . S
C1078 C1073 1.399 . S
C1078 C1077 1.394 . S
C1078 C1079 1.516 . S
C1079 C1078 1.516 . S
C1079 C1080 1.502 . S
C1079 C1081 1.561 . S
C1079 C1082 1.526 . S
C1080 H1064 0.959 . S
C1080 H1065 0.959 . S
C1080 H1066 0.961 . S
C1080 C1079 1.502 . S
C1081 H1067 0.960 . S
C1081 H1068 0.961 . S
C1081 H1069 0.959 . S
C1081 C1079 1.561 . S
C1082 C1079 1.526 . S
C1082 C1083 1.396 . S
C1082 C1087 1.390 . S
C1083 C1077 1.465 . S
C1083 C1082 1.396 . S
C1083 C1084 1.399 . S
C1084 H1070 0.929 . S
C1084 C1083 1.399 . S
C1084 C1085 1.385 . S
C1085 H1071 0.931 . S
C1085 C1084 1.385 . S
C1085 C1086 1.389 . S
C1086 C1085 1.389 . S
C1086 C1087 1.387 . S
C1087 H1072 0.930 . S
C1087 C1082 1.390 . S
C1087 C1086 1.387 . S
H1088 C1100 0.930 . S
H1089 C1102 0.930 . S
H1090 C1103 0.930 . S
H1091 C1107 0.959 . S
H1092 C1107 0.959 . S
H1093 C1107 0.961 . S
H1094 C1108 0.960 . S
H1095 C1108 0.961 . S
H1096 C1108 0.959 . S
H1097 C1111 0.929 . S
H1098 C1112 0.931 . S
H1099 C1114 0.930 . S
C1100 H1088 0.930 . S
C1100 C1101 1.399 . S
C1100 C1105 1.399 . S
C1101 C1100 1.399 . S
C1101 C1102 1.376 . S
C1102 H1089 0.930 . S
C1102 C1101 1.376 . S
C1102 C1103 1.388 . S
C1103 H1090 0.930 . S
C1103 C1102 1.388 . S
C1103 C1104 1.390 . S
C1104 C1103 1.390 . S
C1104 C1105 1.394 . S
C1104 C1110 1.465 . S
C1105 C1100 1.399 . S
C1105 C1104 1.394 . S
C1105 C1106 1.516 . S
C1106 C1105 1.516 . S
C1106 C1107 1.502 . S
C1106 C1108 1.561 . S
C1106 C1109 1.526 . S
C1107 H1091 0.959 . S
C1107 H1092 0.959 . S
C1107 H1093 0.961 . S
C1107 C1106 1.502 . S
C1108 H1094 0.960 . S
C1108 H1095 0.961 . S
C1108 H1096 0.959 . S
C1108 C1106 1.561 . S
C1109 C1106 1.526 . S
C1109 C1110 1.396 . S
C1109 C1114 1.390 . S
C1110 C1104 1.465 . S
C1110 C1109 1.396 . S
C1110 C1111 1.399 . S
C1111 H1097 0.929 . S
C1111 C1110 1.399 . S
C1111 C1112 1.385 . S
C1112 H1098 0.931 . S
C1112 C1111 1.385 . S
C1112 C1113 1.389 . S
C1113 C1112 1.389 . S
C1113 C1114 1.387 . S
C1114 H1099 0.930 . S
C1114 C1109 1.390 . S
C1114 C1113 1.387 . S
H1115 C1127 0.930 . S
H1116 C1129 0.930 . S
H1117 C1130 0.930 . S
H1118 C1134 0.959 . S
H1119 C1134 0.959 1_565 S
H1120 C1134 0.961 1_565 S
H1121 C1135 0.960 . S
H1122 C1135 0.961 1_655 S
H1123 C1135 0.959 1_545 S
H1124 C1138 0.929 . S
H1125 C1139 0.931 . S
H1126 C1141 0.930 . S
C1127 H1115 0.930 . S
C1127 C1128 1.399 . S
C1127 C1132 1.399 . S
C1128 C1127 1.399 . S
C1128 C1129 1.376 . S
C1129 H1116 0.930 . S
C1129 C1128 1.376 . S
C1129 C1130 1.388 . S
C1130 H1117 0.930 . S
C1130 C1129 1.388 . S
C1130 C1131 1.390 . S
C1131 C1130 1.390 . S
C1131 C1132 1.394 . S
C1131 C1137 1.465 . S
C1132 C1127 1.399 . S
C1132 C1131 1.394 . S
C1132 C1133 1.516 1_455 S
C1133 C1132 1.516 1_655 S
C1133 C1134 1.502 . S
C1133 C1135 1.561 1_645 S
C1133 C1136 1.526 . S
C1134 H1118 0.959 . S
C1134 H1119 0.959 1_545 S
C1134 H1120 0.961 1_545 S
C1134 C1133 1.502 . S
C1135 H1121 0.960 . S
C1135 H1122 0.961 1_455 S
C1135 H1123 0.959 1_565 S
C1135 C1133 1.561 1_465 S
C1136 C1133 1.526 . S
C1136 C1137 1.396 1_655 S
C1136 C1141 1.390 . S
C1137 C1131 1.465 . S
C1137 C1136 1.396 1_455 S
C1137 C1138 1.399 . S
C1138 H1124 0.929 . S
C1138 C1137 1.399 . S
C1138 C1139 1.385 1_455 S
C1139 H1125 0.931 . S
C1139 C1138 1.385 1_655 S
C1139 C1140 1.389 . S
C1140 C1139 1.389 . S
C1140 C1141 1.387 . S
C1141 H1126 0.930 . S
C1141 C1136 1.390 . S
C1141 C1140 1.387 . S
H1142 C1154 0.930 . S
H1143 C1156 0.930 . S
H1144 C1157 0.930 . S
H1145 C1161 0.959 . S
H1146 C1161 0.959 . S
H1147 C1161 0.961 . S
H1148 C1162 0.960 . S
H1149 C1162 0.961 . S
H1150 C1162 0.959 . S
H1151 C1165 0.929 . S
H1152 C1166 0.931 . S
H1153 C1168 0.930 . S
C1154 H1142 0.930 . S
C1154 C1155 1.399 . S
C1154 C1159 1.399 . S
C1155 C1154 1.399 . S
C1155 C1156 1.376 . S
C1156 H1143 0.930 . S
C1156 C1155 1.376 . S
C1156 C1157 1.388 . S
C1157 H1144 0.930 . S
C1157 C1156 1.388 . S
C1157 C1158 1.390 . S
C1158 C1157 1.390 . S
C1158 C1159 1.394 . S
C1158 C1164 1.465 . S
C1159 C1154 1.399 . S
C1159 C1158 1.394 . S
C1159 C1160 1.516 . S
C1160 C1159 1.516 . S
C1160 C1161 1.502 . S
C1160 C1162 1.561 . S
C1160 C1163 1.526 . S
C1161 H1145 0.959 . S
C1161 H1146 0.959 . S
C1161 H1147 0.961 . S
C1161 C1160 1.502 . S
C1162 H1148 0.960 . S
C1162 H1149 0.961 . S
C1162 H1150 0.959 . S
C1162 C1160 1.561 . S
C1163 C1160 1.526 . S
C1163 C1164 1.396 . S
C1163 C1168 1.390 . S
C1164 C1158 1.465 . S
C1164 C1163 1.396 . S
C1164 C1165 1.399 . S
C1165 H1151 0.929 . S
C1165 C1164 1.399 . S
C1165 C1166 1.385 . S
C1166 H1152 0.931 . S
C1166 C1165 1.385 . S
C1166 C1167 1.389 . S
C1167 C1166 1.389 . S
C1167 C1168 1.387 . S
C1168 H1153 0.930 . S
C1168 C1163 1.390 . S
C1168 C1167 1.387 . S
H1169 C1181 0.930 . S
H1170 C1183 0.930 . S
H1171 C1184 0.930 . S
H1172 C1188 0.959 . S
H1173 C1188 0.959 . S
H1174 C1188 0.961 . S
H1175 C1189 0.960 . S
H1176 C1189 0.961 . S
H1177 C1189 0.959 . S
H1178 C1192 0.929 . S
H1179 C1193 0.931 . S
H1180 C1195 0.930 . S
C1181 H1169 0.930 . S
C1181 C1182 1.399 . S
C1181 C1186 1.399 . S
C1182 C1181 1.399 . S
C1182 C1183 1.376 . S
C1183 H1170 0.930 . S
C1183 C1182 1.376 . S
C1183 C1184 1.388 . S
C1184 H1171 0.930 . S
C1184 C1183 1.388 . S
C1184 C1185 1.390 . S
C1185 C1184 1.390 . S
C1185 C1186 1.394 . S
C1185 C1191 1.465 . S
C1186 C1181 1.399 . S
C1186 C1185 1.394 . S
C1186 C1187 1.516 . S
C1187 C1186 1.516 . S
C1187 C1188 1.502 . S
C1187 C1189 1.561 . S
C1187 C1190 1.526 . S
C1188 H1172 0.959 . S
C1188 H1173 0.959 . S
C1188 H1174 0.961 . S
C1188 C1187 1.502 . S
C1189 H1175 0.960 . S
C1189 H1176 0.961 . S
C1189 H1177 0.959 . S
C1189 C1187 1.561 . S
C1190 C1187 1.526 . S
C1190 C1191 1.396 . S
C1190 C1195 1.390 . S
C1191 C1185 1.465 . S
C1191 C1190 1.396 . S
C1191 C1192 1.399 . S
C1192 H1178 0.929 . S
C1192 C1191 1.399 . S
C1192 C1193 1.385 . S
C1193 H1179 0.931 . S
C1193 C1192 1.385 . S
C1193 C1194 1.389 . S
C1194 C1193 1.389 . S
C1194 C1195 1.387 . S
C1195 H1180 0.930 . S
C1195 C1190 1.390 . S
C1195 C1194 1.387 . S
H1196 C1208 0.930 . S
H1197 C1210 0.930 . S
H1198 C1211 0.930 . S
H1199 C1215 0.959 . S
H1200 C1215 0.959 . S
H1201 C1215 0.961 . S
H1202 C1216 0.960 . S
H1203 C1216 0.961 . S
H1204 C1216 0.959 . S
H1205 C1219 0.929 . S
H1206 C1220 0.931 . S
H1207 C1222 0.930 . S
C1208 H1196 0.930 . S
C1208 C1209 1.399 . S
C1208 C1213 1.399 . S
C1209 C1208 1.399 . S
C1209 C1210 1.376 . S
C1210 H1197 0.930 . S
C1210 C1209 1.376 . S
C1210 C1211 1.388 . S
C1211 H1198 0.930 . S
C1211 C1210 1.388 . S
C1211 C1212 1.390 . S
C1212 C1211 1.390 . S
C1212 C1213 1.394 . S
C1212 C1218 1.465 . S
C1213 C1208 1.399 . S
C1213 C1212 1.394 . S
C1213 C1214 1.516 . S
C1214 C1213 1.516 . S
C1214 C1215 1.502 . S
C1214 C1216 1.561 . S
C1214 C1217 1.526 . S
C1215 H1199 0.959 . S
C1215 H1200 0.959 . S
C1215 H1201 0.961 . S
C1215 C1214 1.502 . S
C1216 H1202 0.960 . S
C1216 H1203 0.961 . S
C1216 H1204 0.959 . S
C1216 C1214 1.561 . S
C1217 C1214 1.526 . S
C1217 C1218 1.396 . S
C1217 C1222 1.390 . S
C1218 C1212 1.465 . S
C1218 C1217 1.396 . S
C1218 C1219 1.399 . S
C1219 H1205 0.929 . S
C1219 C1218 1.399 . S
C1219 C1220 1.385 . S
C1220 H1206 0.931 . S
C1220 C1219 1.385 . S
C1220 C1221 1.389 . S
C1221 C1220 1.389 . S
C1221 C1222 1.387 . S
C1222 H1207 0.930 . S
C1222 C1217 1.390 . S
C1222 C1221 1.387 . S
H1223 C1235 0.930 . S
H1224 C1237 0.930 . S
H1225 C1238 0.930 . S
H1226 C1242 0.959 . S
H1227 C1242 0.959 . S
H1228 C1242 0.961 . S
H1229 C1243 0.960 . S
H1230 C1243 0.961 . S
H1231 C1243 0.959 . S
H1232 C1246 0.929 . S
H1233 C1247 0.931 . S
H1234 C1249 0.930 . S
C1235 H1223 0.930 . S
C1235 C1236 1.399 1_455 S
C1235 C1240 1.399 1_554 S
C1236 C1235 1.399 1_655 S
C1236 C1237 1.376 1_554 S
C1237 H1224 0.930 . S
C1237 C1236 1.376 1_556 S
C1237 C1238 1.388 . S
C1238 H1225 0.930 . S
C1238 C1237 1.388 . S
C1238 C1239 1.390 . S
C1239 C1238 1.390 . S
C1239 C1240 1.394 1_655 S
C1239 C1245 1.465 . S
C1240 C1235 1.399 1_556 S
C1240 C1239 1.394 1_455 S
C1240 C1241 1.516 . S
C1241 C1240 1.516 . S
C1241 C1242 1.502 . S
C1241 C1243 1.561 1_556 S
C1241 C1244 1.526 . S
C1242 H1226 0.959 . S
C1242 H1227 0.959 . S
C1242 H1228 0.961 . S
C1242 C1241 1.502 . S
C1243 H1229 0.960 . S
C1243 H1230 0.961 . S
C1243 H1231 0.959 . S
C1243 C1241 1.561 1_554 S
C1244 C1241 1.526 . S
C1244 C1245 1.396 1_455 S
C1244 C1249 1.390 . S
C1245 C1239 1.465 . S
C1245 C1244 1.396 1_655 S
C1245 C1246 1.399 . S
C1246 H1232 0.929 . S
C1246 C1245 1.399 . S
C1246 C1247 1.385 . S
C1247 H1233 0.931 . S
C1247 C1246 1.385 . S
C1247 C1248 1.389 1_655 S
C1248 C1247 1.389 1_455 S
C1248 C1249 1.387 . S
C1249 H1234 0.930 . S
C1249 C1244 1.390 . S
C1249 C1248 1.387 . S
H1250 C1262 0.930 . S
H1251 C1264 0.930 . S
H1252 C1265 0.930 . S
H1253 C1269 0.959 . S
H1254 C1269 0.959 . S
H1255 C1269 0.961 . S
H1256 C1270 0.960 . S
H1257 C1270 0.961 . S
H1258 C1270 0.959 . S
H1259 C1273 0.929 . S
H1260 C1274 0.931 . S
H1261 C1276 0.930 . S
C1262 H1250 0.930 . S
C1262 C1263 1.399 . S
C1262 C1267 1.399 . S
C1263 C1262 1.399 . S
C1263 C1264 1.376 . S
C1264 H1251 0.930 . S
C1264 C1263 1.376 . S
C1264 C1265 1.388 . S
C1265 H1252 0.930 . S
C1265 C1264 1.388 . S
C1265 C1266 1.390 . S
C1266 C1265 1.390 . S
C1266 C1267 1.394 . S
C1266 C1272 1.465 . S
C1267 C1262 1.399 . S
C1267 C1266 1.394 . S
C1267 C1268 1.516 . S
C1268 C1267 1.516 . S
C1268 C1269 1.502 . S
C1268 C1270 1.561 . S
C1268 C1271 1.526 . S
C1269 H1253 0.959 . S
C1269 H1254 0.959 . S
C1269 H1255 0.961 . S
C1269 C1268 1.502 . S
C1270 H1256 0.960 . S
C1270 H1257 0.961 . S
C1270 H1258 0.959 . S
C1270 C1268 1.561 . S
C1271 C1268 1.526 . S
C1271 C1272 1.396 . S
C1271 C1276 1.390 . S
C1272 C1266 1.465 . S
C1272 C1271 1.396 . S
C1272 C1273 1.399 . S
C1273 H1259 0.929 . S
C1273 C1272 1.399 . S
C1273 C1274 1.385 . S
C1274 H1260 0.931 . S
C1274 C1273 1.385 . S
C1274 C1275 1.389 . S
C1275 C1274 1.389 . S
C1275 C1276 1.387 . S
C1276 H1261 0.930 . S
C1276 C1271 1.390 . S
C1276 C1275 1.387 . S
H1277 C1289 0.930 . S
H1278 C1291 0.930 . S
H1279 C1292 0.930 . S
H1280 C1296 0.959 . S
H1281 C1296 0.959 . S
H1282 C1296 0.961 1_554 S
H1283 C1297 0.960 . S
H1284 C1297 0.961 . S
H1285 C1297 0.959 . S
H1286 C1300 0.929 . S
H1287 C1301 0.931 . S
H1288 C1303 0.930 . S
C1289 H1277 0.930 . S
C1289 C1290 1.399 . S
C1289 C1294 1.399 1_554 S
C1290 C1289 1.399 . S
C1290 C1291 1.376 1_554 S
C1291 H1278 0.930 . S
C1291 C1290 1.376 1_556 S
C1291 C1292 1.388 . S
C1292 H1279 0.930 . S
C1292 C1291 1.388 . S
C1292 C1293 1.390 . S
C1293 C1292 1.390 . S
C1293 C1294 1.394 . S
C1293 C1299 1.465 . S
C1294 C1289 1.399 1_556 S
C1294 C1293 1.394 . S
C1294 C1295 1.516 . S
C1295 C1294 1.516 . S
C1295 C1296 1.502 1_455 S
C1295 C1297 1.561 1_556 S
C1295 C1298 1.526 . S
C1296 H1280 0.959 . S
C1296 H1281 0.959 . S
C1296 H1282 0.961 1_556 S
C1296 C1295 1.502 1_655 S
C1297 H1283 0.960 . S
C1297 H1284 0.961 . S
C1297 H1285 0.959 . S
C1297 C1295 1.561 1_554 S
C1298 C1295 1.526 . S
C1298 C1299 1.396 . S
C1298 C1303 1.390 . S
C1299 C1293 1.465 . S
C1299 C1298 1.396 . S
C1299 C1300 1.399 . S
C1300 H1286 0.929 . S
C1300 C1299 1.399 . S
C1300 C1301 1.385 . S
C1301 H1287 0.931 . S
C1301 C1300 1.385 . S
C1301 C1302 1.389 . S
C1302 C1301 1.389 . S
C1302 C1303 1.387 . S
C1303 H1288 0.930 . S
C1303 C1298 1.390 . S
C1303 C1302 1.387 . S
H1304 C1316 0.930 . S
H1305 C1318 0.930 . S
H1306 C1319 0.930 . S
H1307 C1323 0.959 . S
H1308 C1323 0.959 . S
H1309 C1323 0.961 . S
H1310 C1324 0.960 . S
H1311 C1324 0.961 . S
H1312 C1324 0.959 . S
H1313 C1327 0.929 . S
H1314 C1328 0.931 . S
H1315 C1330 0.930 . S
C1316 H1304 0.930 . S
C1316 C1317 1.399 . S
C1316 C1321 1.399 . S
C1317 C1316 1.399 . S
C1317 C1318 1.376 . S
C1318 H1305 0.930 . S
C1318 C1317 1.376 . S
C1318 C1319 1.388 . S
C1319 H1306 0.930 . S
C1319 C1318 1.388 . S
C1319 C1320 1.390 . S
C1320 C1319 1.390 . S
C1320 C1321 1.394 . S
C1320 C1326 1.465 . S
C1321 C1316 1.399 . S
C1321 C1320 1.394 . S
C1321 C1322 1.516 . S
C1322 C1321 1.516 . S
C1322 C1323 1.502 . S
C1322 C1324 1.561 . S
C1322 C1325 1.526 . S
C1323 H1307 0.959 . S
C1323 H1308 0.959 . S
C1323 H1309 0.961 . S
C1323 C1322 1.502 . S
C1324 H1310 0.960 . S
C1324 H1311 0.961 . S
C1324 H1312 0.959 . S
C1324 C1322 1.561 . S
C1325 C1322 1.526 . S
C1325 C1326 1.396 . S
C1325 C1330 1.390 . S
C1326 C1320 1.465 . S
C1326 C1325 1.396 . S
C1326 C1327 1.399 . S
C1327 H1313 0.929 . S
C1327 C1326 1.399 . S
C1327 C1328 1.385 . S
C1328 H1314 0.931 . S
C1328 C1327 1.385 . S
C1328 C1329 1.389 . S
C1329 C1328 1.389 . S
C1329 C1330 1.387 . S
C1330 H1315 0.930 . S
C1330 C1325 1.390 . S
C1330 C1329 1.387 . S
H1331 C1343 0.930 . S
H1332 C1345 0.930 . S
H1333 C1346 0.930 . S
H1334 C1350 0.959 . S
H1335 C1350 0.959 . S
H1336 C1350 0.961 . S
H1337 C1351 0.960 . S
H1338 C1351 0.961 . S
H1339 C1351 0.959 . S
H1340 C1354 0.929 . S
H1341 C1355 0.931 . S
H1342 C1357 0.930 . S
C1343 H1331 0.930 . S
C1343 C1344 1.399 . S
C1343 C1348 1.399 . S
C1344 C1343 1.399 . S
C1344 C1345 1.376 . S
C1345 H1332 0.930 . S
C1345 C1344 1.376 . S
C1345 C1346 1.388 . S
C1346 H1333 0.930 . S
C1346 C1345 1.388 . S
C1346 C1347 1.390 . S
C1347 C1346 1.390 . S
C1347 C1348 1.394 . S
C1347 C1353 1.465 . S
C1348 C1343 1.399 . S
C1348 C1347 1.394 . S
C1348 C1349 1.516 . S
C1349 C1348 1.516 . S
C1349 C1350 1.502 . S
C1349 C1351 1.561 . S
C1349 C1352 1.526 . S
C1350 H1334 0.959 . S
C1350 H1335 0.959 . S
C1350 H1336 0.961 . S
C1350 C1349 1.502 . S
C1351 H1337 0.960 . S
C1351 H1338 0.961 . S
C1351 H1339 0.959 . S
C1351 C1349 1.561 . S
C1352 C1349 1.526 . S
C1352 C1353 1.396 . S
C1352 C1357 1.390 . S
C1353 C1347 1.465 . S
C1353 C1352 1.396 . S
C1353 C1354 1.399 . S
C1354 H1340 0.929 . S
C1354 C1353 1.399 . S
C1354 C1355 1.385 . S
C1355 H1341 0.931 . S
C1355 C1354 1.385 . S
C1355 C1356 1.389 . S
C1356 C1355 1.389 . S
C1356 C1357 1.387 . S
C1357 H1342 0.930 . S
C1357 C1352 1.390 . S
C1357 C1356 1.387 . S
H1358 C1370 0.930 . S
H1359 C1372 0.930 . S
H1360 C1373 0.930 . S
H1361 C1377 0.959 . S
H1362 C1377 0.959 . S
H1363 C1377 0.961 . S
H1364 C1378 0.960 . S
H1365 C1378 0.961 . S
H1366 C1378 0.959 . S
H1367 C1381 0.929 . S
H1368 C1382 0.931 . S
H1369 C1384 0.930 . S
C1370 H1358 0.930 . S
C1370 C1371 1.399 . S
C1370 C1375 1.399 . S
C1371 C1370 1.399 . S
C1371 C1372 1.376 . S
C1372 H1359 0.930 . S
C1372 C1371 1.376 . S
C1372 C1373 1.388 . S
C1373 H1360 0.930 . S
C1373 C1372 1.388 . S
C1373 C1374 1.390 . S
C1374 C1373 1.390 . S
C1374 C1375 1.394 . S
C1374 C1380 1.465 . S
C1375 C1370 1.399 . S
C1375 C1374 1.394 . S
C1375 C1376 1.516 . S
C1376 C1375 1.516 . S
C1376 C1377 1.502 . S
C1376 C1378 1.561 . S
C1376 C1379 1.526 . S
C1377 H1361 0.959 . S
C1377 H1362 0.959 . S
C1377 H1363 0.961 . S
C1377 C1376 1.502 . S
C1378 H1364 0.960 . S
C1378 H1365 0.961 . S
C1378 H1366 0.959 . S
C1378 C1376 1.561 . S
C1379 C1376 1.526 . S
C1379 C1380 1.396 . S
C1379 C1384 1.390 . S
C1380 C1374 1.465 . S
C1380 C1379 1.396 . S
C1380 C1381 1.399 . S
C1381 H1367 0.929 . S
C1381 C1380 1.399 . S
C1381 C1382 1.385 . S
C1382 H1368 0.931 . S
C1382 C1381 1.385 . S
C1382 C1383 1.389 . S
C1383 C1382 1.389 . S
C1383 C1384 1.387 . S
C1384 H1369 0.930 . S
C1384 C1379 1.390 . S
C1384 C1383 1.387 . S
H1385 C1397 0.930 . S
H1386 C1399 0.930 . S
H1387 C1400 0.930 . S
H1388 C1404 0.959 . S
H1389 C1404 0.959 . S
H1390 C1404 0.961 . S
H1391 C1405 0.960 . S
H1392 C1405 0.961 . S
H1393 C1405 0.959 . S
H1394 C1408 0.929 . S
H1395 C1409 0.931 . S
H1396 C1411 0.930 . S
C1397 H1385 0.930 . S
C1397 C1398 1.399 . S
C1397 C1402 1.399 . S
C1398 C1397 1.399 . S
C1398 C1399 1.376 1_554 S
C1399 H1386 0.930 . S
C1399 C1398 1.376 1_556 S
C1399 C1400 1.388 1_556 S
C1400 H1387 0.930 . S
C1400 C1399 1.388 1_554 S
C1400 C1401 1.390 . S
C1401 C1400 1.390 . S
C1401 C1402 1.394 . S
C1401 C1407 1.465 . S
C1402 C1397 1.399 . S
C1402 C1401 1.394 . S
C1402 C1403 1.516 . S
C1403 C1402 1.516 . S
C1403 C1404 1.502 . S
C1403 C1405 1.561 . S
C1403 C1406 1.526 . S
C1404 H1388 0.959 . S
C1404 H1389 0.959 . S
C1404 H1390 0.961 . S
C1404 C1403 1.502 . S
C1405 H1391 0.960 . S
C1405 H1392 0.961 . S
C1405 H1393 0.959 . S
C1405 C1403 1.561 . S
C1406 C1403 1.526 . S
C1406 C1407 1.396 . S
C1406 C1411 1.390 . S
C1407 C1401 1.465 . S
C1407 C1406 1.396 . S
C1407 C1408 1.399 . S
C1408 H1394 0.929 . S
C1408 C1407 1.399 . S
C1408 C1409 1.385 . S
C1409 H1395 0.931 . S
C1409 C1408 1.385 . S
C1409 C1410 1.389 . S
C1410 C1409 1.389 . S
C1410 C1411 1.387 . S
C1411 H1396 0.930 . S
C1411 C1406 1.390 . S
C1411 C1410 1.387 . S
H1412 C1424 0.930 . S
H1413 C1426 0.930 . S
H1414 C1427 0.930 . S
H1415 C1431 0.959 . S
H1416 C1431 0.959 . S
H1417 C1431 0.961 . S
H1418 C1432 0.960 . S
H1419 C1432 0.961 . S
H1420 C1432 0.959 . S
H1421 C1435 0.929 . S
H1422 C1436 0.931 . S
H1423 C1438 0.930 . S
C1424 H1412 0.930 . S
C1424 C1425 1.399 . S
C1424 C1429 1.399 . S
C1425 C1424 1.399 . S
C1425 C1426 1.376 . S
C1426 H1413 0.930 . S
C1426 C1425 1.376 . S
C1426 C1427 1.388 . S
C1427 H1414 0.930 . S
C1427 C1426 1.388 . S
C1427 C1428 1.390 . S
C1428 C1427 1.390 . S
C1428 C1429 1.394 . S
C1428 C1434 1.465 . S
C1429 C1424 1.399 . S
C1429 C1428 1.394 . S
C1429 C1430 1.516 . S
C1430 C1429 1.516 . S
C1430 C1431 1.502 . S
C1430 C1432 1.561 . S
C1430 C1433 1.526 . S
C1431 H1415 0.959 . S
C1431 H1416 0.959 . S
C1431 H1417 0.961 . S
C1431 C1430 1.502 . S
C1432 H1418 0.960 . S
C1432 H1419 0.961 . S
C1432 H1420 0.959 . S
C1432 C1430 1.561 . S
C1433 C1430 1.526 . S
C1433 C1434 1.396 . S
C1433 C1438 1.390 . S
C1434 C1428 1.465 . S
C1434 C1433 1.396 . S
C1434 C1435 1.399 . S
C1435 H1421 0.929 . S
C1435 C1434 1.399 . S
C1435 C1436 1.385 . S
C1436 H1422 0.931 . S
C1436 C1435 1.385 . S
C1436 C1437 1.389 . S
C1437 C1436 1.389 . S
C1437 C1438 1.387 . S
C1438 H1423 0.930 . S
C1438 C1433 1.390 . S
C1438 C1437 1.387 . S
H1439 C1451 0.930 . S
H1440 C1453 0.930 . S
H1441 C1454 0.930 . S
H1442 C1458 0.959 . S
H1443 C1458 0.959 . S
H1444 C1458 0.961 . S
H1445 C1459 0.960 . S
H1446 C1459 0.961 . S
H1447 C1459 0.959 . S
H1448 C1462 0.929 . S
H1449 C1463 0.931 . S
H1450 C1465 0.930 . S
C1451 H1439 0.930 . S
C1451 C1452 1.399 . S
C1451 C1456 1.399 . S
C1452 C1451 1.399 . S
C1452 C1453 1.376 . S
C1453 H1440 0.930 . S
C1453 C1452 1.376 . S
C1453 C1454 1.388 . S
C1454 H1441 0.930 . S
C1454 C1453 1.388 . S
C1454 C1455 1.390 . S
C1455 C1454 1.390 . S
C1455 C1456 1.394 . S
C1455 C1461 1.465 . S
C1456 C1451 1.399 . S
C1456 C1455 1.394 . S
C1456 C1457 1.516 . S
C1457 C1456 1.516 . S
C1457 C1458 1.502 . S
C1457 C1459 1.561 . S
C1457 C1460 1.526 . S
C1458 H1442 0.959 . S
C1458 H1443 0.959 . S
C1458 H1444 0.961 . S
C1458 C1457 1.502 . S
C1459 H1445 0.960 . S
C1459 H1446 0.961 . S
C1459 H1447 0.959 . S
C1459 C1457 1.561 . S
C1460 C1457 1.526 . S
C1460 C1461 1.396 . S
C1460 C1465 1.390 . S
C1461 C1455 1.465 . S
C1461 C1460 1.396 . S
C1461 C1462 1.399 . S
C1462 H1448 0.929 . S
C1462 C1461 1.399 . S
C1462 C1463 1.385 . S
C1463 H1449 0.931 . S
C1463 C1462 1.385 . S
C1463 C1464 1.389 . S
C1464 C1463 1.389 . S
C1464 C1465 1.387 . S
C1465 H1450 0.930 . S
C1465 C1460 1.390 . S
C1465 C1464 1.387 . S
H1466 C1478 0.930 . S
H1467 C1480 0.930 . S
H1468 C1481 0.930 . S
H1469 C1485 0.959 . S
H1470 C1485 0.959 . S
H1471 C1485 0.961 . S
H1472 C1486 0.960 . S
H1473 C1486 0.961 . S
H1474 C1486 0.959 . S
H1475 C1489 0.929 . S
H1476 C1490 0.931 . S
H1477 C1492 0.930 . S
C1478 H1466 0.930 . S
C1478 C1479 1.399 . S
C1478 C1483 1.399 . S
C1479 C1478 1.399 . S
C1479 C1480 1.376 . S
C1480 H1467 0.930 . S
C1480 C1479 1.376 . S
C1480 C1481 1.388 . S
C1481 H1468 0.930 . S
C1481 C1480 1.388 . S
C1481 C1482 1.390 . S
C1482 C1481 1.390 . S
C1482 C1483 1.394 . S
C1482 C1488 1.465 . S
C1483 C1478 1.399 . S
C1483 C1482 1.394 . S
C1483 C1484 1.516 . S
C1484 C1483 1.516 . S
C1484 C1485 1.502 . S
C1484 C1486 1.561 . S
C1484 C1487 1.526 . S
C1485 H1469 0.959 . S
C1485 H1470 0.959 . S
C1485 H1471 0.961 . S
C1485 C1484 1.502 . S
C1486 H1472 0.960 . S
C1486 H1473 0.961 . S
C1486 H1474 0.959 . S
C1486 C1484 1.561 . S
C1487 C1484 1.526 . S
C1487 C1488 1.396 . S
C1487 C1492 1.390 . S
C1488 C1482 1.465 . S
C1488 C1487 1.396 . S
C1488 C1489 1.399 . S
C1489 H1475 0.929 . S
C1489 C1488 1.399 . S
C1489 C1490 1.385 . S
C1490 H1476 0.931 . S
C1490 C1489 1.385 . S
C1490 C1491 1.389 . S
C1491 C1490 1.389 . S
C1491 C1492 1.387 . S
C1492 H1477 0.930 . S
C1492 C1487 1.390 . S
C1492 C1491 1.387 . S
H1493 C1505 0.930 . S
H1494 C1507 0.930 . S
H1495 C1508 0.930 . S
H1496 C1512 0.959 . S
H1497 C1512 0.959 . S
H1498 C1512 0.961 . S
H1499 C1513 0.960 . S
H1500 C1513 0.961 . S
H1501 C1513 0.959 . S
H1502 C1516 0.929 . S
H1503 C1517 0.931 . S
H1504 C1519 0.930 . S
C1505 H1493 0.930 . S
C1505 C1506 1.399 . S
C1505 C1510 1.399 . S
C1506 C1505 1.399 . S
C1506 C1507 1.376 . S
C1507 H1494 0.930 . S
C1507 C1506 1.376 . S
C1507 C1508 1.388 . S
C1508 H1495 0.930 . S
C1508 C1507 1.388 . S
C1508 C1509 1.390 . S
C1509 C1508 1.390 . S
C1509 C1510 1.394 . S
C1509 C1515 1.465 . S
C1510 C1505 1.399 . S
C1510 C1509 1.394 . S
C1510 C1511 1.516 . S
C1511 C1510 1.516 . S
C1511 C1512 1.502 . S
C1511 C1513 1.561 . S
C1511 C1514 1.526 . S
C1512 H1496 0.959 . S
C1512 H1497 0.959 . S
C1512 H1498 0.961 . S
C1512 C1511 1.502 . S
C1513 H1499 0.960 . S
C1513 H1500 0.961 . S
C1513 H1501 0.959 . S
C1513 C1511 1.561 . S
C1514 C1511 1.526 . S
C1514 C1515 1.396 . S
C1514 C1519 1.390 . S
C1515 C1509 1.465 . S
C1515 C1514 1.396 . S
C1515 C1516 1.399 . S
C1516 H1502 0.929 . S
C1516 C1515 1.399 . S
C1516 C1517 1.385 . S
C1517 H1503 0.931 . S
C1517 C1516 1.385 . S
C1517 C1518 1.389 . S
C1518 C1517 1.389 . S
C1518 C1519 1.387 . S
C1519 H1504 0.930 . S
C1519 C1514 1.390 . S
C1519 C1518 1.387 . S
H1520 C1532 0.930 . S
H1521 C1534 0.930 . S
H1522 C1535 0.930 . S
H1523 C1539 0.959 . S
H1524 C1539 0.959 . S
H1525 C1539 0.961 . S
H1526 C1540 0.960 . S
H1527 C1540 0.961 . S
H1528 C1540 0.959 . S
H1529 C1543 0.929 . S
H1530 C1544 0.931 . S
H1531 C1546 0.930 . S
C1532 H1520 0.930 . S
C1532 C1533 1.399 . S
C1532 C1537 1.399 . S
C1533 C1532 1.399 . S
C1533 C1534 1.376 1_556 S
C1534 H1521 0.930 . S
C1534 C1533 1.376 1_554 S
C1534 C1535 1.388 . S
C1535 H1522 0.930 . S
C1535 C1534 1.388 . S
C1535 C1536 1.390 . S
C1536 C1535 1.390 . S
C1536 C1537 1.394 1_554 S
C1536 C1542 1.465 . S
C1537 C1532 1.399 . S
C1537 C1536 1.394 1_556 S
C1537 C1538 1.516 . S
C1538 C1537 1.516 . S
C1538 C1539 1.502 . S
C1538 C1540 1.561 . S
C1538 C1541 1.526 . S
C1539 H1523 0.959 . S
C1539 H1524 0.959 . S
C1539 H1525 0.961 . S
C1539 C1538 1.502 . S
C1540 H1526 0.960 . S
C1540 H1527 0.961 . S
C1540 H1528 0.959 . S
C1540 C1538 1.561 . S
C1541 C1538 1.526 . S
C1541 C1542 1.396 1_556 S
C1541 C1546 1.390 . S
C1542 C1536 1.465 . S
C1542 C1541 1.396 1_554 S
C1542 C1543 1.399 . S
C1543 H1529 0.929 . S
C1543 C1542 1.399 . S
C1543 C1544 1.385 . S
C1544 H1530 0.931 . S
C1544 C1543 1.385 . S
C1544 C1545 1.389 1_554 S
C1545 C1544 1.389 1_556 S
C1545 C1546 1.387 . S
C1546 H1531 0.930 . S
C1546 C1541 1.390 . S
C1546 C1545 1.387 . S
H1547 C1559 0.930 . S
H1548 C1561 0.930 . S
H1549 C1562 0.930 . S
H1550 C1566 0.959 . S
H1551 C1566 0.959 . S
H1552 C1566 0.961 . S
H1553 C1567 0.960 . S
H1554 C1567 0.961 . S
H1555 C1567 0.959 . S
H1556 C1570 0.929 . S
H1557 C1571 0.931 . S
H1558 C1573 0.930 . S
C1559 H1547 0.930 . S
C1559 C1560 1.399 . S
C1559 C1564 1.399 . S
C1560 C1559 1.399 . S
C1560 C1561 1.376 . S
C1561 H1548 0.930 . S
C1561 C1560 1.376 . S
C1561 C1562 1.388 . S
C1562 H1549 0.930 . S
C1562 C1561 1.388 . S
C1562 C1563 1.390 . S
C1563 C1562 1.390 . S
C1563 C1564 1.394 . S
C1563 C1569 1.465 . S
C1564 C1559 1.399 . S
C1564 C1563 1.394 . S
C1564 C1565 1.516 . S
C1565 C1564 1.516 . S
C1565 C1566 1.502 . S
C1565 C1567 1.561 . S
C1565 C1568 1.526 . S
C1566 H1550 0.959 . S
C1566 H1551 0.959 . S
C1566 H1552 0.961 . S
C1566 C1565 1.502 . S
C1567 H1553 0.960 . S
C1567 H1554 0.961 . S
C1567 H1555 0.959 . S
C1567 C1565 1.561 . S
C1568 C1565 1.526 . S
C1568 C1569 1.396 . S
C1568 C1573 1.390 . S
C1569 C1563 1.465 . S
C1569 C1568 1.396 . S
C1569 C1570 1.399 . S
C1570 H1556 0.929 . S
C1570 C1569 1.399 . S
C1570 C1571 1.385 . S
C1571 H1557 0.931 . S
C1571 C1570 1.385 . S
C1571 C1572 1.389 . S
C1572 C1571 1.389 . S
C1572 C1573 1.387 . S
C1573 H1558 0.930 . S
C1573 C1568 1.390 . S
C1573 C1572 1.387 . S
H1574 C1586 0.930 . S
H1575 C1588 0.930 . S
H1576 C1589 0.930 . S
H1577 C1593 0.959 . S
H1578 C1593 0.959 1_556 S
H1579 C1593 0.966 . S
H1580 C1594 0.960 . S
H1581 C1594 0.961 . S
H1582 C1594 0.959 . S
H1583 C1597 0.929 . S
H1584 C1598 0.931 . S
H1585 C1600 0.930 . S
C1586 H1574 0.930 . S
C1586 C1587 1.399 . S
C1586 C1591 1.399 . S
C1587 C1586 1.399 . S
C1587 C1588 1.376 . S
C1588 H1575 0.930 . S
C1588 C1587 1.376 . S
C1588 C1589 1.388 . S
C1589 H1576 0.930 . S
C1589 C1588 1.388 . S
C1589 C1590 1.390 . S
C1590 C1589 1.390 . S
C1590 C1591 1.394 . S
C1590 C1596 1.465 . S
C1591 C1586 1.399 . S
C1591 C1590 1.394 . S
C1591 C1592 1.516 1_554 S
C1592 C1591 1.516 1_556 S
C1592 C1593 1.502 1_556 S
C1592 C1594 1.561 . S
C1592 C1595 1.526 1_556 S
C1593 H1577 0.959 . S
C1593 H1578 0.959 1_554 S
C1593 H1579 0.966 . S
C1593 C1592 1.502 1_554 S
C1594 H1580 0.960 . S
C1594 H1581 0.961 . S
C1594 H1582 0.959 . S
C1594 C1592 1.561 . S
C1595 C1592 1.526 1_554 S
C1595 C1596 1.396 . S
C1595 C1600 1.390 1_554 S
C1596 C1590 1.465 . S
C1596 C1595 1.396 . S
C1596 C1597 1.399 . S
C1597 H1583 0.929 . S
C1597 C1596 1.399 . S
C1597 C1598 1.385 . S
C1598 H1584 0.931 . S
C1598 C1597 1.385 . S
C1598 C1599 1.389 . S
C1599 C1598 1.389 . S
C1599 C1600 1.387 1_554 S
C1600 H1585 0.930 . S
C1600 C1595 1.390 1_556 S
C1600 C1599 1.387 1_556 S
H1601 C1613 0.930 . S
H1602 C1615 0.930 . S
H1603 C1616 0.930 . S
H1604 C1620 0.959 . S
H1605 C1620 0.959 . S
H1606 C1620 0.961 . S
H1607 C1621 0.960 . S
H1608 C1621 0.961 . S
H1609 C1621 0.959 . S
H1610 C1624 0.929 . S
H1611 C1625 0.931 . S
H1612 C1627 0.930 . S
C1613 H1601 0.930 . S
C1613 C1614 1.399 . S
C1613 C1618 1.399 . S
C1614 C1613 1.399 . S
C1614 C1615 1.376 . S
C1615 H1602 0.930 . S
C1615 C1614 1.376 . S
C1615 C1616 1.388 1_545 S
C1616 H1603 0.930 . S
C1616 C1615 1.388 1_565 S
C1616 C1617 1.390 . S
C1617 C1616 1.390 . S
C1617 C1618 1.394 1_565 S
C1617 C1623 1.465 . S
C1618 C1613 1.399 . S
C1618 C1617 1.394 1_545 S
C1618 C1619 1.516 1_545 S
C1619 C1618 1.516 1_565 S
C1619 C1620 1.502 1_565 S
C1619 C1621 1.561 . S
C1619 C1622 1.526 . S
C1620 H1604 0.959 . S
C1620 H1605 0.959 . S
C1620 H1606 0.961 . S
C1620 C1619 1.502 1_545 S
C1621 H1607 0.960 . S
C1621 H1608 0.961 . S
C1621 H1609 0.959 . S
C1621 C1619 1.561 . S
C1622 C1619 1.526 . S
C1622 C1623 1.396 . S
C1622 C1627 1.390 . S
C1623 C1617 1.465 . S
C1623 C1622 1.396 . S
C1623 C1624 1.399 . S
C1624 H1610 0.929 . S
C1624 C1623 1.399 . S
C1624 C1625 1.385 . S
C1625 H1611 0.931 . S
C1625 C1624 1.385 . S
C1625 C1626 1.389 . S
C1626 C1625 1.389 . S
C1626 C1627 1.387 . S
C1627 H1612 0.930 . S
C1627 C1622 1.390 . S
C1627 C1626 1.387 . S
C357 C186 1.518 1_556 S
C345 C60 1.529 . S
C384 C199 1.395 . S
C372 C76 1.399 . S
C399 C81 1.619 . S
C411 C212 1.576 . S
C438 C225 1.549 . S
C426 C48 1.611 . S
C465 C233 1.483 . S
C453 C115 1.476 . S
C492 C246 1.533 . S
C480 C136 1.546 . S
C507 C131 1.384 . S
C519 C259 1.380 . S
C546 C272 1.468 . S
C534 C104 1.510 . S
C561 C126 1.428 . S
C573 C290 1.444 . S
C600 C301 1.424 . S
C588 C103 1.445 . S
C615 C120 1.366 . S
C627 C285 1.348 . S
C654 C293 1.412 . S
C642 C142 1.431 . S
C669 C82 1.468 . S
C681 C316 1.479 . S
C696 C54 1.765 . S
C708 C306 1.714 . S
C723 C65 1.454 . S
C735 C311 1.432 . S
C750 C71 1.314 . S
C762 C314 1.285 . S
C777 C37 1.531 . S
C789 C223 1.496 . S
C804 C158 1.859 . S
C816 C215 1.867 . S
C843 C184 1.445 . S
C831 C169 1.469 . S
C870 C189 1.245 . S
C858 C98 1.256 . S
C885 C49 1.707 1_545 S
C897 C236 1.669 . S
C924 C275 1.471 . S
C912 C125 1.477 . S
C951 C228 1.397 . S
C939 C109 1.384 . S
C978 C254 1.659 . S
C966 C137 1.739 . S
C1005 C264 1.522 . S
C993 C159 1.530 . S
C1020 C175 1.396 . S
C1032 C277 1.391 . S
C1047 C92 1.615 . S
C1059 C238 1.615 . S
C1086 C251 1.547 . S
C1074 C147 1.612 . S
C1101 C38 1.469 . S
C1113 C207 1.470 . S
C1140 C220 1.536 . S
C1128 C4 1.545 . S
C1167 C181 1.361 . S
C1155 C21 1.391 . S
C1194 C194 1.482 . S
C1182 C27 1.502 . S
C1209 C16 1.463 . S
C1221 C303 1.390 . S
C1236 C26 1.448 . S
C1248 C288 1.413 . S
C1263 C43 1.375 . S
C1275 C298 1.321 . S
C1290 C10 1.422 . S
C1302 C280 1.420 . S
C1329 C329 1.456 . S
C1317 C93 1.463 . S
C1356 C319 1.759 . S
C1344 C153 1.757 . S
C1383 C324 1.427 . S
C1371 C164 1.456 . S
C1398 C170 1.348 1_554 S
C1410 C327 1.325 . S
C1425 C114 1.516 . S
C1437 C249 1.526 . S
C1464 C241 1.856 . S
C1452 C59 1.862 . S
C1491 C262 1.457 . S
C1479 C70 1.465 . S
C1518 C267 1.278 . S
C1506 C87 1.248 . S
C1533 C148 1.730 . S
C1545 C210 1.669 . S
C1572 C197 1.473 . S
C1560 C15 1.475 . S
C1587 C32 1.389 . S
C1599 C202 1.391 1_554 S
C1626 C176 1.661 . S
C1614 C5 1.742 . S
