# Generated by pormake.
# Topology anh, (6,3)-cn, num edge types: 1
# Building blocks:
#     Node 0, Type 0, BuildingBlock: MIFKUJ_clean_sbu_0, # of connection points: 6
#     Node 1, Type 0, BuildingBlock: MIFKUJ_clean_sbu_0, # of connection points: 6
#     Node 2, Type 0, BuildingBlock: MIFKUJ_clean_sbu_0, # of connection points: 6
#     Node 3, Type 1, BuildingBlock: VETTIZ_charged_linker_0, # of connection points: 3
#     Node 4, Type 1, BuildingBlock: VETTIZ_charged_linker_0, # of connection points: 3
#     Node 5, Type 1, BuildingBlock: VETTIZ_charged_linker_0, # of connection points: 3
#     Node 6, Type 1, BuildingBlock: VETTIZ_charged_linker_0, # of connection points: 3
#     Node 7, Type 1, BuildingBlock: VETTIZ_charged_linker_0, # of connection points: 3
#     Node 8, Type 1, BuildingBlock: VETTIZ_charged_linker_0, # of connection points: 3
#     Edge 9, Type (0, 1), BuildingBlock: AJUNOK_clean_linker_0, # of connection points: 2
#     Edge 10, Type (0, 1), BuildingBlock: AJUNOK_clean_linker_0, # of connection points: 2
#     Edge 11, Type (0, 1), BuildingBlock: AJUNOK_clean_linker_0, # of connection points: 2
#     Edge 12, Type (0, 1), BuildingBlock: AJUNOK_clean_linker_0, # of connection points: 2
#     Edge 13, Type (0, 1), BuildingBlock: AJUNOK_clean_linker_0, # of connection points: 2
#     Edge 14, Type (0, 1), BuildingBlock: AJUNOK_clean_linker_0, # of connection points: 2
#     Edge 15, Type (0, 1), BuildingBlock: AJUNOK_clean_linker_0, # of connection points: 2
#     Edge 16, Type (0, 1), BuildingBlock: AJUNOK_clean_linker_0, # of connection points: 2
#     Edge 17, Type (0, 1), BuildingBlock: AJUNOK_clean_linker_0, # of connection points: 2
#     Edge 18, Type (0, 1), BuildingBlock: AJUNOK_clean_linker_0, # of connection points: 2
#     Edge 19, Type (0, 1), BuildingBlock: AJUNOK_clean_linker_0, # of connection points: 2
#     Edge 20, Type (0, 1), BuildingBlock: AJUNOK_clean_linker_0, # of connection points: 2
#     Edge 21, Type (0, 1), BuildingBlock: AJUNOK_clean_linker_0, # of connection points: 2
#     Edge 22, Type (0, 1), BuildingBlock: AJUNOK_clean_linker_0, # of connection points: 2
#     Edge 23, Type (0, 1), BuildingBlock: AJUNOK_clean_linker_0, # of connection points: 2
#     Edge 24, Type (0, 1), BuildingBlock: AJUNOK_clean_linker_0, # of connection points: 2
#     Edge 25, Type (0, 1), BuildingBlock: AJUNOK_clean_linker_0, # of connection points: 2
#     Edge 26, Type (0, 1), BuildingBlock: AJUNOK_clean_linker_0, # of connection points: 2
# Relax obj value: 0.138
# Max RMSD: 0.187
# Mean RMSD: 0.152
data_MOF--net-anh--node1-MIFKUJ_clean_sbu_0--node2-VETTIZ_charged_linker_0--edge1-AJUNOK_clean_linker_0
_symmetry_space_group_name_H-M    P1
_symmetry_Int_Tables_number       1
_symmetry_cell_setting            triclinic
loop_
_symmetry_equiv_pos_as_xyz
'x, y, z'
_cell_length_a     29.396036
_cell_length_b     29.408651
_cell_length_c     50.05383
_cell_angle_alpha  93.81405
_cell_angle_beta   90.758791
_cell_angle_gamma 119.44152
loop_
_atom_site_label
_atom_site_type_symbol
_atom_site_fract_x
_atom_site_fract_y
_atom_site_fract_z
_atom_type_partial_charge
Zn0 Zn 0.0868 0.57205 0.16709 0.0
Zn1 Zn 0.92871 0.4752 0.16405 0.0
C2 C 0.17202 0.5591 0.18598 0.0
O3 O 0.17859 0.59908 0.20221 0.0
C4 C 0.88231 0.54536 0.16705 0.0
O5 O 0.92055 0.57492 0.15211 0.0
O6 O 0.13584 0.64748 0.16253 0.0
O7 O 0.04007 0.54818 0.13368 0.0
O8 O 0.95423 0.4975 0.12758 0.0
C9 C 0.17189 0.65959 0.14613 0.0
O10 O 0.17728 0.62221 0.13332 0.0
O11 O 0.13223 0.53748 0.16949 0.0
C12 C 0.84135 0.37858 0.17345 0.0
O13 O 0.8362 0.40968 0.19167 0.0
O14 O 0.8808 0.39706 0.15909 0.0
O15 O 0.98618 0.48887 0.19126 0.0
O16 O 0.04992 0.56906 0.20081 0.0
O17 O 0.88168 0.50538 0.17567 0.0
C18 C 0.99886 0.52566 0.11839 0.0
C19 C 0.00786 0.5301 0.20716 0.0
Zn20 Zn 0.57481 0.08702 0.49149 0.0
Zn21 Zn 0.50769 0.92147 0.49545 0.0
C22 C 0.67557 0.16917 0.50779 0.0
O23 O 0.6473 0.17632 0.52592 0.0
C24 C 0.41423 0.82508 0.49462 0.0
O25 O 0.44308 0.81251 0.47936 0.0
O26 O 0.546 0.1343 0.4833 0.0
O27 O 0.5433 0.02124 0.46443 0.0
O28 O 0.50771 0.93513 0.45694 0.0
C29 C 0.56737 0.16978 0.46716 0.0
O30 O 0.60665 0.17269 0.45369 0.0
O31 O 0.65297 0.13021 0.49032 0.0
C32 C 0.54072 0.85677 0.51918 0.0
O33 O 0.50218 0.8494 0.53453 0.0
O34 O 0.55351 0.88944 0.50154 0.0
O35 O 0.53457 0.99174 0.51292 0.0
O36 O 0.55921 0.06986 0.53007 0.0
O37 O 0.43321 0.87227 0.50434 0.0
C38 C 0.52371 0.98 0.44815 0.0
C39 C 0.5409 0.02189 0.53336 0.0
Zn40 Zn 0.57037 0.50405 0.82994 0.0
Zn41 Zn 0.47421 0.56288 0.82417 0.0
C42 C 0.53296 0.39575 0.83466 0.0
O43 O 0.53894 0.41257 0.8601 0.0
C44 C 0.49739 0.66703 0.84113 0.0
O45 O 0.45979 0.64026 0.85702 0.0
O46 O 0.64602 0.52586 0.83326 0.0
O47 O 0.56382 0.55122 0.80515 0.0
O48 O 0.48592 0.53063 0.78987 0.0
C49 C 0.66676 0.52193 0.81171 0.0
O50 O 0.63896 0.50664 0.7889 0.0
O51 O 0.53897 0.42721 0.8169 0.0
C52 C 0.36037 0.49818 0.81993 0.0
O53 O 0.36851 0.45802 0.8189 0.0
O54 O 0.39914 0.54432 0.82205 0.0
O55 O 0.4881 0.5403 0.85957 0.0
O56 O 0.54301 0.50961 0.8657 0.0
O57 O 0.51332 0.6424 0.82546 0.0
C58 C 0.52895 0.53165 0.7863 0.0
C59 C 0.51049 0.52294 0.87458 0.0
C60 C 0.63476 0.13519 0.17005 0.0
C61 C 0.68341 0.16854 0.18359 0.0
C62 C 0.69257 0.16032 0.20999 0.0
C63 C 0.60294 0.09132 0.21065 0.0
C64 C 0.59525 0.09602 0.18388 0.0
C65 C 0.54098 0.056 0.17297 0.0
H66 H 0.30176 0.85931 0.19848 0.0
C67 C 0.55276 0.05237 0.22037 0.0
C68 C 0.51633 0.03078 0.19838 0.0
H69 H 0.36592 0.90163 0.12108 0.0
H70 H 0.44429 0.97615 0.14261 0.0
H71 H 0.39593 0.86414 0.22338 0.0
H72 H 0.34823 0.981 0.2272 0.0
H73 H 0.37573 0.98436 0.25912 0.0
H74 H 0.31835 0.92456 0.24607 0.0
H75 H 0.34352 0.85924 0.24321 0.0
H76 H 0.41029 0.89276 0.25642 0.0
C77 C 0.54541 0.01693 0.15219 0.0
C78 C 0.51383 0.08458 0.16141 0.0
C79 C 0.53565 0.02845 0.32002 0.0
C80 C 0.49318 0.99657 0.33502 0.0
C81 C 0.44302 0.96675 0.32223 0.0
C82 C 0.43559 0.96692 0.29459 0.0
C83 C 0.47884 0.99704 0.27957 0.0
C84 C 0.52759 0.02798 0.29236 0.0
C85 C 0.56873 0.05798 0.27316 0.0
C86 C 0.53673 0.03892 0.24666 0.0
C87 C 0.48431 0.00324 0.2506 0.0
C88 C 0.61119 0.04125 0.27444 0.0
C89 C 0.58929 0.11707 0.28062 0.0
C90 C 0.33191 0.88565 0.18607 0.0
C91 C 0.3279 0.87505 0.15817 0.0
C92 C 0.36852 0.90921 0.14268 0.0
C93 C 0.41398 0.95182 0.15519 0.0
C94 C 0.4189 0.95937 0.18337 0.0
C95 C 0.37777 0.92702 0.19824 0.0
C96 C 0.39121 0.93698 0.22784 0.0
C97 C 0.44794 0.9793 0.22833 0.0
C98 C 0.46381 0.9929 0.20233 0.0
C99 C 0.38471 0.88581 0.23853 0.0
C100 C 0.35652 0.95746 0.24097 0.0
H101 H 0.66132 0.11879 0.24404 0.0
H102 H 0.62728 0.1408 0.14962 0.0
H103 H 0.51806 0.11683 0.17599 0.0
H104 H 0.47145 0.05837 0.15711 0.0
H105 H 0.53144 0.10188 0.14257 0.0
H106 H 0.58405 0.01878 0.15413 0.0
H107 H 0.5405 0.02514 0.13132 0.0
H108 H 0.51642 0.97566 0.155 0.0
H109 H 0.57458 0.05176 0.32945 0.0
H110 H 0.40967 0.94264 0.33361 0.0
H111 H 0.39665 0.94264 0.28593 0.0
H112 H 0.59518 0.00116 0.28122 0.0
H113 H 0.64443 0.06838 0.2886 0.0
H114 H 0.62625 0.03884 0.25455 0.0
H115 H 0.55628 0.12443 0.28479 0.0
H116 H 0.60992 0.142 0.26448 0.0
H117 H 0.61593 0.13105 0.29891 0.0
H118 H 0.72986 0.18602 0.22068 0.0
C119 C 0.65254 0.12191 0.22363 0.0
C120 C 0.6025 0.66466 0.51557 0.0
C121 C 0.61628 0.71196 0.53088 0.0
C122 C 0.63774 0.72028 0.55718 0.0
C123 C 0.62074 0.63103 0.55476 0.0
C124 C 0.60632 0.62497 0.52783 0.0
C125 C 0.59378 0.57169 0.51525 0.0
H126 H 0.54171 0.32469 0.53432 0.0
C127 C 0.61087 0.58009 0.56303 0.0
C128 C 0.59658 0.54529 0.53992 0.0
H129 H 0.56531 0.39494 0.45903 0.0
H130 H 0.57997 0.47667 0.48251 0.0
H131 H 0.63763 0.41963 0.56627 0.0
H132 H 0.47453 0.37439 0.55996 0.0
H133 H 0.49646 0.4021 0.59289 0.0
H134 H 0.49869 0.3437 0.58144 0.0
H135 H 0.58735 0.36297 0.58042 0.0
H136 H 0.61811 0.42655 0.59871 0.0
C137 C 0.63685 0.57891 0.49565 0.0
C138 C 0.53804 0.54416 0.50177 0.0
C139 C 0.59189 0.55021 0.66182 0.0
C140 C 0.57344 0.50511 0.67579 0.0
C141 C 0.56051 0.45695 0.66165 0.0
C142 C 0.56571 0.45383 0.63386 0.0
C143 C 0.58324 0.49924 0.62005 0.0
C144 C 0.59619 0.54639 0.6341 0.0
C145 C 0.61168 0.59013 0.61616 0.0
C146 C 0.60566 0.56133 0.58884 0.0
C147 C 0.58891 0.50824 0.59127 0.0
C148 C 0.66928 0.63257 0.62368 0.0
C149 C 0.57187 0.61006 0.61921 0.0
C150 C 0.54885 0.35727 0.5228 0.0
C151 C 0.55137 0.35332 0.49483 0.0
C152 C 0.56271 0.39716 0.48059 0.0
C153 C 0.57159 0.44445 0.49422 0.0
C154 C 0.56986 0.44791 0.52233 0.0
C155 C 0.55861 0.40467 0.53608 0.0
C156 C 0.56086 0.41583 0.56592 0.0
C157 C 0.57786 0.47364 0.56796 0.0
C158 C 0.58208 0.49208 0.5424 0.0
C159 C 0.60288 0.4055 0.57872 0.0
C160 C 0.50502 0.3822 0.57579 0.0
H161 H 0.65463 0.68764 0.58969 0.0
H162 H 0.58693 0.65807 0.49508 0.0
H163 H 0.50982 0.54565 0.5159 0.0
H164 H 0.52369 0.50241 0.49559 0.0
H165 H 0.53675 0.56355 0.4837 0.0
H166 H 0.67314 0.61734 0.49999 0.0
H167 H 0.62352 0.57704 0.47453 0.0
H168 H 0.64947 0.54935 0.49739 0.0
H169 H 0.60106 0.58751 0.67216 0.0
H170 H 0.54612 0.42174 0.67213 0.0
H171 H 0.55521 0.41608 0.62416 0.0
H172 H 0.69044 0.61701 0.63527 0.0
H173 H 0.67149 0.66639 0.63612 0.0
H174 H 0.69224 0.64691 0.60571 0.0
H175 H 0.53113 0.5766 0.61715 0.0
H176 H 0.57437 0.6365 0.60407 0.0
H177 H 0.57738 0.6313 0.63924 0.0
H178 H 0.64878 0.75661 0.56916 0.0
C179 C 0.64025 0.68003 0.56918 0.0
C180 C 0.13705 0.50647 0.83721 0.0
C181 C 0.17441 0.49853 0.8508 0.0
C182 C 0.17744 0.5022 0.87897 0.0
C183 C 0.10668 0.52162 0.87999 0.0
C184 C 0.10313 0.51749 0.85226 0.0
C185 C 0.05922 0.52493 0.84157 0.0
H186 H 0.85784 0.56838 0.8696 0.0
C187 C 0.06685 0.53408 0.88981 0.0
C188 C 0.03885 0.53639 0.86748 0.0
H189 H 0.89438 0.52575 0.79203 0.0
H190 H 0.97354 0.53132 0.81171 0.0
H191 H 0.86746 0.49035 0.89618 0.0
H192 H 0.9812 0.65285 0.89384 0.0
H193 H 0.98165 0.6371 0.92713 0.0
H194 H 0.92222 0.62942 0.91164 0.0
H195 H 0.86673 0.53982 0.91881 0.0
H196 H 0.90303 0.50734 0.92693 0.0
C197 C 0.01821 0.47288 0.82609 0.0
C198 C 0.08247 0.57238 0.82442 0.0
C199 C 0.04553 0.54893 0.98988 0.0
C200 C 0.00942 0.55655 0.00483 0.0
C201 C 0.97383 0.56769 0.9918 0.0
C202 C 0.97346 0.57019 0.964 0.0
C203 C 0.00837 0.56037 0.94907 0.0
C204 C 0.04414 0.55078 0.96207 0.0
C205 C 0.07721 0.5399 0.9429 0.0
C206 C 0.0543 0.54307 0.91619 0.0
C207 C 0.01433 0.55524 0.92 0.0
C208 C 0.06793 0.48394 0.94643 0.0
C209 C 0.13469 0.58427 0.94828 0.0
C210 C 0.88372 0.56158 0.85677 0.0
C211 C 0.87048 0.54656 0.82947 0.0
C212 C 0.90431 0.53738 0.81322 0.0
C213 C 0.94959 0.53996 0.82475 0.0
C214 C 0.95999 0.5509 0.85272 0.0
C215 C 0.92754 0.56231 0.86805 0.0
C216 C 0.94026 0.56765 0.89751 0.0
C217 C 0.98591 0.55761 0.89763 0.0
C218 C 0.99788 0.54823 0.87144 0.0
C219 C 0.89208 0.52452 0.91075 0.0
C220 C 0.95693 0.62455 0.90834 0.0
H221 H 0.14871 0.51659 0.91504 0.0
H222 H 0.13432 0.50399 0.8155 0.0
H223 H 0.11813 0.60566 0.83484 0.0
H224 H 0.05535 0.58741 0.82078 0.0
H225 H 0.09372 0.56217 0.80476 0.0
H226 H 0.01648 0.43854 0.83514 0.0
H227 H 0.02791 0.47105 0.80482 0.0
H228 H 0.97799 0.46653 0.82686 0.0
H229 H 0.07294 0.53979 -0.00048 0.0
H230 H 0.94602 0.57403 0.00316 0.0
H231 H 0.94516 0.57846 0.95519 0.0
H232 H 0.0276 0.45787 0.95266 0.0
H233 H 0.09564 0.48473 0.962 0.0
H234 H 0.07078 0.46383 0.92762 0.0
H235 H 0.13662 0.62247 0.95387 0.0
H236 H 0.1582 0.59108 0.93043 0.0
H237 H 0.15411 0.57611 0.96502 0.0
H238 H 0.20673 0.49716 0.8897 0.0
C239 C 0.14401 0.51393 0.89363 0.0
C240 C 0.91286 0.37782 0.48822 0.0
C241 C 0.86832 0.33473 0.47509 0.0
C242 C 0.85929 0.33349 0.44732 0.0
C243 C 0.93663 0.41792 0.44602 0.0
C244 C 0.94678 0.41897 0.47318 0.0
C245 C 0.99682 0.46782 0.48315 0.0
H246 H 0.20216 0.70068 0.45406 0.0
C247 C 0.97735 0.46678 0.43619 0.0
C248 C 0.01307 0.49655 0.45773 0.0
H249 H 0.18151 0.62638 0.52779 0.0
H250 H 0.0965 0.55522 0.51035 0.0
H251 H 0.17688 0.60611 0.41965 0.0
H252 H 0.07705 0.66967 0.44094 0.0
H253 H 0.06689 0.65129 0.40625 0.0
H254 H 0.13113 0.69991 0.41975 0.0
H255 H 0.1776 0.65803 0.40247 0.0
H256 H 0.13397 0.58996 0.39161 0.0
C257 C 0.03645 0.45122 0.4927 0.0
C258 C 0.98386 0.49842 0.50518 0.0
C259 C 0.96812 0.49733 0.33814 0.0
C260 C 0.00206 0.53727 0.32254 0.0
C261 C 0.04538 0.58215 0.33539 0.0
C262 C 0.05573 0.58637 0.36307 0.0
C263 C 0.02295 0.54493 0.37815 0.0
C264 C 0.97979 0.5016 0.36569 0.0
C265 C 0.9505 0.46056 0.38469 0.0
C266 C 0.98361 0.48624 0.41054 0.0
C267 C 0.02566 0.53561 0.40661 0.0
C268 C 0.95165 0.41001 0.37464 0.0
C269 C 0.89499 0.45404 0.38646 0.0
C270 C 0.17847 0.66988 0.46673 0.0
C271 C 0.19743 0.66926 0.49239 0.0
C272 C 0.16688 0.62762 0.50804 0.0
C273 C 0.11807 0.58629 0.49776 0.0
C274 C 0.10073 0.58622 0.47137 0.0
C275 C 0.13093 0.62786 0.45647 0.0
C276 C 0.11012 0.61935 0.42802 0.0
C277 C 0.06206 0.56591 0.42816 0.0
C278 C 0.05613 0.54661 0.45361 0.0
C279 C 0.1516 0.61861 0.4093 0.0
C280 C 0.09572 0.66234 0.42322 0.0
H281 H 0.88324 0.37135 0.41179 0.0
H282 H 0.92083 0.37944 0.50955 0.0
H283 H 0.94929 0.50156 0.49858 0.0
H284 H 0.01598 0.53893 0.50983 0.0
H285 H 0.97457 0.4782 0.52397 0.0
H286 H 0.03062 0.41525 0.4808 0.0
H287 H 0.03205 0.44277 0.5141 0.0
H288 H 0.07741 0.4809 0.48986 0.0
H289 H 0.9338 0.46285 0.32908 0.0
H290 H 0.07242 0.61342 0.32388 0.0
H291 H 0.08967 0.62121 0.3715 0.0
H292 H 0.9874 0.41937 0.36356 0.0
H293 H 0.91729 0.38393 0.36086 0.0
H294 H 0.95344 0.38772 0.39118 0.0
H295 H 0.89617 0.49223 0.38513 0.0
H296 H 0.87743 0.4406 0.40576 0.0
H297 H 0.8682 0.42656 0.36983 0.0
H298 H 0.82494 0.30104 0.43689 0.0
C299 C 0.893 0.37469 0.43278 0.0
C300 C 0.54188 0.91196 0.81955 0.0
C301 C 0.54523 0.86854 0.80794 0.0
C302 C 0.5485 0.86331 0.77999 0.0
C303 C 0.53996 0.93988 0.77515 0.0
C304 C 0.53982 0.94761 0.80267 0.0
C305 C 0.53681 0.99672 0.8107 0.0
H306 H 0.50385 0.19563 0.76745 0.0
C307 C 0.53242 0.97982 0.7628 0.0
C308 C 0.53078 0.01398 0.78335 0.0
H309 H 0.5395 0.1796 0.84901 0.0
H310 H 0.53683 0.09716 0.83476 0.0
H311 H 0.58578 0.17292 0.74303 0.0
H312 H 0.42117 0.07625 0.75169 0.0
H313 H 0.43309 0.05517 0.72029 0.0
H314 H 0.4468 0.12204 0.72657 0.0
H315 H 0.5374 0.17595 0.7222 0.0
H316 H 0.56203 0.13192 0.71328 0.0
C317 C 0.58886 0.03683 0.82587 0.0
C318 C 0.48841 0.98198 0.82734 0.0
C319 C 0.50954 0.96796 0.66123 0.0
C320 C 0.49957 0.99796 0.64383 0.0
C321 C 0.49175 0.0389 0.65466 0.0
C322 C 0.49448 0.0503 0.68235 0.0
C323 C 0.50577 0.02091 0.69954 0.0
C324 C 0.51229 0.98006 0.68895 0.0
C325 C 0.52349 0.95296 0.71038 0.0
C326 C 0.52373 0.98515 0.73553 0.0
C327 C 0.51359 0.02482 0.72895 0.0
C328 C 0.57814 0.95838 0.70609 0.0
C329 C 0.47755 0.89574 0.70895 0.0
C330 C 0.51163 0.17482 0.78232 0.0
C331 C 0.52324 0.19479 0.80918 0.0
C332 C 0.53116 0.16529 0.82803 0.0
C333 C 0.53013 0.11784 0.8197 0.0
C334 C 0.52132 0.10007 0.79227 0.0
C335 C 0.51188 0.12867 0.77431 0.0
C336 C 0.50551 0.10674 0.74589 0.0
C337 C 0.51348 0.0605 0.74931 0.0
C338 C 0.52225 0.05576 0.77647 0.0
C339 C 0.54951 0.14884 0.73005 0.0
C340 C 0.44896 0.08937 0.73531 0.0
H341 H 0.54773 0.89133 0.74256 0.0
H342 H 0.54028 0.91752 0.84105 0.0
H343 H 0.45327 0.94785 0.81707 0.0
H344 H 0.47921 0.01406 0.83009 0.0
H345 H 0.49428 0.97125 0.84746 0.0
H346 H 0.6226 0.03701 0.81596 0.0
H347 H 0.58978 0.02704 0.84686 0.0
H348 H 0.59615 0.07737 0.82608 0.0
H349 H 0.51599 0.93645 0.65343 0.0
H350 H 0.4855 0.06355 0.64165 0.0
H351 H 0.48895 0.08249 0.68918 0.0
H352 H 0.60384 0.99424 0.69595 0.0
H353 H 0.57492 0.92429 0.69348 0.0
H354 H 0.60003 0.96312 0.72518 0.0
H355 H 0.43974 0.89405 0.70387 0.0
H356 H 0.47156 0.87786 0.7282 0.0
H357 H 0.48311 0.87056 0.6933 0.0
H358 H 0.55075 0.83032 0.77048 0.0
C359 C 0.54604 0.89858 0.76367 0.0
C360 C 0.64655 0.54002 0.15825 0.0
C361 C 0.68978 0.54336 0.14458 0.0
C362 C 0.68662 0.53737 0.11642 0.0
C363 C 0.59995 0.52723 0.11541 0.0
C364 C 0.60188 0.53219 0.14312 0.0
C365 C 0.55217 0.52914 0.15342 0.0
H366 H 0.31607 0.51137 0.12139 0.0
C367 C 0.54974 0.52089 0.10524 0.0
C368 C 0.52085 0.52176 0.12725 0.0
H369 H 0.38271 0.52685 0.20113 0.0
H370 H 0.4578 0.52501 0.18222 0.0
H371 H 0.41798 0.59189 0.09737 0.0
H372 H 0.34291 0.42424 0.09704 0.0
H373 H 0.36694 0.43955 0.06504 0.0
H374 H 0.31876 0.45642 0.07658 0.0
H375 H 0.36008 0.5489 0.07682 0.0
H376 H 0.42452 0.56876 0.06528 0.0
C377 C 0.56686 0.58151 0.16957 0.0
C378 C 0.52502 0.48106 0.16991 0.0
C379 C 0.51747 0.51107 0.00469 0.0
C380 C 0.47614 0.50738 0.98857 0.0
C381 C 0.43116 0.50234 0.0008 0.0
C382 C 0.42813 0.50249 0.02875 0.0
C383 C 0.47048 0.50758 0.04467 0.0
C384 C 0.51377 0.51102 0.03249 0.0
C385 C 0.55497 0.516 0.05235 0.0
C386 C 0.52971 0.51589 0.07862 0.0
C387 C 0.48044 0.51102 0.07402 0.0
C388 C 0.60525 0.56916 0.04939 0.0
C389 C 0.56143 0.46685 0.04729 0.0
C390 C 0.34627 0.51352 0.13493 0.0
C391 C 0.34329 0.51933 0.16276 0.0
C392 C 0.38427 0.52301 0.17954 0.0
C393 C 0.42778 0.52188 0.16854 0.0
C394 C 0.43048 0.51727 0.14048 0.0
C395 C 0.38956 0.51266 0.12436 0.0
C396 C 0.39805 0.50872 0.09509 0.0
C397 C 0.45087 0.51178 0.09598 0.0
C398 C 0.47044 0.51694 0.12256 0.0
C399 C 0.39997 0.55666 0.08275 0.0
C400 C 0.35438 0.45471 0.08255 0.0
H401 H 0.64302 0.52518 0.0805 0.0
H402 H 0.64788 0.54418 0.17994 0.0
H403 H 0.52457 0.44643 0.15923 0.0
H404 H 0.48377 0.46937 0.17307 0.0
H405 H 0.54598 0.48877 0.18976 0.0
H406 H 0.59484 0.61513 0.15864 0.0
H407 H 0.58571 0.58418 0.18944 0.0
H408 H 0.53292 0.58725 0.17269 0.0
H409 H 0.55264 0.51514 -0.00409 0.0
H410 H 0.39828 0.49822 0.98874 0.0
H411 H 0.39309 0.49911 0.03686 0.0
H412 H 0.59553 0.59895 0.04285 0.0
H413 H 0.63048 0.56485 0.03427 0.0
H414 H 0.6285 0.58717 0.06849 0.0
H415 H 0.52391 0.43195 0.03968 0.0
H416 H 0.57226 0.45502 0.06578 0.0
H417 H 0.59083 0.47302 0.03218 0.0
H418 H 0.71885 0.53877 0.10552 0.0
C419 C 0.64223 0.5292 0.10187 0.0
C420 C 0.20626 0.50095 0.16726 0.0
C421 C 0.21415 0.54476 0.1841 0.0
C422 C 0.24746 0.49091 0.16204 0.0
C423 C 0.2985 0.52438 0.17329 0.0
H424 H 0.16836 0.4751 0.15722 0.0
H425 H 0.23972 0.45773 0.14817 0.0
S426 S 0.33942 0.64204 0.22052 0.0
N427 N 0.27651 0.61968 0.21377 0.0
N428 N 0.35383 0.60132 0.20335 0.0
C429 C 0.30634 0.56656 0.19137 0.0
C430 C 0.26428 0.57667 0.19687 0.0
C431 C 0.7616 0.19952 0.48718 0.0
C432 C 0.73056 0.21006 0.50489 0.0
C433 C 0.80949 0.23981 0.47973 0.0
C434 C 0.82805 0.29213 0.48964 0.0
H435 H 0.74756 0.16033 0.47782 0.0
H436 H 0.83046 0.2305 0.46466 0.0
S437 S 0.76562 0.33985 0.53935 0.0
N438 N 0.72509 0.27612 0.53465 0.0
N439 N 0.81485 0.35181 0.52012 0.0
C440 C 0.79989 0.30267 0.50914 0.0
C441 C 0.7511 0.26159 0.51688 0.0
C442 C 0.56121 0.75409 0.82546 0.0
C443 C 0.51507 0.72332 0.83846 0.0
C444 C 0.57388 0.8041 0.81828 0.0
C445 C 0.54057 0.8251 0.82344 0.0
H446 H 0.58656 0.73851 0.81965 0.0
H447 H 0.60826 0.82506 0.80691 0.0
S448 S 0.4183 0.76328 0.85986 0.0
N449 N 0.4389 0.72014 0.85892 0.0
N450 N 0.46214 0.81342 0.84461 0.0
C451 C 0.49661 0.79666 0.83834 0.0
C452 C 0.48392 0.74587 0.84597 0.0
C453 C 0.83397 0.59258 0.15588 0.0
C454 C 0.83488 0.55162 0.16851 0.0
C455 C 0.78697 0.59267 0.15087 0.0
C456 C 0.73886 0.55195 0.15833 0.0
H457 H 0.86925 0.62308 0.14813 0.0
H458 H 0.78772 0.62279 0.13923 0.0
S459 S 0.72033 0.4408 0.19634 0.0
N460 N 0.78384 0.4734 0.19207 0.0
N461 N 0.69558 0.47343 0.18203 0.0
C462 C 0.73965 0.51372 0.17333 0.0
C463 C 0.78764 0.51359 0.17857 0.0
C464 C 0.32134 0.79969 0.50313 0.0
C465 C 0.35993 0.78512 0.49926 0.0
C466 C 0.26828 0.76161 0.50317 0.0
C467 C 0.25243 0.70791 0.50014 0.0
H468 H 0.33178 0.84063 0.50442 0.0
H469 H 0.23924 0.77413 0.50412 0.0
S470 S 0.33849 0.64945 0.49271 0.0
N471 N 0.37891 0.71331 0.4947 0.0
N472 N 0.27932 0.64205 0.49528 0.0
C473 C 0.29086 0.69295 0.49825 0.0
C474 C 0.34465 0.73152 0.49769 0.0
C475 C 0.50145 0.30205 0.84313 0.0
C476 C 0.52913 0.34431 0.82732 0.0
C477 C 0.50063 0.25407 0.83773 0.0
C478 C 0.52819 0.24702 0.81659 0.0
H479 H 0.47992 0.30599 0.85968 0.0
H480 H 0.47753 0.22204 0.84984 0.0
S481 S 0.61331 0.34825 0.77201 0.0
N482 N 0.58838 0.37741 0.79122 0.0
N483 N 0.58843 0.28834 0.78162 0.0
C484 C 0.5578 0.28983 0.8014 0.0
C485 C 0.55781 0.33814 0.80658 0.0
C486 C 0.52668 0.76676 0.52066 0.0
C487 C 0.56155 0.82039 0.51906 0.0
C488 C 0.5449 0.73107 0.52198 0.0
C489 C 0.59867 0.748 0.52232 0.0
H490 H 0.485 0.75236 0.52131 0.0
H491 H 0.51695 0.6904 0.52436 0.0
S492 S 0.70573 0.88375 0.51721 0.0
N493 N 0.65191 0.88835 0.51613 0.0
N494 N 0.68651 0.82123 0.51993 0.0
C495 C 0.63387 0.80119 0.51986 0.0
C496 C 0.61518 0.83745 0.51784 0.0
C497 C 0.76012 0.56144 0.79997 0.0
C498 C 0.71747 0.52407 0.81312 0.0
C499 C 0.80998 0.56653 0.80356 0.0
C500 C 0.81762 0.53355 0.81989 0.0
H501 H 0.75543 0.58837 0.788 0.0
H502 H 0.84299 0.59796 0.79477 0.0
S503 S 0.71618 0.42417 0.85477 0.0
N504 N 0.68452 0.45026 0.84046 0.0
N505 N 0.77759 0.4587 0.84663 0.0
C506 C 0.77421 0.49354 0.83132 0.0
C507 C 0.72414 0.48909 0.8281 0.0
C508 C 0.19649 0.75377 0.15239 0.0
C509 C 0.20906 0.71533 0.143 0.0
C510 C 0.23401 0.80695 0.15422 0.0
C511 C 0.28545 0.82355 0.14686 0.0
H512 H 0.15819 0.74263 0.15971 0.0
H513 H 0.22387 0.83498 0.16342 0.0
S514 S 0.33629 0.73933 0.11745 0.0
N515 N 0.27475 0.69806 0.12308 0.0
N516 N 0.34562 0.79822 0.1271 0.0
C517 C 0.29721 0.78607 0.13511 0.0
C518 C 0.25889 0.73179 0.1331 0.0
C519 C 0.59399 0.26311 0.46081 0.0
C520 C 0.55604 0.21371 0.4683 0.0
C521 C 0.58992 0.30805 0.46738 0.0
C522 C 0.54769 0.30502 0.48154 0.0
H523 H 0.62897 0.26788 0.45151 0.0
H524 H 0.62197 0.34582 0.46314 0.0
S525 S 0.43258 0.18395 0.50063 0.0
N526 N 0.47085 0.16356 0.48688 0.0
N527 N 0.46333 0.2481 0.49908 0.0
C528 C 0.50708 0.25535 0.48678 0.0
C529 C 0.51121 0.20965 0.48019 0.0
C530 C 0.29845 0.53269 0.81647 0.0
C531 C 0.30729 0.49126 0.82213 0.0
C532 C 0.25234 0.53237 0.82342 0.0
C533 C 0.21384 0.49083 0.83646 0.0
H534 H 0.32855 0.56695 0.80788 0.0
H535 H 0.24861 0.56658 0.82044 0.0
S536 S 0.21426 0.3699 0.85248 0.0
N537 N 0.27071 0.40485 0.83876 0.0
N538 N 0.1843 0.40489 0.85218 0.0
C539 C 0.22017 0.44739 0.84031 0.0
C540 C 0.26687 0.44738 0.833 0.0
C541 C 0.74813 0.31033 0.17203 0.0
C542 C 0.80064 0.32323 0.16979 0.0
C543 C 0.70893 0.25839 0.17335 0.0
C544 C 0.72126 0.21793 0.17302 0.0
H545 H 0.73759 0.34087 0.17397 0.0
H546 H 0.66945 0.25038 0.17686 0.0
S547 S 0.85177 0.23048 0.16467 0.0
N548 N 0.86226 0.29107 0.16454 0.0
N549 N 0.78837 0.1931 0.16813 0.0
C550 C 0.77297 0.22978 0.16904 0.0
C551 C 0.81282 0.28266 0.1671 0.0
C552 C 0.95847 0.50546 0.07171 0.0
C553 C 0.0026 0.53467 0.08948 0.0
C554 C 0.96078 0.51337 0.04438 0.0
C555 C 0.00734 0.5505 0.03382 0.0
H556 H 0.92184 0.47598 0.07886 0.0
H557 H 0.92616 0.48965 0.03131 0.0
S558 S 0.13279 0.63989 0.07151 0.0
N559 N 0.09365 0.60452 0.09431 0.0
N560 N 0.09764 0.61838 0.04285 0.0
C561 C 0.05147 0.58045 0.05118 0.0
C562 C 0.04918 0.57279 0.07904 0.0
C563 C 0.53381 0.03277 0.40903 0.0
C564 C 0.51724 0.98365 0.41906 0.0
C565 C 0.52631 0.03687 0.38176 0.0
C566 C 0.50154 0.99199 0.36364 0.0
H567 H 0.55239 0.06838 0.42233 0.0
H568 H 0.53924 0.0753 0.37486 0.0
S569 S 0.45365 0.85463 0.37889 0.0
N570 N 0.47673 0.88925 0.40804 0.0
N571 N 0.46289 0.89749 0.35698 0.0
C572 C 0.48558 0.94287 0.37317 0.0
C573 C 0.49339 0.93856 0.40082 0.0
C574 C 0.50373 0.48363 0.74077 0.0
C575 C 0.54238 0.52246 0.75889 0.0
C576 C 0.5148 0.47643 0.71415 0.0
C577 C 0.56469 0.50832 0.70472 0.0
H578 H 0.4645 0.4591 0.74713 0.0
H579 H 0.48359 0.44711 0.7006 0.0
S580 S 0.67979 0.61473 0.7442 0.0
N581 N 0.63273 0.59283 0.76555 0.0
N582 N 0.65353 0.57859 0.71568 0.0
C583 C 0.60396 0.54641 0.72278 0.0
C584 C 0.5928 0.55369 0.74984 0.0
C585 C 0.55801 0.9977 0.57721 0.0
C586 C 0.5236 0.00261 0.55953 0.0
C587 C 0.5478 0.99188 0.6044 0.0
C588 C 0.50298 0.99109 0.61454 0.0
H589 H 0.59455 0.00176 0.57037 0.0
H590 H 0.57697 0.99183 0.61783 0.0
S591 S 0.39718 0.99431 0.57501 0.0
N592 N 0.44081 0.00071 0.55293 0.0
N593 N 0.42073 0.98863 0.60399 0.0
C594 C 0.46633 0.99168 0.59645 0.0
C595 C 0.47694 0.99785 0.56888 0.0
C596 C 0.50843 0.48394 0.91769 0.0
C597 C 0.4987 0.51807 0.90329 0.0
C598 C 0.49957 0.47969 0.94503 0.0
C599 C 0.48092 0.50961 0.95916 0.0
H600 H 0.52316 0.46027 0.90781 0.0
H601 H 0.50777 0.45297 0.95526 0.0
S602 S 0.45034 0.60576 0.93111 0.0
N603 N 0.46928 0.58242 0.90531 0.0
N604 N 0.45369 0.57515 0.95691 0.0
C605 C 0.47044 0.5435 0.94503 0.0
C606 C 0.47911 0.54758 0.91707 0.0
C607 C 0.0049 0.57304 0.25099 0.0
C608 C 0.99683 0.52753 0.23582 0.0
C609 C 0.00347 0.57484 0.27895 0.0
C610 C 0.99487 0.53146 0.29284 0.0
H611 H 0.01396 0.60809 0.2412 0.0
H612 H 0.01087 0.61111 0.28984 0.0
S613 S 0.9701 0.40223 0.26213 0.0
N614 N 0.97723 0.43709 0.2364 0.0
N615 N 0.97681 0.441 0.28907 0.0
C616 C 0.98465 0.4849 0.27777 0.0
C617 C 0.98511 0.48281 0.24921 0.0
loop_
_geom_bond_atom_site_label_1
_geom_bond_atom_site_label_2
_geom_bond_distance
_geom_bond_site_symmetry_2
_ccdc_geom_bond_type
Zn0 O6 1.969 . S
Zn0 O7 1.965 . S
Zn0 O11 2.024 . S
Zn0 O16 1.969 . S
Zn1 O8 1.969 . S
Zn1 O14 1.969 . S
Zn1 O15 1.965 . S
Zn1 O17 2.024 . S
C2 O3 1.229 . S
C2 O11 1.058 . S
O3 C2 1.229 . S
C4 O5 1.229 . S
C4 O17 1.058 . S
O5 C4 1.229 . S
O6 Zn0 1.969 . S
O6 C9 1.267 . S
O7 Zn0 1.965 . S
O7 C18 1.260 1_455 S
O8 Zn1 1.969 . S
O8 C18 1.258 . S
C9 O6 1.267 . S
C9 O10 1.228 . S
O10 C9 1.228 . S
O11 Zn0 2.024 . S
O11 C2 1.058 . S
C12 O13 1.228 . S
C12 O14 1.267 . S
O13 C12 1.228 . S
O14 Zn1 1.969 . S
O14 C12 1.267 . S
O15 Zn1 1.965 . S
O15 C19 1.260 1_655 S
O16 Zn0 1.969 . S
O16 C19 1.258 . S
O17 Zn1 2.024 . S
O17 C4 1.058 . S
C18 O7 1.260 1_655 S
C18 O8 1.258 . S
C19 O15 1.260 1_455 S
C19 O16 1.258 . S
Zn20 O26 1.969 . S
Zn20 O27 1.965 . S
Zn20 O31 2.024 . S
Zn20 O36 1.969 . S
Zn21 O28 1.969 . S
Zn21 O34 1.969 . S
Zn21 O35 1.965 . S
Zn21 O37 2.024 . S
C22 O23 1.229 . S
C22 O31 1.058 . S
O23 C22 1.229 . S
C24 O25 1.229 . S
C24 O37 1.058 . S
O25 C24 1.229 . S
O26 Zn20 1.969 . S
O26 C29 1.267 . S
O27 Zn20 1.965 . S
O27 C38 1.260 . S
O28 Zn21 1.969 . S
O28 C38 1.258 1_565 S
C29 O26 1.267 . S
C29 O30 1.228 . S
O30 C29 1.228 . S
O31 Zn20 2.024 . S
O31 C22 1.058 . S
C32 O33 1.228 . S
C32 O34 1.267 . S
O33 C32 1.228 . S
O34 Zn21 1.969 . S
O34 C32 1.267 . S
O35 Zn21 1.965 . S
O35 C39 1.260 1_565 S
O36 Zn20 1.969 . S
O36 C39 1.258 . S
O37 Zn21 2.024 . S
O37 C24 1.058 . S
C38 O27 1.260 . S
C38 O28 1.258 1_545 S
C39 O35 1.260 1_545 S
C39 O36 1.258 . S
Zn40 O46 1.969 . S
Zn40 O47 1.965 . S
Zn40 O51 2.024 . S
Zn40 O56 1.969 . S
Zn41 O48 1.969 . S
Zn41 O54 1.969 . S
Zn41 O55 1.965 . S
Zn41 O57 2.024 . S
C42 O43 1.229 . S
C42 O51 1.058 . S
O43 C42 1.229 . S
C44 O45 1.229 . S
C44 O57 1.058 . S
O45 C44 1.229 . S
O46 Zn40 1.969 . S
O46 C49 1.267 . S
O47 Zn40 1.965 . S
O47 C58 1.260 . S
O48 Zn41 1.969 . S
O48 C58 1.258 . S
C49 O46 1.267 . S
C49 O50 1.228 . S
O50 C49 1.228 . S
O51 Zn40 2.024 . S
O51 C42 1.058 . S
C52 O53 1.228 . S
C52 O54 1.267 . S
O53 C52 1.228 . S
O54 Zn41 1.969 . S
O54 C52 1.267 . S
O55 Zn41 1.965 . S
O55 C59 1.260 . S
O56 Zn40 1.969 . S
O56 C59 1.258 . S
O57 Zn41 2.024 . S
O57 C44 1.058 . S
C58 O47 1.260 . S
C58 O48 1.258 . S
C59 O55 1.260 . S
C59 O56 1.258 . S
C60 C61 1.391 . S
C60 C64 1.391 . S
C60 H102 0.948 . S
C61 C60 1.391 . S
C61 C62 1.391 . S
C62 C61 1.391 . S
C62 H118 0.947 . S
C62 C119 1.392 . S
C63 C64 1.391 . S
C63 C67 1.397 . S
C63 C119 1.419 . S
C64 C60 1.391 . S
C64 C63 1.391 . S
C64 C65 1.399 . S
C65 C64 1.399 . S
C65 C68 1.396 . S
C65 C77 1.453 . S
C65 C78 1.684 . S
H66 C90 0.948 . S
C67 C63 1.397 . S
C67 C68 1.394 . S
C67 C86 1.723 . S
C68 C65 1.396 . S
C68 C67 1.394 . S
C68 C98 1.723 1_545 S
H69 C92 0.947 . S
H70 C93 0.948 . S
H71 C99 0.982 . S
H72 C100 0.979 . S
H73 C100 0.980 . S
H74 C100 0.983 . S
H75 C99 0.979 . S
H76 C99 0.977 . S
C77 C65 1.453 . S
C77 H106 0.982 . S
C77 H107 0.979 . S
C77 H108 0.977 . S
C78 C65 1.684 . S
C78 H103 0.979 . S
C78 H104 0.980 . S
C78 H105 0.983 . S
C79 C80 1.391 . S
C79 C84 1.391 . S
C79 H109 0.948 . S
C80 C79 1.391 . S
C80 C81 1.391 1_545 S
C81 C80 1.391 1_565 S
C81 C82 1.392 . S
C81 H110 0.947 . S
C82 C81 1.392 . S
C82 C83 1.419 1_565 S
C82 H111 0.948 . S
C83 C82 1.419 1_545 S
C83 C84 1.391 . S
C83 C87 1.397 . S
C84 C79 1.391 . S
C84 C83 1.391 . S
C84 C85 1.399 . S
C85 C84 1.399 . S
C85 C86 1.396 . S
C85 C88 1.453 . S
C85 C89 1.684 . S
C86 C67 1.723 . S
C86 C85 1.396 . S
C86 C87 1.394 . S
C87 C83 1.397 . S
C87 C86 1.394 . S
C87 C97 1.723 1_545 S
C88 C85 1.453 . S
C88 H112 0.982 . S
C88 H113 0.979 . S
C88 H114 0.977 . S
C89 C85 1.684 . S
C89 H115 0.979 . S
C89 H116 0.980 . S
C89 H117 0.983 . S
C90 H66 0.948 . S
C90 C91 1.391 . S
C90 C95 1.391 . S
C91 C90 1.391 . S
C91 C92 1.391 . S
C92 H69 0.947 . S
C92 C91 1.391 . S
C92 C93 1.392 . S
C93 H70 0.948 . S
C93 C92 1.392 . S
C93 C94 1.419 . S
C94 C93 1.419 . S
C94 C95 1.391 . S
C94 C98 1.397 . S
C95 C90 1.391 . S
C95 C94 1.391 . S
C95 C96 1.399 . S
C96 C95 1.399 . S
C96 C97 1.396 . S
C96 C99 1.453 . S
C96 C100 1.684 . S
C97 C87 1.723 1_565 S
C97 C96 1.396 . S
C97 C98 1.394 . S
C98 C68 1.723 1_565 S
C98 C94 1.397 . S
C98 C97 1.394 . S
C99 H71 0.982 . S
C99 H75 0.979 . S
C99 H76 0.977 . S
C99 C96 1.453 . S
C100 H72 0.979 . S
C100 H73 0.980 . S
C100 H74 0.983 . S
C100 C96 1.684 . S
H101 C119 0.948 . S
H102 C60 0.948 . S
H103 C78 0.979 . S
H104 C78 0.980 . S
H105 C78 0.983 . S
H106 C77 0.982 . S
H107 C77 0.979 . S
H108 C77 0.977 . S
H109 C79 0.948 . S
H110 C81 0.947 . S
H111 C82 0.948 . S
H112 C88 0.982 . S
H113 C88 0.979 . S
H114 C88 0.977 . S
H115 C89 0.979 . S
H116 C89 0.980 . S
H117 C89 0.983 . S
H118 C62 0.947 . S
C119 C62 1.392 . S
C119 C63 1.419 . S
C119 H101 0.948 . S
C120 C121 1.391 . S
C120 C124 1.391 . S
C120 H162 0.948 . S
C121 C120 1.391 . S
C121 C122 1.391 . S
C122 C121 1.391 . S
C122 H178 0.947 . S
C122 C179 1.392 . S
C123 C124 1.391 . S
C123 C127 1.397 . S
C123 C179 1.419 . S
C124 C120 1.391 . S
C124 C123 1.391 . S
C124 C125 1.399 . S
C125 C124 1.399 . S
C125 C128 1.396 . S
C125 C137 1.453 . S
C125 C138 1.684 . S
H126 C150 0.948 . S
C127 C123 1.397 . S
C127 C128 1.394 . S
C127 C146 1.723 . S
C128 C125 1.396 . S
C128 C127 1.394 . S
C128 C158 1.723 . S
H129 C152 0.947 . S
H130 C153 0.948 . S
H131 C159 0.982 . S
H132 C160 0.979 . S
H133 C160 0.980 . S
H134 C160 0.983 . S
H135 C159 0.979 . S
H136 C159 0.977 . S
C137 C125 1.453 . S
C137 H166 0.982 . S
C137 H167 0.979 . S
C137 H168 0.977 . S
C138 C125 1.684 . S
C138 H163 0.979 . S
C138 H164 0.980 . S
C138 H165 0.983 . S
C139 C140 1.391 . S
C139 C144 1.391 . S
C139 H169 0.948 . S
C140 C139 1.391 . S
C140 C141 1.391 . S
C141 C140 1.391 . S
C141 C142 1.392 . S
C141 H170 0.947 . S
C142 C141 1.392 . S
C142 C143 1.419 . S
C142 H171 0.948 . S
C143 C142 1.419 . S
C143 C144 1.391 . S
C143 C147 1.397 . S
C144 C139 1.391 . S
C144 C143 1.391 . S
C144 C145 1.399 . S
C145 C144 1.399 . S
C145 C146 1.396 . S
C145 C148 1.453 . S
C145 C149 1.684 . S
C146 C127 1.723 . S
C146 C145 1.396 . S
C146 C147 1.394 . S
C147 C143 1.397 . S
C147 C146 1.394 . S
C147 C157 1.723 . S
C148 C145 1.453 . S
C148 H172 0.982 . S
C148 H173 0.979 . S
C148 H174 0.977 . S
C149 C145 1.684 . S
C149 H175 0.979 . S
C149 H176 0.980 . S
C149 H177 0.983 . S
C150 H126 0.948 . S
C150 C151 1.391 . S
C150 C155 1.391 . S
C151 C150 1.391 . S
C151 C152 1.391 . S
C152 H129 0.947 . S
C152 C151 1.391 . S
C152 C153 1.392 . S
C153 H130 0.948 . S
C153 C152 1.392 . S
C153 C154 1.419 . S
C154 C153 1.419 . S
C154 C155 1.391 . S
C154 C158 1.397 . S
C155 C150 1.391 . S
C155 C154 1.391 . S
C155 C156 1.399 . S
C156 C155 1.399 . S
C156 C157 1.396 . S
C156 C159 1.453 . S
C156 C160 1.684 . S
C157 C147 1.723 . S
C157 C156 1.396 . S
C157 C158 1.394 . S
C158 C128 1.723 . S
C158 C154 1.397 . S
C158 C157 1.394 . S
C159 H131 0.982 . S
C159 H135 0.979 . S
C159 H136 0.977 . S
C159 C156 1.453 . S
C160 H132 0.979 . S
C160 H133 0.980 . S
C160 H134 0.983 . S
C160 C156 1.684 . S
H161 C179 0.948 . S
H162 C120 0.948 . S
H163 C138 0.979 . S
H164 C138 0.980 . S
H165 C138 0.983 . S
H166 C137 0.982 . S
H167 C137 0.979 . S
H168 C137 0.977 . S
H169 C139 0.948 . S
H170 C141 0.947 . S
H171 C142 0.948 . S
H172 C148 0.982 . S
H173 C148 0.979 . S
H174 C148 0.977 . S
H175 C149 0.979 . S
H176 C149 0.980 . S
H177 C149 0.983 . S
H178 C122 0.947 . S
C179 C122 1.392 . S
C179 C123 1.419 . S
C179 H161 0.948 . S
C180 C181 1.391 . S
C180 C184 1.391 . S
C180 H222 0.948 . S
C181 C180 1.391 . S
C181 C182 1.391 . S
C182 C181 1.391 . S
C182 H238 0.947 . S
C182 C239 1.392 . S
C183 C184 1.391 . S
C183 C187 1.397 . S
C183 C239 1.419 . S
C184 C180 1.391 . S
C184 C183 1.391 . S
C184 C185 1.399 . S
C185 C184 1.399 . S
C185 C188 1.396 . S
C185 C197 1.453 . S
C185 C198 1.684 . S
H186 C210 0.948 . S
C187 C183 1.397 . S
C187 C188 1.394 . S
C187 C206 1.723 . S
C188 C185 1.396 . S
C188 C187 1.394 . S
C188 C218 1.723 1_455 S
H189 C212 0.947 . S
H190 C213 0.948 . S
H191 C219 0.982 . S
H192 C220 0.979 . S
H193 C220 0.980 . S
H194 C220 0.983 . S
H195 C219 0.979 . S
H196 C219 0.977 . S
C197 C185 1.453 . S
C197 H226 0.982 . S
C197 H227 0.979 . S
C197 H228 0.977 . S
C198 C185 1.684 . S
C198 H223 0.979 . S
C198 H224 0.980 . S
C198 H225 0.983 . S
C199 C200 1.391 1_556 S
C199 C204 1.391 . S
C199 H229 0.948 1_556 S
C200 C199 1.391 1_554 S
C200 C201 1.375 1_454 S
C201 C200 1.375 1_656 S
C201 C202 1.431 . S
C201 H230 0.925 1_556 S
C202 C201 1.431 . S
C202 C203 1.419 1_655 S
C202 H231 0.948 . S
C203 C202 1.419 1_455 S
C203 C204 1.391 . S
C203 C207 1.397 . S
C204 C199 1.391 . S
C204 C203 1.391 . S
C204 C205 1.399 . S
C205 C204 1.399 . S
C205 C206 1.396 . S
C205 C208 1.453 . S
C205 C209 1.684 . S
C206 C187 1.723 . S
C206 C205 1.396 . S
C206 C207 1.394 . S
C207 C203 1.397 . S
C207 C206 1.394 . S
C207 C217 1.723 1_455 S
C208 C205 1.453 . S
C208 H232 0.982 . S
C208 H233 0.979 . S
C208 H234 0.977 . S
C209 C205 1.684 . S
C209 H235 0.979 . S
C209 H236 0.980 . S
C209 H237 0.983 . S
C210 H186 0.948 . S
C210 C211 1.391 . S
C210 C215 1.391 . S
C211 C210 1.391 . S
C211 C212 1.391 . S
C212 H189 0.947 . S
C212 C211 1.391 . S
C212 C213 1.392 . S
C213 H190 0.948 . S
C213 C212 1.392 . S
C213 C214 1.419 . S
C214 C213 1.419 . S
C214 C215 1.391 . S
C214 C218 1.397 . S
C215 C210 1.391 . S
C215 C214 1.391 . S
C215 C216 1.399 . S
C216 C215 1.399 . S
C216 C217 1.396 . S
C216 C219 1.453 . S
C216 C220 1.684 . S
C217 C207 1.723 1_655 S
C217 C216 1.396 . S
C217 C218 1.394 . S
C218 C188 1.723 1_655 S
C218 C214 1.397 . S
C218 C217 1.394 . S
C219 H191 0.982 . S
C219 H195 0.979 . S
C219 H196 0.977 . S
C219 C216 1.453 . S
C220 H192 0.979 . S
C220 H193 0.980 . S
C220 H194 0.983 . S
C220 C216 1.684 . S
H221 C239 0.948 . S
H222 C180 0.948 . S
H223 C198 0.979 . S
H224 C198 0.980 . S
H225 C198 0.983 . S
H226 C197 0.982 . S
H227 C197 0.979 . S
H228 C197 0.977 . S
H229 C199 0.948 1_554 S
H230 C201 0.925 1_554 S
H231 C202 0.948 . S
H232 C208 0.982 . S
H233 C208 0.979 . S
H234 C208 0.977 . S
H235 C209 0.979 . S
H236 C209 0.980 . S
H237 C209 0.983 . S
H238 C182 0.947 . S
C239 C182 1.392 . S
C239 C183 1.419 . S
C239 H221 0.948 . S
C240 C241 1.391 . S
C240 C244 1.391 . S
C240 H282 0.948 . S
C241 C240 1.391 . S
C241 C242 1.391 . S
C242 C241 1.391 . S
C242 H298 0.947 . S
C242 C299 1.392 . S
C243 C244 1.391 . S
C243 C247 1.397 . S
C243 C299 1.419 . S
C244 C240 1.391 . S
C244 C243 1.391 . S
C244 C245 1.399 . S
C245 C244 1.399 . S
C245 C248 1.396 1_655 S
C245 C257 1.453 1_655 S
C245 C258 1.684 . S
H246 C270 0.948 . S
C247 C243 1.397 . S
C247 C248 1.394 1_655 S
C247 C266 1.723 . S
C248 C245 1.396 1_455 S
C248 C247 1.394 1_455 S
C248 C278 1.723 . S
H249 C272 0.947 . S
H250 C273 0.948 . S
H251 C279 0.982 . S
H252 C280 0.979 . S
H253 C280 0.980 . S
H254 C280 0.983 . S
H255 C279 0.979 . S
H256 C279 0.977 . S
C257 C245 1.453 1_455 S
C257 H286 0.982 . S
C257 H287 0.979 . S
C257 H288 0.977 . S
C258 C245 1.684 . S
C258 H283 0.979 . S
C258 H284 0.980 1_655 S
C258 H285 0.983 . S
C259 C260 1.391 1_655 S
C259 C264 1.391 . S
C259 H289 0.948 . S
C260 C259 1.391 1_455 S
C260 C261 1.391 . S
C261 C260 1.391 . S
C261 C262 1.392 . S
C261 H290 0.947 . S
C262 C261 1.392 . S
C262 C263 1.419 . S
C262 H291 0.948 . S
C263 C262 1.419 . S
C263 C264 1.391 1_455 S
C263 C267 1.397 . S
C264 C259 1.391 . S
C264 C263 1.391 1_655 S
C264 C265 1.399 . S
C265 C264 1.399 . S
C265 C266 1.396 . S
C265 C268 1.453 . S
C265 C269 1.684 . S
C266 C247 1.723 . S
C266 C265 1.396 . S
C266 C267 1.394 1_655 S
C267 C263 1.397 . S
C267 C266 1.394 1_455 S
C267 C277 1.723 . S
C268 C265 1.453 . S
C268 H292 0.982 . S
C268 H293 0.979 . S
C268 H294 0.977 . S
C269 C265 1.684 . S
C269 H295 0.979 . S
C269 H296 0.980 . S
C269 H297 0.983 . S
C270 H246 0.948 . S
C270 C271 1.391 . S
C270 C275 1.391 . S
C271 C270 1.391 . S
C271 C272 1.391 . S
C272 H249 0.947 . S
C272 C271 1.391 . S
C272 C273 1.392 . S
C273 H250 0.948 . S
C273 C272 1.392 . S
C273 C274 1.419 . S
C274 C273 1.419 . S
C274 C275 1.391 . S
C274 C278 1.397 . S
C275 C270 1.391 . S
C275 C274 1.391 . S
C275 C276 1.399 . S
C276 C275 1.399 . S
C276 C277 1.396 . S
C276 C279 1.453 . S
C276 C280 1.684 . S
C277 C267 1.723 . S
C277 C276 1.396 . S
C277 C278 1.394 . S
C278 C248 1.723 . S
C278 C274 1.397 . S
C278 C277 1.394 . S
C279 H251 0.982 . S
C279 H255 0.979 . S
C279 H256 0.977 . S
C279 C276 1.453 . S
C280 H252 0.979 . S
C280 H253 0.980 . S
C280 H254 0.983 . S
C280 C276 1.684 . S
H281 C299 0.948 . S
H282 C240 0.948 . S
H283 C258 0.979 . S
H284 C258 0.980 1_455 S
H285 C258 0.983 . S
H286 C257 0.982 . S
H287 C257 0.979 . S
H288 C257 0.977 . S
H289 C259 0.948 . S
H290 C261 0.947 . S
H291 C262 0.948 . S
H292 C268 0.982 . S
H293 C268 0.979 . S
H294 C268 0.977 . S
H295 C269 0.979 . S
H296 C269 0.980 . S
H297 C269 0.983 . S
H298 C242 0.947 . S
C299 C242 1.392 . S
C299 C243 1.419 . S
C299 H281 0.948 . S
C300 C301 1.391 . S
C300 C304 1.391 . S
C300 H342 0.948 . S
C301 C300 1.391 . S
C301 C302 1.391 . S
C302 C301 1.391 . S
C302 H358 0.947 . S
C302 C359 1.392 . S
C303 C304 1.391 . S
C303 C307 1.397 . S
C303 C359 1.419 . S
C304 C300 1.391 . S
C304 C303 1.391 . S
C304 C305 1.399 . S
C305 C304 1.399 . S
C305 C308 1.396 1_565 S
C305 C317 1.453 1_565 S
C305 C318 1.684 . S
H306 C330 0.948 . S
C307 C303 1.397 . S
C307 C308 1.394 1_565 S
C307 C326 1.723 . S
C308 C305 1.396 1_545 S
C308 C307 1.394 1_545 S
C308 C338 1.723 . S
H309 C332 0.947 . S
H310 C333 0.948 . S
H311 C339 0.982 . S
H312 C340 0.979 . S
H313 C340 0.980 . S
H314 C340 0.983 . S
H315 C339 0.979 . S
H316 C339 0.977 . S
C317 C305 1.453 1_545 S
C317 H346 0.982 . S
C317 H347 0.979 1_545 S
C317 H348 0.977 . S
C318 C305 1.684 . S
C318 H343 0.979 . S
C318 H344 0.980 1_565 S
C318 H345 0.983 . S
C319 C320 1.391 1_565 S
C319 C324 1.391 . S
C319 H349 0.948 . S
C320 C319 1.391 1_545 S
C320 C321 1.391 . S
C321 C320 1.391 . S
C321 C322 1.392 . S
C321 H350 0.947 . S
C322 C321 1.392 . S
C322 C323 1.419 . S
C322 H351 0.948 . S
C323 C322 1.419 . S
C323 C324 1.391 1_545 S
C323 C327 1.397 . S
C324 C319 1.391 . S
C324 C323 1.391 1_565 S
C324 C325 1.399 . S
C325 C324 1.399 . S
C325 C326 1.396 . S
C325 C328 1.453 . S
C325 C329 1.684 . S
C326 C307 1.723 . S
C326 C325 1.396 . S
C326 C327 1.394 1_565 S
C327 C323 1.397 . S
C327 C326 1.394 1_545 S
C327 C337 1.723 . S
C328 C325 1.453 . S
C328 H352 0.982 . S
C328 H353 0.979 . S
C328 H354 0.977 . S
C329 C325 1.684 . S
C329 H355 0.979 . S
C329 H356 0.980 . S
C329 H357 0.983 . S
C330 H306 0.948 . S
C330 C331 1.391 . S
C330 C335 1.391 . S
C331 C330 1.391 . S
C331 C332 1.391 . S
C332 H309 0.947 . S
C332 C331 1.391 . S
C332 C333 1.392 . S
C333 H310 0.948 . S
C333 C332 1.392 . S
C333 C334 1.419 . S
C334 C333 1.419 . S
C334 C335 1.391 . S
C334 C338 1.397 . S
C335 C330 1.391 . S
C335 C334 1.391 . S
C335 C336 1.399 . S
C336 C335 1.399 . S
C336 C337 1.396 . S
C336 C339 1.453 . S
C336 C340 1.684 . S
C337 C327 1.723 . S
C337 C336 1.396 . S
C337 C338 1.394 . S
C338 C308 1.723 . S
C338 C334 1.397 . S
C338 C337 1.394 . S
C339 H311 0.982 . S
C339 H315 0.979 . S
C339 H316 0.977 . S
C339 C336 1.453 . S
C340 H312 0.979 . S
C340 H313 0.980 . S
C340 H314 0.983 . S
C340 C336 1.684 . S
H341 C359 0.948 . S
H342 C300 0.948 . S
H343 C318 0.979 . S
H344 C318 0.980 1_545 S
H345 C318 0.983 . S
H346 C317 0.982 . S
H347 C317 0.979 1_565 S
H348 C317 0.977 . S
H349 C319 0.948 . S
H350 C321 0.947 . S
H351 C322 0.948 . S
H352 C328 0.982 . S
H353 C328 0.979 . S
H354 C328 0.977 . S
H355 C329 0.979 . S
H356 C329 0.980 . S
H357 C329 0.983 . S
H358 C302 0.947 . S
C359 C302 1.392 . S
C359 C303 1.419 . S
C359 H341 0.948 . S
C360 C361 1.391 . S
C360 C364 1.391 . S
C360 H402 0.948 . S
C361 C360 1.391 . S
C361 C362 1.391 . S
C362 C361 1.391 . S
C362 H418 0.947 . S
C362 C419 1.392 . S
C363 C364 1.391 . S
C363 C367 1.397 . S
C363 C419 1.419 . S
C364 C360 1.391 . S
C364 C363 1.391 . S
C364 C365 1.399 . S
C365 C364 1.399 . S
C365 C368 1.396 . S
C365 C377 1.453 . S
C365 C378 1.684 . S
H366 C390 0.948 . S
C367 C363 1.397 . S
C367 C368 1.394 . S
C367 C386 1.723 . S
C368 C365 1.396 . S
C368 C367 1.394 . S
C368 C398 1.723 . S
H369 C392 0.947 . S
H370 C393 0.948 . S
H371 C399 0.982 . S
H372 C400 0.979 . S
H373 C400 0.980 . S
H374 C400 0.983 . S
H375 C399 0.979 . S
H376 C399 0.977 . S
C377 C365 1.453 . S
C377 H406 0.982 . S
C377 H407 0.979 . S
C377 H408 0.977 . S
C378 C365 1.684 . S
C378 H403 0.979 . S
C378 H404 0.980 . S
C378 H405 0.983 . S
C379 C380 1.391 1_554 S
C379 C384 1.391 . S
C379 H409 0.948 1_554 S
C380 C379 1.391 1_556 S
C380 C381 1.391 1_556 S
C381 C380 1.391 1_554 S
C381 C382 1.392 . S
C381 H410 0.947 1_554 S
C382 C381 1.392 . S
C382 C383 1.419 . S
C382 H411 0.948 . S
C383 C382 1.419 . S
C383 C384 1.391 . S
C383 C387 1.397 . S
C384 C379 1.391 . S
C384 C383 1.391 . S
C384 C385 1.399 . S
C385 C384 1.399 . S
C385 C386 1.396 . S
C385 C388 1.453 . S
C385 C389 1.684 . S
C386 C367 1.723 . S
C386 C385 1.396 . S
C386 C387 1.394 . S
C387 C383 1.397 . S
C387 C386 1.394 . S
C387 C397 1.723 . S
C388 C385 1.453 . S
C388 H412 0.982 . S
C388 H413 0.979 . S
C388 H414 0.977 . S
C389 C385 1.684 . S
C389 H415 0.979 . S
C389 H416 0.980 . S
C389 H417 0.983 . S
C390 H366 0.948 . S
C390 C391 1.391 . S
C390 C395 1.391 . S
C391 C390 1.391 . S
C391 C392 1.391 . S
C392 H369 0.947 . S
C392 C391 1.391 . S
C392 C393 1.392 . S
C393 H370 0.948 . S
C393 C392 1.392 . S
C393 C394 1.419 . S
C394 C393 1.419 . S
C394 C395 1.391 . S
C394 C398 1.397 . S
C395 C390 1.391 . S
C395 C394 1.391 . S
C395 C396 1.399 . S
C396 C395 1.399 . S
C396 C397 1.396 . S
C396 C399 1.453 . S
C396 C400 1.684 . S
C397 C387 1.723 . S
C397 C396 1.396 . S
C397 C398 1.394 . S
C398 C368 1.723 . S
C398 C394 1.397 . S
C398 C397 1.394 . S
C399 H371 0.982 . S
C399 H375 0.979 . S
C399 H376 0.977 . S
C399 C396 1.453 . S
C400 H372 0.979 . S
C400 H373 0.980 . S
C400 H374 0.983 . S
C400 C396 1.684 . S
H401 C419 0.948 . S
H402 C360 0.948 . S
H403 C378 0.979 . S
H404 C378 0.980 . S
H405 C378 0.983 . S
H406 C377 0.982 . S
H407 C377 0.979 . S
H408 C377 0.977 . S
H409 C379 0.948 1_556 S
H410 C381 0.947 1_556 S
H411 C382 0.948 . S
H412 C388 0.982 . S
H413 C388 0.979 . S
H414 C388 0.977 . S
H415 C389 0.979 . S
H416 C389 0.980 . S
H417 C389 0.983 . S
H418 C362 0.947 . S
C419 C362 1.392 . S
C419 C363 1.419 . S
C419 H401 0.948 . S
C420 C421 1.369 . S
C420 C422 1.419 . S
C420 H424 0.930 . S
C421 C420 1.369 . S
C421 C430 1.429 . S
C422 C420 1.419 . S
C422 C423 1.363 . S
C422 H425 0.929 . S
C423 C422 1.363 . S
C423 C429 1.428 . S
H424 C420 0.930 . S
H425 C422 0.929 . S
S426 N427 1.613 . S
S426 N428 1.610 . S
N427 S426 1.613 . S
N427 C430 1.350 . S
N428 S426 1.610 . S
N428 C429 1.351 . S
C429 C423 1.428 . S
C429 N428 1.351 . S
C429 C430 1.434 . S
C430 C421 1.429 . S
C430 N427 1.350 . S
C430 C429 1.434 . S
C431 C432 1.369 . S
C431 C433 1.419 . S
C431 H435 0.930 . S
C432 C431 1.369 . S
C432 C441 1.429 . S
C433 C431 1.419 . S
C433 C434 1.363 . S
C433 H436 0.929 . S
C434 C433 1.363 . S
C434 C440 1.428 . S
H435 C431 0.930 . S
H436 C433 0.929 . S
S437 N438 1.613 . S
S437 N439 1.610 . S
N438 S437 1.613 . S
N438 C441 1.350 . S
N439 S437 1.610 . S
N439 C440 1.351 . S
C440 C434 1.428 . S
C440 N439 1.351 . S
C440 C441 1.434 . S
C441 C432 1.429 . S
C441 N438 1.350 . S
C441 C440 1.434 . S
C442 C443 1.369 . S
C442 C444 1.419 . S
C442 H446 0.930 . S
C443 C442 1.369 . S
C443 C452 1.429 . S
C444 C442 1.419 . S
C444 C445 1.363 . S
C444 H447 0.929 . S
C445 C444 1.363 . S
C445 C451 1.428 . S
H446 C442 0.930 . S
H447 C444 0.929 . S
S448 N449 1.613 . S
S448 N450 1.610 . S
N449 S448 1.613 . S
N449 C452 1.350 . S
N450 S448 1.610 . S
N450 C451 1.351 . S
C451 C445 1.428 . S
C451 N450 1.351 . S
C451 C452 1.434 . S
C452 C443 1.429 . S
C452 N449 1.350 . S
C452 C451 1.434 . S
C453 C454 1.369 . S
C453 C455 1.419 . S
C453 H457 0.930 . S
C454 C453 1.369 . S
C454 C463 1.429 . S
C455 C453 1.419 . S
C455 C456 1.363 . S
C455 H458 0.929 . S
C456 C455 1.363 . S
C456 C462 1.428 . S
H457 C453 0.930 . S
H458 C455 0.929 . S
S459 N460 1.613 . S
S459 N461 1.610 . S
N460 S459 1.613 . S
N460 C463 1.350 . S
N461 S459 1.610 . S
N461 C462 1.351 . S
C462 C456 1.428 . S
C462 N461 1.351 . S
C462 C463 1.434 . S
C463 C454 1.429 . S
C463 N460 1.350 . S
C463 C462 1.434 . S
C464 C465 1.369 . S
C464 C466 1.419 . S
C464 H468 0.930 . S
C465 C464 1.369 . S
C465 C474 1.429 . S
C466 C464 1.419 . S
C466 C467 1.363 . S
C466 H469 0.929 . S
C467 C466 1.363 . S
C467 C473 1.428 . S
H468 C464 0.930 . S
H469 C466 0.929 . S
S470 N471 1.613 . S
S470 N472 1.610 . S
N471 S470 1.613 . S
N471 C474 1.350 . S
N472 S470 1.610 . S
N472 C473 1.351 . S
C473 C467 1.428 . S
C473 N472 1.351 . S
C473 C474 1.434 . S
C474 C465 1.429 . S
C474 N471 1.350 . S
C474 C473 1.434 . S
C475 C476 1.369 . S
C475 C477 1.419 . S
C475 H479 0.930 . S
C476 C475 1.369 . S
C476 C485 1.429 . S
C477 C475 1.419 . S
C477 C478 1.363 . S
C477 H480 0.929 . S
C478 C477 1.363 . S
C478 C484 1.428 . S
H479 C475 0.930 . S
H480 C477 0.929 . S
S481 N482 1.613 . S
S481 N483 1.610 . S
N482 S481 1.613 . S
N482 C485 1.350 . S
N483 S481 1.610 . S
N483 C484 1.351 . S
C484 C478 1.428 . S
C484 N483 1.351 . S
C484 C485 1.434 . S
C485 C476 1.429 . S
C485 N482 1.350 . S
C485 C484 1.434 . S
C486 C487 1.369 . S
C486 C488 1.419 . S
C486 H490 0.930 . S
C487 C486 1.369 . S
C487 C496 1.429 . S
C488 C486 1.419 . S
C488 C489 1.363 . S
C488 H491 0.929 . S
C489 C488 1.363 . S
C489 C495 1.428 . S
H490 C486 0.930 . S
H491 C488 0.929 . S
S492 N493 1.613 . S
S492 N494 1.610 . S
N493 S492 1.613 . S
N493 C496 1.350 . S
N494 S492 1.610 . S
N494 C495 1.351 . S
C495 C489 1.428 . S
C495 N494 1.351 . S
C495 C496 1.434 . S
C496 C487 1.429 . S
C496 N493 1.350 . S
C496 C495 1.434 . S
C497 C498 1.369 . S
C497 C499 1.419 . S
C497 H501 0.930 . S
C498 C497 1.369 . S
C498 C507 1.429 . S
C499 C497 1.419 . S
C499 C500 1.363 . S
C499 H502 0.929 . S
C500 C499 1.363 . S
C500 C506 1.428 . S
H501 C497 0.930 . S
H502 C499 0.929 . S
S503 N504 1.613 . S
S503 N505 1.610 . S
N504 S503 1.613 . S
N504 C507 1.350 . S
N505 S503 1.610 . S
N505 C506 1.351 . S
C506 C500 1.428 . S
C506 N505 1.351 . S
C506 C507 1.434 . S
C507 C498 1.429 . S
C507 N504 1.350 . S
C507 C506 1.434 . S
C508 C509 1.369 . S
C508 C510 1.419 . S
C508 H512 0.930 . S
C509 C508 1.369 . S
C509 C518 1.429 . S
C510 C508 1.419 . S
C510 C511 1.363 . S
C510 H513 0.929 . S
C511 C510 1.363 . S
C511 C517 1.428 . S
H512 C508 0.930 . S
H513 C510 0.929 . S
S514 N515 1.613 . S
S514 N516 1.610 . S
N515 S514 1.613 . S
N515 C518 1.350 . S
N516 S514 1.610 . S
N516 C517 1.351 . S
C517 C511 1.428 . S
C517 N516 1.351 . S
C517 C518 1.434 . S
C518 C509 1.429 . S
C518 N515 1.350 . S
C518 C517 1.434 . S
C519 C520 1.369 . S
C519 C521 1.419 . S
C519 H523 0.930 . S
C520 C519 1.369 . S
C520 C529 1.429 . S
C521 C519 1.419 . S
C521 C522 1.363 . S
C521 H524 0.929 . S
C522 C521 1.363 . S
C522 C528 1.428 . S
H523 C519 0.930 . S
H524 C521 0.929 . S
S525 N526 1.613 . S
S525 N527 1.610 . S
N526 S525 1.613 . S
N526 C529 1.350 . S
N527 S525 1.610 . S
N527 C528 1.351 . S
C528 C522 1.428 . S
C528 N527 1.351 . S
C528 C529 1.434 . S
C529 C520 1.429 . S
C529 N526 1.350 . S
C529 C528 1.434 . S
C530 C531 1.369 . S
C530 C532 1.419 . S
C530 H534 0.930 . S
C531 C530 1.369 . S
C531 C540 1.429 . S
C532 C530 1.419 . S
C532 C533 1.363 . S
C532 H535 0.929 . S
C533 C532 1.363 . S
C533 C539 1.428 . S
H534 C530 0.930 . S
H535 C532 0.929 . S
S536 N537 1.613 . S
S536 N538 1.610 . S
N537 S536 1.613 . S
N537 C540 1.350 . S
N538 S536 1.610 . S
N538 C539 1.351 . S
C539 C533 1.428 . S
C539 N538 1.351 . S
C539 C540 1.434 . S
C540 C531 1.429 . S
C540 N537 1.350 . S
C540 C539 1.434 . S
C541 C542 1.369 . S
C541 C543 1.419 . S
C541 H545 0.930 . S
C542 C541 1.369 . S
C542 C551 1.429 . S
C543 C541 1.419 . S
C543 C544 1.363 . S
C543 H546 0.929 . S
C544 C543 1.363 . S
C544 C550 1.428 . S
H545 C541 0.930 . S
H546 C543 0.929 . S
S547 N548 1.613 . S
S547 N549 1.610 . S
N548 S547 1.613 . S
N548 C551 1.350 . S
N549 S547 1.610 . S
N549 C550 1.351 . S
C550 C544 1.428 . S
C550 N549 1.351 . S
C550 C551 1.434 . S
C551 C542 1.429 . S
C551 N548 1.350 . S
C551 C550 1.434 . S
C552 C553 1.369 1_655 S
C552 C554 1.419 . S
C552 H556 0.930 . S
C553 C552 1.369 1_455 S
C553 C562 1.429 . S
C554 C552 1.419 . S
C554 C555 1.363 1_655 S
C554 H557 0.929 . S
C555 C554 1.363 1_455 S
C555 C561 1.428 . S
H556 C552 0.930 . S
H557 C554 0.929 . S
S558 N559 1.613 . S
S558 N560 1.610 . S
N559 S558 1.613 . S
N559 C562 1.350 . S
N560 S558 1.610 . S
N560 C561 1.351 . S
C561 C555 1.428 . S
C561 N560 1.351 . S
C561 C562 1.434 . S
C562 C553 1.429 . S
C562 N559 1.350 . S
C562 C561 1.434 . S
C563 C564 1.369 . S
C563 C565 1.419 . S
C563 H567 0.930 . S
C564 C563 1.369 . S
C564 C573 1.429 1_545 S
C565 C563 1.419 . S
C565 C566 1.363 . S
C565 H568 0.929 . S
C566 C565 1.363 . S
C566 C572 1.428 1_545 S
H567 C563 0.930 . S
H568 C565 0.929 . S
S569 N570 1.613 . S
S569 N571 1.610 . S
N570 S569 1.613 . S
N570 C573 1.350 . S
N571 S569 1.610 . S
N571 C572 1.351 . S
C572 C566 1.428 1_565 S
C572 N571 1.351 . S
C572 C573 1.434 . S
C573 C564 1.429 1_565 S
C573 N570 1.350 . S
C573 C572 1.434 . S
C574 C575 1.369 . S
C574 C576 1.419 . S
C574 H578 0.930 . S
C575 C574 1.369 . S
C575 C584 1.429 . S
C576 C574 1.419 . S
C576 C577 1.363 . S
C576 H579 0.929 . S
C577 C576 1.363 . S
C577 C583 1.428 . S
H578 C574 0.930 . S
H579 C576 0.929 . S
S580 N581 1.613 . S
S580 N582 1.610 . S
N581 S580 1.613 . S
N581 C584 1.350 . S
N582 S580 1.610 . S
N582 C583 1.351 . S
C583 C577 1.428 . S
C583 N582 1.351 . S
C583 C584 1.434 . S
C584 C575 1.429 . S
C584 N581 1.350 . S
C584 C583 1.434 . S
C585 C586 1.369 . S
C585 C587 1.419 . S
C585 H589 0.930 . S
C586 C585 1.369 . S
C586 C595 1.429 1_545 S
C587 C585 1.419 . S
C587 C588 1.363 . S
C587 H590 0.929 . S
C588 C587 1.363 . S
C588 C594 1.428 1_545 S
H589 C585 0.930 . S
H590 C587 0.929 . S
S591 N592 1.613 . S
S591 N593 1.610 . S
N592 S591 1.613 . S
N592 C595 1.350 . S
N593 S591 1.610 . S
N593 C594 1.351 . S
C594 C588 1.428 1_565 S
C594 N593 1.351 . S
C594 C595 1.434 . S
C595 C586 1.429 1_565 S
C595 N592 1.350 . S
C595 C594 1.434 . S
C596 C597 1.369 . S
C596 C598 1.419 . S
C596 H600 0.930 . S
C597 C596 1.369 . S
C597 C606 1.429 . S
C598 C596 1.419 . S
C598 C599 1.363 . S
C598 H601 0.929 . S
C599 C598 1.363 . S
C599 C605 1.428 . S
H600 C596 0.930 . S
H601 C598 0.929 . S
S602 N603 1.613 . S
S602 N604 1.610 . S
N603 S602 1.613 . S
N603 C606 1.350 . S
N604 S602 1.610 . S
N604 C605 1.351 . S
C605 C599 1.428 . S
C605 N604 1.351 . S
C605 C606 1.434 . S
C606 C597 1.429 . S
C606 N603 1.350 . S
C606 C605 1.434 . S
C607 C608 1.369 . S
C607 C609 1.419 . S
C607 H611 0.930 . S
C608 C607 1.369 . S
C608 C617 1.429 1_655 S
C609 C607 1.419 . S
C609 C610 1.363 1_655 S
C609 H612 0.929 . S
C610 C609 1.363 1_455 S
C610 C616 1.429 . S
H611 C607 0.930 . S
H612 C609 0.929 . S
S613 N614 1.613 . S
S613 N615 1.610 . S
N614 S613 1.613 . S
N614 C617 1.350 . S
N615 S613 1.610 . S
N615 C616 1.351 . S
C616 C610 1.429 . S
C616 N615 1.351 . S
C616 C617 1.434 . S
C617 C608 1.429 1_455 S
C617 N614 1.350 . S
C617 C616 1.434 . S
C421 C2 1.448 . S
C423 C391 1.547 . S
C432 C22 1.423 . S
C434 C241 1.443 . S
C443 C44 1.485 . S
C445 C301 1.460 . S
C454 C4 1.627 . S
C456 C361 1.586 . S
C467 C271 1.751 . S
C465 C24 1.667 . S
C478 C331 1.685 . S
C476 C42 1.579 . S
C487 C32 1.425 . S
C489 C121 1.305 . S
C498 C49 1.375 . S
C500 C211 1.396 . S
C509 C9 1.358 . S
C511 C91 1.387 . S
C522 C151 1.371 . S
C520 C29 1.327 . S
C533 C181 1.316 . S
C531 C52 1.351 . S
C542 C12 1.340 . S
C544 C61 1.305 . S
C555 C200 1.420 . S
C553 C18 1.441 1_455 S
C564 C38 1.430 . S
C566 C80 1.418 . S
C575 C58 1.420 . S
C577 C140 1.414 . S
C588 C320 1.488 . S
C586 C39 1.496 . S
C599 C380 1.487 . S
C597 C59 1.478 . S
C608 C19 1.476 1_655 S
C610 C260 1.473 . S
