# Generated by pormake.
# Topology pth, (4,4)-cn, num edge types: 1
# Building blocks:
#     Node 0, Type 0, BuildingBlock: KUFVIS_clean_sbu_0, # of connection points: 4
#     Node 1, Type 0, BuildingBlock: KUFVIS_clean_sbu_0, # of connection points: 4
#     Node 2, Type 0, BuildingBlock: KUFVIS_clean_sbu_0, # of connection points: 4
#     Node 3, Type 1, BuildingBlock: NAWXER_clean_linker_0, # of connection points: 4
#     Node 4, Type 1, BuildingBlock: NAWXER_clean_linker_0, # of connection points: 4
#     Node 5, Type 1, BuildingBlock: NAWXER_clean_linker_0, # of connection points: 4
#     Edge 6, Type (0, 1), BuildingBlock: CIFDUS_clean_linker_0, # of connection points: 2
#     Edge 7, Type (0, 1), BuildingBlock: CIFDUS_clean_linker_0, # of connection points: 2
#     Edge 8, Type (0, 1), BuildingBlock: CIFDUS_clean_linker_0, # of connection points: 2
#     Edge 9, Type (0, 1), BuildingBlock: CIFDUS_clean_linker_0, # of connection points: 2
#     Edge 10, Type (0, 1), BuildingBlock: CIFDUS_clean_linker_0, # of connection points: 2
#     Edge 11, Type (0, 1), BuildingBlock: CIFDUS_clean_linker_0, # of connection points: 2
#     Edge 12, Type (0, 1), BuildingBlock: CIFDUS_clean_linker_0, # of connection points: 2
#     Edge 13, Type (0, 1), BuildingBlock: CIFDUS_clean_linker_0, # of connection points: 2
#     Edge 14, Type (0, 1), BuildingBlock: CIFDUS_clean_linker_0, # of connection points: 2
#     Edge 15, Type (0, 1), BuildingBlock: CIFDUS_clean_linker_0, # of connection points: 2
#     Edge 16, Type (0, 1), BuildingBlock: CIFDUS_clean_linker_0, # of connection points: 2
#     Edge 17, Type (0, 1), BuildingBlock: CIFDUS_clean_linker_0, # of connection points: 2
# Relax obj value: 0.011
# Max RMSD: 0.077
# Mean RMSD: 0.050
data_MOF--net-pth--node1-KUFVIS_clean_sbu_0--node2-NAWXER_clean_linker_0--edge1-CIFDUS_clean_linker_0
_symmetry_space_group_name_H-M    P1
_symmetry_Int_Tables_number       1
_symmetry_cell_setting            triclinic
loop_
_symmetry_equiv_pos_as_xyz
'x, y, z'
_cell_length_a     25.667621
_cell_length_b     25.711192
_cell_length_c     59.113849
_cell_angle_alpha  90.342757
_cell_angle_beta   91.91294
_cell_angle_gamma 120.26883
loop_
_atom_site_label
_atom_site_type_symbol
_atom_site_fract_x
_atom_site_fract_y
_atom_site_fract_z
_atom_type_partial_charge
Mn0 Mn 0.03028 0.06392 0.04926 0.0
Mn1 Mn 0.94448 0.11335 0.02414 0.0
C2 C 0.96204 0.0072 0.02009 0.0
C3 C 0.03913 0.00889 0.07906 0.0
C4 C 0.0786 0.16615 0.016 0.0
O5 O 0.03928 0.13041 0.07086 0.0
O6 O 0.9692 0.14943 0.05537 0.0
C7 C 0.83781 0.05482 0.05252 0.0
N8 N 0.86212 0.06373 0.03178 0.0
C9 C 0.76507 0.99593 0.01384 0.0
C10 C 0.7389 0.98653 0.03498 0.0
C11 C 0.77547 0.01603 0.0544 0.0
C12 C 0.82739 0.03545 0.01299 0.0
H13 H 0.86585 0.07692 0.06751 0.0
C14 C 0.00799 0.15637 0.07112 0.0
O15 O 0.08667 0.04859 0.06887 0.0
O16 O 0.98792 0.00268 0.07221 0.0
N17 N 0.91721 0.08107 0.99399 0.0
C18 C 0.94995 0.09239 0.9751 0.0
C19 C 0.92034 0.06491 0.95431 0.0
C20 C 0.85744 0.02629 0.95314 0.0
C21 C 0.82465 0.01571 0.97276 0.0
C22 C 0.85652 0.04486 0.99295 0.0
H23 H 0.99831 0.12189 0.97588 0.0
O24 O 0.00602 0.99818 0.02577 0.0
O25 O 0.95932 0.04842 0.03188 0.0
O26 O 0.08654 0.12808 0.02724 0.0
O27 O 0.02845 0.16572 0.01489 0.0
C28 C 0.76177 0.97647 0.97315 0.0
C29 C 0.73201 0.96655 0.99368 0.0
H30 H 0.69091 0.95628 0.03652 0.0
H31 H 0.75567 0.00864 0.07079 0.0
H32 H 0.94598 0.07319 0.93925 0.0
H33 H 0.83487 0.00459 0.93713 0.0
H34 H 0.73599 0.95303 0.95783 0.0
H35 H 0.68378 0.93562 0.99383 0.0
Mn36 Mn 0.02182 0.06161 0.38175 0.0
Mn37 Mn 0.1027 0.19172 0.41205 0.0
C38 C 0.07959 0.06558 0.41321 0.0
C39 C 0.0157 0.99904 0.35169 0.0
C40 C 0.96798 0.10877 0.41654 0.0
O41 O 0.02236 0.12333 0.36034 0.0
O42 O 0.07753 0.20763 0.38175 0.0
C43 C 0.20901 0.24634 0.38336 0.0
N44 N 0.18512 0.22774 0.40401 0.0
C45 C 0.28301 0.25834 0.42121 0.0
C46 C 0.30868 0.27819 0.40016 0.0
C47 C 0.27148 0.27205 0.38115 0.0
C48 C 0.22047 0.23316 0.42238 0.0
H49 H 0.18059 0.24145 0.36867 0.0
C50 C 0.04768 0.18021 0.36344 0.0
O51 O 0.96724 0.99375 0.36022 0.0
O52 O 0.06693 0.04136 0.36025 0.0
N53 N 0.13108 0.18429 0.44157 0.0
C54 C 0.09908 0.16101 0.46049 0.0
C55 C 0.12957 0.16312 0.48096 0.0
C56 C 0.19265 0.18934 0.4818 0.0
C57 C 0.22472 0.21362 0.46219 0.0
C58 C 0.19194 0.21083 0.44234 0.0
H59 H 0.0506 0.14011 0.45989 0.0
O60 O 0.03547 0.0144 0.40547 0.0
O61 O 0.08928 0.11298 0.4021 0.0
O62 O 0.96135 0.06936 0.40161 0.0
O63 O 0.01874 0.15597 0.42171 0.0
C64 C 0.28781 0.23957 0.46149 0.0
C65 C 0.31691 0.26178 0.44099 0.0
H66 H 0.35682 0.29784 0.39837 0.0
H67 H 0.29092 0.28699 0.36483 0.0
H68 H 0.10445 0.14411 0.496 0.0
H69 H 0.21593 0.1902 0.49755 0.0
H70 H 0.31427 0.24193 0.47653 0.0
H71 H 0.36534 0.28092 0.44059 0.0
Mn72 Mn 0.04083 0.05142 0.71571 0.0
Mn73 Mn 0.99397 0.13286 0.74483 0.0
C74 C 0.09666 0.1087 0.74718 0.0
C75 C 0.09408 0.04345 0.68582 0.0
C76 C 0.93919 0.99778 0.74933 0.0
O77 O 0.97834 0.05279 0.6939 0.0
O78 O 0.95488 0.11238 0.71392 0.0
C79 C 0.05106 0.24282 0.71761 0.0
N80 N 0.04323 0.21602 0.738 0.0
C81 C 0.1096 0.3112 0.75702 0.0
C82 C 0.1181 0.33988 0.73625 0.0
C83 C 0.08885 0.3055 0.71645 0.0
C84 C 0.07159 0.2486 0.75712 0.0
H85 H 0.02869 0.21653 0.70236 0.0
C86 C 0.94997 0.08132 0.6961 0.0
O87 O 0.05095 0.99589 0.69486 0.0
O88 O 0.10529 0.09525 0.69389 0.0
N89 N 0.0279 0.15653 0.77503 0.0
C90 C 0.01602 0.12181 0.79362 0.0
C91 C 0.04246 0.14923 0.81478 0.0
C92 C 0.08019 0.21205 0.81667 0.0
C93 C 0.09079 0.24696 0.79739 0.0
C94 C 0.06293 0.21716 0.77677 0.0
H95 H 0.98679 0.07354 0.79232 0.0
O96 O 0.10337 0.06496 0.73975 0.0
O97 O 0.05854 0.11856 0.73568 0.0
O98 O 0.97363 0.99157 0.73579 0.0
O99 O 0.94221 0.04819 0.75333 0.0
C100 C 0.12844 0.31009 0.79777 0.0
C101 C 0.13794 0.34218 0.77759 0.0
H102 H 0.14727 0.3882 0.73527 0.0
H103 H 0.0954 0.32728 0.70034 0.0
H104 H 0.03387 0.12199 0.8296 0.0
H105 H 0.10089 0.23299 0.83298 0.0
H106 H 0.15094 0.33433 0.81343 0.0
H107 H 0.16765 0.3906 0.77804 0.0
C108 C 0.01186 0.40564 0.26094 0.0
C109 C 0.0614 0.42477 0.27645 0.0
C110 C 0.01143 0.445 0.24468 0.0
C111 C 0.0607 0.50393 0.24359 0.0
C112 C 0.11128 0.4832 0.2747 0.0
C113 C 0.11066 0.52237 0.25862 0.0
C114 C 0.05887 0.54914 0.22871 0.0
C115 C 0.05625 0.40786 0.18115 0.0
C116 C 0.01203 0.3876 0.16332 0.0
C117 C 0.06812 0.45747 0.19499 0.0
C118 C 0.03503 0.48703 0.19165 0.0
C119 C 0.97971 0.41795 0.15995 0.0
C120 C 0.99089 0.46666 0.17394 0.0
C121 C 0.04828 0.54198 0.20493 0.0
C122 C 0.12227 0.79502 0.1781 0.0
C123 C 0.07859 0.78363 0.16083 0.0
C124 C 0.1162 0.74866 0.19205 0.0
C125 C 0.06645 0.69001 0.18895 0.0
C126 C 0.0293 0.72472 0.15757 0.0
C127 C 0.02362 0.67829 0.17135 0.0
C128 C 0.06011 0.64043 0.20344 0.0
C129 C 0.02584 0.75961 0.24887 0.0
C130 C 0.06754 0.78694 0.26726 0.0
C131 C 0.02605 0.71448 0.23562 0.0
C132 C 0.06829 0.69603 0.24036 0.0
C133 C 0.10949 0.7681 0.27204 0.0
C134 C 0.10959 0.72288 0.25882 0.0
C135 C 0.06648 0.64569 0.22727 0.0
H136 H 0.97249 0.36115 0.26193 0.0
H137 H 0.97187 0.43015 0.23352 0.0
H138 H 0.15071 0.4991 0.28601 0.0
H139 H 0.1491 0.56766 0.25812 0.0
H140 H 0.082 0.38568 0.18438 0.0
H141 H 0.10409 0.47334 0.2079 0.0
H142 H 0.94655 0.40518 0.14609 0.0
H143 H 0.96524 0.48901 0.1707 0.0
H144 H 0.16064 0.83993 0.18101 0.0
H145 H 0.15062 0.75856 0.20519 0.0
H146 H 0.99536 0.71444 0.14419 0.0
H147 H 0.98529 0.63331 0.16846 0.0
H148 H 0.99307 0.77318 0.24469 0.0
H149 H 0.99238 0.69322 0.22193 0.0
H150 H 0.14156 0.78748 0.28632 0.0
H151 H 0.14193 0.70877 0.26305 0.0
N152 N 0.06697 0.60047 0.23888 0.0
N153 N 0.05002 0.58839 0.19328 0.0
C154 C 0.72924 0.14282 0.5147 0.0
C155 C 0.72225 0.09512 0.50058 0.0
C156 C 0.68143 0.13708 0.52717 0.0
C157 C 0.6251 0.08397 0.52558 0.0
C158 C 0.66542 0.0418 0.49909 0.0
C159 C 0.61715 0.03664 0.51125 0.0
C160 C 0.57398 0.07952 0.53798 0.0
C161 C 0.68635 0.05123 0.59231 0.0
C162 C 0.71261 0.0977 0.609 0.0
C163 C 0.64377 0.04882 0.57623 0.0
C164 C 0.62649 0.09266 0.5766 0.0
C165 C 0.69684 0.14283 0.6086 0.0
C166 C 0.65378 0.13988 0.59278 0.0
C167 C 0.57624 0.08685 0.5617 0.0
C168 C 0.32691 0.03916 0.58169 0.0
C169 C 0.34283 0.08359 0.59878 0.0
C170 C 0.37135 0.03861 0.56869 0.0
C171 C 0.43249 0.08269 0.57248 0.0
C172 C 0.40415 0.12708 0.60265 0.0
C173 C 0.44837 0.12643 0.58973 0.0
C174 C 0.48086 0.08224 0.55954 0.0
C175 C 0.36952 0.11883 0.50874 0.0
C176 C 0.34793 0.0803 0.48958 0.0
C177 C 0.4119 0.11754 0.52387 0.0
C178 C 0.43182 0.07619 0.52046 0.0
C179 C 0.36852 0.03991 0.48583 0.0
C180 C 0.40999 0.03776 0.50118 0.0
C181 C 0.47909 0.07614 0.53565 0.0
H182 H 0.77142 0.18527 0.51591 0.0
H183 H 0.68812 0.17471 0.53774 0.0
H184 H 0.65818 0.00371 0.48872 0.0
H185 H 0.5738 0.9954 0.5097 0.0
H186 H 0.69673 0.01531 0.59221 0.0
H187 H 0.6225 0.01133 0.56414 0.0
H188 H 0.71709 0.18014 0.62077 0.0
H189 H 0.64121 0.17427 0.59333 0.0
H190 H 0.2801 0.00506 0.57826 0.0
H191 H 0.35799 0.00347 0.55584 0.0
H192 H 0.4182 0.16121 0.61596 0.0
H193 H 0.49523 0.16044 0.5932 0.0
H194 H 0.35475 0.15095 0.51167 0.0
H195 H 0.42996 0.14982 0.53791 0.0
H196 H 0.35252 0.01011 0.47101 0.0
H197 H 0.4253 0.00623 0.4979 0.0
N198 N 0.52559 0.07448 0.52586 0.0
N199 N 0.52967 0.08789 0.57152 0.0
C200 C 0.37099 0.36587 0.84304 0.0
C201 C 0.33739 0.38029 0.82762 0.0
C202 C 0.41383 0.40967 0.85827 0.0
C203 C 0.424 0.46866 0.85826 0.0
C204 C 0.34615 0.4389 0.82844 0.0
C205 C 0.38949 0.48272 0.84338 0.0
C206 C 0.47462 0.51755 0.87181 0.0
C207 C 0.33471 0.40515 0.92135 0.0
C208 C 0.35389 0.38077 0.93878 0.0
C209 C 0.37629 0.44849 0.90718 0.0
C210 C 0.43811 0.4679 0.90978 0.0
C211 C 0.41584 0.40035 0.94141 0.0
C212 C 0.45748 0.44369 0.92715 0.0
C213 C 0.48299 0.51616 0.89552 0.0
C214 C 0.68927 0.77013 0.91594 0.0
C215 C 0.72053 0.75828 0.9331 0.0
C216 C 0.6411 0.72266 0.90365 0.0
C217 C 0.62478 0.66253 0.90778 0.0
C218 C 0.70294 0.69842 0.93793 0.0
C219 C 0.6555 0.6509 0.92534 0.0
C220 C 0.57446 0.61161 0.89455 0.0
C221 C 0.71082 0.72419 0.8431 0.0
C222 C 0.68983 0.753 0.82835 0.0
C223 C 0.6709 0.67843 0.857 0.0
C224 C 0.60933 0.66064 0.85632 0.0
C225 C 0.62802 0.73429 0.82745 0.0
C226 C 0.58813 0.68821 0.84114 0.0
C227 C 0.56616 0.61221 0.87079 0.0
H228 H 0.36604 0.32149 0.84275 0.0
H229 H 0.44075 0.39816 0.86936 0.0
H230 H 0.32014 0.45135 0.81727 0.0
H231 H 0.39668 0.52802 0.84313 0.0
H232 H 0.28738 0.39086 0.91865 0.0
H233 H 0.36002 0.4677 0.8945 0.0
H234 H 0.43238 0.38324 0.95483 0.0
H235 H 0.50498 0.45848 0.92975 0.0
H236 H 0.70164 0.8161 0.91226 0.0
H237 H 0.61648 0.73314 0.89103 0.0
H238 H 0.72641 0.68853 0.95127 0.0
H239 H 0.64325 0.60504 0.92915 0.0
H240 H 0.75825 0.73782 0.84418 0.0
H241 H 0.68807 0.65696 0.86828 0.0
H242 H 0.61046 0.75517 0.81605 0.0
H243 H 0.54072 0.67472 0.84014 0.0
N244 N 0.51637 0.56548 0.86047 0.0
N245 N 0.53279 0.56327 0.90594 0.0
H246 H 0.92525 0.17834 0.08939 0.0
H247 H 0.11248 0.22746 0.096 0.0
H248 H 0.13021 0.30199 0.12573 0.0
H249 H 0.09364 0.3575 0.14802 0.0
H250 H 0.90407 0.30172 0.14337 0.0
H251 H 0.88649 0.22601 0.11458 0.0
C252 C 0.96986 0.20515 0.09743 0.0
C253 C 0.01761 0.19786 0.09035 0.0
C254 C 0.97948 0.24713 0.11473 0.0
C255 C 0.07496 0.23224 0.10116 0.0
C256 C 0.08516 0.275 0.1181 0.0
C257 C 0.04819 0.32811 0.14112 0.0
C258 C 1.00062 0.33665 0.14767 0.0
C259 C 0.03788 0.28337 0.12483 0.0
C260 C 0.94214 0.29791 0.13825 0.0
C261 C 0.9318 0.25409 0.12185 0.0
H262 H 0.96855 0.1568 0.45761 0.0
H263 H 0.84765 0.03881 0.40399 0.0
H264 H 0.76087 0.02441 0.42504 0.0
H265 H 0.7199 0.04711 0.45846 0.0
H266 H 0.84252 0.15678 0.5135 0.0
H267 H 0.92796 0.17285 0.4919 0.0
C268 C 0.92333 0.12762 0.45048 0.0
C269 C 0.91483 0.09905 0.42918 0.0
C270 C 0.87383 0.1183 0.4629 0.0
C271 C 0.85561 0.06132 0.42036 0.0
C272 C 0.80597 0.05311 0.43239 0.0
C273 C 0.76512 0.07376 0.46597 0.0
C274 C 0.77414 0.10147 0.48758 0.0
C275 C 0.81455 0.08143 0.45371 0.0
C276 C 0.83362 0.13632 0.49671 0.0
C277 C 0.8828 0.14517 0.48444 0.0
H278 H 0.84929 0.98967 0.77484 0.0
H279 H 0.92941 0.88656 0.75242 0.0
H280 H 0.85993 0.802 0.77503 0.0
H281 H 0.77715 0.75783 0.8018 0.0
H282 H 0.69721 0.86152 0.82346 0.0
H283 H 0.76599 0.94533 0.80052 0.0
C284 C 0.85165 0.94873 0.77478 0.0
C285 C 0.89483 0.9448 0.76192 0.0
C286 C 0.81163 0.90033 0.78778 0.0
C287 C 0.89664 0.891 0.76206 0.0
C288 C 0.85703 0.84262 0.77507 0.0
C289 C 0.7751 0.79893 0.80154 0.0
C290 C 0.73219 0.8035 0.81432 0.0
C291 C 0.81459 0.84692 0.78813 0.0
C292 C 0.72947 0.85671 0.81362 0.0
C293 C 0.7689 0.90471 0.80057 0.0
H294 H 0.1343 0.99472 0.09335 0.0
H295 H 0.94686 0.93322 0.10469 0.0
H296 H 0.94327 0.8599 0.13123 0.0
H297 H 0.991 0.8093 0.14997 0.0
H298 H 0.17796 0.86881 0.13941 0.0
H299 H 0.18426 0.94686 0.11412 0.0
C300 C 0.09297 0.9657 0.10183 0.0
C301 C 0.04088 0.96931 0.09685 0.0
C302 C 0.09091 0.9229 0.11716 0.0
C303 C 0.98761 0.93131 0.10802 0.0
C304 C 0.98536 0.88915 0.12323 0.0
C305 C 0.03309 0.83929 0.14208 0.0
C306 C 0.08368 0.8329 0.14635 0.0
C307 C 0.03632 0.88383 0.12764 0.0
C308 C 0.13833 0.8729 0.1364 0.0
C309 C 0.14189 0.91738 0.12188 0.0
H310 H 0.19875 0.11054 0.40907 0.0
H311 H 0.0548 0.01723 0.45483 0.0
H312 H 0.12575 0.01475 0.48305 0.0
H313 H 0.22939 0.03967 0.49461 0.0
H314 H 0.37187 0.12753 0.44784 0.0
H315 H 0.30142 0.13256 0.42009 0.0
C316 C 0.18338 0.0904 0.42537 0.0
C317 C 0.12254 0.06618 0.43041 0.0
C318 C 0.22413 0.08812 0.44119 0.0
C319 C 0.102 0.0375 0.451 0.0
C320 C 0.14244 0.03601 0.46705 0.0
C321 C 0.24465 0.0599 0.47832 0.0
C322 C 0.30528 0.0834 0.47311 0.0
C323 C 0.20366 0.0614 0.46236 0.0
C324 C 0.32511 0.10918 0.45201 0.0
C325 C 0.28494 0.11192 0.43621 0.0
H326 H 0.17164 0.22741 0.74305 0.0
H327 H 0.11919 0.08299 0.78966 0.0
H328 H 0.18964 0.1542 0.81893 0.0
H329 H 0.26273 0.25849 0.83152 0.0
H330 H 0.31887 0.40154 0.78364 0.0
H331 H 0.24955 0.3302 0.75477 0.0
C332 C 0.17561 0.21187 0.7597 0.0
C333 C 0.13909 0.15094 0.76468 0.0
C334 C 0.21656 0.2528 0.77619 0.0
C335 C 0.14609 0.13028 0.78582 0.0
C336 C 0.18628 0.17088 0.80247 0.0
C337 C 0.26041 0.27404 0.81472 0.0
C338 C 0.29559 0.33569 0.80999 0.0
C339 C 0.22123 0.23245 0.79792 0.0
C340 C 0.29139 0.35479 0.78807 0.0
C341 C 0.25224 0.31388 0.77139 0.0
H342 H 0.86467 0.1138 0.69773 0.0
H343 H 0.94348 0.04394 0.65188 0.0
H344 H 0.87768 0.04332 0.62081 0.0
H345 H 0.79876 0.06445 0.60658 0.0
H346 H 0.7177 0.12955 0.65353 0.0
H347 H 0.78431 0.13121 0.68405 0.0
C348 C 0.8677 0.09846 0.68096 0.0
C349 C 0.90926 0.07918 0.6772 0.0
C350 C 0.8296 0.09785 0.66325 0.0
C351 C 0.91187 0.05892 0.65533 0.0
C352 C 0.87434 0.05871 0.63752 0.0
C353 C 0.79523 0.07849 0.62351 0.0
C354 C 0.75356 0.09767 0.62753 0.0
C355 C 0.83306 0.07821 0.64128 0.0
C356 C 0.75023 0.1161 0.64965 0.0
C357 C 0.78799 0.11653 0.66725 0.0
H358 H 0.96199 0.97416 0.97646 0.0
H359 H 0.84834 0.93625 0.03321 0.0
H360 H 0.76299 0.85499 0.0114 0.0
H361 H 0.72111 0.79365 0.9762 0.0
H362 H 0.83261 0.8347 0.91864 0.0
H363 H 0.91836 0.91623 0.94045 0.0
C364 C 0.91827 0.94825 0.98385 0.0
C365 C 0.91059 0.9616 0.0061 0.0
C366 C 0.86929 0.90223 0.97107 0.0
C367 C 0.85444 0.92733 0.01585 0.0
C368 C 0.80588 0.88077 0.00346 0.0
C369 C 0.7643 0.82066 0.96855 0.0
C370 C 0.77127 0.80836 0.94607 0.0
C371 C 0.81279 0.86775 0.98107 0.0
C372 C 0.82683 0.84365 0.93603 0.0
C373 C 0.87567 0.89 0.94848 0.0
H374 H 0.11087 1.0025 0.3319 0.0
H375 H 0.91629 0.90047 0.33199 0.0
H376 H 0.91493 0.8269 0.30509 0.0
H377 H 0.96973 0.78888 0.2832 0.0
H378 H 0.16442 0.89175 0.28366 0.0
H379 H 0.16496 0.96742 0.3089 0.0
C380 C 0.06802 0.96443 0.32594 0.0
C381 C 0.01374 0.95691 0.33402 0.0
C382 C 0.06767 0.92215 0.31073 0.0
C383 C 0.95872 0.90734 0.32605 0.0
C384 C 0.95795 0.86517 0.31072 0.0
C385 C 0.01222 0.82826 0.28858 0.0
C386 C 0.06701 0.83435 0.28165 0.0
C387 C 0.01223 0.87174 0.30316 0.0
C388 C 0.12168 0.88538 0.28901 0.0
C389 C 0.12203 0.92886 0.30336 0.0
H390 H 0.1815 0.1355 0.66293 0.0
H391 H 0.09024 0.94231 0.66862 0.0
H392 H 0.15703 0.9371 0.64124 0.0
H393 H 0.24555 0.98839 0.61741 0.0
H394 H 0.33567 0.18165 0.61188 0.0
H395 H 0.26532 0.18577 0.63753 0.0
C396 C 0.17587 0.09214 0.65809 0.0
C397 C 0.13113 0.03941 0.66793 0.0
C398 C 0.21459 0.08953 0.64246 0.0
C399 C 0.12435 0.98363 0.66134 0.0
C400 C 0.16264 0.98063 0.64571 0.0
C401 C 0.24922 0.03128 0.62155 0.0
C402 C 0.29634 0.0847 0.61289 0.0
C403 C 0.20848 0.03341 0.63639 0.0
C404 C 0.30063 0.13996 0.61861 0.0
C405 C 0.26022 0.14237 0.63321 0.0
H406 H 0.18045 0.16789 1.00172 0.0
H407 H 0.08957 0.2708 1.00107 0.0
H408 H 0.16695 0.34614 0.97794 0.0
H409 H 0.25874 0.38225 0.95701 0.0
H410 H 0.34924 0.27933 0.95595 0.0
H411 H 0.2746 0.20557 0.98085 0.0
C412 C 0.17791 0.20706 0.99667 0.0
C413 C 0.12889 0.21326 1.00313 0.0
C414 C 0.22254 0.2504 0.983 0.0
C415 C 0.12631 0.26431 0.99627 0.0
C416 C 0.17067 0.30765 0.98302 0.0
C417 C 0.26196 0.34341 0.96201 0.0
C418 C 0.30942 0.3363 0.9544 0.0
C419 C 0.21854 0.30085 0.97605 0.0
C420 C 0.3135 0.28633 0.96162 0.0
C421 C 0.27058 0.24389 0.97578 0.0
H422 H 0.08461 0.29982 0.36489 0.0
H423 H 1.00128 0.14322 0.31997 0.0
H424 H 0.9971 0.20433 0.28926 0.0
H425 H 0.01956 0.30321 0.27479 0.0
H426 H 0.10065 0.45835 0.32041 0.0
H427 H 0.10362 0.39685 0.35099 0.0
C428 C 0.06542 0.27881 0.34841 0.0
C429 C 0.04349 0.21687 0.34485 0.0
C430 C 0.06304 0.31412 0.33081 0.0
C431 C 0.01852 0.19072 0.32332 0.0
C432 C 0.01616 0.22569 0.30568 0.0
C433 C 0.03736 0.32342 0.29147 0.0
C434 C 0.06057 0.38562 0.29512 0.0
C435 C 0.03854 0.28755 0.30919 0.0
C436 C 0.08375 0.41099 0.31689 0.0
C437 C 0.08511 0.37575 0.33449 0.0
loop_
_geom_bond_atom_site_label_1
_geom_bond_atom_site_label_2
_geom_bond_distance
_geom_bond_site_symmetry_2
_ccdc_geom_bond_type
Mn0 O5 2.095 . S
Mn0 O15 2.162 . S
Mn0 O16 2.297 1_545 S
Mn0 O24 2.385 1_545 S
Mn0 O25 2.209 1_455 S
Mn0 O26 2.094 . S
Mn1 O6 2.121 . S
Mn1 N8 2.257 . S
Mn1 N17 2.282 1_554 S
Mn1 O25 2.215 . S
Mn1 O27 2.117 1_655 S
C2 O24 1.233 1_645 S
C2 O25 1.284 . S
C3 O15 1.281 1_565 S
C3 O16 1.236 . S
C4 O26 1.240 . S
C4 O27 1.264 . S
O5 Mn0 2.095 . S
O5 C14 1.250 . S
O6 Mn1 2.121 . S
O6 C14 1.258 1_655 S
C7 N8 1.326 . S
C7 C11 1.460 . S
C7 H13 0.929 . S
N8 Mn1 2.257 . S
N8 C7 1.326 . S
N8 C12 1.362 1_554 S
C9 C10 1.258 1_556 S
C9 C12 1.431 . S
C9 C29 1.449 . S
C10 C9 1.258 1_554 S
C10 C11 1.477 . S
C10 H30 0.935 . S
C11 C7 1.460 . S
C11 C10 1.477 . S
C11 H31 0.930 . S
C12 N8 1.362 1_556 S
C12 C9 1.431 . S
C12 C22 1.476 . S
H13 C7 0.929 . S
C14 O5 1.250 . S
C14 O6 1.258 1_455 S
O15 Mn0 2.162 . S
O15 C3 1.281 1_545 S
O16 Mn0 2.297 1_565 S
O16 C3 1.236 . S
N17 Mn1 2.282 1_556 S
N17 C18 1.328 . S
N17 C22 1.318 . S
C18 N17 1.328 . S
C18 C19 1.457 . S
C18 H23 0.929 1_655 S
C19 C18 1.457 . S
C19 C20 1.291 . S
C19 H32 0.931 . S
C20 C19 1.291 . S
C20 C21 1.373 . S
C20 H33 0.929 . S
C21 C20 1.373 . S
C21 C22 1.396 . S
C21 C28 1.403 . S
C22 C12 1.476 . S
C22 N17 1.318 . S
C22 C21 1.396 . S
H23 C18 0.929 1_455 S
O24 Mn0 2.385 1_565 S
O24 C2 1.233 1_465 S
O25 Mn0 2.209 1_655 S
O25 Mn1 2.215 . S
O25 C2 1.284 . S
O26 Mn0 2.094 . S
O26 C4 1.240 . S
O27 Mn1 2.117 1_455 S
O27 C4 1.264 . S
C28 C21 1.403 . S
C28 C29 1.399 . S
C28 H34 0.929 . S
C29 C9 1.449 . S
C29 C28 1.399 . S
C29 H35 0.930 . S
H30 C10 0.935 . S
H31 C11 0.930 . S
H32 C19 0.931 . S
H33 C20 0.929 . S
H34 C28 0.929 . S
H35 C29 0.930 . S
Mn36 O41 2.096 . S
Mn36 O51 2.162 1_545 S
Mn36 O52 2.295 1_655 S
Mn36 O60 2.384 1_655 S
Mn36 O61 2.207 1_655 S
Mn36 O62 2.095 . S
Mn37 O42 2.121 . S
Mn37 N44 2.257 . S
Mn37 N53 2.282 . S
Mn37 O61 2.215 . S
Mn37 O63 2.117 1_455 S
C38 O60 1.234 . S
C38 O61 1.283 . S
C39 O51 1.281 1_455 S
C39 O52 1.236 1_565 S
C40 O62 1.240 . S
C40 O63 1.264 . S
O41 Mn36 2.096 . S
O41 C50 1.250 1_655 S
O42 Mn37 2.121 . S
O42 C50 1.258 . S
C43 N44 1.326 . S
C43 C47 1.460 . S
C43 H49 0.929 . S
N44 Mn37 2.257 . S
N44 C43 1.326 . S
N44 C48 1.362 . S
C45 C46 1.258 . S
C45 C48 1.431 . S
C45 C65 1.449 . S
C46 C45 1.258 . S
C46 C47 1.477 . S
C46 H66 0.931 . S
C47 C43 1.460 . S
C47 C46 1.477 . S
C47 H67 0.930 . S
C48 N44 1.362 . S
C48 C45 1.431 . S
C48 C58 1.476 . S
H49 C43 0.929 . S
C50 O41 1.250 1_455 S
C50 O42 1.258 . S
O51 Mn36 2.162 1_565 S
O51 C39 1.281 1_655 S
O52 Mn36 2.295 1_455 S
O52 C39 1.236 1_545 S
N53 Mn37 2.282 . S
N53 C54 1.328 . S
N53 C58 1.318 . S
C54 N53 1.328 . S
C54 C55 1.457 . S
C54 H59 0.929 . S
C55 C54 1.457 . S
C55 C56 1.291 . S
C55 H68 0.931 . S
C56 C55 1.291 . S
C56 C57 1.373 . S
C56 H69 0.929 . S
C57 C56 1.373 . S
C57 C58 1.396 . S
C57 C64 1.403 . S
C58 C48 1.476 . S
C58 N53 1.318 . S
C58 C57 1.396 . S
H59 C54 0.929 . S
O60 Mn36 2.384 1_455 S
O60 C38 1.234 . S
O61 Mn36 2.207 1_455 S
O61 Mn37 2.215 . S
O61 C38 1.283 . S
O62 Mn36 2.095 . S
O62 C40 1.240 . S
O63 Mn37 2.117 1_655 S
O63 C40 1.264 . S
C64 C57 1.403 . S
C64 C65 1.399 . S
C64 H70 0.929 . S
C65 C45 1.449 . S
C65 C64 1.399 . S
C65 H71 0.930 . S
H66 C46 0.931 . S
H67 C47 0.930 . S
H68 C55 0.931 . S
H69 C56 0.929 . S
H70 C64 0.929 . S
H71 C65 0.930 . S
Mn72 O77 2.095 1_455 S
Mn72 O87 2.162 . S
Mn72 O88 2.297 . S
Mn72 O96 2.385 . S
Mn72 O97 2.209 . S
Mn72 O98 2.094 1_445 S
Mn73 O78 2.121 . S
Mn73 N80 2.257 . S
Mn73 N89 2.282 1_655 S
Mn73 O97 2.215 1_655 S
Mn73 O99 2.117 . S
C74 O96 1.234 . S
C74 O97 1.283 . S
C75 O87 1.281 . S
C75 O88 1.236 . S
C76 O98 1.240 . S
C76 O99 1.264 1_565 S
O77 Mn72 2.095 1_655 S
O77 C86 1.250 . S
O78 Mn73 2.121 . S
O78 C86 1.258 . S
C79 N80 1.326 . S
C79 C83 1.460 1_655 S
C79 H85 0.929 . S
N80 Mn73 2.257 . S
N80 C79 1.326 . S
N80 C84 1.362 1_655 S
C81 C82 1.258 . S
C81 C84 1.431 . S
C81 C101 1.449 . S
C82 C81 1.258 . S
C82 C83 1.477 . S
C82 H102 0.931 . S
C83 C79 1.460 1_455 S
C83 C82 1.477 . S
C83 H103 0.930 1_455 S
C84 N80 1.362 1_455 S
C84 C81 1.431 . S
C84 C94 1.476 . S
H85 C79 0.929 . S
C86 O77 1.250 . S
C86 O78 1.258 . S
O87 Mn72 2.162 . S
O87 C75 1.281 . S
O88 Mn72 2.297 . S
O88 C75 1.236 . S
N89 Mn73 2.282 1_455 S
N89 C90 1.328 . S
N89 C94 1.318 . S
C90 N89 1.328 . S
C90 C91 1.457 . S
C90 H95 0.933 1_455 S
C91 C90 1.457 . S
C91 C92 1.291 . S
C91 H104 0.931 . S
C92 C91 1.291 . S
C92 C93 1.373 . S
C92 H105 0.929 . S
C93 C92 1.373 . S
C93 C94 1.396 . S
C93 C100 1.403 . S
C94 C84 1.476 . S
C94 N89 1.318 . S
C94 C93 1.396 . S
H95 C90 0.933 1_655 S
O96 Mn72 2.385 . S
O96 C74 1.234 . S
O97 Mn72 2.209 . S
O97 Mn73 2.215 1_455 S
O97 C74 1.283 . S
O98 Mn72 2.094 1_665 S
O98 C76 1.240 . S
O99 Mn73 2.117 . S
O99 C76 1.264 1_545 S
C100 C93 1.403 . S
C100 C101 1.399 . S
C100 H106 0.929 . S
C101 C81 1.449 . S
C101 C100 1.399 . S
C101 H107 0.930 . S
H102 C82 0.931 . S
H103 C83 0.930 1_655 S
H104 C91 0.931 . S
H105 C92 0.929 . S
H106 C100 0.929 . S
H107 C101 0.930 . S
C108 C109 1.384 1_655 S
C108 C110 1.384 . S
C108 H136 0.931 . S
C109 C108 1.384 1_455 S
C109 C112 1.382 . S
C110 C108 1.384 . S
C110 C111 1.381 1_655 S
C110 H137 0.930 . S
C111 C110 1.381 1_455 S
C111 C113 1.381 . S
C111 C114 1.487 . S
C112 C109 1.382 . S
C112 C113 1.387 . S
C112 H138 0.930 . S
C113 C111 1.381 . S
C113 C112 1.387 . S
C113 H139 0.931 . S
C114 C111 1.487 . S
C114 C121 1.399 . S
C114 N152 1.343 . S
C115 C116 1.384 . S
C115 C117 1.384 . S
C115 H140 0.931 . S
C116 C115 1.384 . S
C116 C119 1.382 1_455 S
C117 C115 1.384 . S
C117 C118 1.381 . S
C117 H141 0.930 . S
C118 C117 1.381 . S
C118 C120 1.381 1_455 S
C118 C121 1.487 . S
C119 C116 1.382 1_655 S
C119 C120 1.387 . S
C119 H142 0.930 . S
C120 C118 1.381 1_655 S
C120 C119 1.387 . S
C120 H143 0.931 . S
C121 C114 1.399 . S
C121 C118 1.487 . S
C121 N153 1.343 . S
C122 C123 1.384 . S
C122 C124 1.384 . S
C122 H144 0.931 . S
C123 C122 1.384 . S
C123 C126 1.382 1_455 S
C124 C122 1.384 . S
C124 C125 1.381 . S
C124 H145 0.930 . S
C125 C124 1.381 . S
C125 C127 1.381 1_455 S
C125 C128 1.487 . S
C126 C123 1.382 1_655 S
C126 C127 1.387 . S
C126 H146 0.930 . S
C127 C125 1.381 1_655 S
C127 C126 1.387 . S
C127 H147 0.931 . S
C128 C125 1.487 . S
C128 C135 1.399 . S
C128 N153 1.343 . S
C129 C130 1.384 1_655 S
C129 C131 1.384 . S
C129 H148 0.931 . S
C130 C129 1.384 1_455 S
C130 C133 1.382 . S
C131 C129 1.384 . S
C131 C132 1.381 1_655 S
C131 H149 0.930 . S
C132 C131 1.381 1_455 S
C132 C134 1.381 . S
C132 C135 1.487 . S
C133 C130 1.382 . S
C133 C134 1.387 . S
C133 H150 0.930 . S
C134 C132 1.381 . S
C134 C133 1.387 . S
C134 H151 0.931 . S
C135 C128 1.399 . S
C135 C132 1.487 . S
C135 N152 1.343 . S
H136 C108 0.931 . S
H137 C110 0.930 . S
H138 C112 0.930 . S
H139 C113 0.931 . S
H140 C115 0.931 . S
H141 C117 0.930 . S
H142 C119 0.930 . S
H143 C120 0.931 . S
H144 C122 0.931 . S
H145 C124 0.930 . S
H146 C126 0.930 . S
H147 C127 0.931 . S
H148 C129 0.931 . S
H149 C131 0.930 . S
H150 C133 0.930 . S
H151 C134 0.931 . S
N152 C114 1.343 . S
N152 C135 1.343 . S
N153 C121 1.343 . S
N153 C128 1.343 . S
C154 C155 1.384 . S
C154 C156 1.384 . S
C154 H182 0.931 . S
C155 C154 1.384 . S
C155 C158 1.382 . S
C156 C154 1.384 . S
C156 C157 1.381 . S
C156 H183 0.930 . S
C157 C156 1.381 . S
C157 C159 1.381 . S
C157 C160 1.487 . S
C158 C155 1.382 . S
C158 C159 1.387 . S
C158 H184 0.930 . S
C159 C157 1.381 . S
C159 C158 1.387 . S
C159 H185 0.931 . S
C160 C157 1.487 . S
C160 C167 1.399 . S
C160 N198 1.343 . S
C161 C162 1.384 . S
C161 C163 1.384 . S
C161 H186 0.931 . S
C162 C161 1.384 . S
C162 C165 1.382 . S
C163 C161 1.384 . S
C163 C164 1.381 . S
C163 H187 0.930 . S
C164 C163 1.381 . S
C164 C166 1.381 . S
C164 C167 1.487 . S
C165 C162 1.382 . S
C165 C166 1.387 . S
C165 H188 0.930 . S
C166 C164 1.381 . S
C166 C165 1.387 . S
C166 H189 0.931 . S
C167 C160 1.399 . S
C167 C164 1.487 . S
C167 N199 1.343 . S
C168 C169 1.384 . S
C168 C170 1.384 . S
C168 H190 0.931 . S
C169 C168 1.384 . S
C169 C172 1.382 . S
C170 C168 1.384 . S
C170 C171 1.381 . S
C170 H191 0.930 . S
C171 C170 1.381 . S
C171 C173 1.381 . S
C171 C174 1.487 . S
C172 C169 1.382 . S
C172 C173 1.387 . S
C172 H192 0.930 . S
C173 C171 1.381 . S
C173 C172 1.387 . S
C173 H193 0.931 . S
C174 C171 1.487 . S
C174 C181 1.399 . S
C174 N199 1.343 . S
C175 C176 1.384 . S
C175 C177 1.384 . S
C175 H194 0.931 . S
C176 C175 1.384 . S
C176 C179 1.382 . S
C177 C175 1.384 . S
C177 C178 1.381 . S
C177 H195 0.930 . S
C178 C177 1.381 . S
C178 C180 1.381 . S
C178 C181 1.487 . S
C179 C176 1.382 . S
C179 C180 1.387 . S
C179 H196 0.930 . S
C180 C178 1.381 . S
C180 C179 1.387 . S
C180 H197 0.931 . S
C181 C174 1.399 . S
C181 C178 1.487 . S
C181 N198 1.343 . S
H182 C154 0.931 . S
H183 C156 0.930 . S
H184 C158 0.930 . S
H185 C159 0.931 . S
H186 C161 0.931 . S
H187 C163 0.930 . S
H188 C165 0.930 . S
H189 C166 0.931 . S
H190 C168 0.931 . S
H191 C170 0.930 . S
H192 C172 0.930 . S
H193 C173 0.931 . S
H194 C175 0.931 . S
H195 C177 0.930 . S
H196 C179 0.930 . S
H197 C180 0.931 . S
N198 C160 1.343 . S
N198 C181 1.343 . S
N199 C167 1.343 . S
N199 C174 1.343 . S
C200 C201 1.384 . S
C200 C202 1.384 . S
C200 H228 0.931 . S
C201 C200 1.384 . S
C201 C204 1.382 . S
C202 C200 1.384 . S
C202 C203 1.381 . S
C202 H229 0.930 . S
C203 C202 1.381 . S
C203 C205 1.381 . S
C203 C206 1.487 . S
C204 C201 1.382 . S
C204 C205 1.387 . S
C204 H230 0.930 . S
C205 C203 1.381 . S
C205 C204 1.387 . S
C205 H231 0.931 . S
C206 C203 1.487 . S
C206 C213 1.399 . S
C206 N244 1.343 . S
C207 C208 1.384 . S
C207 C209 1.384 . S
C207 H232 0.931 . S
C208 C207 1.384 . S
C208 C211 1.382 . S
C209 C207 1.384 . S
C209 C210 1.381 . S
C209 H233 0.930 . S
C210 C209 1.381 . S
C210 C212 1.381 . S
C210 C213 1.487 . S
C211 C208 1.382 . S
C211 C212 1.387 . S
C211 H234 0.930 . S
C212 C210 1.381 . S
C212 C211 1.387 . S
C212 H235 0.931 . S
C213 C206 1.399 . S
C213 C210 1.487 . S
C213 N245 1.343 . S
C214 C215 1.384 . S
C214 C216 1.384 . S
C214 H236 0.931 . S
C215 C214 1.384 . S
C215 C218 1.382 . S
C216 C214 1.384 . S
C216 C217 1.381 . S
C216 H237 0.930 . S
C217 C216 1.381 . S
C217 C219 1.381 . S
C217 C220 1.487 . S
C218 C215 1.382 . S
C218 C219 1.387 . S
C218 H238 0.930 . S
C219 C217 1.381 . S
C219 C218 1.387 . S
C219 H239 0.931 . S
C220 C217 1.487 . S
C220 C227 1.399 . S
C220 N245 1.343 . S
C221 C222 1.384 . S
C221 C223 1.384 . S
C221 H240 0.931 . S
C222 C221 1.384 . S
C222 C225 1.382 . S
C223 C221 1.384 . S
C223 C224 1.381 . S
C223 H241 0.930 . S
C224 C223 1.381 . S
C224 C226 1.381 . S
C224 C227 1.487 . S
C225 C222 1.382 . S
C225 C226 1.387 . S
C225 H242 0.930 . S
C226 C224 1.381 . S
C226 C225 1.387 . S
C226 H243 0.931 . S
C227 C220 1.399 . S
C227 C224 1.487 . S
C227 N244 1.343 . S
H228 C200 0.931 . S
H229 C202 0.930 . S
H230 C204 0.930 . S
H231 C205 0.931 . S
H232 C207 0.931 . S
H233 C209 0.930 . S
H234 C211 0.930 . S
H235 C212 0.931 . S
H236 C214 0.931 . S
H237 C216 0.930 . S
H238 C218 0.930 . S
H239 C219 0.931 . S
H240 C221 0.931 . S
H241 C223 0.930 . S
H242 C225 0.930 . S
H243 C226 0.931 . S
N244 C206 1.343 . S
N244 C227 1.343 . S
N245 C213 1.343 . S
N245 C220 1.343 . S
H246 C252 0.941 . S
H247 C255 0.930 . S
H248 C256 0.930 . S
H249 C257 0.930 . S
H250 C260 0.930 . S
H251 C261 0.930 . S
C252 H246 0.941 . S
C252 C253 1.339 1_655 S
C252 C254 1.419 1_655 S
C253 C252 1.339 1_455 S
C253 C255 1.419 . S
C254 C252 1.419 1_455 S
C254 C259 1.425 . S
C254 C261 1.409 1_455 S
C255 H247 0.930 . S
C255 C253 1.419 . S
C255 C256 1.362 . S
C256 H248 0.930 . S
C256 C255 1.362 . S
C256 C259 1.409 . S
C257 H249 0.930 . S
C257 C258 1.355 . S
C257 C259 1.415 . S
C258 C257 1.355 . S
C258 C260 1.419 1_455 S
C259 C254 1.425 . S
C259 C256 1.409 . S
C259 C257 1.415 . S
C260 H250 0.930 . S
C260 C258 1.419 1_655 S
C260 C261 1.362 . S
C261 H251 0.930 . S
C261 C254 1.409 1_655 S
C261 C260 1.362 . S
H262 C268 0.930 . S
H263 C271 0.930 . S
H264 C272 0.930 . S
H265 C273 0.930 . S
H266 C276 0.930 . S
H267 C277 0.930 . S
C268 H262 0.930 . S
C268 C269 1.355 . S
C268 C270 1.415 . S
C269 C268 1.355 . S
C269 C271 1.419 . S
C270 C268 1.415 . S
C270 C275 1.425 . S
C270 C277 1.409 . S
C271 H263 0.930 . S
C271 C269 1.419 . S
C271 C272 1.362 . S
C272 H264 0.930 . S
C272 C271 1.362 . S
C272 C275 1.409 . S
C273 H265 0.930 . S
C273 C274 1.355 . S
C273 C275 1.415 . S
C274 C273 1.355 . S
C274 C276 1.419 . S
C275 C270 1.425 . S
C275 C272 1.409 . S
C275 C273 1.415 . S
C276 H266 0.930 . S
C276 C274 1.419 . S
C276 C277 1.362 . S
C277 H267 0.930 . S
C277 C270 1.409 . S
C277 C276 1.362 . S
H278 C284 0.930 . S
H279 C287 0.930 . S
H280 C288 0.930 . S
H281 C289 0.930 . S
H282 C292 0.930 . S
H283 C293 0.930 . S
C284 H278 0.930 . S
C284 C285 1.355 . S
C284 C286 1.415 . S
C285 C284 1.355 . S
C285 C287 1.419 . S
C286 C284 1.415 . S
C286 C291 1.425 . S
C286 C293 1.409 . S
C287 H279 0.930 . S
C287 C285 1.419 . S
C287 C288 1.362 . S
C288 H280 0.930 . S
C288 C287 1.362 . S
C288 C291 1.409 . S
C289 H281 0.930 . S
C289 C290 1.355 . S
C289 C291 1.415 . S
C290 C289 1.355 . S
C290 C292 1.419 . S
C291 C286 1.425 . S
C291 C288 1.409 . S
C291 C289 1.415 . S
C292 H282 0.930 . S
C292 C290 1.419 . S
C292 C293 1.362 . S
C293 H283 0.930 . S
C293 C286 1.409 . S
C293 C292 1.362 . S
H294 C300 0.930 . S
H295 C303 0.930 . S
H296 C304 0.930 . S
H297 C305 0.930 1_655 S
H298 C308 0.930 . S
H299 C309 0.930 . S
C300 H294 0.930 . S
C300 C301 1.355 . S
C300 C302 1.415 . S
C301 C300 1.355 . S
C301 C303 1.419 1_455 S
C302 C300 1.415 . S
C302 C307 1.425 . S
C302 C309 1.409 . S
C303 H295 0.930 . S
C303 C301 1.419 1_655 S
C303 C304 1.362 . S
C304 H296 0.930 . S
C304 C303 1.362 . S
C304 C307 1.409 1_655 S
C305 H297 0.930 1_455 S
C305 C306 1.355 . S
C305 C307 1.415 . S
C306 C305 1.355 . S
C306 C308 1.419 . S
C307 C302 1.425 . S
C307 C304 1.409 1_455 S
C307 C305 1.415 . S
C308 H298 0.930 . S
C308 C306 1.419 . S
C308 C309 1.362 . S
C309 H299 0.930 . S
C309 C302 1.409 . S
C309 C308 1.362 . S
H310 C316 0.930 . S
H311 C319 0.930 . S
H312 C320 0.930 . S
H313 C321 0.930 . S
H314 C324 0.930 . S
H315 C325 0.930 . S
C316 H310 0.930 . S
C316 C317 1.355 . S
C316 C318 1.415 . S
C317 C316 1.355 . S
C317 C319 1.419 . S
C318 C316 1.415 . S
C318 C323 1.425 . S
C318 C325 1.409 . S
C319 H311 0.930 . S
C319 C317 1.419 . S
C319 C320 1.362 . S
C320 H312 0.930 . S
C320 C319 1.362 . S
C320 C323 1.409 . S
C321 H313 0.930 . S
C321 C322 1.355 . S
C321 C323 1.415 . S
C322 C321 1.355 . S
C322 C324 1.419 . S
C323 C318 1.425 . S
C323 C320 1.409 . S
C323 C321 1.415 . S
C324 H314 0.930 . S
C324 C322 1.419 . S
C324 C325 1.362 . S
C325 H315 0.930 . S
C325 C318 1.409 . S
C325 C324 1.362 . S
H326 C332 0.930 . S
H327 C335 0.930 . S
H328 C336 0.930 . S
H329 C337 0.930 . S
H330 C340 0.930 . S
H331 C341 0.930 . S
C332 H326 0.930 . S
C332 C333 1.355 . S
C332 C334 1.415 . S
C333 C332 1.355 . S
C333 C335 1.419 . S
C334 C332 1.415 . S
C334 C339 1.425 . S
C334 C341 1.409 . S
C335 H327 0.930 . S
C335 C333 1.419 . S
C335 C336 1.362 . S
C336 H328 0.930 . S
C336 C335 1.362 . S
C336 C339 1.409 . S
C337 H329 0.930 . S
C337 C338 1.355 . S
C337 C339 1.415 . S
C338 C337 1.355 . S
C338 C340 1.419 . S
C339 C334 1.425 . S
C339 C336 1.409 . S
C339 C337 1.415 . S
C340 H330 0.930 . S
C340 C338 1.419 . S
C340 C341 1.362 . S
C341 H331 0.930 . S
C341 C334 1.409 . S
C341 C340 1.362 . S
H342 C348 0.930 . S
H343 C351 0.930 . S
H344 C352 0.930 . S
H345 C353 0.930 . S
H346 C356 0.930 . S
H347 C357 0.930 . S
C348 H342 0.930 . S
C348 C349 1.355 . S
C348 C350 1.415 . S
C349 C348 1.355 . S
C349 C351 1.419 . S
C350 C348 1.415 . S
C350 C355 1.425 . S
C350 C357 1.409 . S
C351 H343 0.930 . S
C351 C349 1.419 . S
C351 C352 1.362 . S
C352 H344 0.930 . S
C352 C351 1.362 . S
C352 C355 1.409 . S
C353 H345 0.930 . S
C353 C354 1.355 . S
C353 C355 1.415 . S
C354 C353 1.355 . S
C354 C356 1.419 . S
C355 C350 1.425 . S
C355 C352 1.409 . S
C355 C353 1.415 . S
C356 H346 0.930 . S
C356 C354 1.419 . S
C356 C357 1.362 . S
C357 H347 0.930 . S
C357 C350 1.409 . S
C357 C356 1.362 . S
H358 C364 0.930 . S
H359 C367 0.930 . S
H360 C368 0.930 . S
H361 C369 0.930 . S
H362 C372 0.930 . S
H363 C373 0.930 . S
C364 H358 0.930 . S
C364 C365 1.355 1_556 S
C364 C366 1.415 . S
C365 C364 1.355 1_554 S
C365 C367 1.419 . S
C366 C364 1.415 . S
C366 C371 1.425 . S
C366 C373 1.409 . S
C367 H359 0.930 . S
C367 C365 1.419 . S
C367 C368 1.362 . S
C368 H360 0.930 . S
C368 C367 1.362 . S
C368 C371 1.409 1_554 S
C369 H361 0.930 . S
C369 C370 1.355 . S
C369 C371 1.415 . S
C370 C369 1.355 . S
C370 C372 1.419 . S
C371 C366 1.425 . S
C371 C368 1.409 1_556 S
C371 C369 1.415 . S
C372 H362 0.930 . S
C372 C370 1.419 . S
C372 C373 1.362 . S
C373 H363 0.930 . S
C373 C366 1.409 . S
C373 C372 1.362 . S
H374 C380 0.930 . S
H375 C383 0.930 . S
H376 C384 0.930 . S
H377 C385 0.930 . S
H378 C388 0.930 . S
H379 C389 0.930 . S
C380 H374 0.930 . S
C380 C381 1.355 1_655 S
C380 C382 1.415 . S
C381 C380 1.355 1_455 S
C381 C383 1.419 . S
C382 C380 1.415 . S
C382 C387 1.425 1_655 S
C382 C389 1.409 . S
C383 H375 0.930 . S
C383 C381 1.419 . S
C383 C384 1.362 . S
C384 H376 0.930 . S
C384 C383 1.362 . S
C384 C387 1.409 . S
C385 H377 0.930 . S
C385 C386 1.355 . S
C385 C387 1.415 . S
C386 C385 1.355 . S
C386 C388 1.419 1_455 S
C387 C382 1.425 1_455 S
C387 C384 1.409 . S
C387 C385 1.415 . S
C388 H378 0.930 . S
C388 C386 1.419 1_655 S
C388 C389 1.362 . S
C389 H379 0.930 . S
C389 C382 1.409 . S
C389 C388 1.362 . S
H390 C396 0.930 . S
H391 C399 0.930 . S
H392 C400 0.931 . S
H393 C401 0.930 . S
H394 C404 0.930 . S
H395 C405 0.930 . S
C396 H390 0.930 . S
C396 C397 1.355 . S
C396 C398 1.415 . S
C397 C396 1.355 . S
C397 C399 1.419 . S
C398 C396 1.415 . S
C398 C403 1.425 . S
C398 C405 1.409 . S
C399 H391 0.930 . S
C399 C397 1.419 . S
C399 C400 1.362 . S
C400 H392 0.931 . S
C400 C399 1.362 . S
C400 C403 1.409 . S
C401 H393 0.930 . S
C401 C402 1.355 . S
C401 C403 1.415 . S
C402 C401 1.355 . S
C402 C404 1.419 . S
C403 C398 1.425 . S
C403 C400 1.409 . S
C403 C401 1.415 . S
C404 H394 0.930 . S
C404 C402 1.419 . S
C404 C405 1.362 . S
C405 H395 0.930 . S
C405 C398 1.409 . S
C405 C404 1.362 . S
H406 C412 0.939 . S
H407 C415 0.930 . S
H408 C416 0.930 . S
H409 C417 0.930 . S
H410 C420 0.930 . S
H411 C421 0.930 . S
C412 H406 0.939 . S
C412 C413 1.355 1_556 S
C412 C414 1.415 . S
C413 C412 1.355 1_554 S
C413 C415 1.419 1_554 S
C414 C412 1.415 . S
C414 C419 1.425 . S
C414 C421 1.409 . S
C415 H407 0.930 . S
C415 C413 1.419 1_556 S
C415 C416 1.362 . S
C416 H408 0.930 . S
C416 C415 1.362 . S
C416 C419 1.409 . S
C417 H409 0.930 . S
C417 C418 1.355 . S
C417 C419 1.415 . S
C418 C417 1.355 . S
C418 C420 1.419 . S
C419 C414 1.425 . S
C419 C416 1.409 . S
C419 C417 1.415 . S
C420 H410 0.930 . S
C420 C418 1.419 . S
C420 C421 1.362 . S
C421 H411 0.930 . S
C421 C414 1.409 . S
C421 C420 1.362 . S
H422 C428 0.930 . S
H423 C431 0.930 . S
H424 C432 0.930 . S
H425 C433 0.930 . S
H426 C436 0.930 . S
H427 C437 0.930 . S
C428 H422 0.930 . S
C428 C429 1.355 . S
C428 C430 1.415 . S
C429 C428 1.355 . S
C429 C431 1.419 . S
C430 C428 1.415 . S
C430 C435 1.425 . S
C430 C437 1.409 . S
C431 H423 0.930 . S
C431 C429 1.419 . S
C431 C432 1.362 . S
C432 H424 0.930 . S
C432 C431 1.362 . S
C432 C435 1.409 . S
C433 H425 0.930 . S
C433 C434 1.355 . S
C433 C435 1.415 . S
C434 C433 1.355 . S
C434 C436 1.419 . S
C435 C430 1.425 . S
C435 C432 1.409 . S
C435 C433 1.415 . S
C436 H426 0.930 . S
C436 C434 1.419 . S
C436 C437 1.362 . S
C437 H427 0.930 . S
C437 C430 1.409 . S
C437 C436 1.362 . S
C258 C116 1.473 . S
C253 C14 1.438 . S
C269 C40 1.501 . S
C274 C155 1.502 . S
C285 C76 1.487 . S
C290 C222 1.485 . S
C301 C3 1.461 . S
C306 C123 1.460 . S
C322 C176 1.499 . S
C317 C38 1.469 . S
C333 C74 1.439 . S
C338 C201 1.473 . S
C354 C162 1.456 . S
C349 C86 1.439 . S
C365 C2 1.478 1_565 S
C370 C215 1.471 . S
C386 C130 1.461 . S
C381 C39 1.464 . S
C402 C169 1.473 . S
C397 C75 1.475 . S
C418 C208 1.473 . S
C413 C4 1.449 . S
C429 C50 1.466 . S
C434 C109 1.478 . S
