# Generated by pormake.
# Topology pyr, (3,6)-cn, num edge types: 1
# Building blocks:
#     Node 0, Type 0, BuildingBlock: KAKCAD_clean_linker_0, # of connection points: 3
#     Node 1, Type 0, BuildingBlock: KAKCAD_clean_linker_0, # of connection points: 3
#     Node 2, Type 0, BuildingBlock: KAKCAD_clean_linker_0, # of connection points: 3
#     Node 3, Type 0, BuildingBlock: KAKCAD_clean_linker_0, # of connection points: 3
#     Node 4, Type 0, BuildingBlock: KAKCAD_clean_linker_0, # of connection points: 3
#     Node 5, Type 0, BuildingBlock: KAKCAD_clean_linker_0, # of connection points: 3
#     Node 6, Type 0, BuildingBlock: KAKCAD_clean_linker_0, # of connection points: 3
#     Node 7, Type 0, BuildingBlock: KAKCAD_clean_linker_0, # of connection points: 3
#     Node 8, Type 1, BuildingBlock: PAMTOO_clean_sbu_0, # of connection points: 6
#     Node 9, Type 1, BuildingBlock: PAMTOO_clean_sbu_0, # of connection points: 6
#     Node 10, Type 1, BuildingBlock: PAMTOO_clean_sbu_0, # of connection points: 6
#     Node 11, Type 1, BuildingBlock: PAMTOO_clean_sbu_0, # of connection points: 6
#     Edge 12, Type (0, 1), BuildingBlock: XIVTED_clean_linker_0, # of connection points: 2
#     Edge 13, Type (0, 1), BuildingBlock: XIVTED_clean_linker_0, # of connection points: 2
#     Edge 14, Type (0, 1), BuildingBlock: XIVTED_clean_linker_0, # of connection points: 2
#     Edge 15, Type (0, 1), BuildingBlock: XIVTED_clean_linker_0, # of connection points: 2
#     Edge 16, Type (0, 1), BuildingBlock: XIVTED_clean_linker_0, # of connection points: 2
#     Edge 17, Type (0, 1), BuildingBlock: XIVTED_clean_linker_0, # of connection points: 2
#     Edge 18, Type (0, 1), BuildingBlock: XIVTED_clean_linker_0, # of connection points: 2
#     Edge 19, Type (0, 1), BuildingBlock: XIVTED_clean_linker_0, # of connection points: 2
#     Edge 20, Type (0, 1), BuildingBlock: XIVTED_clean_linker_0, # of connection points: 2
#     Edge 21, Type (0, 1), BuildingBlock: XIVTED_clean_linker_0, # of connection points: 2
#     Edge 22, Type (0, 1), BuildingBlock: XIVTED_clean_linker_0, # of connection points: 2
#     Edge 23, Type (0, 1), BuildingBlock: XIVTED_clean_linker_0, # of connection points: 2
#     Edge 24, Type (0, 1), BuildingBlock: XIVTED_clean_linker_0, # of connection points: 2
#     Edge 25, Type (0, 1), BuildingBlock: XIVTED_clean_linker_0, # of connection points: 2
#     Edge 26, Type (0, 1), BuildingBlock: XIVTED_clean_linker_0, # of connection points: 2
#     Edge 27, Type (0, 1), BuildingBlock: XIVTED_clean_linker_0, # of connection points: 2
#     Edge 28, Type (0, 1), BuildingBlock: XIVTED_clean_linker_0, # of connection points: 2
#     Edge 29, Type (0, 1), BuildingBlock: XIVTED_clean_linker_0, # of connection points: 2
#     Edge 30, Type (0, 1), BuildingBlock: XIVTED_clean_linker_0, # of connection points: 2
#     Edge 31, Type (0, 1), BuildingBlock: XIVTED_clean_linker_0, # of connection points: 2
#     Edge 32, Type (0, 1), BuildingBlock: XIVTED_clean_linker_0, # of connection points: 2
#     Edge 33, Type (0, 1), BuildingBlock: XIVTED_clean_linker_0, # of connection points: 2
#     Edge 34, Type (0, 1), BuildingBlock: XIVTED_clean_linker_0, # of connection points: 2
#     Edge 35, Type (0, 1), BuildingBlock: XIVTED_clean_linker_0, # of connection points: 2
# Relax obj value: 0.090
# Max RMSD: 0.158
# Mean RMSD: 0.067
data_MOF--net-pyr--node1-PAMTOO_clean_sbu_0--node2-KAKCAD_clean_linker_0--edge1-XIVTED_clean_linker_0
_symmetry_space_group_name_H-M    P1
_symmetry_Int_Tables_number       1
_symmetry_cell_setting            triclinic
loop_
_symmetry_equiv_pos_as_xyz
'x, y, z'
_cell_length_a     45.568663
_cell_length_b     47.80024
_cell_length_c     47.597074
_cell_angle_alpha  90.144985
_cell_angle_beta   90.034543
_cell_angle_gamma 102.33801
loop_
_atom_site_label
_atom_site_type_symbol
_atom_site_fract_x
_atom_site_fract_y
_atom_site_fract_z
_atom_type_partial_charge
C0 C 0.26913 0.24221 0.30653 0.0
C1 C 0.28728 0.23408 0.32754 0.0
C2 C 0.2818 0.2551 0.28192 0.0
C3 C 0.31301 0.26033 0.27763 0.0
C4 C 0.33134 0.25282 0.29887 0.0
C5 C 0.31859 0.23982 0.3236 0.0
C6 C 0.32572 0.27163 0.25017 0.0
C7 C 0.31392 0.29257 0.23618 0.0
C8 C 0.32136 0.29959 0.20809 0.0
C9 C 0.34202 0.28634 0.19431 0.0
C10 C 0.35466 0.26578 0.20818 0.0
C11 C 0.34657 0.25876 0.23621 0.0
C12 C 0.37307 0.24881 0.19254 0.0
C13 C 0.36395 0.23791 0.16574 0.0
C14 C 0.39816 0.2412 0.20516 0.0
C15 C 0.41302 0.22213 0.19176 0.0
C16 C 0.40291 0.21018 0.16559 0.0
C17 C 0.30397 0.31741 0.19245 0.0
C18 C 0.29032 0.30762 0.16673 0.0
C19 C 0.29734 0.34201 0.2049 0.0
C20 C 0.27593 0.35534 0.19292 0.0
C21 C 0.26067 0.34431 0.16827 0.0
C22 C 0.26887 0.32094 0.15477 0.0
C23 C 0.3787 0.21882 0.15243 0.0
H24 H 0.24489 0.2375 0.30853 0.0
H25 H 0.26691 0.25989 0.26573 0.0
H26 H 0.35548 0.25673 0.29622 0.0
H27 H 0.33319 0.23399 0.33951 0.0
H28 H 0.29734 0.30213 0.24665 0.0
H29 H 0.35469 0.24162 0.24641 0.0
H30 H 0.34758 0.29147 0.17252 0.0
H31 H 0.34452 0.24307 0.15555 0.0
H32 H 0.40581 0.24943 0.22573 0.0
H33 H 0.43155 0.21579 0.20244 0.0
H34 H 0.29469 0.28851 0.15681 0.0
H35 H 0.30781 0.35022 0.22454 0.0
H36 H 0.37067 0.21026 0.13208 0.0
H37 H 0.2574 0.31178 0.13588 0.0
H38 H 0.27058 0.37371 0.20349 0.0
C39 C 0.19091 0.80089 0.82582 0.0
C40 C 0.22198 0.80671 0.83118 0.0
C41 C 0.1796 0.78918 0.79998 0.0
C42 C 0.19921 0.78327 0.77904 0.0
C43 C 0.23023 0.78907 0.78461 0.0
C44 C 0.24142 0.80049 0.81033 0.0
C45 C 0.18806 0.77243 0.75086 0.0
C46 C 0.16643 0.78399 0.73667 0.0
C47 C 0.15904 0.77681 0.70839 0.0
C48 C 0.17413 0.75799 0.69429 0.0
C49 C 0.19632 0.74688 0.70815 0.0
C50 C 0.20194 0.75307 0.73669 0.0
C51 C 0.21679 0.73207 0.69262 0.0
C52 C 0.20608 0.70929 0.67399 0.0
C53 C 0.24787 0.74072 0.69721 0.0
C54 C 0.26772 0.72605 0.68481 0.0
C55 C 0.25711 0.70243 0.6673 0.0
C56 C 0.13818 0.79165 0.69312 0.0
C57 C 0.11393 0.79939 0.70726 0.0
C58 C 0.14383 0.80047 0.66505 0.0
C59 C 0.12654 0.81756 0.65197 0.0
C60 C 0.10367 0.82661 0.66682 0.0
C61 C 0.09714 0.81704 0.69437 0.0
C62 C 0.22618 0.69454 0.66136 0.0
H63 H 0.17541 0.80548 0.84154 0.0
H64 H 0.15559 0.78485 0.79636 0.0
H65 H 0.24613 0.78566 0.76873 0.0
H66 H 0.26553 0.80546 0.81347 0.0
H67 H 0.15686 0.80009 0.74714 0.0
H68 H 0.21852 0.74385 0.74754 0.0
H69 H 0.16968 0.75299 0.67229 0.0
H70 H 0.18224 0.70237 0.66995 0.0
H71 H 0.25689 0.75878 0.71075 0.0
H72 H 0.29151 0.7331 0.68914 0.0
H73 H 0.10839 0.79249 0.72862 0.0
H74 H 0.16253 0.79546 0.65354 0.0
H75 H 0.21751 0.67645 0.64776 0.0
H76 H 0.07941 0.82368 0.70609 0.0
H77 H 0.13206 0.82496 0.63073 0.0
C78 C 0.7426 0.42973 0.88627 0.0
C79 C 0.76286 0.4139 0.89701 0.0
C80 C 0.71595 0.41592 0.87286 0.0
C81 C 0.7089 0.38593 0.86978 0.0
C82 C 0.72941 0.37024 0.88014 0.0
C83 C 0.75577 0.38394 0.89371 0.0
C84 C 0.68012 0.37072 0.85644 0.0
C85 C 0.66813 0.38206 0.83289 0.0
C86 C 0.64126 0.36736 0.82001 0.0
C87 C 0.62685 0.34035 0.83085 0.0
C88 C 0.6388 0.32838 0.8542 0.0
C89 C 0.66489 0.34422 0.86711 0.0
C90 C 0.62485 0.29927 0.86536 0.0
C91 C 0.59352 0.28976 0.86765 0.0
C92 C 0.64326 0.28113 0.87511 0.0
C93 C 0.63093 0.25492 0.88781 0.0
C94 C 0.59966 0.2456 0.89084 0.0
C95 C 0.62889 0.3802 0.79499 0.0
C96 C 0.63169 0.41006 0.79291 0.0
C97 C 0.61483 0.36299 0.77268 0.0
C98 C 0.60425 0.37528 0.74899 0.0
C99 C 0.60758 0.40521 0.7467 0.0
C100 C 0.62142 0.42234 0.76914 0.0
C101 C 0.58109 0.26327 0.8802 0.0
H102 H 0.74735 0.45284 0.88806 0.0
H103 H 0.70066 0.42874 0.86533 0.0
H104 H 0.72515 0.34718 0.87778 0.0
H105 H 0.77037 0.37082 0.90202 0.0
H106 H 0.68029 0.40205 0.82406 0.0
H107 H 0.67331 0.3359 0.88592 0.0
H108 H 0.60646 0.32855 0.82109 0.0
H109 H 0.57859 0.30309 0.86046 0.0
H110 H 0.66747 0.28733 0.87324 0.0
H111 H 0.64619 0.24237 0.89593 0.0
H112 H 0.64186 0.42414 0.80973 0.0
H113 H 0.61244 0.33998 0.77319 0.0
H114 H 0.55689 0.25675 0.88164 0.0
H115 H 0.62488 0.44544 0.76827 0.0
H116 H 0.59331 0.36116 0.73252 0.0
C117 C 0.869 0.62315 0.25206 0.0
C118 C 0.89984 0.62873 0.24568 0.0
C119 C 0.85844 0.63542 0.27576 0.0
C120 C 0.87839 0.65351 0.294 0.0
C121 C 0.90926 0.65918 0.28754 0.0
C122 C 0.91981 0.64703 0.26371 0.0
C123 C 0.86701 0.66599 0.31976 0.0
C124 C 0.84292 0.64972 0.33528 0.0
C125 C 0.83169 0.66103 0.35933 0.0
C126 C 0.84495 0.68904 0.36788 0.0
C127 C 0.86898 0.70588 0.35297 0.0
C128 C 0.87997 0.69409 0.32896 0.0
C129 C 0.88224 0.73566 0.36298 0.0
C130 C 0.86359 0.75305 0.37391 0.0
C131 C 0.91349 0.74639 0.36335 0.0
C132 C 0.92574 0.77328 0.37528 0.0
C133 C 0.90706 0.79018 0.38719 0.0
C134 C 0.80579 0.64407 0.37551 0.0
C135 C 0.78087 0.62715 0.36164 0.0
C136 C 0.80511 0.64586 0.40503 0.0
C137 C 0.77981 0.63218 0.42014 0.0
C138 C 0.75454 0.61606 0.40623 0.0
C139 C 0.75559 0.61324 0.37684 0.0
C140 C 0.87577 0.77973 0.38595 0.0
H141 H 0.85287 0.60961 0.23845 0.0
H142 H 0.83447 0.63094 0.27957 0.0
H143 H 0.92543 0.6726 0.30119 0.0
H144 H 0.94375 0.65157 0.25971 0.0
H145 H 0.83328 0.62788 0.32904 0.0
H146 H 0.89803 0.70712 0.317 0.0
H147 H 0.83638 0.69788 0.38635 0.0
H148 H 0.83939 0.74585 0.37355 0.0
H149 H 0.92859 0.73364 0.35523 0.0
H150 H 0.9499 0.78069 0.3753 0.0
H151 H 0.78043 0.62546 0.33895 0.0
H152 H 0.82412 0.65806 0.41654 0.0
H153 H 0.8605 0.79174 0.39506 0.0
H154 H 0.73642 0.60113 0.36546 0.0
H155 H 0.77999 0.63432 0.44281 0.0
C156 C 0.72774 0.78141 0.75256 0.0
C157 C 0.73116 0.8111 0.74898 0.0
C158 C 0.71053 0.76751 0.77486 0.0
C159 C 0.69643 0.78309 0.79382 0.0
C160 C 0.69856 0.81247 0.78903 0.0
C161 C 0.71553 0.82621 0.76683 0.0
C162 C 0.68255 0.77012 0.82034 0.0
C163 C 0.69683 0.75227 0.83626 0.0
C164 C 0.68787 0.74484 0.86401 0.0
C165 C 0.66453 0.75601 0.876 0.0
C166 C 0.6499 0.77391 0.86027 0.0
C167 C 0.65807 0.77944 0.83205 0.0
C168 C 0.6291 0.78999 0.87391 0.0
C169 C 0.60865 0.77756 0.89482 0.0
C170 C 0.63078 0.81887 0.86678 0.0
C171 C 0.6126 0.83485 0.88004 0.0
C172 C 0.59248 0.82262 0.90114 0.0
C173 C 0.70556 0.72819 0.88098 0.0
C174 C 0.71568 0.70518 0.86875 0.0
C175 C 0.71504 0.73688 0.90835 0.0
C176 C 0.73546 0.72385 0.92253 0.0
C177 C 0.74694 0.70193 0.90961 0.0
C178 C 0.73618 0.6923 0.88281 0.0
C179 C 0.59059 0.79377 0.9084 0.0
H180 H 0.7395 0.76924 0.73901 0.0
H181 H 0.70907 0.74479 0.77779 0.0
H182 H 0.68851 0.82539 0.80331 0.0
H183 H 0.71733 0.84903 0.76426 0.0
H184 H 0.71651 0.7459 0.82782 0.0
H185 H 0.64645 0.79261 0.81956 0.0
H186 H 0.65868 0.75174 0.89786 0.0
H187 H 0.60667 0.75538 0.90075 0.0
H188 H 0.64689 0.82957 0.85148 0.0
H189 H 0.61516 0.8572 0.87447 0.0
H190 H 0.70853 0.69776 0.84781 0.0
H191 H 0.70786 0.75467 0.91832 0.0
H192 H 0.57521 0.7838 0.92461 0.0
H193 H 0.74464 0.6757 0.87201 0.0
H194 H 0.74284 0.73149 0.94334 0.0
C195 C 0.80575 0.21478 0.24343 0.0
C196 C 0.79399 0.23351 0.22617 0.0
C197 C 0.81806 0.22379 0.26957 0.0
C198 C 0.81918 0.25188 0.27907 0.0
C199 C 0.80861 0.27104 0.26125 0.0
C200 C 0.79601 0.2619 0.23511 0.0
C201 C 0.82895 0.26012 0.30832 0.0
C202 C 0.85207 0.24929 0.32087 0.0
C203 C 0.85826 0.253 0.34972 0.0
C204 C 0.84215 0.26937 0.36581 0.0
C205 C 0.81951 0.28118 0.35342 0.0
C206 C 0.81303 0.27626 0.32472 0.0
C207 C 0.80075 0.29671 0.37053 0.0
C208 C 0.78989 0.28644 0.39704 0.0
C209 C 0.79167 0.32073 0.35944 0.0
C210 C 0.77111 0.33333 0.3738 0.0
C211 C 0.75926 0.32241 0.39979 0.0
C212 C 0.87951 0.23749 0.36329 0.0
C213 C 0.87935 0.20907 0.35544 0.0
C214 C 0.89912 0.25026 0.38475 0.0
C215 C 0.91776 0.23474 0.39833 0.0
C216 C 0.9172 0.20618 0.39068 0.0
C217 C 0.898 0.19366 0.36889 0.0
C218 C 0.7694 0.29917 0.41152 0.0
H219 H 0.80401 0.19261 0.2374 0.0
H220 H 0.82535 0.20823 0.28288 0.0
H221 H 0.80952 0.29294 0.26775 0.0
H222 H 0.78732 0.27687 0.22213 0.0
H223 H 0.86484 0.23722 0.30825 0.0
H224 H 0.79428 0.28363 0.31553 0.0
H225 H 0.84656 0.27219 0.38812 0.0
H226 H 0.79624 0.26784 0.40612 0.0
H227 H 0.7999 0.3294 0.33923 0.0
H228 H 0.76365 0.35097 0.3639 0.0
H229 H 0.86406 0.1983 0.33947 0.0
H230 H 0.89999 0.2722 0.3911 0.0
H231 H 0.76111 0.29047 0.43169 0.0
H232 H 0.8965 0.17152 0.36289 0.0
H233 H 0.93249 0.24504 0.41492 0.0
C234 C 0.2527 0.61847 0.18879 0.0
C235 C 0.25285 0.61996 0.15922 0.0
C236 C 0.27819 0.63124 0.20444 0.0
C237 C 0.30439 0.64588 0.1909 0.0
C238 C 0.30482 0.64651 0.16134 0.0
C239 C 0.27945 0.63375 0.14574 0.0
C240 C 0.33058 0.66202 0.20727 0.0
C241 C 0.34149 0.65027 0.23121 0.0
C242 C 0.36667 0.66566 0.24612 0.0
C243 C 0.38069 0.69336 0.2368 0.0
C244 C 0.36945 0.70574 0.21339 0.0
C245 C 0.34465 0.68974 0.19878 0.0
C246 C 0.38291 0.7354 0.20374 0.0
C247 C 0.36408 0.75391 0.19609 0.0
C248 C 0.41409 0.74471 0.19994 0.0
C249 C 0.4259 0.77131 0.18734 0.0
C250 C 0.40677 0.7891 0.17833 0.0
C251 C 0.37817 0.65272 0.27136 0.0
C252 C 0.35819 0.63781 0.2915 0.0
C253 C 0.40917 0.65481 0.27539 0.0
C254 C 0.41984 0.64198 0.29866 0.0
C255 C 0.39984 0.62696 0.31874 0.0
C256 C 0.36888 0.62524 0.31492 0.0
C257 C 0.37581 0.78032 0.18357 0.0
H258 H 0.23257 0.60823 0.19994 0.0
H259 H 0.27701 0.63055 0.22716 0.0
H260 H 0.32482 0.65711 0.1502 0.0
H261 H 0.2807 0.63476 0.12303 0.0
H262 H 0.33089 0.62879 0.23775 0.0
H263 H 0.33609 0.69905 0.18059 0.0
H264 H 0.39969 0.70565 0.24829 0.0
H265 H 0.34003 0.74768 0.19927 0.0
H266 H 0.42918 0.73091 0.20553 0.0
H267 H 0.44986 0.77736 0.18359 0.0
H268 H 0.3342 0.63598 0.28924 0.0
H269 H 0.4252 0.66595 0.26025 0.0
H270 H 0.36047 0.79375 0.17762 0.0
H271 H 0.35279 0.61369 0.32979 0.0
H272 H 0.44384 0.644 0.30103 0.0
C273 C 0.13466 0.25182 0.68561 0.0
C274 C 0.10377 0.24392 0.6797 0.0
C275 C 0.14687 0.27796 0.69856 0.0
C276 C 0.1286 0.29708 0.706 0.0
C277 C 0.09743 0.28862 0.70162 0.0
C278 C 0.08512 0.26228 0.68858 0.0
C279 C 0.14287 0.32656 0.71578 0.0
C280 C 0.16789 0.34181 0.70115 0.0
C281 C 0.18378 0.36876 0.71029 0.0
C282 C 0.17299 0.38129 0.73394 0.0
C283 C 0.14729 0.36683 0.74886 0.0
C284 C 0.13252 0.33924 0.73949 0.0
C285 C 0.13631 0.38029 0.77439 0.0
C286 C 0.15648 0.39895 0.79207 0.0
C287 C 0.10551 0.37476 0.78137 0.0
C288 C 0.09533 0.38733 0.80514 0.0
C289 C 0.11552 0.40628 0.82233 0.0
C290 C 0.21188 0.38301 0.69509 0.0
C291 C 0.23056 0.36632 0.68295 0.0
C292 C 0.22005 0.41294 0.69183 0.0
C293 C 0.24577 0.42561 0.67646 0.0
C294 C 0.26385 0.40871 0.66349 0.0
C295 C 0.25568 0.37883 0.66709 0.0
C296 C 0.1462 0.41198 0.81545 0.0
H297 H 0.14961 0.23794 0.67978 0.0
H298 H 0.1709 0.28357 0.70215 0.0
H299 H 0.08279 0.30292 0.70706 0.0
H300 H 0.06122 0.25687 0.68435 0.0
H301 H 0.17488 0.33246 0.68221 0.0
H302 H 0.11356 0.32713 0.75104 0.0
H303 H 0.18476 0.40228 0.74078 0.0
H304 H 0.18042 0.40335 0.78818 0.0
H305 H 0.08901 0.36106 0.76825 0.0
H306 H 0.07151 0.38271 0.80974 0.0
H307 H 0.22579 0.34329 0.68551 0.0
H308 H 0.20633 0.42664 0.70068 0.0
H309 H 0.16237 0.42621 0.82849 0.0
H310 H 0.26829 0.36471 0.65725 0.0
H311 H 0.25137 0.44871 0.67483 0.0
Dy312 Dy 0.04269 0.02154 0.51674 0.0
Dy313 Dy 0.97667 1.01276 0.54694 0.0
C314 C 0.03142 0.06451 0.56467 0.0
O315 O 0.04493 0.99875 0.55744 0.0
O316 O 0.99566 0.97579 0.56062 0.0
O317 O 0.09088 0.02954 0.52049 0.0
O318 O 0.06979 0.02009 0.47971 0.0
O319 O 0.96976 0.98585 0.50771 0.0
O320 O 0.01737 0.97803 0.50379 0.0
O321 O 0.98156 0.05294 0.52255 0.0
O322 O 0.01584 0.0453 0.48969 0.0
O323 O 0.92829 1.00666 0.54439 0.0
O324 O 0.95074 1.01064 0.58487 0.0
C325 C 0.02396 0.97779 0.56707 0.0
O326 O 0.04454 0.06215 0.54049 0.0
O327 O 0.00873 0.04455 0.57343 0.0
C328 C 0.11698 0.05178 0.48111 0.0
C329 C 0.15918 0.0967 0.45647 0.0
C330 C 0.138 0.10262 0.47589 0.0
C331 C 0.117 0.08033 0.48804 0.0
C332 C 0.13807 0.04574 0.46196 0.0
C333 C 0.15897 0.06797 0.44969 0.0
C334 C 0.09497 0.02812 0.49345 0.0
C335 C 0.98861 0.97092 0.49779 0.0
C336 C 0.99552 0.05909 0.49858 0.0
C337 C 0.90218 0.98227 0.58307 0.0
C338 C 0.86264 0.93988 0.6133 0.0
C339 C 0.88624 0.93274 0.59778 0.0
C340 C 0.90605 0.95391 0.58282 0.0
C341 C 0.87766 0.98903 0.59714 0.0
C342 C 0.85801 0.968 0.61213 0.0
C343 C 0.92509 1.00563 0.57162 0.0
H344 H 0.1377 0.12445 0.48178 0.0
H345 H 0.10077 0.08537 0.5028 0.0
H346 H 0.13822 0.02379 0.4563 0.0
H347 H 0.17453 0.06264 0.43443 0.0
H348 H 0.89034 0.91125 0.59848 0.0
H349 H 0.92507 0.94847 0.57211 0.0
H350 H 0.87444 1.01084 0.59752 0.0
H351 H 0.83977 0.97395 0.62367 0.0
Dy352 Dy 0.47102 1.0134 1.02025 0.0
Dy353 Dy 0.53649 0.02378 0.05193 0.0
C354 C 0.48229 0.97101 0.06893 0.0
O355 O 0.46703 0.03514 0.06108 0.0
O356 O 0.51552 0.05963 0.06582 0.0
O357 O 0.42286 1.0063 1.02301 0.0
O358 O 0.44466 1.01293 0.98236 0.0
O359 O 0.54338 0.05034 1.01262 0.0
O360 O 0.49557 0.05736 1.00817 0.0
O361 O 0.53239 0.98291 1.02844 0.0
O362 O 0.49895 0.98967 0.99441 0.0
O363 O 0.58443 0.02711 0.04972 0.0
O364 O 0.56306 0.03152 0.08974 0.0
C365 C 0.48688 0.05661 0.07147 0.0
O366 O 0.46897 0.97334 0.0448 0.0
O367 O 0.50521 0.99082 0.07776 0.0
C368 C 0.39645 0.98287 0.98422 0.0
C369 C 0.35179 0.93844 0.96181 0.0
C370 C 0.37246 0.93244 0.98171 0.0
C371 C 0.39468 0.95449 0.99278 0.0
C372 C 0.37595 0.98897 0.96449 0.0
C373 C 0.35384 0.96697 0.95333 0.0
C374 C 0.41922 1.00641 0.99585 0.0
C375 C 0.52435 0.06493 1.00253 0.0
C376 C 0.51905 0.97614 1.0042 0.0
C377 C 0.61206 0.05837 0.08311 0.0
C378 C 0.65673 0.10594 0.09931 0.0
C379 C 0.63006 0.10986 0.08651 0.0
C380 C 0.60788 0.08622 0.07843 0.0
C381 C 0.63881 0.05434 0.09521 0.0
C382 C 0.66099 0.0779 0.10325 0.0
C383 C 0.58838 0.03336 0.07633 0.0
H384 H 0.37138 0.91075 0.98885 0.0
H385 H 0.4104 0.94943 1.00805 0.0
H386 H 0.37711 1.01078 0.95762 0.0
H387 H 0.33874 0.9723 0.93762 0.0
H388 H 0.62623 0.13117 0.083 0.0
H389 H 0.58729 0.08962 0.06896 0.0
H390 H 0.6423 0.03293 0.09898 0.0
H391 H 0.68101 0.0741 0.11346 0.0
Dy392 Dy 0.50414 0.48157 0.51107 0.0
Dy393 Dy 0.50659 0.54193 0.54569 0.0
C394 C 0.53324 0.49111 0.57336 0.0
O395 O 0.45726 0.47709 0.52759 0.0
O396 O 0.46574 0.51211 0.56184 0.0
O397 O 0.49729 0.43541 0.50855 0.0
O398 O 0.50883 0.46114 0.47131 0.0
O399 O 0.4733 0.54123 0.51092 0.0
O400 O 0.49303 0.51338 0.48042 0.0
O401 O 0.54595 0.55032 0.51648 0.0
O402 O 0.55231 0.50443 0.51024 0.0
O403 O 0.51006 0.58767 0.5445 0.0
O404 O 0.506 0.5655 0.58436 0.0
C405 C 0.4487 0.48958 0.54992 0.0
O406 O 0.51909 0.47313 0.55439 0.0
O407 O 0.53542 0.51895 0.57134 0.0
C408 C 0.53085 0.4211 0.47587 0.0
C409 C 0.58137 0.39817 0.46277 0.0
C410 C 0.57064 0.39743 0.49049 0.0
C411 C 0.54571 0.40894 0.49703 0.0
C412 C 0.54093 0.42081 0.44802 0.0
C413 C 0.56603 0.40963 0.44156 0.0
C414 C 0.50635 0.43593 0.48254 0.0
C415 C 0.47694 0.53261 0.48523 0.0
C416 C 0.56219 0.53222 0.5081 0.0
C417 C 0.47918 0.60165 0.57886 0.0
C418 C 0.42877 0.62241 0.5963 0.0
C419 C 0.42566 0.60028 0.57632 0.0
C420 C 0.45064 0.58992 0.56776 0.0
C421 C 0.48256 0.62407 0.59836 0.0
C422 C 0.45754 0.6344 0.60703 0.0
C423 C 0.50484 0.58919 0.57134 0.0
H424 H 0.58214 0.38882 0.50725 0.0
H425 H 0.53858 0.4089 0.51874 0.0
H426 H 0.52981 0.42992 0.43131 0.0
H427 H 0.57357 0.4101 0.41995 0.0
H428 H 0.40379 0.59036 0.56795 0.0
H429 H 0.4476 0.57233 0.55288 0.0
H430 H 0.50443 0.63325 0.6072 0.0
H431 H 0.46066 0.65168 0.62223 0.0
Dy432 Dy 0.00752 0.54911 1.01409 0.0
Dy433 Dy 1.00173 0.48874 0.04854 0.0
C434 C 0.97676 0.54013 0.07492 0.0
O435 O 0.05424 0.55163 1.03027 0.0
O436 O 0.04233 0.51854 0.06567 0.0
O437 O 0.0149 0.59534 1.01288 0.0
O438 O 1.00323 0.57055 0.97491 0.0
O439 O 0.03489 0.48634 1.0144 0.0
O440 O 0.02269 0.51907 0.98378 0.0
O441 O 0.96576 0.48037 1.01594 0.0
O442 O 0.95919 0.52618 1.01116 0.0
O443 O 0.99539 0.44266 0.04941 0.0
O444 O 1.0015 0.46681 0.08821 0.0
C445 C 0.06123 0.53961 0.05348 0.0
O446 O 0.99529 0.55746 0.05839 0.0
O447 O 0.97053 0.51233 0.07037 0.0
C448 C 0.98125 0.61038 0.98084 0.0
C449 C 0.92986 0.63221 0.96851 0.0
C450 C 0.93959 0.63107 0.99641 0.0
C451 C 0.96496 0.62008 1.00257 0.0
C452 C 0.97222 0.61269 0.9529 0.0
C453 C 0.94669 0.62333 0.94679 0.0
C454 C 0.00582 0.59549 0.9869 0.0
C455 C 0.03534 0.49739 0.98912 0.0
C456 C 0.9499 0.49851 1.00715 0.0
C457 C 0.02648 0.42917 0.08374 0.0
C458 C 0.07639 0.40703 0.10006 0.0
C459 C 0.0795 0.42883 0.07984 0.0
C460 C 0.05481 0.43985 0.07184 0.0
C461 C 0.02306 0.40723 0.10368 0.0
C462 C 0.04788 0.39623 0.11183 0.0
C463 C 1.00123 0.44223 0.0762 0.0
H464 H 0.92694 0.63765 1.01355 0.0
H465 H 0.97121 0.61843 1.02436 0.0
H466 H 0.98441 0.60541 0.9358 0.0
H467 H 0.93989 0.62433 0.92507 0.0
H468 H 0.10121 0.43797 0.07076 0.0
H469 H 0.05793 0.45709 0.05668 0.0
H470 H 1.00136 0.39889 0.11317 0.0
H471 H 0.04479 0.37931 0.12734 0.0
H472 H 0.30243 0.1876 0.35277 0.0
H473 H 0.149 0.148 0.43762 0.0
H474 H 0.23932 0.2431 0.35842 0.0
H475 H 0.21837 0.09922 0.4432 0.0
H476 H 0.18339 0.18478 0.41141 0.0
H477 H 0.27411 0.15697 0.38882 0.0
C478 C 0.28296 0.19367 0.36197 0.0
C479 C 0.27304 0.21779 0.35228 0.0
C480 C 0.19121 0.16616 0.41859 0.0
C481 C 0.24013 0.18245 0.39315 0.0
C482 C 0.1716 0.14517 0.43371 0.0
C483 C 0.18067 0.12029 0.44246 0.0
C484 C 0.22007 0.1622 0.41192 0.0
C485 C 0.21015 0.11773 0.43636 0.0
C486 C 0.26666 0.17604 0.38243 0.0
C487 C 0.24742 0.22437 0.36479 0.0
N488 N 0.22869 0.13828 0.42126 0.0
N489 N 0.23167 0.20663 0.38432 0.0
H490 H 0.20653 0.85225 0.85804 0.0
H491 H 0.35829 0.88492 0.94584 0.0
H492 H 0.26709 0.79433 0.86364 0.0
H493 H 0.29319 0.93859 0.94837 0.0
H494 H 0.32217 0.84871 0.92046 0.0
H495 H 0.23432 0.88102 0.89587 0.0
C496 C 0.22526 0.84523 0.86766 0.0
C497 C 0.23483 0.82113 0.85739 0.0
C498 C 0.31562 0.86827 0.92683 0.0
C499 C 0.26709 0.85422 0.90023 0.0
C500 C 0.33623 0.88894 0.94148 0.0
C501 C 0.32894 0.91505 0.94897 0.0
C502 C 0.28757 0.87379 0.91936 0.0
C503 C 0.30006 0.91909 0.94242 0.0
C504 C 0.24126 0.86177 0.88912 0.0
C505 C 0.25938 0.81314 0.87051 0.0
N506 N 0.28057 0.89883 0.92771 0.0
N507 N 0.27491 0.82985 0.89097 0.0
H508 H 0.58441 0.45414 0.74292 0.0
H509 H 0.54562 0.43774 0.57917 0.0
H510 H 0.60638 0.387 0.69136 0.0
H511 H 0.55027 0.5169 0.62443 0.0
H512 H 0.56428 0.4173 0.62087 0.0
H513 H 0.56841 0.47586 0.7008 0.0
C514 C 0.58614 0.44396 0.72284 0.0
C515 C 0.59699 0.41853 0.72103 0.0
C516 C 0.56137 0.43918 0.62167 0.0
C517 C 0.57785 0.44328 0.67243 0.0
C518 C 0.55064 0.4509 0.59784 0.0
C519 C 0.54632 0.47916 0.59818 0.0
C520 C 0.56747 0.4556 0.64634 0.0
C521 C 0.55336 0.4951 0.62307 0.0
C522 C 0.5768 0.4564 0.69873 0.0
C523 C 0.5978 0.40624 0.69418 0.0
N524 N 0.56333 0.48305 0.64617 0.0
N525 N 0.58831 0.41863 0.67109 0.0
H526 H 0.94385 0.65368 0.20846 0.0
H527 H 0.93599 0.51255 0.11417 0.0
H528 H 0.88149 0.57388 0.22474 0.0
H529 H 0.98829 0.59605 0.09256 0.0
H530 H 0.91684 0.53374 0.15552 0.0
H531 H 0.96185 0.63203 0.16709 0.0
C532 C 0.93402 0.63155 0.20347 0.0
C533 C 0.91107 0.61566 0.22028 0.0
C534 C 0.93245 0.5474 0.14166 0.0
C535 C 0.93156 0.59061 0.1725 0.0
C536 C 0.94341 0.53531 0.11801 0.0
C537 C 0.96386 0.55245 0.09971 0.0
C538 C 0.94213 0.57686 0.14725 0.0
C539 C 0.9726 0.58186 0.10592 0.0
C540 C 0.94419 0.61922 0.17967 0.0
C541 C 0.89897 0.58712 0.21233 0.0
N542 N 0.96182 0.59303 0.1291 0.0
N543 N 0.9094 0.57553 0.18915 0.0
H544 H 0.3729 0.16021 0.14216 0.0
H545 H 0.51984 0.10667 0.09406 0.0
H546 H 0.46252 0.20768 0.16059 0.0
H547 H 0.42926 0.05657 0.08692 0.0
H548 H 0.50024 0.14402 0.11857 0.0
H549 H 0.39401 0.12241 0.12124 0.0
C550 C 0.39709 0.16277 0.1416 0.0
C551 C 0.41599 0.18727 0.15286 0.0
C552 C 0.48475 0.12474 0.11176 0.0
C553 C 0.44044 0.14375 0.12919 0.0
C554 C 0.49591 0.1034 0.09782 0.0
C555 C 0.47616 0.0785 0.08827 0.0
C556 C 0.45366 0.12113 0.11603 0.0
C557 C 0.44538 0.07542 0.09373 0.0
C558 C 0.40916 0.14104 0.12985 0.0
C559 C 0.44716 0.18909 0.15216 0.0
N560 N 0.43512 0.09652 0.10707 0.0
N561 N 0.45847 0.16766 0.14035 0.0
H562 H 0.10417 0.88002 0.68642 0.0
H563 H 0.99594 0.92141 0.57018 0.0
H564 H 0.06966 0.82188 0.61899 0.0
H565 H 0.07206 0.98288 0.60231 0.0
H566 H 0.01308 0.88349 0.59614 0.0
H567 H 0.08251 0.91711 0.66378 0.0
C568 C 0.09164 0.87503 0.66704 0.0
C569 C 0.08857 0.84804 0.65443 0.0
C570 C 0.02582 0.90534 0.59758 0.0
C571 C 0.06368 0.88992 0.6288 0.0
C572 C 0.01603 0.92695 0.58298 0.0
C573 C 0.03272 0.95523 0.58411 0.0
C574 C 0.052 0.91229 0.61393 0.0
C575 C 0.05869 0.96129 0.60079 0.0
C576 C 0.0795 0.89614 0.65412 0.0
C577 C 0.07245 0.84254 0.62922 0.0
N578 N 0.06748 0.93999 0.61522 0.0
N579 N 0.0604 0.86332 0.61722 0.0
H580 H 0.818 0.39914 0.896 0.0
H581 H 0.9045 0.52626 0.99374 0.0
H582 H 0.77275 0.46157 0.93177 0.0
H583 H 0.9311 0.44535 0.9841 0.0
H584 H 0.85892 0.50703 0.96619 0.0
H585 H 0.86276 0.42024 0.92287 0.0
C586 C 0.81729 0.41719 0.90959 0.0
C587 C 0.79112 0.42819 0.91182 0.0
C588 C 0.87475 0.49355 0.97025 0.0
C589 C 0.84304 0.45302 0.9423 0.0
C590 C 0.90077 0.50449 0.98592 0.0
C591 C 0.92165 0.48737 0.99138 0.0
C592 C 0.86992 0.46551 0.95953 0.0
C593 C 0.91563 0.45932 0.98064 0.0
C594 C 0.84303 0.42933 0.92484 0.0
C595 C 0.79229 0.45235 0.92914 0.0
N596 N 0.8905 0.44938 0.96514 0.0
N597 N 0.81778 0.46393 0.94373 0.0
H598 H 0.72771 0.64071 0.44827 0.0
H599 H 0.59699 0.50275 0.47757 0.0
H600 H 0.71817 0.56229 0.40079 0.0
H601 H 0.59484 0.58754 0.50769 0.0
H602 H 0.64432 0.52248 0.45341 0.0
H603 H 0.68206 0.61984 0.47424 0.0
C604 C 0.71614 0.619 0.44344 0.0
C605 C 0.72688 0.60323 0.42232 0.0
C606 C 0.63351 0.53673 0.46537 0.0
C607 C 0.67434 0.57917 0.452 0.0
C608 C 0.60655 0.52547 0.47932 0.0
C609 C 0.59181 0.5435 0.49471 0.0
C610 C 0.64606 0.56621 0.46704 0.0
C611 C 0.60527 0.5728 0.49603 0.0
C612 C 0.68994 0.60716 0.45817 0.0
C613 C 0.71061 0.57532 0.41673 0.0
N614 N 0.63159 0.5832 0.48244 0.0
N615 N 0.68524 0.56414 0.43153 0.0
H616 H 0.21625 0.35915 0.19981 0.0
H617 H 0.12186 0.39476 0.06779 0.0
H618 H 0.24478 0.35376 0.11386 0.0
H619 H 0.09206 0.39582 0.15376 0.0
H620 H 0.16738 0.38046 0.08407 0.0
H621 H 0.17146 0.37416 0.18319 0.0
C622 C 0.21332 0.36151 0.17742 0.0
C623 C 0.23444 0.35532 0.15821 0.0
C624 C 0.15085 0.38374 0.09937 0.0
C625 C 0.18271 0.37197 0.13896 0.0
C626 C 0.1249 0.39197 0.0901 0.0
C627 C 0.10315 0.39654 0.10946 0.0
C628 C 0.15517 0.38015 0.12824 0.0
C629 C 0.10806 0.39223 0.13808 0.0
C630 C 0.18754 0.36981 0.16793 0.0
C631 C 0.229 0.35811 0.12941 0.0
N632 N 0.1336 0.3844 0.1466 0.0
N633 N 0.20366 0.36622 0.12066 0.0
H634 H 0.54935 0.23253 0.92478 0.0
H635 H 0.57974 0.08265 0.97768 0.0
H636 H 0.62064 0.19539 0.89153 0.0
H637 H 0.49435 0.10675 0.98792 0.0
H638 H 0.59729 0.12585 0.94947 0.0
H639 H 0.53056 0.18835 0.95081 0.0
C640 C 0.56096 0.21511 0.92262 0.0
C641 C 0.58684 0.21807 0.90581 0.0
C642 C 0.57468 0.12161 0.95783 0.0
C643 C 0.56566 0.16738 0.93642 0.0
C644 C 0.56467 0.09698 0.97402 0.0
C645 C 0.53546 0.09092 0.98518 0.0
C646 C 0.55554 0.14063 0.95305 0.0
C647 C 0.51697 0.11038 0.97967 0.0
C648 C 0.55027 0.18988 0.93773 0.0
C649 C 0.60105 0.19463 0.90456 0.0
N650 N 0.52736 0.13437 0.96418 0.0
N651 N 0.59043 0.17048 0.91975 0.0
H652 H 0.88443 0.83943 0.38925 0.0
H653 H 0.01844 0.92911 0.48263 0.0
H654 H 0.95914 0.80497 0.41858 0.0
H655 H 0.93285 0.95307 0.47337 0.0
H656 H 0.99939 0.88599 0.45482 0.0
H657 H 0.90408 0.88336 0.41559 0.0
C658 C 0.9049 0.84092 0.40124 0.0
C659 C 0.91991 0.81805 0.40168 0.0
C660 C 0.98477 0.90068 0.45883 0.0
C661 C 0.94293 0.86896 0.43162 0.0
C662 C 0.99566 0.92542 0.47466 0.0
C663 C 0.97725 0.94488 0.48042 0.0
C664 C 0.95529 0.89534 0.44831 0.0
C665 C 0.94787 0.93872 0.46957 0.0
C666 C 0.91617 0.86618 0.41621 0.0
C667 C 0.94683 0.82192 0.41716 0.0
N668 N 0.93785 0.91458 0.45399 0.0
N669 N 0.9574 0.84677 0.43145 0.0
H670 H 0.26363 0.68454 0.61308 0.0
H671 H 0.4155 0.63371 0.65049 0.0
H672 H 0.29986 0.68319 0.69667 0.0
H673 H 0.38079 0.63272 0.56603 0.0
H674 H 0.37151 0.64973 0.66766 0.0
H675 H 0.30398 0.6624 0.59526 0.0
C676 C 0.27983 0.67922 0.62768 0.0
C677 C 0.27873 0.686 0.65629 0.0
C678 C 0.3734 0.646 0.64535 0.0
C679 C 0.32484 0.66108 0.63622 0.0
C680 C 0.39868 0.63707 0.63552 0.0
C681 C 0.40197 0.63214 0.60677 0.0
C682 C 0.35117 0.65019 0.62631 0.0
C683 C 0.37908 0.63619 0.5884 0.0
C684 C 0.30292 0.66678 0.61753 0.0
C685 C 0.30026 0.67878 0.67437 0.0
N686 N 0.35469 0.64514 0.59846 0.0
N687 N 0.32248 0.66691 0.66401 0.0
H688 H 0.73954 0.79812 0.69338 0.0
H689 H 0.85122 0.94904 0.66794 0.0
H690 H 0.7723 0.86031 0.75814 0.0
H691 H 0.83413 0.88371 0.60374 0.0
H692 H 0.82134 0.91592 0.70075 0.0
H693 H 0.77361 0.82778 0.65968 0.0
C694 C 0.75402 0.81786 0.7005 0.0
C695 C 0.7527 0.82711 0.72841 0.0
C696 C 0.82405 0.90864 0.67953 0.0
C697 C 0.79138 0.86091 0.69028 0.0
C698 C 0.84095 0.92767 0.66073 0.0
C699 C 0.84476 0.91918 0.63303 0.0
C700 C 0.81057 0.88083 0.67064 0.0
C701 C 0.83157 0.89103 0.62496 0.0
C702 C 0.77336 0.83476 0.68132 0.0
C703 C 0.77198 0.85275 0.73665 0.0
N704 N 0.81476 0.87282 0.64367 0.0
N705 N 0.7903 0.86877 0.71768 0.0
H706 H 0.73996 0.24304 0.20815 0.0
H707 H 0.71823 0.115 0.09713 0.0
H708 H 0.80927 0.19802 0.18596 0.0
H709 H 0.64635 0.15309 0.1272 0.0
H710 H 0.75431 0.15198 0.12197 0.0
H711 H 0.70836 0.21757 0.17071 0.0
C712 C 0.74882 0.22829 0.19498 0.0
C713 C 0.77713 0.22234 0.20041 0.0
C714 C 0.73067 0.15247 0.12282 0.0
C715 C 0.74089 0.19274 0.15788 0.0
C716 C 0.71006 0.1313 0.10875 0.0
C717 C 0.67917 0.13066 0.11046 0.0
C718 C 0.72035 0.17311 0.13885 0.0
C719 C 0.66993 0.15273 0.12526 0.0
C720 C 0.73066 0.21357 0.17374 0.0
C721 C 0.78734 0.20282 0.18282 0.0
N722 N 0.69039 0.17283 0.13918 0.0
N723 N 0.76909 0.18846 0.16256 0.0
H724 H 0.44422 0.59599 0.3197 0.0
H725 H 0.43816 0.56969 0.48626 0.0
H726 H 0.38134 0.62556 0.37398 0.0
H727 H 0.48659 0.52606 0.42888 0.0
H728 H 0.41903 0.59244 0.44608 0.0
H729 H 0.46228 0.57281 0.36002 0.0
C730 C 0.4343 0.59778 0.34012 0.0
C731 C 0.41119 0.61285 0.34333 0.0
C732 C 0.43375 0.5778 0.44229 0.0
C733 C 0.43178 0.5861 0.38983 0.0
C734 C 0.44471 0.56478 0.46526 0.0
C735 C 0.46403 0.54581 0.46107 0.0
C736 C 0.44237 0.57212 0.41485 0.0
C737 C 0.47171 0.5404 0.43326 0.0
C738 C 0.44451 0.58434 0.36315 0.0
C739 C 0.39897 0.61399 0.37036 0.0
N740 N 0.46101 0.55355 0.41133 0.0
N741 N 0.40948 0.60094 0.39252 0.0
H742 H 0.12795 0.46323 0.83662 0.0
H743 H 0.04564 0.44293 0.98559 0.0
H744 H 0.07847 0.38103 0.86487 0.0
H745 H 0.05639 0.52158 0.9387 0.0
H746 H 0.06558 0.42071 0.94535 0.0
H747 H 0.10964 0.48577 0.87761 0.0
C748 C 0.11335 0.44992 0.85153 0.0
C749 C 0.10467 0.4202 0.84726 0.0
C750 C 0.06365 0.44285 0.94395 0.0
C751 C 0.08396 0.44582 0.89443 0.0
C752 C 0.05246 0.45564 0.96697 0.0
C753 C 0.04927 0.48421 0.96558 0.0
C754 C 0.07236 0.45887 0.91948 0.0
C755 C 0.05832 0.49949 0.94073 0.0
C756 C 0.10281 0.4628 0.87483 0.0
C757 C 0.08554 0.40402 0.86721 0.0
N758 N 0.06959 0.48671 0.91878 0.0
N759 N 0.07603 0.41697 0.89001 0.0
H760 H 0.58461 0.82592 0.95792 0.0
H761 H 0.50542 0.96013 0.94928 0.0
H762 H 0.56192 0.86127 0.87954 0.0
H763 H 0.54817 0.93585 1.02364 0.0
H764 H 0.51843 0.91953 0.92418 0.0
H765 H 0.56264 0.861 0.98325 0.0
C766 C 0.5745 0.84072 0.94605 0.0
C767 C 0.57532 0.84085 0.9166 0.0
C768 C 0.52484 0.92311 0.94603 0.0
C769 C 0.55057 0.88135 0.9454 0.0
C770 C 0.51743 0.94626 0.96034 0.0
C771 C 0.52602 0.9516 0.9885 0.0
C772 C 0.54059 0.90506 0.96011 0.0
C773 C 0.54143 0.93283 1.00184 0.0
C774 C 0.56222 0.86093 0.9605 0.0
C775 C 0.56215 0.86074 0.90228 0.0
N776 N 0.54821 0.91046 0.98754 0.0
N777 N 0.55048 0.88033 0.91681 0.0
H778 H 0.92536 0.20452 0.44753 0.0
H779 H 0.00809 0.07252 0.44292 0.0
H780 H 0.94859 0.16745 0.37006 0.0
H781 H 0.96739 0.1005 0.51682 0.0
H782 H 0.9938 0.11156 0.41629 0.0
H783 H 0.94903 0.17148 0.47369 0.0
C784 C 0.93589 0.18976 0.43599 0.0
C785 C 0.93476 0.18861 0.40655 0.0
C786 C 0.98817 0.10914 0.43837 0.0
C787 C 0.96146 0.15026 0.43643 0.0
C788 C 0.99633 0.08692 0.45356 0.0
C789 C 0.98858 0.08302 0.48203 0.0
C790 C 0.97251 0.12768 0.45191 0.0
C791 C 0.97345 0.10237 0.49481 0.0
C792 C 0.94917 0.17069 0.45095 0.0
C793 C 0.9485 0.16873 0.39276 0.0
N794 N 0.96589 0.12376 0.47967 0.0
N795 N 0.96111 0.15019 0.40782 0.0
H796 H 0.23154 0.64239 0.1121 0.0
H797 H 0.08516 0.51601 0.09796 0.0
H798 H 0.21097 0.56989 0.16801 0.0
H799 H 0.10469 0.58789 0.04119 0.0
H800 H 0.13196 0.53493 0.12272 0.0
H801 H 0.1863 0.62235 0.08504 0.0
C802 C 0.21769 0.62214 0.11861 0.0
C803 C 0.22528 0.60783 0.14245 0.0
C804 C 0.12613 0.54659 0.10483 0.0
C805 C 0.173 0.58488 0.11156 0.0
C806 C 0.0993 0.53579 0.09059 0.0
C807 C 0.09073 0.55045 0.06744 0.0
C808 C 0.14477 0.57236 0.09603 0.0
C809 C 0.11028 0.57585 0.0589 0.0
C810 C 0.19171 0.61079 0.10318 0.0
C811 C 0.20598 0.58192 0.15005 0.0
N812 N 0.1363 0.58606 0.07325 0.0
N813 N 0.18083 0.57133 0.13468 0.0
H814 H 0.27403 0.45881 0.63213 0.0
H815 H 0.41995 0.43322 0.55411 0.0
H816 H 0.31596 0.38885 0.65451 0.0
H817 H 0.41119 0.51849 0.5767 0.0
H818 H 0.3742 0.41368 0.58117 0.0
H819 H 0.31778 0.47875 0.60317 0.0
C820 C 0.29226 0.44759 0.63125 0.0
C821 C 0.29077 0.4218 0.64602 0.0
C822 C 0.38223 0.43667 0.57993 0.0
C823 C 0.34046 0.44418 0.61165 0.0
C824 C 0.40812 0.44781 0.56435 0.0
C825 C 0.41937 0.47749 0.56324 0.0
C826 C 0.3671 0.45537 0.59386 0.0
C827 C 0.40333 0.49546 0.57716 0.0
C828 C 0.31714 0.45896 0.61442 0.0
C829 C 0.31523 0.40823 0.64314 0.0
N830 N 0.37791 0.48414 0.59178 0.0
N831 N 0.33881 0.4194 0.62615 0.0
H832 H 0.79483 0.73133 0.94042 0.0
H833 H 0.88421 0.60574 0.93432 0.0
H834 H 0.75596 0.64678 0.90869 0.0
H835 H 0.91108 0.67946 0.98821 0.0
H836 H 0.83794 0.62147 0.92309 0.0
H837 H 0.83788 0.71351 0.95755 0.0
C838 C 0.79501 0.70891 0.93743 0.0
C839 C 0.77166 0.69061 0.92285 0.0
C840 C 0.85386 0.63416 0.93749 0.0
C841 C 0.82146 0.6703 0.94183 0.0
C842 C 0.88037 0.62531 0.94371 0.0
C843 C 0.90157 0.64146 0.96204 0.0
C844 C 0.84863 0.65955 0.94939 0.0
C845 C 0.89526 0.66639 0.97401 0.0
C846 C 0.81978 0.69882 0.94707 0.0
C847 C 0.77363 0.66187 0.91924 0.0
N848 N 0.86946 0.67483 0.96728 0.0
N849 N 0.79821 0.6527 0.9284 0.0
H850 H 0.38187 0.809 0.13218 0.0
H851 H 0.50673 0.95457 0.11766 0.0
H852 H 0.45849 0.83049 0.18748 0.0
H853 H 0.43365 0.92726 0.05924 0.0
H854 H 0.48912 0.91046 0.14453 0.0
H855 H 0.40016 0.85321 0.10638 0.0
C856 C 0.40248 0.82313 0.13907 0.0
C857 C 0.41847 0.81602 0.16229 0.0
C858 C 0.47696 0.91417 0.12584 0.0
C859 C 0.4399 0.86695 0.13239 0.0
C860 C 0.48695 0.93941 0.1105 0.0
C861 C 0.47167 0.94478 0.08608 0.0
C862 C 0.45143 0.89414 0.1168 0.0
C863 C 0.44623 0.92419 0.07785 0.0
C864 C 0.41305 0.84837 0.12415 0.0
C865 C 0.44545 0.83498 0.16968 0.0
N866 N 0.43697 0.89992 0.09315 0.0
N867 N 0.45524 0.85961 0.15487 0.0
H868 H 0.05113 0.20345 0.68753 0.0
H869 H 0.08011 0.1082 0.55533 0.0
H870 H 0.12882 0.22389 0.63363 0.0
H871 H 0.00701 0.08089 0.61349 0.0
H872 H 0.09683 0.15156 0.58314 0.0
H873 H 0.03295 0.15965 0.65991 0.0
C874 C 0.06431 0.19882 0.66988 0.0
C875 C 0.09171 0.21734 0.66311 0.0
C876 C 0.07715 0.1361 0.58992 0.0
C877 C 0.07106 0.16721 0.63142 0.0
C878 C 0.06755 0.11124 0.57399 0.0
C879 C 0.04209 0.09069 0.58203 0.0
C880 C 0.06119 0.14075 0.61414 0.0
C881 C 0.02681 0.09603 0.60649 0.0
C882 C 0.054 0.17373 0.6542 0.0
C883 C 0.10788 0.21008 0.64004 0.0
N884 N 0.03655 0.12053 0.62162 0.0
N885 N 0.09733 0.18572 0.62511 0.0
H886 H 0.70965 0.29313 0.42826 0.0
H887 H 0.62908 0.42516 0.43138 0.0
H888 H 0.7533 0.37844 0.40243 0.0
H889 H 0.59663 0.34808 0.47894 0.0
H890 H 0.67404 0.40762 0.4192 0.0
H891 H 0.66783 0.31218 0.44656 0.0
C892 C 0.71074 0.31593 0.42679 0.0
C893 C 0.73508 0.33413 0.41353 0.0
C894 C 0.65719 0.39458 0.43243 0.0
C895 C 0.68676 0.35594 0.43389 0.0
C896 C 0.63144 0.40448 0.4392 0.0
C897 C 0.60903 0.38792 0.45601 0.0
C898 C 0.66047 0.36773 0.44223 0.0
C899 C 0.61343 0.36151 0.46597 0.0
C900 C 0.6867 0.32675 0.4371 0.0
C901 C 0.73481 0.36343 0.4119 0.0
N902 N 0.63853 0.35209 0.45872 0.0
N903 N 0.71094 0.37335 0.42169 0.0
loop_
_geom_bond_atom_site_label_1
_geom_bond_atom_site_label_2
_geom_bond_distance
_geom_bond_site_symmetry_2
_ccdc_geom_bond_type
C0 C1 1.386 . S
C0 C2 1.397 . S
C0 H24 0.931 . S
C1 C0 1.386 . S
C1 C5 1.397 . S
C2 C0 1.397 . S
C2 C3 1.384 . S
C2 H25 0.930 . S
C3 C2 1.384 . S
C3 C4 1.377 . S
C3 C6 1.481 . S
C4 C3 1.377 . S
C4 C5 1.389 . S
C4 H26 0.929 . S
C5 C1 1.397 . S
C5 C4 1.389 . S
C5 H27 0.931 . S
C6 C3 1.481 . S
C6 C7 1.387 . S
C6 C11 1.390 . S
C7 C6 1.387 . S
C7 C8 1.401 . S
C7 H28 0.930 . S
C8 C7 1.401 . S
C8 C9 1.376 . S
C8 C17 1.511 . S
C9 C8 1.376 . S
C9 C10 1.392 . S
C9 H30 0.931 . S
C10 C9 1.392 . S
C10 C11 1.361 . S
C10 C12 1.500 . S
C11 C6 1.390 . S
C11 C10 1.361 . S
C11 H29 0.931 . S
C12 C10 1.500 . S
C12 C13 1.371 . S
C12 C14 1.365 . S
C13 C12 1.371 . S
C13 C23 1.386 . S
C13 H31 0.931 . S
C14 C12 1.365 . S
C14 C15 1.409 . S
C14 H32 0.929 . S
C15 C14 1.409 . S
C15 C16 1.380 . S
C15 H33 0.930 . S
C16 C15 1.380 . S
C16 C23 1.357 . S
C17 C8 1.511 . S
C17 C18 1.341 . S
C17 C19 1.371 . S
C18 C17 1.341 . S
C18 C22 1.394 . S
C18 H34 0.930 . S
C19 C17 1.371 . S
C19 C20 1.392 . S
C19 H35 0.931 . S
C20 C19 1.392 . S
C20 C21 1.331 . S
C20 H38 0.932 . S
C21 C20 1.331 . S
C21 C22 1.336 . S
C22 C18 1.394 . S
C22 C21 1.336 . S
C22 H37 0.929 . S
C23 C13 1.386 . S
C23 C16 1.357 . S
C23 H36 0.928 . S
H24 C0 0.931 . S
H25 C2 0.930 . S
H26 C4 0.929 . S
H27 C5 0.931 . S
H28 C7 0.930 . S
H29 C11 0.931 . S
H30 C9 0.931 . S
H31 C13 0.931 . S
H32 C14 0.929 . S
H33 C15 0.930 . S
H34 C18 0.930 . S
H35 C19 0.931 . S
H36 C23 0.928 . S
H37 C22 0.929 . S
H38 C20 0.932 . S
C39 C40 1.386 . S
C39 C41 1.397 . S
C39 H63 0.931 . S
C40 C39 1.386 . S
C40 C44 1.397 . S
C41 C39 1.397 . S
C41 C42 1.384 . S
C41 H64 0.930 . S
C42 C41 1.384 . S
C42 C43 1.377 . S
C42 C45 1.481 . S
C43 C42 1.377 . S
C43 C44 1.389 . S
C43 H65 0.929 . S
C44 C40 1.397 . S
C44 C43 1.389 . S
C44 H66 0.931 . S
C45 C42 1.481 . S
C45 C46 1.387 . S
C45 C50 1.390 . S
C46 C45 1.387 . S
C46 C47 1.401 . S
C46 H67 0.930 . S
C47 C46 1.401 . S
C47 C48 1.376 . S
C47 C56 1.511 . S
C48 C47 1.376 . S
C48 C49 1.392 . S
C48 H69 0.931 . S
C49 C48 1.392 . S
C49 C50 1.361 . S
C49 C51 1.500 . S
C50 C45 1.390 . S
C50 C49 1.361 . S
C50 H68 0.931 . S
C51 C49 1.500 . S
C51 C52 1.371 . S
C51 C53 1.365 . S
C52 C51 1.371 . S
C52 C62 1.386 . S
C52 H70 0.931 . S
C53 C51 1.365 . S
C53 C54 1.409 . S
C53 H71 0.929 . S
C54 C53 1.409 . S
C54 C55 1.380 . S
C54 H72 0.930 . S
C55 C54 1.380 . S
C55 C62 1.357 . S
C56 C47 1.511 . S
C56 C57 1.341 . S
C56 C58 1.371 . S
C57 C56 1.341 . S
C57 C61 1.394 . S
C57 H73 0.930 . S
C58 C56 1.371 . S
C58 C59 1.392 . S
C58 H74 0.931 . S
C59 C58 1.392 . S
C59 C60 1.331 . S
C59 H77 0.932 . S
C60 C59 1.331 . S
C60 C61 1.336 . S
C61 C57 1.394 . S
C61 C60 1.336 . S
C61 H76 0.929 . S
C62 C52 1.386 . S
C62 C55 1.357 . S
C62 H75 0.928 . S
H63 C39 0.931 . S
H64 C41 0.930 . S
H65 C43 0.929 . S
H66 C44 0.931 . S
H67 C46 0.930 . S
H68 C50 0.931 . S
H69 C48 0.931 . S
H70 C52 0.931 . S
H71 C53 0.929 . S
H72 C54 0.930 . S
H73 C57 0.930 . S
H74 C58 0.931 . S
H75 C62 0.928 . S
H76 C61 0.929 . S
H77 C59 0.932 . S
C78 C79 1.386 . S
C78 C80 1.397 . S
C78 H102 0.931 . S
C79 C78 1.386 . S
C79 C83 1.397 . S
C80 C78 1.397 . S
C80 C81 1.384 . S
C80 H103 0.930 . S
C81 C80 1.384 . S
C81 C82 1.377 . S
C81 C84 1.481 . S
C82 C81 1.377 . S
C82 C83 1.389 . S
C82 H104 0.929 . S
C83 C79 1.397 . S
C83 C82 1.389 . S
C83 H105 0.931 . S
C84 C81 1.481 . S
C84 C85 1.387 . S
C84 C89 1.390 . S
C85 C84 1.387 . S
C85 C86 1.401 . S
C85 H106 0.930 . S
C86 C85 1.401 . S
C86 C87 1.376 . S
C86 C95 1.511 . S
C87 C86 1.376 . S
C87 C88 1.392 . S
C87 H108 0.931 . S
C88 C87 1.392 . S
C88 C89 1.361 . S
C88 C90 1.500 . S
C89 C84 1.390 . S
C89 C88 1.361 . S
C89 H107 0.931 . S
C90 C88 1.500 . S
C90 C91 1.371 . S
C90 C92 1.365 . S
C91 C90 1.371 . S
C91 C101 1.386 . S
C91 H109 0.931 . S
C92 C90 1.365 . S
C92 C93 1.409 . S
C92 H110 0.929 . S
C93 C92 1.409 . S
C93 C94 1.380 . S
C93 H111 0.930 . S
C94 C93 1.380 . S
C94 C101 1.357 . S
C95 C86 1.511 . S
C95 C96 1.341 . S
C95 C97 1.371 . S
C96 C95 1.341 . S
C96 C100 1.394 . S
C96 H112 0.930 . S
C97 C95 1.371 . S
C97 C98 1.392 . S
C97 H113 0.931 . S
C98 C97 1.392 . S
C98 C99 1.331 . S
C98 H116 0.932 . S
C99 C98 1.331 . S
C99 C100 1.336 . S
C100 C96 1.394 . S
C100 C99 1.336 . S
C100 H115 0.929 . S
C101 C91 1.386 . S
C101 C94 1.357 . S
C101 H114 0.928 . S
H102 C78 0.931 . S
H103 C80 0.930 . S
H104 C82 0.929 . S
H105 C83 0.931 . S
H106 C85 0.930 . S
H107 C89 0.931 . S
H108 C87 0.931 . S
H109 C91 0.931 . S
H110 C92 0.929 . S
H111 C93 0.930 . S
H112 C96 0.930 . S
H113 C97 0.931 . S
H114 C101 0.928 . S
H115 C100 0.929 . S
H116 C98 0.932 . S
C117 C118 1.386 . S
C117 C119 1.397 . S
C117 H141 0.931 . S
C118 C117 1.386 . S
C118 C122 1.397 . S
C119 C117 1.397 . S
C119 C120 1.384 . S
C119 H142 0.930 . S
C120 C119 1.384 . S
C120 C121 1.377 . S
C120 C123 1.481 . S
C121 C120 1.377 . S
C121 C122 1.389 . S
C121 H143 0.929 . S
C122 C118 1.397 . S
C122 C121 1.389 . S
C122 H144 0.931 . S
C123 C120 1.481 . S
C123 C124 1.387 . S
C123 C128 1.390 . S
C124 C123 1.387 . S
C124 C125 1.401 . S
C124 H145 0.930 . S
C125 C124 1.401 . S
C125 C126 1.376 . S
C125 C134 1.511 . S
C126 C125 1.376 . S
C126 C127 1.392 . S
C126 H147 0.931 . S
C127 C126 1.392 . S
C127 C128 1.361 . S
C127 C129 1.500 . S
C128 C123 1.390 . S
C128 C127 1.361 . S
C128 H146 0.931 . S
C129 C127 1.500 . S
C129 C130 1.371 . S
C129 C131 1.365 . S
C130 C129 1.371 . S
C130 C140 1.386 . S
C130 H148 0.931 . S
C131 C129 1.365 . S
C131 C132 1.409 . S
C131 H149 0.929 . S
C132 C131 1.409 . S
C132 C133 1.380 . S
C132 H150 0.930 . S
C133 C132 1.380 . S
C133 C140 1.357 . S
C134 C125 1.511 . S
C134 C135 1.341 . S
C134 C136 1.371 . S
C135 C134 1.341 . S
C135 C139 1.394 . S
C135 H151 0.930 . S
C136 C134 1.371 . S
C136 C137 1.392 . S
C136 H152 0.931 . S
C137 C136 1.392 . S
C137 C138 1.331 . S
C137 H155 0.932 . S
C138 C137 1.331 . S
C138 C139 1.336 . S
C139 C135 1.394 . S
C139 C138 1.336 . S
C139 H154 0.929 . S
C140 C130 1.386 . S
C140 C133 1.357 . S
C140 H153 0.928 . S
H141 C117 0.931 . S
H142 C119 0.930 . S
H143 C121 0.929 . S
H144 C122 0.931 . S
H145 C124 0.930 . S
H146 C128 0.931 . S
H147 C126 0.931 . S
H148 C130 0.931 . S
H149 C131 0.929 . S
H150 C132 0.930 . S
H151 C135 0.930 . S
H152 C136 0.931 . S
H153 C140 0.928 . S
H154 C139 0.929 . S
H155 C137 0.932 . S
C156 C157 1.386 . S
C156 C158 1.397 . S
C156 H180 0.931 . S
C157 C156 1.386 . S
C157 C161 1.397 . S
C158 C156 1.397 . S
C158 C159 1.384 . S
C158 H181 0.930 . S
C159 C158 1.384 . S
C159 C160 1.377 . S
C159 C162 1.481 . S
C160 C159 1.377 . S
C160 C161 1.389 . S
C160 H182 0.929 . S
C161 C157 1.397 . S
C161 C160 1.389 . S
C161 H183 0.931 . S
C162 C159 1.481 . S
C162 C163 1.387 . S
C162 C167 1.390 . S
C163 C162 1.387 . S
C163 C164 1.401 . S
C163 H184 0.930 . S
C164 C163 1.401 . S
C164 C165 1.376 . S
C164 C173 1.511 . S
C165 C164 1.376 . S
C165 C166 1.392 . S
C165 H186 0.931 . S
C166 C165 1.392 . S
C166 C167 1.361 . S
C166 C168 1.500 . S
C167 C162 1.390 . S
C167 C166 1.361 . S
C167 H185 0.931 . S
C168 C166 1.500 . S
C168 C169 1.371 . S
C168 C170 1.365 . S
C169 C168 1.371 . S
C169 C179 1.386 . S
C169 H187 0.931 . S
C170 C168 1.365 . S
C170 C171 1.409 . S
C170 H188 0.929 . S
C171 C170 1.409 . S
C171 C172 1.380 . S
C171 H189 0.930 . S
C172 C171 1.380 . S
C172 C179 1.357 . S
C173 C164 1.511 . S
C173 C174 1.341 . S
C173 C175 1.371 . S
C174 C173 1.341 . S
C174 C178 1.394 . S
C174 H190 0.930 . S
C175 C173 1.371 . S
C175 C176 1.392 . S
C175 H191 0.931 . S
C176 C175 1.392 . S
C176 C177 1.331 . S
C176 H194 0.932 . S
C177 C176 1.331 . S
C177 C178 1.336 . S
C178 C174 1.394 . S
C178 C177 1.336 . S
C178 H193 0.929 . S
C179 C169 1.386 . S
C179 C172 1.357 . S
C179 H192 0.928 . S
H180 C156 0.931 . S
H181 C158 0.930 . S
H182 C160 0.929 . S
H183 C161 0.931 . S
H184 C163 0.930 . S
H185 C167 0.931 . S
H186 C165 0.931 . S
H187 C169 0.931 . S
H188 C170 0.929 . S
H189 C171 0.930 . S
H190 C174 0.930 . S
H191 C175 0.931 . S
H192 C179 0.928 . S
H193 C178 0.929 . S
H194 C176 0.932 . S
C195 C196 1.386 . S
C195 C197 1.397 . S
C195 H219 0.931 . S
C196 C195 1.386 . S
C196 C200 1.397 . S
C197 C195 1.397 . S
C197 C198 1.384 . S
C197 H220 0.930 . S
C198 C197 1.384 . S
C198 C199 1.377 . S
C198 C201 1.481 . S
C199 C198 1.377 . S
C199 C200 1.389 . S
C199 H221 0.929 . S
C200 C196 1.397 . S
C200 C199 1.389 . S
C200 H222 0.931 . S
C201 C198 1.481 . S
C201 C202 1.387 . S
C201 C206 1.390 . S
C202 C201 1.387 . S
C202 C203 1.401 . S
C202 H223 0.930 . S
C203 C202 1.401 . S
C203 C204 1.376 . S
C203 C212 1.511 . S
C204 C203 1.376 . S
C204 C205 1.392 . S
C204 H225 0.931 . S
C205 C204 1.392 . S
C205 C206 1.361 . S
C205 C207 1.500 . S
C206 C201 1.390 . S
C206 C205 1.361 . S
C206 H224 0.931 . S
C207 C205 1.500 . S
C207 C208 1.371 . S
C207 C209 1.365 . S
C208 C207 1.371 . S
C208 C218 1.386 . S
C208 H226 0.931 . S
C209 C207 1.365 . S
C209 C210 1.409 . S
C209 H227 0.929 . S
C210 C209 1.409 . S
C210 C211 1.380 . S
C210 H228 0.930 . S
C211 C210 1.380 . S
C211 C218 1.357 . S
C212 C203 1.511 . S
C212 C213 1.341 . S
C212 C214 1.371 . S
C213 C212 1.341 . S
C213 C217 1.394 . S
C213 H229 0.930 . S
C214 C212 1.371 . S
C214 C215 1.392 . S
C214 H230 0.931 . S
C215 C214 1.392 . S
C215 C216 1.331 . S
C215 H233 0.932 . S
C216 C215 1.331 . S
C216 C217 1.336 . S
C217 C213 1.394 . S
C217 C216 1.336 . S
C217 H232 0.929 . S
C218 C208 1.386 . S
C218 C211 1.357 . S
C218 H231 0.928 . S
H219 C195 0.931 . S
H220 C197 0.930 . S
H221 C199 0.929 . S
H222 C200 0.931 . S
H223 C202 0.930 . S
H224 C206 0.931 . S
H225 C204 0.931 . S
H226 C208 0.931 . S
H227 C209 0.929 . S
H228 C210 0.930 . S
H229 C213 0.930 . S
H230 C214 0.931 . S
H231 C218 0.928 . S
H232 C217 0.929 . S
H233 C215 0.932 . S
C234 C235 1.386 . S
C234 C236 1.397 . S
C234 H258 0.931 . S
C235 C234 1.386 . S
C235 C239 1.397 . S
C236 C234 1.397 . S
C236 C237 1.384 . S
C236 H259 0.930 . S
C237 C236 1.384 . S
C237 C238 1.377 . S
C237 C240 1.481 . S
C238 C237 1.377 . S
C238 C239 1.389 . S
C238 H260 0.929 . S
C239 C235 1.397 . S
C239 C238 1.389 . S
C239 H261 0.931 . S
C240 C237 1.481 . S
C240 C241 1.387 . S
C240 C245 1.390 . S
C241 C240 1.387 . S
C241 C242 1.401 . S
C241 H262 0.930 . S
C242 C241 1.401 . S
C242 C243 1.376 . S
C242 C251 1.511 . S
C243 C242 1.376 . S
C243 C244 1.392 . S
C243 H264 0.931 . S
C244 C243 1.392 . S
C244 C245 1.361 . S
C244 C246 1.500 . S
C245 C240 1.390 . S
C245 C244 1.361 . S
C245 H263 0.931 . S
C246 C244 1.500 . S
C246 C247 1.371 . S
C246 C248 1.365 . S
C247 C246 1.371 . S
C247 C257 1.386 . S
C247 H265 0.931 . S
C248 C246 1.365 . S
C248 C249 1.409 . S
C248 H266 0.929 . S
C249 C248 1.409 . S
C249 C250 1.380 . S
C249 H267 0.930 . S
C250 C249 1.380 . S
C250 C257 1.357 . S
C251 C242 1.511 . S
C251 C252 1.341 . S
C251 C253 1.371 . S
C252 C251 1.341 . S
C252 C256 1.394 . S
C252 H268 0.930 . S
C253 C251 1.371 . S
C253 C254 1.392 . S
C253 H269 0.931 . S
C254 C253 1.392 . S
C254 C255 1.331 . S
C254 H272 0.932 . S
C255 C254 1.331 . S
C255 C256 1.336 . S
C256 C252 1.394 . S
C256 C255 1.336 . S
C256 H271 0.929 . S
C257 C247 1.386 . S
C257 C250 1.357 . S
C257 H270 0.928 . S
H258 C234 0.931 . S
H259 C236 0.930 . S
H260 C238 0.929 . S
H261 C239 0.931 . S
H262 C241 0.930 . S
H263 C245 0.931 . S
H264 C243 0.931 . S
H265 C247 0.931 . S
H266 C248 0.929 . S
H267 C249 0.930 . S
H268 C252 0.930 . S
H269 C253 0.931 . S
H270 C257 0.928 . S
H271 C256 0.929 . S
H272 C254 0.932 . S
C273 C274 1.386 . S
C273 C275 1.397 . S
C273 H297 0.931 . S
C274 C273 1.386 . S
C274 C278 1.397 . S
C275 C273 1.397 . S
C275 C276 1.384 . S
C275 H298 0.930 . S
C276 C275 1.384 . S
C276 C277 1.377 . S
C276 C279 1.481 . S
C277 C276 1.377 . S
C277 C278 1.389 . S
C277 H299 0.929 . S
C278 C274 1.397 . S
C278 C277 1.389 . S
C278 H300 0.931 . S
C279 C276 1.481 . S
C279 C280 1.387 . S
C279 C284 1.390 . S
C280 C279 1.387 . S
C280 C281 1.401 . S
C280 H301 0.930 . S
C281 C280 1.401 . S
C281 C282 1.376 . S
C281 C290 1.511 . S
C282 C281 1.376 . S
C282 C283 1.392 . S
C282 H303 0.931 . S
C283 C282 1.392 . S
C283 C284 1.361 . S
C283 C285 1.500 . S
C284 C279 1.390 . S
C284 C283 1.361 . S
C284 H302 0.931 . S
C285 C283 1.500 . S
C285 C286 1.371 . S
C285 C287 1.365 . S
C286 C285 1.371 . S
C286 C296 1.386 . S
C286 H304 0.931 . S
C287 C285 1.365 . S
C287 C288 1.409 . S
C287 H305 0.929 . S
C288 C287 1.409 . S
C288 C289 1.380 . S
C288 H306 0.930 . S
C289 C288 1.380 . S
C289 C296 1.357 . S
C290 C281 1.511 . S
C290 C291 1.341 . S
C290 C292 1.371 . S
C291 C290 1.341 . S
C291 C295 1.394 . S
C291 H307 0.930 . S
C292 C290 1.371 . S
C292 C293 1.392 . S
C292 H308 0.931 . S
C293 C292 1.392 . S
C293 C294 1.331 . S
C293 H311 0.932 . S
C294 C293 1.331 . S
C294 C295 1.336 . S
C295 C291 1.394 . S
C295 C294 1.336 . S
C295 H310 0.929 . S
C296 C286 1.386 . S
C296 C289 1.357 . S
C296 H309 0.928 . S
H297 C273 0.931 . S
H298 C275 0.930 . S
H299 C277 0.929 . S
H300 C278 0.931 . S
H301 C280 0.930 . S
H302 C284 0.931 . S
H303 C282 0.931 . S
H304 C286 0.931 . S
H305 C287 0.929 . S
H306 C288 0.930 . S
H307 C291 0.930 . S
H308 C292 0.931 . S
H309 C296 0.928 . S
H310 C295 0.929 . S
H311 C293 0.932 . S
Dy312 O315 2.307 1_545 S
Dy312 O317 2.395 . S
Dy312 O318 2.379 . S
Dy312 O320 2.339 1_545 S
Dy312 O322 2.298 1_455 S
Dy312 O326 2.275 . S
Dy312 C334 2.738 . S
Dy313 O316 2.298 1_655 S
Dy313 O319 2.275 . S
Dy313 O321 2.307 1_565 S
Dy313 O323 2.395 . S
Dy313 O324 2.379 . S
Dy313 O327 2.339 1_565 S
Dy313 C343 2.738 . S
C314 O326 1.254 . S
C314 O327 1.257 1_455 S
O315 Dy312 2.307 1_565 S
O315 C325 1.266 . S
O316 Dy313 2.298 1_455 S
O316 C325 1.236 . S
O317 Dy312 2.395 . S
O317 C334 1.255 . S
O318 Dy312 2.379 . S
O318 C334 1.249 . S
O319 Dy313 2.275 . S
O319 C335 1.254 . S
O320 Dy312 2.339 1_565 S
O320 C335 1.257 1_455 S
O321 Dy313 2.307 1_545 S
O321 C336 1.266 . S
O322 Dy312 2.298 1_655 S
O322 C336 1.236 . S
O323 Dy313 2.395 . S
O323 C343 1.255 . S
O324 Dy313 2.379 . S
O324 C343 1.249 . S
C325 O315 1.266 . S
C325 O316 1.236 . S
O326 Dy312 2.275 . S
O326 C314 1.254 . S
O327 Dy313 2.339 1_545 S
O327 C314 1.257 1_655 S
C328 C331 1.344 . S
C328 C332 1.328 . S
C328 C334 1.516 . S
C329 C330 1.304 . S
C329 C333 1.323 . S
C330 C329 1.304 . S
C330 C331 1.371 . S
C330 H344 0.930 . S
C331 C328 1.344 . S
C331 C330 1.371 . S
C331 H345 0.931 . S
C332 C328 1.328 . S
C332 C333 1.433 . S
C332 H346 0.931 . S
C333 C329 1.323 . S
C333 C332 1.433 . S
C333 H347 0.933 . S
C334 Dy312 2.738 . S
C334 O317 1.255 . S
C334 O318 1.249 . S
C334 C328 1.516 . S
C335 O319 1.254 . S
C335 O320 1.257 1_655 S
C336 O321 1.266 . S
C336 O322 1.236 . S
C337 C340 1.344 . S
C337 C341 1.328 . S
C337 C343 1.516 . S
C338 C339 1.304 . S
C338 C342 1.323 . S
C339 C338 1.304 . S
C339 C340 1.371 . S
C339 H348 0.930 . S
C340 C337 1.344 . S
C340 C339 1.371 . S
C340 H349 0.931 . S
C341 C337 1.328 . S
C341 C342 1.433 . S
C341 H350 0.931 . S
C342 C338 1.323 . S
C342 C341 1.433 . S
C342 H351 0.933 . S
C343 Dy313 2.738 . S
C343 O323 1.255 . S
C343 O324 1.249 . S
C343 C337 1.516 . S
H344 C330 0.930 . S
H345 C331 0.931 . S
H346 C332 0.931 . S
H347 C333 0.933 . S
H348 C339 0.930 . S
H349 C340 0.931 . S
H350 C341 0.931 . S
H351 C342 0.933 . S
Dy352 O355 2.307 1_566 S
Dy352 O357 2.395 . S
Dy352 O358 2.379 . S
Dy352 O360 2.339 1_565 S
Dy352 O362 2.298 . S
Dy352 O366 2.275 1_556 S
Dy352 C374 2.738 . S
Dy353 O356 2.298 . S
Dy353 O359 2.275 1_554 S
Dy353 O361 2.307 1_544 S
Dy353 O363 2.395 . S
Dy353 O364 2.379 . S
Dy353 O367 2.339 1_545 S
Dy353 C383 2.738 . S
C354 O366 1.254 . S
C354 O367 1.257 . S
O355 Dy352 2.307 1_544 S
O355 C365 1.266 . S
O356 Dy353 2.298 . S
O356 C365 1.236 . S
O357 Dy352 2.395 . S
O357 C374 1.255 . S
O358 Dy352 2.379 . S
O358 C374 1.249 . S
O359 Dy353 2.275 1_556 S
O359 C375 1.254 . S
O360 Dy352 2.339 1_545 S
O360 C375 1.257 . S
O361 Dy353 2.307 1_566 S
O361 C376 1.266 . S
O362 Dy352 2.298 . S
O362 C376 1.236 . S
O363 Dy353 2.395 . S
O363 C383 1.255 . S
O364 Dy353 2.379 . S
O364 C383 1.249 . S
C365 O355 1.266 . S
C365 O356 1.236 . S
O366 Dy352 2.275 1_554 S
O366 C354 1.254 . S
O367 Dy353 2.339 1_565 S
O367 C354 1.257 . S
C368 C371 1.344 . S
C368 C372 1.328 . S
C368 C374 1.516 . S
C369 C370 1.304 . S
C369 C373 1.323 . S
C370 C369 1.304 . S
C370 C371 1.371 . S
C370 H384 0.930 . S
C371 C368 1.344 . S
C371 C370 1.371 . S
C371 H385 0.931 . S
C372 C368 1.328 . S
C372 C373 1.433 . S
C372 H386 0.931 . S
C373 C369 1.323 . S
C373 C372 1.433 . S
C373 H387 0.933 . S
C374 Dy352 2.738 . S
C374 O357 1.255 . S
C374 O358 1.249 . S
C374 C368 1.516 . S
C375 O359 1.254 . S
C375 O360 1.257 . S
C376 O361 1.266 . S
C376 O362 1.236 . S
C377 C380 1.344 . S
C377 C381 1.328 . S
C377 C383 1.516 . S
C378 C379 1.304 . S
C378 C382 1.323 . S
C379 C378 1.304 . S
C379 C380 1.371 . S
C379 H388 0.930 . S
C380 C377 1.344 . S
C380 C379 1.371 . S
C380 H389 0.931 . S
C381 C377 1.328 . S
C381 C382 1.433 . S
C381 H390 0.931 . S
C382 C378 1.323 . S
C382 C381 1.433 . S
C382 H391 0.933 . S
C383 Dy353 2.738 . S
C383 O363 1.255 . S
C383 O364 1.249 . S
C383 C377 1.516 . S
H384 C370 0.930 . S
H385 C371 0.931 . S
H386 C372 0.931 . S
H387 C373 0.933 . S
H388 C379 0.930 . S
H389 C380 0.931 . S
H390 C381 0.931 . S
H391 C382 0.933 . S
Dy392 O395 2.307 . S
Dy392 O397 2.395 . S
Dy392 O398 2.379 . S
Dy392 O400 2.339 . S
Dy392 O402 2.298 . S
Dy392 O406 2.275 . S
Dy392 C414 2.738 . S
Dy393 O396 2.298 . S
Dy393 O399 2.275 . S
Dy393 O401 2.307 . S
Dy393 O403 2.395 . S
Dy393 O404 2.379 . S
Dy393 O407 2.339 . S
Dy393 C423 2.738 . S
C394 O406 1.254 . S
C394 O407 1.257 . S
O395 Dy392 2.307 . S
O395 C405 1.266 . S
O396 Dy393 2.298 . S
O396 C405 1.236 . S
O397 Dy392 2.395 . S
O397 C414 1.255 . S
O398 Dy392 2.379 . S
O398 C414 1.249 . S
O399 Dy393 2.275 . S
O399 C415 1.254 . S
O400 Dy392 2.339 . S
O400 C415 1.257 . S
O401 Dy393 2.307 . S
O401 C416 1.266 . S
O402 Dy392 2.298 . S
O402 C416 1.236 . S
O403 Dy393 2.395 . S
O403 C423 1.255 . S
O404 Dy393 2.379 . S
O404 C423 1.249 . S
C405 O395 1.266 . S
C405 O396 1.236 . S
O406 Dy392 2.275 . S
O406 C394 1.254 . S
O407 Dy393 2.339 . S
O407 C394 1.257 . S
C408 C411 1.344 . S
C408 C412 1.328 . S
C408 C414 1.516 . S
C409 C410 1.304 . S
C409 C413 1.323 . S
C410 C409 1.304 . S
C410 C411 1.371 . S
C410 H424 0.930 . S
C411 C408 1.344 . S
C411 C410 1.371 . S
C411 H425 0.931 . S
C412 C408 1.328 . S
C412 C413 1.433 . S
C412 H426 0.931 . S
C413 C409 1.323 . S
C413 C412 1.433 . S
C413 H427 0.933 . S
C414 Dy392 2.738 . S
C414 O397 1.255 . S
C414 O398 1.249 . S
C414 C408 1.516 . S
C415 O399 1.254 . S
C415 O400 1.257 . S
C416 O401 1.266 . S
C416 O402 1.236 . S
C417 C420 1.344 . S
C417 C421 1.328 . S
C417 C423 1.516 . S
C418 C419 1.304 . S
C418 C422 1.323 . S
C419 C418 1.304 . S
C419 C420 1.371 . S
C419 H428 0.930 . S
C420 C417 1.344 . S
C420 C419 1.371 . S
C420 H429 0.931 . S
C421 C417 1.328 . S
C421 C422 1.433 . S
C421 H430 0.931 . S
C422 C418 1.323 . S
C422 C421 1.433 . S
C422 H431 0.933 . S
C423 Dy393 2.738 . S
C423 O403 1.255 . S
C423 O404 1.249 . S
C423 C417 1.516 . S
H424 C410 0.930 . S
H425 C411 0.931 . S
H426 C412 0.931 . S
H427 C413 0.933 . S
H428 C419 0.930 . S
H429 C420 0.931 . S
H430 C421 0.931 . S
H431 C422 0.933 . S
Dy432 O435 2.307 1_656 S
Dy432 O437 2.395 . S
Dy432 O438 2.379 . S
Dy432 O440 2.339 1_655 S
Dy432 O442 2.298 . S
Dy432 O446 2.275 1_556 S
Dy432 C454 2.738 . S
Dy433 O436 2.298 . S
Dy433 O439 2.275 1_554 S
Dy433 O441 2.307 1_455 S
Dy433 O443 2.395 . S
Dy433 O444 2.379 . S
Dy433 O447 2.339 1_455 S
Dy433 C463 2.738 . S
C434 O446 1.254 . S
C434 O447 1.257 . S
O435 Dy432 2.307 1_454 S
O435 C445 1.266 . S
O436 Dy433 2.298 . S
O436 C445 1.236 . S
O437 Dy432 2.395 . S
O437 C454 1.255 . S
O438 Dy432 2.379 . S
O438 C454 1.249 . S
O439 Dy433 2.275 1_556 S
O439 C455 1.254 . S
O440 Dy432 2.339 1_455 S
O440 C455 1.257 . S
O441 Dy433 2.307 1_655 S
O441 C456 1.266 1_554 S
O442 Dy432 2.298 . S
O442 C456 1.236 . S
O443 Dy433 2.395 . S
O443 C463 1.255 . S
O444 Dy433 2.379 . S
O444 C463 1.249 . S
C445 O435 1.266 . S
C445 O436 1.236 . S
O446 Dy432 2.275 1_554 S
O446 C434 1.254 . S
O447 Dy433 2.339 1_655 S
O447 C434 1.257 . S
C448 C451 1.344 . S
C448 C452 1.328 . S
C448 C454 1.516 . S
C449 C450 1.304 . S
C449 C453 1.323 . S
C450 C449 1.304 . S
C450 C451 1.371 . S
C450 H464 0.930 . S
C451 C448 1.344 . S
C451 C450 1.371 . S
C451 H465 0.931 . S
C452 C448 1.328 . S
C452 C453 1.433 . S
C452 H466 0.931 . S
C453 C449 1.323 . S
C453 C452 1.433 . S
C453 H467 0.933 . S
C454 Dy432 2.738 . S
C454 O437 1.255 . S
C454 O438 1.249 . S
C454 C448 1.516 . S
C455 O439 1.254 . S
C455 O440 1.257 . S
C456 O441 1.266 1_556 S
C456 O442 1.236 . S
C457 C460 1.344 . S
C457 C461 1.328 . S
C457 C463 1.516 . S
C458 C459 1.304 . S
C458 C462 1.323 . S
C459 C458 1.304 . S
C459 C460 1.371 . S
C459 H468 0.930 . S
C460 C457 1.344 . S
C460 C459 1.371 . S
C460 H469 0.931 . S
C461 C457 1.328 . S
C461 C462 1.433 . S
C461 H470 0.931 . S
C462 C458 1.323 . S
C462 C461 1.433 . S
C462 H471 0.933 . S
C463 Dy433 2.738 . S
C463 O443 1.255 . S
C463 O444 1.249 . S
C463 C457 1.516 . S
H464 C450 0.930 . S
H465 C451 0.931 . S
H466 C452 0.931 . S
H467 C453 0.933 . S
H468 C459 0.930 . S
H469 C460 0.931 . S
H470 C461 0.931 . S
H471 C462 0.933 . S
H472 C478 0.930 . S
H473 C482 0.930 . S
H474 C487 0.929 . S
H475 C485 0.929 . S
H476 C480 0.929 . S
H477 C486 0.929 . S
C478 H472 0.930 . S
C478 C479 1.367 . S
C478 C486 1.378 . S
C479 C478 1.367 . S
C479 C487 1.433 . S
C480 H476 0.929 . S
C480 C482 1.378 . S
C480 C484 1.350 . S
C481 C484 1.463 . S
C481 C486 1.350 . S
C481 N489 1.427 . S
C482 H473 0.930 . S
C482 C480 1.378 . S
C482 C483 1.367 . S
C483 C482 1.367 . S
C483 C485 1.433 . S
C484 C480 1.350 . S
C484 C481 1.463 . S
C484 N488 1.427 . S
C485 H475 0.929 . S
C485 C483 1.433 . S
C485 N488 1.384 . S
C486 H477 0.929 . S
C486 C478 1.378 . S
C486 C481 1.350 . S
C487 H474 0.929 . S
C487 C479 1.433 . S
C487 N489 1.384 . S
N488 C484 1.427 . S
N488 C485 1.384 . S
N489 C481 1.427 . S
N489 C487 1.384 . S
H490 C496 0.930 . S
H491 C500 0.930 . S
H492 C505 0.929 . S
H493 C503 0.929 . S
H494 C498 0.929 . S
H495 C504 0.929 . S
C496 H490 0.930 . S
C496 C497 1.367 . S
C496 C504 1.378 . S
C497 C496 1.367 . S
C497 C505 1.433 . S
C498 H494 0.929 . S
C498 C500 1.378 . S
C498 C502 1.350 . S
C499 C502 1.463 . S
C499 C504 1.350 . S
C499 N507 1.427 . S
C500 H491 0.930 . S
C500 C498 1.378 . S
C500 C501 1.367 . S
C501 C500 1.367 . S
C501 C503 1.433 . S
C502 C498 1.350 . S
C502 C499 1.463 . S
C502 N506 1.427 . S
C503 H493 0.929 . S
C503 C501 1.433 . S
C503 N506 1.384 . S
C504 H495 0.929 . S
C504 C496 1.378 . S
C504 C499 1.350 . S
C505 H492 0.929 . S
C505 C497 1.433 . S
C505 N507 1.384 . S
N506 C502 1.427 . S
N506 C503 1.384 . S
N507 C499 1.427 . S
N507 C505 1.384 . S
H508 C514 0.930 . S
H509 C518 0.930 . S
H510 C523 0.929 . S
H511 C521 0.929 . S
H512 C516 0.929 . S
H513 C522 0.929 . S
C514 H508 0.930 . S
C514 C515 1.367 . S
C514 C522 1.378 . S
C515 C514 1.367 . S
C515 C523 1.433 . S
C516 H512 0.929 . S
C516 C518 1.378 . S
C516 C520 1.350 . S
C517 C520 1.463 . S
C517 C522 1.350 . S
C517 N525 1.427 . S
C518 H509 0.930 . S
C518 C516 1.378 . S
C518 C519 1.367 . S
C519 C518 1.367 . S
C519 C521 1.433 . S
C520 C516 1.350 . S
C520 C517 1.463 . S
C520 N524 1.427 . S
C521 H511 0.929 . S
C521 C519 1.433 . S
C521 N524 1.384 . S
C522 H513 0.929 . S
C522 C514 1.378 . S
C522 C517 1.350 . S
C523 H510 0.929 . S
C523 C515 1.433 . S
C523 N525 1.384 . S
N524 C520 1.427 . S
N524 C521 1.384 . S
N525 C517 1.427 . S
N525 C523 1.384 . S
H526 C532 0.930 . S
H527 C536 0.930 . S
H528 C541 0.929 . S
H529 C539 0.929 . S
H530 C534 0.929 . S
H531 C540 0.929 . S
C532 H526 0.930 . S
C532 C533 1.367 . S
C532 C540 1.378 . S
C533 C532 1.367 . S
C533 C541 1.433 . S
C534 H530 0.929 . S
C534 C536 1.378 . S
C534 C538 1.350 . S
C535 C538 1.463 . S
C535 C540 1.350 . S
C535 N543 1.427 . S
C536 H527 0.930 . S
C536 C534 1.378 . S
C536 C537 1.367 . S
C537 C536 1.367 . S
C537 C539 1.433 . S
C538 C534 1.350 . S
C538 C535 1.463 . S
C538 N542 1.427 . S
C539 H529 0.929 . S
C539 C537 1.433 . S
C539 N542 1.384 . S
C540 H531 0.929 . S
C540 C532 1.378 . S
C540 C535 1.350 . S
C541 H528 0.929 . S
C541 C533 1.433 . S
C541 N543 1.384 . S
N542 C538 1.427 . S
N542 C539 1.384 . S
N543 C535 1.427 . S
N543 C541 1.384 . S
H544 C550 0.930 . S
H545 C554 0.930 . S
H546 C559 0.929 . S
H547 C557 0.929 . S
H548 C552 0.929 . S
H549 C558 0.929 . S
C550 H544 0.930 . S
C550 C551 1.367 . S
C550 C558 1.378 . S
C551 C550 1.367 . S
C551 C559 1.433 . S
C552 H548 0.929 . S
C552 C554 1.378 . S
C552 C556 1.350 . S
C553 C556 1.463 . S
C553 C558 1.350 . S
C553 N561 1.427 . S
C554 H545 0.930 . S
C554 C552 1.378 . S
C554 C555 1.367 . S
C555 C554 1.367 . S
C555 C557 1.433 . S
C556 C552 1.350 . S
C556 C553 1.463 . S
C556 N560 1.427 . S
C557 H547 0.929 . S
C557 C555 1.433 . S
C557 N560 1.384 . S
C558 H549 0.929 . S
C558 C550 1.378 . S
C558 C553 1.350 . S
C559 H546 0.929 . S
C559 C551 1.433 . S
C559 N561 1.384 . S
N560 C556 1.427 . S
N560 C557 1.384 . S
N561 C553 1.427 . S
N561 C559 1.384 . S
H562 C568 0.930 . S
H563 C572 0.930 . S
H564 C577 0.929 . S
H565 C575 0.929 . S
H566 C570 0.929 . S
H567 C576 0.929 . S
C568 H562 0.930 . S
C568 C569 1.367 . S
C568 C576 1.378 . S
C569 C568 1.367 . S
C569 C577 1.433 . S
C570 H566 0.929 . S
C570 C572 1.378 . S
C570 C574 1.350 . S
C571 C574 1.463 . S
C571 C576 1.350 . S
C571 N579 1.427 . S
C572 H563 0.930 . S
C572 C570 1.378 . S
C572 C573 1.367 . S
C573 C572 1.367 . S
C573 C575 1.433 . S
C574 C570 1.350 . S
C574 C571 1.463 . S
C574 N578 1.427 . S
C575 H565 0.929 . S
C575 C573 1.433 . S
C575 N578 1.384 . S
C576 H567 0.929 . S
C576 C568 1.378 . S
C576 C571 1.350 . S
C577 H564 0.929 . S
C577 C569 1.433 . S
C577 N579 1.384 . S
N578 C574 1.427 . S
N578 C575 1.384 . S
N579 C571 1.427 . S
N579 C577 1.384 . S
H580 C586 0.930 . S
H581 C590 0.930 . S
H582 C595 0.929 . S
H583 C593 0.929 . S
H584 C588 0.929 . S
H585 C594 0.929 . S
C586 H580 0.930 . S
C586 C587 1.367 . S
C586 C594 1.378 . S
C587 C586 1.367 . S
C587 C595 1.433 . S
C588 H584 0.929 . S
C588 C590 1.378 . S
C588 C592 1.350 . S
C589 C592 1.463 . S
C589 C594 1.350 . S
C589 N597 1.427 . S
C590 H581 0.930 . S
C590 C588 1.378 . S
C590 C591 1.367 . S
C591 C590 1.367 . S
C591 C593 1.433 . S
C592 C588 1.350 . S
C592 C589 1.463 . S
C592 N596 1.427 . S
C593 H583 0.929 . S
C593 C591 1.433 . S
C593 N596 1.384 . S
C594 H585 0.929 . S
C594 C586 1.378 . S
C594 C589 1.350 . S
C595 H582 0.929 . S
C595 C587 1.433 . S
C595 N597 1.384 . S
N596 C592 1.427 . S
N596 C593 1.384 . S
N597 C589 1.427 . S
N597 C595 1.384 . S
H598 C604 0.930 . S
H599 C608 0.930 . S
H600 C613 0.929 . S
H601 C611 0.929 . S
H602 C606 0.929 . S
H603 C612 0.929 . S
C604 H598 0.930 . S
C604 C605 1.367 . S
C604 C612 1.378 . S
C605 C604 1.367 . S
C605 C613 1.433 . S
C606 H602 0.929 . S
C606 C608 1.378 . S
C606 C610 1.350 . S
C607 C610 1.463 . S
C607 C612 1.350 . S
C607 N615 1.427 . S
C608 H599 0.930 . S
C608 C606 1.378 . S
C608 C609 1.367 . S
C609 C608 1.367 . S
C609 C611 1.433 . S
C610 C606 1.350 . S
C610 C607 1.463 . S
C610 N614 1.427 . S
C611 H601 0.929 . S
C611 C609 1.433 . S
C611 N614 1.384 . S
C612 H603 0.929 . S
C612 C604 1.378 . S
C612 C607 1.350 . S
C613 H600 0.929 . S
C613 C605 1.433 . S
C613 N615 1.384 . S
N614 C610 1.427 . S
N614 C611 1.384 . S
N615 C607 1.427 . S
N615 C613 1.384 . S
H616 C622 0.930 . S
H617 C626 0.930 . S
H618 C631 0.929 . S
H619 C629 0.929 . S
H620 C624 0.929 . S
H621 C630 0.929 . S
C622 H616 0.930 . S
C622 C623 1.367 . S
C622 C630 1.378 . S
C623 C622 1.367 . S
C623 C631 1.433 . S
C624 H620 0.929 . S
C624 C626 1.378 . S
C624 C628 1.350 . S
C625 C628 1.463 . S
C625 C630 1.350 . S
C625 N633 1.427 . S
C626 H617 0.930 . S
C626 C624 1.378 . S
C626 C627 1.367 . S
C627 C626 1.367 . S
C627 C629 1.433 . S
C628 C624 1.350 . S
C628 C625 1.463 . S
C628 N632 1.427 . S
C629 H619 0.929 . S
C629 C627 1.433 . S
C629 N632 1.384 . S
C630 H621 0.929 . S
C630 C622 1.378 . S
C630 C625 1.350 . S
C631 H618 0.929 . S
C631 C623 1.433 . S
C631 N633 1.384 . S
N632 C628 1.427 . S
N632 C629 1.384 . S
N633 C625 1.427 . S
N633 C631 1.384 . S
H634 C640 0.930 . S
H635 C644 0.930 . S
H636 C649 0.929 . S
H637 C647 0.929 . S
H638 C642 0.929 . S
H639 C648 0.929 . S
C640 H634 0.930 . S
C640 C641 1.367 . S
C640 C648 1.378 . S
C641 C640 1.367 . S
C641 C649 1.433 . S
C642 H638 0.929 . S
C642 C644 1.378 . S
C642 C646 1.350 . S
C643 C646 1.463 . S
C643 C648 1.350 . S
C643 N651 1.427 . S
C644 H635 0.930 . S
C644 C642 1.378 . S
C644 C645 1.367 . S
C645 C644 1.367 . S
C645 C647 1.433 . S
C646 C642 1.350 . S
C646 C643 1.463 . S
C646 N650 1.427 . S
C647 H637 0.929 . S
C647 C645 1.433 . S
C647 N650 1.384 . S
C648 H639 0.929 . S
C648 C640 1.378 . S
C648 C643 1.350 . S
C649 H636 0.929 . S
C649 C641 1.433 . S
C649 N651 1.384 . S
N650 C646 1.427 . S
N650 C647 1.384 . S
N651 C643 1.427 . S
N651 C649 1.384 . S
H652 C658 0.930 . S
H653 C662 0.930 . S
H654 C667 0.929 . S
H655 C665 0.929 . S
H656 C660 0.929 . S
H657 C666 0.929 . S
C658 H652 0.930 . S
C658 C659 1.367 . S
C658 C666 1.378 . S
C659 C658 1.367 . S
C659 C667 1.433 . S
C660 H656 0.929 . S
C660 C662 1.378 . S
C660 C664 1.350 . S
C661 C664 1.463 . S
C661 C666 1.350 . S
C661 N669 1.427 . S
C662 H653 0.930 . S
C662 C660 1.378 . S
C662 C663 1.367 . S
C663 C662 1.367 . S
C663 C665 1.433 . S
C664 C660 1.350 . S
C664 C661 1.463 . S
C664 N668 1.427 . S
C665 H655 0.929 . S
C665 C663 1.433 . S
C665 N668 1.384 . S
C666 H657 0.929 . S
C666 C658 1.378 . S
C666 C661 1.350 . S
C667 H654 0.929 . S
C667 C659 1.433 . S
C667 N669 1.384 . S
N668 C664 1.427 . S
N668 C665 1.384 . S
N669 C661 1.427 . S
N669 C667 1.384 . S
H670 C676 0.930 . S
H671 C680 0.930 . S
H672 C685 0.929 . S
H673 C683 0.929 . S
H674 C678 0.929 . S
H675 C684 0.929 . S
C676 H670 0.930 . S
C676 C677 1.367 . S
C676 C684 1.378 . S
C677 C676 1.367 . S
C677 C685 1.433 . S
C678 H674 0.929 . S
C678 C680 1.378 . S
C678 C682 1.350 . S
C679 C682 1.463 . S
C679 C684 1.350 . S
C679 N687 1.427 . S
C680 H671 0.930 . S
C680 C678 1.378 . S
C680 C681 1.367 . S
C681 C680 1.367 . S
C681 C683 1.433 . S
C682 C678 1.350 . S
C682 C679 1.463 . S
C682 N686 1.427 . S
C683 H673 0.929 . S
C683 C681 1.433 . S
C683 N686 1.384 . S
C684 H675 0.929 . S
C684 C676 1.378 . S
C684 C679 1.350 . S
C685 H672 0.929 . S
C685 C677 1.433 . S
C685 N687 1.384 . S
N686 C682 1.427 . S
N686 C683 1.384 . S
N687 C679 1.427 . S
N687 C685 1.384 . S
H688 C694 0.930 . S
H689 C698 0.930 . S
H690 C703 0.929 . S
H691 C701 0.929 . S
H692 C696 0.929 . S
H693 C702 0.929 . S
C694 H688 0.930 . S
C694 C695 1.367 . S
C694 C702 1.378 . S
C695 C694 1.367 . S
C695 C703 1.433 . S
C696 H692 0.929 . S
C696 C698 1.378 . S
C696 C700 1.350 . S
C697 C700 1.463 . S
C697 C702 1.350 . S
C697 N705 1.427 . S
C698 H689 0.930 . S
C698 C696 1.378 . S
C698 C699 1.367 . S
C699 C698 1.367 . S
C699 C701 1.433 . S
C700 C696 1.350 . S
C700 C697 1.463 . S
C700 N704 1.427 . S
C701 H691 0.929 . S
C701 C699 1.433 . S
C701 N704 1.384 . S
C702 H693 0.929 . S
C702 C694 1.378 . S
C702 C697 1.350 . S
C703 H690 0.929 . S
C703 C695 1.433 . S
C703 N705 1.384 . S
N704 C700 1.427 . S
N704 C701 1.384 . S
N705 C697 1.427 . S
N705 C703 1.384 . S
H706 C712 0.930 . S
H707 C716 0.930 . S
H708 C721 0.929 . S
H709 C719 0.929 . S
H710 C714 0.929 . S
H711 C720 0.929 . S
C712 H706 0.930 . S
C712 C713 1.367 . S
C712 C720 1.378 . S
C713 C712 1.367 . S
C713 C721 1.433 . S
C714 H710 0.929 . S
C714 C716 1.378 . S
C714 C718 1.350 . S
C715 C718 1.463 . S
C715 C720 1.350 . S
C715 N723 1.427 . S
C716 H707 0.930 . S
C716 C714 1.378 . S
C716 C717 1.367 . S
C717 C716 1.367 . S
C717 C719 1.433 . S
C718 C714 1.350 . S
C718 C715 1.463 . S
C718 N722 1.427 . S
C719 H709 0.929 . S
C719 C717 1.433 . S
C719 N722 1.384 . S
C720 H711 0.929 . S
C720 C712 1.378 . S
C720 C715 1.350 . S
C721 H708 0.929 . S
C721 C713 1.433 . S
C721 N723 1.384 . S
N722 C718 1.427 . S
N722 C719 1.384 . S
N723 C715 1.427 . S
N723 C721 1.384 . S
H724 C730 0.930 . S
H725 C734 0.930 . S
H726 C739 0.929 . S
H727 C737 0.929 . S
H728 C732 0.929 . S
H729 C738 0.929 . S
C730 H724 0.930 . S
C730 C731 1.367 . S
C730 C738 1.378 . S
C731 C730 1.367 . S
C731 C739 1.433 . S
C732 H728 0.929 . S
C732 C734 1.378 . S
C732 C736 1.350 . S
C733 C736 1.463 . S
C733 C738 1.350 . S
C733 N741 1.427 . S
C734 H725 0.930 . S
C734 C732 1.378 . S
C734 C735 1.367 . S
C735 C734 1.367 . S
C735 C737 1.433 . S
C736 C732 1.350 . S
C736 C733 1.463 . S
C736 N740 1.427 . S
C737 H727 0.929 . S
C737 C735 1.433 . S
C737 N740 1.384 . S
C738 H729 0.929 . S
C738 C730 1.378 . S
C738 C733 1.350 . S
C739 H726 0.929 . S
C739 C731 1.433 . S
C739 N741 1.384 . S
N740 C736 1.427 . S
N740 C737 1.384 . S
N741 C733 1.427 . S
N741 C739 1.384 . S
H742 C748 0.930 . S
H743 C752 0.930 . S
H744 C757 0.929 . S
H745 C755 0.929 . S
H746 C750 0.929 . S
H747 C756 0.929 . S
C748 H742 0.930 . S
C748 C749 1.367 . S
C748 C756 1.378 . S
C749 C748 1.367 . S
C749 C757 1.433 . S
C750 H746 0.929 . S
C750 C752 1.378 . S
C750 C754 1.350 . S
C751 C754 1.463 . S
C751 C756 1.350 . S
C751 N759 1.427 . S
C752 H743 0.930 . S
C752 C750 1.378 . S
C752 C753 1.367 . S
C753 C752 1.367 . S
C753 C755 1.433 . S
C754 C750 1.350 . S
C754 C751 1.463 . S
C754 N758 1.427 . S
C755 H745 0.929 . S
C755 C753 1.433 . S
C755 N758 1.384 . S
C756 H747 0.929 . S
C756 C748 1.378 . S
C756 C751 1.350 . S
C757 H744 0.929 . S
C757 C749 1.433 . S
C757 N759 1.384 . S
N758 C754 1.427 . S
N758 C755 1.384 . S
N759 C751 1.427 . S
N759 C757 1.384 . S
H760 C766 0.930 . S
H761 C770 0.930 . S
H762 C775 0.929 . S
H763 C773 0.929 . S
H764 C768 0.929 . S
H765 C774 0.929 . S
C766 H760 0.930 . S
C766 C767 1.367 . S
C766 C774 1.378 . S
C767 C766 1.367 . S
C767 C775 1.433 . S
C768 H764 0.929 . S
C768 C770 1.378 . S
C768 C772 1.350 . S
C769 C772 1.463 . S
C769 C774 1.350 . S
C769 N777 1.427 . S
C770 H761 0.930 . S
C770 C768 1.378 . S
C770 C771 1.367 . S
C771 C770 1.367 . S
C771 C773 1.433 . S
C772 C768 1.350 . S
C772 C769 1.463 . S
C772 N776 1.427 . S
C773 H763 0.929 . S
C773 C771 1.433 . S
C773 N776 1.384 . S
C774 H765 0.929 . S
C774 C766 1.378 . S
C774 C769 1.350 . S
C775 H762 0.929 . S
C775 C767 1.433 . S
C775 N777 1.384 . S
N776 C772 1.427 . S
N776 C773 1.384 . S
N777 C769 1.427 . S
N777 C775 1.384 . S
H778 C784 0.930 . S
H779 C788 0.930 . S
H780 C793 0.929 . S
H781 C791 0.929 . S
H782 C786 0.929 . S
H783 C792 0.929 . S
C784 H778 0.930 . S
C784 C785 1.367 . S
C784 C792 1.378 . S
C785 C784 1.367 . S
C785 C793 1.433 . S
C786 H782 0.929 . S
C786 C788 1.378 . S
C786 C790 1.350 . S
C787 C790 1.463 . S
C787 C792 1.350 . S
C787 N795 1.427 . S
C788 H779 0.930 . S
C788 C786 1.378 . S
C788 C789 1.367 . S
C789 C788 1.367 . S
C789 C791 1.433 . S
C790 C786 1.350 . S
C790 C787 1.463 . S
C790 N794 1.427 . S
C791 H781 0.929 . S
C791 C789 1.433 . S
C791 N794 1.384 . S
C792 H783 0.929 . S
C792 C784 1.378 . S
C792 C787 1.350 . S
C793 H780 0.929 . S
C793 C785 1.433 . S
C793 N795 1.384 . S
N794 C790 1.427 . S
N794 C791 1.384 . S
N795 C787 1.427 . S
N795 C793 1.384 . S
H796 C802 0.930 . S
H797 C806 0.930 . S
H798 C811 0.929 . S
H799 C809 0.929 . S
H800 C804 0.929 . S
H801 C810 0.929 . S
C802 H796 0.930 . S
C802 C803 1.367 . S
C802 C810 1.378 . S
C803 C802 1.367 . S
C803 C811 1.433 . S
C804 H800 0.929 . S
C804 C806 1.378 . S
C804 C808 1.350 . S
C805 C808 1.463 . S
C805 C810 1.350 . S
C805 N813 1.427 . S
C806 H797 0.930 . S
C806 C804 1.378 . S
C806 C807 1.367 . S
C807 C806 1.367 . S
C807 C809 1.433 . S
C808 C804 1.350 . S
C808 C805 1.463 . S
C808 N812 1.427 . S
C809 H799 0.929 . S
C809 C807 1.433 . S
C809 N812 1.384 . S
C810 H801 0.929 . S
C810 C802 1.378 . S
C810 C805 1.350 . S
C811 H798 0.929 . S
C811 C803 1.433 . S
C811 N813 1.384 . S
N812 C808 1.427 . S
N812 C809 1.384 . S
N813 C805 1.427 . S
N813 C811 1.384 . S
H814 C820 0.930 . S
H815 C824 0.930 . S
H816 C829 0.929 . S
H817 C827 0.929 . S
H818 C822 0.929 . S
H819 C828 0.929 . S
C820 H814 0.930 . S
C820 C821 1.367 . S
C820 C828 1.378 . S
C821 C820 1.367 . S
C821 C829 1.433 . S
C822 H818 0.929 . S
C822 C824 1.378 . S
C822 C826 1.350 . S
C823 C826 1.463 . S
C823 C828 1.350 . S
C823 N831 1.427 . S
C824 H815 0.930 . S
C824 C822 1.378 . S
C824 C825 1.367 . S
C825 C824 1.367 . S
C825 C827 1.433 . S
C826 C822 1.350 . S
C826 C823 1.463 . S
C826 N830 1.427 . S
C827 H817 0.929 . S
C827 C825 1.433 . S
C827 N830 1.384 . S
C828 H819 0.929 . S
C828 C820 1.378 . S
C828 C823 1.350 . S
C829 H816 0.929 . S
C829 C821 1.433 . S
C829 N831 1.384 . S
N830 C826 1.427 . S
N830 C827 1.384 . S
N831 C823 1.427 . S
N831 C829 1.384 . S
H832 C838 0.930 . S
H833 C842 0.930 . S
H834 C847 0.929 . S
H835 C845 0.929 . S
H836 C840 0.929 . S
H837 C846 0.929 . S
C838 H832 0.930 . S
C838 C839 1.367 . S
C838 C846 1.378 . S
C839 C838 1.367 . S
C839 C847 1.433 . S
C840 H836 0.929 . S
C840 C842 1.378 . S
C840 C844 1.350 . S
C841 C844 1.463 . S
C841 C846 1.350 . S
C841 N849 1.427 . S
C842 H833 0.930 . S
C842 C840 1.378 . S
C842 C843 1.367 . S
C843 C842 1.367 . S
C843 C845 1.433 . S
C844 C840 1.350 . S
C844 C841 1.463 . S
C844 N848 1.427 . S
C845 H835 0.929 . S
C845 C843 1.433 . S
C845 N848 1.384 . S
C846 H837 0.929 . S
C846 C838 1.378 . S
C846 C841 1.350 . S
C847 H834 0.929 . S
C847 C839 1.433 . S
C847 N849 1.384 . S
N848 C844 1.427 . S
N848 C845 1.384 . S
N849 C841 1.427 . S
N849 C847 1.384 . S
H850 C856 0.930 . S
H851 C860 0.930 . S
H852 C865 0.929 . S
H853 C863 0.929 . S
H854 C858 0.929 . S
H855 C864 0.929 . S
C856 H850 0.930 . S
C856 C857 1.367 . S
C856 C864 1.378 . S
C857 C856 1.367 . S
C857 C865 1.433 . S
C858 H854 0.929 . S
C858 C860 1.378 . S
C858 C862 1.350 . S
C859 C862 1.463 . S
C859 C864 1.350 . S
C859 N867 1.427 . S
C860 H851 0.930 . S
C860 C858 1.378 . S
C860 C861 1.367 . S
C861 C860 1.367 . S
C861 C863 1.433 . S
C862 C858 1.350 . S
C862 C859 1.463 . S
C862 N866 1.427 . S
C863 H853 0.929 . S
C863 C861 1.433 . S
C863 N866 1.384 . S
C864 H855 0.929 . S
C864 C856 1.378 . S
C864 C859 1.350 . S
C865 H852 0.929 . S
C865 C857 1.433 . S
C865 N867 1.384 . S
N866 C862 1.427 . S
N866 C863 1.384 . S
N867 C859 1.427 . S
N867 C865 1.384 . S
H868 C874 0.930 . S
H869 C878 0.930 . S
H870 C883 0.929 . S
H871 C881 0.929 . S
H872 C876 0.929 . S
H873 C882 0.929 . S
C874 H868 0.930 . S
C874 C875 1.367 . S
C874 C882 1.378 . S
C875 C874 1.367 . S
C875 C883 1.433 . S
C876 H872 0.929 . S
C876 C878 1.378 . S
C876 C880 1.350 . S
C877 C880 1.463 . S
C877 C882 1.350 . S
C877 N885 1.427 . S
C878 H869 0.930 . S
C878 C876 1.378 . S
C878 C879 1.367 . S
C879 C878 1.367 . S
C879 C881 1.433 . S
C880 C876 1.350 . S
C880 C877 1.463 . S
C880 N884 1.427 . S
C881 H871 0.929 . S
C881 C879 1.433 . S
C881 N884 1.384 . S
C882 H873 0.929 . S
C882 C874 1.378 . S
C882 C877 1.350 . S
C883 H870 0.929 . S
C883 C875 1.433 . S
C883 N885 1.384 . S
N884 C880 1.427 . S
N884 C881 1.384 . S
N885 C877 1.427 . S
N885 C883 1.384 . S
H886 C892 0.930 . S
H887 C896 0.930 . S
H888 C901 0.929 . S
H889 C899 0.929 . S
H890 C894 0.929 . S
H891 C900 0.929 . S
C892 H886 0.930 . S
C892 C893 1.367 . S
C892 C900 1.378 . S
C893 C892 1.367 . S
C893 C901 1.433 . S
C894 H890 0.929 . S
C894 C896 1.378 . S
C894 C898 1.350 . S
C895 C898 1.463 . S
C895 C900 1.350 . S
C895 N903 1.427 . S
C896 H887 0.930 . S
C896 C894 1.378 . S
C896 C897 1.367 . S
C897 C896 1.367 . S
C897 C899 1.433 . S
C898 C894 1.350 . S
C898 C895 1.463 . S
C898 N902 1.427 . S
C899 H889 0.929 . S
C899 C897 1.433 . S
C899 N902 1.384 . S
C900 H891 0.929 . S
C900 C892 1.378 . S
C900 C895 1.350 . S
C901 H888 0.929 . S
C901 C893 1.433 . S
C901 N903 1.384 . S
N902 C898 1.427 . S
N902 C899 1.384 . S
N903 C895 1.427 . S
N903 C901 1.384 . S
C479 C1 1.221 . S
C483 C329 1.255 . S
C497 C40 1.220 . S
C501 C369 1.246 . S
C519 C394 2.383 . S
C515 C99 2.443 . S
C533 C118 2.430 . S
C537 C434 2.370 . S
C555 C365 1.826 . S
C551 C16 1.748 . S
C573 C325 1.828 . S
C569 C60 1.756 . S
C591 C456 1.686 . S
C587 C79 1.708 . S
C609 C416 1.653 . S
C605 C138 1.669 . S
C623 C21 1.375 . S
C627 C458 1.408 . S
C645 C375 2.157 . S
C641 C94 2.199 . S
C659 C133 2.171 . S
C663 C335 2.132 . S
C677 C55 1.365 . S
C681 C418 1.402 . S
C699 C338 1.259 . S
C695 C157 1.231 . S
C713 C196 1.215 . S
C717 C378 1.248 . S
C731 C255 2.440 . S
C735 C415 2.383 . S
C749 C289 2.425 . S
C753 C455 2.367 . S
C767 C172 1.744 . S
C771 C376 1.824 . S
C789 C336 1.829 . S
C785 C216 1.739 . S
C807 C445 1.681 . S
C803 C235 1.707 . S
C825 C405 1.649 . S
C821 C294 1.676 . S
C839 C177 1.382 . S
C843 C449 1.406 . S
C861 C354 2.157 . S
C857 C250 2.200 . S
C879 C314 2.140 . S
C875 C274 2.174 . S
C893 C211 1.372 . S
C897 C409 1.404 . S
