# Generated by pormake.
# Topology anh, (6,3)-cn, num edge types: 1
# Building blocks:
#     Node 0, Type 0, BuildingBlock: MIFKUJ_clean_sbu_0, # of connection points: 6
#     Node 1, Type 0, BuildingBlock: MIFKUJ_clean_sbu_0, # of connection points: 6
#     Node 2, Type 0, BuildingBlock: MIFKUJ_clean_sbu_0, # of connection points: 6
#     Node 3, Type 1, BuildingBlock: BETDIP_clean_linker_0, # of connection points: 3
#     Node 4, Type 1, BuildingBlock: BETDIP_clean_linker_0, # of connection points: 3
#     Node 5, Type 1, BuildingBlock: BETDIP_clean_linker_0, # of connection points: 3
#     Node 6, Type 1, BuildingBlock: BETDIP_clean_linker_0, # of connection points: 3
#     Node 7, Type 1, BuildingBlock: BETDIP_clean_linker_0, # of connection points: 3
#     Node 8, Type 1, BuildingBlock: BETDIP_clean_linker_0, # of connection points: 3
#     Edge 9, Type (0, 1), BuildingBlock: AJUNOK_clean_linker_0, # of connection points: 2
#     Edge 10, Type (0, 1), BuildingBlock: AJUNOK_clean_linker_0, # of connection points: 2
#     Edge 11, Type (0, 1), BuildingBlock: AJUNOK_clean_linker_0, # of connection points: 2
#     Edge 12, Type (0, 1), BuildingBlock: AJUNOK_clean_linker_0, # of connection points: 2
#     Edge 13, Type (0, 1), BuildingBlock: AJUNOK_clean_linker_0, # of connection points: 2
#     Edge 14, Type (0, 1), BuildingBlock: AJUNOK_clean_linker_0, # of connection points: 2
#     Edge 15, Type (0, 1), BuildingBlock: AJUNOK_clean_linker_0, # of connection points: 2
#     Edge 16, Type (0, 1), BuildingBlock: AJUNOK_clean_linker_0, # of connection points: 2
#     Edge 17, Type (0, 1), BuildingBlock: AJUNOK_clean_linker_0, # of connection points: 2
#     Edge 18, Type (0, 1), BuildingBlock: AJUNOK_clean_linker_0, # of connection points: 2
#     Edge 19, Type (0, 1), BuildingBlock: AJUNOK_clean_linker_0, # of connection points: 2
#     Edge 20, Type (0, 1), BuildingBlock: AJUNOK_clean_linker_0, # of connection points: 2
#     Edge 21, Type (0, 1), BuildingBlock: AJUNOK_clean_linker_0, # of connection points: 2
#     Edge 22, Type (0, 1), BuildingBlock: AJUNOK_clean_linker_0, # of connection points: 2
#     Edge 23, Type (0, 1), BuildingBlock: AJUNOK_clean_linker_0, # of connection points: 2
#     Edge 24, Type (0, 1), BuildingBlock: AJUNOK_clean_linker_0, # of connection points: 2
#     Edge 25, Type (0, 1), BuildingBlock: AJUNOK_clean_linker_0, # of connection points: 2
#     Edge 26, Type (0, 1), BuildingBlock: AJUNOK_clean_linker_0, # of connection points: 2
# Relax obj value: 0.083
# Max RMSD: 0.187
# Mean RMSD: 0.120
data_MOF--net-anh--node1-MIFKUJ_clean_sbu_0--node2-BETDIP_clean_linker_0--edge1-AJUNOK_clean_linker_0
_symmetry_space_group_name_H-M    P1
_symmetry_Int_Tables_number       1
_symmetry_cell_setting            triclinic
loop_
_symmetry_equiv_pos_as_xyz
'x, y, z'
_cell_length_a     23.992523
_cell_length_b     24.286266
_cell_length_c     33.929986
_cell_angle_alpha  98.433885
_cell_angle_beta   90.375462
_cell_angle_gamma 120.0765
loop_
_atom_site_label
_atom_site_type_symbol
_atom_site_fract_x
_atom_site_fract_y
_atom_site_fract_z
_atom_type_partial_charge
Zn0 Zn 0.12845 0.64467 0.154 0.0
Zn1 Zn 0.94382 0.51763 0.14761 0.0
C2 C 0.22532 0.62111 0.18495 0.0
O3 O 0.23884 0.67369 0.21012 0.0
C4 C 0.83442 0.52829 0.13613 0.0
O5 O 0.83479 0.49394 0.10247 0.0
O6 O 0.2012 0.73586 0.15696 0.0
O7 O 0.08096 0.61671 0.09884 0.0
O8 O 0.9768 0.54162 0.09513 0.0
C9 C 0.2474 0.747 0.13519 0.0
O10 O 0.24184 0.6998 0.10785 0.0
O11 O 0.17601 0.59581 0.15944 0.0
C12 C 0.8442 0.40076 0.16528 0.0
O13 O 0.84361 0.44229 0.19454 0.0
O14 O 0.88618 0.42082 0.14023 0.0
O15 O 0.01179 0.54123 0.19153 0.0
O16 O 0.0795 0.64548 0.20205 0.0
O17 O 0.88247 0.55164 0.16232 0.0
C18 C 0.0265 0.57855 0.07877 0.0
C19 C 0.03598 0.59564 0.21416 0.0
Zn20 Zn 0.58202 0.10927 0.4932 0.0
Zn21 Zn 0.51606 0.92294 0.50075 0.0
C22 C 0.70994 0.21991 0.49988 0.0
O23 O 0.69889 0.22333 0.53775 0.0
C24 C 0.38857 0.82102 0.47608 0.0
O25 O 0.42262 0.79657 0.45971 0.0
O26 O 0.53189 0.15559 0.49695 0.0
O27 O 0.53072 0.026 0.45427 0.0
O28 O 0.55603 0.9508 0.4503 0.0
C29 C 0.54138 0.19681 0.47473 0.0
O30 O 0.58084 0.20555 0.44657 0.0
O31 O 0.66821 0.17176 0.47468 0.0
C32 C 0.49928 0.82293 0.54014 0.0
O33 O 0.47009 0.84807 0.56225 0.0
O34 O 0.52996 0.85123 0.51207 0.0
O35 O 0.55296 0.99238 0.54971 0.0
O36 O 0.59437 0.09733 0.54964 0.0
O37 O 0.4178 0.87988 0.49338 0.0
C38 C 0.5562 0.99611 0.43578 0.0
C39 C 0.58011 0.05053 0.56802 0.0
Zn40 Zn 0.5339 0.44684 0.84903 0.0
Zn41 Zn 0.46387 0.56669 0.84461 0.0
C42 C 0.56395 0.35423 0.87028 0.0
O43 O 0.60814 0.40565 0.89464 0.0
C44 C 0.51269 0.67328 0.80873 0.0
O45 O 0.46916 0.62587 0.78175 0.0
O46 O 0.62902 0.5006 0.8448 0.0
O47 O 0.48903 0.43939 0.79676 0.0
O48 O 0.45325 0.50716 0.79397 0.0
C49 C 0.64992 0.47677 0.8169 0.0
O50 O 0.60793 0.42631 0.79098 0.0
O51 O 0.5221 0.35873 0.84993 0.0
C52 C 0.3273 0.53052 0.82832 0.0
O53 O 0.31544 0.47338 0.81064 0.0
O54 O 0.38307 0.57131 0.84566 0.0
O55 O 0.4768 0.54504 0.8971 0.0
O56 O 0.51121 0.47661 0.90192 0.0
O57 O 0.52756 0.65922 0.84032 0.0
C58 C 0.46144 0.46167 0.77759 0.0
C59 C 0.49209 0.51429 0.91779 0.0
H60 H 0.53899 0.00947 0.15379 0.0
H61 H 0.65927 0.08947 0.26555 0.0
H62 H 0.46839 0.9235 0.25816 0.0
H63 H 0.59246 0.12055 0.15192 0.0
C64 C 0.6421 0.13726 0.16255 0.0
C65 C 0.54649 0.00854 0.18514 0.0
C66 C 0.49712 0.96086 0.2033 0.0
C67 C 0.60502 0.05531 0.20773 0.0
C68 C 0.61435 0.05309 0.24814 0.0
C69 C 0.56523 0.00564 0.26645 0.0
C70 C 0.50683 0.95977 0.2439 0.0
N71 N 0.65445 0.1067 0.1912 0.0
H72 H 0.46656 0.42778 0.49157 0.0
H73 H 0.44031 0.50846 0.60623 0.0
H74 H 0.45095 0.33585 0.59372 0.0
H75 H 0.37889 0.53084 0.56283 0.0
C76 C 0.41914 0.55518 0.54511 0.0
C77 C 0.45956 0.42535 0.52292 0.0
C78 C 0.46015 0.37604 0.53981 0.0
C79 C 0.44988 0.47177 0.54644 0.0
C80 C 0.44241 0.46969 0.58732 0.0
C81 C 0.44157 0.42022 0.6045 0.0
C82 C 0.44997 0.37333 0.58042 0.0
N83 N 0.45175 0.52269 0.52941 0.0
H84 H 0.94741 0.53383 0.79194 0.0
H85 H 0.07989 0.57372 0.89244 0.0
H86 H 0.89424 0.55367 0.91183 0.0
H87 H 0.14483 0.65275 0.83519 0.0
C88 C 0.13184 0.60409 0.82128 0.0
C89 C 0.95899 0.54299 0.82402 0.0
C90 C 0.91411 0.54326 0.85024 0.0
C91 C 0.01969 0.55645 0.8393 0.0
C92 C 0.03431 0.56701 0.88086 0.0
C93 C 0.98899 0.56537 0.90723 0.0
C94 C 0.9295 0.55468 0.89165 0.0
N95 N 0.06525 0.55696 0.81283 0.0
H96 H 0.07898 0.5958 0.49511 0.0
H97 H 0.94885 0.5188 0.38733 0.0
H98 H 0.13598 0.68607 0.39102 0.0
H99 H 0.87374 0.47171 0.42589 0.0
C100 C 0.89509 0.45934 0.44884 0.0
C101 C 0.06743 0.59887 0.46488 0.0
C102 C 0.11375 0.64818 0.44585 0.0
C103 C 0.00657 0.55265 0.44454 0.0
C104 C 0.9935 0.55555 0.40455 0.0
C105 C 0.0394 0.60423 0.38539 0.0
C106 C 0.09891 0.65057 0.40641 0.0
N107 N 0.96135 0.50139 0.46369 0.0
H108 H 0.58704 0.08903 0.85601 0.0
H109 H 0.61215 0.00267 0.7427 0.0
H110 H 0.59954 0.17421 0.75135 0.0
H111 H 0.51533 0.91787 0.76725 0.0
C112 C 0.54432 0.92132 0.79333 0.0
C113 C 0.59497 0.09014 0.82466 0.0
C114 C 0.59654 0.13946 0.80665 0.0
C115 C 0.5984 0.03946 0.80123 0.0
C116 C 0.60796 0.04106 0.76055 0.0
C117 C 0.60777 0.08885 0.74205 0.0
C118 C 0.60226 0.1382 0.7654 0.0
N119 N 0.58497 0.98333 0.81699 0.0
H120 H 0.47664 0.57462 0.2062 0.0
H121 H 0.5657 0.54255 0.10242 0.0
H122 H 0.39349 0.55266 0.08786 0.0
H123 H 0.54611 0.45783 0.15907 0.0
C124 C 0.58684 0.50503 0.17191 0.0
C125 C 0.47752 0.56712 0.17399 0.0
C126 C 0.42818 0.56355 0.14892 0.0
C127 C 0.52623 0.55763 0.15709 0.0
C128 C 0.52723 0.5481 0.11535 0.0
C129 C 0.48029 0.54752 0.09035 0.0
C130 C 0.43056 0.55429 0.10728 0.0
N131 N 0.57382 0.55627 0.18149 0.0
C132 C 0.33791 0.64194 0.19865 0.0
C133 C 0.2737 0.5997 0.18141 0.0
C134 C 0.38727 0.62788 0.19046 0.0
C135 C 0.37422 0.57098 0.16487 0.0
H136 H 0.3511 0.68797 0.2169 0.0
H137 H 0.43653 0.66356 0.20228 0.0
S138 S 0.21306 0.43949 0.11749 0.0
N139 N 0.19898 0.49503 0.14132 0.0
N140 N 0.29146 0.46852 0.12636 0.0
C141 C 0.30959 0.52623 0.1499 0.0
C142 C 0.25945 0.5406 0.15803 0.0
C143 C 0.75481 0.29012 0.44793 0.0
C144 C 0.76275 0.27741 0.48605 0.0
C145 C 0.79878 0.34885 0.43635 0.0
C146 C 0.85328 0.39658 0.46194 0.0
H147 H 0.71277 0.25576 0.42746 0.0
H148 H 0.78948 0.35734 0.40718 0.0
S149 S 0.89914 0.38528 0.56373 0.0
N150 N 0.83101 0.31633 0.54879 0.0
N151 N 0.91472 0.42603 0.52637 0.0
C152 C 0.86362 0.3835 0.49942 0.0
C153 C 0.81804 0.32407 0.51161 0.0
C154 C 0.51523 0.75227 0.76886 0.0
C155 C 0.53219 0.74068 0.80523 0.0
C156 C 0.52123 0.8116 0.76568 0.0
C157 C 0.54524 0.86237 0.79849 0.0
H158 H 0.49474 0.71437 0.74277 0.0
H159 H 0.50557 0.81728 0.73727 0.0
S160 S 0.6009 0.85946 0.8999 0.0
N161 N 0.57721 0.78661 0.87459 0.0
N162 N 0.5895 0.89911 0.86811 0.0
C163 C 0.56559 0.85316 0.83461 0.0
C164 C 0.55893 0.79207 0.83807 0.0
C165 C 0.71597 0.48287 0.12157 0.0
C166 C 0.77385 0.52856 0.14526 0.0
C167 C 0.65648 0.47651 0.13071 0.0
C168 C 0.65208 0.51662 0.16327 0.0
H169 H 0.71591 0.44992 0.09631 0.0
H170 H 0.61329 0.4395 0.112 0.0
S171 S 0.78866 0.64625 0.23389 0.0
N172 N 0.82284 0.61583 0.20262 0.0
N173 N 0.71055 0.60519 0.21879 0.0
C174 C 0.7094 0.56405 0.18661 0.0
C175 C 0.77034 0.56965 0.17786 0.0
C176 C 0.27593 0.80241 0.4708 0.0
C177 C 0.31778 0.77876 0.47584 0.0
C178 C 0.20866 0.76025 0.46449 0.0
C179 C 0.18105 0.69338 0.4639 0.0
H180 H 0.29537 0.85298 0.46927 0.0
H181 H 0.17819 0.77946 0.45781 0.0
S182 S 0.26954 0.60939 0.48193 0.0
N183 N 0.32672 0.68568 0.48445 0.0
N184 N 0.20048 0.60685 0.4729 0.0
C185 C 0.22217 0.67019 0.47215 0.0
C186 C 0.29055 0.71281 0.47797 0.0
C187 C 0.51915 0.23936 0.83746 0.0
C188 C 0.57011 0.29603 0.86044 0.0
C189 C 0.52702 0.18717 0.82207 0.0
C190 C 0.58593 0.18955 0.82931 0.0
H191 H 0.47353 0.23614 0.82995 0.0
H192 H 0.4876 0.14561 0.80304 0.0
S193 S 0.73389 0.32482 0.88829 0.0
N194 N 0.68134 0.34998 0.89059 0.0
N195 N 0.69535 0.25129 0.86149 0.0
C196 C 0.63638 0.24434 0.85347 0.0
C197 C 0.62861 0.29772 0.86918 0.0
C198 C 0.43689 0.7204 0.56693 0.0
C199 C 0.48463 0.75653 0.54259 0.0
C200 C 0.41636 0.65545 0.56701 0.0
C201 C 0.44306 0.62389 0.54315 0.0
H202 H 0.41375 0.74181 0.58549 0.0
H203 H 0.37895 0.62961 0.58597 0.0
S204 S 0.57106 0.69664 0.47489 0.0
N205 N 0.55919 0.75593 0.49441 0.0
N206 N 0.52086 0.63365 0.495 0.0
C207 C 0.49175 0.65939 0.51917 0.0
C208 C 0.51249 0.72575 0.51884 0.0
C209 C 0.76506 0.55728 0.84091 0.0
C210 C 0.71916 0.49666 0.819 0.0
C211 C 0.82926 0.57345 0.8489 0.0
C212 C 0.84978 0.52959 0.83528 0.0
H213 H 0.75081 0.59167 0.85318 0.0
H214 H 0.86261 0.61971 0.86716 0.0
S215 S 0.74931 0.36498 0.77638 0.0
N216 N 0.69934 0.39299 0.78301 0.0
N217 N 0.82022 0.4238 0.79839 0.0
C218 C 0.80529 0.4699 0.81203 0.0
C219 C 0.73984 0.45331 0.80378 0.0
C220 C 0.31646 0.8544 0.17863 0.0
C221 C 0.31088 0.80721 0.14672 0.0
C222 C 0.37697 0.9058 0.19544 0.0
C223 C 0.43424 0.91245 0.18079 0.0
H224 H 0.27394 0.8502 0.19204 0.0
H225 H 0.37912 0.93945 0.22105 0.0
S226 S 0.44705 0.80628 0.0956 0.0
N227 N 0.36853 0.77366 0.09921 0.0
N228 N 0.48229 0.87081 0.13111 0.0
C229 C 0.42966 0.86829 0.14744 0.0
C230 C 0.36794 0.81554 0.1303 0.0
C231 C 0.45925 0.2202 0.50459 0.0
C232 C 0.51581 0.24075 0.48476 0.0
C233 C 0.43919 0.2635 0.51994 0.0
C234 C 0.47543 0.32925 0.51657 0.0
H235 H 0.43127 0.17064 0.50935 0.0
H236 H 0.39624 0.24588 0.53596 0.0
S237 S 0.62635 0.40703 0.46619 0.0
N238 N 0.60624 0.33045 0.46081 0.0
N239 N 0.5696 0.41234 0.49078 0.0
C240 C 0.53057 0.34985 0.49524 0.0
C241 C 0.55054 0.30548 0.47911 0.0
C242 C 0.2127 0.50298 0.81407 0.0
C243 C 0.27806 0.5499 0.82555 0.0
C244 C 0.16545 0.52056 0.81162 0.0
C245 C 0.18206 0.58574 0.82038 0.0
H246 H 0.19769 0.4522 0.80749 0.0
H247 H 0.11556 0.48267 0.80351 0.0
S248 S 0.34682 0.72774 0.84826 0.0
N249 N 0.35725 0.66497 0.84322 0.0
N250 N 0.26834 0.69745 0.83873 0.0
C251 C 0.24728 0.63317 0.83074 0.0
C252 C 0.29533 0.61544 0.83334 0.0
C253 C 0.80744 0.28381 0.15977 0.0
C254 C 0.79256 0.33283 0.15986 0.0
C255 C 0.75819 0.21975 0.15952 0.0
C256 C 0.69279 0.20288 0.15812 0.0
H257 H 0.8574 0.29551 0.16168 0.0
H258 H 0.77138 0.18345 0.1611 0.0
S259 S 0.62922 0.31337 0.15473 0.0
N260 N 0.70856 0.36044 0.15696 0.0
N261 N 0.6158 0.23964 0.15457 0.0
C262 C 0.67741 0.25109 0.15611 0.0
C263 C 0.72748 0.31634 0.15755 0.0
C264 C 0.96234 0.5277 0.01218 0.0
C265 C 0.01986 0.57646 0.03496 0.0
C266 C 0.95331 0.52456 0.97103 0.0
C267 C 1.00123 0.57012 0.95082 0.0
H268 H 0.92364 0.49127 0.02611 0.0
H269 H 0.90839 0.48571 0.95484 0.0
S270 S 0.16042 0.708 -0.00393 0.0
N271 N 0.12585 0.67161 0.03388 0.0
N272 N 0.10806 0.66589 0.95635 0.0
C273 C 0.05919 0.61896 0.97292 0.0
C274 C 0.06865 0.62214 0.015 0.0
C275 C 0.57808 0.05617 0.37857 0.0
C276 C 0.56715 0.00047 0.39312 0.0
C277 C 0.58107 0.05893 0.3376 0.0
C278 C 0.5724 0.00578 0.30975 0.0
H279 H 0.5827 0.09735 0.39888 0.0
H280 H 0.58723 0.10176 0.32746 0.0
S281 S 0.54721 0.85049 0.33198 0.0
N282 N 0.55183 0.89233 0.37613 0.0
N283 N 0.5565 0.89771 0.29918 0.0
C284 C 0.56407 0.9509 0.32384 0.0
C285 C 0.56183 0.94824 0.36554 0.0
C286 C 0.48614 0.42115 0.71215 0.0
C287 C 0.44767 0.44122 0.7337 0.0
C288 C 0.48202 0.41201 0.67032 0.0
C289 C 0.43852 0.42155 0.64835 0.0
H290 H 0.52238 0.41596 0.72768 0.0
H291 H 0.51548 0.40044 0.65527 0.0
S292 S 0.31954 0.46367 0.69037 0.0
N293 N 0.36028 0.46414 0.72994 0.0
N294 N 0.35042 0.44408 0.65115 0.0
C295 C 0.39661 0.43721 0.66945 0.0
C296 C 0.40166 0.44768 0.71212 0.0
C297 C 0.55546 0.01122 0.63304 0.0
C298 C 0.59092 0.06262 0.6123 0.0
C299 C 0.56173 0.0205 0.67475 0.0
C300 C 0.60432 0.08146 0.69772 0.0
H301 H 0.52121 0.96337 0.61703 0.0
H302 H 0.53182 0.97953 0.68913 0.0
S303 S 0.71105 0.23163 0.65835 0.0
N304 N 0.67162 0.17679 0.618 0.0
N305 N 0.68441 0.19382 0.6968 0.0
C306 C 0.64084 0.13334 0.67757 0.0
C307 C 0.63401 0.12401 0.63482 0.0
C308 C 0.49362 0.48187 0.98443 0.0
C309 C 0.48862 0.52362 0.96174 0.0
C310 C 0.49102 0.48995 0.02599 0.0
C311 C 0.48333 0.54006 0.04644 0.0
H312 H 0.49923 0.4423 0.97003 0.0
H313 H 0.49437 0.4563 0.04219 0.0
S314 S 0.47247 0.66543 0.00197 0.0
N315 N 0.47819 0.61885 0.96355 0.0
N316 N 0.47413 0.63405 0.04162 0.0
C317 C 0.47917 0.5827 0.02439 0.0
C318 C 0.48161 0.5745 0.98209 0.0
C319 C 0.00762 0.54151 0.274 0.0
C320 C 0.02897 0.59801 0.25753 0.0
C321 C 0.00821 0.54352 0.31538 0.0
C322 C 0.02929 0.6019 0.34188 0.0
H323 H 0.99316 0.4957 0.25499 0.0
H324 H 0.99506 0.49948 0.32666 0.0
S325 S 0.07917 0.76116 0.31377 0.0
N326 N 0.06478 0.7126 0.27067 0.0
N327 N 0.06425 0.71598 0.34867 0.0
C328 C 0.04647 0.6579 0.32576 0.0
C329 C 0.04661 0.65603 0.28355 0.0
loop_
_geom_bond_atom_site_label_1
_geom_bond_atom_site_label_2
_geom_bond_distance
_geom_bond_site_symmetry_2
_ccdc_geom_bond_type
Zn0 O6 1.969 . S
Zn0 O7 1.965 . S
Zn0 O11 2.024 . S
Zn0 O16 1.969 . S
Zn1 O8 1.969 . S
Zn1 O14 1.969 . S
Zn1 O15 1.978 . S
Zn1 O17 2.024 . S
C2 O3 1.229 . S
C2 O11 1.058 . S
O3 C2 1.229 . S
C4 O5 1.229 . S
C4 O17 1.058 . S
O5 C4 1.229 . S
O6 Zn0 1.969 . S
O6 C9 1.267 . S
O7 Zn0 1.965 . S
O7 C18 1.260 . S
O8 Zn1 1.969 . S
O8 C18 1.258 1_655 S
C9 O6 1.267 . S
C9 O10 1.228 . S
O10 C9 1.228 . S
O11 Zn0 2.024 . S
O11 C2 1.058 . S
C12 O13 1.228 . S
C12 O14 1.267 . S
O13 C12 1.228 . S
O14 Zn1 1.969 . S
O14 C12 1.267 . S
O15 Zn1 1.978 . S
O15 C19 1.254 1_655 S
O16 Zn0 1.969 . S
O16 C19 1.258 . S
O17 Zn1 2.024 . S
O17 C4 1.058 . S
C18 O7 1.260 . S
C18 O8 1.258 1_455 S
C19 O15 1.254 1_455 S
C19 O16 1.258 . S
Zn20 O26 1.969 . S
Zn20 O27 1.965 . S
Zn20 O31 2.024 . S
Zn20 O36 1.969 . S
Zn21 O28 1.969 . S
Zn21 O34 1.969 . S
Zn21 O35 1.965 1_565 S
Zn21 O37 2.024 . S
C22 O23 1.229 . S
C22 O31 1.058 . S
O23 C22 1.229 . S
C24 O25 1.229 . S
C24 O37 1.058 . S
O25 C24 1.229 . S
O26 Zn20 1.969 . S
O26 C29 1.267 . S
O27 Zn20 1.965 . S
O27 C38 1.260 . S
O28 Zn21 1.969 . S
O28 C38 1.258 1_565 S
C29 O26 1.267 . S
C29 O30 1.228 . S
O30 C29 1.228 . S
O31 Zn20 2.024 . S
O31 C22 1.058 . S
C32 O33 1.228 . S
C32 O34 1.267 . S
O33 C32 1.228 . S
O34 Zn21 1.969 . S
O34 C32 1.267 . S
O35 Zn21 1.965 1_545 S
O35 C39 1.260 . S
O36 Zn20 1.969 . S
O36 C39 1.258 . S
O37 Zn21 2.024 . S
O37 C24 1.058 . S
C38 O27 1.260 . S
C38 O28 1.258 1_545 S
C39 O35 1.260 . S
C39 O36 1.258 . S
Zn40 O46 1.969 . S
Zn40 O47 1.965 . S
Zn40 O51 2.024 . S
Zn40 O56 1.969 . S
Zn41 O48 1.969 . S
Zn41 O54 1.969 . S
Zn41 O55 1.965 . S
Zn41 O57 2.024 . S
C42 O43 1.229 . S
C42 O51 1.058 . S
O43 C42 1.229 . S
C44 O45 1.229 . S
C44 O57 1.058 . S
O45 C44 1.229 . S
O46 Zn40 1.969 . S
O46 C49 1.267 . S
O47 Zn40 1.965 . S
O47 C58 1.260 . S
O48 Zn41 1.969 . S
O48 C58 1.258 . S
C49 O46 1.267 . S
C49 O50 1.228 . S
O50 C49 1.228 . S
O51 Zn40 2.024 . S
O51 C42 1.058 . S
C52 O53 1.228 . S
C52 O54 1.267 . S
O53 C52 1.228 . S
O54 Zn41 1.969 . S
O54 C52 1.267 . S
O55 Zn41 1.965 . S
O55 C59 1.260 . S
O56 Zn40 1.969 . S
O56 C59 1.258 . S
O57 Zn41 2.024 . S
O57 C44 1.058 . S
C58 O47 1.260 . S
C58 O48 1.258 . S
C59 O55 1.260 . S
C59 O56 1.258 . S
H60 C65 0.930 . S
H61 C68 0.930 . S
H62 C70 0.930 . S
H63 C64 1.016 . S
C64 H63 1.016 . S
C64 N71 1.286 . S
C65 H60 0.930 . S
C65 C66 1.397 1_545 S
C65 C67 1.361 . S
C66 C65 1.397 1_565 S
C66 C70 1.390 . S
C67 C65 1.361 . S
C67 C68 1.393 . S
C67 N71 1.413 . S
C68 H61 0.930 . S
C68 C67 1.393 . S
C68 C69 1.399 . S
C69 C68 1.399 . S
C69 C70 1.381 1_545 S
C70 H62 0.930 . S
C70 C66 1.390 . S
C70 C69 1.381 1_565 S
N71 C64 1.286 . S
N71 C67 1.413 . S
H72 C77 0.930 . S
H73 C80 0.930 . S
H74 C82 0.930 . S
H75 C76 1.016 . S
C76 H75 1.016 . S
C76 N83 1.286 . S
C77 H72 0.930 . S
C77 C78 1.397 . S
C77 C79 1.361 . S
C78 C77 1.397 . S
C78 C82 1.390 . S
C79 C77 1.361 . S
C79 C80 1.393 . S
C79 N83 1.413 . S
C80 H73 0.930 . S
C80 C79 1.393 . S
C80 C81 1.399 . S
C81 C80 1.399 . S
C81 C82 1.381 . S
C82 H74 0.930 . S
C82 C78 1.390 . S
C82 C81 1.381 . S
N83 C76 1.286 . S
N83 C79 1.413 . S
H84 C89 0.930 . S
H85 C92 0.930 . S
H86 C94 0.930 . S
H87 C88 1.016 . S
C88 H87 1.016 . S
C88 N95 1.286 . S
C89 H84 0.930 . S
C89 C90 1.397 . S
C89 C91 1.361 1_655 S
C90 C89 1.397 . S
C90 C94 1.390 . S
C91 C89 1.361 1_455 S
C91 C92 1.393 . S
C91 N95 1.413 . S
C92 H85 0.930 . S
C92 C91 1.393 . S
C92 C93 1.399 . S
C93 C92 1.399 . S
C93 C94 1.381 1_455 S
C94 H86 0.930 . S
C94 C90 1.390 . S
C94 C93 1.381 1_655 S
N95 C88 1.286 . S
N95 C91 1.413 . S
H96 C101 0.930 . S
H97 C104 0.930 . S
H98 C106 0.930 . S
H99 C100 1.016 . S
C100 H99 1.016 . S
C100 N107 1.286 . S
C101 H96 0.930 . S
C101 C102 1.397 . S
C101 C103 1.361 . S
C102 C101 1.397 . S
C102 C106 1.390 . S
C103 C101 1.361 . S
C103 C104 1.393 1_455 S
C103 N107 1.413 1_455 S
C104 H97 0.930 . S
C104 C103 1.393 1_655 S
C104 C105 1.399 1_655 S
C105 C104 1.399 1_455 S
C105 C106 1.381 . S
C106 H98 0.930 . S
C106 C102 1.390 . S
C106 C105 1.381 . S
N107 C100 1.286 . S
N107 C103 1.413 1_655 S
H108 C113 0.930 . S
H109 C116 0.930 1_565 S
H110 C118 0.930 . S
H111 C112 1.016 . S
C112 H111 1.016 . S
C112 N119 1.286 . S
C113 H108 0.930 . S
C113 C114 1.397 . S
C113 C115 1.361 . S
C114 C113 1.397 . S
C114 C118 1.390 . S
C115 C113 1.361 . S
C115 C116 1.393 . S
C115 N119 1.413 1_545 S
C116 H109 0.930 1_545 S
C116 C115 1.393 . S
C116 C117 1.399 . S
C117 C116 1.399 . S
C117 C118 1.381 . S
C118 H110 0.930 . S
C118 C114 1.390 . S
C118 C117 1.381 . S
N119 C112 1.286 . S
N119 C115 1.413 1_565 S
H120 C125 0.930 . S
H121 C128 0.930 . S
H122 C130 0.930 . S
H123 C124 1.016 . S
C124 H123 1.016 . S
C124 N131 1.286 . S
C125 H120 0.930 . S
C125 C126 1.397 . S
C125 C127 1.361 . S
C126 C125 1.397 . S
C126 C130 1.390 . S
C127 C125 1.361 . S
C127 C128 1.393 . S
C127 N131 1.413 . S
C128 H121 0.930 . S
C128 C127 1.393 . S
C128 C129 1.399 . S
C129 C128 1.399 . S
C129 C130 1.381 . S
C130 H122 0.930 . S
C130 C126 1.390 . S
C130 C129 1.381 . S
N131 C124 1.286 . S
N131 C127 1.413 . S
C132 C133 1.369 . S
C132 C134 1.419 . S
C132 H136 0.930 . S
C133 C132 1.369 . S
C133 C142 1.429 . S
C134 C132 1.419 . S
C134 C135 1.363 . S
C134 H137 0.929 . S
C135 C134 1.363 . S
C135 C141 1.428 . S
H136 C132 0.930 . S
H137 C134 0.929 . S
S138 N139 1.613 . S
S138 N140 1.610 . S
N139 S138 1.613 . S
N139 C142 1.350 . S
N140 S138 1.610 . S
N140 C141 1.351 . S
C141 C135 1.428 . S
C141 N140 1.351 . S
C141 C142 1.434 . S
C142 C133 1.429 . S
C142 N139 1.350 . S
C142 C141 1.434 . S
C143 C144 1.369 . S
C143 C145 1.419 . S
C143 H147 0.930 . S
C144 C143 1.369 . S
C144 C153 1.429 . S
C145 C143 1.419 . S
C145 C146 1.363 . S
C145 H148 0.929 . S
C146 C145 1.363 . S
C146 C152 1.428 . S
H147 C143 0.930 . S
H148 C145 0.929 . S
S149 N150 1.613 . S
S149 N151 1.610 . S
N150 S149 1.613 . S
N150 C153 1.350 . S
N151 S149 1.610 . S
N151 C152 1.351 . S
C152 C146 1.428 . S
C152 N151 1.351 . S
C152 C153 1.434 . S
C153 C144 1.429 . S
C153 N150 1.350 . S
C153 C152 1.434 . S
C154 C155 1.369 . S
C154 C156 1.419 . S
C154 H158 0.930 . S
C155 C154 1.369 . S
C155 C164 1.429 . S
C156 C154 1.419 . S
C156 C157 1.363 . S
C156 H159 0.929 . S
C157 C156 1.363 . S
C157 C163 1.428 . S
H158 C154 0.930 . S
H159 C156 0.929 . S
S160 N161 1.613 . S
S160 N162 1.610 . S
N161 S160 1.613 . S
N161 C164 1.350 . S
N162 S160 1.610 . S
N162 C163 1.351 . S
C163 C157 1.428 . S
C163 N162 1.351 . S
C163 C164 1.434 . S
C164 C155 1.429 . S
C164 N161 1.350 . S
C164 C163 1.434 . S
C165 C166 1.369 . S
C165 C167 1.419 . S
C165 H169 0.930 . S
C166 C165 1.369 . S
C166 C175 1.429 . S
C167 C165 1.419 . S
C167 C168 1.363 . S
C167 H170 0.929 . S
C168 C167 1.363 . S
C168 C174 1.428 . S
H169 C165 0.930 . S
H170 C167 0.929 . S
S171 N172 1.613 . S
S171 N173 1.610 . S
N172 S171 1.613 . S
N172 C175 1.350 . S
N173 S171 1.610 . S
N173 C174 1.351 . S
C174 C168 1.428 . S
C174 N173 1.351 . S
C174 C175 1.434 . S
C175 C166 1.429 . S
C175 N172 1.350 . S
C175 C174 1.434 . S
C176 C177 1.369 . S
C176 C178 1.419 . S
C176 H180 0.930 . S
C177 C176 1.369 . S
C177 C186 1.429 . S
C178 C176 1.419 . S
C178 C179 1.363 . S
C178 H181 0.929 . S
C179 C178 1.363 . S
C179 C185 1.428 . S
H180 C176 0.930 . S
H181 C178 0.929 . S
S182 N183 1.613 . S
S182 N184 1.610 . S
N183 S182 1.613 . S
N183 C186 1.350 . S
N184 S182 1.610 . S
N184 C185 1.351 . S
C185 C179 1.428 . S
C185 N184 1.351 . S
C185 C186 1.434 . S
C186 C177 1.429 . S
C186 N183 1.350 . S
C186 C185 1.434 . S
C187 C188 1.369 . S
C187 C189 1.419 . S
C187 H191 0.930 . S
C188 C187 1.369 . S
C188 C197 1.429 . S
C189 C187 1.419 . S
C189 C190 1.363 . S
C189 H192 0.929 . S
C190 C189 1.363 . S
C190 C196 1.428 . S
H191 C187 0.930 . S
H192 C189 0.929 . S
S193 N194 1.613 . S
S193 N195 1.610 . S
N194 S193 1.613 . S
N194 C197 1.350 . S
N195 S193 1.610 . S
N195 C196 1.351 . S
C196 C190 1.428 . S
C196 N195 1.351 . S
C196 C197 1.434 . S
C197 C188 1.429 . S
C197 N194 1.350 . S
C197 C196 1.434 . S
C198 C199 1.369 . S
C198 C200 1.419 . S
C198 H202 0.930 . S
C199 C198 1.369 . S
C199 C208 1.429 . S
C200 C198 1.419 . S
C200 C201 1.363 . S
C200 H203 0.929 . S
C201 C200 1.363 . S
C201 C207 1.428 . S
H202 C198 0.930 . S
H203 C200 0.929 . S
S204 N205 1.613 . S
S204 N206 1.610 . S
N205 S204 1.613 . S
N205 C208 1.350 . S
N206 S204 1.610 . S
N206 C207 1.351 . S
C207 C201 1.428 . S
C207 N206 1.351 . S
C207 C208 1.434 . S
C208 C199 1.429 . S
C208 N205 1.350 . S
C208 C207 1.434 . S
C209 C210 1.369 . S
C209 C211 1.419 . S
C209 H213 0.930 . S
C210 C209 1.369 . S
C210 C219 1.429 . S
C211 C209 1.419 . S
C211 C212 1.363 . S
C211 H214 0.929 . S
C212 C211 1.363 . S
C212 C218 1.428 . S
H213 C209 0.930 . S
H214 C211 0.929 . S
S215 N216 1.613 . S
S215 N217 1.610 . S
N216 S215 1.613 . S
N216 C219 1.350 . S
N217 S215 1.610 . S
N217 C218 1.351 . S
C218 C212 1.428 . S
C218 N217 1.351 . S
C218 C219 1.434 . S
C219 C210 1.429 . S
C219 N216 1.350 . S
C219 C218 1.434 . S
C220 C221 1.369 . S
C220 C222 1.419 . S
C220 H224 0.930 . S
C221 C220 1.369 . S
C221 C230 1.429 . S
C222 C220 1.419 . S
C222 C223 1.363 . S
C222 H225 0.929 . S
C223 C222 1.363 . S
C223 C229 1.428 . S
H224 C220 0.930 . S
H225 C222 0.929 . S
S226 N227 1.613 . S
S226 N228 1.610 . S
N227 S226 1.613 . S
N227 C230 1.350 . S
N228 S226 1.610 . S
N228 C229 1.351 . S
C229 C223 1.428 . S
C229 N228 1.351 . S
C229 C230 1.434 . S
C230 C221 1.429 . S
C230 N227 1.350 . S
C230 C229 1.434 . S
C231 C232 1.369 . S
C231 C233 1.419 . S
C231 H235 0.930 . S
C232 C231 1.369 . S
C232 C241 1.429 . S
C233 C231 1.419 . S
C233 C234 1.363 . S
C233 H236 0.929 . S
C234 C233 1.363 . S
C234 C240 1.428 . S
H235 C231 0.930 . S
H236 C233 0.929 . S
S237 N238 1.613 . S
S237 N239 1.610 . S
N238 S237 1.613 . S
N238 C241 1.350 . S
N239 S237 1.610 . S
N239 C240 1.351 . S
C240 C234 1.428 . S
C240 N239 1.351 . S
C240 C241 1.434 . S
C241 C232 1.429 . S
C241 N238 1.350 . S
C241 C240 1.434 . S
C242 C243 1.369 . S
C242 C244 1.419 . S
C242 H246 0.930 . S
C243 C242 1.369 . S
C243 C252 1.429 . S
C244 C242 1.419 . S
C244 C245 1.363 . S
C244 H247 0.929 . S
C245 C244 1.363 . S
C245 C251 1.428 . S
H246 C242 0.930 . S
H247 C244 0.929 . S
S248 N249 1.613 . S
S248 N250 1.610 . S
N249 S248 1.613 . S
N249 C252 1.350 . S
N250 S248 1.610 . S
N250 C251 1.351 . S
C251 C245 1.428 . S
C251 N250 1.351 . S
C251 C252 1.434 . S
C252 C243 1.429 . S
C252 N249 1.350 . S
C252 C251 1.434 . S
C253 C254 1.369 . S
C253 C255 1.419 . S
C253 H257 0.930 . S
C254 C253 1.369 . S
C254 C263 1.429 . S
C255 C253 1.419 . S
C255 C256 1.363 . S
C255 H258 0.929 . S
C256 C255 1.363 . S
C256 C262 1.428 . S
H257 C253 0.930 . S
H258 C255 0.929 . S
S259 N260 1.613 . S
S259 N261 1.610 . S
N260 S259 1.613 . S
N260 C263 1.350 . S
N261 S259 1.610 . S
N261 C262 1.351 . S
C262 C256 1.428 . S
C262 N261 1.351 . S
C262 C263 1.434 . S
C263 C254 1.429 . S
C263 N260 1.350 . S
C263 C262 1.434 . S
C264 C265 1.369 1_655 S
C264 C266 1.419 1_554 S
C264 H268 0.930 . S
C265 C264 1.369 1_455 S
C265 C274 1.429 . S
C266 C264 1.419 1_556 S
C266 C267 1.363 1_655 S
C266 H269 0.929 . S
C267 C266 1.363 1_455 S
C267 C273 1.428 1_556 S
H268 C264 0.930 . S
H269 C266 0.929 . S
S270 N271 1.613 . S
S270 N272 1.610 1_554 S
N271 S270 1.613 . S
N271 C274 1.350 . S
N272 S270 1.610 1_556 S
N272 C273 1.351 1_556 S
C273 C267 1.428 1_554 S
C273 N272 1.351 1_554 S
C273 C274 1.434 . S
C274 C265 1.429 . S
C274 N271 1.350 . S
C274 C273 1.434 . S
C275 C276 1.369 . S
C275 C277 1.419 . S
C275 H279 0.930 . S
C276 C275 1.369 . S
C276 C285 1.429 1_545 S
C277 C275 1.419 . S
C277 C278 1.363 . S
C277 H280 0.929 . S
C278 C277 1.363 . S
C278 C284 1.428 1_545 S
H279 C275 0.930 . S
H280 C277 0.929 . S
S281 N282 1.613 . S
S281 N283 1.610 . S
N282 S281 1.613 . S
N282 C285 1.350 . S
N283 S281 1.610 . S
N283 C284 1.351 . S
C284 C278 1.428 1_565 S
C284 N283 1.351 . S
C284 C285 1.434 . S
C285 C276 1.429 1_565 S
C285 N282 1.350 . S
C285 C284 1.434 . S
C286 C287 1.369 . S
C286 C288 1.419 . S
C286 H290 0.930 . S
C287 C286 1.369 . S
C287 C296 1.429 . S
C288 C286 1.419 . S
C288 C289 1.363 . S
C288 H291 0.929 . S
C289 C288 1.363 . S
C289 C295 1.428 . S
H290 C286 0.930 . S
H291 C288 0.929 . S
S292 N293 1.613 . S
S292 N294 1.610 . S
N293 S292 1.613 . S
N293 C296 1.350 . S
N294 S292 1.610 . S
N294 C295 1.351 . S
C295 C289 1.428 . S
C295 N294 1.351 . S
C295 C296 1.434 . S
C296 C287 1.429 . S
C296 N293 1.350 . S
C296 C295 1.434 . S
C297 C298 1.369 1_565 S
C297 C299 1.419 . S
C297 H301 0.930 . S
C298 C297 1.369 1_545 S
C298 C307 1.429 . S
C299 C297 1.419 . S
C299 C300 1.363 1_565 S
C299 H302 0.929 . S
C300 C299 1.363 1_545 S
C300 C306 1.428 . S
H301 C297 0.930 . S
H302 C299 0.929 . S
S303 N304 1.613 . S
S303 N305 1.610 . S
N304 S303 1.613 . S
N304 C307 1.350 . S
N305 S303 1.610 . S
N305 C306 1.351 . S
C306 C300 1.428 . S
C306 N305 1.351 . S
C306 C307 1.434 . S
C307 C298 1.429 . S
C307 N304 1.350 . S
C307 C306 1.434 . S
C308 C309 1.369 . S
C308 C310 1.419 1_556 S
C308 H312 0.930 . S
C309 C308 1.369 . S
C309 C318 1.429 . S
C310 C308 1.419 1_554 S
C310 C311 1.363 . S
C310 H313 0.929 . S
C311 C310 1.363 . S
C311 C317 1.428 1_554 S
H312 C308 0.930 . S
H313 C310 0.929 . S
S314 N315 1.613 . S
S314 N316 1.610 1_556 S
N315 S314 1.613 . S
N315 C318 1.350 . S
N316 S314 1.610 1_554 S
N316 C317 1.351 1_554 S
C317 C311 1.428 1_556 S
C317 N316 1.351 1_556 S
C317 C318 1.434 . S
C318 C309 1.429 . S
C318 N315 1.350 . S
C318 C317 1.434 . S
C319 C320 1.369 . S
C319 C321 1.419 . S
C319 H323 0.930 . S
C320 C319 1.369 . S
C320 C329 1.429 . S
C321 C319 1.419 . S
C321 C322 1.363 . S
C321 H324 0.929 . S
C322 C321 1.363 . S
C322 C328 1.428 . S
H323 C319 0.930 . S
H324 C321 0.929 . S
S325 N326 1.613 . S
S325 N327 1.610 . S
N326 S325 1.613 . S
N326 C329 1.350 1_655 S
N327 S325 1.610 . S
N327 C328 1.351 1_655 S
C328 C322 1.428 . S
C328 N327 1.351 1_455 S
C328 C329 1.434 . S
C329 C320 1.429 . S
C329 N326 1.350 1_455 S
C329 C328 1.434 . S
C133 C2 1.623 . S
C135 C126 1.710 . S
C144 C22 1.501 . S
C146 C100 1.559 . S
C155 C44 1.517 . S
C157 C112 1.558 . S
C166 C4 1.398 . S
C168 C124 1.431 . S
C179 C102 1.541 . S
C177 C24 1.449 . S
C190 C114 1.528 . S
C188 C42 1.415 . S
C199 C32 1.433 . S
C201 C76 1.395 . S
C210 C49 1.493 . S
C212 C90 1.516 . S
C221 C9 1.198 . S
C223 C66 1.234 . S
C234 C78 1.282 . S
C232 C29 1.202 . S
C245 C88 1.189 . S
C243 C52 1.173 . S
C254 C12 1.331 . S
C256 C64 1.345 . S
C267 C93 1.500 . S
C265 C18 1.476 . S
C276 C38 1.472 . S
C278 C69 1.471 . S
C287 C58 1.459 . S
C289 C81 1.489 . S
C300 C117 1.523 . S
C298 C39 1.506 . S
C311 C129 1.586 . S
C309 C59 1.575 . S
C320 C19 1.503 . S
C322 C105 1.522 . S
