# Generated by pormake.
# Topology pyr, (3,6)-cn, num edge types: 1
# Building blocks:
#     Node 0, Type 0, BuildingBlock: MIDCAF_clean_linker_0, # of connection points: 3
#     Node 1, Type 0, BuildingBlock: MIDCAF_clean_linker_0, # of connection points: 3
#     Node 2, Type 0, BuildingBlock: MIDCAF_clean_linker_0, # of connection points: 3
#     Node 3, Type 0, BuildingBlock: MIDCAF_clean_linker_0, # of connection points: 3
#     Node 4, Type 0, BuildingBlock: MIDCAF_clean_linker_0, # of connection points: 3
#     Node 5, Type 0, BuildingBlock: MIDCAF_clean_linker_0, # of connection points: 3
#     Node 6, Type 0, BuildingBlock: MIDCAF_clean_linker_0, # of connection points: 3
#     Node 7, Type 0, BuildingBlock: MIDCAF_clean_linker_0, # of connection points: 3
#     Node 8, Type 1, BuildingBlock: VOLQOD_clean_sbu_1, # of connection points: 6
#     Node 9, Type 1, BuildingBlock: VOLQOD_clean_sbu_1, # of connection points: 6
#     Node 10, Type 1, BuildingBlock: VOLQOD_clean_sbu_1, # of connection points: 6
#     Node 11, Type 1, BuildingBlock: VOLQOD_clean_sbu_1, # of connection points: 6
#     Edge 12, Type (0, 1), BuildingBlock: AJUNOK_clean_linker_0, # of connection points: 2
#     Edge 13, Type (0, 1), BuildingBlock: AJUNOK_clean_linker_0, # of connection points: 2
#     Edge 14, Type (0, 1), BuildingBlock: AJUNOK_clean_linker_0, # of connection points: 2
#     Edge 15, Type (0, 1), BuildingBlock: AJUNOK_clean_linker_0, # of connection points: 2
#     Edge 16, Type (0, 1), BuildingBlock: AJUNOK_clean_linker_0, # of connection points: 2
#     Edge 17, Type (0, 1), BuildingBlock: AJUNOK_clean_linker_0, # of connection points: 2
#     Edge 18, Type (0, 1), BuildingBlock: AJUNOK_clean_linker_0, # of connection points: 2
#     Edge 19, Type (0, 1), BuildingBlock: AJUNOK_clean_linker_0, # of connection points: 2
#     Edge 20, Type (0, 1), BuildingBlock: AJUNOK_clean_linker_0, # of connection points: 2
#     Edge 21, Type (0, 1), BuildingBlock: AJUNOK_clean_linker_0, # of connection points: 2
#     Edge 22, Type (0, 1), BuildingBlock: AJUNOK_clean_linker_0, # of connection points: 2
#     Edge 23, Type (0, 1), BuildingBlock: AJUNOK_clean_linker_0, # of connection points: 2
#     Edge 24, Type (0, 1), BuildingBlock: AJUNOK_clean_linker_0, # of connection points: 2
#     Edge 25, Type (0, 1), BuildingBlock: AJUNOK_clean_linker_0, # of connection points: 2
#     Edge 26, Type (0, 1), BuildingBlock: AJUNOK_clean_linker_0, # of connection points: 2
#     Edge 27, Type (0, 1), BuildingBlock: AJUNOK_clean_linker_0, # of connection points: 2
#     Edge 28, Type (0, 1), BuildingBlock: AJUNOK_clean_linker_0, # of connection points: 2
#     Edge 29, Type (0, 1), BuildingBlock: AJUNOK_clean_linker_0, # of connection points: 2
#     Edge 30, Type (0, 1), BuildingBlock: AJUNOK_clean_linker_0, # of connection points: 2
#     Edge 31, Type (0, 1), BuildingBlock: AJUNOK_clean_linker_0, # of connection points: 2
#     Edge 32, Type (0, 1), BuildingBlock: AJUNOK_clean_linker_0, # of connection points: 2
#     Edge 33, Type (0, 1), BuildingBlock: AJUNOK_clean_linker_0, # of connection points: 2
#     Edge 34, Type (0, 1), BuildingBlock: AJUNOK_clean_linker_0, # of connection points: 2
#     Edge 35, Type (0, 1), BuildingBlock: AJUNOK_clean_linker_0, # of connection points: 2
# Relax obj value: 0.035
# Max RMSD: 0.119
# Mean RMSD: 0.043
data_MOF--net-pry--node1-VOLQOD_clean_sbu_1--node2-MIDCAF_clean_linker_0--edge1-AJUNOK_clean_linker_0
_symmetry_space_group_name_H-M    P1
_symmetry_Int_Tables_number       1
_symmetry_cell_setting            triclinic
loop_
_symmetry_equiv_pos_as_xyz
'x, y, z'
_cell_length_a     35.786303
_cell_length_b     35.863744
_cell_length_c     36.026351
_cell_angle_alpha  90.037266
_cell_angle_beta   90.06566
_cell_angle_gamma 90.135063
loop_
_atom_site_label
_atom_site_type_symbol
_atom_site_fract_x
_atom_site_fract_y
_atom_site_fract_z
_atom_type_partial_charge
C0 C 0.05328 0.10234 0.24493 0.0
C1 C 0.06615 0.06864 0.25986 0.0
C2 C 0.08988 0.04598 0.23871 0.0
C3 C 0.10218 0.05785 0.2038 0.0
H4 H 0.18719 0.04006 0.12572 0.0
H5 H 0.24832 0.01733 0.10635 0.0
H6 H 0.26734 0.11946 0.04578 0.0
H7 H 0.2058 0.14179 0.06398 0.0
H8 H 0.14585 0.20522 0.06579 0.0
H9 H 0.1231 0.26517 0.04404 0.0
H10 H 0.01561 0.24297 0.09389 0.0
H11 H 0.03889 0.18345 0.11714 0.0
H12 H 0.0555 0.14072 0.19973 0.0
H13 H 0.03477 0.12009 0.26082 0.0
H14 H 0.10011 0.01987 0.24984 0.0
H15 H 0.12153 0.0404 0.18861 0.0
N16 N 0.13852 0.09216 0.14025 0.0
N17 N 0.14092 0.13921 0.09514 0.0
N18 N 0.09232 0.13837 0.13866 0.0
C19 C 0.15569 0.10793 0.11048 0.0
C20 C 0.10906 0.15439 0.10886 0.0
C21 C 0.10684 0.10726 0.15454 0.0
C22 C 0.19166 0.09291 0.09671 0.0
C23 C 0.20428 0.05762 0.1081 0.0
C24 C 0.23942 0.04468 0.09721 0.0
C25 C 0.26293 0.06695 0.07516 0.0
C26 C 0.24983 0.10166 0.06275 0.0
C27 C 0.21456 0.11446 0.0733 0.0
C28 C 0.09419 0.18951 0.0932 0.0
C29 C 0.11722 0.21285 0.07178 0.0
C30 C 0.10406 0.24715 0.05904 0.0
C31 C 0.06733 0.2586 0.06675 0.0
C32 C 0.04407 0.23497 0.08761 0.0
C33 C 0.0574 0.20085 0.10083 0.0
C34 C 0.09054 0.09239 0.18934 0.0
C35 C 0.06514 0.11401 0.20992 0.0
C36 C 0.26752 0.95001 0.61007 0.0
C37 C 0.25558 0.93969 0.57443 0.0
C38 C 0.27921 0.91822 0.55192 0.0
C39 C 0.31395 0.90645 0.56529 0.0
H40 H 0.397 0.8266 0.54759 0.0
H41 H 0.42027 0.76726 0.52407 0.0
H42 H 0.4837 0.75182 0.6249 0.0
H43 H 0.46157 0.81155 0.64799 0.0
H44 H 0.47517 0.89 0.69651 0.0
H45 H 0.49735 0.91315 0.75631 0.0
H46 H 0.39311 0.97144 0.77207 0.0
H47 H 0.37134 0.94949 0.71191 0.0
H48 H 0.31044 0.94674 0.65114 0.0
H49 H 0.24969 0.96662 0.62785 0.0
H50 H 0.27036 0.9097 0.52442 0.0
H51 H 0.33133 0.88932 0.54759 0.0
N52 N 0.37892 0.87266 0.60038 0.0
N53 N 0.42426 0.87307 0.64747 0.0
N54 N 0.37563 0.91669 0.64835 0.0
C55 C 0.41034 0.85796 0.61571 0.0
C56 C 0.40717 0.90259 0.66384 0.0
C57 C 0.36142 0.90205 0.61655 0.0
C58 C 0.42727 0.82384 0.59977 0.0
C59 C 0.41635 0.81084 0.56455 0.0
C60 C 0.4296 0.77681 0.55107 0.0
C61 C 0.45393 0.75493 0.57255 0.0
C62 C 0.46567 0.76838 0.6073 0.0
C63 C 0.45272 0.80257 0.62065 0.0
C64 C 0.42147 0.91789 0.69934 0.0
C65 C 0.4571 0.90805 0.71254 0.0
C66 C 0.46981 0.92125 0.74682 0.0
C67 C 0.44713 0.9444 0.76874 0.0
C68 C 0.41165 0.95446 0.75543 0.0
C69 C 0.39907 0.9416 0.72101 0.0
C70 C 0.32577 0.9163 0.60127 0.0
C71 C 0.30236 0.9387 0.62327 0.0
C72 C 0.59216 0.27753 0.9739 0.0
C73 C 0.56954 0.25471 0.95145 0.0
C74 C 0.55669 0.26859 0.91732 0.0
C75 C 0.56761 0.30396 0.90514 0.0
H76 H 0.55961 0.37412 0.81733 0.0
H77 H 0.53881 0.39647 0.75722 0.0
H78 H 0.5958 0.50109 0.776 0.0
H79 H 0.61803 0.47817 0.83594 0.0
H80 H 0.68174 0.47926 0.90135 0.0
H81 H 0.74255 0.50222 0.92193 0.0
H82 H 0.76063 0.39992 0.9824 0.0
H83 H 0.6994 0.3774 0.96305 0.0
H84 H 0.62149 0.32925 0.97927 0.0
H85 H 0.60163 0.26794 0.00081 0.0
H86 H 0.53921 0.25159 0.89947 0.0
H87 H 0.55806 0.31336 0.8782 0.0
N88 N 0.59121 0.37741 0.88136 0.0
N89 N 0.63542 0.42571 0.8835 0.0
N90 N 0.63618 0.37863 0.92863 0.0
C91 C 0.60551 0.40933 0.86683 0.0
C92 C 0.65095 0.41049 0.91441 0.0
C93 C 0.60616 0.36205 0.91242 0.0
C94 C 0.59049 0.42435 0.83156 0.0
C95 C 0.56741 0.40208 0.80898 0.0
C96 C 0.5552 0.41501 0.77455 0.0
C97 C 0.56515 0.45079 0.76209 0.0
C98 C 0.58773 0.47336 0.78486 0.0
C99 C 0.60036 0.46025 0.81921 0.0
C100 C 0.68585 0.42628 0.93014 0.0
C101 C 0.69849 0.46179 0.91935 0.0
C102 C 0.73343 0.47487 0.93092 0.0
C103 C 0.75671 0.45248 0.95304 0.0
C104 C 0.74332 0.41779 0.96533 0.0
C105 C 0.70823 0.40487 0.95412 0.0
C106 C 0.59175 0.32611 0.9268 0.0
C107 C 0.60336 0.31274 0.96162 0.0
C108 C 0.76856 0.59775 0.45936 0.0
C109 C 0.75524 0.56277 0.44767 0.0
C110 C 0.77836 0.54022 0.42561 0.0
C111 C 0.81324 0.55315 0.41389 0.0
H112 H 0.87493 0.55266 0.3164 0.0
H113 H 0.89663 0.53236 0.25575 0.0
H114 H 0.99787 0.59656 0.27006 0.0
H115 H 0.97569 0.61802 0.33038 0.0
H116 H 0.9692 0.68889 0.38322 0.0
H117 H 0.99097 0.75011 0.4032 0.0
H118 H 0.90605 0.75261 0.48803 0.0
H119 H 0.88412 0.69111 0.46848 0.0
H120 H 0.81259 0.63808 0.45665 0.0
H121 H 0.75135 0.61575 0.47636 0.0
H122 H 0.76931 0.51268 0.41707 0.0
H123 H 0.83 0.53537 0.39623 0.0
N124 N 0.87716 0.58789 0.37886 0.0
N125 N 0.92408 0.63354 0.37871 0.0
N126 N 0.8774 0.63475 0.42429 0.0
C127 C 0.90846 0.60261 0.36337 0.0
C128 C 0.90883 0.64974 0.40923 0.0
C129 C 0.86155 0.60366 0.40941 0.0
C130 C 0.92348 0.58713 0.32829 0.0
C131 C 0.90206 0.56211 0.30694 0.0
C132 C 0.91461 0.55022 0.27221 0.0
C133 C 0.94912 0.56261 0.25824 0.0
C134 C 0.97105 0.58673 0.28002 0.0
C135 C 0.95836 0.59892 0.31462 0.0
C136 C 0.92452 0.68515 0.42389 0.0
C137 C 0.95526 0.70218 0.40636 0.0
C138 C 0.96771 0.73733 0.41766 0.0
C139 C 0.94975 0.75621 0.44671 0.0
C140 C 0.92028 0.73858 0.46549 0.0
C141 C 0.9077 0.70342 0.45415 0.0
C142 C 0.82604 0.58872 0.42445 0.0
C143 C 0.80364 0.61055 0.44798 0.0
C144 C 0.78837 0.97476 0.93717 0.0
C145 C 0.77025 0.95341 0.96443 0.0
C146 C 0.78851 0.92231 0.97944 0.0
C147 C 0.82382 0.91201 0.96664 0.0
H148 H 0.90288 0.83161 0.97912 0.0
H149 H 0.92462 0.76949 0.99634 0.0
H150 H 0.00365 0.7716 0.90604 0.0
H151 H 0.98201 0.83344 0.88836 0.0
H152 H 0.95752 0.88116 0.81809 0.0
H153 H 0.97274 0.90206 0.75587 0.0
H154 H 0.92549 0.01012 0.78019 0.0
H155 H 0.90829 0.98839 0.84218 0.0
H156 H 0.83633 0.98075 0.9023 0.0
H157 H 0.77464 0.99864 0.92486 0.0
H158 H 0.77511 0.90553 0.00061 0.0
H159 H 0.83664 0.88728 0.97823 0.0
N160 N 0.8937 0.8879 0.93547 0.0
N161 N 0.93631 0.88818 0.88624 0.0
N162 N 0.8897 0.93389 0.88935 0.0
C163 C 0.92378 0.87271 0.91827 0.0
C164 C 0.91961 0.91883 0.87171 0.0
C165 C 0.87656 0.91856 0.92132 0.0
C166 C 0.94021 0.83737 0.93193 0.0
C167 C 0.9252 0.81912 0.96314 0.0
C168 C 0.93769 0.78361 0.97314 0.0
C169 C 0.96528 0.76567 0.95208 0.0
C170 C 0.9818 0.78465 0.92225 0.0
C171 C 0.96942 0.82013 0.91227 0.0
C172 C 0.9315 0.93306 0.83504 0.0
C173 C 0.95048 0.90946 0.81032 0.0
C174 C 0.95931 0.92149 0.7746 0.0
C175 C 0.94993 0.95762 0.76281 0.0
C176 C 0.9321 0.98175 0.78798 0.0
C177 C 0.92258 0.96943 0.82361 0.0
C178 C 0.84143 0.93238 0.93819 0.0
C179 C 0.82361 0.96434 0.92414 0.0
C180 C 0.58416 0.03534 0.29327 0.0
C181 C 0.5608 0.05797 0.27168 0.0
C182 C 0.54547 0.09034 0.28727 0.0
C183 C 0.55475 0.10091 0.32341 0.0
H184 H 0.53319 0.17852 0.40108 0.0
H185 H 0.51228 0.24001 0.42053 0.0
H186 H 0.59401 0.24031 0.50863 0.0
H187 H 0.61525 0.17855 0.48944 0.0
H188 H 0.67352 0.10519 0.49458 0.0
H189 H 0.7366 0.08771 0.51378 0.0
H190 H 0.75608 0.03922 0.40572 0.0
H191 H 0.69279 0.05484 0.38726 0.0
H192 H 0.61303 0.0288 0.34488 0.0
H193 H 0.59618 0.0102 0.2817 0.0
H194 H 0.52706 0.10795 0.27109 0.0
H195 H 0.54341 0.12671 0.33417 0.0
N196 N 0.57755 0.12326 0.39706 0.0
N197 N 0.62434 0.12426 0.44267 0.0
N198 N 0.6259 0.07951 0.39519 0.0
C199 C 0.59235 0.1387 0.42825 0.0
C200 C 0.6412 0.09457 0.42629 0.0
C201 C 0.59396 0.09351 0.38053 0.0
C202 C 0.57626 0.17361 0.44342 0.0
C203 C 0.54645 0.19126 0.42498 0.0
C204 C 0.53444 0.22654 0.43601 0.0
C205 C 0.55162 0.24481 0.46594 0.0
C206 C 0.58008 0.22658 0.48565 0.0
C207 C 0.59233 0.1913 0.47448 0.0
C208 C 0.67817 0.0816 0.43935 0.0
C209 C 0.69121 0.0905 0.47509 0.0
C210 C 0.72745 0.08081 0.48595 0.0
C211 C 0.75165 0.06277 0.46099 0.0
C212 C 0.73815 0.05295 0.42568 0.0
C213 C 0.7018 0.06201 0.41508 0.0
C214 C 0.57991 0.07948 0.34447 0.0
C215 C 0.59383 0.04611 0.32932 0.0
C216 C 0.28583 0.53903 0.08559 0.0
C217 C 0.26681 0.56113 0.0596 0.0
C218 C 0.28434 0.59313 0.04548 0.0
C219 C 0.31987 0.60346 0.05784 0.0
H220 H 0.40381 0.68035 0.04132 0.0
H221 H 0.42603 0.74213 0.02337 0.0
H222 H 0.49834 0.74496 0.11924 0.0
H223 H 0.47625 0.68335 0.13757 0.0
H224 H 0.46793 0.62537 0.19851 0.0
H225 H 0.48409 0.60365 0.26048 0.0
H226 H 0.41542 0.50593 0.24467 0.0
H227 H 0.39868 0.52758 0.1824 0.0
H228 H 0.33477 0.53236 0.11903 0.0
H229 H 0.27269 0.51443 0.09722 0.0
H230 H 0.27022 0.61053 0.0253 0.0
H231 H 0.33215 0.62881 0.04696 0.0
N232 N 0.39097 0.62666 0.08755 0.0
N233 N 0.43519 0.62481 0.13543 0.0
N234 N 0.3881 0.5794 0.13243 0.0
C235 C 0.42168 0.6413 0.10432 0.0
C236 C 0.41875 0.59378 0.14959 0.0
C237 C 0.37407 0.59566 0.10133 0.0
C238 C 0.43801 0.67689 0.09106 0.0
C239 C 0.4248 0.69385 0.05839 0.0
C240 C 0.43765 0.72913 0.04793 0.0
C241 C 0.4639 0.74814 0.06994 0.0
C242 C 0.47798 0.73083 0.10191 0.0
C243 C 0.46535 0.69549 0.11228 0.0
C244 C 0.43175 0.57835 0.18548 0.0
C245 C 0.45656 0.59899 0.20785 0.0
C246 C 0.46578 0.58669 0.2434 0.0
C247 C 0.4509 0.55327 0.25715 0.0
C248 C 0.42739 0.53172 0.23444 0.0
C249 C 0.41774 0.54423 0.19893 0.0
C250 C 0.33846 0.5822 0.08499 0.0
C251 C 0.3213 0.54946 0.0982 0.0
C252 C 0.0842 0.28492 0.54002 0.0
C253 C 0.06091 0.26289 0.56252 0.0
C254 C 0.04569 0.27853 0.59486 0.0
C255 C 0.05496 0.31483 0.60544 0.0
H256 H 0.0433 0.38493 0.69095 0.0
H257 H 0.02665 0.40364 0.75384 0.0
H258 H 0.09235 0.50389 0.74215 0.0
H259 H 0.10944 0.48541 0.67906 0.0
H260 H 0.18309 0.47397 0.62933 0.0
H261 H 0.24624 0.49168 0.61118 0.0
H262 H 0.2385 0.42067 0.51485 0.0
H263 H 0.17515 0.40239 0.53285 0.0
H264 H 0.11261 0.33704 0.53332 0.0
H265 H 0.09548 0.27394 0.51438 0.0
H266 H 0.02765 0.26221 0.61273 0.0
H267 H 0.04362 0.32548 0.6312 0.0
N268 N 0.07807 0.38798 0.62885 0.0
N269 N 0.12264 0.43585 0.62805 0.0
N270 N 0.12355 0.38953 0.58212 0.0
C271 C 0.09236 0.41961 0.644 0.0
C272 C 0.13834 0.42111 0.59704 0.0
C273 C 0.09328 0.37288 0.5978 0.0
C274 C 0.07813 0.43345 0.68004 0.0
C275 C 0.05387 0.41124 0.70142 0.0
C276 C 0.04442 0.42178 0.73748 0.0
C277 C 0.05871 0.45485 0.75274 0.0
C278 C 0.08114 0.47818 0.73084 0.0
C279 C 0.09096 0.46749 0.69484 0.0
C280 C 0.17413 0.43629 0.58283 0.0
C281 C 0.19442 0.46246 0.60394 0.0
C282 C 0.23064 0.47258 0.5937 0.0
C283 C 0.24713 0.45708 0.56198 0.0
C284 C 0.22622 0.43284 0.53951 0.0
C285 C 0.19006 0.42235 0.54993 0.0
C286 C 0.07986 0.33627 0.58401 0.0
C287 C 0.09376 0.32117 0.55076 0.0
O288 O 0.99884 0.09283 0.5431 0.0
Zn289 Zn 0.97647 0.04124 0.54043 0.0
O290 O 0.00712 0.0079 0.50998 0.0
Zn291 Zn 0.97841 0.99154 0.46669 0.0
Zn292 Zn 0.05179 0.03448 0.49346 0.0
Zn293 Zn 0.02204 0.96444 0.53916 0.0
O294 O 0.97641 0.93578 0.46415 0.0
O295 O 0.00341 0.91633 0.51608 0.0
O296 O 0.92466 0.04599 0.51958 0.0
O297 O 0.92518 0.00973 0.46958 0.0
O298 O 0.00116 0.01022 0.41877 0.0
O299 O 0.05262 0.03902 0.43806 0.0
O300 O 0.09908 0.00901 0.51012 0.0
O301 O 0.97132 0.0216 0.59265 0.0
O302 O 0.07795 0.96113 0.54299 0.0
O303 O 0.00276 0.96824 0.59139 0.0
C304 C 0.02956 0.1065 0.53151 0.0
C305 C 0.98662 0.90952 0.48559 0.0
C306 C 0.03083 0.02872 0.41206 0.0
C307 C 0.90817 0.03153 0.49176 0.0
C308 C 0.10493 0.98028 0.53 0.0
C309 C 0.98326 0.9923 0.60866 0.0
O310 O 0.05257 0.08686 0.51308 0.0
O311 O 0.50348 0.0871 0.98101 0.0
Zn312 Zn 0.48205 0.03497 0.98663 0.0
O313 O 0.51457 0.0034 0.01739 0.0
Zn314 Zn 0.53388 0.96184 0.98807 0.0
Zn315 Zn 0.5564 0.03293 0.03579 0.0
Zn316 Zn 0.48666 0.98375 0.05968 0.0
O317 O 0.51816 0.91248 0.00945 0.0
O318 O 0.48495 0.92769 0.05911 0.0
O319 O 0.47672 0.01322 0.93513 0.0
O320 O 0.51364 0.96355 0.93613 0.0
O321 O 0.59019 0.96269 0.98561 0.0
O322 O 0.60568 0.0114 0.02038 0.0
O323 O 0.55558 0.03724 0.0913 0.0
O324 O 0.43044 0.03912 0.00926 0.0
O325 O 0.50892 0.00023 0.10835 0.0
O326 O 0.43401 0.0029 0.05909 0.0
C327 C 0.53308 0.10222 0.9938 0.0
C328 C 0.49867 0.90318 0.03749 0.0
C329 C 0.61485 0.98395 -1e-05 0.0
C330 C 0.4912 0.98509 0.91907 0.0
C331 C 0.53556 0.02236 0.11644 0.0
C332 C 0.41564 0.02474 0.03809 0.0
O333 O 0.55509 0.0844 0.01502 0.0
O334 O 0.54326 0.51418 0.59261 0.0
Zn335 Zn 0.53801 0.53346 0.54004 0.0
O336 O 0.504 0.50205 0.51063 0.0
Zn337 Zn 0.5308 0.48056 0.46858 0.0
Zn338 Zn 0.48463 0.46193 0.54171 0.0
Zn339 Zn 0.46225 0.53179 0.49204 0.0
O340 O 0.50721 0.49472 0.41984 0.0
O341 O 0.46205 0.53363 0.43628 0.0
O342 O 0.58924 0.53568 0.51679 0.0
O343 O 0.58374 0.49945 0.46712 0.0
O344 O 0.53219 0.42461 0.47171 0.0
O345 O 0.50061 0.41142 0.52302 0.0
O346 O 0.42868 0.463 0.54397 0.0
O347 O 0.51839 0.58618 0.54331 0.0
O348 O 0.41257 0.51091 0.5085 0.0
O349 O 0.46557 0.58438 0.51098 0.0
C350 C 0.52647 0.48819 0.61004 0.0
C351 C 0.48075 0.51678 0.41136 0.0
C352 C 0.51933 0.40102 0.49484 0.0
C353 C 0.60307 0.521 0.48769 0.0
C354 C 0.40383 0.48379 0.52958 0.0
C355 C 0.4893 0.60215 0.5306 0.0
O356 O 0.5031 0.46691 0.59387 0.0
O357 O 0.97525 0.49948 0.08955 0.0
Zn358 Zn 0.97845 0.47883 0.03766 0.0
O359 O 0.01106 0.51004 0.00666 0.0
Zn360 Zn 0.98321 0.52906 0.96414 0.0
Zn361 Zn 0.03029 0.55212 0.03573 0.0
Zn362 Zn 0.0526 0.48015 0.98834 0.0
O363 O 0.00468 0.51181 0.9155 0.0
O364 O 0.05284 0.47716 0.93281 0.0
O365 O 0.92606 0.47641 0.01633 0.0
O366 O 0.93014 0.51133 0.96565 0.0
O367 O 0.98288 0.58487 0.96356 0.0
O368 O 0.015 0.60157 0.01357 0.0
O369 O 0.08663 0.55095 0.03798 0.0
O370 O 0.99821 0.42611 0.0417 0.0
O371 O 0.10198 0.50089 0.00521 0.0
O372 O 0.04908 0.42766 0.0065 0.0
C373 C 0.98948 0.52783 0.10557 0.0
C374 C 0.03219 0.49089 0.90757 0.0
C375 C 0.99644 0.61 0.98459 0.0
C376 C 0.91129 0.49067 0.98743 0.0
C377 C 0.11122 0.52901 0.02476 0.0
C378 C 0.02638 0.41006 0.02724 0.0
O379 O 0.01072 0.55035 0.08814 0.0
C380 C 0.03698 0.02605 0.30673 0.0
C381 C 0.05714 0.05869 0.29861 0.0
C382 C 0.02812 0.01667 0.34353 0.0
C383 C 0.03992 0.03922 0.37338 0.0
H384 H 0.02771 0.00791 0.28447 0.0
H385 H 0.0124 0.99135 0.34866 0.0
S386 S 0.09392 0.12749 0.36625 0.0
N387 N 0.0887 0.1135 0.32288 0.0
N388 N 0.07276 0.09578 0.39201 0.0
C389 C 0.0604 0.07181 0.36542 0.0
C390 C 0.06882 0.08157 0.32803 0.0
C391 C 0.47511 0.9298 0.83065 0.0
C392 C 0.45962 0.95622 0.80629 0.0
C393 C 0.48565 0.9396 0.8668 0.0
C394 C 0.4809 0.97617 0.88018 0.0
H395 H 0.47838 0.90106 0.82202 0.0
H396 H 0.4969 0.91803 0.88461 0.0
S397 S 0.44454 0.05656 0.82636 0.0
N398 N 0.44237 0.02111 0.79717 0.0
N399 N 0.46147 0.03945 0.86544 0.0
C400 C 0.46606 0.00308 0.85589 0.0
C401 C 0.45559 0.99312 0.81891 0.0
C402 C 0.58006 0.4798 0.70053 0.0
C403 C 0.55362 0.46356 0.72456 0.0
C404 C 0.57075 0.4889 0.66381 0.0
C405 C 0.53481 0.48169 0.64971 0.0
H406 H 0.60854 0.48433 0.70973 0.0
H407 H 0.59226 0.50036 0.64599 0.0
S408 S 0.45403 0.44445 0.70263 0.0
N409 N 0.48885 0.44457 0.73274 0.0
N410 N 0.47168 0.46063 0.66349 0.0
C411 C 0.5077 0.4669 0.67384 0.0
C412 C 0.51703 0.45808 0.7113 0.0
C413 C 0.97426 0.58019 0.19586 0.0
C414 C 0.9611 0.55237 0.2201 0.0
C415 C 0.98389 0.57185 0.15912 0.0
C416 C 0.98047 0.53539 0.14502 0.0
H417 H 0.97631 0.60888 0.20507 0.0
H418 H 0.99328 0.5944 0.14141 0.0
S419 S 0.95075 0.45177 0.19819 0.0
N420 N 0.9478 0.48638 0.22827 0.0
N421 N 0.96515 0.47073 0.15897 0.0
C422 C 0.96812 0.50711 0.16921 0.0
C423 C 0.95861 0.51558 0.20676 0.0
C424 C 0.31523 0.05824 0.02962 0.0
C425 C 0.30152 0.05474 0.06605 0.0
C426 C 0.35204 0.04829 0.02075 0.0
C427 C 0.37654 0.03427 0.04795 0.0
H428 H 0.29733 0.06871 0.00773 0.0
H429 H 0.36129 0.05152 0.99231 0.0
S430 S 0.35495 0.02187 0.14805 0.0
N431 N 0.31584 0.03795 0.12986 0.0
N432 N 0.38466 0.01854 0.11321 0.0
C433 C 0.36314 0.03063 0.08453 0.0
C434 C 0.32576 0.04101 0.09357 0.0
C435 C 0.18654 0.93895 0.58292 0.0
C436 C 0.21764 0.9498 0.56174 0.0
C437 C 0.15025 0.94841 0.572 0.0
C438 C 0.1437 0.96962 0.53977 0.0
H439 H 0.19033 0.92285 0.60808 0.0
H440 H 0.1272 0.93954 0.58939 0.0
S441 S 0.21607 0.00472 0.47469 0.0
N442 N 0.23993 0.98239 0.50702 0.0
N443 N 0.17165 0.00081 0.48653 0.0
C444 C 0.17468 0.9806 0.51828 0.0
C445 C 0.21166 0.97047 0.52921 0.0
C446 C 0.80991 0.46039 0.99787 0.0
C447 C 0.79563 0.46415 0.96166 0.0
C448 C 0.84722 0.46927 0.00606 0.0
C449 C 0.87166 0.48241 0.97837 0.0
H450 H 0.79211 0.45042 0.02007 0.0
H451 H 0.85693 0.46583 0.03434 0.0
S452 S 0.84848 0.49522 0.87861 0.0
N453 N 0.80923 0.48035 0.89756 0.0
N454 N 0.87897 0.49777 0.91292 0.0
C455 C 0.85763 0.4864 0.94202 0.0
C456 C 0.81975 0.47712 0.93369 0.0
C457 C 0.70375 0.55445 0.49413 0.0
C458 C 0.71682 0.55051 0.45753 0.0
C459 C 0.6671 0.54448 0.5037 0.0
C460 C 0.64211 0.53003 0.47708 0.0
H461 H 0.72201 0.56531 0.51559 0.0
H462 H 0.65834 0.54814 0.53225 0.0
S463 S 0.66208 0.5161 0.37685 0.0
N464 N 0.70148 0.53264 0.39419 0.0
N465 N 0.63293 0.5132 0.41221 0.0
C466 C 0.65491 0.52583 0.44036 0.0
C467 C 0.69215 0.53623 0.43059 0.0
C468 C 0.03507 0.31914 0.08007 0.0
C469 C 0.05408 0.29597 0.0548 0.0
C470 C 0.02495 0.35564 0.07052 0.0
C471 C 0.0339 0.37044 0.03552 0.0
H472 H 0.02903 0.30945 0.1079 0.0
H473 H 0.01131 0.37282 0.09118 0.0
S474 S 0.07886 0.31987 0.95764 0.0
N475 N 0.07773 0.28928 0.99186 0.0
N476 N 0.05982 0.35824 0.97435 0.0
C477 C 0.0516 0.34719 0.00951 0.0
C478 C 0.06143 0.30989 0.01904 0.0
C479 C 0.52375 0.20237 0.96045 0.0
C480 C 0.56061 0.21594 0.96284 0.0
C481 C 0.515 0.16556 0.97044 0.0
C482 C 0.54278 0.14103 0.98331 0.0
H483 H 0.50145 0.22043 0.95104 0.0
H484 H 0.4862 0.15642 0.96836 0.0
S485 S 0.6442 0.16209 0.99157 0.0
N486 N 0.62543 0.20134 0.9767 0.0
N487 N 0.6091 0.13253 0.99604 0.0
C488 C 0.57986 0.1542 0.98539 0.0
C489 C 0.58873 0.19154 0.97504 0.0
C490 C 0.96893 0.8051 0.49275 0.0
C491 C 0.9603 0.79508 0.456 0.0
C492 C 0.97809 0.84203 0.50201 0.0
C493 C 0.97833 0.87037 0.47493 0.0
H494 H 0.96871 0.78421 0.51446 0.0
H495 H 0.98437 0.84849 0.53072 0.0
S496 S 0.95732 0.85821 0.37458 0.0
N497 N 0.95231 0.81613 0.39243 0.0
N498 N 0.96944 0.88542 0.40956 0.0
C499 C 0.96979 0.86052 0.438 0.0
C500 C 0.96082 0.82292 0.4286 0.0
C501 C 0.43684 0.6926 0.5464 0.0
C502 C 0.46455 0.71691 0.56002 0.0
C503 C 0.44533 0.65587 0.53642 0.0
C504 C 0.48186 0.64177 0.53987 0.0
H505 H 0.40807 0.70171 0.5443 0.0
H506 H 0.42277 0.63816 0.52673 0.0
S507 S 0.56527 0.69516 0.57096 0.0
N508 N 0.53052 0.72521 0.57398 0.0
N509 N 0.54648 0.65587 0.55587 0.0
C510 C 0.51006 0.66605 0.55268 0.0
C511 C 0.50141 0.70363 0.56261 0.0
C512 C 0.99298 0.9596 0.70807 0.0
C513 C 0.9585 0.96938 0.72412 0.0
C514 C 0.00078 0.96741 0.67082 0.0
C515 C 0.9747 0.98593 0.64826 0.0
H516 H 0.0141 0.94546 0.72435 0.0
H517 H 0.02753 0.95891 0.65961 0.0
S518 S 0.88015 0.01721 0.67623 0.0
N519 N 0.89767 0.99794 0.71403 0.0
N520 N 0.9131 0.014 0.64435 0.0
C521 C 0.94049 0.99674 0.66401 0.0
C522 C 0.93222 0.98818 0.70185 0.0
C523 C 0.53791 0.0153 0.22162 0.0
C524 C 0.55449 0.04923 0.23213 0.0
C525 C 0.53176 0.00684 0.18409 0.0
C526 C 0.54272 0.0317 0.15584 0.0
H527 H 0.52929 0.99541 0.24257 0.0
H528 H 0.51862 0.98048 0.17717 0.0
S529 S 0.58818 0.12392 0.16942 0.0
N530 N 0.58219 0.10759 0.21184 0.0
N531 N 0.57118 0.09169 0.1413 0.0
C532 C 0.55977 0.06557 0.16618 0.0
C533 C 0.56549 0.07434 0.20434 0.0
C534 C 0.44843 0.56721 0.32474 0.0
C535 C 0.45804 0.54248 0.29608 0.0
C536 C 0.45525 0.55825 0.36192 0.0
C537 C 0.4725 0.52445 0.37181 0.0
H538 H 0.43542 0.5937 0.31834 0.0
H539 H 0.44756 0.57837 0.38301 0.0
S540 S 0.50261 0.45 0.30676 0.0
N541 N 0.48498 0.48268 0.27965 0.0
N542 N 0.49846 0.4658 0.34964 0.0
C543 C 0.4821 0.49935 0.34328 0.0
C544 C 0.47463 0.50834 0.30539 0.0
C545 C 0.03497 0.49739 0.8024 0.0
C546 C 0.05216 0.46375 0.79222 0.0
C547 C 0.02844 0.50595 0.83983 0.0
C548 C 0.03964 0.48148 0.86829 0.0
H549 H 0.02613 0.51697 0.78126 0.0
H550 H 0.01485 0.53207 0.8465 0.0
S551 S 0.08651 0.39008 0.85571 0.0
N552 N 0.08061 0.40605 0.81314 0.0
N553 N 0.06885 0.42215 0.88347 0.0
C554 C 0.05727 0.44791 0.85832 0.0
C555 C 0.06338 0.43902 0.82027 0.0
C556 C 0.70385 0.93377 0.97248 0.0
C557 C 0.73124 0.9618 0.97519 0.0
C558 C 0.66636 0.94119 0.98067 0.0
C559 C 0.65489 0.97682 0.99236 0.0
H560 H 0.71135 0.90604 0.9632 0.0
H561 H 0.64624 0.91875 0.97784 0.0
S562 S 0.71628 0.05962 0.00477 0.0
N563 N 0.74479 0.02629 0.99088 0.0
N564 N 0.67433 0.04043 0.00657 0.0
C565 C 0.68222 0.005 0.99572 0.0
C566 C 0.72037 0.99747 0.98699 0.0
C567 C 0.80731 0.02045 0.46135 0.0
C568 C 0.79121 0.05492 0.47094 0.0
C569 C 0.84514 0.01317 0.46811 0.0
C570 C 0.86825 0.03987 0.48524 0.0
H571 H 0.79055 -0.00113 0.44838 0.0
H572 H 0.85629 0.98628 0.46012 0.0
S573 S 0.84047 0.13505 0.51449 0.0
N574 N 0.80191 0.11661 0.49714 0.0
N575 N 0.87268 0.10235 0.51112 0.0
C576 C 0.85254 0.0743 0.49539 0.0
C577 C 0.81412 0.08195 0.48798 0.0
C578 C 0.19997 0.57967 0.05342 0.0
C579 C 0.22774 0.55237 0.04918 0.0
C580 C 0.16248 0.57183 0.04541 0.0
C581 C 0.15131 0.53647 0.03244 0.0
H582 H 0.2072 0.60716 0.06371 0.0
H583 H 0.14212 0.59378 0.04941 0.0
S584 S 0.2139 0.45566 0.01549 0.0
N585 N 0.24207 0.48896 0.0305 0.0
N586 N 0.17161 0.47397 0.01517 0.0
C587 C 0.17905 0.50903 0.02754 0.0
C588 C 0.21722 0.51701 0.03605 0.0
C589 C 0.2981 0.48019 0.52031 0.0
C590 C 0.28704 0.46397 0.55404 0.0
C591 C 0.33597 0.48686 0.51267 0.0
C592 C 0.36402 0.47672 0.53819 0.0
H593 H 0.2773 0.4881 0.49992 0.0
H594 H 0.34335 0.4996 0.48642 0.0
S595 S 0.34913 0.43282 0.63033 0.0
N596 N 0.30669 0.43774 0.61302 0.0
N597 N 0.37784 0.44969 0.59863 0.0
C598 C 0.35316 0.46015 0.5719 0.0
C599 C 0.31466 0.45394 0.57984 0.0
C600 C 0.98543 0.71488 0.99538 0.0
C601 C 0.97483 0.72625 0.95957 0.0
C602 C 0.99315 0.67733 0.00309 0.0
C603 C 0.98992 0.64976 0.97538 0.0
H604 H 0.98775 0.73516 0.01757 0.0
H605 H 0.00097 0.66982 0.03116 0.0
S606 S 0.96292 0.66554 0.87702 0.0
N607 N 0.96144 0.70732 0.89619 0.0
N608 N 0.97588 0.63686 0.91043 0.0
C609 C 0.97952 0.66097 0.93936 0.0
C610 C 0.97202 0.69918 0.93152 0.0
C611 C 0.47044 0.81486 0.08828 0.0
C612 C 0.47457 0.78703 0.06114 0.0
C613 C 0.47849 0.85222 0.08038 0.0
C614 C 0.49138 0.86318 0.04511 0.0
H615 H 0.46014 0.8078 0.11567 0.0
H616 H 0.4745 0.87265 0.10217 0.0
S617 S 0.50817 0.80034 0.96479 0.0
N618 N 0.49318 0.77239 0.99802 0.0
N619 N 0.50857 0.84264 0.98292 0.0
C620 C 0.49626 0.83537 0.01786 0.0
C621 C 0.48771 0.79732 0.0259 0.0
C622 C 0.01692 0.20889 0.55534 0.0
C623 C 0.05349 0.2232 0.5533 0.0
C624 C 0.00949 0.17115 0.54839 0.0
C625 C 0.03833 0.14624 0.53897 0.0
H626 H 0.99381 0.22705 0.56227 0.0
H627 H 0.98083 0.16154 0.55013 0.0
S628 S 0.13932 0.16939 0.53207 0.0
N629 N 0.11911 0.20926 0.54288 0.0
N630 N 0.10517 0.13852 0.52908 0.0
C631 C 0.07508 0.16022 0.5369 0.0
C632 C 0.08265 0.19861 0.5442 0.0
C633 C 0.54383 0.31075 0.44578 0.0
C634 C 0.54205 0.28407 0.47428 0.0
C635 C 0.53637 0.34838 0.45278 0.0
C636 C 0.52639 0.36078 0.4885 0.0
H637 H 0.55173 0.30257 0.41792 0.0
H638 H 0.53838 0.36785 0.42989 0.0
S639 S 0.51694 0.30149 0.57251 0.0
N640 N 0.52914 0.27215 0.53933 0.0
N641 N 0.51474 0.34296 0.55271 0.0
C642 C 0.52402 0.33419 0.5172 0.0
C643 C 0.53204 0.29585 0.51006 0.0
loop_
_geom_bond_atom_site_label_1
_geom_bond_atom_site_label_2
_geom_bond_distance
_geom_bond_site_symmetry_2
_ccdc_geom_bond_type
C0 C1 1.384 . S
C0 H13 0.947 . S
C0 C35 1.382 . S
C1 C0 1.384 . S
C1 C2 1.378 . S
C2 C1 1.378 . S
C2 C3 1.378 . S
C2 H14 0.952 . S
C3 C2 1.378 . S
C3 H15 0.950 . S
C3 C34 1.383 . S
H4 C23 0.947 . S
H5 C24 0.946 . S
H6 C26 0.953 . S
H7 C27 0.945 . S
H8 C29 0.952 . S
H9 C30 0.949 . S
H10 C32 0.950 . S
H11 C33 0.948 . S
H12 C35 0.951 . S
H13 C0 0.947 . S
H14 C2 0.952 . S
H15 C3 0.950 . S
N16 C19 1.382 . S
N16 C21 1.363 . S
N17 C19 1.371 . S
N17 C20 1.372 . S
N18 C20 1.361 . S
N18 C21 1.377 . S
C19 N16 1.382 . S
C19 N17 1.371 . S
C19 C22 1.480 . S
C20 N17 1.372 . S
C20 N18 1.361 . S
C20 C28 1.457 . S
C21 N16 1.363 . S
C21 N18 1.377 . S
C21 C34 1.479 . S
C22 C19 1.480 . S
C22 C23 1.383 . S
C22 C27 1.385 . S
C23 H4 0.947 . S
C23 C22 1.383 . S
C23 C24 1.388 . S
C24 H5 0.946 . S
C24 C23 1.388 . S
C24 C25 1.384 . S
C25 C24 1.384 . S
C25 C26 1.377 . S
C26 H6 0.953 . S
C26 C25 1.377 . S
C26 C27 1.369 . S
C27 H7 0.945 . S
C27 C22 1.385 . S
C27 C26 1.369 . S
C28 C20 1.457 . S
C28 C29 1.372 . S
C28 C33 1.364 . S
C29 H8 0.952 . S
C29 C28 1.372 . S
C29 C30 1.389 . S
C30 H9 0.949 . S
C30 C29 1.389 . S
C30 C31 1.387 . S
C31 C30 1.387 . S
C31 C32 1.372 . S
C32 H10 0.950 . S
C32 C31 1.372 . S
C32 C33 1.379 . S
C33 H11 0.948 . S
C33 C28 1.364 . S
C33 C32 1.379 . S
C34 C3 1.383 . S
C34 C21 1.479 . S
C34 C35 1.398 . S
C35 C0 1.382 . S
C35 H12 0.951 . S
C35 C34 1.398 . S
C36 C37 1.384 . S
C36 H49 0.947 . S
C36 C71 1.382 . S
C37 C36 1.384 . S
C37 C38 1.378 . S
C38 C37 1.378 . S
C38 C39 1.378 . S
C38 H50 0.952 . S
C39 C38 1.378 . S
C39 H51 0.950 . S
C39 C70 1.383 . S
H40 C59 0.947 . S
H41 C60 0.946 . S
H42 C62 0.953 . S
H43 C63 0.945 . S
H44 C65 0.952 . S
H45 C66 0.949 . S
H46 C68 0.950 . S
H47 C69 0.948 . S
H48 C71 0.951 . S
H49 C36 0.947 . S
H50 C38 0.952 . S
H51 C39 0.950 . S
N52 C55 1.382 . S
N52 C57 1.363 . S
N53 C55 1.371 . S
N53 C56 1.372 . S
N54 C56 1.361 . S
N54 C57 1.377 . S
C55 N52 1.382 . S
C55 N53 1.371 . S
C55 C58 1.480 . S
C56 N53 1.372 . S
C56 N54 1.361 . S
C56 C64 1.457 . S
C57 N52 1.363 . S
C57 N54 1.377 . S
C57 C70 1.479 . S
C58 C55 1.480 . S
C58 C59 1.383 . S
C58 C63 1.385 . S
C59 H40 0.947 . S
C59 C58 1.383 . S
C59 C60 1.388 . S
C60 H41 0.946 . S
C60 C59 1.388 . S
C60 C61 1.384 . S
C61 C60 1.384 . S
C61 C62 1.377 . S
C62 H42 0.953 . S
C62 C61 1.377 . S
C62 C63 1.369 . S
C63 H43 0.945 . S
C63 C58 1.385 . S
C63 C62 1.369 . S
C64 C56 1.457 . S
C64 C65 1.372 . S
C64 C69 1.364 . S
C65 H44 0.952 . S
C65 C64 1.372 . S
C65 C66 1.389 . S
C66 H45 0.949 . S
C66 C65 1.389 . S
C66 C67 1.387 . S
C67 C66 1.387 . S
C67 C68 1.372 . S
C68 H46 0.950 . S
C68 C67 1.372 . S
C68 C69 1.379 . S
C69 H47 0.948 . S
C69 C64 1.364 . S
C69 C68 1.379 . S
C70 C39 1.383 . S
C70 C57 1.479 . S
C70 C71 1.398 . S
C71 C36 1.382 . S
C71 H48 0.951 . S
C71 C70 1.398 . S
C72 C73 1.384 . S
C72 H85 0.947 . S
C72 C107 1.382 . S
C73 C72 1.384 . S
C73 C74 1.378 . S
C74 C73 1.378 . S
C74 C75 1.378 . S
C74 H86 0.952 . S
C75 C74 1.378 . S
C75 H87 0.950 . S
C75 C106 1.383 . S
H76 C95 0.947 . S
H77 C96 0.946 . S
H78 C98 0.953 . S
H79 C99 0.945 . S
H80 C101 0.952 . S
H81 C102 0.949 . S
H82 C104 0.950 . S
H83 C105 0.948 . S
H84 C107 0.951 . S
H85 C72 0.947 . S
H86 C74 0.952 . S
H87 C75 0.950 . S
N88 C91 1.382 . S
N88 C93 1.363 . S
N89 C91 1.371 . S
N89 C92 1.372 . S
N90 C92 1.361 . S
N90 C93 1.377 . S
C91 N88 1.382 . S
C91 N89 1.371 . S
C91 C94 1.480 . S
C92 N89 1.372 . S
C92 N90 1.361 . S
C92 C100 1.457 . S
C93 N88 1.363 . S
C93 N90 1.377 . S
C93 C106 1.479 . S
C94 C91 1.480 . S
C94 C95 1.383 . S
C94 C99 1.385 . S
C95 H76 0.947 . S
C95 C94 1.383 . S
C95 C96 1.388 . S
C96 H77 0.946 . S
C96 C95 1.388 . S
C96 C97 1.384 . S
C97 C96 1.384 . S
C97 C98 1.377 . S
C98 H78 0.953 . S
C98 C97 1.377 . S
C98 C99 1.369 . S
C99 H79 0.945 . S
C99 C94 1.385 . S
C99 C98 1.369 . S
C100 C92 1.457 . S
C100 C101 1.372 . S
C100 C105 1.364 . S
C101 H80 0.952 . S
C101 C100 1.372 . S
C101 C102 1.389 . S
C102 H81 0.949 . S
C102 C101 1.389 . S
C102 C103 1.387 . S
C103 C102 1.387 . S
C103 C104 1.372 . S
C104 H82 0.950 . S
C104 C103 1.372 . S
C104 C105 1.379 . S
C105 H83 0.948 . S
C105 C100 1.364 . S
C105 C104 1.379 . S
C106 C75 1.383 . S
C106 C93 1.479 . S
C106 C107 1.398 . S
C107 C72 1.382 . S
C107 H84 0.951 . S
C107 C106 1.398 . S
C108 C109 1.384 . S
C108 H121 0.947 . S
C108 C143 1.382 . S
C109 C108 1.384 . S
C109 C110 1.378 . S
C110 C109 1.378 . S
C110 C111 1.378 . S
C110 H122 0.952 . S
C111 C110 1.378 . S
C111 H123 0.950 . S
C111 C142 1.383 . S
H112 C131 0.947 . S
H113 C132 0.946 . S
H114 C134 0.953 . S
H115 C135 0.945 . S
H116 C137 0.952 . S
H117 C138 0.949 . S
H118 C140 0.950 . S
H119 C141 0.948 . S
H120 C143 0.951 . S
H121 C108 0.947 . S
H122 C110 0.952 . S
H123 C111 0.950 . S
N124 C127 1.382 . S
N124 C129 1.363 . S
N125 C127 1.371 . S
N125 C128 1.372 . S
N126 C128 1.361 . S
N126 C129 1.377 . S
C127 N124 1.382 . S
C127 N125 1.371 . S
C127 C130 1.480 . S
C128 N125 1.372 . S
C128 N126 1.361 . S
C128 C136 1.457 . S
C129 N124 1.363 . S
C129 N126 1.377 . S
C129 C142 1.479 . S
C130 C127 1.480 . S
C130 C131 1.383 . S
C130 C135 1.385 . S
C131 H112 0.947 . S
C131 C130 1.383 . S
C131 C132 1.388 . S
C132 H113 0.946 . S
C132 C131 1.388 . S
C132 C133 1.384 . S
C133 C132 1.384 . S
C133 C134 1.377 . S
C134 H114 0.953 . S
C134 C133 1.377 . S
C134 C135 1.369 . S
C135 H115 0.945 . S
C135 C130 1.385 . S
C135 C134 1.369 . S
C136 C128 1.457 . S
C136 C137 1.372 . S
C136 C141 1.364 . S
C137 H116 0.952 . S
C137 C136 1.372 . S
C137 C138 1.389 . S
C138 H117 0.949 . S
C138 C137 1.389 . S
C138 C139 1.387 . S
C139 C138 1.387 . S
C139 C140 1.372 . S
C140 H118 0.950 . S
C140 C139 1.372 . S
C140 C141 1.379 . S
C141 H119 0.948 . S
C141 C136 1.364 . S
C141 C140 1.379 . S
C142 C111 1.383 . S
C142 C129 1.479 . S
C142 C143 1.398 . S
C143 C108 1.382 . S
C143 H120 0.951 . S
C143 C142 1.398 . S
C144 C145 1.384 1_545 S
C144 H157 0.947 . S
C144 C179 1.382 1_545 S
C145 C144 1.384 1_565 S
C145 C146 1.378 . S
C146 C145 1.378 . S
C146 C147 1.378 . S
C146 H158 0.952 1_556 S
C147 C146 1.378 . S
C147 H159 0.950 . S
C147 C178 1.383 . S
H148 C167 0.947 . S
H149 C168 0.946 1_554 S
H150 C170 0.953 1_455 S
H151 C171 0.945 . S
H152 C173 0.952 . S
H153 C174 0.949 . S
H154 C176 0.950 . S
H155 C177 0.948 1_545 S
H156 C179 0.951 . S
H157 C144 0.947 . S
H158 C146 0.952 1_554 S
H159 C147 0.950 . S
N160 C163 1.382 . S
N160 C165 1.363 . S
N161 C163 1.371 . S
N161 C164 1.372 . S
N162 C164 1.361 . S
N162 C165 1.377 . S
C163 N160 1.382 . S
C163 N161 1.371 . S
C163 C166 1.480 . S
C164 N161 1.372 . S
C164 N162 1.361 . S
C164 C172 1.457 . S
C165 N160 1.363 . S
C165 N162 1.377 . S
C165 C178 1.479 . S
C166 C163 1.480 . S
C166 C167 1.383 . S
C166 C171 1.385 . S
C167 H148 0.947 . S
C167 C166 1.383 . S
C167 C168 1.388 . S
C168 H149 0.946 1_556 S
C168 C167 1.388 . S
C168 C169 1.384 . S
C169 C168 1.384 . S
C169 C170 1.377 . S
C170 H150 0.953 1_655 S
C170 C169 1.377 . S
C170 C171 1.369 . S
C171 H151 0.945 . S
C171 C166 1.385 . S
C171 C170 1.369 . S
C172 C164 1.457 . S
C172 C173 1.372 . S
C172 C177 1.364 . S
C173 H152 0.952 . S
C173 C172 1.372 . S
C173 C174 1.389 . S
C174 H153 0.949 . S
C174 C173 1.389 . S
C174 C175 1.387 . S
C175 C174 1.387 . S
C175 C176 1.372 1_565 S
C176 H154 0.950 . S
C176 C175 1.372 1_545 S
C176 C177 1.379 1_545 S
C177 H155 0.948 1_565 S
C177 C172 1.364 . S
C177 C176 1.379 1_565 S
C178 C147 1.383 . S
C178 C165 1.479 . S
C178 C179 1.398 . S
C179 C144 1.382 1_565 S
C179 H156 0.951 . S
C179 C178 1.398 . S
C180 C181 1.384 . S
C180 H193 0.947 1_545 S
C180 C215 1.382 . S
C181 C180 1.384 . S
C181 C182 1.378 . S
C182 C181 1.378 . S
C182 C183 1.378 . S
C182 H194 0.952 . S
C183 C182 1.378 . S
C183 H195 0.950 . S
C183 C214 1.383 . S
H184 C203 0.947 . S
H185 C204 0.946 . S
H186 C206 0.953 . S
H187 C207 0.945 . S
H188 C209 0.952 . S
H189 C210 0.949 . S
H190 C212 0.950 1_565 S
H191 C213 0.948 . S
H192 C215 0.951 . S
H193 C180 0.947 1_565 S
H194 C182 0.952 . S
H195 C183 0.950 . S
N196 C199 1.382 . S
N196 C201 1.363 . S
N197 C199 1.371 . S
N197 C200 1.372 . S
N198 C200 1.361 . S
N198 C201 1.377 . S
C199 N196 1.382 . S
C199 N197 1.371 . S
C199 C202 1.480 . S
C200 N197 1.372 . S
C200 N198 1.361 . S
C200 C208 1.457 . S
C201 N196 1.363 . S
C201 N198 1.377 . S
C201 C214 1.479 . S
C202 C199 1.480 . S
C202 C203 1.383 . S
C202 C207 1.385 . S
C203 H184 0.947 . S
C203 C202 1.383 . S
C203 C204 1.388 . S
C204 H185 0.946 . S
C204 C203 1.388 . S
C204 C205 1.384 . S
C205 C204 1.384 . S
C205 C206 1.377 . S
C206 H186 0.953 . S
C206 C205 1.377 . S
C206 C207 1.369 . S
C207 H187 0.945 . S
C207 C202 1.385 . S
C207 C206 1.369 . S
C208 C200 1.457 . S
C208 C209 1.372 . S
C208 C213 1.364 . S
C209 H188 0.952 . S
C209 C208 1.372 . S
C209 C210 1.389 . S
C210 H189 0.949 . S
C210 C209 1.389 . S
C210 C211 1.387 . S
C211 C210 1.387 . S
C211 C212 1.372 . S
C212 H190 0.950 1_545 S
C212 C211 1.372 . S
C212 C213 1.379 . S
C213 H191 0.948 . S
C213 C208 1.364 . S
C213 C212 1.379 . S
C214 C183 1.383 . S
C214 C201 1.479 . S
C214 C215 1.398 . S
C215 C180 1.382 . S
C215 H192 0.951 . S
C215 C214 1.398 . S
C216 C217 1.384 . S
C216 H229 0.947 . S
C216 C251 1.382 . S
C217 C216 1.384 . S
C217 C218 1.378 . S
C218 C217 1.378 . S
C218 C219 1.378 . S
C218 H230 0.952 . S
C219 C218 1.378 . S
C219 H231 0.950 . S
C219 C250 1.383 . S
H220 C239 0.947 . S
H221 C240 0.946 . S
H222 C242 0.953 . S
H223 C243 0.945 . S
H224 C245 0.952 . S
H225 C246 0.949 . S
H226 C248 0.950 . S
H227 C249 0.948 . S
H228 C251 0.951 . S
H229 C216 0.947 . S
H230 C218 0.952 . S
H231 C219 0.950 . S
N232 C235 1.382 . S
N232 C237 1.363 . S
N233 C235 1.371 . S
N233 C236 1.372 . S
N234 C236 1.361 . S
N234 C237 1.377 . S
C235 N232 1.382 . S
C235 N233 1.371 . S
C235 C238 1.480 . S
C236 N233 1.372 . S
C236 N234 1.361 . S
C236 C244 1.457 . S
C237 N232 1.363 . S
C237 N234 1.377 . S
C237 C250 1.479 . S
C238 C235 1.480 . S
C238 C239 1.383 . S
C238 C243 1.385 . S
C239 H220 0.947 . S
C239 C238 1.383 . S
C239 C240 1.388 . S
C240 H221 0.946 . S
C240 C239 1.388 . S
C240 C241 1.384 . S
C241 C240 1.384 . S
C241 C242 1.377 . S
C242 H222 0.953 . S
C242 C241 1.377 . S
C242 C243 1.369 . S
C243 H223 0.945 . S
C243 C238 1.385 . S
C243 C242 1.369 . S
C244 C236 1.457 . S
C244 C245 1.372 . S
C244 C249 1.364 . S
C245 H224 0.952 . S
C245 C244 1.372 . S
C245 C246 1.389 . S
C246 H225 0.949 . S
C246 C245 1.389 . S
C246 C247 1.387 . S
C247 C246 1.387 . S
C247 C248 1.372 . S
C248 H226 0.950 . S
C248 C247 1.372 . S
C248 C249 1.379 . S
C249 H227 0.948 . S
C249 C244 1.364 . S
C249 C248 1.379 . S
C250 C219 1.383 . S
C250 C237 1.479 . S
C250 C251 1.398 . S
C251 C216 1.382 . S
C251 H228 0.951 . S
C251 C250 1.398 . S
C252 C253 1.384 . S
C252 H265 0.947 . S
C252 C287 1.382 . S
C253 C252 1.384 . S
C253 C254 1.378 . S
C254 C253 1.378 . S
C254 C255 1.378 . S
C254 H266 0.952 . S
C255 C254 1.378 . S
C255 H267 0.950 . S
C255 C286 1.383 . S
H256 C275 0.947 . S
H257 C276 0.946 . S
H258 C278 0.953 . S
H259 C279 0.945 . S
H260 C281 0.952 . S
H261 C282 0.949 . S
H262 C284 0.950 . S
H263 C285 0.948 . S
H264 C287 0.951 . S
H265 C252 0.947 . S
H266 C254 0.952 . S
H267 C255 0.950 . S
N268 C271 1.382 . S
N268 C273 1.363 . S
N269 C271 1.371 . S
N269 C272 1.372 . S
N270 C272 1.361 . S
N270 C273 1.377 . S
C271 N268 1.382 . S
C271 N269 1.371 . S
C271 C274 1.480 . S
C272 N269 1.372 . S
C272 N270 1.361 . S
C272 C280 1.457 . S
C273 N268 1.363 . S
C273 N270 1.377 . S
C273 C286 1.479 . S
C274 C271 1.480 . S
C274 C275 1.383 . S
C274 C279 1.385 . S
C275 H256 0.947 . S
C275 C274 1.383 . S
C275 C276 1.388 . S
C276 H257 0.946 . S
C276 C275 1.388 . S
C276 C277 1.384 . S
C277 C276 1.384 . S
C277 C278 1.377 . S
C278 H258 0.953 . S
C278 C277 1.377 . S
C278 C279 1.369 . S
C279 H259 0.945 . S
C279 C274 1.385 . S
C279 C278 1.369 . S
C280 C272 1.457 . S
C280 C281 1.372 . S
C280 C285 1.364 . S
C281 H260 0.952 . S
C281 C280 1.372 . S
C281 C282 1.389 . S
C282 H261 0.949 . S
C282 C281 1.389 . S
C282 C283 1.387 . S
C283 C282 1.387 . S
C283 C284 1.372 . S
C284 H262 0.950 . S
C284 C283 1.372 . S
C284 C285 1.379 . S
C285 H263 0.948 . S
C285 C280 1.364 . S
C285 C284 1.379 . S
C286 C255 1.383 . S
C286 C273 1.479 . S
C286 C287 1.398 . S
C287 C252 1.382 . S
C287 H264 0.951 . S
C287 C286 1.398 . S
O288 Zn289 1.953 . S
O288 C304 1.225 1_655 S
Zn289 O288 1.953 . S
Zn289 O290 1.949 1_655 S
Zn289 O296 1.919 . S
Zn289 O301 1.924 . S
O290 Zn289 1.949 1_455 S
O290 Zn291 1.923 1_445 S
O290 Zn292 1.950 . S
O290 Zn293 1.945 1_545 S
Zn291 O290 1.923 1_665 S
Zn291 O294 1.933 . S
Zn291 O297 1.941 1_565 S
Zn291 O298 1.965 1_665 S
Zn292 O290 1.950 . S
Zn292 O299 1.938 . S
Zn292 O300 1.906 1_545 S
Zn292 O310 1.953 . S
Zn293 O290 1.945 1_565 S
Zn293 O295 1.932 1_455 S
Zn293 O302 1.977 . S
Zn293 O303 1.910 1_455 S
O294 Zn291 1.933 . S
O294 C305 1.226 . S
O295 Zn293 1.932 1_655 S
O295 C305 1.307 . S
O296 Zn289 1.919 . S
O296 C307 1.253 . S
O297 Zn291 1.941 1_545 S
O297 C307 1.283 . S
O298 Zn291 1.965 1_445 S
O298 C306 1.303 . S
O299 Zn292 1.938 . S
O299 C306 1.247 . S
O300 Zn292 1.906 1_565 S
O300 C308 1.304 . S
O301 Zn289 1.924 . S
O301 C309 1.311 1_545 S
O302 Zn293 1.977 . S
O302 C308 1.272 . S
O303 Zn293 1.910 1_655 S
O303 C309 1.231 . S
C304 O288 1.225 1_455 S
C304 O310 1.298 . S
C305 O294 1.226 . S
C305 O295 1.307 . S
C306 O298 1.303 . S
C306 O299 1.247 . S
C307 O296 1.253 . S
C307 O297 1.283 . S
C308 O300 1.304 . S
C308 O302 1.272 . S
C309 O301 1.311 1_565 S
C309 O303 1.231 . S
O310 Zn292 1.953 . S
O310 C304 1.298 . S
O311 Zn312 1.953 . S
O311 C327 1.225 . S
Zn312 O311 1.953 . S
Zn312 O313 1.949 1_556 S
Zn312 O319 1.919 . S
Zn312 O324 1.924 1_556 S
O313 Zn312 1.949 1_554 S
O313 Zn314 1.923 1_544 S
O313 Zn315 1.950 . S
O313 Zn316 1.945 1_545 S
Zn314 O313 1.923 1_566 S
Zn314 O317 1.933 1_556 S
Zn314 O320 1.941 . S
Zn314 O321 1.965 . S
Zn315 O313 1.950 . S
Zn315 O322 1.938 . S
Zn315 O323 1.906 . S
Zn315 O333 1.953 . S
Zn316 O313 1.945 1_565 S
Zn316 O318 1.932 . S
Zn316 O325 1.977 1_565 S
Zn316 O326 1.910 1_565 S
O317 Zn314 1.933 1_554 S
O317 C328 1.226 . S
O318 Zn316 1.932 . S
O318 C328 1.307 . S
O319 Zn312 1.919 . S
O319 C330 1.253 1_545 S
O320 Zn314 1.941 . S
O320 C330 1.283 . S
O321 Zn314 1.965 . S
O321 C329 1.303 . S
O322 Zn315 1.938 . S
O322 C329 1.247 1_544 S
O323 Zn315 1.906 . S
O323 C331 1.304 . S
O324 Zn312 1.924 1_554 S
O324 C332 1.311 . S
O325 Zn316 1.977 1_545 S
O325 C331 1.272 . S
O326 Zn316 1.910 1_545 S
O326 C332 1.231 . S
C327 O311 1.225 . S
C327 O333 1.298 1_556 S
C328 O317 1.226 . S
C328 O318 1.307 . S
C329 O321 1.303 . S
C329 O322 1.247 1_566 S
C330 O319 1.253 1_565 S
C330 O320 1.283 . S
C331 O323 1.304 . S
C331 O325 1.272 . S
C332 O324 1.311 . S
C332 O326 1.231 . S
O333 Zn315 1.953 . S
O333 C327 1.298 1_554 S
O334 Zn335 1.953 . S
O334 C350 1.225 . S
Zn335 O334 1.953 . S
Zn335 O336 1.949 . S
Zn335 O342 1.919 . S
Zn335 O347 1.924 . S
O336 Zn335 1.949 . S
O336 Zn337 1.923 . S
O336 Zn338 1.950 . S
O336 Zn339 1.945 . S
Zn337 O336 1.923 . S
Zn337 O340 1.933 . S
Zn337 O343 1.941 . S
Zn337 O344 1.965 . S
Zn338 O336 1.950 . S
Zn338 O345 1.938 . S
Zn338 O346 1.906 . S
Zn338 O356 1.953 . S
Zn339 O336 1.945 . S
Zn339 O341 1.932 . S
Zn339 O348 1.977 . S
Zn339 O349 1.910 . S
O340 Zn337 1.933 . S
O340 C351 1.226 . S
O341 Zn339 1.932 . S
O341 C351 1.307 . S
O342 Zn335 1.919 . S
O342 C353 1.253 . S
O343 Zn337 1.941 . S
O343 C353 1.283 . S
O344 Zn337 1.965 . S
O344 C352 1.303 . S
O345 Zn338 1.938 . S
O345 C352 1.247 . S
O346 Zn338 1.906 . S
O346 C354 1.304 . S
O347 Zn335 1.924 . S
O347 C355 1.311 . S
O348 Zn339 1.977 . S
O348 C354 1.272 . S
O349 Zn339 1.910 . S
O349 C355 1.231 . S
C350 O334 1.225 . S
C350 O356 1.298 . S
C351 O340 1.226 . S
C351 O341 1.307 . S
C352 O344 1.303 . S
C352 O345 1.247 . S
C353 O342 1.253 . S
C353 O343 1.283 . S
C354 O346 1.304 . S
C354 O348 1.272 . S
C355 O347 1.311 . S
C355 O349 1.231 . S
O356 Zn338 1.953 . S
O356 C350 1.298 . S
O357 Zn358 1.953 . S
O357 C373 1.225 . S
Zn358 O357 1.953 . S
Zn358 O359 1.949 1_655 S
Zn358 O365 1.919 . S
Zn358 O370 1.924 . S
O359 Zn358 1.949 1_455 S
O359 Zn360 1.923 1_454 S
O359 Zn361 1.950 . S
O359 Zn362 1.945 1_554 S
Zn360 O359 1.923 1_656 S
Zn360 O363 1.933 1_655 S
Zn360 O366 1.941 . S
Zn360 O367 1.965 . S
Zn361 O359 1.950 . S
Zn361 O368 1.938 . S
Zn361 O369 1.906 . S
Zn361 O379 1.953 . S
Zn362 O359 1.945 1_556 S
Zn362 O364 1.932 . S
Zn362 O371 1.977 1_556 S
Zn362 O372 1.910 1_556 S
O363 Zn360 1.933 1_455 S
O363 C374 1.226 . S
O364 Zn362 1.932 . S
O364 C374 1.307 . S
O365 Zn358 1.919 . S
O365 C376 1.253 1_554 S
O366 Zn360 1.941 . S
O366 C376 1.283 . S
O367 Zn360 1.965 . S
O367 C375 1.303 . S
O368 Zn361 1.938 . S
O368 C375 1.247 1_454 S
O369 Zn361 1.906 . S
O369 C377 1.304 . S
O370 Zn358 1.924 . S
O370 C378 1.311 1_655 S
O371 Zn362 1.977 1_554 S
O371 C377 1.272 . S
O372 Zn362 1.910 1_554 S
O372 C378 1.231 . S
C373 O357 1.225 . S
C373 O379 1.298 1_655 S
C374 O363 1.226 . S
C374 O364 1.307 . S
C375 O367 1.303 . S
C375 O368 1.247 1_656 S
C376 O365 1.253 1_556 S
C376 O366 1.283 . S
C377 O369 1.304 . S
C377 O371 1.272 . S
C378 O370 1.311 1_455 S
C378 O372 1.231 . S
O379 Zn361 1.953 . S
O379 C373 1.298 1_455 S
C380 C381 1.369 . S
C380 C382 1.419 . S
C380 H384 0.930 . S
C381 C380 1.369 . S
C381 C390 1.429 . S
C382 C380 1.419 . S
C382 C383 1.363 . S
C382 H385 0.929 . S
C383 C382 1.363 . S
C383 C389 1.428 . S
H384 C380 0.930 . S
H385 C382 0.929 . S
S386 N387 1.613 . S
S386 N388 1.610 . S
N387 S386 1.613 . S
N387 C390 1.350 . S
N388 S386 1.610 . S
N388 C389 1.351 . S
C389 C383 1.428 . S
C389 N388 1.351 . S
C389 C390 1.434 . S
C390 C381 1.429 . S
C390 N387 1.350 . S
C390 C389 1.434 . S
C391 C392 1.369 . S
C391 C393 1.419 . S
C391 H395 0.930 . S
C392 C391 1.369 . S
C392 C401 1.429 . S
C393 C391 1.419 . S
C393 C394 1.363 . S
C393 H396 0.929 . S
C394 C393 1.363 . S
C394 C400 1.428 . S
H395 C391 0.930 . S
H396 C393 0.929 . S
S397 N398 1.613 1_545 S
S397 N399 1.610 . S
N398 S397 1.613 1_565 S
N398 C401 1.350 . S
N399 S397 1.610 . S
N399 C400 1.351 1_545 S
C400 C394 1.428 . S
C400 N399 1.351 1_565 S
C400 C401 1.434 . S
C401 C392 1.429 . S
C401 N398 1.350 . S
C401 C400 1.434 . S
C402 C403 1.369 . S
C402 C404 1.419 . S
C402 H406 0.930 . S
C403 C402 1.369 . S
C403 C412 1.429 . S
C404 C402 1.419 . S
C404 C405 1.363 . S
C404 H407 0.929 . S
C405 C404 1.363 . S
C405 C411 1.428 . S
H406 C402 0.930 . S
H407 C404 0.929 . S
S408 N409 1.613 . S
S408 N410 1.610 . S
N409 S408 1.613 . S
N409 C412 1.350 . S
N410 S408 1.610 . S
N410 C411 1.351 . S
C411 C405 1.428 . S
C411 N410 1.351 . S
C411 C412 1.434 . S
C412 C403 1.429 . S
C412 N409 1.350 . S
C412 C411 1.434 . S
C413 C414 1.369 . S
C413 C415 1.419 . S
C413 H417 0.930 . S
C414 C413 1.369 . S
C414 C423 1.429 . S
C415 C413 1.419 . S
C415 C416 1.363 . S
C415 H418 0.929 . S
C416 C415 1.363 . S
C416 C422 1.428 . S
H417 C413 0.930 . S
H418 C415 0.929 . S
S419 N420 1.613 . S
S419 N421 1.610 . S
N420 S419 1.613 . S
N420 C423 1.350 . S
N421 S419 1.610 . S
N421 C422 1.351 . S
C422 C416 1.428 . S
C422 N421 1.351 . S
C422 C423 1.434 . S
C423 C414 1.429 . S
C423 N420 1.350 . S
C423 C422 1.434 . S
C424 C425 1.369 . S
C424 C426 1.419 . S
C424 H428 0.930 . S
C425 C424 1.369 . S
C425 C434 1.429 . S
C426 C424 1.419 . S
C426 C427 1.363 . S
C426 H429 0.929 . S
C427 C426 1.363 . S
C427 C433 1.428 . S
H428 C424 0.930 . S
H429 C426 0.929 . S
S430 N431 1.613 . S
S430 N432 1.610 . S
N431 S430 1.613 . S
N431 C434 1.350 . S
N432 S430 1.610 . S
N432 C433 1.351 . S
C433 C427 1.428 . S
C433 N432 1.351 . S
C433 C434 1.434 . S
C434 C425 1.429 . S
C434 N431 1.350 . S
C434 C433 1.434 . S
C435 C436 1.369 . S
C435 C437 1.419 . S
C435 H439 0.930 . S
C436 C435 1.369 . S
C436 C445 1.429 . S
C437 C435 1.419 . S
C437 C438 1.363 . S
C437 H440 0.929 . S
C438 C437 1.363 . S
C438 C444 1.428 . S
H439 C435 0.930 . S
H440 C437 0.929 . S
S441 N442 1.613 . S
S441 N443 1.610 . S
N442 S441 1.613 . S
N442 C445 1.350 . S
N443 S441 1.610 . S
N443 C444 1.351 . S
C444 C438 1.428 . S
C444 N443 1.351 . S
C444 C445 1.434 . S
C445 C436 1.429 . S
C445 N442 1.350 . S
C445 C444 1.434 . S
C446 C447 1.369 . S
C446 C448 1.419 . S
C446 H450 0.930 1_556 S
C447 C446 1.369 . S
C447 C456 1.429 . S
C448 C446 1.419 . S
C448 C449 1.363 . S
C448 H451 0.929 1_556 S
C449 C448 1.363 . S
C449 C455 1.428 . S
H450 C446 0.930 1_554 S
H451 C448 0.929 1_554 S
S452 N453 1.613 . S
S452 N454 1.610 . S
N453 S452 1.613 . S
N453 C456 1.350 . S
N454 S452 1.610 . S
N454 C455 1.351 . S
C455 C449 1.428 . S
C455 N454 1.351 . S
C455 C456 1.434 . S
C456 C447 1.429 . S
C456 N453 1.350 . S
C456 C455 1.434 . S
C457 C458 1.369 . S
C457 C459 1.419 . S
C457 H461 0.930 . S
C458 C457 1.369 . S
C458 C467 1.429 . S
C459 C457 1.419 . S
C459 C460 1.363 . S
C459 H462 0.929 . S
C460 C459 1.363 . S
C460 C466 1.428 . S
H461 C457 0.930 . S
H462 C459 0.929 . S
S463 N464 1.613 . S
S463 N465 1.610 . S
N464 S463 1.613 . S
N464 C467 1.350 . S
N465 S463 1.610 . S
N465 C466 1.351 . S
C466 C460 1.428 . S
C466 N465 1.351 . S
C466 C467 1.434 . S
C467 C458 1.429 . S
C467 N464 1.350 . S
C467 C466 1.434 . S
C468 C469 1.369 . S
C468 C470 1.419 . S
C468 H472 0.930 . S
C469 C468 1.369 . S
C469 C478 1.429 . S
C470 C468 1.419 . S
C470 C471 1.363 . S
C470 H473 0.929 . S
C471 C470 1.363 . S
C471 C477 1.428 . S
H472 C468 0.930 . S
H473 C470 0.929 . S
S474 N475 1.613 1_656 S
S474 N476 1.608 1_656 S
N475 S474 1.613 1_454 S
N475 C478 1.350 . S
N476 S474 1.608 1_454 S
N476 C477 1.365 . S
C477 C471 1.428 . S
C477 N476 1.365 . S
C477 C478 1.434 . S
C478 C469 1.429 . S
C478 N475 1.350 . S
C478 C477 1.434 . S
C479 C480 1.369 . S
C479 C481 1.419 . S
C479 H483 0.930 . S
C480 C479 1.369 . S
C480 C489 1.429 . S
C481 C479 1.419 . S
C481 C482 1.363 . S
C481 H484 0.929 . S
C482 C481 1.363 . S
C482 C488 1.428 . S
H483 C479 0.930 . S
H484 C481 0.929 . S
S485 N486 1.613 1_554 S
S485 N487 1.611 . S
N486 S485 1.613 1_556 S
N486 C489 1.350 . S
N487 S485 1.611 . S
N487 C488 1.346 1_554 S
C488 C482 1.428 . S
C488 N487 1.346 1_556 S
C488 C489 1.434 . S
C489 C480 1.429 . S
C489 N486 1.350 . S
C489 C488 1.434 . S
C490 C491 1.369 . S
C490 C492 1.419 . S
C490 H494 0.930 . S
C491 C490 1.369 . S
C491 C500 1.429 . S
C492 C490 1.419 . S
C492 C493 1.363 . S
C492 H495 0.929 . S
C493 C492 1.363 . S
C493 C499 1.428 . S
H494 C490 0.930 . S
H495 C492 0.929 . S
S496 N497 1.613 . S
S496 N498 1.610 . S
N497 S496 1.613 . S
N497 C500 1.350 . S
N498 S496 1.610 . S
N498 C499 1.351 . S
C499 C493 1.428 . S
C499 N498 1.351 . S
C499 C500 1.434 . S
C500 C491 1.429 . S
C500 N497 1.350 . S
C500 C499 1.434 . S
C501 C502 1.369 . S
C501 C503 1.419 . S
C501 H505 0.930 . S
C502 C501 1.369 . S
C502 C511 1.429 . S
C503 C501 1.419 . S
C503 C504 1.363 . S
C503 H506 0.929 . S
C504 C503 1.363 . S
C504 C510 1.428 . S
H505 C501 0.930 . S
H506 C503 0.929 . S
S507 N508 1.613 . S
S507 N509 1.610 . S
N508 S507 1.613 . S
N508 C511 1.350 . S
N509 S507 1.610 . S
N509 C510 1.351 . S
C510 C504 1.428 . S
C510 N509 1.351 . S
C510 C511 1.434 . S
C511 C502 1.429 . S
C511 N508 1.350 . S
C511 C510 1.434 . S
C512 C513 1.369 1_445 S
C512 C514 1.419 . S
C512 H516 0.930 . S
C513 C512 1.369 1_665 S
C513 C522 1.429 . S
C514 C512 1.419 . S
C514 C515 1.359 1_445 S
C514 H517 0.929 . S
C515 C514 1.359 1_665 S
C515 C521 1.433 . S
H516 C512 0.930 . S
H517 C514 0.929 . S
S518 N519 1.613 . S
S518 N520 1.610 . S
N519 S518 1.613 . S
N519 C522 1.350 . S
N520 S518 1.610 . S
N520 C521 1.351 . S
C521 C515 1.433 . S
C521 N520 1.351 . S
C521 C522 1.434 . S
C522 C513 1.429 . S
C522 N519 1.350 . S
C522 C521 1.434 . S
C523 C524 1.369 1_565 S
C523 C525 1.419 . S
C523 H527 0.930 . S
C524 C523 1.369 1_545 S
C524 C533 1.429 . S
C525 C523 1.419 . S
C525 C526 1.363 1_565 S
C525 H528 0.929 . S
C526 C525 1.363 1_545 S
C526 C532 1.428 . S
H527 C523 0.930 . S
H528 C525 0.929 . S
S529 N530 1.613 . S
S529 N531 1.610 . S
N530 S529 1.613 . S
N530 C533 1.350 . S
N531 S529 1.610 . S
N531 C532 1.351 . S
C532 C526 1.428 . S
C532 N531 1.351 . S
C532 C533 1.434 . S
C533 C524 1.429 . S
C533 N530 1.350 . S
C533 C532 1.434 . S
C534 C535 1.369 . S
C534 C536 1.419 . S
C534 H538 0.930 . S
C535 C534 1.369 . S
C535 C544 1.429 . S
C536 C534 1.419 . S
C536 C537 1.363 . S
C536 H539 0.929 . S
C537 C536 1.363 . S
C537 C543 1.428 . S
H538 C534 0.930 . S
H539 C536 0.929 . S
S540 N541 1.613 . S
S540 N542 1.610 . S
N541 S540 1.613 . S
N541 C544 1.350 . S
N542 S540 1.610 . S
N542 C543 1.351 . S
C543 C537 1.428 . S
C543 N542 1.351 . S
C543 C544 1.434 . S
C544 C535 1.429 . S
C544 N541 1.350 . S
C544 C543 1.434 . S
C545 C546 1.369 . S
C545 C547 1.419 . S
C545 H549 0.930 . S
C546 C545 1.369 . S
C546 C555 1.429 . S
C547 C545 1.419 . S
C547 C548 1.363 . S
C547 H550 0.929 . S
C548 C547 1.363 . S
C548 C554 1.428 . S
H549 C545 0.930 . S
H550 C547 0.929 . S
S551 N552 1.620 . S
S551 N553 1.612 . S
N552 S551 1.620 . S
N552 C555 1.340 1_655 S
N553 S551 1.612 . S
N553 C554 1.349 1_655 S
C554 C548 1.428 . S
C554 N553 1.349 1_455 S
C554 C555 1.434 . S
C555 C546 1.429 . S
C555 N552 1.340 1_455 S
C555 C554 1.434 . S
C556 C557 1.369 . S
C556 C558 1.419 . S
C556 H560 0.930 . S
C557 C556 1.369 . S
C557 C566 1.429 1_565 S
C558 C556 1.419 . S
C558 C559 1.363 . S
C558 H561 0.929 . S
C559 C558 1.363 . S
C559 C565 1.428 1_565 S
H560 C556 0.930 . S
H561 C558 0.929 . S
S562 N563 1.613 . S
S562 N564 1.615 . S
N563 S562 1.613 . S
N563 C566 1.350 1_554 S
N564 S562 1.615 . S
N564 C565 1.345 1_554 S
C565 C559 1.428 1_545 S
C565 N564 1.345 1_556 S
C565 C566 1.434 . S
C566 C557 1.429 1_545 S
C566 N563 1.350 1_556 S
C566 C565 1.434 . S
C567 C568 1.369 1_565 S
C567 C569 1.419 . S
C567 H571 0.930 . S
C568 C567 1.369 1_545 S
C568 C577 1.429 . S
C569 C567 1.419 . S
C569 C570 1.363 1_565 S
C569 H572 0.929 . S
C570 C569 1.363 1_545 S
C570 C576 1.428 . S
H571 C567 0.930 . S
H572 C569 0.929 . S
S573 N574 1.613 . S
S573 N575 1.610 . S
N574 S573 1.613 . S
N574 C577 1.350 . S
N575 S573 1.610 . S
N575 C576 1.351 . S
C576 C570 1.428 . S
C576 N575 1.351 . S
C576 C577 1.434 . S
C577 C568 1.429 . S
C577 N574 1.350 . S
C577 C576 1.434 . S
C578 C579 1.369 . S
C578 C580 1.419 . S
C578 H582 0.930 . S
C579 C578 1.369 . S
C579 C588 1.429 . S
C580 C578 1.419 . S
C580 C581 1.363 . S
C580 H583 0.929 . S
C581 C580 1.363 . S
C581 C587 1.428 . S
H582 C578 0.930 . S
H583 C580 0.929 . S
S584 N585 1.613 . S
S584 N586 1.610 . S
N585 S584 1.613 . S
N585 C588 1.350 . S
N586 S584 1.610 . S
N586 C587 1.351 . S
C587 C581 1.428 . S
C587 N586 1.351 . S
C587 C588 1.434 . S
C588 C579 1.429 . S
C588 N585 1.350 . S
C588 C587 1.434 . S
C589 C590 1.369 . S
C589 C591 1.419 . S
C589 H593 0.930 . S
C590 C589 1.369 . S
C590 C599 1.429 . S
C591 C589 1.419 . S
C591 C592 1.363 . S
C591 H594 0.929 . S
C592 C591 1.363 . S
C592 C598 1.428 . S
H593 C589 0.930 . S
H594 C591 0.929 . S
S595 N596 1.613 . S
S595 N597 1.610 . S
N596 S595 1.613 . S
N596 C599 1.350 . S
N597 S595 1.610 . S
N597 C598 1.351 . S
C598 C592 1.428 . S
C598 N597 1.351 . S
C598 C599 1.434 . S
C599 C590 1.429 . S
C599 N596 1.350 . S
C599 C598 1.434 . S
C600 C601 1.369 1_554 S
C600 C602 1.419 . S
C600 H604 0.930 . S
C601 C600 1.369 1_556 S
C601 C610 1.429 . S
C602 C600 1.419 . S
C602 C603 1.363 1_554 S
C602 H605 0.929 . S
C603 C602 1.363 1_556 S
C603 C609 1.428 . S
H604 C600 0.930 . S
H605 C602 0.929 . S
S606 N607 1.613 . S
S606 N608 1.610 . S
N607 S606 1.613 . S
N607 C610 1.350 . S
N608 S606 1.610 . S
N608 C609 1.351 . S
C609 C603 1.428 . S
C609 N608 1.351 . S
C609 C610 1.434 . S
C610 C601 1.429 . S
C610 N607 1.350 . S
C610 C609 1.434 . S
C611 C612 1.369 . S
C611 C613 1.419 . S
C611 H615 0.930 . S
C612 C611 1.369 . S
C612 C621 1.429 . S
C613 C611 1.419 . S
C613 C614 1.363 . S
C613 H616 0.929 . S
C614 C613 1.363 . S
C614 C620 1.428 . S
H615 C611 0.930 . S
H616 C613 0.929 . S
S617 N618 1.613 . S
S617 N619 1.610 1_556 S
N618 S617 1.613 . S
N618 C621 1.350 1_556 S
N619 S617 1.610 1_554 S
N619 C620 1.351 . S
C620 C614 1.428 . S
C620 N619 1.351 . S
C620 C621 1.434 . S
C621 C612 1.429 . S
C621 N618 1.350 1_554 S
C621 C620 1.434 . S
C622 C623 1.369 . S
C622 C624 1.419 . S
C622 H626 0.930 1_455 S
C623 C622 1.369 . S
C623 C632 1.429 . S
C624 C622 1.419 . S
C624 C625 1.363 . S
C624 H627 0.929 1_455 S
C625 C624 1.363 . S
C625 C631 1.428 . S
H626 C622 0.930 1_655 S
H627 C624 0.929 1_655 S
S628 N629 1.613 . S
S628 N630 1.610 . S
N629 S628 1.613 . S
N629 C632 1.350 . S
N630 S628 1.610 . S
N630 C631 1.351 . S
C631 C625 1.428 . S
C631 N630 1.351 . S
C631 C632 1.434 . S
C632 C623 1.429 . S
C632 N629 1.350 . S
C632 C631 1.434 . S
C633 C634 1.369 . S
C633 C635 1.419 . S
C633 H637 0.930 . S
C634 C633 1.369 . S
C634 C643 1.429 . S
C635 C633 1.419 . S
C635 C636 1.363 . S
C635 H638 0.929 . S
C636 C635 1.363 . S
C636 C642 1.428 . S
H637 C633 0.930 . S
H638 C635 0.929 . S
S639 N640 1.613 . S
S639 N641 1.610 . S
N640 S639 1.613 . S
N640 C643 1.350 . S
N641 S639 1.610 . S
N641 C642 1.351 . S
C642 C636 1.428 . S
C642 N641 1.351 . S
C642 C643 1.434 . S
C643 C634 1.429 . S
C643 N640 1.350 . S
C643 C642 1.434 . S
C381 C1 1.582 . S
C383 C306 1.596 . S
C392 C67 1.589 . S
C394 C330 1.567 . S
C405 C350 1.486 . S
C403 C97 1.433 . S
C414 C133 1.508 . S
C416 C373 1.511 . S
C427 C332 1.639 . S
C425 C25 1.666 . S
C438 C308 1.634 . S
C436 C37 1.664 . S
C449 C376 1.599 . S
C447 C103 1.616 . S
C460 C353 1.585 . S
C458 C109 1.651 . S
C469 C31 1.437 . S
C471 C378 1.402 . S
C482 C327 1.649 . S
C480 C73 1.601 . S
C491 C139 1.649 . S
C493 C305 1.657 . S
C502 C61 1.418 . S
C504 C355 1.392 . S
C515 C309 1.777 . S
C513 C175 1.734 . S
C524 C181 1.636 . S
C526 C331 1.707 . S
C535 C247 1.819 . S
C537 C351 1.830 . S
C546 C277 1.815 . S
C548 C374 1.828 . S
C557 C145 1.691 . S
C559 C329 1.656 . S
C570 C307 1.739 . S
C568 C211 1.613 . S
C581 C377 1.562 . S
C579 C217 1.591 . S
C592 C354 1.608 . S
C590 C283 1.640 . S
C601 C169 1.934 . S
C603 C375 1.888 . S
C614 C328 1.672 . S
C612 C241 1.665 . S
C625 C304 1.686 . S
C623 C253 1.667 . S
C634 C205 1.839 . S
C636 C352 1.870 . S
