# Generated by pormake.
# Topology pto, (3,4)-cn, num edge types: 1
# Building blocks:
#     Node 0, Type 0, BuildingBlock: OLANEW_clean_sbu_2, # of connection points: 3
#     Node 1, Type 0, BuildingBlock: OLANEW_clean_sbu_2, # of connection points: 3
#     Node 2, Type 0, BuildingBlock: OLANEW_clean_sbu_2, # of connection points: 3
#     Node 3, Type 0, BuildingBlock: OLANEW_clean_sbu_2, # of connection points: 3
#     Node 4, Type 0, BuildingBlock: OLANEW_clean_sbu_2, # of connection points: 3
#     Node 5, Type 0, BuildingBlock: OLANEW_clean_sbu_2, # of connection points: 3
#     Node 6, Type 0, BuildingBlock: OLANEW_clean_sbu_2, # of connection points: 3
#     Node 7, Type 0, BuildingBlock: OLANEW_clean_sbu_2, # of connection points: 3
#     Node 8, Type 1, BuildingBlock: MUDLON_clean_linker_0, # of connection points: 4
#     Node 9, Type 1, BuildingBlock: MUDLON_clean_linker_0, # of connection points: 4
#     Node 10, Type 1, BuildingBlock: MUDLON_clean_linker_0, # of connection points: 4
#     Node 11, Type 1, BuildingBlock: MUDLON_clean_linker_0, # of connection points: 4
#     Node 12, Type 1, BuildingBlock: MUDLON_clean_linker_0, # of connection points: 4
#     Node 13, Type 1, BuildingBlock: MUDLON_clean_linker_0, # of connection points: 4
#     Edge 14, Type (0, 1), BuildingBlock: CIFDUS_clean_linker_0, # of connection points: 2
#     Edge 15, Type (0, 1), BuildingBlock: CIFDUS_clean_linker_0, # of connection points: 2
#     Edge 16, Type (0, 1), BuildingBlock: CIFDUS_clean_linker_0, # of connection points: 2
#     Edge 17, Type (0, 1), BuildingBlock: CIFDUS_clean_linker_0, # of connection points: 2
#     Edge 18, Type (0, 1), BuildingBlock: CIFDUS_clean_linker_0, # of connection points: 2
#     Edge 19, Type (0, 1), BuildingBlock: CIFDUS_clean_linker_0, # of connection points: 2
#     Edge 20, Type (0, 1), BuildingBlock: CIFDUS_clean_linker_0, # of connection points: 2
#     Edge 21, Type (0, 1), BuildingBlock: CIFDUS_clean_linker_0, # of connection points: 2
#     Edge 22, Type (0, 1), BuildingBlock: CIFDUS_clean_linker_0, # of connection points: 2
#     Edge 23, Type (0, 1), BuildingBlock: CIFDUS_clean_linker_0, # of connection points: 2
#     Edge 24, Type (0, 1), BuildingBlock: CIFDUS_clean_linker_0, # of connection points: 2
#     Edge 25, Type (0, 1), BuildingBlock: CIFDUS_clean_linker_0, # of connection points: 2
#     Edge 26, Type (0, 1), BuildingBlock: CIFDUS_clean_linker_0, # of connection points: 2
#     Edge 27, Type (0, 1), BuildingBlock: CIFDUS_clean_linker_0, # of connection points: 2
#     Edge 28, Type (0, 1), BuildingBlock: CIFDUS_clean_linker_0, # of connection points: 2
#     Edge 29, Type (0, 1), BuildingBlock: CIFDUS_clean_linker_0, # of connection points: 2
#     Edge 30, Type (0, 1), BuildingBlock: CIFDUS_clean_linker_0, # of connection points: 2
#     Edge 31, Type (0, 1), BuildingBlock: CIFDUS_clean_linker_0, # of connection points: 2
#     Edge 32, Type (0, 1), BuildingBlock: CIFDUS_clean_linker_0, # of connection points: 2
#     Edge 33, Type (0, 1), BuildingBlock: CIFDUS_clean_linker_0, # of connection points: 2
#     Edge 34, Type (0, 1), BuildingBlock: CIFDUS_clean_linker_0, # of connection points: 2
#     Edge 35, Type (0, 1), BuildingBlock: CIFDUS_clean_linker_0, # of connection points: 2
#     Edge 36, Type (0, 1), BuildingBlock: CIFDUS_clean_linker_0, # of connection points: 2
#     Edge 37, Type (0, 1), BuildingBlock: CIFDUS_clean_linker_0, # of connection points: 2
# Relax obj value: 0.011
# Max RMSD: 0.127
# Mean RMSD: 0.065
data_MOF--net-pto--node1-OLANEW_clean_sbu_2--node2-MUDLON_clean_linker_0--edge1-CIFDUS_clean_linker_0
_symmetry_space_group_name_H-M    P1
_symmetry_Int_Tables_number       1
_symmetry_cell_setting            triclinic
loop_
_symmetry_equiv_pos_as_xyz
'x, y, z'
_cell_length_a     36.223323
_cell_length_b     64.886299
_cell_length_c     50.711043
_cell_angle_alpha  92.837047
_cell_angle_beta   88.719521
_cell_angle_gamma 106.76596
loop_
_atom_site_label
_atom_site_type_symbol
_atom_site_fract_x
_atom_site_fract_y
_atom_site_fract_z
_atom_type_partial_charge
O0 O 0.32787 0.31448 0.30883 0.0
Cd1 Cd 0.29745 0.30259 0.35093 0.0
O2 O 0.3268 0.34627 0.32445 0.0
Cd3 Cd 0.33116 0.38056 0.32415 0.0
O4 O 0.30785 0.40784 0.33087 0.0
C5 C 0.29327 0.41461 0.31173 0.0
O6 O 0.29538 0.40604 0.28792 0.0
C7 C 0.33567 0.33461 0.3059 0.0
C8 C 0.32541 0.27187 0.37342 0.0
O9 O 0.2939 0.26626 0.36038 0.0
O10 O 0.34392 0.29194 0.3755 0.0
O11 O 0.22763 0.87476 0.80056 0.0
Cd12 Cd 0.18129 0.88958 0.77986 0.0
O13 O 0.21715 0.84875 0.76992 0.0
Cd14 Cd 0.22263 0.81868 0.75093 0.0
O15 O 0.20814 0.78755 0.72894 0.0
C16 C 0.19094 0.78653 0.70714 0.0
O17 O 0.18457 0.8041 0.69897 0.0
C18 C 0.2352 0.85813 0.79042 0.0
C19 C 0.21646 0.9137 0.73736 0.0
O20 O 0.21768 0.92239 0.7607 0.0
O21 O 0.1981 0.89367 0.73408 0.0
O22 O 0.82414 0.81202 0.32295 0.0
Cd23 Cd 0.82335 0.78524 0.28738 0.0
O24 O 0.76499 0.79682 0.33672 0.0
Cd25 Cd 0.75203 0.77464 0.30205 0.0
O26 O 0.72425 0.76845 0.26351 0.0
C27 C 0.74339 0.77181 0.24204 0.0
O28 O 0.7812 0.77719 0.24283 0.0
C29 C 0.79683 0.81153 0.33931 0.0
C30 C 0.85426 0.7532 0.30312 0.0
O31 O 0.87596 0.77146 0.29607 0.0
O32 O 0.81765 0.74995 0.30273 0.0
O33 O 0.71892 0.28975 0.6637 0.0
Cd34 Cd 0.68304 0.25533 0.68208 0.0
O35 O 0.7696 0.2899 0.68691 0.0
Cd36 Cd 0.73429 0.26923 0.71622 0.0
O37 O 0.70292 0.27372 0.75235 0.0
C38 C 0.70651 0.29352 0.75793 0.0
O39 O 0.72754 0.3079 0.74215 0.0
C40 C 0.75454 0.29773 0.66889 0.0
C41 C 0.71127 0.22219 0.6606 0.0
O42 O 0.681 0.22548 0.65122 0.0
O43 O 0.7277 0.23427 0.68023 0.0
O44 O 0.75828 0.77881 0.648 0.0
Cd45 Cd 0.74316 0.74629 0.67361 0.0
O46 O 0.69716 0.77765 0.64569 0.0
Cd47 Cd 0.67841 0.75297 0.67469 0.0
O48 O 0.66229 0.75557 0.71609 0.0
C49 C 0.67969 0.77384 0.72674 0.0
O50 O 0.7059 0.78741 0.71276 0.0
C51 C 0.73226 0.78644 0.63966 0.0
C52 C 0.79428 0.72153 0.66522 0.0
O53 O 0.76405 0.7181 0.65104 0.0
O54 O 0.80047 0.73681 0.68306 0.0
O55 O 0.90445 0.27375 0.30756 0.0
Cd56 Cd 0.89187 0.23551 0.29468 0.0
O57 O 0.86005 0.27559 0.27988 0.0
Cd58 Cd 0.82876 0.29262 0.25689 0.0
O59 O 0.79708 0.30635 0.22991 0.0
C60 C 0.7768 0.31823 0.23876 0.0
O61 O 0.77558 0.32233 0.26435 0.0
C62 C 0.88546 0.28477 0.2969 0.0
C63 C 0.87785 0.2089 0.3376 0.0
O64 O 0.91218 0.21694 0.32876 0.0
O65 O 0.85023 0.21359 0.32625 0.0
O66 O 0.25282 0.32197 0.76575 0.0
Cd67 Cd 0.21772 0.31376 0.724 0.0
O68 O 0.3006 0.34614 0.7473 0.0
Cd69 Cd 0.28547 0.33114 0.70807 0.0
O70 O 0.29735 0.3084 0.67822 0.0
C71 C 0.33218 0.31258 0.67035 0.0
O72 O 0.35705 0.33049 0.67923 0.0
C73 C 0.28402 0.3372 0.76786 0.0
C74 C 0.19108 0.34798 0.70934 0.0
O75 O 0.17012 0.333 0.72333 0.0
O76 O 0.22462 0.34682 0.70231 0.0
O77 O 0.41027 0.84964 0.32753 0.0
Cd78 Cd 0.37822 0.84019 0.36995 0.0
O79 O 0.35712 0.83821 0.30432 0.0
Cd80 Cd 0.32219 0.82203 0.33699 0.0
O81 O 0.28474 0.79072 0.34798 0.0
C82 C 0.29248 0.77474 0.33606 0.0
O83 O 0.32248 0.77844 0.32004 0.0
C84 C 0.39319 0.84735 0.30548 0.0
C85 C 0.39196 0.87652 0.40423 0.0
O86 O 0.41589 0.86533 0.40207 0.0
O87 O 0.36128 0.87044 0.39032 0.0
H88 H 0.96179 0.44236 0.39072 0.0
N89 N 0.02098 0.47248 0.37077 0.0
H90 H 0.93439 0.40519 0.37297 0.0
H91 H 0.03268 0.45712 0.32075 0.0
H92 H 0.00632 0.42016 0.30354 0.0
H93 H 0.07718 0.49464 0.3368 0.0
H94 H 0.14248 0.49165 0.33257 0.0
H95 H 0.05696 0.4546 0.4041 0.0
H96 H 0.12196 0.45083 0.39937 0.0
H97 H 0.02568 0.50606 0.40387 0.0
H98 H 0.99528 0.48316 0.32365 0.0
H99 H 0.01935 0.54132 0.39382 0.0
H100 H 0.98731 0.51776 0.3139 0.0
H101 H 0.98704 0.63819 0.36854 0.0
H102 H 0.94113 0.65928 0.36732 0.0
H103 H 0.91729 0.63879 0.28567 0.0
H104 H 0.96449 0.61825 0.28666 0.0
H105 H 0.06041 0.64236 0.29087 0.0
H106 H 0.11852 0.67215 0.3001 0.0
H107 H 0.10441 0.66049 0.38335 0.0
H108 H 0.0467 0.63036 0.37384 0.0
H109 H 0.9835 0.59981 0.37161 0.0
H110 H 0.9788 0.56286 0.38288 0.0
H111 H 0.02938 0.55245 0.30713 0.0
N112 N 0.01274 0.61877 0.3255 0.0
H113 H 0.03249 0.58902 0.29585 0.0
C114 C 0.99949 0.45255 0.35734 0.0
C115 C 0.97062 0.4378 0.37129 0.0
C116 C 0.95509 0.41663 0.36118 0.0
C117 C 0.96866 0.40989 0.33707 0.0
C118 C 0.99565 0.42499 0.32227 0.0
C119 C 0.01069 0.44615 0.33215 0.0
C120 C 0.06192 0.47476 0.37089 0.0
C121 C 0.087 0.48563 0.35113 0.0
C122 C 0.12435 0.48373 0.34853 0.0
C123 C 0.13733 0.47074 0.36537 0.0
C124 C 0.11314 0.46113 0.38619 0.0
C125 C 0.0759 0.4632 0.38891 0.0
C126 C 0.01119 0.49183 0.36473 0.0
C127 C 0.01674 0.50846 0.3843 0.0
C128 C 0.01294 0.52859 0.37852 0.0
C129 C 0.00318 0.5325 0.35294 0.0
C130 C 0.9957 0.51549 0.33366 0.0
C131 C 0.99994 0.49545 0.33936 0.0
C132 C 0.97971 0.62692 0.32743 0.0
C133 C 0.97153 0.63783 0.35049 0.0
C134 C 0.94522 0.64987 0.34984 0.0
C135 C 0.92601 0.65073 0.32636 0.0
C136 C 0.93162 0.63827 0.30404 0.0
C137 C 0.95849 0.62657 0.30457 0.0
C138 C 0.04918 0.6343 0.33157 0.0
C139 C 0.07036 0.64599 0.31102 0.0
C140 C 0.1035 0.66293 0.31634 0.0
C141 C 0.11584 0.66865 0.34247 0.0
C142 C 0.09531 0.65649 0.36307 0.0
C143 C 0.0624 0.63929 0.35765 0.0
C144 C 0.00809 0.59702 0.33273 0.0
C145 C 0.9931 0.58946 0.35737 0.0
C146 C 0.99068 0.56835 0.36383 0.0
C147 C 0.00349 0.55456 0.34586 0.0
C148 C 0.01836 0.56234 0.32124 0.0
C149 C 0.02049 0.58329 0.31479 0.0
H150 H 0.94309 0.45342 0.65049 0.0
N151 N 0.00901 0.45802 0.62096 0.0
H152 H 0.89051 0.41983 0.65353 0.0
H153 H 0.99469 0.42437 0.58703 0.0
H154 H 0.94264 0.3907 0.5903 0.0
H155 H 0.07444 0.45048 0.60513 0.0
H156 H 0.11081 0.43084 0.62859 0.0
H157 H 0.00215 0.45034 0.67378 0.0
H158 H 0.03957 0.43201 0.69788 0.0
H159 H 0.01341 0.48587 0.66484 0.0
H160 H 0.00028 0.48011 0.58025 0.0
H161 H 0.01388 0.52331 0.66477 0.0
H162 H 0.99873 0.51748 0.58013 0.0
H163 H 0.97665 0.62001 0.66605 0.0
H164 H 0.92465 0.63657 0.67165 0.0
H165 H 0.91639 0.63811 0.58697 0.0
H166 H 0.96839 0.62099 0.58146 0.0
H167 H 0.05854 0.64429 0.59231 0.0
H168 H 0.10775 0.6758 0.61029 0.0
H169 H 0.0878 0.64968 0.68788 0.0
H170 H 0.04042 0.61771 0.66929 0.0
H171 H 0.97988 0.58533 0.65855 0.0
H172 H 0.9771 0.54744 0.65924 0.0
H173 H 0.03985 0.55274 0.58513 0.0
N174 N 0.01164 0.6131 0.61917 0.0
H175 H 0.04069 0.59044 0.58405 0.0
C176 C 0.97287 0.44133 0.61849 0.0
C177 C 0.94234 0.44012 0.63656 0.0
C178 C 0.91237 0.42094 0.63831 0.0
C179 C 0.91288 0.40273 0.62227 0.0
C180 C 0.94173 0.40454 0.60288 0.0
C181 C 0.97126 0.42374 0.6009 0.0
C182 C 0.03589 0.45218 0.63761 0.0
C183 C 0.0676 0.44712 0.62566 0.0
C184 C 0.08832 0.43584 0.63916 0.0
C185 C 0.07782 0.42952 0.66509 0.0
C186 C 0.04798 0.43618 0.67777 0.0
C187 C 0.02694 0.44713 0.66411 0.0
C188 C 0.00738 0.48005 0.62234 0.0
C189 C 0.01032 0.49246 0.64619 0.0
C190 C 0.01024 0.51403 0.64618 0.0
C191 C 0.00668 0.52363 0.62242 0.0
C192 C 0.00251 0.51091 0.59876 0.0
C193 C 0.00304 0.48946 0.59877 0.0
C194 C 0.97645 0.61909 0.62318 0.0
C195 C 0.96313 0.62327 0.64859 0.0
C196 C 0.93356 0.63303 0.65182 0.0
C197 C 0.91674 0.63894 0.62977 0.0
C198 C 0.92858 0.63366 0.60436 0.0
C199 C 0.95822 0.62386 0.60116 0.0
C200 C 0.04547 0.62888 0.62946 0.0
C201 C 0.06573 0.64514 0.61303 0.0
C202 C 0.09346 0.66323 0.62344 0.0
C203 C 0.10108 0.66559 0.65069 0.0
C204 C 0.08277 0.64846 0.66682 0.0
C205 C 0.05537 0.63019 0.65625 0.0
C206 C 0.01006 0.59074 0.62092 0.0
C207 C 0.99275 0.5784 0.64232 0.0
C208 C 0.9915 0.55663 0.64281 0.0
C209 C 0.00799 0.54683 0.62214 0.0
C210 C 0.02598 0.55946 0.6011 0.0
C211 C 0.02682 0.58109 0.60051 0.0
H212 H 0.35877 0.17987 0.53551 0.0
N213 N 0.43347 0.17844 0.53722 0.0
H214 H 0.3296 0.20216 0.5645 0.0
H215 H 0.46273 0.19992 0.58146 0.0
H216 H 0.43363 0.22217 0.61079 0.0
H217 H 0.47504 0.21664 0.52193 0.0
H218 H 0.46582 0.2347 0.48282 0.0
H219 H 0.39122 0.15848 0.49325 0.0
H220 H 0.38378 0.17587 0.45343 0.0
H221 H 0.36675 0.1449 0.53468 0.0
H222 H 0.48923 0.16104 0.54691 0.0
H223 H 0.36089 0.10706 0.53962 0.0
H224 H 0.4835 0.12336 0.5542 0.0
H225 H 0.33368 0.00247 0.56858 0.0
H226 H 0.29586 0.98489 0.60592 0.0
H227 H 0.39687 0.006 0.65513 0.0
H228 H 0.43459 0.0237 0.61752 0.0
H229 H 0.44716 0.9935 0.56191 0.0
H230 H 0.43829 0.96536 0.52696 0.0
H231 H 0.35894 0.99241 0.48813 0.0
H232 H 0.36635 0.01967 0.52412 0.0
H233 H 0.35461 0.04441 0.57689 0.0
H234 H 0.36042 0.08161 0.56916 0.0
H235 H 0.4744 0.0893 0.53586 0.0
N236 N 0.41096 0.02359 0.56817 0.0
H237 H 0.46953 0.05224 0.5459 0.0
C238 C 0.41304 0.18824 0.55643 0.0
C239 C 0.3749 0.18856 0.55232 0.0
C240 C 0.35828 0.20137 0.56888 0.0
C241 C 0.3795 0.21413 0.58973 0.0
C242 C 0.4168 0.2128 0.59461 0.0
C243 C 0.43334 0.19997 0.5781 0.0
C244 C 0.43368 0.18631 0.51101 0.0
C245 C 0.45569 0.20752 0.50675 0.0
C246 C 0.45044 0.2178 0.48421 0.0
C247 C 0.42346 0.20692 0.46498 0.0
C248 C 0.4039 0.18502 0.46815 0.0
C249 C 0.40851 0.1749 0.49104 0.0
C250 C 0.42872 0.1558 0.5399 0.0
C251 C 0.39247 0.1403 0.53847 0.0
C252 C 0.38912 0.11857 0.5417 0.0
C253 C 0.4217 0.11188 0.54736 0.0
C254 C 0.45781 0.1276 0.5492 0.0
C255 C 0.46121 0.14923 0.54527 0.0
C256 C 0.38719 0.01427 0.59027 0.0
C257 C 0.34772 0.00335 0.58738 0.0
C258 C 0.32613 0.99327 0.60873 0.0
C259 C 0.34345 0.99393 0.63341 0.0
C260 C 0.38263 0.00535 0.63642 0.0
C261 C 0.40425 0.01539 0.615 0.0
C262 C 0.40784 0.00877 0.54557 0.0
C263 C 0.4282 0.99343 0.54567 0.0
C264 C 0.4232 0.97743 0.52553 0.0
C265 C 0.39795 0.97656 0.50453 0.0
C266 C 0.3782 0.99234 0.50412 0.0
C267 C 0.38279 0.00816 0.52455 0.0
C268 C 0.41213 0.04542 0.56245 0.0
C269 C 0.38111 0.05398 0.56818 0.0
C270 C 0.38428 0.07544 0.56335 0.0
C271 C 0.41799 0.08877 0.55192 0.0
C272 C 0.44835 0.07988 0.54533 0.0
C273 C 0.44553 0.05858 0.5508 0.0
H274 H 0.52995 0.80179 0.10774 0.0
N275 N 0.56008 0.84487 0.09922 0.0
H276 H 0.56066 0.77969 0.13209 0.0
H277 H 0.63277 0.85541 0.11501 0.0
H278 H 0.6638 0.83345 0.1394 0.0
H279 H 0.57387 0.87777 0.13457 0.0
H280 H 0.5323 0.88321 0.17138 0.0
H281 H 0.48482 0.82163 0.10689 0.0
H282 H 0.44378 0.82625 0.14418 0.0
H283 H 0.57222 0.81458 0.06185 0.0
H284 H 0.52111 0.86705 0.07336 0.0
H285 H 0.55561 0.81137 0.01572 0.0
H286 H 0.50393 0.86339 0.02694 0.0
H287 H 0.47979 0.79673 0.87918 0.0
H288 H 0.51405 0.77832 0.84884 0.0
H289 H 0.6217 0.82567 0.86988 0.0
H290 H 0.58648 0.84498 0.8984 0.0
H291 H 0.50213 0.85941 0.866 0.0
H292 H 0.44171 0.86122 0.84669 0.0
H293 H 0.3771 0.81565 0.902 0.0
H294 H 0.43742 0.81328 0.92064 0.0
H295 H 0.49512 0.80079 0.93602 0.0
H296 H 0.50224 0.80146 0.98407 0.0
H297 H 0.53983 0.8711 0.98595 0.0
N298 N 0.51074 0.83581 0.90539 0.0
H299 H 0.532 0.87017 0.93809 0.0
C300 C 0.57913 0.83038 0.10977 0.0
C301 C 0.55928 0.80875 0.11435 0.0
C302 C 0.57688 0.79612 0.12823 0.0
C303 C 0.61457 0.80485 0.13777 0.0
C304 C 0.63492 0.82614 0.13201 0.0
C305 C 0.61727 0.83875 0.11819 0.0
C306 C 0.53268 0.84925 0.11822 0.0
C307 C 0.54513 0.8668 0.13632 0.0
C308 C 0.52148 0.86973 0.15743 0.0
C309 C 0.48489 0.85499 0.16099 0.0
C310 C 0.47164 0.83801 0.14199 0.0
C311 C 0.49524 0.8352 0.12076 0.0
C312 C 0.5466 0.84061 0.07211 0.0
C313 C 0.55628 0.82501 0.05505 0.0
C314 C 0.54682 0.82313 0.02831 0.0
C315 C 0.52821 0.837 0.01767 0.0
C316 C 0.51838 0.85247 0.03451 0.0
C317 C 0.52781 0.85438 0.06122 0.0
C318 C 0.53055 0.82271 0.89037 0.0
C319 C 0.51074 0.80318 0.87721 0.0
C320 C 0.53057 0.79247 0.86007 0.0
C321 C 0.57072 0.80071 0.85634 0.0
C322 C 0.59068 0.81923 0.8714 0.0
C323 C 0.57071 0.83021 0.88794 0.0
C324 C 0.47443 0.83657 0.89498 0.0
C325 C 0.47492 0.84981 0.8739 0.0
C326 C 0.44053 0.85072 0.86284 0.0
C327 C 0.40493 0.83859 0.87296 0.0
C328 C 0.40428 0.82525 0.89403 0.0
C329 C 0.43876 0.82399 0.90475 0.0
C330 C 0.51326 0.83551 0.93364 0.0
C331 C 0.50469 0.81615 0.94689 0.0
C332 C 0.50889 0.81657 0.97428 0.0
C333 C 0.52156 0.83634 0.98882 0.0
C334 C 0.52944 0.85562 0.97543 0.0
C335 C 0.52527 0.85516 0.94812 0.0
H336 H 0.77249 0.10377 0.51866 0.0
N337 N 0.84342 0.09955 0.53017 0.0
H338 H 0.73645 0.12328 0.54586 0.0
H339 H 0.85505 0.11147 0.58086 0.0
H340 H 0.81744 0.12947 0.6093 0.0
H341 H 0.90243 0.13433 0.52311 0.0
H342 H 0.91782 0.15577 0.48374 0.0
H343 H 0.80652 0.08984 0.48262 0.0
H344 H 0.82179 0.11095 0.44324 0.0
H345 H 0.78416 0.06424 0.51522 0.0
H346 H 0.90003 0.08468 0.54493 0.0
H347 H 0.78685 0.02687 0.51129 0.0
H348 H 0.90242 0.04745 0.54277 0.0
H349 H 0.78863 0.92104 0.51876 0.0
H350 H 0.76852 0.88995 0.54582 0.0
H351 H 0.87844 0.9104 0.58556 0.0
H352 H 0.89928 0.94086 0.55677 0.0
H353 H 0.91592 0.93297 0.49316 0.0
H354 H 0.91028 0.91008 0.45274 0.0
H355 H 0.79818 0.91818 0.43883 0.0
H356 H 0.80435 0.94133 0.47918 0.0
H357 H 0.79523 0.95916 0.52832 0.0
H358 H 0.78871 0.99561 0.53336 0.0
H359 H 0.90848 0.02145 0.51085 0.0
N360 N 0.86193 0.94838 0.51546 0.0
H361 H 0.91504 0.98509 0.50731 0.0
C362 C 0.81714 0.1067 0.54754 0.0
C363 C 0.7824 0.10922 0.53844 0.0
C364 C 0.76151 0.12027 0.55425 0.0
C365 C 0.77436 0.12852 0.57973 0.0
C366 C 0.80729 0.12413 0.58951 0.0
C367 C 0.82859 0.11355 0.57345 0.0
C368 C 0.85349 0.11053 0.50586 0.0
C369 C 0.88509 0.12905 0.50558 0.0
C370 C 0.89384 0.1412 0.48309 0.0
C371 C 0.8709 0.13509 0.46041 0.0
C372 C 0.83972 0.11621 0.46051 0.0
C373 C 0.83112 0.10402 0.48299 0.0
C374 C 0.84232 0.07721 0.52988 0.0
C375 C 0.81009 0.06062 0.52103 0.0
C376 C 0.81157 0.03923 0.51909 0.0
C377 C 0.84512 0.03407 0.5263 0.0
C378 C 0.87653 0.05077 0.53626 0.0
C379 C 0.87516 0.07205 0.5378 0.0
C380 C 0.84585 0.9332 0.53549 0.0
C381 C 0.80828 0.91909 0.53352 0.0
C382 C 0.79667 0.90125 0.54925 0.0
C383 C 0.82204 0.89731 0.5677 0.0
C384 C 0.85847 0.91249 0.57107 0.0
C385 C 0.87027 0.93014 0.55497 0.0
C386 C 0.8606 0.93871 0.4892 0.0
C387 C 0.89066 0.93028 0.48095 0.0
C388 C 0.88735 0.91722 0.45792 0.0
C389 C 0.85361 0.91219 0.44282 0.0
C390 C 0.82429 0.9216 0.45031 0.0
C391 C 0.82787 0.9349 0.47324 0.0
C392 C 0.85602 0.96944 0.51792 0.0
C393 C 0.82015 0.97266 0.52472 0.0
C394 C 0.81637 0.99358 0.52736 0.0
C395 C 0.8482 0.01163 0.5229 0.0
C396 C 0.88358 0.00812 0.51526 0.0
C397 C 0.88739 0.98732 0.51298 0.0
H398 H 0.57101 0.34678 0.11055 0.0
N399 N 0.54506 0.38222 0.11945 0.0
H400 H 0.61918 0.33727 0.13658 0.0
H401 H 0.59113 0.40698 0.1556 0.0
H402 H 0.64045 0.39803 0.18117 0.0
H403 H 0.50189 0.40597 0.14002 0.0
H404 H 0.44703 0.39453 0.17052 0.0
H405 H 0.5081 0.34061 0.13183 0.0
H406 H 0.45446 0.32921 0.16247 0.0
H407 H 0.50436 0.34838 0.08668 0.0
H408 H 0.58404 0.41223 0.0878 0.0
H409 H 0.5025 0.34774 0.03875 0.0
H410 H 0.58424 0.41128 0.03966 0.0
H411 H 0.52217 0.34035 0.89959 0.0
H412 H 0.56064 0.32473 0.86879 0.0
H413 H 0.65831 0.38096 0.88209 0.0
H414 H 0.61882 0.39687 0.91176 0.0
H415 H 0.53847 0.40449 0.88135 0.0
H416 H 0.48218 0.40155 0.85466 0.0
H417 H 0.41275 0.35449 0.90695 0.0
H418 H 0.47027 0.35637 0.93217 0.0
H419 H 0.53596 0.34584 0.95114 0.0
H420 H 0.53676 0.3454 -0.00075 0.0
H421 H 0.54566 0.41343 0.00425 0.0
N422 N 0.54392 0.38134 0.9218 0.0
H423 H 0.54722 0.41385 0.95616 0.0
C424 C 0.57737 0.37758 0.13134 0.0
C425 C 0.5864 0.35815 0.12569 0.0
C426 C 0.61412 0.35279 0.14053 0.0
C427 C 0.6334 0.36679 0.16119 0.0
C428 C 0.62562 0.38669 0.16579 0.0
C429 C 0.5978 0.39195 0.15106 0.0
C430 C 0.50921 0.37427 0.13367 0.0
C431 C 0.49092 0.38911 0.14439 0.0
C432 C 0.45986 0.38257 0.16194 0.0
C433 C 0.44657 0.36098 0.16912 0.0
C434 C 0.4636 0.34591 0.15718 0.0
C435 C 0.49458 0.35246 0.13967 0.0
C436 C 0.54389 0.38065 0.09099 0.0
C437 C 0.5216 0.36228 0.07672 0.0
C438 C 0.52088 0.36183 0.04911 0.0
C439 C 0.54291 0.37954 0.03517 0.0
C440 C 0.56603 0.39756 0.0496 0.0
C441 C 0.56627 0.39811 0.07713 0.0
C442 C 0.56757 0.37002 0.9075 0.0
C443 C 0.55198 0.34919 0.89606 0.0
C444 C 0.57416 0.3402 0.87858 0.0
C445 C 0.61243 0.35176 0.87252 0.0
C446 C 0.62865 0.37186 0.8857 0.0
C447 C 0.60633 0.38092 0.90287 0.0
C448 C 0.50866 0.38084 0.90877 0.0
C449 C 0.51094 0.39373 0.88714 0.0
C450 C 0.47846 0.39213 0.87205 0.0
C451 C 0.44244 0.37782 0.87855 0.0
C452 C 0.43994 0.36543 0.90096 0.0
C453 C 0.4728 0.36669 0.9157 0.0
C454 C 0.54235 0.38007 0.95011 0.0
C455 C 0.53845 0.36068 0.96261 0.0
C456 C 0.53849 0.36042 0.9902 0.0
C457 C 0.54173 0.37945 0.00579 0.0
C458 C 0.54424 0.39859 0.99303 0.0
C459 C 0.54479 0.39887 0.96554 0.0
H460 H 0.27927 0.43304 0.35894 0.0
H461 H 0.25208 0.42887 0.276 0.0
H462 H 0.20412 0.44807 0.28517 0.0
H463 H 0.16466 0.46193 0.31712 0.0
H464 H 0.19112 0.46607 0.40014 0.0
H465 H 0.24456 0.45086 0.39049 0.0
C466 C 0.26327 0.4366 0.3428 0.0
C467 C 0.2689 0.42922 0.31686 0.0
C468 C 0.23528 0.44739 0.34825 0.0
C469 C 0.24815 0.43417 0.29618 0.0
C470 C 0.22059 0.44511 0.30141 0.0
C471 C 0.18272 0.46011 0.3331 0.0
C472 C 0.17362 0.465 0.35936 0.0
C473 C 0.21316 0.45123 0.32744 0.0
C474 C 0.19707 0.46213 0.37979 0.0
C475 C 0.22769 0.45347 0.37428 0.0
H476 H 0.19824 0.74706 0.71832 0.0
H477 H 0.14843 0.77916 0.66225 0.0
H478 H 0.11821 0.74479 0.63925 0.0
H479 H 0.10218 0.70563 0.63673 0.0
H480 H 0.15241 0.67297 0.69179 0.0
H481 H 0.18582 0.70758 0.71366 0.0
C482 C 0.18102 0.74655 0.70095 0.0
C483 C 0.17541 0.7657 0.69219 0.0
C484 C 0.16351 0.72664 0.68774 0.0
C485 C 0.15316 0.76472 0.66955 0.0
C486 C 0.13577 0.74505 0.65636 0.0
C487 C 0.12114 0.706 0.65311 0.0
C488 C 0.12469 0.68662 0.66254 0.0
C489 C 0.14031 0.7259 0.66549 0.0
C490 C 0.14872 0.68757 0.68426 0.0
C491 C 0.16796 0.70738 0.69673 0.0
H492 H 0.8213 0.70978 0.30079 0.0
H493 H 0.92558 0.75898 0.32312 0.0
H494 H 0.95545 0.73142 0.33467 0.0
H495 H 0.95338 0.69343 0.33605 0.0
H496 H 0.85174 0.64398 0.31019 0.0
H497 H 0.81913 0.67145 0.30249 0.0
C498 C 0.85042 0.71442 0.30841 0.0
C499 C 0.87124 0.73635 0.31113 0.0
C500 C 0.86783 0.69844 0.31432 0.0
C501 C 0.90909 0.74218 0.32073 0.0
C502 C 0.92616 0.72645 0.32738 0.0
C503 C 0.92384 0.68871 0.32915 0.0
C504 C 0.90468 0.66681 0.32398 0.0
C505 C 0.90598 0.70456 0.32396 0.0
C506 C 0.86682 0.6608 0.31443 0.0
C507 C 0.84831 0.67648 0.30998 0.0
H508 H 0.83176 0.30985 0.66117 0.0
H509 H 0.72973 0.3292 0.64757 0.0
H510 H 0.76951 0.3635 0.63121 0.0
H511 H 0.83412 0.38905 0.62358 0.0
H512 H 0.93532 0.36846 0.63536 0.0
H513 H 0.89521 0.33362 0.64957 0.0
C514 C 0.81823 0.32149 0.65437 0.0
C515 C 0.77796 0.31711 0.65578 0.0
C516 C 0.8412 0.34102 0.64481 0.0
C517 C 0.76072 0.3322 0.64661 0.0
C518 C 0.78346 0.35187 0.63741 0.0
C519 C 0.84714 0.37679 0.62905 0.0
C520 C 0.88747 0.38121 0.62852 0.0
C521 C 0.82381 0.35662 0.63686 0.0
C522 C 0.90426 0.36527 0.63548 0.0
C523 C 0.88139 0.34541 0.64369 0.0
H524 H 0.39876 0.27471 0.38723 0.0
H525 H 0.28204 0.23312 0.39023 0.0
H526 H 0.30268 0.20842 0.41731 0.0
H527 H 0.35241 0.20069 0.44352 0.0
H528 H 0.47031 0.24073 0.43809 0.0
H529 H 0.45046 0.26411 0.40868 0.0
C530 C 0.37797 0.26012 0.39362 0.0
C531 C 0.33889 0.25585 0.38707 0.0
C532 C 0.39011 0.24586 0.40892 0.0
C533 C 0.31229 0.23676 0.39508 0.0
C534 C 0.32404 0.22268 0.41064 0.0
C535 C 0.37417 0.21411 0.43538 0.0
C536 C 0.41281 0.21902 0.44352 0.0
C537 C 0.36273 0.2273 0.4181 0.0
C538 C 0.44019 0.23679 0.43286 0.0
C539 C 0.42892 0.25015 0.41588 0.0
H540 H 0.25153 0.85837 0.84218 0.0
H541 H 0.28774 0.84168 0.76448 0.0
H542 H 0.34271 0.83303 0.78335 0.0
H543 H 0.38303 0.83276 0.82177 0.0
H544 H 0.34606 0.84865 0.89955 0.0
H545 H 0.28871 0.85502 0.88096 0.0
C546 C 0.27125 0.85258 0.82948 0.0
C547 C 0.26555 0.8505 0.80205 0.0
C548 C 0.30275 0.84768 0.84047 0.0
C549 C 0.29113 0.84297 0.78571 0.0
C550 C 0.32278 0.83825 0.79646 0.0
C551 C 0.36217 0.83747 0.83457 0.0
C552 C 0.36869 0.84043 0.86189 0.0
C553 C 0.32922 0.84091 0.82376 0.0
C554 C 0.34143 0.84626 0.87845 0.0
C555 C 0.30881 0.84998 0.86783 0.0
H556 H 0.85884 0.84654 0.34784 0.0
H557 H 0.74518 0.81519 0.37819 0.0
H558 H 0.7521 0.84414 0.41202 0.0
H559 H 0.79074 0.87812 0.43335 0.0
H560 H 0.90441 0.90927 0.4032 0.0
H561 H 0.89708 0.88063 0.36879 0.0
C562 C 0.83558 0.84596 0.36189 0.0
C563 C 0.80158 0.82865 0.36048 0.0
C564 C 0.83967 0.86269 0.38122 0.0
C565 C 0.77172 0.82827 0.37882 0.0
C566 C 0.77559 0.84485 0.39814 0.0
C567 C 0.81364 0.87879 0.41898 0.0
C568 C 0.84797 0.89582 0.42068 0.0
C569 C 0.80939 0.86216 0.39949 0.0
C570 C 0.87776 0.89628 0.4023 0.0
C571 C 0.87359 0.87992 0.38266 0.0
H572 H 0.70829 0.33434 0.77293 0.0
H573 H 0.66153 0.26857 0.79557 0.0
H574 H 0.62931 0.28076 0.83367 0.0
H575 H 0.61381 0.31026 0.86016 0.0
H576 H 0.65936 0.37565 0.8356 0.0
H577 H 0.69321 0.3634 0.79899 0.0
C578 C 0.69114 0.3226 0.78618 0.0
C579 C 0.6873 0.30056 0.78134 0.0
C580 C 0.67265 0.32968 0.80787 0.0
C581 C 0.66493 0.28564 0.79879 0.0
C582 C 0.64651 0.2926 0.82059 0.0
C583 C 0.63104 0.32182 0.84676 0.0
C584 C 0.6342 0.34391 0.85092 0.0
C585 C 0.65002 0.31461 0.82526 0.0
C586 C 0.657 0.35864 0.8334 0.0
C587 C 0.67613 0.35163 0.81222 0.0
H588 H 0.26295 0.95501 0.739 0.0
H589 H 0.21491 0.90052 0.68534 0.0
H590 H 0.24922 0.92073 0.64849 0.0
H591 H 0.29419 0.95347 0.63165 0.0
H592 H 0.34279 0.00788 0.68518 0.0
H593 H 0.30719 0.98802 0.72199 0.0
C594 C 0.25982 0.94758 0.71923 0.0
C595 C 0.23636 0.92628 0.71496 0.0
C596 C 0.2799 0.95923 0.69813 0.0
C597 C 0.23279 0.91688 0.68921 0.0
C598 C 0.25242 0.92842 0.66811 0.0
C599 C 0.29662 0.96108 0.65132 0.0
C600 C 0.32103 0.98213 0.65566 0.0
C601 C 0.27618 0.94956 0.67236 0.0
C602 C 0.32445 0.99162 0.68136 0.0
C603 C 0.30398 0.98031 0.70238 0.0
H604 H 0.66632 0.76336 0.23431 0.0
H605 H 0.77637 0.78509 0.19445 0.0
H606 H 0.74519 0.795 0.15688 0.0
H607 H 0.688 0.80169 0.13792 0.0
H608 H 0.57867 0.78123 0.17884 0.0
H609 H 0.60812 0.76629 0.21309 0.0
C610 C 0.68346 0.76994 0.21724 0.0
C611 C 0.72372 0.77383 0.21743 0.0
C612 C 0.66548 0.77598 0.19591 0.0
C613 C 0.74536 0.7821 0.19497 0.0
C614 C 0.72759 0.78787 0.17349 0.0
C615 C 0.67059 0.79376 0.15422 0.0
C616 C 0.63132 0.79278 0.15595 0.0
C617 C 0.68789 0.78559 0.17417 0.0
C618 C 0.60892 0.7821 0.17691 0.0
C619 C 0.6258 0.7737 0.19665 0.0
H620 H 0.6746 0.18644 0.63046 0.0
H621 H 0.78513 0.2206 0.66385 0.0
H622 H 0.81399 0.19444 0.64235 0.0
H623 H 0.80869 0.16316 0.61243 0.0
H624 H 0.69738 0.12699 0.58157 0.0
H625 H 0.66821 0.15288 0.6034 0.0
C626 C 0.70497 0.18808 0.63308 0.0
C627 C 0.72775 0.20552 0.64858 0.0
C628 C 0.72132 0.17274 0.62098 0.0
C629 C 0.76695 0.20731 0.65206 0.0
C630 C 0.78351 0.19239 0.63971 0.0
C631 C 0.77786 0.16048 0.6109 0.0
C632 C 0.7555 0.14304 0.59512 0.0
C633 C 0.76104 0.17514 0.62398 0.0
C634 C 0.71567 0.14041 0.59307 0.0
C635 C 0.69882 0.15517 0.60571 0.0
H636 H 0.32966 0.31545 0.25693 0.0
H637 H 0.38614 0.37453 0.30048 0.0
H638 H 0.42242 0.38884 0.26103 0.0
H639 H 0.44258 0.38315 0.21547 0.0
H640 H 0.38663 0.32397 0.17177 0.0
H641 H 0.34585 0.31104 0.21003 0.0
C642 C 0.34963 0.33155 0.25766 0.0
C643 C 0.35492 0.34401 0.2815 0.0
C644 C 0.37077 0.33955 0.23497 0.0
C645 C 0.38081 0.36483 0.28223 0.0
C646 C 0.40191 0.37293 0.25973 0.0
C647 C 0.42082 0.36765 0.21404 0.0
C648 C 0.41789 0.35449 0.19081 0.0
C649 C 0.3976 0.36028 0.23613 0.0
C650 C 0.3899 0.33429 0.18953 0.0
C651 C 0.36653 0.32689 0.21138 0.0
H652 H 0.78778 0.68724 0.63041 0.0
H653 H 0.86083 0.72552 0.69171 0.0
H654 H 0.90451 0.70318 0.68634 0.0
H655 H 0.92235 0.67304 0.66415 0.0
H656 H 0.84966 0.63443 0.60302 0.0
H657 H 0.80561 0.65676 0.60827 0.0
C658 C 0.81327 0.69072 0.64257 0.0
C659 C 0.82096 0.70806 0.66144 0.0
C660 C 0.83834 0.67775 0.63942 0.0
C661 C 0.85415 0.7123 0.67704 0.0
C662 C 0.87917 0.69952 0.674 0.0
C663 C 0.89659 0.6693 0.65221 0.0
C664 C 0.88916 0.65198 0.63337 0.0
C665 C 0.87151 0.68219 0.65532 0.0
C666 C 0.85614 0.64772 0.6176 0.0
C667 C 0.8309 0.66045 0.62064 0.0
H668 H 0.95547 0.31284 0.30584 0.0
H669 H 0.83472 0.30871 0.3033 0.0
H670 H 0.84942 0.3472 0.31563 0.0
H671 H 0.89712 0.3821 0.32799 0.0
H672 H 0.01798 0.38607 0.32805 0.0
H673 H 0.00292 0.34765 0.31595 0.0
C674 C 0.93243 0.32041 0.30797 0.0
C675 C 0.89416 0.30807 0.30358 0.0
C676 C 0.94118 0.34252 0.31469 0.0
C677 C 0.8645 0.31802 0.3062 0.0
C678 C 0.87288 0.33998 0.31342 0.0
C679 C 0.91999 0.37446 0.32526 0.0
C680 C 0.95854 0.38676 0.32886 0.0
C681 C 0.91114 0.35239 0.3178 0.0
C682 C 0.98811 0.37685 0.32517 0.0
C683 C 0.97953 0.35491 0.31835 0.0
H684 H 0.11957 0.35285 0.71747 0.0
H685 H 0.23045 0.38332 0.68253 0.0
H686 H 0.20611 0.41203 0.66729 0.0
H687 H 0.15261 0.42781 0.6625 0.0
H688 H 0.04092 0.39594 0.69552 0.0
H689 H 0.06665 0.36891 0.71339 0.0
C690 C 0.13851 0.36582 0.70664 0.0
C691 C 0.17673 0.36585 0.70108 0.0
C692 C 0.12425 0.38217 0.6977 0.0
C693 C 0.20084 0.38282 0.68701 0.0
C694 C 0.18695 0.39927 0.67828 0.0
C695 C 0.13385 0.41495 0.67357 0.0
C696 C 0.09487 0.41412 0.67769 0.0
C697 C 0.14857 0.399 0.68326 0.0
C698 C 0.07122 0.3974 0.69243 0.0
C699 C 0.08579 0.38171 0.70245 0.0
H700 H 0.22904 0.761 0.36782 0.0
H701 H 0.29629 0.73878 0.30742 0.0
H702 H 0.24905 0.7034 0.30565 0.0
H703 H 0.18598 0.67965 0.31844 0.0
H704 H 0.1184 0.70151 0.3787 0.0
H705 H 0.16863 0.73595 0.38365 0.0
C706 C 0.23356 0.74835 0.35448 0.0
C707 C 0.26593 0.75267 0.33754 0.0
C708 C 0.20615 0.72796 0.35347 0.0
C709 C 0.27153 0.73601 0.32056 0.0
C710 C 0.24447 0.71573 0.31947 0.0
C711 C 0.18248 0.69191 0.33281 0.0
C712 C 0.14849 0.68816 0.34801 0.0
C713 C 0.21127 0.71168 0.33538 0.0
C714 C 0.14445 0.70401 0.36686 0.0
C715 C 0.17302 0.72376 0.36955 0.0
H716 H 0.80357 0.80904 0.62213 0.0
H717 H 0.68446 0.80933 0.62453 0.0
H718 H 0.70189 0.8439 0.60369 0.0
H719 H 0.75093 0.87453 0.58593 0.0
H720 H 0.86951 0.8733 0.58095 0.0
H721 H 0.85234 0.83907 0.60245 0.0
C722 C 0.78136 0.81658 0.61793 0.0
C723 C 0.74277 0.80653 0.62493 0.0
C724 C 0.79153 0.83653 0.6059 0.0
C725 C 0.71441 0.81659 0.61931 0.0
C726 C 0.72435 0.83646 0.6075 0.0
C727 C 0.77306 0.86674 0.58923 0.0
C728 C 0.81156 0.87676 0.58188 0.0
C729 C 0.76284 0.84664 0.60087 0.0
C730 C 0.83978 0.8664 0.58688 0.0
C731 C 0.82993 0.8466 0.59891 0.0
H732 H 0.72776 0.342 0.2516 0.0
H733 H 0.77428 0.31348 0.18487 0.0
H734 H 0.73502 0.32651 0.15493 0.0
H735 H 0.68654 0.34547 0.14772 0.0
H736 H 0.63876 0.37291 0.21477 0.0
H737 H 0.6799 0.36113 0.2444 0.0
C738 C 0.72945 0.33868 0.23051 0.0
C739 C 0.75388 0.32673 0.22055 0.0
C740 C 0.70665 0.34611 0.21339 0.0
C741 C 0.75567 0.3226 0.19312 0.0
C742 C 0.73321 0.33004 0.17595 0.0
C743 C 0.68501 0.34879 0.16882 0.0
C744 C 0.65967 0.36015 0.17892 0.0
C745 C 0.70839 0.34169 0.18588 0.0
C746 C 0.65845 0.36454 0.20634 0.0
C747 C 0.68176 0.35766 0.22337 0.0
H748 H 0.29162 0.27144 0.65502 0.0
H749 H 0.40311 0.31834 0.64783 0.0
H750 H 0.42728 0.29202 0.62245 0.0
H751 H 0.41743 0.25565 0.60297 0.0
H752 H 0.30668 0.20831 0.61024 0.0
H753 H 0.28148 0.23489 0.63476 0.0
C754 C 0.32112 0.27595 0.64774 0.0
C755 C 0.34551 0.29685 0.6534 0.0
C756 C 0.33504 0.26064 0.63328 0.0
C757 C 0.38369 0.30238 0.64386 0.0
C758 C 0.39761 0.28732 0.62936 0.0
C759 C 0.38789 0.25106 0.61019 0.0
C760 C 0.36409 0.22997 0.60505 0.0
C761 C 0.37369 0.26637 0.6242 0.0
C762 C 0.32558 0.22445 0.61393 0.0
C763 C 0.3112 0.23963 0.62798 0.0
H764 H 0.36579 0.84511 0.25551 0.0
H765 H 0.47139 0.86311 0.30009 0.0
H766 H 0.50895 0.86864 0.2592 0.0
H767 H 0.51182 0.86494 0.21102 0.0
H768 H 0.40652 0.84726 0.16618 0.0
H769 H 0.36884 0.84483 0.20706 0.0
C770 C 0.39702 0.85049 0.25633 0.0
C771 C 0.41569 0.85345 0.28087 0.0
C772 C 0.41851 0.85345 0.23271 0.0
C773 C 0.4562 0.86059 0.28151 0.0
C774 C 0.47775 0.8637 0.25811 0.0
C775 C 0.48067 0.86107 0.21007 0.0
C776 C 0.46208 0.85614 0.1855 0.0
C777 C 0.45921 0.8597 0.23362 0.0
C778 C 0.4216 0.85078 0.18481 0.0
C779 C 0.40003 0.84947 0.20818 0.0
H780 H 0.93021 0.19647 0.36585 0.0
H781 H 0.80825 0.18893 0.35997 0.0
H782 H 0.7954 0.16512 0.39696 0.0
H783 H 0.81875 0.14685 0.4314 0.0
H784 H 0.94057 0.15432 0.43743 0.0
H785 H 0.95352 0.17786 0.40006 0.0
C786 C 0.90081 0.18962 0.37264 0.0
C787 C 0.87027 0.19451 0.36013 0.0
C788 C 0.89359 0.17595 0.39398 0.0
C789 C 0.83234 0.18548 0.36922 0.0
C790 C 0.82493 0.17184 0.39038 0.0
C791 C 0.84809 0.15342 0.42433 0.0
C792 C 0.87864 0.14879 0.43714 0.0
C793 C 0.85532 0.16697 0.40291 0.0
C794 C 0.91658 0.15778 0.42805 0.0
C795 C 0.92398 0.17118 0.40664 0.0
H796 H 0.32874 0.37625 0.78578 0.0
H797 H 0.28472 0.30997 0.80674 0.0
H798 H 0.328 0.31704 0.84455 0.0
H799 H 0.38405 0.34084 0.86765 0.0
H800 H 0.42419 0.40806 0.84923 0.0
H801 H 0.37685 0.4017 0.81423 0.0
C802 C 0.32816 0.36349 0.79897 0.0
C803 C 0.30405 0.34259 0.79338 0.0
C804 C 0.35286 0.36771 0.82077 0.0
C805 C 0.30307 0.32621 0.81071 0.0
C806 C 0.32801 0.33021 0.8322 0.0
C807 C 0.38192 0.35434 0.85664 0.0
C808 C 0.40879 0.3748 0.86075 0.0
C809 C 0.35387 0.35075 0.83692 0.0
C810 C 0.40515 0.39192 0.84595 0.0
C811 C 0.37779 0.38837 0.826 0.0
H812 H 0.34126 0.89818 0.42141 0.0
H813 H 0.45995 0.89829 0.42767 0.0
H814 H 0.47276 0.92996 0.45792 0.0
H815 H 0.45015 0.95723 0.48304 0.0
H816 H 0.3302 0.95544 0.47948 0.0
H817 H 0.3184 0.92526 0.44717 0.0
C818 C 0.36996 0.90519 0.42932 0.0
C819 C 0.39958 0.89587 0.42231 0.0
C820 C 0.37701 0.92321 0.44705 0.0
C821 C 0.43657 0.90507 0.43285 0.0
C822 C 0.44396 0.92322 0.4501 0.0
C823 C 0.42128 0.95016 0.47546 0.0
C824 C 0.39119 0.95874 0.48384 0.0
C825 C 0.41433 0.93232 0.45749 0.0
C826 C 0.3542 0.94954 0.47318 0.0
C827 C 0.34726 0.93208 0.45484 0.0
H828 H 0.62834 0.75003 0.76189 0.0
H829 H 0.7031 0.81408 0.74987 0.0
H830 H 0.6775 0.8276 0.78965 0.0
H831 H 0.63004 0.82214 0.82511 0.0
H832 H 0.55698 0.75808 0.83935 0.0
H833 H 0.58542 0.74381 0.80109 0.0
C834 C 0.63932 0.76689 0.76816 0.0
C835 C 0.66726 0.78104 0.7527 0.0
C836 C 0.62445 0.77465 0.7912 0.0
C837 C 0.68146 0.80281 0.76125 0.0
C838 C 0.66676 0.81061 0.78399 0.0
C839 C 0.62091 0.80494 0.82049 0.0
C840 C 0.59106 0.79131 0.83517 0.0
C841 C 0.63772 0.79678 0.79878 0.0
C842 C 0.57928 0.76911 0.82818 0.0
C843 C 0.59571 0.76088 0.80636 0.0
loop_
_geom_bond_atom_site_label_1
_geom_bond_atom_site_label_2
_geom_bond_distance
_geom_bond_site_symmetry_2
_ccdc_geom_bond_type
O0 Cd1 2.300 . S
O0 C7 1.275 . S
Cd1 O0 2.300 . S
Cd1 O9 2.381 . S
Cd1 O10 2.378 . S
O2 Cd3 2.385 . S
O2 C7 1.255 . S
Cd3 O2 2.385 . S
Cd3 O4 2.317 . S
O4 Cd3 2.317 . S
O4 C5 1.232 . S
C5 O4 1.232 . S
C5 O6 1.218 . S
O6 C5 1.218 . S
C7 O0 1.275 . S
C7 O2 1.255 . S
C8 O9 1.258 . S
C8 O10 1.256 . S
O9 Cd1 2.381 . S
O9 C8 1.258 . S
O10 Cd1 2.378 . S
O10 C8 1.256 . S
O11 Cd12 2.300 . S
O11 C18 1.275 . S
Cd12 O11 2.300 . S
Cd12 O20 2.381 . S
Cd12 O21 2.378 . S
O13 Cd14 2.385 . S
O13 C18 1.255 . S
Cd14 O13 2.385 . S
Cd14 O15 2.317 . S
O15 Cd14 2.317 . S
O15 C16 1.232 . S
C16 O15 1.232 . S
C16 O17 1.218 . S
O17 C16 1.218 . S
C18 O11 1.275 . S
C18 O13 1.255 . S
C19 O20 1.258 . S
C19 O21 1.256 . S
O20 Cd12 2.381 . S
O20 C19 1.258 . S
O21 Cd12 2.378 . S
O21 C19 1.256 . S
O22 Cd23 2.300 . S
O22 C29 1.275 . S
Cd23 O22 2.300 . S
Cd23 O31 2.381 . S
Cd23 O32 2.378 . S
O24 Cd25 2.385 . S
O24 C29 1.255 . S
Cd25 O24 2.385 . S
Cd25 O26 2.317 . S
O26 Cd25 2.317 . S
O26 C27 1.232 . S
C27 O26 1.232 . S
C27 O28 1.218 . S
O28 C27 1.218 . S
C29 O22 1.275 . S
C29 O24 1.255 . S
C30 O31 1.258 . S
C30 O32 1.256 . S
O31 Cd23 2.381 . S
O31 C30 1.258 . S
O32 Cd23 2.378 . S
O32 C30 1.256 . S
O33 Cd34 2.300 . S
O33 C40 1.275 . S
Cd34 O33 2.300 . S
Cd34 O42 2.381 . S
Cd34 O43 2.378 . S
O35 Cd36 2.385 . S
O35 C40 1.255 . S
Cd36 O35 2.385 . S
Cd36 O37 2.317 . S
O37 Cd36 2.317 . S
O37 C38 1.232 . S
C38 O37 1.232 . S
C38 O39 1.218 . S
O39 C38 1.218 . S
C40 O33 1.275 . S
C40 O35 1.255 . S
C41 O42 1.258 . S
C41 O43 1.256 . S
O42 Cd34 2.381 . S
O42 C41 1.258 . S
O43 Cd34 2.378 . S
O43 C41 1.256 . S
O44 Cd45 2.300 . S
O44 C51 1.275 . S
Cd45 O44 2.300 . S
Cd45 O53 2.381 . S
Cd45 O54 2.378 . S
O46 Cd47 2.385 . S
O46 C51 1.255 . S
Cd47 O46 2.385 . S
Cd47 O48 2.317 . S
O48 Cd47 2.317 . S
O48 C49 1.232 . S
C49 O48 1.232 . S
C49 O50 1.218 . S
O50 C49 1.218 . S
C51 O44 1.275 . S
C51 O46 1.255 . S
C52 O53 1.258 . S
C52 O54 1.256 . S
O53 Cd45 2.381 . S
O53 C52 1.258 . S
O54 Cd45 2.378 . S
O54 C52 1.256 . S
O55 Cd56 2.300 . S
O55 C62 1.275 . S
Cd56 O55 2.300 . S
Cd56 O64 2.381 . S
Cd56 O65 2.378 . S
O57 Cd58 2.385 . S
O57 C62 1.255 . S
Cd58 O57 2.385 . S
Cd58 O59 2.317 . S
O59 Cd58 2.317 . S
O59 C60 1.232 . S
C60 O59 1.232 . S
C60 O61 1.218 . S
O61 C60 1.218 . S
C62 O55 1.275 . S
C62 O57 1.255 . S
C63 O64 1.258 . S
C63 O65 1.256 . S
O64 Cd56 2.381 . S
O64 C63 1.258 . S
O65 Cd56 2.378 . S
O65 C63 1.256 . S
O66 Cd67 2.300 . S
O66 C73 1.275 . S
Cd67 O66 2.300 . S
Cd67 O75 2.381 . S
Cd67 O76 2.378 . S
O68 Cd69 2.385 . S
O68 C73 1.255 . S
Cd69 O68 2.385 . S
Cd69 O70 2.317 . S
O70 Cd69 2.317 . S
O70 C71 1.232 . S
C71 O70 1.232 . S
C71 O72 1.218 . S
O72 C71 1.218 . S
C73 O66 1.275 . S
C73 O68 1.255 . S
C74 O75 1.258 . S
C74 O76 1.256 . S
O75 Cd67 2.381 . S
O75 C74 1.258 . S
O76 Cd67 2.378 . S
O76 C74 1.256 . S
O77 Cd78 2.300 . S
O77 C84 1.275 . S
Cd78 O77 2.300 . S
Cd78 O86 2.381 . S
Cd78 O87 2.378 . S
O79 Cd80 2.385 . S
O79 C84 1.255 . S
Cd80 O79 2.385 . S
Cd80 O81 2.317 . S
O81 Cd80 2.317 . S
O81 C82 1.232 . S
C82 O81 1.232 . S
C82 O83 1.218 . S
O83 C82 1.218 . S
C84 O77 1.275 . S
C84 O79 1.255 . S
C85 O86 1.258 . S
C85 O87 1.256 . S
O86 Cd78 2.381 . S
O86 C85 1.258 . S
O87 Cd78 2.378 . S
O87 C85 1.256 . S
H88 C115 0.929 . S
N89 C114 1.433 . S
N89 C120 1.435 . S
N89 C126 1.423 . S
H90 C116 0.930 . S
H91 C119 0.931 1_455 S
H92 C118 0.929 . S
H93 C121 0.930 . S
H94 C122 0.932 . S
H95 C125 0.929 . S
H96 C124 0.931 . S
H97 C127 0.929 . S
H98 C131 0.932 . S
H99 C128 0.931 . S
H100 C130 0.929 . S
H101 C133 0.929 . S
H102 C134 0.930 . S
H103 C136 0.929 . S
H104 C137 0.931 1_455 S
H105 C139 0.930 . S
H106 C140 0.932 . S
H107 C142 0.931 . S
H108 C143 0.929 . S
H109 C145 0.929 . S
H110 C146 0.931 . S
H111 C148 0.929 . S
N112 C132 1.433 . S
N112 C138 1.435 . S
N112 C144 1.423 . S
H113 C149 0.932 . S
C114 N89 1.433 . S
C114 C115 1.363 . S
C114 C119 1.370 1_455 S
C115 H88 0.929 . S
C115 C114 1.363 . S
C115 C116 1.385 1_455 S
C116 H90 0.930 . S
C116 C115 1.385 1_655 S
C116 C117 1.357 . S
C117 C116 1.357 . S
C117 C118 1.406 . S
C118 H92 0.929 . S
C118 C117 1.406 . S
C118 C119 1.391 . S
C119 H91 0.931 1_655 S
C119 C114 1.370 1_655 S
C119 C118 1.391 . S
C120 N89 1.435 . S
C120 C121 1.358 . S
C120 C125 1.371 . S
C121 H93 0.930 . S
C121 C120 1.358 . S
C121 C122 1.405 . S
C122 H94 0.932 . S
C122 C121 1.405 . S
C122 C123 1.383 . S
C123 C122 1.383 . S
C123 C124 1.393 . S
C124 H96 0.931 . S
C124 C123 1.393 . S
C124 C125 1.382 . S
C125 H95 0.929 . S
C125 C120 1.371 . S
C125 C124 1.382 . S
C126 N89 1.423 . S
C126 C127 1.362 . S
C126 C131 1.388 . S
C127 H97 0.929 . S
C127 C126 1.362 . S
C127 C128 1.376 . S
C128 H99 0.931 . S
C128 C127 1.376 . S
C128 C129 1.396 . S
C129 C128 1.396 . S
C129 C130 1.348 . S
C129 C147 1.472 . S
C130 H100 0.929 . S
C130 C129 1.348 . S
C130 C131 1.443 . S
C131 H98 0.932 . S
C131 C126 1.388 . S
C131 C130 1.443 . S
C132 N112 1.433 . S
C132 C133 1.363 . S
C132 C137 1.370 1_455 S
C133 H101 0.929 . S
C133 C132 1.363 . S
C133 C134 1.385 1_455 S
C134 H102 0.930 . S
C134 C133 1.385 1_655 S
C134 C135 1.357 . S
C135 C134 1.357 . S
C135 C136 1.406 . S
C136 H103 0.929 . S
C136 C135 1.406 . S
C136 C137 1.391 . S
C137 H104 0.931 1_655 S
C137 C132 1.370 1_655 S
C137 C136 1.391 . S
C138 N112 1.435 . S
C138 C139 1.358 . S
C138 C143 1.371 . S
C139 H105 0.930 . S
C139 C138 1.358 . S
C139 C140 1.405 . S
C140 H106 0.932 . S
C140 C139 1.405 . S
C140 C141 1.383 . S
C141 C140 1.383 . S
C141 C142 1.393 . S
C142 H107 0.931 . S
C142 C141 1.393 . S
C142 C143 1.382 . S
C143 H108 0.929 . S
C143 C138 1.371 . S
C143 C142 1.382 . S
C144 N112 1.423 . S
C144 C145 1.362 . S
C144 C149 1.388 . S
C145 H109 0.929 . S
C145 C144 1.362 . S
C145 C146 1.376 . S
C146 H110 0.931 . S
C146 C145 1.376 . S
C146 C147 1.396 . S
C147 C129 1.472 . S
C147 C146 1.396 . S
C147 C148 1.348 . S
C148 H111 0.929 . S
C148 C147 1.348 . S
C148 C149 1.443 . S
C149 H113 0.932 . S
C149 C144 1.388 . S
C149 C148 1.443 . S
H150 C177 0.929 . S
N151 C176 1.433 1_455 S
N151 C182 1.435 . S
N151 C188 1.423 . S
H152 C178 0.930 . S
H153 C181 0.931 . S
H154 C180 0.929 . S
H155 C183 0.930 . S
H156 C184 0.932 . S
H157 C187 0.929 . S
H158 C186 0.931 . S
H159 C189 0.929 . S
H160 C193 0.932 . S
H161 C190 0.931 . S
H162 C192 0.929 . S
H163 C195 0.929 . S
H164 C196 0.930 . S
H165 C198 0.929 . S
H166 C199 0.931 . S
H167 C201 0.930 . S
H168 C202 0.932 . S
H169 C204 0.931 . S
H170 C205 0.929 . S
H171 C207 0.929 . S
H172 C208 0.931 . S
H173 C210 0.929 . S
N174 C194 1.433 1_455 S
N174 C200 1.435 . S
N174 C206 1.423 . S
H175 C211 0.932 . S
C176 N151 1.433 1_655 S
C176 C177 1.363 . S
C176 C181 1.370 . S
C177 H150 0.929 . S
C177 C176 1.363 . S
C177 C178 1.385 . S
C178 H152 0.930 . S
C178 C177 1.385 . S
C178 C179 1.357 . S
C179 C178 1.357 . S
C179 C180 1.406 . S
C180 H154 0.929 . S
C180 C179 1.406 . S
C180 C181 1.391 . S
C181 H153 0.931 . S
C181 C176 1.370 . S
C181 C180 1.391 . S
C182 N151 1.435 . S
C182 C183 1.358 . S
C182 C187 1.371 . S
C183 H155 0.930 . S
C183 C182 1.358 . S
C183 C184 1.405 . S
C184 H156 0.932 . S
C184 C183 1.405 . S
C184 C185 1.383 . S
C185 C184 1.383 . S
C185 C186 1.393 . S
C186 H158 0.931 . S
C186 C185 1.393 . S
C186 C187 1.382 . S
C187 H157 0.929 . S
C187 C182 1.371 . S
C187 C186 1.382 . S
C188 N151 1.423 . S
C188 C189 1.362 1_455 S
C188 C193 1.388 . S
C189 H159 0.929 . S
C189 C188 1.362 1_655 S
C189 C190 1.376 . S
C190 H161 0.931 . S
C190 C189 1.376 . S
C190 C191 1.396 1_655 S
C191 C190 1.396 1_455 S
C191 C192 1.348 . S
C191 C209 1.472 . S
C192 H162 0.929 . S
C192 C191 1.348 . S
C192 C193 1.443 . S
C193 H160 0.932 . S
C193 C188 1.388 . S
C193 C192 1.443 . S
C194 N174 1.433 1_655 S
C194 C195 1.363 . S
C194 C199 1.370 . S
C195 H163 0.929 . S
C195 C194 1.363 . S
C195 C196 1.385 . S
C196 H164 0.930 . S
C196 C195 1.385 . S
C196 C197 1.357 . S
C197 C196 1.357 . S
C197 C198 1.406 . S
C198 H165 0.929 . S
C198 C197 1.406 . S
C198 C199 1.391 . S
C199 H166 0.931 . S
C199 C194 1.370 . S
C199 C198 1.391 . S
C200 N174 1.435 . S
C200 C201 1.358 . S
C200 C205 1.371 . S
C201 H167 0.930 . S
C201 C200 1.358 . S
C201 C202 1.405 . S
C202 H168 0.932 . S
C202 C201 1.405 . S
C202 C203 1.383 . S
C203 C202 1.383 . S
C203 C204 1.393 . S
C204 H169 0.931 . S
C204 C203 1.393 . S
C204 C205 1.382 . S
C205 H170 0.929 . S
C205 C200 1.371 . S
C205 C204 1.382 . S
C206 N174 1.423 . S
C206 C207 1.362 1_455 S
C206 C211 1.388 . S
C207 H171 0.929 . S
C207 C206 1.362 1_655 S
C207 C208 1.376 . S
C208 H172 0.931 . S
C208 C207 1.376 . S
C208 C209 1.396 1_655 S
C209 C191 1.472 . S
C209 C208 1.396 1_455 S
C209 C210 1.348 . S
C210 H173 0.929 . S
C210 C209 1.348 . S
C210 C211 1.443 . S
C211 H175 0.932 . S
C211 C206 1.388 . S
C211 C210 1.443 . S
H212 C239 0.929 . S
N213 C238 1.433 . S
N213 C244 1.435 . S
N213 C250 1.423 . S
H214 C240 0.930 . S
H215 C243 0.931 . S
H216 C242 0.929 . S
H217 C245 0.930 . S
H218 C246 0.932 . S
H219 C249 0.929 . S
H220 C248 0.931 . S
H221 C251 0.929 . S
H222 C255 0.932 . S
H223 C252 0.931 . S
H224 C254 0.929 . S
H225 C257 0.929 1_565 S
H226 C258 0.930 . S
H227 C260 0.929 . S
H228 C261 0.931 . S
H229 C263 0.930 . S
H230 C264 0.932 . S
H231 C266 0.931 . S
H232 C267 0.929 . S
H233 C269 0.929 . S
H234 C270 0.931 . S
H235 C272 0.929 . S
N236 C256 1.433 . S
N236 C262 1.435 . S
N236 C268 1.423 . S
H237 C273 0.932 . S
C238 N213 1.433 . S
C238 C239 1.363 . S
C238 C243 1.370 . S
C239 H212 0.929 . S
C239 C238 1.363 . S
C239 C240 1.385 . S
C240 H214 0.930 . S
C240 C239 1.385 . S
C240 C241 1.357 . S
C241 C240 1.357 . S
C241 C242 1.406 . S
C242 H216 0.929 . S
C242 C241 1.406 . S
C242 C243 1.391 . S
C243 H215 0.931 . S
C243 C238 1.370 . S
C243 C242 1.391 . S
C244 N213 1.435 . S
C244 C245 1.358 . S
C244 C249 1.371 . S
C245 H217 0.930 . S
C245 C244 1.358 . S
C245 C246 1.405 . S
C246 H218 0.932 . S
C246 C245 1.405 . S
C246 C247 1.383 . S
C247 C246 1.383 . S
C247 C248 1.393 . S
C248 H220 0.931 . S
C248 C247 1.393 . S
C248 C249 1.382 . S
C249 H219 0.929 . S
C249 C244 1.371 . S
C249 C248 1.382 . S
C250 N213 1.423 . S
C250 C251 1.362 . S
C250 C255 1.388 . S
C251 H221 0.929 . S
C251 C250 1.362 . S
C251 C252 1.376 . S
C252 H223 0.931 . S
C252 C251 1.376 . S
C252 C253 1.396 . S
C253 C252 1.396 . S
C253 C254 1.348 . S
C253 C271 1.472 . S
C254 H224 0.929 . S
C254 C253 1.348 . S
C254 C255 1.443 . S
C255 H222 0.932 . S
C255 C250 1.388 . S
C255 C254 1.443 . S
C256 N236 1.433 . S
C256 C257 1.363 . S
C256 C261 1.370 . S
C257 H225 0.929 1_545 S
C257 C256 1.363 . S
C257 C258 1.385 1_545 S
C258 H226 0.930 . S
C258 C257 1.385 1_565 S
C258 C259 1.357 1_565 S
C259 C258 1.357 1_545 S
C259 C260 1.406 . S
C260 H227 0.929 . S
C260 C259 1.406 . S
C260 C261 1.391 . S
C261 H228 0.931 . S
C261 C256 1.370 . S
C261 C260 1.391 . S
C262 N236 1.435 . S
C262 C263 1.358 . S
C262 C267 1.371 . S
C263 H229 0.930 . S
C263 C262 1.358 . S
C263 C264 1.405 1_545 S
C264 H230 0.932 . S
C264 C263 1.405 1_565 S
C264 C265 1.383 . S
C265 C264 1.383 . S
C265 C266 1.393 1_565 S
C266 H231 0.931 . S
C266 C265 1.393 1_545 S
C266 C267 1.382 . S
C267 H232 0.929 . S
C267 C262 1.371 . S
C267 C266 1.382 . S
C268 N236 1.423 . S
C268 C269 1.362 . S
C268 C273 1.388 . S
C269 H233 0.929 . S
C269 C268 1.362 . S
C269 C270 1.376 . S
C270 H234 0.931 . S
C270 C269 1.376 . S
C270 C271 1.396 . S
C271 C253 1.472 . S
C271 C270 1.396 . S
C271 C272 1.348 . S
C272 H235 0.929 . S
C272 C271 1.348 . S
C272 C273 1.443 . S
C273 H237 0.932 . S
C273 C268 1.388 . S
C273 C272 1.443 . S
H274 C301 0.929 . S
N275 C300 1.433 . S
N275 C306 1.435 . S
N275 C312 1.423 . S
H276 C302 0.930 . S
H277 C305 0.931 . S
H278 C304 0.929 . S
H279 C307 0.930 . S
H280 C308 0.932 . S
H281 C311 0.929 . S
H282 C310 0.931 . S
H283 C313 0.929 . S
H284 C317 0.932 . S
H285 C314 0.931 . S
H286 C316 0.929 . S
H287 C319 0.929 . S
H288 C320 0.930 . S
H289 C322 0.929 . S
H290 C323 0.931 . S
H291 C325 0.930 . S
H292 C326 0.932 . S
H293 C328 0.931 . S
H294 C329 0.929 . S
H295 C331 0.929 . S
H296 C332 0.931 . S
H297 C334 0.954 . S
N298 C318 1.433 . S
N298 C324 1.435 . S
N298 C330 1.423 . S
H299 C335 0.932 . S
C300 N275 1.433 . S
C300 C301 1.363 . S
C300 C305 1.370 . S
C301 H274 0.929 . S
C301 C300 1.363 . S
C301 C302 1.385 . S
C302 H276 0.930 . S
C302 C301 1.385 . S
C302 C303 1.357 . S
C303 C302 1.357 . S
C303 C304 1.406 . S
C304 H278 0.929 . S
C304 C303 1.406 . S
C304 C305 1.391 . S
C305 H277 0.931 . S
C305 C300 1.370 . S
C305 C304 1.391 . S
C306 N275 1.435 . S
C306 C307 1.358 . S
C306 C311 1.371 . S
C307 H279 0.930 . S
C307 C306 1.358 . S
C307 C308 1.405 . S
C308 H280 0.932 . S
C308 C307 1.405 . S
C308 C309 1.383 . S
C309 C308 1.383 . S
C309 C310 1.393 . S
C310 H282 0.931 . S
C310 C309 1.393 . S
C310 C311 1.382 . S
C311 H281 0.929 . S
C311 C306 1.371 . S
C311 C310 1.382 . S
C312 N275 1.423 . S
C312 C313 1.362 . S
C312 C317 1.388 . S
C313 H283 0.929 . S
C313 C312 1.362 . S
C313 C314 1.376 . S
C314 H285 0.931 . S
C314 C313 1.376 . S
C314 C315 1.396 . S
C315 C314 1.396 . S
C315 C316 1.348 . S
C315 C333 1.474 1_554 S
C316 H286 0.929 . S
C316 C315 1.348 . S
C316 C317 1.443 . S
C317 H284 0.932 . S
C317 C312 1.388 . S
C317 C316 1.443 . S
C318 N298 1.433 . S
C318 C319 1.363 . S
C318 C323 1.370 . S
C319 H287 0.929 . S
C319 C318 1.363 . S
C319 C320 1.385 . S
C320 H288 0.930 . S
C320 C319 1.385 . S
C320 C321 1.357 . S
C321 C320 1.357 . S
C321 C322 1.406 . S
C322 H289 0.929 . S
C322 C321 1.406 . S
C322 C323 1.391 . S
C323 H290 0.931 . S
C323 C318 1.370 . S
C323 C322 1.391 . S
C324 N298 1.435 . S
C324 C325 1.358 . S
C324 C329 1.371 . S
C325 H291 0.930 . S
C325 C324 1.358 . S
C325 C326 1.405 . S
C326 H292 0.932 . S
C326 C325 1.405 . S
C326 C327 1.383 . S
C327 C326 1.383 . S
C327 C328 1.393 . S
C328 H293 0.931 . S
C328 C327 1.393 . S
C328 C329 1.382 . S
C329 H294 0.929 . S
C329 C324 1.371 . S
C329 C328 1.382 . S
C330 N298 1.423 . S
C330 C331 1.362 . S
C330 C335 1.388 . S
C331 H295 0.929 . S
C331 C330 1.362 . S
C331 C332 1.376 . S
C332 H296 0.931 . S
C332 C331 1.376 . S
C332 C333 1.395 . S
C333 C315 1.474 1_556 S
C333 C332 1.395 . S
C333 C334 1.347 . S
C334 H297 0.954 . S
C334 C333 1.347 . S
C334 C335 1.443 . S
C335 H299 0.932 . S
C335 C330 1.388 . S
C335 C334 1.443 . S
H336 C363 0.929 . S
N337 C362 1.433 . S
N337 C368 1.435 . S
N337 C374 1.423 . S
H338 C364 0.930 . S
H339 C367 0.931 . S
H340 C366 0.929 . S
H341 C369 0.930 . S
H342 C370 0.932 . S
H343 C373 0.929 . S
H344 C372 0.931 . S
H345 C375 0.929 . S
H346 C379 0.932 . S
H347 C376 0.931 . S
H348 C378 0.929 . S
H349 C381 0.929 . S
H350 C382 0.930 . S
H351 C384 0.929 . S
H352 C385 0.931 . S
H353 C387 0.930 . S
H354 C388 0.932 . S
H355 C390 0.931 . S
H356 C391 0.929 . S
H357 C393 0.929 . S
H358 C394 0.931 . S
H359 C396 0.929 1_545 S
N360 C380 1.433 . S
N360 C386 1.435 . S
N360 C392 1.423 . S
H361 C397 0.932 . S
C362 N337 1.433 . S
C362 C363 1.363 . S
C362 C367 1.370 . S
C363 H336 0.929 . S
C363 C362 1.363 . S
C363 C364 1.385 . S
C364 H338 0.930 . S
C364 C363 1.385 . S
C364 C365 1.357 . S
C365 C364 1.357 . S
C365 C366 1.406 . S
C366 H340 0.929 . S
C366 C365 1.406 . S
C366 C367 1.391 . S
C367 H339 0.931 . S
C367 C362 1.370 . S
C367 C366 1.391 . S
C368 N337 1.435 . S
C368 C369 1.358 . S
C368 C373 1.371 . S
C369 H341 0.930 . S
C369 C368 1.358 . S
C369 C370 1.405 . S
C370 H342 0.932 . S
C370 C369 1.405 . S
C370 C371 1.383 . S
C371 C370 1.383 . S
C371 C372 1.393 . S
C372 H344 0.931 . S
C372 C371 1.393 . S
C372 C373 1.382 . S
C373 H343 0.929 . S
C373 C368 1.371 . S
C373 C372 1.382 . S
C374 N337 1.423 . S
C374 C375 1.362 . S
C374 C379 1.388 . S
C375 H345 0.929 . S
C375 C374 1.362 . S
C375 C376 1.376 . S
C376 H347 0.931 . S
C376 C375 1.376 . S
C376 C377 1.396 . S
C377 C376 1.396 . S
C377 C378 1.348 . S
C377 C395 1.472 . S
C378 H348 0.929 . S
C378 C377 1.348 . S
C378 C379 1.443 . S
C379 H346 0.932 . S
C379 C374 1.388 . S
C379 C378 1.443 . S
C380 N360 1.433 . S
C380 C381 1.363 . S
C380 C385 1.370 . S
C381 H349 0.929 . S
C381 C380 1.363 . S
C381 C382 1.385 . S
C382 H350 0.930 . S
C382 C381 1.385 . S
C382 C383 1.357 . S
C383 C382 1.357 . S
C383 C384 1.406 . S
C384 H351 0.929 . S
C384 C383 1.406 . S
C384 C385 1.391 . S
C385 H352 0.931 . S
C385 C380 1.370 . S
C385 C384 1.391 . S
C386 N360 1.435 . S
C386 C387 1.358 . S
C386 C391 1.371 . S
C387 H353 0.930 . S
C387 C386 1.358 . S
C387 C388 1.405 . S
C388 H354 0.932 . S
C388 C387 1.405 . S
C388 C389 1.383 . S
C389 C388 1.383 . S
C389 C390 1.393 . S
C390 H355 0.931 . S
C390 C389 1.393 . S
C390 C391 1.382 . S
C391 H356 0.929 . S
C391 C386 1.371 . S
C391 C390 1.382 . S
C392 N360 1.423 . S
C392 C393 1.362 . S
C392 C397 1.388 . S
C393 H357 0.929 . S
C393 C392 1.362 . S
C393 C394 1.376 . S
C394 H358 0.931 . S
C394 C393 1.376 . S
C394 C395 1.396 1_565 S
C395 C377 1.472 . S
C395 C394 1.396 1_545 S
C395 C396 1.348 1_545 S
C396 H359 0.929 1_565 S
C396 C395 1.348 1_565 S
C396 C397 1.443 . S
C397 H361 0.932 . S
C397 C392 1.388 . S
C397 C396 1.443 . S
H398 C425 0.929 . S
N399 C424 1.433 . S
N399 C430 1.435 . S
N399 C436 1.423 . S
H400 C426 0.930 . S
H401 C429 0.931 . S
H402 C428 0.929 . S
H403 C431 0.930 . S
H404 C432 0.932 . S
H405 C435 0.929 . S
H406 C434 0.931 . S
H407 C437 0.929 . S
H408 C441 0.932 . S
H409 C438 0.931 . S
H410 C440 0.929 . S
H411 C443 0.929 . S
H412 C444 0.930 . S
H413 C446 0.929 . S
H414 C447 0.931 . S
H415 C449 0.930 . S
H416 C450 0.932 . S
H417 C452 0.931 . S
H418 C453 0.929 . S
H419 C455 0.929 . S
H420 C456 0.931 . S
H421 C458 0.929 . S
N422 C442 1.433 . S
N422 C448 1.435 . S
N422 C454 1.423 . S
H423 C459 0.932 . S
C424 N399 1.433 . S
C424 C425 1.363 . S
C424 C429 1.370 . S
C425 H398 0.929 . S
C425 C424 1.363 . S
C425 C426 1.385 . S
C426 H400 0.930 . S
C426 C425 1.385 . S
C426 C427 1.357 . S
C427 C426 1.357 . S
C427 C428 1.406 . S
C428 H402 0.929 . S
C428 C427 1.406 . S
C428 C429 1.391 . S
C429 H401 0.931 . S
C429 C424 1.370 . S
C429 C428 1.391 . S
C430 N399 1.435 . S
C430 C431 1.358 . S
C430 C435 1.371 . S
C431 H403 0.930 . S
C431 C430 1.358 . S
C431 C432 1.405 . S
C432 H404 0.932 . S
C432 C431 1.405 . S
C432 C433 1.383 . S
C433 C432 1.383 . S
C433 C434 1.393 . S
C434 H406 0.931 . S
C434 C433 1.393 . S
C434 C435 1.382 . S
C435 H405 0.929 . S
C435 C430 1.371 . S
C435 C434 1.382 . S
C436 N399 1.423 . S
C436 C437 1.362 . S
C436 C441 1.388 . S
C437 H407 0.929 . S
C437 C436 1.362 . S
C437 C438 1.376 . S
C438 H409 0.931 . S
C438 C437 1.376 . S
C438 C439 1.396 . S
C439 C438 1.396 . S
C439 C440 1.348 . S
C439 C457 1.472 1_554 S
C440 H410 0.929 . S
C440 C439 1.348 . S
C440 C441 1.443 . S
C441 H408 0.932 . S
C441 C436 1.388 . S
C441 C440 1.443 . S
C442 N422 1.433 . S
C442 C443 1.363 . S
C442 C447 1.370 . S
C443 H411 0.929 . S
C443 C442 1.363 . S
C443 C444 1.385 . S
C444 H412 0.930 . S
C444 C443 1.385 . S
C444 C445 1.357 . S
C445 C444 1.357 . S
C445 C446 1.406 . S
C446 H413 0.929 . S
C446 C445 1.406 . S
C446 C447 1.391 . S
C447 H414 0.931 . S
C447 C442 1.370 . S
C447 C446 1.391 . S
C448 N422 1.435 . S
C448 C449 1.358 . S
C448 C453 1.371 . S
C449 H415 0.930 . S
C449 C448 1.358 . S
C449 C450 1.405 . S
C450 H416 0.932 . S
C450 C449 1.405 . S
C450 C451 1.383 . S
C451 C450 1.383 . S
C451 C452 1.393 . S
C452 H417 0.931 . S
C452 C451 1.393 . S
C452 C453 1.382 . S
C453 H418 0.929 . S
C453 C448 1.371 . S
C453 C452 1.382 . S
C454 N422 1.423 . S
C454 C455 1.362 . S
C454 C459 1.388 . S
C455 H419 0.929 . S
C455 C454 1.362 . S
C455 C456 1.376 . S
C456 H420 0.931 . S
C456 C455 1.376 . S
C456 C457 1.396 . S
C457 C439 1.472 1_556 S
C457 C456 1.396 . S
C457 C458 1.348 . S
C458 H421 0.929 . S
C458 C457 1.348 . S
C458 C459 1.443 . S
C459 H423 0.932 . S
C459 C454 1.388 . S
C459 C458 1.443 . S
H460 C466 0.930 . S
H461 C469 0.930 . S
H462 C470 0.930 . S
H463 C471 0.930 . S
H464 C474 0.930 . S
H465 C475 0.930 . S
C466 H460 0.930 . S
C466 C467 1.355 . S
C466 C468 1.415 . S
C467 C466 1.355 . S
C467 C469 1.419 . S
C468 C466 1.415 . S
C468 C473 1.425 . S
C468 C475 1.409 . S
C469 H461 0.930 . S
C469 C467 1.419 . S
C469 C470 1.362 . S
C470 H462 0.930 . S
C470 C469 1.362 . S
C470 C473 1.409 . S
C471 H463 0.930 . S
C471 C472 1.355 . S
C471 C473 1.415 . S
C472 C471 1.355 . S
C472 C474 1.419 . S
C473 C468 1.425 . S
C473 C470 1.409 . S
C473 C471 1.415 . S
C474 H464 0.930 . S
C474 C472 1.419 . S
C474 C475 1.362 . S
C475 H465 0.930 . S
C475 C468 1.409 . S
C475 C474 1.362 . S
H476 C482 0.930 . S
H477 C485 0.930 . S
H478 C486 0.930 . S
H479 C487 0.930 . S
H480 C490 0.930 . S
H481 C491 0.930 . S
C482 H476 0.930 . S
C482 C483 1.355 . S
C482 C484 1.415 . S
C483 C482 1.355 . S
C483 C485 1.419 . S
C484 C482 1.415 . S
C484 C489 1.425 . S
C484 C491 1.409 . S
C485 H477 0.930 . S
C485 C483 1.419 . S
C485 C486 1.362 . S
C486 H478 0.930 . S
C486 C485 1.362 . S
C486 C489 1.409 . S
C487 H479 0.930 . S
C487 C488 1.355 . S
C487 C489 1.415 . S
C488 C487 1.355 . S
C488 C490 1.419 . S
C489 C484 1.425 . S
C489 C486 1.409 . S
C489 C487 1.415 . S
C490 H480 0.930 . S
C490 C488 1.419 . S
C490 C491 1.362 . S
C491 H481 0.930 . S
C491 C484 1.409 . S
C491 C490 1.362 . S
H492 C498 0.930 . S
H493 C501 0.930 . S
H494 C502 0.930 . S
H495 C503 0.930 . S
H496 C506 0.930 . S
H497 C507 0.930 . S
C498 H492 0.930 . S
C498 C499 1.355 . S
C498 C500 1.415 . S
C499 C498 1.355 . S
C499 C501 1.419 . S
C500 C498 1.415 . S
C500 C505 1.425 . S
C500 C507 1.409 . S
C501 H493 0.930 . S
C501 C499 1.419 . S
C501 C502 1.362 . S
C502 H494 0.930 . S
C502 C501 1.362 . S
C502 C505 1.409 . S
C503 H495 0.930 . S
C503 C504 1.355 . S
C503 C505 1.415 . S
C504 C503 1.355 . S
C504 C506 1.419 . S
C505 C500 1.425 . S
C505 C502 1.409 . S
C505 C503 1.415 . S
C506 H496 0.930 . S
C506 C504 1.419 . S
C506 C507 1.362 . S
C507 H497 0.930 . S
C507 C500 1.409 . S
C507 C506 1.362 . S
H508 C514 0.930 . S
H509 C517 0.930 . S
H510 C518 0.930 . S
H511 C519 0.930 . S
H512 C522 0.930 . S
H513 C523 0.930 . S
C514 H508 0.930 . S
C514 C515 1.355 . S
C514 C516 1.415 . S
C515 C514 1.355 . S
C515 C517 1.419 . S
C516 C514 1.415 . S
C516 C521 1.425 . S
C516 C523 1.409 . S
C517 H509 0.930 . S
C517 C515 1.419 . S
C517 C518 1.362 . S
C518 H510 0.930 . S
C518 C517 1.362 . S
C518 C521 1.409 . S
C519 H511 0.930 . S
C519 C520 1.355 . S
C519 C521 1.415 . S
C520 C519 1.355 . S
C520 C522 1.419 . S
C521 C516 1.425 . S
C521 C518 1.409 . S
C521 C519 1.415 . S
C522 H512 0.930 . S
C522 C520 1.419 . S
C522 C523 1.362 . S
C523 H513 0.930 . S
C523 C516 1.409 . S
C523 C522 1.362 . S
H524 C530 0.930 . S
H525 C533 0.930 . S
H526 C534 0.930 . S
H527 C535 0.930 . S
H528 C538 0.930 . S
H529 C539 0.930 . S
C530 H524 0.930 . S
C530 C531 1.355 . S
C530 C532 1.415 . S
C531 C530 1.355 . S
C531 C533 1.419 . S
C532 C530 1.415 . S
C532 C537 1.425 . S
C532 C539 1.409 . S
C533 H525 0.930 . S
C533 C531 1.419 . S
C533 C534 1.362 . S
C534 H526 0.930 . S
C534 C533 1.362 . S
C534 C537 1.409 . S
C535 H527 0.930 . S
C535 C536 1.355 . S
C535 C537 1.415 . S
C536 C535 1.355 . S
C536 C538 1.419 . S
C537 C532 1.425 . S
C537 C534 1.409 . S
C537 C535 1.415 . S
C538 H528 0.930 . S
C538 C536 1.419 . S
C538 C539 1.362 . S
C539 H529 0.930 . S
C539 C532 1.409 . S
C539 C538 1.362 . S
H540 C546 0.930 . S
H541 C549 0.930 . S
H542 C550 0.930 . S
H543 C551 0.930 . S
H544 C554 0.930 . S
H545 C555 0.930 . S
C546 H540 0.930 . S
C546 C547 1.355 . S
C546 C548 1.415 . S
C547 C546 1.355 . S
C547 C549 1.419 . S
C548 C546 1.415 . S
C548 C553 1.425 . S
C548 C555 1.409 . S
C549 H541 0.930 . S
C549 C547 1.419 . S
C549 C550 1.362 . S
C550 H542 0.930 . S
C550 C549 1.362 . S
C550 C553 1.409 . S
C551 H543 0.930 . S
C551 C552 1.355 . S
C551 C553 1.415 . S
C552 C551 1.355 . S
C552 C554 1.419 . S
C553 C548 1.425 . S
C553 C550 1.409 . S
C553 C551 1.415 . S
C554 H544 0.930 . S
C554 C552 1.419 . S
C554 C555 1.362 . S
C555 H545 0.930 . S
C555 C548 1.409 . S
C555 C554 1.362 . S
H556 C562 0.930 . S
H557 C565 0.930 . S
H558 C566 0.930 . S
H559 C567 0.930 . S
H560 C570 0.930 . S
H561 C571 0.930 . S
C562 H556 0.930 . S
C562 C563 1.355 . S
C562 C564 1.415 . S
C563 C562 1.355 . S
C563 C565 1.419 . S
C564 C562 1.415 . S
C564 C569 1.425 . S
C564 C571 1.409 . S
C565 H557 0.930 . S
C565 C563 1.419 . S
C565 C566 1.362 . S
C566 H558 0.930 . S
C566 C565 1.362 . S
C566 C569 1.409 . S
C567 H559 0.930 . S
C567 C568 1.355 . S
C567 C569 1.415 . S
C568 C567 1.355 . S
C568 C570 1.419 . S
C569 C564 1.425 . S
C569 C566 1.409 . S
C569 C567 1.415 . S
C570 H560 0.930 . S
C570 C568 1.419 . S
C570 C571 1.362 . S
C571 H561 0.930 . S
C571 C564 1.409 . S
C571 C570 1.362 . S
H572 C578 0.930 . S
H573 C581 0.930 . S
H574 C582 0.930 . S
H575 C583 0.930 . S
H576 C586 0.930 . S
H577 C587 0.930 . S
C578 H572 0.930 . S
C578 C579 1.355 . S
C578 C580 1.415 . S
C579 C578 1.355 . S
C579 C581 1.419 . S
C580 C578 1.415 . S
C580 C585 1.425 . S
C580 C587 1.409 . S
C581 H573 0.930 . S
C581 C579 1.419 . S
C581 C582 1.362 . S
C582 H574 0.930 . S
C582 C581 1.362 . S
C582 C585 1.409 . S
C583 H575 0.930 . S
C583 C584 1.355 . S
C583 C585 1.415 . S
C584 C583 1.355 . S
C584 C586 1.419 . S
C585 C580 1.425 . S
C585 C582 1.409 . S
C585 C583 1.415 . S
C586 H576 0.930 . S
C586 C584 1.419 . S
C586 C587 1.362 . S
C587 H577 0.930 . S
C587 C580 1.409 . S
C587 C586 1.362 . S
H588 C594 0.930 . S
H589 C597 0.930 . S
H590 C598 0.930 . S
H591 C599 0.930 . S
H592 C602 0.930 . S
H593 C603 0.930 . S
C594 H588 0.930 . S
C594 C595 1.355 . S
C594 C596 1.415 . S
C595 C594 1.355 . S
C595 C597 1.419 . S
C596 C594 1.415 . S
C596 C601 1.425 . S
C596 C603 1.409 . S
C597 H589 0.930 . S
C597 C595 1.419 . S
C597 C598 1.362 . S
C598 H590 0.930 . S
C598 C597 1.362 . S
C598 C601 1.409 . S
C599 H591 0.930 . S
C599 C600 1.355 . S
C599 C601 1.415 . S
C600 C599 1.355 . S
C600 C602 1.419 . S
C601 C596 1.425 . S
C601 C598 1.409 . S
C601 C599 1.415 . S
C602 H592 0.930 . S
C602 C600 1.419 . S
C602 C603 1.362 . S
C603 H593 0.930 . S
C603 C596 1.409 . S
C603 C602 1.362 . S
H604 C610 0.930 . S
H605 C613 0.930 . S
H606 C614 0.930 . S
H607 C615 0.930 . S
H608 C618 0.930 . S
H609 C619 0.930 . S
C610 H604 0.930 . S
C610 C611 1.355 . S
C610 C612 1.415 . S
C611 C610 1.355 . S
C611 C613 1.419 . S
C612 C610 1.415 . S
C612 C617 1.425 . S
C612 C619 1.409 . S
C613 H605 0.930 . S
C613 C611 1.419 . S
C613 C614 1.362 . S
C614 H606 0.930 . S
C614 C613 1.362 . S
C614 C617 1.409 . S
C615 H607 0.930 . S
C615 C616 1.355 . S
C615 C617 1.415 . S
C616 C615 1.355 . S
C616 C618 1.419 . S
C617 C612 1.425 . S
C617 C614 1.409 . S
C617 C615 1.415 . S
C618 H608 0.930 . S
C618 C616 1.419 . S
C618 C619 1.362 . S
C619 H609 0.930 . S
C619 C612 1.409 . S
C619 C618 1.362 . S
H620 C626 0.930 . S
H621 C629 0.930 . S
H622 C630 0.930 . S
H623 C631 0.930 . S
H624 C634 0.930 . S
H625 C635 0.930 . S
C626 H620 0.930 . S
C626 C627 1.355 . S
C626 C628 1.415 . S
C627 C626 1.355 . S
C627 C629 1.419 . S
C628 C626 1.415 . S
C628 C633 1.425 . S
C628 C635 1.409 . S
C629 H621 0.930 . S
C629 C627 1.419 . S
C629 C630 1.362 . S
C630 H622 0.930 . S
C630 C629 1.362 . S
C630 C633 1.409 . S
C631 H623 0.930 . S
C631 C632 1.355 . S
C631 C633 1.415 . S
C632 C631 1.355 . S
C632 C634 1.419 . S
C633 C628 1.425 . S
C633 C630 1.409 . S
C633 C631 1.415 . S
C634 H624 0.930 . S
C634 C632 1.419 . S
C634 C635 1.362 . S
C635 H625 0.930 . S
C635 C628 1.409 . S
C635 C634 1.362 . S
H636 C642 0.930 . S
H637 C645 0.930 . S
H638 C646 0.930 . S
H639 C647 0.930 . S
H640 C650 0.930 . S
H641 C651 0.930 . S
C642 H636 0.930 . S
C642 C643 1.355 . S
C642 C644 1.415 . S
C643 C642 1.355 . S
C643 C645 1.419 . S
C644 C642 1.415 . S
C644 C649 1.425 . S
C644 C651 1.409 . S
C645 H637 0.930 . S
C645 C643 1.419 . S
C645 C646 1.362 . S
C646 H638 0.930 . S
C646 C645 1.362 . S
C646 C649 1.409 . S
C647 H639 0.930 . S
C647 C648 1.355 . S
C647 C649 1.415 . S
C648 C647 1.355 . S
C648 C650 1.419 . S
C649 C644 1.425 . S
C649 C646 1.409 . S
C649 C647 1.415 . S
C650 H640 0.930 . S
C650 C648 1.419 . S
C650 C651 1.362 . S
C651 H641 0.930 . S
C651 C644 1.409 . S
C651 C650 1.362 . S
H652 C658 0.930 . S
H653 C661 0.930 . S
H654 C662 0.930 . S
H655 C663 0.930 . S
H656 C666 0.930 . S
H657 C667 0.930 . S
C658 H652 0.930 . S
C658 C659 1.355 . S
C658 C660 1.415 . S
C659 C658 1.355 . S
C659 C661 1.419 . S
C660 C658 1.415 . S
C660 C665 1.425 . S
C660 C667 1.409 . S
C661 H653 0.930 . S
C661 C659 1.419 . S
C661 C662 1.362 . S
C662 H654 0.930 . S
C662 C661 1.362 . S
C662 C665 1.409 . S
C663 H655 0.930 . S
C663 C664 1.355 . S
C663 C665 1.415 . S
C664 C663 1.355 . S
C664 C666 1.419 . S
C665 C660 1.425 . S
C665 C662 1.409 . S
C665 C663 1.415 . S
C666 H656 0.930 . S
C666 C664 1.419 . S
C666 C667 1.362 . S
C667 H657 0.930 . S
C667 C660 1.409 . S
C667 C666 1.362 . S
H668 C674 0.930 . S
H669 C677 0.930 . S
H670 C678 0.930 . S
H671 C679 0.930 . S
H672 C682 0.930 . S
H673 C683 0.930 . S
C674 H668 0.930 . S
C674 C675 1.355 . S
C674 C676 1.415 . S
C675 C674 1.355 . S
C675 C677 1.419 . S
C676 C674 1.415 . S
C676 C681 1.425 . S
C676 C683 1.409 . S
C677 H669 0.930 . S
C677 C675 1.419 . S
C677 C678 1.362 . S
C678 H670 0.930 . S
C678 C677 1.362 . S
C678 C681 1.409 . S
C679 H671 0.930 . S
C679 C680 1.355 . S
C679 C681 1.415 . S
C680 C679 1.355 . S
C680 C682 1.419 . S
C681 C676 1.425 . S
C681 C678 1.409 . S
C681 C679 1.415 . S
C682 H672 0.930 . S
C682 C680 1.419 . S
C682 C683 1.362 . S
C683 H673 0.930 . S
C683 C676 1.409 . S
C683 C682 1.362 . S
H684 C690 0.930 . S
H685 C693 0.930 . S
H686 C694 0.930 . S
H687 C695 0.930 . S
H688 C698 0.930 . S
H689 C699 0.930 . S
C690 H684 0.930 . S
C690 C691 1.355 . S
C690 C692 1.415 . S
C691 C690 1.355 . S
C691 C693 1.419 . S
C692 C690 1.415 . S
C692 C697 1.425 . S
C692 C699 1.409 . S
C693 H685 0.930 . S
C693 C691 1.419 . S
C693 C694 1.362 . S
C694 H686 0.930 . S
C694 C693 1.362 . S
C694 C697 1.409 . S
C695 H687 0.930 . S
C695 C696 1.355 . S
C695 C697 1.415 . S
C696 C695 1.355 . S
C696 C698 1.419 . S
C697 C692 1.425 . S
C697 C694 1.409 . S
C697 C695 1.415 . S
C698 H688 0.930 . S
C698 C696 1.419 . S
C698 C699 1.362 . S
C699 H689 0.930 . S
C699 C692 1.409 . S
C699 C698 1.362 . S
H700 C706 0.930 . S
H701 C709 0.930 . S
H702 C710 0.930 . S
H703 C711 0.930 . S
H704 C714 0.930 . S
H705 C715 0.930 . S
C706 H700 0.930 . S
C706 C707 1.355 . S
C706 C708 1.415 . S
C707 C706 1.355 . S
C707 C709 1.419 . S
C708 C706 1.415 . S
C708 C713 1.425 . S
C708 C715 1.409 . S
C709 H701 0.930 . S
C709 C707 1.419 . S
C709 C710 1.362 . S
C710 H702 0.930 . S
C710 C709 1.362 . S
C710 C713 1.409 . S
C711 H703 0.930 . S
C711 C712 1.355 . S
C711 C713 1.415 . S
C712 C711 1.355 . S
C712 C714 1.419 . S
C713 C708 1.425 . S
C713 C710 1.409 . S
C713 C711 1.415 . S
C714 H704 0.930 . S
C714 C712 1.419 . S
C714 C715 1.362 . S
C715 H705 0.930 . S
C715 C708 1.409 . S
C715 C714 1.362 . S
H716 C722 0.930 . S
H717 C725 0.930 . S
H718 C726 0.930 . S
H719 C727 0.930 . S
H720 C730 0.930 . S
H721 C731 0.930 . S
C722 H716 0.930 . S
C722 C723 1.355 . S
C722 C724 1.415 . S
C723 C722 1.355 . S
C723 C725 1.419 . S
C724 C722 1.415 . S
C724 C729 1.425 . S
C724 C731 1.409 . S
C725 H717 0.930 . S
C725 C723 1.419 . S
C725 C726 1.362 . S
C726 H718 0.930 . S
C726 C725 1.362 . S
C726 C729 1.409 . S
C727 H719 0.930 . S
C727 C728 1.355 . S
C727 C729 1.415 . S
C728 C727 1.355 . S
C728 C730 1.419 . S
C729 C724 1.425 . S
C729 C726 1.409 . S
C729 C727 1.415 . S
C730 H720 0.930 . S
C730 C728 1.419 . S
C730 C731 1.362 . S
C731 H721 0.930 . S
C731 C724 1.409 . S
C731 C730 1.362 . S
H732 C738 0.930 . S
H733 C741 0.930 . S
H734 C742 0.930 . S
H735 C743 0.930 . S
H736 C746 0.930 . S
H737 C747 0.930 . S
C738 H732 0.930 . S
C738 C739 1.355 . S
C738 C740 1.415 . S
C739 C738 1.355 . S
C739 C741 1.419 . S
C740 C738 1.415 . S
C740 C745 1.425 . S
C740 C747 1.409 . S
C741 H733 0.930 . S
C741 C739 1.419 . S
C741 C742 1.362 . S
C742 H734 0.930 . S
C742 C741 1.362 . S
C742 C745 1.409 . S
C743 H735 0.930 . S
C743 C744 1.355 . S
C743 C745 1.415 . S
C744 C743 1.355 . S
C744 C746 1.419 . S
C745 C740 1.425 . S
C745 C742 1.409 . S
C745 C743 1.415 . S
C746 H736 0.930 . S
C746 C744 1.419 . S
C746 C747 1.362 . S
C747 H737 0.930 . S
C747 C740 1.409 . S
C747 C746 1.362 . S
H748 C754 0.930 . S
H749 C757 0.930 . S
H750 C758 0.930 . S
H751 C759 0.930 . S
H752 C762 0.930 . S
H753 C763 0.930 . S
C754 H748 0.930 . S
C754 C755 1.355 . S
C754 C756 1.415 . S
C755 C754 1.355 . S
C755 C757 1.419 . S
C756 C754 1.415 . S
C756 C761 1.425 . S
C756 C763 1.409 . S
C757 H749 0.930 . S
C757 C755 1.419 . S
C757 C758 1.362 . S
C758 H750 0.930 . S
C758 C757 1.362 . S
C758 C761 1.409 . S
C759 H751 0.930 . S
C759 C760 1.355 . S
C759 C761 1.415 . S
C760 C759 1.355 . S
C760 C762 1.419 . S
C761 C756 1.425 . S
C761 C758 1.409 . S
C761 C759 1.415 . S
C762 H752 0.930 . S
C762 C760 1.419 . S
C762 C763 1.362 . S
C763 H753 0.930 . S
C763 C756 1.409 . S
C763 C762 1.362 . S
H764 C770 0.930 . S
H765 C773 0.930 . S
H766 C774 0.930 . S
H767 C775 0.930 . S
H768 C778 0.930 . S
H769 C779 0.930 . S
C770 H764 0.930 . S
C770 C771 1.355 . S
C770 C772 1.415 . S
C771 C770 1.355 . S
C771 C773 1.419 . S
C772 C770 1.415 . S
C772 C777 1.425 . S
C772 C779 1.409 . S
C773 H765 0.930 . S
C773 C771 1.419 . S
C773 C774 1.362 . S
C774 H766 0.930 . S
C774 C773 1.362 . S
C774 C777 1.409 . S
C775 H767 0.930 . S
C775 C776 1.355 . S
C775 C777 1.415 . S
C776 C775 1.355 . S
C776 C778 1.419 . S
C777 C772 1.425 . S
C777 C774 1.409 . S
C777 C775 1.415 . S
C778 H768 0.930 . S
C778 C776 1.419 . S
C778 C779 1.362 . S
C779 H769 0.930 . S
C779 C772 1.409 . S
C779 C778 1.362 . S
H780 C786 0.930 . S
H781 C789 0.930 . S
H782 C790 0.930 . S
H783 C791 0.930 . S
H784 C794 0.930 . S
H785 C795 0.930 . S
C786 H780 0.930 . S
C786 C787 1.355 . S
C786 C788 1.415 . S
C787 C786 1.355 . S
C787 C789 1.419 . S
C788 C786 1.415 . S
C788 C793 1.425 . S
C788 C795 1.409 . S
C789 H781 0.930 . S
C789 C787 1.419 . S
C789 C790 1.362 . S
C790 H782 0.930 . S
C790 C789 1.362 . S
C790 C793 1.409 . S
C791 H783 0.930 . S
C791 C792 1.355 . S
C791 C793 1.415 . S
C792 C791 1.355 . S
C792 C794 1.419 . S
C793 C788 1.425 . S
C793 C790 1.409 . S
C793 C791 1.415 . S
C794 H784 0.930 . S
C794 C792 1.419 . S
C794 C795 1.362 . S
C795 H785 0.930 . S
C795 C788 1.409 . S
C795 C794 1.362 . S
H796 C802 0.930 . S
H797 C805 0.930 . S
H798 C806 0.930 . S
H799 C807 0.930 . S
H800 C810 0.930 . S
H801 C811 0.930 . S
C802 H796 0.930 . S
C802 C803 1.355 . S
C802 C804 1.415 . S
C803 C802 1.355 . S
C803 C805 1.419 . S
C804 C802 1.415 . S
C804 C809 1.425 . S
C804 C811 1.409 . S
C805 H797 0.930 . S
C805 C803 1.419 . S
C805 C806 1.362 . S
C806 H798 0.930 . S
C806 C805 1.362 . S
C806 C809 1.409 . S
C807 H799 0.930 . S
C807 C808 1.355 . S
C807 C809 1.415 . S
C808 C807 1.355 . S
C808 C810 1.419 . S
C809 C804 1.425 . S
C809 C806 1.409 . S
C809 C807 1.415 . S
C810 H800 0.930 . S
C810 C808 1.419 . S
C810 C811 1.362 . S
C811 H801 0.930 . S
C811 C804 1.409 . S
C811 C810 1.362 . S
H812 C818 0.930 . S
H813 C821 0.930 . S
H814 C822 0.930 . S
H815 C823 0.930 . S
H816 C826 0.930 . S
H817 C827 0.930 . S
C818 H812 0.930 . S
C818 C819 1.355 . S
C818 C820 1.415 . S
C819 C818 1.355 . S
C819 C821 1.419 . S
C820 C818 1.415 . S
C820 C825 1.425 . S
C820 C827 1.409 . S
C821 H813 0.930 . S
C821 C819 1.419 . S
C821 C822 1.362 . S
C822 H814 0.930 . S
C822 C821 1.362 . S
C822 C825 1.409 . S
C823 H815 0.930 . S
C823 C824 1.355 . S
C823 C825 1.415 . S
C824 C823 1.355 . S
C824 C826 1.419 . S
C825 C820 1.425 . S
C825 C822 1.409 . S
C825 C823 1.415 . S
C826 H816 0.930 . S
C826 C824 1.419 . S
C826 C827 1.362 . S
C827 H817 0.930 . S
C827 C820 1.409 . S
C827 C826 1.362 . S
H828 C834 0.930 . S
H829 C837 0.930 . S
H830 C838 0.930 . S
H831 C839 0.930 . S
H832 C842 0.930 . S
H833 C843 0.930 . S
C834 H828 0.930 . S
C834 C835 1.355 . S
C834 C836 1.415 . S
C835 C834 1.355 . S
C835 C837 1.419 . S
C836 C834 1.415 . S
C836 C841 1.425 . S
C836 C843 1.409 . S
C837 H829 0.930 . S
C837 C835 1.419 . S
C837 C838 1.362 . S
C838 H830 0.930 . S
C838 C837 1.362 . S
C838 C841 1.409 . S
C839 H831 0.930 . S
C839 C840 1.355 . S
C839 C841 1.415 . S
C840 C839 1.355 . S
C840 C842 1.419 . S
C841 C836 1.425 . S
C841 C838 1.409 . S
C841 C839 1.415 . S
C842 H832 0.930 . S
C842 C840 1.419 . S
C842 C843 1.362 . S
C843 H833 0.930 . S
C843 C836 1.409 . S
C843 C842 1.362 . S
C472 C123 1.453 . S
C467 C5 1.385 . S
C488 C203 1.660 . S
C483 C16 1.504 . S
C504 C135 1.654 . S
C499 C30 1.738 . S
C520 C179 1.801 . S
C515 C40 2.005 . S
C536 C247 1.318 . S
C531 C8 1.351 . S
C552 C327 1.429 . S
C547 C18 1.346 . S
C563 C29 1.848 . S
C568 C389 1.846 . S
C584 C445 1.513 . S
C579 C38 1.320 . S
C600 C259 1.294 1_565 S
C595 C19 1.429 . S
C611 C27 1.579 . S
C616 C303 1.493 . S
C632 C365 1.691 . S
C627 C41 1.882 . S
C648 C433 1.459 . S
C643 C7 1.422 . S
C659 C52 1.885 . S
C664 C197 1.783 . S
C680 C117 1.539 . S
C675 C62 1.556 . S
C691 C74 1.525 . S
C696 C185 1.449 . S
C707 C82 1.059 . S
C712 C141 1.317 . S
C728 C383 1.934 . S
C723 C51 2.034 . S
C744 C427 1.606 . S
C739 C60 1.417 . S
C760 C241 1.327 . S
C755 C71 1.199 . S
C771 C84 1.420 . S
C776 C309 1.427 . S
C792 C371 1.748 . S
C787 C63 1.789 . S
C808 C451 1.499 . S
C803 C73 1.456 . S
C824 C265 1.312 . S
C819 C85 1.413 . S
C835 C49 1.362 . S
C840 C321 1.579 . S
