# Generated by pormake.
# Topology nom, (4,4)-cn, num edge types: 1
# Building blocks:
#     Node 0, Type 0, BuildingBlock: NAWXER_clean_linker_0, # of connection points: 4
#     Node 1, Type 0, BuildingBlock: NAWXER_clean_linker_0, # of connection points: 4
#     Node 2, Type 0, BuildingBlock: NAWXER_clean_linker_0, # of connection points: 4
#     Node 3, Type 0, BuildingBlock: NAWXER_clean_linker_0, # of connection points: 4
#     Node 4, Type 0, BuildingBlock: NAWXER_clean_linker_0, # of connection points: 4
#     Node 5, Type 0, BuildingBlock: NAWXER_clean_linker_0, # of connection points: 4
#     Node 6, Type 1, BuildingBlock: AZAVOO_clean_sbu_0, # of connection points: 4
#     Node 7, Type 1, BuildingBlock: AZAVOO_clean_sbu_0, # of connection points: 4
#     Node 8, Type 1, BuildingBlock: AZAVOO_clean_sbu_0, # of connection points: 4
#     Node 9, Type 1, BuildingBlock: AZAVOO_clean_sbu_0, # of connection points: 4
#     Node 10, Type 1, BuildingBlock: AZAVOO_clean_sbu_0, # of connection points: 4
#     Node 11, Type 1, BuildingBlock: AZAVOO_clean_sbu_0, # of connection points: 4
#     Edge 12, Type (0, 1), BuildingBlock: KIFKEQ_clean_linker_1, # of connection points: 2
#     Edge 13, Type (0, 1), BuildingBlock: KIFKEQ_clean_linker_1, # of connection points: 2
#     Edge 14, Type (0, 1), BuildingBlock: KIFKEQ_clean_linker_1, # of connection points: 2
#     Edge 15, Type (0, 1), BuildingBlock: KIFKEQ_clean_linker_1, # of connection points: 2
#     Edge 16, Type (0, 1), BuildingBlock: KIFKEQ_clean_linker_1, # of connection points: 2
#     Edge 17, Type (0, 1), BuildingBlock: KIFKEQ_clean_linker_1, # of connection points: 2
#     Edge 18, Type (0, 1), BuildingBlock: KIFKEQ_clean_linker_1, # of connection points: 2
#     Edge 19, Type (0, 1), BuildingBlock: KIFKEQ_clean_linker_1, # of connection points: 2
#     Edge 20, Type (0, 1), BuildingBlock: KIFKEQ_clean_linker_1, # of connection points: 2
#     Edge 21, Type (0, 1), BuildingBlock: KIFKEQ_clean_linker_1, # of connection points: 2
#     Edge 22, Type (0, 1), BuildingBlock: KIFKEQ_clean_linker_1, # of connection points: 2
#     Edge 23, Type (0, 1), BuildingBlock: KIFKEQ_clean_linker_1, # of connection points: 2
#     Edge 24, Type (0, 1), BuildingBlock: KIFKEQ_clean_linker_1, # of connection points: 2
#     Edge 25, Type (0, 1), BuildingBlock: KIFKEQ_clean_linker_1, # of connection points: 2
#     Edge 26, Type (0, 1), BuildingBlock: KIFKEQ_clean_linker_1, # of connection points: 2
#     Edge 27, Type (0, 1), BuildingBlock: KIFKEQ_clean_linker_1, # of connection points: 2
#     Edge 28, Type (0, 1), BuildingBlock: KIFKEQ_clean_linker_1, # of connection points: 2
#     Edge 29, Type (0, 1), BuildingBlock: KIFKEQ_clean_linker_1, # of connection points: 2
#     Edge 30, Type (0, 1), BuildingBlock: KIFKEQ_clean_linker_1, # of connection points: 2
#     Edge 31, Type (0, 1), BuildingBlock: KIFKEQ_clean_linker_1, # of connection points: 2
#     Edge 32, Type (0, 1), BuildingBlock: KIFKEQ_clean_linker_1, # of connection points: 2
#     Edge 33, Type (0, 1), BuildingBlock: KIFKEQ_clean_linker_1, # of connection points: 2
#     Edge 34, Type (0, 1), BuildingBlock: KIFKEQ_clean_linker_1, # of connection points: 2
#     Edge 35, Type (0, 1), BuildingBlock: KIFKEQ_clean_linker_1, # of connection points: 2
# Relax obj value: 0.043
# Max RMSD: 0.157
# Mean RMSD: 0.130
data_MOF--net-nom--node1-AZAVOO_clean_sbu_0--node2-NAWXER_clean_linker_0--edge1-KIFKEQ_clean_linker_1
_symmetry_space_group_name_H-M    P1
_symmetry_Int_Tables_number       1
_symmetry_cell_setting            triclinic
loop_
_symmetry_equiv_pos_as_xyz
'x, y, z'
_cell_length_a     53.286245
_cell_length_b     53.688996
_cell_length_c     56.921197
_cell_angle_alpha  91.125103
_cell_angle_beta   91.16004
_cell_angle_gamma 119.93969
loop_
_atom_site_label
_atom_site_type_symbol
_atom_site_fract_x
_atom_site_fract_y
_atom_site_fract_z
_atom_type_partial_charge
C0 C 0.90173 0.48756 0.3535 0.0
C1 C 0.88911 0.46331 0.36748 0.0
C2 C 0.92884 0.49689 0.34424 0.0
C3 C 0.94395 0.48225 0.34887 0.0
C4 C 0.90402 0.44839 0.37196 0.0
C5 C 0.93155 0.45811 0.36299 0.0
C6 C 0.97352 0.49384 0.34035 0.0
C7 C 0.91696 0.44965 0.27593 0.0
C8 C 0.91636 0.4686 0.25956 0.0
C9 C 0.93705 0.46008 0.29488 0.0
C10 C 0.95722 0.4896 0.29757 0.0
C11 C 0.93607 0.4982 0.26256 0.0
C12 C 0.95661 0.50857 0.28124 0.0
C13 C 0.97992 0.50035 0.31659 0.0
C14 C 0.11051 0.55606 0.31669 0.0
C15 C 0.11625 0.57927 0.30241 0.0
C16 C 0.08258 0.53827 0.3246 0.0
C17 C 0.06012 0.54381 0.31876 0.0
C18 C 0.0936 0.58437 0.29623 0.0
C19 C 0.06582 0.56677 0.30428 0.0
C20 C 0.03039 0.52564 0.32696 0.0
C21 C 0.08743 0.56535 0.3925 0.0
C22 C 0.08746 0.54495 0.40763 0.0
C23 C 0.06698 0.55673 0.37386 0.0
C24 C 0.04635 0.52753 0.36985 0.0
C25 C 0.06655 0.51577 0.40367 0.0
C26 C 0.04613 0.5072 0.38506 0.0
C27 C 0.02398 0.51802 0.35065 0.0
H28 H 0.89049 0.49922 0.34961 0.0
H29 H 0.93829 0.51594 0.3338 0.0
H30 H 0.89461 0.42961 0.3827 0.0
H31 H 0.94311 0.44678 0.36696 0.0
H32 H 0.902 0.42674 0.27393 0.0
H33 H 0.93738 0.445 0.30707 0.0
H34 H 0.93615 0.51317 0.25003 0.0
H35 H 0.97207 0.53139 0.28293 0.0
H36 H 0.1275 0.55139 0.3214 0.0
H37 H 0.07852 0.52014 0.33515 0.0
H38 H 0.09744 0.60224 0.28542 0.0
H39 H 0.0488 0.57137 0.29944 0.0
H40 H 0.10327 0.58796 0.39501 0.0
H41 H 0.06713 0.57292 0.36271 0.0
H42 H 0.06558 0.49957 0.41525 0.0
H43 H 0.03015 0.48462 0.38251 0.0
N44 N -0.00428 0.50253 0.35645 0.0
N45 N 0.00809 0.51633 0.31083 0.0
C46 C 0.42975 0.91003 0.50963 0.0
C47 C 0.44151 0.89871 0.52567 0.0
C48 C 0.44605 0.93831 0.50265 0.0
C49 C 0.47461 0.95594 0.51136 0.0
C50 C 0.47015 0.9164 0.53444 0.0
C51 C 0.4865 0.94486 0.52744 0.0
C52 C 0.49096 0.98642 0.50483 0.0
C53 C 0.48829 0.93751 0.43957 0.0
C54 C 0.46757 0.93496 0.42261 0.0
C55 C 0.49582 0.95675 0.45879 0.0
C56 C 0.48308 0.97406 0.4612 0.0
C57 C 0.45468 0.95214 0.42507 0.0
C58 C 0.4627 0.97187 0.44407 0.0
C59 C 0.49156 0.99473 0.48141 0.0
C60 C 0.55844 0.12379 0.48611 0.0
C61 C 0.53822 0.12947 0.47477 0.0
C62 C 0.55027 0.09591 0.4929 0.0
C63 C 0.52183 0.07336 0.48831 0.0
C64 C 0.5098 0.1068 0.47025 0.0
C65 C 0.50177 0.07898 0.47679 0.0
C66 C 0.51266 0.04361 0.4947 0.0
C67 C 0.53025 0.09609 0.56224 0.0
C68 C 0.55135 0.09554 0.57716 0.0
C69 C 0.51801 0.07666 0.54301 0.0
C70 C 0.5269 0.05652 0.53814 0.0
C71 C 0.55975 0.07497 0.57243 0.0
C72 C 0.54757 0.05563 0.5532 0.0
C73 C 0.51422 0.0356 0.51797 0.0
H74 H 0.40753 0.89735 0.50304 0.0
H75 H 0.43594 0.94664 0.49093 0.0
H76 H 0.47988 0.9083 0.54676 0.0
H77 H 0.50838 0.95821 0.53458 0.0
H78 H 0.49849 0.92447 0.43801 0.0
H79 H 0.51186 0.95836 0.47167 0.0
H80 H 0.4388 0.95064 0.41207 0.0
H81 H 0.45273 0.98514 0.44559 0.0
H82 H 0.58049 0.14091 0.48977 0.0
H83 H 0.56617 0.09189 0.5015 0.0
H84 H 0.49392 0.11046 0.46119 0.0
H85 H 0.47978 0.0618 0.47295 0.0
H86 H 0.52331 0.11167 0.56531 0.0
H87 H 0.50147 0.07727 0.53208 0.0
H88 H 0.57546 0.07349 0.58381 0.0
H89 H 0.55446 0.04002 0.54999 0.0
N90 N 0.50294 0.00718 0.5222 0.0
N91 N 0.50173 0.02292 0.47724 0.0
C92 C 0.56564 0.47645 0.56971 0.0
C93 C 0.54582 0.46366 0.55056 0.0
C94 C 0.55791 0.486 0.58984 0.0
C95 C 0.53005 0.48253 0.59136 0.0
C96 C 0.51796 0.46016 0.55212 0.0
C97 C 0.51019 0.46957 0.57229 0.0
C98 C 0.52204 0.49397 0.61202 0.0
C99 C 0.53241 0.42274 0.64037 0.0
C100 C 0.55527 0.43096 0.65696 0.0
C101 C 0.52443 0.44252 0.63306 0.0
C102 C 0.53934 0.47105 0.64199 0.0
C103 C 0.57033 0.45957 0.66581 0.0
C104 C 0.56224 0.47939 0.65852 0.0
C105 C 0.52935 0.49128 0.63546 0.0
C106 C 0.4663 0.53416 0.69387 0.0
C107 C 0.48839 0.5548 0.70911 0.0
C108 C 0.47305 0.52292 0.67424 0.0
C109 C 0.50202 0.53204 0.6694 0.0
C110 C 0.5174 0.56359 0.70432 0.0
C111 C 0.52411 0.55213 0.68474 0.0
C112 C 0.50927 0.51973 0.64898 0.0
C113 C 0.47165 0.57242 0.61939 0.0
C114 C 0.44528 0.55504 0.60676 0.0
C115 C 0.48967 0.56143 0.62576 0.0
C116 C 0.48163 0.53293 0.61953 0.0
C117 C 0.43753 0.52653 0.60056 0.0
C118 C 0.45564 0.51574 0.60668 0.0
C119 C 0.5001 0.52059 0.62571 0.0
H120 H 0.58744 0.47992 0.56885 0.0
H121 H 0.57399 0.49676 0.60395 0.0
H122 H 0.50215 0.45017 0.53772 0.0
H123 H 0.48862 0.46676 0.57297 0.0
H124 H 0.52051 0.40091 0.63316 0.0
H125 H 0.50612 0.43529 0.6208 0.0
H126 H 0.58779 0.46641 0.67886 0.0
H127 H 0.57374 0.50117 0.6659 0.0
H128 H 0.44369 0.52631 0.69729 0.0
H129 H 0.45561 0.50681 0.66299 0.0
H130 H 0.53498 0.5796 0.7155 0.0
H131 H 0.5466 0.55923 0.68139 0.0
H132 H 0.47852 0.59457 0.62419 0.0
H133 H 0.50993 0.57522 0.63533 0.0
H134 H 0.41716 0.51225 0.59135 0.0
H135 H 0.44903 0.49366 0.60174 0.0
N136 N 0.50716 0.508 0.60813 0.0
N137 N 0.5233 0.50483 0.65302 0.0
C138 C 0.90896 0.45161 0.81866 0.0
C139 C 0.89477 0.4594 0.80183 0.0
C140 C 0.93575 0.47209 0.82855 0.0
C141 C 0.94894 0.5008 0.82177 0.0
C142 C 0.90733 0.48828 0.79562 0.0
C143 C 0.93448 0.50879 0.8053 0.0
C144 C 0.97947 0.52084 0.82901 0.0
C145 C 0.93283 0.5127 0.89598 0.0
C146 C 0.937 0.49623 0.91283 0.0
C147 C 0.94943 0.52096 0.87591 0.0
C148 C 0.97071 0.51321 0.87262 0.0
C149 C 0.95794 0.48808 0.90931 0.0
C150 C 0.97492 0.49682 0.8895 0.0
C151 C 0.9899 0.52368 0.85245 0.0
C152 C 0.12041 0.59248 0.84442 0.0
C153 C 0.12726 0.57389 0.8564 0.0
C154 C 0.09146 0.58418 0.83904 0.0
C155 C 0.06909 0.55729 0.84576 0.0
C156 C 0.10477 0.54741 0.86365 0.0
C157 C 0.07597 0.53931 0.85854 0.0
C158 C 0.03837 0.5471 0.83948 0.0
C159 C 0.08041 0.54846 0.77123 0.0
C160 C 0.0809 0.56874 0.75566 0.0
C161 C 0.06361 0.54135 0.79112 0.0
C162 C 0.04702 0.55439 0.79589 0.0
C163 C 0.06404 0.58161 0.76046 0.0
C164 C 0.04706 0.57429 0.78031 0.0
C165 C 0.02804 0.54572 0.81619 0.0
H166 H 0.8996 0.42947 0.82378 0.0
H167 H 0.94681 0.46512 0.84063 0.0
H168 H 0.89675 0.49469 0.78259 0.0
H169 H 0.94453 0.53071 0.7995 0.0
H170 H 0.91669 0.5191 0.89833 0.0
H171 H 0.94613 0.53396 0.86326 0.0
H172 H 0.96158 0.47548 0.92215 0.0
H173 H 0.99135 0.49076 0.88733 0.0
H174 H 0.13744 0.613 0.83864 0.0
H175 H 0.08657 0.59858 0.82949 0.0
H176 H 0.10951 0.53285 0.87313 0.0
H177 H 0.05904 0.51855 0.86401 0.0
H178 H 0.09255 0.53761 0.76782 0.0
H179 H 0.06318 0.52526 0.80257 0.0
H180 H 0.06413 0.5975 0.74899 0.0
H181 H 0.03408 0.5843 0.78359 0.0
N182 N -0.00104 0.53243 0.81179 0.0
N183 N 0.01891 0.53628 0.85675 0.0
C184 C 0.47347 0.90969 0.98368 0.0
C185 C 0.45127 0.89753 0.96616 0.0
C186 C 0.4831 0.93743 0.99291 0.0
C187 C 0.47047 0.95346 0.98504 0.0
C188 C 0.43839 0.91347 0.95855 0.0
C189 C 0.44801 0.94121 0.9678 0.0
C190 C 0.4827 0.98396 0.9928 0.0
C191 C 0.44703 0.93414 0.05804 0.0
C192 C 0.46661 0.94197 0.07734 0.0
C193 C 0.4548 0.95076 0.03807 0.0
C194 C 0.48263 0.97497 0.03679 0.0
C195 C 0.49419 0.96635 0.07628 0.0
C196 C 0.50217 0.98262 0.05615 0.0
C197 C 0.49089 0.99394 0.01642 0.0
C198 C 0.54464 0.12253 0.01436 0.0
C199 C 0.56997 0.1301 0.028 0.0
C200 C 0.52675 0.09415 0.00593 0.0
C201 C 0.53389 0.07292 0.01103 0.0
C202 C 0.57713 0.10872 0.03265 0.0
C203 C 0.55917 0.08046 0.02446 0.0
C204 C 0.51461 0.04239 0.00396 0.0
C205 C 0.54943 0.0861 0.93546 0.0
C206 C 0.52775 0.08449 0.91996 0.0
C207 C 0.54201 0.0699 0.95565 0.0
C208 C 0.5128 0.05177 0.96063 0.0
C209 C 0.49852 0.06667 0.92518 0.0
C210 C 0.49111 0.05018 0.94524 0.0
C211 C 0.50479 0.03251 0.98062 0.0
H212 H 0.48423 0.89825 0.98962 0.0
H213 H 0.50113 0.9467 0.00559 0.0
H214 H 0.42104 0.90461 0.94524 0.0
H215 H 0.43814 0.95325 0.96128 0.0
H216 H 0.42548 0.91558 0.05866 0.0
H217 H 0.43879 0.94499 0.02391 0.0
H218 H 0.50965 0.97267 0.09096 0.0
H219 H 0.52366 0.00133 0.05577 0.0
H220 H 0.53829 0.13835 0.01063 0.0
H221 H 0.50704 0.08866 0.99594 0.0
H222 H 0.59678 0.1138 0.04253 0.0
H223 H 0.56511 0.06441 0.02856 0.0
H224 H 0.57213 0.09983 0.93189 0.0
H225 H 0.55909 0.07095 0.96703 0.0
H226 H 0.48142 0.06491 0.91342 0.0
H227 H 0.46844 0.036 0.94867 0.0
N228 N 0.48945 0.00368 0.9759 0.0
N229 N 0.50694 0.02273 0.02092 0.0
C230 C 0.4473 0.58184 0.15966 0.0
C231 C 0.42916 0.57051 0.17877 0.0
C232 C 0.4585 0.56624 0.14858 0.0
C233 C 0.45096 0.53855 0.1559 0.0
C234 C 0.42124 0.5428 0.18594 0.0
C235 C 0.43186 0.52688 0.17449 0.0
C236 C 0.46611 0.52351 0.14712 0.0
C237 C 0.42661 0.53348 0.07895 0.0
C238 C 0.44734 0.55384 0.06434 0.0
C239 C 0.43535 0.52445 0.09883 0.0
C240 C 0.46492 0.53528 0.10411 0.0
C241 C 0.4769 0.56523 0.07002 0.0
C242 C 0.48561 0.55571 0.08956 0.0
C243 C 0.47439 0.52384 0.12364 0.0
C244 C 0.52883 0.44821 0.12644 0.0
C245 C 0.55395 0.4652 0.11393 0.0
C246 C 0.51053 0.45878 0.13262 0.0
C247 C 0.51742 0.48678 0.12687 0.0
C248 C 0.5601 0.49274 0.10736 0.0
C249 C 0.54196 0.50338 0.11372 0.0
C250 C 0.49952 0.49919 0.13463 0.0
C251 C 0.53675 0.48181 0.19962 0.0
C252 C 0.51608 0.46372 0.21553 0.0
C253 C 0.52882 0.49347 0.18114 0.0
C254 C 0.49985 0.48649 0.1776 0.0
C255 C 0.48728 0.45762 0.2124 0.0
C256 C 0.47927 0.46886 0.19363 0.0
C257 C 0.49093 0.49851 0.15805 0.0
H258 H 0.4541 0.60346 0.15417 0.0
H259 H 0.47429 0.57664 0.13526 0.0
H260 H 0.40735 0.53374 0.20072 0.0
H261 H 0.42595 0.50576 0.18074 0.0
H262 H 0.40369 0.52438 0.07483 0.0
H263 H 0.41905 0.50837 0.10966 0.0
H264 H 0.49323 0.58075 0.05886 0.0
H265 H 0.50852 0.56416 0.09326 0.0
H266 H 0.52327 0.42671 0.13135 0.0
H267 H 0.49123 0.44523 0.14215 0.0
H268 H 0.57937 0.50637 0.09781 0.0
H269 H 0.54757 0.52495 0.10893 0.0
H270 H 0.55908 0.48684 0.20125 0.0
H271 H 0.54541 0.50793 0.16962 0.0
H272 H 0.47088 0.44441 0.22458 0.0
H273 H 0.4569 0.46367 0.19157 0.0
N274 N 0.47458 0.51063 0.16327 0.0
N275 N 0.49097 0.51191 0.11838 0.0
Mg276 Mg 0.6166 0.36657 0.36612 0.0
O277 O 0.60769 0.39011 0.39603 0.0
O278 O 0.62567 0.43588 0.38609 0.0
Mg279 Mg 0.64539 0.44151 0.34996 0.0
C280 C 0.61264 0.41564 0.40042 0.0
C281 C 0.58121 0.31162 0.39544 0.0
O282 O 0.55967 0.31468 0.38737 0.0
O283 O 0.66406 0.3887 0.37769 0.0
O284 O 0.68075 0.4334 0.36554 0.0
O285 O 0.57463 0.35545 0.34755 0.0
O286 O 0.61621 0.39535 0.34261 0.0
C287 C 0.68478 0.41425 0.37505 0.0
C288 C 0.58875 0.38034 0.3382 0.0
O289 O 0.60689 0.32952 0.38989 0.0
Mg290 Mg 0.25894 0.64258 0.59587 0.0
O291 O 0.22968 0.61973 0.56304 0.0
O292 O 0.20383 0.57306 0.57078 0.0
Mg293 Mg 0.21555 0.56627 0.60806 0.0
C294 C 0.21073 0.59384 0.55701 0.0
C295 C 0.29709 0.70617 0.58757 0.0
O296 O 0.28925 0.70541 0.60941 0.0
O297 O 0.28824 0.6245 0.58743 0.0
O298 O 0.2616 0.57846 0.59696 0.0
O299 O 0.22457 0.64935 0.61139 0.0
O300 O 0.22947 0.61143 0.61726 0.0
C301 C 0.28509 0.59954 0.58987 0.0
C302 C 0.21532 0.62469 0.62095 0.0
O303 O 0.28712 0.68268 0.57569 0.0
Mg304 Mg 0.63114 0.26615 0.76438 0.0
O305 O 0.62463 0.23671 0.73224 0.0
O306 O 0.64449 0.20994 0.74145 0.0
Mg307 Mg 0.66208 0.22103 0.77959 0.0
C308 C 0.63108 0.2174 0.72691 0.0
C309 C 0.59994 0.28602 0.72738 0.0
O310 O 0.58257 0.25823 0.72379 0.0
O311 O 0.67908 0.294 0.75767 0.0
O312 O 0.6971 0.26665 0.77002 0.0
O313 O 0.5891 0.23276 0.7787 0.0
O314 O 0.63154 0.23637 0.78665 0.0
C315 C 0.70052 0.29028 0.76218 0.0
C316 C 0.60399 0.22292 0.78924 0.0
O317 O 0.62093 0.2949 0.74229 0.0
Mg318 Mg 0.4014 0.65348 0.86934 0.0
O319 O 0.40614 0.63071 0.90163 0.0
O320 O 0.38195 0.58349 0.89272 0.0
Mg321 Mg 0.36524 0.57629 0.85449 0.0
C322 C 0.39683 0.60464 0.90714 0.0
C323 C 0.40251 0.7086 0.8853 0.0
O324 O 0.38413 0.69905 0.86715 0.0
O325 O 0.3538 0.6369 0.87654 0.0
O326 O 0.33283 0.59047 0.86519 0.0
O327 O 0.44189 0.65764 0.85401 0.0
O328 O 0.39792 0.62085 0.84713 0.0
C329 C 0.33135 0.61217 0.87297 0.0
C330 C 0.42521 0.63281 0.84366 0.0
O331 O 0.41467 0.69439 0.89143 0.0
Mg332 Mg 0.75243 0.40035 0.06625 0.0
O333 O 0.77844 0.40682 0.10102 0.0
O334 O 0.80396 0.38452 0.09524 0.0
Mg335 Mg 0.79815 0.3684 0.05692 0.0
C336 C 0.79594 0.39865 0.10838 0.0
C337 C 0.69802 0.40345 0.0712 0.0
O338 O 0.69512 0.39029 0.05076 0.0
O339 O 0.72292 0.35271 0.07207 0.0
O340 O 0.75085 0.33397 0.06304 0.0
O341 O 0.78721 0.44184 0.05307 0.0
O342 O 0.78516 0.40004 0.04743 0.0
C343 C 0.72648 0.33112 0.06868 0.0
C344 C 0.79857 0.42735 0.04447 0.0
O345 O 0.72084 0.41104 0.08378 0.0
Mg346 Mg 0.37319 0.76517 0.23498 0.0
O347 O 0.39497 0.79147 0.26897 0.0
O348 O 0.44284 0.81232 0.26493 0.0
Mg349 Mg 0.45135 0.802 0.22766 0.0
C350 C 0.42094 0.8073 0.27697 0.0
C351 C 0.31379 0.71514 0.2423 0.0
O352 O 0.32221 0.70867 0.2227 0.0
O353 O 0.38595 0.7318 0.24327 0.0
O354 O 0.43304 0.75415 0.23552 0.0
O355 O 0.37231 0.80275 0.21992 0.0
O356 O 0.40796 0.79336 0.21583 0.0
C357 C 0.40969 0.73174 0.24111 0.0
C358 C 0.39747 0.80992 0.21173 0.0
O359 O 0.33063 0.73901 0.25293 0.0
H360 H 0.131 0.59817 0.25802 0.0
H361 H 0.16781 0.60307 0.32743 0.0
H362 H 0.17916 0.63094 0.24404 0.0
H363 H 0.21623 0.63554 0.31329 0.0
H364 H 0.29114 0.71956 0.28394 0.0
H365 H 0.24365 0.68585 0.29886 0.0
H366 H 0.22485 0.63099 0.23682 0.0
H367 H 0.27202 0.66461 0.22181 0.0
C368 C 0.14943 0.60625 0.27026 0.0
C369 C 0.14569 0.59816 0.29382 0.0
C370 C 0.177 0.62481 0.26222 0.0
C371 C 0.20142 0.63578 0.27758 0.0
C372 C 0.19774 0.62758 0.30112 0.0
C373 C 0.17012 0.60881 0.30914 0.0
C374 C 0.27686 0.70029 0.27351 0.0
C375 C 0.28528 0.69481 0.25165 0.0
C376 C 0.24978 0.68093 0.28212 0.0
C377 C 0.23056 0.65585 0.26897 0.0
C378 C 0.23909 0.65031 0.24721 0.0
C379 C 0.26617 0.66954 0.23867 0.0
H380 H 0.50927 0.15899 0.48046 0.0
H381 H 0.58608 0.16544 0.4507 0.0
H382 H 0.52071 0.20494 0.46399 0.0
H383 H 0.59725 0.21102 0.43368 0.0
H384 H 0.62092 0.30231 0.41886 0.0
H385 H 0.61189 0.26046 0.44107 0.0
H386 H 0.51995 0.22268 0.42606 0.0
H387 H 0.52893 0.26491 0.40457 0.0
C388 C 0.52865 0.17032 0.47041 0.0
C389 C 0.54672 0.15862 0.46673 0.0
C390 C 0.53515 0.19657 0.46089 0.0
C391 C 0.55975 0.21158 0.44729 0.0
C392 C 0.57833 0.20027 0.4443 0.0
C393 C 0.57194 0.17412 0.454 0.0
C394 C 0.59876 0.28515 0.42046 0.0
C395 C 0.57564 0.28686 0.40986 0.0
C396 C 0.5936 0.26108 0.43309 0.0
C397 C 0.56521 0.2381 0.43529 0.0
C398 C 0.54206 0.24013 0.42505 0.0
C399 C 0.54721 0.26429 0.41257 0.0
H400 H 0.41132 0.54343 0.56661 0.0
H401 H 0.43371 0.59133 0.63305 0.0
H402 H 0.37409 0.5563 0.5589 0.0
H403 H 0.39735 0.60517 0.62466 0.0
H404 H 0.34239 0.64064 0.59269 0.0
H405 H 0.38395 0.63297 0.59372 0.0
H406 H 0.32648 0.54184 0.58153 0.0
H407 H 0.28484 0.54929 0.58086 0.0
C408 C 0.40849 0.55683 0.57951 0.0
C409 C 0.42529 0.56596 0.60065 0.0
C410 C 0.38731 0.56434 0.57497 0.0
C411 C 0.38287 0.58161 0.59122 0.0
C412 C 0.40059 0.59203 0.61174 0.0
C413 C 0.42147 0.58415 0.61649 0.0
C414 C 0.33865 0.61903 0.58978 0.0
C415 C 0.31033 0.59551 0.58682 0.0
C416 C 0.36242 0.61468 0.59052 0.0
C417 C 0.35832 0.58684 0.5878 0.0
C418 C 0.33019 0.56354 0.58354 0.0
C419 C 0.30639 0.5678 0.58325 0.0
H420 H 0.88599 0.41087 0.77889 0.0
H421 H 0.84255 0.45732 0.79864 0.0
H422 H 0.84032 0.371 0.76318 0.0
H423 H 0.79637 0.41692 0.7839 0.0
H424 H 0.71751 0.34473 0.74745 0.0
H425 H 0.7657 0.38709 0.75184 0.0
H426 H 0.79869 0.33451 0.78025 0.0
H427 H 0.75115 0.29233 0.7751 0.0
C428 C 0.86655 0.41248 0.77976 0.0
C429 C 0.86757 0.43688 0.79019 0.0
C430 C 0.84037 0.38964 0.77087 0.0
C431 C 0.81451 0.39048 0.77259 0.0
C432 C 0.81586 0.41559 0.78205 0.0
C433 C 0.84222 0.43868 0.79063 0.0
C434 C 0.7352 0.34214 0.75418 0.0
C435 C 0.73034 0.31512 0.76113 0.0
C436 C 0.76279 0.36649 0.75688 0.0
C437 C 0.78608 0.36436 0.76664 0.0
C438 C 0.78145 0.33705 0.7724 0.0
C439 C 0.75401 0.31275 0.76957 0.0
H440 H 0.44007 0.88181 0.91952 0.0
H441 H 0.44365 0.84887 0.9874 0.0
H442 H 0.4278 0.83582 0.90081 0.0
H443 H 0.43131 0.80267 0.9686 0.0
H444 H 0.44101 0.73614 0.92244 0.0
H445 H 0.45202 0.78129 0.94254 0.0
H446 H 0.38867 0.7865 0.89751 0.0
H447 H 0.37813 0.7419 0.87718 0.0
C448 C 0.43782 0.8646 0.9305 0.0
C449 C 0.44271 0.869 0.95498 0.0
C450 C 0.43082 0.83822 0.91976 0.0
C451 C 0.42852 0.81552 0.9332 0.0
C452 C 0.43329 0.81983 0.9577 0.0
C453 C 0.44031 0.84628 0.96847 0.0
C454 C 0.42943 0.74693 0.91687 0.0
C455 C 0.40884 0.73551 0.89811 0.0
C456 C 0.4356 0.7727 0.92848 0.0
C457 C 0.42131 0.78758 0.92156 0.0
C458 C 0.40043 0.77587 0.90303 0.0
C459 C 0.39429 0.75018 0.89144 0.0
H460 H 0.57921 0.46841 0.07203 0.0
H461 H 0.57399 0.43808 0.14247 0.0
H462 H 0.6135 0.45244 0.06257 0.0
H463 H 0.60798 0.42157 0.13285 0.0
H464 H 0.69623 0.42964 0.11253 0.0
H465 H 0.66042 0.44331 0.12333 0.0
H466 H 0.61366 0.40663 0.05729 0.0
H467 H 0.64934 0.39318 0.04641 0.0
C468 C 0.58538 0.45829 0.08547 0.0
C469 C 0.57394 0.45449 0.10798 0.0
C470 C 0.60482 0.44892 0.08001 0.0
C471 C 0.61338 0.43571 0.09697 0.0
C472 C 0.60192 0.43186 0.11949 0.0
C473 C 0.58227 0.44104 0.12491 0.0
C474 C 0.67822 0.42437 0.10039 0.0
C475 C 0.67573 0.41048 0.07856 0.0
C476 C 0.65766 0.43208 0.10662 0.0
C477 C 0.63435 0.42619 0.09108 0.0
C478 C 0.63161 0.41182 0.06948 0.0
C479 C 0.65201 0.40399 0.06332 0.0
H480 H 0.43857 0.87991 0.57044 0.0
H481 H 0.40264 0.85055 0.49995 0.0
H482 H 0.40519 0.83256 0.58484 0.0
H483 H 0.36818 0.8037 0.51456 0.0
H484 H 0.32487 0.71473 0.54601 0.0
H485 H 0.36205 0.76027 0.53092 0.0
H486 H 0.35439 0.80544 0.59158 0.0
H487 H 0.31801 0.75999 0.60694 0.0
C488 C 0.42378 0.86328 0.55796 0.0
C489 C 0.42315 0.86911 0.53407 0.0
C490 C 0.40433 0.83623 0.56628 0.0
C491 C 0.3837 0.81443 0.55092 0.0
C492 C 0.38383 0.81992 0.52687 0.0
C493 C 0.40338 0.84691 0.51854 0.0
C494 C 0.33111 0.73442 0.55607 0.0
C495 C 0.31853 0.73376 0.57768 0.0
C496 C 0.35237 0.76052 0.54741 0.0
C497 C 0.36138 0.78652 0.56012 0.0
C498 C 0.34846 0.7858 0.58158 0.0
C499 C 0.32738 0.75973 0.59029 0.0
H500 H 0.51784 0.37629 0.66983 0.0
H501 H 0.60903 0.437 0.66386 0.0
H502 H 0.52944 0.34106 0.68509 0.0
H503 H 0.62073 0.40156 0.67886 0.0
H504 H 0.62952 0.34441 0.73363 0.0
H505 H 0.61927 0.37898 0.71528 0.0
H506 H 0.54844 0.31008 0.67454 0.0
H507 H 0.55823 0.27525 0.69345 0.0
C508 C 0.54038 0.38194 0.67147 0.0
C509 C 0.56254 0.4094 0.66566 0.0
C510 C 0.54703 0.36172 0.68016 0.0
C511 C 0.57601 0.36844 0.68316 0.0
C512 C 0.59819 0.39582 0.67707 0.0
C513 C 0.59152 0.41612 0.66848 0.0
C514 C 0.61182 0.33659 0.72068 0.0
C515 C 0.59456 0.30702 0.71511 0.0
C516 C 0.60608 0.35648 0.71002 0.0
C517 C 0.58301 0.34733 0.69346 0.0
C518 C 0.56612 0.3178 0.6875 0.0
C519 C 0.57181 0.29785 0.69824 0.0
H520 H 0.15066 0.5407 0.84554 0.0
H521 H 0.17225 0.6234 0.87627 0.0
H522 H 0.2002 0.5514 0.85255 0.0
H523 H 0.22203 0.63396 0.88429 0.0
H524 H 0.31528 0.6529 0.86837 0.0
H525 H 0.26597 0.64482 0.86608 0.0
H526 H 0.23288 0.55573 0.88266 0.0
H527 H 0.28195 0.56356 0.88369 0.0
C528 C 0.16606 0.56109 0.85409 0.0
C529 C 0.15769 0.58116 0.8605 0.0
C530 C 0.19443 0.56718 0.85831 0.0
C531 C 0.21512 0.59338 0.86938 0.0
C532 C 0.20675 0.61365 0.87561 0.0
C533 C 0.1783 0.60764 0.87108 0.0
C534 C 0.29743 0.63172 0.87188 0.0
C535 C 0.30235 0.60874 0.87587 0.0
C536 C 0.26915 0.62708 0.87062 0.0
C537 C 0.24533 0.59946 0.87369 0.0
C538 C 0.2506 0.57705 0.87942 0.0
C539 C 0.27874 0.58157 0.88023 0.0
H540 H 0.59923 0.14762 0.0707 0.0
H541 H 0.58428 0.18065 0.00645 0.0
H542 H 0.63487 0.19636 0.08413 0.0
H543 H 0.61917 0.2295 0.02046 0.0
H544 H 0.66958 0.31558 0.06147 0.0
H545 H 0.62859 0.26693 0.05434 0.0
H546 H 0.68474 0.23194 0.06764 0.0
H547 H 0.72579 0.28045 0.07446 0.0
C548 C 0.60342 0.16522 0.05945 0.0
C549 C 0.58918 0.16008 0.03727 0.0
C550 C 0.62368 0.19313 0.06727 0.0
C551 C 0.62981 0.2166 0.0533 0.0
C552 C 0.61461 0.21175 0.03168 0.0
C553 C 0.5946 0.18376 0.02368 0.0
C554 C 0.67306 0.29748 0.06335 0.0
C555 C 0.70094 0.30183 0.06842 0.0
C556 C 0.64964 0.2697 0.05909 0.0
C557 C 0.65359 0.24577 0.06031 0.0
C558 C 0.68109 0.25002 0.06671 0.0
C559 C 0.70458 0.27778 0.07054 0.0
H560 H 0.44093 0.58654 0.22503 0.0
H561 H 0.39942 0.59605 0.16271 0.0
H562 H 0.43289 0.62207 0.24627 0.0
H563 H 0.3907 0.63094 0.18406 0.0
H564 H 0.4553 0.72229 0.24696 0.0
H565 H 0.45568 0.67815 0.23634 0.0
H566 H 0.36334 0.63448 0.22216 0.0
H567 H 0.36265 0.67829 0.23323 0.0
C568 C 0.42945 0.59573 0.21612 0.0
C569 C 0.42073 0.58871 0.19232 0.0
C570 C 0.42495 0.61602 0.22821 0.0
C571 C 0.41107 0.62901 0.21679 0.0
C572 C 0.40113 0.62091 0.19331 0.0
C573 C 0.40621 0.60114 0.18108 0.0
C574 C 0.43494 0.70303 0.24232 0.0
C575 C 0.40902 0.70387 0.2407 0.0
C576 C 0.43517 0.67778 0.2363 0.0
C577 C 0.40958 0.65315 0.22822 0.0
C578 C 0.38334 0.65332 0.22824 0.0
C579 C 0.383 0.67838 0.2347 0.0
H580 H 0.84109 0.41025 0.36216 0.0
H581 H 0.87196 0.49501 0.39308 0.0
H582 H 0.79132 0.39755 0.37028 0.0
H583 H 0.82243 0.4822 0.402 0.0
H584 H 0.70347 0.37856 0.39212 0.0
H585 H 0.75348 0.38912 0.3972 0.0
H586 H 0.78376 0.47632 0.37636 0.0
H587 H 0.73423 0.46612 0.37193 0.0
C588 C 0.83721 0.4258 0.37139 0.0
C589 C 0.86011 0.45368 0.37671 0.0
C590 C 0.80876 0.41855 0.37612 0.0
C591 C 0.80285 0.43905 0.38645 0.0
C592 C 0.82617 0.46616 0.39352 0.0
C593 C 0.8545 0.47347 0.38853 0.0
C594 C 0.72084 0.40013 0.38905 0.0
C595 C 0.7148 0.4214 0.38133 0.0
C596 C 0.74948 0.40612 0.39186 0.0
C597 C 0.77264 0.43349 0.38705 0.0
C598 C 0.76654 0.4551 0.38054 0.0
C599 C 0.73801 0.44916 0.37778 0.0
H600 H 0.11714 0.51871 0.42327 0.0
H601 H 0.10563 0.59157 0.43789 0.0
H602 H 0.14931 0.53161 0.45798 0.0
H603 H 0.13782 0.60448 0.47261 0.0
H604 H 0.21508 0.63221 0.52381 0.0
H605 H 0.18791 0.62169 0.48638 0.0
H606 H 0.14409 0.53102 0.50029 0.0
H607 H 0.17141 0.54134 0.53734 0.0
C608 C 0.12144 0.53746 0.43391 0.0
C609 C 0.10862 0.55398 0.42789 0.0
C610 C 0.1399 0.54487 0.4538 0.0
C611 C 0.146 0.56898 0.46817 0.0
C612 C 0.13386 0.58598 0.46178 0.0
C613 C 0.11538 0.57856 0.44187 0.0
C614 C 0.19982 0.61001 0.5188 0.0
C615 C 0.19543 0.58765 0.53368 0.0
C616 C 0.18412 0.604 0.4974 0.0
C617 C 0.1638 0.57551 0.49033 0.0
C618 C 0.15983 0.55317 0.50502 0.0
C619 C 0.17541 0.55915 0.52639 0.0
H620 H 0.60789 0.12372 0.59346 0.0
H621 H 0.52397 0.11347 0.60774 0.0
H622 H 0.62848 0.1551 0.62846 0.0
H623 H 0.54466 0.14507 0.64262 0.0
H624 H 0.59694 0.22255 0.69278 0.0
H625 H 0.5789 0.19521 0.65556 0.0
H626 H 0.62495 0.14998 0.67117 0.0
H627 H 0.64327 0.17743 0.70818 0.0
C628 C 0.5938 0.12808 0.60409 0.0
C629 C 0.56421 0.1159 0.59784 0.0
C630 C 0.60563 0.14611 0.62413 0.0
C631 C 0.5882 0.15251 0.63838 0.0
C632 C 0.55877 0.14087 0.63186 0.0
C633 C 0.5469 0.12276 0.61184 0.0
C634 C 0.60343 0.20694 0.68822 0.0
C635 C 0.62151 0.20216 0.70358 0.0
C636 C 0.59293 0.19115 0.66693 0.0
C637 C 0.60041 0.17035 0.66043 0.0
C638 C 0.61901 0.16605 0.67552 0.0
C639 C 0.62939 0.18171 0.69684 0.0
H640 H 0.51447 0.56858 0.75339 0.0
H641 H 0.4457 0.56881 0.7119 0.0
H642 H 0.501 0.58714 0.78757 0.0
H643 H 0.43188 0.58639 0.74616 0.0
H644 H 0.39373 0.58408 0.81655 0.0
H645 H 0.41059 0.56533 0.78523 0.0
H646 H 0.49863 0.63258 0.80079 0.0
H647 H 0.48173 0.6516 0.83248 0.0
C648 C 0.49666 0.57277 0.75146 0.0
C649 C 0.48101 0.56692 0.72988 0.0
C650 C 0.48893 0.58329 0.77108 0.0
C651 C 0.46521 0.58785 0.76956 0.0
C652 C 0.44992 0.58252 0.74794 0.0
C653 C 0.45779 0.57233 0.72833 0.0
C654 C 0.41676 0.59468 0.81366 0.0
C655 C 0.43638 0.61944 0.82699 0.0
C656 C 0.42636 0.58403 0.79555 0.0
C657 C 0.45584 0.59773 0.79038 0.0
C658 C 0.47577 0.62161 0.80444 0.0
C659 C 0.46609 0.63248 0.82253 0.0
H660 H 0.90466 0.44233 0.92899 0.0
H661 H 0.93067 0.53105 0.9446 0.0
H662 H 0.87462 0.42785 0.96331 0.0
H663 H 0.90197 0.51705 0.97981 0.0
H664 H 0.8185 0.47728 0.02148 0.0
H665 H 0.8543 0.49519 0.99126 0.0
H666 H 0.87282 0.42671 0.00405 0.0
H667 H 0.83569 0.40793 0.03335 0.0
C668 C 0.90421 0.45874 0.94007 0.0
C669 C 0.9197 0.48772 0.93416 0.0
C670 C 0.88723 0.45055 0.95989 0.0
C671 C 0.88581 0.47125 0.97452 0.0
C672 C 0.90201 0.5004 0.9688 0.0
C673 C 0.91855 0.5085 0.9487 0.0
C674 C 0.83058 0.46634 0.0181 0.0
C675 C 0.82407 0.44102 0.0296 0.0
C676 C 0.85125 0.47668 0.00077 0.0
C677 C 0.86631 0.46221 0.99485 0.0
C678 C 0.86109 0.43795 0.00758 0.0
C679 C 0.83999 0.4273 0.02458 0.0
H680 H 0.44594 0.8846 0.07982 0.0
H681 H 0.46859 0.96072 0.12253 0.0
H682 H 0.43253 0.85589 0.11508 0.0
H683 H 0.45461 0.93181 0.15786 0.0
H684 H 0.3841 0.85191 0.20249 0.0
H685 H 0.40348 0.88681 0.17127 0.0
H686 H 0.46255 0.85683 0.15375 0.0
H687 H 0.44375 0.8224 0.185 0.0
C688 C 0.44791 0.89508 0.09677 0.0
C689 C 0.45827 0.92474 0.0986 0.0
C690 C 0.44046 0.87878 0.11688 0.0
C691 C 0.44275 0.8918 0.13907 0.0
C692 C 0.45273 0.92141 0.1409 0.0
C693 C 0.46076 0.93785 0.1208 0.0
C694 C 0.40167 0.85324 0.19232 0.0
C695 C 0.41226 0.83429 0.19606 0.0
C696 C 0.41273 0.87319 0.17453 0.0
C697 C 0.43418 0.87411 0.16006 0.0
C698 C 0.44579 0.85624 0.16459 0.0
C699 C 0.43511 0.83668 0.18256 0.0
H700 H 0.56724 0.48888 0.24153 0.0
H701 H 0.48427 0.41051 0.23455 0.0
H702 H 0.5823 0.46791 0.27204 0.0
H703 H 0.49839 0.39048 0.26669 0.0
H704 H 0.54697 0.35098 0.3043 0.0
H705 H 0.52768 0.37092 0.27569 0.0
H706 H 0.57724 0.45457 0.31082 0.0
H707 H 0.59749 0.4347 0.3384 0.0
C708 C 0.55209 0.4672 0.24654 0.0
C709 C 0.5246 0.45137 0.2353 0.0
C710 C 0.56055 0.45531 0.26447 0.0
C711 C 0.54156 0.42744 0.27205 0.0
C712 C 0.5138 0.41183 0.26117 0.0
C713 C 0.50551 0.42355 0.24292 0.0
C714 C 0.55342 0.37355 0.30592 0.0
C715 C 0.57407 0.39147 0.32317 0.0
C716 C 0.54231 0.38503 0.28961 0.0
C717 C 0.5512 0.41456 0.29062 0.0
C718 C 0.5706 0.43198 0.30892 0.0
C719 C 0.58215 0.42062 0.32484 0.0
H720 H 0.41398 0.89169 0.40826 0.0
H721 H 0.5041 0.9329 0.39109 0.0
H722 H 0.40161 0.85779 0.37493 0.0
H723 H 0.49192 0.90045 0.35693 0.0
H724 H 0.46789 0.82612 0.30709 0.0
H725 H 0.47804 0.85446 0.34355 0.0
H726 H 0.39636 0.85275 0.33447 0.0
H727 H 0.38561 0.8229 0.29889 0.0
C728 C 0.43106 0.8936 0.39711 0.0
C729 C 0.45994 0.91477 0.40216 0.0
C730 C 0.42403 0.8743 0.37792 0.0
C731 C 0.44571 0.87618 0.36305 0.0
C732 C 0.47463 0.8977 0.36817 0.0
C733 C 0.48167 0.91654 0.38763 0.0
C734 C 0.45198 0.83152 0.31311 0.0
C735 C 0.42598 0.82232 0.30013 0.0
C736 C 0.45789 0.84805 0.33392 0.0
C737 C 0.43826 0.8564 0.34198 0.0
C738 C 0.4119 0.84652 0.32918 0.0
C739 C 0.40573 0.82945 0.30865 0.0
H740 H 0.57621 0.43516 0.54618 0.0
H741 H 0.53545 0.47315 0.50544 0.0
H742 H 0.59228 0.423 0.50998 0.0
H743 H 0.5509 0.46044 0.46933 0.0
H744 H 0.61405 0.4655 0.41385 0.0
H745 H 0.5975 0.47607 0.45023 0.0
H746 H 0.57195 0.39098 0.47391 0.0
H747 H 0.58876 0.38031 0.43751 0.0
C748 C 0.57064 0.44083 0.5295 0.0
C749 C 0.5546 0.45512 0.52864 0.0
C750 C 0.57961 0.43365 0.50879 0.0
C751 C 0.57291 0.44085 0.48684 0.0
C752 C 0.55664 0.45489 0.486 0.0
C753 C 0.54753 0.46189 0.50666 0.0
C754 C 0.60496 0.44899 0.42678 0.0
C755 C 0.60272 0.42202 0.4227 0.0
C756 C 0.59531 0.45502 0.44758 0.0
C757 C 0.58332 0.43431 0.46487 0.0
C758 C 0.58129 0.40743 0.46096 0.0
C759 C 0.5908 0.4013 0.44005 0.0
H760 H 0.13503 0.57551 0.75206 0.0
H761 H 0.06758 0.57907 0.71131 0.0
H762 H 0.16404 0.58637 0.71729 0.0
H763 H 0.09721 0.5908 0.67659 0.0
H764 H 0.19567 0.57687 0.64701 0.0
H765 H 0.16088 0.56201 0.67813 0.0
H766 H 0.14557 0.63196 0.66331 0.0
H767 H 0.18043 0.64692 0.63194 0.0
C768 C 0.12625 0.57836 0.73566 0.0
C769 C 0.09886 0.57621 0.73449 0.0
C770 C 0.14291 0.58463 0.71575 0.0
C771 C 0.13274 0.58916 0.69422 0.0
C772 C 0.1056 0.5875 0.69302 0.0
C773 C 0.08874 0.58093 0.71293 0.0
C774 C 0.18454 0.58881 0.65004 0.0
C775 C 0.19097 0.61321 0.63711 0.0
C776 C 0.16477 0.5804 0.66799 0.0
C777 C 0.15087 0.59608 0.67332 0.0
C778 C 0.15597 0.61947 0.65953 0.0
C779 C 0.17596 0.62805 0.64162 0.0
H780 H 0.50749 0.11867 0.90314 0.0
H781 H 0.56587 0.08716 0.88769 0.0
H782 H 0.52354 0.14862 0.86876 0.0
H783 H 0.58131 0.11625 0.85291 0.0
H784 H 0.63124 0.20214 0.81667 0.0
H785 H 0.61039 0.16582 0.84592 0.0
H786 H 0.525 0.151 0.82663 0.0
H787 H 0.54623 0.18832 0.79753 0.0
C788 C 0.52341 0.11783 0.89212 0.0
C789 C 0.53577 0.10097 0.89819 0.0
C790 C 0.53249 0.13483 0.87235 0.0
C791 C 0.55391 0.13504 0.85814 0.0
C792 C 0.56526 0.11711 0.86374 0.0
C793 C 0.55643 0.10043 0.88362 0.0
C794 C 0.60796 0.19086 0.81832 0.0
C795 C 0.59041 0.19817 0.80477 0.0
C796 C 0.59593 0.16986 0.8351 0.0
C797 C 0.56597 0.15544 0.8387 0.0
C798 C 0.54821 0.16198 0.82453 0.0
C799 C 0.56033 0.18319 0.80775 0.0
H800 H 0.46127 0.60758 0.05077 0.0
H801 H 0.41358 0.51817 0.02841 0.0
H802 H 0.44756 0.6208 0.01386 0.0
H803 H 0.40135 0.5311 0.99092 0.0
H804 H 0.36351 0.55744 0.93232 0.0
H805 H 0.37388 0.54629 0.97121 0.0
H806 H 0.45597 0.62602 0.97419 0.0
H807 H 0.44438 0.63788 0.93585 0.0
C808 C 0.44792 0.59082 0.03782 0.0
C809 C 0.43827 0.56189 0.04239 0.0
C810 C 0.44024 0.59833 0.01655 0.0
C811 C 0.42329 0.5771 0.99915 0.0
C812 C 0.41377 0.54811 0.00393 0.0
C813 C 0.42091 0.54061 0.02538 0.0
C814 C 0.38371 0.57262 0.94139 0.0
C815 C 0.4032 0.59846 0.93102 0.0
C816 C 0.38982 0.56615 0.96368 0.0
C817 C 0.416 0.58501 0.97598 0.0
C818 C 0.43538 0.61108 0.96559 0.0
C819 C 0.42888 0.61786 0.94349 0.0
H820 H 0.8761 0.48297 0.24521 0.0
H821 H 0.91191 0.42909 0.22687 0.0
H822 H 0.84332 0.46425 0.21059 0.0
H823 H 0.88089 0.41171 0.19153 0.0
H824 H 0.80967 0.36764 0.13776 0.0
H825 H 0.83536 0.38291 0.17573 0.0
H826 H 0.83962 0.46524 0.17027 0.0
H827 H 0.81197 0.44882 0.13304 0.0
C828 C 0.87701 0.46723 0.2336 0.0
C829 C 0.89632 0.4573 0.23869 0.0
C830 C 0.85839 0.4566 0.21364 0.0
C831 C 0.85916 0.43627 0.19804 0.0
C832 C 0.87884 0.42665 0.20327 0.0
C833 C 0.89691 0.43678 0.22346 0.0
C834 C 0.81576 0.38884 0.14492 0.0
C835 C 0.80891 0.40707 0.13246 0.0
C836 C 0.83083 0.39781 0.16661 0.0
C837 C 0.84028 0.42565 0.17611 0.0
C838 C 0.83256 0.44356 0.16385 0.0
C839 C 0.81676 0.43423 0.1424 0.0
loop_
_geom_bond_atom_site_label_1
_geom_bond_atom_site_label_2
_geom_bond_distance
_geom_bond_site_symmetry_2
_ccdc_geom_bond_type
C0 C1 1.384 . S
C0 C2 1.384 . S
C0 H28 0.931 . S
C1 C0 1.384 . S
C1 C4 1.382 . S
C2 C0 1.384 . S
C2 C3 1.381 . S
C2 H29 0.930 . S
C3 C2 1.381 . S
C3 C5 1.381 . S
C3 C6 1.487 . S
C4 C1 1.382 . S
C4 C5 1.387 . S
C4 H30 0.930 . S
C5 C3 1.381 . S
C5 C4 1.387 . S
C5 H31 0.931 . S
C6 C3 1.487 . S
C6 C13 1.399 . S
C6 N44 1.343 . S
C7 C8 1.384 . S
C7 C9 1.384 . S
C7 H32 0.931 . S
C8 C7 1.384 . S
C8 C11 1.382 . S
C9 C7 1.384 . S
C9 C10 1.381 . S
C9 H33 0.930 . S
C10 C9 1.381 . S
C10 C12 1.381 . S
C10 C13 1.487 . S
C11 C8 1.382 . S
C11 C12 1.387 . S
C11 H34 0.930 . S
C12 C10 1.381 . S
C12 C11 1.387 . S
C12 H35 0.931 . S
C13 C6 1.399 . S
C13 C10 1.487 . S
C13 N45 1.343 1_655 S
C14 C15 1.384 . S
C14 C16 1.384 . S
C14 H36 0.931 . S
C15 C14 1.384 . S
C15 C18 1.382 . S
C16 C14 1.384 . S
C16 C17 1.381 . S
C16 H37 0.930 . S
C17 C16 1.381 . S
C17 C19 1.381 . S
C17 C20 1.487 . S
C18 C15 1.382 . S
C18 C19 1.387 . S
C18 H38 0.930 . S
C19 C17 1.381 . S
C19 C18 1.387 . S
C19 H39 0.931 . S
C20 C17 1.487 . S
C20 C27 1.399 . S
C20 N45 1.343 . S
C21 C22 1.384 . S
C21 C23 1.384 . S
C21 H40 0.931 . S
C22 C21 1.384 . S
C22 C25 1.382 . S
C23 C21 1.384 . S
C23 C24 1.381 . S
C23 H41 0.930 . S
C24 C23 1.381 . S
C24 C26 1.381 . S
C24 C27 1.487 . S
C25 C22 1.382 . S
C25 C26 1.387 . S
C25 H42 0.930 . S
C26 C24 1.381 . S
C26 C25 1.387 . S
C26 H43 0.931 . S
C27 C20 1.399 . S
C27 C24 1.487 . S
C27 N44 1.343 1_455 S
H28 C0 0.931 . S
H29 C2 0.930 . S
H30 C4 0.930 . S
H31 C5 0.931 . S
H32 C7 0.931 . S
H33 C9 0.930 . S
H34 C11 0.930 . S
H35 C12 0.931 . S
H36 C14 0.931 . S
H37 C16 0.930 . S
H38 C18 0.930 . S
H39 C19 0.931 . S
H40 C21 0.931 . S
H41 C23 0.930 . S
H42 C25 0.930 . S
H43 C26 0.931 . S
N44 C6 1.343 . S
N44 C27 1.343 1_655 S
N45 C13 1.343 1_455 S
N45 C20 1.343 . S
C46 C47 1.384 . S
C46 C48 1.384 . S
C46 H74 0.931 . S
C47 C46 1.384 . S
C47 C50 1.382 . S
C48 C46 1.384 . S
C48 C49 1.381 . S
C48 H75 0.930 . S
C49 C48 1.381 . S
C49 C51 1.381 . S
C49 C52 1.487 . S
C50 C47 1.382 . S
C50 C51 1.387 . S
C50 H76 0.930 . S
C51 C49 1.381 . S
C51 C50 1.387 . S
C51 H77 0.931 . S
C52 C49 1.487 . S
C52 C59 1.399 . S
C52 N90 1.343 1_565 S
C53 C54 1.384 . S
C53 C55 1.384 . S
C53 H78 0.931 . S
C54 C53 1.384 . S
C54 C57 1.382 . S
C55 C53 1.384 . S
C55 C56 1.381 . S
C55 H79 0.930 . S
C56 C55 1.381 . S
C56 C58 1.381 . S
C56 C59 1.487 . S
C57 C54 1.382 . S
C57 C58 1.387 . S
C57 H80 0.930 . S
C58 C56 1.381 . S
C58 C57 1.387 . S
C58 H81 0.931 . S
C59 C52 1.399 . S
C59 C56 1.487 . S
C59 N91 1.343 1_565 S
C60 C61 1.384 . S
C60 C62 1.384 . S
C60 H82 0.931 . S
C61 C60 1.384 . S
C61 C64 1.382 . S
C62 C60 1.384 . S
C62 C63 1.381 . S
C62 H83 0.930 . S
C63 C62 1.381 . S
C63 C65 1.381 . S
C63 C66 1.487 . S
C64 C61 1.382 . S
C64 C65 1.387 . S
C64 H84 0.930 . S
C65 C63 1.381 . S
C65 C64 1.387 . S
C65 H85 0.931 . S
C66 C63 1.487 . S
C66 C73 1.399 . S
C66 N91 1.343 . S
C67 C68 1.384 . S
C67 C69 1.384 . S
C67 H86 0.931 . S
C68 C67 1.384 . S
C68 C71 1.382 . S
C69 C67 1.384 . S
C69 C70 1.381 . S
C69 H87 0.930 . S
C70 C69 1.381 . S
C70 C72 1.381 . S
C70 C73 1.487 . S
C71 C68 1.382 . S
C71 C72 1.387 . S
C71 H88 0.930 . S
C72 C70 1.381 . S
C72 C71 1.387 . S
C72 H89 0.931 . S
C73 C66 1.399 . S
C73 C70 1.487 . S
C73 N90 1.343 . S
H74 C46 0.931 . S
H75 C48 0.930 . S
H76 C50 0.930 . S
H77 C51 0.931 . S
H78 C53 0.931 . S
H79 C55 0.930 . S
H80 C57 0.930 . S
H81 C58 0.931 . S
H82 C60 0.931 . S
H83 C62 0.930 . S
H84 C64 0.930 . S
H85 C65 0.931 . S
H86 C67 0.931 . S
H87 C69 0.930 . S
H88 C71 0.930 . S
H89 C72 0.931 . S
N90 C52 1.343 1_545 S
N90 C73 1.343 . S
N91 C59 1.343 1_545 S
N91 C66 1.343 . S
C92 C93 1.384 . S
C92 C94 1.384 . S
C92 H120 0.931 . S
C93 C92 1.384 . S
C93 C96 1.382 . S
C94 C92 1.384 . S
C94 C95 1.381 . S
C94 H121 0.930 . S
C95 C94 1.381 . S
C95 C97 1.381 . S
C95 C98 1.487 . S
C96 C93 1.382 . S
C96 C97 1.387 . S
C96 H122 0.930 . S
C97 C95 1.381 . S
C97 C96 1.387 . S
C97 H123 0.931 . S
C98 C95 1.487 . S
C98 C105 1.399 . S
C98 N136 1.343 . S
C99 C100 1.384 . S
C99 C101 1.384 . S
C99 H124 0.931 . S
C100 C99 1.384 . S
C100 C103 1.382 . S
C101 C99 1.384 . S
C101 C102 1.381 . S
C101 H125 0.930 . S
C102 C101 1.381 . S
C102 C104 1.381 . S
C102 C105 1.487 . S
C103 C100 1.382 . S
C103 C104 1.387 . S
C103 H126 0.930 . S
C104 C102 1.381 . S
C104 C103 1.387 . S
C104 H127 0.931 . S
C105 C98 1.399 . S
C105 C102 1.487 . S
C105 N137 1.343 . S
C106 C107 1.384 . S
C106 C108 1.384 . S
C106 H128 0.931 . S
C107 C106 1.384 . S
C107 C110 1.382 . S
C108 C106 1.384 . S
C108 C109 1.381 . S
C108 H129 0.930 . S
C109 C108 1.381 . S
C109 C111 1.381 . S
C109 C112 1.487 . S
C110 C107 1.382 . S
C110 C111 1.387 . S
C110 H130 0.930 . S
C111 C109 1.381 . S
C111 C110 1.387 . S
C111 H131 0.931 . S
C112 C109 1.487 . S
C112 C119 1.399 . S
C112 N137 1.343 . S
C113 C114 1.384 . S
C113 C115 1.384 . S
C113 H132 0.931 . S
C114 C113 1.384 . S
C114 C117 1.382 . S
C115 C113 1.384 . S
C115 C116 1.381 . S
C115 H133 0.930 . S
C116 C115 1.381 . S
C116 C118 1.381 . S
C116 C119 1.487 . S
C117 C114 1.382 . S
C117 C118 1.387 . S
C117 H134 0.930 . S
C118 C116 1.381 . S
C118 C117 1.387 . S
C118 H135 0.931 . S
C119 C112 1.399 . S
C119 C116 1.487 . S
C119 N136 1.343 . S
H120 C92 0.931 . S
H121 C94 0.930 . S
H122 C96 0.930 . S
H123 C97 0.931 . S
H124 C99 0.931 . S
H125 C101 0.930 . S
H126 C103 0.930 . S
H127 C104 0.931 . S
H128 C106 0.931 . S
H129 C108 0.930 . S
H130 C110 0.930 . S
H131 C111 0.931 . S
H132 C113 0.931 . S
H133 C115 0.930 . S
H134 C117 0.930 . S
H135 C118 0.931 . S
N136 C98 1.343 . S
N136 C119 1.343 . S
N137 C105 1.343 . S
N137 C112 1.343 . S
C138 C139 1.384 . S
C138 C140 1.384 . S
C138 H166 0.931 . S
C139 C138 1.384 . S
C139 C142 1.382 . S
C140 C138 1.384 . S
C140 C141 1.381 . S
C140 H167 0.930 . S
C141 C140 1.381 . S
C141 C143 1.381 . S
C141 C144 1.487 . S
C142 C139 1.382 . S
C142 C143 1.387 . S
C142 H168 0.930 . S
C143 C141 1.381 . S
C143 C142 1.387 . S
C143 H169 0.931 . S
C144 C141 1.487 . S
C144 C151 1.399 . S
C144 N182 1.367 . S
C145 C146 1.384 . S
C145 C147 1.384 . S
C145 H170 0.931 . S
C146 C145 1.384 . S
C146 C149 1.382 . S
C147 C145 1.384 . S
C147 C148 1.381 . S
C147 H171 0.930 . S
C148 C147 1.381 . S
C148 C150 1.381 . S
C148 C151 1.487 . S
C149 C146 1.382 . S
C149 C150 1.387 . S
C149 H172 0.930 . S
C150 C148 1.381 . S
C150 C149 1.387 . S
C150 H173 0.931 . S
C151 C144 1.399 . S
C151 C148 1.487 . S
C151 N183 1.343 1_655 S
C152 C153 1.384 . S
C152 C154 1.384 . S
C152 H174 0.931 . S
C153 C152 1.384 . S
C153 C156 1.382 . S
C154 C152 1.384 . S
C154 C155 1.381 . S
C154 H175 0.930 . S
C155 C154 1.381 . S
C155 C157 1.381 . S
C155 C158 1.487 . S
C156 C153 1.382 . S
C156 C157 1.387 . S
C156 H176 0.930 . S
C157 C155 1.381 . S
C157 C156 1.387 . S
C157 H177 0.931 . S
C158 C155 1.487 . S
C158 C165 1.399 . S
C158 N183 1.343 . S
C159 C160 1.384 . S
C159 C161 1.384 . S
C159 H178 0.931 . S
C160 C159 1.384 . S
C160 C163 1.382 . S
C161 C159 1.384 . S
C161 C162 1.381 . S
C161 H179 0.930 . S
C162 C161 1.381 . S
C162 C164 1.381 . S
C162 C165 1.487 . S
C163 C160 1.382 . S
C163 C164 1.387 . S
C163 H180 0.930 . S
C164 C162 1.381 . S
C164 C163 1.387 . S
C164 H181 0.931 . S
C165 C158 1.399 . S
C165 C162 1.487 . S
C165 N182 1.305 1_455 S
H166 C138 0.931 . S
H167 C140 0.930 . S
H168 C142 0.930 . S
H169 C143 0.931 . S
H170 C145 0.931 . S
H171 C147 0.930 . S
H172 C149 0.930 . S
H173 C150 0.931 . S
H174 C152 0.931 . S
H175 C154 0.930 . S
H176 C156 0.930 . S
H177 C157 0.931 . S
H178 C159 0.931 . S
H179 C161 0.930 . S
H180 C163 0.930 . S
H181 C164 0.931 . S
N182 C144 1.367 . S
N182 C165 1.305 1_655 S
N183 C151 1.343 1_455 S
N183 C158 1.343 . S
C184 C185 1.384 . S
C184 C186 1.384 . S
C184 H212 0.931 . S
C185 C184 1.384 . S
C185 C188 1.382 . S
C186 C184 1.384 . S
C186 C187 1.381 . S
C186 H213 0.922 1_556 S
C187 C186 1.381 . S
C187 C189 1.381 . S
C187 C190 1.487 . S
C188 C185 1.382 . S
C188 C189 1.387 . S
C188 H214 0.930 . S
C189 C187 1.381 . S
C189 C188 1.387 . S
C189 H215 0.931 . S
C190 C187 1.487 . S
C190 C197 1.406 1_556 S
C190 N228 1.343 1_565 S
C191 C192 1.384 . S
C191 C193 1.384 . S
C191 H216 0.931 . S
C192 C191 1.384 . S
C192 C195 1.382 . S
C193 C191 1.384 . S
C193 C194 1.381 . S
C193 H217 0.930 . S
C194 C193 1.381 . S
C194 C196 1.381 . S
C194 C197 1.503 . S
C195 C192 1.382 . S
C195 C196 1.387 . S
C195 H218 0.930 . S
C196 C194 1.381 . S
C196 C195 1.387 . S
C196 H219 0.931 1_565 S
C197 C190 1.406 1_554 S
C197 C194 1.503 . S
C197 N229 1.319 1_565 S
C198 C199 1.384 . S
C198 C200 1.384 1_554 S
C198 H220 0.931 1_554 S
C199 C198 1.384 . S
C199 C202 1.382 . S
C200 C198 1.384 1_556 S
C200 C201 1.381 1_556 S
C200 H221 0.930 . S
C201 C200 1.381 1_554 S
C201 C203 1.381 . S
C201 C204 1.487 1_554 S
C202 C199 1.382 . S
C202 C203 1.387 . S
C202 H222 0.930 . S
C203 C201 1.381 . S
C203 C202 1.387 . S
C203 H223 0.931 . S
C204 C201 1.487 1_556 S
C204 C211 1.399 . S
C204 N229 1.343 1_556 S
C205 C206 1.384 . S
C205 C207 1.384 . S
C205 H224 0.931 . S
C206 C205 1.384 . S
C206 C209 1.382 . S
C207 C205 1.384 . S
C207 C208 1.381 . S
C207 H225 0.930 . S
C208 C207 1.381 . S
C208 C210 1.381 . S
C208 C211 1.487 . S
C209 C206 1.382 . S
C209 C210 1.387 . S
C209 H226 0.930 . S
C210 C208 1.381 . S
C210 C209 1.387 . S
C210 H227 0.931 . S
C211 C204 1.399 . S
C211 C208 1.487 . S
C211 N228 1.343 . S
H212 C184 0.931 . S
H213 C186 0.922 1_554 S
H214 C188 0.930 . S
H215 C189 0.931 . S
H216 C191 0.931 . S
H217 C193 0.930 . S
H218 C195 0.930 . S
H219 C196 0.931 1_545 S
H220 C198 0.931 1_556 S
H221 C200 0.930 . S
H222 C202 0.930 . S
H223 C203 0.931 . S
H224 C205 0.931 . S
H225 C207 0.930 . S
H226 C209 0.930 . S
H227 C210 0.931 . S
N228 C190 1.343 1_545 S
N228 C211 1.343 . S
N229 C197 1.319 1_545 S
N229 C204 1.343 1_554 S
C230 C231 1.384 . S
C230 C232 1.384 . S
C230 H258 0.931 . S
C231 C230 1.384 . S
C231 C234 1.382 . S
C232 C230 1.384 . S
C232 C233 1.381 . S
C232 H259 0.930 . S
C233 C232 1.381 . S
C233 C235 1.381 . S
C233 C236 1.487 . S
C234 C231 1.382 . S
C234 C235 1.387 . S
C234 H260 0.930 . S
C235 C233 1.381 . S
C235 C234 1.387 . S
C235 H261 0.931 . S
C236 C233 1.487 . S
C236 C243 1.399 . S
C236 N274 1.343 . S
C237 C238 1.384 . S
C237 C239 1.384 . S
C237 H262 0.931 . S
C238 C237 1.384 . S
C238 C241 1.382 . S
C239 C237 1.384 . S
C239 C240 1.381 . S
C239 H263 0.930 . S
C240 C239 1.381 . S
C240 C242 1.381 . S
C240 C243 1.487 . S
C241 C238 1.382 . S
C241 C242 1.387 . S
C241 H264 0.930 . S
C242 C240 1.381 . S
C242 C241 1.387 . S
C242 H265 0.931 . S
C243 C236 1.399 . S
C243 C240 1.487 . S
C243 N275 1.343 . S
C244 C245 1.384 . S
C244 C246 1.384 . S
C244 H266 0.931 . S
C245 C244 1.384 . S
C245 C248 1.382 . S
C246 C244 1.384 . S
C246 C247 1.381 . S
C246 H267 0.930 . S
C247 C246 1.381 . S
C247 C249 1.381 . S
C247 C250 1.487 . S
C248 C245 1.382 . S
C248 C249 1.387 . S
C248 H268 0.930 . S
C249 C247 1.381 . S
C249 C248 1.387 . S
C249 H269 0.931 . S
C250 C247 1.487 . S
C250 C257 1.399 . S
C250 N275 1.343 . S
C251 C252 1.384 . S
C251 C253 1.384 . S
C251 H270 0.931 . S
C252 C251 1.384 . S
C252 C255 1.382 . S
C253 C251 1.384 . S
C253 C254 1.381 . S
C253 H271 0.930 . S
C254 C253 1.381 . S
C254 C256 1.381 . S
C254 C257 1.487 . S
C255 C252 1.382 . S
C255 C256 1.387 . S
C255 H272 0.930 . S
C256 C254 1.381 . S
C256 C255 1.387 . S
C256 H273 0.931 . S
C257 C250 1.399 . S
C257 C254 1.487 . S
C257 N274 1.343 . S
H258 C230 0.931 . S
H259 C232 0.930 . S
H260 C234 0.930 . S
H261 C235 0.931 . S
H262 C237 0.931 . S
H263 C239 0.930 . S
H264 C241 0.930 . S
H265 C242 0.931 . S
H266 C244 0.931 . S
H267 C246 0.930 . S
H268 C248 0.930 . S
H269 C249 0.931 . S
H270 C251 0.931 . S
H271 C253 0.930 . S
H272 C255 0.930 . S
H273 C256 0.931 . S
N274 C236 1.343 . S
N274 C257 1.343 . S
N275 C243 1.343 . S
N275 C250 1.343 . S
Mg276 O277 2.028 . S
Mg276 O283 1.986 . S
Mg276 O285 2.114 . S
Mg276 O286 2.251 . S
Mg276 O289 2.010 . S
O277 Mg276 2.028 . S
O277 C280 1.250 . S
O278 Mg279 2.028 . S
O278 C280 1.248 . S
Mg279 O278 2.028 . S
Mg279 O284 2.032 . S
Mg279 O286 2.079 . S
C280 O277 1.250 . S
C280 O278 1.248 . S
C281 O282 1.264 . S
C281 O289 1.249 . S
O282 C281 1.264 . S
O283 Mg276 1.986 . S
O283 C287 1.246 . S
O284 Mg279 2.032 . S
O284 C287 1.259 . S
O285 Mg276 2.114 . S
O285 C288 1.252 . S
O286 Mg276 2.251 . S
O286 Mg279 2.079 . S
O286 C288 1.273 . S
C287 O283 1.246 . S
C287 O284 1.259 . S
C288 O285 1.252 . S
C288 O286 1.273 . S
O289 Mg276 2.010 . S
O289 C281 1.249 . S
Mg290 O291 2.028 . S
Mg290 O297 1.986 . S
Mg290 O299 2.114 . S
Mg290 O300 2.251 . S
Mg290 O303 2.010 . S
O291 Mg290 2.028 . S
O291 C294 1.250 . S
O292 Mg293 2.028 . S
O292 C294 1.248 . S
Mg293 O292 2.028 . S
Mg293 O298 2.032 . S
Mg293 O300 2.079 . S
C294 O291 1.250 . S
C294 O292 1.248 . S
C295 O296 1.264 . S
C295 O303 1.249 . S
O296 C295 1.264 . S
O297 Mg290 1.986 . S
O297 C301 1.246 . S
O298 Mg293 2.032 . S
O298 C301 1.259 . S
O299 Mg290 2.114 . S
O299 C302 1.252 . S
O300 Mg290 2.251 . S
O300 Mg293 2.079 . S
O300 C302 1.273 . S
C301 O297 1.246 . S
C301 O298 1.259 . S
C302 O299 1.252 . S
C302 O300 1.273 . S
O303 Mg290 2.010 . S
O303 C295 1.249 . S
Mg304 O305 2.028 . S
Mg304 O311 1.986 . S
Mg304 O313 2.114 . S
Mg304 O314 2.251 . S
Mg304 O317 2.010 . S
O305 Mg304 2.028 . S
O305 C308 1.250 . S
O306 Mg307 2.028 . S
O306 C308 1.248 . S
Mg307 O306 2.028 . S
Mg307 O312 2.032 . S
Mg307 O314 2.079 . S
C308 O305 1.250 . S
C308 O306 1.248 . S
C309 O310 1.264 . S
C309 O317 1.249 . S
O310 C309 1.264 . S
O311 Mg304 1.986 . S
O311 C315 1.246 . S
O312 Mg307 2.032 . S
O312 C315 1.259 . S
O313 Mg304 2.114 . S
O313 C316 1.252 . S
O314 Mg304 2.251 . S
O314 Mg307 2.079 . S
O314 C316 1.273 . S
C315 O311 1.246 . S
C315 O312 1.259 . S
C316 O313 1.252 . S
C316 O314 1.273 . S
O317 Mg304 2.010 . S
O317 C309 1.249 . S
Mg318 O319 2.028 . S
Mg318 O325 1.986 . S
Mg318 O327 2.114 . S
Mg318 O328 2.251 . S
Mg318 O331 2.010 . S
O319 Mg318 2.028 . S
O319 C322 1.250 . S
O320 Mg321 2.028 . S
O320 C322 1.248 . S
Mg321 O320 2.028 . S
Mg321 O326 2.032 . S
Mg321 O328 2.079 . S
C322 O319 1.250 . S
C322 O320 1.248 . S
C323 O324 1.264 . S
C323 O331 1.249 . S
O324 C323 1.264 . S
O325 Mg318 1.986 . S
O325 C329 1.246 . S
O326 Mg321 2.032 . S
O326 C329 1.259 . S
O327 Mg318 2.114 . S
O327 C330 1.252 . S
O328 Mg318 2.251 . S
O328 Mg321 2.079 . S
O328 C330 1.273 . S
C329 O325 1.246 . S
C329 O326 1.259 . S
C330 O327 1.252 . S
C330 O328 1.273 . S
O331 Mg318 2.010 . S
O331 C323 1.249 . S
Mg332 O333 2.028 . S
Mg332 O339 1.986 . S
Mg332 O341 2.114 . S
Mg332 O342 2.251 . S
Mg332 O345 2.010 . S
O333 Mg332 2.028 . S
O333 C336 1.250 . S
O334 Mg335 2.028 . S
O334 C336 1.248 . S
Mg335 O334 2.028 . S
Mg335 O340 2.032 . S
Mg335 O342 2.079 . S
C336 O333 1.250 . S
C336 O334 1.248 . S
C337 O338 1.264 . S
C337 O345 1.249 . S
O338 C337 1.264 . S
O339 Mg332 1.986 . S
O339 C343 1.246 . S
O340 Mg335 2.032 . S
O340 C343 1.259 . S
O341 Mg332 2.114 . S
O341 C344 1.252 . S
O342 Mg332 2.251 . S
O342 Mg335 2.079 . S
O342 C344 1.273 . S
C343 O339 1.246 . S
C343 O340 1.259 . S
C344 O341 1.252 . S
C344 O342 1.273 . S
O345 Mg332 2.010 . S
O345 C337 1.249 . S
Mg346 O347 2.028 . S
Mg346 O353 1.986 . S
Mg346 O355 2.114 . S
Mg346 O356 2.251 . S
Mg346 O359 2.010 . S
O347 Mg346 2.028 . S
O347 C350 1.250 . S
O348 Mg349 2.028 . S
O348 C350 1.248 . S
Mg349 O348 2.028 . S
Mg349 O354 2.032 . S
Mg349 O356 2.079 . S
C350 O347 1.250 . S
C350 O348 1.248 . S
C351 O352 1.264 . S
C351 O359 1.249 . S
O352 C351 1.264 . S
O353 Mg346 1.986 . S
O353 C357 1.246 . S
O354 Mg349 2.032 . S
O354 C357 1.259 . S
O355 Mg346 2.114 . S
O355 C358 1.252 . S
O356 Mg346 2.251 . S
O356 Mg349 2.079 . S
O356 C358 1.273 . S
C357 O353 1.246 . S
C357 O354 1.259 . S
C358 O355 1.252 . S
C358 O356 1.273 . S
O359 Mg346 2.010 . S
O359 C351 1.249 . S
H360 C368 0.950 . S
H361 C373 0.950 . S
H362 C370 0.950 . S
H363 C372 0.950 . S
H364 C374 0.950 . S
H365 C376 0.950 . S
H366 C378 0.950 . S
H367 C379 0.950 . S
C368 H360 0.950 . S
C368 C369 1.386 . S
C368 C370 1.391 . S
C369 C368 1.386 . S
C369 C373 1.393 . S
C370 H362 0.950 . S
C370 C368 1.391 . S
C370 C371 1.400 . S
C371 C370 1.400 . S
C371 C372 1.398 . S
C371 C377 1.491 . S
C372 H363 0.950 . S
C372 C371 1.398 . S
C372 C373 1.391 . S
C373 H361 0.950 . S
C373 C369 1.393 . S
C373 C372 1.391 . S
C374 H364 0.950 . S
C374 C375 1.386 . S
C374 C376 1.391 . S
C375 C374 1.386 . S
C375 C379 1.393 . S
C376 H365 0.950 . S
C376 C374 1.391 . S
C376 C377 1.400 . S
C377 C371 1.491 . S
C377 C376 1.400 . S
C377 C378 1.398 . S
C378 H366 0.950 . S
C378 C377 1.398 . S
C378 C379 1.391 . S
C379 H367 0.950 . S
C379 C375 1.393 . S
C379 C378 1.391 . S
H380 C388 0.950 . S
H381 C393 0.950 . S
H382 C390 0.950 . S
H383 C392 0.950 . S
H384 C394 0.950 . S
H385 C396 0.950 . S
H386 C398 0.950 . S
H387 C399 0.950 . S
C388 H380 0.950 . S
C388 C389 1.386 . S
C388 C390 1.391 . S
C389 C388 1.386 . S
C389 C393 1.393 . S
C390 H382 0.950 . S
C390 C388 1.391 . S
C390 C391 1.400 . S
C391 C390 1.400 . S
C391 C392 1.398 . S
C391 C397 1.491 . S
C392 H383 0.950 . S
C392 C391 1.398 . S
C392 C393 1.391 . S
C393 H381 0.950 . S
C393 C389 1.393 . S
C393 C392 1.391 . S
C394 H384 0.950 . S
C394 C395 1.386 . S
C394 C396 1.391 . S
C395 C394 1.386 . S
C395 C399 1.393 . S
C396 H385 0.950 . S
C396 C394 1.391 . S
C396 C397 1.400 . S
C397 C391 1.491 . S
C397 C396 1.400 . S
C397 C398 1.398 . S
C398 H386 0.950 . S
C398 C397 1.398 . S
C398 C399 1.391 . S
C399 H387 0.950 . S
C399 C395 1.393 . S
C399 C398 1.391 . S
H400 C408 0.950 . S
H401 C413 0.950 . S
H402 C410 0.950 . S
H403 C412 0.950 . S
H404 C414 0.950 . S
H405 C416 0.950 . S
H406 C418 0.950 . S
H407 C419 0.950 . S
C408 H400 0.950 . S
C408 C409 1.386 . S
C408 C410 1.391 . S
C409 C408 1.386 . S
C409 C413 1.393 . S
C410 H402 0.950 . S
C410 C408 1.391 . S
C410 C411 1.400 . S
C411 C410 1.400 . S
C411 C412 1.398 . S
C411 C417 1.491 . S
C412 H403 0.950 . S
C412 C411 1.398 . S
C412 C413 1.391 . S
C413 H401 0.950 . S
C413 C409 1.393 . S
C413 C412 1.391 . S
C414 H404 0.950 . S
C414 C415 1.386 . S
C414 C416 1.391 . S
C415 C414 1.386 . S
C415 C419 1.393 . S
C416 H405 0.950 . S
C416 C414 1.391 . S
C416 C417 1.400 . S
C417 C411 1.491 . S
C417 C416 1.400 . S
C417 C418 1.398 . S
C418 H406 0.950 . S
C418 C417 1.398 . S
C418 C419 1.391 . S
C419 H407 0.950 . S
C419 C415 1.393 . S
C419 C418 1.391 . S
H420 C428 0.950 . S
H421 C433 0.950 . S
H422 C430 0.950 . S
H423 C432 0.950 . S
H424 C434 0.950 . S
H425 C436 0.950 . S
H426 C438 0.950 . S
H427 C439 0.950 . S
C428 H420 0.950 . S
C428 C429 1.386 . S
C428 C430 1.391 . S
C429 C428 1.386 . S
C429 C433 1.393 . S
C430 H422 0.950 . S
C430 C428 1.391 . S
C430 C431 1.400 . S
C431 C430 1.400 . S
C431 C432 1.398 . S
C431 C437 1.491 . S
C432 H423 0.950 . S
C432 C431 1.398 . S
C432 C433 1.391 . S
C433 H421 0.950 . S
C433 C429 1.393 . S
C433 C432 1.391 . S
C434 H424 0.950 . S
C434 C435 1.386 . S
C434 C436 1.391 . S
C435 C434 1.386 . S
C435 C439 1.393 . S
C436 H425 0.950 . S
C436 C434 1.391 . S
C436 C437 1.400 . S
C437 C431 1.491 . S
C437 C436 1.400 . S
C437 C438 1.398 . S
C438 H426 0.950 . S
C438 C437 1.398 . S
C438 C439 1.391 . S
C439 H427 0.950 . S
C439 C435 1.393 . S
C439 C438 1.391 . S
H440 C448 0.950 . S
H441 C453 0.950 . S
H442 C450 0.950 . S
H443 C452 0.950 . S
H444 C454 0.950 . S
H445 C456 0.950 . S
H446 C458 0.950 . S
H447 C459 0.950 . S
C448 H440 0.950 . S
C448 C449 1.386 . S
C448 C450 1.391 . S
C449 C448 1.386 . S
C449 C453 1.393 . S
C450 H442 0.950 . S
C450 C448 1.391 . S
C450 C451 1.400 . S
C451 C450 1.400 . S
C451 C452 1.398 . S
C451 C457 1.491 . S
C452 H443 0.950 . S
C452 C451 1.398 . S
C452 C453 1.391 . S
C453 H441 0.950 . S
C453 C449 1.393 . S
C453 C452 1.391 . S
C454 H444 0.950 . S
C454 C455 1.386 . S
C454 C456 1.391 . S
C455 C454 1.386 . S
C455 C459 1.393 . S
C456 H445 0.950 . S
C456 C454 1.391 . S
C456 C457 1.400 . S
C457 C451 1.491 . S
C457 C456 1.400 . S
C457 C458 1.398 . S
C458 H446 0.950 . S
C458 C457 1.398 . S
C458 C459 1.391 . S
C459 H447 0.950 . S
C459 C455 1.393 . S
C459 C458 1.391 . S
H460 C468 0.950 . S
H461 C473 0.950 . S
H462 C470 0.950 . S
H463 C472 0.950 . S
H464 C474 0.950 . S
H465 C476 0.950 . S
H466 C478 0.950 . S
H467 C479 0.950 . S
C468 H460 0.950 . S
C468 C469 1.386 . S
C468 C470 1.391 . S
C469 C468 1.386 . S
C469 C473 1.393 . S
C470 H462 0.950 . S
C470 C468 1.391 . S
C470 C471 1.400 . S
C471 C470 1.400 . S
C471 C472 1.398 . S
C471 C477 1.491 . S
C472 H463 0.950 . S
C472 C471 1.398 . S
C472 C473 1.391 . S
C473 H461 0.950 . S
C473 C469 1.393 . S
C473 C472 1.391 . S
C474 H464 0.950 . S
C474 C475 1.386 . S
C474 C476 1.391 . S
C475 C474 1.386 . S
C475 C479 1.393 . S
C476 H465 0.950 . S
C476 C474 1.391 . S
C476 C477 1.400 . S
C477 C471 1.491 . S
C477 C476 1.400 . S
C477 C478 1.398 . S
C478 H466 0.950 . S
C478 C477 1.398 . S
C478 C479 1.391 . S
C479 H467 0.950 . S
C479 C475 1.393 . S
C479 C478 1.391 . S
H480 C488 0.950 . S
H481 C493 0.950 . S
H482 C490 0.950 . S
H483 C492 0.950 . S
H484 C494 0.950 . S
H485 C496 0.950 . S
H486 C498 0.950 . S
H487 C499 0.950 . S
C488 H480 0.950 . S
C488 C489 1.386 . S
C488 C490 1.391 . S
C489 C488 1.386 . S
C489 C493 1.393 . S
C490 H482 0.950 . S
C490 C488 1.391 . S
C490 C491 1.400 . S
C491 C490 1.400 . S
C491 C492 1.398 . S
C491 C497 1.491 . S
C492 H483 0.950 . S
C492 C491 1.398 . S
C492 C493 1.391 . S
C493 H481 0.950 . S
C493 C489 1.393 . S
C493 C492 1.391 . S
C494 H484 0.950 . S
C494 C495 1.386 . S
C494 C496 1.391 . S
C495 C494 1.386 . S
C495 C499 1.393 . S
C496 H485 0.950 . S
C496 C494 1.391 . S
C496 C497 1.400 . S
C497 C491 1.491 . S
C497 C496 1.400 . S
C497 C498 1.398 . S
C498 H486 0.950 . S
C498 C497 1.398 . S
C498 C499 1.391 . S
C499 H487 0.950 . S
C499 C495 1.393 . S
C499 C498 1.391 . S
H500 C508 0.950 . S
H501 C513 0.950 . S
H502 C510 0.950 . S
H503 C512 0.950 . S
H504 C514 0.950 . S
H505 C516 0.950 . S
H506 C518 0.950 . S
H507 C519 0.950 . S
C508 H500 0.950 . S
C508 C509 1.386 . S
C508 C510 1.391 . S
C509 C508 1.386 . S
C509 C513 1.393 . S
C510 H502 0.950 . S
C510 C508 1.391 . S
C510 C511 1.400 . S
C511 C510 1.400 . S
C511 C512 1.398 . S
C511 C517 1.491 . S
C512 H503 0.950 . S
C512 C511 1.398 . S
C512 C513 1.391 . S
C513 H501 0.950 . S
C513 C509 1.393 . S
C513 C512 1.391 . S
C514 H504 0.950 . S
C514 C515 1.386 . S
C514 C516 1.391 . S
C515 C514 1.386 . S
C515 C519 1.393 . S
C516 H505 0.950 . S
C516 C514 1.391 . S
C516 C517 1.400 . S
C517 C511 1.491 . S
C517 C516 1.400 . S
C517 C518 1.398 . S
C518 H506 0.950 . S
C518 C517 1.398 . S
C518 C519 1.391 . S
C519 H507 0.950 . S
C519 C515 1.393 . S
C519 C518 1.391 . S
H520 C528 0.950 . S
H521 C533 0.950 . S
H522 C530 0.950 . S
H523 C532 0.950 . S
H524 C534 0.950 . S
H525 C536 0.950 . S
H526 C538 0.950 . S
H527 C539 0.950 . S
C528 H520 0.950 . S
C528 C529 1.386 . S
C528 C530 1.391 . S
C529 C528 1.386 . S
C529 C533 1.393 . S
C530 H522 0.950 . S
C530 C528 1.391 . S
C530 C531 1.400 . S
C531 C530 1.400 . S
C531 C532 1.398 . S
C531 C537 1.491 . S
C532 H523 0.950 . S
C532 C531 1.398 . S
C532 C533 1.391 . S
C533 H521 0.950 . S
C533 C529 1.393 . S
C533 C532 1.391 . S
C534 H524 0.950 . S
C534 C535 1.386 . S
C534 C536 1.391 . S
C535 C534 1.386 . S
C535 C539 1.393 . S
C536 H525 0.950 . S
C536 C534 1.391 . S
C536 C537 1.400 . S
C537 C531 1.491 . S
C537 C536 1.400 . S
C537 C538 1.398 . S
C538 H526 0.950 . S
C538 C537 1.398 . S
C538 C539 1.391 . S
C539 H527 0.950 . S
C539 C535 1.393 . S
C539 C538 1.391 . S
H540 C548 0.950 . S
H541 C553 0.950 1_556 S
H542 C550 0.950 . S
H543 C552 0.950 . S
H544 C554 0.950 . S
H545 C556 0.950 . S
H546 C558 0.950 . S
H547 C559 0.950 . S
C548 H540 0.950 . S
C548 C549 1.386 . S
C548 C550 1.391 . S
C549 C548 1.386 . S
C549 C553 1.393 . S
C550 H542 0.950 . S
C550 C548 1.391 . S
C550 C551 1.400 . S
C551 C550 1.400 . S
C551 C552 1.398 . S
C551 C557 1.491 . S
C552 H543 0.950 . S
C552 C551 1.398 . S
C552 C553 1.391 . S
C553 H541 0.950 1_554 S
C553 C549 1.393 . S
C553 C552 1.391 . S
C554 H544 0.950 . S
C554 C555 1.386 . S
C554 C556 1.391 . S
C555 C554 1.386 . S
C555 C559 1.393 . S
C556 H545 0.950 . S
C556 C554 1.391 . S
C556 C557 1.400 . S
C557 C551 1.491 . S
C557 C556 1.400 . S
C557 C558 1.398 . S
C558 H546 0.950 . S
C558 C557 1.398 . S
C558 C559 1.391 . S
C559 H547 0.950 . S
C559 C555 1.393 . S
C559 C558 1.391 . S
H560 C568 0.950 . S
H561 C573 0.950 . S
H562 C570 0.950 . S
H563 C572 0.950 . S
H564 C574 0.950 . S
H565 C576 0.950 . S
H566 C578 0.950 . S
H567 C579 0.950 . S
C568 H560 0.950 . S
C568 C569 1.386 . S
C568 C570 1.391 . S
C569 C568 1.386 . S
C569 C573 1.393 . S
C570 H562 0.950 . S
C570 C568 1.391 . S
C570 C571 1.400 . S
C571 C570 1.400 . S
C571 C572 1.398 . S
C571 C577 1.491 . S
C572 H563 0.950 . S
C572 C571 1.398 . S
C572 C573 1.391 . S
C573 H561 0.950 . S
C573 C569 1.393 . S
C573 C572 1.391 . S
C574 H564 0.950 . S
C574 C575 1.386 . S
C574 C576 1.391 . S
C575 C574 1.386 . S
C575 C579 1.393 . S
C576 H565 0.950 . S
C576 C574 1.391 . S
C576 C577 1.400 . S
C577 C571 1.491 . S
C577 C576 1.400 . S
C577 C578 1.398 . S
C578 H566 0.950 . S
C578 C577 1.398 . S
C578 C579 1.391 . S
C579 H567 0.950 . S
C579 C575 1.393 . S
C579 C578 1.391 . S
H580 C588 0.950 . S
H581 C593 0.950 . S
H582 C590 0.950 . S
H583 C592 0.950 . S
H584 C594 0.950 . S
H585 C596 0.950 . S
H586 C598 0.950 . S
H587 C599 0.950 . S
C588 H580 0.950 . S
C588 C589 1.386 . S
C588 C590 1.391 . S
C589 C588 1.386 . S
C589 C593 1.393 . S
C590 H582 0.950 . S
C590 C588 1.391 . S
C590 C591 1.400 . S
C591 C590 1.400 . S
C591 C592 1.398 . S
C591 C597 1.491 . S
C592 H583 0.950 . S
C592 C591 1.398 . S
C592 C593 1.391 . S
C593 H581 0.950 . S
C593 C589 1.393 . S
C593 C592 1.391 . S
C594 H584 0.950 . S
C594 C595 1.386 . S
C594 C596 1.391 . S
C595 C594 1.386 . S
C595 C599 1.393 . S
C596 H585 0.950 . S
C596 C594 1.391 . S
C596 C597 1.400 . S
C597 C591 1.491 . S
C597 C596 1.400 . S
C597 C598 1.398 . S
C598 H586 0.950 . S
C598 C597 1.398 . S
C598 C599 1.391 . S
C599 H587 0.950 . S
C599 C595 1.393 . S
C599 C598 1.391 . S
H600 C608 0.950 . S
H601 C613 0.950 . S
H602 C610 0.950 . S
H603 C612 0.950 . S
H604 C614 0.950 . S
H605 C616 0.950 . S
H606 C618 0.950 . S
H607 C619 0.950 . S
C608 H600 0.950 . S
C608 C609 1.386 . S
C608 C610 1.391 . S
C609 C608 1.386 . S
C609 C613 1.393 . S
C610 H602 0.950 . S
C610 C608 1.391 . S
C610 C611 1.400 . S
C611 C610 1.400 . S
C611 C612 1.398 . S
C611 C617 1.491 . S
C612 H603 0.950 . S
C612 C611 1.398 . S
C612 C613 1.391 . S
C613 H601 0.950 . S
C613 C609 1.393 . S
C613 C612 1.391 . S
C614 H604 0.950 . S
C614 C615 1.386 . S
C614 C616 1.391 . S
C615 C614 1.386 . S
C615 C619 1.393 . S
C616 H605 0.950 . S
C616 C614 1.391 . S
C616 C617 1.400 . S
C617 C611 1.491 . S
C617 C616 1.400 . S
C617 C618 1.398 . S
C618 H606 0.950 . S
C618 C617 1.398 . S
C618 C619 1.391 . S
C619 H607 0.950 . S
C619 C615 1.393 . S
C619 C618 1.391 . S
H620 C628 0.950 . S
H621 C633 0.950 . S
H622 C630 0.950 . S
H623 C632 0.950 . S
H624 C634 0.950 . S
H625 C636 0.950 . S
H626 C638 0.950 . S
H627 C639 0.950 . S
C628 H620 0.950 . S
C628 C629 1.386 . S
C628 C630 1.391 . S
C629 C628 1.386 . S
C629 C633 1.393 . S
C630 H622 0.950 . S
C630 C628 1.391 . S
C630 C631 1.400 . S
C631 C630 1.400 . S
C631 C632 1.398 . S
C631 C637 1.491 . S
C632 H623 0.950 . S
C632 C631 1.398 . S
C632 C633 1.391 . S
C633 H621 0.950 . S
C633 C629 1.393 . S
C633 C632 1.391 . S
C634 H624 0.950 . S
C634 C635 1.386 . S
C634 C636 1.391 . S
C635 C634 1.386 . S
C635 C639 1.393 . S
C636 H625 0.950 . S
C636 C634 1.391 . S
C636 C637 1.400 . S
C637 C631 1.491 . S
C637 C636 1.400 . S
C637 C638 1.398 . S
C638 H626 0.950 . S
C638 C637 1.398 . S
C638 C639 1.391 . S
C639 H627 0.950 . S
C639 C635 1.393 . S
C639 C638 1.391 . S
H640 C648 0.950 . S
H641 C653 0.950 . S
H642 C650 0.950 . S
H643 C652 0.950 . S
H644 C654 0.950 . S
H645 C656 0.950 . S
H646 C658 0.950 . S
H647 C659 0.950 . S
C648 H640 0.950 . S
C648 C649 1.386 . S
C648 C650 1.391 . S
C649 C648 1.386 . S
C649 C653 1.393 . S
C650 H642 0.950 . S
C650 C648 1.391 . S
C650 C651 1.400 . S
C651 C650 1.400 . S
C651 C652 1.398 . S
C651 C657 1.491 . S
C652 H643 0.950 . S
C652 C651 1.398 . S
C652 C653 1.391 . S
C653 H641 0.950 . S
C653 C649 1.393 . S
C653 C652 1.391 . S
C654 H644 0.950 . S
C654 C655 1.386 . S
C654 C656 1.391 . S
C655 C654 1.386 . S
C655 C659 1.393 . S
C656 H645 0.950 . S
C656 C654 1.391 . S
C656 C657 1.400 . S
C657 C651 1.491 . S
C657 C656 1.400 . S
C657 C658 1.398 . S
C658 H646 0.950 . S
C658 C657 1.398 . S
C658 C659 1.391 . S
C659 H647 0.950 . S
C659 C655 1.393 . S
C659 C658 1.391 . S
H660 C668 0.950 . S
H661 C673 0.950 . S
H662 C670 0.950 . S
H663 C672 0.950 . S
H664 C674 0.950 . S
H665 C676 0.950 . S
H666 C678 0.950 . S
H667 C679 0.950 . S
C668 H660 0.950 . S
C668 C669 1.386 . S
C668 C670 1.391 . S
C669 C668 1.386 . S
C669 C673 1.393 . S
C670 H662 0.950 . S
C670 C668 1.391 . S
C670 C671 1.400 . S
C671 C670 1.400 . S
C671 C672 1.398 . S
C671 C677 1.491 . S
C672 H663 0.950 . S
C672 C671 1.398 . S
C672 C673 1.391 . S
C673 H661 0.950 . S
C673 C669 1.393 . S
C673 C672 1.391 . S
C674 H664 0.950 . S
C674 C675 1.386 . S
C674 C676 1.391 1_554 S
C675 C674 1.386 . S
C675 C679 1.393 . S
C676 H665 0.950 . S
C676 C674 1.391 1_556 S
C676 C677 1.400 . S
C677 C671 1.491 . S
C677 C676 1.400 . S
C677 C678 1.398 . S
C678 H666 0.950 . S
C678 C677 1.398 . S
C678 C679 1.391 1_556 S
C679 H667 0.950 . S
C679 C675 1.393 . S
C679 C678 1.391 1_554 S
H680 C688 0.950 . S
H681 C693 0.950 . S
H682 C690 0.950 . S
H683 C692 0.950 . S
H684 C694 0.950 . S
H685 C696 0.950 . S
H686 C698 0.950 . S
H687 C699 0.950 . S
C688 H680 0.950 . S
C688 C689 1.386 . S
C688 C690 1.391 . S
C689 C688 1.386 . S
C689 C693 1.393 . S
C690 H682 0.950 . S
C690 C688 1.391 . S
C690 C691 1.400 . S
C691 C690 1.400 . S
C691 C692 1.398 . S
C691 C697 1.491 . S
C692 H683 0.950 . S
C692 C691 1.398 . S
C692 C693 1.391 . S
C693 H681 0.950 . S
C693 C689 1.393 . S
C693 C692 1.391 . S
C694 H684 0.950 . S
C694 C695 1.386 . S
C694 C696 1.391 . S
C695 C694 1.386 . S
C695 C699 1.393 . S
C696 H685 0.950 . S
C696 C694 1.391 . S
C696 C697 1.400 . S
C697 C691 1.491 . S
C697 C696 1.400 . S
C697 C698 1.398 . S
C698 H686 0.950 . S
C698 C697 1.398 . S
C698 C699 1.391 . S
C699 H687 0.950 . S
C699 C695 1.393 . S
C699 C698 1.391 . S
H700 C708 0.950 . S
H701 C713 0.950 . S
H702 C710 0.950 . S
H703 C712 0.950 . S
H704 C714 0.950 . S
H705 C716 0.950 . S
H706 C718 0.950 . S
H707 C719 0.950 . S
C708 H700 0.950 . S
C708 C709 1.386 . S
C708 C710 1.391 . S
C709 C708 1.386 . S
C709 C713 1.393 . S
C710 H702 0.950 . S
C710 C708 1.391 . S
C710 C711 1.400 . S
C711 C710 1.400 . S
C711 C712 1.398 . S
C711 C717 1.491 . S
C712 H703 0.950 . S
C712 C711 1.398 . S
C712 C713 1.391 . S
C713 H701 0.950 . S
C713 C709 1.393 . S
C713 C712 1.391 . S
C714 H704 0.950 . S
C714 C715 1.386 . S
C714 C716 1.391 . S
C715 C714 1.386 . S
C715 C719 1.393 . S
C716 H705 0.950 . S
C716 C714 1.391 . S
C716 C717 1.400 . S
C717 C711 1.491 . S
C717 C716 1.400 . S
C717 C718 1.398 . S
C718 H706 0.950 . S
C718 C717 1.398 . S
C718 C719 1.391 . S
C719 H707 0.950 . S
C719 C715 1.393 . S
C719 C718 1.391 . S
H720 C728 0.950 . S
H721 C733 0.950 . S
H722 C730 0.950 . S
H723 C732 0.950 . S
H724 C734 0.950 . S
H725 C736 0.950 . S
H726 C738 0.950 . S
H727 C739 0.950 . S
C728 H720 0.950 . S
C728 C729 1.386 . S
C728 C730 1.391 . S
C729 C728 1.386 . S
C729 C733 1.393 . S
C730 H722 0.950 . S
C730 C728 1.391 . S
C730 C731 1.400 . S
C731 C730 1.400 . S
C731 C732 1.398 . S
C731 C737 1.491 . S
C732 H723 0.950 . S
C732 C731 1.398 . S
C732 C733 1.391 . S
C733 H721 0.950 . S
C733 C729 1.393 . S
C733 C732 1.391 . S
C734 H724 0.950 . S
C734 C735 1.386 . S
C734 C736 1.391 . S
C735 C734 1.386 . S
C735 C739 1.393 . S
C736 H725 0.950 . S
C736 C734 1.391 . S
C736 C737 1.400 . S
C737 C731 1.491 . S
C737 C736 1.400 . S
C737 C738 1.398 . S
C738 H726 0.950 . S
C738 C737 1.398 . S
C738 C739 1.391 . S
C739 H727 0.950 . S
C739 C735 1.393 . S
C739 C738 1.391 . S
H740 C748 0.950 . S
H741 C753 0.950 . S
H742 C750 0.950 . S
H743 C752 0.950 . S
H744 C754 0.950 . S
H745 C756 0.950 . S
H746 C758 0.950 . S
H747 C759 0.950 . S
C748 H740 0.950 . S
C748 C749 1.386 . S
C748 C750 1.391 . S
C749 C748 1.386 . S
C749 C753 1.393 . S
C750 H742 0.950 . S
C750 C748 1.391 . S
C750 C751 1.400 . S
C751 C750 1.400 . S
C751 C752 1.398 . S
C751 C757 1.491 . S
C752 H743 0.950 . S
C752 C751 1.398 . S
C752 C753 1.391 . S
C753 H741 0.950 . S
C753 C749 1.393 . S
C753 C752 1.391 . S
C754 H744 0.950 . S
C754 C755 1.386 . S
C754 C756 1.391 . S
C755 C754 1.386 . S
C755 C759 1.393 . S
C756 H745 0.950 . S
C756 C754 1.391 . S
C756 C757 1.400 . S
C757 C751 1.491 . S
C757 C756 1.400 . S
C757 C758 1.398 . S
C758 H746 0.950 . S
C758 C757 1.398 . S
C758 C759 1.391 . S
C759 H747 0.950 . S
C759 C755 1.393 . S
C759 C758 1.391 . S
H760 C768 0.950 . S
H761 C773 0.950 . S
H762 C770 0.950 . S
H763 C772 0.950 . S
H764 C774 0.950 . S
H765 C776 0.950 . S
H766 C778 0.950 . S
H767 C779 0.950 . S
C768 H760 0.950 . S
C768 C769 1.386 . S
C768 C770 1.391 . S
C769 C768 1.386 . S
C769 C773 1.393 . S
C770 H762 0.950 . S
C770 C768 1.391 . S
C770 C771 1.400 . S
C771 C770 1.400 . S
C771 C772 1.398 . S
C771 C777 1.491 . S
C772 H763 0.950 . S
C772 C771 1.398 . S
C772 C773 1.391 . S
C773 H761 0.950 . S
C773 C769 1.393 . S
C773 C772 1.391 . S
C774 H764 0.950 . S
C774 C775 1.386 . S
C774 C776 1.391 . S
C775 C774 1.386 . S
C775 C779 1.393 . S
C776 H765 0.950 . S
C776 C774 1.391 . S
C776 C777 1.400 . S
C777 C771 1.491 . S
C777 C776 1.400 . S
C777 C778 1.398 . S
C778 H766 0.950 . S
C778 C777 1.398 . S
C778 C779 1.391 . S
C779 H767 0.950 . S
C779 C775 1.393 . S
C779 C778 1.391 . S
H780 C788 0.950 . S
H781 C793 0.950 . S
H782 C790 0.950 . S
H783 C792 0.950 . S
H784 C794 0.950 . S
H785 C796 0.950 . S
H786 C798 0.950 . S
H787 C799 0.950 . S
C788 H780 0.950 . S
C788 C789 1.386 . S
C788 C790 1.391 . S
C789 C788 1.386 . S
C789 C793 1.393 . S
C790 H782 0.950 . S
C790 C788 1.391 . S
C790 C791 1.400 . S
C791 C790 1.400 . S
C791 C792 1.398 . S
C791 C797 1.491 . S
C792 H783 0.950 . S
C792 C791 1.398 . S
C792 C793 1.391 . S
C793 H781 0.950 . S
C793 C789 1.393 . S
C793 C792 1.391 . S
C794 H784 0.950 . S
C794 C795 1.386 . S
C794 C796 1.391 . S
C795 C794 1.386 . S
C795 C799 1.393 . S
C796 H785 0.950 . S
C796 C794 1.391 . S
C796 C797 1.400 . S
C797 C791 1.491 . S
C797 C796 1.400 . S
C797 C798 1.398 . S
C798 H786 0.950 . S
C798 C797 1.398 . S
C798 C799 1.391 . S
C799 H787 0.950 . S
C799 C795 1.393 . S
C799 C798 1.391 . S
H800 C808 0.950 . S
H801 C813 0.950 . S
H802 C810 0.950 . S
H803 C812 0.950 . S
H804 C814 0.950 . S
H805 C816 0.950 . S
H806 C818 0.950 . S
H807 C819 0.950 . S
C808 H800 0.950 . S
C808 C809 1.386 . S
C808 C810 1.391 . S
C809 C808 1.386 . S
C809 C813 1.393 . S
C810 H802 0.950 . S
C810 C808 1.391 . S
C810 C811 1.400 . S
C811 C810 1.400 . S
C811 C812 1.398 . S
C811 C817 1.491 1_554 S
C812 H803 0.950 . S
C812 C811 1.398 . S
C812 C813 1.391 . S
C813 H801 0.950 . S
C813 C809 1.393 . S
C813 C812 1.391 . S
C814 H804 0.950 . S
C814 C815 1.386 . S
C814 C816 1.391 . S
C815 C814 1.386 . S
C815 C819 1.393 . S
C816 H805 0.950 . S
C816 C814 1.391 . S
C816 C817 1.400 . S
C817 C811 1.491 1_556 S
C817 C816 1.400 . S
C817 C818 1.398 . S
C818 H806 0.950 . S
C818 C817 1.398 . S
C818 C819 1.391 . S
C819 H807 0.950 . S
C819 C815 1.393 . S
C819 C818 1.391 . S
H820 C828 0.950 . S
H821 C833 0.950 . S
H822 C830 0.950 . S
H823 C832 0.950 . S
H824 C834 0.950 . S
H825 C836 0.950 . S
H826 C838 0.950 . S
H827 C839 0.950 . S
C828 H820 0.950 . S
C828 C829 1.386 . S
C828 C830 1.391 . S
C829 C828 1.386 . S
C829 C833 1.393 . S
C830 H822 0.950 . S
C830 C828 1.391 . S
C830 C831 1.400 . S
C831 C830 1.400 . S
C831 C832 1.398 . S
C831 C837 1.491 . S
C832 H823 0.950 . S
C832 C831 1.398 . S
C832 C833 1.391 . S
C833 H821 0.950 . S
C833 C829 1.393 . S
C833 C832 1.391 . S
C834 H824 0.950 . S
C834 C835 1.386 . S
C834 C836 1.391 . S
C835 C834 1.386 . S
C835 C839 1.393 . S
C836 H825 0.950 . S
C836 C834 1.391 . S
C836 C837 1.400 . S
C837 C831 1.491 . S
C837 C836 1.400 . S
C837 C838 1.398 . S
C838 H826 0.950 . S
C838 C837 1.398 . S
C838 C839 1.391 . S
C839 H827 0.950 . S
C839 C835 1.393 . S
C839 C838 1.391 . S
C375 C351 1.271 . S
C369 C15 1.500 . S
C389 C61 1.546 . S
C395 C281 1.292 . S
C409 C114 1.502 . S
C415 C301 1.547 . S
C429 C139 1.464 . S
C435 C315 1.481 . S
C455 C323 1.245 . S
C449 C185 1.494 . S
C469 C245 1.488 . S
C475 C337 1.251 . S
C489 C47 1.538 . S
C495 C295 1.268 . S
C509 C100 1.495 . S
C515 C309 1.225 . S
C529 C153 1.435 . S
C535 C329 1.473 . S
C555 C343 1.520 . S
C549 C199 1.475 . S
C575 C357 1.517 . S
C569 C231 1.499 . S
C595 C287 1.539 . S
C589 C1 1.531 . S
C609 C22 1.434 . S
C615 C294 1.407 . S
C629 C68 1.448 . S
C635 C308 1.426 . S
C655 C330 1.444 . S
C649 C107 1.442 . S
C669 C146 1.455 . S
C675 C344 1.450 . S
C695 C358 1.420 . S
C689 C192 1.422 . S
C715 C288 1.403 . S
C709 C252 1.405 . S
C735 C350 1.423 . S
C729 C54 1.439 . S
C749 C93 1.438 . S
C755 C280 1.412 . S
C775 C302 1.438 . S
C769 C160 1.435 . S
C789 C206 1.441 . S
C795 C316 1.445 . S
C809 C238 1.488 . S
C815 C322 1.472 . S
C829 C8 1.470 . S
C835 C336 1.452 . S
