# Generated by pormake.
# Topology ssb, (4,4)-cn, num edge types: 1
# Building blocks:
#     Node 0, Type 0, BuildingBlock: NAWXER_clean_linker_0, # of connection points: 4
#     Node 1, Type 0, BuildingBlock: NAWXER_clean_linker_0, # of connection points: 4
#     Node 2, Type 0, BuildingBlock: NAWXER_clean_linker_0, # of connection points: 4
#     Node 3, Type 0, BuildingBlock: NAWXER_clean_linker_0, # of connection points: 4
#     Node 4, Type 0, BuildingBlock: NAWXER_clean_linker_0, # of connection points: 4
#     Node 5, Type 0, BuildingBlock: NAWXER_clean_linker_0, # of connection points: 4
#     Node 6, Type 0, BuildingBlock: NAWXER_clean_linker_0, # of connection points: 4
#     Node 7, Type 0, BuildingBlock: NAWXER_clean_linker_0, # of connection points: 4
#     Node 8, Type 1, BuildingBlock: KOZSID_clean_sbu_0, # of connection points: 4
#     Node 9, Type 1, BuildingBlock: KOZSID_clean_sbu_0, # of connection points: 4
#     Node 10, Type 1, BuildingBlock: KOZSID_clean_sbu_0, # of connection points: 4
#     Node 11, Type 1, BuildingBlock: KOZSID_clean_sbu_0, # of connection points: 4
#     Node 12, Type 1, BuildingBlock: KOZSID_clean_sbu_0, # of connection points: 4
#     Node 13, Type 1, BuildingBlock: KOZSID_clean_sbu_0, # of connection points: 4
#     Node 14, Type 1, BuildingBlock: KOZSID_clean_sbu_0, # of connection points: 4
#     Node 15, Type 1, BuildingBlock: KOZSID_clean_sbu_0, # of connection points: 4
#     Edge 16, Type (0, 1), BuildingBlock: ZUJKAS_clean_linker_0, # of connection points: 2
#     Edge 17, Type (0, 1), BuildingBlock: ZUJKAS_clean_linker_0, # of connection points: 2
#     Edge 18, Type (0, 1), BuildingBlock: ZUJKAS_clean_linker_0, # of connection points: 2
#     Edge 19, Type (0, 1), BuildingBlock: ZUJKAS_clean_linker_0, # of connection points: 2
#     Edge 20, Type (0, 1), BuildingBlock: ZUJKAS_clean_linker_0, # of connection points: 2
#     Edge 21, Type (0, 1), BuildingBlock: ZUJKAS_clean_linker_0, # of connection points: 2
#     Edge 22, Type (0, 1), BuildingBlock: ZUJKAS_clean_linker_0, # of connection points: 2
#     Edge 23, Type (0, 1), BuildingBlock: ZUJKAS_clean_linker_0, # of connection points: 2
#     Edge 24, Type (0, 1), BuildingBlock: ZUJKAS_clean_linker_0, # of connection points: 2
#     Edge 25, Type (0, 1), BuildingBlock: ZUJKAS_clean_linker_0, # of connection points: 2
#     Edge 26, Type (0, 1), BuildingBlock: ZUJKAS_clean_linker_0, # of connection points: 2
#     Edge 27, Type (0, 1), BuildingBlock: ZUJKAS_clean_linker_0, # of connection points: 2
#     Edge 28, Type (0, 1), BuildingBlock: ZUJKAS_clean_linker_0, # of connection points: 2
#     Edge 29, Type (0, 1), BuildingBlock: ZUJKAS_clean_linker_0, # of connection points: 2
#     Edge 30, Type (0, 1), BuildingBlock: ZUJKAS_clean_linker_0, # of connection points: 2
#     Edge 31, Type (0, 1), BuildingBlock: ZUJKAS_clean_linker_0, # of connection points: 2
#     Edge 32, Type (0, 1), BuildingBlock: ZUJKAS_clean_linker_0, # of connection points: 2
#     Edge 33, Type (0, 1), BuildingBlock: ZUJKAS_clean_linker_0, # of connection points: 2
#     Edge 34, Type (0, 1), BuildingBlock: ZUJKAS_clean_linker_0, # of connection points: 2
#     Edge 35, Type (0, 1), BuildingBlock: ZUJKAS_clean_linker_0, # of connection points: 2
#     Edge 36, Type (0, 1), BuildingBlock: ZUJKAS_clean_linker_0, # of connection points: 2
#     Edge 37, Type (0, 1), BuildingBlock: ZUJKAS_clean_linker_0, # of connection points: 2
#     Edge 38, Type (0, 1), BuildingBlock: ZUJKAS_clean_linker_0, # of connection points: 2
#     Edge 39, Type (0, 1), BuildingBlock: ZUJKAS_clean_linker_0, # of connection points: 2
#     Edge 40, Type (0, 1), BuildingBlock: ZUJKAS_clean_linker_0, # of connection points: 2
#     Edge 41, Type (0, 1), BuildingBlock: ZUJKAS_clean_linker_0, # of connection points: 2
#     Edge 42, Type (0, 1), BuildingBlock: ZUJKAS_clean_linker_0, # of connection points: 2
#     Edge 43, Type (0, 1), BuildingBlock: ZUJKAS_clean_linker_0, # of connection points: 2
#     Edge 44, Type (0, 1), BuildingBlock: ZUJKAS_clean_linker_0, # of connection points: 2
#     Edge 45, Type (0, 1), BuildingBlock: ZUJKAS_clean_linker_0, # of connection points: 2
#     Edge 46, Type (0, 1), BuildingBlock: ZUJKAS_clean_linker_0, # of connection points: 2
#     Edge 47, Type (0, 1), BuildingBlock: ZUJKAS_clean_linker_0, # of connection points: 2
# Relax obj value: 0.002
# Max RMSD: 0.026
# Mean RMSD: 0.016
data_MOF--net-ssb--node1-KOZSID_clean_sbu_0--node2-NAWXER_clean_linker_0--edge1-ZUJKAS_clean_linker_0
_symmetry_space_group_name_H-M    P1
_symmetry_Int_Tables_number       1
_symmetry_cell_setting            triclinic
loop_
_symmetry_equiv_pos_as_xyz
'x, y, z'
_cell_length_a     77.906928
_cell_length_b     77.605519
_cell_length_c     57.325708
_cell_angle_alpha  91.760382
_cell_angle_beta   93.538164
_cell_angle_gamma 89.997324
loop_
_atom_site_label
_atom_site_type_symbol
_atom_site_fract_x
_atom_site_fract_y
_atom_site_fract_z
_atom_type_partial_charge
C0 C 0.29104 0.24932 0.19652 0.0
C1 C 0.3079 0.24779 0.20649 0.0
C2 C 0.277 0.24914 0.21057 0.0
C3 C 0.27957 0.24771 0.2349 0.0
C4 C 0.31039 0.24597 0.2308 0.0
C5 C 0.29636 0.24586 0.24483 0.0
C6 C 0.26487 0.24749 0.25005 0.0
C7 C 0.26548 0.30002 0.21801 0.0
C8 C 0.25035 0.30447 0.20486 0.0
C9 C 0.2659 0.28567 0.23237 0.0
C10 C 0.25129 0.27514 0.23362 0.0
C11 C 0.23563 0.29415 0.20658 0.0
C12 C 0.23609 0.27973 0.2208 0.0
C13 C 0.25144 0.2598 0.24886 0.0
C14 C 0.21143 0.24296 0.332 0.0
C15 C 0.19462 0.24588 0.3225 0.0
C16 C 0.22532 0.24256 0.3177 0.0
C17 C 0.22268 0.24466 0.29349 0.0
C18 C 0.19209 0.24831 0.29831 0.0
C19 C 0.20597 0.24774 0.28399 0.0
C20 C 0.2373 0.24472 0.27814 0.0
C21 C 0.23647 0.19175 0.30885 0.0
C22 C 0.25121 0.18765 0.32311 0.0
C23 C 0.23625 0.20616 0.29461 0.0
C24 C 0.25073 0.21698 0.29434 0.0
C25 C 0.26577 0.19837 0.32246 0.0
C26 C 0.26556 0.21275 0.30817 0.0
C27 C 0.25071 0.23238 0.27926 0.0
H28 H 0.28867 0.25039 0.17781 0.0
H29 H 0.26414 0.25004 0.2024 0.0
H30 H 0.32322 0.2449 0.23904 0.0
H31 H 0.29864 0.24457 0.26354 0.0
H32 H 0.27697 0.30784 0.21758 0.0
H33 H 0.27764 0.28294 0.24268 0.0
H34 H 0.22376 0.29706 0.19664 0.0
H35 H 0.22456 0.27201 0.22156 0.0
H36 H 0.21388 0.24092 0.35051 0.0
H37 H 0.23814 0.24077 0.32566 0.0
H38 H 0.17941 0.25095 0.29043 0.0
H39 H 0.20365 0.2497 0.26543 0.0
H40 H 0.22512 0.18367 0.30837 0.0
H41 H 0.22479 0.20875 0.28364 0.0
H42 H 0.27732 0.19585 0.33329 0.0
H43 H 0.27695 0.22076 0.30822 0.0
N44 N 0.26401 0.23439 0.26526 0.0
N45 N 0.23817 0.2578 0.2629 0.0
C46 C 0.69224 0.27672 0.22902 0.0
C47 C 0.68863 0.26274 0.21328 0.0
C48 C 0.70727 0.27693 0.24368 0.0
C49 C 0.71909 0.26329 0.2426 0.0
C50 C 0.70046 0.24911 0.21232 0.0
C51 C 0.71549 0.24936 0.22688 0.0
C52 C 0.73474 0.2628 0.25857 0.0
C53 C 0.74267 0.30803 0.21373 0.0
C54 C 0.74391 0.32396 0.22603 0.0
C55 C 0.74303 0.29269 0.22574 0.0
C56 C 0.74443 0.29304 0.25026 0.0
C57 C 0.7452 0.32429 0.25059 0.0
C58 C 0.74559 0.30892 0.26261 0.0
C59 C 0.74606 0.27689 0.26298 0.0
C60 C 0.8069 0.24436 0.31356 0.0
C61 C 0.81121 0.25709 0.33091 0.0
C62 C 0.79148 0.24531 0.29991 0.0
C63 C 0.77993 0.25889 0.30354 0.0
C64 C 0.79976 0.27084 0.33422 0.0
C65 C 0.78432 0.27178 0.32055 0.0
C66 C 0.76362 0.26006 0.28906 0.0
C67 C 0.75839 0.2129 0.33155 0.0
C68 C 0.75563 0.19753 0.31828 0.0
C69 C 0.75753 0.22875 0.32072 0.0
C70 C 0.75426 0.22942 0.29641 0.0
C71 C 0.75236 0.19822 0.29398 0.0
C72 C 0.75165 0.21405 0.28314 0.0
C73 C 0.75221 0.24603 0.28479 0.0
H74 H 0.68323 0.28728 0.23041 0.0
H75 H 0.70948 0.28759 0.25614 0.0
H76 H 0.69815 0.23826 0.20019 0.0
H77 H 0.72436 0.23865 0.2258 0.0
H78 H 0.74155 0.30742 0.19479 0.0
H79 H 0.74258 0.28056 0.21585 0.0
H80 H 0.74639 0.3364 0.26046 0.0
H81 H 0.74692 0.3094 0.28154 0.0
H82 H 0.81539 0.23355 0.31065 0.0
H83 H 0.78861 0.23545 0.28645 0.0
H84 H 0.80284 0.28101 0.34716 0.0
H85 H 0.77571 0.28251 0.3234 0.0
H86 H 0.76063 0.21269 0.35038 0.0
H87 H 0.759 0.24046 0.33143 0.0
H88 H 0.75026 0.18652 0.28338 0.0
H89 H 0.74897 0.2143 0.26438 0.0
N90 N 0.73831 0.24792 0.26965 0.0
N91 N 0.76002 0.27503 0.27811 0.0
C92 C 0.70685 0.75095 0.18652 0.0
C93 C 0.69067 0.75258 0.19598 0.0
C94 C 0.72192 0.75165 0.20105 0.0
C95 C 0.72112 0.75365 0.2254 0.0
C96 C 0.68994 0.75481 0.22035 0.0
C97 C 0.70502 0.7554 0.23488 0.0
C98 C 0.73698 0.755 0.24096 0.0
C99 C 0.73765 0.70138 0.20754 0.0
C100 C 0.75185 0.69777 0.19412 0.0
C101 C 0.7373 0.71628 0.222 0.0
C102 C 0.75105 0.72809 0.22322 0.0
C103 C 0.76567 0.70955 0.1956 0.0
C104 C 0.7653 0.72444 0.21004 0.0
C105 C 0.75118 0.74374 0.23907 0.0
C106 C 0.79747 0.762 0.32304 0.0
C107 C 0.81353 0.76159 0.31304 0.0
C108 C 0.78223 0.76206 0.30885 0.0
C109 C 0.78275 0.76178 0.28441 0.0
C110 C 0.81395 0.76158 0.28853 0.0
C111 C 0.79871 0.76152 0.27439 0.0
C112 C 0.76681 0.76035 0.26917 0.0
C113 C 0.76637 0.81323 0.30423 0.0
C114 C 0.75236 0.81649 0.31816 0.0
C115 C 0.76652 0.79869 0.28909 0.0
C116 C 0.75276 0.78689 0.28761 0.0
C117 C 0.7385 0.80476 0.31637 0.0
C118 C 0.73867 0.79023 0.30121 0.0
C119 C 0.75259 0.7715 0.27128 0.0
H120 H 0.70789 0.74911 0.16786 0.0
H121 H 0.73419 0.75082 0.19318 0.0
H122 H 0.67773 0.75644 0.2282 0.0
H123 H 0.70409 0.75723 0.25357 0.0
H124 H 0.72693 0.69249 0.20728 0.0
H125 H 0.72637 0.71839 0.23252 0.0
H126 H 0.77675 0.70737 0.18539 0.0
H127 H 0.77614 0.73321 0.21076 0.0
H128 H 0.79665 0.76172 0.34181 0.0
H129 H 0.77003 0.76184 0.31695 0.0
H130 H 0.82607 0.76155 0.28024 0.0
H131 H 0.79938 0.76122 0.25555 0.0
H132 H 0.77711 0.82211 0.30465 0.0
H133 H 0.77732 0.79685 0.27826 0.0
H134 H 0.72756 0.80666 0.32692 0.0
H135 H 0.72781 0.78145 0.30032 0.0
N136 N 0.73821 0.7683 0.25709 0.0
N137 N 0.76555 0.74701 0.25317 0.0
C138 C 0.30903 0.73228 0.21306 0.0
C139 C 0.31128 0.74604 0.19814 0.0
C140 C 0.29488 0.7319 0.22691 0.0
C141 C 0.28249 0.74507 0.22573 0.0
C142 C 0.29903 0.75933 0.19725 0.0
C143 C 0.28481 0.75885 0.21091 0.0
C144 C 0.26766 0.74524 0.2408 0.0
C145 C 0.25929 0.69753 0.19523 0.0
C146 C 0.25933 0.68206 0.20735 0.0
C147 C 0.25919 0.71335 0.20739 0.0
C148 C 0.25932 0.71398 0.23189 0.0
C149 C 0.25962 0.68273 0.23189 0.0
C150 C 0.25953 0.69857 0.24405 0.0
C151 C 0.25765 0.73054 0.24476 0.0
C152 C 0.19874 0.7597 0.29595 0.0
C153 C 0.19733 0.74746 0.31335 0.0
C154 C 0.21295 0.75969 0.28221 0.0
C155 C 0.22611 0.7475 0.28565 0.0
C156 C 0.21049 0.73517 0.31658 0.0
C157 C 0.22466 0.73513 0.30275 0.0
C158 C 0.24103 0.7471 0.27084 0.0
C159 C 0.24707 0.79634 0.31389 0.0
C160 C 0.24649 0.81132 0.30069 0.0
C161 C 0.24812 0.78015 0.30286 0.0
C162 C 0.24844 0.77868 0.27843 0.0
C163 C 0.24661 0.80979 0.27623 0.0
C164 C 0.24769 0.79359 0.26521 0.0
C165 C 0.25087 0.76182 0.26667 0.0
H166 H 0.31843 0.72202 0.21442 0.0
H167 H 0.29382 0.72144 0.23883 0.0
H168 H 0.30036 0.77003 0.1858 0.0
H169 H 0.27554 0.76925 0.20982 0.0
H170 H 0.25872 0.69741 0.1763 0.0
H171 H 0.25847 0.72508 0.19761 0.0
H172 H 0.25978 0.671 0.24168 0.0
H173 H 0.25947 0.6988 0.26295 0.0
H174 H 0.18869 0.76911 0.29261 0.0
H175 H 0.21352 0.76905 0.26865 0.0
H176 H 0.20995 0.72567 0.32996 0.0
H177 H 0.23461 0.72553 0.30559 0.0
H178 H 0.2469 0.79716 0.33278 0.0
H179 H 0.2491 0.76883 0.31345 0.0
H180 H 0.24642 0.82113 0.26567 0.0
H181 H 0.24811 0.79271 0.24635 0.0
N182 N 0.26376 0.76033 0.25183 0.0
N183 N 0.24484 0.732 0.25975 0.0
C184 C 0.19614 0.777 0.70603 0.0
C185 C 0.19173 0.76242 0.69174 0.0
C186 C 0.21121 0.77716 0.72061 0.0
C187 C 0.22214 0.76277 0.72106 0.0
C188 C 0.20275 0.74807 0.6922 0.0
C189 C 0.21774 0.74822 0.70685 0.0
C190 C 0.23754 0.76226 0.73739 0.0
C191 C 0.24748 0.80298 0.68508 0.0
C192 C 0.25078 0.81968 0.69469 0.0
C193 C 0.24726 0.78865 0.69942 0.0
C194 C 0.2501 0.79061 0.72385 0.0
C195 C 0.25392 0.82154 0.71912 0.0
C196 C 0.25367 0.8072 0.73345 0.0
C197 C 0.25016 0.77544 0.73939 0.0
C198 C 0.30621 0.74355 0.80014 0.0
C199 C 0.31132 0.7577 0.81483 0.0
C200 C 0.29112 0.74426 0.78572 0.0
C201 C 0.28079 0.75909 0.78585 0.0
C202 C 0.30102 0.77258 0.81479 0.0
C203 C 0.28596 0.7733 0.80029 0.0
C204 C 0.26508 0.76014 0.77015 0.0
C205 C 0.25483 0.71972 0.82277 0.0
C206 C 0.25121 0.70305 0.81327 0.0
C207 C 0.25524 0.73398 0.80833 0.0
C208 C 0.25228 0.73197 0.78393 0.0
C209 C 0.248 0.70113 0.78886 0.0
C210 C 0.24845 0.71539 0.77444 0.0
C211 C 0.25234 0.74707 0.7683 0.0
H212 H 0.18792 0.78825 0.70598 0.0
H213 H 0.21415 0.7884 0.73181 0.0
H214 H 0.19956 0.73656 0.68166 0.0
H215 H 0.22589 0.7369 0.70715 0.0
H216 H 0.24491 0.80095 0.66642 0.0
H217 H 0.24503 0.77601 0.69131 0.0
H218 H 0.25685 0.83407 0.72722 0.0
H219 H 0.25617 0.80912 0.75215 0.0
H220 H 0.31383 0.73188 0.79986 0.0
H221 H 0.28763 0.73328 0.7743 0.0
H222 H 0.30476 0.78378 0.82566 0.0
H223 H 0.27828 0.78495 0.80043 0.0
H224 H 0.25699 0.72184 0.84147 0.0
H225 H 0.25763 0.74663 0.81635 0.0
H226 H 0.24534 0.68854 0.78079 0.0
H227 H 0.24596 0.71343 0.75575 0.0
N228 N 0.23917 0.74864 0.75181 0.0
N229 N 0.2634 0.77383 0.75582 0.0
C230 C 0.314 0.27182 0.80358 0.0
C231 C 0.31696 0.25853 0.8195 0.0
C232 C 0.29841 0.27279 0.79027 0.0
C233 C 0.28548 0.26049 0.7926 0.0
C234 C 0.30395 0.2462 0.82167 0.0
C235 C 0.28844 0.24709 0.80819 0.0
C236 C 0.26911 0.26111 0.77819 0.0
C237 C 0.26632 0.30569 0.82928 0.0
C238 C 0.26488 0.32196 0.81926 0.0
C239 C 0.26489 0.29073 0.81522 0.0
C240 C 0.26226 0.29178 0.79086 0.0
C241 C 0.26256 0.32299 0.79484 0.0
C242 C 0.26115 0.30801 0.78077 0.0
C243 C 0.25894 0.27609 0.77615 0.0
C244 C 0.19475 0.25002 0.72301 0.0
C245 C 0.19171 0.26334 0.70721 0.0
C246 C 0.21022 0.24931 0.73662 0.0
C247 C 0.22303 0.2618 0.73451 0.0
C248 C 0.20444 0.27601 0.70545 0.0
C249 C 0.2199 0.2753 0.71909 0.0
C250 C 0.23942 0.26123 0.74893 0.0
C251 C 0.24082 0.21449 0.70058 0.0
C252 C 0.24135 0.19877 0.71213 0.0
C253 C 0.24302 0.23004 0.71328 0.0
C254 C 0.24565 0.23008 0.73772 0.0
C255 C 0.24368 0.19889 0.73663 0.0
C256 C 0.24592 0.21442 0.7493 0.0
C257 C 0.2495 0.2462 0.75121 0.0
H258 H 0.32383 0.28133 0.80107 0.0
H259 H 0.29656 0.28301 0.77791 0.0
H260 H 0.30564 0.23595 0.83399 0.0
H261 H 0.27864 0.23743 0.81017 0.0
H262 H 0.2682 0.30452 0.84804 0.0
H263 H 0.26527 0.27837 0.82349 0.0
H264 H 0.26116 0.33536 0.78668 0.0
H265 H 0.25889 0.30907 0.76203 0.0
H266 H 0.18526 0.24002 0.72469 0.0
H267 H 0.21213 0.23903 0.74886 0.0
H268 H 0.20236 0.28658 0.6937 0.0
H269 H 0.22952 0.2852 0.71743 0.0
H270 H 0.239 0.21474 0.68171 0.0
H271 H 0.24315 0.24196 0.70397 0.0
H272 H 0.24441 0.18695 0.74594 0.0
H273 H 0.2481 0.21421 0.76814 0.0
N274 N 0.26393 0.24669 0.76576 0.0
N275 N 0.24456 0.27564 0.76147 0.0
C276 C 0.80346 0.23744 0.71744 0.0
C277 C 0.807 0.25223 0.705 0.0
C278 C 0.78948 0.23713 0.73158 0.0
C279 C 0.77856 0.25148 0.73318 0.0
C280 C 0.79615 0.26662 0.7068 0.0
C281 C 0.78211 0.26625 0.7208 0.0
C282 C 0.76418 0.25173 0.74893 0.0
C283 C 0.75191 0.20936 0.69468 0.0
C284 C 0.75098 0.19272 0.70368 0.0
C285 C 0.75233 0.22404 0.70961 0.0
C286 C 0.75198 0.22247 0.73396 0.0
C287 C 0.75033 0.19122 0.72804 0.0
C288 C 0.75071 0.20591 0.74294 0.0
C289 C 0.75234 0.23798 0.75008 0.0
C290 C 0.70012 0.26819 0.81302 0.0
C291 C 0.69665 0.25363 0.82596 0.0
C292 C 0.71383 0.26813 0.79841 0.0
C293 C 0.72457 0.25365 0.79681 0.0
C294 C 0.70721 0.23903 0.824 0.0
C295 C 0.721 0.23904 0.80952 0.0
C296 C 0.73894 0.25325 0.78102 0.0
C297 C 0.75191 0.29581 0.83506 0.0
C298 C 0.75258 0.31244 0.82589 0.0
C299 C 0.75125 0.28106 0.82023 0.0
C300 C 0.75115 0.28253 0.79584 0.0
C301 C 0.75263 0.3138 0.80143 0.0
C302 C 0.75207 0.29905 0.78665 0.0
C303 C 0.75078 0.26699 0.77984 0.0
H304 H 0.81177 0.22627 0.71673 0.0
H305 H 0.78743 0.22579 0.7416 0.0
H306 H 0.79847 0.27816 0.6973 0.0
H307 H 0.77398 0.27754 0.72194 0.0
H308 H 0.75251 0.21107 0.67607 0.0
H309 H 0.75286 0.23664 0.70207 0.0
H310 H 0.74931 0.17868 0.73561 0.0
H311 H 0.75018 0.20431 0.76159 0.0
H312 H 0.692 0.2795 0.8138 0.0
H313 H 0.71586 0.27934 0.78812 0.0
H314 H 0.7049 0.22765 0.83383 0.0
H315 H 0.72898 0.22764 0.80837 0.0
H316 H 0.75222 0.29412 0.85375 0.0
H317 H 0.75103 0.26849 0.82789 0.0
H318 H 0.75289 0.3263 0.79358 0.0
H319 H 0.75211 0.30057 0.76793 0.0
N320 N 0.76284 0.26567 0.76372 0.0
N321 N 0.74027 0.23929 0.76623 0.0
C322 C 0.78748 0.74688 0.67519 0.0
C323 C 0.80419 0.74637 0.68593 0.0
C324 C 0.77312 0.74618 0.68863 0.0
C325 C 0.77521 0.745 0.71304 0.0
C326 C 0.80622 0.74494 0.71033 0.0
C327 C 0.79187 0.74413 0.72372 0.0
C328 C 0.76018 0.74432 0.72758 0.0
C329 C 0.76051 0.79751 0.69957 0.0
C330 C 0.74558 0.80192 0.68612 0.0
C331 C 0.76095 0.78256 0.71241 0.0
C332 C 0.74659 0.77158 0.71158 0.0
C333 C 0.73116 0.79103 0.68547 0.0
C334 C 0.73166 0.77597 0.69815 0.0
C335 C 0.74653 0.75627 0.72612 0.0
C336 C 0.70701 0.74118 0.80982 0.0
C337 C 0.69013 0.74365 0.80036 0.0
C338 C 0.72078 0.74028 0.7953 0.0
C339 C 0.71793 0.74157 0.77097 0.0
C340 C 0.68734 0.74508 0.77602 0.0
C341 C 0.7011 0.74412 0.76151 0.0
C342 C 0.73246 0.74151 0.75544 0.0
C343 C 0.733 0.68901 0.78621 0.0
C344 C 0.74823 0.68512 0.79944 0.0
C345 C 0.73214 0.70353 0.77245 0.0
C346 C 0.74641 0.71453 0.77199 0.0
C347 C 0.76253 0.69608 0.79872 0.0
C348 C 0.76163 0.71062 0.78507 0.0
C349 C 0.74608 0.72949 0.75679 0.0
H350 H 0.78551 0.74802 0.65644 0.0
H351 H 0.76038 0.74654 0.67994 0.0
H352 H 0.81893 0.74426 0.71906 0.0
H353 H 0.79379 0.74304 0.7425 0.0
H354 H 0.77166 0.80591 0.70073 0.0
H355 H 0.77236 0.77981 0.72341 0.0
H356 H 0.71952 0.79417 0.67517 0.0
H357 H 0.72038 0.76777 0.69754 0.0
H358 H 0.70964 0.74036 0.82853 0.0
H359 H 0.73369 0.73894 0.80317 0.0
H360 H 0.67449 0.74684 0.76816 0.0
H361 H 0.6986 0.74532 0.74283 0.0
H362 H 0.72175 0.68084 0.78651 0.0
H363 H 0.72042 0.70602 0.76195 0.0
H364 H 0.77453 0.69325 0.80837 0.0
H365 H 0.77286 0.71882 0.78469 0.0
N366 N 0.75944 0.73144 0.74294 0.0
N367 N 0.73318 0.75437 0.74 0.0
C368 C 0.0265 0.27389 0.55366 0.0
C369 C 0.0314 0.29025 0.56202 0.0
C370 C 0.02208 0.30168 0.54885 0.0
C371 C 0.01201 0.2917 0.53333 0.0
N372 N 0.01416 0.27455 0.53599 0.0
Co373 Co 0.0024 0.25539 0.5169 0.0
N374 N 0.98968 0.27223 0.49637 0.0
C375 C 0.99093 0.28964 0.49758 0.0
C376 C 0.98036 0.29772 0.48137 0.0
C377 C 0.97162 0.28473 0.46928 0.0
C378 C 0.97737 0.26943 0.47895 0.0
N379 N 0.99058 0.23623 0.49782 0.0
C380 C 0.97807 0.23691 0.48036 0.0
C381 C 0.97282 0.22055 0.47242 0.0
C382 C 0.98224 0.20911 0.48548 0.0
C383 C 0.99261 0.21908 0.50062 0.0
N384 N 0.01518 0.23855 0.53745 0.0
C385 C 0.01412 0.22113 0.53595 0.0
C386 C 0.02493 0.21302 0.55186 0.0
C387 C 0.03359 0.22601 0.56408 0.0
C388 C 0.02748 0.24135 0.55492 0.0
N389 N 0.98316 0.25581 0.5381 0.0
C390 C 0.95459 0.25609 0.56607 0.0
C391 C 0.96284 0.24069 0.56032 0.0
C392 C 0.97693 0.24084 0.54644 0.0
C393 C 0.96116 0.27141 0.55796 0.0
C394 C 0.97536 0.27098 0.54421 0.0
N395 N 0.02164 0.25494 0.49568 0.0
C396 C 0.04315 0.23906 0.47525 0.0
C397 C 0.04988 0.25428 0.46721 0.0
C398 C 0.0421 0.26984 0.47334 0.0
C399 C 0.02816 0.26988 0.48756 0.0
C400 C 0.02909 0.23967 0.4892 0.0
H401 H 0.02302 0.28217 0.49196 0.0
H402 H 0.02457 0.22761 0.49462 0.0
H403 H 0.98245 0.22865 0.54255 0.0
H404 H 0.97963 0.28307 0.53847 0.0
C405 C 0.00128 0.29803 0.51516 0.0
C406 C 0.03444 0.25819 0.56246 0.0
C407 C 0.97013 0.25267 0.47173 0.0
C408 C 0.00357 0.21275 0.51857 0.0
H409 H 0.041 0.29355 0.5759 0.0
H410 H 0.02288 0.31561 0.55002 0.0
H411 H 0.97882 0.31144 0.47908 0.0
H412 H 0.96181 0.28634 0.4553 0.0
H413 H 0.96291 0.21722 0.45899 0.0
H414 H 0.98125 0.19519 0.48453 0.0
H415 H 0.02666 0.1993 0.55388 0.0
H416 H 0.04357 0.22432 0.57779 0.0
H417 H 0.95851 0.22849 0.56655 0.0
H418 H 0.95516 0.28369 0.56175 0.0
H419 H 0.04862 0.22667 0.47065 0.0
H420 H 0.04697 0.28198 0.46762 0.0
C421 C 0.73224 0.03241 0.5411 0.0
C422 C 0.71619 0.03879 0.54615 0.0
C423 C 0.70428 0.02851 0.53414 0.0
C424 C 0.71365 0.01653 0.52234 0.0
N425 N 0.73087 0.01846 0.52614 0.0
Co426 Co 0.74913 0.00422 0.51143 0.0
N427 N 0.73151 0.9892 0.4935 0.0
C428 C 0.71421 0.9904 0.49416 0.0
C429 C 0.70538 0.9781 0.48061 0.0
C430 C 0.71775 0.96837 0.47073 0.0
C431 C 0.7335 0.97537 0.47877 0.0
N432 N 0.76739 0.99012 0.49652 0.0
C433 C 0.76603 0.97632 0.48132 0.0
C434 C 0.78205 0.97056 0.47518 0.0
C435 C 0.79397 0.98091 0.48708 0.0
C436 C 0.78461 0.99242 0.49968 0.0
N437 N 0.76676 0.01909 0.52958 0.0
C438 C 0.78406 0.01751 0.52954 0.0
C439 C 0.79291 0.02933 0.54389 0.0
C440 C 0.78055 0.03914 0.55364 0.0
C441 C 0.76479 0.0328 0.54452 0.0
N442 N 0.74937 0.98815 0.53755 0.0
C443 C 0.74966 0.96209 0.57046 0.0
C444 C 0.765 0.96919 0.56378 0.0
C445 C 0.76456 0.9821 0.54743 0.0
C446 C 0.73418 0.96903 0.56154 0.0
C447 C 0.73434 0.98207 0.5454 0.0
N448 N 0.74887 0.02026 0.48526 0.0
C449 C 0.7638 0.03969 0.46138 0.0
C450 C 0.74829 0.0448 0.45019 0.0
C451 C 0.73315 0.03694 0.45624 0.0
C452 C 0.73373 0.02485 0.47371 0.0
C453 C 0.7638 0.02741 0.47859 0.0
H454 H 0.72172 0.01958 0.47774 0.0
H455 H 0.77602 0.02416 0.4865 0.0
H456 H 0.77668 0.98666 0.54267 0.0
H457 H 0.72213 0.98665 0.53904 0.0
C458 C 0.70665 0.00332 0.50758 0.0
C459 C 0.74836 0.04033 0.55056 0.0
C460 C 0.74994 0.96819 0.47222 0.0
C461 C 0.79163 0.00513 0.51524 0.0
H462 H 0.71335 0.04985 0.5572 0.0
H463 H 0.69043 0.0297 0.53389 0.0
H464 H 0.69159 0.97637 0.47827 0.0
H465 H 0.71542 0.95728 0.45906 0.0
H466 H 0.78486 0.95991 0.46339 0.0
H467 H 0.80782 0.98004 0.48675 0.0
H468 H 0.80671 0.03073 0.54676 0.0
H469 H 0.78291 0.04981 0.56601 0.0
H470 H 0.77734 0.96455 0.57074 0.0
H471 H 0.72192 0.96397 0.56616 0.0
H472 H 0.77589 0.04551 0.45748 0.0
H473 H 0.72083 0.0402 0.4477 0.0
C474 C 0.02626 0.76651 0.54145 0.0
C475 C 0.03159 0.7825 0.55078 0.0
C476 C 0.02279 0.79459 0.53813 0.0
C477 C 0.01266 0.78537 0.52184 0.0
N478 N 0.01431 0.76807 0.52344 0.0
Co479 Co 0.00233 0.74986 0.50279 0.0
N480 N 0.99052 0.76771 0.48302 0.0
C481 C 0.99259 0.78502 0.48505 0.0
C482 C 0.98275 0.79393 0.46888 0.0
C483 C 0.97366 0.78161 0.45593 0.0
C484 C 0.97842 0.76585 0.46513 0.0
N485 N 0.99005 0.73166 0.48238 0.0
C486 C 0.9776 0.73328 0.465 0.0
C487 C 0.97164 0.71732 0.45634 0.0
C488 C 0.98057 0.70519 0.46877 0.0
C489 C 0.99135 0.71436 0.48434 0.0
N490 N 0.0144 0.732 0.52233 0.0
C491 C 0.01295 0.71466 0.5196 0.0
C492 C 0.02331 0.70575 0.5352 0.0
C493 C 0.03211 0.7181 0.54847 0.0
C494 C 0.02661 0.73389 0.54011 0.0
N495 N 0.98279 0.75016 0.5235 0.0
C496 C 0.95385 0.75042 0.55074 0.0
C497 C 0.96168 0.73495 0.54432 0.0
C498 C 0.97605 0.73512 0.53093 0.0
C499 C 0.96096 0.76579 0.54368 0.0
C500 C 0.97528 0.76537 0.53014 0.0
N501 N 0.02187 0.74954 0.48201 0.0
C502 C 0.04198 0.73371 0.45899 0.0
C503 C 0.05027 0.74893 0.45374 0.0
C504 C 0.04402 0.76447 0.4627 0.0
C505 C 0.02989 0.76449 0.47658 0.0
C506 C 0.02798 0.7343 0.47309 0.0
H507 H 0.02576 0.77677 0.48277 0.0
H508 H 0.02245 0.72222 0.47669 0.0
H509 H 0.98137 0.72289 0.52666 0.0
H510 H 0.97991 0.7775 0.52499 0.0
C511 C 0.00271 0.79256 0.50354 0.0
C512 C 0.03376 0.75028 0.54918 0.0
C513 C 0.97039 0.7496 0.45713 0.0
C514 C 0.00213 0.70715 0.5018 0.0
H515 H 0.04123 0.78521 0.5648 0.0
H516 H 0.0241 0.80846 0.54001 0.0
H517 H 0.98188 0.80776 0.4672 0.0
H518 H 0.96423 0.78397 0.44172 0.0
H519 H 0.96157 0.71468 0.44287 0.0
H520 H 0.97902 0.69133 0.46715 0.0
H521 H 0.02454 0.69191 0.53648 0.0
H522 H 0.04171 0.71579 0.5625 0.0
H523 H 0.95681 0.72272 0.54972 0.0
H524 H 0.95527 0.77811 0.5481 0.0
H525 H 0.04648 0.72132 0.45265 0.0
H526 H 0.04989 0.77663 0.45886 0.0
C527 C 0.26914 0.97548 0.53975 0.0
C528 C 0.28503 0.96961 0.54849 0.0
C529 C 0.29717 0.97977 0.5396 0.0
C530 C 0.28808 0.99131 0.5261 0.0
N531 N 0.27083 0.98917 0.52578 0.0
Co532 Co 0.25293 0.00366 0.50888 0.0
N533 N 0.27089 0.0184 0.49542 0.0
C534 C 0.28815 0.01667 0.49868 0.0
C535 C 0.29727 0.02854 0.48726 0.0
C536 C 0.28515 0.03848 0.47597 0.0
C537 C 0.26924 0.03205 0.48112 0.0
N538 N 0.23501 0.01835 0.49232 0.0
C539 C 0.23671 0.03224 0.47874 0.0
C540 C 0.22082 0.03866 0.47091 0.0
C541 C 0.20866 0.02859 0.47993 0.0
C542 C 0.21775 0.01661 0.49268 0.0
N543 N 0.23496 0.98872 0.52198 0.0
C544 C 0.21771 0.99008 0.51803 0.0
C545 C 0.20859 0.9778 0.52869 0.0
C546 C 0.22069 0.96795 0.54016 0.0
C547 C 0.23661 0.97488 0.53596 0.0
N548 N 0.25261 0.01944 0.53662 0.0
C549 C 0.25185 0.04397 0.57358 0.0
C550 C 0.2367 0.03644 0.56385 0.0
C551 C 0.23737 0.02428 0.54556 0.0
C552 C 0.26744 0.03852 0.5652 0.0
C553 C 0.26753 0.02627 0.54691 0.0
N554 N 0.25322 0.98791 0.4811 0.0
C555 C 0.23809 0.97123 0.45006 0.0
C556 C 0.25353 0.9644 0.44288 0.0
C557 C 0.26885 0.96985 0.45471 0.0
C558 C 0.2684 0.98156 0.47359 0.0
C559 C 0.23824 0.98289 0.46904 0.0
H560 H 0.2805 0.98514 0.48194 0.0
H561 H 0.22604 0.98744 0.47378 0.0
H562 H 0.22536 0.01926 0.53867 0.0
H563 H 0.27981 0.02275 0.5412 0.0
C564 C 0.29539 0.00407 0.51314 0.0
C565 C 0.25286 0.96768 0.54545 0.0
C566 C 0.25299 0.03965 0.47238 0.0
C567 C 0.21045 0.00327 0.5046 0.0
H568 H 0.28761 0.95909 0.56015 0.0
H569 H 0.31099 0.97884 0.54259 0.0
H570 H 0.3111 0.02992 0.48734 0.0
H571 H 0.28774 0.04934 0.4653 0.0
H572 H 0.21826 0.04944 0.45969 0.0
H573 H 0.19484 0.02977 0.47734 0.0
H574 H 0.19477 0.97621 0.5282 0.0
H575 H 0.21807 0.95688 0.5504 0.0
H576 H 0.22428 0.04035 0.56971 0.0
H577 H 0.27954 0.04381 0.57253 0.0
H578 H 0.22587 0.96724 0.44156 0.0
H579 H 0.28115 0.96506 0.44951 0.0
C580 C 0.52756 0.76904 0.03982 0.0
C581 C 0.53269 0.78489 0.04979 0.0
C582 C 0.52338 0.79712 0.03803 0.0
C583 C 0.51306 0.78808 0.02175 0.0
N584 N 0.5151 0.77079 0.0225 0.0
Co585 Co 0.5024 0.7528 0.00233 0.0
N586 N 0.48971 0.77087 0.98387 0.0
C587 C 0.49178 0.78817 0.9862 0.0
C588 C 0.48134 0.79727 0.97093 0.0
C589 C 0.47189 0.78508 0.9582 0.0
C590 C 0.47707 0.7692 0.96663 0.0
N591 N 0.4893 0.73482 0.98257 0.0
C592 C 0.4763 0.7366 0.96597 0.0
C593 C 0.46997 0.72072 0.95755 0.0
C594 C 0.47925 0.70847 0.96929 0.0
C595 C 0.49058 0.71751 0.98424 0.0
N596 N 0.51547 0.73473 0.02039 0.0
C597 C 0.51423 0.71743 0.01697 0.0
C598 C 0.52551 0.70832 0.0311 0.0
C599 C 0.53468 0.72051 0.04418 0.0
C600 C 0.52833 0.73643 0.03736 0.0
N601 N 0.48394 0.75269 0.02477 0.0
C602 C 0.45658 0.75218 0.05487 0.0
C603 C 0.46512 0.73704 0.04867 0.0
C604 C 0.47858 0.73757 0.03372 0.0
C605 C 0.46224 0.76765 0.04605 0.0
C606 C 0.47586 0.76762 0.03126 0.0
N607 N 0.52086 0.7529 0.97989 0.0
C608 C 0.54 0.73744 0.95502 0.0
C609 C 0.5481 0.75274 0.94964 0.0
C610 C 0.54212 0.76818 0.95935 0.0
C611 C 0.52861 0.76796 0.97431 0.0
C612 C 0.52652 0.73782 0.96996 0.0
H613 H 0.52481 0.78013 0.98135 0.0
H614 H 0.52096 0.7257 0.97331 0.0
H615 H 0.48435 0.72554 0.02956 0.0
H616 H 0.47948 0.77982 0.0251 0.0
C617 C 0.50242 0.79549 0.00433 0.0
C618 C 0.53536 0.75279 0.04687 0.0
C619 C 0.46906 0.75299 0.9584 0.0
C620 C 0.5024 0.71012 1.00025 0.0
H621 H 0.5424 0.78737 0.06382 0.0
H622 H 0.52436 0.81097 0.04062 0.0
H623 H 0.48033 0.81112 0.9697 0.0
H624 H 0.46201 0.7876 0.94463 0.0
H625 H 0.45952 0.71821 0.94457 0.0
H626 H 0.4777 0.69462 0.96745 0.0
H627 H 0.52705 0.69447 0.03159 0.0
H628 H 0.54504 0.71792 0.05702 0.0
H629 H 0.46152 0.72474 0.05539 0.0
H630 H 0.456 0.77975 0.0501 0.0
H631 H 0.54397 0.72517 0.94761 0.0
H632 H 0.54805 0.78037 0.95584 0.0
C633 C 0.22905 0.52498 0.0463 0.0
C634 C 0.21282 0.5293 0.05331 0.0
C635 C 0.20127 0.52117 0.03786 0.0
C636 C 0.21108 0.51238 0.02244 0.0
N637 N 0.22822 0.51429 0.02716 0.0
Co638 Co 0.24717 0.50396 0.00919 0.0
N639 N 0.23015 0.49245 0.98606 0.0
C640 C 0.2128 0.49342 0.98565 0.0
C641 C 0.20458 0.48368 0.96801 0.0
C642 C 0.21744 0.47584 0.95659 0.0
C643 C 0.23281 0.48134 0.96797 0.0
N644 N 0.26612 0.4936 0.99128 0.0
C645 C 0.26527 0.48244 0.97266 0.0
C646 C 0.28149 0.47821 0.96549 0.0
C647 C 0.29305 0.48679 0.98043 0.0
C648 C 0.28326 0.49574 0.99572 0.0
N649 N 0.26421 0.51546 0.0323 0.0
C650 C 0.28157 0.51478 0.03238 0.0
C651 C 0.28982 0.52418 0.05032 0.0
C652 C 0.27697 0.53142 0.06237 0.0
C653 C 0.26157 0.52594 0.05103 0.0
N654 N 0.24717 0.48314 0.02893 0.0
C655 C 0.24728 0.45355 0.057 0.0
C656 C 0.26259 0.46184 0.05223 0.0
C657 C 0.26225 0.47639 0.03828 0.0
C658 C 0.23191 0.46043 0.0473 0.0
C659 C 0.23214 0.47506 0.03352 0.0
N660 N 0.24718 0.52481 0.9894 0.0
C661 C 0.26258 0.54718 0.9705 0.0
C662 C 0.24725 0.55424 0.961 0.0
C663 C 0.23188 0.54626 0.96617 0.0
C664 C 0.23213 0.53177 0.98025 0.0
C665 C 0.26226 0.53268 0.98448 0.0
H666 H 0.21995 0.52647 0.98354 0.0
H667 H 0.27441 0.52807 0.99105 0.0
H668 H 0.27439 0.48198 0.03534 0.0
H669 H 0.21999 0.47956 0.02665 0.0
C670 C 0.20459 0.50269 0.00297 0.0
C671 C 0.24482 0.5317 0.05806 0.0
C672 C 0.24953 0.47489 0.96189 0.0
C673 C 0.28979 0.50556 0.01503 0.0
H674 H 0.20969 0.53762 0.06794 0.0
H675 H 0.18738 0.52178 0.03771 0.0
H676 H 0.19087 0.48207 0.96433 0.0
H677 H 0.21567 0.46678 0.94192 0.0
H678 H 0.28461 0.46955 0.95121 0.0
H679 H 0.30694 0.48625 0.98048 0.0
H680 H 0.30353 0.52579 0.05398 0.0
H681 H 0.27876 0.54 0.07758 0.0
H682 H 0.27488 0.45732 0.05946 0.0
H683 H 0.21966 0.45445 0.05001 0.0
H684 H 0.2749 0.55264 0.96692 0.0
H685 H 0.21959 0.55129 0.95966 0.0
C686 C 0.47782 0.2678 0.97934 0.0
C687 C 0.4715 0.28353 0.97168 0.0
C688 C 0.47982 0.29602 0.98524 0.0
C689 C 0.49061 0.28729 1.00046 0.0
N690 N 0.48985 0.26993 0.99733 0.0
Co691 Co 0.50252 0.25232 0.01671 0.0
N692 N 0.51418 0.27077 0.03726 0.0
C693 C 0.51219 0.28803 0.03569 0.0
C694 C 0.52224 0.29744 0.05188 0.0
C695 C 0.53143 0.28551 0.06434 0.0
C696 C 0.52644 0.26945 0.05491 0.0
N697 N 0.51502 0.23472 0.0363 0.0
C698 C 0.52708 0.23687 0.05423 0.0
C699 C 0.53285 0.22118 0.06266 0.0
C700 C 0.52422 0.20865 0.04948 0.0
C701 C 0.51375 0.21735 0.0338 0.0
N702 N 0.49106 0.23388 0.99594 0.0
C703 C 0.49334 0.21664 0.99727 0.0
C704 C 0.48379 0.20723 0.98053 0.0
C705 C 0.47473 0.21914 0.96785 0.0
C706 C 0.47922 0.23519 0.97775 0.0
N707 N 0.52196 0.25286 0.99589 0.0
C708 C 0.55023 0.25366 0.96742 0.0
C709 C 0.54405 0.23808 0.97521 0.0
C710 C 0.53002 0.23797 0.98922 0.0
C711 C 0.54188 0.26883 0.97402 0.0
C712 C 0.52793 0.26814 0.98815 0.0
N713 N 0.48305 0.25177 0.03754 0.0
C714 C 0.46195 0.23573 0.05734 0.0
C715 C 0.45461 0.25096 0.06568 0.0
C716 C 0.46189 0.26659 0.05991 0.0
C717 C 0.47599 0.2667 0.04601 0.0
C718 C 0.47602 0.23643 0.04343 0.0
H719 H 0.48087 0.27903 0.04228 0.0
H720 H 0.48085 0.22437 0.03748 0.0
H721 H 0.52605 0.22568 0.9946 0.0
H722 H 0.52224 0.28016 0.99266 0.0
C723 C 0.50116 0.29501 0.01837 0.0
C724 C 0.47147 0.25121 0.96968 0.0
C725 C 0.53416 0.25341 0.06284 0.0
C726 C 0.50375 0.20963 0.01528 0.0
H727 H 0.46162 0.28583 0.95805 0.0
H728 H 0.47794 0.30982 0.98445 0.0
H729 H 0.52302 0.31133 0.05407 0.0
H730 H 0.54093 0.28829 0.07853 0.0
H731 H 0.54263 0.21898 0.07647 0.0
H732 H 0.52584 0.19484 0.05065 0.0
H733 H 0.48322 0.19334 0.97813 0.0
H734 H 0.46562 0.21633 0.9532 0.0
H735 H 0.55018 0.22597 0.9709 0.0
H736 H 0.54598 0.28123 0.96818 0.0
H737 H 0.45667 0.22328 0.06112 0.0
H738 H 0.45683 0.27875 0.06625 0.0
C739 C 0.74056 0.53412 0.03919 0.0
C740 C 0.7246 0.541 0.04367 0.0
C741 C 0.71257 0.53065 0.03203 0.0
C742 C 0.72179 0.51803 0.02122 0.0
N743 N 0.73903 0.51963 0.02528 0.0
Co744 Co 0.75712 0.50389 0.01295 0.0
N745 N 0.73933 0.4887 0.99568 0.0
C746 C 0.72206 0.49082 0.99505 0.0
C747 C 0.71308 0.47863 0.9815 0.0
C748 C 0.72531 0.468 0.97298 0.0
C749 C 0.74113 0.47426 0.982 0.0
N750 N 0.7752 0.48818 1.00052 0.0
C751 C 0.77366 0.47372 0.98652 0.0
C752 C 0.78961 0.46657 0.98263 0.0
C753 C 0.80164 0.47692 0.99429 0.0
C754 C 0.79243 0.48971 0.00474 0.0
N755 N 0.77489 0.51905 0.03029 0.0
C756 C 0.79216 0.51697 0.03088 0.0
C757 C 0.80113 0.52945 0.04392 0.0
C758 C 0.7889 0.54019 0.0522 0.0
C759 C 0.77307 0.53358 0.04378 0.0
N760 N 0.75604 0.48953 0.04076 0.0
C761 C 0.75452 0.46756 0.07861 0.0
C762 C 0.77031 0.47306 0.07128 0.0
C763 C 0.77076 0.484 0.05252 0.0
C764 C 0.7395 0.47368 0.06722 0.0
C765 C 0.74055 0.48458 0.0485 0.0
N766 N 0.75821 0.51826 0.98516 0.0
C767 C 0.77468 0.53472 0.9593 0.0
C768 C 0.75963 0.54065 0.94781 0.0
C769 C 0.74389 0.53471 0.95469 0.0
C770 C 0.74348 0.52359 0.97325 0.0
C771 C 0.77368 0.52353 0.97772 0.0
H772 H 0.73108 0.5198 0.97791 0.0
H773 H 0.78559 0.51954 0.98584 0.0
H774 H 0.78318 0.48762 0.04772 0.0
H775 H 0.72866 0.48857 0.04035 0.0
C776 C 0.71464 0.50453 0.00715 0.0
C777 C 0.75674 0.54179 0.04877 0.0
C778 C 0.75747 0.46611 0.97681 0.0
C779 C 0.79957 0.50323 0.01881 0.0
H780 H 0.7219 0.55232 0.05431 0.0
H781 H 0.69874 0.53213 0.03152 0.0
H782 H 0.69929 0.47764 0.9781 0.0
H783 H 0.72281 0.45693 0.96134 0.0
H784 H 0.79232 0.45498 0.97254 0.0
H785 H 0.81545 0.47526 0.99517 0.0
H786 H 0.81494 0.53066 0.04694 0.0
H787 H 0.79137 0.55167 0.06309 0.0
H788 H 0.78229 0.46883 0.07987 0.0
H789 H 0.72697 0.46963 0.07219 0.0
H790 H 0.78719 0.53883 0.95428 0.0
H791 H 0.73187 0.53909 0.94637 0.0
H792 H 0.19378 0.25999 0.3669 0.0
H793 H 0.16959 0.26087 0.39203 0.0
H794 H 0.13748 0.23547 0.33741 0.0
H795 H 0.16184 0.23362 0.31265 0.0
H796 H 0.13904 0.27652 0.38629 0.0
H797 H 0.1289 0.20617 0.39222 0.0
H798 H 0.14779 0.21509 0.38041 0.0
H799 H 0.12798 0.21311 0.36261 0.0
C800 C 0.18168 0.25427 0.36036 0.0
C801 C 0.17984 0.2466 0.33777 0.0
C802 C 0.1678 0.25495 0.37469 0.0
C803 C 0.15179 0.24799 0.36676 0.0
C804 C 0.14981 0.24057 0.34412 0.0
H805 H 0.05431 0.27153 0.42714 0.0
H806 H 0.07914 0.27035 0.40294 0.0
C807 C 0.16372 0.23975 0.32984 0.0
C808 C 0.13708 0.2489 0.38199 0.0
H809 H 0.10693 0.22435 0.4063 0.0
C810 C 0.13206 0.2651 0.39077 0.0
C811 C 0.12815 0.23398 0.38811 0.0
C812 C 0.13357 0.21609 0.38055 0.0
C813 C 0.11822 0.26683 0.40522 0.0
C814 C 0.10884 0.25198 0.41052 0.0
C815 C 0.11401 0.23575 0.40201 0.0
C816 C 0.0938 0.25289 0.42518 0.0
C817 C 0.11404 0.28449 0.41504 0.0
C818 C 0.09356 0.24311 0.44536 0.0
C819 C 0.07931 0.24358 0.45899 0.0
C820 C 0.06502 0.25389 0.45275 0.0
C821 C 0.06526 0.26368 0.43254 0.0
C822 C 0.07946 0.26306 0.41877 0.0
H823 H 0.12526 0.29334 0.41513 0.0
H824 H 0.10343 0.29017 0.40398 0.0
H825 H 0.10987 0.28381 0.43316 0.0
H826 H 0.10446 0.23515 0.45062 0.0
H827 H 0.07954 0.23602 0.47458 0.0
H828 H 0.73159 0.17218 0.31147 0.0
H829 H 0.73017 0.14519 0.3322 0.0
H830 H 0.77757 0.15827 0.37172 0.0
H831 H 0.77891 0.18545 0.35127 0.0
H832 H 0.75226 0.11788 0.33563 0.0
H833 H 0.74482 0.14955 0.42254 0.0
H834 H 0.74289 0.16117 0.39574 0.0
H835 H 0.76378 0.15621 0.40895 0.0
C836 C 0.74177 0.16921 0.32445 0.0
C837 C 0.75532 0.18087 0.32992 0.0
C838 C 0.74092 0.15385 0.33628 0.0
C839 C 0.75361 0.14993 0.35371 0.0
C840 C 0.76745 0.16129 0.35869 0.0
H841 H 0.77123 0.05124 0.41711 0.0
H842 H 0.77198 0.0763 0.39246 0.0
C843 C 0.76823 0.17674 0.34701 0.0
C844 C 0.75219 0.13403 0.36687 0.0
H845 H 0.74929 0.1193 0.42186 0.0
C846 C 0.75155 0.11815 0.35448 0.0
C847 C 0.75096 0.13453 0.39138 0.0
C848 C 0.75047 0.15128 0.40543 0.0
C849 C 0.74995 0.10264 0.36605 0.0
C850 C 0.74939 0.10311 0.39065 0.0
C851 C 0.74984 0.11901 0.40298 0.0
C852 C 0.74834 0.08731 0.40415 0.0
C853 C 0.74857 0.08597 0.35179 0.0
C854 C 0.73493 0.08536 0.41908 0.0
C855 C 0.73469 0.0713 0.43358 0.0
C856 C 0.74784 0.0589 0.43334 0.0
C857 C 0.76102 0.06066 0.41788 0.0
C858 C 0.76133 0.07484 0.40354 0.0
H859 H 0.74413 0.08819 0.33333 0.0
H860 H 0.76142 0.07981 0.35176 0.0
H861 H 0.73955 0.07686 0.35928 0.0
H862 H 0.72485 0.09494 0.41989 0.0
H863 H 0.72453 0.07051 0.44556 0.0
H864 H 0.84226 0.74255 0.30482 0.0
H865 H 0.86885 0.74072 0.32954 0.0
H866 H 0.84806 0.77579 0.38023 0.0
H867 H 0.82154 0.77821 0.35529 0.0
H868 H 0.8905 0.7721 0.34899 0.0
H869 H 0.86447 0.72929 0.4147 0.0
H870 H 0.85513 0.73017 0.3851 0.0
H871 H 0.85177 0.74758 0.40558 0.0
C872 C 0.84338 0.7501 0.32105 0.0
C873 C 0.82974 0.76058 0.32802 0.0
C874 C 0.85855 0.74892 0.3352 0.0
C875 C 0.86029 0.75803 0.35668 0.0
C876 C 0.84681 0.76854 0.36375 0.0
H877 H 0.93936 0.76102 0.4698 0.0
H878 H 0.91267 0.76327 0.44501 0.0
C879 C 0.83167 0.76984 0.34953 0.0
C880 C 0.8763 0.7566 0.37162 0.0
H881 H 0.89316 0.73865 0.42152 0.0
C882 C 0.89115 0.76479 0.36485 0.0
C883 C 0.87696 0.74711 0.39227 0.0
C884 C 0.8613 0.73792 0.39994 0.0
C885 C 0.90671 0.76392 0.37846 0.0
C886 C 0.90748 0.75419 0.39899 0.0
C887 C 0.89256 0.74603 0.40574 0.0
C888 C 0.92356 0.75252 0.41392 0.0
C889 C 0.92204 0.7738 0.37102 0.0
C890 C 0.93843 0.74548 0.40474 0.0
C891 C 0.95367 0.74435 0.41881 0.0
C892 C 0.95411 0.74993 0.44234 0.0
C893 C 0.93919 0.75661 0.45166 0.0
C894 C 0.92401 0.75788 0.43756 0.0
H895 H 0.91809 0.7843 0.35909 0.0
H896 H 0.92962 0.77952 0.38638 0.0
H897 H 0.9305 0.76489 0.3615 0.0
H898 H 0.93827 0.74091 0.38669 0.0
H899 H 0.96512 0.73923 0.41135 0.0
H900 H 0.22699 0.83939 0.28882 0.0
H901 H 0.2281 0.86814 0.30789 0.0
H902 H 0.26721 0.85059 0.35817 0.0
H903 H 0.26647 0.82204 0.339 0.0
H904 H 0.22231 0.87626 0.35571 0.0
H905 H 0.28776 0.8949 0.33285 0.0
H906 H 0.27569 0.87762 0.31769 0.0
H907 H 0.2868 0.87409 0.34557 0.0
C908 C 0.23592 0.84174 0.30383 0.0
C909 C 0.24666 0.82852 0.31246 0.0
C910 C 0.2365 0.8581 0.31468 0.0
C911 C 0.24795 0.86147 0.33412 0.0
C912 C 0.25853 0.84827 0.3429 0.0
H913 H 0.27253 0.93496 0.44222 0.0
H914 H 0.27082 0.91155 0.41273 0.0
C915 C 0.25793 0.83193 0.33213 0.0
C916 C 0.24843 0.87857 0.34599 0.0
H917 H 0.27569 0.91141 0.36378 0.0
C918 C 0.23385 0.88415 0.35719 0.0
C919 C 0.26354 0.88872 0.34774 0.0
C920 C 0.27929 0.88363 0.33514 0.0
C921 C 0.23428 0.89922 0.37129 0.0
C922 C 0.24962 0.90903 0.37378 0.0
C923 C 0.26398 0.9038 0.3618 0.0
C924 C 0.25147 0.92391 0.39032 0.0
C925 C 0.21866 0.90406 0.38436 0.0
C926 C 0.24143 0.93873 0.38708 0.0
C927 C 0.2424 0.95216 0.40387 0.0
C928 C 0.25351 0.95096 0.42404 0.0
C929 C 0.264 0.93633 0.42674 0.0
C930 C 0.26299 0.92293 0.40999 0.0
H931 H 0.20904 0.89346 0.38383 0.0
H932 H 0.2224 0.90752 0.40292 0.0
H933 H 0.21241 0.91548 0.37633 0.0
H934 H 0.23268 0.93979 0.37175 0.0
H935 H 0.23437 0.9634 0.40119 0.0
H936 H 0.15986 0.77289 0.70369 0.0
H937 H 0.13276 0.77085 0.67971 0.0
H938 H 0.15958 0.7484 0.62266 0.0
H939 H 0.18679 0.75063 0.64639 0.0
H940 H 0.1355 0.77614 0.61088 0.0
H941 H 0.10711 0.72451 0.66172 0.0
H942 H 0.11543 0.74302 0.67838 0.0
H943 H 0.12989 0.72915 0.66344 0.0
C944 C 0.16001 0.76768 0.68596 0.0
C945 C 0.17543 0.76187 0.67693 0.0
C946 C 0.14451 0.76637 0.67239 0.0
C947 C 0.14419 0.75926 0.64958 0.0
C948 C 0.15959 0.75381 0.64031 0.0
H949 H 0.06586 0.74239 0.53667 0.0
H950 H 0.09281 0.74418 0.56123 0.0
C951 C 0.17508 0.75502 0.65391 0.0
C952 C 0.12779 0.75755 0.6353 0.0
H953 H 0.08928 0.73637 0.63146 0.0
C954 C 0.12539 0.76743 0.61529 0.0
C955 C 0.11467 0.74622 0.64126 0.0
C956 C 0.11686 0.73499 0.66226 0.0
C957 C 0.11004 0.76644 0.60117 0.0
C958 C 0.09695 0.75496 0.60697 0.0
C959 C 0.09935 0.74513 0.62705 0.0
C960 C 0.08066 0.753 0.59241 0.0
C961 C 0.10782 0.77799 0.58049 0.0
C962 C 0.06488 0.75665 0.60207 0.0
C963 C 0.04954 0.75541 0.58816 0.0
C964 C 0.04981 0.75051 0.56443 0.0
C965 C 0.06549 0.74631 0.55494 0.0
C966 C 0.08082 0.74747 0.56887 0.0
H967 H 0.11678 0.78916 0.58222 0.0
H968 H 0.11061 0.77052 0.56435 0.0
H969 H 0.09445 0.78291 0.5784 0.0
H970 H 0.06449 0.76079 0.62025 0.0
H971 H 0.03749 0.75858 0.59574 0.0
H972 H 0.22313 0.16977 0.72072 0.0
H973 H 0.22425 0.14164 0.70011 0.0
H974 H 0.25927 0.16245 0.65277 0.0
H975 H 0.25847 0.19043 0.67341 0.0
H976 H 0.217 0.13378 0.64968 0.0
H977 H 0.28402 0.11947 0.68211 0.0
H978 H 0.27084 0.13541 0.69609 0.0
H979 H 0.28092 0.14033 0.66973 0.0
C980 C 0.23105 0.16831 0.7059 0.0
C981 C 0.24075 0.18223 0.69867 0.0
C982 C 0.23162 0.15231 0.69416 0.0
C983 C 0.24203 0.15003 0.67524 0.0
C984 C 0.25134 0.164 0.66758 0.0
H985 H 0.26993 0.07401 0.57517 0.0
H986 H 0.26718 0.09865 0.60219 0.0
C987 C 0.25073 0.17998 0.67921 0.0
C988 C 0.24331 0.13303 0.66342 0.0
H989 H 0.27194 0.10131 0.65118 0.0
C990 C 0.22891 0.12652 0.65018 0.0
C991 C 0.2589 0.12372 0.66427 0.0
C992 C 0.27454 0.12998 0.67897 0.0
C993 C 0.22993 0.11118 0.63678 0.0
C994 C 0.24567 0.10208 0.63716 0.0
C995 C 0.25991 0.10836 0.65099 0.0
C996 C 0.24797 0.08665 0.62207 0.0
C997 C 0.21441 0.10526 0.62155 0.0
C998 C 0.23837 0.07164 0.62476 0.0
C999 C 0.23993 0.05752 0.60937 0.0
C1000 C 0.25123 0.0582 0.59122 0.0
C1001 C 0.26127 0.07305 0.58915 0.0
C1002 C 0.25966 0.08715 0.60447 0.0
H1003 H 0.20455 0.11555 0.61962 0.0
H1004 H 0.2182 0.10109 0.60389 0.0
H1005 H 0.20844 0.09408 0.62956 0.0
H1006 H 0.22954 0.07093 0.63858 0.0
H1007 H 0.23222 0.04613 0.61154 0.0
H1008 H 0.81802 0.22736 0.67456 0.0
H1009 H 0.84325 0.22836 0.65108 0.0
H1010 H 0.85528 0.2794 0.67922 0.0
H1011 H 0.83024 0.27843 0.70294 0.0
H1012 H 0.85062 0.25488 0.61718 0.0
H1013 H 0.90041 0.25055 0.69061 0.0
H1014 H 0.87837 0.24398 0.69312 0.0
H1015 H 0.88389 0.26645 0.69413 0.0
C1016 C 0.82612 0.23873 0.67587 0.0
C1017 C 0.82217 0.25281 0.69061 0.0
C1018 C 0.84046 0.23931 0.66239 0.0
C1019 C 0.85117 0.25388 0.66363 0.0
C1020 C 0.84724 0.26797 0.67823 0.0
H1021 H 0.94607 0.27942 0.60041 0.0
H1022 H 0.92052 0.2794 0.62317 0.0
C1023 C 0.83286 0.26745 0.6916 0.0
C1024 C 0.86633 0.25446 0.64937 0.0
H1025 H 0.9102 0.2554 0.65318 0.0
C1026 C 0.86366 0.25494 0.62498 0.0
C1027 C 0.88327 0.25466 0.6597 0.0
C1028 C 0.88677 0.25376 0.68582 0.0
C1029 C 0.87755 0.25585 0.61059 0.0
C1030 C 0.89455 0.25583 0.62089 0.0
C1031 C 0.89718 0.25541 0.64532 0.0
C1032 C 0.9098 0.25603 0.60665 0.0
C1033 C 0.87387 0.25722 0.58456 0.0
C1034 C 0.91232 0.24282 0.58996 0.0
C1035 C 0.92678 0.2429 0.57673 0.0
C1036 C 0.93916 0.25609 0.58013 0.0
C1037 C 0.93668 0.26922 0.59707 0.0
C1038 C 0.92215 0.26916 0.61022 0.0
H1039 H 0.8607 0.26218 0.58032 0.0
H1040 H 0.88328 0.26583 0.57691 0.0
H1041 H 0.8748 0.24423 0.57609 0.0
H1042 H 0.90315 0.23235 0.58726 0.0
H1043 H 0.92816 0.23269 0.56368 0.0
H1044 H 0.72022 0.82608 0.68576 0.0
H1045 H 0.71982 0.85381 0.66634 0.0
H1046 H 0.76909 0.84225 0.63924 0.0
H1047 H 0.76954 0.81447 0.65846 0.0
H1048 H 0.74845 0.8802 0.67381 0.0
H1049 H 0.73522 0.85634 0.58189 0.0
H1050 H 0.72964 0.84415 0.60671 0.0
H1051 H 0.75159 0.84517 0.59903 0.0
C1052 C 0.73084 0.82938 0.67539 0.0
C1053 C 0.7449 0.8182 0.67351 0.0
C1054 C 0.73063 0.8452 0.66448 0.0
C1055 C 0.74438 0.84989 0.65136 0.0
C1056 C 0.75833 0.83869 0.64921 0.0
H1057 H 0.77107 0.93439 0.56844 0.0
H1058 H 0.76991 0.90796 0.59013 0.0
C1059 C 0.75861 0.82294 0.66025 0.0
C1060 C 0.74448 0.86677 0.6405 0.0
H1061 H 0.74255 0.8858 0.5877 0.0
C1062 C 0.74705 0.88153 0.65501 0.0
C1063 C 0.74268 0.86825 0.61602 0.0
C1064 C 0.73951 0.85268 0.59991 0.0
C1065 C 0.7484 0.89786 0.64551 0.0
C1066 C 0.74674 0.89934 0.62096 0.0
C1067 C 0.74387 0.88456 0.60652 0.0
C1068 C 0.74827 0.91604 0.60969 0.0
C1069 C 0.75213 0.91326 0.66175 0.0
C1070 C 0.73661 0.92939 0.61379 0.0
C1071 C 0.73742 0.94467 0.60171 0.0
C1072 C 0.74978 0.94672 0.58513 0.0
C1073 C 0.76161 0.93338 0.5814 0.0
C1074 C 0.76086 0.91819 0.5936 0.0
H1075 H 0.75739 0.90936 0.67926 0.0
H1076 H 0.76142 0.92213 0.65437 0.0
H1077 H 0.74002 0.92045 0.66414 0.0
H1078 H 0.72661 0.92782 0.62587 0.0
H1079 H 0.72822 0.95477 0.60509 0.0
H1080 H 0.80959 0.72917 0.64464 0.0
H1081 H 0.83513 0.7302 0.62185 0.0
H1082 H 0.85867 0.76682 0.67217 0.0
H1083 H 0.83329 0.76568 0.69516 0.0
H1084 H 0.8499 0.75695 0.6009 0.0
H1085 H 0.89589 0.73075 0.66851 0.0
H1086 H 0.87291 0.72995 0.67079 0.0
H1087 H 0.88464 0.74948 0.67848 0.0
C1088 C 0.8202 0.73748 0.65079 0.0
C1089 C 0.81949 0.74724 0.67178 0.0
C1090 C 0.83479 0.73801 0.63781 0.0
C1091 C 0.84895 0.74832 0.64554 0.0
C1092 C 0.84812 0.75839 0.66621 0.0
H1093 H 0.94673 0.77164 0.58796 0.0
H1094 H 0.92098 0.77154 0.61051 0.0
C1095 C 0.83359 0.75777 0.67929 0.0
C1096 C 0.86446 0.74877 0.63176 0.0
H1097 H 0.90789 0.7421 0.63505 0.0
C1098 C 0.86256 0.75362 0.60834 0.0
C1099 C 0.88098 0.7444 0.64148 0.0
C1100 C 0.88375 0.73819 0.66612 0.0
C1101 C 0.87677 0.75447 0.59449 0.0
C1102 C 0.89327 0.75024 0.60429 0.0
C1103 C 0.89521 0.74542 0.62768 0.0
C1104 C 0.90867 0.75045 0.5904 0.0
C1105 C 0.8741 0.76013 0.56959 0.0
C1106 C 0.91028 0.73852 0.57179 0.0
C1107 C 0.92495 0.73852 0.55893 0.0
C1108 C 0.93827 0.75047 0.56444 0.0
C1109 C 0.9366 0.7624 0.58313 0.0
C1110 C 0.92197 0.76232 0.59609 0.0
H1111 H 0.86141 0.76641 0.56626 0.0
H1112 H 0.88437 0.76924 0.56535 0.0
H1113 H 0.87471 0.7487 0.55756 0.0
H1114 H 0.90023 0.72913 0.56731 0.0
H1115 H 0.92578 0.72927 0.54451 0.0
H1116 H 0.26307 0.82173 0.65073 0.0
H1117 H 0.26348 0.84676 0.62584 0.0
H1118 H 0.23972 0.87759 0.67866 0.0
H1119 H 0.23906 0.85261 0.70356 0.0
H1120 H 0.23669 0.86677 0.60743 0.0
H1121 H 0.28104 0.90712 0.66546 0.0
H1122 H 0.27816 0.88436 0.66957 0.0
H1123 H 0.26255 0.89959 0.67937 0.0
C1124 C 0.2578 0.83378 0.65707 0.0
C1125 C 0.25109 0.83504 0.67934 0.0
C1126 C 0.25814 0.84815 0.6428 0.0
C1127 C 0.2519 0.86421 0.65044 0.0
C1128 C 0.24502 0.86549 0.67252 0.0
H1129 H 0.2419 0.9661 0.58978 0.0
H1130 H 0.24144 0.94093 0.61478 0.0
C1131 C 0.24465 0.85113 0.6868 0.0
C1132 C 0.25227 0.87948 0.63511 0.0
H1133 H 0.26755 0.92072 0.63265 0.0
C1134 C 0.24352 0.87853 0.61292 0.0
C1135 C 0.26112 0.89491 0.6422 0.0
C1136 C 0.27139 0.89658 0.66535 0.0
C1137 C 0.24309 0.89259 0.59789 0.0
C1138 C 0.25197 0.90802 0.60496 0.0
C1139 C 0.26072 0.90896 0.62716 0.0
C1140 C 0.25229 0.92331 0.58966 0.0
C1141 C 0.23271 0.89093 0.57482 0.0
C1142 C 0.25875 0.92196 0.56728 0.0
C1143 C 0.25893 0.93632 0.55298 0.0
C1144 C 0.25281 0.95238 0.56082 0.0
C1145 C 0.24661 0.95383 0.5833 0.0
C1146 C 0.24639 0.93947 0.59759 0.0
H1147 H 0.22292 0.88053 0.57492 0.0
H1148 H 0.22609 0.9032 0.5705 0.0
H1149 H 0.24145 0.88767 0.56077 0.0
H1150 H 0.26377 0.90982 0.5609 0.0
H1151 H 0.26386 0.9349 0.53577 0.0
H1152 H 0.18726 0.2707 0.66086 0.0
H1153 H 0.16028 0.27119 0.63661 0.0
H1154 H 0.13231 0.2573 0.69588 0.0
H1155 H 0.15914 0.25724 0.7204 0.0
H1156 H 0.13727 0.24349 0.6276 0.0
H1157 H 0.10564 0.29911 0.67047 0.0
H1158 H 0.1284 0.29494 0.67477 0.0
H1159 H 0.11326 0.28278 0.69008 0.0
C1160 C 0.17533 0.26801 0.66882 0.0
C1161 C 0.17533 0.26397 0.69257 0.0
C1162 C 0.15996 0.2682 0.65491 0.0
C1163 C 0.14431 0.2645 0.66454 0.0
C1164 C 0.14423 0.26048 0.68822 0.0
H1165 H 0.0386 0.25284 0.6092 0.0
H1166 H 0.06553 0.25438 0.63396 0.0
C1167 C 0.15959 0.26026 0.70213 0.0
C1168 C 0.12814 0.2641 0.64955 0.0
H1169 H 0.08838 0.28243 0.6426 0.0
C1170 C 0.12661 0.25207 0.63076 0.0
C1171 C 0.11426 0.27527 0.65383 0.0
C1172 C 0.11545 0.28887 0.67325 0.0
C1173 C 0.11142 0.25067 0.61636 0.0
C1174 C 0.09753 0.26183 0.62064 0.0
C1175 C 0.09906 0.27389 0.63941 0.0
C1176 C 0.0813 0.26117 0.60581 0.0
C1177 C 0.11022 0.237 0.59702 0.0
C1178 C 0.08126 0.26475 0.58195 0.0
C1179 C 0.06597 0.26381 0.5679 0.0
C1180 C 0.05054 0.25937 0.57756 0.0
C1181 C 0.05046 0.25615 0.60149 0.0
C1182 C 0.06576 0.25707 0.61555 0.0
H1183 H 0.1201 0.22682 0.59979 0.0
H1184 H 0.09731 0.23085 0.59563 0.0
H1185 H 0.11232 0.24304 0.58013 0.0
H1186 H 0.09305 0.26828 0.57421 0.0
H1187 H 0.06617 0.26648 0.54947 0.0
H1188 H 0.76729 0.16169 0.71064 0.0
H1189 H 0.76656 0.13603 0.68469 0.0
H1190 H 0.73346 0.1624 0.63447 0.0
H1191 H 0.73375 0.18799 0.66058 0.0
H1192 H 0.72246 0.12882 0.64203 0.0
H1193 H 0.79165 0.12959 0.62428 0.0
H1194 H 0.78757 0.12989 0.65479 0.0
H1195 H 0.78105 0.14786 0.6373 0.0
C1196 C 0.75975 0.16203 0.69415 0.0
C1197 C 0.75063 0.17701 0.68775 0.0
C1198 C 0.7595 0.14738 0.67919 0.0
C1199 C 0.75017 0.14732 0.65741 0.0
C1200 C 0.74087 0.16214 0.65108 0.0
H1201 H 0.75854 0.07291 0.54107 0.0
H1202 H 0.75858 0.09886 0.5668 0.0
C1203 C 0.74115 0.17683 0.66599 0.0
C1204 C 0.74989 0.13174 0.64139 0.0
H1205 H 0.77565 0.1049 0.6105 0.0
C1206 C 0.73409 0.12361 0.63511 0.0
C1207 C 0.76503 0.12502 0.63209 0.0
C1208 C 0.78228 0.1336 0.63724 0.0
C1209 C 0.73305 0.10884 0.62016 0.0
C1210 C 0.74825 0.10184 0.61139 0.0
C1211 C 0.76401 0.11014 0.61736 0.0
C1212 C 0.74805 0.08606 0.59576 0.0
C1213 C 0.71562 0.10104 0.61355 0.0
C1214 C 0.74229 0.07016 0.60349 0.0
C1215 C 0.74231 0.05535 0.58881 0.0
C1216 C 0.74811 0.05615 0.56614 0.0
C1217 C 0.75396 0.07201 0.55845 0.0
C1218 C 0.754 0.08679 0.57315 0.0
H1219 H 0.70506 0.11028 0.61671 0.0
H1220 H 0.71461 0.09674 0.59486 0.0
H1221 H 0.71376 0.08962 0.62431 0.0
H1222 H 0.73796 0.06914 0.62098 0.0
H1223 H 0.7379 0.04323 0.59519 0.0
H1224 H 0.84298 0.24821 0.31659 0.0
H1225 H 0.86995 0.24621 0.34057 0.0
H1226 H 0.84376 0.26226 0.40167 0.0
H1227 H 0.81662 0.26379 0.37796 0.0
H1228 H 0.88691 0.27247 0.3676 0.0
H1229 H 0.86892 0.21837 0.42244 0.0
H1230 H 0.85689 0.22357 0.39565 0.0
H1231 H 0.85405 0.23605 0.42207 0.0
C1232 C 0.8429 0.25109 0.33519 0.0
C1233 C 0.82763 0.25606 0.3454 0.0
C1234 C 0.85834 0.25005 0.34882 0.0
C1235 C 0.85878 0.25384 0.37293 0.0
C1236 C 0.84362 0.25897 0.38316 0.0
H1237 H 0.93821 0.26029 0.48511 0.0
H1238 H 0.91121 0.26035 0.46055 0.0
C1239 C 0.82817 0.26003 0.36954 0.0
C1240 C 0.87521 0.25291 0.38724 0.0
H1241 H 0.89508 0.23294 0.43377 0.0
C1242 C 0.88876 0.26376 0.38198 0.0
C1243 C 0.87753 0.24153 0.40598 0.0
C1244 C 0.86365 0.2291 0.4118 0.0
C1245 C 0.90448 0.26382 0.39532 0.0
C1246 C 0.90677 0.2525 0.41413 0.0
C1247 C 0.89325 0.24159 0.41932 0.0
C1248 C 0.92301 0.25203 0.42891 0.0
C1249 C 0.91835 0.2763 0.38956 0.0
C1250 C 0.93847 0.24708 0.41927 0.0
C1251 C 0.95382 0.24707 0.43325 0.0
C1252 C 0.95383 0.25185 0.45703 0.0
C1253 C 0.93836 0.25652 0.46676 0.0
C1254 C 0.92302 0.25655 0.4528 0.0
H1255 H 0.91316 0.28679 0.3784 0.0
H1256 H 0.92474 0.28217 0.40575 0.0
H1257 H 0.92824 0.26928 0.37991 0.0
H1258 H 0.93866 0.24329 0.40095 0.0
H1259 H 0.9657 0.24346 0.42551 0.0
H1260 H 0.77937 0.83125 0.34496 0.0
H1261 H 0.77898 0.85674 0.37113 0.0
H1262 H 0.72465 0.86264 0.3544 0.0
H1263 H 0.72493 0.83733 0.32797 0.0
H1264 H 0.76983 0.89063 0.36182 0.0
H1265 H 0.72746 0.86361 0.42592 0.0
H1266 H 0.73757 0.85032 0.40432 0.0
H1267 H 0.71857 0.86245 0.39625 0.0
C1268 C 0.76733 0.83801 0.34667 0.0
C1269 C 0.75216 0.83207 0.33431 0.0
C1270 C 0.76712 0.85257 0.36178 0.0
C1271 C 0.75174 0.86151 0.36508 0.0
C1272 C 0.73662 0.85576 0.35262 0.0
H1273 H 0.74121 0.96573 0.42533 0.0
H1274 H 0.74179 0.93998 0.3993 0.0
C1275 C 0.73681 0.84122 0.33748 0.0
C1276 C 0.7516 0.87702 0.3812 0.0
H1277 H 0.73374 0.89353 0.43016 0.0
C1278 C 0.76196 0.89124 0.37679 0.0
C1279 C 0.74151 0.8778 0.40094 0.0
C1280 C 0.73076 0.86269 0.40734 0.0
C1281 C 0.76227 0.90626 0.39126 0.0
C1282 C 0.75178 0.90723 0.41059 0.0
C1283 C 0.74166 0.8929 0.41525 0.0
C1284 C 0.75129 0.92291 0.42634 0.0
C1285 C 0.77407 0.92085 0.38596 0.0
C1286 C 0.75604 0.92189 0.45033 0.0
C1287 C 0.75563 0.93657 0.46518 0.0
C1288 C 0.75033 0.95253 0.45638 0.0
C1289 C 0.7454 0.95356 0.43247 0.0
C1290 C 0.74584 0.93888 0.41761 0.0
H1291 H 0.78436 0.91646 0.37458 0.0
H1292 H 0.76649 0.93093 0.37666 0.0
H1293 H 0.78016 0.92679 0.40229 0.0
H1294 H 0.76022 0.90973 0.45754 0.0
H1295 H 0.75943 0.93548 0.48358 0.0
H1296 H 0.17983 0.71952 0.32814 0.0
H1297 H 0.15481 0.71954 0.35192 0.0
H1298 H 0.15508 0.7751 0.35483 0.0
H1299 H 0.18035 0.77527 0.33156 0.0
H1300 H 0.15179 0.73574 0.39808 0.0
H1301 H 0.10516 0.76102 0.33018 0.0
H1302 H 0.12548 0.75157 0.32323 0.0
H1303 H 0.12477 0.77314 0.33539 0.0
C1304 C 0.17471 0.73176 0.33402 0.0
C1305 C 0.18212 0.7474 0.32786 0.0
C1306 C 0.16035 0.73173 0.34749 0.0
C1307 C 0.15301 0.74731 0.35486 0.0
C1308 C 0.1604 0.76294 0.34895 0.0
H1309 H 0.0803 0.76711 0.46109 0.0
H1310 H 0.10527 0.76639 0.43712 0.0
C1311 C 0.17481 0.763 0.33559 0.0
C1312 C 0.13774 0.74722 0.36901 0.0
H1313 H 0.0953 0.75834 0.36819 0.0
C1314 C 0.13942 0.74065 0.39157 0.0
C1315 C 0.12162 0.75347 0.36032 0.0
C1316 C 0.11901 0.76009 0.33589 0.0
C1317 C 0.12543 0.74047 0.40587 0.0
C1318 C 0.10941 0.74711 0.39739 0.0
C1319 C 0.10765 0.75338 0.37467 0.0
C1320 C 0.0943 0.74759 0.41183 0.0
C1321 C 0.1278 0.73302 0.42986 0.0
C1322 C 0.07978 0.73746 0.4053 0.0
C1323 C 0.06549 0.73787 0.41892 0.0
C1324 C 0.06541 0.74856 0.43918 0.0
C1325 C 0.07992 0.75884 0.44549 0.0
C1326 C 0.09425 0.75834 0.43195 0.0
H1327 H 0.13974 0.72523 0.43186 0.0
H1328 H 0.12864 0.74369 0.44322 0.0
H1329 H 0.11665 0.7248 0.43342 0.0
H1330 H 0.07955 0.72916 0.38974 0.0
H1331 H 0.05442 0.72995 0.41345 0.0
H1332 H 0.27802 0.16539 0.33367 0.0
H1333 H 0.2783 0.14048 0.35881 0.0
H1334 H 0.22527 0.14974 0.37245 0.0
H1335 H 0.22492 0.17487 0.34772 0.0
H1336 H 0.27193 0.1384 0.40626 0.0
H1337 H 0.225 0.09875 0.35119 0.0
H1338 H 0.23525 0.11757 0.34053 0.0
H1339 H 0.21745 0.11992 0.35888 0.0
C1340 C 0.26642 0.16228 0.34213 0.0
C1341 C 0.25142 0.17226 0.33845 0.0
C1342 C 0.26659 0.14792 0.35645 0.0
C1343 C 0.25175 0.14301 0.36732 0.0
C1344 C 0.2368 0.15298 0.36389 0.0
H1345 H 0.24564 0.07317 0.48386 0.0
H1346 H 0.24554 0.09825 0.45863 0.0
C1347 C 0.23662 0.16739 0.34964 0.0
C1348 C 0.25201 0.12764 0.3825 0.0
H1349 H 0.23338 0.08819 0.3886 0.0
C1350 C 0.26351 0.12742 0.40237 0.0
C1351 C 0.24119 0.11316 0.37734 0.0
C1352 C 0.22912 0.11221 0.35572 0.0
C1353 C 0.26427 0.11333 0.41737 0.0
C1354 C 0.25312 0.09907 0.41256 0.0
C1355 C 0.24183 0.09915 0.39247 0.0
C1356 C 0.25312 0.08386 0.42799 0.0
C1357 C 0.27724 0.11372 0.43803 0.0
C1358 C 0.25705 0.06731 0.41916 0.0
C1359 C 0.25707 0.053 0.43356 0.0
C1360 C 0.25301 0.05492 0.45704 0.0
C1361 C 0.24889 0.0714 0.46584 0.0
C1362 C 0.24893 0.08572 0.45147 0.0
H1363 H 0.28759 0.12331 0.43603 0.0
H1364 H 0.27066 0.11732 0.4541 0.0
H1365 H 0.2832 0.10085 0.44048 0.0
H1366 H 0.26024 0.06548 0.40112 0.0
H1367 H 0.26023 0.0404 0.42638 0.0
H1368 H 0.66322 0.76635 0.7978 0.0
H1369 H 0.6393 0.7687 0.82343 0.0
H1370 H 0.66002 0.72649 0.86342 0.0
H1371 H 0.68398 0.72406 0.83788 0.0
H1372 H 0.61474 0.74459 0.83228 0.0
H1373 H 0.65293 0.76332 0.91398 0.0
H1374 H 0.66166 0.7638 0.88557 0.0
H1375 H 0.66014 0.74375 0.90025 0.0
C1376 C 0.66265 0.75751 0.81198 0.0
C1377 C 0.67555 0.74505 0.81585 0.0
C1378 C 0.64901 0.75893 0.82668 0.0
C1379 C 0.64803 0.74797 0.84557 0.0
C1380 C 0.66075 0.73537 0.84931 0.0
H1381 H 0.57504 0.73016 0.94977 0.0
H1382 H 0.59893 0.72943 0.924 0.0
C1383 C 0.67442 0.73398 0.83467 0.0
C1384 C 0.63344 0.74942 0.86097 0.0
H1385 H 0.62361 0.75592 0.91782 0.0
C1386 C 0.61665 0.74719 0.85096 0.0
C1387 C 0.63599 0.75285 0.88533 0.0
C1388 C 0.65363 0.75624 0.89693 0.0
C1389 C 0.60236 0.74785 0.86474 0.0
C1390 C 0.60494 0.75105 0.88912 0.0
C1391 C 0.6217 0.75343 0.89912 0.0
C1392 C 0.59042 0.75167 0.90464 0.0
C1393 C 0.58466 0.74469 0.85321 0.0
C1394 C 0.57783 0.76455 0.90245 0.0
C1395 C 0.56412 0.76498 0.91711 0.0
C1396 C 0.56277 0.75252 0.93423 0.0
C1397 C 0.57555 0.73977 0.93652 0.0
C1398 C 0.58927 0.73939 0.92192 0.0
H1399 H 0.58522 0.73873 0.8354 0.0
H1400 H 0.57705 0.73617 0.8639 0.0
H1401 H 0.57778 0.75716 0.85162 0.0
H1402 H 0.57863 0.7743 0.88943 0.0
H1403 H 0.55445 0.77491 0.91482 0.0
H1404 H 0.22905 0.67527 0.80937 0.0
H1405 H 0.22826 0.65042 0.83453 0.0
H1406 H 0.27119 0.67118 0.87743 0.0
H1407 H 0.27218 0.69601 0.85229 0.0
H1408 H 0.25279 0.62578 0.84493 0.0
H1409 H 0.23704 0.6614 0.92614 0.0
H1410 H 0.23533 0.67107 0.89786 0.0
H1411 H 0.25595 0.66923 0.91351 0.0
C1412 C 0.23842 0.67455 0.82406 0.0
C1413 C 0.25065 0.6878 0.82873 0.0
C1414 C 0.23789 0.66033 0.83854 0.0
C1415 C 0.24947 0.65898 0.85819 0.0
C1416 C 0.26181 0.67207 0.86278 0.0
H1417 H 0.26855 0.58267 0.96549 0.0
H1418 H 0.26909 0.60747 0.94023 0.0
C1419 C 0.26236 0.68631 0.84832 0.0
C1420 C 0.24888 0.64372 0.87349 0.0
H1421 H 0.24445 0.63189 0.92986 0.0
C1422 C 0.25087 0.62713 0.86348 0.0
C1423 C 0.24641 0.64539 0.89774 0.0
C1424 C 0.2434 0.66271 0.90946 0.0
C1425 C 0.25081 0.61228 0.87704 0.0
C1426 C 0.24836 0.61395 0.90131 0.0
C1427 C 0.24635 0.63054 0.91131 0.0
C1428 C 0.24794 0.59869 0.91663 0.0
C1429 C 0.25384 0.59497 0.86532 0.0
C1430 C 0.23573 0.58548 0.91209 0.0
C1431 C 0.23546 0.57115 0.92644 0.0
C1432 C 0.24735 0.56969 0.94584 0.0
C1433 C 0.25938 0.58311 0.95053 0.0
C1434 C 0.25963 0.59742 0.93617 0.0
H1435 H 0.26015 0.59628 0.8486 0.0
H1436 H 0.26195 0.58663 0.87689 0.0
H1437 H 0.2413 0.58841 0.86132 0.0
H1438 H 0.22631 0.58626 0.89746 0.0
H1439 H 0.22607 0.5611 0.92208 0.0
H1440 H 0.3363 0.28518 0.8397 0.0
H1441 H 0.36349 0.28346 0.86303 0.0
H1442 H 0.36178 0.22796 0.85644 0.0
H1443 H 0.33516 0.22957 0.83189 0.0
H1444 H 0.37002 0.26943 0.90415 0.0
H1445 H 0.41008 0.23703 0.83949 0.0
H1446 H 0.38923 0.24595 0.83151 0.0
H1447 H 0.39099 0.22504 0.84421 0.0
C1448 C 0.34187 0.27261 0.84276 0.0
C1449 C 0.33353 0.25752 0.83376 0.0
C1450 C 0.35736 0.27165 0.85629 0.0
C1451 C 0.36483 0.2556 0.86118 0.0
C1452 C 0.35649 0.24051 0.85244 0.0
H1453 H 0.43963 0.23926 0.9773 0.0
H1454 H 0.41383 0.23959 0.95052 0.0
C1455 C 0.34109 0.24145 0.83871 0.0
C1456 C 0.38094 0.25467 0.8763 0.0
H1457 H 0.42167 0.23828 0.87906 0.0
C1458 C 0.38134 0.2627 0.8986 0.0
C1459 C 0.3958 0.24609 0.86894 0.0
C1460 C 0.3966 0.2382 0.84464 0.0
C1461 C 0.3961 0.26221 0.91387 0.0
C1462 C 0.41068 0.25295 0.90692 0.0
C1463 C 0.41039 0.24515 0.88448 0.0
C1464 C 0.42648 0.25155 0.92253 0.0
C1465 C 0.396 0.27195 0.93707 0.0
C1466 C 0.44232 0.25734 0.91525 0.0
C1467 C 0.45708 0.25681 0.93034 0.0
C1468 C 0.45617 0.25061 0.95296 0.0
C1469 C 0.4405 0.24425 0.95996 0.0
C1470 C 0.42579 0.24459 0.94479 0.0
H1471 H 0.38613 0.28229 0.93674 0.0
H1472 H 0.3929 0.2629 0.95084 0.0
H1473 H 0.40874 0.27787 0.942 0.0
H1474 H 0.44317 0.26262 0.89808 0.0
H1475 H 0.46913 0.2616 0.9246 0.0
H1476 H 0.73662 0.31823 0.86707 0.0
H1477 H 0.73798 0.34405 0.89273 0.0
H1478 H 0.77119 0.36856 0.84631 0.0
H1479 H 0.77038 0.34268 0.82088 0.0
H1480 H 0.76854 0.36121 0.91511 0.0
H1481 H 0.73093 0.4034 0.85433 0.0
H1482 H 0.73044 0.38017 0.85126 0.0
H1483 H 0.74856 0.39199 0.84222 0.0
C1484 C 0.74439 0.329 0.86236 0.0
C1485 C 0.75333 0.32825 0.8417 0.0
C1486 C 0.74505 0.34383 0.87704 0.0
C1487 C 0.7545 0.35834 0.87132 0.0
C1488 C 0.76355 0.35764 0.85089 0.0
H1489 H 0.76952 0.46197 0.93319 0.0
H1490 H 0.76944 0.43565 0.90822 0.0
C1491 C 0.763 0.3428 0.83628 0.0
C1492 C 0.75506 0.37415 0.88685 0.0
H1493 H 0.74339 0.41662 0.88899 0.0
C1494 C 0.76299 0.37332 0.90945 0.0
C1495 C 0.74792 0.38998 0.87942 0.0
C1496 C 0.73885 0.39152 0.85556 0.0
C1497 C 0.76426 0.38795 0.92466 0.0
C1498 C 0.75695 0.40378 0.91734 0.0
C1499 C 0.74901 0.40456 0.89469 0.0
C1500 C 0.75734 0.41967 0.93284 0.0
C1501 C 0.77389 0.38636 0.94815 0.0
C1502 C 0.75046 0.41961 0.95497 0.0
C1503 C 0.7507 0.43459 0.9693 0.0
C1504 C 0.75756 0.45003 0.96169 0.0
C1505 C 0.76425 0.45019 0.93949 0.0
C1506 C 0.76415 0.43517 0.92522 0.0
H1507 H 0.78305 0.37539 0.94814 0.0
H1508 H 0.78115 0.39834 0.95329 0.0
H1509 H 0.76458 0.38398 0.96158 0.0
H1510 H 0.74469 0.40802 0.96107 0.0
H1511 H 0.74537 0.43418 0.98629 0.0
H1512 H 0.66713 0.23525 0.20401 0.0
H1513 H 0.64093 0.23401 0.17828 0.0
H1514 H 0.64722 0.28759 0.16278 0.0
H1515 H 0.67353 0.28894 0.18853 0.0
H1516 H 0.61366 0.27896 0.17263 0.0
H1517 H 0.63903 0.23338 0.10671 0.0
H1518 H 0.64101 0.22584 0.13606 0.0
H1519 H 0.65277 0.24464 0.12866 0.0
C1520 C 0.66303 0.24674 0.19496 0.0
C1521 C 0.67248 0.26216 0.19813 0.0
C1522 C 0.64806 0.246 0.18027 0.0
C1523 C 0.64232 0.26062 0.16832 0.0
C1524 C 0.65151 0.27614 0.17178 0.0
H1525 H 0.56613 0.26217 0.05133 0.0
H1526 H 0.59241 0.26439 0.07723 0.0
C1527 C 0.66648 0.27691 0.18655 0.0
C1528 C 0.62664 0.25973 0.15238 0.0
H1529 H 0.60901 0.23905 0.10321 0.0
C1530 C 0.61264 0.27029 0.1574 0.0
C1531 C 0.62546 0.24856 0.13238 0.0
C1532 C 0.64041 0.23757 0.12545 0.0
C1533 C 0.59732 0.26974 0.14314 0.0
C1534 C 0.59594 0.25813 0.1236 0.0
C1535 C 0.61006 0.2478 0.11836 0.0
C1536 C 0.58006 0.25671 0.1081 0.0
C1537 C 0.58287 0.28179 0.14889 0.0
C1538 C 0.56451 0.25144 0.11685 0.0
C1539 C 0.54956 0.25021 0.1021 0.0
C1540 C 0.55005 0.25406 0.07842 0.0
C1541 C 0.5656 0.25911 0.06959 0.0
C1542 C 0.58053 0.26037 0.08432 0.0
H1543 H 0.5875 0.29275 0.16054 0.0
H1544 H 0.57649 0.287 0.13275 0.0
H1545 H 0.57312 0.27461 0.15806 0.0
H1546 H 0.56396 0.24824 0.13504 0.0
H1547 H 0.53762 0.24632 0.10915 0.0
H1548 H 0.77949 0.67666 0.18661 0.0
H1549 H 0.78033 0.65063 0.1616 0.0
H1550 H 0.72631 0.65613 0.14231 0.0
H1551 H 0.72535 0.6823 0.16713 0.0
H1552 H 0.73498 0.6227 0.15345 0.0
H1553 H 0.77946 0.6475 0.09041 0.0
H1554 H 0.78768 0.64936 0.12034 0.0
H1555 H 0.76896 0.66144 0.11089 0.0
C1556 C 0.7678 0.67251 0.17682 0.0
C1557 C 0.75237 0.68175 0.17887 0.0
C1558 C 0.76832 0.65757 0.16249 0.0
C1559 C 0.75345 0.65151 0.14971 0.0
C1560 C 0.73798 0.66054 0.15192 0.0
H1561 H 0.74879 0.57436 0.03503 0.0
H1562 H 0.74774 0.60086 0.05957 0.0
C1563 C 0.73744 0.6755 0.16624 0.0
C1564 C 0.75395 0.63557 0.13445 0.0
H1565 H 0.77324 0.6175 0.08757 0.0
C1566 C 0.74332 0.62159 0.13901 0.0
C1567 C 0.76466 0.63414 0.11539 0.0
C1568 C 0.77572 0.64895 0.10876 0.0
C1569 C 0.74333 0.60619 0.12536 0.0
C1570 C 0.75445 0.60455 0.10678 0.0
C1571 C 0.76485 0.61864 0.10195 0.0
C1572 C 0.75528 0.58845 0.09192 0.0
C1573 C 0.73118 0.5919 0.13072 0.0
C1574 C 0.7601 0.57266 0.1018 0.0
C1575 C 0.76066 0.55756 0.0878 0.0
C1576 C 0.75653 0.55796 0.06362 0.0
C1577 C 0.75198 0.57375 0.05365 0.0
C1578 C 0.75141 0.58886 0.06765 0.0
H1579 H 0.7205 0.59675 0.1411 0.0
H1580 H 0.7256 0.58549 0.11439 0.0
H1581 H 0.73833 0.58209 0.14109 0.0
H1582 H 0.76349 0.57203 0.12036 0.0
H1583 H 0.76427 0.54552 0.09583 0.0
H1584 H 0.33221 0.77359 0.19199 0.0
H1585 H 0.35703 0.77469 0.16778 0.0
H1586 H 0.34956 0.72109 0.14778 0.0
H1587 H 0.32466 0.71988 0.17186 0.0
H1588 H 0.38798 0.75057 0.17104 0.0
H1589 H 0.35049 0.74948 0.08511 0.0
H1590 H 0.34129 0.75652 0.11196 0.0
H1591 H 0.34473 0.734 0.10607 0.0
C1592 C 0.33579 0.76207 0.18232 0.0
C1593 C 0.32645 0.74666 0.18373 0.0
C1594 C 0.35001 0.7627 0.16863 0.0
C1595 C 0.35499 0.74802 0.15592 0.0
C1596 C 0.34579 0.73259 0.15737 0.0
H1597 H 0.43125 0.72768 0.05517 0.0
H1598 H 0.40729 0.7267 0.08057 0.0
C1599 C 0.33166 0.73189 0.17122 0.0
C1600 C 0.36988 0.74881 0.14118 0.0
H1601 H 0.3807 0.74844 0.0844 0.0
C1602 C 0.38645 0.75016 0.15209 0.0
C1603 C 0.36775 0.74818 0.11653 0.0
C1604 C 0.35013 0.74707 0.10408 0.0
C1605 C 0.40106 0.75058 0.13893 0.0
C1606 C 0.39895 0.75011 0.1142 0.0
C1607 C 0.38231 0.74882 0.10334 0.0
C1608 C 0.4138 0.75071 0.0992 0.0
C1609 C 0.41861 0.75102 0.15167 0.0
C1610 C 0.42537 0.76463 0.10105 0.0
C1611 C 0.43929 0.76509 0.08679 0.0
C1612 C 0.4418 0.75176 0.07014 0.0
C1613 C 0.42997 0.73799 0.06809 0.0
C1614 C 0.41615 0.73748 0.08247 0.0
H1615 H 0.41817 0.74632 0.16974 0.0
H1616 H 0.42795 0.74304 0.14223 0.0
H1617 H 0.42339 0.7645 0.15291 0.0
H1618 H 0.4236 0.77519 0.11344 0.0
H1619 H 0.44817 0.77584 0.08898 0.0
H1620 H 0.27506 0.31547 0.17638 0.0
H1621 H 0.2743 0.34069 0.15163 0.0
H1622 H 0.22373 0.35335 0.17335 0.0
H1623 H 0.2245 0.32838 0.19846 0.0
H1624 H 0.25017 0.3488 0.11414 0.0
H1625 H 0.25055 0.39883 0.18551 0.0
H1626 H 0.25639 0.37669 0.19066 0.0
H1627 H 0.23415 0.38264 0.18649 0.0
C1628 C 0.26384 0.32371 0.17612 0.0
C1629 C 0.24988 0.31985 0.18959 0.0
C1630 C 0.26338 0.33809 0.16181 0.0
C1631 C 0.24905 0.3491 0.1608 0.0
C1632 C 0.23505 0.34524 0.17407 0.0
H1633 H 0.22375 0.44425 0.08846 0.0
H1634 H 0.22389 0.41874 0.11245 0.0
C1635 C 0.23545 0.33081 0.18827 0.0
C1636 C 0.24865 0.36444 0.14558 0.0
H1637 H 0.24626 0.40849 0.14683 0.0
C1638 C 0.24938 0.36186 0.1213 0.0
C1639 C 0.24752 0.3815 0.15484 0.0
C1640 C 0.24725 0.38518 0.18081 0.0
C1641 C 0.24872 0.37579 0.10604 0.0
C1642 C 0.24776 0.3929 0.11531 0.0
C1643 C 0.247 0.39545 0.13962 0.0
C1644 C 0.24758 0.40832 0.10016 0.0
C1645 C 0.24858 0.37195 0.08006 0.0
C1646 C 0.26091 0.41121 0.08529 0.0
C1647 C 0.26076 0.42572 0.07126 0.0
C1648 C 0.24736 0.43792 0.07189 0.0
C1649 C 0.23413 0.43508 0.08705 0.0
C1650 C 0.23427 0.42051 0.101 0.0
H1651 H 0.24407 0.35861 0.07555 0.0
H1652 H 0.24018 0.38109 0.07016 0.0
H1653 H 0.26184 0.37316 0.07428 0.0
H1654 H 0.27157 0.40229 0.08463 0.0
H1655 H 0.27111 0.42726 0.05974 0.0
H1656 H 0.33649 0.22725 0.2091 0.0
H1657 H 0.36136 0.22814 0.18508 0.0
H1658 H 0.33781 0.26934 0.14579 0.0
H1659 H 0.31309 0.26887 0.17013 0.0
H1660 H 0.36199 0.22351 0.13588 0.0
H1661 H 0.38596 0.28829 0.16638 0.0
H1662 H 0.3706 0.27635 0.18188 0.0
H1663 H 0.36373 0.28756 0.15598 0.0
C1664 C 0.33669 0.23664 0.19552 0.0
C1665 C 0.32286 0.24806 0.19161 0.0
C1666 C 0.35085 0.23704 0.18172 0.0
C1667 C 0.35151 0.24895 0.16389 0.0
C1668 C 0.33766 0.26023 0.15972 0.0
H1669 H 0.42623 0.27178 0.06294 0.0
H1670 H 0.40114 0.27095 0.08654 0.0
C1671 C 0.32347 0.25982 0.17348 0.0
C1672 C 0.36661 0.24938 0.14942 0.0
H1673 H 0.39969 0.27497 0.13482 0.0
C1674 C 0.37028 0.23472 0.13569 0.0
C1675 C 0.37735 0.26406 0.1492 0.0
C1676 C 0.37436 0.27992 0.16428 0.0
C1677 C 0.38429 0.23444 0.12141 0.0
C1678 C 0.39508 0.24909 0.12125 0.0
C1679 C 0.39138 0.26376 0.13497 0.0
C1680 C 0.41031 0.24948 0.10701 0.0
C1681 C 0.3872 0.21859 0.10625 0.0
C1682 C 0.42389 0.23783 0.11093 0.0
C1683 C 0.43826 0.2383 0.09752 0.0
C1684 C 0.4394 0.25053 0.08007 0.0
C1685 C 0.42585 0.26232 0.0764 0.0
C1686 C 0.41147 0.26181 0.08978 0.0
H1687 H 0.37542 0.21051 0.1037 0.0
H1688 H 0.39135 0.22215 0.08885 0.0
H1689 H 0.39748 0.21066 0.11481 0.0
H1690 H 0.42344 0.22848 0.12451 0.0
H1691 H 0.4486 0.22924 0.10106 0.0
H1692 H 0.76263 0.33032 0.18875 0.0
H1693 H 0.76331 0.35674 0.16678 0.0
H1694 H 0.72741 0.3805 0.21222 0.0
H1695 H 0.72666 0.354 0.23439 0.0
H1696 H 0.73491 0.37215 0.14338 0.0
H1697 H 0.76648 0.41631 0.21143 0.0
H1698 H 0.7669 0.39315 0.21369 0.0
H1699 H 0.74778 0.40497 0.21973 0.0
C1700 C 0.75484 0.34115 0.19402 0.0
C1701 C 0.74453 0.34012 0.21318 0.0
C1702 C 0.75532 0.35623 0.18156 0.0
C1703 C 0.74554 0.37055 0.18807 0.0
C1704 C 0.73528 0.36965 0.20725 0.0
H1705 H 0.73317 0.46737 0.11477 0.0
H1706 H 0.7302 0.44444 0.14281 0.0
C1707 C 0.73484 0.35454 0.21982 0.0
C1708 C 0.74563 0.38609 0.17395 0.0
H1709 H 0.75812 0.42827 0.17504 0.0
C1710 C 0.7399 0.38445 0.15032 0.0
C1711 C 0.75209 0.40207 0.18318 0.0
C1712 C 0.7588 0.4043 0.20835 0.0
C1713 C 0.74076 0.39834 0.13547 0.0
C1714 C 0.74765 0.41416 0.14453 0.0
C1715 C 0.75289 0.41602 0.1683 0.0
C1716 C 0.75029 0.42858 0.12911 0.0
C1717 C 0.73447 0.39598 0.11014 0.0
C1718 C 0.76281 0.42725 0.11264 0.0
C1719 C 0.76451 0.44021 0.09667 0.0
C1720 C 0.7537 0.45469 0.09696 0.0
C1721 C 0.74153 0.45624 0.11403 0.0
C1722 C 0.73988 0.44326 0.13008 0.0
H1723 H 0.72623 0.38434 0.10714 0.0
H1724 H 0.72708 0.40743 0.10416 0.0
H1725 H 0.7457 0.3945 0.09924 0.0
H1726 H 0.771 0.41598 0.11182 0.0
H1727 H 0.77387 0.43858 0.08357 0.0
H1728 H 0.65984 0.73731 0.20362 0.0
H1729 H 0.63333 0.7374 0.17838 0.0
H1730 H 0.65866 0.76688 0.128 0.0
H1731 H 0.6851 0.76729 0.15332 0.0
H1732 H 0.61516 0.76836 0.16047 0.0
H1733 H 0.63724 0.72364 0.09078 0.0
H1734 H 0.64741 0.72471 0.11999 0.0
H1735 H 0.65146 0.74121 0.09975 0.0
C1736 C 0.65976 0.74394 0.18726 0.0
C1737 C 0.67463 0.75226 0.18049 0.0
C1738 C 0.64463 0.74388 0.17283 0.0
C1739 C 0.64415 0.75199 0.15128 0.0
C1740 C 0.6589 0.76032 0.14443 0.0
H1741 H 0.56719 0.76354 0.03717 0.0
H1742 H 0.59345 0.76393 0.06318 0.0
C1743 C 0.67401 0.76047 0.1589 0.0
C1744 C 0.6281 0.75204 0.13614 0.0
H1745 H 0.61019 0.7369 0.08368 0.0
C1746 C 0.614 0.76144 0.14371 0.0
C1747 C 0.62675 0.74307 0.11429 0.0
C1748 C 0.64144 0.73246 0.10568 0.0
C1749 C 0.5986 0.76237 0.12975 0.0
C1750 C 0.59718 0.75328 0.10793 0.0
C1751 C 0.61131 0.74385 0.10041 0.0
C1752 C 0.58119 0.75341 0.09253 0.0
C1753 C 0.58418 0.77344 0.13823 0.0
C1754 C 0.56566 0.74728 0.10036 0.0
C1755 C 0.55069 0.7472 0.0856 0.0
C1756 C 0.55114 0.75299 0.06271 0.0
C1757 C 0.56665 0.75903 0.05481 0.0
C1758 C 0.58159 0.75922 0.0696 0.0
H1759 H 0.58894 0.78319 0.15168 0.0
H1760 H 0.57743 0.78021 0.12355 0.0
H1761 H 0.57471 0.76514 0.14626 0.0
H1762 H 0.56514 0.74239 0.11779 0.0
H1763 H 0.5388 0.74249 0.09194 0.0
H1764 H 0.27663 0.672 0.16923 0.0
H1765 H 0.27296 0.64514 0.14596 0.0
H1766 H 0.23608 0.62739 0.19299 0.0
H1767 H 0.23926 0.65441 0.21594 0.0
H1768 H 0.27766 0.6106 0.1596 0.0
H1769 H 0.21024 0.62417 0.1279 0.0
H1770 H 0.22434 0.64058 0.14135 0.0
H1771 H 0.21435 0.62527 0.15911 0.0
C1772 C 0.2677 0.6624 0.17455 0.0
C1773 C 0.25815 0.66533 0.1943 0.0
C1774 C 0.2657 0.64706 0.16135 0.0
C1775 C 0.25408 0.63447 0.16764 0.0
C1776 C 0.24491 0.63711 0.18771 0.0
H1777 H 0.24885 0.5303 0.10538 0.0
H1778 H 0.2501 0.55484 0.13366 0.0
C1779 C 0.24689 0.65245 0.20092 0.0
C1780 C 0.25143 0.61868 0.15294 0.0
H1781 H 0.22165 0.59709 0.11699 0.0
C1782 C 0.26542 0.60757 0.15035 0.0
C1783 C 0.23546 0.61497 0.14076 0.0
C1784 C 0.22025 0.62692 0.14219 0.0
C1785 C 0.26388 0.59277 0.13575 0.0
C1786 C 0.24784 0.58895 0.12381 0.0
C1787 C 0.23385 0.60003 0.12644 0.0
C1788 C 0.24568 0.57405 0.10735 0.0
C1789 C 0.27952 0.58165 0.13265 0.0
C1790 C 0.24217 0.57681 0.08346 0.0
C1791 C 0.24135 0.56289 0.06748 0.0
C1792 C 0.24397 0.54612 0.07528 0.0
C1793 C 0.24684 0.54325 0.09921 0.0
C1794 C 0.24765 0.55718 0.11522 0.0
H1795 H 0.29158 0.58832 0.13913 0.0
H1796 H 0.27835 0.56972 0.14263 0.0
H1797 H 0.28055 0.57784 0.11396 0.0
H1798 H 0.24057 0.58976 0.07714 0.0
H1799 H 0.23915 0.56522 0.049 0.0
H1800 H 0.34258 0.74531 0.80306 0.0
H1801 H 0.36925 0.74421 0.82789 0.0
H1802 H 0.34348 0.76788 0.88507 0.0
H1803 H 0.31665 0.76874 0.8605 0.0
H1804 H 0.387 0.77299 0.85149 0.0
H1805 H 0.36636 0.72404 0.91287 0.0
H1806 H 0.35531 0.72714 0.88468 0.0
H1807 H 0.35205 0.742 0.90863 0.0
C1808 C 0.34254 0.75009 0.82101 0.0
C1809 C 0.32749 0.75703 0.82988 0.0
C1810 C 0.3578 0.74955 0.8351 0.0
C1811 C 0.35825 0.75578 0.85835 0.0
C1812 C 0.34331 0.76279 0.86725 0.0
H1813 H 0.43757 0.76296 0.97126 0.0
H1814 H 0.4107 0.76406 0.94656 0.0
C1815 C 0.32805 0.76341 0.85314 0.0
C1816 C 0.37448 0.75528 0.87312 0.0
H1817 H 0.39331 0.73747 0.92201 0.0
C1818 C 0.38844 0.76519 0.86687 0.0
C1819 C 0.37622 0.74513 0.89318 0.0
C1820 C 0.36176 0.73385 0.90023 0.0
C1821 C 0.40408 0.76544 0.8804 0.0
C1822 C 0.40587 0.7552 0.9004 0.0
C1823 C 0.39189 0.7453 0.90665 0.0
C1824 C 0.42214 0.75461 0.91516 0.0
C1825 C 0.41838 0.77698 0.87348 0.0
C1826 C 0.43739 0.74877 0.90572 0.0
C1827 C 0.45268 0.74823 0.91976 0.0
C1828 C 0.45286 0.7533 0.94346 0.0
C1829 C 0.43762 0.75898 0.95297 0.0
C1830 C 0.42234 0.75959 0.93893 0.0
H1831 H 0.41348 0.78728 0.86181 0.0
H1832 H 0.4253 0.78309 0.88912 0.0
H1833 H 0.42774 0.76915 0.8639 0.0
H1834 H 0.43744 0.74455 0.88755 0.0
H1835 H 0.46437 0.74383 0.91219 0.0
H1836 H 0.28106 0.35268 0.81334 0.0
H1837 H 0.27904 0.37923 0.83729 0.0
H1838 H 0.24617 0.35332 0.88296 0.0
H1839 H 0.24776 0.32692 0.85887 0.0
H1840 H 0.23367 0.38561 0.86663 0.0
H1841 H 0.3012 0.38912 0.90423 0.0
H1842 H 0.29857 0.38633 0.87296 0.0
H1843 H 0.29184 0.36953 0.89122 0.0
C1844 C 0.27344 0.35266 0.82851 0.0
C1845 C 0.26463 0.33774 0.83433 0.0
C1846 C 0.27241 0.36776 0.84224 0.0
C1847 C 0.2626 0.36809 0.86194 0.0
C1848 C 0.25388 0.35321 0.86786 0.0
H1849 H 0.25786 0.44278 0.97537 0.0
H1850 H 0.26077 0.41685 0.95027 0.0
C1851 C 0.25492 0.33814 0.8542 0.0
C1852 C 0.26082 0.38412 0.87599 0.0
H1853 H 0.28311 0.4127 0.91266 0.0
C1854 C 0.24446 0.39159 0.87668 0.0
C1855 C 0.27494 0.39168 0.88916 0.0
C1856 C 0.29263 0.38373 0.8896 0.0
C1857 C 0.24183 0.40655 0.89026 0.0
C1858 C 0.25599 0.41425 0.90317 0.0
C1859 C 0.27234 0.40676 0.90253 0.0
C1860 C 0.25399 0.42981 0.91808 0.0
C1861 C 0.22389 0.4138 0.89112 0.0
C1862 C 0.24932 0.44556 0.90815 0.0
C1863 C 0.24765 0.46028 0.92242 0.0
C1864 C 0.25066 0.45932 0.9467 0.0
C1865 C 0.2554 0.44361 0.95662 0.0
C1866 C 0.25709 0.42892 0.94237 0.0
H1867 H 0.21396 0.40439 0.88417 0.0
H1868 H 0.22113 0.41767 0.90932 0.0
H1869 H 0.22281 0.42544 0.88037 0.0
H1870 H 0.24714 0.44648 0.88938 0.0
H1871 H 0.24418 0.47242 0.91458 0.0
H1872 H 0.68693 0.27919 0.85629 0.0
H1873 H 0.66242 0.27917 0.88106 0.0
H1874 H 0.64837 0.22821 0.85431 0.0
H1875 H 0.67293 0.22808 0.82972 0.0
H1876 H 0.62823 0.27654 0.86868 0.0
H1877 H 0.64854 0.22195 0.92406 0.0
H1878 H 0.66291 0.23224 0.90526 0.0
H1879 H 0.64758 0.21646 0.89338 0.0
C1880 C 0.67861 0.26798 0.85571 0.0
C1881 C 0.68191 0.25359 0.84117 0.0
C1882 C 0.66465 0.26797 0.86991 0.0
C1883 C 0.65374 0.25357 0.86985 0.0
C1884 C 0.65688 0.23927 0.85513 0.0
H1885 H 0.55826 0.23083 0.93225 0.0
H1886 H 0.58343 0.23118 0.90881 0.0
C1887 C 0.6709 0.23923 0.84105 0.0
C1888 C 0.63874 0.25374 0.8846 0.0
H1889 H 0.61977 0.23185 0.92699 0.0
C1890 C 0.62644 0.26684 0.88155 0.0
C1891 C 0.63645 0.24108 0.90141 0.0
C1892 C 0.64965 0.22724 0.90642 0.0
C1893 C 0.61173 0.26742 0.89451 0.0
C1894 C 0.60935 0.25463 0.91103 0.0
C1895 C 0.62164 0.24158 0.91419 0.0
C1896 C 0.59412 0.25457 0.92523 0.0
C1897 C 0.59866 0.28148 0.89014 0.0
C1898 C 0.59193 0.26755 0.94235 0.0
C1899 C 0.57766 0.2673 0.95597 0.0
C1900 C 0.56531 0.25406 0.95271 0.0
C1901 C 0.56761 0.24109 0.93548 0.0
C1902 C 0.58193 0.2413 0.92196 0.0
H1903 H 0.60073 0.28832 0.8738 0.0
H1904 H 0.58542 0.27609 0.88902 0.0
H1905 H 0.59964 0.29105 0.90496 0.0
H1906 H 0.60137 0.27775 0.94535 0.0
H1907 H 0.57649 0.27732 0.96935 0.0
H1908 H 0.76331 0.68219 0.84337 0.0
H1909 H 0.76611 0.65623 0.86632 0.0
H1910 H 0.73789 0.62715 0.81121 0.0
H1911 H 0.73567 0.6529 0.78767 0.0
H1912 H 0.74019 0.63643 0.88204 0.0
H1913 H 0.78075 0.59777 0.82362 0.0
H1914 H 0.77756 0.62066 0.82067 0.0
H1915 H 0.76119 0.6057 0.80962 0.0
C1916 C 0.7579 0.67022 0.836 0.0
C1917 C 0.74937 0.66954 0.81366 0.0
C1918 C 0.75943 0.65545 0.84917 0.0
C1919 C 0.75245 0.63977 0.84025 0.0
C1920 C 0.74366 0.63908 0.81815 0.0
H1921 H 0.74095 0.54162 0.90591 0.0
H1922 H 0.73964 0.56534 0.87854 0.0
C1923 C 0.7422 0.65384 0.80489 0.0
C1924 C 0.75394 0.62431 0.85451 0.0
H1925 H 0.77029 0.58352 0.85598 0.0
C1926 C 0.7468 0.62487 0.87638 0.0
C1927 C 0.76258 0.6093 0.84697 0.0
C1928 C 0.7711 0.6083 0.82403 0.0
C1929 C 0.74801 0.61075 0.89095 0.0
C1930 C 0.75666 0.59579 0.88344 0.0
C1931 C 0.76366 0.59509 0.86152 0.0
C1932 C 0.75871 0.58088 0.89849 0.0
C1933 C 0.74001 0.61182 0.91427 0.0
C1934 C 0.77017 0.58177 0.91829 0.0
C1935 C 0.77094 0.56834 0.93389 0.0
C1936 C 0.76022 0.55386 0.92988 0.0
C1937 C 0.74921 0.55274 0.9095 0.0
C1938 C 0.74851 0.56617 0.89385 0.0
H1939 H 0.73149 0.62322 0.91587 0.0
H1940 H 0.73243 0.59999 0.9169 0.0
H1941 H 0.75034 0.61277 0.92848 0.0
H1942 H 0.77813 0.59309 0.92201 0.0
H1943 H 0.7794 0.56962 0.94957 0.0
loop_
_geom_bond_atom_site_label_1
_geom_bond_atom_site_label_2
_geom_bond_distance
_geom_bond_site_symmetry_2
_ccdc_geom_bond_type
C0 C1 1.384 . S
C0 C2 1.384 . S
C0 H28 0.931 . S
C1 C0 1.384 . S
C1 C4 1.382 . S
C2 C0 1.384 . S
C2 C3 1.381 . S
C2 H29 0.930 . S
C3 C2 1.381 . S
C3 C5 1.381 . S
C3 C6 1.487 . S
C4 C1 1.382 . S
C4 C5 1.387 . S
C4 H30 0.930 . S
C5 C3 1.381 . S
C5 C4 1.387 . S
C5 H31 0.931 . S
C6 C3 1.487 . S
C6 C13 1.399 . S
C6 N44 1.343 . S
C7 C8 1.384 . S
C7 C9 1.384 . S
C7 H32 0.931 . S
C8 C7 1.384 . S
C8 C11 1.382 . S
C9 C7 1.384 . S
C9 C10 1.381 . S
C9 H33 0.930 . S
C10 C9 1.381 . S
C10 C12 1.381 . S
C10 C13 1.487 . S
C11 C8 1.382 . S
C11 C12 1.387 . S
C11 H34 0.930 . S
C12 C10 1.381 . S
C12 C11 1.387 . S
C12 H35 0.931 . S
C13 C6 1.399 . S
C13 C10 1.487 . S
C13 N45 1.343 . S
C14 C15 1.384 . S
C14 C16 1.384 . S
C14 H36 0.931 . S
C15 C14 1.384 . S
C15 C18 1.382 . S
C16 C14 1.384 . S
C16 C17 1.381 . S
C16 H37 0.930 . S
C17 C16 1.381 . S
C17 C19 1.381 . S
C17 C20 1.487 . S
C18 C15 1.382 . S
C18 C19 1.387 . S
C18 H38 0.930 . S
C19 C17 1.381 . S
C19 C18 1.387 . S
C19 H39 0.931 . S
C20 C17 1.487 . S
C20 C27 1.399 . S
C20 N45 1.343 . S
C21 C22 1.384 . S
C21 C23 1.384 . S
C21 H40 0.931 . S
C22 C21 1.384 . S
C22 C25 1.382 . S
C23 C21 1.384 . S
C23 C24 1.381 . S
C23 H41 0.930 . S
C24 C23 1.381 . S
C24 C26 1.381 . S
C24 C27 1.487 . S
C25 C22 1.382 . S
C25 C26 1.387 . S
C25 H42 0.930 . S
C26 C24 1.381 . S
C26 C25 1.387 . S
C26 H43 0.931 . S
C27 C20 1.399 . S
C27 C24 1.487 . S
C27 N44 1.343 . S
H28 C0 0.931 . S
H29 C2 0.930 . S
H30 C4 0.930 . S
H31 C5 0.931 . S
H32 C7 0.931 . S
H33 C9 0.930 . S
H34 C11 0.930 . S
H35 C12 0.931 . S
H36 C14 0.931 . S
H37 C16 0.930 . S
H38 C18 0.930 . S
H39 C19 0.931 . S
H40 C21 0.931 . S
H41 C23 0.930 . S
H42 C25 0.930 . S
H43 C26 0.931 . S
N44 C6 1.343 . S
N44 C27 1.343 . S
N45 C13 1.343 . S
N45 C20 1.343 . S
C46 C47 1.384 . S
C46 C48 1.384 . S
C46 H74 0.931 . S
C47 C46 1.384 . S
C47 C50 1.382 . S
C48 C46 1.384 . S
C48 C49 1.381 . S
C48 H75 0.930 . S
C49 C48 1.381 . S
C49 C51 1.381 . S
C49 C52 1.487 . S
C50 C47 1.382 . S
C50 C51 1.387 . S
C50 H76 0.930 . S
C51 C49 1.381 . S
C51 C50 1.387 . S
C51 H77 0.931 . S
C52 C49 1.487 . S
C52 C59 1.399 . S
C52 N90 1.343 . S
C53 C54 1.384 . S
C53 C55 1.384 . S
C53 H78 0.931 . S
C54 C53 1.384 . S
C54 C57 1.382 . S
C55 C53 1.384 . S
C55 C56 1.381 . S
C55 H79 0.930 . S
C56 C55 1.381 . S
C56 C58 1.381 . S
C56 C59 1.487 . S
C57 C54 1.382 . S
C57 C58 1.387 . S
C57 H80 0.930 . S
C58 C56 1.381 . S
C58 C57 1.387 . S
C58 H81 0.931 . S
C59 C52 1.399 . S
C59 C56 1.487 . S
C59 N91 1.343 . S
C60 C61 1.384 . S
C60 C62 1.384 . S
C60 H82 0.931 . S
C61 C60 1.384 . S
C61 C64 1.382 . S
C62 C60 1.384 . S
C62 C63 1.381 . S
C62 H83 0.930 . S
C63 C62 1.381 . S
C63 C65 1.381 . S
C63 C66 1.487 . S
C64 C61 1.382 . S
C64 C65 1.387 . S
C64 H84 0.930 . S
C65 C63 1.381 . S
C65 C64 1.387 . S
C65 H85 0.931 . S
C66 C63 1.487 . S
C66 C73 1.399 . S
C66 N91 1.343 . S
C67 C68 1.384 . S
C67 C69 1.384 . S
C67 H86 0.931 . S
C68 C67 1.384 . S
C68 C71 1.382 . S
C69 C67 1.384 . S
C69 C70 1.381 . S
C69 H87 0.930 . S
C70 C69 1.381 . S
C70 C72 1.381 . S
C70 C73 1.487 . S
C71 C68 1.382 . S
C71 C72 1.387 . S
C71 H88 0.930 . S
C72 C70 1.381 . S
C72 C71 1.387 . S
C72 H89 0.931 . S
C73 C66 1.399 . S
C73 C70 1.487 . S
C73 N90 1.343 . S
H74 C46 0.931 . S
H75 C48 0.930 . S
H76 C50 0.930 . S
H77 C51 0.931 . S
H78 C53 0.931 . S
H79 C55 0.930 . S
H80 C57 0.930 . S
H81 C58 0.931 . S
H82 C60 0.931 . S
H83 C62 0.930 . S
H84 C64 0.930 . S
H85 C65 0.931 . S
H86 C67 0.931 . S
H87 C69 0.930 . S
H88 C71 0.930 . S
H89 C72 0.931 . S
N90 C52 1.343 . S
N90 C73 1.343 . S
N91 C59 1.343 . S
N91 C66 1.343 . S
C92 C93 1.384 . S
C92 C94 1.384 . S
C92 H120 0.931 . S
C93 C92 1.384 . S
C93 C96 1.382 . S
C94 C92 1.384 . S
C94 C95 1.381 . S
C94 H121 0.930 . S
C95 C94 1.381 . S
C95 C97 1.381 . S
C95 C98 1.487 . S
C96 C93 1.382 . S
C96 C97 1.387 . S
C96 H122 0.930 . S
C97 C95 1.381 . S
C97 C96 1.387 . S
C97 H123 0.931 . S
C98 C95 1.487 . S
C98 C105 1.399 . S
C98 N136 1.343 . S
C99 C100 1.384 . S
C99 C101 1.384 . S
C99 H124 0.931 . S
C100 C99 1.384 . S
C100 C103 1.382 . S
C101 C99 1.384 . S
C101 C102 1.381 . S
C101 H125 0.930 . S
C102 C101 1.381 . S
C102 C104 1.381 . S
C102 C105 1.487 . S
C103 C100 1.382 . S
C103 C104 1.387 . S
C103 H126 0.930 . S
C104 C102 1.381 . S
C104 C103 1.387 . S
C104 H127 0.931 . S
C105 C98 1.399 . S
C105 C102 1.487 . S
C105 N137 1.343 . S
C106 C107 1.384 . S
C106 C108 1.384 . S
C106 H128 0.931 . S
C107 C106 1.384 . S
C107 C110 1.382 . S
C108 C106 1.384 . S
C108 C109 1.381 . S
C108 H129 0.930 . S
C109 C108 1.381 . S
C109 C111 1.381 . S
C109 C112 1.487 . S
C110 C107 1.382 . S
C110 C111 1.387 . S
C110 H130 0.930 . S
C111 C109 1.381 . S
C111 C110 1.387 . S
C111 H131 0.931 . S
C112 C109 1.487 . S
C112 C119 1.399 . S
C112 N137 1.343 . S
C113 C114 1.384 . S
C113 C115 1.384 . S
C113 H132 0.931 . S
C114 C113 1.384 . S
C114 C117 1.382 . S
C115 C113 1.384 . S
C115 C116 1.381 . S
C115 H133 0.930 . S
C116 C115 1.381 . S
C116 C118 1.381 . S
C116 C119 1.487 . S
C117 C114 1.382 . S
C117 C118 1.387 . S
C117 H134 0.930 . S
C118 C116 1.381 . S
C118 C117 1.387 . S
C118 H135 0.931 . S
C119 C112 1.399 . S
C119 C116 1.487 . S
C119 N136 1.343 . S
H120 C92 0.931 . S
H121 C94 0.930 . S
H122 C96 0.930 . S
H123 C97 0.931 . S
H124 C99 0.931 . S
H125 C101 0.930 . S
H126 C103 0.930 . S
H127 C104 0.931 . S
H128 C106 0.931 . S
H129 C108 0.930 . S
H130 C110 0.930 . S
H131 C111 0.931 . S
H132 C113 0.931 . S
H133 C115 0.930 . S
H134 C117 0.930 . S
H135 C118 0.931 . S
N136 C98 1.343 . S
N136 C119 1.343 . S
N137 C105 1.343 . S
N137 C112 1.343 . S
C138 C139 1.384 . S
C138 C140 1.384 . S
C138 H166 0.931 . S
C139 C138 1.384 . S
C139 C142 1.382 . S
C140 C138 1.384 . S
C140 C141 1.381 . S
C140 H167 0.930 . S
C141 C140 1.381 . S
C141 C143 1.381 . S
C141 C144 1.487 . S
C142 C139 1.382 . S
C142 C143 1.387 . S
C142 H168 0.930 . S
C143 C141 1.381 . S
C143 C142 1.387 . S
C143 H169 0.931 . S
C144 C141 1.487 . S
C144 C151 1.399 . S
C144 N182 1.343 . S
C145 C146 1.384 . S
C145 C147 1.384 . S
C145 H170 0.931 . S
C146 C145 1.384 . S
C146 C149 1.382 . S
C147 C145 1.384 . S
C147 C148 1.381 . S
C147 H171 0.930 . S
C148 C147 1.381 . S
C148 C150 1.381 . S
C148 C151 1.487 . S
C149 C146 1.382 . S
C149 C150 1.387 . S
C149 H172 0.930 . S
C150 C148 1.381 . S
C150 C149 1.387 . S
C150 H173 0.931 . S
C151 C144 1.399 . S
C151 C148 1.487 . S
C151 N183 1.343 . S
C152 C153 1.384 . S
C152 C154 1.384 . S
C152 H174 0.931 . S
C153 C152 1.384 . S
C153 C156 1.382 . S
C154 C152 1.384 . S
C154 C155 1.381 . S
C154 H175 0.930 . S
C155 C154 1.381 . S
C155 C157 1.381 . S
C155 C158 1.487 . S
C156 C153 1.382 . S
C156 C157 1.387 . S
C156 H176 0.930 . S
C157 C155 1.381 . S
C157 C156 1.387 . S
C157 H177 0.931 . S
C158 C155 1.487 . S
C158 C165 1.399 . S
C158 N183 1.343 . S
C159 C160 1.384 . S
C159 C161 1.384 . S
C159 H178 0.931 . S
C160 C159 1.384 . S
C160 C163 1.382 . S
C161 C159 1.384 . S
C161 C162 1.381 . S
C161 H179 0.930 . S
C162 C161 1.381 . S
C162 C164 1.381 . S
C162 C165 1.487 . S
C163 C160 1.382 . S
C163 C164 1.387 . S
C163 H180 0.930 . S
C164 C162 1.381 . S
C164 C163 1.387 . S
C164 H181 0.931 . S
C165 C158 1.399 . S
C165 C162 1.487 . S
C165 N182 1.343 . S
H166 C138 0.931 . S
H167 C140 0.930 . S
H168 C142 0.930 . S
H169 C143 0.931 . S
H170 C145 0.931 . S
H171 C147 0.930 . S
H172 C149 0.930 . S
H173 C150 0.931 . S
H174 C152 0.931 . S
H175 C154 0.930 . S
H176 C156 0.930 . S
H177 C157 0.931 . S
H178 C159 0.931 . S
H179 C161 0.930 . S
H180 C163 0.930 . S
H181 C164 0.931 . S
N182 C144 1.343 . S
N182 C165 1.343 . S
N183 C151 1.343 . S
N183 C158 1.343 . S
C184 C185 1.384 . S
C184 C186 1.384 . S
C184 H212 0.931 . S
C185 C184 1.384 . S
C185 C188 1.382 . S
C186 C184 1.384 . S
C186 C187 1.381 . S
C186 H213 0.930 . S
C187 C186 1.381 . S
C187 C189 1.381 . S
C187 C190 1.487 . S
C188 C185 1.382 . S
C188 C189 1.387 . S
C188 H214 0.930 . S
C189 C187 1.381 . S
C189 C188 1.387 . S
C189 H215 0.931 . S
C190 C187 1.487 . S
C190 C197 1.399 . S
C190 N228 1.343 . S
C191 C192 1.384 . S
C191 C193 1.384 . S
C191 H216 0.931 . S
C192 C191 1.384 . S
C192 C195 1.382 . S
C193 C191 1.384 . S
C193 C194 1.381 . S
C193 H217 0.930 . S
C194 C193 1.381 . S
C194 C196 1.381 . S
C194 C197 1.487 . S
C195 C192 1.382 . S
C195 C196 1.387 . S
C195 H218 0.930 . S
C196 C194 1.381 . S
C196 C195 1.387 . S
C196 H219 0.931 . S
C197 C190 1.399 . S
C197 C194 1.487 . S
C197 N229 1.343 . S
C198 C199 1.384 . S
C198 C200 1.384 . S
C198 H220 0.931 . S
C199 C198 1.384 . S
C199 C202 1.382 . S
C200 C198 1.384 . S
C200 C201 1.381 . S
C200 H221 0.930 . S
C201 C200 1.381 . S
C201 C203 1.381 . S
C201 C204 1.487 . S
C202 C199 1.382 . S
C202 C203 1.387 . S
C202 H222 0.930 . S
C203 C201 1.381 . S
C203 C202 1.387 . S
C203 H223 0.931 . S
C204 C201 1.487 . S
C204 C211 1.399 . S
C204 N229 1.343 . S
C205 C206 1.384 . S
C205 C207 1.384 . S
C205 H224 0.931 . S
C206 C205 1.384 . S
C206 C209 1.382 . S
C207 C205 1.384 . S
C207 C208 1.381 . S
C207 H225 0.930 . S
C208 C207 1.381 . S
C208 C210 1.381 . S
C208 C211 1.487 . S
C209 C206 1.382 . S
C209 C210 1.387 . S
C209 H226 0.930 . S
C210 C208 1.381 . S
C210 C209 1.387 . S
C210 H227 0.931 . S
C211 C204 1.399 . S
C211 C208 1.487 . S
C211 N228 1.343 . S
H212 C184 0.931 . S
H213 C186 0.930 . S
H214 C188 0.930 . S
H215 C189 0.931 . S
H216 C191 0.931 . S
H217 C193 0.930 . S
H218 C195 0.930 . S
H219 C196 0.931 . S
H220 C198 0.931 . S
H221 C200 0.930 . S
H222 C202 0.930 . S
H223 C203 0.931 . S
H224 C205 0.931 . S
H225 C207 0.930 . S
H226 C209 0.930 . S
H227 C210 0.931 . S
N228 C190 1.343 . S
N228 C211 1.343 . S
N229 C197 1.343 . S
N229 C204 1.343 . S
C230 C231 1.384 . S
C230 C232 1.384 . S
C230 H258 0.931 . S
C231 C230 1.384 . S
C231 C234 1.382 . S
C232 C230 1.384 . S
C232 C233 1.381 . S
C232 H259 0.930 . S
C233 C232 1.381 . S
C233 C235 1.381 . S
C233 C236 1.487 . S
C234 C231 1.382 . S
C234 C235 1.387 . S
C234 H260 0.930 . S
C235 C233 1.381 . S
C235 C234 1.387 . S
C235 H261 0.931 . S
C236 C233 1.487 . S
C236 C243 1.399 . S
C236 N274 1.343 . S
C237 C238 1.384 . S
C237 C239 1.384 . S
C237 H262 0.931 . S
C238 C237 1.384 . S
C238 C241 1.382 . S
C239 C237 1.384 . S
C239 C240 1.381 . S
C239 H263 0.930 . S
C240 C239 1.381 . S
C240 C242 1.381 . S
C240 C243 1.487 . S
C241 C238 1.382 . S
C241 C242 1.387 . S
C241 H264 0.930 . S
C242 C240 1.381 . S
C242 C241 1.387 . S
C242 H265 0.931 . S
C243 C236 1.399 . S
C243 C240 1.487 . S
C243 N275 1.343 . S
C244 C245 1.384 . S
C244 C246 1.384 . S
C244 H266 0.931 . S
C245 C244 1.384 . S
C245 C248 1.382 . S
C246 C244 1.384 . S
C246 C247 1.381 . S
C246 H267 0.930 . S
C247 C246 1.381 . S
C247 C249 1.381 . S
C247 C250 1.487 . S
C248 C245 1.382 . S
C248 C249 1.387 . S
C248 H268 0.930 . S
C249 C247 1.381 . S
C249 C248 1.387 . S
C249 H269 0.931 . S
C250 C247 1.487 . S
C250 C257 1.399 . S
C250 N275 1.343 . S
C251 C252 1.384 . S
C251 C253 1.384 . S
C251 H270 0.931 . S
C252 C251 1.384 . S
C252 C255 1.382 . S
C253 C251 1.384 . S
C253 C254 1.381 . S
C253 H271 0.930 . S
C254 C253 1.381 . S
C254 C256 1.381 . S
C254 C257 1.487 . S
C255 C252 1.382 . S
C255 C256 1.387 . S
C255 H272 0.930 . S
C256 C254 1.381 . S
C256 C255 1.387 . S
C256 H273 0.931 . S
C257 C250 1.399 . S
C257 C254 1.487 . S
C257 N274 1.343 . S
H258 C230 0.931 . S
H259 C232 0.930 . S
H260 C234 0.930 . S
H261 C235 0.931 . S
H262 C237 0.931 . S
H263 C239 0.930 . S
H264 C241 0.930 . S
H265 C242 0.931 . S
H266 C244 0.931 . S
H267 C246 0.930 . S
H268 C248 0.930 . S
H269 C249 0.931 . S
H270 C251 0.931 . S
H271 C253 0.930 . S
H272 C255 0.930 . S
H273 C256 0.931 . S
N274 C236 1.343 . S
N274 C257 1.343 . S
N275 C243 1.343 . S
N275 C250 1.343 . S
C276 C277 1.384 . S
C276 C278 1.384 . S
C276 H304 0.931 . S
C277 C276 1.384 . S
C277 C280 1.382 . S
C278 C276 1.384 . S
C278 C279 1.381 . S
C278 H305 0.930 . S
C279 C278 1.381 . S
C279 C281 1.381 . S
C279 C282 1.487 . S
C280 C277 1.382 . S
C280 C281 1.387 . S
C280 H306 0.930 . S
C281 C279 1.381 . S
C281 C280 1.387 . S
C281 H307 0.931 . S
C282 C279 1.487 . S
C282 C289 1.399 . S
C282 N320 1.343 . S
C283 C284 1.384 . S
C283 C285 1.384 . S
C283 H308 0.931 . S
C284 C283 1.384 . S
C284 C287 1.382 . S
C285 C283 1.384 . S
C285 C286 1.381 . S
C285 H309 0.930 . S
C286 C285 1.381 . S
C286 C288 1.381 . S
C286 C289 1.487 . S
C287 C284 1.382 . S
C287 C288 1.387 . S
C287 H310 0.930 . S
C288 C286 1.381 . S
C288 C287 1.387 . S
C288 H311 0.931 . S
C289 C282 1.399 . S
C289 C286 1.487 . S
C289 N321 1.343 . S
C290 C291 1.384 . S
C290 C292 1.384 . S
C290 H312 0.931 . S
C291 C290 1.384 . S
C291 C294 1.382 . S
C292 C290 1.384 . S
C292 C293 1.381 . S
C292 H313 0.930 . S
C293 C292 1.381 . S
C293 C295 1.381 . S
C293 C296 1.487 . S
C294 C291 1.382 . S
C294 C295 1.387 . S
C294 H314 0.930 . S
C295 C293 1.381 . S
C295 C294 1.387 . S
C295 H315 0.931 . S
C296 C293 1.487 . S
C296 C303 1.399 . S
C296 N321 1.343 . S
C297 C298 1.384 . S
C297 C299 1.384 . S
C297 H316 0.931 . S
C298 C297 1.384 . S
C298 C301 1.382 . S
C299 C297 1.384 . S
C299 C300 1.381 . S
C299 H317 0.930 . S
C300 C299 1.381 . S
C300 C302 1.381 . S
C300 C303 1.487 . S
C301 C298 1.382 . S
C301 C302 1.387 . S
C301 H318 0.930 . S
C302 C300 1.381 . S
C302 C301 1.387 . S
C302 H319 0.931 . S
C303 C296 1.399 . S
C303 C300 1.487 . S
C303 N320 1.343 . S
H304 C276 0.931 . S
H305 C278 0.930 . S
H306 C280 0.930 . S
H307 C281 0.931 . S
H308 C283 0.931 . S
H309 C285 0.930 . S
H310 C287 0.930 . S
H311 C288 0.931 . S
H312 C290 0.931 . S
H313 C292 0.930 . S
H314 C294 0.930 . S
H315 C295 0.931 . S
H316 C297 0.931 . S
H317 C299 0.930 . S
H318 C301 0.930 . S
H319 C302 0.931 . S
N320 C282 1.343 . S
N320 C303 1.343 . S
N321 C289 1.343 . S
N321 C296 1.343 . S
C322 C323 1.384 . S
C322 C324 1.384 . S
C322 H350 0.931 . S
C323 C322 1.384 . S
C323 C326 1.382 . S
C324 C322 1.384 . S
C324 C325 1.381 . S
C324 H351 0.930 . S
C325 C324 1.381 . S
C325 C327 1.381 . S
C325 C328 1.487 . S
C326 C323 1.382 . S
C326 C327 1.387 . S
C326 H352 0.930 . S
C327 C325 1.381 . S
C327 C326 1.387 . S
C327 H353 0.931 . S
C328 C325 1.487 . S
C328 C335 1.399 . S
C328 N366 1.343 . S
C329 C330 1.384 . S
C329 C331 1.384 . S
C329 H354 0.931 . S
C330 C329 1.384 . S
C330 C333 1.382 . S
C331 C329 1.384 . S
C331 C332 1.381 . S
C331 H355 0.930 . S
C332 C331 1.381 . S
C332 C334 1.381 . S
C332 C335 1.487 . S
C333 C330 1.382 . S
C333 C334 1.387 . S
C333 H356 0.930 . S
C334 C332 1.381 . S
C334 C333 1.387 . S
C334 H357 0.931 . S
C335 C328 1.399 . S
C335 C332 1.487 . S
C335 N367 1.343 . S
C336 C337 1.384 . S
C336 C338 1.384 . S
C336 H358 0.931 . S
C337 C336 1.384 . S
C337 C340 1.382 . S
C338 C336 1.384 . S
C338 C339 1.381 . S
C338 H359 0.930 . S
C339 C338 1.381 . S
C339 C341 1.381 . S
C339 C342 1.487 . S
C340 C337 1.382 . S
C340 C341 1.387 . S
C340 H360 0.930 . S
C341 C339 1.381 . S
C341 C340 1.387 . S
C341 H361 0.931 . S
C342 C339 1.487 . S
C342 C349 1.399 . S
C342 N367 1.343 . S
C343 C344 1.384 . S
C343 C345 1.384 . S
C343 H362 0.931 . S
C344 C343 1.384 . S
C344 C347 1.382 . S
C345 C343 1.384 . S
C345 C346 1.381 . S
C345 H363 0.930 . S
C346 C345 1.381 . S
C346 C348 1.381 . S
C346 C349 1.487 . S
C347 C344 1.382 . S
C347 C348 1.387 . S
C347 H364 0.930 . S
C348 C346 1.381 . S
C348 C347 1.387 . S
C348 H365 0.931 . S
C349 C342 1.399 . S
C349 C346 1.487 . S
C349 N366 1.343 . S
H350 C322 0.931 . S
H351 C324 0.930 . S
H352 C326 0.930 . S
H353 C327 0.931 . S
H354 C329 0.931 . S
H355 C331 0.930 . S
H356 C333 0.930 . S
H357 C334 0.931 . S
H358 C336 0.931 . S
H359 C338 0.930 . S
H360 C340 0.930 . S
H361 C341 0.931 . S
H362 C343 0.931 . S
H363 C345 0.930 . S
H364 C347 0.930 . S
H365 C348 0.931 . S
N366 C328 1.343 . S
N366 C349 1.343 . S
N367 C335 1.343 . S
N367 C342 1.343 . S
C368 C369 1.443 . S
C368 N372 1.376 . S
C368 C406 1.389 . S
C369 C368 1.443 . S
C369 C370 1.340 . S
C369 H409 0.951 . S
C370 C369 1.340 . S
C370 C371 1.439 . S
C370 H410 0.950 . S
C371 C370 1.439 . S
C371 N372 1.374 . S
C371 C405 1.395 . S
N372 C368 1.376 . S
N372 C371 1.374 . S
N372 Co373 2.008 . S
Co373 N372 2.008 . S
Co373 N374 1.995 1_455 S
Co373 N379 2.008 1_455 S
Co373 N384 1.995 . S
Co373 N389 2.282 1_455 S
Co373 N395 2.282 . S
N374 Co373 1.995 1_655 S
N374 C375 1.376 . S
N374 C378 1.383 . S
C375 N374 1.376 . S
C375 C376 1.446 . S
C375 C405 1.391 1_655 S
C376 C375 1.446 . S
C376 C377 1.339 . S
C376 H411 0.949 . S
C377 C376 1.339 . S
C377 C378 1.439 . S
C377 H412 0.950 . S
C378 N374 1.383 . S
C378 C377 1.439 . S
C378 C407 1.392 . S
N379 Co373 2.008 1_655 S
N379 C380 1.376 . S
N379 C383 1.374 . S
C380 N379 1.376 . S
C380 C381 1.443 . S
C380 C407 1.389 . S
C381 C380 1.443 . S
C381 C382 1.340 . S
C381 H413 0.951 . S
C382 C381 1.340 . S
C382 C383 1.439 . S
C382 H414 0.950 . S
C383 N379 1.374 . S
C383 C382 1.439 . S
C383 C408 1.401 . S
N384 Co373 1.995 . S
N384 C385 1.376 . S
N384 C388 1.383 . S
C385 N384 1.376 . S
C385 C386 1.446 . S
C385 C408 1.385 1_455 S
C386 C385 1.446 . S
C386 C387 1.339 . S
C386 H415 0.949 . S
C387 C386 1.339 . S
C387 C388 1.439 . S
C387 H416 0.950 . S
C388 N384 1.383 . S
C388 C387 1.439 . S
C388 C406 1.392 . S
N389 Co373 2.282 1_655 S
N389 C392 1.332 . S
N389 C394 1.332 . S
C390 C391 1.386 . S
C390 C393 1.388 . S
C391 C390 1.386 . S
C391 C392 1.382 . S
C391 H417 0.950 . S
C392 N389 1.332 . S
C392 C391 1.382 . S
C392 H403 0.952 . S
C393 C390 1.388 . S
C393 C394 1.382 . S
C393 H418 0.950 . S
C394 N389 1.332 . S
C394 C393 1.382 . S
C394 H404 0.948 . S
N395 Co373 2.282 . S
N395 C399 1.332 . S
N395 C400 1.332 . S
C396 C397 1.388 . S
C396 C400 1.382 . S
C396 H419 0.950 . S
C397 C396 1.388 . S
C397 C398 1.386 . S
C398 C397 1.386 . S
C398 C399 1.382 . S
C398 H420 0.950 . S
C399 N395 1.332 . S
C399 C398 1.382 . S
C399 H401 0.952 . S
C400 N395 1.332 . S
C400 C396 1.382 . S
C400 H402 0.948 . S
H401 C399 0.952 . S
H402 C400 0.948 . S
H403 C392 0.952 . S
H404 C394 0.948 . S
C405 C371 1.395 . S
C405 C375 1.391 1_455 S
C406 C368 1.389 . S
C406 C388 1.392 . S
C407 C378 1.392 . S
C407 C380 1.389 . S
C408 C383 1.401 . S
C408 C385 1.385 1_655 S
H409 C369 0.951 . S
H410 C370 0.950 . S
H411 C376 0.949 . S
H412 C377 0.950 . S
H413 C381 0.951 . S
H414 C382 0.950 . S
H415 C386 0.949 . S
H416 C387 0.950 . S
H417 C391 0.950 . S
H418 C393 0.950 . S
H419 C396 0.950 . S
H420 C398 0.950 . S
C421 C422 1.443 . S
C421 N425 1.376 . S
C421 C459 1.389 . S
C422 C421 1.443 . S
C422 C423 1.340 . S
C422 H462 0.951 . S
C423 C422 1.340 . S
C423 C424 1.439 . S
C423 H463 0.950 . S
C424 C423 1.439 . S
C424 N425 1.374 . S
C424 C458 1.395 . S
N425 C421 1.376 . S
N425 C424 1.374 . S
N425 Co426 2.008 . S
Co426 N425 2.008 . S
Co426 N427 1.995 1_545 S
Co426 N432 2.008 1_545 S
Co426 N437 1.995 . S
Co426 N442 2.282 1_545 S
Co426 N448 2.282 . S
N427 Co426 1.995 1_565 S
N427 C428 1.376 . S
N427 C431 1.383 . S
C428 N427 1.376 . S
C428 C429 1.446 . S
C428 C458 1.391 1_565 S
C429 C428 1.446 . S
C429 C430 1.339 . S
C429 H464 0.949 . S
C430 C429 1.339 . S
C430 C431 1.439 . S
C430 H465 0.950 . S
C431 N427 1.383 . S
C431 C430 1.439 . S
C431 C460 1.392 . S
N432 Co426 2.008 1_565 S
N432 C433 1.376 . S
N432 C436 1.374 . S
C433 N432 1.376 . S
C433 C434 1.443 . S
C433 C460 1.389 . S
C434 C433 1.443 . S
C434 C435 1.340 . S
C434 H466 0.951 . S
C435 C434 1.340 . S
C435 C436 1.439 . S
C435 H467 0.950 . S
C436 N432 1.374 . S
C436 C435 1.439 . S
C436 C461 1.408 . S
N437 Co426 1.995 . S
N437 C438 1.376 . S
N437 C441 1.383 . S
C438 N437 1.376 . S
C438 C439 1.446 . S
C438 C461 1.377 1_545 S
C439 C438 1.446 . S
C439 C440 1.339 . S
C439 H468 0.949 . S
C440 C439 1.339 . S
C440 C441 1.439 . S
C440 H469 0.950 . S
C441 N437 1.383 . S
C441 C440 1.439 . S
C441 C459 1.392 . S
N442 Co426 2.282 1_565 S
N442 C445 1.332 . S
N442 C447 1.332 . S
C443 C444 1.386 . S
C443 C446 1.388 . S
C444 C443 1.386 . S
C444 C445 1.382 . S
C444 H470 0.950 . S
C445 N442 1.332 . S
C445 C444 1.382 . S
C445 H456 0.952 . S
C446 C443 1.388 . S
C446 C447 1.382 . S
C446 H471 0.950 . S
C447 N442 1.332 . S
C447 C446 1.382 . S
C447 H457 0.948 . S
N448 Co426 2.282 . S
N448 C452 1.332 . S
N448 C453 1.332 . S
C449 C450 1.388 . S
C449 C453 1.382 . S
C449 H472 0.950 . S
C450 C449 1.388 . S
C450 C451 1.386 . S
C451 C450 1.386 . S
C451 C452 1.382 . S
C451 H473 0.950 . S
C452 N448 1.332 . S
C452 C451 1.382 . S
C452 H454 0.952 . S
C453 N448 1.332 . S
C453 C449 1.382 . S
C453 H455 0.948 . S
H454 C452 0.952 . S
H455 C453 0.948 . S
H456 C445 0.952 . S
H457 C447 0.948 . S
C458 C424 1.395 . S
C458 C428 1.391 1_545 S
C459 C421 1.389 . S
C459 C441 1.392 . S
C460 C431 1.392 . S
C460 C433 1.389 . S
C461 C436 1.408 . S
C461 C438 1.377 1_565 S
H462 C422 0.951 . S
H463 C423 0.950 . S
H464 C429 0.949 . S
H465 C430 0.950 . S
H466 C434 0.951 . S
H467 C435 0.950 . S
H468 C439 0.949 . S
H469 C440 0.950 . S
H470 C444 0.950 . S
H471 C446 0.950 . S
H472 C449 0.950 . S
H473 C451 0.950 . S
C474 C475 1.443 . S
C474 N478 1.376 . S
C474 C512 1.389 . S
C475 C474 1.443 . S
C475 C476 1.340 . S
C475 H515 0.951 . S
C476 C475 1.340 . S
C476 C477 1.439 . S
C476 H516 0.950 . S
C477 C476 1.439 . S
C477 N478 1.374 . S
C477 C511 1.395 . S
N478 C474 1.376 . S
N478 C477 1.374 . S
N478 Co479 2.008 . S
Co479 N478 2.008 . S
Co479 N480 1.995 1_455 S
Co479 N485 2.008 1_455 S
Co479 N490 1.995 . S
Co479 N495 2.282 1_455 S
Co479 N501 2.282 . S
N480 Co479 1.995 1_655 S
N480 C481 1.376 . S
N480 C484 1.383 . S
C481 N480 1.376 . S
C481 C482 1.446 . S
C481 C511 1.391 1_655 S
C482 C481 1.446 . S
C482 C483 1.339 . S
C482 H517 0.949 . S
C483 C482 1.339 . S
C483 C484 1.439 . S
C483 H518 0.950 . S
C484 N480 1.383 . S
C484 C483 1.439 . S
C484 C513 1.392 . S
N485 Co479 2.008 1_655 S
N485 C486 1.376 . S
N485 C489 1.374 . S
C486 N485 1.376 . S
C486 C487 1.443 . S
C486 C513 1.389 . S
C487 C486 1.443 . S
C487 C488 1.340 . S
C487 H519 0.951 . S
C488 C487 1.340 . S
C488 C489 1.439 . S
C488 H520 0.950 . S
C489 N485 1.374 . S
C489 C488 1.439 . S
C489 C514 1.435 . S
N490 Co479 1.995 . S
N490 C491 1.376 . S
N490 C494 1.383 . S
C491 N490 1.376 . S
C491 C492 1.446 . S
C491 C514 1.350 1_455 S
C492 C491 1.446 . S
C492 C493 1.339 . S
C492 H521 0.949 . S
C493 C492 1.339 . S
C493 C494 1.439 . S
C493 H522 0.950 . S
C494 N490 1.383 . S
C494 C493 1.439 . S
C494 C512 1.392 . S
N495 Co479 2.282 1_655 S
N495 C498 1.332 . S
N495 C500 1.332 . S
C496 C497 1.386 . S
C496 C499 1.388 . S
C497 C496 1.386 . S
C497 C498 1.382 . S
C497 H523 0.950 . S
C498 N495 1.332 . S
C498 C497 1.382 . S
C498 H509 0.952 . S
C499 C496 1.388 . S
C499 C500 1.382 . S
C499 H524 0.950 . S
C500 N495 1.332 . S
C500 C499 1.382 . S
C500 H510 0.948 . S
N501 Co479 2.282 . S
N501 C505 1.332 . S
N501 C506 1.332 . S
C502 C503 1.388 . S
C502 C506 1.382 . S
C502 H525 0.950 . S
C503 C502 1.388 . S
C503 C504 1.386 . S
C504 C503 1.386 . S
C504 C505 1.382 . S
C504 H526 0.950 . S
C505 N501 1.332 . S
C505 C504 1.382 . S
C505 H507 0.952 . S
C506 N501 1.332 . S
C506 C502 1.382 . S
C506 H508 0.948 . S
H507 C505 0.952 . S
H508 C506 0.948 . S
H509 C498 0.952 . S
H510 C500 0.948 . S
C511 C477 1.395 . S
C511 C481 1.391 1_455 S
C512 C474 1.389 . S
C512 C494 1.392 . S
C513 C484 1.392 . S
C513 C486 1.389 . S
C514 C489 1.435 . S
C514 C491 1.350 1_655 S
H515 C475 0.951 . S
H516 C476 0.950 . S
H517 C482 0.949 . S
H518 C483 0.950 . S
H519 C487 0.951 . S
H520 C488 0.950 . S
H521 C492 0.949 . S
H522 C493 0.950 . S
H523 C497 0.950 . S
H524 C499 0.950 . S
H525 C502 0.950 . S
H526 C504 0.950 . S
C527 C528 1.443 . S
C527 N531 1.376 . S
C527 C565 1.389 . S
C528 C527 1.443 . S
C528 C529 1.340 . S
C528 H568 0.951 . S
C529 C528 1.340 . S
C529 C530 1.439 . S
C529 H569 0.950 . S
C530 C529 1.439 . S
C530 N531 1.374 . S
C530 C564 1.412 . S
N531 C527 1.376 . S
N531 C530 1.374 . S
N531 Co532 2.008 1_565 S
Co532 N531 2.008 1_545 S
Co532 N533 1.995 . S
Co532 N538 2.008 . S
Co532 N543 1.995 1_545 S
Co532 N548 2.282 . S
Co532 N554 2.282 1_545 S
N533 Co532 1.995 . S
N533 C534 1.376 . S
N533 C537 1.383 . S
C534 N533 1.376 . S
C534 C535 1.446 . S
C534 C564 1.374 1_545 S
C535 C534 1.446 . S
C535 C536 1.339 . S
C535 H570 0.949 . S
C536 C535 1.339 . S
C536 C537 1.439 . S
C536 H571 0.950 . S
C537 N533 1.383 . S
C537 C536 1.439 . S
C537 C566 1.392 . S
N538 Co532 2.008 . S
N538 C539 1.376 . S
N538 C542 1.374 . S
C539 N538 1.376 . S
C539 C540 1.443 . S
C539 C566 1.389 . S
C540 C539 1.443 . S
C540 C541 1.340 . S
C540 H572 0.951 . S
C541 C540 1.340 . S
C541 C542 1.439 . S
C541 H573 0.950 . S
C542 N538 1.374 . S
C542 C541 1.439 . S
C542 C567 1.395 . S
N543 Co532 1.995 1_565 S
N543 C544 1.376 . S
N543 C547 1.383 . S
C544 N543 1.376 . S
C544 C545 1.446 . S
C544 C567 1.391 1_565 S
C545 C544 1.446 . S
C545 C546 1.339 . S
C545 H574 0.949 . S
C546 C545 1.339 . S
C546 C547 1.439 . S
C546 H575 0.950 . S
C547 N543 1.383 . S
C547 C546 1.439 . S
C547 C565 1.392 . S
N548 Co532 2.282 . S
N548 C551 1.332 . S
N548 C553 1.332 . S
C549 C550 1.386 . S
C549 C552 1.388 . S
C550 C549 1.386 . S
C550 C551 1.382 . S
C550 H576 0.950 . S
C551 N548 1.332 . S
C551 C550 1.382 . S
C551 H562 0.952 . S
C552 C549 1.388 . S
C552 C553 1.382 . S
C552 H577 0.950 . S
C553 N548 1.332 . S
C553 C552 1.382 . S
C553 H563 0.948 . S
N554 Co532 2.282 1_565 S
N554 C558 1.332 . S
N554 C559 1.332 . S
C555 C556 1.388 . S
C555 C559 1.382 . S
C555 H578 0.950 . S
C556 C555 1.388 . S
C556 C557 1.386 . S
C557 C556 1.386 . S
C557 C558 1.382 . S
C557 H579 0.950 . S
C558 N554 1.332 . S
C558 C557 1.382 . S
C558 H560 0.952 . S
C559 N554 1.332 . S
C559 C555 1.382 . S
C559 H561 0.948 . S
H560 C558 0.952 . S
H561 C559 0.948 . S
H562 C551 0.952 . S
H563 C553 0.948 . S
C564 C530 1.412 . S
C564 C534 1.374 1_565 S
C565 C527 1.389 . S
C565 C547 1.392 . S
C566 C537 1.392 . S
C566 C539 1.389 . S
C567 C542 1.395 . S
C567 C544 1.391 1_545 S
H568 C528 0.951 . S
H569 C529 0.950 . S
H570 C535 0.949 . S
H571 C536 0.950 . S
H572 C540 0.951 . S
H573 C541 0.950 . S
H574 C545 0.949 . S
H575 C546 0.950 . S
H576 C550 0.950 . S
H577 C552 0.950 . S
H578 C555 0.950 . S
H579 C557 0.950 . S
C580 C581 1.443 . S
C580 N584 1.376 . S
C580 C618 1.389 . S
C581 C580 1.443 . S
C581 C582 1.340 . S
C581 H621 0.951 . S
C582 C581 1.340 . S
C582 C583 1.439 . S
C582 H622 0.950 . S
C583 C582 1.439 . S
C583 N584 1.374 . S
C583 C617 1.395 1_554 S
N584 C580 1.376 . S
N584 C583 1.374 . S
N584 Co585 2.010 . S
Co585 N584 2.010 . S
Co585 N586 1.992 1_554 S
Co585 N591 2.006 1_554 S
Co585 N596 1.997 . S
Co585 N601 2.286 . S
Co585 N607 2.279 1_554 S
N586 Co585 1.992 1_556 S
N586 C587 1.376 . S
N586 C590 1.383 . S
C587 N586 1.376 . S
C587 C588 1.446 . S
C587 C617 1.391 . S
C588 C587 1.446 . S
C588 C589 1.339 . S
C588 H623 0.949 . S
C589 C588 1.339 . S
C589 C590 1.439 . S
C589 H624 0.950 . S
C590 N586 1.383 . S
C590 C589 1.439 . S
C590 C619 1.392 . S
N591 Co585 2.006 1_556 S
N591 C592 1.376 . S
N591 C595 1.374 . S
C592 N591 1.376 . S
C592 C593 1.443 . S
C592 C619 1.389 . S
C593 C592 1.443 . S
C593 C594 1.340 . S
C593 H625 0.951 . S
C594 C593 1.340 . S
C594 C595 1.439 . S
C594 H626 0.950 . S
C595 N591 1.374 . S
C595 C594 1.439 . S
C595 C620 1.395 1_556 S
N596 Co585 1.997 . S
N596 C597 1.376 . S
N596 C600 1.383 . S
C597 N596 1.376 . S
C597 C598 1.446 . S
C597 C620 1.391 . S
C598 C597 1.446 . S
C598 C599 1.339 . S
C598 H627 0.949 . S
C599 C598 1.339 . S
C599 C600 1.439 . S
C599 H628 0.950 . S
C600 N596 1.383 . S
C600 C599 1.439 . S
C600 C618 1.392 . S
N601 Co585 2.286 . S
N601 C604 1.332 . S
N601 C606 1.332 . S
C602 C603 1.386 . S
C602 C605 1.388 . S
C603 C602 1.386 . S
C603 C604 1.382 . S
C603 H629 0.950 . S
C604 N601 1.332 . S
C604 C603 1.382 . S
C604 H615 0.952 . S
C605 C602 1.388 . S
C605 C606 1.382 . S
C605 H630 0.950 . S
C606 N601 1.332 . S
C606 C605 1.382 . S
C606 H616 0.948 . S
N607 Co585 2.279 1_556 S
N607 C611 1.332 . S
N607 C612 1.332 . S
C608 C609 1.388 . S
C608 C612 1.382 . S
C608 H631 0.950 . S
C609 C608 1.388 . S
C609 C610 1.386 . S
C610 C609 1.386 . S
C610 C611 1.382 . S
C610 H632 0.950 . S
C611 N607 1.332 . S
C611 C610 1.382 . S
C611 H613 0.952 . S
C612 N607 1.332 . S
C612 C608 1.382 . S
C612 H614 0.948 . S
H613 C611 0.952 . S
H614 C612 0.948 . S
H615 C604 0.952 . S
H616 C606 0.948 . S
C617 C583 1.395 1_556 S
C617 C587 1.391 . S
C618 C580 1.389 . S
C618 C600 1.392 . S
C619 C590 1.392 . S
C619 C592 1.389 . S
C620 C595 1.395 1_554 S
C620 C597 1.391 . S
H621 C581 0.951 . S
H622 C582 0.950 . S
H623 C588 0.949 . S
H624 C589 0.950 . S
H625 C593 0.951 . S
H626 C594 0.950 . S
H627 C598 0.949 . S
H628 C599 0.950 . S
H629 C603 0.950 . S
H630 C605 0.950 . S
H631 C608 0.950 . S
H632 C610 0.950 . S
C633 C634 1.443 . S
C633 N637 1.376 . S
C633 C671 1.389 . S
C634 C633 1.443 . S
C634 C635 1.340 . S
C634 H674 0.951 . S
C635 C634 1.340 . S
C635 C636 1.439 . S
C635 H675 0.950 . S
C636 C635 1.439 . S
C636 N637 1.374 . S
C636 C670 1.395 . S
N637 C633 1.376 . S
N637 C636 1.374 . S
N637 Co638 2.008 . S
Co638 N637 2.008 . S
Co638 N639 1.995 1_554 S
Co638 N644 2.008 1_554 S
Co638 N649 1.995 . S
Co638 N654 2.282 . S
Co638 N660 2.282 1_554 S
N639 Co638 1.995 1_556 S
N639 C640 1.376 . S
N639 C643 1.383 . S
C640 N639 1.376 . S
C640 C641 1.446 . S
C640 C670 1.391 1_556 S
C641 C640 1.446 . S
C641 C642 1.339 . S
C641 H676 0.949 . S
C642 C641 1.339 . S
C642 C643 1.439 . S
C642 H677 0.950 . S
C643 N639 1.383 . S
C643 C642 1.439 . S
C643 C672 1.392 . S
N644 Co638 2.008 1_556 S
N644 C645 1.376 . S
N644 C648 1.374 1_556 S
C645 N644 1.376 . S
C645 C646 1.443 . S
C645 C672 1.389 . S
C646 C645 1.443 . S
C646 C647 1.340 . S
C646 H678 0.951 . S
C647 C646 1.340 . S
C647 C648 1.439 1_556 S
C647 H679 0.950 . S
C648 N644 1.374 1_554 S
C648 C647 1.439 1_554 S
C648 C673 1.395 . S
N649 Co638 1.995 . S
N649 C650 1.376 . S
N649 C653 1.383 . S
C650 N649 1.376 . S
C650 C651 1.446 . S
C650 C673 1.391 . S
C651 C650 1.446 . S
C651 C652 1.339 . S
C651 H680 0.949 . S
C652 C651 1.339 . S
C652 C653 1.439 . S
C652 H681 0.950 . S
C653 N649 1.383 . S
C653 C652 1.439 . S
C653 C671 1.392 . S
N654 Co638 2.282 . S
N654 C657 1.332 . S
N654 C659 1.332 . S
C655 C656 1.386 . S
C655 C658 1.388 . S
C656 C655 1.386 . S
C656 C657 1.382 . S
C656 H682 0.950 . S
C657 N654 1.332 . S
C657 C656 1.382 . S
C657 H668 0.952 . S
C658 C655 1.388 . S
C658 C659 1.382 . S
C658 H683 0.950 . S
C659 N654 1.332 . S
C659 C658 1.382 . S
C659 H669 0.948 . S
N660 Co638 2.282 1_556 S
N660 C664 1.332 . S
N660 C665 1.332 . S
C661 C662 1.388 . S
C661 C665 1.382 . S
C661 H684 0.950 . S
C662 C661 1.388 . S
C662 C663 1.386 . S
C663 C662 1.386 . S
C663 C664 1.382 . S
C663 H685 0.950 . S
C664 N660 1.332 . S
C664 C663 1.382 . S
C664 H666 0.952 . S
C665 N660 1.332 . S
C665 C661 1.382 . S
C665 H667 0.948 . S
H666 C664 0.952 . S
H667 C665 0.948 . S
H668 C657 0.952 . S
H669 C659 0.948 . S
C670 C636 1.395 . S
C670 C640 1.391 1_554 S
C671 C633 1.389 . S
C671 C653 1.392 . S
C672 C643 1.392 . S
C672 C645 1.389 . S
C673 C648 1.395 . S
C673 C650 1.391 . S
H674 C634 0.951 . S
H675 C635 0.950 . S
H676 C641 0.949 . S
H677 C642 0.950 . S
H678 C646 0.951 . S
H679 C647 0.950 . S
H680 C651 0.949 . S
H681 C652 0.950 . S
H682 C656 0.950 . S
H683 C658 0.950 . S
H684 C661 0.950 . S
H685 C663 0.950 . S
C686 C687 1.443 . S
C686 N690 1.376 1_556 S
C686 C724 1.389 . S
C687 C686 1.443 . S
C687 C688 1.340 . S
C687 H727 0.951 . S
C688 C687 1.340 . S
C688 C689 1.439 1_556 S
C688 H728 0.952 . S
C689 C688 1.439 1_554 S
C689 N690 1.374 . S
C689 C723 1.395 . S
N690 C686 1.376 1_554 S
N690 C689 1.374 . S
N690 Co691 2.008 . S
Co691 N690 2.008 . S
Co691 N692 1.995 . S
Co691 N697 2.008 . S
Co691 N702 1.995 1_554 S
Co691 N707 2.282 1_554 S
Co691 N713 2.282 . S
N692 Co691 1.995 . S
N692 C693 1.376 . S
N692 C696 1.383 . S
C693 N692 1.376 . S
C693 C694 1.446 . S
C693 C723 1.391 . S
C694 C693 1.446 . S
C694 C695 1.339 . S
C694 H729 0.949 . S
C695 C694 1.339 . S
C695 C696 1.439 . S
C695 H730 0.950 . S
C696 N692 1.383 . S
C696 C695 1.439 . S
C696 C725 1.392 . S
N697 Co691 2.008 . S
N697 C698 1.376 . S
N697 C701 1.374 . S
C698 N697 1.376 . S
C698 C699 1.443 . S
C698 C725 1.389 . S
C699 C698 1.443 . S
C699 C700 1.340 . S
C699 H731 0.951 . S
C700 C699 1.340 . S
C700 C701 1.439 . S
C700 H732 0.950 . S
C701 N697 1.374 . S
C701 C700 1.439 . S
C701 C726 1.395 . S
N702 Co691 1.995 1_556 S
N702 C703 1.376 . S
N702 C706 1.383 . S
C703 N702 1.376 . S
C703 C704 1.446 . S
C703 C726 1.391 1_556 S
C704 C703 1.446 . S
C704 C705 1.339 . S
C704 H733 0.949 . S
C705 C704 1.339 . S
C705 C706 1.439 . S
C705 H734 0.950 . S
C706 N702 1.383 . S
C706 C705 1.439 . S
C706 C724 1.392 . S
N707 Co691 2.282 1_556 S
N707 C710 1.332 . S
N707 C712 1.332 . S
C708 C709 1.386 . S
C708 C711 1.388 . S
C709 C708 1.386 . S
C709 C710 1.382 . S
C709 H735 0.950 . S
C710 N707 1.332 . S
C710 C709 1.382 . S
C710 H721 0.952 . S
C711 C708 1.388 . S
C711 C712 1.382 . S
C711 H736 0.950 . S
C712 N707 1.332 . S
C712 C711 1.382 . S
C712 H722 0.969 . S
N713 Co691 2.282 . S
N713 C717 1.332 . S
N713 C718 1.332 . S
C714 C715 1.388 . S
C714 C718 1.382 . S
C714 H737 0.950 . S
C715 C714 1.388 . S
C715 C716 1.386 . S
C716 C715 1.386 . S
C716 C717 1.382 . S
C716 H738 0.950 . S
C717 N713 1.332 . S
C717 C716 1.382 . S
C717 H719 0.952 . S
C718 N713 1.332 . S
C718 C714 1.382 . S
C718 H720 0.948 . S
H719 C717 0.952 . S
H720 C718 0.948 . S
H721 C710 0.952 . S
H722 C712 0.969 . S
C723 C689 1.395 . S
C723 C693 1.391 . S
C724 C686 1.389 . S
C724 C706 1.392 . S
C725 C696 1.392 . S
C725 C698 1.389 . S
C726 C701 1.395 . S
C726 C703 1.391 1_554 S
H727 C687 0.951 . S
H728 C688 0.952 . S
H729 C694 0.949 . S
H730 C695 0.950 . S
H731 C699 0.951 . S
H732 C700 0.950 . S
H733 C704 0.949 . S
H734 C705 0.950 . S
H735 C709 0.950 . S
H736 C711 0.950 . S
H737 C714 0.950 . S
H738 C716 0.950 . S
C739 C740 1.443 . S
C739 N743 1.376 . S
C739 C777 1.389 . S
C740 C739 1.443 . S
C740 C741 1.340 . S
C740 H780 0.951 . S
C741 C740 1.340 . S
C741 C742 1.439 . S
C741 H781 0.950 . S
C742 C741 1.439 . S
C742 N743 1.374 . S
C742 C776 1.378 1_554 S
N743 C739 1.376 . S
N743 C742 1.374 . S
N743 Co744 2.008 . S
Co744 N743 2.008 . S
Co744 N745 1.995 1_554 S
Co744 N750 2.008 1_554 S
Co744 N755 1.995 . S
Co744 N760 2.282 . S
Co744 N766 2.282 1_554 S
N745 Co744 1.995 1_556 S
N745 C746 1.376 . S
N745 C749 1.383 . S
C746 N745 1.376 . S
C746 C747 1.446 . S
C746 C776 1.407 . S
C747 C746 1.446 . S
C747 C748 1.339 . S
C747 H782 0.949 . S
C748 C747 1.339 . S
C748 C749 1.439 . S
C748 H783 0.950 . S
C749 N745 1.383 . S
C749 C748 1.439 . S
C749 C778 1.392 . S
N750 Co744 2.008 1_556 S
N750 C751 1.376 . S
N750 C754 1.374 1_556 S
C751 N750 1.376 . S
C751 C752 1.443 . S
C751 C778 1.389 . S
C752 C751 1.443 . S
C752 C753 1.340 . S
C752 H784 0.951 . S
C753 C752 1.340 . S
C753 C754 1.439 1_556 S
C753 H785 0.950 . S
C754 N750 1.374 1_554 S
C754 C753 1.439 1_554 S
C754 C779 1.395 . S
N755 Co744 1.995 . S
N755 C756 1.376 . S
N755 C759 1.383 . S
C756 N755 1.376 . S
C756 C757 1.446 . S
C756 C779 1.391 . S
C757 C756 1.446 . S
C757 C758 1.339 . S
C757 H786 0.949 . S
C758 C757 1.339 . S
C758 C759 1.439 . S
C758 H787 0.950 . S
C759 N755 1.383 . S
C759 C758 1.439 . S
C759 C777 1.392 . S
N760 Co744 2.282 . S
N760 C763 1.332 . S
N760 C765 1.332 . S
C761 C762 1.386 . S
C761 C764 1.388 . S
C762 C761 1.386 . S
C762 C763 1.382 . S
C762 H788 0.950 . S
C763 N760 1.332 . S
C763 C762 1.382 . S
C763 H774 0.952 . S
C764 C761 1.388 . S
C764 C765 1.382 . S
C764 H789 0.950 . S
C765 N760 1.332 . S
C765 C764 1.382 . S
C765 H775 0.948 . S
N766 Co744 2.282 1_556 S
N766 C770 1.332 . S
N766 C771 1.332 . S
C767 C768 1.388 . S
C767 C771 1.382 . S
C767 H790 0.950 . S
C768 C767 1.388 . S
C768 C769 1.386 . S
C769 C768 1.386 . S
C769 C770 1.382 . S
C769 H791 0.950 . S
C770 N766 1.332 . S
C770 C769 1.382 . S
C770 H772 0.952 . S
C771 N766 1.332 . S
C771 C767 1.382 . S
C771 H773 0.948 . S
H772 C770 0.952 . S
H773 C771 0.948 . S
H774 C763 0.952 . S
H775 C765 0.948 . S
C776 C742 1.378 1_556 S
C776 C746 1.407 . S
C777 C739 1.389 . S
C777 C759 1.392 . S
C778 C749 1.392 . S
C778 C751 1.389 . S
C779 C754 1.395 . S
C779 C756 1.391 . S
H780 C740 0.951 . S
H781 C741 0.950 . S
H782 C747 0.949 . S
H783 C748 0.950 . S
H784 C752 0.951 . S
H785 C753 0.950 . S
H786 C757 0.949 . S
H787 C758 0.950 . S
H788 C762 0.950 . S
H789 C764 0.950 . S
H790 C767 0.950 . S
H791 C769 0.950 . S
H792 C800 0.929 . S
H793 C802 0.930 . S
H794 C804 0.930 . S
H795 C807 0.929 . S
H796 C810 0.930 . S
H797 C812 0.960 . S
H798 C812 0.960 . S
H799 C812 0.960 . S
C800 H792 0.929 . S
C800 C801 1.377 . S
C800 C802 1.384 . S
C801 C800 1.377 . S
C801 C807 1.390 . S
C802 H793 0.930 . S
C802 C800 1.384 . S
C802 C803 1.372 . S
C803 C802 1.372 . S
C803 C804 1.400 . S
C803 C808 1.490 . S
C804 H794 0.930 . S
C804 C803 1.400 . S
C804 C807 1.386 . S
H805 C821 0.930 . S
H806 C822 0.931 . S
C807 H795 0.929 . S
C807 C801 1.390 . S
C807 C804 1.386 . S
C808 C803 1.490 . S
C808 C810 1.395 . S
C808 C811 1.403 . S
H809 C815 0.930 . S
C810 H796 0.930 . S
C810 C808 1.395 . S
C810 C813 1.403 . S
C811 C808 1.403 . S
C811 C812 1.524 . S
C811 C815 1.400 . S
C812 H797 0.960 . S
C812 H798 0.960 . S
C812 H799 0.960 . S
C812 C811 1.524 . S
C813 C810 1.403 . S
C813 C814 1.392 . S
C813 C817 1.495 . S
C814 C813 1.392 . S
C814 C815 1.385 . S
C814 C816 1.478 . S
C815 H809 0.930 . S
C815 C811 1.400 . S
C815 C814 1.385 . S
C816 C814 1.478 . S
C816 C818 1.381 . S
C816 C822 1.383 . S
C817 C813 1.495 . S
C817 H823 0.959 . S
C817 H824 0.961 . S
C817 H825 0.960 . S
C818 C816 1.381 . S
C818 C819 1.394 . S
C818 H826 0.930 . S
C819 C818 1.394 . S
C819 C820 1.383 . S
C819 H827 0.929 . S
C820 C819 1.383 . S
C820 C821 1.377 . S
C821 H805 0.930 . S
C821 C820 1.377 . S
C821 C822 1.379 . S
C822 H806 0.931 . S
C822 C816 1.383 . S
C822 C821 1.379 . S
H823 C817 0.959 . S
H824 C817 0.961 . S
H825 C817 0.960 . S
H826 C818 0.930 . S
H827 C819 0.929 . S
H828 C836 0.929 . S
H829 C838 0.930 . S
H830 C840 0.930 . S
H831 C843 0.929 . S
H832 C846 0.930 . S
H833 C848 0.960 . S
H834 C848 0.960 . S
H835 C848 0.960 . S
C836 H828 0.929 . S
C836 C837 1.377 . S
C836 C838 1.384 . S
C837 C836 1.377 . S
C837 C843 1.390 . S
C838 H829 0.930 . S
C838 C836 1.384 . S
C838 C839 1.372 . S
C839 C838 1.372 . S
C839 C840 1.400 . S
C839 C844 1.490 . S
C840 H830 0.930 . S
C840 C839 1.400 . S
C840 C843 1.386 . S
H841 C857 0.930 . S
H842 C858 0.931 . S
C843 H831 0.929 . S
C843 C837 1.390 . S
C843 C840 1.386 . S
C844 C839 1.490 . S
C844 C846 1.395 . S
C844 C847 1.403 . S
H845 C851 0.930 . S
C846 H832 0.930 . S
C846 C844 1.395 . S
C846 C849 1.403 . S
C847 C844 1.403 . S
C847 C848 1.524 . S
C847 C851 1.400 . S
C848 H833 0.960 . S
C848 H834 0.960 . S
C848 H835 0.960 . S
C848 C847 1.524 . S
C849 C846 1.403 . S
C849 C850 1.392 . S
C849 C853 1.495 . S
C850 C849 1.392 . S
C850 C851 1.385 . S
C850 C852 1.478 . S
C851 H845 0.930 . S
C851 C847 1.400 . S
C851 C850 1.385 . S
C852 C850 1.478 . S
C852 C854 1.381 . S
C852 C858 1.383 . S
C853 C849 1.495 . S
C853 H859 0.959 . S
C853 H860 0.961 . S
C853 H861 0.960 . S
C854 C852 1.381 . S
C854 C855 1.394 . S
C854 H862 0.930 . S
C855 C854 1.394 . S
C855 C856 1.383 . S
C855 H863 0.929 . S
C856 C855 1.383 . S
C856 C857 1.377 . S
C857 H841 0.930 . S
C857 C856 1.377 . S
C857 C858 1.379 . S
C858 H842 0.931 . S
C858 C852 1.383 . S
C858 C857 1.379 . S
H859 C853 0.959 . S
H860 C853 0.961 . S
H861 C853 0.960 . S
H862 C854 0.930 . S
H863 C855 0.929 . S
H864 C872 0.929 . S
H865 C874 0.930 . S
H866 C876 0.930 . S
H867 C879 0.929 . S
H868 C882 0.930 . S
H869 C884 0.960 . S
H870 C884 0.960 . S
H871 C884 0.960 . S
C872 H864 0.929 . S
C872 C873 1.377 . S
C872 C874 1.384 . S
C873 C872 1.377 . S
C873 C879 1.390 . S
C874 H865 0.930 . S
C874 C872 1.384 . S
C874 C875 1.372 . S
C875 C874 1.372 . S
C875 C876 1.400 . S
C875 C880 1.490 . S
C876 H866 0.930 . S
C876 C875 1.400 . S
C876 C879 1.386 . S
H877 C893 0.930 . S
H878 C894 0.931 . S
C879 H867 0.929 . S
C879 C873 1.390 . S
C879 C876 1.386 . S
C880 C875 1.490 . S
C880 C882 1.395 . S
C880 C883 1.403 . S
H881 C887 0.930 . S
C882 H868 0.930 . S
C882 C880 1.395 . S
C882 C885 1.403 . S
C883 C880 1.403 . S
C883 C884 1.524 . S
C883 C887 1.400 . S
C884 H869 0.960 . S
C884 H870 0.960 . S
C884 H871 0.960 . S
C884 C883 1.524 . S
C885 C882 1.403 . S
C885 C886 1.392 . S
C885 C889 1.495 . S
C886 C885 1.392 . S
C886 C887 1.385 . S
C886 C888 1.478 . S
C887 H881 0.930 . S
C887 C883 1.400 . S
C887 C886 1.385 . S
C888 C886 1.478 . S
C888 C890 1.381 . S
C888 C894 1.383 . S
C889 C885 1.495 . S
C889 H895 0.959 . S
C889 H896 0.961 . S
C889 H897 0.960 . S
C890 C888 1.381 . S
C890 C891 1.394 . S
C890 H898 0.930 . S
C891 C890 1.394 . S
C891 C892 1.383 . S
C891 H899 0.929 . S
C892 C891 1.383 . S
C892 C893 1.377 . S
C893 H877 0.930 . S
C893 C892 1.377 . S
C893 C894 1.379 . S
C894 H878 0.931 . S
C894 C888 1.383 . S
C894 C893 1.379 . S
H895 C889 0.959 . S
H896 C889 0.961 . S
H897 C889 0.960 . S
H898 C890 0.930 . S
H899 C891 0.929 . S
H900 C908 0.929 . S
H901 C910 0.930 . S
H902 C912 0.930 . S
H903 C915 0.929 . S
H904 C918 0.930 . S
H905 C920 0.960 . S
H906 C920 0.960 . S
H907 C920 0.960 . S
C908 H900 0.929 . S
C908 C909 1.377 . S
C908 C910 1.384 . S
C909 C908 1.377 . S
C909 C915 1.390 . S
C910 H901 0.930 . S
C910 C908 1.384 . S
C910 C911 1.372 . S
C911 C910 1.372 . S
C911 C912 1.400 . S
C911 C916 1.490 . S
C912 H902 0.930 . S
C912 C911 1.400 . S
C912 C915 1.386 . S
H913 C929 0.930 . S
H914 C930 0.931 . S
C915 H903 0.929 . S
C915 C909 1.390 . S
C915 C912 1.386 . S
C916 C911 1.490 . S
C916 C918 1.395 . S
C916 C919 1.403 . S
H917 C923 0.930 . S
C918 H904 0.930 . S
C918 C916 1.395 . S
C918 C921 1.403 . S
C919 C916 1.403 . S
C919 C920 1.524 . S
C919 C923 1.400 . S
C920 H905 0.960 . S
C920 H906 0.960 . S
C920 H907 0.960 . S
C920 C919 1.524 . S
C921 C918 1.403 . S
C921 C922 1.392 . S
C921 C925 1.495 . S
C922 C921 1.392 . S
C922 C923 1.385 . S
C922 C924 1.478 . S
C923 H917 0.930 . S
C923 C919 1.400 . S
C923 C922 1.385 . S
C924 C922 1.478 . S
C924 C926 1.381 . S
C924 C930 1.383 . S
C925 C921 1.495 . S
C925 H931 0.959 . S
C925 H932 0.961 . S
C925 H933 0.960 . S
C926 C924 1.381 . S
C926 C927 1.394 . S
C926 H934 0.930 . S
C927 C926 1.394 . S
C927 C928 1.383 . S
C927 H935 0.929 . S
C928 C927 1.383 . S
C928 C929 1.377 . S
C929 H913 0.930 . S
C929 C928 1.377 . S
C929 C930 1.379 . S
C930 H914 0.931 . S
C930 C924 1.383 . S
C930 C929 1.379 . S
H931 C925 0.959 . S
H932 C925 0.961 . S
H933 C925 0.960 . S
H934 C926 0.930 . S
H935 C927 0.929 . S
H936 C944 0.929 . S
H937 C946 0.930 . S
H938 C948 0.930 . S
H939 C951 0.929 . S
H940 C954 0.930 . S
H941 C956 0.960 . S
H942 C956 0.960 . S
H943 C956 0.960 . S
C944 H936 0.929 . S
C944 C945 1.377 . S
C944 C946 1.384 . S
C945 C944 1.377 . S
C945 C951 1.390 . S
C946 H937 0.930 . S
C946 C944 1.384 . S
C946 C947 1.372 . S
C947 C946 1.372 . S
C947 C948 1.400 . S
C947 C952 1.490 . S
C948 H938 0.930 . S
C948 C947 1.400 . S
C948 C951 1.386 . S
H949 C965 0.930 . S
H950 C966 0.931 . S
C951 H939 0.929 . S
C951 C945 1.390 . S
C951 C948 1.386 . S
C952 C947 1.490 . S
C952 C954 1.395 . S
C952 C955 1.403 . S
H953 C959 0.930 . S
C954 H940 0.930 . S
C954 C952 1.395 . S
C954 C957 1.403 . S
C955 C952 1.403 . S
C955 C956 1.524 . S
C955 C959 1.400 . S
C956 H941 0.960 . S
C956 H942 0.960 . S
C956 H943 0.960 . S
C956 C955 1.524 . S
C957 C954 1.403 . S
C957 C958 1.392 . S
C957 C961 1.495 . S
C958 C957 1.392 . S
C958 C959 1.385 . S
C958 C960 1.478 . S
C959 H953 0.930 . S
C959 C955 1.400 . S
C959 C958 1.385 . S
C960 C958 1.478 . S
C960 C962 1.381 . S
C960 C966 1.383 . S
C961 C957 1.495 . S
C961 H967 0.959 . S
C961 H968 0.961 . S
C961 H969 0.960 . S
C962 C960 1.381 . S
C962 C963 1.394 . S
C962 H970 0.930 . S
C963 C962 1.394 . S
C963 C964 1.383 . S
C963 H971 0.929 . S
C964 C963 1.383 . S
C964 C965 1.377 . S
C965 H949 0.930 . S
C965 C964 1.377 . S
C965 C966 1.379 . S
C966 H950 0.931 . S
C966 C960 1.383 . S
C966 C965 1.379 . S
H967 C961 0.959 . S
H968 C961 0.961 . S
H969 C961 0.960 . S
H970 C962 0.930 . S
H971 C963 0.929 . S
H972 C980 0.929 . S
H973 C982 0.930 . S
H974 C984 0.930 . S
H975 C987 0.929 . S
H976 C990 0.930 . S
H977 C992 0.960 . S
H978 C992 0.960 . S
H979 C992 0.960 . S
C980 H972 0.929 . S
C980 C981 1.377 . S
C980 C982 1.384 . S
C981 C980 1.377 . S
C981 C987 1.390 . S
C982 H973 0.930 . S
C982 C980 1.384 . S
C982 C983 1.372 . S
C983 C982 1.372 . S
C983 C984 1.400 . S
C983 C988 1.490 . S
C984 H974 0.930 . S
C984 C983 1.400 . S
C984 C987 1.386 . S
H985 C1001 0.930 . S
H986 C1002 0.931 . S
C987 H975 0.929 . S
C987 C981 1.390 . S
C987 C984 1.386 . S
C988 C983 1.490 . S
C988 C990 1.395 . S
C988 C991 1.403 . S
H989 C995 0.930 . S
C990 H976 0.930 . S
C990 C988 1.395 . S
C990 C993 1.403 . S
C991 C988 1.403 . S
C991 C992 1.524 . S
C991 C995 1.400 . S
C992 H977 0.960 . S
C992 H978 0.960 . S
C992 H979 0.960 . S
C992 C991 1.524 . S
C993 C990 1.403 . S
C993 C994 1.392 . S
C993 C997 1.495 . S
C994 C993 1.392 . S
C994 C995 1.385 . S
C994 C996 1.478 . S
C995 H989 0.930 . S
C995 C991 1.400 . S
C995 C994 1.385 . S
C996 C994 1.478 . S
C996 C998 1.381 . S
C996 C1002 1.383 . S
C997 C993 1.495 . S
C997 H1003 0.959 . S
C997 H1004 0.961 . S
C997 H1005 0.960 . S
C998 C996 1.381 . S
C998 C999 1.394 . S
C998 H1006 0.930 . S
C999 C998 1.394 . S
C999 C1000 1.383 . S
C999 H1007 0.929 . S
C1000 C999 1.383 . S
C1000 C1001 1.377 . S
C1001 H985 0.930 . S
C1001 C1000 1.377 . S
C1001 C1002 1.379 . S
C1002 H986 0.931 . S
C1002 C996 1.383 . S
C1002 C1001 1.379 . S
H1003 C997 0.959 . S
H1004 C997 0.961 . S
H1005 C997 0.960 . S
H1006 C998 0.930 . S
H1007 C999 0.929 . S
H1008 C1016 0.929 . S
H1009 C1018 0.930 . S
H1010 C1020 0.930 . S
H1011 C1023 0.929 . S
H1012 C1026 0.930 . S
H1013 C1028 0.960 . S
H1014 C1028 0.960 . S
H1015 C1028 0.960 . S
C1016 H1008 0.929 . S
C1016 C1017 1.377 . S
C1016 C1018 1.384 . S
C1017 C1016 1.377 . S
C1017 C1023 1.390 . S
C1018 H1009 0.930 . S
C1018 C1016 1.384 . S
C1018 C1019 1.372 . S
C1019 C1018 1.372 . S
C1019 C1020 1.400 . S
C1019 C1024 1.490 . S
C1020 H1010 0.930 . S
C1020 C1019 1.400 . S
C1020 C1023 1.386 . S
H1021 C1037 0.930 . S
H1022 C1038 0.931 . S
C1023 H1011 0.929 . S
C1023 C1017 1.390 . S
C1023 C1020 1.386 . S
C1024 C1019 1.490 . S
C1024 C1026 1.395 . S
C1024 C1027 1.403 . S
H1025 C1031 0.930 . S
C1026 H1012 0.930 . S
C1026 C1024 1.395 . S
C1026 C1029 1.403 . S
C1027 C1024 1.403 . S
C1027 C1028 1.524 . S
C1027 C1031 1.400 . S
C1028 H1013 0.960 . S
C1028 H1014 0.960 . S
C1028 H1015 0.960 . S
C1028 C1027 1.524 . S
C1029 C1026 1.403 . S
C1029 C1030 1.392 . S
C1029 C1033 1.495 . S
C1030 C1029 1.392 . S
C1030 C1031 1.385 . S
C1030 C1032 1.478 . S
C1031 H1025 0.930 . S
C1031 C1027 1.400 . S
C1031 C1030 1.385 . S
C1032 C1030 1.478 . S
C1032 C1034 1.381 . S
C1032 C1038 1.383 . S
C1033 C1029 1.495 . S
C1033 H1039 0.959 . S
C1033 H1040 0.961 . S
C1033 H1041 0.960 . S
C1034 C1032 1.381 . S
C1034 C1035 1.394 . S
C1034 H1042 0.930 . S
C1035 C1034 1.394 . S
C1035 C1036 1.383 . S
C1035 H1043 0.929 . S
C1036 C1035 1.383 . S
C1036 C1037 1.377 . S
C1037 H1021 0.930 . S
C1037 C1036 1.377 . S
C1037 C1038 1.379 . S
C1038 H1022 0.931 . S
C1038 C1032 1.383 . S
C1038 C1037 1.379 . S
H1039 C1033 0.959 . S
H1040 C1033 0.961 . S
H1041 C1033 0.960 . S
H1042 C1034 0.930 . S
H1043 C1035 0.929 . S
H1044 C1052 0.929 . S
H1045 C1054 0.930 . S
H1046 C1056 0.930 . S
H1047 C1059 0.929 . S
H1048 C1062 0.930 . S
H1049 C1064 0.960 . S
H1050 C1064 0.960 . S
H1051 C1064 0.960 . S
C1052 H1044 0.929 . S
C1052 C1053 1.377 . S
C1052 C1054 1.384 . S
C1053 C1052 1.377 . S
C1053 C1059 1.390 . S
C1054 H1045 0.930 . S
C1054 C1052 1.384 . S
C1054 C1055 1.372 . S
C1055 C1054 1.372 . S
C1055 C1056 1.400 . S
C1055 C1060 1.490 . S
C1056 H1046 0.930 . S
C1056 C1055 1.400 . S
C1056 C1059 1.386 . S
H1057 C1073 0.930 . S
H1058 C1074 0.931 . S
C1059 H1047 0.929 . S
C1059 C1053 1.390 . S
C1059 C1056 1.386 . S
C1060 C1055 1.490 . S
C1060 C1062 1.395 . S
C1060 C1063 1.403 . S
H1061 C1067 0.930 . S
C1062 H1048 0.930 . S
C1062 C1060 1.395 . S
C1062 C1065 1.403 . S
C1063 C1060 1.403 . S
C1063 C1064 1.524 . S
C1063 C1067 1.400 . S
C1064 H1049 0.960 . S
C1064 H1050 0.960 . S
C1064 H1051 0.960 . S
C1064 C1063 1.524 . S
C1065 C1062 1.403 . S
C1065 C1066 1.392 . S
C1065 C1069 1.495 . S
C1066 C1065 1.392 . S
C1066 C1067 1.385 . S
C1066 C1068 1.478 . S
C1067 H1061 0.930 . S
C1067 C1063 1.400 . S
C1067 C1066 1.385 . S
C1068 C1066 1.478 . S
C1068 C1070 1.381 . S
C1068 C1074 1.383 . S
C1069 C1065 1.495 . S
C1069 H1075 0.959 . S
C1069 H1076 0.961 . S
C1069 H1077 0.960 . S
C1070 C1068 1.381 . S
C1070 C1071 1.394 . S
C1070 H1078 0.930 . S
C1071 C1070 1.394 . S
C1071 C1072 1.383 . S
C1071 H1079 0.929 . S
C1072 C1071 1.383 . S
C1072 C1073 1.377 . S
C1073 H1057 0.930 . S
C1073 C1072 1.377 . S
C1073 C1074 1.379 . S
C1074 H1058 0.931 . S
C1074 C1068 1.383 . S
C1074 C1073 1.379 . S
H1075 C1069 0.959 . S
H1076 C1069 0.961 . S
H1077 C1069 0.960 . S
H1078 C1070 0.930 . S
H1079 C1071 0.929 . S
H1080 C1088 0.929 . S
H1081 C1090 0.930 . S
H1082 C1092 0.930 . S
H1083 C1095 0.929 . S
H1084 C1098 0.930 . S
H1085 C1100 0.960 . S
H1086 C1100 0.960 . S
H1087 C1100 0.960 . S
C1088 H1080 0.929 . S
C1088 C1089 1.377 . S
C1088 C1090 1.384 . S
C1089 C1088 1.377 . S
C1089 C1095 1.390 . S
C1090 H1081 0.930 . S
C1090 C1088 1.384 . S
C1090 C1091 1.372 . S
C1091 C1090 1.372 . S
C1091 C1092 1.400 . S
C1091 C1096 1.490 . S
C1092 H1082 0.930 . S
C1092 C1091 1.400 . S
C1092 C1095 1.386 . S
H1093 C1109 0.930 . S
H1094 C1110 0.931 . S
C1095 H1083 0.929 . S
C1095 C1089 1.390 . S
C1095 C1092 1.386 . S
C1096 C1091 1.490 . S
C1096 C1098 1.395 . S
C1096 C1099 1.403 . S
H1097 C1103 0.930 . S
C1098 H1084 0.930 . S
C1098 C1096 1.395 . S
C1098 C1101 1.403 . S
C1099 C1096 1.403 . S
C1099 C1100 1.524 . S
C1099 C1103 1.400 . S
C1100 H1085 0.960 . S
C1100 H1086 0.960 . S
C1100 H1087 0.960 . S
C1100 C1099 1.524 . S
C1101 C1098 1.403 . S
C1101 C1102 1.392 . S
C1101 C1105 1.495 . S
C1102 C1101 1.392 . S
C1102 C1103 1.385 . S
C1102 C1104 1.478 . S
C1103 H1097 0.930 . S
C1103 C1099 1.400 . S
C1103 C1102 1.385 . S
C1104 C1102 1.478 . S
C1104 C1106 1.381 . S
C1104 C1110 1.383 . S
C1105 C1101 1.495 . S
C1105 H1111 0.959 . S
C1105 H1112 0.961 . S
C1105 H1113 0.960 . S
C1106 C1104 1.381 . S
C1106 C1107 1.394 . S
C1106 H1114 0.930 . S
C1107 C1106 1.394 . S
C1107 C1108 1.383 . S
C1107 H1115 0.929 . S
C1108 C1107 1.383 . S
C1108 C1109 1.377 . S
C1109 H1093 0.930 . S
C1109 C1108 1.377 . S
C1109 C1110 1.379 . S
C1110 H1094 0.931 . S
C1110 C1104 1.383 . S
C1110 C1109 1.379 . S
H1111 C1105 0.959 . S
H1112 C1105 0.961 . S
H1113 C1105 0.960 . S
H1114 C1106 0.930 . S
H1115 C1107 0.929 . S
H1116 C1124 0.929 . S
H1117 C1126 0.930 . S
H1118 C1128 0.930 . S
H1119 C1131 0.929 . S
H1120 C1134 0.930 . S
H1121 C1136 0.960 . S
H1122 C1136 0.960 . S
H1123 C1136 0.960 . S
C1124 H1116 0.929 . S
C1124 C1125 1.377 . S
C1124 C1126 1.384 . S
C1125 C1124 1.377 . S
C1125 C1131 1.390 . S
C1126 H1117 0.930 . S
C1126 C1124 1.384 . S
C1126 C1127 1.372 . S
C1127 C1126 1.372 . S
C1127 C1128 1.400 . S
C1127 C1132 1.490 . S
C1128 H1118 0.930 . S
C1128 C1127 1.400 . S
C1128 C1131 1.386 . S
H1129 C1145 0.930 . S
H1130 C1146 0.931 . S
C1131 H1119 0.929 . S
C1131 C1125 1.390 . S
C1131 C1128 1.386 . S
C1132 C1127 1.490 . S
C1132 C1134 1.395 . S
C1132 C1135 1.403 . S
H1133 C1139 0.930 . S
C1134 H1120 0.930 . S
C1134 C1132 1.395 . S
C1134 C1137 1.403 . S
C1135 C1132 1.403 . S
C1135 C1136 1.524 . S
C1135 C1139 1.400 . S
C1136 H1121 0.960 . S
C1136 H1122 0.960 . S
C1136 H1123 0.960 . S
C1136 C1135 1.524 . S
C1137 C1134 1.403 . S
C1137 C1138 1.392 . S
C1137 C1141 1.495 . S
C1138 C1137 1.392 . S
C1138 C1139 1.385 . S
C1138 C1140 1.478 . S
C1139 H1133 0.930 . S
C1139 C1135 1.400 . S
C1139 C1138 1.385 . S
C1140 C1138 1.478 . S
C1140 C1142 1.381 . S
C1140 C1146 1.383 . S
C1141 C1137 1.495 . S
C1141 H1147 0.959 . S
C1141 H1148 0.961 . S
C1141 H1149 0.960 . S
C1142 C1140 1.381 . S
C1142 C1143 1.394 . S
C1142 H1150 0.930 . S
C1143 C1142 1.394 . S
C1143 C1144 1.383 . S
C1143 H1151 0.929 . S
C1144 C1143 1.383 . S
C1144 C1145 1.377 . S
C1145 H1129 0.930 . S
C1145 C1144 1.377 . S
C1145 C1146 1.379 . S
C1146 H1130 0.931 . S
C1146 C1140 1.383 . S
C1146 C1145 1.379 . S
H1147 C1141 0.959 . S
H1148 C1141 0.961 . S
H1149 C1141 0.960 . S
H1150 C1142 0.930 . S
H1151 C1143 0.929 . S
H1152 C1160 0.929 . S
H1153 C1162 0.930 . S
H1154 C1164 0.930 . S
H1155 C1167 0.929 . S
H1156 C1170 0.930 . S
H1157 C1172 0.960 . S
H1158 C1172 0.960 . S
H1159 C1172 0.960 . S
C1160 H1152 0.929 . S
C1160 C1161 1.377 . S
C1160 C1162 1.384 . S
C1161 C1160 1.377 . S
C1161 C1167 1.390 . S
C1162 H1153 0.930 . S
C1162 C1160 1.384 . S
C1162 C1163 1.372 . S
C1163 C1162 1.372 . S
C1163 C1164 1.400 . S
C1163 C1168 1.490 . S
C1164 H1154 0.930 . S
C1164 C1163 1.400 . S
C1164 C1167 1.386 . S
H1165 C1181 0.930 . S
H1166 C1182 0.931 . S
C1167 H1155 0.929 . S
C1167 C1161 1.390 . S
C1167 C1164 1.386 . S
C1168 C1163 1.490 . S
C1168 C1170 1.395 . S
C1168 C1171 1.403 . S
H1169 C1175 0.930 . S
C1170 H1156 0.930 . S
C1170 C1168 1.395 . S
C1170 C1173 1.403 . S
C1171 C1168 1.403 . S
C1171 C1172 1.524 . S
C1171 C1175 1.400 . S
C1172 H1157 0.960 . S
C1172 H1158 0.960 . S
C1172 H1159 0.960 . S
C1172 C1171 1.524 . S
C1173 C1170 1.403 . S
C1173 C1174 1.392 . S
C1173 C1177 1.495 . S
C1174 C1173 1.392 . S
C1174 C1175 1.385 . S
C1174 C1176 1.478 . S
C1175 H1169 0.930 . S
C1175 C1171 1.400 . S
C1175 C1174 1.385 . S
C1176 C1174 1.478 . S
C1176 C1178 1.381 . S
C1176 C1182 1.383 . S
C1177 C1173 1.495 . S
C1177 H1183 0.959 . S
C1177 H1184 0.961 . S
C1177 H1185 0.960 . S
C1178 C1176 1.381 . S
C1178 C1179 1.394 . S
C1178 H1186 0.930 . S
C1179 C1178 1.394 . S
C1179 C1180 1.383 . S
C1179 H1187 0.929 . S
C1180 C1179 1.383 . S
C1180 C1181 1.377 . S
C1181 H1165 0.930 . S
C1181 C1180 1.377 . S
C1181 C1182 1.379 . S
C1182 H1166 0.931 . S
C1182 C1176 1.383 . S
C1182 C1181 1.379 . S
H1183 C1177 0.959 . S
H1184 C1177 0.961 . S
H1185 C1177 0.960 . S
H1186 C1178 0.930 . S
H1187 C1179 0.929 . S
H1188 C1196 0.929 . S
H1189 C1198 0.930 . S
H1190 C1200 0.930 . S
H1191 C1203 0.929 . S
H1192 C1206 0.930 . S
H1193 C1208 0.960 . S
H1194 C1208 0.960 . S
H1195 C1208 0.960 . S
C1196 H1188 0.929 . S
C1196 C1197 1.377 . S
C1196 C1198 1.384 . S
C1197 C1196 1.377 . S
C1197 C1203 1.390 . S
C1198 H1189 0.930 . S
C1198 C1196 1.384 . S
C1198 C1199 1.372 . S
C1199 C1198 1.372 . S
C1199 C1200 1.400 . S
C1199 C1204 1.490 . S
C1200 H1190 0.930 . S
C1200 C1199 1.400 . S
C1200 C1203 1.386 . S
H1201 C1217 0.930 . S
H1202 C1218 0.931 . S
C1203 H1191 0.929 . S
C1203 C1197 1.390 . S
C1203 C1200 1.386 . S
C1204 C1199 1.490 . S
C1204 C1206 1.395 . S
C1204 C1207 1.403 . S
H1205 C1211 0.930 . S
C1206 H1192 0.930 . S
C1206 C1204 1.395 . S
C1206 C1209 1.403 . S
C1207 C1204 1.403 . S
C1207 C1208 1.524 . S
C1207 C1211 1.400 . S
C1208 H1193 0.960 . S
C1208 H1194 0.960 . S
C1208 H1195 0.960 . S
C1208 C1207 1.524 . S
C1209 C1206 1.403 . S
C1209 C1210 1.392 . S
C1209 C1213 1.495 . S
C1210 C1209 1.392 . S
C1210 C1211 1.385 . S
C1210 C1212 1.478 . S
C1211 H1205 0.930 . S
C1211 C1207 1.400 . S
C1211 C1210 1.385 . S
C1212 C1210 1.478 . S
C1212 C1214 1.381 . S
C1212 C1218 1.383 . S
C1213 C1209 1.495 . S
C1213 H1219 0.959 . S
C1213 H1220 0.961 . S
C1213 H1221 0.960 . S
C1214 C1212 1.381 . S
C1214 C1215 1.394 . S
C1214 H1222 0.930 . S
C1215 C1214 1.394 . S
C1215 C1216 1.383 . S
C1215 H1223 0.929 . S
C1216 C1215 1.383 . S
C1216 C1217 1.377 . S
C1217 H1201 0.930 . S
C1217 C1216 1.377 . S
C1217 C1218 1.379 . S
C1218 H1202 0.931 . S
C1218 C1212 1.383 . S
C1218 C1217 1.379 . S
H1219 C1213 0.959 . S
H1220 C1213 0.961 . S
H1221 C1213 0.960 . S
H1222 C1214 0.930 . S
H1223 C1215 0.929 . S
H1224 C1232 0.929 . S
H1225 C1234 0.930 . S
H1226 C1236 0.930 . S
H1227 C1239 0.929 . S
H1228 C1242 0.930 . S
H1229 C1244 0.960 . S
H1230 C1244 0.960 . S
H1231 C1244 0.960 . S
C1232 H1224 0.929 . S
C1232 C1233 1.377 . S
C1232 C1234 1.384 . S
C1233 C1232 1.377 . S
C1233 C1239 1.390 . S
C1234 H1225 0.930 . S
C1234 C1232 1.384 . S
C1234 C1235 1.372 . S
C1235 C1234 1.372 . S
C1235 C1236 1.400 . S
C1235 C1240 1.490 . S
C1236 H1226 0.930 . S
C1236 C1235 1.400 . S
C1236 C1239 1.386 . S
H1237 C1253 0.930 . S
H1238 C1254 0.931 . S
C1239 H1227 0.929 . S
C1239 C1233 1.390 . S
C1239 C1236 1.386 . S
C1240 C1235 1.490 . S
C1240 C1242 1.395 . S
C1240 C1243 1.403 . S
H1241 C1247 0.930 . S
C1242 H1228 0.930 . S
C1242 C1240 1.395 . S
C1242 C1245 1.403 . S
C1243 C1240 1.403 . S
C1243 C1244 1.524 . S
C1243 C1247 1.400 . S
C1244 H1229 0.960 . S
C1244 H1230 0.960 . S
C1244 H1231 0.960 . S
C1244 C1243 1.524 . S
C1245 C1242 1.403 . S
C1245 C1246 1.392 . S
C1245 C1249 1.495 . S
C1246 C1245 1.392 . S
C1246 C1247 1.385 . S
C1246 C1248 1.478 . S
C1247 H1241 0.930 . S
C1247 C1243 1.400 . S
C1247 C1246 1.385 . S
C1248 C1246 1.478 . S
C1248 C1250 1.381 . S
C1248 C1254 1.383 . S
C1249 C1245 1.495 . S
C1249 H1255 0.959 . S
C1249 H1256 0.961 . S
C1249 H1257 0.960 . S
C1250 C1248 1.381 . S
C1250 C1251 1.394 . S
C1250 H1258 0.930 . S
C1251 C1250 1.394 . S
C1251 C1252 1.383 . S
C1251 H1259 0.929 . S
C1252 C1251 1.383 . S
C1252 C1253 1.377 . S
C1253 H1237 0.930 . S
C1253 C1252 1.377 . S
C1253 C1254 1.379 . S
C1254 H1238 0.931 . S
C1254 C1248 1.383 . S
C1254 C1253 1.379 . S
H1255 C1249 0.959 . S
H1256 C1249 0.961 . S
H1257 C1249 0.960 . S
H1258 C1250 0.930 . S
H1259 C1251 0.929 . S
H1260 C1268 0.929 . S
H1261 C1270 0.930 . S
H1262 C1272 0.930 . S
H1263 C1275 0.929 . S
H1264 C1278 0.930 . S
H1265 C1280 0.960 . S
H1266 C1280 0.960 . S
H1267 C1280 0.960 . S
C1268 H1260 0.929 . S
C1268 C1269 1.377 . S
C1268 C1270 1.384 . S
C1269 C1268 1.377 . S
C1269 C1275 1.390 . S
C1270 H1261 0.930 . S
C1270 C1268 1.384 . S
C1270 C1271 1.372 . S
C1271 C1270 1.372 . S
C1271 C1272 1.400 . S
C1271 C1276 1.490 . S
C1272 H1262 0.930 . S
C1272 C1271 1.400 . S
C1272 C1275 1.386 . S
H1273 C1289 0.930 . S
H1274 C1290 0.931 . S
C1275 H1263 0.929 . S
C1275 C1269 1.390 . S
C1275 C1272 1.386 . S
C1276 C1271 1.490 . S
C1276 C1278 1.395 . S
C1276 C1279 1.403 . S
H1277 C1283 0.930 . S
C1278 H1264 0.930 . S
C1278 C1276 1.395 . S
C1278 C1281 1.403 . S
C1279 C1276 1.403 . S
C1279 C1280 1.524 . S
C1279 C1283 1.400 . S
C1280 H1265 0.960 . S
C1280 H1266 0.960 . S
C1280 H1267 0.960 . S
C1280 C1279 1.524 . S
C1281 C1278 1.403 . S
C1281 C1282 1.392 . S
C1281 C1285 1.495 . S
C1282 C1281 1.392 . S
C1282 C1283 1.385 . S
C1282 C1284 1.478 . S
C1283 H1277 0.930 . S
C1283 C1279 1.400 . S
C1283 C1282 1.385 . S
C1284 C1282 1.478 . S
C1284 C1286 1.381 . S
C1284 C1290 1.383 . S
C1285 C1281 1.495 . S
C1285 H1291 0.959 . S
C1285 H1292 0.961 . S
C1285 H1293 0.960 . S
C1286 C1284 1.381 . S
C1286 C1287 1.394 . S
C1286 H1294 0.930 . S
C1287 C1286 1.394 . S
C1287 C1288 1.383 . S
C1287 H1295 0.929 . S
C1288 C1287 1.383 . S
C1288 C1289 1.377 . S
C1289 H1273 0.930 . S
C1289 C1288 1.377 . S
C1289 C1290 1.379 . S
C1290 H1274 0.931 . S
C1290 C1284 1.383 . S
C1290 C1289 1.379 . S
H1291 C1285 0.959 . S
H1292 C1285 0.961 . S
H1293 C1285 0.960 . S
H1294 C1286 0.930 . S
H1295 C1287 0.929 . S
H1296 C1304 0.929 . S
H1297 C1306 0.930 . S
H1298 C1308 0.930 . S
H1299 C1311 0.929 . S
H1300 C1314 0.930 . S
H1301 C1316 0.960 . S
H1302 C1316 0.960 . S
H1303 C1316 0.960 . S
C1304 H1296 0.929 . S
C1304 C1305 1.377 . S
C1304 C1306 1.384 . S
C1305 C1304 1.377 . S
C1305 C1311 1.390 . S
C1306 H1297 0.930 . S
C1306 C1304 1.384 . S
C1306 C1307 1.372 . S
C1307 C1306 1.372 . S
C1307 C1308 1.400 . S
C1307 C1312 1.490 . S
C1308 H1298 0.930 . S
C1308 C1307 1.400 . S
C1308 C1311 1.386 . S
H1309 C1325 0.930 . S
H1310 C1326 0.931 . S
C1311 H1299 0.929 . S
C1311 C1305 1.390 . S
C1311 C1308 1.386 . S
C1312 C1307 1.490 . S
C1312 C1314 1.395 . S
C1312 C1315 1.403 . S
H1313 C1319 0.930 . S
C1314 H1300 0.930 . S
C1314 C1312 1.395 . S
C1314 C1317 1.403 . S
C1315 C1312 1.403 . S
C1315 C1316 1.524 . S
C1315 C1319 1.400 . S
C1316 H1301 0.960 . S
C1316 H1302 0.960 . S
C1316 H1303 0.960 . S
C1316 C1315 1.524 . S
C1317 C1314 1.403 . S
C1317 C1318 1.392 . S
C1317 C1321 1.495 . S
C1318 C1317 1.392 . S
C1318 C1319 1.385 . S
C1318 C1320 1.478 . S
C1319 H1313 0.930 . S
C1319 C1315 1.400 . S
C1319 C1318 1.385 . S
C1320 C1318 1.478 . S
C1320 C1322 1.381 . S
C1320 C1326 1.383 . S
C1321 C1317 1.495 . S
C1321 H1327 0.959 . S
C1321 H1328 0.961 . S
C1321 H1329 0.960 . S
C1322 C1320 1.381 . S
C1322 C1323 1.394 . S
C1322 H1330 0.930 . S
C1323 C1322 1.394 . S
C1323 C1324 1.383 . S
C1323 H1331 0.929 . S
C1324 C1323 1.383 . S
C1324 C1325 1.377 . S
C1325 H1309 0.930 . S
C1325 C1324 1.377 . S
C1325 C1326 1.379 . S
C1326 H1310 0.931 . S
C1326 C1320 1.383 . S
C1326 C1325 1.379 . S
H1327 C1321 0.959 . S
H1328 C1321 0.961 . S
H1329 C1321 0.960 . S
H1330 C1322 0.930 . S
H1331 C1323 0.929 . S
H1332 C1340 0.929 . S
H1333 C1342 0.930 . S
H1334 C1344 0.930 . S
H1335 C1347 0.929 . S
H1336 C1350 0.930 . S
H1337 C1352 0.960 . S
H1338 C1352 0.960 . S
H1339 C1352 0.960 . S
C1340 H1332 0.929 . S
C1340 C1341 1.377 . S
C1340 C1342 1.384 . S
C1341 C1340 1.377 . S
C1341 C1347 1.390 . S
C1342 H1333 0.930 . S
C1342 C1340 1.384 . S
C1342 C1343 1.372 . S
C1343 C1342 1.372 . S
C1343 C1344 1.400 . S
C1343 C1348 1.490 . S
C1344 H1334 0.930 . S
C1344 C1343 1.400 . S
C1344 C1347 1.386 . S
H1345 C1361 0.930 . S
H1346 C1362 0.931 . S
C1347 H1335 0.929 . S
C1347 C1341 1.390 . S
C1347 C1344 1.386 . S
C1348 C1343 1.490 . S
C1348 C1350 1.395 . S
C1348 C1351 1.403 . S
H1349 C1355 0.930 . S
C1350 H1336 0.930 . S
C1350 C1348 1.395 . S
C1350 C1353 1.403 . S
C1351 C1348 1.403 . S
C1351 C1352 1.524 . S
C1351 C1355 1.400 . S
C1352 H1337 0.960 . S
C1352 H1338 0.960 . S
C1352 H1339 0.960 . S
C1352 C1351 1.524 . S
C1353 C1350 1.403 . S
C1353 C1354 1.392 . S
C1353 C1357 1.495 . S
C1354 C1353 1.392 . S
C1354 C1355 1.385 . S
C1354 C1356 1.478 . S
C1355 H1349 0.930 . S
C1355 C1351 1.400 . S
C1355 C1354 1.385 . S
C1356 C1354 1.478 . S
C1356 C1358 1.381 . S
C1356 C1362 1.383 . S
C1357 C1353 1.495 . S
C1357 H1363 0.959 . S
C1357 H1364 0.961 . S
C1357 H1365 0.960 . S
C1358 C1356 1.381 . S
C1358 C1359 1.394 . S
C1358 H1366 0.930 . S
C1359 C1358 1.394 . S
C1359 C1360 1.383 . S
C1359 H1367 0.929 . S
C1360 C1359 1.383 . S
C1360 C1361 1.377 . S
C1361 H1345 0.930 . S
C1361 C1360 1.377 . S
C1361 C1362 1.379 . S
C1362 H1346 0.931 . S
C1362 C1356 1.383 . S
C1362 C1361 1.379 . S
H1363 C1357 0.959 . S
H1364 C1357 0.961 . S
H1365 C1357 0.960 . S
H1366 C1358 0.930 . S
H1367 C1359 0.929 . S
H1368 C1376 0.929 . S
H1369 C1378 0.930 . S
H1370 C1380 0.930 . S
H1371 C1383 0.929 . S
H1372 C1386 0.930 . S
H1373 C1388 0.960 . S
H1374 C1388 0.960 . S
H1375 C1388 0.960 . S
C1376 H1368 0.929 . S
C1376 C1377 1.377 . S
C1376 C1378 1.384 . S
C1377 C1376 1.377 . S
C1377 C1383 1.390 . S
C1378 H1369 0.930 . S
C1378 C1376 1.384 . S
C1378 C1379 1.372 . S
C1379 C1378 1.372 . S
C1379 C1380 1.400 . S
C1379 C1384 1.490 . S
C1380 H1370 0.930 . S
C1380 C1379 1.400 . S
C1380 C1383 1.386 . S
H1381 C1397 0.930 . S
H1382 C1398 0.931 . S
C1383 H1371 0.929 . S
C1383 C1377 1.390 . S
C1383 C1380 1.386 . S
C1384 C1379 1.490 . S
C1384 C1386 1.395 . S
C1384 C1387 1.403 . S
H1385 C1391 0.930 . S
C1386 H1372 0.930 . S
C1386 C1384 1.395 . S
C1386 C1389 1.403 . S
C1387 C1384 1.403 . S
C1387 C1388 1.524 . S
C1387 C1391 1.400 . S
C1388 H1373 0.960 . S
C1388 H1374 0.960 . S
C1388 H1375 0.960 . S
C1388 C1387 1.524 . S
C1389 C1386 1.403 . S
C1389 C1390 1.392 . S
C1389 C1393 1.495 . S
C1390 C1389 1.392 . S
C1390 C1391 1.385 . S
C1390 C1392 1.478 . S
C1391 H1385 0.930 . S
C1391 C1387 1.400 . S
C1391 C1390 1.385 . S
C1392 C1390 1.478 . S
C1392 C1394 1.381 . S
C1392 C1398 1.383 . S
C1393 C1389 1.495 . S
C1393 H1399 0.959 . S
C1393 H1400 0.961 . S
C1393 H1401 0.960 . S
C1394 C1392 1.381 . S
C1394 C1395 1.394 . S
C1394 H1402 0.930 . S
C1395 C1394 1.394 . S
C1395 C1396 1.383 . S
C1395 H1403 0.929 . S
C1396 C1395 1.383 . S
C1396 C1397 1.377 . S
C1397 H1381 0.930 . S
C1397 C1396 1.377 . S
C1397 C1398 1.379 . S
C1398 H1382 0.931 . S
C1398 C1392 1.383 . S
C1398 C1397 1.379 . S
H1399 C1393 0.959 . S
H1400 C1393 0.961 . S
H1401 C1393 0.960 . S
H1402 C1394 0.930 . S
H1403 C1395 0.929 . S
H1404 C1412 0.929 . S
H1405 C1414 0.930 . S
H1406 C1416 0.930 . S
H1407 C1419 0.929 . S
H1408 C1422 0.930 . S
H1409 C1424 0.960 . S
H1410 C1424 0.960 . S
H1411 C1424 0.960 . S
C1412 H1404 0.929 . S
C1412 C1413 1.377 . S
C1412 C1414 1.384 . S
C1413 C1412 1.377 . S
C1413 C1419 1.390 . S
C1414 H1405 0.930 . S
C1414 C1412 1.384 . S
C1414 C1415 1.372 . S
C1415 C1414 1.372 . S
C1415 C1416 1.400 . S
C1415 C1420 1.490 . S
C1416 H1406 0.930 . S
C1416 C1415 1.400 . S
C1416 C1419 1.386 . S
H1417 C1433 0.930 . S
H1418 C1434 0.931 . S
C1419 H1407 0.929 . S
C1419 C1413 1.390 . S
C1419 C1416 1.386 . S
C1420 C1415 1.490 . S
C1420 C1422 1.395 . S
C1420 C1423 1.403 . S
H1421 C1427 0.930 . S
C1422 H1408 0.930 . S
C1422 C1420 1.395 . S
C1422 C1425 1.403 . S
C1423 C1420 1.403 . S
C1423 C1424 1.524 . S
C1423 C1427 1.400 . S
C1424 H1409 0.960 . S
C1424 H1410 0.960 . S
C1424 H1411 0.960 . S
C1424 C1423 1.524 . S
C1425 C1422 1.403 . S
C1425 C1426 1.392 . S
C1425 C1429 1.495 . S
C1426 C1425 1.392 . S
C1426 C1427 1.385 . S
C1426 C1428 1.478 . S
C1427 H1421 0.930 . S
C1427 C1423 1.400 . S
C1427 C1426 1.385 . S
C1428 C1426 1.478 . S
C1428 C1430 1.381 . S
C1428 C1434 1.383 . S
C1429 C1425 1.495 . S
C1429 H1435 0.959 . S
C1429 H1436 0.961 . S
C1429 H1437 0.960 . S
C1430 C1428 1.381 . S
C1430 C1431 1.394 . S
C1430 H1438 0.930 . S
C1431 C1430 1.394 . S
C1431 C1432 1.383 . S
C1431 H1439 0.929 . S
C1432 C1431 1.383 . S
C1432 C1433 1.377 . S
C1433 H1417 0.930 . S
C1433 C1432 1.377 . S
C1433 C1434 1.379 . S
C1434 H1418 0.931 . S
C1434 C1428 1.383 . S
C1434 C1433 1.379 . S
H1435 C1429 0.959 . S
H1436 C1429 0.961 . S
H1437 C1429 0.960 . S
H1438 C1430 0.930 . S
H1439 C1431 0.929 . S
H1440 C1448 0.929 . S
H1441 C1450 0.930 . S
H1442 C1452 0.930 . S
H1443 C1455 0.929 . S
H1444 C1458 0.930 . S
H1445 C1460 0.960 . S
H1446 C1460 0.960 . S
H1447 C1460 0.960 . S
C1448 H1440 0.929 . S
C1448 C1449 1.377 . S
C1448 C1450 1.384 . S
C1449 C1448 1.377 . S
C1449 C1455 1.390 . S
C1450 H1441 0.930 . S
C1450 C1448 1.384 . S
C1450 C1451 1.372 . S
C1451 C1450 1.372 . S
C1451 C1452 1.400 . S
C1451 C1456 1.490 . S
C1452 H1442 0.930 . S
C1452 C1451 1.400 . S
C1452 C1455 1.386 . S
H1453 C1469 0.930 . S
H1454 C1470 0.931 . S
C1455 H1443 0.929 . S
C1455 C1449 1.390 . S
C1455 C1452 1.386 . S
C1456 C1451 1.490 . S
C1456 C1458 1.395 . S
C1456 C1459 1.403 . S
H1457 C1463 0.930 . S
C1458 H1444 0.930 . S
C1458 C1456 1.395 . S
C1458 C1461 1.403 . S
C1459 C1456 1.403 . S
C1459 C1460 1.524 . S
C1459 C1463 1.400 . S
C1460 H1445 0.960 . S
C1460 H1446 0.960 . S
C1460 H1447 0.960 . S
C1460 C1459 1.524 . S
C1461 C1458 1.403 . S
C1461 C1462 1.392 . S
C1461 C1465 1.495 . S
C1462 C1461 1.392 . S
C1462 C1463 1.385 . S
C1462 C1464 1.478 . S
C1463 H1457 0.930 . S
C1463 C1459 1.400 . S
C1463 C1462 1.385 . S
C1464 C1462 1.478 . S
C1464 C1466 1.381 . S
C1464 C1470 1.383 . S
C1465 C1461 1.495 . S
C1465 H1471 0.959 . S
C1465 H1472 0.961 . S
C1465 H1473 0.960 . S
C1466 C1464 1.381 . S
C1466 C1467 1.394 . S
C1466 H1474 0.930 . S
C1467 C1466 1.394 . S
C1467 C1468 1.383 . S
C1467 H1475 0.929 . S
C1468 C1467 1.383 . S
C1468 C1469 1.377 . S
C1469 H1453 0.930 . S
C1469 C1468 1.377 . S
C1469 C1470 1.379 . S
C1470 H1454 0.931 . S
C1470 C1464 1.383 . S
C1470 C1469 1.379 . S
H1471 C1465 0.959 . S
H1472 C1465 0.961 . S
H1473 C1465 0.960 . S
H1474 C1466 0.930 . S
H1475 C1467 0.929 . S
H1476 C1484 0.929 . S
H1477 C1486 0.930 . S
H1478 C1488 0.930 . S
H1479 C1491 0.929 . S
H1480 C1494 0.930 . S
H1481 C1496 0.960 . S
H1482 C1496 0.960 . S
H1483 C1496 0.960 . S
C1484 H1476 0.929 . S
C1484 C1485 1.377 . S
C1484 C1486 1.384 . S
C1485 C1484 1.377 . S
C1485 C1491 1.390 . S
C1486 H1477 0.930 . S
C1486 C1484 1.384 . S
C1486 C1487 1.372 . S
C1487 C1486 1.372 . S
C1487 C1488 1.400 . S
C1487 C1492 1.490 . S
C1488 H1478 0.930 . S
C1488 C1487 1.400 . S
C1488 C1491 1.386 . S
H1489 C1505 0.930 . S
H1490 C1506 0.931 . S
C1491 H1479 0.929 . S
C1491 C1485 1.390 . S
C1491 C1488 1.386 . S
C1492 C1487 1.490 . S
C1492 C1494 1.395 . S
C1492 C1495 1.403 . S
H1493 C1499 0.930 . S
C1494 H1480 0.930 . S
C1494 C1492 1.395 . S
C1494 C1497 1.403 . S
C1495 C1492 1.403 . S
C1495 C1496 1.524 . S
C1495 C1499 1.400 . S
C1496 H1481 0.960 . S
C1496 H1482 0.960 . S
C1496 H1483 0.960 . S
C1496 C1495 1.524 . S
C1497 C1494 1.403 . S
C1497 C1498 1.392 . S
C1497 C1501 1.495 . S
C1498 C1497 1.392 . S
C1498 C1499 1.385 . S
C1498 C1500 1.478 . S
C1499 H1493 0.930 . S
C1499 C1495 1.400 . S
C1499 C1498 1.385 . S
C1500 C1498 1.478 . S
C1500 C1502 1.381 . S
C1500 C1506 1.383 . S
C1501 C1497 1.495 . S
C1501 H1507 0.959 . S
C1501 H1508 0.961 . S
C1501 H1509 0.960 . S
C1502 C1500 1.381 . S
C1502 C1503 1.394 . S
C1502 H1510 0.930 . S
C1503 C1502 1.394 . S
C1503 C1504 1.383 . S
C1503 H1511 0.929 . S
C1504 C1503 1.383 . S
C1504 C1505 1.377 . S
C1505 H1489 0.930 . S
C1505 C1504 1.377 . S
C1505 C1506 1.379 . S
C1506 H1490 0.931 . S
C1506 C1500 1.383 . S
C1506 C1505 1.379 . S
H1507 C1501 0.959 . S
H1508 C1501 0.961 . S
H1509 C1501 0.960 . S
H1510 C1502 0.930 . S
H1511 C1503 0.929 . S
H1512 C1520 0.929 . S
H1513 C1522 0.930 . S
H1514 C1524 0.930 . S
H1515 C1527 0.929 . S
H1516 C1530 0.930 . S
H1517 C1532 0.960 . S
H1518 C1532 0.960 . S
H1519 C1532 0.960 . S
C1520 H1512 0.929 . S
C1520 C1521 1.377 . S
C1520 C1522 1.384 . S
C1521 C1520 1.377 . S
C1521 C1527 1.390 . S
C1522 H1513 0.930 . S
C1522 C1520 1.384 . S
C1522 C1523 1.372 . S
C1523 C1522 1.372 . S
C1523 C1524 1.400 . S
C1523 C1528 1.490 . S
C1524 H1514 0.930 . S
C1524 C1523 1.400 . S
C1524 C1527 1.386 . S
H1525 C1541 0.930 . S
H1526 C1542 0.931 . S
C1527 H1515 0.929 . S
C1527 C1521 1.390 . S
C1527 C1524 1.386 . S
C1528 C1523 1.490 . S
C1528 C1530 1.395 . S
C1528 C1531 1.403 . S
H1529 C1535 0.930 . S
C1530 H1516 0.930 . S
C1530 C1528 1.395 . S
C1530 C1533 1.403 . S
C1531 C1528 1.403 . S
C1531 C1532 1.524 . S
C1531 C1535 1.400 . S
C1532 H1517 0.960 . S
C1532 H1518 0.960 . S
C1532 H1519 0.960 . S
C1532 C1531 1.524 . S
C1533 C1530 1.403 . S
C1533 C1534 1.392 . S
C1533 C1537 1.495 . S
C1534 C1533 1.392 . S
C1534 C1535 1.385 . S
C1534 C1536 1.478 . S
C1535 H1529 0.930 . S
C1535 C1531 1.400 . S
C1535 C1534 1.385 . S
C1536 C1534 1.478 . S
C1536 C1538 1.381 . S
C1536 C1542 1.383 . S
C1537 C1533 1.495 . S
C1537 H1543 0.959 . S
C1537 H1544 0.961 . S
C1537 H1545 0.960 . S
C1538 C1536 1.381 . S
C1538 C1539 1.394 . S
C1538 H1546 0.930 . S
C1539 C1538 1.394 . S
C1539 C1540 1.383 . S
C1539 H1547 0.929 . S
C1540 C1539 1.383 . S
C1540 C1541 1.377 . S
C1541 H1525 0.930 . S
C1541 C1540 1.377 . S
C1541 C1542 1.379 . S
C1542 H1526 0.931 . S
C1542 C1536 1.383 . S
C1542 C1541 1.379 . S
H1543 C1537 0.959 . S
H1544 C1537 0.961 . S
H1545 C1537 0.960 . S
H1546 C1538 0.930 . S
H1547 C1539 0.929 . S
H1548 C1556 0.929 . S
H1549 C1558 0.930 . S
H1550 C1560 0.930 . S
H1551 C1563 0.929 . S
H1552 C1566 0.930 . S
H1553 C1568 0.960 . S
H1554 C1568 0.960 . S
H1555 C1568 0.960 . S
C1556 H1548 0.929 . S
C1556 C1557 1.377 . S
C1556 C1558 1.384 . S
C1557 C1556 1.377 . S
C1557 C1563 1.390 . S
C1558 H1549 0.930 . S
C1558 C1556 1.384 . S
C1558 C1559 1.372 . S
C1559 C1558 1.372 . S
C1559 C1560 1.400 . S
C1559 C1564 1.490 . S
C1560 H1550 0.930 . S
C1560 C1559 1.400 . S
C1560 C1563 1.386 . S
H1561 C1577 0.930 . S
H1562 C1578 0.931 . S
C1563 H1551 0.929 . S
C1563 C1557 1.390 . S
C1563 C1560 1.386 . S
C1564 C1559 1.490 . S
C1564 C1566 1.395 . S
C1564 C1567 1.403 . S
H1565 C1571 0.930 . S
C1566 H1552 0.930 . S
C1566 C1564 1.395 . S
C1566 C1569 1.403 . S
C1567 C1564 1.403 . S
C1567 C1568 1.524 . S
C1567 C1571 1.400 . S
C1568 H1553 0.960 . S
C1568 H1554 0.960 . S
C1568 H1555 0.960 . S
C1568 C1567 1.524 . S
C1569 C1566 1.403 . S
C1569 C1570 1.392 . S
C1569 C1573 1.495 . S
C1570 C1569 1.392 . S
C1570 C1571 1.385 . S
C1570 C1572 1.478 . S
C1571 H1565 0.930 . S
C1571 C1567 1.400 . S
C1571 C1570 1.385 . S
C1572 C1570 1.478 . S
C1572 C1574 1.381 . S
C1572 C1578 1.383 . S
C1573 C1569 1.495 . S
C1573 H1579 0.959 . S
C1573 H1580 0.961 . S
C1573 H1581 0.960 . S
C1574 C1572 1.381 . S
C1574 C1575 1.394 . S
C1574 H1582 0.930 . S
C1575 C1574 1.394 . S
C1575 C1576 1.383 . S
C1575 H1583 0.929 . S
C1576 C1575 1.383 . S
C1576 C1577 1.377 . S
C1577 H1561 0.930 . S
C1577 C1576 1.377 . S
C1577 C1578 1.379 . S
C1578 H1562 0.931 . S
C1578 C1572 1.383 . S
C1578 C1577 1.379 . S
H1579 C1573 0.959 . S
H1580 C1573 0.961 . S
H1581 C1573 0.960 . S
H1582 C1574 0.930 . S
H1583 C1575 0.929 . S
H1584 C1592 0.929 . S
H1585 C1594 0.930 . S
H1586 C1596 0.930 . S
H1587 C1599 0.929 . S
H1588 C1602 0.930 . S
H1589 C1604 0.960 . S
H1590 C1604 0.960 . S
H1591 C1604 0.960 . S
C1592 H1584 0.929 . S
C1592 C1593 1.377 . S
C1592 C1594 1.384 . S
C1593 C1592 1.377 . S
C1593 C1599 1.390 . S
C1594 H1585 0.930 . S
C1594 C1592 1.384 . S
C1594 C1595 1.372 . S
C1595 C1594 1.372 . S
C1595 C1596 1.400 . S
C1595 C1600 1.490 . S
C1596 H1586 0.930 . S
C1596 C1595 1.400 . S
C1596 C1599 1.386 . S
H1597 C1613 0.930 . S
H1598 C1614 0.931 . S
C1599 H1587 0.929 . S
C1599 C1593 1.390 . S
C1599 C1596 1.386 . S
C1600 C1595 1.490 . S
C1600 C1602 1.395 . S
C1600 C1603 1.403 . S
H1601 C1607 0.930 . S
C1602 H1588 0.930 . S
C1602 C1600 1.395 . S
C1602 C1605 1.403 . S
C1603 C1600 1.403 . S
C1603 C1604 1.524 . S
C1603 C1607 1.400 . S
C1604 H1589 0.960 . S
C1604 H1590 0.960 . S
C1604 H1591 0.960 . S
C1604 C1603 1.524 . S
C1605 C1602 1.403 . S
C1605 C1606 1.392 . S
C1605 C1609 1.495 . S
C1606 C1605 1.392 . S
C1606 C1607 1.385 . S
C1606 C1608 1.478 . S
C1607 H1601 0.930 . S
C1607 C1603 1.400 . S
C1607 C1606 1.385 . S
C1608 C1606 1.478 . S
C1608 C1610 1.381 . S
C1608 C1614 1.383 . S
C1609 C1605 1.495 . S
C1609 H1615 0.959 . S
C1609 H1616 0.961 . S
C1609 H1617 0.960 . S
C1610 C1608 1.381 . S
C1610 C1611 1.394 . S
C1610 H1618 0.930 . S
C1611 C1610 1.394 . S
C1611 C1612 1.383 . S
C1611 H1619 0.929 . S
C1612 C1611 1.383 . S
C1612 C1613 1.377 . S
C1613 H1597 0.930 . S
C1613 C1612 1.377 . S
C1613 C1614 1.379 . S
C1614 H1598 0.931 . S
C1614 C1608 1.383 . S
C1614 C1613 1.379 . S
H1615 C1609 0.959 . S
H1616 C1609 0.961 . S
H1617 C1609 0.960 . S
H1618 C1610 0.930 . S
H1619 C1611 0.929 . S
H1620 C1628 0.929 . S
H1621 C1630 0.930 . S
H1622 C1632 0.930 . S
H1623 C1635 0.929 . S
H1624 C1638 0.930 . S
H1625 C1640 0.960 . S
H1626 C1640 0.960 . S
H1627 C1640 0.960 . S
C1628 H1620 0.929 . S
C1628 C1629 1.377 . S
C1628 C1630 1.384 . S
C1629 C1628 1.377 . S
C1629 C1635 1.390 . S
C1630 H1621 0.930 . S
C1630 C1628 1.384 . S
C1630 C1631 1.372 . S
C1631 C1630 1.372 . S
C1631 C1632 1.400 . S
C1631 C1636 1.490 . S
C1632 H1622 0.930 . S
C1632 C1631 1.400 . S
C1632 C1635 1.386 . S
H1633 C1649 0.930 . S
H1634 C1650 0.931 . S
C1635 H1623 0.929 . S
C1635 C1629 1.390 . S
C1635 C1632 1.386 . S
C1636 C1631 1.490 . S
C1636 C1638 1.395 . S
C1636 C1639 1.403 . S
H1637 C1643 0.930 . S
C1638 H1624 0.930 . S
C1638 C1636 1.395 . S
C1638 C1641 1.403 . S
C1639 C1636 1.403 . S
C1639 C1640 1.524 . S
C1639 C1643 1.400 . S
C1640 H1625 0.960 . S
C1640 H1626 0.960 . S
C1640 H1627 0.960 . S
C1640 C1639 1.524 . S
C1641 C1638 1.403 . S
C1641 C1642 1.392 . S
C1641 C1645 1.495 . S
C1642 C1641 1.392 . S
C1642 C1643 1.385 . S
C1642 C1644 1.478 . S
C1643 H1637 0.930 . S
C1643 C1639 1.400 . S
C1643 C1642 1.385 . S
C1644 C1642 1.478 . S
C1644 C1646 1.381 . S
C1644 C1650 1.383 . S
C1645 C1641 1.495 . S
C1645 H1651 0.959 . S
C1645 H1652 0.961 . S
C1645 H1653 0.960 . S
C1646 C1644 1.381 . S
C1646 C1647 1.394 . S
C1646 H1654 0.930 . S
C1647 C1646 1.394 . S
C1647 C1648 1.383 . S
C1647 H1655 0.929 . S
C1648 C1647 1.383 . S
C1648 C1649 1.377 . S
C1649 H1633 0.930 . S
C1649 C1648 1.377 . S
C1649 C1650 1.379 . S
C1650 H1634 0.931 . S
C1650 C1644 1.383 . S
C1650 C1649 1.379 . S
H1651 C1645 0.959 . S
H1652 C1645 0.961 . S
H1653 C1645 0.960 . S
H1654 C1646 0.930 . S
H1655 C1647 0.929 . S
H1656 C1664 0.929 . S
H1657 C1666 0.930 . S
H1658 C1668 0.930 . S
H1659 C1671 0.929 . S
H1660 C1674 0.930 . S
H1661 C1676 0.960 . S
H1662 C1676 0.960 . S
H1663 C1676 0.960 . S
C1664 H1656 0.929 . S
C1664 C1665 1.377 . S
C1664 C1666 1.384 . S
C1665 C1664 1.377 . S
C1665 C1671 1.390 . S
C1666 H1657 0.930 . S
C1666 C1664 1.384 . S
C1666 C1667 1.372 . S
C1667 C1666 1.372 . S
C1667 C1668 1.400 . S
C1667 C1672 1.490 . S
C1668 H1658 0.930 . S
C1668 C1667 1.400 . S
C1668 C1671 1.386 . S
H1669 C1685 0.930 . S
H1670 C1686 0.931 . S
C1671 H1659 0.929 . S
C1671 C1665 1.390 . S
C1671 C1668 1.386 . S
C1672 C1667 1.490 . S
C1672 C1674 1.395 . S
C1672 C1675 1.403 . S
H1673 C1679 0.930 . S
C1674 H1660 0.930 . S
C1674 C1672 1.395 . S
C1674 C1677 1.403 . S
C1675 C1672 1.403 . S
C1675 C1676 1.524 . S
C1675 C1679 1.400 . S
C1676 H1661 0.960 . S
C1676 H1662 0.960 . S
C1676 H1663 0.960 . S
C1676 C1675 1.524 . S
C1677 C1674 1.403 . S
C1677 C1678 1.392 . S
C1677 C1681 1.495 . S
C1678 C1677 1.392 . S
C1678 C1679 1.385 . S
C1678 C1680 1.478 . S
C1679 H1673 0.930 . S
C1679 C1675 1.400 . S
C1679 C1678 1.385 . S
C1680 C1678 1.478 . S
C1680 C1682 1.381 . S
C1680 C1686 1.383 . S
C1681 C1677 1.495 . S
C1681 H1687 0.959 . S
C1681 H1688 0.961 . S
C1681 H1689 0.960 . S
C1682 C1680 1.381 . S
C1682 C1683 1.394 . S
C1682 H1690 0.930 . S
C1683 C1682 1.394 . S
C1683 C1684 1.383 . S
C1683 H1691 0.929 . S
C1684 C1683 1.383 . S
C1684 C1685 1.377 . S
C1685 H1669 0.930 . S
C1685 C1684 1.377 . S
C1685 C1686 1.379 . S
C1686 H1670 0.931 . S
C1686 C1680 1.383 . S
C1686 C1685 1.379 . S
H1687 C1681 0.959 . S
H1688 C1681 0.961 . S
H1689 C1681 0.960 . S
H1690 C1682 0.930 . S
H1691 C1683 0.929 . S
H1692 C1700 0.929 . S
H1693 C1702 0.930 . S
H1694 C1704 0.930 . S
H1695 C1707 0.929 . S
H1696 C1710 0.930 . S
H1697 C1712 0.960 . S
H1698 C1712 0.960 . S
H1699 C1712 0.960 . S
C1700 H1692 0.929 . S
C1700 C1701 1.377 . S
C1700 C1702 1.384 . S
C1701 C1700 1.377 . S
C1701 C1707 1.390 . S
C1702 H1693 0.930 . S
C1702 C1700 1.384 . S
C1702 C1703 1.372 . S
C1703 C1702 1.372 . S
C1703 C1704 1.400 . S
C1703 C1708 1.490 . S
C1704 H1694 0.930 . S
C1704 C1703 1.400 . S
C1704 C1707 1.386 . S
H1705 C1721 0.930 . S
H1706 C1722 0.931 . S
C1707 H1695 0.929 . S
C1707 C1701 1.390 . S
C1707 C1704 1.386 . S
C1708 C1703 1.490 . S
C1708 C1710 1.395 . S
C1708 C1711 1.403 . S
H1709 C1715 0.930 . S
C1710 H1696 0.930 . S
C1710 C1708 1.395 . S
C1710 C1713 1.403 . S
C1711 C1708 1.403 . S
C1711 C1712 1.524 . S
C1711 C1715 1.400 . S
C1712 H1697 0.960 . S
C1712 H1698 0.960 . S
C1712 H1699 0.960 . S
C1712 C1711 1.524 . S
C1713 C1710 1.403 . S
C1713 C1714 1.392 . S
C1713 C1717 1.495 . S
C1714 C1713 1.392 . S
C1714 C1715 1.385 . S
C1714 C1716 1.478 . S
C1715 H1709 0.930 . S
C1715 C1711 1.400 . S
C1715 C1714 1.385 . S
C1716 C1714 1.478 . S
C1716 C1718 1.381 . S
C1716 C1722 1.383 . S
C1717 C1713 1.495 . S
C1717 H1723 0.959 . S
C1717 H1724 0.961 . S
C1717 H1725 0.960 . S
C1718 C1716 1.381 . S
C1718 C1719 1.394 . S
C1718 H1726 0.930 . S
C1719 C1718 1.394 . S
C1719 C1720 1.383 . S
C1719 H1727 0.929 . S
C1720 C1719 1.383 . S
C1720 C1721 1.377 . S
C1721 H1705 0.930 . S
C1721 C1720 1.377 . S
C1721 C1722 1.379 . S
C1722 H1706 0.931 . S
C1722 C1716 1.383 . S
C1722 C1721 1.379 . S
H1723 C1717 0.959 . S
H1724 C1717 0.961 . S
H1725 C1717 0.960 . S
H1726 C1718 0.930 . S
H1727 C1719 0.929 . S
H1728 C1736 0.929 . S
H1729 C1738 0.930 . S
H1730 C1740 0.930 . S
H1731 C1743 0.929 . S
H1732 C1746 0.930 . S
H1733 C1748 0.960 . S
H1734 C1748 0.960 . S
H1735 C1748 0.960 . S
C1736 H1728 0.929 . S
C1736 C1737 1.377 . S
C1736 C1738 1.384 . S
C1737 C1736 1.377 . S
C1737 C1743 1.390 . S
C1738 H1729 0.930 . S
C1738 C1736 1.384 . S
C1738 C1739 1.372 . S
C1739 C1738 1.372 . S
C1739 C1740 1.400 . S
C1739 C1744 1.490 . S
C1740 H1730 0.930 . S
C1740 C1739 1.400 . S
C1740 C1743 1.386 . S
H1741 C1757 0.930 . S
H1742 C1758 0.931 . S
C1743 H1731 0.929 . S
C1743 C1737 1.390 . S
C1743 C1740 1.386 . S
C1744 C1739 1.490 . S
C1744 C1746 1.395 . S
C1744 C1747 1.403 . S
H1745 C1751 0.930 . S
C1746 H1732 0.930 . S
C1746 C1744 1.395 . S
C1746 C1749 1.403 . S
C1747 C1744 1.403 . S
C1747 C1748 1.524 . S
C1747 C1751 1.400 . S
C1748 H1733 0.960 . S
C1748 H1734 0.960 . S
C1748 H1735 0.960 . S
C1748 C1747 1.524 . S
C1749 C1746 1.403 . S
C1749 C1750 1.392 . S
C1749 C1753 1.495 . S
C1750 C1749 1.392 . S
C1750 C1751 1.385 . S
C1750 C1752 1.478 . S
C1751 H1745 0.930 . S
C1751 C1747 1.400 . S
C1751 C1750 1.385 . S
C1752 C1750 1.478 . S
C1752 C1754 1.381 . S
C1752 C1758 1.383 . S
C1753 C1749 1.495 . S
C1753 H1759 0.959 . S
C1753 H1760 0.961 . S
C1753 H1761 0.960 . S
C1754 C1752 1.381 . S
C1754 C1755 1.394 . S
C1754 H1762 0.930 . S
C1755 C1754 1.394 . S
C1755 C1756 1.383 . S
C1755 H1763 0.929 . S
C1756 C1755 1.383 . S
C1756 C1757 1.377 . S
C1757 H1741 0.930 . S
C1757 C1756 1.377 . S
C1757 C1758 1.379 . S
C1758 H1742 0.931 . S
C1758 C1752 1.383 . S
C1758 C1757 1.379 . S
H1759 C1753 0.959 . S
H1760 C1753 0.961 . S
H1761 C1753 0.960 . S
H1762 C1754 0.930 . S
H1763 C1755 0.929 . S
H1764 C1772 0.929 . S
H1765 C1774 0.930 . S
H1766 C1776 0.930 . S
H1767 C1779 0.929 . S
H1768 C1782 0.930 . S
H1769 C1784 0.960 . S
H1770 C1784 0.960 . S
H1771 C1784 0.960 . S
C1772 H1764 0.929 . S
C1772 C1773 1.377 . S
C1772 C1774 1.384 . S
C1773 C1772 1.377 . S
C1773 C1779 1.390 . S
C1774 H1765 0.930 . S
C1774 C1772 1.384 . S
C1774 C1775 1.372 . S
C1775 C1774 1.372 . S
C1775 C1776 1.400 . S
C1775 C1780 1.490 . S
C1776 H1766 0.930 . S
C1776 C1775 1.400 . S
C1776 C1779 1.386 . S
H1777 C1793 0.930 . S
H1778 C1794 0.931 . S
C1779 H1767 0.929 . S
C1779 C1773 1.390 . S
C1779 C1776 1.386 . S
C1780 C1775 1.490 . S
C1780 C1782 1.395 . S
C1780 C1783 1.403 . S
H1781 C1787 0.930 . S
C1782 H1768 0.930 . S
C1782 C1780 1.395 . S
C1782 C1785 1.403 . S
C1783 C1780 1.403 . S
C1783 C1784 1.524 . S
C1783 C1787 1.400 . S
C1784 H1769 0.960 . S
C1784 H1770 0.960 . S
C1784 H1771 0.960 . S
C1784 C1783 1.524 . S
C1785 C1782 1.403 . S
C1785 C1786 1.392 . S
C1785 C1789 1.495 . S
C1786 C1785 1.392 . S
C1786 C1787 1.385 . S
C1786 C1788 1.478 . S
C1787 H1781 0.930 . S
C1787 C1783 1.400 . S
C1787 C1786 1.385 . S
C1788 C1786 1.478 . S
C1788 C1790 1.381 . S
C1788 C1794 1.383 . S
C1789 C1785 1.495 . S
C1789 H1795 0.959 . S
C1789 H1796 0.961 . S
C1789 H1797 0.960 . S
C1790 C1788 1.381 . S
C1790 C1791 1.394 . S
C1790 H1798 0.930 . S
C1791 C1790 1.394 . S
C1791 C1792 1.383 . S
C1791 H1799 0.929 . S
C1792 C1791 1.383 . S
C1792 C1793 1.377 . S
C1793 H1777 0.930 . S
C1793 C1792 1.377 . S
C1793 C1794 1.379 . S
C1794 H1778 0.931 . S
C1794 C1788 1.383 . S
C1794 C1793 1.379 . S
H1795 C1789 0.959 . S
H1796 C1789 0.961 . S
H1797 C1789 0.960 . S
H1798 C1790 0.930 . S
H1799 C1791 0.929 . S
H1800 C1808 0.929 . S
H1801 C1810 0.930 . S
H1802 C1812 0.930 . S
H1803 C1815 0.929 . S
H1804 C1818 0.930 . S
H1805 C1820 0.960 . S
H1806 C1820 0.960 . S
H1807 C1820 0.960 . S
C1808 H1800 0.929 . S
C1808 C1809 1.377 . S
C1808 C1810 1.384 . S
C1809 C1808 1.377 . S
C1809 C1815 1.390 . S
C1810 H1801 0.930 . S
C1810 C1808 1.384 . S
C1810 C1811 1.372 . S
C1811 C1810 1.372 . S
C1811 C1812 1.400 . S
C1811 C1816 1.490 . S
C1812 H1802 0.930 . S
C1812 C1811 1.400 . S
C1812 C1815 1.386 . S
H1813 C1829 0.930 . S
H1814 C1830 0.931 . S
C1815 H1803 0.929 . S
C1815 C1809 1.390 . S
C1815 C1812 1.386 . S
C1816 C1811 1.490 . S
C1816 C1818 1.395 . S
C1816 C1819 1.403 . S
H1817 C1823 0.930 . S
C1818 H1804 0.930 . S
C1818 C1816 1.395 . S
C1818 C1821 1.403 . S
C1819 C1816 1.403 . S
C1819 C1820 1.524 . S
C1819 C1823 1.400 . S
C1820 H1805 0.960 . S
C1820 H1806 0.960 . S
C1820 H1807 0.960 . S
C1820 C1819 1.524 . S
C1821 C1818 1.403 . S
C1821 C1822 1.392 . S
C1821 C1825 1.495 . S
C1822 C1821 1.392 . S
C1822 C1823 1.385 . S
C1822 C1824 1.478 . S
C1823 H1817 0.930 . S
C1823 C1819 1.400 . S
C1823 C1822 1.385 . S
C1824 C1822 1.478 . S
C1824 C1826 1.381 . S
C1824 C1830 1.383 . S
C1825 C1821 1.495 . S
C1825 H1831 0.959 . S
C1825 H1832 0.961 . S
C1825 H1833 0.960 . S
C1826 C1824 1.381 . S
C1826 C1827 1.394 . S
C1826 H1834 0.930 . S
C1827 C1826 1.394 . S
C1827 C1828 1.383 . S
C1827 H1835 0.929 . S
C1828 C1827 1.383 . S
C1828 C1829 1.377 . S
C1829 H1813 0.930 . S
C1829 C1828 1.377 . S
C1829 C1830 1.379 . S
C1830 H1814 0.931 . S
C1830 C1824 1.383 . S
C1830 C1829 1.379 . S
H1831 C1825 0.959 . S
H1832 C1825 0.961 . S
H1833 C1825 0.960 . S
H1834 C1826 0.930 . S
H1835 C1827 0.929 . S
H1836 C1844 0.929 . S
H1837 C1846 0.930 . S
H1838 C1848 0.930 . S
H1839 C1851 0.929 . S
H1840 C1854 0.930 . S
H1841 C1856 0.960 . S
H1842 C1856 0.960 . S
H1843 C1856 0.960 . S
C1844 H1836 0.929 . S
C1844 C1845 1.377 . S
C1844 C1846 1.384 . S
C1845 C1844 1.377 . S
C1845 C1851 1.390 . S
C1846 H1837 0.930 . S
C1846 C1844 1.384 . S
C1846 C1847 1.372 . S
C1847 C1846 1.372 . S
C1847 C1848 1.400 . S
C1847 C1852 1.490 . S
C1848 H1838 0.930 . S
C1848 C1847 1.400 . S
C1848 C1851 1.386 . S
H1849 C1865 0.930 . S
H1850 C1866 0.931 . S
C1851 H1839 0.929 . S
C1851 C1845 1.390 . S
C1851 C1848 1.386 . S
C1852 C1847 1.490 . S
C1852 C1854 1.395 . S
C1852 C1855 1.403 . S
H1853 C1859 0.930 . S
C1854 H1840 0.930 . S
C1854 C1852 1.395 . S
C1854 C1857 1.403 . S
C1855 C1852 1.403 . S
C1855 C1856 1.524 . S
C1855 C1859 1.400 . S
C1856 H1841 0.960 . S
C1856 H1842 0.960 . S
C1856 H1843 0.960 . S
C1856 C1855 1.524 . S
C1857 C1854 1.403 . S
C1857 C1858 1.392 . S
C1857 C1861 1.495 . S
C1858 C1857 1.392 . S
C1858 C1859 1.385 . S
C1858 C1860 1.478 . S
C1859 H1853 0.930 . S
C1859 C1855 1.400 . S
C1859 C1858 1.385 . S
C1860 C1858 1.478 . S
C1860 C1862 1.381 . S
C1860 C1866 1.383 . S
C1861 C1857 1.495 . S
C1861 H1867 0.959 . S
C1861 H1868 0.961 . S
C1861 H1869 0.960 . S
C1862 C1860 1.381 . S
C1862 C1863 1.394 . S
C1862 H1870 0.930 . S
C1863 C1862 1.394 . S
C1863 C1864 1.383 . S
C1863 H1871 0.929 . S
C1864 C1863 1.383 . S
C1864 C1865 1.377 . S
C1865 H1849 0.930 . S
C1865 C1864 1.377 . S
C1865 C1866 1.379 . S
C1866 H1850 0.931 . S
C1866 C1860 1.383 . S
C1866 C1865 1.379 . S
H1867 C1861 0.959 . S
H1868 C1861 0.961 . S
H1869 C1861 0.960 . S
H1870 C1862 0.930 . S
H1871 C1863 0.929 . S
H1872 C1880 0.929 . S
H1873 C1882 0.930 . S
H1874 C1884 0.930 . S
H1875 C1887 0.929 . S
H1876 C1890 0.930 . S
H1877 C1892 0.960 . S
H1878 C1892 0.960 . S
H1879 C1892 0.960 . S
C1880 H1872 0.929 . S
C1880 C1881 1.377 . S
C1880 C1882 1.384 . S
C1881 C1880 1.377 . S
C1881 C1887 1.390 . S
C1882 H1873 0.930 . S
C1882 C1880 1.384 . S
C1882 C1883 1.372 . S
C1883 C1882 1.372 . S
C1883 C1884 1.400 . S
C1883 C1888 1.490 . S
C1884 H1874 0.930 . S
C1884 C1883 1.400 . S
C1884 C1887 1.386 . S
H1885 C1901 0.930 . S
H1886 C1902 0.931 . S
C1887 H1875 0.929 . S
C1887 C1881 1.390 . S
C1887 C1884 1.386 . S
C1888 C1883 1.490 . S
C1888 C1890 1.395 . S
C1888 C1891 1.403 . S
H1889 C1895 0.930 . S
C1890 H1876 0.930 . S
C1890 C1888 1.395 . S
C1890 C1893 1.403 . S
C1891 C1888 1.403 . S
C1891 C1892 1.524 . S
C1891 C1895 1.400 . S
C1892 H1877 0.960 . S
C1892 H1878 0.960 . S
C1892 H1879 0.960 . S
C1892 C1891 1.524 . S
C1893 C1890 1.403 . S
C1893 C1894 1.392 . S
C1893 C1897 1.495 . S
C1894 C1893 1.392 . S
C1894 C1895 1.385 . S
C1894 C1896 1.478 . S
C1895 H1889 0.930 . S
C1895 C1891 1.400 . S
C1895 C1894 1.385 . S
C1896 C1894 1.478 . S
C1896 C1898 1.381 . S
C1896 C1902 1.383 . S
C1897 C1893 1.495 . S
C1897 H1903 0.959 . S
C1897 H1904 0.961 . S
C1897 H1905 0.960 . S
C1898 C1896 1.381 . S
C1898 C1899 1.394 . S
C1898 H1906 0.930 . S
C1899 C1898 1.394 . S
C1899 C1900 1.383 . S
C1899 H1907 0.929 . S
C1900 C1899 1.383 . S
C1900 C1901 1.377 . S
C1901 H1885 0.930 . S
C1901 C1900 1.377 . S
C1901 C1902 1.379 . S
C1902 H1886 0.931 . S
C1902 C1896 1.383 . S
C1902 C1901 1.379 . S
H1903 C1897 0.959 . S
H1904 C1897 0.961 . S
H1905 C1897 0.960 . S
H1906 C1898 0.930 . S
H1907 C1899 0.929 . S
H1908 C1916 0.929 . S
H1909 C1918 0.930 . S
H1910 C1920 0.930 . S
H1911 C1923 0.929 . S
H1912 C1926 0.930 . S
H1913 C1928 0.960 . S
H1914 C1928 0.960 . S
H1915 C1928 0.960 . S
C1916 H1908 0.929 . S
C1916 C1917 1.377 . S
C1916 C1918 1.384 . S
C1917 C1916 1.377 . S
C1917 C1923 1.390 . S
C1918 H1909 0.930 . S
C1918 C1916 1.384 . S
C1918 C1919 1.372 . S
C1919 C1918 1.372 . S
C1919 C1920 1.400 . S
C1919 C1924 1.490 . S
C1920 H1910 0.930 . S
C1920 C1919 1.400 . S
C1920 C1923 1.386 . S
H1921 C1937 0.930 . S
H1922 C1938 0.931 . S
C1923 H1911 0.929 . S
C1923 C1917 1.390 . S
C1923 C1920 1.386 . S
C1924 C1919 1.490 . S
C1924 C1926 1.395 . S
C1924 C1927 1.403 . S
H1925 C1931 0.930 . S
C1926 H1912 0.930 . S
C1926 C1924 1.395 . S
C1926 C1929 1.403 . S
C1927 C1924 1.403 . S
C1927 C1928 1.524 . S
C1927 C1931 1.400 . S
C1928 H1913 0.960 . S
C1928 H1914 0.960 . S
C1928 H1915 0.960 . S
C1928 C1927 1.524 . S
C1929 C1926 1.403 . S
C1929 C1930 1.392 . S
C1929 C1933 1.495 . S
C1930 C1929 1.392 . S
C1930 C1931 1.385 . S
C1930 C1932 1.478 . S
C1931 H1925 0.930 . S
C1931 C1927 1.400 . S
C1931 C1930 1.385 . S
C1932 C1930 1.478 . S
C1932 C1934 1.381 . S
C1932 C1938 1.383 . S
C1933 C1929 1.495 . S
C1933 H1939 0.959 . S
C1933 H1940 0.961 . S
C1933 H1941 0.960 . S
C1934 C1932 1.381 . S
C1934 C1935 1.394 . S
C1934 H1942 0.930 . S
C1935 C1934 1.394 . S
C1935 C1936 1.383 . S
C1935 H1943 0.929 . S
C1936 C1935 1.383 . S
C1936 C1937 1.377 . S
C1937 H1921 0.930 . S
C1937 C1936 1.377 . S
C1937 C1938 1.379 . S
C1938 H1922 0.931 . S
C1938 C1932 1.383 . S
C1938 C1937 1.379 . S
H1939 C1933 0.959 . S
H1940 C1933 0.961 . S
H1941 C1933 0.960 . S
H1942 C1934 0.930 . S
H1943 C1935 0.929 . S
C820 C397 1.466 . S
C801 C15 1.465 . S
C856 C450 1.297 . S
C837 C68 1.301 . S
C892 C513 1.531 . S
C873 C107 1.539 . S
C928 C556 1.239 . S
C909 C160 1.242 . S
C945 C185 1.537 . S
C964 C512 1.530 . S
C1000 C549 1.311 . S
C981 C252 1.313 . S
C1036 C390 1.463 . S
C1017 C277 1.465 . S
C1072 C443 1.227 . S
C1053 C330 1.231 . S
C1108 C496 1.471 . S
C1089 C323 1.470 . S
C1144 C565 1.790 . S
C1125 C192 1.794 . S
C1180 C406 1.554 . S
C1161 C245 1.555 . S
C1216 C459 1.727 . S
C1197 C284 1.730 . S
C1252 C407 1.538 . S
C1233 C61 1.541 . S
C1288 C460 1.794 . S
C1269 C114 1.802 . S
C1324 C503 1.481 . S
C1305 C153 1.483 . S
C1360 C566 1.717 . S
C1341 C22 1.717 . S
C1396 C609 1.428 . S
C1377 C337 1.436 . S
C1413 C206 1.672 . S
C1432 C662 1.665 . S
C1449 C231 1.577 . S
C1468 C724 1.573 . S
C1485 C298 1.676 . S
C1504 C778 1.677 . S
C1521 C47 1.504 . S
C1540 C725 1.498 . S
C1557 C100 1.753 . S
C1576 C777 1.746 . S
C1593 C139 1.499 . S
C1612 C602 1.496 . S
C1648 C655 1.603 . S
C1629 C8 1.603 . S
C1684 C715 1.447 . S
C1665 C1 1.447 . S
C1701 C54 1.355 . S
C1720 C761 1.350 . S
C1737 C93 1.583 . S
C1756 C618 1.579 . S
C1773 C146 1.318 . S
C1792 C671 1.311 . S
C1828 C619 1.514 . S
C1809 C199 1.518 . S
C1864 C672 1.397 . S
C1845 C238 1.398 . S
C1881 C291 1.508 . S
C1900 C708 1.505 . S
C1936 C768 1.284 . S
C1917 C344 1.282 . S
