# Generated by pormake.
# Topology zzz, (3,6)-cn, num edge types: 1
# Building blocks:
#     Node 0, Type 0, BuildingBlock: BELTOD_clean_linker_0, # of connection points: 3
#     Node 1, Type 0, BuildingBlock: BELTOD_clean_linker_0, # of connection points: 3
#     Node 2, Type 0, BuildingBlock: BELTOD_clean_linker_0, # of connection points: 3
#     Node 3, Type 0, BuildingBlock: BELTOD_clean_linker_0, # of connection points: 3
#     Node 4, Type 0, BuildingBlock: BELTOD_clean_linker_0, # of connection points: 3
#     Node 5, Type 0, BuildingBlock: BELTOD_clean_linker_0, # of connection points: 3
#     Node 6, Type 0, BuildingBlock: BELTOD_clean_linker_0, # of connection points: 3
#     Node 7, Type 0, BuildingBlock: BELTOD_clean_linker_0, # of connection points: 3
#     Node 8, Type 1, BuildingBlock: JUFBIX_clean_sbu_0, # of connection points: 6
#     Node 9, Type 1, BuildingBlock: JUFBIX_clean_sbu_0, # of connection points: 6
#     Node 10, Type 1, BuildingBlock: JUFBIX_clean_sbu_0, # of connection points: 6
#     Node 11, Type 1, BuildingBlock: JUFBIX_clean_sbu_0, # of connection points: 6
#     Edge 12, Type (0, 1), BuildingBlock: EZIPEK_clean_linker_0, # of connection points: 2
#     Edge 13, Type (0, 1), BuildingBlock: EZIPEK_clean_linker_0, # of connection points: 2
#     Edge 14, Type (0, 1), BuildingBlock: EZIPEK_clean_linker_0, # of connection points: 2
#     Edge 15, Type (0, 1), BuildingBlock: EZIPEK_clean_linker_0, # of connection points: 2
#     Edge 16, Type (0, 1), BuildingBlock: EZIPEK_clean_linker_0, # of connection points: 2
#     Edge 17, Type (0, 1), BuildingBlock: EZIPEK_clean_linker_0, # of connection points: 2
#     Edge 18, Type (0, 1), BuildingBlock: EZIPEK_clean_linker_0, # of connection points: 2
#     Edge 19, Type (0, 1), BuildingBlock: EZIPEK_clean_linker_0, # of connection points: 2
#     Edge 20, Type (0, 1), BuildingBlock: EZIPEK_clean_linker_0, # of connection points: 2
#     Edge 21, Type (0, 1), BuildingBlock: EZIPEK_clean_linker_0, # of connection points: 2
#     Edge 22, Type (0, 1), BuildingBlock: EZIPEK_clean_linker_0, # of connection points: 2
#     Edge 23, Type (0, 1), BuildingBlock: EZIPEK_clean_linker_0, # of connection points: 2
#     Edge 24, Type (0, 1), BuildingBlock: EZIPEK_clean_linker_0, # of connection points: 2
#     Edge 25, Type (0, 1), BuildingBlock: EZIPEK_clean_linker_0, # of connection points: 2
#     Edge 26, Type (0, 1), BuildingBlock: EZIPEK_clean_linker_0, # of connection points: 2
#     Edge 27, Type (0, 1), BuildingBlock: EZIPEK_clean_linker_0, # of connection points: 2
#     Edge 28, Type (0, 1), BuildingBlock: EZIPEK_clean_linker_0, # of connection points: 2
#     Edge 29, Type (0, 1), BuildingBlock: EZIPEK_clean_linker_0, # of connection points: 2
#     Edge 30, Type (0, 1), BuildingBlock: EZIPEK_clean_linker_0, # of connection points: 2
#     Edge 31, Type (0, 1), BuildingBlock: EZIPEK_clean_linker_0, # of connection points: 2
#     Edge 32, Type (0, 1), BuildingBlock: EZIPEK_clean_linker_0, # of connection points: 2
#     Edge 33, Type (0, 1), BuildingBlock: EZIPEK_clean_linker_0, # of connection points: 2
#     Edge 34, Type (0, 1), BuildingBlock: EZIPEK_clean_linker_0, # of connection points: 2
#     Edge 35, Type (0, 1), BuildingBlock: EZIPEK_clean_linker_0, # of connection points: 2
# Relax obj value: 0.253
# Max RMSD: 0.217
# Mean RMSD: 0.174
data_MOF--net-zzz--node1-JUFBIX_clean_sbu_0--node2-BELTOD_clean_linker_0--edge1-EZIPEK_clean_linker_0
_symmetry_space_group_name_H-M    P1
_symmetry_Int_Tables_number       1
_symmetry_cell_setting            triclinic
loop_
_symmetry_equiv_pos_as_xyz
'x, y, z'
_cell_length_a     41.85562
_cell_length_b     43.213047
_cell_length_c     16.432746
_cell_angle_alpha  80.311399
_cell_angle_beta   90.280127
_cell_angle_gamma 85.839491
loop_
_atom_site_label
_atom_site_type_symbol
_atom_site_fract_x
_atom_site_fract_y
_atom_site_fract_z
_atom_type_partial_charge
P0 P 0.76886 0.50488 0.36101 0.0
H1 H 0.80199 0.48039 0.5149 0.0
H2 H 0.84083 0.50315 0.59313 0.0
H3 H 0.81499 0.59501 0.45177 0.0
H4 H 0.77497 0.57223 0.37388 0.0
H5 H 0.75463 0.56469 0.24519 0.0
H6 H 0.71263 0.57951 0.13815 0.0
H7 H 0.66507 0.49632 0.23573 0.0
H8 H 0.70575 0.48235 0.34442 0.0
H9 H 0.79153 0.45281 0.27722 0.0
H10 H 0.81304 0.54906 0.27737 0.0
O11 O 0.76132 0.46879 0.40764 0.0
H12 H 0.83242 0.44849 0.17189 0.0
H13 H 0.85362 0.54454 0.17333 0.0
C14 C 0.78555 0.52451 0.43802 0.0
C15 C 0.80333 0.50567 0.50289 0.0
C16 C 0.82572 0.51862 0.54746 0.0
C17 C 0.83096 0.5506 0.52744 0.0
C18 C 0.81113 0.57023 0.46804 0.0
C19 C 0.78831 0.55719 0.4237 0.0
C20 C 0.73346 0.52238 0.30331 0.0
C21 C 0.73443 0.55041 0.24617 0.0
C22 C 0.71064 0.55873 0.18443 0.0
C23 C 0.68625 0.53854 0.17782 0.0
C24 C 0.68391 0.51201 0.23907 0.0
C25 C 0.7072 0.5041 0.30146 0.0
C26 C 0.79966 0.50103 0.28665 0.0
C27 C 0.80521 0.47282 0.25564 0.0
C28 C 0.82842 0.47033 0.19568 0.0
C29 C 0.84604 0.49615 0.16592 0.0
C30 C 0.84036 0.52435 0.19644 0.0
C31 C 0.81724 0.52681 0.25612 0.0
P32 P 0.06198 0.75241 0.34082 0.0
H33 H 0.06303 0.81873 0.3468 0.0
H34 H 0.0372 0.85357 0.43114 0.0
H35 H 0.98899 0.77641 0.56503 0.0
H36 H 0.01466 0.74075 0.47695 0.0
H37 H 0.09299 0.69846 0.28587 0.0
H38 H 0.07294 0.66062 0.2078 0.0
H39 H 0.97584 0.69167 0.2578 0.0
H40 H 0.99616 0.7311 0.33321 0.0
H41 H 0.11475 0.78645 0.25913 0.0
H42 H 0.01554 0.77441 0.20847 0.0
O43 O 0.09831 0.74283 0.38387 0.0
H44 H 0.1135 0.83131 0.14506 0.0
H45 H 0.01452 0.81876 0.09475 0.0
C46 C 0.03992 0.77719 0.40295 0.0
C47 C 0.04623 0.80907 0.39216 0.0
C48 C 0.03163 0.82912 0.44094 0.0
C49 C 0.01087 0.81773 0.5035 0.0
C50 C 0.00459 0.78571 0.51596 0.0
C51 C 0.01917 0.76544 0.46583 0.0
C52 C 0.04613 0.71736 0.31644 0.0
C53 C 0.06738 0.69645 0.283 0.0
C54 C 0.05593 0.67493 0.2378 0.0
C55 C 0.0229 0.67364 0.22574 0.0
C56 C 0.00145 0.69245 0.26596 0.0
C57 C 0.01302 0.71469 0.30977 0.0
C58 C 0.06525 0.77705 0.242 0.0
C59 C 0.09321 0.79246 0.22134 0.0
C60 C 0.09255 0.818 0.15637 0.0
C61 C 0.06391 0.82813 0.11196 0.0
C62 C 0.03686 0.81098 0.12807 0.0
C63 C 0.0375 0.78563 0.19291 0.0
P64 P 0.75718 0.03669 0.22059 0.0
H65 H 0.72102 0.06478 0.34065 0.0
H66 H 0.68379 0.04239 0.44301 0.0
H67 H 0.72178 0.94881 0.41999 0.0
H68 H 0.75841 0.97159 0.31276 0.0
H69 H 0.77478 0.03087 0.05354 0.0
H70 H 0.82502 0.01626 0.99217 0.0
H71 H 0.86949 0.99205 0.23388 0.0
H72 H 0.81816 0.00627 0.29698 0.0
H73 H 0.70643 0.08262 0.14219 0.0
H74 H 0.73465 0.98382 0.15488 0.0
O75 O 0.76323 0.07448 0.21997 0.0
H76 H 0.65962 0.07702 0.0564 0.0
H77 H 0.68813 0.97838 0.06847 0.0
C78 C 0.74281 0.0199 0.31978 0.0
C79 C 0.72244 0.03947 0.35969 0.0
C80 C 0.70087 0.02664 0.41772 0.0
C81 C 0.69945 0.99392 0.43775 0.0
C82 C 0.72221 0.97415 0.40449 0.0
C83 C 0.74338 0.98712 0.34427 0.0
C84 C 0.7924 0.01878 0.18027 0.0
C85 C 0.79474 0.02119 0.09429 0.0
C86 C 0.82351 0.01302 0.05886 0.0
C87 C 0.8507 0.0029 0.10855 0.0
C88 C 0.84844 0.99941 0.1949 0.0
C89 C 0.8193 0.00749 0.23071 0.0
C90 C 0.72417 0.03374 0.15328 0.0
C91 C 0.70281 0.05991 0.12557 0.0
C92 C 0.6762 0.05674 0.07692 0.0
C93 C 0.67079 0.02735 0.0561 0.0
C94 C 0.69221 0.00123 0.08371 0.0
C95 C 0.71862 0.00437 0.13271 0.0
P96 P 0.44857 0.74336 0.20762 0.0
H97 H 0.42672 0.72717 0.377 0.0
H98 H 0.44597 0.68463 0.48739 0.0
H99 H 0.53251 0.67009 0.35351 0.0
H100 H 0.51341 0.71319 0.24274 0.0
H101 H 0.44027 0.77363 0.03735 0.0
H102 H 0.45493 0.82397 0.96102 0.0
H103 H 0.5034 0.84258 0.17781 0.0
H104 H 0.48902 0.7914 0.25477 0.0
H105 H 0.40797 0.69183 0.19978 0.0
H106 H 0.49323 0.72701 0.08255 0.0
O107 O 0.41042 0.75299 0.22758 0.0
H108 H 0.41303 0.64692 0.12529 0.0
H109 H 0.49792 0.68249 0.00754 0.0
C110 C 0.46864 0.72353 0.30143 0.0
C111 C 0.45046 0.71592 0.37259 0.0
C112 C 0.46131 0.69141 0.43548 0.0
C113 C 0.49041 0.674 0.42793 0.0
C114 C 0.50994 0.68327 0.36024 0.0
C115 C 0.49915 0.70804 0.29748 0.0
C116 C 0.46432 0.77834 0.15115 0.0
C117 C 0.45484 0.78802 0.06817 0.0
C118 C 0.46304 0.81682 0.02457 0.0
C119 C 0.48042 0.83686 0.06351 0.0
C120 C 0.49027 0.82721 0.14649 0.0
C121 C 0.48215 0.79808 0.19024 0.0
C122 C 0.44954 0.7133 0.14424 0.0
C123 C 0.42727 0.6903 0.15664 0.0
C124 C 0.43027 0.66464 0.11495 0.0
C125 C 0.45573 0.66172 0.061 0.0
C126 C 0.47802 0.68465 0.04864 0.0
C127 C 0.47512 0.71014 0.0907 0.0
P128 P 0.20393 0.43299 0.36126 0.0
H129 H 0.17866 0.38907 0.2642 0.0
H130 H 0.13775 0.39753 0.15433 0.0
H131 H 0.1434 0.49783 0.13069 0.0
H132 H 0.18389 0.4895 0.24178 0.0
H133 H 0.26716 0.40215 0.41123 0.0
H134 H 0.31308 0.42279 0.47028 0.0
H135 H 0.2722 0.5175 0.38916 0.0
H136 H 0.22673 0.49693 0.32697 0.0
H137 H 0.13475 0.43243 0.37973 0.0
H138 H 0.2121 0.47343 0.48878 0.0
O139 O 0.207 0.39458 0.39981 0.0
H140 H 0.09632 0.45943 0.46098 0.0
H141 H 0.17358 0.50245 0.5632 0.0
C142 C 0.18477 0.43866 0.26079 0.0
C143 C 0.17216 0.41288 0.23342 0.0
C144 C 0.14863 0.41764 0.17098 0.0
C145 C 0.13752 0.44827 0.1348 0.0
C146 C 0.15184 0.474 0.1577 0.0
C147 C 0.17525 0.46922 0.2205 0.0
C148 C 0.24302 0.44795 0.36621 0.0
C149 C 0.26864 0.4274 0.40235 0.0
C150 C 0.29491 0.43916 0.4364 0.0
C151 C 0.29557 0.47161 0.43608 0.0
C152 C 0.27202 0.49236 0.3906 0.0
C153 C 0.24613 0.48055 0.35444 0.0
C154 C 0.17634 0.45173 0.42525 0.0
C155 C 0.14351 0.44755 0.41981 0.0
C156 C 0.12156 0.46306 0.46573 0.0
C157 C 0.13213 0.48327 0.51705 0.0
C158 C 0.16496 0.48726 0.52304 0.0
C159 C 0.18696 0.47087 0.47947 0.0
P160 P 0.04422 0.24761 0.3333 0.0
H161 H 0.08144 0.25202 0.18163 0.0
H162 H 0.08249 0.2156 0.08233 0.0
H163 H 0.99044 0.18588 0.16671 0.0
H164 H 0.98846 0.22361 0.26192 0.0
H165 H 0.08049 0.28872 0.4148 0.0
H166 H 0.06373 0.33257 0.48415 0.0
H167 H 0.96829 0.33475 0.38273 0.0
H168 H 0.98526 0.29052 0.31148 0.0
H169 H 0.05384 0.17997 0.36107 0.0
H170 H 0.9934 0.24946 0.46032 0.0
O171 O 0.08369 0.23996 0.34833 0.0
H172 H 0.03101 0.1382 0.45718 0.0
H173 H 0.97068 0.20743 0.55662 0.0
C174 C 0.03545 0.23961 0.23155 0.0
C175 C 0.06056 0.23915 0.17532 0.0
C176 C 0.06134 0.21807 0.11913 0.0
C177 C 0.03724 0.197 0.12003 0.0
C178 C 0.00968 0.20136 0.16641 0.0
C179 C 0.0085 0.22313 0.22059 0.0
C180 C 0.03413 0.28631 0.35755 0.0
C181 C 0.05625 0.29923 0.40432 0.0
C182 C 0.04672 0.32428 0.44435 0.0
C183 C 0.01482 0.33672 0.43888 0.0
C184 C 0.99311 0.3255 0.38714 0.0
C185 C 0.0028 0.30044 0.34623 0.0
C186 C 0.02585 0.21788 0.40429 0.0
C187 C 0.03548 0.18625 0.40287 0.0
C188 C 0.02207 0.16242 0.45655 0.0
C189 C 0.99886 0.16982 0.51285 0.0
C190 C 0.98809 0.20136 0.51225 0.0
C191 C 0.00152 0.22534 0.45804 0.0
P192 P 0.24501 0.09104 0.3684 0.0
H193 H 0.24872 0.12669 0.20074 0.0
H194 H 0.28814 0.11887 0.09502 0.0
H195 H 0.31316 0.02465 0.22319 0.0
H196 H 0.27349 0.03213 0.32774 0.0
H197 H 0.19621 0.11493 0.46988 0.0
H198 H 0.15477 0.08939 0.55512 0.0
H199 H 0.17614 0.00418 0.45569 0.0
H200 H 0.21749 0.03003 0.36845 0.0
H201 H 0.3103 0.10882 0.37006 0.0
H202 H 0.25302 0.0425 0.51958 0.0
O203 O 0.24004 0.13022 0.3573 0.0
H204 H 0.35763 0.08706 0.45501 0.0
H205 H 0.30022 0.0211 0.60395 0.0
C206 C 0.25848 0.08013 0.27277 0.0
C207 C 0.26139 0.10376 0.20386 0.0
C208 C 0.284 0.0994 0.14368 0.0
C209 C 0.30405 0.07152 0.15291 0.0
C210 C 0.29806 0.04643 0.21563 0.0
C211 C 0.27516 0.05064 0.27494 0.0
C212 C 0.20943 0.07461 0.41148 0.0
C213 C 0.19141 0.09108 0.46424 0.0
C214 C 0.16814 0.07642 0.51379 0.0
C215 C 0.1629 0.04491 0.51219 0.0
C216 C 0.1802 0.0285 0.45784 0.0
C217 C 0.20338 0.04337 0.4074 0.0
C218 C 0.27802 0.07772 0.43897 0.0
C219 C 0.30781 0.08989 0.42144 0.0
C220 C 0.3348 0.07723 0.46892 0.0
C221 C 0.33228 0.05221 0.53449 0.0
C222 C 0.30253 0.04009 0.5526 0.0
C223 C 0.27554 0.05267 0.50483 0.0
P224 P 0.45361 0.29823 0.40132 0.0
H225 H 0.41385 0.31655 0.25152 0.0
H226 H 0.42147 0.3569 0.13115 0.0
H227 H 0.52071 0.35786 0.20117 0.0
H228 H 0.51337 0.31695 0.32091 0.0
H229 H 0.4257 0.2531 0.52525 0.0
H230 H 0.44376 0.20071 0.59754 0.0
H231 H 0.53065 0.20362 0.45765 0.0
H232 H 0.51212 0.25652 0.38296 0.0
H233 H 0.42818 0.35892 0.4338 0.0
H234 H 0.5153 0.29892 0.48814 0.0
O235 O 0.4138 0.30137 0.40974 0.0
H236 H 0.45064 0.39861 0.50269 0.0
H237 H 0.53794 0.33905 0.55646 0.0
C238 C 0.46296 0.31386 0.29608 0.0
C239 C 0.43764 0.32432 0.23945 0.0
C240 C 0.44183 0.34766 0.1711 0.0
C241 C 0.47139 0.36093 0.15875 0.0
C242 C 0.49759 0.34818 0.2104 0.0
C243 C 0.49346 0.32455 0.27823 0.0
C244 C 0.46714 0.25843 0.44693 0.0
C245 C 0.44844 0.24246 0.50869 0.0
C246 C 0.45884 0.21265 0.55075 0.0
C247 C 0.48848 0.19834 0.53303 0.0
C248 C 0.50766 0.21437 0.4721 0.0
C249 C 0.497 0.24432 0.42909 0.0
C250 C 0.46954 0.32549 0.45901 0.0
C251 C 0.45197 0.35414 0.46131 0.0
C252 C 0.46496 0.37698 0.4991 0.0
C253 C 0.49592 0.37168 0.53386 0.0
C254 C 0.51409 0.34349 0.52921 0.0
C255 C 0.50091 0.32046 0.49177 0.0
Co256 Co 0.0265 0.01379 0.87373 0.0
C257 C 0.96381 0.99927 0.91161 0.0
Co258 Co 0.00231 0.99015 0.78286 0.0
C259 C 0.0479 0.06639 0.94348 0.0
C260 C 0.04423 0.02507 0.03411 0.0
N261 N 0.04341 0.0353 0.95174 0.0
N262 N 0.05001 0.07603 0.01715 0.0
C263 C 0.04818 0.05002 0.07431 0.0
H264 H 0.04647 0.08241 0.88533 0.0
H265 H 0.03917 0.00166 0.06345 0.0
C266 C 0.06457 0.00555 0.74232 0.0
N267 N 0.98498 0.96854 0.70515 0.0
C268 C 0.98247 0.9371 0.71225 0.0
C269 C 0.98126 0.9795 0.62343 0.0
N270 N 0.97897 0.92804 0.63818 0.0
C271 C 0.97766 0.9547 0.5823 0.0
C272 C 0.99504 0.05513 0.74468 0.0
O273 O 0.06429 0.01679 0.80933 0.0
O274 O 0.04077 0.99151 0.72293 0.0
O275 O 0.98775 0.03031 0.71886 0.0
O276 O 0.00955 0.05245 0.81351 0.0
O277 O 0.96375 0.98906 0.84336 0.0
H278 H 0.98424 0.00345 0.5943 0.0
H279 H 0.98668 0.92056 0.76911 0.0
O280 O 0.98869 0.01057 0.93551 0.0
O281 O 0.04342 0.97498 0.93342 0.0
O282 O 0.01774 0.95119 0.84799 0.0
C283 C 0.03561 0.9498 0.9113 0.0
H284 H 0.04746 0.04959 0.14035 0.0
H285 H 0.97708 0.9558 0.51599 0.0
Co286 Co 0.49023 0.02639 0.85199 0.0
C287 C 0.49786 0.96043 0.8742 0.0
Co288 Co 0.51438 0.00708 0.74988 0.0
C289 C 0.43884 0.05394 0.93928 0.0
C290 C 0.47702 0.0313 0.02004 0.0
N291 N 0.4688 0.03999 0.9394 0.0
N292 N 0.42784 0.05325 0.01638 0.0
C293 C 0.45183 0.03942 0.0675 0.0
H294 H 0.42427 0.06207 0.88423 0.0
H295 H 0.4989 0.01769 0.04291 0.0
C296 C 0.50611 0.0731 0.72618 0.0
N297 N 0.53599 0.99343 0.66227 0.0
C298 C 0.56602 0.9795 0.66245 0.0
C299 C 0.5287 0.00408 0.5819 0.0
N300 N 0.57833 0.98285 0.5859 0.0
C301 C 0.55467 0.99774 0.53504 0.0
C302 C 0.44881 0.01735 0.72738 0.0
O303 O 0.4927 0.06878 0.79624 0.0
O304 O 0.51817 0.04947 0.69728 0.0
O305 O 0.47406 0.00764 0.69374 0.0
O306 O 0.45078 0.02467 0.79852 0.0
O307 O 0.51032 0.96468 0.803 0.0
H308 H 0.50721 0.01843 0.5594 0.0
H309 H 0.57991 0.97023 0.71808 0.0
O310 O 0.48794 0.98411 0.90608 0.0
O311 O 0.5296 0.02824 0.90477 0.0
O312 O 0.55406 0.0074 0.80691 0.0
C313 C 0.55517 0.01815 0.87406 0.0
H314 H 0.4504 0.03382 0.13406 0.0
H315 H 0.55698 0.00578 0.46942 0.0
Co316 Co 0.51717 0.51655 0.8094 0.0
C317 C 0.48306 0.4734 0.914 0.0
Co318 Co 0.46548 0.51782 0.77628 0.0
C319 C 0.57471 0.53519 0.8818 0.0
C320 C 0.58027 0.48854 0.85348 0.0
N321 N 0.55992 0.51466 0.84338 0.0
N322 N 0.60268 0.52232 0.918 0.0
C323 C 0.6065 0.4932 0.89921 0.0
H324 H 0.56406 0.55806 0.88962 0.0
H325 H 0.57528 0.4665 0.83501 0.0
C326 C 0.50014 0.56105 0.67269 0.0
N327 N 0.4225 0.51911 0.74299 0.0
C328 C 0.41078 0.50896 0.67598 0.0
C329 C 0.39634 0.53068 0.77902 0.0
N330 N 0.37866 0.5137 0.66909 0.0
C331 C 0.36939 0.5275 0.73352 0.0
C332 C 0.47779 0.5589 0.88089 0.0
O333 O 0.52409 0.54866 0.71781 0.0
O334 O 0.47267 0.55054 0.68646 0.0
O335 O 0.45549 0.54844 0.84334 0.0
O336 O 0.50653 0.54806 0.87483 0.0
O337 O 0.45914 0.48491 0.86742 0.0
H338 H 0.39662 0.54052 0.83528 0.0
H339 H 0.42531 0.4981 0.63273 0.0
O340 O 0.51003 0.48479 0.90085 0.0
O341 O 0.52682 0.48443 0.7432 0.0
O342 O 0.47583 0.48712 0.71024 0.0
C343 C 0.50389 0.47461 0.70594 0.0
H344 H 0.62584 0.47582 0.92189 0.0
H345 H 0.34483 0.53399 0.74768 0.0
Co346 Co 0.99025 0.53657 0.83116 0.0
C347 C 0.02794 0.48426 0.91535 0.0
Co348 Co 0.98203 0.49077 0.79337 0.0
C349 C 0.99351 0.57904 0.94934 0.0
C350 C 0.01044 0.599 0.83064 0.0
N351 N 0.99762 0.5732 0.87154 0.0
N352 N 0.00383 0.60713 0.95871 0.0
C353 C 0.01447 0.61976 0.88414 0.0
H354 H 0.98392 0.56274 0.99889 0.0
H355 H 0.01692 0.60238 0.76631 0.0
C356 C 0.94445 0.54327 0.70927 0.0
N357 N 0.97389 0.45449 0.75122 0.0
C358 C 0.99257 0.43805 0.70383 0.0
C359 C 0.94486 0.44282 0.74878 0.0
N360 N 0.97612 0.41706 0.67173 0.0
C361 C 0.9462 0.41979 0.70021 0.0
C362 C 0.9426 0.50291 0.91779 0.0
O363 O 0.95961 0.55917 0.75295 0.0
O364 O 0.95111 0.51372 0.71749 0.0
O365 O 0.94987 0.48265 0.87231 0.0
O366 O 0.95688 0.5282 0.90944 0.0
O367 O 0.01299 0.46829 0.87106 0.0
H368 H 0.92346 0.45172 0.77641 0.0
H369 H 0.01723 0.44238 0.68946 0.0
O370 O 0.02101 0.51378 0.90779 0.0
O371 O 0.02362 0.54407 0.75335 0.0
O372 O 0.01477 0.49913 0.7153 0.0
C373 C 0.03053 0.52339 0.70862 0.0
H374 H 0.0245 0.6424 0.86965 0.0
H375 H 0.9265 0.40695 0.68414 0.0
C376 C 0.14722 0.01549 0.64959 0.0
C377 C 0.13867 0.02975 0.56742 0.0
C378 C 0.08199 0.02803 0.5995 0.0
C379 C 0.09023 0.01243 0.6813 0.0
N380 N 0.13041 0.98534 0.77851 0.0
N381 N 0.09889 0.04268 0.45847 0.0
C382 C 0.12283 0.00438 0.70477 0.0
C383 C 0.10635 0.03354 0.54054 0.0
N384 N 0.17852 0.01336 0.67535 0.0
N385 N 0.05126 0.03976 0.57917 0.0
H386 H 0.11618 0.04763 0.41358 0.0
H387 H 0.07592 0.04244 0.43399 0.0
H388 H 0.03249 0.03735 0.62 0.0
H389 H 0.04488 0.05477 0.52413 0.0
H390 H 0.18585 0.00667 0.73683 0.0
H391 H 0.19709 0.02004 0.63557 0.0
H392 H 0.15361 0.97617 0.79575 0.0
H393 H 0.11309 0.97634 0.81951 0.0
C394 C 0.48929 0.13987 0.54322 0.0
C395 C 0.49816 0.16602 0.57744 0.0
C396 C 0.51748 0.13049 0.70389 0.0
C397 C 0.50464 0.10494 0.67394 0.0
N398 N 0.47397 0.08637 0.56885 0.0
N399 N 0.51915 0.18718 0.69152 0.0
C400 C 0.48973 0.10981 0.59416 0.0
C401 C 0.51199 0.16157 0.65808 0.0
N402 N 0.48023 0.14381 0.46184 0.0
N403 N 0.53581 0.12487 0.77465 0.0
H404 H 0.51697 0.21005 0.6582 0.0
H405 H 0.5256 0.18601 0.75329 0.0
H406 H 0.54063 0.10238 0.80897 0.0
H407 H 0.54852 0.14191 0.79555 0.0
H408 H 0.47707 0.12513 0.43073 0.0
H409 H 0.47867 0.16565 0.42316 0.0
H410 H 0.45929 0.08977 0.51628 0.0
H411 H 0.4728 0.06416 0.6041 0.0
C412 C 0.34182 0.50292 0.46623 0.0
C413 C 0.31724 0.48305 0.495 0.0
C414 C 0.33608 0.48072 0.63745 0.0
C415 C 0.35826 0.50321 0.60979 0.0
N416 N 0.37903 0.53974 0.49951 0.0
N417 N 0.28611 0.45958 0.60985 0.0
C418 C 0.36031 0.51542 0.52443 0.0
C419 C 0.31295 0.47382 0.58123 0.0
N420 N 0.34803 0.50915 0.3838 0.0
N421 N 0.33799 0.46494 0.71682 0.0
H422 H 0.26776 0.45517 0.57118 0.0
H423 H 0.28047 0.45522 0.67224 0.0
H424 H 0.35565 0.46839 0.75869 0.0
H425 H 0.32437 0.44607 0.73814 0.0
H426 H 0.36768 0.52089 0.35991 0.0
H427 H 0.33497 0.50029 0.33976 0.0
H428 H 0.37928 0.55171 0.43899 0.0
H429 H 0.3922 0.54978 0.54101 0.0
C430 C 0.99723 0.34448 0.57994 0.0
C431 C 0.00363 0.35791 0.49713 0.0
C432 C 0.99076 0.41081 0.52925 0.0
C433 C 0.98691 0.39741 0.61319 0.0
N434 N 0.99082 0.35264 0.72179 0.0
N435 N 0.01041 0.40363 0.39424 0.0
C436 C 0.99135 0.36451 0.63937 0.0
C437 C 0.00151 0.39108 0.47204 0.0
N438 N 0.99607 0.31259 0.60125 0.0
N439 N 0.98292 0.44221 0.50399 0.0
H440 H 0.01752 0.38979 0.35032 0.0
H441 H 0.01276 0.42755 0.37486 0.0
H442 H 0.97488 0.45712 0.54456 0.0
H443 H 0.98204 0.45305 0.44237 0.0
H444 H 0.98827 0.30162 0.65821 0.0
H445 H 0.00046 0.29706 0.55969 0.0
H446 H 0.99705 0.32917 0.74652 0.0
H447 H 0.98671 0.36697 0.76641 0.0
C448 C 0.89372 0.9716 0.04475 0.0
C449 C 0.88197 1.00046 0.0676 0.0
C450 C 0.92179 0.02851 0.98169 0.0
C451 C 0.93492 0.99942 0.96273 0.0
N452 N 0.93735 0.94261 0.98711 0.0
N453 N 0.88828 0.05519 0.07196 0.0
C454 C 0.922 0.9707 0.9972 0.0
C455 C 0.89724 0.02852 0.04072 0.0
N456 N 0.87737 0.9453 0.06675 0.0
N457 N 0.93161 0.05626 0.94001 0.0
H458 H 0.87001 0.05623 0.11459 0.0
H459 H 0.9008 0.07541 0.06155 0.0
H460 H 0.94877 0.05736 0.89401 0.0
H461 H 0.92059 0.07823 0.94497 0.0
H462 H 0.88246 0.92446 0.04388 0.0
H463 H 0.85737 0.94491 0.10448 0.0
H464 H 0.93111 0.92092 0.01823 0.0
H465 H 0.95804 0.94098 0.95251 0.0
C466 C 0.5163 0.87568 0.98498 0.0
C467 C 0.48584 0.86889 0.0181 0.0
C468 C 0.46288 0.92023 0.94696 0.0
C469 C 0.49386 0.92826 0.9201 0.0
N470 N 0.55108 0.9157 0.92505 0.0
N471 N 0.43152 0.88685 0.04396 0.0
C472 C 0.5209 0.90652 0.94201 0.0
C473 C 0.45954 0.89185 0.00304 0.0
N474 N 0.54058 0.85241 0.99256 0.0
N475 N 0.43642 0.93906 0.91602 0.0
H476 H 0.42818 0.86641 0.0859 0.0
H477 H 0.4127 0.9041 0.04232 0.0
H478 H 0.43769 0.9595 0.87255 0.0
H479 H 0.41305 0.93281 0.92681 0.0
H480 H 0.56218 0.85486 0.9618 0.0
H481 H 0.53825 0.82976 0.02479 0.0
H482 H 0.5718 0.90213 0.94771 0.0
H483 H 0.55554 0.93803 0.89409 0.0
C484 C 0.67688 0.53751 0.02629 0.0
C485 C 0.66464 0.54275 0.10386 0.0
C486 C 0.61004 0.53854 0.05473 0.0
C487 C 0.62225 0.53409 0.97671 0.0
N488 N 0.66539 0.5382 0.88109 0.0
N489 N 0.61949 0.55748 0.18293 0.0
C490 C 0.65511 0.53679 0.96022 0.0
C491 C 0.63109 0.54659 0.11469 0.0
N492 N 0.70896 0.53083 0.01708 0.0
N493 N 0.57913 0.53268 0.07427 0.0
H494 H 0.63453 0.56367 0.22751 0.0
H495 H 0.59524 0.56336 0.19077 0.0
H496 H 0.56327 0.52513 0.03409 0.0
H497 H 0.57005 0.53245 0.13327 0.0
H498 H 0.71852 0.52337 0.96463 0.0
H499 H 0.72592 0.53009 0.06403 0.0
H500 H 0.68864 0.54295 0.8634 0.0
H501 H 0.64961 0.53776 0.83194 0.0
C502 C 0.9965 0.67032 0.08894 0.0
C503 C 0.0118 0.65492 0.16389 0.0
C504 C 0.02036 0.60649 0.10497 0.0
C505 C 0.00359 0.6215 0.03201 0.0
N506 N 0.96714 0.66395 0.96624 0.0
N507 N 0.03013 0.60616 0.25076 0.0
C508 C 0.98878 0.65221 0.02813 0.0
C509 C 0.02088 0.62216 0.17445 0.0
N510 N 0.99138 0.70238 0.07262 0.0
N511 N 0.03765 0.57837 0.10628 0.0
H512 H 0.0303 0.61703 0.30285 0.0
H513 H 0.03439 0.58175 0.26363 0.0
H514 H 0.03939 0.56694 0.05534 0.0
H515 H 0.05279 0.5679 0.15529 0.0
H516 H 0.98342 0.71464 0.01516 0.0
H517 H 0.99798 0.71706 0.11298 0.0
H518 H 0.95353 0.68526 0.96412 0.0
H519 H 0.96032 0.65067 0.92245 0.0
C520 C 0.96666 0.12503 0.57782 0.0
C521 C 0.99188 0.1449 0.58243 0.0
C522 C 0.01893 0.10594 0.68798 0.0
C523 C 0.99272 0.08648 0.68979 0.0
N524 N 0.93817 0.08147 0.64801 0.0
N525 N 0.03579 0.15874 0.66107 0.0
C526 C 0.96539 0.09721 0.63818 0.0
C527 C 0.01546 0.13703 0.64522 0.0
N528 N 0.94455 0.13236 0.51498 0.0
N529 N 0.04851 0.09405 0.71849 0.0
H530 H 0.03433 0.18186 0.62944 0.0
H531 H 0.05171 0.15455 0.71142 0.0
H532 H 0.05413 0.07033 0.73953 0.0
H533 H 0.06872 0.10694 0.71141 0.0
H534 H 0.92763 0.1171 0.50303 0.0
H535 H 0.94437 0.15321 0.4723 0.0
H536 H 0.91677 0.08972 0.61645 0.0
H537 H 0.93609 0.06182 0.6936 0.0
C538 C 0.37046 0.06088 0.64258 0.0
C539 C 0.36037 0.04107 0.58902 0.0
C540 C 0.40547 0.00276 0.63642 0.0
C541 C 0.41812 0.0249 0.68026 0.0
N542 N 0.4156 0.07875 0.7065 0.0
N543 N 0.36943 0.99446 0.52722 0.0
C544 C 0.40135 0.05492 0.67889 0.0
C545 C 0.37814 0.01226 0.58378 0.0
N546 N 0.35047 0.08544 0.65911 0.0
N547 N 0.41874 0.97249 0.64734 0.0
H548 H 0.34926 1.00053 0.48873 0.0
H549 H 0.38346 0.975 0.51443 0.0
H550 H 0.43811 0.96448 0.6874 0.0
H551 H 0.40865 0.95463 0.62293 0.0
H552 H 0.35553 0.09856 0.70474 0.0
H553 H 0.32745 0.09064 0.6335 0.0
H554 H 0.40543 0.10183 0.69829 0.0
H555 H 0.43907 0.07675 0.72816 0.0
C556 C 0.49605 0.39147 0.66588 0.0
C557 C 0.50686 0.3943 0.58413 0.0
C558 C 0.52456 0.44663 0.59198 0.0
C559 C 0.50819 0.44595 0.66767 0.0
N560 N 0.47407 0.41865 0.77077 0.0
N561 N 0.53174 0.42367 0.4672 0.0
C562 C 0.49306 0.41851 0.70353 0.0
C563 C 0.52171 0.42148 0.54681 0.0
N564 N 0.488 0.36297 0.70708 0.0
N565 N 0.54194 0.47157 0.56249 0.0
H566 H 0.531 0.40503 0.43439 0.0
H567 H 0.53945 0.44414 0.43268 0.0
H568 H 0.54339 0.49084 0.5926 0.0
H569 H 0.55662 0.47225 0.51137 0.0
H570 H 0.48322 0.35884 0.77001 0.0
H571 H 0.48936 0.34264 0.68055 0.0
H572 H 0.45931 0.40074 0.79237 0.0
H573 H 0.47097 0.43762 0.80155 0.0
C574 C 0.11064 0.49262 0.65417 0.0
C575 C 0.10877 0.49943 0.56656 0.0
C576 C 0.05844 0.53165 0.57335 0.0
C577 C 0.06012 0.52377 0.6603 0.0
N578 N 0.09311 0.5083 0.78237 0.0
N579 N 0.08601 0.53226 0.44344 0.0
C580 C 0.08817 0.50825 0.70025 0.0
C581 C 0.08422 0.5212 0.52614 0.0
N582 N 0.1322 0.46963 0.69358 0.0
N583 N 0.03206 0.54887 0.53661 0.0
H584 H 0.10508 0.52564 0.40784 0.0
H585 H 0.0702 0.5499 0.4115 0.0
H586 H 0.01482 0.55939 0.57098 0.0
H587 H 0.02713 0.55231 0.47343 0.0
H588 H 0.13242 0.46195 0.75713 0.0
H589 H 0.1479 0.456 0.66264 0.0
H590 H 0.11457 0.49976 0.81333 0.0
H591 H 0.07704 0.5201 0.81697 0.0
C592 C 0.04603 0.88493 0.09771 0.0
C593 C 0.05995 0.85983 0.06104 0.0
C594 C 0.06227 0.89514 0.92839 0.0
C595 C 0.0449 0.9191 0.96299 0.0
N596 N 0.01468 0.93481 0.07632 0.0
N597 N 0.07869 0.83946 0.94077 0.0
C598 C 0.03544 0.91359 0.04668 0.0
C599 C 0.06744 0.86447 0.97608 0.0
N600 N 0.04306 0.88143 0.18158 0.0
N601 N 0.07469 0.902 0.85119 0.0
H602 H 0.08364 0.81693 0.97478 0.0
H603 H 0.08114 0.84054 0.87735 0.0
H604 H 0.0718 0.92435 0.81515 0.0
H605 H 0.09011 0.88638 0.82563 0.0
H606 H 0.03643 0.90006 0.21228 0.0
H607 H 0.04998 0.86058 0.22143 0.0
H608 H 0.00408 0.93022 0.13389 0.0
H609 H 0.00534 0.95576 0.04066 0.0
C610 C 0.61631 0.00777 0.04799 0.0
C611 C 0.64188 0.02364 0.0079 0.0
C612 C 0.61038 0.03646 0.8794 0.0
C613 C 0.58583 0.01855 0.9178 0.0
N614 N 0.5681 0.9815 0.03237 0.0
N615 N 0.66625 0.04746 0.88225 0.0
C616 C 0.58958 0.00249 0.00034 0.0
C617 C 0.63985 0.03626 0.92248 0.0
N618 N 0.61702 0.99878 0.13192 0.0
N619 N 0.605 0.05499 0.80385 0.0
H620 H 0.68828 0.04773 0.91202 0.0
H621 H 0.66708 0.05381 0.81831 0.0
H622 H 0.58352 0.05626 0.77066 0.0
H623 H 0.62081 0.07115 0.77714 0.0
H624 H 0.59748 0.99026 0.16527 0.0
H625 H 0.63614 0.00236 0.16936 0.0
H626 H 0.57147 0.9667 0.08917 0.0
H627 H 0.54841 0.97661 0.99886 0.0
C628 C 0.47644 0.60622 0.05584 0.0
C629 C 0.45941 0.6345 0.01726 0.0
C630 C 0.45527 0.61361 0.88859 0.0
C631 C 0.47055 0.58454 0.92855 0.0
N632 N 0.49022 0.55089 0.05372 0.0
N633 N 0.42749 0.66349 0.90325 0.0
C634 C 0.47967 0.58018 0.01326 0.0
C635 C 0.44717 0.63764 0.93557 0.0
N636 N 0.49016 0.60455 0.13231 0.0
N637 N 0.45007 0.61896 0.80496 0.0
H638 H 0.42154 0.68192 0.93536 0.0
H639 H 0.4149 0.66547 0.84757 0.0
H640 H 0.45596 0.60227 0.76752 0.0
H641 H 0.44261 0.64093 0.77127 0.0
H642 H 0.50604 0.58599 0.15955 0.0
H643 H 0.48744 0.62282 0.16651 0.0
H644 H 0.49419 0.54554 0.11729 0.0
H645 H 0.49231 0.5311 0.02497 0.0
C646 C 0.90128 0.4808 0.12126 0.0
C647 C 0.86983 0.49437 0.10032 0.0
C648 C 0.8854 0.51109 0.95712 0.0
C649 C 0.91685 0.4976 0.97831 0.0
N650 N 0.95256 0.46228 0.07225 0.0
N651 N 0.82978 0.51684 0.99715 0.0
C652 C 0.92414 0.48012 0.05793 0.0
C653 C 0.86121 0.50782 0.01766 0.0
N654 N 0.90961 0.46967 0.20202 0.0
N655 N 0.87887 0.52721 0.87921 0.0
H656 H 0.8115 0.51482 0.04024 0.0
H657 H 0.82128 0.52413 0.93687 0.0
H658 H 0.89541 0.52776 0.83191 0.0
H659 H 0.85768 0.54089 0.86188 0.0
H660 H 0.93309 0.46292 0.22231 0.0
H661 H 0.89332 0.4692 0.24998 0.0
H662 H 0.95815 0.44676 0.12692 0.0
H663 H 0.96941 0.46069 0.0263 0.0
C664 C 0.06772 0.14451 0.11807 0.0
C665 C 0.04286 0.16747 0.08464 0.0
C666 C 0.02207 0.12955 0.00613 0.0
C667 C 0.04869 0.10791 0.03347 0.0
N668 N 0.10065 0.09791 0.09897 0.0
N669 N 0.00071 0.18405 0.98288 0.0
C670 C 0.0728 0.11654 0.08391 0.0
C671 C 0.02149 0.16071 0.02382 0.0
N672 N 0.08507 0.14816 0.1861 0.0
N673 N 0.99631 0.11985 0.96857 0.0
H674 H -6e-05 0.20716 0.99405 0.0
H675 H 0.98663 0.18114 0.93264 0.0
H676 H 0.99474 0.09673 0.95945 0.0
H677 H 0.97505 0.13389 0.95457 0.0
H678 H 0.10112 0.13053 0.21735 0.0
H679 H 0.0811 0.16722 0.21698 0.0
H680 H 0.12037 0.10443 0.12933 0.0
H681 H 0.10509 0.0775 0.07347 0.0
C682 C 0.33916 0.04903 0.05064 0.0
C683 C 0.33452 0.07019 0.1074 0.0
C684 C 0.38972 0.08492 0.0872 0.0
C685 C 0.39559 0.06063 0.04039 0.0
N686 N 0.37744 0.01617 0.98694 0.0
N687 N 0.35709 0.10479 0.19053 0.0
C688 C 0.37065 0.04191 0.02372 0.0
C689 C 0.36016 0.0875 0.12814 0.0
N690 N 0.31347 0.03585 0.02254 0.0
N691 N 0.41259 0.10554 0.09209 0.0
H692 H 0.33625 0.10678 0.22424 0.0
H693 H 0.3762 0.11492 0.214 0.0
H694 H 0.43446 0.10401 0.06223 0.0
H695 H 0.40869 0.12568 0.11879 0.0
H696 H 0.31491 0.02254 0.97523 0.0
H697 H 0.29013 0.04069 0.04141 0.0
H698 H 0.36089 0.9998 0.98081 0.0
H699 H 0.40044 0.0095 0.9692 0.0
C700 C 0.49301 0.38814 0.0253 0.0
C701 C 0.47429 0.38979 0.09607 0.0
C702 C 0.45982 0.44603 0.04577 0.0
C703 C 0.48052 0.44488 0.97799 0.0
N704 N 0.52193 0.41582 0.9125 0.0
N705 N 0.44495 0.42138 0.18271 0.0
C706 C 0.4988 0.4163 0.97083 0.0
C707 C 0.45897 0.41903 0.10874 0.0
N708 N 0.50417 0.35946 0.00804 0.0
N709 N 0.44125 0.47299 0.05063 0.0
H710 H 0.44436 0.40238 0.23097 0.0
H711 H 0.43645 0.44265 0.19928 0.0
H712 H 0.44293 0.49397 0.00948 0.0
H713 H 0.42287 0.47413 0.09274 0.0
H714 H 0.51463 0.35646 0.95223 0.0
H715 H 0.5003 0.33826 0.04623 0.0
H716 H 0.53862 0.39677 0.91203 0.0
H717 H 0.52594 0.43494 0.86719 0.0
C718 C 0.07923 0.46529 0.11239 0.0
C719 C 0.1083 0.45362 0.08086 0.0
C720 C 0.08126 0.45286 0.94834 0.0
C721 C 0.05377 0.46955 0.97533 0.0
N722 N 0.02681 0.49238 0.08372 0.0
N723 N 0.13822 0.43808 0.9678 0.0
C724 C 0.0528 0.47585 0.0577 0.0
C725 C 0.10955 0.44745 0.9989 0.0
N726 N 0.07656 0.46534 0.19534 0.0
N727 N 0.08077 0.44247 0.87427 0.0
H728 H 0.15939 0.43384 0.00292 0.0
H729 H 0.14164 0.4368 0.90572 0.0
H730 H 0.06195 0.44773 0.83155 0.0
H731 H 0.09843 0.42668 0.85714 0.0
H732 H 0.05499 0.47028 0.22355 0.0
H733 H 0.09529 0.45749 0.23759 0.0
H734 H 0.02673 0.50168 0.13822 0.0
H735 H 0.00567 0.49827 0.04917 0.0
C736 C 0.02016 0.84966 0.6127 0.0
C737 C 0.99827 0.83995 0.55785 0.0
C738 C 0.96017 0.88389 0.57747 0.0
C739 C 0.98444 0.89666 0.6192 0.0
N740 N 0.03964 0.89379 0.66543 0.0
N741 N 0.94724 0.84757 0.48634 0.0
C742 C 0.01488 0.87987 0.63535 0.0
C743 C 0.96791 0.85671 0.54075 0.0
N744 N 0.04644 0.8302 0.64125 0.0
N745 N 0.92982 0.89797 0.57315 0.0
H746 H 0.95187 0.82721 0.46077 0.0
H747 H 0.92635 0.86083 0.46371 0.0
H748 H 0.92385 0.91784 0.59991 0.0
H749 H 0.91024 0.88857 0.5496 0.0
H750 H 0.06183 0.83473 0.68718 0.0
H751 H 0.05083 0.80797 0.62494 0.0
H752 H 0.06312 0.88378 0.67051 0.0
H753 H 0.03769 0.91678 0.67714 0.0
C754 C 0.64715 0.96753 0.45156 0.0
C755 C 0.67205 0.98169 0.48787 0.0
C756 C 0.63594 0.99348 0.59689 0.0
C757 C 0.61135 0.97838 0.56237 0.0
N758 N 0.59701 0.94276 0.47325 0.0
N759 N 0.69306 0.99799 0.60915 0.0
C760 C 0.61835 0.96237 0.49552 0.0
C761 C 0.66744 0.99077 0.56609 0.0
N762 N 0.64961 0.96136 0.37286 0.0
N763 N 0.62898 0.01298 0.65272 0.0
H764 H 0.7164 0.99614 0.58736 0.0
H765 H 0.69142 0.00247 0.66944 0.0
H766 H 0.60584 0.01856 0.671 0.0
H767 H 0.6458 0.02663 0.67353 0.0
H768 H 0.63052 0.95445 0.34093 0.0
H769 H 0.66964 0.96562 0.33654 0.0
H770 H 0.60188 0.92845 0.42903 0.0
H771 H 0.5759 0.93851 0.5055 0.0
C772 C 0.48895 0.61525 0.46597 0.0
C773 C 0.4982 0.64406 0.48631 0.0
C774 C 0.51223 0.61772 0.62746 0.0
C775 C 0.50331 0.58877 0.60687 0.0
N776 N 0.49063 0.55831 0.50271 0.0
N777 N 0.52502 0.67162 0.5789 0.0
C778 C 0.49398 0.58706 0.52476 0.0
C779 C 0.51201 0.64486 0.56472 0.0
N780 N 0.47415 0.61506 0.39166 0.0
N781 N 0.51898 0.61987 0.70774 0.0
H782 H 0.52483 0.69194 0.53438 0.0
H783 H 0.53842 0.67284 0.63167 0.0
H784 H 0.51959 0.60076 0.75582 0.0
H785 H 0.52162 0.6411 0.72814 0.0
H786 H 0.46332 0.5957 0.37712 0.0
H787 H 0.4708 0.63497 0.34594 0.0
H788 H 0.48694 0.55507 0.44211 0.0
H789 H 0.4946 0.53722 0.54412 0.0
C790 C 0.8899 0.55361 0.52171 0.0
C791 C 0.86073 0.56123 0.55949 0.0
C792 C 0.89059 0.57322 0.67743 0.0
C793 C 0.91856 0.55777 0.64949 0.0
N794 N 0.94617 0.53627 0.54071 0.0
N795 N 0.83243 0.58016 0.67026 0.0
C796 C 0.91874 0.54952 0.56933 0.0
C797 C 0.86085 0.5723 0.63573 0.0
N798 N 0.88971 0.54951 0.44101 0.0
N799 N 0.8922 0.58824 0.74393 0.0
H800 H 0.8105 0.58086 0.63924 0.0
H801 H 0.83047 0.58451 0.73053 0.0
H802 H 0.91345 0.58969 0.77567 0.0
H803 H 0.87304 0.60191 0.76281 0.0
H804 H 0.91038 0.54644 0.4074 0.0
H805 H 0.86873 0.55206 0.40523 0.0
H806 H 0.94709 0.52588 0.48795 0.0
H807 H 0.96804 0.53448 0.57226 0.0
loop_
_geom_bond_atom_site_label_1
_geom_bond_atom_site_label_2
_geom_bond_distance
_geom_bond_site_symmetry_2
_ccdc_geom_bond_type
P0 O11 1.490 . S
P0 C14 1.812 . S
P0 C20 1.803 . S
P0 C26 1.819 . S
H1 C15 0.941 . S
H2 C16 0.939 . S
H3 C18 0.940 . S
H4 C19 0.940 . S
H5 C21 0.939 . S
H6 C22 0.942 . S
H7 C24 0.940 . S
H8 C25 0.939 . S
H9 C27 0.941 . S
H10 C31 0.939 . S
O11 P0 1.490 . S
H12 C28 0.939 . S
H13 C30 0.940 . S
C14 P0 1.812 . S
C14 C15 1.389 . S
C14 C19 1.391 . S
C15 H1 0.941 . S
C15 C14 1.389 . S
C15 C16 1.397 . S
C16 H2 0.939 . S
C16 C15 1.397 . S
C16 C17 1.378 . S
C17 C16 1.378 . S
C17 C18 1.378 . S
C18 H3 0.940 . S
C18 C17 1.378 . S
C18 C19 1.396 . S
C19 H4 0.940 . S
C19 C14 1.391 . S
C19 C18 1.396 . S
C20 P0 1.803 . S
C20 C21 1.378 . S
C20 C25 1.400 . S
C21 H5 0.939 . S
C21 C20 1.378 . S
C21 C22 1.361 . S
C22 H6 0.942 . S
C22 C21 1.361 . S
C22 C23 1.369 . S
C23 C22 1.369 . S
C23 C24 1.404 . S
C24 H7 0.940 . S
C24 C23 1.404 . S
C24 C25 1.389 . S
C25 H8 0.939 . S
C25 C20 1.400 . S
C25 C24 1.389 . S
C26 P0 1.819 . S
C26 C27 1.391 . S
C26 C31 1.391 . S
C27 H9 0.941 . S
C27 C26 1.391 . S
C27 C28 1.396 . S
C28 H12 0.939 . S
C28 C27 1.396 . S
C28 C29 1.397 1_554 S
C29 C28 1.397 1_556 S
C29 C30 1.385 . S
C30 H13 0.940 . S
C30 C29 1.385 . S
C30 C31 1.388 1_556 S
C31 H10 0.939 . S
C31 C26 1.391 . S
C31 C30 1.388 1_554 S
P32 O43 1.490 . S
P32 C46 1.812 . S
P32 C52 1.803 . S
P32 C58 1.819 . S
H33 C47 0.941 . S
H34 C48 0.939 . S
H35 C50 0.940 . S
H36 C51 0.950 . S
H37 C53 0.939 . S
H38 C54 0.942 . S
H39 C56 0.940 . S
H40 C57 0.958 . S
H41 C59 0.941 . S
H42 C63 0.927 1_655 S
O43 P32 1.490 . S
H44 C60 0.939 . S
H45 C62 0.940 . S
C46 P32 1.812 . S
C46 C47 1.389 . S
C46 C51 1.376 1_455 S
C47 H33 0.941 . S
C47 C46 1.389 . S
C47 C48 1.397 . S
C48 H34 0.939 . S
C48 C47 1.397 . S
C48 C49 1.378 . S
C49 C48 1.378 . S
C49 C50 1.378 1_455 S
C50 H35 0.940 . S
C50 C49 1.378 1_655 S
C50 C51 1.402 . S
C51 H36 0.950 . S
C51 C46 1.376 1_655 S
C51 C50 1.402 . S
C52 P32 1.803 . S
C52 C53 1.378 . S
C52 C57 1.367 1_455 S
C53 H37 0.939 . S
C53 C52 1.378 . S
C53 C54 1.361 . S
C54 H38 0.942 . S
C54 C53 1.361 . S
C54 C55 1.369 . S
C55 C54 1.369 . S
C55 C56 1.404 1_455 S
C56 H39 0.940 . S
C56 C55 1.404 1_655 S
C56 C57 1.404 . S
C57 H40 0.958 . S
C57 C52 1.367 1_655 S
C57 C56 1.404 . S
C58 P32 1.819 . S
C58 C59 1.391 . S
C58 C63 1.391 . S
C59 H41 0.941 . S
C59 C58 1.391 . S
C59 C60 1.396 1_554 S
C60 H44 0.939 . S
C60 C59 1.396 1_556 S
C60 C61 1.397 . S
C61 C60 1.397 . S
C61 C62 1.385 1_455 S
C62 H45 0.940 . S
C62 C61 1.385 1_655 S
C62 C63 1.388 1_656 S
C63 H42 0.927 1_455 S
C63 C58 1.391 . S
C63 C62 1.388 1_454 S
P64 O75 1.490 1_565 S
P64 C78 1.812 . S
P64 C84 1.803 . S
P64 C90 1.819 . S
H65 C79 0.941 1_545 S
H66 C80 0.939 . S
H67 C82 0.940 . S
H68 C83 0.940 . S
H69 C85 0.939 1_545 S
H70 C86 0.942 1_556 S
H71 C88 0.940 . S
H72 C89 0.939 . S
H73 C91 0.941 . S
H74 C95 0.939 . S
O75 P64 1.490 1_545 S
H76 C92 0.939 . S
H77 C94 0.940 . S
C78 P64 1.812 . S
C78 C79 1.389 . S
C78 C83 1.391 . S
C79 H65 0.941 1_565 S
C79 C78 1.389 . S
C79 C80 1.397 . S
C80 H66 0.939 . S
C80 C79 1.397 . S
C80 C81 1.378 . S
C81 C80 1.378 . S
C81 C82 1.378 . S
C82 H67 0.940 . S
C82 C81 1.378 . S
C82 C83 1.396 . S
C83 H68 0.940 . S
C83 C78 1.391 . S
C83 C82 1.396 . S
C84 P64 1.803 . S
C84 C85 1.378 . S
C84 C89 1.400 . S
C85 H69 0.939 1_565 S
C85 C84 1.378 . S
C85 C86 1.361 . S
C86 H70 0.942 1_554 S
C86 C85 1.361 . S
C86 C87 1.369 . S
C87 C86 1.369 . S
C87 C88 1.404 . S
C88 H71 0.940 . S
C88 C87 1.404 . S
C88 C89 1.389 . S
C89 H72 0.939 . S
C89 C84 1.400 . S
C89 C88 1.389 . S
C90 P64 1.819 . S
C90 C91 1.391 . S
C90 C95 1.391 1_554 S
C91 H73 0.941 . S
C91 C90 1.391 . S
C91 C92 1.396 1_554 S
C92 H76 0.939 . S
C92 C91 1.396 1_556 S
C92 C93 1.397 . S
C93 C92 1.397 . S
C93 C94 1.385 . S
C94 H77 0.940 . S
C94 C93 1.385 . S
C94 C95 1.388 . S
C95 H74 0.939 . S
C95 C90 1.391 1_556 S
C95 C94 1.388 . S
P96 O107 1.490 . S
P96 C110 1.812 . S
P96 C116 1.803 . S
P96 C122 1.819 . S
H97 C111 0.941 . S
H98 C112 0.939 . S
H99 C114 0.940 . S
H100 C115 0.940 . S
H101 C117 0.939 . S
H102 C118 0.942 . S
H103 C120 0.940 . S
H104 C121 0.939 . S
H105 C123 0.941 . S
H106 C127 0.939 . S
O107 P96 1.490 . S
H108 C124 0.939 . S
H109 C126 0.940 . S
C110 P96 1.812 . S
C110 C111 1.389 . S
C110 C115 1.391 . S
C111 H97 0.941 . S
C111 C110 1.389 . S
C111 C112 1.397 . S
C112 H98 0.939 . S
C112 C111 1.397 . S
C112 C113 1.378 . S
C113 C112 1.378 . S
C113 C114 1.378 . S
C114 H99 0.940 . S
C114 C113 1.378 . S
C114 C115 1.396 . S
C115 H100 0.940 . S
C115 C110 1.391 . S
C115 C114 1.396 . S
C116 P96 1.803 . S
C116 C117 1.378 . S
C116 C121 1.400 . S
C117 H101 0.939 . S
C117 C116 1.378 . S
C117 C118 1.361 . S
C118 H102 0.942 . S
C118 C117 1.361 . S
C118 C119 1.369 . S
C119 C118 1.369 . S
C119 C120 1.404 . S
C120 H103 0.940 . S
C120 C119 1.404 . S
C120 C121 1.389 . S
C121 H104 0.939 . S
C121 C116 1.400 . S
C121 C120 1.389 . S
C122 P96 1.819 . S
C122 C123 1.391 . S
C122 C127 1.391 . S
C123 H105 0.941 . S
C123 C122 1.391 . S
C123 C124 1.396 . S
C124 H108 0.939 . S
C124 C123 1.396 . S
C124 C125 1.397 1_554 S
C125 C124 1.397 1_556 S
C125 C126 1.385 . S
C126 H109 0.940 . S
C126 C125 1.385 . S
C126 C127 1.388 1_556 S
C127 H106 0.939 . S
C127 C122 1.391 . S
C127 C126 1.388 1_554 S
P128 O139 1.490 . S
P128 C142 1.812 . S
P128 C148 1.803 . S
P128 C154 1.819 . S
H129 C143 0.941 . S
H130 C144 0.939 . S
H131 C146 0.940 . S
H132 C147 0.940 . S
H133 C149 0.939 . S
H134 C150 0.942 . S
H135 C152 0.940 . S
H136 C153 0.939 . S
H137 C155 0.941 . S
H138 C159 0.939 . S
O139 P128 1.490 . S
H140 C156 0.939 . S
H141 C158 0.940 . S
C142 P128 1.812 . S
C142 C143 1.389 . S
C142 C147 1.391 . S
C143 H129 0.941 . S
C143 C142 1.389 . S
C143 C144 1.397 . S
C144 H130 0.939 . S
C144 C143 1.397 . S
C144 C145 1.378 . S
C145 C144 1.378 . S
C145 C146 1.378 . S
C146 H131 0.940 . S
C146 C145 1.378 . S
C146 C147 1.396 . S
C147 H132 0.940 . S
C147 C142 1.391 . S
C147 C146 1.396 . S
C148 P128 1.803 . S
C148 C149 1.378 . S
C148 C153 1.400 . S
C149 H133 0.939 . S
C149 C148 1.378 . S
C149 C150 1.361 . S
C150 H134 0.942 . S
C150 C149 1.361 . S
C150 C151 1.369 . S
C151 C150 1.369 . S
C151 C152 1.404 . S
C152 H135 0.940 . S
C152 C151 1.404 . S
C152 C153 1.389 . S
C153 H136 0.939 . S
C153 C148 1.400 . S
C153 C152 1.389 . S
C154 P128 1.819 . S
C154 C155 1.391 . S
C154 C159 1.391 . S
C155 H137 0.941 . S
C155 C154 1.391 . S
C155 C156 1.396 . S
C156 H140 0.939 . S
C156 C155 1.396 . S
C156 C157 1.397 . S
C157 C156 1.397 . S
C157 C158 1.385 . S
C158 H141 0.940 . S
C158 C157 1.385 . S
C158 C159 1.388 . S
C159 H138 0.939 . S
C159 C154 1.391 . S
C159 C158 1.388 . S
P160 O171 1.490 . S
P160 C174 1.812 . S
P160 C180 1.803 . S
P160 C186 1.819 . S
H161 C175 0.941 . S
H162 C176 0.939 . S
H163 C178 0.940 . S
H164 C179 0.946 . S
H165 C181 0.939 . S
H166 C182 0.942 . S
H167 C184 0.940 . S
H168 C185 0.955 . S
H169 C187 0.941 . S
H170 C191 0.933 1_655 S
O171 P160 1.490 . S
H172 C188 0.939 . S
H173 C190 0.940 . S
C174 P160 1.812 . S
C174 C175 1.389 . S
C174 C179 1.382 1_455 S
C175 H161 0.941 . S
C175 C174 1.389 . S
C175 C176 1.397 . S
C176 H162 0.939 . S
C176 C175 1.397 . S
C176 C177 1.378 . S
C177 C176 1.378 . S
C177 C178 1.378 1_455 S
C178 H163 0.940 . S
C178 C177 1.378 1_655 S
C178 C179 1.400 . S
C179 H164 0.946 . S
C179 C174 1.382 1_655 S
C179 C178 1.400 . S
C180 P160 1.803 . S
C180 C181 1.378 . S
C180 C185 1.377 1_455 S
C181 H165 0.939 . S
C181 C180 1.378 . S
C181 C182 1.361 . S
C182 H166 0.942 . S
C182 C181 1.361 . S
C182 C183 1.369 . S
C183 C182 1.369 . S
C183 C184 1.404 1_455 S
C184 H167 0.940 . S
C184 C183 1.404 1_655 S
C184 C185 1.397 . S
C185 H168 0.955 . S
C185 C180 1.377 1_655 S
C185 C184 1.397 . S
C186 P160 1.819 . S
C186 C187 1.391 . S
C186 C191 1.391 . S
C187 H169 0.941 . S
C187 C186 1.391 . S
C187 C188 1.396 . S
C188 H172 0.939 . S
C188 C187 1.396 . S
C188 C189 1.397 . S
C189 C188 1.397 . S
C189 C190 1.385 1_455 S
C190 H173 0.940 . S
C190 C189 1.385 1_655 S
C190 C191 1.388 1_655 S
C191 H170 0.933 1_455 S
C191 C186 1.391 . S
C191 C190 1.388 1_455 S
P192 O203 1.490 . S
P192 C206 1.812 . S
P192 C212 1.803 . S
P192 C218 1.819 . S
H193 C207 0.941 . S
H194 C208 0.939 . S
H195 C210 0.940 . S
H196 C211 0.940 . S
H197 C213 0.939 . S
H198 C214 0.942 . S
H199 C216 0.940 . S
H200 C217 0.939 . S
H201 C219 0.941 . S
H202 C223 0.939 . S
O203 P192 1.490 . S
H204 C220 0.939 . S
H205 C222 0.940 . S
C206 P192 1.812 . S
C206 C207 1.389 . S
C206 C211 1.391 . S
C207 H193 0.941 . S
C207 C206 1.389 . S
C207 C208 1.397 . S
C208 H194 0.939 . S
C208 C207 1.397 . S
C208 C209 1.378 . S
C209 C208 1.378 . S
C209 C210 1.378 . S
C210 H195 0.940 . S
C210 C209 1.378 . S
C210 C211 1.396 . S
C211 H196 0.940 . S
C211 C206 1.391 . S
C211 C210 1.396 . S
C212 P192 1.803 . S
C212 C213 1.378 . S
C212 C217 1.400 . S
C213 H197 0.939 . S
C213 C212 1.378 . S
C213 C214 1.361 . S
C214 H198 0.942 . S
C214 C213 1.361 . S
C214 C215 1.369 . S
C215 C214 1.369 . S
C215 C216 1.404 . S
C216 H199 0.940 . S
C216 C215 1.404 . S
C216 C217 1.389 . S
C217 H200 0.939 . S
C217 C212 1.400 . S
C217 C216 1.389 . S
C218 P192 1.819 . S
C218 C219 1.391 . S
C218 C223 1.391 . S
C219 H201 0.941 . S
C219 C218 1.391 . S
C219 C220 1.396 . S
C220 H204 0.939 . S
C220 C219 1.396 . S
C220 C221 1.397 . S
C221 C220 1.397 . S
C221 C222 1.385 . S
C222 H205 0.940 . S
C222 C221 1.385 . S
C222 C223 1.388 . S
C223 H202 0.939 . S
C223 C218 1.391 . S
C223 C222 1.388 . S
P224 O235 1.490 . S
P224 C238 1.812 . S
P224 C244 1.803 . S
P224 C250 1.819 . S
H225 C239 0.941 . S
H226 C240 0.939 . S
H227 C242 0.940 . S
H228 C243 0.940 . S
H229 C245 0.939 . S
H230 C246 0.942 . S
H231 C248 0.940 . S
H232 C249 0.939 . S
H233 C251 0.941 . S
H234 C255 0.939 . S
O235 P224 1.490 . S
H236 C252 0.939 . S
H237 C254 0.940 . S
C238 P224 1.812 . S
C238 C239 1.389 . S
C238 C243 1.391 . S
C239 H225 0.941 . S
C239 C238 1.389 . S
C239 C240 1.397 . S
C240 H226 0.939 . S
C240 C239 1.397 . S
C240 C241 1.378 . S
C241 C240 1.378 . S
C241 C242 1.378 . S
C242 H227 0.940 . S
C242 C241 1.378 . S
C242 C243 1.396 . S
C243 H228 0.940 . S
C243 C238 1.391 . S
C243 C242 1.396 . S
C244 P224 1.803 . S
C244 C245 1.378 . S
C244 C249 1.400 . S
C245 H229 0.939 . S
C245 C244 1.378 . S
C245 C246 1.361 . S
C246 H230 0.942 . S
C246 C245 1.361 . S
C246 C247 1.369 . S
C247 C246 1.369 . S
C247 C248 1.404 . S
C248 H231 0.940 . S
C248 C247 1.404 . S
C248 C249 1.389 . S
C249 H232 0.939 . S
C249 C244 1.400 . S
C249 C248 1.389 . S
C250 P224 1.819 . S
C250 C251 1.391 . S
C250 C255 1.391 . S
C251 H233 0.941 . S
C251 C250 1.391 . S
C251 C252 1.396 . S
C252 H236 0.939 . S
C252 C251 1.396 . S
C252 C253 1.397 . S
C253 C252 1.397 . S
C253 C254 1.385 . S
C254 H237 0.940 . S
C254 C253 1.385 . S
C254 C255 1.388 . S
C255 H234 0.939 . S
C255 C250 1.391 . S
C255 C254 1.388 . S
Co256 N261 2.061 . S
Co256 O273 2.021 . S
Co256 O276 2.062 1_455 S
Co256 O280 2.117 1_455 S
Co256 O281 2.020 1_545 S
C257 O277 1.259 1_545 S
C257 O280 1.258 . S
Co258 N267 2.060 . S
Co258 O274 2.117 1_665 S
Co258 O275 2.020 1_565 S
Co258 O277 2.021 . S
Co258 O282 2.062 1_655 S
C259 N261 1.340 1_554 S
C259 N262 1.347 . S
C259 H264 0.931 1_554 S
C260 N261 1.347 1_654 S
C260 C263 1.350 . S
C260 H265 0.930 . S
N261 Co256 2.061 . S
N261 C259 1.340 1_556 S
N261 C260 1.347 1_456 S
N262 C259 1.347 . S
N262 C263 1.373 1_455 S
C263 C260 1.350 . S
C263 N262 1.373 1_655 S
C263 H284 0.931 . S
H264 C259 0.931 1_556 S
H265 C260 0.930 . S
C266 O273 1.259 . S
C266 O274 1.258 . S
N267 Co258 2.060 . S
N267 C268 1.334 . S
N267 C269 1.354 1_655 S
C268 N267 1.334 . S
C268 N270 1.347 . S
C268 H279 0.931 . S
C269 N267 1.354 1_455 S
C269 C271 1.350 . S
C269 H278 0.930 . S
N270 C268 1.347 . S
N270 C271 1.373 1_655 S
C271 C269 1.350 . S
C271 N270 1.373 1_455 S
C271 H285 0.931 . S
C272 O275 1.256 . S
C272 O276 1.255 . S
O273 Co256 2.021 . S
O273 C266 1.259 . S
O274 Co258 2.117 1_445 S
O274 C266 1.258 . S
O275 Co258 2.020 1_545 S
O275 C272 1.256 . S
O276 Co256 2.062 1_655 S
O276 C272 1.255 . S
O277 C257 1.259 1_565 S
O277 Co258 2.021 . S
H278 C269 0.930 . S
H279 C268 0.931 . S
O280 Co256 2.117 1_655 S
O280 C257 1.258 . S
O281 Co256 2.020 1_565 S
O281 C283 1.256 . S
O282 Co258 2.062 1_455 S
O282 C283 1.255 . S
C283 O281 1.256 . S
C283 O282 1.255 . S
H284 C263 0.931 . S
H285 C271 0.931 . S
Co286 N291 2.057 . S
Co286 O303 2.021 . S
Co286 O306 2.062 . S
Co286 O310 2.117 1_545 S
Co286 O311 2.020 . S
C287 O307 1.259 . S
C287 O310 1.258 . S
Co288 N297 2.052 1_545 S
Co288 O304 2.146 . S
Co288 O305 2.023 . S
Co288 O307 1.994 1_545 S
Co288 O312 2.063 1_545 S
C289 N291 1.316 1_554 S
C289 N292 1.347 . S
C289 H294 0.931 1_554 S
C290 N291 1.350 1_564 S
C290 C293 1.336 1_565 S
C290 H295 0.964 . S
N291 Co286 2.057 . S
N291 C289 1.316 1_556 S
N291 C290 1.350 1_546 S
N292 C289 1.347 . S
N292 C293 1.373 . S
C293 C290 1.336 1_545 S
C293 N292 1.373 . S
C293 H314 0.931 1_545 S
H294 C289 0.931 1_556 S
H295 C290 0.964 . S
C296 O303 1.259 . S
C296 O304 1.258 . S
N297 Co288 2.052 1_565 S
N297 C298 1.327 . S
N297 C299 1.366 1_565 S
C298 N297 1.327 . S
C298 N300 1.347 . S
C298 H309 0.931 . S
C299 N297 1.366 1_545 S
C299 C301 1.350 . S
C299 H308 0.930 . S
N300 C298 1.347 . S
N300 C301 1.373 1_565 S
C301 C299 1.350 . S
C301 N300 1.373 1_545 S
C301 H315 0.931 . S
C302 O305 1.256 . S
C302 O306 1.255 . S
O303 Co286 2.021 . S
O303 C296 1.259 . S
O304 Co288 2.146 . S
O304 C296 1.258 . S
O305 Co288 2.023 . S
O305 C302 1.256 . S
O306 Co286 2.062 . S
O306 C302 1.255 . S
O307 C287 1.259 . S
O307 Co288 1.994 1_565 S
H308 C299 0.930 . S
H309 C298 0.931 . S
O310 Co286 2.117 1_565 S
O310 C287 1.258 . S
O311 Co286 2.020 . S
O311 C313 1.256 . S
O312 Co288 2.063 1_565 S
O312 C313 1.255 1_565 S
C313 O311 1.256 . S
C313 O312 1.255 1_545 S
H314 C293 0.931 1_565 S
H315 C301 0.931 . S
Co316 N321 2.057 . S
Co316 O333 2.021 . S
Co316 O336 2.062 . S
Co316 O340 2.117 . S
Co316 O341 2.020 . S
C317 O337 1.259 . S
C317 O340 1.258 . S
Co318 N327 2.057 . S
Co318 O334 2.117 . S
Co318 O335 2.020 . S
Co318 O337 2.021 . S
Co318 O342 2.062 . S
C319 N321 1.316 . S
C319 N322 1.347 . S
C319 H324 0.931 . S
C320 N321 1.375 . S
C320 C323 1.350 . S
C320 H325 0.930 . S
N321 Co316 2.057 . S
N321 C319 1.316 . S
N321 C320 1.375 . S
N322 C319 1.347 . S
N322 C323 1.373 . S
C323 C320 1.350 . S
C323 N322 1.373 . S
C323 H344 0.931 . S
H324 C319 0.931 . S
H325 C320 0.930 . S
C326 O333 1.259 . S
C326 O334 1.258 . S
N327 Co318 2.057 . S
N327 C328 1.316 . S
N327 C329 1.375 . S
C328 N327 1.316 . S
C328 N330 1.347 . S
C328 H339 0.931 . S
C329 N327 1.375 . S
C329 C331 1.350 . S
C329 H338 0.930 . S
N330 C328 1.347 . S
N330 C331 1.373 . S
C331 C329 1.350 . S
C331 N330 1.373 . S
C331 H345 0.931 . S
C332 O335 1.256 . S
C332 O336 1.255 . S
O333 Co316 2.021 . S
O333 C326 1.259 . S
O334 Co318 2.117 . S
O334 C326 1.258 . S
O335 Co318 2.020 . S
O335 C332 1.256 . S
O336 Co316 2.062 . S
O336 C332 1.255 . S
O337 C317 1.259 . S
O337 Co318 2.021 . S
H338 C329 0.930 . S
H339 C328 0.931 . S
O340 Co316 2.117 . S
O340 C317 1.258 . S
O341 Co316 2.020 . S
O341 C343 1.256 . S
O342 Co318 2.062 . S
O342 C343 1.255 . S
C343 O341 1.256 . S
C343 O342 1.255 . S
H344 C323 0.931 . S
H345 C331 0.931 . S
Co346 N351 2.057 . S
Co346 O363 2.021 1_455 S
Co346 O366 2.062 1_455 S
Co346 O370 2.117 . S
Co346 O371 2.020 . S
C347 O367 1.259 . S
C347 O370 1.258 . S
Co348 N357 2.057 . S
Co348 O364 2.117 . S
Co348 O365 2.020 . S
Co348 O367 2.021 1_655 S
Co348 O372 2.062 1_655 S
C349 N351 1.316 . S
C349 N352 1.347 . S
C349 H354 0.931 1_455 S
C350 N351 1.375 . S
C350 C353 1.350 . S
C350 H355 0.930 . S
N351 Co346 2.057 . S
N351 C349 1.316 . S
N351 C350 1.375 . S
N352 C349 1.347 . S
N352 C353 1.373 . S
C353 C350 1.350 . S
C353 N352 1.373 . S
C353 H374 0.931 . S
H354 C349 0.931 1_655 S
H355 C350 0.930 . S
C356 O363 1.259 . S
C356 O364 1.258 . S
N357 Co348 2.057 . S
N357 C358 1.316 . S
N357 C359 1.375 . S
C358 N357 1.316 . S
C358 N360 1.347 . S
C358 H369 0.931 1_655 S
C359 N357 1.375 . S
C359 C361 1.350 . S
C359 H368 0.930 . S
N360 C358 1.347 . S
N360 C361 1.373 . S
C361 C359 1.350 . S
C361 N360 1.373 . S
C361 H375 0.931 . S
C362 O365 1.256 . S
C362 O366 1.255 . S
O363 Co346 2.021 1_655 S
O363 C356 1.259 . S
O364 Co348 2.117 . S
O364 C356 1.258 . S
O365 Co348 2.020 . S
O365 C362 1.256 . S
O366 Co346 2.062 1_655 S
O366 C362 1.255 . S
O367 C347 1.259 . S
O367 Co348 2.021 1_455 S
H368 C359 0.930 . S
H369 C358 0.931 1_455 S
O370 Co346 2.117 . S
O370 C347 1.258 . S
O371 Co346 2.020 . S
O371 C373 1.256 . S
O372 Co348 2.062 1_455 S
O372 C373 1.255 . S
C373 O371 1.256 . S
C373 O372 1.255 . S
H374 C353 0.931 . S
H375 C361 0.931 . S
C376 C377 1.363 . S
C376 C382 1.379 . S
C376 N384 1.356 . S
C377 C376 1.363 . S
C377 C383 1.363 . S
C378 C379 1.363 . S
C378 C383 1.379 . S
C378 N385 1.356 . S
C379 C378 1.363 . S
C379 C382 1.363 . S
N380 C382 1.356 . S
N380 H392 0.984 . S
N380 H393 0.985 . S
N381 C383 1.356 . S
N381 H386 0.984 . S
N381 H387 0.985 . S
C382 C376 1.379 . S
C382 C379 1.363 . S
C382 N380 1.356 . S
C383 C377 1.363 . S
C383 C378 1.379 . S
C383 N381 1.356 . S
N384 C376 1.356 . S
N384 H390 0.984 . S
N384 H391 0.984 . S
N385 C378 1.356 . S
N385 H388 0.984 . S
N385 H389 0.985 . S
H386 N381 0.984 . S
H387 N381 0.985 . S
H388 N385 0.984 . S
H389 N385 0.985 . S
H390 N384 0.984 . S
H391 N384 0.984 . S
H392 N380 0.984 . S
H393 N380 0.985 . S
C394 C395 1.363 . S
C394 C400 1.379 . S
C394 N402 1.356 . S
C395 C394 1.363 . S
C395 C401 1.363 . S
C396 C397 1.363 . S
C396 C401 1.379 . S
C396 N403 1.356 . S
C397 C396 1.363 . S
C397 C400 1.363 . S
N398 C400 1.356 . S
N398 H410 0.984 . S
N398 H411 0.985 . S
N399 C401 1.356 . S
N399 H404 0.984 . S
N399 H405 0.985 . S
C400 C394 1.379 . S
C400 C397 1.363 . S
C400 N398 1.356 . S
C401 C395 1.363 . S
C401 C396 1.379 . S
C401 N399 1.356 . S
N402 C394 1.356 . S
N402 H408 0.984 . S
N402 H409 0.984 . S
N403 C396 1.356 . S
N403 H406 0.984 . S
N403 H407 0.985 . S
H404 N399 0.984 . S
H405 N399 0.985 . S
H406 N403 0.984 . S
H407 N403 0.985 . S
H408 N402 0.984 . S
H409 N402 0.984 . S
H410 N398 0.984 . S
H411 N398 0.985 . S
C412 C413 1.363 . S
C412 C418 1.379 . S
C412 N420 1.356 . S
C413 C412 1.363 . S
C413 C419 1.363 . S
C414 C415 1.363 . S
C414 C419 1.379 . S
C414 N421 1.356 . S
C415 C414 1.363 . S
C415 C418 1.363 . S
N416 C418 1.356 . S
N416 H428 0.984 . S
N416 H429 0.985 . S
N417 C419 1.356 . S
N417 H422 0.984 . S
N417 H423 0.985 . S
C418 C412 1.379 . S
C418 C415 1.363 . S
C418 N416 1.356 . S
C419 C413 1.363 . S
C419 C414 1.379 . S
C419 N417 1.356 . S
N420 C412 1.356 . S
N420 H426 0.984 . S
N420 H427 0.984 . S
N421 C414 1.356 . S
N421 H424 0.984 . S
N421 H425 0.985 . S
H422 N417 0.984 . S
H423 N417 0.985 . S
H424 N421 0.984 . S
H425 N421 0.985 . S
H426 N420 0.984 . S
H427 N420 0.984 . S
H428 N416 0.984 . S
H429 N416 0.985 . S
C430 C431 1.363 . S
C430 C436 1.379 . S
C430 N438 1.356 . S
C431 C430 1.363 . S
C431 C437 1.363 1_655 S
C432 C433 1.363 1_455 S
C432 C437 1.379 . S
C432 N439 1.356 . S
C433 C432 1.363 1_655 S
C433 C436 1.363 . S
N434 C436 1.356 . S
N434 H446 0.984 . S
N434 H447 0.985 . S
N435 C437 1.356 . S
N435 H440 0.984 . S
N435 H441 0.985 . S
C436 C430 1.379 . S
C436 C433 1.363 . S
C436 N434 1.356 . S
C437 C431 1.363 1_455 S
C437 C432 1.379 . S
C437 N435 1.356 . S
N438 C430 1.356 . S
N438 H444 0.984 . S
N438 H445 0.984 . S
N439 C432 1.356 . S
N439 H442 0.984 . S
N439 H443 0.985 . S
H440 N435 0.984 . S
H441 N435 0.985 . S
H442 N439 0.984 . S
H443 N439 0.985 . S
H444 N438 0.984 . S
H445 N438 0.984 . S
H446 N434 0.984 . S
H447 N434 0.985 . S
C448 C449 1.363 . S
C448 C454 1.379 . S
C448 N456 1.356 . S
C449 C448 1.363 . S
C449 C455 1.363 1_556 S
C450 C451 1.363 . S
C450 C455 1.379 1_556 S
C450 N457 1.356 1_565 S
C451 C450 1.363 . S
C451 C454 1.363 . S
N452 C454 1.356 . S
N452 H464 0.984 . S
N452 H465 0.985 . S
N453 C455 1.356 . S
N453 H458 0.984 . S
N453 H459 0.985 . S
C454 C448 1.379 . S
C454 C451 1.363 . S
C454 N452 1.356 . S
C455 C449 1.363 1_554 S
C455 C450 1.379 1_554 S
C455 N453 1.356 . S
N456 C448 1.356 . S
N456 H462 0.984 . S
N456 H463 0.984 . S
N457 C450 1.356 1_545 S
N457 H460 0.984 . S
N457 H461 0.985 1_556 S
H458 N453 0.984 . S
H459 N453 0.985 . S
H460 N457 0.984 . S
H461 N457 0.985 1_554 S
H462 N456 0.984 . S
H463 N456 0.984 . S
H464 N452 0.984 . S
H465 N452 0.985 . S
C466 C467 1.363 1_556 S
C466 C472 1.379 . S
C466 N474 1.356 . S
C467 C466 1.363 1_554 S
C467 C473 1.363 . S
C468 C469 1.363 . S
C468 C473 1.379 1_556 S
C468 N475 1.356 . S
C469 C468 1.363 . S
C469 C472 1.363 . S
N470 C472 1.356 . S
N470 H482 0.984 . S
N470 H483 0.985 . S
N471 C473 1.356 . S
N471 H476 0.984 . S
N471 H477 0.985 . S
C472 C466 1.379 . S
C472 C469 1.363 . S
C472 N470 1.356 . S
C473 C467 1.363 . S
C473 C468 1.379 1_554 S
C473 N471 1.356 . S
N474 C466 1.356 . S
N474 H480 0.984 . S
N474 H481 0.984 1_556 S
N475 C468 1.356 . S
N475 H478 0.984 . S
N475 H479 0.985 . S
H476 N471 0.984 . S
H477 N471 0.985 . S
H478 N475 0.984 . S
H479 N475 0.985 . S
H480 N474 0.984 . S
H481 N474 0.984 1_554 S
H482 N470 0.984 . S
H483 N470 0.985 . S
C484 C485 1.363 . S
C484 C490 1.379 1_554 S
C484 N492 1.356 . S
C485 C484 1.363 . S
C485 C491 1.363 1_554 S
C486 C487 1.363 . S
C486 C491 1.379 . S
C486 N493 1.356 . S
C487 C486 1.363 . S
C487 C490 1.363 . S
N488 C490 1.356 . S
N488 H500 0.984 1_556 S
N488 H501 0.985 . S
N489 C491 1.356 . S
N489 H494 0.984 1_556 S
N489 H495 0.985 . S
C490 C484 1.379 1_556 S
C490 C487 1.363 . S
C490 N488 1.356 . S
C491 C485 1.363 1_556 S
C491 C486 1.379 . S
C491 N489 1.356 . S
N492 C484 1.356 . S
N492 H498 0.984 . S
N492 H499 0.984 . S
N493 C486 1.356 . S
N493 H496 0.984 . S
N493 H497 0.985 . S
H494 N489 0.984 1_554 S
H495 N489 0.985 . S
H496 N493 0.984 . S
H497 N493 0.985 . S
H498 N492 0.984 . S
H499 N492 0.984 . S
H500 N488 0.984 1_554 S
H501 N488 0.985 . S
C502 C503 1.363 1_656 S
C502 C508 1.377 1_655 S
C502 N510 1.356 . S
C503 C502 1.363 1_454 S
C503 C509 1.363 . S
C504 C505 1.363 . S
C504 C509 1.379 1_556 S
C504 N511 1.356 . S
C505 C504 1.363 . S
C505 C508 1.367 . S
N506 C508 1.355 1_655 S
N506 H518 0.984 . S
N506 H519 0.985 1_655 S
N507 C509 1.356 . S
N507 H512 0.984 . S
N507 H513 0.985 . S
C508 C502 1.377 1_455 S
C508 C505 1.367 . S
C508 N506 1.355 1_455 S
C509 C503 1.363 . S
C509 C504 1.379 1_554 S
C509 N507 1.356 . S
N510 C502 1.356 . S
N510 H516 0.984 . S
N510 H517 0.984 1_556 S
N511 C504 1.356 . S
N511 H514 0.984 . S
N511 H515 0.985 1_556 S
H512 N507 0.984 . S
H513 N507 0.985 . S
H514 N511 0.984 . S
H515 N511 0.985 1_554 S
H516 N510 0.984 . S
H517 N510 0.984 1_554 S
H518 N506 0.984 . S
H519 N506 0.985 1_455 S
C520 C521 1.363 1_655 S
C520 C526 1.379 . S
C520 N528 1.356 . S
C521 C520 1.363 1_455 S
C521 C527 1.363 . S
C522 C523 1.363 . S
C522 C527 1.379 1_655 S
C522 N529 1.356 . S
C523 C522 1.363 . S
C523 C526 1.363 . S
N524 C526 1.356 . S
N524 H536 0.984 . S
N524 H537 0.985 . S
N525 C527 1.356 . S
N525 H530 0.984 . S
N525 H531 0.985 . S
C526 C520 1.379 . S
C526 C523 1.363 . S
C526 N524 1.356 . S
C527 C521 1.363 . S
C527 C522 1.379 1_455 S
C527 N525 1.356 . S
N528 C520 1.356 . S
N528 H534 0.984 . S
N528 H535 0.984 . S
N529 C522 1.356 . S
N529 H532 0.995 . S
N529 H533 0.975 1_655 S
H530 N525 0.984 . S
H531 N525 0.985 . S
H532 N529 0.995 . S
H533 N529 0.975 1_455 S
H534 N528 0.984 . S
H535 N528 0.984 . S
H536 N524 0.984 . S
H537 N524 0.985 . S
C538 C539 1.363 . S
C538 C544 1.379 . S
C538 N546 1.356 . S
C539 C538 1.363 . S
C539 C545 1.363 . S
C540 C541 1.363 . S
C540 C545 1.379 . S
C540 N547 1.356 . S
C541 C540 1.363 . S
C541 C544 1.363 . S
N542 C544 1.356 . S
N542 H554 0.984 . S
N542 H555 0.985 . S
N543 C545 1.356 . S
N543 H548 0.984 . S
N543 H549 0.985 . S
C544 C538 1.379 . S
C544 C541 1.363 . S
C544 N542 1.356 . S
C545 C539 1.363 . S
C545 C540 1.379 . S
C545 N543 1.356 . S
N546 C538 1.356 . S
N546 H552 0.984 . S
N546 H553 0.984 . S
N547 C540 1.356 . S
N547 H550 0.984 . S
N547 H551 0.985 . S
H548 N543 0.984 . S
H549 N543 0.985 . S
H550 N547 0.984 . S
H551 N547 0.985 . S
H552 N546 0.984 . S
H553 N546 0.984 . S
H554 N542 0.984 . S
H555 N542 0.985 . S
C556 C557 1.363 . S
C556 C562 1.379 . S
C556 N564 1.356 . S
C557 C556 1.363 . S
C557 C563 1.363 . S
C558 C559 1.363 . S
C558 C563 1.379 . S
C558 N565 1.356 . S
C559 C558 1.363 . S
C559 C562 1.363 . S
N560 C562 1.356 . S
N560 H572 0.984 . S
N560 H573 0.985 . S
N561 C563 1.356 . S
N561 H566 0.984 . S
N561 H567 0.985 . S
C562 C556 1.379 . S
C562 C559 1.363 . S
C562 N560 1.356 . S
C563 C557 1.363 . S
C563 C558 1.379 . S
C563 N561 1.356 . S
N564 C556 1.356 . S
N564 H570 0.984 . S
N564 H571 0.984 . S
N565 C558 1.356 . S
N565 H568 0.984 . S
N565 H569 0.985 . S
H566 N561 0.984 . S
H567 N561 0.985 . S
H568 N565 0.984 . S
H569 N565 0.985 . S
H570 N564 0.984 . S
H571 N564 0.984 . S
H572 N560 0.984 . S
H573 N560 0.985 . S
C574 C575 1.363 . S
C574 C580 1.379 . S
C574 N582 1.356 . S
C575 C574 1.363 . S
C575 C581 1.363 . S
C576 C577 1.363 . S
C576 C581 1.379 . S
C576 N583 1.356 . S
C577 C576 1.363 . S
C577 C580 1.363 . S
N578 C580 1.356 . S
N578 H590 0.984 . S
N578 H591 0.985 . S
N579 C581 1.356 . S
N579 H584 0.984 . S
N579 H585 0.985 . S
C580 C574 1.379 . S
C580 C577 1.363 . S
C580 N578 1.356 . S
C581 C575 1.363 . S
C581 C576 1.379 . S
C581 N579 1.356 . S
N582 C574 1.356 . S
N582 H588 0.984 . S
N582 H589 0.984 . S
N583 C576 1.356 . S
N583 H586 0.984 . S
N583 H587 0.985 . S
H584 N579 0.984 . S
H585 N579 0.985 . S
H586 N583 0.984 . S
H587 N583 0.985 . S
H588 N582 0.984 . S
H589 N582 0.984 . S
H590 N578 0.984 . S
H591 N578 0.985 . S
C592 C593 1.363 . S
C592 C598 1.379 . S
C592 N600 1.361 . S
C593 C592 1.363 . S
C593 C599 1.363 1_655 S
C594 C595 1.363 . S
C594 C599 1.379 . S
C594 N601 1.356 . S
C595 C594 1.363 . S
C595 C598 1.363 1_455 S
N596 C598 1.356 1_554 S
N596 H608 0.984 . S
N596 H609 0.985 1_655 S
N597 C599 1.356 . S
N597 H602 0.984 . S
N597 H603 0.985 . S
C598 C592 1.379 . S
C598 C595 1.363 1_655 S
C598 N596 1.356 1_556 S
C599 C593 1.363 1_455 S
C599 C594 1.379 . S
C599 N597 1.356 . S
N600 C592 1.361 . S
N600 H606 0.973 1_556 S
N600 H607 0.992 . S
N601 C594 1.356 . S
N601 H604 0.984 . S
N601 H605 0.985 . S
H602 N597 0.984 . S
H603 N597 0.985 . S
H604 N601 0.984 . S
H605 N601 0.985 . S
H606 N600 0.973 1_554 S
H607 N600 0.992 . S
H608 N596 0.984 . S
H609 N596 0.985 1_455 S
C610 C611 1.363 . S
C610 C616 1.379 . S
C610 N618 1.356 1_556 S
C611 C610 1.363 . S
C611 C617 1.363 . S
C612 C613 1.363 . S
C612 C617 1.379 . S
C612 N619 1.356 1_565 S
C613 C612 1.363 . S
C613 C616 1.363 . S
N614 C616 1.356 1_554 S
N614 H626 0.984 . S
N614 H627 0.985 1_554 S
N615 C617 1.356 . S
N615 H620 0.984 . S
N615 H621 0.985 . S
C616 C610 1.379 . S
C616 C613 1.363 . S
C616 N614 1.356 1_556 S
C617 C611 1.363 . S
C617 C612 1.379 . S
C617 N615 1.356 . S
N618 C610 1.356 1_554 S
N618 H624 0.984 . S
N618 H625 0.984 1_554 S
N619 C612 1.356 1_545 S
N619 H622 0.984 . S
N619 H623 0.985 . S
H620 N615 0.984 . S
H621 N615 0.985 . S
H622 N619 0.984 . S
H623 N619 0.985 . S
H624 N618 0.984 . S
H625 N618 0.984 1_556 S
H626 N614 0.984 . S
H627 N614 0.985 1_556 S
C628 C629 1.363 . S
C628 C634 1.379 . S
C628 N636 1.356 1_556 S
C629 C628 1.363 . S
C629 C635 1.363 . S
C630 C631 1.363 . S
C630 C635 1.379 . S
C630 N637 1.356 . S
C631 C630 1.363 . S
C631 C634 1.363 . S
N632 C634 1.356 1_554 S
N632 H644 0.984 . S
N632 H645 0.985 1_554 S
N633 C635 1.356 . S
N633 H638 0.984 . S
N633 H639 0.985 . S
C634 C628 1.379 . S
C634 C631 1.363 . S
C634 N632 1.356 1_556 S
C635 C629 1.363 . S
C635 C630 1.379 . S
C635 N633 1.356 . S
N636 C628 1.356 1_554 S
N636 H642 0.984 . S
N636 H643 0.984 . S
N637 C630 1.356 . S
N637 H640 0.984 . S
N637 H641 0.985 . S
H638 N633 0.984 . S
H639 N633 0.985 . S
H640 N637 0.984 . S
H641 N637 0.985 . S
H642 N636 0.984 . S
H643 N636 0.984 . S
H644 N632 0.984 . S
H645 N632 0.985 1_556 S
C646 C647 1.363 . S
C646 C652 1.379 . S
C646 N654 1.356 1_556 S
C647 C646 1.363 . S
C647 C653 1.363 . S
C648 C649 1.363 . S
C648 C653 1.379 . S
C648 N655 1.356 . S
C649 C648 1.363 . S
C649 C652 1.363 . S
N650 C652 1.356 1_554 S
N650 H662 0.984 . S
N650 H663 0.985 1_554 S
N651 C653 1.356 . S
N651 H656 0.984 . S
N651 H657 0.985 . S
C652 C646 1.379 . S
C652 C649 1.363 . S
C652 N650 1.356 1_556 S
C653 C647 1.363 . S
C653 C648 1.379 . S
C653 N651 1.356 . S
N654 C646 1.356 1_554 S
N654 H660 0.984 . S
N654 H661 0.984 . S
N655 C648 1.356 . S
N655 H658 0.984 . S
N655 H659 0.985 . S
H656 N651 0.984 . S
H657 N651 0.985 . S
H658 N655 0.984 . S
H659 N655 0.985 . S
H660 N654 0.984 . S
H661 N654 0.984 . S
H662 N650 0.984 . S
H663 N650 0.985 1_556 S
C664 C665 1.363 . S
C664 C670 1.379 . S
C664 N672 1.356 . S
C665 C664 1.363 . S
C665 C671 1.363 1_455 S
C666 C667 1.363 1_655 S
C666 C671 1.379 . S
C666 N673 1.356 1_554 S
C667 C666 1.363 1_455 S
C667 C670 1.363 . S
N668 C670 1.356 . S
N668 H680 0.984 . S
N668 H681 0.985 . S
N669 C671 1.356 . S
N669 H674 0.984 . S
N669 H675 0.985 . S
C670 C664 1.379 . S
C670 C667 1.363 . S
C670 N668 1.356 . S
C671 C665 1.363 1_655 S
C671 C666 1.379 . S
C671 N669 1.356 . S
N672 C664 1.356 . S
N672 H678 0.984 . S
N672 H679 0.984 . S
N673 C666 1.356 1_556 S
N673 H676 0.989 . S
N673 H677 0.985 . S
H674 N669 0.984 . S
H675 N669 0.985 . S
H676 N673 0.989 . S
H677 N673 0.985 . S
H678 N672 0.984 . S
H679 N672 0.984 . S
H680 N668 0.984 . S
H681 N668 0.985 . S
C682 C683 1.363 . S
C682 C688 1.379 . S
C682 N690 1.356 . S
C683 C682 1.363 . S
C683 C689 1.363 . S
C684 C685 1.363 . S
C684 C689 1.379 . S
C684 N691 1.356 . S
C685 C684 1.363 . S
C685 C688 1.363 . S
N686 C688 1.356 . S
N686 H698 0.984 1_545 S
N686 H699 0.985 . S
N687 C689 1.356 . S
N687 H692 0.984 . S
N687 H693 0.985 . S
C688 C682 1.379 . S
C688 C685 1.363 . S
C688 N686 1.356 . S
C689 C683 1.363 . S
C689 C684 1.379 . S
C689 N687 1.356 . S
N690 C682 1.356 . S
N690 H696 0.984 . S
N690 H697 0.984 . S
N691 C684 1.356 . S
N691 H694 0.984 . S
N691 H695 0.985 . S
H692 N687 0.984 . S
H693 N687 0.985 . S
H694 N691 0.984 . S
H695 N691 0.985 . S
H696 N690 0.984 . S
H697 N690 0.984 . S
H698 N686 0.984 1_565 S
H699 N686 0.985 . S
C700 C701 1.363 . S
C700 C706 1.379 . S
C700 N708 1.356 . S
C701 C700 1.363 . S
C701 C707 1.363 . S
C702 C703 1.363 . S
C702 C707 1.379 . S
C702 N709 1.356 . S
C703 C702 1.363 . S
C703 C706 1.363 . S
N704 C706 1.356 1_556 S
N704 H716 0.984 . S
N704 H717 0.985 . S
N705 C707 1.356 . S
N705 H710 0.984 . S
N705 H711 0.985 . S
C706 C700 1.379 . S
C706 C703 1.363 . S
C706 N704 1.356 1_554 S
C707 C701 1.363 . S
C707 C702 1.379 . S
C707 N705 1.356 . S
N708 C700 1.356 . S
N708 H714 0.984 . S
N708 H715 0.984 . S
N709 C702 1.356 . S
N709 H712 0.984 . S
N709 H713 0.985 . S
H710 N705 0.984 . S
H711 N705 0.985 . S
H712 N709 0.984 . S
H713 N709 0.985 . S
H714 N708 0.984 . S
H715 N708 0.984 . S
H716 N704 0.984 . S
H717 N704 0.985 . S
C718 C719 1.363 . S
C718 C724 1.379 . S
C718 N726 1.356 . S
C719 C718 1.363 . S
C719 C725 1.363 . S
C720 C721 1.363 1_556 S
C720 C725 1.379 1_556 S
C720 N727 1.356 . S
C721 C720 1.363 1_554 S
C721 C724 1.363 . S
N722 C724 1.356 . S
N722 H734 0.984 . S
N722 H735 0.985 . S
N723 C725 1.356 . S
N723 H728 0.984 . S
N723 H729 0.985 1_554 S
C724 C718 1.379 . S
C724 C721 1.363 . S
C724 N722 1.356 . S
C725 C719 1.363 . S
C725 C720 1.379 1_554 S
C725 N723 1.356 . S
N726 C718 1.356 . S
N726 H732 0.984 . S
N726 H733 0.984 . S
N727 C720 1.356 . S
N727 H730 0.984 . S
N727 H731 0.985 . S
H728 N723 0.984 . S
H729 N723 0.985 1_556 S
H730 N727 0.984 . S
H731 N727 0.985 . S
H732 N726 0.984 . S
H733 N726 0.984 . S
H734 N722 0.984 . S
H735 N722 0.985 . S
C736 C737 1.363 . S
C736 C742 1.379 . S
C736 N744 1.356 . S
C737 C736 1.363 . S
C737 C743 1.363 1_655 S
C738 C739 1.363 1_455 S
C738 C743 1.379 . S
C738 N745 1.356 . S
C739 C738 1.363 1_655 S
C739 C742 1.363 . S
N740 C742 1.356 . S
N740 H752 0.984 . S
N740 H753 0.985 . S
N741 C743 1.356 . S
N741 H746 0.984 . S
N741 H747 0.985 . S
C742 C736 1.379 . S
C742 C739 1.363 . S
C742 N740 1.356 . S
C743 C737 1.363 1_455 S
C743 C738 1.379 . S
C743 N741 1.356 . S
N744 C736 1.356 . S
N744 H750 0.984 . S
N744 H751 0.984 . S
N745 C738 1.356 . S
N745 H748 0.984 . S
N745 H749 0.985 . S
H746 N741 0.984 . S
H747 N741 0.985 . S
H748 N745 0.984 . S
H749 N745 0.985 . S
H750 N744 0.984 . S
H751 N744 0.984 . S
H752 N740 0.984 . S
H753 N740 0.985 . S
C754 C755 1.363 . S
C754 C760 1.379 . S
C754 N762 1.356 . S
C755 C754 1.363 . S
C755 C761 1.363 . S
C756 C757 1.363 . S
C756 C761 1.379 . S
C756 N763 1.356 . S
C757 C756 1.363 . S
C757 C760 1.363 . S
N758 C760 1.356 . S
N758 H770 0.984 . S
N758 H771 0.985 . S
N759 C761 1.356 . S
N759 H764 0.984 . S
N759 H765 0.985 . S
C760 C754 1.379 . S
C760 C757 1.363 . S
C760 N758 1.356 . S
C761 C755 1.363 . S
C761 C756 1.379 . S
C761 N759 1.356 . S
N762 C754 1.356 . S
N762 H768 0.984 . S
N762 H769 0.984 . S
N763 C756 1.356 . S
N763 H766 0.984 . S
N763 H767 0.985 . S
H764 N759 0.984 . S
H765 N759 0.985 . S
H766 N763 0.984 . S
H767 N763 0.985 . S
H768 N762 0.984 . S
H769 N762 0.984 . S
H770 N758 0.984 . S
H771 N758 0.985 . S
C772 C773 1.363 . S
C772 C778 1.379 . S
C772 N780 1.356 . S
C773 C772 1.363 . S
C773 C779 1.363 . S
C774 C775 1.363 . S
C774 C779 1.379 . S
C774 N781 1.356 . S
C775 C774 1.363 . S
C775 C778 1.363 . S
N776 C778 1.356 . S
N776 H788 0.984 . S
N776 H789 0.985 . S
N777 C779 1.356 . S
N777 H782 0.984 . S
N777 H783 0.985 . S
C778 C772 1.379 . S
C778 C775 1.363 . S
C778 N776 1.356 . S
C779 C773 1.363 . S
C779 C774 1.379 . S
C779 N777 1.356 . S
N780 C772 1.356 . S
N780 H786 0.984 . S
N780 H787 0.984 . S
N781 C774 1.356 . S
N781 H784 0.984 . S
N781 H785 0.985 . S
H782 N777 0.984 . S
H783 N777 0.985 . S
H784 N781 0.984 . S
H785 N781 0.985 . S
H786 N780 0.984 . S
H787 N780 0.984 . S
H788 N776 0.984 . S
H789 N776 0.985 . S
C790 C791 1.363 . S
C790 C796 1.379 . S
C790 N798 1.356 . S
C791 C790 1.363 . S
C791 C797 1.363 . S
C792 C793 1.363 . S
C792 C797 1.379 . S
C792 N799 1.356 . S
C793 C792 1.363 . S
C793 C796 1.363 . S
N794 C796 1.356 . S
N794 H806 0.984 . S
N794 H807 0.985 . S
N795 C797 1.356 . S
N795 H800 0.984 . S
N795 H801 0.985 . S
C796 C790 1.379 . S
C796 C793 1.363 . S
C796 N794 1.356 . S
C797 C791 1.363 . S
C797 C792 1.379 . S
C797 N795 1.356 . S
N798 C790 1.356 . S
N798 H804 0.984 . S
N798 H805 0.984 . S
N799 C792 1.356 . S
N799 H802 0.984 . S
N799 H803 0.985 . S
H800 N795 0.984 . S
H801 N795 0.985 . S
H802 N799 0.984 . S
H803 N799 0.985 . S
H804 N798 0.984 . S
H805 N798 0.984 . S
H806 N794 0.984 . S
H807 N794 0.985 . S
C377 C215 1.902 . S
C379 C266 1.862 . S
C397 C296 1.778 . S
C395 C247 1.720 . S
C415 N330 1.728 . S
C413 C151 1.765 . S
C433 N360 1.407 . S
C431 C183 1.490 1_655 S
C451 C257 1.866 1_565 S
C449 C87 1.724 1_556 S
C467 C119 1.757 . S
C469 C287 1.778 . S
C485 C23 1.601 . S
C487 N322 1.728 . S
C503 C55 1.437 . S
C505 N352 1.409 . S
C523 C272 0.597 . S
C521 C189 0.574 . S
C541 C302 1.117 . S
C539 C221 1.119 . S
C559 C343 1.026 . S
C557 C253 1.000 . S
C575 C157 1.071 . S
C577 C373 1.015 . S
C593 C61 0.706 1_655 S
C595 C283 0.593 . S
C613 C313 1.117 1_565 S
C611 C93 0.942 . S
C631 C332 1.027 . S
C629 C125 1.011 . S
C647 C29 0.862 . S
C649 C362 1.021 . S
C665 C177 1.520 . S
C667 N262 1.598 . S
C683 C209 1.701 . S
C685 N292 1.744 . S
C703 C317 1.852 1_554 S
C701 C241 1.735 . S
C721 C347 2.001 1_554 S
C719 C145 1.957 . S
C737 C49 1.561 1_655 S
C739 N270 1.599 . S
C757 N300 1.744 . S
C755 C81 1.616 . S
C775 C326 1.852 . S
C773 C113 1.805 . S
C791 C17 1.809 . S
C793 C356 2.004 . S
