# Generated by pormake.
# Topology anh, (6,3)-cn, num edge types: 1
# Building blocks:
#     Node 0, Type 0, BuildingBlock: PAMTUU_clean_sbu_0, # of connection points: 6
#     Node 1, Type 0, BuildingBlock: PAMTUU_clean_sbu_0, # of connection points: 6
#     Node 2, Type 0, BuildingBlock: PAMTUU_clean_sbu_0, # of connection points: 6
#     Node 3, Type 1, BuildingBlock: BELTOD_clean_linker_0, # of connection points: 3
#     Node 4, Type 1, BuildingBlock: BELTOD_clean_linker_0, # of connection points: 3
#     Node 5, Type 1, BuildingBlock: BELTOD_clean_linker_0, # of connection points: 3
#     Node 6, Type 1, BuildingBlock: BELTOD_clean_linker_0, # of connection points: 3
#     Node 7, Type 1, BuildingBlock: BELTOD_clean_linker_0, # of connection points: 3
#     Node 8, Type 1, BuildingBlock: BELTOD_clean_linker_0, # of connection points: 3
#     Edge 9, Type (0, 1), BuildingBlock: XUDNAN_clean_linker_2, # of connection points: 2
#     Edge 10, Type (0, 1), BuildingBlock: XUDNAN_clean_linker_2, # of connection points: 2
#     Edge 11, Type (0, 1), BuildingBlock: XUDNAN_clean_linker_2, # of connection points: 2
#     Edge 12, Type (0, 1), BuildingBlock: XUDNAN_clean_linker_2, # of connection points: 2
#     Edge 13, Type (0, 1), BuildingBlock: XUDNAN_clean_linker_2, # of connection points: 2
#     Edge 14, Type (0, 1), BuildingBlock: XUDNAN_clean_linker_2, # of connection points: 2
#     Edge 15, Type (0, 1), BuildingBlock: XUDNAN_clean_linker_2, # of connection points: 2
#     Edge 16, Type (0, 1), BuildingBlock: XUDNAN_clean_linker_2, # of connection points: 2
#     Edge 17, Type (0, 1), BuildingBlock: XUDNAN_clean_linker_2, # of connection points: 2
#     Edge 18, Type (0, 1), BuildingBlock: XUDNAN_clean_linker_2, # of connection points: 2
#     Edge 19, Type (0, 1), BuildingBlock: XUDNAN_clean_linker_2, # of connection points: 2
#     Edge 20, Type (0, 1), BuildingBlock: XUDNAN_clean_linker_2, # of connection points: 2
#     Edge 21, Type (0, 1), BuildingBlock: XUDNAN_clean_linker_2, # of connection points: 2
#     Edge 22, Type (0, 1), BuildingBlock: XUDNAN_clean_linker_2, # of connection points: 2
#     Edge 23, Type (0, 1), BuildingBlock: XUDNAN_clean_linker_2, # of connection points: 2
#     Edge 24, Type (0, 1), BuildingBlock: XUDNAN_clean_linker_2, # of connection points: 2
#     Edge 25, Type (0, 1), BuildingBlock: XUDNAN_clean_linker_2, # of connection points: 2
#     Edge 26, Type (0, 1), BuildingBlock: XUDNAN_clean_linker_2, # of connection points: 2
# Relax obj value: 0.245
# Max RMSD: 0.183
# Mean RMSD: 0.148
data_MOF--net-anh--node1-PAMTUU_clean_sbu_0--node2-BELTOD_clean_linker_0--edge1-XUDNAN_clean_linker_2
_symmetry_space_group_name_H-M    P1
_symmetry_Int_Tables_number       1
_symmetry_cell_setting            triclinic
loop_
_symmetry_equiv_pos_as_xyz
'x, y, z'
_cell_length_a     33.617029
_cell_length_b     33.680317
_cell_length_c     60.74306
_cell_angle_alpha  92.244776
_cell_angle_beta   92.389107
_cell_angle_gamma 119.83244
loop_
_atom_site_label
_atom_site_type_symbol
_atom_site_fract_x
_atom_site_fract_y
_atom_site_fract_z
_atom_type_partial_charge
Tb0 Tb 1.09477 0.62278 0.16994 0.0
Tb1 Tb 0.1564 0.57314 0.17274 0.0
C2 C 0.12333 0.59071 0.12772 0.0
C3 C 0.98937 0.62658 0.1729 0.0
C4 C 0.89506 0.5625 0.17496 0.0
C5 C 0.91037 0.59274 0.15787 0.0
C6 C 0.95702 0.62455 0.15693 0.0
C7 C 0.97402 0.59836 0.1907 0.0
C8 C 0.92731 0.56694 0.19181 0.0
C9 C 1.03848 0.65141 0.16864 0.0
O10 O 1.04651 0.54984 0.16348 0.0
O11 O 1.08646 0.51943 0.18026 0.0
O12 O 0.167 0.60997 0.20404 0.0
O13 O 1.09598 0.60229 0.2037 0.0
O14 O 0.1741 0.52861 0.18807 0.0
O15 O 0.20875 0.56475 0.15991 0.0
O16 O 0.2074 0.64652 0.17026 0.0
O17 O 0.16392 0.68161 0.17499 0.0
O18 O 0.12147 0.62523 0.13746 0.0
O19 O 0.12512 0.55975 0.13943 0.0
C20 C 1.04718 0.5154 0.17253 0.0
O21 O 1.06793 0.66049 0.18543 0.0
O22 O 1.04846 0.63498 0.1513 0.0
C23 C 0.1332 0.60799 0.21464 0.0
C24 C 0.20239 0.4931 0.16401 0.0
C25 C 0.20525 0.41964 0.14183 0.0
C26 C 0.24272 0.45202 0.15596 0.0
C27 C 0.24119 0.48828 0.16696 0.0
C28 C 0.16433 0.46049 0.15042 0.0
C29 C 0.16569 0.42389 0.13944 0.0
C30 C 0.20417 0.53442 0.17379 0.0
C31 C 0.20386 0.6838 0.17308 0.0
H32 H 0.88687 0.59001 0.14438 0.0
H33 H 0.96815 0.6455 0.1429 0.0
H34 H 0.99826 0.5988 0.20317 0.0
H35 H 0.91675 0.54487 0.20542 0.0
H36 H 0.27416 0.45062 0.15784 0.0
H37 H 0.27102 0.5135 0.17723 0.0
H38 H 0.13415 0.464 0.1479 0.0
H39 H 0.13614 0.3994 0.12882 0.0
Tb40 Tb 0.56481 0.12773 0.50897 0.0
Tb41 Tb 0.67323 0.17219 0.49966 0.0
C42 C 0.59759 0.13638 0.46096 0.0
C43 C 0.45158 1.05094 0.52946 0.0
C44 C 0.38789 0.96635 0.54515 0.0
C45 C 0.43093 0.97417 0.53876 0.0
C46 C 0.46253 1.01614 0.53121 0.0
C47 C 0.41012 1.04468 0.53693 0.0
C48 C 0.37855 1.00274 0.54487 0.0
C49 C 0.48227 0.09247 0.51866 0.0
O50 O 0.57332 1.06797 0.50318 0.0
O51 O 0.65127 0.10287 0.51054 0.0
O52 O 0.67174 0.19592 0.53268 0.0
O53 O 0.60407 0.13338 0.5398 0.0
O54 O 0.72989 0.21142 0.48096 0.0
O55 O 0.73409 0.17219 0.50755 0.0
O56 O 0.66293 0.23228 0.49872 0.0
O57 O 0.5884 0.20065 0.50927 0.0
O58 O 0.56948 0.14086 0.4739 0.0
O59 O 0.63413 0.1363 0.46915 0.0
C60 C 0.61055 1.06544 0.50786 0.0
O61 O 0.51691 0.12424 0.53112 0.0
O62 O 0.49481 0.08541 0.49954 0.0
C63 C 0.64434 0.16855 0.54665 0.0
C64 C 0.80407 0.23577 0.49864 0.0
C65 C 0.90008 0.28547 0.50696 0.0
C66 C 0.87994 0.28196 0.4857 0.0
C67 C 0.83239 0.25718 0.48158 0.0
C68 C 0.82388 0.24233 0.52032 0.0
C69 C 0.87167 0.26717 0.52445 0.0
C70 C 0.75606 0.20043 0.49263 0.0
C71 C 0.62696 0.23596 0.50397 0.0
H72 H 0.43942 0.94709 0.53818 0.0
H73 H 0.49467 1.02064 0.52571 0.0
H74 H 0.4015 0.0716 0.53592 0.0
H75 H 0.34615 0.99825 0.54995 0.0
H76 H 0.9011 0.29678 0.47202 0.0
H77 H 0.81789 0.25247 0.46476 0.0
H78 H 0.80275 0.22614 0.53383 0.0
H79 H 0.88638 0.26969 0.54101 0.0
Tb80 Tb 0.54921 0.528 0.83308 0.0
Tb81 Tb 0.62248 0.6381 0.83886 0.0
C82 C 0.58727 0.58735 0.79203 0.0
C83 C 0.524 0.41191 0.83048 0.0
C84 C 0.59274 0.38742 0.82884 0.0
C85 C 0.56786 0.38629 0.80937 0.0
C86 C 0.53387 0.39855 0.81018 0.0
C87 C 0.54393 0.40618 0.85008 0.0
C88 C 0.57824 0.39444 0.84927 0.0
C89 C 0.50351 0.442 0.83111 0.0
O90 O 0.61608 0.53415 0.842 0.0
O91 O 0.66547 0.60732 0.83274 0.0
O92 O 0.62382 0.60705 0.8695 0.0
O93 O 0.54838 0.55518 0.8657 0.0
O94 O 0.67993 0.69741 0.82954 0.0
O95 O 0.64677 0.69872 0.85915 0.0
O96 O 0.55407 0.63135 0.84115 0.0
O97 O 0.50372 0.55612 0.82822 0.0
O98 O 0.57708 0.54902 0.80121 0.0
O99 O 0.59822 0.62517 0.80404 0.0
C100 C 0.65768 0.56666 0.83804 0.0
O101 O 0.51302 0.46757 0.84937 0.0
O102 O 0.5085 0.46576 0.81391 0.0
C103 C 0.58649 0.57708 0.87819 0.0
C104 C 0.68634 0.7678 0.84158 0.0
C105 C 0.70685 0.85657 0.83173 0.0
C106 C 0.67238 0.81796 0.81895 0.0
C107 C 0.66219 0.77377 0.82385 0.0
C108 C 0.71968 0.80602 0.85469 0.0
C109 C 0.72986 0.85005 0.84984 0.0
C110 C 0.67928 0.72255 0.84625 0.0
C111 C 0.5121 0.59752 0.83483 0.0
H112 H 0.57678 0.37902 0.79337 0.0
H113 H 0.51838 0.40155 0.79479 0.0
H114 H 0.53654 0.41531 0.86607 0.0
H115 H 0.5962 0.39528 0.86465 0.0
H116 H 0.65431 0.82199 0.80481 0.0
H117 H 0.63629 0.74445 0.81357 0.0
H118 H 0.73846 0.80184 0.8685 0.0
H119 H 0.756 0.87905 0.8602 0.0
P120 P 0.64921 0.08636 0.22968 0.0
H121 H 0.61773 1.00032 0.20208 0.0
H122 H 0.54125 0.93875 0.18858 0.0
H123 H 0.48389 1.02252 0.20971 0.0
H124 H 0.56065 0.08421 0.22257 0.0
H125 H 0.74203 0.15421 0.24665 0.0
H126 H 0.80259 0.22556 0.23404 0.0
H127 H 0.71573 0.20706 0.17551 0.0
H128 H 0.65414 0.13667 0.18919 0.0
H129 H 0.58422 1.02278 0.25881 0.0
H130 H 0.67782 0.16881 0.26066 0.0
O131 O 0.67607 1.05659 0.23379 0.0
H132 H 0.56295 1.03145 0.29599 0.0
H133 H 0.65819 0.17702 0.29829 0.0
C134 C 0.59553 1.04752 0.21328 0.0
C135 C 0.58894 1.00608 0.20326 0.0
C136 C 0.54471 0.97027 0.19584 0.0
C137 C 0.50551 0.97471 0.1982 0.0
C138 C 0.51272 1.01733 0.20725 0.0
C139 C 0.557 1.05315 0.21458 0.0
C140 C 0.69283 0.14018 0.21918 0.0
C141 C 0.73573 0.16577 0.23119 0.0
C142 C 0.77093 0.20667 0.22371 0.0
C143 C 0.76503 0.22323 0.20359 0.0
C144 C 0.722 0.19677 0.19133 0.0
C145 C 0.68641 0.15599 0.19906 0.0
C146 C 0.63269 0.09503 0.25676 0.0
C147 C 0.60012 1.05675 0.26712 0.0
C148 C 0.58795 1.06167 0.28838 0.0
C149 C 0.60899 0.10488 0.30001 0.0
C150 C 0.64165 0.14327 0.2897 0.0
C151 C 0.653 0.13849 0.26816 0.0
P152 P 0.67425 0.67984 0.56274 0.0
H153 H 0.73096 0.65021 0.53889 0.0
H154 H 0.71717 0.57515 0.52495 0.0
H155 H 0.57404 0.51588 0.53787 0.0
H156 H 0.58818 0.59142 0.55173 0.0
H157 H 0.71023 0.77681 0.57438 0.0
H158 H 0.69085 0.83395 0.56307 0.0
H159 H 0.58291 0.73197 0.51742 0.0
H160 H 0.60216 0.67425 0.52948 0.0
H161 H 0.67782 0.61292 0.59025 0.0
H162 H 0.63039 0.71041 0.59609 0.0
O163 O 0.73149 0.70984 0.56647 0.0
H164 H 0.65566 0.59025 0.62735 0.0
H165 H 0.60857 0.68801 0.63362 0.0
C166 C 0.66049 0.62723 0.54617 0.0
C167 C 0.69624 0.62144 0.53827 0.0
C168 C 0.68848 0.57799 0.53057 0.0
C169 C 0.64456 0.53872 0.53039 0.0
C170 C 0.60835 0.545 0.53746 0.0
C171 C 0.61624 0.58852 0.54527 0.0
C172 C 0.65811 0.72098 0.55269 0.0
C173 C 0.68252 0.7666 0.56178 0.0
C174 C 0.67149 0.79967 0.55514 0.0
C175 C 0.63538 0.78845 0.53907 0.0
C176 C 0.6107 0.74239 0.52997 0.0
C177 C 0.62182 0.7091 0.53675 0.0
C178 C 0.65485 0.66262 0.59 0.0
C179 C 0.66211 0.62914 0.59938 0.0
C180 C 0.64952 0.61624 0.6207 0.0
C181 C 0.62996 0.63703 0.63342 0.0
C182 C 0.62363 0.67142 0.62426 0.0
C183 C 0.63584 0.68401 0.6027 0.0
P184 P 1.10466 0.61563 0.88966 0.0
H185 H 0.15103 0.64412 0.84853 0.0
H186 H 0.21836 0.64401 0.83472 0.0
H187 H 0.21673 0.56035 0.88703 0.0
H188 H 0.1499 0.56049 0.9007 0.0
H189 H 1.06378 0.636 0.85087 0.0
H190 H 0.98471 0.61585 0.83944 0.0
H191 H 0.93548 0.52404 0.89205 0.0
H192 H 1.01318 0.54336 0.90294 0.0
H193 H 0.13719 0.67899 0.92962 0.0
H194 H 1.07512 0.53312 0.91474 0.0
O195 O 0.12732 0.67211 0.88799 0.0
H196 H 0.14114 0.66814 0.96888 0.0
H197 H 1.07737 0.52181 0.95408 0.0
C198 C 0.14465 0.60247 0.8758 0.0
C199 C 0.16423 0.62462 0.85672 0.0
C200 C 0.20328 0.62497 0.84896 0.0
C201 C 0.2238 0.60278 0.85993 0.0
C202 C 0.2021 0.57776 0.87805 0.0
C203 C 0.16332 0.57783 0.88594 0.0
C204 C 1.0454 0.59126 0.8778 0.0
C205 C 1.03585 0.61061 0.85961 0.0
C206 C 0.99042 0.59951 0.85325 0.0
C207 C 0.95307 0.56841 0.86483 0.0
C208 C 0.96274 0.54764 0.8824 0.0
C209 C 1.00797 0.55885 0.88875 0.0
C210 C 0.10584 0.60686 0.91901 0.0
C211 C 0.12397 0.64447 0.93471 0.0
C212 C 0.12591 0.63821 0.95732 0.0
C213 C 0.10968 0.5941 0.96481 0.0
C214 C 1.09093 0.55641 0.94902 0.0
C215 C 1.08924 0.56278 0.92643 0.0
P216 P 0.28757 0.58504 0.43489 0.0
H217 H 0.35507 0.67287 0.45807 0.0
H218 H 0.34835 0.7207 0.48734 0.0
H219 H 0.20369 0.62212 0.48875 0.0
H220 H 0.2106 0.57454 0.45937 0.0
H221 H 0.2006 0.50104 0.42135 0.0
H222 H 0.15305 0.43551 0.442 0.0
H223 H 0.26385 0.48093 0.49261 0.0
H224 H 0.31182 0.54689 0.47158 0.0
H225 H 0.27961 0.54507 0.39044 0.0
H226 H 0.23461 0.63066 0.42287 0.0
O227 O 0.34252 0.6017 0.4314 0.0
H228 H 0.24188 0.54725 0.3555 0.0
H229 H 0.19724 0.63307 0.38818 0.0
C230 C 0.28339 0.62028 0.45662 0.0
C231 C 0.32204 0.6614 0.46479 0.0
C232 C 0.3182 0.68842 0.48166 0.0
C233 C 0.27553 0.67478 0.49048 0.0
C234 C 0.23693 0.63335 0.4823 0.0
C235 C 0.2409 0.60623 0.46555 0.0
C236 C 0.25987 0.5287 0.44486 0.0
C237 C 0.21563 0.49592 0.4363 0.0
C238 C 0.18837 0.45826 0.4482 0.0
C239 C 0.20471 0.45322 0.46901 0.0
C240 C 0.25042 0.48407 0.47665 0.0
C241 C 0.2779 0.52151 0.46457 0.0
C242 C 0.2601 0.58767 0.40928 0.0
C243 C 0.26176 0.5644 0.39004 0.0
C244 C 0.24024 0.56573 0.37011 0.0
C245 C 0.21656 0.59036 0.3691 0.0
C246 C 0.21466 0.61332 0.38848 0.0
C247 C 0.23633 0.6121 0.40837 0.0
P248 P 0.92103 0.30445 0.75235 0.0
H249 H 0.95612 0.36742 0.79189 0.0
H250 H 0.92228 0.40612 0.8125 0.0
H251 H 0.82004 0.36896 0.75829 0.0
H252 H 0.85304 0.3308 0.73825 0.0
H253 H 0.94367 0.23194 0.7576 0.0
H254 H 0.90331 0.1592 0.77509 0.0
H255 H 0.81727 0.20459 0.80521 0.0
H256 H 0.85586 0.27558 0.78709 0.0
H257 H 0.92586 0.34073 0.70894 0.0
H258 H 0.84281 0.21253 0.73832 0.0
O259 O 0.97728 0.32878 0.74929 0.0
H260 H 0.87257 0.3118 0.67592 0.0
H261 H 0.79178 0.1829 0.70535 0.0
C262 C 0.90741 0.3463 0.76347 0.0
C263 C 0.9276 0.36938 0.78414 0.0
C264 C 0.90805 0.39115 0.79596 0.0
C265 C 0.86839 0.39046 0.78707 0.0
C266 C 0.85099 0.37087 0.76553 0.0
C267 C 0.87005 0.34873 0.75394 0.0
C268 C 0.90338 0.25959 0.77119 0.0
C269 C 0.91723 0.22682 0.76861 0.0
C270 C 0.89401 0.18519 0.77858 0.0
C271 C 0.85659 0.17589 0.79126 0.0
C272 C 0.84533 0.21035 0.79518 0.0
C273 C 0.86809 0.25153 0.78505 0.0
C274 C 0.88868 0.27907 0.72619 0.0
C275 C 0.89713 0.30594 0.70804 0.0
C276 C 0.86655 0.28929 0.68917 0.0
C277 C 0.82731 0.2452 0.6881 0.0
C278 C 0.82079 0.21747 0.70581 0.0
C279 C 0.85073 0.23437 0.72471 0.0
P280 P 0.48774 0.27735 0.05269 0.0
H281 H 0.49763 0.33536 0.09215 0.0
H282 H 0.55641 0.36957 0.12286 0.0
H283 H 0.62082 0.29517 0.09778 0.0
H284 H 0.56169 0.26081 0.06717 0.0
H285 H 0.41965 0.22909 0.08442 0.0
H286 H 0.35022 0.23047 0.0941 0.0
H287 H 0.36978 0.32219 0.04257 0.0
H288 H 0.43794 0.32007 0.03283 0.0
H289 H 0.48366 0.26922 0.00445 0.0
H290 H 0.55247 0.37653 0.05656 0.0
O291 O 0.47689 0.22552 0.0432 0.0
H292 H 0.51465 0.32649 0.97693 0.0
H293 H 0.58312 0.43362 0.02931 0.0
C294 C 0.52493 0.29497 0.07759 0.0
C295 C 0.52357 0.32531 0.09362 0.0
C296 C 0.55739 0.34515 0.11107 0.0
C297 C 0.59317 0.33502 0.11273 0.0
C298 C 0.59327 0.30308 0.09714 0.0
C299 C 0.55958 0.28349 0.07961 0.0
C300 C 0.43428 0.27479 0.0581 0.0
C301 C 0.40851 0.24896 0.07506 0.0
C302 C 0.36898 0.24989 0.08059 0.0
C303 C 0.3545 0.27647 0.06911 0.0
C304 C 0.37952 0.30081 0.05154 0.0
C305 C 0.41898 0.29995 0.04608 0.0
C306 C 0.51647 0.3184 0.03254 0.0
C307 C 0.50619 0.30492 0.00996 0.0
C308 C 0.52357 0.33772 0.99428 0.0
C309 C 0.55137 0.38459 1.00097 0.0
C310 C 0.56245 0.39776 0.02362 0.0
C311 C 0.54486 0.36501 0.03925 0.0
H312 H 0.24728 0.37136 0.15457 0.0
H313 H 0.17495 0.38942 0.09847 0.0
H314 H 0.19393 0.34108 0.07469 0.0
H315 H 0.33987 0.38854 0.12739 0.0
H316 H 0.35025 0.34782 0.14121 0.0
H317 H 0.32161 0.37376 0.15484 0.0
H318 H 0.25265 0.29325 0.16039 0.0
H319 H 0.28127 0.26695 0.14676 0.0
H320 H 0.22414 0.25285 0.13685 0.0
H321 H 0.23209 0.30298 0.0558 0.0
H322 H 0.28667 0.27919 0.04348 0.0
H323 H 0.33748 0.28986 0.11153 0.0
C324 C 0.2345 0.36432 0.13739 0.0
C325 C 0.20946 0.38413 0.12845 0.0
C326 C 0.19338 0.37397 0.10586 0.0
C327 C 0.20414 0.34661 0.09217 0.0
C328 C 0.23071 0.32939 0.10133 0.0
C329 C 0.24539 0.33759 0.12349 0.0
C330 C 0.27858 0.32063 0.12871 0.0
C331 C 0.32532 0.36003 0.1386 0.0
C332 C 0.25791 0.28106 0.14409 0.0
C333 C 0.28221 0.3038 0.10584 0.0
C334 C 0.25353 0.3081 0.09034 0.0
C335 C 0.25403 0.29865 0.06784 0.0
C336 C 0.28538 0.28549 0.06099 0.0
C337 C 0.31621 0.28248 0.07656 0.0
C338 C 0.31356 0.29062 0.09929 0.0
H339 H 0.95388 0.26752 0.48117 0.0
H340 H 0.95946 0.34841 0.53969 0.0
H341 H 1.0445 0.38821 0.54156 0.0
H342 H 1.06401 0.26467 0.49559 0.0
H343 H 1.07757 0.26988 0.46707 0.0
H344 H 1.01841 0.23943 0.47394 0.0
H345 H 1.00088 0.29198 0.45017 0.0
H346 H 1.05952 0.32213 0.44319 0.0
H347 H 1.03462 0.35335 0.45571 0.0
H348 H 0.1262 0.42989 0.5323 0.0
H349 H 0.19519 0.47254 0.51181 0.0
H350 H 0.13708 0.36448 0.45921 0.0
C351 C 0.97308 0.29289 0.49469 0.0
C352 C 0.95041 0.30526 0.5102 0.0
C353 C 0.97637 0.33834 0.52773 0.0
C354 C 1.0246 0.36087 0.52896 0.0
C355 C 1.04605 0.34917 0.51278 0.0
C356 C 1.02096 0.31557 0.49607 0.0
C357 C 1.05131 0.31416 0.47874 0.0
C358 C 1.05292 0.26937 0.47885 0.0
C359 C 1.03566 0.32085 0.45562 0.0
C360 C 1.09693 0.35475 0.48727 0.0
C361 C 1.09363 0.37348 0.50735 0.0
C362 C 0.12962 0.41478 0.51695 0.0
C363 C 0.16887 0.43871 0.50522 0.0
C364 C 0.17143 0.42153 0.48398 0.0
C365 C 0.13608 0.37794 0.47554 0.0
H366 H 0.79384 0.92962 0.83077 0.0
H367 H 0.65004 0.88956 0.81909 0.0
H368 H 0.67291 0.96804 0.80879 0.0
H369 H 0.83273 1.04484 0.85441 0.0
H370 H 0.88662 0.06923 0.8416 0.0
H371 H 0.85879 1.01032 0.84862 0.0
H372 H 0.86015 0.98433 0.80805 0.0
H373 H 0.88791 1.0431 0.8009 0.0
H374 H 0.83486 1.00098 0.78612 0.0
H375 H 0.71146 1.04985 0.79899 0.0
H376 H 0.76273 0.12902 0.78932 0.0
H377 H 0.88163 0.11624 0.80833 0.0
C378 C 0.76711 0.9375 0.82635 0.0
C379 C 0.72013 0.90361 0.82582 0.0
C380 C 0.68622 0.91497 0.81945 0.0
C381 C 0.69887 0.95946 0.81373 0.0
C382 C 0.74552 0.99202 0.81447 0.0
C383 C 0.7791 0.9816 0.8206 0.0
C384 C 0.82682 1.02244 0.81943 0.0
C385 C 0.85276 1.0376 0.84238 0.0
C386 C 0.85402 1.01208 0.80262 0.0
C387 C 0.81485 1.05745 0.81147 0.0
C388 C 0.76778 1.03926 0.80885 0.0
C389 C 0.74836 1.06463 0.80119 0.0
C390 C 0.77784 0.10972 0.79591 0.0
C391 C 0.82627 0.12908 0.79833 0.0
C392 C 0.84483 0.10246 0.80631 0.0
H393 H 0.81613 0.56155 0.15984 0.0
H394 H 0.8649 0.47437 0.18647 0.0
H395 H 0.78764 0.40726 0.17892 0.0
H396 H 0.69501 0.49462 0.17668 0.0
H397 H 0.6724 0.50421 0.15128 0.0
H398 H 0.72854 0.54677 0.16316 0.0
H399 H 0.76382 0.54376 0.12642 0.0
H400 H 0.70803 0.50124 0.11449 0.0
H401 H 0.75482 0.48947 0.11496 0.0
H402 H 0.71032 0.34791 0.16198 0.0
H403 H 0.63762 0.30219 0.13881 0.0
H404 H 0.63993 0.42745 0.12244 0.0
C405 C 0.81049 0.52851 0.16445 0.0
C406 C 0.84687 0.52354 0.17378 0.0
C407 C 0.83769 0.47953 0.17965 0.0
C408 C 0.79386 0.44097 0.17529 0.0
C409 C 0.75942 0.44683 0.16512 0.0
C410 C 0.76708 0.48961 0.16002 0.0
C411 C 0.72592 0.48615 0.14705 0.0
C412 C 0.70418 0.50931 0.16034 0.0
C413 C 0.73894 0.50633 0.1244 0.0
C414 C 0.69483 0.4346 0.14471 0.0
C415 C 0.71441 0.4125 0.15554 0.0
C416 C 0.69411 0.36482 0.15388 0.0
C417 C 0.65304 0.33916 0.14059 0.0
C418 C 0.6329 0.36127 0.12909 0.0
C419 C 0.65376 0.40953 0.13158 0.0
H420 H 0.3972 0.89843 0.56394 0.0
H421 H 0.29585 0.92565 0.53249 0.0
H422 H 0.24271 0.84324 0.52605 0.0
H423 H 0.39275 0.8315 0.52461 0.0
H424 H 0.40019 0.79032 0.53969 0.0
H425 H 0.421 0.84685 0.55202 0.0
H426 H 0.37256 0.8136 0.58559 0.0
H427 H 0.35191 0.75636 0.57347 0.0
H428 H 0.31165 0.77409 0.58127 0.0
H429 H 0.21278 0.76477 0.51118 0.0
H430 H 0.20984 0.69982 0.48967 0.0
H431 H 0.33243 0.72154 0.52701 0.0
C432 C 0.3631 0.88691 0.55647 0.0
C433 C 0.35115 0.91871 0.5485 0.0
C434 C 0.306 0.90236 0.53907 0.0
C435 C 0.27537 0.85522 0.53525 0.0
C436 C 0.29028 0.82478 0.54093 0.0
C437 C 0.33301 0.83999 0.55172 0.0
C438 C 0.34578 0.80269 0.55111 0.0
C439 C 0.39262 0.81882 0.54125 0.0
C440 C 0.34543 0.78567 0.57424 0.0
C441 C 0.30634 0.76634 0.53606 0.0
C442 C 0.27343 0.77865 0.53137 0.0
C443 C 0.2374 0.75395 0.51531 0.0
C444 C 0.23603 0.71709 0.50311 0.0
C445 C 0.27098 0.70586 0.50676 0.0
C446 C 0.30522 0.72946 0.52409 0.0
H447 H 0.65686 0.42651 0.79834 0.0
H448 H 0.62977 0.35011 0.85716 0.0
H449 H 0.70615 0.35656 0.8566 0.0
H450 H 0.70692 0.36954 0.77165 0.0
H451 H 0.74769 0.41917 0.75831 0.0
H452 H 0.69386 0.41383 0.76526 0.0
H453 H 0.73759 0.49299 0.78826 0.0
H454 H 0.79075 0.4977 0.78023 0.0
H455 H 0.78193 0.50238 0.80894 0.0
H456 H 0.7827 0.36631 0.84811 0.0
H457 H 0.84688 0.36762 0.82934 0.0
H458 H 0.82326 0.43642 0.77571 0.0
C459 C 0.66655 0.41066 0.81105 0.0
C460 C 0.63703 0.38773 0.82781 0.0
C461 C 0.65184 0.36834 0.84429 0.0
C462 C 0.69528 0.372 0.84417 0.0
C463 C 0.72352 0.39517 0.82748 0.0
C464 C 0.70947 0.41367 0.81107 0.0
C465 C 0.74388 0.43231 0.79362 0.0
C466 C 0.72177 0.4072 0.77088 0.0
C467 C 0.76471 0.48443 0.79273 0.0
C468 C 0.77914 0.42054 0.80253 0.0
C469 C 0.7673 0.40003 0.82232 0.0
C470 C 0.79265 0.38281 0.83276 0.0
C471 C 0.82942 0.38415 0.82207 0.0
C472 C 0.8401 0.4022 0.80106 0.0
C473 C 0.81598 0.42261 0.7918 0.0
H474 H 0.67871 1.04361 0.51898 0.0
H475 H 0.53156 0.9811 0.50398 0.0
H476 H 0.52224 0.90496 0.50971 0.0
H477 H 0.69086 0.95191 0.49222 0.0
H478 H 0.73321 0.95615 0.51282 0.0
H479 H 0.72867 1.00601 0.50738 0.0
H480 H 0.71785 1.01663 0.5487 0.0
H481 H 0.72231 0.96678 0.55426 0.0
H482 H 0.67256 0.96982 0.56183 0.0
H483 H 0.5284 0.83428 0.51761 0.0
H484 H 0.54941 0.7763 0.52719 0.0
H485 H 0.69287 0.88312 0.53634 0.0
C486 C 0.6445 1.01395 0.5168 0.0
C487 C 0.60589 1.01903 0.51095 0.0
C488 C 0.56185 0.97882 0.50841 0.0
C489 C 0.55614 0.9351 0.51164 0.0
C490 C 0.59474 0.93137 0.51739 0.0
C491 C 0.63813 0.96974 0.51993 0.0
C492 C 0.67383 0.9561 0.52636 0.0
C493 C 0.70871 0.96827 0.50864 0.0
C494 C 0.69807 0.97868 0.54914 0.0
C495 C 0.6438 0.90423 0.52712 0.0
C496 C 0.59827 0.8907 0.52185 0.0
C497 C 0.56407 0.84463 0.52162 0.0
C498 C 0.5765 0.81165 0.52695 0.0
C499 C 0.62297 0.82428 0.53253 0.0
C500 C 0.65691 0.87164 0.53246 0.0
H501 H 0.75143 0.62664 0.83494 0.0
H502 H 0.65403 0.48673 0.84883 0.0
H503 H 0.71795 0.47181 0.85591 0.0
H504 H 0.83128 0.60061 0.80745 0.0
H505 H 0.88182 0.65183 0.81908 0.0
H506 H 0.8284 0.6516 0.81443 0.0
H507 H 0.83262 0.67759 0.85557 0.0
H508 H 0.88607 0.67802 0.86033 0.0
H509 H 0.83852 0.64442 0.87672 0.0
H510 H 0.79259 0.47119 0.86116 0.0
H511 H 0.87207 0.48633 0.86636 0.0
H512 H 0.92291 0.62765 0.85076 0.0
C513 C 0.74341 0.59267 0.83924 0.0
C514 C 0.69713 0.55777 0.84115 0.0
C515 C 0.68873 0.51404 0.84706 0.0
C516 C 0.72497 0.50515 0.85112 0.0
C517 C 0.76996 0.54018 0.84917 0.0
C518 C 0.77939 0.58312 0.84337 0.0
C519 C 0.8311 0.61496 0.84295 0.0
C520 C 0.8439 0.63068 0.81958 0.0
C521 C 0.84807 0.65619 0.8599 0.0
C522 C 0.84918 0.58334 0.84955 0.0
C523 C 0.8132 0.54025 0.85287 0.0
C524 C 0.82099 0.50499 0.85881 0.0
C525 C 0.86657 0.51412 0.86189 0.0
C526 C 0.90452 0.55847 0.85938 0.0
C527 C 0.89518 0.59327 0.85276 0.0
H528 H 0.29563 0.71039 0.18508 0.0
H529 H 0.20796 0.76433 0.1639 0.0
H530 H 0.27492 0.84248 0.16675 0.0
H531 H 0.36622 0.80387 0.22536 0.0
H532 H 0.41893 0.80447 0.22023 0.0
H533 H 0.36469 0.75195 0.21541 0.0
H534 H 0.38324 0.74395 0.17511 0.0
H535 H 0.43755 0.79649 0.17981 0.0
H536 H 0.39746 0.79035 0.15747 0.0
H537 H 0.3512 0.91567 0.17208 0.0
H538 H 0.43045 0.97865 0.18084 0.0
H539 H 0.47041 0.88014 0.20067 0.0
C540 C 0.29065 0.73859 0.18079 0.0
C541 C 0.24607 0.73069 0.17411 0.0
C542 C 0.24133 0.76899 0.16906 0.0
C543 C 0.27936 0.81375 0.17058 0.0
C544 C 0.32251 0.82044 0.17738 0.0
C545 C 0.32848 0.78402 0.18252 0.0
C546 C 0.37855 0.8014 0.19031 0.0
C547 C 0.38231 0.78972 0.21425 0.0
C548 C 0.40049 0.78188 0.17475 0.0
C549 C 0.39957 0.85307 0.18872 0.0
C550 C 0.36654 0.86309 0.18108 0.0
C551 C 0.37726 0.90817 0.17821 0.0
C552 C 0.42264 0.94398 0.18344 0.0
C553 C 0.45747 0.93522 0.19174 0.0
C554 C 0.44531 0.88864 0.19419 0.0
H555 H 0.69384 0.32517 0.52051 0.0
H556 H 0.55844 0.24709 0.4864 0.0
H557 H 0.55015 0.31576 0.4881 0.0
H558 H 0.6645 0.38963 0.55787 0.0
H559 H 0.71837 0.44264 0.55796 0.0
H560 H 0.71636 0.3887 0.55247 0.0
H561 H 0.75332 0.41585 0.51548 0.0
H562 H 0.75566 0.47001 0.52092 0.0
H563 H 0.72703 0.43578 0.49563 0.0
H564 H 0.55357 0.39119 0.49507 0.0
H565 H 0.56909 0.46885 0.50647 0.0
H566 H 0.70148 0.50077 0.53731 0.0
C567 C 0.66302 0.32297 0.51293 0.0
C568 C 0.62696 0.28049 0.50302 0.0
C569 C 0.58664 0.27899 0.49393 0.0
C570 C 0.58156 0.31795 0.49483 0.0
C571 C 0.61697 0.35887 0.50505 0.0
C572 C 0.65706 0.36191 0.51392 0.0
C573 C 0.68853 0.4099 0.52497 0.0
C574 C 0.69746 0.40756 0.54979 0.0
C575 C 0.73383 0.43433 0.51357 0.0
C576 C 0.6597 0.4329 0.52103 0.0
C577 C 0.61863 0.40267 0.50942 0.0
C578 C 0.58571 0.41517 0.50415 0.0
C579 C 0.59475 0.45952 0.51089 0.0
C580 C 0.63644 0.4916 0.52295 0.0
C581 C 0.66943 0.47772 0.52791 0.0
H582 H 0.42104 0.53564 0.84161 0.0
H583 H 0.51366 0.67928 0.8321 0.0
H584 H 0.4498 0.69506 0.83592 0.0
H585 H 0.31813 0.52545 0.81323 0.0
H586 H 0.27995 0.48885 0.83281 0.0
H587 H 0.3321 0.48807 0.82798 0.0
H588 H 0.3568 0.50621 0.86975 0.0
H589 H 0.30478 0.50708 0.87471 0.0
H590 H 0.35984 0.55608 0.88359 0.0
H591 H 0.37563 0.69557 0.84093 0.0
H592 H 0.29887 0.68215 0.84914 0.0
H593 H 0.25374 0.53879 0.8574 0.0
C594 C 0.42775 0.57031 0.84003 0.0
C595 C 0.47257 0.60616 0.83626 0.0
C596 C 0.47986 0.65119 0.83486 0.0
C597 C 0.44365 0.66047 0.83698 0.0
C598 C 0.40009 0.62454 0.84082 0.0
C599 C 0.39203 0.58039 0.84253 0.0
C600 C 0.3425 0.54854 0.8479 0.0
C601 C 0.31665 0.51047 0.82937 0.0
C602 C 0.3409 0.52829 0.87032 0.0
C603 C 0.32396 0.58162 0.84891 0.0
C604 C 0.35772 0.62518 0.84452 0.0
C605 C 0.34899 0.66155 0.84434 0.0
C606 C 0.30495 0.65345 0.84889 0.0
C607 C 0.26965 0.60933 0.85381 0.0
C608 C 0.27969 0.57298 0.85379 0.0
H609 H 1.02567 0.43506 0.19421 0.0
H610 H 0.96365 0.49733 0.15452 0.0
H611 H 0.88752 0.43028 0.15744 0.0
H612 H 0.94771 0.31643 0.17185 0.0
H613 H 0.9446 0.29188 0.198 0.0
H614 H 0.99543 0.34428 0.19235 0.0
H615 H 0.98767 0.38459 0.22771 0.0
H616 H 0.93671 0.33237 0.23341 0.0
H617 H 0.93472 0.3846 0.23134 0.0
H618 H 0.8166 0.35772 0.16539 0.0
H619 H 0.75627 0.2851 0.17799 0.0
H620 H 0.86119 0.26528 0.21168 0.0
C621 C 0.99615 0.43441 0.18598 0.0
C622 C 1.00153 0.47211 0.174 0.0
C623 C 0.96138 0.46948 0.16374 0.0
C624 C 0.91752 0.43128 0.16531 0.0
C625 C 0.91336 0.39517 0.1773 0.0
C626 C 0.95147 0.39613 0.18743 0.0
C627 C 0.93657 0.35255 0.19958 0.0
C628 C 0.95731 0.32463 0.18986 0.0
C629 C 0.94971 0.36424 0.22449 0.0
C630 C 0.8844 0.32745 0.19479 0.0
C631 C 0.87197 0.35281 0.18186 0.0
C632 C 0.82599 0.33751 0.17549 0.0
C633 C 0.79171 0.2955 0.18259 0.0
C634 C 0.80292 0.26807 0.19582 0.0
C635 C 0.85047 0.28483 0.20185 0.0
H636 H 0.10745 0.63931 0.09592 0.0
H637 H 0.13987 0.53068 0.10406 0.0
H638 H 0.14017 0.52057 0.06381 0.0
H639 H 1.03101 0.58628 0.04684 0.0
H640 H 1.04935 0.63942 0.03393 0.0
H641 H 1.05236 0.63917 0.06361 0.0
H642 H 0.1391 0.69954 0.06529 0.0
H643 H 0.13636 0.69994 0.03562 0.0
H644 H 0.1771 0.68794 0.04969 0.0
H645 H 0.13764 0.52183 0.02289 0.0
H646 H 0.1313 0.53382 0.9835 0.0
H647 H 1.09792 0.63975 1.0008 0.0
C648 C 0.11475 0.61352 0.08922 0.0
C649 C 0.12364 0.58582 0.10329 0.0
C650 C 0.1328 0.5523 0.09377 0.0
C651 C 0.13314 0.54627 0.07086 0.0
C652 C 0.12412 0.57388 0.05749 0.0
C653 C 0.11498 0.60678 0.06622 0.0
C654 C 0.10579 0.6313 0.04792 0.0
C655 C 1.05671 0.62357 0.04809 0.0
C656 C 0.14174 0.68274 0.04974 0.0
C657 C 0.1113 0.60703 0.02764 0.0
C658 C 0.12196 0.57411 0.03362 0.0
C659 C 0.12898 0.54729 0.01797 0.0
C660 C 0.12492 0.55415 0.99556 0.0
C661 C 0.11364 0.58742 0.98884 0.0
C662 C 0.10689 0.61424 0.00526 0.0
H663 H 0.66102 0.15807 0.43034 0.0
H664 H 0.5151 0.10356 0.4364 0.0
H665 H 0.50186 0.09163 0.39557 0.0
H666 H 0.66844 0.21893 0.38111 0.0
H667 H 0.71044 0.20701 0.3698 0.0
H668 H 0.70793 0.21188 0.39929 0.0
H669 H 0.69862 0.13115 0.40206 0.0
H670 H 0.70101 0.12597 0.37261 0.0
H671 H 0.6526 0.08292 0.38584 0.0
H672 H 0.50473 0.0802 0.35386 0.0
H673 H 0.52391 0.07588 0.31518 0.0
H674 H 0.66847 0.14249 0.33682 0.0
C675 C 0.62621 0.14374 0.42311 0.0
C676 C 0.58897 0.13139 0.43657 0.0
C677 C 0.54411 0.11331 0.42642 0.0
C678 C 0.53631 0.10633 0.40326 0.0
C679 C 0.57386 0.11841 0.3905 0.0
C680 C 0.61801 0.13734 0.40013 0.0
C681 C 0.65263 0.14766 0.38291 0.0
C682 C 0.68688 0.19945 0.3833 0.0
C683 C 0.67767 0.12028 0.38605 0.0
C684 C 0.6211 0.13084 0.362 0.0
C685 C 0.57573 0.11382 0.36668 0.0
C686 C 0.5402 0.09406 0.35004 0.0
C687 C 0.55135 0.09163 0.32815 0.0
C688 C 0.59766 0.10939 0.32304 0.0
C689 C 0.63287 0.12951 0.34022 0.0
H690 H 0.62165 0.66128 0.76543 0.0
H691 H 0.55223 0.51239 0.76284 0.0
H692 H 0.55258 0.50971 0.7224 0.0
H693 H 0.56365 0.66963 0.71488 0.0
H694 H 0.61437 0.71878 0.70633 0.0
H695 H 0.60715 0.7097 0.73529 0.0
H696 H 0.68547 0.71252 0.73962 0.0
H697 H 0.69297 0.72166 0.71071 0.0
H698 H 0.69559 0.67437 0.72215 0.0
H699 H 0.56222 0.52199 0.68256 0.0
H700 H 0.582 0.54903 0.64533 0.0
H701 H 0.64581 0.69011 0.67241 0.0
C702 C 0.60617 0.62814 0.75633 0.0
C703 C 0.58687 0.58703 0.76748 0.0
C704 C 0.56737 0.54442 0.75486 0.0
C705 C 0.56723 0.54245 0.73179 0.0
C706 C 0.58673 0.58337 0.72135 0.0
C707 C 0.6059 0.62548 0.73311 0.0
C708 C 0.62599 0.6642 0.7176 0.0
C709 C 0.6013 0.69223 0.71859 0.0
C710 C 0.6781 0.695 0.72283 0.0
C711 C 0.61537 0.63714 0.69541 0.0
C712 C 0.59252 0.59056 0.69806 0.0
C713 C 0.58002 0.55838 0.68025 0.0
C714 C 0.5916 0.5741 0.65916 0.0
C715 C 0.61557 0.62166 0.6559 0.0
C716 C 0.62705 0.65355 0.67432 0.0
H717 H 0.73376 0.21788 0.56255 0.0
H718 H 0.59559 0.13304 0.58308 0.0
H719 H 0.62738 0.1439 0.62184 0.0
H720 H 0.78784 0.17496 0.59865 0.0
H721 H 0.83991 0.22958 0.60368 0.0
H722 H 0.80596 0.21626 0.57791 0.0
H723 H 0.80045 0.28976 0.58435 0.0
H724 H 0.83439 0.30348 0.61016 0.0
H725 H 0.77859 0.2989 0.60951 0.0
H726 H 0.67481 0.16589 0.65829 0.0
H727 H 0.73354 0.19385 0.68942 0.0
H728 H 0.84073 0.26009 0.64403 0.0
C729 C 0.70997 0.20185 0.57518 0.0
C730 C 0.66209 0.17501 0.5699 0.0
C731 C 0.63235 0.1539 0.58685 0.0
C732 C 0.6501 0.15993 0.60885 0.0
C733 C 0.69758 0.18667 0.61343 0.0
C734 C 0.72705 0.20698 0.59702 0.0
C735 C 0.77675 0.2329 0.60603 0.0
C736 C 0.80421 0.21217 0.59597 0.0
C737 C 0.79882 0.28431 0.60229 0.0
C738 C 0.77077 0.2244 0.63023 0.0
C739 C 0.72488 0.19785 0.63418 0.0
C740 C 0.71085 0.18624 0.65534 0.0
C741 C 0.74461 0.20202 0.67291 0.0
C742 C 0.79201 0.22877 0.66922 0.0
C743 C 0.80495 0.24002 0.64751 0.0
H744 H 0.51853 0.50267 0.89634 0.0
H745 H 0.66113 0.61014 0.90831 0.0
H746 H 0.66775 0.5735 0.94175 0.0
H747 H 0.49038 0.48619 0.95376 0.0
H748 H 0.45464 0.42494 0.9486 0.0
H749 H 0.4606 0.4623 0.92701 0.0
H750 H 0.48728 0.41788 0.9014 0.0
H751 H 0.48196 0.38078 0.923 0.0
H752 H 0.53585 0.41225 0.91051 0.0
H753 H 0.65937 0.52206 0.97282 0.0
H754 H 0.63622 0.46156 0.99931 0.0
H755 H 0.49985 0.3878 0.9658 0.0
C756 C 0.55097 0.5192 0.90619 0.0
C757 C 0.58924 0.55953 0.8998 0.0
C758 C 0.63123 0.57945 0.913 0.0
C759 C 0.63535 0.5588 0.93196 0.0
C760 C 0.59721 0.51826 0.9374 0.0
C761 C 0.55579 0.49887 0.92492 0.0
C762 C 0.5206 0.45405 0.93349 0.0
C763 C 0.47911 0.45707 0.94118 0.0
C764 C 0.50556 0.41388 0.91606 0.0
C765 C 0.54865 0.45104 0.95276 0.0
C766 C 0.59271 0.4884 0.95484 0.0
C767 C 0.62488 0.49281 0.97141 0.0
C768 C 0.61142 0.45835 0.98638 0.0
C769 C 0.56631 0.41991 0.98456 0.0
C770 C 0.53477 0.41638 0.96743 0.0
H771 H 0.20591 0.61745 0.24031 0.0
H772 H 1.06882 0.59828 0.24417 0.0
H773 H 1.07537 0.59369 0.28476 0.0
H774 H 0.19522 0.53805 0.27877 0.0
H775 H 0.25401 0.57132 0.28996 0.0
H776 H 0.23928 0.57618 0.26176 0.0
H777 H 0.27539 0.66413 0.26922 0.0
H778 H 0.2906 0.65965 0.29743 0.0
H779 H 0.25645 0.68612 0.29152 0.0
H780 H 1.09736 0.58854 0.32521 0.0
H781 H 0.13192 0.58316 0.36101 0.0
H782 H 0.25343 0.60473 0.32901 0.0
C783 C 0.17721 0.61272 0.24958 0.0
C784 C 0.13682 0.60833 0.23903 0.0
C785 C 1.10018 0.60194 0.25192 0.0
C786 C 1.10361 0.59924 0.27495 0.0
C787 C 0.14385 0.60298 0.2847 0.0
C788 C 0.17995 0.6097 0.27232 0.0
C789 C 0.21891 0.61104 0.28626 0.0
C790 C 0.22732 0.57181 0.27874 0.0
C791 C 0.26293 0.65803 0.2861 0.0
C792 C 0.19921 0.60375 0.30857 0.0
C793 C 0.15601 0.59939 0.30748 0.0
C794 C 0.13121 0.59209 0.32619 0.0
C795 C 0.15115 0.58921 0.34645 0.0
C796 C 0.19528 0.59332 0.34776 0.0
C797 C 0.2194 0.60079 0.32851 0.0
loop_
_geom_bond_atom_site_label_1
_geom_bond_atom_site_label_2
_geom_bond_distance
_geom_bond_site_symmetry_2
_ccdc_geom_bond_type
Tb0 C9 2.764 1_455 S
Tb0 O10 2.325 1_455 S
Tb0 O13 2.303 . S
Tb0 O17 2.322 . S
Tb0 O18 2.349 . S
Tb0 O21 2.415 1_455 S
Tb0 O22 2.399 1_455 S
Tb1 O11 2.347 . S
Tb1 O12 2.349 . S
Tb1 O14 2.415 . S
Tb1 O15 2.399 . S
Tb1 O16 2.325 . S
Tb1 O19 2.303 . S
Tb1 C30 2.764 . S
C2 O18 1.261 . S
C2 O19 1.257 . S
C3 C6 1.358 . S
C3 C7 1.332 . S
C3 C9 1.504 . S
C4 C5 1.373 . S
C4 C8 1.308 . S
C5 C4 1.373 . S
C5 C6 1.429 . S
C5 H32 0.932 . S
C6 C3 1.358 . S
C6 C5 1.429 . S
C6 H33 0.930 . S
C7 C3 1.332 . S
C7 C8 1.394 . S
C7 H34 0.932 . S
C8 C4 1.308 . S
C8 C7 1.394 . S
C8 H35 0.929 . S
C9 Tb0 2.764 1_655 S
C9 C3 1.504 . S
C9 O21 1.239 . S
C9 O22 1.263 . S
O10 Tb0 2.325 1_655 S
O10 C20 1.236 . S
O11 Tb1 2.347 . S
O11 C20 1.227 1_455 S
O12 Tb1 2.349 . S
O12 C23 1.261 . S
O13 Tb0 2.303 . S
O13 C23 1.257 . S
O14 Tb1 2.415 . S
O14 C30 1.239 . S
O15 Tb1 2.399 . S
O15 C30 1.263 . S
O16 Tb1 2.325 . S
O16 C31 1.236 . S
O17 Tb0 2.322 . S
O17 C31 1.257 . S
O18 Tb0 2.349 . S
O18 C2 1.261 . S
O19 Tb1 2.303 . S
O19 C2 1.257 . S
C20 O10 1.236 . S
C20 O11 1.227 1_655 S
O21 Tb0 2.415 1_655 S
O21 C9 1.239 . S
O22 Tb0 2.399 1_655 S
O22 C9 1.263 . S
C23 O12 1.261 . S
C23 O13 1.257 . S
C24 C27 1.358 . S
C24 C28 1.332 . S
C24 C30 1.504 . S
C25 C26 1.373 . S
C25 C29 1.308 . S
C26 C25 1.373 . S
C26 C27 1.429 . S
C26 H36 0.932 . S
C27 C24 1.358 . S
C27 C26 1.429 . S
C27 H37 0.930 . S
C28 C24 1.332 . S
C28 C29 1.394 . S
C28 H38 0.932 . S
C29 C25 1.308 . S
C29 C28 1.394 . S
C29 H39 0.929 . S
C30 Tb1 2.764 . S
C30 O14 1.239 . S
C30 O15 1.263 . S
C30 C24 1.504 . S
C31 O16 1.236 . S
C31 O17 1.257 . S
H32 C5 0.932 . S
H33 C6 0.930 . S
H34 C7 0.932 . S
H35 C8 0.929 . S
H36 C26 0.932 . S
H37 C27 0.930 . S
H38 C28 0.932 . S
H39 C29 0.929 . S
Tb40 C49 2.764 . S
Tb40 O50 2.325 . S
Tb40 O53 2.303 1_565 S
Tb40 O57 2.322 1_565 S
Tb40 O58 2.349 1_565 S
Tb40 O61 2.415 . S
Tb40 O62 2.399 . S
Tb41 O51 2.322 1_545 S
Tb41 O52 2.349 . S
Tb41 O54 2.415 . S
Tb41 O55 2.399 . S
Tb41 O56 2.325 . S
Tb41 O59 2.303 . S
Tb41 C70 2.764 . S
C42 O58 1.261 . S
C42 O59 1.257 . S
C43 C46 1.358 . S
C43 C47 1.332 . S
C43 C49 1.504 . S
C44 C45 1.373 . S
C44 C48 1.308 . S
C45 C44 1.373 . S
C45 C46 1.429 . S
C45 H72 0.932 . S
C46 C43 1.358 . S
C46 C45 1.429 . S
C46 H73 0.930 . S
C47 C43 1.332 . S
C47 C48 1.394 . S
C47 H74 0.932 . S
C48 C44 1.308 . S
C48 C47 1.394 . S
C48 H75 0.929 . S
C49 Tb40 2.764 . S
C49 C43 1.504 . S
C49 O61 1.239 . S
C49 O62 1.263 . S
O50 Tb40 2.325 . S
O50 C60 1.236 . S
O51 Tb41 2.322 1_565 S
O51 C60 1.257 . S
O52 Tb41 2.349 . S
O52 C63 1.261 . S
O53 Tb40 2.303 1_545 S
O53 C63 1.257 . S
O54 Tb41 2.415 . S
O54 C70 1.239 . S
O55 Tb41 2.399 . S
O55 C70 1.263 . S
O56 Tb41 2.325 . S
O56 C71 1.236 . S
O57 Tb40 2.322 1_545 S
O57 C71 1.257 . S
O58 Tb40 2.349 1_545 S
O58 C42 1.261 . S
O59 Tb41 2.303 . S
O59 C42 1.257 . S
C60 O50 1.236 . S
C60 O51 1.257 . S
O61 Tb40 2.415 . S
O61 C49 1.239 . S
O62 Tb40 2.399 . S
O62 C49 1.263 . S
C63 O52 1.261 . S
C63 O53 1.257 . S
C64 C67 1.358 . S
C64 C68 1.332 . S
C64 C70 1.504 . S
C65 C66 1.373 . S
C65 C69 1.308 . S
C66 C65 1.373 . S
C66 C67 1.429 . S
C66 H76 0.932 . S
C67 C64 1.358 . S
C67 C66 1.429 . S
C67 H77 0.930 . S
C68 C64 1.332 . S
C68 C69 1.394 . S
C68 H78 0.932 . S
C69 C65 1.308 . S
C69 C68 1.394 . S
C69 H79 0.929 . S
C70 Tb41 2.764 . S
C70 O54 1.239 . S
C70 O55 1.263 . S
C70 C64 1.504 . S
C71 O56 1.236 . S
C71 O57 1.257 . S
H72 C45 0.932 . S
H73 C46 0.930 . S
H74 C47 0.932 . S
H75 C48 0.929 . S
H76 C66 0.932 . S
H77 C67 0.930 . S
H78 C68 0.932 . S
H79 C69 0.929 . S
Tb80 C89 2.764 . S
Tb80 O90 2.325 . S
Tb80 O93 2.303 . S
Tb80 O97 2.322 . S
Tb80 O98 2.349 . S
Tb80 O101 2.415 . S
Tb80 O102 2.399 . S
Tb81 O91 2.322 . S
Tb81 O92 2.349 . S
Tb81 O94 2.415 . S
Tb81 O95 2.399 . S
Tb81 O96 2.325 . S
Tb81 O99 2.303 . S
Tb81 C110 2.764 . S
C82 O98 1.261 . S
C82 O99 1.257 . S
C83 C86 1.358 . S
C83 C87 1.332 . S
C83 C89 1.504 . S
C84 C85 1.373 . S
C84 C88 1.308 . S
C85 C84 1.373 . S
C85 C86 1.429 . S
C85 H112 0.932 . S
C86 C83 1.358 . S
C86 C85 1.429 . S
C86 H113 0.930 . S
C87 C83 1.332 . S
C87 C88 1.394 . S
C87 H114 0.932 . S
C88 C84 1.308 . S
C88 C87 1.394 . S
C88 H115 0.929 . S
C89 Tb80 2.764 . S
C89 C83 1.504 . S
C89 O101 1.239 . S
C89 O102 1.263 . S
O90 Tb80 2.325 . S
O90 C100 1.236 . S
O91 Tb81 2.322 . S
O91 C100 1.257 . S
O92 Tb81 2.349 . S
O92 C103 1.261 . S
O93 Tb80 2.303 . S
O93 C103 1.257 . S
O94 Tb81 2.415 . S
O94 C110 1.239 . S
O95 Tb81 2.399 . S
O95 C110 1.263 . S
O96 Tb81 2.325 . S
O96 C111 1.236 . S
O97 Tb80 2.322 . S
O97 C111 1.257 . S
O98 Tb80 2.349 . S
O98 C82 1.261 . S
O99 Tb81 2.303 . S
O99 C82 1.257 . S
C100 O90 1.236 . S
C100 O91 1.257 . S
O101 Tb80 2.415 . S
O101 C89 1.239 . S
O102 Tb80 2.399 . S
O102 C89 1.263 . S
C103 O92 1.261 . S
C103 O93 1.257 . S
C104 C107 1.358 . S
C104 C108 1.332 . S
C104 C110 1.504 . S
C105 C106 1.373 . S
C105 C109 1.308 . S
C106 C105 1.373 . S
C106 C107 1.429 . S
C106 H116 0.932 . S
C107 C104 1.358 . S
C107 C106 1.429 . S
C107 H117 0.930 . S
C108 C104 1.332 . S
C108 C109 1.394 . S
C108 H118 0.932 . S
C109 C105 1.308 . S
C109 C108 1.394 . S
C109 H119 0.929 . S
C110 Tb81 2.764 . S
C110 O94 1.239 . S
C110 O95 1.263 . S
C110 C104 1.504 . S
C111 O96 1.236 . S
C111 O97 1.257 . S
H112 C85 0.932 . S
H113 C86 0.930 . S
H114 C87 0.932 . S
H115 C88 0.929 . S
H116 C106 0.932 . S
H117 C107 0.930 . S
H118 C108 0.932 . S
H119 C109 0.929 . S
P120 O131 1.490 1_545 S
P120 C134 1.812 1_545 S
P120 C140 1.803 . S
P120 C146 1.819 . S
H121 C135 0.941 . S
H122 C136 0.939 . S
H123 C138 0.940 . S
H124 C139 0.940 . S
H125 C141 0.939 . S
H126 C142 0.942 . S
H127 C144 0.940 . S
H128 C145 0.939 . S
H129 C147 0.941 . S
H130 C151 0.939 . S
O131 P120 1.490 1_565 S
H132 C148 0.939 . S
H133 C150 0.940 . S
C134 P120 1.812 1_565 S
C134 C135 1.389 . S
C134 C139 1.391 . S
C135 H121 0.941 . S
C135 C134 1.389 . S
C135 C136 1.397 . S
C136 H122 0.939 . S
C136 C135 1.397 . S
C136 C137 1.378 . S
C137 C136 1.378 . S
C137 C138 1.378 . S
C138 H123 0.940 . S
C138 C137 1.378 . S
C138 C139 1.396 . S
C139 H124 0.940 . S
C139 C134 1.391 . S
C139 C138 1.396 . S
C140 P120 1.803 . S
C140 C141 1.378 . S
C140 C145 1.400 . S
C141 H125 0.939 . S
C141 C140 1.378 . S
C141 C142 1.361 . S
C142 H126 0.942 . S
C142 C141 1.361 . S
C142 C143 1.369 . S
C143 C142 1.369 . S
C143 C144 1.404 . S
C144 H127 0.940 . S
C144 C143 1.404 . S
C144 C145 1.389 . S
C145 H128 0.939 . S
C145 C140 1.400 . S
C145 C144 1.389 . S
C146 P120 1.819 . S
C146 C147 1.391 1_545 S
C146 C151 1.391 . S
C147 H129 0.941 . S
C147 C146 1.391 1_565 S
C147 C148 1.396 . S
C148 H132 0.939 . S
C148 C147 1.396 . S
C148 C149 1.397 1_565 S
C149 C148 1.397 1_545 S
C149 C150 1.385 . S
C150 H133 0.940 . S
C150 C149 1.385 . S
C150 C151 1.388 . S
C151 H130 0.939 . S
C151 C146 1.391 . S
C151 C150 1.388 . S
P152 O163 1.490 . S
P152 C166 1.812 . S
P152 C172 1.803 . S
P152 C178 1.819 . S
H153 C167 0.941 . S
H154 C168 0.939 . S
H155 C170 0.940 . S
H156 C171 0.940 . S
H157 C173 0.939 . S
H158 C174 0.942 . S
H159 C176 0.940 . S
H160 C177 0.939 . S
H161 C179 0.941 . S
H162 C183 0.939 . S
O163 P152 1.490 . S
H164 C180 0.939 . S
H165 C182 0.940 . S
C166 P152 1.812 . S
C166 C167 1.389 . S
C166 C171 1.391 . S
C167 H153 0.941 . S
C167 C166 1.389 . S
C167 C168 1.397 . S
C168 H154 0.939 . S
C168 C167 1.397 . S
C168 C169 1.378 . S
C169 C168 1.378 . S
C169 C170 1.378 . S
C170 H155 0.940 . S
C170 C169 1.378 . S
C170 C171 1.396 . S
C171 H156 0.940 . S
C171 C166 1.391 . S
C171 C170 1.396 . S
C172 P152 1.803 . S
C172 C173 1.378 . S
C172 C177 1.400 . S
C173 H157 0.939 . S
C173 C172 1.378 . S
C173 C174 1.361 . S
C174 H158 0.942 . S
C174 C173 1.361 . S
C174 C175 1.369 . S
C175 C174 1.369 . S
C175 C176 1.404 . S
C176 H159 0.940 . S
C176 C175 1.404 . S
C176 C177 1.389 . S
C177 H160 0.939 . S
C177 C172 1.400 . S
C177 C176 1.389 . S
C178 P152 1.819 . S
C178 C179 1.391 . S
C178 C183 1.391 . S
C179 H161 0.941 . S
C179 C178 1.391 . S
C179 C180 1.396 . S
C180 H164 0.939 . S
C180 C179 1.396 . S
C180 C181 1.397 . S
C181 C180 1.397 . S
C181 C182 1.385 . S
C182 H165 0.940 . S
C182 C181 1.385 . S
C182 C183 1.388 . S
C183 H162 0.939 . S
C183 C178 1.391 . S
C183 C182 1.388 . S
P184 O195 1.490 . S
P184 C198 1.812 . S
P184 C204 1.803 . S
P184 C210 1.819 . S
H185 C199 0.941 . S
H186 C200 0.939 . S
H187 C202 0.940 . S
H188 C203 0.940 . S
H189 C205 0.939 . S
H190 C206 0.942 . S
H191 C208 0.940 . S
H192 C209 0.939 . S
H193 C211 0.941 . S
H194 C215 0.939 . S
O195 P184 1.490 . S
H196 C212 0.939 . S
H197 C214 0.940 . S
C198 P184 1.812 . S
C198 C199 1.389 . S
C198 C203 1.391 . S
C199 H185 0.941 . S
C199 C198 1.389 . S
C199 C200 1.397 . S
C200 H186 0.939 . S
C200 C199 1.397 . S
C200 C201 1.378 . S
C201 C200 1.378 . S
C201 C202 1.378 . S
C202 H187 0.940 . S
C202 C201 1.378 . S
C202 C203 1.396 . S
C203 H188 0.940 . S
C203 C198 1.391 . S
C203 C202 1.396 . S
C204 P184 1.803 . S
C204 C205 1.378 . S
C204 C209 1.400 . S
C205 H189 0.939 . S
C205 C204 1.378 . S
C205 C206 1.361 1_455 S
C206 H190 0.942 . S
C206 C205 1.361 1_655 S
C206 C207 1.369 . S
C207 C206 1.369 . S
C207 C208 1.404 . S
C208 H191 0.940 . S
C208 C207 1.404 . S
C208 C209 1.389 1_655 S
C209 H192 0.939 . S
C209 C204 1.400 . S
C209 C208 1.389 1_455 S
C210 P184 1.819 . S
C210 C211 1.391 . S
C210 C215 1.391 . S
C211 H193 0.941 . S
C211 C210 1.391 . S
C211 C212 1.396 . S
C212 H196 0.939 . S
C212 C211 1.396 . S
C212 C213 1.397 . S
C213 C212 1.397 . S
C213 C214 1.385 . S
C214 H197 0.940 . S
C214 C213 1.385 . S
C214 C215 1.388 . S
C215 H194 0.939 . S
C215 C210 1.391 . S
C215 C214 1.388 . S
P216 O227 1.490 . S
P216 C230 1.812 . S
P216 C236 1.803 1_455 S
P216 C242 1.819 . S
H217 C231 0.941 . S
H218 C232 0.939 . S
H219 C234 0.940 . S
H220 C235 0.940 . S
H221 C237 0.939 . S
H222 C238 0.942 . S
H223 C240 0.940 . S
H224 C241 0.939 . S
H225 C243 0.941 . S
H226 C247 0.939 . S
O227 P216 1.490 . S
H228 C244 0.939 . S
H229 C246 0.940 . S
C230 P216 1.812 . S
C230 C231 1.389 . S
C230 C235 1.391 . S
C231 H217 0.941 . S
C231 C230 1.389 . S
C231 C232 1.397 . S
C232 H218 0.939 . S
C232 C231 1.397 . S
C232 C233 1.378 . S
C233 C232 1.378 . S
C233 C234 1.378 . S
C234 H219 0.940 . S
C234 C233 1.378 . S
C234 C235 1.396 . S
C235 H220 0.940 . S
C235 C230 1.391 . S
C235 C234 1.396 . S
C236 P216 1.803 1_655 S
C236 C237 1.378 . S
C236 C241 1.400 . S
C237 H221 0.939 . S
C237 C236 1.378 . S
C237 C238 1.361 . S
C238 H222 0.942 . S
C238 C237 1.361 . S
C238 C239 1.369 . S
C239 C238 1.369 . S
C239 C240 1.404 . S
C240 H223 0.940 . S
C240 C239 1.404 . S
C240 C241 1.389 . S
C241 H224 0.939 . S
C241 C236 1.400 . S
C241 C240 1.389 . S
C242 P216 1.819 . S
C242 C243 1.391 . S
C242 C247 1.391 1_455 S
C243 H225 0.941 . S
C243 C242 1.391 . S
C243 C244 1.396 . S
C244 H228 0.939 . S
C244 C243 1.396 . S
C244 C245 1.397 . S
C245 C244 1.397 . S
C245 C246 1.385 1_455 S
C246 H229 0.940 . S
C246 C245 1.385 1_655 S
C246 C247 1.388 . S
C247 H226 0.939 . S
C247 C242 1.391 1_655 S
C247 C246 1.388 . S
P248 O259 1.490 . S
P248 C262 1.812 . S
P248 C268 1.803 1_545 S
P248 C274 1.819 . S
H249 C263 0.941 . S
H250 C264 0.939 . S
H251 C266 0.940 . S
H252 C267 0.940 . S
H253 C269 0.939 . S
H254 C270 0.942 . S
H255 C272 0.940 . S
H256 C273 0.939 . S
H257 C275 0.941 . S
H258 C279 0.939 . S
O259 P248 1.490 . S
H260 C276 0.939 . S
H261 C278 0.940 . S
C262 P248 1.812 . S
C262 C263 1.389 . S
C262 C267 1.391 . S
C263 H249 0.941 . S
C263 C262 1.389 . S
C263 C264 1.397 . S
C264 H250 0.939 . S
C264 C263 1.397 . S
C264 C265 1.378 . S
C265 C264 1.378 . S
C265 C266 1.378 . S
C266 H251 0.940 . S
C266 C265 1.378 . S
C266 C267 1.396 . S
C267 H252 0.940 . S
C267 C262 1.391 . S
C267 C266 1.396 . S
C268 P248 1.803 1_565 S
C268 C269 1.378 . S
C268 C273 1.400 . S
C269 H253 0.939 . S
C269 C268 1.378 . S
C269 C270 1.361 . S
C270 H254 0.942 . S
C270 C269 1.361 . S
C270 C271 1.369 . S
C271 C270 1.369 . S
C271 C272 1.404 . S
C272 H255 0.940 . S
C272 C271 1.404 . S
C272 C273 1.389 . S
C273 H256 0.939 . S
C273 C268 1.400 . S
C273 C272 1.389 . S
C274 P248 1.819 . S
C274 C275 1.391 . S
C274 C279 1.391 1_545 S
C275 H257 0.941 . S
C275 C274 1.391 . S
C275 C276 1.396 . S
C276 H260 0.939 . S
C276 C275 1.396 . S
C276 C277 1.391 1_545 S
C277 C276 1.391 1_565 S
C277 C278 1.391 . S
C278 H261 0.940 . S
C278 C277 1.391 . S
C278 C279 1.388 . S
C279 H258 0.939 . S
C279 C274 1.391 1_565 S
C279 C278 1.388 . S
P280 O291 1.490 . S
P280 C294 1.812 . S
P280 C300 1.803 . S
P280 C306 1.819 . S
H281 C295 0.941 . S
H282 C296 0.939 . S
H283 C298 0.940 . S
H284 C299 0.940 . S
H285 C301 0.939 . S
H286 C302 0.942 . S
H287 C304 0.940 . S
H288 C305 0.939 . S
H289 C307 0.941 . S
H290 C311 0.939 . S
O291 P280 1.490 . S
H292 C308 0.939 . S
H293 C310 0.940 . S
C294 P280 1.812 . S
C294 C295 1.389 . S
C294 C299 1.391 . S
C295 H281 0.941 . S
C295 C294 1.389 . S
C295 C296 1.397 . S
C296 H282 0.939 . S
C296 C295 1.397 . S
C296 C297 1.378 . S
C297 C296 1.378 . S
C297 C298 1.378 . S
C298 H283 0.940 . S
C298 C297 1.378 . S
C298 C299 1.396 . S
C299 H284 0.940 . S
C299 C294 1.391 . S
C299 C298 1.396 . S
C300 P280 1.803 . S
C300 C301 1.378 . S
C300 C305 1.400 . S
C301 H285 0.939 . S
C301 C300 1.378 . S
C301 C302 1.361 . S
C302 H286 0.942 . S
C302 C301 1.361 . S
C302 C303 1.369 . S
C303 C302 1.369 . S
C303 C304 1.404 . S
C304 H287 0.940 . S
C304 C303 1.404 . S
C304 C305 1.389 . S
C305 H288 0.939 . S
C305 C300 1.400 . S
C305 C304 1.389 . S
C306 P280 1.819 . S
C306 C307 1.391 . S
C306 C311 1.391 . S
C307 H289 0.941 . S
C307 C306 1.391 . S
C307 C308 1.396 . S
C308 H292 0.939 . S
C308 C307 1.396 . S
C308 C309 1.397 . S
C309 C308 1.397 . S
C309 C310 1.385 . S
C310 H293 0.940 . S
C310 C309 1.385 . S
C310 C311 1.388 . S
C311 H290 0.939 . S
C311 C306 1.391 . S
C311 C310 1.388 . S
H312 C324 0.930 . S
H313 C326 0.930 . S
H314 C327 0.930 . S
H315 C331 0.959 . S
H316 C331 0.959 . S
H317 C331 0.961 . S
H318 C332 0.960 . S
H319 C332 0.961 . S
H320 C332 0.959 . S
H321 C335 0.929 . S
H322 C336 0.931 . S
H323 C338 0.930 . S
C324 H312 0.930 . S
C324 C325 1.399 . S
C324 C329 1.399 . S
C325 C324 1.399 . S
C325 C326 1.376 . S
C326 H313 0.930 . S
C326 C325 1.376 . S
C326 C327 1.388 . S
C327 H314 0.930 . S
C327 C326 1.388 . S
C327 C328 1.390 . S
C328 C327 1.390 . S
C328 C329 1.394 . S
C328 C334 1.465 . S
C329 C324 1.399 . S
C329 C328 1.394 . S
C329 C330 1.516 . S
C330 C329 1.516 . S
C330 C331 1.502 . S
C330 C332 1.561 . S
C330 C333 1.526 . S
C331 H315 0.959 . S
C331 H316 0.959 . S
C331 H317 0.961 . S
C331 C330 1.502 . S
C332 H318 0.960 . S
C332 H319 0.961 . S
C332 H320 0.959 . S
C332 C330 1.561 . S
C333 C330 1.526 . S
C333 C334 1.396 . S
C333 C338 1.390 . S
C334 C328 1.465 . S
C334 C333 1.396 . S
C334 C335 1.399 . S
C335 H321 0.929 . S
C335 C334 1.399 . S
C335 C336 1.385 . S
C336 H322 0.931 . S
C336 C335 1.385 . S
C336 C337 1.389 . S
C337 C336 1.389 . S
C337 C338 1.387 . S
C338 H323 0.930 . S
C338 C333 1.390 . S
C338 C337 1.387 . S
H339 C351 0.930 . S
H340 C353 0.930 . S
H341 C354 0.930 . S
H342 C358 0.959 . S
H343 C358 0.959 . S
H344 C358 0.961 . S
H345 C359 0.960 . S
H346 C359 0.961 . S
H347 C359 0.959 . S
H348 C362 0.929 . S
H349 C363 0.931 . S
H350 C365 0.930 . S
C351 H339 0.930 . S
C351 C352 1.399 . S
C351 C356 1.399 . S
C352 C351 1.399 . S
C352 C353 1.376 . S
C353 H340 0.930 . S
C353 C352 1.376 . S
C353 C354 1.388 . S
C354 H341 0.930 . S
C354 C353 1.388 . S
C354 C355 1.390 . S
C355 C354 1.390 . S
C355 C356 1.394 . S
C355 C361 1.465 . S
C356 C351 1.399 . S
C356 C355 1.394 . S
C356 C357 1.516 . S
C357 C356 1.516 . S
C357 C358 1.502 . S
C357 C359 1.561 . S
C357 C360 1.526 . S
C358 H342 0.959 . S
C358 H343 0.959 . S
C358 H344 0.961 . S
C358 C357 1.502 . S
C359 H345 0.960 . S
C359 H346 0.961 . S
C359 H347 0.959 . S
C359 C357 1.561 . S
C360 C357 1.526 . S
C360 C361 1.396 . S
C360 C365 1.390 . S
C361 C355 1.465 . S
C361 C360 1.396 . S
C361 C362 1.399 . S
C362 H348 0.929 . S
C362 C361 1.399 . S
C362 C363 1.385 . S
C363 H349 0.931 . S
C363 C362 1.385 . S
C363 C364 1.389 . S
C364 C363 1.389 . S
C364 C365 1.387 . S
C365 H350 0.930 . S
C365 C360 1.390 . S
C365 C364 1.387 . S
H366 C378 0.930 . S
H367 C380 0.930 . S
H368 C381 0.930 . S
H369 C385 0.959 . S
H370 C385 0.959 . S
H371 C385 0.961 . S
H372 C386 0.960 . S
H373 C386 0.961 . S
H374 C386 0.959 . S
H375 C389 0.929 . S
H376 C390 0.931 . S
H377 C392 0.930 . S
C378 H366 0.930 . S
C378 C379 1.399 . S
C378 C383 1.399 . S
C379 C378 1.399 . S
C379 C380 1.376 . S
C380 H367 0.930 . S
C380 C379 1.376 . S
C380 C381 1.388 . S
C381 H368 0.930 . S
C381 C380 1.388 . S
C381 C382 1.390 . S
C382 C381 1.390 . S
C382 C383 1.394 . S
C382 C388 1.465 . S
C383 C378 1.399 . S
C383 C382 1.394 . S
C383 C384 1.516 . S
C384 C383 1.516 . S
C384 C385 1.502 . S
C384 C386 1.561 . S
C384 C387 1.526 . S
C385 H369 0.959 . S
C385 H370 0.959 . S
C385 H371 0.961 . S
C385 C384 1.502 . S
C386 H372 0.960 . S
C386 H373 0.961 . S
C386 H374 0.959 . S
C386 C384 1.561 . S
C387 C384 1.526 . S
C387 C388 1.396 . S
C387 C392 1.390 . S
C388 C382 1.465 . S
C388 C387 1.396 . S
C388 C389 1.399 . S
C389 H375 0.929 . S
C389 C388 1.399 . S
C389 C390 1.385 . S
C390 H376 0.931 . S
C390 C389 1.385 . S
C390 C391 1.389 . S
C391 C390 1.389 . S
C391 C392 1.387 . S
C392 H377 0.930 . S
C392 C387 1.390 . S
C392 C391 1.387 . S
H393 C405 0.930 . S
H394 C407 0.930 . S
H395 C408 0.930 . S
H396 C412 0.959 . S
H397 C412 0.959 . S
H398 C412 0.961 . S
H399 C413 0.960 . S
H400 C413 0.961 . S
H401 C413 0.959 . S
H402 C416 0.929 . S
H403 C417 0.931 . S
H404 C419 0.930 . S
C405 H393 0.930 . S
C405 C406 1.399 . S
C405 C410 1.399 . S
C406 C405 1.399 . S
C406 C407 1.376 . S
C407 H394 0.930 . S
C407 C406 1.376 . S
C407 C408 1.388 . S
C408 H395 0.930 . S
C408 C407 1.388 . S
C408 C409 1.390 . S
C409 C408 1.390 . S
C409 C410 1.394 . S
C409 C415 1.465 . S
C410 C405 1.399 . S
C410 C409 1.394 . S
C410 C411 1.516 . S
C411 C410 1.516 . S
C411 C412 1.502 . S
C411 C413 1.561 . S
C411 C414 1.526 . S
C412 H396 0.959 . S
C412 H397 0.959 . S
C412 H398 0.961 . S
C412 C411 1.502 . S
C413 H399 0.960 . S
C413 H400 0.961 . S
C413 H401 0.959 . S
C413 C411 1.561 . S
C414 C411 1.526 . S
C414 C415 1.396 . S
C414 C419 1.390 . S
C415 C409 1.465 . S
C415 C414 1.396 . S
C415 C416 1.399 . S
C416 H402 0.929 . S
C416 C415 1.399 . S
C416 C417 1.385 . S
C417 H403 0.931 . S
C417 C416 1.385 . S
C417 C418 1.389 . S
C418 C417 1.389 . S
C418 C419 1.387 . S
C419 H404 0.930 . S
C419 C414 1.390 . S
C419 C418 1.387 . S
H420 C432 0.930 . S
H421 C434 0.930 . S
H422 C435 0.930 . S
H423 C439 0.959 . S
H424 C439 0.959 . S
H425 C439 0.961 . S
H426 C440 0.960 . S
H427 C440 0.961 . S
H428 C440 0.959 . S
H429 C443 0.929 . S
H430 C444 0.931 . S
H431 C446 0.930 . S
C432 H420 0.930 . S
C432 C433 1.399 . S
C432 C437 1.399 . S
C433 C432 1.399 . S
C433 C434 1.376 . S
C434 H421 0.930 . S
C434 C433 1.376 . S
C434 C435 1.388 . S
C435 H422 0.930 . S
C435 C434 1.388 . S
C435 C436 1.390 . S
C436 C435 1.390 . S
C436 C437 1.394 . S
C436 C442 1.465 . S
C437 C432 1.399 . S
C437 C436 1.394 . S
C437 C438 1.516 . S
C438 C437 1.516 . S
C438 C439 1.502 . S
C438 C440 1.561 . S
C438 C441 1.526 . S
C439 H423 0.959 . S
C439 H424 0.959 . S
C439 H425 0.961 . S
C439 C438 1.502 . S
C440 H426 0.960 . S
C440 H427 0.961 . S
C440 H428 0.959 . S
C440 C438 1.561 . S
C441 C438 1.526 . S
C441 C442 1.396 . S
C441 C446 1.390 . S
C442 C436 1.465 . S
C442 C441 1.396 . S
C442 C443 1.399 . S
C443 H429 0.929 . S
C443 C442 1.399 . S
C443 C444 1.385 . S
C444 H430 0.931 . S
C444 C443 1.385 . S
C444 C445 1.389 . S
C445 C444 1.389 . S
C445 C446 1.387 . S
C446 H431 0.930 . S
C446 C441 1.390 . S
C446 C445 1.387 . S
H447 C459 0.930 . S
H448 C461 0.930 . S
H449 C462 0.930 . S
H450 C466 0.959 . S
H451 C466 0.959 . S
H452 C466 0.961 . S
H453 C467 0.960 . S
H454 C467 0.961 . S
H455 C467 0.959 . S
H456 C470 0.929 . S
H457 C471 0.931 . S
H458 C473 0.930 . S
C459 H447 0.930 . S
C459 C460 1.399 . S
C459 C464 1.399 . S
C460 C459 1.399 . S
C460 C461 1.376 . S
C461 H448 0.930 . S
C461 C460 1.376 . S
C461 C462 1.388 . S
C462 H449 0.930 . S
C462 C461 1.388 . S
C462 C463 1.390 . S
C463 C462 1.390 . S
C463 C464 1.394 . S
C463 C469 1.465 . S
C464 C459 1.399 . S
C464 C463 1.394 . S
C464 C465 1.516 . S
C465 C464 1.516 . S
C465 C466 1.502 . S
C465 C467 1.561 . S
C465 C468 1.526 . S
C466 H450 0.959 . S
C466 H451 0.959 . S
C466 H452 0.961 . S
C466 C465 1.502 . S
C467 H453 0.960 . S
C467 H454 0.961 . S
C467 H455 0.959 . S
C467 C465 1.561 . S
C468 C465 1.526 . S
C468 C469 1.396 . S
C468 C473 1.390 . S
C469 C463 1.465 . S
C469 C468 1.396 . S
C469 C470 1.399 . S
C470 H456 0.929 . S
C470 C469 1.399 . S
C470 C471 1.385 . S
C471 H457 0.931 . S
C471 C470 1.385 . S
C471 C472 1.389 . S
C472 C471 1.389 . S
C472 C473 1.387 . S
C473 H458 0.930 . S
C473 C468 1.390 . S
C473 C472 1.387 . S
H474 C486 0.930 . S
H475 C488 0.930 . S
H476 C489 0.930 . S
H477 C493 0.959 . S
H478 C493 0.959 . S
H479 C493 0.961 . S
H480 C494 0.960 . S
H481 C494 0.961 . S
H482 C494 0.959 . S
H483 C497 0.929 . S
H484 C498 0.931 . S
H485 C500 0.930 . S
C486 H474 0.930 . S
C486 C487 1.399 . S
C486 C491 1.399 . S
C487 C486 1.399 . S
C487 C488 1.376 . S
C488 H475 0.930 . S
C488 C487 1.376 . S
C488 C489 1.388 . S
C489 H476 0.930 . S
C489 C488 1.388 . S
C489 C490 1.390 . S
C490 C489 1.390 . S
C490 C491 1.394 . S
C490 C496 1.465 . S
C491 C486 1.399 . S
C491 C490 1.394 . S
C491 C492 1.516 . S
C492 C491 1.516 . S
C492 C493 1.502 . S
C492 C494 1.561 . S
C492 C495 1.526 . S
C493 H477 0.959 . S
C493 H478 0.959 . S
C493 H479 0.961 . S
C493 C492 1.502 . S
C494 H480 0.960 . S
C494 H481 0.961 . S
C494 H482 0.959 . S
C494 C492 1.561 . S
C495 C492 1.526 . S
C495 C496 1.396 . S
C495 C500 1.390 . S
C496 C490 1.465 . S
C496 C495 1.396 . S
C496 C497 1.399 . S
C497 H483 0.929 . S
C497 C496 1.399 . S
C497 C498 1.385 . S
C498 H484 0.931 . S
C498 C497 1.385 . S
C498 C499 1.389 . S
C499 C498 1.389 . S
C499 C500 1.387 . S
C500 H485 0.930 . S
C500 C495 1.390 . S
C500 C499 1.387 . S
H501 C513 0.930 . S
H502 C515 0.930 . S
H503 C516 0.930 . S
H504 C520 0.959 . S
H505 C520 0.959 . S
H506 C520 0.961 . S
H507 C521 0.960 . S
H508 C521 0.961 . S
H509 C521 0.959 . S
H510 C524 0.929 . S
H511 C525 0.931 . S
H512 C527 0.930 . S
C513 H501 0.930 . S
C513 C514 1.399 . S
C513 C518 1.399 . S
C514 C513 1.399 . S
C514 C515 1.376 . S
C515 H502 0.930 . S
C515 C514 1.376 . S
C515 C516 1.388 . S
C516 H503 0.930 . S
C516 C515 1.388 . S
C516 C517 1.390 . S
C517 C516 1.390 . S
C517 C518 1.394 . S
C517 C523 1.465 . S
C518 C513 1.399 . S
C518 C517 1.394 . S
C518 C519 1.516 . S
C519 C518 1.516 . S
C519 C520 1.502 . S
C519 C521 1.561 . S
C519 C522 1.526 . S
C520 H504 0.959 . S
C520 H505 0.959 . S
C520 H506 0.961 . S
C520 C519 1.502 . S
C521 H507 0.960 . S
C521 H508 0.961 . S
C521 H509 0.959 . S
C521 C519 1.561 . S
C522 C519 1.526 . S
C522 C523 1.396 . S
C522 C527 1.390 . S
C523 C517 1.465 . S
C523 C522 1.396 . S
C523 C524 1.399 . S
C524 H510 0.929 . S
C524 C523 1.399 . S
C524 C525 1.385 . S
C525 H511 0.931 . S
C525 C524 1.385 . S
C525 C526 1.389 . S
C526 C525 1.389 . S
C526 C527 1.387 . S
C527 H512 0.930 . S
C527 C522 1.390 . S
C527 C526 1.387 . S
H528 C540 0.930 . S
H529 C542 0.930 . S
H530 C543 0.930 . S
H531 C547 0.959 . S
H532 C547 0.959 . S
H533 C547 0.961 . S
H534 C548 0.960 . S
H535 C548 0.961 . S
H536 C548 0.959 . S
H537 C551 0.929 . S
H538 C552 0.931 . S
H539 C554 0.930 . S
C540 H528 0.930 . S
C540 C541 1.399 . S
C540 C545 1.399 . S
C541 C540 1.399 . S
C541 C542 1.376 . S
C542 H529 0.930 . S
C542 C541 1.376 . S
C542 C543 1.388 . S
C543 H530 0.930 . S
C543 C542 1.388 . S
C543 C544 1.390 . S
C544 C543 1.390 . S
C544 C545 1.394 . S
C544 C550 1.465 . S
C545 C540 1.399 . S
C545 C544 1.394 . S
C545 C546 1.516 . S
C546 C545 1.516 . S
C546 C547 1.502 . S
C546 C548 1.561 . S
C546 C549 1.526 . S
C547 H531 0.959 . S
C547 H532 0.959 . S
C547 H533 0.961 . S
C547 C546 1.502 . S
C548 H534 0.960 . S
C548 H535 0.961 . S
C548 H536 0.959 . S
C548 C546 1.561 . S
C549 C546 1.526 . S
C549 C550 1.396 . S
C549 C554 1.390 . S
C550 C544 1.465 . S
C550 C549 1.396 . S
C550 C551 1.399 . S
C551 H537 0.929 . S
C551 C550 1.399 . S
C551 C552 1.385 . S
C552 H538 0.931 . S
C552 C551 1.385 . S
C552 C553 1.389 . S
C553 C552 1.389 . S
C553 C554 1.387 . S
C554 H539 0.930 . S
C554 C549 1.390 . S
C554 C553 1.387 . S
H555 C567 0.930 . S
H556 C569 0.930 . S
H557 C570 0.930 . S
H558 C574 0.959 . S
H559 C574 0.959 . S
H560 C574 0.961 . S
H561 C575 0.960 . S
H562 C575 0.961 . S
H563 C575 0.959 . S
H564 C578 0.929 . S
H565 C579 0.931 . S
H566 C581 0.930 . S
C567 H555 0.930 . S
C567 C568 1.399 . S
C567 C572 1.399 . S
C568 C567 1.399 . S
C568 C569 1.376 . S
C569 H556 0.930 . S
C569 C568 1.376 . S
C569 C570 1.388 . S
C570 H557 0.930 . S
C570 C569 1.388 . S
C570 C571 1.390 . S
C571 C570 1.390 . S
C571 C572 1.394 . S
C571 C577 1.465 . S
C572 C567 1.399 . S
C572 C571 1.394 . S
C572 C573 1.516 . S
C573 C572 1.516 . S
C573 C574 1.502 . S
C573 C575 1.561 . S
C573 C576 1.526 . S
C574 H558 0.959 . S
C574 H559 0.959 . S
C574 H560 0.961 . S
C574 C573 1.502 . S
C575 H561 0.960 . S
C575 H562 0.961 . S
C575 H563 0.959 . S
C575 C573 1.561 . S
C576 C573 1.526 . S
C576 C577 1.396 . S
C576 C581 1.390 . S
C577 C571 1.465 . S
C577 C576 1.396 . S
C577 C578 1.399 . S
C578 H564 0.929 . S
C578 C577 1.399 . S
C578 C579 1.385 . S
C579 H565 0.931 . S
C579 C578 1.385 . S
C579 C580 1.389 . S
C580 C579 1.389 . S
C580 C581 1.387 . S
C581 H566 0.930 . S
C581 C576 1.390 . S
C581 C580 1.387 . S
H582 C594 0.930 . S
H583 C596 0.930 . S
H584 C597 0.930 . S
H585 C601 0.959 . S
H586 C601 0.959 . S
H587 C601 0.961 . S
H588 C602 0.960 . S
H589 C602 0.961 . S
H590 C602 0.959 . S
H591 C605 0.929 . S
H592 C606 0.931 . S
H593 C608 0.930 . S
C594 H582 0.930 . S
C594 C595 1.399 . S
C594 C599 1.399 . S
C595 C594 1.399 . S
C595 C596 1.376 . S
C596 H583 0.930 . S
C596 C595 1.376 . S
C596 C597 1.388 . S
C597 H584 0.930 . S
C597 C596 1.388 . S
C597 C598 1.390 . S
C598 C597 1.390 . S
C598 C599 1.394 . S
C598 C604 1.465 . S
C599 C594 1.399 . S
C599 C598 1.394 . S
C599 C600 1.516 . S
C600 C599 1.516 . S
C600 C601 1.502 . S
C600 C602 1.561 . S
C600 C603 1.526 . S
C601 H585 0.959 . S
C601 H586 0.959 . S
C601 H587 0.961 . S
C601 C600 1.502 . S
C602 H588 0.960 . S
C602 H589 0.961 . S
C602 H590 0.959 . S
C602 C600 1.561 . S
C603 C600 1.526 . S
C603 C604 1.396 . S
C603 C608 1.390 . S
C604 C598 1.465 . S
C604 C603 1.396 . S
C604 C605 1.399 . S
C605 H591 0.929 . S
C605 C604 1.399 . S
C605 C606 1.385 . S
C606 H592 0.931 . S
C606 C605 1.385 . S
C606 C607 1.389 . S
C607 C606 1.389 . S
C607 C608 1.387 . S
C608 H593 0.930 . S
C608 C603 1.390 . S
C608 C607 1.387 . S
H609 C621 0.930 . S
H610 C623 0.930 . S
H611 C624 0.930 . S
H612 C628 0.959 . S
H613 C628 0.959 . S
H614 C628 0.961 . S
H615 C629 0.960 . S
H616 C629 0.961 . S
H617 C629 0.959 . S
H618 C632 0.929 . S
H619 C633 0.931 . S
H620 C635 0.930 . S
C621 H609 0.930 . S
C621 C622 1.399 . S
C621 C626 1.399 . S
C622 C621 1.399 . S
C622 C623 1.376 . S
C623 H610 0.930 . S
C623 C622 1.376 . S
C623 C624 1.388 . S
C624 H611 0.930 . S
C624 C623 1.388 . S
C624 C625 1.390 . S
C625 C624 1.390 . S
C625 C626 1.394 . S
C625 C631 1.465 . S
C626 C621 1.399 . S
C626 C625 1.394 . S
C626 C627 1.516 . S
C627 C626 1.516 . S
C627 C628 1.502 . S
C627 C629 1.561 . S
C627 C630 1.526 . S
C628 H612 0.959 . S
C628 H613 0.959 . S
C628 H614 0.961 . S
C628 C627 1.502 . S
C629 H615 0.960 . S
C629 H616 0.961 . S
C629 H617 0.959 . S
C629 C627 1.561 . S
C630 C627 1.526 . S
C630 C631 1.396 . S
C630 C635 1.390 . S
C631 C625 1.465 . S
C631 C630 1.396 . S
C631 C632 1.399 . S
C632 H618 0.929 . S
C632 C631 1.399 . S
C632 C633 1.385 . S
C633 H619 0.931 . S
C633 C632 1.385 . S
C633 C634 1.389 . S
C634 C633 1.389 . S
C634 C635 1.387 . S
C635 H620 0.930 . S
C635 C630 1.390 . S
C635 C634 1.387 . S
H636 C648 0.930 . S
H637 C650 0.930 . S
H638 C651 0.930 . S
H639 C655 0.959 . S
H640 C655 0.959 . S
H641 C655 0.961 . S
H642 C656 0.960 . S
H643 C656 0.961 . S
H644 C656 0.959 . S
H645 C659 0.929 . S
H646 C660 0.931 . S
H647 C662 0.930 . S
C648 H636 0.930 . S
C648 C649 1.399 . S
C648 C653 1.399 . S
C649 C648 1.399 . S
C649 C650 1.376 . S
C650 H637 0.930 . S
C650 C649 1.376 . S
C650 C651 1.388 . S
C651 H638 0.930 . S
C651 C650 1.388 . S
C651 C652 1.390 . S
C652 C651 1.390 . S
C652 C653 1.394 . S
C652 C658 1.465 . S
C653 C648 1.399 . S
C653 C652 1.394 . S
C653 C654 1.516 . S
C654 C653 1.516 . S
C654 C655 1.502 . S
C654 C656 1.561 . S
C654 C657 1.526 . S
C655 H639 0.959 . S
C655 H640 0.959 . S
C655 H641 0.961 . S
C655 C654 1.502 . S
C656 H642 0.960 . S
C656 H643 0.961 . S
C656 H644 0.959 . S
C656 C654 1.561 . S
C657 C654 1.526 . S
C657 C658 1.396 . S
C657 C662 1.390 . S
C658 C652 1.465 . S
C658 C657 1.396 . S
C658 C659 1.399 . S
C659 H645 0.929 . S
C659 C658 1.399 . S
C659 C660 1.385 1_554 S
C660 H646 0.931 . S
C660 C659 1.385 1_556 S
C660 C661 1.389 . S
C661 C660 1.389 . S
C661 C662 1.387 1_556 S
C662 H647 0.930 . S
C662 C657 1.390 . S
C662 C661 1.387 1_554 S
H663 C675 0.930 . S
H664 C677 0.930 . S
H665 C678 0.930 . S
H666 C682 0.959 . S
H667 C682 0.959 . S
H668 C682 0.961 . S
H669 C683 0.960 . S
H670 C683 0.961 . S
H671 C683 0.959 . S
H672 C686 0.929 . S
H673 C687 0.931 . S
H674 C689 0.930 . S
C675 H663 0.930 . S
C675 C676 1.399 . S
C675 C680 1.399 . S
C676 C675 1.399 . S
C676 C677 1.376 1_545 S
C677 H664 0.930 . S
C677 C676 1.376 1_565 S
C677 C678 1.388 . S
C678 H665 0.930 . S
C678 C677 1.388 . S
C678 C679 1.390 1_565 S
C679 C678 1.390 1_545 S
C679 C680 1.394 . S
C679 C685 1.465 . S
C680 C675 1.399 . S
C680 C679 1.394 . S
C680 C681 1.516 . S
C681 C680 1.516 . S
C681 C682 1.502 . S
C681 C683 1.561 . S
C681 C684 1.526 . S
C682 H666 0.959 . S
C682 H667 0.959 . S
C682 H668 0.961 . S
C682 C681 1.502 . S
C683 H669 0.960 . S
C683 H670 0.961 . S
C683 H671 0.959 . S
C683 C681 1.561 . S
C684 C681 1.526 . S
C684 C685 1.396 . S
C684 C689 1.390 . S
C685 C679 1.465 . S
C685 C684 1.396 . S
C685 C686 1.399 1_545 S
C686 H672 0.929 . S
C686 C685 1.399 1_565 S
C686 C687 1.385 . S
C687 H673 0.931 . S
C687 C686 1.385 . S
C687 C688 1.389 1_565 S
C688 C687 1.389 1_545 S
C688 C689 1.387 . S
C689 H674 0.930 . S
C689 C684 1.390 . S
C689 C688 1.387 . S
H690 C702 0.930 . S
H691 C704 0.930 . S
H692 C705 0.930 . S
H693 C709 0.959 . S
H694 C709 0.959 . S
H695 C709 0.961 . S
H696 C710 0.960 . S
H697 C710 0.961 . S
H698 C710 0.959 . S
H699 C713 0.929 . S
H700 C714 0.931 . S
H701 C716 0.930 . S
C702 H690 0.930 . S
C702 C703 1.399 . S
C702 C707 1.399 . S
C703 C702 1.399 . S
C703 C704 1.376 . S
C704 H691 0.930 . S
C704 C703 1.376 . S
C704 C705 1.388 . S
C705 H692 0.930 . S
C705 C704 1.388 . S
C705 C706 1.390 . S
C706 C705 1.390 . S
C706 C707 1.394 . S
C706 C712 1.465 . S
C707 C702 1.399 . S
C707 C706 1.394 . S
C707 C708 1.516 . S
C708 C707 1.516 . S
C708 C709 1.502 . S
C708 C710 1.561 . S
C708 C711 1.526 . S
C709 H693 0.959 . S
C709 H694 0.959 . S
C709 H695 0.961 . S
C709 C708 1.502 . S
C710 H696 0.960 . S
C710 H697 0.961 . S
C710 H698 0.959 . S
C710 C708 1.561 . S
C711 C708 1.526 . S
C711 C712 1.396 . S
C711 C716 1.390 . S
C712 C706 1.465 . S
C712 C711 1.396 . S
C712 C713 1.399 . S
C713 H699 0.929 . S
C713 C712 1.399 . S
C713 C714 1.385 . S
C714 H700 0.931 . S
C714 C713 1.385 . S
C714 C715 1.389 . S
C715 C714 1.389 . S
C715 C716 1.387 . S
C716 H701 0.930 . S
C716 C711 1.390 . S
C716 C715 1.387 . S
H717 C729 0.930 . S
H718 C731 0.930 . S
H719 C732 0.930 . S
H720 C736 0.959 . S
H721 C736 0.959 . S
H722 C736 0.961 . S
H723 C737 0.960 . S
H724 C737 0.961 . S
H725 C737 0.959 . S
H726 C740 0.929 . S
H727 C741 0.931 . S
H728 C743 0.930 . S
C729 H717 0.930 . S
C729 C730 1.399 . S
C729 C734 1.399 . S
C730 C729 1.399 . S
C730 C731 1.376 1_545 S
C731 H718 0.930 . S
C731 C730 1.376 1_565 S
C731 C732 1.388 . S
C732 H719 0.930 . S
C732 C731 1.388 . S
C732 C733 1.390 . S
C733 C732 1.390 . S
C733 C734 1.394 1_565 S
C733 C739 1.465 . S
C734 C729 1.399 . S
C734 C733 1.394 1_545 S
C734 C735 1.516 . S
C735 C734 1.516 . S
C735 C736 1.502 . S
C735 C737 1.561 . S
C735 C738 1.526 . S
C736 H720 0.959 . S
C736 H721 0.959 . S
C736 H722 0.961 . S
C736 C735 1.502 . S
C737 H723 0.960 . S
C737 H724 0.961 . S
C737 H725 0.959 . S
C737 C735 1.561 . S
C738 C735 1.526 . S
C738 C739 1.396 1_545 S
C738 C743 1.390 . S
C739 C733 1.465 . S
C739 C738 1.396 1_565 S
C739 C740 1.399 . S
C740 H726 0.929 . S
C740 C739 1.399 . S
C740 C741 1.385 . S
C741 H727 0.931 . S
C741 C740 1.385 . S
C741 C742 1.389 . S
C742 C741 1.389 . S
C742 C743 1.387 1_565 S
C743 H728 0.930 . S
C743 C738 1.390 . S
C743 C742 1.387 1_545 S
H744 C756 0.930 . S
H745 C758 0.930 . S
H746 C759 0.930 . S
H747 C763 0.959 . S
H748 C763 0.959 . S
H749 C763 0.961 . S
H750 C764 0.960 . S
H751 C764 0.961 . S
H752 C764 0.959 . S
H753 C767 0.929 . S
H754 C768 0.931 . S
H755 C770 0.930 . S
C756 H744 0.930 . S
C756 C757 1.399 . S
C756 C761 1.399 . S
C757 C756 1.399 . S
C757 C758 1.376 . S
C758 H745 0.930 . S
C758 C757 1.376 . S
C758 C759 1.388 . S
C759 H746 0.930 . S
C759 C758 1.388 . S
C759 C760 1.390 . S
C760 C759 1.390 . S
C760 C761 1.394 . S
C760 C766 1.465 . S
C761 C756 1.399 . S
C761 C760 1.394 . S
C761 C762 1.516 . S
C762 C761 1.516 . S
C762 C763 1.502 . S
C762 C764 1.561 . S
C762 C765 1.526 . S
C763 H747 0.959 . S
C763 H748 0.959 . S
C763 H749 0.961 . S
C763 C762 1.502 . S
C764 H750 0.960 . S
C764 H751 0.961 . S
C764 H752 0.959 . S
C764 C762 1.561 . S
C765 C762 1.526 . S
C765 C766 1.396 . S
C765 C770 1.390 . S
C766 C760 1.465 . S
C766 C765 1.396 . S
C766 C767 1.399 . S
C767 H753 0.929 . S
C767 C766 1.399 . S
C767 C768 1.385 1_556 S
C768 H754 0.931 . S
C768 C767 1.385 1_554 S
C768 C769 1.389 . S
C769 C768 1.389 . S
C769 C770 1.387 1_554 S
C770 H755 0.930 . S
C770 C765 1.390 . S
C770 C769 1.387 1_556 S
H771 C783 0.930 . S
H772 C785 0.930 . S
H773 C786 0.930 . S
H774 C790 0.959 . S
H775 C790 0.959 . S
H776 C790 0.961 . S
H777 C791 0.960 . S
H778 C791 0.961 . S
H779 C791 0.959 1_655 S
H780 C794 0.929 . S
H781 C795 0.931 . S
H782 C797 0.930 . S
C783 H771 0.930 . S
C783 C784 1.399 . S
C783 C788 1.399 . S
C784 C783 1.399 . S
C784 C785 1.376 1_455 S
C785 H772 0.930 . S
C785 C784 1.376 1_655 S
C785 C786 1.388 . S
C786 H773 0.930 . S
C786 C785 1.388 . S
C786 C787 1.389 1_655 S
C787 C786 1.389 1_455 S
C787 C788 1.403 . S
C787 C793 1.460 1_455 S
C788 C783 1.399 . S
C788 C787 1.403 . S
C788 C789 1.516 . S
C789 C788 1.516 . S
C789 C790 1.502 . S
C789 C791 1.561 . S
C789 C792 1.526 . S
C790 H774 0.959 . S
C790 H775 0.959 . S
C790 H776 0.961 . S
C790 C789 1.502 . S
C791 H777 0.960 . S
C791 H778 0.961 . S
C791 H779 0.959 1_455 S
C791 C789 1.561 . S
C792 C789 1.526 . S
C792 C793 1.396 1_455 S
C792 C797 1.390 . S
C793 C787 1.460 1_655 S
C793 C792 1.396 1_655 S
C793 C794 1.399 . S
C794 H780 0.929 . S
C794 C793 1.399 . S
C794 C795 1.385 . S
C795 H781 0.931 . S
C795 C794 1.385 . S
C795 C796 1.389 . S
C796 C795 1.389 . S
C796 C797 1.387 1_655 S
C797 H782 0.930 . S
C797 C792 1.390 . S
C797 C796 1.387 1_455 S
C325 C25 0.359 . S
C337 C303 0.376 . S
C352 C65 0.324 . S
C364 C239 0.392 . S
C379 C105 0.542 . S
C391 C271 0.350 . S
C406 C4 0.412 . S
C418 C297 0.313 . S
C445 C233 0.504 . S
C433 C44 0.326 . S
C472 C265 0.450 . S
C460 C84 0.530 . S
C487 C60 2.904 . S
C499 C175 2.854 . S
C514 C100 3.038 . S
C526 C207 2.961 . S
C541 C31 3.040 . S
C553 C137 2.977 . S
C580 C169 3.002 . S
C568 C71 3.046 . S
C607 C201 2.867 . S
C595 C111 2.905 . S
C622 C20 2.907 . S
C634 C143 2.854 . S
C661 C213 1.789 . S
C649 C2 1.764 . S
C676 C42 1.738 . S
C688 C149 1.734 . S
C703 C82 1.722 . S
C715 C181 1.749 . S
C742 C277 1.075 . S
C730 C63 1.082 . S
C769 C309 1.113 . S
C757 C103 1.087 . S
C784 C23 1.054 . S
C796 C245 1.015 1_655 S
