# Generated by pormake.
# Topology ptr, (4,4)-cn, num edge types: 1
# Building blocks:
#     Node 0, Type 0, BuildingBlock: QUQFOY_clean_sbu_3, # of connection points: 4
#     Node 1, Type 0, BuildingBlock: QUQFOY_clean_sbu_3, # of connection points: 4
#     Node 2, Type 0, BuildingBlock: QUQFOY_clean_sbu_3, # of connection points: 4
#     Node 3, Type 0, BuildingBlock: QUQFOY_clean_sbu_3, # of connection points: 4
#     Node 4, Type 0, BuildingBlock: QUQFOY_clean_sbu_3, # of connection points: 4
#     Node 5, Type 0, BuildingBlock: QUQFOY_clean_sbu_3, # of connection points: 4
#     Node 6, Type 0, BuildingBlock: QUQFOY_clean_sbu_3, # of connection points: 4
#     Node 7, Type 0, BuildingBlock: QUQFOY_clean_sbu_3, # of connection points: 4
#     Node 8, Type 0, BuildingBlock: QUQFOY_clean_sbu_3, # of connection points: 4
#     Node 9, Type 0, BuildingBlock: QUQFOY_clean_sbu_3, # of connection points: 4
#     Node 10, Type 0, BuildingBlock: QUQFOY_clean_sbu_3, # of connection points: 4
#     Node 11, Type 0, BuildingBlock: QUQFOY_clean_sbu_3, # of connection points: 4
#     Node 12, Type 0, BuildingBlock: QUQFOY_clean_sbu_3, # of connection points: 4
#     Node 13, Type 0, BuildingBlock: QUQFOY_clean_sbu_3, # of connection points: 4
#     Node 14, Type 0, BuildingBlock: QUQFOY_clean_sbu_3, # of connection points: 4
#     Node 15, Type 0, BuildingBlock: QUQFOY_clean_sbu_3, # of connection points: 4
#     Node 16, Type 0, BuildingBlock: QUQFOY_clean_sbu_3, # of connection points: 4
#     Node 17, Type 0, BuildingBlock: QUQFOY_clean_sbu_3, # of connection points: 4
#     Node 18, Type 1, BuildingBlock: MIFKUJ_clean_linker_1, # of connection points: 4
#     Node 19, Type 1, BuildingBlock: MIFKUJ_clean_linker_1, # of connection points: 4
#     Node 20, Type 1, BuildingBlock: MIFKUJ_clean_linker_1, # of connection points: 4
#     Node 21, Type 1, BuildingBlock: MIFKUJ_clean_linker_1, # of connection points: 4
#     Node 22, Type 1, BuildingBlock: MIFKUJ_clean_linker_1, # of connection points: 4
#     Node 23, Type 1, BuildingBlock: MIFKUJ_clean_linker_1, # of connection points: 4
#     Node 24, Type 1, BuildingBlock: MIFKUJ_clean_linker_1, # of connection points: 4
#     Node 25, Type 1, BuildingBlock: MIFKUJ_clean_linker_1, # of connection points: 4
#     Node 26, Type 1, BuildingBlock: MIFKUJ_clean_linker_1, # of connection points: 4
#     Node 27, Type 1, BuildingBlock: MIFKUJ_clean_linker_1, # of connection points: 4
#     Node 28, Type 1, BuildingBlock: MIFKUJ_clean_linker_1, # of connection points: 4
#     Node 29, Type 1, BuildingBlock: MIFKUJ_clean_linker_1, # of connection points: 4
#     Node 30, Type 1, BuildingBlock: MIFKUJ_clean_linker_1, # of connection points: 4
#     Node 31, Type 1, BuildingBlock: MIFKUJ_clean_linker_1, # of connection points: 4
#     Node 32, Type 1, BuildingBlock: MIFKUJ_clean_linker_1, # of connection points: 4
#     Node 33, Type 1, BuildingBlock: MIFKUJ_clean_linker_1, # of connection points: 4
#     Node 34, Type 1, BuildingBlock: MIFKUJ_clean_linker_1, # of connection points: 4
#     Node 35, Type 1, BuildingBlock: MIFKUJ_clean_linker_1, # of connection points: 4
#     Edge 36, Type (0, 1), BuildingBlock: EZIPEK_clean_linker_0, # of connection points: 2
#     Edge 37, Type (0, 1), BuildingBlock: EZIPEK_clean_linker_0, # of connection points: 2
#     Edge 38, Type (0, 1), BuildingBlock: EZIPEK_clean_linker_0, # of connection points: 2
#     Edge 39, Type (0, 1), BuildingBlock: EZIPEK_clean_linker_0, # of connection points: 2
#     Edge 40, Type (0, 1), BuildingBlock: EZIPEK_clean_linker_0, # of connection points: 2
#     Edge 41, Type (0, 1), BuildingBlock: EZIPEK_clean_linker_0, # of connection points: 2
#     Edge 42, Type (0, 1), BuildingBlock: EZIPEK_clean_linker_0, # of connection points: 2
#     Edge 43, Type (0, 1), BuildingBlock: EZIPEK_clean_linker_0, # of connection points: 2
#     Edge 44, Type (0, 1), BuildingBlock: EZIPEK_clean_linker_0, # of connection points: 2
#     Edge 45, Type (0, 1), BuildingBlock: EZIPEK_clean_linker_0, # of connection points: 2
#     Edge 46, Type (0, 1), BuildingBlock: EZIPEK_clean_linker_0, # of connection points: 2
#     Edge 47, Type (0, 1), BuildingBlock: EZIPEK_clean_linker_0, # of connection points: 2
#     Edge 48, Type (0, 1), BuildingBlock: EZIPEK_clean_linker_0, # of connection points: 2
#     Edge 49, Type (0, 1), BuildingBlock: EZIPEK_clean_linker_0, # of connection points: 2
#     Edge 50, Type (0, 1), BuildingBlock: EZIPEK_clean_linker_0, # of connection points: 2
#     Edge 51, Type (0, 1), BuildingBlock: EZIPEK_clean_linker_0, # of connection points: 2
#     Edge 52, Type (0, 1), BuildingBlock: EZIPEK_clean_linker_0, # of connection points: 2
#     Edge 53, Type (0, 1), BuildingBlock: EZIPEK_clean_linker_0, # of connection points: 2
#     Edge 54, Type (0, 1), BuildingBlock: EZIPEK_clean_linker_0, # of connection points: 2
#     Edge 55, Type (0, 1), BuildingBlock: EZIPEK_clean_linker_0, # of connection points: 2
#     Edge 56, Type (0, 1), BuildingBlock: EZIPEK_clean_linker_0, # of connection points: 2
#     Edge 57, Type (0, 1), BuildingBlock: EZIPEK_clean_linker_0, # of connection points: 2
#     Edge 58, Type (0, 1), BuildingBlock: EZIPEK_clean_linker_0, # of connection points: 2
#     Edge 59, Type (0, 1), BuildingBlock: EZIPEK_clean_linker_0, # of connection points: 2
#     Edge 60, Type (0, 1), BuildingBlock: EZIPEK_clean_linker_0, # of connection points: 2
#     Edge 61, Type (0, 1), BuildingBlock: EZIPEK_clean_linker_0, # of connection points: 2
#     Edge 62, Type (0, 1), BuildingBlock: EZIPEK_clean_linker_0, # of connection points: 2
#     Edge 63, Type (0, 1), BuildingBlock: EZIPEK_clean_linker_0, # of connection points: 2
#     Edge 64, Type (0, 1), BuildingBlock: EZIPEK_clean_linker_0, # of connection points: 2
#     Edge 65, Type (0, 1), BuildingBlock: EZIPEK_clean_linker_0, # of connection points: 2
#     Edge 66, Type (0, 1), BuildingBlock: EZIPEK_clean_linker_0, # of connection points: 2
#     Edge 67, Type (0, 1), BuildingBlock: EZIPEK_clean_linker_0, # of connection points: 2
#     Edge 68, Type (0, 1), BuildingBlock: EZIPEK_clean_linker_0, # of connection points: 2
#     Edge 69, Type (0, 1), BuildingBlock: EZIPEK_clean_linker_0, # of connection points: 2
#     Edge 70, Type (0, 1), BuildingBlock: EZIPEK_clean_linker_0, # of connection points: 2
#     Edge 71, Type (0, 1), BuildingBlock: EZIPEK_clean_linker_0, # of connection points: 2
#     Edge 72, Type (0, 1), BuildingBlock: EZIPEK_clean_linker_0, # of connection points: 2
#     Edge 73, Type (0, 1), BuildingBlock: EZIPEK_clean_linker_0, # of connection points: 2
#     Edge 74, Type (0, 1), BuildingBlock: EZIPEK_clean_linker_0, # of connection points: 2
#     Edge 75, Type (0, 1), BuildingBlock: EZIPEK_clean_linker_0, # of connection points: 2
#     Edge 76, Type (0, 1), BuildingBlock: EZIPEK_clean_linker_0, # of connection points: 2
#     Edge 77, Type (0, 1), BuildingBlock: EZIPEK_clean_linker_0, # of connection points: 2
#     Edge 78, Type (0, 1), BuildingBlock: EZIPEK_clean_linker_0, # of connection points: 2
#     Edge 79, Type (0, 1), BuildingBlock: EZIPEK_clean_linker_0, # of connection points: 2
#     Edge 80, Type (0, 1), BuildingBlock: EZIPEK_clean_linker_0, # of connection points: 2
#     Edge 81, Type (0, 1), BuildingBlock: EZIPEK_clean_linker_0, # of connection points: 2
#     Edge 82, Type (0, 1), BuildingBlock: EZIPEK_clean_linker_0, # of connection points: 2
#     Edge 83, Type (0, 1), BuildingBlock: EZIPEK_clean_linker_0, # of connection points: 2
#     Edge 84, Type (0, 1), BuildingBlock: EZIPEK_clean_linker_0, # of connection points: 2
#     Edge 85, Type (0, 1), BuildingBlock: EZIPEK_clean_linker_0, # of connection points: 2
#     Edge 86, Type (0, 1), BuildingBlock: EZIPEK_clean_linker_0, # of connection points: 2
#     Edge 87, Type (0, 1), BuildingBlock: EZIPEK_clean_linker_0, # of connection points: 2
#     Edge 88, Type (0, 1), BuildingBlock: EZIPEK_clean_linker_0, # of connection points: 2
#     Edge 89, Type (0, 1), BuildingBlock: EZIPEK_clean_linker_0, # of connection points: 2
#     Edge 90, Type (0, 1), BuildingBlock: EZIPEK_clean_linker_0, # of connection points: 2
#     Edge 91, Type (0, 1), BuildingBlock: EZIPEK_clean_linker_0, # of connection points: 2
#     Edge 92, Type (0, 1), BuildingBlock: EZIPEK_clean_linker_0, # of connection points: 2
#     Edge 93, Type (0, 1), BuildingBlock: EZIPEK_clean_linker_0, # of connection points: 2
#     Edge 94, Type (0, 1), BuildingBlock: EZIPEK_clean_linker_0, # of connection points: 2
#     Edge 95, Type (0, 1), BuildingBlock: EZIPEK_clean_linker_0, # of connection points: 2
#     Edge 96, Type (0, 1), BuildingBlock: EZIPEK_clean_linker_0, # of connection points: 2
#     Edge 97, Type (0, 1), BuildingBlock: EZIPEK_clean_linker_0, # of connection points: 2
#     Edge 98, Type (0, 1), BuildingBlock: EZIPEK_clean_linker_0, # of connection points: 2
#     Edge 99, Type (0, 1), BuildingBlock: EZIPEK_clean_linker_0, # of connection points: 2
#     Edge 100, Type (0, 1), BuildingBlock: EZIPEK_clean_linker_0, # of connection points: 2
#     Edge 101, Type (0, 1), BuildingBlock: EZIPEK_clean_linker_0, # of connection points: 2
#     Edge 102, Type (0, 1), BuildingBlock: EZIPEK_clean_linker_0, # of connection points: 2
#     Edge 103, Type (0, 1), BuildingBlock: EZIPEK_clean_linker_0, # of connection points: 2
#     Edge 104, Type (0, 1), BuildingBlock: EZIPEK_clean_linker_0, # of connection points: 2
#     Edge 105, Type (0, 1), BuildingBlock: EZIPEK_clean_linker_0, # of connection points: 2
#     Edge 106, Type (0, 1), BuildingBlock: EZIPEK_clean_linker_0, # of connection points: 2
#     Edge 107, Type (0, 1), BuildingBlock: EZIPEK_clean_linker_0, # of connection points: 2
# Relax obj value: 0.033
# Max RMSD: 0.123
# Mean RMSD: 0.057
data_MOF--net-ptr--node1-QUQFOY_clean_sbu_3--node2-MIFKUJ_clean_linker_1--edge1-EZIPEK_clean_linker_0
_symmetry_space_group_name_H-M    P1
_symmetry_Int_Tables_number       1
_symmetry_cell_setting            triclinic
loop_
_symmetry_equiv_pos_as_xyz
'x, y, z'
_cell_length_a     70.434581
_cell_length_b     70.855213
_cell_length_c     48.824214
_cell_angle_alpha  90.411395
_cell_angle_beta   89.444182
_cell_angle_gamma 120.61153
loop_
_atom_site_label
_atom_site_type_symbol
_atom_site_fract_x
_atom_site_fract_y
_atom_site_fract_z
_atom_type_partial_charge
C0 C 0.95503 0.30169 0.9931 0.0
O1 O 0.9431 0.30889 0.00282 0.0
Cd2 Cd 0.95797 0.34503 0.02254 0.0
O3 O 0.97585 0.31228 0.99579 0.0
Cd4 Cd 0.00567 0.34482 0.01725 0.0
C5 C 0.99598 0.37301 0.96986 0.0
O6 O 0.98506 0.34935 0.0535 0.0
O7 O 0.01842 0.37614 0.04796 0.0
O8 O 0.01391 0.32017 0.04006 0.0
C9 C 8e-05 0.36843 0.06044 0.0
O10 O 0.97916 0.36862 0.98457 0.0
C11 C 0.0341 0.33 0.03311 0.0
O12 O 0.0083 0.3652 0.97554 0.0
O13 O 0.04125 0.3466 0.01748 0.0
C14 C 0.65075 0.6901 0.03838 0.0
O15 O 0.63045 0.68311 0.03427 0.0
Cd16 Cd 0.6068 0.64851 0.01269 0.0
O17 O 0.65977 0.67946 0.0301 0.0
Cd18 Cd 0.65232 0.64703 0.00331 0.0
C19 C 0.61765 0.61492 0.05326 0.0
O20 O 0.62651 0.64905 0.97238 0.0
O21 O 0.63153 0.62173 0.96633 0.0
O22 O 0.68866 0.67536 0.98956 0.0
C23 C 0.62163 0.63166 0.95932 0.0
O24 O 0.60515 0.62202 0.04573 0.0
C25 C 0.69602 0.66269 0.98444 0.0
O26 O 0.6363 0.62144 0.04174 0.0
O27 O 0.6832 0.64237 0.98914 0.0
C28 C 0.30259 0.96123 0.03346 0.0
O29 O 0.30819 0.94793 0.02443 0.0
Cd30 Cd 0.34402 0.96143 0.00452 0.0
O31 O 0.31461 0.9817 0.02946 0.0
Cd32 Cd 0.34838 0.00809 0.00544 0.0
C33 C 0.37547 0.00016 0.05429 0.0
O34 O 0.35009 0.9858 0.96783 0.0
O35 O 0.37983 0.01678 0.97664 0.0
O36 O 0.32111 0.01581 0.98909 0.0
C37 C 0.36992 -0.0001 0.9616 0.0
O38 O 0.36942 0.98245 0.04102 0.0
C39 C 0.33401 0.03628 0.98652 0.0
O40 O 0.36884 0.01319 0.04757 0.0
O41 O 0.35385 0.04419 0.99428 0.0
C42 C 0.95287 0.65468 0.9886 0.0
O43 O 0.94041 0.63616 -0.00047 0.0
Cd44 Cd 0.9567 0.61669 0.01865 0.0
O45 O 0.97366 0.66394 0.99052 0.0
Cd46 Cd 0.00029 0.6571 0.01359 0.0
C47 C 0.99154 0.62154 0.96553 0.0
O48 O 0.98188 0.63509 0.05493 0.0
O49 O 0.00784 0.63145 0.03656 0.0
O50 O 0.0107 0.69156 0.03454 0.0
C51 C 0.99479 0.62758 0.05664 0.0
O52 O 0.9756 0.60962 0.98169 0.0
C53 C 0.03134 0.69954 0.03233 0.0
O54 O 0.00353 0.64206 0.96984 0.0
O55 O 0.03799 0.68804 0.02003 0.0
C56 C 0.30753 0.35023 0.03857 0.0
O57 O 0.31605 0.37081 0.03603 0.0
Cd58 Cd 0.35212 0.39375 0.01637 0.0
O59 O 0.31728 0.34049 0.02961 0.0
Cd60 Cd 0.35054 0.3479 0.00433 0.0
C61 C 0.3831 0.37896 0.05585 0.0
O62 O 0.35171 0.37602 0.97449 0.0
O63 O 0.37871 0.36992 0.97055 0.0
O64 O 0.3223 0.31374 0.98506 0.0
C65 C 0.36966 0.38048 0.96277 0.0
O66 O 0.37838 0.39324 0.04824 0.0
C67 C 0.33442 0.3054 0.98228 0.0
O68 O 0.37448 0.36014 0.04455 0.0
O69 O 0.35427 0.31671 0.99036 0.0
C70 C 0.70018 0.03608 0.99345 0.0
O71 O 0.6987 0.04808 0.01163 0.0
Cd72 Cd 0.66191 0.04033 0.01582 0.0
O73 O 0.68397 0.01703 0.98857 0.0
Cd74 Cd 0.65104 0.99113 0.0155 0.0
C75 C 0.62839 0.00393 0.96551 0.0
O76 O 0.64235 0.0123 0.04694 0.0
O77 O 0.63016 0.97885 0.05866 0.0
O78 O 0.67866 0.98407 0.03135 0.0
C79 C 0.6317 0.99708 0.0639 0.0
O80 O 0.6421 0.0235 0.97317 0.0
C81 C 0.66676 0.96331 0.02946 0.0
O82 O 0.62642 0.98749 0.97866 0.0
O83 O 0.64768 0.95527 0.01877 0.0
C84 C 0.62306 0.64133 0.31734 0.0
O85 O 0.61141 0.65039 0.31817 0.0
Cd86 Cd 0.62153 0.68647 0.33518 0.0
O87 O 0.6424 0.65062 0.32723 0.0
Cd88 Cd 0.66936 0.6834 0.35203 0.0
C89 C 0.67107 0.71676 0.29932 0.0
O90 O 0.64447 0.6923 0.37217 0.0
O91 O 0.67075 0.69909 0.39915 0.0
O92 O 0.67579 0.65622 0.37164 0.0
C93 C 0.65341 0.69977 0.39497 0.0
O94 O 0.65092 0.71082 0.30395 0.0
C95 C 0.6967 0.66795 0.37054 0.0
O96 O 0.68139 0.70965 0.31334 0.0
O97 O 0.7052 0.68698 0.35992 0.0
C98 C 0.31684 0.02583 0.37336 0.0
O99 O 0.29606 0.01752 0.37293 0.0
Cd100 Cd 0.27132 0.98224 0.35322 0.0
O101 O 0.32578 0.01557 0.36354 0.0
Cd102 Cd 0.31439 0.98039 0.3415 0.0
C103 C 0.28137 0.94828 0.39234 0.0
O104 O 0.2873 0.98016 0.3106 0.0
O105 O 0.28891 0.95041 0.3124 0.0
O106 O 0.34217 0.99056 0.30621 0.0
C107 C 0.28112 0.96115 0.30121 0.0
O108 O 0.26804 0.95449 0.38539 0.0
C109 C 0.35519 0.98736 0.32047 0.0
O110 O 0.29994 0.95563 0.38043 0.0
O111 O 0.34913 0.98077 0.3448 0.0
C112 C 0.97598 0.29454 0.37321 0.0
O113 O 0.98313 0.28147 0.36983 0.0
Cd114 Cd 0.01867 0.29352 0.35026 0.0
O115 O 0.98709 0.31426 0.36493 0.0
Cd116 Cd 0.02132 0.33775 0.33862 0.0
C117 C 0.05126 0.33794 0.39133 0.0
O118 O 0.02033 0.31009 0.3068 0.0
O119 O 0.05044 0.34173 0.30762 0.0
O120 O -0.00299 0.34906 0.31932 0.0
C121 C 0.03923 0.32303 0.2966 0.0
O122 O 0.04549 0.31852 0.38376 0.0
C123 C 0.01208 0.36878 0.31527 0.0
O124 O 0.04392 0.34883 0.37948 0.0
O125 O 0.03137 0.37431 0.3231 0.0
C126 C 0.62382 0.97317 0.31569 0.0
O127 O 0.61361 0.95241 0.31821 0.0
Cd128 Cd 0.62653 0.93081 0.33994 0.0
O129 O 0.6431 0.98547 0.32525 0.0
Cd130 Cd 0.67208 0.9835 0.35061 0.0
C131 C 0.67499 0.94973 0.30179 0.0
O132 O 0.64455 0.95415 0.37691 0.0
O133 O 0.67694 0.9673 0.39328 0.0
O134 O 0.67747 0.01856 0.36564 0.0
C135 C 0.65674 0.95252 0.39431 0.0
O136 O 0.65571 0.93482 0.30916 0.0
C137 C 0.69819 0.02757 0.36854 0.0
O138 O 0.68461 0.9688 0.31274 0.0
O139 O 0.70707 0.01642 0.36188 0.0
C140 C 0.97183 0.68002 0.37278 0.0
O141 O 0.97871 0.70038 0.37097 0.0
Cd142 Cd 0.01369 0.72694 0.35157 0.0
O143 O 0.98302 0.67189 0.36335 0.0
Cd144 Cd 0.01759 0.68374 0.33766 0.0
C145 C 0.04943 0.71742 0.38892 0.0
O146 O 0.01581 0.7111 0.30912 0.0
O147 O 0.043 0.70582 0.30167 0.0
O148 O 0.99404 0.64828 0.3169 0.0
C149 C 0.03358 0.7165 0.29619 0.0
O150 O 0.04105 0.72923 0.38366 0.0
C151 C 0.00873 0.64298 0.31603 0.0
O152 O 0.04361 0.69975 0.37568 0.0
O153 O 0.02744 0.65634 0.32618 0.0
C154 C 0.35804 0.3742 0.31958 0.0
O155 O 0.34773 0.38461 0.32005 0.0
Cd156 Cd 0.31074 0.37214 0.33682 0.0
O157 O 0.3497 0.35495 0.32919 0.0
Cd158 Cd 0.31646 0.32636 0.35157 0.0
C159 C 0.28366 0.3247 0.29797 0.0
O160 O 0.30527 0.34896 0.37368 0.0
O161 O 0.3022 0.32349 0.39962 0.0
O162 O 0.34432 0.31943 0.36766 0.0
C163 C 0.29945 0.33965 0.39662 0.0
O164 O 0.2884 0.34425 0.30342 0.0
C165 C 0.33193 0.29869 0.36761 0.0
O166 O 0.29144 0.3149 0.31174 0.0
O167 O 0.31224 0.29052 0.35899 0.0
C168 C 0.29127 0.97193 0.64926 0.0
O169 O 0.278 0.97898 0.65127 0.0
Cd170 Cd 0.2893 0.0142 0.67011 0.0
O171 O 0.31096 0.98331 0.6577 0.0
Cd172 Cd 0.33344 0.01859 0.68087 0.0
C173 C 0.33326 0.04918 0.6298 0.0
O174 O 0.30691 0.01857 0.71355 0.0
O175 O 0.33535 0.05007 0.7039 0.0
O176 O 0.34929 0.00788 0.7171 0.0
C177 C 0.31863 0.03883 0.71917 0.0
O178 O 0.31342 0.04225 0.63727 0.0
C179 C 0.36751 0.014 0.70502 0.0
O180 O 0.3448 0.04241 0.64128 0.0
O181 O 0.37012 0.02271 0.68163 0.0
C182 C 0.97805 0.35258 0.70143 0.0
O183 O 0.95781 0.34394 0.69551 0.0
Cd184 Cd 0.9376 0.30952 0.67318 0.0
O185 O 0.98925 0.34386 0.6942 0.0
Cd186 Cd 0.98486 0.31265 0.66672 0.0
C187 C 0.95097 0.27939 0.71636 0.0
O188 O 0.95897 0.31194 0.63375 0.0
O189 O 0.96294 0.28368 0.63343 0.0
O190 O 0.01886 0.34004 0.64523 0.0
C191 C 0.95441 0.29388 0.62282 0.0
O192 O 0.93717 0.28435 0.70731 0.0
C193 C 0.0286 0.3292 0.64694 0.0
O194 O 0.97025 0.28765 0.70597 0.0
O195 O 0.0182 0.31056 0.65852 0.0
C196 C 0.64076 0.62738 0.70576 0.0
O197 O 0.64937 0.61548 0.70362 0.0
Cd198 Cd 0.68478 0.62832 0.68234 0.0
O199 O 0.65014 0.64656 0.69575 0.0
Cd200 Cd 0.68357 0.67141 0.66968 0.0
C201 C 0.71572 0.67374 0.72223 0.0
O202 O 0.68531 0.64464 0.63924 0.0
O203 O 0.71329 0.67782 0.63794 0.0
O204 O 0.65766 0.67762 0.64504 0.0
C205 C 0.70365 0.65846 0.62845 0.0
O206 O 0.71167 0.65493 0.71417 0.0
C207 C 0.66885 0.69836 0.64671 0.0
O208 O 0.70632 0.6831 0.71124 0.0
O209 O 0.6872 0.70689 0.65915 0.0
C210 C 0.29232 0.31934 0.64706 0.0
O211 O 0.27973 0.29903 0.65149 0.0
Cd212 Cd 0.29332 0.27805 0.67311 0.0
O213 O 0.31228 0.32922 0.65469 0.0
Cd214 Cd 0.33608 0.31943 0.67983 0.0
C215 C 0.33553 0.28721 0.62967 0.0
O216 O 0.31138 0.29431 0.71526 0.0
O217 O 0.33895 0.29077 0.70405 0.0
O218 O 0.34578 0.35092 0.70849 0.0
C219 C 0.323 0.28583 0.72045 0.0
O220 O 0.3177 0.27333 0.64165 0.0
C221 C 0.36638 0.36042 0.70423 0.0
O222 O 0.34546 0.30728 0.637 0.0
O223 O 0.37337 0.35088 0.68841 0.0
C224 C 0.64835 0.02605 0.70114 0.0
O225 O 0.65995 0.04675 0.69853 0.0
Cd226 Cd 0.69484 0.06641 0.67603 0.0
O227 O 0.65483 0.01344 0.6917 0.0
Cd228 Cd 0.68663 0.0155 0.6671 0.0
C229 C 0.72253 0.04829 0.71657 0.0
O230 O 0.6888 0.0436 0.63766 0.0
O231 O 0.71301 0.03444 0.62906 0.0
O232 O 0.65693 0.98086 0.64948 0.0
C233 C 0.70506 0.04644 0.62333 0.0
O234 O 0.71946 0.0634 0.70777 0.0
C235 C 0.66831 0.97165 0.64754 0.0
O236 O 0.71224 0.02895 0.7065 0.0
O237 O 0.68813 0.98245 0.65579 0.0
C238 C 0.02452 0.70563 0.65375 0.0
O239 O 0.01442 0.71619 0.65193 0.0
Cd240 Cd 0.97797 0.70472 0.66979 0.0
O241 O 0.01549 0.68668 0.66445 0.0
Cd242 Cd 0.97971 0.65938 0.68283 0.0
C243 C 0.946 0.65859 0.63162 0.0
O244 O 0.97682 0.68591 0.71046 0.0
O245 O 0.95381 0.65226 0.72014 0.0
O246 O 0.99294 0.64267 0.71466 0.0
C247 C 0.96039 0.67231 0.72463 0.0
O248 O 0.9519 0.67836 0.63742 0.0
C249 C 0.98877 0.62659 0.69917 0.0
O250 O 0.9535 0.64826 0.64458 0.0
O251 O 0.9805 0.62592 0.67595 0.0
H252 H 0.14001 0.32551 0.201 0.0
H253 H 0.11455 0.33148 0.22915 0.0
H254 H 0.05935 0.27361 0.19451 0.0
H255 H 0.0849 0.26724 0.16661 0.0
H256 H 0.14613 0.29099 0.20369 0.0
H257 H 0.13732 0.33065 0.12568 0.0
H258 H 0.11396 0.33935 0.09784 0.0
H259 H 0.06847 0.27029 0.08517 0.0
H260 H 0.09229 0.26159 0.11253 0.0
H261 H 0.17038 0.26587 0.09976 0.0
H262 H 0.20416 0.27625 0.07289 0.0
H263 H 0.23843 0.33738 0.11727 0.0
H264 H 0.20498 0.32721 0.14383 0.0
H265 H 0.14856 0.29032 0.10216 0.0
H266 H 0.1848 0.26636 0.16447 0.0
H267 H 0.21613 0.271 0.19171 0.0
H268 H 0.2162 0.3235 0.23696 0.0
H269 H 0.18574 0.31969 0.2092 0.0
C270 C 0.11437 0.29587 0.18178 0.0
C271 C 0.12243 0.31414 0.1993 0.0
C272 C 0.10795 0.31764 0.2152 0.0
C273 C 0.08517 0.30298 0.21383 0.0
C274 C 0.07692 0.28513 0.19563 0.0
C275 C 0.09147 0.28155 0.17975 0.0
C276 C 0.13021 0.29164 0.16665 0.0
C277 C 0.14661 0.29062 0.18148 0.0
C278 C 0.13063 0.29079 0.13779 0.0
C279 C 0.11628 0.29553 0.1212 0.0
C280 C 0.12237 0.31742 0.11676 0.0
C281 C 0.10918 0.32236 0.10087 0.0
C282 C 0.08964 0.30544 0.08948 0.0
C283 C 0.0836 0.28349 0.09372 0.0
C284 C 0.09703 0.27856 0.10934 0.0
C285 C 0.18535 0.29565 0.12402 0.0
C286 C 0.18525 0.2814 0.10379 0.0
C287 C 0.20439 0.28727 0.08855 0.0
C288 C 0.22362 0.30754 0.09325 0.0
C289 C 0.22371 0.32165 0.11353 0.0
C290 C 0.2047 0.3158 0.12873 0.0
C291 C 0.16501 0.29048 0.13918 0.0
C292 C 0.14764 0.28959 0.12437 0.0
C293 C 0.16434 0.29059 0.16815 0.0
C294 C 0.18279 0.2926 0.18487 0.0
C295 C 0.19166 0.27898 0.1801 0.0
C296 C 0.20943 0.28154 0.19561 0.0
C297 C 0.21818 0.29742 0.21642 0.0
C298 C 0.20943 0.31102 0.22112 0.0
C299 C 0.19196 0.30871 0.20543 0.0
H300 H 0.74097 0.90044 0.19379 0.0
H301 H 0.73688 0.92491 0.22624 0.0
H302 H 0.6695 0.89819 0.20082 0.0
H303 H 0.67339 0.87354 0.16889 0.0
H304 H 0.71308 0.85358 0.19847 0.0
H305 H 0.73559 0.90603 0.11321 0.0
H306 H 0.72816 0.93027 0.08499 0.0
H307 H 0.65829 0.88401 0.09118 0.0
H308 H 0.66576 0.85947 0.11828 0.0
H309 H 0.67131 0.80635 0.10131 0.0
H310 H 0.66305 0.77223 0.07843 0.0
H311 H 0.723 0.77855 0.10997 0.0
H312 H 0.73171 0.81324 0.13257 0.0
H313 H 0.70171 0.84685 0.09797 0.0
H314 H 0.67363 0.79266 0.16676 0.0
H315 H 0.66856 0.76362 0.19821 0.0
H316 H 0.73468 0.80504 0.22818 0.0
H317 H 0.73981 0.83426 0.19666 0.0
C318 C 0.70762 0.88543 0.17857 0.0
C319 C 0.72551 0.90026 0.19472 0.0
C320 C 0.72322 0.91423 0.21311 0.0
C321 C 0.70294 0.91341 0.21568 0.0
C322 C 0.68534 0.89925 0.19878 0.0
C323 C 0.68762 0.88528 0.18046 0.0
C324 C 0.70887 0.86833 0.16235 0.0
C325 C 0.71128 0.85244 0.17637 0.0
C326 C 0.70536 0.86614 0.13381 0.0
C327 C 0.70117 0.88126 0.11807 0.0
C328 C 0.71872 0.90119 0.10844 0.0
C329 C 0.71452 0.91486 0.0923 0.0
C330 C 0.69269 0.90885 0.08621 0.0
C331 C 0.6752 0.88885 0.09577 0.0
C332 C 0.67943 0.875 0.1113 0.0
C333 C 0.70207 0.81228 0.11876 0.0
C334 C 0.68293 0.80069 0.10295 0.0
C335 C 0.67816 0.78123 0.09 0.0
C336 C 0.69242 0.77303 0.09267 0.0
C337 C 0.71188 0.78477 0.1078 0.0
C338 C 0.71674 0.80441 0.12071 0.0
C339 C 0.70589 0.83201 0.13405 0.0
C340 C 0.70444 0.84837 0.11992 0.0
C341 C 0.70911 0.83393 0.1627 0.0
C342 C 0.70712 0.8156 0.17938 0.0
C343 C 0.68723 0.79534 0.17962 0.0
C344 C 0.68434 0.77878 0.1975 0.0
C345 C 0.70125 0.78226 0.21544 0.0
C346 C 0.72152 0.80209 0.21434 0.0
C347 C 0.72437 0.81874 0.19655 0.0
H348 H 0.09986 0.84098 0.20501 0.0
H349 H 0.07515 0.81204 0.23704 0.0
H350 H 0.09063 0.76687 0.19756 0.0
H351 H 0.11656 0.79599 0.16717 0.0
H352 H 0.14264 0.85842 0.20217 0.0
H353 H 0.08636 0.82315 0.1221 0.0
H354 H 0.06253 0.79039 0.09419 0.0
H355 H 0.11428 0.77481 0.09057 0.0
H356 H 0.13833 0.80795 0.1171 0.0
H357 H 0.18968 0.86359 0.10673 0.0
H358 H 0.2231 0.88938 0.08159 0.0
H359 H 0.21417 0.94287 0.1067 0.0
H360 H 0.18056 0.91693 0.13235 0.0
H361 H 0.14767 0.85313 0.10135 0.0
H362 H 0.20404 0.88225 0.16567 0.0
H363 H 0.23405 0.90667 0.1962 0.0
H364 H 0.19156 0.92619 0.2353 0.0
H365 H 0.16157 0.90231 0.204 0.0
C366 C 0.10968 0.82062 0.18299 0.0
C367 C 0.09772 0.82477 0.20295 0.0
C368 C 0.08358 0.8083 0.22113 0.0
C369 C 0.08088 0.78731 0.2193 0.0
C370 C 0.0922 0.78288 0.19886 0.0
C371 C 0.10679 0.79949 0.18122 0.0
C372 C 0.12693 0.83893 0.1663 0.0
C373 C 0.14331 0.8576 0.18001 0.0
C374 C 0.12872 0.83744 0.13758 0.0
C375 C 0.11385 0.81761 0.12186 0.0
C376 C 0.09248 0.81265 0.11521 0.0
C377 C 0.07903 0.79415 0.09928 0.0
C378 C 0.08672 0.78025 0.09061 0.0
C379 C 0.10813 0.78536 0.09719 0.0
C380 C 0.12174 0.80413 0.11233 0.0
C381 C 0.18272 0.88841 0.12135 0.0
C382 C 0.19477 0.88083 0.10667 0.0
C383 C 0.2138 0.89548 0.09246 0.0
C384 C 0.22097 0.91789 0.09249 0.0
C385 C 0.20878 0.92557 0.10665 0.0
C386 C 0.18975 0.91086 0.1212 0.0
C387 C 0.16312 0.87257 0.13721 0.0
C388 C 0.14639 0.85448 0.12337 0.0
C389 C 0.16179 0.87406 0.16594 0.0
C390 C 0.18062 0.89073 0.18221 0.0
C391 C 0.20134 0.89237 0.18005 0.0
C392 C 0.21845 0.90619 0.19752 0.0
C393 C 0.21493 0.91822 0.21775 0.0
C394 C 0.19451 0.91712 0.21955 0.0
C395 C 0.17745 0.90346 0.20184 0.0
H396 H 0.26618 0.16308 0.81075 0.0
H397 H 0.27335 0.19269 0.77907 0.0
H398 H 0.32805 0.23849 0.82879 0.0
H399 H 0.323 0.20864 0.8579 0.0
H400 H 0.29019 0.14674 0.81835 0.0
H401 H 0.26245 0.17873 0.89532 0.0
H402 H 0.26981 0.21137 0.92229 0.0
H403 H 0.33729 0.22778 0.933 0.0
H404 H 0.32962 0.19473 0.90765 0.0
H405 H 0.32977 0.14107 0.9074 0.0
H406 H 0.33814 0.11703 0.93384 0.0
H407 H 0.2704 0.06467 0.92676 0.0
H408 H 0.26234 0.08852 0.89855 0.0
H409 H 0.29293 0.14937 0.91969 0.0
H410 H 0.31906 0.11395 0.86032 0.0
H411 H 0.32208 0.08773 0.8315 0.0
H412 H 0.27229 0.08493 0.77811 0.0
H413 H 0.26606 0.10795 0.81003 0.0
C414 C 0.29358 0.18353 0.83747 0.0
C415 C 0.27971 0.17949 0.81493 0.0
C416 C 0.2837 0.1964 0.79691 0.0
C417 C 0.3012 0.21785 0.80161 0.0
C418 C 0.31439 0.22211 0.82482 0.0
C419 C 0.3111 0.20503 0.84197 0.0
C420 C 0.29115 0.16492 0.85424 0.0
C421 C 0.28992 0.1468 0.84056 0.0
C422 C 0.29192 0.16552 0.88318 0.0
C423 C 0.29565 0.18473 0.89923 0.0
C424 C 0.27873 0.18935 0.90367 0.0
C425 C 0.28289 0.2078 0.91903 0.0
C426 C 0.30415 0.22199 0.92925 0.0
C427 C 0.32084 0.21702 0.92518 0.0
C428 C 0.31649 0.19828 0.91073 0.0
C429 C 0.2956 0.11629 0.90061 0.0
C430 C 0.31673 0.1244 0.91153 0.0
C431 C 0.32147 0.11077 0.92662 0.0
C432 C 0.30491 0.08913 0.93206 0.0
C433 C 0.28338 0.08133 0.9225 0.0
C434 C 0.27881 0.0948 0.90643 0.0
C435 C 0.29157 0.13101 0.8838 0.0
C436 C 0.2917 0.14844 0.8975 0.0
C437 C 0.29051 0.12989 0.8548 0.0
C438 C 0.29166 0.11259 0.83837 0.0
C439 C 0.30746 0.10658 0.84384 0.0
C440 C 0.30973 0.09198 0.82674 0.0
C441 C 0.29767 0.08457 0.80238 0.0
C442 C 0.2818 0.0904 0.79679 0.0
C443 C 0.27843 0.10376 0.81495 0.0
H444 H 0.83831 0.09807 0.82051 0.0
H445 H 0.80857 0.0744 0.78886 0.0
H446 H 0.76832 0.09905 0.82185 0.0
H447 H 0.798 0.1226 0.85374 0.0
H448 H 0.85757 0.14537 0.82046 0.0
H449 H 0.81296 0.08263 0.8791 0.0
H450 H 0.77798 0.05791 0.9024 0.0
H451 H 0.78582 0.11151 0.95304 0.0
H452 H 0.81905 0.1367 0.92779 0.0
H453 H 0.86051 0.18283 0.92259 0.0
H454 H 0.8836 0.21638 0.94843 0.0
H455 H 0.94196 0.22093 0.91254 0.0
H456 H 0.91876 0.18669 0.88682 0.0
H457 H 0.85587 0.14443 0.92187 0.0
H458 H 0.8815 0.2047 0.8591 0.0
H459 H 0.90438 0.23481 0.82756 0.0
H460 H 0.92496 0.19409 0.78642 0.0
H461 H 0.90252 0.16407 0.81833 0.0
C462 C 0.82031 0.11203 0.8394 0.0
C463 C 0.82294 0.09807 0.82126 0.0
C464 C 0.80598 0.0845 0.8034 0.0
C465 C 0.78631 0.08498 0.80316 0.0
C466 C 0.78333 0.09835 0.82197 0.0
C467 C 0.80025 0.11181 0.84 0.0
C468 C 0.83911 0.12791 0.85629 0.0
C469 C 0.85737 0.145 0.84269 0.0
C470 C 0.83839 0.12771 0.88527 0.0
C471 C 0.81856 0.11174 0.90112 0.0
C472 C 0.80699 0.08922 0.8948 0.0
C473 C 0.78723 0.07502 0.90835 0.0
C474 C 0.77946 0.08295 0.92944 0.0
C475 C 0.79163 0.10512 0.93684 0.0
C476 C 0.81072 0.11944 0.92251 0.0
C477 C 0.88792 0.18227 0.90274 0.0
C478 C 0.87828 0.19072 0.92058 0.0
C479 C 0.89138 0.20986 0.93524 0.0
C480 C 0.91432 0.22092 0.93229 0.0
C481 C 0.9242 0.2124 0.915 0.0
C482 C 0.91102 0.19304 0.90033 0.0
C483 C 0.87326 0.16272 0.8861 0.0
C484 C 0.85612 0.14459 0.89965 0.0
C485 C 0.87408 0.16286 0.85717 0.0
C486 C 0.89045 0.18216 0.84121 0.0
C487 C 0.89155 0.20247 0.84397 0.0
C488 C 0.90456 0.21964 0.826 0.0
C489 C 0.91637 0.21661 0.80485 0.0
C490 C 0.9161 0.19672 0.80285 0.0
C491 C 0.90323 0.17962 0.82091 0.0
H492 H 0.81751 0.68303 0.81149 0.0
H493 H 0.78628 0.67705 0.78368 0.0
H494 H 0.78252 0.72766 0.82862 0.0
H495 H 0.81435 0.73408 0.8565 0.0
H496 H 0.85677 0.71676 0.81594 0.0
H497 H 0.79527 0.67573 0.87422 0.0
H498 H 0.76256 0.66609 0.90219 0.0
H499 H 0.80132 0.72187 0.95447 0.0
H500 H 0.83409 0.73219 0.92574 0.0
H501 H 0.90291 0.73481 0.91751 0.0
H502 H 0.92519 0.72382 0.94426 0.0
H503 H 0.893 0.6608 0.90392 0.0
H504 H 0.87109 0.67187 0.87692 0.0
H505 H 0.85339 0.70813 0.91672 0.0
H506 H 0.91715 0.72835 0.85808 0.0
H507 H 0.94045 0.71836 0.83151 0.0
H508 H 0.88664 0.68115 0.77585 0.0
H509 H 0.86253 0.68797 0.80442 0.0
C510 C 0.81846 0.70917 0.83595 0.0
C511 C 0.81018 0.69304 0.81532 0.0
C512 C 0.79228 0.6895 0.79956 0.0
C513 C 0.78225 0.70197 0.80408 0.0
C514 C 0.79018 0.71794 0.82489 0.0
C515 C 0.80826 0.72157 0.84072 0.0
C516 C 0.83761 0.71239 0.85227 0.0
C517 C 0.85604 0.71471 0.838 0.0
C518 C 0.83686 0.7104 0.88113 0.0
C519 C 0.81695 0.70509 0.8974 0.0
C520 C 0.79669 0.68623 0.89127 0.0
C521 C 0.77813 0.68054 0.90739 0.0
C522 C 0.77969 0.69332 0.93021 0.0
C523 C 0.79996 0.71189 0.93684 0.0
C524 C 0.81851 0.71779 0.92044 0.0
C525 C 0.88558 0.70419 0.89515 0.0
C526 C 0.90083 0.71872 0.91433 0.0
C527 C 0.91348 0.71249 0.9295 0.0
C528 C 0.91058 0.6915 0.92604 0.0
C529 C 0.8954 0.67705 0.90679 0.0
C530 C 0.88298 0.68335 0.89143 0.0
C531 C 0.87139 0.71017 0.88 0.0
C532 C 0.85434 0.71044 0.89469 0.0
C533 C 0.87227 0.71216 0.85111 0.0
C534 C 0.88778 0.70869 0.83375 0.0
C535 C 0.91013 0.71755 0.84063 0.0
C536 C 0.92359 0.71219 0.82518 0.0
C537 C 0.91533 0.69909 0.80159 0.0
C538 C 0.89341 0.69125 0.79398 0.0
C539 C 0.87969 0.69548 0.81019 0.0
H540 H 0.80583 0.66103 0.53455 0.0
H541 H 0.78045 0.66638 0.56368 0.0
H542 H 0.7251 0.60974 0.52716 0.0
H543 H 0.75057 0.60407 0.49805 0.0
H544 H 0.81347 0.62855 0.53378 0.0
H545 H 0.7944 0.66512 0.4685 0.0
H546 H 0.76961 0.67306 0.44269 0.0
H547 H 0.73761 0.6079 0.40816 0.0
H548 H 0.7627 0.59994 0.43392 0.0
H549 H 0.83762 0.59583 0.44433 0.0
H550 H 0.87183 0.60376 0.41994 0.0
H551 H 0.89843 0.67298 0.43333 0.0
H552 H 0.86461 0.6651 0.45769 0.0
H553 H 0.81179 0.62593 0.43222 0.0
H554 H 0.84161 0.59615 0.50546 0.0
H555 H 0.87085 0.59959 0.53615 0.0
H556 H 0.88946 0.66658 0.55363 0.0
H557 H 0.8602 0.66306 0.52347 0.0
C558 C 0.78012 0.63207 0.51423 0.0
C559 C 0.78825 0.64973 0.53273 0.0
C560 C 0.77382 0.65288 0.54921 0.0
C561 C 0.75101 0.63845 0.54748 0.0
C562 C 0.7427 0.62106 0.52861 0.0
C563 C 0.75719 0.61786 0.51206 0.0
C564 C 0.79587 0.62845 0.49784 0.0
C565 C 0.81279 0.62757 0.51159 0.0
C566 C 0.79529 0.62743 0.46889 0.0
C567 C 0.78014 0.63187 0.45329 0.0
C568 C 0.78204 0.65252 0.45542 0.0
C569 C 0.76803 0.65709 0.44065 0.0
C570 C 0.75194 0.64108 0.42354 0.0
C571 C 0.75007 0.62044 0.4212 0.0
C572 C 0.76426 0.61592 0.43586 0.0
C573 C 0.84874 0.62994 0.45257 0.0
C574 C 0.85081 0.61267 0.44177 0.0
C575 C 0.87021 0.61716 0.42799 0.0
C576 C 0.88747 0.63895 0.42482 0.0
C577 C 0.8852 0.65611 0.4355 0.0
C578 C 0.86598 0.65163 0.4493 0.0
C579 C 0.82906 0.62584 0.46829 0.0
C580 C 0.81159 0.62556 0.45444 0.0
C581 C 0.82961 0.62676 0.49711 0.0
C582 C 0.84871 0.6293 0.51255 0.0
C583 C 0.85226 0.61165 0.51557 0.0
C584 C 0.86891 0.61362 0.5329 0.0
C585 C 0.88223 0.63334 0.54702 0.0
C586 C 0.87936 0.65129 0.54279 0.0
C587 C 0.86266 0.64925 0.52576 0.0
H588 H 0.39756 0.22578 0.5421 0.0
H589 H 0.38869 0.24741 0.57315 0.0
H590 H 0.34073 0.24365 0.51573 0.0
H591 H 0.34638 0.2187 0.48743 0.0
H592 H 0.3764 0.1874 0.53176 0.0
H593 H 0.40134 0.24838 0.46196 0.0
H594 H 0.39261 0.27261 0.43572 0.0
H595 H 0.33296 0.21617 0.40651 0.0
H596 H 0.34159 0.19207 0.43237 0.0
H597 H 0.34303 0.14592 0.43133 0.0
H598 H 0.33359 0.11144 0.40861 0.0
H599 H 0.38988 0.1131 0.44524 0.0
H600 H 0.39981 0.14818 0.46777 0.0
H601 H 0.37597 0.18585 0.43034 0.0
H602 H 0.34153 0.12805 0.4953 0.0
H603 H 0.33469 0.09808 0.52616 0.0
H604 H 0.3971 0.13984 0.56543 0.0
H605 H 0.40425 0.16986 0.53412 0.0
C606 C 0.37308 0.22068 0.51172 0.0
C607 C 0.38499 0.22941 0.53612 0.0
C608 C 0.38013 0.24204 0.55379 0.0
C609 C 0.36403 0.24726 0.54686 0.0
C610 C 0.35323 0.23989 0.52162 0.0
C611 C 0.35693 0.22597 0.50494 0.0
C612 C 0.376 0.20433 0.49531 0.0
C613 C 0.37707 0.18767 0.50955 0.0
C614 C 0.37574 0.20357 0.4662 0.0
C615 C 0.37205 0.21851 0.44914 0.0
C616 C 0.38657 0.24128 0.44963 0.0
C617 C 0.38165 0.25501 0.43468 0.0
C618 C 0.36219 0.24602 0.41928 0.0
C619 C 0.3481 0.22327 0.41815 0.0
C620 C 0.35305 0.20961 0.43286 0.0
C621 C 0.37211 0.14961 0.45129 0.0
C622 C 0.3537 0.13922 0.43404 0.0
C623 C 0.34825 0.11955 0.42116 0.0
C624 C 0.36107 0.10991 0.42535 0.0
C625 C 0.3799 0.12048 0.44184 0.0
C626 C 0.38547 0.14035 0.45468 0.0
C627 C 0.37603 0.16925 0.4669 0.0
C628 C 0.37645 0.18646 0.45256 0.0
C629 C 0.37648 0.16991 0.49579 0.0
C630 C 0.3735 0.15113 0.51231 0.0
C631 C 0.35406 0.13061 0.50997 0.0
C632 C 0.35015 0.11352 0.52752 0.0
C633 C 0.36546 0.11683 0.54784 0.0
C634 C 0.38525 0.13703 0.54962 0.0
C635 C 0.38922 0.15412 0.53196 0.0
H636 H 0.76735 0.17106 0.53369 0.0
H637 H 0.74395 0.14129 0.56556 0.0
H638 H 0.7615 0.09854 0.52362 0.0
H639 H 0.78603 0.12848 0.49323 0.0
H640 H 0.81056 0.18952 0.5303 0.0
H641 H 0.75296 0.15454 0.4539 0.0
H642 H 0.72775 0.12107 0.42799 0.0
H643 H 0.78045 0.10753 0.41598 0.0
H644 H 0.80574 0.14131 0.44065 0.0
H645 H 0.85562 0.19637 0.4301 0.0
H646 H 0.89059 0.22268 0.4083 0.0
H647 H 0.88699 0.27615 0.44548 0.0
H648 H 0.85141 0.2498 0.4668 0.0
H649 H 0.81528 0.18616 0.42913 0.0
H650 H 0.86993 0.20972 0.49639 0.0
H651 H 0.90067 0.23365 0.52647 0.0
H652 H 0.86261 0.26057 0.56017 0.0
H653 H 0.83167 0.23651 0.52998 0.0
C654 C 0.77802 0.15192 0.51043 0.0
C655 C 0.76591 0.15519 0.53107 0.0
C656 C 0.75256 0.13826 0.54919 0.0
C657 C 0.75089 0.11774 0.54663 0.0
C658 C 0.76235 0.11419 0.52554 0.0
C659 C 0.77611 0.13124 0.50791 0.0
C660 C 0.79473 0.17077 0.49399 0.0
C661 C 0.81111 0.18913 0.50809 0.0
C662 C 0.79635 0.16981 0.46516 0.0
C663 C 0.78107 0.15019 0.44921 0.0
C664 C 0.75904 0.14442 0.44544 0.0
C665 C 0.74477 0.12547 0.4307 0.0
C666 C 0.75231 0.11189 0.42027 0.0
C667 C 0.77441 0.11786 0.42384 0.0
C668 C 0.78876 0.13705 0.43786 0.0
C669 C 0.85092 0.2211 0.45018 0.0
C670 C 0.862 0.21374 0.43309 0.0
C671 C 0.88197 0.22869 0.42078 0.0
C672 C 0.89122 0.25121 0.4254 0.0
C673 C 0.87996 0.25877 0.44175 0.0
C674 C 0.8598 0.24376 0.45392 0.0
C675 C 0.831 0.20486 0.46547 0.0
C676 C 0.81411 0.18708 0.45123 0.0
C677 C 0.8296 0.20571 0.49431 0.0
C678 C 0.84863 0.22151 0.51089 0.0
C679 C 0.86832 0.22105 0.50988 0.0
C680 C 0.88581 0.23463 0.52699 0.0
C681 C 0.8838 0.24878 0.5454 0.0
C682 C 0.86437 0.24974 0.54595 0.0
C683 C 0.84679 0.23603 0.52889 0.0
H684 H 0.96724 0.51021 0.14007 0.0
H685 H 0.96761 0.53872 0.11185 0.0
H686 H 0.01942 0.58848 0.16164 0.0
H687 H 0.02138 0.56018 0.18727 0.0
H688 H 0.99213 0.49666 0.14537 0.0
H689 H 0.96354 0.52306 0.21989 0.0
H690 H 0.96409 0.55232 0.24799 0.0
H691 H 0.03233 0.57662 0.26762 0.0
H692 H 0.03155 0.54697 0.24039 0.0
H693 H 0.03476 0.48258 0.22719 0.0
H694 H 0.03641 0.45415 0.25386 0.0
H695 H 0.96529 0.41558 0.25525 0.0
H696 H 0.96369 0.44365 0.22755 0.0
H697 H 0.00145 0.50037 0.24619 0.0
H698 H 0.02521 0.46743 0.17672 0.0
H699 H 0.02272 0.43753 0.14854 0.0
H700 H 0.95974 0.42397 0.11805 0.0
H701 H 0.96161 0.45322 0.14739 0.0
C702 C 0.99401 0.53279 0.16638 0.0
C703 C 0.97892 0.52721 0.14483 0.0
C704 C 0.97895 0.5435 0.12885 0.0
C705 C 0.9935 0.56576 0.13467 0.0
C706 C 0.00801 0.57142 0.15679 0.0
C707 C 0.00879 0.55514 0.17184 0.0
C708 C 0.99496 0.51523 0.18198 0.0
C709 C 0.99372 0.4974 0.16748 0.0
C710 C -0.00244 0.51602 0.2108 0.0
C711 C -0.00241 0.53317 0.22794 0.0
C712 C 0.97852 0.53462 0.23043 0.0
C713 C 0.9788 0.55114 0.24646 0.0
C714 C -0.00172 0.56654 0.25965 0.0
C715 C 0.01719 0.5648 0.25757 0.0
C716 C 0.01676 0.54801 0.24207 0.0
C717 C -0.00087 0.46487 0.22512 0.0
C718 C 0.01957 0.4679 0.23307 0.0
C719 C 0.0205 0.45182 0.24829 0.0
C720 C 0.00097 0.43286 0.25637 0.0
C721 C 0.98048 0.4301 0.24902 0.0
C722 C 0.97958 0.44598 0.23323 0.0
C723 C -0.00181 0.48206 0.20955 0.0
C724 C -0.0005 0.49968 0.2241 0.0
C725 C 0.99507 0.48071 0.18097 0.0
C726 C 0.99336 0.46222 0.16466 0.0
C727 C 0.0105 0.45758 0.16477 0.0
C728 C 0.00918 0.44067 0.14858 0.0
C729 C 0.99094 0.42853 0.13159 0.0
C730 C 0.97378 0.43309 0.13135 0.0
C731 C 0.97494 0.4498 0.1479 0.0
H732 H 0.49925 0.42888 0.16195 0.0
H733 H 0.46938 0.40401 0.13095 0.0
H734 H 0.43359 0.43678 0.15124 0.0
H735 H 0.46316 0.46129 0.18253 0.0
H736 H 0.52166 0.47922 0.15555 0.0
H737 H 0.48234 0.42002 0.22647 0.0
H738 H 0.44806 0.39475 0.25142 0.0
H739 H 0.4381 0.44867 0.27032 0.0
H740 H 0.47228 0.47384 0.24588 0.0
H741 H 0.52511 0.52157 0.25665 0.0
H742 H 0.55033 0.55569 0.28032 0.0
H743 H 0.60596 0.55427 0.2451 0.0
H744 H 0.58066 0.51941 0.22198 0.0
H745 H 0.51541 0.48211 0.25655 0.0
H746 H 0.54603 0.54007 0.1937 0.0
H747 H 0.5703 0.57004 0.16296 0.0
H748 H 0.58885 0.52771 0.12187 0.0
H749 H 0.56531 0.49783 0.15347 0.0
C750 C 0.48333 0.44684 0.17444 0.0
C751 C 0.4848 0.43044 0.16001 0.0
C752 C 0.4678 0.41627 0.14248 0.0
C753 C 0.44939 0.41869 0.1388 0.0
C754 C 0.44765 0.43467 0.15389 0.0
C755 C 0.46449 0.44862 0.17165 0.0
C756 C 0.50199 0.46309 0.19115 0.0
C757 C 0.52078 0.47958 0.17774 0.0
C758 C 0.50012 0.46414 0.21978 0.0
C759 C 0.47973 0.4487 0.23452 0.0
C760 C 0.47273 0.42631 0.23605 0.0
C761 C 0.45333 0.41199 0.2502 0.0
C762 C 0.44073 0.42 0.26255 0.0
C763 C 0.44773 0.44234 0.26091 0.0
C764 C 0.46715 0.45662 0.24707 0.0
C765 C 0.55098 0.51796 0.23741 0.0
C766 C 0.54271 0.52819 0.25451 0.0
C767 C 0.55704 0.54768 0.26792 0.0
C768 C 0.57986 0.55733 0.26434 0.0
C769 C 0.58833 0.5469 0.24803 0.0
C770 C 0.57393 0.52715 0.23482 0.0
C771 C 0.53535 0.49856 0.22108 0.0
C772 C 0.51705 0.48145 0.23449 0.0
C773 C 0.53716 0.49776 0.19221 0.0
C774 C 0.55403 0.51671 0.17614 0.0
C775 C 0.55599 0.53741 0.17889 0.0
C776 C 0.56981 0.55453 0.16137 0.0
C777 C 0.58141 0.55102 0.14041 0.0
C778 C 0.58019 0.5307 0.13823 0.0
C779 C 0.56664 0.51366 0.15605 0.0
H780 H 0.54461 0.031 0.14904 0.0
H781 H 0.57413 0.03193 0.12081 0.0
H782 H 0.56289 0.97234 0.15889 0.0
H783 H 0.53254 0.97056 0.18587 0.0
H784 H 0.50197 0.00168 0.14997 0.0
H785 H 0.55896 0.03161 0.22308 0.0
H786 H 0.58822 0.03054 0.24908 0.0
H787 H 0.54375 0.96196 0.26617 0.0
H788 H 0.5144 0.96324 0.24109 0.0
H789 H 0.44691 0.96293 0.23526 0.0
H790 H 0.41712 0.96201 0.26258 0.0
H791 H 0.45367 0.0328 0.26688 0.0
H792 H 0.48215 0.03362 0.23651 0.0
H793 H 0.49891 0.99524 0.25111 0.0
H794 H 0.4381 0.98067 0.19314 0.0
H795 H 0.41263 0.98674 0.1679 0.0
H796 H 0.46459 0.02745 0.11103 0.0
H797 H 0.49152 0.02666 0.14099 0.0
C798 C 0.53653 0.00084 0.16976 0.0
C799 C 0.54851 0.01815 0.15134 0.0
C800 C 0.56543 0.01883 0.13551 0.0
C801 C 0.57068 0.00234 0.13817 0.0
C802 C 0.55915 0.98533 0.15701 0.0
C803 C 0.54194 0.98439 0.1724 0.0
C804 C 0.51817 -0.00013 0.18587 0.0
C805 C 0.50138 0.001 0.17215 0.0
C806 C 0.51722 0.9979 0.21457 0.0
C807 C 0.53472 0.99746 0.23022 0.0
C808 C 0.55559 0.01642 0.23255 0.0
C809 C 0.57217 0.01581 0.24725 0.0
C810 C 0.56807 0.99611 0.25916 0.0
C811 C 0.54714 0.97724 0.25692 0.0
C812 C 0.53047 0.97796 0.24276 0.0
C813 C 0.46598 -0.00166 0.23294 0.0
C814 C 0.44827 0.97822 0.2418 0.0
C815 C 0.43143 0.97773 0.25747 0.0
C816 C 0.43303 0.99737 0.26642 0.0
C817 C 0.4519 0.0175 0.25964 0.0
C818 C 0.46805 0.018 0.24239 0.0
C819 C 0.48314 -0.00138 0.21546 0.0
C820 C 0.49955 0.99684 0.22896 0.0
C821 C 0.48392 0.00102 0.18648 0.0
C822 C 0.46746 0.00391 0.17043 0.0
C823 C 0.44482 0.99263 0.17709 0.0
C824 C 0.42984 0.99541 0.16175 0.0
C825 C 0.43647 0.00723 0.13716 0.0
C826 C 0.45893 0.01824 0.12993 0.0
C827 C 0.4743 0.01731 0.1469 0.0
H828 H 0.48176 0.0164 0.87698 0.0
H829 H 0.45318 0.01763 0.90461 0.0
H830 H 0.40275 0.96555 0.85586 0.0
H831 H 0.43138 0.96387 0.82842 0.0
H832 H 0.48935 0.98311 0.87084 0.0
H833 H 0.46871 0.02467 0.81255 0.0
H834 H 0.44192 0.02959 0.78644 0.0
H835 H 0.42753 0.9734 0.73656 0.0
H836 H 0.45386 0.96806 0.76312 0.0
H837 H 0.5124 0.96602 0.76492 0.0
H838 H 0.54408 0.97145 0.73715 0.0
H839 H 0.58723 0.02844 0.78541 0.0
H840 H 0.55552 0.02337 0.81286 0.0
H841 H 0.498 0.99535 0.77066 0.0
H842 H 0.5363 0.96894 0.82535 0.0
H843 H 0.56789 0.97411 0.85164 0.0
H844 H 0.55141 0.00575 0.91567 0.0
H845 H 0.52377 0.00567 0.8869 0.0
C846 C 0.45868 0.98998 0.85073 0.0
C847 C 0.46457 0.00519 0.87223 0.0
C848 C 0.44834 0.00603 0.88782 0.0
C849 C 0.42601 0.99172 0.88211 0.0
C850 C 0.41998 0.97677 0.86033 0.0
C851 C 0.43626 0.97581 0.84479 0.0
C852 C 0.47626 0.98915 0.83481 0.0
C853 C 0.49179 0.9863 0.84903 0.0
C854 C 0.47842 0.99218 0.8062 0.0
C855 C 0.46292 0.99576 0.79002 0.0
C856 C 0.45967 0.01331 0.79614 0.0
C857 C 0.44456 0.01621 0.78121 0.0
C858 C 0.4328 0.00178 0.75977 0.0
C859 C 0.43647 0.98461 0.75313 0.0
C860 C 0.45145 0.98161 0.76821 0.0
C861 C 0.53174 0.99415 0.7911 0.0
C862 C 0.52869 0.97965 0.76955 0.0
C863 C 0.54666 0.98265 0.75384 0.0
C864 C 0.56782 0.00017 0.75959 0.0
C865 C 0.57093 0.01471 0.78104 0.0
C866 C 0.55294 0.01183 0.7966 0.0
C867 C 0.5125 0.99113 0.80704 0.0
C868 C 0.49619 0.99261 0.79263 0.0
C869 C 0.51047 0.98795 0.83587 0.0
C870 C 0.52781 0.98769 0.8532 0.0
C871 C 0.54003 0.97798 0.84438 0.0
C872 C 0.55775 0.98029 0.85985 0.0
C873 C 0.56213 0.99029 0.88578 0.0
C874 C 0.54864 -0.00183 0.89562 0.0
C875 C 0.53242 0.99772 0.8792 0.0
H876 H 0.02543 0.53732 0.87935 0.0
H877 H 0.02444 0.56531 0.90785 0.0
H878 H 0.97295 0.56206 0.85729 0.0
H879 H 0.97164 0.53195 0.83128 0.0
H880 H 0.00013 0.49806 0.8723 0.0
H881 H 0.0279 0.55788 0.80574 0.0
H882 H 0.0283 0.58465 0.77515 0.0
H883 H 0.96512 0.53508 0.74323 0.0
H884 H 0.96505 0.50873 0.77393 0.0
H885 H 0.96986 0.45298 0.77123 0.0
H886 H 0.97009 0.4232 0.74574 0.0
H887 H 0.03393 0.44213 0.77888 0.0
H888 H 0.03387 0.47224 0.80438 0.0
H889 H -0.00233 0.49698 0.77093 0.0
H890 H 0.97842 0.43636 0.82864 0.0
H891 H 0.98173 0.40924 0.85503 0.0
H892 H 0.02759 0.46019 0.9092 0.0
H893 H 0.02744 0.48787 0.87991 0.0
C894 C -0.00119 0.53256 0.85276 0.0
C895 C 0.01366 0.54235 0.87455 0.0
C896 C 0.01335 0.55856 0.89061 0.0
C897 C -0.00127 0.56589 0.88459 0.0
C898 C 0.98445 0.55673 0.86222 0.0
C899 C 0.98392 0.53969 0.84712 0.0
C900 C -0.00114 0.51479 0.83637 0.0
C901 C 0.00023 0.49814 0.8501 0.0
C902 C -0.0023 0.51409 0.80746 0.0
C903 C -0.00296 0.53106 0.79095 0.0
C904 C 0.01449 0.55276 0.7914 0.0
C905 C 0.01504 0.56793 0.77286 0.0
C906 C -0.00117 0.56144 0.75223 0.0
C907 C 0.97986 0.54033 0.75501 0.0
C908 C 0.9793 0.52518 0.77345 0.0
C909 C 0.00174 0.46457 0.78986 0.0
C910 C 0.98407 0.45097 0.77268 0.0
C911 C 0.98417 0.43403 0.75824 0.0
C912 C 0.00199 0.43061 0.76067 0.0
C913 C 0.02009 0.44468 0.77694 0.0
C914 C 0.02001 0.46169 0.79144 0.0
C915 C 0.00045 0.4812 0.80677 0.0
C916 C -0.00178 0.49721 0.79316 0.0
C917 C 0.00132 0.48142 0.83575 0.0
C918 C 0.00305 0.46447 0.85168 0.0
C919 C 0.99019 0.44203 0.84516 0.0
C920 C 0.99179 0.42639 0.86055 0.0
C921 C 0.00466 0.43262 0.88435 0.0
C922 C 0.01753 0.45496 0.89094 0.0
C923 C 0.01713 0.47074 0.87443 0.0
H924 H 0.43425 0.50366 0.87142 0.0
H925 H 0.4099 0.47376 0.90258 0.0
H926 H 0.42913 0.43133 0.86322 0.0
H927 H 0.45421 0.46135 0.83293 0.0
H928 H 0.47774 0.52274 0.86892 0.0
H929 H 0.41844 0.47901 0.8039 0.0
H930 H 0.39426 0.44452 0.77947 0.0
H931 H 0.45125 0.44666 0.74276 0.0
H932 H 0.47542 0.48037 0.76791 0.0
H933 H 0.52521 0.52862 0.77472 0.0
H934 H 0.5595 0.5544 0.75111 0.0
H935 H 0.55055 0.60809 0.77505 0.0
H936 H 0.5161 0.58216 0.79926 0.0
H937 H 0.48284 0.51886 0.76793 0.0
H938 H 0.53936 0.54794 0.8332 0.0
H939 H 0.56939 0.57377 0.86269 0.0
H940 H 0.5258 0.59199 0.90153 0.0
H941 H 0.49576 0.56676 0.87103 0.0
C942 C 0.44582 0.48469 0.84951 0.0
C943 C 0.43306 0.48786 0.86928 0.0
C944 C 0.41914 0.47085 0.88694 0.0
C945 C 0.41766 0.4504 0.88492 0.0
C946 C 0.42991 0.44697 0.86476 0.0
C947 C 0.4441 0.46407 0.84742 0.0
C948 C 0.46233 0.50344 0.83281 0.0
C949 C 0.47845 0.52215 0.84674 0.0
C950 C 0.46392 0.50219 0.80395 0.0
C951 C 0.44879 0.48224 0.78797 0.0
C952 C 0.42575 0.47203 0.7907 0.0
C953 C 0.41197 0.45247 0.77671 0.0
C954 C 0.42107 0.44314 0.75942 0.0
C955 C 0.44399 0.45367 0.75602 0.0
C956 C 0.45773 0.47295 0.77027 0.0
C957 C 0.51814 0.55351 0.78863 0.0
C958 C 0.53046 0.5459 0.77469 0.0
C959 C 0.55003 0.56056 0.76139 0.0
C960 C 0.55749 0.58303 0.76156 0.0
C961 C 0.545 0.59075 0.77494 0.0
C962 C 0.52544 0.57603 0.78861 0.0
C963 C 0.49826 0.53767 0.80414 0.0
C964 C 0.48153 0.5197 0.79002 0.0
C965 C 0.49681 0.53891 0.83291 0.0
C966 C 0.51539 0.55578 0.8494 0.0
C967 C 0.53637 0.55803 0.84728 0.0
C968 C 0.5535 0.57266 0.86419 0.0
C969 C 0.54978 0.58487 0.88394 0.0
C970 C 0.52895 0.58285 0.88607 0.0
C971 C 0.51186 0.56842 0.86883 0.0
H972 H 0.59467 0.82659 0.48268 0.0
H973 H 0.60033 0.85574 0.45077 0.0
H974 H 0.6614 0.90055 0.49085 0.0
H975 H 0.65657 0.87135 0.52151 0.0
H976 H 0.61981 0.8093 0.48604 0.0
H977 H 0.59723 0.84501 0.55967 0.0
H978 H 0.60466 0.87826 0.58519 0.0
H979 H 0.67094 0.89276 0.60092 0.0
H980 H 0.6633 0.85932 0.57643 0.0
H981 H 0.66291 0.80592 0.57844 0.0
H982 H 0.67145 0.78092 0.6024 0.0
H983 H 0.60638 0.72679 0.58446 0.0
H984 H 0.59804 0.75182 0.55943 0.0
H985 H 0.62939 0.81522 0.58677 0.0
H986 H 0.65507 0.78275 0.52395 0.0
H987 H 0.65911 0.75717 0.49441 0.0
H988 H 0.60098 0.74395 0.45002 0.0
H989 H 0.59553 0.76803 0.48144 0.0
C990 C 0.62489 0.84684 0.50505 0.0
C991 C 0.60912 0.84277 0.48487 0.0
C992 C 0.61228 0.85934 0.46675 0.0
C993 C 0.63116 0.88027 0.46875 0.0
C994 C 0.6466 0.88455 0.48931 0.0
C995 C 0.64365 0.86792 0.50705 0.0
C996 C 0.62307 0.82858 0.52185 0.0
C997 C 0.62106 0.81012 0.50819 0.0
C998 C 0.62591 0.83026 0.55058 0.0
C999 C 0.62977 0.84985 0.56615 0.0
C1000 C 0.61327 0.85531 0.5688 0.0
C1001 C 0.61748 0.87415 0.58333 0.0
C1002 C 0.63838 0.88792 0.59476 0.0
C1003 C 0.65473 0.88229 0.59226 0.0
C1004 C 0.65038 0.86328 0.57834 0.0
C1005 C 0.62992 0.78062 0.56705 0.0
C1006 C 0.65041 0.7887 0.57982 0.0
C1007 C 0.65531 0.7745 0.59337 0.0
C1008 C 0.63961 0.75209 0.5949 0.0
C1009 C 0.61871 0.74407 0.58322 0.0
C1010 C 0.61397 0.75826 0.56903 0.0
C1011 C 0.62589 0.79581 0.55099 0.0
C1012 C 0.62692 0.81371 0.56477 0.0
C1013 C 0.62302 0.79392 0.52221 0.0
C1014 C 0.62453 0.77692 0.50571 0.0
C1015 C 0.64243 0.77356 0.50895 0.0
C1016 C 0.64499 0.75918 0.49176 0.0
C1017 C 0.63031 0.74862 0.47011 0.0
C1018 C 0.61235 0.75179 0.46679 0.0
C1019 C 0.60935 0.76562 0.48463 0.0
H1020 H 0.16897 0.76727 0.48791 0.0
H1021 H 0.13987 0.74559 0.45453 0.0
H1022 H 0.09624 0.76215 0.49667 0.0
H1023 H 0.12562 0.7852 0.52837 0.0
H1024 H 0.18699 0.81058 0.49186 0.0
H1025 H 0.15474 0.7532 0.57365 0.0
H1026 H 0.12179 0.72873 0.60141 0.0
H1027 H 0.10336 0.77825 0.60276 0.0
H1028 H 0.13676 0.80298 0.57682 0.0
H1029 H 0.19387 0.85274 0.5933 0.0
H1030 H 0.22027 0.88707 0.61577 0.0
H1031 H 0.27421 0.88371 0.57844 0.0
H1032 H 0.24774 0.84881 0.5563 0.0
H1033 H 0.18393 0.81246 0.59329 0.0
H1034 H 0.20985 0.86978 0.52929 0.0
H1035 H 0.23328 0.90023 0.49853 0.0
H1036 H 0.25613 0.86062 0.45933 0.0
H1037 H 0.23285 0.83011 0.49037 0.0
C1038 C 0.1494 0.77743 0.51132 0.0
C1039 C 0.15299 0.76585 0.49037 0.0
C1040 C 0.13641 0.75342 0.47142 0.0
C1041 C 0.1159 0.7521 0.47346 0.0
C1042 C 0.11185 0.76264 0.49519 0.0
C1043 C 0.12859 0.77556 0.51359 0.0
C1044 C 0.16823 0.79386 0.52796 0.0
C1045 C 0.18666 0.81056 0.51409 0.0
C1046 C 0.16741 0.7947 0.55686 0.0
C1047 C 0.14769 0.77955 0.57277 0.0
C1048 C 0.14355 0.75867 0.58003 0.0
C1049 C 0.12492 0.74485 0.59583 0.0
C1050 C 0.11005 0.75164 0.60362 0.0
C1051 C 0.11456 0.7727 0.59671 0.0
C1052 C 0.13348 0.78671 0.58188 0.0
C1053 C 0.21887 0.8483 0.57304 0.0
C1054 C 0.21136 0.85902 0.59046 0.0
C1055 C 0.22635 0.87859 0.60318 0.0
C1056 C 0.249 0.88772 0.59862 0.0
C1057 C 0.2567 0.87671 0.58211 0.0
C1058 C 0.24166 0.85696 0.56948 0.0
C1059 C 0.20265 0.82903 0.55718 0.0
C1060 C 0.18483 0.81187 0.57111 0.0
C1061 C 0.20346 0.82852 0.52827 0.0
C1062 C 0.21972 0.84772 0.51216 0.0
C1063 C 0.22039 0.86783 0.51466 0.0
C1064 C 0.23374 0.8852 0.49719 0.0
C1065 C 0.2464 0.88259 0.47686 0.0
C1066 C 0.24656 0.86289 0.47513 0.0
C1067 C 0.23321 0.84551 0.49263 0.0
H1068 H 0.15158 0.34584 0.48236 0.0
H1069 H 0.12048 0.33995 0.45434 0.0
H1070 H 0.11824 0.39225 0.4971 0.0
H1071 H 0.15002 0.39866 0.52503 0.0
H1072 H 0.19117 0.37933 0.48504 0.0
H1073 H 0.13246 0.33781 0.54737 0.0
H1074 H 0.09872 0.32843 0.57303 0.0
H1075 H 0.13303 0.39044 0.61553 0.0
H1076 H 0.16702 0.39992 0.58971 0.0
H1077 H 0.24527 0.40275 0.57629 0.0
H1078 H 0.26947 0.39232 0.59967 0.0
H1079 H 0.22358 0.32429 0.58116 0.0
H1080 H 0.20019 0.33483 0.5566 0.0
H1081 H 0.18906 0.37383 0.58629 0.0
H1082 H 0.25279 0.39558 0.52456 0.0
H1083 H 0.27663 0.38622 0.49815 0.0
H1084 H 0.22111 0.34178 0.44857 0.0
H1085 H 0.19679 0.34872 0.47711 0.0
C1086 C 0.15333 0.37288 0.50556 0.0
C1087 C 0.14458 0.35621 0.48567 0.0
C1088 C 0.12678 0.35273 0.46981 0.0
C1089 C 0.1173 0.36577 0.47362 0.0
C1090 C 0.12551 0.38211 0.49394 0.0
C1091 C 0.14354 0.38572 0.5098 0.0
C1092 C 0.17266 0.37642 0.5216 0.0
C1093 C 0.19085 0.37825 0.50721 0.0
C1094 C 0.1722 0.37518 0.55049 0.0
C1095 C 0.15207 0.3697 0.56638 0.0
C1096 C 0.13273 0.34943 0.56215 0.0
C1097 C 0.11358 0.34402 0.57684 0.0
C1098 C 0.11351 0.35875 0.59611 0.0
C1099 C 0.13291 0.37889 0.60076 0.0
C1100 C 0.15217 0.38429 0.58606 0.0
C1101 C 0.2212 0.36952 0.56456 0.0
C1102 C 0.24054 0.38563 0.57729 0.0
C1103 C 0.25426 0.37972 0.59054 0.0
C1104 C 0.2482 0.35754 0.59217 0.0
C1105 C 0.2285 0.34146 0.58008 0.0
C1106 C 0.21519 0.34743 0.56616 0.0
C1107 C 0.20694 0.37539 0.54952 0.0
C1108 C 0.18985 0.37567 0.56418 0.0
C1109 C 0.20739 0.37643 0.52055 0.0
C1110 C 0.22275 0.3725 0.5035 0.0
C1111 C 0.24553 0.38323 0.50873 0.0
C1112 C 0.25925 0.37822 0.49329 0.0
C1113 C 0.25066 0.36336 0.47132 0.0
C1114 C 0.22811 0.35329 0.46543 0.0
C1115 C 0.21426 0.35746 0.48163 0.0
C1116 C 0.98445 0.37551 0.10346 0.0
C1117 C 0.99525 0.3828 0.07766 0.0
C1118 C 0.00227 0.41978 0.08692 0.0
C1119 C 0.99094 0.41239 0.11226 0.0
N1120 N 0.96688 0.38254 0.14202 0.0
N1121 N 0.00744 0.40965 0.04136 0.0
C1122 C 0.9805 0.38997 0.11961 0.0
C1123 C 0.00216 0.40431 0.06834 0.0
N1124 N 0.97913 0.35537 0.11328 0.0
N1125 N 0.01341 0.44163 0.0807 0.0
H1126 H 0.00591 0.39832 0.02652 0.0
H1127 H 0.01072 0.42452 0.03304 0.0
H1128 H 0.01302 0.45348 0.0931 0.0
H1129 H 0.02429 0.44816 0.06415 0.0
H1130 H 0.97326 0.35012 0.13307 0.0
H1131 H 0.9823 0.34448 0.10258 0.0
H1132 H 0.95685 0.36597 0.14666 0.0
H1133 H 0.96419 0.39286 0.15474 0.0
C1134 C 0.62234 0.60071 0.0986 0.0
C1135 C 0.60949 0.59793 0.07497 0.0
C1136 C 0.57811 0.56538 0.0954 0.0
C1137 C 0.59144 0.56713 0.11792 0.0
N1138 N 0.62711 0.58398 0.13922 0.0
N1139 N 0.57718 0.57437 0.04812 0.0
C1140 C 0.61389 0.584 0.11893 0.0
C1141 C 0.58792 0.57935 0.07262 0.0
N1142 N 0.64197 0.61976 0.10243 0.0
N1143 N 0.55593 0.55057 0.09588 0.0
H1144 H 0.58427 0.58349 0.03047 0.0
H1145 H 0.56237 0.55987 0.04449 0.0
H1146 H 0.54804 0.53931 0.11166 0.0
H1147 H 0.54503 0.55062 0.08164 0.0
H1148 H 0.65093 0.62356 0.12051 0.0
H1149 H 0.64841 0.63273 0.08858 0.0
H1150 H 0.64416 0.59443 0.13937 0.0
H1151 H 0.62121 0.57231 0.15481 0.0
C1152 C 0.40915 0.02434 0.08332 0.0
C1153 C 0.38924 0.00417 0.07883 0.0
C1154 C 0.40071 0.98609 0.11127 0.0
C1155 C 0.4197 0.00651 0.11799 0.0
N1156 N 0.43785 0.0461 0.11596 0.0
N1157 N 0.36282 0.96857 0.09695 0.0
C1158 C 0.42265 0.02603 0.1058 0.0
C1159 C 0.3839 0.98601 0.09579 0.0
N1160 N 0.41593 0.04143 0.06557 0.0
N1161 N 0.3993 0.96665 0.11752 0.0
H1162 H 0.34983 0.9684 0.08661 0.0
H1163 H 0.358 0.95565 0.11065 0.0
H1164 H 0.41233 0.96562 0.12577 0.0
H1165 H 0.38622 0.95156 0.11108 0.0
H1166 H 0.43149 0.05552 0.06662 0.0
H1167 H 0.40695 0.04082 0.04842 0.0
H1168 H 0.43937 0.06067 0.10895 0.0
H1169 H 0.44711 0.04796 0.13338 0.0
C1170 C 0.3904 0.98178 0.94489 0.0
C1171 C 0.38207 0.99589 0.93979 0.0
C1172 C 0.40173 0.00665 0.89579 0.0
C1173 C 0.4091 0.99167 0.90037 0.0
N1174 N 0.40731 0.96199 0.92638 0.0
N1175 N 0.37684 0.01941 0.90927 0.0
C1176 C 0.40229 0.97817 0.92395 0.0
C1177 C 0.38681 0.0076 0.91482 0.0
N1178 N 0.38825 0.97298 0.97036 0.0
N1179 N 0.40955 0.02038 0.87371 0.0
H1180 H 0.366 0.02057 0.92295 0.0
H1181 H 0.37795 0.02669 0.89043 0.0
H1182 H 0.41978 0.01948 0.85881 0.0
H1183 H 0.40696 0.03345 0.87089 0.0
H1184 H 0.39605 0.96451 0.97623 0.0
H1185 H 0.38039 0.97592 0.98658 0.0
H1186 H 0.40073 0.95007 0.94161 0.0
H1187 H 0.41663 0.95929 0.91184 0.0
C1188 C 0.98072 0.38238 0.93003 0.0
C1189 C -0.0004 0.38609 0.94467 0.0
C1190 C 0.02235 0.41649 0.91358 0.0
C1191 C 0.00303 0.41575 0.90379 0.0
N1192 N 0.96354 0.4004 0.90912 0.0
N1193 N 0.03892 0.40929 0.95219 0.0
C1194 C 0.98206 0.39928 0.91361 0.0
C1195 C 0.0207 0.40373 0.93683 0.0
N1196 N 0.9615 0.36266 0.9316 0.0
N1197 N 0.04211 0.42905 0.90054 0.0
H1198 H 0.03849 0.40114 0.97005 0.0
H1199 H 0.05413 0.42339 0.94854 0.0
H1200 H 0.04369 0.43791 0.88284 0.0
H1201 H 0.05626 0.42869 0.90561 0.0
H1202 H 0.94779 0.35888 0.91967 0.0
H1203 H 0.96032 0.34936 0.94215 0.0
H1204 H 0.94832 0.38943 0.918 0.0
H1205 H 0.96382 0.41366 0.89962 0.0
C1206 C 0.60122 0.6314 0.91706 0.0
C1207 C 0.60221 0.62084 0.94115 0.0
C1208 C 0.56849 0.58707 0.92802 0.0
C1209 C 0.56707 0.59777 0.90438 0.0
N1210 N 0.57935 0.63088 0.87854 0.0
N1211 N 0.58381 0.591 0.9732 0.0
C1212 C 0.58257 0.62025 0.89963 0.0
C1213 C 0.58497 0.59933 0.94767 0.0
N1214 N 0.61856 0.65158 0.91016 0.0
N1215 N 0.55435 0.56506 0.93145 0.0
H1216 H 0.59506 0.59994 0.98856 0.0
H1217 H 0.57048 0.57629 0.98012 0.0
H1218 H 0.5413 0.55559 0.91825 0.0
H1219 H 0.55645 0.55584 0.94636 0.0
H1220 H 0.61992 0.65915 0.89146 0.0
H1221 H 0.63248 0.66021 0.92239 0.0
H1222 H 0.5887 0.64777 0.87565 0.0
H1223 H 0.56616 0.62299 0.86503 0.0
C1224 C 0.97514 0.59312 0.92923 0.0
C1225 C 0.99444 0.61079 0.94085 0.0
C1226 C 0.01637 0.60253 0.90899 0.0
C1227 C -0.00271 0.58201 0.90287 0.0
N1228 N 0.95899 0.55591 0.91367 0.0
N1229 N 0.03448 0.63095 0.94311 0.0
C1230 C 0.97672 0.57676 0.91468 0.0
C1231 C 0.01547 0.6154 0.93094 0.0
N1232 N 0.95527 0.59202 0.93182 0.0
N1233 N 0.03514 0.60989 0.89367 0.0
H1234 H 0.0349 0.64032 0.95983 0.0
H1235 H 0.04989 0.63313 0.93806 0.0
H1236 H 0.03609 0.60121 0.87686 0.0
H1237 H 0.04884 0.62559 0.89584 0.0
H1238 H 0.94107 0.57997 0.92211 0.0
H1239 H 0.95374 0.60466 0.94064 0.0
H1240 H 0.94428 0.55134 0.92412 0.0
H1241 H 0.95977 0.54273 0.90537 0.0
C1242 C 0.40332 0.41562 0.9491 0.0
C1243 C 0.38118 0.39917 0.94363 0.0
C1244 C 0.38191 0.4185 0.90177 0.0
C1245 C 0.40483 0.43313 0.90547 0.0
N1246 N 0.43814 0.44447 0.93102 0.0
N1247 N 0.34985 0.38341 0.91333 0.0
C1248 C 0.41578 0.43132 0.92865 0.0
C1249 C 0.37047 0.40028 0.9197 0.0
N1250 N 0.41209 0.41698 0.97443 0.0
N1251 N 0.37111 0.4221 0.8812 0.0
H1252 H 0.34106 0.36958 0.92561 0.0
H1253 H 0.34214 0.38219 0.89477 0.0
H1254 H 0.37914 0.43482 0.8671 0.0
H1255 H 0.35401 0.41355 0.87935 0.0
H1256 H 0.42743 0.42984 0.98045 0.0
H1257 H 0.40307 0.4066 0.99056 0.0
H1258 H 0.44733 0.44196 0.94559 0.0
H1259 H 0.44782 0.45699 0.91724 0.0
C1260 C 0.60364 0.98158 0.92606 0.0
C1261 C 0.61289 0.00065 0.94291 0.0
C1262 C 0.59479 0.01489 0.91451 0.0
C1263 C 0.58135 0.99396 0.90256 0.0
N1264 N 0.5708 0.95558 0.90182 0.0
N1265 N 0.60967 0.03188 0.95766 0.0
C1266 C 0.58519 0.97671 0.90946 0.0
C1267 C 0.60655 0.0165 0.93837 0.0
N1268 N 0.61258 0.96843 0.92518 0.0
N1269 N 0.59603 0.03315 0.90353 0.0
H1270 H 0.6146 0.03164 0.97763 0.0
H1271 H 0.60391 0.04271 0.95506 0.0
H1272 H 0.58843 0.03273 0.8851 0.0
H1273 H 0.60667 0.04884 0.91121 0.0
H1274 H 0.60708 0.95525 0.91164 0.0
H1275 H 0.62713 0.97234 0.93524 0.0
H1276 H 0.57229 0.94245 0.9085 0.0
H1277 H 0.55616 0.95086 0.89153 0.0
C1278 C 0.59351 0.98642 0.07757 0.0
C1279 C 0.61644 -0.00147 0.08335 0.0
C1280 C 0.60963 0.01473 0.12407 0.0
C1281 C 0.58664 0.00155 0.1191 0.0
N1282 N 0.55618 0.97363 0.09302 0.0
N1283 N 0.64708 0.02598 0.10933 0.0
C1284 C 0.57845 0.98704 0.09639 0.0
C1285 C 0.62476 0.01327 0.10584 0.0
N1286 N 0.58626 0.9756 0.05307 0.0
N1287 N 0.61676 0.02799 0.14673 0.0
H1288 H 0.65845 0.02461 0.09688 0.0
H1289 H 0.65465 0.03832 0.12391 0.0
H1290 H 0.60603 0.02935 0.16037 0.0
H1291 H 0.63311 0.03721 0.15282 0.0
H1292 H 0.57011 0.96863 0.04623 0.0
H1293 H 0.59669 0.9752 0.03808 0.0
H1294 H 0.5492 0.96044 0.07946 0.0
H1295 H 0.54443 0.97477 0.10491 0.0
C1296 C 0.01424 0.61584 0.08867 0.0
C1297 C 0.99408 0.61357 0.07967 0.0
C1298 C 0.97438 0.58357 0.11249 0.0
C1299 C 0.99399 0.58304 0.11692 0.0
N1300 N 0.032 0.59637 0.1038 0.0
N1301 N 0.95401 0.59187 0.08023 0.0
C1302 C 0.01384 0.5986 0.10362 0.0
C1303 C 0.97382 0.59664 0.09094 0.0
N1304 N 0.03381 0.63466 0.08351 0.0
N1305 N 0.95641 0.57192 0.12907 0.0
H1306 H 0.95242 0.60002 0.06363 0.0
H1307 H 0.93913 0.57815 0.0861 0.0
H1308 H 0.95647 0.56278 0.14569 0.0
H1309 H 0.9424 0.57333 0.12813 0.0
H1310 H 0.04874 0.63764 0.09162 0.0
H1311 H 0.03471 0.64827 0.07408 0.0
H1312 H 0.04612 0.60636 0.09223 0.0
H1313 H 0.03211 0.58315 0.11284 0.0
C1314 C 0.39416 0.38074 0.10494 0.0
C1315 C 0.4002 0.38535 0.07694 0.0
C1316 C 0.43858 0.41073 0.08936 0.0
C1317 C 0.43278 0.40586 0.11745 0.0
N1318 N 0.40633 0.38323 0.15193 0.0
N1319 N 0.42846 0.39986 0.0421 0.0
C1320 C 0.41092 0.38985 0.12523 0.0
C1321 C 0.42256 0.39873 0.06906 0.0
N1322 N 0.37239 0.36829 0.11208 0.0
N1323 N 0.45894 0.42773 0.08207 0.0
H1324 H 0.41704 0.39112 0.02675 0.0
H1325 H 0.44478 0.40763 0.03532 0.0
H1326 H 0.47112 0.43733 0.09621 0.0
H1327 H 0.46314 0.43361 0.06212 0.0
H1328 H 0.36659 0.36636 0.13215 0.0
H1329 H 0.35987 0.36072 0.09761 0.0
H1330 H 0.39123 0.37027 0.15859 0.0
H1331 H 0.4183 0.38959 0.16719 0.0
C1332 C 0.62595 0.70144 0.42664 0.0
C1333 C 0.64672 0.71229 0.41304 0.0
C1334 C 0.65451 0.74734 0.43307 0.0
C1335 C 0.63517 0.73604 0.44949 0.0
N1336 N 0.60337 0.70208 0.46407 0.0
N1337 N 0.68142 0.74548 0.40378 0.0
C1338 C 0.62098 0.71303 0.44668 0.0
C1339 C 0.66123 0.7352 0.41651 0.0
N1340 N 0.61099 0.68006 0.42046 0.0
N1341 N 0.66584 0.76977 0.43224 0.0
H1342 H 0.6862 0.73793 0.3891 0.0
H1343 H 0.69392 0.76129 0.40872 0.0
H1344 H 0.66099 0.7793 0.44328 0.0
H1345 H 0.67874 0.77898 0.41864 0.0
H1346 H 0.59464 0.67207 0.42712 0.0
H1347 H 0.61443 0.67066 0.40702 0.0
H1348 H 0.59374 0.68506 0.46501 0.0
H1349 H 0.59935 0.70993 0.47922 0.0
C1350 C 0.25582 0.91007 0.40774 0.0
C1351 C 0.27428 0.93101 0.4133 0.0
C1352 C 0.27686 0.91892 0.45935 0.0
C1353 C 0.25665 0.8991 0.45483 0.0
N1354 N 0.22493 0.8771 0.42631 0.0
N1355 N 0.30183 0.9564 0.44474 0.0
C1356 C 0.2456 0.89499 0.42943 0.0
C1357 C 0.28484 0.93571 0.43915 0.0
N1358 N 0.24856 0.90429 0.38146 0.0
N1359 N 0.28847 0.9215 0.48273 0.0
H1360 H 0.30818 0.96902 0.43036 0.0
H1361 H 0.30869 0.96151 0.4641 0.0
H1362 H 0.28283 0.90958 0.49801 0.0
H1363 H 0.30435 0.93459 0.48607 0.0
H1364 H 0.23648 0.88848 0.37575 0.0
H1365 H 0.25638 0.91465 0.36488 0.0
H1366 H 0.21513 0.87477 0.40931 0.0
H1367 H 0.21669 0.86552 0.44166 0.0
C1368 C 0.08869 0.36569 0.40873 0.0
C1369 C 0.06706 0.34795 0.41407 0.0
C1370 C 0.07736 0.345 0.461 0.0
C1371 C 0.09912 0.36225 0.45532 0.0
N1372 N 0.12457 0.39236 0.42686 0.0
N1373 N 0.03921 0.32377 0.44622 0.0
C1374 C 0.1044 0.37379 0.43019 0.0
C1375 C 0.06089 0.33857 0.4406 0.0
N1376 N 0.09462 0.37382 0.38273 0.0
N1377 N 0.07274 0.33441 0.48563 0.0
H1378 H 0.0268 0.31901 0.43171 0.0
H1379 H 0.03315 0.31747 0.46561 0.0
H1380 H 0.08417 0.3396 0.50149 0.0
H1381 H 0.05798 0.3201 0.49016 0.0
H1382 H 0.11074 0.38495 0.37673 0.0
H1383 H 0.08365 0.36838 0.36639 0.0
H1384 H 0.12876 0.40283 0.41016 0.0
H1385 H 0.13663 0.39839 0.44199 0.0
C1386 C 0.05703 0.30204 0.28066 0.0
C1387 C 0.04881 0.31607 0.27442 0.0
C1388 C 0.06253 0.31994 0.22711 0.0
C1389 C 0.0704 0.30559 0.23339 0.0
N1390 N 0.07157 0.2796 0.26387 0.0
N1391 N 0.04141 0.33682 0.24179 0.0
C1392 C 0.0664 0.2955 0.25944 0.0
C1393 C 0.05082 0.32453 0.24757 0.0
N1394 N 0.0572 0.29612 0.30722 0.0
N1395 N 0.06666 0.32936 0.20174 0.0
H1396 H 0.03289 0.34054 0.25641 0.0
H1397 H 0.04089 0.34245 0.22237 0.0
H1398 H 0.07428 0.32547 0.18608 0.0
H1399 H 0.06321 0.34143 0.19618 0.0
H1400 H 0.06524 0.28803 0.31364 0.0
H1401 H 0.05095 0.30098 0.32346 0.0
H1402 H 0.06679 0.26983 0.28132 0.0
H1403 H 0.0791 0.27482 0.24911 0.0
C1404 C 0.68606 0.72891 0.25174 0.0
C1405 C 0.68304 0.73421 0.27887 0.0
C1406 C 0.69296 0.77114 0.26469 0.0
C1407 C 0.69662 0.7662 0.23759 0.0
N1408 N 0.70064 0.74213 0.20606 0.0
N1409 N 0.68875 0.76142 0.31274 0.0
C1410 C 0.69446 0.74559 0.23135 0.0
C1411 C 0.68826 0.75574 0.28582 0.0
N1412 N 0.68004 0.70778 0.24531 0.0
N1413 N 0.69259 0.78995 0.26996 0.0
H1414 H 0.68536 0.75044 0.32876 0.0
H1415 H 0.69458 0.77746 0.3193 0.0
H1416 H 0.69559 0.80164 0.25507 0.0
H1417 H 0.68741 0.79311 0.28859 0.0
H1418 H 0.67939 0.70221 0.22536 0.0
H1419 H 0.67453 0.69543 0.26001 0.0
H1420 H 0.70136 0.72822 0.20092 0.0
H1421 H 0.70673 0.75403 0.19074 0.0
C1422 C 0.24475 0.93028 0.28551 0.0
C1423 C 0.26379 0.95093 0.28009 0.0
C1424 C 0.24927 0.9515 0.23483 0.0
C1425 C 0.23171 0.92975 0.23917 0.0
N1426 N 0.21458 0.8969 0.26669 0.0
N1427 N 0.2859 0.98007 0.24819 0.0
C1428 C 0.23002 0.91866 0.26393 0.0
C1429 C 0.2665 0.96136 0.25441 0.0
N1430 N 0.24005 0.92232 0.31164 0.0
N1431 N 0.24933 0.96275 0.21217 0.0
H1432 H 0.2991 0.98757 0.26172 0.0
H1433 H 0.28967 0.98714 0.2288 0.0
H1434 H 0.2372 0.95577 0.19715 0.0
H1435 H 0.26036 0.97943 0.20935 0.0
H1436 H 0.22539 0.90824 0.31721 0.0
H1437 H 0.24961 0.93119 0.32834 0.0
H1438 H 0.21439 0.88743 0.28303 0.0
H1439 H 0.20308 0.88781 0.25158 0.0
C1440 C 0.6909 0.95313 0.25431 0.0
C1441 C 0.68647 0.94378 0.28092 0.0
C1442 C 0.69413 0.91546 0.26502 0.0
C1443 C 0.69904 0.92499 0.23853 0.0
N1444 N 0.70634 0.95502 0.20894 0.0
N1445 N 0.68947 0.92001 0.31336 0.0
C1446 C 0.69885 0.9446 0.23352 0.0
C1447 C 0.68991 0.9262 0.28679 0.0
N1448 N 0.68636 0.96927 0.24853 0.0
N1449 N 0.69241 0.89556 0.26912 0.0
H1450 H 0.68679 0.92784 0.32984 0.0
H1451 H 0.69395 0.90872 0.31926 0.0
H1452 H 0.69556 0.88713 0.25384 0.0
H1453 H 0.68618 0.88655 0.28708 0.0
H1454 H 0.68682 0.97503 0.22884 0.0
H1455 H 0.68079 0.97607 0.26328 0.0
H1456 H 0.70866 0.97046 0.20485 0.0
H1457 H 0.71194 0.94895 0.19326 0.0
C1458 C 0.06749 0.75124 0.28218 0.0
C1459 C 0.04466 0.73611 0.27826 0.0
C1460 C 0.04479 0.7577 0.23903 0.0
C1461 C 0.06813 0.77055 0.24051 0.0
N1462 N 0.10216 0.77874 0.26226 0.0
N1463 N 0.01167 0.72375 0.2515 0.0
C1464 C 0.07961 0.76707 0.26173 0.0
C1465 C 0.0332 0.73916 0.25653 0.0
N1466 N 0.07737 0.75124 0.30616 0.0
N1467 N 0.03374 0.76313 0.22082 0.0
H1468 H 0.00268 0.70967 0.26328 0.0
H1469 H 0.00316 0.72392 0.23428 0.0
H1470 H 0.04175 0.77595 0.20687 0.0
H1471 H 0.01666 0.75606 0.22095 0.0
H1472 H 0.09342 0.76317 0.31126 0.0
H1473 H 0.06877 0.7408 0.32241 0.0
H1474 H 0.11142 0.77472 0.27489 0.0
H1475 H 0.11176 0.79163 0.24891 0.0
C1476 C 0.24729 0.2952 0.27947 0.0
C1477 C 0.26868 0.31353 0.27475 0.0
C1478 C 0.25818 0.31785 0.22855 0.0
C1479 C 0.23655 0.3002 0.23379 0.0
N1480 N 0.21187 0.2684 0.26041 0.0
N1481 N 0.2964 0.3384 0.243 0.0
C1482 C 0.23165 0.28753 0.25794 0.0
C1483 C 0.27474 0.32354 0.24857 0.0
N1484 N 0.24136 0.2862 0.30505 0.0
N1485 N 0.26257 0.32965 0.20491 0.0
H1486 H 0.30885 0.34258 0.25729 0.0
H1487 H 0.30232 0.34506 0.2237 0.0
H1488 H 0.25108 0.32511 0.18921 0.0
H1489 H 0.27717 0.34437 0.20128 0.0
H1490 H 0.22525 0.27466 0.31066 0.0
H1491 H 0.25228 0.29122 0.32141 0.0
H1492 H 0.20814 0.25726 0.27624 0.0
H1493 H 0.19982 0.26268 0.24529 0.0
C1494 C 0.26845 0.32941 0.4303 0.0
C1495 C 0.28812 0.34582 0.41746 0.0
C1496 C 0.28316 0.37421 0.43939 0.0
C1497 C 0.26488 0.3578 0.45445 0.0
N1498 N 0.24453 0.32019 0.46985 0.0
N1499 N 0.31721 0.38382 0.41568 0.0
C1500 C 0.25897 0.33552 0.45175 0.0
C1501 C 0.29644 0.36825 0.42382 0.0
N1502 N 0.25785 0.30825 0.42097 0.0
N1503 N 0.28722 0.39522 0.43864 0.0
H1504 H 0.3278 0.38003 0.40514 0.0
H1505 H 0.32474 0.40013 0.42204 0.0
H1506 H 0.27734 0.40018 0.44864 0.0
H1507 H 0.29907 0.40718 0.42577 0.0
H1508 H 0.24235 0.29634 0.42817 0.0
H1509 H 0.26309 0.30316 0.40391 0.0
H1510 H 0.24116 0.30406 0.46998 0.0
H1511 H 0.23788 0.3242 0.48655 0.0
C1512 C 0.63019 0.92611 0.4294 0.0
C1513 C 0.64873 0.93278 0.41174 0.0
C1514 C 0.65275 0.90229 0.42815 0.0
C1515 C 0.63596 0.89731 0.44791 0.0
N1516 N 0.60908 0.90446 0.46866 0.0
N1517 N 0.67716 0.92679 0.39299 0.0
C1518 C 0.62454 0.90899 0.44863 0.0
C1519 C 0.65989 0.92075 0.41079 0.0
N1520 N 0.61809 0.93625 0.42803 0.0
N1521 N 0.66118 0.88871 0.42527 0.0
H1522 H 0.68084 0.93781 0.37701 0.0
H1523 H 0.68826 0.92125 0.39426 0.0
H1524 H 0.65608 0.87482 0.43732 0.0
H1525 H 0.67192 0.89 0.40966 0.0
H1526 H 0.60271 0.93017 0.43731 0.0
H1527 H 0.62275 0.95024 0.41644 0.0
H1528 H 0.60184 0.91387 0.47244 0.0
H1529 H 0.60437 0.89192 0.48292 0.0
C1530 C 0.08449 0.74786 0.40874 0.0
C1531 C 0.06736 0.72549 0.4095 0.0
C1532 C 0.08496 0.71969 0.44921 0.0
C1533 C 0.09985 0.74261 0.45075 0.0
N1534 N 0.11257 0.77908 0.43364 0.0
N1535 N 0.04962 0.69058 0.433 0.0
C1536 C 0.0992 0.75686 0.43105 0.0
C1537 C 0.06724 0.7114 0.43024 0.0
N1538 N 0.08757 0.76028 0.38597 0.0
N1539 N 0.08768 0.70587 0.46592 0.0
H1540 H 0.03574 0.68414 0.42058 0.0
H1541 H 0.04773 0.68037 0.44932 0.0
H1542 H 0.09999 0.71147 0.48072 0.0
H1543 H 0.07895 0.68889 0.46356 0.0
H1544 H 0.10105 0.77604 0.3833 0.0
H1545 H 0.07817 0.75405 0.36832 0.0
H1546 H 0.11051 0.79025 0.42215 0.0
H1547 H 0.1248 0.78648 0.44846 0.0
C1548 C 0.29044 0.04274 0.74779 0.0
C1549 C 0.31278 0.04936 0.74158 0.0
C1550 C 0.32488 0.0805 0.77265 0.0
C1551 C 0.30282 0.0721 0.78184 0.0
N1552 N 0.26537 0.04141 0.7829 0.0
N1553 N 0.35089 0.07055 0.75602 0.0
C1554 C 0.2858 0.05199 0.77093 0.0
C1555 C 0.32993 0.06701 0.75642 0.0
N1556 N 0.27367 0.02876 0.73098 0.0
N1557 N 0.34089 0.10163 0.77813 0.0
H1558 H 0.35504 0.05995 0.74635 0.0
H1559 H 0.36339 0.08235 0.76832 0.0
H1560 H 0.33767 0.11282 0.78798 0.0
H1561 H 0.35676 0.10869 0.76985 0.0
H1562 H 0.25748 0.02519 0.73376 0.0
H1563 H 0.27617 0.02294 0.71251 0.0
H1564 H 0.25305 0.02578 0.77688 0.0
H1565 H 0.26161 0.04713 0.80068 0.0
C1566 C 0.92344 0.24274 0.73522 0.0
C1567 C 0.94363 0.26283 0.7385 0.0
C1568 C 0.94748 0.25136 0.78447 0.0
C1569 C 0.92601 0.23272 0.78225 0.0
N1570 N 0.89184 0.21259 0.75743 0.0
N1571 N 0.97354 0.28783 0.76781 0.0
C1572 C 0.91348 0.22898 0.75818 0.0
C1573 C 0.95545 0.26755 0.76349 0.0
N1574 N 0.91423 0.23631 0.70984 0.0
N1575 N 0.96027 0.25346 0.80647 0.0
H1576 H 0.97962 0.30033 0.7533 0.0
H1577 H 0.98144 0.29291 0.78663 0.0
H1578 H 0.95466 0.24214 0.82246 0.0
H1579 H 0.9769 0.26542 0.80781 0.0
H1580 H 0.9006 0.22089 0.70585 0.0
H1581 H 0.92165 0.24536 0.69216 0.0
H1582 H 0.88126 0.21086 0.74158 0.0
H1583 H 0.88386 0.20188 0.7737 0.0
C1584 C 0.72595 0.67243 0.77086 0.0
C1585 C 0.73092 0.68406 0.74568 0.0
C1586 C 0.76801 0.71071 0.76209 0.0
C1587 C 0.76361 0.69811 0.78628 0.0
N1588 N 0.73816 0.66949 0.81638 0.0
N1589 N 0.75457 0.7165 0.7192 0.0
C1590 C 0.74236 0.67979 0.79156 0.0
C1591 C 0.75121 0.70407 0.74203 0.0
N1592 N 0.70548 0.6543 0.77468 0.0
N1593 N 0.78875 0.72822 0.75762 0.0
H1594 H 0.74342 0.71158 0.70313 0.0
H1595 H 0.76781 0.73238 0.71669 0.0
H1596 H 0.80119 0.73398 0.77223 0.0
H1597 H 0.79412 0.7366 0.73915 0.0
H1598 H 0.7009 0.6438 0.79134 0.0
H1599 H 0.69262 0.64962 0.76086 0.0
H1600 H 0.72302 0.65631 0.8224 0.0
H1601 H 0.74987 0.67486 0.83192 0.0
C1602 C 0.71507 0.65879 0.57954 0.0
C1603 C 0.71421 0.65194 0.60701 0.0
C1604 C 0.73312 0.63229 0.59354 0.0
C1605 C 0.7362 0.64116 0.56684 0.0
N1606 N 0.73128 0.66355 0.53408 0.0
N1607 N 0.7252 0.63509 0.64126 0.0
C1608 C 0.72737 0.65451 0.55966 0.0
C1609 C 0.72381 0.6393 0.6143 0.0
N1610 N 0.70379 0.66901 0.57246 0.0
N1611 N 0.73901 0.61706 0.59898 0.0
H1612 H 0.71921 0.64055 0.65715 0.0
H1613 H 0.7341 0.62801 0.64814 0.0
H1614 H 0.74619 0.61179 0.58433 0.0
H1615 H 0.73503 0.60824 0.61718 0.0
H1616 H 0.70192 0.67259 0.55238 0.0
H1617 H 0.69487 0.67259 0.58661 0.0
H1618 H 0.72753 0.67539 0.52836 0.0
H1619 H 0.73941 0.65997 0.51874 0.0
C1620 C 0.35179 0.06404 0.58421 0.0
C1621 C 0.3436 0.06708 0.60955 0.0
C1622 C 0.35023 0.10278 0.59449 0.0
C1623 C 0.35923 0.10022 0.56959 0.0
N1624 N 0.37246 0.08073 0.54241 0.0
N1625 N 0.3406 0.0915 0.64166 0.0
C1626 C 0.36127 0.08155 0.56499 0.0
C1627 C 0.34448 0.08711 0.61554 0.0
N1628 N 0.34957 0.04416 0.57805 0.0
N1629 N 0.34642 0.11977 0.5977 0.0
H1630 H 0.33691 0.08066 0.65791 0.0
H1631 H 0.34327 0.10676 0.64784 0.0
H1632 H 0.35069 0.13192 0.583 0.0
H1633 H 0.33741 0.12088 0.61403 0.0
H1634 H 0.3531 0.04019 0.55885 0.0
H1635 H 0.34263 0.03096 0.59158 0.0
H1636 H 0.37649 0.06864 0.53922 0.0
H1637 H 0.37929 0.0932 0.52782 0.0
C1638 C 0.93978 0.28948 0.57526 0.0
C1639 C 0.9362 0.28298 0.60311 0.0
C1640 C 0.8984 0.25402 0.59309 0.0
C1641 C 0.90151 0.26129 0.56552 0.0
N1642 N 0.92357 0.28779 0.53097 0.0
N1643 N 0.91129 0.26212 0.63987 0.0
C1644 C 0.92178 0.2796 0.55676 0.0
C1645 C 0.91525 0.26614 0.61243 0.0
N1646 N 0.96053 0.30458 0.56638 0.0
N1647 N 0.87974 0.23498 0.60055 0.0
H1648 H 0.92335 0.27041 0.65466 0.0
H1649 H 0.89566 0.2519 0.64817 0.0
H1650 H 0.86692 0.22552 0.58706 0.0
H1651 H 0.87768 0.22753 0.61953 0.0
H1652 H 0.96479 0.30828 0.54583 0.0
H1653 H 0.974 0.31238 0.57951 0.0
H1654 H 0.93713 0.30236 0.52416 0.0
H1655 H 0.91068 0.28088 0.51693 0.0
C1656 C 0.36659 0.2871 0.60214 0.0
C1657 C 0.34376 0.27945 0.60639 0.0
C1658 C 0.33458 0.24975 0.57381 0.0
C1659 C 0.3572 0.25886 0.56687 0.0
N1660 N 0.39414 0.2903 0.56944 0.0
N1661 N 0.30705 0.25855 0.5874 0.0
C1662 C 0.37308 0.27886 0.57944 0.0
C1663 C 0.32806 0.2624 0.58939 0.0
N1664 N 0.38207 0.30111 0.62032 0.0
N1665 N 0.31933 0.22863 0.56703 0.0
H1666 H 0.30207 0.26868 0.59657 0.0
H1667 H 0.29563 0.24711 0.57373 0.0
H1668 H 0.32351 0.21788 0.5579 0.0
H1669 H 0.30296 0.22109 0.57369 0.0
H1670 H 0.39857 0.30539 0.61906 0.0
H1671 H 0.37822 0.30653 0.63824 0.0
H1672 H 0.40573 0.30586 0.57657 0.0
H1673 H 0.39921 0.28535 0.55206 0.0
C1674 C 0.73921 0.08074 0.60822 0.0
C1675 C 0.71646 0.06531 0.60446 0.0
C1676 C 0.71551 0.08688 0.56593 0.0
C1677 C 0.73877 0.10045 0.56744 0.0
N1678 N 0.7733 0.10969 0.58866 0.0
N1679 N 0.68308 0.05234 0.57839 0.0
C1680 C 0.75078 0.09716 0.58817 0.0
C1681 C 0.70455 0.06813 0.58313 0.0
N1682 N 0.74944 0.08056 0.6318 0.0
N1683 N 0.70392 0.09195 0.54811 0.0
H1684 H 0.67456 0.03814 0.59011 0.0
H1685 H 0.67419 0.05234 0.56149 0.0
H1686 H 0.71148 0.10497 0.53436 0.0
H1687 H 0.68679 0.08433 0.54834 0.0
H1688 H 0.76541 0.09267 0.63694 0.0
H1689 H 0.74121 0.06963 0.64775 0.0
H1690 H 0.78307 0.10608 0.60089 0.0
H1691 H 0.7824 0.12299 0.57566 0.0
C1692 C 0.93421 0.64401 0.58401 0.0
C1693 C 0.92856 0.64713 0.61095 0.0
C1694 C 0.89068 0.63424 0.59658 0.0
C1695 C 0.89734 0.63479 0.56895 0.0
N1696 N 0.92489 0.63959 0.53565 0.0
N1697 N 0.90165 0.64482 0.64373 0.0
C1698 C 0.91887 0.63911 0.56245 0.0
C1699 C 0.90676 0.64186 0.61754 0.0
N1700 N 0.95428 0.64597 0.57912 0.0
N1701 N 0.86889 0.62622 0.60264 0.0
H1702 H 0.91258 0.64894 0.66001 0.0
H1703 H 0.88701 0.64414 0.64923 0.0
H1704 H 0.85669 0.62042 0.58768 0.0
H1705 H 0.86253 0.6235 0.62248 0.0
H1706 H 0.95875 0.64199 0.56054 0.0
H1707 H 0.96597 0.65 0.59445 0.0
H1708 H 0.94096 0.64495 0.52916 0.0
H1709 H 0.91385 0.63557 0.51953 0.0
C1710 C 0.92797 0.6644 0.75528 0.0
C1711 C 0.94983 0.67927 0.74595 0.0
C1712 C 0.94924 0.70824 0.77301 0.0
C1713 C 0.92884 0.69251 0.78498 0.0
N1714 N 0.90361 0.65415 0.79438 0.0
N1715 N 0.98371 0.71375 0.75535 0.0
C1716 C 0.91991 0.67006 0.77856 0.0
C1717 C 0.96133 0.70077 0.75758 0.0
N1718 N 0.91405 0.64579 0.74104 0.0
N1719 N 0.9568 0.73015 0.77521 0.0
H1720 H 0.99381 0.70816 0.74763 0.0
H1721 H 0.99246 0.72897 0.76503 0.0
H1722 H 0.94799 0.7364 0.78508 0.0
H1723 H 0.97074 0.74189 0.76461 0.0
H1724 H 0.89766 0.63546 0.74697 0.0
H1725 H 0.91746 0.64246 0.7214 0.0
H1726 H 0.89775 0.63751 0.79117 0.0
H1727 H 0.89792 0.65776 0.81235 0.0
C1728 C 0.29473 0.25477 0.75086 0.0
C1729 C 0.31706 0.26908 0.7424 0.0
C1730 C 0.32807 0.24755 0.76984 0.0
C1731 C 0.30659 0.23561 0.78144 0.0
N1732 N 0.2711 0.23257 0.78798 0.0
N1733 N 0.35561 0.28276 0.75237 0.0
C1734 C 0.29041 0.24072 0.77358 0.0
C1735 C 0.33397 0.26661 0.75443 0.0
N1736 N 0.27745 0.25325 0.73652 0.0
N1737 N 0.34267 0.24039 0.77252 0.0
H1738 H 0.36068 0.29806 0.7438 0.0
H1739 H 0.36815 0.28199 0.76255 0.0
H1740 H 0.33859 0.22567 0.78208 0.0
H1741 H 0.35786 0.24783 0.76237 0.0
H1742 H 0.26108 0.24165 0.74108 0.0
H1743 H 0.27917 0.26119 0.71808 0.0
H1744 H 0.2597 0.23751 0.78433 0.0
H1745 H 0.26766 0.22288 0.80539 0.0
C1746 C 0.76116 0.07152 0.7322 0.0
C1747 C 0.73944 0.05433 0.73801 0.0
C1748 C 0.74961 0.05456 0.78603 0.0
C1749 C 0.77021 0.07384 0.78078 0.0
N1750 N 0.79424 0.10284 0.74972 0.0
N1751 N 0.71208 0.03013 0.77073 0.0
C1752 C 0.77568 0.08287 0.75406 0.0
C1753 C 0.73342 0.04579 0.76497 0.0
N1754 N 0.76804 0.07671 0.70562 0.0
N1755 N 0.74566 0.04459 0.81099 0.0
H1756 H 0.69991 0.02313 0.75578 0.0
H1757 H 0.70609 0.02502 0.79052 0.0
H1758 H 0.75709 0.05082 0.82687 0.0
H1759 H 0.73189 0.02934 0.81527 0.0
H1760 H 0.78432 0.08776 0.70003 0.0
H1761 H 0.75796 0.06809 0.68914 0.0
H1762 H 0.79764 0.11129 0.73126 0.0
H1763 H 0.80526 0.11201 0.76522 0.0
C1764 C 0.05826 0.31348 0.03197 0.0
C1765 C 0.04912 0.32435 0.04659 0.0
C1766 C 0.06399 0.31992 0.08948 0.0
C1767 C 0.07494 0.31095 0.07459 0.0
N1768 N 0.08518 0.30178 0.03135 0.0
N1769 N 0.04665 0.34184 0.08801 0.0
C1770 C 0.0728 0.30838 0.0457 0.0
C1771 C 0.05296 0.32871 0.07501 0.0
N1772 N 0.05254 0.3075 0.00528 0.0
N1773 N 0.06351 0.31936 0.1175 0.0
H1774 H 0.03868 0.34883 0.07805 0.0
H1775 H 0.05117 0.34751 0.10799 0.0
H1776 H 0.07107 0.31265 0.12893 0.0
H1777 H 0.05386 0.3236 0.12936 0.0
H1778 H 0.05667 0.29738 0.99441 0.0
H1779 H 0.04225 0.3114 0.99455 0.0
H1780 H 0.08604 0.30175 0.01006 0.0
H1781 H 0.09597 0.29786 0.04074 0.0
C1782 C 0.68069 0.72961 0.03918 0.0
C1783 C 0.66413 0.71087 0.05332 0.0
C1784 C 0.67083 0.73228 0.09539 0.0
C1785 C 0.68585 0.75138 0.08062 0.0
N1786 N 0.70664 0.76899 0.03983 0.0
N1787 N 0.64708 0.69263 0.09568 0.0
C1788 C 0.69159 0.75018 0.053 0.0
C1789 C 0.66029 0.71169 0.08173 0.0
N1790 N 0.6858 0.72764 0.01258 0.0
N1791 N 0.66603 0.73413 0.12216 0.0
H1792 H 0.63929 0.67726 0.08625 0.0
H1793 H 0.64497 0.69163 0.11683 0.0
H1794 H 0.67438 0.74879 0.13316 0.0
H1795 H 0.6534 0.72151 0.13341 0.0
H1796 H 0.69886 0.74001 0.00157 0.0
H1797 H 0.67739 0.7131 0.00141 0.0
H1798 H 0.71038 0.77005 0.01906 0.0
H1799 H 0.7154 0.78407 0.04984 0.0
C1800 C 0.2819 0.95496 0.07744 0.0
C1801 C 0.28161 0.95289 0.04851 0.0
C1802 C 0.24122 0.9334 0.04859 0.0
C1803 C 0.24156 0.93299 0.07763 0.0
N1804 N 0.26142 0.9429 0.12024 0.0
N1805 N 0.26206 0.94307 0.00575 0.0
C1806 C 0.26168 0.94402 0.09225 0.0
C1807 C 0.26152 0.94304 0.0338 0.0
N1808 N 0.30153 0.96742 0.09066 0.0
N1809 N 0.22137 0.92432 0.03548 0.0
H1810 H 0.27674 0.95071 0.99447 0.0
H1811 H 0.24825 0.93569 0.9933 0.0
H1812 H 0.20638 0.91779 0.04602 0.0
H1813 H 0.21941 0.92378 0.01438 0.0
H1814 H 0.30281 0.97161 0.1113 0.0
H1815 H 0.31676 0.97496 0.08058 0.0
H1816 H 0.27544 0.94824 0.13212 0.0
H1817 H 0.24691 0.93558 0.13184 0.0
C1818 C 0.31706 0.04363 0.94622 0.0
C1819 C 0.32642 0.04979 0.97284 0.0
C1820 C 0.31839 0.07962 0.97408 0.0
C1821 C 0.31077 0.07457 0.9467 0.0
N1822 N 0.30612 0.0542 0.90495 0.0
N1823 N 0.33822 0.07494 0.01116 0.0
C1824 C 0.31071 0.05706 0.93238 0.0
C1825 C 0.32787 0.06826 0.98643 0.0
N1826 N 0.31469 0.02519 0.93375 0.0
N1827 N 0.31572 0.0947 0.98861 0.0
H1828 H 0.34365 0.06607 0.02218 0.0
H1829 H 0.34257 0.08997 0.02013 0.0
H1830 H 0.30829 0.10291 0.98044 0.0
H1831 H 0.31898 0.09771 0.00943 0.0
H1832 H 0.30458 0.01783 0.91688 0.0
H1833 H 0.32213 0.01665 0.94065 0.0
H1834 H 0.3082 0.04332 0.89266 0.0
H1835 H 0.30203 0.06402 0.89361 0.0
C1836 C 0.94651 0.26302 0.98744 0.0
C1837 C 0.94494 0.28097 0.97746 0.0
C1838 C 0.92811 0.26087 0.9351 0.0
C1839 C 0.9275 0.2422 0.94635 0.0
N1840 N 0.9349 0.22446 0.98314 0.0
N1841 N 0.9333 0.29699 0.9427 0.0
C1842 C 0.9366 0.24304 0.97239 0.0
C1843 C 0.93545 0.2799 0.95153 0.0
N1844 N 0.95739 0.26507 0.01135 0.0
N1845 N 0.92212 0.26045 0.90842 0.0
H1846 H 0.93947 0.31171 0.95339 0.0
H1847 H 0.92421 0.29621 0.92562 0.0
H1848 H 0.91672 0.24672 0.89581 0.0
H1849 H 0.92424 0.27414 0.89794 0.0
H1850 H 0.96162 0.25376 0.01793 0.0
H1851 H 0.96321 0.27868 0.02422 0.0
H1852 H 0.93879 0.22314 0.00327 0.0
H1853 H 0.92847 0.20978 0.97222 0.0
C1854 C 0.73285 0.66488 0.98193 0.0
C1855 C 0.71812 0.67129 0.97181 0.0
C1856 C 0.74636 0.69609 0.93919 0.0
C1857 C 0.75966 0.6873 0.94655 0.0
N1858 N 0.7651 0.66184 0.97295 0.0
N1859 N 0.70932 0.6895 0.93653 0.0
C1860 C 0.75278 0.67124 0.96738 0.0
C1861 C 0.7245 0.68613 0.94945 0.0
N1862 N 0.72833 0.65361 0.00601 0.0
N1863 N 0.75451 0.71381 0.92215 0.0
H1864 H 0.6926 0.68116 0.94157 0.0
H1865 H 0.71277 0.69859 0.91859 0.0
H1866 H 0.77028 0.72117 0.9135 0.0
H1867 H 0.74639 0.72241 0.91867 0.0
H1868 H 0.73945 0.65029 0.01559 0.0
H1869 H 0.7144 0.6495 0.01794 0.0
H1870 H 0.75958 0.64817 0.9855 0.0
H1871 H 0.78032 0.66683 0.96359 0.0
C1872 C 0.92942 0.67179 0.98666 0.0
C1873 C 0.94323 0.66553 0.97305 0.0
C1874 C 0.93931 0.6809 0.93016 0.0
C1875 C 0.92305 0.68422 0.94287 0.0
N1876 N 0.90053 0.68049 0.98242 0.0
N1877 N 0.95943 0.66158 0.93113 0.0
C1878 C 0.91761 0.67917 0.97098 0.0
C1879 C 0.94783 0.66953 0.94461 0.0
N1880 N 0.92813 0.67132 0.01463 0.0
N1881 N 0.94686 0.68896 0.90448 0.0
H1882 H 0.96569 0.65285 0.94084 0.0
H1883 H 0.96121 0.66194 0.90991 0.0
H1884 H 0.94105 0.69752 0.8934 0.0
H1885 H 0.96027 0.689 0.89523 0.0
H1886 H 0.92023 0.67794 0.02581 0.0
H1887 H 0.93675 0.6662 0.02682 0.0
H1888 H 0.89427 0.67467 0.00194 0.0
H1889 H 0.89136 0.68575 0.97167 0.0
C1890 C 0.32523 0.26626 0.98386 0.0
C1891 C 0.32582 0.28375 0.96909 0.0
C1892 C 0.31099 0.26031 0.92841 0.0
C1893 C 0.30959 0.24262 0.94354 0.0
N1894 N 0.31135 0.22716 0.98655 0.0
N1895 N 0.31707 0.29714 0.92848 0.0
C1896 C 0.3156 0.24516 0.97155 0.0
C1897 C 0.31779 0.28059 0.94183 0.0
N1898 N 0.33387 0.2698 0.00963 0.0
N1899 N 0.30724 0.2582 0.90078 0.0
H1900 H 0.32438 0.31315 0.93587 0.0
H1901 H 0.3083 0.2948 0.9105 0.0
H1902 H 0.30253 0.24378 0.88992 0.0
H1903 H 0.3104 0.27118 0.88798 0.0
H1904 H 0.33668 0.25866 0.01996 0.0
H1905 H 0.33938 0.28443 0.02037 0.0
H1906 H 0.31341 0.22739 0.00765 0.0
H1907 H 0.30387 0.21139 0.97826 0.0
C1908 C 0.72251 0.06392 0.95799 0.0
C1909 C 0.7191 0.04599 0.97443 0.0
C1910 C 0.75452 0.05082 0.95952 0.0
C1911 C 0.75787 0.06864 0.94289 0.0
N1912 N 0.74271 0.08823 0.92041 0.0
N1913 N 0.72868 0.01874 0.9855 0.0
C1914 C 0.74113 0.07402 0.94037 0.0
C1915 C 0.734 0.03814 0.97328 0.0
N1916 N 0.70795 0.0713 0.95919 0.0
N1917 N 0.77137 0.04688 0.96363 0.0
H1918 H 0.71425 0.00947 0.99683 0.0
H1919 H 0.73771 0.01095 0.98251 0.0
H1920 H 0.78689 0.05613 0.95457 0.0
H1921 H 0.7706 0.03561 0.97782 0.0
H1922 H 0.7113 0.08623 0.951 0.0
H1923 H 0.69279 0.06299 0.96937 0.0
H1924 H 0.73015 0.09135 0.91591 0.0
H1925 H 0.75576 0.09531 0.90638 0.0
C1926 C 0.67929 0.95312 0.07147 0.0
C1927 C 0.67372 0.9493 0.04324 0.0
C1928 C 0.68114 0.91898 0.04283 0.0
C1929 C 0.68779 0.92372 0.07064 0.0
N1930 N 0.6967 0.94721 0.11029 0.0
N1931 N 0.67051 0.92991 0.00119 0.0
C1932 C 0.6881 0.94149 0.08451 0.0
C1933 C 0.67487 0.93249 0.02865 0.0
N1934 N 0.67459 0.96669 0.08644 0.0
N1935 N 0.68099 0.90163 0.03013 0.0
H1936 H 0.66632 0.93981 0.9902 0.0
H1937 H 0.67203 0.91879 0.98872 0.0
H1938 H 0.68681 0.89236 0.03945 0.0
H1939 H 0.67465 0.89585 0.01074 0.0
H1940 H 0.67612 0.96836 0.10763 0.0
H1941 H 0.66685 0.97461 0.07838 0.0
H1942 H 0.70023 0.96182 0.11986 0.0
H1943 H 0.70191 0.93824 0.12152 0.0
C1944 C 0.06341 0.7384 0.03256 0.0
C1945 C 0.04651 0.72009 0.04691 0.0
C1946 C 0.05535 0.74153 0.08939 0.0
C1947 C 0.07232 0.75984 0.07521 0.0
N1948 N 0.0918 0.7771 0.03347 0.0
N1949 N 0.02969 0.7024 0.0898 0.0
C1950 C 0.07633 0.7586 0.04684 0.0
C1951 C 0.04324 0.7212 0.07551 0.0
N1952 N 0.06705 0.73638 0.0054 0.0
N1953 N 0.05069 0.74361 0.11615 0.0
H1954 H 0.02146 0.68688 0.08081 0.0
H1955 H 0.02823 0.70164 0.11104 0.0
H1956 H 0.06027 0.75759 0.12793 0.0
H1957 H 0.03649 0.732 0.12635 0.0
H1958 H 0.08031 0.74819 0.99407 0.0
H1959 H 0.05705 0.72231 0.99397 0.0
H1960 H 0.09491 0.7781 0.01253 0.0
H1961 H 0.10109 0.79223 0.04321 0.0
C1962 C 0.26679 0.33449 0.03711 0.0
C1963 C 0.2855 0.33709 0.05117 0.0
C1964 C 0.26187 0.31431 0.08876 0.0
C1965 C 0.24387 0.31474 0.07675 0.0
N1966 N 0.22879 0.32571 0.04016 0.0
N1967 N 0.30155 0.33044 0.0907 0.0
C1968 C 0.24612 0.32473 0.05092 0.0
C1969 C 0.28322 0.32701 0.07695 0.0
N1970 N 0.26872 0.34085 0.01035 0.0
N1971 N 0.25839 0.30161 0.11133 0.0
H1972 H 0.31748 0.33961 0.08266 0.0
H1973 H 0.30123 0.32556 0.11084 0.0
H1974 H 0.24285 0.29213 0.12036 0.0
H1975 H 0.27035 0.29888 0.11964 0.0
H1976 H 0.25527 0.33728 0.99809 0.0
H1977 H 0.28364 0.34804 -0.00041 0.0
H1978 H 0.23018 0.33506 0.02308 0.0
H1979 H 0.21319 0.3182 0.04927 0.0
C1980 C 0.70886 0.657 0.4123 0.0
C1981 C 0.71045 0.66034 0.38354 0.0
C1982 C 0.73912 0.65054 0.38059 0.0
C1983 C 0.73655 0.64598 0.40909 0.0
N1984 N 0.71586 0.64021 0.45095 0.0
N1985 N 0.72381 0.65649 0.33945 0.0
C1986 C 0.72041 0.64776 0.4246 0.0
C1987 C 0.72465 0.65601 0.36738 0.0
N1988 N 0.69713 0.66362 0.42807 0.0
N1989 N 0.75589 0.65043 0.36637 0.0
H1990 H 0.71345 0.66052 0.32916 0.0
H1991 H 0.73198 0.65117 0.32649 0.0
H1992 H 0.76666 0.64627 0.37527 0.0
H1993 H 0.76013 0.65596 0.3463 0.0
H1994 H 0.69742 0.66386 0.44939 0.0
H1995 H 0.68866 0.6708 0.41998 0.0
H1996 H 0.70272 0.63899 0.46236 0.0
H1997 H 0.72395 0.63321 0.46061 0.0
C1998 C 0.34706 0.0654 0.37273 0.0
C1999 C 0.33071 0.04693 0.38749 0.0
C2000 C 0.33772 0.06925 0.42877 0.0
C2001 C 0.35338 0.08788 0.41378 0.0
N2002 N 0.37625 0.1038 0.3739 0.0
N2003 N 0.31484 0.02966 0.43081 0.0
C2004 C 0.35924 0.08591 0.3865 0.0
C2005 C 0.32735 0.04837 0.41594 0.0
N2006 N 0.3502 0.06346 0.34537 0.0
N2007 N 0.33219 0.07171 0.45495 0.0
H2008 H 0.30732 0.014 0.42216 0.0
H2009 H 0.3135 0.02937 0.45206 0.0
H2010 H 0.34028 0.08657 0.46557 0.0
H2011 H 0.31888 0.05937 0.46575 0.0
H2012 H 0.36076 0.07646 0.33279 0.0
H2013 H 0.3414 0.04878 0.33457 0.0
H2014 H 0.38252 0.10352 0.35464 0.0
H2015 H 0.38525 0.11899 0.38361 0.0
C2016 C 0.95313 0.27995 0.41563 0.0
C2017 C 0.9549 0.28686 0.38804 0.0
C2018 C 0.9157 0.27579 0.38802 0.0
C2019 C 0.9135 0.2665 0.41433 0.0
N2020 N 0.92931 0.25982 0.45398 0.0
N2021 N 0.93935 0.29449 0.34876 0.0
C2022 C 0.93208 0.26891 0.42853 0.0
C2023 C 0.93665 0.28598 0.37455 0.0
N2024 N 0.97177 0.28471 0.4297 0.0
N2025 N 0.89743 0.27385 0.37562 0.0
H2026 H 0.95405 0.30089 0.33768 0.0
H2027 H 0.92735 0.29573 0.3381 0.0
H2028 H 0.88208 0.26689 0.38535 0.0
H2029 H 0.89707 0.27897 0.35586 0.0
H2030 H 0.97208 0.28202 0.45056 0.0
H2031 H 0.98751 0.29313 0.42097 0.0
H2032 H 0.94142 0.25836 0.46413 0.0
H2033 H 0.91439 0.25281 0.46474 0.0
C2034 C -0.00181 0.37937 0.27441 0.0
C2035 C 0.0076 0.38449 0.30105 0.0
C2036 C 0.0095 0.42005 0.29971 0.0
C2037 C 0.00213 0.41574 0.27221 0.0
N2038 N 0.99181 0.39275 0.23197 0.0
N2039 N 0.02296 0.4098 0.33904 0.0
C2040 C -0.0032 0.39567 0.25928 0.0
C2041 C 0.01353 0.4049 0.31366 0.0
N2042 N 0.99096 0.35909 0.26319 0.0
N2043 N 0.0118 0.43826 0.31276 0.0
H2044 H 0.02393 0.39837 0.35137 0.0
H2045 H 0.03063 0.42544 0.3476 0.0
H2046 H 0.00871 0.44955 0.30325 0.0
H2047 H 0.01503 0.44139 0.33356 0.0
H2048 H 0.98077 0.35325 0.24613 0.0
H2049 H 0.99419 0.34751 0.27141 0.0
H2050 H 0.99029 0.37964 0.22046 0.0
H2051 H 0.99086 0.40435 0.21996 0.0
C2052 C 0.61204 0.60153 0.31692 0.0
C2053 C 0.61454 0.62018 0.30286 0.0
C2054 C 0.59735 0.59799 0.26196 0.0
C2055 C 0.59448 0.57931 0.27613 0.0
N2056 N 0.6028 0.56349 0.31427 0.0
N2057 N 0.61542 0.63761 0.2602 0.0
C2058 C 0.60319 0.5812 0.3027 0.0
C2059 C 0.60891 0.61884 0.2748 0.0
N2060 N 0.61701 0.60298 0.34416 0.0
N2061 N 0.58847 0.59566 0.23648 0.0
H2062 H 0.62449 0.65326 0.26872 0.0
H2063 H 0.61373 0.63789 0.23907 0.0
H2064 H 0.58104 0.58087 0.22569 0.0
H2065 H 0.58741 0.60805 0.22658 0.0
H2066 H 0.61371 0.58961 0.35626 0.0
H2067 H 0.62317 0.61745 0.35544 0.0
H2068 H 0.6107 0.56415 0.33245 0.0
H2069 H 0.59594 0.54828 0.30451 0.0
C2070 C 0.38493 0.97752 0.31573 0.0
C2071 C 0.37645 0.9913 0.30898 0.0
C2072 C 0.40448 0.00841 0.2732 0.0
C2073 C 0.41456 0.99661 0.28222 0.0
N2074 N 0.41788 0.97517 0.31815 0.0
N2075 N 0.38384 0.02528 0.28788 0.0
C2076 C 0.40597 0.98289 0.30554 0.0
C2077 C 0.388 0.0085 0.2898 0.0
N2078 N 0.37259 0.95855 0.3301 0.0
N2079 N 0.40955 0.01851 0.24825 0.0
H2080 H 0.37323 0.02705 0.30129 0.0
H2081 H 0.39315 0.03887 0.27536 0.0
H2082 H 0.42019 0.01742 0.23422 0.0
H2083 H 0.40109 0.02575 0.2403 0.0
H2084 H 0.37776 0.94732 0.33323 0.0
H2085 H 0.35624 0.95258 0.33585 0.0
H2086 H 0.41282 0.96645 0.33648 0.0
H2087 H 0.43385 0.97963 0.31199 0.0
C2088 C 0.61758 0.99036 0.27502 0.0
C2089 C 0.61245 0.98323 0.30255 0.0
C2090 C 0.58279 0.99159 0.30321 0.0
C2091 C 0.58538 0.9949 0.27451 0.0
N2092 N 0.60454 0.99682 0.23237 0.0
N2093 N 0.59089 0.97734 0.34364 0.0
C2094 C 0.60286 0.99455 0.26023 0.0
C2095 C 0.59537 0.98412 0.31698 0.0
N2096 N 0.63637 0.99291 0.26303 0.0
N2097 N 0.56847 0.99588 0.31719 0.0
H2098 H 0.60062 0.973 0.35486 0.0
H2099 H 0.577 0.97501 0.35432 0.0
H2100 H 0.55925 0.00165 0.30756 0.0
H2101 H 0.56712 0.99564 0.33844 0.0
H2102 H 0.64224 0.00026 0.24403 0.0
H2103 H 0.64715 0.98932 0.27308 0.0
H2104 H 0.61534 0.99422 0.22046 0.0
H2105 H 0.59409 -9e-05 0.22071 0.0
C2106 C 0.00016 0.62026 0.27355 0.0
C2107 C 0.0047 0.62273 0.30207 0.0
C2108 C 0.00178 0.58677 0.30333 0.0
C2109 C -0.0006 0.58535 0.27446 0.0
N2110 N -0.00034 0.60192 0.23131 0.0
N2111 N 0.01145 0.60944 0.34413 0.0
C2112 C -0.00075 0.60229 0.25935 0.0
C2113 C 0.00605 0.60632 0.31698 0.0
N2114 N -0.00292 0.63525 0.25982 0.0
N2115 N -0.00081 0.5691 0.31773 0.0
H2116 H 0.01299 0.62269 0.35542 0.0
H2117 H 0.01554 0.59953 0.35522 0.0
H2118 H 0.99579 0.55443 0.30837 0.0
H2119 H -0.00143 0.5682 0.33901 0.0
H2120 H 0.9905 0.63255 0.2402 0.0
H2121 H -0.00011 0.64995 0.26837 0.0
H2122 H 0.00216 0.61499 0.21912 0.0
H2123 H -0.00057 0.58929 0.21995 0.0
C2124 C 0.39916 0.39696 0.32043 0.0
C2125 C 0.37953 0.38388 0.30554 0.0
C2126 C 0.40037 0.39208 0.26257 0.0
C2127 C 0.42004 0.40527 0.27743 0.0
N2128 N 0.4392 0.4164 0.32044 0.0
N2129 N 0.36149 0.36443 0.26418 0.0
C2130 C 0.41975 0.40646 0.30643 0.0
C2131 C 0.38017 0.37995 0.27712 0.0
N2132 N 0.39803 0.40071 0.34775 0.0
N2133 N 0.40086 0.39198 0.23455 0.0
H2134 H 0.34633 0.35543 0.2742 0.0
H2135 H 0.36137 0.35913 0.2442 0.0
H2136 H 0.4154 0.40037 0.22312 0.0
H2137 H 0.38676 0.38476 0.22249 0.0
H2138 H 0.41149 0.41199 0.35921 0.0
H2139 H 0.38322 0.39336 0.35878 0.0
H2140 H 0.44022 0.41615 0.34167 0.0
H2141 H 0.45453 0.42335 0.31064 0.0
C2142 C 0.33948 0.28391 0.40953 0.0
C2143 C 0.33946 0.28495 0.38051 0.0
C2144 C 0.35684 0.26263 0.37705 0.0
C2145 C 0.35539 0.2603 0.40596 0.0
N2146 N 0.34235 0.2656 0.44962 0.0
N2147 N 0.34574 0.27388 0.33622 0.0
C2148 C 0.34598 0.27016 0.42222 0.0
C2149 C 0.34742 0.27384 0.3641 0.0
N2150 N 0.3335 0.29626 0.42498 0.0
N2151 N 0.36775 0.25459 0.36216 0.0
H2152 H 0.33949 0.28248 0.32615 0.0
H2153 H 0.34913 0.26431 0.32311 0.0
H2154 H 0.37482 0.24631 0.37109 0.0
H2155 H 0.37127 0.25747 0.34135 0.0
H2156 H 0.33585 0.2984 0.44605 0.0
H2157 H 0.32745 0.30564 0.41659 0.0
H2158 H 0.33319 0.27015 0.46194 0.0
H2159 H 0.34701 0.25574 0.45984 0.0
C2160 C 0.72809 0.06717 0.3659 0.0
C2161 C 0.71116 0.04957 0.38116 0.0
C2162 C 0.72081 0.073 0.42201 0.0
C2163 C 0.73706 0.09086 0.40641 0.0
N2164 N 0.75377 0.10638 0.36275 0.0
N2165 N 0.68928 0.03609 0.42263 0.0
C2166 C 0.74003 0.08834 0.3781 0.0
C2167 C 0.70673 0.05268 0.40879 0.0
N2168 N 0.73282 0.06363 0.33979 0.0
N2169 N 0.71976 0.07503 0.44982 0.0
H2170 H 0.67986 0.02019 0.41504 0.0
H2171 H 0.6833 0.03835 0.4412 0.0
H2172 H 0.72994 0.08948 0.46049 0.0
H2173 H 0.71006 0.06195 0.46281 0.0
H2174 H 0.74671 0.07495 0.32883 0.0
H2175 H 0.72345 0.04881 0.32943 0.0
H2176 H 0.75518 0.10613 0.34153 0.0
H2177 H 0.76248 0.12217 0.37097 0.0
C2178 C 0.94872 0.66388 0.41481 0.0
C2179 C 0.95027 0.66551 0.38588 0.0
C2180 C 0.91005 0.64535 0.38208 0.0
C2181 C 0.90848 0.64439 0.41108 0.0
N2182 N 0.92531 0.6472 0.45474 0.0
N2183 N 0.93326 0.65316 0.34172 0.0
C2184 C 0.92757 0.65183 0.42735 0.0
C2185 C 0.93116 0.65459 0.36941 0.0
N2186 N 0.96743 0.67444 0.43023 0.0
N2187 N 0.89151 0.6386 0.36677 0.0
H2188 H 0.94854 0.66014 0.3318 0.0
H2189 H 0.92003 0.64356 0.32888 0.0
H2190 H 0.87572 0.63132 0.37531 0.0
H2191 H 0.89182 0.6413 0.3458 0.0
H2192 H 0.96735 0.67607 0.45143 0.0
H2193 H 0.98323 0.68257 0.42162 0.0
H2194 H 0.93841 0.65048 0.46748 0.0
H2195 H 0.90992 0.63824 0.46432 0.0
C2196 C 0.37806 0.9905 0.73133 0.0
C2197 C 0.38457 0.01053 0.71756 0.0
C2198 C 0.42321 0.02277 0.7272 0.0
C2199 C 0.41626 0.00445 0.74458 0.0
N2200 N 0.38663 0.97286 0.76733 0.0
N2201 N 0.41348 0.04772 0.70722 0.0
C2202 C 0.39354 0.98886 0.74789 0.0
C2203 C 0.40722 0.02722 0.71661 0.0
N2204 N 0.35748 0.97264 0.72758 0.0
N2205 N 0.44501 0.03572 0.72048 0.0
H2206 H 0.40233 0.05236 0.70102 0.0
H2207 H 0.42961 0.06088 0.70852 0.0
H2208 H 0.45719 0.03285 0.72776 0.0
H2209 H 0.45063 0.04792 0.70561 0.0
H2210 H 0.35272 0.9572 0.73542 0.0
H2211 H 0.3461 0.97249 0.71394 0.0
H2212 H 0.37005 0.96255 0.77241 0.0
H2213 H 0.39745 0.97123 0.78019 0.0
C2214 C 0.98375 0.37137 0.74627 0.0
C2215 C 0.98846 0.37277 0.71786 0.0
C2216 C 0.00761 0.41282 0.71961 0.0
C2217 C 0.00066 0.41127 0.74728 0.0
N2218 N 0.98305 0.39005 0.78782 0.0
N2219 N 0.00863 0.39385 0.67836 0.0
C2220 C 0.98936 0.39082 0.76105 0.0
C2221 C 0.00174 0.39326 0.70481 0.0
N2222 N 0.9743 0.35142 0.75901 0.0
N2223 N 0.01878 0.43293 0.70731 0.0
H2224 H 0.00426 0.37973 0.66696 0.0
H2225 H 0.01967 0.40811 0.66801 0.0
H2226 H 0.02394 0.44754 0.718 0.0
H2227 H 0.02254 0.43539 0.68653 0.0
H2228 H 0.97197 0.34923 0.78007 0.0
H2229 H 0.97019 0.33693 0.7486 0.0
H2230 H 0.97257 0.37566 0.79833 0.0
H2231 H 0.98774 0.40409 0.79956 0.0
C2232 C 0.61866 0.62184 0.74836 0.0
C2233 C 0.61929 0.61875 0.71973 0.0
C2234 C 0.57895 0.59794 0.71825 0.0
C2235 C 0.57845 0.59812 0.74729 0.0
N2236 N 0.59737 0.60957 0.79055 0.0
N2237 N 0.60072 0.60439 0.6768 0.0
C2238 C 0.59816 0.61018 0.76255 0.0
C2239 C 0.5996 0.60713 0.70442 0.0
N2240 N 0.63764 0.63602 0.76185 0.0
N2241 N 0.55961 0.58914 0.70408 0.0
H2242 H 0.61557 0.61163 0.66587 0.0
H2243 H 0.58714 0.59409 0.66483 0.0
H2244 H 0.54427 0.58246 0.71379 0.0
H2245 H 0.55873 0.59004 0.68291 0.0
H2246 H 0.63803 0.64076 0.78216 0.0
H2247 H 0.65298 0.64451 0.75206 0.0
H2248 H 0.61129 0.6159 0.80286 0.0
H2249 H 0.58264 0.60158 0.80168 0.0
C2250 C 0.65892 0.71127 0.60468 0.0
C2251 C 0.661 0.71188 0.63364 0.0
C2252 C 0.64737 0.73753 0.63733 0.0
C2253 C 0.64562 0.73717 0.60836 0.0
N2254 N 0.64715 0.72232 0.56431 0.0
N2255 N 0.65858 0.72596 0.67782 0.0
C2256 C 0.65056 0.72355 0.592 0.0
C2257 C 0.65561 0.72514 0.65007 0.0
N2258 N 0.66634 0.70008 0.58924 0.0
N2259 N 0.64019 0.74902 0.65258 0.0
H2260 H 0.66316 0.71604 0.68804 0.0
H2261 H 0.65737 0.73695 0.69089 0.0
H2262 H 0.63368 0.75789 0.64387 0.0
H2263 H 0.63927 0.74884 0.67384 0.0
H2264 H 0.66746 0.70059 0.56798 0.0
H2265 H 0.67303 0.69128 0.59768 0.0
H2266 H 0.64758 0.71072 0.55157 0.0
H2267 H 0.64269 0.73225 0.5539 0.0
C2268 C 0.2784 0.94922 0.60703 0.0
C2269 C 0.28416 0.95099 0.63505 0.0
C2270 C 0.2728 0.91205 0.63628 0.0
C2271 C 0.26426 0.90981 0.60951 0.0
N2272 N 0.25874 0.92543 0.56878 0.0
N2273 N 0.28992 0.93563 0.6759 0.0
C2274 C 0.26732 0.92824 0.59453 0.0
C2275 C 0.28257 0.93289 0.64949 0.0
N2276 N 0.28422 0.96776 0.59224 0.0
N2277 N 0.27069 0.89398 0.64916 0.0
H2278 H 0.29648 0.95048 0.68641 0.0
H2279 H 0.28976 0.92346 0.68778 0.0
H2280 H 0.26387 0.87868 0.63963 0.0
H2281 H 0.27593 0.89382 0.66893 0.0
H2282 H 0.28241 0.9679 0.57114 0.0
H2283 H 0.29277 0.98348 0.60069 0.0
H2284 H 0.25773 0.93755 0.55812 0.0
H2285 H 0.25159 0.91048 0.55834 0.0
C2286 C 0.05408 0.34349 0.60642 0.0
C2287 C 0.05073 0.3376 0.63456 0.0
C2288 C 0.08895 0.34592 0.63789 0.0
C2289 C 0.0926 0.35317 0.6103 0.0
N2290 N 0.08039 0.36362 0.57026 0.0
N2291 N 0.06603 0.33753 0.67855 0.0
C2292 C 0.07569 0.35348 0.5952 0.0
C2293 C 0.06847 0.34003 0.65076 0.0
N2294 N 0.03648 0.33842 0.58998 0.0
N2295 N 0.10473 0.34396 0.65148 0.0
H2296 H 0.0514 0.3336 0.68876 0.0
H2297 H 0.07905 0.34132 0.69171 0.0
H2298 H 0.12006 0.34843 0.64286 0.0
H2299 H 0.10205 0.33642 0.6705 0.0
H2300 H 0.03776 0.34027 0.56878 0.0
H2301 H 0.0202 0.33028 0.597 0.0
H2302 H 0.06929 0.36637 0.5596 0.0
H2303 H 0.0961 0.37116 0.56139 0.0
C2304 C 0.28059 0.32909 0.60388 0.0
C2305 C 0.28372 0.33159 0.6326 0.0
C2306 C 0.26529 0.35294 0.63482 0.0
C2307 C 0.26247 0.3508 0.60597 0.0
N2308 N 0.2725 0.3421 0.56232 0.0
N2309 N 0.28428 0.35022 0.67439 0.0
C2310 C 0.27172 0.34048 0.59025 0.0
C2311 C 0.2779 0.34507 0.64771 0.0
N2312 N 0.28578 0.31557 0.58973 0.0
N2313 N 0.25481 0.36121 0.65014 0.0
H2314 H 0.29288 0.34413 0.68482 0.0
H2315 H 0.2827 0.36198 0.68545 0.0
H2316 H 0.24501 0.36674 0.64167 0.0
H2317 H 0.25431 0.36091 0.67146 0.0
H2318 H 0.2814 0.31099 0.56941 0.0
H2319 H 0.29339 0.30785 0.59878 0.0
H2320 H 0.28079 0.33665 0.54979 0.0
H2321 H 0.26665 0.35085 0.55174 0.0
C2322 C 0.6569 0.93181 0.64998 0.0
C2323 C 0.65922 0.94978 0.63453 0.0
C2324 C 0.64677 0.92686 0.59309 0.0
C2325 C 0.64372 0.90872 0.60877 0.0
N2326 N 0.64175 0.89247 0.65264 0.0
N2327 N 0.65377 0.96405 0.59235 0.0
C2328 C 0.64762 0.9108 0.6374 0.0
C2329 C 0.65313 0.94711 0.60645 0.0
N2330 N 0.66367 0.93487 0.67663 0.0
N2331 N 0.64493 0.92514 0.56517 0.0
H2332 H 0.66046 0.97987 0.60019 0.0
H2333 H 0.64657 0.9622 0.57324 0.0
H2334 H 0.64046 0.91071 0.55446 0.0
H2335 H 0.64943 0.93839 0.55222 0.0
H2336 H 0.66509 0.92326 0.68795 0.0
H2337 H 0.66907 0.94957 0.68718 0.0
H2338 H 0.64215 0.89238 0.67393 0.0
H2339 H 0.63461 0.8768 0.64409 0.0
C2340 C 0.05114 0.70654 0.61882 0.0
C2341 C 0.04716 0.71538 0.6429 0.0
C2342 C 0.08629 0.74339 0.64518 0.0
C2343 C 0.08938 0.73697 0.61872 0.0
N2344 N 0.07445 0.71348 0.579 0.0
N2345 N 0.0605 0.74213 0.67938 0.0
C2346 C 0.07186 0.71855 0.60534 0.0
C2347 C 0.06465 0.73375 0.65629 0.0
N2348 N 0.03503 0.68688 0.60854 0.0
N2349 N 0.10417 0.75846 0.65976 0.0
H2350 H 0.04512 0.7347 0.68909 0.0
H2351 H 0.07195 0.75706 0.68814 0.0
H2352 H 0.12028 0.76542 0.65226 0.0
H2353 H 0.10334 0.76252 0.68009 0.0
H2354 H 0.03796 0.67835 0.59321 0.0
H2355 H 0.0191 0.67817 0.61662 0.0
H2356 H 0.0615 0.70187 0.56713 0.0
H2357 H 0.08918 0.72199 0.56801 0.0
C2358 C 0.01459 0.61559 0.71891 0.0
C2359 C 0.99362 0.60953 0.70771 0.0
C2360 C 0.9831 0.57114 0.71134 0.0
C2361 C 0.00043 0.57711 0.73006 0.0
N2362 N 0.03941 0.60279 0.73073 0.0
N2363 N 0.95709 0.58039 0.69418 0.0
C2364 C 0.01843 0.59888 0.7282 0.0
C2365 C 0.97774 0.58699 0.70367 0.0
N2366 N 0.03088 0.63712 0.72053 0.0
N2367 N 0.97388 0.55146 0.69811 0.0
H2368 H 0.95148 0.59112 0.69008 0.0
H2369 H 0.9448 0.56387 0.6932 0.0
H2370 H 0.98005 0.54092 0.70051 0.0
H2371 H 0.96243 0.5472 0.68242 0.0
H2372 H 0.04511 0.64241 0.73204 0.0
H2373 H 0.02998 0.64974 0.71099 0.0
H2374 H 0.05347 0.61801 0.72723 0.0
H2375 H 0.04252 0.58993 0.7326 0.0
C2376 C 0.37968 0.40041 0.70997 0.0
C2377 C 0.38132 0.38188 0.71717 0.0
C2378 C 0.40709 0.40298 0.7539 0.0
C2379 C 0.40678 0.42193 0.74534 0.0
N2380 N 0.39548 0.43981 0.71298 0.0
N2381 N 0.39841 0.36592 0.74354 0.0
C2382 C 0.39374 0.42095 0.72281 0.0
C2383 C 0.3957 0.38334 0.73828 0.0
N2384 N 0.36463 0.39835 0.69091 0.0
N2385 N 0.41743 0.40351 0.77772 0.0
H2386 H 0.38947 0.35081 0.73368 0.0
H2387 H 0.4106 0.36685 0.75633 0.0
H2388 H 0.42558 0.41748 0.79001 0.0
H2389 H 0.41633 0.3897 0.78667 0.0
H2390 H 0.36052 0.41032 0.68748 0.0
H2391 H 0.35527 0.38414 0.67939 0.0
H2392 H 0.38829 0.4406 0.69483 0.0
H2393 H 0.4056 0.45516 0.72182 0.0
C2394 C 0.61142 0.02264 0.70362 0.0
C2395 C 0.6263 0.01655 0.71393 0.0
C2396 C 0.59962 0.99476 0.74977 0.0
C2397 C 0.58677 0.00408 0.74231 0.0
N2398 N 0.58053 0.02771 0.71314 0.0
N2399 N 0.63548 0.99788 0.74796 0.0
C2400 C 0.59262 0.01816 0.7194 0.0
C2401 C 0.62054 0.00258 0.73707 0.0
N2402 N 0.61489 0.03201 0.67828 0.0
N2403 N 0.59182 0.9785 0.76897 0.0
H2404 H 0.65119 0.00366 0.73976 0.0
H2405 H 0.63301 0.98969 0.76646 0.0
H2406 H 0.57676 0.9728 0.7791 0.0
H2407 H 0.59929 0.96939 0.77312 0.0
H2408 H 0.60352 0.03492 0.6686 0.0
H2409 H 0.62808 0.03474 0.66564 0.0
H2410 H 0.58561 0.04023 0.69882 0.0
H2411 H 0.56607 0.02414 0.72354 0.0
loop_
_geom_bond_atom_site_label_1
_geom_bond_atom_site_label_2
_geom_bond_distance
_geom_bond_site_symmetry_2
_ccdc_geom_bond_type
C0 O1 1.306 1_556 S
C0 O3 1.160 . S
O1 C0 1.306 1_554 S
O1 Cd2 2.228 . S
Cd2 O1 2.228 . S
Cd2 O6 2.273 . S
Cd2 O10 2.277 1_554 S
O3 C0 1.160 . S
O3 Cd4 2.203 1_656 S
Cd4 O3 2.203 1_454 S
Cd4 O6 2.411 1_455 S
Cd4 O7 2.333 . S
Cd4 O8 2.352 . S
Cd4 O12 2.277 1_554 S
Cd4 O13 2.356 . S
C5 O10 1.209 1_455 S
C5 O12 1.226 . S
O6 Cd2 2.273 . S
O6 Cd4 2.411 1_655 S
O6 C9 1.326 . S
O7 Cd4 2.333 . S
O7 C9 1.200 1_455 S
O8 Cd4 2.352 . S
O8 C11 1.258 . S
C9 O6 1.326 . S
C9 O7 1.200 1_655 S
O10 Cd2 2.277 1_556 S
O10 C5 1.209 1_655 S
C11 O8 1.258 . S
C11 O13 1.282 . S
O12 Cd4 2.277 1_556 S
O12 C5 1.226 . S
O13 Cd4 2.356 . S
O13 C11 1.282 . S
C14 O15 1.306 . S
C14 O17 1.160 . S
O15 C14 1.306 . S
O15 Cd16 2.228 . S
Cd16 O15 2.228 . S
Cd16 O20 2.273 1_554 S
Cd16 O24 2.277 . S
O17 C14 1.160 . S
O17 Cd18 2.203 . S
Cd18 O17 2.203 . S
Cd18 O20 2.411 1_554 S
Cd18 O21 2.333 1_554 S
Cd18 O22 2.352 1_554 S
Cd18 O26 2.277 . S
Cd18 O27 2.356 . S
C19 O24 1.209 . S
C19 O26 1.226 . S
O20 Cd16 2.273 1_556 S
O20 Cd18 2.411 1_556 S
O20 C23 1.320 . S
O21 Cd18 2.333 1_556 S
O21 C23 1.214 . S
O22 Cd18 2.352 1_556 S
O22 C25 1.258 . S
C23 O20 1.320 . S
C23 O21 1.214 . S
O24 Cd16 2.277 . S
O24 C19 1.209 . S
C25 O22 1.258 . S
C25 O27 1.282 1_556 S
O26 Cd18 2.277 . S
O26 C19 1.226 . S
O27 Cd18 2.356 . S
O27 C25 1.282 1_554 S
C28 O29 1.306 . S
C28 O31 1.160 . S
O29 C28 1.306 . S
O29 Cd30 2.228 . S
Cd30 O29 2.228 . S
Cd30 O34 2.273 1_554 S
Cd30 O38 2.277 . S
O31 C28 1.160 . S
O31 Cd32 2.203 1_565 S
Cd32 O31 2.203 1_545 S
Cd32 O34 2.411 1_544 S
Cd32 O35 2.333 1_554 S
Cd32 O36 2.352 1_554 S
Cd32 O40 2.277 . S
Cd32 O41 2.356 . S
C33 O38 1.209 1_545 S
C33 O40 1.226 . S
O34 Cd30 2.273 1_556 S
O34 Cd32 2.411 1_566 S
O34 C37 1.303 1_565 S
O35 Cd32 2.333 1_556 S
O35 C37 1.258 . S
O36 Cd32 2.352 1_556 S
O36 C39 1.258 . S
C37 O34 1.303 1_545 S
C37 O35 1.258 . S
O38 Cd30 2.277 . S
O38 C33 1.209 1_565 S
C39 O36 1.258 . S
C39 O41 1.282 1_556 S
O40 Cd32 2.277 . S
O40 C33 1.226 . S
O41 Cd32 2.356 . S
O41 C39 1.282 1_554 S
C42 O43 1.306 . S
C42 O45 1.160 . S
O43 C42 1.306 . S
O43 Cd44 2.228 1_556 S
Cd44 O43 2.228 1_554 S
Cd44 O48 2.273 . S
Cd44 O52 2.277 1_554 S
O45 C42 1.160 . S
O45 Cd46 2.203 1_656 S
Cd46 O45 2.203 1_454 S
Cd46 O48 2.411 1_455 S
Cd46 O49 2.333 . S
Cd46 O50 2.352 . S
Cd46 O54 2.277 1_554 S
Cd46 O55 2.356 . S
C47 O52 1.209 1_455 S
C47 O54 1.226 . S
O48 Cd44 2.273 . S
O48 Cd46 2.411 1_655 S
O48 C51 1.320 . S
O49 Cd46 2.333 . S
O49 C51 1.214 1_455 S
O50 Cd46 2.352 . S
O50 C53 1.258 . S
C51 O48 1.320 . S
C51 O49 1.214 1_655 S
O52 Cd44 2.277 1_556 S
O52 C47 1.209 1_655 S
C53 O50 1.258 . S
C53 O55 1.282 . S
O54 Cd46 2.277 1_556 S
O54 C47 1.226 . S
O55 Cd46 2.356 . S
O55 C53 1.282 . S
C56 O57 1.306 . S
C56 O59 1.160 . S
O57 C56 1.306 . S
O57 Cd58 2.228 . S
Cd58 O57 2.228 . S
Cd58 O62 2.273 1_554 S
Cd58 O66 2.277 . S
O59 C56 1.160 . S
O59 Cd60 2.203 . S
Cd60 O59 2.203 . S
Cd60 O62 2.411 1_554 S
Cd60 O63 2.333 1_554 S
Cd60 O64 2.352 1_554 S
Cd60 O68 2.277 . S
Cd60 O69 2.356 1_554 S
C61 O66 1.209 . S
C61 O68 1.226 . S
O62 Cd58 2.273 1_556 S
O62 Cd60 2.411 1_556 S
O62 C65 1.320 . S
O63 Cd60 2.333 1_556 S
O63 C65 1.214 . S
O64 Cd60 2.352 1_556 S
O64 C67 1.258 . S
C65 O62 1.320 . S
C65 O63 1.214 . S
O66 Cd58 2.277 . S
O66 C61 1.209 . S
C67 O64 1.258 . S
C67 O69 1.282 . S
O68 Cd60 2.277 . S
O68 C61 1.226 . S
O69 Cd60 2.356 1_556 S
O69 C67 1.282 . S
C70 O71 1.316 . S
C70 O73 1.160 . S
O71 C70 1.316 . S
O71 Cd72 2.223 1_556 S
Cd72 O71 2.223 1_554 S
Cd72 O76 2.273 . S
Cd72 O80 2.277 1_554 S
O73 C70 1.160 . S
O73 Cd74 2.203 1_546 S
Cd74 O73 2.203 1_564 S
Cd74 O76 2.411 1_565 S
Cd74 O77 2.333 . S
Cd74 O78 2.352 . S
Cd74 O82 2.277 1_554 S
Cd74 O83 2.356 . S
C75 O80 1.209 1_565 S
C75 O82 1.226 . S
O76 Cd72 2.273 . S
O76 Cd74 2.411 1_545 S
O76 C79 1.320 . S
O77 Cd74 2.333 . S
O77 C79 1.214 1_565 S
O78 Cd74 2.352 . S
O78 C81 1.258 . S
C79 O76 1.320 . S
C79 O77 1.214 1_545 S
O80 Cd72 2.277 1_556 S
O80 C75 1.209 1_545 S
C81 O78 1.258 . S
C81 O83 1.282 . S
O82 Cd74 2.277 1_556 S
O82 C75 1.226 . S
O83 Cd74 2.356 . S
O83 C81 1.282 . S
C84 O85 1.306 . S
C84 O87 1.160 . S
O85 C84 1.306 . S
O85 Cd86 2.228 . S
Cd86 O85 2.228 . S
Cd86 O90 2.273 . S
Cd86 O94 2.277 . S
O87 C84 1.160 . S
O87 Cd88 2.203 . S
Cd88 O87 2.203 . S
Cd88 O90 2.411 . S
Cd88 O91 2.333 . S
Cd88 O92 2.352 . S
Cd88 O96 2.277 . S
Cd88 O97 2.356 . S
C89 O94 1.209 . S
C89 O96 1.226 . S
O90 Cd86 2.273 . S
O90 Cd88 2.411 . S
O90 C93 1.320 . S
O91 Cd88 2.333 . S
O91 C93 1.214 . S
O92 Cd88 2.352 . S
O92 C95 1.258 . S
C93 O90 1.320 . S
C93 O91 1.214 . S
O94 Cd86 2.277 . S
O94 C89 1.209 . S
C95 O92 1.258 . S
C95 O97 1.282 . S
O96 Cd88 2.277 . S
O96 C89 1.226 . S
O97 Cd88 2.356 . S
O97 C95 1.282 . S
C98 O99 1.306 . S
C98 O101 1.160 . S
O99 C98 1.306 . S
O99 Cd100 2.228 1_545 S
Cd100 O99 2.228 1_565 S
Cd100 O104 2.273 . S
Cd100 O108 2.277 . S
O101 C98 1.160 . S
O101 Cd102 2.203 1_545 S
Cd102 O101 2.203 1_565 S
Cd102 O104 2.411 . S
Cd102 O105 2.333 . S
Cd102 O106 2.352 1_565 S
Cd102 O110 2.277 . S
Cd102 O111 2.356 . S
C103 O108 1.209 . S
C103 O110 1.226 . S
O104 Cd100 2.273 . S
O104 Cd102 2.411 . S
O104 C107 1.320 . S
O105 Cd102 2.333 . S
O105 C107 1.214 . S
O106 Cd102 2.352 1_545 S
O106 C109 1.258 1_545 S
C107 O104 1.320 . S
C107 O105 1.214 . S
O108 Cd100 2.277 . S
O108 C103 1.209 . S
C109 O106 1.258 1_565 S
C109 O111 1.282 . S
O110 Cd102 2.277 . S
O110 C103 1.226 . S
O111 Cd102 2.356 . S
O111 C109 1.282 . S
C112 O113 1.306 . S
C112 O115 1.160 . S
O113 C112 1.306 . S
O113 Cd114 2.228 1_655 S
Cd114 O113 2.228 1_455 S
Cd114 O118 2.273 . S
Cd114 O122 2.277 . S
O115 C112 1.160 . S
O115 Cd116 2.203 1_655 S
Cd116 O115 2.203 1_455 S
Cd116 O118 2.411 . S
Cd116 O119 2.333 . S
Cd116 O120 2.352 . S
Cd116 O124 2.277 . S
Cd116 O125 2.356 . S
C117 O122 1.209 . S
C117 O124 1.226 . S
O118 Cd114 2.273 . S
O118 Cd116 2.411 . S
O118 C121 1.320 . S
O119 Cd116 2.333 . S
O119 C121 1.214 . S
O120 Cd116 2.352 . S
O120 C123 1.258 . S
C121 O118 1.320 . S
C121 O119 1.214 . S
O122 Cd114 2.277 . S
O122 C117 1.209 . S
C123 O120 1.258 . S
C123 O125 1.282 . S
O124 Cd116 2.277 . S
O124 C117 1.226 . S
O125 Cd116 2.356 . S
O125 C123 1.282 . S
C126 O127 1.306 . S
C126 O129 1.160 . S
O127 C126 1.306 . S
O127 Cd128 2.228 . S
Cd128 O127 2.228 . S
Cd128 O132 2.273 . S
Cd128 O136 2.277 . S
O129 C126 1.160 . S
O129 Cd130 2.203 . S
Cd130 O129 2.203 . S
Cd130 O132 2.411 . S
Cd130 O133 2.333 . S
Cd130 O134 2.352 1_565 S
Cd130 O138 2.277 . S
Cd130 O139 2.356 1_565 S
C131 O136 1.209 . S
C131 O138 1.226 . S
O132 Cd128 2.273 . S
O132 Cd130 2.411 . S
O132 C135 1.320 . S
O133 Cd130 2.333 . S
O133 C135 1.214 . S
O134 Cd130 2.352 1_545 S
O134 C137 1.258 . S
C135 O132 1.320 . S
C135 O133 1.214 . S
O136 Cd128 2.277 . S
O136 C131 1.209 . S
C137 O134 1.258 . S
C137 O139 1.282 . S
O138 Cd130 2.277 . S
O138 C131 1.226 . S
O139 Cd130 2.356 1_545 S
O139 C137 1.282 . S
C140 O141 1.306 . S
C140 O143 1.160 . S
O141 C140 1.306 . S
O141 Cd142 2.228 1_655 S
Cd142 O141 2.228 1_455 S
Cd142 O146 2.273 . S
Cd142 O150 2.277 . S
O143 C140 1.160 . S
O143 Cd144 2.203 1_655 S
Cd144 O143 2.203 1_455 S
Cd144 O146 2.411 . S
Cd144 O147 2.333 . S
Cd144 O148 2.366 . S
Cd144 O152 2.277 . S
Cd144 O153 2.356 . S
C145 O150 1.209 . S
C145 O152 1.226 . S
O146 Cd142 2.273 . S
O146 Cd144 2.411 . S
O146 C149 1.320 . S
O147 Cd144 2.333 . S
O147 C149 1.214 . S
O148 Cd144 2.366 . S
O148 C151 1.311 . S
C149 O146 1.320 . S
C149 O147 1.214 . S
O150 Cd142 2.277 . S
O150 C145 1.209 . S
C151 O148 1.311 . S
C151 O153 1.282 . S
O152 Cd144 2.277 . S
O152 C145 1.226 . S
O153 Cd144 2.356 . S
O153 C151 1.282 . S
C154 O155 1.306 . S
C154 O157 1.160 . S
O155 C154 1.306 . S
O155 Cd156 2.228 . S
Cd156 O155 2.228 . S
Cd156 O160 2.273 . S
Cd156 O164 2.277 . S
O157 C154 1.160 . S
O157 Cd158 2.203 . S
Cd158 O157 2.203 . S
Cd158 O160 2.411 . S
Cd158 O161 2.333 . S
Cd158 O162 2.352 . S
Cd158 O166 2.277 . S
Cd158 O167 2.356 . S
C159 O164 1.209 . S
C159 O166 1.226 . S
O160 Cd156 2.273 . S
O160 Cd158 2.411 . S
O160 C163 1.320 . S
O161 Cd158 2.333 . S
O161 C163 1.214 . S
O162 Cd158 2.352 . S
O162 C165 1.258 . S
C163 O160 1.320 . S
C163 O161 1.214 . S
O164 Cd156 2.277 . S
O164 C159 1.209 . S
C165 O162 1.258 . S
C165 O167 1.282 . S
O166 Cd158 2.277 . S
O166 C159 1.226 . S
O167 Cd158 2.356 . S
O167 C165 1.282 . S
C168 O169 1.306 . S
C168 O171 1.160 . S
O169 C168 1.306 . S
O169 Cd170 2.228 1_565 S
Cd170 O169 2.228 1_545 S
Cd170 O174 2.273 . S
Cd170 O178 2.277 . S
O171 C168 1.160 . S
O171 Cd172 2.203 1_565 S
Cd172 O171 2.203 1_545 S
Cd172 O174 2.411 . S
Cd172 O175 2.333 . S
Cd172 O176 2.358 . S
Cd172 O180 2.277 . S
Cd172 O181 2.356 . S
C173 O178 1.209 . S
C173 O180 1.226 . S
O174 Cd170 2.273 . S
O174 Cd172 2.411 . S
O174 C177 1.320 . S
O175 Cd172 2.333 . S
O175 C177 1.214 . S
O176 Cd172 2.358 . S
O176 C179 1.259 . S
C177 O174 1.320 . S
C177 O175 1.214 . S
O178 Cd170 2.277 . S
O178 C173 1.209 . S
C179 O176 1.259 . S
C179 O181 1.282 . S
O180 Cd172 2.277 . S
O180 C173 1.226 . S
O181 Cd172 2.356 . S
O181 C179 1.282 . S
C182 O183 1.306 . S
C182 O185 1.160 1_655 S
O183 C182 1.306 . S
O183 Cd184 2.228 . S
Cd184 O183 2.228 . S
Cd184 O188 2.273 . S
Cd184 O192 2.277 . S
O185 C182 1.160 1_455 S
O185 Cd186 2.203 1_455 S
Cd186 O185 2.203 1_655 S
Cd186 O188 2.411 . S
Cd186 O189 2.333 . S
Cd186 O190 2.352 1_655 S
Cd186 O194 2.277 . S
Cd186 O195 2.356 1_655 S
C187 O192 1.209 . S
C187 O194 1.226 . S
O188 Cd184 2.273 . S
O188 Cd186 2.411 . S
O188 C191 1.320 . S
O189 Cd186 2.333 . S
O189 C191 1.214 . S
O190 Cd186 2.352 1_455 S
O190 C193 1.258 . S
C191 O188 1.320 . S
C191 O189 1.214 . S
O192 Cd184 2.277 . S
O192 C187 1.209 . S
C193 O190 1.258 . S
C193 O195 1.282 . S
O194 Cd186 2.277 . S
O194 C187 1.226 . S
O195 Cd186 2.356 1_455 S
O195 C193 1.282 . S
C196 O197 1.306 . S
C196 O199 1.160 . S
O197 C196 1.306 . S
O197 Cd198 2.228 . S
Cd198 O197 2.228 . S
Cd198 O202 2.273 . S
Cd198 O206 2.277 . S
O199 C196 1.160 . S
O199 Cd200 2.203 . S
Cd200 O199 2.203 . S
Cd200 O202 2.411 . S
Cd200 O203 2.333 . S
Cd200 O204 2.352 . S
Cd200 O208 2.277 . S
Cd200 O209 2.356 . S
C201 O206 1.209 . S
C201 O208 1.226 . S
O202 Cd198 2.273 . S
O202 Cd200 2.411 . S
O202 C205 1.320 . S
O203 Cd200 2.333 . S
O203 C205 1.214 . S
O204 Cd200 2.352 . S
O204 C207 1.258 . S
C205 O202 1.320 . S
C205 O203 1.214 . S
O206 Cd198 2.277 . S
O206 C201 1.209 . S
C207 O204 1.258 . S
C207 O209 1.282 . S
O208 Cd200 2.277 . S
O208 C201 1.226 . S
O209 Cd200 2.356 . S
O209 C207 1.282 . S
C210 O211 1.306 . S
C210 O213 1.160 . S
O211 C210 1.306 . S
O211 Cd212 2.228 . S
Cd212 O211 2.228 . S
Cd212 O216 2.273 . S
Cd212 O220 2.277 . S
O213 C210 1.160 . S
O213 Cd214 2.203 . S
Cd214 O213 2.203 . S
Cd214 O216 2.411 . S
Cd214 O217 2.333 . S
Cd214 O218 2.352 . S
Cd214 O222 2.277 . S
Cd214 O223 2.356 . S
C215 O220 1.209 . S
C215 O222 1.226 . S
O216 Cd212 2.273 . S
O216 Cd214 2.411 . S
O216 C219 1.320 . S
O217 Cd214 2.333 . S
O217 C219 1.214 . S
O218 Cd214 2.352 . S
O218 C221 1.258 . S
C219 O216 1.320 . S
C219 O217 1.214 . S
O220 Cd212 2.277 . S
O220 C215 1.209 . S
C221 O218 1.258 . S
C221 O223 1.282 . S
O222 Cd214 2.277 . S
O222 C215 1.226 . S
O223 Cd214 2.356 . S
O223 C221 1.282 . S
C224 O225 1.306 . S
C224 O227 1.160 . S
O225 C224 1.306 . S
O225 Cd226 2.228 . S
Cd226 O225 2.228 . S
Cd226 O230 2.273 . S
Cd226 O234 2.277 . S
O227 C224 1.160 . S
O227 Cd228 2.203 . S
Cd228 O227 2.203 . S
Cd228 O230 2.411 . S
Cd228 O231 2.333 . S
Cd228 O232 2.352 1_545 S
Cd228 O236 2.277 . S
Cd228 O237 2.356 1_545 S
C229 O234 1.209 . S
C229 O236 1.226 . S
O230 Cd226 2.273 . S
O230 Cd228 2.411 . S
O230 C233 1.320 . S
O231 Cd228 2.333 . S
O231 C233 1.214 . S
O232 Cd228 2.352 1_565 S
O232 C235 1.258 . S
C233 O230 1.320 . S
C233 O231 1.214 . S
O234 Cd226 2.277 . S
O234 C229 1.209 . S
C235 O232 1.258 . S
C235 O237 1.282 . S
O236 Cd228 2.277 . S
O236 C229 1.226 . S
O237 Cd228 2.356 1_565 S
O237 C235 1.282 . S
C238 O239 1.306 . S
C238 O241 1.160 . S
O239 C238 1.306 . S
O239 Cd240 2.228 1_455 S
Cd240 O239 2.228 1_655 S
Cd240 O244 2.273 . S
Cd240 O248 2.277 . S
O241 C238 1.160 . S
O241 Cd242 2.203 1_455 S
Cd242 O241 2.203 1_655 S
Cd242 O244 2.411 . S
Cd242 O245 2.333 . S
Cd242 O246 2.352 1_655 S
Cd242 O250 2.277 . S
Cd242 O251 2.356 . S
C243 O248 1.209 . S
C243 O250 1.226 . S
O244 Cd240 2.273 . S
O244 Cd242 2.411 . S
O244 C247 1.320 . S
O245 Cd242 2.333 . S
O245 C247 1.214 . S
O246 Cd242 2.352 1_455 S
O246 C249 1.258 1_455 S
C247 O244 1.320 . S
C247 O245 1.214 . S
O248 Cd240 2.277 . S
O248 C243 1.209 . S
C249 O246 1.258 1_655 S
C249 O251 1.282 . S
O250 Cd242 2.277 . S
O250 C243 1.226 . S
O251 Cd242 2.356 . S
O251 C249 1.282 . S
H252 C271 0.949 . S
H253 C272 0.950 . S
H254 C274 0.950 . S
H255 C275 0.950 . S
H256 C277 0.950 . S
H257 C280 0.950 . S
H258 C281 0.950 . S
H259 C283 0.951 . S
H260 C284 0.949 . S
H261 C286 0.949 . S
H262 C287 0.950 . S
H263 C289 0.950 . S
H264 C290 0.950 . S
H265 C292 0.950 . S
H266 C295 0.950 . S
H267 C296 0.950 . S
H268 C298 0.951 . S
H269 C299 0.949 . S
C270 C271 1.376 . S
C270 C275 1.386 . S
C270 C276 1.483 . S
C271 H252 0.949 . S
C271 C270 1.376 . S
C271 C272 1.397 . S
C272 H253 0.950 . S
C272 C271 1.397 . S
C272 C273 1.391 . S
C273 C272 1.391 . S
C273 C274 1.405 . S
C274 H254 0.950 . S
C274 C273 1.405 . S
C274 C275 1.367 . S
C275 H255 0.950 . S
C275 C270 1.386 . S
C275 C274 1.367 . S
C276 C270 1.483 . S
C276 C277 1.382 . S
C276 C278 1.403 . S
C277 H256 0.950 . S
C277 C276 1.382 . S
C277 C293 1.411 . S
C278 C276 1.403 . S
C278 C279 1.489 . S
C278 C292 1.411 . S
C279 C278 1.489 . S
C279 C280 1.383 . S
C279 C284 1.382 . S
C280 H257 0.950 . S
C280 C279 1.383 . S
C280 C281 1.395 . S
C281 H258 0.950 . S
C281 C280 1.395 . S
C281 C282 1.288 . S
C282 C281 1.288 . S
C282 C283 1.392 . S
C283 H259 0.951 . S
C283 C282 1.392 . S
C283 C284 1.392 . S
C284 H260 0.949 . S
C284 C279 1.382 . S
C284 C283 1.392 . S
C285 C286 1.376 . S
C285 C290 1.386 . S
C285 C291 1.483 . S
C286 H261 0.949 . S
C286 C285 1.376 . S
C286 C287 1.397 . S
C287 H262 0.950 . S
C287 C286 1.397 . S
C287 C288 1.391 . S
C288 C287 1.391 . S
C288 C289 1.405 . S
C289 H263 0.950 . S
C289 C288 1.405 . S
C289 C290 1.367 . S
C290 H264 0.950 . S
C290 C285 1.386 . S
C290 C289 1.367 . S
C291 C285 1.483 . S
C291 C292 1.382 . S
C291 C293 1.403 . S
C292 H265 0.950 . S
C292 C278 1.411 . S
C292 C291 1.382 . S
C293 C277 1.411 . S
C293 C291 1.403 . S
C293 C294 1.489 . S
C294 C293 1.489 . S
C294 C295 1.383 . S
C294 C299 1.382 . S
C295 H266 0.950 . S
C295 C294 1.383 . S
C295 C296 1.395 . S
C296 H267 0.950 . S
C296 C295 1.395 . S
C296 C297 1.288 . S
C297 C296 1.288 . S
C297 C298 1.392 . S
C298 H268 0.951 . S
C298 C297 1.392 . S
C298 C299 1.392 . S
C299 H269 0.949 . S
C299 C294 1.382 . S
C299 C298 1.392 . S
H300 C319 0.949 . S
H301 C320 0.950 . S
H302 C322 0.950 . S
H303 C323 0.950 . S
H304 C325 0.950 . S
H305 C328 0.950 . S
H306 C329 0.950 . S
H307 C331 0.951 . S
H308 C332 0.949 . S
H309 C334 0.949 . S
H310 C335 0.950 . S
H311 C337 0.950 . S
H312 C338 0.950 . S
H313 C340 0.950 . S
H314 C343 0.950 . S
H315 C344 0.950 . S
H316 C346 0.951 . S
H317 C347 0.949 . S
C318 C319 1.376 . S
C318 C323 1.386 . S
C318 C324 1.483 . S
C319 H300 0.949 . S
C319 C318 1.376 . S
C319 C320 1.397 . S
C320 H301 0.950 . S
C320 C319 1.397 . S
C320 C321 1.391 . S
C321 C320 1.391 . S
C321 C322 1.405 . S
C322 H302 0.950 . S
C322 C321 1.405 . S
C322 C323 1.367 . S
C323 H303 0.950 . S
C323 C318 1.386 . S
C323 C322 1.367 . S
C324 C318 1.483 . S
C324 C325 1.382 . S
C324 C326 1.403 . S
C325 H304 0.950 . S
C325 C324 1.382 . S
C325 C341 1.411 . S
C326 C324 1.403 . S
C326 C327 1.489 . S
C326 C340 1.411 . S
C327 C326 1.489 . S
C327 C328 1.383 . S
C327 C332 1.382 . S
C328 H305 0.950 . S
C328 C327 1.383 . S
C328 C329 1.395 . S
C329 H306 0.950 . S
C329 C328 1.395 . S
C329 C330 1.288 . S
C330 C329 1.288 . S
C330 C331 1.392 . S
C331 H307 0.951 . S
C331 C330 1.392 . S
C331 C332 1.392 . S
C332 H308 0.949 . S
C332 C327 1.382 . S
C332 C331 1.392 . S
C333 C334 1.376 . S
C333 C338 1.386 . S
C333 C339 1.483 . S
C334 H309 0.949 . S
C334 C333 1.376 . S
C334 C335 1.397 . S
C335 H310 0.950 . S
C335 C334 1.397 . S
C335 C336 1.391 . S
C336 C335 1.391 . S
C336 C337 1.405 . S
C337 H311 0.950 . S
C337 C336 1.405 . S
C337 C338 1.367 . S
C338 H312 0.950 . S
C338 C333 1.386 . S
C338 C337 1.367 . S
C339 C333 1.483 . S
C339 C340 1.382 . S
C339 C341 1.403 . S
C340 H313 0.950 . S
C340 C326 1.411 . S
C340 C339 1.382 . S
C341 C325 1.411 . S
C341 C339 1.403 . S
C341 C342 1.489 . S
C342 C341 1.489 . S
C342 C343 1.383 . S
C342 C347 1.382 . S
C343 H314 0.950 . S
C343 C342 1.383 . S
C343 C344 1.395 . S
C344 H315 0.950 . S
C344 C343 1.395 . S
C344 C345 1.288 . S
C345 C344 1.288 . S
C345 C346 1.392 . S
C346 H316 0.951 . S
C346 C345 1.392 . S
C346 C347 1.392 . S
C347 H317 0.949 . S
C347 C342 1.382 . S
C347 C346 1.392 . S
H348 C367 0.949 . S
H349 C368 0.950 . S
H350 C370 0.950 . S
H351 C371 0.950 . S
H352 C373 0.950 . S
H353 C376 0.950 . S
H354 C377 0.950 . S
H355 C379 0.951 . S
H356 C380 0.949 . S
H357 C382 0.949 . S
H358 C383 0.950 . S
H359 C385 0.950 . S
H360 C386 0.950 . S
H361 C388 0.950 . S
H362 C391 0.950 . S
H363 C392 0.950 . S
H364 C394 0.951 . S
H365 C395 0.949 . S
C366 C367 1.376 . S
C366 C371 1.386 . S
C366 C372 1.483 . S
C367 H348 0.949 . S
C367 C366 1.376 . S
C367 C368 1.397 . S
C368 H349 0.950 . S
C368 C367 1.397 . S
C368 C369 1.391 . S
C369 C368 1.391 . S
C369 C370 1.405 . S
C370 H350 0.950 . S
C370 C369 1.405 . S
C370 C371 1.367 . S
C371 H351 0.950 . S
C371 C366 1.386 . S
C371 C370 1.367 . S
C372 C366 1.483 . S
C372 C373 1.382 . S
C372 C374 1.403 . S
C373 H352 0.950 . S
C373 C372 1.382 . S
C373 C389 1.411 . S
C374 C372 1.403 . S
C374 C375 1.489 . S
C374 C388 1.411 . S
C375 C374 1.489 . S
C375 C376 1.383 . S
C375 C380 1.382 . S
C376 H353 0.950 . S
C376 C375 1.383 . S
C376 C377 1.395 . S
C377 H354 0.950 . S
C377 C376 1.395 . S
C377 C378 1.288 . S
C378 C377 1.288 . S
C378 C379 1.392 . S
C379 H355 0.951 . S
C379 C378 1.392 . S
C379 C380 1.392 . S
C380 H356 0.949 . S
C380 C375 1.382 . S
C380 C379 1.392 . S
C381 C382 1.376 . S
C381 C386 1.386 . S
C381 C387 1.483 . S
C382 H357 0.949 . S
C382 C381 1.376 . S
C382 C383 1.397 . S
C383 H358 0.950 . S
C383 C382 1.397 . S
C383 C384 1.391 . S
C384 C383 1.391 . S
C384 C385 1.405 . S
C385 H359 0.950 . S
C385 C384 1.405 . S
C385 C386 1.367 . S
C386 H360 0.950 . S
C386 C381 1.386 . S
C386 C385 1.367 . S
C387 C381 1.483 . S
C387 C388 1.382 . S
C387 C389 1.403 . S
C388 H361 0.950 . S
C388 C374 1.411 . S
C388 C387 1.382 . S
C389 C373 1.411 . S
C389 C387 1.403 . S
C389 C390 1.489 . S
C390 C389 1.489 . S
C390 C391 1.383 . S
C390 C395 1.382 . S
C391 H362 0.950 . S
C391 C390 1.383 . S
C391 C392 1.395 . S
C392 H363 0.950 . S
C392 C391 1.395 . S
C392 C393 1.288 . S
C393 C392 1.288 . S
C393 C394 1.392 . S
C394 H364 0.951 . S
C394 C393 1.392 . S
C394 C395 1.392 . S
C395 H365 0.949 . S
C395 C390 1.382 . S
C395 C394 1.392 . S
H396 C415 0.949 . S
H397 C416 0.950 . S
H398 C418 0.950 . S
H399 C419 0.950 . S
H400 C421 0.950 . S
H401 C424 0.950 . S
H402 C425 0.950 . S
H403 C427 0.951 . S
H404 C428 0.949 . S
H405 C430 0.949 . S
H406 C431 0.950 . S
H407 C433 0.950 . S
H408 C434 0.950 . S
H409 C436 0.950 . S
H410 C439 0.950 . S
H411 C440 0.950 . S
H412 C442 0.951 . S
H413 C443 0.949 . S
C414 C415 1.376 . S
C414 C419 1.386 . S
C414 C420 1.483 . S
C415 H396 0.949 . S
C415 C414 1.376 . S
C415 C416 1.397 . S
C416 H397 0.950 . S
C416 C415 1.397 . S
C416 C417 1.391 . S
C417 C416 1.391 . S
C417 C418 1.405 . S
C418 H398 0.950 . S
C418 C417 1.405 . S
C418 C419 1.367 . S
C419 H399 0.950 . S
C419 C414 1.386 . S
C419 C418 1.367 . S
C420 C414 1.483 . S
C420 C421 1.382 . S
C420 C422 1.403 . S
C421 H400 0.950 . S
C421 C420 1.382 . S
C421 C437 1.411 . S
C422 C420 1.403 . S
C422 C423 1.489 . S
C422 C436 1.411 . S
C423 C422 1.489 . S
C423 C424 1.383 . S
C423 C428 1.382 . S
C424 H401 0.950 . S
C424 C423 1.383 . S
C424 C425 1.395 . S
C425 H402 0.950 . S
C425 C424 1.395 . S
C425 C426 1.288 . S
C426 C425 1.288 . S
C426 C427 1.392 . S
C427 H403 0.951 . S
C427 C426 1.392 . S
C427 C428 1.392 . S
C428 H404 0.949 . S
C428 C423 1.382 . S
C428 C427 1.392 . S
C429 C430 1.376 . S
C429 C434 1.386 . S
C429 C435 1.483 . S
C430 H405 0.949 . S
C430 C429 1.376 . S
C430 C431 1.397 . S
C431 H406 0.950 . S
C431 C430 1.397 . S
C431 C432 1.391 . S
C432 C431 1.391 . S
C432 C433 1.405 . S
C433 H407 0.950 . S
C433 C432 1.405 . S
C433 C434 1.367 . S
C434 H408 0.950 . S
C434 C429 1.386 . S
C434 C433 1.367 . S
C435 C429 1.483 . S
C435 C436 1.382 . S
C435 C437 1.403 . S
C436 H409 0.950 . S
C436 C422 1.411 . S
C436 C435 1.382 . S
C437 C421 1.411 . S
C437 C435 1.403 . S
C437 C438 1.489 . S
C438 C437 1.489 . S
C438 C439 1.383 . S
C438 C443 1.382 . S
C439 H410 0.950 . S
C439 C438 1.383 . S
C439 C440 1.395 . S
C440 H411 0.950 . S
C440 C439 1.395 . S
C440 C441 1.288 . S
C441 C440 1.288 . S
C441 C442 1.392 . S
C442 H412 0.951 . S
C442 C441 1.392 . S
C442 C443 1.392 . S
C443 H413 0.949 . S
C443 C438 1.382 . S
C443 C442 1.392 . S
H444 C463 0.949 . S
H445 C464 0.950 . S
H446 C466 0.950 . S
H447 C467 0.950 . S
H448 C469 0.950 . S
H449 C472 0.950 . S
H450 C473 0.950 . S
H451 C475 0.951 . S
H452 C476 0.949 . S
H453 C478 0.949 . S
H454 C479 0.950 . S
H455 C481 0.950 . S
H456 C482 0.950 . S
H457 C484 0.950 . S
H458 C487 0.950 . S
H459 C488 0.950 . S
H460 C490 0.951 . S
H461 C491 0.949 . S
C462 C463 1.376 . S
C462 C467 1.386 . S
C462 C468 1.483 . S
C463 H444 0.949 . S
C463 C462 1.376 . S
C463 C464 1.397 . S
C464 H445 0.950 . S
C464 C463 1.397 . S
C464 C465 1.391 . S
C465 C464 1.391 . S
C465 C466 1.405 . S
C466 H446 0.950 . S
C466 C465 1.405 . S
C466 C467 1.367 . S
C467 H447 0.950 . S
C467 C462 1.386 . S
C467 C466 1.367 . S
C468 C462 1.483 . S
C468 C469 1.382 . S
C468 C470 1.403 . S
C469 H448 0.950 . S
C469 C468 1.382 . S
C469 C485 1.411 . S
C470 C468 1.403 . S
C470 C471 1.489 . S
C470 C484 1.411 . S
C471 C470 1.489 . S
C471 C472 1.383 . S
C471 C476 1.382 . S
C472 H449 0.950 . S
C472 C471 1.383 . S
C472 C473 1.395 . S
C473 H450 0.950 . S
C473 C472 1.395 . S
C473 C474 1.288 . S
C474 C473 1.288 . S
C474 C475 1.392 . S
C475 H451 0.951 . S
C475 C474 1.392 . S
C475 C476 1.392 . S
C476 H452 0.949 . S
C476 C471 1.382 . S
C476 C475 1.392 . S
C477 C478 1.376 . S
C477 C482 1.386 . S
C477 C483 1.483 . S
C478 H453 0.949 . S
C478 C477 1.376 . S
C478 C479 1.397 . S
C479 H454 0.950 . S
C479 C478 1.397 . S
C479 C480 1.391 . S
C480 C479 1.391 . S
C480 C481 1.405 . S
C481 H455 0.950 . S
C481 C480 1.405 . S
C481 C482 1.367 . S
C482 H456 0.950 . S
C482 C477 1.386 . S
C482 C481 1.367 . S
C483 C477 1.483 . S
C483 C484 1.382 . S
C483 C485 1.403 . S
C484 H457 0.950 . S
C484 C470 1.411 . S
C484 C483 1.382 . S
C485 C469 1.411 . S
C485 C483 1.403 . S
C485 C486 1.489 . S
C486 C485 1.489 . S
C486 C487 1.383 . S
C486 C491 1.382 . S
C487 H458 0.950 . S
C487 C486 1.383 . S
C487 C488 1.395 . S
C488 H459 0.950 . S
C488 C487 1.395 . S
C488 C489 1.288 . S
C489 C488 1.288 . S
C489 C490 1.392 . S
C490 H460 0.951 . S
C490 C489 1.392 . S
C490 C491 1.392 . S
C491 H461 0.949 . S
C491 C486 1.382 . S
C491 C490 1.392 . S
H492 C511 0.949 . S
H493 C512 0.950 . S
H494 C514 0.950 . S
H495 C515 0.950 . S
H496 C517 0.950 . S
H497 C520 0.950 . S
H498 C521 0.950 . S
H499 C523 0.951 . S
H500 C524 0.949 . S
H501 C526 0.949 . S
H502 C527 0.950 . S
H503 C529 0.950 . S
H504 C530 0.950 . S
H505 C532 0.950 . S
H506 C535 0.950 . S
H507 C536 0.950 . S
H508 C538 0.951 . S
H509 C539 0.949 . S
C510 C511 1.376 . S
C510 C515 1.386 . S
C510 C516 1.483 . S
C511 H492 0.949 . S
C511 C510 1.376 . S
C511 C512 1.397 . S
C512 H493 0.950 . S
C512 C511 1.397 . S
C512 C513 1.391 . S
C513 C512 1.391 . S
C513 C514 1.405 . S
C514 H494 0.950 . S
C514 C513 1.405 . S
C514 C515 1.367 . S
C515 H495 0.950 . S
C515 C510 1.386 . S
C515 C514 1.367 . S
C516 C510 1.483 . S
C516 C517 1.382 . S
C516 C518 1.403 . S
C517 H496 0.950 . S
C517 C516 1.382 . S
C517 C533 1.411 . S
C518 C516 1.403 . S
C518 C519 1.489 . S
C518 C532 1.411 . S
C519 C518 1.489 . S
C519 C520 1.383 . S
C519 C524 1.382 . S
C520 H497 0.950 . S
C520 C519 1.383 . S
C520 C521 1.395 . S
C521 H498 0.950 . S
C521 C520 1.395 . S
C521 C522 1.288 . S
C522 C521 1.288 . S
C522 C523 1.392 . S
C523 H499 0.951 . S
C523 C522 1.392 . S
C523 C524 1.392 . S
C524 H500 0.949 . S
C524 C519 1.382 . S
C524 C523 1.392 . S
C525 C526 1.376 . S
C525 C530 1.386 . S
C525 C531 1.483 . S
C526 H501 0.949 . S
C526 C525 1.376 . S
C526 C527 1.397 . S
C527 H502 0.950 . S
C527 C526 1.397 . S
C527 C528 1.391 . S
C528 C527 1.391 . S
C528 C529 1.405 . S
C529 H503 0.950 . S
C529 C528 1.405 . S
C529 C530 1.367 . S
C530 H504 0.950 . S
C530 C525 1.386 . S
C530 C529 1.367 . S
C531 C525 1.483 . S
C531 C532 1.382 . S
C531 C533 1.403 . S
C532 H505 0.950 . S
C532 C518 1.411 . S
C532 C531 1.382 . S
C533 C517 1.411 . S
C533 C531 1.403 . S
C533 C534 1.489 . S
C534 C533 1.489 . S
C534 C535 1.383 . S
C534 C539 1.382 . S
C535 H506 0.950 . S
C535 C534 1.383 . S
C535 C536 1.395 . S
C536 H507 0.950 . S
C536 C535 1.395 . S
C536 C537 1.288 . S
C537 C536 1.288 . S
C537 C538 1.392 . S
C538 H508 0.951 . S
C538 C537 1.392 . S
C538 C539 1.392 . S
C539 H509 0.949 . S
C539 C534 1.382 . S
C539 C538 1.392 . S
H540 C559 0.949 . S
H541 C560 0.950 . S
H542 C562 0.950 . S
H543 C563 0.950 . S
H544 C565 0.950 . S
H545 C568 0.950 . S
H546 C569 0.950 . S
H547 C571 0.951 . S
H548 C572 0.949 . S
H549 C574 0.949 . S
H550 C575 0.950 . S
H551 C577 0.950 . S
H552 C578 0.950 . S
H553 C580 0.950 . S
H554 C583 0.950 . S
H555 C584 0.950 . S
H556 C586 0.951 . S
H557 C587 0.949 . S
C558 C559 1.376 . S
C558 C563 1.386 . S
C558 C564 1.483 . S
C559 H540 0.949 . S
C559 C558 1.376 . S
C559 C560 1.397 . S
C560 H541 0.950 . S
C560 C559 1.397 . S
C560 C561 1.391 . S
C561 C560 1.391 . S
C561 C562 1.405 . S
C562 H542 0.950 . S
C562 C561 1.405 . S
C562 C563 1.367 . S
C563 H543 0.950 . S
C563 C558 1.386 . S
C563 C562 1.367 . S
C564 C558 1.483 . S
C564 C565 1.382 . S
C564 C566 1.403 . S
C565 H544 0.950 . S
C565 C564 1.382 . S
C565 C581 1.411 . S
C566 C564 1.403 . S
C566 C567 1.489 . S
C566 C580 1.411 . S
C567 C566 1.489 . S
C567 C568 1.383 . S
C567 C572 1.382 . S
C568 H545 0.950 . S
C568 C567 1.383 . S
C568 C569 1.395 . S
C569 H546 0.950 . S
C569 C568 1.395 . S
C569 C570 1.288 . S
C570 C569 1.288 . S
C570 C571 1.392 . S
C571 H547 0.951 . S
C571 C570 1.392 . S
C571 C572 1.392 . S
C572 H548 0.949 . S
C572 C567 1.382 . S
C572 C571 1.392 . S
C573 C574 1.376 . S
C573 C578 1.386 . S
C573 C579 1.483 . S
C574 H549 0.949 . S
C574 C573 1.376 . S
C574 C575 1.397 . S
C575 H550 0.950 . S
C575 C574 1.397 . S
C575 C576 1.391 . S
C576 C575 1.391 . S
C576 C577 1.405 . S
C577 H551 0.950 . S
C577 C576 1.405 . S
C577 C578 1.367 . S
C578 H552 0.950 . S
C578 C573 1.386 . S
C578 C577 1.367 . S
C579 C573 1.483 . S
C579 C580 1.382 . S
C579 C581 1.403 . S
C580 H553 0.950 . S
C580 C566 1.411 . S
C580 C579 1.382 . S
C581 C565 1.411 . S
C581 C579 1.403 . S
C581 C582 1.489 . S
C582 C581 1.489 . S
C582 C583 1.383 . S
C582 C587 1.382 . S
C583 H554 0.950 . S
C583 C582 1.383 . S
C583 C584 1.395 . S
C584 H555 0.950 . S
C584 C583 1.395 . S
C584 C585 1.288 . S
C585 C584 1.288 . S
C585 C586 1.392 . S
C586 H556 0.951 . S
C586 C585 1.392 . S
C586 C587 1.392 . S
C587 H557 0.949 . S
C587 C582 1.382 . S
C587 C586 1.392 . S
H588 C607 0.949 . S
H589 C608 0.950 . S
H590 C610 0.950 . S
H591 C611 0.950 . S
H592 C613 0.950 . S
H593 C616 0.950 . S
H594 C617 0.950 . S
H595 C619 0.951 . S
H596 C620 0.949 . S
H597 C622 0.949 . S
H598 C623 0.950 . S
H599 C625 0.950 . S
H600 C626 0.950 . S
H601 C628 0.950 . S
H602 C631 0.950 . S
H603 C632 0.950 . S
H604 C634 0.951 . S
H605 C635 0.949 . S
C606 C607 1.376 . S
C606 C611 1.386 . S
C606 C612 1.483 . S
C607 H588 0.949 . S
C607 C606 1.376 . S
C607 C608 1.397 . S
C608 H589 0.950 . S
C608 C607 1.397 . S
C608 C609 1.391 . S
C609 C608 1.391 . S
C609 C610 1.405 . S
C610 H590 0.950 . S
C610 C609 1.405 . S
C610 C611 1.367 . S
C611 H591 0.950 . S
C611 C606 1.386 . S
C611 C610 1.367 . S
C612 C606 1.483 . S
C612 C613 1.382 . S
C612 C614 1.403 . S
C613 H592 0.950 . S
C613 C612 1.382 . S
C613 C629 1.411 . S
C614 C612 1.403 . S
C614 C615 1.489 . S
C614 C628 1.411 . S
C615 C614 1.489 . S
C615 C616 1.383 . S
C615 C620 1.382 . S
C616 H593 0.950 . S
C616 C615 1.383 . S
C616 C617 1.395 . S
C617 H594 0.950 . S
C617 C616 1.395 . S
C617 C618 1.288 . S
C618 C617 1.288 . S
C618 C619 1.392 . S
C619 H595 0.951 . S
C619 C618 1.392 . S
C619 C620 1.392 . S
C620 H596 0.949 . S
C620 C615 1.382 . S
C620 C619 1.392 . S
C621 C622 1.376 . S
C621 C626 1.386 . S
C621 C627 1.483 . S
C622 H597 0.949 . S
C622 C621 1.376 . S
C622 C623 1.397 . S
C623 H598 0.950 . S
C623 C622 1.397 . S
C623 C624 1.391 . S
C624 C623 1.391 . S
C624 C625 1.405 . S
C625 H599 0.950 . S
C625 C624 1.405 . S
C625 C626 1.367 . S
C626 H600 0.950 . S
C626 C621 1.386 . S
C626 C625 1.367 . S
C627 C621 1.483 . S
C627 C628 1.382 . S
C627 C629 1.403 . S
C628 H601 0.950 . S
C628 C614 1.411 . S
C628 C627 1.382 . S
C629 C613 1.411 . S
C629 C627 1.403 . S
C629 C630 1.489 . S
C630 C629 1.489 . S
C630 C631 1.383 . S
C630 C635 1.382 . S
C631 H602 0.950 . S
C631 C630 1.383 . S
C631 C632 1.395 . S
C632 H603 0.950 . S
C632 C631 1.395 . S
C632 C633 1.288 . S
C633 C632 1.288 . S
C633 C634 1.392 . S
C634 H604 0.951 . S
C634 C633 1.392 . S
C634 C635 1.392 . S
C635 H605 0.949 . S
C635 C630 1.382 . S
C635 C634 1.392 . S
H636 C655 0.949 . S
H637 C656 0.950 . S
H638 C658 0.950 . S
H639 C659 0.950 . S
H640 C661 0.950 . S
H641 C664 0.950 . S
H642 C665 0.950 . S
H643 C667 0.951 . S
H644 C668 0.949 . S
H645 C670 0.949 . S
H646 C671 0.950 . S
H647 C673 0.950 . S
H648 C674 0.950 . S
H649 C676 0.950 . S
H650 C679 0.950 . S
H651 C680 0.950 . S
H652 C682 0.951 . S
H653 C683 0.949 . S
C654 C655 1.376 . S
C654 C659 1.386 . S
C654 C660 1.483 . S
C655 H636 0.949 . S
C655 C654 1.376 . S
C655 C656 1.397 . S
C656 H637 0.950 . S
C656 C655 1.397 . S
C656 C657 1.391 . S
C657 C656 1.391 . S
C657 C658 1.405 . S
C658 H638 0.950 . S
C658 C657 1.405 . S
C658 C659 1.367 . S
C659 H639 0.950 . S
C659 C654 1.386 . S
C659 C658 1.367 . S
C660 C654 1.483 . S
C660 C661 1.382 . S
C660 C662 1.403 . S
C661 H640 0.950 . S
C661 C660 1.382 . S
C661 C677 1.411 . S
C662 C660 1.403 . S
C662 C663 1.489 . S
C662 C676 1.411 . S
C663 C662 1.489 . S
C663 C664 1.383 . S
C663 C668 1.382 . S
C664 H641 0.950 . S
C664 C663 1.383 . S
C664 C665 1.395 . S
C665 H642 0.950 . S
C665 C664 1.395 . S
C665 C666 1.288 . S
C666 C665 1.288 . S
C666 C667 1.392 . S
C667 H643 0.951 . S
C667 C666 1.392 . S
C667 C668 1.392 . S
C668 H644 0.949 . S
C668 C663 1.382 . S
C668 C667 1.392 . S
C669 C670 1.376 . S
C669 C674 1.386 . S
C669 C675 1.483 . S
C670 H645 0.949 . S
C670 C669 1.376 . S
C670 C671 1.397 . S
C671 H646 0.950 . S
C671 C670 1.397 . S
C671 C672 1.391 . S
C672 C671 1.391 . S
C672 C673 1.405 . S
C673 H647 0.950 . S
C673 C672 1.405 . S
C673 C674 1.367 . S
C674 H648 0.950 . S
C674 C669 1.386 . S
C674 C673 1.367 . S
C675 C669 1.483 . S
C675 C676 1.382 . S
C675 C677 1.403 . S
C676 H649 0.950 . S
C676 C662 1.411 . S
C676 C675 1.382 . S
C677 C661 1.411 . S
C677 C675 1.403 . S
C677 C678 1.489 . S
C678 C677 1.489 . S
C678 C679 1.383 . S
C678 C683 1.382 . S
C679 H650 0.950 . S
C679 C678 1.383 . S
C679 C680 1.395 . S
C680 H651 0.950 . S
C680 C679 1.395 . S
C680 C681 1.288 . S
C681 C680 1.288 . S
C681 C682 1.392 . S
C682 H652 0.951 . S
C682 C681 1.392 . S
C682 C683 1.392 . S
C683 H653 0.949 . S
C683 C678 1.382 . S
C683 C682 1.392 . S
H684 C703 0.949 . S
H685 C704 0.950 . S
H686 C706 0.950 . S
H687 C707 0.950 . S
H688 C709 0.950 . S
H689 C712 0.950 . S
H690 C713 0.950 . S
H691 C715 0.951 . S
H692 C716 0.949 . S
H693 C718 0.949 . S
H694 C719 0.950 . S
H695 C721 0.950 . S
H696 C722 0.950 . S
H697 C724 0.950 . S
H698 C727 0.950 . S
H699 C728 0.950 . S
H700 C730 0.951 . S
H701 C731 0.949 . S
C702 C703 1.376 . S
C702 C707 1.386 1_655 S
C702 C708 1.483 . S
C703 H684 0.949 . S
C703 C702 1.376 . S
C703 C704 1.397 . S
C704 H685 0.950 . S
C704 C703 1.397 . S
C704 C705 1.391 . S
C705 C704 1.391 . S
C705 C706 1.405 1_655 S
C706 H686 0.950 . S
C706 C705 1.405 1_455 S
C706 C707 1.367 . S
C707 H687 0.950 . S
C707 C702 1.386 1_455 S
C707 C706 1.367 . S
C708 C702 1.483 . S
C708 C709 1.382 . S
C708 C710 1.403 1_655 S
C709 H688 0.950 . S
C709 C708 1.382 . S
C709 C725 1.411 . S
C710 C708 1.403 1_455 S
C710 C711 1.489 . S
C710 C724 1.411 . S
C711 C710 1.489 . S
C711 C712 1.383 1_455 S
C711 C716 1.382 . S
C712 H689 0.950 . S
C712 C711 1.383 1_655 S
C712 C713 1.395 . S
C713 H690 0.950 . S
C713 C712 1.395 . S
C713 C714 1.288 1_655 S
C714 C713 1.288 1_455 S
C714 C715 1.392 . S
C715 H691 0.951 . S
C715 C714 1.392 . S
C715 C716 1.392 . S
C716 H692 0.949 . S
C716 C711 1.382 . S
C716 C715 1.392 . S
C717 C718 1.376 . S
C717 C722 1.386 1_455 S
C717 C723 1.483 . S
C718 H693 0.949 . S
C718 C717 1.376 . S
C718 C719 1.397 . S
C719 H694 0.950 . S
C719 C718 1.397 . S
C719 C720 1.391 . S
C720 C719 1.391 . S
C720 C721 1.405 1_455 S
C721 H695 0.950 . S
C721 C720 1.405 1_655 S
C721 C722 1.367 . S
C722 H696 0.950 . S
C722 C717 1.386 1_655 S
C722 C721 1.367 . S
C723 C717 1.483 . S
C723 C724 1.382 . S
C723 C725 1.403 1_455 S
C724 H697 0.950 . S
C724 C710 1.411 . S
C724 C723 1.382 . S
C725 C709 1.411 . S
C725 C723 1.403 1_655 S
C725 C726 1.489 . S
C726 C725 1.489 . S
C726 C727 1.383 1_655 S
C726 C731 1.382 . S
C727 H698 0.950 . S
C727 C726 1.383 1_455 S
C727 C728 1.395 . S
C728 H699 0.950 . S
C728 C727 1.395 . S
C728 C729 1.288 1_455 S
C729 C728 1.288 1_655 S
C729 C730 1.392 . S
C730 H700 0.951 . S
C730 C729 1.392 . S
C730 C731 1.392 . S
C731 H701 0.949 . S
C731 C726 1.382 . S
C731 C730 1.392 . S
H732 C751 0.949 . S
H733 C752 0.950 . S
H734 C754 0.950 . S
H735 C755 0.950 . S
H736 C757 0.950 . S
H737 C760 0.950 . S
H738 C761 0.950 . S
H739 C763 0.951 . S
H740 C764 0.949 . S
H741 C766 0.949 . S
H742 C767 0.950 . S
H743 C769 0.950 . S
H744 C770 0.950 . S
H745 C772 0.950 . S
H746 C775 0.950 . S
H747 C776 0.950 . S
H748 C778 0.951 . S
H749 C779 0.949 . S
C750 C751 1.376 . S
C750 C755 1.386 . S
C750 C756 1.483 . S
C751 H732 0.949 . S
C751 C750 1.376 . S
C751 C752 1.397 . S
C752 H733 0.950 . S
C752 C751 1.397 . S
C752 C753 1.391 . S
C753 C752 1.391 . S
C753 C754 1.405 . S
C754 H734 0.950 . S
C754 C753 1.405 . S
C754 C755 1.367 . S
C755 H735 0.950 . S
C755 C750 1.386 . S
C755 C754 1.367 . S
C756 C750 1.483 . S
C756 C757 1.382 . S
C756 C758 1.403 . S
C757 H736 0.950 . S
C757 C756 1.382 . S
C757 C773 1.411 . S
C758 C756 1.403 . S
C758 C759 1.489 . S
C758 C772 1.411 . S
C759 C758 1.489 . S
C759 C760 1.383 . S
C759 C764 1.382 . S
C760 H737 0.950 . S
C760 C759 1.383 . S
C760 C761 1.395 . S
C761 H738 0.950 . S
C761 C760 1.395 . S
C761 C762 1.288 . S
C762 C761 1.288 . S
C762 C763 1.392 . S
C763 H739 0.951 . S
C763 C762 1.392 . S
C763 C764 1.392 . S
C764 H740 0.949 . S
C764 C759 1.382 . S
C764 C763 1.392 . S
C765 C766 1.376 . S
C765 C770 1.386 . S
C765 C771 1.483 . S
C766 H741 0.949 . S
C766 C765 1.376 . S
C766 C767 1.397 . S
C767 H742 0.950 . S
C767 C766 1.397 . S
C767 C768 1.391 . S
C768 C767 1.391 . S
C768 C769 1.405 . S
C769 H743 0.950 . S
C769 C768 1.405 . S
C769 C770 1.367 . S
C770 H744 0.950 . S
C770 C765 1.386 . S
C770 C769 1.367 . S
C771 C765 1.483 . S
C771 C772 1.382 . S
C771 C773 1.403 . S
C772 H745 0.950 . S
C772 C758 1.411 . S
C772 C771 1.382 . S
C773 C757 1.411 . S
C773 C771 1.403 . S
C773 C774 1.489 . S
C774 C773 1.489 . S
C774 C775 1.383 . S
C774 C779 1.382 . S
C775 H746 0.950 . S
C775 C774 1.383 . S
C775 C776 1.395 . S
C776 H747 0.950 . S
C776 C775 1.395 . S
C776 C777 1.288 . S
C777 C776 1.288 . S
C777 C778 1.392 . S
C778 H748 0.951 . S
C778 C777 1.392 . S
C778 C779 1.392 . S
C779 H749 0.949 . S
C779 C774 1.382 . S
C779 C778 1.392 . S
H780 C799 0.949 . S
H781 C800 0.950 . S
H782 C802 0.950 . S
H783 C803 0.950 . S
H784 C805 0.950 . S
H785 C808 0.950 . S
H786 C809 0.950 . S
H787 C811 0.951 . S
H788 C812 0.949 . S
H789 C814 0.949 . S
H790 C815 0.950 . S
H791 C817 0.950 . S
H792 C818 0.950 . S
H793 C820 0.950 . S
H794 C823 0.950 . S
H795 C824 0.950 . S
H796 C826 0.951 . S
H797 C827 0.949 . S
C798 C799 1.376 . S
C798 C803 1.386 1_545 S
C798 C804 1.483 . S
C799 H780 0.949 . S
C799 C798 1.376 . S
C799 C800 1.397 . S
C800 H781 0.950 . S
C800 C799 1.397 . S
C800 C801 1.391 . S
C801 C800 1.391 . S
C801 C802 1.405 1_545 S
C802 H782 0.950 . S
C802 C801 1.405 1_565 S
C802 C803 1.367 . S
C803 H783 0.950 . S
C803 C798 1.386 1_565 S
C803 C802 1.367 . S
C804 C798 1.483 . S
C804 C805 1.382 . S
C804 C806 1.403 1_545 S
C805 H784 0.950 . S
C805 C804 1.382 . S
C805 C821 1.411 . S
C806 C804 1.403 1_565 S
C806 C807 1.489 . S
C806 C820 1.411 . S
C807 C806 1.489 . S
C807 C808 1.383 1_565 S
C807 C812 1.382 . S
C808 H785 0.950 . S
C808 C807 1.383 1_545 S
C808 C809 1.395 . S
C809 H786 0.950 . S
C809 C808 1.395 . S
C809 C810 1.288 1_545 S
C810 C809 1.288 1_565 S
C810 C811 1.392 . S
C811 H787 0.951 . S
C811 C810 1.392 . S
C811 C812 1.392 . S
C812 H788 0.949 . S
C812 C807 1.382 . S
C812 C811 1.392 . S
C813 C814 1.376 . S
C813 C818 1.386 1_565 S
C813 C819 1.483 . S
C814 H789 0.949 . S
C814 C813 1.376 . S
C814 C815 1.397 . S
C815 H790 0.950 . S
C815 C814 1.397 . S
C815 C816 1.391 . S
C816 C815 1.391 . S
C816 C817 1.405 1_565 S
C817 H791 0.950 . S
C817 C816 1.405 1_545 S
C817 C818 1.367 . S
C818 H792 0.950 . S
C818 C813 1.386 1_545 S
C818 C817 1.367 . S
C819 C813 1.483 . S
C819 C820 1.382 . S
C819 C821 1.403 1_565 S
C820 H793 0.950 . S
C820 C806 1.411 . S
C820 C819 1.382 . S
C821 C805 1.411 . S
C821 C819 1.403 1_545 S
C821 C822 1.489 . S
C822 C821 1.489 . S
C822 C823 1.383 1_545 S
C822 C827 1.382 . S
C823 H794 0.950 . S
C823 C822 1.383 1_565 S
C823 C824 1.395 . S
C824 H795 0.950 . S
C824 C823 1.395 . S
C824 C825 1.288 1_565 S
C825 C824 1.288 1_545 S
C825 C826 1.392 . S
C826 H796 0.951 . S
C826 C825 1.392 . S
C826 C827 1.392 . S
C827 H797 0.949 . S
C827 C822 1.382 . S
C827 C826 1.392 . S
H828 C847 0.949 . S
H829 C848 0.950 . S
H830 C850 0.950 . S
H831 C851 0.950 . S
H832 C853 0.950 . S
H833 C856 0.950 . S
H834 C857 0.950 . S
H835 C859 0.951 . S
H836 C860 0.949 . S
H837 C862 0.949 . S
H838 C863 0.950 . S
H839 C865 0.950 . S
H840 C866 0.950 . S
H841 C868 0.950 . S
H842 C871 0.950 . S
H843 C872 0.950 . S
H844 C874 0.951 . S
H845 C875 0.949 . S
C846 C847 1.390 . S
C846 C851 1.379 1_545 S
C846 C852 1.475 . S
C847 H828 0.949 . S
C847 C846 1.390 . S
C847 C848 1.397 . S
C848 H829 0.950 . S
C848 C847 1.397 . S
C848 C849 1.391 1_545 S
C849 C848 1.391 1_565 S
C849 C850 1.405 . S
C850 H830 0.950 . S
C850 C849 1.405 . S
C850 C851 1.367 . S
C851 H831 0.950 . S
C851 C846 1.379 1_565 S
C851 C850 1.367 . S
C852 C846 1.475 . S
C852 C853 1.382 . S
C852 C854 1.400 1_545 S
C853 H832 0.950 . S
C853 C852 1.382 . S
C853 C869 1.411 . S
C854 C852 1.400 1_565 S
C854 C855 1.483 . S
C854 C868 1.436 . S
C855 C854 1.483 . S
C855 C856 1.349 1_565 S
C855 C860 1.400 . S
C856 H833 0.950 . S
C856 C855 1.349 1_545 S
C856 C857 1.395 . S
C857 H834 0.950 . S
C857 C856 1.395 . S
C857 C858 1.288 . S
C858 C857 1.288 . S
C858 C859 1.392 1_545 S
C859 H835 0.951 . S
C859 C858 1.392 1_565 S
C859 C860 1.392 . S
C860 H836 0.949 . S
C860 C855 1.400 . S
C860 C859 1.392 . S
C861 C862 1.380 . S
C861 C866 1.384 1_565 S
C861 C867 1.503 . S
C862 H837 0.949 . S
C862 C861 1.380 . S
C862 C863 1.397 . S
C863 H838 0.950 . S
C863 C862 1.397 . S
C863 C864 1.391 1_565 S
C864 C863 1.391 1_545 S
C864 C865 1.405 . S
C865 H839 0.950 . S
C865 C864 1.405 . S
C865 C866 1.367 . S
C866 H840 0.950 . S
C866 C861 1.384 1_545 S
C866 C865 1.367 . S
C867 C861 1.503 . S
C867 C868 1.361 . S
C867 C869 1.400 1_565 S
C868 H841 0.950 . S
C868 C854 1.436 . S
C868 C867 1.361 . S
C869 C853 1.411 . S
C869 C867 1.400 1_545 S
C869 C870 1.511 . S
C870 C869 1.511 . S
C870 C871 1.336 1_545 S
C870 C875 1.407 . S
C871 H842 0.950 . S
C871 C870 1.336 1_565 S
C871 C872 1.395 . S
C872 H843 0.950 . S
C872 C871 1.395 . S
C872 C873 1.288 . S
C873 C872 1.288 . S
C873 C874 1.392 1_565 S
C874 H844 0.951 . S
C874 C873 1.392 1_545 S
C874 C875 1.392 . S
C875 H845 0.949 . S
C875 C870 1.407 . S
C875 C874 1.392 . S
H876 C895 0.949 . S
H877 C896 0.950 . S
H878 C898 0.950 . S
H879 C899 0.950 . S
H880 C901 0.950 . S
H881 C904 0.950 . S
H882 C905 0.950 . S
H883 C907 0.951 . S
H884 C908 0.949 . S
H885 C910 0.949 . S
H886 C911 0.950 . S
H887 C913 0.950 . S
H888 C914 0.950 . S
H889 C916 0.950 . S
H890 C919 0.950 . S
H891 C920 0.950 . S
H892 C922 0.951 . S
H893 C923 0.949 . S
C894 C895 1.376 . S
C894 C899 1.386 1_455 S
C894 C900 1.483 . S
C895 H876 0.949 . S
C895 C894 1.376 . S
C895 C896 1.397 . S
C896 H877 0.950 . S
C896 C895 1.397 . S
C896 C897 1.391 . S
C897 C896 1.391 . S
C897 C898 1.405 1_455 S
C898 H878 0.950 . S
C898 C897 1.405 1_655 S
C898 C899 1.367 . S
C899 H879 0.950 . S
C899 C894 1.386 1_655 S
C899 C898 1.367 . S
C900 C894 1.483 . S
C900 C901 1.382 . S
C900 C902 1.403 1_455 S
C901 H880 0.950 . S
C901 C900 1.382 . S
C901 C917 1.411 . S
C902 C900 1.403 1_655 S
C902 C903 1.489 . S
C902 C916 1.411 . S
C903 C902 1.489 . S
C903 C904 1.383 1_655 S
C903 C908 1.382 . S
C904 H881 0.950 . S
C904 C903 1.383 1_455 S
C904 C905 1.395 . S
C905 H882 0.950 . S
C905 C904 1.395 . S
C905 C906 1.288 1_455 S
C906 C905 1.288 1_655 S
C906 C907 1.392 . S
C907 H883 0.951 . S
C907 C906 1.392 . S
C907 C908 1.392 . S
C908 H884 0.949 . S
C908 C903 1.382 . S
C908 C907 1.392 . S
C909 C910 1.376 . S
C909 C914 1.386 1_655 S
C909 C915 1.483 . S
C910 H885 0.949 . S
C910 C909 1.376 . S
C910 C911 1.397 . S
C911 H886 0.950 . S
C911 C910 1.397 . S
C911 C912 1.391 . S
C912 C911 1.391 . S
C912 C913 1.405 1_655 S
C913 H887 0.950 . S
C913 C912 1.405 1_455 S
C913 C914 1.367 . S
C914 H888 0.950 . S
C914 C909 1.386 1_455 S
C914 C913 1.367 . S
C915 C909 1.483 . S
C915 C916 1.382 . S
C915 C917 1.403 1_655 S
C916 H889 0.950 . S
C916 C902 1.411 . S
C916 C915 1.382 . S
C917 C901 1.411 . S
C917 C915 1.403 1_455 S
C917 C918 1.489 . S
C918 C917 1.489 . S
C918 C919 1.383 1_455 S
C918 C923 1.382 . S
C919 H890 0.950 . S
C919 C918 1.383 1_655 S
C919 C920 1.395 . S
C920 H891 0.950 . S
C920 C919 1.395 . S
C920 C921 1.288 1_655 S
C921 C920 1.288 1_455 S
C921 C922 1.392 . S
C922 H892 0.951 . S
C922 C921 1.392 . S
C922 C923 1.392 . S
C923 H893 0.949 . S
C923 C918 1.382 . S
C923 C922 1.392 . S
H924 C943 0.949 . S
H925 C944 0.950 . S
H926 C946 0.950 . S
H927 C947 0.950 . S
H928 C949 0.950 . S
H929 C952 0.950 . S
H930 C953 0.950 . S
H931 C955 0.951 . S
H932 C956 0.949 . S
H933 C958 0.949 . S
H934 C959 0.950 . S
H935 C961 0.950 . S
H936 C962 0.950 . S
H937 C964 0.950 . S
H938 C967 0.950 . S
H939 C968 0.950 . S
H940 C970 0.951 . S
H941 C971 0.949 . S
C942 C943 1.376 . S
C942 C947 1.386 . S
C942 C948 1.483 . S
C943 H924 0.949 . S
C943 C942 1.376 . S
C943 C944 1.397 . S
C944 H925 0.950 . S
C944 C943 1.397 . S
C944 C945 1.391 . S
C945 C944 1.391 . S
C945 C946 1.405 . S
C946 H926 0.950 . S
C946 C945 1.405 . S
C946 C947 1.367 . S
C947 H927 0.950 . S
C947 C942 1.386 . S
C947 C946 1.367 . S
C948 C942 1.483 . S
C948 C949 1.382 . S
C948 C950 1.403 . S
C949 H928 0.950 . S
C949 C948 1.382 . S
C949 C965 1.411 . S
C950 C948 1.403 . S
C950 C951 1.489 . S
C950 C964 1.411 . S
C951 C950 1.489 . S
C951 C952 1.383 . S
C951 C956 1.382 . S
C952 H929 0.950 . S
C952 C951 1.383 . S
C952 C953 1.395 . S
C953 H930 0.950 . S
C953 C952 1.395 . S
C953 C954 1.288 . S
C954 C953 1.288 . S
C954 C955 1.392 . S
C955 H931 0.951 . S
C955 C954 1.392 . S
C955 C956 1.392 . S
C956 H932 0.949 . S
C956 C951 1.382 . S
C956 C955 1.392 . S
C957 C958 1.376 . S
C957 C962 1.386 . S
C957 C963 1.483 . S
C958 H933 0.949 . S
C958 C957 1.376 . S
C958 C959 1.397 . S
C959 H934 0.950 . S
C959 C958 1.397 . S
C959 C960 1.391 . S
C960 C959 1.391 . S
C960 C961 1.405 . S
C961 H935 0.950 . S
C961 C960 1.405 . S
C961 C962 1.367 . S
C962 H936 0.950 . S
C962 C957 1.386 . S
C962 C961 1.367 . S
C963 C957 1.483 . S
C963 C964 1.382 . S
C963 C965 1.403 . S
C964 H937 0.950 . S
C964 C950 1.411 . S
C964 C963 1.382 . S
C965 C949 1.411 . S
C965 C963 1.403 . S
C965 C966 1.489 . S
C966 C965 1.489 . S
C966 C967 1.383 . S
C966 C971 1.382 . S
C967 H938 0.950 . S
C967 C966 1.383 . S
C967 C968 1.395 . S
C968 H939 0.950 . S
C968 C967 1.395 . S
C968 C969 1.288 . S
C969 C968 1.288 . S
C969 C970 1.392 . S
C970 H940 0.951 . S
C970 C969 1.392 . S
C970 C971 1.392 . S
C971 H941 0.949 . S
C971 C966 1.382 . S
C971 C970 1.392 . S
H972 C991 0.949 . S
H973 C992 0.950 . S
H974 C994 0.950 . S
H975 C995 0.950 . S
H976 C997 0.950 . S
H977 C1000 0.950 . S
H978 C1001 0.950 . S
H979 C1003 0.951 . S
H980 C1004 0.949 . S
H981 C1006 0.949 . S
H982 C1007 0.950 . S
H983 C1009 0.950 . S
H984 C1010 0.950 . S
H985 C1012 0.950 . S
H986 C1015 0.950 . S
H987 C1016 0.950 . S
H988 C1018 0.951 . S
H989 C1019 0.949 . S
C990 C991 1.376 . S
C990 C995 1.386 . S
C990 C996 1.483 . S
C991 H972 0.949 . S
C991 C990 1.376 . S
C991 C992 1.397 . S
C992 H973 0.950 . S
C992 C991 1.397 . S
C992 C993 1.391 . S
C993 C992 1.391 . S
C993 C994 1.405 . S
C994 H974 0.950 . S
C994 C993 1.405 . S
C994 C995 1.367 . S
C995 H975 0.950 . S
C995 C990 1.386 . S
C995 C994 1.367 . S
C996 C990 1.483 . S
C996 C997 1.382 . S
C996 C998 1.403 . S
C997 H976 0.950 . S
C997 C996 1.382 . S
C997 C1013 1.411 . S
C998 C996 1.403 . S
C998 C999 1.489 . S
C998 C1012 1.411 . S
C999 C998 1.489 . S
C999 C1000 1.383 . S
C999 C1004 1.382 . S
C1000 H977 0.950 . S
C1000 C999 1.383 . S
C1000 C1001 1.395 . S
C1001 H978 0.950 . S
C1001 C1000 1.395 . S
C1001 C1002 1.288 . S
C1002 C1001 1.288 . S
C1002 C1003 1.392 . S
C1003 H979 0.951 . S
C1003 C1002 1.392 . S
C1003 C1004 1.392 . S
C1004 H980 0.949 . S
C1004 C999 1.382 . S
C1004 C1003 1.392 . S
C1005 C1006 1.376 . S
C1005 C1010 1.386 . S
C1005 C1011 1.483 . S
C1006 H981 0.949 . S
C1006 C1005 1.376 . S
C1006 C1007 1.397 . S
C1007 H982 0.950 . S
C1007 C1006 1.397 . S
C1007 C1008 1.391 . S
C1008 C1007 1.391 . S
C1008 C1009 1.405 . S
C1009 H983 0.950 . S
C1009 C1008 1.405 . S
C1009 C1010 1.367 . S
C1010 H984 0.950 . S
C1010 C1005 1.386 . S
C1010 C1009 1.367 . S
C1011 C1005 1.483 . S
C1011 C1012 1.382 . S
C1011 C1013 1.403 . S
C1012 H985 0.950 . S
C1012 C998 1.411 . S
C1012 C1011 1.382 . S
C1013 C997 1.411 . S
C1013 C1011 1.403 . S
C1013 C1014 1.489 . S
C1014 C1013 1.489 . S
C1014 C1015 1.383 . S
C1014 C1019 1.382 . S
C1015 H986 0.950 . S
C1015 C1014 1.383 . S
C1015 C1016 1.395 . S
C1016 H987 0.950 . S
C1016 C1015 1.395 . S
C1016 C1017 1.288 . S
C1017 C1016 1.288 . S
C1017 C1018 1.392 . S
C1018 H988 0.951 . S
C1018 C1017 1.392 . S
C1018 C1019 1.392 . S
C1019 H989 0.949 . S
C1019 C1014 1.382 . S
C1019 C1018 1.392 . S
H1020 C1039 0.949 . S
H1021 C1040 0.950 . S
H1022 C1042 0.950 . S
H1023 C1043 0.950 . S
H1024 C1045 0.950 . S
H1025 C1048 0.950 . S
H1026 C1049 0.950 . S
H1027 C1051 0.951 . S
H1028 C1052 0.949 . S
H1029 C1054 0.949 . S
H1030 C1055 0.950 . S
H1031 C1057 0.950 . S
H1032 C1058 0.950 . S
H1033 C1060 0.950 . S
H1034 C1063 0.950 . S
H1035 C1064 0.950 . S
H1036 C1066 0.951 . S
H1037 C1067 0.949 . S
C1038 C1039 1.376 . S
C1038 C1043 1.386 . S
C1038 C1044 1.483 . S
C1039 H1020 0.949 . S
C1039 C1038 1.376 . S
C1039 C1040 1.397 . S
C1040 H1021 0.950 . S
C1040 C1039 1.397 . S
C1040 C1041 1.391 . S
C1041 C1040 1.391 . S
C1041 C1042 1.405 . S
C1042 H1022 0.950 . S
C1042 C1041 1.405 . S
C1042 C1043 1.367 . S
C1043 H1023 0.950 . S
C1043 C1038 1.386 . S
C1043 C1042 1.367 . S
C1044 C1038 1.483 . S
C1044 C1045 1.382 . S
C1044 C1046 1.403 . S
C1045 H1024 0.950 . S
C1045 C1044 1.382 . S
C1045 C1061 1.411 . S
C1046 C1044 1.403 . S
C1046 C1047 1.489 . S
C1046 C1060 1.411 . S
C1047 C1046 1.489 . S
C1047 C1048 1.383 . S
C1047 C1052 1.382 . S
C1048 H1025 0.950 . S
C1048 C1047 1.383 . S
C1048 C1049 1.395 . S
C1049 H1026 0.950 . S
C1049 C1048 1.395 . S
C1049 C1050 1.288 . S
C1050 C1049 1.288 . S
C1050 C1051 1.392 . S
C1051 H1027 0.951 . S
C1051 C1050 1.392 . S
C1051 C1052 1.392 . S
C1052 H1028 0.949 . S
C1052 C1047 1.382 . S
C1052 C1051 1.392 . S
C1053 C1054 1.376 . S
C1053 C1058 1.386 . S
C1053 C1059 1.483 . S
C1054 H1029 0.949 . S
C1054 C1053 1.376 . S
C1054 C1055 1.397 . S
C1055 H1030 0.950 . S
C1055 C1054 1.397 . S
C1055 C1056 1.391 . S
C1056 C1055 1.391 . S
C1056 C1057 1.405 . S
C1057 H1031 0.950 . S
C1057 C1056 1.405 . S
C1057 C1058 1.367 . S
C1058 H1032 0.950 . S
C1058 C1053 1.386 . S
C1058 C1057 1.367 . S
C1059 C1053 1.483 . S
C1059 C1060 1.382 . S
C1059 C1061 1.403 . S
C1060 H1033 0.950 . S
C1060 C1046 1.411 . S
C1060 C1059 1.382 . S
C1061 C1045 1.411 . S
C1061 C1059 1.403 . S
C1061 C1062 1.489 . S
C1062 C1061 1.489 . S
C1062 C1063 1.383 . S
C1062 C1067 1.382 . S
C1063 H1034 0.950 . S
C1063 C1062 1.383 . S
C1063 C1064 1.395 . S
C1064 H1035 0.950 . S
C1064 C1063 1.395 . S
C1064 C1065 1.288 . S
C1065 C1064 1.288 . S
C1065 C1066 1.392 . S
C1066 H1036 0.951 . S
C1066 C1065 1.392 . S
C1066 C1067 1.392 . S
C1067 H1037 0.949 . S
C1067 C1062 1.382 . S
C1067 C1066 1.392 . S
H1068 C1087 0.949 . S
H1069 C1088 0.950 . S
H1070 C1090 0.950 . S
H1071 C1091 0.950 . S
H1072 C1093 0.950 . S
H1073 C1096 0.950 . S
H1074 C1097 0.950 . S
H1075 C1099 0.951 . S
H1076 C1100 0.949 . S
H1077 C1102 0.949 . S
H1078 C1103 0.950 . S
H1079 C1105 0.950 . S
H1080 C1106 0.950 . S
H1081 C1108 0.950 . S
H1082 C1111 0.950 . S
H1083 C1112 0.950 . S
H1084 C1114 0.951 . S
H1085 C1115 0.949 . S
C1086 C1087 1.376 . S
C1086 C1091 1.386 . S
C1086 C1092 1.483 . S
C1087 H1068 0.949 . S
C1087 C1086 1.376 . S
C1087 C1088 1.397 . S
C1088 H1069 0.950 . S
C1088 C1087 1.397 . S
C1088 C1089 1.391 . S
C1089 C1088 1.391 . S
C1089 C1090 1.405 . S
C1090 H1070 0.950 . S
C1090 C1089 1.405 . S
C1090 C1091 1.367 . S
C1091 H1071 0.950 . S
C1091 C1086 1.386 . S
C1091 C1090 1.367 . S
C1092 C1086 1.483 . S
C1092 C1093 1.382 . S
C1092 C1094 1.403 . S
C1093 H1072 0.950 . S
C1093 C1092 1.382 . S
C1093 C1109 1.411 . S
C1094 C1092 1.403 . S
C1094 C1095 1.489 . S
C1094 C1108 1.411 . S
C1095 C1094 1.489 . S
C1095 C1096 1.383 . S
C1095 C1100 1.382 . S
C1096 H1073 0.950 . S
C1096 C1095 1.383 . S
C1096 C1097 1.395 . S
C1097 H1074 0.950 . S
C1097 C1096 1.395 . S
C1097 C1098 1.288 . S
C1098 C1097 1.288 . S
C1098 C1099 1.392 . S
C1099 H1075 0.951 . S
C1099 C1098 1.392 . S
C1099 C1100 1.392 . S
C1100 H1076 0.949 . S
C1100 C1095 1.382 . S
C1100 C1099 1.392 . S
C1101 C1102 1.376 . S
C1101 C1106 1.386 . S
C1101 C1107 1.483 . S
C1102 H1077 0.949 . S
C1102 C1101 1.376 . S
C1102 C1103 1.397 . S
C1103 H1078 0.950 . S
C1103 C1102 1.397 . S
C1103 C1104 1.391 . S
C1104 C1103 1.391 . S
C1104 C1105 1.405 . S
C1105 H1079 0.950 . S
C1105 C1104 1.405 . S
C1105 C1106 1.367 . S
C1106 H1080 0.950 . S
C1106 C1101 1.386 . S
C1106 C1105 1.367 . S
C1107 C1101 1.483 . S
C1107 C1108 1.382 . S
C1107 C1109 1.403 . S
C1108 H1081 0.950 . S
C1108 C1094 1.411 . S
C1108 C1107 1.382 . S
C1109 C1093 1.411 . S
C1109 C1107 1.403 . S
C1109 C1110 1.489 . S
C1110 C1109 1.489 . S
C1110 C1111 1.383 . S
C1110 C1115 1.382 . S
C1111 H1082 0.950 . S
C1111 C1110 1.383 . S
C1111 C1112 1.395 . S
C1112 H1083 0.950 . S
C1112 C1111 1.395 . S
C1112 C1113 1.288 . S
C1113 C1112 1.288 . S
C1113 C1114 1.392 . S
C1114 H1084 0.951 . S
C1114 C1113 1.392 . S
C1114 C1115 1.392 . S
C1115 H1085 0.949 . S
C1115 C1110 1.382 . S
C1115 C1114 1.392 . S
C1116 C1117 1.363 . S
C1116 C1122 1.379 . S
C1116 N1124 1.356 . S
C1117 C1116 1.363 . S
C1117 C1123 1.363 1_655 S
C1118 C1119 1.363 1_455 S
C1118 C1123 1.379 . S
C1118 N1125 1.356 . S
C1119 C1118 1.363 1_655 S
C1119 C1122 1.363 . S
N1120 C1122 1.356 . S
N1120 H1132 0.984 . S
N1120 H1133 0.985 . S
N1121 C1123 1.356 . S
N1121 H1126 0.984 . S
N1121 H1127 0.985 . S
C1122 C1116 1.379 . S
C1122 C1119 1.363 . S
C1122 N1120 1.356 . S
C1123 C1117 1.363 1_455 S
C1123 C1118 1.379 . S
C1123 N1121 1.356 . S
N1124 C1116 1.356 . S
N1124 H1130 0.984 . S
N1124 H1131 0.984 . S
N1125 C1118 1.356 . S
N1125 H1128 0.984 . S
N1125 H1129 0.985 . S
H1126 N1121 0.984 . S
H1127 N1121 0.985 . S
H1128 N1125 0.984 . S
H1129 N1125 0.985 . S
H1130 N1124 0.984 . S
H1131 N1124 0.984 . S
H1132 N1120 0.984 . S
H1133 N1120 0.985 . S
C1134 C1135 1.363 . S
C1134 C1140 1.379 . S
C1134 N1142 1.356 . S
C1135 C1134 1.363 . S
C1135 C1141 1.363 . S
C1136 C1137 1.363 . S
C1136 C1141 1.379 . S
C1136 N1143 1.356 . S
C1137 C1136 1.363 . S
C1137 C1140 1.363 . S
N1138 C1140 1.356 . S
N1138 H1150 0.984 . S
N1138 H1151 0.985 . S
N1139 C1141 1.356 . S
N1139 H1144 0.984 . S
N1139 H1145 0.985 . S
C1140 C1134 1.379 . S
C1140 C1137 1.363 . S
C1140 N1138 1.356 . S
C1141 C1135 1.363 . S
C1141 C1136 1.379 . S
C1141 N1139 1.356 . S
N1142 C1134 1.356 . S
N1142 H1148 0.984 . S
N1142 H1149 0.984 . S
N1143 C1136 1.356 . S
N1143 H1146 0.984 . S
N1143 H1147 0.985 . S
H1144 N1139 0.984 . S
H1145 N1139 0.985 . S
H1146 N1143 0.984 . S
H1147 N1143 0.985 . S
H1148 N1142 0.984 . S
H1149 N1142 0.984 . S
H1150 N1138 0.984 . S
H1151 N1138 0.985 . S
C1152 C1153 1.363 . S
C1152 C1158 1.379 . S
C1152 N1160 1.356 . S
C1153 C1152 1.363 . S
C1153 C1159 1.363 1_545 S
C1154 C1155 1.363 1_565 S
C1154 C1159 1.379 . S
C1154 N1161 1.356 . S
C1155 C1154 1.363 1_545 S
C1155 C1158 1.363 . S
N1156 C1158 1.356 . S
N1156 H1168 0.984 . S
N1156 H1169 0.985 . S
N1157 C1159 1.356 . S
N1157 H1162 0.984 . S
N1157 H1163 0.985 . S
C1158 C1152 1.379 . S
C1158 C1155 1.363 . S
C1158 N1156 1.356 . S
C1159 C1153 1.363 1_565 S
C1159 C1154 1.379 . S
C1159 N1157 1.356 . S
N1160 C1152 1.356 . S
N1160 H1166 0.984 . S
N1160 H1167 0.984 . S
N1161 C1154 1.356 . S
N1161 H1164 0.984 . S
N1161 H1165 0.985 . S
H1162 N1157 0.984 . S
H1163 N1157 0.985 . S
H1164 N1161 0.984 . S
H1165 N1161 0.985 . S
H1166 N1160 0.984 . S
H1167 N1160 0.984 . S
H1168 N1156 0.984 . S
H1169 N1156 0.985 . S
C1170 C1171 1.363 . S
C1170 C1176 1.379 . S
C1170 N1178 1.356 . S
C1171 C1170 1.363 . S
C1171 C1177 1.363 1_565 S
C1172 C1173 1.363 1_545 S
C1172 C1177 1.379 . S
C1172 N1179 1.356 . S
C1173 C1172 1.363 1_565 S
C1173 C1176 1.363 . S
N1174 C1176 1.356 . S
N1174 H1186 0.984 . S
N1174 H1187 0.985 . S
N1175 C1177 1.356 . S
N1175 H1180 0.984 . S
N1175 H1181 0.985 . S
C1176 C1170 1.379 . S
C1176 C1173 1.363 . S
C1176 N1174 1.356 . S
C1177 C1171 1.363 1_545 S
C1177 C1172 1.379 . S
C1177 N1175 1.356 . S
N1178 C1170 1.356 . S
N1178 H1184 0.984 . S
N1178 H1185 0.984 . S
N1179 C1172 1.356 . S
N1179 H1182 0.984 . S
N1179 H1183 0.985 . S
H1180 N1175 0.984 . S
H1181 N1175 0.985 . S
H1182 N1179 0.984 . S
H1183 N1179 0.985 . S
H1184 N1178 0.984 . S
H1185 N1178 0.984 . S
H1186 N1174 0.984 . S
H1187 N1174 0.985 . S
C1188 C1189 1.363 1_655 S
C1188 C1194 1.379 . S
C1188 N1196 1.356 . S
C1189 C1188 1.363 1_455 S
C1189 C1195 1.363 . S
C1190 C1191 1.363 . S
C1190 C1195 1.379 . S
C1190 N1197 1.356 . S
C1191 C1190 1.363 . S
C1191 C1194 1.363 1_455 S
N1192 C1194 1.356 . S
N1192 H1204 0.984 . S
N1192 H1205 0.985 . S
N1193 C1195 1.356 . S
N1193 H1198 0.984 . S
N1193 H1199 0.985 . S
C1194 C1188 1.379 . S
C1194 C1191 1.363 1_655 S
C1194 N1192 1.356 . S
C1195 C1189 1.363 . S
C1195 C1190 1.379 . S
C1195 N1193 1.356 . S
N1196 C1188 1.356 . S
N1196 H1202 0.984 . S
N1196 H1203 0.984 . S
N1197 C1190 1.356 . S
N1197 H1200 0.984 . S
N1197 H1201 0.985 . S
H1198 N1193 0.984 . S
H1199 N1193 0.985 . S
H1200 N1197 0.984 . S
H1201 N1197 0.985 . S
H1202 N1196 0.984 . S
H1203 N1196 0.984 . S
H1204 N1192 0.984 . S
H1205 N1192 0.985 . S
C1206 C1207 1.363 . S
C1206 C1212 1.379 . S
C1206 N1214 1.356 . S
C1207 C1206 1.363 . S
C1207 C1213 1.363 . S
C1208 C1209 1.363 . S
C1208 C1213 1.379 . S
C1208 N1215 1.356 . S
C1209 C1208 1.363 . S
C1209 C1212 1.363 . S
N1210 C1212 1.356 . S
N1210 H1222 0.984 . S
N1210 H1223 0.985 . S
N1211 C1213 1.356 . S
N1211 H1216 0.984 . S
N1211 H1217 0.985 . S
C1212 C1206 1.379 . S
C1212 C1209 1.363 . S
C1212 N1210 1.356 . S
C1213 C1207 1.363 . S
C1213 C1208 1.379 . S
C1213 N1211 1.356 . S
N1214 C1206 1.356 . S
N1214 H1220 0.984 . S
N1214 H1221 0.984 . S
N1215 C1208 1.356 . S
N1215 H1218 0.984 . S
N1215 H1219 0.985 . S
H1216 N1211 0.984 . S
H1217 N1211 0.985 . S
H1218 N1215 0.984 . S
H1219 N1215 0.985 . S
H1220 N1214 0.984 . S
H1221 N1214 0.984 . S
H1222 N1210 0.984 . S
H1223 N1210 0.985 . S
C1224 C1225 1.363 1_655 S
C1224 C1230 1.379 . S
C1224 N1232 1.356 . S
C1225 C1224 1.363 1_455 S
C1225 C1231 1.363 . S
C1226 C1227 1.363 . S
C1226 C1231 1.379 . S
C1226 N1233 1.356 . S
C1227 C1226 1.363 . S
C1227 C1230 1.363 1_455 S
N1228 C1230 1.356 . S
N1228 H1240 0.984 . S
N1228 H1241 0.985 . S
N1229 C1231 1.356 . S
N1229 H1234 0.984 . S
N1229 H1235 0.985 . S
C1230 C1224 1.379 . S
C1230 C1227 1.363 1_655 S
C1230 N1228 1.356 . S
C1231 C1225 1.363 . S
C1231 C1226 1.379 . S
C1231 N1229 1.356 . S
N1232 C1224 1.356 . S
N1232 H1238 0.984 . S
N1232 H1239 0.984 . S
N1233 C1226 1.356 . S
N1233 H1236 0.984 . S
N1233 H1237 0.985 . S
H1234 N1229 0.984 . S
H1235 N1229 0.985 . S
H1236 N1233 0.984 . S
H1237 N1233 0.985 . S
H1238 N1232 0.984 . S
H1239 N1232 0.984 . S
H1240 N1228 0.984 . S
H1241 N1228 0.985 . S
C1242 C1243 1.363 . S
C1242 C1248 1.379 . S
C1242 N1250 1.356 . S
C1243 C1242 1.363 . S
C1243 C1249 1.363 . S
C1244 C1245 1.363 . S
C1244 C1249 1.379 . S
C1244 N1251 1.356 . S
C1245 C1244 1.363 . S
C1245 C1248 1.363 . S
N1246 C1248 1.356 . S
N1246 H1258 0.984 . S
N1246 H1259 0.985 . S
N1247 C1249 1.356 . S
N1247 H1252 0.984 . S
N1247 H1253 0.985 . S
C1248 C1242 1.379 . S
C1248 C1245 1.363 . S
C1248 N1246 1.356 . S
C1249 C1243 1.363 . S
C1249 C1244 1.379 . S
C1249 N1247 1.356 . S
N1250 C1242 1.356 . S
N1250 H1256 0.984 . S
N1250 H1257 0.984 . S
N1251 C1244 1.356 . S
N1251 H1254 0.984 . S
N1251 H1255 0.985 . S
H1252 N1247 0.984 . S
H1253 N1247 0.985 . S
H1254 N1251 0.984 . S
H1255 N1251 0.985 . S
H1256 N1250 0.984 . S
H1257 N1250 0.984 . S
H1258 N1246 0.984 . S
H1259 N1246 0.985 . S
C1260 C1261 1.363 . S
C1260 C1266 1.379 . S
C1260 N1268 1.356 . S
C1261 C1260 1.363 . S
C1261 C1267 1.363 1_565 S
C1262 C1263 1.363 1_545 S
C1262 C1267 1.379 . S
C1262 N1269 1.356 . S
C1263 C1262 1.363 1_565 S
C1263 C1266 1.363 . S
N1264 C1266 1.356 . S
N1264 H1276 0.984 . S
N1264 H1277 0.985 . S
N1265 C1267 1.356 . S
N1265 H1270 0.984 . S
N1265 H1271 0.985 . S
C1266 C1260 1.379 . S
C1266 C1263 1.363 . S
C1266 N1264 1.356 . S
C1267 C1261 1.363 1_545 S
C1267 C1262 1.379 . S
C1267 N1265 1.356 . S
N1268 C1260 1.356 . S
N1268 H1274 0.984 . S
N1268 H1275 0.984 . S
N1269 C1262 1.356 . S
N1269 H1272 0.984 . S
N1269 H1273 0.985 . S
H1270 N1265 0.984 . S
H1271 N1265 0.985 . S
H1272 N1269 0.984 . S
H1273 N1269 0.985 . S
H1274 N1268 0.984 . S
H1275 N1268 0.984 . S
H1276 N1264 0.984 . S
H1277 N1264 0.985 . S
C1278 C1279 1.363 1_565 S
C1278 C1284 1.379 . S
C1278 N1286 1.356 . S
C1279 C1278 1.363 1_545 S
C1279 C1285 1.363 . S
C1280 C1281 1.363 . S
C1280 C1285 1.379 . S
C1280 N1287 1.356 . S
C1281 C1280 1.363 . S
C1281 C1284 1.363 1_545 S
N1282 C1284 1.356 . S
N1282 H1294 0.984 . S
N1282 H1295 0.985 . S
N1283 C1285 1.356 . S
N1283 H1288 0.984 . S
N1283 H1289 0.985 . S
C1284 C1278 1.379 . S
C1284 C1281 1.363 1_565 S
C1284 N1282 1.356 . S
C1285 C1279 1.363 . S
C1285 C1280 1.379 . S
C1285 N1283 1.356 . S
N1286 C1278 1.356 . S
N1286 H1292 0.984 . S
N1286 H1293 0.984 . S
N1287 C1280 1.356 . S
N1287 H1290 0.984 . S
N1287 H1291 0.985 . S
H1288 N1283 0.984 . S
H1289 N1283 0.985 . S
H1290 N1287 0.984 . S
H1291 N1287 0.985 . S
H1292 N1286 0.984 . S
H1293 N1286 0.984 . S
H1294 N1282 0.984 . S
H1295 N1282 0.985 . S
C1296 C1297 1.363 1_455 S
C1296 C1302 1.379 . S
C1296 N1304 1.356 . S
C1297 C1296 1.363 1_655 S
C1297 C1303 1.363 . S
C1298 C1299 1.363 . S
C1298 C1303 1.379 . S
C1298 N1305 1.356 . S
C1299 C1298 1.363 . S
C1299 C1302 1.363 1_655 S
N1300 C1302 1.356 . S
N1300 H1312 0.984 . S
N1300 H1313 0.985 . S
N1301 C1303 1.356 . S
N1301 H1306 0.984 . S
N1301 H1307 0.985 . S
C1302 C1296 1.379 . S
C1302 C1299 1.363 1_455 S
C1302 N1300 1.356 . S
C1303 C1297 1.363 . S
C1303 C1298 1.379 . S
C1303 N1301 1.356 . S
N1304 C1296 1.356 . S
N1304 H1310 0.984 . S
N1304 H1311 0.984 . S
N1305 C1298 1.356 . S
N1305 H1308 0.984 . S
N1305 H1309 0.985 . S
H1306 N1301 0.984 . S
H1307 N1301 0.985 . S
H1308 N1305 0.984 . S
H1309 N1305 0.985 . S
H1310 N1304 0.984 . S
H1311 N1304 0.984 . S
H1312 N1300 0.984 . S
H1313 N1300 0.985 . S
C1314 C1315 1.363 . S
C1314 C1320 1.379 . S
C1314 N1322 1.356 . S
C1315 C1314 1.363 . S
C1315 C1321 1.363 . S
C1316 C1317 1.363 . S
C1316 C1321 1.379 . S
C1316 N1323 1.356 . S
C1317 C1316 1.363 . S
C1317 C1320 1.363 . S
N1318 C1320 1.356 . S
N1318 H1330 0.984 . S
N1318 H1331 0.985 . S
N1319 C1321 1.356 . S
N1319 H1324 0.984 . S
N1319 H1325 0.985 . S
C1320 C1314 1.379 . S
C1320 C1317 1.363 . S
C1320 N1318 1.356 . S
C1321 C1315 1.363 . S
C1321 C1316 1.379 . S
C1321 N1319 1.356 . S
N1322 C1314 1.356 . S
N1322 H1328 0.984 . S
N1322 H1329 0.984 . S
N1323 C1316 1.356 . S
N1323 H1326 0.984 . S
N1323 H1327 0.985 . S
H1324 N1319 0.984 . S
H1325 N1319 0.985 . S
H1326 N1323 0.984 . S
H1327 N1323 0.985 . S
H1328 N1322 0.984 . S
H1329 N1322 0.984 . S
H1330 N1318 0.984 . S
H1331 N1318 0.985 . S
C1332 C1333 1.363 . S
C1332 C1338 1.379 . S
C1332 N1340 1.356 . S
C1333 C1332 1.363 . S
C1333 C1339 1.363 . S
C1334 C1335 1.363 . S
C1334 C1339 1.379 . S
C1334 N1341 1.356 . S
C1335 C1334 1.363 . S
C1335 C1338 1.363 . S
N1336 C1338 1.356 . S
N1336 H1348 0.984 . S
N1336 H1349 0.985 . S
N1337 C1339 1.356 . S
N1337 H1342 0.984 . S
N1337 H1343 0.985 . S
C1338 C1332 1.379 . S
C1338 C1335 1.363 . S
C1338 N1336 1.356 . S
C1339 C1333 1.363 . S
C1339 C1334 1.379 . S
C1339 N1337 1.356 . S
N1340 C1332 1.356 . S
N1340 H1346 0.984 . S
N1340 H1347 0.984 . S
N1341 C1334 1.356 . S
N1341 H1344 0.984 . S
N1341 H1345 0.985 . S
H1342 N1337 0.984 . S
H1343 N1337 0.985 . S
H1344 N1341 0.984 . S
H1345 N1341 0.985 . S
H1346 N1340 0.984 . S
H1347 N1340 0.984 . S
H1348 N1336 0.984 . S
H1349 N1336 0.985 . S
C1350 C1351 1.363 . S
C1350 C1356 1.379 . S
C1350 N1358 1.356 . S
C1351 C1350 1.363 . S
C1351 C1357 1.363 . S
C1352 C1353 1.363 . S
C1352 C1357 1.379 . S
C1352 N1359 1.356 . S
C1353 C1352 1.363 . S
C1353 C1356 1.363 . S
N1354 C1356 1.356 . S
N1354 H1366 0.984 . S
N1354 H1367 0.985 . S
N1355 C1357 1.356 . S
N1355 H1360 0.984 . S
N1355 H1361 0.985 . S
C1356 C1350 1.379 . S
C1356 C1353 1.363 . S
C1356 N1354 1.356 . S
C1357 C1351 1.363 . S
C1357 C1352 1.379 . S
C1357 N1355 1.356 . S
N1358 C1350 1.356 . S
N1358 H1364 0.984 . S
N1358 H1365 0.984 . S
N1359 C1352 1.356 . S
N1359 H1362 0.984 . S
N1359 H1363 0.985 . S
H1360 N1355 0.984 . S
H1361 N1355 0.985 . S
H1362 N1359 0.984 . S
H1363 N1359 0.985 . S
H1364 N1358 0.984 . S
H1365 N1358 0.984 . S
H1366 N1354 0.984 . S
H1367 N1354 0.985 . S
C1368 C1369 1.363 . S
C1368 C1374 1.379 . S
C1368 N1376 1.356 . S
C1369 C1368 1.363 . S
C1369 C1375 1.363 . S
C1370 C1371 1.363 . S
C1370 C1375 1.379 . S
C1370 N1377 1.356 . S
C1371 C1370 1.363 . S
C1371 C1374 1.363 . S
N1372 C1374 1.356 . S
N1372 H1384 0.984 . S
N1372 H1385 0.985 . S
N1373 C1375 1.356 . S
N1373 H1378 0.984 . S
N1373 H1379 0.985 . S
C1374 C1368 1.379 . S
C1374 C1371 1.363 . S
C1374 N1372 1.356 . S
C1375 C1369 1.363 . S
C1375 C1370 1.379 . S
C1375 N1373 1.356 . S
N1376 C1368 1.356 . S
N1376 H1382 0.984 . S
N1376 H1383 0.984 . S
N1377 C1370 1.356 . S
N1377 H1380 0.984 . S
N1377 H1381 0.985 . S
H1378 N1373 0.984 . S
H1379 N1373 0.985 . S
H1380 N1377 0.984 . S
H1381 N1377 0.985 . S
H1382 N1376 0.984 . S
H1383 N1376 0.984 . S
H1384 N1372 0.984 . S
H1385 N1372 0.985 . S
C1386 C1387 1.363 . S
C1386 C1392 1.379 . S
C1386 N1394 1.356 . S
C1387 C1386 1.363 . S
C1387 C1393 1.363 . S
C1388 C1389 1.363 . S
C1388 C1393 1.379 . S
C1388 N1395 1.356 . S
C1389 C1388 1.363 . S
C1389 C1392 1.363 . S
N1390 C1392 1.356 . S
N1390 H1402 0.984 . S
N1390 H1403 0.985 . S
N1391 C1393 1.356 . S
N1391 H1396 0.984 . S
N1391 H1397 0.985 . S
C1392 C1386 1.379 . S
C1392 C1389 1.363 . S
C1392 N1390 1.356 . S
C1393 C1387 1.363 . S
C1393 C1388 1.379 . S
C1393 N1391 1.356 . S
N1394 C1386 1.356 . S
N1394 H1400 0.984 . S
N1394 H1401 0.984 . S
N1395 C1388 1.356 . S
N1395 H1398 0.984 . S
N1395 H1399 0.985 . S
H1396 N1391 0.984 . S
H1397 N1391 0.985 . S
H1398 N1395 0.984 . S
H1399 N1395 0.985 . S
H1400 N1394 0.984 . S
H1401 N1394 0.984 . S
H1402 N1390 0.984 . S
H1403 N1390 0.985 . S
C1404 C1405 1.363 . S
C1404 C1410 1.379 . S
C1404 N1412 1.356 . S
C1405 C1404 1.363 . S
C1405 C1411 1.363 . S
C1406 C1407 1.363 . S
C1406 C1411 1.379 . S
C1406 N1413 1.356 . S
C1407 C1406 1.363 . S
C1407 C1410 1.363 . S
N1408 C1410 1.356 . S
N1408 H1420 0.984 . S
N1408 H1421 0.985 . S
N1409 C1411 1.356 . S
N1409 H1414 0.984 . S
N1409 H1415 0.985 . S
C1410 C1404 1.379 . S
C1410 C1407 1.363 . S
C1410 N1408 1.356 . S
C1411 C1405 1.363 . S
C1411 C1406 1.379 . S
C1411 N1409 1.356 . S
N1412 C1404 1.356 . S
N1412 H1418 0.984 . S
N1412 H1419 0.984 . S
N1413 C1406 1.356 . S
N1413 H1416 0.984 . S
N1413 H1417 0.985 . S
H1414 N1409 0.984 . S
H1415 N1409 0.985 . S
H1416 N1413 0.984 . S
H1417 N1413 0.985 . S
H1418 N1412 0.984 . S
H1419 N1412 0.984 . S
H1420 N1408 0.984 . S
H1421 N1408 0.985 . S
C1422 C1423 1.363 . S
C1422 C1428 1.379 . S
C1422 N1430 1.356 . S
C1423 C1422 1.363 . S
C1423 C1429 1.363 . S
C1424 C1425 1.363 . S
C1424 C1429 1.379 . S
C1424 N1431 1.356 . S
C1425 C1424 1.363 . S
C1425 C1428 1.363 . S
N1426 C1428 1.356 . S
N1426 H1438 0.984 . S
N1426 H1439 0.985 . S
N1427 C1429 1.356 . S
N1427 H1432 0.984 . S
N1427 H1433 0.985 . S
C1428 C1422 1.379 . S
C1428 C1425 1.363 . S
C1428 N1426 1.356 . S
C1429 C1423 1.363 . S
C1429 C1424 1.379 . S
C1429 N1427 1.356 . S
N1430 C1422 1.356 . S
N1430 H1436 0.984 . S
N1430 H1437 0.984 . S
N1431 C1424 1.356 . S
N1431 H1434 0.984 . S
N1431 H1435 0.985 . S
H1432 N1427 0.984 . S
H1433 N1427 0.985 . S
H1434 N1431 0.984 . S
H1435 N1431 0.985 . S
H1436 N1430 0.984 . S
H1437 N1430 0.984 . S
H1438 N1426 0.984 . S
H1439 N1426 0.985 . S
C1440 C1441 1.363 . S
C1440 C1446 1.379 . S
C1440 N1448 1.356 . S
C1441 C1440 1.363 . S
C1441 C1447 1.363 . S
C1442 C1443 1.363 . S
C1442 C1447 1.379 . S
C1442 N1449 1.356 . S
C1443 C1442 1.363 . S
C1443 C1446 1.363 . S
N1444 C1446 1.356 . S
N1444 H1456 0.984 . S
N1444 H1457 0.985 . S
N1445 C1447 1.356 . S
N1445 H1450 0.984 . S
N1445 H1451 0.985 . S
C1446 C1440 1.379 . S
C1446 C1443 1.363 . S
C1446 N1444 1.356 . S
C1447 C1441 1.363 . S
C1447 C1442 1.379 . S
C1447 N1445 1.356 . S
N1448 C1440 1.356 . S
N1448 H1454 0.984 . S
N1448 H1455 0.984 . S
N1449 C1442 1.356 . S
N1449 H1452 0.984 . S
N1449 H1453 0.985 . S
H1450 N1445 0.984 . S
H1451 N1445 0.985 . S
H1452 N1449 0.984 . S
H1453 N1449 0.985 . S
H1454 N1448 0.984 . S
H1455 N1448 0.984 . S
H1456 N1444 0.984 . S
H1457 N1444 0.985 . S
C1458 C1459 1.363 . S
C1458 C1464 1.379 . S
C1458 N1466 1.356 . S
C1459 C1458 1.363 . S
C1459 C1465 1.363 . S
C1460 C1461 1.363 . S
C1460 C1465 1.379 . S
C1460 N1467 1.356 . S
C1461 C1460 1.363 . S
C1461 C1464 1.363 . S
N1462 C1464 1.356 . S
N1462 H1474 0.984 . S
N1462 H1475 0.985 . S
N1463 C1465 1.356 . S
N1463 H1468 0.984 . S
N1463 H1469 0.985 . S
C1464 C1458 1.379 . S
C1464 C1461 1.363 . S
C1464 N1462 1.356 . S
C1465 C1459 1.363 . S
C1465 C1460 1.379 . S
C1465 N1463 1.356 . S
N1466 C1458 1.356 . S
N1466 H1472 0.984 . S
N1466 H1473 0.984 . S
N1467 C1460 1.356 . S
N1467 H1470 0.984 . S
N1467 H1471 0.985 . S
H1468 N1463 0.984 . S
H1469 N1463 0.985 . S
H1470 N1467 0.984 . S
H1471 N1467 0.985 . S
H1472 N1466 0.984 . S
H1473 N1466 0.984 . S
H1474 N1462 0.984 . S
H1475 N1462 0.985 . S
C1476 C1477 1.363 . S
C1476 C1482 1.379 . S
C1476 N1484 1.356 . S
C1477 C1476 1.363 . S
C1477 C1483 1.363 . S
C1478 C1479 1.363 . S
C1478 C1483 1.379 . S
C1478 N1485 1.356 . S
C1479 C1478 1.363 . S
C1479 C1482 1.363 . S
N1480 C1482 1.356 . S
N1480 H1492 0.984 . S
N1480 H1493 0.985 . S
N1481 C1483 1.356 . S
N1481 H1486 0.984 . S
N1481 H1487 0.985 . S
C1482 C1476 1.379 . S
C1482 C1479 1.363 . S
C1482 N1480 1.356 . S
C1483 C1477 1.363 . S
C1483 C1478 1.379 . S
C1483 N1481 1.356 . S
N1484 C1476 1.356 . S
N1484 H1490 0.984 . S
N1484 H1491 0.984 . S
N1485 C1478 1.356 . S
N1485 H1488 0.984 . S
N1485 H1489 0.985 . S
H1486 N1481 0.984 . S
H1487 N1481 0.985 . S
H1488 N1485 0.984 . S
H1489 N1485 0.985 . S
H1490 N1484 0.984 . S
H1491 N1484 0.984 . S
H1492 N1480 0.984 . S
H1493 N1480 0.985 . S
C1494 C1495 1.363 . S
C1494 C1500 1.379 . S
C1494 N1502 1.356 . S
C1495 C1494 1.363 . S
C1495 C1501 1.363 . S
C1496 C1497 1.363 . S
C1496 C1501 1.379 . S
C1496 N1503 1.356 . S
C1497 C1496 1.363 . S
C1497 C1500 1.363 . S
N1498 C1500 1.356 . S
N1498 H1510 0.984 . S
N1498 H1511 0.985 . S
N1499 C1501 1.356 . S
N1499 H1504 0.984 . S
N1499 H1505 0.985 . S
C1500 C1494 1.379 . S
C1500 C1497 1.363 . S
C1500 N1498 1.356 . S
C1501 C1495 1.363 . S
C1501 C1496 1.379 . S
C1501 N1499 1.356 . S
N1502 C1494 1.356 . S
N1502 H1508 0.984 . S
N1502 H1509 0.984 . S
N1503 C1496 1.356 . S
N1503 H1506 0.984 . S
N1503 H1507 0.985 . S
H1504 N1499 0.984 . S
H1505 N1499 0.985 . S
H1506 N1503 0.984 . S
H1507 N1503 0.985 . S
H1508 N1502 0.984 . S
H1509 N1502 0.984 . S
H1510 N1498 0.984 . S
H1511 N1498 0.985 . S
C1512 C1513 1.363 . S
C1512 C1518 1.379 . S
C1512 N1520 1.356 . S
C1513 C1512 1.363 . S
C1513 C1519 1.363 . S
C1514 C1515 1.363 . S
C1514 C1519 1.379 . S
C1514 N1521 1.356 . S
C1515 C1514 1.363 . S
C1515 C1518 1.363 . S
N1516 C1518 1.356 . S
N1516 H1528 0.984 . S
N1516 H1529 0.985 . S
N1517 C1519 1.356 . S
N1517 H1522 0.984 . S
N1517 H1523 0.985 . S
C1518 C1512 1.379 . S
C1518 C1515 1.363 . S
C1518 N1516 1.356 . S
C1519 C1513 1.363 . S
C1519 C1514 1.379 . S
C1519 N1517 1.356 . S
N1520 C1512 1.356 . S
N1520 H1526 0.984 . S
N1520 H1527 0.984 . S
N1521 C1514 1.356 . S
N1521 H1524 0.984 . S
N1521 H1525 0.985 . S
H1522 N1517 0.984 . S
H1523 N1517 0.985 . S
H1524 N1521 0.984 . S
H1525 N1521 0.985 . S
H1526 N1520 0.984 . S
H1527 N1520 0.984 . S
H1528 N1516 0.984 . S
H1529 N1516 0.985 . S
C1530 C1531 1.363 . S
C1530 C1536 1.379 . S
C1530 N1538 1.356 . S
C1531 C1530 1.363 . S
C1531 C1537 1.363 . S
C1532 C1533 1.363 . S
C1532 C1537 1.379 . S
C1532 N1539 1.356 . S
C1533 C1532 1.363 . S
C1533 C1536 1.363 . S
N1534 C1536 1.356 . S
N1534 H1546 0.984 . S
N1534 H1547 0.985 . S
N1535 C1537 1.356 . S
N1535 H1540 0.984 . S
N1535 H1541 0.985 . S
C1536 C1530 1.379 . S
C1536 C1533 1.363 . S
C1536 N1534 1.356 . S
C1537 C1531 1.363 . S
C1537 C1532 1.379 . S
C1537 N1535 1.356 . S
N1538 C1530 1.356 . S
N1538 H1544 0.984 . S
N1538 H1545 0.984 . S
N1539 C1532 1.356 . S
N1539 H1542 0.984 . S
N1539 H1543 0.985 . S
H1540 N1535 0.984 . S
H1541 N1535 0.985 . S
H1542 N1539 0.984 . S
H1543 N1539 0.985 . S
H1544 N1538 0.984 . S
H1545 N1538 0.984 . S
H1546 N1534 0.984 . S
H1547 N1534 0.985 . S
C1548 C1549 1.363 . S
C1548 C1554 1.379 . S
C1548 N1556 1.356 . S
C1549 C1548 1.363 . S
C1549 C1555 1.363 . S
C1550 C1551 1.363 . S
C1550 C1555 1.379 . S
C1550 N1557 1.356 . S
C1551 C1550 1.363 . S
C1551 C1554 1.363 . S
N1552 C1554 1.356 . S
N1552 H1564 0.984 . S
N1552 H1565 0.985 . S
N1553 C1555 1.356 . S
N1553 H1558 0.984 . S
N1553 H1559 0.985 . S
C1554 C1548 1.379 . S
C1554 C1551 1.363 . S
C1554 N1552 1.356 . S
C1555 C1549 1.363 . S
C1555 C1550 1.379 . S
C1555 N1553 1.356 . S
N1556 C1548 1.356 . S
N1556 H1562 0.984 . S
N1556 H1563 0.984 . S
N1557 C1550 1.356 . S
N1557 H1560 0.984 . S
N1557 H1561 0.985 . S
H1558 N1553 0.984 . S
H1559 N1553 0.985 . S
H1560 N1557 0.984 . S
H1561 N1557 0.985 . S
H1562 N1556 0.984 . S
H1563 N1556 0.984 . S
H1564 N1552 0.984 . S
H1565 N1552 0.985 . S
C1566 C1567 1.363 . S
C1566 C1572 1.379 . S
C1566 N1574 1.356 . S
C1567 C1566 1.363 . S
C1567 C1573 1.363 . S
C1568 C1569 1.363 . S
C1568 C1573 1.379 . S
C1568 N1575 1.356 . S
C1569 C1568 1.363 . S
C1569 C1572 1.363 . S
N1570 C1572 1.356 . S
N1570 H1582 0.984 . S
N1570 H1583 0.985 . S
N1571 C1573 1.356 . S
N1571 H1576 0.984 . S
N1571 H1577 0.985 . S
C1572 C1566 1.379 . S
C1572 C1569 1.363 . S
C1572 N1570 1.356 . S
C1573 C1567 1.363 . S
C1573 C1568 1.379 . S
C1573 N1571 1.356 . S
N1574 C1566 1.356 . S
N1574 H1580 0.984 . S
N1574 H1581 0.984 . S
N1575 C1568 1.356 . S
N1575 H1578 0.984 . S
N1575 H1579 0.985 . S
H1576 N1571 0.984 . S
H1577 N1571 0.985 . S
H1578 N1575 0.984 . S
H1579 N1575 0.985 . S
H1580 N1574 0.984 . S
H1581 N1574 0.984 . S
H1582 N1570 0.984 . S
H1583 N1570 0.985 . S
C1584 C1585 1.363 . S
C1584 C1590 1.379 . S
C1584 N1592 1.356 . S
C1585 C1584 1.363 . S
C1585 C1591 1.363 . S
C1586 C1587 1.363 . S
C1586 C1591 1.379 . S
C1586 N1593 1.356 . S
C1587 C1586 1.363 . S
C1587 C1590 1.363 . S
N1588 C1590 1.356 . S
N1588 H1600 0.984 . S
N1588 H1601 0.985 . S
N1589 C1591 1.356 . S
N1589 H1594 0.984 . S
N1589 H1595 0.985 . S
C1590 C1584 1.379 . S
C1590 C1587 1.363 . S
C1590 N1588 1.356 . S
C1591 C1585 1.363 . S
C1591 C1586 1.379 . S
C1591 N1589 1.356 . S
N1592 C1584 1.356 . S
N1592 H1598 0.984 . S
N1592 H1599 0.984 . S
N1593 C1586 1.356 . S
N1593 H1596 0.984 . S
N1593 H1597 0.985 . S
H1594 N1589 0.984 . S
H1595 N1589 0.985 . S
H1596 N1593 0.984 . S
H1597 N1593 0.985 . S
H1598 N1592 0.984 . S
H1599 N1592 0.984 . S
H1600 N1588 0.984 . S
H1601 N1588 0.985 . S
C1602 C1603 1.363 . S
C1602 C1608 1.379 . S
C1602 N1610 1.356 . S
C1603 C1602 1.363 . S
C1603 C1609 1.363 . S
C1604 C1605 1.363 . S
C1604 C1609 1.379 . S
C1604 N1611 1.356 . S
C1605 C1604 1.363 . S
C1605 C1608 1.363 . S
N1606 C1608 1.356 . S
N1606 H1618 0.984 . S
N1606 H1619 0.985 . S
N1607 C1609 1.356 . S
N1607 H1612 0.984 . S
N1607 H1613 0.985 . S
C1608 C1602 1.379 . S
C1608 C1605 1.363 . S
C1608 N1606 1.356 . S
C1609 C1603 1.363 . S
C1609 C1604 1.379 . S
C1609 N1607 1.356 . S
N1610 C1602 1.356 . S
N1610 H1616 0.984 . S
N1610 H1617 0.984 . S
N1611 C1604 1.356 . S
N1611 H1614 0.984 . S
N1611 H1615 0.985 . S
H1612 N1607 0.984 . S
H1613 N1607 0.985 . S
H1614 N1611 0.984 . S
H1615 N1611 0.985 . S
H1616 N1610 0.984 . S
H1617 N1610 0.984 . S
H1618 N1606 0.984 . S
H1619 N1606 0.985 . S
C1620 C1621 1.363 . S
C1620 C1626 1.379 . S
C1620 N1628 1.356 . S
C1621 C1620 1.363 . S
C1621 C1627 1.363 . S
C1622 C1623 1.363 . S
C1622 C1627 1.379 . S
C1622 N1629 1.356 . S
C1623 C1622 1.363 . S
C1623 C1626 1.363 . S
N1624 C1626 1.356 . S
N1624 H1636 0.984 . S
N1624 H1637 0.985 . S
N1625 C1627 1.356 . S
N1625 H1630 0.984 . S
N1625 H1631 0.985 . S
C1626 C1620 1.379 . S
C1626 C1623 1.363 . S
C1626 N1624 1.356 . S
C1627 C1621 1.363 . S
C1627 C1622 1.379 . S
C1627 N1625 1.356 . S
N1628 C1620 1.356 . S
N1628 H1634 0.984 . S
N1628 H1635 0.984 . S
N1629 C1622 1.356 . S
N1629 H1632 0.984 . S
N1629 H1633 0.985 . S
H1630 N1625 0.984 . S
H1631 N1625 0.985 . S
H1632 N1629 0.984 . S
H1633 N1629 0.985 . S
H1634 N1628 0.984 . S
H1635 N1628 0.984 . S
H1636 N1624 0.984 . S
H1637 N1624 0.985 . S
C1638 C1639 1.363 . S
C1638 C1644 1.379 . S
C1638 N1646 1.356 . S
C1639 C1638 1.363 . S
C1639 C1645 1.363 . S
C1640 C1641 1.363 . S
C1640 C1645 1.379 . S
C1640 N1647 1.356 . S
C1641 C1640 1.363 . S
C1641 C1644 1.363 . S
N1642 C1644 1.356 . S
N1642 H1654 0.984 . S
N1642 H1655 0.985 . S
N1643 C1645 1.356 . S
N1643 H1648 0.984 . S
N1643 H1649 0.985 . S
C1644 C1638 1.379 . S
C1644 C1641 1.363 . S
C1644 N1642 1.356 . S
C1645 C1639 1.363 . S
C1645 C1640 1.379 . S
C1645 N1643 1.356 . S
N1646 C1638 1.356 . S
N1646 H1652 0.984 . S
N1646 H1653 0.984 . S
N1647 C1640 1.356 . S
N1647 H1650 0.984 . S
N1647 H1651 0.985 . S
H1648 N1643 0.984 . S
H1649 N1643 0.985 . S
H1650 N1647 0.984 . S
H1651 N1647 0.985 . S
H1652 N1646 0.984 . S
H1653 N1646 0.984 . S
H1654 N1642 0.984 . S
H1655 N1642 0.985 . S
C1656 C1657 1.363 . S
C1656 C1662 1.379 . S
C1656 N1664 1.356 . S
C1657 C1656 1.363 . S
C1657 C1663 1.363 . S
C1658 C1659 1.363 . S
C1658 C1663 1.379 . S
C1658 N1665 1.356 . S
C1659 C1658 1.363 . S
C1659 C1662 1.363 . S
N1660 C1662 1.356 . S
N1660 H1672 0.984 . S
N1660 H1673 0.985 . S
N1661 C1663 1.356 . S
N1661 H1666 0.984 . S
N1661 H1667 0.985 . S
C1662 C1656 1.379 . S
C1662 C1659 1.363 . S
C1662 N1660 1.356 . S
C1663 C1657 1.363 . S
C1663 C1658 1.379 . S
C1663 N1661 1.356 . S
N1664 C1656 1.356 . S
N1664 H1670 0.984 . S
N1664 H1671 0.984 . S
N1665 C1658 1.356 . S
N1665 H1668 0.984 . S
N1665 H1669 0.985 . S
H1666 N1661 0.984 . S
H1667 N1661 0.985 . S
H1668 N1665 0.984 . S
H1669 N1665 0.985 . S
H1670 N1664 0.984 . S
H1671 N1664 0.984 . S
H1672 N1660 0.984 . S
H1673 N1660 0.985 . S
C1674 C1675 1.363 . S
C1674 C1680 1.379 . S
C1674 N1682 1.356 . S
C1675 C1674 1.363 . S
C1675 C1681 1.363 . S
C1676 C1677 1.363 . S
C1676 C1681 1.379 . S
C1676 N1683 1.356 . S
C1677 C1676 1.363 . S
C1677 C1680 1.363 . S
N1678 C1680 1.356 . S
N1678 H1690 0.984 . S
N1678 H1691 0.985 . S
N1679 C1681 1.356 . S
N1679 H1684 0.984 . S
N1679 H1685 0.985 . S
C1680 C1674 1.379 . S
C1680 C1677 1.363 . S
C1680 N1678 1.356 . S
C1681 C1675 1.363 . S
C1681 C1676 1.379 . S
C1681 N1679 1.356 . S
N1682 C1674 1.356 . S
N1682 H1688 0.984 . S
N1682 H1689 0.984 . S
N1683 C1676 1.356 . S
N1683 H1686 0.984 . S
N1683 H1687 0.985 . S
H1684 N1679 0.984 . S
H1685 N1679 0.985 . S
H1686 N1683 0.984 . S
H1687 N1683 0.985 . S
H1688 N1682 0.984 . S
H1689 N1682 0.984 . S
H1690 N1678 0.984 . S
H1691 N1678 0.985 . S
C1692 C1693 1.363 . S
C1692 C1698 1.379 . S
C1692 N1700 1.356 . S
C1693 C1692 1.363 . S
C1693 C1699 1.363 . S
C1694 C1695 1.363 . S
C1694 C1699 1.379 . S
C1694 N1701 1.356 . S
C1695 C1694 1.363 . S
C1695 C1698 1.363 . S
N1696 C1698 1.356 . S
N1696 H1708 0.984 . S
N1696 H1709 0.985 . S
N1697 C1699 1.356 . S
N1697 H1702 0.984 . S
N1697 H1703 0.985 . S
C1698 C1692 1.379 . S
C1698 C1695 1.363 . S
C1698 N1696 1.356 . S
C1699 C1693 1.363 . S
C1699 C1694 1.379 . S
C1699 N1697 1.356 . S
N1700 C1692 1.356 . S
N1700 H1706 0.984 . S
N1700 H1707 0.984 . S
N1701 C1694 1.356 . S
N1701 H1704 0.984 . S
N1701 H1705 0.985 . S
H1702 N1697 0.984 . S
H1703 N1697 0.985 . S
H1704 N1701 0.984 . S
H1705 N1701 0.985 . S
H1706 N1700 0.984 . S
H1707 N1700 0.984 . S
H1708 N1696 0.984 . S
H1709 N1696 0.985 . S
C1710 C1711 1.363 . S
C1710 C1716 1.379 . S
C1710 N1718 1.356 . S
C1711 C1710 1.363 . S
C1711 C1717 1.363 . S
C1712 C1713 1.363 . S
C1712 C1717 1.379 . S
C1712 N1719 1.356 . S
C1713 C1712 1.363 . S
C1713 C1716 1.363 . S
N1714 C1716 1.356 . S
N1714 H1726 0.984 . S
N1714 H1727 0.985 . S
N1715 C1717 1.356 . S
N1715 H1720 0.984 . S
N1715 H1721 0.985 . S
C1716 C1710 1.379 . S
C1716 C1713 1.363 . S
C1716 N1714 1.356 . S
C1717 C1711 1.363 . S
C1717 C1712 1.379 . S
C1717 N1715 1.356 . S
N1718 C1710 1.356 . S
N1718 H1724 0.984 . S
N1718 H1725 0.984 . S
N1719 C1712 1.356 . S
N1719 H1722 0.984 . S
N1719 H1723 0.985 . S
H1720 N1715 0.984 . S
H1721 N1715 0.985 . S
H1722 N1719 0.984 . S
H1723 N1719 0.985 . S
H1724 N1718 0.984 . S
H1725 N1718 0.984 . S
H1726 N1714 0.984 . S
H1727 N1714 0.985 . S
C1728 C1729 1.363 . S
C1728 C1734 1.379 . S
C1728 N1736 1.356 . S
C1729 C1728 1.363 . S
C1729 C1735 1.363 . S
C1730 C1731 1.363 . S
C1730 C1735 1.379 . S
C1730 N1737 1.356 . S
C1731 C1730 1.363 . S
C1731 C1734 1.363 . S
N1732 C1734 1.356 . S
N1732 H1744 0.984 . S
N1732 H1745 0.985 . S
N1733 C1735 1.356 . S
N1733 H1738 0.984 . S
N1733 H1739 0.985 . S
C1734 C1728 1.379 . S
C1734 C1731 1.363 . S
C1734 N1732 1.356 . S
C1735 C1729 1.363 . S
C1735 C1730 1.379 . S
C1735 N1733 1.356 . S
N1736 C1728 1.356 . S
N1736 H1742 0.984 . S
N1736 H1743 0.984 . S
N1737 C1730 1.356 . S
N1737 H1740 0.984 . S
N1737 H1741 0.985 . S
H1738 N1733 0.984 . S
H1739 N1733 0.985 . S
H1740 N1737 0.984 . S
H1741 N1737 0.985 . S
H1742 N1736 0.984 . S
H1743 N1736 0.984 . S
H1744 N1732 0.984 . S
H1745 N1732 0.985 . S
C1746 C1747 1.363 . S
C1746 C1752 1.379 . S
C1746 N1754 1.356 . S
C1747 C1746 1.363 . S
C1747 C1753 1.363 . S
C1748 C1749 1.363 . S
C1748 C1753 1.379 . S
C1748 N1755 1.356 . S
C1749 C1748 1.363 . S
C1749 C1752 1.363 . S
N1750 C1752 1.356 . S
N1750 H1762 0.984 . S
N1750 H1763 0.985 . S
N1751 C1753 1.356 . S
N1751 H1756 0.984 . S
N1751 H1757 0.985 . S
C1752 C1746 1.379 . S
C1752 C1749 1.363 . S
C1752 N1750 1.356 . S
C1753 C1747 1.363 . S
C1753 C1748 1.379 . S
C1753 N1751 1.356 . S
N1754 C1746 1.356 . S
N1754 H1760 0.984 . S
N1754 H1761 0.984 . S
N1755 C1748 1.356 . S
N1755 H1758 0.984 . S
N1755 H1759 0.985 . S
H1756 N1751 0.984 . S
H1757 N1751 0.985 . S
H1758 N1755 0.984 . S
H1759 N1755 0.985 . S
H1760 N1754 0.984 . S
H1761 N1754 0.984 . S
H1762 N1750 0.984 . S
H1763 N1750 0.985 . S
C1764 C1765 1.363 . S
C1764 C1770 1.379 . S
C1764 N1772 1.356 . S
C1765 C1764 1.363 . S
C1765 C1771 1.363 . S
C1766 C1767 1.363 . S
C1766 C1771 1.379 . S
C1766 N1773 1.356 . S
C1767 C1766 1.363 . S
C1767 C1770 1.363 . S
N1768 C1770 1.356 . S
N1768 H1780 0.984 . S
N1768 H1781 0.985 . S
N1769 C1771 1.356 . S
N1769 H1774 0.984 . S
N1769 H1775 0.985 . S
C1770 C1764 1.379 . S
C1770 C1767 1.363 . S
C1770 N1768 1.356 . S
C1771 C1765 1.363 . S
C1771 C1766 1.379 . S
C1771 N1769 1.356 . S
N1772 C1764 1.356 . S
N1772 H1778 0.984 1_554 S
N1772 H1779 0.984 . S
N1773 C1766 1.356 . S
N1773 H1776 0.984 . S
N1773 H1777 0.985 . S
H1774 N1769 0.984 . S
H1775 N1769 0.985 . S
H1776 N1773 0.984 . S
H1777 N1773 0.985 . S
H1778 N1772 0.984 1_556 S
H1779 N1772 0.984 . S
H1780 N1768 0.984 . S
H1781 N1768 0.985 . S
C1782 C1783 1.363 . S
C1782 C1788 1.379 . S
C1782 N1790 1.356 . S
C1783 C1782 1.363 . S
C1783 C1789 1.363 . S
C1784 C1785 1.363 . S
C1784 C1789 1.379 . S
C1784 N1791 1.356 . S
C1785 C1784 1.363 . S
C1785 C1788 1.363 . S
N1786 C1788 1.356 . S
N1786 H1798 0.984 . S
N1786 H1799 0.985 . S
N1787 C1789 1.356 . S
N1787 H1792 0.984 . S
N1787 H1793 0.985 . S
C1788 C1782 1.379 . S
C1788 C1785 1.363 . S
C1788 N1786 1.356 . S
C1789 C1783 1.363 . S
C1789 C1784 1.379 . S
C1789 N1787 1.356 . S
N1790 C1782 1.356 . S
N1790 H1796 0.984 1_554 S
N1790 H1797 0.984 . S
N1791 C1784 1.356 . S
N1791 H1794 0.984 . S
N1791 H1795 0.985 . S
H1792 N1787 0.984 . S
H1793 N1787 0.985 . S
H1794 N1791 0.984 . S
H1795 N1791 0.985 . S
H1796 N1790 0.984 1_556 S
H1797 N1790 0.984 . S
H1798 N1786 0.984 . S
H1799 N1786 0.985 . S
C1800 C1801 1.363 . S
C1800 C1806 1.379 . S
C1800 N1808 1.356 . S
C1801 C1800 1.363 . S
C1801 C1807 1.363 . S
C1802 C1803 1.363 . S
C1802 C1807 1.379 . S
C1802 N1809 1.356 . S
C1803 C1802 1.363 . S
C1803 C1806 1.363 . S
N1804 C1806 1.356 . S
N1804 H1816 0.984 . S
N1804 H1817 0.985 . S
N1805 C1807 1.356 . S
N1805 H1810 0.984 . S
N1805 H1811 0.985 1_554 S
C1806 C1800 1.379 . S
C1806 C1803 1.363 . S
C1806 N1804 1.356 . S
C1807 C1801 1.363 . S
C1807 C1802 1.379 . S
C1807 N1805 1.356 . S
N1808 C1800 1.356 . S
N1808 H1814 0.984 . S
N1808 H1815 0.984 . S
N1809 C1802 1.356 . S
N1809 H1812 0.984 . S
N1809 H1813 0.985 . S
H1810 N1805 0.984 . S
H1811 N1805 0.985 1_556 S
H1812 N1809 0.984 . S
H1813 N1809 0.985 . S
H1814 N1808 0.984 . S
H1815 N1808 0.984 . S
H1816 N1804 0.984 . S
H1817 N1804 0.985 . S
C1818 C1819 1.363 . S
C1818 C1824 1.379 . S
C1818 N1826 1.356 . S
C1819 C1818 1.363 . S
C1819 C1825 1.363 . S
C1820 C1821 1.363 . S
C1820 C1825 1.379 . S
C1820 N1827 1.356 . S
C1821 C1820 1.363 . S
C1821 C1824 1.363 . S
N1822 C1824 1.356 . S
N1822 H1834 0.984 . S
N1822 H1835 0.985 . S
N1823 C1825 1.356 . S
N1823 H1828 0.984 1_556 S
N1823 H1829 0.985 1_556 S
C1824 C1818 1.379 . S
C1824 C1821 1.363 . S
C1824 N1822 1.356 . S
C1825 C1819 1.363 . S
C1825 C1820 1.379 . S
C1825 N1823 1.356 . S
N1826 C1818 1.356 . S
N1826 H1832 0.984 . S
N1826 H1833 0.984 . S
N1827 C1820 1.356 . S
N1827 H1830 0.984 . S
N1827 H1831 0.985 . S
H1828 N1823 0.984 1_554 S
H1829 N1823 0.985 1_554 S
H1830 N1827 0.984 . S
H1831 N1827 0.985 . S
H1832 N1826 0.984 . S
H1833 N1826 0.984 . S
H1834 N1822 0.984 . S
H1835 N1822 0.985 . S
C1836 C1837 1.363 . S
C1836 C1842 1.379 . S
C1836 N1844 1.356 1_556 S
C1837 C1836 1.363 . S
C1837 C1843 1.363 . S
C1838 C1839 1.363 . S
C1838 C1843 1.379 . S
C1838 N1845 1.356 . S
C1839 C1838 1.363 . S
C1839 C1842 1.363 . S
N1840 C1842 1.356 . S
N1840 H1852 0.984 . S
N1840 H1853 0.985 . S
N1841 C1843 1.356 . S
N1841 H1846 0.984 . S
N1841 H1847 0.985 . S
C1842 C1836 1.379 . S
C1842 C1839 1.363 . S
C1842 N1840 1.356 . S
C1843 C1837 1.363 . S
C1843 C1838 1.379 . S
C1843 N1841 1.356 . S
N1844 C1836 1.356 1_554 S
N1844 H1850 0.984 . S
N1844 H1851 0.984 . S
N1845 C1838 1.356 . S
N1845 H1848 0.984 . S
N1845 H1849 0.985 . S
H1846 N1841 0.984 . S
H1847 N1841 0.985 . S
H1848 N1845 0.984 . S
H1849 N1845 0.985 . S
H1850 N1844 0.984 . S
H1851 N1844 0.984 . S
H1852 N1840 0.984 . S
H1853 N1840 0.985 . S
C1854 C1855 1.363 . S
C1854 C1860 1.379 . S
C1854 N1862 1.356 . S
C1855 C1854 1.363 . S
C1855 C1861 1.363 . S
C1856 C1857 1.363 . S
C1856 C1861 1.379 . S
C1856 N1863 1.356 . S
C1857 C1856 1.363 . S
C1857 C1860 1.363 . S
N1858 C1860 1.356 . S
N1858 H1870 0.984 . S
N1858 H1871 0.985 . S
N1859 C1861 1.356 . S
N1859 H1864 0.984 . S
N1859 H1865 0.985 . S
C1860 C1854 1.379 . S
C1860 C1857 1.363 . S
C1860 N1858 1.356 . S
C1861 C1855 1.363 . S
C1861 C1856 1.379 . S
C1861 N1859 1.356 . S
N1862 C1854 1.356 . S
N1862 H1868 0.995 . S
N1862 H1869 0.984 . S
N1863 C1856 1.356 . S
N1863 H1866 0.984 . S
N1863 H1867 0.985 . S
H1864 N1859 0.984 . S
H1865 N1859 0.985 . S
H1866 N1863 0.984 . S
H1867 N1863 0.985 . S
H1868 N1862 0.995 . S
H1869 N1862 0.984 . S
H1870 N1858 0.984 . S
H1871 N1858 0.985 . S
C1872 C1873 1.363 . S
C1872 C1878 1.379 . S
C1872 N1880 1.356 1_556 S
C1873 C1872 1.363 . S
C1873 C1879 1.363 . S
C1874 C1875 1.363 . S
C1874 C1879 1.379 . S
C1874 N1881 1.356 . S
C1875 C1874 1.363 . S
C1875 C1878 1.363 . S
N1876 C1878 1.356 . S
N1876 H1888 0.984 1_556 S
N1876 H1889 0.985 . S
N1877 C1879 1.356 . S
N1877 H1882 0.984 . S
N1877 H1883 0.985 . S
C1878 C1872 1.379 . S
C1878 C1875 1.363 . S
C1878 N1876 1.356 . S
C1879 C1873 1.363 . S
C1879 C1874 1.379 . S
C1879 N1877 1.356 . S
N1880 C1872 1.356 1_554 S
N1880 H1886 0.984 . S
N1880 H1887 0.984 . S
N1881 C1874 1.356 . S
N1881 H1884 0.984 . S
N1881 H1885 0.985 . S
H1882 N1877 0.984 . S
H1883 N1877 0.985 . S
H1884 N1881 0.984 . S
H1885 N1881 0.985 . S
H1886 N1880 0.984 . S
H1887 N1880 0.984 . S
H1888 N1876 0.984 1_554 S
H1889 N1876 0.985 . S
C1890 C1891 1.363 . S
C1890 C1896 1.379 . S
C1890 N1898 1.356 . S
C1891 C1890 1.363 . S
C1891 C1897 1.363 . S
C1892 C1893 1.363 . S
C1892 C1897 1.379 . S
C1892 N1899 1.356 . S
C1893 C1892 1.363 . S
C1893 C1896 1.363 . S
N1894 C1896 1.356 . S
N1894 H1906 0.984 . S
N1894 H1907 0.985 . S
N1895 C1897 1.356 . S
N1895 H1900 0.984 . S
N1895 H1901 0.985 . S
C1896 C1890 1.379 . S
C1896 C1893 1.363 . S
C1896 N1894 1.356 . S
C1897 C1891 1.363 . S
C1897 C1892 1.379 . S
C1897 N1895 1.356 . S
N1898 C1890 1.356 . S
N1898 H1904 0.984 1_556 S
N1898 H1905 0.984 1_556 S
N1899 C1892 1.356 . S
N1899 H1902 0.984 . S
N1899 H1903 0.985 . S
H1900 N1895 0.984 . S
H1901 N1895 0.985 . S
H1902 N1899 0.984 . S
H1903 N1899 0.985 . S
H1904 N1898 0.984 1_554 S
H1905 N1898 0.984 1_554 S
H1906 N1894 0.984 . S
H1907 N1894 0.985 . S
C1908 C1909 1.363 . S
C1908 C1914 1.379 . S
C1908 N1916 1.356 . S
C1909 C1908 1.363 . S
C1909 C1915 1.363 . S
C1910 C1911 1.363 . S
C1910 C1915 1.379 . S
C1910 N1917 1.356 . S
C1911 C1910 1.363 . S
C1911 C1914 1.363 . S
N1912 C1914 1.356 . S
N1912 H1924 0.984 . S
N1912 H1925 0.985 . S
N1913 C1915 1.356 . S
N1913 H1918 0.984 . S
N1913 H1919 0.985 . S
C1914 C1908 1.379 . S
C1914 C1911 1.363 . S
C1914 N1912 1.356 . S
C1915 C1909 1.363 . S
C1915 C1910 1.379 . S
C1915 N1913 1.356 . S
N1916 C1908 1.356 . S
N1916 H1922 0.984 . S
N1916 H1923 0.984 . S
N1917 C1910 1.356 . S
N1917 H1920 0.984 . S
N1917 H1921 0.985 . S
H1918 N1913 0.984 . S
H1919 N1913 0.985 . S
H1920 N1917 0.984 . S
H1921 N1917 0.985 . S
H1922 N1916 0.984 . S
H1923 N1916 0.984 . S
H1924 N1912 0.984 . S
H1925 N1912 0.985 . S
C1926 C1927 1.363 . S
C1926 C1932 1.379 . S
C1926 N1934 1.356 . S
C1927 C1926 1.363 . S
C1927 C1933 1.363 . S
C1928 C1929 1.363 . S
C1928 C1933 1.379 . S
C1928 N1935 1.356 . S
C1929 C1928 1.363 . S
C1929 C1932 1.363 . S
N1930 C1932 1.356 . S
N1930 H1942 0.984 . S
N1930 H1943 0.985 . S
N1931 C1933 1.356 . S
N1931 H1936 0.984 . S
N1931 H1937 0.985 . S
C1932 C1926 1.379 . S
C1932 C1929 1.363 . S
C1932 N1930 1.356 . S
C1933 C1927 1.363 . S
C1933 C1928 1.379 . S
C1933 N1931 1.356 . S
N1934 C1926 1.356 . S
N1934 H1940 0.984 . S
N1934 H1941 0.984 . S
N1935 C1928 1.356 . S
N1935 H1938 0.984 . S
N1935 H1939 0.985 . S
H1936 N1931 0.984 . S
H1937 N1931 0.985 . S
H1938 N1935 0.984 . S
H1939 N1935 0.985 . S
H1940 N1934 0.984 . S
H1941 N1934 0.984 . S
H1942 N1930 0.984 . S
H1943 N1930 0.985 . S
C1944 C1945 1.363 . S
C1944 C1950 1.379 . S
C1944 N1952 1.356 . S
C1945 C1944 1.363 . S
C1945 C1951 1.363 . S
C1946 C1947 1.363 . S
C1946 C1951 1.379 . S
C1946 N1953 1.356 . S
C1947 C1946 1.363 . S
C1947 C1950 1.363 . S
N1948 C1950 1.356 . S
N1948 H1960 0.984 . S
N1948 H1961 0.985 . S
N1949 C1951 1.356 . S
N1949 H1954 0.984 . S
N1949 H1955 0.985 . S
C1950 C1944 1.379 . S
C1950 C1947 1.363 . S
C1950 N1948 1.356 . S
C1951 C1945 1.363 . S
C1951 C1946 1.379 . S
C1951 N1949 1.356 . S
N1952 C1944 1.356 . S
N1952 H1958 0.984 . S
N1952 H1959 0.984 . S
N1953 C1946 1.356 . S
N1953 H1956 0.984 . S
N1953 H1957 0.985 . S
H1954 N1949 0.984 . S
H1955 N1949 0.985 . S
H1956 N1953 0.984 . S
H1957 N1953 0.985 . S
H1958 N1952 0.984 . S
H1959 N1952 0.984 . S
H1960 N1948 0.984 . S
H1961 N1948 0.985 . S
C1962 C1963 1.363 . S
C1962 C1968 1.379 . S
C1962 N1970 1.356 . S
C1963 C1962 1.363 . S
C1963 C1969 1.363 . S
C1964 C1965 1.363 . S
C1964 C1969 1.379 . S
C1964 N1971 1.356 . S
C1965 C1964 1.363 . S
C1965 C1968 1.363 . S
N1966 C1968 1.356 . S
N1966 H1978 0.984 . S
N1966 H1979 0.985 . S
N1967 C1969 1.356 . S
N1967 H1972 0.984 . S
N1967 H1973 0.985 . S
C1968 C1962 1.379 . S
C1968 C1965 1.363 . S
C1968 N1966 1.356 . S
C1969 C1963 1.363 . S
C1969 C1964 1.379 . S
C1969 N1967 1.356 . S
N1970 C1962 1.356 . S
N1970 H1976 0.953 1_554 S
N1970 H1977 0.984 . S
N1971 C1964 1.356 . S
N1971 H1974 0.984 . S
N1971 H1975 0.985 . S
H1972 N1967 0.984 . S
H1973 N1967 0.985 . S
H1974 N1971 0.984 . S
H1975 N1971 0.985 . S
H1976 N1970 0.953 1_556 S
H1977 N1970 0.984 . S
H1978 N1966 0.984 . S
H1979 N1966 0.985 . S
C1980 C1981 1.363 . S
C1980 C1986 1.379 . S
C1980 N1988 1.356 . S
C1981 C1980 1.363 . S
C1981 C1987 1.363 . S
C1982 C1983 1.363 . S
C1982 C1987 1.379 . S
C1982 N1989 1.356 . S
C1983 C1982 1.363 . S
C1983 C1986 1.363 . S
N1984 C1986 1.356 . S
N1984 H1996 0.984 . S
N1984 H1997 0.985 . S
N1985 C1987 1.356 . S
N1985 H1990 0.984 . S
N1985 H1991 0.985 . S
C1986 C1980 1.379 . S
C1986 C1983 1.363 . S
C1986 N1984 1.356 . S
C1987 C1981 1.363 . S
C1987 C1982 1.379 . S
C1987 N1985 1.356 . S
N1988 C1980 1.356 . S
N1988 H1994 0.984 . S
N1988 H1995 0.984 . S
N1989 C1982 1.356 . S
N1989 H1992 0.984 . S
N1989 H1993 0.985 . S
H1990 N1985 0.984 . S
H1991 N1985 0.985 . S
H1992 N1989 0.984 . S
H1993 N1989 0.985 . S
H1994 N1988 0.984 . S
H1995 N1988 0.984 . S
H1996 N1984 0.984 . S
H1997 N1984 0.985 . S
C1998 C1999 1.363 . S
C1998 C2004 1.379 . S
C1998 N2006 1.356 . S
C1999 C1998 1.363 . S
C1999 C2005 1.363 . S
C2000 C2001 1.363 . S
C2000 C2005 1.379 . S
C2000 N2007 1.356 . S
C2001 C2000 1.363 . S
C2001 C2004 1.363 . S
N2002 C2004 1.356 . S
N2002 H2014 0.984 . S
N2002 H2015 0.985 . S
N2003 C2005 1.356 . S
N2003 H2008 0.984 . S
N2003 H2009 0.985 . S
C2004 C1998 1.379 . S
C2004 C2001 1.363 . S
C2004 N2002 1.356 . S
C2005 C1999 1.363 . S
C2005 C2000 1.379 . S
C2005 N2003 1.356 . S
N2006 C1998 1.356 . S
N2006 H2012 0.984 . S
N2006 H2013 0.984 . S
N2007 C2000 1.356 . S
N2007 H2010 0.984 . S
N2007 H2011 0.985 . S
H2008 N2003 0.984 . S
H2009 N2003 0.985 . S
H2010 N2007 0.984 . S
H2011 N2007 0.985 . S
H2012 N2006 0.984 . S
H2013 N2006 0.984 . S
H2014 N2002 0.984 . S
H2015 N2002 0.985 . S
C2016 C2017 1.363 . S
C2016 C2022 1.379 . S
C2016 N2024 1.356 . S
C2017 C2016 1.363 . S
C2017 C2023 1.363 . S
C2018 C2019 1.363 . S
C2018 C2023 1.379 . S
C2018 N2025 1.356 . S
C2019 C2018 1.363 . S
C2019 C2022 1.363 . S
N2020 C2022 1.356 . S
N2020 H2032 0.984 . S
N2020 H2033 0.985 . S
N2021 C2023 1.356 . S
N2021 H2026 0.984 . S
N2021 H2027 0.985 . S
C2022 C2016 1.379 . S
C2022 C2019 1.363 . S
C2022 N2020 1.356 . S
C2023 C2017 1.363 . S
C2023 C2018 1.379 . S
C2023 N2021 1.356 . S
N2024 C2016 1.356 . S
N2024 H2030 0.984 . S
N2024 H2031 0.984 . S
N2025 C2018 1.356 . S
N2025 H2028 0.984 . S
N2025 H2029 0.985 . S
H2026 N2021 0.984 . S
H2027 N2021 0.985 . S
H2028 N2025 0.984 . S
H2029 N2025 0.985 . S
H2030 N2024 0.984 . S
H2031 N2024 0.984 . S
H2032 N2020 0.984 . S
H2033 N2020 0.985 . S
C2034 C2035 1.363 1_655 S
C2034 C2040 1.379 . S
C2034 N2042 1.356 . S
C2035 C2034 1.363 1_455 S
C2035 C2041 1.363 . S
C2036 C2037 1.363 . S
C2036 C2041 1.379 . S
C2036 N2043 1.356 . S
C2037 C2036 1.363 . S
C2037 C2040 1.363 1_455 S
N2038 C2040 1.356 . S
N2038 H2050 0.984 . S
N2038 H2051 0.985 . S
N2039 C2041 1.356 . S
N2039 H2044 0.984 . S
N2039 H2045 0.985 . S
C2040 C2034 1.379 . S
C2040 C2037 1.363 1_655 S
C2040 N2038 1.356 . S
C2041 C2035 1.363 . S
C2041 C2036 1.379 . S
C2041 N2039 1.356 . S
N2042 C2034 1.356 . S
N2042 H2048 0.984 . S
N2042 H2049 0.984 . S
N2043 C2036 1.356 . S
N2043 H2046 0.984 . S
N2043 H2047 0.985 . S
H2044 N2039 0.984 . S
H2045 N2039 0.985 . S
H2046 N2043 0.984 . S
H2047 N2043 0.985 . S
H2048 N2042 0.984 . S
H2049 N2042 0.984 . S
H2050 N2038 0.984 . S
H2051 N2038 0.985 . S
C2052 C2053 1.363 . S
C2052 C2058 1.379 . S
C2052 N2060 1.356 . S
C2053 C2052 1.363 . S
C2053 C2059 1.363 . S
C2054 C2055 1.363 . S
C2054 C2059 1.379 . S
C2054 N2061 1.356 . S
C2055 C2054 1.363 . S
C2055 C2058 1.363 . S
N2056 C2058 1.356 . S
N2056 H2068 0.984 . S
N2056 H2069 0.985 . S
N2057 C2059 1.356 . S
N2057 H2062 0.984 . S
N2057 H2063 0.985 . S
C2058 C2052 1.379 . S
C2058 C2055 1.363 . S
C2058 N2056 1.356 . S
C2059 C2053 1.363 . S
C2059 C2054 1.379 . S
C2059 N2057 1.356 . S
N2060 C2052 1.356 . S
N2060 H2066 0.984 . S
N2060 H2067 0.984 . S
N2061 C2054 1.356 . S
N2061 H2064 0.984 . S
N2061 H2065 0.985 . S
H2062 N2057 0.984 . S
H2063 N2057 0.985 . S
H2064 N2061 0.984 . S
H2065 N2061 0.985 . S
H2066 N2060 0.984 . S
H2067 N2060 0.984 . S
H2068 N2056 0.984 . S
H2069 N2056 0.985 . S
C2070 C2071 1.363 . S
C2070 C2076 1.379 . S
C2070 N2078 1.356 . S
C2071 C2070 1.363 . S
C2071 C2077 1.363 1_565 S
C2072 C2073 1.363 1_545 S
C2072 C2077 1.379 . S
C2072 N2079 1.356 . S
C2073 C2072 1.363 1_565 S
C2073 C2076 1.363 . S
N2074 C2076 1.356 . S
N2074 H2086 0.984 . S
N2074 H2087 0.985 . S
N2075 C2077 1.356 . S
N2075 H2080 0.984 . S
N2075 H2081 0.985 . S
C2076 C2070 1.379 . S
C2076 C2073 1.363 . S
C2076 N2074 1.356 . S
C2077 C2071 1.363 1_545 S
C2077 C2072 1.379 . S
C2077 N2075 1.356 . S
N2078 C2070 1.356 . S
N2078 H2084 0.984 . S
N2078 H2085 0.984 . S
N2079 C2072 1.356 . S
N2079 H2082 0.984 . S
N2079 H2083 0.985 . S
H2080 N2075 0.984 . S
H2081 N2075 0.985 . S
H2082 N2079 0.984 . S
H2083 N2079 0.985 . S
H2084 N2078 0.984 . S
H2085 N2078 0.984 . S
H2086 N2074 0.984 . S
H2087 N2074 0.985 . S
C2088 C2089 1.373 . S
C2088 C2094 1.346 1_565 S
C2088 N2096 1.366 1_565 S
C2089 C2088 1.373 . S
C2089 C2095 1.363 . S
C2090 C2091 1.363 . S
C2090 C2095 1.379 . S
C2090 N2097 1.356 . S
C2091 C2090 1.363 . S
C2091 C2094 1.371 1_565 S
N2092 C2094 1.373 . S
N2092 H2104 0.984 . S
N2092 H2105 0.985 . S
N2093 C2095 1.356 . S
N2093 H2098 0.984 . S
N2093 H2099 0.985 . S
C2094 C2088 1.346 1_545 S
C2094 C2091 1.371 1_545 S
C2094 N2092 1.373 . S
C2095 C2089 1.363 . S
C2095 C2090 1.379 . S
C2095 N2093 1.356 . S
N2096 C2088 1.366 1_545 S
N2096 H2102 0.984 . S
N2096 H2103 0.984 . S
N2097 C2090 1.356 . S
N2097 H2100 0.984 . S
N2097 H2101 0.985 . S
H2098 N2093 0.984 . S
H2099 N2093 0.985 . S
H2100 N2097 0.984 . S
H2101 N2097 0.985 . S
H2102 N2096 0.984 . S
H2103 N2096 0.984 . S
H2104 N2092 0.984 . S
H2105 N2092 0.985 . S
C2106 C2107 1.352 1_655 S
C2106 C2112 1.362 . S
C2106 N2114 1.386 . S
C2107 C2106 1.352 1_455 S
C2107 C2113 1.363 . S
C2108 C2109 1.363 . S
C2108 C2113 1.379 . S
C2108 N2115 1.356 . S
C2109 C2108 1.363 . S
C2109 C2112 1.363 1_455 S
N2110 C2112 1.356 . S
N2110 H2122 0.984 . S
N2110 H2123 0.985 . S
N2111 C2113 1.356 . S
N2111 H2116 0.984 . S
N2111 H2117 0.985 . S
C2112 C2106 1.362 . S
C2112 C2109 1.363 1_655 S
C2112 N2110 1.356 . S
C2113 C2107 1.363 . S
C2113 C2108 1.379 . S
C2113 N2111 1.356 . S
N2114 C2106 1.386 . S
N2114 H2120 0.984 . S
N2114 H2121 0.984 . S
N2115 C2108 1.356 . S
N2115 H2118 0.984 . S
N2115 H2119 0.985 . S
H2116 N2111 0.984 . S
H2117 N2111 0.985 . S
H2118 N2115 0.984 . S
H2119 N2115 0.985 . S
H2120 N2114 0.984 . S
H2121 N2114 0.984 . S
H2122 N2110 0.984 . S
H2123 N2110 0.985 . S
C2124 C2125 1.363 . S
C2124 C2130 1.379 . S
C2124 N2132 1.356 . S
C2125 C2124 1.363 . S
C2125 C2131 1.363 . S
C2126 C2127 1.363 . S
C2126 C2131 1.379 . S
C2126 N2133 1.356 . S
C2127 C2126 1.363 . S
C2127 C2130 1.363 . S
N2128 C2130 1.356 . S
N2128 H2140 0.984 . S
N2128 H2141 0.985 . S
N2129 C2131 1.356 . S
N2129 H2134 0.984 . S
N2129 H2135 0.985 . S
C2130 C2124 1.379 . S
C2130 C2127 1.363 . S
C2130 N2128 1.356 . S
C2131 C2125 1.363 . S
C2131 C2126 1.379 . S
C2131 N2129 1.356 . S
N2132 C2124 1.356 . S
N2132 H2138 0.984 . S
N2132 H2139 0.984 . S
N2133 C2126 1.356 . S
N2133 H2136 0.984 . S
N2133 H2137 0.985 . S
H2134 N2129 0.984 . S
H2135 N2129 0.985 . S
H2136 N2133 0.984 . S
H2137 N2133 0.985 . S
H2138 N2132 0.984 . S
H2139 N2132 0.984 . S
H2140 N2128 0.984 . S
H2141 N2128 0.985 . S
C2142 C2143 1.363 . S
C2142 C2148 1.379 . S
C2142 N2150 1.356 . S
C2143 C2142 1.363 . S
C2143 C2149 1.363 . S
C2144 C2145 1.363 . S
C2144 C2149 1.379 . S
C2144 N2151 1.356 . S
C2145 C2144 1.363 . S
C2145 C2148 1.363 . S
N2146 C2148 1.356 . S
N2146 H2158 0.984 . S
N2146 H2159 0.985 . S
N2147 C2149 1.356 . S
N2147 H2152 0.984 . S
N2147 H2153 0.985 . S
C2148 C2142 1.379 . S
C2148 C2145 1.363 . S
C2148 N2146 1.356 . S
C2149 C2143 1.363 . S
C2149 C2144 1.379 . S
C2149 N2147 1.356 . S
N2150 C2142 1.356 . S
N2150 H2156 0.984 . S
N2150 H2157 0.984 . S
N2151 C2144 1.356 . S
N2151 H2154 0.984 . S
N2151 H2155 0.985 . S
H2152 N2147 0.984 . S
H2153 N2147 0.985 . S
H2154 N2151 0.984 . S
H2155 N2151 0.985 . S
H2156 N2150 0.984 . S
H2157 N2150 0.984 . S
H2158 N2146 0.984 . S
H2159 N2146 0.985 . S
C2160 C2161 1.363 . S
C2160 C2166 1.379 . S
C2160 N2168 1.356 . S
C2161 C2160 1.363 . S
C2161 C2167 1.363 . S
C2162 C2163 1.363 . S
C2162 C2167 1.379 . S
C2162 N2169 1.356 . S
C2163 C2162 1.363 . S
C2163 C2166 1.363 . S
N2164 C2166 1.356 . S
N2164 H2176 0.984 . S
N2164 H2177 0.985 . S
N2165 C2167 1.356 . S
N2165 H2170 0.984 . S
N2165 H2171 0.985 . S
C2166 C2160 1.379 . S
C2166 C2163 1.363 . S
C2166 N2164 1.356 . S
C2167 C2161 1.363 . S
C2167 C2162 1.379 . S
C2167 N2165 1.356 . S
N2168 C2160 1.356 . S
N2168 H2174 0.984 . S
N2168 H2175 0.984 . S
N2169 C2162 1.356 . S
N2169 H2172 0.984 . S
N2169 H2173 0.985 . S
H2170 N2165 0.984 . S
H2171 N2165 0.985 . S
H2172 N2169 0.984 . S
H2173 N2169 0.985 . S
H2174 N2168 0.984 . S
H2175 N2168 0.984 . S
H2176 N2164 0.984 . S
H2177 N2164 0.985 . S
C2178 C2179 1.363 . S
C2178 C2184 1.379 . S
C2178 N2186 1.356 . S
C2179 C2178 1.363 . S
C2179 C2185 1.363 . S
C2180 C2181 1.363 . S
C2180 C2185 1.379 . S
C2180 N2187 1.356 . S
C2181 C2180 1.363 . S
C2181 C2184 1.363 . S
N2182 C2184 1.356 . S
N2182 H2194 0.984 . S
N2182 H2195 0.985 . S
N2183 C2185 1.356 . S
N2183 H2188 0.984 . S
N2183 H2189 0.985 . S
C2184 C2178 1.379 . S
C2184 C2181 1.363 . S
C2184 N2182 1.356 . S
C2185 C2179 1.363 . S
C2185 C2180 1.379 . S
C2185 N2183 1.356 . S
N2186 C2178 1.356 . S
N2186 H2192 0.984 . S
N2186 H2193 0.984 . S
N2187 C2180 1.356 . S
N2187 H2190 0.984 . S
N2187 H2191 0.985 . S
H2188 N2183 0.984 . S
H2189 N2183 0.985 . S
H2190 N2187 0.984 . S
H2191 N2187 0.985 . S
H2192 N2186 0.984 . S
H2193 N2186 0.984 . S
H2194 N2182 0.984 . S
H2195 N2182 0.985 . S
C2196 C2197 1.363 1_565 S
C2196 C2202 1.379 . S
C2196 N2204 1.356 . S
C2197 C2196 1.363 1_545 S
C2197 C2203 1.363 . S
C2198 C2199 1.363 . S
C2198 C2203 1.379 . S
C2198 N2205 1.356 . S
C2199 C2198 1.363 . S
C2199 C2202 1.363 1_545 S
N2200 C2202 1.356 . S
N2200 H2212 0.984 . S
N2200 H2213 0.985 . S
N2201 C2203 1.356 . S
N2201 H2206 0.984 . S
N2201 H2207 0.985 . S
C2202 C2196 1.379 . S
C2202 C2199 1.363 1_565 S
C2202 N2200 1.356 . S
C2203 C2197 1.363 . S
C2203 C2198 1.379 . S
C2203 N2201 1.356 . S
N2204 C2196 1.356 . S
N2204 H2210 0.984 . S
N2204 H2211 0.984 . S
N2205 C2198 1.356 . S
N2205 H2208 0.984 . S
N2205 H2209 0.985 . S
H2206 N2201 0.984 . S
H2207 N2201 0.985 . S
H2208 N2205 0.984 . S
H2209 N2205 0.985 . S
H2210 N2204 0.984 . S
H2211 N2204 0.984 . S
H2212 N2200 0.984 . S
H2213 N2200 0.985 . S
C2214 C2215 1.363 . S
C2214 C2220 1.379 . S
C2214 N2222 1.356 . S
C2215 C2214 1.363 . S
C2215 C2221 1.363 1_655 S
C2216 C2217 1.363 1_455 S
C2216 C2221 1.379 . S
C2216 N2223 1.356 . S
C2217 C2216 1.363 1_655 S
C2217 C2220 1.363 . S
N2218 C2220 1.356 . S
N2218 H2230 0.984 . S
N2218 H2231 0.985 . S
N2219 C2221 1.356 . S
N2219 H2224 0.984 . S
N2219 H2225 0.985 . S
C2220 C2214 1.379 . S
C2220 C2217 1.363 . S
C2220 N2218 1.356 . S
C2221 C2215 1.363 1_455 S
C2221 C2216 1.379 . S
C2221 N2219 1.356 . S
N2222 C2214 1.356 . S
N2222 H2228 0.984 . S
N2222 H2229 0.984 . S
N2223 C2216 1.356 . S
N2223 H2226 0.984 . S
N2223 H2227 0.985 . S
H2224 N2219 0.984 . S
H2225 N2219 0.985 . S
H2226 N2223 0.984 . S
H2227 N2223 0.985 . S
H2228 N2222 0.984 . S
H2229 N2222 0.984 . S
H2230 N2218 0.984 . S
H2231 N2218 0.985 . S
C2232 C2233 1.363 . S
C2232 C2238 1.379 . S
C2232 N2240 1.356 . S
C2233 C2232 1.363 . S
C2233 C2239 1.363 . S
C2234 C2235 1.363 . S
C2234 C2239 1.379 . S
C2234 N2241 1.356 . S
C2235 C2234 1.363 . S
C2235 C2238 1.363 . S
N2236 C2238 1.356 . S
N2236 H2248 0.984 . S
N2236 H2249 0.985 . S
N2237 C2239 1.356 . S
N2237 H2242 0.984 . S
N2237 H2243 0.985 . S
C2238 C2232 1.379 . S
C2238 C2235 1.363 . S
C2238 N2236 1.356 . S
C2239 C2233 1.363 . S
C2239 C2234 1.379 . S
C2239 N2237 1.356 . S
N2240 C2232 1.356 . S
N2240 H2246 0.984 . S
N2240 H2247 0.984 . S
N2241 C2234 1.356 . S
N2241 H2244 0.984 . S
N2241 H2245 0.985 . S
H2242 N2237 0.984 . S
H2243 N2237 0.985 . S
H2244 N2241 0.984 . S
H2245 N2241 0.985 . S
H2246 N2240 0.984 . S
H2247 N2240 0.984 . S
H2248 N2236 0.984 . S
H2249 N2236 0.985 . S
C2250 C2251 1.363 . S
C2250 C2256 1.379 . S
C2250 N2258 1.356 . S
C2251 C2250 1.363 . S
C2251 C2257 1.363 . S
C2252 C2253 1.363 . S
C2252 C2257 1.379 . S
C2252 N2259 1.356 . S
C2253 C2252 1.363 . S
C2253 C2256 1.363 . S
N2254 C2256 1.356 . S
N2254 H2266 0.984 . S
N2254 H2267 0.985 . S
N2255 C2257 1.356 . S
N2255 H2260 0.984 . S
N2255 H2261 0.985 . S
C2256 C2250 1.379 . S
C2256 C2253 1.363 . S
C2256 N2254 1.356 . S
C2257 C2251 1.363 . S
C2257 C2252 1.379 . S
C2257 N2255 1.356 . S
N2258 C2250 1.356 . S
N2258 H2264 0.984 . S
N2258 H2265 0.984 . S
N2259 C2252 1.356 . S
N2259 H2262 0.984 . S
N2259 H2263 0.985 . S
H2260 N2255 0.984 . S
H2261 N2255 0.985 . S
H2262 N2259 0.984 . S
H2263 N2259 0.985 . S
H2264 N2258 0.984 . S
H2265 N2258 0.984 . S
H2266 N2254 0.984 . S
H2267 N2254 0.985 . S
C2268 C2269 1.363 . S
C2268 C2274 1.379 . S
C2268 N2276 1.356 . S
C2269 C2268 1.363 . S
C2269 C2275 1.363 . S
C2270 C2271 1.363 . S
C2270 C2275 1.379 . S
C2270 N2277 1.356 . S
C2271 C2270 1.363 . S
C2271 C2274 1.363 . S
N2272 C2274 1.356 . S
N2272 H2284 0.984 . S
N2272 H2285 0.985 . S
N2273 C2275 1.356 . S
N2273 H2278 0.984 . S
N2273 H2279 0.985 . S
C2274 C2268 1.379 . S
C2274 C2271 1.363 . S
C2274 N2272 1.356 . S
C2275 C2269 1.363 . S
C2275 C2270 1.379 . S
C2275 N2273 1.356 . S
N2276 C2268 1.356 . S
N2276 H2282 0.984 . S
N2276 H2283 0.984 . S
N2277 C2270 1.356 . S
N2277 H2280 0.984 . S
N2277 H2281 0.985 . S
H2278 N2273 0.984 . S
H2279 N2273 0.985 . S
H2280 N2277 0.984 . S
H2281 N2277 0.985 . S
H2282 N2276 0.984 . S
H2283 N2276 0.984 . S
H2284 N2272 0.984 . S
H2285 N2272 0.985 . S
C2286 C2287 1.363 . S
C2286 C2292 1.379 . S
C2286 N2294 1.356 . S
C2287 C2286 1.363 . S
C2287 C2293 1.363 . S
C2288 C2289 1.363 . S
C2288 C2293 1.379 . S
C2288 N2295 1.356 . S
C2289 C2288 1.363 . S
C2289 C2292 1.363 . S
N2290 C2292 1.356 . S
N2290 H2302 0.984 . S
N2290 H2303 0.985 . S
N2291 C2293 1.356 . S
N2291 H2296 0.984 . S
N2291 H2297 0.985 . S
C2292 C2286 1.379 . S
C2292 C2289 1.363 . S
C2292 N2290 1.356 . S
C2293 C2287 1.363 . S
C2293 C2288 1.379 . S
C2293 N2291 1.356 . S
N2294 C2286 1.356 . S
N2294 H2300 0.984 . S
N2294 H2301 0.984 . S
N2295 C2288 1.356 . S
N2295 H2298 0.984 . S
N2295 H2299 0.985 . S
H2296 N2291 0.984 . S
H2297 N2291 0.985 . S
H2298 N2295 0.984 . S
H2299 N2295 0.985 . S
H2300 N2294 0.984 . S
H2301 N2294 0.984 . S
H2302 N2290 0.984 . S
H2303 N2290 0.985 . S
C2304 C2305 1.363 . S
C2304 C2310 1.379 . S
C2304 N2312 1.356 . S
C2305 C2304 1.363 . S
C2305 C2311 1.363 . S
C2306 C2307 1.363 . S
C2306 C2311 1.379 . S
C2306 N2313 1.356 . S
C2307 C2306 1.363 . S
C2307 C2310 1.363 . S
N2308 C2310 1.356 . S
N2308 H2320 0.984 . S
N2308 H2321 0.985 . S
N2309 C2311 1.356 . S
N2309 H2314 0.984 . S
N2309 H2315 0.985 . S
C2310 C2304 1.379 . S
C2310 C2307 1.363 . S
C2310 N2308 1.356 . S
C2311 C2305 1.363 . S
C2311 C2306 1.379 . S
C2311 N2309 1.356 . S
N2312 C2304 1.356 . S
N2312 H2318 0.984 . S
N2312 H2319 0.984 . S
N2313 C2306 1.356 . S
N2313 H2316 0.984 . S
N2313 H2317 0.985 . S
H2314 N2309 0.984 . S
H2315 N2309 0.985 . S
H2316 N2313 0.984 . S
H2317 N2313 0.985 . S
H2318 N2312 0.984 . S
H2319 N2312 0.984 . S
H2320 N2308 0.984 . S
H2321 N2308 0.985 . S
C2322 C2323 1.363 . S
C2322 C2328 1.379 . S
C2322 N2330 1.356 . S
C2323 C2322 1.363 . S
C2323 C2329 1.363 . S
C2324 C2325 1.363 . S
C2324 C2329 1.379 . S
C2324 N2331 1.356 . S
C2325 C2324 1.363 . S
C2325 C2328 1.363 . S
N2326 C2328 1.356 . S
N2326 H2338 0.984 . S
N2326 H2339 0.985 . S
N2327 C2329 1.356 . S
N2327 H2332 0.984 . S
N2327 H2333 0.985 . S
C2328 C2322 1.379 . S
C2328 C2325 1.363 . S
C2328 N2326 1.356 . S
C2329 C2323 1.363 . S
C2329 C2324 1.379 . S
C2329 N2327 1.356 . S
N2330 C2322 1.356 . S
N2330 H2336 0.984 . S
N2330 H2337 0.984 . S
N2331 C2324 1.356 . S
N2331 H2334 0.984 . S
N2331 H2335 0.985 . S
H2332 N2327 0.984 . S
H2333 N2327 0.985 . S
H2334 N2331 0.984 . S
H2335 N2331 0.985 . S
H2336 N2330 0.984 . S
H2337 N2330 0.984 . S
H2338 N2326 0.984 . S
H2339 N2326 0.985 . S
C2340 C2341 1.363 . S
C2340 C2346 1.379 . S
C2340 N2348 1.356 . S
C2341 C2340 1.363 . S
C2341 C2347 1.363 . S
C2342 C2343 1.363 . S
C2342 C2347 1.379 . S
C2342 N2349 1.356 . S
C2343 C2342 1.363 . S
C2343 C2346 1.363 . S
N2344 C2346 1.356 . S
N2344 H2356 0.984 . S
N2344 H2357 0.985 . S
N2345 C2347 1.356 . S
N2345 H2350 0.984 . S
N2345 H2351 0.985 . S
C2346 C2340 1.379 . S
C2346 C2343 1.363 . S
C2346 N2344 1.356 . S
C2347 C2341 1.363 . S
C2347 C2342 1.379 . S
C2347 N2345 1.356 . S
N2348 C2340 1.356 . S
N2348 H2354 0.984 . S
N2348 H2355 0.984 . S
N2349 C2342 1.356 . S
N2349 H2352 0.984 . S
N2349 H2353 0.985 . S
H2350 N2345 0.984 . S
H2351 N2345 0.985 . S
H2352 N2349 0.984 . S
H2353 N2349 0.985 . S
H2354 N2348 0.984 . S
H2355 N2348 0.984 . S
H2356 N2344 0.984 . S
H2357 N2344 0.985 . S
C2358 C2359 1.363 1_455 S
C2358 C2364 1.379 . S
C2358 N2366 1.356 . S
C2359 C2358 1.363 1_655 S
C2359 C2365 1.363 . S
C2360 C2361 1.363 . S
C2360 C2365 1.379 . S
C2360 N2367 1.356 . S
C2361 C2360 1.363 . S
C2361 C2364 1.363 1_655 S
N2362 C2364 1.356 . S
N2362 H2374 0.984 . S
N2362 H2375 0.985 . S
N2363 C2365 1.356 . S
N2363 H2368 0.984 . S
N2363 H2369 0.985 . S
C2364 C2358 1.379 . S
C2364 C2361 1.363 1_455 S
C2364 N2362 1.356 . S
C2365 C2359 1.363 . S
C2365 C2360 1.379 . S
C2365 N2363 1.356 . S
N2366 C2358 1.356 . S
N2366 H2372 0.984 . S
N2366 H2373 0.984 . S
N2367 C2360 1.356 . S
N2367 H2370 0.984 . S
N2367 H2371 0.985 . S
H2368 N2363 0.984 . S
H2369 N2363 0.985 . S
H2370 N2367 0.984 . S
H2371 N2367 0.985 . S
H2372 N2366 0.984 . S
H2373 N2366 0.984 . S
H2374 N2362 0.984 . S
H2375 N2362 0.985 . S
C2376 C2377 1.363 . S
C2376 C2382 1.379 . S
C2376 N2384 1.356 . S
C2377 C2376 1.363 . S
C2377 C2383 1.363 . S
C2378 C2379 1.363 . S
C2378 C2383 1.379 . S
C2378 N2385 1.356 . S
C2379 C2378 1.363 . S
C2379 C2382 1.363 . S
N2380 C2382 1.356 . S
N2380 H2392 0.984 . S
N2380 H2393 0.985 . S
N2381 C2383 1.356 . S
N2381 H2386 0.984 . S
N2381 H2387 0.985 . S
C2382 C2376 1.379 . S
C2382 C2379 1.363 . S
C2382 N2380 1.356 . S
C2383 C2377 1.363 . S
C2383 C2378 1.379 . S
C2383 N2381 1.356 . S
N2384 C2376 1.356 . S
N2384 H2390 0.984 . S
N2384 H2391 0.984 . S
N2385 C2378 1.356 . S
N2385 H2388 0.984 . S
N2385 H2389 0.985 . S
H2386 N2381 0.984 . S
H2387 N2381 0.985 . S
H2388 N2385 0.984 . S
H2389 N2385 0.985 . S
H2390 N2384 0.984 . S
H2391 N2384 0.984 . S
H2392 N2380 0.984 . S
H2393 N2380 0.985 . S
C2394 C2395 1.363 . S
C2394 C2400 1.379 . S
C2394 N2402 1.356 . S
C2395 C2394 1.363 . S
C2395 C2401 1.363 1_545 S
C2396 C2397 1.363 1_565 S
C2396 C2401 1.379 . S
C2396 N2403 1.356 . S
C2397 C2396 1.363 1_545 S
C2397 C2400 1.363 . S
N2398 C2400 1.356 . S
N2398 H2410 0.984 . S
N2398 H2411 0.985 . S
N2399 C2401 1.356 . S
N2399 H2404 0.984 . S
N2399 H2405 0.985 . S
C2400 C2394 1.379 . S
C2400 C2397 1.363 . S
C2400 N2398 1.356 . S
C2401 C2395 1.363 1_565 S
C2401 C2396 1.379 . S
C2401 N2399 1.356 . S
N2402 C2394 1.356 . S
N2402 H2408 0.984 . S
N2402 H2409 0.984 . S
N2403 C2396 1.356 . S
N2403 H2406 0.984 . S
N2403 H2407 0.985 . S
H2404 N2399 0.984 . S
H2405 N2399 0.985 . S
H2406 N2403 0.984 . S
H2407 N2403 0.985 . S
H2408 N2402 0.984 . S
H2409 N2402 0.984 . S
H2410 N2398 0.984 . S
H2411 N2398 0.985 . S
C1117 C9 1.503 . S
C1119 C729 1.499 . S
C1135 C19 1.596 . S
C1137 C777 1.584 . S
C1155 C825 1.532 . S
C1153 C33 1.535 . S
C1171 C37 1.490 1_565 S
C1173 C849 1.520 . S
C1189 C5 1.492 . S
C1191 C921 1.489 . S
C1207 C23 1.642 . S
C1209 C969 1.624 . S
C1225 C47 1.506 . S
C1227 C897 1.511 . S
C1245 C945 1.633 . S
C1243 C65 1.652 . S
C1263 C873 1.496 . S
C1261 C75 1.506 . S
C1279 C79 1.463 . S
C1281 C801 1.470 . S
C1299 C705 1.540 . S
C1297 C51 1.527 . S
C1315 C61 1.622 . S
C1317 C753 1.606 . S
C1333 C93 1.717 . S
C1335 C1017 1.696 . S
C1351 C103 1.660 . S
C1353 C1065 1.644 . S
C1371 C1089 1.646 . S
C1369 C117 1.680 . S
C1387 C121 1.657 . S
C1389 C273 1.614 . S
C1405 C89 1.658 . S
C1407 C345 1.642 . S
C1423 C107 1.690 . S
C1425 C393 1.665 . S
C1441 C131 1.631 . S
C1443 C321 1.613 . S
C1459 C149 1.693 . S
C1461 C369 1.667 . S
C1479 C297 1.584 . S
C1477 C159 1.646 . S
C1497 C1113 1.613 . S
C1495 C163 1.688 . S
C1515 C993 1.686 . S
C1513 C135 1.715 . S
C1533 C1041 1.665 . S
C1531 C145 1.685 . S
C1549 C177 1.653 . S
C1551 C441 1.634 . S
C1567 C187 1.634 . S
C1569 C489 1.615 . S
C1585 C201 1.681 . S
C1587 C513 1.647 . S
C1603 C205 1.721 . S
C1605 C561 1.677 . S
C1623 C633 1.647 . S
C1621 C173 1.661 . S
C1641 C681 1.691 . S
C1639 C191 1.717 . S
C1659 C609 1.682 . S
C1657 C215 1.700 . S
C1677 C657 1.696 . S
C1675 C233 1.723 . S
C1693 C243 1.645 . S
C1695 C585 1.582 . S
C1713 C537 1.546 . S
C1711 C247 1.619 . S
C1729 C219 1.712 . S
C1731 C417 1.686 . S
C1749 C465 1.645 . S
C1747 C229 1.668 . S
C1767 C282 1.584 . S
C1765 C11 1.591 . S
C1783 C14 1.564 . S
C1785 C336 1.514 . S
C1803 C384 1.627 . S
C1801 C28 1.679 . S
C1821 C432 1.618 . S
C1819 C39 1.666 . S
C1839 C480 1.573 . S
C1837 C0 1.620 . S
C1857 C522 1.513 . S
C1855 C25 1.523 . S
C1873 C42 1.668 . S
C1875 C528 1.642 . S
C1891 C67 1.576 . S
C1893 C426 1.512 . S
C1909 C70 1.573 . S
C1911 C474 1.511 . S
C1927 C81 1.586 . S
C1929 C330 1.535 . S
C1947 C378 1.577 . S
C1945 C53 1.645 . S
C1963 C56 1.603 . S
C1965 C288 1.569 . S
C1983 C570 1.558 . S
C1981 C95 1.564 . S
C1999 C98 1.642 . S
C2001 C624 1.598 . S
C2017 C112 1.707 . S
C2019 C672 1.659 . S
C2037 C720 1.462 . S
C2035 C123 1.459 . S
C2053 C84 1.591 . S
C2055 C768 1.549 . S
C2071 C109 1.404 . S
C2073 C816 1.413 . S
C2089 C126 1.476 . S
C2091 C810 1.480 . S
C2107 C151 1.438 . S
C2109 C714 1.443 . S
C2127 C762 1.509 . S
C2125 C154 1.557 . S
C2143 C165 1.557 . S
C2145 C618 1.502 . S
C2161 C137 1.661 . S
C2163 C666 1.603 . S
C2181 C576 1.649 . S
C2179 C140 1.679 . S
C2199 C858 1.438 . S
C2197 C179 1.428 . S
C2215 C182 1.428 . S
C2217 C912 1.442 . S
C2233 C196 1.646 . S
C2235 C960 1.601 . S
C2253 C1008 1.587 . S
C2251 C207 1.637 . S
C2271 C1056 1.598 . S
C2269 C168 1.643 . S
C2287 C193 1.607 . S
C2289 C1098 1.600 . S
C2305 C210 1.647 . S
C2307 C1104 1.617 . S
C2323 C235 1.654 . S
C2325 C1002 1.595 . S
C2343 C1050 1.560 . S
C2341 C238 1.608 . S
C2361 C906 1.412 . S
C2359 C249 1.398 . S
C2379 C954 1.550 . S
C2377 C221 1.607 . S
C2395 C224 1.460 . S
C2397 C864 1.467 . S
