# Generated by pormake.
# Topology pyr, (3,6)-cn, num edge types: 1
# Building blocks:
#     Node 0, Type 0, BuildingBlock: QEWDON_clean_linker_0, # of connection points: 3
#     Node 1, Type 0, BuildingBlock: QEWDON_clean_linker_0, # of connection points: 3
#     Node 2, Type 0, BuildingBlock: QEWDON_clean_linker_0, # of connection points: 3
#     Node 3, Type 0, BuildingBlock: QEWDON_clean_linker_0, # of connection points: 3
#     Node 4, Type 0, BuildingBlock: QEWDON_clean_linker_0, # of connection points: 3
#     Node 5, Type 0, BuildingBlock: QEWDON_clean_linker_0, # of connection points: 3
#     Node 6, Type 0, BuildingBlock: QEWDON_clean_linker_0, # of connection points: 3
#     Node 7, Type 0, BuildingBlock: QEWDON_clean_linker_0, # of connection points: 3
#     Node 8, Type 1, BuildingBlock: BETFEN_clean_sbu_0, # of connection points: 6
#     Node 9, Type 1, BuildingBlock: BETFEN_clean_sbu_0, # of connection points: 6
#     Node 10, Type 1, BuildingBlock: BETFEN_clean_sbu_0, # of connection points: 6
#     Node 11, Type 1, BuildingBlock: BETFEN_clean_sbu_0, # of connection points: 6
#     Edge 12, Type (0, 1), BuildingBlock: AJUNOK_clean_linker_0, # of connection points: 2
#     Edge 13, Type (0, 1), BuildingBlock: AJUNOK_clean_linker_0, # of connection points: 2
#     Edge 14, Type (0, 1), BuildingBlock: AJUNOK_clean_linker_0, # of connection points: 2
#     Edge 15, Type (0, 1), BuildingBlock: AJUNOK_clean_linker_0, # of connection points: 2
#     Edge 16, Type (0, 1), BuildingBlock: AJUNOK_clean_linker_0, # of connection points: 2
#     Edge 17, Type (0, 1), BuildingBlock: AJUNOK_clean_linker_0, # of connection points: 2
#     Edge 18, Type (0, 1), BuildingBlock: AJUNOK_clean_linker_0, # of connection points: 2
#     Edge 19, Type (0, 1), BuildingBlock: AJUNOK_clean_linker_0, # of connection points: 2
#     Edge 20, Type (0, 1), BuildingBlock: AJUNOK_clean_linker_0, # of connection points: 2
#     Edge 21, Type (0, 1), BuildingBlock: AJUNOK_clean_linker_0, # of connection points: 2
#     Edge 22, Type (0, 1), BuildingBlock: AJUNOK_clean_linker_0, # of connection points: 2
#     Edge 23, Type (0, 1), BuildingBlock: AJUNOK_clean_linker_0, # of connection points: 2
#     Edge 24, Type (0, 1), BuildingBlock: AJUNOK_clean_linker_0, # of connection points: 2
#     Edge 25, Type (0, 1), BuildingBlock: AJUNOK_clean_linker_0, # of connection points: 2
#     Edge 26, Type (0, 1), BuildingBlock: AJUNOK_clean_linker_0, # of connection points: 2
#     Edge 27, Type (0, 1), BuildingBlock: AJUNOK_clean_linker_0, # of connection points: 2
#     Edge 28, Type (0, 1), BuildingBlock: AJUNOK_clean_linker_0, # of connection points: 2
#     Edge 29, Type (0, 1), BuildingBlock: AJUNOK_clean_linker_0, # of connection points: 2
#     Edge 30, Type (0, 1), BuildingBlock: AJUNOK_clean_linker_0, # of connection points: 2
#     Edge 31, Type (0, 1), BuildingBlock: AJUNOK_clean_linker_0, # of connection points: 2
#     Edge 32, Type (0, 1), BuildingBlock: AJUNOK_clean_linker_0, # of connection points: 2
#     Edge 33, Type (0, 1), BuildingBlock: AJUNOK_clean_linker_0, # of connection points: 2
#     Edge 34, Type (0, 1), BuildingBlock: AJUNOK_clean_linker_0, # of connection points: 2
#     Edge 35, Type (0, 1), BuildingBlock: AJUNOK_clean_linker_0, # of connection points: 2
# Relax obj value: 0.227
# Max RMSD: 0.338
# Mean RMSD: 0.185
data_MOF--net-pyr--node1-BETFEN_clean_sbu_0--node2-QEWDON_clean_linker_0--edge1-AJUNOK_clean_linker_0
_symmetry_space_group_name_H-M    P1
_symmetry_Int_Tables_number       1
_symmetry_cell_setting            triclinic
loop_
_symmetry_equiv_pos_as_xyz
'x, y, z'
_cell_length_a     27.673905
_cell_length_b     31.359946
_cell_length_c     29.613311
_cell_angle_alpha  92.255466
_cell_angle_beta   101.81345
_cell_angle_gamma 123.32895
loop_
_atom_site_label
_atom_site_type_symbol
_atom_site_fract_x
_atom_site_fract_y
_atom_site_fract_z
_atom_type_partial_charge
H0 H 0.51098 0.42347 0.28059 0.0
C1 C 0.48692 0.40628 0.3066 0.0
C2 C 0.46063 0.35357 0.30821 0.0
C3 C 0.47965 0.43598 0.33766 0.0
H4 H 0.40356 0.2892 0.33868 0.0
C5 C 0.42651 0.33068 0.33985 0.0
C6 C 0.42123 0.36028 0.37236 0.0
C7 C 0.44788 0.41307 0.37099 0.0
C8 C 0.49729 0.4887 0.33215 0.0
H9 H 0.44362 0.43655 0.39563 0.0
C10 C 0.45247 0.49772 0.32436 0.0
C11 C 0.46648 0.54804 0.32587 0.0
C12 C 0.55708 0.53013 0.33757 0.0
H13 H 0.59244 0.52381 0.34354 0.0
C14 C 0.57139 0.58039 0.33649 0.0
H15 H 0.40606 0.46484 0.31765 0.0
C16 C 0.52639 0.58948 0.33098 0.0
H17 H 0.53842 0.62862 0.33112 0.0
H18 H 0.61756 0.6125 0.34082 0.0
H19 H 0.25333 0.88996 0.81835 0.0
C20 C 0.26978 0.87081 0.80187 0.0
C21 C 0.3201 0.87341 0.82754 0.0
C22 C 0.24075 0.84337 0.75526 0.0
H23 H 0.38083 0.85112 0.82741 0.0
C24 C 0.34137 0.84831 0.80727 0.0
C25 C 0.31347 0.82077 0.76115 0.0
C26 C 0.26334 0.81861 0.73494 0.0
C27 C 0.18545 0.83866 0.72892 0.0
H28 H 0.24199 0.79756 0.69904 0.0
C29 C 0.18038 0.88117 0.73193 0.0
C30 C 0.12624 0.87493 0.70926 0.0
C31 C 0.13599 0.79041 0.70212 0.0
H32 H 0.13797 0.75688 0.69964 0.0
C33 C 0.08269 0.78438 0.67924 0.0
H34 H 0.21812 0.91883 0.752 0.0
C35 C 0.07769 0.82618 0.68284 0.0
H36 H 0.03593 0.82058 0.66448 0.0
H37 H 0.0449 0.74699 0.65882 0.0
H38 H 0.68054 0.43585 0.91191 0.0
C39 C 0.6588 0.39693 0.91964 0.0
C40 C 0.69402 0.38209 0.94535 0.0
C41 C 0.59563 0.36329 0.90756 0.0
H42 H 0.69337 0.32211 0.97858 0.0
C43 C 0.66622 0.33272 0.95694 0.0
C44 C 0.60396 0.29939 0.9468 0.0
C45 C 0.56837 0.31452 0.92211 0.0
C46 C 0.55886 0.3817 0.88463 0.0
H47 H 0.51997 0.28888 0.91514 0.0
C48 C 0.57285 0.40975 0.84755 0.0
C49 C 0.53783 0.42728 0.82676 0.0
C50 C 0.51047 0.37279 0.90113 0.0
H51 H 0.49947 0.35263 0.93021 0.0
C52 C 0.47659 0.39101 0.88119 0.0
H53 H 0.60973 0.41677 0.83412 0.0
C54 C 0.49005 0.41801 0.84432 0.0
H55 H 0.46309 0.43183 0.82944 0.0
H56 H 0.43977 0.38427 0.89447 0.0
H57 H 0.92266 0.79072 0.39499 0.0
C58 C 0.89648 0.76869 0.41836 0.0
C59 C 0.90306 0.79484 0.46155 0.0
C60 C 0.85362 0.71436 0.40433 0.0
H61 H 0.87356 0.78615 0.52424 0.0
C62 C 0.86775 0.76593 0.49094 0.0
C63 C 0.82227 0.71262 0.47705 0.0
C64 C 0.81622 0.68705 0.4338 0.0
C65 C 0.83939 0.68718 0.35564 0.0
H66 H 0.78025 0.64633 0.42156 0.0
C67 C 0.88257 0.68705 0.33633 0.0
C68 C 0.86506 0.65986 0.28985 0.0
C69 C 0.7797 0.66029 0.32779 0.0
H70 H 0.74584 0.66004 0.34105 0.0
C71 C 0.76266 0.63381 0.2825 0.0
H72 H 0.92884 0.70761 0.35711 0.0
C73 C 0.80465 0.63351 0.26376 0.0
H74 H 0.7896 0.61208 0.22849 0.0
H75 H 0.71641 0.61329 0.26172 0.0
H76 H 0.54712 0.62474 0.91289 0.0
C77 C 0.56856 0.64138 0.88547 0.0
C78 C 0.62146 0.64556 0.88395 0.0
C79 C 0.54661 0.66277 0.85347 0.0
H80 H 0.69638 0.6793 0.85402 0.0
C81 C 0.65286 0.67218 0.8517 0.0
C82 C 0.6313 0.69338 0.81975 0.0
C83 C 0.57633 0.68577 0.81926 0.0
C84 C 0.50062 0.67122 0.85988 0.0
H85 H 0.55872 0.70166 0.79441 0.0
C86 C 0.51574 0.72212 0.86394 0.0
C87 C 0.47266 0.73286 0.86354 0.0
C88 C 0.44197 0.63036 0.85846 0.0
H89 H 0.42942 0.59087 0.85611 0.0
C90 C 0.39849 0.64039 0.85847 0.0
H91 H 0.562 0.75371 0.86737 0.0
C92 C 0.41339 0.69114 0.86045 0.0
H93 H 0.37836 0.69737 0.85888 0.0
H94 H 0.35281 0.60863 0.85617 0.0
H95 H 0.82573 0.19447 0.51357 0.0
C96 C 0.81477 0.19794 0.47718 0.0
C97 C 0.83532 0.18259 0.4447 0.0
C98 C 0.77698 0.21435 0.46265 0.0
H99 H 0.8288 0.16687 0.37146 0.0
C100 C 0.81704 0.18295 0.39678 0.0
C101 C 0.77942 0.1998 0.38151 0.0
C102 C 0.76222 0.21771 0.41534 0.0
C103 C 0.74235 0.2167 0.49382 0.0
H104 H 0.73228 0.22965 0.40414 0.0
C105 C 0.73393 0.2571 0.49728 0.0
C106 C 0.69213 0.25379 0.52027 0.0
C107 C 0.71112 0.17422 0.51567 0.0
H108 H 0.71599 0.14228 0.51304 0.0
C109 C 0.67059 0.17087 0.53885 0.0
H110 H 0.76016 0.29063 0.48205 0.0
C111 C 0.66025 0.20955 0.54039 0.0
H112 H 0.62616 0.204 0.55681 0.0
H113 H 0.64565 0.13729 0.55454 0.0
H114 H 0.5469 0.85336 0.29772 0.0
C115 C 0.49835 0.82899 0.28492 0.0
C116 C 0.46909 0.84542 0.25357 0.0
C117 C 0.46557 0.7803 0.29848 0.0
H118 H 0.3832 0.82524 0.21264 0.0
C119 C 0.40632 0.81424 0.23848 0.0
C120 C 0.37273 0.76679 0.25294 0.0
C121 C 0.40241 0.74965 0.2829 0.0
C122 C 0.49807 0.75962 0.32423 0.0
H123 H 0.37667 0.71172 0.2922 0.0
C124 C 0.481 0.73352 0.36185 0.0
C125 C 0.51468 0.71651 0.38651 0.0
C126 C 0.54715 0.76604 0.3105 0.0
H127 H 0.56025 0.7845 0.2809 0.0
C128 C 0.57966 0.74837 0.33437 0.0
H129 H 0.44321 0.72801 0.37283 0.0
C130 C 0.56396 0.72421 0.37234 0.0
H131 H 0.59012 0.71098 0.39054 0.0
H132 H 0.61731 0.75355 0.32347 0.0
H133 H 0.26982 0.50796 0.78528 0.0
C134 C 0.23673 0.46631 0.77577 0.0
C135 C 0.23426 0.43924 0.73521 0.0
C136 C 0.19889 0.44 0.80526 0.0
H137 H 0.19103 0.36412 0.69285 0.0
C138 C 0.19225 0.38547 0.72331 0.0
C139 C 0.15414 0.3581 0.75141 0.0
C140 C 0.15682 0.3854 0.79219 0.0
C141 C 0.21192 0.46918 0.85292 0.0
H142 H 0.12905 0.364 0.8149 0.0
C143 C 0.16727 0.4657 0.87296 0.0
C144 C 0.18443 0.49546 0.91819 0.0
C145 C 0.27253 0.50191 0.87924 0.0
H146 H 0.30779 0.50491 0.86597 0.0
C147 C 0.28906 0.53103 0.92308 0.0
H148 H 0.12025 0.44055 0.85375 0.0
C149 C 0.2457 0.52799 0.94228 0.0
H150 H 0.26017 0.55123 0.97653 0.0
H151 H 0.33602 0.55612 0.94243 0.0
Pr152 Pr 0.96031 0.03597 0.62265 0.0
Pr153 Pr 0.07767 0.10437 0.60416 0.0
C154 C 0.85499 0.9649 0.6389 0.0
C155 C 0.82319 0.91547 0.65506 0.0
C156 C 0.76049 0.88638 0.64473 0.0
C157 C 0.73005 0.84486 0.66725 0.0
C158 C 0.76211 0.83213 0.70038 0.0
C159 C 0.82447 0.85883 0.708 0.0
C160 C 0.85487 0.90035 0.68534 0.0
C161 C 1.02101 0.14038 0.66592 0.0
C162 C 0.07024 0.02522 0.67662 0.0
C163 C 0.19042 0.17967 0.60374 0.0
C164 C 0.22267 0.20765 0.56984 0.0
C165 C 0.21268 0.18085 0.52613 0.0
C166 C 0.24509 0.20771 0.49493 0.0
C167 C 0.28726 0.26169 0.50673 0.0
C168 C 0.29607 0.28883 0.54972 0.0
C169 C 0.26407 0.26182 0.58128 0.0
C170 C 1.00576 0.00788 0.54204 0.0
C171 C 0.96363 0.10039 0.53964 0.0
O172 O 0.86461 0.96408 0.59749 0.0
O173 O 0.90006 0.00477 0.67057 0.0
O174 O 0.04439 0.11531 0.66581 0.0
O175 O 0.96516 0.11194 0.64212 0.0
O176 O 0.10679 0.06739 0.66141 0.0
O177 O 1.01199 0.00461 0.66589 0.0
O178 O 0.15283 0.18937 0.61302 0.0
O179 O 0.17027 0.13059 0.60004 0.0
O180 O 1.01177 0.01526 0.58549 0.0
O181 O 0.03739 0.05191 0.52847 0.0
O182 O 0.93149 0.0539 0.55003 0.0
O183 O 1.02136 0.13184 0.56138 0.0
H184 H 0.73542 0.89752 0.62126 0.0
H185 H 0.6818 0.82438 0.66066 0.0
H186 H 0.85004 0.8499 0.73372 0.0
H187 H 0.90327 0.92256 0.69345 0.0
H188 H 0.18036 0.13913 0.51627 0.0
H189 H 0.23766 0.18635 0.46167 0.0
H190 H 0.32869 0.33054 0.55929 0.0
H191 H 0.27202 0.2831 0.61477 0.0
Pr192 Pr 0.5074 0.06391 0.11056 0.0
Pr193 Pr 0.61118 0.07474 0.08173 0.0
C194 C 0.41334 0.05067 0.13571 0.0
C195 C 0.40639 0.09143 0.15154 0.0
C196 C 0.4267 0.13525 0.12988 0.0
C197 C 0.43507 0.1799 0.15159 0.0
C198 C 0.42364 0.18142 0.1953 0.0
C199 C 0.39872 0.13632 0.21508 0.0
C200 C 0.39038 0.0916 0.19338 0.0
C201 C 0.56621 0.14974 0.06703 0.0
C202 C 0.64168 0.13565 0.18481 0.0
C203 C 0.68303 0.07521 1.03263 0.0
C204 C 0.66503 0.04352 0.98643 0.0
C205 C 0.68638 0.01239 0.98247 0.0
C206 C 0.65344 0.96731 0.94814 0.0
C207 C 0.59871 0.9528 0.91749 0.0
C208 C 0.58139 0.98719 0.9176 0.0
C209 C 0.61464 0.03255 0.95171 0.0
C210 C 0.57159 0.00751 0.14472 0.0
C211 C 0.472 0.99162 1.01228 0.0
O212 O 0.45539 0.04976 0.16454 0.0
O213 O 0.41377 0.04542 0.09178 0.0
O214 O 0.55378 0.10533 0.0543 0.0
O215 O 0.55079 0.15155 0.10507 0.0
O216 O 0.66353 0.14211 0.14787 0.0
O217 O 0.58388 0.10149 0.18022 0.0
O218 O 0.6732 0.11159 1.03426 0.0
O219 O 0.66695 0.04751 0.06523 0.0
O220 O 0.53728 0.009 0.1104 0.0
O221 O 0.62772 0.03922 0.14612 0.0
O222 O 0.45053 -0.00331 0.04614 0.0
O223 O 0.53017 0.01816 1.01672 0.0
H224 H 0.43975 0.1363 0.09764 0.0
H225 H 0.45396 0.21418 0.13567 0.0
H226 H 0.38833 0.13648 0.2484 0.0
H227 H 0.37496 0.05835 0.21068 0.0
H228 H 0.72484 0.01979 1.00897 0.0
H229 H 0.66754 0.94117 0.94867 0.0
H230 H 0.53973 0.97684 0.89372 0.0
H231 H 0.59757 0.05619 0.95372 0.0
Pr232 Pr 0.55212 0.62257 0.63751 0.0
Pr233 Pr 0.49891 0.5202 0.57154 0.0
C234 C 0.56869 0.70889 0.68032 0.0
C235 C 0.52987 0.72283 0.69325 0.0
C236 C 0.54728 0.7743 0.69641 0.0
C237 C 0.50856 0.78737 0.70461 0.0
C238 C 0.4514 0.74898 0.70925 0.0
C239 C 0.43486 0.69763 0.70747 0.0
C240 C 0.47371 0.68465 0.69944 0.0
C241 C 0.56706 0.55135 0.68118 0.0
C242 C 0.40864 0.52433 0.62463 0.0
C243 C 0.48874 0.4362 0.53165 0.0
C244 C 0.53279 0.42347 0.53047 0.0
C245 C 0.53417 0.40445 0.48763 0.0
C246 C 0.56929 0.38547 0.48608 0.0
C247 C 0.6072 0.38809 0.52756 0.0
C248 C 0.61021 0.41222 0.57028 0.0
C249 C 0.57286 0.42898 0.57182 0.0
C250 C 0.48263 0.59092 0.52858 0.0
C251 C 0.6425 0.61939 0.58455 0.0
O252 O 0.5617 0.69897 0.63537 0.0
O253 O 0.5747 0.67643 0.70293 0.0
O254 O 0.52104 0.5413 0.65119 0.0
O255 O 0.60851 0.60112 0.69036 0.0
O256 O 0.41667 0.49221 0.60249 0.0
O257 O 0.4491 0.57506 0.63364 0.0
O258 O 0.47837 0.43998 0.57223 0.0
O259 O 0.49144 0.47147 0.50802 0.0
O260 O 0.52908 0.60101 0.55797 0.0
O261 O 0.44167 0.54084 0.51825 0.0
O262 O 0.63258 0.65071 0.60544 0.0
O263 O 0.60341 0.56837 0.57736 0.0
H264 H 0.59055 0.80432 0.69195 0.0
H265 H 0.52349 0.82758 0.7075 0.0
H266 H 0.39142 0.66731 0.71142 0.0
H267 H 0.45949 0.64468 0.69741 0.0
H268 H 0.5065 0.40271 0.45533 0.0
H269 H 0.56398 0.3665 0.4524 0.0
H270 H 0.64013 0.41679 0.60292 0.0
H271 H 0.5747 0.44541 0.60552 0.0
Pr272 Pr 1.01607 0.60678 0.07332 0.0
Pr273 Pr 0.03592 0.54283 0.14185 0.0
C274 C 0.96747 0.63307 1.00182 0.0
C275 C 0.91265 0.63221 0.99174 0.0
C276 C 0.89297 0.64208 1.02844 0.0
C277 C 0.83848 0.63736 1.01889 0.0
C278 C 0.80252 0.62232 0.97251 0.0
C279 C 0.82204 0.61174 0.93596 0.0
C280 C 0.8766 0.61662 0.94552 0.0
C281 C 0.1307 0.65867 0.1347 0.0
C282 C 0.98505 0.61306 0.17426 0.0
C283 C 0.08047 0.51765 0.21711 0.0
C284 C 0.13913 0.52678 0.2388 0.0
C285 C 0.14426 0.48475 0.23939 0.0
C286 C 0.19989 0.4931 0.25837 0.0
C287 C 0.25128 0.54361 0.27731 0.0
C288 C 0.24629 0.58567 0.27721 0.0
C289 C 0.19064 0.57737 0.25826 0.0
C290 C 0.92232 0.49079 0.08018 0.0
C291 C 0.06735 0.53729 0.04037 0.0
O292 O 0.95804 0.58721 0.99963 0.0
O293 O 1.01178 0.66755 0.03772 0.0
O294 O 0.09983 0.6126 0.11338 0.0
O295 O 0.10478 0.68216 0.12167 0.0
O296 O 1.01226 0.58986 0.18793 0.0
O297 O 0.9744 0.61865 0.13007 0.0
O298 O 0.07891 0.5586 0.21911 0.0
O299 O 0.04892 0.48536 0.17678 0.0
O300 O 0.95251 0.53667 0.10185 0.0
O301 O 0.94815 0.46734 0.09345 0.0
O302 O 0.0404 0.56079 1.02669 0.0
O303 O 0.07821 0.53183 0.08473 0.0
H304 H 0.91932 0.65281 0.06458 0.0
H305 H 0.82418 0.64492 0.04783 0.0
H306 H 0.79565 0.6007 0.89978 0.0
H307 H 0.89052 0.60795 0.91685 0.0
H308 H 0.10534 0.44548 0.22473 0.0
H309 H 0.20297 0.46011 0.25765 0.0
H310 H 0.28536 0.62484 0.29181 0.0
H311 H 0.1883 0.61073 0.25848 0.0
C312 C 0.34986 0.34814 0.41924 0.0
C313 C 0.38846 0.33595 0.4079 0.0
C314 C 0.31816 0.32499 0.45232 0.0
C315 C 0.32392 0.28884 0.47478 0.0
H316 H 0.3431 0.37489 0.40178 0.0
H317 H 0.28791 0.33442 0.45954 0.0
S318 S 0.42395 0.24809 0.46235 0.0
N319 N 0.43419 0.28842 0.42536 0.0
N320 N 0.37374 0.24471 0.48683 0.0
C321 C 0.36341 0.27741 0.46501 0.0
C322 C 0.39578 0.30089 0.43162 0.0
C323 C 0.41125 0.9507 0.88083 0.0
C324 C 0.3541 0.90495 0.87482 0.0
C325 C 0.44856 0.97839 0.92564 0.0
C326 C 0.43054 0.96079 0.96599 0.0
H327 H 0.4275 0.96471 0.85061 0.0
H328 H 0.49173 0.01415 0.92862 0.0
S329 S 0.28417 0.84327 0.96852 0.0
N330 N 0.28004 0.84338 0.91204 0.0
N331 N 0.35084 0.8955 0.99703 0.0
C332 C 0.37275 0.91565 0.96041 0.0
C333 C 0.33442 0.88753 0.91454 0.0
C334 C 0.60409 0.50231 0.79002 0.0
C335 C 0.54917 0.45452 0.78618 0.0
C336 C 0.61092 0.53269 0.75488 0.0
C337 C 0.56338 0.51585 0.7144 0.0
H338 H 0.64092 0.51747 0.82137 0.0
H339 H 0.65292 0.57034 0.76031 0.0
S340 S 0.4137 0.38949 0.68473 0.0
N341 N 0.44893 0.38927 0.73683 0.0
N342 N 0.46178 0.4451 0.6706 0.0
C343 C 0.50988 0.46623 0.70882 0.0
C344 C 0.50278 0.4359 0.74473 0.0
C345 C 0.90839 0.66954 0.22106 0.0
C346 C 0.90694 0.6572 0.26628 0.0
C347 C 0.93534 0.65671 0.19272 0.0
C348 C 0.96235 0.63063 0.2079 0.0
H349 H 0.88607 0.68747 0.20655 0.0
H350 H 0.93319 0.66607 0.15787 0.0
S351 S 0.97432 0.59229 0.32483 0.0
N352 N 0.93758 0.61954 0.32587 0.0
N353 N 0.98882 0.59578 0.27316 0.0
C354 C 0.96382 0.62024 0.25405 0.0
C355 C 0.93617 0.63345 0.28302 0.0
C356 C 0.43261 0.30378 0.22913 0.0
C357 C 0.46556 0.31985 0.27653 0.0
C358 C 0.42112 0.25989 0.20205 0.0
C359 C 0.44182 0.23091 0.22201 0.0
H360 H 0.41213 0.32292 0.21398 0.0
H361 H 0.39314 0.24689 0.16623 0.0
S362 S 0.53707 0.26194 0.34279 0.0
N363 N 0.52391 0.3073 0.34087 0.0
N364 N 0.50277 0.22504 0.29001 0.0
C365 C 0.47853 0.24908 0.26833 0.0
C366 C 0.4904 0.29365 0.29562 0.0
C367 C 0.15666 0.96329 0.69347 0.0
C368 C 0.11964 0.91893 0.71126 0.0
C369 C 0.14328 0.00017 0.68611 0.0
C370 C 0.09237 -0.00594 0.69631 0.0
H371 H 0.1939 0.9678 0.68232 0.0
H372 H 0.1708 0.03173 0.6693 0.0
S373 S 0.98868 0.88986 0.75261 0.0
N374 N 0.0353 0.87465 0.74514 0.0
N375 N 1.01068 0.9441 0.7321 0.0
C376 C 0.05836 0.9522 0.71805 0.0
C377 C 0.07179 0.9146 0.72526 0.0
C378 C 0.79861 0.40619 0.9696 0.0
C379 C 0.75809 0.41997 0.96998 0.0
C380 C 0.85252 0.43003 1.00502 0.0
C381 C 0.86794 0.46895 0.04138 0.0
H382 H 0.78628 0.37397 0.9438 0.0
H383 H 0.88137 0.41685 1.00471 0.0
S384 S 0.77955 0.52152 0.05663 0.0
N385 N 0.73861 0.47677 1.00842 0.0
N386 N 0.84107 0.52291 0.07416 0.0
C387 C 0.8302 0.48591 0.04021 0.0
C388 C 0.77501 0.46123 1.00449 0.0
C389 C 0.76041 0.71531 0.52746 0.0
C390 C 0.77785 0.68679 0.50586 0.0
C391 C 0.71998 0.69401 0.55502 0.0
C392 C 0.69255 0.64219 0.5613 0.0
H393 H 0.77704 0.75458 0.52233 0.0
H394 H 0.70854 0.71823 0.57008 0.0
S395 S 0.72236 0.54988 0.51385 0.0
N396 N 0.76575 0.60375 0.49492 0.0
N397 N 0.68652 0.5626 0.54429 0.0
C398 C 0.70919 0.61278 0.54017 0.0
C399 C 0.75207 0.63511 0.51289 0.0
C400 C 0.41135 0.58599 0.2899 0.0
C401 C 0.41716 0.55536 0.3211 0.0
C402 C 0.35857 0.58443 0.27778 0.0
C403 C 0.31006 0.55192 0.29622 0.0
H404 H 0.44609 0.60881 0.27262 0.0
H405 H 0.35436 0.60642 0.25182 0.0
S406 S 0.30745 0.47263 0.38635 0.0
N407 N 0.37376 0.49864 0.37619 0.0
N408 N 0.2741 0.49441 0.35183 0.0
C409 C 0.31718 0.52447 0.33013 0.0
C410 C 0.37093 0.5266 0.34302 0.0
C411 C 0.56511 0.25702 1.01221 0.0
C412 C 0.57981 0.25376 0.9701 0.0
C413 C 0.5608 0.22325 0.0434 0.0
C414 C 0.57092 0.18491 1.03349 0.0
H415 H 0.56058 0.28795 1.02247 0.0
H416 H 0.55063 0.22797 0.07591 0.0
S417 S 0.60719 0.15873 0.92623 0.0
N418 N 0.60227 0.20833 0.91915 0.0
N419 N 0.59286 0.14398 0.97699 0.0
C420 C 0.58304 0.17989 0.99043 0.0
C421 C 0.58777 0.21449 0.95893 0.0
C422 C 0.97823 0.8751 0.5224 0.0
C423 C 0.94127 0.85277 0.47602 0.0
C424 C 1.0006 0.9259 0.54251 0.0
C425 C 0.98811 0.95725 0.51695 0.0
H426 H 0.98677 0.85186 0.54438 0.0
H427 H 0.02638 0.94014 0.57905 0.0
S428 S 0.89882 0.91978 0.39298 0.0
N429 N 0.89644 0.86751 0.40412 0.0
N430 N 0.9407 0.96397 0.44163 0.0
C431 C 0.9552 0.93712 0.46953 0.0
C432 C 0.9314 0.88474 0.44911 0.0
C433 C 0.34796 0.76206 0.76612 0.0
C434 C 0.33922 0.79588 0.74161 0.0
C435 C 0.38219 0.74546 0.75408 0.0
C436 C 0.41002 0.76279 0.71769 0.0
H437 H 0.3299 0.7498 0.79595 0.0
H438 H 0.38892 0.72054 0.77464 0.0
S439 S 0.39662 0.84802 0.64011 0.0
N440 N 0.35773 0.8435 0.67741 0.0
N441 N 0.42216 0.81222 0.65456 0.0
C442 C 0.39936 0.79476 0.69151 0.0
C443 C 0.36387 0.81124 0.70349 0.0
C444 C 0.67052 0.77455 0.78655 0.0
C445 C 0.66904 0.72933 0.79127 0.0
C446 C 0.70071 0.80718 0.757 0.0
C447 C 0.73162 0.79661 0.73154 0.0
H448 H 0.64758 0.78473 0.80547 0.0
H449 H 0.69987 0.84112 0.75406 0.0
S450 S 0.74871 0.68761 0.73524 0.0
N451 N 0.70583 0.67826 0.77047 0.0
N452 N 0.76357 0.7408 0.71523 0.0
C453 C 0.73364 0.75344 0.73759 0.0
C454 C 0.70236 0.71965 0.76755 0.0
C455 C 0.68653 0.16813 0.31735 0.0
C456 C 0.74856 0.18987 0.33057 0.0
C457 C 0.65406 0.15427 0.27033 0.0
C458 C 0.68137 0.16027 0.23364 0.0
H459 H 0.66176 0.15964 0.34348 0.0
H460 H 0.60623 0.1367 0.26288 0.0
S461 S 0.84364 0.21908 0.24866 0.0
N462 N 0.83728 0.2205 0.30289 0.0
N463 N 0.77537 0.1924 0.21381 0.0
C464 C 0.74382 0.18365 0.246 0.0
C465 C 0.77742 0.19852 0.29447 0.0
C466 C 0.44563 0.64246 0.42219 0.0
C467 C 0.50029 0.69076 0.42738 0.0
C468 C 0.43822 0.61138 0.45676 0.0
C469 C 0.48519 0.62783 0.49749 0.0
H470 H 0.40994 0.6274 0.39009 0.0
H471 H 0.39666 0.57336 0.45058 0.0
S472 S 0.63152 0.75723 0.53212 0.0
N473 N 0.59767 0.75766 0.47952 0.0
N474 N 0.58431 0.70002 0.54428 0.0
C475 C 0.53752 0.6786 0.50502 0.0
C476 C 0.54493 0.70989 0.46998 0.0
C477 C 0.11573 0.52196 0.93068 0.0
C478 C 0.14154 0.4944 0.94304 0.0
C479 C 0.08986 0.53396 0.96132 0.0
C480 C 0.08934 0.51956 1.00603 0.0
H481 H 0.11859 0.53694 0.89828 0.0
H482 H 0.07246 0.55668 0.95058 0.0
S483 S 0.14748 0.44332 0.05347 0.0
N484 N 0.16171 0.45048 1.00179 0.0
N485 N 0.11384 0.4726 0.05895 0.0
C486 C 0.11269 0.48989 1.01764 0.0
C487 C 0.13852 0.47752 0.98638 0.0
C488 C 0.53662 0.82253 0.84632 0.0
C489 C 0.49213 0.78811 0.86781 0.0
C490 C 0.56857 0.8765 0.85982 0.0
C491 C 0.55521 0.89801 0.89358 0.0
H492 H 0.54977 0.80773 0.82112 0.0
H493 H 0.60597 0.90149 0.84566 0.0
S494 S 0.43485 0.82634 0.95302 0.0
N495 N 0.43148 0.78045 0.92024 0.0
N496 N 0.48899 0.8819 0.94295 0.0
C497 C 0.50618 0.86449 0.911 0.0
C498 C 0.47488 0.80947 0.89851 0.0
C499 C 0.83813 0.10923 0.47095 0.0
C500 C 0.86902 0.15969 0.46109 0.0
C501 C 0.86921 0.08939 0.49391 0.0
C502 C 0.93257 0.11953 0.50858 0.0
H503 H 0.7895 0.08563 0.4624 0.0
H504 H 0.84308 0.0509 0.50204 0.0
S505 S 0.03401 0.25327 0.48778 0.0
N506 N 0.96576 0.23847 0.46495 0.0
N507 N 0.02479 0.2018 0.50834 0.0
C508 C 0.96387 0.16944 0.49693 0.0
C509 C 0.93196 0.18939 0.47323 0.0
C510 C 0.27361 0.75467 0.22959 0.0
C511 C 0.30732 0.73349 0.23055 0.0
C512 C 0.2159 0.72975 0.19908 0.0
C513 C 0.18981 0.68262 0.16879 0.0
H514 H 0.29331 0.79213 0.25097 0.0
H515 H 0.19219 0.74813 0.19844 0.0
S516 S 0.25831 0.60981 0.15938 0.0
N517 N 0.30989 0.6621 0.19965 0.0
N518 N 0.2007 0.61421 0.14333 0.0
C519 C 0.22179 0.65965 0.17117 0.0
C520 C 0.28075 0.68531 0.20192 0.0
C521 C 0.26002 0.45624 0.65775 0.0
C522 C 0.27906 0.46513 0.70733 0.0
C523 C 0.30157 0.47521 0.6305 0.0
C524 C 0.36359 0.50394 0.65197 0.0
H525 H 0.2125 0.43379 0.63987 0.0
H526 H 0.28514 0.46738 0.5926 0.0
S527 S 0.43693 0.53309 0.77934 0.0
N528 N 0.36456 0.50142 0.77589 0.0
N529 N 0.44207 0.53779 0.72498 0.0
C530 C 0.38318 0.51281 0.70122 0.0
C531 C 0.34116 0.49334 0.72885 0.0
C532 C 0.648 0.58468 0.90719 0.0
C533 C 0.65153 0.63015 0.91959 0.0
C534 C 0.695 0.58017 0.92774 0.0
C535 C 0.74699 0.62121 0.96114 0.0
H536 H 0.61154 0.55473 0.87833 0.0
H537 H 0.6926 0.54602 0.91495 0.0
S538 S 0.77274 0.74502 1.01 0.0
N539 N 0.70638 0.71371 0.97113 0.0
N540 N 0.79532 0.70603 1.00957 0.0
C541 C 0.74774 0.66442 0.97733 0.0
C542 C 0.69968 0.66865 0.95659 0.0
C543 C 0.48085 0.92303 0.22285 0.0
C544 C 0.50249 0.89177 0.23191 0.0
C545 C 0.50361 0.96057 0.19465 0.0
C546 C 0.55027 0.96956 0.17589 0.0
H547 H 0.44453 0.91724 0.23638 0.0
H548 H 0.48442 0.98256 0.18734 0.0
S549 S 0.62505 0.90089 0.19001 0.0
N550 N 0.57404 0.87321 0.21948 0.0
N551 N 0.61952 0.94662 0.16935 0.0
C552 C 0.57476 0.94095 0.18651 0.0
C553 C 0.55037 0.90148 0.214 0.0
C554 C 0.1437 0.27368 0.7414 0.0
C555 C 0.11598 0.30043 0.73826 0.0
C556 C 0.11237 0.22164 0.71898 0.0
C557 C 0.0521 0.19434 0.69212 0.0
H558 H 0.19092 0.29398 0.75964 0.0
H559 H 0.13617 0.20324 0.72156 0.0
S560 S 0.95896 0.24687 0.67335 0.0
N561 N 0.02486 0.29576 0.7069 0.0
N562 N 0.96553 0.19811 0.66483 0.0
C563 C 1.02338 0.22032 0.68987 0.0
C564 C 0.05539 0.27328 0.71289 0.0
C565 C 0.66342 0.30407 0.56273 0.0
C566 C 0.67938 0.29456 0.52311 0.0
C567 C 0.64212 0.33537 0.56426 0.0
C568 C 0.63807 0.36096 0.52715 0.0
H569 H 0.66557 0.28591 0.59272 0.0
H570 H 0.62649 0.33758 0.59434 0.0
S571 S 0.68649 0.35887 0.41934 0.0
N572 N 0.6948 0.31782 0.44721 0.0
N573 N 0.66199 0.3818 0.45292 0.0
C574 C 0.65929 0.35597 0.48914 0.0
C575 C 0.67855 0.32198 0.48657 0.0
loop_
_geom_bond_atom_site_label_1
_geom_bond_atom_site_label_2
_geom_bond_distance
_geom_bond_site_symmetry_2
_ccdc_geom_bond_type
H0 C1 0.949 . S
C1 H0 0.949 . S
C1 C2 1.395 . S
C1 C3 1.391 . S
C2 C1 1.395 . S
C2 C5 1.390 . S
C3 C1 1.391 . S
C3 C7 1.387 . S
C3 C8 1.491 . S
H4 C5 0.950 . S
C5 C2 1.390 . S
C5 H4 0.950 . S
C5 C6 1.378 . S
C6 C5 1.378 . S
C6 C7 1.409 . S
C7 C3 1.387 . S
C7 C6 1.409 . S
C7 H9 0.951 . S
C8 C3 1.491 . S
C8 C10 1.382 . S
C8 C12 1.404 . S
H9 C7 0.951 . S
C10 C8 1.382 . S
C10 C11 1.390 . S
C10 H15 0.949 . S
C11 C10 1.390 . S
C11 C16 1.399 . S
C12 C8 1.404 . S
C12 H13 0.950 . S
C12 C14 1.375 . S
H13 C12 0.950 . S
C14 C12 1.375 . S
C14 C16 1.382 . S
C14 H18 0.950 . S
H15 C10 0.949 . S
C16 C11 1.399 . S
C16 C14 1.382 . S
C16 H17 0.952 . S
H17 C16 0.952 . S
H18 C14 0.950 . S
H19 C20 0.949 . S
C20 H19 0.949 . S
C20 C21 1.395 . S
C20 C22 1.391 . S
C21 C20 1.395 . S
C21 C24 1.390 . S
C22 C20 1.391 . S
C22 C26 1.387 . S
C22 C27 1.491 . S
H23 C24 0.950 . S
C24 C21 1.390 . S
C24 H23 0.950 . S
C24 C25 1.378 . S
C25 C24 1.378 . S
C25 C26 1.409 . S
C26 C22 1.387 . S
C26 C25 1.409 . S
C26 H28 0.951 . S
C27 C22 1.491 . S
C27 C29 1.382 . S
C27 C31 1.404 . S
H28 C26 0.951 . S
C29 C27 1.382 . S
C29 C30 1.390 . S
C29 H34 0.949 . S
C30 C29 1.390 . S
C30 C35 1.399 1_455 S
C31 C27 1.404 . S
C31 H32 0.950 . S
C31 C33 1.375 1_455 S
H32 C31 0.950 . S
C33 C31 1.375 1_655 S
C33 C35 1.382 . S
C33 H37 0.950 . S
H34 C29 0.949 . S
C35 C30 1.399 1_655 S
C35 C33 1.382 . S
C35 H36 0.952 . S
H36 C35 0.952 . S
H37 C33 0.950 . S
H38 C39 0.949 . S
C39 H38 0.949 . S
C39 C40 1.395 . S
C39 C41 1.391 . S
C40 C39 1.395 . S
C40 C43 1.390 . S
C41 C39 1.391 . S
C41 C45 1.387 . S
C41 C46 1.491 . S
H42 C43 0.950 . S
C43 C40 1.390 . S
C43 H42 0.950 . S
C43 C44 1.378 . S
C44 C43 1.378 . S
C44 C45 1.409 . S
C45 C41 1.387 . S
C45 C44 1.409 . S
C45 H47 0.951 . S
C46 C41 1.491 . S
C46 C48 1.382 . S
C46 C50 1.404 . S
H47 C45 0.951 . S
C48 C46 1.382 . S
C48 C49 1.390 . S
C48 H53 0.949 . S
C49 C48 1.390 . S
C49 C54 1.399 . S
C50 C46 1.404 . S
C50 H51 0.950 . S
C50 C52 1.375 . S
H51 C50 0.950 . S
C52 C50 1.375 . S
C52 C54 1.382 . S
C52 H56 0.950 . S
H53 C48 0.949 . S
C54 C49 1.399 . S
C54 C52 1.382 . S
C54 H55 0.952 . S
H55 C54 0.952 . S
H56 C52 0.950 . S
H57 C58 0.949 . S
C58 H57 0.949 . S
C58 C59 1.395 . S
C58 C60 1.391 . S
C59 C58 1.395 . S
C59 C62 1.390 . S
C60 C58 1.391 . S
C60 C64 1.387 . S
C60 C65 1.491 . S
H61 C62 0.950 . S
C62 C59 1.390 . S
C62 H61 0.950 . S
C62 C63 1.378 . S
C63 C62 1.378 . S
C63 C64 1.409 . S
C64 C60 1.387 . S
C64 C63 1.409 . S
C64 H66 0.951 . S
C65 C60 1.491 . S
C65 C67 1.382 . S
C65 C69 1.404 . S
H66 C64 0.951 . S
C67 C65 1.382 . S
C67 C68 1.390 . S
C67 H72 0.949 . S
C68 C67 1.390 . S
C68 C73 1.399 . S
C69 C65 1.404 . S
C69 H70 0.950 . S
C69 C71 1.375 . S
H70 C69 0.950 . S
C71 C69 1.375 . S
C71 C73 1.382 . S
C71 H75 0.950 . S
H72 C67 0.949 . S
C73 C68 1.399 . S
C73 C71 1.382 . S
C73 H74 0.952 . S
H74 C73 0.952 . S
H75 C71 0.950 . S
H76 C77 0.949 . S
C77 H76 0.949 . S
C77 C78 1.395 . S
C77 C79 1.391 . S
C78 C77 1.395 . S
C78 C81 1.390 . S
C79 C77 1.391 . S
C79 C83 1.387 . S
C79 C84 1.491 . S
H80 C81 0.950 . S
C81 C78 1.390 . S
C81 H80 0.950 . S
C81 C82 1.378 . S
C82 C81 1.378 . S
C82 C83 1.409 . S
C83 C79 1.387 . S
C83 C82 1.409 . S
C83 H85 0.951 . S
C84 C79 1.491 . S
C84 C86 1.382 . S
C84 C88 1.404 . S
H85 C83 0.951 . S
C86 C84 1.382 . S
C86 C87 1.390 . S
C86 H91 0.949 . S
C87 C86 1.390 . S
C87 C92 1.399 . S
C88 C84 1.404 . S
C88 H89 0.950 . S
C88 C90 1.375 . S
H89 C88 0.950 . S
C90 C88 1.375 . S
C90 C92 1.382 . S
C90 H94 0.950 . S
H91 C86 0.949 . S
C92 C87 1.399 . S
C92 C90 1.382 . S
C92 H93 0.952 . S
H93 C92 0.952 . S
H94 C90 0.950 . S
H95 C96 0.949 . S
C96 H95 0.949 . S
C96 C97 1.395 . S
C96 C98 1.391 . S
C97 C96 1.395 . S
C97 C100 1.390 . S
C98 C96 1.391 . S
C98 C102 1.387 . S
C98 C103 1.491 . S
H99 C100 0.950 . S
C100 C97 1.390 . S
C100 H99 0.950 . S
C100 C101 1.378 . S
C101 C100 1.378 . S
C101 C102 1.409 . S
C102 C98 1.387 . S
C102 C101 1.409 . S
C102 H104 0.951 . S
C103 C98 1.491 . S
C103 C105 1.382 . S
C103 C107 1.404 . S
H104 C102 0.951 . S
C105 C103 1.382 . S
C105 C106 1.390 . S
C105 H110 0.949 . S
C106 C105 1.390 . S
C106 C111 1.399 . S
C107 C103 1.404 . S
C107 H108 0.950 . S
C107 C109 1.375 . S
H108 C107 0.950 . S
C109 C107 1.375 . S
C109 C111 1.382 . S
C109 H113 0.950 . S
H110 C105 0.949 . S
C111 C106 1.399 . S
C111 C109 1.382 . S
C111 H112 0.952 . S
H112 C111 0.952 . S
H113 C109 0.950 . S
H114 C115 0.949 . S
C115 H114 0.949 . S
C115 C116 1.395 . S
C115 C117 1.391 . S
C116 C115 1.395 . S
C116 C119 1.390 . S
C117 C115 1.391 . S
C117 C121 1.387 . S
C117 C122 1.491 . S
H118 C119 0.950 . S
C119 C116 1.390 . S
C119 H118 0.950 . S
C119 C120 1.378 . S
C120 C119 1.378 . S
C120 C121 1.409 . S
C121 C117 1.387 . S
C121 C120 1.409 . S
C121 H123 0.951 . S
C122 C117 1.491 . S
C122 C124 1.382 . S
C122 C126 1.404 . S
H123 C121 0.951 . S
C124 C122 1.382 . S
C124 C125 1.390 . S
C124 H129 0.949 . S
C125 C124 1.390 . S
C125 C130 1.399 . S
C126 C122 1.404 . S
C126 H127 0.950 . S
C126 C128 1.375 . S
H127 C126 0.950 . S
C128 C126 1.375 . S
C128 C130 1.382 . S
C128 H132 0.950 . S
H129 C124 0.949 . S
C130 C125 1.399 . S
C130 C128 1.382 . S
C130 H131 0.952 . S
H131 C130 0.952 . S
H132 C128 0.950 . S
H133 C134 0.949 . S
C134 H133 0.949 . S
C134 C135 1.395 . S
C134 C136 1.391 . S
C135 C134 1.395 . S
C135 C138 1.390 . S
C136 C134 1.391 . S
C136 C140 1.387 . S
C136 C141 1.491 . S
H137 C138 0.950 . S
C138 C135 1.390 . S
C138 H137 0.950 . S
C138 C139 1.378 . S
C139 C138 1.378 . S
C139 C140 1.409 . S
C140 C136 1.387 . S
C140 C139 1.409 . S
C140 H142 0.951 . S
C141 C136 1.491 . S
C141 C143 1.382 . S
C141 C145 1.404 . S
H142 C140 0.951 . S
C143 C141 1.382 . S
C143 C144 1.390 . S
C143 H148 0.949 . S
C144 C143 1.390 . S
C144 C149 1.399 . S
C145 C141 1.404 . S
C145 H146 0.950 . S
C145 C147 1.375 . S
H146 C145 0.950 . S
C147 C145 1.375 . S
C147 C149 1.382 . S
C147 H151 0.950 . S
H148 C143 0.949 . S
C149 C144 1.399 . S
C149 C147 1.382 . S
C149 H150 0.952 . S
H150 C149 0.952 . S
H151 C147 0.950 . S
Pr152 C154 2.880 1_545 S
Pr152 O172 2.562 1_545 S
Pr152 O173 2.490 1_545 S
Pr152 O174 2.695 1_655 S
Pr152 O175 2.512 1_655 S
Pr152 O177 2.437 1_655 S
Pr152 O180 2.436 1_545 S
Pr152 O182 2.438 . S
Pr153 C163 2.880 . S
Pr153 O174 2.436 . S
Pr153 O176 2.438 . S
Pr153 O178 2.562 . S
Pr153 O179 2.490 . S
Pr153 O180 2.695 1_445 S
Pr153 O181 2.512 1_545 S
Pr153 O183 2.437 . S
C154 Pr152 2.880 1_565 S
C154 C155 1.491 . S
C154 O172 1.254 . S
C154 O173 1.225 . S
C155 C154 1.491 . S
C155 C156 1.392 . S
C155 C160 1.356 . S
C156 C155 1.392 . S
C156 C157 1.368 . S
C156 H184 0.929 . S
C157 C156 1.368 . S
C157 C158 1.386 . S
C157 H185 0.929 . S
C158 C157 1.386 . S
C158 C159 1.373 . S
C159 C158 1.373 . S
C159 C160 1.409 . S
C159 H186 0.931 . S
C160 C155 1.356 . S
C160 C159 1.409 . S
C160 H187 0.930 . S
C161 O174 1.270 . S
C161 O175 1.248 . S
C162 O176 1.267 1_565 S
C162 O177 1.278 1_565 S
C163 Pr153 2.880 . S
C163 C164 1.491 . S
C163 O178 1.254 . S
C163 O179 1.225 . S
C164 C163 1.491 . S
C164 C165 1.392 . S
C164 C169 1.356 . S
C165 C164 1.392 . S
C165 C166 1.368 . S
C165 H188 0.929 . S
C166 C165 1.368 . S
C166 C167 1.386 . S
C166 H189 0.929 . S
C167 C166 1.386 . S
C167 C168 1.373 . S
C168 C167 1.373 . S
C168 C169 1.409 . S
C168 H190 0.931 . S
C169 C164 1.356 . S
C169 C168 1.409 . S
C169 H191 0.930 . S
C170 O180 1.270 . S
C170 O181 1.248 1_655 S
C171 O182 1.267 . S
C171 O183 1.278 1_655 S
O172 Pr152 2.562 1_565 S
O172 C154 1.254 . S
O173 Pr152 2.490 1_565 S
O173 C154 1.225 . S
O174 Pr152 2.695 1_455 S
O174 Pr153 2.436 . S
O174 C161 1.270 . S
O175 Pr152 2.512 1_455 S
O175 C161 1.248 . S
O176 Pr153 2.438 . S
O176 C162 1.267 1_545 S
O177 Pr152 2.437 1_455 S
O177 C162 1.278 1_545 S
O178 Pr153 2.562 . S
O178 C163 1.254 . S
O179 Pr153 2.490 . S
O179 C163 1.225 . S
O180 Pr152 2.436 1_565 S
O180 Pr153 2.695 1_665 S
O180 C170 1.270 . S
O181 Pr153 2.512 1_565 S
O181 C170 1.248 1_455 S
O182 Pr152 2.438 . S
O182 C171 1.267 . S
O183 Pr153 2.437 . S
O183 C171 1.278 1_455 S
H184 C156 0.929 . S
H185 C157 0.929 . S
H186 C159 0.931 . S
H187 C160 0.930 . S
H188 C165 0.929 . S
H189 C166 0.929 . S
H190 C168 0.931 . S
H191 C169 0.930 . S
Pr192 C194 2.880 . S
Pr192 O212 2.562 . S
Pr192 O213 2.490 . S
Pr192 O214 2.695 . S
Pr192 O215 2.512 . S
Pr192 O217 2.437 . S
Pr192 O220 2.436 1_545 S
Pr192 O222 2.438 1_545 S
Pr193 C203 2.880 . S
Pr193 O214 2.436 1_565 S
Pr193 O216 2.438 1_565 S
Pr193 O218 2.562 . S
Pr193 O219 2.490 . S
Pr193 O220 2.695 . S
Pr193 O221 2.512 . S
Pr193 O223 2.437 . S
C194 Pr192 2.880 . S
C194 C195 1.491 . S
C194 O212 1.254 . S
C194 O213 1.225 . S
C195 C194 1.491 . S
C195 C196 1.392 . S
C195 C200 1.356 . S
C196 C195 1.392 . S
C196 C197 1.368 . S
C196 H224 0.929 . S
C197 C196 1.368 . S
C197 C198 1.386 . S
C197 H225 0.929 . S
C198 C197 1.386 . S
C198 C199 1.373 . S
C199 C198 1.373 . S
C199 C200 1.409 . S
C199 H226 0.931 . S
C200 C195 1.356 . S
C200 C199 1.409 . S
C200 H227 0.930 . S
C201 O214 1.270 . S
C201 O215 1.248 . S
C202 O216 1.267 . S
C202 O217 1.278 . S
C203 Pr193 2.880 . S
C203 C204 1.491 . S
C203 O218 1.254 . S
C203 O219 1.225 . S
C204 C203 1.491 . S
C204 C205 1.392 . S
C204 C209 1.356 1_554 S
C205 C204 1.392 . S
C205 C206 1.368 1_554 S
C205 H228 0.929 . S
C206 C205 1.368 1_556 S
C206 C207 1.386 . S
C206 H229 0.929 . S
C207 C206 1.386 . S
C207 C208 1.373 . S
C208 C207 1.373 . S
C208 C209 1.409 . S
C208 H230 0.931 . S
C209 C204 1.356 1_556 S
C209 C208 1.409 . S
C209 H231 0.930 . S
C210 O220 1.270 . S
C210 O221 1.248 . S
C211 O222 1.267 . S
C211 O223 1.278 . S
O212 Pr192 2.562 . S
O212 C194 1.254 . S
O213 Pr192 2.490 . S
O213 C194 1.225 . S
O214 Pr192 2.695 . S
O214 Pr193 2.436 1_545 S
O214 C201 1.270 . S
O215 Pr192 2.512 . S
O215 C201 1.248 . S
O216 Pr193 2.438 1_545 S
O216 C202 1.267 . S
O217 Pr192 2.437 . S
O217 C202 1.278 . S
O218 Pr193 2.562 . S
O218 C203 1.254 . S
O219 Pr193 2.490 . S
O219 C203 1.225 . S
O220 Pr192 2.436 1_565 S
O220 Pr193 2.695 . S
O220 C210 1.270 . S
O221 Pr193 2.512 . S
O221 C210 1.248 . S
O222 Pr192 2.438 1_565 S
O222 C211 1.267 . S
O223 Pr193 2.437 . S
O223 C211 1.278 . S
H224 C196 0.929 . S
H225 C197 0.929 . S
H226 C199 0.931 . S
H227 C200 0.930 . S
H228 C205 0.929 . S
H229 C206 0.929 . S
H230 C208 0.931 . S
H231 C209 0.930 . S
Pr232 C234 2.880 . S
Pr232 O252 2.562 . S
Pr232 O253 2.490 . S
Pr232 O254 2.695 . S
Pr232 O255 2.512 . S
Pr232 O257 2.437 . S
Pr232 O260 2.436 . S
Pr232 O262 2.438 . S
Pr233 C243 2.880 . S
Pr233 O254 2.436 . S
Pr233 O256 2.438 . S
Pr233 O258 2.562 . S
Pr233 O259 2.490 . S
Pr233 O260 2.695 . S
Pr233 O261 2.512 . S
Pr233 O263 2.437 . S
C234 Pr232 2.880 . S
C234 C235 1.491 . S
C234 O252 1.254 . S
C234 O253 1.225 . S
C235 C234 1.491 . S
C235 C236 1.392 . S
C235 C240 1.356 . S
C236 C235 1.392 . S
C236 C237 1.368 . S
C236 H264 0.929 . S
C237 C236 1.368 . S
C237 C238 1.386 . S
C237 H265 0.929 . S
C238 C237 1.386 . S
C238 C239 1.373 . S
C239 C238 1.373 . S
C239 C240 1.409 . S
C239 H266 0.931 . S
C240 C235 1.356 . S
C240 C239 1.409 . S
C240 H267 0.930 . S
C241 O254 1.270 . S
C241 O255 1.248 . S
C242 O256 1.267 . S
C242 O257 1.278 . S
C243 Pr233 2.880 . S
C243 C244 1.491 . S
C243 O258 1.254 . S
C243 O259 1.225 . S
C244 C243 1.491 . S
C244 C245 1.392 . S
C244 C249 1.356 . S
C245 C244 1.392 . S
C245 C246 1.368 . S
C245 H268 0.929 . S
C246 C245 1.368 . S
C246 C247 1.386 . S
C246 H269 0.929 . S
C247 C246 1.386 . S
C247 C248 1.373 . S
C248 C247 1.373 . S
C248 C249 1.409 . S
C248 H270 0.931 . S
C249 C244 1.356 . S
C249 C248 1.409 . S
C249 H271 0.930 . S
C250 O260 1.270 . S
C250 O261 1.248 . S
C251 O262 1.267 . S
C251 O263 1.278 . S
O252 Pr232 2.562 . S
O252 C234 1.254 . S
O253 Pr232 2.490 . S
O253 C234 1.225 . S
O254 Pr232 2.695 . S
O254 Pr233 2.436 . S
O254 C241 1.270 . S
O255 Pr232 2.512 . S
O255 C241 1.248 . S
O256 Pr233 2.438 . S
O256 C242 1.267 . S
O257 Pr232 2.437 . S
O257 C242 1.278 . S
O258 Pr233 2.562 . S
O258 C243 1.254 . S
O259 Pr233 2.490 . S
O259 C243 1.225 . S
O260 Pr232 2.436 . S
O260 Pr233 2.695 . S
O260 C250 1.270 . S
O261 Pr233 2.512 . S
O261 C250 1.248 . S
O262 Pr232 2.438 . S
O262 C251 1.267 . S
O263 Pr233 2.437 . S
O263 C251 1.278 . S
H264 C236 0.929 . S
H265 C237 0.929 . S
H266 C239 0.931 . S
H267 C240 0.930 . S
H268 C245 0.929 . S
H269 C246 0.929 . S
H270 C248 0.931 . S
H271 C249 0.930 . S
Pr272 C274 2.880 . S
Pr272 O292 2.562 1_455 S
Pr272 O293 2.490 . S
Pr272 O294 2.695 1_556 S
Pr272 O295 2.512 1_556 S
Pr272 O297 2.437 1_556 S
Pr272 O300 2.436 1_455 S
Pr272 O302 2.438 . S
Pr273 C283 2.880 . S
Pr273 O294 2.436 . S
Pr273 O296 2.438 . S
Pr273 O298 2.562 . S
Pr273 O299 2.490 . S
Pr273 O300 2.695 1_454 S
Pr273 O301 2.512 1_455 S
Pr273 O303 2.437 . S
C274 Pr272 2.880 . S
C274 C275 1.491 1_455 S
C274 O292 1.254 1_455 S
C274 O293 1.225 . S
C275 C274 1.491 1_655 S
C275 C276 1.392 1_655 S
C275 C280 1.356 . S
C276 C275 1.392 1_455 S
C276 C277 1.368 1_455 S
C276 H304 0.929 . S
C277 C276 1.368 1_655 S
C277 C278 1.386 . S
C277 H305 0.929 1_655 S
C278 C277 1.386 . S
C278 C279 1.373 . S
C279 C278 1.373 . S
C279 C280 1.409 . S
C279 H306 0.931 . S
C280 C275 1.356 . S
C280 C279 1.409 . S
C280 H307 0.930 . S
C281 O294 1.270 . S
C281 O295 1.248 . S
C282 O296 1.267 . S
C282 O297 1.278 . S
C283 Pr273 2.880 . S
C283 C284 1.491 . S
C283 O298 1.254 . S
C283 O299 1.225 . S
C284 C283 1.491 . S
C284 C285 1.392 . S
C284 C289 1.356 . S
C285 C284 1.392 . S
C285 C286 1.368 . S
C285 H308 0.929 . S
C286 C285 1.368 . S
C286 C287 1.386 . S
C286 H309 0.929 . S
C287 C286 1.386 . S
C287 C288 1.373 . S
C288 C287 1.373 . S
C288 C289 1.409 . S
C288 H310 0.931 . S
C289 C284 1.356 . S
C289 C288 1.409 . S
C289 H311 0.930 . S
C290 O300 1.270 . S
C290 O301 1.248 1_556 S
C291 O302 1.267 . S
C291 O303 1.278 1_556 S
O292 Pr272 2.562 1_655 S
O292 C274 1.254 1_655 S
O293 Pr272 2.490 . S
O293 C274 1.225 . S
O294 Pr272 2.695 1_554 S
O294 Pr273 2.436 . S
O294 C281 1.270 . S
O295 Pr272 2.512 1_554 S
O295 C281 1.248 . S
O296 Pr273 2.438 . S
O296 C282 1.267 . S
O297 Pr272 2.437 1_554 S
O297 C282 1.278 . S
O298 Pr273 2.562 . S
O298 C283 1.254 . S
O299 Pr273 2.490 . S
O299 C283 1.225 . S
O300 Pr272 2.436 1_655 S
O300 Pr273 2.695 1_656 S
O300 C290 1.270 . S
O301 Pr273 2.512 1_655 S
O301 C290 1.248 1_554 S
O302 Pr272 2.438 . S
O302 C291 1.267 . S
O303 Pr273 2.437 . S
O303 C291 1.278 1_554 S
H304 C276 0.929 . S
H305 C277 0.929 1_455 S
H306 C279 0.931 . S
H307 C280 0.930 . S
H308 C285 0.929 . S
H309 C286 0.929 . S
H310 C288 0.931 . S
H311 C289 0.930 . S
C312 C313 1.369 . S
C312 C314 1.419 . S
C312 H316 0.930 . S
C313 C312 1.369 . S
C313 C322 1.429 . S
C314 C312 1.419 . S
C314 C315 1.363 . S
C314 H317 0.929 . S
C315 C314 1.363 . S
C315 C321 1.428 . S
H316 C312 0.930 . S
H317 C314 0.929 . S
S318 N319 1.613 . S
S318 N320 1.610 . S
N319 S318 1.613 . S
N319 C322 1.350 . S
N320 S318 1.610 . S
N320 C321 1.351 . S
C321 C315 1.428 . S
C321 N320 1.351 . S
C321 C322 1.434 . S
C322 C313 1.429 . S
C322 N319 1.350 . S
C322 C321 1.434 . S
C323 C324 1.369 . S
C323 C325 1.419 . S
C323 H327 0.930 . S
C324 C323 1.369 . S
C324 C333 1.429 . S
C325 C323 1.419 . S
C325 C326 1.363 . S
C325 H328 0.929 . S
C326 C325 1.363 . S
C326 C332 1.428 . S
H327 C323 0.930 . S
H328 C325 0.929 . S
S329 N330 1.613 . S
S329 N331 1.610 . S
N330 S329 1.613 . S
N330 C333 1.350 . S
N331 S329 1.610 . S
N331 C332 1.351 . S
C332 C326 1.428 . S
C332 N331 1.351 . S
C332 C333 1.434 . S
C333 C324 1.429 . S
C333 N330 1.350 . S
C333 C332 1.434 . S
C334 C335 1.369 . S
C334 C336 1.419 . S
C334 H338 0.930 . S
C335 C334 1.369 . S
C335 C344 1.429 . S
C336 C334 1.419 . S
C336 C337 1.363 . S
C336 H339 0.929 . S
C337 C336 1.363 . S
C337 C343 1.428 . S
H338 C334 0.930 . S
H339 C336 0.929 . S
S340 N341 1.613 . S
S340 N342 1.610 . S
N341 S340 1.613 . S
N341 C344 1.350 . S
N342 S340 1.610 . S
N342 C343 1.351 . S
C343 C337 1.428 . S
C343 N342 1.351 . S
C343 C344 1.434 . S
C344 C335 1.429 . S
C344 N341 1.350 . S
C344 C343 1.434 . S
C345 C346 1.369 . S
C345 C347 1.419 . S
C345 H349 0.930 . S
C346 C345 1.369 . S
C346 C355 1.429 . S
C347 C345 1.419 . S
C347 C348 1.363 . S
C347 H350 0.929 . S
C348 C347 1.363 . S
C348 C354 1.428 . S
H349 C345 0.930 . S
H350 C347 0.929 . S
S351 N352 1.613 1_455 S
S351 N353 1.610 . S
N352 S351 1.613 1_655 S
N352 C355 1.350 . S
N353 S351 1.610 . S
N353 C354 1.351 1_455 S
C354 C348 1.428 . S
C354 N353 1.351 1_655 S
C354 C355 1.434 . S
C355 C346 1.429 . S
C355 N352 1.350 . S
C355 C354 1.434 . S
C356 C357 1.369 . S
C356 C358 1.419 . S
C356 H360 0.930 . S
C357 C356 1.369 . S
C357 C366 1.429 . S
C358 C356 1.419 . S
C358 C359 1.363 . S
C358 H361 0.929 . S
C359 C358 1.363 . S
C359 C365 1.428 . S
H360 C356 0.930 . S
H361 C358 0.929 . S
S362 N363 1.613 . S
S362 N364 1.610 . S
N363 S362 1.613 . S
N363 C366 1.350 . S
N364 S362 1.610 . S
N364 C365 1.351 . S
C365 C359 1.428 . S
C365 N364 1.351 . S
C365 C366 1.434 . S
C366 C357 1.429 . S
C366 N363 1.350 . S
C366 C365 1.434 . S
C367 C368 1.369 . S
C367 C369 1.419 . S
C367 H371 0.930 . S
C368 C367 1.369 . S
C368 C377 1.429 1_455 S
C369 C367 1.419 . S
C369 C370 1.363 . S
C369 H372 0.929 . S
C370 C369 1.363 . S
C370 C376 1.428 1_455 S
H371 C367 0.930 . S
H372 C369 0.929 . S
S373 N374 1.613 . S
S373 N375 1.610 . S
N374 S373 1.613 . S
N374 C377 1.350 . S
N375 S373 1.610 . S
N375 C376 1.351 . S
C376 C370 1.428 1_655 S
C376 N375 1.351 . S
C376 C377 1.434 . S
C377 C368 1.429 1_655 S
C377 N374 1.350 . S
C377 C376 1.434 . S
C378 C379 1.369 . S
C378 C380 1.419 . S
C378 H382 0.930 . S
C379 C378 1.369 . S
C379 C388 1.429 . S
C380 C378 1.419 . S
C380 C381 1.363 . S
C380 H383 0.929 . S
C381 C380 1.363 . S
C381 C387 1.428 . S
H382 C378 0.930 . S
H383 C380 0.929 . S
S384 N385 1.613 . S
S384 N386 1.610 . S
N385 S384 1.613 . S
N385 C388 1.350 . S
N386 S384 1.610 . S
N386 C387 1.351 . S
C387 C381 1.428 . S
C387 N386 1.351 . S
C387 C388 1.434 . S
C388 C379 1.429 . S
C388 N385 1.350 . S
C388 C387 1.434 . S
C389 C390 1.369 . S
C389 C391 1.419 . S
C389 H393 0.930 . S
C390 C389 1.369 . S
C390 C399 1.429 . S
C391 C389 1.419 . S
C391 C392 1.363 . S
C391 H394 0.929 . S
C392 C391 1.363 . S
C392 C398 1.428 . S
H393 C389 0.930 . S
H394 C391 0.929 . S
S395 N396 1.613 . S
S395 N397 1.610 . S
N396 S395 1.613 . S
N396 C399 1.350 . S
N397 S395 1.610 . S
N397 C398 1.351 . S
C398 C392 1.428 . S
C398 N397 1.351 . S
C398 C399 1.434 . S
C399 C390 1.429 . S
C399 N396 1.350 . S
C399 C398 1.434 . S
C400 C401 1.369 . S
C400 C402 1.419 . S
C400 H404 0.930 . S
C401 C400 1.369 . S
C401 C410 1.429 . S
C402 C400 1.419 . S
C402 C403 1.363 . S
C402 H405 0.929 . S
C403 C402 1.363 . S
C403 C409 1.428 . S
H404 C400 0.930 . S
H405 C402 0.929 . S
S406 N407 1.613 . S
S406 N408 1.610 . S
N407 S406 1.613 . S
N407 C410 1.350 . S
N408 S406 1.610 . S
N408 C409 1.351 . S
C409 C403 1.428 . S
C409 N408 1.351 . S
C409 C410 1.434 . S
C410 C401 1.429 . S
C410 N407 1.350 . S
C410 C409 1.434 . S
C411 C412 1.369 . S
C411 C413 1.419 1_556 S
C411 H415 0.926 1_556 S
C412 C411 1.369 . S
C412 C421 1.429 . S
C413 C411 1.419 1_554 S
C413 C414 1.363 . S
C413 H416 0.929 . S
C414 C413 1.363 . S
C414 C420 1.428 1_554 S
H415 C411 0.926 1_554 S
H416 C413 0.929 . S
S417 N418 1.613 . S
S417 N419 1.610 . S
N418 S417 1.613 . S
N418 C421 1.350 . S
N419 S417 1.610 . S
N419 C420 1.351 . S
C420 C414 1.428 1_556 S
C420 N419 1.351 . S
C420 C421 1.434 . S
C421 C412 1.429 . S
C421 N418 1.350 . S
C421 C420 1.434 . S
C422 C423 1.369 . S
C422 C424 1.419 . S
C422 H426 0.930 . S
C423 C422 1.369 . S
C423 C432 1.429 . S
C424 C422 1.419 . S
C424 C425 1.363 . S
C424 H427 0.929 . S
C425 C424 1.363 . S
C425 C431 1.428 . S
H426 C422 0.930 . S
H427 C424 0.929 . S
S428 N429 1.613 . S
S428 N430 1.610 . S
N429 S428 1.613 . S
N429 C432 1.350 . S
N430 S428 1.610 . S
N430 C431 1.351 . S
C431 C425 1.428 . S
C431 N430 1.351 . S
C431 C432 1.434 . S
C432 C423 1.429 . S
C432 N429 1.350 . S
C432 C431 1.434 . S
C433 C434 1.369 . S
C433 C435 1.419 . S
C433 H437 0.930 . S
C434 C433 1.369 . S
C434 C443 1.429 . S
C435 C433 1.419 . S
C435 C436 1.363 . S
C435 H438 0.929 . S
C436 C435 1.363 . S
C436 C442 1.428 . S
H437 C433 0.930 . S
H438 C435 0.929 . S
S439 N440 1.613 . S
S439 N441 1.610 . S
N440 S439 1.613 . S
N440 C443 1.350 . S
N441 S439 1.610 . S
N441 C442 1.351 . S
C442 C436 1.428 . S
C442 N441 1.351 . S
C442 C443 1.434 . S
C443 C434 1.429 . S
C443 N440 1.350 . S
C443 C442 1.434 . S
C444 C445 1.369 . S
C444 C446 1.419 . S
C444 H448 0.930 . S
C445 C444 1.369 . S
C445 C454 1.429 . S
C446 C444 1.419 . S
C446 C447 1.363 . S
C446 H449 0.929 . S
C447 C446 1.363 . S
C447 C453 1.428 . S
H448 C444 0.930 . S
H449 C446 0.929 . S
S450 N451 1.613 . S
S450 N452 1.610 . S
N451 S450 1.613 . S
N451 C454 1.350 . S
N452 S450 1.610 . S
N452 C453 1.351 . S
C453 C447 1.428 . S
C453 N452 1.351 . S
C453 C454 1.434 . S
C454 C445 1.429 . S
C454 N451 1.350 . S
C454 C453 1.434 . S
C455 C456 1.369 . S
C455 C457 1.419 . S
C455 H459 0.930 . S
C456 C455 1.369 . S
C456 C465 1.429 . S
C457 C455 1.419 . S
C457 C458 1.363 . S
C457 H460 0.929 . S
C458 C457 1.363 . S
C458 C464 1.428 . S
H459 C455 0.930 . S
H460 C457 0.929 . S
S461 N462 1.613 . S
S461 N463 1.610 . S
N462 S461 1.613 . S
N462 C465 1.350 . S
N463 S461 1.610 . S
N463 C464 1.351 . S
C464 C458 1.428 . S
C464 N463 1.351 . S
C464 C465 1.434 . S
C465 C456 1.429 . S
C465 N462 1.350 . S
C465 C464 1.434 . S
C466 C467 1.369 . S
C466 C468 1.419 . S
C466 H470 0.930 . S
C467 C466 1.369 . S
C467 C476 1.429 . S
C468 C466 1.419 . S
C468 C469 1.363 . S
C468 H471 0.929 . S
C469 C468 1.363 . S
C469 C475 1.428 . S
H470 C466 0.930 . S
H471 C468 0.929 . S
S472 N473 1.613 . S
S472 N474 1.610 . S
N473 S472 1.613 . S
N473 C476 1.350 . S
N474 S472 1.610 . S
N474 C475 1.351 . S
C475 C469 1.428 . S
C475 N474 1.351 . S
C475 C476 1.434 . S
C476 C467 1.429 . S
C476 N473 1.350 . S
C476 C475 1.434 . S
C477 C478 1.369 . S
C477 C479 1.419 . S
C477 H481 0.930 . S
C478 C477 1.369 . S
C478 C487 1.429 . S
C479 C477 1.419 . S
C479 C480 1.363 . S
C479 H482 0.929 . S
C480 C479 1.363 . S
C480 C486 1.428 . S
H481 C477 0.930 . S
H482 C479 0.929 . S
S483 N484 1.611 1_554 S
S483 N485 1.608 1_554 S
N484 S483 1.611 1_556 S
N484 C487 1.350 . S
N485 S483 1.608 1_556 S
N485 C486 1.375 . S
C486 C480 1.428 . S
C486 N485 1.375 . S
C486 C487 1.434 . S
C487 C478 1.429 . S
C487 N484 1.350 . S
C487 C486 1.434 . S
C488 C489 1.369 . S
C488 C490 1.419 . S
C488 H492 0.930 . S
C489 C488 1.369 . S
C489 C498 1.429 . S
C490 C488 1.419 . S
C490 C491 1.363 . S
C490 H493 0.929 . S
C491 C490 1.363 . S
C491 C497 1.428 . S
H492 C488 0.930 . S
H493 C490 0.929 . S
S494 N495 1.613 . S
S494 N496 1.610 . S
N495 S494 1.613 . S
N495 C498 1.350 . S
N496 S494 1.610 . S
N496 C497 1.351 . S
C497 C491 1.428 . S
C497 N496 1.351 . S
C497 C498 1.434 . S
C498 C489 1.429 . S
C498 N495 1.350 . S
C498 C497 1.434 . S
C499 C500 1.369 . S
C499 C501 1.419 . S
C499 H503 0.930 . S
C500 C499 1.369 . S
C500 C509 1.429 . S
C501 C499 1.419 . S
C501 C502 1.363 . S
C501 H504 0.929 . S
C502 C501 1.363 . S
C502 C508 1.428 . S
H503 C499 0.930 . S
H504 C501 0.929 . S
S505 N506 1.613 . S
S505 N507 1.610 . S
N506 S505 1.613 . S
N506 C509 1.350 . S
N507 S505 1.610 . S
N507 C508 1.351 . S
C508 C502 1.428 . S
C508 N507 1.351 . S
C508 C509 1.434 . S
C509 C500 1.429 . S
C509 N506 1.350 . S
C509 C508 1.434 . S
C510 C511 1.369 . S
C510 C512 1.419 . S
C510 H514 0.930 . S
C511 C510 1.369 . S
C511 C520 1.429 . S
C512 C510 1.419 . S
C512 C513 1.363 . S
C512 H515 0.929 . S
C513 C512 1.363 . S
C513 C519 1.428 . S
H514 C510 0.930 . S
H515 C512 0.929 . S
S516 N517 1.613 . S
S516 N518 1.610 . S
N517 S516 1.613 . S
N517 C520 1.350 . S
N518 S516 1.610 . S
N518 C519 1.351 . S
C519 C513 1.428 . S
C519 N518 1.351 . S
C519 C520 1.434 . S
C520 C511 1.429 . S
C520 N517 1.350 . S
C520 C519 1.434 . S
C521 C522 1.369 . S
C521 C523 1.419 . S
C521 H525 0.930 . S
C522 C521 1.369 . S
C522 C531 1.429 . S
C523 C521 1.419 . S
C523 C524 1.363 . S
C523 H526 0.929 . S
C524 C523 1.363 . S
C524 C530 1.428 . S
H525 C521 0.930 . S
H526 C523 0.929 . S
S527 N528 1.613 . S
S527 N529 1.610 . S
N528 S527 1.613 . S
N528 C531 1.350 . S
N529 S527 1.610 . S
N529 C530 1.351 . S
C530 C524 1.428 . S
C530 N529 1.351 . S
C530 C531 1.434 . S
C531 C522 1.429 . S
C531 N528 1.350 . S
C531 C530 1.434 . S
C532 C533 1.369 . S
C532 C534 1.419 . S
C532 H536 0.930 . S
C533 C532 1.369 . S
C533 C542 1.429 . S
C534 C532 1.419 . S
C534 C535 1.363 . S
C534 H537 0.929 . S
C535 C534 1.363 . S
C535 C541 1.428 . S
H536 C532 0.930 . S
H537 C534 0.929 . S
S538 N539 1.613 . S
S538 N540 1.610 . S
N539 S538 1.613 . S
N539 C542 1.350 . S
N540 S538 1.610 . S
N540 C541 1.351 . S
C541 C535 1.428 . S
C541 N540 1.351 . S
C541 C542 1.434 . S
C542 C533 1.429 . S
C542 N539 1.350 . S
C542 C541 1.434 . S
C543 C544 1.369 . S
C543 C545 1.419 . S
C543 H547 0.930 . S
C544 C543 1.369 . S
C544 C553 1.429 . S
C545 C543 1.419 . S
C545 C546 1.363 . S
C545 H548 0.929 . S
C546 C545 1.363 . S
C546 C552 1.428 . S
H547 C543 0.930 . S
H548 C545 0.929 . S
S549 N550 1.613 . S
S549 N551 1.610 . S
N550 S549 1.613 . S
N550 C553 1.350 . S
N551 S549 1.610 . S
N551 C552 1.351 . S
C552 C546 1.428 . S
C552 N551 1.351 . S
C552 C553 1.434 . S
C553 C544 1.429 . S
C553 N550 1.350 . S
C553 C552 1.434 . S
C554 C555 1.369 . S
C554 C556 1.419 . S
C554 H558 0.930 . S
C555 C554 1.369 . S
C555 C564 1.429 . S
C556 C554 1.419 . S
C556 C557 1.363 . S
C556 H559 0.929 . S
C557 C556 1.363 . S
C557 C563 1.428 . S
H558 C554 0.930 . S
H559 C556 0.929 . S
S560 N561 1.613 1_655 S
S560 N562 1.610 1_655 S
N561 S560 1.613 1_455 S
N561 C564 1.350 . S
N562 S560 1.610 1_455 S
N562 C563 1.351 . S
C563 C557 1.428 . S
C563 N562 1.351 . S
C563 C564 1.434 . S
C564 C555 1.429 . S
C564 N561 1.350 . S
C564 C563 1.434 . S
C565 C566 1.369 . S
C565 C567 1.419 . S
C565 H569 0.930 . S
C566 C565 1.369 . S
C566 C575 1.429 . S
C567 C565 1.419 . S
C567 C568 1.363 . S
C567 H570 0.929 . S
C568 C567 1.363 . S
C568 C574 1.428 . S
H569 C565 0.930 . S
H570 C567 0.929 . S
S571 N572 1.613 . S
S571 N573 1.610 . S
N572 S571 1.613 . S
N572 C575 1.350 . S
N573 S571 1.610 . S
N573 C574 1.351 . S
C574 C568 1.428 . S
C574 N573 1.351 . S
C574 C575 1.434 . S
C575 C566 1.429 . S
C575 N572 1.350 . S
C575 C574 1.434 . S
C313 C6 1.274 . S
C315 C167 1.317 . S
C324 C21 1.808 . S
C326 C211 1.848 1_556 S
C337 C241 2.199 . S
C335 C49 2.100 . S
C346 C68 2.603 . S
C348 C282 2.620 1_655 S
C359 C198 1.778 . S
C357 C2 1.640 . S
C370 C162 2.050 . S
C368 C30 1.995 . S
C381 C290 1.315 . S
C379 C40 1.417 . S
C392 C251 2.402 . S
C390 C63 2.496 . S
C401 C11 1.672 . S
C403 C287 1.604 . S
C414 C201 2.339 . S
C412 C44 2.390 . S
C423 C59 1.551 . S
C425 C170 1.566 . S
C434 C25 2.788 . S
C436 C238 2.690 . S
C447 C158 1.436 . S
C445 C82 1.407 . S
C456 C101 1.509 . S
C458 C202 1.532 . S
C467 C125 1.711 . S
C469 C250 1.979 . S
C478 C144 2.420 . S
C480 C291 2.368 . S
C489 C87 0.994 . S
C491 C207 1.043 . S
C502 C171 2.985 . S
C500 C97 2.920 . S
C513 C281 1.413 . S
C511 C120 1.313 . S
C524 C242 1.814 . S
C522 C135 1.834 . S
C533 C78 2.435 . S
C535 C278 2.491 . S
C546 C210 1.408 . S
C544 C116 1.363 . S
C557 C161 2.094 . S
C555 C139 2.168 . S
C566 C106 1.669 . S
C568 C247 2.101 . S
