# Generated by pormake.
# Topology nom, (4,4)-cn, num edge types: 1
# Building blocks:
#     Node 0, Type 0, BuildingBlock: MIFKUJ_clean_linker_1, # of connection points: 4
#     Node 1, Type 0, BuildingBlock: MIFKUJ_clean_linker_1, # of connection points: 4
#     Node 2, Type 0, BuildingBlock: MIFKUJ_clean_linker_1, # of connection points: 4
#     Node 3, Type 0, BuildingBlock: MIFKUJ_clean_linker_1, # of connection points: 4
#     Node 4, Type 0, BuildingBlock: MIFKUJ_clean_linker_1, # of connection points: 4
#     Node 5, Type 0, BuildingBlock: MIFKUJ_clean_linker_1, # of connection points: 4
#     Node 6, Type 1, BuildingBlock: GALJAG_clean_sbu_0, # of connection points: 4
#     Node 7, Type 1, BuildingBlock: GALJAG_clean_sbu_0, # of connection points: 4
#     Node 8, Type 1, BuildingBlock: GALJAG_clean_sbu_0, # of connection points: 4
#     Node 9, Type 1, BuildingBlock: GALJAG_clean_sbu_0, # of connection points: 4
#     Node 10, Type 1, BuildingBlock: GALJAG_clean_sbu_0, # of connection points: 4
#     Node 11, Type 1, BuildingBlock: GALJAG_clean_sbu_0, # of connection points: 4
#     Edge 12, Type (0, 1), BuildingBlock: MIFKUJ_clean_linker_0, # of connection points: 2
#     Edge 13, Type (0, 1), BuildingBlock: MIFKUJ_clean_linker_0, # of connection points: 2
#     Edge 14, Type (0, 1), BuildingBlock: MIFKUJ_clean_linker_0, # of connection points: 2
#     Edge 15, Type (0, 1), BuildingBlock: MIFKUJ_clean_linker_0, # of connection points: 2
#     Edge 16, Type (0, 1), BuildingBlock: MIFKUJ_clean_linker_0, # of connection points: 2
#     Edge 17, Type (0, 1), BuildingBlock: MIFKUJ_clean_linker_0, # of connection points: 2
#     Edge 18, Type (0, 1), BuildingBlock: MIFKUJ_clean_linker_0, # of connection points: 2
#     Edge 19, Type (0, 1), BuildingBlock: MIFKUJ_clean_linker_0, # of connection points: 2
#     Edge 20, Type (0, 1), BuildingBlock: MIFKUJ_clean_linker_0, # of connection points: 2
#     Edge 21, Type (0, 1), BuildingBlock: MIFKUJ_clean_linker_0, # of connection points: 2
#     Edge 22, Type (0, 1), BuildingBlock: MIFKUJ_clean_linker_0, # of connection points: 2
#     Edge 23, Type (0, 1), BuildingBlock: MIFKUJ_clean_linker_0, # of connection points: 2
#     Edge 24, Type (0, 1), BuildingBlock: MIFKUJ_clean_linker_0, # of connection points: 2
#     Edge 25, Type (0, 1), BuildingBlock: MIFKUJ_clean_linker_0, # of connection points: 2
#     Edge 26, Type (0, 1), BuildingBlock: MIFKUJ_clean_linker_0, # of connection points: 2
#     Edge 27, Type (0, 1), BuildingBlock: MIFKUJ_clean_linker_0, # of connection points: 2
#     Edge 28, Type (0, 1), BuildingBlock: MIFKUJ_clean_linker_0, # of connection points: 2
#     Edge 29, Type (0, 1), BuildingBlock: MIFKUJ_clean_linker_0, # of connection points: 2
#     Edge 30, Type (0, 1), BuildingBlock: MIFKUJ_clean_linker_0, # of connection points: 2
#     Edge 31, Type (0, 1), BuildingBlock: MIFKUJ_clean_linker_0, # of connection points: 2
#     Edge 32, Type (0, 1), BuildingBlock: MIFKUJ_clean_linker_0, # of connection points: 2
#     Edge 33, Type (0, 1), BuildingBlock: MIFKUJ_clean_linker_0, # of connection points: 2
#     Edge 34, Type (0, 1), BuildingBlock: MIFKUJ_clean_linker_0, # of connection points: 2
#     Edge 35, Type (0, 1), BuildingBlock: MIFKUJ_clean_linker_0, # of connection points: 2
# Relax obj value: 0.004
# Max RMSD: 0.109
# Mean RMSD: 0.081
data_MOF--net-nom--node1-GALJAG_clean_sbu_0--node2-MIFKUJ_clean_linker_1--edge1-MIFKUJ_clean_linker_0
_symmetry_space_group_name_H-M    P1
_symmetry_Int_Tables_number       1
_symmetry_cell_setting            triclinic
loop_
_symmetry_equiv_pos_as_xyz
'x, y, z'
_cell_length_a     66.182341
_cell_length_b     66.054626
_cell_length_c     72.657033
_cell_angle_alpha  90.024429
_cell_angle_beta   90.02102
_cell_angle_gamma 120.05205
loop_
_atom_site_label
_atom_site_type_symbol
_atom_site_fract_x
_atom_site_fract_y
_atom_site_fract_z
_atom_type_partial_charge
H0 H 1.00103 0.51581 0.2875 0.0
H1 H 0.97409 0.49944 0.26157 0.0
H2 H 0.93936 0.53679 0.279 0.0
H3 H 0.96676 0.55359 0.30482 0.0
H4 H 0.03213 0.55994 0.29563 0.0
H5 H 0.95892 0.49951 0.32344 0.0
H6 H 0.91788 0.48239 0.33202 0.0
H7 H 0.93485 0.54432 0.36378 0.0
H8 H 0.97539 0.56184 0.35414 0.0
H9 H 0.04051 0.58932 0.3726 0.0
H10 H 0.06739 0.59887 0.39851 0.0
H11 H 0.09567 0.55908 0.37334 0.0
H12 H 0.06893 0.5498 0.34743 0.0
H13 H 0.00647 0.54896 0.36075 0.0
H14 H 0.07553 0.60995 0.33605 0.0
H15 H 0.11655 0.63338 0.32725 0.0
H16 H 0.10855 0.57837 0.29057 0.0
H17 H 0.06758 0.55471 0.2997 0.0
C18 C 0.98582 0.53577 0.29823 0.0
C19 C 0.98771 0.52061 0.28571 0.0
C20 C 0.97232 0.51128 0.27088 0.0
C21 C 0.95462 0.51683 0.26827 0.0
C22 C 0.95269 0.53201 0.2808 0.0
C23 C 0.96831 0.5416 0.29555 0.0
C24 C 0.00251 0.5455 0.31386 0.0
C25 C 0.02652 0.55728 0.30989 0.0
C26 C 0.99519 0.54318 0.33246 0.0
C27 C 0.97022 0.53216 0.33786 0.0
C28 C 0.95371 0.50953 0.33201 0.0
C29 C 0.93025 0.49963 0.33714 0.0
C30 C 0.92291 0.51199 0.34854 0.0
C31 C 0.93965 0.53445 0.35466 0.0
C32 C 0.96297 0.54442 0.34933 0.0
C33 C 0.0528 0.56899 0.358 0.0
C34 C 0.05253 0.58269 0.37267 0.0
C35 C 0.06786 0.58806 0.3875 0.0
C36 C 0.08369 0.57973 0.38802 0.0
C37 C 0.08398 0.5661 0.37325 0.0
C38 C 0.06866 0.56074 0.35843 0.0
C39 C 0.03603 0.56266 0.3425 0.0
C40 C 0.01209 0.55163 0.34649 0.0
C41 C 0.0434 0.5663 0.32391 0.0
C42 C 0.06847 0.58038 0.31874 0.0
C43 C 0.08266 0.60272 0.32635 0.0
C44 C 0.1061 0.61614 0.32128 0.0
C45 C 0.11575 0.60768 0.30825 0.0
C46 C 0.10152 0.58542 0.30053 0.0
C47 C 0.07812 0.57188 0.30575 0.0
H48 H 0.42568 0.97677 0.51808 0.0
H49 H 0.40172 0.93616 0.52772 0.0
H50 H 0.44851 0.91873 0.4995 0.0
H51 H 0.47308 0.95972 0.4907 0.0
H52 H 0.47036 0.0075 0.52652 0.0
H53 H 0.42782 0.97094 0.46819 0.0
H54 H 0.41759 0.9434 0.44242 0.0
H55 H 0.49087 0.97152 0.43081 0.0
H56 H 0.50092 0.9987 0.45657 0.0
H57 H 0.52878 0.06826 0.46607 0.0
H58 H 0.54683 0.10927 0.45666 0.0
H59 H 0.49943 0.11821 0.49203 0.0
H60 H 0.48114 0.07717 0.50112 0.0
H61 H 0.48832 0.03307 0.46151 0.0
H62 H 0.53339 0.0706 0.51321 0.0
H63 H 0.55088 0.09709 0.53932 0.0
H64 H 0.48321 0.06717 0.56521 0.0
H65 H 0.46564 0.04094 0.53888 0.0
C66 C 0.45105 0.97129 0.50348 0.0
C67 C 0.43081 0.96421 0.514 0.0
C68 C 0.41699 0.9409 0.51936 0.0
C69 C 0.42306 0.92407 0.5143 0.0
C70 C 0.4434 0.93123 0.50378 0.0
C71 C 0.45733 0.95463 0.49853 0.0
C72 C 0.46572 0.99628 0.49826 0.0
C73 C 0.47399 0.01318 0.51229 0.0
C74 C 0.47174 0.00356 0.47978 0.0
C75 C 0.46513 0.98674 0.46433 0.0
C76 C 0.44163 0.97104 0.46012 0.0
C77 C 0.43583 0.95543 0.44537 0.0
C78 C 0.45344 0.95522 0.43467 0.0
C79 C 0.47692 0.97102 0.43896 0.0
C80 C 0.48269 0.98668 0.45357 0.0
C81 C 0.50374 0.06962 0.48447 0.0
C82 C 0.52223 0.07902 0.47177 0.0
C83 C 0.53252 0.10244 0.46639 0.0
C84 C 0.52459 0.11695 0.47366 0.0
C85 C 0.50615 0.10755 0.48641 0.0
C86 C 0.49572 0.08409 0.49164 0.0
C87 C 0.49222 0.0445 0.48975 0.0
C88 C 0.48464 0.02756 0.47577 0.0
C89 C 0.48767 0.03716 0.50835 0.0
C90 C 0.49811 0.05389 0.52394 0.0
C91 C 0.5222 0.07 0.52433 0.0
C92 C 0.53221 0.08513 0.53928 0.0
C93 C 0.51841 0.08421 0.5543 0.0
C94 C 0.49431 0.06812 0.5539 0.0
C95 C 0.48426 0.05315 0.53886 0.0
H96 H 0.50135 0.524 0.69742 0.0
H97 H 0.49227 0.54252 0.72278 0.0
H98 H 0.41859 0.49699 0.71269 0.0
H99 H 0.42783 0.47838 0.68737 0.0
H100 H 0.487 0.4753 0.69384 0.0
H101 H 0.4772 0.53565 0.65939 0.0
H102 H 0.45362 0.55333 0.65057 0.0
H103 H 0.3976 0.48542 0.63399 0.0
H104 H 0.42127 0.46793 0.64269 0.0
H105 H 0.46357 0.44467 0.61584 0.0
H106 H 0.48119 0.43656 0.58943 0.0
H107 H 0.54787 0.46986 0.61737 0.0
H108 H 0.53055 0.47935 0.64307 0.0
H109 H 0.4686 0.48205 0.62873 0.0
H110 H 0.47528 0.4216 0.65553 0.0
H111 H 0.49125 0.39695 0.66499 0.0
H112 H 0.54262 0.45342 0.69847 0.0
H113 H 0.52697 0.47826 0.68853 0.0
C114 C 0.46527 0.49991 0.69049 0.0
C115 C 0.48325 0.51804 0.70067 0.0
C116 C 0.47804 0.52871 0.71505 0.0
C117 C 0.45472 0.52125 0.71968 0.0
C118 C 0.43672 0.503 0.7095 0.0
C119 C 0.44196 0.49246 0.69498 0.0
C120 C 0.47115 0.48874 0.67534 0.0
C121 C 0.48327 0.47695 0.67956 0.0
C122 C 0.46493 0.48963 0.65689 0.0
C123 C 0.4509 0.50051 0.65172 0.0
C124 C 0.45983 0.52463 0.65387 0.0
C125 C 0.44642 0.53468 0.64876 0.0
C126 C 0.42379 0.52071 0.64163 0.0
C127 C 0.4149 0.49655 0.63959 0.0
C128 C 0.42842 0.48658 0.64445 0.0
C129 C 0.49562 0.46247 0.63159 0.0
C130 C 0.482 0.45025 0.61627 0.0
C131 C 0.49208 0.4454 0.60122 0.0
C132 C 0.51602 0.45256 0.60119 0.0
C133 C 0.52949 0.46439 0.61673 0.0
C134 C 0.51947 0.46948 0.63163 0.0
C135 C 0.4854 0.46924 0.64704 0.0
C136 C 0.47237 0.48016 0.64295 0.0
C137 C 0.48987 0.46657 0.66571 0.0
C138 C 0.50004 0.45187 0.67118 0.0
C139 C 0.49016 0.42879 0.66474 0.0
C140 C 0.49914 0.41462 0.67031 0.0
C141 C 0.51817 0.42321 0.68252 0.0
C142 C 0.52811 0.44636 0.6889 0.0
C143 C 0.51907 0.46052 0.68335 0.0
H144 H 0.03837 0.5239 0.78985 0.0
H145 H 0.0659 0.54125 0.7644 0.0
H146 H 0.09535 0.49756 0.77749 0.0
H147 H 0.0674 0.47994 0.80289 0.0
H148 H 0.00474 0.47723 0.79528 0.0
H149 H 0.07763 0.53598 0.82398 0.0
H150 H 0.11858 0.55281 0.83266 0.0
H151 H 0.10142 0.48994 0.86308 0.0
H152 H 0.06091 0.47271 0.85332 0.0
H153 H 0.9938 0.44395 0.87098 0.0
H154 H 0.96685 0.43434 0.8968 0.0
H155 H 0.94322 0.47945 0.87411 0.0
H156 H 0.96963 0.48827 0.84808 0.0
H157 H 0.02976 0.48555 0.8605 0.0
H158 H 0.95992 0.42682 0.83583 0.0
H159 H 0.91902 0.40403 0.82654 0.0
H160 H 0.92914 0.45847 0.7885 0.0
H161 H 0.96988 0.48191 0.79845 0.0
C162 C 0.05094 0.50075 0.79832 0.0
C163 C 0.05073 0.51802 0.78723 0.0
C164 C 0.0666 0.52806 0.77279 0.0
C165 C 0.08292 0.5209 0.76903 0.0
C166 C 0.08293 0.50336 0.78002 0.0
C167 C 0.06708 0.49339 0.79457 0.0
C168 C 0.03407 0.49058 0.81372 0.0
C169 C 0.01014 0.47928 0.80958 0.0
C170 C 0.04126 0.49215 0.83228 0.0
C171 C 0.06621 0.50287 0.83769 0.0
C172 C 0.08277 0.52566 0.83224 0.0
C173 C 0.10618 0.53541 0.83745 0.0
C174 C 0.11344 0.52274 0.84855 0.0
C175 C 0.09667 0.50007 0.85423 0.0
C176 C 0.07338 0.49026 0.84881 0.0
C177 C 0.98362 0.46671 0.85756 0.0
C178 C 0.98273 0.45167 0.87157 0.0
C179 C 0.96738 0.44631 0.88638 0.0
C180 C 0.95284 0.45616 0.88763 0.0
C181 C 0.9538 0.4712 0.8735 0.0
C182 C 0.96899 0.47636 0.85861 0.0
C183 C 1.00038 0.47298 0.84211 0.0
C184 C 0.02427 0.48344 0.84622 0.0
C185 C 0.99312 0.47002 0.82348 0.0
C186 C 0.96803 0.45637 0.81812 0.0
C187 C 0.9533 0.43422 0.82584 0.0
C188 C 0.92994 0.42109 0.82044 0.0
C189 C 0.921 0.42955 0.80685 0.0
C190 C 0.9357 0.45155 0.79896 0.0
C191 C 0.95896 0.46491 0.80463 0.0
H192 H 0.6137 0.07074 0.99214 0.0
H193 H 0.6388 0.11132 0.00222 0.0
H194 H 0.57966 0.11014 0.02835 0.0
H195 H 0.55466 0.0693 0.01857 0.0
H196 H 0.5604 0.03071 0.02735 0.0
H197 H 0.59216 0.0417 0.95092 0.0
H198 H 0.60055 0.06853 0.92499 0.0
H199 H 0.55859 0.09413 0.95029 0.0
H200 H 0.55008 0.06718 0.97601 0.0
H201 H 0.51099 0.9705 0.96384 0.0
H202 H 0.49479 0.92979 0.95411 0.0
H203 H 0.53765 0.92076 0.99434 0.0
H204 H 0.55448 0.96168 0.0036 0.0
H205 H 0.55088 0.00612 0.96191 0.0
H206 H 0.5008 0.96594 0.01165 0.0
H207 H 0.4827 0.93828 0.03694 0.0
H208 H 0.54843 0.97155 0.06621 0.0
H209 H 0.56668 0.99836 0.04047 0.0
C210 C 0.58235 0.0671 0.00459 0.0
C211 C 0.60613 0.07926 0.99998 0.0
C212 C 0.62045 0.10233 0.0058 0.0
C213 C 0.61112 0.11374 0.01608 0.0
C214 C 0.5872 0.1017 0.02039 0.0
C215 C 0.57297 0.07844 0.01487 0.0
C216 C 0.56766 0.04225 0.99923 0.0
C217 C 0.55825 0.02521 0.01307 0.0
C218 C 0.56416 0.03528 0.98058 0.0
C219 C 0.57063 0.05255 0.96546 0.0
C220 C 0.58491 0.05321 0.95092 0.0
C221 C 0.58978 0.06861 0.93618 0.0
C222 C 0.58016 0.08338 0.9356 0.0
C223 C 0.56606 0.08282 0.95027 0.0
C224 C 0.56139 0.06759 0.96506 0.0
C225 C 0.5338 0.9692 0.98462 0.0
C226 C 0.51702 0.95983 0.97052 0.0
C227 C 0.50775 0.93658 0.96497 0.0
C228 C 0.51492 0.92214 0.97353 0.0
C229 C 0.5316 0.93144 0.98769 0.0
C230 C 0.54115 0.9548 0.99303 0.0
C231 C 0.54419 0.99419 0.99009 0.0
C232 C 0.55292 0.01138 0.97625 0.0
C233 C 0.54616 0.00123 0.00877 0.0
C234 C 0.53519 0.98412 0.02403 0.0
C235 C 0.51141 0.96704 0.02339 0.0
C236 C 0.501 0.9514 0.03798 0.0
C237 C 0.51407 0.95266 0.05366 0.0
C238 C 0.53789 0.96979 0.05425 0.0
C239 C 0.54832 0.98533 0.03961 0.0
H240 H 0.53488 0.51436 0.19801 0.0
H241 H 0.54416 0.49662 0.22375 0.0
H242 H 0.61776 0.54175 0.21313 0.0
H243 H 0.60831 0.55977 0.18751 0.0
H244 H 0.54693 0.56066 0.19323 0.0
H245 H 0.56468 0.50458 0.16463 0.0
H246 H 0.58958 0.4885 0.15646 0.0
H247 H 0.63612 0.55258 0.12773 0.0
H248 H 0.61209 0.56909 0.13715 0.0
H249 H 0.57474 0.59856 0.11883 0.0
H250 H 0.55863 0.60881 0.09247 0.0
H251 H 0.48885 0.56244 0.11268 0.0
H252 H 0.50514 0.55289 0.13915 0.0
H253 H 0.56902 0.55672 0.12866 0.0
H254 H 0.55977 0.61523 0.15732 0.0
H255 H 0.542 0.63838 0.16666 0.0
H256 H 0.48674 0.57793 0.194 0.0
H257 H 0.50458 0.55475 0.18454 0.0
C258 C 0.57089 0.53827 0.19078 0.0
C259 C 0.55302 0.52046 0.20124 0.0
C260 C 0.55835 0.5102 0.21585 0.0
C261 C 0.58169 0.51768 0.22041 0.0
C262 C 0.59961 0.5357 0.21001 0.0
C263 C 0.59425 0.5459 0.19531 0.0
C264 C 0.5648 0.54881 0.17525 0.0
C265 C 0.55155 0.55955 0.17908 0.0
C266 C 0.57191 0.54848 0.15691 0.0
C267 C 0.5867 0.53825 0.15183 0.0
C268 C 0.5805 0.51534 0.1569 0.0
C269 C 0.59462 0.50602 0.15194 0.0
C270 C 0.615 0.51922 0.14144 0.0
C271 C 0.6209 0.54202 0.13615 0.0
C272 C 0.60699 0.55143 0.14135 0.0
C273 C 0.54116 0.57512 0.13103 0.0
C274 C 0.55599 0.59076 0.1176 0.0
C275 C 0.54672 0.59649 0.10249 0.0
C276 C 0.5224 0.58646 0.10039 0.0
C277 C 0.50765 0.57088 0.11397 0.0
C278 C 0.51694 0.56533 0.12912 0.0
C279 C 0.55074 0.56803 0.14663 0.0
C280 C 0.56456 0.55792 0.14283 0.0
C281 C 0.54492 0.56965 0.16506 0.0
C282 C 0.53342 0.58322 0.17014 0.0
C283 C 0.5437 0.60689 0.16517 0.0
C284 C 0.53365 0.62014 0.17063 0.0
C285 C 0.51302 0.60996 0.18109 0.0
C286 C 0.50254 0.58617 0.18583 0.0
C287 C 0.51277 0.57296 0.18053 0.0
In288 In 0.63831 0.4031 0.41159 0.0
O289 O 0.67706 0.43059 0.41448 0.0
O290 O 0.66838 0.39907 0.40049 0.0
C291 C 0.61965 0.41432 0.44019 0.0
C292 C 0.62705 0.41935 0.3813 0.0
C293 C 0.62172 0.35774 0.42001 0.0
O294 O 0.64129 0.42192 0.43878 0.0
O295 O 0.60755 0.40151 0.42703 0.0
O296 O 0.61892 0.3642 0.4043 0.0
O297 O 0.63306 0.37414 0.4313 0.0
C298 C 0.68426 0.41881 0.40591 0.0
O299 O 0.61782 0.3978 0.38475 0.0
O300 O 0.64157 0.4325 0.39318 0.0
In301 In 0.25496 0.63817 0.57904 0.0
O302 O 0.27041 0.61464 0.57298 0.0
O303 O 0.28119 0.6353 0.59736 0.0
C304 C 0.22801 0.62428 0.54836 0.0
C305 C 0.22712 0.62113 0.60888 0.0
C306 C 0.28191 0.68485 0.57321 0.0
O307 O 0.24848 0.62748 0.54855 0.0
O308 O 0.22114 0.62765 0.56361 0.0
O309 O 0.26076 0.67548 0.57787 0.0
O310 O 0.28948 0.67083 0.57185 0.0
C311 C 0.28275 0.62047 0.58741 0.0
O312 O 0.2406 0.6428 0.60641 0.0
O313 O 0.22751 0.60825 0.59621 0.0
In314 In 0.63563 0.25467 0.74513 0.0
O315 O 0.67445 0.27035 0.73858 0.0
O316 O 0.66506 0.28204 0.7627 0.0
C317 C 0.6232 0.22742 0.71452 0.0
C318 C 0.62483 0.22763 0.77548 0.0
C319 C 0.61539 0.2812 0.73988 0.0
O320 O 0.63752 0.24908 0.71411 0.0
O321 O 0.61565 0.21948 0.73033 0.0
O322 O 0.60387 0.26005 0.74471 0.0
O323 O 0.63695 0.28896 0.73814 0.0
C324 C 0.68124 0.28341 0.75263 0.0
O325 O 0.6136 0.23768 0.7709 0.0
O326 O 0.64121 0.23108 0.76472 0.0
In327 In 0.39893 0.63545 0.91134 0.0
O328 O 0.36046 0.60693 0.91308 0.0
O329 O 0.36838 0.63921 0.90085 0.0
C330 C 0.41668 0.62336 0.94008 0.0
C331 C 0.40989 0.6196 0.88076 0.0
C332 C 0.41744 0.68125 0.91951 0.0
O333 O 0.39635 0.62051 0.94018 0.0
O334 O 0.42788 0.63188 0.92538 0.0
O335 O 0.42078 0.67436 0.90417 0.0
O336 O 0.40465 0.66507 0.93051 0.0
C337 C 0.35285 0.61883 0.90529 0.0
O338 O 0.41839 0.64115 0.88399 0.0
O339 O 0.39621 0.60626 0.893 0.0
In340 In 0.78179 0.39986 0.0786 0.0
O341 O 0.78665 0.39781 0.10971 0.0
O342 O 0.81576 0.42243 0.09413 0.0
C343 C 0.75504 0.35364 0.07133 0.0
C344 C 0.75564 0.42024 0.08451 0.0
C345 C 0.80896 0.41179 0.04825 0.0
O346 O 0.77095 0.36134 0.08338 0.0
O347 O 0.75265 0.36916 0.0632 0.0
O348 O 0.7922 0.41571 0.0497 0.0
O349 O 0.81204 0.40213 0.06209 0.0
C350 C 0.80777 0.41386 0.10974 0.0
O351 O 0.77636 0.4316 0.07868 0.0
O352 O 0.74816 0.39877 0.08702 0.0
In353 In 0.40079 0.78237 0.24536 0.0
O354 O 0.42734 0.77019 0.2494 0.0
O355 O 0.398 0.74967 0.23232 0.0
C356 C 0.41287 0.81277 0.27372 0.0
C357 C 0.41681 0.81002 0.2152 0.0
C358 C 0.35563 0.75298 0.25396 0.0
O359 O 0.41966 0.79805 0.27253 0.0
O360 O 0.40046 0.81249 0.26043 0.0
O361 O 0.3619 0.76211 0.23821 0.0
O362 O 0.37212 0.75844 0.26519 0.0
C363 C 0.41676 0.75249 0.23913 0.0
O364 O 0.39556 0.79963 0.21978 0.0
O365 O 0.42984 0.8067 0.22591 0.0
H366 H 0.13339 0.61597 0.27334 0.0
H367 H 0.17407 0.64044 0.26388 0.0
H368 H 0.19471 0.65653 0.32079 0.0
H369 H 0.15393 0.63243 0.33027 0.0
H370 H 0.21657 0.69463 0.30121 0.0
H371 H 0.20405 0.61705 0.29552 0.0
H372 H 0.18426 0.57598 0.28518 0.0
H373 H 0.19705 0.59846 0.22882 0.0
H374 H 0.21664 0.6397 0.23882 0.0
H375 H 0.33797 0.73793 0.2883 0.0
H376 H 0.29702 0.71316 0.29702 0.0
H377 H 0.27654 0.70819 0.2401 0.0
H378 H 0.31756 0.73321 0.23125 0.0
H379 H 0.25494 0.66474 0.25934 0.0
H380 H 0.26833 0.74301 0.2662 0.0
H381 H 0.28927 0.78363 0.2776 0.0
H382 H 0.27605 0.75885 0.33336 0.0
H383 H 0.2553 0.71803 0.32229 0.0
C384 C 0.14664 0.62458 0.28383 0.0
C385 C 0.14051 0.62221 0.30254 0.0
C386 C 0.1699 0.63855 0.27842 0.0
C387 C 0.18755 0.65009 0.29163 0.0
C388 C 0.18142 0.64783 0.31034 0.0
C389 C 0.15813 0.63406 0.31574 0.0
C390 C 0.21235 0.66475 0.28595 0.0
C391 C 0.22501 0.68795 0.29225 0.0
C392 C 0.22334 0.65624 0.27398 0.0
C393 C 0.2116 0.63146 0.26792 0.0
C394 C 0.20248 0.61324 0.28091 0.0
C395 C 0.19133 0.58993 0.27512 0.0
C396 C 0.18934 0.58461 0.25635 0.0
C397 C 0.19857 0.60261 0.24335 0.0
C398 C 0.20972 0.62595 0.24908 0.0
C399 C 0.32476 0.73152 0.27762 0.0
C400 C 0.33093 0.73752 0.25909 0.0
C401 C 0.30139 0.71745 0.28264 0.0
C402 C 0.28379 0.709 0.26921 0.0
C403 C 0.28991 0.71458 0.25065 0.0
C404 C 0.31329 0.7289 0.24563 0.0
C405 C 0.25898 0.69445 0.27462 0.0
C406 C 0.24639 0.67132 0.26827 0.0
C407 C 0.24816 0.70292 0.28671 0.0
C408 C 0.26044 0.72745 0.29341 0.0
C409 C 0.27004 0.74621 0.2809 0.0
C410 C 0.28185 0.76927 0.2873 0.0
C411 C 0.28403 0.77382 0.30619 0.0
C412 C 0.27436 0.7553 0.31873 0.0
C413 C 0.26255 0.7322 0.3124 0.0
H414 H 0.29316 0.79169 0.31112 0.0
H415 H 0.1807 0.56655 0.25189 0.0
H416 H 0.53788 0.1554 0.49534 0.0
H417 H 0.55448 0.19608 0.48556 0.0
H418 H 0.55156 0.1751 0.42892 0.0
H419 H 0.53533 0.13441 0.43869 0.0
H420 H 0.59117 0.2136 0.43493 0.0
H421 H 0.51115 0.18845 0.44714 0.0
H422 H 0.47464 0.17107 0.46507 0.0
H423 H 0.50816 0.22403 0.50651 0.0
H424 H 0.545 0.24154 0.48895 0.0
H425 H 0.60387 0.31985 0.39703 0.0
H426 H 0.58774 0.27868 0.40563 0.0
H427 H 0.60139 0.29845 0.46282 0.0
H428 H 0.6178 0.33959 0.45433 0.0
H429 H 0.55571 0.26051 0.4555 0.0
H430 H 0.63618 0.28498 0.44231 0.0
H431 H 0.67167 0.30215 0.42314 0.0
H432 H 0.63534 0.24985 0.38173 0.0
H433 H 0.5995 0.23256 0.40055 0.0
C434 C 0.5407 0.15947 0.4808 0.0
C435 C 0.53521 0.14172 0.46777 0.0
C436 C 0.55015 0.18272 0.47522 0.0
C437 C 0.55392 0.18864 0.45646 0.0
C438 C 0.5488 0.17097 0.44345 0.0
C439 C 0.53956 0.14774 0.44905 0.0
C440 C 0.56323 0.21325 0.45045 0.0
C441 C 0.58318 0.22372 0.43923 0.0
C442 C 0.55303 0.22662 0.45621 0.0
C443 C 0.5309 0.21617 0.46681 0.0
C444 C 0.51079 0.19628 0.46015 0.0
C445 C 0.49003 0.18643 0.47023 0.0
C446 C 0.4891 0.19641 0.48694 0.0
C447 C 0.50892 0.2163 0.49358 0.0
C448 C 0.52974 0.22621 0.48356 0.0
C449 C 0.60347 0.3154 0.41142 0.0
C450 C 0.61214 0.33291 0.42501 0.0
C451 C 0.59431 0.29192 0.4163 0.0
C452 C 0.59346 0.28558 0.43485 0.0
C453 C 0.6019 0.30301 0.44844 0.0
C454 C 0.61134 0.32649 0.44355 0.0
C455 C 0.58363 0.26075 0.44016 0.0
C456 C 0.56358 0.25028 0.45121 0.0
C457 C 0.59355 0.24731 0.43405 0.0
C458 C 0.61509 0.25764 0.42275 0.0
C459 C 0.63569 0.27727 0.42904 0.0
C460 C 0.65589 0.287 0.41825 0.0
C461 C 0.65574 0.27714 0.4012 0.0
C462 C 0.63541 0.25749 0.39492 0.0
C463 C 0.61516 0.24771 0.40565 0.0
H464 H 0.67139 0.28469 0.39287 0.0
H465 H 0.47301 0.18875 0.49473 0.0
H466 H 0.43676 0.55924 0.62023 0.0
H467 H 0.41278 0.57606 0.61074 0.0
H468 H 0.35472 0.52297 0.6417 0.0
H469 H 0.37847 0.50571 0.65069 0.0
H470 H 0.33921 0.52843 0.61084 0.0
H471 H 0.38897 0.58084 0.65736 0.0
H472 H 0.42629 0.6073 0.67278 0.0
H473 H 0.44858 0.65264 0.62569 0.0
H474 H 0.4115 0.62627 0.60988 0.0
H475 H 0.30451 0.62504 0.62019 0.0
H476 H 0.32805 0.60776 0.62936 0.0
H477 H 0.31865 0.57669 0.57548 0.0
H478 H 0.29433 0.59333 0.56646 0.0
H479 H 0.36734 0.61305 0.61869 0.0
H480 H 0.31891 0.52569 0.57823 0.0
H481 H 0.27922 0.49816 0.56697 0.0
H482 H 0.24992 0.52089 0.60941 0.0
H483 H 0.2894 0.54832 0.62106 0.0
C484 C 0.41891 0.55128 0.62507 0.0
C485 C 0.40947 0.53124 0.63623 0.0
C486 C 0.40522 0.5609 0.61967 0.0
C487 C 0.38199 0.55098 0.62569 0.0
C488 C 0.37255 0.53091 0.63683 0.0
C489 C 0.38613 0.52109 0.64199 0.0
C490 C 0.36748 0.56144 0.62036 0.0
C491 C 0.34539 0.54694 0.61255 0.0
C492 C 0.37527 0.58551 0.62289 0.0
C493 C 0.39755 0.60146 0.63238 0.0
C494 C 0.4019 0.59637 0.65024 0.0
C495 C 0.423 0.61136 0.65906 0.0
C496 C 0.43982 0.63161 0.6502 0.0
C497 C 0.43555 0.63693 0.63252 0.0
C498 C 0.41449 0.62198 0.62364 0.0
C499 C 0.30744 0.6145 0.61029 0.0
C500 C 0.2975 0.61044 0.59262 0.0
C501 C 0.32097 0.60469 0.61554 0.0
C502 C 0.32498 0.59071 0.6032 0.0
C503 C 0.31545 0.58702 0.58538 0.0
C504 C 0.30164 0.59662 0.5802 0.0
C505 C 0.33913 0.58007 0.60907 0.0
C506 C 0.36118 0.59455 0.61694 0.0
C507 C 0.33096 0.55584 0.60717 0.0
C508 C 0.30713 0.53923 0.60038 0.0
C509 C 0.30399 0.52475 0.58519 0.0
C510 C 0.28153 0.50917 0.57874 0.0
C511 C 0.26207 0.50784 0.58743 0.0
C512 C 0.26502 0.52201 0.60264 0.0
C513 C 0.28743 0.53759 0.60916 0.0
H514 H 0.2447 0.49578 0.5824 0.0
H515 H 0.45614 0.6432 0.65704 0.0
H516 H 0.90507 0.41716 0.77174 0.0
H517 H 0.86467 0.3922 0.76161 0.0
H518 H 0.84132 0.38526 0.81795 0.0
H519 H 0.88186 0.40932 0.82812 0.0
H520 H 0.81891 0.34528 0.80275 0.0
H521 H 0.83534 0.42177 0.78451 0.0
H522 H 0.85707 0.46012 0.76917 0.0
H523 H 0.84531 0.42614 0.71666 0.0
H524 H 0.82376 0.38756 0.73172 0.0
H525 H 0.69937 0.30624 0.78494 0.0
H526 H 0.74054 0.33096 0.79307 0.0
H527 H 0.76058 0.3203 0.73905 0.0
H528 H 0.71929 0.29522 0.73085 0.0
H529 H 0.78445 0.36832 0.75195 0.0
H530 H 0.7662 0.29135 0.77172 0.0
H531 H 0.74305 0.25401 0.78817 0.0
H532 H 0.75691 0.29085 0.83952 0.0
H533 H 0.77986 0.32847 0.82332 0.0
C534 C 0.89124 0.41037 0.7819 0.0
C535 C 0.89648 0.41519 0.80068 0.0
C536 C 0.86815 0.3962 0.77612 0.0
C537 C 0.8498 0.38711 0.78896 0.0
C538 C 0.8551 0.39201 0.80775 0.0
C539 C 0.87823 0.40579 0.81356 0.0
C540 C 0.82514 0.37209 0.78293 0.0
C541 C 0.81136 0.35054 0.7918 0.0
C542 C 0.81526 0.3786 0.76837 0.0
C543 C 0.82814 0.40178 0.75927 0.0
C544 C 0.83753 0.42247 0.76971 0.0
C545 C 0.84979 0.44425 0.76106 0.0
C546 C 0.85262 0.44556 0.74196 0.0
C547 C 0.84313 0.42509 0.73146 0.0
C548 C 0.83088 0.40327 0.74004 0.0
C549 C 0.71252 0.30918 0.77476 0.0
C550 C 0.70614 0.29876 0.75727 0.0
C551 C 0.73602 0.32326 0.77945 0.0
C552 C 0.75355 0.32732 0.76669 0.0
C553 C 0.74726 0.31733 0.74908 0.0
C554 C 0.72372 0.30297 0.74445 0.0
C555 C 0.77844 0.34184 0.7719 0.0
C556 C 0.79216 0.3632 0.76286 0.0
C557 C 0.78817 0.33536 0.7865 0.0
C558 C 0.77457 0.31274 0.79628 0.0
C559 C 0.76416 0.29151 0.7865 0.0
C560 C 0.7511 0.27029 0.79578 0.0
C561 C 0.74846 0.27006 0.81487 0.0
C562 C 0.75894 0.29106 0.82472 0.0
C563 C 0.772 0.31233 0.8155 0.0
H564 H 0.73834 0.25361 0.82203 0.0
H565 H 0.86212 0.46244 0.73529 0.0
H566 H 0.497 0.88317 0.99513 0.0
H567 H 0.48097 0.84255 0.98529 0.0
H568 H 0.49561 0.8651 0.92868 0.0
H569 H 0.51087 0.90567 0.93849 0.0
H570 H 0.45518 0.828 0.9302 0.0
H571 H 0.53006 0.84822 0.95461 0.0
H572 H 0.56175 0.8631 0.97759 0.0
H573 H 0.51676 0.80947 0.01547 0.0
H574 H 0.4847 0.79446 0.99281 0.0
H575 H 0.44126 0.71938 0.89715 0.0
H576 H 0.45844 0.76072 0.90566 0.0
H577 H 0.43448 0.74074 0.96145 0.0
H578 H 0.41722 0.69949 0.95306 0.0
H579 H 0.48079 0.77664 0.9593 0.0
H580 H 0.40574 0.75739 0.93396 0.0
H581 H 0.37521 0.74266 0.91002 0.0
H582 H 0.42279 0.79505 0.87246 0.0
H583 H 0.45372 0.80989 0.89611 0.0
C584 C 0.49684 0.87941 0.9806 0.0
C585 C 0.50523 0.89753 0.96757 0.0
C586 C 0.48778 0.85622 0.97498 0.0
C587 C 0.48745 0.85073 0.95624 0.0
C588 C 0.49568 0.86884 0.9432 0.0
C589 C 0.50439 0.892 0.9488 0.0
C590 C 0.47824 0.82609 0.95022 0.0
C591 C 0.46109 0.81692 0.93639 0.0
C592 C 0.48564 0.81142 0.95842 0.0
C593 C 0.50491 0.82035 0.97207 0.0
C594 C 0.52688 0.8397 0.96789 0.0
C595 C 0.54491 0.84814 0.98085 0.0
C596 C 0.54125 0.83727 0.99799 0.0
C597 C 0.51956 0.81789 0.00219 0.0
C598 C 0.50146 0.80939 0.98929 0.0
C599 C 0.43964 0.72383 0.91122 0.0
C600 C 0.42783 0.70622 0.92443 0.0
C601 C 0.44941 0.74742 0.91605 0.0
C602 C 0.44762 0.75376 0.93417 0.0
C603 C 0.43606 0.73621 0.9474 0.0
C604 C 0.42614 0.71266 0.94256 0.0
C605 C 0.45776 0.77868 0.93943 0.0
C606 C 0.47505 0.78785 0.95309 0.0
C607 C 0.45073 0.79342 0.93092 0.0
C608 C 0.43211 0.78459 0.91674 0.0
C609 C 0.40975 0.76564 0.92054 0.0
C610 C 0.39237 0.7573 0.90704 0.0
C611 C 0.39708 0.76787 0.88971 0.0
C612 C 0.41918 0.78686 0.88587 0.0
C613 C 0.43663 0.79525 0.89933 0.0
H614 H 0.38359 0.76139 0.87927 0.0
H615 H 0.55524 0.84384 0.00801 0.0
H616 H 0.66282 0.54187 0.13832 0.0
H617 H 0.68695 0.52576 0.12786 0.0
H618 H 0.62558 0.45776 0.1221 0.0
H619 H 0.60108 0.47384 0.13169 0.0
H620 H 0.66413 0.45849 0.14136 0.0
H621 H 0.64751 0.4863 0.08508 0.0
H622 H 0.64624 0.51585 0.06517 0.0
H623 H 0.72062 0.55954 0.06972 0.0
H624 H 0.72229 0.53037 0.0899 0.0
H625 H 0.70934 0.39819 0.09276 0.0
H626 H 0.6862 0.41591 0.10193 0.0
H627 H 0.74676 0.48462 0.09613 0.0
H628 H 0.7699 0.46691 0.08637 0.0
H629 H 0.7097 0.48491 0.08337 0.0
H630 H 0.72778 0.45879 0.13878 0.0
H631 H 0.73067 0.43101 0.15975 0.0
H632 H 0.65616 0.38667 0.1586 0.0
H633 H 0.65284 0.41403 0.1374 0.0
C634 C 0.65432 0.52355 0.13459 0.0
C635 C 0.62989 0.50923 0.13579 0.0
C636 C 0.66821 0.51436 0.12873 0.0
C637 C 0.65801 0.49062 0.12414 0.0
C638 C 0.63376 0.47613 0.12565 0.0
C639 C 0.61981 0.48536 0.13126 0.0
C640 C 0.67266 0.4809 0.11771 0.0
C641 C 0.67387 0.46401 0.12857 0.0
C642 C 0.68596 0.48876 0.10135 0.0
C643 C 0.68499 0.50626 0.08916 0.0
C644 C 0.66357 0.5023 0.08198 0.0
C645 C 0.66278 0.51896 0.07061 0.0
C646 C 0.68333 0.53959 0.06622 0.0
C647 C 0.70472 0.54357 0.07315 0.0
C648 C 0.70559 0.52697 0.08454 0.0
C649 C 0.71771 0.41709 0.09333 0.0
C650 C 0.74147 0.43118 0.08896 0.0
C651 C 0.70449 0.4272 0.09868 0.0
C652 C 0.71484 0.4516 0.10011 0.0
C653 C 0.73842 0.46575 0.09522 0.0
C654 C 0.75163 0.45562 0.08967 0.0
C655 C 0.70105 0.46222 0.10692 0.0
C656 C 0.70002 0.47935 0.09618 0.0
C657 C 0.68818 0.45484 0.12356 0.0
C658 C 0.69008 0.43836 0.13636 0.0
C659 C 0.71202 0.44302 0.14289 0.0
C660 C 0.71374 0.42737 0.15483 0.0
C661 C 0.69362 0.40706 0.16047 0.0
C662 C 0.67173 0.40239 0.1542 0.0
C663 C 0.66992 0.41798 0.14223 0.0
H664 H 0.69499 0.39496 0.16972 0.0
H665 H 0.68269 0.55247 0.05742 0.0
H666 H 0.4375 0.89385 0.52601 0.0
H667 H 0.41329 0.85337 0.53617 0.0
H668 H 0.35128 0.85779 0.52681 0.0
H669 H 0.37528 0.89809 0.51619 0.0
H670 H 0.35088 0.83793 0.56054 0.0
H671 H 0.36526 0.82887 0.497 0.0
H672 H 0.38977 0.83517 0.46964 0.0
H673 H 0.42438 0.80361 0.49739 0.0
H674 H 0.40029 0.79742 0.52502 0.0
H675 H 0.26753 0.7166 0.56764 0.0
H676 H 0.2914 0.75746 0.55814 0.0
H677 H 0.35298 0.75072 0.55968 0.0
H678 H 0.32904 0.70966 0.56848 0.0
H679 H 0.35361 0.77222 0.5299 0.0
H680 H 0.34023 0.78134 0.59343 0.0
H681 H 0.31682 0.77558 0.62138 0.0
H682 H 0.28177 0.80744 0.59476 0.0
H683 H 0.30477 0.81311 0.56656 0.0
C684 C 0.41871 0.88615 0.52584 0.0
C685 C 0.40837 0.89928 0.52023 0.0
C686 C 0.4049 0.86303 0.53176 0.0
C687 C 0.38049 0.85256 0.53217 0.0
C688 C 0.3701 0.86559 0.52667 0.0
C689 C 0.38387 0.88866 0.52066 0.0
C690 C 0.36579 0.82802 0.53841 0.0
C691 C 0.35122 0.82348 0.55372 0.0
C692 C 0.36673 0.80932 0.52978 0.0
C693 C 0.38112 0.81289 0.51314 0.0
C694 C 0.37822 0.82344 0.49732 0.0
C695 C 0.39202 0.82696 0.48176 0.0
C696 C 0.40866 0.81985 0.4818 0.0
C697 C 0.4115 0.80914 0.49739 0.0
C698 C 0.39777 0.8056 0.513 0.0
C699 C 0.28619 0.72392 0.5661 0.0
C700 C 0.29644 0.70998 0.56882 0.0
C701 C 0.29985 0.74731 0.56074 0.0
C702 C 0.32409 0.75732 0.55838 0.0
C703 C 0.33434 0.74343 0.56137 0.0
C704 C 0.32066 0.71999 0.56647 0.0
C705 C 0.33868 0.78199 0.55217 0.0
C706 C 0.35324 0.78659 0.5368 0.0
C707 C 0.33787 0.80077 0.56086 0.0
C708 C 0.32406 0.79744 0.57782 0.0
C709 C 0.32741 0.78696 0.59349 0.0
C710 C 0.31423 0.78374 0.60939 0.0
C711 C 0.29777 0.79108 0.60983 0.0
C712 C 0.2945 0.80173 0.59439 0.0
C713 C 0.30762 0.80497 0.57845 0.0
H714 H 0.28759 0.78857 0.62215 0.0
H715 H 0.41932 0.82259 0.46973 0.0
H716 H 0.56389 0.43481 0.68627 0.0
H717 H 0.57909 0.40974 0.69653 0.0
H718 H 0.50881 0.35205 0.70262 0.0
H719 H 0.49345 0.3772 0.69283 0.0
H720 H 0.53583 0.35513 0.73172 0.0
H721 H 0.54096 0.35404 0.66613 0.0
H722 H 0.5518 0.37101 0.63501 0.0
H723 H 0.62432 0.40563 0.64987 0.0
H724 H 0.6139 0.38911 0.68117 0.0
H725 H 0.56888 0.26743 0.73927 0.0
H726 H 0.5512 0.29078 0.73003 0.0
H727 H 0.61975 0.35055 0.72153 0.0
H728 H 0.63746 0.32724 0.73042 0.0
H729 H 0.59192 0.3449 0.69314 0.0
H730 H 0.5862 0.34635 0.75922 0.0
H731 H 0.57483 0.32902 0.79019 0.0
H732 H 0.50269 0.29301 0.77408 0.0
H733 H 0.51367 0.3099 0.74292 0.0
C734 C 0.55167 0.41684 0.68993 0.0
C735 C 0.52746 0.40798 0.68868 0.0
C736 C 0.56038 0.40248 0.69564 0.0
C737 C 0.54508 0.37895 0.70014 0.0
C738 C 0.52092 0.37012 0.69914 0.0
C739 C 0.51219 0.38447 0.69339 0.0
C740 C 0.55434 0.3636 0.70594 0.0
C741 C 0.54784 0.35261 0.72318 0.0
C742 C 0.57028 0.36062 0.69491 0.0
C743 C 0.57663 0.37051 0.67606 0.0
C744 C 0.55921 0.36542 0.66281 0.0
C745 C 0.56528 0.37493 0.64513 0.0
C746 C 0.58873 0.38943 0.64048 0.0
C747 C 0.60616 0.39441 0.6535 0.0
C748 C 0.60019 0.38496 0.67121 0.0
C749 C 0.58015 0.2856 0.73558 0.0
C750 C 0.60454 0.29552 0.73558 0.0
C751 C 0.57004 0.29894 0.73034 0.0
C752 C 0.58416 0.32248 0.72519 0.0
C753 C 0.60852 0.33243 0.7254 0.0
C754 C 0.61861 0.31911 0.73056 0.0
C755 C 0.57367 0.33665 0.71905 0.0
C756 C 0.57989 0.34738 0.70168 0.0
C757 C 0.55741 0.3393 0.72994 0.0
C758 C 0.55079 0.3292 0.74869 0.0
C759 C 0.56793 0.33459 0.76224 0.0
C760 C 0.56155 0.32487 0.77983 0.0
C761 C 0.53806 0.30987 0.78409 0.0
C762 C 0.52089 0.30461 0.77076 0.0
C763 C 0.52718 0.31426 0.75314 0.0
H764 H 0.53315 0.30237 0.79772 0.0
H765 H 0.59339 0.39678 0.62678 0.0
H766 H 0.14444 0.5684 0.85788 0.0
H767 H 0.18506 0.58509 0.86763 0.0
H768 H 0.17927 0.51733 0.86292 0.0
H769 H 0.13896 0.5006 0.85244 0.0
H770 H 0.19964 0.54122 0.89652 0.0
H771 H 0.20738 0.55495 0.83099 0.0
H772 H 0.20096 0.56973 0.8017 0.0
H773 H 0.23537 0.6396 0.82342 0.0
H774 H 0.24169 0.62516 0.85295 0.0
H775 H 0.31852 0.57307 0.90427 0.0
H776 H 0.27782 0.55725 0.89512 0.0
H777 H 0.29003 0.62737 0.88778 0.0
H778 H 0.33108 0.64318 0.89604 0.0
H779 H 0.26571 0.60269 0.86072 0.0
H780 H 0.25864 0.59062 0.92584 0.0
H781 H 0.2644 0.57696 0.95593 0.0
H782 H 0.22816 0.50599 0.93657 0.0
H783 H 0.22245 0.51925 0.90628 0.0
C784 C 0.15184 0.55707 0.85861 0.0
C785 C 0.1383 0.5331 0.85434 0.0
C786 C 0.17504 0.56663 0.86432 0.0
C787 C 0.18513 0.55243 0.86598 0.0
C788 C 0.17173 0.52854 0.86183 0.0
C789 C 0.14863 0.51901 0.85593 0.0
C790 C 0.20967 0.56245 0.87209 0.0
C791 C 0.21416 0.55448 0.88863 0.0
C792 C 0.22845 0.58022 0.86203 0.0
C793 C 0.22479 0.58894 0.84424 0.0
C794 C 0.21339 0.57343 0.82958 0.0
C795 C 0.20981 0.58176 0.81292 0.0
C796 C 0.21769 0.60558 0.81071 0.0
C797 C 0.22924 0.62114 0.82515 0.0
C798 C 0.23285 0.6129 0.84185 0.0
C799 C 0.31245 0.58509 0.90083 0.0
C800 C 0.32791 0.60935 0.90092 0.0
C801 C 0.28914 0.57604 0.89569 0.0
C802 C 0.28064 0.59108 0.89103 0.0
C803 C 0.29609 0.61536 0.8913 0.0
C804 C 0.31953 0.6244 0.89609 0.0
C805 C 0.2559 0.58152 0.88528 0.0
C806 C 0.25129 0.58953 0.86875 0.0
C807 C 0.23697 0.564 0.89551 0.0
C808 C 0.2403 0.55596 0.91374 0.0
C809 C 0.25204 0.57211 0.92796 0.0
C810 C 0.25528 0.56444 0.94505 0.0
C811 C 0.24671 0.54063 0.94814 0.0
C812 C 0.23482 0.52443 0.93415 0.0
C813 C 0.23155 0.53201 0.91702 0.0
H814 H 0.24923 0.53473 0.96139 0.0
H815 H 0.2149 0.61199 0.79781 0.0
H816 H 0.6051 0.15124 0.01085 0.0
H817 H 0.63096 0.19174 0.02093 0.0
H818 H 0.67705 0.17129 0.0461 0.0
H819 H 0.65151 0.13088 0.03567 0.0
H820 H 0.66445 0.20066 0.06871 0.0
H821 H 0.69598 0.19773 0.01025 0.0
H822 H 0.69511 0.18945 0.97709 0.0
H823 H 0.6701 0.23685 0.9655 0.0
H824 H 0.67041 0.24508 0.99866 0.0
H825 H 0.75886 0.31687 0.08464 0.0
H826 H 0.73524 0.27554 0.07605 0.0
H827 H 0.69467 0.29252 0.03927 0.0
H828 H 0.71845 0.33375 0.04748 0.0
H829 H 0.70598 0.26393 0.02288 0.0
H830 H 0.67357 0.26621 0.08165 0.0
H831 H 0.67466 0.27446 0.11486 0.0
H832 H 0.70132 0.22833 0.12603 0.0
H833 H 0.70067 0.22005 0.09284 0.0
C834 C 0.62073 0.15543 0.01857 0.0
C835 C 0.62641 0.13805 0.02246 0.0
C836 C 0.63547 0.1785 0.02427 0.0
C837 C 0.65588 0.18442 0.03422 0.0
C838 C 0.66135 0.167 0.03845 0.0
C839 C 0.64686 0.14403 0.03242 0.0
C840 C 0.67165 0.20894 0.03996 0.0
C841 C 0.67381 0.2145 0.05875 0.0
C842 C 0.68349 0.22692 0.0269 0.0
C843 C 0.68296 0.22181 0.00696 0.0
C844 C 0.69001 0.20616 1.00065 0.0
C845 C 0.68967 0.20152 0.98186 0.0
C846 C 0.6825 0.21256 0.9692 0.0
C847 C 0.67561 0.22826 0.97532 0.0
C848 C 0.67587 0.23293 0.99412 0.0
C849 C 0.74484 0.31174 0.07478 0.0
C850 C 0.74049 0.32854 0.06675 0.0
C851 C 0.7313 0.28812 0.06993 0.0
C852 C 0.71302 0.28087 0.05712 0.0
C853 C 0.70868 0.29767 0.04915 0.0
C854 C 0.72225 0.32124 0.05391 0.0
C855 C 0.6986 0.25589 0.0517 0.0
C856 C 0.69668 0.25017 0.03292 0.0
C857 C 0.68696 0.23779 0.0648 0.0
C858 C 0.68731 0.24271 0.08475 0.0
C859 C 0.67984 0.25797 0.09118 0.0
C860 C 0.68034 0.26263 0.10999 0.0
C861 C 0.68812 0.25198 0.12254 0.0
C862 C 0.69534 0.2366 0.11629 0.0
C863 C 0.69489 0.2319 0.09748 0.0
H864 H 0.68849 0.2556 0.1371 0.0
H865 H 0.6824 0.20902 0.95465 0.0
H866 H 0.53565 0.65319 0.19698 0.0
H867 H 0.51886 0.67689 0.2074 0.0
H868 H 0.45066 0.62289 0.18979 0.0
H869 H 0.46738 0.59906 0.17931 0.0
H870 H 0.46277 0.66917 0.17868 0.0
H871 H 0.46206 0.62739 0.23352 0.0
H872 H 0.47991 0.61431 0.25703 0.0
H873 H 0.52762 0.68571 0.27177 0.0
H874 H 0.51026 0.69923 0.24815 0.0
H875 H 0.39488 0.71115 0.22046 0.0
H876 H 0.41108 0.68655 0.21137 0.0
H877 H 0.47621 0.73446 0.23785 0.0
H878 H 0.45982 0.75881 0.24745 0.0
H879 H 0.46616 0.6914 0.24435 0.0
H880 H 0.4694 0.73439 0.19079 0.0
H881 H 0.45449 0.74998 0.16685 0.0
H882 H 0.40618 0.68016 0.14878 0.0
H883 H 0.42056 0.66412 0.17282 0.0
C884 C 0.51709 0.64643 0.19525 0.0
C885 C 0.5028 0.62429 0.18734 0.0
C886 C 0.50752 0.65991 0.20129 0.0
C887 C 0.48352 0.65156 0.19945 0.0
C888 C 0.46923 0.6296 0.19135 0.0
C889 C 0.47876 0.61598 0.18549 0.0
C890 C 0.47335 0.6658 0.20598 0.0
C891 C 0.46316 0.67376 0.19307 0.0
C892 C 0.47468 0.67245 0.22465 0.0
C893 C 0.48501 0.66432 0.23895 0.0
C894 C 0.47648 0.64031 0.24167 0.0
C895 C 0.48648 0.63282 0.25504 0.0
C896 C 0.50492 0.64917 0.26586 0.0
C897 C 0.51335 0.67306 0.26337 0.0
C898 C 0.50343 0.68065 0.25 0.0
C899 C 0.41261 0.71637 0.22444 0.0
C900 C 0.42614 0.73696 0.23458 0.0
C901 C 0.42189 0.70236 0.21915 0.0
C902 C 0.44502 0.70887 0.22362 0.0
C903 C 0.45835 0.72911 0.23419 0.0
C904 C 0.44899 0.74303 0.23964 0.0
C905 C 0.45535 0.6947 0.21706 0.0
C906 C 0.46565 0.6868 0.22995 0.0
C907 C 0.45454 0.68849 0.19829 0.0
C908 C 0.4459 0.69804 0.18373 0.0
C909 C 0.45547 0.72235 0.1818 0.0
C910 C 0.44714 0.73127 0.1682 0.0
C911 C 0.42936 0.71607 0.15633 0.0
C912 C 0.41992 0.69191 0.15801 0.0
C913 C 0.42817 0.68289 0.17161 0.0
H914 H 0.42294 0.72302 0.1458 0.0
H915 H 0.51264 0.64334 0.2762 0.0
H916 H 0.89758 0.53422 0.35302 0.0
H917 H 0.85742 0.51754 0.36377 0.0
H918 H 0.85102 0.44941 0.36685 0.0
H919 H 0.89156 0.46605 0.35686 0.0
H920 H 0.81267 0.4509 0.34897 0.0
H921 H 0.85806 0.47626 0.40495 0.0
H922 H 0.88949 0.50494 0.42497 0.0
H923 H 0.85967 0.54957 0.42284 0.0
H924 H 0.82823 0.52129 0.40258 0.0
H925 H 0.70484 0.39375 0.39558 0.0
H926 H 0.74556 0.40877 0.38684 0.0
H927 H 0.76019 0.47929 0.39684 0.0
H928 H 0.7197 0.46416 0.40649 0.0
H929 H 0.79501 0.47618 0.4082 0.0
H930 H 0.75123 0.45401 0.35212 0.0
H931 H 0.72021 0.42787 0.33062 0.0
H932 H 0.74701 0.3806 0.33078 0.0
H933 H 0.77802 0.40633 0.35248 0.0
C934 C 0.88781 0.51574 0.3562 0.0
C935 C 0.898 0.50156 0.3542 0.0
C936 C 0.86479 0.50622 0.36223 0.0
C937 C 0.85136 0.4823 0.36622 0.0
C938 C 0.86114 0.46793 0.36381 0.0
C939 C 0.88429 0.47748 0.35799 0.0
C940 C 0.82714 0.47238 0.37304 0.0
C941 C 0.80875 0.45612 0.36204 0.0
C942 C 0.82212 0.47983 0.38981 0.0
C943 C 0.84092 0.49675 0.40211 0.0
C944 C 0.85831 0.49227 0.40863 0.0
C945 C 0.87611 0.50844 0.42004 0.0
C946 C 0.87661 0.52909 0.42514 0.0
C947 C 0.85927 0.53358 0.41887 0.0
C948 C 0.84145 0.51748 0.40743 0.0
C949 C 0.71681 0.41244 0.39603 0.0
C950 C 0.70913 0.42782 0.40162 0.0
C951 C 0.74005 0.42104 0.3909 0.0
C952 C 0.75591 0.44524 0.39073 0.0
C953 C 0.74833 0.46056 0.39677 0.0
C954 C 0.72519 0.45192 0.40227 0.0
C955 C 0.78028 0.4546 0.38411 0.0
C956 C 0.79878 0.47082 0.39514 0.0
C957 C 0.78538 0.44745 0.36716 0.0
C958 C 0.7668 0.43198 0.35407 0.0
C959 C 0.7504 0.43796 0.34767 0.0
C960 C 0.73284 0.42323 0.33543 0.0
C961 C 0.7316 0.40256 0.32937 0.0
C962 C 0.74797 0.39661 0.3355 0.0
C963 C 0.76555 0.41126 0.34776 0.0
H964 H 0.71799 0.39118 0.3199 0.0
H965 H 0.89041 0.54159 0.43397 0.0
H966 H 0.07342 0.57962 0.42453 0.0
H967 H 0.09919 0.5876 0.45093 0.0
H968 H 0.15527 0.59873 0.41449 0.0
H969 H 0.12964 0.59101 0.38793 0.0
H970 H 0.15187 0.57136 0.44371 0.0
H971 H 0.1552 0.64476 0.43435 0.0
H972 H 0.13916 0.67102 0.43 0.0
H973 H 0.10593 0.65117 0.48287 0.0
H974 H 0.12149 0.62452 0.48743 0.0
H975 H 0.2406 0.62135 0.51299 0.0
H976 H 0.21706 0.61368 0.48508 0.0
H977 H 0.15919 0.60562 0.51795 0.0
H978 H 0.18276 0.61377 0.54576 0.0
H979 H 0.16518 0.63263 0.48944 0.0
H980 H 0.16046 0.55823 0.49844 0.0
H981 H 0.17596 0.53151 0.50284 0.0
H982 H 0.21134 0.55282 0.45086 0.0
H983 H 0.1963 0.57991 0.44626 0.0
C984 C 0.09132 0.58406 0.42208 0.0
C985 C 0.09949 0.58479 0.40408 0.0
C986 C 0.10601 0.58854 0.43721 0.0
C987 C 0.12923 0.59398 0.43467 0.0
C988 C 0.13741 0.59453 0.41676 0.0
C989 C 0.12272 0.59006 0.4016 0.0
C990 C 0.14485 0.59891 0.45077 0.0
C991 C 0.15509 0.58499 0.45357 0.0
C992 C 0.14865 0.61638 0.46382 0.0
C993 C 0.13935 0.63248 0.46116 0.0
C994 C 0.14432 0.64585 0.44499 0.0
C995 C 0.13534 0.66083 0.44249 0.0
C996 C 0.12149 0.66272 0.45613 0.0
C997 C 0.11664 0.64967 0.47231 0.0
C998 C 0.12556 0.63464 0.47487 0.0
C999 C 0.2228 0.61775 0.51425 0.0
C1000 C 0.21351 0.61815 0.53155 0.0
C1001 C 0.20933 0.61331 0.4983 0.0
C1002 C 0.18627 0.6089 0.49941 0.0
C1003 C 0.17694 0.60902 0.51673 0.0
C1004 C 0.19041 0.6136 0.53263 0.0
C1005 C 0.172 0.60487 0.48255 0.0
C1006 C 0.16204 0.61903 0.47957 0.0
C1007 C 0.16842 0.58758 0.46937 0.0
C1008 C 0.17746 0.57128 0.4721 0.0
C1009 C 0.1717 0.55736 0.48802 0.0
C1010 C 0.18037 0.54212 0.49053 0.0
C1011 C 0.19468 0.54052 0.47716 0.0
C1012 C 0.20029 0.55411 0.46122 0.0
C1013 C 0.19168 0.5694 0.45865 0.0
H1014 H 0.20137 0.52871 0.47913 0.0
H1015 H 0.11455 0.67433 0.45417 0.0
H1016 H 0.5505 0.13099 0.55472 0.0
H1017 H 0.5691 0.15585 0.58158 0.0
H1018 H 0.52979 0.09672 0.61737 0.0
H1019 H 0.51088 0.07192 0.59058 0.0
H1020 H 0.53006 0.13374 0.6308 0.0
H1021 H 0.58859 0.11787 0.60701 0.0
H1022 H 0.61454 0.11661 0.58325 0.0
H1023 H 0.64799 0.19114 0.57687 0.0
H1024 H 0.62201 0.19281 0.60043 0.0
H1025 H 0.59406 0.18026 0.7126 0.0
H1026 H 0.57744 0.15642 0.685 0.0
H1027 H 0.6158 0.21764 0.65104 0.0
H1028 H 0.63289 0.24155 0.67865 0.0
H1029 H 0.61631 0.1805 0.63636 0.0
H1030 H 0.558 0.19626 0.6605 0.0
H1031 H 0.53212 0.1974 0.68439 0.0
H1032 H 0.49827 0.12276 0.69016 0.0
H1033 H 0.52418 0.12122 0.66648 0.0
C1034 C 0.5459 0.12331 0.56833 0.0
C1035 C 0.52928 0.0995 0.57056 0.0
C1036 C 0.55657 0.13751 0.58366 0.0
C1037 C 0.55112 0.12809 0.60151 0.0
C1038 C 0.53429 0.10439 0.60375 0.0
C1039 C 0.52345 0.09024 0.58844 0.0
C1040 C 0.56284 0.14288 0.61788 0.0
C1041 C 0.54893 0.14372 0.6321 0.0
C1042 C 0.58747 0.15638 0.61942 0.0
C1043 C 0.60321 0.15543 0.60535 0.0
C1044 C 0.60137 0.13397 0.60045 0.0
C1045 C 0.6161 0.13318 0.58703 0.0
C1046 C 0.63286 0.15377 0.57852 0.0
C1047 C 0.63498 0.1752 0.58345 0.0
C1048 C 0.62027 0.17608 0.59685 0.0
C1049 C 0.59912 0.18861 0.69925 0.0
C1050 C 0.61467 0.21279 0.69778 0.0
C1051 C 0.58951 0.17499 0.68349 0.0
C1052 C 0.59504 0.18532 0.66596 0.0
C1053 C 0.61121 0.20932 0.66443 0.0
C1054 C 0.62094 0.22295 0.68021 0.0
C1055 C 0.58352 0.17117 0.64929 0.0
C1056 C 0.59746 0.17051 0.63502 0.0
C1057 C 0.5589 0.15778 0.6477 0.0
C1058 C 0.54317 0.15865 0.66183 0.0
C1059 C 0.54514 0.18011 0.66695 0.0
C1060 C 0.53045 0.18082 0.68045 0.0
C1061 C 0.5136 0.16017 0.68882 0.0
C1062 C 0.51136 0.13875 0.68368 0.0
C1063 C 0.52602 0.13794 0.67021 0.0
H1064 H 0.50225 0.16076 0.69926 0.0
H1065 H 0.64425 0.15313 0.56814 0.0
H1066 H 0.423 0.49943 0.74722 0.0
H1067 H 0.41532 0.51742 0.77371 0.0
H1068 H 0.46646 0.58582 0.75393 0.0
H1069 H 0.4745 0.56783 0.72759 0.0
H1070 H 0.47215 0.58314 0.78929 0.0
H1071 H 0.40655 0.56475 0.75074 0.0
H1072 H 0.37228 0.53971 0.73146 0.0
H1073 H 0.33839 0.49495 0.77772 0.0
H1074 H 0.37261 0.51955 0.79722 0.0
H1075 H 0.43893 0.64457 0.85236 0.0
H1076 H 0.4466 0.62908 0.82419 0.0
H1077 H 0.40013 0.5587 0.84292 0.0
H1078 H 0.39225 0.57402 0.87094 0.0
H1079 H 0.39223 0.56416 0.80722 0.0
H1080 H 0.45895 0.58227 0.84527 0.0
H1081 H 0.49332 0.60776 0.86431 0.0
H1082 H 0.52506 0.65392 0.81839 0.0
H1083 H 0.49071 0.62885 0.79914 0.0
C1084 C 0.4324 0.51832 0.74842 0.0
C1085 C 0.44931 0.53223 0.73531 0.0
C1086 C 0.42799 0.5286 0.76356 0.0
C1087 C 0.4401 0.55303 0.76572 0.0
C1088 C 0.45691 0.56695 0.75259 0.0
C1089 C 0.4615 0.55666 0.73754 0.0
C1090 C 0.43569 0.56399 0.78196 0.0
C1091 C 0.4547 0.57927 0.79302 0.0
C1092 C 0.4129 0.55866 0.78707 0.0
C1093 C 0.39223 0.54389 0.7754 0.0
C1094 C 0.39186 0.54948 0.75677 0.0
C1095 C 0.37243 0.53537 0.74581 0.0
C1096 C 0.35319 0.51572 0.75335 0.0
C1097 C 0.35332 0.51016 0.77189 0.0
C1098 C 0.37271 0.5242 0.78291 0.0
C1099 C 0.43042 0.6258 0.85047 0.0
C1100 C 0.41504 0.6105 0.86387 0.0
C1101 C 0.43485 0.61698 0.83441 0.0
C1102 C 0.42405 0.59272 0.83151 0.0
C1103 C 0.40863 0.57747 0.84485 0.0
C1104 C 0.40422 0.58626 0.86089 0.0
C1105 C 0.42865 0.58311 0.81455 0.0
C1106 C 0.40968 0.5681 0.80338 0.0
C1107 C 0.45147 0.58879 0.80929 0.0
C1108 C 0.47216 0.60382 0.82083 0.0
C1109 C 0.47318 0.59796 0.83928 0.0
C1110 C 0.49267 0.61231 0.8501 0.0
C1111 C 0.51133 0.63248 0.84258 0.0
C1112 C 0.51057 0.63831 0.8242 0.0
C1113 C 0.49111 0.62403 0.81333 0.0
H1114 H 0.52641 0.64357 0.85098 0.0
H1115 H 0.33817 0.50482 0.74484 0.0
H1116 H 0.96142 0.451 0.92379 0.0
H1117 H 0.93571 0.44292 0.95021 0.0
H1118 H 0.8834 0.44296 0.91488 0.0
H1119 H 0.90863 0.45021 0.88818 0.0
H1120 H 0.89215 0.46984 0.94745 0.0
H1121 H 0.87474 0.39276 0.92923 0.0
H1122 H 0.88432 0.36232 0.92099 0.0
H1123 H 0.91535 0.36886 0.97417 0.0
H1124 H 0.90627 0.3996 0.98263 0.0
H1125 H 0.80112 0.4246 0.01435 0.0
H1126 H 0.82463 0.43212 0.98648 0.0
H1127 H 0.87356 0.41981 0.0168 0.0
H1128 H 0.8497 0.41147 0.04444 0.0
H1129 H 0.86533 0.39862 0.98558 0.0
H1130 H 0.88496 0.47612 0.00393 0.0
H1131 H 0.87739 0.50778 0.01271 0.0
H1132 H 0.84468 0.50213 0.96043 0.0
H1133 H 0.8518 0.4702 0.95142 0.0
C1134 C 0.94432 0.44893 0.92152 0.0
C1135 C 0.93712 0.45117 0.90377 0.0
C1136 C 0.9297 0.44446 0.93668 0.0
C1137 C 0.90763 0.44225 0.93447 0.0
C1138 C 0.90042 0.4447 0.91687 0.0
C1139 C 0.91493 0.44894 0.90164 0.0
C1140 C 0.89215 0.43745 0.95059 0.0
C1141 C 0.88596 0.45412 0.95566 0.0
C1142 C 0.88464 0.41722 0.96152 0.0
C1143 C 0.89001 0.39864 0.9565 0.0
C1144 C 0.88378 0.38785 0.93912 0.0
C1145 C 0.88909 0.37051 0.93441 0.0
C1146 C 0.90049 0.3637 0.94703 0.0
C1147 C 0.90655 0.37417 0.9644 0.0
C1148 C 0.9013 0.39154 0.96916 0.0
C1149 C 0.81696 0.42362 0.01506 0.0
C1150 C 0.8236 0.41748 0.03156 0.0
C1151 C 0.83045 0.42802 0.99915 0.0
C1152 C 0.85106 0.4268 0.99954 0.0
C1153 C 0.85774 0.42082 0.0161 0.0
C1154 C 0.84412 0.41613 0.03191 0.0
C1155 C 0.86543 0.43115 0.98268 0.0
C1156 C 0.87141 0.41435 0.97741 0.0
C1157 C 0.87299 0.45142 0.9717 0.0
C1158 C 0.86869 0.4706 0.97708 0.0
C1159 C 0.87599 0.4815 0.99436 0.0
C1160 C 0.87181 0.49952 0.99937 0.0
C1161 C 0.8605 0.50691 0.98715 0.0
C1162 C 0.85341 0.49635 0.96988 0.0
C1163 C 0.85752 0.47831 0.96481 0.0
H1164 H 0.85729 0.52087 0.99106 0.0
H1165 H 0.90458 0.35027 0.94337 0.0
H1166 H 0.47037 0.93715 0.06797 0.0
H1167 H 0.4524 0.91158 0.09442 0.0
H1168 H 0.51459 0.90702 0.10238 0.0
H1169 H 0.53227 0.93164 0.07535 0.0
H1170 H 0.47734 0.8656 0.10748 0.0
H1171 H 0.50276 0.94336 0.12895 0.0
H1172 H 0.5059 0.98217 0.12888 0.0
H1173 H 0.43169 0.95001 0.13575 0.0
H1174 H 0.42806 0.91096 0.13561 0.0
H1175 H 0.46049 0.82898 0.20071 0.0
H1176 H 0.47528 0.85201 0.17254 0.0
H1177 H 0.40839 0.84672 0.16347 0.0
H1178 H 0.39339 0.82352 0.1917 0.0
H1179 H 0.44633 0.89207 0.15855 0.0
H1180 H 0.42209 0.81385 0.13865 0.0
H1181 H 0.42049 0.77577 0.13992 0.0
H1182 H 0.49454 0.80984 0.13129 0.0
H1183 H 0.49665 0.84819 0.13025 0.0
C1184 C 0.48013 0.93043 0.07514 0.0
C1185 C 0.50285 0.93658 0.06953 0.0
C1186 C 0.46991 0.91602 0.09042 0.0
C1187 C 0.48228 0.90767 0.1006 0.0
C1188 C 0.50474 0.91333 0.09481 0.0
C1189 C 0.51492 0.92763 0.07945 0.0
C1190 C 0.47195 0.89329 0.1174 0.0
C1191 C 0.4708 0.87153 0.11872 0.0
C1192 C 0.46299 0.90078 0.13196 0.0
C1193 C 0.46511 0.92423 0.13207 0.0
C1194 C 0.48709 0.94456 0.1303 0.0
C1195 C 0.48896 0.9666 0.13032 0.0
C1196 C 0.469 0.96855 0.13225 0.0
C1197 C 0.44713 0.94847 0.13422 0.0
C1198 C 0.44516 0.92638 0.13418 0.0
C1199 C 0.44892 0.83274 0.19274 0.0
C1200 C 0.42576 0.82441 0.19838 0.0
C1201 C 0.45738 0.84582 0.17662 0.0
C1202 C 0.44286 0.85087 0.16584 0.0
C1203 C 0.41984 0.84294 0.17159 0.0
C1204 C 0.4113 0.82967 0.18767 0.0
C1205 C 0.45184 0.86452 0.14861 0.0
C1206 C 0.45276 0.88614 0.14724 0.0
C1207 C 0.4608 0.85701 0.1341 0.0
C1208 C 0.45955 0.83393 0.13453 0.0
C1209 C 0.43806 0.81325 0.13716 0.0
C1210 C 0.43706 0.79161 0.13782 0.0
C1211 C 0.45741 0.79039 0.13573 0.0
C1212 C 0.4788 0.81081 0.13293 0.0
C1213 C 0.4799 0.8325 0.13228 0.0
H1214 H 0.45659 0.77362 0.13623 0.0
H1215 H 0.47049 0.98563 0.13227 0.0
H1216 H 0.61467 0.53961 0.24725 0.0
H1217 H 0.62253 0.52182 0.27379 0.0
H1218 H 0.56897 0.45353 0.25569 0.0
H1219 H 0.56094 0.47125 0.2292 0.0
H1220 H 0.56484 0.45835 0.29137 0.0
H1221 H 0.62756 0.47171 0.25111 0.0
H1222 H 0.6613 0.49465 0.23078 0.0
H1223 H 0.69899 0.5404 0.27569 0.0
H1224 H 0.66533 0.51792 0.29624 0.0
H1225 H 0.596 0.39479 0.3538 0.0
H1226 H 0.58826 0.41053 0.32582 0.0
H1227 H 0.63862 0.48053 0.34305 0.0
H1228 H 0.64655 0.46494 0.37089 0.0
H1229 H 0.64415 0.47345 0.30715 0.0
H1230 H 0.58067 0.4605 0.34703 0.0
H1231 H 0.54684 0.43729 0.36722 0.0
H1232 H 0.5106 0.3902 0.32263 0.0
H1233 H 0.54435 0.41296 0.30223 0.0
C1234 C 0.60478 0.52078 0.2488 0.0
C1235 C 0.58719 0.50684 0.23612 0.0
C1236 C 0.60927 0.51062 0.26398 0.0
C1237 C 0.59649 0.48629 0.26666 0.0
C1238 C 0.57902 0.47233 0.25395 0.0
C1239 C 0.57443 0.48249 0.23883 0.0
C1240 C 0.6009 0.47546 0.28297 0.0
C1241 C 0.58213 0.46136 0.29465 0.0
C1242 C 0.62353 0.47973 0.28748 0.0
C1243 C 0.64383 0.49325 0.27518 0.0
C1244 C 0.64297 0.48677 0.25662 0.0
C1245 C 0.66209 0.49967 0.24506 0.0
C1246 C 0.68225 0.51901 0.25193 0.0
C1247 C 0.68335 0.52544 0.27039 0.0
C1248 C 0.66426 0.51261 0.282 0.0
C1249 C 0.60536 0.41353 0.35163 0.0
C1250 C 0.62183 0.42864 0.36456 0.0
C1251 C 0.60088 0.42251 0.33567 0.0
C1252 C 0.61276 0.44673 0.3324 0.0
C1253 C 0.62928 0.46179 0.34527 0.0
C1254 C 0.63371 0.45285 0.36122 0.0
C1255 C 0.60813 0.45648 0.31555 0.0
C1256 C 0.62686 0.47037 0.30379 0.0
C1257 C 0.58546 0.45195 0.31093 0.0
C1258 C 0.56513 0.43829 0.32316 0.0
C1259 C 0.56556 0.44508 0.34157 0.0
C1260 C 0.54639 0.43203 0.35305 0.0
C1261 C 0.52661 0.41224 0.34623 0.0
C1262 C 0.52594 0.40551 0.3279 0.0
C1263 C 0.54508 0.41848 0.31637 0.0
H1264 H 0.51178 0.40217 0.35513 0.0
H1265 H 0.69704 0.52898 0.24296 0.0
H1266 H 0.473 0.92863 0.42581 0.0
H1267 H 0.46538 0.90398 0.39866 0.0
H1268 H 0.41327 0.92057 0.38052 0.0
H1269 H 0.42066 0.94509 0.40784 0.0
H1270 H 0.39871 0.87543 0.37471 0.0
H1271 H 0.4683 0.94793 0.36188 0.0
H1272 H 0.50804 0.9807 0.3677 0.0
H1273 H 0.53455 0.93319 0.36778 0.0
H1274 H 0.49488 0.90007 0.36223 0.0
H1275 H 0.39486 0.84101 0.28139 0.0
H1276 H 0.40129 0.86477 0.30897 0.0
H1277 H 0.44832 0.84302 0.33019 0.0
H1278 H 0.44189 0.81911 0.30263 0.0
H1279 H 0.46522 0.89087 0.33411 0.0
H1280 H 0.39502 0.81837 0.34679 0.0
H1281 H 0.35518 0.78606 0.34046 0.0
H1282 H 0.32977 0.83446 0.33979 0.0
H1283 H 0.36956 0.86714 0.34587 0.0
C1284 C 0.45991 0.92702 0.41604 0.0
C1285 C 0.44758 0.93896 0.41886 0.0
C1286 C 0.45558 0.91294 0.40052 0.0
C1287 C 0.43907 0.91077 0.38736 0.0
C1288 C 0.42614 0.92203 0.39045 0.0
C1289 C 0.43035 0.936 0.40608 0.0
C1290 C 0.4357 0.89718 0.37019 0.0
C1291 C 0.4132 0.87903 0.36571 0.0
C1292 C 0.45467 0.90159 0.35858 0.0
C1293 C 0.47857 0.92149 0.36181 0.0
C1294 C 0.48257 0.94444 0.36328 0.0
C1295 C 0.50509 0.96309 0.3665 0.0
C1296 C 0.5238 0.95902 0.36815 0.0
C1297 C 0.52003 0.93631 0.36652 0.0
C1298 C 0.49754 0.91759 0.36332 0.0
C1299 C 0.40667 0.84139 0.29187 0.0
C1300 C 0.41784 0.82817 0.28988 0.0
C1301 C 0.41025 0.85488 0.30765 0.0
C1302 C 0.42509 0.85545 0.32169 0.0
C1303 C 0.43675 0.84276 0.31952 0.0
C1304 C 0.43304 0.82911 0.3038 0.0
C1305 C 0.4283 0.86914 0.33871 0.0
C1306 C 0.45075 0.88732 0.34313 0.0
C1307 C 0.40928 0.86485 0.35018 0.0
C1308 C 0.38531 0.84523 0.34661 0.0
C1309 C 0.38098 0.82216 0.34514 0.0
C1310 C 0.3584 0.80377 0.34163 0.0
C1311 C 0.33997 0.80821 0.33969 0.0
C1312 C 0.34408 0.83105 0.34128 0.0
C1313 C 0.36663 0.84951 0.34478 0.0
H1314 H 0.32251 0.79394 0.33702 0.0
H1315 H 0.54122 0.97348 0.37065 0.0
H1316 H 0.49747 0.41429 0.57822 0.0
H1317 H 0.51525 0.40823 0.55093 0.0
H1318 H 0.57777 0.47457 0.56027 0.0
H1319 H 0.55957 0.48147 0.58684 0.0
H1320 H 0.56833 0.47065 0.52573 0.0
H1321 H 0.57404 0.42071 0.5702 0.0
H1322 H 0.56023 0.38993 0.59393 0.0
H1323 H 0.51406 0.33914 0.55468 0.0
H1324 H 0.52738 0.36969 0.53077 0.0
H1325 H 0.64174 0.44734 0.46693 0.0
H1326 H 0.62419 0.45409 0.49429 0.0
H1327 H 0.55648 0.39818 0.47768 0.0
H1328 H 0.5738 0.39162 0.45015 0.0
H1329 H 0.5694 0.39687 0.51588 0.0
H1330 H 0.56565 0.44946 0.47146 0.0
H1331 H 0.58228 0.48133 0.44862 0.0
H1332 H 0.62885 0.52857 0.48956 0.0
H1333 H 0.61272 0.49687 0.5126 0.0
C1334 C 0.51491 0.42773 0.57439 0.0
C1335 C 0.52706 0.44835 0.58485 0.0
C1336 C 0.5252 0.42409 0.55889 0.0
C1337 C 0.54804 0.44077 0.55367 0.0
C1338 C 0.56018 0.46137 0.56404 0.0
C1339 C 0.54981 0.46516 0.5794 0.0
C1340 C 0.55911 0.43699 0.53719 0.0
C1341 C 0.56882 0.45463 0.52375 0.0
C1342 C 0.55958 0.41599 0.53441 0.0
C1343 C 0.55155 0.39754 0.54874 0.0
C1344 C 0.56081 0.40301 0.56666 0.0
C1345 C 0.5531 0.3856 0.58014 0.0
C1346 C 0.53624 0.36261 0.57583 0.0
C1347 C 0.5271 0.35697 0.55801 0.0
C1348 C 0.53475 0.37432 0.54448 0.0
C1349 C 0.6231 0.43659 0.46907 0.0
C1350 C 0.60912 0.41901 0.45639 0.0
C1351 C 0.61312 0.44045 0.48468 0.0
C1352 C 0.58906 0.42662 0.48796 0.0
C1353 C 0.57509 0.409 0.47538 0.0
C1354 C 0.58499 0.40537 0.45963 0.0
C1355 C 0.57845 0.43047 0.50458 0.0
C1356 C 0.56887 0.41286 0.51799 0.0
C1357 C 0.57852 0.45165 0.50751 0.0
C1358 C 0.58815 0.47073 0.4937 0.0
C1359 C 0.57958 0.46659 0.47555 0.0
C1360 C 0.58889 0.48463 0.46258 0.0
C1361 C 0.60666 0.50694 0.46762 0.0
C1362 C 0.61511 0.51127 0.48567 0.0
C1363 C 0.60588 0.49328 0.49869 0.0
H1364 H 0.61384 0.52089 0.45756 0.0
H1365 H 0.53028 0.34916 0.58628 0.0
H1366 H 0.1084 0.56716 0.75991 0.0
H1367 H 0.13389 0.58459 0.73329 0.0
H1368 H 0.12051 0.51635 0.71634 0.0
H1369 H 0.09509 0.49882 0.74309 0.0
H1370 H 0.16548 0.54804 0.71176 0.0
H1371 H 0.09256 0.54225 0.69582 0.0
H1372 H 0.05875 0.54795 0.69989 0.0
H1373 H 0.10425 0.62244 0.69967 0.0
H1374 H 0.13839 0.61718 0.69587 0.0
H1375 H 0.20088 0.57526 0.61852 0.0
H1376 H 0.17757 0.55901 0.64638 0.0
H1377 H 0.197 0.62854 0.66473 0.0
H1378 H 0.22045 0.64498 0.63682 0.0
H1379 H 0.14957 0.59677 0.66875 0.0
H1380 H 0.22259 0.60164 0.68371 0.0
H1381 H 0.2556 0.59489 0.67871 0.0
H1382 H 0.20873 0.52066 0.67968 0.0
H1383 H 0.17537 0.52697 0.68442 0.0
C1384 C 0.11086 0.55586 0.7505 0.0
C1385 C 0.09956 0.53159 0.7535 0.0
C1386 C 0.12543 0.56584 0.73529 0.0
C1387 C 0.12879 0.55173 0.72262 0.0
C1388 C 0.11814 0.52758 0.7259 0.0
C1389 C 0.10365 0.51759 0.7412 0.0
C1390 C 0.14305 0.56213 0.7058 0.0
C1391 C 0.16182 0.55846 0.70225 0.0
C1392 C 0.13855 0.57608 0.69353 0.0
C1393 C 0.11805 0.57932 0.69575 0.0
C1394 C 0.09538 0.55985 0.69679 0.0
C1395 C 0.07615 0.563 0.69902 0.0
C1396 C 0.07936 0.58555 0.70009 0.0
C1397 C 0.1018 0.60499 0.69887 0.0
C1398 C 0.12109 0.60193 0.69666 0.0
C1399 C 0.20017 0.5871 0.62846 0.0
C1400 C 0.21253 0.6114 0.62551 0.0
C1401 C 0.18692 0.5778 0.64441 0.0
C1402 C 0.18576 0.59259 0.65771 0.0
C1403 C 0.19773 0.61684 0.65465 0.0
C1404 C 0.21114 0.62619 0.63874 0.0
C1405 C 0.17196 0.58268 0.67476 0.0
C1406 C 0.15325 0.58642 0.67832 0.0
C1407 C 0.1764 0.56863 0.68693 0.0
C1408 C 0.19645 0.56479 0.68425 0.0
C1409 C 0.21929 0.58388 0.68271 0.0
C1410 C 0.23807 0.58013 0.67995 0.0
C1411 C 0.23426 0.55736 0.67883 0.0
C1412 C 0.21166 0.53829 0.68053 0.0
C1413 C 0.19281 0.54194 0.68327 0.0
H1414 H 0.24882 0.5545 0.67668 0.0
H1415 H 0.06445 0.58795 0.70182 0.0
H1416 H 0.62146 0.11173 0.91801 0.0
H1417 H 0.62796 0.13689 0.89129 0.0
H1418 H 0.55469 0.11513 0.8902 0.0
H1419 H 0.54806 0.0898 0.91681 0.0
H1420 H 0.571 0.11442 0.85597 0.0
H1421 H 0.59175 0.16777 0.90555 0.0
H1422 H 0.61131 0.18883 0.93399 0.0
H1423 H 0.67811 0.21643 0.90777 0.0
H1424 H 0.65895 0.19524 0.8792 0.0
H1425 H 0.58446 0.20721 0.79556 0.0
H1426 H 0.57589 0.18265 0.8231 0.0
H1427 H 0.64496 0.1915 0.82088 0.0
H1428 H 0.65342 0.21549 0.79315 0.0
H1429 H 0.62925 0.19926 0.85706 0.0
H1430 H 0.60592 0.14348 0.80709 0.0
H1431 H 0.58418 0.12407 0.77883 0.0
H1432 H 0.51934 0.10239 0.80676 0.0
H1433 H 0.54074 0.12201 0.83513 0.0
C1434 C 0.60674 0.11227 0.91203 0.0
C1435 C 0.58427 0.09886 0.91953 0.0
C1436 C 0.61049 0.12676 0.89685 0.0
C1437 C 0.59183 0.12801 0.88884 0.0
C1438 C 0.56934 0.11447 0.8962 0.0
C1439 C 0.56561 0.10015 0.91147 0.0
C1440 C 0.59577 0.14323 0.87264 0.0
C1441 C 0.58351 0.13303 0.8563 0.0
C1442 C 0.61222 0.16747 0.873 0.0
C1443 C 0.62392 0.17971 0.89029 0.0
C1444 C 0.61063 0.17808 0.90591 0.0
C1445 C 0.62163 0.1901 0.92203 0.0
C1446 C 0.64592 0.20394 0.92267 0.0
C1447 C 0.65928 0.20569 0.90723 0.0
C1448 C 0.64836 0.19369 0.89107 0.0
C1449 C 0.59778 0.20389 0.80097 0.0
C1450 C 0.61957 0.21316 0.79222 0.0
C1451 C 0.59287 0.18987 0.81664 0.0
C1452 C 0.60981 0.18529 0.82395 0.0
C1453 C 0.63169 0.19487 0.81542 0.0
C1454 C 0.63645 0.20847 0.79957 0.0
C1455 C 0.60473 0.17037 0.84045 0.0
C1456 C 0.61675 0.18065 0.85681 0.0
C1457 C 0.58782 0.1463 0.84018 0.0
C1458 C 0.57494 0.13446 0.82316 0.0
C1459 C 0.58704 0.13479 0.80715 0.0
C1460 C 0.57478 0.1237 0.79113 0.0
C1461 C 0.5504 0.11207 0.79098 0.0
C1462 C 0.53823 0.11145 0.80688 0.0
C1463 C 0.55042 0.12254 0.82294 0.0
H1464 H 0.54093 0.10348 0.77856 0.0
H1465 H 0.65436 0.21342 0.9351 0.0
H1466 H 0.48401 0.59204 0.0986 0.0
H1467 H 0.46621 0.59801 0.0712 0.0
H1468 H 0.52033 0.59918 0.03745 0.0
H1469 H 0.53789 0.59244 0.06466 0.0
H1470 H 0.51033 0.63501 0.02909 0.0
H1471 H 0.46956 0.55149 0.03787 0.0
H1472 H 0.44699 0.51507 0.05558 0.0
H1473 H 0.39229 0.53115 0.06378 0.0
H1474 H 0.41472 0.56787 0.04633 0.0
H1475 H 0.45828 0.62421 0.94198 0.0
H1476 H 0.47626 0.61776 0.96907 0.0
H1477 H 0.41685 0.60552 0.0019 0.0
H1478 H 0.39849 0.61126 0.9747 0.0
H1479 H 0.42977 0.57538 0.01098 0.0
H1480 H 0.46931 0.65839 0.00302 0.0
H1481 H 0.49146 0.69573 0.98635 0.0
H1482 H 0.5478 0.68215 0.97789 0.0
H1483 H 0.52583 0.64455 0.99429 0.0
C1484 C 0.49207 0.59336 0.08535 0.0
C1485 C 0.51234 0.59159 0.08388 0.0
C1486 C 0.48191 0.59689 0.06972 0.0
C1487 C 0.49186 0.59883 0.0523 0.0
C1488 C 0.51242 0.59776 0.05079 0.0
C1489 C 0.52249 0.59403 0.06639 0.0
C1490 C 0.48055 0.60157 0.03561 0.0
C1491 C 0.49284 0.62186 0.02496 0.0
C1492 C 0.4575 0.58468 0.03056 0.0
C1493 C 0.44393 0.56254 0.04095 0.0
C1494 C 0.45281 0.54736 0.04358 0.0
C1495 C 0.44002 0.52664 0.05355 0.0
C1496 C 0.41825 0.52083 0.06084 0.0
C1497 C 0.40918 0.53569 0.05814 0.0
C1498 C 0.42191 0.55645 0.0482 0.0
C1499 C 0.44901 0.62001 0.95495 0.0
C1500 C 0.42703 0.61832 0.95624 0.0
C1501 C 0.45936 0.61647 0.97046 0.0
C1502 C 0.44812 0.61158 0.98763 0.0
C1503 C 0.4259 0.60935 0.98884 0.0
C1504 C 0.41545 0.61266 0.97328 0.0
C1505 C 0.45954 0.60889 0.00435 0.0
C1506 C 0.44727 0.58859 0.01504 0.0
C1507 C 0.48253 0.62592 0.00956 0.0
C1508 C 0.49582 0.64855 0.99972 0.0
C1509 C 0.48635 0.66328 0.99748 0.0
C1510 C 0.49888 0.68451 0.9881 0.0
C1511 C 0.521 0.69128 0.98102 0.0
C1512 C 0.53065 0.67686 0.98335 0.0
C1513 C 0.51817 0.6556 0.9927 0.0
H1514 H 0.53068 0.70772 0.97377 0.0
H1515 H 0.40837 0.50479 0.06855 0.0
H1516 H 0.96564 0.51424 0.23251 0.0
H1517 H 0.93897 0.49658 0.2065 0.0
H1518 H 0.88032 0.47908 0.24207 0.0
H1519 H 0.907 0.49667 0.26827 0.0
H1520 H 0.87429 0.44187 0.21919 0.0
H1521 H 0.89651 0.52286 0.2136 0.0
H1522 H 0.92426 0.56525 0.21177 0.0
H1523 H 0.95453 0.55486 0.16298 0.0
H1524 H 0.92718 0.51235 0.16466 0.0
H1525 H 0.79235 0.40764 0.14532 0.0
H1526 H 0.81575 0.42496 0.17307 0.0
H1527 H 0.87843 0.45701 0.14011 0.0
H1528 H 0.855 0.44061 0.11234 0.0
H1529 H 0.88066 0.48737 0.16303 0.0
H1530 H 0.86136 0.40717 0.16891 0.0
H1531 H 0.83531 0.36442 0.17052 0.0
H1532 H 0.80157 0.37253 0.21813 0.0
H1533 H 0.82724 0.41536 0.21666 0.0
C1534 C 0.94706 0.5066 0.2348 0.0
C1535 C 0.93839 0.50682 0.25242 0.0
C1536 C 0.93186 0.49664 0.21992 0.0
C1537 C 0.90769 0.48664 0.22235 0.0
C1538 C 0.89893 0.48675 0.23992 0.0
C1539 C 0.91417 0.49693 0.25481 0.0
C1540 C 0.89165 0.47586 0.2065 0.0
C1541 C 0.87537 0.45184 0.207 0.0
C1542 C 0.89355 0.4888 0.19046 0.0
C1543 C 0.90992 0.51439 0.18935 0.0
C1544 C 0.9092 0.52959 0.20256 0.0
C1545 C 0.92484 0.55365 0.20153 0.0
C1546 C 0.94118 0.56274 0.18729 0.0
C1547 C 0.94188 0.54779 0.17401 0.0
C1548 C 0.9263 0.52372 0.17498 0.0
C1549 C 0.81114 0.41824 0.14406 0.0
C1550 C 0.82188 0.42276 0.12669 0.0
C1551 C 0.82453 0.42806 0.15993 0.0
C1552 C 0.84896 0.44213 0.15878 0.0
C1553 C 0.85965 0.44631 0.14141 0.0
C1554 C 0.84625 0.43685 0.12554 0.0
C1555 C 0.86341 0.45314 0.17548 0.0
C1556 C 0.87942 0.47729 0.1752 0.0
C1557 C 0.86146 0.44023 0.19162 0.0
C1558 C 0.84605 0.41448 0.19255 0.0
C1559 C 0.84827 0.39984 0.17964 0.0
C1560 C 0.83359 0.3756 0.18054 0.0
C1561 C 0.81675 0.36577 0.19439 0.0
C1562 C 0.8146 0.38017 0.20739 0.0
C1563 C 0.82921 0.40443 0.20654 0.0
H1564 H 0.80541 0.347 0.19507 0.0
H1565 H 0.95327 0.58137 0.18652 0.0
loop_
_geom_bond_atom_site_label_1
_geom_bond_atom_site_label_2
_geom_bond_distance
_geom_bond_site_symmetry_2
_ccdc_geom_bond_type
H0 C19 0.949 . S
H1 C20 0.950 . S
H2 C22 0.950 . S
H3 C23 0.950 . S
H4 C25 0.950 . S
H5 C28 0.950 . S
H6 C29 0.950 . S
H7 C31 0.951 . S
H8 C32 0.949 . S
H9 C34 0.949 . S
H10 C35 0.950 . S
H11 C37 0.950 . S
H12 C38 0.950 . S
H13 C40 0.950 . S
H14 C43 0.950 . S
H15 C44 0.950 . S
H16 C46 0.951 . S
H17 C47 0.949 . S
C18 C19 1.376 . S
C18 C23 1.386 . S
C18 C24 1.463 1_655 S
C19 H0 0.949 . S
C19 C18 1.376 . S
C19 C20 1.397 . S
C20 H1 0.950 . S
C20 C19 1.397 . S
C20 C21 1.391 . S
C21 C20 1.391 . S
C21 C22 1.405 . S
C22 H2 0.950 . S
C22 C21 1.405 . S
C22 C23 1.367 . S
C23 H3 0.950 . S
C23 C18 1.386 . S
C23 C22 1.367 . S
C24 C18 1.463 1_455 S
C24 C25 1.416 . S
C24 C26 1.390 1_455 S
C25 H4 0.950 . S
C25 C24 1.416 . S
C25 C41 1.411 . S
C26 C24 1.390 1_655 S
C26 C27 1.489 . S
C26 C40 1.411 1_655 S
C27 C26 1.489 . S
C27 C28 1.383 . S
C27 C32 1.382 . S
C28 H5 0.950 . S
C28 C27 1.383 . S
C28 C29 1.395 . S
C29 H6 0.950 . S
C29 C28 1.395 . S
C29 C30 1.288 . S
C30 C29 1.288 . S
C30 C31 1.392 . S
C31 H7 0.951 . S
C31 C30 1.392 . S
C31 C32 1.392 . S
C32 H8 0.949 . S
C32 C27 1.382 . S
C32 C31 1.392 . S
C33 C34 1.376 . S
C33 C38 1.386 . S
C33 C39 1.483 . S
C34 H9 0.949 . S
C34 C33 1.376 . S
C34 C35 1.397 . S
C35 H10 0.950 . S
C35 C34 1.397 . S
C35 C36 1.391 . S
C36 C35 1.391 . S
C36 C37 1.405 . S
C37 H11 0.950 . S
C37 C36 1.405 . S
C37 C38 1.367 . S
C38 H12 0.950 . S
C38 C33 1.386 . S
C38 C37 1.367 . S
C39 C33 1.483 . S
C39 C40 1.382 . S
C39 C41 1.403 . S
C40 H13 0.950 . S
C40 C26 1.411 1_455 S
C40 C39 1.382 . S
C41 C25 1.411 . S
C41 C39 1.403 . S
C41 C42 1.489 . S
C42 C41 1.489 . S
C42 C43 1.383 . S
C42 C47 1.382 . S
C43 H14 0.950 . S
C43 C42 1.383 . S
C43 C44 1.395 . S
C44 H15 0.950 . S
C44 C43 1.395 . S
C44 C45 1.288 . S
C45 C44 1.288 . S
C45 C46 1.392 . S
C46 H16 0.951 . S
C46 C45 1.392 . S
C46 C47 1.392 . S
C47 H17 0.949 . S
C47 C42 1.382 . S
C47 C46 1.392 . S
H48 C67 0.949 . S
H49 C68 0.950 . S
H50 C70 0.950 . S
H51 C71 0.950 . S
H52 C73 0.950 . S
H53 C76 0.950 . S
H54 C77 0.950 . S
H55 C79 0.951 . S
H56 C80 0.937 1_545 S
H57 C82 0.949 . S
H58 C83 0.950 . S
H59 C85 0.950 . S
H60 C86 0.950 . S
H61 C88 0.950 . S
H62 C91 0.950 . S
H63 C92 0.950 . S
H64 C94 0.951 . S
H65 C95 0.949 . S
C66 C67 1.376 . S
C66 C71 1.386 . S
C66 C72 1.483 . S
C67 H48 0.949 . S
C67 C66 1.376 . S
C67 C68 1.397 . S
C68 H49 0.950 . S
C68 C67 1.397 . S
C68 C69 1.391 . S
C69 C68 1.391 . S
C69 C70 1.405 . S
C70 H50 0.950 . S
C70 C69 1.405 . S
C70 C71 1.367 . S
C71 H51 0.950 . S
C71 C66 1.386 . S
C71 C70 1.367 . S
C72 C66 1.483 . S
C72 C73 1.382 1_565 S
C72 C74 1.403 1_565 S
C73 H52 0.950 . S
C73 C72 1.382 1_545 S
C73 C89 1.411 . S
C74 C72 1.403 1_545 S
C74 C75 1.489 1_545 S
C74 C88 1.411 . S
C75 C74 1.489 1_565 S
C75 C76 1.383 . S
C75 C80 1.382 . S
C76 H53 0.950 . S
C76 C75 1.383 . S
C76 C77 1.395 . S
C77 H54 0.950 . S
C77 C76 1.395 . S
C77 C78 1.288 . S
C78 C77 1.288 . S
C78 C79 1.392 . S
C79 H55 0.951 . S
C79 C78 1.392 . S
C79 C80 1.392 . S
C80 H56 0.937 1_565 S
C80 C75 1.382 . S
C80 C79 1.392 . S
C81 C82 1.376 . S
C81 C86 1.386 . S
C81 C87 1.483 . S
C82 H57 0.949 . S
C82 C81 1.376 . S
C82 C83 1.397 . S
C83 H58 0.950 . S
C83 C82 1.397 . S
C83 C84 1.391 . S
C84 C83 1.391 . S
C84 C85 1.405 . S
C85 H59 0.950 . S
C85 C84 1.405 . S
C85 C86 1.367 . S
C86 H60 0.950 . S
C86 C81 1.386 . S
C86 C85 1.367 . S
C87 C81 1.483 . S
C87 C88 1.382 . S
C87 C89 1.403 . S
C88 H61 0.950 . S
C88 C74 1.411 . S
C88 C87 1.382 . S
C89 C73 1.411 . S
C89 C87 1.403 . S
C89 C90 1.489 . S
C90 C89 1.489 . S
C90 C91 1.383 . S
C90 C95 1.382 . S
C91 H62 0.950 . S
C91 C90 1.383 . S
C91 C92 1.395 . S
C92 H63 0.950 . S
C92 C91 1.395 . S
C92 C93 1.288 . S
C93 C92 1.288 . S
C93 C94 1.392 . S
C94 H64 0.951 . S
C94 C93 1.392 . S
C94 C95 1.392 . S
C95 H65 0.949 . S
C95 C90 1.382 . S
C95 C94 1.392 . S
H96 C115 0.949 . S
H97 C116 0.950 . S
H98 C118 0.950 . S
H99 C119 0.950 . S
H100 C121 0.950 . S
H101 C124 0.950 . S
H102 C125 0.950 . S
H103 C127 0.951 . S
H104 C128 0.949 . S
H105 C130 0.949 . S
H106 C131 0.950 . S
H107 C133 0.950 . S
H108 C134 0.950 . S
H109 C136 0.950 . S
H110 C139 0.950 . S
H111 C140 0.950 . S
H112 C142 0.951 . S
H113 C143 0.949 . S
C114 C115 1.376 . S
C114 C119 1.386 . S
C114 C120 1.483 . S
C115 H96 0.949 . S
C115 C114 1.376 . S
C115 C116 1.397 . S
C116 H97 0.950 . S
C116 C115 1.397 . S
C116 C117 1.391 . S
C117 C116 1.391 . S
C117 C118 1.405 . S
C118 H98 0.950 . S
C118 C117 1.405 . S
C118 C119 1.367 . S
C119 H99 0.950 . S
C119 C114 1.386 . S
C119 C118 1.367 . S
C120 C114 1.483 . S
C120 C121 1.382 . S
C120 C122 1.403 . S
C121 H100 0.950 . S
C121 C120 1.382 . S
C121 C137 1.411 . S
C122 C120 1.403 . S
C122 C123 1.489 . S
C122 C136 1.411 . S
C123 C122 1.489 . S
C123 C124 1.383 . S
C123 C128 1.382 . S
C124 H101 0.950 . S
C124 C123 1.383 . S
C124 C125 1.395 . S
C125 H102 0.950 . S
C125 C124 1.395 . S
C125 C126 1.288 . S
C126 C125 1.288 . S
C126 C127 1.392 . S
C127 H103 0.951 . S
C127 C126 1.392 . S
C127 C128 1.392 . S
C128 H104 0.949 . S
C128 C123 1.382 . S
C128 C127 1.392 . S
C129 C130 1.376 . S
C129 C134 1.386 . S
C129 C135 1.483 . S
C130 H105 0.949 . S
C130 C129 1.376 . S
C130 C131 1.397 . S
C131 H106 0.950 . S
C131 C130 1.397 . S
C131 C132 1.391 . S
C132 C131 1.391 . S
C132 C133 1.405 . S
C133 H107 0.950 . S
C133 C132 1.405 . S
C133 C134 1.367 . S
C134 H108 0.950 . S
C134 C129 1.386 . S
C134 C133 1.367 . S
C135 C129 1.483 . S
C135 C136 1.382 . S
C135 C137 1.403 . S
C136 H109 0.950 . S
C136 C122 1.411 . S
C136 C135 1.382 . S
C137 C121 1.411 . S
C137 C135 1.403 . S
C137 C138 1.489 . S
C138 C137 1.489 . S
C138 C139 1.383 . S
C138 C143 1.382 . S
C139 H110 0.950 . S
C139 C138 1.383 . S
C139 C140 1.395 . S
C140 H111 0.950 . S
C140 C139 1.395 . S
C140 C141 1.288 . S
C141 C140 1.288 . S
C141 C142 1.392 . S
C142 H112 0.951 . S
C142 C141 1.392 . S
C142 C143 1.392 . S
C143 H113 0.949 . S
C143 C138 1.382 . S
C143 C142 1.392 . S
H144 C163 0.949 . S
H145 C164 0.950 . S
H146 C166 0.950 . S
H147 C167 0.950 . S
H148 C169 0.950 . S
H149 C172 0.950 . S
H150 C173 0.950 . S
H151 C175 0.951 . S
H152 C176 0.949 . S
H153 C178 0.949 . S
H154 C179 0.950 . S
H155 C181 0.950 . S
H156 C182 0.950 . S
H157 C184 0.950 . S
H158 C187 0.950 . S
H159 C188 0.950 . S
H160 C190 0.951 . S
H161 C191 0.949 . S
C162 C163 1.376 . S
C162 C167 1.386 . S
C162 C168 1.483 . S
C163 H144 0.949 . S
C163 C162 1.376 . S
C163 C164 1.397 . S
C164 H145 0.950 . S
C164 C163 1.397 . S
C164 C165 1.391 . S
C165 C164 1.391 . S
C165 C166 1.405 . S
C166 H146 0.950 . S
C166 C165 1.405 . S
C166 C167 1.367 . S
C167 H147 0.950 . S
C167 C162 1.386 . S
C167 C166 1.367 . S
C168 C162 1.483 . S
C168 C169 1.382 . S
C168 C170 1.403 . S
C169 H148 0.950 . S
C169 C168 1.382 . S
C169 C185 1.411 1_455 S
C170 C168 1.403 . S
C170 C171 1.489 . S
C170 C184 1.411 . S
C171 C170 1.489 . S
C171 C172 1.383 . S
C171 C176 1.382 . S
C172 H149 0.950 . S
C172 C171 1.383 . S
C172 C173 1.395 . S
C173 H150 0.950 . S
C173 C172 1.395 . S
C173 C174 1.288 . S
C174 C173 1.288 . S
C174 C175 1.392 . S
C175 H151 0.951 . S
C175 C174 1.392 . S
C175 C176 1.392 . S
C176 H152 0.949 . S
C176 C171 1.382 . S
C176 C175 1.392 . S
C177 C178 1.376 . S
C177 C182 1.386 . S
C177 C183 1.481 1_655 S
C178 H153 0.949 . S
C178 C177 1.376 . S
C178 C179 1.397 . S
C179 H154 0.950 . S
C179 C178 1.397 . S
C179 C180 1.391 . S
C180 C179 1.391 . S
C180 C181 1.405 . S
C181 H155 0.950 . S
C181 C180 1.405 . S
C181 C182 1.367 . S
C182 H156 0.950 . S
C182 C177 1.386 . S
C182 C181 1.367 . S
C183 C177 1.481 1_455 S
C183 C184 1.386 . S
C183 C185 1.401 1_455 S
C184 H157 0.950 . S
C184 C170 1.411 . S
C184 C183 1.386 . S
C185 C169 1.411 1_655 S
C185 C183 1.401 1_655 S
C185 C186 1.489 . S
C186 C185 1.489 . S
C186 C187 1.383 . S
C186 C191 1.382 . S
C187 H158 0.950 . S
C187 C186 1.383 . S
C187 C188 1.395 . S
C188 H159 0.950 . S
C188 C187 1.395 . S
C188 C189 1.288 . S
C189 C188 1.288 . S
C189 C190 1.392 . S
C190 H160 0.951 . S
C190 C189 1.392 . S
C190 C191 1.392 . S
C191 H161 0.949 . S
C191 C186 1.382 . S
C191 C190 1.392 . S
H192 C211 0.949 . S
H193 C212 0.950 . S
H194 C214 0.950 . S
H195 C215 0.950 . S
H196 C217 0.950 . S
H197 C220 0.950 . S
H198 C221 0.950 . S
H199 C223 0.951 . S
H200 C224 0.949 . S
H201 C226 0.949 . S
H202 C227 0.950 . S
H203 C229 0.950 . S
H204 C230 0.950 . S
H205 C232 0.950 . S
H206 C235 0.950 . S
H207 C236 0.950 . S
H208 C238 0.951 . S
H209 C239 0.949 1_545 S
C210 C211 1.376 . S
C210 C215 1.386 1_554 S
C210 C216 1.483 1_554 S
C211 H192 0.949 . S
C211 C210 1.376 . S
C211 C212 1.397 . S
C212 H193 0.950 . S
C212 C211 1.397 . S
C212 C213 1.391 . S
C213 C212 1.391 . S
C213 C214 1.405 . S
C214 H194 0.950 . S
C214 C213 1.405 . S
C214 C215 1.367 1_554 S
C215 H195 0.950 . S
C215 C210 1.386 1_556 S
C215 C214 1.367 1_556 S
C216 C210 1.483 1_556 S
C216 C217 1.382 1_556 S
C216 C218 1.403 . S
C217 H196 0.950 . S
C217 C216 1.382 1_554 S
C217 C233 1.411 . S
C218 C216 1.403 . S
C218 C219 1.489 . S
C218 C232 1.411 . S
C219 C218 1.489 . S
C219 C220 1.383 . S
C219 C224 1.382 . S
C220 H197 0.950 . S
C220 C219 1.383 . S
C220 C221 1.395 . S
C221 H198 0.950 . S
C221 C220 1.395 . S
C221 C222 1.288 . S
C222 C221 1.288 . S
C222 C223 1.392 . S
C223 H199 0.951 . S
C223 C222 1.392 . S
C223 C224 1.392 . S
C224 H200 0.949 . S
C224 C219 1.382 . S
C224 C223 1.392 . S
C225 C226 1.376 . S
C225 C230 1.386 . S
C225 C231 1.483 . S
C226 H201 0.949 . S
C226 C225 1.376 . S
C226 C227 1.397 . S
C227 H202 0.950 . S
C227 C226 1.397 . S
C227 C228 1.391 . S
C228 C227 1.391 . S
C228 C229 1.405 . S
C229 H203 0.950 . S
C229 C228 1.405 . S
C229 C230 1.367 . S
C230 H204 0.950 . S
C230 C225 1.386 . S
C230 C229 1.367 . S
C231 C225 1.483 . S
C231 C232 1.382 1_565 S
C231 C233 1.403 1_566 S
C232 H205 0.950 . S
C232 C218 1.411 . S
C232 C231 1.382 1_545 S
C233 C217 1.411 . S
C233 C231 1.403 1_544 S
C233 C234 1.489 1_545 S
C234 C233 1.489 1_565 S
C234 C235 1.383 . S
C234 C239 1.382 . S
C235 H206 0.950 . S
C235 C234 1.383 . S
C235 C236 1.395 . S
C236 H207 0.950 . S
C236 C235 1.395 . S
C236 C237 1.288 . S
C237 C236 1.288 . S
C237 C238 1.392 . S
C238 H208 0.951 . S
C238 C237 1.392 . S
C238 C239 1.392 . S
C239 H209 0.949 1_565 S
C239 C234 1.382 . S
C239 C238 1.392 . S
H240 C259 0.949 . S
H241 C260 0.950 . S
H242 C262 0.950 . S
H243 C263 0.950 . S
H244 C265 0.950 . S
H245 C268 0.950 . S
H246 C269 0.950 . S
H247 C271 0.951 . S
H248 C272 0.949 . S
H249 C274 0.949 . S
H250 C275 0.950 . S
H251 C277 0.950 . S
H252 C278 0.950 . S
H253 C280 0.950 . S
H254 C283 0.950 . S
H255 C284 0.950 . S
H256 C286 0.951 . S
H257 C287 0.949 . S
C258 C259 1.376 . S
C258 C263 1.386 . S
C258 C264 1.483 . S
C259 H240 0.949 . S
C259 C258 1.376 . S
C259 C260 1.397 . S
C260 H241 0.950 . S
C260 C259 1.397 . S
C260 C261 1.391 . S
C261 C260 1.391 . S
C261 C262 1.405 . S
C262 H242 0.950 . S
C262 C261 1.405 . S
C262 C263 1.367 . S
C263 H243 0.950 . S
C263 C258 1.386 . S
C263 C262 1.367 . S
C264 C258 1.483 . S
C264 C265 1.382 . S
C264 C266 1.403 . S
C265 H244 0.950 . S
C265 C264 1.382 . S
C265 C281 1.411 . S
C266 C264 1.403 . S
C266 C267 1.489 . S
C266 C280 1.411 . S
C267 C266 1.489 . S
C267 C268 1.383 . S
C267 C272 1.382 . S
C268 H245 0.950 . S
C268 C267 1.383 . S
C268 C269 1.395 . S
C269 H246 0.950 . S
C269 C268 1.395 . S
C269 C270 1.288 . S
C270 C269 1.288 . S
C270 C271 1.392 . S
C271 H247 0.951 . S
C271 C270 1.392 . S
C271 C272 1.392 . S
C272 H248 0.949 . S
C272 C267 1.382 . S
C272 C271 1.392 . S
C273 C274 1.376 . S
C273 C278 1.386 . S
C273 C279 1.483 . S
C274 H249 0.949 . S
C274 C273 1.376 . S
C274 C275 1.397 . S
C275 H250 0.950 . S
C275 C274 1.397 . S
C275 C276 1.391 . S
C276 C275 1.391 . S
C276 C277 1.405 . S
C277 H251 0.950 . S
C277 C276 1.405 . S
C277 C278 1.367 . S
C278 H252 0.950 . S
C278 C273 1.386 . S
C278 C277 1.367 . S
C279 C273 1.483 . S
C279 C280 1.382 . S
C279 C281 1.403 . S
C280 H253 0.950 . S
C280 C266 1.411 . S
C280 C279 1.382 . S
C281 C265 1.411 . S
C281 C279 1.403 . S
C281 C282 1.489 . S
C282 C281 1.489 . S
C282 C283 1.383 . S
C282 C287 1.382 . S
C283 H254 0.950 . S
C283 C282 1.383 . S
C283 C284 1.395 . S
C284 H255 0.950 . S
C284 C283 1.395 . S
C284 C285 1.288 . S
C285 C284 1.288 . S
C285 C286 1.392 . S
C286 H256 0.951 . S
C286 C285 1.392 . S
C286 C287 1.392 . S
C287 H257 0.949 . S
C287 C282 1.382 . S
C287 C286 1.392 . S
In288 O289 2.294 . S
In288 O290 2.326 . S
In288 O294 2.266 . S
In288 O295 2.326 . S
In288 O296 2.266 . S
In288 O297 2.326 . S
In288 O299 2.294 . S
In288 O300 2.326 . S
O289 In288 2.294 . S
O289 C298 1.240 . S
O290 In288 2.326 . S
O290 C298 1.252 . S
C291 O294 1.252 . S
C291 O295 1.260 . S
C292 O299 1.240 . S
C292 O300 1.252 . S
C293 O296 1.252 . S
C293 O297 1.260 . S
O294 In288 2.266 . S
O294 C291 1.252 . S
O295 In288 2.326 . S
O295 C291 1.260 . S
O296 In288 2.266 . S
O296 C293 1.252 . S
O297 In288 2.326 . S
O297 C293 1.260 . S
C298 O289 1.240 . S
C298 O290 1.252 . S
O299 In288 2.294 . S
O299 C292 1.240 . S
O300 In288 2.326 . S
O300 C292 1.252 . S
In301 O302 2.294 . S
In301 O303 2.326 . S
In301 O307 2.266 . S
In301 O308 2.326 . S
In301 O309 2.266 . S
In301 O310 2.326 . S
In301 O312 2.294 . S
In301 O313 2.326 . S
O302 In301 2.294 . S
O302 C311 1.240 . S
O303 In301 2.326 . S
O303 C311 1.252 . S
C304 O307 1.252 . S
C304 O308 1.260 . S
C305 O312 1.240 . S
C305 O313 1.252 . S
C306 O309 1.252 . S
C306 O310 1.260 . S
O307 In301 2.266 . S
O307 C304 1.252 . S
O308 In301 2.326 . S
O308 C304 1.260 . S
O309 In301 2.266 . S
O309 C306 1.252 . S
O310 In301 2.326 . S
O310 C306 1.260 . S
C311 O302 1.240 . S
C311 O303 1.252 . S
O312 In301 2.294 . S
O312 C305 1.240 . S
O313 In301 2.326 . S
O313 C305 1.252 . S
In314 O315 2.294 . S
In314 O316 2.326 . S
In314 O320 2.266 . S
In314 O321 2.326 . S
In314 O322 2.266 . S
In314 O323 2.326 . S
In314 O325 2.294 . S
In314 O326 2.326 . S
O315 In314 2.294 . S
O315 C324 1.240 . S
O316 In314 2.326 . S
O316 C324 1.252 . S
C317 O320 1.252 . S
C317 O321 1.260 . S
C318 O325 1.240 . S
C318 O326 1.252 . S
C319 O322 1.252 . S
C319 O323 1.260 . S
O320 In314 2.266 . S
O320 C317 1.252 . S
O321 In314 2.326 . S
O321 C317 1.260 . S
O322 In314 2.266 . S
O322 C319 1.252 . S
O323 In314 2.326 . S
O323 C319 1.260 . S
C324 O315 1.240 . S
C324 O316 1.252 . S
O325 In314 2.294 . S
O325 C318 1.240 . S
O326 In314 2.326 . S
O326 C318 1.252 . S
In327 O328 2.294 . S
In327 O329 2.326 . S
In327 O333 2.266 . S
In327 O334 2.326 . S
In327 O335 2.266 . S
In327 O336 2.326 . S
In327 O338 2.294 . S
In327 O339 2.326 . S
O328 In327 2.294 . S
O328 C337 1.240 . S
O329 In327 2.326 . S
O329 C337 1.252 . S
C330 O333 1.252 . S
C330 O334 1.260 . S
C331 O338 1.240 . S
C331 O339 1.252 . S
C332 O335 1.252 . S
C332 O336 1.260 . S
O333 In327 2.266 . S
O333 C330 1.252 . S
O334 In327 2.326 . S
O334 C330 1.260 . S
O335 In327 2.266 . S
O335 C332 1.252 . S
O336 In327 2.326 . S
O336 C332 1.260 . S
C337 O328 1.240 . S
C337 O329 1.252 . S
O338 In327 2.294 . S
O338 C331 1.240 . S
O339 In327 2.326 . S
O339 C331 1.252 . S
In340 O341 2.294 . S
In340 O342 2.326 . S
In340 O346 2.266 . S
In340 O347 2.326 . S
In340 O348 2.266 . S
In340 O349 2.326 . S
In340 O351 2.294 . S
In340 O352 2.326 . S
O341 In340 2.294 . S
O341 C350 1.240 . S
O342 In340 2.326 . S
O342 C350 1.252 . S
C343 O346 1.252 . S
C343 O347 1.260 . S
C344 O351 1.240 . S
C344 O352 1.252 . S
C345 O348 1.252 . S
C345 O349 1.260 . S
O346 In340 2.266 . S
O346 C343 1.252 . S
O347 In340 2.326 . S
O347 C343 1.260 . S
O348 In340 2.266 . S
O348 C345 1.252 . S
O349 In340 2.326 . S
O349 C345 1.260 . S
C350 O341 1.240 . S
C350 O342 1.252 . S
O351 In340 2.294 . S
O351 C344 1.240 . S
O352 In340 2.326 . S
O352 C344 1.252 . S
In353 O354 2.294 . S
In353 O355 2.326 . S
In353 O359 2.266 . S
In353 O360 2.326 . S
In353 O361 2.266 . S
In353 O362 2.326 . S
In353 O364 2.294 . S
In353 O365 2.326 . S
O354 In353 2.294 . S
O354 C363 1.240 . S
O355 In353 2.326 . S
O355 C363 1.252 . S
C356 O359 1.252 . S
C356 O360 1.260 . S
C357 O364 1.240 . S
C357 O365 1.252 . S
C358 O361 1.252 . S
C358 O362 1.260 . S
O359 In353 2.266 . S
O359 C356 1.252 . S
O360 In353 2.326 . S
O360 C356 1.260 . S
O361 In353 2.266 . S
O361 C358 1.252 . S
O362 In353 2.326 . S
O362 C358 1.260 . S
C363 O354 1.240 . S
C363 O355 1.252 . S
O364 In353 2.294 . S
O364 C357 1.240 . S
O365 In353 2.326 . S
O365 C357 1.252 . S
H366 C384 0.951 . S
H367 C386 0.951 . S
H368 C388 0.950 . S
H369 C389 0.950 . S
H370 C391 0.950 . S
H371 C394 0.950 . S
H372 C395 0.950 . S
H373 C397 0.950 . S
H374 C398 0.950 . S
H375 C399 0.951 . S
H376 C401 0.951 . S
H377 C403 0.950 . S
H378 C404 0.950 . S
H379 C406 0.950 . S
H380 C409 0.950 . S
H381 C410 0.950 . S
H382 C412 0.950 . S
H383 C413 0.950 . S
C384 H366 0.951 . S
C384 C385 1.366 . S
C384 C386 1.388 . S
C385 C384 1.366 . S
C385 C389 1.385 . S
C386 H367 0.951 . S
C386 C384 1.388 . S
C386 C387 1.366 . S
C387 C386 1.366 . S
C387 C388 1.414 . S
C387 C390 1.499 . S
C388 H368 0.950 . S
C388 C387 1.414 . S
C388 C389 1.374 . S
C389 H369 0.950 . S
C389 C385 1.385 . S
C389 C388 1.374 . S
C390 C387 1.499 . S
C390 C391 1.373 . S
C390 C392 1.389 . S
C391 H370 0.950 . S
C391 C390 1.373 . S
C391 C407 1.377 . S
C392 C390 1.389 . S
C392 C393 1.524 . S
C392 C406 1.377 . S
C393 C392 1.524 . S
C393 C394 1.397 . S
C393 C398 1.363 . S
C394 H371 0.950 . S
C394 C393 1.397 . S
C394 C395 1.334 . S
C395 H372 0.950 . S
C395 C394 1.334 . S
C395 C396 1.287 . S
C396 C395 1.287 . S
C396 C397 1.524 . S
C396 H415 0.913 . S
C397 H373 0.950 . S
C397 C396 1.524 . S
C397 C398 1.415 . S
C398 H374 0.950 . S
C398 C393 1.363 . S
C398 C397 1.415 . S
C399 H375 0.951 . S
C399 C400 1.366 . S
C399 C401 1.388 . S
C400 C399 1.366 . S
C400 C404 1.385 . S
C401 H376 0.951 . S
C401 C399 1.388 . S
C401 C402 1.366 . S
C402 C401 1.366 . S
C402 C403 1.414 . S
C402 C405 1.499 . S
C403 H377 0.950 . S
C403 C402 1.414 . S
C403 C404 1.374 . S
C404 H378 0.950 . S
C404 C400 1.385 . S
C404 C403 1.374 . S
C405 C402 1.499 . S
C405 C406 1.373 . S
C405 C407 1.389 . S
C406 H379 0.950 . S
C406 C392 1.377 . S
C406 C405 1.373 . S
C407 C391 1.377 . S
C407 C405 1.389 . S
C407 C408 1.524 . S
C408 C407 1.524 . S
C408 C409 1.397 . S
C408 C413 1.363 . S
C409 H380 0.950 . S
C409 C408 1.397 . S
C409 C410 1.334 . S
C410 H381 0.950 . S
C410 C409 1.334 . S
C410 C411 1.287 . S
C411 C410 1.287 . S
C411 C412 1.524 . S
C411 H414 0.999 . S
C412 H382 0.950 . S
C412 C411 1.524 . S
C412 C413 1.415 . S
C413 H383 0.950 . S
C413 C408 1.363 . S
C413 C412 1.415 . S
H414 C411 0.999 . S
H415 C396 0.913 . S
H416 C434 0.951 . S
H417 C436 0.951 . S
H418 C438 0.950 . S
H419 C439 0.950 . S
H420 C441 0.950 . S
H421 C444 0.950 . S
H422 C445 0.950 . S
H423 C447 0.950 . S
H424 C448 0.950 . S
H425 C449 0.951 . S
H426 C451 0.951 . S
H427 C453 0.950 . S
H428 C454 0.950 . S
H429 C456 0.950 . S
H430 C459 0.950 . S
H431 C460 0.950 . S
H432 C462 0.950 . S
H433 C463 0.950 . S
C434 H416 0.951 . S
C434 C435 1.366 . S
C434 C436 1.388 . S
C435 C434 1.366 . S
C435 C439 1.385 . S
C436 H417 0.951 . S
C436 C434 1.388 . S
C436 C437 1.366 . S
C437 C436 1.366 . S
C437 C438 1.414 . S
C437 C440 1.499 . S
C438 H418 0.950 . S
C438 C437 1.414 . S
C438 C439 1.374 . S
C439 H419 0.950 . S
C439 C435 1.385 . S
C439 C438 1.374 . S
C440 C437 1.499 . S
C440 C441 1.373 . S
C440 C442 1.389 . S
C441 H420 0.950 . S
C441 C440 1.373 . S
C441 C457 1.377 . S
C442 C440 1.389 . S
C442 C443 1.524 . S
C442 C456 1.377 . S
C443 C442 1.524 . S
C443 C444 1.397 . S
C443 C448 1.363 . S
C444 H421 0.950 . S
C444 C443 1.397 . S
C444 C445 1.334 . S
C445 H422 0.950 . S
C445 C444 1.334 . S
C445 C446 1.287 . S
C446 C445 1.287 . S
C446 C447 1.524 . S
C446 H465 0.913 . S
C447 H423 0.950 . S
C447 C446 1.524 . S
C447 C448 1.415 . S
C448 H424 0.950 . S
C448 C443 1.363 . S
C448 C447 1.415 . S
C449 H425 0.951 . S
C449 C450 1.366 . S
C449 C451 1.388 . S
C450 C449 1.366 . S
C450 C454 1.385 . S
C451 H426 0.951 . S
C451 C449 1.388 . S
C451 C452 1.366 . S
C452 C451 1.366 . S
C452 C453 1.414 . S
C452 C455 1.499 . S
C453 H427 0.950 . S
C453 C452 1.414 . S
C453 C454 1.374 . S
C454 H428 0.950 . S
C454 C450 1.385 . S
C454 C453 1.374 . S
C455 C452 1.499 . S
C455 C456 1.373 . S
C455 C457 1.389 . S
C456 H429 0.950 . S
C456 C442 1.377 . S
C456 C455 1.373 . S
C457 C441 1.377 . S
C457 C455 1.389 . S
C457 C458 1.524 . S
C458 C457 1.524 . S
C458 C459 1.397 . S
C458 C463 1.363 . S
C459 H430 0.950 . S
C459 C458 1.397 . S
C459 C460 1.334 . S
C460 H431 0.950 . S
C460 C459 1.334 . S
C460 C461 1.287 . S
C461 C460 1.287 . S
C461 C462 1.524 . S
C461 H464 0.999 . S
C462 H432 0.950 . S
C462 C461 1.524 . S
C462 C463 1.415 . S
C463 H433 0.950 . S
C463 C458 1.363 . S
C463 C462 1.415 . S
H464 C461 0.999 . S
H465 C446 0.913 . S
H466 C484 0.951 . S
H467 C486 0.951 . S
H468 C488 0.950 . S
H469 C489 0.950 . S
H470 C491 0.950 . S
H471 C494 0.950 . S
H472 C495 0.950 . S
H473 C497 0.950 . S
H474 C498 0.950 . S
H475 C499 0.951 . S
H476 C501 0.951 . S
H477 C503 0.950 . S
H478 C504 0.950 . S
H479 C506 0.950 . S
H480 C509 0.950 . S
H481 C510 0.950 . S
H482 C512 0.950 . S
H483 C513 0.950 . S
C484 H466 0.951 . S
C484 C485 1.366 . S
C484 C486 1.388 . S
C485 C484 1.366 . S
C485 C489 1.385 . S
C486 H467 0.951 . S
C486 C484 1.388 . S
C486 C487 1.366 . S
C487 C486 1.366 . S
C487 C488 1.414 . S
C487 C490 1.499 . S
C488 H468 0.950 . S
C488 C487 1.414 . S
C488 C489 1.374 . S
C489 H469 0.950 . S
C489 C485 1.385 . S
C489 C488 1.374 . S
C490 C487 1.499 . S
C490 C491 1.373 . S
C490 C492 1.389 . S
C491 H470 0.950 . S
C491 C490 1.373 . S
C491 C507 1.377 . S
C492 C490 1.389 . S
C492 C493 1.524 . S
C492 C506 1.377 . S
C493 C492 1.524 . S
C493 C494 1.397 . S
C493 C498 1.363 . S
C494 H471 0.950 . S
C494 C493 1.397 . S
C494 C495 1.334 . S
C495 H472 0.950 . S
C495 C494 1.334 . S
C495 C496 1.287 . S
C496 C495 1.287 . S
C496 C497 1.524 . S
C496 H515 0.913 . S
C497 H473 0.950 . S
C497 C496 1.524 . S
C497 C498 1.415 . S
C498 H474 0.950 . S
C498 C493 1.363 . S
C498 C497 1.415 . S
C499 H475 0.951 . S
C499 C500 1.366 . S
C499 C501 1.388 . S
C500 C499 1.366 . S
C500 C504 1.385 . S
C501 H476 0.951 . S
C501 C499 1.388 . S
C501 C502 1.366 . S
C502 C501 1.366 . S
C502 C503 1.414 . S
C502 C505 1.499 . S
C503 H477 0.950 . S
C503 C502 1.414 . S
C503 C504 1.374 . S
C504 H478 0.950 . S
C504 C500 1.385 . S
C504 C503 1.374 . S
C505 C502 1.499 . S
C505 C506 1.373 . S
C505 C507 1.389 . S
C506 H479 0.950 . S
C506 C492 1.377 . S
C506 C505 1.373 . S
C507 C491 1.377 . S
C507 C505 1.389 . S
C507 C508 1.524 . S
C508 C507 1.524 . S
C508 C509 1.397 . S
C508 C513 1.363 . S
C509 H480 0.950 . S
C509 C508 1.397 . S
C509 C510 1.334 . S
C510 H481 0.950 . S
C510 C509 1.334 . S
C510 C511 1.287 . S
C511 C510 1.287 . S
C511 C512 1.524 . S
C511 H514 0.999 . S
C512 H482 0.950 . S
C512 C511 1.524 . S
C512 C513 1.415 . S
C513 H483 0.950 . S
C513 C508 1.363 . S
C513 C512 1.415 . S
H514 C511 0.999 . S
H515 C496 0.913 . S
H516 C534 0.951 . S
H517 C536 0.951 . S
H518 C538 0.950 . S
H519 C539 0.950 . S
H520 C541 0.950 . S
H521 C544 0.950 . S
H522 C545 0.950 . S
H523 C547 0.950 . S
H524 C548 0.950 . S
H525 C549 0.951 . S
H526 C551 0.951 . S
H527 C553 0.950 . S
H528 C554 0.950 . S
H529 C556 0.950 . S
H530 C559 0.950 . S
H531 C560 0.950 . S
H532 C562 0.950 . S
H533 C563 0.950 . S
C534 H516 0.951 . S
C534 C535 1.366 . S
C534 C536 1.388 . S
C535 C534 1.366 . S
C535 C539 1.385 . S
C536 H517 0.951 . S
C536 C534 1.388 . S
C536 C537 1.366 . S
C537 C536 1.366 . S
C537 C538 1.414 . S
C537 C540 1.499 . S
C538 H518 0.950 . S
C538 C537 1.414 . S
C538 C539 1.374 . S
C539 H519 0.950 . S
C539 C535 1.385 . S
C539 C538 1.374 . S
C540 C537 1.499 . S
C540 C541 1.373 . S
C540 C542 1.389 . S
C541 H520 0.950 . S
C541 C540 1.373 . S
C541 C557 1.377 . S
C542 C540 1.389 . S
C542 C543 1.524 . S
C542 C556 1.377 . S
C543 C542 1.524 . S
C543 C544 1.397 . S
C543 C548 1.363 . S
C544 H521 0.950 . S
C544 C543 1.397 . S
C544 C545 1.334 . S
C545 H522 0.950 . S
C545 C544 1.334 . S
C545 C546 1.287 . S
C546 C545 1.287 . S
C546 C547 1.524 . S
C546 H565 0.913 . S
C547 H523 0.950 . S
C547 C546 1.524 . S
C547 C548 1.415 . S
C548 H524 0.950 . S
C548 C543 1.363 . S
C548 C547 1.415 . S
C549 H525 0.951 . S
C549 C550 1.366 . S
C549 C551 1.388 . S
C550 C549 1.366 . S
C550 C554 1.385 . S
C551 H526 0.951 . S
C551 C549 1.388 . S
C551 C552 1.366 . S
C552 C551 1.366 . S
C552 C553 1.414 . S
C552 C555 1.499 . S
C553 H527 0.950 . S
C553 C552 1.414 . S
C553 C554 1.374 . S
C554 H528 0.950 . S
C554 C550 1.385 . S
C554 C553 1.374 . S
C555 C552 1.499 . S
C555 C556 1.373 . S
C555 C557 1.389 . S
C556 H529 0.950 . S
C556 C542 1.377 . S
C556 C555 1.373 . S
C557 C541 1.377 . S
C557 C555 1.389 . S
C557 C558 1.524 . S
C558 C557 1.524 . S
C558 C559 1.397 . S
C558 C563 1.363 . S
C559 H530 0.950 . S
C559 C558 1.397 . S
C559 C560 1.334 . S
C560 H531 0.950 . S
C560 C559 1.334 . S
C560 C561 1.287 . S
C561 C560 1.287 . S
C561 C562 1.524 . S
C561 H564 0.999 . S
C562 H532 0.950 . S
C562 C561 1.524 . S
C562 C563 1.415 . S
C563 H533 0.950 . S
C563 C558 1.363 . S
C563 C562 1.415 . S
H564 C561 0.999 . S
H565 C546 0.913 . S
H566 C584 0.951 . S
H567 C586 0.951 . S
H568 C588 0.950 . S
H569 C589 0.950 . S
H570 C591 0.950 . S
H571 C594 0.950 . S
H572 C595 0.950 . S
H573 C597 0.950 . S
H574 C598 0.950 . S
H575 C599 0.951 . S
H576 C601 0.951 . S
H577 C603 0.950 . S
H578 C604 0.950 . S
H579 C606 0.950 . S
H580 C609 0.950 . S
H581 C610 0.950 . S
H582 C612 0.950 . S
H583 C613 0.950 . S
C584 H566 0.951 . S
C584 C585 1.366 . S
C584 C586 1.388 . S
C585 C584 1.366 . S
C585 C589 1.385 . S
C586 H567 0.951 . S
C586 C584 1.388 . S
C586 C587 1.366 . S
C587 C586 1.366 . S
C587 C588 1.414 . S
C587 C590 1.499 . S
C588 H568 0.950 . S
C588 C587 1.414 . S
C588 C589 1.374 . S
C589 H569 0.950 . S
C589 C585 1.385 . S
C589 C588 1.374 . S
C590 C587 1.499 . S
C590 C591 1.373 . S
C590 C592 1.389 . S
C591 H570 0.950 . S
C591 C590 1.373 . S
C591 C607 1.377 . S
C592 C590 1.389 . S
C592 C593 1.524 . S
C592 C606 1.377 . S
C593 C592 1.524 . S
C593 C594 1.397 . S
C593 C598 1.363 . S
C594 H571 0.950 . S
C594 C593 1.397 . S
C594 C595 1.334 . S
C595 H572 0.950 . S
C595 C594 1.334 . S
C595 C596 1.287 1_556 S
C596 C595 1.287 1_554 S
C596 C597 1.524 . S
C596 H615 0.913 . S
C597 H573 0.950 . S
C597 C596 1.524 . S
C597 C598 1.415 1_554 S
C598 H574 0.950 . S
C598 C593 1.363 . S
C598 C597 1.415 1_556 S
C599 H575 0.951 . S
C599 C600 1.366 . S
C599 C601 1.388 . S
C600 C599 1.366 . S
C600 C604 1.385 . S
C601 H576 0.951 . S
C601 C599 1.388 . S
C601 C602 1.366 . S
C602 C601 1.366 . S
C602 C603 1.414 . S
C602 C605 1.499 . S
C603 H577 0.950 . S
C603 C602 1.414 . S
C603 C604 1.374 . S
C604 H578 0.950 . S
C604 C600 1.385 . S
C604 C603 1.374 . S
C605 C602 1.499 . S
C605 C606 1.373 . S
C605 C607 1.389 . S
C606 H579 0.950 . S
C606 C592 1.377 . S
C606 C605 1.373 . S
C607 C591 1.377 . S
C607 C605 1.389 . S
C607 C608 1.524 . S
C608 C607 1.524 . S
C608 C609 1.397 . S
C608 C613 1.363 . S
C609 H580 0.950 . S
C609 C608 1.397 . S
C609 C610 1.334 . S
C610 H581 0.950 . S
C610 C609 1.334 . S
C610 C611 1.287 . S
C611 C610 1.287 . S
C611 C612 1.524 . S
C611 H614 0.999 . S
C612 H582 0.950 . S
C612 C611 1.524 . S
C612 C613 1.415 . S
C613 H583 0.950 . S
C613 C608 1.363 . S
C613 C612 1.415 . S
H614 C611 0.999 . S
H615 C596 0.913 . S
H616 C634 0.951 . S
H617 C636 0.951 . S
H618 C638 0.950 . S
H619 C639 0.950 . S
H620 C641 0.950 . S
H621 C644 0.950 . S
H622 C645 0.950 . S
H623 C647 0.950 . S
H624 C648 0.950 . S
H625 C649 0.951 . S
H626 C651 0.951 . S
H627 C653 0.950 . S
H628 C654 0.950 . S
H629 C656 0.950 . S
H630 C659 0.950 . S
H631 C660 0.950 . S
H632 C662 0.950 . S
H633 C663 0.950 . S
C634 H616 0.951 . S
C634 C635 1.366 . S
C634 C636 1.388 . S
C635 C634 1.366 . S
C635 C639 1.385 . S
C636 H617 0.951 . S
C636 C634 1.388 . S
C636 C637 1.366 . S
C637 C636 1.366 . S
C637 C638 1.414 . S
C637 C640 1.499 . S
C638 H618 0.950 . S
C638 C637 1.414 . S
C638 C639 1.374 . S
C639 H619 0.950 . S
C639 C635 1.385 . S
C639 C638 1.374 . S
C640 C637 1.499 . S
C640 C641 1.373 . S
C640 C642 1.389 . S
C641 H620 0.950 . S
C641 C640 1.373 . S
C641 C657 1.377 . S
C642 C640 1.389 . S
C642 C643 1.524 . S
C642 C656 1.377 . S
C643 C642 1.524 . S
C643 C644 1.397 . S
C643 C648 1.363 . S
C644 H621 0.950 . S
C644 C643 1.397 . S
C644 C645 1.334 . S
C645 H622 0.950 . S
C645 C644 1.334 . S
C645 C646 1.287 . S
C646 C645 1.287 . S
C646 C647 1.524 . S
C646 H665 0.913 . S
C647 H623 0.950 . S
C647 C646 1.524 . S
C647 C648 1.415 . S
C648 H624 0.950 . S
C648 C643 1.363 . S
C648 C647 1.415 . S
C649 H625 0.951 . S
C649 C650 1.366 . S
C649 C651 1.388 . S
C650 C649 1.366 . S
C650 C654 1.385 . S
C651 H626 0.951 . S
C651 C649 1.388 . S
C651 C652 1.366 . S
C652 C651 1.366 . S
C652 C653 1.414 . S
C652 C655 1.499 . S
C653 H627 0.950 . S
C653 C652 1.414 . S
C653 C654 1.374 . S
C654 H628 0.950 . S
C654 C650 1.385 . S
C654 C653 1.374 . S
C655 C652 1.499 . S
C655 C656 1.373 . S
C655 C657 1.389 . S
C656 H629 0.950 . S
C656 C642 1.377 . S
C656 C655 1.373 . S
C657 C641 1.377 . S
C657 C655 1.389 . S
C657 C658 1.524 . S
C658 C657 1.524 . S
C658 C659 1.397 . S
C658 C663 1.363 . S
C659 H630 0.950 . S
C659 C658 1.397 . S
C659 C660 1.334 . S
C660 H631 0.950 . S
C660 C659 1.334 . S
C660 C661 1.287 . S
C661 C660 1.287 . S
C661 C662 1.524 . S
C661 H664 0.999 . S
C662 H632 0.950 . S
C662 C661 1.524 . S
C662 C663 1.415 . S
C663 H633 0.950 . S
C663 C658 1.363 . S
C663 C662 1.415 . S
H664 C661 0.999 . S
H665 C646 0.913 . S
H666 C684 0.951 . S
H667 C686 0.951 . S
H668 C688 0.950 . S
H669 C689 0.950 . S
H670 C691 0.950 . S
H671 C694 0.950 . S
H672 C695 0.950 . S
H673 C697 0.950 . S
H674 C698 0.950 . S
H675 C699 0.951 . S
H676 C701 0.951 . S
H677 C703 0.950 . S
H678 C704 0.950 . S
H679 C706 0.950 . S
H680 C709 0.950 . S
H681 C710 0.950 . S
H682 C712 0.950 . S
H683 C713 0.950 . S
C684 H666 0.951 . S
C684 C685 1.366 . S
C684 C686 1.388 . S
C685 C684 1.366 . S
C685 C689 1.385 . S
C686 H667 0.951 . S
C686 C684 1.388 . S
C686 C687 1.366 . S
C687 C686 1.366 . S
C687 C688 1.414 . S
C687 C690 1.499 . S
C688 H668 0.950 . S
C688 C687 1.414 . S
C688 C689 1.374 . S
C689 H669 0.950 . S
C689 C685 1.385 . S
C689 C688 1.374 . S
C690 C687 1.499 . S
C690 C691 1.373 . S
C690 C692 1.389 . S
C691 H670 0.950 . S
C691 C690 1.373 . S
C691 C707 1.377 . S
C692 C690 1.389 . S
C692 C693 1.524 . S
C692 C706 1.377 . S
C693 C692 1.524 . S
C693 C694 1.397 . S
C693 C698 1.363 . S
C694 H671 0.950 . S
C694 C693 1.397 . S
C694 C695 1.334 . S
C695 H672 0.950 . S
C695 C694 1.334 . S
C695 C696 1.287 . S
C696 C695 1.287 . S
C696 C697 1.524 . S
C696 H715 0.913 . S
C697 H673 0.950 . S
C697 C696 1.524 . S
C697 C698 1.415 . S
C698 H674 0.950 . S
C698 C693 1.363 . S
C698 C697 1.415 . S
C699 H675 0.951 . S
C699 C700 1.366 . S
C699 C701 1.388 . S
C700 C699 1.366 . S
C700 C704 1.385 . S
C701 H676 0.951 . S
C701 C699 1.388 . S
C701 C702 1.366 . S
C702 C701 1.366 . S
C702 C703 1.414 . S
C702 C705 1.499 . S
C703 H677 0.950 . S
C703 C702 1.414 . S
C703 C704 1.374 . S
C704 H678 0.950 . S
C704 C700 1.385 . S
C704 C703 1.374 . S
C705 C702 1.499 . S
C705 C706 1.373 . S
C705 C707 1.389 . S
C706 H679 0.950 . S
C706 C692 1.377 . S
C706 C705 1.373 . S
C707 C691 1.377 . S
C707 C705 1.389 . S
C707 C708 1.524 . S
C708 C707 1.524 . S
C708 C709 1.397 . S
C708 C713 1.363 . S
C709 H680 0.950 . S
C709 C708 1.397 . S
C709 C710 1.334 . S
C710 H681 0.950 . S
C710 C709 1.334 . S
C710 C711 1.287 . S
C711 C710 1.287 . S
C711 C712 1.524 . S
C711 H714 0.999 . S
C712 H682 0.950 . S
C712 C711 1.524 . S
C712 C713 1.415 . S
C713 H683 0.950 . S
C713 C708 1.363 . S
C713 C712 1.415 . S
H714 C711 0.999 . S
H715 C696 0.913 . S
H716 C734 0.951 . S
H717 C736 0.951 . S
H718 C738 0.950 . S
H719 C739 0.950 . S
H720 C741 0.950 . S
H721 C744 0.950 . S
H722 C745 0.950 . S
H723 C747 0.950 . S
H724 C748 0.950 . S
H725 C749 0.951 . S
H726 C751 0.951 . S
H727 C753 0.950 . S
H728 C754 0.950 . S
H729 C756 0.950 . S
H730 C759 0.950 . S
H731 C760 0.950 . S
H732 C762 0.950 . S
H733 C763 0.950 . S
C734 H716 0.951 . S
C734 C735 1.366 . S
C734 C736 1.388 . S
C735 C734 1.366 . S
C735 C739 1.385 . S
C736 H717 0.951 . S
C736 C734 1.388 . S
C736 C737 1.366 . S
C737 C736 1.366 . S
C737 C738 1.414 . S
C737 C740 1.499 . S
C738 H718 0.950 . S
C738 C737 1.414 . S
C738 C739 1.374 . S
C739 H719 0.950 . S
C739 C735 1.385 . S
C739 C738 1.374 . S
C740 C737 1.499 . S
C740 C741 1.373 . S
C740 C742 1.389 . S
C741 H720 0.950 . S
C741 C740 1.373 . S
C741 C757 1.377 . S
C742 C740 1.389 . S
C742 C743 1.524 . S
C742 C756 1.377 . S
C743 C742 1.524 . S
C743 C744 1.397 . S
C743 C748 1.363 . S
C744 H721 0.950 . S
C744 C743 1.397 . S
C744 C745 1.334 . S
C745 H722 0.950 . S
C745 C744 1.334 . S
C745 C746 1.287 . S
C746 C745 1.287 . S
C746 C747 1.524 . S
C746 H765 0.913 . S
C747 H723 0.950 . S
C747 C746 1.524 . S
C747 C748 1.415 . S
C748 H724 0.950 . S
C748 C743 1.363 . S
C748 C747 1.415 . S
C749 H725 0.951 . S
C749 C750 1.366 . S
C749 C751 1.388 . S
C750 C749 1.366 . S
C750 C754 1.385 . S
C751 H726 0.951 . S
C751 C749 1.388 . S
C751 C752 1.366 . S
C752 C751 1.366 . S
C752 C753 1.414 . S
C752 C755 1.499 . S
C753 H727 0.950 . S
C753 C752 1.414 . S
C753 C754 1.374 . S
C754 H728 0.950 . S
C754 C750 1.385 . S
C754 C753 1.374 . S
C755 C752 1.499 . S
C755 C756 1.373 . S
C755 C757 1.389 . S
C756 H729 0.950 . S
C756 C742 1.377 . S
C756 C755 1.373 . S
C757 C741 1.377 . S
C757 C755 1.389 . S
C757 C758 1.524 . S
C758 C757 1.524 . S
C758 C759 1.397 . S
C758 C763 1.363 . S
C759 H730 0.950 . S
C759 C758 1.397 . S
C759 C760 1.334 . S
C760 H731 0.950 . S
C760 C759 1.334 . S
C760 C761 1.287 . S
C761 C760 1.287 . S
C761 C762 1.524 . S
C761 H764 0.999 . S
C762 H732 0.950 . S
C762 C761 1.524 . S
C762 C763 1.415 . S
C763 H733 0.950 . S
C763 C758 1.363 . S
C763 C762 1.415 . S
H764 C761 0.999 . S
H765 C746 0.913 . S
H766 C784 0.951 . S
H767 C786 0.951 . S
H768 C788 0.950 . S
H769 C789 0.950 . S
H770 C791 0.950 . S
H771 C794 0.950 . S
H772 C795 0.950 . S
H773 C797 0.950 . S
H774 C798 0.950 . S
H775 C799 0.951 . S
H776 C801 0.951 . S
H777 C803 0.950 . S
H778 C804 0.950 . S
H779 C806 0.950 . S
H780 C809 0.950 . S
H781 C810 0.950 . S
H782 C812 0.950 . S
H783 C813 0.950 . S
C784 H766 0.951 . S
C784 C785 1.366 . S
C784 C786 1.388 . S
C785 C784 1.366 . S
C785 C789 1.385 . S
C786 H767 0.951 . S
C786 C784 1.388 . S
C786 C787 1.366 . S
C787 C786 1.366 . S
C787 C788 1.414 . S
C787 C790 1.499 . S
C788 H768 0.950 . S
C788 C787 1.414 . S
C788 C789 1.374 . S
C789 H769 0.950 . S
C789 C785 1.385 . S
C789 C788 1.374 . S
C790 C787 1.499 . S
C790 C791 1.373 . S
C790 C792 1.389 . S
C791 H770 0.950 . S
C791 C790 1.373 . S
C791 C807 1.377 . S
C792 C790 1.389 . S
C792 C793 1.524 . S
C792 C806 1.377 . S
C793 C792 1.524 . S
C793 C794 1.397 . S
C793 C798 1.363 . S
C794 H771 0.950 . S
C794 C793 1.397 . S
C794 C795 1.334 . S
C795 H772 0.950 . S
C795 C794 1.334 . S
C795 C796 1.287 . S
C796 C795 1.287 . S
C796 C797 1.524 . S
C796 H815 0.913 . S
C797 H773 0.950 . S
C797 C796 1.524 . S
C797 C798 1.415 . S
C798 H774 0.950 . S
C798 C793 1.363 . S
C798 C797 1.415 . S
C799 H775 0.951 . S
C799 C800 1.366 . S
C799 C801 1.388 . S
C800 C799 1.366 . S
C800 C804 1.385 . S
C801 H776 0.951 . S
C801 C799 1.388 . S
C801 C802 1.366 . S
C802 C801 1.366 . S
C802 C803 1.414 . S
C802 C805 1.499 . S
C803 H777 0.950 . S
C803 C802 1.414 . S
C803 C804 1.374 . S
C804 H778 0.950 . S
C804 C800 1.385 . S
C804 C803 1.374 . S
C805 C802 1.499 . S
C805 C806 1.373 . S
C805 C807 1.389 . S
C806 H779 0.950 . S
C806 C792 1.377 . S
C806 C805 1.373 . S
C807 C791 1.377 . S
C807 C805 1.389 . S
C807 C808 1.524 . S
C808 C807 1.524 . S
C808 C809 1.397 . S
C808 C813 1.363 . S
C809 H780 0.950 . S
C809 C808 1.397 . S
C809 C810 1.334 . S
C810 H781 0.950 . S
C810 C809 1.334 . S
C810 C811 1.287 . S
C811 C810 1.287 . S
C811 C812 1.524 . S
C811 H814 0.999 . S
C812 H782 0.950 . S
C812 C811 1.524 . S
C812 C813 1.415 . S
C813 H783 0.950 . S
C813 C808 1.363 . S
C813 C812 1.415 . S
H814 C811 0.999 . S
H815 C796 0.913 . S
H816 C834 0.951 . S
H817 C836 0.951 . S
H818 C838 0.950 . S
H819 C839 0.950 . S
H820 C841 0.950 . S
H821 C844 0.950 1_554 S
H822 C845 0.950 . S
H823 C847 0.950 . S
H824 C848 0.950 . S
H825 C849 0.951 . S
H826 C851 0.951 . S
H827 C853 0.950 . S
H828 C854 0.950 . S
H829 C856 0.950 . S
H830 C859 0.950 . S
H831 C860 0.950 . S
H832 C862 0.950 . S
H833 C863 0.950 . S
C834 H816 0.951 . S
C834 C835 1.366 . S
C834 C836 1.388 . S
C835 C834 1.366 . S
C835 C839 1.385 . S
C836 H817 0.951 . S
C836 C834 1.388 . S
C836 C837 1.366 . S
C837 C836 1.366 . S
C837 C838 1.414 . S
C837 C840 1.499 . S
C838 H818 0.950 . S
C838 C837 1.414 . S
C838 C839 1.374 . S
C839 H819 0.950 . S
C839 C835 1.385 . S
C839 C838 1.374 . S
C840 C837 1.499 . S
C840 C841 1.373 . S
C840 C842 1.389 . S
C841 H820 0.950 . S
C841 C840 1.373 . S
C841 C857 1.377 . S
C842 C840 1.389 . S
C842 C843 1.553 . S
C842 C856 1.377 . S
C843 C842 1.553 . S
C843 C844 1.387 1_554 S
C843 C848 1.345 1_554 S
C844 H821 0.950 1_556 S
C844 C843 1.387 1_556 S
C844 C845 1.334 . S
C845 H822 0.950 . S
C845 C844 1.334 . S
C845 C846 1.287 . S
C846 C845 1.287 . S
C846 C847 1.524 . S
C846 H865 0.913 . S
C847 H823 0.950 . S
C847 C846 1.524 . S
C847 C848 1.415 . S
C848 H824 0.950 . S
C848 C843 1.345 1_556 S
C848 C847 1.415 . S
C849 H825 0.951 . S
C849 C850 1.366 . S
C849 C851 1.388 . S
C850 C849 1.366 . S
C850 C854 1.385 . S
C851 H826 0.951 . S
C851 C849 1.388 . S
C851 C852 1.366 . S
C852 C851 1.366 . S
C852 C853 1.414 . S
C852 C855 1.499 . S
C853 H827 0.950 . S
C853 C852 1.414 . S
C853 C854 1.374 . S
C854 H828 0.950 . S
C854 C850 1.385 . S
C854 C853 1.374 . S
C855 C852 1.499 . S
C855 C856 1.373 . S
C855 C857 1.389 . S
C856 H829 0.950 . S
C856 C842 1.377 . S
C856 C855 1.373 . S
C857 C841 1.377 . S
C857 C855 1.389 . S
C857 C858 1.524 . S
C858 C857 1.524 . S
C858 C859 1.397 . S
C858 C863 1.363 . S
C859 H830 0.950 . S
C859 C858 1.397 . S
C859 C860 1.334 . S
C860 H831 0.950 . S
C860 C859 1.334 . S
C860 C861 1.287 . S
C861 C860 1.287 . S
C861 C862 1.524 . S
C861 H864 0.999 . S
C862 H832 0.950 . S
C862 C861 1.524 . S
C862 C863 1.415 . S
C863 H833 0.950 . S
C863 C858 1.363 . S
C863 C862 1.415 . S
H864 C861 0.999 . S
H865 C846 0.913 . S
H866 C884 0.951 . S
H867 C886 0.951 . S
H868 C888 0.950 . S
H869 C889 0.950 . S
H870 C891 0.950 . S
H871 C894 0.950 . S
H872 C895 0.950 . S
H873 C897 0.950 . S
H874 C898 0.950 . S
H875 C899 0.951 . S
H876 C901 0.951 . S
H877 C903 0.950 . S
H878 C904 0.950 . S
H879 C906 0.950 . S
H880 C909 0.950 . S
H881 C910 0.950 . S
H882 C912 0.950 . S
H883 C913 0.950 . S
C884 H866 0.951 . S
C884 C885 1.366 . S
C884 C886 1.388 . S
C885 C884 1.366 . S
C885 C889 1.385 . S
C886 H867 0.951 . S
C886 C884 1.388 . S
C886 C887 1.366 . S
C887 C886 1.366 . S
C887 C888 1.414 . S
C887 C890 1.499 . S
C888 H868 0.950 . S
C888 C887 1.414 . S
C888 C889 1.374 . S
C889 H869 0.950 . S
C889 C885 1.385 . S
C889 C888 1.374 . S
C890 C887 1.499 . S
C890 C891 1.373 . S
C890 C892 1.389 . S
C891 H870 0.950 . S
C891 C890 1.373 . S
C891 C907 1.377 . S
C892 C890 1.389 . S
C892 C893 1.524 . S
C892 C906 1.377 . S
C893 C892 1.524 . S
C893 C894 1.397 . S
C893 C898 1.363 . S
C894 H871 0.950 . S
C894 C893 1.397 . S
C894 C895 1.334 . S
C895 H872 0.950 . S
C895 C894 1.334 . S
C895 C896 1.287 . S
C896 C895 1.287 . S
C896 C897 1.524 . S
C896 H915 0.913 . S
C897 H873 0.950 . S
C897 C896 1.524 . S
C897 C898 1.415 . S
C898 H874 0.950 . S
C898 C893 1.363 . S
C898 C897 1.415 . S
C899 H875 0.951 . S
C899 C900 1.366 . S
C899 C901 1.388 . S
C900 C899 1.366 . S
C900 C904 1.385 . S
C901 H876 0.951 . S
C901 C899 1.388 . S
C901 C902 1.366 . S
C902 C901 1.366 . S
C902 C903 1.414 . S
C902 C905 1.499 . S
C903 H877 0.950 . S
C903 C902 1.414 . S
C903 C904 1.374 . S
C904 H878 0.950 . S
C904 C900 1.385 . S
C904 C903 1.374 . S
C905 C902 1.499 . S
C905 C906 1.373 . S
C905 C907 1.389 . S
C906 H879 0.950 . S
C906 C892 1.377 . S
C906 C905 1.373 . S
C907 C891 1.377 . S
C907 C905 1.389 . S
C907 C908 1.524 . S
C908 C907 1.524 . S
C908 C909 1.397 . S
C908 C913 1.363 . S
C909 H880 0.950 . S
C909 C908 1.397 . S
C909 C910 1.334 . S
C910 H881 0.950 . S
C910 C909 1.334 . S
C910 C911 1.287 . S
C911 C910 1.287 . S
C911 C912 1.524 . S
C911 H914 0.999 . S
C912 H882 0.950 . S
C912 C911 1.524 . S
C912 C913 1.415 . S
C913 H883 0.950 . S
C913 C908 1.363 . S
C913 C912 1.415 . S
H914 C911 0.999 . S
H915 C896 0.913 . S
H916 C934 0.951 . S
H917 C936 0.951 . S
H918 C938 0.950 . S
H919 C939 0.950 . S
H920 C941 0.950 . S
H921 C944 0.950 . S
H922 C945 0.950 . S
H923 C947 0.950 . S
H924 C948 0.950 . S
H925 C949 0.951 . S
H926 C951 0.951 . S
H927 C953 0.950 . S
H928 C954 0.950 . S
H929 C956 0.950 . S
H930 C959 0.950 . S
H931 C960 0.950 . S
H932 C962 0.950 . S
H933 C963 0.950 . S
C934 H916 0.951 . S
C934 C935 1.366 . S
C934 C936 1.388 . S
C935 C934 1.366 . S
C935 C939 1.385 . S
C936 H917 0.951 . S
C936 C934 1.388 . S
C936 C937 1.366 . S
C937 C936 1.366 . S
C937 C938 1.414 . S
C937 C940 1.499 . S
C938 H918 0.950 . S
C938 C937 1.414 . S
C938 C939 1.374 . S
C939 H919 0.950 . S
C939 C935 1.385 . S
C939 C938 1.374 . S
C940 C937 1.499 . S
C940 C941 1.373 . S
C940 C942 1.389 . S
C941 H920 0.950 . S
C941 C940 1.373 . S
C941 C957 1.377 . S
C942 C940 1.389 . S
C942 C943 1.524 . S
C942 C956 1.377 . S
C943 C942 1.524 . S
C943 C944 1.397 . S
C943 C948 1.363 . S
C944 H921 0.950 . S
C944 C943 1.397 . S
C944 C945 1.334 . S
C945 H922 0.950 . S
C945 C944 1.334 . S
C945 C946 1.287 . S
C946 C945 1.287 . S
C946 C947 1.524 . S
C946 H965 0.913 . S
C947 H923 0.950 . S
C947 C946 1.524 . S
C947 C948 1.415 . S
C948 H924 0.950 . S
C948 C943 1.363 . S
C948 C947 1.415 . S
C949 H925 0.951 . S
C949 C950 1.366 . S
C949 C951 1.388 . S
C950 C949 1.366 . S
C950 C954 1.385 . S
C951 H926 0.951 . S
C951 C949 1.388 . S
C951 C952 1.366 . S
C952 C951 1.366 . S
C952 C953 1.414 . S
C952 C955 1.499 . S
C953 H927 0.950 . S
C953 C952 1.414 . S
C953 C954 1.374 . S
C954 H928 0.950 . S
C954 C950 1.385 . S
C954 C953 1.374 . S
C955 C952 1.499 . S
C955 C956 1.373 . S
C955 C957 1.389 . S
C956 H929 0.950 . S
C956 C942 1.377 . S
C956 C955 1.373 . S
C957 C941 1.377 . S
C957 C955 1.389 . S
C957 C958 1.524 . S
C958 C957 1.524 . S
C958 C959 1.397 . S
C958 C963 1.363 . S
C959 H930 0.950 . S
C959 C958 1.397 . S
C959 C960 1.334 . S
C960 H931 0.950 . S
C960 C959 1.334 . S
C960 C961 1.287 . S
C961 C960 1.287 . S
C961 C962 1.524 . S
C961 H964 0.999 . S
C962 H932 0.950 . S
C962 C961 1.524 . S
C962 C963 1.415 . S
C963 H933 0.950 . S
C963 C958 1.363 . S
C963 C962 1.415 . S
H964 C961 0.999 . S
H965 C946 0.913 . S
H966 C984 0.951 . S
H967 C986 0.951 . S
H968 C988 0.950 . S
H969 C989 0.950 . S
H970 C991 0.950 . S
H971 C994 0.950 . S
H972 C995 0.950 . S
H973 C997 0.950 . S
H974 C998 0.950 . S
H975 C999 0.951 . S
H976 C1001 0.951 . S
H977 C1003 0.950 . S
H978 C1004 0.950 . S
H979 C1006 0.950 . S
H980 C1009 0.950 . S
H981 C1010 0.950 . S
H982 C1012 0.950 . S
H983 C1013 0.950 . S
C984 H966 0.951 . S
C984 C985 1.366 . S
C984 C986 1.388 . S
C985 C984 1.366 . S
C985 C989 1.385 . S
C986 H967 0.951 . S
C986 C984 1.388 . S
C986 C987 1.366 . S
C987 C986 1.366 . S
C987 C988 1.414 . S
C987 C990 1.499 . S
C988 H968 0.950 . S
C988 C987 1.414 . S
C988 C989 1.374 . S
C989 H969 0.950 . S
C989 C985 1.385 . S
C989 C988 1.374 . S
C990 C987 1.499 . S
C990 C991 1.373 . S
C990 C992 1.389 . S
C991 H970 0.950 . S
C991 C990 1.373 . S
C991 C1007 1.377 . S
C992 C990 1.389 . S
C992 C993 1.524 . S
C992 C1006 1.377 . S
C993 C992 1.524 . S
C993 C994 1.397 . S
C993 C998 1.363 . S
C994 H971 0.950 . S
C994 C993 1.397 . S
C994 C995 1.334 . S
C995 H972 0.950 . S
C995 C994 1.334 . S
C995 C996 1.287 . S
C996 C995 1.287 . S
C996 C997 1.524 . S
C996 H1015 0.913 . S
C997 H973 0.950 . S
C997 C996 1.524 . S
C997 C998 1.415 . S
C998 H974 0.950 . S
C998 C993 1.363 . S
C998 C997 1.415 . S
C999 H975 0.951 . S
C999 C1000 1.366 . S
C999 C1001 1.388 . S
C1000 C999 1.366 . S
C1000 C1004 1.385 . S
C1001 H976 0.951 . S
C1001 C999 1.388 . S
C1001 C1002 1.366 . S
C1002 C1001 1.366 . S
C1002 C1003 1.414 . S
C1002 C1005 1.499 . S
C1003 H977 0.950 . S
C1003 C1002 1.414 . S
C1003 C1004 1.374 . S
C1004 H978 0.950 . S
C1004 C1000 1.385 . S
C1004 C1003 1.374 . S
C1005 C1002 1.499 . S
C1005 C1006 1.373 . S
C1005 C1007 1.389 . S
C1006 H979 0.950 . S
C1006 C992 1.377 . S
C1006 C1005 1.373 . S
C1007 C991 1.377 . S
C1007 C1005 1.389 . S
C1007 C1008 1.524 . S
C1008 C1007 1.524 . S
C1008 C1009 1.397 . S
C1008 C1013 1.363 . S
C1009 H980 0.950 . S
C1009 C1008 1.397 . S
C1009 C1010 1.334 . S
C1010 H981 0.950 . S
C1010 C1009 1.334 . S
C1010 C1011 1.287 . S
C1011 C1010 1.287 . S
C1011 C1012 1.524 . S
C1011 H1014 0.999 . S
C1012 H982 0.950 . S
C1012 C1011 1.524 . S
C1012 C1013 1.415 . S
C1013 H983 0.950 . S
C1013 C1008 1.363 . S
C1013 C1012 1.415 . S
H1014 C1011 0.999 . S
H1015 C996 0.913 . S
H1016 C1034 0.951 . S
H1017 C1036 0.951 . S
H1018 C1038 0.950 . S
H1019 C1039 0.950 . S
H1020 C1041 0.950 . S
H1021 C1044 0.950 . S
H1022 C1045 0.950 . S
H1023 C1047 0.950 . S
H1024 C1048 0.950 . S
H1025 C1049 0.951 . S
H1026 C1051 0.951 . S
H1027 C1053 0.950 . S
H1028 C1054 0.950 . S
H1029 C1056 0.950 . S
H1030 C1059 0.950 . S
H1031 C1060 0.950 . S
H1032 C1062 0.950 . S
H1033 C1063 0.950 . S
C1034 H1016 0.951 . S
C1034 C1035 1.366 . S
C1034 C1036 1.388 . S
C1035 C1034 1.366 . S
C1035 C1039 1.385 . S
C1036 H1017 0.951 . S
C1036 C1034 1.388 . S
C1036 C1037 1.366 . S
C1037 C1036 1.366 . S
C1037 C1038 1.414 . S
C1037 C1040 1.499 . S
C1038 H1018 0.950 . S
C1038 C1037 1.414 . S
C1038 C1039 1.374 . S
C1039 H1019 0.950 . S
C1039 C1035 1.385 . S
C1039 C1038 1.374 . S
C1040 C1037 1.499 . S
C1040 C1041 1.373 . S
C1040 C1042 1.389 . S
C1041 H1020 0.950 . S
C1041 C1040 1.373 . S
C1041 C1057 1.377 . S
C1042 C1040 1.389 . S
C1042 C1043 1.524 . S
C1042 C1056 1.377 . S
C1043 C1042 1.524 . S
C1043 C1044 1.397 . S
C1043 C1048 1.363 . S
C1044 H1021 0.950 . S
C1044 C1043 1.397 . S
C1044 C1045 1.334 . S
C1045 H1022 0.950 . S
C1045 C1044 1.334 . S
C1045 C1046 1.287 . S
C1046 C1045 1.287 . S
C1046 C1047 1.524 . S
C1046 H1065 0.913 . S
C1047 H1023 0.950 . S
C1047 C1046 1.524 . S
C1047 C1048 1.415 . S
C1048 H1024 0.950 . S
C1048 C1043 1.363 . S
C1048 C1047 1.415 . S
C1049 H1025 0.951 . S
C1049 C1050 1.366 . S
C1049 C1051 1.388 . S
C1050 C1049 1.366 . S
C1050 C1054 1.385 . S
C1051 H1026 0.951 . S
C1051 C1049 1.388 . S
C1051 C1052 1.366 . S
C1052 C1051 1.366 . S
C1052 C1053 1.414 . S
C1052 C1055 1.499 . S
C1053 H1027 0.950 . S
C1053 C1052 1.414 . S
C1053 C1054 1.374 . S
C1054 H1028 0.950 . S
C1054 C1050 1.385 . S
C1054 C1053 1.374 . S
C1055 C1052 1.499 . S
C1055 C1056 1.373 . S
C1055 C1057 1.389 . S
C1056 H1029 0.950 . S
C1056 C1042 1.377 . S
C1056 C1055 1.373 . S
C1057 C1041 1.377 . S
C1057 C1055 1.389 . S
C1057 C1058 1.524 . S
C1058 C1057 1.524 . S
C1058 C1059 1.397 . S
C1058 C1063 1.363 . S
C1059 H1030 0.950 . S
C1059 C1058 1.397 . S
C1059 C1060 1.334 . S
C1060 H1031 0.950 . S
C1060 C1059 1.334 . S
C1060 C1061 1.287 . S
C1061 C1060 1.287 . S
C1061 C1062 1.524 . S
C1061 H1064 0.999 . S
C1062 H1032 0.950 . S
C1062 C1061 1.524 . S
C1062 C1063 1.415 . S
C1063 H1033 0.950 . S
C1063 C1058 1.363 . S
C1063 C1062 1.415 . S
H1064 C1061 0.999 . S
H1065 C1046 0.913 . S
H1066 C1084 0.951 . S
H1067 C1086 0.951 . S
H1068 C1088 0.950 . S
H1069 C1089 0.950 . S
H1070 C1091 0.950 . S
H1071 C1094 0.950 . S
H1072 C1095 0.950 . S
H1073 C1097 0.950 . S
H1074 C1098 0.950 . S
H1075 C1099 0.951 . S
H1076 C1101 0.951 . S
H1077 C1103 0.950 . S
H1078 C1104 0.950 . S
H1079 C1106 0.950 . S
H1080 C1109 0.950 . S
H1081 C1110 0.950 . S
H1082 C1112 0.950 . S
H1083 C1113 0.950 . S
C1084 H1066 0.951 . S
C1084 C1085 1.366 . S
C1084 C1086 1.388 . S
C1085 C1084 1.366 . S
C1085 C1089 1.385 . S
C1086 H1067 0.951 . S
C1086 C1084 1.388 . S
C1086 C1087 1.366 . S
C1087 C1086 1.366 . S
C1087 C1088 1.414 . S
C1087 C1090 1.499 . S
C1088 H1068 0.950 . S
C1088 C1087 1.414 . S
C1088 C1089 1.374 . S
C1089 H1069 0.950 . S
C1089 C1085 1.385 . S
C1089 C1088 1.374 . S
C1090 C1087 1.499 . S
C1090 C1091 1.373 . S
C1090 C1092 1.389 . S
C1091 H1070 0.950 . S
C1091 C1090 1.373 . S
C1091 C1107 1.377 . S
C1092 C1090 1.389 . S
C1092 C1093 1.524 . S
C1092 C1106 1.377 . S
C1093 C1092 1.524 . S
C1093 C1094 1.397 . S
C1093 C1098 1.363 . S
C1094 H1071 0.950 . S
C1094 C1093 1.397 . S
C1094 C1095 1.334 . S
C1095 H1072 0.950 . S
C1095 C1094 1.334 . S
C1095 C1096 1.287 . S
C1096 C1095 1.287 . S
C1096 C1097 1.524 . S
C1096 H1115 0.913 . S
C1097 H1073 0.950 . S
C1097 C1096 1.524 . S
C1097 C1098 1.415 . S
C1098 H1074 0.950 . S
C1098 C1093 1.363 . S
C1098 C1097 1.415 . S
C1099 H1075 0.951 . S
C1099 C1100 1.366 . S
C1099 C1101 1.388 . S
C1100 C1099 1.366 . S
C1100 C1104 1.385 . S
C1101 H1076 0.951 . S
C1101 C1099 1.388 . S
C1101 C1102 1.366 . S
C1102 C1101 1.366 . S
C1102 C1103 1.414 . S
C1102 C1105 1.499 . S
C1103 H1077 0.950 . S
C1103 C1102 1.414 . S
C1103 C1104 1.374 . S
C1104 H1078 0.950 . S
C1104 C1100 1.385 . S
C1104 C1103 1.374 . S
C1105 C1102 1.499 . S
C1105 C1106 1.373 . S
C1105 C1107 1.389 . S
C1106 H1079 0.950 . S
C1106 C1092 1.377 . S
C1106 C1105 1.373 . S
C1107 C1091 1.377 . S
C1107 C1105 1.389 . S
C1107 C1108 1.524 . S
C1108 C1107 1.524 . S
C1108 C1109 1.397 . S
C1108 C1113 1.363 . S
C1109 H1080 0.950 . S
C1109 C1108 1.397 . S
C1109 C1110 1.334 . S
C1110 H1081 0.950 . S
C1110 C1109 1.334 . S
C1110 C1111 1.287 . S
C1111 C1110 1.287 . S
C1111 C1112 1.524 . S
C1111 H1114 0.999 . S
C1112 H1082 0.950 . S
C1112 C1111 1.524 . S
C1112 C1113 1.415 . S
C1113 H1083 0.950 . S
C1113 C1108 1.363 . S
C1113 C1112 1.415 . S
H1114 C1111 0.999 . S
H1115 C1096 0.913 . S
H1116 C1134 0.951 . S
H1117 C1136 0.951 . S
H1118 C1138 0.950 . S
H1119 C1139 0.950 . S
H1120 C1141 0.950 . S
H1121 C1144 0.950 . S
H1122 C1145 0.950 . S
H1123 C1147 0.950 . S
H1124 C1148 0.950 . S
H1125 C1149 0.951 . S
H1126 C1151 0.951 . S
H1127 C1153 0.950 . S
H1128 C1154 0.950 . S
H1129 C1156 0.950 . S
H1130 C1159 0.963 . S
H1131 C1160 0.950 1_554 S
H1132 C1162 0.950 . S
H1133 C1163 0.950 . S
C1134 H1116 0.951 . S
C1134 C1135 1.366 . S
C1134 C1136 1.388 . S
C1135 C1134 1.366 . S
C1135 C1139 1.385 . S
C1136 H1117 0.951 . S
C1136 C1134 1.388 . S
C1136 C1137 1.366 . S
C1137 C1136 1.366 . S
C1137 C1138 1.414 . S
C1137 C1140 1.499 . S
C1138 H1118 0.950 . S
C1138 C1137 1.414 . S
C1138 C1139 1.374 . S
C1139 H1119 0.950 . S
C1139 C1135 1.385 . S
C1139 C1138 1.374 . S
C1140 C1137 1.499 . S
C1140 C1141 1.373 . S
C1140 C1142 1.389 . S
C1141 H1120 0.950 . S
C1141 C1140 1.373 . S
C1141 C1157 1.377 . S
C1142 C1140 1.389 . S
C1142 C1143 1.524 . S
C1142 C1156 1.377 . S
C1143 C1142 1.524 . S
C1143 C1144 1.397 . S
C1143 C1148 1.363 . S
C1144 H1121 0.950 . S
C1144 C1143 1.397 . S
C1144 C1145 1.334 . S
C1145 H1122 0.950 . S
C1145 C1144 1.334 . S
C1145 C1146 1.287 . S
C1146 C1145 1.287 . S
C1146 C1147 1.524 . S
C1146 H1165 0.913 . S
C1147 H1123 0.950 . S
C1147 C1146 1.524 . S
C1147 C1148 1.415 . S
C1148 H1124 0.950 . S
C1148 C1143 1.363 . S
C1148 C1147 1.415 . S
C1149 H1125 0.951 . S
C1149 C1150 1.366 . S
C1149 C1151 1.388 1_554 S
C1150 C1149 1.366 . S
C1150 C1154 1.385 . S
C1151 H1126 0.951 . S
C1151 C1149 1.388 1_556 S
C1151 C1152 1.363 1_556 S
C1152 C1151 1.363 1_554 S
C1152 C1153 1.435 . S
C1152 C1155 1.481 1_554 S
C1153 H1127 0.950 . S
C1153 C1152 1.435 . S
C1153 C1154 1.374 . S
C1154 H1128 0.950 . S
C1154 C1150 1.385 . S
C1154 C1153 1.374 . S
C1155 C1152 1.481 1_556 S
C1155 C1156 1.373 . S
C1155 C1157 1.389 . S
C1156 H1129 0.950 . S
C1156 C1142 1.377 . S
C1156 C1155 1.373 . S
C1157 C1141 1.377 . S
C1157 C1155 1.389 . S
C1157 C1158 1.524 . S
C1158 C1157 1.524 . S
C1158 C1159 1.397 . S
C1158 C1163 1.363 . S
C1159 H1130 0.963 . S
C1159 C1158 1.397 . S
C1159 C1160 1.334 . S
C1160 H1131 0.950 1_556 S
C1160 C1159 1.334 . S
C1160 C1161 1.287 . S
C1161 C1160 1.287 . S
C1161 C1162 1.524 . S
C1161 H1164 0.999 . S
C1162 H1132 0.950 . S
C1162 C1161 1.524 . S
C1162 C1163 1.415 . S
C1163 H1133 0.950 . S
C1163 C1158 1.363 . S
C1163 C1162 1.415 . S
H1164 C1161 0.999 . S
H1165 C1146 0.913 . S
H1166 C1184 0.951 . S
H1167 C1186 0.951 . S
H1168 C1188 0.950 . S
H1169 C1189 0.950 . S
H1170 C1191 0.950 . S
H1171 C1194 0.950 . S
H1172 C1195 0.950 . S
H1173 C1197 0.950 . S
H1174 C1198 0.950 . S
H1175 C1199 0.951 . S
H1176 C1201 0.951 . S
H1177 C1203 0.950 . S
H1178 C1204 0.950 . S
H1179 C1206 0.950 . S
H1180 C1209 0.950 . S
H1181 C1210 0.950 . S
H1182 C1212 0.950 . S
H1183 C1213 0.950 . S
C1184 H1166 0.951 . S
C1184 C1185 1.366 . S
C1184 C1186 1.388 . S
C1185 C1184 1.366 . S
C1185 C1189 1.385 . S
C1186 H1167 0.951 . S
C1186 C1184 1.388 . S
C1186 C1187 1.366 . S
C1187 C1186 1.366 . S
C1187 C1188 1.414 . S
C1187 C1190 1.499 . S
C1188 H1168 0.950 . S
C1188 C1187 1.414 . S
C1188 C1189 1.374 . S
C1189 H1169 0.950 . S
C1189 C1185 1.385 . S
C1189 C1188 1.374 . S
C1190 C1187 1.499 . S
C1190 C1191 1.373 . S
C1190 C1192 1.389 . S
C1191 H1170 0.950 . S
C1191 C1190 1.373 . S
C1191 C1207 1.377 . S
C1192 C1190 1.389 . S
C1192 C1193 1.524 . S
C1192 C1206 1.377 . S
C1193 C1192 1.524 . S
C1193 C1194 1.397 . S
C1193 C1198 1.363 . S
C1194 H1171 0.950 . S
C1194 C1193 1.397 . S
C1194 C1195 1.334 . S
C1195 H1172 0.950 . S
C1195 C1194 1.334 . S
C1195 C1196 1.287 . S
C1196 C1195 1.287 . S
C1196 C1197 1.524 . S
C1196 H1215 0.913 . S
C1197 H1173 0.950 . S
C1197 C1196 1.524 . S
C1197 C1198 1.415 . S
C1198 H1174 0.950 . S
C1198 C1193 1.363 . S
C1198 C1197 1.415 . S
C1199 H1175 0.951 . S
C1199 C1200 1.366 . S
C1199 C1201 1.388 . S
C1200 C1199 1.366 . S
C1200 C1204 1.385 . S
C1201 H1176 0.951 . S
C1201 C1199 1.388 . S
C1201 C1202 1.366 . S
C1202 C1201 1.366 . S
C1202 C1203 1.414 . S
C1202 C1205 1.499 . S
C1203 H1177 0.950 . S
C1203 C1202 1.414 . S
C1203 C1204 1.374 . S
C1204 H1178 0.950 . S
C1204 C1200 1.385 . S
C1204 C1203 1.374 . S
C1205 C1202 1.499 . S
C1205 C1206 1.373 . S
C1205 C1207 1.389 . S
C1206 H1179 0.950 . S
C1206 C1192 1.377 . S
C1206 C1205 1.373 . S
C1207 C1191 1.377 . S
C1207 C1205 1.389 . S
C1207 C1208 1.524 . S
C1208 C1207 1.524 . S
C1208 C1209 1.397 . S
C1208 C1213 1.363 . S
C1209 H1180 0.950 . S
C1209 C1208 1.397 . S
C1209 C1210 1.334 . S
C1210 H1181 0.950 . S
C1210 C1209 1.334 . S
C1210 C1211 1.287 . S
C1211 C1210 1.287 . S
C1211 C1212 1.524 . S
C1211 H1214 0.999 . S
C1212 H1182 0.950 . S
C1212 C1211 1.524 . S
C1212 C1213 1.415 . S
C1213 H1183 0.950 . S
C1213 C1208 1.363 . S
C1213 C1212 1.415 . S
H1214 C1211 0.999 . S
H1215 C1196 0.913 . S
H1216 C1234 0.951 . S
H1217 C1236 0.951 . S
H1218 C1238 0.950 . S
H1219 C1239 0.950 . S
H1220 C1241 0.950 . S
H1221 C1244 0.950 . S
H1222 C1245 0.950 . S
H1223 C1247 0.950 . S
H1224 C1248 0.950 . S
H1225 C1249 0.951 . S
H1226 C1251 0.951 . S
H1227 C1253 0.950 . S
H1228 C1254 0.950 . S
H1229 C1256 0.950 . S
H1230 C1259 0.950 . S
H1231 C1260 0.950 . S
H1232 C1262 0.950 . S
H1233 C1263 0.950 . S
C1234 H1216 0.951 . S
C1234 C1235 1.366 . S
C1234 C1236 1.388 . S
C1235 C1234 1.366 . S
C1235 C1239 1.385 . S
C1236 H1217 0.951 . S
C1236 C1234 1.388 . S
C1236 C1237 1.366 . S
C1237 C1236 1.366 . S
C1237 C1238 1.414 . S
C1237 C1240 1.499 . S
C1238 H1218 0.950 . S
C1238 C1237 1.414 . S
C1238 C1239 1.374 . S
C1239 H1219 0.950 . S
C1239 C1235 1.385 . S
C1239 C1238 1.374 . S
C1240 C1237 1.499 . S
C1240 C1241 1.373 . S
C1240 C1242 1.389 . S
C1241 H1220 0.950 . S
C1241 C1240 1.373 . S
C1241 C1257 1.377 . S
C1242 C1240 1.389 . S
C1242 C1243 1.524 . S
C1242 C1256 1.377 . S
C1243 C1242 1.524 . S
C1243 C1244 1.397 . S
C1243 C1248 1.363 . S
C1244 H1221 0.950 . S
C1244 C1243 1.397 . S
C1244 C1245 1.334 . S
C1245 H1222 0.950 . S
C1245 C1244 1.334 . S
C1245 C1246 1.287 . S
C1246 C1245 1.287 . S
C1246 C1247 1.524 . S
C1246 H1265 0.913 . S
C1247 H1223 0.950 . S
C1247 C1246 1.524 . S
C1247 C1248 1.415 . S
C1248 H1224 0.950 . S
C1248 C1243 1.363 . S
C1248 C1247 1.415 . S
C1249 H1225 0.951 . S
C1249 C1250 1.366 . S
C1249 C1251 1.388 . S
C1250 C1249 1.366 . S
C1250 C1254 1.385 . S
C1251 H1226 0.951 . S
C1251 C1249 1.388 . S
C1251 C1252 1.366 . S
C1252 C1251 1.366 . S
C1252 C1253 1.414 . S
C1252 C1255 1.499 . S
C1253 H1227 0.950 . S
C1253 C1252 1.414 . S
C1253 C1254 1.374 . S
C1254 H1228 0.950 . S
C1254 C1250 1.385 . S
C1254 C1253 1.374 . S
C1255 C1252 1.499 . S
C1255 C1256 1.373 . S
C1255 C1257 1.389 . S
C1256 H1229 0.950 . S
C1256 C1242 1.377 . S
C1256 C1255 1.373 . S
C1257 C1241 1.377 . S
C1257 C1255 1.389 . S
C1257 C1258 1.524 . S
C1258 C1257 1.524 . S
C1258 C1259 1.397 . S
C1258 C1263 1.363 . S
C1259 H1230 0.950 . S
C1259 C1258 1.397 . S
C1259 C1260 1.334 . S
C1260 H1231 0.950 . S
C1260 C1259 1.334 . S
C1260 C1261 1.287 . S
C1261 C1260 1.287 . S
C1261 C1262 1.524 . S
C1261 H1264 0.999 . S
C1262 H1232 0.950 . S
C1262 C1261 1.524 . S
C1262 C1263 1.415 . S
C1263 H1233 0.950 . S
C1263 C1258 1.363 . S
C1263 C1262 1.415 . S
H1264 C1261 0.999 . S
H1265 C1246 0.913 . S
H1266 C1284 0.951 . S
H1267 C1286 0.951 . S
H1268 C1288 0.950 . S
H1269 C1289 0.950 . S
H1270 C1291 0.950 . S
H1271 C1294 0.950 . S
H1272 C1295 0.950 . S
H1273 C1297 0.950 . S
H1274 C1298 0.950 . S
H1275 C1299 0.951 . S
H1276 C1301 0.951 . S
H1277 C1303 0.950 . S
H1278 C1304 0.950 . S
H1279 C1306 0.950 . S
H1280 C1309 0.950 . S
H1281 C1310 0.950 . S
H1282 C1312 0.950 . S
H1283 C1313 0.950 . S
C1284 H1266 0.951 . S
C1284 C1285 1.366 . S
C1284 C1286 1.388 . S
C1285 C1284 1.366 . S
C1285 C1289 1.385 . S
C1286 H1267 0.951 . S
C1286 C1284 1.388 . S
C1286 C1287 1.366 . S
C1287 C1286 1.366 . S
C1287 C1288 1.414 . S
C1287 C1290 1.499 . S
C1288 H1268 0.950 . S
C1288 C1287 1.414 . S
C1288 C1289 1.374 . S
C1289 H1269 0.950 . S
C1289 C1285 1.385 . S
C1289 C1288 1.374 . S
C1290 C1287 1.499 . S
C1290 C1291 1.373 . S
C1290 C1292 1.389 . S
C1291 H1270 0.950 . S
C1291 C1290 1.373 . S
C1291 C1307 1.377 . S
C1292 C1290 1.389 . S
C1292 C1293 1.524 . S
C1292 C1306 1.377 . S
C1293 C1292 1.524 . S
C1293 C1294 1.397 . S
C1293 C1298 1.363 . S
C1294 H1271 0.950 . S
C1294 C1293 1.397 . S
C1294 C1295 1.334 . S
C1295 H1272 0.950 . S
C1295 C1294 1.334 . S
C1295 C1296 1.287 . S
C1296 C1295 1.287 . S
C1296 C1297 1.524 . S
C1296 H1315 0.913 . S
C1297 H1273 0.950 . S
C1297 C1296 1.524 . S
C1297 C1298 1.415 . S
C1298 H1274 0.950 . S
C1298 C1293 1.363 . S
C1298 C1297 1.415 . S
C1299 H1275 0.951 . S
C1299 C1300 1.366 . S
C1299 C1301 1.388 . S
C1300 C1299 1.366 . S
C1300 C1304 1.385 . S
C1301 H1276 0.951 . S
C1301 C1299 1.388 . S
C1301 C1302 1.366 . S
C1302 C1301 1.366 . S
C1302 C1303 1.414 . S
C1302 C1305 1.499 . S
C1303 H1277 0.950 . S
C1303 C1302 1.414 . S
C1303 C1304 1.374 . S
C1304 H1278 0.950 . S
C1304 C1300 1.385 . S
C1304 C1303 1.374 . S
C1305 C1302 1.499 . S
C1305 C1306 1.373 . S
C1305 C1307 1.389 . S
C1306 H1279 0.950 . S
C1306 C1292 1.377 . S
C1306 C1305 1.373 . S
C1307 C1291 1.377 . S
C1307 C1305 1.389 . S
C1307 C1308 1.524 . S
C1308 C1307 1.524 . S
C1308 C1309 1.397 . S
C1308 C1313 1.363 . S
C1309 H1280 0.950 . S
C1309 C1308 1.397 . S
C1309 C1310 1.334 . S
C1310 H1281 0.950 . S
C1310 C1309 1.334 . S
C1310 C1311 1.287 . S
C1311 C1310 1.287 . S
C1311 C1312 1.524 . S
C1311 H1314 0.999 . S
C1312 H1282 0.950 . S
C1312 C1311 1.524 . S
C1312 C1313 1.415 . S
C1313 H1283 0.950 . S
C1313 C1308 1.363 . S
C1313 C1312 1.415 . S
H1314 C1311 0.999 . S
H1315 C1296 0.913 . S
H1316 C1334 0.951 . S
H1317 C1336 0.951 . S
H1318 C1338 0.950 . S
H1319 C1339 0.950 . S
H1320 C1341 0.950 . S
H1321 C1344 0.950 . S
H1322 C1345 0.950 . S
H1323 C1347 0.950 . S
H1324 C1348 0.950 . S
H1325 C1349 0.951 . S
H1326 C1351 0.951 . S
H1327 C1353 0.950 . S
H1328 C1354 0.950 . S
H1329 C1356 0.950 . S
H1330 C1359 0.950 . S
H1331 C1360 0.950 . S
H1332 C1362 0.950 . S
H1333 C1363 0.950 . S
C1334 H1316 0.951 . S
C1334 C1335 1.366 . S
C1334 C1336 1.388 . S
C1335 C1334 1.366 . S
C1335 C1339 1.385 . S
C1336 H1317 0.951 . S
C1336 C1334 1.388 . S
C1336 C1337 1.366 . S
C1337 C1336 1.366 . S
C1337 C1338 1.414 . S
C1337 C1340 1.499 . S
C1338 H1318 0.950 . S
C1338 C1337 1.414 . S
C1338 C1339 1.374 . S
C1339 H1319 0.950 . S
C1339 C1335 1.385 . S
C1339 C1338 1.374 . S
C1340 C1337 1.499 . S
C1340 C1341 1.373 . S
C1340 C1342 1.389 . S
C1341 H1320 0.950 . S
C1341 C1340 1.373 . S
C1341 C1357 1.377 . S
C1342 C1340 1.389 . S
C1342 C1343 1.524 . S
C1342 C1356 1.377 . S
C1343 C1342 1.524 . S
C1343 C1344 1.397 . S
C1343 C1348 1.363 . S
C1344 H1321 0.950 . S
C1344 C1343 1.397 . S
C1344 C1345 1.334 . S
C1345 H1322 0.950 . S
C1345 C1344 1.334 . S
C1345 C1346 1.287 . S
C1346 C1345 1.287 . S
C1346 C1347 1.524 . S
C1346 H1365 0.913 . S
C1347 H1323 0.950 . S
C1347 C1346 1.524 . S
C1347 C1348 1.415 . S
C1348 H1324 0.950 . S
C1348 C1343 1.363 . S
C1348 C1347 1.415 . S
C1349 H1325 0.951 . S
C1349 C1350 1.366 . S
C1349 C1351 1.388 . S
C1350 C1349 1.366 . S
C1350 C1354 1.385 . S
C1351 H1326 0.951 . S
C1351 C1349 1.388 . S
C1351 C1352 1.366 . S
C1352 C1351 1.366 . S
C1352 C1353 1.414 . S
C1352 C1355 1.499 . S
C1353 H1327 0.950 . S
C1353 C1352 1.414 . S
C1353 C1354 1.374 . S
C1354 H1328 0.950 . S
C1354 C1350 1.385 . S
C1354 C1353 1.374 . S
C1355 C1352 1.499 . S
C1355 C1356 1.373 . S
C1355 C1357 1.389 . S
C1356 H1329 0.950 . S
C1356 C1342 1.377 . S
C1356 C1355 1.373 . S
C1357 C1341 1.377 . S
C1357 C1355 1.389 . S
C1357 C1358 1.524 . S
C1358 C1357 1.524 . S
C1358 C1359 1.397 . S
C1358 C1363 1.363 . S
C1359 H1330 0.950 . S
C1359 C1358 1.397 . S
C1359 C1360 1.334 . S
C1360 H1331 0.950 . S
C1360 C1359 1.334 . S
C1360 C1361 1.287 . S
C1361 C1360 1.287 . S
C1361 C1362 1.524 . S
C1361 H1364 0.999 . S
C1362 H1332 0.950 . S
C1362 C1361 1.524 . S
C1362 C1363 1.415 . S
C1363 H1333 0.950 . S
C1363 C1358 1.363 . S
C1363 C1362 1.415 . S
H1364 C1361 0.999 . S
H1365 C1346 0.913 . S
H1366 C1384 0.951 . S
H1367 C1386 0.951 . S
H1368 C1388 0.950 . S
H1369 C1389 0.950 . S
H1370 C1391 0.950 . S
H1371 C1394 0.950 . S
H1372 C1395 0.950 . S
H1373 C1397 0.950 . S
H1374 C1398 0.950 . S
H1375 C1399 0.951 . S
H1376 C1401 0.951 . S
H1377 C1403 0.950 . S
H1378 C1404 0.950 . S
H1379 C1406 0.950 . S
H1380 C1409 0.950 . S
H1381 C1410 0.950 . S
H1382 C1412 0.950 . S
H1383 C1413 0.950 . S
C1384 H1366 0.951 . S
C1384 C1385 1.366 . S
C1384 C1386 1.388 . S
C1385 C1384 1.366 . S
C1385 C1389 1.385 . S
C1386 H1367 0.951 . S
C1386 C1384 1.388 . S
C1386 C1387 1.366 . S
C1387 C1386 1.366 . S
C1387 C1388 1.414 . S
C1387 C1390 1.499 . S
C1388 H1368 0.950 . S
C1388 C1387 1.414 . S
C1388 C1389 1.374 . S
C1389 H1369 0.950 . S
C1389 C1385 1.385 . S
C1389 C1388 1.374 . S
C1390 C1387 1.499 . S
C1390 C1391 1.373 . S
C1390 C1392 1.389 . S
C1391 H1370 0.950 . S
C1391 C1390 1.373 . S
C1391 C1407 1.377 . S
C1392 C1390 1.389 . S
C1392 C1393 1.524 . S
C1392 C1406 1.377 . S
C1393 C1392 1.524 . S
C1393 C1394 1.397 . S
C1393 C1398 1.363 . S
C1394 H1371 0.950 . S
C1394 C1393 1.397 . S
C1394 C1395 1.334 . S
C1395 H1372 0.950 . S
C1395 C1394 1.334 . S
C1395 C1396 1.287 . S
C1396 C1395 1.287 . S
C1396 C1397 1.524 . S
C1396 H1415 0.913 . S
C1397 H1373 0.950 . S
C1397 C1396 1.524 . S
C1397 C1398 1.415 . S
C1398 H1374 0.950 . S
C1398 C1393 1.363 . S
C1398 C1397 1.415 . S
C1399 H1375 0.951 . S
C1399 C1400 1.366 . S
C1399 C1401 1.388 . S
C1400 C1399 1.366 . S
C1400 C1404 1.385 . S
C1401 H1376 0.951 . S
C1401 C1399 1.388 . S
C1401 C1402 1.366 . S
C1402 C1401 1.366 . S
C1402 C1403 1.414 . S
C1402 C1405 1.499 . S
C1403 H1377 0.950 . S
C1403 C1402 1.414 . S
C1403 C1404 1.374 . S
C1404 H1378 0.950 . S
C1404 C1400 1.385 . S
C1404 C1403 1.374 . S
C1405 C1402 1.499 . S
C1405 C1406 1.373 . S
C1405 C1407 1.389 . S
C1406 H1379 0.950 . S
C1406 C1392 1.377 . S
C1406 C1405 1.373 . S
C1407 C1391 1.377 . S
C1407 C1405 1.389 . S
C1407 C1408 1.524 . S
C1408 C1407 1.524 . S
C1408 C1409 1.397 . S
C1408 C1413 1.363 . S
C1409 H1380 0.950 . S
C1409 C1408 1.397 . S
C1409 C1410 1.334 . S
C1410 H1381 0.950 . S
C1410 C1409 1.334 . S
C1410 C1411 1.287 . S
C1411 C1410 1.287 . S
C1411 C1412 1.524 . S
C1411 H1414 0.999 . S
C1412 H1382 0.950 . S
C1412 C1411 1.524 . S
C1412 C1413 1.415 . S
C1413 H1383 0.950 . S
C1413 C1408 1.363 . S
C1413 C1412 1.415 . S
H1414 C1411 0.999 . S
H1415 C1396 0.913 . S
H1416 C1434 0.951 . S
H1417 C1436 0.951 . S
H1418 C1438 0.950 . S
H1419 C1439 0.950 . S
H1420 C1441 0.950 . S
H1421 C1444 0.950 . S
H1422 C1445 0.950 . S
H1423 C1447 0.950 . S
H1424 C1448 0.950 . S
H1425 C1449 0.951 . S
H1426 C1451 0.951 . S
H1427 C1453 0.950 . S
H1428 C1454 0.950 . S
H1429 C1456 0.950 . S
H1430 C1459 0.950 . S
H1431 C1460 0.950 . S
H1432 C1462 0.950 . S
H1433 C1463 0.950 . S
C1434 H1416 0.951 . S
C1434 C1435 1.366 . S
C1434 C1436 1.388 . S
C1435 C1434 1.366 . S
C1435 C1439 1.385 . S
C1436 H1417 0.951 . S
C1436 C1434 1.388 . S
C1436 C1437 1.366 . S
C1437 C1436 1.366 . S
C1437 C1438 1.414 . S
C1437 C1440 1.499 . S
C1438 H1418 0.950 . S
C1438 C1437 1.414 . S
C1438 C1439 1.374 . S
C1439 H1419 0.950 . S
C1439 C1435 1.385 . S
C1439 C1438 1.374 . S
C1440 C1437 1.499 . S
C1440 C1441 1.373 . S
C1440 C1442 1.389 . S
C1441 H1420 0.950 . S
C1441 C1440 1.373 . S
C1441 C1457 1.377 . S
C1442 C1440 1.389 . S
C1442 C1443 1.524 . S
C1442 C1456 1.377 . S
C1443 C1442 1.524 . S
C1443 C1444 1.397 . S
C1443 C1448 1.363 . S
C1444 H1421 0.950 . S
C1444 C1443 1.397 . S
C1444 C1445 1.334 . S
C1445 H1422 0.950 . S
C1445 C1444 1.334 . S
C1445 C1446 1.287 . S
C1446 C1445 1.287 . S
C1446 C1447 1.524 . S
C1446 H1465 0.913 . S
C1447 H1423 0.950 . S
C1447 C1446 1.524 . S
C1447 C1448 1.415 . S
C1448 H1424 0.950 . S
C1448 C1443 1.363 . S
C1448 C1447 1.415 . S
C1449 H1425 0.951 . S
C1449 C1450 1.366 . S
C1449 C1451 1.388 . S
C1450 C1449 1.366 . S
C1450 C1454 1.385 . S
C1451 H1426 0.951 . S
C1451 C1449 1.388 . S
C1451 C1452 1.366 . S
C1452 C1451 1.366 . S
C1452 C1453 1.414 . S
C1452 C1455 1.499 . S
C1453 H1427 0.950 . S
C1453 C1452 1.414 . S
C1453 C1454 1.374 . S
C1454 H1428 0.950 . S
C1454 C1450 1.385 . S
C1454 C1453 1.374 . S
C1455 C1452 1.499 . S
C1455 C1456 1.373 . S
C1455 C1457 1.389 . S
C1456 H1429 0.950 . S
C1456 C1442 1.377 . S
C1456 C1455 1.373 . S
C1457 C1441 1.377 . S
C1457 C1455 1.389 . S
C1457 C1458 1.524 . S
C1458 C1457 1.524 . S
C1458 C1459 1.397 . S
C1458 C1463 1.363 . S
C1459 H1430 0.950 . S
C1459 C1458 1.397 . S
C1459 C1460 1.334 . S
C1460 H1431 0.950 . S
C1460 C1459 1.334 . S
C1460 C1461 1.287 . S
C1461 C1460 1.287 . S
C1461 C1462 1.524 . S
C1461 H1464 0.999 . S
C1462 H1432 0.950 . S
C1462 C1461 1.524 . S
C1462 C1463 1.415 . S
C1463 H1433 0.950 . S
C1463 C1458 1.363 . S
C1463 C1462 1.415 . S
H1464 C1461 0.999 . S
H1465 C1446 0.913 . S
H1466 C1484 0.951 . S
H1467 C1486 0.951 . S
H1468 C1488 0.950 . S
H1469 C1489 0.950 . S
H1470 C1491 0.950 . S
H1471 C1494 0.950 . S
H1472 C1495 0.950 . S
H1473 C1497 0.950 . S
H1474 C1498 0.950 . S
H1475 C1499 0.951 . S
H1476 C1501 0.951 . S
H1477 C1503 0.943 1_554 S
H1478 C1504 0.950 . S
H1479 C1506 0.950 . S
H1480 C1509 0.950 1_554 S
H1481 C1510 0.950 . S
H1482 C1512 0.950 . S
H1483 C1513 0.950 . S
C1484 H1466 0.951 . S
C1484 C1485 1.366 . S
C1484 C1486 1.388 . S
C1485 C1484 1.366 . S
C1485 C1489 1.385 . S
C1486 H1467 0.951 . S
C1486 C1484 1.388 . S
C1486 C1487 1.366 . S
C1487 C1486 1.366 . S
C1487 C1488 1.414 . S
C1487 C1490 1.499 . S
C1488 H1468 0.950 . S
C1488 C1487 1.414 . S
C1488 C1489 1.374 . S
C1489 H1469 0.950 . S
C1489 C1485 1.385 . S
C1489 C1488 1.374 . S
C1490 C1487 1.499 . S
C1490 C1491 1.373 . S
C1490 C1492 1.389 . S
C1491 H1470 0.950 . S
C1491 C1490 1.373 . S
C1491 C1507 1.377 . S
C1492 C1490 1.389 . S
C1492 C1493 1.524 . S
C1492 C1506 1.377 . S
C1493 C1492 1.524 . S
C1493 C1494 1.397 . S
C1493 C1498 1.363 . S
C1494 H1471 0.950 . S
C1494 C1493 1.397 . S
C1494 C1495 1.334 . S
C1495 H1472 0.950 . S
C1495 C1494 1.334 . S
C1495 C1496 1.287 . S
C1496 C1495 1.287 . S
C1496 C1497 1.524 . S
C1496 H1515 0.913 . S
C1497 H1473 0.950 . S
C1497 C1496 1.524 . S
C1497 C1498 1.415 . S
C1498 H1474 0.950 . S
C1498 C1493 1.363 . S
C1498 C1497 1.415 . S
C1499 H1475 0.951 . S
C1499 C1500 1.366 . S
C1499 C1501 1.388 . S
C1500 C1499 1.366 . S
C1500 C1504 1.385 . S
C1501 H1476 0.951 . S
C1501 C1499 1.388 . S
C1501 C1502 1.366 . S
C1502 C1501 1.366 . S
C1502 C1503 1.414 . S
C1502 C1505 1.499 1_556 S
C1503 H1477 0.943 1_556 S
C1503 C1502 1.414 . S
C1503 C1504 1.374 . S
C1504 H1478 0.950 . S
C1504 C1500 1.385 . S
C1504 C1503 1.374 . S
C1505 C1502 1.499 1_554 S
C1505 C1506 1.373 . S
C1505 C1507 1.389 . S
C1506 H1479 0.950 . S
C1506 C1492 1.377 . S
C1506 C1505 1.373 . S
C1507 C1491 1.377 . S
C1507 C1505 1.389 . S
C1507 C1508 1.524 1_554 S
C1508 C1507 1.524 1_556 S
C1508 C1509 1.397 . S
C1508 C1513 1.363 . S
C1509 H1480 0.950 1_556 S
C1509 C1508 1.397 . S
C1509 C1510 1.334 . S
C1510 H1481 0.950 . S
C1510 C1509 1.334 . S
C1510 C1511 1.287 . S
C1511 C1510 1.287 . S
C1511 C1512 1.524 . S
C1511 H1514 0.999 . S
C1512 H1482 0.950 . S
C1512 C1511 1.524 . S
C1512 C1513 1.415 . S
C1513 H1483 0.950 . S
C1513 C1508 1.363 . S
C1513 C1512 1.415 . S
H1514 C1511 0.999 . S
H1515 C1496 0.913 . S
H1516 C1534 0.951 . S
H1517 C1536 0.951 . S
H1518 C1538 0.950 . S
H1519 C1539 0.950 . S
H1520 C1541 0.950 . S
H1521 C1544 0.950 . S
H1522 C1545 0.950 . S
H1523 C1547 0.950 . S
H1524 C1548 0.950 . S
H1525 C1549 0.951 . S
H1526 C1551 0.951 . S
H1527 C1553 0.950 . S
H1528 C1554 0.950 . S
H1529 C1556 0.950 . S
H1530 C1559 0.950 . S
H1531 C1560 0.950 . S
H1532 C1562 0.950 . S
H1533 C1563 0.950 . S
C1534 H1516 0.951 . S
C1534 C1535 1.366 . S
C1534 C1536 1.388 . S
C1535 C1534 1.366 . S
C1535 C1539 1.385 . S
C1536 H1517 0.951 . S
C1536 C1534 1.388 . S
C1536 C1537 1.366 . S
C1537 C1536 1.366 . S
C1537 C1538 1.414 . S
C1537 C1540 1.499 . S
C1538 H1518 0.950 . S
C1538 C1537 1.414 . S
C1538 C1539 1.374 . S
C1539 H1519 0.950 . S
C1539 C1535 1.385 . S
C1539 C1538 1.374 . S
C1540 C1537 1.499 . S
C1540 C1541 1.373 . S
C1540 C1542 1.389 . S
C1541 H1520 0.950 . S
C1541 C1540 1.373 . S
C1541 C1557 1.377 . S
C1542 C1540 1.389 . S
C1542 C1543 1.524 . S
C1542 C1556 1.377 . S
C1543 C1542 1.524 . S
C1543 C1544 1.397 . S
C1543 C1548 1.363 . S
C1544 H1521 0.950 . S
C1544 C1543 1.397 . S
C1544 C1545 1.334 . S
C1545 H1522 0.950 . S
C1545 C1544 1.334 . S
C1545 C1546 1.287 . S
C1546 C1545 1.287 . S
C1546 C1547 1.524 . S
C1546 H1565 0.913 . S
C1547 H1523 0.950 . S
C1547 C1546 1.524 . S
C1547 C1548 1.415 . S
C1548 H1524 0.950 . S
C1548 C1543 1.363 . S
C1548 C1547 1.415 . S
C1549 H1525 0.951 . S
C1549 C1550 1.366 . S
C1549 C1551 1.388 . S
C1550 C1549 1.366 . S
C1550 C1554 1.385 . S
C1551 H1526 0.951 . S
C1551 C1549 1.388 . S
C1551 C1552 1.366 . S
C1552 C1551 1.366 . S
C1552 C1553 1.414 . S
C1552 C1555 1.499 . S
C1553 H1527 0.950 . S
C1553 C1552 1.414 . S
C1553 C1554 1.374 . S
C1554 H1528 0.950 . S
C1554 C1550 1.385 . S
C1554 C1553 1.374 . S
C1555 C1552 1.499 . S
C1555 C1556 1.373 . S
C1555 C1557 1.389 . S
C1556 H1529 0.950 . S
C1556 C1542 1.377 . S
C1556 C1555 1.373 . S
C1557 C1541 1.377 . S
C1557 C1555 1.389 . S
C1557 C1558 1.524 . S
C1558 C1557 1.524 . S
C1558 C1559 1.397 . S
C1558 C1563 1.363 . S
C1559 H1530 0.950 . S
C1559 C1558 1.397 . S
C1559 C1560 1.334 . S
C1560 H1531 0.950 . S
C1560 C1559 1.334 . S
C1560 C1561 1.287 . S
C1561 C1560 1.287 . S
C1561 C1562 1.524 . S
C1561 H1564 0.999 . S
C1562 H1532 0.950 . S
C1562 C1561 1.524 . S
C1562 C1563 1.415 . S
C1563 H1533 0.950 . S
C1563 C1558 1.363 . S
C1563 C1562 1.415 . S
H1564 C1561 0.999 . S
H1565 C1546 0.913 . S
C400 C358 1.598 . S
C385 C45 1.598 . S
C435 C84 1.601 . S
C450 C293 1.603 . S
C485 C126 1.585 . S
C500 C311 1.599 . S
C535 C189 1.586 . S
C550 C324 1.586 . S
C600 C332 1.604 . S
C585 C228 1.602 . S
C635 C270 1.584 . S
C650 C344 1.598 . S
C685 C69 1.596 . S
C700 C306 1.602 . S
C735 C141 1.597 . S
C750 C319 1.598 . S
C785 C174 1.583 . S
C800 C337 1.597 . S
C850 C343 1.603 . S
C835 C213 1.597 . S
C900 C363 1.586 . S
C885 C285 1.586 . S
C950 C298 1.598 . S
C935 C30 1.585 . S
C985 C36 1.612 . S
C1000 C304 1.616 . S
C1035 C93 1.619 . S
C1050 C317 1.619 . S
C1100 C331 1.614 . S
C1085 C117 1.602 . S
C1135 C180 1.618 . S
C1150 C345 1.622 . S
C1200 C357 1.607 . S
C1185 C237 1.607 . S
C1250 C292 1.612 . S
C1235 C261 1.600 . S
C1300 C356 1.619 . S
C1285 C78 1.593 . S
C1335 C132 1.612 . S
C1350 C291 1.615 . S
C1400 C305 1.613 . S
C1385 C165 1.601 . S
C1435 C222 1.583 . S
C1450 C318 1.607 . S
C1485 C276 1.619 . S
C1500 C330 1.622 . S
C1535 C21 1.602 . S
C1550 C350 1.614 . S
