# Generated by pormake.
# Topology ptr, (4,4)-cn, num edge types: 1
# Building blocks:
#     Node 0, Type 0, BuildingBlock: NAHDIM_clean_sbu_0, # of connection points: 4
#     Node 1, Type 0, BuildingBlock: NAHDIM_clean_sbu_0, # of connection points: 4
#     Node 2, Type 0, BuildingBlock: NAHDIM_clean_sbu_0, # of connection points: 4
#     Node 3, Type 0, BuildingBlock: NAHDIM_clean_sbu_0, # of connection points: 4
#     Node 4, Type 0, BuildingBlock: NAHDIM_clean_sbu_0, # of connection points: 4
#     Node 5, Type 0, BuildingBlock: NAHDIM_clean_sbu_0, # of connection points: 4
#     Node 6, Type 0, BuildingBlock: NAHDIM_clean_sbu_0, # of connection points: 4
#     Node 7, Type 0, BuildingBlock: NAHDIM_clean_sbu_0, # of connection points: 4
#     Node 8, Type 0, BuildingBlock: NAHDIM_clean_sbu_0, # of connection points: 4
#     Node 9, Type 0, BuildingBlock: NAHDIM_clean_sbu_0, # of connection points: 4
#     Node 10, Type 0, BuildingBlock: NAHDIM_clean_sbu_0, # of connection points: 4
#     Node 11, Type 0, BuildingBlock: NAHDIM_clean_sbu_0, # of connection points: 4
#     Node 12, Type 0, BuildingBlock: NAHDIM_clean_sbu_0, # of connection points: 4
#     Node 13, Type 0, BuildingBlock: NAHDIM_clean_sbu_0, # of connection points: 4
#     Node 14, Type 0, BuildingBlock: NAHDIM_clean_sbu_0, # of connection points: 4
#     Node 15, Type 0, BuildingBlock: NAHDIM_clean_sbu_0, # of connection points: 4
#     Node 16, Type 0, BuildingBlock: NAHDIM_clean_sbu_0, # of connection points: 4
#     Node 17, Type 0, BuildingBlock: NAHDIM_clean_sbu_0, # of connection points: 4
#     Node 18, Type 1, BuildingBlock: MUDLON_clean_linker_0, # of connection points: 4
#     Node 19, Type 1, BuildingBlock: MUDLON_clean_linker_0, # of connection points: 4
#     Node 20, Type 1, BuildingBlock: MUDLON_clean_linker_0, # of connection points: 4
#     Node 21, Type 1, BuildingBlock: MUDLON_clean_linker_0, # of connection points: 4
#     Node 22, Type 1, BuildingBlock: MUDLON_clean_linker_0, # of connection points: 4
#     Node 23, Type 1, BuildingBlock: MUDLON_clean_linker_0, # of connection points: 4
#     Node 24, Type 1, BuildingBlock: MUDLON_clean_linker_0, # of connection points: 4
#     Node 25, Type 1, BuildingBlock: MUDLON_clean_linker_0, # of connection points: 4
#     Node 26, Type 1, BuildingBlock: MUDLON_clean_linker_0, # of connection points: 4
#     Node 27, Type 1, BuildingBlock: MUDLON_clean_linker_0, # of connection points: 4
#     Node 28, Type 1, BuildingBlock: MUDLON_clean_linker_0, # of connection points: 4
#     Node 29, Type 1, BuildingBlock: MUDLON_clean_linker_0, # of connection points: 4
#     Node 30, Type 1, BuildingBlock: MUDLON_clean_linker_0, # of connection points: 4
#     Node 31, Type 1, BuildingBlock: MUDLON_clean_linker_0, # of connection points: 4
#     Node 32, Type 1, BuildingBlock: MUDLON_clean_linker_0, # of connection points: 4
#     Node 33, Type 1, BuildingBlock: MUDLON_clean_linker_0, # of connection points: 4
#     Node 34, Type 1, BuildingBlock: MUDLON_clean_linker_0, # of connection points: 4
#     Node 35, Type 1, BuildingBlock: MUDLON_clean_linker_0, # of connection points: 4
#     Edge 36, Type (0, 1), BuildingBlock: XIVTED_clean_linker_0, # of connection points: 2
#     Edge 37, Type (0, 1), BuildingBlock: XIVTED_clean_linker_0, # of connection points: 2
#     Edge 38, Type (0, 1), BuildingBlock: XIVTED_clean_linker_0, # of connection points: 2
#     Edge 39, Type (0, 1), BuildingBlock: XIVTED_clean_linker_0, # of connection points: 2
#     Edge 40, Type (0, 1), BuildingBlock: XIVTED_clean_linker_0, # of connection points: 2
#     Edge 41, Type (0, 1), BuildingBlock: XIVTED_clean_linker_0, # of connection points: 2
#     Edge 42, Type (0, 1), BuildingBlock: XIVTED_clean_linker_0, # of connection points: 2
#     Edge 43, Type (0, 1), BuildingBlock: XIVTED_clean_linker_0, # of connection points: 2
#     Edge 44, Type (0, 1), BuildingBlock: XIVTED_clean_linker_0, # of connection points: 2
#     Edge 45, Type (0, 1), BuildingBlock: XIVTED_clean_linker_0, # of connection points: 2
#     Edge 46, Type (0, 1), BuildingBlock: XIVTED_clean_linker_0, # of connection points: 2
#     Edge 47, Type (0, 1), BuildingBlock: XIVTED_clean_linker_0, # of connection points: 2
#     Edge 48, Type (0, 1), BuildingBlock: XIVTED_clean_linker_0, # of connection points: 2
#     Edge 49, Type (0, 1), BuildingBlock: XIVTED_clean_linker_0, # of connection points: 2
#     Edge 50, Type (0, 1), BuildingBlock: XIVTED_clean_linker_0, # of connection points: 2
#     Edge 51, Type (0, 1), BuildingBlock: XIVTED_clean_linker_0, # of connection points: 2
#     Edge 52, Type (0, 1), BuildingBlock: XIVTED_clean_linker_0, # of connection points: 2
#     Edge 53, Type (0, 1), BuildingBlock: XIVTED_clean_linker_0, # of connection points: 2
#     Edge 54, Type (0, 1), BuildingBlock: XIVTED_clean_linker_0, # of connection points: 2
#     Edge 55, Type (0, 1), BuildingBlock: XIVTED_clean_linker_0, # of connection points: 2
#     Edge 56, Type (0, 1), BuildingBlock: XIVTED_clean_linker_0, # of connection points: 2
#     Edge 57, Type (0, 1), BuildingBlock: XIVTED_clean_linker_0, # of connection points: 2
#     Edge 58, Type (0, 1), BuildingBlock: XIVTED_clean_linker_0, # of connection points: 2
#     Edge 59, Type (0, 1), BuildingBlock: XIVTED_clean_linker_0, # of connection points: 2
#     Edge 60, Type (0, 1), BuildingBlock: XIVTED_clean_linker_0, # of connection points: 2
#     Edge 61, Type (0, 1), BuildingBlock: XIVTED_clean_linker_0, # of connection points: 2
#     Edge 62, Type (0, 1), BuildingBlock: XIVTED_clean_linker_0, # of connection points: 2
#     Edge 63, Type (0, 1), BuildingBlock: XIVTED_clean_linker_0, # of connection points: 2
#     Edge 64, Type (0, 1), BuildingBlock: XIVTED_clean_linker_0, # of connection points: 2
#     Edge 65, Type (0, 1), BuildingBlock: XIVTED_clean_linker_0, # of connection points: 2
#     Edge 66, Type (0, 1), BuildingBlock: XIVTED_clean_linker_0, # of connection points: 2
#     Edge 67, Type (0, 1), BuildingBlock: XIVTED_clean_linker_0, # of connection points: 2
#     Edge 68, Type (0, 1), BuildingBlock: XIVTED_clean_linker_0, # of connection points: 2
#     Edge 69, Type (0, 1), BuildingBlock: XIVTED_clean_linker_0, # of connection points: 2
#     Edge 70, Type (0, 1), BuildingBlock: XIVTED_clean_linker_0, # of connection points: 2
#     Edge 71, Type (0, 1), BuildingBlock: XIVTED_clean_linker_0, # of connection points: 2
#     Edge 72, Type (0, 1), BuildingBlock: XIVTED_clean_linker_0, # of connection points: 2
#     Edge 73, Type (0, 1), BuildingBlock: XIVTED_clean_linker_0, # of connection points: 2
#     Edge 74, Type (0, 1), BuildingBlock: XIVTED_clean_linker_0, # of connection points: 2
#     Edge 75, Type (0, 1), BuildingBlock: XIVTED_clean_linker_0, # of connection points: 2
#     Edge 76, Type (0, 1), BuildingBlock: XIVTED_clean_linker_0, # of connection points: 2
#     Edge 77, Type (0, 1), BuildingBlock: XIVTED_clean_linker_0, # of connection points: 2
#     Edge 78, Type (0, 1), BuildingBlock: XIVTED_clean_linker_0, # of connection points: 2
#     Edge 79, Type (0, 1), BuildingBlock: XIVTED_clean_linker_0, # of connection points: 2
#     Edge 80, Type (0, 1), BuildingBlock: XIVTED_clean_linker_0, # of connection points: 2
#     Edge 81, Type (0, 1), BuildingBlock: XIVTED_clean_linker_0, # of connection points: 2
#     Edge 82, Type (0, 1), BuildingBlock: XIVTED_clean_linker_0, # of connection points: 2
#     Edge 83, Type (0, 1), BuildingBlock: XIVTED_clean_linker_0, # of connection points: 2
#     Edge 84, Type (0, 1), BuildingBlock: XIVTED_clean_linker_0, # of connection points: 2
#     Edge 85, Type (0, 1), BuildingBlock: XIVTED_clean_linker_0, # of connection points: 2
#     Edge 86, Type (0, 1), BuildingBlock: XIVTED_clean_linker_0, # of connection points: 2
#     Edge 87, Type (0, 1), BuildingBlock: XIVTED_clean_linker_0, # of connection points: 2
#     Edge 88, Type (0, 1), BuildingBlock: XIVTED_clean_linker_0, # of connection points: 2
#     Edge 89, Type (0, 1), BuildingBlock: XIVTED_clean_linker_0, # of connection points: 2
#     Edge 90, Type (0, 1), BuildingBlock: XIVTED_clean_linker_0, # of connection points: 2
#     Edge 91, Type (0, 1), BuildingBlock: XIVTED_clean_linker_0, # of connection points: 2
#     Edge 92, Type (0, 1), BuildingBlock: XIVTED_clean_linker_0, # of connection points: 2
#     Edge 93, Type (0, 1), BuildingBlock: XIVTED_clean_linker_0, # of connection points: 2
#     Edge 94, Type (0, 1), BuildingBlock: XIVTED_clean_linker_0, # of connection points: 2
#     Edge 95, Type (0, 1), BuildingBlock: XIVTED_clean_linker_0, # of connection points: 2
#     Edge 96, Type (0, 1), BuildingBlock: XIVTED_clean_linker_0, # of connection points: 2
#     Edge 97, Type (0, 1), BuildingBlock: XIVTED_clean_linker_0, # of connection points: 2
#     Edge 98, Type (0, 1), BuildingBlock: XIVTED_clean_linker_0, # of connection points: 2
#     Edge 99, Type (0, 1), BuildingBlock: XIVTED_clean_linker_0, # of connection points: 2
#     Edge 100, Type (0, 1), BuildingBlock: XIVTED_clean_linker_0, # of connection points: 2
#     Edge 101, Type (0, 1), BuildingBlock: XIVTED_clean_linker_0, # of connection points: 2
#     Edge 102, Type (0, 1), BuildingBlock: XIVTED_clean_linker_0, # of connection points: 2
#     Edge 103, Type (0, 1), BuildingBlock: XIVTED_clean_linker_0, # of connection points: 2
#     Edge 104, Type (0, 1), BuildingBlock: XIVTED_clean_linker_0, # of connection points: 2
#     Edge 105, Type (0, 1), BuildingBlock: XIVTED_clean_linker_0, # of connection points: 2
#     Edge 106, Type (0, 1), BuildingBlock: XIVTED_clean_linker_0, # of connection points: 2
#     Edge 107, Type (0, 1), BuildingBlock: XIVTED_clean_linker_0, # of connection points: 2
# Relax obj value: 0.063
# Max RMSD: 0.201
# Mean RMSD: 0.102
data_MOF--net-ptr--node1-NAHDIM_clean_sbu_0--node2-MUDLON_clean_linker_0--edge1-XIVTED_clean_linker_0
_symmetry_space_group_name_H-M    P1
_symmetry_Int_Tables_number       1
_symmetry_cell_setting            triclinic
loop_
_symmetry_equiv_pos_as_xyz
'x, y, z'
_cell_length_a     107.06675
_cell_length_b     105.22669
_cell_length_c     61.401542
_cell_angle_alpha  91.588507
_cell_angle_beta   89.2149
_cell_angle_gamma 121.62023
loop_
_atom_site_label
_atom_site_type_symbol
_atom_site_fract_x
_atom_site_fract_y
_atom_site_fract_z
_atom_type_partial_charge
C0 C 0.03941 0.38251 0.01349 0.0
O1 O 0.04169 0.39503 0.02249 0.0
O2 O 0.99275 0.35874 0.99758 0.0
Zn3 Zn 0.01159 0.37863 0.00045 0.0
O4 O 0.01203 0.39064 0.02683 0.0
C5 C 0.00995 0.38336 0.95525 0.0
O6 O 0.0059 0.36922 0.95403 0.0
O7 O 0.0277 0.37426 0.0027 0.0
C8 C 0.0009 0.38973 0.03607 0.0
O9 O 0.98771 0.38001 0.02865 0.0
C10 C 0.9866 0.34909 0.01229 0.0
O11 O 0.99204 0.35227 0.03212 0.0
O12 O 0.01363 0.39016 0.97365 0.0
C13 C 0.67461 0.65093 0.02959 0.0
O14 O 0.67191 0.65932 0.04262 0.0
O15 O 0.64391 0.65458 0.02618 0.0
Zn16 Zn 0.64326 0.63516 0.02215 0.0
O17 O 0.63304 0.62477 0.99417 0.0
C18 C 0.62337 0.6231 0.05827 0.0
O19 O 0.6206 0.63337 0.05281 0.0
O20 O 0.66401 0.63972 0.01982 0.0
C21 C 0.61921 0.61754 0.99162 0.0
O22 O 0.6108 0.61691 0.00785 0.0
C23 C 0.65073 0.66516 0.01294 0.0
O24 O 0.657 0.66317 0.99574 0.0
O25 O 0.63285 0.62175 0.04748 0.0
C26 C 0.35807 0.02654 0.99211 0.0
O27 O 0.34983 0.01373 0.98167 0.0
O28 O 0.34739 0.9921 0.01665 0.0
Zn29 Zn 0.36802 0.00914 0.01077 0.0
O30 O 0.37665 0.00517 0.98382 0.0
C31 C 0.37814 0.00082 0.04752 0.0
O32 O 0.36712 0.98759 0.0416 0.0
O33 O 0.36724 0.02759 0.00609 0.0
C34 C 0.3781 0.99396 0.98148 0.0
O35 O 0.37358 0.98416 0.997 0.0
C36 C 0.33932 0.9814 0.00348 0.0
O37 O 0.34431 0.9809 0.98402 0.0
O38 O 0.38076 0.01213 0.03679 0.0
C39 C 0.97176 0.64306 0.98817 0.0
O40 O 0.98407 0.64774 0.97747 0.0
O41 O 0.00311 0.64936 0.01325 0.0
Zn42 Zn 0.98434 0.62942 0.00899 0.0
O43 O 0.98561 0.61757 0.98373 0.0
C44 C 0.97214 0.60457 0.03943 0.0
O45 O 0.96321 0.59638 0.02353 0.0
O46 O 0.9685 0.63386 0.00337 0.0
C47 C 0.99587 0.61491 0.98202 0.0
O48 O 0.00613 0.62014 0.99704 0.0
C49 C 0.01398 0.65626 0.00048 0.0
O50 O 0.01404 0.65018 0.98153 0.0
O51 O 0.98119 0.61839 0.03667 0.0
C52 C 0.33016 0.36908 0.00921 0.0
O53 O 0.33223 0.36276 0.99192 0.0
O54 O 0.35737 0.35897 0.00957 0.0
Zn55 Zn 0.36042 0.37923 0.01622 0.0
O56 O 0.3734 0.38794 0.04254 0.0
C57 C 0.38364 0.39557 0.98701 0.0
O58 O 0.38961 0.39052 6e-05 0.0
O59 O 0.34088 0.37712 0.02195 0.0
C60 C 0.37485 0.39915 0.0532 0.0
O61 O 0.36742 0.4052 0.04713 0.0
C62 C 0.34855 0.34758 0.02047 0.0
O63 O 0.34116 0.34902 0.0366 0.0
O64 O 0.37059 0.3923 0.99068 0.0
C65 C 0.64218 0.9696 0.99482 0.0
O66 O 0.65045 0.98106 0.98247 0.0
O67 O 0.64386 0.00343 0.99371 0.0
Zn68 Zn 0.62522 0.98363 0.99836 0.0
O69 O 0.61384 0.98402 0.02447 0.0
C70 C 0.61081 0.98921 0.96547 0.0
O71 O 0.61745 0.00209 0.97617 0.0
O72 O 0.63045 0.96803 0.00284 0.0
C73 C 0.61482 0.99555 0.03342 0.0
O74 O 0.62421 0.00881 0.02584 0.0
C75 C 0.65357 0.01134 0.00795 0.0
O76 O 0.65157 0.00702 0.02824 0.0
O77 O 0.61247 0.9788 0.97189 0.0
C78 C 0.68917 0.69954 0.36388 0.0
O79 O 0.67761 0.69703 0.37516 0.0
O80 O 0.65856 0.69234 0.33119 0.0
Zn81 Zn 0.67715 0.71195 0.33834 0.0
O82 O 0.67539 0.72353 0.36363 0.0
C83 C 0.67358 0.72542 0.30156 0.0
O84 O 0.65993 0.71756 0.30831 0.0
O85 O 0.69207 0.70667 0.3463 0.0
C86 C 0.66463 0.72503 0.36834 0.0
O87 O 0.65273 0.71823 0.35627 0.0
C88 C 0.64766 0.68413 0.34333 0.0
O89 O 0.64722 0.68861 0.36334 0.0
O90 O 0.68344 0.72481 0.31192 0.0
C91 C 0.33659 0.97793 0.35878 0.0
O92 O 0.33527 0.98838 0.36875 0.0
O93 O 0.30761 0.98358 0.35576 0.0
Zn94 Zn 0.30502 0.96324 0.35382 0.0
O95 O 0.29448 0.95248 0.32627 0.0
C96 C 0.29995 0.95427 0.39852 0.0
O97 O 0.31324 0.966 0.40097 0.0
O98 O 0.32514 0.96609 0.35187 0.0
C99 C 0.28078 0.9463 0.32306 0.0
O100 O 0.2725 0.94699 0.33846 0.0
C101 C 0.29838 0.9868 0.36284 0.0
O102 O 0.28543 0.97609 0.36941 0.0
O103 O 0.29409 0.95096 0.37974 0.0
C104 C 0.03083 0.36186 0.32654 0.0
O105 O 0.02512 0.34949 0.31466 0.0
O106 O 0.02081 0.32823 0.35773 0.0
Zn107 Zn 0.04073 0.34598 0.3502 0.0
O108 O 0.04969 0.34166 0.32404 0.0
C109 C 0.06634 0.35277 0.37598 0.0
O110 O 0.07139 0.35086 0.35735 0.0
O111 O 0.03833 0.36319 0.34326 0.0
C112 C 0.04901 0.32937 0.32028 0.0
O113 O 0.04204 0.31842 0.33397 0.0
C114 C 0.01177 0.31811 0.34455 0.0
O115 O 0.0152 0.31859 0.32385 0.0
O116 O 0.05383 0.35143 0.37655 0.0
C117 C 0.63727 0.97046 0.34065 0.0
O118 O 0.64585 0.98052 0.35532 0.0
O119 O 0.67481 0.98432 0.34852 0.0
Zn120 Zn 0.65973 0.96299 0.34025 0.0
O121 O 0.66618 0.95545 0.31448 0.0
C122 C 0.66674 0.9498 0.37442 0.0
O123 O 0.67982 0.95775 0.36568 0.0
O124 O 0.64094 0.96172 0.33222 0.0
C125 C 0.67937 0.95953 0.30985 0.0
O126 O 0.69006 0.9695 0.32241 0.0
C127 C 0.68196 0.99465 0.33501 0.0
O128 O 0.68 0.99153 0.31401 0.0
O129 O 0.6561 0.95013 0.36616 0.0
C130 C 0.99969 0.69755 0.3607 0.0
O131 O 0.00584 0.69103 0.36986 0.0
O132 O 0.02703 0.69369 0.34035 0.0
Zn133 Zn 0.02827 0.71345 0.34452 0.0
O134 O 0.04017 0.72434 0.37128 0.0
C135 C 0.03306 0.71987 0.29926 0.0
O136 O 0.02145 0.7063 0.29779 0.0
O137 O 0.00747 0.7086 0.34855 0.0
C138 C 0.05378 0.72903 0.37206 0.0
O139 O 0.06005 0.72674 0.35513 0.0
C140 C 0.03625 0.69156 0.33026 0.0
O141 O 0.0481 0.70299 0.32207 0.0
O142 O 0.03781 0.72573 0.31802 0.0
C143 C 0.30013 0.30738 0.36366 0.0
O144 O 0.29841 0.31513 0.37926 0.0
O145 O 0.31174 0.34453 0.33305 0.0
Zn146 Zn 0.29287 0.3248 0.33788 0.0
O147 O 0.28099 0.326 0.36276 0.0
C148 C 0.27529 0.32747 0.30704 0.0
O149 O 0.27855 0.33876 0.32041 0.0
O150 O 0.29787 0.30918 0.34402 0.0
C151 C 0.28405 0.33772 0.37369 0.0
O152 O 0.29604 0.35045 0.36923 0.0
C153 C 0.32263 0.34983 0.34597 0.0
O154 O 0.3215 0.34264 0.36373 0.0
O155 O 0.28046 0.31929 0.31087 0.0
C156 C 0.36099 0.02963 0.67358 0.0
O157 O 0.34868 0.02008 0.66356 0.0
O158 O 0.32751 0.0266 0.67642 0.0
Zn159 Zn 0.34667 0.04634 0.67809 0.0
O160 O 0.34718 0.0579 0.70499 0.0
C161 C 0.35215 0.05487 0.63297 0.0
O162 O 0.35261 0.04268 0.63074 0.0
O163 O 0.3629 0.04201 0.68065 0.0
C164 C 0.34043 0.06485 0.70642 0.0
O165 O 0.33252 0.06434 0.68985 0.0
C166 C 0.31561 0.02392 0.6678 0.0
O167 O 0.31494 0.03488 0.65935 0.0
O168 O 0.34968 0.05857 0.65166 0.0
C169 C 0.99771 0.30784 0.69149 0.0
O170 O 0.99558 0.31716 0.70326 0.0
O171 O 0.96717 0.31131 0.69161 0.0
Zn172 Zn 0.96612 0.2917 0.68763 0.0
O173 O 0.95434 0.27993 0.66121 0.0
C174 C 0.94475 0.27802 0.72081 0.0
O175 O 0.93907 0.28435 0.70987 0.0
O176 O 0.98669 0.29598 0.68371 0.0
C177 C 0.94376 0.28035 0.65286 0.0
O178 O 0.93973 0.28919 0.66157 0.0
C179 C 0.9688 0.3202 0.6767 0.0
O180 O 0.96935 0.31658 0.65622 0.0
O181 O 0.95678 0.27954 0.71434 0.0
C182 C 0.69157 0.69192 0.66681 0.0
O183 O 0.68415 0.67847 0.65786 0.0
O184 O 0.68731 0.66083 0.69646 0.0
Zn185 Zn 0.70605 0.67893 0.68634 0.0
O186 O 0.71359 0.67426 0.65898 0.0
C187 C 0.71971 0.69168 0.7276 0.0
O188 O 0.70827 0.6931 0.72985 0.0
O189 O 0.70187 0.69501 0.68003 0.0
C190 C 0.71898 0.666 0.65878 0.0
O191 O 0.71963 0.66014 0.67703 0.0
C192 C 0.67963 0.64902 0.68493 0.0
O193 O 0.684 0.64812 0.66517 0.0
O194 O 0.72121 0.68595 0.71003 0.0
C195 C 0.30939 0.30372 0.65555 0.0
O196 O 0.32237 0.31091 0.64629 0.0
O197 O 0.34143 0.31381 0.68486 0.0
Zn198 Zn 0.32429 0.29303 0.67897 0.0
O199 O 0.32938 0.28362 0.65429 0.0
C200 C 0.31975 0.28626 0.72435 0.0
O201 O 0.3225 0.29998 0.72584 0.0
O202 O 0.30715 0.29474 0.67064 0.0
C203 C 0.31942 0.27284 0.64299 0.0
O204 O 0.3056 0.2678 0.64765 0.0
C205 C 0.35333 0.31633 0.69319 0.0
O206 O 0.35463 0.30501 0.69819 0.0
O207 O 0.3197 0.28072 0.70569 0.0
C208 C 0.67208 0.04591 0.68336 0.0
O209 O 0.68133 0.06014 0.68783 0.0
O210 O 0.69943 0.02572 0.67663 0.0
Zn211 Zn 0.69843 0.04428 0.67895 0.0
O212 O 0.70741 0.05555 0.70714 0.0
C213 C 0.71932 0.05675 0.64418 0.0
O214 O 0.72333 0.04795 0.6521 0.0
O215 O 0.67702 0.03751 0.67873 0.0
C216 C 0.72116 0.06298 0.71055 0.0
O217 O 0.73003 0.06332 0.69527 0.0
C218 C 0.69053 0.01417 0.68715 0.0
O219 O 0.68121 0.01477 0.70064 0.0
O220 O 0.70877 0.05721 0.65313 0.0
C221 C 0.95395 0.6383 0.68556 0.0
O222 O 0.94127 0.63626 0.69194 0.0
O223 O 0.97817 0.68509 0.66347 0.0
Zn224 Zn 0.959 0.6666 0.67108 0.0
O225 O 0.95038 0.67025 0.69818 0.0
C226 C 0.94429 0.67095 0.63623 0.0
O227 O 0.95322 0.68496 0.64224 0.0
O228 O 0.96305 0.65028 0.67613 0.0
C229 C 0.95213 0.68296 0.70256 0.0
O230 O 0.95996 0.69401 0.68933 0.0
C231 C 0.98939 0.68975 0.67551 0.0
O232 O 0.98821 0.68259 0.69335 0.0
O233 O 0.94475 0.66079 0.64624 0.0
H234 H 0.21474 0.33342 0.13528 0.0
N235 N 0.19476 0.30795 0.11281 0.0
H236 H 0.22661 0.33486 0.16945 0.0
H237 H 0.18973 0.28536 0.13767 0.0
H238 H 0.20147 0.28673 0.17249 0.0
H239 H 0.20629 0.29543 0.08853 0.0
H240 H 0.22725 0.30784 0.06388 0.0
H241 H 0.20766 0.33678 0.09931 0.0
H242 H 0.22868 0.34935 0.07466 0.0
H243 H 0.18794 0.32446 0.14128 0.0
H244 H 0.17362 0.2965 0.083 0.0
H245 H 0.16628 0.32596 0.14047 0.0
H246 H 0.15222 0.29893 0.08114 0.0
H247 H 0.10941 0.33848 0.1364 0.0
H248 H 0.10103 0.34051 0.17253 0.0
H249 H 0.0818 0.29307 0.18047 0.0
H250 H 0.08949 0.29107 0.1435 0.0
H251 H 0.07798 0.301 0.09523 0.0
H252 H 0.06982 0.31352 0.07146 0.0
H253 H 0.11316 0.35322 0.07427 0.0
H254 H 0.1211 0.34083 0.09827 0.0
H255 H 0.13103 0.33549 0.12758 0.0
H256 H 0.15376 0.33559 0.12466 0.0
H257 H 0.12968 0.29064 0.09725 0.0
N258 N 0.10367 0.3127 0.11506 0.0
H259 H 0.10721 0.29124 0.09866 0.0
C260 C 0.20129 0.30921 0.13382 0.0
C261 C 0.21173 0.32314 0.14318 0.0
C262 C 0.21844 0.32397 0.16291 0.0
C263 C 0.21495 0.31091 0.17374 0.0
C264 C 0.20446 0.29699 0.16445 0.0
C265 C 0.19768 0.29618 0.14469 0.0
C266 C 0.20549 0.31515 0.09582 0.0
C267 C 0.21093 0.30711 0.08514 0.0
C268 C 0.22287 0.31423 0.07102 0.0
C269 C 0.22967 0.3296 0.06743 0.0
C270 C 0.22376 0.33752 0.07731 0.0
C271 C 0.21172 0.33035 0.09132 0.0
C272 C 0.18246 0.3101 0.11226 0.0
C273 C 0.1803 0.31874 0.12806 0.0
C274 C 0.16783 0.31978 0.12745 0.0
C275 C 0.15734 0.31254 0.11077 0.0
C276 C 0.1598 0.30438 0.09456 0.0
C277 C 0.17213 0.30308 0.09545 0.0
C278 C 0.0998 0.31451 0.13704 0.0
C279 C 0.10333 0.32849 0.14581 0.0
C280 C 0.09865 0.32966 0.16672 0.0
C281 C 0.09062 0.31694 0.17954 0.0
C282 C 0.08763 0.30307 0.17097 0.0
C283 C 0.09212 0.30189 0.14991 0.0
C284 C 0.1001 0.31985 0.09861 0.0
C285 C 0.08577 0.31231 0.09035 0.0
C286 C 0.08116 0.31948 0.07671 0.0
C287 C 0.09083 0.33442 0.07105 0.0
C288 C 0.10538 0.34178 0.07857 0.0
C289 C 0.10998 0.3346 0.09223 0.0
C290 C 0.11744 0.31341 0.11292 0.0
C291 C 0.13071 0.32581 0.12043 0.0
C292 C 0.14371 0.32574 0.11907 0.0
C293 C 0.14368 0.31309 0.11078 0.0
C294 C 0.13032 0.30072 0.10328 0.0
C295 C 0.1174 0.30096 0.10422 0.0
H296 H 0.71967 0.79736 0.12483 0.0
N297 N 0.70393 0.80687 0.10606 0.0
H298 H 0.71508 0.78508 0.1598 0.0
H299 H 0.68311 0.80315 0.13589 0.0
H300 H 0.67866 0.7913 0.17116 0.0
H301 H 0.67423 0.78754 0.10215 0.0
H302 H 0.66211 0.76475 0.07969 0.0
H303 H 0.716 0.79907 0.07453 0.0
H304 H 0.70403 0.77602 0.0524 0.0
H305 H 0.7232 0.83305 0.12419 0.0
H306 H 0.68418 0.81174 0.08424 0.0
H307 H 0.72304 0.85608 0.12476 0.0
H308 H 0.68445 0.83487 0.08374 0.0
H309 H 0.72073 0.92911 0.12926 0.0
H310 H 0.71742 0.93825 0.16467 0.0
H311 H 0.68049 0.89419 0.17776 0.0
H312 H 0.68359 0.88532 0.14239 0.0
H313 H 0.67529 0.89519 0.11149 0.0
H314 H 0.66424 0.9038 0.08615 0.0
H315 H 0.70379 0.92362 0.04724 0.0
H316 H 0.71511 0.91575 0.07371 0.0
H317 H 0.72698 0.89931 0.10843 0.0
H318 H 0.72729 0.87631 0.10475 0.0
H319 H 0.67982 0.8507 0.10502 0.0
N320 N 0.70386 0.90219 0.11106 0.0
H321 H 0.67975 0.87383 0.10717 0.0
C322 C 0.7018 0.80118 0.12779 0.0
C323 C 0.71083 0.79622 0.13505 0.0
C324 C 0.70821 0.78927 0.15507 0.0
C325 C 0.69647 0.78716 0.16829 0.0
C326 C 0.68766 0.79253 0.16124 0.0
C327 C 0.69025 0.79942 0.14116 0.0
C328 C 0.69609 0.79507 0.08996 0.0
C329 C 0.68077 0.78533 0.09091 0.0
C330 C 0.67386 0.7722 0.07817 0.0
C331 C 0.68211 0.76841 0.06445 0.0
C332 C 0.6973 0.77862 0.06259 0.0
C333 C 0.70418 0.7918 0.07523 0.0
C334 C 0.7037 0.82047 0.10449 0.0
C335 C 0.7147 0.83337 0.11533 0.0
C336 C 0.71465 0.8466 0.11546 0.0
C337 C 0.70372 0.84743 0.10428 0.0
C338 C 0.69287 0.83461 0.09292 0.0
C339 C 0.69278 0.82126 0.09311 0.0
C340 C 0.70252 0.90657 0.13306 0.0
C341 C 0.71206 0.92141 0.13995 0.0
C342 C 0.71017 0.92659 0.16021 0.0
C343 C 0.69863 0.91697 0.17401 0.0
C344 C 0.68935 0.90195 0.16739 0.0
C345 C 0.69123 0.89681 0.14713 0.0
C346 C 0.69622 0.90517 0.09475 0.0
C347 C 0.6816 0.90135 0.09751 0.0
C348 C 0.6752 0.90617 0.08276 0.0
C349 C 0.68316 0.91464 0.06469 0.0
C350 C 0.69744 0.91751 0.06125 0.0
C351 C 0.7039 0.9129 0.07622 0.0
C352 C 0.70342 0.8883 0.10838 0.0
C353 C 0.71667 0.8887 0.10754 0.0
C354 C 0.71679 0.87551 0.10562 0.0
C355 C 0.70357 0.86154 0.10487 0.0
C356 C 0.69023 0.8612 0.10532 0.0
C357 C 0.69015 0.87445 0.10683 0.0
H358 H 0.11799 0.74693 0.14062 0.0
N359 N 0.12885 0.77119 0.11713 0.0
H360 H 0.10086 0.73974 0.17121 0.0
H361 H 0.11957 0.78856 0.13662 0.0
H362 H 0.10246 0.78149 0.16737 0.0
H363 H 0.10934 0.77714 0.09896 0.0
H364 H 0.09193 0.76245 0.06994 0.0
H365 H 0.12929 0.75082 0.09134 0.0
H366 H 0.11167 0.73574 0.06268 0.0
H367 H 0.15419 0.77685 0.13261 0.0
H368 H 0.13409 0.79744 0.1001 0.0
H369 H 0.17778 0.80038 0.13224 0.0
H370 H 0.15776 0.82091 0.0988 0.0
H371 H 0.24184 0.8624 0.15036 0.0
H372 H 0.25005 0.87503 0.18604 0.0
H373 H 0.22768 0.8985 0.17464 0.0
H374 H 0.21944 0.88575 0.13925 0.0
H375 H 0.21968 0.88489 0.10105 0.0
H376 H 0.23496 0.90371 0.07423 0.0
H377 H 0.26468 0.88756 0.07313 0.0
H378 H 0.24949 0.86904 0.10019 0.0
H379 H 0.22065 0.83911 0.11075 0.0
H380 H 0.19663 0.81609 0.10777 0.0
H381 H 0.17575 0.84121 0.12137 0.0
N382 N 0.22636 0.86623 0.1208 0.0
H383 H 0.19984 0.86422 0.12322 0.0
C384 C 0.1201 0.76825 0.13648 0.0
C385 C 0.11477 0.75458 0.14659 0.0
C386 C 0.10493 0.75047 0.16389 0.0
C387 C 0.10025 0.76001 0.17151 0.0
C388 C 0.10595 0.77396 0.16185 0.0
C389 C 0.11572 0.77801 0.14432 0.0
C390 C 0.1206 0.765 0.09731 0.0
C391 C 0.11025 0.76847 0.09061 0.0
C392 C 0.1002 0.75996 0.07413 0.0
C393 C 0.10026 0.74778 0.06419 0.0
C394 C 0.11137 0.74511 0.06981 0.0
C395 C 0.12143 0.75366 0.08623 0.0
C396 C 0.14246 0.78532 0.11623 0.0
C397 C 0.15495 0.78646 0.1252 0.0
C398 C 0.16842 0.79988 0.12479 0.0
C399 C 0.16974 0.81252 0.11521 0.0
C400 C 0.15713 0.81143 0.10639 0.0
C401 C 0.14358 0.79796 0.10697 0.0
C402 C 0.23006 0.8731 0.1422 0.0
C403 C 0.23861 0.87016 0.15574 0.0
C404 C 0.24335 0.87744 0.176 0.0
C405 C 0.23958 0.88783 0.18309 0.0
C406 C 0.23065 0.89046 0.16973 0.0
C407 C 0.22596 0.88319 0.14941 0.0
C408 C 0.23364 0.87575 0.10275 0.0
C409 C 0.2294 0.88534 0.09487 0.0
C410 C 0.23812 0.89605 0.07954 0.0
C411 C 0.25104 0.89713 0.07165 0.0
C412 C 0.25472 0.88691 0.0787 0.0
C413 C 0.24612 0.87637 0.09418 0.0
C414 C 0.21201 0.85326 0.11748 0.0
C415 C 0.21084 0.8396 0.1128 0.0
C416 C 0.19712 0.82648 0.11133 0.0
C417 C 0.18423 0.82674 0.11474 0.0
C418 C 0.18542 0.84059 0.11858 0.0
C419 C 0.19922 0.85377 0.11984 0.0
H420 H 0.33718 0.2403 0.90366 0.0
N421 N 0.31585 0.21307 0.91906 0.0
H422 H 0.33631 0.25169 0.87032 0.0
H423 H 0.29511 0.20107 0.88839 0.0
H424 H 0.29417 0.21257 0.85462 0.0
H425 H 0.29732 0.21889 0.93939 0.0
H426 H 0.30349 0.23984 0.9644 0.0
H427 H 0.34241 0.23049 0.94039 0.0
H428 H 0.34851 0.25109 0.96561 0.0
H429 H 0.34322 0.2212 0.90344 0.0
H430 H 0.30412 0.1853 0.93263 0.0
H431 H 0.35371 0.20562 0.90094 0.0
H432 H 0.3145 0.16935 0.92967 0.0
H433 H 0.38064 0.15027 0.87781 0.0
H434 H 0.3777 0.13704 0.84301 0.0
H435 H 0.33097 0.11889 0.84556 0.0
H436 H 0.33408 0.13242 0.88004 0.0
H437 H 0.3338 0.12482 0.91639 0.0
H438 H 0.33132 0.10455 0.93813 0.0
H439 H 0.37837 0.12865 0.9467 0.0
H440 H 0.38066 0.14904 0.92541 0.0
H441 H 0.36064 0.169 0.87549 0.0
H442 H 0.35001 0.18437 0.88 0.0
H443 H 0.33401 0.16618 0.94359 0.0
N444 N 0.35969 0.14913 0.903 0.0
H445 H 0.34434 0.15057 0.93907 0.0
C446 C 0.31608 0.21978 0.8987 0.0
C447 C 0.32774 0.23408 0.89315 0.0
C448 C 0.32721 0.24065 0.87406 0.0
C449 C 0.3151 0.2331 0.85999 0.0
C450 C 0.30367 0.21864 0.86515 0.0
C451 C 0.30416 0.21208 0.8844 0.0
C452 C 0.3193 0.22307 0.93772 0.0
C453 C 0.30842 0.22561 0.94559 0.0
C454 C 0.31198 0.23759 0.95991 0.0
C455 C 0.32655 0.24728 0.96672 0.0
C456 C 0.33723 0.244 0.96031 0.0
C457 C 0.33368 0.23205 0.94593 0.0
C458 C 0.32275 0.20439 0.91819 0.0
C459 C 0.33683 0.20995 0.9093 0.0
C460 C 0.34283 0.20096 0.90775 0.0
C461 C 0.33489 0.18617 0.9149 0.0
C462 C 0.32095 0.18072 0.92418 0.0
C463 C 0.31497 0.18977 0.92579 0.0
C464 C 0.35765 0.14233 0.88152 0.0
C465 C 0.36982 0.14359 0.87066 0.0
C466 C 0.36808 0.13593 0.85091 0.0
C467 C 0.35408 0.12681 0.84163 0.0
C468 C 0.34191 0.12591 0.8522 0.0
C469 C 0.34366 0.13356 0.87199 0.0
C470 C 0.35748 0.13849 0.9193 0.0
C471 C 0.34354 0.12588 0.92337 0.0
C472 C 0.34215 0.11425 0.9357 0.0
C473 C 0.35466 0.11485 0.94393 0.0
C474 C 0.36848 0.12784 0.94085 0.0
C475 C 0.36984 0.13952 0.92866 0.0
C476 C 0.35273 0.15779 0.90623 0.0
C477 C 0.35457 0.16799 0.89027 0.0
C478 C 0.34866 0.17699 0.89299 0.0
C479 C 0.34103 0.17641 0.91209 0.0
C480 C 0.3395 0.16661 0.92844 0.0
C481 C 0.34541 0.15754 0.92571 0.0
H482 H 0.75213 0.13723 0.89282 0.0
N483 N 0.77353 0.13886 0.91657 0.0
H484 H 0.74361 0.1254 0.85675 0.0
H485 H 0.78585 0.12651 0.89111 0.0
H486 H 0.7772 0.11431 0.85539 0.0
H487 H 0.77408 0.11359 0.92404 0.0
H488 H 0.75626 0.09249 0.94549 0.0
H489 H 0.75417 0.13846 0.94459 0.0
H490 H 0.73629 0.11734 0.96631 0.0
H491 H 0.79047 0.16373 0.89494 0.0
H492 H 0.79221 0.13757 0.94653 0.0
H493 H 0.81678 0.18088 0.89794 0.0
H494 H 0.81829 0.15516 0.95043 0.0
H495 H 0.88605 0.23424 0.90657 0.0
H496 H 0.89541 0.24415 0.87066 0.0
H497 H 0.89937 0.20611 0.85502 0.0
H498 H 0.89002 0.19627 0.89133 0.0
H499 H 0.90892 0.2158 0.93628 0.0
H500 H 0.92627 0.2377 0.95828 0.0
H501 H 0.89272 0.24802 0.97047 0.0
H502 H 0.87552 0.22636 0.9486 0.0
H503 H 0.8619 0.21628 0.91687 0.0
H504 H 0.83551 0.19977 0.9184 0.0
H505 H 0.84097 0.1631 0.93391 0.0
N506 N 0.88253 0.20866 0.9232 0.0
H507 H 0.86758 0.18016 0.93392 0.0
C508 C 0.76956 0.13276 0.89463 0.0
C509 C 0.75772 0.13238 0.88456 0.0
C510 C 0.75281 0.12551 0.86407 0.0
C511 C 0.75966 0.11881 0.85324 0.0
C512 C 0.77177 0.11949 0.86317 0.0
C513 C 0.77667 0.12638 0.88366 0.0
C514 C 0.76535 0.1276 0.93256 0.0
C515 C 0.76605 0.11463 0.9335 0.0
C516 C 0.75585 0.10257 0.94576 0.0
C517 C 0.74479 0.10322 0.95736 0.0
C518 C 0.74475 0.11656 0.95765 0.0
C519 C 0.75493 0.12861 0.94527 0.0
C520 C 0.78916 0.14904 0.91997 0.0
C521 C 0.79648 0.16172 0.90702 0.0
C522 C 0.81156 0.17165 0.90897 0.0
C523 C 0.81978 0.16948 0.92446 0.0
C524 C 0.81242 0.15705 0.93798 0.0
C525 C 0.79732 0.14691 0.93574 0.0
C526 C 0.88728 0.21443 0.90162 0.0
C527 C 0.88873 0.2279 0.89538 0.0
C528 C 0.89407 0.23356 0.87477 0.0
C529 C 0.89813 0.22591 0.85997 0.0
C530 C 0.89648 0.21234 0.86614 0.0
C531 C 0.89107 0.20666 0.88677 0.0
C532 C 0.89093 0.21937 0.94041 0.0
C533 C 0.90518 0.22253 0.94424 0.0
C534 C 0.91508 0.23506 0.95669 0.0
C535 C 0.91085 0.24462 0.96584 0.0
C536 C 0.89624 0.2408 0.96365 0.0
C537 C 0.88637 0.22835 0.95094 0.0
C538 C 0.86681 0.19951 0.92566 0.0
C539 C 0.8575 0.20481 0.92116 0.0
C540 C 0.8423 0.19522 0.9217 0.0
C541 C 0.83598 0.17997 0.92604 0.0
C542 C 0.84534 0.17477 0.93085 0.0
C543 C 0.86057 0.18448 0.93076 0.0
H544 H 0.79991 0.73158 0.90123 0.0
N545 N 0.8062 0.7116 0.9138 0.0
H546 H 0.78789 0.73135 0.86741 0.0
H547 H 0.79886 0.69176 0.87913 0.0
H548 H 0.78675 0.69133 0.84578 0.0
H549 H 0.78233 0.683 0.91161 0.0
H550 H 0.76242 0.67171 0.93777 0.0
H551 H 0.80565 0.72213 0.95336 0.0
H552 H 0.78612 0.71052 0.98051 0.0
H553 H 0.83376 0.73389 0.91766 0.0
H554 H 0.80711 0.68604 0.91036 0.0
H555 H 0.85588 0.73266 0.91657 0.0
H556 H 0.8291 0.68467 0.90744 0.0
H557 H 0.9227 0.72503 0.88221 0.0
H558 H 0.9305 0.72129 0.84621 0.0
H559 H 0.88791 0.68131 0.83623 0.0
H560 H 0.88027 0.68516 0.8724 0.0
H561 H 0.88739 0.67752 0.90478 0.0
H562 H 0.8981 0.66674 0.9269 0.0
H563 H 0.92708 0.71003 0.95702 0.0
H564 H 0.91644 0.72081 0.93438 0.0
H565 H 0.89285 0.72843 0.88957 0.0
H566 H 0.87048 0.72903 0.89256 0.0
H567 H 0.84917 0.68661 0.92475 0.0
N568 N 0.8974 0.70732 0.902 0.0
H569 H 0.8712 0.68562 0.92023 0.0
C570 C 0.8004 0.71181 0.89281 0.0
C571 C 0.79726 0.72291 0.88899 0.0
C572 C 0.7903 0.72269 0.86976 0.0
C573 C 0.78633 0.71129 0.85391 0.0
C574 C 0.78985 0.70039 0.85749 0.0
C575 C 0.79678 0.70061 0.87672 0.0
C576 C 0.79536 0.70361 0.93035 0.0
C577 C 0.78332 0.68907 0.92663 0.0
C578 C 0.77195 0.68253 0.94182 0.0
C579 C 0.77249 0.69025 0.96124 0.0
C580 C 0.78509 0.70437 0.96552 0.0
C581 C 0.79634 0.71099 0.95015 0.0
C582 C 0.81885 0.71016 0.91372 0.0
C583 C 0.83273 0.72313 0.9156 0.0
C584 C 0.84536 0.72237 0.91473 0.0
C585 C 0.84439 0.70858 0.9115 0.0
C586 C 0.83036 0.6955 0.9101 0.0
C587 C 0.81772 0.69626 0.91147 0.0
C588 C 0.90099 0.70541 0.87993 0.0
C589 C 0.91502 0.71559 0.87208 0.0
C590 C 0.91941 0.71344 0.85151 0.0
C591 C 0.90982 0.70098 0.83837 0.0
C592 C 0.8956 0.69092 0.84607 0.0
C593 C 0.89119 0.69314 0.86667 0.0
C594 C 0.90123 0.70006 0.91784 0.0
C595 C 0.89581 0.68464 0.91647 0.0
C596 C 0.90189 0.67846 0.92926 0.0
C597 C 0.91356 0.68757 0.94354 0.0
C598 C 0.91825 0.70277 0.94593 0.0
C599 C 0.91213 0.70893 0.93317 0.0
C600 C 0.88388 0.70712 0.90474 0.0
C601 C 0.88331 0.71925 0.89722 0.0
C602 C 0.87052 0.71962 0.89917 0.0
C603 C 0.85796 0.70795 0.90917 0.0
C604 C 0.85851 0.69573 0.91672 0.0
C605 C 0.87127 0.69523 0.91432 0.0
H606 H 0.75114 0.6173 0.48509 0.0
N607 N 0.76527 0.6371 0.45413 0.0
H608 H 0.74449 0.62191 0.52158 0.0
H609 H 0.77408 0.66448 0.47306 0.0
H610 H 0.76779 0.66917 0.50932 0.0
H611 H 0.77901 0.66419 0.43409 0.0
H612 H 0.7668 0.67407 0.41326 0.0
H613 H 0.73833 0.62184 0.43813 0.0
H614 H 0.72611 0.63147 0.41672 0.0
H615 H 0.76867 0.61647 0.43418 0.0
H616 H 0.79316 0.66068 0.46327 0.0
H617 H 0.79149 0.61684 0.42807 0.0
H618 H 0.81582 0.66091 0.45821 0.0
H619 H 0.86687 0.62063 0.46304 0.0
H620 H 0.87921 0.62518 0.49816 0.0
H621 H 0.87474 0.6633 0.51008 0.0
H622 H 0.86286 0.65891 0.47475 0.0
H623 H 0.88016 0.66688 0.44266 0.0
H624 H 0.90197 0.67719 0.41995 0.0
H625 H 0.88425 0.63442 0.38664 0.0
H626 H 0.86251 0.62406 0.41 0.0
H627 H 0.83125 0.61472 0.44991 0.0
H628 H 0.80864 0.61508 0.44986 0.0
H629 H 0.83345 0.6617 0.43329 0.0
N630 N 0.85838 0.63731 0.44434 0.0
H631 H 0.856 0.66135 0.43423 0.0
C632 C 0.76305 0.64045 0.47628 0.0
C633 C 0.75496 0.62865 0.49047 0.0
C634 C 0.75122 0.63132 0.51129 0.0
C635 C 0.7555 0.6459 0.51825 0.0
C636 C 0.7641 0.65778 0.5043 0.0
C637 C 0.76782 0.65511 0.48355 0.0
C638 C 0.75948 0.64228 0.4379 0.0
C639 C 0.76755 0.65687 0.42998 0.0
C640 C 0.76056 0.6625 0.41798 0.0
C641 C 0.74542 0.65363 0.41369 0.0
C642 C 0.73771 0.63868 0.42016 0.0
C643 C 0.74468 0.63311 0.4322 0.0
C644 C 0.77911 0.63838 0.44942 0.0
C645 C 0.77898 0.62626 0.43919 0.0
C646 C 0.79202 0.62647 0.43588 0.0
C647 C 0.80551 0.63883 0.4429 0.0
C648 C 0.80567 0.65124 0.45242 0.0
C649 C 0.79263 0.65107 0.45554 0.0
C650 C 0.8639 0.63933 0.46626 0.0
C651 C 0.86838 0.62981 0.47344 0.0
C652 C 0.87537 0.63242 0.49354 0.0
C653 C 0.87803 0.64466 0.50693 0.0
C654 C 0.87307 0.65391 0.50004 0.0
C655 C 0.86612 0.65132 0.47988 0.0
C656 C 0.86971 0.64458 0.42815 0.0
C657 C 0.88074 0.65979 0.43012 0.0
C658 C 0.89324 0.66572 0.417 0.0
C659 C 0.89496 0.65658 0.40167 0.0
C660 C 0.88338 0.64169 0.39857 0.0
C661 C 0.8709 0.63577 0.41174 0.0
C662 C 0.8453 0.63789 0.44199 0.0
C663 C 0.83174 0.62495 0.44603 0.0
C664 C 0.81884 0.62518 0.44586 0.0
C665 C 0.81919 0.63842 0.44152 0.0
C666 C 0.83278 0.65135 0.43695 0.0
C667 C 0.84573 0.65113 0.43729 0.0
H668 H 0.3811 0.12659 0.45402 0.0
N669 N 0.36122 0.13293 0.44243 0.0
H670 H 0.38254 0.1162 0.48843 0.0
H671 H 0.34502 0.12972 0.47936 0.0
H672 H 0.3462 0.11917 0.5134 0.0
H673 H 0.33323 0.10959 0.44994 0.0
H674 H 0.32049 0.0863 0.429 0.0
H675 H 0.36828 0.12787 0.4029 0.0
H676 H 0.35511 0.10484 0.38086 0.0
H677 H 0.38299 0.16029 0.43413 0.0
H678 H 0.33654 0.13456 0.44673 0.0
H679 H 0.38208 0.18295 0.43231 0.0
H680 H 0.3356 0.1572 0.44634 0.0
H681 H 0.37272 0.25064 0.47109 0.0
H682 H 0.36618 0.2565 0.50664 0.0
H683 H 0.32736 0.21221 0.5077 0.0
H684 H 0.33386 0.20664 0.47187 0.0
H685 H 0.32847 0.21532 0.43825 0.0
H686 H 0.31931 0.2275 0.41586 0.0
H687 H 0.36368 0.26028 0.39743 0.0
H688 H 0.37281 0.24779 0.41962 0.0
H689 H 0.3791 0.22228 0.45788 0.0
H690 H 0.37983 0.19953 0.45565 0.0
H691 H 0.33697 0.17629 0.42537 0.0
N692 N 0.3574 0.22589 0.44706 0.0
H693 H 0.33605 0.19885 0.42875 0.0
C694 C 0.36304 0.129 0.464 0.0
C695 C 0.37368 0.12529 0.46713 0.0
C696 C 0.37438 0.11923 0.48671 0.0
C697 C 0.3644 0.11673 0.50359 0.0
C698 C 0.35416 0.12109 0.50082 0.0
C699 C 0.35346 0.12714 0.48123 0.0
C700 C 0.35195 0.12037 0.42822 0.0
C701 C 0.33802 0.10875 0.43478 0.0
C702 C 0.33064 0.0954 0.42259 0.0
C703 C 0.33689 0.09349 0.40339 0.0
C704 C 0.35017 0.1057 0.39589 0.0
C705 C 0.35765 0.11894 0.4083 0.0
C706 C 0.35994 0.14583 0.44084 0.0
C707 C 0.37261 0.15959 0.43663 0.0
C708 C 0.37206 0.17253 0.43578 0.0
C709 C 0.35879 0.17201 0.43947 0.0
C710 C 0.34599 0.15807 0.44321 0.0
C711 C 0.34653 0.14508 0.44371 0.0
C712 C 0.35385 0.22827 0.4689 0.0
C713 C 0.36291 0.24218 0.47918 0.0
C714 C 0.35917 0.24545 0.49952 0.0
C715 C 0.34623 0.23482 0.51005 0.0
C716 C 0.3373 0.22071 0.49992 0.0
C717 C 0.34105 0.21746 0.47951 0.0
C718 C 0.3514 0.23059 0.43043 0.0
C719 C 0.33622 0.22472 0.4287 0.0
C720 C 0.33097 0.23173 0.41592 0.0
C721 C 0.3408 0.24486 0.40502 0.0
C722 C 0.35588 0.25018 0.40573 0.0
C723 C 0.36109 0.24304 0.41825 0.0
C724 C 0.35766 0.21243 0.4434 0.0
C725 C 0.36993 0.21229 0.4506 0.0
C726 C 0.37034 0.19926 0.44917 0.0
C727 C 0.35847 0.186 0.44022 0.0
C728 C 0.34623 0.18621 0.43263 0.0
C729 C 0.34576 0.19924 0.43436 0.0
H730 H 0.77697 0.10421 0.45869 0.0
N731 N 0.78057 0.13028 0.44397 0.0
H732 H 0.76783 0.09351 0.49429 0.0
H733 H 0.77359 0.14211 0.47723 0.0
H734 H 0.76463 0.13157 0.51329 0.0
H735 H 0.75447 0.12416 0.43096 0.0
H736 H 0.7372 0.10352 0.40695 0.0
H737 H 0.7871 0.11269 0.41749 0.0
H738 H 0.76999 0.09222 0.39384 0.0
H739 H 0.80131 0.1226 0.44824 0.0
H740 H 0.79536 0.15912 0.43521 0.0
H741 H 0.82766 0.13917 0.44617 0.0
H742 H 0.82192 0.17625 0.43509 0.0
H743 H 0.9108 0.20358 0.47584 0.0
H744 H 0.91835 0.21586 0.51171 0.0
H745 H 0.88303 0.22443 0.51058 0.0
H746 H 0.87595 0.21262 0.47434 0.0
H747 H 0.8907 0.22665 0.44182 0.0
H748 H 0.9089 0.24647 0.41887 0.0
H749 H 0.92622 0.21876 0.40027 0.0
H750 H 0.90783 0.1989 0.42322 0.0
H751 H 0.87307 0.17449 0.46941 0.0
H752 H 0.84679 0.15716 0.46633 0.0
H753 H 0.84444 0.18534 0.41861 0.0
N754 N 0.88938 0.20062 0.45076 0.0
H755 H 0.87047 0.20312 0.42305 0.0
C756 C 0.77594 0.12401 0.46529 0.0
C757 C 0.77444 0.11035 0.47052 0.0
C758 C 0.76925 0.10425 0.49098 0.0
C759 C 0.76548 0.11168 0.50666 0.0
C760 C 0.76725 0.12547 0.50149 0.0
C761 C 0.77244 0.13156 0.481 0.0
C762 C 0.77209 0.12008 0.42632 0.0
C763 C 0.75805 0.11747 0.42243 0.0
C764 C 0.74817 0.10562 0.40887 0.0
C765 C 0.7522 0.09616 0.39873 0.0
C766 C 0.76659 0.09937 0.40135 0.0
C767 C 0.77643 0.11115 0.41508 0.0
C768 C 0.79627 0.13956 0.44137 0.0
C769 C 0.80565 0.13418 0.44468 0.0
C770 C 0.82084 0.14382 0.44391 0.0
C771 C 0.8271 0.1592 0.44068 0.0
C772 C 0.81764 0.16449 0.4372 0.0
C773 C 0.80242 0.15474 0.43739 0.0
C774 C 0.89282 0.20709 0.47252 0.0
C775 C 0.90466 0.20803 0.48347 0.0
C776 C 0.90888 0.21498 0.50401 0.0
C777 C 0.90126 0.2211 0.51413 0.0
C778 C 0.88925 0.22001 0.50319 0.0
C779 C 0.88511 0.21314 0.48254 0.0
C780 C 0.89796 0.21128 0.43429 0.0
C781 C 0.8982 0.22471 0.43248 0.0
C782 C 0.90867 0.23607 0.41943 0.0
C783 C 0.91912 0.23425 0.40797 0.0
C784 C 0.91826 0.22047 0.40875 0.0
C785 C 0.90779 0.20912 0.42185 0.0
C786 C 0.87392 0.1902 0.44669 0.0
C787 C 0.86687 0.1769 0.45825 0.0
C788 C 0.8518 0.1669 0.45626 0.0
C789 C 0.84333 0.16972 0.44211 0.0
C790 C 0.85047 0.18287 0.43 0.0
C791 C 0.86554 0.19308 0.43241 0.0
H792 H 0.00801 0.55649 0.20238 0.0
N793 N 0.99032 0.54955 0.23837 0.0
H794 H 0.00381 0.56365 0.16704 0.0
H795 H 0.96631 0.54864 0.22512 0.0
H796 H 0.96202 0.55583 0.18961 0.0
H797 H 0.98122 0.55277 0.27755 0.0
H798 H 0.991 0.57573 0.29984 0.0
H799 H 0.01522 0.57663 0.23005 0.0
H800 H 0.0246 0.5995 0.25149 0.0
H801 H 0.01905 0.55691 0.24285 0.0
H802 H 0.97439 0.51998 0.23626 0.0
H803 H 0.02761 0.53968 0.24317 0.0
H804 H 0.98298 0.50258 0.23535 0.0
H805 H 0.04462 0.4759 0.20301 0.0
H806 H 0.03958 0.46218 0.16832 0.0
H807 H 0.99495 0.45228 0.17049 0.0
H808 H 2e-05 0.4656 0.20559 0.0
H809 H 0.00068 0.45219 0.23843 0.0
H810 H 0.99901 0.43289 0.26137 0.0
H811 H 0.045 0.46133 0.27739 0.0
H812 H 0.04638 0.4809 0.255 0.0
H813 H 0.03927 0.50639 0.21554 0.0
H814 H 0.03098 0.52396 0.21923 0.0
H815 H 0.99315 0.49141 0.2554 0.0
N816 N 0.02583 0.47848 0.22846 0.0
H817 H 0.00109 0.47375 0.25069 0.0
C818 C 0.98744 0.55206 0.21649 0.0
C819 C 0.99784 0.55608 0.19969 0.0
C820 C 0.99547 0.56025 0.17951 0.0
C821 C 0.98264 0.56041 0.17564 0.0
C822 C 0.97195 0.55572 0.19208 0.0
C823 C 0.97439 0.55165 0.21234 0.0
C824 C 0.99731 0.56291 0.25205 0.0
C825 C 0.99084 0.56292 0.27203 0.0
C826 C 0.99639 0.57607 0.28463 0.0
C827 C 0.00853 0.58954 0.2774 0.0
C828 C 0.01535 0.58935 0.25776 0.0
C829 C 0.00986 0.57622 0.24527 0.0
C830 C 0.99593 0.53974 0.23977 0.0
C831 C 0.01101 0.5451 0.24159 0.0
C832 C 0.01596 0.53517 0.24152 0.0
C833 C 0.00602 0.51968 0.23921 0.0
C834 C 0.99096 0.51438 0.23756 0.0
C835 C 0.98601 0.52431 0.23794 0.0
C836 C 0.02279 0.47186 0.20681 0.0
C837 C 0.03383 0.47095 0.19578 0.0
C838 C 0.03091 0.46314 0.17591 0.0
C839 C 0.01683 0.4561 0.16655 0.0
C840 C 0.00585 0.45739 0.17735 0.0
C841 C 0.00877 0.46514 0.19734 0.0
C842 C 0.0237 0.4681 0.2451 0.0
C843 C 0.01029 0.45451 0.24744 0.0
C844 C 0.0094 0.44337 0.26039 0.0
C845 C 0.02193 0.44544 0.27096 0.0
C846 C 0.0351 0.45938 0.26966 0.0
C847 C 0.03593 0.47058 0.25685 0.0
C848 C 0.02096 0.48877 0.23283 0.0
C849 C 0.02924 0.50312 0.2244 0.0
C850 C 0.02451 0.51318 0.22666 0.0
C851 C 0.01138 0.50916 0.23767 0.0
C852 C 0.0032 0.49484 0.24652 0.0
C853 C 0.00785 0.4847 0.244 0.0
H854 H 0.57955 0.54548 0.22998 0.0
N855 N 0.55547 0.54126 0.24955 0.0
H856 H 0.58962 0.55731 0.19508 0.0
H857 H 0.54157 0.54871 0.21975 0.0
H858 H 0.5512 0.55998 0.18472 0.0
H859 H 0.54799 0.56239 0.25499 0.0
H860 H 0.5612 0.5852 0.27735 0.0
H861 H 0.57552 0.54741 0.27955 0.0
H862 H 0.58894 0.57036 0.30187 0.0
H863 H 0.55056 0.5143 0.25624 0.0
H864 H 0.52839 0.5384 0.25069 0.0
H865 H 0.52695 0.491 0.25973 0.0
H866 H 0.50481 0.5152 0.25243 0.0
H867 H 0.4474 0.42072 0.22648 0.0
H868 H 0.4351 0.41458 0.19113 0.0
H869 H 0.44308 0.45927 0.18856 0.0
H870 H 0.455 0.46513 0.22421 0.0
H871 H 0.43901 0.45572 0.25703 0.0
H872 H 0.41732 0.44391 0.28019 0.0
H873 H 0.42951 0.41318 0.30211 0.0
H874 H 0.4514 0.42534 0.27916 0.0
H875 H 0.48366 0.45083 0.23645 0.0
H876 H 0.50736 0.4741 0.2381 0.0
H877 H 0.48743 0.49534 0.2729 0.0
N878 N 0.45795 0.44592 0.24972 0.0
H879 H 0.46369 0.47232 0.26993 0.0
C880 C 0.55981 0.54612 0.22753 0.0
C881 C 0.57322 0.54839 0.21993 0.0
C882 C 0.57892 0.55512 0.19996 0.0
C883 C 0.57127 0.55971 0.18712 0.0
C884 C 0.55751 0.55683 0.19435 0.0
C885 C 0.55188 0.55019 0.2144 0.0
C886 C 0.56075 0.55313 0.26571 0.0
C887 C 0.5565 0.56372 0.26577 0.0
C888 C 0.5641 0.5768 0.27855 0.0
C889 C 0.57615 0.57958 0.29119 0.0
C890 C 0.57975 0.56854 0.29214 0.0
C891 C 0.57206 0.55542 0.27955 0.0
C892 C 0.5413 0.52804 0.2528 0.0
C893 C 0.54057 0.51452 0.25566 0.0
C894 C 0.52704 0.50121 0.25743 0.0
C895 C 0.51386 0.50108 0.25598 0.0
C896 C 0.51466 0.51478 0.25379 0.0
C897 C 0.52823 0.52814 0.25245 0.0
C898 C 0.45214 0.44333 0.22791 0.0
C899 C 0.44663 0.42921 0.2181 0.0
C900 C 0.43968 0.42577 0.19787 0.0
C901 C 0.4381 0.43644 0.18698 0.0
C902 C 0.44395 0.45074 0.19662 0.0
C903 C 0.45087 0.45416 0.21693 0.0
C904 C 0.44687 0.44138 0.26637 0.0
C905 C 0.43727 0.44674 0.26727 0.0
C906 C 0.42477 0.43987 0.2804 0.0
C907 C 0.42157 0.42747 0.29279 0.0
C908 C 0.43169 0.42279 0.29294 0.0
C909 C 0.44421 0.42969 0.27983 0.0
C910 C 0.47186 0.45966 0.25308 0.0
C911 C 0.48446 0.4605 0.24457 0.0
C912 C 0.49804 0.47383 0.2457 0.0
C913 C 0.49942 0.4867 0.25574 0.0
C914 C 0.4868 0.48577 0.26474 0.0
C915 C 0.47314 0.47246 0.26324 0.0
H916 H 0.52908 0.95322 0.19641 0.0
N917 N 0.52695 0.97264 0.22218 0.0
H918 H 0.54353 0.95823 0.16316 0.0
H919 H 0.54296 0.99969 0.20264 0.0
H920 H 0.55702 0.0048 0.16886 0.0
H921 H 0.55313 0.99604 0.23728 0.0
H922 H 0.56913 0.99466 0.26374 0.0
H923 H 0.52022 0.94991 0.24766 0.0
H924 H 0.53606 0.94847 0.27466 0.0
H925 H 0.50347 0.96548 0.19875 0.0
H926 H 0.52986 0.99434 0.25209 0.0
H927 H 0.48787 0.97588 0.2014 0.0
H928 H 0.51373 0.00394 0.25592 0.0
H929 H 0.43408 0.991 0.22357 0.0
H930 H 0.42112 0.9895 0.19047 0.0
H931 H 0.45808 0.03192 0.17077 0.0
H932 H 0.47085 0.03355 0.20454 0.0
H933 H 0.45345 0.03175 0.25552 0.0
H934 H 0.43482 0.02532 0.28359 0.0
H935 H 0.43027 0.98227 0.28967 0.0
H936 H 0.44827 0.98842 0.26134 0.0
H937 H 0.45366 0.9856 0.22377 0.0
H938 H 0.46968 0.97581 0.2216 0.0
H939 H 0.50639 0.01912 0.24138 0.0
N940 N 0.46126 0.014 0.2365 0.0
H941 H 0.48984 0.02852 0.24504 0.0
C942 C 0.53485 0.97599 0.20185 0.0
C943 C 0.53509 0.96446 0.19033 0.0
C944 C 0.54329 0.96737 0.17127 0.0
C945 C 0.5514 0.98192 0.1632 0.0
C946 C 0.55105 0.99349 0.1747 0.0
C947 C 0.54291 0.99058 0.19392 0.0
C948 C 0.53548 0.97299 0.24044 0.0
C949 C 0.54921 0.9857 0.24564 0.0
C950 C 0.55833 0.98491 0.2609 0.0
C951 C 0.55392 0.97141 0.27117 0.0
C952 C 0.53985 0.95897 0.26679 0.0
C953 C 0.53074 0.95979 0.25155 0.0
C954 C 0.51786 0.97897 0.2251 0.0
C955 C 0.50579 0.97392 0.21121 0.0
C956 C 0.49679 0.97982 0.21293 0.0
C957 C 0.49938 0.99071 0.22904 0.0
C958 C 0.51147 0.99575 0.24307 0.0
C959 C 0.5207 0.99008 0.24101 0.0
C960 C 0.45347 0.0125 0.21662 0.0
C961 C 0.43944 -1e-05 0.21217 0.0
C962 C 0.43205 0.99909 0.19309 0.0
C963 C 0.43854 0.01059 0.17789 0.0
C964 C 0.45266 0.02297 0.18224 0.0
C965 C 0.46002 0.02389 0.20142 0.0
C966 C 0.45232 0.01067 0.25591 0.0
C967 C 0.44863 0.02104 0.26324 0.0
C968 C 0.43801 0.01735 0.27936 0.0
C969 C 0.43088 0.00318 0.2887 0.0
C970 C 0.43528 0.99316 0.28245 0.0
C971 C 0.44578 0.99678 0.26617 0.0
C972 C 0.47053 0.00782 0.23486 0.0
C973 C 0.46512 0.99299 0.22782 0.0
C974 C 0.4744 0.98743 0.22636 0.0
C975 C 0.48945 0.99665 0.23119 0.0
C976 C 0.49485 0.01156 0.23792 0.0
C977 C 0.48545 0.01701 0.23987 0.0
H978 H 0.41302 0.95688 0.80006 0.0
N979 N 0.43844 0.97669 0.78224 0.0
H980 H 0.40331 0.95878 0.8356 0.0
H981 H 0.45334 0.99846 0.81386 0.0
H982 H 0.44381 0.00038 0.84918 0.0
H983 H 0.44507 0.00566 0.7824 0.0
H984 H 0.43514 0.01589 0.75779 0.0
H985 H 0.42396 0.96418 0.74544 0.0
H986 H 0.41477 0.97465 0.71963 0.0
H987 H 0.44127 0.95343 0.77516 0.0
H988 H 0.46632 0.00134 0.78233 0.0
H989 H 0.46384 0.95326 0.77078 0.0
H990 H 0.48905 0.00132 0.78006 0.0
H991 H 0.54104 0.95819 0.78504 0.0
H992 H 0.55314 0.95975 0.81935 0.0
H993 H 0.54683 0.99528 0.84195 0.0
H994 H 0.53525 0.99397 0.80729 0.0
H995 H 0.55277 0.00527 0.77554 0.0
H996 H 0.5745 0.01823 0.75282 0.0
H997 H 0.55758 0.97896 0.71077 0.0
H998 H 0.53611 0.96582 0.73445 0.0
H999 H 0.50547 0.95492 0.78722 0.0
H1000 H 0.48316 0.9556 0.78976 0.0
H1001 H 0.50533 0.99846 0.75876 0.0
N1002 N 0.5315 0.97557 0.77232 0.0
H1003 H 0.52783 0.99822 0.75791 0.0
C1004 C 0.43386 0.97746 0.80419 0.0
C1005 C 0.41985 0.96627 0.81089 0.0
C1006 C 0.41435 0.96737 0.83118 0.0
C1007 C 0.42277 0.97978 0.84511 0.0
C1008 C 0.437 0.99078 0.83867 0.0
C1009 C 0.44251 0.98962 0.81845 0.0
C1010 C 0.43489 0.98396 0.76605 0.0
C1011 C 0.43851 0.99882 0.76873 0.0
C1012 C 0.43293 0.00474 0.7544 0.0
C1013 C 0.42388 0.99603 0.73683 0.0
C1014 C 0.42129 0.98156 0.73331 0.0
C1015 C 0.42665 0.97558 0.74789 0.0
C1016 C 0.45211 0.97729 0.77957 0.0
C1017 C 0.45171 0.9639 0.77612 0.0
C1018 C 0.46468 0.96386 0.77386 0.0
C1019 C 0.47843 0.97726 0.77547 0.0
C1020 C 0.47875 0.99076 0.77856 0.0
C1021 C 0.46572 0.9908 0.78027 0.0
C1022 C 0.53721 0.97587 0.79363 0.0
C1023 C 0.54215 0.96618 0.79755 0.0
C1024 C 0.54899 0.96706 0.81721 0.0
C1025 C 0.551 0.97767 0.83344 0.0
C1026 C 0.54567 0.98713 0.8297 0.0
C1027 C 0.53891 0.98631 0.80996 0.0
C1028 C 0.5429 0.98444 0.75685 0.0
C1029 C 0.55363 0.9995 0.7613 0.0
C1030 C 0.56604 0.00696 0.7481 0.0
C1031 C 0.56794 0.99959 0.73007 0.0
C1032 C 0.55665 0.98488 0.7248 0.0
C1033 C 0.5443 0.97738 0.73814 0.0
C1034 C 0.51841 0.9764 0.7724 0.0
C1035 C 0.5055 0.96447 0.78102 0.0
C1036 C 0.49268 0.96484 0.78225 0.0
C1037 C 0.49226 0.97704 0.7743 0.0
C1038 C 0.50519 0.98897 0.7654 0.0
C1039 C 0.51816 0.98876 0.76469 0.0
H1040 H 0.97715 0.54972 0.79762 0.0
N1041 N 4e-05 0.54872 0.77881 0.0
H1042 H 0.9766 0.5591 0.8339 0.0
H1043 H 0.02044 0.55807 0.80968 0.0
H1044 H 0.01969 0.56676 0.84679 0.0
H1045 H 0.01603 0.57597 0.76328 0.0
H1046 H 0.00766 0.58907 0.74125 0.0
H1047 H 0.9733 0.53576 0.75735 0.0
H1048 H 0.96509 0.54858 0.73497 0.0
H1049 H 0.97347 0.52449 0.79031 0.0
H1050 H 0.01579 0.53771 0.76311 0.0
H1051 H 0.96641 0.49848 0.7881 0.0
H1052 H 0.00919 0.51165 0.76207 0.0
H1053 H 0.95548 0.41798 0.80283 0.0
H1054 H 0.96328 0.40956 0.83374 0.0
H1055 H 0.0069 0.44854 0.829 0.0
H1056 H 0.99897 0.45692 0.79818 0.0
H1057 H 0.99773 0.4458 0.76175 0.0
H1058 H 0.99993 0.4287 0.73658 0.0
H1059 H 0.95287 0.40308 0.72841 0.0
H1060 H 0.95078 0.4203 0.75366 0.0
H1061 H 0.9642 0.45603 0.80609 0.0
H1062 H 0.97084 0.48193 0.80552 0.0
H1063 H 0.99483 0.48781 0.74565 0.0
N1064 N 0.972 0.44155 0.77847 0.0
H1065 H 0.98888 0.46225 0.74689 0.0
C1066 C 0.99901 0.55342 0.80075 0.0
C1067 C 0.98653 0.55346 0.80815 0.0
C1068 C 0.98616 0.55869 0.82912 0.0
C1069 C 0.99811 0.56375 0.84341 0.0
C1070 C 0.01039 0.56325 0.83616 0.0
C1071 C 0.01082 0.55819 0.81503 0.0
C1072 C 0.99542 0.55491 0.76222 0.0
C1073 C 0.005 0.56985 0.75671 0.0
C1074 C 0.00019 0.5773 0.74407 0.0
C1075 C 0.98562 0.56992 0.73655 0.0
C1076 C 0.97628 0.55468 0.74088 0.0
C1077 C 0.98108 0.54726 0.75363 0.0
C1078 C 0.99516 0.53309 0.7766 0.0
C1079 C 0.98125 0.5218 0.78375 0.0
C1080 C 0.97729 0.50687 0.78274 0.0
C1081 C 0.98726 0.50288 0.77508 0.0
C1082 C 0.00112 0.51421 0.76775 0.0
C1083 C 0.00496 0.52913 0.76842 0.0
C1084 C 0.97658 0.43803 0.79827 0.0
C1085 C 0.96665 0.4248 0.80873 0.0
C1086 C 0.97116 0.41996 0.82621 0.0
C1087 C 0.98574 0.42832 0.83364 0.0
C1088 C 0.99558 0.44191 0.8237 0.0
C1089 C 0.99107 0.44669 0.80608 0.0
C1090 C 0.97402 0.43423 0.75971 0.0
C1091 C 0.98792 0.43676 0.75409 0.0
C1092 C 0.98916 0.42695 0.73976 0.0
C1093 C 0.97656 0.41444 0.73078 0.0
C1094 C 0.9628 0.41267 0.73495 0.0
C1095 C 0.96157 0.42248 0.74936 0.0
C1096 C 0.97615 0.45702 0.77691 0.0
C1097 C 0.971 0.46293 0.79292 0.0
C1098 C 0.97468 0.47775 0.79241 0.0
C1099 C 0.98336 0.48704 0.77548 0.0
C1100 C 0.98835 0.4811 0.75917 0.0
C1101 C 0.98485 0.4663 0.75987 0.0
H1102 H 0.44837 0.43422 0.80599 0.0
N1103 N 0.45189 0.45843 0.78463 0.0
H1104 H 0.43789 0.4261 0.84202 0.0
H1105 H 0.442 0.47138 0.81179 0.0
H1106 H 0.43142 0.46326 0.84821 0.0
H1107 H 0.42599 0.44843 0.76638 0.0
H1108 H 0.41152 0.42557 0.74457 0.0
H1109 H 0.46219 0.4413 0.7659 0.0
H1110 H 0.44807 0.41889 0.74366 0.0
H1111 H 0.47291 0.45328 0.79962 0.0
H1112 H 0.46652 0.48584 0.76902 0.0
H1113 H 0.49916 0.4707 0.80015 0.0
H1114 H 0.493 0.50386 0.77057 0.0
H1115 H 0.58168 0.53371 0.82062 0.0
H1116 H 0.59074 0.5482 0.85479 0.0
H1117 H 0.55831 0.56067 0.85012 0.0
H1118 H 0.54916 0.5459 0.81623 0.0
H1119 H 0.55951 0.55482 0.78079 0.0
H1120 H 0.57718 0.57398 0.75645 0.0
H1121 H 0.59834 0.54884 0.74629 0.0
H1122 H 0.58054 0.52969 0.77066 0.0
H1123 H 0.54266 0.50965 0.82235 0.0
H1124 H 0.51644 0.49221 0.81916 0.0
H1125 H 0.51652 0.51042 0.75689 0.0
N1126 N 0.56052 0.53093 0.79505 0.0
H1127 H 0.54256 0.52833 0.76052 0.0
C1128 C 0.44604 0.45351 0.80618 0.0
C1129 C 0.44486 0.44074 0.81509 0.0
C1130 C 0.43888 0.43612 0.83577 0.0
C1131 C 0.43389 0.44408 0.84799 0.0
C1132 C 0.43509 0.45685 0.83911 0.0
C1133 C 0.44117 0.46153 0.81841 0.0
C1134 C 0.44514 0.44669 0.76808 0.0
C1135 C 0.43098 0.44221 0.76103 0.0
C1136 C 0.42274 0.42913 0.74851 0.0
C1137 C 0.42856 0.42025 0.74259 0.0
C1138 C 0.44312 0.42528 0.74836 0.0
C1139 C 0.45131 0.43829 0.76105 0.0
C1140 C 0.46765 0.46819 0.78406 0.0
C1141 C 0.47712 0.46418 0.79294 0.0
C1142 C 0.49222 0.47429 0.79346 0.0
C1143 C 0.49826 0.4888 0.78564 0.0
C1144 C 0.48879 0.49274 0.77651 0.0
C1145 C 0.47366 0.48249 0.77568 0.0
C1146 C 0.56481 0.53872 0.81592 0.0
C1147 C 0.57647 0.53946 0.82714 0.0
C1148 C 0.58168 0.54783 0.84652 0.0
C1149 C 0.57531 0.55568 0.85507 0.0
C1150 C 0.56338 0.55467 0.84405 0.0
C1151 C 0.55819 0.54631 0.82461 0.0
C1152 C 0.56879 0.54083 0.77762 0.0
C1153 C 0.56778 0.5533 0.77304 0.0
C1154 C 0.57792 0.56427 0.75917 0.0
C1155 C 0.58925 0.563 0.74965 0.0
C1156 C 0.58967 0.55009 0.75321 0.0
C1157 C 0.57954 0.53914 0.76713 0.0
C1158 C 0.5448 0.52083 0.79223 0.0
C1159 C 0.53704 0.51009 0.80813 0.0
C1160 C 0.52201 0.49994 0.80612 0.0
C1161 C 0.51429 0.49986 0.78774 0.0
C1162 C 0.52203 0.51035 0.7715 0.0
C1163 C 0.5371 0.52069 0.77364 0.0
H1164 H 0.67629 0.90633 0.56009 0.0
N1165 N 0.65327 0.88099 0.57782 0.0
H1166 H 0.67709 0.91609 0.52447 0.0
H1167 H 0.63226 0.86951 0.54757 0.0
H1168 H 0.63313 0.87915 0.51124 0.0
H1169 H 0.63672 0.88912 0.59903 0.0
H1170 H 0.64474 0.90997 0.62507 0.0
H1171 H 0.68075 0.89772 0.5961 0.0
H1172 H 0.68881 0.91839 0.62238 0.0
H1173 H 0.67736 0.88298 0.55751 0.0
H1174 H 0.64113 0.85603 0.60033 0.0
H1175 H 0.68424 0.86451 0.55729 0.0
H1176 H 0.64869 0.83779 0.60163 0.0
H1177 H 0.70273 0.80454 0.5427 0.0
H1178 H 0.69942 0.79262 0.50683 0.0
H1179 H 0.65422 0.78101 0.50646 0.0
H1180 H 0.65746 0.79217 0.54267 0.0
H1181 H 0.65733 0.77906 0.57707 0.0
H1182 H 0.6553 0.75977 0.60065 0.0
H1183 H 0.70131 0.78798 0.61688 0.0
H1184 H 0.703 0.80739 0.59391 0.0
H1185 H 0.70073 0.83449 0.56984 0.0
H1186 H 0.69456 0.8536 0.57579 0.0
H1187 H 0.64873 0.81897 0.58124 0.0
N1188 N 0.68263 0.80521 0.56746 0.0
H1189 H 0.65526 0.80013 0.57718 0.0
C1190 C 0.6541 0.88714 0.55667 0.0
C1191 C 0.66674 0.90032 0.54974 0.0
C1192 C 0.66726 0.90584 0.52916 0.0
C1193 C 0.65521 0.89836 0.51494 0.0
C1194 C 0.64255 0.88524 0.52188 0.0
C1195 C 0.64205 0.87968 0.54255 0.0
C1196 C 0.65805 0.89184 0.59556 0.0
C1197 C 0.64803 0.89529 0.60444 0.0
C1198 C 0.65264 0.90717 0.61938 0.0
C1199 C 0.66744 0.9159 0.62572 0.0
C1200 C 0.67737 0.91199 0.61762 0.0
C1201 C 0.67273 0.90007 0.6027 0.0
C1202 C 0.65841 0.87075 0.57857 0.0
C1203 C 0.67089 0.87314 0.56704 0.0
C1204 C 0.675 0.86257 0.56722 0.0
C1205 C 0.66703 0.84952 0.5794 0.0
C1206 C 0.65492 0.84748 0.59164 0.0
C1207 C 0.65063 0.85795 0.59109 0.0
C1208 C 0.68048 0.79945 0.54536 0.0
C1209 C 0.69218 0.79956 0.5347 0.0
C1210 C 0.69025 0.79279 0.51413 0.0
C1211 C 0.67653 0.78583 0.50361 0.0
C1212 C 0.66488 0.78605 0.51414 0.0
C1213 C 0.66678 0.79265 0.53487 0.0
C1214 C 0.68036 0.79471 0.58386 0.0
C1215 C 0.66684 0.78128 0.58626 0.0
C1216 C 0.66576 0.77017 0.59956 0.0
C1217 C 0.67818 0.77222 0.61051 0.0
C1218 C 0.69146 0.78603 0.60896 0.0
C1219 C 0.69249 0.79715 0.59578 0.0
C1220 C 0.67849 0.81594 0.57258 0.0
C1221 C 0.68939 0.83111 0.57263 0.0
C1222 C 0.68579 0.84199 0.57579 0.0
C1223 C 0.67107 0.83792 0.57854 0.0
C1224 C 0.66019 0.82262 0.57932 0.0
C1225 C 0.66389 0.81175 0.57666 0.0
H1226 H 0.24981 0.88429 0.5792 0.0
N1227 N 0.22333 0.87892 0.58955 0.0
H1228 H 0.26326 0.8944 0.54517 0.0
H1229 H 0.21226 0.88311 0.5521 0.0
H1230 H 0.22559 0.89338 0.5185 0.0
H1231 H 0.21962 0.9023 0.58193 0.0
H1232 H 0.23117 0.92583 0.60239 0.0
H1233 H 0.23464 0.8838 0.62928 0.0
H1234 H 0.24539 0.90701 0.6509 0.0
H1235 H 0.21692 0.85179 0.59899 0.0
H1236 H 0.197 0.8768 0.58288 0.0
H1237 H 0.19288 0.82877 0.5986 0.0
H1238 H 0.173 0.85375 0.58073 0.0
H1239 H 0.12049 0.76007 0.55273 0.0
H1240 H 0.11047 0.75306 0.51572 0.0
H1241 H 0.11019 0.79388 0.51258 0.0
H1242 H 0.12043 0.80089 0.54951 0.0
H1243 H 0.10568 0.7924 0.58148 0.0
H1244 H 0.08377 0.78022 0.60404 0.0
H1245 H 0.09693 0.75071 0.62793 0.0
H1246 H 0.11914 0.76332 0.60566 0.0
H1247 H 0.15238 0.78895 0.56891 0.0
H1248 H 0.17581 0.8123 0.57342 0.0
H1249 H 0.15322 0.83375 0.59831 0.0
N1250 N 0.12583 0.78393 0.57622 0.0
H1251 H 0.12983 0.81058 0.59239 0.0
C1252 C 0.23004 0.88287 0.5683 0.0
C1253 C 0.24439 0.88598 0.56579 0.0
C1254 C 0.25208 0.89187 0.54644 0.0
C1255 C 0.24553 0.8948 0.52917 0.0
C1256 C 0.23091 0.8911 0.53136 0.0
C1257 C 0.22325 0.88521 0.55072 0.0
C1258 C 0.22664 0.8914 0.60382 0.0
C1259 C 0.22504 0.90314 0.5971 0.0
C1260 C 0.23159 0.91663 0.60901 0.0
C1261 C 0.2396 0.91854 0.6281 0.0
C1262 C 0.23978 0.90617 0.6359 0.0
C1263 C 0.23348 0.89281 0.62375 0.0
C1264 C 0.20879 0.8659 0.5906 0.0
C1265 C 0.20731 0.85225 0.59527 0.0
C1266 C 0.19356 0.8391 0.59478 0.0
C1267 C 0.18094 0.83926 0.58915 0.0
C1268 C 0.1824 0.85312 0.58523 0.0
C1269 C 0.19618 0.86634 0.58617 0.0
C1270 C 0.12108 0.78088 0.55385 0.0
C1271 C 0.11843 0.76756 0.54389 0.0
C1272 C 0.11276 0.76362 0.52279 0.0
C1273 C 0.10951 0.77291 0.51132 0.0
C1274 C 0.11246 0.78645 0.52115 0.0
C1275 C 0.11831 0.79046 0.54221 0.0
C1276 C 0.11412 0.77877 0.59193 0.0
C1277 C 0.1041 0.78358 0.59196 0.0
C1278 C 0.09145 0.77649 0.60475 0.0
C1279 C 0.08848 0.76436 0.61761 0.0
C1280 C 0.09892 0.7601 0.61841 0.0
C1281 C 0.1116 0.76726 0.60567 0.0
C1282 C 0.13935 0.79787 0.5805 0.0
C1283 C 0.15253 0.7987 0.57543 0.0
C1284 C 0.16594 0.81207 0.57822 0.0
C1285 C 0.16652 0.82498 0.5865 0.0
C1286 C 0.15324 0.82413 0.59169 0.0
C1287 C 0.13978 0.81075 0.58852 0.0
H1288 H 0.19679 0.29683 0.53314 0.0
N1289 N 0.19733 0.31678 0.56101 0.0
H1290 H 0.20954 0.30147 0.49828 0.0
H1291 H 0.21192 0.34358 0.54041 0.0
H1292 H 0.22445 0.34833 0.5053 0.0
H1293 H 0.22421 0.34097 0.57234 0.0
H1294 H 0.24257 0.3406 0.5947 0.0
H1295 H 0.19355 0.2946 0.58542 0.0
H1296 H 0.21215 0.29392 0.6072 0.0
H1297 H 0.16916 0.30346 0.55143 0.0
H1298 H 0.20448 0.34319 0.5825 0.0
H1299 H 0.15282 0.31285 0.55762 0.0
H1300 H 0.18813 0.35234 0.58963 0.0
H1301 H 0.12295 0.33636 0.544 0.0
H1302 H 0.11478 0.33873 0.50839 0.0
H1303 H 0.12031 0.38097 0.52901 0.0
H1304 H 0.12859 0.37855 0.56489 0.0
H1305 H 0.12995 0.36659 0.61864 0.0
H1306 H 0.10912 0.3572 0.64381 0.0
H1307 H 0.08233 0.32164 0.59749 0.0
H1308 H 0.10313 0.33072 0.57305 0.0
H1309 H 0.12326 0.32696 0.58588 0.0
H1310 H 0.13983 0.31782 0.58439 0.0
H1311 H 0.17597 0.36229 0.57093 0.0
N1312 N 0.13042 0.35589 0.57902 0.0
H1313 H 0.1593 0.37157 0.57358 0.0
C1314 C 0.20336 0.31978 0.53932 0.0
C1315 C 0.20261 0.30804 0.52692 0.0
C1316 C 0.20987 0.31073 0.50698 0.0
C1317 C 0.21806 0.32529 0.49899 0.0
C1318 C 0.21839 0.33702 0.51111 0.0
C1319 C 0.21113 0.3343 0.53112 0.0
C1320 C 0.20739 0.31777 0.57731 0.0
C1321 C 0.22126 0.33078 0.58047 0.0
C1322 C 0.23187 0.3305 0.59306 0.0
C1323 C 0.22893 0.31717 0.60248 0.0
C1324 C 0.21476 0.30442 0.60036 0.0
C1325 C 0.20412 0.30476 0.5879 0.0
C1326 C 0.18799 0.32246 0.56657 0.0
C1327 C 0.17331 0.31409 0.55993 0.0
C1328 C 0.16397 0.31945 0.56363 0.0
C1329 C 0.16911 0.33335 0.57426 0.0
C1330 C 0.18383 0.34168 0.58118 0.0
C1331 C 0.19321 0.33635 0.57727 0.0
C1332 C 0.12655 0.35741 0.55718 0.0
C1333 C 0.12269 0.34628 0.54086 0.0
C1334 C 0.11802 0.34764 0.52042 0.0
C1335 C 0.11693 0.36005 0.51589 0.0
C1336 C 0.12095 0.37124 0.53209 0.0
C1337 C 0.12575 0.36992 0.5525 0.0
C1338 C 0.11815 0.34952 0.59391 0.0
C1339 C 0.1196 0.35669 0.61411 0.0
C1340 C 0.10767 0.35135 0.62838 0.0
C1341 C 0.09402 0.33868 0.62266 0.0
C1342 C 0.09271 0.33129 0.60261 0.0
C1343 C 0.10461 0.33661 0.58843 0.0
C1344 C 0.14004 0.35012 0.58003 0.0
C1345 C 0.13475 0.33489 0.58306 0.0
C1346 C 0.14427 0.32958 0.58193 0.0
C1347 C 0.15925 0.33926 0.57736 0.0
C1348 C 0.16456 0.35452 0.57478 0.0
C1349 C 0.15505 0.35985 0.57618 0.0
H1350 H 0.02649 0.41416 0.05048 0.0
H1351 H 0.99167 0.42949 0.15582 0.0
H1352 H 0.98006 0.38843 0.06409 0.0
H1353 H 0.03452 0.46156 0.13079 0.0
H1354 H 0.98725 0.41372 0.12335 0.0
H1355 H 0.02986 0.43082 0.08124 0.0
C1356 C 0.01699 0.412 0.05995 0.0
C1357 C 0.00296 0.39986 0.05471 0.0
C1358 C 0.99757 0.42426 0.12493 0.0
C1359 C 0.00678 0.41892 0.09005 0.0
C1360 C 9e-05 0.43334 0.14341 0.0
C1361 C 0.01354 0.44689 0.14617 0.0
C1362 C 0.00863 0.42867 0.10918 0.0
C1363 C 0.0241 0.4511 0.12964 0.0
C1364 C 0.01892 0.42157 0.07747 0.0
C1365 C 0.99106 0.39766 0.06753 0.0
N1366 N 0.02146 0.44199 0.11196 0.0
N1367 N 0.99325 0.40706 0.08471 0.0
H1368 H 0.62509 0.59959 0.07269 0.0
H1369 H 0.57044 0.58365 0.17262 0.0
H1370 H 0.6035 0.62401 0.08567 0.0
H1371 H 0.5878 0.5557 0.15605 0.0
H1372 H 0.58251 0.59847 0.14072 0.0
H1373 H 0.61183 0.58351 0.10328 0.0
C1374 C 0.61757 0.60157 0.08196 0.0
C1375 C 0.61543 0.6132 0.07663 0.0
C1376 C 0.58363 0.58905 0.14397 0.0
C1377 C 0.60023 0.59484 0.11163 0.0
C1378 C 0.57663 0.58048 0.16213 0.0
C1379 C 0.57804 0.56833 0.16706 0.0
C1380 C 0.59222 0.58556 0.13061 0.0
C1381 C 0.58653 0.56506 0.15307 0.0
C1382 C 0.60998 0.59237 0.09939 0.0
C1383 C 0.60552 0.61521 0.08918 0.0
N1384 N 0.59334 0.57364 0.13552 0.0
N1385 N 0.59833 0.60616 0.1061 0.0
H1386 H 0.3774 0.97856 0.07039 0.0
H1387 H 0.43766 0.03317 0.15785 0.0
H1388 H 0.40001 0.02658 0.06741 0.0
H1389 H 0.42097 0.98592 0.15202 0.0
H1390 H 0.42356 0.03112 0.12553 0.0
H1391 H 0.39261 0.98113 0.10139 0.0
C1392 C 0.38557 0.98966 0.07626 0.0
C1393 C 0.38741 0.00238 0.06629 0.0
C1394 C 0.42304 0.02122 0.1313 0.0
C1395 C 0.40489 0.0054 0.10189 0.0
C1396 C 0.43115 0.02239 0.14969 0.0
C1397 C 0.43048 0.00968 0.15779 0.0
C1398 C 0.41411 0.00724 0.12097 0.0
C1399 C 0.42164 0.99597 0.14668 0.0
C1400 C 0.39428 0.99112 0.09394 0.0
C1401 C 0.39821 0.01647 0.07459 0.0
N1402 N 0.41378 0.99511 0.12893 0.0
N1403 N 0.40652 0.01761 0.09197 0.0
H1404 H 0.3912 0.01346 0.94817 0.0
H1405 H 0.40661 0.95873 0.87567 0.0
H1406 H 0.38022 0.96993 0.96905 0.0
H1407 H 0.42445 0.00507 0.86143 0.0
H1408 H 0.39571 0.96205 0.90903 0.0
H1409 H 0.40228 0.01002 0.91528 0.0
C1410 C 0.3911 0.00317 0.94584 0.0
C1411 C 0.38478 0.99197 0.96142 0.0
C1412 C 0.40206 0.9715 0.89864 0.0
C1413 C 0.39743 0.98795 0.92372 0.0
C1414 C 0.40823 0.96959 0.87957 0.0
C1415 C 0.41649 0.98165 0.86578 0.0
C1416 C 0.40405 0.98553 0.90385 0.0
C1417 C 0.41834 0.99552 0.87172 0.0
C1418 C 0.39747 0.00123 0.92707 0.0
C1419 C 0.385 0.97888 0.95751 0.0
N1420 N 0.41212 0.99706 0.89023 0.0
N1421 N 0.39119 0.97721 0.93902 0.0
H1422 H 0.99981 0.37114 0.91466 0.0
H1423 H 0.00315 0.44347 0.86908 0.0
H1424 H 0.0167 0.41228 0.9521 0.0
H1425 H 0.97986 0.39992 0.83759 0.0
H1426 H 0.01082 0.43325 0.89781 0.0
H1427 H 0.99524 0.38262 0.88428 0.0
C1428 C 0.00269 0.38264 0.91645 0.0
C1429 C 0.00855 0.39072 0.93604 0.0
C1430 C 0.00405 0.42595 0.88458 0.0
C1431 C 0.00325 0.40392 0.90129 0.0
C1432 C 0.99972 0.43179 0.86816 0.0
C1433 C 0.99074 0.42249 0.85104 0.0
C1434 C 0.99948 0.41075 0.88374 0.0
C1435 C 0.98656 0.40742 0.85069 0.0
C1436 C 2e-05 0.38917 0.8991 0.0
C1437 C 0.01209 0.4056 0.93734 0.0
N1438 N 0.99095 0.40203 0.86678 0.0
N1439 N 0.00932 0.4117 0.92023 0.0
H1440 H 0.63357 0.6165 0.95511 0.0
H1441 H 0.56035 0.55867 0.8896 0.0
H1442 H 0.59006 0.59974 0.98084 0.0
H1443 H 0.60415 0.57449 0.86597 0.0
H1444 H 0.57083 0.57443 0.92242 0.0
H1445 H 0.62279 0.60198 0.92163 0.0
C1446 C 0.62173 0.6098 0.95371 0.0
C1447 C 0.61271 0.60929 0.97088 0.0
C1448 C 0.57814 0.57445 0.91004 0.0
C1449 C 0.60026 0.59256 0.93248 0.0
C1450 C 0.57217 0.5655 0.89127 0.0
C1451 C 0.58139 0.56519 0.87506 0.0
C1452 C 0.59344 0.58318 0.91259 0.0
C1453 C 0.59662 0.57417 0.87819 0.0
C1454 C 0.61558 0.60149 0.93456 0.0
C1455 C 0.59744 0.60044 0.96805 0.0
N1456 N 0.60215 0.58278 0.89656 0.0
N1457 N 0.59169 0.59238 0.94924 0.0
H1458 H 0.01956 0.61432 0.96599 0.0
H1459 H 0.97463 0.55464 0.8711 0.0
H1460 H 0.97347 0.59617 0.95455 0.0
H1461 H 0.02108 0.58702 0.86619 0.0
H1462 H 0.97413 0.56634 0.90571 0.0
H1463 H 0.02034 0.60084 0.93325 0.0
C1464 C 0.00959 0.60742 0.95669 0.0
C1465 C 0.99645 0.60641 0.9629 0.0
C1466 C 0.98443 0.57081 0.89705 0.0
C1467 C 0.99724 0.59091 0.92574 0.0
C1468 C 0.98473 0.56421 0.87721 0.0
C1469 C 0.99789 0.56993 0.86543 0.0
C1470 C 0.9974 0.58311 0.90542 0.0
C1471 C 0.01069 0.58209 0.87467 0.0
C1472 C 0.01007 0.5998 0.93801 0.0
C1473 C 0.98386 0.59735 0.95024 0.0
N1474 N 0.01012 0.58828 0.89409 0.0
N1475 N 0.98456 0.5899 0.93229 0.0
H1476 H 0.41133 0.40364 0.9742 0.0
H1477 H 0.40904 0.44204 0.86478 0.0
H1478 H 0.37459 0.40739 0.95605 0.0
H1479 H 0.44343 0.43401 0.88059 0.0
H1480 H 0.39734 0.4317 0.89977 0.0
H1481 H 0.42425 0.41694 0.94155 0.0
C1482 C 0.40599 0.40732 0.9634 0.0
C1483 C 0.39181 0.40431 0.96781 0.0
C1484 C 0.40748 0.43226 0.89562 0.0
C1485 C 0.40657 0.41956 0.93029 0.0
C1486 C 0.41421 0.43825 0.87572 0.0
C1487 C 0.42717 0.43879 0.86971 0.0
C1488 C 0.41381 0.42684 0.90964 0.0
C1489 C 0.43332 0.43359 0.88442 0.0
C1490 C 0.41338 0.41491 0.94472 0.0
C1491 C 0.38548 0.40941 0.95324 0.0
N1492 N 0.42656 0.4278 0.90365 0.0
N1493 N 0.39289 0.41674 0.93508 0.0
H1494 H 0.59336 0.96342 0.94153 0.0
H1495 H 0.57069 0.0035 0.85545 0.0
H1496 H 0.60725 0.01005 0.94579 0.0
H1497 H 0.55028 0.95563 0.8576 0.0
H1498 H 0.58473 0.0061 0.88792 0.0
H1499 H 0.57826 0.96034 0.90987 0.0
C1500 C 0.59324 0.973 0.93582 0.0
C1501 C 0.60159 0.98702 0.94632 0.0
C1502 C 0.57714 0.99501 0.88135 0.0
C1503 C 0.58438 0.98357 0.91013 0.0
C1504 C 0.56901 0.9935 0.86286 0.0
C1505 C 0.55922 0.97931 0.85373 0.0
C1506 C 0.57558 0.98226 0.89079 0.0
C1507 C 0.55783 0.96681 0.86386 0.0
C1508 C 0.58459 0.97122 0.91778 0.0
C1509 C 0.60099 0.99903 0.93823 0.0
N1510 N 0.56595 0.96858 0.8818 0.0
N1511 N 0.59258 0.99704 0.9206 0.0
H1512 H 0.59041 0.97004 0.04701 0.0
H1513 H 0.57859 0.00647 0.15442 0.0
H1514 H 0.61726 0.01724 0.06207 0.0
H1515 H 0.5449 0.96431 0.1262 0.0
H1516 H 0.59374 0.01043 0.12215 0.0
H1517 H 0.57462 0.9673 0.0778 0.0
C1518 C 0.593 0.97984 0.05682 0.0
C1519 C 0.60519 0.99389 0.05199 0.0
C1520 C 0.58299 0.00036 0.12302 0.0
C1521 C 0.58715 0.99082 0.08734 0.0
C1522 C 0.57428 0.99811 0.14138 0.0
C1523 C 0.56044 0.98497 0.14317 0.0
C1524 C 0.57791 0.98932 0.10644 0.0
C1525 C 0.5556 0.97445 0.12584 0.0
C1526 C 0.58393 0.97828 0.07433 0.0
C1527 C 0.60795 0.00621 0.06521 0.0
N1528 N 0.56435 0.97681 0.10831 0.0
N1529 N 0.59905 0.00437 0.0824 0.0
H1530 H 0.95328 0.57595 0.0532 0.0
H1531 H 0.00305 0.58581 0.15561 0.0
H1532 H 0.99239 0.6175 0.07206 0.0
H1533 H 0.95831 0.54899 0.1493 0.0
H1534 H 7e-05 0.59631 0.12259 0.0
H1535 H 0.95544 0.56474 0.08638 0.0
C1536 C 0.96227 0.58273 0.06432 0.0
C1537 C 0.97267 0.59769 0.05982 0.0
C1538 C 0.99088 0.58593 0.12838 0.0
C1539 C 0.97528 0.58491 0.09754 0.0
C1540 C 0.99262 0.57986 0.14713 0.0
C1541 C 0.98092 0.56647 0.15514 0.0
C1542 C 0.97737 0.57853 0.11739 0.0
C1543 C 0.96757 0.55937 0.1437 0.0
C1544 C 0.96348 0.57633 0.08324 0.0
C1545 C 0.98409 0.60594 0.07483 0.0
N1546 N 0.96616 0.56546 0.12531 0.0
N1547 N 0.98513 0.59942 0.0929 0.0
H1548 H 0.3938 0.39111 0.06732 0.0
H1549 H 0.41871 0.44427 0.17361 0.0
H1550 H 0.37873 0.42123 0.08224 0.0
H1551 H 0.43846 0.4192 0.15288 0.0
H1552 H 0.40404 0.43612 0.1403 0.0
H1553 H 0.41003 0.40113 0.09889 0.0
C1554 C 0.3939 0.39984 0.07723 0.0
C1555 C 0.38484 0.4053 0.07216 0.0
C1556 C 0.41165 0.43247 0.14299 0.0
C1557 C 0.40343 0.41683 0.10841 0.0
C1558 C 0.42011 0.4372 0.16195 0.0
C1559 C 0.42982 0.43237 0.16614 0.0
C1560 C 0.41283 0.42277 0.12812 0.0
C1561 C 0.43095 0.423 0.15055 0.0
C1562 C 0.40321 0.40559 0.09524 0.0
C1563 C 0.38551 0.41667 0.08555 0.0
N1564 N 0.42251 0.41846 0.13231 0.0
N1565 N 0.3946 0.42202 0.10313 0.0
H1566 H 0.64232 0.72494 0.39105 0.0
H1567 H 0.69597 0.79351 0.46953 0.0
H1568 H 0.68949 0.7468 0.38864 0.0
H1569 H 0.65197 0.75995 0.48865 0.0
H1570 H 0.69274 0.77924 0.43586 0.0
H1571 H 0.64471 0.74053 0.42315 0.0
C1572 C 0.65316 0.73306 0.39719 0.0
C1573 C 0.66572 0.73453 0.38727 0.0
C1574 C 0.68379 0.77506 0.44743 0.0
C1575 C 0.66851 0.75243 0.42362 0.0
C1576 C 0.68564 0.78316 0.46674 0.0
C1577 C 0.6743 0.7779 0.4822 0.0
C1578 C 0.67045 0.76169 0.44332 0.0
C1579 C 0.66099 0.76458 0.47722 0.0
C1580 C 0.6545 0.74189 0.4155 0.0
C1581 C 0.67951 0.74521 0.39589 0.0
N1582 N 0.65944 0.75693 0.45823 0.0
N1583 N 0.68053 0.75378 0.41352 0.0
H1584 H 0.2723 0.92929 0.39924 0.0
H1585 H 0.27401 0.91816 0.52738 0.0
H1586 H 0.30942 0.95788 0.4407 0.0
H1587 H 0.23669 0.88952 0.48632 0.0
H1588 H 0.28755 0.93205 0.49543 0.0
H1589 H 0.25936 0.91405 0.43062 0.0
C1590 C 0.27774 0.93237 0.41494 0.0
C1591 C 0.29197 0.94491 0.41735 0.0
C1592 C 0.27642 0.92268 0.49336 0.0
C1593 C 0.27721 0.92748 0.45334 0.0
C1594 C 0.26872 0.91465 0.5116 0.0
C1595 C 0.25417 0.90263 0.50956 0.0
C1596 C 0.26956 0.91872 0.47287 0.0
C1597 C 0.24781 0.89882 0.48871 0.0
C1598 C 0.27035 0.92364 0.43285 0.0
C1599 C 0.29847 0.94833 0.43808 0.0
N1600 N 0.25553 0.90686 0.4712 0.0
N1601 N 0.29103 0.93968 0.45526 0.0
H1602 H 0.0603 0.35949 0.4167 0.0
H1603 H 0.12343 0.35393 0.47508 0.0
H1604 H 0.09154 0.35252 0.38166 0.0
H1605 H 0.09672 0.36789 0.50846 0.0
H1606 H 0.11205 0.35356 0.44061 0.0
H1607 H 0.07365 0.36286 0.45043 0.0
C1608 C 0.07001 0.35873 0.41607 0.0
C1609 C 0.07476 0.35564 0.39632 0.0
C1610 C 0.10875 0.35681 0.45545 0.0
C1611 C 0.09007 0.35942 0.43493 0.0
C1612 C 0.1152 0.35696 0.47513 0.0
C1613 C 0.11097 0.36089 0.49467 0.0
C1614 C 0.09788 0.36047 0.45531 0.0
C1615 C 0.10039 0.36491 0.49376 0.0
C1616 C 0.07764 0.36068 0.43534 0.0
C1617 C 0.08745 0.35485 0.3965 0.0
N1618 N 0.09412 0.36448 0.47444 0.0
N1619 N 0.0946 0.35662 0.41552 0.0
H1620 H 0.07043 0.35114 0.29526 0.0
H1621 H 0.0647 0.29648 0.19928 0.0
H1622 H 0.04319 0.30327 0.30014 0.0
H1623 H 0.10358 0.34008 0.20992 0.0
H1624 H 0.05528 0.29908 0.23445 0.0
H1625 H 0.08123 0.34779 0.26187 0.0
C1626 C 0.06673 0.33992 0.28931 0.0
C1627 C 0.05588 0.32745 0.30045 0.0
C1628 C 0.06591 0.30802 0.22908 0.0
C1629 C 0.06809 0.32357 0.2622 0.0
C1630 C 0.07138 0.30653 0.20903 0.0
C1631 C 0.085 0.31809 0.20142 0.0
C1632 C 0.07398 0.32125 0.24152 0.0
C1633 C 0.09291 0.33098 0.21475 0.0
C1634 C 0.07295 0.33803 0.27033 0.0
C1635 C 0.05156 0.31318 0.29208 0.0
N1636 N 0.08722 0.33226 0.23403 0.0
N1637 N 0.05758 0.31161 0.27331 0.0
H1638 H 0.70084 0.74471 0.28463 0.0
H1639 H 0.6694 0.76676 0.18455 0.0
H1640 H 0.65482 0.72782 0.27469 0.0
H1641 H 0.71564 0.78816 0.19868 0.0
H1642 H 0.66393 0.75224 0.21737 0.0
H1643 H 0.70657 0.76032 0.25278 0.0
C1644 C 0.69194 0.74427 0.27575 0.0
C1645 C 0.67732 0.73492 0.28233 0.0
C1646 C 0.67528 0.76016 0.21336 0.0
C1647 C 0.68381 0.75276 0.24589 0.0
C1648 C 0.67842 0.76855 0.19467 0.0
C1649 C 0.69302 0.77875 0.1888 0.0
C1650 C 0.6868 0.76187 0.2263 0.0
C1651 C 0.70423 0.7803 0.20238 0.0
C1652 C 0.69523 0.75322 0.2576 0.0
C1653 C 0.66625 0.73485 0.27024 0.0
N1654 N 0.70089 0.77193 0.22045 0.0
N1655 N 0.66972 0.74359 0.2526 0.0
H1656 H 0.25202 0.93202 0.30969 0.0
H1657 H 0.26745 0.90058 0.1989 0.0
H1658 H 0.29477 0.94147 0.2893 0.0
H1659 H 0.22532 0.89468 0.21449 0.0
H1660 H 0.27727 0.91483 0.23287 0.0
H1661 H 0.24168 0.91775 0.27561 0.0
C1662 C 0.25923 0.93113 0.29806 0.0
C1663 C 0.27428 0.93794 0.30239 0.0
C1664 C 0.26587 0.91043 0.22891 0.0
C1665 C 0.26253 0.9216 0.26347 0.0
C1666 C 0.26022 0.90219 0.20958 0.0
C1667 C 0.24551 0.89636 0.2039 0.0
C1668 C 0.25675 0.91287 0.2428 0.0
C1669 C 0.23675 0.89906 0.21817 0.0
C1670 C 0.25333 0.92298 0.27861 0.0
C1671 C 0.28311 0.93642 0.28671 0.0
N1672 N 0.24249 0.90709 0.23702 0.0
N1673 N 0.2771 0.9284 0.26802 0.0
H1674 H 0.70619 0.96585 0.2945 0.0
H1675 H 0.67211 0.91023 0.19096 0.0
H1676 H 0.65982 0.93864 0.28066 0.0
H1677 H 0.7186 0.93699 0.20405 0.0
H1678 H 0.66752 0.92016 0.22436 0.0
H1679 H 0.71108 0.95522 0.26191 0.0
C1680 C 0.69704 0.95763 0.28464 0.0
C1681 C 0.68257 0.95315 0.29033 0.0
C1682 C 0.67874 0.92385 0.22 0.0
C1683 C 0.6881 0.94094 0.25301 0.0
C1684 C 0.68137 0.91808 0.20098 0.0
C1685 C 0.69578 0.92272 0.19469 0.0
C1686 C 0.69058 0.93438 0.23293 0.0
C1687 C 0.70733 0.9332 0.20814 0.0
C1688 C 0.69984 0.95157 0.26603 0.0
C1689 C 0.67115 0.94246 0.27693 0.0
N1690 N 0.70448 0.93868 0.22661 0.0
N1691 N 0.67417 0.93675 0.25892 0.0
H1692 H 0.05768 0.74787 0.29627 0.0
H1693 H 0.07464 0.73319 0.17454 0.0
H1694 H 0.02806 0.70883 0.25736 0.0
H1695 H 0.10058 0.77564 0.2083 0.0
H1696 H 0.05713 0.72445 0.20457 0.0
H1697 H 0.07311 0.75875 0.26413 0.0
C1698 C 0.05433 0.74165 0.28093 0.0
C1699 C 0.04161 0.72735 0.27955 0.0
C1700 C 0.06658 0.73572 0.2054 0.0
C1701 C 0.05929 0.73969 0.24279 0.0
C1702 C 0.07662 0.74067 0.18831 0.0
C1703 C 0.08914 0.7551 0.18907 0.0
C1704 C 0.06913 0.74518 0.22356 0.0
C1705 C 0.09105 0.76444 0.20711 0.0
C1706 C 0.06315 0.74787 0.26259 0.0
C1707 C 0.0378 0.71984 0.25923 0.0
N1708 N 0.08122 0.75926 0.22378 0.0
N1709 N 0.04667 0.72604 0.24173 0.0
H1710 H 0.26197 0.34241 0.29555 0.0
H1711 H 0.22593 0.2938 0.18638 0.0
H1712 H 0.26667 0.30551 0.27524 0.0
H1713 H 0.22132 0.3305 0.2081 0.0
H1714 H 0.23986 0.29698 0.2195 0.0
H1715 H 0.24634 0.3375 0.26408 0.0
C1716 C 0.25971 0.33325 0.28447 0.0
C1717 C 0.26569 0.32439 0.28802 0.0
C1718 C 0.23575 0.30429 0.21705 0.0
C1719 C 0.24772 0.31868 0.25183 0.0
C1720 C 0.22771 0.30242 0.19822 0.0
C1721 C 0.22253 0.31197 0.19439 0.0
C1722 C 0.2386 0.31578 0.23217 0.0
C1723 C 0.22531 0.32305 0.21018 0.0
C1724 C 0.25075 0.33044 0.26649 0.0
C1725 C 0.26232 0.31265 0.27311 0.0
N1726 N 0.23319 0.32468 0.2283 0.0
N1727 N 0.25358 0.31016 0.25562 0.0
H1728 H 0.28861 0.35931 0.40419 0.0
H1729 H 0.21052 0.30835 0.46116 0.0
H1730 H 0.25666 0.31426 0.38302 0.0
H1731 H 0.2458 0.34891 0.49078 0.0
H1732 H 0.22618 0.31206 0.42972 0.0
H1733 H 0.27195 0.3573 0.4335 0.0
C1734 C 0.27808 0.34903 0.40565 0.0
C1735 C 0.27406 0.33691 0.39121 0.0
C1736 C 0.23047 0.32019 0.44305 0.0
C1737 C 0.25495 0.33457 0.42458 0.0
C1738 C 0.22154 0.31806 0.46105 0.0
C1739 C 0.22688 0.32825 0.47878 0.0
C1740 C 0.24485 0.33263 0.44268 0.0
C1741 C 0.24116 0.34081 0.47745 0.0
C1742 C 0.2686 0.34788 0.42239 0.0
C1743 C 0.26027 0.32385 0.39385 0.0
N1744 N 0.24968 0.3426 0.45978 0.0
N1745 N 0.25123 0.32304 0.4102 0.0
H1746 H 0.68688 0.94568 0.39467 0.0
H1747 H 0.63388 0.90021 0.49344 0.0
H1748 H 0.64176 0.9339 0.39888 0.0
H1749 H 0.67829 0.91019 0.48646 0.0
H1750 H 0.63605 0.91152 0.45819 0.0
H1751 H 0.68354 0.93197 0.42776 0.0
C1752 C 0.67624 0.94017 0.40252 0.0
C1753 C 0.6646 0.94101 0.39402 0.0
C1754 C 0.6453 0.91117 0.46434 0.0
C1755 C 0.6607 0.92527 0.43206 0.0
C1756 C 0.64404 0.90464 0.48441 0.0
C1757 C 0.65597 0.90436 0.49302 0.0
C1758 C 0.65858 0.91746 0.4528 0.0
C1759 C 0.66891 0.91041 0.48068 0.0
C1760 C 0.67434 0.93232 0.42143 0.0
C1761 C 0.65105 0.93358 0.40487 0.0
N1762 N 0.66988 0.91676 0.46128 0.0
N1763 N 0.64949 0.92608 0.42339 0.0
H1764 H 0.04541 0.73889 0.40787 0.0
H1765 H 0.11692 0.76107 0.4769 0.0
H1766 H 0.08177 0.73653 0.38159 0.0
H1767 H 0.08586 0.77354 0.49653 0.0
H1768 H 0.10386 0.75133 0.44225 0.0
H1769 H 0.05966 0.75087 0.44099 0.0
C1770 C 0.0564 0.74092 0.40904 0.0
C1771 C 0.06239 0.73666 0.39195 0.0
C1772 C 0.09996 0.75631 0.45406 0.0
C1773 C 0.07873 0.75031 0.42985 0.0
C1774 C 0.10738 0.76181 0.47385 0.0
C1775 C 0.10243 0.76808 0.4896 0.0
C1776 C 0.08739 0.75691 0.4501 0.0
C1777 C 0.0901 0.76889 0.48476 0.0
C1778 C 0.06454 0.7478 0.42792 0.0
C1779 C 0.07671 0.73962 0.39434 0.0
N1780 N 0.08292 0.76325 0.46551 0.0
N1781 N 0.08435 0.74617 0.413 0.0
H1782 H 0.3275 0.08108 0.71542 0.0
H1783 H 0.36722 0.11111 0.83125 0.0
H1784 H 0.35676 0.06906 0.74277 0.0
H1785 H 0.33635 0.12175 0.80635 0.0
H1786 H 0.36377 0.09605 0.79844 0.0
H1787 H 0.33064 0.09622 0.74825 0.0
C1788 C 0.33456 0.08159 0.72832 0.0
C1789 C 0.34189 0.07379 0.72632 0.0
C1790 C 0.35775 0.10167 0.8001 0.0
C1791 C 0.34556 0.09112 0.76387 0.0
C1792 C 0.3598 0.11038 0.81878 0.0
C1793 C 0.35213 0.11778 0.82152 0.0
C1794 C 0.34795 0.10033 0.78392 0.0
C1795 C 0.34241 0.11615 0.80499 0.0
C1796 C 0.33635 0.09024 0.74706 0.0
C1797 C 0.35089 0.07488 0.74357 0.0
N1798 N 0.34062 0.10762 0.78687 0.0
N1799 N 0.35249 0.08339 0.76157 0.0
H1800 H 0.91927 0.27326 0.7391 0.0
H1801 H 0.92154 0.22718 0.83902 0.0
H1802 H 0.95326 0.26337 0.7475 0.0
H1803 H 0.88915 0.23942 0.83197 0.0
H1804 H 0.93247 0.23896 0.8044 0.0
H1805 H 0.90738 0.25968 0.77207 0.0
C1806 C 0.92423 0.26821 0.74785 0.0
C1807 C 0.93733 0.26951 0.74054 0.0
C1808 C 0.92294 0.23903 0.81039 0.0
C1809 C 0.92372 0.25391 0.77841 0.0
C1810 C 0.91663 0.23221 0.83009 0.0
C1811 C 0.90443 0.23235 0.83845 0.0
C1812 C 0.91699 0.24601 0.79893 0.0
C1813 C 0.89867 0.23922 0.8263 0.0
C1814 C 0.91742 0.26045 0.76671 0.0
C1815 C 0.94321 0.26269 0.75256 0.0
N1816 N 0.90501 0.24579 0.8072 0.0
N1817 N 0.93638 0.2552 0.77093 0.0
H1818 H 0.71947 0.70377 0.76756 0.0
H1819 H 0.78951 0.70383 0.81185 0.0
H1820 H 0.74424 0.68973 0.72873 0.0
H1821 H 0.76364 0.71618 0.85127 0.0
H1822 H 0.77409 0.70025 0.78048 0.0
H1823 H 0.73659 0.71005 0.79764 0.0
C1824 C 0.72854 0.70206 0.76531 0.0
C1825 C 0.73037 0.69614 0.74561 0.0
C1826 C 0.77184 0.70383 0.79596 0.0
C1827 C 0.75003 0.7033 0.78004 0.0
C1828 C 0.78061 0.70582 0.8139 0.0
C1829 C 0.77784 0.71025 0.83428 0.0
C1830 C 0.76016 0.70623 0.79838 0.0
C1831 C 0.76629 0.7129 0.83586 0.0
C1832 C 0.73832 0.70565 0.78251 0.0
C1833 C 0.74236 0.69421 0.74364 0.0
N1834 N 0.75784 0.71077 0.8182 0.0
N1835 N 0.7517 0.69773 0.76066 0.0
H1836 H 0.71984 0.677 0.61862 0.0
H1837 H 0.7538 0.6335 0.55791 0.0
H1838 H 0.73041 0.64817 0.65182 0.0
H1839 H 0.74532 0.66451 0.52676 0.0
H1840 H 0.74486 0.63817 0.59236 0.0
H1841 H 0.72879 0.67206 0.5847 0.0
C1842 C 0.72404 0.66962 0.61879 0.0
C1843 C 0.72438 0.663 0.63813 0.0
C1844 C 0.74501 0.64397 0.57798 0.0
C1845 C 0.73467 0.65727 0.59921 0.0
C1846 C 0.75004 0.64127 0.55831 0.0
C1847 C 0.75039 0.64869 0.53944 0.0
C1848 C 0.7402 0.6541 0.57875 0.0
C1849 C 0.7455 0.65873 0.54095 0.0
C1850 C 0.72917 0.66681 0.59939 0.0
C1851 C 0.72995 0.65353 0.63731 0.0
N1852 N 0.7406 0.66111 0.56021 0.0
N1853 N 0.73487 0.65093 0.61816 0.0
H1854 H 0.35836 0.05063 0.59096 0.0
H1855 H 0.3602 0.12239 0.5462 0.0
H1856 H 0.35156 0.08058 0.63169 0.0
H1857 H 0.36726 0.09243 0.50595 0.0
H1858 H 0.35772 0.10771 0.57796 0.0
H1859 H 0.36231 0.06625 0.55983 0.0
C1860 C 0.3577 0.06049 0.59338 0.0
C1861 C 0.35459 0.06427 0.61398 0.0
C1862 C 0.35989 0.1044 0.56219 0.0
C1863 C 0.35912 0.08225 0.57835 0.0
C1864 C 0.36126 0.11275 0.54404 0.0
C1865 C 0.36394 0.10865 0.52335 0.0
C1866 C 0.36114 0.09179 0.55965 0.0
C1867 C 0.3654 0.09615 0.5216 0.0
C1868 C 0.35997 0.06943 0.57558 0.0
C1869 C 0.35391 0.07722 0.61611 0.0
N1870 N 0.36391 0.08814 0.53947 0.0
N1871 N 0.35612 0.08572 0.59851 0.0
H1872 H 0.92479 0.28229 0.62553 0.0
H1873 H 0.9117 0.2136 0.549 0.0
H1874 H 0.94572 0.25728 0.63553 0.0
H1875 H 0.90191 0.24642 0.52865 0.0
H1876 H 0.92115 0.22748 0.58337 0.0
H1877 H 0.91323 0.26718 0.59245 0.0
C1878 C 0.9269 0.27358 0.62084 0.0
C1879 C 0.93629 0.27108 0.63325 0.0
C1880 C 0.9169 0.23161 0.57139 0.0
C1881 C 0.92306 0.25375 0.5956 0.0
C1882 C 0.91155 0.22373 0.5517 0.0
C1883 C 0.90611 0.2289 0.53573 0.0
C1884 C 0.91673 0.24472 0.57531 0.0
C1885 C 0.90587 0.24192 0.54049 0.0
C1886 C 0.92033 0.265 0.60195 0.0
C1887 C 0.93864 0.25966 0.6264 0.0
N1888 N 0.91114 0.2494 0.55983 0.0
N1889 N 0.93206 0.25142 0.60806 0.0
H1890 H 0.34679 0.27933 0.63069 0.0
H1891 H 0.31866 0.22757 0.52294 0.0
H1892 H 0.30105 0.25144 0.61321 0.0
H1893 H 0.36369 0.25124 0.54477 0.0
H1894 H 0.31188 0.23568 0.55628 0.0
H1895 H 0.35313 0.26893 0.59948 0.0
C1896 C 0.33807 0.27099 0.62032 0.0
C1897 C 0.32336 0.26629 0.62453 0.0
C1898 C 0.32323 0.23902 0.55384 0.0
C1899 C 0.33057 0.25435 0.58871 0.0
C1900 C 0.3271 0.23431 0.53486 0.0
C1901 C 0.34179 0.23877 0.53096 0.0
C1902 C 0.33412 0.24834 0.56904 0.0
C1903 C 0.35227 0.24773 0.54688 0.0
C1904 C 0.3417 0.26503 0.60252 0.0
C1905 C 0.31253 0.25541 0.61057 0.0
N1906 N 0.34825 0.25228 0.56514 0.0
N1907 N 0.31636 0.24987 0.59322 0.0
H1908 H 0.74284 0.05904 0.62245 0.0
H1909 H 0.74287 0.11088 0.52951 0.0
H1910 H 0.71297 0.07494 0.62181 0.0
H1911 H 0.77404 0.09672 0.53253 0.0
H1912 H 0.73224 0.0985 0.56385 0.0
H1913 H 0.75472 0.07329 0.58995 0.0
C1914 C 0.73879 0.06556 0.61551 0.0
C1915 C 0.72684 0.06574 0.62485 0.0
C1916 C 0.74144 0.09815 0.55705 0.0
C1917 C 0.74042 0.0821 0.58751 0.0
C1918 C 0.74759 0.1053 0.5375 0.0
C1919 C 0.75935 0.10481 0.52805 0.0
C1920 C 0.74707 0.09042 0.56725 0.0
C1921 C 0.76484 0.0972 0.539 0.0
C1922 C 0.7456 0.07371 0.59694 0.0
C1923 C 0.72212 0.07444 0.61515 0.0
N1924 N 0.75863 0.09028 0.55796 0.0
N1925 N 0.72889 0.08223 0.59696 0.0
H1926 H 0.94153 0.69007 0.61037 0.0
H1927 H 0.87701 0.62532 0.5372 0.0
H1928 H 0.92347 0.64313 0.62043 0.0
H1929 H 0.89904 0.67221 0.52304 0.0
H1930 H 0.89262 0.63156 0.56931 0.0
H1931 H 0.92469 0.68366 0.57993 0.0
C1932 C 0.93401 0.6784 0.60621 0.0
C1933 C 0.93396 0.66712 0.61794 0.0
C1934 C 0.89398 0.64048 0.55921 0.0
C1935 C 0.91459 0.65969 0.58304 0.0
C1936 C 0.88511 0.63692 0.54083 0.0
C1937 C 0.88671 0.64825 0.52732 0.0
C1938 C 0.90454 0.65547 0.56418 0.0
C1939 C 0.89725 0.66311 0.53308 0.0
C1940 C 0.92439 0.67475 0.5888 0.0
C1941 C 0.92393 0.65219 0.61179 0.0
N1942 N 0.90577 0.66627 0.55101 0.0
N1943 N 0.91466 0.64891 0.59475 0.0
H1944 H 0.93447 0.66234 0.73264 0.0
H1945 H 0.92628 0.72124 0.80716 0.0
H1946 H 0.95412 0.70879 0.71713 0.0
H1947 H 0.90521 0.67447 0.82145 0.0
H1948 H 0.93613 0.71677 0.77367 0.0
H1949 H 0.9233 0.66645 0.7649 0.0
C1950 C 0.93644 0.67341 0.736 0.0
C1951 C 0.94528 0.68525 0.72217 0.0
C1952 C 0.92929 0.70746 0.78407 0.0
C1953 C 0.9325 0.69002 0.75909 0.0
C1954 C 0.92371 0.71002 0.80323 0.0
C1955 C 0.91495 0.69823 0.81718 0.0
C1956 C 0.92617 0.693 0.77881 0.0
C1957 C 0.91179 0.68387 0.81109 0.0
C1958 C 0.93003 0.67574 0.75442 0.0
C1959 C 0.94741 0.69934 0.72734 0.0
N1960 N 0.91747 0.68168 0.79243 0.0
N1961 N 0.94109 0.70133 0.74539 0.0
H1962 H 0.31268 0.25725 0.72713 0.0
H1963 H 0.32161 0.26176 0.85661 0.0
H1964 H 0.32185 0.29571 0.76684 0.0
H1965 H 0.30699 0.2213 0.81849 0.0
H1966 H 0.32161 0.27428 0.82376 0.0
H1967 H 0.31031 0.24375 0.76022 0.0
C1968 C 0.31413 0.26284 0.7428 0.0
C1969 C 0.31753 0.27767 0.74421 0.0
C1970 C 0.31834 0.26265 0.82254 0.0
C1971 C 0.31488 0.26229 0.78213 0.0
C1972 C 0.31842 0.25552 0.84128 0.0
C1973 C 0.31441 0.2405 0.84023 0.0
C1974 C 0.31432 0.25475 0.80251 0.0
C1975 C 0.31011 0.23287 0.82002 0.0
C1976 C 0.31276 0.25512 0.76168 0.0
C1977 C 0.31924 0.28432 0.76496 0.0
N1978 N 0.31028 0.24012 0.8019 0.0
N1979 N 0.31798 0.27661 0.78308 0.0
H1980 H 0.74996 0.08055 0.72298 0.0
H1981 H 0.73097 0.10052 0.84082 0.0
H1982 H 0.70589 0.06438 0.74574 0.0
H1983 H 0.77519 0.11857 0.81734 0.0
H1984 H 0.72164 0.08712 0.80609 0.0
H1985 H 0.75946 0.0943 0.75754 0.0
C1986 C 0.74227 0.07987 0.73524 0.0
C1987 C 0.7271 0.07129 0.73144 0.0
C1988 C 0.73339 0.09403 0.8085 0.0
C1989 C 0.73791 0.08702 0.77104 0.0
C1990 C 0.73873 0.10178 0.8283 0.0
C1991 C 0.7539 0.11075 0.83202 0.0
C1992 C 0.74326 0.09521 0.79222 0.0
C1993 C 0.76341 0.11167 0.8153 0.0
C1994 C 0.74771 0.08774 0.75496 0.0
C1995 C 0.71767 0.07085 0.74793 0.0
N1996 N 0.75794 0.10401 0.79614 0.0
N1997 N 0.72323 0.07859 0.76698 0.0
H1998 H 0.06422 0.39607 0.03875 0.0
H1999 H 0.07181 0.32434 0.03625 0.0
H2000 H 0.0371 0.35646 -0.0008 0.0
H2001 H 0.09728 0.36306 0.07822 0.0
H2002 H 0.06105 0.33715 0.01917 0.0
H2003 H 0.07865 0.38547 0.0498 0.0
C2004 C 0.06139 0.38522 0.03219 0.0
C2005 C 0.04932 0.37708 0.01821 0.0
C2006 C 0.06911 0.34289 0.03198 0.0
C2007 C 0.06575 0.36482 0.03092 0.0
C2008 C 0.07521 0.33557 0.04179 0.0
C2009 C 0.08539 0.34258 0.05882 0.0
C2010 C 0.07316 0.35733 0.03928 0.0
C2011 C 0.08957 0.35724 0.06505 0.0
C2012 C 0.06962 0.37915 0.03855 0.0
C2013 C 0.04623 0.36309 0.01015 0.0
N2014 N 0.08335 0.36406 0.05542 0.0
N2015 N 0.0543 0.35736 0.01678 0.0
H2016 H 0.6393 0.67304 0.04713 0.0
H2017 H 0.68745 0.76045 0.02379 0.0
H2018 H 0.66728 0.6912 0.99086 0.0
H2019 H 0.66131 0.74173 0.08159 0.0
H2020 H 0.67805 0.73514 0.00919 0.0
H2021 H 0.64496 0.69805 0.05756 0.0
C2022 C 0.64655 0.68227 0.03685 0.0
C2023 C 0.65294 0.68002 0.01819 0.0
C2024 C 0.67426 0.7366 0.02497 0.0
C2025 C 0.65955 0.70877 0.03015 0.0
C2026 C 0.67966 0.75105 0.03334 0.0
C2027 C 0.67524 0.75328 0.05402 0.0
C2028 C 0.66439 0.72427 0.03737 0.0
C2029 C 0.66493 0.74064 0.06549 0.0
C2030 C 0.64979 0.69657 0.04284 0.0
C2031 C 0.66217 0.69241 0.00545 0.0
N2032 N 0.65997 0.72672 0.05709 0.0
N2033 N 0.6653 0.70628 0.01176 0.0
H2034 H 0.32173 0.95377 0.98428 0.0
H2035 H 0.26042 0.92665 0.07726 0.0
H2036 H 0.32355 0.98153 0.03875 0.0
H2037 H 0.26571 0.89626 0.03519 0.0
H2038 H 0.2804 0.94764 0.05797 0.0
H2039 H 0.29828 0.93336 0.99793 0.0
C2040 C 0.31714 0.95562 0.99898 0.0
C2041 C 0.32467 0.96932 0.01052 0.0
C2042 C 0.27708 0.93638 0.0528 0.0
C2043 C 0.29786 0.94611 0.02608 0.0
C2044 C 0.26558 0.92439 0.06366 0.0
C2045 C 0.26148 0.9097 0.0579 0.0
C2046 C 0.28446 0.93366 0.03599 0.0
C2047 C 0.26868 0.90743 0.04032 0.0
C2048 C 0.30379 0.94397 0.00677 0.0
C2049 C 0.3182 0.9711 0.02946 0.0
N2050 N 0.27989 0.91929 0.03005 0.0
N2051 N 0.3052 0.95962 0.03668 0.0
H2052 H 0.37383 0.05505 0.0096 0.0
H2053 H 0.33675 0.08557 0.93124 0.0
H2054 H 0.33937 0.02758 0.96346 0.0
H2055 H 0.37018 0.11358 0.97846 0.0
H2056 H 0.33652 0.06397 0.94485 0.0
H2057 H 0.3719 0.07641 5e-05 0.0
C2058 C 0.36583 0.05349 0.99753 0.0
C2059 C 0.35681 0.03951 0.98722 0.0
C2060 C 0.34384 0.07481 0.95239 0.0
C2061 C 0.35454 0.06388 0.97624 0.0
C2062 C 0.34388 0.08718 0.94474 0.0
C2063 C 0.35351 0.10148 0.95369 0.0
C2064 C 0.35356 0.07669 0.96905 0.0
C2065 C 0.36271 0.10282 0.97085 0.0
C2066 C 0.36472 0.06568 0.9921 0.0
C2067 C 0.34661 0.03814 0.97176 0.0
N2068 N 0.36258 0.0906 0.97788 0.0
N2069 N 0.3458 0.05017 0.9667 0.0
H2070 H 0.97807 0.33704 0.97141 0.0
H2071 H 0.91027 0.2583 0.00443 0.0
H2072 H 0.96777 0.32636 0.03922 0.0
H2073 H 0.9366 0.26486 0.94717 0.0
H2074 H 0.92843 0.28398 0.0169 0.0
H2075 H 0.95953 0.31141 0.9613 0.0
C2076 C 0.97182 0.32935 0.9842 0.0
C2077 C 0.97453 0.33385 0.00623 0.0
C2078 C 0.93023 0.27968 0.00172 0.0
C2079 C 0.95324 0.30443 0.99466 0.0
C2080 C 0.91992 0.26511 0.99462 0.0
C2081 C 0.92205 0.25947 0.97486 0.0
C2082 C 0.94246 0.28869 0.98863 0.0
C2083 C 0.93466 0.26871 0.96266 0.0
C2084 C 0.96131 0.31468 0.97839 0.0
C2085 C 0.96607 0.32332 0.02206 0.0
N2086 N 0.9443 0.28289 0.96963 0.0
N2087 N 0.95573 0.30906 0.01596 0.0
H2088 H 0.68436 0.63482 0.00742 0.0
H2089 H 0.76239 0.70576 0.98448 0.0
H2090 H 0.69965 0.67775 0.03872 0.0
H2091 H 0.7526 0.66088 0.97129 0.0
H2092 H 0.73974 0.69564 0.00513 0.0
H2093 H 0.7093 0.64388 0.99452 0.0
C2094 C 0.69299 0.64609 0.01179 0.0
C2095 C 0.68989 0.65559 0.02401 0.0
C2096 C 0.74263 0.688 0.99795 0.0
C2097 C 0.7184 0.66606 0.00909 0.0
C2098 C 0.75567 0.69379 0.98622 0.0
C2099 C 0.75948 0.68419 0.9759 0.0
C2100 C 0.73314 0.67249 -0.00085 0.0
C2101 C 0.75002 0.66874 0.97848 0.0
C2102 C 0.70723 0.65124 0.00446 0.0
C2103 C 0.70152 0.67006 0.02928 0.0
N2104 N 0.73721 0.66337 0.9896 0.0
N2105 N 0.71522 0.67492 0.02154 0.0
H2106 H 0.94344 0.63319 0.0014 0.0
H2107 H 0.94324 0.70104 0.94633 0.0
H2108 H 0.97929 0.66733 0.96411 0.0
H2109 H 0.90308 0.66053 0.96319 0.0
H2110 H 0.95715 0.69042 0.95924 0.0
H2111 H 0.92889 0.64437 0.99295 0.0
C2112 C 0.94824 0.64301 0.99148 0.0
C2113 C 0.96257 0.6493 0.98335 0.0
C2114 C 0.9453 0.68387 0.96027 0.0
C2115 C 0.94616 0.66218 0.97397 0.0
C2116 C 0.93734 0.68999 0.95313 0.0
C2117 C 0.92196 0.68167 0.9537 0.0
C2118 C 0.93788 0.66929 0.96812 0.0
C2119 C 0.91492 0.66728 0.96229 0.0
C2120 C 0.93995 0.64936 0.98667 0.0
C2121 C 0.96827 0.66203 0.97061 0.0
N2122 N 0.92295 0.6615 0.96914 0.0
N2123 N 0.96008 0.66806 0.9664 0.0
H2124 H 0.36398 0.34129 0.99088 0.0
H2125 H 0.31209 0.25274 -0.00032 0.0
H2126 H 0.32812 0.32024 0.03655 0.0
H2127 H 0.35068 0.27474 0.95913 0.0
H2128 H 0.31817 0.27715 0.0147 0.0
H2129 H 0.35965 0.31682 0.98021 0.0
C2130 C 0.35521 0.33151 0.99872 0.0
C2131 C 0.34635 0.33282 0.01455 0.0
C2132 C 0.32539 0.27659 0.0027 0.0
C2133 C 0.34129 0.30468 0.00235 0.0
C2134 C 0.3219 0.26267 0.99408 0.0
C2135 C 0.33088 0.26166 0.97811 0.0
C2136 C 0.33787 0.2896 0.99514 0.0
C2137 C 0.34353 0.27491 0.97162 0.0
C2138 C 0.35276 0.31753 0.99265 0.0
C2139 C 0.3352 0.31976 0.02423 0.0
N2140 N 0.34657 0.2883 0.98001 0.0
N2141 N 0.33292 0.30621 0.01787 0.0
H2142 H 0.66417 0.01902 0.96677 0.0
H2143 H 0.73168 0.09986 0.99746 0.0
H2144 H 0.67423 0.03449 0.03375 0.0
H2145 H 0.72935 0.07555 0.93836 0.0
H2146 H 0.70968 0.0773 0.01087 0.0
H2147 H 0.68693 0.04117 0.95558 0.0
C2148 C 0.67115 0.02712 0.97915 0.0
C2149 C 0.66729 0.02491 0.00124 0.0
C2150 C 0.71412 0.07691 0.99508 0.0
C2151 C 0.69342 0.05037 0.98848 0.0
C2152 C 0.72661 0.08975 0.98742 0.0
C2153 C 0.73237 0.08953 0.96682 0.0
C2154 C 0.70723 0.06392 0.98183 0.0
C2155 C 0.7254 0.07617 0.95444 0.0
C2156 C 0.6842 0.03972 0.97274 0.0
C2157 C 0.67683 0.03575 0.01655 0.0
N2158 N 0.71314 0.06396 0.96205 0.0
N2159 N 0.68944 0.0481 0.00987 0.0
H2160 H 0.62683 0.94311 0.01619 0.0
H2161 H 0.69791 0.94187 0.04506 0.0
H2162 H 0.66934 0.9736 0.98867 0.0
H2163 H 0.65437 0.90308 0.05227 0.0
H2164 H 0.68759 0.95371 0.0247 0.0
H2165 H 0.63649 0.92834 0.03011 0.0
C2166 C 0.63815 0.94662 0.0129 0.0
C2167 C 0.64732 0.95967 0.00138 0.0
C2168 C 0.68031 0.94254 0.03053 0.0
C2169 C 0.65845 0.94293 0.01745 0.0
C2170 C 0.68621 0.93568 0.04208 0.0
C2171 C 0.67704 0.92139 0.05055 0.0
C2172 C 0.66508 0.93523 0.02767 0.0
C2173 C 0.66188 0.9142 0.0465 0.0
C2174 C 0.64363 0.93817 0.0208 0.0
C2175 C 0.66187 0.96365 0.99751 0.0
N2176 N 0.65637 0.92127 0.03557 0.0
N2177 N 0.66703 0.95542 0.00576 0.0
H2178 H 0.01457 0.67433 0.03356 0.0
H2179 H 0.10059 0.73256 0.02707 0.0
H2180 H 0.04164 0.67206 0.98273 0.0
H2181 H 0.0712 0.73723 0.07071 0.0
H2182 H 0.07932 0.71138 0.00889 0.0
H2183 H 0.03529 0.69822 0.04591 0.0
C2184 C 0.02489 0.67888 0.02495 0.0
C2185 C 0.02641 0.67111 0.00721 0.0
C2186 C 0.07755 0.71721 0.02223 0.0
C2187 C 0.05031 0.69857 0.02135 0.0
C2188 C 0.08968 0.72927 0.03264 0.0
C2189 C 0.0877 0.73666 0.05053 0.0
C2190 C 0.06337 0.71243 0.02992 0.0
C2191 C 0.07331 0.73202 0.05688 0.0
C2192 C 0.03673 0.69259 0.03196 0.0
C2193 C 0.04001 0.67766 0.99653 0.0
N2194 N 0.06174 0.72013 0.04676 0.0
N2195 N 0.05151 0.69096 0.00392 0.0
H2196 H 0.32216 0.38119 0.04256 0.0
H2197 H 0.23684 0.32083 0.02915 0.0
H2198 H 0.30417 0.34899 0.98919 0.0
H2199 H 0.25454 0.35614 0.07819 0.0
H2200 H 0.26112 0.33222 0.01238 0.0
H2201 H 0.29729 0.37349 0.05403 0.0
C2202 C 0.31298 0.37259 0.03313 0.0
C2203 C 0.31525 0.36562 0.01501 0.0
C2204 C 0.25966 0.33759 0.02664 0.0
C2205 C 0.28672 0.35667 0.02815 0.0
C2206 C 0.24581 0.33107 0.03624 0.0
C2207 C 0.24369 0.33748 0.05518 0.0
C2208 C 0.27152 0.35054 0.03618 0.0
C2209 C 0.25564 0.35086 0.06353 0.0
C2210 C 0.29877 0.3682 0.03968 0.0
C2211 C 0.30294 0.35461 0.00334 0.0
N2212 N 0.26908 0.35684 0.05413 0.0
N2213 N 0.28921 0.35037 0.01025 0.0
H2214 H 0.6844 0.68259 0.39931 0.0
H2215 H 0.75339 0.6734 0.38013 0.0
H2216 H 0.71394 0.70224 0.34497 0.0
H2217 H 0.71925 0.64937 0.42748 0.0
H2218 H 0.74011 0.68508 0.36756 0.0
H2219 H 0.69818 0.67151 0.41065 0.0
C2220 C 0.69384 0.68463 0.38976 0.0
C2221 C 0.698 0.69335 0.37112 0.0
C2222 C 0.73552 0.67717 0.3806 0.0
C2223 C 0.71389 0.68058 0.38406 0.0
C2224 C 0.74309 0.67054 0.38781 0.0
C2225 C 0.73736 0.66029 0.40476 0.0
C2226 C 0.72223 0.67363 0.39062 0.0
C2227 C 0.72397 0.65697 0.41409 0.0
C2228 C 0.7017 0.67824 0.39623 0.0
C2229 C 0.71035 0.69558 0.35944 0.0
N2230 N 0.71692 0.66364 0.40695 0.0
N2231 N 0.71788 0.68922 0.36611 0.0
H2232 H 0.28218 0.99846 0.37867 0.0
H2233 H 0.35155 0.0812 0.38427 0.0
H2234 H 0.32472 0.01134 0.35234 0.0
H2235 H 0.30769 0.07112 0.39874 0.0
H2236 H 0.34142 0.05577 0.37087 0.0
H2237 H 0.29074 0.02492 0.38498 0.0
C2238 C 0.29326 0.00683 0.37405 0.0
C2239 C 0.30278 0.00266 0.36516 0.0
C2240 C 0.33396 0.05913 0.37674 0.0
C2241 C 0.31265 0.03287 0.3724 0.0
C2242 C 0.33975 0.07377 0.38425 0.0
C2243 C 0.3305 0.07844 0.39276 0.0
C2244 C 0.3188 0.04889 0.37798 0.0
C2245 C 0.3153 0.06801 0.39273 0.0
C2246 C 0.29813 0.02192 0.37762 0.0
C2247 C 0.31701 0.01399 0.35939 0.0
N2248 N 0.30994 0.05369 0.38569 0.0
N2249 N 0.32152 0.02853 0.36328 0.0
H2250 H 0.9915 0.29232 0.32293 0.0
H2251 H 0.93547 0.26305 0.4232 0.0
H2252 H 0.99949 0.31607 0.3846 0.0
H2253 H 0.93168 0.23471 0.36831 0.0
H2254 H 0.95731 0.28373 0.40682 0.0
H2255 H 0.96812 0.27212 0.33714 0.0
C2256 C 0.98833 0.29332 0.33942 0.0
C2257 C 0.9975 0.30589 0.35263 0.0
C2258 C 0.95167 0.27302 0.39827 0.0
C2259 C 0.97077 0.28289 0.36889 0.0
C2260 C 0.9391 0.26123 0.40752 0.0
C2261 C 0.9317 0.24712 0.39709 0.0
C2262 C 0.95693 0.27076 0.37838 0.0
C2263 C 0.93712 0.24537 0.37699 0.0
C2264 C 0.975 0.28178 0.34751 0.0
C2265 C 0.99283 0.30657 0.37387 0.0
N2266 N 0.94943 0.25706 0.36828 0.0
N2267 N 0.9798 0.29525 0.3813 0.0
H2268 H 0.04222 0.38966 0.3459 0.0
H2269 H 0.00775 0.41638 0.25643 0.0
H2270 H 0.01458 0.36186 0.2927 0.0
H2271 H 0.03579 0.44534 0.30849 0.0
H2272 H 0.00882 0.39586 0.27144 0.0
H2273 H 0.03899 0.40981 0.33409 0.0
C2274 C 0.03544 0.38777 0.33179 0.0
C2275 C 0.02873 0.37407 0.3202 0.0
C2276 C 0.01468 0.40666 0.27971 0.0
C2277 C 0.02497 0.39704 0.30666 0.0
C2278 C 0.01395 0.4184 0.27125 0.0
C2279 C 0.02165 0.43266 0.28123 0.0
C2280 C 0.02324 0.40913 0.29827 0.0
C2281 C 0.0298 0.43459 0.30012 0.0
C2282 C 0.0336 0.39927 0.32508 0.0
C2283 C 0.02004 0.37224 0.30209 0.0
N2284 N 0.03043 0.42297 0.30798 0.0
N2285 N 0.01845 0.38359 0.29586 0.0
H2286 H 0.64924 0.66894 0.30782 0.0
H2287 H 0.56916 0.59705 0.3164 0.0
H2288 H 0.62058 0.66471 0.36099 0.0
H2289 H 0.60576 0.59647 0.28728 0.0
H2290 H 0.58617 0.62282 0.32967 0.0
H2291 H 0.63147 0.6434 0.29609 0.0
C2292 C 0.63915 0.66268 0.31696 0.0
C2293 C 0.63642 0.66897 0.33548 0.0
C2294 C 0.59043 0.61695 0.32053 0.0
C2295 C 0.616 0.63965 0.32205 0.0
C2296 C 0.58076 0.60232 0.31295 0.0
C2297 C 0.58611 0.59462 0.3009 0.0
C2298 C 0.60541 0.62396 0.3155 0.0
C2299 C 0.60121 0.60192 0.29679 0.0
C2300 C 0.62906 0.64806 0.31032 0.0
C2301 C 0.62314 0.66026 0.34668 0.0
N2302 N 0.6103 0.61621 0.3039 0.0
N2303 N 0.61336 0.64602 0.33974 0.0
H2304 H 0.36342 0.00305 0.36743 0.0
H2305 H 0.40548 0.97577 0.2896 0.0
H2306 H 0.34325 0.95913 0.33716 0.0
H2307 H 0.4266 0.01956 0.32051 0.0
H2308 H 0.38343 0.96863 0.31055 0.0
H2309 H 0.38727 0.00843 0.35398 0.0
C2310 C 0.36401 0.99447 0.35818 0.0
C2311 C 0.35127 0.98068 0.35319 0.0
C2312 C 0.39292 0.97976 0.31295 0.0
C2313 C 0.37854 0.98681 0.33765 0.0
C2314 C 0.40562 0.98384 0.30109 0.0
C2315 C 0.41797 0.99834 0.30319 0.0
C2316 C 0.39245 0.99028 0.32693 0.0
C2317 C 0.41727 0.00834 0.31807 0.0
C2318 C 0.37765 0.99757 0.35048 0.0
C2319 C 0.35274 0.96997 0.34124 0.0
N2320 N 0.40468 0.00417 0.32923 0.0
N2321 N 0.36609 0.97332 0.33372 0.0
H2322 H 0.62789 0.98962 0.35115 0.0
H2323 H 0.55859 0.94823 0.2712 0.0
H2324 H 0.61605 0.94972 0.31311 0.0
H2325 H 0.57359 0.99139 0.30153 0.0
H2326 H 0.57763 0.94701 0.29057 0.0
H2327 H 0.60632 0.98896 0.33688 0.0
C2328 C 0.62071 0.98067 0.33992 0.0
C2329 C 0.62384 0.96977 0.33319 0.0
C2330 C 0.5767 0.9567 0.29314 0.0
C2331 C 0.59915 0.96895 0.31685 0.0
C2332 C 0.56573 0.95736 0.28223 0.0
C2333 C 0.5645 0.96996 0.28469 0.0
C2334 C 0.58657 0.96874 0.30664 0.0
C2335 C 0.57426 0.98155 0.29893 0.0
C2336 C 0.60841 0.98032 0.33176 0.0
C2337 C 0.61413 0.95842 0.31863 0.0
N2338 N 0.58494 0.98069 0.30929 0.0
N2339 N 0.60227 0.95834 0.31091 0.0
H2340 H 0.01114 0.66538 0.34041 0.0
H2341 H 0.03672 0.61342 0.28347 0.0
H2342 H 0.05368 0.6826 0.31074 0.0
H2343 H 0.99161 0.59864 0.29831 0.0
H2344 H 0.04417 0.63802 0.29912 0.0
H2345 H 0.00501 0.64007 0.33092 0.0
C2346 C 0.01925 0.66385 0.33206 0.0
C2347 C 0.03291 0.67616 0.32618 0.0
C2348 C 0.03266 0.62933 0.29909 0.0
C2349 C 0.02592 0.64716 0.31528 0.0
C2350 C 0.02838 0.61529 0.29009 0.0
C2351 C 0.01348 0.60393 0.28931 0.0
C2352 C 0.02199 0.63204 0.30751 0.0
C2353 C 0.00323 0.60696 0.29866 0.0
C2354 C 0.01572 0.64938 0.3266 0.0
C2355 C 0.04298 0.67345 0.31544 0.0
N2356 N 0.00767 0.62073 0.30723 0.0
N2357 N 0.03926 0.65924 0.31024 0.0
H2358 H 0.32876 0.36778 0.31095 0.0
H2359 H 0.41525 0.41411 0.33268 0.0
H2360 H 0.34879 0.36249 0.36776 0.0
H2361 H 0.39471 0.41994 0.277 0.0
H2362 H 0.39092 0.39681 0.34758 0.0
H2363 H 0.3527 0.38859 0.30006 0.0
C2364 C 0.33817 0.37106 0.32123 0.0
C2365 C 0.33678 0.36328 0.34019 0.0
C2366 C 0.39175 0.40201 0.33222 0.0
C2367 C 0.36428 0.38707 0.32775 0.0
C2368 C 0.40564 0.41186 0.32368 0.0
C2369 C 0.40705 0.41846 0.30351 0.0
C2370 C 0.37917 0.39865 0.32043 0.0
C2371 C 0.3942 0.41526 0.2927 0.0
C2372 C 0.35186 0.38295 0.315 0.0
C2373 C 0.34936 0.3681 0.35293 0.0
N2374 N 0.38083 0.4055 0.3012 0.0
N2375 N 0.36259 0.3796 0.34638 0.0
H2376 H 0.31532 0.30907 0.39984 0.0
H2377 H 0.31777 0.23618 0.37685 0.0
H2378 H 0.29839 0.28417 0.33932 0.0
H2379 H 0.35156 0.27433 0.41291 0.0
H2380 H 0.30788 0.25143 0.36528 0.0
H2381 H 0.32577 0.29397 0.40805 0.0
C2382 C 0.31371 0.30035 0.38833 0.0
C2383 C 0.30597 0.29785 0.36887 0.0
C2384 C 0.31756 0.25645 0.3755 0.0
C2385 C 0.31786 0.2805 0.37824 0.0
C2386 C 0.32318 0.24779 0.3821 0.0
C2387 C 0.33554 0.25406 0.39572 0.0
C2388 C 0.32415 0.2713 0.3831 0.0
C2389 C 0.34213 0.26912 0.40218 0.0
C2390 C 0.31978 0.29182 0.39296 0.0
C2391 C 0.30433 0.28646 0.35447 0.0
N2392 N 0.33625 0.27717 0.39604 0.0
N2393 N 0.31014 0.27809 0.35953 0.0
H2394 H 0.70369 0.01828 0.31251 0.0
H2395 H 0.72458 0.07609 0.41264 0.0
H2396 H 0.68328 0.00619 0.37583 0.0
H2397 H 0.75457 0.08406 0.35971 0.0
H2398 H 0.70704 0.05185 0.39606 0.0
H2399 H 0.72043 0.04376 0.32669 0.0
C2400 C 0.7027 0.02099 0.32935 0.0
C2401 C 0.69213 0.01009 0.34305 0.0
C2402 C 0.71741 0.05894 0.38799 0.0
C2403 C 0.71105 0.03914 0.3592 0.0
C2404 C 0.72737 0.07284 0.39732 0.0
C2405 C 0.74104 0.08212 0.38751 0.0
C2406 C 0.72107 0.05427 0.36859 0.0
C2407 C 0.74418 0.07719 0.36786 0.0
C2408 C 0.71227 0.0355 0.33741 0.0
C2409 C 0.69133 0.0142 0.36473 0.0
N2410 N 0.73426 0.06358 0.35902 0.0
N2411 N 0.70062 0.02839 0.37209 0.0
H2412 H 0.98382 0.7105 0.35092 0.0
H2413 H 0.90894 0.6413 0.39547 0.0
H2414 H 0.97954 0.67099 0.37807 0.0
H2415 H 0.91422 0.68423 0.38465 0.0
H2416 H 0.93384 0.65096 0.38266 0.0
H2417 H 0.95755 0.70016 0.35771 0.0
C2418 C 0.97736 0.69965 0.35821 0.0
C2419 C 0.98389 0.69164 0.36409 0.0
C2420 C 0.92954 0.65826 0.38291 0.0
C2421 C 0.95397 0.67974 0.37162 0.0
C2422 C 0.91523 0.65269 0.38999 0.0
C2423 C 0.90944 0.66196 0.39118 0.0
C2424 C 0.93825 0.67324 0.37696 0.0
C2425 C 0.9183 0.67674 0.38425 0.0
C2426 C 0.96241 0.69378 0.36209 0.0
C2427 C 0.97503 0.67764 0.37345 0.0
N2428 N 0.93231 0.68196 0.37753 0.0
N2429 N 0.96056 0.67215 0.37689 0.0
H2430 H 0.35805 0.00243 0.66673 0.0
H2431 H 0.43371 0.02483 0.72418 0.0
H2432 H 0.38831 0.04688 0.69212 0.0
H2433 H 0.39623 0.97977 0.71921 0.0
H2434 H 0.41956 0.03359 0.70576 0.0
H2435 H 0.37461 0.99462 0.67869 0.0
C2436 C 0.36825 0.01061 0.67461 0.0
C2437 C 0.37172 0.0253 0.67866 0.0
C2438 C 0.41454 0.02178 0.70856 0.0
C2439 C 0.39072 0.01639 0.69238 0.0
C2440 C 0.42257 0.01675 0.71917 0.0
C2441 C 0.41618 0.0015 0.72347 0.0
C2442 C 0.40008 0.01149 0.70196 0.0
C2443 C 0.40179 0.99157 0.71606 0.0
C2444 C 0.37767 0.00611 0.6815 0.0
C2445 C 0.38514 0.0354 0.68886 0.0
N2446 N 0.39425 0.99675 0.70577 0.0
N2447 N 0.39414 0.03074 0.69549 0.0
H2448 H 0.96466 0.33878 0.65125 0.0
H2449 H 0.99238 0.40256 0.7439 0.0
H2450 H 0.9775 0.33492 0.71588 0.0
H2451 H 0.96251 0.39811 0.69354 0.0
H2452 H 0.99163 0.38046 0.729 0.0
H2453 H 0.96785 0.36297 0.66238 0.0
C2454 C 0.9682 0.34304 0.66771 0.0
C2455 C 0.97074 0.33482 0.68272 0.0
C2456 C 0.98534 0.38439 0.72108 0.0
C2457 C 0.97462 0.3624 0.69531 0.0
C2458 C 0.98589 0.39711 0.72942 0.0
C2459 C 0.9775 0.4022 0.71992 0.0
C2460 C 0.97642 0.37671 0.70301 0.0
C2461 C 0.96906 0.39448 0.70142 0.0
C2462 C 0.96998 0.35678 0.67403 0.0
C2463 C 0.97529 0.34082 0.70384 0.0
N2464 N 0.9687 0.38207 0.69354 0.0
N2465 N 0.97715 0.35426 0.70946 0.0
H2466 H 0.66574 0.64866 0.72279 0.0
H2467 H 0.60308 0.56233 0.71191 0.0
H2468 H 0.66196 0.62095 0.66702 0.0
H2469 H 0.6034 0.5926 0.76111 0.0
H2470 H 0.62467 0.5834 0.69512 0.0
H2471 H 0.64301 0.62795 0.7372 0.0
C2472 C 0.66013 0.63821 0.71356 0.0
C2473 C 0.6658 0.63653 0.69369 0.0
C2474 C 0.61992 0.58543 0.70948 0.0
C2475 C 0.63971 0.61271 0.71014 0.0
C2476 C 0.60763 0.57342 0.71908 0.0
C2477 C 0.60141 0.57571 0.73792 0.0
C2478 C 0.62612 0.59981 0.71893 0.0
C2479 C 0.60769 0.59032 0.74645 0.0
C2480 C 0.64711 0.62639 0.72177 0.0
C2481 C 0.658 0.62274 0.68241 0.0
N2482 N 0.61974 0.60177 0.73699 0.0
N2483 N 0.64538 0.61132 0.69085 0.0
H2484 H 0.70412 0.72062 0.68306 0.0
H2485 H 0.66353 0.74272 0.5977 0.0
H2486 H 0.67147 0.68938 0.63725 0.0
H2487 H 0.69216 0.77294 0.6483 0.0
H2488 H 0.66522 0.72272 0.61349 0.0
H2489 H 0.69918 0.73968 0.67175 0.0
C2490 C 0.69587 0.71775 0.67069 0.0
C2491 C 0.68827 0.70341 0.66096 0.0
C2492 C 0.67103 0.73368 0.62129 0.0
C2493 C 0.68258 0.72517 0.64794 0.0
C2494 C 0.66996 0.74512 0.61238 0.0
C2495 C 0.67776 0.75961 0.62161 0.0
C2496 C 0.68007 0.73672 0.63948 0.0
C2497 C 0.68616 0.76203 0.64039 0.0
C2498 C 0.69303 0.72863 0.66428 0.0
C2499 C 0.67765 0.7003 0.64512 0.0
N2500 N 0.68719 0.75074 0.6486 0.0
N2501 N 0.6752 0.71111 0.63901 0.0
H2502 H 0.31442 0.99876 0.68108 0.0
H2503 H 0.23462 0.94183 0.63199 0.0
H2504 H 0.28836 0.0134 0.64988 0.0
H2505 H 0.26664 0.93014 0.64694 0.0
H2506 H 0.25209 0.9675 0.64441 0.0
H2507 H 0.29471 0.97294 0.67499 0.0
C2508 C 0.3045 0.99657 0.67308 0.0
C2509 C 0.30312 0.0083 0.66577 0.0
C2510 C 0.25516 0.95922 0.64515 0.0
C2511 C 0.28045 0.97864 0.6587 0.0
C2512 C 0.24523 0.94456 0.638 0.0
C2513 C 0.2491 0.93369 0.63826 0.0
C2514 C 0.26903 0.96302 0.65278 0.0
C2515 C 0.26295 0.93793 0.64668 0.0
C2516 C 0.29325 0.98179 0.66957 0.0
C2517 C 0.28994 0.00471 0.65563 0.0
N2518 N 0.27238 0.95222 0.65347 0.0
N2519 N 0.27913 0.99018 0.65227 0.0
H2520 H 0.02342 0.33442 0.69895 0.0
H2521 H 0.07212 0.30991 0.63125 0.0
H2522 H 0.00626 0.29044 0.67015 0.0
H2523 H 0.086 0.35579 0.6464 0.0
H2524 H 0.04935 0.30188 0.65115 0.0
H2525 H 0.04783 0.34159 0.6856 0.0
C2526 C 0.0248 0.32621 0.69003 0.0
C2527 C 0.01274 0.31184 0.68547 0.0
C2528 C 0.05744 0.3137 0.65025 0.0
C2529 C 0.04065 0.31999 0.67017 0.0
C2530 C 0.07042 0.3183 0.63882 0.0
C2531 C 0.08095 0.33357 0.63687 0.0
C2532 C 0.05494 0.32441 0.65992 0.0
C2533 C 0.07827 0.3439 0.64753 0.0
C2534 C 0.03874 0.33034 0.68236 0.0
C2535 C 0.01521 0.30167 0.67387 0.0
N2536 N 0.06549 0.33914 0.65845 0.0
N2537 N 0.02887 0.30597 0.66653 0.0
H2538 H 0.31086 0.32207 0.62376 0.0
H2539 H 0.22798 0.3018 0.63876 0.0
H2540 H 0.28134 0.29119 0.6715 0.0
H2541 H 0.25728 0.32998 0.58849 0.0
H2542 H 0.24764 0.29885 0.65265 0.0
H2543 H 0.29159 0.32617 0.61225 0.0
C2544 C 0.30031 0.31614 0.63185 0.0
C2545 C 0.2977 0.30623 0.64858 0.0
C2546 C 0.24977 0.30575 0.63867 0.0
C2547 C 0.27552 0.3109 0.63546 0.0
C2548 C 0.23854 0.30741 0.6307 0.0
C2549 C 0.24096 0.31618 0.61244 0.0
C2550 C 0.26349 0.31288 0.62827 0.0
C2551 C 0.25493 0.32332 0.60282 0.0
C2552 C 0.2893 0.3185 0.62527 0.0
C2553 C 0.28382 0.2989 0.65848 0.0
N2554 N 0.26561 0.32147 0.6108 0.0
N2555 N 0.27323 0.30137 0.65175 0.0
H2556 H 0.7081 0.00897 0.66029 0.0
H2557 H 0.65424 0.92042 0.6613 0.0
H2558 H 0.67031 0.98651 0.70233 0.0
H2559 H 0.69244 0.94316 0.62014 0.0
H2560 H 0.6615 0.94425 0.67965 0.0
H2561 H 0.70421 0.98478 0.64871 0.0
C2562 C 0.69907 0.99896 0.66727 0.0
C2563 C 0.68941 0.99977 0.68211 0.0
C2564 C 0.66839 0.94399 0.66678 0.0
C2565 C 0.68482 0.97199 0.66878 0.0
C2566 C 0.66422 0.9304 0.65625 0.0
C2567 C 0.67267 0.9298 0.63903 0.0
C2568 C 0.68106 0.95711 0.65995 0.0
C2569 C 0.68563 0.94305 0.63342 0.0
C2570 C 0.69685 0.98513 0.66064 0.0
C2571 C 0.67797 0.98642 0.69072 0.0
N2572 N 0.68933 0.95617 0.64368 0.0
N2573 N 0.6759 0.97307 0.68375 0.0
H2574 H 0.99554 0.70718 0.63991 0.0
H2575 H 0.08248 0.75159 0.65796 0.0
H2576 H 0.01607 0.70122 0.69549 0.0
H2577 H 0.06143 0.75623 0.60186 0.0
H2578 H 0.05829 0.73474 0.67365 0.0
H2579 H 0.01961 0.72689 0.62749 0.0
C2580 C 0.0051 0.71007 0.64958 0.0
C2581 C 0.00379 0.70244 0.66869 0.0
C2582 C 0.05898 0.73956 0.658 0.0
C2583 C 0.03144 0.725 0.65449 0.0
C2584 C 0.07279 0.74915 0.649 0.0
C2585 C 0.07403 0.75533 0.62852 0.0
C2586 C 0.0463 0.73608 0.64641 0.0
C2587 C 0.06107 0.75191 0.6178 0.0
C2588 C 0.01886 0.72134 0.64248 0.0
C2589 C 0.01657 0.70675 0.68061 0.0
N2590 N 0.04779 0.74246 0.62679 0.0
N2591 N 0.02987 0.71767 0.67324 0.0
H2592 H 0.97918 0.63902 0.67443 0.0
H2593 H 0.95885 0.56703 0.74254 0.0
H2594 H 0.93791 0.61223 0.70764 0.0
H2595 H 0.99935 0.5924 0.70689 0.0
H2596 H 0.95035 0.58243 0.72777 0.0
H2597 H 0.98619 0.62127 0.6843 0.0
C2598 C 0.97155 0.62936 0.6837 0.0
C2599 C 0.95796 0.62717 0.69034 0.0
C2600 C 0.96105 0.58457 0.72302 0.0
C2601 C 0.96595 0.60681 0.70175 0.0
C2602 C 0.96589 0.57568 0.73131 0.0
C2603 C 0.97988 0.5784 0.72599 0.0
C2604 C 0.97028 0.59638 0.70936 0.0
C2605 C 0.98858 0.59001 0.7117 0.0
C2606 C 0.97556 0.61922 0.68932 0.0
C2607 C 0.94851 0.61442 0.70225 0.0
N2608 N 0.98368 0.59862 0.70399 0.0
N2609 N 0.95272 0.60477 0.70768 0.0
H2610 H 0.35492 0.3422 0.68232 0.0
H2611 H 0.42799 0.39447 0.75074 0.0
H2612 H 0.3791 0.32586 0.71484 0.0
H2613 H 0.40716 0.41154 0.71132 0.0
H2614 H 0.41084 0.36945 0.73642 0.0
H2615 H 0.37432 0.36772 0.6918 0.0
C2616 C 0.36434 0.34397 0.69139 0.0
C2617 C 0.36534 0.33185 0.69793 0.0
C2618 C 0.41009 0.37867 0.73074 0.0
C2619 C 0.38758 0.36108 0.70887 0.0
C2620 C 0.41998 0.39304 0.73878 0.0
C2621 C 0.41905 0.40521 0.73228 0.0
C2622 C 0.39905 0.37637 0.7162 0.0
C2623 C 0.40817 0.4025 0.71708 0.0
C2624 C 0.37543 0.35856 0.69675 0.0
C2625 C 0.37784 0.33485 0.70953 0.0
N2626 N 0.39854 0.38837 0.70968 0.0
N2627 N 0.38842 0.34916 0.71476 0.0
H2628 H 0.65026 0.01669 0.67744 0.0
H2629 H 0.58633 0.02918 0.71964 0.0
H2630 H 0.65738 0.06006 0.69478 0.0
H2631 H 0.58241 0.98621 0.71408 0.0
H2632 H 0.61119 0.04078 0.70481 0.0
H2633 H 0.62417 0.00557 0.68477 0.0
C2634 C 0.64633 0.02391 0.68261 0.0
C2635 C 0.65607 0.03933 0.68572 0.0
C2636 C 0.6048 0.0288 0.70664 0.0
C2637 C 0.62614 0.0266 0.69423 0.0
C2638 C 0.59062 0.02215 0.71518 0.0
C2639 C 0.58223 0.00667 0.71832 0.0
C2640 C 0.61063 0.0199 0.70113 0.0
C2641 C 0.58831 0.99814 0.71178 0.0
C2642 C 0.63141 0.01753 0.68683 0.0
C2643 C 0.65029 0.04811 0.69232 0.0
N2644 N 0.60214 0.00488 0.70367 0.0
N2645 N 0.63571 0.04161 0.69651 0.0
loop_
_geom_bond_atom_site_label_1
_geom_bond_atom_site_label_2
_geom_bond_distance
_geom_bond_site_symmetry_2
_ccdc_geom_bond_type
C0 O1 1.160 . S
C0 O7 1.185 . S
O1 C0 1.160 . S
O2 Zn3 1.899 1_656 S
O2 C10 1.284 1_556 S
Zn3 O2 1.899 1_454 S
Zn3 O4 2.032 . S
Zn3 O7 2.086 . S
Zn3 O12 1.977 1_554 S
O4 Zn3 2.032 . S
O4 C8 1.278 1_455 S
C5 O6 1.203 1_455 S
C5 O12 1.267 . S
O6 C5 1.203 1_655 S
O7 C0 1.185 . S
O7 Zn3 2.086 . S
C8 O4 1.278 1_655 S
C8 O9 1.211 . S
O9 C8 1.211 . S
C10 O2 1.284 1_554 S
C10 O11 1.273 . S
O11 C10 1.273 . S
O12 Zn3 1.977 1_556 S
O12 C5 1.267 . S
C13 O14 1.160 1_554 S
C13 O20 1.185 . S
O14 C13 1.160 1_556 S
O15 Zn16 1.899 . S
O15 C23 1.284 . S
Zn16 O15 1.899 . S
Zn16 O17 2.032 1_554 S
Zn16 O20 2.086 . S
Zn16 O25 1.977 . S
O17 Zn16 2.032 1_556 S
O17 C21 1.278 . S
C18 O19 1.203 . S
C18 O25 1.267 . S
O19 C18 1.203 . S
O20 C13 1.185 . S
O20 Zn16 2.086 . S
C21 O17 1.278 . S
C21 O22 1.211 . S
O22 C21 1.211 . S
C23 O15 1.284 . S
C23 O24 1.273 . S
O24 C23 1.273 . S
O25 Zn16 1.977 . S
O25 C18 1.267 . S
C26 O27 1.160 1_554 S
C26 O33 1.185 . S
O27 C26 1.160 1_556 S
O28 Zn29 1.899 1_565 S
O28 C36 1.284 . S
Zn29 O28 1.899 1_545 S
Zn29 O30 2.032 1_554 S
Zn29 O33 2.086 . S
Zn29 O38 1.977 . S
O30 Zn29 2.032 1_556 S
O30 C34 1.278 . S
C31 O32 1.203 1_545 S
C31 O38 1.267 . S
O32 C31 1.203 1_565 S
O33 C26 1.185 . S
O33 Zn29 2.086 . S
C34 O30 1.278 . S
C34 O35 1.211 1_545 S
O35 C34 1.211 1_565 S
C36 O28 1.284 . S
C36 O37 1.273 . S
O37 C36 1.273 . S
O38 Zn29 1.977 . S
O38 C31 1.267 . S
C39 O40 1.160 . S
C39 O46 1.185 1_556 S
O40 C39 1.160 . S
O41 Zn42 1.899 1_455 S
O41 C49 1.284 . S
Zn42 O41 1.899 1_655 S
Zn42 O43 2.032 1_554 S
Zn42 O46 2.086 . S
Zn42 O51 1.977 . S
O43 Zn42 2.032 1_556 S
O43 C47 1.278 1_655 S
C44 O45 1.141 1_655 S
C44 O51 1.332 . S
O45 C44 1.141 1_455 S
O46 C39 1.185 1_554 S
O46 Zn42 2.086 . S
C47 O43 1.278 1_455 S
C47 O48 1.211 . S
O48 C47 1.211 . S
C49 O41 1.284 . S
C49 O50 1.273 . S
O50 C49 1.273 . S
O51 Zn42 1.977 . S
O51 C44 1.332 . S
C52 O53 1.160 . S
C52 O59 1.185 . S
O53 C52 1.160 . S
O54 Zn55 1.899 1_556 S
O54 C62 1.286 . S
Zn55 O54 1.899 1_554 S
Zn55 O56 2.032 . S
Zn55 O59 2.086 . S
Zn55 O64 1.977 1_554 S
O56 Zn55 2.032 . S
O56 C60 1.278 . S
C57 O58 1.203 . S
C57 O64 1.267 . S
O58 C57 1.203 . S
O59 C52 1.185 . S
O59 Zn55 2.086 . S
C60 O56 1.278 . S
C60 O61 1.211 . S
O61 C60 1.211 . S
C62 O54 1.286 . S
C62 O63 1.270 1_556 S
O63 C62 1.270 1_554 S
O64 Zn55 1.977 1_556 S
O64 C57 1.267 . S
C65 O66 1.160 . S
C65 O72 1.185 . S
O66 C65 1.160 . S
O67 Zn68 1.899 1_546 S
O67 C75 1.284 1_556 S
Zn68 O67 1.899 1_564 S
Zn68 O69 2.032 . S
Zn68 O72 2.086 . S
Zn68 O77 1.977 1_554 S
O69 Zn68 2.032 . S
O69 C73 1.278 1_565 S
C70 O71 1.138 1_565 S
C70 O77 1.336 . S
O71 C70 1.138 1_545 S
O72 C65 1.185 . S
O72 Zn68 2.086 . S
C73 O69 1.278 1_545 S
C73 O74 1.211 . S
O74 C73 1.211 . S
C75 O67 1.284 1_554 S
C75 O76 1.273 . S
O76 C75 1.273 . S
O77 Zn68 1.977 1_556 S
O77 C70 1.336 . S
C78 O79 1.160 . S
C78 O85 1.185 . S
O79 C78 1.160 . S
O80 Zn81 1.899 . S
O80 C88 1.284 . S
Zn81 O80 1.899 . S
Zn81 O82 2.032 . S
Zn81 O85 2.086 . S
Zn81 O90 1.977 . S
O82 Zn81 2.032 . S
O82 C86 1.278 . S
C83 O84 1.203 . S
C83 O90 1.267 . S
O84 C83 1.203 . S
O85 C78 1.185 . S
O85 Zn81 2.086 . S
C86 O82 1.278 . S
C86 O87 1.211 . S
O87 C86 1.211 . S
C88 O80 1.284 . S
C88 O89 1.273 . S
O89 C88 1.273 . S
O90 Zn81 1.977 . S
O90 C83 1.267 . S
C91 O92 1.160 . S
C91 O98 1.185 . S
O92 C91 1.160 . S
O93 Zn94 1.899 . S
O93 C101 1.343 . S
Zn94 O93 1.899 . S
Zn94 O95 2.032 . S
Zn94 O98 2.086 . S
Zn94 O103 1.977 . S
O95 Zn94 2.032 . S
O95 C99 1.278 . S
C96 O97 1.203 . S
C96 O103 1.267 . S
O97 C96 1.203 . S
O98 C91 1.185 . S
O98 Zn94 2.086 . S
C99 O95 1.278 . S
C99 O100 1.211 . S
O100 C99 1.211 . S
C101 O93 1.343 . S
C101 O102 1.279 . S
O102 C101 1.279 . S
O103 Zn94 1.977 . S
O103 C96 1.267 . S
C104 O105 1.160 . S
C104 O111 1.185 . S
O105 C104 1.160 . S
O106 Zn107 1.899 . S
O106 C114 1.284 . S
Zn107 O106 1.899 . S
Zn107 O108 2.032 . S
Zn107 O111 2.086 . S
Zn107 O116 1.977 . S
O108 Zn107 2.032 . S
O108 C112 1.278 . S
C109 O110 1.203 . S
C109 O116 1.267 . S
O110 C109 1.203 . S
O111 C104 1.185 . S
O111 Zn107 2.086 . S
C112 O108 1.278 . S
C112 O113 1.211 . S
O113 C112 1.211 . S
C114 O106 1.284 . S
C114 O115 1.273 . S
O115 C114 1.273 . S
O116 Zn107 1.977 . S
O116 C109 1.267 . S
C117 O118 1.160 . S
C117 O124 1.185 . S
O118 C117 1.160 . S
O119 Zn120 1.899 . S
O119 C127 1.283 . S
Zn120 O119 1.899 . S
Zn120 O121 2.032 . S
Zn120 O124 2.086 . S
Zn120 O129 1.977 . S
O121 Zn120 2.032 . S
O121 C125 1.278 . S
C122 O123 1.203 . S
C122 O129 1.267 . S
O123 C122 1.203 . S
O124 C117 1.185 . S
O124 Zn120 2.086 . S
C125 O121 1.278 . S
C125 O126 1.211 . S
O126 C125 1.211 . S
C127 O119 1.283 . S
C127 O128 1.280 . S
O128 C127 1.280 . S
O129 Zn120 1.977 . S
O129 C122 1.267 . S
C130 O131 1.160 . S
C130 O137 1.185 1_655 S
O131 C130 1.160 . S
O132 Zn133 1.899 . S
O132 C140 1.284 . S
Zn133 O132 1.899 . S
Zn133 O134 2.032 . S
Zn133 O137 2.086 . S
Zn133 O142 1.977 . S
O134 Zn133 2.032 . S
O134 C138 1.278 . S
C135 O136 1.203 . S
C135 O142 1.267 . S
O136 C135 1.203 . S
O137 C130 1.185 1_455 S
O137 Zn133 2.086 . S
C138 O134 1.278 . S
C138 O139 1.211 . S
O139 C138 1.211 . S
C140 O132 1.284 . S
C140 O141 1.273 . S
O141 C140 1.273 . S
O142 Zn133 1.977 . S
O142 C135 1.267 . S
C143 O144 1.160 . S
C143 O150 1.185 . S
O144 C143 1.160 . S
O145 Zn146 1.899 . S
O145 C153 1.284 . S
Zn146 O145 1.899 . S
Zn146 O147 2.032 . S
Zn146 O150 2.086 . S
Zn146 O155 1.977 . S
O147 Zn146 2.032 . S
O147 C151 1.278 . S
C148 O149 1.203 . S
C148 O155 1.267 . S
O149 C148 1.203 . S
O150 C143 1.185 . S
O150 Zn146 2.086 . S
C151 O147 1.278 . S
C151 O152 1.211 . S
O152 C151 1.211 . S
C153 O145 1.284 . S
C153 O154 1.273 . S
O154 C153 1.273 . S
O155 Zn146 1.977 . S
O155 C148 1.267 . S
C156 O157 1.160 . S
C156 O163 1.185 . S
O157 C156 1.160 . S
O158 Zn159 1.899 . S
O158 C166 1.284 . S
Zn159 O158 1.899 . S
Zn159 O160 2.032 . S
Zn159 O163 2.086 . S
Zn159 O168 1.977 . S
O160 Zn159 2.032 . S
O160 C164 1.278 . S
C161 O162 1.203 . S
C161 O168 1.267 . S
O162 C161 1.203 . S
O163 C156 1.185 . S
O163 Zn159 2.086 . S
C164 O160 1.278 . S
C164 O165 1.211 . S
O165 C164 1.211 . S
C166 O158 1.284 . S
C166 O167 1.273 . S
O167 C166 1.273 . S
O168 Zn159 1.977 . S
O168 C161 1.267 . S
C169 O170 1.160 . S
C169 O176 1.152 1_455 S
O170 C169 1.160 . S
O171 Zn172 1.899 . S
O171 C179 1.284 . S
Zn172 O171 1.899 . S
Zn172 O173 2.032 . S
Zn172 O176 2.173 . S
Zn172 O181 1.977 . S
O173 Zn172 2.032 . S
O173 C177 1.278 . S
C174 O175 1.203 . S
C174 O181 1.267 . S
O175 C174 1.203 . S
O176 C169 1.152 1_655 S
O176 Zn172 2.173 . S
C177 O173 1.278 . S
C177 O178 1.211 . S
O178 C177 1.211 . S
C179 O171 1.284 . S
C179 O180 1.273 . S
O180 C179 1.273 . S
O181 Zn172 1.977 . S
O181 C174 1.267 . S
C182 O183 1.160 . S
C182 O189 1.185 . S
O183 C182 1.160 . S
O184 Zn185 1.899 . S
O184 C192 1.284 . S
Zn185 O184 1.899 . S
Zn185 O186 2.032 . S
Zn185 O189 2.086 . S
Zn185 O194 1.977 . S
O186 Zn185 2.032 . S
O186 C190 1.278 . S
C187 O188 1.203 . S
C187 O194 1.267 . S
O188 C187 1.203 . S
O189 C182 1.185 . S
O189 Zn185 2.086 . S
C190 O186 1.278 . S
C190 O191 1.211 . S
O191 C190 1.211 . S
C192 O184 1.284 . S
C192 O193 1.273 . S
O193 C192 1.273 . S
O194 Zn185 1.977 . S
O194 C187 1.267 . S
C195 O196 1.160 . S
C195 O202 1.185 . S
O196 C195 1.160 . S
O197 Zn198 1.899 . S
O197 C205 1.284 . S
Zn198 O197 1.899 . S
Zn198 O199 2.032 . S
Zn198 O202 2.086 . S
Zn198 O207 1.977 . S
O199 Zn198 2.032 . S
O199 C203 1.278 . S
C200 O201 1.203 . S
C200 O207 1.267 . S
O201 C200 1.203 . S
O202 C195 1.185 . S
O202 Zn198 2.086 . S
C203 O199 1.278 . S
C203 O204 1.211 . S
O204 C203 1.211 . S
C205 O197 1.284 . S
C205 O206 1.273 . S
O206 C205 1.273 . S
O207 Zn198 1.977 . S
O207 C200 1.267 . S
C208 O209 1.160 . S
C208 O215 1.185 . S
O209 C208 1.160 . S
O210 Zn211 1.899 . S
O210 C218 1.284 . S
Zn211 O210 1.899 . S
Zn211 O212 2.032 . S
Zn211 O215 2.086 . S
Zn211 O220 1.977 . S
O212 Zn211 2.032 . S
O212 C216 1.278 . S
C213 O214 1.203 . S
C213 O220 1.267 . S
O214 C213 1.203 . S
O215 C208 1.185 . S
O215 Zn211 2.086 . S
C216 O212 1.278 . S
C216 O217 1.211 . S
O217 C216 1.211 . S
C218 O210 1.284 . S
C218 O219 1.273 . S
O219 C218 1.273 . S
O220 Zn211 1.977 . S
O220 C213 1.267 . S
C221 O222 1.160 . S
C221 O228 1.185 . S
O222 C221 1.160 . S
O223 Zn224 1.899 . S
O223 C231 1.284 . S
Zn224 O223 1.899 . S
Zn224 O225 2.032 . S
Zn224 O228 2.086 . S
Zn224 O233 1.977 . S
O225 Zn224 2.032 . S
O225 C229 1.278 . S
C226 O227 1.203 . S
C226 O233 1.267 . S
O227 C226 1.203 . S
O228 C221 1.185 . S
O228 Zn224 2.086 . S
C229 O225 1.278 . S
C229 O230 1.211 . S
O230 C229 1.211 . S
C231 O223 1.284 . S
C231 O232 1.273 . S
O232 C231 1.273 . S
O233 Zn224 1.977 . S
O233 C226 1.267 . S
H234 C261 0.929 . S
N235 C260 1.433 . S
N235 C266 1.435 . S
N235 C272 1.423 . S
H236 C262 0.930 . S
H237 C265 0.931 . S
H238 C264 0.929 . S
H239 C267 0.930 . S
H240 C268 0.932 . S
H241 C271 0.929 . S
H242 C270 0.931 . S
H243 C273 0.929 . S
H244 C277 0.932 . S
H245 C274 0.931 . S
H246 C276 0.929 . S
H247 C279 0.929 . S
H248 C280 0.930 . S
H249 C282 0.929 . S
H250 C283 0.931 . S
H251 C285 0.930 . S
H252 C286 0.932 . S
H253 C288 0.931 . S
H254 C289 0.929 . S
H255 C291 0.929 . S
H256 C292 0.931 . S
H257 C294 0.929 . S
N258 C278 1.433 . S
N258 C284 1.435 . S
N258 C290 1.423 . S
H259 C295 0.932 . S
C260 N235 1.433 . S
C260 C261 1.363 . S
C260 C265 1.370 . S
C261 H234 0.929 . S
C261 C260 1.363 . S
C261 C262 1.385 . S
C262 H236 0.930 . S
C262 C261 1.385 . S
C262 C263 1.357 . S
C263 C262 1.357 . S
C263 C264 1.406 . S
C264 H238 0.929 . S
C264 C263 1.406 . S
C264 C265 1.391 . S
C265 H237 0.931 . S
C265 C260 1.370 . S
C265 C264 1.391 . S
C266 N235 1.435 . S
C266 C267 1.358 . S
C266 C271 1.371 . S
C267 H239 0.930 . S
C267 C266 1.358 . S
C267 C268 1.405 . S
C268 H240 0.932 . S
C268 C267 1.405 . S
C268 C269 1.383 . S
C269 C268 1.383 . S
C269 C270 1.393 . S
C270 H242 0.931 . S
C270 C269 1.393 . S
C270 C271 1.382 . S
C271 H241 0.929 . S
C271 C266 1.371 . S
C271 C270 1.382 . S
C272 N235 1.423 . S
C272 C273 1.362 . S
C272 C277 1.388 . S
C273 H243 0.929 . S
C273 C272 1.362 . S
C273 C274 1.376 . S
C274 H245 0.931 . S
C274 C273 1.376 . S
C274 C275 1.396 . S
C275 C274 1.396 . S
C275 C276 1.348 . S
C275 C293 1.472 . S
C276 H246 0.929 . S
C276 C275 1.348 . S
C276 C277 1.443 . S
C277 H244 0.932 . S
C277 C272 1.388 . S
C277 C276 1.443 . S
C278 N258 1.433 . S
C278 C279 1.363 . S
C278 C283 1.370 . S
C279 H247 0.929 . S
C279 C278 1.363 . S
C279 C280 1.385 . S
C280 H248 0.930 . S
C280 C279 1.385 . S
C280 C281 1.357 . S
C281 C280 1.357 . S
C281 C282 1.406 . S
C282 H249 0.929 . S
C282 C281 1.406 . S
C282 C283 1.391 . S
C283 H250 0.931 . S
C283 C278 1.370 . S
C283 C282 1.391 . S
C284 N258 1.435 . S
C284 C285 1.358 . S
C284 C289 1.371 . S
C285 H251 0.930 . S
C285 C284 1.358 . S
C285 C286 1.405 . S
C286 H252 0.932 . S
C286 C285 1.405 . S
C286 C287 1.383 . S
C287 C286 1.383 . S
C287 C288 1.393 . S
C288 H253 0.931 . S
C288 C287 1.393 . S
C288 C289 1.382 . S
C289 H254 0.929 . S
C289 C284 1.371 . S
C289 C288 1.382 . S
C290 N258 1.423 . S
C290 C291 1.362 . S
C290 C295 1.388 . S
C291 H255 0.929 . S
C291 C290 1.362 . S
C291 C292 1.376 . S
C292 H256 0.931 . S
C292 C291 1.376 . S
C292 C293 1.396 . S
C293 C275 1.472 . S
C293 C292 1.396 . S
C293 C294 1.348 . S
C294 H257 0.929 . S
C294 C293 1.348 . S
C294 C295 1.443 . S
C295 H259 0.932 . S
C295 C290 1.388 . S
C295 C294 1.443 . S
H296 C323 0.929 . S
N297 C322 1.433 . S
N297 C328 1.435 . S
N297 C334 1.423 . S
H298 C324 0.930 . S
H299 C327 0.931 . S
H300 C326 0.929 . S
H301 C329 0.930 . S
H302 C330 0.932 . S
H303 C333 0.929 . S
H304 C332 0.931 . S
H305 C335 0.929 . S
H306 C339 0.932 . S
H307 C336 0.931 . S
H308 C338 0.929 . S
H309 C341 0.929 . S
H310 C342 0.930 . S
H311 C344 0.929 . S
H312 C345 0.931 . S
H313 C347 0.930 . S
H314 C348 0.932 . S
H315 C350 0.931 . S
H316 C351 0.929 . S
H317 C353 0.929 . S
H318 C354 0.931 . S
H319 C356 0.929 . S
N320 C340 1.433 . S
N320 C346 1.435 . S
N320 C352 1.423 . S
H321 C357 0.932 . S
C322 N297 1.433 . S
C322 C323 1.363 . S
C322 C327 1.370 . S
C323 H296 0.929 . S
C323 C322 1.363 . S
C323 C324 1.385 . S
C324 H298 0.930 . S
C324 C323 1.385 . S
C324 C325 1.357 . S
C325 C324 1.357 . S
C325 C326 1.406 . S
C326 H300 0.929 . S
C326 C325 1.406 . S
C326 C327 1.391 . S
C327 H299 0.931 . S
C327 C322 1.370 . S
C327 C326 1.391 . S
C328 N297 1.435 . S
C328 C329 1.358 . S
C328 C333 1.371 . S
C329 H301 0.930 . S
C329 C328 1.358 . S
C329 C330 1.405 . S
C330 H302 0.932 . S
C330 C329 1.405 . S
C330 C331 1.383 . S
C331 C330 1.383 . S
C331 C332 1.393 . S
C332 H304 0.931 . S
C332 C331 1.393 . S
C332 C333 1.382 . S
C333 H303 0.929 . S
C333 C328 1.371 . S
C333 C332 1.382 . S
C334 N297 1.423 . S
C334 C335 1.362 . S
C334 C339 1.388 . S
C335 H305 0.929 . S
C335 C334 1.362 . S
C335 C336 1.376 . S
C336 H307 0.931 . S
C336 C335 1.376 . S
C336 C337 1.396 . S
C337 C336 1.396 . S
C337 C338 1.348 . S
C337 C355 1.472 . S
C338 H308 0.929 . S
C338 C337 1.348 . S
C338 C339 1.443 . S
C339 H306 0.932 . S
C339 C334 1.388 . S
C339 C338 1.443 . S
C340 N320 1.433 . S
C340 C341 1.363 . S
C340 C345 1.370 . S
C341 H309 0.929 . S
C341 C340 1.363 . S
C341 C342 1.385 . S
C342 H310 0.930 . S
C342 C341 1.385 . S
C342 C343 1.357 . S
C343 C342 1.357 . S
C343 C344 1.406 . S
C344 H311 0.929 . S
C344 C343 1.406 . S
C344 C345 1.391 . S
C345 H312 0.931 . S
C345 C340 1.370 . S
C345 C344 1.391 . S
C346 N320 1.435 . S
C346 C347 1.358 . S
C346 C351 1.371 . S
C347 H313 0.930 . S
C347 C346 1.358 . S
C347 C348 1.405 . S
C348 H314 0.932 . S
C348 C347 1.405 . S
C348 C349 1.383 . S
C349 C348 1.383 . S
C349 C350 1.393 . S
C350 H315 0.931 . S
C350 C349 1.393 . S
C350 C351 1.382 . S
C351 H316 0.929 . S
C351 C346 1.371 . S
C351 C350 1.382 . S
C352 N320 1.423 . S
C352 C353 1.362 . S
C352 C357 1.388 . S
C353 H317 0.929 . S
C353 C352 1.362 . S
C353 C354 1.376 . S
C354 H318 0.931 . S
C354 C353 1.376 . S
C354 C355 1.396 . S
C355 C337 1.472 . S
C355 C354 1.396 . S
C355 C356 1.348 . S
C356 H319 0.929 . S
C356 C355 1.348 . S
C356 C357 1.443 . S
C357 H321 0.932 . S
C357 C352 1.388 . S
C357 C356 1.443 . S
H358 C385 0.929 . S
N359 C384 1.433 . S
N359 C390 1.435 . S
N359 C396 1.423 . S
H360 C386 0.930 . S
H361 C389 0.931 . S
H362 C388 0.929 . S
H363 C391 0.930 . S
H364 C392 0.932 . S
H365 C395 0.929 . S
H366 C394 0.931 . S
H367 C397 0.929 . S
H368 C401 0.932 . S
H369 C398 0.931 . S
H370 C400 0.929 . S
H371 C403 0.929 . S
H372 C404 0.930 . S
H373 C406 0.929 . S
H374 C407 0.931 . S
H375 C409 0.930 . S
H376 C410 0.932 . S
H377 C412 0.931 . S
H378 C413 0.929 . S
H379 C415 0.929 . S
H380 C416 0.931 . S
H381 C418 0.929 . S
N382 C402 1.433 . S
N382 C408 1.435 . S
N382 C414 1.423 . S
H383 C419 0.932 . S
C384 N359 1.433 . S
C384 C385 1.363 . S
C384 C389 1.370 . S
C385 H358 0.929 . S
C385 C384 1.363 . S
C385 C386 1.385 . S
C386 H360 0.930 . S
C386 C385 1.385 . S
C386 C387 1.357 . S
C387 C386 1.357 . S
C387 C388 1.406 . S
C388 H362 0.929 . S
C388 C387 1.406 . S
C388 C389 1.391 . S
C389 H361 0.931 . S
C389 C384 1.370 . S
C389 C388 1.391 . S
C390 N359 1.435 . S
C390 C391 1.358 . S
C390 C395 1.371 . S
C391 H363 0.930 . S
C391 C390 1.358 . S
C391 C392 1.405 . S
C392 H364 0.932 . S
C392 C391 1.405 . S
C392 C393 1.383 . S
C393 C392 1.383 . S
C393 C394 1.393 . S
C394 H366 0.931 . S
C394 C393 1.393 . S
C394 C395 1.382 . S
C395 H365 0.929 . S
C395 C390 1.371 . S
C395 C394 1.382 . S
C396 N359 1.423 . S
C396 C397 1.362 . S
C396 C401 1.388 . S
C397 H367 0.929 . S
C397 C396 1.362 . S
C397 C398 1.376 . S
C398 H369 0.931 . S
C398 C397 1.376 . S
C398 C399 1.396 . S
C399 C398 1.396 . S
C399 C400 1.348 . S
C399 C417 1.472 . S
C400 H370 0.929 . S
C400 C399 1.348 . S
C400 C401 1.443 . S
C401 H368 0.932 . S
C401 C396 1.388 . S
C401 C400 1.443 . S
C402 N382 1.433 . S
C402 C403 1.363 . S
C402 C407 1.370 . S
C403 H371 0.929 . S
C403 C402 1.363 . S
C403 C404 1.385 . S
C404 H372 0.930 . S
C404 C403 1.385 . S
C404 C405 1.357 . S
C405 C404 1.357 . S
C405 C406 1.406 . S
C406 H373 0.929 . S
C406 C405 1.406 . S
C406 C407 1.391 . S
C407 H374 0.931 . S
C407 C402 1.370 . S
C407 C406 1.391 . S
C408 N382 1.435 . S
C408 C409 1.358 . S
C408 C413 1.371 . S
C409 H375 0.930 . S
C409 C408 1.358 . S
C409 C410 1.405 . S
C410 H376 0.932 . S
C410 C409 1.405 . S
C410 C411 1.383 . S
C411 C410 1.383 . S
C411 C412 1.393 . S
C412 H377 0.931 . S
C412 C411 1.393 . S
C412 C413 1.382 . S
C413 H378 0.929 . S
C413 C408 1.371 . S
C413 C412 1.382 . S
C414 N382 1.423 . S
C414 C415 1.362 . S
C414 C419 1.388 . S
C415 H379 0.929 . S
C415 C414 1.362 . S
C415 C416 1.376 . S
C416 H380 0.931 . S
C416 C415 1.376 . S
C416 C417 1.396 . S
C417 C399 1.472 . S
C417 C416 1.396 . S
C417 C418 1.348 . S
C418 H381 0.929 . S
C418 C417 1.348 . S
C418 C419 1.443 . S
C419 H383 0.932 . S
C419 C414 1.388 . S
C419 C418 1.443 . S
H420 C447 0.929 . S
N421 C446 1.433 . S
N421 C452 1.435 . S
N421 C458 1.423 . S
H422 C448 0.930 . S
H423 C451 0.931 . S
H424 C450 0.929 . S
H425 C453 0.930 . S
H426 C454 0.932 . S
H427 C457 0.929 . S
H428 C456 0.931 . S
H429 C459 0.929 . S
H430 C463 0.932 . S
H431 C460 0.931 . S
H432 C462 0.929 . S
H433 C465 0.929 . S
H434 C466 0.930 . S
H435 C468 0.929 . S
H436 C469 0.931 . S
H437 C471 0.930 . S
H438 C472 0.932 . S
H439 C474 0.931 . S
H440 C475 0.929 . S
H441 C477 0.929 . S
H442 C478 0.931 . S
H443 C480 0.929 . S
N444 C464 1.433 . S
N444 C470 1.435 . S
N444 C476 1.423 . S
H445 C481 0.932 . S
C446 N421 1.433 . S
C446 C447 1.363 . S
C446 C451 1.370 . S
C447 H420 0.929 . S
C447 C446 1.363 . S
C447 C448 1.385 . S
C448 H422 0.930 . S
C448 C447 1.385 . S
C448 C449 1.357 . S
C449 C448 1.357 . S
C449 C450 1.406 . S
C450 H424 0.929 . S
C450 C449 1.406 . S
C450 C451 1.391 . S
C451 H423 0.931 . S
C451 C446 1.370 . S
C451 C450 1.391 . S
C452 N421 1.435 . S
C452 C453 1.358 . S
C452 C457 1.371 . S
C453 H425 0.930 . S
C453 C452 1.358 . S
C453 C454 1.405 . S
C454 H426 0.932 . S
C454 C453 1.405 . S
C454 C455 1.383 . S
C455 C454 1.383 . S
C455 C456 1.393 . S
C456 H428 0.931 . S
C456 C455 1.393 . S
C456 C457 1.382 . S
C457 H427 0.929 . S
C457 C452 1.371 . S
C457 C456 1.382 . S
C458 N421 1.423 . S
C458 C459 1.362 . S
C458 C463 1.388 . S
C459 H429 0.929 . S
C459 C458 1.362 . S
C459 C460 1.376 . S
C460 H431 0.931 . S
C460 C459 1.376 . S
C460 C461 1.396 . S
C461 C460 1.396 . S
C461 C462 1.348 . S
C461 C479 1.472 . S
C462 H432 0.929 . S
C462 C461 1.348 . S
C462 C463 1.443 . S
C463 H430 0.932 . S
C463 C458 1.388 . S
C463 C462 1.443 . S
C464 N444 1.433 . S
C464 C465 1.363 . S
C464 C469 1.370 . S
C465 H433 0.929 . S
C465 C464 1.363 . S
C465 C466 1.385 . S
C466 H434 0.930 . S
C466 C465 1.385 . S
C466 C467 1.357 . S
C467 C466 1.357 . S
C467 C468 1.406 . S
C468 H435 0.929 . S
C468 C467 1.406 . S
C468 C469 1.391 . S
C469 H436 0.931 . S
C469 C464 1.370 . S
C469 C468 1.391 . S
C470 N444 1.435 . S
C470 C471 1.358 . S
C470 C475 1.371 . S
C471 H437 0.930 . S
C471 C470 1.358 . S
C471 C472 1.405 . S
C472 H438 0.932 . S
C472 C471 1.405 . S
C472 C473 1.383 . S
C473 C472 1.383 . S
C473 C474 1.393 . S
C474 H439 0.931 . S
C474 C473 1.393 . S
C474 C475 1.382 . S
C475 H440 0.929 . S
C475 C470 1.371 . S
C475 C474 1.382 . S
C476 N444 1.423 . S
C476 C477 1.362 . S
C476 C481 1.388 . S
C477 H441 0.929 . S
C477 C476 1.362 . S
C477 C478 1.376 . S
C478 H442 0.931 . S
C478 C477 1.376 . S
C478 C479 1.396 . S
C479 C461 1.472 . S
C479 C478 1.396 . S
C479 C480 1.348 . S
C480 H443 0.929 . S
C480 C479 1.348 . S
C480 C481 1.443 . S
C481 H445 0.932 . S
C481 C476 1.388 . S
C481 C480 1.443 . S
H482 C509 0.929 . S
N483 C508 1.433 . S
N483 C514 1.435 . S
N483 C520 1.423 . S
H484 C510 0.930 . S
H485 C513 0.931 . S
H486 C512 0.929 . S
H487 C515 0.930 . S
H488 C516 0.932 . S
H489 C519 0.929 . S
H490 C518 0.931 . S
H491 C521 0.929 . S
H492 C525 0.932 . S
H493 C522 0.931 . S
H494 C524 0.929 . S
H495 C527 0.929 . S
H496 C528 0.930 . S
H497 C530 0.929 . S
H498 C531 0.931 . S
H499 C533 0.930 . S
H500 C534 0.932 . S
H501 C536 0.931 . S
H502 C537 0.929 . S
H503 C539 0.929 . S
H504 C540 0.931 . S
H505 C542 0.929 . S
N506 C526 1.433 . S
N506 C532 1.435 . S
N506 C538 1.423 . S
H507 C543 0.932 . S
C508 N483 1.433 . S
C508 C509 1.363 . S
C508 C513 1.370 . S
C509 H482 0.929 . S
C509 C508 1.363 . S
C509 C510 1.385 . S
C510 H484 0.930 . S
C510 C509 1.385 . S
C510 C511 1.357 . S
C511 C510 1.357 . S
C511 C512 1.406 . S
C512 H486 0.929 . S
C512 C511 1.406 . S
C512 C513 1.391 . S
C513 H485 0.931 . S
C513 C508 1.370 . S
C513 C512 1.391 . S
C514 N483 1.435 . S
C514 C515 1.358 . S
C514 C519 1.371 . S
C515 H487 0.930 . S
C515 C514 1.358 . S
C515 C516 1.405 . S
C516 H488 0.932 . S
C516 C515 1.405 . S
C516 C517 1.383 . S
C517 C516 1.383 . S
C517 C518 1.393 . S
C518 H490 0.931 . S
C518 C517 1.393 . S
C518 C519 1.382 . S
C519 H489 0.929 . S
C519 C514 1.371 . S
C519 C518 1.382 . S
C520 N483 1.423 . S
C520 C521 1.362 . S
C520 C525 1.388 . S
C521 H491 0.929 . S
C521 C520 1.362 . S
C521 C522 1.376 . S
C522 H493 0.931 . S
C522 C521 1.376 . S
C522 C523 1.396 . S
C523 C522 1.396 . S
C523 C524 1.348 . S
C523 C541 1.472 . S
C524 H494 0.929 . S
C524 C523 1.348 . S
C524 C525 1.443 . S
C525 H492 0.932 . S
C525 C520 1.388 . S
C525 C524 1.443 . S
C526 N506 1.433 . S
C526 C527 1.363 . S
C526 C531 1.370 . S
C527 H495 0.929 . S
C527 C526 1.363 . S
C527 C528 1.385 . S
C528 H496 0.930 . S
C528 C527 1.385 . S
C528 C529 1.357 . S
C529 C528 1.357 . S
C529 C530 1.406 . S
C530 H497 0.929 . S
C530 C529 1.406 . S
C530 C531 1.391 . S
C531 H498 0.931 . S
C531 C526 1.370 . S
C531 C530 1.391 . S
C532 N506 1.435 . S
C532 C533 1.358 . S
C532 C537 1.371 . S
C533 H499 0.930 . S
C533 C532 1.358 . S
C533 C534 1.405 . S
C534 H500 0.932 . S
C534 C533 1.405 . S
C534 C535 1.383 . S
C535 C534 1.383 . S
C535 C536 1.393 . S
C536 H501 0.931 . S
C536 C535 1.393 . S
C536 C537 1.382 . S
C537 H502 0.929 . S
C537 C532 1.371 . S
C537 C536 1.382 . S
C538 N506 1.423 . S
C538 C539 1.362 . S
C538 C543 1.388 . S
C539 H503 0.929 . S
C539 C538 1.362 . S
C539 C540 1.376 . S
C540 H504 0.931 . S
C540 C539 1.376 . S
C540 C541 1.396 . S
C541 C523 1.472 . S
C541 C540 1.396 . S
C541 C542 1.348 . S
C542 H505 0.929 . S
C542 C541 1.348 . S
C542 C543 1.443 . S
C543 H507 0.932 . S
C543 C538 1.388 . S
C543 C542 1.443 . S
H544 C571 0.929 . S
N545 C570 1.433 . S
N545 C576 1.435 . S
N545 C582 1.423 . S
H546 C572 0.930 . S
H547 C575 0.931 . S
H548 C574 0.929 . S
H549 C577 0.930 . S
H550 C578 0.932 . S
H551 C581 0.929 . S
H552 C580 0.931 . S
H553 C583 0.929 . S
H554 C587 0.932 . S
H555 C584 0.931 . S
H556 C586 0.929 . S
H557 C589 0.929 . S
H558 C590 0.930 . S
H559 C592 0.929 . S
H560 C593 0.931 . S
H561 C595 0.930 . S
H562 C596 0.932 . S
H563 C598 0.931 . S
H564 C599 0.929 . S
H565 C601 0.929 . S
H566 C602 0.931 . S
H567 C604 0.929 . S
N568 C588 1.433 . S
N568 C594 1.435 . S
N568 C600 1.423 . S
H569 C605 0.932 . S
C570 N545 1.433 . S
C570 C571 1.363 . S
C570 C575 1.370 . S
C571 H544 0.929 . S
C571 C570 1.363 . S
C571 C572 1.385 . S
C572 H546 0.930 . S
C572 C571 1.385 . S
C572 C573 1.357 . S
C573 C572 1.357 . S
C573 C574 1.406 . S
C574 H548 0.929 . S
C574 C573 1.406 . S
C574 C575 1.391 . S
C575 H547 0.931 . S
C575 C570 1.370 . S
C575 C574 1.391 . S
C576 N545 1.435 . S
C576 C577 1.358 . S
C576 C581 1.371 . S
C577 H549 0.930 . S
C577 C576 1.358 . S
C577 C578 1.405 . S
C578 H550 0.932 . S
C578 C577 1.405 . S
C578 C579 1.383 . S
C579 C578 1.383 . S
C579 C580 1.393 . S
C580 H552 0.931 . S
C580 C579 1.393 . S
C580 C581 1.382 . S
C581 H551 0.929 . S
C581 C576 1.371 . S
C581 C580 1.382 . S
C582 N545 1.423 . S
C582 C583 1.362 . S
C582 C587 1.388 . S
C583 H553 0.929 . S
C583 C582 1.362 . S
C583 C584 1.376 . S
C584 H555 0.931 . S
C584 C583 1.376 . S
C584 C585 1.396 . S
C585 C584 1.396 . S
C585 C586 1.348 . S
C585 C603 1.472 . S
C586 H556 0.929 . S
C586 C585 1.348 . S
C586 C587 1.443 . S
C587 H554 0.932 . S
C587 C582 1.388 . S
C587 C586 1.443 . S
C588 N568 1.433 . S
C588 C589 1.363 . S
C588 C593 1.370 . S
C589 H557 0.929 . S
C589 C588 1.363 . S
C589 C590 1.385 . S
C590 H558 0.930 . S
C590 C589 1.385 . S
C590 C591 1.357 . S
C591 C590 1.357 . S
C591 C592 1.406 . S
C592 H559 0.929 . S
C592 C591 1.406 . S
C592 C593 1.391 . S
C593 H560 0.931 . S
C593 C588 1.370 . S
C593 C592 1.391 . S
C594 N568 1.435 . S
C594 C595 1.358 . S
C594 C599 1.371 . S
C595 H561 0.930 . S
C595 C594 1.358 . S
C595 C596 1.405 . S
C596 H562 0.932 . S
C596 C595 1.405 . S
C596 C597 1.383 . S
C597 C596 1.383 . S
C597 C598 1.393 . S
C598 H563 0.931 . S
C598 C597 1.393 . S
C598 C599 1.382 . S
C599 H564 0.929 . S
C599 C594 1.371 . S
C599 C598 1.382 . S
C600 N568 1.423 . S
C600 C601 1.362 . S
C600 C605 1.388 . S
C601 H565 0.929 . S
C601 C600 1.362 . S
C601 C602 1.376 . S
C602 H566 0.931 . S
C602 C601 1.376 . S
C602 C603 1.396 . S
C603 C585 1.472 . S
C603 C602 1.396 . S
C603 C604 1.348 . S
C604 H567 0.929 . S
C604 C603 1.348 . S
C604 C605 1.443 . S
C605 H569 0.932 . S
C605 C600 1.388 . S
C605 C604 1.443 . S
H606 C633 0.929 . S
N607 C632 1.433 . S
N607 C638 1.435 . S
N607 C644 1.423 . S
H608 C634 0.930 . S
H609 C637 0.931 . S
H610 C636 0.929 . S
H611 C639 0.930 . S
H612 C640 0.932 . S
H613 C643 0.929 . S
H614 C642 0.931 . S
H615 C645 0.929 . S
H616 C649 0.932 . S
H617 C646 0.931 . S
H618 C648 0.929 . S
H619 C651 0.929 . S
H620 C652 0.930 . S
H621 C654 0.929 . S
H622 C655 0.931 . S
H623 C657 0.930 . S
H624 C658 0.932 . S
H625 C660 0.931 . S
H626 C661 0.929 . S
H627 C663 0.929 . S
H628 C664 0.931 . S
H629 C666 0.929 . S
N630 C650 1.433 . S
N630 C656 1.435 . S
N630 C662 1.423 . S
H631 C667 0.932 . S
C632 N607 1.433 . S
C632 C633 1.363 . S
C632 C637 1.370 . S
C633 H606 0.929 . S
C633 C632 1.363 . S
C633 C634 1.385 . S
C634 H608 0.930 . S
C634 C633 1.385 . S
C634 C635 1.357 . S
C635 C634 1.357 . S
C635 C636 1.406 . S
C636 H610 0.929 . S
C636 C635 1.406 . S
C636 C637 1.391 . S
C637 H609 0.931 . S
C637 C632 1.370 . S
C637 C636 1.391 . S
C638 N607 1.435 . S
C638 C639 1.358 . S
C638 C643 1.371 . S
C639 H611 0.930 . S
C639 C638 1.358 . S
C639 C640 1.405 . S
C640 H612 0.932 . S
C640 C639 1.405 . S
C640 C641 1.383 . S
C641 C640 1.383 . S
C641 C642 1.393 . S
C642 H614 0.931 . S
C642 C641 1.393 . S
C642 C643 1.382 . S
C643 H613 0.929 . S
C643 C638 1.371 . S
C643 C642 1.382 . S
C644 N607 1.423 . S
C644 C645 1.362 . S
C644 C649 1.388 . S
C645 H615 0.929 . S
C645 C644 1.362 . S
C645 C646 1.376 . S
C646 H617 0.931 . S
C646 C645 1.376 . S
C646 C647 1.396 . S
C647 C646 1.396 . S
C647 C648 1.348 . S
C647 C665 1.472 . S
C648 H618 0.929 . S
C648 C647 1.348 . S
C648 C649 1.443 . S
C649 H616 0.932 . S
C649 C644 1.388 . S
C649 C648 1.443 . S
C650 N630 1.433 . S
C650 C651 1.363 . S
C650 C655 1.370 . S
C651 H619 0.929 . S
C651 C650 1.363 . S
C651 C652 1.385 . S
C652 H620 0.930 . S
C652 C651 1.385 . S
C652 C653 1.357 . S
C653 C652 1.357 . S
C653 C654 1.406 . S
C654 H621 0.929 . S
C654 C653 1.406 . S
C654 C655 1.391 . S
C655 H622 0.931 . S
C655 C650 1.370 . S
C655 C654 1.391 . S
C656 N630 1.435 . S
C656 C657 1.358 . S
C656 C661 1.371 . S
C657 H623 0.930 . S
C657 C656 1.358 . S
C657 C658 1.405 . S
C658 H624 0.932 . S
C658 C657 1.405 . S
C658 C659 1.383 . S
C659 C658 1.383 . S
C659 C660 1.393 . S
C660 H625 0.931 . S
C660 C659 1.393 . S
C660 C661 1.382 . S
C661 H626 0.929 . S
C661 C656 1.371 . S
C661 C660 1.382 . S
C662 N630 1.423 . S
C662 C663 1.362 . S
C662 C667 1.388 . S
C663 H627 0.929 . S
C663 C662 1.362 . S
C663 C664 1.376 . S
C664 H628 0.931 . S
C664 C663 1.376 . S
C664 C665 1.396 . S
C665 C647 1.472 . S
C665 C664 1.396 . S
C665 C666 1.348 . S
C666 H629 0.929 . S
C666 C665 1.348 . S
C666 C667 1.443 . S
C667 H631 0.932 . S
C667 C662 1.388 . S
C667 C666 1.443 . S
H668 C695 0.929 . S
N669 C694 1.433 . S
N669 C700 1.435 . S
N669 C706 1.423 . S
H670 C696 0.930 . S
H671 C699 0.931 . S
H672 C698 0.929 . S
H673 C701 0.930 . S
H674 C702 0.932 . S
H675 C705 0.929 . S
H676 C704 0.931 . S
H677 C707 0.929 . S
H678 C711 0.932 . S
H679 C708 0.931 . S
H680 C710 0.929 . S
H681 C713 0.929 . S
H682 C714 0.930 . S
H683 C716 0.929 . S
H684 C717 0.931 . S
H685 C719 0.930 . S
H686 C720 0.932 . S
H687 C722 0.931 . S
H688 C723 0.929 . S
H689 C725 0.929 . S
H690 C726 0.931 . S
H691 C728 0.929 . S
N692 C712 1.433 . S
N692 C718 1.435 . S
N692 C724 1.423 . S
H693 C729 0.932 . S
C694 N669 1.433 . S
C694 C695 1.363 . S
C694 C699 1.370 . S
C695 H668 0.929 . S
C695 C694 1.363 . S
C695 C696 1.385 . S
C696 H670 0.930 . S
C696 C695 1.385 . S
C696 C697 1.357 . S
C697 C696 1.357 . S
C697 C698 1.406 . S
C698 H672 0.929 . S
C698 C697 1.406 . S
C698 C699 1.391 . S
C699 H671 0.931 . S
C699 C694 1.370 . S
C699 C698 1.391 . S
C700 N669 1.435 . S
C700 C701 1.358 . S
C700 C705 1.371 . S
C701 H673 0.930 . S
C701 C700 1.358 . S
C701 C702 1.405 . S
C702 H674 0.932 . S
C702 C701 1.405 . S
C702 C703 1.383 . S
C703 C702 1.383 . S
C703 C704 1.393 . S
C704 H676 0.931 . S
C704 C703 1.393 . S
C704 C705 1.382 . S
C705 H675 0.929 . S
C705 C700 1.371 . S
C705 C704 1.382 . S
C706 N669 1.423 . S
C706 C707 1.362 . S
C706 C711 1.388 . S
C707 H677 0.929 . S
C707 C706 1.362 . S
C707 C708 1.376 . S
C708 H679 0.931 . S
C708 C707 1.376 . S
C708 C709 1.396 . S
C709 C708 1.396 . S
C709 C710 1.348 . S
C709 C727 1.472 . S
C710 H680 0.929 . S
C710 C709 1.348 . S
C710 C711 1.443 . S
C711 H678 0.932 . S
C711 C706 1.388 . S
C711 C710 1.443 . S
C712 N692 1.433 . S
C712 C713 1.363 . S
C712 C717 1.370 . S
C713 H681 0.929 . S
C713 C712 1.363 . S
C713 C714 1.385 . S
C714 H682 0.930 . S
C714 C713 1.385 . S
C714 C715 1.357 . S
C715 C714 1.357 . S
C715 C716 1.406 . S
C716 H683 0.929 . S
C716 C715 1.406 . S
C716 C717 1.391 . S
C717 H684 0.931 . S
C717 C712 1.370 . S
C717 C716 1.391 . S
C718 N692 1.435 . S
C718 C719 1.358 . S
C718 C723 1.371 . S
C719 H685 0.930 . S
C719 C718 1.358 . S
C719 C720 1.405 . S
C720 H686 0.932 . S
C720 C719 1.405 . S
C720 C721 1.383 . S
C721 C720 1.383 . S
C721 C722 1.393 . S
C722 H687 0.931 . S
C722 C721 1.393 . S
C722 C723 1.382 . S
C723 H688 0.929 . S
C723 C718 1.371 . S
C723 C722 1.382 . S
C724 N692 1.423 . S
C724 C725 1.362 . S
C724 C729 1.388 . S
C725 H689 0.929 . S
C725 C724 1.362 . S
C725 C726 1.376 . S
C726 H690 0.931 . S
C726 C725 1.376 . S
C726 C727 1.396 . S
C727 C709 1.472 . S
C727 C726 1.396 . S
C727 C728 1.348 . S
C728 H691 0.929 . S
C728 C727 1.348 . S
C728 C729 1.443 . S
C729 H693 0.932 . S
C729 C724 1.388 . S
C729 C728 1.443 . S
H730 C757 0.929 . S
N731 C756 1.433 . S
N731 C762 1.435 . S
N731 C768 1.423 . S
H732 C758 0.930 . S
H733 C761 0.931 . S
H734 C760 0.929 . S
H735 C763 0.930 . S
H736 C764 0.932 . S
H737 C767 0.929 . S
H738 C766 0.931 . S
H739 C769 0.929 . S
H740 C773 0.932 . S
H741 C770 0.931 . S
H742 C772 0.929 . S
H743 C775 0.929 . S
H744 C776 0.930 . S
H745 C778 0.929 . S
H746 C779 0.931 . S
H747 C781 0.930 . S
H748 C782 0.932 . S
H749 C784 0.931 . S
H750 C785 0.929 . S
H751 C787 0.929 . S
H752 C788 0.931 . S
H753 C790 0.929 . S
N754 C774 1.433 . S
N754 C780 1.435 . S
N754 C786 1.423 . S
H755 C791 0.932 . S
C756 N731 1.433 . S
C756 C757 1.363 . S
C756 C761 1.370 . S
C757 H730 0.929 . S
C757 C756 1.363 . S
C757 C758 1.385 . S
C758 H732 0.930 . S
C758 C757 1.385 . S
C758 C759 1.357 . S
C759 C758 1.357 . S
C759 C760 1.406 . S
C760 H734 0.929 . S
C760 C759 1.406 . S
C760 C761 1.391 . S
C761 H733 0.931 . S
C761 C756 1.370 . S
C761 C760 1.391 . S
C762 N731 1.435 . S
C762 C763 1.358 . S
C762 C767 1.371 . S
C763 H735 0.930 . S
C763 C762 1.358 . S
C763 C764 1.405 . S
C764 H736 0.932 . S
C764 C763 1.405 . S
C764 C765 1.383 . S
C765 C764 1.383 . S
C765 C766 1.393 . S
C766 H738 0.931 . S
C766 C765 1.393 . S
C766 C767 1.382 . S
C767 H737 0.929 . S
C767 C762 1.371 . S
C767 C766 1.382 . S
C768 N731 1.423 . S
C768 C769 1.362 . S
C768 C773 1.388 . S
C769 H739 0.929 . S
C769 C768 1.362 . S
C769 C770 1.376 . S
C770 H741 0.931 . S
C770 C769 1.376 . S
C770 C771 1.396 . S
C771 C770 1.396 . S
C771 C772 1.348 . S
C771 C789 1.472 . S
C772 H742 0.929 . S
C772 C771 1.348 . S
C772 C773 1.443 . S
C773 H740 0.932 . S
C773 C768 1.388 . S
C773 C772 1.443 . S
C774 N754 1.433 . S
C774 C775 1.363 . S
C774 C779 1.370 . S
C775 H743 0.929 . S
C775 C774 1.363 . S
C775 C776 1.385 . S
C776 H744 0.930 . S
C776 C775 1.385 . S
C776 C777 1.357 . S
C777 C776 1.357 . S
C777 C778 1.406 . S
C778 H745 0.929 . S
C778 C777 1.406 . S
C778 C779 1.391 . S
C779 H746 0.931 . S
C779 C774 1.370 . S
C779 C778 1.391 . S
C780 N754 1.435 . S
C780 C781 1.358 . S
C780 C785 1.371 . S
C781 H747 0.930 . S
C781 C780 1.358 . S
C781 C782 1.405 . S
C782 H748 0.932 . S
C782 C781 1.405 . S
C782 C783 1.383 . S
C783 C782 1.383 . S
C783 C784 1.393 . S
C784 H749 0.931 . S
C784 C783 1.393 . S
C784 C785 1.382 . S
C785 H750 0.929 . S
C785 C780 1.371 . S
C785 C784 1.382 . S
C786 N754 1.423 . S
C786 C787 1.362 . S
C786 C791 1.388 . S
C787 H751 0.929 . S
C787 C786 1.362 . S
C787 C788 1.376 . S
C788 H752 0.931 . S
C788 C787 1.376 . S
C788 C789 1.396 . S
C789 C771 1.472 . S
C789 C788 1.396 . S
C789 C790 1.348 . S
C790 H753 0.929 . S
C790 C789 1.348 . S
C790 C791 1.443 . S
C791 H755 0.932 . S
C791 C786 1.388 . S
C791 C790 1.443 . S
H792 C819 0.929 . S
N793 C818 1.433 . S
N793 C824 1.435 . S
N793 C830 1.423 . S
H794 C820 0.930 . S
H795 C823 0.931 . S
H796 C822 0.929 . S
H797 C825 0.930 . S
H798 C826 0.932 . S
H799 C829 0.929 . S
H800 C828 0.931 . S
H801 C831 0.929 . S
H802 C835 0.932 1_655 S
H803 C832 0.931 . S
H804 C834 0.937 . S
H805 C837 0.929 . S
H806 C838 0.930 . S
H807 C840 0.929 . S
H808 C841 0.931 . S
H809 C843 0.930 . S
H810 C844 0.932 . S
H811 C846 0.931 . S
H812 C847 0.929 . S
H813 C849 0.929 . S
H814 C850 0.931 . S
H815 C852 0.929 . S
N816 C836 1.433 . S
N816 C842 1.435 . S
N816 C848 1.423 . S
H817 C853 0.932 1_655 S
C818 N793 1.433 . S
C818 C819 1.363 . S
C818 C823 1.370 1_455 S
C819 H792 0.929 . S
C819 C818 1.363 . S
C819 C820 1.385 . S
C820 H794 0.930 . S
C820 C819 1.385 . S
C820 C821 1.357 1_455 S
C821 C820 1.357 1_655 S
C821 C822 1.406 . S
C822 H796 0.929 . S
C822 C821 1.406 . S
C822 C823 1.391 . S
C823 H795 0.931 . S
C823 C818 1.370 1_655 S
C823 C822 1.391 . S
C824 N793 1.435 . S
C824 C825 1.358 1_455 S
C824 C829 1.371 . S
C825 H797 0.930 . S
C825 C824 1.358 1_655 S
C825 C826 1.405 . S
C826 H798 0.932 . S
C826 C825 1.405 . S
C826 C827 1.383 1_655 S
C827 C826 1.383 1_455 S
C827 C828 1.393 . S
C828 H800 0.931 . S
C828 C827 1.393 . S
C828 C829 1.382 . S
C829 H799 0.929 . S
C829 C824 1.371 . S
C829 C828 1.382 . S
C830 N793 1.423 . S
C830 C831 1.362 . S
C830 C835 1.388 . S
C831 H801 0.929 . S
C831 C830 1.362 . S
C831 C832 1.376 . S
C832 H803 0.931 . S
C832 C831 1.376 . S
C832 C833 1.396 . S
C833 C832 1.396 . S
C833 C834 1.348 . S
C833 C851 1.472 . S
C834 H804 0.937 . S
C834 C833 1.348 . S
C834 C835 1.443 . S
C835 H802 0.932 1_455 S
C835 C830 1.388 . S
C835 C834 1.443 . S
C836 N816 1.433 . S
C836 C837 1.363 . S
C836 C841 1.370 1_455 S
C837 H805 0.929 . S
C837 C836 1.363 . S
C837 C838 1.385 . S
C838 H806 0.930 . S
C838 C837 1.385 . S
C838 C839 1.357 1_455 S
C839 C838 1.357 1_655 S
C839 C840 1.406 . S
C840 H807 0.929 . S
C840 C839 1.406 . S
C840 C841 1.391 . S
C841 H808 0.931 . S
C841 C836 1.370 1_655 S
C841 C840 1.391 . S
C842 N816 1.435 . S
C842 C843 1.358 1_455 S
C842 C847 1.371 . S
C843 H809 0.930 . S
C843 C842 1.358 1_655 S
C843 C844 1.405 . S
C844 H810 0.932 . S
C844 C843 1.405 . S
C844 C845 1.383 1_655 S
C845 C844 1.383 1_455 S
C845 C846 1.393 . S
C846 H811 0.931 . S
C846 C845 1.393 . S
C846 C847 1.382 . S
C847 H812 0.929 . S
C847 C842 1.371 . S
C847 C846 1.382 . S
C848 N816 1.423 . S
C848 C849 1.362 . S
C848 C853 1.388 . S
C849 H813 0.929 . S
C849 C848 1.362 . S
C849 C850 1.376 . S
C850 H814 0.931 . S
C850 C849 1.376 . S
C850 C851 1.396 . S
C851 C833 1.472 . S
C851 C850 1.396 . S
C851 C852 1.348 . S
C852 H815 0.929 . S
C852 C851 1.348 . S
C852 C853 1.443 . S
C853 H817 0.932 1_455 S
C853 C848 1.388 . S
C853 C852 1.443 . S
H854 C881 0.929 . S
N855 C880 1.433 . S
N855 C886 1.435 . S
N855 C892 1.423 . S
H856 C882 0.930 . S
H857 C885 0.931 . S
H858 C884 0.929 . S
H859 C887 0.930 . S
H860 C888 0.932 . S
H861 C891 0.929 . S
H862 C890 0.931 . S
H863 C893 0.929 . S
H864 C897 0.932 . S
H865 C894 0.931 . S
H866 C896 0.929 . S
H867 C899 0.929 . S
H868 C900 0.930 . S
H869 C902 0.929 . S
H870 C903 0.931 . S
H871 C905 0.930 . S
H872 C906 0.932 . S
H873 C908 0.931 . S
H874 C909 0.929 . S
H875 C911 0.929 . S
H876 C912 0.931 . S
H877 C914 0.929 . S
N878 C898 1.433 . S
N878 C904 1.435 . S
N878 C910 1.423 . S
H879 C915 0.932 . S
C880 N855 1.433 . S
C880 C881 1.363 . S
C880 C885 1.370 . S
C881 H854 0.929 . S
C881 C880 1.363 . S
C881 C882 1.385 . S
C882 H856 0.930 . S
C882 C881 1.385 . S
C882 C883 1.357 . S
C883 C882 1.357 . S
C883 C884 1.406 . S
C884 H858 0.929 . S
C884 C883 1.406 . S
C884 C885 1.391 . S
C885 H857 0.931 . S
C885 C880 1.370 . S
C885 C884 1.391 . S
C886 N855 1.435 . S
C886 C887 1.358 . S
C886 C891 1.371 . S
C887 H859 0.930 . S
C887 C886 1.358 . S
C887 C888 1.405 . S
C888 H860 0.932 . S
C888 C887 1.405 . S
C888 C889 1.383 . S
C889 C888 1.383 . S
C889 C890 1.393 . S
C890 H862 0.931 . S
C890 C889 1.393 . S
C890 C891 1.382 . S
C891 H861 0.929 . S
C891 C886 1.371 . S
C891 C890 1.382 . S
C892 N855 1.423 . S
C892 C893 1.362 . S
C892 C897 1.388 . S
C893 H863 0.929 . S
C893 C892 1.362 . S
C893 C894 1.376 . S
C894 H865 0.931 . S
C894 C893 1.376 . S
C894 C895 1.396 . S
C895 C894 1.396 . S
C895 C896 1.348 . S
C895 C913 1.472 . S
C896 H866 0.929 . S
C896 C895 1.348 . S
C896 C897 1.443 . S
C897 H864 0.932 . S
C897 C892 1.388 . S
C897 C896 1.443 . S
C898 N878 1.433 . S
C898 C899 1.363 . S
C898 C903 1.370 . S
C899 H867 0.929 . S
C899 C898 1.363 . S
C899 C900 1.385 . S
C900 H868 0.930 . S
C900 C899 1.385 . S
C900 C901 1.357 . S
C901 C900 1.357 . S
C901 C902 1.406 . S
C902 H869 0.929 . S
C902 C901 1.406 . S
C902 C903 1.391 . S
C903 H870 0.931 . S
C903 C898 1.370 . S
C903 C902 1.391 . S
C904 N878 1.435 . S
C904 C905 1.358 . S
C904 C909 1.371 . S
C905 H871 0.930 . S
C905 C904 1.358 . S
C905 C906 1.405 . S
C906 H872 0.932 . S
C906 C905 1.405 . S
C906 C907 1.383 . S
C907 C906 1.383 . S
C907 C908 1.393 . S
C908 H873 0.931 . S
C908 C907 1.393 . S
C908 C909 1.382 . S
C909 H874 0.929 . S
C909 C904 1.371 . S
C909 C908 1.382 . S
C910 N878 1.423 . S
C910 C911 1.362 . S
C910 C915 1.388 . S
C911 H875 0.929 . S
C911 C910 1.362 . S
C911 C912 1.376 . S
C912 H876 0.931 . S
C912 C911 1.376 . S
C912 C913 1.396 . S
C913 C895 1.472 . S
C913 C912 1.396 . S
C913 C914 1.348 . S
C914 H877 0.929 . S
C914 C913 1.348 . S
C914 C915 1.443 . S
C915 H879 0.932 . S
C915 C910 1.388 . S
C915 C914 1.443 . S
H916 C943 0.929 . S
N917 C942 1.433 . S
N917 C948 1.435 . S
N917 C954 1.423 . S
H918 C944 0.930 . S
H919 C947 0.931 . S
H920 C946 0.929 . S
H921 C949 0.930 . S
H922 C950 0.932 . S
H923 C953 0.929 . S
H924 C952 0.931 . S
H925 C955 0.929 . S
H926 C959 0.932 1_545 S
H927 C956 0.931 . S
H928 C958 0.929 . S
H929 C961 0.929 . S
H930 C962 0.930 . S
H931 C964 0.929 . S
H932 C965 0.931 . S
H933 C967 0.930 . S
H934 C968 0.932 . S
H935 C970 0.931 . S
H936 C971 0.929 . S
H937 C973 0.929 . S
H938 C974 0.931 . S
H939 C976 0.929 . S
N940 C960 1.433 . S
N940 C966 1.435 . S
N940 C972 1.423 . S
H941 C977 0.932 1_545 S
C942 N917 1.433 . S
C942 C943 1.363 . S
C942 C947 1.370 1_565 S
C943 H916 0.929 . S
C943 C942 1.363 . S
C943 C944 1.385 . S
C944 H918 0.930 . S
C944 C943 1.385 . S
C944 C945 1.357 1_565 S
C945 C944 1.357 1_545 S
C945 C946 1.406 . S
C946 H920 0.929 . S
C946 C945 1.406 . S
C946 C947 1.391 . S
C947 H919 0.931 . S
C947 C942 1.370 1_545 S
C947 C946 1.391 . S
C948 N917 1.435 . S
C948 C949 1.358 1_565 S
C948 C953 1.371 . S
C949 H921 0.930 . S
C949 C948 1.358 1_545 S
C949 C950 1.405 . S
C950 H922 0.932 . S
C950 C949 1.405 . S
C950 C951 1.383 1_545 S
C951 C950 1.383 1_565 S
C951 C952 1.393 . S
C952 H924 0.931 . S
C952 C951 1.393 . S
C952 C953 1.382 . S
C953 H923 0.929 . S
C953 C948 1.371 . S
C953 C952 1.382 . S
C954 N917 1.423 . S
C954 C955 1.362 . S
C954 C959 1.388 . S
C955 H925 0.929 . S
C955 C954 1.362 . S
C955 C956 1.376 . S
C956 H927 0.931 . S
C956 C955 1.376 . S
C956 C957 1.396 . S
C957 C956 1.396 . S
C957 C958 1.348 . S
C957 C975 1.472 . S
C958 H928 0.929 . S
C958 C957 1.348 . S
C958 C959 1.443 . S
C959 H926 0.932 1_565 S
C959 C954 1.388 . S
C959 C958 1.443 . S
C960 N940 1.433 . S
C960 C961 1.363 . S
C960 C965 1.370 1_565 S
C961 H929 0.929 . S
C961 C960 1.363 . S
C961 C962 1.385 . S
C962 H930 0.930 . S
C962 C961 1.385 . S
C962 C963 1.357 1_565 S
C963 C962 1.357 1_545 S
C963 C964 1.406 . S
C964 H931 0.929 . S
C964 C963 1.406 . S
C964 C965 1.391 . S
C965 H932 0.931 . S
C965 C960 1.370 1_545 S
C965 C964 1.391 . S
C966 N940 1.435 . S
C966 C967 1.358 1_565 S
C966 C971 1.371 . S
C967 H933 0.930 . S
C967 C966 1.358 1_545 S
C967 C968 1.405 . S
C968 H934 0.932 . S
C968 C967 1.405 . S
C968 C969 1.383 1_545 S
C969 C968 1.383 1_565 S
C969 C970 1.393 . S
C970 H935 0.931 . S
C970 C969 1.393 . S
C970 C971 1.382 . S
C971 H936 0.929 . S
C971 C966 1.371 . S
C971 C970 1.382 . S
C972 N940 1.423 . S
C972 C973 1.362 . S
C972 C977 1.388 . S
C973 H937 0.929 . S
C973 C972 1.362 . S
C973 C974 1.376 . S
C974 H938 0.931 . S
C974 C973 1.376 . S
C974 C975 1.396 . S
C975 C957 1.472 . S
C975 C974 1.396 . S
C975 C976 1.348 . S
C976 H939 0.929 . S
C976 C975 1.348 . S
C976 C977 1.443 . S
C977 H941 0.932 1_565 S
C977 C972 1.388 . S
C977 C976 1.443 . S
H978 C1005 0.929 . S
N979 C1004 1.433 . S
N979 C1010 1.435 . S
N979 C1016 1.423 . S
H980 C1006 0.930 . S
H981 C1009 0.931 . S
H982 C1008 0.929 . S
H983 C1011 0.930 . S
H984 C1012 0.932 . S
H985 C1015 0.929 . S
H986 C1014 0.931 . S
H987 C1017 0.929 . S
H988 C1021 0.932 . S
H989 C1018 0.931 . S
H990 C1020 0.922 1_545 S
H991 C1023 0.929 . S
H992 C1024 0.930 . S
H993 C1026 0.964 . S
H994 C1027 0.953 . S
H995 C1029 0.930 . S
H996 C1030 0.932 . S
H997 C1032 0.931 . S
H998 C1033 0.929 . S
H999 C1035 0.929 . S
H1000 C1036 0.931 . S
H1001 C1038 0.881 1_545 S
N1002 C1022 1.433 . S
N1002 C1028 1.435 . S
N1002 C1034 1.423 . S
H1003 C1039 0.958 . S
C1004 N979 1.433 . S
C1004 C1005 1.363 . S
C1004 C1009 1.370 1_565 S
C1005 H978 0.929 . S
C1005 C1004 1.363 . S
C1005 C1006 1.385 . S
C1006 H980 0.930 . S
C1006 C1005 1.385 . S
C1006 C1007 1.357 . S
C1007 C1006 1.357 . S
C1007 C1008 1.406 1_565 S
C1008 H982 0.929 . S
C1008 C1007 1.406 1_545 S
C1008 C1009 1.391 . S
C1009 H981 0.931 . S
C1009 C1004 1.370 1_545 S
C1009 C1008 1.391 . S
C1010 N979 1.435 . S
C1010 C1011 1.358 1_565 S
C1010 C1015 1.371 . S
C1011 H983 0.930 . S
C1011 C1010 1.358 1_545 S
C1011 C1012 1.405 . S
C1012 H984 0.932 . S
C1012 C1011 1.405 . S
C1012 C1013 1.383 . S
C1013 C1012 1.383 . S
C1013 C1014 1.393 1_545 S
C1014 H986 0.931 . S
C1014 C1013 1.393 1_565 S
C1014 C1015 1.382 . S
C1015 H985 0.929 . S
C1015 C1010 1.371 . S
C1015 C1014 1.382 . S
C1016 N979 1.423 . S
C1016 C1017 1.362 . S
C1016 C1021 1.388 1_565 S
C1017 H987 0.929 . S
C1017 C1016 1.362 . S
C1017 C1018 1.376 . S
C1018 H989 0.931 . S
C1018 C1017 1.376 . S
C1018 C1019 1.396 . S
C1019 C1018 1.396 . S
C1019 C1020 1.378 . S
C1019 C1037 1.472 . S
C1020 H990 0.922 1_565 S
C1020 C1019 1.378 . S
C1020 C1021 1.421 1_565 S
C1021 H988 0.932 . S
C1021 C1016 1.388 1_545 S
C1021 C1020 1.421 1_545 S
C1022 N1002 1.433 . S
C1022 C1023 1.363 . S
C1022 C1027 1.353 1_565 S
C1023 H991 0.929 . S
C1023 C1022 1.363 . S
C1023 C1024 1.385 . S
C1024 H992 0.930 . S
C1024 C1023 1.385 . S
C1024 C1025 1.357 . S
C1025 C1024 1.357 . S
C1025 C1026 1.362 1_565 S
C1026 H993 0.964 . S
C1026 C1025 1.362 1_545 S
C1026 C1027 1.397 . S
C1027 H994 0.953 . S
C1027 C1022 1.353 1_545 S
C1027 C1026 1.397 . S
C1028 N1002 1.435 . S
C1028 C1029 1.358 1_565 S
C1028 C1033 1.371 . S
C1029 H995 0.930 . S
C1029 C1028 1.358 1_545 S
C1029 C1030 1.405 . S
C1030 H996 0.932 . S
C1030 C1029 1.405 . S
C1030 C1031 1.383 . S
C1031 C1030 1.383 . S
C1031 C1032 1.393 1_545 S
C1032 H997 0.931 . S
C1032 C1031 1.393 1_565 S
C1032 C1033 1.382 . S
C1033 H998 0.929 . S
C1033 C1028 1.371 . S
C1033 C1032 1.382 . S
C1034 N1002 1.423 . S
C1034 C1035 1.362 . S
C1034 C1039 1.334 1_565 S
C1035 H999 0.929 . S
C1035 C1034 1.362 . S
C1035 C1036 1.376 . S
C1036 H1000 0.931 . S
C1036 C1035 1.376 . S
C1036 C1037 1.396 . S
C1037 C1019 1.472 . S
C1037 C1036 1.396 . S
C1037 C1038 1.367 . S
C1038 H1001 0.881 1_565 S
C1038 C1037 1.367 . S
C1038 C1039 1.508 1_565 S
C1039 H1003 0.958 . S
C1039 C1034 1.334 1_545 S
C1039 C1038 1.508 1_545 S
H1040 C1067 0.929 . S
N1041 C1066 1.433 . S
N1041 C1072 1.435 . S
N1041 C1078 1.423 . S
H1042 C1068 0.930 . S
H1043 C1071 0.931 . S
H1044 C1070 0.929 . S
H1045 C1073 0.930 . S
H1046 C1074 0.932 . S
H1047 C1077 0.929 . S
H1048 C1076 0.931 . S
H1049 C1079 0.929 . S
H1050 C1083 0.932 1_455 S
H1051 C1080 0.931 . S
H1052 C1082 0.929 . S
H1053 C1085 0.929 . S
H1054 C1086 0.930 . S
H1055 C1088 0.929 . S
H1056 C1089 0.931 . S
H1057 C1091 0.930 . S
H1058 C1092 0.932 . S
H1059 C1094 0.931 . S
H1060 C1095 0.929 . S
H1061 C1097 0.929 . S
H1062 C1098 0.931 . S
H1063 C1100 0.929 . S
N1064 C1084 1.433 . S
N1064 C1090 1.435 . S
N1064 C1096 1.423 . S
H1065 C1101 0.932 1_455 S
C1066 N1041 1.433 . S
C1066 C1067 1.363 . S
C1066 C1071 1.370 1_655 S
C1067 H1040 0.929 . S
C1067 C1066 1.363 . S
C1067 C1068 1.385 . S
C1068 H1042 0.930 . S
C1068 C1067 1.385 . S
C1068 C1069 1.357 1_655 S
C1069 C1068 1.357 1_455 S
C1069 C1070 1.406 . S
C1070 H1044 0.929 . S
C1070 C1069 1.406 . S
C1070 C1071 1.391 . S
C1071 H1043 0.931 . S
C1071 C1066 1.370 1_455 S
C1071 C1070 1.391 . S
C1072 N1041 1.435 . S
C1072 C1073 1.358 1_655 S
C1072 C1077 1.371 . S
C1073 H1045 0.930 . S
C1073 C1072 1.358 1_455 S
C1073 C1074 1.405 . S
C1074 H1046 0.932 . S
C1074 C1073 1.405 . S
C1074 C1075 1.383 1_455 S
C1075 C1074 1.383 1_655 S
C1075 C1076 1.393 . S
C1076 H1048 0.931 . S
C1076 C1075 1.393 . S
C1076 C1077 1.382 . S
C1077 H1047 0.929 . S
C1077 C1072 1.371 . S
C1077 C1076 1.382 . S
C1078 N1041 1.423 . S
C1078 C1079 1.362 . S
C1078 C1083 1.388 . S
C1079 H1049 0.929 . S
C1079 C1078 1.362 . S
C1079 C1080 1.376 . S
C1080 H1051 0.931 . S
C1080 C1079 1.376 . S
C1080 C1081 1.396 . S
C1081 C1080 1.396 . S
C1081 C1082 1.348 . S
C1081 C1099 1.472 . S
C1082 H1052 0.929 . S
C1082 C1081 1.348 . S
C1082 C1083 1.443 . S
C1083 H1050 0.932 1_655 S
C1083 C1078 1.388 . S
C1083 C1082 1.443 . S
C1084 N1064 1.433 . S
C1084 C1085 1.363 . S
C1084 C1089 1.370 1_655 S
C1085 H1053 0.929 . S
C1085 C1084 1.363 . S
C1085 C1086 1.385 . S
C1086 H1054 0.930 . S
C1086 C1085 1.385 . S
C1086 C1087 1.357 1_655 S
C1087 C1086 1.357 1_455 S
C1087 C1088 1.406 . S
C1088 H1055 0.929 . S
C1088 C1087 1.406 . S
C1088 C1089 1.391 . S
C1089 H1056 0.931 . S
C1089 C1084 1.370 1_455 S
C1089 C1088 1.391 . S
C1090 N1064 1.435 . S
C1090 C1091 1.358 1_655 S
C1090 C1095 1.371 . S
C1091 H1057 0.930 . S
C1091 C1090 1.358 1_455 S
C1091 C1092 1.405 . S
C1092 H1058 0.932 . S
C1092 C1091 1.405 . S
C1092 C1093 1.383 1_455 S
C1093 C1092 1.383 1_655 S
C1093 C1094 1.393 . S
C1094 H1059 0.931 . S
C1094 C1093 1.393 . S
C1094 C1095 1.382 . S
C1095 H1060 0.929 . S
C1095 C1090 1.371 . S
C1095 C1094 1.382 . S
C1096 N1064 1.423 . S
C1096 C1097 1.362 . S
C1096 C1101 1.388 . S
C1097 H1061 0.929 . S
C1097 C1096 1.362 . S
C1097 C1098 1.376 . S
C1098 H1062 0.931 . S
C1098 C1097 1.376 . S
C1098 C1099 1.396 . S
C1099 C1081 1.472 . S
C1099 C1098 1.396 . S
C1099 C1100 1.348 . S
C1100 H1063 0.929 . S
C1100 C1099 1.348 . S
C1100 C1101 1.443 . S
C1101 H1065 0.932 1_655 S
C1101 C1096 1.388 . S
C1101 C1100 1.443 . S
H1102 C1129 0.929 . S
N1103 C1128 1.433 . S
N1103 C1134 1.435 . S
N1103 C1140 1.423 . S
H1104 C1130 0.930 . S
H1105 C1133 0.931 . S
H1106 C1132 0.929 . S
H1107 C1135 0.930 . S
H1108 C1136 0.932 . S
H1109 C1139 0.929 . S
H1110 C1138 0.931 . S
H1111 C1141 0.929 . S
H1112 C1145 0.932 . S
H1113 C1142 0.931 . S
H1114 C1144 0.929 . S
H1115 C1147 0.929 . S
H1116 C1148 0.930 . S
H1117 C1150 0.929 . S
H1118 C1151 0.931 . S
H1119 C1153 0.930 . S
H1120 C1154 0.932 . S
H1121 C1156 0.931 . S
H1122 C1157 0.929 . S
H1123 C1159 0.929 . S
H1124 C1160 0.931 . S
H1125 C1162 0.929 . S
N1126 C1146 1.433 . S
N1126 C1152 1.435 . S
N1126 C1158 1.423 . S
H1127 C1163 0.932 . S
C1128 N1103 1.433 . S
C1128 C1129 1.363 . S
C1128 C1133 1.370 . S
C1129 H1102 0.929 . S
C1129 C1128 1.363 . S
C1129 C1130 1.385 . S
C1130 H1104 0.930 . S
C1130 C1129 1.385 . S
C1130 C1131 1.357 . S
C1131 C1130 1.357 . S
C1131 C1132 1.406 . S
C1132 H1106 0.929 . S
C1132 C1131 1.406 . S
C1132 C1133 1.391 . S
C1133 H1105 0.931 . S
C1133 C1128 1.370 . S
C1133 C1132 1.391 . S
C1134 N1103 1.435 . S
C1134 C1135 1.358 . S
C1134 C1139 1.371 . S
C1135 H1107 0.930 . S
C1135 C1134 1.358 . S
C1135 C1136 1.405 . S
C1136 H1108 0.932 . S
C1136 C1135 1.405 . S
C1136 C1137 1.383 . S
C1137 C1136 1.383 . S
C1137 C1138 1.393 . S
C1138 H1110 0.931 . S
C1138 C1137 1.393 . S
C1138 C1139 1.382 . S
C1139 H1109 0.929 . S
C1139 C1134 1.371 . S
C1139 C1138 1.382 . S
C1140 N1103 1.423 . S
C1140 C1141 1.362 . S
C1140 C1145 1.388 . S
C1141 H1111 0.929 . S
C1141 C1140 1.362 . S
C1141 C1142 1.376 . S
C1142 H1113 0.931 . S
C1142 C1141 1.376 . S
C1142 C1143 1.396 . S
C1143 C1142 1.396 . S
C1143 C1144 1.348 . S
C1143 C1161 1.472 . S
C1144 H1114 0.929 . S
C1144 C1143 1.348 . S
C1144 C1145 1.443 . S
C1145 H1112 0.932 . S
C1145 C1140 1.388 . S
C1145 C1144 1.443 . S
C1146 N1126 1.433 . S
C1146 C1147 1.363 . S
C1146 C1151 1.370 . S
C1147 H1115 0.929 . S
C1147 C1146 1.363 . S
C1147 C1148 1.385 . S
C1148 H1116 0.930 . S
C1148 C1147 1.385 . S
C1148 C1149 1.357 . S
C1149 C1148 1.357 . S
C1149 C1150 1.406 . S
C1150 H1117 0.929 . S
C1150 C1149 1.406 . S
C1150 C1151 1.391 . S
C1151 H1118 0.931 . S
C1151 C1146 1.370 . S
C1151 C1150 1.391 . S
C1152 N1126 1.435 . S
C1152 C1153 1.358 . S
C1152 C1157 1.371 . S
C1153 H1119 0.930 . S
C1153 C1152 1.358 . S
C1153 C1154 1.405 . S
C1154 H1120 0.932 . S
C1154 C1153 1.405 . S
C1154 C1155 1.383 . S
C1155 C1154 1.383 . S
C1155 C1156 1.393 . S
C1156 H1121 0.931 . S
C1156 C1155 1.393 . S
C1156 C1157 1.382 . S
C1157 H1122 0.929 . S
C1157 C1152 1.371 . S
C1157 C1156 1.382 . S
C1158 N1126 1.423 . S
C1158 C1159 1.362 . S
C1158 C1163 1.388 . S
C1159 H1123 0.929 . S
C1159 C1158 1.362 . S
C1159 C1160 1.376 . S
C1160 H1124 0.931 . S
C1160 C1159 1.376 . S
C1160 C1161 1.396 . S
C1161 C1143 1.472 . S
C1161 C1160 1.396 . S
C1161 C1162 1.348 . S
C1162 H1125 0.929 . S
C1162 C1161 1.348 . S
C1162 C1163 1.443 . S
C1163 H1127 0.932 . S
C1163 C1158 1.388 . S
C1163 C1162 1.443 . S
H1164 C1191 0.929 . S
N1165 C1190 1.433 . S
N1165 C1196 1.435 . S
N1165 C1202 1.423 . S
H1166 C1192 0.930 . S
H1167 C1195 0.931 . S
H1168 C1194 0.929 . S
H1169 C1197 0.930 . S
H1170 C1198 0.932 . S
H1171 C1201 0.929 . S
H1172 C1200 0.931 . S
H1173 C1203 0.929 . S
H1174 C1207 0.932 . S
H1175 C1204 0.931 . S
H1176 C1206 0.929 . S
H1177 C1209 0.929 . S
H1178 C1210 0.930 . S
H1179 C1212 0.929 . S
H1180 C1213 0.931 . S
H1181 C1215 0.930 . S
H1182 C1216 0.932 . S
H1183 C1218 0.931 . S
H1184 C1219 0.929 . S
H1185 C1221 0.929 . S
H1186 C1222 0.931 . S
H1187 C1224 0.929 . S
N1188 C1208 1.433 . S
N1188 C1214 1.435 . S
N1188 C1220 1.423 . S
H1189 C1225 0.932 . S
C1190 N1165 1.433 . S
C1190 C1191 1.363 . S
C1190 C1195 1.370 . S
C1191 H1164 0.929 . S
C1191 C1190 1.363 . S
C1191 C1192 1.385 . S
C1192 H1166 0.930 . S
C1192 C1191 1.385 . S
C1192 C1193 1.357 . S
C1193 C1192 1.357 . S
C1193 C1194 1.406 . S
C1194 H1168 0.929 . S
C1194 C1193 1.406 . S
C1194 C1195 1.391 . S
C1195 H1167 0.931 . S
C1195 C1190 1.370 . S
C1195 C1194 1.391 . S
C1196 N1165 1.435 . S
C1196 C1197 1.358 . S
C1196 C1201 1.371 . S
C1197 H1169 0.930 . S
C1197 C1196 1.358 . S
C1197 C1198 1.405 . S
C1198 H1170 0.932 . S
C1198 C1197 1.405 . S
C1198 C1199 1.383 . S
C1199 C1198 1.383 . S
C1199 C1200 1.393 . S
C1200 H1172 0.931 . S
C1200 C1199 1.393 . S
C1200 C1201 1.382 . S
C1201 H1171 0.929 . S
C1201 C1196 1.371 . S
C1201 C1200 1.382 . S
C1202 N1165 1.423 . S
C1202 C1203 1.362 . S
C1202 C1207 1.388 . S
C1203 H1173 0.929 . S
C1203 C1202 1.362 . S
C1203 C1204 1.376 . S
C1204 H1175 0.931 . S
C1204 C1203 1.376 . S
C1204 C1205 1.396 . S
C1205 C1204 1.396 . S
C1205 C1206 1.348 . S
C1205 C1223 1.472 . S
C1206 H1176 0.929 . S
C1206 C1205 1.348 . S
C1206 C1207 1.443 . S
C1207 H1174 0.932 . S
C1207 C1202 1.388 . S
C1207 C1206 1.443 . S
C1208 N1188 1.433 . S
C1208 C1209 1.363 . S
C1208 C1213 1.370 . S
C1209 H1177 0.929 . S
C1209 C1208 1.363 . S
C1209 C1210 1.385 . S
C1210 H1178 0.930 . S
C1210 C1209 1.385 . S
C1210 C1211 1.357 . S
C1211 C1210 1.357 . S
C1211 C1212 1.406 . S
C1212 H1179 0.929 . S
C1212 C1211 1.406 . S
C1212 C1213 1.391 . S
C1213 H1180 0.931 . S
C1213 C1208 1.370 . S
C1213 C1212 1.391 . S
C1214 N1188 1.435 . S
C1214 C1215 1.358 . S
C1214 C1219 1.371 . S
C1215 H1181 0.930 . S
C1215 C1214 1.358 . S
C1215 C1216 1.405 . S
C1216 H1182 0.932 . S
C1216 C1215 1.405 . S
C1216 C1217 1.383 . S
C1217 C1216 1.383 . S
C1217 C1218 1.393 . S
C1218 H1183 0.931 . S
C1218 C1217 1.393 . S
C1218 C1219 1.382 . S
C1219 H1184 0.929 . S
C1219 C1214 1.371 . S
C1219 C1218 1.382 . S
C1220 N1188 1.423 . S
C1220 C1221 1.362 . S
C1220 C1225 1.388 . S
C1221 H1185 0.929 . S
C1221 C1220 1.362 . S
C1221 C1222 1.376 . S
C1222 H1186 0.931 . S
C1222 C1221 1.376 . S
C1222 C1223 1.396 . S
C1223 C1205 1.472 . S
C1223 C1222 1.396 . S
C1223 C1224 1.348 . S
C1224 H1187 0.929 . S
C1224 C1223 1.348 . S
C1224 C1225 1.443 . S
C1225 H1189 0.932 . S
C1225 C1220 1.388 . S
C1225 C1224 1.443 . S
H1226 C1253 0.929 . S
N1227 C1252 1.433 . S
N1227 C1258 1.435 . S
N1227 C1264 1.423 . S
H1228 C1254 0.930 . S
H1229 C1257 0.931 . S
H1230 C1256 0.929 . S
H1231 C1259 0.930 . S
H1232 C1260 0.932 . S
H1233 C1263 0.929 . S
H1234 C1262 0.931 . S
H1235 C1265 0.929 . S
H1236 C1269 0.932 . S
H1237 C1266 0.931 . S
H1238 C1268 0.929 . S
H1239 C1271 0.929 . S
H1240 C1272 0.930 . S
H1241 C1274 0.929 . S
H1242 C1275 0.931 . S
H1243 C1277 0.930 . S
H1244 C1278 0.932 . S
H1245 C1280 0.931 . S
H1246 C1281 0.929 . S
H1247 C1283 0.929 . S
H1248 C1284 0.931 . S
H1249 C1286 0.929 . S
N1250 C1270 1.433 . S
N1250 C1276 1.435 . S
N1250 C1282 1.423 . S
H1251 C1287 0.932 . S
C1252 N1227 1.433 . S
C1252 C1253 1.363 . S
C1252 C1257 1.370 . S
C1253 H1226 0.929 . S
C1253 C1252 1.363 . S
C1253 C1254 1.385 . S
C1254 H1228 0.930 . S
C1254 C1253 1.385 . S
C1254 C1255 1.357 . S
C1255 C1254 1.357 . S
C1255 C1256 1.406 . S
C1256 H1230 0.929 . S
C1256 C1255 1.406 . S
C1256 C1257 1.391 . S
C1257 H1229 0.931 . S
C1257 C1252 1.370 . S
C1257 C1256 1.391 . S
C1258 N1227 1.435 . S
C1258 C1259 1.358 . S
C1258 C1263 1.371 . S
C1259 H1231 0.930 . S
C1259 C1258 1.358 . S
C1259 C1260 1.405 . S
C1260 H1232 0.932 . S
C1260 C1259 1.405 . S
C1260 C1261 1.383 . S
C1261 C1260 1.383 . S
C1261 C1262 1.393 . S
C1262 H1234 0.931 . S
C1262 C1261 1.393 . S
C1262 C1263 1.382 . S
C1263 H1233 0.929 . S
C1263 C1258 1.371 . S
C1263 C1262 1.382 . S
C1264 N1227 1.423 . S
C1264 C1265 1.362 . S
C1264 C1269 1.388 . S
C1265 H1235 0.929 . S
C1265 C1264 1.362 . S
C1265 C1266 1.376 . S
C1266 H1237 0.931 . S
C1266 C1265 1.376 . S
C1266 C1267 1.396 . S
C1267 C1266 1.396 . S
C1267 C1268 1.348 . S
C1267 C1285 1.472 . S
C1268 H1238 0.929 . S
C1268 C1267 1.348 . S
C1268 C1269 1.443 . S
C1269 H1236 0.932 . S
C1269 C1264 1.388 . S
C1269 C1268 1.443 . S
C1270 N1250 1.433 . S
C1270 C1271 1.363 . S
C1270 C1275 1.370 . S
C1271 H1239 0.929 . S
C1271 C1270 1.363 . S
C1271 C1272 1.385 . S
C1272 H1240 0.930 . S
C1272 C1271 1.385 . S
C1272 C1273 1.357 . S
C1273 C1272 1.357 . S
C1273 C1274 1.406 . S
C1274 H1241 0.929 . S
C1274 C1273 1.406 . S
C1274 C1275 1.391 . S
C1275 H1242 0.931 . S
C1275 C1270 1.370 . S
C1275 C1274 1.391 . S
C1276 N1250 1.435 . S
C1276 C1277 1.358 . S
C1276 C1281 1.371 . S
C1277 H1243 0.930 . S
C1277 C1276 1.358 . S
C1277 C1278 1.405 . S
C1278 H1244 0.932 . S
C1278 C1277 1.405 . S
C1278 C1279 1.383 . S
C1279 C1278 1.383 . S
C1279 C1280 1.393 . S
C1280 H1245 0.931 . S
C1280 C1279 1.393 . S
C1280 C1281 1.382 . S
C1281 H1246 0.929 . S
C1281 C1276 1.371 . S
C1281 C1280 1.382 . S
C1282 N1250 1.423 . S
C1282 C1283 1.362 . S
C1282 C1287 1.388 . S
C1283 H1247 0.929 . S
C1283 C1282 1.362 . S
C1283 C1284 1.376 . S
C1284 H1248 0.931 . S
C1284 C1283 1.376 . S
C1284 C1285 1.396 . S
C1285 C1267 1.472 . S
C1285 C1284 1.396 . S
C1285 C1286 1.348 . S
C1286 H1249 0.929 . S
C1286 C1285 1.348 . S
C1286 C1287 1.443 . S
C1287 H1251 0.932 . S
C1287 C1282 1.388 . S
C1287 C1286 1.443 . S
H1288 C1315 0.929 . S
N1289 C1314 1.433 . S
N1289 C1320 1.435 . S
N1289 C1326 1.423 . S
H1290 C1316 0.930 . S
H1291 C1319 0.931 . S
H1292 C1318 0.929 . S
H1293 C1321 0.930 . S
H1294 C1322 0.932 . S
H1295 C1325 0.929 . S
H1296 C1324 0.931 . S
H1297 C1327 0.929 . S
H1298 C1331 0.932 . S
H1299 C1328 0.931 . S
H1300 C1330 0.929 . S
H1301 C1333 0.929 . S
H1302 C1334 0.930 . S
H1303 C1336 0.929 . S
H1304 C1337 0.931 . S
H1305 C1339 0.930 . S
H1306 C1340 0.932 . S
H1307 C1342 0.931 . S
H1308 C1343 0.929 . S
H1309 C1345 0.929 . S
H1310 C1346 0.931 . S
H1311 C1348 0.929 . S
N1312 C1332 1.433 . S
N1312 C1338 1.435 . S
N1312 C1344 1.423 . S
H1313 C1349 0.932 . S
C1314 N1289 1.433 . S
C1314 C1315 1.363 . S
C1314 C1319 1.370 . S
C1315 H1288 0.929 . S
C1315 C1314 1.363 . S
C1315 C1316 1.385 . S
C1316 H1290 0.930 . S
C1316 C1315 1.385 . S
C1316 C1317 1.357 . S
C1317 C1316 1.357 . S
C1317 C1318 1.406 . S
C1318 H1292 0.929 . S
C1318 C1317 1.406 . S
C1318 C1319 1.391 . S
C1319 H1291 0.931 . S
C1319 C1314 1.370 . S
C1319 C1318 1.391 . S
C1320 N1289 1.435 . S
C1320 C1321 1.358 . S
C1320 C1325 1.371 . S
C1321 H1293 0.930 . S
C1321 C1320 1.358 . S
C1321 C1322 1.405 . S
C1322 H1294 0.932 . S
C1322 C1321 1.405 . S
C1322 C1323 1.383 . S
C1323 C1322 1.383 . S
C1323 C1324 1.393 . S
C1324 H1296 0.931 . S
C1324 C1323 1.393 . S
C1324 C1325 1.382 . S
C1325 H1295 0.929 . S
C1325 C1320 1.371 . S
C1325 C1324 1.382 . S
C1326 N1289 1.423 . S
C1326 C1327 1.362 . S
C1326 C1331 1.388 . S
C1327 H1297 0.929 . S
C1327 C1326 1.362 . S
C1327 C1328 1.376 . S
C1328 H1299 0.931 . S
C1328 C1327 1.376 . S
C1328 C1329 1.396 . S
C1329 C1328 1.396 . S
C1329 C1330 1.348 . S
C1329 C1347 1.472 . S
C1330 H1300 0.929 . S
C1330 C1329 1.348 . S
C1330 C1331 1.443 . S
C1331 H1298 0.932 . S
C1331 C1326 1.388 . S
C1331 C1330 1.443 . S
C1332 N1312 1.433 . S
C1332 C1333 1.363 . S
C1332 C1337 1.370 . S
C1333 H1301 0.929 . S
C1333 C1332 1.363 . S
C1333 C1334 1.385 . S
C1334 H1302 0.930 . S
C1334 C1333 1.385 . S
C1334 C1335 1.357 . S
C1335 C1334 1.357 . S
C1335 C1336 1.406 . S
C1336 H1303 0.929 . S
C1336 C1335 1.406 . S
C1336 C1337 1.391 . S
C1337 H1304 0.931 . S
C1337 C1332 1.370 . S
C1337 C1336 1.391 . S
C1338 N1312 1.435 . S
C1338 C1339 1.358 . S
C1338 C1343 1.371 . S
C1339 H1305 0.930 . S
C1339 C1338 1.358 . S
C1339 C1340 1.405 . S
C1340 H1306 0.932 . S
C1340 C1339 1.405 . S
C1340 C1341 1.383 . S
C1341 C1340 1.383 . S
C1341 C1342 1.393 . S
C1342 H1307 0.931 . S
C1342 C1341 1.393 . S
C1342 C1343 1.382 . S
C1343 H1308 0.929 . S
C1343 C1338 1.371 . S
C1343 C1342 1.382 . S
C1344 N1312 1.423 . S
C1344 C1345 1.362 . S
C1344 C1349 1.388 . S
C1345 H1309 0.929 . S
C1345 C1344 1.362 . S
C1345 C1346 1.376 . S
C1346 H1310 0.931 . S
C1346 C1345 1.376 . S
C1346 C1347 1.396 . S
C1347 C1329 1.472 . S
C1347 C1346 1.396 . S
C1347 C1348 1.348 . S
C1348 H1311 0.929 . S
C1348 C1347 1.348 . S
C1348 C1349 1.443 . S
C1349 H1313 0.932 . S
C1349 C1344 1.388 . S
C1349 C1348 1.443 . S
H1350 C1356 0.930 . S
H1351 C1360 0.930 . S
H1352 C1365 0.929 . S
H1353 C1363 0.929 . S
H1354 C1358 0.929 . S
H1355 C1364 0.929 . S
C1356 H1350 0.930 . S
C1356 C1357 1.367 1_455 S
C1356 C1364 1.378 . S
C1357 C1356 1.367 1_655 S
C1357 C1365 1.433 . S
C1358 H1354 0.929 . S
C1358 C1360 1.378 . S
C1358 C1362 1.350 . S
C1359 C1362 1.463 . S
C1359 C1364 1.350 1_655 S
C1359 N1367 1.427 . S
C1360 H1351 0.930 . S
C1360 C1358 1.378 . S
C1360 C1361 1.367 . S
C1361 C1360 1.367 . S
C1361 C1363 1.433 1_655 S
C1362 C1358 1.350 . S
C1362 C1359 1.463 . S
C1362 N1366 1.427 1_655 S
C1363 H1353 0.929 . S
C1363 C1361 1.433 1_455 S
C1363 N1366 1.384 . S
C1364 H1355 0.929 . S
C1364 C1356 1.378 . S
C1364 C1359 1.350 1_455 S
C1365 H1352 0.929 . S
C1365 C1357 1.433 . S
C1365 N1367 1.384 . S
N1366 C1362 1.427 1_455 S
N1366 C1363 1.384 . S
N1367 C1359 1.427 . S
N1367 C1365 1.384 . S
H1368 C1374 0.930 . S
H1369 C1378 0.930 . S
H1370 C1383 0.929 . S
H1371 C1381 0.929 . S
H1372 C1376 0.929 . S
H1373 C1382 0.929 . S
C1374 H1368 0.930 . S
C1374 C1375 1.367 . S
C1374 C1382 1.378 . S
C1375 C1374 1.367 . S
C1375 C1383 1.433 . S
C1376 H1372 0.929 . S
C1376 C1378 1.378 . S
C1376 C1380 1.350 . S
C1377 C1380 1.463 . S
C1377 C1382 1.350 . S
C1377 N1385 1.427 . S
C1378 H1369 0.930 . S
C1378 C1376 1.378 . S
C1378 C1379 1.367 . S
C1379 C1378 1.367 . S
C1379 C1381 1.433 . S
C1380 C1376 1.350 . S
C1380 C1377 1.463 . S
C1380 N1384 1.427 . S
C1381 H1371 0.929 . S
C1381 C1379 1.433 . S
C1381 N1384 1.384 . S
C1382 H1373 0.929 . S
C1382 C1374 1.378 . S
C1382 C1377 1.350 . S
C1383 H1370 0.929 . S
C1383 C1375 1.433 . S
C1383 N1385 1.384 . S
N1384 C1380 1.427 . S
N1384 C1381 1.384 . S
N1385 C1377 1.427 . S
N1385 C1383 1.384 . S
H1386 C1392 0.890 1_565 S
H1387 C1396 0.930 . S
H1388 C1401 0.929 . S
H1389 C1399 0.929 . S
H1390 C1394 0.929 . S
H1391 C1400 0.925 1_565 S
C1392 H1386 0.890 1_545 S
C1392 C1393 1.451 . S
C1392 C1400 1.342 . S
C1393 C1392 1.451 . S
C1393 C1401 1.433 . S
C1394 H1390 0.929 . S
C1394 C1396 1.378 . S
C1394 C1398 1.350 . S
C1395 C1398 1.463 . S
C1395 C1400 1.352 . S
C1395 N1403 1.427 . S
C1396 H1387 0.930 . S
C1396 C1394 1.378 . S
C1396 C1397 1.367 . S
C1397 C1396 1.367 . S
C1397 C1399 1.433 1_545 S
C1398 C1394 1.350 . S
C1398 C1395 1.463 . S
C1398 N1402 1.427 1_545 S
C1399 H1389 0.929 . S
C1399 C1397 1.433 1_565 S
C1399 N1402 1.384 . S
C1400 H1391 0.925 1_545 S
C1400 C1392 1.342 . S
C1400 C1395 1.352 . S
C1401 H1388 0.929 . S
C1401 C1393 1.433 . S
C1401 N1403 1.384 . S
N1402 C1398 1.427 1_565 S
N1402 C1399 1.384 . S
N1403 C1395 1.427 . S
N1403 C1401 1.384 . S
H1404 C1410 0.930 . S
H1405 C1414 0.930 . S
H1406 C1419 0.929 . S
H1407 C1417 0.929 . S
H1408 C1412 0.929 . S
H1409 C1418 0.929 . S
C1410 H1404 0.930 . S
C1410 C1411 1.368 . S
C1410 C1418 1.378 . S
C1411 C1410 1.368 . S
C1411 C1419 1.431 1_545 S
C1412 H1408 0.929 . S
C1412 C1414 1.378 . S
C1412 C1416 1.350 . S
C1413 C1416 1.463 . S
C1413 C1418 1.350 1_565 S
C1413 N1421 1.427 . S
C1414 H1405 0.930 . S
C1414 C1412 1.378 . S
C1414 C1415 1.367 . S
C1415 C1414 1.367 . S
C1415 C1417 1.433 1_565 S
C1416 C1412 1.350 . S
C1416 C1413 1.463 . S
C1416 N1420 1.427 1_565 S
C1417 H1407 0.929 . S
C1417 C1415 1.433 1_545 S
C1417 N1420 1.384 . S
C1418 H1409 0.929 . S
C1418 C1410 1.378 . S
C1418 C1413 1.350 1_545 S
C1419 H1406 0.929 . S
C1419 C1411 1.431 1_565 S
C1419 N1421 1.384 . S
N1420 C1416 1.427 1_545 S
N1420 C1417 1.384 . S
N1421 C1413 1.427 . S
N1421 C1419 1.384 . S
H1422 C1428 0.931 . S
H1423 C1432 0.930 . S
H1424 C1437 0.929 . S
H1425 C1435 0.929 . S
H1426 C1430 0.929 . S
H1427 C1436 0.956 . S
C1428 H1422 0.931 . S
C1428 C1429 1.345 1_655 S
C1428 C1436 1.376 . S
C1429 C1428 1.345 1_455 S
C1429 C1437 1.433 . S
C1430 H1426 0.929 . S
C1430 C1432 1.378 . S
C1430 C1434 1.350 . S
C1431 C1434 1.463 . S
C1431 C1436 1.353 1_455 S
C1431 N1439 1.427 . S
C1432 H1423 0.930 . S
C1432 C1430 1.378 . S
C1432 C1433 1.367 . S
C1433 C1432 1.367 . S
C1433 C1435 1.433 1_455 S
C1434 C1430 1.350 . S
C1434 C1431 1.463 . S
C1434 N1438 1.401 1_455 S
C1435 H1425 0.929 . S
C1435 C1433 1.433 1_655 S
C1435 N1438 1.418 . S
C1436 H1427 0.956 . S
C1436 C1428 1.376 . S
C1436 C1431 1.353 1_655 S
C1437 H1424 0.929 . S
C1437 C1429 1.433 . S
C1437 N1439 1.384 . S
N1438 C1434 1.401 1_655 S
N1438 C1435 1.418 . S
N1439 C1431 1.427 . S
N1439 C1437 1.384 . S
H1440 C1446 0.930 . S
H1441 C1450 0.930 . S
H1442 C1455 0.929 . S
H1443 C1453 0.929 . S
H1444 C1448 0.929 . S
H1445 C1454 0.929 . S
C1446 H1440 0.930 . S
C1446 C1447 1.367 . S
C1446 C1454 1.378 . S
C1447 C1446 1.367 . S
C1447 C1455 1.433 . S
C1448 H1444 0.929 . S
C1448 C1450 1.378 . S
C1448 C1452 1.350 . S
C1449 C1452 1.463 . S
C1449 C1454 1.350 . S
C1449 N1457 1.427 . S
C1450 H1441 0.930 . S
C1450 C1448 1.378 . S
C1450 C1451 1.367 . S
C1451 C1450 1.367 . S
C1451 C1453 1.433 . S
C1452 C1448 1.350 . S
C1452 C1449 1.463 . S
C1452 N1456 1.427 . S
C1453 H1443 0.929 . S
C1453 C1451 1.433 . S
C1453 N1456 1.384 . S
C1454 H1445 0.929 . S
C1454 C1446 1.378 . S
C1454 C1449 1.350 . S
C1455 H1442 0.929 . S
C1455 C1447 1.433 . S
C1455 N1457 1.384 . S
N1456 C1452 1.427 . S
N1456 C1453 1.384 . S
N1457 C1449 1.427 . S
N1457 C1455 1.384 . S
H1458 C1464 0.930 . S
H1459 C1468 0.930 . S
H1460 C1473 0.929 . S
H1461 C1471 0.929 . S
H1462 C1466 0.929 . S
H1463 C1472 0.929 . S
C1464 H1458 0.930 . S
C1464 C1465 1.367 . S
C1464 C1472 1.378 . S
C1465 C1464 1.367 . S
C1465 C1473 1.433 1_455 S
C1466 H1462 0.929 . S
C1466 C1468 1.378 . S
C1466 C1470 1.350 1_655 S
C1467 C1470 1.463 . S
C1467 C1472 1.350 . S
C1467 N1475 1.427 1_455 S
C1468 H1459 0.930 . S
C1468 C1466 1.378 . S
C1468 C1469 1.367 1_655 S
C1469 C1468 1.367 1_455 S
C1469 C1471 1.433 . S
C1470 C1466 1.350 1_455 S
C1470 C1467 1.463 . S
C1470 N1474 1.427 . S
C1471 H1461 0.929 . S
C1471 C1469 1.433 . S
C1471 N1474 1.384 . S
C1472 H1463 0.929 . S
C1472 C1464 1.378 . S
C1472 C1467 1.350 . S
C1473 H1460 0.929 . S
C1473 C1465 1.433 1_655 S
C1473 N1475 1.384 . S
N1474 C1470 1.427 . S
N1474 C1471 1.384 . S
N1475 C1467 1.427 1_655 S
N1475 C1473 1.384 . S
H1476 C1482 0.930 . S
H1477 C1486 0.930 . S
H1478 C1491 0.929 . S
H1479 C1489 0.929 . S
H1480 C1484 0.929 . S
H1481 C1490 0.929 . S
C1482 H1476 0.930 . S
C1482 C1483 1.367 . S
C1482 C1490 1.378 . S
C1483 C1482 1.367 . S
C1483 C1491 1.433 . S
C1484 H1480 0.929 . S
C1484 C1486 1.378 . S
C1484 C1488 1.350 . S
C1485 C1488 1.463 . S
C1485 C1490 1.350 . S
C1485 N1493 1.427 . S
C1486 H1477 0.930 . S
C1486 C1484 1.378 . S
C1486 C1487 1.367 . S
C1487 C1486 1.367 . S
C1487 C1489 1.433 . S
C1488 C1484 1.350 . S
C1488 C1485 1.463 . S
C1488 N1492 1.427 . S
C1489 H1479 0.929 . S
C1489 C1487 1.433 . S
C1489 N1492 1.384 . S
C1490 H1481 0.929 . S
C1490 C1482 1.378 . S
C1490 C1485 1.350 . S
C1491 H1478 0.929 . S
C1491 C1483 1.433 . S
C1491 N1493 1.384 . S
N1492 C1488 1.427 . S
N1492 C1489 1.384 . S
N1493 C1485 1.427 . S
N1493 C1491 1.384 . S
H1494 C1500 0.930 . S
H1495 C1504 0.930 . S
H1496 C1509 0.929 . S
H1497 C1507 0.929 . S
H1498 C1502 0.929 . S
H1499 C1508 0.929 . S
C1500 H1494 0.930 . S
C1500 C1501 1.367 . S
C1500 C1508 1.378 . S
C1501 C1500 1.367 . S
C1501 C1509 1.433 1_565 S
C1502 H1498 0.929 . S
C1502 C1504 1.378 . S
C1502 C1506 1.350 1_545 S
C1503 C1506 1.463 . S
C1503 C1508 1.350 . S
C1503 N1511 1.427 1_565 S
C1504 H1495 0.930 . S
C1504 C1502 1.378 . S
C1504 C1505 1.367 1_545 S
C1505 C1504 1.367 1_565 S
C1505 C1507 1.433 . S
C1506 C1502 1.350 1_565 S
C1506 C1503 1.463 . S
C1506 N1510 1.427 . S
C1507 H1497 0.929 . S
C1507 C1505 1.433 . S
C1507 N1510 1.384 . S
C1508 H1499 0.929 . S
C1508 C1500 1.378 . S
C1508 C1503 1.350 . S
C1509 H1496 0.929 . S
C1509 C1501 1.433 1_545 S
C1509 N1511 1.384 . S
N1510 C1506 1.427 . S
N1510 C1507 1.384 . S
N1511 C1503 1.427 1_545 S
N1511 C1509 1.384 . S
H1512 C1518 0.930 . S
H1513 C1522 0.930 . S
H1514 C1527 0.929 . S
H1515 C1525 0.929 . S
H1516 C1520 0.929 . S
H1517 C1526 0.929 . S
C1518 H1512 0.930 . S
C1518 C1519 1.367 1_565 S
C1518 C1526 1.378 . S
C1519 C1518 1.367 1_545 S
C1519 C1527 1.433 . S
C1520 H1516 0.929 . S
C1520 C1522 1.378 . S
C1520 C1524 1.350 . S
C1521 C1524 1.463 . S
C1521 C1526 1.350 1_545 S
C1521 N1529 1.427 . S
C1522 H1513 0.930 . S
C1522 C1520 1.378 . S
C1522 C1523 1.367 . S
C1523 C1522 1.367 . S
C1523 C1525 1.433 1_545 S
C1524 C1520 1.350 . S
C1524 C1521 1.463 . S
C1524 N1528 1.427 1_545 S
C1525 H1515 0.929 . S
C1525 C1523 1.433 1_565 S
C1525 N1528 1.384 . S
C1526 H1517 0.929 . S
C1526 C1518 1.378 . S
C1526 C1521 1.350 1_565 S
C1527 H1514 0.929 . S
C1527 C1519 1.433 . S
C1527 N1529 1.384 . S
N1528 C1524 1.427 1_565 S
N1528 C1525 1.384 . S
N1529 C1521 1.427 . S
N1529 C1527 1.384 . S
H1530 C1536 0.942 . S
H1531 C1540 0.930 . S
H1532 C1545 0.929 . S
H1533 C1543 0.929 . S
H1534 C1538 0.929 . S
H1535 C1544 0.984 . S
C1536 H1530 0.942 . S
C1536 C1537 1.367 . S
C1536 C1544 1.378 . S
C1537 C1536 1.367 . S
C1537 C1545 1.433 . S
C1538 H1534 0.929 . S
C1538 C1540 1.378 . S
C1538 C1542 1.350 . S
C1539 C1542 1.463 . S
C1539 C1544 1.350 . S
C1539 N1547 1.427 . S
C1540 H1531 0.930 . S
C1540 C1538 1.378 . S
C1540 C1541 1.367 . S
C1541 C1540 1.367 . S
C1541 C1543 1.433 . S
C1542 C1538 1.350 . S
C1542 C1539 1.463 . S
C1542 N1546 1.427 . S
C1543 H1533 0.929 . S
C1543 C1541 1.433 . S
C1543 N1546 1.384 . S
C1544 H1535 0.984 . S
C1544 C1536 1.378 . S
C1544 C1539 1.350 . S
C1545 H1532 0.929 . S
C1545 C1537 1.433 . S
C1545 N1547 1.384 . S
N1546 C1542 1.427 . S
N1546 C1543 1.384 . S
N1547 C1539 1.427 . S
N1547 C1545 1.384 . S
H1548 C1554 0.930 . S
H1549 C1558 0.930 . S
H1550 C1563 0.929 . S
H1551 C1561 0.929 . S
H1552 C1556 0.929 . S
H1553 C1562 0.929 . S
C1554 H1548 0.930 . S
C1554 C1555 1.367 . S
C1554 C1562 1.378 . S
C1555 C1554 1.367 . S
C1555 C1563 1.433 . S
C1556 H1552 0.929 . S
C1556 C1558 1.378 . S
C1556 C1560 1.350 . S
C1557 C1560 1.463 . S
C1557 C1562 1.350 . S
C1557 N1565 1.427 . S
C1558 H1549 0.930 . S
C1558 C1556 1.378 . S
C1558 C1559 1.367 . S
C1559 C1558 1.367 . S
C1559 C1561 1.433 . S
C1560 C1556 1.350 . S
C1560 C1557 1.463 . S
C1560 N1564 1.427 . S
C1561 H1551 0.929 . S
C1561 C1559 1.433 . S
C1561 N1564 1.384 . S
C1562 H1553 0.929 . S
C1562 C1554 1.378 . S
C1562 C1557 1.350 . S
C1563 H1550 0.929 . S
C1563 C1555 1.433 . S
C1563 N1565 1.384 . S
N1564 C1560 1.427 . S
N1564 C1561 1.384 . S
N1565 C1557 1.427 . S
N1565 C1563 1.384 . S
H1566 C1572 0.930 . S
H1567 C1576 0.930 . S
H1568 C1581 0.929 . S
H1569 C1579 0.929 . S
H1570 C1574 0.929 . S
H1571 C1580 0.929 . S
C1572 H1566 0.930 . S
C1572 C1573 1.367 . S
C1572 C1580 1.378 . S
C1573 C1572 1.367 . S
C1573 C1581 1.433 . S
C1574 H1570 0.929 . S
C1574 C1576 1.378 . S
C1574 C1578 1.350 . S
C1575 C1578 1.463 . S
C1575 C1580 1.350 . S
C1575 N1583 1.427 . S
C1576 H1567 0.930 . S
C1576 C1574 1.378 . S
C1576 C1577 1.367 . S
C1577 C1576 1.367 . S
C1577 C1579 1.433 . S
C1578 C1574 1.350 . S
C1578 C1575 1.463 . S
C1578 N1582 1.427 . S
C1579 H1569 0.929 . S
C1579 C1577 1.433 . S
C1579 N1582 1.384 . S
C1580 H1571 0.929 . S
C1580 C1572 1.378 . S
C1580 C1575 1.350 . S
C1581 H1568 0.929 . S
C1581 C1573 1.433 . S
C1581 N1583 1.384 . S
N1582 C1578 1.427 . S
N1582 C1579 1.384 . S
N1583 C1575 1.427 . S
N1583 C1581 1.384 . S
H1584 C1590 0.930 . S
H1585 C1594 0.930 . S
H1586 C1599 0.929 . S
H1587 C1597 0.929 . S
H1588 C1592 0.929 . S
H1589 C1598 0.929 . S
C1590 H1584 0.930 . S
C1590 C1591 1.367 . S
C1590 C1598 1.378 . S
C1591 C1590 1.367 . S
C1591 C1599 1.433 . S
C1592 H1588 0.929 . S
C1592 C1594 1.378 . S
C1592 C1596 1.350 . S
C1593 C1596 1.463 . S
C1593 C1598 1.350 . S
C1593 N1601 1.427 . S
C1594 H1585 0.930 . S
C1594 C1592 1.378 . S
C1594 C1595 1.367 . S
C1595 C1594 1.367 . S
C1595 C1597 1.433 . S
C1596 C1592 1.350 . S
C1596 C1593 1.463 . S
C1596 N1600 1.427 . S
C1597 H1587 0.929 . S
C1597 C1595 1.433 . S
C1597 N1600 1.384 . S
C1598 H1589 0.929 . S
C1598 C1590 1.378 . S
C1598 C1593 1.350 . S
C1599 H1586 0.929 . S
C1599 C1591 1.433 . S
C1599 N1601 1.384 . S
N1600 C1596 1.427 . S
N1600 C1597 1.384 . S
N1601 C1593 1.427 . S
N1601 C1599 1.384 . S
H1602 C1608 0.930 . S
H1603 C1612 0.930 . S
H1604 C1617 0.929 . S
H1605 C1615 0.929 . S
H1606 C1610 0.929 . S
H1607 C1616 0.929 . S
C1608 H1602 0.930 . S
C1608 C1609 1.367 . S
C1608 C1616 1.378 . S
C1609 C1608 1.367 . S
C1609 C1617 1.433 . S
C1610 H1606 0.929 . S
C1610 C1612 1.378 . S
C1610 C1614 1.350 . S
C1611 C1614 1.463 . S
C1611 C1616 1.350 . S
C1611 N1619 1.427 . S
C1612 H1603 0.930 . S
C1612 C1610 1.378 . S
C1612 C1613 1.367 . S
C1613 C1612 1.367 . S
C1613 C1615 1.433 . S
C1614 C1610 1.350 . S
C1614 C1611 1.463 . S
C1614 N1618 1.427 . S
C1615 H1605 0.929 . S
C1615 C1613 1.433 . S
C1615 N1618 1.384 . S
C1616 H1607 0.929 . S
C1616 C1608 1.378 . S
C1616 C1611 1.350 . S
C1617 H1604 0.929 . S
C1617 C1609 1.433 . S
C1617 N1619 1.384 . S
N1618 C1614 1.427 . S
N1618 C1615 1.384 . S
N1619 C1611 1.427 . S
N1619 C1617 1.384 . S
H1620 C1626 0.930 . S
H1621 C1630 0.930 . S
H1622 C1635 0.929 . S
H1623 C1633 0.929 . S
H1624 C1628 0.929 . S
H1625 C1634 0.929 . S
C1626 H1620 0.930 . S
C1626 C1627 1.367 . S
C1626 C1634 1.378 . S
C1627 C1626 1.367 . S
C1627 C1635 1.433 . S
C1628 H1624 0.929 . S
C1628 C1630 1.378 . S
C1628 C1632 1.350 . S
C1629 C1632 1.463 . S
C1629 C1634 1.350 . S
C1629 N1637 1.427 . S
C1630 H1621 0.930 . S
C1630 C1628 1.378 . S
C1630 C1631 1.367 . S
C1631 C1630 1.367 . S
C1631 C1633 1.433 . S
C1632 C1628 1.350 . S
C1632 C1629 1.463 . S
C1632 N1636 1.427 . S
C1633 H1623 0.929 . S
C1633 C1631 1.433 . S
C1633 N1636 1.384 . S
C1634 H1625 0.929 . S
C1634 C1626 1.378 . S
C1634 C1629 1.350 . S
C1635 H1622 0.929 . S
C1635 C1627 1.433 . S
C1635 N1637 1.384 . S
N1636 C1632 1.427 . S
N1636 C1633 1.384 . S
N1637 C1629 1.427 . S
N1637 C1635 1.384 . S
H1638 C1644 0.930 . S
H1639 C1648 0.930 . S
H1640 C1653 0.929 . S
H1641 C1651 0.929 . S
H1642 C1646 0.929 . S
H1643 C1652 0.929 . S
C1644 H1638 0.930 . S
C1644 C1645 1.367 . S
C1644 C1652 1.378 . S
C1645 C1644 1.367 . S
C1645 C1653 1.433 . S
C1646 H1642 0.929 . S
C1646 C1648 1.378 . S
C1646 C1650 1.350 . S
C1647 C1650 1.463 . S
C1647 C1652 1.350 . S
C1647 N1655 1.427 . S
C1648 H1639 0.930 . S
C1648 C1646 1.378 . S
C1648 C1649 1.367 . S
C1649 C1648 1.367 . S
C1649 C1651 1.433 . S
C1650 C1646 1.350 . S
C1650 C1647 1.463 . S
C1650 N1654 1.427 . S
C1651 H1641 0.929 . S
C1651 C1649 1.433 . S
C1651 N1654 1.384 . S
C1652 H1643 0.929 . S
C1652 C1644 1.378 . S
C1652 C1647 1.350 . S
C1653 H1640 0.929 . S
C1653 C1645 1.433 . S
C1653 N1655 1.384 . S
N1654 C1650 1.427 . S
N1654 C1651 1.384 . S
N1655 C1647 1.427 . S
N1655 C1653 1.384 . S
H1656 C1662 0.930 . S
H1657 C1666 0.930 . S
H1658 C1671 0.929 . S
H1659 C1669 0.929 . S
H1660 C1664 0.929 . S
H1661 C1670 0.929 . S
C1662 H1656 0.930 . S
C1662 C1663 1.367 . S
C1662 C1670 1.378 . S
C1663 C1662 1.367 . S
C1663 C1671 1.433 . S
C1664 H1660 0.929 . S
C1664 C1666 1.378 . S
C1664 C1668 1.350 . S
C1665 C1668 1.463 . S
C1665 C1670 1.350 . S
C1665 N1673 1.427 . S
C1666 H1657 0.930 . S
C1666 C1664 1.378 . S
C1666 C1667 1.367 . S
C1667 C1666 1.367 . S
C1667 C1669 1.433 . S
C1668 C1664 1.350 . S
C1668 C1665 1.463 . S
C1668 N1672 1.427 . S
C1669 H1659 0.929 . S
C1669 C1667 1.433 . S
C1669 N1672 1.384 . S
C1670 H1661 0.929 . S
C1670 C1662 1.378 . S
C1670 C1665 1.350 . S
C1671 H1658 0.929 . S
C1671 C1663 1.433 . S
C1671 N1673 1.384 . S
N1672 C1668 1.427 . S
N1672 C1669 1.384 . S
N1673 C1665 1.427 . S
N1673 C1671 1.384 . S
H1674 C1680 0.930 . S
H1675 C1684 0.930 . S
H1676 C1689 0.929 . S
H1677 C1687 0.929 . S
H1678 C1682 0.929 . S
H1679 C1688 0.929 . S
C1680 H1674 0.930 . S
C1680 C1681 1.367 . S
C1680 C1688 1.378 . S
C1681 C1680 1.367 . S
C1681 C1689 1.433 . S
C1682 H1678 0.929 . S
C1682 C1684 1.378 . S
C1682 C1686 1.350 . S
C1683 C1686 1.463 . S
C1683 C1688 1.350 . S
C1683 N1691 1.427 . S
C1684 H1675 0.930 . S
C1684 C1682 1.378 . S
C1684 C1685 1.367 . S
C1685 C1684 1.367 . S
C1685 C1687 1.433 . S
C1686 C1682 1.350 . S
C1686 C1683 1.463 . S
C1686 N1690 1.427 . S
C1687 H1677 0.929 . S
C1687 C1685 1.433 . S
C1687 N1690 1.384 . S
C1688 H1679 0.929 . S
C1688 C1680 1.378 . S
C1688 C1683 1.350 . S
C1689 H1676 0.929 . S
C1689 C1681 1.433 . S
C1689 N1691 1.384 . S
N1690 C1686 1.427 . S
N1690 C1687 1.384 . S
N1691 C1683 1.427 . S
N1691 C1689 1.384 . S
H1692 C1698 0.930 . S
H1693 C1702 0.930 . S
H1694 C1707 0.929 . S
H1695 C1705 0.929 . S
H1696 C1700 0.929 . S
H1697 C1706 0.929 . S
C1698 H1692 0.930 . S
C1698 C1699 1.367 . S
C1698 C1706 1.378 . S
C1699 C1698 1.367 . S
C1699 C1707 1.433 . S
C1700 H1696 0.929 . S
C1700 C1702 1.378 . S
C1700 C1704 1.350 . S
C1701 C1704 1.463 . S
C1701 C1706 1.350 . S
C1701 N1709 1.427 . S
C1702 H1693 0.930 . S
C1702 C1700 1.378 . S
C1702 C1703 1.367 . S
C1703 C1702 1.367 . S
C1703 C1705 1.433 . S
C1704 C1700 1.350 . S
C1704 C1701 1.463 . S
C1704 N1708 1.427 . S
C1705 H1695 0.929 . S
C1705 C1703 1.433 . S
C1705 N1708 1.384 . S
C1706 H1697 0.929 . S
C1706 C1698 1.378 . S
C1706 C1701 1.350 . S
C1707 H1694 0.929 . S
C1707 C1699 1.433 . S
C1707 N1709 1.384 . S
N1708 C1704 1.427 . S
N1708 C1705 1.384 . S
N1709 C1701 1.427 . S
N1709 C1707 1.384 . S
H1710 C1716 0.930 . S
H1711 C1720 0.930 . S
H1712 C1725 0.929 . S
H1713 C1723 0.929 . S
H1714 C1718 0.929 . S
H1715 C1724 0.929 . S
C1716 H1710 0.930 . S
C1716 C1717 1.367 . S
C1716 C1724 1.378 . S
C1717 C1716 1.367 . S
C1717 C1725 1.433 . S
C1718 H1714 0.929 . S
C1718 C1720 1.378 . S
C1718 C1722 1.350 . S
C1719 C1722 1.463 . S
C1719 C1724 1.350 . S
C1719 N1727 1.427 . S
C1720 H1711 0.930 . S
C1720 C1718 1.378 . S
C1720 C1721 1.367 . S
C1721 C1720 1.367 . S
C1721 C1723 1.433 . S
C1722 C1718 1.350 . S
C1722 C1719 1.463 . S
C1722 N1726 1.427 . S
C1723 H1713 0.929 . S
C1723 C1721 1.433 . S
C1723 N1726 1.384 . S
C1724 H1715 0.929 . S
C1724 C1716 1.378 . S
C1724 C1719 1.350 . S
C1725 H1712 0.929 . S
C1725 C1717 1.433 . S
C1725 N1727 1.384 . S
N1726 C1722 1.427 . S
N1726 C1723 1.384 . S
N1727 C1719 1.427 . S
N1727 C1725 1.384 . S
H1728 C1734 0.930 . S
H1729 C1738 0.930 . S
H1730 C1743 0.929 . S
H1731 C1741 0.929 . S
H1732 C1736 0.929 . S
H1733 C1742 0.929 . S
C1734 H1728 0.930 . S
C1734 C1735 1.367 . S
C1734 C1742 1.378 . S
C1735 C1734 1.367 . S
C1735 C1743 1.433 . S
C1736 H1732 0.929 . S
C1736 C1738 1.378 . S
C1736 C1740 1.350 . S
C1737 C1740 1.463 . S
C1737 C1742 1.350 . S
C1737 N1745 1.427 . S
C1738 H1729 0.930 . S
C1738 C1736 1.378 . S
C1738 C1739 1.367 . S
C1739 C1738 1.367 . S
C1739 C1741 1.433 . S
C1740 C1736 1.350 . S
C1740 C1737 1.463 . S
C1740 N1744 1.427 . S
C1741 H1731 0.929 . S
C1741 C1739 1.433 . S
C1741 N1744 1.384 . S
C1742 H1733 0.929 . S
C1742 C1734 1.378 . S
C1742 C1737 1.350 . S
C1743 H1730 0.929 . S
C1743 C1735 1.433 . S
C1743 N1745 1.384 . S
N1744 C1740 1.427 . S
N1744 C1741 1.384 . S
N1745 C1737 1.427 . S
N1745 C1743 1.384 . S
H1746 C1752 0.930 . S
H1747 C1756 0.930 . S
H1748 C1761 0.929 . S
H1749 C1759 0.929 . S
H1750 C1754 0.929 . S
H1751 C1760 0.929 . S
C1752 H1746 0.930 . S
C1752 C1753 1.367 . S
C1752 C1760 1.378 . S
C1753 C1752 1.367 . S
C1753 C1761 1.433 . S
C1754 H1750 0.929 . S
C1754 C1756 1.378 . S
C1754 C1758 1.350 . S
C1755 C1758 1.463 . S
C1755 C1760 1.350 . S
C1755 N1763 1.427 . S
C1756 H1747 0.930 . S
C1756 C1754 1.378 . S
C1756 C1757 1.367 . S
C1757 C1756 1.367 . S
C1757 C1759 1.433 . S
C1758 C1754 1.350 . S
C1758 C1755 1.463 . S
C1758 N1762 1.427 . S
C1759 H1749 0.929 . S
C1759 C1757 1.433 . S
C1759 N1762 1.384 . S
C1760 H1751 0.929 . S
C1760 C1752 1.378 . S
C1760 C1755 1.350 . S
C1761 H1748 0.929 . S
C1761 C1753 1.433 . S
C1761 N1763 1.384 . S
N1762 C1758 1.427 . S
N1762 C1759 1.384 . S
N1763 C1755 1.427 . S
N1763 C1761 1.384 . S
H1764 C1770 0.930 . S
H1765 C1774 0.930 . S
H1766 C1779 0.929 . S
H1767 C1777 0.929 . S
H1768 C1772 0.929 . S
H1769 C1778 0.929 . S
C1770 H1764 0.930 . S
C1770 C1771 1.367 . S
C1770 C1778 1.378 . S
C1771 C1770 1.367 . S
C1771 C1779 1.433 . S
C1772 H1768 0.929 . S
C1772 C1774 1.378 . S
C1772 C1776 1.350 . S
C1773 C1776 1.463 . S
C1773 C1778 1.350 . S
C1773 N1781 1.427 . S
C1774 H1765 0.930 . S
C1774 C1772 1.378 . S
C1774 C1775 1.367 . S
C1775 C1774 1.367 . S
C1775 C1777 1.433 . S
C1776 C1772 1.350 . S
C1776 C1773 1.463 . S
C1776 N1780 1.427 . S
C1777 H1767 0.929 . S
C1777 C1775 1.433 . S
C1777 N1780 1.384 . S
C1778 H1769 0.929 . S
C1778 C1770 1.378 . S
C1778 C1773 1.350 . S
C1779 H1766 0.929 . S
C1779 C1771 1.433 . S
C1779 N1781 1.384 . S
N1780 C1776 1.427 . S
N1780 C1777 1.384 . S
N1781 C1773 1.427 . S
N1781 C1779 1.384 . S
H1782 C1788 0.930 . S
H1783 C1792 0.930 . S
H1784 C1797 0.929 . S
H1785 C1795 0.929 . S
H1786 C1790 0.929 . S
H1787 C1796 0.929 . S
C1788 H1782 0.930 . S
C1788 C1789 1.367 . S
C1788 C1796 1.378 . S
C1789 C1788 1.367 . S
C1789 C1797 1.433 . S
C1790 H1786 0.929 . S
C1790 C1792 1.378 . S
C1790 C1794 1.350 . S
C1791 C1794 1.463 . S
C1791 C1796 1.350 . S
C1791 N1799 1.427 . S
C1792 H1783 0.930 . S
C1792 C1790 1.378 . S
C1792 C1793 1.367 . S
C1793 C1792 1.367 . S
C1793 C1795 1.433 . S
C1794 C1790 1.350 . S
C1794 C1791 1.463 . S
C1794 N1798 1.427 . S
C1795 H1785 0.929 . S
C1795 C1793 1.433 . S
C1795 N1798 1.384 . S
C1796 H1787 0.929 . S
C1796 C1788 1.378 . S
C1796 C1791 1.350 . S
C1797 H1784 0.929 . S
C1797 C1789 1.433 . S
C1797 N1799 1.384 . S
N1798 C1794 1.427 . S
N1798 C1795 1.384 . S
N1799 C1791 1.427 . S
N1799 C1797 1.384 . S
H1800 C1806 0.930 . S
H1801 C1810 0.930 . S
H1802 C1815 0.929 . S
H1803 C1813 0.929 . S
H1804 C1808 0.929 . S
H1805 C1814 0.929 . S
C1806 H1800 0.930 . S
C1806 C1807 1.367 . S
C1806 C1814 1.378 . S
C1807 C1806 1.367 . S
C1807 C1815 1.433 . S
C1808 H1804 0.929 . S
C1808 C1810 1.378 . S
C1808 C1812 1.350 . S
C1809 C1812 1.463 . S
C1809 C1814 1.350 . S
C1809 N1817 1.427 . S
C1810 H1801 0.930 . S
C1810 C1808 1.378 . S
C1810 C1811 1.367 . S
C1811 C1810 1.367 . S
C1811 C1813 1.433 . S
C1812 C1808 1.350 . S
C1812 C1809 1.463 . S
C1812 N1816 1.427 . S
C1813 H1803 0.929 . S
C1813 C1811 1.433 . S
C1813 N1816 1.384 . S
C1814 H1805 0.929 . S
C1814 C1806 1.378 . S
C1814 C1809 1.350 . S
C1815 H1802 0.929 . S
C1815 C1807 1.433 . S
C1815 N1817 1.384 . S
N1816 C1812 1.427 . S
N1816 C1813 1.384 . S
N1817 C1809 1.427 . S
N1817 C1815 1.384 . S
H1818 C1824 0.930 . S
H1819 C1828 0.930 . S
H1820 C1833 0.929 . S
H1821 C1831 0.929 . S
H1822 C1826 0.929 . S
H1823 C1832 0.929 . S
C1824 H1818 0.930 . S
C1824 C1825 1.367 . S
C1824 C1832 1.378 . S
C1825 C1824 1.367 . S
C1825 C1833 1.433 . S
C1826 H1822 0.929 . S
C1826 C1828 1.378 . S
C1826 C1830 1.350 . S
C1827 C1830 1.463 . S
C1827 C1832 1.350 . S
C1827 N1835 1.427 . S
C1828 H1819 0.930 . S
C1828 C1826 1.378 . S
C1828 C1829 1.367 . S
C1829 C1828 1.367 . S
C1829 C1831 1.433 . S
C1830 C1826 1.350 . S
C1830 C1827 1.463 . S
C1830 N1834 1.427 . S
C1831 H1821 0.929 . S
C1831 C1829 1.433 . S
C1831 N1834 1.384 . S
C1832 H1823 0.929 . S
C1832 C1824 1.378 . S
C1832 C1827 1.350 . S
C1833 H1820 0.929 . S
C1833 C1825 1.433 . S
C1833 N1835 1.384 . S
N1834 C1830 1.427 . S
N1834 C1831 1.384 . S
N1835 C1827 1.427 . S
N1835 C1833 1.384 . S
H1836 C1842 0.930 . S
H1837 C1846 0.930 . S
H1838 C1851 0.929 . S
H1839 C1849 0.929 . S
H1840 C1844 0.929 . S
H1841 C1850 0.929 . S
C1842 H1836 0.930 . S
C1842 C1843 1.367 . S
C1842 C1850 1.378 . S
C1843 C1842 1.367 . S
C1843 C1851 1.433 . S
C1844 H1840 0.929 . S
C1844 C1846 1.378 . S
C1844 C1848 1.350 . S
C1845 C1848 1.463 . S
C1845 C1850 1.350 . S
C1845 N1853 1.427 . S
C1846 H1837 0.930 . S
C1846 C1844 1.378 . S
C1846 C1847 1.367 . S
C1847 C1846 1.367 . S
C1847 C1849 1.433 . S
C1848 C1844 1.350 . S
C1848 C1845 1.463 . S
C1848 N1852 1.427 . S
C1849 H1839 0.929 . S
C1849 C1847 1.433 . S
C1849 N1852 1.384 . S
C1850 H1841 0.929 . S
C1850 C1842 1.378 . S
C1850 C1845 1.350 . S
C1851 H1838 0.929 . S
C1851 C1843 1.433 . S
C1851 N1853 1.384 . S
N1852 C1848 1.427 . S
N1852 C1849 1.384 . S
N1853 C1845 1.427 . S
N1853 C1851 1.384 . S
H1854 C1860 0.930 . S
H1855 C1864 0.930 . S
H1856 C1869 0.929 . S
H1857 C1867 0.929 . S
H1858 C1862 0.929 . S
H1859 C1868 0.929 . S
C1860 H1854 0.930 . S
C1860 C1861 1.367 . S
C1860 C1868 1.378 . S
C1861 C1860 1.367 . S
C1861 C1869 1.433 . S
C1862 H1858 0.929 . S
C1862 C1864 1.378 . S
C1862 C1866 1.350 . S
C1863 C1866 1.463 . S
C1863 C1868 1.350 . S
C1863 N1871 1.427 . S
C1864 H1855 0.930 . S
C1864 C1862 1.378 . S
C1864 C1865 1.367 . S
C1865 C1864 1.367 . S
C1865 C1867 1.433 . S
C1866 C1862 1.350 . S
C1866 C1863 1.463 . S
C1866 N1870 1.427 . S
C1867 H1857 0.929 . S
C1867 C1865 1.433 . S
C1867 N1870 1.384 . S
C1868 H1859 0.929 . S
C1868 C1860 1.378 . S
C1868 C1863 1.350 . S
C1869 H1856 0.929 . S
C1869 C1861 1.433 . S
C1869 N1871 1.384 . S
N1870 C1866 1.427 . S
N1870 C1867 1.384 . S
N1871 C1863 1.427 . S
N1871 C1869 1.384 . S
H1872 C1878 0.930 . S
H1873 C1882 0.930 . S
H1874 C1887 0.929 . S
H1875 C1885 0.929 . S
H1876 C1880 0.929 . S
H1877 C1886 0.929 . S
C1878 H1872 0.930 . S
C1878 C1879 1.367 . S
C1878 C1886 1.378 . S
C1879 C1878 1.367 . S
C1879 C1887 1.433 . S
C1880 H1876 0.929 . S
C1880 C1882 1.378 . S
C1880 C1884 1.350 . S
C1881 C1884 1.463 . S
C1881 C1886 1.350 . S
C1881 N1889 1.427 . S
C1882 H1873 0.930 . S
C1882 C1880 1.378 . S
C1882 C1883 1.367 . S
C1883 C1882 1.367 . S
C1883 C1885 1.433 . S
C1884 C1880 1.350 . S
C1884 C1881 1.463 . S
C1884 N1888 1.427 . S
C1885 H1875 0.929 . S
C1885 C1883 1.433 . S
C1885 N1888 1.384 . S
C1886 H1877 0.929 . S
C1886 C1878 1.378 . S
C1886 C1881 1.350 . S
C1887 H1874 0.929 . S
C1887 C1879 1.433 . S
C1887 N1889 1.384 . S
N1888 C1884 1.427 . S
N1888 C1885 1.384 . S
N1889 C1881 1.427 . S
N1889 C1887 1.384 . S
H1890 C1896 0.930 . S
H1891 C1900 0.930 . S
H1892 C1905 0.929 . S
H1893 C1903 0.929 . S
H1894 C1898 0.929 . S
H1895 C1904 0.929 . S
C1896 H1890 0.930 . S
C1896 C1897 1.367 . S
C1896 C1904 1.378 . S
C1897 C1896 1.367 . S
C1897 C1905 1.433 . S
C1898 H1894 0.929 . S
C1898 C1900 1.378 . S
C1898 C1902 1.350 . S
C1899 C1902 1.463 . S
C1899 C1904 1.350 . S
C1899 N1907 1.427 . S
C1900 H1891 0.930 . S
C1900 C1898 1.378 . S
C1900 C1901 1.367 . S
C1901 C1900 1.367 . S
C1901 C1903 1.433 . S
C1902 C1898 1.350 . S
C1902 C1899 1.463 . S
C1902 N1906 1.427 . S
C1903 H1893 0.929 . S
C1903 C1901 1.433 . S
C1903 N1906 1.384 . S
C1904 H1895 0.929 . S
C1904 C1896 1.378 . S
C1904 C1899 1.350 . S
C1905 H1892 0.929 . S
C1905 C1897 1.433 . S
C1905 N1907 1.384 . S
N1906 C1902 1.427 . S
N1906 C1903 1.384 . S
N1907 C1899 1.427 . S
N1907 C1905 1.384 . S
H1908 C1914 0.930 . S
H1909 C1918 0.930 . S
H1910 C1923 0.929 . S
H1911 C1921 0.929 . S
H1912 C1916 0.929 . S
H1913 C1922 0.929 . S
C1914 H1908 0.930 . S
C1914 C1915 1.367 . S
C1914 C1922 1.378 . S
C1915 C1914 1.367 . S
C1915 C1923 1.433 . S
C1916 H1912 0.929 . S
C1916 C1918 1.378 . S
C1916 C1920 1.350 . S
C1917 C1920 1.463 . S
C1917 C1922 1.350 . S
C1917 N1925 1.427 . S
C1918 H1909 0.930 . S
C1918 C1916 1.378 . S
C1918 C1919 1.367 . S
C1919 C1918 1.367 . S
C1919 C1921 1.433 . S
C1920 C1916 1.350 . S
C1920 C1917 1.463 . S
C1920 N1924 1.427 . S
C1921 H1911 0.929 . S
C1921 C1919 1.433 . S
C1921 N1924 1.384 . S
C1922 H1913 0.929 . S
C1922 C1914 1.378 . S
C1922 C1917 1.350 . S
C1923 H1910 0.929 . S
C1923 C1915 1.433 . S
C1923 N1925 1.384 . S
N1924 C1920 1.427 . S
N1924 C1921 1.384 . S
N1925 C1917 1.427 . S
N1925 C1923 1.384 . S
H1926 C1932 0.930 . S
H1927 C1936 0.930 . S
H1928 C1941 0.929 . S
H1929 C1939 0.929 . S
H1930 C1934 0.929 . S
H1931 C1940 0.929 . S
C1932 H1926 0.930 . S
C1932 C1933 1.367 . S
C1932 C1940 1.378 . S
C1933 C1932 1.367 . S
C1933 C1941 1.433 . S
C1934 H1930 0.929 . S
C1934 C1936 1.378 . S
C1934 C1938 1.350 . S
C1935 C1938 1.463 . S
C1935 C1940 1.350 . S
C1935 N1943 1.427 . S
C1936 H1927 0.930 . S
C1936 C1934 1.378 . S
C1936 C1937 1.367 . S
C1937 C1936 1.367 . S
C1937 C1939 1.433 . S
C1938 C1934 1.350 . S
C1938 C1935 1.463 . S
C1938 N1942 1.427 . S
C1939 H1929 0.929 . S
C1939 C1937 1.433 . S
C1939 N1942 1.384 . S
C1940 H1931 0.929 . S
C1940 C1932 1.378 . S
C1940 C1935 1.350 . S
C1941 H1928 0.929 . S
C1941 C1933 1.433 . S
C1941 N1943 1.384 . S
N1942 C1938 1.427 . S
N1942 C1939 1.384 . S
N1943 C1935 1.427 . S
N1943 C1941 1.384 . S
H1944 C1950 0.930 . S
H1945 C1954 0.930 . S
H1946 C1959 0.929 . S
H1947 C1957 0.929 . S
H1948 C1952 0.929 . S
H1949 C1958 0.929 . S
C1950 H1944 0.930 . S
C1950 C1951 1.367 . S
C1950 C1958 1.378 . S
C1951 C1950 1.367 . S
C1951 C1959 1.433 . S
C1952 H1948 0.929 . S
C1952 C1954 1.378 . S
C1952 C1956 1.350 . S
C1953 C1956 1.463 . S
C1953 C1958 1.350 . S
C1953 N1961 1.427 . S
C1954 H1945 0.930 . S
C1954 C1952 1.378 . S
C1954 C1955 1.367 . S
C1955 C1954 1.367 . S
C1955 C1957 1.433 . S
C1956 C1952 1.350 . S
C1956 C1953 1.463 . S
C1956 N1960 1.427 . S
C1957 H1947 0.929 . S
C1957 C1955 1.433 . S
C1957 N1960 1.384 . S
C1958 H1949 0.929 . S
C1958 C1950 1.378 . S
C1958 C1953 1.350 . S
C1959 H1946 0.929 . S
C1959 C1951 1.433 . S
C1959 N1961 1.384 . S
N1960 C1956 1.427 . S
N1960 C1957 1.384 . S
N1961 C1953 1.427 . S
N1961 C1959 1.384 . S
H1962 C1968 0.930 . S
H1963 C1972 0.930 . S
H1964 C1977 0.929 . S
H1965 C1975 0.929 . S
H1966 C1970 0.929 . S
H1967 C1976 0.929 . S
C1968 H1962 0.930 . S
C1968 C1969 1.367 . S
C1968 C1976 1.378 . S
C1969 C1968 1.367 . S
C1969 C1977 1.433 . S
C1970 H1966 0.929 . S
C1970 C1972 1.378 . S
C1970 C1974 1.350 . S
C1971 C1974 1.463 . S
C1971 C1976 1.350 . S
C1971 N1979 1.427 . S
C1972 H1963 0.930 . S
C1972 C1970 1.378 . S
C1972 C1973 1.367 . S
C1973 C1972 1.367 . S
C1973 C1975 1.433 . S
C1974 C1970 1.350 . S
C1974 C1971 1.463 . S
C1974 N1978 1.427 . S
C1975 H1965 0.929 . S
C1975 C1973 1.433 . S
C1975 N1978 1.384 . S
C1976 H1967 0.929 . S
C1976 C1968 1.378 . S
C1976 C1971 1.350 . S
C1977 H1964 0.929 . S
C1977 C1969 1.433 . S
C1977 N1979 1.384 . S
N1978 C1974 1.427 . S
N1978 C1975 1.384 . S
N1979 C1971 1.427 . S
N1979 C1977 1.384 . S
H1980 C1986 0.930 . S
H1981 C1990 0.930 . S
H1982 C1995 0.929 . S
H1983 C1993 0.929 . S
H1984 C1988 0.929 . S
H1985 C1994 0.929 . S
C1986 H1980 0.930 . S
C1986 C1987 1.367 . S
C1986 C1994 1.378 . S
C1987 C1986 1.367 . S
C1987 C1995 1.433 . S
C1988 H1984 0.929 . S
C1988 C1990 1.378 . S
C1988 C1992 1.350 . S
C1989 C1992 1.463 . S
C1989 C1994 1.350 . S
C1989 N1997 1.427 . S
C1990 H1981 0.930 . S
C1990 C1988 1.378 . S
C1990 C1991 1.367 . S
C1991 C1990 1.367 . S
C1991 C1993 1.433 . S
C1992 C1988 1.350 . S
C1992 C1989 1.463 . S
C1992 N1996 1.427 . S
C1993 H1983 0.929 . S
C1993 C1991 1.433 . S
C1993 N1996 1.384 . S
C1994 H1985 0.929 . S
C1994 C1986 1.378 . S
C1994 C1989 1.350 . S
C1995 H1982 0.929 . S
C1995 C1987 1.433 . S
C1995 N1997 1.384 . S
N1996 C1992 1.427 . S
N1996 C1993 1.384 . S
N1997 C1989 1.427 . S
N1997 C1995 1.384 . S
H1998 C2004 0.930 . S
H1999 C2008 0.930 . S
H2000 C2013 0.929 . S
H2001 C2011 0.929 . S
H2002 C2006 0.929 . S
H2003 C2012 0.929 . S
C2004 H1998 0.930 . S
C2004 C2005 1.367 . S
C2004 C2012 1.378 . S
C2005 C2004 1.367 . S
C2005 C2013 1.433 . S
C2006 H2002 0.929 . S
C2006 C2008 1.378 . S
C2006 C2010 1.350 . S
C2007 C2010 1.463 . S
C2007 C2012 1.350 . S
C2007 N2015 1.427 . S
C2008 H1999 0.930 . S
C2008 C2006 1.378 . S
C2008 C2009 1.367 . S
C2009 C2008 1.367 . S
C2009 C2011 1.433 . S
C2010 C2006 1.350 . S
C2010 C2007 1.463 . S
C2010 N2014 1.427 . S
C2011 H2001 0.929 . S
C2011 C2009 1.433 . S
C2011 N2014 1.384 . S
C2012 H2003 0.929 . S
C2012 C2004 1.378 . S
C2012 C2007 1.350 . S
C2013 H2000 0.929 . S
C2013 C2005 1.433 . S
C2013 N2015 1.384 . S
N2014 C2010 1.427 . S
N2014 C2011 1.384 . S
N2015 C2007 1.427 . S
N2015 C2013 1.384 . S
H2016 C2022 0.930 . S
H2017 C2026 0.930 . S
H2018 C2031 0.929 . S
H2019 C2029 0.929 . S
H2020 C2024 0.929 . S
H2021 C2030 0.929 . S
C2022 H2016 0.930 . S
C2022 C2023 1.367 . S
C2022 C2030 1.378 . S
C2023 C2022 1.367 . S
C2023 C2031 1.433 . S
C2024 H2020 0.929 . S
C2024 C2026 1.378 . S
C2024 C2028 1.350 . S
C2025 C2028 1.463 . S
C2025 C2030 1.350 . S
C2025 N2033 1.427 . S
C2026 H2017 0.930 . S
C2026 C2024 1.378 . S
C2026 C2027 1.367 . S
C2027 C2026 1.367 . S
C2027 C2029 1.433 . S
C2028 C2024 1.350 . S
C2028 C2025 1.463 . S
C2028 N2032 1.427 . S
C2029 H2019 0.929 . S
C2029 C2027 1.433 . S
C2029 N2032 1.384 . S
C2030 H2021 0.929 . S
C2030 C2022 1.378 . S
C2030 C2025 1.350 . S
C2031 H2018 0.929 . S
C2031 C2023 1.433 . S
C2031 N2033 1.384 . S
N2032 C2028 1.427 . S
N2032 C2029 1.384 . S
N2033 C2025 1.427 . S
N2033 C2031 1.384 . S
H2034 C2040 0.930 . S
H2035 C2044 0.930 . S
H2036 C2049 0.929 . S
H2037 C2047 0.929 . S
H2038 C2042 0.929 . S
H2039 C2048 0.929 . S
C2040 H2034 0.930 . S
C2040 C2041 1.367 . S
C2040 C2048 1.378 . S
C2041 C2040 1.367 . S
C2041 C2049 1.433 . S
C2042 H2038 0.929 . S
C2042 C2044 1.378 . S
C2042 C2046 1.350 . S
C2043 C2046 1.463 . S
C2043 C2048 1.350 . S
C2043 N2051 1.427 . S
C2044 H2035 0.930 . S
C2044 C2042 1.378 . S
C2044 C2045 1.367 . S
C2045 C2044 1.367 . S
C2045 C2047 1.433 . S
C2046 C2042 1.350 . S
C2046 C2043 1.463 . S
C2046 N2050 1.427 . S
C2047 H2037 0.929 . S
C2047 C2045 1.433 . S
C2047 N2050 1.384 . S
C2048 H2039 0.929 . S
C2048 C2040 1.378 . S
C2048 C2043 1.350 . S
C2049 H2036 0.929 . S
C2049 C2041 1.433 . S
C2049 N2051 1.384 . S
N2050 C2046 1.427 . S
N2050 C2047 1.384 . S
N2051 C2043 1.427 . S
N2051 C2049 1.384 . S
H2052 C2058 0.930 . S
H2053 C2062 0.930 . S
H2054 C2067 0.929 . S
H2055 C2065 0.929 . S
H2056 C2060 0.929 . S
H2057 C2066 0.929 . S
C2058 H2052 0.930 . S
C2058 C2059 1.367 1_554 S
C2058 C2066 1.378 . S
C2059 C2058 1.367 1_556 S
C2059 C2067 1.433 . S
C2060 H2056 0.929 . S
C2060 C2062 1.378 . S
C2060 C2064 1.350 . S
C2061 C2064 1.463 . S
C2061 C2066 1.350 1_556 S
C2061 N2069 1.427 . S
C2062 H2053 0.930 . S
C2062 C2060 1.378 . S
C2062 C2063 1.367 . S
C2063 C2062 1.367 . S
C2063 C2065 1.433 . S
C2064 C2060 1.350 . S
C2064 C2061 1.463 . S
C2064 N2068 1.427 . S
C2065 H2055 0.929 . S
C2065 C2063 1.433 . S
C2065 N2068 1.384 . S
C2066 H2057 0.929 . S
C2066 C2058 1.378 . S
C2066 C2061 1.350 1_554 S
C2067 H2054 0.929 . S
C2067 C2059 1.433 . S
C2067 N2069 1.384 . S
N2068 C2064 1.427 . S
N2068 C2065 1.384 . S
N2069 C2061 1.427 . S
N2069 C2067 1.384 . S
H2070 C2076 0.930 . S
H2071 C2080 0.930 . S
H2072 C2085 0.929 . S
H2073 C2083 0.929 . S
H2074 C2078 0.929 1_554 S
H2075 C2084 0.929 . S
C2076 H2070 0.930 . S
C2076 C2077 1.367 . S
C2076 C2084 1.378 . S
C2077 C2076 1.367 . S
C2077 C2085 1.433 1_556 S
C2078 H2074 0.929 1_556 S
C2078 C2080 1.378 . S
C2078 C2082 1.350 . S
C2079 C2082 1.463 . S
C2079 C2084 1.350 . S
C2079 N2087 1.427 1_556 S
C2080 H2071 0.930 . S
C2080 C2078 1.378 . S
C2080 C2081 1.367 . S
C2081 C2080 1.367 . S
C2081 C2083 1.433 . S
C2082 C2078 1.350 . S
C2082 C2079 1.463 . S
C2082 N2086 1.427 . S
C2083 H2073 0.929 . S
C2083 C2081 1.433 . S
C2083 N2086 1.384 . S
C2084 H2075 0.929 . S
C2084 C2076 1.378 . S
C2084 C2079 1.350 . S
C2085 H2072 0.929 . S
C2085 C2077 1.433 1_554 S
C2085 N2087 1.384 . S
N2086 C2082 1.427 . S
N2086 C2083 1.384 . S
N2087 C2079 1.427 1_554 S
N2087 C2085 1.384 . S
H2088 C2094 0.930 . S
H2089 C2098 0.930 . S
H2090 C2103 0.929 . S
H2091 C2101 0.929 . S
H2092 C2096 0.929 . S
H2093 C2102 0.929 . S
C2094 H2088 0.930 . S
C2094 C2095 1.367 . S
C2094 C2102 1.378 . S
C2095 C2094 1.367 . S
C2095 C2103 1.433 . S
C2096 H2092 0.929 . S
C2096 C2098 1.378 . S
C2096 C2100 1.350 . S
C2097 C2100 1.463 . S
C2097 C2102 1.350 . S
C2097 N2105 1.427 . S
C2098 H2089 0.930 . S
C2098 C2096 1.378 . S
C2098 C2099 1.367 . S
C2099 C2098 1.367 . S
C2099 C2101 1.433 . S
C2100 C2096 1.350 . S
C2100 C2097 1.463 . S
C2100 N2104 1.427 . S
C2101 H2091 0.929 . S
C2101 C2099 1.433 . S
C2101 N2104 1.384 . S
C2102 H2093 0.929 . S
C2102 C2094 1.378 . S
C2102 C2097 1.350 . S
C2103 H2090 0.929 . S
C2103 C2095 1.433 . S
C2103 N2105 1.384 . S
N2104 C2100 1.427 . S
N2104 C2101 1.384 . S
N2105 C2097 1.427 . S
N2105 C2103 1.384 . S
H2106 C2112 0.930 . S
H2107 C2116 0.930 . S
H2108 C2121 0.929 . S
H2109 C2119 0.929 . S
H2110 C2114 0.929 . S
H2111 C2120 0.929 . S
C2112 H2106 0.930 . S
C2112 C2113 1.367 1_554 S
C2112 C2120 1.378 . S
C2113 C2112 1.367 1_556 S
C2113 C2121 1.433 . S
C2114 H2110 0.929 . S
C2114 C2116 1.378 . S
C2114 C2118 1.350 . S
C2115 C2118 1.463 . S
C2115 C2120 1.350 1_556 S
C2115 N2123 1.427 . S
C2116 H2107 0.930 . S
C2116 C2114 1.378 . S
C2116 C2117 1.367 . S
C2117 C2116 1.367 . S
C2117 C2119 1.433 . S
C2118 C2114 1.350 . S
C2118 C2115 1.463 . S
C2118 N2122 1.427 . S
C2119 H2109 0.929 . S
C2119 C2117 1.433 . S
C2119 N2122 1.384 . S
C2120 H2111 0.929 . S
C2120 C2112 1.378 . S
C2120 C2115 1.350 1_554 S
C2121 H2108 0.929 . S
C2121 C2113 1.433 . S
C2121 N2123 1.384 . S
N2122 C2118 1.427 . S
N2122 C2119 1.384 . S
N2123 C2115 1.427 . S
N2123 C2121 1.384 . S
H2124 C2130 0.930 . S
H2125 C2134 0.930 . S
H2126 C2139 0.929 . S
H2127 C2137 0.929 . S
H2128 C2132 0.929 1_554 S
H2129 C2138 0.929 . S
C2130 H2124 0.930 . S
C2130 C2131 1.367 . S
C2130 C2138 1.378 . S
C2131 C2130 1.367 . S
C2131 C2139 1.433 1_556 S
C2132 H2128 0.929 1_556 S
C2132 C2134 1.378 . S
C2132 C2136 1.350 . S
C2133 C2136 1.463 . S
C2133 C2138 1.350 . S
C2133 N2141 1.410 1_556 S
C2134 H2125 0.930 . S
C2134 C2132 1.378 . S
C2134 C2135 1.367 . S
C2135 C2134 1.367 . S
C2135 C2137 1.433 . S
C2136 C2132 1.350 . S
C2136 C2133 1.463 . S
C2136 N2140 1.427 . S
C2137 H2127 0.929 . S
C2137 C2135 1.433 . S
C2137 N2140 1.384 . S
C2138 H2129 0.929 . S
C2138 C2130 1.378 . S
C2138 C2133 1.350 . S
C2139 H2126 0.929 . S
C2139 C2131 1.433 1_554 S
C2139 N2141 1.388 . S
N2140 C2136 1.427 . S
N2140 C2137 1.384 . S
N2141 C2133 1.410 1_554 S
N2141 C2139 1.388 . S
H2142 C2148 0.930 . S
H2143 C2152 0.930 . S
H2144 C2157 0.929 . S
H2145 C2155 0.929 . S
H2146 C2150 0.929 1_554 S
H2147 C2156 0.929 . S
C2148 H2142 0.930 . S
C2148 C2149 1.367 . S
C2148 C2156 1.378 . S
C2149 C2148 1.367 . S
C2149 C2157 1.433 1_556 S
C2150 H2146 0.929 1_556 S
C2150 C2152 1.378 . S
C2150 C2154 1.350 . S
C2151 C2154 1.463 . S
C2151 C2156 1.350 . S
C2151 N2159 1.427 1_556 S
C2152 H2143 0.930 . S
C2152 C2150 1.378 . S
C2152 C2153 1.367 . S
C2153 C2152 1.367 . S
C2153 C2155 1.433 . S
C2154 C2150 1.350 . S
C2154 C2151 1.463 . S
C2154 N2158 1.427 . S
C2155 H2145 0.929 . S
C2155 C2153 1.433 . S
C2155 N2158 1.384 . S
C2156 H2147 0.929 . S
C2156 C2148 1.378 . S
C2156 C2151 1.350 . S
C2157 H2144 0.929 . S
C2157 C2149 1.433 1_554 S
C2157 N2159 1.384 . S
N2158 C2154 1.427 . S
N2158 C2155 1.384 . S
N2159 C2151 1.427 1_554 S
N2159 C2157 1.384 . S
H2160 C2166 0.930 . S
H2161 C2170 0.930 . S
H2162 C2175 0.929 . S
H2163 C2173 0.929 . S
H2164 C2168 0.929 . S
H2165 C2174 0.929 . S
C2166 H2160 0.930 . S
C2166 C2167 1.367 . S
C2166 C2174 1.378 . S
C2167 C2166 1.367 . S
C2167 C2175 1.433 . S
C2168 H2164 0.929 . S
C2168 C2170 1.378 . S
C2168 C2172 1.350 . S
C2169 C2172 1.463 . S
C2169 C2174 1.350 . S
C2169 N2177 1.427 . S
C2170 H2161 0.930 . S
C2170 C2168 1.378 . S
C2170 C2171 1.367 . S
C2171 C2170 1.367 . S
C2171 C2173 1.433 . S
C2172 C2168 1.350 . S
C2172 C2169 1.463 . S
C2172 N2176 1.427 . S
C2173 H2163 0.929 . S
C2173 C2171 1.433 . S
C2173 N2176 1.384 . S
C2174 H2165 0.929 . S
C2174 C2166 1.378 . S
C2174 C2169 1.350 . S
C2175 H2162 0.929 . S
C2175 C2167 1.433 . S
C2175 N2177 1.384 . S
N2176 C2172 1.427 . S
N2176 C2173 1.384 . S
N2177 C2169 1.427 . S
N2177 C2175 1.384 . S
H2178 C2184 0.930 . S
H2179 C2188 0.930 . S
H2180 C2193 0.950 . S
H2181 C2191 0.929 . S
H2182 C2186 0.929 . S
H2183 C2192 0.929 . S
C2184 H2178 0.930 . S
C2184 C2185 1.367 . S
C2184 C2192 1.378 . S
C2185 C2184 1.367 . S
C2185 C2193 1.433 . S
C2186 H2182 0.929 . S
C2186 C2188 1.378 . S
C2186 C2190 1.350 . S
C2187 C2190 1.463 . S
C2187 C2192 1.350 . S
C2187 N2195 1.427 . S
C2188 H2179 0.930 . S
C2188 C2186 1.378 . S
C2188 C2189 1.367 . S
C2189 C2188 1.367 . S
C2189 C2191 1.433 . S
C2190 C2186 1.350 . S
C2190 C2187 1.463 . S
C2190 N2194 1.427 . S
C2191 H2181 0.929 . S
C2191 C2189 1.433 . S
C2191 N2194 1.384 . S
C2192 H2183 0.929 . S
C2192 C2184 1.378 . S
C2192 C2187 1.350 . S
C2193 H2180 0.950 . S
C2193 C2185 1.433 . S
C2193 N2195 1.384 . S
N2194 C2190 1.427 . S
N2194 C2191 1.384 . S
N2195 C2187 1.427 . S
N2195 C2193 1.384 . S
H2196 C2202 0.930 . S
H2197 C2206 0.930 . S
H2198 C2211 0.929 . S
H2199 C2209 0.929 . S
H2200 C2204 0.929 . S
H2201 C2210 0.929 . S
C2202 H2196 0.930 . S
C2202 C2203 1.367 . S
C2202 C2210 1.378 . S
C2203 C2202 1.367 . S
C2203 C2211 1.433 . S
C2204 H2200 0.929 . S
C2204 C2206 1.378 . S
C2204 C2208 1.350 . S
C2205 C2208 1.463 . S
C2205 C2210 1.350 . S
C2205 N2213 1.427 . S
C2206 H2197 0.930 . S
C2206 C2204 1.378 . S
C2206 C2207 1.367 . S
C2207 C2206 1.367 . S
C2207 C2209 1.433 . S
C2208 C2204 1.350 . S
C2208 C2205 1.463 . S
C2208 N2212 1.427 . S
C2209 H2199 0.929 . S
C2209 C2207 1.433 . S
C2209 N2212 1.384 . S
C2210 H2201 0.929 . S
C2210 C2202 1.378 . S
C2210 C2205 1.350 . S
C2211 H2198 0.929 . S
C2211 C2203 1.433 . S
C2211 N2213 1.384 . S
N2212 C2208 1.427 . S
N2212 C2209 1.384 . S
N2213 C2205 1.427 . S
N2213 C2211 1.384 . S
H2214 C2220 0.930 . S
H2215 C2224 0.930 . S
H2216 C2229 0.929 . S
H2217 C2227 0.929 . S
H2218 C2222 0.929 . S
H2219 C2228 0.929 . S
C2220 H2214 0.930 . S
C2220 C2221 1.367 . S
C2220 C2228 1.378 . S
C2221 C2220 1.367 . S
C2221 C2229 1.433 . S
C2222 H2218 0.929 . S
C2222 C2224 1.378 . S
C2222 C2226 1.350 . S
C2223 C2226 1.463 . S
C2223 C2228 1.350 . S
C2223 N2231 1.427 . S
C2224 H2215 0.930 . S
C2224 C2222 1.378 . S
C2224 C2225 1.367 . S
C2225 C2224 1.367 . S
C2225 C2227 1.433 . S
C2226 C2222 1.350 . S
C2226 C2223 1.463 . S
C2226 N2230 1.427 . S
C2227 H2217 0.929 . S
C2227 C2225 1.433 . S
C2227 N2230 1.384 . S
C2228 H2219 0.929 . S
C2228 C2220 1.378 . S
C2228 C2223 1.350 . S
C2229 H2216 0.929 . S
C2229 C2221 1.433 . S
C2229 N2231 1.384 . S
N2230 C2226 1.427 . S
N2230 C2227 1.384 . S
N2231 C2223 1.427 . S
N2231 C2229 1.384 . S
H2232 C2238 0.930 . S
H2233 C2242 0.930 . S
H2234 C2247 0.929 . S
H2235 C2245 0.929 . S
H2236 C2240 0.929 . S
H2237 C2246 0.929 . S
C2238 H2232 0.930 . S
C2238 C2239 1.367 . S
C2238 C2246 1.378 . S
C2239 C2238 1.367 . S
C2239 C2247 1.433 . S
C2240 H2236 0.929 . S
C2240 C2242 1.378 . S
C2240 C2244 1.350 . S
C2241 C2244 1.463 . S
C2241 C2246 1.350 . S
C2241 N2249 1.427 . S
C2242 H2233 0.930 . S
C2242 C2240 1.378 . S
C2242 C2243 1.367 . S
C2243 C2242 1.367 . S
C2243 C2245 1.433 . S
C2244 C2240 1.350 . S
C2244 C2241 1.463 . S
C2244 N2248 1.427 . S
C2245 H2235 0.929 . S
C2245 C2243 1.433 . S
C2245 N2248 1.384 . S
C2246 H2237 0.929 . S
C2246 C2238 1.378 . S
C2246 C2241 1.350 . S
C2247 H2234 0.929 . S
C2247 C2239 1.433 . S
C2247 N2249 1.384 . S
N2248 C2244 1.427 . S
N2248 C2245 1.384 . S
N2249 C2241 1.427 . S
N2249 C2247 1.384 . S
H2250 C2256 0.930 . S
H2251 C2260 0.930 . S
H2252 C2265 0.929 . S
H2253 C2263 0.929 . S
H2254 C2258 0.929 . S
H2255 C2264 0.929 . S
C2256 H2250 0.930 . S
C2256 C2257 1.367 . S
C2256 C2264 1.378 . S
C2257 C2256 1.367 . S
C2257 C2265 1.433 . S
C2258 H2254 0.929 . S
C2258 C2260 1.378 . S
C2258 C2262 1.350 . S
C2259 C2262 1.463 . S
C2259 C2264 1.350 . S
C2259 N2267 1.427 . S
C2260 H2251 0.930 . S
C2260 C2258 1.378 . S
C2260 C2261 1.367 . S
C2261 C2260 1.367 . S
C2261 C2263 1.433 . S
C2262 C2258 1.350 . S
C2262 C2259 1.463 . S
C2262 N2266 1.427 . S
C2263 H2253 0.929 . S
C2263 C2261 1.433 . S
C2263 N2266 1.384 . S
C2264 H2255 0.929 . S
C2264 C2256 1.378 . S
C2264 C2259 1.350 . S
C2265 H2252 0.929 . S
C2265 C2257 1.433 . S
C2265 N2267 1.384 . S
N2266 C2262 1.427 . S
N2266 C2263 1.384 . S
N2267 C2259 1.427 . S
N2267 C2265 1.384 . S
H2268 C2274 0.930 . S
H2269 C2278 0.930 1_655 S
H2270 C2283 0.929 . S
H2271 C2281 0.929 . S
H2272 C2276 0.928 . S
H2273 C2282 0.929 . S
C2274 H2268 0.930 . S
C2274 C2275 1.367 . S
C2274 C2282 1.378 . S
C2275 C2274 1.367 . S
C2275 C2283 1.433 . S
C2276 H2272 0.928 . S
C2276 C2278 1.378 . S
C2276 C2280 1.350 . S
C2277 C2280 1.463 . S
C2277 C2282 1.350 . S
C2277 N2285 1.427 . S
C2278 H2269 0.930 1_455 S
C2278 C2276 1.378 . S
C2278 C2279 1.367 . S
C2279 C2278 1.367 . S
C2279 C2281 1.433 . S
C2280 C2276 1.350 . S
C2280 C2277 1.463 . S
C2280 N2284 1.427 . S
C2281 H2271 0.929 . S
C2281 C2279 1.433 . S
C2281 N2284 1.384 . S
C2282 H2273 0.929 . S
C2282 C2274 1.378 . S
C2282 C2277 1.350 . S
C2283 H2270 0.929 . S
C2283 C2275 1.433 . S
C2283 N2285 1.384 . S
N2284 C2280 1.427 . S
N2284 C2281 1.384 . S
N2285 C2277 1.427 . S
N2285 C2283 1.384 . S
H2286 C2292 0.930 . S
H2287 C2296 0.930 . S
H2288 C2301 0.929 . S
H2289 C2299 0.929 . S
H2290 C2294 0.929 . S
H2291 C2300 0.929 . S
C2292 H2286 0.930 . S
C2292 C2293 1.367 . S
C2292 C2300 1.378 . S
C2293 C2292 1.367 . S
C2293 C2301 1.433 . S
C2294 H2290 0.929 . S
C2294 C2296 1.378 . S
C2294 C2298 1.350 . S
C2295 C2298 1.463 . S
C2295 C2300 1.350 . S
C2295 N2303 1.427 . S
C2296 H2287 0.930 . S
C2296 C2294 1.378 . S
C2296 C2297 1.367 . S
C2297 C2296 1.367 . S
C2297 C2299 1.433 . S
C2298 C2294 1.350 . S
C2298 C2295 1.463 . S
C2298 N2302 1.427 . S
C2299 H2289 0.929 . S
C2299 C2297 1.433 . S
C2299 N2302 1.384 . S
C2300 H2291 0.929 . S
C2300 C2292 1.378 . S
C2300 C2295 1.350 . S
C2301 H2288 0.929 . S
C2301 C2293 1.433 . S
C2301 N2303 1.384 . S
N2302 C2298 1.427 . S
N2302 C2299 1.384 . S
N2303 C2295 1.427 . S
N2303 C2301 1.384 . S
H2304 C2310 0.930 1_545 S
H2305 C2314 0.930 . S
H2306 C2319 0.929 . S
H2307 C2317 0.929 . S
H2308 C2312 0.929 . S
H2309 C2318 0.929 1_545 S
C2310 H2304 0.930 1_565 S
C2310 C2311 1.367 . S
C2310 C2318 1.378 . S
C2311 C2310 1.367 . S
C2311 C2319 1.433 . S
C2312 H2308 0.929 . S
C2312 C2314 1.378 . S
C2312 C2316 1.350 . S
C2313 C2316 1.463 . S
C2313 C2318 1.350 . S
C2313 N2321 1.427 . S
C2314 H2305 0.930 . S
C2314 C2312 1.378 . S
C2314 C2315 1.367 . S
C2315 C2314 1.367 . S
C2315 C2317 1.433 1_565 S
C2316 C2312 1.350 . S
C2316 C2313 1.463 . S
C2316 N2320 1.427 1_565 S
C2317 H2307 0.929 . S
C2317 C2315 1.433 1_545 S
C2317 N2320 1.384 . S
C2318 H2309 0.929 1_565 S
C2318 C2310 1.378 . S
C2318 C2313 1.350 . S
C2319 H2306 0.929 . S
C2319 C2311 1.433 . S
C2319 N2321 1.384 . S
N2320 C2316 1.427 1_545 S
N2320 C2317 1.384 . S
N2321 C2313 1.427 . S
N2321 C2319 1.384 . S
H2322 C2328 0.930 1_545 S
H2323 C2332 0.930 . S
H2324 C2337 0.929 . S
H2325 C2335 0.929 . S
H2326 C2330 0.929 . S
H2327 C2336 0.929 1_545 S
C2328 H2322 0.930 1_565 S
C2328 C2329 1.367 . S
C2328 C2336 1.378 . S
C2329 C2328 1.367 . S
C2329 C2337 1.433 . S
C2330 H2326 0.929 . S
C2330 C2332 1.378 . S
C2330 C2334 1.350 . S
C2331 C2334 1.463 . S
C2331 C2336 1.350 . S
C2331 N2339 1.427 . S
C2332 H2323 0.930 . S
C2332 C2330 1.378 . S
C2332 C2333 1.367 . S
C2333 C2332 1.367 . S
C2333 C2335 1.433 1_565 S
C2334 C2330 1.350 . S
C2334 C2331 1.463 . S
C2334 N2338 1.427 1_565 S
C2335 H2325 0.929 . S
C2335 C2333 1.433 1_545 S
C2335 N2338 1.384 . S
C2336 H2327 0.929 1_565 S
C2336 C2328 1.378 . S
C2336 C2331 1.350 . S
C2337 H2324 0.929 . S
C2337 C2329 1.433 . S
C2337 N2339 1.384 . S
N2338 C2334 1.427 1_545 S
N2338 C2335 1.384 . S
N2339 C2331 1.427 . S
N2339 C2337 1.384 . S
H2340 C2346 0.930 . S
H2341 C2350 0.930 . S
H2342 C2355 0.929 . S
H2343 C2353 0.929 . S
H2344 C2348 0.929 . S
H2345 C2354 0.929 . S
C2346 H2340 0.930 . S
C2346 C2347 1.367 . S
C2346 C2354 1.378 . S
C2347 C2346 1.367 . S
C2347 C2355 1.433 . S
C2348 H2344 0.929 . S
C2348 C2350 1.378 . S
C2348 C2352 1.350 . S
C2349 C2352 1.463 . S
C2349 C2354 1.350 . S
C2349 N2357 1.427 . S
C2350 H2341 0.930 . S
C2350 C2348 1.378 . S
C2350 C2351 1.367 . S
C2351 C2350 1.367 . S
C2351 C2353 1.433 . S
C2352 C2348 1.350 . S
C2352 C2349 1.463 . S
C2352 N2356 1.427 . S
C2353 H2343 0.929 . S
C2353 C2351 1.433 . S
C2353 N2356 1.384 . S
C2354 H2345 0.929 . S
C2354 C2346 1.378 . S
C2354 C2349 1.350 . S
C2355 H2342 0.929 . S
C2355 C2347 1.433 . S
C2355 N2357 1.384 . S
N2356 C2352 1.427 . S
N2356 C2353 1.384 . S
N2357 C2349 1.427 . S
N2357 C2355 1.384 . S
H2358 C2364 0.930 . S
H2359 C2368 0.930 . S
H2360 C2373 0.929 . S
H2361 C2371 0.929 . S
H2362 C2366 0.929 . S
H2363 C2372 0.929 . S
C2364 H2358 0.930 . S
C2364 C2365 1.367 . S
C2364 C2372 1.378 . S
C2365 C2364 1.367 . S
C2365 C2373 1.433 . S
C2366 H2362 0.929 . S
C2366 C2368 1.378 . S
C2366 C2370 1.350 . S
C2367 C2370 1.463 . S
C2367 C2372 1.350 . S
C2367 N2375 1.427 . S
C2368 H2359 0.930 . S
C2368 C2366 1.378 . S
C2368 C2369 1.367 . S
C2369 C2368 1.367 . S
C2369 C2371 1.433 . S
C2370 C2366 1.350 . S
C2370 C2367 1.463 . S
C2370 N2374 1.427 . S
C2371 H2361 0.929 . S
C2371 C2369 1.433 . S
C2371 N2374 1.384 . S
C2372 H2363 0.929 . S
C2372 C2364 1.378 . S
C2372 C2367 1.350 . S
C2373 H2360 0.929 . S
C2373 C2365 1.433 . S
C2373 N2375 1.384 . S
N2374 C2370 1.427 . S
N2374 C2371 1.384 . S
N2375 C2367 1.427 . S
N2375 C2373 1.384 . S
H2376 C2382 0.930 . S
H2377 C2386 0.930 . S
H2378 C2391 0.929 . S
H2379 C2389 0.929 . S
H2380 C2384 0.929 . S
H2381 C2390 0.929 . S
C2382 H2376 0.930 . S
C2382 C2383 1.367 . S
C2382 C2390 1.378 . S
C2383 C2382 1.367 . S
C2383 C2391 1.433 . S
C2384 H2380 0.929 . S
C2384 C2386 1.378 . S
C2384 C2388 1.350 . S
C2385 C2388 1.463 . S
C2385 C2390 1.350 . S
C2385 N2393 1.427 . S
C2386 H2377 0.930 . S
C2386 C2384 1.378 . S
C2386 C2387 1.367 . S
C2387 C2386 1.367 . S
C2387 C2389 1.433 . S
C2388 C2384 1.350 . S
C2388 C2385 1.463 . S
C2388 N2392 1.427 . S
C2389 H2379 0.929 . S
C2389 C2387 1.433 . S
C2389 N2392 1.384 . S
C2390 H2381 0.929 . S
C2390 C2382 1.378 . S
C2390 C2385 1.350 . S
C2391 H2378 0.929 . S
C2391 C2383 1.433 . S
C2391 N2393 1.384 . S
N2392 C2388 1.427 . S
N2392 C2389 1.384 . S
N2393 C2385 1.427 . S
N2393 C2391 1.384 . S
H2394 C2400 0.930 . S
H2395 C2404 0.930 . S
H2396 C2409 0.929 . S
H2397 C2407 0.929 . S
H2398 C2402 0.929 . S
H2399 C2408 0.929 . S
C2400 H2394 0.930 . S
C2400 C2401 1.367 . S
C2400 C2408 1.378 . S
C2401 C2400 1.367 . S
C2401 C2409 1.433 . S
C2402 H2398 0.929 . S
C2402 C2404 1.378 . S
C2402 C2406 1.350 . S
C2403 C2406 1.463 . S
C2403 C2408 1.350 . S
C2403 N2411 1.427 . S
C2404 H2395 0.930 . S
C2404 C2402 1.378 . S
C2404 C2405 1.367 . S
C2405 C2404 1.367 . S
C2405 C2407 1.433 . S
C2406 C2402 1.350 . S
C2406 C2403 1.463 . S
C2406 N2410 1.427 . S
C2407 H2397 0.929 . S
C2407 C2405 1.433 . S
C2407 N2410 1.384 . S
C2408 H2399 0.929 . S
C2408 C2400 1.378 . S
C2408 C2403 1.350 . S
C2409 H2396 0.929 . S
C2409 C2401 1.433 . S
C2409 N2411 1.384 . S
N2410 C2406 1.427 . S
N2410 C2407 1.384 . S
N2411 C2403 1.427 . S
N2411 C2409 1.384 . S
H2412 C2418 0.930 . S
H2413 C2422 0.930 . S
H2414 C2427 0.929 . S
H2415 C2425 0.929 . S
H2416 C2420 0.929 . S
H2417 C2426 0.929 . S
C2418 H2412 0.930 . S
C2418 C2419 1.367 . S
C2418 C2426 1.378 . S
C2419 C2418 1.367 . S
C2419 C2427 1.433 . S
C2420 H2416 0.929 . S
C2420 C2422 1.378 . S
C2420 C2424 1.350 . S
C2421 C2424 1.463 . S
C2421 C2426 1.350 . S
C2421 N2429 1.427 . S
C2422 H2413 0.930 . S
C2422 C2420 1.378 . S
C2422 C2423 1.367 . S
C2423 C2422 1.367 . S
C2423 C2425 1.433 . S
C2424 C2420 1.350 . S
C2424 C2421 1.463 . S
C2424 N2428 1.427 . S
C2425 H2415 0.929 . S
C2425 C2423 1.433 . S
C2425 N2428 1.384 . S
C2426 H2417 0.929 . S
C2426 C2418 1.378 . S
C2426 C2421 1.350 . S
C2427 H2414 0.929 . S
C2427 C2419 1.433 . S
C2427 N2429 1.384 . S
N2428 C2424 1.427 . S
N2428 C2425 1.384 . S
N2429 C2421 1.427 . S
N2429 C2427 1.384 . S
H2430 C2436 0.930 . S
H2431 C2440 0.930 . S
H2432 C2445 0.929 . S
H2433 C2443 0.952 . S
H2434 C2438 0.929 . S
H2435 C2444 0.929 . S
C2436 H2430 0.930 . S
C2436 C2437 1.367 . S
C2436 C2444 1.378 . S
C2437 C2436 1.367 . S
C2437 C2445 1.433 . S
C2438 H2434 0.929 . S
C2438 C2440 1.378 . S
C2438 C2442 1.350 . S
C2439 C2442 1.463 . S
C2439 C2444 1.350 . S
C2439 N2447 1.427 . S
C2440 H2431 0.930 . S
C2440 C2438 1.378 . S
C2440 C2441 1.367 . S
C2441 C2440 1.367 . S
C2441 C2443 1.427 1_545 S
C2442 C2438 1.350 . S
C2442 C2439 1.463 . S
C2442 N2446 1.427 . S
C2443 H2433 0.952 . S
C2443 C2441 1.427 1_565 S
C2443 N2446 1.366 1_565 S
C2444 H2435 0.929 . S
C2444 C2436 1.378 . S
C2444 C2439 1.350 . S
C2445 H2432 0.929 . S
C2445 C2437 1.433 . S
C2445 N2447 1.384 . S
N2446 C2442 1.427 . S
N2446 C2443 1.366 1_545 S
N2447 C2439 1.427 . S
N2447 C2445 1.384 . S
H2448 C2454 0.930 . S
H2449 C2458 0.930 . S
H2450 C2463 0.929 . S
H2451 C2461 0.929 . S
H2452 C2456 0.929 . S
H2453 C2462 0.929 . S
C2454 H2448 0.930 . S
C2454 C2455 1.367 . S
C2454 C2462 1.378 . S
C2455 C2454 1.367 . S
C2455 C2463 1.433 . S
C2456 H2452 0.929 . S
C2456 C2458 1.378 . S
C2456 C2460 1.350 . S
C2457 C2460 1.463 . S
C2457 C2462 1.350 . S
C2457 N2465 1.427 . S
C2458 H2449 0.930 . S
C2458 C2456 1.378 . S
C2458 C2459 1.367 . S
C2459 C2458 1.367 . S
C2459 C2461 1.433 . S
C2460 C2456 1.350 . S
C2460 C2457 1.463 . S
C2460 N2464 1.427 . S
C2461 H2451 0.929 . S
C2461 C2459 1.433 . S
C2461 N2464 1.384 . S
C2462 H2453 0.929 . S
C2462 C2454 1.378 . S
C2462 C2457 1.350 . S
C2463 H2450 0.929 . S
C2463 C2455 1.433 . S
C2463 N2465 1.384 . S
N2464 C2460 1.427 . S
N2464 C2461 1.384 . S
N2465 C2457 1.427 . S
N2465 C2463 1.384 . S
H2466 C2472 0.930 . S
H2467 C2476 0.930 . S
H2468 C2481 0.929 . S
H2469 C2479 0.929 . S
H2470 C2474 0.929 . S
H2471 C2480 0.929 . S
C2472 H2466 0.930 . S
C2472 C2473 1.367 . S
C2472 C2480 1.378 . S
C2473 C2472 1.367 . S
C2473 C2481 1.433 . S
C2474 H2470 0.929 . S
C2474 C2476 1.378 . S
C2474 C2478 1.350 . S
C2475 C2478 1.463 . S
C2475 C2480 1.350 . S
C2475 N2483 1.427 . S
C2476 H2467 0.930 . S
C2476 C2474 1.378 . S
C2476 C2477 1.367 . S
C2477 C2476 1.367 . S
C2477 C2479 1.433 . S
C2478 C2474 1.350 . S
C2478 C2475 1.463 . S
C2478 N2482 1.427 . S
C2479 H2469 0.929 . S
C2479 C2477 1.433 . S
C2479 N2482 1.384 . S
C2480 H2471 0.929 . S
C2480 C2472 1.378 . S
C2480 C2475 1.350 . S
C2481 H2468 0.929 . S
C2481 C2473 1.433 . S
C2481 N2483 1.384 . S
N2482 C2478 1.427 . S
N2482 C2479 1.384 . S
N2483 C2475 1.427 . S
N2483 C2481 1.384 . S
H2484 C2490 0.930 . S
H2485 C2494 0.930 . S
H2486 C2499 0.929 . S
H2487 C2497 0.929 . S
H2488 C2492 0.929 . S
H2489 C2498 0.929 . S
C2490 H2484 0.930 . S
C2490 C2491 1.367 . S
C2490 C2498 1.378 . S
C2491 C2490 1.367 . S
C2491 C2499 1.433 . S
C2492 H2488 0.929 . S
C2492 C2494 1.378 . S
C2492 C2496 1.350 . S
C2493 C2496 1.463 . S
C2493 C2498 1.350 . S
C2493 N2501 1.427 . S
C2494 H2485 0.930 . S
C2494 C2492 1.378 . S
C2494 C2495 1.367 . S
C2495 C2494 1.367 . S
C2495 C2497 1.433 . S
C2496 C2492 1.350 . S
C2496 C2493 1.463 . S
C2496 N2500 1.427 . S
C2497 H2487 0.929 . S
C2497 C2495 1.433 . S
C2497 N2500 1.384 . S
C2498 H2489 0.929 . S
C2498 C2490 1.378 . S
C2498 C2493 1.350 . S
C2499 H2486 0.929 . S
C2499 C2491 1.433 . S
C2499 N2501 1.384 . S
N2500 C2496 1.427 . S
N2500 C2497 1.384 . S
N2501 C2493 1.427 . S
N2501 C2499 1.384 . S
H2502 C2508 0.930 . S
H2503 C2512 0.930 . S
H2504 C2517 0.929 . S
H2505 C2515 0.929 . S
H2506 C2510 0.929 . S
H2507 C2516 0.929 . S
C2508 H2502 0.930 . S
C2508 C2509 1.367 . S
C2508 C2516 1.378 . S
C2509 C2508 1.367 . S
C2509 C2517 1.433 . S
C2510 H2506 0.929 . S
C2510 C2512 1.378 . S
C2510 C2514 1.350 . S
C2511 C2514 1.463 . S
C2511 C2516 1.350 . S
C2511 N2519 1.427 . S
C2512 H2503 0.930 . S
C2512 C2510 1.378 . S
C2512 C2513 1.367 . S
C2513 C2512 1.367 . S
C2513 C2515 1.433 . S
C2514 C2510 1.350 . S
C2514 C2511 1.463 . S
C2514 N2518 1.427 . S
C2515 H2505 0.929 . S
C2515 C2513 1.433 . S
C2515 N2518 1.384 . S
C2516 H2507 0.929 . S
C2516 C2508 1.378 . S
C2516 C2511 1.350 . S
C2517 H2504 0.929 . S
C2517 C2509 1.433 . S
C2517 N2519 1.384 . S
N2518 C2514 1.427 . S
N2518 C2515 1.384 . S
N2519 C2511 1.427 . S
N2519 C2517 1.384 . S
H2520 C2526 0.930 . S
H2521 C2530 0.930 . S
H2522 C2535 0.929 . S
H2523 C2533 0.929 . S
H2524 C2528 0.929 . S
H2525 C2534 0.929 . S
C2526 H2520 0.930 . S
C2526 C2527 1.367 . S
C2526 C2534 1.378 . S
C2527 C2526 1.367 . S
C2527 C2535 1.433 . S
C2528 H2524 0.929 . S
C2528 C2530 1.378 . S
C2528 C2532 1.350 . S
C2529 C2532 1.463 . S
C2529 C2534 1.350 . S
C2529 N2537 1.427 . S
C2530 H2521 0.930 . S
C2530 C2528 1.378 . S
C2530 C2531 1.367 . S
C2531 C2530 1.367 . S
C2531 C2533 1.433 . S
C2532 C2528 1.350 . S
C2532 C2529 1.463 . S
C2532 N2536 1.427 . S
C2533 H2523 0.929 . S
C2533 C2531 1.433 . S
C2533 N2536 1.384 . S
C2534 H2525 0.929 . S
C2534 C2526 1.378 . S
C2534 C2529 1.350 . S
C2535 H2522 0.929 . S
C2535 C2527 1.433 . S
C2535 N2537 1.384 . S
N2536 C2532 1.427 . S
N2536 C2533 1.384 . S
N2537 C2529 1.427 . S
N2537 C2535 1.384 . S
H2538 C2544 0.930 . S
H2539 C2548 0.930 . S
H2540 C2553 0.929 . S
H2541 C2551 0.929 . S
H2542 C2546 0.929 . S
H2543 C2552 0.929 . S
C2544 H2538 0.930 . S
C2544 C2545 1.367 . S
C2544 C2552 1.378 . S
C2545 C2544 1.367 . S
C2545 C2553 1.433 . S
C2546 H2542 0.929 . S
C2546 C2548 1.378 . S
C2546 C2550 1.350 . S
C2547 C2550 1.463 . S
C2547 C2552 1.350 . S
C2547 N2555 1.427 . S
C2548 H2539 0.930 . S
C2548 C2546 1.378 . S
C2548 C2549 1.367 . S
C2549 C2548 1.367 . S
C2549 C2551 1.433 . S
C2550 C2546 1.350 . S
C2550 C2547 1.463 . S
C2550 N2554 1.427 . S
C2551 H2541 0.929 . S
C2551 C2549 1.433 . S
C2551 N2554 1.384 . S
C2552 H2543 0.929 . S
C2552 C2544 1.378 . S
C2552 C2547 1.350 . S
C2553 H2540 0.929 . S
C2553 C2545 1.433 . S
C2553 N2555 1.384 . S
N2554 C2550 1.427 . S
N2554 C2551 1.384 . S
N2555 C2547 1.427 . S
N2555 C2553 1.384 . S
H2556 C2562 0.930 . S
H2557 C2566 0.930 . S
H2558 C2571 0.929 . S
H2559 C2569 0.929 . S
H2560 C2564 0.929 . S
H2561 C2570 0.929 . S
C2562 H2556 0.930 . S
C2562 C2563 1.367 . S
C2562 C2570 1.378 . S
C2563 C2562 1.367 . S
C2563 C2571 1.433 . S
C2564 H2560 0.929 . S
C2564 C2566 1.378 . S
C2564 C2568 1.350 . S
C2565 C2568 1.463 . S
C2565 C2570 1.350 . S
C2565 N2573 1.427 . S
C2566 H2557 0.930 . S
C2566 C2564 1.378 . S
C2566 C2567 1.367 . S
C2567 C2566 1.367 . S
C2567 C2569 1.433 . S
C2568 C2564 1.350 . S
C2568 C2565 1.463 . S
C2568 N2572 1.427 . S
C2569 H2559 0.929 . S
C2569 C2567 1.433 . S
C2569 N2572 1.384 . S
C2570 H2561 0.929 . S
C2570 C2562 1.378 . S
C2570 C2565 1.350 . S
C2571 H2558 0.929 . S
C2571 C2563 1.433 . S
C2571 N2573 1.384 . S
N2572 C2568 1.427 . S
N2572 C2569 1.384 . S
N2573 C2565 1.427 . S
N2573 C2571 1.384 . S
H2574 C2580 0.930 . S
H2575 C2584 0.930 . S
H2576 C2589 0.929 . S
H2577 C2587 0.929 . S
H2578 C2582 0.929 . S
H2579 C2588 0.929 . S
C2580 H2574 0.930 . S
C2580 C2581 1.367 . S
C2580 C2588 1.378 . S
C2581 C2580 1.367 . S
C2581 C2589 1.433 . S
C2582 H2578 0.929 . S
C2582 C2584 1.378 . S
C2582 C2586 1.350 . S
C2583 C2586 1.463 . S
C2583 C2588 1.350 . S
C2583 N2591 1.427 . S
C2584 H2575 0.930 . S
C2584 C2582 1.378 . S
C2584 C2585 1.367 . S
C2585 C2584 1.367 . S
C2585 C2587 1.433 . S
C2586 C2582 1.350 . S
C2586 C2583 1.463 . S
C2586 N2590 1.427 . S
C2587 H2577 0.929 . S
C2587 C2585 1.433 . S
C2587 N2590 1.384 . S
C2588 H2579 0.929 . S
C2588 C2580 1.378 . S
C2588 C2583 1.350 . S
C2589 H2576 0.929 . S
C2589 C2581 1.433 . S
C2589 N2591 1.384 . S
N2590 C2586 1.427 . S
N2590 C2587 1.384 . S
N2591 C2583 1.427 . S
N2591 C2589 1.384 . S
H2592 C2598 0.930 . S
H2593 C2602 0.930 . S
H2594 C2607 0.929 . S
H2595 C2605 0.879 1_455 S
H2596 C2600 0.929 . S
H2597 C2606 0.929 . S
C2598 H2592 0.930 . S
C2598 C2599 1.367 . S
C2598 C2606 1.378 . S
C2599 C2598 1.367 . S
C2599 C2607 1.433 . S
C2600 H2596 0.929 . S
C2600 C2602 1.378 . S
C2600 C2604 1.350 . S
C2601 C2604 1.463 . S
C2601 C2606 1.350 . S
C2601 N2609 1.427 . S
C2602 H2593 0.930 . S
C2602 C2600 1.378 . S
C2602 C2603 1.367 . S
C2603 C2602 1.367 . S
C2603 C2605 1.433 . S
C2604 C2600 1.350 . S
C2604 C2601 1.463 . S
C2604 N2608 1.427 . S
C2605 H2595 0.879 1_655 S
C2605 C2603 1.433 . S
C2605 N2608 1.384 . S
C2606 H2597 0.929 . S
C2606 C2598 1.378 . S
C2606 C2601 1.350 . S
C2607 H2594 0.929 . S
C2607 C2599 1.433 . S
C2607 N2609 1.384 . S
N2608 C2604 1.427 . S
N2608 C2605 1.384 . S
N2609 C2601 1.427 . S
N2609 C2607 1.384 . S
H2610 C2616 0.930 . S
H2611 C2620 0.930 . S
H2612 C2625 0.929 . S
H2613 C2623 0.929 . S
H2614 C2618 0.929 . S
H2615 C2624 0.929 . S
C2616 H2610 0.930 . S
C2616 C2617 1.367 . S
C2616 C2624 1.378 . S
C2617 C2616 1.367 . S
C2617 C2625 1.433 . S
C2618 H2614 0.929 . S
C2618 C2620 1.378 . S
C2618 C2622 1.350 . S
C2619 C2622 1.463 . S
C2619 C2624 1.350 . S
C2619 N2627 1.427 . S
C2620 H2611 0.930 . S
C2620 C2618 1.378 . S
C2620 C2621 1.367 . S
C2621 C2620 1.367 . S
C2621 C2623 1.433 . S
C2622 C2618 1.350 . S
C2622 C2619 1.463 . S
C2622 N2626 1.427 . S
C2623 H2613 0.929 . S
C2623 C2621 1.433 . S
C2623 N2626 1.384 . S
C2624 H2615 0.929 . S
C2624 C2616 1.378 . S
C2624 C2619 1.350 . S
C2625 H2612 0.929 . S
C2625 C2617 1.433 . S
C2625 N2627 1.384 . S
N2626 C2622 1.427 . S
N2626 C2623 1.384 . S
N2627 C2619 1.427 . S
N2627 C2625 1.384 . S
H2628 C2634 0.930 . S
H2629 C2638 0.930 . S
H2630 C2643 0.929 . S
H2631 C2641 0.930 1_565 S
H2632 C2636 0.929 . S
H2633 C2642 0.929 . S
C2634 H2628 0.930 . S
C2634 C2635 1.367 . S
C2634 C2642 1.378 . S
C2635 C2634 1.367 . S
C2635 C2643 1.433 . S
C2636 H2632 0.929 . S
C2636 C2638 1.378 . S
C2636 C2640 1.350 . S
C2637 C2640 1.463 . S
C2637 C2642 1.350 . S
C2637 N2645 1.427 . S
C2638 H2629 0.930 . S
C2638 C2636 1.378 . S
C2638 C2639 1.367 . S
C2639 C2638 1.367 . S
C2639 C2641 1.432 . S
C2640 C2636 1.350 . S
C2640 C2637 1.463 . S
C2640 N2644 1.427 . S
C2641 H2631 0.930 1_545 S
C2641 C2639 1.432 . S
C2641 N2644 1.384 . S
C2642 H2633 0.929 . S
C2642 C2634 1.378 . S
C2642 C2637 1.350 . S
C2643 H2630 0.929 . S
C2643 C2635 1.433 . S
C2643 N2645 1.384 . S
N2644 C2640 1.427 . S
N2644 C2641 1.384 . S
N2645 C2637 1.427 . S
N2645 C2643 1.384 . S
C1357 C8 1.544 . S
C1361 C839 1.546 . S
C1375 C18 1.550 . S
C1379 C883 1.547 . S
C1397 C963 1.539 . S
C1393 C31 1.540 . S
C1411 C34 1.571 . S
C1415 C1007 1.580 . S
C1429 C5 1.552 . S
C1433 C1087 1.553 . S
C1447 C21 1.572 . S
C1451 C1149 1.562 . S
C1465 C47 1.531 . S
C1469 C1069 1.526 . S
C1487 C1131 1.528 . S
C1483 C57 1.536 . S
C1505 C1025 1.573 . S
C1501 C70 1.574 . S
C1519 C73 1.541 . S
C1523 C945 1.546 . S
C1541 C821 1.549 . S
C1537 C44 1.559 . S
C1555 C60 1.568 . S
C1559 C901 1.577 . S
C1573 C86 1.604 . S
C1577 C1211 1.585 . S
C1591 C96 1.562 . S
C1595 C1255 1.553 . S
C1613 C1335 1.593 . S
C1609 C109 1.643 . S
C1627 C112 1.651 . S
C1631 C281 1.627 . S
C1645 C83 1.639 . S
C1649 C325 1.623 . S
C1663 C99 1.585 . S
C1667 C405 1.574 . S
C1681 C125 1.571 . S
C1685 C343 1.582 . S
C1699 C135 1.570 . S
C1703 C387 1.550 . S
C1721 C263 1.598 . S
C1717 C148 1.631 . S
C1739 C1317 1.638 . S
C1735 C151 1.674 . S
C1757 C1193 1.581 . S
C1753 C122 1.610 . S
C1775 C1273 1.617 . S
C1771 C138 1.606 . S
C1789 C164 1.577 . S
C1793 C467 1.569 . S
C1807 C174 1.556 . S
C1811 C529 1.553 . S
C1825 C187 1.630 . S
C1829 C573 1.621 . S
C1843 C190 1.668 . S
C1847 C635 1.676 . S
C1865 C697 1.623 . S
C1861 C161 1.631 . S
C1883 C777 1.592 . S
C1879 C177 1.611 . S
C1901 C715 1.627 . S
C1897 C203 1.617 . S
C1919 C759 1.558 . S
C1915 C213 1.569 . S
C1933 C226 1.627 . S
C1937 C653 1.612 . S
C1955 C591 1.648 . S
C1951 C229 1.640 . S
C1969 C200 1.626 . S
C1973 C449 1.586 . S
C1991 C511 1.581 . S
C1987 C216 1.595 . S
C2009 C287 1.364 . S
C2005 C0 1.382 . S
C2023 C23 1.403 . S
C2027 C331 1.339 . S
C2045 C411 1.328 . S
C2041 C36 1.416 . S
C2063 C473 1.371 . S
C2059 C26 1.405 1_556 S
C2081 C535 1.318 . S
C2077 C10 1.400 1_556 S
C2099 C579 1.365 . S
C2095 C13 1.381 1_556 S
C2113 C39 1.387 . S
C2117 C597 1.379 . S
C2131 C62 1.395 . S
C2135 C455 1.315 . S
C2149 C75 1.384 1_556 S
C2153 C517 1.310 . S
C2167 C65 1.443 . S
C2171 C349 1.436 . S
C2189 C393 1.310 . S
C2185 C49 1.391 . S
C2203 C52 1.383 . S
C2207 C269 1.349 . S
C2225 C641 1.369 . S
C2221 C78 1.370 . S
C2239 C101 1.387 1_545 S
C2243 C703 1.384 . S
C2257 C114 1.449 1_655 S
C2261 C783 1.363 . S
C2279 C845 1.300 . S
C2275 C104 1.338 . S
C2293 C88 1.392 . S
C2297 C889 1.326 . S
C2311 C91 1.245 . S
C2315 C969 1.219 . S
C2329 C117 1.271 . S
C2333 C951 1.238 . S
C2347 C140 1.330 . S
C2351 C827 1.270 . S
C2369 C907 1.349 . S
C2365 C153 1.408 . S
C2383 C143 1.402 . S
C2387 C721 1.400 . S
C2401 C127 1.445 1_545 S
C2405 C765 1.351 . S
C2423 C659 1.392 . S
C2419 C130 1.414 . S
C2441 C1013 1.278 . S
C2437 C156 1.295 . S
C2455 C179 1.313 . S
C2459 C1093 1.239 . S
C2473 C192 1.401 . S
C2477 C1155 1.333 . S
C2495 C1217 1.348 . S
C2491 C182 1.387 . S
C2513 C1261 1.389 . S
C2509 C166 1.459 1_565 S
C2527 C169 1.406 . S
C2531 C1341 1.380 . S
C2545 C195 1.387 . S
C2549 C1323 1.369 . S
C2563 C218 1.444 1_565 S
C2567 C1199 1.364 . S
C2585 C1279 1.372 . S
C2581 C231 1.435 1_455 S
C2603 C1075 1.278 . S
C2599 C221 1.311 . S
C2621 C1137 1.303 . S
C2617 C205 1.395 . S
C2635 C208 1.277 . S
C2639 C1031 1.256 . S
