# Generated by pormake.
# Topology anh, (6,3)-cn, num edge types: 1
# Building blocks:
#     Node 0, Type 0, BuildingBlock: BETDEL_clean_sbu_0, # of connection points: 6
#     Node 1, Type 0, BuildingBlock: BETDEL_clean_sbu_0, # of connection points: 6
#     Node 2, Type 0, BuildingBlock: BETDEL_clean_sbu_0, # of connection points: 6
#     Node 3, Type 1, BuildingBlock: MIDCAF_clean_linker_0, # of connection points: 3
#     Node 4, Type 1, BuildingBlock: MIDCAF_clean_linker_0, # of connection points: 3
#     Node 5, Type 1, BuildingBlock: MIDCAF_clean_linker_0, # of connection points: 3
#     Node 6, Type 1, BuildingBlock: MIDCAF_clean_linker_0, # of connection points: 3
#     Node 7, Type 1, BuildingBlock: MIDCAF_clean_linker_0, # of connection points: 3
#     Node 8, Type 1, BuildingBlock: MIDCAF_clean_linker_0, # of connection points: 3
#     Edge 9, Type (0, 1), BuildingBlock: KIFKEQ_clean_linker_1, # of connection points: 2
#     Edge 10, Type (0, 1), BuildingBlock: KIFKEQ_clean_linker_1, # of connection points: 2
#     Edge 11, Type (0, 1), BuildingBlock: KIFKEQ_clean_linker_1, # of connection points: 2
#     Edge 12, Type (0, 1), BuildingBlock: KIFKEQ_clean_linker_1, # of connection points: 2
#     Edge 13, Type (0, 1), BuildingBlock: KIFKEQ_clean_linker_1, # of connection points: 2
#     Edge 14, Type (0, 1), BuildingBlock: KIFKEQ_clean_linker_1, # of connection points: 2
#     Edge 15, Type (0, 1), BuildingBlock: KIFKEQ_clean_linker_1, # of connection points: 2
#     Edge 16, Type (0, 1), BuildingBlock: KIFKEQ_clean_linker_1, # of connection points: 2
#     Edge 17, Type (0, 1), BuildingBlock: KIFKEQ_clean_linker_1, # of connection points: 2
#     Edge 18, Type (0, 1), BuildingBlock: KIFKEQ_clean_linker_1, # of connection points: 2
#     Edge 19, Type (0, 1), BuildingBlock: KIFKEQ_clean_linker_1, # of connection points: 2
#     Edge 20, Type (0, 1), BuildingBlock: KIFKEQ_clean_linker_1, # of connection points: 2
#     Edge 21, Type (0, 1), BuildingBlock: KIFKEQ_clean_linker_1, # of connection points: 2
#     Edge 22, Type (0, 1), BuildingBlock: KIFKEQ_clean_linker_1, # of connection points: 2
#     Edge 23, Type (0, 1), BuildingBlock: KIFKEQ_clean_linker_1, # of connection points: 2
#     Edge 24, Type (0, 1), BuildingBlock: KIFKEQ_clean_linker_1, # of connection points: 2
#     Edge 25, Type (0, 1), BuildingBlock: KIFKEQ_clean_linker_1, # of connection points: 2
#     Edge 26, Type (0, 1), BuildingBlock: KIFKEQ_clean_linker_1, # of connection points: 2
# Relax obj value: 0.141
# Max RMSD: 0.166
# Mean RMSD: 0.133
data_MOF--net-anh--node1-BETDEL_clean_sbu_0--node2-MIDCAF_clean_linker_0--edge1-KIFKEQ_clean_linker_1
_symmetry_space_group_name_H-M    P1
_symmetry_Int_Tables_number       1
_symmetry_cell_setting            triclinic
loop_
_symmetry_equiv_pos_as_xyz
'x, y, z'
_cell_length_a     36.066714
_cell_length_b     36.075255
_cell_length_c     65.378915
_cell_angle_alpha  89.903349
_cell_angle_beta   90.064105
_cell_angle_gamma 120.0028
loop_
_atom_site_label
_atom_site_type_symbol
_atom_site_fract_x
_atom_site_fract_y
_atom_site_fract_z
_atom_type_partial_charge
Dy0 Dy 0.03759 0.47846 0.1629 0.0
C1 C 0.93537 0.55298 0.18998 0.0
C2 C 0.0946 0.45339 0.15231 0.0
Dy3 Dy 0.98637 0.52784 0.17105 0.0
O4 O 0.08965 0.46434 0.17053 0.0
O5 O 0.06786 0.4556 0.13964 0.0
O6 O 1.01389 0.44557 0.1931 0.0
O7 O 0.02428 0.5079 0.18884 0.0
C8 C 1.01018 0.47659 0.20099 0.0
C9 C 0.99581 0.52042 0.13053 0.0
O10 O 0.05353 0.58157 0.17614 0.0
O11 O 0.08922 0.54835 0.16225 0.0
O12 O 0.96375 0.57501 0.17604 0.0
O13 O 0.93584 0.51786 0.19383 0.0
O14 O 0.97603 0.53924 0.13793 0.0
O15 O 1.00811 0.50704 0.14531 0.0
O16 O 0.97077 0.42499 0.15644 0.0
O17 O 0.93569 0.45803 0.17115 0.0
C18 C 0.08906 0.58268 0.16966 0.0
C19 C 0.9355 0.42385 0.16338 0.0
Dy20 Dy 0.49707 0.03995 0.49714 0.0
C21 C 0.67475 0.1451 0.52224 0.0
C22 C 0.41403 0.98281 0.4883 0.0
Dy23 Dy 0.5983 0.09282 0.50384 0.0
O24 O 0.43195 0.98778 0.50606 0.0
O25 O 0.44156 1.00936 0.47508 0.0
O26 O 0.49052 0.06549 0.52744 0.0
O27 O 0.5418 0.0546 0.52227 0.0
C28 C 0.52571 0.06913 0.53473 0.0
C29 C 0.57867 0.08232 0.46363 0.0
O30 O 0.58599 0.02612 0.50901 0.0
O31 O 0.51654 0.98915 0.49563 0.0
O32 O 0.66884 0.11779 0.50782 0.0
O33 O 0.63862 0.14281 0.52684 0.0
O34 O 0.61778 0.1029 0.47044 0.0
O35 O 0.55397 0.06976 0.47876 0.0
O36 O 0.50929 0.1062 0.49012 0.0
O37 O 0.57811 0.14274 0.5041 0.0
C38 C 0.55177 0.99019 0.50272 0.0
C39 C 0.5434 0.14201 0.49662 0.0
Dy40 Dy 0.59951 0.59573 0.82744 0.0
C41 C 0.5342 0.42125 0.84993 0.0
C42 C 0.6234 0.67689 0.81513 0.0
Dy43 Dy 0.55563 0.5007 0.83554 0.0
O44 O 0.61998 0.66422 0.83393 0.0
O45 O 0.61417 0.64518 0.8028 0.0
O46 O 0.63529 0.60818 0.85683 0.0
O47 O 0.57238 0.55585 0.85465 0.0
C48 C 0.60514 0.57456 0.86589 0.0
C49 C 0.55251 0.52186 0.79649 0.0
O50 O 0.5022 0.51165 0.84499 0.0
O51 O 0.52892 0.5758 0.82752 0.0
O52 O 0.51815 0.42881 0.83374 0.0
O53 O 0.56139 0.45718 0.85845 0.0
O54 O 0.52222 0.48792 0.80527 0.0
O55 O 0.58411 0.5406 0.80837 0.0
O56 O 0.65667 0.58796 0.82157 0.0
O57 O 0.62535 0.51872 0.83438 0.0
C58 C 0.49715 0.5429 0.8373 0.0
C59 C 0.65936 0.55419 0.82762 0.0
C60 C 0.39046 0.85676 0.21398 0.0
C61 C 0.37273 0.85517 0.19463 0.0
C62 C 0.39306 0.89178 0.18203 0.0
C63 C 0.42986 0.92915 0.18879 0.0
H64 H 0.60089 0.03912 0.18593 0.0
H65 H 0.66668 0.10187 0.17344 0.0
H66 H 0.6284 0.1848 0.20271 0.0
H67 H 0.56441 0.12253 0.21572 0.0
H68 H 0.58174 0.07441 0.26907 0.0
H69 H 0.58712 0.08231 0.30605 0.0
H70 H 0.46164 0.97087 0.3126 0.0
H71 H 0.45595 0.96272 0.27538 0.0
H72 H 0.4386 0.89396 0.23599 0.0
H73 H 0.37557 0.82952 0.22422 0.0
H74 H 0.38041 0.89157 0.16697 0.0
H75 H 0.44427 0.95701 0.17892 0.0
N76 N 0.51248 1.00323 0.205 0.0
N77 N 0.5452 0.04421 0.23445 0.0
N78 N 0.48465 0.97648 0.23776 0.0
C79 C 0.54404 0.03991 0.2138 0.0
C80 C 0.51586 0.01272 0.24657 0.0
C81 C 0.48243 0.97127 0.21709 0.0
C82 C 0.57755 0.076 0.20176 0.0
C83 C 0.60621 0.07086 0.18916 0.0
C84 C 0.64401 0.10689 0.1821 0.0
C85 C 0.65366 0.14869 0.18745 0.0
C86 C 0.62306 0.15335 0.19879 0.0
C87 C 0.58592 0.1176 0.20602 0.0
C88 C 0.51844 0.01781 0.26916 0.0
C89 C 0.55513 0.05155 0.27829 0.0
C90 C 0.55837 0.05599 0.29953 0.0
C91 C 0.52491 0.02706 0.31223 0.0
C92 C 0.48785 0.99376 0.30318 0.0
C93 C 0.48475 0.989 0.28187 0.0
C94 C 0.44662 0.93092 0.20844 0.0
C95 C 0.42663 0.894 0.22079 0.0
C96 C 0.58097 0.44921 0.5303 0.0
C97 C 0.54848 0.42326 0.51643 0.0
C98 C 0.51879 0.43589 0.51052 0.0
C99 C 0.52129 0.47329 0.51861 0.0
H100 H 0.51054 0.60565 0.51314 0.0
H101 H 0.51024 0.67031 0.50101 0.0
H102 H 0.60123 0.74458 0.54806 0.0
H103 H 0.60102 0.68076 0.56021 0.0
H104 H 0.55321 0.61915 0.60506 0.0
H105 H 0.55403 0.61473 0.64222 0.0
H106 H 0.56781 0.50277 0.63756 0.0
H107 H 0.56592 0.50645 0.60047 0.0
H108 H 0.60737 0.504 0.5499 0.0
H109 H 0.60406 0.4403 0.53538 0.0
H110 H 0.49343 0.41661 0.49983 0.0
H111 H 0.49741 0.48168 0.51429 0.0
N112 N 0.55089 0.56634 0.53535 0.0
N113 N 0.55644 0.59778 0.5676 0.0
N114 N 0.55536 0.53268 0.56542 0.0
C115 C 0.55354 0.59922 0.5469 0.0
C116 C 0.55697 0.56455 0.57701 0.0
C117 C 0.5522 0.53304 0.54472 0.0
C118 C 0.55573 0.63802 0.53765 0.0
C119 C 0.53081 0.63595 0.52065 0.0
C120 C 0.53041 0.67286 0.51383 0.0
C121 C 0.55579 0.71265 0.52356 0.0
C122 C 0.58163 0.71466 0.54009 0.0
C123 C 0.58132 0.67793 0.54712 0.0
C124 C 0.55924 0.56301 0.59968 0.0
C125 C 0.55654 0.59362 0.61192 0.0
C126 C 0.55726 0.59125 0.63328 0.0
C127 C 0.5608 0.55829 0.64293 0.0
C128 C 0.56426 0.52815 0.63067 0.0
C129 C 0.56341 0.53042 0.60934 0.0
C130 C 0.55289 0.49804 0.5331 0.0
C131 C 0.58286 0.48574 0.53865 0.0
C132 C 0.96151 0.58594 0.87095 0.0
C133 C 0.94346 0.56649 0.85212 0.0
C134 C 0.9618 0.5453 0.84168 0.0
C135 C 0.99632 0.54257 0.85022 0.0
H136 H 0.15488 0.58268 0.85045 0.0
H137 H 0.22084 0.58331 0.84043 0.0
H138 H 0.19394 0.48436 0.88497 0.0
H139 H 0.12979 0.48511 0.89532 0.0
H140 H 0.10702 0.51496 0.94079 0.0
H141 H 0.09923 0.51078 0.97801 0.0
H142 H 1.00453 0.55026 0.97354 0.0
H143 H 1.01243 0.55491 0.9366 0.0
H144 H 1.00726 0.59716 0.89437 0.0
H145 H 0.94821 0.60205 0.87966 0.0
H146 H 0.94905 0.53023 0.82705 0.0
H147 H 1.00868 0.52479 0.84219 0.0
N148 N 0.07504 0.54719 0.87143 0.0
N149 N 0.09627 0.53423 0.90355 0.0
N150 N 0.03965 0.54793 0.90153 0.0
C151 C 0.10159 0.53839 0.88291 0.0
C152 C 0.06554 0.53907 0.913 0.0
C153 C 0.04367 0.55184 0.88087 0.0
C154 C 0.13722 0.53414 0.87381 0.0
C155 C 0.16285 0.56064 0.85781 0.0
C156 C 0.20076 0.561 0.85211 0.0
C157 C 0.21363 0.53458 0.86218 0.0
C158 C 0.18627 0.5063 0.87728 0.0
C159 C 0.14902 0.50636 0.8831 0.0
C160 C 0.06051 0.53546 0.93561 0.0
C161 C 0.08454 0.52276 0.94774 0.0
C162 C 0.07994 0.52013 0.96907 0.0
C163 C 0.05149 0.53047 0.97874 0.0
C164 C 0.02724 0.54274 0.9666 0.0
C165 C 0.03162 0.54514 0.94535 0.0
C166 C 1.01279 0.56044 0.86952 0.0
C167 C 0.99542 0.58288 0.87949 0.0
C168 C 0.12503 0.70774 0.43647 0.0
C169 C 0.13493 0.71852 0.45715 0.0
C170 C 0.10975 0.68862 0.47223 0.0
C171 C 0.07571 0.64852 0.46669 0.0
H172 H 0.99802 0.51532 0.48643 0.0
H173 H 0.956 0.45662 0.51046 0.0
H174 H 0.85006 0.40401 0.46806 0.0
H175 H 0.89193 0.46171 0.44399 0.0
H176 H 0.91963 0.48563 0.39374 0.0
H177 H 0.91245 0.46687 0.35727 0.0
H178 H 0.04498 0.56192 0.34767 0.0
H179 H 0.05218 0.58142 0.38371 0.0
H180 H 0.08489 0.66058 0.41481 0.0
H181 H 0.1442 0.72977 0.42449 0.0
H182 H 0.11638 0.69621 0.48831 0.0
H183 H 0.05713 0.62612 0.47867 0.0
N184 N 1.00647 0.56497 0.45401 0.0
N185 N 0.96698 0.51668 0.42778 0.0
N186 N 0.02379 0.58473 0.41967 0.0
C187 C 0.97423 0.52594 0.44805 0.0
C188 C 0.99192 0.54591 0.41353 0.0
C189 C 0.03111 0.59475 0.43981 0.0
C190 C 0.9482 0.49296 0.46334 0.0
C191 C 0.96558 0.49143 0.48239 0.0
C192 C 0.94174 0.45789 0.49607 0.0
C193 C 0.89986 0.42611 0.49109 0.0
C194 C 0.88215 0.42843 0.47233 0.0
C195 C 0.90619 0.46128 0.45852 0.0
C196 C 0.98645 0.535 0.39156 0.0
C197 C 0.94711 0.50262 0.38379 0.0
C198 C 0.94292 0.49199 0.36301 0.0
C199 C 0.97826 0.51292 0.34988 0.0
C200 C 0.01741 0.54528 0.35761 0.0
C201 C 0.02138 0.55651 0.3782 0.0
C202 C 0.06625 0.63752 0.44596 0.0
C203 C 0.09114 0.66778 0.43094 0.0
C204 C 0.6221 0.21838 0.80484 0.0
C205 C 0.59671 0.19773 0.82202 0.0
C206 C 0.58241 0.1541 0.82518 0.0
C207 C 0.593 0.13144 0.8112 0.0
H208 H 0.63692 0.03799 0.80516 0.0
H209 H 0.6401 0.97316 0.81245 0.0
H210 H 0.6413 0.95052 0.74769 0.0
H211 H 0.6378 0.01463 0.74031 0.0
H212 H 0.66524 0.09491 0.71017 0.0
H213 H 0.65703 0.10553 0.67404 0.0
H214 H 0.59491 0.17747 0.68977 0.0
H215 H 0.60309 0.16694 0.72608 0.0
H216 H 0.65065 0.21234 0.77738 0.0
H217 H 0.63305 0.25186 0.80188 0.0
H218 H 0.56268 0.1375 0.8383 0.0
H219 H 0.58099 0.09764 0.81373 0.0
N220 N 0.62772 0.09256 0.78239 0.0
N221 N 0.63749 0.08345 0.74768 0.0
N222 N 0.62785 0.14019 0.75778 0.0
C223 C 0.63436 0.07038 0.7674 0.0
C224 C 0.63421 0.11818 0.74273 0.0
C225 C 0.62478 0.12773 0.77763 0.0
C226 C 0.63701 0.03159 0.77215 0.0
C227 C 0.6379 0.01922 0.79248 0.0
C228 C 0.63996 0.98225 0.79666 0.0
C229 C 0.64084 0.95678 0.78063 0.0
C230 C 0.64015 0.96924 0.76036 0.0
C231 C 0.63838 1.00621 0.75617 0.0
C232 C 0.6344 0.12968 0.721 0.0
C233 C 0.65039 0.11354 0.70597 0.0
C234 C 0.64602 0.11992 0.68526 0.0
C235 C 0.6252 0.14219 0.67914 0.0
C236 C 0.61086 0.15996 0.69412 0.0
C237 C 0.61572 0.15405 0.71488 0.0
C238 C 0.61706 0.15191 0.79362 0.0
C239 C 0.63188 0.19567 0.79073 0.0
C240 C 0.65942 0.49971 0.14013 0.0
C241 C 0.6619 0.51841 0.15927 0.0
C242 C 0.63212 0.53125 0.16421 0.0
C243 C 0.60044 0.52561 0.1501 0.0
H244 H 0.46438 0.48596 0.14349 0.0
H245 H 0.39221 0.47221 0.15116 0.0
H246 H 0.36932 0.47812 0.08668 0.0
H247 H 0.44091 0.49266 0.07903 0.0
H248 H 0.52559 0.54337 0.05088 0.0
H249 H 0.5447 0.55377 0.01479 0.0
H250 H 0.62761 0.50095 0.02395 0.0
H251 H 0.6091 0.49113 0.06051 0.0
H252 H 0.62804 0.48129 0.11112 0.0
H253 H 0.68235 0.49002 0.13587 0.0
H254 H 0.63357 0.54585 0.17887 0.0
H255 H 0.57814 0.53628 0.15409 0.0
N256 N 0.52948 0.50001 0.12024 0.0
N257 N 0.5144 0.50374 0.08567 0.0
N258 N 0.58002 0.5102 0.09488 0.0
C259 C 0.50203 0.49851 0.10553 0.0
C260 C 0.55315 0.50961 0.08021 0.0
C261 C 0.56852 0.50576 0.11493 0.0
C262 C 0.45866 0.49061 0.11066 0.0
C263 C 0.44397 0.48447 0.13098 0.0
C264 C 0.40255 0.4763 0.13536 0.0
C265 C 0.37514 0.47421 0.11952 0.0
C266 C 0.38985 0.48021 0.09927 0.0
C267 C 0.43101 0.48837 0.0949 0.0
C268 C 0.56583 0.51638 0.05849 0.0
C269 C 0.54797 0.53401 0.04527 0.0
C270 C 0.55904 0.5402 0.02466 0.0
C271 C 0.58762 0.52823 0.01674 0.0
C272 C 0.60544 0.51036 0.02982 0.0
C273 C 0.59502 0.50495 0.05065 0.0
C274 C 0.59895 0.50816 0.13069 0.0
C275 C 0.62852 0.49497 0.12593 0.0
H276 H 0.14794 0.44393 0.17813 0.0
H277 H 0.12126 0.44741 0.11397 0.0
H278 H 0.21332 0.44349 0.16947 0.0
H279 H 0.18676 0.44637 0.1052 0.0
H280 H 0.33501 0.51371 0.10235 0.0
H281 H 0.26312 0.50056 0.10911 0.0
H282 H 0.24425 0.40362 0.15339 0.0
H283 H 0.31643 0.41665 0.14652 0.0
C284 C 0.15569 0.4437 0.16214 0.0
C285 C 0.12986 0.44602 0.1467 0.0
C286 C 0.19303 0.44323 0.15718 0.0
C287 C 0.20535 0.44525 0.13666 0.0
C288 C 0.1783 0.44537 0.12116 0.0
C289 C 0.14073 0.44564 0.12615 0.0
C290 C 0.31535 0.48917 0.11333 0.0
C291 C 0.33139 0.46619 0.12389 0.0
C292 C 0.27408 0.48152 0.11714 0.0
C293 C 0.24791 0.45081 0.13165 0.0
C294 C 0.26382 0.42767 0.1422 0.0
C295 C 0.30517 0.43528 0.13835 0.0
H296 H 0.7528 0.16628 0.50649 0.0
H297 H 0.6907 0.20763 0.54982 0.0
H298 H 0.81581 0.23754 0.50681 0.0
H299 H 0.75404 0.27889 0.55041 0.0
H300 H 0.92362 0.37092 0.50676 0.0
H301 H 0.87657 0.30145 0.52291 0.0
H302 H 0.77253 0.32838 0.52127 0.0
H303 H 0.81943 0.39729 0.50534 0.0
C304 C 0.75336 0.19011 0.51675 0.0
C305 C 0.71663 0.18188 0.52775 0.0
C306 C 0.78955 0.23098 0.517 0.0
C307 C 0.78946 0.2641 0.52829 0.0
C308 C 0.75465 0.2542 0.54126 0.0
C309 C 0.71848 0.21337 0.54098 0.0
C310 C 0.89104 0.36236 0.51051 0.0
C311 C 0.87485 0.38905 0.50468 0.0
C312 C 0.86412 0.32263 0.51964 0.0
C313 C 0.82081 0.30934 0.52329 0.0
C314 C 0.80581 0.33776 0.51892 0.0
C315 C 0.83251 0.3771 0.50963 0.0
H316 H 0.62672 0.70774 0.77652 0.0
H317 H 0.63902 0.74251 0.84035 0.0
H318 H 0.63539 0.77744 0.76723 0.0
H319 H 0.64641 0.81123 0.83126 0.0
H320 H 0.69083 0.94497 0.80831 0.0
H321 H 0.69198 0.87912 0.81548 0.0
H322 H 0.59374 0.81284 0.76987 0.0
H323 H 0.59322 0.8788 0.76253 0.0
C324 C 0.63159 0.73043 0.78851 0.0
C325 C 0.63214 0.71985 0.80912 0.0
C326 C 0.63623 0.77015 0.78324 0.0
C327 C 0.64141 0.79986 0.79852 0.0
C328 C 0.6431 0.78945 0.81909 0.0
C329 C 0.63859 0.74993 0.82431 0.0
C330 C 0.66947 0.91626 0.79988 0.0
C331 C 0.64188 0.91696 0.78491 0.0
C332 C 0.67012 0.87856 0.80395 0.0
C333 C 0.64295 0.84068 0.79324 0.0
C334 C 0.61566 0.84159 0.77813 0.0
C335 C 0.6152 0.87933 0.77399 0.0
H336 H 0.87052 0.50543 0.21644 0.0
H337 H 0.91898 0.6145 0.17597 0.0
H338 H 0.80127 0.50207 0.21748 0.0
H339 H 0.8497 0.61076 0.17667 0.0
H340 H 0.68445 0.46113 0.17252 0.0
H341 H 0.75169 0.47697 0.18849 0.0
H342 H 0.78781 0.6104 0.19299 0.0
H343 H 0.72008 0.59421 0.17671 0.0
C344 C 0.86678 0.52957 0.20832 0.0
C345 C 0.89968 0.55964 0.19576 0.0
C346 C 0.82709 0.52753 0.20885 0.0
C347 C 0.81969 0.55548 0.19677 0.0
C348 C 0.85429 0.58876 0.18617 0.0
C349 C 0.89403 0.59084 0.18569 0.0
C350 C 0.70627 0.4936 0.17746 0.0
C351 C 0.69745 0.52653 0.17322 0.0
C352 C 0.74468 0.50271 0.18678 0.0
C353 C 0.77528 0.54507 0.19191 0.0
C354 C 0.76498 0.57753 0.18908 0.0
C355 C 0.72619 0.56827 0.17989 0.0
H356 H 0.37488 0.95756 0.45098 0.0
H357 H 0.35408 0.93176 0.51573 0.0
H358 H 0.3043 0.89552 0.44397 0.0
H359 H 0.28357 0.87068 0.50885 0.0
H360 H 0.19451 0.73336 0.48652 0.0
H361 H 0.25935 0.80035 0.49423 0.0
H362 H 0.22628 0.86473 0.44805 0.0
H363 H 0.16108 0.79744 0.44033 0.0
C364 C 0.35488 0.93906 0.46368 0.0
C365 C 0.36991 0.94905 0.48385 0.0
C366 C 0.31449 0.9037 0.45971 0.0
C367 C 0.28861 0.87795 0.47587 0.0
C368 C 0.30309 0.88937 0.49607 0.0
C369 C 0.34336 0.92448 0.50001 0.0
C370 C 0.20061 0.76193 0.47827 0.0
C371 C 0.17267 0.76009 0.46283 0.0
C372 C 0.23781 0.80035 0.48267 0.0
C373 C 0.24791 0.83785 0.47174 0.0
C374 C 0.21961 0.83624 0.45654 0.0
C375 C 0.18231 0.79775 0.45215 0.0
H376 H 0.57812 0.40417 0.87883 0.0
H377 H 0.48393 0.34522 0.83095 0.0
H378 H 0.5869 0.34127 0.88003 0.0
H379 H 0.49304 0.28281 0.83188 0.0
H380 H 0.51536 0.17422 0.83392 0.0
H381 H 0.49129 0.22097 0.84863 0.0
H382 H 0.62296 0.32237 0.85386 0.0
H383 H 0.64669 0.27556 0.83955 0.0
C384 C 0.55835 0.37721 0.86901 0.0
C385 C 0.53092 0.37974 0.85453 0.0
C386 C 0.56351 0.34131 0.86963 0.0
C387 C 0.54124 0.30738 0.85582 0.0
C388 C 0.51055 0.30823 0.84282 0.0
C389 C 0.50548 0.34413 0.84218 0.0
C390 C 0.53908 0.20601 0.83893 0.0
C391 C 0.58283 0.22159 0.83539 0.0
C392 C 0.52532 0.23284 0.84721 0.0
C393 C 0.55515 0.27553 0.85219 0.0
C394 C 0.59909 0.28962 0.85037 0.0
C395 C 0.61275 0.26295 0.84199 0.0
H396 H 0.60957 0.9752 0.523 0.0
H397 H 0.4953 0.91183 0.48599 0.0
H398 H 0.60978 0.90828 0.52647 0.0
H399 H 0.49639 0.84494 0.48874 0.0
H400 H 0.48572 0.72185 0.51649 0.0
H401 H 0.48447 0.78813 0.51055 0.0
H402 H 0.62287 0.85876 0.51012 0.0
H403 H 0.62374 0.79279 0.51682 0.0
C404 C 0.5847 0.94709 0.51537 0.0
C405 C 0.55244 0.94918 0.50421 0.0
C406 C 0.58497 0.9085 0.51723 0.0
C407 C 0.55324 0.87072 0.5078 0.0
C408 C 0.52109 0.87294 0.4965 0.0
C409 C 0.52059 0.91153 0.4948 0.0
C410 C 0.51581 0.75152 0.51485 0.0
C411 C 0.55481 0.75203 0.51727 0.0
C412 C 0.51519 0.78969 0.51141 0.0
C413 C 0.55359 0.82937 0.51008 0.0
C414 C 0.59255 0.82932 0.51161 0.0
C415 C 0.59312 0.79134 0.51529 0.0
H416 H 0.73892 0.62171 0.8173 0.0
H417 H 0.67639 0.4909 0.83868 0.0
H418 H 0.8083 0.62537 0.82001 0.0
H419 H 0.74536 0.49486 0.84183 0.0
H420 H 0.87222 0.50099 0.83351 0.0
H421 H 0.80529 0.49856 0.82462 0.0
H422 H 0.85768 0.62889 0.84539 0.0
H423 H 0.92502 0.63186 0.85342 0.0
C424 C 0.73983 0.59364 0.82246 0.0
C425 C 0.70178 0.55605 0.82777 0.0
C426 C 0.77977 0.59581 0.82416 0.0
C427 C 0.78283 0.56045 0.83121 0.0
C428 C 0.7446 0.52261 0.83606 0.0
C429 C 0.7048 0.52045 0.83437 0.0
C430 C 0.86986 0.52947 0.83576 0.0
C431 C 0.90421 0.5665 0.84437 0.0
C432 C 0.83112 0.52791 0.83091 0.0
C433 C 0.82552 0.56336 0.83448 0.0
C434 C 0.86054 0.60097 0.84227 0.0
C435 C 0.89921 0.60251 0.84711 0.0
H436 H 0.16957 0.59684 0.16083 0.0
H437 H 0.10371 0.66163 0.18242 0.0
H438 H 0.23795 0.66269 0.16475 0.0
H439 H 0.17236 0.72746 0.18657 0.0
H440 H 0.30172 0.84924 0.17575 0.0
H441 H 0.23374 0.78444 0.16809 0.0
H442 H 0.28419 0.70702 0.19214 0.0
H443 H 0.35212 0.77149 0.19933 0.0
C444 C 0.16952 0.62509 0.16637 0.0
C445 C 0.13082 0.6236 0.17137 0.0
C446 C 0.20893 0.66293 0.16873 0.0
C447 C 0.21091 0.70055 0.17606 0.0
C448 C 0.17218 0.69933 0.18068 0.0
C449 C 0.13271 0.66138 0.17842 0.0
C450 C 0.29851 0.81835 0.17909 0.0
C451 C 0.33247 0.81571 0.18823 0.0
C452 C 0.25932 0.78116 0.17492 0.0
C453 C 0.2532 0.74032 0.17958 0.0
C454 C 0.28765 0.73775 0.18816 0.0
C455 C 0.32661 0.77484 0.19246 0.0
H456 H 0.47987 0.15818 0.48322 0.0
H457 H 0.60566 0.21972 0.51072 0.0
H458 H 0.47951 0.22586 0.48497 0.0
H459 H 0.60474 0.28609 0.51301 0.0
H460 H 0.61241 0.41109 0.50162 0.0
H461 H 0.60981 0.34375 0.49413 0.0
H462 H 0.47471 0.27486 0.50832 0.0
H463 H 0.47732 0.34282 0.51522 0.0
C464 C 0.50747 0.18602 0.48957 0.0
C465 C 0.54284 0.18321 0.49672 0.0
C466 C 0.50716 0.22486 0.49071 0.0
C467 C 0.54223 0.2619 0.49902 0.0
C468 C 0.5775 0.25885 0.50606 0.0
C469 C 0.57787 0.22034 0.50487 0.0
C470 C 0.58203 0.38159 0.50293 0.0
C471 C 0.54517 0.38239 0.50919 0.0
C472 C 0.58053 0.3428 0.49876 0.0
C473 C 0.54221 0.30341 0.50099 0.0
C474 C 0.5048 0.30435 0.50631 0.0
C475 C 0.50625 0.34337 0.51029 0.0
H476 H 0.4284 0.48703 0.86062 0.0
H477 H 0.47075 0.59582 0.82034 0.0
H478 H 0.36073 0.48555 0.86577 0.0
H479 H 0.4029 0.59439 0.82561 0.0
H480 H 0.25657 0.54899 0.82522 0.0
H481 H 0.32461 0.55147 0.81863 0.0
H482 H 0.33467 0.52865 0.88266 0.0
H483 H 0.26774 0.52711 0.88935 0.0
C484 C 0.42336 0.51065 0.85282 0.0
C485 C 0.45536 0.54163 0.84011 0.0
C486 C 0.3845 0.50994 0.85587 0.0
C487 C 0.37621 0.53998 0.84619 0.0
C488 C 0.40791 0.57055 0.8332 0.0
C489 C 0.44701 0.57151 0.83028 0.0
C490 C 0.27343 0.5449 0.83795 0.0
C491 C 0.25589 0.53723 0.8578 0.0
C492 C 0.31252 0.54626 0.83415 0.0
C493 C 0.33507 0.53976 0.85006 0.0
C494 C 0.31787 0.53281 0.86991 0.0
C495 C 0.27916 0.53178 0.87373 0.0
H496 H 0.85775 0.41083 0.17602 0.0
H497 H 0.91855 0.34254 0.15241 0.0
H498 H 0.79135 0.34383 0.18033 0.0
H499 H 0.85108 0.27468 0.15686 0.0
H500 H 0.70399 0.16642 0.15265 0.0
H501 H 0.77248 0.23131 0.14516 0.0
H502 H 0.76822 0.28288 0.20404 0.0
H503 H 0.70112 0.21856 0.21169 0.0
C504 C 0.85707 0.38157 0.1716 0.0
C505 C 0.89401 0.38241 0.16401 0.0
C506 C 0.81878 0.34295 0.1742 0.0
C507 C 0.81589 0.3037 0.16923 0.0
C508 C 0.85217 0.30434 0.16082 0.0
C509 C 0.89088 0.34327 0.15832 0.0
C510 C 0.71786 0.19145 0.16406 0.0
C511 C 0.69623 0.18732 0.18263 0.0
C512 C 0.75714 0.22867 0.15975 0.0
C513 C 0.77557 0.26268 0.17385 0.0
C514 C 0.75452 0.25789 0.19258 0.0
C515 C 0.71572 0.22087 0.19693 0.0
H516 H 0.04872 0.49555 0.11239 0.0
H517 H 0.96163 0.54162 0.09907 0.0
H518 H 0.06471 0.49753 0.07578 0.0
H519 H 0.97675 0.54302 0.06279 0.0
H520 H 0.04763 0.58926 0.00341 0.0
H521 H 0.03575 0.58543 0.04015 0.0
H522 H 0.03347 0.46461 0.04232 0.0
H523 H 0.04578 0.4687 0.00534 0.0
C524 C 0.03264 0.50551 0.10163 0.0
C525 C 1.00404 0.51847 0.10855 0.0
C526 C 0.04173 0.50667 0.08068 0.0
C527 C 0.0224 0.52094 0.06636 0.0
C528 C 0.99298 0.53279 0.0734 0.0
C529 C 0.98405 0.5317 0.0942 0.0
C530 C 0.04448 0.56179 0.01169 0.0
C531 C 0.04708 0.52902 0.0014 0.0
C532 C 0.03761 0.55955 0.03277 0.0
C533 C 0.03298 0.52437 0.04416 0.0
C534 C 0.03707 0.49223 0.03402 0.0
C535 C 0.0441 0.49455 0.01284 0.0
H536 H 0.50121 0.02468 0.44652 0.0
H537 H 0.63038 0.12168 0.43153 0.0
H538 H 0.48548 1.00875 0.40999 0.0
H539 H 0.61476 0.10699 0.39536 0.0
H540 H 0.59349 0.04063 0.3352 0.0
H541 H 0.60341 0.05214 0.37189 0.0
H542 H 0.47666 0.03585 0.37719 0.0
H543 H 0.46646 0.02329 0.34026 0.0
C544 C 0.52593 0.04297 0.4354 0.0
C545 C 0.567 0.07425 0.4418 0.0
C546 C 0.51701 0.03393 0.4145 0.0
C547 C 0.54905 0.05615 0.39971 0.0
C548 C 0.58962 0.0884 0.40628 0.0
C549 C 0.59852 0.09711 0.42703 0.0
C550 C 0.56775 0.03955 0.34419 0.0
C551 C 0.52942 0.03158 0.33482 0.0
C552 C 0.57344 0.04628 0.36524 0.0
C553 C 0.54111 0.04568 0.37751 0.0
C554 C 0.50215 0.03636 0.36824 0.0
C555 C 0.49632 0.02925 0.3471 0.0
H556 H 0.61971 0.5814 0.77373 0.0
H557 H 0.48715 0.48222 0.76943 0.0
H558 H 0.62192 0.5917 0.73665 0.0
H559 H 0.48885 0.49312 0.73259 0.0
H560 H 0.52039 0.48547 0.66611 0.0
H561 H 0.51919 0.47899 0.70314 0.0
H562 H 0.59606 0.6165 0.70852 0.0
H563 H 0.59897 0.62286 0.67129 0.0
C564 C 0.59095 0.56217 0.76486 0.0
C565 C 0.55338 0.53074 0.77439 0.0
C566 C 0.59212 0.56817 0.74365 0.0
C567 C 0.55567 0.54293 0.73157 0.0
C568 C 0.51777 0.51247 0.74131 0.0
C569 C 0.51668 0.5064 0.76246 0.0
C570 C 0.53752 0.51434 0.67514 0.0
C571 C 0.55992 0.55468 0.66566 0.0
C572 C 0.53631 0.51067 0.69643 0.0
C573 C 0.5573 0.54725 0.70887 0.0
C574 C 0.5798 0.58764 0.69942 0.0
C575 C 0.58107 0.59131 0.67807 0.0
H576 H 0.50281 0.11392 0.56014 0.0
H577 H 0.59048 0.0659 0.55429 0.0
H578 H 0.53137 0.1415 0.59413 0.0
H579 H 0.61804 0.09188 0.58845 0.0
H580 H 0.67821 0.16139 0.6461 0.0
H581 H 0.65787 0.15192 0.61002 0.0
H582 H 0.52746 0.11237 0.62713 0.0
H583 H 0.54822 0.12311 0.66296 0.0
C584 C 0.52822 0.10932 0.56617 0.0
C585 C 0.54428 0.08756 0.55476 0.0
C586 C 0.54451 0.12497 0.58564 0.0
C587 C 0.57687 0.11874 0.59411 0.0
C588 C 0.59362 0.0979 0.58233 0.0
C589 C 0.57758 0.08262 0.56283 0.0
C590 C 0.64539 0.15136 0.64204 0.0
C591 C 0.61475 0.14282 0.65729 0.0
C592 C 0.63365 0.1457 0.62141 0.0
C593 C 0.5909 0.13087 0.61565 0.0
C594 C 0.56078 0.12436 0.63093 0.0
C595 C 0.57263 0.13045 0.65151 0.0
H596 H 0.54415 0.50716 0.88788 0.0
H597 H 0.67033 0.61854 0.89251 0.0
H598 H 0.54565 0.4937 0.92453 0.0
H599 H 0.67167 0.60525 0.92904 0.0
H600 H 0.6185 0.60169 0.99494 0.0
H601 H 0.62704 0.61022 0.95789 0.0
H602 H 0.58678 0.47609 0.95181 0.0
H603 H 0.57853 0.46771 0.98911 0.0
C604 C 0.57233 0.52841 0.89669 0.0
C605 C 0.60693 0.56411 0.88749 0.0
C606 C 0.57331 0.52058 0.91758 0.0
C607 C 0.60873 0.54859 0.92956 0.0
C608 C 0.64387 0.58342 0.92016 0.0
C609 C 0.64307 0.59098 0.89928 0.0
C610 C 0.61216 0.57425 0.98568 0.0
C611 C 0.59788 0.53409 0.99473 0.0
C612 C 0.61719 0.57912 0.96454 0.0
C613 C 0.60747 0.54376 0.95205 0.0
C614 C 0.59428 0.50376 0.96115 0.0
C615 C 0.58988 0.49904 0.9824 0.0
H616 H 1.00359 0.54018 0.22017 0.0
H617 H 0.98829 0.41477 0.22976 0.0
H618 H 0.98783 0.54333 0.25633 0.0
H619 H 0.9735 0.41841 0.26596 0.0
H620 H 0.02463 0.48372 0.33038 0.0
H621 H 0.02513 0.47009 0.29379 0.0
H622 H 0.92671 0.50305 0.28385 0.0
H623 H 0.92576 0.516 0.32073 0.0
C624 C 0.99622 0.51308 0.22994 0.0
C625 C 0.99724 0.47729 0.22225 0.0
C626 C 0.98709 0.51483 0.25056 0.0
C627 C 0.97958 0.48113 0.26384 0.0
C628 C 0.97939 0.44484 0.256 0.0
C629 C 0.98785 0.4428 0.23534 0.0
C630 C 1.00271 0.48739 0.32037 0.0
C631 C 0.97517 0.50083 0.32818 0.0
C632 C 1.00284 0.47946 0.29952 0.0
C633 C 0.97594 0.48555 0.28609 0.0
C634 C 0.94776 0.49824 0.29396 0.0
C635 C 0.94706 0.5054 0.31494 0.0
loop_
_geom_bond_atom_site_label_1
_geom_bond_atom_site_label_2
_geom_bond_distance
_geom_bond_site_symmetry_2
_ccdc_geom_bond_type
Dy0 O4 2.398 . S
Dy0 O5 2.491 . S
Dy0 O6 2.403 . S
Dy0 O7 2.664 . S
Dy0 O11 2.326 . S
Dy0 O15 2.310 . S
Dy0 O16 2.351 1_455 S
C1 O12 1.185 . S
C1 O13 1.355 . S
C2 O4 1.185 . S
C2 O5 1.355 . S
Dy3 O7 2.310 1_655 S
Dy3 O10 2.352 1_655 S
Dy3 O12 2.397 . S
Dy3 O13 2.491 . S
Dy3 O14 2.403 1_655 S
Dy3 O15 2.665 1_655 S
Dy3 O17 2.326 . S
O4 Dy0 2.398 . S
O4 C2 1.185 . S
O5 Dy0 2.491 . S
O5 C2 1.355 . S
O6 Dy0 2.403 . S
O6 C8 1.254 . S
O7 Dy0 2.664 . S
O7 Dy3 2.310 1_455 S
O7 C8 1.268 . S
C8 O6 1.254 . S
C8 O7 1.268 . S
C9 O14 1.254 . S
C9 O15 1.268 . S
O10 Dy3 2.352 1_455 S
O10 C18 1.249 . S
O11 Dy0 2.326 . S
O11 C18 1.267 . S
O12 C1 1.185 . S
O12 Dy3 2.397 . S
O13 C1 1.355 . S
O13 Dy3 2.491 . S
O14 Dy3 2.403 1_455 S
O14 C9 1.254 . S
O15 Dy0 2.310 . S
O15 Dy3 2.665 1_455 S
O15 C9 1.268 . S
O16 Dy0 2.351 1_655 S
O16 C19 1.249 . S
O17 Dy3 2.326 . S
O17 C19 1.267 . S
C18 O10 1.249 . S
C18 O11 1.267 . S
C19 O16 1.249 . S
C19 O17 1.267 . S
Dy20 O24 2.398 1_545 S
Dy20 O25 2.491 1_545 S
Dy20 O26 2.403 . S
Dy20 O27 2.664 . S
Dy20 O31 2.326 1_545 S
Dy20 O35 2.310 . S
Dy20 O36 2.351 . S
C21 O32 1.185 . S
C21 O33 1.355 . S
C22 O24 1.185 . S
C22 O25 1.355 . S
Dy23 O27 2.310 . S
Dy23 O30 2.351 1_545 S
Dy23 O32 2.398 . S
Dy23 O33 2.491 . S
Dy23 O34 2.403 . S
Dy23 O35 2.664 . S
Dy23 O37 2.326 . S
O24 Dy20 2.398 1_565 S
O24 C22 1.185 . S
O25 Dy20 2.491 1_565 S
O25 C22 1.355 . S
O26 Dy20 2.403 . S
O26 C28 1.254 . S
O27 Dy20 2.664 . S
O27 Dy23 2.310 . S
O27 C28 1.268 . S
C28 O26 1.254 . S
C28 O27 1.268 . S
C29 O34 1.254 . S
C29 O35 1.268 . S
O30 Dy23 2.351 1_565 S
O30 C38 1.249 . S
O31 Dy20 2.326 1_565 S
O31 C38 1.267 . S
O32 C21 1.185 . S
O32 Dy23 2.398 . S
O33 C21 1.355 . S
O33 Dy23 2.491 . S
O34 Dy23 2.403 . S
O34 C29 1.254 . S
O35 Dy20 2.310 . S
O35 Dy23 2.664 . S
O35 C29 1.268 . S
O36 Dy20 2.351 . S
O36 C39 1.249 . S
O37 Dy23 2.326 . S
O37 C39 1.267 . S
C38 O30 1.249 . S
C38 O31 1.267 . S
C39 O36 1.249 . S
C39 O37 1.267 . S
Dy40 O44 2.398 . S
Dy40 O45 2.491 . S
Dy40 O46 2.403 . S
Dy40 O47 2.664 . S
Dy40 O51 2.326 . S
Dy40 O55 2.310 . S
Dy40 O56 2.351 . S
C41 O52 1.185 . S
C41 O53 1.355 . S
C42 O44 1.185 . S
C42 O45 1.355 . S
Dy43 O47 2.310 . S
Dy43 O50 2.351 . S
Dy43 O52 2.398 . S
Dy43 O53 2.491 . S
Dy43 O54 2.403 . S
Dy43 O55 2.664 . S
Dy43 O57 2.326 . S
O44 Dy40 2.398 . S
O44 C42 1.185 . S
O45 Dy40 2.491 . S
O45 C42 1.355 . S
O46 Dy40 2.403 . S
O46 C48 1.254 . S
O47 Dy40 2.664 . S
O47 Dy43 2.310 . S
O47 C48 1.268 . S
C48 O46 1.254 . S
C48 O47 1.268 . S
C49 O54 1.254 . S
C49 O55 1.268 . S
O50 Dy43 2.351 . S
O50 C58 1.249 . S
O51 Dy40 2.326 . S
O51 C58 1.267 . S
O52 C41 1.185 . S
O52 Dy43 2.398 . S
O53 C41 1.355 . S
O53 Dy43 2.491 . S
O54 Dy43 2.403 . S
O54 C49 1.254 . S
O55 Dy40 2.310 . S
O55 Dy43 2.664 . S
O55 C49 1.268 . S
O56 Dy40 2.351 . S
O56 C59 1.249 . S
O57 Dy43 2.326 . S
O57 C59 1.267 . S
C58 O50 1.249 . S
C58 O51 1.267 . S
C59 O56 1.249 . S
C59 O57 1.267 . S
C60 C61 1.384 . S
C60 H73 0.947 . S
C60 C95 1.382 . S
C61 C60 1.384 . S
C61 C62 1.378 . S
C62 C61 1.378 . S
C62 C63 1.378 . S
C62 H74 0.952 . S
C63 C62 1.378 . S
C63 H75 0.950 . S
C63 C94 1.383 . S
H64 C83 0.947 . S
H65 C84 0.946 . S
H66 C86 0.953 . S
H67 C87 0.945 . S
H68 C89 0.952 . S
H69 C90 0.949 . S
H70 C92 0.950 . S
H71 C93 0.948 . S
H72 C95 0.951 . S
H73 C60 0.947 . S
H74 C62 0.952 . S
H75 C63 0.950 . S
N76 C79 1.382 . S
N76 C81 1.363 1_545 S
N77 C79 1.371 . S
N77 C80 1.372 . S
N78 C80 1.361 1_565 S
N78 C81 1.377 . S
C79 N76 1.382 . S
C79 N77 1.371 . S
C79 C82 1.480 . S
C80 N77 1.372 . S
C80 N78 1.361 1_545 S
C80 C88 1.457 . S
C81 N76 1.363 1_565 S
C81 N78 1.377 . S
C81 C94 1.479 . S
C82 C79 1.480 . S
C82 C83 1.383 . S
C82 C87 1.385 . S
C83 H64 0.947 . S
C83 C82 1.383 . S
C83 C84 1.388 . S
C84 H65 0.946 . S
C84 C83 1.388 . S
C84 C85 1.384 . S
C85 C84 1.384 . S
C85 C86 1.377 . S
C86 H66 0.953 . S
C86 C85 1.377 . S
C86 C87 1.369 . S
C87 H67 0.945 . S
C87 C82 1.385 . S
C87 C86 1.369 . S
C88 C80 1.457 . S
C88 C89 1.372 . S
C88 C93 1.364 1_545 S
C89 H68 0.952 . S
C89 C88 1.372 . S
C89 C90 1.389 . S
C90 H69 0.949 . S
C90 C89 1.389 . S
C90 C91 1.387 . S
C91 C90 1.387 . S
C91 C92 1.372 1_545 S
C92 H70 0.950 . S
C92 C91 1.372 1_565 S
C92 C93 1.379 . S
C93 H71 0.948 . S
C93 C88 1.364 1_565 S
C93 C92 1.379 . S
C94 C63 1.383 . S
C94 C81 1.479 . S
C94 C95 1.398 . S
C95 C60 1.382 . S
C95 H72 0.951 . S
C95 C94 1.398 . S
C96 C97 1.384 . S
C96 H109 0.947 . S
C96 C131 1.382 . S
C97 C96 1.384 . S
C97 C98 1.378 . S
C98 C97 1.378 . S
C98 C99 1.378 . S
C98 H110 0.952 . S
C99 C98 1.378 . S
C99 H111 0.950 . S
C99 C130 1.383 . S
H100 C119 0.947 . S
H101 C120 0.946 . S
H102 C122 0.953 . S
H103 C123 0.945 . S
H104 C125 0.952 . S
H105 C126 0.949 . S
H106 C128 0.950 . S
H107 C129 0.948 . S
H108 C131 0.951 . S
H109 C96 0.947 . S
H110 C98 0.952 . S
H111 C99 0.950 . S
N112 C115 1.382 . S
N112 C117 1.363 . S
N113 C115 1.371 . S
N113 C116 1.372 . S
N114 C116 1.361 . S
N114 C117 1.377 . S
C115 N112 1.382 . S
C115 N113 1.371 . S
C115 C118 1.480 . S
C116 N113 1.372 . S
C116 N114 1.361 . S
C116 C124 1.457 . S
C117 N112 1.363 . S
C117 N114 1.377 . S
C117 C130 1.479 . S
C118 C115 1.480 . S
C118 C119 1.383 . S
C118 C123 1.385 . S
C119 H100 0.947 . S
C119 C118 1.383 . S
C119 C120 1.388 . S
C120 H101 0.946 . S
C120 C119 1.388 . S
C120 C121 1.384 . S
C121 C120 1.384 . S
C121 C122 1.377 . S
C122 H102 0.953 . S
C122 C121 1.377 . S
C122 C123 1.369 . S
C123 H103 0.945 . S
C123 C118 1.385 . S
C123 C122 1.369 . S
C124 C116 1.457 . S
C124 C125 1.372 . S
C124 C129 1.364 . S
C125 H104 0.952 . S
C125 C124 1.372 . S
C125 C126 1.389 . S
C126 H105 0.949 . S
C126 C125 1.389 . S
C126 C127 1.387 . S
C127 C126 1.387 . S
C127 C128 1.372 . S
C128 H106 0.950 . S
C128 C127 1.372 . S
C128 C129 1.379 . S
C129 H107 0.948 . S
C129 C124 1.364 . S
C129 C128 1.379 . S
C130 C99 1.383 . S
C130 C117 1.479 . S
C130 C131 1.398 . S
C131 C96 1.382 . S
C131 H108 0.951 . S
C131 C130 1.398 . S
C132 C133 1.384 . S
C132 H145 0.947 . S
C132 C167 1.382 . S
C133 C132 1.384 . S
C133 C134 1.378 . S
C134 C133 1.378 . S
C134 C135 1.378 . S
C134 H146 0.952 . S
C135 C134 1.378 . S
C135 H147 0.950 1_655 S
C135 C166 1.383 . S
H136 C155 0.947 . S
H137 C156 0.946 . S
H138 C158 0.953 . S
H139 C159 0.945 . S
H140 C161 0.952 . S
H141 C162 0.949 . S
H142 C164 0.950 1_655 S
H143 C165 0.948 1_655 S
H144 C167 0.951 . S
H145 C132 0.947 . S
H146 C134 0.952 . S
H147 C135 0.950 1_455 S
N148 C151 1.382 . S
N148 C153 1.363 . S
N149 C151 1.371 . S
N149 C152 1.372 . S
N150 C152 1.361 . S
N150 C153 1.377 . S
C151 N148 1.382 . S
C151 N149 1.371 . S
C151 C154 1.480 . S
C152 N149 1.372 . S
C152 N150 1.361 . S
C152 C160 1.457 . S
C153 N148 1.363 . S
C153 N150 1.377 . S
C153 C166 1.479 1_455 S
C154 C151 1.480 . S
C154 C155 1.383 . S
C154 C159 1.385 . S
C155 H136 0.947 . S
C155 C154 1.383 . S
C155 C156 1.388 . S
C156 H137 0.946 . S
C156 C155 1.388 . S
C156 C157 1.384 . S
C157 C156 1.384 . S
C157 C158 1.377 . S
C158 H138 0.953 . S
C158 C157 1.377 . S
C158 C159 1.369 . S
C159 H139 0.945 . S
C159 C154 1.385 . S
C159 C158 1.369 . S
C160 C152 1.457 . S
C160 C161 1.372 . S
C160 C165 1.364 . S
C161 H140 0.952 . S
C161 C160 1.372 . S
C161 C162 1.389 . S
C162 H141 0.949 . S
C162 C161 1.389 . S
C162 C163 1.387 . S
C163 C162 1.387 . S
C163 C164 1.372 . S
C164 H142 0.950 1_455 S
C164 C163 1.372 . S
C164 C165 1.379 . S
C165 H143 0.948 1_455 S
C165 C160 1.364 . S
C165 C164 1.379 . S
C166 C135 1.383 . S
C166 C153 1.479 1_655 S
C166 C167 1.398 . S
C167 C132 1.382 . S
C167 H144 0.951 . S
C167 C166 1.398 . S
C168 C169 1.384 . S
C168 H181 0.947 . S
C168 C203 1.382 . S
C169 C168 1.384 . S
C169 C170 1.378 . S
C170 C169 1.378 . S
C170 C171 1.378 . S
C170 H182 0.952 . S
C171 C170 1.378 . S
C171 H183 0.950 . S
C171 C202 1.383 . S
H172 C191 0.947 . S
H173 C192 0.946 . S
H174 C194 0.953 . S
H175 C195 0.945 . S
H176 C197 0.952 . S
H177 C198 0.949 . S
H178 C200 0.950 . S
H179 C201 0.948 . S
H180 C203 0.951 . S
H181 C168 0.947 . S
H182 C170 0.952 . S
H183 C171 0.950 . S
N184 C187 1.382 1_455 S
N184 C189 1.363 . S
N185 C187 1.371 . S
N185 C188 1.372 1_655 S
N186 C188 1.361 . S
N186 C189 1.377 . S
C187 N184 1.382 1_655 S
C187 N185 1.371 . S
C187 C190 1.480 . S
C188 N185 1.372 1_455 S
C188 N186 1.361 . S
C188 C196 1.457 . S
C189 N184 1.363 . S
C189 N186 1.377 . S
C189 C202 1.479 . S
C190 C187 1.480 . S
C190 C191 1.383 . S
C190 C195 1.385 . S
C191 H172 0.947 . S
C191 C190 1.383 . S
C191 C192 1.388 . S
C192 H173 0.946 . S
C192 C191 1.388 . S
C192 C193 1.384 . S
C193 C192 1.384 . S
C193 C194 1.377 . S
C194 H174 0.953 . S
C194 C193 1.377 . S
C194 C195 1.369 . S
C195 H175 0.945 . S
C195 C190 1.385 . S
C195 C194 1.369 . S
C196 C188 1.457 . S
C196 C197 1.372 1_455 S
C196 C201 1.364 . S
C197 H176 0.952 . S
C197 C196 1.372 1_655 S
C197 C198 1.389 . S
C198 H177 0.949 . S
C198 C197 1.389 . S
C198 C199 1.387 1_655 S
C199 C198 1.387 1_455 S
C199 C200 1.372 . S
C200 H178 0.950 . S
C200 C199 1.372 . S
C200 C201 1.379 . S
C201 H179 0.948 . S
C201 C196 1.364 . S
C201 C200 1.379 . S
C202 C171 1.383 . S
C202 C189 1.479 . S
C202 C203 1.398 . S
C203 C168 1.382 . S
C203 H180 0.951 . S
C203 C202 1.398 . S
C204 C205 1.384 . S
C204 H217 0.947 . S
C204 C239 1.382 . S
C205 C204 1.384 . S
C205 C206 1.378 . S
C206 C205 1.378 . S
C206 C207 1.378 . S
C206 H218 0.952 . S
C207 C206 1.378 . S
C207 H219 0.950 . S
C207 C238 1.383 . S
H208 C227 0.947 1_545 S
H209 C228 0.946 . S
H210 C230 0.953 . S
H211 C231 0.945 . S
H212 C233 0.958 . S
H213 C234 0.949 1_565 S
H214 C236 0.950 . S
H215 C237 0.948 . S
H216 C239 0.951 . S
H217 C204 0.947 . S
H218 C206 0.952 . S
H219 C207 0.950 . S
N220 C223 1.382 . S
N220 C225 1.363 . S
N221 C223 1.371 . S
N221 C224 1.372 . S
N222 C224 1.361 . S
N222 C225 1.377 . S
C223 N220 1.382 . S
C223 N221 1.371 . S
C223 C226 1.480 1_545 S
C224 N221 1.372 . S
C224 N222 1.361 . S
C224 C232 1.457 . S
C225 N220 1.363 . S
C225 N222 1.377 . S
C225 C238 1.479 . S
C226 C223 1.480 1_565 S
C226 C227 1.383 . S
C226 C231 1.385 . S
C227 H208 0.947 1_565 S
C227 C226 1.383 . S
C227 C228 1.388 . S
C228 H209 0.946 . S
C228 C227 1.388 . S
C228 C229 1.384 . S
C229 C228 1.384 . S
C229 C230 1.377 . S
C230 H210 0.953 . S
C230 C229 1.377 . S
C230 C231 1.369 . S
C231 H211 0.945 . S
C231 C226 1.385 . S
C231 C230 1.369 . S
C232 C224 1.457 . S
C232 C233 1.372 . S
C232 C237 1.364 . S
C233 H212 0.958 . S
C233 C232 1.372 . S
C233 C234 1.389 . S
C234 H213 0.949 1_545 S
C234 C233 1.389 . S
C234 C235 1.387 . S
C235 C234 1.387 . S
C235 C236 1.372 . S
C236 H214 0.950 . S
C236 C235 1.372 . S
C236 C237 1.379 . S
C237 H215 0.948 . S
C237 C232 1.364 . S
C237 C236 1.379 . S
C238 C207 1.383 . S
C238 C225 1.479 . S
C238 C239 1.398 . S
C239 C204 1.382 . S
C239 H216 0.951 . S
C239 C238 1.398 . S
C240 C241 1.384 . S
C240 H253 0.947 . S
C240 C275 1.382 . S
C241 C240 1.384 . S
C241 C242 1.378 . S
C242 C241 1.378 . S
C242 C243 1.378 . S
C242 H254 0.952 . S
C243 C242 1.378 . S
C243 H255 0.950 . S
C243 C274 1.383 . S
H244 C263 0.947 . S
H245 C264 0.946 . S
H246 C266 0.953 . S
H247 C267 0.945 . S
H248 C269 0.952 . S
H249 C270 0.949 . S
H250 C272 0.950 . S
H251 C273 0.948 . S
H252 C275 0.951 . S
H253 C240 0.947 . S
H254 C242 0.952 . S
H255 C243 0.950 . S
N256 C259 1.382 . S
N256 C261 1.363 . S
N257 C259 1.371 . S
N257 C260 1.372 . S
N258 C260 1.361 . S
N258 C261 1.377 . S
C259 N256 1.382 . S
C259 N257 1.371 . S
C259 C262 1.480 . S
C260 N257 1.372 . S
C260 N258 1.361 . S
C260 C268 1.457 . S
C261 N256 1.363 . S
C261 N258 1.377 . S
C261 C274 1.479 . S
C262 C259 1.480 . S
C262 C263 1.383 . S
C262 C267 1.385 . S
C263 H244 0.947 . S
C263 C262 1.383 . S
C263 C264 1.388 . S
C264 H245 0.946 . S
C264 C263 1.388 . S
C264 C265 1.384 . S
C265 C264 1.384 . S
C265 C266 1.377 . S
C266 H246 0.953 . S
C266 C265 1.377 . S
C266 C267 1.369 . S
C267 H247 0.945 . S
C267 C262 1.385 . S
C267 C266 1.369 . S
C268 C260 1.457 . S
C268 C269 1.372 . S
C268 C273 1.364 . S
C269 H248 0.952 . S
C269 C268 1.372 . S
C269 C270 1.389 . S
C270 H249 0.949 . S
C270 C269 1.389 . S
C270 C271 1.387 . S
C271 C270 1.387 . S
C271 C272 1.372 . S
C272 H250 0.950 . S
C272 C271 1.372 . S
C272 C273 1.379 . S
C273 H251 0.948 . S
C273 C268 1.364 . S
C273 C272 1.379 . S
C274 C243 1.383 . S
C274 C261 1.479 . S
C274 C275 1.398 . S
C275 C240 1.382 . S
C275 H252 0.951 . S
C275 C274 1.398 . S
H276 C284 0.950 . S
H277 C289 0.950 . S
H278 C286 0.950 . S
H279 C288 0.950 . S
H280 C290 0.950 . S
H281 C292 0.950 . S
H282 C294 0.950 . S
H283 C295 0.950 . S
C284 H276 0.950 . S
C284 C285 1.386 . S
C284 C286 1.391 . S
C285 C284 1.386 . S
C285 C289 1.393 . S
C286 H278 0.950 . S
C286 C284 1.391 . S
C286 C287 1.400 . S
C287 C286 1.400 . S
C287 C288 1.398 . S
C287 C293 1.491 . S
C288 H279 0.950 . S
C288 C287 1.398 . S
C288 C289 1.391 . S
C289 H277 0.950 . S
C289 C285 1.393 . S
C289 C288 1.391 . S
C290 H280 0.950 . S
C290 C291 1.386 . S
C290 C292 1.391 . S
C291 C290 1.386 . S
C291 C295 1.393 . S
C292 H281 0.950 . S
C292 C290 1.391 . S
C292 C293 1.400 . S
C293 C287 1.491 . S
C293 C292 1.400 . S
C293 C294 1.398 . S
C294 H282 0.950 . S
C294 C293 1.398 . S
C294 C295 1.391 . S
C295 H283 0.950 . S
C295 C291 1.393 . S
C295 C294 1.391 . S
H296 C304 0.950 . S
H297 C309 0.950 . S
H298 C306 0.950 . S
H299 C308 0.950 . S
H300 C310 0.950 . S
H301 C312 0.950 . S
H302 C314 0.950 . S
H303 C315 0.950 . S
C304 H296 0.950 . S
C304 C305 1.386 . S
C304 C306 1.391 . S
C305 C304 1.386 . S
C305 C309 1.393 . S
C306 H298 0.950 . S
C306 C304 1.391 . S
C306 C307 1.400 . S
C307 C306 1.400 . S
C307 C308 1.398 . S
C307 C313 1.491 . S
C308 H299 0.950 . S
C308 C307 1.398 . S
C308 C309 1.391 . S
C309 H297 0.950 . S
C309 C305 1.393 . S
C309 C308 1.391 . S
C310 H300 0.950 . S
C310 C311 1.386 . S
C310 C312 1.391 . S
C311 C310 1.386 . S
C311 C315 1.393 . S
C312 H301 0.950 . S
C312 C310 1.391 . S
C312 C313 1.400 . S
C313 C307 1.491 . S
C313 C312 1.400 . S
C313 C314 1.398 . S
C314 H302 0.950 . S
C314 C313 1.398 . S
C314 C315 1.391 . S
C315 H303 0.950 . S
C315 C311 1.393 . S
C315 C314 1.391 . S
H316 C324 0.950 . S
H317 C329 0.950 . S
H318 C326 0.950 . S
H319 C328 0.950 . S
H320 C330 0.950 . S
H321 C332 0.950 . S
H322 C334 0.950 . S
H323 C335 0.950 . S
C324 H316 0.950 . S
C324 C325 1.386 . S
C324 C326 1.391 . S
C325 C324 1.386 . S
C325 C329 1.393 . S
C326 H318 0.950 . S
C326 C324 1.391 . S
C326 C327 1.400 . S
C327 C326 1.400 . S
C327 C328 1.398 . S
C327 C333 1.491 . S
C328 H319 0.950 . S
C328 C327 1.398 . S
C328 C329 1.391 . S
C329 H317 0.950 . S
C329 C325 1.393 . S
C329 C328 1.391 . S
C330 H320 0.950 . S
C330 C331 1.386 . S
C330 C332 1.391 . S
C331 C330 1.386 . S
C331 C335 1.393 . S
C332 H321 0.950 . S
C332 C330 1.391 . S
C332 C333 1.400 . S
C333 C327 1.491 . S
C333 C332 1.400 . S
C333 C334 1.398 . S
C334 H322 0.950 . S
C334 C333 1.398 . S
C334 C335 1.391 . S
C335 H323 0.950 . S
C335 C331 1.393 . S
C335 C334 1.391 . S
H336 C344 0.950 . S
H337 C349 0.950 . S
H338 C346 0.950 . S
H339 C348 0.950 . S
H340 C350 0.950 . S
H341 C352 0.950 . S
H342 C354 0.950 . S
H343 C355 0.950 . S
C344 H336 0.950 . S
C344 C345 1.386 . S
C344 C346 1.391 . S
C345 C344 1.386 . S
C345 C349 1.393 . S
C346 H338 0.950 . S
C346 C344 1.391 . S
C346 C347 1.400 . S
C347 C346 1.400 . S
C347 C348 1.398 . S
C347 C353 1.491 . S
C348 H339 0.950 . S
C348 C347 1.398 . S
C348 C349 1.391 . S
C349 H337 0.950 . S
C349 C345 1.393 . S
C349 C348 1.391 . S
C350 H340 0.950 . S
C350 C351 1.386 . S
C350 C352 1.391 . S
C351 C350 1.386 . S
C351 C355 1.393 . S
C352 H341 0.950 . S
C352 C350 1.391 . S
C352 C353 1.400 . S
C353 C347 1.491 . S
C353 C352 1.400 . S
C353 C354 1.398 . S
C354 H342 0.950 . S
C354 C353 1.398 . S
C354 C355 1.391 . S
C355 H343 0.950 . S
C355 C351 1.393 . S
C355 C354 1.391 . S
H356 C364 0.950 . S
H357 C369 0.950 . S
H358 C366 0.950 . S
H359 C368 0.950 . S
H360 C370 0.950 . S
H361 C372 0.950 . S
H362 C374 0.950 . S
H363 C375 0.950 . S
C364 H356 0.950 . S
C364 C365 1.386 . S
C364 C366 1.391 . S
C365 C364 1.386 . S
C365 C369 1.393 . S
C366 H358 0.950 . S
C366 C364 1.391 . S
C366 C367 1.400 . S
C367 C366 1.400 . S
C367 C368 1.398 . S
C367 C373 1.491 . S
C368 H359 0.950 . S
C368 C367 1.398 . S
C368 C369 1.391 . S
C369 H357 0.950 . S
C369 C365 1.393 . S
C369 C368 1.391 . S
C370 H360 0.950 . S
C370 C371 1.386 . S
C370 C372 1.391 . S
C371 C370 1.386 . S
C371 C375 1.393 . S
C372 H361 0.950 . S
C372 C370 1.391 . S
C372 C373 1.400 . S
C373 C367 1.491 . S
C373 C372 1.400 . S
C373 C374 1.398 . S
C374 H362 0.950 . S
C374 C373 1.398 . S
C374 C375 1.391 . S
C375 H363 0.950 . S
C375 C371 1.393 . S
C375 C374 1.391 . S
H376 C384 0.950 . S
H377 C389 0.950 . S
H378 C386 0.950 . S
H379 C388 0.950 . S
H380 C390 0.950 . S
H381 C392 0.950 . S
H382 C394 0.950 . S
H383 C395 0.950 . S
C384 H376 0.950 . S
C384 C385 1.386 . S
C384 C386 1.391 . S
C385 C384 1.386 . S
C385 C389 1.393 . S
C386 H378 0.950 . S
C386 C384 1.391 . S
C386 C387 1.400 . S
C387 C386 1.400 . S
C387 C388 1.398 . S
C387 C393 1.491 . S
C388 H379 0.950 . S
C388 C387 1.398 . S
C388 C389 1.391 . S
C389 H377 0.950 . S
C389 C385 1.393 . S
C389 C388 1.391 . S
C390 H380 0.950 . S
C390 C391 1.386 . S
C390 C392 1.391 . S
C391 C390 1.386 . S
C391 C395 1.393 . S
C392 H381 0.950 . S
C392 C390 1.391 . S
C392 C393 1.400 . S
C393 C387 1.491 . S
C393 C392 1.400 . S
C393 C394 1.398 . S
C394 H382 0.950 . S
C394 C393 1.398 . S
C394 C395 1.391 . S
C395 H383 0.950 . S
C395 C391 1.393 . S
C395 C394 1.391 . S
H396 C404 0.950 . S
H397 C409 0.950 . S
H398 C406 0.950 . S
H399 C408 0.950 . S
H400 C410 0.950 . S
H401 C412 0.950 . S
H402 C414 0.950 . S
H403 C415 0.950 . S
C404 H396 0.950 . S
C404 C405 1.386 . S
C404 C406 1.391 . S
C405 C404 1.386 . S
C405 C409 1.393 . S
C406 H398 0.950 . S
C406 C404 1.391 . S
C406 C407 1.400 . S
C407 C406 1.400 . S
C407 C408 1.398 . S
C407 C413 1.491 . S
C408 H399 0.950 . S
C408 C407 1.398 . S
C408 C409 1.391 . S
C409 H397 0.950 . S
C409 C405 1.393 . S
C409 C408 1.391 . S
C410 H400 0.950 . S
C410 C411 1.386 . S
C410 C412 1.391 . S
C411 C410 1.386 . S
C411 C415 1.393 . S
C412 H401 0.950 . S
C412 C410 1.391 . S
C412 C413 1.400 . S
C413 C407 1.491 . S
C413 C412 1.400 . S
C413 C414 1.398 . S
C414 H402 0.950 . S
C414 C413 1.398 . S
C414 C415 1.391 . S
C415 H403 0.950 . S
C415 C411 1.393 . S
C415 C414 1.391 . S
H416 C424 0.950 . S
H417 C429 0.950 . S
H418 C426 0.950 . S
H419 C428 0.950 . S
H420 C430 0.950 . S
H421 C432 0.950 . S
H422 C434 0.950 . S
H423 C435 0.950 . S
C424 H416 0.950 . S
C424 C425 1.386 . S
C424 C426 1.391 . S
C425 C424 1.386 . S
C425 C429 1.393 . S
C426 H418 0.950 . S
C426 C424 1.391 . S
C426 C427 1.400 . S
C427 C426 1.400 . S
C427 C428 1.398 . S
C427 C433 1.491 . S
C428 H419 0.950 . S
C428 C427 1.398 . S
C428 C429 1.391 . S
C429 H417 0.950 . S
C429 C425 1.393 . S
C429 C428 1.391 . S
C430 H420 0.950 . S
C430 C431 1.386 . S
C430 C432 1.391 . S
C431 C430 1.386 . S
C431 C435 1.393 . S
C432 H421 0.950 . S
C432 C430 1.391 . S
C432 C433 1.400 . S
C433 C427 1.491 . S
C433 C432 1.400 . S
C433 C434 1.398 . S
C434 H422 0.950 . S
C434 C433 1.398 . S
C434 C435 1.391 . S
C435 H423 0.950 . S
C435 C431 1.393 . S
C435 C434 1.391 . S
H436 C444 0.950 . S
H437 C449 0.950 . S
H438 C446 0.950 . S
H439 C448 0.950 . S
H440 C450 0.950 . S
H441 C452 0.950 . S
H442 C454 0.950 . S
H443 C455 0.950 . S
C444 H436 0.950 . S
C444 C445 1.386 . S
C444 C446 1.391 . S
C445 C444 1.386 . S
C445 C449 1.393 . S
C446 H438 0.950 . S
C446 C444 1.391 . S
C446 C447 1.400 . S
C447 C446 1.400 . S
C447 C448 1.398 . S
C447 C453 1.491 . S
C448 H439 0.950 . S
C448 C447 1.398 . S
C448 C449 1.391 . S
C449 H437 0.950 . S
C449 C445 1.393 . S
C449 C448 1.391 . S
C450 H440 0.950 . S
C450 C451 1.386 . S
C450 C452 1.391 . S
C451 C450 1.386 . S
C451 C455 1.393 . S
C452 H441 0.950 . S
C452 C450 1.391 . S
C452 C453 1.400 . S
C453 C447 1.491 . S
C453 C452 1.400 . S
C453 C454 1.398 . S
C454 H442 0.950 . S
C454 C453 1.398 . S
C454 C455 1.391 . S
C455 H443 0.950 . S
C455 C451 1.393 . S
C455 C454 1.391 . S
H456 C464 0.950 . S
H457 C469 0.950 . S
H458 C466 0.950 . S
H459 C468 0.950 . S
H460 C470 0.950 . S
H461 C472 0.950 . S
H462 C474 0.950 . S
H463 C475 0.950 . S
C464 H456 0.950 . S
C464 C465 1.386 . S
C464 C466 1.391 . S
C465 C464 1.386 . S
C465 C469 1.393 . S
C466 H458 0.950 . S
C466 C464 1.391 . S
C466 C467 1.400 . S
C467 C466 1.400 . S
C467 C468 1.398 . S
C467 C473 1.491 . S
C468 H459 0.950 . S
C468 C467 1.398 . S
C468 C469 1.391 . S
C469 H457 0.950 . S
C469 C465 1.393 . S
C469 C468 1.391 . S
C470 H460 0.950 . S
C470 C471 1.386 . S
C470 C472 1.391 . S
C471 C470 1.386 . S
C471 C475 1.393 . S
C472 H461 0.950 . S
C472 C470 1.391 . S
C472 C473 1.400 . S
C473 C467 1.491 . S
C473 C472 1.400 . S
C473 C474 1.398 . S
C474 H462 0.950 . S
C474 C473 1.398 . S
C474 C475 1.391 . S
C475 H463 0.950 . S
C475 C471 1.393 . S
C475 C474 1.391 . S
H476 C484 0.950 . S
H477 C489 0.950 . S
H478 C486 0.950 . S
H479 C488 0.950 . S
H480 C490 0.950 . S
H481 C492 0.950 . S
H482 C494 0.950 . S
H483 C495 0.950 . S
C484 H476 0.950 . S
C484 C485 1.386 . S
C484 C486 1.391 . S
C485 C484 1.386 . S
C485 C489 1.393 . S
C486 H478 0.950 . S
C486 C484 1.391 . S
C486 C487 1.400 . S
C487 C486 1.400 . S
C487 C488 1.398 . S
C487 C493 1.491 . S
C488 H479 0.950 . S
C488 C487 1.398 . S
C488 C489 1.391 . S
C489 H477 0.950 . S
C489 C485 1.393 . S
C489 C488 1.391 . S
C490 H480 0.950 . S
C490 C491 1.386 . S
C490 C492 1.391 . S
C491 C490 1.386 . S
C491 C495 1.393 . S
C492 H481 0.950 . S
C492 C490 1.391 . S
C492 C493 1.400 . S
C493 C487 1.491 . S
C493 C492 1.400 . S
C493 C494 1.398 . S
C494 H482 0.950 . S
C494 C493 1.398 . S
C494 C495 1.391 . S
C495 H483 0.950 . S
C495 C491 1.393 . S
C495 C494 1.391 . S
H496 C504 0.950 . S
H497 C509 0.950 . S
H498 C506 0.950 . S
H499 C508 0.950 . S
H500 C510 0.950 . S
H501 C512 0.950 . S
H502 C514 0.950 . S
H503 C515 0.950 . S
C504 H496 0.950 . S
C504 C505 1.386 . S
C504 C506 1.391 . S
C505 C504 1.386 . S
C505 C509 1.393 . S
C506 H498 0.950 . S
C506 C504 1.391 . S
C506 C507 1.400 . S
C507 C506 1.400 . S
C507 C508 1.398 . S
C507 C513 1.491 . S
C508 H499 0.950 . S
C508 C507 1.398 . S
C508 C509 1.391 . S
C509 H497 0.950 . S
C509 C505 1.393 . S
C509 C508 1.391 . S
C510 H500 0.950 . S
C510 C511 1.386 . S
C510 C512 1.391 . S
C511 C510 1.386 . S
C511 C515 1.393 . S
C512 H501 0.950 . S
C512 C510 1.391 . S
C512 C513 1.400 . S
C513 C507 1.491 . S
C513 C512 1.400 . S
C513 C514 1.398 . S
C514 H502 0.950 . S
C514 C513 1.398 . S
C514 C515 1.391 . S
C515 H503 0.950 . S
C515 C511 1.393 . S
C515 C514 1.391 . S
H516 C524 0.950 . S
H517 C529 0.950 . S
H518 C526 0.950 . S
H519 C528 0.950 . S
H520 C530 0.950 . S
H521 C532 0.950 . S
H522 C534 0.950 . S
H523 C535 0.966 . S
C524 H516 0.950 . S
C524 C525 1.386 . S
C524 C526 1.391 . S
C525 C524 1.386 . S
C525 C529 1.393 . S
C526 H518 0.950 . S
C526 C524 1.391 . S
C526 C527 1.400 . S
C527 C526 1.400 . S
C527 C528 1.398 . S
C527 C533 1.491 . S
C528 H519 0.950 . S
C528 C527 1.398 . S
C528 C529 1.391 . S
C529 H517 0.950 . S
C529 C525 1.393 . S
C529 C528 1.391 . S
C530 H520 0.950 . S
C530 C531 1.386 1_554 S
C530 C532 1.391 . S
C531 C530 1.386 1_556 S
C531 C535 1.393 1_556 S
C532 H521 0.950 . S
C532 C530 1.391 . S
C532 C533 1.400 . S
C533 C527 1.491 . S
C533 C532 1.400 . S
C533 C534 1.398 . S
C534 H522 0.950 . S
C534 C533 1.398 . S
C534 C535 1.391 . S
C535 H523 0.966 . S
C535 C531 1.393 1_554 S
C535 C534 1.391 . S
H536 C544 0.950 . S
H537 C549 0.950 . S
H538 C546 0.950 . S
H539 C548 0.950 . S
H540 C550 0.950 . S
H541 C552 0.950 . S
H542 C554 0.950 . S
H543 C555 0.950 . S
C544 H536 0.950 . S
C544 C545 1.385 1_565 S
C544 C546 1.392 . S
C545 C544 1.385 1_545 S
C545 C549 1.393 . S
C546 H538 0.950 . S
C546 C544 1.392 . S
C546 C547 1.400 1_565 S
C547 C546 1.400 1_545 S
C547 C548 1.398 . S
C547 C553 1.491 . S
C548 H539 0.950 . S
C548 C547 1.398 . S
C548 C549 1.391 . S
C549 H537 0.950 . S
C549 C545 1.393 . S
C549 C548 1.391 . S
C550 H540 0.950 . S
C550 C551 1.386 . S
C550 C552 1.391 . S
C551 C550 1.386 . S
C551 C555 1.393 1_545 S
C552 H541 0.950 . S
C552 C550 1.391 . S
C552 C553 1.400 . S
C553 C547 1.491 . S
C553 C552 1.400 . S
C553 C554 1.398 1_545 S
C554 H542 0.950 . S
C554 C553 1.398 1_565 S
C554 C555 1.391 . S
C555 H543 0.950 . S
C555 C551 1.393 1_565 S
C555 C554 1.391 . S
H556 C564 0.950 . S
H557 C569 0.950 . S
H558 C566 0.950 . S
H559 C568 0.950 . S
H560 C570 0.950 . S
H561 C572 0.950 . S
H562 C574 0.950 . S
H563 C575 0.950 . S
C564 H556 0.950 . S
C564 C565 1.386 . S
C564 C566 1.391 . S
C565 C564 1.386 . S
C565 C569 1.393 . S
C566 H558 0.950 . S
C566 C564 1.391 . S
C566 C567 1.400 . S
C567 C566 1.400 . S
C567 C568 1.398 . S
C567 C573 1.491 . S
C568 H559 0.950 . S
C568 C567 1.398 . S
C568 C569 1.391 . S
C569 H557 0.950 . S
C569 C565 1.393 . S
C569 C568 1.391 . S
C570 H560 0.950 . S
C570 C571 1.386 . S
C570 C572 1.391 . S
C571 C570 1.386 . S
C571 C575 1.393 . S
C572 H561 0.950 . S
C572 C570 1.391 . S
C572 C573 1.400 . S
C573 C567 1.491 . S
C573 C572 1.400 . S
C573 C574 1.398 . S
C574 H562 0.950 . S
C574 C573 1.398 . S
C574 C575 1.391 . S
C575 H563 0.950 . S
C575 C571 1.393 . S
C575 C574 1.391 . S
H576 C584 0.950 . S
H577 C589 0.950 . S
H578 C586 0.950 . S
H579 C588 0.950 . S
H580 C590 0.950 . S
H581 C592 0.950 . S
H582 C594 0.950 . S
H583 C595 0.950 . S
C584 H576 0.950 . S
C584 C585 1.386 . S
C584 C586 1.391 . S
C585 C584 1.386 . S
C585 C589 1.393 . S
C586 H578 0.950 . S
C586 C584 1.391 . S
C586 C587 1.400 . S
C587 C586 1.400 . S
C587 C588 1.398 . S
C587 C593 1.491 . S
C588 H579 0.950 . S
C588 C587 1.398 . S
C588 C589 1.391 . S
C589 H577 0.950 . S
C589 C585 1.393 . S
C589 C588 1.391 . S
C590 H580 0.950 . S
C590 C591 1.386 . S
C590 C592 1.391 . S
C591 C590 1.386 . S
C591 C595 1.393 . S
C592 H581 0.950 . S
C592 C590 1.391 . S
C592 C593 1.400 . S
C593 C587 1.491 . S
C593 C592 1.400 . S
C593 C594 1.398 . S
C594 H582 0.950 . S
C594 C593 1.398 . S
C594 C595 1.391 . S
C595 H583 0.950 . S
C595 C591 1.393 . S
C595 C594 1.391 . S
H596 C604 0.950 . S
H597 C609 0.950 . S
H598 C606 0.950 . S
H599 C608 0.950 . S
H600 C610 0.950 1_554 S
H601 C612 0.950 . S
H602 C614 0.950 . S
H603 C615 0.950 . S
C604 H596 0.950 . S
C604 C605 1.386 . S
C604 C606 1.391 . S
C605 C604 1.386 . S
C605 C609 1.393 . S
C606 H598 0.950 . S
C606 C604 1.391 . S
C606 C607 1.400 . S
C607 C606 1.400 . S
C607 C608 1.398 . S
C607 C613 1.491 . S
C608 H599 0.950 . S
C608 C607 1.398 . S
C608 C609 1.391 . S
C609 H597 0.950 . S
C609 C605 1.393 . S
C609 C608 1.391 . S
C610 H600 0.950 1_556 S
C610 C611 1.386 1_556 S
C610 C612 1.391 . S
C611 C610 1.386 1_554 S
C611 C615 1.393 1_554 S
C612 H601 0.950 . S
C612 C610 1.391 . S
C612 C613 1.400 . S
C613 C607 1.491 . S
C613 C612 1.400 . S
C613 C614 1.398 . S
C614 H602 0.950 . S
C614 C613 1.398 . S
C614 C615 1.391 . S
C615 H603 0.950 . S
C615 C611 1.393 1_556 S
C615 C614 1.391 . S
H616 C624 0.956 . S
H617 C629 0.950 . S
H618 C626 0.950 . S
H619 C628 0.950 . S
H620 C630 0.950 . S
H621 C632 0.950 . S
H622 C634 0.950 . S
H623 C635 0.950 . S
C624 H616 0.956 . S
C624 C625 1.379 1_655 S
C624 C626 1.392 . S
C625 C624 1.379 1_455 S
C625 C629 1.393 . S
C626 H618 0.950 . S
C626 C624 1.392 . S
C626 C627 1.400 1_655 S
C627 C626 1.400 1_455 S
C627 C628 1.398 . S
C627 C633 1.491 . S
C628 H619 0.950 . S
C628 C627 1.398 . S
C628 C629 1.391 . S
C629 H617 0.950 . S
C629 C625 1.393 . S
C629 C628 1.391 . S
C630 H620 0.950 . S
C630 C631 1.386 . S
C630 C632 1.391 . S
C631 C630 1.386 . S
C631 C635 1.393 1_455 S
C632 H621 0.950 . S
C632 C630 1.391 . S
C632 C633 1.400 . S
C633 C627 1.491 . S
C633 C632 1.400 . S
C633 C634 1.398 1_455 S
C634 H622 0.950 . S
C634 C633 1.398 1_655 S
C634 C635 1.391 . S
C635 H623 0.950 . S
C635 C631 1.393 1_655 S
C635 C634 1.391 . S
C285 C2 1.081 . S
C291 C265 1.083 . S
C305 C21 1.039 . S
C311 C193 1.005 . S
C325 C42 1.090 . S
C331 C229 1.052 . S
C345 C1 1.013 . S
C351 C241 1.034 . S
C371 C169 1.092 . S
C365 C22 1.093 . S
C391 C205 1.017 . S
C385 C41 1.020 . S
C405 C38 1.900 . S
C411 C121 1.850 . S
C425 C59 1.968 . S
C431 C133 1.939 . S
C445 C18 1.903 . S
C451 C61 1.869 . S
C471 C97 1.930 . S
C465 C39 1.964 . S
C491 C157 1.838 . S
C485 C58 1.905 . S
C505 C19 1.970 . S
C511 C85 1.902 . S
C531 C163 1.569 . S
C525 C9 1.506 . S
C545 C29 1.510 . S
C551 C91 1.564 . S
C565 C49 1.498 . S
C571 C127 1.567 . S
C591 C235 1.383 . S
C585 C28 1.356 . S
C611 C271 1.387 . S
C605 C48 1.360 . S
C625 C8 1.356 . S
C631 C199 1.383 . S
