# Generated by pormake.
# Topology pyr, (3,6)-cn, num edge types: 1
# Building blocks:
#     Node 0, Type 0, BuildingBlock: QEWDON_clean_linker_0, # of connection points: 3
#     Node 1, Type 0, BuildingBlock: QEWDON_clean_linker_0, # of connection points: 3
#     Node 2, Type 0, BuildingBlock: QEWDON_clean_linker_0, # of connection points: 3
#     Node 3, Type 0, BuildingBlock: QEWDON_clean_linker_0, # of connection points: 3
#     Node 4, Type 0, BuildingBlock: QEWDON_clean_linker_0, # of connection points: 3
#     Node 5, Type 0, BuildingBlock: QEWDON_clean_linker_0, # of connection points: 3
#     Node 6, Type 0, BuildingBlock: QEWDON_clean_linker_0, # of connection points: 3
#     Node 7, Type 0, BuildingBlock: QEWDON_clean_linker_0, # of connection points: 3
#     Node 8, Type 1, BuildingBlock: JUFBIX_clean_sbu_0, # of connection points: 6
#     Node 9, Type 1, BuildingBlock: JUFBIX_clean_sbu_0, # of connection points: 6
#     Node 10, Type 1, BuildingBlock: JUFBIX_clean_sbu_0, # of connection points: 6
#     Node 11, Type 1, BuildingBlock: JUFBIX_clean_sbu_0, # of connection points: 6
#     Edge 12, Type (0, 1), BuildingBlock: MIFKUJ_clean_linker_0, # of connection points: 2
#     Edge 13, Type (0, 1), BuildingBlock: MIFKUJ_clean_linker_0, # of connection points: 2
#     Edge 14, Type (0, 1), BuildingBlock: MIFKUJ_clean_linker_0, # of connection points: 2
#     Edge 15, Type (0, 1), BuildingBlock: MIFKUJ_clean_linker_0, # of connection points: 2
#     Edge 16, Type (0, 1), BuildingBlock: MIFKUJ_clean_linker_0, # of connection points: 2
#     Edge 17, Type (0, 1), BuildingBlock: MIFKUJ_clean_linker_0, # of connection points: 2
#     Edge 18, Type (0, 1), BuildingBlock: MIFKUJ_clean_linker_0, # of connection points: 2
#     Edge 19, Type (0, 1), BuildingBlock: MIFKUJ_clean_linker_0, # of connection points: 2
#     Edge 20, Type (0, 1), BuildingBlock: MIFKUJ_clean_linker_0, # of connection points: 2
#     Edge 21, Type (0, 1), BuildingBlock: MIFKUJ_clean_linker_0, # of connection points: 2
#     Edge 22, Type (0, 1), BuildingBlock: MIFKUJ_clean_linker_0, # of connection points: 2
#     Edge 23, Type (0, 1), BuildingBlock: MIFKUJ_clean_linker_0, # of connection points: 2
#     Edge 24, Type (0, 1), BuildingBlock: MIFKUJ_clean_linker_0, # of connection points: 2
#     Edge 25, Type (0, 1), BuildingBlock: MIFKUJ_clean_linker_0, # of connection points: 2
#     Edge 26, Type (0, 1), BuildingBlock: MIFKUJ_clean_linker_0, # of connection points: 2
#     Edge 27, Type (0, 1), BuildingBlock: MIFKUJ_clean_linker_0, # of connection points: 2
#     Edge 28, Type (0, 1), BuildingBlock: MIFKUJ_clean_linker_0, # of connection points: 2
#     Edge 29, Type (0, 1), BuildingBlock: MIFKUJ_clean_linker_0, # of connection points: 2
#     Edge 30, Type (0, 1), BuildingBlock: MIFKUJ_clean_linker_0, # of connection points: 2
#     Edge 31, Type (0, 1), BuildingBlock: MIFKUJ_clean_linker_0, # of connection points: 2
#     Edge 32, Type (0, 1), BuildingBlock: MIFKUJ_clean_linker_0, # of connection points: 2
#     Edge 33, Type (0, 1), BuildingBlock: MIFKUJ_clean_linker_0, # of connection points: 2
#     Edge 34, Type (0, 1), BuildingBlock: MIFKUJ_clean_linker_0, # of connection points: 2
#     Edge 35, Type (0, 1), BuildingBlock: MIFKUJ_clean_linker_0, # of connection points: 2
# Relax obj value: 0.163
# Max RMSD: 0.280
# Mean RMSD: 0.184
data_MOF--net-pyr--node1-JUFBIX_clean_sbu_0--node2-QEWDON_clean_linker_0--edge1-MIFKUJ_clean_linker_0
_symmetry_space_group_name_H-M    P1
_symmetry_Int_Tables_number       1
_symmetry_cell_setting            triclinic
loop_
_symmetry_equiv_pos_as_xyz
'x, y, z'
_cell_length_a     48.123481
_cell_length_b     46.19349
_cell_length_c     51.220544
_cell_angle_alpha  86.343479
_cell_angle_beta   90.385462
_cell_angle_gamma 101.14293
loop_
_atom_site_label
_atom_site_type_symbol
_atom_site_fract_x
_atom_site_fract_y
_atom_site_fract_z
_atom_type_partial_charge
H0 H 0.25746 0.24657 0.18132 0.0
C1 C 0.24544 0.23542 0.19811 0.0
C2 C 0.25294 0.20924 0.20979 0.0
C3 C 0.22431 0.24897 0.20888 0.0
H4 H 0.24344 0.17647 0.24226 0.0
C5 C 0.23819 0.19648 0.2331 0.0
C6 C 0.21647 0.20891 0.24448 0.0
C7 C 0.20992 0.23517 0.23185 0.0
C8 C 0.22385 0.28122 0.20081 0.0
H9 H 0.19493 0.24619 0.24095 0.0
C10 C 0.20173 0.29244 0.18658 0.0
C11 C 0.20468 0.32366 0.17948 0.0
C12 C 0.24777 0.30166 0.20799 0.0
H13 H 0.26478 0.29421 0.21883 0.0
C14 C 0.25034 0.33178 0.20156 0.0
H15 H 0.18309 0.27722 0.18063 0.0
C16 C 0.22927 0.34258 0.18749 0.0
H17 H 0.2323 0.36619 0.18275 0.0
H18 H 0.26904 0.34697 0.20742 0.0
H19 H 0.3628 0.87353 0.7731 0.0
C20 C 0.37582 0.86059 0.76357 0.0
C21 C 0.40469 0.86297 0.77007 0.0
C22 C 0.36327 0.84089 0.74527 0.0
H23 H 0.44313 0.84706 0.76184 0.0
C24 C 0.42102 0.84599 0.757 0.0
C25 C 0.40873 0.82724 0.73776 0.0
C26 C 0.37984 0.82456 0.73226 0.0
C27 C 0.33244 0.83573 0.74084 0.0
H28 H 0.37006 0.80931 0.71808 0.0
C29 C 0.31955 0.85816 0.72932 0.0
C30 C 0.29031 0.8525 0.72399 0.0
C31 C 0.31596 0.80774 0.74749 0.0
H32 H 0.32561 0.7902 0.75636 0.0
C33 C 0.28689 0.80223 0.74289 0.0
H34 H 0.33249 0.87953 0.72363 0.0
C35 C 0.2741 0.82439 0.73119 0.0
H36 H 0.25149 0.81951 0.72778 0.0
H37 H 0.27425 0.78065 0.74825 0.0
H38 H 0.7106 0.49089 0.92196 0.0
C39 C 0.70101 0.46777 0.92588 0.0
C40 C 0.7171 0.44807 0.93724 0.0
C41 C 0.67235 0.45797 0.92026 0.0
H42 H 0.7168 0.40322 0.95167 0.0
C43 C 0.70425 0.41841 0.94298 0.0
C44 C 0.67549 0.40823 0.93733 0.0
C45 C 0.65973 0.42822 0.9257 0.0
C46 C 0.6551 0.47924 0.91022 0.0
H47 H 0.63736 0.42102 0.92186 0.0
C48 C 0.6463 0.4796 0.88406 0.0
C49 C 0.62962 0.49981 0.87461 0.0
C50 C 0.64726 0.49919 0.92697 0.0
H51 H 0.65396 0.49916 0.94721 0.0
C52 C 0.63044 0.51906 0.91775 0.0
H53 H 0.65242 0.46417 0.87115 0.0
C54 C 0.62158 0.51937 0.89173 0.0
H55 H 0.60886 0.53525 0.88487 0.0
H56 H 0.62435 0.53434 0.93077 0.0
H57 H 0.91957 0.7698 0.39095 0.0
C58 C 0.90654 0.75426 0.40474 0.0
C59 C 0.91408 0.75246 0.43132 0.0
C60 C 0.88138 0.73721 0.396 0.0
H61 H 0.90105 0.73226 0.46959 0.0
C62 C 0.8963 0.73258 0.44888 0.0
C63 C 0.87113 0.71503 0.4402 0.0
C64 C 0.8642 0.71724 0.41352 0.0
C65 C 0.87079 0.74329 0.36957 0.0
H66 H 0.84483 0.70415 0.40635 0.0
C67 C 0.88033 0.73101 0.34779 0.0
C68 C 0.8693 0.73633 0.32275 0.0
C69 C 0.85033 0.7611 0.36636 0.0
H70 H 0.8427 0.77062 0.38305 0.0
C71 C 0.83956 0.7667 0.3416 0.0
H72 H 0.89622 0.71735 0.35039 0.0
C73 C 0.84892 0.7544 0.3199 0.0
H74 H 0.83981 0.7586 0.30097 0.0
H75 H 0.82374 0.78043 0.33925 0.0
H76 H 0.85882 0.88105 0.90806 0.0
C77 C 0.8702 0.89258 0.89111 0.0
C78 C 0.89522 0.88346 0.88237 0.0
C79 C 0.85832 0.91472 0.87682 0.0
H80 H 0.92729 0.89137 0.85177 0.0
C81 C 0.90815 0.8975 0.85863 0.0
C82 C 0.89709 0.91961 0.84361 0.0
C83 C 0.87252 0.92812 0.85344 0.0
C84 C 0.82755 0.91801 0.88096 0.0
H85 H 0.86296 0.94393 0.84174 0.0
C86 C 0.8158 0.93013 0.90292 0.0
C87 C 0.78618 0.93258 0.90333 0.0
C88 C 0.80918 0.90869 0.86041 0.0
H89 H 0.81684 0.89922 0.84368 0.0
C90 C 0.78097 0.91141 0.86062 0.0
H91 H 0.82928 0.93738 0.91918 0.0
C92 C 0.76975 0.92324 0.88148 0.0
H93 H 0.74767 0.92513 0.88039 0.0
H94 H 0.76755 0.90428 0.84427 0.0
H95 H 0.69011 0.20436 0.48193 0.0
C96 C 0.68247 0.20087 0.4622 0.0
C97 C 0.69873 0.18949 0.44411 0.0
C98 C 0.65616 0.2077 0.45515 0.0
H99 H 0.69982 0.17538 0.40475 0.0
C100 C 0.68815 0.18523 0.41864 0.0
C101 C 0.66178 0.19198 0.41132 0.0
C102 C 0.64594 0.20338 0.42972 0.0
C103 C 0.63827 0.21669 0.47523 0.0
H104 H 0.62541 0.2083 0.42447 0.0
C105 C 0.63356 0.24582 0.47505 0.0
C106 C 0.61722 0.2542 0.495 0.0
C107 C 0.62631 0.19583 0.49511 0.0
H108 H 0.6298 0.17332 0.4955 0.0
C109 C 0.6096 0.20378 0.51452 0.0
H110 H 0.6433 0.26201 0.45993 0.0
C111 C 0.60505 0.2327 0.51451 0.0
H112 H 0.59182 0.23817 0.52976 0.0
H113 H 0.6002 0.1875 0.52967 0.0
H114 H 0.43209 0.7085 0.20944 0.0
C115 C 0.41139 0.70381 0.20044 0.0
C116 C 0.40196 0.72586 0.18446 0.0
C117 C 0.39493 0.6751 0.20336 0.0
H118 H 0.36768 0.73616 0.16046 0.0
C119 C 0.37544 0.71911 0.17228 0.0
C120 C 0.35873 0.69067 0.17518 0.0
C121 C 0.36857 0.66878 0.19082 0.0
C122 C 0.4061 0.65088 0.21753 0.0
H123 H 0.35602 0.64656 0.19275 0.0
C124 C 0.41524 0.65301 0.24363 0.0
C125 C 0.42526 0.62941 0.25693 0.0
C126 C 0.40733 0.62513 0.20475 0.0
H127 H 0.40055 0.62308 0.18463 0.0
C128 C 0.41751 0.6019 0.21771 0.0
H129 H 0.41429 0.67283 0.25357 0.0
C130 C 0.42636 0.60393 0.24361 0.0
H131 H 0.43356 0.58525 0.25339 0.0
H132 H 0.41835 0.58213 0.20771 0.0
H133 H 0.10672 0.48186 0.65898 0.0
C134 C 0.09831 0.46504 0.64575 0.0
C135 C 0.11758 0.4529 0.6314 0.0
C136 C 0.06881 0.45417 0.64423 0.0
H137 H 0.12229 0.41857 0.60624 0.0
C138 C 0.10737 0.42897 0.61616 0.0
C139 C 0.07831 0.41752 0.61458 0.0
C140 C 0.05926 0.43147 0.62726 0.0
C141 C 0.04823 0.464 0.66211 0.0
H142 H 0.03686 0.42356 0.62446 0.0
C143 C 0.0549 0.49128 0.67399 0.0
C144 C 0.03711 0.49846 0.69338 0.0
C145 C 0.0224 0.44485 0.66919 0.0
H146 H 0.0165 0.4231 0.66188 0.0
C147 C 1.00393 0.45275 0.68701 0.0
H148 H 0.07416 0.50682 0.66875 0.0
C149 C 1.01127 0.4791 0.69926 0.0
H150 H 0.99726 0.48344 0.71435 0.0
H151 H 0.98433 0.43767 0.69225 0.0
Co152 Co 0.0258 0.06372 0.53038 0.0
C153 C 0.0464 0.01191 0.52638 0.0
Co154 Co 0.0676 0.06446 0.54841 0.0
C155 C 0.9698 0.07672 0.5183 0.0
C156 C 0.98433 0.0498 0.49085 0.0
N157 N 0.99121 0.06254 0.51361 0.0
N158 N 0.95019 0.07358 0.49912 0.0
C159 C 0.95924 0.0565 0.48196 0.0
H160 H 0.96943 0.09049 0.53457 0.0
H161 H 0.99744 0.0376 0.48063 0.0
C162 C 0.04675 0.1165 0.55158 0.0
N163 N 0.10239 0.06582 0.56427 0.0
C164 C 0.11135 0.04364 0.57821 0.0
C165 C 0.12443 0.08883 0.56414 0.0
N166 N 0.13813 0.05181 0.58675 0.0
C167 C 0.14643 0.08031 0.57804 0.0
C168 C 0.0724 0.08536 0.4948 0.0
O169 O 0.02565 0.10229 0.53986 0.0
O170 O 0.06755 0.10404 0.55736 0.0
O171 O 0.08666 0.07977 0.515 0.0
O172 O 0.04542 0.08019 0.49717 0.0
O173 O 0.06734 0.02485 0.53919 0.0
H174 H 0.12461 0.1103 0.55432 0.0
H175 H 0.09837 0.02191 0.5821 0.0
O176 O 0.02621 0.02518 0.52079 0.0
O177 O 1.00667 0.04723 0.56402 0.0
O178 O 0.04845 0.04916 0.58173 0.0
C179 C 0.02149 0.04281 0.58429 0.0
H180 H 0.94884 0.05001 0.46385 0.0
H181 H 0.16713 0.09378 0.58091 0.0
Co182 Co 0.51675 0.06457 0.0549 0.0
C183 C 0.51572 0.02284 0.09736 0.0
Co184 Co 0.54496 0.07931 0.0875 0.0
C185 C 0.49732 0.04565 1.00387 0.0
C186 C 0.46398 0.03897 0.03234 0.0
N187 N 0.49179 0.05023 0.02894 0.0
N188 N 0.47406 0.03173 0.99152 0.0
C189 C 0.45305 0.02766 1.00948 0.0
H190 H 0.51819 0.05177 0.99511 0.0
H191 H 0.4526 0.03785 0.05063 0.0
C192 C 0.54645 0.12083 0.04493 0.0
N193 N 0.57018 0.09372 0.11346 0.0
C194 C 0.56546 0.09789 0.13883 0.0
C195 C 0.5981 0.10418 0.1097 0.0
N196 N 0.58939 0.11067 0.151 0.0
C197 C 0.60992 0.11438 0.13261 0.0
C198 C 0.57151 0.05064 0.04867 0.0
O199 O 0.52862 0.1008 0.03469 0.0
O200 O 0.55557 0.11581 0.06778 0.0
O201 O 0.5756 0.06387 0.06996 0.0
O202 O 0.54682 0.04789 0.0387 0.0
O203 O 0.53427 0.04258 0.10713 0.0
H204 H 0.60917 0.10494 0.0913 0.0
H205 H 0.54473 0.0924 0.14793 0.0
O206 O 0.50525 0.02842 0.07518 0.0
O207 O 0.48673 0.08141 0.07134 0.0
O208 O 0.51399 0.09452 0.10449 0.0
C209 C 0.48992 0.09323 0.09334 0.0
H210 H 0.43157 0.01597 1.00684 0.0
H211 H 0.63204 0.12386 0.13533 0.0
Co212 Co 0.53686 0.58017 0.5652 0.0
C213 C 0.49651 0.58347 0.52646 0.0
Co214 Co 0.49525 0.55183 0.57422 0.0
C215 C 0.59739 0.59887 0.56124 0.0
C216 C 0.57535 0.63288 0.54749 0.0
N217 N 0.5712 0.60474 0.5576 0.0
N218 N 0.61786 0.62228 0.55381 0.0
C219 C 0.60394 0.64369 0.54507 0.0
H220 H 0.60124 0.57783 0.5694 0.0
H221 H 0.55863 0.64473 0.54213 0.0
C222 C 0.53574 0.54854 0.61274 0.0
N223 N 0.46094 0.52714 0.5824 0.0
C224 C 0.43482 0.53372 0.58299 0.0
C225 C 0.45735 0.49856 0.59125 0.0
N226 N 0.41501 0.51038 0.59204 0.0
C227 C 0.42926 0.48823 0.59718 0.0
C228 C 0.53205 0.52431 0.5473 0.0
O229 O 0.55166 0.56673 0.59709 0.0
O230 O 0.51008 0.53933 0.60662 0.0
O231 O 0.50759 0.52076 0.55765 0.0
O232 O 0.54864 0.54924 0.54802 0.0
O233 O 0.48059 0.56457 0.54169 0.0
H234 H 0.47426 0.48628 0.59401 0.0
H235 H 0.43061 0.55539 0.57722 0.0
O236 O 0.52183 0.59336 0.53328 0.0
O237 O 0.52499 0.61097 0.58258 0.0
O238 O 0.48341 0.58299 0.5909 0.0
C239 C 0.50045 0.60747 0.59271 0.0
H240 H 0.61359 0.66547 0.53693 0.0
H241 H 0.42035 0.46636 0.6056 0.0
Co242 Co 0.0548 0.59746 0.01503 0.0
C243 C 0.99963 0.56575 0.01798 0.0
Co244 Co 0.03355 0.59985 0.05247 0.0
C245 C 0.06353 0.60024 0.9589 0.0
C246 C 0.09927 0.59108 0.98073 0.0
N247 N 0.07281 0.59606 0.98353 0.0
N248 N 0.08325 0.59812 0.94079 0.0
C249 C 0.10571 0.59224 0.95459 0.0
H250 H 0.04279 0.60498 0.95446 0.0
H251 H 0.11302 0.58682 0.99673 0.0
C252 C 0.08877 0.63105 0.05009 0.0
N253 N 0.01695 0.60108 0.08485 0.0
C254 C 0.99341 0.61071 0.09182 0.0
C255 C 0.02786 0.59211 0.10764 0.0
N256 N 0.98915 0.60746 0.11799 0.0
C257 C 1.01078 0.59578 0.1279 0.0
C258 C 0.0642 0.55215 0.05259 0.0
O259 O 0.08785 0.62264 0.02694 0.0
O260 O 0.0668 0.62405 0.0644 0.0
O261 O 0.04793 0.56448 0.06581 0.0
O262 O 0.07004 0.56276 0.02921 0.0
O263 O 1.00051 0.57551 0.04068 0.0
H264 H 0.04746 0.58403 0.10958 0.0
H265 H 0.9798 0.62001 0.07809 0.0
O266 O 0.0215 0.5722 1.00332 0.0
O267 O 0.03953 0.63195 1.00106 0.0
O268 O 0.01903 0.63517 0.03846 0.0
C269 C 0.0239 0.64488 0.0146 0.0
H270 H 0.12525 0.58834 0.94646 0.0
H271 H 0.0146 0.59136 0.1485 0.0
H272 H 0.23816 0.18181 0.28827 0.0
H273 H 0.21463 0.16151 0.32942 0.0
H274 H 0.13671 0.18444 0.30108 0.0
H275 H 0.16039 0.2054 0.26008 0.0
H276 H 0.13779 0.19442 0.34891 0.0
H277 H 0.15302 0.1083 0.3085 0.0
H278 H 0.18019 0.07594 0.28748 0.0
H279 H 0.23199 0.07362 0.35588 0.0
H280 H 0.20533 0.10627 0.3772 0.0
H281 H 0.0491 0.10557 0.44892 0.0
H282 H 0.07273 0.12576 0.40754 0.0
H283 H 0.15289 0.11373 0.43976 0.0
H284 H 0.12933 0.09358 0.48121 0.0
H285 H 0.1503 0.09785 0.39021 0.0
H286 H 0.13323 0.18381 0.43048 0.0
H287 H 0.10436 0.21489 0.45102 0.0
H288 H 0.05373 0.21572 0.38172 0.0
H289 H 0.08208 0.18429 0.36089 0.0
C290 C 0.21591 0.18232 0.29047 0.0
C291 C 0.2015 0.19539 0.27013 0.0
C292 C 0.20223 0.17046 0.31435 0.0
C293 C 0.17326 0.17051 0.31897 0.0
C294 C 0.15891 0.18376 0.29871 0.0
C295 C 0.17266 0.1959 0.27493 0.0
C296 C 0.15814 0.15733 0.3447 0.0
C297 C 0.14036 0.17305 0.35753 0.0
C298 C 0.16131 0.12959 0.35706 0.0
C299 C 0.17737 0.10998 0.34433 0.0
C300 C 0.17033 0.10105 0.31899 0.0
C301 C 0.18562 0.08264 0.30703 0.0
C302 C 0.20785 0.0728 0.32031 0.0
C303 C 0.21479 0.0813 0.34561 0.0
C304 C 0.19959 0.09974 0.35764 0.0
C305 C 0.07179 0.10721 0.44736 0.0
C306 C 0.08704 0.0978 0.46894 0.0
C307 C 0.08546 0.11902 0.42346 0.0
C308 C 0.11503 0.12189 0.41997 0.0
C309 C 0.1302 0.11206 0.4414 0.0
C310 C 0.11658 0.10051 0.46538 0.0
C311 C 0.13003 0.13492 0.39424 0.0
C312 C 0.14776 0.11918 0.38148 0.0
C313 C 0.12658 0.16247 0.38181 0.0
C314 C 0.1096 0.18146 0.39423 0.0
C315 C 0.11581 0.19044 0.41969 0.0
C316 C 0.09956 0.20815 0.43138 0.0
C317 C 0.07717 0.21721 0.41771 0.0
C318 C 0.07105 0.20865 0.3923 0.0
C319 C 0.08721 0.19091 0.38054 0.0
H320 H 0.06462 0.23091 0.42679 0.0
H321 H 0.21966 0.05854 0.31102 0.0
H322 H 0.37945 0.87359 0.81542 0.0
H323 H 0.39889 0.90744 0.84844 0.0
H324 H 0.47841 0.92911 0.80679 0.0
H325 H 0.45867 0.89648 0.77253 0.0
H326 H 0.47504 0.91202 0.86903 0.0
H327 H 0.45269 0.9793 0.79908 0.0
H328 H 0.42167 0.99525 0.76479 0.0
H329 H 0.35785 0.99732 0.82246 0.0
H330 H 0.38833 0.98091 0.85705 0.0
H331 H 0.5172 0.02049 0.96172 0.0
H332 H 0.51293 0.99752 0.91987 0.0
H333 H 0.42253 0.99293 0.92149 0.0
H334 H 0.4268 0.01741 0.96228 0.0
H335 H 0.43984 0.00564 0.87421 0.0
H336 H 0.45571 0.93368 0.94233 0.0
H337 H 0.48184 0.91358 0.97854 0.0
H338 H 0.55245 0.91547 0.92727 0.0
H339 H 0.52701 0.93631 0.89086 0.0
C340 C 0.40093 0.88584 0.81287 0.0
C341 C 0.41728 0.88251 0.79095 0.0
C342 C 0.41209 0.90494 0.83198 0.0
C343 C 0.43998 0.92076 0.82993 0.0
C344 C 0.45681 0.91696 0.80866 0.0
C345 C 0.44549 0.89819 0.78919 0.0
C346 C 0.45087 0.94173 0.84993 0.0
C347 C 0.46804 0.9329 0.86993 0.0
C348 C 0.44095 0.96844 0.85131 0.0
C349 C 0.42271 0.97864 0.83061 0.0
C350 C 0.43194 0.9829 0.80441 0.0
C351 C 0.41448 0.99207 0.78493 0.0
C352 C 0.38778 0.99723 0.79143 0.0
C353 C 0.37853 0.9933 0.81745 0.0
C354 C 0.39591 0.98409 0.837 0.0
C355 C 0.49647 0.01519 0.95296 0.0
C356 C 0.47226 0.02049 0.96573 0.0
C357 C 0.49404 1.00173 0.92909 0.0
C358 C 0.46732 0.99291 0.91772 0.0
C359 C 0.44338 0.99935 0.92987 0.0
C360 C 0.44582 0.01308 0.95347 0.0
C361 C 0.46371 0.97581 0.89387 0.0
C362 C 0.44766 0.98524 0.87313 0.0
C363 C 0.47422 0.94933 0.89213 0.0
C364 C 0.48961 0.93692 0.91397 0.0
C365 C 0.47693 0.9301 0.93884 0.0
C366 C 0.49162 0.9186 0.9594 0.0
C367 C 0.51886 0.91344 0.95523 0.0
C368 C 0.53143 0.91969 0.93048 0.0
C369 C 0.5169 0.93138 0.90989 0.0
H370 H 0.53019 0.90449 0.97116 0.0
H371 H 0.37428 0.00432 0.77632 0.0
H372 H 0.57686 0.50049 0.85513 0.0
H373 H 0.56311 0.50453 0.80908 0.0
H374 H 0.64932 0.50631 0.78545 0.0
H375 H 0.66317 0.50212 0.83153 0.0
H376 H 0.62414 0.55186 0.7608 0.0
H377 H 0.60442 0.44653 0.77726 0.0
H378 H 0.58363 0.39943 0.80125 0.0
H379 H 0.50012 0.41689 0.78748 0.0
H380 H 0.52044 0.46433 0.76373 0.0
H381 H 0.59078 0.54917 0.62627 0.0
H382 H 0.60888 0.53603 0.66925 0.0
H383 H 0.52347 0.51491 0.69987 0.0
H384 H 0.50525 0.52659 0.65664 0.0
H385 H 0.5516 0.47697 0.72025 0.0
H386 H 0.57017 0.58303 0.70635 0.0
H387 H 0.58988 0.63047 0.68241 0.0
H388 H 0.67401 0.61365 0.69298 0.0
H389 H 0.65477 0.56558 0.71622 0.0
C390 C 0.59283 0.50166 0.84009 0.0
C391 C 0.62105 0.50098 0.84681 0.0
C392 C 0.58495 0.50381 0.81385 0.0
C393 C 0.60521 0.50558 0.79394 0.0
C394 C 0.6334 0.50489 0.80059 0.0
C395 C 0.64123 0.50233 0.82683 0.0
C396 C 0.59698 0.50905 0.76621 0.0
C397 C 0.60864 0.53532 0.75172 0.0
C398 C 0.57628 0.48771 0.75473 0.0
C399 C 0.56398 0.45912 0.76892 0.0
C400 C 0.58163 0.44045 0.77954 0.0
C401 C 0.56993 0.41367 0.79306 0.0
C402 C 0.54058 0.4052 0.79594 0.0
C403 C 0.52286 0.42348 0.78525 0.0
C404 C 0.53446 0.45031 0.77174 0.0
C405 C 0.57589 0.5415 0.64215 0.0
C406 C 0.54664 0.53913 0.63822 0.0
C407 C 0.58624 0.5341 0.66672 0.0
C408 C 0.56759 0.52509 0.68798 0.0
C409 C 0.5383 0.52186 0.68382 0.0
C410 C 0.52791 0.52863 0.65913 0.0
C411 C 0.57845 0.52004 0.71476 0.0
C412 C 0.56727 0.49348 0.72916 0.0
C413 C 0.59937 0.54133 0.72628 0.0
C414 C 0.61099 0.57054 0.7128 0.0
C415 C 0.59287 0.58934 0.70344 0.0
C416 C 0.60395 0.61636 0.69 0.0
C417 C 0.63317 0.62512 0.68624 0.0
C418 C 0.65138 0.60684 0.69589 0.0
C419 C 0.64039 0.57967 0.70914 0.0
H420 H 0.64169 0.64606 0.67585 0.0
H421 H 0.53156 0.38445 0.80641 0.0
H422 H 0.87733 0.67967 0.31985 0.0
H423 H 0.89292 0.65724 0.282 0.0
H424 H 0.89731 0.73932 0.23562 0.0
H425 H 0.8818 0.76198 0.27348 0.0
H426 H 0.87375 0.69161 0.20822 0.0
H427 H 0.95665 0.72147 0.25964 0.0
H428 H 0.98542 0.72486 0.29975 0.0
H429 H 0.97743 0.63047 0.306 0.0
H430 H 0.94824 0.62647 0.26612 0.0
H431 H 0.96908 0.65817 0.11017 0.0
H432 H 0.94219 0.67932 0.14219 0.0
H433 H 0.93595 0.59986 0.19268 0.0
H434 H 0.9629 0.579 0.16093 0.0
H435 H 0.96019 0.6482 0.21684 0.0
H436 H 0.87779 0.61876 0.16415 0.0
H437 H 0.85009 0.61631 0.12342 0.0
H438 H 0.85831 0.71073 0.11855 0.0
H439 H 0.88648 0.7138 0.15906 0.0
C440 C 0.88182 0.69302 0.30166 0.0
C441 C 0.87858 0.72267 0.29971 0.0
C442 C 0.89056 0.68014 0.28001 0.0
C443 C 0.8965 0.69672 0.25608 0.0
C444 C 0.89274 0.72613 0.25389 0.0
C445 C 0.88392 0.73903 0.27554 0.0
C446 C 0.90765 0.68359 0.23369 0.0
C447 C 0.89282 0.68239 0.20994 0.0
C448 C 0.93235 0.67132 0.2361 0.0
C449 C 0.95002 0.67366 0.26003 0.0
C450 C 0.96084 0.70141 0.26968 0.0
C451 C 0.97725 0.70345 0.29236 0.0
C452 C 0.98319 0.67789 0.30545 0.0
C453 C 0.97278 0.65024 0.29585 0.0
C454 C 0.95632 0.64808 0.27321 0.0
C455 C 0.96112 0.64497 0.12773 0.0
C456 C 0.96824 0.61716 0.13333 0.0
C457 C 0.94586 0.65704 0.14602 0.0
C458 C 0.93731 0.64123 0.16991 0.0
C459 C 0.94257 0.61253 0.17449 0.0
C460 C 0.9579 0.60063 0.15638 0.0
C461 C 0.92599 0.65557 0.19145 0.0
C462 C 0.94101 0.65726 0.21506 0.0
C463 C 0.90161 0.66836 0.18876 0.0
C464 C 0.88451 0.66654 0.16451 0.0
C465 C 0.87391 0.63904 0.15428 0.0
C466 C 0.85808 0.63753 0.13125 0.0
C467 C 0.8525 0.66335 0.11837 0.0
C468 C 0.86268 0.69074 0.12853 0.0
C469 C 0.87856 0.69238 0.15154 0.0
H470 H 0.84025 0.66214 0.10054 0.0
H471 H 0.99591 0.67951 0.32299 0.0
H472 H 0.29542 0.18476 0.23522 0.0
H473 H 0.33453 0.16551 0.21647 0.0
H474 H 0.30503 0.18445 0.13893 0.0
H475 H 0.26605 0.20397 0.15756 0.0
H476 H 0.32107 0.12978 0.14213 0.0
H477 H 0.36418 0.22784 0.16462 0.0
H478 H 0.37722 0.26835 0.19417 0.0
H479 H 0.42178 0.21425 0.24357 0.0
H480 H 0.40866 0.17325 0.21449 0.0
H481 H 0.44058 0.10511 0.07042 0.0
H482 H 0.40206 0.12453 0.08946 0.0
H483 H 0.44431 0.12706 0.16397 0.0
H484 H 0.48379 0.10921 0.14437 0.0
H485 H 0.42108 0.17032 0.16331 0.0
H486 H 0.37841 0.07208 0.14405 0.0
H487 H 0.36446 0.02911 0.11733 0.0
H488 H 0.31802 0.07921 0.06587 0.0
H489 H 0.33199 0.12261 0.09211 0.0
C490 C 0.29699 0.18476 0.21415 0.0
C491 C 0.277 0.19624 0.19818 0.0
C492 C 0.31977 0.17381 0.20331 0.0
C493 C 0.3235 0.17341 0.17596 0.0
C494 C 0.30323 0.18429 0.16 0.0
C495 C 0.28076 0.19572 0.17082 0.0
C496 C 0.34828 0.16188 0.16404 0.0
C497 C 0.34292 0.13901 0.14659 0.0
C498 C 0.3772 0.17275 0.17009 0.0
C499 C 0.38519 0.19738 0.18752 0.0
C500 C 0.37657 0.2245 0.18189 0.0
C501 C 0.384 0.24757 0.19854 0.0
C502 C 0.40025 0.24385 0.22077 0.0
C503 C 0.40916 0.21708 0.22636 0.0
C504 C 0.40174 0.19393 0.2098 0.0
C505 C 0.44182 0.10973 0.09091 0.0
C506 C 0.46576 0.1052 0.10563 0.0
C507 C 0.41928 0.1207 0.10207 0.0
C508 C 0.41899 0.1269 0.1288 0.0
C509 C 0.44315 0.12266 0.14345 0.0
C510 C 0.466 0.1122 0.13213 0.0
C511 C 0.39404 0.13801 0.14123 0.0
C512 C 0.39931 0.16088 0.1588 0.0
C513 C 0.36495 0.12669 0.13571 0.0
C514 C 0.3565 0.10068 0.11989 0.0
C515 C 0.36538 0.07399 0.12693 0.0
C516 C 0.35745 0.04955 0.11189 0.0
C517 C 0.34044 0.05145 0.08988 0.0
C518 C 0.33124 0.07778 0.0829 0.0
C519 C 0.33914 0.1023 0.09786 0.0
H520 H 0.33432 0.03251 0.07825 0.0
H521 H 0.40599 0.26173 0.23363 0.0
H522 H 0.25145 0.84472 0.68478 0.0
H523 H 0.22855 0.88173 0.66216 0.0
H524 H 0.27616 0.94915 0.70818 0.0
H525 H 0.29864 0.91186 0.73162 0.0
H526 H 0.22096 0.95385 0.7047 0.0
H527 H 0.29418 0.94532 0.64516 0.0
H528 H 0.32304 0.91973 0.61837 0.0
H529 H 0.24954 0.8844 0.57414 0.0
H530 H 0.22013 0.90944 0.60092 0.0
H531 H 0.17966 0.06922 0.62158 0.0
H532 H 0.20827 0.03794 0.64555 0.0
H533 H 0.16282 0.96174 0.60844 0.0
H534 H 0.13445 0.99289 0.58428 0.0
H535 H 0.221 0.96557 0.60771 0.0
H536 H 0.14754 0.97137 0.66969 0.0
H537 H 0.11884 0.99706 0.69657 0.0
H538 H 0.19373 0.03829 0.73604 0.0
H539 H 0.22294 0.01313 0.7091 0.0
C540 C 0.2569 0.86736 0.6903 0.0
C541 C 0.2768 0.87533 0.71007 0.0
C542 C 0.24401 0.88856 0.67713 0.0
C543 C 0.25091 0.91827 0.68325 0.0
C544 C 0.27064 0.92636 0.70308 0.0
C545 C 0.28359 0.90509 0.71631 0.0
C546 C 0.23704 0.94059 0.6691 0.0
C547 C 0.22141 0.95684 0.68351 0.0
C548 C 0.23727 0.94413 0.64144 0.0
C549 C 0.2549 0.92909 0.6252 0.0
C550 C 0.28412 0.93192 0.62985 0.0
C551 C 0.30059 0.91753 0.61464 0.0
C552 C 0.28812 0.9004 0.5946 0.0
C553 C 0.25917 0.89767 0.58968 0.0
C554 C 0.24259 0.91198 0.60486 0.0
C555 C 0.17588 0.04583 0.61848 0.0
C556 C 0.15475 0.03348 0.60113 0.0
C557 C 0.19209 0.02798 0.63228 0.0
C558 C 0.18753 0.99753 0.62884 0.0
C559 C 0.16663 0.9852 0.61138 0.0
C560 C 0.15028 1.00297 0.59777 0.0
C561 C 0.20458 0.97838 0.6433 0.0
C562 C 0.22082 0.96278 0.62891 0.0
C563 C 0.20499 0.97554 0.67095 0.0
C564 C 0.18746 0.99064 0.68717 0.0
C565 C 0.15792 0.98612 0.68393 0.0
C566 C 0.14155 1.00054 0.69921 0.0
C567 C 0.15446 0.01937 0.71794 0.0
C568 C 0.18376 0.02374 0.72148 0.0
C569 C 0.20023 0.0094 0.70623 0.0
H570 H 0.14175 0.03051 0.72976 0.0
H571 H 0.30091 0.88929 0.58284 0.0
H572 H 0.75957 0.47788 0.90519 0.0
H573 H 0.8092 0.49622 0.91692 0.0
H574 H 0.79124 0.46146 0.99645 0.0
H575 H 0.74184 0.44249 0.98468 0.0
H576 H 0.82129 0.52502 0.98737 0.0
H577 H 0.82389 0.42466 0.96565 0.0
H578 H 0.81596 0.38338 0.93654 0.0
H579 H 0.87053 0.43645 0.87847 0.0
H580 H 0.87844 0.47823 0.90711 0.0
H581 H 0.95311 0.53963 0.04666 0.0
H582 H 0.90645 0.51794 0.03048 0.0
H583 H 0.93771 0.53386 0.95108 0.0
H584 H 0.98487 0.55503 0.96723 0.0
H585 H 0.90126 0.48198 0.95679 0.0
H586 H 0.90128 0.58104 0.97625 0.0
H587 H 0.9097 0.62474 1.00257 0.0
H588 H 0.85055 0.57866 0.06062 0.0
H589 H 0.84209 0.53449 0.03482 0.0
C590 C 0.76634 0.47412 0.92512 0.0
C591 C 0.74707 0.45876 0.94406 0.0
C592 C 0.79457 0.48451 0.93176 0.0
C593 C 0.80373 0.48011 0.95751 0.0
C594 C 0.78447 0.46499 0.97648 0.0
C595 C 0.7564 0.45409 0.96974 0.0
C596 C 0.83336 0.49164 0.96484 0.0
C597 C 0.83878 0.51546 0.98096 0.0
C598 C 0.85613 0.47981 0.95554 0.0
C599 C 0.85148 0.45468 0.93839 0.0
C600 C 0.83396 0.42763 0.94656 0.0
C601 C 0.82952 0.40412 0.93017 0.0
C602 C 0.84266 0.40732 0.90563 0.0
C603 C 0.86033 0.43402 0.89746 0.0
C604 C 0.86481 0.45762 0.91377 0.0
C605 C 0.95019 0.53818 0.02576 0.0
C606 C 0.97259 0.54927 1.0082 0.0
C607 C 0.92347 0.5259 0.01653 0.0
C608 C 0.91845 0.52492 0.98955 0.0
C609 C 0.9411 0.53457 0.97197 0.0
C610 C 0.96801 0.54663 0.98123 0.0
C611 C 0.88924 0.51502 0.9799 0.0
C612 C 0.88385 0.49167 0.96319 0.0
C613 C 0.8665 0.52771 0.98822 0.0
C614 C 0.87123 0.55435 1.00369 0.0
C615 C 0.8902 0.58015 0.9947 0.0
C616 C 0.89497 0.60501 1.00952 0.0
C617 C 0.88071 0.60445 0.03327 0.0
C618 C 0.86159 0.57905 0.04222 0.0
C619 C 0.85678 0.5541 0.02749 0.0
H620 H 0.88444 0.62371 0.04473 0.0
H621 H 0.8392 0.38909 0.89297 0.0
H622 H 0.88192 0.68228 0.48492 0.0
H623 H 0.84706 0.65385 0.5164 0.0
H624 H 0.77936 0.67794 0.46953 0.0
H625 H 0.81344 0.70736 0.43909 0.0
H626 H 0.80134 0.67659 0.54392 0.0
H627 H 0.73311 0.61293 0.46295 0.0
H628 H 0.74122 0.58782 0.42345 0.0
H629 H 0.82199 0.57512 0.45302 0.0
H630 H 0.8142 0.59971 0.4929 0.0
H631 H 0.65879 0.67181 0.55226 0.0
H632 H 0.70912 0.67491 0.54605 0.0
H633 H 0.69708 0.57967 0.55097 0.0
H634 H 0.64612 0.57637 0.55551 0.0
H635 H 0.7261 0.59866 0.51073 0.0
H636 H 0.73835 0.62322 0.5975 0.0
H637 H 0.7313 0.64645 0.63832 0.0
H638 H 0.76481 0.73213 0.60157 0.0
H639 H 0.77163 0.70954 0.56039 0.0
C640 C 0.8596 0.68165 0.48143 0.0
C641 C 0.85055 0.69681 0.45917 0.0
C642 C 0.83979 0.66529 0.49935 0.0
C643 C 0.81074 0.66351 0.49498 0.0
C644 C 0.80173 0.67863 0.47294 0.0
C645 C 0.82133 0.69525 0.45538 0.0
C646 C 0.78902 0.64694 0.51339 0.0
C647 C 0.78503 0.65912 0.53712 0.0
C648 C 0.76848 0.62335 0.50486 0.0
C649 C 0.77307 0.60825 0.48094 0.0
C650 C 0.75251 0.60459 0.46115 0.0
C651 C 0.75708 0.59048 0.43865 0.0
C652 C 0.78212 0.57991 0.43571 0.0
C653 C 0.80263 0.58338 0.45528 0.0
C654 C 0.79817 0.59744 0.47782 0.0
C655 C 0.66669 0.65144 0.5521 0.0
C656 C 0.64812 0.62386 0.55387 0.0
C657 C 0.69573 0.65325 0.5491 0.0
C658 C 0.70712 0.62751 0.54839 0.0
C659 C 0.68886 0.59986 0.55157 0.0
C660 C 0.65965 0.59803 0.55427 0.0
C661 C 0.73716 0.62999 0.54037 0.0
C662 C 0.74269 0.61521 0.51844 0.0
C663 C 0.75931 0.65072 0.55096 0.0
C664 C 0.75555 0.6646 0.57578 0.0
C665 C 0.74412 0.64703 0.59806 0.0
C666 C 0.74015 0.6601 0.62128 0.0
C667 C 0.74762 0.69074 0.62254 0.0
C668 C 0.7591 0.70838 0.60058 0.0
C669 C 0.76309 0.69544 0.5773 0.0
H670 H 0.74451 0.70081 0.64053 0.0
H671 H 0.78561 0.56901 0.41828 0.0
H672 H 0.15139 0.33363 0.19279 0.0
H673 H 0.12568 0.36977 0.17135 0.0
H674 H 0.18768 0.38736 0.10921 0.0
H675 H 0.21323 0.35154 0.13068 0.0
H676 H 0.17942 0.43831 0.1229 0.0
H677 H 0.11461 0.34986 0.10213 0.0
H678 H 0.08257 0.30184 0.11157 0.0
H679 H 0.03115 0.34293 0.16023 0.0
H680 H 0.06311 0.39115 0.15133 0.0
H681 H 0.1087 0.52798 0.03482 0.0
H682 H 0.13003 0.48809 0.05554 0.0
H683 H 0.06998 0.47772 0.11899 0.0
H684 H 0.0489 0.51789 0.09857 0.0
H685 H 0.07635 0.4234 0.10568 0.0
H686 H 0.13915 0.51102 0.12696 0.0
H687 H 0.17096 0.55952 0.11981 0.0
H688 H 0.22607 0.52095 0.07294 0.0
H689 H 0.19431 0.47224 0.07944 0.0
C690 C 0.15891 0.34426 0.17402 0.0
C691 C 0.18412 0.33861 0.16323 0.0
C692 C 0.14427 0.36541 0.16174 0.0
C693 C 0.15433 0.38189 0.13824 0.0
C694 C 0.17906 0.37548 0.12718 0.0
C695 C 0.19355 0.35441 0.13935 0.0
C696 C 0.14024 0.40654 0.12575 0.0
C697 C 0.15692 0.43466 0.11881 0.0
C698 C 0.11063 0.40297 0.12091 0.0
C699 C 0.09142 0.37404 0.12629 0.0
C700 C 0.09659 0.34861 0.11501 0.0
C701 C 0.07843 0.32136 0.12023 0.0
C702 C 0.05489 0.31932 0.13655 0.0
C703 C 0.04942 0.34454 0.14763 0.0
C704 C 0.06754 0.37183 0.14249 0.0
C705 C 0.09988 0.51723 0.05316 0.0
C706 C 0.07682 0.52656 0.06477 0.0
C707 C 0.1123 0.49429 0.06519 0.0
C708 C 0.10202 0.47943 0.08923 0.0
C709 C 0.07863 0.48837 0.10057 0.0
C710 C 0.06651 0.51161 0.08877 0.0
C711 C 0.11563 0.45491 0.10248 0.0
C712 C 0.09888 0.42694 0.10965 0.0
C713 C 0.14516 0.45868 0.10775 0.0
C714 C 0.16412 0.48802 0.1034 0.0
C715 C 0.15787 0.51292 0.11486 0.0
C716 C 0.17593 0.54045 0.11098 0.0
C717 C 0.20047 0.54335 0.09585 0.0
C718 C 0.20701 0.51869 0.0846 0.0
C719 C 0.18898 0.49111 0.08837 0.0
H720 H 0.21444 0.56467 0.0929 0.0
H721 H 0.04084 0.29821 0.14057 0.0
H722 H 0.63707 0.3708 0.90913 0.0
H723 H 0.61359 0.32004 0.92214 0.0
H724 H 0.65922 0.32481 0.99501 0.0
H725 H 0.68248 0.37544 0.98232 0.0
H726 H 0.65948 0.27323 0.97297 0.0
H727 H 0.59043 0.33297 0.99175 0.0
H728 H 0.55943 0.36859 0.98046 0.0
H729 H 0.51635 0.3112 0.92407 0.0
H730 H 0.54738 0.2754 0.9348 0.0
H731 H 0.58528 0.16664 0.06177 0.0
H732 H 0.6053 0.21307 0.03782 0.0
H733 H 0.55313 0.18685 0.97135 0.0
H734 H 0.53262 0.13993 0.99541 0.0
H735 H 0.55497 0.24576 0.98261 0.0
H736 H 0.62024 0.18302 0.96814 0.0
H737 H 0.65061 0.1471 0.98047 0.0
H738 H 0.70072 0.20978 0.02869 0.0
H739 H 0.67037 0.24593 0.017 0.0
C740 C 0.64198 0.36106 0.92798 0.0
C741 C 0.66168 0.37716 0.94468 0.0
C742 C 0.6286 0.33205 0.93535 0.0
C743 C 0.63456 0.31871 0.9596 0.0
C744 C 0.65443 0.33461 0.97614 0.0
C745 C 0.66779 0.36353 0.96881 0.0
C746 C 0.62001 0.28832 0.96816 0.0
C747 C 0.63664 0.26726 0.97519 0.0
C748 C 0.59014 0.28024 0.97021 0.0
C749 C 0.57144 0.30169 0.96385 0.0
C750 C 0.5745 0.32806 0.97679 0.0
C751 C 0.5569 0.34826 0.97053 0.0
C752 C 0.536 0.3422 0.9515 0.0
C753 C 0.53259 0.31589 0.93876 0.0
C754 C 0.55017 0.29563 0.94494 0.0
C755 C 0.5779 0.17065 0.04209 0.0
C756 C 0.55744 0.14947 0.03044 0.0
C757 C 0.58948 0.19721 0.02839 0.0
C758 C 0.58101 0.20319 1.00269 0.0
C759 C 0.56003 0.18254 0.99114 0.0
C760 C 0.5484 0.15577 1.00488 0.0
C761 C 0.59454 0.23105 0.98814 0.0
C762 C 0.57776 0.25157 0.97995 0.0
C763 C 0.6243 0.23867 0.98498 0.0
C764 C 0.6429 0.21714 0.9918 0.0
C765 C 0.63763 0.18909 0.98151 0.0
C766 C 0.65485 0.16869 0.98837 0.0
C767 C 0.67755 0.17614 1.00538 0.0
C768 C 0.68312 0.20404 0.01552 0.0
C769 C 0.66594 0.22452 1.00875 0.0
H770 H 0.69086 0.16031 0.01068 0.0
H771 H 0.52239 0.35787 0.94668 0.0
H772 H 0.93053 0.81096 0.41613 0.0
H773 H 0.96799 0.84697 0.4341 0.0
H774 H 0.9897 0.77951 0.4882 0.0
H775 H 0.95229 0.74268 0.46969 0.0
H776 H 0.98318 0.82894 0.51245 0.0
H777 H 0.0373 0.80929 0.44185 0.0
H778 H 0.04773 0.79937 0.3966 0.0
H779 H 0.03468 0.88564 0.36966 0.0
H780 H 0.02373 0.89596 0.41467 0.0
H781 H 0.07031 0.96678 0.54863 0.0
H782 H 0.06305 0.91561 0.53498 0.0
H783 H 0.01269 0.93943 0.47 0.0
H784 H 0.01941 0.98978 0.48361 0.0
H785 H 0.05022 0.90226 0.45699 0.0
H786 H 0.98059 0.91151 0.52511 0.0
H787 H 0.96863 0.92158 0.56999 0.0
H788 H 0.01188 0.85402 0.60114 0.0
H789 H 0.02438 0.84385 0.55639 0.0
C790 C 0.94372 0.8034 0.43128 0.0
C791 C 0.93851 0.77376 0.44123 0.0
C792 C 0.96516 0.82413 0.44163 0.0
C793 C 0.98197 0.81585 0.46221 0.0
C794 C 0.9771 0.78629 0.47218 0.0
C795 C 0.95564 0.76535 0.46166 0.0
C796 C 1.00274 0.83906 0.47436 0.0
C797 C 0.99859 0.84444 0.50058 0.0
C798 C 0.02288 0.85927 0.45891 0.0
C799 C 0.02969 0.85339 0.43172 0.0
C800 C 0.03652 0.82611 0.42628 0.0
C801 C 0.04253 0.82042 0.40065 0.0
C802 C 0.04188 0.84186 0.38027 0.0
C803 C 0.03523 0.86906 0.38548 0.0
C804 C 0.02919 0.87488 0.41107 0.0
C805 C 0.05807 0.96104 0.53124 0.0
C806 C 0.04515 0.98205 0.51731 0.0
C807 C 0.05396 0.93193 0.52349 0.0
C808 C 0.03735 0.92383 0.50148 0.0
C809 C 0.02571 0.94526 0.48694 0.0
C810 C 0.02937 0.97397 0.49487 0.0
C811 C 0.02936 0.89276 0.49443 0.0
C812 C 0.03587 0.88598 0.46916 0.0
C813 C 1.01146 0.87124 0.51072 0.0
C814 C 1.00372 0.8772 0.53751 0.0
C815 C 0.98771 0.89897 0.54156 0.0
C816 C 0.98081 0.90467 0.56695 0.0
C817 C 0.98957 0.88852 0.58841 0.0
C818 C 1.00517 0.86657 0.5845 0.0
C819 C 0.01217 0.86083 0.55914 0.0
H820 H 0.98421 0.89296 0.60805 0.0
H821 H 0.04652 0.8374 0.36044 0.0
H822 H 0.41675 0.82807 0.68541 0.0
H823 H 0.43681 0.79271 0.66144 0.0
H824 H 0.45619 0.74928 0.73454 0.0
H825 H 0.43702 0.78549 0.75855 0.0
H826 H 0.49586 0.74738 0.69945 0.0
H827 H 0.39482 0.72452 0.70204 0.0
H828 H 0.34663 0.73472 0.69635 0.0
H829 H 0.36138 0.75206 0.61374 0.0
H830 H 0.40987 0.74247 0.61901 0.0
H831 H 0.45262 0.6045 0.62203 0.0
H832 H 0.44041 0.64267 0.64821 0.0
H833 H 0.51726 0.70218 0.62268 0.0
H834 H 0.53 0.66383 0.597 0.0
H835 H 0.429 0.69411 0.63645 0.0
H836 H 0.54164 0.74861 0.6698 0.0
H837 H 0.5874 0.73446 0.68085 0.0
H838 H 0.54491 0.64503 0.69984 0.0
H839 H 0.49893 0.65869 0.68909 0.0
C840 C 0.42592 0.81136 0.69628 0.0
C841 C 0.42529 0.80927 0.72373 0.0
C842 C 0.43721 0.79109 0.68262 0.0
C843 C 0.44735 0.76789 0.69619 0.0
C844 C 0.44837 0.76691 0.72366 0.0
C845 C 0.43746 0.78755 0.73736 0.0
C846 C 0.4547 0.74348 0.68177 0.0
C847 C 0.48131 0.73579 0.6856 0.0
C848 C 0.43537 0.72771 0.66428 0.0
C849 C 0.40606 0.73303 0.66096 0.0
C850 C 0.38784 0.73067 0.68269 0.0
C851 C 0.36048 0.73635 0.67954 0.0
C852 C 0.35097 0.74409 0.65471 0.0
C853 C 0.36879 0.7461 0.63296 0.0
C854 C 0.39621 0.74054 0.63602 0.0
C855 C 0.46693 0.62573 0.62196 0.0
C856 C 0.49233 0.6311 0.60749 0.0
C857 C 0.45991 0.64754 0.63694 0.0
C858 C 0.47808 0.6752 0.63772 0.0
C859 C 0.50318 0.68083 0.62285 0.0
C860 C 0.51034 0.65893 0.60802 0.0
C861 C 0.47044 0.6983 0.6537 0.0
C862 C 0.44367 0.70574 0.65018 0.0
C863 C 0.48929 0.71312 0.67208 0.0
C864 C 0.51689 0.70464 0.67838 0.0
C865 C 0.54208 0.72594 0.67635 0.0
C866 C 0.56806 0.718 0.68254 0.0
C867 C 0.56908 0.68885 0.69096 0.0
C868 C 0.54413 0.66757 0.69319 0.0
C869 C 0.51811 0.67539 0.68699 0.0
H870 H 0.58921 0.6828 0.69583 0.0
H871 H 0.32978 0.74848 0.6523 0.0
H872 H 0.92081 0.89194 0.80489 0.0
H873 H 0.94048 0.91204 0.76221 0.0
H874 H 0.92351 0.99744 0.77811 0.0
H875 H 0.903 0.97709 0.82061 0.0
H876 H 0.91446 0.99423 0.73034 0.0
H877 H 0.99489 0.97525 0.77839 0.0
H878 H 0.02389 0.94624 0.80515 0.0
H879 H 0.02136 0.88604 0.74428 0.0
H880 H 0.99205 0.9145 0.71727 0.0
H881 H 0.04731 0.03725 0.63237 0.0
H882 H 0.02641 0.01781 0.67484 0.0
H883 H 0.94398 0.99885 0.63937 0.0
H884 H 0.96481 0.0195 0.59698 0.0
H885 H 1.00365 0.97061 0.69772 0.0
H886 H 0.88986 0.9925 0.68308 0.0
H887 H 0.86537 0.02842 0.65941 0.0
H888 H 0.94185 0.09418 0.65861 0.0
H889 H 0.96669 0.05878 0.68253 0.0
C890 C 0.92146 0.91513 0.79963 0.0
C891 C 0.91022 0.93263 0.81701 0.0
C892 C 0.93297 0.92683 0.77484 0.0
C893 C 0.93445 0.95685 0.76626 0.0
C894 C 0.92299 0.9743 0.78352 0.0
C895 C 0.91113 0.96249 0.8082 0.0
C896 C 0.94755 0.96988 0.73956 0.0
C897 C 0.93394 0.98881 0.72338 0.0
C898 C 0.97347 0.96401 0.72978 0.0
C899 C 0.99104 0.94683 0.74594 0.0
C900 C 1.00037 0.95571 0.77079 0.0
C901 C 0.01687 0.93938 0.78599 0.0
C902 C 0.02439 0.91426 0.77645 0.0
C903 C 0.01548 0.90547 0.75166 0.0
C904 C 0.99893 0.9217 0.73639 0.0
C905 C 0.02465 0.02916 0.63348 0.0
C906 C 1.00799 0.03042 0.61071 0.0
C907 C 0.01255 0.01774 0.6581 0.0
C908 C 0.98314 0.00684 0.66131 0.0
C909 C 0.96651 0.00763 0.6384 0.0
C910 C 0.97859 0.01938 0.61377 0.0
C911 C 0.97033 0.99457 0.6883 0.0
C912 C 0.98405 0.97586 0.70458 0.0
C913 C 0.94499 1.00138 0.6985 0.0
C914 C 0.93019 0.02288 0.68433 0.0
C915 C 0.90142 0.01466 0.67792 0.0
C916 C 0.88749 0.03492 0.66445 0.0
C917 C 0.90208 0.06353 0.65743 0.0
C918 C 0.9306 0.07198 0.66396 0.0
C919 C 0.94462 0.05182 0.67746 0.0
H920 H 0.89126 0.07917 0.64698 0.0
H921 H 0.03718 0.90166 0.78824 0.0
H922 H 0.68909 0.20611 0.36434 0.0
H923 H 0.67106 0.19332 0.32089 0.0
H924 H 0.59084 0.15025 0.35505 0.0
H925 H 0.60881 0.16299 0.39864 0.0
H926 H 0.61271 0.11602 0.31973 0.0
H927 H 0.59339 0.21355 0.32223 0.0
H928 H 0.60444 0.26689 0.32906 0.0
H929 H 0.66781 0.2801 0.26857 0.0
H930 H 0.65744 0.22674 0.26164 0.0
H931 H 0.55407 0.09109 0.19262 0.0
H932 H 0.56046 0.1061 0.23755 0.0
H933 H 0.6388 0.1648 0.21502 0.0
H934 H 0.63189 0.15129 0.17015 0.0
H935 H 0.61135 0.19112 0.24629 0.0
H936 H 0.6356 0.09431 0.2472 0.0
H937 H 0.62695 0.04089 0.24061 0.0
H938 H 0.55701 0.02627 0.29461 0.0
H939 H 0.56504 0.0797 0.30126 0.0
C940 C 0.66758 0.19402 0.36256 0.0
C941 C 0.65032 0.18562 0.38485 0.0
C942 C 0.65726 0.18685 0.33774 0.0
C943 C 0.62955 0.17099 0.33474 0.0
C944 C 0.61225 0.16258 0.35695 0.0
C945 C 0.62246 0.17005 0.38177 0.0
C946 C 0.61911 0.16254 0.30843 0.0
C947 C 0.61187 0.13241 0.30375 0.0
C948 C 0.61856 0.18394 0.28753 0.0
C949 C 0.62478 0.21608 0.29156 0.0
C950 C 0.60984 0.22778 0.31052 0.0
C951 C 0.61595 0.25803 0.31439 0.0
C952 C 0.63685 0.27686 0.2993 0.0
C953 C 0.65164 0.26548 0.28026 0.0
C954 C 0.64563 0.23524 0.27633 0.0
C955 C 0.57249 0.10744 0.19711 0.0
C956 C 0.59259 0.11965 0.17759 0.0
C957 C 0.57626 0.1158 0.22293 0.0
C958 C 0.60036 0.13628 0.22983 0.0
C959 C 0.62008 0.14889 0.21029 0.0
C960 C 0.61623 0.14079 0.18455 0.0
C961 C 0.60558 0.14452 0.25733 0.0
C962 C 0.61182 0.17466 0.26229 0.0
C963 C 0.60552 0.12311 0.27843 0.0
C964 C 0.6007 0.09102 0.27448 0.0
C965 C 0.61824 0.07972 0.25751 0.0
C966 C 0.61347 0.04945 0.25379 0.0
C967 C 0.59138 0.03021 0.26712 0.0
C968 C 0.57407 0.04121 0.28425 0.0
C969 C 0.57873 0.07148 0.28802 0.0
H970 H 0.58773 0.00678 0.26421 0.0
H971 H 0.64155 0.30028 0.30232 0.0
H972 H 0.39795 0.6485 0.2974 0.0
H973 H 0.40934 0.64502 0.34406 0.0
H974 H 0.4827 0.60885 0.32619 0.0
H975 H 0.47148 0.61231 0.27967 0.0
H976 H 0.45234 0.57584 0.36408 0.0
H977 H 0.48919 0.67923 0.34546 0.0
H978 H 0.4875 0.7303 0.32931 0.0
H979 H 0.42168 0.733 0.38478 0.0
H980 H 0.42271 0.68177 0.40102 0.0
H981 H 0.52383 0.62664 0.49163 0.0
H982 H 0.50982 0.63851 0.44692 0.0
H983 H 0.43272 0.57345 0.45742 0.0
H984 H 0.44664 0.56126 0.50226 0.0
H985 H 0.46462 0.65792 0.42365 0.0
H986 H 0.42248 0.53667 0.40096 0.0
H987 H 0.42853 0.48657 0.41647 0.0
H988 H 0.51287 0.52165 0.44182 0.0
H989 H 0.50746 0.57184 0.42611 0.0
C990 C 0.4168 0.64034 0.3034 0.0
C991 C 0.43372 0.63051 0.28487 0.0
C992 C 0.42324 0.63828 0.33007 0.0
C993 C 0.44685 0.6266 0.33864 0.0
C994 C 0.46425 0.61769 0.32007 0.0
C995 C 0.4578 0.61967 0.29349 0.0
C996 C 0.45283 0.62229 0.36697 0.0
C997 C 0.45491 0.59381 0.37708 0.0
C998 C 0.45645 0.64574 0.38395 0.0
C999 C 0.45583 0.67655 0.37426 0.0
C1000 C 0.47419 0.69062 0.35406 0.0
C1001 C 0.47338 0.71962 0.34492 0.0
C1002 C 0.45444 0.73486 0.35596 0.0
C1003 C 0.43631 0.72115 0.37622 0.0
C1004 C 0.43702 0.69215 0.38541 0.0
C1005 C 0.50372 0.61505 0.48457 0.0
C1006 C 0.48648 0.59276 0.50043 0.0
C1007 C 0.49569 0.622 0.45903 0.0
C1008 C 0.47039 0.60668 0.44877 0.0
C1009 C 0.45249 0.58535 0.46491 0.0
C1010 C 0.46045 0.57844 0.49053 0.0
C1011 C 0.4639 0.61149 0.42064 0.0
C1012 C 0.46173 0.63997 0.41062 0.0
C1013 C 0.46073 0.58819 0.40357 0.0
C1014 C 0.46441 0.55802 0.41263 0.0
C1015 C 0.44234 0.53365 0.40976 0.0
C1016 C 0.44566 0.50525 0.41859 0.0
C1017 C 0.47103 0.50095 0.43021 0.0
C1018 C 0.49319 0.52502 0.43291 0.0
C1019 C 0.49 0.55345 0.42406 0.0
H1020 H 0.47354 0.47896 0.43707 0.0
H1021 H 0.45384 0.7573 0.34886 0.0
H1022 H 1.00547 0.53486 0.71465 0.0
H1023 H 0.0186 0.56487 0.75174 0.0
H1024 H 0.10443 0.55082 0.74651 0.0
H1025 H 0.0909 0.51874 0.71087 0.0
H1026 H 0.0864 0.53448 0.79205 0.0
H1027 H 0.08529 0.62198 0.73889 0.0
H1028 H 0.06752 0.65562 0.70644 0.0
H1029 H 0.99532 0.65537 0.75529 0.0
H1030 H 0.01242 0.62137 0.7879 0.0
H1031 H 0.12601 0.61036 0.90506 0.0
H1032 H 0.12193 0.60611 0.85796 0.0
H1033 H 0.03093 0.58709 0.86485 0.0
H1034 H 0.03469 0.59025 0.91225 0.0
H1035 H 0.05662 0.62587 0.81736 0.0
H1036 H 0.05619 0.53129 0.86604 0.0
H1037 H 0.07588 0.49901 0.89843 0.0
H1038 H 0.15454 0.51544 0.85589 0.0
H1039 H 0.13541 0.54822 0.82346 0.0
C1040 C 0.02726 0.53844 0.72115 0.0
C1041 C 0.04688 0.52363 0.71015 0.0
C1042 C 0.03488 0.55609 0.74217 0.0
C1043 C 0.06252 0.56004 0.75214 0.0
C1044 C 0.0829 0.54791 0.73934 0.0
C1045 C 0.07515 0.52975 0.71867 0.0
C1046 C 0.06879 0.57223 0.77819 0.0
C1047 C 0.08051 0.55492 0.7972 0.0
C1048 C 0.06052 0.5985 0.78536 0.0
C1049 C 0.05007 0.61892 0.76579 0.0
C1050 C 0.0655 0.62889 0.74264 0.0
C1051 C 0.05557 0.64807 0.72422 0.0
C1052 C 0.03028 0.65758 0.72878 0.0
C1053 C 0.0149 0.64798 0.75179 0.0
C1054 C 0.02473 0.62878 0.77027 0.0
C1055 C 0.10508 0.60536 0.89669 0.0
C1056 C 0.08069 0.59994 0.91266 0.0
C1057 C 0.10282 0.60335 0.86968 0.0
C1058 C 0.07616 0.59618 0.85805 0.0
C1059 C 0.0517 0.59285 0.87354 0.0
C1060 C 0.05392 0.59459 0.90066 0.0
C1061 C 0.07399 0.58801 0.83059 0.0
C1062 C 0.06293 0.60586 0.81165 0.0
C1063 C 0.08313 0.56242 0.82323 0.0
C1064 C 0.0945 0.54246 0.84253 0.0
C1065 C 0.07777 0.52822 0.86374 0.0
C1066 C 0.0888 0.50981 0.88207 0.0
C1067 C 0.11647 0.50525 0.87927 0.0
C1068 C 0.13313 0.51904 0.85807 0.0
C1069 C 0.1222 0.53753 0.8397 0.0
H1070 H 0.12498 0.49098 0.89348 0.0
H1071 H 0.02263 0.67244 0.7145 0.0
H1072 H 0.79755 0.9866 0.92803 0.0
H1073 H 0.76433 0.00767 0.95449 0.0
H1074 H 0.70297 0.92675 0.95195 0.0
H1075 H 0.73611 0.90541 0.9269 0.0
H1076 H 0.67987 0.97852 0.93635 0.0
H1077 H 0.73329 0.94302 1.00768 0.0
H1078 H 0.77675 0.94023 0.0327 0.0
H1079 H 0.79043 0.0336 0.04221 0.0
H1080 H 0.74723 0.03701 0.01691 0.0
H1081 H 0.56711 0.0048 0.01557 0.0
H1082 H 0.60447 0.98531 0.99462 0.0
H1083 H 0.6676 0.05107 0.02895 0.0
H1084 H 0.63005 0.06892 0.05169 0.0
H1085 H 0.69215 0.00994 0.02706 0.0
H1086 H 0.64157 0.04852 0.95738 0.0
H1087 H 0.60024 0.0555 0.9307 0.0
H1088 H 0.58464 0.96395 0.91391 0.0
H1089 H 0.62538 0.95615 0.94111 0.0
C1090 C 0.77744 0.97287 0.9339 0.0
C1091 C 0.77006 0.94395 0.92514 0.0
C1092 C 0.75808 0.98515 0.94885 0.0
C1093 C 0.73044 0.96919 0.95523 0.0
C1094 C 0.72367 0.94003 0.94737 0.0
C1095 C 0.74303 0.92766 0.93306 0.0
C1096 C 0.70809 0.98256 0.96914 0.0
C1097 C 0.68255 0.98514 0.95629 0.0
C1098 C 0.71131 0.99238 0.99493 0.0
C1099 C 0.73722 0.99033 1.01014 0.0
C1100 C 0.74571 0.96301 0.01488 0.0
C1101 C 0.77026 0.9613 0.02917 0.0
C1102 C 0.78639 0.98674 0.03897 0.0
C1103 C 0.77795 0.01392 0.03457 0.0
C1104 C 0.75343 0.01575 0.02027 0.0
C1105 C 0.58894 0.01519 0.01876 0.0
C1106 C 0.5951 0.03875 0.03547 0.0
C1107 C 0.61067 0.00414 1.00632 0.0
C1108 C 0.63974 0.01693 1.00896 0.0
C1109 C 0.64584 0.04035 0.02598 0.0
C1110 C 0.62409 0.05081 0.03909 0.0
C1111 C 0.66344 0.0059 0.99437 0.0
C1112 C 0.68928 0.00364 1.00705 0.0
C1113 C 0.66083 0.99713 0.96805 0.0
C1114 C 0.63637 1.00169 0.95155 0.0
C1115 C 0.62918 0.0298 0.94818 0.0
C1116 C 0.60581 0.03388 0.93301 0.0
C1117 C 0.58969 0.01011 0.92079 0.0
C1118 C 0.59699 0.98225 0.9236 0.0
C1119 C 0.62021 0.97798 0.9389 0.0
H1120 H 0.57161 0.01331 0.90904 0.0
H1121 H 0.80538 0.98537 0.05004 0.0
H1122 H 0.74736 0.19489 0.41489 0.0
H1123 H 0.7906 0.17702 0.42689 0.0
H1124 H 0.75594 0.14741 0.50349 0.0
H1125 H 0.71208 0.16398 0.4914 0.0
H1126 H 0.81552 0.17819 0.50227 0.0
H1127 H 0.75232 0.09781 0.46405 0.0
H1128 H 0.7204 0.07543 0.42983 0.0
H1129 H 0.78834 0.09623 0.3737 0.0
H1130 H 0.82056 0.11916 0.40752 0.0
H1131 H 0.91486 0.08443 0.53673 0.0
H1132 H 0.87249 0.10631 0.53005 0.0
H1133 H 0.89008 0.11799 0.4471 0.0
H1134 H 0.93162 0.09549 0.4537 0.0
H1135 H 0.83752 0.09577 0.45366 0.0
H1136 H 0.90096 0.17656 0.48947 0.0
H1137 H 0.93394 0.20122 0.52189 0.0
H1138 H 0.8681 0.18292 0.58018 0.0
H1139 H 0.83482 0.15775 0.54819 0.0
C1140 C 0.74877 0.18443 0.43425 0.0
C1141 C 0.726 0.18073 0.45206 0.0
C1142 C 0.77363 0.17448 0.44114 0.0
C1143 C 0.77639 0.16085 0.46604 0.0
C1144 C 0.75425 0.15806 0.48423 0.0
C1145 C 0.72922 0.16767 0.47726 0.0
C1146 C 0.80168 0.14792 0.47245 0.0
C1147 C 0.82026 0.15993 0.49192 0.0
C1148 C 0.80803 0.12454 0.45853 0.0
C1149 C 0.78877 0.11045 0.43825 0.0
C1150 C 0.76039 0.09782 0.44436 0.0
C1151 C 0.74225 0.085 0.42505 0.0
C1152 C 0.75232 0.08447 0.39959 0.0
C1153 C 0.78056 0.09669 0.39342 0.0
C1154 C 0.79878 0.10958 0.41265 0.0
C1155 C 0.90968 0.09192 0.51717 0.0
C1156 C 0.92631 0.08801 0.49572 0.0
C1157 C 0.88556 0.10449 0.51334 0.0
C1158 C 0.87807 0.11396 0.48804 0.0
C1159 C 0.89517 0.11066 0.46676 0.0
C1160 C 0.91891 0.09775 0.47054 0.0
C1161 C 0.85195 0.12629 0.4833 0.0
C1162 C 0.833 0.11404 0.46413 0.0
C1163 C 0.84556 0.14973 0.49727 0.0
C1164 C 0.86548 0.16499 0.51651 0.0
C1165 C 0.89357 0.17759 0.50925 0.0
C1166 C 0.91231 0.19169 0.52754 0.0
C1167 C 0.90314 0.19356 0.5531 0.0
C1168 C 0.87519 0.18141 0.56039 0.0
C1169 C 0.85637 0.16724 0.54218 0.0
H1170 H 0.91769 0.20449 0.56723 0.0
H1171 H 0.73824 0.07454 0.38466 0.0
H1172 H 0.30749 0.66123 0.19458 0.0
H1173 H 0.26214 0.65219 0.17163 0.0
H1174 H 0.30335 0.69512 0.10094 0.0
H1175 H 0.34853 0.70469 0.12397 0.0
H1176 H 0.25757 0.71451 0.10731 0.0
H1177 H 0.27973 0.61861 0.10901 0.0
H1178 H 0.2925 0.57197 0.12646 0.0
H1179 H 0.21742 0.55321 0.17425 0.0
H1180 H 0.20442 0.59998 0.15741 0.0
H1181 H 0.13917 0.65326 0.02487 0.0
H1182 H 0.18583 0.66667 0.04517 0.0
H1183 H 0.14697 0.65048 0.12164 0.0
H1184 H 0.10037 0.6377 0.1017 0.0
H1185 H 0.19186 0.61738 0.11 0.0
H1186 H 0.17154 0.71636 0.10609 0.0
H1187 H 0.15885 0.76063 0.08338 0.0
H1188 H 0.23216 0.77064 0.03384 0.0
H1189 H 0.24506 0.72613 0.05602 0.0
C1190 C 0.30686 0.66844 0.17408 0.0
C1191 C 0.33146 0.68378 0.16108 0.0
C1192 C 0.28097 0.66321 0.16094 0.0
C1193 C 0.27932 0.67276 0.13445 0.0
C1194 C 0.30403 0.68766 0.12138 0.0
C1195 C 0.32981 0.69315 0.13456 0.0
C1196 C 0.25168 0.66845 0.1207 0.0
C1197 C 0.24343 0.69313 0.10765 0.0
C1198 C 0.233 0.64065 0.12123 0.0
C1199 C 0.2413 0.61304 0.1322 0.0
C1200 C 0.26614 0.60476 0.12352 0.0
C1201 C 0.27337 0.57824 0.13324 0.0
C1202 C 0.25584 0.55969 0.15153 0.0
C1203 C 0.23105 0.56765 0.16016 0.0
C1204 C 0.22374 0.59417 0.15054 0.0
C1205 C 0.14051 0.65328 0.04599 0.0
C1206 C 0.11609 0.64438 0.06167 0.0
C1207 C 0.16714 0.66087 0.05752 0.0
C1208 C 0.1697 0.65934 0.08484 0.0
C1209 C 0.14532 0.6517 0.1005 0.0
C1210 C 0.1187 0.64459 0.08904 0.0
C1211 C 0.19788 0.66342 0.09719 0.0
C1212 C 0.20617 0.63866 0.10982 0.0
C1213 C 0.2168 0.69093 0.09579 0.0
C1214 C 0.20909 0.71773 0.08252 0.0
C1215 C 0.1848 0.72782 0.09018 0.0
C1216 C 0.17761 0.753 0.07745 0.0
C1217 C 0.19464 0.76839 0.05712 0.0
C1218 C 0.21896 0.75867 0.04955 0.0
C1219 C 0.22623 0.73349 0.06222 0.0
H1220 H 0.18904 0.78788 0.04729 0.0
H1221 H 0.26142 0.53912 0.15895 0.0
H1222 H 0.14634 0.51038 0.62822 0.0
H1223 H 0.19788 0.52782 0.62626 0.0
H1224 H 0.20996 0.43757 0.6357 0.0
H1225 H 0.15888 0.42026 0.63863 0.0
H1226 H 0.24851 0.47171 0.66249 0.0
H1227 H 0.21025 0.47536 0.57473 0.0
H1228 H 0.17985 0.49172 0.54007 0.0
H1229 H 0.21941 0.58218 0.54888 0.0
H1230 H 0.24981 0.56633 0.58385 0.0
H1231 H 0.3732 0.46163 0.59746 0.0
H1232 H 0.32382 0.45967 0.60863 0.0
H1233 H 0.33881 0.55475 0.60806 0.0
H1234 H 0.38878 0.55706 0.59772 0.0
H1235 H 0.28836 0.52783 0.58098 0.0
H1236 H 0.33247 0.52125 0.66439 0.0
H1237 H 0.36347 0.50251 0.6972 0.0
H1238 H 0.31313 0.41516 0.69507 0.0
H1239 H 0.28206 0.43328 0.66193 0.0
C1240 C 0.16008 0.49438 0.63036 0.0
C1241 C 0.1486 0.46394 0.63313 0.0
C1242 C 0.18947 0.50432 0.62903 0.0
C1243 C 0.20778 0.48396 0.63035 0.0
C1244 C 0.19631 0.45371 0.63449 0.0
C1245 C 0.16707 0.44381 0.63591 0.0
C1246 C 0.23878 0.49355 0.6261 0.0
C1247 C 0.25719 0.48398 0.64466 0.0
C1248 C 0.25023 0.51019 0.60312 0.0
C1249 C 0.23202 0.5197 0.58211 0.0
C1250 C 0.2123 0.49875 0.56941 0.0
C1251 C 0.1951 0.50793 0.54969 0.0
C1252 C 0.19763 0.53798 0.54234 0.0
C1253 C 0.21742 0.55892 0.55464 0.0
C1254 C 0.23464 0.54985 0.57441 0.0
C1255 C 0.36628 0.4822 0.59994 0.0
C1256 C 0.3853 0.50949 0.59695 0.0
C1257 C 0.33792 0.48101 0.60622 0.0
C1258 C 0.3278 0.50704 0.60949 0.0
C1259 C 0.3463 0.53441 0.60569 0.0
C1260 C 0.37486 0.53565 0.59964 0.0
C1261 C 0.29782 0.50519 0.617 0.0
C1262 C 0.27968 0.51618 0.59907 0.0
C1263 C 0.28656 0.48958 0.64042 0.0
C1264 C 0.30503 0.47861 0.66055 0.0
C1265 C 0.32812 0.498 0.67078 0.0
C1266 C 0.34569 0.4875 0.68946 0.0
C1267 C 0.34029 0.45765 0.69818 0.0
C1268 C 0.31728 0.43827 0.68829 0.0
C1269 C 0.29966 0.44866 0.66958 0.0
H1270 H 0.35392 0.44956 0.71264 0.0
H1271 H 0.1843 0.54504 0.52706 0.0
H1272 H 0.89487 0.86684 0.93608 0.0
H1273 H 0.91468 0.82735 0.95904 0.0
H1274 H 0.94393 0.80331 0.88569 0.0
H1275 H 0.92316 0.84169 0.86259 0.0
H1276 H 0.92727 0.75455 0.91249 0.0
H1277 H 0.98877 0.8438 0.93581 0.0
H1278 H 1.00113 0.89302 0.95356 0.0
H1279 H 0.96673 0.85668 0.02838 0.0
H1280 H 0.95384 0.80728 0.01098 0.0
H1281 H 0.02543 0.66653 0.96281 0.0
H1282 H 1.00331 0.70566 0.94223 0.0
H1283 H 0.96962 0.72017 0.0169 0.0
H1284 H 0.99181 0.68084 0.03766 0.0
H1285 H 0.98734 0.77316 0.99093 0.0
H1286 H 0.92728 0.68367 0.96801 0.0
H1287 H 0.91565 0.6343 0.95049 0.0
H1288 H 0.94773 0.67103 0.87503 0.0
H1289 H 0.9599 0.72061 0.89217 0.0
C1290 C 0.9053 0.85315 0.92462 0.0
C1291 C 0.90734 0.85846 0.89709 0.0
C1292 C 0.91712 0.83046 0.938 0.0
C1293 C 0.93172 0.81199 0.92456 0.0
C1294 C 0.93321 0.81687 0.89706 0.0
C1295 C 0.92141 0.83946 0.8837 0.0
C1296 C 0.94517 0.78769 0.93878 0.0
C1297 C 0.94068 0.75901 0.92942 0.0
C1298 C 0.96236 0.7923 0.96151 0.0
C1299 C 0.97007 0.82192 0.97202 0.0
C1300 C 0.98366 0.84635 0.956 0.0
C1301 C 0.99079 0.87427 0.966 0.0
C1302 C 0.98464 0.87799 0.99206 0.0
C1303 C 0.97142 0.85377 1.00819 0.0
C1304 C 0.96422 0.82581 0.99828 0.0
C1305 C 0.0134 0.67798 0.97504 0.0
C1306 C 1.01071 0.67004 1.00217 0.0
C1307 C 1.00045 0.70052 0.96307 0.0
C1308 C 0.98416 0.71629 0.97762 0.0
C1309 C 0.98185 0.70877 1.00484 0.0
C1310 C 0.99464 0.686 0.01681 0.0
C1311 C 0.96962 0.74026 0.96445 0.0
C1312 C 0.97389 0.76878 0.974 0.0
C1313 C 0.95225 0.73554 0.94188 0.0
C1314 C 0.94475 0.70582 0.93144 0.0
C1315 C 0.93204 0.6812 0.94772 0.0
C1316 C 0.92532 0.65318 0.93786 0.0
C1317 C 0.93102 0.64952 0.9117 0.0
C1318 C 0.94336 0.6739 0.89531 0.0
C1319 C 0.95015 0.70197 0.90508 0.0
H1320 H 0.92581 0.62781 0.9041 0.0
H1321 H 0.99018 0.89962 0.99977 0.0
H1322 H 0.43353 0.76171 0.21921 0.0
H1323 H 0.46039 0.81222 0.21002 0.0
H1324 H 0.43713 0.80751 0.12866 0.0
H1325 H 0.41143 0.7571 0.13748 0.0
H1326 H 0.49004 0.83415 0.13223 0.0
H1327 H 0.4012 0.84105 0.17345 0.0
H1328 H 0.3658 0.83191 0.20913 0.0
H1329 H 0.42772 0.87561 0.26163 0.0
H1330 H 0.46359 0.88468 0.22629 0.0
H1331 H 0.48255 0.97445 0.07807 0.0
H1332 H 0.47032 0.92465 0.09872 0.0
H1333 H 0.51695 0.95354 0.16757 0.0
H1334 H 0.5296 0.00386 0.14688 0.0
H1335 H 0.4614 0.91592 0.17718 0.0
H1336 H 0.5476 0.91655 0.13096 0.0
H1337 H 0.57986 0.92728 0.09288 0.0
H1338 H 0.51998 0.87006 0.04753 0.0
H1339 H 0.48715 0.85932 0.08522 0.0
C1340 C 0.43455 0.77137 0.19933 0.0
C1341 C 0.42 0.75561 0.17915 0.0
C1342 C 0.44971 0.80028 0.19413 0.0
C1343 C 0.45044 0.81384 0.1687 0.0
C1344 C 0.43683 0.79762 0.14844 0.0
C1345 C 0.42187 0.76887 0.15358 0.0
C1346 C 0.46424 0.84524 0.16289 0.0
C1347 C 0.48379 0.85199 0.14212 0.0
C1348 C 0.45666 0.86861 0.17616 0.0
C1349 C 0.43514 0.86318 0.19736 0.0
C1350 C 0.40731 0.84849 0.19267 0.0
C1351 C 0.38716 0.84336 0.21281 0.0
C1352 C 0.39454 0.85308 0.23766 0.0
C1353 C 0.42206 0.86803 0.24239 0.0
C1354 C 0.4423 0.87317 0.22232 0.0
C1355 C 0.49015 0.97038 0.09766 0.0
C1356 C 0.50718 0.99313 0.11079 0.0
C1357 C 0.48319 0.94185 0.10939 0.0
C1358 C 0.49301 0.93539 0.13452 0.0
C1359 C 0.50929 0.95813 0.1481 0.0
C1360 C 0.51652 0.98679 0.13624 0.0
C1361 C 0.48634 0.9046 0.14604 0.0
C1362 C 0.46819 0.89802 0.16781 0.0
C1363 C 0.4949 0.88135 0.13349 0.0
C1364 C 0.51485 0.88724 0.11091 0.0
C1365 C 0.54124 0.90637 0.11283 0.0
C1366 C 0.55964 0.91245 0.09131 0.0
C1367 C 0.55196 0.89939 0.06779 0.0
C1368 C 0.5259 0.88015 0.06577 0.0
C1369 C 0.50741 0.87402 0.08722 0.0
H1370 H 0.56621 0.90416 0.05115 0.0
H1371 H 0.3789 0.8491 0.25323 0.0
H1372 H 0.0978 0.39645 0.5704 0.0
H1373 H 0.08746 0.34548 0.55744 0.0
H1374 H 0.02542 0.32216 0.61946 0.0
H1375 H 0.03669 0.37238 0.63343 0.0
H1376 H 0.05994 0.28554 0.62214 0.0
H1377 H 1.00647 0.3238 0.554 0.0
H1378 H 0.99749 0.35737 0.51688 0.0
H1379 H 0.06234 0.33105 0.47195 0.0
H1380 H 0.072 0.29761 0.50894 0.0
H1381 H 1.00532 0.14859 0.54205 0.0
H1382 H 1.00645 0.20011 0.55088 0.0
H1383 H 0.09055 0.20637 0.58255 0.0
H1384 H 0.0895 0.15465 0.57409 0.0
H1385 H 0.0404 0.25059 0.53306 0.0
H1386 H 0.09753 0.25105 0.63306 0.0
H1387 H 0.10195 0.21644 0.67091 0.0
H1388 H 0.02087 0.16409 0.65361 0.0
H1389 H 0.01578 0.1986 0.61591 0.0
C1390 C 0.08177 0.38054 0.58113 0.0
C1391 C 0.06826 0.38856 0.60309 0.0
C1392 C 0.07568 0.35145 0.57354 0.0
C1393 C 0.05568 0.32997 0.58751 0.0
C1394 C 0.04101 0.33833 0.60845 0.0
C1395 C 0.04725 0.36725 0.6162 0.0
C1396 C 0.05188 0.29832 0.58198 0.0
C1397 C 0.05556 0.27795 0.60265 0.0
C1398 C 0.04586 0.28829 0.55664 0.0
C1399 C 0.04013 0.30839 0.53435 0.0
C1400 C 0.01898 0.32535 0.53629 0.0
C1401 C 0.01374 0.34432 0.51525 0.0
C1402 C 0.02938 0.3464 0.4921 0.0
C1403 C 0.05026 0.32945 0.48991 0.0
C1404 C 0.05561 0.31045 0.51089 0.0
C1405 C 0.02405 0.16087 0.55099 0.0
C1406 C 0.0473 0.14749 0.55751 0.0
C1407 C 0.02469 0.19036 0.55588 0.0
C1408 C 0.04849 0.20699 0.56748 0.0
C1409 C 0.07182 0.19379 0.57386 0.0
C1410 C 0.0712 0.16425 0.56901 0.0
C1411 C 0.04883 0.2381 0.57314 0.0
C1412 C 0.04465 0.2583 0.55252 0.0
C1413 C 0.05375 0.24793 0.59864 0.0
C1414 C 0.05643 0.22727 0.62151 0.0
C1415 C 0.0806 0.23222 0.63741 0.0
C1416 C 0.08322 0.21261 0.65882 0.0
C1417 C 0.06174 0.18804 0.66461 0.0
C1418 C 0.03754 0.18308 0.64905 0.0
C1419 C 0.03479 0.20263 0.62764 0.0
H1420 H 0.06383 0.17287 0.68118 0.0
H1421 H 0.02528 0.3611 0.47583 0.0
H1422 H 0.61824 0.28629 0.53808 0.0
H1423 H 0.60687 0.33514 0.54077 0.0
H1424 H 0.59673 0.34222 0.45699 0.0
H1425 H 0.6069 0.2925 0.45427 0.0
H1426 H 0.62883 0.38895 0.52304 0.0
H1427 H 0.54392 0.38119 0.44298 0.0
H1428 H 0.51083 0.3434 0.42027 0.0
H1429 H 0.50795 0.28266 0.48771 0.0
H1430 H 0.54072 0.3202 0.51089 0.0
H1431 H 0.58064 0.52513 0.51936 0.0
H1432 H 0.59771 0.48274 0.50358 0.0
H1433 H 0.52258 0.42435 0.53452 0.0
H1434 H 0.50502 0.46656 0.54954 0.0
H1435 H 0.53594 0.4062 0.48981 0.0
H1436 H 0.58672 0.43664 0.56853 0.0
H1437 H 0.61686 0.47259 0.59539 0.0
H1438 H 0.68363 0.48376 0.53828 0.0
H1439 H 0.65371 0.44812 0.51093 0.0
C1440 C 0.61343 0.29811 0.52019 0.0
C1441 C 0.61297 0.28521 0.496 0.0
C1442 C 0.60726 0.32625 0.52174 0.0
C1443 C 0.60059 0.34228 0.49915 0.0
C1444 C 0.6014 0.3301 0.47476 0.0
C1445 C 0.60745 0.30177 0.4732 0.0
C1446 C 0.5914 0.37095 0.50166 0.0
C1447 C 0.60864 0.39282 0.51553 0.0
C1448 C 0.56495 0.37601 0.49212 0.0
C1449 C 0.54503 0.35336 0.4785 0.0
C1450 C 0.53616 0.35978 0.45295 0.0
C1451 C 0.51747 0.33841 0.44001 0.0
C1452 C 0.50738 0.3106 0.4525 0.0
C1453 C 0.51587 0.30415 0.47801 0.0
C1454 C 0.53452 0.32546 0.49105 0.0
C1455 C 0.56762 0.50328 0.52253 0.0
C1456 C 0.54157 0.49918 0.53589 0.0
C1457 C 0.57745 0.47906 0.51357 0.0
C1458 C 0.56165 0.45026 0.51821 0.0
C1459 C 0.53516 0.44632 0.53067 0.0
C1460 C 0.52519 0.4705 0.53936 0.0
C1461 C 0.57315 0.42397 0.51155 0.0
C1462 C 0.55638 0.40258 0.49686 0.0
C1463 C 0.59971 0.41902 0.52092 0.0
C1464 C 0.61789 0.43997 0.53758 0.0
C1465 C 0.60778 0.44688 0.56166 0.0
C1466 C 0.62482 0.46719 0.57697 0.0
C1467 C 0.65211 0.48052 0.56851 0.0
C1468 C 0.66247 0.47345 0.54478 0.0
C1469 C 0.64549 0.45319 0.52938 0.0
H1470 H 0.66525 0.49627 0.58036 0.0
H1471 H 0.49294 0.29408 0.44244 0.0
loop_
_geom_bond_atom_site_label_1
_geom_bond_atom_site_label_2
_geom_bond_distance
_geom_bond_site_symmetry_2
_ccdc_geom_bond_type
H0 C1 0.949 . S
C1 H0 0.949 . S
C1 C2 1.395 . S
C1 C3 1.391 . S
C2 C1 1.395 . S
C2 C5 1.390 . S
C3 C1 1.391 . S
C3 C7 1.387 . S
C3 C8 1.491 . S
H4 C5 0.950 . S
C5 C2 1.390 . S
C5 H4 0.950 . S
C5 C6 1.378 . S
C6 C5 1.378 . S
C6 C7 1.409 . S
C7 C3 1.387 . S
C7 C6 1.409 . S
C7 H9 0.951 . S
C8 C3 1.491 . S
C8 C10 1.382 . S
C8 C12 1.404 . S
H9 C7 0.951 . S
C10 C8 1.382 . S
C10 C11 1.390 . S
C10 H15 0.949 . S
C11 C10 1.390 . S
C11 C16 1.399 . S
C12 C8 1.404 . S
C12 H13 0.950 . S
C12 C14 1.375 . S
H13 C12 0.950 . S
C14 C12 1.375 . S
C14 C16 1.382 . S
C14 H18 0.950 . S
H15 C10 0.949 . S
C16 C11 1.399 . S
C16 C14 1.382 . S
C16 H17 0.952 . S
H17 C16 0.952 . S
H18 C14 0.950 . S
H19 C20 0.949 . S
C20 H19 0.949 . S
C20 C21 1.395 . S
C20 C22 1.391 . S
C21 C20 1.395 . S
C21 C24 1.390 . S
C22 C20 1.391 . S
C22 C26 1.387 . S
C22 C27 1.491 . S
H23 C24 0.950 . S
C24 C21 1.390 . S
C24 H23 0.950 . S
C24 C25 1.378 . S
C25 C24 1.378 . S
C25 C26 1.409 . S
C26 C22 1.387 . S
C26 C25 1.409 . S
C26 H28 0.951 . S
C27 C22 1.491 . S
C27 C29 1.382 . S
C27 C31 1.404 . S
H28 C26 0.951 . S
C29 C27 1.382 . S
C29 C30 1.390 . S
C29 H34 0.949 . S
C30 C29 1.390 . S
C30 C35 1.399 . S
C31 C27 1.404 . S
C31 H32 0.950 . S
C31 C33 1.375 . S
H32 C31 0.950 . S
C33 C31 1.375 . S
C33 C35 1.382 . S
C33 H37 0.950 . S
H34 C29 0.949 . S
C35 C30 1.399 . S
C35 C33 1.382 . S
C35 H36 0.952 . S
H36 C35 0.952 . S
H37 C33 0.950 . S
H38 C39 0.949 . S
C39 H38 0.949 . S
C39 C40 1.395 . S
C39 C41 1.391 . S
C40 C39 1.395 . S
C40 C43 1.390 . S
C41 C39 1.391 . S
C41 C45 1.387 . S
C41 C46 1.491 . S
H42 C43 0.950 . S
C43 C40 1.390 . S
C43 H42 0.950 . S
C43 C44 1.378 . S
C44 C43 1.378 . S
C44 C45 1.409 . S
C45 C41 1.387 . S
C45 C44 1.409 . S
C45 H47 0.951 . S
C46 C41 1.491 . S
C46 C48 1.382 . S
C46 C50 1.404 . S
H47 C45 0.951 . S
C48 C46 1.382 . S
C48 C49 1.390 . S
C48 H53 0.949 . S
C49 C48 1.390 . S
C49 C54 1.399 . S
C50 C46 1.404 . S
C50 H51 0.950 . S
C50 C52 1.375 . S
H51 C50 0.950 . S
C52 C50 1.375 . S
C52 C54 1.382 . S
C52 H56 0.950 . S
H53 C48 0.949 . S
C54 C49 1.399 . S
C54 C52 1.382 . S
C54 H55 0.952 . S
H55 C54 0.952 . S
H56 C52 0.950 . S
H57 C58 0.949 . S
C58 H57 0.949 . S
C58 C59 1.395 . S
C58 C60 1.391 . S
C59 C58 1.395 . S
C59 C62 1.390 . S
C60 C58 1.391 . S
C60 C64 1.387 . S
C60 C65 1.491 . S
H61 C62 0.950 . S
C62 C59 1.390 . S
C62 H61 0.950 . S
C62 C63 1.378 . S
C63 C62 1.378 . S
C63 C64 1.409 . S
C64 C60 1.387 . S
C64 C63 1.409 . S
C64 H66 0.951 . S
C65 C60 1.491 . S
C65 C67 1.382 . S
C65 C69 1.404 . S
H66 C64 0.951 . S
C67 C65 1.382 . S
C67 C68 1.390 . S
C67 H72 0.949 . S
C68 C67 1.390 . S
C68 C73 1.399 . S
C69 C65 1.404 . S
C69 H70 0.950 . S
C69 C71 1.375 . S
H70 C69 0.950 . S
C71 C69 1.375 . S
C71 C73 1.382 . S
C71 H75 0.950 . S
H72 C67 0.949 . S
C73 C68 1.399 . S
C73 C71 1.382 . S
C73 H74 0.952 . S
H74 C73 0.952 . S
H75 C71 0.950 . S
H76 C77 0.949 . S
C77 H76 0.949 . S
C77 C78 1.395 . S
C77 C79 1.391 . S
C78 C77 1.395 . S
C78 C81 1.390 . S
C79 C77 1.391 . S
C79 C83 1.387 . S
C79 C84 1.491 . S
H80 C81 0.950 . S
C81 C78 1.390 . S
C81 H80 0.950 . S
C81 C82 1.378 . S
C82 C81 1.378 . S
C82 C83 1.409 . S
C83 C79 1.387 . S
C83 C82 1.409 . S
C83 H85 0.951 . S
C84 C79 1.491 . S
C84 C86 1.382 . S
C84 C88 1.404 . S
H85 C83 0.951 . S
C86 C84 1.382 . S
C86 C87 1.390 . S
C86 H91 0.949 . S
C87 C86 1.390 . S
C87 C92 1.399 . S
C88 C84 1.404 . S
C88 H89 0.950 . S
C88 C90 1.375 . S
H89 C88 0.950 . S
C90 C88 1.375 . S
C90 C92 1.382 . S
C90 H94 0.950 . S
H91 C86 0.949 . S
C92 C87 1.399 . S
C92 C90 1.382 . S
C92 H93 0.952 . S
H93 C92 0.952 . S
H94 C90 0.950 . S
H95 C96 0.949 . S
C96 H95 0.949 . S
C96 C97 1.395 . S
C96 C98 1.391 . S
C97 C96 1.395 . S
C97 C100 1.390 . S
C98 C96 1.391 . S
C98 C102 1.387 . S
C98 C103 1.491 . S
H99 C100 0.950 . S
C100 C97 1.390 . S
C100 H99 0.950 . S
C100 C101 1.378 . S
C101 C100 1.378 . S
C101 C102 1.409 . S
C102 C98 1.387 . S
C102 C101 1.409 . S
C102 H104 0.951 . S
C103 C98 1.491 . S
C103 C105 1.382 . S
C103 C107 1.404 . S
H104 C102 0.951 . S
C105 C103 1.382 . S
C105 C106 1.390 . S
C105 H110 0.949 . S
C106 C105 1.390 . S
C106 C111 1.399 . S
C107 C103 1.404 . S
C107 H108 0.950 . S
C107 C109 1.375 . S
H108 C107 0.950 . S
C109 C107 1.375 . S
C109 C111 1.382 . S
C109 H113 0.950 . S
H110 C105 0.949 . S
C111 C106 1.399 . S
C111 C109 1.382 . S
C111 H112 0.952 . S
H112 C111 0.952 . S
H113 C109 0.950 . S
H114 C115 0.949 . S
C115 H114 0.949 . S
C115 C116 1.395 . S
C115 C117 1.391 . S
C116 C115 1.395 . S
C116 C119 1.390 . S
C117 C115 1.391 . S
C117 C121 1.387 . S
C117 C122 1.491 . S
H118 C119 0.950 . S
C119 C116 1.390 . S
C119 H118 0.950 . S
C119 C120 1.378 . S
C120 C119 1.378 . S
C120 C121 1.409 . S
C121 C117 1.387 . S
C121 C120 1.409 . S
C121 H123 0.951 . S
C122 C117 1.491 . S
C122 C124 1.382 . S
C122 C126 1.404 . S
H123 C121 0.951 . S
C124 C122 1.382 . S
C124 C125 1.390 . S
C124 H129 0.949 . S
C125 C124 1.390 . S
C125 C130 1.399 . S
C126 C122 1.404 . S
C126 H127 0.950 . S
C126 C128 1.375 . S
H127 C126 0.950 . S
C128 C126 1.375 . S
C128 C130 1.382 . S
C128 H132 0.950 . S
H129 C124 0.949 . S
C130 C125 1.399 . S
C130 C128 1.382 . S
C130 H131 0.952 . S
H131 C130 0.952 . S
H132 C128 0.950 . S
H133 C134 0.949 . S
C134 H133 0.949 . S
C134 C135 1.395 . S
C134 C136 1.391 . S
C135 C134 1.395 . S
C135 C138 1.390 . S
C136 C134 1.391 . S
C136 C140 1.387 . S
C136 C141 1.491 . S
H137 C138 0.950 . S
C138 C135 1.390 . S
C138 H137 0.950 . S
C138 C139 1.378 . S
C139 C138 1.378 . S
C139 C140 1.409 . S
C140 C136 1.387 . S
C140 C139 1.409 . S
C140 H142 0.951 . S
C141 C136 1.491 . S
C141 C143 1.382 . S
C141 C145 1.404 . S
H142 C140 0.951 . S
C143 C141 1.382 . S
C143 C144 1.390 . S
C143 H148 0.949 . S
C144 C143 1.390 . S
C144 C149 1.399 . S
C145 C141 1.404 . S
C145 H146 0.950 . S
C145 C147 1.375 . S
H146 C145 0.950 . S
C147 C145 1.375 . S
C147 C149 1.382 . S
C147 H151 0.950 . S
H148 C143 0.949 . S
C149 C144 1.399 . S
C149 C147 1.382 . S
C149 H150 0.952 . S
H150 C149 0.952 . S
H151 C147 0.950 . S
Co152 N157 2.057 . S
Co152 O169 2.022 . S
Co152 O172 2.048 1_655 S
Co152 O176 2.117 . S
Co152 O177 2.020 . S
C153 O173 1.259 1_665 S
C153 O176 1.258 1_565 S
Co154 N163 2.057 . S
Co154 O170 2.117 . S
Co154 O171 2.020 . S
Co154 O173 2.021 . S
Co154 O178 2.062 . S
C155 N157 1.316 . S
C155 N158 1.347 . S
C155 H160 0.931 . S
C156 N157 1.375 . S
C156 C159 1.350 . S
C156 H161 0.930 . S
N157 Co152 2.057 . S
N157 C155 1.316 . S
N157 C156 1.375 . S
N158 C155 1.347 . S
N158 C159 1.373 . S
C159 C156 1.350 . S
C159 N158 1.373 . S
C159 H180 0.931 . S
H160 C155 0.931 . S
H161 C156 0.930 . S
C162 O169 1.250 1_455 S
C162 O170 1.258 . S
N163 Co154 2.057 . S
N163 C164 1.316 . S
N163 C165 1.375 . S
C164 N163 1.316 . S
C164 N166 1.347 . S
C164 H175 0.931 . S
C165 N163 1.375 . S
C165 C167 1.350 . S
C165 H174 0.930 . S
N166 C164 1.347 . S
N166 C167 1.373 . S
C167 C165 1.350 . S
C167 N166 1.373 . S
C167 H181 0.931 . S
C168 O171 1.256 . S
C168 O172 1.290 . S
O169 Co152 2.022 . S
O169 C162 1.250 1_655 S
O170 Co154 2.117 . S
O170 C162 1.258 . S
O171 Co154 2.020 . S
O171 C168 1.256 . S
O172 Co152 2.048 1_455 S
O172 C168 1.290 . S
O173 C153 1.259 1_445 S
O173 Co154 2.021 . S
H174 C165 0.930 . S
H175 C164 0.931 . S
O176 Co152 2.117 . S
O176 C153 1.258 1_545 S
O177 Co152 2.020 . S
O177 C179 1.256 . S
O178 Co154 2.062 . S
O178 C179 1.255 1_455 S
C179 O177 1.256 . S
C179 O178 1.255 1_655 S
H180 C159 0.931 . S
H181 C167 0.931 . S
Co182 N187 2.057 . S
Co182 O199 2.021 . S
Co182 O202 2.062 . S
Co182 O206 2.117 . S
Co182 O207 2.020 . S
C183 O203 1.259 1_565 S
C183 O206 1.258 1_565 S
Co184 N193 2.057 . S
Co184 O200 2.117 . S
Co184 O201 2.020 . S
Co184 O203 2.021 . S
Co184 O208 2.062 . S
C185 N187 1.316 1_556 S
C185 N188 1.347 . S
C185 H190 0.931 . S
C186 N187 1.375 1_565 S
C186 C189 1.350 1_554 S
C186 H191 0.930 . S
N187 Co182 2.057 . S
N187 C185 1.316 1_554 S
N187 C186 1.375 1_545 S
N188 C185 1.347 . S
N188 C189 1.373 1_545 S
C189 C186 1.350 1_556 S
C189 N188 1.373 1_565 S
C189 H210 0.931 . S
H190 C185 0.931 . S
H191 C186 0.930 . S
C192 O199 1.259 . S
C192 O200 1.258 . S
N193 Co184 2.057 . S
N193 C194 1.316 . S
N193 C195 1.375 . S
C194 N193 1.316 . S
C194 N196 1.347 . S
C194 H205 0.931 . S
C195 N193 1.375 . S
C195 C197 1.350 . S
C195 H204 0.930 . S
N196 C194 1.347 . S
N196 C197 1.373 . S
C197 C195 1.350 . S
C197 N196 1.373 . S
C197 H211 0.931 . S
C198 O201 1.256 . S
C198 O202 1.255 . S
O199 Co182 2.021 . S
O199 C192 1.259 . S
O200 Co184 2.117 . S
O200 C192 1.258 . S
O201 Co184 2.020 . S
O201 C198 1.256 . S
O202 Co182 2.062 . S
O202 C198 1.255 . S
O203 C183 1.259 1_545 S
O203 Co184 2.021 . S
H204 C195 0.930 . S
H205 C194 0.931 . S
O206 Co182 2.117 . S
O206 C183 1.258 1_545 S
O207 Co182 2.020 . S
O207 C209 1.256 . S
O208 Co184 2.062 . S
O208 C209 1.255 . S
C209 O207 1.256 . S
C209 O208 1.255 . S
H210 C189 0.931 . S
H211 C197 0.931 . S
Co212 N217 2.057 . S
Co212 O229 2.021 . S
Co212 O232 2.062 . S
Co212 O236 2.117 . S
Co212 O237 2.020 . S
C213 O233 1.259 . S
C213 O236 1.258 . S
Co214 N223 2.057 . S
Co214 O230 2.117 . S
Co214 O231 2.020 . S
Co214 O233 2.021 . S
Co214 O238 2.062 . S
C215 N217 1.316 . S
C215 N218 1.347 . S
C215 H220 0.931 . S
C216 N217 1.375 . S
C216 C219 1.350 . S
C216 H221 0.930 . S
N217 Co212 2.057 . S
N217 C215 1.316 . S
N217 C216 1.375 . S
N218 C215 1.347 . S
N218 C219 1.373 . S
C219 C216 1.350 . S
C219 N218 1.373 . S
C219 H240 0.931 . S
H220 C215 0.931 . S
H221 C216 0.930 . S
C222 O229 1.259 . S
C222 O230 1.258 . S
N223 Co214 2.057 . S
N223 C224 1.316 . S
N223 C225 1.375 . S
C224 N223 1.316 . S
C224 N226 1.347 . S
C224 H235 0.931 . S
C225 N223 1.375 . S
C225 C227 1.350 . S
C225 H234 0.930 . S
N226 C224 1.347 . S
N226 C227 1.373 . S
C227 C225 1.350 . S
C227 N226 1.373 . S
C227 H241 0.931 . S
C228 O231 1.256 . S
C228 O232 1.255 . S
O229 Co212 2.021 . S
O229 C222 1.259 . S
O230 Co214 2.117 . S
O230 C222 1.258 . S
O231 Co214 2.020 . S
O231 C228 1.256 . S
O232 Co212 2.062 . S
O232 C228 1.255 . S
O233 C213 1.259 . S
O233 Co214 2.021 . S
H234 C225 0.930 . S
H235 C224 0.931 . S
O236 Co212 2.117 . S
O236 C213 1.258 . S
O237 Co212 2.020 . S
O237 C239 1.256 . S
O238 Co214 2.062 . S
O238 C239 1.255 . S
C239 O237 1.256 . S
C239 O238 1.255 . S
H240 C219 0.931 . S
H241 C227 0.931 . S
Co242 N247 2.057 . S
Co242 O259 2.021 1_556 S
Co242 O262 2.062 1_556 S
Co242 O266 2.117 1_455 S
Co242 O267 2.020 . S
C243 O263 1.259 . S
C243 O266 1.258 1_554 S
Co244 N253 2.057 . S
Co244 O260 2.117 . S
Co244 O261 2.020 . S
Co244 O263 2.021 1_455 S
Co244 O268 2.062 . S
C245 N247 1.316 . S
C245 N248 1.347 . S
C245 H250 0.931 . S
C246 N247 1.375 . S
C246 C249 1.350 . S
C246 H251 0.930 1_455 S
N247 Co242 2.057 . S
N247 C245 1.316 . S
N247 C246 1.375 . S
N248 C245 1.347 . S
N248 C249 1.373 . S
C249 C246 1.350 . S
C249 N248 1.373 . S
C249 H270 0.931 . S
H250 C245 0.931 . S
H251 C246 0.930 1_655 S
C252 O259 1.259 . S
C252 O260 1.258 . S
N253 Co244 2.057 . S
N253 C254 1.316 1_455 S
N253 C255 1.375 . S
C254 N253 1.316 1_655 S
C254 N256 1.347 . S
C254 H265 0.931 . S
C255 N253 1.375 . S
C255 C257 1.350 . S
C255 H264 0.930 . S
N256 C254 1.347 . S
N256 C257 1.373 1_655 S
C257 C255 1.350 . S
C257 N256 1.373 1_455 S
C257 H271 0.931 . S
C258 O261 1.256 . S
C258 O262 1.255 . S
O259 Co242 2.021 1_554 S
O259 C252 1.259 . S
O260 Co244 2.117 . S
O260 C252 1.258 . S
O261 Co244 2.020 . S
O261 C258 1.256 . S
O262 Co242 2.062 1_554 S
O262 C258 1.255 . S
O263 C243 1.259 . S
O263 Co244 2.021 1_655 S
H264 C255 0.930 . S
H265 C254 0.931 . S
O266 Co242 2.117 1_655 S
O266 C243 1.258 1_556 S
O267 Co242 2.020 . S
O267 C269 1.256 1_556 S
O268 Co244 2.062 . S
O268 C269 1.255 . S
C269 O267 1.256 1_554 S
C269 O268 1.255 . S
H270 C249 0.931 . S
H271 C257 0.931 . S
H272 C290 0.951 . S
H273 C292 0.951 . S
H274 C294 0.950 . S
H275 C295 0.950 . S
H276 C297 0.950 . S
H277 C300 0.950 . S
H278 C301 0.950 . S
H279 C303 0.950 . S
H280 C304 0.950 . S
H281 C305 0.951 . S
H282 C307 0.951 . S
H283 C309 0.950 . S
H284 C310 0.950 . S
H285 C312 0.950 . S
H286 C315 0.950 . S
H287 C316 0.950 . S
H288 C318 0.950 . S
H289 C319 0.950 . S
C290 H272 0.951 . S
C290 C291 1.366 . S
C290 C292 1.388 . S
C291 C290 1.366 . S
C291 C295 1.385 . S
C292 H273 0.951 . S
C292 C290 1.388 . S
C292 C293 1.366 . S
C293 C292 1.366 . S
C293 C294 1.414 . S
C293 C296 1.499 . S
C294 H274 0.950 . S
C294 C293 1.414 . S
C294 C295 1.374 . S
C295 H275 0.950 . S
C295 C291 1.385 . S
C295 C294 1.374 . S
C296 C293 1.499 . S
C296 C297 1.373 . S
C296 C298 1.389 . S
C297 H276 0.950 . S
C297 C296 1.373 . S
C297 C313 1.377 . S
C298 C296 1.389 . S
C298 C299 1.524 . S
C298 C312 1.377 . S
C299 C298 1.524 . S
C299 C300 1.397 . S
C299 C304 1.363 . S
C300 H277 0.950 . S
C300 C299 1.397 . S
C300 C301 1.334 . S
C301 H278 0.950 . S
C301 C300 1.334 . S
C301 C302 1.287 . S
C302 C301 1.287 . S
C302 C303 1.524 . S
C302 H321 0.911 . S
C303 H279 0.950 . S
C303 C302 1.524 . S
C303 C304 1.415 . S
C304 H280 0.950 . S
C304 C299 1.363 . S
C304 C303 1.415 . S
C305 H281 0.951 . S
C305 C306 1.366 . S
C305 C307 1.388 . S
C306 C305 1.366 . S
C306 C310 1.385 . S
C307 H282 0.951 . S
C307 C305 1.388 . S
C307 C308 1.366 . S
C308 C307 1.366 . S
C308 C309 1.414 . S
C308 C311 1.499 . S
C309 H283 0.950 . S
C309 C308 1.414 . S
C309 C310 1.374 . S
C310 H284 0.950 . S
C310 C306 1.385 . S
C310 C309 1.374 . S
C311 C308 1.499 . S
C311 C312 1.373 . S
C311 C313 1.389 . S
C312 H285 0.950 . S
C312 C298 1.377 . S
C312 C311 1.373 . S
C313 C297 1.377 . S
C313 C311 1.389 . S
C313 C314 1.524 . S
C314 C313 1.524 . S
C314 C315 1.397 . S
C314 C319 1.363 . S
C315 H286 0.950 . S
C315 C314 1.397 . S
C315 C316 1.334 . S
C316 H287 0.950 . S
C316 C315 1.334 . S
C316 C317 1.287 . S
C317 C316 1.287 . S
C317 C318 1.524 . S
C317 H320 0.999 . S
C318 H288 0.950 . S
C318 C317 1.524 . S
C318 C319 1.415 . S
C319 H289 0.950 . S
C319 C314 1.363 . S
C319 C318 1.415 . S
H320 C317 0.999 . S
H321 C302 0.911 . S
H322 C340 0.951 . S
H323 C342 0.951 . S
H324 C344 0.950 . S
H325 C345 0.950 . S
H326 C347 0.950 . S
H327 C350 0.950 . S
H328 C351 0.950 . S
H329 C353 0.950 . S
H330 C354 0.950 . S
H331 C355 0.951 . S
H332 C357 0.951 . S
H333 C359 0.950 . S
H334 C360 0.950 . S
H335 C362 0.950 . S
H336 C365 0.950 . S
H337 C366 0.950 . S
H338 C368 0.950 . S
H339 C369 0.950 . S
C340 H322 0.951 . S
C340 C341 1.366 . S
C340 C342 1.388 . S
C341 C340 1.366 . S
C341 C345 1.385 . S
C342 H323 0.951 . S
C342 C340 1.388 . S
C342 C343 1.366 . S
C343 C342 1.366 . S
C343 C344 1.414 . S
C343 C346 1.499 . S
C344 H324 0.950 . S
C344 C343 1.414 . S
C344 C345 1.374 . S
C345 H325 0.950 . S
C345 C341 1.385 . S
C345 C344 1.374 . S
C346 C343 1.499 . S
C346 C347 1.373 . S
C346 C348 1.364 1_565 S
C347 H326 0.950 . S
C347 C346 1.373 . S
C347 C363 1.377 . S
C348 C346 1.364 1_545 S
C348 C349 1.547 . S
C348 C362 1.382 . S
C349 C348 1.547 . S
C349 C350 1.397 . S
C349 C354 1.363 . S
C350 H327 0.950 . S
C350 C349 1.397 . S
C350 C351 1.334 . S
C351 H328 0.950 . S
C351 C350 1.334 . S
C351 C352 1.287 . S
C352 C351 1.287 . S
C352 C353 1.524 . S
C352 H371 0.913 . S
C353 H329 0.950 . S
C353 C352 1.524 . S
C353 C354 1.415 . S
C354 H330 0.950 . S
C354 C349 1.363 . S
C354 C353 1.415 . S
C355 H331 0.951 . S
C355 C356 1.366 1_565 S
C355 C357 1.388 . S
C356 C355 1.366 1_545 S
C356 C360 1.385 . S
C357 H332 0.951 . S
C357 C355 1.388 . S
C357 C358 1.366 . S
C358 C357 1.366 . S
C358 C359 1.414 1_565 S
C358 C361 1.499 . S
C359 H333 0.950 . S
C359 C358 1.414 1_545 S
C359 C360 1.374 . S
C360 H334 0.950 . S
C360 C356 1.385 . S
C360 C359 1.374 . S
C361 C358 1.499 . S
C361 C362 1.373 1_565 S
C361 C363 1.389 . S
C362 H335 0.950 . S
C362 C348 1.382 . S
C362 C361 1.373 1_545 S
C363 C347 1.377 . S
C363 C361 1.389 . S
C363 C364 1.524 . S
C364 C363 1.524 . S
C364 C365 1.397 . S
C364 C369 1.363 . S
C365 H336 0.950 . S
C365 C364 1.397 . S
C365 C366 1.334 . S
C366 H337 0.950 . S
C366 C365 1.334 . S
C366 C367 1.287 . S
C367 C366 1.287 . S
C367 C368 1.524 . S
C367 H370 0.999 . S
C368 H338 0.950 . S
C368 C367 1.524 . S
C368 C369 1.415 . S
C369 H339 0.950 . S
C369 C364 1.363 . S
C369 C368 1.415 . S
H370 C367 0.999 . S
H371 C352 0.913 . S
H372 C390 0.951 . S
H373 C392 0.951 . S
H374 C394 0.950 . S
H375 C395 0.950 . S
H376 C397 0.950 . S
H377 C400 0.950 . S
H378 C401 0.950 . S
H379 C403 0.950 . S
H380 C404 0.950 . S
H381 C405 0.951 . S
H382 C407 0.951 . S
H383 C409 0.950 . S
H384 C410 0.950 . S
H385 C412 0.950 . S
H386 C415 0.950 . S
H387 C416 0.950 . S
H388 C418 0.950 . S
H389 C419 0.950 . S
C390 H372 0.951 . S
C390 C391 1.366 . S
C390 C392 1.388 . S
C391 C390 1.366 . S
C391 C395 1.385 . S
C392 H373 0.951 . S
C392 C390 1.388 . S
C392 C393 1.366 . S
C393 C392 1.366 . S
C393 C394 1.414 . S
C393 C396 1.499 . S
C394 H374 0.950 . S
C394 C393 1.414 . S
C394 C395 1.374 . S
C395 H375 0.950 . S
C395 C391 1.385 . S
C395 C394 1.374 . S
C396 C393 1.499 . S
C396 C397 1.373 . S
C396 C398 1.389 . S
C397 H376 0.950 . S
C397 C396 1.373 . S
C397 C413 1.377 . S
C398 C396 1.389 . S
C398 C399 1.524 . S
C398 C412 1.377 . S
C399 C398 1.524 . S
C399 C400 1.397 . S
C399 C404 1.363 . S
C400 H377 0.950 . S
C400 C399 1.397 . S
C400 C401 1.334 . S
C401 H378 0.950 . S
C401 C400 1.334 . S
C401 C402 1.287 . S
C402 C401 1.287 . S
C402 C403 1.524 . S
C402 H421 0.913 . S
C403 H379 0.950 . S
C403 C402 1.524 . S
C403 C404 1.415 . S
C404 H380 0.950 . S
C404 C399 1.363 . S
C404 C403 1.415 . S
C405 H381 0.951 . S
C405 C406 1.366 . S
C405 C407 1.388 . S
C406 C405 1.366 . S
C406 C410 1.385 . S
C407 H382 0.951 . S
C407 C405 1.388 . S
C407 C408 1.366 . S
C408 C407 1.366 . S
C408 C409 1.414 . S
C408 C411 1.499 . S
C409 H383 0.950 . S
C409 C408 1.414 . S
C409 C410 1.374 . S
C410 H384 0.950 . S
C410 C406 1.385 . S
C410 C409 1.374 . S
C411 C408 1.499 . S
C411 C412 1.373 . S
C411 C413 1.389 . S
C412 H385 0.950 . S
C412 C398 1.377 . S
C412 C411 1.373 . S
C413 C397 1.377 . S
C413 C411 1.389 . S
C413 C414 1.524 . S
C414 C413 1.524 . S
C414 C415 1.397 . S
C414 C419 1.363 . S
C415 H386 0.950 . S
C415 C414 1.397 . S
C415 C416 1.334 . S
C416 H387 0.950 . S
C416 C415 1.334 . S
C416 C417 1.287 . S
C417 C416 1.287 . S
C417 C418 1.524 . S
C417 H420 0.999 . S
C418 H388 0.950 . S
C418 C417 1.524 . S
C418 C419 1.415 . S
C419 H389 0.950 . S
C419 C414 1.363 . S
C419 C418 1.415 . S
H420 C417 0.999 . S
H421 C402 0.913 . S
H422 C440 0.951 . S
H423 C442 0.951 . S
H424 C444 0.950 . S
H425 C445 0.950 . S
H426 C447 0.950 . S
H427 C450 0.950 . S
H428 C451 0.950 . S
H429 C453 0.950 . S
H430 C454 0.950 1_655 S
H431 C455 0.951 . S
H432 C457 0.951 . S
H433 C459 0.950 . S
H434 C460 0.950 . S
H435 C462 0.980 . S
H436 C465 0.950 . S
H437 C466 0.950 . S
H438 C468 0.950 . S
H439 C469 0.950 . S
C440 H422 0.951 . S
C440 C441 1.366 . S
C440 C442 1.388 . S
C441 C440 1.366 . S
C441 C445 1.385 . S
C442 H423 0.951 . S
C442 C440 1.388 . S
C442 C443 1.366 . S
C443 C442 1.366 . S
C443 C444 1.414 . S
C443 C446 1.499 . S
C444 H424 0.950 . S
C444 C443 1.414 . S
C444 C445 1.374 . S
C445 H425 0.950 . S
C445 C441 1.385 . S
C445 C444 1.374 . S
C446 C443 1.499 . S
C446 C447 1.373 . S
C446 C448 1.389 . S
C447 H426 0.950 . S
C447 C446 1.373 . S
C447 C463 1.377 . S
C448 C446 1.389 . S
C448 C449 1.524 1_655 S
C448 C462 1.377 . S
C449 C448 1.524 1_455 S
C449 C450 1.397 . S
C449 C454 1.363 . S
C450 H427 0.950 . S
C450 C449 1.397 . S
C450 C451 1.334 . S
C451 H428 0.950 . S
C451 C450 1.334 . S
C451 C452 1.287 . S
C452 C451 1.287 . S
C452 C453 1.524 . S
C452 H471 0.913 . S
C453 H429 0.950 . S
C453 C452 1.524 . S
C453 C454 1.415 . S
C454 H430 0.950 1_455 S
C454 C449 1.363 . S
C454 C453 1.415 . S
C455 H431 0.951 . S
C455 C456 1.366 . S
C455 C457 1.388 . S
C456 C455 1.366 . S
C456 C460 1.385 . S
C457 H432 0.951 . S
C457 C455 1.388 . S
C457 C458 1.366 . S
C458 C457 1.366 . S
C458 C459 1.414 . S
C458 C461 1.499 . S
C459 H433 0.950 . S
C459 C458 1.414 . S
C459 C460 1.374 . S
C460 H434 0.950 . S
C460 C456 1.385 . S
C460 C459 1.374 . S
C461 C458 1.499 . S
C461 C462 1.373 . S
C461 C463 1.389 . S
C462 H435 0.980 . S
C462 C448 1.377 . S
C462 C461 1.373 . S
C463 C447 1.377 . S
C463 C461 1.389 . S
C463 C464 1.524 . S
C464 C463 1.524 . S
C464 C465 1.397 . S
C464 C469 1.363 . S
C465 H436 0.950 . S
C465 C464 1.397 . S
C465 C466 1.334 . S
C466 H437 0.950 . S
C466 C465 1.334 . S
C466 C467 1.287 . S
C467 C466 1.287 . S
C467 C468 1.524 . S
C467 H470 0.999 . S
C468 H438 0.950 . S
C468 C467 1.524 . S
C468 C469 1.415 . S
C469 H439 0.950 . S
C469 C464 1.363 . S
C469 C468 1.415 . S
H470 C467 0.999 . S
H471 C452 0.913 . S
H472 C490 0.951 . S
H473 C492 0.951 . S
H474 C494 0.950 . S
H475 C495 0.950 . S
H476 C497 0.950 . S
H477 C500 0.950 . S
H478 C501 0.950 . S
H479 C503 0.950 . S
H480 C504 0.950 . S
H481 C505 0.951 . S
H482 C507 0.951 . S
H483 C509 0.950 . S
H484 C510 0.950 . S
H485 C512 0.950 . S
H486 C515 0.950 . S
H487 C516 0.950 1_565 S
H488 C518 0.950 1_565 S
H489 C519 0.950 . S
C490 H472 0.951 . S
C490 C491 1.366 . S
C490 C492 1.388 . S
C491 C490 1.366 . S
C491 C495 1.385 . S
C492 H473 0.951 . S
C492 C490 1.388 . S
C492 C493 1.366 . S
C493 C492 1.366 . S
C493 C494 1.414 . S
C493 C496 1.499 . S
C494 H474 0.950 . S
C494 C493 1.414 . S
C494 C495 1.374 . S
C495 H475 0.950 . S
C495 C491 1.385 . S
C495 C494 1.374 . S
C496 C493 1.499 . S
C496 C497 1.373 . S
C496 C498 1.389 . S
C497 H476 0.950 . S
C497 C496 1.373 . S
C497 C513 1.377 . S
C498 C496 1.389 . S
C498 C499 1.524 . S
C498 C512 1.377 . S
C499 C498 1.524 . S
C499 C500 1.397 . S
C499 C504 1.363 . S
C500 H477 0.950 . S
C500 C499 1.397 . S
C500 C501 1.334 . S
C501 H478 0.950 . S
C501 C500 1.334 . S
C501 C502 1.287 . S
C502 C501 1.287 . S
C502 C503 1.524 . S
C502 H521 0.913 . S
C503 H479 0.950 . S
C503 C502 1.524 . S
C503 C504 1.415 . S
C504 H480 0.950 . S
C504 C499 1.363 . S
C504 C503 1.415 . S
C505 H481 0.951 . S
C505 C506 1.366 . S
C505 C507 1.388 . S
C506 C505 1.366 . S
C506 C510 1.385 . S
C507 H482 0.951 . S
C507 C505 1.388 . S
C507 C508 1.366 . S
C508 C507 1.366 . S
C508 C509 1.414 . S
C508 C511 1.499 . S
C509 H483 0.950 . S
C509 C508 1.414 . S
C509 C510 1.374 . S
C510 H484 0.950 . S
C510 C506 1.385 . S
C510 C509 1.374 . S
C511 C508 1.499 . S
C511 C512 1.373 . S
C511 C513 1.389 . S
C512 H485 0.950 . S
C512 C498 1.377 . S
C512 C511 1.373 . S
C513 C497 1.377 . S
C513 C511 1.389 . S
C513 C514 1.524 . S
C514 C513 1.524 . S
C514 C515 1.397 . S
C514 C519 1.363 . S
C515 H486 0.950 . S
C515 C514 1.397 . S
C515 C516 1.334 . S
C516 H487 0.950 1_545 S
C516 C515 1.334 . S
C516 C517 1.287 1_545 S
C517 C516 1.287 1_565 S
C517 C518 1.524 1_565 S
C517 H520 0.999 . S
C518 H488 0.950 1_545 S
C518 C517 1.524 1_545 S
C518 C519 1.415 . S
C519 H489 0.950 . S
C519 C514 1.363 . S
C519 C518 1.415 . S
H520 C517 0.999 . S
H521 C502 0.913 . S
H522 C540 0.951 . S
H523 C542 0.951 . S
H524 C544 0.950 . S
H525 C545 0.946 1_545 S
H526 C547 0.950 . S
H527 C550 0.950 . S
H528 C551 0.950 . S
H529 C553 0.950 . S
H530 C554 0.950 . S
H531 C555 0.951 . S
H532 C557 0.951 . S
H533 C559 0.950 . S
H534 C560 0.950 . S
H535 C562 0.950 . S
H536 C565 0.950 . S
H537 C566 0.950 . S
H538 C568 0.950 . S
H539 C569 0.950 . S
C540 H522 0.951 . S
C540 C541 1.366 . S
C540 C542 1.388 . S
C541 C540 1.366 . S
C541 C545 1.393 . S
C542 H523 0.951 . S
C542 C540 1.388 . S
C542 C543 1.366 . S
C543 C542 1.366 . S
C543 C544 1.414 1_565 S
C543 C546 1.499 . S
C544 H524 0.950 . S
C544 C543 1.414 1_545 S
C544 C545 1.370 1_545 S
C545 H525 0.946 1_565 S
C545 C541 1.393 . S
C545 C544 1.370 1_565 S
C546 C543 1.499 . S
C546 C547 1.373 . S
C546 C548 1.388 1_565 S
C547 H526 0.950 . S
C547 C546 1.373 . S
C547 C563 1.377 . S
C548 C546 1.388 1_545 S
C548 C549 1.524 . S
C548 C562 1.380 . S
C549 C548 1.524 . S
C549 C550 1.397 . S
C549 C554 1.363 1_545 S
C550 H527 0.950 . S
C550 C549 1.397 . S
C550 C551 1.334 . S
C551 H528 0.950 . S
C551 C550 1.334 . S
C551 C552 1.287 . S
C552 C551 1.287 . S
C552 C553 1.524 1_545 S
C552 H571 0.913 . S
C553 H529 0.950 . S
C553 C552 1.524 1_565 S
C553 C554 1.415 . S
C554 H530 0.950 . S
C554 C549 1.363 1_565 S
C554 C553 1.415 . S
C555 H531 0.951 . S
C555 C556 1.366 . S
C555 C557 1.388 . S
C556 C555 1.366 . S
C556 C560 1.385 1_545 S
C557 H532 0.951 . S
C557 C555 1.388 . S
C557 C558 1.366 . S
C558 C557 1.366 . S
C558 C559 1.414 1_545 S
C558 C561 1.499 . S
C559 H533 0.950 . S
C559 C558 1.414 1_565 S
C559 C560 1.374 . S
C560 H534 0.950 . S
C560 C556 1.385 1_565 S
C560 C559 1.374 . S
C561 C558 1.499 . S
C561 C562 1.373 . S
C561 C563 1.389 1_545 S
C562 H535 0.950 . S
C562 C548 1.380 . S
C562 C561 1.373 . S
C563 C547 1.377 . S
C563 C561 1.389 1_565 S
C563 C564 1.524 . S
C564 C563 1.524 . S
C564 C565 1.397 . S
C564 C569 1.363 1_565 S
C565 H536 0.950 . S
C565 C564 1.397 . S
C565 C566 1.334 . S
C566 H537 0.950 . S
C566 C565 1.334 . S
C566 C567 1.287 . S
C567 C566 1.287 . S
C567 C568 1.524 1_565 S
C567 H570 0.999 . S
C568 H538 0.950 . S
C568 C567 1.524 1_545 S
C568 C569 1.415 . S
C569 H539 0.950 . S
C569 C564 1.363 1_545 S
C569 C568 1.415 . S
H570 C567 0.999 . S
H571 C552 0.913 . S
H572 C590 0.951 . S
H573 C592 0.951 . S
H574 C594 0.950 . S
H575 C595 0.950 . S
H576 C597 0.950 1_554 S
H577 C600 0.950 . S
H578 C601 0.950 . S
H579 C603 0.950 . S
H580 C604 0.950 . S
H581 C605 0.951 . S
H582 C607 0.951 . S
H583 C609 0.950 . S
H584 C610 0.950 . S
H585 C612 0.950 . S
H586 C615 0.950 . S
H587 C616 0.950 . S
H588 C618 0.950 . S
H589 C619 0.950 . S
C590 H572 0.951 . S
C590 C591 1.366 . S
C590 C592 1.388 . S
C591 C590 1.366 . S
C591 C595 1.385 . S
C592 H573 0.951 . S
C592 C590 1.388 . S
C592 C593 1.366 . S
C593 C592 1.366 . S
C593 C594 1.414 . S
C593 C596 1.499 . S
C594 H574 0.950 . S
C594 C593 1.414 . S
C594 C595 1.374 . S
C595 H575 0.950 . S
C595 C591 1.385 . S
C595 C594 1.374 . S
C596 C593 1.499 . S
C596 C597 1.373 . S
C596 C598 1.389 . S
C597 H576 0.950 1_556 S
C597 C596 1.373 . S
C597 C613 1.377 . S
C598 C596 1.389 . S
C598 C599 1.524 . S
C598 C612 1.377 . S
C599 C598 1.524 . S
C599 C600 1.397 . S
C599 C604 1.363 . S
C600 H577 0.950 . S
C600 C599 1.397 . S
C600 C601 1.334 . S
C601 H578 0.950 . S
C601 C600 1.334 . S
C601 C602 1.287 . S
C602 C601 1.287 . S
C602 C603 1.524 . S
C602 H621 0.913 . S
C603 H579 0.950 . S
C603 C602 1.524 . S
C603 C604 1.415 . S
C604 H580 0.950 . S
C604 C599 1.363 . S
C604 C603 1.415 . S
C605 H581 0.951 . S
C605 C606 1.374 . S
C605 C607 1.388 . S
C606 C605 1.374 . S
C606 C610 1.373 1_554 S
C607 H582 0.951 . S
C607 C605 1.388 . S
C607 C608 1.366 1_554 S
C608 C607 1.366 1_556 S
C608 C609 1.414 . S
C608 C611 1.499 . S
C609 H583 0.950 . S
C609 C608 1.414 . S
C609 C610 1.374 . S
C610 H584 0.950 . S
C610 C606 1.373 1_556 S
C610 C609 1.374 . S
C611 C608 1.499 . S
C611 C612 1.373 . S
C611 C613 1.389 . S
C612 H585 0.950 . S
C612 C598 1.377 . S
C612 C611 1.373 . S
C613 C597 1.377 . S
C613 C611 1.389 . S
C613 C614 1.524 1_556 S
C614 C613 1.524 1_554 S
C614 C615 1.397 . S
C614 C619 1.363 . S
C615 H586 0.950 . S
C615 C614 1.397 . S
C615 C616 1.334 . S
C616 H587 0.950 . S
C616 C615 1.334 . S
C616 C617 1.287 . S
C617 C616 1.287 . S
C617 C618 1.524 . S
C617 H620 0.999 . S
C618 H588 0.950 . S
C618 C617 1.524 . S
C618 C619 1.415 . S
C619 H589 0.950 . S
C619 C614 1.363 . S
C619 C618 1.415 . S
H620 C617 0.999 . S
H621 C602 0.913 . S
H622 C640 0.951 . S
H623 C642 0.951 . S
H624 C644 0.950 . S
H625 C645 0.950 . S
H626 C647 0.950 . S
H627 C650 0.950 . S
H628 C651 0.950 . S
H629 C653 0.950 . S
H630 C654 0.950 . S
H631 C655 0.951 . S
H632 C657 0.951 . S
H633 C659 0.950 . S
H634 C660 0.950 . S
H635 C662 0.950 . S
H636 C665 0.950 . S
H637 C666 0.950 . S
H638 C668 0.950 . S
H639 C669 0.950 . S
C640 H622 0.951 . S
C640 C641 1.366 . S
C640 C642 1.388 . S
C641 C640 1.366 . S
C641 C645 1.385 . S
C642 H623 0.951 . S
C642 C640 1.388 . S
C642 C643 1.366 . S
C643 C642 1.366 . S
C643 C644 1.414 . S
C643 C646 1.499 . S
C644 H624 0.950 . S
C644 C643 1.414 . S
C644 C645 1.374 . S
C645 H625 0.950 . S
C645 C641 1.385 . S
C645 C644 1.374 . S
C646 C643 1.499 . S
C646 C647 1.373 . S
C646 C648 1.389 . S
C647 H626 0.950 . S
C647 C646 1.373 . S
C647 C663 1.377 . S
C648 C646 1.389 . S
C648 C649 1.524 . S
C648 C662 1.377 . S
C649 C648 1.524 . S
C649 C650 1.397 . S
C649 C654 1.363 . S
C650 H627 0.950 . S
C650 C649 1.397 . S
C650 C651 1.334 . S
C651 H628 0.950 . S
C651 C650 1.334 . S
C651 C652 1.287 . S
C652 C651 1.287 . S
C652 C653 1.524 . S
C652 H671 0.913 . S
C653 H629 0.950 . S
C653 C652 1.524 . S
C653 C654 1.415 . S
C654 H630 0.950 . S
C654 C649 1.363 . S
C654 C653 1.415 . S
C655 H631 0.951 . S
C655 C656 1.366 . S
C655 C657 1.388 . S
C656 C655 1.366 . S
C656 C660 1.385 . S
C657 H632 0.951 . S
C657 C655 1.388 . S
C657 C658 1.366 . S
C658 C657 1.366 . S
C658 C659 1.414 . S
C658 C661 1.499 . S
C659 H633 0.950 . S
C659 C658 1.414 . S
C659 C660 1.374 . S
C660 H634 0.950 . S
C660 C656 1.385 . S
C660 C659 1.374 . S
C661 C658 1.499 . S
C661 C662 1.373 . S
C661 C663 1.389 . S
C662 H635 0.950 . S
C662 C648 1.377 . S
C662 C661 1.373 . S
C663 C647 1.377 . S
C663 C661 1.389 . S
C663 C664 1.524 . S
C664 C663 1.524 . S
C664 C665 1.397 . S
C664 C669 1.363 . S
C665 H636 0.950 . S
C665 C664 1.397 . S
C665 C666 1.334 . S
C666 H637 0.950 . S
C666 C665 1.334 . S
C666 C667 1.287 . S
C667 C666 1.287 . S
C667 C668 1.524 . S
C667 H670 0.999 . S
C668 H638 0.950 . S
C668 C667 1.524 . S
C668 C669 1.415 . S
C669 H639 0.950 . S
C669 C664 1.363 . S
C669 C668 1.415 . S
H670 C667 0.999 . S
H671 C652 0.913 . S
H672 C690 0.951 . S
H673 C692 0.951 . S
H674 C694 0.950 . S
H675 C695 0.950 . S
H676 C697 0.950 . S
H677 C700 0.950 . S
H678 C701 0.950 . S
H679 C703 0.950 . S
H680 C704 0.950 . S
H681 C705 0.951 . S
H682 C707 0.951 . S
H683 C709 0.950 . S
H684 C710 0.950 . S
H685 C712 0.950 . S
H686 C715 0.950 . S
H687 C716 0.950 . S
H688 C718 0.950 . S
H689 C719 0.950 . S
C690 H672 0.951 . S
C690 C691 1.366 . S
C690 C692 1.388 . S
C691 C690 1.366 . S
C691 C695 1.385 . S
C692 H673 0.951 . S
C692 C690 1.388 . S
C692 C693 1.366 . S
C693 C692 1.366 . S
C693 C694 1.414 . S
C693 C696 1.499 . S
C694 H674 0.950 . S
C694 C693 1.414 . S
C694 C695 1.374 . S
C695 H675 0.950 . S
C695 C691 1.385 . S
C695 C694 1.374 . S
C696 C693 1.499 . S
C696 C697 1.373 . S
C696 C698 1.389 . S
C697 H676 0.950 . S
C697 C696 1.373 . S
C697 C713 1.377 . S
C698 C696 1.389 . S
C698 C699 1.524 . S
C698 C712 1.377 . S
C699 C698 1.524 . S
C699 C700 1.397 . S
C699 C704 1.363 . S
C700 H677 0.950 . S
C700 C699 1.397 . S
C700 C701 1.334 1_455 S
C701 H678 0.950 . S
C701 C700 1.334 1_655 S
C701 C702 1.287 . S
C702 C701 1.287 . S
C702 C703 1.524 . S
C702 H721 0.913 . S
C703 H679 0.950 . S
C703 C702 1.524 . S
C703 C704 1.415 1_655 S
C704 H680 0.950 . S
C704 C699 1.363 . S
C704 C703 1.415 1_455 S
C705 H681 0.951 . S
C705 C706 1.366 . S
C705 C707 1.388 . S
C706 C705 1.366 . S
C706 C710 1.385 . S
C707 H682 0.951 . S
C707 C705 1.388 . S
C707 C708 1.366 . S
C708 C707 1.366 . S
C708 C709 1.414 . S
C708 C711 1.499 . S
C709 H683 0.950 . S
C709 C708 1.414 . S
C709 C710 1.374 . S
C710 H684 0.950 . S
C710 C706 1.385 . S
C710 C709 1.374 . S
C711 C708 1.499 . S
C711 C712 1.373 . S
C711 C713 1.389 . S
C712 H685 0.950 . S
C712 C698 1.377 . S
C712 C711 1.373 . S
C713 C697 1.377 . S
C713 C711 1.389 . S
C713 C714 1.524 . S
C714 C713 1.524 . S
C714 C715 1.397 . S
C714 C719 1.363 . S
C715 H686 0.950 . S
C715 C714 1.397 . S
C715 C716 1.334 . S
C716 H687 0.950 . S
C716 C715 1.334 . S
C716 C717 1.287 . S
C717 C716 1.287 . S
C717 C718 1.524 . S
C717 H720 0.999 . S
C718 H688 0.950 . S
C718 C717 1.524 . S
C718 C719 1.415 . S
C719 H689 0.950 . S
C719 C714 1.363 . S
C719 C718 1.415 . S
H720 C717 0.999 . S
H721 C702 0.913 . S
H722 C740 0.951 . S
H723 C742 0.951 . S
H724 C744 0.967 . S
H725 C745 0.950 1_554 S
H726 C747 0.950 . S
H727 C750 0.950 . S
H728 C751 0.950 . S
H729 C753 0.950 . S
H730 C754 0.950 . S
H731 C755 0.951 . S
H732 C757 0.951 . S
H733 C759 0.980 . S
H734 C760 0.950 1_556 S
H735 C762 0.950 . S
H736 C765 0.950 . S
H737 C766 0.950 . S
H738 C768 0.950 . S
H739 C769 0.950 . S
C740 H722 0.951 . S
C740 C741 1.366 . S
C740 C742 1.388 . S
C741 C740 1.366 . S
C741 C745 1.385 . S
C742 H723 0.951 . S
C742 C740 1.388 . S
C742 C743 1.366 . S
C743 C742 1.366 . S
C743 C744 1.402 1_556 S
C743 C746 1.499 . S
C744 H724 0.967 . S
C744 C743 1.402 1_554 S
C744 C745 1.369 1_554 S
C745 H725 0.950 1_556 S
C745 C741 1.385 . S
C745 C744 1.369 1_556 S
C746 C743 1.499 . S
C746 C747 1.373 1_556 S
C746 C748 1.389 . S
C747 H726 0.950 . S
C747 C746 1.373 1_554 S
C747 C763 1.377 . S
C748 C746 1.389 . S
C748 C749 1.524 . S
C748 C762 1.377 . S
C749 C748 1.524 . S
C749 C750 1.397 . S
C749 C754 1.363 . S
C750 H727 0.950 . S
C750 C749 1.397 . S
C750 C751 1.334 . S
C751 H728 0.950 . S
C751 C750 1.334 . S
C751 C752 1.287 . S
C752 C751 1.287 . S
C752 C753 1.524 . S
C752 H771 0.913 . S
C753 H729 0.950 . S
C753 C752 1.524 . S
C753 C754 1.415 . S
C754 H730 0.950 . S
C754 C749 1.363 . S
C754 C753 1.415 . S
C755 H731 0.951 . S
C755 C756 1.366 . S
C755 C757 1.388 . S
C756 C755 1.366 . S
C756 C760 1.385 . S
C757 H732 0.951 . S
C757 C755 1.388 . S
C757 C758 1.366 . S
C758 C757 1.366 . S
C758 C759 1.393 1_554 S
C758 C761 1.499 . S
C759 H733 0.980 . S
C759 C758 1.393 1_556 S
C759 C760 1.365 1_556 S
C760 H734 0.950 1_554 S
C760 C756 1.385 . S
C760 C759 1.365 1_554 S
C761 C758 1.499 . S
C761 C762 1.373 1_554 S
C761 C763 1.389 . S
C762 H735 0.950 . S
C762 C748 1.377 . S
C762 C761 1.373 1_556 S
C763 C747 1.377 . S
C763 C761 1.389 . S
C763 C764 1.524 . S
C764 C763 1.524 . S
C764 C765 1.397 . S
C764 C769 1.363 . S
C765 H736 0.950 . S
C765 C764 1.397 . S
C765 C766 1.334 . S
C766 H737 0.950 . S
C766 C765 1.334 . S
C766 C767 1.287 . S
C767 C766 1.287 . S
C767 C768 1.524 . S
C767 H770 0.999 . S
C768 H738 0.950 . S
C768 C767 1.524 . S
C768 C769 1.415 . S
C769 H739 0.950 . S
C769 C764 1.363 . S
C769 C768 1.415 . S
H770 C767 0.999 . S
H771 C752 0.913 . S
H772 C790 0.951 . S
H773 C792 0.951 . S
H774 C794 0.950 . S
H775 C795 0.950 . S
H776 C797 0.950 . S
H777 C800 0.950 . S
H778 C801 0.953 . S
H779 C803 0.950 . S
H780 C804 0.950 . S
H781 C805 0.951 1_455 S
H782 C807 0.951 . S
H783 C809 0.950 . S
H784 C810 0.950 . S
H785 C812 0.950 . S
H786 C815 0.950 . S
H787 C816 0.950 . S
H788 C818 0.950 . S
H789 C819 0.950 . S
C790 H772 0.951 . S
C790 C791 1.366 . S
C790 C792 1.388 . S
C791 C790 1.366 . S
C791 C795 1.385 . S
C792 H773 0.951 . S
C792 C790 1.388 . S
C792 C793 1.366 . S
C793 C792 1.366 . S
C793 C794 1.414 . S
C793 C796 1.499 . S
C794 H774 0.950 . S
C794 C793 1.414 . S
C794 C795 1.374 . S
C795 H775 0.950 . S
C795 C791 1.385 . S
C795 C794 1.374 . S
C796 C793 1.499 . S
C796 C797 1.373 . S
C796 C798 1.389 . S
C797 H776 0.950 . S
C797 C796 1.373 . S
C797 C813 1.377 . S
C798 C796 1.389 . S
C798 C799 1.524 . S
C798 C812 1.377 . S
C799 C798 1.524 . S
C799 C800 1.397 . S
C799 C804 1.363 . S
C800 H777 0.950 . S
C800 C799 1.397 . S
C800 C801 1.333 1_655 S
C801 H778 0.953 . S
C801 C800 1.333 1_455 S
C801 C802 1.285 1_455 S
C802 C801 1.285 1_655 S
C802 C803 1.524 . S
C802 H821 0.913 . S
C803 H779 0.950 . S
C803 C802 1.524 . S
C803 C804 1.415 . S
C804 H780 0.950 . S
C804 C799 1.363 . S
C804 C803 1.415 . S
C805 H781 0.951 1_655 S
C805 C806 1.366 . S
C805 C807 1.388 . S
C806 C805 1.366 . S
C806 C810 1.385 . S
C807 H782 0.951 . S
C807 C805 1.388 . S
C807 C808 1.366 . S
C808 C807 1.366 . S
C808 C809 1.414 . S
C808 C811 1.499 . S
C809 H783 0.950 . S
C809 C808 1.414 . S
C809 C810 1.374 . S
C810 H784 0.950 . S
C810 C806 1.385 . S
C810 C809 1.374 . S
C811 C808 1.499 . S
C811 C812 1.373 . S
C811 C813 1.389 . S
C812 H785 0.950 . S
C812 C798 1.377 . S
C812 C811 1.373 . S
C813 C797 1.377 . S
C813 C811 1.389 . S
C813 C814 1.524 . S
C814 C813 1.524 . S
C814 C815 1.397 . S
C814 C819 1.363 . S
C815 H786 0.950 . S
C815 C814 1.397 . S
C815 C816 1.334 . S
C816 H787 0.950 . S
C816 C815 1.334 . S
C816 C817 1.287 . S
C817 C816 1.287 . S
C817 C818 1.524 . S
C817 H820 0.999 . S
C818 H788 0.950 . S
C818 C817 1.524 . S
C818 C819 1.415 . S
C819 H789 0.950 . S
C819 C814 1.363 . S
C819 C818 1.415 . S
H820 C817 0.999 . S
H821 C802 0.913 . S
H822 C840 0.951 . S
H823 C842 0.951 . S
H824 C844 0.950 . S
H825 C845 0.950 . S
H826 C847 0.950 . S
H827 C850 0.950 . S
H828 C851 0.950 . S
H829 C853 0.950 . S
H830 C854 0.950 . S
H831 C855 0.951 . S
H832 C857 0.951 . S
H833 C859 0.950 . S
H834 C860 0.950 . S
H835 C862 0.950 . S
H836 C865 0.950 . S
H837 C866 0.950 . S
H838 C868 0.950 . S
H839 C869 0.950 . S
C840 H822 0.951 . S
C840 C841 1.366 . S
C840 C842 1.388 . S
C841 C840 1.366 . S
C841 C845 1.385 . S
C842 H823 0.951 . S
C842 C840 1.388 . S
C842 C843 1.366 . S
C843 C842 1.366 . S
C843 C844 1.414 . S
C843 C846 1.499 . S
C844 H824 0.950 . S
C844 C843 1.414 . S
C844 C845 1.374 . S
C845 H825 0.950 . S
C845 C841 1.385 . S
C845 C844 1.374 . S
C846 C843 1.499 . S
C846 C847 1.373 . S
C846 C848 1.389 . S
C847 H826 0.950 . S
C847 C846 1.373 . S
C847 C863 1.377 . S
C848 C846 1.389 . S
C848 C849 1.524 . S
C848 C862 1.377 . S
C849 C848 1.524 . S
C849 C850 1.397 . S
C849 C854 1.363 . S
C850 H827 0.950 . S
C850 C849 1.397 . S
C850 C851 1.334 . S
C851 H828 0.950 . S
C851 C850 1.334 . S
C851 C852 1.287 . S
C852 C851 1.287 . S
C852 C853 1.524 . S
C852 H871 0.913 . S
C853 H829 0.950 . S
C853 C852 1.524 . S
C853 C854 1.415 . S
C854 H830 0.950 . S
C854 C849 1.363 . S
C854 C853 1.415 . S
C855 H831 0.951 . S
C855 C856 1.366 . S
C855 C857 1.388 . S
C856 C855 1.366 . S
C856 C860 1.385 . S
C857 H832 0.951 . S
C857 C855 1.388 . S
C857 C858 1.366 . S
C858 C857 1.366 . S
C858 C859 1.414 . S
C858 C861 1.499 . S
C859 H833 0.950 . S
C859 C858 1.414 . S
C859 C860 1.374 . S
C860 H834 0.950 . S
C860 C856 1.385 . S
C860 C859 1.374 . S
C861 C858 1.499 . S
C861 C862 1.373 . S
C861 C863 1.389 . S
C862 H835 0.950 . S
C862 C848 1.377 . S
C862 C861 1.373 . S
C863 C847 1.377 . S
C863 C861 1.389 . S
C863 C864 1.524 . S
C864 C863 1.524 . S
C864 C865 1.397 . S
C864 C869 1.363 . S
C865 H836 0.950 . S
C865 C864 1.397 . S
C865 C866 1.334 . S
C866 H837 0.950 . S
C866 C865 1.334 . S
C866 C867 1.287 . S
C867 C866 1.287 . S
C867 C868 1.524 . S
C867 H870 0.999 . S
C868 H838 0.950 . S
C868 C867 1.524 . S
C868 C869 1.415 . S
C869 H839 0.950 . S
C869 C864 1.363 . S
C869 C868 1.415 . S
H870 C867 0.999 . S
H871 C852 0.913 . S
H872 C890 0.951 . S
H873 C892 0.951 . S
H874 C894 0.950 . S
H875 C895 0.950 1_545 S
H876 C897 0.950 . S
H877 C900 0.950 . S
H878 C901 0.950 1_455 S
H879 C903 0.950 . S
H880 C904 0.950 . S
H881 C905 0.951 1_455 S
H882 C907 0.951 1_455 S
H883 C909 0.950 . S
H884 C910 0.950 . S
H885 C912 0.950 . S
H886 C915 0.950 . S
H887 C916 0.950 . S
H888 C918 0.950 . S
H889 C919 0.950 . S
C890 H872 0.951 . S
C890 C891 1.366 . S
C890 C892 1.388 . S
C891 C890 1.366 . S
C891 C895 1.385 . S
C892 H873 0.951 . S
C892 C890 1.388 . S
C892 C893 1.366 . S
C893 C892 1.366 . S
C893 C894 1.414 1_565 S
C893 C896 1.499 . S
C894 H874 0.950 . S
C894 C893 1.414 1_545 S
C894 C895 1.374 1_545 S
C895 H875 0.950 1_565 S
C895 C891 1.385 . S
C895 C894 1.374 1_565 S
C896 C893 1.499 . S
C896 C897 1.373 1_565 S
C896 C898 1.389 . S
C897 H876 0.950 . S
C897 C896 1.373 1_545 S
C897 C913 1.377 . S
C898 C896 1.389 . S
C898 C899 1.524 . S
C898 C912 1.377 . S
C899 C898 1.524 . S
C899 C900 1.397 . S
C899 C904 1.363 . S
C900 H877 0.950 . S
C900 C899 1.397 . S
C900 C901 1.334 . S
C901 H878 0.950 1_655 S
C901 C900 1.334 . S
C901 C902 1.287 . S
C902 C901 1.287 . S
C902 C903 1.524 . S
C902 H921 0.913 . S
C903 H879 0.950 . S
C903 C902 1.524 . S
C903 C904 1.415 . S
C904 H880 0.950 . S
C904 C899 1.363 . S
C904 C903 1.415 . S
C905 H881 0.951 1_655 S
C905 C906 1.366 . S
C905 C907 1.388 . S
C906 C905 1.366 . S
C906 C910 1.385 1_545 S
C907 H882 0.951 1_655 S
C907 C905 1.388 . S
C907 C908 1.366 . S
C908 C907 1.366 . S
C908 C909 1.414 1_545 S
C908 C911 1.499 . S
C909 H883 0.950 . S
C909 C908 1.414 1_565 S
C909 C910 1.374 . S
C910 H884 0.950 . S
C910 C906 1.385 1_565 S
C910 C909 1.374 . S
C911 C908 1.499 . S
C911 C912 1.373 1_545 S
C911 C913 1.389 . S
C912 H885 0.950 . S
C912 C898 1.377 . S
C912 C911 1.373 1_565 S
C913 C897 1.377 . S
C913 C911 1.389 . S
C913 C914 1.524 . S
C914 C913 1.524 . S
C914 C915 1.397 . S
C914 C919 1.363 . S
C915 H886 0.950 . S
C915 C914 1.397 . S
C915 C916 1.334 . S
C916 H887 0.950 . S
C916 C915 1.334 . S
C916 C917 1.287 . S
C917 C916 1.287 . S
C917 C918 1.524 . S
C917 H920 0.999 . S
C918 H888 0.950 . S
C918 C917 1.524 . S
C918 C919 1.415 . S
C919 H889 0.950 . S
C919 C914 1.363 . S
C919 C918 1.415 . S
H920 C917 0.999 . S
H921 C902 0.913 . S
H922 C940 0.951 . S
H923 C942 0.951 . S
H924 C944 0.950 . S
H925 C945 0.950 . S
H926 C947 0.950 . S
H927 C950 0.950 . S
H928 C951 0.950 . S
H929 C953 0.950 . S
H930 C954 0.950 . S
H931 C955 0.951 . S
H932 C957 0.951 . S
H933 C959 0.950 . S
H934 C960 0.950 . S
H935 C962 0.950 . S
H936 C965 0.950 . S
H937 C966 0.950 . S
H938 C968 0.950 . S
H939 C969 0.950 . S
C940 H922 0.951 . S
C940 C941 1.366 . S
C940 C942 1.388 . S
C941 C940 1.366 . S
C941 C945 1.385 . S
C942 H923 0.951 . S
C942 C940 1.388 . S
C942 C943 1.366 . S
C943 C942 1.366 . S
C943 C944 1.414 . S
C943 C946 1.499 . S
C944 H924 0.950 . S
C944 C943 1.414 . S
C944 C945 1.374 . S
C945 H925 0.950 . S
C945 C941 1.385 . S
C945 C944 1.374 . S
C946 C943 1.499 . S
C946 C947 1.373 . S
C946 C948 1.389 . S
C947 H926 0.950 . S
C947 C946 1.373 . S
C947 C963 1.377 . S
C948 C946 1.389 . S
C948 C949 1.524 . S
C948 C962 1.377 . S
C949 C948 1.524 . S
C949 C950 1.397 . S
C949 C954 1.363 . S
C950 H927 0.950 . S
C950 C949 1.397 . S
C950 C951 1.334 . S
C951 H928 0.950 . S
C951 C950 1.334 . S
C951 C952 1.287 . S
C952 C951 1.287 . S
C952 C953 1.524 . S
C952 H971 0.913 . S
C953 H929 0.950 . S
C953 C952 1.524 . S
C953 C954 1.415 . S
C954 H930 0.950 . S
C954 C949 1.363 . S
C954 C953 1.415 . S
C955 H931 0.951 . S
C955 C956 1.366 . S
C955 C957 1.388 . S
C956 C955 1.366 . S
C956 C960 1.385 . S
C957 H932 0.951 . S
C957 C955 1.388 . S
C957 C958 1.366 . S
C958 C957 1.366 . S
C958 C959 1.414 . S
C958 C961 1.499 . S
C959 H933 0.950 . S
C959 C958 1.414 . S
C959 C960 1.374 . S
C960 H934 0.950 . S
C960 C956 1.385 . S
C960 C959 1.374 . S
C961 C958 1.499 . S
C961 C962 1.373 . S
C961 C963 1.389 . S
C962 H935 0.950 . S
C962 C948 1.377 . S
C962 C961 1.373 . S
C963 C947 1.377 . S
C963 C961 1.389 . S
C963 C964 1.524 . S
C964 C963 1.524 . S
C964 C965 1.397 . S
C964 C969 1.363 . S
C965 H936 0.950 . S
C965 C964 1.397 . S
C965 C966 1.334 . S
C966 H937 0.950 . S
C966 C965 1.334 . S
C966 C967 1.287 . S
C967 C966 1.287 . S
C967 C968 1.524 . S
C967 H970 0.999 . S
C968 H938 0.950 . S
C968 C967 1.524 . S
C968 C969 1.415 . S
C969 H939 0.950 . S
C969 C964 1.363 . S
C969 C968 1.415 . S
H970 C967 0.999 . S
H971 C952 0.913 . S
H972 C990 0.951 . S
H973 C992 0.951 . S
H974 C994 0.950 . S
H975 C995 0.950 . S
H976 C997 0.950 . S
H977 C1000 0.950 . S
H978 C1001 0.950 . S
H979 C1003 0.950 . S
H980 C1004 0.950 . S
H981 C1005 0.951 . S
H982 C1007 0.951 . S
H983 C1009 0.950 . S
H984 C1010 0.950 . S
H985 C1012 0.950 . S
H986 C1015 0.950 . S
H987 C1016 0.950 . S
H988 C1018 0.950 . S
H989 C1019 0.950 . S
C990 H972 0.951 . S
C990 C991 1.366 . S
C990 C992 1.388 . S
C991 C990 1.366 . S
C991 C995 1.385 . S
C992 H973 0.951 . S
C992 C990 1.388 . S
C992 C993 1.366 . S
C993 C992 1.366 . S
C993 C994 1.414 . S
C993 C996 1.499 . S
C994 H974 0.950 . S
C994 C993 1.414 . S
C994 C995 1.374 . S
C995 H975 0.950 . S
C995 C991 1.385 . S
C995 C994 1.374 . S
C996 C993 1.499 . S
C996 C997 1.373 . S
C996 C998 1.389 . S
C997 H976 0.950 . S
C997 C996 1.373 . S
C997 C1013 1.377 . S
C998 C996 1.389 . S
C998 C999 1.524 . S
C998 C1012 1.377 . S
C999 C998 1.524 . S
C999 C1000 1.397 . S
C999 C1004 1.363 . S
C1000 H977 0.950 . S
C1000 C999 1.397 . S
C1000 C1001 1.334 . S
C1001 H978 0.950 . S
C1001 C1000 1.334 . S
C1001 C1002 1.287 . S
C1002 C1001 1.287 . S
C1002 C1003 1.524 . S
C1002 H1021 0.913 . S
C1003 H979 0.950 . S
C1003 C1002 1.524 . S
C1003 C1004 1.415 . S
C1004 H980 0.950 . S
C1004 C999 1.363 . S
C1004 C1003 1.415 . S
C1005 H981 0.951 . S
C1005 C1006 1.366 . S
C1005 C1007 1.388 . S
C1006 C1005 1.366 . S
C1006 C1010 1.385 . S
C1007 H982 0.951 . S
C1007 C1005 1.388 . S
C1007 C1008 1.366 . S
C1008 C1007 1.366 . S
C1008 C1009 1.414 . S
C1008 C1011 1.499 . S
C1009 H983 0.950 . S
C1009 C1008 1.414 . S
C1009 C1010 1.374 . S
C1010 H984 0.950 . S
C1010 C1006 1.385 . S
C1010 C1009 1.374 . S
C1011 C1008 1.499 . S
C1011 C1012 1.373 . S
C1011 C1013 1.389 . S
C1012 H985 0.950 . S
C1012 C998 1.377 . S
C1012 C1011 1.373 . S
C1013 C997 1.377 . S
C1013 C1011 1.389 . S
C1013 C1014 1.524 . S
C1014 C1013 1.524 . S
C1014 C1015 1.397 . S
C1014 C1019 1.363 . S
C1015 H986 0.950 . S
C1015 C1014 1.397 . S
C1015 C1016 1.334 . S
C1016 H987 0.950 . S
C1016 C1015 1.334 . S
C1016 C1017 1.287 . S
C1017 C1016 1.287 . S
C1017 C1018 1.524 . S
C1017 H1020 0.999 . S
C1018 H988 0.950 . S
C1018 C1017 1.524 . S
C1018 C1019 1.415 . S
C1019 H989 0.950 . S
C1019 C1014 1.363 . S
C1019 C1018 1.415 . S
H1020 C1017 0.999 . S
H1021 C1002 0.913 . S
H1022 C1040 0.951 . S
H1023 C1042 0.951 . S
H1024 C1044 0.950 . S
H1025 C1045 0.950 . S
H1026 C1047 0.950 . S
H1027 C1050 0.950 . S
H1028 C1051 0.950 . S
H1029 C1053 0.950 . S
H1030 C1054 0.950 . S
H1031 C1055 0.951 . S
H1032 C1057 0.951 . S
H1033 C1059 0.950 . S
H1034 C1060 0.950 . S
H1035 C1062 0.950 . S
H1036 C1065 0.950 . S
H1037 C1066 0.950 . S
H1038 C1068 0.950 . S
H1039 C1069 0.950 . S
C1040 H1022 0.951 . S
C1040 C1041 1.366 . S
C1040 C1042 1.388 . S
C1041 C1040 1.366 . S
C1041 C1045 1.385 . S
C1042 H1023 0.951 . S
C1042 C1040 1.388 . S
C1042 C1043 1.366 . S
C1043 C1042 1.366 . S
C1043 C1044 1.414 . S
C1043 C1046 1.499 . S
C1044 H1024 0.950 . S
C1044 C1043 1.414 . S
C1044 C1045 1.374 . S
C1045 H1025 0.950 . S
C1045 C1041 1.385 . S
C1045 C1044 1.374 . S
C1046 C1043 1.499 . S
C1046 C1047 1.373 . S
C1046 C1048 1.389 . S
C1047 H1026 0.950 . S
C1047 C1046 1.373 . S
C1047 C1063 1.377 . S
C1048 C1046 1.389 . S
C1048 C1049 1.524 . S
C1048 C1062 1.377 . S
C1049 C1048 1.524 . S
C1049 C1050 1.397 . S
C1049 C1054 1.363 . S
C1050 H1027 0.950 . S
C1050 C1049 1.397 . S
C1050 C1051 1.334 . S
C1051 H1028 0.950 . S
C1051 C1050 1.334 . S
C1051 C1052 1.287 . S
C1052 C1051 1.287 . S
C1052 C1053 1.524 . S
C1052 H1071 0.913 . S
C1053 H1029 0.950 . S
C1053 C1052 1.524 . S
C1053 C1054 1.415 . S
C1054 H1030 0.950 . S
C1054 C1049 1.363 . S
C1054 C1053 1.415 . S
C1055 H1031 0.951 . S
C1055 C1056 1.366 . S
C1055 C1057 1.388 . S
C1056 C1055 1.366 . S
C1056 C1060 1.385 . S
C1057 H1032 0.951 . S
C1057 C1055 1.388 . S
C1057 C1058 1.366 . S
C1058 C1057 1.366 . S
C1058 C1059 1.414 . S
C1058 C1061 1.499 . S
C1059 H1033 0.950 . S
C1059 C1058 1.414 . S
C1059 C1060 1.374 . S
C1060 H1034 0.950 . S
C1060 C1056 1.385 . S
C1060 C1059 1.374 . S
C1061 C1058 1.499 . S
C1061 C1062 1.373 . S
C1061 C1063 1.389 . S
C1062 H1035 0.950 . S
C1062 C1048 1.377 . S
C1062 C1061 1.373 . S
C1063 C1047 1.377 . S
C1063 C1061 1.389 . S
C1063 C1064 1.524 . S
C1064 C1063 1.524 . S
C1064 C1065 1.397 . S
C1064 C1069 1.363 . S
C1065 H1036 0.950 . S
C1065 C1064 1.397 . S
C1065 C1066 1.334 . S
C1066 H1037 0.950 . S
C1066 C1065 1.334 . S
C1066 C1067 1.287 . S
C1067 C1066 1.287 . S
C1067 C1068 1.524 . S
C1067 H1070 0.999 . S
C1068 H1038 0.950 . S
C1068 C1067 1.524 . S
C1068 C1069 1.415 . S
C1069 H1039 0.950 . S
C1069 C1064 1.363 . S
C1069 C1068 1.415 . S
H1070 C1067 0.999 . S
H1071 C1052 0.913 . S
H1072 C1090 0.951 . S
H1073 C1092 0.951 1_554 S
H1074 C1094 0.950 . S
H1075 C1095 0.950 . S
H1076 C1097 0.950 . S
H1077 C1100 0.950 . S
H1078 C1101 0.950 . S
H1079 C1103 0.950 . S
H1080 C1104 0.950 1_545 S
H1081 C1105 0.951 . S
H1082 C1107 0.951 1_566 S
H1083 C1109 0.950 . S
H1084 C1110 0.950 . S
H1085 C1112 0.950 . S
H1086 C1115 0.950 . S
H1087 C1116 0.950 . S
H1088 C1118 0.950 . S
H1089 C1119 0.948 1_565 S
C1090 H1072 0.951 . S
C1090 C1091 1.366 1_545 S
C1090 C1092 1.388 . S
C1091 C1090 1.366 1_565 S
C1091 C1095 1.385 . S
C1092 H1073 0.951 1_556 S
C1092 C1090 1.388 . S
C1092 C1093 1.366 1_545 S
C1093 C1092 1.366 1_565 S
C1093 C1094 1.414 . S
C1093 C1096 1.506 . S
C1094 H1074 0.950 . S
C1094 C1093 1.414 . S
C1094 C1095 1.374 . S
C1095 H1075 0.950 . S
C1095 C1091 1.385 . S
C1095 C1094 1.374 . S
C1096 C1093 1.506 . S
C1096 C1097 1.364 1_565 S
C1096 C1098 1.390 1_556 S
C1097 H1076 0.950 . S
C1097 C1096 1.364 1_545 S
C1097 C1113 1.377 . S
C1098 C1096 1.390 1_554 S
C1098 C1099 1.524 . S
C1098 C1112 1.377 1_565 S
C1099 C1098 1.524 . S
C1099 C1100 1.397 . S
C1099 C1104 1.363 . S
C1100 H1077 0.950 . S
C1100 C1099 1.397 . S
C1100 C1101 1.334 . S
C1101 H1078 0.950 . S
C1101 C1100 1.334 . S
C1101 C1102 1.287 . S
C1102 C1101 1.287 . S
C1102 C1103 1.524 . S
C1102 H1121 0.913 . S
C1103 H1079 0.950 . S
C1103 C1102 1.524 . S
C1103 C1104 1.415 . S
C1104 H1080 0.950 1_565 S
C1104 C1099 1.363 . S
C1104 C1103 1.415 . S
C1105 H1081 0.951 . S
C1105 C1106 1.366 . S
C1105 C1107 1.388 . S
C1106 C1105 1.366 . S
C1106 C1110 1.385 . S
C1107 H1082 0.951 1_544 S
C1107 C1105 1.388 . S
C1107 C1108 1.366 . S
C1108 C1107 1.366 . S
C1108 C1109 1.414 . S
C1108 C1111 1.499 . S
C1109 H1083 0.950 . S
C1109 C1108 1.414 . S
C1109 C1110 1.374 . S
C1110 H1084 0.950 . S
C1110 C1106 1.385 . S
C1110 C1109 1.374 . S
C1111 C1108 1.499 . S
C1111 C1112 1.373 . S
C1111 C1113 1.389 1_554 S
C1112 H1085 0.950 . S
C1112 C1098 1.377 1_545 S
C1112 C1111 1.373 . S
C1113 C1097 1.377 . S
C1113 C1111 1.389 1_556 S
C1113 C1114 1.524 . S
C1114 C1113 1.524 . S
C1114 C1115 1.397 . S
C1114 C1119 1.363 . S
C1115 H1086 0.950 . S
C1115 C1114 1.397 . S
C1115 C1116 1.334 . S
C1116 H1087 0.950 . S
C1116 C1115 1.334 . S
C1116 C1117 1.287 . S
C1117 C1116 1.287 . S
C1117 C1118 1.524 . S
C1117 H1120 0.999 . S
C1118 H1088 0.950 . S
C1118 C1117 1.524 . S
C1118 C1119 1.415 . S
C1119 H1089 0.948 1_545 S
C1119 C1114 1.363 . S
C1119 C1118 1.415 . S
H1120 C1117 0.999 . S
H1121 C1102 0.913 . S
H1122 C1140 0.951 . S
H1123 C1142 0.951 . S
H1124 C1144 0.950 . S
H1125 C1145 0.950 . S
H1126 C1147 0.950 . S
H1127 C1150 0.950 . S
H1128 C1151 0.950 . S
H1129 C1153 0.950 . S
H1130 C1154 0.950 . S
H1131 C1155 0.951 . S
H1132 C1157 0.951 . S
H1133 C1159 0.950 . S
H1134 C1160 0.950 . S
H1135 C1162 0.950 . S
H1136 C1165 0.950 . S
H1137 C1166 0.950 . S
H1138 C1168 0.950 . S
H1139 C1169 0.950 . S
C1140 H1122 0.951 . S
C1140 C1141 1.366 . S
C1140 C1142 1.388 . S
C1141 C1140 1.366 . S
C1141 C1145 1.385 . S
C1142 H1123 0.951 . S
C1142 C1140 1.388 . S
C1142 C1143 1.366 . S
C1143 C1142 1.366 . S
C1143 C1144 1.414 . S
C1143 C1146 1.499 . S
C1144 H1124 0.950 . S
C1144 C1143 1.414 . S
C1144 C1145 1.374 . S
C1145 H1125 0.950 . S
C1145 C1141 1.385 . S
C1145 C1144 1.374 . S
C1146 C1143 1.499 . S
C1146 C1147 1.373 . S
C1146 C1148 1.389 . S
C1147 H1126 0.950 . S
C1147 C1146 1.373 . S
C1147 C1163 1.377 . S
C1148 C1146 1.389 . S
C1148 C1149 1.524 . S
C1148 C1162 1.377 . S
C1149 C1148 1.524 . S
C1149 C1150 1.397 . S
C1149 C1154 1.363 . S
C1150 H1127 0.950 . S
C1150 C1149 1.397 . S
C1150 C1151 1.334 . S
C1151 H1128 0.950 . S
C1151 C1150 1.334 . S
C1151 C1152 1.287 . S
C1152 C1151 1.287 . S
C1152 C1153 1.524 . S
C1152 H1171 0.913 . S
C1153 H1129 0.950 . S
C1153 C1152 1.524 . S
C1153 C1154 1.415 . S
C1154 H1130 0.950 . S
C1154 C1149 1.363 . S
C1154 C1153 1.415 . S
C1155 H1131 0.951 . S
C1155 C1156 1.366 . S
C1155 C1157 1.388 . S
C1156 C1155 1.366 . S
C1156 C1160 1.385 . S
C1157 H1132 0.951 . S
C1157 C1155 1.388 . S
C1157 C1158 1.366 . S
C1158 C1157 1.366 . S
C1158 C1159 1.414 . S
C1158 C1161 1.499 . S
C1159 H1133 0.950 . S
C1159 C1158 1.414 . S
C1159 C1160 1.374 . S
C1160 H1134 0.950 . S
C1160 C1156 1.385 . S
C1160 C1159 1.374 . S
C1161 C1158 1.499 . S
C1161 C1162 1.373 . S
C1161 C1163 1.389 . S
C1162 H1135 0.950 . S
C1162 C1148 1.377 . S
C1162 C1161 1.373 . S
C1163 C1147 1.377 . S
C1163 C1161 1.389 . S
C1163 C1164 1.524 . S
C1164 C1163 1.524 . S
C1164 C1165 1.397 . S
C1164 C1169 1.363 . S
C1165 H1136 0.950 . S
C1165 C1164 1.397 . S
C1165 C1166 1.334 . S
C1166 H1137 0.950 . S
C1166 C1165 1.334 . S
C1166 C1167 1.287 . S
C1167 C1166 1.287 . S
C1167 C1168 1.524 . S
C1167 H1170 0.999 . S
C1168 H1138 0.950 . S
C1168 C1167 1.524 . S
C1168 C1169 1.415 . S
C1169 H1139 0.950 . S
C1169 C1164 1.363 . S
C1169 C1168 1.415 . S
H1170 C1167 0.999 . S
H1171 C1152 0.913 . S
H1172 C1190 0.951 . S
H1173 C1192 0.951 . S
H1174 C1194 0.950 . S
H1175 C1195 0.950 . S
H1176 C1197 0.950 . S
H1177 C1200 0.950 . S
H1178 C1201 0.950 . S
H1179 C1203 0.950 . S
H1180 C1204 0.950 . S
H1181 C1205 0.951 . S
H1182 C1207 0.951 . S
H1183 C1209 0.950 . S
H1184 C1210 0.950 . S
H1185 C1212 0.950 . S
H1186 C1215 0.950 . S
H1187 C1216 0.950 . S
H1188 C1218 0.950 1_556 S
H1189 C1219 0.950 . S
C1190 H1172 0.951 . S
C1190 C1191 1.366 . S
C1190 C1192 1.388 . S
C1191 C1190 1.366 . S
C1191 C1195 1.385 . S
C1192 H1173 0.951 . S
C1192 C1190 1.388 . S
C1192 C1193 1.366 . S
C1193 C1192 1.366 . S
C1193 C1194 1.414 . S
C1193 C1196 1.499 . S
C1194 H1174 0.950 . S
C1194 C1193 1.414 . S
C1194 C1195 1.374 . S
C1195 H1175 0.950 . S
C1195 C1191 1.385 . S
C1195 C1194 1.374 . S
C1196 C1193 1.499 . S
C1196 C1197 1.373 . S
C1196 C1198 1.389 . S
C1197 H1176 0.950 . S
C1197 C1196 1.373 . S
C1197 C1213 1.377 . S
C1198 C1196 1.389 . S
C1198 C1199 1.524 . S
C1198 C1212 1.377 . S
C1199 C1198 1.524 . S
C1199 C1200 1.397 . S
C1199 C1204 1.363 . S
C1200 H1177 0.950 . S
C1200 C1199 1.397 . S
C1200 C1201 1.334 . S
C1201 H1178 0.950 . S
C1201 C1200 1.334 . S
C1201 C1202 1.287 . S
C1202 C1201 1.287 . S
C1202 C1203 1.524 . S
C1202 H1221 0.913 . S
C1203 H1179 0.950 . S
C1203 C1202 1.524 . S
C1203 C1204 1.415 . S
C1204 H1180 0.950 . S
C1204 C1199 1.363 . S
C1204 C1203 1.415 . S
C1205 H1181 0.951 . S
C1205 C1206 1.366 . S
C1205 C1207 1.388 . S
C1206 C1205 1.366 . S
C1206 C1210 1.385 . S
C1207 H1182 0.951 . S
C1207 C1205 1.388 . S
C1207 C1208 1.366 . S
C1208 C1207 1.366 . S
C1208 C1209 1.414 . S
C1208 C1211 1.499 . S
C1209 H1183 0.950 . S
C1209 C1208 1.414 . S
C1209 C1210 1.374 . S
C1210 H1184 0.950 . S
C1210 C1206 1.385 . S
C1210 C1209 1.374 . S
C1211 C1208 1.499 . S
C1211 C1212 1.373 . S
C1211 C1213 1.389 . S
C1212 H1185 0.950 . S
C1212 C1198 1.377 . S
C1212 C1211 1.373 . S
C1213 C1197 1.377 . S
C1213 C1211 1.389 . S
C1213 C1214 1.524 . S
C1214 C1213 1.524 . S
C1214 C1215 1.397 . S
C1214 C1219 1.363 . S
C1215 H1186 0.950 . S
C1215 C1214 1.397 . S
C1215 C1216 1.334 . S
C1216 H1187 0.950 . S
C1216 C1215 1.334 . S
C1216 C1217 1.287 . S
C1217 C1216 1.287 . S
C1217 C1218 1.524 . S
C1217 H1220 0.999 1_554 S
C1218 H1188 0.950 1_554 S
C1218 C1217 1.524 . S
C1218 C1219 1.415 . S
C1219 H1189 0.950 . S
C1219 C1214 1.363 . S
C1219 C1218 1.415 . S
H1220 C1217 0.999 1_556 S
H1221 C1202 0.913 . S
H1222 C1240 0.951 . S
H1223 C1242 0.951 . S
H1224 C1244 0.950 . S
H1225 C1245 0.950 . S
H1226 C1247 0.950 . S
H1227 C1250 0.950 . S
H1228 C1251 0.950 . S
H1229 C1253 0.950 . S
H1230 C1254 0.950 . S
H1231 C1255 0.951 . S
H1232 C1257 0.951 . S
H1233 C1259 0.950 . S
H1234 C1260 0.950 . S
H1235 C1262 0.950 . S
H1236 C1265 0.950 . S
H1237 C1266 0.950 . S
H1238 C1268 0.950 . S
H1239 C1269 0.950 . S
C1240 H1222 0.951 . S
C1240 C1241 1.366 . S
C1240 C1242 1.388 . S
C1241 C1240 1.366 . S
C1241 C1245 1.385 . S
C1242 H1223 0.951 . S
C1242 C1240 1.388 . S
C1242 C1243 1.366 . S
C1243 C1242 1.366 . S
C1243 C1244 1.414 . S
C1243 C1246 1.499 . S
C1244 H1224 0.950 . S
C1244 C1243 1.414 . S
C1244 C1245 1.374 . S
C1245 H1225 0.950 . S
C1245 C1241 1.385 . S
C1245 C1244 1.374 . S
C1246 C1243 1.499 . S
C1246 C1247 1.373 . S
C1246 C1248 1.389 . S
C1247 H1226 0.950 . S
C1247 C1246 1.373 . S
C1247 C1263 1.377 . S
C1248 C1246 1.389 . S
C1248 C1249 1.524 . S
C1248 C1262 1.377 . S
C1249 C1248 1.524 . S
C1249 C1250 1.397 . S
C1249 C1254 1.363 . S
C1250 H1227 0.950 . S
C1250 C1249 1.397 . S
C1250 C1251 1.334 . S
C1251 H1228 0.950 . S
C1251 C1250 1.334 . S
C1251 C1252 1.287 . S
C1252 C1251 1.287 . S
C1252 C1253 1.524 . S
C1252 H1271 0.913 . S
C1253 H1229 0.950 . S
C1253 C1252 1.524 . S
C1253 C1254 1.415 . S
C1254 H1230 0.950 . S
C1254 C1249 1.363 . S
C1254 C1253 1.415 . S
C1255 H1231 0.951 . S
C1255 C1256 1.366 . S
C1255 C1257 1.388 . S
C1256 C1255 1.366 . S
C1256 C1260 1.385 . S
C1257 H1232 0.951 . S
C1257 C1255 1.388 . S
C1257 C1258 1.366 . S
C1258 C1257 1.366 . S
C1258 C1259 1.414 . S
C1258 C1261 1.499 . S
C1259 H1233 0.950 . S
C1259 C1258 1.414 . S
C1259 C1260 1.374 . S
C1260 H1234 0.950 . S
C1260 C1256 1.385 . S
C1260 C1259 1.374 . S
C1261 C1258 1.499 . S
C1261 C1262 1.373 . S
C1261 C1263 1.389 . S
C1262 H1235 0.950 . S
C1262 C1248 1.377 . S
C1262 C1261 1.373 . S
C1263 C1247 1.377 . S
C1263 C1261 1.389 . S
C1263 C1264 1.524 . S
C1264 C1263 1.524 . S
C1264 C1265 1.397 . S
C1264 C1269 1.363 . S
C1265 H1236 0.950 . S
C1265 C1264 1.397 . S
C1265 C1266 1.334 . S
C1266 H1237 0.950 . S
C1266 C1265 1.334 . S
C1266 C1267 1.287 . S
C1267 C1266 1.287 . S
C1267 C1268 1.524 . S
C1267 H1270 0.999 . S
C1268 H1238 0.950 . S
C1268 C1267 1.524 . S
C1268 C1269 1.415 . S
C1269 H1239 0.950 . S
C1269 C1264 1.363 . S
C1269 C1268 1.415 . S
H1270 C1267 0.999 . S
H1271 C1252 0.913 . S
H1272 C1290 0.951 . S
H1273 C1292 0.951 . S
H1274 C1294 0.950 . S
H1275 C1295 0.950 . S
H1276 C1297 0.950 . S
H1277 C1300 0.950 1_556 S
H1278 C1301 0.950 . S
H1279 C1303 0.950 . S
H1280 C1304 0.950 . S
H1281 C1305 0.951 . S
H1282 C1307 0.951 . S
H1283 C1309 0.954 . S
H1284 C1310 0.950 . S
H1285 C1312 0.950 1_554 S
H1286 C1315 0.950 . S
H1287 C1316 0.950 . S
H1288 C1318 0.950 . S
H1289 C1319 0.950 . S
C1290 H1272 0.951 . S
C1290 C1291 1.366 . S
C1290 C1292 1.388 . S
C1291 C1290 1.366 . S
C1291 C1295 1.385 . S
C1292 H1273 0.951 . S
C1292 C1290 1.388 . S
C1292 C1293 1.366 . S
C1293 C1292 1.366 . S
C1293 C1294 1.414 . S
C1293 C1296 1.499 . S
C1294 H1274 0.950 . S
C1294 C1293 1.414 . S
C1294 C1295 1.374 . S
C1295 H1275 0.950 . S
C1295 C1291 1.385 . S
C1295 C1294 1.374 . S
C1296 C1293 1.499 . S
C1296 C1297 1.373 . S
C1296 C1298 1.389 . S
C1297 H1276 0.950 . S
C1297 C1296 1.373 . S
C1297 C1313 1.377 . S
C1298 C1296 1.389 . S
C1298 C1299 1.524 1_556 S
C1298 C1312 1.377 . S
C1299 C1298 1.524 1_554 S
C1299 C1300 1.397 . S
C1299 C1304 1.363 . S
C1300 H1277 0.950 1_554 S
C1300 C1299 1.397 . S
C1300 C1301 1.334 . S
C1301 H1278 0.950 . S
C1301 C1300 1.334 . S
C1301 C1302 1.287 . S
C1302 C1301 1.287 . S
C1302 C1303 1.524 . S
C1302 H1321 0.913 . S
C1303 H1279 0.950 . S
C1303 C1302 1.524 . S
C1303 C1304 1.415 . S
C1304 H1280 0.950 . S
C1304 C1299 1.363 . S
C1304 C1303 1.415 . S
C1305 H1281 0.951 . S
C1305 C1306 1.366 . S
C1305 C1307 1.388 . S
C1306 C1305 1.366 . S
C1306 C1310 1.385 1_456 S
C1307 H1282 0.951 . S
C1307 C1305 1.388 . S
C1307 C1308 1.366 1_455 S
C1308 C1307 1.366 1_655 S
C1308 C1309 1.409 1_556 S
C1308 C1311 1.499 . S
C1309 H1283 0.954 . S
C1309 C1308 1.409 1_554 S
C1309 C1310 1.375 . S
C1310 H1284 0.950 . S
C1310 C1306 1.385 1_654 S
C1310 C1309 1.375 . S
C1311 C1308 1.499 . S
C1311 C1312 1.373 . S
C1311 C1313 1.389 . S
C1312 H1285 0.950 1_556 S
C1312 C1298 1.377 . S
C1312 C1311 1.373 . S
C1313 C1297 1.377 . S
C1313 C1311 1.389 . S
C1313 C1314 1.524 . S
C1314 C1313 1.524 . S
C1314 C1315 1.397 . S
C1314 C1319 1.363 . S
C1315 H1286 0.950 . S
C1315 C1314 1.397 . S
C1315 C1316 1.334 . S
C1316 H1287 0.950 . S
C1316 C1315 1.334 . S
C1316 C1317 1.287 . S
C1317 C1316 1.287 . S
C1317 C1318 1.524 . S
C1317 H1320 0.999 . S
C1318 H1288 0.950 . S
C1318 C1317 1.524 . S
C1318 C1319 1.415 . S
C1319 H1289 0.950 . S
C1319 C1314 1.363 . S
C1319 C1318 1.415 . S
H1320 C1317 0.999 . S
H1321 C1302 0.913 . S
H1322 C1340 0.951 . S
H1323 C1342 0.951 . S
H1324 C1344 0.950 . S
H1325 C1345 0.950 . S
H1326 C1347 0.950 . S
H1327 C1350 0.950 . S
H1328 C1351 0.950 . S
H1329 C1353 0.950 . S
H1330 C1354 0.950 . S
H1331 C1355 0.951 . S
H1332 C1357 0.951 . S
H1333 C1359 0.950 . S
H1334 C1360 0.950 . S
H1335 C1362 0.950 . S
H1336 C1365 0.950 . S
H1337 C1366 0.950 . S
H1338 C1368 0.950 . S
H1339 C1369 0.950 . S
C1340 H1322 0.951 . S
C1340 C1341 1.366 . S
C1340 C1342 1.388 . S
C1341 C1340 1.366 . S
C1341 C1345 1.385 . S
C1342 H1323 0.951 . S
C1342 C1340 1.388 . S
C1342 C1343 1.366 . S
C1343 C1342 1.366 . S
C1343 C1344 1.414 . S
C1343 C1346 1.499 . S
C1344 H1324 0.950 . S
C1344 C1343 1.414 . S
C1344 C1345 1.374 . S
C1345 H1325 0.950 . S
C1345 C1341 1.385 . S
C1345 C1344 1.374 . S
C1346 C1343 1.499 . S
C1346 C1347 1.373 . S
C1346 C1348 1.389 . S
C1347 H1326 0.950 . S
C1347 C1346 1.373 . S
C1347 C1363 1.377 . S
C1348 C1346 1.389 . S
C1348 C1349 1.524 . S
C1348 C1362 1.377 . S
C1349 C1348 1.524 . S
C1349 C1350 1.397 . S
C1349 C1354 1.363 . S
C1350 H1327 0.950 . S
C1350 C1349 1.397 . S
C1350 C1351 1.334 . S
C1351 H1328 0.950 . S
C1351 C1350 1.334 . S
C1351 C1352 1.287 . S
C1352 C1351 1.287 . S
C1352 C1353 1.524 . S
C1352 H1371 0.913 . S
C1353 H1329 0.950 . S
C1353 C1352 1.524 . S
C1353 C1354 1.415 . S
C1354 H1330 0.950 . S
C1354 C1349 1.363 . S
C1354 C1353 1.415 . S
C1355 H1331 0.951 . S
C1355 C1356 1.366 . S
C1355 C1357 1.388 . S
C1356 C1355 1.366 . S
C1356 C1360 1.385 . S
C1357 H1332 0.951 . S
C1357 C1355 1.388 . S
C1357 C1358 1.366 . S
C1358 C1357 1.366 . S
C1358 C1359 1.414 . S
C1358 C1361 1.499 . S
C1359 H1333 0.950 . S
C1359 C1358 1.414 . S
C1359 C1360 1.374 . S
C1360 H1334 0.950 . S
C1360 C1356 1.385 . S
C1360 C1359 1.374 . S
C1361 C1358 1.499 . S
C1361 C1362 1.373 . S
C1361 C1363 1.389 . S
C1362 H1335 0.950 . S
C1362 C1348 1.377 . S
C1362 C1361 1.373 . S
C1363 C1347 1.377 . S
C1363 C1361 1.389 . S
C1363 C1364 1.524 . S
C1364 C1363 1.524 . S
C1364 C1365 1.397 . S
C1364 C1369 1.363 . S
C1365 H1336 0.950 . S
C1365 C1364 1.397 . S
C1365 C1366 1.334 . S
C1366 H1337 0.950 . S
C1366 C1365 1.334 . S
C1366 C1367 1.287 . S
C1367 C1366 1.287 . S
C1367 C1368 1.524 . S
C1367 H1370 0.999 . S
C1368 H1338 0.950 . S
C1368 C1367 1.524 . S
C1368 C1369 1.415 . S
C1369 H1339 0.950 . S
C1369 C1364 1.363 . S
C1369 C1368 1.415 . S
H1370 C1367 0.999 . S
H1371 C1352 0.913 . S
H1372 C1390 0.951 . S
H1373 C1392 0.951 . S
H1374 C1394 0.950 . S
H1375 C1395 0.950 . S
H1376 C1397 0.950 . S
H1377 C1400 0.950 . S
H1378 C1401 0.950 . S
H1379 C1403 0.950 . S
H1380 C1404 0.950 . S
H1381 C1405 0.951 . S
H1382 C1407 0.951 . S
H1383 C1409 0.950 . S
H1384 C1410 0.950 . S
H1385 C1412 0.950 . S
H1386 C1415 0.950 . S
H1387 C1416 0.950 . S
H1388 C1418 0.950 . S
H1389 C1419 0.950 . S
C1390 H1372 0.951 . S
C1390 C1391 1.366 . S
C1390 C1392 1.388 . S
C1391 C1390 1.366 . S
C1391 C1395 1.385 . S
C1392 H1373 0.951 . S
C1392 C1390 1.388 . S
C1392 C1393 1.366 . S
C1393 C1392 1.366 . S
C1393 C1394 1.414 . S
C1393 C1396 1.499 . S
C1394 H1374 0.950 . S
C1394 C1393 1.414 . S
C1394 C1395 1.374 . S
C1395 H1375 0.950 . S
C1395 C1391 1.385 . S
C1395 C1394 1.374 . S
C1396 C1393 1.499 . S
C1396 C1397 1.373 . S
C1396 C1398 1.389 . S
C1397 H1376 0.950 . S
C1397 C1396 1.373 . S
C1397 C1413 1.377 . S
C1398 C1396 1.389 . S
C1398 C1399 1.524 . S
C1398 C1412 1.377 . S
C1399 C1398 1.524 . S
C1399 C1400 1.397 . S
C1399 C1404 1.363 . S
C1400 H1377 0.950 . S
C1400 C1399 1.397 . S
C1400 C1401 1.334 . S
C1401 H1378 0.950 . S
C1401 C1400 1.334 . S
C1401 C1402 1.287 . S
C1402 C1401 1.287 . S
C1402 C1403 1.524 . S
C1402 H1421 0.913 . S
C1403 H1379 0.950 . S
C1403 C1402 1.524 . S
C1403 C1404 1.415 . S
C1404 H1380 0.950 . S
C1404 C1399 1.363 . S
C1404 C1403 1.415 . S
C1405 H1381 0.951 . S
C1405 C1406 1.366 . S
C1405 C1407 1.388 . S
C1406 C1405 1.366 . S
C1406 C1410 1.385 . S
C1407 H1382 0.951 . S
C1407 C1405 1.388 . S
C1407 C1408 1.366 . S
C1408 C1407 1.366 . S
C1408 C1409 1.414 . S
C1408 C1411 1.499 . S
C1409 H1383 0.950 . S
C1409 C1408 1.414 . S
C1409 C1410 1.374 . S
C1410 H1384 0.950 . S
C1410 C1406 1.385 . S
C1410 C1409 1.374 . S
C1411 C1408 1.499 . S
C1411 C1412 1.373 . S
C1411 C1413 1.389 . S
C1412 H1385 0.950 . S
C1412 C1398 1.377 . S
C1412 C1411 1.373 . S
C1413 C1397 1.377 . S
C1413 C1411 1.389 . S
C1413 C1414 1.524 . S
C1414 C1413 1.524 . S
C1414 C1415 1.397 . S
C1414 C1419 1.363 . S
C1415 H1386 0.950 . S
C1415 C1414 1.397 . S
C1415 C1416 1.334 . S
C1416 H1387 0.950 . S
C1416 C1415 1.334 . S
C1416 C1417 1.287 . S
C1417 C1416 1.287 . S
C1417 C1418 1.524 . S
C1417 H1420 0.999 . S
C1418 H1388 0.950 . S
C1418 C1417 1.524 . S
C1418 C1419 1.415 . S
C1419 H1389 0.950 . S
C1419 C1414 1.363 . S
C1419 C1418 1.415 . S
H1420 C1417 0.999 . S
H1421 C1402 0.913 . S
H1422 C1440 0.951 . S
H1423 C1442 0.951 . S
H1424 C1444 0.950 . S
H1425 C1445 0.950 . S
H1426 C1447 0.950 . S
H1427 C1450 0.950 . S
H1428 C1451 0.950 . S
H1429 C1453 0.950 . S
H1430 C1454 0.950 . S
H1431 C1455 0.951 . S
H1432 C1457 0.951 . S
H1433 C1459 0.950 . S
H1434 C1460 0.950 . S
H1435 C1462 0.950 . S
H1436 C1465 0.950 . S
H1437 C1466 0.950 . S
H1438 C1468 0.950 . S
H1439 C1469 0.950 . S
C1440 H1422 0.951 . S
C1440 C1441 1.366 . S
C1440 C1442 1.388 . S
C1441 C1440 1.366 . S
C1441 C1445 1.385 . S
C1442 H1423 0.951 . S
C1442 C1440 1.388 . S
C1442 C1443 1.366 . S
C1443 C1442 1.366 . S
C1443 C1444 1.414 . S
C1443 C1446 1.499 . S
C1444 H1424 0.950 . S
C1444 C1443 1.414 . S
C1444 C1445 1.374 . S
C1445 H1425 0.950 . S
C1445 C1441 1.385 . S
C1445 C1444 1.374 . S
C1446 C1443 1.499 . S
C1446 C1447 1.373 . S
C1446 C1448 1.389 . S
C1447 H1426 0.950 . S
C1447 C1446 1.373 . S
C1447 C1463 1.377 . S
C1448 C1446 1.389 . S
C1448 C1449 1.524 . S
C1448 C1462 1.377 . S
C1449 C1448 1.524 . S
C1449 C1450 1.397 . S
C1449 C1454 1.363 . S
C1450 H1427 0.950 . S
C1450 C1449 1.397 . S
C1450 C1451 1.334 . S
C1451 H1428 0.950 . S
C1451 C1450 1.334 . S
C1451 C1452 1.287 . S
C1452 C1451 1.287 . S
C1452 C1453 1.524 . S
C1452 H1471 0.913 . S
C1453 H1429 0.950 . S
C1453 C1452 1.524 . S
C1453 C1454 1.415 . S
C1454 H1430 0.950 . S
C1454 C1449 1.363 . S
C1454 C1453 1.415 . S
C1455 H1431 0.951 . S
C1455 C1456 1.366 . S
C1455 C1457 1.388 . S
C1456 C1455 1.366 . S
C1456 C1460 1.385 . S
C1457 H1432 0.951 . S
C1457 C1455 1.388 . S
C1457 C1458 1.366 . S
C1458 C1457 1.366 . S
C1458 C1459 1.414 . S
C1458 C1461 1.499 . S
C1459 H1433 0.950 . S
C1459 C1458 1.414 . S
C1459 C1460 1.374 . S
C1460 H1434 0.950 . S
C1460 C1456 1.385 . S
C1460 C1459 1.374 . S
C1461 C1458 1.499 . S
C1461 C1462 1.373 . S
C1461 C1463 1.389 . S
C1462 H1435 0.950 . S
C1462 C1448 1.377 . S
C1462 C1461 1.373 . S
C1463 C1447 1.377 . S
C1463 C1461 1.389 . S
C1463 C1464 1.524 . S
C1464 C1463 1.524 . S
C1464 C1465 1.397 . S
C1464 C1469 1.363 . S
C1465 H1436 0.950 . S
C1465 C1464 1.397 . S
C1465 C1466 1.334 . S
C1466 H1437 0.950 . S
C1466 C1465 1.334 . S
C1466 C1467 1.287 . S
C1467 C1466 1.287 . S
C1467 C1468 1.524 . S
C1467 H1470 0.999 . S
C1468 H1438 0.950 . S
C1468 C1467 1.524 . S
C1468 C1469 1.415 . S
C1469 H1439 0.950 . S
C1469 C1464 1.363 . S
C1469 C1468 1.415 . S
H1470 C1467 0.999 . S
H1471 C1452 0.913 . S
C291 C6 2.453 . S
C306 C168 2.477 . S
C341 C21 1.678 . S
C356 N188 1.675 . S
C406 C222 1.245 . S
C391 C49 1.186 . S
C441 C68 0.938 . S
C456 N256 1.006 . S
C506 C209 3.224 . S
C491 C2 3.195 . S
C556 N166 0.885 . S
C541 C30 0.845 . S
C606 C243 1.606 . S
C591 C40 1.593 . S
C656 N218 0.838 . S
C641 C63 0.844 . S
C691 C11 1.627 . S
C706 C258 1.870 . S
C756 C192 1.818 . S
C741 C44 1.809 . S
C791 C59 0.944 . S
C806 C153 0.956 . S
C841 C25 1.767 . S
C856 C239 1.785 . S
C906 C179 2.734 . S
C891 C82 2.717 . S
C941 C101 1.352 . S
C956 N196 1.328 . S
C991 C125 1.678 . S
C1006 C213 1.744 . S
C1041 C144 0.744 . S
C1056 N248 0.745 . S
C1091 C87 1.870 . S
C1106 C198 2.085 . S
C1156 N158 1.899 . S
C1141 C97 1.903 . S
C1206 C252 1.655 . S
C1191 C120 1.652 . S
C1256 N226 0.835 . S
C1241 C135 0.834 . S
C1291 C78 2.208 . S
C1306 C269 2.225 1_556 S
C1356 C183 1.219 . S
C1341 C116 1.207 . S
C1406 C162 1.589 . S
C1391 C139 1.576 . S
C1441 C106 1.379 . S
C1456 C228 1.471 . S
