# Generated by pormake.
# Topology eea, (3,6)-cn, num edge types: 1
# Building blocks:
#     Node 0, Type 0, BuildingBlock: CUQRIR_clean_linker_1, # of connection points: 3
#     Node 1, Type 0, BuildingBlock: CUQRIR_clean_linker_1, # of connection points: 3
#     Node 2, Type 0, BuildingBlock: CUQRIR_clean_linker_1, # of connection points: 3
#     Node 3, Type 0, BuildingBlock: CUQRIR_clean_linker_1, # of connection points: 3
#     Node 4, Type 0, BuildingBlock: CUQRIR_clean_linker_1, # of connection points: 3
#     Node 5, Type 0, BuildingBlock: CUQRIR_clean_linker_1, # of connection points: 3
#     Node 6, Type 0, BuildingBlock: CUQRIR_clean_linker_1, # of connection points: 3
#     Node 7, Type 0, BuildingBlock: CUQRIR_clean_linker_1, # of connection points: 3
#     Node 8, Type 0, BuildingBlock: CUQRIR_clean_linker_1, # of connection points: 3
#     Node 9, Type 0, BuildingBlock: CUQRIR_clean_linker_1, # of connection points: 3
#     Node 10, Type 0, BuildingBlock: CUQRIR_clean_linker_1, # of connection points: 3
#     Node 11, Type 0, BuildingBlock: CUQRIR_clean_linker_1, # of connection points: 3
#     Node 12, Type 0, BuildingBlock: CUQRIR_clean_linker_1, # of connection points: 3
#     Node 13, Type 0, BuildingBlock: CUQRIR_clean_linker_1, # of connection points: 3
#     Node 14, Type 0, BuildingBlock: CUQRIR_clean_linker_1, # of connection points: 3
#     Node 15, Type 0, BuildingBlock: CUQRIR_clean_linker_1, # of connection points: 3
#     Node 16, Type 0, BuildingBlock: CUQRIR_clean_linker_1, # of connection points: 3
#     Node 17, Type 0, BuildingBlock: CUQRIR_clean_linker_1, # of connection points: 3
#     Node 18, Type 1, BuildingBlock: KUMBUR_clean_sbu_0, # of connection points: 6
#     Node 19, Type 1, BuildingBlock: KUMBUR_clean_sbu_0, # of connection points: 6
#     Node 20, Type 1, BuildingBlock: KUMBUR_clean_sbu_0, # of connection points: 6
#     Node 21, Type 1, BuildingBlock: KUMBUR_clean_sbu_0, # of connection points: 6
#     Node 22, Type 1, BuildingBlock: KUMBUR_clean_sbu_0, # of connection points: 6
#     Node 23, Type 1, BuildingBlock: KUMBUR_clean_sbu_0, # of connection points: 6
#     Node 24, Type 1, BuildingBlock: KUMBUR_clean_sbu_0, # of connection points: 6
#     Node 25, Type 1, BuildingBlock: KUMBUR_clean_sbu_0, # of connection points: 6
#     Node 26, Type 1, BuildingBlock: KUMBUR_clean_sbu_0, # of connection points: 6
#     Edge 27, Type (0, 1), BuildingBlock: CIFDUS_clean_linker_0, # of connection points: 2
#     Edge 28, Type (0, 1), BuildingBlock: CIFDUS_clean_linker_0, # of connection points: 2
#     Edge 29, Type (0, 1), BuildingBlock: CIFDUS_clean_linker_0, # of connection points: 2
#     Edge 30, Type (0, 1), BuildingBlock: CIFDUS_clean_linker_0, # of connection points: 2
#     Edge 31, Type (0, 1), BuildingBlock: CIFDUS_clean_linker_0, # of connection points: 2
#     Edge 32, Type (0, 1), BuildingBlock: CIFDUS_clean_linker_0, # of connection points: 2
#     Edge 33, Type (0, 1), BuildingBlock: CIFDUS_clean_linker_0, # of connection points: 2
#     Edge 34, Type (0, 1), BuildingBlock: CIFDUS_clean_linker_0, # of connection points: 2
#     Edge 35, Type (0, 1), BuildingBlock: CIFDUS_clean_linker_0, # of connection points: 2
#     Edge 36, Type (0, 1), BuildingBlock: CIFDUS_clean_linker_0, # of connection points: 2
#     Edge 37, Type (0, 1), BuildingBlock: CIFDUS_clean_linker_0, # of connection points: 2
#     Edge 38, Type (0, 1), BuildingBlock: CIFDUS_clean_linker_0, # of connection points: 2
#     Edge 39, Type (0, 1), BuildingBlock: CIFDUS_clean_linker_0, # of connection points: 2
#     Edge 40, Type (0, 1), BuildingBlock: CIFDUS_clean_linker_0, # of connection points: 2
#     Edge 41, Type (0, 1), BuildingBlock: CIFDUS_clean_linker_0, # of connection points: 2
#     Edge 42, Type (0, 1), BuildingBlock: CIFDUS_clean_linker_0, # of connection points: 2
#     Edge 43, Type (0, 1), BuildingBlock: CIFDUS_clean_linker_0, # of connection points: 2
#     Edge 44, Type (0, 1), BuildingBlock: CIFDUS_clean_linker_0, # of connection points: 2
#     Edge 45, Type (0, 1), BuildingBlock: CIFDUS_clean_linker_0, # of connection points: 2
#     Edge 46, Type (0, 1), BuildingBlock: CIFDUS_clean_linker_0, # of connection points: 2
#     Edge 47, Type (0, 1), BuildingBlock: CIFDUS_clean_linker_0, # of connection points: 2
#     Edge 48, Type (0, 1), BuildingBlock: CIFDUS_clean_linker_0, # of connection points: 2
#     Edge 49, Type (0, 1), BuildingBlock: CIFDUS_clean_linker_0, # of connection points: 2
#     Edge 50, Type (0, 1), BuildingBlock: CIFDUS_clean_linker_0, # of connection points: 2
#     Edge 51, Type (0, 1), BuildingBlock: CIFDUS_clean_linker_0, # of connection points: 2
#     Edge 52, Type (0, 1), BuildingBlock: CIFDUS_clean_linker_0, # of connection points: 2
#     Edge 53, Type (0, 1), BuildingBlock: CIFDUS_clean_linker_0, # of connection points: 2
#     Edge 54, Type (0, 1), BuildingBlock: CIFDUS_clean_linker_0, # of connection points: 2
#     Edge 55, Type (0, 1), BuildingBlock: CIFDUS_clean_linker_0, # of connection points: 2
#     Edge 56, Type (0, 1), BuildingBlock: CIFDUS_clean_linker_0, # of connection points: 2
#     Edge 57, Type (0, 1), BuildingBlock: CIFDUS_clean_linker_0, # of connection points: 2
#     Edge 58, Type (0, 1), BuildingBlock: CIFDUS_clean_linker_0, # of connection points: 2
#     Edge 59, Type (0, 1), BuildingBlock: CIFDUS_clean_linker_0, # of connection points: 2
#     Edge 60, Type (0, 1), BuildingBlock: CIFDUS_clean_linker_0, # of connection points: 2
#     Edge 61, Type (0, 1), BuildingBlock: CIFDUS_clean_linker_0, # of connection points: 2
#     Edge 62, Type (0, 1), BuildingBlock: CIFDUS_clean_linker_0, # of connection points: 2
#     Edge 63, Type (0, 1), BuildingBlock: CIFDUS_clean_linker_0, # of connection points: 2
#     Edge 64, Type (0, 1), BuildingBlock: CIFDUS_clean_linker_0, # of connection points: 2
#     Edge 65, Type (0, 1), BuildingBlock: CIFDUS_clean_linker_0, # of connection points: 2
#     Edge 66, Type (0, 1), BuildingBlock: CIFDUS_clean_linker_0, # of connection points: 2
#     Edge 67, Type (0, 1), BuildingBlock: CIFDUS_clean_linker_0, # of connection points: 2
#     Edge 68, Type (0, 1), BuildingBlock: CIFDUS_clean_linker_0, # of connection points: 2
#     Edge 69, Type (0, 1), BuildingBlock: CIFDUS_clean_linker_0, # of connection points: 2
#     Edge 70, Type (0, 1), BuildingBlock: CIFDUS_clean_linker_0, # of connection points: 2
#     Edge 71, Type (0, 1), BuildingBlock: CIFDUS_clean_linker_0, # of connection points: 2
#     Edge 72, Type (0, 1), BuildingBlock: CIFDUS_clean_linker_0, # of connection points: 2
#     Edge 73, Type (0, 1), BuildingBlock: CIFDUS_clean_linker_0, # of connection points: 2
#     Edge 74, Type (0, 1), BuildingBlock: CIFDUS_clean_linker_0, # of connection points: 2
#     Edge 75, Type (0, 1), BuildingBlock: CIFDUS_clean_linker_0, # of connection points: 2
#     Edge 76, Type (0, 1), BuildingBlock: CIFDUS_clean_linker_0, # of connection points: 2
#     Edge 77, Type (0, 1), BuildingBlock: CIFDUS_clean_linker_0, # of connection points: 2
#     Edge 78, Type (0, 1), BuildingBlock: CIFDUS_clean_linker_0, # of connection points: 2
#     Edge 79, Type (0, 1), BuildingBlock: CIFDUS_clean_linker_0, # of connection points: 2
#     Edge 80, Type (0, 1), BuildingBlock: CIFDUS_clean_linker_0, # of connection points: 2
# Relax obj value: 0.040
# Max RMSD: 0.214
# Mean RMSD: 0.153
data_MOF--net-eea--node1-KUMBUR_clean_sbu_0--node2-CUQRIR_clean_linker_1--edge1-CIFDUS_clean_linker_0
_symmetry_space_group_name_H-M    P1
_symmetry_Int_Tables_number       1
_symmetry_cell_setting            triclinic
loop_
_symmetry_equiv_pos_as_xyz
'x, y, z'
_cell_length_a     40.363971
_cell_length_b     43.966731
_cell_length_c     56.035621
_cell_angle_alpha  82.72294
_cell_angle_beta   89.710849
_cell_angle_gamma 118.67879
loop_
_atom_site_label
_atom_site_type_symbol
_atom_site_fract_x
_atom_site_fract_y
_atom_site_fract_z
_atom_type_partial_charge
C0 C 0.21093 0.1015 0.4183 0.0
N1 N 0.22393 0.12788 0.43191 0.0
N2 N 0.21484 0.07405 0.4292 0.0
C3 C 0.194 0.1023 0.39453 0.0
C4 C 0.2307 0.08489 0.44996 0.0
N5 N 0.23603 0.11737 0.45166 0.0
C6 C 0.23917 0.06311 0.4693 0.0
H7 H 0.16308 0.09189 0.39794 0.0
H8 H 0.19857 0.0858 0.38291 0.0
H9 H 0.20616 0.12934 0.38476 0.0
H10 H 0.26852 0.06808 0.46565 0.0
H11 H 0.21941 0.03476 0.46958 0.0
H12 H 0.2371 0.07031 0.48732 0.0
C13 C 0.90969 0.12805 0.4154 0.0
N14 N 0.93007 0.14823 0.43205 0.0
N15 N 0.8755 0.10178 0.42545 0.0
C16 C 0.92383 0.13336 0.38951 0.0
C17 C 0.87596 0.10687 0.44888 0.0
N18 N 0.9089 0.13493 0.4529 0.0
C19 C 0.84546 0.08272 0.46835 0.0
H20 H 0.89999 0.12125 0.37796 0.0
H21 H 0.94222 0.12118 0.38841 0.0
H22 H 0.94101 0.16165 0.38248 0.0
H23 H 0.83208 0.05524 0.4647 0.0
H24 H 0.82336 0.09082 0.46875 0.0
H25 H 0.85672 0.08385 0.48642 0.0
C26 C 0.91418 0.81211 0.40949 0.0
N27 N 0.93171 0.80196 0.42674 0.0
N28 N 0.87762 0.80014 0.417 0.0
C29 C 0.93174 0.8307 0.38457 0.0
C30 C 0.87359 0.78274 0.43939 0.0
N31 N 0.90625 0.78318 0.4452 0.0
C32 C 0.83797 0.76644 0.45595 0.0
H33 H 0.94938 0.85912 0.38534 0.0
H34 H 0.90988 0.82708 0.37164 0.0
H35 H 0.95045 0.82107 0.37793 0.0
H36 H 0.81997 0.73881 0.45315 0.0
H37 H 0.82161 0.78059 0.45202 0.0
H38 H 0.84473 0.76677 0.47512 0.0
C39 C 0.09571 0.17954 0.65738 0.0
N40 N 0.12138 0.19046 0.63834 0.0
N41 N 0.0635 0.17876 0.65022 0.0
C42 C 0.10353 0.17315 0.68323 0.0
C43 C 0.07047 0.18954 0.62613 0.0
N44 N 0.10569 0.19644 0.61878 0.0
C45 C 0.04428 0.19657 0.61013 0.0
H46 H 0.07687 0.15715 0.69489 0.0
H47 H 0.11979 0.19876 0.68979 0.0
H48 H 0.12099 0.15981 0.68469 0.0
H49 H 0.01685 0.18884 0.61992 0.0
H50 H 0.03871 0.18177 0.59466 0.0
H51 H 0.05814 0.22487 0.60275 0.0
C52 C 0.80946 0.91176 0.65013 0.0
N53 N 0.79948 0.88697 0.63514 0.0
N54 N 0.80209 0.93782 0.64084 0.0
C55 C 0.8274 0.91106 0.67357 0.0
C56 C 0.78685 0.92778 0.61983 0.0
N57 N 0.78505 0.89706 0.61632 0.0
C58 C 0.77349 0.94806 0.60259 0.0
H59 H 0.82171 0.92558 0.68627 0.0
H60 H 0.85855 0.92376 0.66985 0.0
H61 H 0.81696 0.88373 0.68249 0.0
H62 H 0.79666 0.96524 0.5885 0.0
H63 H 0.76566 0.96464 0.61206 0.0
H64 H 0.74875 0.93007 0.5935 0.0
C65 C 0.11539 0.92254 0.65896 0.0
N66 N 0.10157 0.8952 0.64603 0.0
N67 N 0.14781 0.95032 0.6478 0.0
C68 C 0.09915 0.92071 0.68366 0.0
C69 C 0.15314 0.93863 0.62757 0.0
N70 N 0.12564 0.90518 0.62664 0.0
C71 C 0.18287 0.96109 0.60729 0.0
H72 H 0.07812 0.93014 0.6819 0.0
H73 H 0.1217 0.93739 0.69473 0.0
H74 H 0.08464 0.89333 0.69308 0.0
H75 H 0.20876 0.95882 0.61041 0.0
H76 H 0.19025 0.98901 0.6063 0.0
H77 H 0.17289 0.9524 0.5897 0.0
C78 C 0.878 0.43496 0.75227 0.0
N79 N 0.89344 0.46125 0.76593 0.0
N80 N 0.88561 0.4086 0.76038 0.0
C81 C 0.85378 0.43422 0.73182 0.0
C82 C 0.90639 0.42007 0.7795 0.0
N83 N 0.91073 0.45172 0.78305 0.0
C84 C 0.92432 0.40125 0.79389 0.0
H85 H 0.83801 0.44837 0.73504 0.0
H86 H 0.83338 0.40688 0.7295 0.0
H87 H 0.87224 0.44752 0.7149 0.0
H88 H 0.94921 0.41937 0.80276 0.0
H89 H 0.93317 0.38747 0.78219 0.0
H90 H 0.90323 0.38149 0.80822 0.0
C91 C 0.593 0.46104 0.74518 0.0
N92 N 0.61004 0.48269 0.76189 0.0
N93 N 0.55642 0.43721 0.75276 0.0
C94 C 0.6119 0.46322 0.72129 0.0
C95 C 0.55185 0.44559 0.77464 0.0
N96 N 0.58416 0.47322 0.78019 0.0
C97 C 0.51595 0.42624 0.79096 0.0
H98 H 0.60775 0.48147 0.70765 0.0
H99 H 0.59942 0.43718 0.71517 0.0
H100 H 0.6427 0.47327 0.7221 0.0
H101 H 0.5181 0.40648 0.80433 0.0
H102 H 0.4909 0.41273 0.78059 0.0
H103 H 0.51165 0.44437 0.80098 0.0
C104 C 0.56957 0.13495 0.73945 0.0
N105 N 0.58764 0.12699 0.7574 0.0
N106 N 0.53233 0.12068 0.74617 0.0
C107 C 0.58771 0.15445 0.71482 0.0
C108 C 0.52835 0.10389 0.76881 0.0
N109 N 0.56188 0.10723 0.77549 0.0
C110 C 0.492 0.08549 0.78475 0.0
H111 H 0.56625 0.14962 0.70141 0.0
H112 H 0.60828 0.14657 0.70866 0.0
H113 H 0.60344 0.18295 0.71583 0.0
H114 H 0.47431 0.09826 0.78069 0.0
H115 H 0.49748 0.0852 0.80413 0.0
H116 H 0.47586 0.05796 0.7813 0.0
C117 C 0.78057 0.53985 0.99717 0.0
N118 N 0.81127 0.55308 0.98129 0.0
N119 N 0.75535 0.54961 0.98856 0.0
C120 C 0.77663 0.51996 0.0219 0.0
C121 C 0.77175 0.56927 0.96694 0.0
N122 N 0.80604 0.57181 0.96263 0.0
C123 C 0.75315 0.58401 0.94935 0.0
H124 H 0.75726 0.52283 0.03441 0.0
H125 H 0.8046 0.52918 0.02954 0.0
H126 H 0.76483 0.49175 0.02045 0.0
H127 H 0.76161 0.61121 0.95226 0.0
H128 H 0.72184 0.56822 0.95199 0.0
H129 H 0.76228 0.58475 0.93047 0.0
C130 C 0.47354 0.2481 0.98369 0.0
N131 N 0.464 0.22274 0.96931 0.0
N132 N 0.46723 0.27427 0.97312 0.0
C133 C 0.48752 0.24659 1.00845 0.0
C134 C 0.45408 0.26406 0.95169 0.0
N135 N 0.45233 0.23307 0.94923 0.0
C136 C 0.44117 0.28361 0.93346 0.0
H137 H 0.46283 0.23069 0.02176 0.0
H138 H 0.50358 0.27284 1.01394 0.0
H139 H 0.50587 0.23418 1.00916 0.0
H140 H 0.45443 0.31175 0.93549 0.0
H141 H 0.40994 0.27187 0.93604 0.0
H142 H 0.44829 0.28133 0.91486 0.0
C143 C 0.79111 0.25834 0.99657 0.0
N144 N 0.77401 0.23036 0.98432 0.0
N145 N 0.82555 0.28273 0.98548 0.0
C146 C 0.77589 0.26028 0.02054 0.0
C147 C 0.82833 0.26856 0.96589 0.0
N148 N 0.7975 0.23694 0.96523 0.0
C149 C 0.86101 0.28576 0.94691 0.0
H150 H 0.75956 0.27458 1.01747 0.0
H151 H 0.79932 0.27469 0.03185 0.0
H152 H 0.7568 0.23369 0.03036 0.0
H153 H 0.88141 0.27611 0.95136 0.0
H154 H 0.87572 0.3147 0.94589 0.0
H155 H 0.851 0.27881 0.92896 0.0
C156 C 0.53885 0.76937 0.08142 0.0
N157 N 0.55184 0.79532 0.09545 0.0
N158 N 0.54546 0.74297 0.09072 0.0
C159 C 0.5226 0.77112 0.05747 0.0
C160 C 0.56349 0.75398 0.11082 0.0
N161 N 0.56774 0.78591 0.11364 0.0
C162 C 0.5737 0.73201 0.1289 0.0
H163 H 0.49132 0.7586 0.06025 0.0
H164 H 0.52958 0.75686 0.04509 0.0
H165 H 0.53365 0.7987 0.04889 0.0
H166 H 0.60285 0.73738 0.12397 0.0
H167 H 0.55412 0.70368 0.12894 0.0
H168 H 0.57275 0.73837 0.14734 0.0
C169 C 0.2545 0.79609 0.08516 0.0
N170 N 0.26565 0.8231 0.09827 0.0
N171 N 0.22147 0.76787 0.09509 0.0
C172 C 0.27659 0.79703 0.06314 0.0
C173 C 0.21298 0.77881 0.11466 0.0
N174 N 0.23953 0.81208 0.1167 0.0
C175 C 0.17784 0.75726 0.13148 0.0
H176 H 0.28919 0.82327 0.05197 0.0
H177 H 0.2588 0.77673 0.05208 0.0
H178 H 0.30007 0.79213 0.06891 0.0
H179 H 0.18427 0.74269 0.14674 0.0
H180 H 0.15447 0.73806 0.12211 0.0
H181 H 0.16838 0.77425 0.13896 0.0
C182 C 0.21189 0.41969 0.07088 0.0
N183 N 0.22865 0.40487 0.08544 0.0
N184 N 0.17615 0.40882 0.07987 0.0
C185 C 0.22907 0.44243 0.04694 0.0
C186 C 0.1717 0.38688 0.10034 0.0
N187 N 0.20333 0.38405 0.10355 0.0
C188 C 0.13776 0.3707 0.11837 0.0
H189 H 0.20674 0.43971 0.03456 0.0
H190 H 0.24892 0.43552 0.03836 0.0
H191 H 0.24503 0.47024 0.0498 0.0
H192 H 0.11712 0.34454 0.114 0.0
H193 H 0.12374 0.38714 0.11778 0.0
H194 H 0.14593 0.36722 0.13698 0.0
C195 C 0.48271 0.95315 0.35317 0.0
N196 N 0.51097 0.96435 0.33573 0.0
N197 N 0.45662 0.96244 0.34568 0.0
C198 C 0.48006 0.93235 0.37723 0.0
C199 C 0.46976 0.97926 0.32291 0.0
N200 N 0.50284 0.98037 0.31678 0.0
C201 C 0.44858 0.99198 0.30602 0.0
H202 H 0.46195 0.93527 0.39072 0.0
H203 H 0.50866 0.94079 0.38376 0.0
H204 H 0.46733 0.90423 0.37521 0.0
H205 H 0.46698 1.00991 0.29002 0.0
H206 H 0.43712 1.00606 0.31536 0.0
H207 H 0.42432 0.96905 0.29999 0.0
C208 C 0.14653 0.5756 0.32465 0.0
N209 N 0.13545 0.55324 0.30804 0.0
N210 N 0.14183 0.6038 0.31726 0.0
C211 C 0.1646 0.57126 0.34734 0.0
C212 C 0.1277 0.59791 0.29538 0.0
N213 N 0.12405 0.56737 0.28961 0.0
C214 C 0.11683 0.62188 0.2799 0.0
H215 H 0.14212 0.55516 0.36203 0.0
H216 H 0.18353 0.59704 0.353 0.0
H217 H 0.18121 0.55771 0.34467 0.0
H218 H 0.14277 0.64408 0.27006 0.0
H219 H 0.10376 0.63275 0.29131 0.0
H220 H 0.09708 0.6086 0.26634 0.0
C221 C 0.45246 0.59074 0.32227 0.0
N222 N 0.44004 0.56508 0.30806 0.0
N223 N 0.4859 0.61872 0.31287 0.0
C224 C 0.43194 0.588 0.34559 0.0
C225 C 0.49321 0.60899 0.29224 0.0
N226 N 0.46554 0.57641 0.2893 0.0
C227 C 0.52515 0.63296 0.27358 0.0
H228 H 0.41129 0.59753 0.34173 0.0
H229 H 0.452 0.60407 0.35812 0.0
H230 H 0.41602 0.56032 0.3544 0.0
H231 H 0.55033 0.62981 0.27754 0.0
H232 H 0.5329 0.66076 0.27388 0.0
H233 H 0.51731 0.62654 0.2552 0.0
Tb234 Tb 0.51125 1.00005 1.01314 0.0
C235 C 0.58317 0.12306 0.06898 0.0
C236 C 0.65034 0.1438 0.06326 0.0
C237 C 0.62761 0.18491 0.06827 0.0
C238 C 0.61255 0.11653 0.06472 0.0
C239 C 0.59026 0.15706 0.07166 0.0
C240 C 0.65767 0.17827 0.06411 0.0
C241 C 0.52406 0.13237 0.08451 0.0
N242 N 0.54782 0.09521 0.07292 0.0
C243 C 0.5187 0.09906 0.08202 0.0
C244 C 0.55988 0.16162 0.07886 0.0
Tb245 Tb 0.54088 0.04187 0.06659 0.0
N246 N 0.6041 0.08278 0.06442 0.0
C247 C 0.63252 0.07418 0.06488 0.0
C248 C 0.6795 0.13534 0.06208 0.0
C249 C 0.67051 0.10027 0.0634 0.0
H250 H 0.49096 0.07655 0.08645 0.0
H251 H 0.69282 0.09331 0.06307 0.0
H252 H 0.68649 0.1997 0.06251 0.0
H253 H 0.50062 0.13542 0.09086 0.0
H254 H 0.62627 0.0473 0.06566 0.0
H255 H 0.36051 0.95596 1.01595 0.0
H256 H 0.70892 0.15549 0.06087 0.0
H257 H 0.5587 0.95967 0.99937 0.0
H258 H 0.42784 0.99953 1.01345 0.0
H259 H 0.54513 0.89906 0.99707 0.0
H260 H 0.63366 0.21136 0.06988 0.0
H261 H 0.34088 0.89293 0.01871 0.0
H262 H 0.35966 0.84608 1.01821 0.0
H263 H 0.56408 0.18733 0.08108 0.0
H264 H 0.41004 0.83051 1.01297 0.0
N265 N 0.44726 0.96195 1.0147 0.0
C266 C 0.42023 0.97233 1.01431 0.0
C267 C 0.37073 0.91204 1.01736 0.0
C268 C 0.39843 0.90169 1.01651 0.0
C269 C 0.38172 0.94759 1.01574 0.0
C270 C 0.43686 0.92764 1.01481 0.0
H271 H 0.47937 0.8502 1.00467 0.0
N272 N 0.50127 0.94515 1.00872 0.0
C273 C 0.5223 0.90427 1.00127 0.0
C274 C 0.46491 0.91892 1.01165 0.0
C275 C 0.52985 0.93859 1.00245 0.0
C276 C 0.48516 0.87674 1.00565 0.0
C277 C 0.45578 0.88396 1.01047 0.0
O278 O 0.53964 1.00909 0.9792 0.0
O279 O 0.55438 0.0438 0.02874 0.0
O280 O 0.52711 0.07626 0.0418 0.0
O281 O 0.49286 0.04007 1.01355 0.0
O282 O 0.57241 0.02093 1.00614 0.0
O283 O 0.49052 0.01604 0.98251 0.0
O284 O 0.51427 0.02892 0.10161 0.0
O285 O 0.49809 0.99957 0.05037 0.0
O286 O 0.51819 0.96403 0.04053 0.0
O287 O 0.56111 1.00313 0.06395 0.0
O288 O 0.47906 0.01724 0.07568 0.0
O289 O 0.56545 0.02652 0.09545 0.0
C290 C 0.58382 0.04617 0.01867 0.0
C291 C 0.50074 0.99748 0.94668 0.0
C292 C 0.50642 0.9965 0.90327 0.0
C293 C 0.52054 0.01272 0.92389 0.0
C294 C 0.47233 0.96436 0.90617 0.0
C295 C 0.46708 0.9654 0.94902 0.0
C296 C 0.45311 0.94891 0.92887 0.0
C297 C 0.50447 0.06875 0.02387 0.0
C298 C 0.51532 0.01564 0.9677 0.0
C299 C 0.41767 0.85762 1.01354 0.0
C300 C 0.38901 0.86648 1.01653 0.0
C301 C 0.46792 0.99416 0.06133 0.0
C302 C 0.55582 0.04196 0.13271 0.0
C303 C 0.54482 0.02286 0.15609 0.0
C304 C 0.55703 0.04004 0.17658 0.0
C305 C 0.58063 0.07673 0.17295 0.0
C306 C 0.58018 0.07818 0.12976 0.0
C307 C 0.59243 0.09544 0.14974 0.0
C308 C 0.54398 0.97193 0.05652 0.0
C309 C 0.5407 0.02407 0.11161 0.0
H310 H 0.54683 0.03726 0.92232 0.0
H311 H 0.45976 0.95141 0.89083 0.0
H312 H 0.45131 0.95329 0.9663 0.0
H313 H 0.42689 0.92431 0.93079 0.0
H314 H 0.52677 0.99473 0.15813 0.0
H315 H 0.58956 0.09136 0.18797 0.0
H316 H 0.58953 0.09324 0.11208 0.0
H317 H 0.61073 0.12356 0.14724 0.0
Tb318 Tb 0.0488 0.53903 1.00515 0.0
C319 C 0.91243 0.48688 0.07553 0.0
C320 C 0.8986 0.53497 0.07112 0.0
C321 C 0.84722 0.47497 0.08001 0.0
C322 C 0.92472 0.52231 0.07077 0.0
C323 C 0.87367 0.46275 0.08083 0.0
C324 C 0.85968 0.51105 0.07512 0.0
C325 C 0.8906 0.41688 0.0893 0.0
N326 N 0.9389 0.47621 0.07594 0.0
C327 C 0.92876 0.44187 0.0839 0.0
C328 C 0.86287 0.42727 0.08739 0.0
Tb329 Tb 1.00031 0.519 0.06501 0.0
N330 N 0.96252 0.54445 0.06703 0.0
C331 C 0.97632 0.57982 0.06555 0.0
C332 C 0.9125 0.57121 0.06816 0.0
C333 C 0.95156 0.5937 0.06585 0.0
H334 H 0.94999 0.43359 0.08526 0.0
H335 H 0.96265 0.62177 0.06405 0.0
H336 H 0.8391 0.52022 0.07511 0.0
H337 H 0.8826 0.38962 0.09489 0.0
H338 H 1.0064 0.59761 0.0634 0.0
H339 H 0.08753 0.43775 1.00003 0.0
H340 H 0.89339 0.58204 0.06827 0.0
H341 H 0.09546 0.62299 0.98121 0.0
H342 H 0.04379 0.46098 1.00454 0.0
H343 H 0.16126 0.66764 0.96788 0.0
H344 H 0.81723 0.45684 0.08372 0.0
H345 H 0.15638 0.47814 0.99249 0.0
H346 H 0.20965 0.54025 0.98351 0.0
H347 H 0.83335 0.40786 0.0916 0.0
H348 H 0.2299 0.6033 0.97465 0.0
N349 N 0.08715 0.51448 1.00043 0.0
C350 C 0.07361 0.4792 1.00119 0.0
C351 C 0.13724 0.4886 0.99446 0.0
C352 C 0.15066 0.52474 0.99182 0.0
C353 C 0.09841 0.46576 0.99862 0.0
C354 C 0.12447 0.5369 0.99464 0.0
H355 H 0.21188 0.6511 0.96831 0.0
N356 N 0.10879 0.58181 0.99068 0.0
C357 C 0.15458 0.64087 0.97417 0.0
C358 C 0.13576 0.572 0.9896 0.0
C359 C 0.11728 0.61546 0.98186 0.0
C360 C 0.18307 0.63146 0.97449 0.0
C361 C 0.17368 0.59646 0.98172 0.0
O362 O 0.03195 0.55823 0.9739 0.0
O363 O 1.00521 0.53889 0.02739 0.0
O364 O 0.96062 0.48277 0.04224 0.0
O365 O 1.00236 0.48348 1.01291 0.0
O366 O 0.03308 0.58052 1.00108 0.0
O367 O 0.03108 0.50889 0.97649 0.0
O368 O 0.01312 0.49803 0.09732 0.0
O369 O 0.04495 0.52004 0.04305 0.0
O370 O 0.08876 0.57855 0.02618 0.0
O371 O 0.04875 0.57342 0.05894 0.0
O372 O 0.01643 0.47786 0.0696 0.0
O373 O 1.0117 0.54632 0.09511 0.0
C374 C 1.00592 0.56672 1.01776 0.0
C375 C 0.03898 0.5404 0.93717 0.0
C376 C 0.02457 0.536 0.89466 0.0
C377 C 0.01348 0.52495 0.91967 0.0
C378 C 0.06208 0.56286 0.8879 0.0
C379 C 0.07632 0.56599 0.92973 0.0
C380 C 0.0877 0.57715 0.90525 0.0
C381 C 0.96836 0.46891 0.02478 0.0
C382 C 0.02521 0.53182 0.9629 0.0
C383 C 0.20051 0.5849 0.98039 0.0
C384 C 0.18899 0.54902 0.98544 0.0
C385 C 0.04347 0.49196 0.05283 0.0
C386 C 0.99611 0.5107 0.13363 0.0
C387 C 0.01631 0.5198 0.15454 0.0
C388 C 0.99735 0.50566 0.17797 0.0
C389 C 0.95823 0.4815 0.17966 0.0
C390 C 0.95693 0.48823 0.13633 0.0
C391 C 0.93828 0.47345 0.15912 0.0
C392 C 0.0813 0.59023 0.0452 0.0
C393 C 0.01601 0.52269 0.10915 0.0
H394 H 0.98505 0.5045 0.92579 0.0
H395 H 0.07191 0.57356 0.8692 0.0
H396 H 0.09646 0.57795 0.94279 0.0
H397 H 0.1164 0.59753 0.89966 0.0
H398 H 0.04644 0.5379 0.15245 0.0
H399 H 0.94262 0.46846 0.19695 0.0
H400 H 0.94067 0.48149 0.12085 0.0
H401 H 0.90815 0.45535 0.16088 0.0
Tb402 Tb 0.51791 0.49143 0.07031 0.0
C403 C 0.43418 0.54335 0.9997 0.0
C404 C 0.37093 0.49413 1.00241 0.0
C405 C 0.38046 0.5535 0.99384 0.0
C406 C 0.41031 0.5078 1.00377 0.0
C407 C 0.41979 0.56674 0.9941 0.0
C408 C 0.35603 0.5172 0.99802 0.0
C409 C 0.48429 0.61398 0.98734 0.0
N410 N 0.47183 0.5549 1.00003 0.0
C411 C 0.49709 0.58963 0.99284 0.0
C412 C 0.44543 0.60255 0.98831 0.0
Tb413 Tb 0.49038 0.51354 1.01098 0.0
N414 N 0.42594 0.48657 1.00802 0.0
C415 C 0.40378 0.45111 1.00899 0.0
C416 C 0.34791 0.45777 1.00494 0.0
C417 C 0.36452 0.43621 1.00781 0.0
H418 H 0.5272 0.59869 0.99231 0.0
H419 H 0.34709 0.40806 1.00931 0.0
H420 H 0.32581 0.50723 0.99722 0.0
H421 H 0.50438 0.64153 0.9824 0.0
H422 H 0.41579 0.43382 1.01142 0.0
H423 H 0.66494 0.58606 0.07598 0.0
H424 H 0.3175 0.44617 1.00414 0.0
H425 H 0.47175 0.40461 0.08687 0.0
H426 H 0.59745 0.56652 0.07186 0.0
H427 H 0.48749 0.35738 0.09762 0.0
H428 H 0.36875 0.57102 0.98985 0.0
H429 H 0.68752 0.54258 0.08266 0.0
H430 H 0.67173 0.47924 0.08991 0.0
H431 H 0.43555 0.62142 0.98394 0.0
H432 H 0.6233 0.41687 0.09604 0.0
N433 N 0.58126 0.51231 0.07545 0.0
C434 C 0.60652 0.54711 0.07483 0.0
C435 C 0.65768 0.5338 0.0809 0.0
C436 C 0.63145 0.49811 0.08302 0.0
C437 C 0.64503 0.55838 0.07718 0.0
C438 C 0.59298 0.48816 0.08044 0.0
H439 H 0.55441 0.37117 0.0993 0.0
N440 N 0.52932 0.44538 0.08198 0.0
C441 C 0.5099 0.38429 0.0937 0.0
C442 C 0.566 0.45337 0.08391 0.0
C443 C 0.5011 0.41132 0.08766 0.0
C444 C 0.54769 0.39216 0.09459 0.0
C445 C 0.57632 0.42711 0.08997 0.0
O446 O 0.48289 0.47141 0.1027 0.0
O447 O 0.47457 0.49352 0.04877 0.0
O448 O 0.492 0.55095 0.03452 0.0
O449 O 0.53254 0.54717 0.06307 0.0
O450 O 0.45812 0.45128 0.07478 0.0
O451 O 0.53263 0.52175 0.09886 0.0
O452 O 0.48075 0.48306 0.98284 0.0
O453 O 0.53383 0.51316 0.03272 0.0
O454 O 0.52258 0.45798 0.04613 0.0
O455 O 0.4813 0.45898 1.01726 0.0
O456 O 0.5503 0.55369 1.00519 0.0
O457 O 0.51864 0.53832 0.9766 0.0
C458 C 0.44602 0.46585 0.05843 0.0
C459 C 0.5122 0.48988 0.13846 0.0
C460 C 0.51252 0.49638 0.18147 0.0
C461 C 0.50511 0.50482 0.15755 0.0
C462 C 0.52611 0.47223 0.18586 0.0
C463 C 0.52621 0.4663 0.14354 0.0
C464 C 0.53287 0.45743 0.16709 0.0
C465 C 0.51567 0.56369 0.05156 0.0
C466 C 0.50415 0.49813 0.11341 0.0
C467 C 0.61472 0.43666 0.09163 0.0
C468 C 0.64228 0.47215 0.08813 0.0
C469 C 0.56232 0.54028 0.02238 0.0
C470 C 0.53388 0.50362 0.9546 0.0
C471 C 0.53561 0.50446 0.9292 0.0
C472 C 0.5648 0.50146 0.91699 0.0
C473 C 0.59222 0.49836 0.93112 0.0
C474 C 0.56058 0.49861 0.96783 0.0
C475 C 0.5897 0.49639 0.95618 0.0
C476 C 0.50126 0.44514 0.02816 0.0
C477 C 0.50536 0.50926 0.96744 0.0
H478 H 0.49466 0.52335 0.15374 0.0
H479 H 0.53166 0.46479 0.20395 0.0
H480 H 0.53174 0.45449 0.12933 0.0
H481 H 0.54346 0.43901 0.17082 0.0
H482 H 0.51407 0.50719 0.91923 0.0
H483 H 0.61621 0.49778 0.92299 0.0
H484 H 0.55911 0.49688 0.98722 0.0
H485 H 0.61074 0.49345 0.96663 0.0
Tb486 Tb 0.18215 0.33193 0.33936 0.0
C487 C 0.27285 0.43722 0.39139 0.0
C488 C 0.32703 0.43034 0.40218 0.0
C489 C 0.33578 0.48835 0.38803 0.0
C490 C 0.28784 0.41575 0.39905 0.0
C491 C 0.29658 0.47395 0.38635 0.0
C492 C 0.35099 0.46657 0.39603 0.0
C493 C 0.24087 0.48004 0.38146 0.0
N494 N 0.23484 0.42229 0.38987 0.0
C495 C 0.21867 0.44367 0.38709 0.0
C496 C 0.28013 0.49523 0.38045 0.0
Tb497 Tb 0.20083 0.36133 0.39658 0.0
N498 N 0.26382 0.38081 0.40452 0.0
C499 C 0.2771 0.35994 0.41637 0.0
C500 C 0.34092 0.40823 0.41187 0.0
C501 C 0.31566 0.37301 0.41952 0.0
H502 H 0.18863 0.43352 0.3899 0.0
H503 H 0.32573 0.35595 0.42832 0.0
H504 H 0.38117 0.47807 0.3979 0.0
H505 H 0.22758 0.49637 0.37851 0.0
H506 H 0.2584 0.33318 0.42426 0.0
H507 H 0.06841 0.34543 0.29602 0.0
H508 H 0.37076 0.41836 0.4145 0.0
H509 H 0.18553 0.25527 0.35043 0.0
H510 H 0.13435 0.36332 0.30378 0.0
H511 H 0.14137 0.19384 0.36426 0.0
H512 H 0.35441 0.51637 0.38384 0.0
H513 H 0.01758 0.28606 0.31256 0.0
H514 H 0.99946 0.22611 0.33439 0.0
H515 H 0.29732 0.52346 0.37634 0.0
H516 H 0.01944 0.18461 0.35351 0.0
N517 N 0.12168 0.31593 0.32718 0.0
C518 C 0.11271 0.33773 0.31216 0.0
C519 C 0.04662 0.29403 0.31652 0.0
C520 C 0.05624 0.27054 0.32957 0.0
C521 C 0.07518 0.32753 0.30723 0.0
C522 C 0.09455 0.28233 0.33425 0.0
H523 H 0.07239 0.17223 0.36469 0.0
N524 N 0.1432 0.27142 0.34723 0.0
C525 C 0.13075 0.21204 0.35943 0.0
C526 C 0.10573 0.25915 0.34467 0.0
C527 C 0.15599 0.24768 0.35241 0.0
C528 C 0.09193 0.19991 0.35948 0.0
C529 C 0.07898 0.2233 0.35111 0.0
O530 O 0.21761 0.31952 0.31985 0.0
O531 O 0.22617 0.36622 0.36096 0.0
O532 O 0.16337 0.37931 0.37815 0.0
O533 O 0.16955 0.37533 0.33759 0.0
O534 O 0.22146 0.38681 0.32676 0.0
O535 O 0.18492 0.34049 0.30135 0.0
O536 O 0.16883 0.37374 0.4193 0.0
O537 O 0.15682 0.32783 0.37483 0.0
O538 O 0.21712 0.3118 0.35854 0.0
O539 O 0.21098 0.31668 0.39892 0.0
O540 O 0.1599 0.30659 0.40891 0.0
O541 O 0.20367 0.35284 0.43426 0.0
C542 C 0.24129 0.39359 0.34519 0.0
C543 C 0.20372 0.3077 0.27974 0.0
C544 C 0.21103 0.30626 0.23654 0.0
C545 C 0.21224 0.32449 0.25575 0.0
C546 C 0.20056 0.27049 0.24189 0.0
C547 C 0.19312 0.27201 0.28466 0.0
C548 C 0.19151 0.25355 0.26575 0.0
C549 C 0.16012 0.38787 0.35501 0.0
C550 C 0.20881 0.32906 0.29902 0.0
C551 C 0.04045 0.21185 0.34821 0.0
C552 C 0.02908 0.23546 0.33735 0.0
C553 C 0.14012 0.30048 0.39046 0.0
C554 C 0.14286 0.33028 0.45395 0.0
C555 C 0.14799 0.31097 0.47436 0.0
C556 C 0.11675 0.28091 0.48695 0.0
C557 C 0.0803 0.27086 0.4792 0.0
C558 C 0.10594 0.31968 0.44683 0.0
C559 C 0.07502 0.29021 0.45938 0.0
C560 C 0.21956 0.30325 0.38176 0.0
C561 C 0.17602 0.359 0.43873 0.0
H562 H 0.21975 0.35193 0.25214 0.0
H563 H 0.19975 0.25563 0.2277 0.0
H564 H 0.18661 0.25856 0.30301 0.0
H565 H 0.18358 0.22607 0.26963 0.0
H566 H 0.17627 0.3186 0.47989 0.0
H567 H 0.05569 0.24815 0.48866 0.0
H568 H 0.10088 0.33359 0.43115 0.0
H569 H 0.04683 0.28209 0.45356 0.0
Tb570 Tb 0.71132 0.87964 0.32828 0.0
C571 C 0.57596 0.81456 0.40368 0.0
C572 C 0.55663 0.85857 0.40468 0.0
C573 C 0.50973 0.79682 0.41292 0.0
C574 C 0.58487 0.8492 0.40069 0.0
C575 C 0.53849 0.78786 0.41041 0.0
C576 C 0.51881 0.83219 0.41008 0.0
C577 C 0.56154 0.74604 0.41427 0.0
N578 N 0.60468 0.8072 0.40155 0.0
C579 C 0.59831 0.77357 0.40785 0.0
C580 C 0.53138 0.75315 0.41523 0.0
Tb581 Tb 0.66363 0.85357 0.38914 0.0
N582 N 0.62179 0.87373 0.39575 0.0
C583 C 0.63278 0.90818 0.39681 0.0
C584 C 0.56751 0.89403 0.40408 0.0
C585 C 0.60586 0.91886 0.40063 0.0
H586 H 0.62147 0.76786 0.40692 0.0
H587 H 0.61473 0.94631 0.40073 0.0
H588 H 0.49662 0.83884 0.41286 0.0
H589 H 0.55651 0.71938 0.41848 0.0
H590 H 0.66215 0.92791 0.39409 0.0
H591 H 0.77166 0.79419 0.32197 0.0
H592 H 0.54673 0.90238 0.40698 0.0
H593 H 0.74779 0.96537 0.30962 0.0
H594 H 0.72045 0.80839 0.32716 0.0
H595 H 0.81047 0.01612 0.29695 0.0
H596 H 0.48066 0.7767 0.41782 0.0
H597 H 0.83794 0.84172 0.31355 0.0
H598 H 0.88364 0.90642 0.30474 0.0
H599 H 0.50297 0.73183 0.42039 0.0
H600 H 0.89421 0.96699 0.29776 0.0
N601 N 0.7569 0.86361 0.32241 0.0
C602 C 0.749 0.82952 0.3234 0.0
C603 C 0.81545 0.84815 0.31579 0.0
C604 C 0.82315 0.88302 0.31331 0.0
C605 C 0.77809 0.82128 0.32047 0.0
C606 C 0.79282 0.88988 0.31654 0.0
H607 H 0.86697 1.00814 0.29449 0.0
N608 N 0.76829 0.92857 0.31502 0.0
C609 C 0.80761 0.99025 0.30144 0.0
C610 C 0.79875 0.92366 0.31263 0.0
C611 C 0.772 0.96127 0.3086 0.0
C612 C 0.83945 0.98566 0.30011 0.0
C613 C 0.83519 0.95197 0.30538 0.0
O614 O 0.69285 0.89652 0.29675 0.0
O615 O 0.66512 0.87322 0.35172 0.0
O616 O 0.62662 0.81544 0.36593 0.0
O617 O 0.6715 0.8226 0.33611 0.0
O618 O 0.68792 0.91549 0.32495 0.0
O619 O 0.69686 0.84933 0.29977 0.0
O620 O 0.67294 0.83028 0.422 0.0
O621 O 0.70921 0.85982 0.36562 0.0
O622 O 0.74902 0.91725 0.35092 0.0
O623 O 0.70639 0.91046 0.38235 0.0
O624 O 0.6882 0.8183 0.39243 0.0
O625 O 0.68589 0.88408 0.41704 0.0
C626 C 0.66247 0.89953 0.34255 0.0
C627 C 0.70615 0.88094 0.26053 0.0
C628 C 0.70001 0.87485 0.21758 0.0
C629 C 0.68399 0.8651 0.24166 0.0
C630 C 0.73808 0.90115 0.21277 0.0
C631 C 0.7441 0.90674 0.25509 0.0
C632 C 0.75983 0.91687 0.23136 0.0
C633 C 0.6378 0.80399 0.34835 0.0
C634 C 0.68955 0.87099 0.28573 0.0
C635 C 0.8659 0.94558 0.3031 0.0
C636 C 0.85989 0.91111 0.30708 0.0
C637 C 0.71385 0.8348 0.37494 0.0
C638 C 0.6675 0.85353 0.45691 0.0
C639 C 0.68716 0.85229 0.47765 0.0
C640 C 0.67082 0.84845 0.50111 0.0
C641 C 0.63508 0.84675 0.50304 0.0
C642 C 0.63171 0.85093 0.45982 0.0
C643 C 0.61576 0.84773 0.48267 0.0
C644 C 0.73994 0.92818 0.36968 0.0
C645 C 0.68438 0.85831 0.43221 0.0
H646 H 0.65476 0.84485 0.24576 0.0
H647 H 0.75114 0.90956 0.1945 0.0
H648 H 0.7616 0.91924 0.26914 0.0
H649 H 0.7891 0.93696 0.22736 0.0
H650 H 0.71471 0.85399 0.47551 0.0
H651 H 0.62197 0.8451 0.5204 0.0
H652 H 0.61618 0.85181 0.44437 0.0
H653 H 0.58831 0.84625 0.48462 0.0
Tb654 Tb 0.18903 0.81876 0.41311 0.0
C655 C 0.11408 0.87979 0.34211 0.0
C656 C 0.05011 0.83216 0.3434 0.0
C657 C 0.06199 0.89239 0.33679 0.0
C658 C 0.08919 0.84449 0.34517 0.0
C659 C 0.10108 0.90433 0.33727 0.0
C660 C 0.03649 0.8563 0.33987 0.0
C661 C 0.16641 0.95009 0.33172 0.0
N662 N 0.15144 0.89 0.34268 0.0
C663 C 0.17782 0.92461 0.33651 0.0
C664 C 0.12784 0.93995 0.33244 0.0
Tb665 Tb 0.16746 0.84686 0.35333 0.0
N666 N 0.10367 0.82226 0.34855 0.0
C667 C 0.08077 0.78724 0.34806 0.0
C668 C 0.0262 0.7961 0.34451 0.0
C669 C 0.04173 0.77362 0.34634 0.0
H670 H 0.20768 0.93267 0.33629 0.0
H671 H 0.02362 0.74574 0.34667 0.0
H672 H 1.00649 0.84737 0.33883 0.0
H673 H 0.18737 0.97751 0.32757 0.0
H674 H 0.09208 0.76935 0.3498 0.0
H675 H 0.33257 0.91184 0.42889 0.0
H676 H 0.99597 0.78549 0.34328 0.0
H677 H 0.14257 0.73176 0.42749 0.0
H678 H 0.26621 0.89264 0.42108 0.0
H679 H 0.15772 0.68416 0.43827 0.0
H680 H 0.05129 0.9108 0.33341 0.0
H681 H 0.35567 0.86871 0.43484 0.0
H682 H 0.34059 0.80558 0.43955 0.0
H683 H 0.11906 0.95971 0.32868 0.0
H684 H 0.2927 0.74329 0.44235 0.0
N685 N 0.25135 0.83911 0.42137 0.0
C686 C 0.27553 0.87338 0.42348 0.0
C687 C 0.32636 0.8601 0.43129 0.0
C688 C 0.30089 0.82468 0.43092 0.0
C689 C 0.3134 0.88447 0.42801 0.0
C690 C 0.26309 0.81497 0.42612 0.0
H691 H 0.22422 0.69769 0.44232 0.0
N692 N 0.20012 0.77247 0.42452 0.0
C693 C 0.18021 0.71111 0.43526 0.0
C694 C 0.23642 0.78026 0.42781 0.0
C695 C 0.17176 0.73834 0.42914 0.0
C696 C 0.21777 0.71882 0.43746 0.0
C697 C 0.2464 0.75381 0.43415 0.0
O698 O 0.15053 0.79555 0.44392 0.0
O699 O 0.14822 0.82307 0.39025 0.0
O700 O 0.16658 0.88177 0.37787 0.0
O701 O 0.20393 0.87494 0.4077 0.0
O702 O 0.12962 0.77857 0.41431 0.0
O703 O 0.19861 0.84656 0.44276 0.0
O704 O 0.20141 0.87254 0.3207 0.0
O705 O 0.2083 0.84369 0.37641 0.0
O706 O 0.19454 0.78634 0.38807 0.0
O707 O 0.15795 0.79251 0.35736 0.0
O708 O 0.2275 0.88652 0.35018 0.0
O709 O 0.15878 0.81841 0.32432 0.0
C710 C 0.119 0.79477 0.39815 0.0
C711 C 0.175 0.81202 0.48123 0.0
C712 C 0.17275 0.81794 0.52414 0.0
C713 C 0.16725 0.82706 0.49993 0.0
C714 C 0.18516 0.79303 0.52925 0.0
C715 C 0.18774 0.78757 0.48695 0.0
C716 C 0.19252 0.77802 0.51083 0.0
C717 C 0.18821 0.89258 0.39607 0.0
C718 C 0.16929 0.82146 0.45589 0.0
C719 C 0.28435 0.7632 0.4377 0.0
C720 C 0.31161 0.79864 0.43608 0.0
C721 C 0.23752 0.87119 0.36737 0.0
C722 C 0.17496 0.85035 0.28489 0.0
C723 C 0.19438 0.84649 0.26542 0.0
C724 C 0.18414 0.84979 0.24143 0.0
C725 C 0.15407 0.85724 0.23764 0.0
C726 C 0.14558 0.85813 0.28037 0.0
C727 C 0.13531 0.8616 0.25687 0.0
C728 C 0.17578 0.77672 0.36854 0.0
C729 C 0.18478 0.84499 0.30988 0.0
H730 H 0.15787 0.84631 0.4956 0.0
H731 H 0.18939 0.78524 0.54762 0.0
H732 H 0.19382 0.77571 0.47299 0.0
H733 H 0.2022 0.75901 0.51508 0.0
H734 H 0.21739 0.84091 0.2691 0.0
H735 H 0.14418 0.85891 0.21986 0.0
H736 H 0.13031 0.86111 0.29504 0.0
H737 H 0.11226 0.86721 0.25355 0.0
Tb738 Tb 0.8435 0.66292 0.6771 0.0
C739 C 0.92924 0.78412 0.73316 0.0
C740 C 0.99481 0.7989 0.72676 0.0
C741 C 0.97882 0.84438 0.73232 0.0
C742 C 0.95591 0.7742 0.72858 0.0
C743 C 0.94026 0.81918 0.73551 0.0
C744 C 1.00609 0.83422 0.72804 0.0
C745 C 0.87465 0.80109 0.74599 0.0
N746 N 0.89243 0.75888 0.73638 0.0
C747 C 0.86521 0.7666 0.74366 0.0
C748 C 0.91229 0.8276 0.74161 0.0
Tb749 Tb 0.87925 0.70362 0.73028 0.0
N750 N 0.94373 0.73979 0.72762 0.0
C751 C 0.96942 0.72793 0.72681 0.0
C752 C 0.02112 0.78714 0.7245 0.0
C753 C 1.00835 0.7514 0.72497 0.0
H754 H 0.83597 0.74637 0.74684 0.0
H755 H 0.02847 0.74191 0.72372 0.0
H756 H 0.0358 0.85365 0.72641 0.0
H757 H 0.85288 0.8072 0.75114 0.0
H758 H 0.96033 0.70053 0.7269 0.0
H759 H 0.69465 0.62614 0.68375 0.0
H760 H 0.05127 0.80526 0.72298 0.0
H761 H 0.88372 0.61998 0.6567 0.0
H762 H 0.76304 0.66721 0.67945 0.0
H763 H 0.86603 0.55857 0.65325 0.0
H764 H 0.98791 0.87155 0.73382 0.0
H765 H 0.6712 0.56233 0.68703 0.0
H766 H 0.68587 0.51309 0.68543 0.0
H767 H 0.91955 0.85426 0.74354 0.0
H768 H 0.73293 0.49435 0.67762 0.0
N769 N 0.77894 0.62727 0.68061 0.0
C770 C 0.75354 0.63955 0.68068 0.0
C771 C 0.7014 0.58029 0.68505 0.0
C772 C 0.72739 0.56801 0.68349 0.0
C773 C 0.71454 0.61628 0.68312 0.0
C774 C 0.76638 0.5925 0.68101 0.0
H775 H 0.80035 0.5113 0.66503 0.0
N776 N 0.82939 0.6071 0.67199 0.0
C777 C 0.84519 0.56472 0.66014 0.0
C778 C 0.79265 0.58193 0.67672 0.0
C779 C 0.85514 0.59942 0.66215 0.0
C780 C 0.80812 0.53809 0.6669 0.0
C781 C 0.781 0.54669 0.67459 0.0
O782 O 0.87274 0.6772 0.64287 0.0
O783 O 0.88949 0.70425 0.69251 0.0
O784 O 0.8738 0.742 0.70378 0.0
O785 O 0.82991 0.70623 0.67899 0.0
O786 O 0.90425 0.68176 0.66808 0.0
O787 O 0.81813 0.67371 0.64663 0.0
O788 O 0.85712 0.6965 0.76599 0.0
O789 O 0.83258 0.66248 0.71504 0.0
O790 O 0.85269 0.62546 0.70178 0.0
O791 O 0.89408 0.66146 0.72765 0.0
O792 O 0.81913 0.68589 0.7395 0.0
O793 O 0.8995 0.68197 0.75827 0.0
C794 C 0.91791 0.70618 0.68143 0.0
C795 C 0.83459 0.65867 0.61081 0.0
C796 C 0.84442 0.65657 0.56793 0.0
C797 C 0.85072 0.67586 0.5874 0.0
C798 C 0.82302 0.61967 0.57287 0.0
C799 C 0.81078 0.62234 0.6145 0.0
C800 C 0.80571 0.60291 0.59579 0.0
C801 C 0.849 0.73679 0.68717 0.0
C802 C 0.8453 0.67827 0.63151 0.0
C803 C 0.74246 0.52168 0.67882 0.0
C804 C 0.71566 0.53236 0.68325 0.0
C805 C 0.80473 0.66159 0.7262 0.0
C806 C 0.89936 0.70018 0.79608 0.0
C807 C 0.88615 0.68142 0.8195 0.0
C808 C 0.90497 0.69596 0.83967 0.0
C809 C 0.93743 0.72917 0.83604 0.0
C810 C 0.93184 0.73323 0.79297 0.0
C811 C 0.95079 0.74756 0.81283 0.0
C812 C 0.87744 0.6317 0.71836 0.0
C813 C 0.87928 0.68489 0.77511 0.0
H814 H 0.86761 0.70414 0.58454 0.0
H815 H 0.81905 0.60345 0.55901 0.0
H816 H 0.79648 0.60884 0.63186 0.0
H817 H 0.78834 0.57467 0.5991 0.0
H818 H 0.86088 0.65597 0.82205 0.0
H819 H 0.9525 0.7409 0.85121 0.0
H820 H 0.94267 0.74797 0.77526 0.0
H821 H 0.97585 0.77309 0.81021 0.0
Tb822 Tb 0.37666 0.21812 0.66172 0.0
C823 C 0.23733 0.13977 0.73318 0.0
C824 C 0.21307 0.18057 0.73225 0.0
C825 C 0.1696 0.11785 0.73946 0.0
C826 C 0.24357 0.17372 0.72997 0.0
C827 C 0.20041 0.11136 0.73848 0.0
C828 C 0.17592 0.15244 0.73635 0.0
C829 C 0.22761 0.07273 0.74334 0.0
N830 N 0.26787 0.13473 0.73206 0.0
C831 C 0.26371 0.10183 0.7381 0.0
C832 C 0.19575 0.07745 0.74318 0.0
Tb833 Tb 0.32535 0.18387 0.72113 0.0
N834 N 0.27985 0.20003 0.7261 0.0
C835 C 0.28788 0.23389 0.72659 0.0
C836 C 0.22099 0.21538 0.73122 0.0
C837 C 0.25862 0.24209 0.72893 0.0
H838 H 0.28809 0.09785 0.73815 0.0
H839 H 0.26513 0.26904 0.72869 0.0
H840 H 0.15204 0.15714 0.73782 0.0
H841 H 0.22437 0.04668 0.74745 0.0
H842 H 0.31678 0.25488 0.72452 0.0
H843 H 0.43784 0.13473 0.64973 0.0
H844 H 0.1984 0.22181 0.7329 0.0
H845 H 0.41245 0.30395 0.64585 0.0
H846 H 0.3863 0.14804 0.65637 0.0
H847 H 0.47509 0.35563 0.63439 0.0
H848 H 0.14092 0.09638 0.74324 0.0
H849 H 0.5042 0.18261 0.64331 0.0
H850 H 0.54975 0.24744 0.63735 0.0
H851 H 0.16784 0.05487 0.74729 0.0
H852 H 0.55993 0.30786 0.633 0.0
N853 N 0.42265 0.203 0.65468 0.0
C854 C 0.41489 0.16933 0.65355 0.0
C855 C 0.48157 0.18864 0.64627 0.0
C856 C 0.48913 0.22327 0.64568 0.0
C857 C 0.44417 0.16159 0.6498 0.0
C858 C 0.45861 0.22959 0.64978 0.0
H859 H 0.5321 0.3485 0.63143 0.0
N860 N 0.43365 0.26769 0.65017 0.0
C861 C 0.47252 0.32979 0.63813 0.0
C862 C 0.46434 0.26327 0.64738 0.0
C863 C 0.43699 0.30035 0.64463 0.0
C864 C 0.50464 0.32569 0.63655 0.0
C865 C 0.50073 0.29203 0.64077 0.0
O866 O 0.36149 0.23923 0.63053 0.0
O867 O 0.32877 0.20786 0.68469 0.0
O868 O 0.29032 0.1474 0.69683 0.0
O869 O 0.33604 0.16051 0.66562 0.0
O870 O 0.35181 0.25284 0.66115 0.0
O871 O 0.36242 0.19062 0.63183 0.0
O872 O 0.34594 0.16547 0.75075 0.0
O873 O 0.37353 0.19445 0.69813 0.0
O874 O 0.41219 0.2543 0.68634 0.0
O875 O 0.36739 0.24049 0.71844 0.0
O876 O 0.349 0.14835 0.72142 0.0
O877 O 0.33119 0.20577 0.75347 0.0
C878 C 0.32433 0.23376 0.67718 0.0
C879 C 0.37523 0.22534 0.59359 0.0
C880 C 0.37111 0.21856 0.55073 0.0
C881 C 0.35476 0.20799 0.57473 0.0
C882 C 0.4081 0.24705 0.54605 0.0
C883 C 0.4122 0.25326 0.58838 0.0
C884 C 0.42841 0.26408 0.56474 0.0
C885 C 0.30231 0.13948 0.67766 0.0
C886 C 0.35751 0.21438 0.61849 0.0
C887 C 0.53166 0.28612 0.63784 0.0
C888 C 0.52586 0.25174 0.64032 0.0
C889 C 0.37646 0.16763 0.70532 0.0
C890 C 0.33015 0.17053 0.78997 0.0
C891 C 0.35484 0.18282 0.80844 0.0
C892 C 0.34453 0.16528 0.83255 0.0
C893 C 0.30847 0.13529 0.83743 0.0
C894 C 0.29421 0.14137 0.79568 0.0
C895 C 0.28351 0.12391 0.81928 0.0
C896 C 0.40132 0.26088 0.70665 0.0
C897 C 0.34405 0.18619 0.76461 0.0
H898 H 0.32641 0.18605 0.57883 0.0
H899 H 0.42136 0.25647 0.52785 0.0
H900 H 0.42849 0.26692 0.60248 0.0
H901 H 0.45684 0.28587 0.56086 0.0
H902 H 0.38215 0.20592 0.80374 0.0
H903 H 0.29938 0.11992 0.85518 0.0
H904 H 0.27479 0.13159 0.78183 0.0
H905 H 0.25595 0.10094 0.82347 0.0
Tb906 Tb 0.84702 0.14995 0.74422 0.0
C907 C 0.76736 0.20289 0.673 0.0
C908 C 0.70517 0.15222 0.67561 0.0
C909 C 0.71201 0.2107 0.668 0.0
C910 C 0.7447 0.16714 0.67682 0.0
C911 C 0.75156 0.2252 0.66771 0.0
C912 C 0.68881 0.1742 0.67197 0.0
C913 C 0.81513 0.27376 0.65946 0.0
N914 N 0.80528 0.21566 0.6728 0.0
C915 C 0.82934 0.25041 0.66474 0.0
C916 C 0.77605 0.26119 0.66141 0.0
Tb917 Tb 0.82605 0.17593 0.68387 0.0
N918 N 0.76176 0.14701 0.68021 0.0
C919 C 0.74102 0.11161 0.6801 0.0
C920 C 0.68355 0.11581 0.67722 0.0
C921 C 0.70169 0.0955 0.67891 0.0
H922 H 0.85962 0.26032 0.66353 0.0
H923 H 0.68535 0.06737 0.67956 0.0
H924 H 0.65844 0.16325 0.67135 0.0
H925 H 0.83434 0.3014 0.65399 0.0
H926 H 0.75424 0.09528 0.68175 0.0
H927 H 0.99247 0.24978 0.74828 0.0
H928 H 0.65309 0.10327 0.67641 0.0
H929 H 0.80412 0.06528 0.76652 0.0
H930 H 0.92443 0.22748 0.74433 0.0
H931 H 0.8222 0.01993 0.7796 0.0
H932 H 0.69921 0.22738 0.66435 0.0
H933 H 0.01782 0.2085 0.7562 0.0
H934 H 1.00485 0.14602 0.76549 0.0
H935 H 0.76508 0.27926 0.65723 0.0
H936 H 0.95829 0.08315 0.77414 0.0
N937 N 0.91075 0.17368 0.74919 0.0
C938 C 0.93471 0.20893 0.74791 0.0
C939 C 0.98776 0.19847 0.7545 0.0
C940 C 0.96277 0.16241 0.75757 0.0
C941 C 0.97354 0.22182 0.7501 0.0
C942 C 0.92396 0.15082 0.75506 0.0
H943 H 0.88991 0.03584 0.77988 0.0
N944 N 0.861 0.10638 0.75837 0.0
C945 C 0.84388 0.04677 0.77389 0.0
C946 C 0.89807 0.11578 0.75981 0.0
C947 C 0.83375 0.07258 0.76642 0.0
C948 C 0.88211 0.05583 0.77398 0.0
C949 C 0.9098 0.09085 0.76733 0.0
O950 O 0.80743 0.13001 0.77444 0.0
O951 O 0.8062 0.15346 0.72101 0.0
O952 O 0.82604 0.2133 0.70662 0.0
O953 O 0.85817 0.20485 0.73934 0.0
O954 O 0.78847 0.10878 0.74529 0.0
O955 O 0.86002 0.1771 0.77441 0.0
O956 O 0.81741 0.14942 0.65361 0.0
O957 O 0.86665 0.17233 0.70706 0.0
O958 O 0.8458 0.11108 0.72268 0.0
O959 O 0.8203 0.12269 0.68714 0.0
O960 O 0.88575 0.21597 0.68202 0.0
O961 O 0.85813 0.20381 0.65103 0.0
C962 C 0.77748 0.12466 0.72905 0.0
C963 C 0.82958 0.14412 0.81258 0.0
C964 C 0.81697 0.14721 0.85504 0.0
C965 C 0.81952 0.15935 0.83006 0.0
C966 C 0.82467 0.11934 0.86185 0.0
C967 C 0.83828 0.11735 0.8201 0.0
C968 C 0.83568 0.105 0.84458 0.0
C969 C 0.84378 0.22265 0.7265 0.0
C970 C 0.82828 0.15483 0.78668 0.0
C971 C 0.9486 0.10191 0.76868 0.0
C972 C 0.97509 0.13769 0.76376 0.0
C973 C 0.89613 0.20005 0.69866 0.0
C974 C 0.87205 0.17065 0.62675 0.0
C975 C 0.87318 0.17164 0.6014 0.0
C976 C 0.90166 0.16811 0.58889 0.0
C977 C 0.92904 0.16425 0.60258 0.0
C978 C 0.89866 0.16502 0.63962 0.0
C979 C 0.9271 0.16216 0.62764 0.0
C980 C 0.83119 0.10324 0.70167 0.0
C981 C 0.84407 0.1765 0.63989 0.0
H982 H 0.81376 0.18063 0.82403 0.0
H983 H 0.82181 0.10806 0.88055 0.0
H984 H 0.84641 0.10554 0.80709 0.0
H985 H 0.84174 0.08381 0.85021 0.0
H986 H 0.85166 0.17479 0.59169 0.0
H987 H 0.9524 0.16303 0.59408 0.0
H988 H 0.89728 0.16291 0.65899 0.0
H989 H 0.94791 0.15846 0.63783 0.0
H990 H 0.33858 0.83693 0.09501 0.0
H991 H 0.2687 0.88618 0.08709 0.0
H992 H 0.32477 0.94362 0.07653 0.0
H993 H 0.39451 0.98026 0.06807 0.0
H994 H 0.46355 0.93019 0.07244 0.0
H995 H 0.4079 0.87313 0.08495 0.0
C996 C 0.33574 0.86032 0.09112 0.0
C997 C 0.29938 0.8573 0.09303 0.0
C998 C 0.36824 0.89321 0.08377 0.0
C999 C 0.29622 0.88783 0.08736 0.0
C1000 C 0.3284 0.9207 0.08076 0.0
C1001 C 0.39722 0.95676 0.07161 0.0
C1002 C 0.43318 0.95933 0.06816 0.0
C1003 C 0.36464 0.9238 0.07884 0.0
C1004 C 0.43622 0.92874 0.0735 0.0
C1005 C 0.40429 0.89611 0.08111 0.0
H1006 H 0.18808 0.47459 0.06786 0.0
H1007 H 0.10406 0.36602 0.0717 0.0
H1008 H 0.05514 0.38261 0.06262 0.0
H1009 H 0.03565 0.42779 0.0571 0.0
H1010 H 0.11957 0.53677 0.05117 0.0
H1011 H 0.1696 0.52058 0.05731 0.0
C1012 C 0.15921 0.45478 0.06611 0.0
C1013 C 0.14927 0.41917 0.07075 0.0
C1014 C 0.13142 0.46462 0.06077 0.0
C1015 C 0.11189 0.39352 0.06857 0.0
C1016 C 0.08407 0.403 0.06343 0.0
C1017 C 0.06502 0.44789 0.05688 0.0
C1018 C 0.07427 0.48328 0.05346 0.0
C1019 C 0.09335 0.43839 0.06014 0.0
C1020 C 0.11215 0.50935 0.05337 0.0
C1021 C 0.1406 0.50008 0.05699 0.0
H1022 H 0.58974 0.71446 0.08304 0.0
H1023 H 0.47592 0.69753 0.07848 0.0
H1024 H 0.45659 0.64148 0.0639 0.0
H1025 H 0.47174 0.5956 0.05413 0.0
H1026 H 0.58546 0.61248 0.06088 0.0
H1027 H 0.60499 0.66954 0.07301 0.0
C1028 C 0.56069 0.69834 0.07898 0.0
C1029 C 0.53433 0.7101 0.08182 0.0
C1030 C 0.54969 0.66587 0.07109 0.0
C1031 C 0.49684 0.6892 0.07616 0.0
C1032 C 0.48575 0.65706 0.06796 0.0
C1033 C 0.50079 0.61195 0.05812 0.0
C1034 C 0.52694 0.59946 0.05698 0.0
C1035 C 0.51187 0.64491 0.0655 0.0
C1036 C 0.56452 0.62098 0.06217 0.0
C1037 C 0.57583 0.65381 0.069 0.0
H1038 H 0.81871 0.33591 1.00098 0.0
H1039 H 0.89899 0.30007 0.98938 0.0
H1040 H 0.95054 0.35497 0.99894 0.0
H1041 H 0.97356 0.41413 1.01003 0.0
H1042 H 0.89269 0.44752 0.02643 0.0
H1043 H 0.84109 0.39311 1.016 0.0
C1044 C 0.84741 0.33999 1.00086 0.0
C1045 C 0.85497 0.3141 0.99377 0.0
C1046 C 0.87704 0.37148 1.00718 0.0
C1047 C 0.89243 0.31988 0.99393 0.0
C1048 C 0.92198 0.35127 0.99957 0.0
C1049 C 0.94467 0.40956 1.01119 0.0
C1050 C 0.93724 0.43531 0.01857 0.0
C1051 C 0.9148 0.37752 1.00593 0.0
C1052 C 0.8994 0.42842 0.02057 0.0
C1053 C 0.86977 0.39718 1.01464 0.0
H1054 H 0.73462 0.59648 0.9972 0.0
H1055 H 0.69718 0.48592 1.00527 0.0
H1056 H 0.63387 0.47286 0.02043 0.0
H1057 H 0.58802 0.49331 0.02607 0.0
H1058 H 0.62433 0.60384 1.01529 0.0
H1059 H 0.68968 0.617 1.00625 0.0
C1060 C 0.71248 0.56963 1.00248 0.0
C1061 C 0.71986 0.54211 0.99995 0.0
C1062 C 0.67626 0.56253 1.01043 0.0
C1063 C 0.69165 0.50733 1.00712 0.0
C1064 C 0.65562 0.49996 1.01561 0.0
C1065 C 0.61036 0.5202 0.02248 0.0
C1066 C 0.60175 0.54762 0.0217 0.0
C1067 C 0.64738 0.52736 1.01666 0.0
C1068 C 0.63071 0.58244 1.0162 0.0
C1069 C 0.66788 0.58991 1.01095 0.0
H1070 H 0.43894 0.17409 1.00937 0.0
H1071 H 0.49898 0.20141 0.93964 0.0
H1072 H 0.51462 0.15396 0.94937 0.0
H1073 H 0.5162 0.1079 0.97951 0.0
H1074 H 0.45955 0.08403 0.05012 0.0
H1075 H 0.43866 0.12732 0.03877 0.0
C1076 C 0.45558 0.16972 0.99637 0.0
C1077 C 0.46832 0.19164 0.97394 0.0
C1078 C 0.46566 0.1433 1.00251 0.0
C1079 C 0.48876 0.18486 0.95697 0.0
C1080 C 0.49803 0.15795 0.96266 0.0
C1081 C 0.49902 0.11209 0.99226 0.0
C1082 C 0.4899 0.09326 1.01578 0.0
C1083 C 0.48741 0.13749 0.98561 0.0
C1084 C 0.46764 0.09883 0.03215 0.0
C1085 C 0.45545 0.12339 0.02558 0.0
H1086 H 0.75528 0.16156 0.99058 0.0
H1087 H 0.70823 0.23091 0.99152 0.0
H1088 H 0.64489 0.1806 1.00248 0.0
H1089 H 0.60238 0.11615 1.0118 0.0
H1090 H 0.65004 0.04724 1.01009 0.0
H1091 H 0.71294 0.09755 0.99877 0.0
C1092 C 0.7311 0.16562 0.99273 0.0
C1093 C 0.73655 0.20005 0.99003 0.0
C1094 C 0.69463 0.13644 0.99888 0.0
C1095 C 0.70484 0.20473 0.99357 0.0
C1096 C 0.66857 0.17593 0.99973 0.0
C1097 C 0.62665 0.11227 1.00917 0.0
C1098 C 0.62168 0.07795 1.01253 0.0
C1099 C 0.66303 0.14156 1.00253 0.0
C1100 C 0.65321 0.07336 1.00812 0.0
C1101 C 0.68924 0.10216 1.00162 0.0
H1102 H 0.88047 0.60594 0.98483 0.0
H1103 H 0.81596 0.49404 0.98816 0.0
H1104 H 0.87024 0.48781 1.00191 0.0
H1105 H 0.93557 0.51446 1.01313 0.0
H1106 H 1.00155 0.62652 1.00893 0.0
H1107 H 0.94717 0.63289 0.99544 0.0
C1108 C 0.87891 0.58042 0.98812 0.0
C1109 C 0.84488 0.55046 0.98535 0.0
C1110 C 0.91003 0.57717 0.9963 0.0
C1111 C 0.84232 0.51729 0.99004 0.0
C1112 C 0.87309 0.51378 0.99807 0.0
C1113 C 0.93774 0.54013 1.00992 0.0
C1114 C 0.97188 0.5699 1.0129 0.0
C1115 C 0.9069 0.54351 1.00155 0.0
C1116 C 0.97503 0.60325 1.00733 0.0
C1117 C 0.94415 0.60687 0.99945 0.0
H1118 H 0.52677 0.32753 0.99007 0.0
H1119 H 0.40811 0.28552 0.97941 0.0
H1120 H 0.40816 0.33542 0.99452 0.0
H1121 H 0.44216 0.39138 1.01068 0.0
H1122 H 0.55882 0.42955 0.02624 0.0
H1123 H 0.5593 0.38069 1.00998 0.0
C1124 C 0.5008 0.32897 0.99159 0.0
C1125 C 0.46744 0.30283 0.98364 0.0
C1126 C 0.50075 0.35715 1.00119 0.0
C1127 C 0.43417 0.30548 0.98521 0.0
C1128 C 0.43418 0.33394 0.99392 0.0
C1129 C 0.46765 0.38895 1.01052 0.0
C1130 C 0.50054 0.41435 0.01937 0.0
C1131 C 0.46734 0.36005 1.00188 0.0
C1132 C 0.53316 0.41048 0.01944 0.0
C1133 C 0.53347 0.38252 1.01011 0.0
H1134 H 0.18942 0.7511 0.05288 0.0
H1135 H 0.20492 0.70643 0.12194 0.0
H1136 H 0.16297 0.64723 0.11293 0.0
H1137 H 0.11929 0.6078 0.08587 0.0
H1138 H 0.10557 0.65249 1.01623 0.0
H1139 H 0.14943 0.71146 0.02459 0.0
C1140 C 0.18427 0.72834 0.06566 0.0
C1141 C 0.20052 0.7332 0.08803 0.0
C1142 C 0.16021 0.69421 0.06021 0.0
C1143 C 0.19283 0.70338 0.10463 0.0
C1144 C 0.16875 0.66952 0.09948 0.0
C1145 C 0.12627 0.6305 0.07248 0.0
C1146 C 0.10964 0.62568 0.05026 0.0
C1147 C 0.15183 0.66453 0.07744 0.0
C1148 C 0.11873 0.65534 0.03316 0.0
C1149 C 0.14359 0.68918 0.03806 0.0
H1150 H 0.2923 0.46665 0.07662 0.0
H1151 H 0.2497 0.35511 0.08634 0.0
H1152 H 0.31393 0.36426 0.07862 0.0
H1153 H 0.38207 0.40433 0.0683 0.0
H1154 H 0.42411 0.51593 0.05734 0.0
H1155 H 0.36016 0.5067 0.06556 0.0
C1156 C 0.29721 0.44445 0.07682 0.0
C1157 C 0.26658 0.41029 0.08199 0.0
C1158 C 0.33392 0.45001 0.07179 0.0
C1159 C 0.27308 0.3816 0.0827 0.0
C1160 C 0.30965 0.38686 0.07808 0.0
C1161 C 0.37699 0.42652 0.06754 0.0
C1162 C 0.40734 0.46067 0.06151 0.0
C1163 C 0.34023 0.42095 0.07246 0.0
C1164 C 0.40091 0.48939 0.06115 0.0
C1165 C 0.36444 0.48411 0.0661 0.0
H1166 H 0.60292 0.86478 0.09398 0.0
H1167 H 0.48462 0.79224 0.09043 0.0
H1168 H 0.47223 0.84055 0.07725 0.0
H1169 H 0.49552 0.90239 0.06369 0.0
H1170 H 0.61115 0.9776 0.0723 0.0
H1171 H 0.6244 0.92943 0.08644 0.0
C1172 C 0.57439 0.85978 0.09085 0.0
C1173 C 0.54481 0.82489 0.09248 0.0
C1174 C 0.56716 0.88807 0.08392 0.0
C1175 C 0.50791 0.81878 0.0886 0.0
C1176 C 0.50081 0.84638 0.0811 0.0
C1177 C 0.52348 0.90855 0.06915 0.0
C1178 C 0.55226 0.94366 0.06694 0.0
C1179 C 0.53033 0.88101 0.07815 0.0
C1180 C 0.58842 0.9508 0.07389 0.0
C1181 C 0.59598 0.92323 0.08194 0.0
H1182 H 0.96053 0.21381 0.40738 0.0
H1183 H 0.98848 0.1403 0.44766 0.0
H1184 H 0.05611 0.18084 0.43772 0.0
H1185 H 0.10725 0.23617 0.41615 0.0
H1186 H 0.0806 0.31105 0.37635 0.0
H1187 H 0.01271 0.27114 0.38695 0.0
C1188 C 0.98164 0.20713 0.41423 0.0
C1189 C 0.96971 0.17442 0.42867 0.0
C1190 C 0.02058 0.23047 0.40797 0.0
C1191 C 0.9971 0.16566 0.43714 0.0
C1192 C 0.0357 0.18864 0.43115 0.0
C1193 C 0.08647 0.24355 0.40959 0.0
C1194 C 0.09878 0.27586 0.39464 0.0
C1195 C 0.04774 0.22087 0.41631 0.0
C1196 C 0.07174 0.28571 0.38703 0.0
C1197 C 0.03297 0.26306 0.39337 0.0
H1198 H 0.87501 0.85757 0.39779 0.0
H1199 H 0.81431 0.74495 0.40681 0.0
H1200 H 0.75804 0.74581 0.39143 0.0
H1201 H 0.72404 0.77872 0.38092 0.0
H1202 H 0.78444 0.89143 0.37317 0.0
H1203 H 0.84311 0.89088 0.38191 0.0
C1204 C 0.84966 0.83346 0.39571 0.0
C1205 C 0.84805 0.80128 0.40363 0.0
C1206 C 0.81748 0.83428 0.38722 0.0
C1207 C 0.81544 0.7699 0.40103 0.0
C1208 C 0.78345 0.77043 0.39233 0.0
C1209 C 0.75032 0.80307 0.38069 0.0
C1210 C 0.7502 0.83504 0.37604 0.0
C1211 C 0.78374 0.80244 0.38626 0.0
C1212 C 0.78407 0.86657 0.37602 0.0
C1213 C 0.8176 0.86623 0.3813 0.0
H1214 H 0.25871 0.04385 0.42665 0.0
H1215 H 0.14751 0.02941 0.41343 0.0
H1216 H 0.12964 0.97259 0.40048 0.0
H1217 H 0.14516 0.92563 0.39445 0.0
H1218 H 0.25523 0.93922 0.41108 0.0
H1219 H 0.27366 0.99695 0.42167 0.0
C1220 C 0.23047 0.02808 0.42114 0.0
C1221 C 0.20455 0.04091 0.42094 0.0
C1222 C 0.22005 0.99497 0.41458 0.0
C1223 C 0.1682 0.02041 0.41337 0.0
C1224 C 0.15789 0.98778 0.40617 0.0
C1225 C 0.17315 0.94129 0.40041 0.0
C1226 C 0.19859 0.92779 0.40229 0.0
C1227 C 0.18349 0.97459 0.40688 0.0
C1228 C 0.23476 0.94846 0.40999 0.0
C1229 C 0.24548 0.98171 0.41588 0.0
H1230 H 0.56106 0.65223 0.31766 0.0
H1231 H 0.46013 0.66052 0.32792 0.0
H1232 H 0.4973 0.71733 0.3419 0.0
H1233 H 0.55979 0.76663 0.34934 0.0
H1234 H 0.66067 0.75925 0.33546 0.0
H1235 H 0.62279 0.70102 0.32451 0.0
C1236 C 0.54726 0.66659 0.32281 0.0
C1237 C 0.50778 0.65193 0.32183 0.0
C1238 C 0.56905 0.69982 0.33003 0.0
C1239 C 0.49031 0.67079 0.32889 0.0
C1240 C 0.51168 0.70349 0.33669 0.0
C1241 C 0.57336 0.75215 0.34402 0.0
C1242 C 0.61322 0.76765 0.343 0.0
C1243 C 0.55122 0.71853 0.33715 0.0
C1244 C 0.63027 0.74844 0.33602 0.0
C1245 C 0.60854 0.71492 0.32983 0.0
H1246 H 0.40279 0.8956 0.35618 0.0
H1247 H 0.42729 1.00166 0.35887 0.0
H1248 H 0.36003 0.9817 0.36855 0.0
H1249 H 0.29395 0.935 0.37046 0.0
H1250 H 0.26903 0.82853 0.36847 0.0
H1251 H 0.33693 0.84729 0.36465 0.0
C1252 C 0.39328 0.914 0.35963 0.0
C1253 C 0.41927 0.94997 0.35648 0.0
C1254 C 0.35472 0.90225 0.36501 0.0
C1255 C 0.40723 0.97391 0.36087 0.0
C1256 C 0.36897 0.96252 0.36631 0.0
C1257 C 0.30361 0.91594 0.36972 0.0
C1258 C 0.27709 0.88057 0.36999 0.0
C1259 C 0.34239 0.92695 0.36748 0.0
C1260 C 0.28932 0.85584 0.36875 0.0
C1261 C 0.328 0.8666 0.36639 0.0
H1262 H 0.10192 0.49927 0.34414 0.0
H1263 H 0.17378 0.5349 0.27844 0.0
H1264 H 0.18393 0.48412 0.28578 0.0
H1265 H 0.17821 0.43313 0.31322 0.0
H1266 H 0.1124 0.40115 0.38143 0.0
H1267 H 0.09469 0.44705 0.37123 0.0
C1268 C 0.11923 0.49543 0.33127 0.0
C1269 C 0.13618 0.52036 0.31035 0.0
C1270 C 0.12672 0.46717 0.33644 0.0
C1271 C 0.15901 0.51544 0.294 0.0
C1272 C 0.16547 0.48671 0.29853 0.0
C1273 C 0.15947 0.43581 0.3257 0.0
C1274 C 0.14659 0.41364 0.34807 0.0
C1275 C 0.15021 0.46285 0.31996 0.0
C1276 C 0.1228 0.41789 0.36415 0.0
C1277 C 0.11266 0.44414 0.3583 0.0
H1278 H 0.41871 0.49802 0.32754 0.0
H1279 H 0.37699 0.5662 0.29594 0.0
H1280 H 0.31156 0.51935 0.30584 0.0
H1281 H 0.26618 0.45965 0.32449 0.0
H1282 H 0.30609 0.38957 0.35529 0.0
H1283 H 0.37207 0.43604 0.34495 0.0
C1284 C 0.39513 0.50209 0.3224 0.0
C1285 C 0.4024 0.53519 0.31053 0.0
C1286 C 0.3574 0.4749 0.32845 0.0
C1287 C 0.3718 0.54067 0.30456 0.0
C1288 C 0.33451 0.51403 0.31043 0.0
C1289 C 0.28942 0.45471 0.32914 0.0
C1290 C 0.2814 0.42177 0.34154 0.0
C1291 C 0.32696 0.48121 0.32263 0.0
C1292 C 0.31162 0.41519 0.34663 0.0
C1293 C 0.3493 0.44166 0.34044 0.0
H1294 H 0.50796 0.902 0.33759 0.0
H1295 H 0.58343 0.01158 0.33853 0.0
H1296 H 0.6378 1.00113 0.34012 0.0
H1297 H 0.66349 0.96059 0.3412 0.0
H1298 H 0.58793 0.84988 0.34449 0.0
H1299 H 0.53347 0.86041 0.34173 0.0
C1300 C 0.53646 0.92338 0.33801 0.0
C1301 C 0.54244 0.95774 0.33672 0.0
C1302 C 0.56713 0.91677 0.34001 0.0
C1303 C 0.57893 0.98535 0.33808 0.0
C1304 C 0.60973 0.97925 0.3394 0.0
C1305 C 0.63497 0.93885 0.34153 0.0
C1306 C 0.62926 0.90456 0.34359 0.0
C1307 C 0.60415 0.94512 0.34024 0.0
C1308 C 0.59256 0.87641 0.34359 0.0
C1309 C 0.56161 0.88247 0.3418 0.0
H1310 H 0.18103 0.67343 0.3017 0.0
H1311 H 0.11471 0.59721 0.36283 0.0
H1312 H 0.122 0.64413 0.38531 0.0
H1313 H 0.14422 0.7071 0.38664 0.0
H1314 H 0.20664 0.78277 0.32431 0.0
H1315 H 0.20342 0.73619 0.30305 0.0
C1316 C 0.16798 0.66717 0.31986 0.0
C1317 C 0.14731 0.63188 0.33057 0.0
C1318 C 0.17154 0.69431 0.33243 0.0
C1319 C 0.1311 0.62418 0.35432 0.0
C1320 C 0.13508 0.651 0.3671 0.0
C1321 C 0.15776 0.71334 0.36863 0.0
C1322 C 0.17623 0.74832 0.35718 0.0
C1323 C 0.15498 0.6862 0.35629 0.0
C1324 C 0.19257 0.75601 0.33351 0.0
C1325 C 0.19065 0.72938 0.32134 0.0
H1326 H 0.88533 0.05878 0.39905 0.0
H1327 H 0.80025 0.07931 0.42803 0.0
H1328 H 0.75033 0.02692 0.41405 0.0
H1329 H 0.73067 0.97405 0.39439 0.0
H1330 H 0.81651 0.95715 0.36192 0.0
H1331 H 0.86601 1.00941 0.37585 0.0
C1332 C 0.85593 0.05222 0.40183 0.0
C1333 C 0.84658 0.07287 0.41478 0.0
C1334 C 0.82737 0.0225 0.39313 0.0
C1335 C 0.80819 0.06358 0.41849 0.0
C1336 C 0.77963 0.03366 0.41041 0.0
C1337 C 0.76019 0.98183 0.39034 0.0
C1338 C 0.76964 0.96125 0.37736 0.0
C1339 C 0.78881 0.01262 0.39794 0.0
C1340 C 0.80819 0.97222 0.37194 0.0
C1341 C 0.83666 1.00219 0.37994 0.0
H1342 H 0.94891 0.75094 0.42464 0.0
H1343 H 0.99673 0.86252 0.4206 0.0
H1344 H 0.05978 0.87092 0.40946 0.0
H1345 H 0.10065 0.84602 0.401 0.0
H1346 H 0.05303 0.7342 0.40499 0.0
H1347 H 0.99013 0.72595 0.41601 0.0
C1348 C 0.97347 0.77687 0.42181 0.0
C1349 C 0.96894 0.80609 0.4238 0.0
C1350 C 1.00918 0.78133 0.41504 0.0
C1351 C 1.00028 0.83983 0.41947 0.0
C1352 C 0.03601 0.84456 0.41294 0.0
C1353 C 0.07638 0.81997 0.40376 0.0
C1354 C 0.08099 0.79078 0.40154 0.0
C1355 C 0.04069 0.81549 0.41049 0.0
C1356 C 0.04968 0.757 0.40615 0.0
C1357 C 0.01391 0.75229 0.4126 0.0
H1358 H 0.26403 0.18225 0.39678 0.0
H1359 H 0.17806 0.14457 0.45516 0.0
H1360 H 0.17244 0.19781 0.4465 0.0
H1361 H 0.18906 0.25331 0.42072 0.0
H1362 H 0.26913 0.28823 0.35894 0.0
H1363 H 0.27988 0.23797 0.37011 0.0
C1364 C 0.24438 0.18608 0.40762 0.0
C1365 C 0.22224 0.16015 0.42706 0.0
C1366 C 0.24009 0.2161 0.40171 0.0
C1367 C 0.19637 0.16484 0.44079 0.0
C1368 C 0.19282 0.19504 0.43559 0.0
C1369 C 0.20937 0.25024 0.40993 0.0
C1370 C 0.22875 0.27472 0.38924 0.0
C1371 C 0.21429 0.22071 0.41598 0.0
C1372 C 0.25414 0.26987 0.37504 0.0
C1373 C 0.26018 0.2411 0.38141 0.0
H1374 H 0.63184 0.55166 0.75735 0.0
H1375 H 0.67482 0.47891 0.76026 0.0
H1376 H 0.73915 0.52735 0.74846 0.0
H1377 H 0.78314 0.59093 0.73536 0.0
H1378 H 0.74029 0.66378 0.73485 0.0
H1379 H 0.67664 0.61548 0.74774 0.0
C1380 C 0.65551 0.54663 0.7559 0.0
C1381 C 0.64856 0.51172 0.75949 0.0
C1382 C 0.69254 0.57478 0.74918 0.0
C1383 C 0.6795 0.50554 0.75748 0.0
C1384 C 0.71624 0.53325 0.75061 0.0
C1385 C 0.75975 0.5961 0.73787 0.0
C1386 C 0.76621 0.6309 0.73319 0.0
C1387 C 0.7231 0.56803 0.74593 0.0
C1388 C 0.7359 0.63722 0.73766 0.0
C1389 C 0.69946 0.60957 0.74516 0.0
H1390 H 0.53338 0.18056 0.72925 0.0
H1391 H 0.46739 0.06844 0.73466 0.0
H1392 H 0.41342 0.07365 0.71905 0.0
H1393 H 0.38309 0.10989 0.70914 0.0
H1394 H 0.44822 0.22204 0.70555 0.0
H1395 H 0.50499 0.21752 0.71461 0.0
C1396 C 0.5074 0.15752 0.72635 0.0
C1397 C 0.50368 0.1242 0.73317 0.0
C1398 C 0.47656 0.16084 0.71787 0.0
C1399 C 0.47019 0.09423 0.72965 0.0
C1400 C 0.43955 0.09724 0.72082 0.0
C1401 C 0.40998 0.13328 0.70993 0.0
C1402 C 0.41186 0.16618 0.70651 0.0
C1403 C 0.44204 0.13034 0.71571 0.0
C1404 C 0.44645 0.1965 0.70772 0.0
C1405 C 0.47878 0.19388 0.71309 0.0
H1406 H 0.8556 0.34237 0.7839 0.0
H1407 H 0.89609 0.4038 0.7135 0.0
H1408 H 0.88414 0.35131 0.69616 0.0
H1409 H 0.86585 0.28822 0.70155 0.0
H1410 H 0.83038 0.22816 0.77268 0.0
H1411 H 0.83773 0.27966 0.78933 0.0
C1412 C 0.86203 0.34428 0.76481 0.0
C1413 C 0.87667 0.37706 0.75004 0.0
C1414 C 0.85632 0.31415 0.75513 0.0
C1415 C 0.88425 0.37889 0.72522 0.0
C1416 C 0.87774 0.34889 0.71534 0.0
C1417 C 0.85904 0.28627 0.72057 0.0
C1418 C 0.8471 0.25419 0.73578 0.0
C1419 C 0.86413 0.31637 0.73015 0.0
C1420 C 0.83964 0.2525 0.76058 0.0
C1421 C 0.84377 0.28196 0.77012 0.0
H1422 H 0.22457 0.98766 0.64633 0.0
H1423 H 0.12332 0.99141 0.66571 0.0
H1424 H 0.16168 0.0492 0.67789 0.0
H1425 H 0.22462 0.10002 0.68198 0.0
H1426 H 0.32533 0.09864 0.65764 0.0
H1427 H 0.2869 0.03967 0.64768 0.0
C1428 C 0.2108 1.00128 0.65284 0.0
C1429 C 0.17083 0.98471 0.65519 0.0
C1430 C 0.23316 0.03541 0.65868 0.0
C1431 C 0.15382 1.00283 0.66419 0.0
C1432 C 0.17584 0.0362 0.67091 0.0
C1433 C 0.23813 0.08684 0.67442 0.0
C1434 C 0.27804 0.10403 0.67057 0.0
C1435 C 0.21561 0.05291 0.66814 0.0
C1436 C 0.29487 0.08647 0.66061 0.0
C1437 C 0.27282 0.05251 0.65502 0.0
H1438 H 0.05616 0.23324 0.65871 0.0
H1439 H 1.00541 0.12115 0.6748 0.0
H1440 H 0.95016 0.11821 0.69595 0.0
H1441 H 0.91339 0.14716 0.70383 0.0
H1442 H 0.96248 0.25916 0.68539 0.0
H1443 H 0.02202 0.26304 0.67121 0.0
C1444 C 0.03311 0.20841 0.6673 0.0
C1445 C 0.03399 0.1774 0.66525 0.0
C1446 C 1.00149 0.20708 0.67872 0.0
C1447 C 1.00462 0.14512 0.67628 0.0
C1448 C 0.97328 0.14354 0.68823 0.0
C1449 C 0.93748 0.17251 0.69757 0.0
C1450 C 0.93376 0.20287 0.69573 0.0
C1451 C 0.97093 0.17428 0.6888 0.0
C1452 C 0.96493 0.23551 0.68695 0.0
C1453 C 0.99878 0.23768 0.67875 0.0
H1454 H 0.86287 0.88408 0.64647 0.0
H1455 H 0.74613 0.81925 0.63377 0.0
H1456 H 0.75156 0.76648 0.64652 0.0
H1457 H 0.78838 0.73853 0.66523 0.0
H1458 H 0.90161 0.80549 0.68435 0.0
H1459 H 0.89831 0.85704 0.6663 0.0
C1460 C 0.83853 0.85841 0.64658 0.0
C1461 C 0.80412 0.85587 0.63908 0.0
C1462 C 0.84112 0.82828 0.65569 0.0
C1463 C 0.77319 0.82224 0.63884 0.0
C1464 C 0.77615 0.79196 0.6466 0.0
C1465 C 0.81235 0.7644 0.66533 0.0
C1466 C 0.84538 0.76777 0.67603 0.0
C1467 C 0.80976 0.79458 0.65565 0.0
C1468 C 0.8759 0.80171 0.67622 0.0
C1469 C 0.87409 0.83143 0.66583 0.0
H1470 H 0.08697 0.82732 0.64941 0.0
H1471 H 0.03394 0.89135 0.654 0.0
H1472 H 0.97274 0.83907 0.66578 0.0
H1473 H 0.93399 0.77492 0.67513 0.0
H1474 H 0.98537 0.70986 0.66975 0.0
H1475 H 0.04688 0.76213 0.65738 0.0
C1476 C 0.06188 0.82968 0.6527 0.0
C1477 C 0.06517 0.86334 0.65101 0.0
C1478 C 0.02636 0.79918 0.65935 0.0
C1479 C 0.03232 0.86587 0.65549 0.0
C1480 C 0.99724 0.83593 0.66214 0.0
C1481 C 0.95868 0.77218 0.67164 0.0
C1482 C 0.95522 0.73848 0.6743 0.0
C1483 C 0.9939 0.80242 0.66435 0.0
C1484 C 0.98736 0.73549 0.6684 0.0
C1485 C 0.02258 0.76543 0.66129 0.0
H1486 H 0.18101 0.24782 0.64894 0.0
H1487 H 0.14385 0.14351 0.63349 0.0
H1488 H 0.20306 0.14626 0.64662 0.0
H1489 H 0.26398 0.17791 0.66385 0.0
H1490 H 0.30391 0.28415 0.67646 0.0
H1491 H 0.24474 0.28142 0.66336 0.0
C1492 C 0.18678 0.22637 0.64772 0.0
C1493 C 0.15912 0.19587 0.63977 0.0
C1494 C 0.22058 0.22821 0.65548 0.0
C1495 C 0.16566 0.16749 0.63892 0.0
C1496 C 0.19905 0.16891 0.64679 0.0
C1497 C 0.25932 0.20011 0.66428 0.0
C1498 C 0.28723 0.23061 0.67218 0.0
C1499 C 0.22633 0.19889 0.65556 0.0
C1500 C 0.28201 0.26005 0.67119 0.0
C1501 C 0.2485 0.2586 0.66348 0.0
H1502 H 0.77975 0.94771 0.68362 0.0
H1503 H 0.84668 1.00254 0.61671 0.0
H1504 H 0.86127 0.05886 0.62917 0.0
H1505 H 0.85417 0.09263 0.6591 0.0
H1506 H 0.79233 0.03812 0.72758 0.0
H1507 H 0.77751 0.98185 0.71504 0.0
C1508 C 0.79831 0.97203 0.67207 0.0
C1509 C 0.81236 0.9709 0.64931 0.0
C1510 C 0.80757 1.00443 0.67974 0.0
C1511 C 0.83542 1.0027 0.63424 0.0
C1512 C 0.84384 0.0349 0.6414 0.0
C1513 C 0.83775 0.06843 0.67131 0.0
C1514 C 0.82461 0.06957 0.69432 0.0
C1515 C 0.82994 0.03614 0.66408 0.0
C1516 C 0.80335 0.038 0.70997 0.0
C1517 C 0.7946 1.00576 0.7027 0.0
H1518 H 0.5144 0.36864 0.77178 0.0
H1519 H 0.53675 0.44114 0.70671 0.0
H1520 H 0.49241 0.39315 0.68605 0.0
H1521 H 0.44574 0.33018 0.68677 0.0
H1522 H 0.41927 0.259 0.75307 0.0
H1523 H 0.46548 0.30658 0.7731 0.0
C1524 C 0.5092 0.37402 0.75318 0.0
C1525 C 0.52925 0.40862 0.74082 0.0
C1526 C 0.48257 0.34636 0.74165 0.0
C1527 C 0.52235 0.41483 0.71657 0.0
C1528 C 0.49673 0.38735 0.70479 0.0
C1529 C 0.45041 0.32505 0.70548 0.0
C1530 C 0.42933 0.29085 0.71827 0.0
C1531 C 0.4766 0.35293 0.71712 0.0
C1532 C 0.43502 0.28499 0.74279 0.0
C1533 C 0.46157 0.31223 0.75426 0.0
H1534 H 0.60721 0.07754 0.75709 0.0
H1535 H 0.65154 0.18894 0.75083 0.0
H1536 H 0.71533 0.19881 0.73985 0.0
H1537 H 0.75763 0.17511 0.73149 0.0
H1538 H 0.71273 0.06336 0.73727 0.0
H1539 H 0.64956 0.05381 0.74893 0.0
C1540 C 0.63122 0.1038 0.7539 0.0
C1541 C 0.62549 0.1325 0.75517 0.0
C1542 C 0.66718 0.10905 0.74707 0.0
C1543 C 0.65604 0.16664 0.7503 0.0
C1544 C 0.69216 0.17219 0.74383 0.0
C1545 C 0.73384 0.14878 0.73485 0.0
C1546 C 0.73926 0.11994 0.73289 0.0
C1547 C 0.69793 0.14356 0.74187 0.0
C1548 C 0.70868 0.08584 0.73821 0.0
C1549 C 0.67279 0.0804 0.74502 0.0
H1550 H 0.91967 0.50999 0.72638 0.0
H1551 H 0.86348 0.48518 0.79709 0.0
H1552 H 0.85604 0.53777 0.78969 0.0
H1553 H 0.86154 0.58892 0.76156 0.0
H1554 H 0.91799 0.61318 0.69085 0.0
H1555 H 0.92908 0.563 0.69945 0.0
C1556 C 0.90612 0.51641 0.74017 0.0
C1557 C 0.89229 0.49393 0.76229 0.0
C1558 C 0.90166 0.54649 0.7356 0.0
C1559 C 0.87485 0.50243 0.78011 0.0
C1560 C 0.87033 0.53234 0.77576 0.0
C1561 C 0.87681 0.58344 0.74827 0.0
C1562 C 0.88857 0.60441 0.72547 0.0
C1563 C 0.88315 0.55437 0.75343 0.0
C1564 C 0.9081 0.597 0.70833 0.0
C1565 C 0.91458 0.56838 0.71329 0.0
H1566 H 0.47316 0.95188 0.27751 0.0
H1567 H 0.57286 0.0337 0.30227 0.0
H1568 H 0.60141 0.05555 0.26092 0.0
H1569 H 0.59512 0.05493 0.21763 0.0
H1570 H 0.48936 0.98056 0.19257 0.0
H1571 H 0.4664 0.95191 0.23381 0.0
C1572 C 0.50137 0.97417 0.2737 0.0
C1573 C 0.52145 0.9906 0.29287 0.0
C1574 C 0.51626 0.98813 0.24973 0.0
C1575 C 0.55766 0.01974 0.28795 0.0
C1576 C 0.57361 0.03262 0.26423 0.0
C1577 C 0.56681 0.03276 0.22101 0.0
C1578 C 0.54409 0.02044 0.20166 0.0
C1579 C 0.55271 0.01759 0.24495 0.0
C1580 C 0.50802 0.99066 0.20675 0.0
C1581 C 0.49455 0.97435 0.23048 0.0
H1582 H 0.05049 0.53828 0.28284 0.0
H1583 H 0.15844 0.56539 0.24866 0.0
H1584 H 0.12894 0.54653 0.21122 0.0
H1585 H 0.07222 0.52543 0.1874 0.0
H1586 H 0.96737 0.51024 0.2206 0.0
H1587 H 0.99553 0.5214 0.25865 0.0
C1588 C 0.06719 0.53911 0.2673 0.0
C1589 C 0.10616 0.55142 0.26887 0.0
C1590 C 0.05052 0.5309 0.24535 0.0
C1591 C 0.12805 0.55409 0.24834 0.0
C1592 C 0.11125 0.54407 0.22674 0.0
C1593 C 0.05549 0.5248 0.20281 0.0
C1594 C 0.01699 0.51567 0.20082 0.0
C1595 C 0.07248 0.53295 0.22486 0.0
C1596 C 0.99637 0.51544 0.22136 0.0
C1597 C 0.01259 0.52223 0.24332 0.0
H1598 H 0.52113 0.56411 0.27611 0.0
H1599 H 0.41057 0.547 0.25837 0.0
H1600 H 0.41491 0.52108 0.22286 0.0
H1601 H 0.452 0.50506 0.19582 0.0
H1602 H 0.56412 0.5259 0.21373 0.0
H1603 H 0.55788 0.54936 0.24953 0.0
C1604 C 0.49794 0.55455 0.26448 0.0
C1605 C 0.46551 0.55727 0.26999 0.0
C1606 C 0.50128 0.54087 0.24377 0.0
C1607 C 0.43554 0.54462 0.25485 0.0
C1608 C 0.4383 0.53025 0.23433 0.0
C1609 C 0.47513 0.51506 0.20745 0.0
C1610 C 0.50846 0.51345 0.20203 0.0
C1611 C 0.47133 0.52862 0.22838 0.0
C1612 C 0.53802 0.52637 0.21749 0.0
C1613 C 0.5345 0.53981 0.23805 0.0
H1614 H 0.89102 0.45865 0.82717 0.0
H1615 H 0.98585 0.49162 0.77605 0.0
H1616 H 0.02988 0.52012 0.80624 0.0
H1617 H 0.0409 0.53121 0.84776 0.0
H1618 H 0.94598 0.50481 0.89796 0.0
H1619 H 0.90255 0.47724 0.86782 0.0
C1620 C 0.92131 0.47301 0.82259 0.0
C1621 C 0.93545 0.47356 0.79947 0.0
C1622 C 0.94635 0.4896 0.84003 0.0
C1623 C 0.97466 0.49147 0.7937 0.0
C1624 C 0.99968 0.50738 0.81101 0.0
C1625 C 1.0109 0.52048 0.85224 0.0
C1626 C 0.99743 0.52018 0.87568 0.0
C1627 C 0.98584 0.50609 0.83438 0.0
C1628 C 0.95789 0.50481 0.88063 0.0
C1629 C 0.93273 0.48933 0.86318 0.0
H1630 H 0.55902 0.51064 0.80203 0.0
H1631 H 0.62263 0.4554 0.81253 0.0
H1632 H 0.62187 0.45868 0.85589 0.0
H1633 H 0.59763 0.47182 0.89094 0.0
H1634 H 0.53783 0.53139 0.88074 0.0
H1635 H 0.54107 0.53038 0.83744 0.0
C1636 C 0.57359 0.50028 0.81382 0.0
C1637 C 0.59126 0.48308 0.80412 0.0
C1638 C 0.57258 0.50196 0.83888 0.0
C1639 C 0.6095 0.46922 0.81956 0.0
C1640 C 0.60855 0.4707 0.84438 0.0
C1641 C 0.58612 0.48565 0.87952 0.0
C1642 C 0.56737 0.50166 0.88989 0.0
C1643 C 0.58939 0.48627 0.85434 0.0
C1644 C 0.5517 0.51806 0.87399 0.0
C1645 C 0.55397 0.51793 0.84895 0.0
H1646 H 0.54927 0.04264 0.79156 0.0
H1647 H 0.58586 0.14421 0.81208 0.0
H1648 H 0.57563 0.11918 0.85489 0.0
H1649 H 0.54533 0.0668 0.8856 0.0
H1650 H 0.51121 0.96497 0.86502 0.0
H1651 H 0.53118 0.99156 0.82307 0.0
C1652 C 0.55653 0.05929 0.80553 0.0
C1653 C 0.56854 0.09507 0.799 0.0
C1654 C 0.54984 0.0445 0.82997 0.0
C1655 C 0.57721 0.11667 0.81696 0.0
C1656 C 0.57078 0.10223 0.84135 0.0
C1657 C 0.54325 0.05037 0.87219 0.0
C1658 C 0.52548 0.01363 0.8786 0.0
C1659 C 0.55546 0.0659 0.84803 0.0
C1660 C 0.52323 0.99311 0.86065 0.0
C1661 C 0.53501 1.00832 0.8366 0.0
H1662 H 0.09115 0.17022 0.57743 0.0
H1663 H 0.15942 0.26384 0.60808 0.0
H1664 H 0.17433 0.29922 0.56804 0.0
H1665 H 0.15752 0.30407 0.52582 0.0
H1666 H 0.0857 0.20992 0.49604 0.0
H1667 H 0.08242 0.17414 0.53395 0.0
C1668 C 0.11052 0.1982 0.57501 0.0
C1669 C 0.12448 0.21453 0.59542 0.0
C1670 C 0.11732 0.21831 0.55216 0.0
C1671 C 0.14903 0.2508 0.59245 0.0
C1672 C 0.15694 0.27101 0.56963 0.0
C1673 C 0.14203 0.27571 0.52746 0.0
C1674 C 0.12127 0.2597 0.5083 0.0
C1675 C 0.13972 0.25522 0.54954 0.0
C1676 C 0.10124 0.22289 0.5107 0.0
C1677 C 0.09944 0.2024 0.53235 0.0
H1678 H 0.71689 0.84525 0.60847 0.0
H1679 H 0.82698 0.91861 0.57418 0.0
H1680 H 0.80254 0.90821 0.5343 0.0
H1681 H 0.74708 0.88446 0.50945 0.0
H1682 H 0.63789 0.80766 0.54458 0.0
H1683 H 0.66467 0.81263 0.58354 0.0
C1684 C 0.73593 0.85737 0.59229 0.0
C1685 C 0.77398 0.88187 0.5943 0.0
C1686 C 0.72148 0.85138 0.56944 0.0
C1687 C 0.79788 0.89887 0.57306 0.0
C1688 C 0.7837 0.8933 0.55026 0.0
C1689 C 0.72929 0.86812 0.52549 0.0
C1690 C 0.69001 0.84671 0.52388 0.0
C1691 C 0.74513 0.87052 0.54818 0.0
C1692 C 0.66781 0.82556 0.54511 0.0
C1693 C 0.68317 0.82813 0.56754 0.0
H1694 H 0.1806 0.89112 0.61577 0.0
H1695 H 0.07026 0.87296 0.59672 0.0
H1696 H 0.07467 0.84451 0.56255 0.0
H1697 H 0.11213 0.82714 0.53694 0.0
H1698 H 0.22343 0.84781 0.5567 0.0
H1699 H 0.21698 0.87355 0.59124 0.0
C1700 C 0.15744 0.88062 0.60419 0.0
C1701 C 0.12517 0.88399 0.60871 0.0
C1702 C 0.16074 0.86529 0.58442 0.0
C1703 C 0.09519 0.87026 0.59372 0.0
C1704 C 0.09797 0.85439 0.57405 0.0
C1705 C 0.13498 0.83753 0.54875 0.0
C1706 C 0.16826 0.83544 0.54419 0.0
C1707 C 0.13096 0.85224 0.56895 0.0
C1708 C 0.19746 0.84877 0.55983 0.0
C1709 C 0.1938 0.8635 0.57964 0.0
H1710 H 0.63837 0.80384 0.12438 0.0
H1711 H 0.54092 0.81234 0.14539 0.0
H1712 H 0.57269 0.84044 0.18011 0.0
H1713 H 0.62823 0.86067 0.20539 0.0
H1714 H 0.72399 0.84911 0.184 0.0
H1715 H 0.69273 0.82346 0.14902 0.0
C1716 C 0.62424 0.81201 0.13657 0.0
C1717 C 0.58749 0.80612 0.1324 0.0
C1718 C 0.64226 0.82712 0.15667 0.0
C1719 C 0.56941 0.817 0.14812 0.0
C1720 C 0.58746 0.83269 0.16809 0.0
C1721 C 0.64202 0.85225 0.19315 0.0
C1722 C 0.67858 0.85702 0.19732 0.0
C1723 C 0.62378 0.83746 0.17277 0.0
C1724 C 0.69613 0.84617 0.18114 0.0
C1725 C 0.67827 0.83147 0.16109 0.0
H1726 H 0.25075 0.7969 0.16273 0.0
H1727 H 0.22129 0.86371 0.11555 0.0
H1728 H 0.20728 0.88551 0.15006 0.0
H1729 H 0.19636 0.88056 0.19382 0.0
H1730 H 0.21495 0.80559 0.2413 0.0
H1731 H 0.24051 0.79245 0.20697 0.0
C1732 C 0.24256 0.81717 0.16012 0.0
C1733 C 0.23946 0.83036 0.13644 0.0
C1734 C 0.23166 0.8275 0.1803 0.0
C1735 C 0.22679 0.85517 0.13329 0.0
C1736 C 0.21766 0.86684 0.15318 0.0
C1737 C 0.20567 0.86111 0.19685 0.0
C1738 C 0.20313 0.84402 0.2205 0.0
C1739 C 0.21895 0.85246 0.1768 0.0
C1740 C 0.21671 0.81971 0.22364 0.0
C1741 C 0.23113 0.81185 0.20387 0.0
H1742 H 0.25168 0.40853 0.13778 0.0
H1743 H 0.16503 0.31438 0.11508 0.0
H1744 H 0.16174 0.28057 0.15414 0.0
H1745 H 0.17732 0.27984 0.19629 0.0
H1746 H 0.26491 0.37399 0.21929 0.0
H1747 H 0.27378 0.40589 0.1788 0.0
C1748 C 0.23308 0.38043 0.1413 0.0
C1749 C 0.20863 0.36371 0.12385 0.0
C1750 C 0.2308 0.36145 0.16402 0.0
C1751 C 0.18411 0.32744 0.12843 0.0
C1752 C 0.18203 0.3083 0.15077 0.0
C1753 C 0.19903 0.30709 0.19241 0.0
C1754 C 0.21979 0.32451 0.21111 0.0
C1755 C 0.20429 0.32528 0.169 0.0
C1756 C 0.24759 0.36003 0.20555 0.0
C1757 C 0.25297 0.37831 0.18229 0.0
H1758 H 0.83734 0.64034 0.94783 0.0
H1759 H 0.82948 0.54514 0.92972 0.0
H1760 H 0.86068 0.57539 0.88941 0.0
H1761 H 0.88493 0.62822 0.85819 0.0
H1762 H 0.89176 0.72305 0.87713 0.0
H1763 H 0.86598 0.69387 0.91812 0.0
C1764 C 0.84332 0.62662 0.93511 0.0
C1765 C 0.83138 0.59081 0.94145 0.0
C1766 C 0.86035 0.644 0.91203 0.0
C1767 C 0.83893 0.57288 0.9251 0.0
C1768 C 0.85627 0.59007 0.90204 0.0
C1769 C 0.88076 0.64237 0.87136 0.0
C1770 C 0.88999 0.67767 0.86462 0.0
C1771 C 0.86614 0.62544 0.89506 0.0
C1772 C 0.88497 0.69592 0.88191 0.0
C1773 C 0.87023 0.67927 0.90534 0.0
H1774 H 0.47508 0.23543 0.90346 0.0
H1775 H 0.37958 0.18408 0.95595 0.0
H1776 H 0.33718 0.15816 0.92443 0.0
H1777 H 0.32683 0.15587 0.88166 0.0
H1778 H 0.42319 0.20278 0.82901 0.0
H1779 H 0.46539 0.22566 0.86069 0.0
C1780 C 0.44516 0.21757 0.90794 0.0
C1781 C 0.43031 0.21114 0.93194 0.0
C1782 C 0.42099 0.20302 0.88961 0.0
C1783 C 0.39147 0.18868 0.93764 0.0
C1784 C 0.36728 0.17434 0.91957 0.0
C1785 C 0.35702 0.17017 0.87685 0.0
C1786 C 0.37106 0.17772 0.8524 0.0
C1787 C 0.3816 0.18211 0.89538 0.0
C1788 C 0.4107 0.19727 0.84722 0.0
C1789 C 0.43522 0.21007 0.86549 0.0
H1790 H 0.7647 0.22515 0.92302 0.0
H1791 H 0.83018 0.19682 0.97211 0.0
H1792 H 0.84201 0.16622 0.94236 0.0
H1793 H 0.83912 0.15292 0.90132 0.0
H1794 H 0.77072 0.17795 0.85205 0.0
H1795 H 0.75581 0.20547 0.8825 0.0
C1796 C 0.78044 0.21121 0.92731 0.0
C1797 C 0.79593 0.21242 0.94984 0.0
C1798 C 0.78763 0.19413 0.90983 0.0
C1799 C 0.81735 0.19535 0.95506 0.0
C1800 C 0.82448 0.17832 0.93795 0.0
C1801 C 0.82008 0.16342 0.89719 0.0
C1802 C 0.80642 0.16319 0.874 0.0
C1803 C 0.81052 0.17825 0.91507 0.0
C1804 C 0.78268 0.17823 0.8693 0.0
C1805 C 0.77365 0.1937 0.8869 0.0
H1806 H 0.30986 0.14619 0.45755 0.0
H1807 H 0.20477 0.13168 0.48845 0.0
H1808 H 0.23717 0.16267 0.52179 0.0
H1809 H 0.29571 0.19257 0.54275 0.0
H1810 H 0.39988 0.20238 0.51303 0.0
H1811 H 0.36785 0.1746 0.4789 0.0
C1812 C 0.29441 0.15045 0.47146 0.0
C1813 C 0.25542 0.13812 0.47013 0.0
C1814 C 0.31307 0.16708 0.49096 0.0
C1815 C 0.23512 0.14254 0.48854 0.0
C1816 C 0.25358 0.15969 0.5078 0.0
C1817 C 0.31135 0.18838 0.52893 0.0
C1818 C 0.35038 0.20001 0.53049 0.0
C1819 C 0.29258 0.17189 0.50931 0.0
C1820 C 0.37009 0.19447 0.51219 0.0
C1821 C 0.35174 0.17838 0.49265 0.0
H1822 H 0.8905 0.17633 0.47471 0.0
H1823 H 0.94657 0.11415 0.48419 0.0
H1824 H 0.94977 0.11922 0.52724 0.0
H1825 H 0.93013 0.13557 0.56257 0.0
H1826 H 0.8768 0.20086 0.55341 0.0
H1827 H 0.87756 0.19908 0.51012 0.0
C1828 C 0.90462 0.16508 0.48616 0.0
C1829 C 0.91943 0.14583 0.47622 0.0
C1830 C 0.90552 0.16753 0.51108 0.0
C1831 C 0.9364 0.13019 0.49128 0.0
C1832 C 0.93751 0.13255 0.51597 0.0
C1833 C 0.91957 0.15043 0.55131 0.0
C1834 C 0.90323 0.16823 0.56189 0.0
C1835 C 0.9213 0.15042 0.52618 0.0
C1836 C 0.88873 0.18611 0.54638 0.0
C1837 C 0.88958 0.18552 0.52139 0.0
H1838 H 0.86622 0.71444 0.45684 0.0
H1839 H 0.95367 0.80697 0.48064 0.0
H1840 H 0.94583 0.77407 0.5212 0.0
H1841 H 0.90709 0.72094 0.55091 0.0
H1842 H 0.81132 0.63306 0.52661 0.0
H1843 H 0.82956 0.66171 0.48553 0.0
C1844 C 0.88408 0.727 0.47087 0.0
C1845 C 0.91016 0.76283 0.46609 0.0
C1846 C 0.87736 0.70873 0.49424 0.0
C1847 C 0.93351 0.77924 0.48408 0.0
C1848 C 0.92854 0.76055 0.50727 0.0
C1849 C 0.88998 0.70798 0.53676 0.0
C1850 C 0.85786 0.67436 0.5424 0.0
C1851 C 0.89926 0.72563 0.51284 0.0
C1852 C 0.83682 0.65819 0.52333 0.0
C1853 C 0.84694 0.67479 0.49958 0.0
loop_
_geom_bond_atom_site_label_1
_geom_bond_atom_site_label_2
_geom_bond_distance
_geom_bond_site_symmetry_2
_ccdc_geom_bond_type
C0 N1 1.317 . S
C0 N2 1.348 . S
C0 C3 1.485 . S
N1 C0 1.317 . S
N1 N5 1.370 . S
N2 C0 1.348 . S
N2 C4 1.346 . S
C3 C0 1.485 . S
C3 H7 0.960 . S
C3 H8 0.961 . S
C3 H9 0.960 . S
C4 N2 1.346 . S
C4 N5 1.307 . S
C4 C6 1.486 . S
N5 N1 1.370 . S
N5 C4 1.307 . S
C6 C4 1.486 . S
C6 H10 0.960 . S
C6 H11 0.960 . S
C6 H12 0.959 . S
H7 C3 0.960 . S
H8 C3 0.961 . S
H9 C3 0.960 . S
H10 C6 0.960 . S
H11 C6 0.960 . S
H12 C6 0.959 . S
C13 N14 1.317 . S
C13 N15 1.348 . S
C13 C16 1.485 . S
N14 C13 1.317 . S
N14 N18 1.370 . S
N15 C13 1.348 . S
N15 C17 1.346 . S
C16 C13 1.485 . S
C16 H20 0.960 . S
C16 H21 0.961 . S
C16 H22 0.960 . S
C17 N15 1.346 . S
C17 N18 1.307 . S
C17 C19 1.486 . S
N18 N14 1.370 . S
N18 C17 1.307 . S
C19 C17 1.486 . S
C19 H23 0.960 . S
C19 H24 0.960 . S
C19 H25 0.959 . S
H20 C16 0.960 . S
H21 C16 0.961 . S
H22 C16 0.960 . S
H23 C19 0.960 . S
H24 C19 0.960 . S
H25 C19 0.959 . S
C26 N27 1.317 . S
C26 N28 1.348 . S
C26 C29 1.485 . S
N27 C26 1.317 . S
N27 N31 1.370 . S
N28 C26 1.348 . S
N28 C30 1.346 . S
C29 C26 1.485 . S
C29 H33 0.960 . S
C29 H34 0.961 . S
C29 H35 0.960 . S
C30 N28 1.346 . S
C30 N31 1.307 . S
C30 C32 1.486 . S
N31 N27 1.370 . S
N31 C30 1.307 . S
C32 C30 1.486 . S
C32 H36 0.960 . S
C32 H37 0.960 . S
C32 H38 0.959 . S
H33 C29 0.960 . S
H34 C29 0.961 . S
H35 C29 0.960 . S
H36 C32 0.960 . S
H37 C32 0.960 . S
H38 C32 0.959 . S
C39 N40 1.317 . S
C39 N41 1.348 . S
C39 C42 1.485 . S
N40 C39 1.317 . S
N40 N44 1.370 . S
N41 C39 1.348 . S
N41 C43 1.346 . S
C42 C39 1.485 . S
C42 H46 0.960 . S
C42 H47 0.961 . S
C42 H48 0.960 . S
C43 N41 1.346 . S
C43 N44 1.307 . S
C43 C45 1.486 . S
N44 N40 1.370 . S
N44 C43 1.307 . S
C45 C43 1.486 . S
C45 H49 0.960 . S
C45 H50 0.960 1_455 S
C45 H51 0.959 . S
H46 C42 0.960 . S
H47 C42 0.961 . S
H48 C42 0.960 . S
H49 C45 0.960 . S
H50 C45 0.960 1_655 S
H51 C45 0.959 . S
C52 N53 1.317 . S
C52 N54 1.348 . S
C52 C55 1.485 . S
N53 C52 1.317 . S
N53 N57 1.370 . S
N54 C52 1.348 . S
N54 C56 1.346 . S
C55 C52 1.485 . S
C55 H59 0.960 . S
C55 H60 0.961 . S
C55 H61 0.960 . S
C56 N54 1.346 . S
C56 N57 1.307 . S
C56 C58 1.486 . S
N57 N53 1.370 . S
N57 C56 1.307 . S
C58 C56 1.486 . S
C58 H62 0.960 . S
C58 H63 0.960 . S
C58 H64 0.959 . S
H59 C55 0.960 . S
H60 C55 0.961 . S
H61 C55 0.960 . S
H62 C58 0.960 . S
H63 C58 0.960 . S
H64 C58 0.959 . S
C65 N66 1.317 . S
C65 N67 1.348 . S
C65 C68 1.485 . S
N66 C65 1.317 . S
N66 N70 1.370 . S
N67 C65 1.348 . S
N67 C69 1.346 . S
C68 C65 1.485 . S
C68 H72 0.960 . S
C68 H73 0.961 . S
C68 H74 0.960 . S
C69 N67 1.346 . S
C69 N70 1.307 . S
C69 C71 1.486 . S
N70 N66 1.370 . S
N70 C69 1.307 . S
C71 C69 1.486 . S
C71 H75 0.960 . S
C71 H76 0.960 . S
C71 H77 0.959 . S
H72 C68 0.960 . S
H73 C68 0.961 . S
H74 C68 0.960 . S
H75 C71 0.960 . S
H76 C71 0.960 . S
H77 C71 0.959 . S
C78 N79 1.317 . S
C78 N80 1.348 . S
C78 C81 1.485 . S
N79 C78 1.317 . S
N79 N83 1.370 . S
N80 C78 1.348 . S
N80 C82 1.346 . S
C81 C78 1.485 . S
C81 H85 0.960 . S
C81 H86 0.961 . S
C81 H87 0.960 . S
C82 N80 1.346 . S
C82 N83 1.307 . S
C82 C84 1.486 . S
N83 N79 1.370 . S
N83 C82 1.307 . S
C84 C82 1.486 . S
C84 H88 0.960 . S
C84 H89 0.960 . S
C84 H90 0.959 . S
H85 C81 0.960 . S
H86 C81 0.961 . S
H87 C81 0.960 . S
H88 C84 0.960 . S
H89 C84 0.960 . S
H90 C84 0.959 . S
C91 N92 1.317 . S
C91 N93 1.348 . S
C91 C94 1.485 . S
N92 C91 1.317 . S
N92 N96 1.370 . S
N93 C91 1.348 . S
N93 C95 1.346 . S
C94 C91 1.485 . S
C94 H98 0.960 . S
C94 H99 0.961 . S
C94 H100 0.960 . S
C95 N93 1.346 . S
C95 N96 1.307 . S
C95 C97 1.486 . S
N96 N92 1.370 . S
N96 C95 1.307 . S
C97 C95 1.486 . S
C97 H101 0.960 . S
C97 H102 0.960 . S
C97 H103 0.959 . S
H98 C94 0.960 . S
H99 C94 0.961 . S
H100 C94 0.960 . S
H101 C97 0.960 . S
H102 C97 0.960 . S
H103 C97 0.959 . S
C104 N105 1.317 . S
C104 N106 1.348 . S
C104 C107 1.485 . S
N105 C104 1.317 . S
N105 N109 1.370 . S
N106 C104 1.348 . S
N106 C108 1.346 . S
C107 C104 1.485 . S
C107 H111 0.960 . S
C107 H112 0.961 . S
C107 H113 0.960 . S
C108 N106 1.346 . S
C108 N109 1.307 . S
C108 C110 1.486 . S
N109 N105 1.370 . S
N109 C108 1.307 . S
C110 C108 1.486 . S
C110 H114 0.960 . S
C110 H115 0.960 . S
C110 H116 0.959 . S
H111 C107 0.960 . S
H112 C107 0.961 . S
H113 C107 0.960 . S
H114 C110 0.960 . S
H115 C110 0.960 . S
H116 C110 0.959 . S
C117 N118 1.317 . S
C117 N119 1.348 . S
C117 C120 1.483 . S
N118 C117 1.317 . S
N118 N122 1.370 . S
N119 C117 1.348 . S
N119 C121 1.346 . S
C120 C117 1.483 . S
C120 H124 0.961 1_556 S
C120 H125 0.962 1_556 S
C120 H126 0.960 1_556 S
C121 N119 1.346 . S
C121 N122 1.307 . S
C121 C123 1.486 . S
N122 N118 1.370 . S
N122 C121 1.307 . S
C123 C121 1.486 . S
C123 H127 0.960 . S
C123 H128 0.960 . S
C123 H129 0.959 . S
H124 C120 0.961 1_554 S
H125 C120 0.962 1_554 S
H126 C120 0.960 1_554 S
H127 C123 0.960 . S
H128 C123 0.960 . S
H129 C123 0.959 . S
C130 N131 1.317 . S
C130 N132 1.348 . S
C130 C133 1.485 1_556 S
N131 C130 1.317 . S
N131 N135 1.370 . S
N132 C130 1.348 . S
N132 C134 1.346 . S
C133 C130 1.485 1_554 S
C133 H137 0.960 . S
C133 H138 0.961 . S
C133 H139 0.960 . S
C134 N132 1.346 . S
C134 N135 1.307 . S
C134 C136 1.486 . S
N135 N131 1.370 . S
N135 C134 1.307 . S
C136 C134 1.486 . S
C136 H140 0.960 . S
C136 H141 0.960 . S
C136 H142 0.959 . S
H137 C133 0.960 . S
H138 C133 0.961 . S
H139 C133 0.960 . S
H140 C136 0.960 . S
H141 C136 0.960 . S
H142 C136 0.959 . S
C143 N144 1.317 . S
C143 N145 1.348 . S
C143 C146 1.485 1_556 S
N144 C143 1.317 . S
N144 N148 1.370 . S
N145 C143 1.348 . S
N145 C147 1.346 . S
C146 C143 1.485 1_554 S
C146 H150 0.960 . S
C146 H151 0.961 . S
C146 H152 0.960 . S
C147 N145 1.346 . S
C147 N148 1.307 . S
C147 C149 1.486 . S
N148 N144 1.370 . S
N148 C147 1.307 . S
C149 C147 1.486 . S
C149 H153 0.960 . S
C149 H154 0.960 . S
C149 H155 0.959 . S
H150 C146 0.960 . S
H151 C146 0.961 . S
H152 C146 0.960 . S
H153 C149 0.960 . S
H154 C149 0.960 . S
H155 C149 0.959 . S
C156 N157 1.317 . S
C156 N158 1.348 . S
C156 C159 1.485 . S
N157 C156 1.317 . S
N157 N161 1.370 . S
N158 C156 1.348 . S
N158 C160 1.346 . S
C159 C156 1.485 . S
C159 H163 0.960 . S
C159 H164 0.961 . S
C159 H165 0.960 . S
C160 N158 1.346 . S
C160 N161 1.307 . S
C160 C162 1.486 . S
N161 N157 1.370 . S
N161 C160 1.307 . S
C162 C160 1.486 . S
C162 H166 0.960 . S
C162 H167 0.960 . S
C162 H168 0.959 . S
H163 C159 0.960 . S
H164 C159 0.961 . S
H165 C159 0.960 . S
H166 C162 0.960 . S
H167 C162 0.960 . S
H168 C162 0.959 . S
C169 N170 1.317 . S
C169 N171 1.348 . S
C169 C172 1.485 . S
N170 C169 1.317 . S
N170 N174 1.370 . S
N171 C169 1.348 . S
N171 C173 1.346 . S
C172 C169 1.485 . S
C172 H176 0.960 . S
C172 H177 0.961 . S
C172 H178 0.960 . S
C173 N171 1.346 . S
C173 N174 1.307 . S
C173 C175 1.486 . S
N174 N170 1.370 . S
N174 C173 1.307 . S
C175 C173 1.486 . S
C175 H179 0.960 . S
C175 H180 0.960 . S
C175 H181 0.959 . S
H176 C172 0.960 . S
H177 C172 0.961 . S
H178 C172 0.960 . S
H179 C175 0.960 . S
H180 C175 0.960 . S
H181 C175 0.959 . S
C182 N183 1.317 . S
C182 N184 1.348 . S
C182 C185 1.485 . S
N183 C182 1.317 . S
N183 N187 1.370 . S
N184 C182 1.348 . S
N184 C186 1.346 . S
C185 C182 1.485 . S
C185 H189 0.960 . S
C185 H190 0.961 . S
C185 H191 0.960 . S
C186 N184 1.346 . S
C186 N187 1.307 . S
C186 C188 1.486 . S
N187 N183 1.370 . S
N187 C186 1.307 . S
C188 C186 1.486 . S
C188 H192 0.960 . S
C188 H193 0.960 . S
C188 H194 0.959 . S
H189 C185 0.960 . S
H190 C185 0.961 . S
H191 C185 0.960 . S
H192 C188 0.960 . S
H193 C188 0.960 . S
H194 C188 0.959 . S
C195 N196 1.317 . S
C195 N197 1.348 . S
C195 C198 1.485 . S
N196 C195 1.317 . S
N196 N200 1.370 . S
N197 C195 1.348 . S
N197 C199 1.346 . S
C198 C195 1.485 . S
C198 H202 0.960 . S
C198 H203 0.961 . S
C198 H204 0.960 . S
C199 N197 1.346 . S
C199 N200 1.307 . S
C199 C201 1.486 . S
N200 N196 1.370 . S
N200 C199 1.307 . S
C201 C199 1.486 . S
C201 H205 0.960 . S
C201 H206 0.960 . S
C201 H207 0.959 . S
H202 C198 0.960 . S
H203 C198 0.961 . S
H204 C198 0.960 . S
H205 C201 0.960 . S
H206 C201 0.960 . S
H207 C201 0.959 . S
C208 N209 1.317 . S
C208 N210 1.348 . S
C208 C211 1.485 . S
N209 C208 1.317 . S
N209 N213 1.370 . S
N210 C208 1.348 . S
N210 C212 1.346 . S
C211 C208 1.485 . S
C211 H215 0.960 . S
C211 H216 0.961 . S
C211 H217 0.960 . S
C212 N210 1.346 . S
C212 N213 1.307 . S
C212 C214 1.486 . S
N213 N209 1.370 . S
N213 C212 1.307 . S
C214 C212 1.486 . S
C214 H218 0.960 . S
C214 H219 0.960 . S
C214 H220 0.959 . S
H215 C211 0.960 . S
H216 C211 0.961 . S
H217 C211 0.960 . S
H218 C214 0.960 . S
H219 C214 0.960 . S
H220 C214 0.959 . S
C221 N222 1.317 . S
C221 N223 1.348 . S
C221 C224 1.485 . S
N222 C221 1.317 . S
N222 N226 1.370 . S
N223 C221 1.348 . S
N223 C225 1.346 . S
C224 C221 1.485 . S
C224 H228 0.960 . S
C224 H229 0.961 . S
C224 H230 0.960 . S
C225 N223 1.346 . S
C225 N226 1.307 . S
C225 C227 1.486 . S
N226 N222 1.370 . S
N226 C225 1.307 . S
C227 C225 1.486 . S
C227 H231 0.960 . S
C227 H232 0.960 . S
C227 H233 0.959 . S
H228 C224 0.960 . S
H229 C224 0.961 . S
H230 C224 0.960 . S
H231 C227 0.960 . S
H232 C227 0.960 . S
H233 C227 0.959 . S
Tb234 N265 2.660 . S
Tb234 N272 2.600 . S
Tb234 O278 2.546 . S
Tb234 O279 2.610 1_566 S
Tb234 O281 2.320 1_565 S
Tb234 O282 2.552 1_565 S
Tb234 O283 2.413 1_565 S
Tb234 O285 2.362 1_556 S
Tb234 O286 2.421 1_556 S
Tb234 C298 2.833 1_565 S
C235 C238 1.432 . S
C235 C239 1.414 . S
C235 N242 1.359 . S
C236 C238 1.417 . S
C236 C240 1.432 . S
C236 C248 1.410 . S
C237 C239 1.444 . S
C237 C240 1.317 . S
C237 H260 0.929 . S
C238 C235 1.432 . S
C238 C236 1.417 . S
C238 N246 1.360 . S
C239 C235 1.414 . S
C239 C237 1.444 . S
C239 C244 1.385 . S
C240 C236 1.432 . S
C240 C237 1.317 . S
C240 H252 0.930 . S
C241 C243 1.392 . S
C241 C244 1.370 . S
C241 H253 0.931 . S
N242 C235 1.359 . S
N242 C243 1.327 . S
N242 Tb245 2.600 . S
C243 C241 1.392 . S
C243 N242 1.327 . S
C243 H250 0.930 . S
C244 C239 1.385 . S
C244 C241 1.370 . S
C244 H263 0.930 . S
Tb245 N242 2.600 . S
Tb245 N246 2.660 . S
Tb245 O279 2.362 . S
Tb245 O280 2.421 . S
Tb245 O284 2.546 . S
Tb245 O285 2.610 1_545 S
Tb245 O287 2.320 1_545 S
Tb245 O288 2.552 1_545 S
Tb245 O289 2.413 1_545 S
Tb245 C309 2.833 1_545 S
N246 C238 1.360 . S
N246 Tb245 2.660 . S
N246 C247 1.305 . S
C247 N246 1.305 . S
C247 C249 1.407 . S
C247 H254 0.930 . S
C248 C236 1.410 . S
C248 C249 1.345 . S
C248 H256 0.930 . S
C249 C247 1.407 . S
C249 C248 1.345 . S
C249 H251 0.930 . S
H250 C243 0.930 . S
H251 C249 0.930 . S
H252 C240 0.930 . S
H253 C241 0.931 . S
H254 C247 0.930 . S
H255 C269 0.930 . S
H256 C248 0.930 . S
H257 C275 0.930 . S
H258 C266 0.930 1_545 S
H259 C273 0.931 . S
H260 C237 0.929 . S
H261 C267 0.930 . S
H262 C300 0.930 . S
H263 C244 0.930 . S
H264 C299 0.929 . S
N265 Tb234 2.660 . S
N265 C266 1.305 . S
N265 C270 1.360 . S
C266 H258 0.930 1_565 S
C266 N265 1.305 . S
C266 C269 1.407 . S
C267 H261 0.930 . S
C267 C268 1.410 . S
C267 C269 1.345 . S
C268 C267 1.410 . S
C268 C270 1.417 . S
C268 C300 1.432 . S
C269 H255 0.930 . S
C269 C266 1.407 . S
C269 C267 1.345 . S
C270 N265 1.360 . S
C270 C268 1.417 . S
C270 C274 1.432 . S
H271 C276 0.930 . S
N272 Tb234 2.600 . S
N272 C274 1.359 . S
N272 C275 1.327 . S
C273 H259 0.931 . S
C273 C275 1.392 . S
C273 C276 1.370 . S
C274 C270 1.432 . S
C274 N272 1.359 . S
C274 C277 1.414 . S
C275 H257 0.930 . S
C275 N272 1.327 . S
C275 C273 1.392 . S
C276 H271 0.930 . S
C276 C273 1.370 . S
C276 C277 1.385 . S
C277 C274 1.414 . S
C277 C276 1.385 . S
C277 C299 1.444 . S
O278 Tb234 2.546 . S
O278 C298 1.251 1_565 S
O279 Tb234 2.610 1_544 S
O279 Tb245 2.362 . S
O279 C290 1.276 1_554 S
O280 Tb245 2.421 . S
O280 C297 1.262 . S
O281 Tb234 2.320 1_545 S
O281 C297 1.260 1_556 S
O282 Tb234 2.552 1_545 S
O282 C290 1.252 . S
O283 Tb234 2.413 1_545 S
O283 C298 1.256 . S
O284 Tb245 2.546 . S
O284 C309 1.251 1_545 S
O285 Tb234 2.362 1_554 S
O285 Tb245 2.610 1_565 S
O285 C301 1.283 . S
O286 Tb234 2.421 1_554 S
O286 C308 1.262 . S
O287 Tb245 2.320 1_565 S
O287 C308 1.260 . S
O288 Tb245 2.552 1_565 S
O288 C301 1.243 . S
O289 Tb245 2.413 1_565 S
O289 C309 1.256 . S
C290 O279 1.276 1_556 S
C290 O282 1.252 . S
C291 C293 1.382 . S
C291 C295 1.393 . S
C291 C298 1.500 . S
C292 C293 1.400 . S
C292 C294 1.384 . S
C293 C291 1.382 . S
C293 C292 1.400 . S
C293 H310 0.930 . S
C294 C292 1.384 . S
C294 C296 1.392 . S
C294 H311 0.931 . S
C295 C291 1.393 . S
C295 C296 1.401 . S
C295 H312 0.930 1_545 S
C296 C294 1.392 . S
C296 C295 1.401 . S
C296 H313 0.930 . S
C297 O280 1.262 . S
C297 O281 1.260 1_554 S
C298 Tb234 2.833 1_545 S
C298 O278 1.251 1_545 S
C298 O283 1.256 . S
C298 C291 1.500 . S
C299 H264 0.929 . S
C299 C277 1.444 . S
C299 C300 1.317 . S
C300 H262 0.930 . S
C300 C268 1.432 . S
C300 C299 1.317 . S
C301 O285 1.283 . S
C301 O288 1.243 . S
C302 C303 1.382 . S
C302 C306 1.393 . S
C302 C309 1.500 . S
C303 C302 1.382 . S
C303 C304 1.400 . S
C303 H314 0.930 . S
C304 C303 1.400 . S
C304 C305 1.384 . S
C305 C304 1.384 . S
C305 C307 1.392 . S
C305 H315 0.931 . S
C306 C302 1.393 . S
C306 C307 1.401 . S
C306 H316 0.930 1_565 S
C307 C305 1.392 . S
C307 C306 1.401 . S
C307 H317 0.930 . S
C308 O286 1.262 . S
C308 O287 1.260 . S
C309 Tb245 2.833 1_565 S
C309 O284 1.251 1_565 S
C309 O289 1.256 . S
C309 C302 1.500 . S
H310 C293 0.930 . S
H311 C294 0.931 . S
H312 C295 0.930 1_565 S
H313 C296 0.930 . S
H314 C303 0.930 . S
H315 C305 0.931 . S
H316 C306 0.930 1_545 S
H317 C307 0.930 . S
Tb318 N349 2.660 . S
Tb318 N356 2.600 . S
Tb318 O362 2.546 . S
Tb318 O363 2.610 1_456 S
Tb318 O365 2.320 1_455 S
Tb318 O366 2.552 1_455 S
Tb318 O367 2.413 . S
Tb318 O369 2.362 1_556 S
Tb318 O370 2.421 . S
Tb318 C382 2.833 . S
C319 C322 1.432 . S
C319 C323 1.414 . S
C319 N326 1.359 . S
C320 C322 1.417 . S
C320 C324 1.432 . S
C320 C332 1.410 . S
C321 C323 1.444 . S
C321 C324 1.317 . S
C321 H344 0.929 . S
C322 C319 1.432 . S
C322 C320 1.417 . S
C322 N330 1.360 . S
C323 C319 1.414 . S
C323 C321 1.444 . S
C323 C328 1.385 . S
C324 C320 1.432 . S
C324 C321 1.317 . S
C324 H336 0.930 . S
C325 C327 1.392 . S
C325 C328 1.370 . S
C325 H337 0.931 . S
N326 C319 1.359 . S
N326 C327 1.327 . S
N326 Tb329 2.600 . S
C327 C325 1.392 . S
C327 N326 1.327 . S
C327 H334 0.930 . S
C328 C323 1.385 . S
C328 C325 1.370 . S
C328 H347 0.930 . S
Tb329 N326 2.600 . S
Tb329 N330 2.660 . S
Tb329 O363 2.362 . S
Tb329 O364 2.421 . S
Tb329 O368 2.546 . S
Tb329 O369 2.610 1_655 S
Tb329 O371 2.320 1_655 S
Tb329 O372 2.552 1_655 S
Tb329 O373 2.413 . S
Tb329 C393 2.833 . S
N330 C322 1.360 . S
N330 Tb329 2.660 . S
N330 C331 1.305 . S
C331 N330 1.305 . S
C331 C333 1.407 . S
C331 H338 0.930 . S
C332 C320 1.410 . S
C332 C333 1.345 . S
C332 H340 0.930 . S
C333 C331 1.407 . S
C333 C332 1.345 . S
C333 H335 0.930 . S
H334 C327 0.930 . S
H335 C333 0.930 . S
H336 C324 0.930 . S
H337 C325 0.931 . S
H338 C331 0.930 . S
H339 C353 0.930 . S
H340 C332 0.930 . S
H341 C359 0.930 . S
H342 C350 0.930 . S
H343 C357 0.931 . S
H344 C321 0.929 . S
H345 C351 0.930 . S
H346 C384 0.930 . S
H347 C328 0.930 . S
H348 C383 0.929 . S
N349 Tb318 2.660 . S
N349 C350 1.305 . S
N349 C354 1.360 . S
C350 H342 0.930 . S
C350 N349 1.305 . S
C350 C353 1.407 . S
C351 H345 0.930 . S
C351 C352 1.410 . S
C351 C353 1.345 . S
C352 C351 1.410 . S
C352 C354 1.417 . S
C352 C384 1.432 . S
C353 H339 0.930 . S
C353 C350 1.407 . S
C353 C351 1.345 . S
C354 N349 1.360 . S
C354 C352 1.417 . S
C354 C358 1.432 . S
H355 C360 0.930 . S
N356 Tb318 2.600 . S
N356 C358 1.359 . S
N356 C359 1.327 . S
C357 H343 0.931 . S
C357 C359 1.392 . S
C357 C360 1.370 . S
C358 C354 1.432 . S
C358 N356 1.359 . S
C358 C361 1.414 . S
C359 H341 0.930 . S
C359 N356 1.327 . S
C359 C357 1.392 . S
C360 H355 0.930 . S
C360 C357 1.370 . S
C360 C361 1.385 . S
C361 C358 1.414 . S
C361 C360 1.385 . S
C361 C383 1.444 . S
O362 Tb318 2.546 . S
O362 C382 1.251 . S
O363 Tb318 2.610 1_654 S
O363 Tb329 2.362 . S
O363 C374 1.283 1_554 S
O364 Tb329 2.421 . S
O364 C381 1.262 . S
O365 Tb318 2.320 1_655 S
O365 C381 1.260 1_556 S
O366 Tb318 2.552 1_655 S
O366 C374 1.243 . S
O367 Tb318 2.413 . S
O367 C382 1.256 . S
O368 Tb329 2.546 . S
O368 C393 1.251 . S
O369 Tb318 2.362 1_554 S
O369 Tb329 2.610 1_455 S
O369 C385 1.283 . S
O370 Tb318 2.421 . S
O370 C392 1.262 1_556 S
O371 Tb329 2.320 1_455 S
O371 C392 1.260 . S
O372 Tb329 2.552 1_455 S
O372 C385 1.243 . S
O373 Tb329 2.413 . S
O373 C393 1.256 . S
C374 O363 1.283 1_556 S
C374 O366 1.243 . S
C375 C377 1.382 1_455 S
C375 C379 1.393 . S
C375 C382 1.500 . S
C376 C377 1.400 . S
C376 C378 1.384 1_655 S
C377 C375 1.382 1_655 S
C377 C376 1.400 . S
C377 H394 0.930 . S
C378 C376 1.384 1_455 S
C378 C380 1.392 . S
C378 H395 0.931 . S
C379 C375 1.393 . S
C379 C380 1.401 . S
C379 H396 0.930 . S
C380 C378 1.392 . S
C380 C379 1.401 . S
C380 H397 0.930 . S
C381 O364 1.262 . S
C381 O365 1.260 1_554 S
C382 Tb318 2.833 . S
C382 O362 1.251 . S
C382 O367 1.256 . S
C382 C375 1.500 . S
C383 H348 0.929 . S
C383 C361 1.444 . S
C383 C384 1.317 . S
C384 H346 0.930 . S
C384 C352 1.432 . S
C384 C383 1.317 . S
C385 O369 1.283 . S
C385 O372 1.243 . S
C386 C387 1.382 1_655 S
C386 C390 1.393 . S
C386 C393 1.500 . S
C387 C386 1.382 1_455 S
C387 C388 1.400 . S
C387 H398 0.930 . S
C388 C387 1.400 . S
C388 C389 1.384 . S
C389 C388 1.384 . S
C389 C391 1.392 1_455 S
C389 H399 0.931 . S
C390 C386 1.393 . S
C390 C391 1.401 . S
C390 H400 0.930 . S
C391 C389 1.392 1_655 S
C391 C390 1.401 . S
C391 H401 0.930 . S
C392 O370 1.262 1_554 S
C392 O371 1.260 . S
C393 Tb329 2.833 . S
C393 O368 1.251 . S
C393 O373 1.256 . S
C393 C386 1.500 . S
H394 C377 0.930 . S
H395 C378 0.931 . S
H396 C379 0.930 . S
H397 C380 0.930 . S
H398 C387 0.930 . S
H399 C389 0.931 . S
H400 C390 0.930 . S
H401 C391 0.930 . S
Tb402 N433 2.660 . S
Tb402 N440 2.600 . S
Tb402 O446 2.546 . S
Tb402 O447 2.610 . S
Tb402 O449 2.320 . S
Tb402 O450 2.552 . S
Tb402 O451 2.413 . S
Tb402 O453 2.362 . S
Tb402 O454 2.421 . S
Tb402 C466 2.833 . S
C403 C406 1.432 . S
C403 C407 1.414 . S
C403 N410 1.359 . S
C404 C406 1.417 . S
C404 C408 1.432 . S
C404 C416 1.410 . S
C405 C407 1.444 . S
C405 C408 1.317 . S
C405 H428 0.929 . S
C406 C403 1.432 . S
C406 C404 1.417 . S
C406 N414 1.360 . S
C407 C403 1.414 . S
C407 C405 1.444 . S
C407 C412 1.385 . S
C408 C404 1.432 . S
C408 C405 1.317 . S
C408 H420 0.930 . S
C409 C411 1.392 . S
C409 C412 1.370 . S
C409 H421 0.931 . S
N410 C403 1.359 . S
N410 C411 1.327 . S
N410 Tb413 2.600 . S
C411 C409 1.392 . S
C411 N410 1.327 . S
C411 H418 0.930 . S
C412 C407 1.385 . S
C412 C409 1.370 . S
C412 H431 0.930 . S
Tb413 N410 2.600 . S
Tb413 N414 2.660 . S
Tb413 O447 2.362 1_556 S
Tb413 O448 2.421 1_556 S
Tb413 O452 2.546 . S
Tb413 O453 2.610 1_556 S
Tb413 O455 2.320 1_556 S
Tb413 O456 2.552 . S
Tb413 O457 2.413 . S
Tb413 C477 2.833 . S
N414 C406 1.360 . S
N414 Tb413 2.660 . S
N414 C415 1.305 . S
C415 N414 1.305 . S
C415 C417 1.407 . S
C415 H422 0.930 1_556 S
C416 C404 1.410 . S
C416 C417 1.345 . S
C416 H424 0.930 . S
C417 C415 1.407 . S
C417 C416 1.345 . S
C417 H419 0.930 1_556 S
H418 C411 0.930 . S
H419 C417 0.930 1_554 S
H420 C408 0.930 . S
H421 C409 0.931 . S
H422 C415 0.930 1_554 S
H423 C437 0.930 . S
H424 C416 0.930 . S
H425 C443 0.930 . S
H426 C434 0.930 . S
H427 C441 0.931 . S
H428 C405 0.929 . S
H429 C435 0.930 . S
H430 C468 0.930 . S
H431 C412 0.930 . S
H432 C467 0.929 . S
N433 Tb402 2.660 . S
N433 C434 1.305 . S
N433 C438 1.360 . S
C434 H426 0.930 . S
C434 N433 1.305 . S
C434 C437 1.407 . S
C435 H429 0.930 . S
C435 C436 1.410 . S
C435 C437 1.345 . S
C436 C435 1.410 . S
C436 C438 1.417 . S
C436 C468 1.432 . S
C437 H423 0.930 . S
C437 C434 1.407 . S
C437 C435 1.345 . S
C438 N433 1.360 . S
C438 C436 1.417 . S
C438 C442 1.432 . S
H439 C444 0.930 . S
N440 Tb402 2.600 . S
N440 C442 1.359 . S
N440 C443 1.327 . S
C441 H427 0.931 . S
C441 C443 1.392 . S
C441 C444 1.370 . S
C442 C438 1.432 . S
C442 N440 1.359 . S
C442 C445 1.414 . S
C443 H425 0.930 . S
C443 N440 1.327 . S
C443 C441 1.392 . S
C444 H439 0.930 . S
C444 C441 1.370 . S
C444 C445 1.385 . S
C445 C442 1.414 . S
C445 C444 1.385 . S
C445 C467 1.444 . S
O446 Tb402 2.546 . S
O446 C466 1.251 . S
O447 Tb402 2.610 . S
O447 Tb413 2.362 1_554 S
O447 C458 1.283 . S
O448 Tb413 2.421 1_554 S
O448 C465 1.262 . S
O449 Tb402 2.320 . S
O449 C465 1.260 . S
O450 Tb402 2.552 . S
O450 C458 1.243 . S
O451 Tb402 2.413 . S
O451 C466 1.256 . S
O452 Tb413 2.546 . S
O452 C477 1.251 . S
O453 Tb402 2.362 . S
O453 Tb413 2.610 1_554 S
O453 C469 1.283 . S
O454 Tb402 2.421 . S
O454 C476 1.262 . S
O455 Tb413 2.320 1_554 S
O455 C476 1.260 . S
O456 Tb413 2.552 . S
O456 C469 1.243 1_556 S
O457 Tb413 2.413 . S
O457 C477 1.256 . S
C458 O447 1.283 . S
C458 O450 1.243 . S
C459 C461 1.382 . S
C459 C463 1.393 . S
C459 C466 1.500 . S
C460 C461 1.400 . S
C460 C462 1.384 . S
C461 C459 1.382 . S
C461 C460 1.400 . S
C461 H478 0.930 . S
C462 C460 1.384 . S
C462 C464 1.392 . S
C462 H479 0.931 . S
C463 C459 1.393 . S
C463 C464 1.401 . S
C463 H480 0.930 . S
C464 C462 1.392 . S
C464 C463 1.401 . S
C464 H481 0.930 . S
C465 O448 1.262 . S
C465 O449 1.260 . S
C466 Tb402 2.833 . S
C466 O446 1.251 . S
C466 O451 1.256 . S
C466 C459 1.500 . S
C467 H432 0.929 . S
C467 C445 1.444 . S
C467 C468 1.317 . S
C468 H430 0.930 . S
C468 C436 1.432 . S
C468 C467 1.317 . S
C469 O453 1.283 . S
C469 O456 1.243 1_554 S
C470 C471 1.382 . S
C470 C474 1.393 . S
C470 C477 1.500 . S
C471 C470 1.382 . S
C471 C472 1.400 . S
C471 H482 0.930 . S
C472 C471 1.400 . S
C472 C473 1.384 . S
C473 C472 1.384 . S
C473 C475 1.392 . S
C473 H483 0.931 . S
C474 C470 1.393 . S
C474 C475 1.401 . S
C474 H484 0.930 . S
C475 C473 1.392 . S
C475 C474 1.401 . S
C475 H485 0.930 . S
C476 O454 1.262 . S
C476 O455 1.260 . S
C477 Tb413 2.833 . S
C477 O452 1.251 . S
C477 O457 1.256 . S
C477 C470 1.500 . S
H478 C461 0.930 . S
H479 C462 0.931 . S
H480 C463 0.930 . S
H481 C464 0.930 . S
H482 C471 0.930 . S
H483 C473 0.931 . S
H484 C474 0.930 . S
H485 C475 0.930 . S
Tb486 N517 2.660 . S
Tb486 N524 2.600 . S
Tb486 O530 2.546 . S
Tb486 O531 2.610 . S
Tb486 O533 2.320 . S
Tb486 O534 2.552 . S
Tb486 O535 2.413 . S
Tb486 O537 2.362 . S
Tb486 O538 2.421 . S
Tb486 C550 2.833 . S
C487 C490 1.432 . S
C487 C491 1.414 . S
C487 N494 1.359 . S
C488 C490 1.417 . S
C488 C492 1.432 . S
C488 C500 1.410 . S
C489 C491 1.444 . S
C489 C492 1.317 . S
C489 H512 0.929 . S
C490 C487 1.432 . S
C490 C488 1.417 . S
C490 N498 1.360 . S
C491 C487 1.414 . S
C491 C489 1.444 . S
C491 C496 1.385 . S
C492 C488 1.432 . S
C492 C489 1.317 . S
C492 H504 0.930 . S
C493 C495 1.392 . S
C493 C496 1.370 . S
C493 H505 0.931 . S
N494 C487 1.359 . S
N494 C495 1.327 . S
N494 Tb497 2.600 . S
C495 C493 1.392 . S
C495 N494 1.327 . S
C495 H502 0.930 . S
C496 C491 1.385 . S
C496 C493 1.370 . S
C496 H515 0.930 . S
Tb497 N494 2.600 . S
Tb497 N498 2.660 . S
Tb497 O531 2.362 . S
Tb497 O532 2.421 . S
Tb497 O536 2.546 . S
Tb497 O537 2.610 . S
Tb497 O539 2.320 . S
Tb497 O540 2.552 . S
Tb497 O541 2.413 . S
Tb497 C561 2.833 . S
N498 C490 1.360 . S
N498 Tb497 2.660 . S
N498 C499 1.305 . S
C499 N498 1.305 . S
C499 C501 1.407 . S
C499 H506 0.930 . S
C500 C488 1.410 . S
C500 C501 1.345 . S
C500 H508 0.930 . S
C501 C499 1.407 . S
C501 C500 1.345 . S
C501 H503 0.930 . S
H502 C495 0.930 . S
H503 C501 0.930 . S
H504 C492 0.930 . S
H505 C493 0.931 . S
H506 C499 0.930 . S
H507 C521 0.930 . S
H508 C500 0.930 . S
H509 C527 0.930 . S
H510 C518 0.930 . S
H511 C525 0.931 . S
H512 C489 0.929 . S
H513 C519 0.930 . S
H514 C552 0.930 . S
H515 C496 0.930 . S
H516 C551 0.929 . S
N517 Tb486 2.660 . S
N517 C518 1.305 . S
N517 C522 1.360 . S
C518 H510 0.930 . S
C518 N517 1.305 . S
C518 C521 1.407 . S
C519 H513 0.930 . S
C519 C520 1.410 . S
C519 C521 1.345 . S
C520 C519 1.410 . S
C520 C522 1.417 . S
C520 C552 1.432 . S
C521 H507 0.930 . S
C521 C518 1.407 . S
C521 C519 1.345 . S
C522 N517 1.360 . S
C522 C520 1.417 . S
C522 C526 1.432 . S
H523 C528 0.930 . S
N524 Tb486 2.600 . S
N524 C526 1.359 . S
N524 C527 1.327 . S
C525 H511 0.931 . S
C525 C527 1.392 . S
C525 C528 1.370 . S
C526 C522 1.432 . S
C526 N524 1.359 . S
C526 C529 1.414 . S
C527 H509 0.930 . S
C527 N524 1.327 . S
C527 C525 1.392 . S
C528 H523 0.930 . S
C528 C525 1.370 . S
C528 C529 1.385 . S
C529 C526 1.414 . S
C529 C528 1.385 . S
C529 C551 1.444 . S
O530 Tb486 2.546 . S
O530 C550 1.251 . S
O531 Tb486 2.610 . S
O531 Tb497 2.362 . S
O531 C542 1.283 . S
O532 Tb497 2.421 . S
O532 C549 1.262 . S
O533 Tb486 2.320 . S
O533 C549 1.260 . S
O534 Tb486 2.552 . S
O534 C542 1.243 . S
O535 Tb486 2.413 . S
O535 C550 1.256 . S
O536 Tb497 2.546 . S
O536 C561 1.251 . S
O537 Tb486 2.362 . S
O537 Tb497 2.610 . S
O537 C553 1.283 . S
O538 Tb486 2.421 . S
O538 C560 1.262 . S
O539 Tb497 2.320 . S
O539 C560 1.260 . S
O540 Tb497 2.552 . S
O540 C553 1.243 . S
O541 Tb497 2.413 . S
O541 C561 1.256 . S
C542 O531 1.283 . S
C542 O534 1.243 . S
C543 C545 1.382 . S
C543 C547 1.393 . S
C543 C550 1.500 . S
C544 C545 1.400 . S
C544 C546 1.384 . S
C545 C543 1.382 . S
C545 C544 1.400 . S
C545 H562 0.930 . S
C546 C544 1.384 . S
C546 C548 1.392 . S
C546 H563 0.931 . S
C547 C543 1.393 . S
C547 C548 1.401 . S
C547 H564 0.930 . S
C548 C546 1.392 . S
C548 C547 1.401 . S
C548 H565 0.930 . S
C549 O532 1.262 . S
C549 O533 1.260 . S
C550 Tb486 2.833 . S
C550 O530 1.251 . S
C550 O535 1.256 . S
C550 C543 1.500 . S
C551 H516 0.929 . S
C551 C529 1.444 . S
C551 C552 1.317 . S
C552 H514 0.930 . S
C552 C520 1.432 . S
C552 C551 1.317 . S
C553 O537 1.283 . S
C553 O540 1.243 . S
C554 C555 1.382 . S
C554 C558 1.393 . S
C554 C561 1.500 . S
C555 C554 1.382 . S
C555 C556 1.400 . S
C555 H566 0.930 . S
C556 C555 1.400 . S
C556 C557 1.384 . S
C557 C556 1.384 . S
C557 C559 1.392 . S
C557 H567 0.931 . S
C558 C554 1.393 . S
C558 C559 1.401 . S
C558 H568 0.930 . S
C559 C557 1.392 . S
C559 C558 1.401 . S
C559 H569 0.930 . S
C560 O538 1.262 . S
C560 O539 1.260 . S
C561 Tb497 2.833 . S
C561 O536 1.251 . S
C561 O541 1.256 . S
C561 C554 1.500 . S
H562 C545 0.930 . S
H563 C546 0.931 . S
H564 C547 0.930 . S
H565 C548 0.930 . S
H566 C555 0.930 . S
H567 C557 0.931 . S
H568 C558 0.930 . S
H569 C559 0.930 . S
Tb570 N601 2.660 . S
Tb570 N608 2.600 . S
Tb570 O614 2.546 . S
Tb570 O615 2.610 . S
Tb570 O617 2.320 . S
Tb570 O618 2.552 . S
Tb570 O619 2.413 . S
Tb570 O621 2.362 . S
Tb570 O622 2.421 . S
Tb570 C634 2.833 . S
C571 C574 1.432 . S
C571 C575 1.414 . S
C571 N578 1.359 . S
C572 C574 1.417 . S
C572 C576 1.432 . S
C572 C584 1.410 . S
C573 C575 1.444 . S
C573 C576 1.317 . S
C573 H596 0.929 . S
C574 C571 1.432 . S
C574 C572 1.417 . S
C574 N582 1.360 . S
C575 C571 1.414 . S
C575 C573 1.444 . S
C575 C580 1.385 . S
C576 C572 1.432 . S
C576 C573 1.317 . S
C576 H588 0.930 . S
C577 C579 1.392 . S
C577 C580 1.370 . S
C577 H589 0.931 . S
N578 C571 1.359 . S
N578 C579 1.327 . S
N578 Tb581 2.600 . S
C579 C577 1.392 . S
C579 N578 1.327 . S
C579 H586 0.930 . S
C580 C575 1.385 . S
C580 C577 1.370 . S
C580 H599 0.930 . S
Tb581 N578 2.600 . S
Tb581 N582 2.660 . S
Tb581 O615 2.362 . S
Tb581 O616 2.421 . S
Tb581 O620 2.546 . S
Tb581 O621 2.610 . S
Tb581 O623 2.320 . S
Tb581 O624 2.552 . S
Tb581 O625 2.413 . S
Tb581 C645 2.833 . S
N582 C574 1.360 . S
N582 Tb581 2.660 . S
N582 C583 1.305 . S
C583 N582 1.305 . S
C583 C585 1.407 . S
C583 H590 0.930 . S
C584 C572 1.410 . S
C584 C585 1.345 . S
C584 H592 0.930 . S
C585 C583 1.407 . S
C585 C584 1.345 . S
C585 H587 0.930 . S
H586 C579 0.930 . S
H587 C585 0.930 . S
H588 C576 0.930 . S
H589 C577 0.931 . S
H590 C583 0.930 . S
H591 C605 0.930 . S
H592 C584 0.930 . S
H593 C611 0.930 . S
H594 C602 0.930 . S
H595 C609 0.931 . S
H596 C573 0.929 . S
H597 C603 0.930 . S
H598 C636 0.930 . S
H599 C580 0.930 . S
H600 C635 0.929 . S
N601 Tb570 2.660 . S
N601 C602 1.305 . S
N601 C606 1.360 . S
C602 H594 0.930 . S
C602 N601 1.305 . S
C602 C605 1.407 . S
C603 H597 0.930 . S
C603 C604 1.410 . S
C603 C605 1.345 . S
C604 C603 1.410 . S
C604 C606 1.417 . S
C604 C636 1.432 . S
C605 H591 0.930 . S
C605 C602 1.407 . S
C605 C603 1.345 . S
C606 N601 1.360 . S
C606 C604 1.417 . S
C606 C610 1.432 . S
H607 C612 0.930 . S
N608 Tb570 2.600 . S
N608 C610 1.359 . S
N608 C611 1.327 . S
C609 H595 0.931 . S
C609 C611 1.392 . S
C609 C612 1.370 . S
C610 C606 1.432 . S
C610 N608 1.359 . S
C610 C613 1.414 . S
C611 H593 0.930 . S
C611 N608 1.327 . S
C611 C609 1.392 . S
C612 H607 0.930 . S
C612 C609 1.370 . S
C612 C613 1.385 . S
C613 C610 1.414 . S
C613 C612 1.385 . S
C613 C635 1.444 . S
O614 Tb570 2.546 . S
O614 C634 1.251 . S
O615 Tb570 2.610 . S
O615 Tb581 2.362 . S
O615 C626 1.283 . S
O616 Tb581 2.421 . S
O616 C633 1.262 . S
O617 Tb570 2.320 . S
O617 C633 1.260 . S
O618 Tb570 2.552 . S
O618 C626 1.243 . S
O619 Tb570 2.413 . S
O619 C634 1.256 . S
O620 Tb581 2.546 . S
O620 C645 1.251 . S
O621 Tb570 2.362 . S
O621 Tb581 2.610 . S
O621 C637 1.283 . S
O622 Tb570 2.421 . S
O622 C644 1.262 . S
O623 Tb581 2.320 . S
O623 C644 1.260 . S
O624 Tb581 2.552 . S
O624 C637 1.243 . S
O625 Tb581 2.413 . S
O625 C645 1.256 . S
C626 O615 1.283 . S
C626 O618 1.243 . S
C627 C629 1.382 . S
C627 C631 1.393 . S
C627 C634 1.500 . S
C628 C629 1.400 . S
C628 C630 1.384 . S
C629 C627 1.382 . S
C629 C628 1.400 . S
C629 H646 0.930 . S
C630 C628 1.384 . S
C630 C632 1.392 . S
C630 H647 0.931 . S
C631 C627 1.393 . S
C631 C632 1.401 . S
C631 H648 0.930 . S
C632 C630 1.392 . S
C632 C631 1.401 . S
C632 H649 0.930 . S
C633 O616 1.262 . S
C633 O617 1.260 . S
C634 Tb570 2.833 . S
C634 O614 1.251 . S
C634 O619 1.256 . S
C634 C627 1.500 . S
C635 H600 0.929 . S
C635 C613 1.444 . S
C635 C636 1.317 . S
C636 H598 0.930 . S
C636 C604 1.432 . S
C636 C635 1.317 . S
C637 O621 1.283 . S
C637 O624 1.243 . S
C638 C639 1.382 . S
C638 C642 1.393 . S
C638 C645 1.500 . S
C639 C638 1.382 . S
C639 C640 1.400 . S
C639 H650 0.930 . S
C640 C639 1.400 . S
C640 C641 1.384 . S
C641 C640 1.384 . S
C641 C643 1.392 . S
C641 H651 0.931 . S
C642 C638 1.393 . S
C642 C643 1.401 . S
C642 H652 0.930 . S
C643 C641 1.392 . S
C643 C642 1.401 . S
C643 H653 0.930 . S
C644 O622 1.262 . S
C644 O623 1.260 . S
C645 Tb581 2.833 . S
C645 O620 1.251 . S
C645 O625 1.256 . S
C645 C638 1.500 . S
H646 C629 0.930 . S
H647 C630 0.931 . S
H648 C631 0.930 . S
H649 C632 0.930 . S
H650 C639 0.930 . S
H651 C641 0.931 . S
H652 C642 0.930 . S
H653 C643 0.930 . S
Tb654 N685 2.660 . S
Tb654 N692 2.600 . S
Tb654 O698 2.546 . S
Tb654 O699 2.610 . S
Tb654 O701 2.320 . S
Tb654 O702 2.552 . S
Tb654 O703 2.413 . S
Tb654 O705 2.362 . S
Tb654 O706 2.421 . S
Tb654 C718 2.833 . S
C655 C658 1.432 . S
C655 C659 1.414 . S
C655 N662 1.359 . S
C656 C658 1.417 . S
C656 C660 1.432 . S
C656 C668 1.410 . S
C657 C659 1.444 . S
C657 C660 1.317 . S
C657 H680 0.929 . S
C658 C655 1.432 . S
C658 C656 1.417 . S
C658 N666 1.360 . S
C659 C655 1.414 . S
C659 C657 1.444 . S
C659 C664 1.385 . S
C660 C656 1.432 . S
C660 C657 1.317 . S
C660 H672 0.930 1_455 S
C661 C663 1.392 . S
C661 C664 1.370 . S
C661 H673 0.931 . S
N662 C655 1.359 . S
N662 C663 1.327 . S
N662 Tb665 2.600 . S
C663 C661 1.392 . S
C663 N662 1.327 . S
C663 H670 0.930 . S
C664 C659 1.385 . S
C664 C661 1.370 . S
C664 H683 0.930 . S
Tb665 N662 2.600 . S
Tb665 N666 2.660 . S
Tb665 O699 2.362 . S
Tb665 O700 2.421 . S
Tb665 O704 2.546 . S
Tb665 O705 2.610 . S
Tb665 O707 2.320 . S
Tb665 O708 2.552 . S
Tb665 O709 2.413 . S
Tb665 C729 2.833 . S
N666 C658 1.360 . S
N666 Tb665 2.660 . S
N666 C667 1.305 . S
C667 N666 1.305 . S
C667 C669 1.407 . S
C667 H674 0.930 . S
C668 C656 1.410 . S
C668 C669 1.345 . S
C668 H676 0.930 1_455 S
C669 C667 1.407 . S
C669 C668 1.345 . S
C669 H671 0.930 . S
H670 C663 0.930 . S
H671 C669 0.930 . S
H672 C660 0.930 1_655 S
H673 C661 0.931 . S
H674 C667 0.930 . S
H675 C689 0.930 . S
H676 C668 0.930 1_655 S
H677 C695 0.930 . S
H678 C686 0.930 . S
H679 C693 0.931 . S
H680 C657 0.929 . S
H681 C687 0.930 . S
H682 C720 0.930 . S
H683 C664 0.930 . S
H684 C719 0.929 . S
N685 Tb654 2.660 . S
N685 C686 1.305 . S
N685 C690 1.360 . S
C686 H678 0.930 . S
C686 N685 1.305 . S
C686 C689 1.407 . S
C687 H681 0.930 . S
C687 C688 1.410 . S
C687 C689 1.345 . S
C688 C687 1.410 . S
C688 C690 1.417 . S
C688 C720 1.432 . S
C689 H675 0.930 . S
C689 C686 1.407 . S
C689 C687 1.345 . S
C690 N685 1.360 . S
C690 C688 1.417 . S
C690 C694 1.432 . S
H691 C696 0.930 . S
N692 Tb654 2.600 . S
N692 C694 1.359 . S
N692 C695 1.327 . S
C693 H679 0.931 . S
C693 C695 1.392 . S
C693 C696 1.370 . S
C694 C690 1.432 . S
C694 N692 1.359 . S
C694 C697 1.414 . S
C695 H677 0.930 . S
C695 N692 1.327 . S
C695 C693 1.392 . S
C696 H691 0.930 . S
C696 C693 1.370 . S
C696 C697 1.385 . S
C697 C694 1.414 . S
C697 C696 1.385 . S
C697 C719 1.444 . S
O698 Tb654 2.546 . S
O698 C718 1.251 . S
O699 Tb654 2.610 . S
O699 Tb665 2.362 . S
O699 C710 1.283 . S
O700 Tb665 2.421 . S
O700 C717 1.262 . S
O701 Tb654 2.320 . S
O701 C717 1.260 . S
O702 Tb654 2.552 . S
O702 C710 1.243 . S
O703 Tb654 2.413 . S
O703 C718 1.256 . S
O704 Tb665 2.546 . S
O704 C729 1.251 . S
O705 Tb654 2.362 . S
O705 Tb665 2.610 . S
O705 C721 1.283 . S
O706 Tb654 2.421 . S
O706 C728 1.262 . S
O707 Tb665 2.320 . S
O707 C728 1.260 . S
O708 Tb665 2.552 . S
O708 C721 1.243 . S
O709 Tb665 2.413 . S
O709 C729 1.256 . S
C710 O699 1.283 . S
C710 O702 1.243 . S
C711 C713 1.382 . S
C711 C715 1.393 . S
C711 C718 1.500 . S
C712 C713 1.400 . S
C712 C714 1.384 . S
C713 C711 1.382 . S
C713 C712 1.400 . S
C713 H730 0.930 . S
C714 C712 1.384 . S
C714 C716 1.392 . S
C714 H731 0.931 . S
C715 C711 1.393 . S
C715 C716 1.401 . S
C715 H732 0.930 . S
C716 C714 1.392 . S
C716 C715 1.401 . S
C716 H733 0.930 . S
C717 O700 1.262 . S
C717 O701 1.260 . S
C718 Tb654 2.833 . S
C718 O698 1.251 . S
C718 O703 1.256 . S
C718 C711 1.500 . S
C719 H684 0.929 . S
C719 C697 1.444 . S
C719 C720 1.317 . S
C720 H682 0.930 . S
C720 C688 1.432 . S
C720 C719 1.317 . S
C721 O705 1.283 . S
C721 O708 1.243 . S
C722 C723 1.382 . S
C722 C726 1.393 . S
C722 C729 1.500 . S
C723 C722 1.382 . S
C723 C724 1.400 . S
C723 H734 0.930 . S
C724 C723 1.400 . S
C724 C725 1.384 . S
C725 C724 1.384 . S
C725 C727 1.392 . S
C725 H735 0.931 . S
C726 C722 1.393 . S
C726 C727 1.401 . S
C726 H736 0.930 . S
C727 C725 1.392 . S
C727 C726 1.401 . S
C727 H737 0.930 . S
C728 O706 1.262 . S
C728 O707 1.260 . S
C729 Tb665 2.833 . S
C729 O704 1.251 . S
C729 O709 1.256 . S
C729 C722 1.500 . S
H730 C713 0.930 . S
H731 C714 0.931 . S
H732 C715 0.930 . S
H733 C716 0.930 . S
H734 C723 0.930 . S
H735 C725 0.931 . S
H736 C726 0.930 . S
H737 C727 0.930 . S
Tb738 N769 2.660 . S
Tb738 N776 2.600 . S
Tb738 O782 2.546 . S
Tb738 O783 2.610 . S
Tb738 O785 2.320 . S
Tb738 O786 2.552 . S
Tb738 O787 2.413 . S
Tb738 O789 2.362 . S
Tb738 O790 2.421 . S
Tb738 C802 2.833 . S
C739 C742 1.432 . S
C739 C743 1.414 . S
C739 N746 1.359 . S
C740 C742 1.417 . S
C740 C744 1.432 1_655 S
C740 C752 1.410 1_655 S
C741 C743 1.444 . S
C741 C744 1.316 1_655 S
C741 H764 0.929 . S
C742 C739 1.432 . S
C742 C740 1.417 . S
C742 N750 1.360 . S
C743 C739 1.414 . S
C743 C741 1.444 . S
C743 C748 1.385 . S
C744 C740 1.432 1_455 S
C744 C741 1.316 1_455 S
C744 H756 0.931 . S
C745 C747 1.392 . S
C745 C748 1.370 . S
C745 H757 0.931 . S
N746 C739 1.359 . S
N746 C747 1.327 . S
N746 Tb749 2.600 . S
C747 C745 1.392 . S
C747 N746 1.327 . S
C747 H754 0.930 . S
C748 C743 1.385 . S
C748 C745 1.370 . S
C748 H767 0.930 . S
Tb749 N746 2.600 . S
Tb749 N750 2.660 . S
Tb749 O783 2.362 . S
Tb749 O784 2.421 . S
Tb749 O788 2.546 . S
Tb749 O789 2.610 . S
Tb749 O791 2.320 . S
Tb749 O792 2.552 . S
Tb749 O793 2.413 . S
Tb749 C813 2.833 . S
N750 C742 1.360 . S
N750 Tb749 2.660 . S
N750 C751 1.305 . S
C751 N750 1.305 . S
C751 C753 1.407 . S
C751 H758 0.930 . S
C752 C740 1.410 1_455 S
C752 C753 1.345 1_455 S
C752 H760 0.930 . S
C753 C751 1.407 . S
C753 C752 1.345 1_655 S
C753 H755 0.930 1_655 S
H754 C747 0.930 . S
H755 C753 0.930 1_455 S
H756 C744 0.931 . S
H757 C745 0.931 . S
H758 C751 0.930 . S
H759 C773 0.930 . S
H760 C752 0.930 . S
H761 C779 0.930 . S
H762 C770 0.930 . S
H763 C777 0.931 . S
H764 C741 0.929 . S
H765 C771 0.930 . S
H766 C804 0.930 . S
H767 C748 0.930 . S
H768 C803 0.929 . S
N769 Tb738 2.660 . S
N769 C770 1.305 . S
N769 C774 1.360 . S
C770 H762 0.930 . S
C770 N769 1.305 . S
C770 C773 1.407 . S
C771 H765 0.930 . S
C771 C772 1.410 . S
C771 C773 1.345 . S
C772 C771 1.410 . S
C772 C774 1.417 . S
C772 C804 1.432 . S
C773 H759 0.930 . S
C773 C770 1.407 . S
C773 C771 1.345 . S
C774 N769 1.360 . S
C774 C772 1.417 . S
C774 C778 1.432 . S
H775 C780 0.930 . S
N776 Tb738 2.600 . S
N776 C778 1.359 . S
N776 C779 1.327 . S
C777 H763 0.931 . S
C777 C779 1.392 . S
C777 C780 1.370 . S
C778 C774 1.432 . S
C778 N776 1.359 . S
C778 C781 1.414 . S
C779 H761 0.930 . S
C779 N776 1.327 . S
C779 C777 1.392 . S
C780 H775 0.930 . S
C780 C777 1.370 . S
C780 C781 1.385 . S
C781 C778 1.414 . S
C781 C780 1.385 . S
C781 C803 1.444 . S
O782 Tb738 2.546 . S
O782 C802 1.251 . S
O783 Tb738 2.610 . S
O783 Tb749 2.362 . S
O783 C794 1.283 . S
O784 Tb749 2.421 . S
O784 C801 1.262 . S
O785 Tb738 2.320 . S
O785 C801 1.260 . S
O786 Tb738 2.552 . S
O786 C794 1.243 . S
O787 Tb738 2.413 . S
O787 C802 1.256 . S
O788 Tb749 2.546 . S
O788 C813 1.251 . S
O789 Tb738 2.362 . S
O789 Tb749 2.610 . S
O789 C805 1.283 . S
O790 Tb738 2.421 . S
O790 C812 1.262 . S
O791 Tb749 2.320 . S
O791 C812 1.260 . S
O792 Tb749 2.552 . S
O792 C805 1.243 . S
O793 Tb749 2.413 . S
O793 C813 1.256 . S
C794 O783 1.283 . S
C794 O786 1.243 . S
C795 C797 1.382 . S
C795 C799 1.393 . S
C795 C802 1.500 . S
C796 C797 1.400 . S
C796 C798 1.384 . S
C797 C795 1.382 . S
C797 C796 1.400 . S
C797 H814 0.930 . S
C798 C796 1.384 . S
C798 C800 1.392 . S
C798 H815 0.931 . S
C799 C795 1.393 . S
C799 C800 1.401 . S
C799 H816 0.930 . S
C800 C798 1.392 . S
C800 C799 1.401 . S
C800 H817 0.930 . S
C801 O784 1.262 . S
C801 O785 1.260 . S
C802 Tb738 2.833 . S
C802 O782 1.251 . S
C802 O787 1.256 . S
C802 C795 1.500 . S
C803 H768 0.929 . S
C803 C781 1.444 . S
C803 C804 1.317 . S
C804 H766 0.930 . S
C804 C772 1.432 . S
C804 C803 1.317 . S
C805 O789 1.283 . S
C805 O792 1.243 . S
C806 C807 1.382 . S
C806 C810 1.393 . S
C806 C813 1.500 . S
C807 C806 1.382 . S
C807 C808 1.400 . S
C807 H818 0.930 . S
C808 C807 1.400 . S
C808 C809 1.384 . S
C809 C808 1.384 . S
C809 C811 1.392 . S
C809 H819 0.931 . S
C810 C806 1.393 . S
C810 C811 1.401 . S
C810 H820 0.930 . S
C811 C809 1.392 . S
C811 C810 1.401 . S
C811 H821 0.930 . S
C812 O790 1.262 . S
C812 O791 1.260 . S
C813 Tb749 2.833 . S
C813 O788 1.251 . S
C813 O793 1.256 . S
C813 C806 1.500 . S
H814 C797 0.930 . S
H815 C798 0.931 . S
H816 C799 0.930 . S
H817 C800 0.930 . S
H818 C807 0.930 . S
H819 C809 0.931 . S
H820 C810 0.930 . S
H821 C811 0.930 . S
Tb822 N853 2.660 . S
Tb822 N860 2.600 . S
Tb822 O866 2.546 . S
Tb822 O867 2.610 . S
Tb822 O869 2.320 . S
Tb822 O870 2.552 . S
Tb822 O871 2.413 . S
Tb822 O873 2.362 . S
Tb822 O874 2.421 . S
Tb822 C886 2.833 . S
C823 C826 1.432 . S
C823 C827 1.414 . S
C823 N830 1.359 . S
C824 C826 1.417 . S
C824 C828 1.432 . S
C824 C836 1.410 . S
C825 C827 1.444 . S
C825 C828 1.317 . S
C825 H848 0.929 . S
C826 C823 1.432 . S
C826 C824 1.417 . S
C826 N834 1.360 . S
C827 C823 1.414 . S
C827 C825 1.444 . S
C827 C832 1.385 . S
C828 C824 1.432 . S
C828 C825 1.317 . S
C828 H840 0.930 . S
C829 C831 1.392 . S
C829 C832 1.370 . S
C829 H841 0.931 . S
N830 C823 1.359 . S
N830 C831 1.327 . S
N830 Tb833 2.600 . S
C831 C829 1.392 . S
C831 N830 1.327 . S
C831 H838 0.930 . S
C832 C827 1.385 . S
C832 C829 1.370 . S
C832 H851 0.930 . S
Tb833 N830 2.600 . S
Tb833 N834 2.660 . S
Tb833 O867 2.362 . S
Tb833 O868 2.421 . S
Tb833 O872 2.546 . S
Tb833 O873 2.610 . S
Tb833 O875 2.320 . S
Tb833 O876 2.552 . S
Tb833 O877 2.413 . S
Tb833 C897 2.833 . S
N834 C826 1.360 . S
N834 Tb833 2.660 . S
N834 C835 1.305 . S
C835 N834 1.305 . S
C835 C837 1.407 . S
C835 H842 0.930 . S
C836 C824 1.410 . S
C836 C837 1.345 . S
C836 H844 0.930 . S
C837 C835 1.407 . S
C837 C836 1.345 . S
C837 H839 0.930 . S
H838 C831 0.930 . S
H839 C837 0.930 . S
H840 C828 0.930 . S
H841 C829 0.931 . S
H842 C835 0.930 . S
H843 C857 0.930 . S
H844 C836 0.930 . S
H845 C863 0.930 . S
H846 C854 0.930 . S
H847 C861 0.931 . S
H848 C825 0.929 . S
H849 C855 0.930 . S
H850 C888 0.930 . S
H851 C832 0.930 . S
H852 C887 0.929 . S
N853 Tb822 2.660 . S
N853 C854 1.305 . S
N853 C858 1.360 . S
C854 H846 0.930 . S
C854 N853 1.305 . S
C854 C857 1.407 . S
C855 H849 0.930 . S
C855 C856 1.410 . S
C855 C857 1.345 . S
C856 C855 1.410 . S
C856 C858 1.417 . S
C856 C888 1.432 . S
C857 H843 0.930 . S
C857 C854 1.407 . S
C857 C855 1.345 . S
C858 N853 1.360 . S
C858 C856 1.417 . S
C858 C862 1.432 . S
H859 C864 0.930 . S
N860 Tb822 2.600 . S
N860 C862 1.359 . S
N860 C863 1.327 . S
C861 H847 0.931 . S
C861 C863 1.392 . S
C861 C864 1.370 . S
C862 C858 1.432 . S
C862 N860 1.359 . S
C862 C865 1.414 . S
C863 H845 0.930 . S
C863 N860 1.327 . S
C863 C861 1.392 . S
C864 H859 0.930 . S
C864 C861 1.370 . S
C864 C865 1.385 . S
C865 C862 1.414 . S
C865 C864 1.385 . S
C865 C887 1.444 . S
O866 Tb822 2.546 . S
O866 C886 1.251 . S
O867 Tb822 2.610 . S
O867 Tb833 2.362 . S
O867 C878 1.283 . S
O868 Tb833 2.421 . S
O868 C885 1.262 . S
O869 Tb822 2.320 . S
O869 C885 1.260 . S
O870 Tb822 2.552 . S
O870 C878 1.243 . S
O871 Tb822 2.413 . S
O871 C886 1.256 . S
O872 Tb833 2.546 . S
O872 C897 1.251 . S
O873 Tb822 2.362 . S
O873 Tb833 2.610 . S
O873 C889 1.283 . S
O874 Tb822 2.421 . S
O874 C896 1.262 . S
O875 Tb833 2.320 . S
O875 C896 1.260 . S
O876 Tb833 2.552 . S
O876 C889 1.243 . S
O877 Tb833 2.413 . S
O877 C897 1.256 . S
C878 O867 1.283 . S
C878 O870 1.243 . S
C879 C881 1.382 . S
C879 C883 1.393 . S
C879 C886 1.500 . S
C880 C881 1.400 . S
C880 C882 1.384 . S
C881 C879 1.382 . S
C881 C880 1.400 . S
C881 H898 0.930 . S
C882 C880 1.384 . S
C882 C884 1.392 . S
C882 H899 0.931 . S
C883 C879 1.393 . S
C883 C884 1.401 . S
C883 H900 0.930 . S
C884 C882 1.392 . S
C884 C883 1.401 . S
C884 H901 0.930 . S
C885 O868 1.262 . S
C885 O869 1.260 . S
C886 Tb822 2.833 . S
C886 O866 1.251 . S
C886 O871 1.256 . S
C886 C879 1.500 . S
C887 H852 0.929 . S
C887 C865 1.444 . S
C887 C888 1.317 . S
C888 H850 0.930 . S
C888 C856 1.432 . S
C888 C887 1.317 . S
C889 O873 1.283 . S
C889 O876 1.243 . S
C890 C891 1.382 . S
C890 C894 1.393 . S
C890 C897 1.500 . S
C891 C890 1.382 . S
C891 C892 1.400 . S
C891 H902 0.930 . S
C892 C891 1.400 . S
C892 C893 1.384 . S
C893 C892 1.384 . S
C893 C895 1.392 . S
C893 H903 0.931 . S
C894 C890 1.393 . S
C894 C895 1.401 . S
C894 H904 0.930 . S
C895 C893 1.392 . S
C895 C894 1.401 . S
C895 H905 0.930 . S
C896 O874 1.262 . S
C896 O875 1.260 . S
C897 Tb833 2.833 . S
C897 O872 1.251 . S
C897 O877 1.256 . S
C897 C890 1.500 . S
H898 C881 0.930 . S
H899 C882 0.931 . S
H900 C883 0.930 . S
H901 C884 0.930 . S
H902 C891 0.930 . S
H903 C893 0.931 . S
H904 C894 0.930 . S
H905 C895 0.930 . S
Tb906 N937 2.660 . S
Tb906 N944 2.600 . S
Tb906 O950 2.546 . S
Tb906 O951 2.610 . S
Tb906 O953 2.320 . S
Tb906 O954 2.552 . S
Tb906 O955 2.413 . S
Tb906 O957 2.362 . S
Tb906 O958 2.421 . S
Tb906 C970 2.833 . S
C907 C910 1.432 . S
C907 C911 1.414 . S
C907 N914 1.359 . S
C908 C910 1.417 . S
C908 C912 1.432 . S
C908 C920 1.410 . S
C909 C911 1.444 . S
C909 C912 1.317 . S
C909 H932 0.929 . S
C910 C907 1.432 . S
C910 C908 1.417 . S
C910 N918 1.360 . S
C911 C907 1.414 . S
C911 C909 1.444 . S
C911 C916 1.385 . S
C912 C908 1.432 . S
C912 C909 1.317 . S
C912 H924 0.930 . S
C913 C915 1.392 . S
C913 C916 1.370 . S
C913 H925 0.931 . S
N914 C907 1.359 . S
N914 C915 1.327 . S
N914 Tb917 2.600 . S
C915 C913 1.392 . S
C915 N914 1.327 . S
C915 H922 0.930 . S
C916 C911 1.385 . S
C916 C913 1.370 . S
C916 H935 0.930 . S
Tb917 N914 2.600 . S
Tb917 N918 2.660 . S
Tb917 O951 2.362 . S
Tb917 O952 2.421 . S
Tb917 O956 2.546 . S
Tb917 O957 2.610 . S
Tb917 O959 2.320 . S
Tb917 O960 2.552 . S
Tb917 O961 2.413 . S
Tb917 C981 2.833 . S
N918 C910 1.360 . S
N918 Tb917 2.660 . S
N918 C919 1.305 . S
C919 N918 1.305 . S
C919 C921 1.407 . S
C919 H926 0.930 . S
C920 C908 1.410 . S
C920 C921 1.345 . S
C920 H928 0.930 . S
C921 C919 1.407 . S
C921 C920 1.345 . S
C921 H923 0.930 . S
H922 C915 0.930 . S
H923 C921 0.930 . S
H924 C912 0.930 . S
H925 C913 0.931 . S
H926 C919 0.930 . S
H927 C941 0.930 . S
H928 C920 0.930 . S
H929 C947 0.930 . S
H930 C938 0.930 . S
H931 C945 0.931 . S
H932 C909 0.929 . S
H933 C939 0.930 1_455 S
H934 C972 0.930 . S
H935 C916 0.930 . S
H936 C971 0.929 . S
N937 Tb906 2.660 . S
N937 C938 1.305 . S
N937 C942 1.360 . S
C938 H930 0.930 . S
C938 N937 1.305 . S
C938 C941 1.407 . S
C939 H933 0.930 1_655 S
C939 C940 1.410 . S
C939 C941 1.345 . S
C940 C939 1.410 . S
C940 C942 1.417 . S
C940 C972 1.432 . S
C941 H927 0.930 . S
C941 C938 1.407 . S
C941 C939 1.345 . S
C942 N937 1.360 . S
C942 C940 1.417 . S
C942 C946 1.432 . S
H943 C948 0.930 . S
N944 Tb906 2.600 . S
N944 C946 1.359 . S
N944 C947 1.327 . S
C945 H931 0.931 . S
C945 C947 1.392 . S
C945 C948 1.370 . S
C946 C942 1.432 . S
C946 N944 1.359 . S
C946 C949 1.414 . S
C947 H929 0.930 . S
C947 N944 1.327 . S
C947 C945 1.392 . S
C948 H943 0.930 . S
C948 C945 1.370 . S
C948 C949 1.385 . S
C949 C946 1.414 . S
C949 C948 1.385 . S
C949 C971 1.444 . S
O950 Tb906 2.546 . S
O950 C970 1.251 . S
O951 Tb906 2.610 . S
O951 Tb917 2.362 . S
O951 C962 1.283 . S
O952 Tb917 2.421 . S
O952 C969 1.262 . S
O953 Tb906 2.320 . S
O953 C969 1.260 . S
O954 Tb906 2.552 . S
O954 C962 1.243 . S
O955 Tb906 2.413 . S
O955 C970 1.256 . S
O956 Tb917 2.546 . S
O956 C981 1.251 . S
O957 Tb906 2.362 . S
O957 Tb917 2.610 . S
O957 C973 1.283 . S
O958 Tb906 2.421 . S
O958 C980 1.262 . S
O959 Tb917 2.320 . S
O959 C980 1.260 . S
O960 Tb917 2.552 . S
O960 C973 1.243 . S
O961 Tb917 2.413 . S
O961 C981 1.256 . S
C962 O951 1.283 . S
C962 O954 1.243 . S
C963 C965 1.382 . S
C963 C967 1.393 . S
C963 C970 1.500 . S
C964 C965 1.400 . S
C964 C966 1.384 . S
C965 C963 1.382 . S
C965 C964 1.400 . S
C965 H982 0.930 . S
C966 C964 1.384 . S
C966 C968 1.392 . S
C966 H983 0.931 . S
C967 C963 1.393 . S
C967 C968 1.401 . S
C967 H984 0.930 . S
C968 C966 1.392 . S
C968 C967 1.401 . S
C968 H985 0.930 . S
C969 O952 1.262 . S
C969 O953 1.260 . S
C970 Tb906 2.833 . S
C970 O950 1.251 . S
C970 O955 1.256 . S
C970 C963 1.500 . S
C971 H936 0.929 . S
C971 C949 1.444 . S
C971 C972 1.317 . S
C972 H934 0.930 . S
C972 C940 1.432 . S
C972 C971 1.317 . S
C973 O957 1.283 . S
C973 O960 1.243 . S
C974 C975 1.382 . S
C974 C978 1.393 . S
C974 C981 1.500 . S
C975 C974 1.382 . S
C975 C976 1.400 . S
C975 H986 0.930 . S
C976 C975 1.400 . S
C976 C977 1.384 . S
C977 C976 1.384 . S
C977 C979 1.392 . S
C977 H987 0.931 . S
C978 C974 1.393 . S
C978 C979 1.401 . S
C978 H988 0.930 . S
C979 C977 1.392 . S
C979 C978 1.401 . S
C979 H989 0.930 . S
C980 O958 1.262 . S
C980 O959 1.260 . S
C981 Tb917 2.833 . S
C981 O956 1.251 . S
C981 O961 1.256 . S
C981 C974 1.500 . S
H982 C965 0.930 . S
H983 C966 0.931 . S
H984 C967 0.930 . S
H985 C968 0.930 . S
H986 C975 0.930 . S
H987 C977 0.931 . S
H988 C978 0.930 . S
H989 C979 0.930 . S
H990 C996 0.930 . S
H991 C999 0.930 . S
H992 C1000 0.930 . S
H993 C1001 0.930 . S
H994 C1004 0.930 . S
H995 C1005 0.930 . S
C996 H990 0.930 . S
C996 C997 1.355 . S
C996 C998 1.415 . S
C997 C996 1.355 . S
C997 C999 1.419 . S
C998 C996 1.415 . S
C998 C1003 1.425 . S
C998 C1005 1.409 . S
C999 H991 0.930 . S
C999 C997 1.419 . S
C999 C1000 1.362 . S
C1000 H992 0.930 . S
C1000 C999 1.362 . S
C1000 C1003 1.409 . S
C1001 H993 0.930 . S
C1001 C1002 1.355 . S
C1001 C1003 1.415 . S
C1002 C1001 1.355 . S
C1002 C1004 1.419 . S
C1003 C998 1.425 . S
C1003 C1000 1.409 . S
C1003 C1001 1.415 . S
C1004 H994 0.930 . S
C1004 C1002 1.419 . S
C1004 C1005 1.362 . S
C1005 H995 0.930 . S
C1005 C998 1.409 . S
C1005 C1004 1.362 . S
H1006 C1012 0.930 . S
H1007 C1015 0.930 . S
H1008 C1016 0.930 . S
H1009 C1017 0.930 . S
H1010 C1020 0.930 . S
H1011 C1021 0.930 . S
C1012 H1006 0.930 . S
C1012 C1013 1.355 . S
C1012 C1014 1.415 . S
C1013 C1012 1.355 . S
C1013 C1015 1.419 . S
C1014 C1012 1.415 . S
C1014 C1019 1.425 . S
C1014 C1021 1.409 . S
C1015 H1007 0.930 . S
C1015 C1013 1.419 . S
C1015 C1016 1.362 . S
C1016 H1008 0.930 . S
C1016 C1015 1.362 . S
C1016 C1019 1.409 . S
C1017 H1009 0.930 . S
C1017 C1018 1.355 . S
C1017 C1019 1.415 . S
C1018 C1017 1.355 . S
C1018 C1020 1.419 . S
C1019 C1014 1.425 . S
C1019 C1016 1.409 . S
C1019 C1017 1.415 . S
C1020 H1010 0.930 . S
C1020 C1018 1.419 . S
C1020 C1021 1.362 . S
C1021 H1011 0.930 . S
C1021 C1014 1.409 . S
C1021 C1020 1.362 . S
H1022 C1028 0.930 . S
H1023 C1031 0.930 . S
H1024 C1032 0.930 . S
H1025 C1033 0.930 . S
H1026 C1036 0.930 . S
H1027 C1037 0.930 . S
C1028 H1022 0.930 . S
C1028 C1029 1.355 . S
C1028 C1030 1.415 . S
C1029 C1028 1.355 . S
C1029 C1031 1.419 . S
C1030 C1028 1.415 . S
C1030 C1035 1.425 . S
C1030 C1037 1.409 . S
C1031 H1023 0.930 . S
C1031 C1029 1.419 . S
C1031 C1032 1.362 . S
C1032 H1024 0.930 . S
C1032 C1031 1.362 . S
C1032 C1035 1.409 . S
C1033 H1025 0.930 . S
C1033 C1034 1.355 . S
C1033 C1035 1.415 . S
C1034 C1033 1.355 . S
C1034 C1036 1.419 . S
C1035 C1030 1.425 . S
C1035 C1032 1.409 . S
C1035 C1033 1.415 . S
C1036 H1026 0.930 . S
C1036 C1034 1.419 . S
C1036 C1037 1.362 . S
C1037 H1027 0.930 . S
C1037 C1030 1.409 . S
C1037 C1036 1.362 . S
H1038 C1044 0.930 . S
H1039 C1047 0.930 . S
H1040 C1048 0.930 . S
H1041 C1049 0.930 . S
H1042 C1052 0.921 1_554 S
H1043 C1053 0.930 . S
C1044 H1038 0.930 . S
C1044 C1045 1.355 . S
C1044 C1046 1.415 . S
C1045 C1044 1.355 . S
C1045 C1047 1.419 . S
C1046 C1044 1.415 . S
C1046 C1051 1.425 . S
C1046 C1053 1.409 . S
C1047 H1039 0.930 . S
C1047 C1045 1.419 . S
C1047 C1048 1.362 . S
C1048 H1040 0.930 . S
C1048 C1047 1.362 . S
C1048 C1051 1.409 . S
C1049 H1041 0.930 . S
C1049 C1050 1.355 . S
C1049 C1051 1.415 . S
C1050 C1049 1.355 . S
C1050 C1052 1.419 . S
C1051 C1046 1.425 . S
C1051 C1048 1.409 . S
C1051 C1049 1.415 . S
C1052 H1042 0.921 1_556 S
C1052 C1050 1.419 . S
C1052 C1053 1.362 . S
C1053 H1043 0.930 . S
C1053 C1046 1.409 . S
C1053 C1052 1.362 . S
H1054 C1060 0.930 . S
H1055 C1063 0.930 . S
H1056 C1064 0.930 1_554 S
H1057 C1065 0.930 . S
H1058 C1068 0.930 . S
H1059 C1069 0.930 . S
C1060 H1054 0.930 . S
C1060 C1061 1.355 . S
C1060 C1062 1.415 . S
C1061 C1060 1.355 . S
C1061 C1063 1.419 . S
C1062 C1060 1.415 . S
C1062 C1067 1.425 . S
C1062 C1069 1.409 . S
C1063 H1055 0.930 . S
C1063 C1061 1.419 . S
C1063 C1064 1.362 . S
C1064 H1056 0.930 1_556 S
C1064 C1063 1.362 . S
C1064 C1067 1.409 . S
C1065 H1057 0.930 . S
C1065 C1066 1.355 . S
C1065 C1067 1.415 1_554 S
C1066 C1065 1.355 . S
C1066 C1068 1.419 1_554 S
C1067 C1062 1.425 . S
C1067 C1064 1.409 . S
C1067 C1065 1.415 1_556 S
C1068 H1058 0.930 . S
C1068 C1066 1.419 1_556 S
C1068 C1069 1.362 . S
C1069 H1059 0.930 . S
C1069 C1062 1.409 . S
C1069 C1068 1.362 . S
H1070 C1076 0.930 . S
H1071 C1079 0.930 . S
H1072 C1080 0.930 . S
H1073 C1081 0.930 . S
H1074 C1084 0.926 1_554 S
H1075 C1085 0.930 . S
C1076 H1070 0.930 . S
C1076 C1077 1.355 . S
C1076 C1078 1.415 . S
C1077 C1076 1.355 . S
C1077 C1079 1.419 . S
C1078 C1076 1.415 . S
C1078 C1083 1.425 . S
C1078 C1085 1.409 . S
C1079 H1071 0.930 . S
C1079 C1077 1.419 . S
C1079 C1080 1.362 . S
C1080 H1072 0.930 . S
C1080 C1079 1.362 . S
C1080 C1083 1.409 . S
C1081 H1073 0.930 . S
C1081 C1082 1.355 . S
C1081 C1083 1.415 . S
C1082 C1081 1.355 . S
C1082 C1084 1.418 . S
C1083 C1078 1.425 . S
C1083 C1080 1.409 . S
C1083 C1081 1.415 . S
C1084 H1074 0.926 1_556 S
C1084 C1082 1.418 . S
C1084 C1085 1.368 . S
C1085 H1075 0.930 . S
C1085 C1078 1.409 . S
C1085 C1084 1.368 . S
H1086 C1092 0.930 . S
H1087 C1095 0.930 . S
H1088 C1096 0.930 . S
H1089 C1097 0.930 . S
H1090 C1100 0.930 . S
H1091 C1101 0.930 . S
C1092 H1086 0.930 . S
C1092 C1093 1.355 . S
C1092 C1094 1.415 . S
C1093 C1092 1.355 . S
C1093 C1095 1.419 1_556 S
C1094 C1092 1.415 . S
C1094 C1099 1.470 . S
C1094 C1101 1.409 . S
C1095 H1087 0.930 . S
C1095 C1093 1.419 1_554 S
C1095 C1096 1.362 . S
C1096 H1088 0.930 . S
C1096 C1095 1.362 . S
C1096 C1099 1.382 1_554 S
C1097 H1089 0.930 . S
C1097 C1098 1.355 1_554 S
C1097 C1099 1.400 1_554 S
C1098 C1097 1.355 1_556 S
C1098 C1100 1.419 . S
C1099 C1094 1.470 . S
C1099 C1096 1.382 1_556 S
C1099 C1097 1.400 1_556 S
C1100 H1090 0.930 . S
C1100 C1098 1.419 . S
C1100 C1101 1.362 . S
C1101 H1091 0.930 . S
C1101 C1094 1.409 . S
C1101 C1100 1.362 . S
H1102 C1108 0.930 . S
H1103 C1111 0.930 . S
H1104 C1112 0.930 . S
H1105 C1113 0.930 . S
H1106 C1116 0.930 . S
H1107 C1117 0.930 . S
C1108 H1102 0.930 . S
C1108 C1109 1.355 . S
C1108 C1110 1.415 . S
C1109 C1108 1.355 . S
C1109 C1111 1.419 . S
C1110 C1108 1.415 . S
C1110 C1115 1.425 . S
C1110 C1117 1.409 1_556 S
C1111 H1103 0.930 . S
C1111 C1109 1.419 . S
C1111 C1112 1.362 . S
C1112 H1104 0.930 . S
C1112 C1111 1.362 . S
C1112 C1115 1.409 . S
C1113 H1105 0.930 . S
C1113 C1114 1.355 . S
C1113 C1115 1.415 . S
C1114 C1113 1.355 . S
C1114 C1116 1.419 1_556 S
C1115 C1110 1.425 . S
C1115 C1112 1.409 . S
C1115 C1113 1.415 . S
C1116 H1106 0.930 . S
C1116 C1114 1.419 1_554 S
C1116 C1117 1.362 . S
C1117 H1107 0.930 . S
C1117 C1110 1.409 1_554 S
C1117 C1116 1.362 . S
H1118 C1124 0.930 1_554 S
H1119 C1127 0.930 . S
H1120 C1128 0.930 . S
H1121 C1129 0.930 . S
H1122 C1132 0.930 . S
H1123 C1133 0.930 . S
C1124 H1118 0.930 1_556 S
C1124 C1125 1.355 . S
C1124 C1126 1.415 1_556 S
C1125 C1124 1.355 . S
C1125 C1127 1.419 . S
C1126 C1124 1.415 1_554 S
C1126 C1131 1.425 1_554 S
C1126 C1133 1.409 . S
C1127 H1119 0.930 . S
C1127 C1125 1.419 . S
C1127 C1128 1.362 . S
C1128 H1120 0.930 . S
C1128 C1127 1.362 . S
C1128 C1131 1.409 . S
C1129 H1121 0.930 . S
C1129 C1130 1.355 1_556 S
C1129 C1131 1.415 . S
C1130 C1129 1.355 1_554 S
C1130 C1132 1.419 . S
C1131 C1126 1.425 1_556 S
C1131 C1128 1.409 . S
C1131 C1129 1.415 . S
C1132 H1122 0.930 . S
C1132 C1130 1.419 . S
C1132 C1133 1.362 . S
C1133 H1123 0.930 . S
C1133 C1126 1.409 . S
C1133 C1132 1.362 . S
H1134 C1140 0.930 . S
H1135 C1143 0.930 . S
H1136 C1144 0.930 . S
H1137 C1145 0.930 . S
H1138 C1148 0.930 1_556 S
H1139 C1149 0.930 1_556 S
C1140 H1134 0.930 . S
C1140 C1141 1.355 . S
C1140 C1142 1.415 . S
C1141 C1140 1.355 . S
C1141 C1143 1.419 . S
C1142 C1140 1.415 . S
C1142 C1147 1.425 . S
C1142 C1149 1.409 . S
C1143 H1135 0.930 . S
C1143 C1141 1.419 . S
C1143 C1144 1.362 . S
C1144 H1136 0.930 . S
C1144 C1143 1.362 . S
C1144 C1147 1.409 . S
C1145 H1137 0.930 . S
C1145 C1146 1.355 . S
C1145 C1147 1.415 . S
C1146 C1145 1.355 . S
C1146 C1148 1.419 . S
C1147 C1142 1.425 . S
C1147 C1144 1.409 . S
C1147 C1145 1.415 . S
C1148 H1138 0.930 1_554 S
C1148 C1146 1.419 . S
C1148 C1149 1.362 . S
C1149 H1139 0.930 1_554 S
C1149 C1142 1.409 . S
C1149 C1148 1.362 . S
H1150 C1156 0.930 . S
H1151 C1159 0.930 . S
H1152 C1160 0.930 . S
H1153 C1161 0.930 . S
H1154 C1164 0.930 . S
H1155 C1165 0.930 . S
C1156 H1150 0.930 . S
C1156 C1157 1.355 . S
C1156 C1158 1.415 . S
C1157 C1156 1.355 . S
C1157 C1159 1.419 . S
C1158 C1156 1.415 . S
C1158 C1163 1.425 . S
C1158 C1165 1.409 . S
C1159 H1151 0.930 . S
C1159 C1157 1.419 . S
C1159 C1160 1.362 . S
C1160 H1152 0.930 . S
C1160 C1159 1.362 . S
C1160 C1163 1.409 . S
C1161 H1153 0.930 . S
C1161 C1162 1.355 . S
C1161 C1163 1.415 . S
C1162 C1161 1.355 . S
C1162 C1164 1.419 . S
C1163 C1158 1.425 . S
C1163 C1160 1.409 . S
C1163 C1161 1.415 . S
C1164 H1154 0.930 . S
C1164 C1162 1.419 . S
C1164 C1165 1.362 . S
C1165 H1155 0.930 . S
C1165 C1158 1.409 . S
C1165 C1164 1.362 . S
H1166 C1172 0.930 . S
H1167 C1175 0.930 . S
H1168 C1176 0.930 . S
H1169 C1177 0.930 . S
H1170 C1180 0.930 . S
H1171 C1181 0.930 . S
C1172 H1166 0.930 . S
C1172 C1173 1.355 . S
C1172 C1174 1.415 . S
C1173 C1172 1.355 . S
C1173 C1175 1.419 . S
C1174 C1172 1.415 . S
C1174 C1179 1.425 . S
C1174 C1181 1.409 . S
C1175 H1167 0.930 . S
C1175 C1173 1.419 . S
C1175 C1176 1.362 . S
C1176 H1168 0.930 . S
C1176 C1175 1.362 . S
C1176 C1179 1.409 . S
C1177 H1169 0.930 . S
C1177 C1178 1.355 . S
C1177 C1179 1.415 . S
C1178 C1177 1.355 . S
C1178 C1180 1.419 . S
C1179 C1174 1.425 . S
C1179 C1176 1.409 . S
C1179 C1177 1.415 . S
C1180 H1170 0.930 . S
C1180 C1178 1.419 . S
C1180 C1181 1.362 . S
C1181 H1171 0.930 . S
C1181 C1174 1.409 . S
C1181 C1180 1.362 . S
H1182 C1188 0.930 . S
H1183 C1191 0.930 . S
H1184 C1192 0.930 1_455 S
H1185 C1193 0.930 . S
H1186 C1196 0.930 . S
H1187 C1197 0.930 . S
C1188 H1182 0.930 . S
C1188 C1189 1.355 . S
C1188 C1190 1.415 1_655 S
C1189 C1188 1.355 . S
C1189 C1191 1.419 . S
C1190 C1188 1.415 1_455 S
C1190 C1195 1.425 . S
C1190 C1197 1.409 . S
C1191 H1183 0.930 . S
C1191 C1189 1.419 . S
C1191 C1192 1.362 . S
C1192 H1184 0.930 1_655 S
C1192 C1191 1.362 . S
C1192 C1195 1.409 1_655 S
C1193 H1185 0.930 . S
C1193 C1194 1.355 . S
C1193 C1195 1.415 . S
C1194 C1193 1.355 . S
C1194 C1196 1.419 . S
C1195 C1190 1.425 . S
C1195 C1192 1.409 1_455 S
C1195 C1193 1.415 . S
C1196 H1186 0.930 . S
C1196 C1194 1.419 . S
C1196 C1197 1.362 . S
C1197 H1187 0.930 . S
C1197 C1190 1.409 . S
C1197 C1196 1.362 . S
H1198 C1204 0.930 . S
H1199 C1207 0.930 . S
H1200 C1208 0.930 . S
H1201 C1209 0.930 . S
H1202 C1212 0.930 . S
H1203 C1213 0.930 . S
C1204 H1198 0.930 . S
C1204 C1205 1.355 . S
C1204 C1206 1.415 . S
C1205 C1204 1.355 . S
C1205 C1207 1.419 . S
C1206 C1204 1.415 . S
C1206 C1211 1.425 . S
C1206 C1213 1.409 . S
C1207 H1199 0.930 . S
C1207 C1205 1.419 . S
C1207 C1208 1.362 . S
C1208 H1200 0.930 . S
C1208 C1207 1.362 . S
C1208 C1211 1.409 . S
C1209 H1201 0.930 . S
C1209 C1210 1.355 . S
C1209 C1211 1.415 . S
C1210 C1209 1.355 . S
C1210 C1212 1.419 . S
C1211 C1206 1.425 . S
C1211 C1208 1.409 . S
C1211 C1209 1.415 . S
C1212 H1202 0.930 . S
C1212 C1210 1.419 . S
C1212 C1213 1.362 . S
C1213 H1203 0.930 . S
C1213 C1206 1.409 . S
C1213 C1212 1.362 . S
H1214 C1220 0.930 . S
H1215 C1223 0.930 . S
H1216 C1224 0.930 . S
H1217 C1225 0.930 . S
H1218 C1228 0.930 . S
H1219 C1229 0.930 . S
C1220 H1214 0.930 . S
C1220 C1221 1.355 . S
C1220 C1222 1.415 1_545 S
C1221 C1220 1.355 . S
C1221 C1223 1.419 . S
C1222 C1220 1.415 1_565 S
C1222 C1227 1.425 . S
C1222 C1229 1.409 . S
C1223 H1215 0.930 . S
C1223 C1221 1.419 . S
C1223 C1224 1.362 1_545 S
C1224 H1216 0.930 . S
C1224 C1223 1.362 1_565 S
C1224 C1227 1.409 . S
C1225 H1217 0.930 . S
C1225 C1226 1.355 . S
C1225 C1227 1.415 . S
C1226 C1225 1.355 . S
C1226 C1228 1.419 . S
C1227 C1222 1.425 . S
C1227 C1224 1.409 . S
C1227 C1225 1.415 . S
C1228 H1218 0.930 . S
C1228 C1226 1.419 . S
C1228 C1229 1.362 . S
C1229 H1219 0.930 . S
C1229 C1222 1.409 . S
C1229 C1228 1.362 . S
H1230 C1236 0.930 . S
H1231 C1239 0.930 . S
H1232 C1240 0.930 . S
H1233 C1241 0.930 . S
H1234 C1244 0.930 . S
H1235 C1245 0.930 . S
C1236 H1230 0.930 . S
C1236 C1237 1.355 . S
C1236 C1238 1.415 . S
C1237 C1236 1.355 . S
C1237 C1239 1.419 . S
C1238 C1236 1.415 . S
C1238 C1243 1.425 . S
C1238 C1245 1.409 . S
C1239 H1231 0.930 . S
C1239 C1237 1.419 . S
C1239 C1240 1.362 . S
C1240 H1232 0.930 . S
C1240 C1239 1.362 . S
C1240 C1243 1.409 . S
C1241 H1233 0.930 . S
C1241 C1242 1.355 . S
C1241 C1243 1.415 . S
C1242 C1241 1.355 . S
C1242 C1244 1.419 . S
C1243 C1238 1.425 . S
C1243 C1240 1.409 . S
C1243 C1241 1.415 . S
C1244 H1234 0.930 . S
C1244 C1242 1.419 . S
C1244 C1245 1.362 . S
C1245 H1235 0.930 . S
C1245 C1238 1.409 . S
C1245 C1244 1.362 . S
H1246 C1252 0.930 . S
H1247 C1255 0.930 . S
H1248 C1256 0.930 . S
H1249 C1257 0.930 . S
H1250 C1260 0.930 . S
H1251 C1261 0.930 . S
C1252 H1246 0.930 . S
C1252 C1253 1.355 . S
C1252 C1254 1.415 . S
C1253 C1252 1.355 . S
C1253 C1255 1.419 . S
C1254 C1252 1.415 . S
C1254 C1259 1.425 . S
C1254 C1261 1.409 . S
C1255 H1247 0.930 . S
C1255 C1253 1.419 . S
C1255 C1256 1.362 . S
C1256 H1248 0.930 . S
C1256 C1255 1.362 . S
C1256 C1259 1.409 . S
C1257 H1249 0.930 . S
C1257 C1258 1.355 . S
C1257 C1259 1.415 . S
C1258 C1257 1.355 . S
C1258 C1260 1.419 . S
C1259 C1254 1.425 . S
C1259 C1256 1.409 . S
C1259 C1257 1.415 . S
C1260 H1250 0.930 . S
C1260 C1258 1.419 . S
C1260 C1261 1.362 . S
C1261 H1251 0.930 . S
C1261 C1254 1.409 . S
C1261 C1260 1.362 . S
H1262 C1268 0.930 . S
H1263 C1271 0.930 . S
H1264 C1272 0.930 . S
H1265 C1273 0.930 . S
H1266 C1276 0.930 . S
H1267 C1277 0.930 . S
C1268 H1262 0.930 . S
C1268 C1269 1.355 . S
C1268 C1270 1.415 . S
C1269 C1268 1.355 . S
C1269 C1271 1.419 . S
C1270 C1268 1.415 . S
C1270 C1275 1.425 . S
C1270 C1277 1.409 . S
C1271 H1263 0.930 . S
C1271 C1269 1.419 . S
C1271 C1272 1.362 . S
C1272 H1264 0.930 . S
C1272 C1271 1.362 . S
C1272 C1275 1.409 . S
C1273 H1265 0.930 . S
C1273 C1274 1.355 . S
C1273 C1275 1.415 . S
C1274 C1273 1.355 . S
C1274 C1276 1.419 . S
C1275 C1270 1.425 . S
C1275 C1272 1.409 . S
C1275 C1273 1.415 . S
C1276 H1266 0.930 . S
C1276 C1274 1.419 . S
C1276 C1277 1.362 . S
C1277 H1267 0.930 . S
C1277 C1270 1.409 . S
C1277 C1276 1.362 . S
H1278 C1284 0.930 . S
H1279 C1287 0.930 . S
H1280 C1288 0.930 . S
H1281 C1289 0.930 . S
H1282 C1292 0.930 . S
H1283 C1293 0.930 . S
C1284 H1278 0.930 . S
C1284 C1285 1.355 . S
C1284 C1286 1.415 . S
C1285 C1284 1.355 . S
C1285 C1287 1.419 . S
C1286 C1284 1.415 . S
C1286 C1291 1.425 . S
C1286 C1293 1.409 . S
C1287 H1279 0.930 . S
C1287 C1285 1.419 . S
C1287 C1288 1.362 . S
C1288 H1280 0.930 . S
C1288 C1287 1.362 . S
C1288 C1291 1.409 . S
C1289 H1281 0.930 . S
C1289 C1290 1.355 . S
C1289 C1291 1.415 . S
C1290 C1289 1.355 . S
C1290 C1292 1.419 . S
C1291 C1286 1.425 . S
C1291 C1288 1.409 . S
C1291 C1289 1.415 . S
C1292 H1282 0.930 . S
C1292 C1290 1.419 . S
C1292 C1293 1.362 . S
C1293 H1283 0.930 . S
C1293 C1286 1.409 . S
C1293 C1292 1.362 . S
H1294 C1300 0.930 . S
H1295 C1303 0.930 . S
H1296 C1304 0.930 . S
H1297 C1305 0.930 . S
H1298 C1308 0.930 . S
H1299 C1309 0.930 . S
C1300 H1294 0.930 . S
C1300 C1301 1.355 . S
C1300 C1302 1.415 . S
C1301 C1300 1.355 . S
C1301 C1303 1.419 . S
C1302 C1300 1.415 . S
C1302 C1307 1.425 . S
C1302 C1309 1.409 . S
C1303 H1295 0.930 . S
C1303 C1301 1.419 . S
C1303 C1304 1.362 . S
C1304 H1296 0.930 . S
C1304 C1303 1.362 . S
C1304 C1307 1.409 . S
C1305 H1297 0.930 . S
C1305 C1306 1.355 . S
C1305 C1307 1.415 . S
C1306 C1305 1.355 . S
C1306 C1308 1.419 . S
C1307 C1302 1.425 . S
C1307 C1304 1.409 . S
C1307 C1305 1.415 . S
C1308 H1298 0.930 . S
C1308 C1306 1.419 . S
C1308 C1309 1.362 . S
C1309 H1299 0.930 . S
C1309 C1302 1.409 . S
C1309 C1308 1.362 . S
H1310 C1316 0.930 . S
H1311 C1319 0.930 . S
H1312 C1320 0.930 . S
H1313 C1321 0.930 . S
H1314 C1324 0.930 . S
H1315 C1325 0.930 . S
C1316 H1310 0.930 . S
C1316 C1317 1.355 . S
C1316 C1318 1.415 . S
C1317 C1316 1.355 . S
C1317 C1319 1.419 . S
C1318 C1316 1.415 . S
C1318 C1323 1.425 . S
C1318 C1325 1.409 . S
C1319 H1311 0.930 . S
C1319 C1317 1.419 . S
C1319 C1320 1.362 . S
C1320 H1312 0.930 . S
C1320 C1319 1.362 . S
C1320 C1323 1.409 . S
C1321 H1313 0.930 . S
C1321 C1322 1.355 . S
C1321 C1323 1.415 . S
C1322 C1321 1.355 . S
C1322 C1324 1.419 . S
C1323 C1318 1.425 . S
C1323 C1320 1.409 . S
C1323 C1321 1.415 . S
C1324 H1314 0.930 . S
C1324 C1322 1.419 . S
C1324 C1325 1.362 . S
C1325 H1315 0.930 . S
C1325 C1318 1.409 . S
C1325 C1324 1.362 . S
H1326 C1332 0.930 . S
H1327 C1335 0.930 . S
H1328 C1336 0.930 . S
H1329 C1337 0.930 . S
H1330 C1340 0.930 . S
H1331 C1341 0.930 . S
C1332 H1326 0.930 . S
C1332 C1333 1.355 . S
C1332 C1334 1.415 . S
C1333 C1332 1.355 . S
C1333 C1335 1.419 . S
C1334 C1332 1.415 . S
C1334 C1339 1.435 1_545 S
C1334 C1341 1.409 1_545 S
C1335 H1327 0.930 . S
C1335 C1333 1.419 . S
C1335 C1336 1.362 . S
C1336 H1328 0.930 . S
C1336 C1335 1.362 . S
C1336 C1339 1.385 1_545 S
C1337 H1329 0.930 . S
C1337 C1338 1.355 . S
C1337 C1339 1.430 . S
C1338 C1337 1.355 . S
C1338 C1340 1.419 . S
C1339 C1334 1.435 1_565 S
C1339 C1336 1.385 1_565 S
C1339 C1337 1.430 . S
C1340 H1330 0.930 . S
C1340 C1338 1.419 . S
C1340 C1341 1.362 . S
C1341 H1331 0.930 . S
C1341 C1334 1.409 1_565 S
C1341 C1340 1.362 . S
H1342 C1348 0.930 . S
H1343 C1351 0.930 . S
H1344 C1352 0.930 . S
H1345 C1353 0.930 . S
H1346 C1356 0.930 . S
H1347 C1357 0.930 1_655 S
C1348 H1342 0.930 . S
C1348 C1349 1.355 . S
C1348 C1350 1.415 1_655 S
C1349 C1348 1.355 . S
C1349 C1351 1.419 1_655 S
C1350 C1348 1.415 1_455 S
C1350 C1355 1.425 . S
C1350 C1357 1.409 . S
C1351 H1343 0.930 . S
C1351 C1349 1.419 1_455 S
C1351 C1352 1.362 . S
C1352 H1344 0.930 . S
C1352 C1351 1.362 . S
C1352 C1355 1.409 . S
C1353 H1345 0.930 . S
C1353 C1354 1.355 . S
C1353 C1355 1.415 . S
C1354 C1353 1.355 . S
C1354 C1356 1.419 . S
C1355 C1350 1.425 . S
C1355 C1352 1.409 . S
C1355 C1353 1.415 . S
C1356 H1346 0.930 . S
C1356 C1354 1.419 . S
C1356 C1357 1.362 . S
C1357 H1347 0.930 1_455 S
C1357 C1350 1.409 . S
C1357 C1356 1.362 . S
H1358 C1364 0.930 . S
H1359 C1367 0.930 . S
H1360 C1368 0.930 . S
H1361 C1369 0.930 . S
H1362 C1372 0.930 . S
H1363 C1373 0.930 . S
C1364 H1358 0.930 . S
C1364 C1365 1.355 . S
C1364 C1366 1.415 . S
C1365 C1364 1.355 . S
C1365 C1367 1.419 . S
C1366 C1364 1.415 . S
C1366 C1371 1.425 . S
C1366 C1373 1.409 . S
C1367 H1359 0.930 . S
C1367 C1365 1.419 . S
C1367 C1368 1.362 . S
C1368 H1360 0.930 . S
C1368 C1367 1.362 . S
C1368 C1371 1.409 . S
C1369 H1361 0.930 . S
C1369 C1370 1.355 . S
C1369 C1371 1.415 . S
C1370 C1369 1.355 . S
C1370 C1372 1.419 . S
C1371 C1366 1.425 . S
C1371 C1368 1.409 . S
C1371 C1369 1.415 . S
C1372 H1362 0.930 . S
C1372 C1370 1.419 . S
C1372 C1373 1.362 . S
C1373 H1363 0.930 . S
C1373 C1366 1.409 . S
C1373 C1372 1.362 . S
H1374 C1380 0.930 . S
H1375 C1383 0.930 . S
H1376 C1384 0.930 . S
H1377 C1385 0.930 . S
H1378 C1388 0.930 . S
H1379 C1389 0.930 . S
C1380 H1374 0.930 . S
C1380 C1381 1.355 . S
C1380 C1382 1.415 . S
C1381 C1380 1.355 . S
C1381 C1383 1.419 . S
C1382 C1380 1.415 . S
C1382 C1387 1.425 . S
C1382 C1389 1.409 . S
C1383 H1375 0.930 . S
C1383 C1381 1.419 . S
C1383 C1384 1.362 . S
C1384 H1376 0.930 . S
C1384 C1383 1.362 . S
C1384 C1387 1.409 . S
C1385 H1377 0.930 . S
C1385 C1386 1.355 . S
C1385 C1387 1.415 . S
C1386 C1385 1.355 . S
C1386 C1388 1.419 . S
C1387 C1382 1.425 . S
C1387 C1384 1.409 . S
C1387 C1385 1.415 . S
C1388 H1378 0.930 . S
C1388 C1386 1.419 . S
C1388 C1389 1.362 . S
C1389 H1379 0.930 . S
C1389 C1382 1.409 . S
C1389 C1388 1.362 . S
H1390 C1396 0.930 . S
H1391 C1399 0.930 . S
H1392 C1400 0.930 . S
H1393 C1401 0.930 . S
H1394 C1404 0.930 . S
H1395 C1405 0.930 . S
C1396 H1390 0.930 . S
C1396 C1397 1.355 . S
C1396 C1398 1.415 . S
C1397 C1396 1.355 . S
C1397 C1399 1.419 . S
C1398 C1396 1.415 . S
C1398 C1403 1.425 . S
C1398 C1405 1.409 . S
C1399 H1391 0.930 . S
C1399 C1397 1.419 . S
C1399 C1400 1.362 . S
C1400 H1392 0.930 . S
C1400 C1399 1.362 . S
C1400 C1403 1.409 . S
C1401 H1393 0.930 . S
C1401 C1402 1.355 . S
C1401 C1403 1.415 . S
C1402 C1401 1.355 . S
C1402 C1404 1.419 . S
C1403 C1398 1.425 . S
C1403 C1400 1.409 . S
C1403 C1401 1.415 . S
C1404 H1394 0.930 . S
C1404 C1402 1.419 . S
C1404 C1405 1.362 . S
C1405 H1395 0.930 . S
C1405 C1398 1.409 . S
C1405 C1404 1.362 . S
H1406 C1412 0.930 . S
H1407 C1415 0.930 . S
H1408 C1416 0.930 . S
H1409 C1417 0.930 . S
H1410 C1420 0.930 . S
H1411 C1421 0.930 . S
C1412 H1406 0.930 . S
C1412 C1413 1.355 . S
C1412 C1414 1.415 . S
C1413 C1412 1.355 . S
C1413 C1415 1.419 . S
C1414 C1412 1.415 . S
C1414 C1419 1.425 . S
C1414 C1421 1.409 . S
C1415 H1407 0.930 . S
C1415 C1413 1.419 . S
C1415 C1416 1.362 . S
C1416 H1408 0.930 . S
C1416 C1415 1.362 . S
C1416 C1419 1.409 . S
C1417 H1409 0.930 . S
C1417 C1418 1.355 . S
C1417 C1419 1.415 . S
C1418 C1417 1.355 . S
C1418 C1420 1.419 . S
C1419 C1414 1.425 . S
C1419 C1416 1.409 . S
C1419 C1417 1.415 . S
C1420 H1410 0.930 . S
C1420 C1418 1.419 . S
C1420 C1421 1.362 . S
C1421 H1411 0.930 . S
C1421 C1414 1.409 . S
C1421 C1420 1.362 . S
H1422 C1428 0.930 . S
H1423 C1431 0.930 . S
H1424 C1432 0.930 . S
H1425 C1433 0.930 . S
H1426 C1436 0.930 . S
H1427 C1437 0.930 . S
C1428 H1422 0.930 . S
C1428 C1429 1.355 . S
C1428 C1430 1.415 1_565 S
C1429 C1428 1.355 . S
C1429 C1431 1.419 . S
C1430 C1428 1.415 1_545 S
C1430 C1435 1.425 . S
C1430 C1437 1.409 . S
C1431 H1423 0.930 . S
C1431 C1429 1.419 . S
C1431 C1432 1.362 1_565 S
C1432 H1424 0.930 . S
C1432 C1431 1.362 1_545 S
C1432 C1435 1.409 . S
C1433 H1425 0.930 . S
C1433 C1434 1.355 . S
C1433 C1435 1.415 . S
C1434 C1433 1.355 . S
C1434 C1436 1.419 . S
C1435 C1430 1.425 . S
C1435 C1432 1.409 . S
C1435 C1433 1.415 . S
C1436 H1426 0.930 . S
C1436 C1434 1.419 . S
C1436 C1437 1.362 . S
C1437 H1427 0.930 . S
C1437 C1430 1.409 . S
C1437 C1436 1.362 . S
H1438 C1444 0.930 . S
H1439 C1447 0.930 . S
H1440 C1448 0.930 . S
H1441 C1449 0.930 . S
H1442 C1452 0.930 . S
H1443 C1453 0.930 . S
C1444 H1438 0.930 . S
C1444 C1445 1.355 . S
C1444 C1446 1.415 1_455 S
C1445 C1444 1.355 . S
C1445 C1447 1.419 1_455 S
C1446 C1444 1.415 1_655 S
C1446 C1451 1.425 . S
C1446 C1453 1.409 . S
C1447 H1439 0.930 . S
C1447 C1445 1.419 1_655 S
C1447 C1448 1.362 . S
C1448 H1440 0.930 . S
C1448 C1447 1.362 . S
C1448 C1451 1.409 . S
C1449 H1441 0.930 . S
C1449 C1450 1.355 . S
C1449 C1451 1.415 . S
C1450 C1449 1.355 . S
C1450 C1452 1.419 . S
C1451 C1446 1.425 . S
C1451 C1448 1.409 . S
C1451 C1449 1.415 . S
C1452 H1442 0.930 . S
C1452 C1450 1.419 . S
C1452 C1453 1.362 . S
C1453 H1443 0.930 . S
C1453 C1446 1.409 . S
C1453 C1452 1.362 . S
H1454 C1460 0.930 . S
H1455 C1463 0.930 . S
H1456 C1464 0.930 . S
H1457 C1465 0.930 . S
H1458 C1468 0.930 . S
H1459 C1469 0.930 . S
C1460 H1454 0.930 . S
C1460 C1461 1.355 . S
C1460 C1462 1.415 . S
C1461 C1460 1.355 . S
C1461 C1463 1.419 . S
C1462 C1460 1.415 . S
C1462 C1467 1.425 . S
C1462 C1469 1.409 . S
C1463 H1455 0.930 . S
C1463 C1461 1.419 . S
C1463 C1464 1.362 . S
C1464 H1456 0.930 . S
C1464 C1463 1.362 . S
C1464 C1467 1.409 . S
C1465 H1457 0.930 . S
C1465 C1466 1.355 . S
C1465 C1467 1.415 . S
C1466 C1465 1.355 . S
C1466 C1468 1.419 . S
C1467 C1462 1.425 . S
C1467 C1464 1.409 . S
C1467 C1465 1.415 . S
C1468 H1458 0.930 . S
C1468 C1466 1.419 . S
C1468 C1469 1.362 . S
C1469 H1459 0.930 . S
C1469 C1462 1.409 . S
C1469 C1468 1.362 . S
H1470 C1476 0.930 . S
H1471 C1479 0.930 . S
H1472 C1480 0.930 . S
H1473 C1481 0.930 . S
H1474 C1484 0.930 . S
H1475 C1485 0.930 . S
C1476 H1470 0.930 . S
C1476 C1477 1.355 . S
C1476 C1478 1.415 . S
C1477 C1476 1.355 . S
C1477 C1479 1.419 . S
C1478 C1476 1.415 . S
C1478 C1483 1.425 . S
C1478 C1485 1.409 . S
C1479 H1471 0.930 . S
C1479 C1477 1.419 . S
C1479 C1480 1.362 . S
C1480 H1472 0.930 . S
C1480 C1479 1.362 . S
C1480 C1483 1.409 . S
C1481 H1473 0.930 . S
C1481 C1482 1.355 . S
C1481 C1483 1.415 1_655 S
C1482 C1481 1.355 . S
C1482 C1484 1.419 . S
C1483 C1478 1.425 . S
C1483 C1480 1.409 . S
C1483 C1481 1.415 1_455 S
C1484 H1474 0.930 . S
C1484 C1482 1.419 . S
C1484 C1485 1.362 1_655 S
C1485 H1475 0.930 . S
C1485 C1478 1.409 . S
C1485 C1484 1.362 1_455 S
H1486 C1492 0.930 . S
H1487 C1495 0.930 . S
H1488 C1496 0.930 . S
H1489 C1497 0.930 . S
H1490 C1500 0.930 . S
H1491 C1501 0.930 . S
C1492 H1486 0.930 . S
C1492 C1493 1.355 . S
C1492 C1494 1.415 . S
C1493 C1492 1.355 . S
C1493 C1495 1.419 . S
C1494 C1492 1.415 . S
C1494 C1499 1.425 . S
C1494 C1501 1.409 . S
C1495 H1487 0.930 . S
C1495 C1493 1.419 . S
C1495 C1496 1.362 . S
C1496 H1488 0.930 . S
C1496 C1495 1.362 . S
C1496 C1499 1.409 . S
C1497 H1489 0.930 . S
C1497 C1498 1.355 . S
C1497 C1499 1.415 . S
C1498 C1497 1.355 . S
C1498 C1500 1.419 . S
C1499 C1494 1.425 . S
C1499 C1496 1.409 . S
C1499 C1497 1.415 . S
C1500 H1490 0.930 . S
C1500 C1498 1.419 . S
C1500 C1501 1.362 . S
C1501 H1491 0.930 . S
C1501 C1494 1.409 . S
C1501 C1500 1.362 . S
H1502 C1508 0.930 . S
H1503 C1511 0.930 . S
H1504 C1512 0.930 1_545 S
H1505 C1513 0.930 . S
H1506 C1516 0.930 . S
H1507 C1517 0.930 1_565 S
C1508 H1502 0.930 . S
C1508 C1509 1.355 . S
C1508 C1510 1.415 . S
C1509 C1508 1.355 . S
C1509 C1511 1.419 . S
C1510 C1508 1.415 . S
C1510 C1515 1.425 1_565 S
C1510 C1517 1.409 1_565 S
C1511 H1503 0.930 . S
C1511 C1509 1.419 . S
C1511 C1512 1.362 . S
C1512 H1504 0.930 1_565 S
C1512 C1511 1.362 . S
C1512 C1515 1.409 1_565 S
C1513 H1505 0.930 . S
C1513 C1514 1.355 . S
C1513 C1515 1.415 . S
C1514 C1513 1.355 . S
C1514 C1516 1.419 . S
C1515 C1510 1.425 1_545 S
C1515 C1512 1.409 1_545 S
C1515 C1513 1.415 . S
C1516 H1506 0.930 . S
C1516 C1514 1.419 . S
C1516 C1517 1.362 . S
C1517 H1507 0.930 1_545 S
C1517 C1510 1.409 1_545 S
C1517 C1516 1.362 . S
H1518 C1524 0.930 . S
H1519 C1527 0.930 . S
H1520 C1528 0.930 . S
H1521 C1529 0.930 . S
H1522 C1532 0.930 . S
H1523 C1533 0.930 . S
C1524 H1518 0.930 . S
C1524 C1525 1.355 . S
C1524 C1526 1.415 . S
C1525 C1524 1.355 . S
C1525 C1527 1.419 . S
C1526 C1524 1.415 . S
C1526 C1531 1.425 . S
C1526 C1533 1.409 . S
C1527 H1519 0.930 . S
C1527 C1525 1.419 . S
C1527 C1528 1.362 . S
C1528 H1520 0.930 . S
C1528 C1527 1.362 . S
C1528 C1531 1.409 . S
C1529 H1521 0.930 . S
C1529 C1530 1.355 . S
C1529 C1531 1.415 . S
C1530 C1529 1.355 . S
C1530 C1532 1.419 . S
C1531 C1526 1.425 . S
C1531 C1528 1.409 . S
C1531 C1529 1.415 . S
C1532 H1522 0.930 . S
C1532 C1530 1.419 . S
C1532 C1533 1.362 . S
C1533 H1523 0.930 . S
C1533 C1526 1.409 . S
C1533 C1532 1.362 . S
H1534 C1540 0.930 . S
H1535 C1543 0.930 . S
H1536 C1544 0.930 . S
H1537 C1545 0.930 . S
H1538 C1548 0.930 . S
H1539 C1549 0.930 . S
C1540 H1534 0.930 . S
C1540 C1541 1.355 . S
C1540 C1542 1.415 . S
C1541 C1540 1.355 . S
C1541 C1543 1.419 . S
C1542 C1540 1.415 . S
C1542 C1547 1.425 . S
C1542 C1549 1.409 . S
C1543 H1535 0.930 . S
C1543 C1541 1.419 . S
C1543 C1544 1.362 . S
C1544 H1536 0.930 . S
C1544 C1543 1.362 . S
C1544 C1547 1.409 . S
C1545 H1537 0.930 . S
C1545 C1546 1.355 . S
C1545 C1547 1.415 . S
C1546 C1545 1.355 . S
C1546 C1548 1.419 . S
C1547 C1542 1.425 . S
C1547 C1544 1.409 . S
C1547 C1545 1.415 . S
C1548 H1538 0.930 . S
C1548 C1546 1.419 . S
C1548 C1549 1.362 . S
C1549 H1539 0.930 . S
C1549 C1542 1.409 . S
C1549 C1548 1.362 . S
H1550 C1556 0.930 . S
H1551 C1559 0.930 . S
H1552 C1560 0.930 . S
H1553 C1561 0.930 . S
H1554 C1564 0.930 . S
H1555 C1565 0.930 . S
C1556 H1550 0.930 . S
C1556 C1557 1.355 . S
C1556 C1558 1.415 . S
C1557 C1556 1.355 . S
C1557 C1559 1.419 . S
C1558 C1556 1.415 . S
C1558 C1563 1.425 . S
C1558 C1565 1.409 . S
C1559 H1551 0.930 . S
C1559 C1557 1.419 . S
C1559 C1560 1.362 . S
C1560 H1552 0.930 . S
C1560 C1559 1.362 . S
C1560 C1563 1.409 . S
C1561 H1553 0.930 . S
C1561 C1562 1.355 . S
C1561 C1563 1.415 . S
C1562 C1561 1.355 . S
C1562 C1564 1.419 . S
C1563 C1558 1.425 . S
C1563 C1560 1.409 . S
C1563 C1561 1.415 . S
C1564 H1554 0.930 . S
C1564 C1562 1.419 . S
C1564 C1565 1.362 . S
C1565 H1555 0.930 . S
C1565 C1558 1.409 . S
C1565 C1564 1.362 . S
H1566 C1572 0.930 . S
H1567 C1575 0.930 . S
H1568 C1576 0.930 . S
H1569 C1577 0.930 . S
H1570 C1580 0.930 . S
H1571 C1581 0.930 . S
C1572 H1566 0.930 . S
C1572 C1573 1.355 . S
C1572 C1574 1.415 . S
C1573 C1572 1.355 . S
C1573 C1575 1.419 . S
C1574 C1572 1.415 . S
C1574 C1579 1.425 . S
C1574 C1581 1.409 . S
C1575 H1567 0.930 . S
C1575 C1573 1.419 . S
C1575 C1576 1.362 . S
C1576 H1568 0.930 . S
C1576 C1575 1.362 . S
C1576 C1579 1.409 . S
C1577 H1569 0.930 . S
C1577 C1578 1.355 . S
C1577 C1579 1.415 . S
C1578 C1577 1.355 . S
C1578 C1580 1.419 . S
C1579 C1574 1.425 . S
C1579 C1576 1.409 . S
C1579 C1577 1.415 . S
C1580 H1570 0.930 . S
C1580 C1578 1.419 . S
C1580 C1581 1.362 . S
C1581 H1571 0.930 . S
C1581 C1574 1.409 . S
C1581 C1580 1.362 . S
H1582 C1588 0.930 . S
H1583 C1591 0.930 . S
H1584 C1592 0.930 . S
H1585 C1593 0.930 . S
H1586 C1596 0.931 . S
H1587 C1597 0.933 1_655 S
C1588 H1582 0.930 . S
C1588 C1589 1.355 . S
C1588 C1590 1.415 . S
C1589 C1588 1.355 . S
C1589 C1591 1.419 . S
C1590 C1588 1.415 . S
C1590 C1595 1.425 . S
C1590 C1597 1.409 . S
C1591 H1583 0.930 . S
C1591 C1589 1.419 . S
C1591 C1592 1.362 . S
C1592 H1584 0.930 . S
C1592 C1591 1.362 . S
C1592 C1595 1.409 . S
C1593 H1585 0.930 . S
C1593 C1594 1.355 . S
C1593 C1595 1.415 . S
C1594 C1593 1.355 . S
C1594 C1596 1.419 . S
C1595 C1590 1.425 . S
C1595 C1592 1.409 . S
C1595 C1593 1.415 . S
C1596 H1586 0.931 . S
C1596 C1594 1.419 . S
C1596 C1597 1.362 . S
C1597 H1587 0.933 1_455 S
C1597 C1590 1.409 . S
C1597 C1596 1.362 . S
H1598 C1604 0.930 . S
H1599 C1607 0.930 . S
H1600 C1608 0.930 . S
H1601 C1609 0.930 . S
H1602 C1612 0.930 . S
H1603 C1613 0.930 . S
C1604 H1598 0.930 . S
C1604 C1605 1.355 . S
C1604 C1606 1.415 . S
C1605 C1604 1.355 . S
C1605 C1607 1.419 . S
C1606 C1604 1.415 . S
C1606 C1611 1.425 . S
C1606 C1613 1.409 . S
C1607 H1599 0.930 . S
C1607 C1605 1.419 . S
C1607 C1608 1.362 . S
C1608 H1600 0.930 . S
C1608 C1607 1.362 . S
C1608 C1611 1.409 . S
C1609 H1601 0.930 . S
C1609 C1610 1.355 . S
C1609 C1611 1.415 . S
C1610 C1609 1.355 . S
C1610 C1612 1.419 . S
C1611 C1606 1.425 . S
C1611 C1608 1.409 . S
C1611 C1609 1.415 . S
C1612 H1602 0.930 . S
C1612 C1610 1.419 . S
C1612 C1613 1.362 . S
C1613 H1603 0.930 . S
C1613 C1606 1.409 . S
C1613 C1612 1.362 . S
H1614 C1620 0.930 . S
H1615 C1623 0.930 . S
H1616 C1624 0.930 . S
H1617 C1625 0.930 . S
H1618 C1628 0.930 . S
H1619 C1629 0.930 . S
C1620 H1614 0.930 . S
C1620 C1621 1.355 . S
C1620 C1622 1.415 . S
C1621 C1620 1.355 . S
C1621 C1623 1.419 . S
C1622 C1620 1.415 . S
C1622 C1627 1.425 . S
C1622 C1629 1.409 . S
C1623 H1615 0.930 . S
C1623 C1621 1.419 . S
C1623 C1624 1.362 . S
C1624 H1616 0.930 . S
C1624 C1623 1.362 . S
C1624 C1627 1.409 . S
C1625 H1617 0.930 . S
C1625 C1626 1.355 . S
C1625 C1627 1.415 . S
C1626 C1625 1.355 . S
C1626 C1628 1.419 . S
C1627 C1622 1.425 . S
C1627 C1624 1.409 . S
C1627 C1625 1.415 . S
C1628 H1618 0.930 . S
C1628 C1626 1.419 . S
C1628 C1629 1.362 . S
C1629 H1619 0.930 . S
C1629 C1622 1.409 . S
C1629 C1628 1.362 . S
H1630 C1636 0.930 . S
H1631 C1639 0.930 . S
H1632 C1640 0.930 . S
H1633 C1641 0.930 . S
H1634 C1644 0.930 . S
H1635 C1645 0.930 . S
C1636 H1630 0.930 . S
C1636 C1637 1.355 . S
C1636 C1638 1.415 . S
C1637 C1636 1.355 . S
C1637 C1639 1.419 . S
C1638 C1636 1.415 . S
C1638 C1643 1.425 . S
C1638 C1645 1.409 . S
C1639 H1631 0.930 . S
C1639 C1637 1.419 . S
C1639 C1640 1.362 . S
C1640 H1632 0.930 . S
C1640 C1639 1.362 . S
C1640 C1643 1.409 . S
C1641 H1633 0.930 . S
C1641 C1642 1.355 . S
C1641 C1643 1.415 . S
C1642 C1641 1.355 . S
C1642 C1644 1.419 . S
C1643 C1638 1.425 . S
C1643 C1640 1.409 . S
C1643 C1641 1.415 . S
C1644 H1634 0.930 . S
C1644 C1642 1.419 . S
C1644 C1645 1.362 . S
C1645 H1635 0.930 . S
C1645 C1638 1.409 . S
C1645 C1644 1.362 . S
H1646 C1652 0.930 . S
H1647 C1655 0.930 . S
H1648 C1656 0.930 . S
H1649 C1657 0.930 . S
H1650 C1660 0.930 . S
H1651 C1661 0.930 . S
C1652 H1646 0.930 . S
C1652 C1653 1.355 . S
C1652 C1654 1.415 . S
C1653 C1652 1.355 . S
C1653 C1655 1.419 . S
C1654 C1652 1.415 . S
C1654 C1659 1.425 . S
C1654 C1661 1.409 . S
C1655 H1647 0.930 . S
C1655 C1653 1.419 . S
C1655 C1656 1.362 . S
C1656 H1648 0.930 . S
C1656 C1655 1.362 . S
C1656 C1659 1.409 . S
C1657 H1649 0.930 . S
C1657 C1658 1.355 . S
C1657 C1659 1.415 . S
C1658 C1657 1.355 . S
C1658 C1660 1.419 . S
C1659 C1654 1.425 . S
C1659 C1656 1.409 . S
C1659 C1657 1.415 . S
C1660 H1650 0.930 . S
C1660 C1658 1.419 . S
C1660 C1661 1.362 . S
C1661 H1651 0.930 . S
C1661 C1654 1.409 . S
C1661 C1660 1.362 . S
H1662 C1668 0.930 . S
H1663 C1671 0.930 . S
H1664 C1672 0.930 . S
H1665 C1673 0.930 . S
H1666 C1676 0.930 . S
H1667 C1677 0.930 . S
C1668 H1662 0.930 . S
C1668 C1669 1.355 . S
C1668 C1670 1.415 . S
C1669 C1668 1.355 . S
C1669 C1671 1.419 . S
C1670 C1668 1.415 . S
C1670 C1675 1.425 . S
C1670 C1677 1.409 . S
C1671 H1663 0.930 . S
C1671 C1669 1.419 . S
C1671 C1672 1.362 . S
C1672 H1664 0.930 . S
C1672 C1671 1.362 . S
C1672 C1675 1.409 . S
C1673 H1665 0.930 . S
C1673 C1674 1.355 . S
C1673 C1675 1.415 . S
C1674 C1673 1.355 . S
C1674 C1676 1.419 . S
C1675 C1670 1.425 . S
C1675 C1672 1.409 . S
C1675 C1673 1.415 . S
C1676 H1666 0.930 . S
C1676 C1674 1.419 . S
C1676 C1677 1.362 . S
C1677 H1667 0.930 . S
C1677 C1670 1.409 . S
C1677 C1676 1.362 . S
H1678 C1684 0.930 . S
H1679 C1687 0.930 . S
H1680 C1688 0.930 . S
H1681 C1689 0.930 . S
H1682 C1692 0.930 . S
H1683 C1693 0.930 . S
C1684 H1678 0.930 . S
C1684 C1685 1.355 . S
C1684 C1686 1.415 . S
C1685 C1684 1.355 . S
C1685 C1687 1.419 . S
C1686 C1684 1.415 . S
C1686 C1691 1.425 . S
C1686 C1693 1.409 . S
C1687 H1679 0.930 . S
C1687 C1685 1.419 . S
C1687 C1688 1.362 . S
C1688 H1680 0.930 . S
C1688 C1687 1.362 . S
C1688 C1691 1.409 . S
C1689 H1681 0.930 . S
C1689 C1690 1.355 . S
C1689 C1691 1.415 . S
C1690 C1689 1.355 . S
C1690 C1692 1.419 . S
C1691 C1686 1.425 . S
C1691 C1688 1.409 . S
C1691 C1689 1.415 . S
C1692 H1682 0.930 . S
C1692 C1690 1.419 . S
C1692 C1693 1.362 . S
C1693 H1683 0.930 . S
C1693 C1686 1.409 . S
C1693 C1692 1.362 . S
H1694 C1700 0.930 . S
H1695 C1703 0.930 . S
H1696 C1704 0.930 . S
H1697 C1705 0.930 . S
H1698 C1708 0.930 . S
H1699 C1709 0.930 . S
C1700 H1694 0.930 . S
C1700 C1701 1.355 . S
C1700 C1702 1.415 . S
C1701 C1700 1.355 . S
C1701 C1703 1.419 . S
C1702 C1700 1.415 . S
C1702 C1707 1.425 . S
C1702 C1709 1.409 . S
C1703 H1695 0.930 . S
C1703 C1701 1.419 . S
C1703 C1704 1.362 . S
C1704 H1696 0.930 . S
C1704 C1703 1.362 . S
C1704 C1707 1.409 . S
C1705 H1697 0.930 . S
C1705 C1706 1.355 . S
C1705 C1707 1.415 . S
C1706 C1705 1.355 . S
C1706 C1708 1.419 . S
C1707 C1702 1.425 . S
C1707 C1704 1.409 . S
C1707 C1705 1.415 . S
C1708 H1698 0.930 . S
C1708 C1706 1.419 . S
C1708 C1709 1.362 . S
C1709 H1699 0.930 . S
C1709 C1702 1.409 . S
C1709 C1708 1.362 . S
H1710 C1716 0.930 . S
H1711 C1719 0.930 . S
H1712 C1720 0.930 . S
H1713 C1721 0.930 . S
H1714 C1724 0.930 . S
H1715 C1725 0.930 . S
C1716 H1710 0.930 . S
C1716 C1717 1.355 . S
C1716 C1718 1.415 . S
C1717 C1716 1.355 . S
C1717 C1719 1.419 . S
C1718 C1716 1.415 . S
C1718 C1723 1.425 . S
C1718 C1725 1.409 . S
C1719 H1711 0.930 . S
C1719 C1717 1.419 . S
C1719 C1720 1.362 . S
C1720 H1712 0.930 . S
C1720 C1719 1.362 . S
C1720 C1723 1.409 . S
C1721 H1713 0.930 . S
C1721 C1722 1.355 . S
C1721 C1723 1.415 . S
C1722 C1721 1.355 . S
C1722 C1724 1.419 . S
C1723 C1718 1.425 . S
C1723 C1720 1.409 . S
C1723 C1721 1.415 . S
C1724 H1714 0.930 . S
C1724 C1722 1.419 . S
C1724 C1725 1.362 . S
C1725 H1715 0.930 . S
C1725 C1718 1.409 . S
C1725 C1724 1.362 . S
H1726 C1732 0.930 . S
H1727 C1735 0.930 . S
H1728 C1736 0.930 . S
H1729 C1737 0.930 . S
H1730 C1740 0.930 . S
H1731 C1741 0.930 . S
C1732 H1726 0.930 . S
C1732 C1733 1.355 . S
C1732 C1734 1.415 . S
C1733 C1732 1.355 . S
C1733 C1735 1.419 . S
C1734 C1732 1.415 . S
C1734 C1739 1.425 . S
C1734 C1741 1.409 . S
C1735 H1727 0.930 . S
C1735 C1733 1.419 . S
C1735 C1736 1.362 . S
C1736 H1728 0.930 . S
C1736 C1735 1.362 . S
C1736 C1739 1.409 . S
C1737 H1729 0.930 . S
C1737 C1738 1.355 . S
C1737 C1739 1.415 . S
C1738 C1737 1.355 . S
C1738 C1740 1.419 . S
C1739 C1734 1.425 . S
C1739 C1736 1.409 . S
C1739 C1737 1.415 . S
C1740 H1730 0.930 . S
C1740 C1738 1.419 . S
C1740 C1741 1.362 . S
C1741 H1731 0.930 . S
C1741 C1734 1.409 . S
C1741 C1740 1.362 . S
H1742 C1748 0.930 . S
H1743 C1751 0.930 . S
H1744 C1752 0.930 . S
H1745 C1753 0.930 . S
H1746 C1756 0.930 . S
H1747 C1757 0.930 . S
C1748 H1742 0.930 . S
C1748 C1749 1.355 . S
C1748 C1750 1.415 . S
C1749 C1748 1.355 . S
C1749 C1751 1.419 . S
C1750 C1748 1.415 . S
C1750 C1755 1.425 . S
C1750 C1757 1.409 . S
C1751 H1743 0.930 . S
C1751 C1749 1.419 . S
C1751 C1752 1.362 . S
C1752 H1744 0.930 . S
C1752 C1751 1.362 . S
C1752 C1755 1.409 . S
C1753 H1745 0.930 . S
C1753 C1754 1.355 . S
C1753 C1755 1.415 . S
C1754 C1753 1.355 . S
C1754 C1756 1.419 . S
C1755 C1750 1.425 . S
C1755 C1752 1.409 . S
C1755 C1753 1.415 . S
C1756 H1746 0.930 . S
C1756 C1754 1.419 . S
C1756 C1757 1.362 . S
C1757 H1747 0.930 . S
C1757 C1750 1.409 . S
C1757 C1756 1.362 . S
H1758 C1764 0.930 . S
H1759 C1767 0.930 . S
H1760 C1768 0.930 . S
H1761 C1769 0.930 . S
H1762 C1772 0.930 . S
H1763 C1773 0.930 . S
C1764 H1758 0.930 . S
C1764 C1765 1.355 . S
C1764 C1766 1.415 . S
C1765 C1764 1.355 . S
C1765 C1767 1.419 . S
C1766 C1764 1.415 . S
C1766 C1771 1.425 . S
C1766 C1773 1.409 . S
C1767 H1759 0.930 . S
C1767 C1765 1.419 . S
C1767 C1768 1.362 . S
C1768 H1760 0.930 . S
C1768 C1767 1.362 . S
C1768 C1771 1.409 . S
C1769 H1761 0.930 . S
C1769 C1770 1.355 . S
C1769 C1771 1.415 . S
C1770 C1769 1.355 . S
C1770 C1772 1.419 . S
C1771 C1766 1.425 . S
C1771 C1768 1.409 . S
C1771 C1769 1.415 . S
C1772 H1762 0.930 . S
C1772 C1770 1.419 . S
C1772 C1773 1.362 . S
C1773 H1763 0.930 . S
C1773 C1766 1.409 . S
C1773 C1772 1.362 . S
H1774 C1780 0.930 . S
H1775 C1783 0.930 . S
H1776 C1784 0.930 . S
H1777 C1785 0.930 . S
H1778 C1788 0.930 . S
H1779 C1789 0.930 . S
C1780 H1774 0.930 . S
C1780 C1781 1.355 . S
C1780 C1782 1.415 . S
C1781 C1780 1.355 . S
C1781 C1783 1.419 . S
C1782 C1780 1.415 . S
C1782 C1787 1.425 . S
C1782 C1789 1.409 . S
C1783 H1775 0.930 . S
C1783 C1781 1.419 . S
C1783 C1784 1.362 . S
C1784 H1776 0.930 . S
C1784 C1783 1.362 . S
C1784 C1787 1.409 . S
C1785 H1777 0.930 . S
C1785 C1786 1.355 . S
C1785 C1787 1.415 . S
C1786 C1785 1.355 . S
C1786 C1788 1.419 . S
C1787 C1782 1.425 . S
C1787 C1784 1.409 . S
C1787 C1785 1.415 . S
C1788 H1778 0.930 . S
C1788 C1786 1.419 . S
C1788 C1789 1.362 . S
C1789 H1779 0.930 . S
C1789 C1782 1.409 . S
C1789 C1788 1.362 . S
H1790 C1796 0.930 . S
H1791 C1799 0.930 . S
H1792 C1800 0.930 . S
H1793 C1801 0.930 . S
H1794 C1804 0.930 . S
H1795 C1805 0.930 . S
C1796 H1790 0.930 . S
C1796 C1797 1.355 . S
C1796 C1798 1.415 . S
C1797 C1796 1.355 . S
C1797 C1799 1.419 . S
C1798 C1796 1.415 . S
C1798 C1803 1.425 . S
C1798 C1805 1.409 . S
C1799 H1791 0.930 . S
C1799 C1797 1.419 . S
C1799 C1800 1.362 . S
C1800 H1792 0.930 . S
C1800 C1799 1.362 . S
C1800 C1803 1.409 . S
C1801 H1793 0.930 . S
C1801 C1802 1.355 . S
C1801 C1803 1.415 . S
C1802 C1801 1.355 . S
C1802 C1804 1.419 . S
C1803 C1798 1.425 . S
C1803 C1800 1.409 . S
C1803 C1801 1.415 . S
C1804 H1794 0.930 . S
C1804 C1802 1.419 . S
C1804 C1805 1.362 . S
C1805 H1795 0.930 . S
C1805 C1798 1.409 . S
C1805 C1804 1.362 . S
H1806 C1812 0.930 . S
H1807 C1815 0.930 . S
H1808 C1816 0.930 . S
H1809 C1817 0.930 . S
H1810 C1820 0.930 . S
H1811 C1821 0.930 . S
C1812 H1806 0.930 . S
C1812 C1813 1.355 . S
C1812 C1814 1.415 . S
C1813 C1812 1.355 . S
C1813 C1815 1.419 . S
C1814 C1812 1.415 . S
C1814 C1819 1.425 . S
C1814 C1821 1.409 . S
C1815 H1807 0.930 . S
C1815 C1813 1.419 . S
C1815 C1816 1.362 . S
C1816 H1808 0.930 . S
C1816 C1815 1.362 . S
C1816 C1819 1.409 . S
C1817 H1809 0.930 . S
C1817 C1818 1.355 . S
C1817 C1819 1.415 . S
C1818 C1817 1.355 . S
C1818 C1820 1.419 . S
C1819 C1814 1.425 . S
C1819 C1816 1.409 . S
C1819 C1817 1.415 . S
C1820 H1810 0.930 . S
C1820 C1818 1.419 . S
C1820 C1821 1.362 . S
C1821 H1811 0.930 . S
C1821 C1814 1.409 . S
C1821 C1820 1.362 . S
H1822 C1828 0.930 . S
H1823 C1831 0.930 . S
H1824 C1832 0.930 . S
H1825 C1833 0.930 . S
H1826 C1836 0.930 . S
H1827 C1837 0.930 . S
C1828 H1822 0.930 . S
C1828 C1829 1.355 . S
C1828 C1830 1.415 . S
C1829 C1828 1.355 . S
C1829 C1831 1.419 . S
C1830 C1828 1.415 . S
C1830 C1835 1.425 . S
C1830 C1837 1.409 . S
C1831 H1823 0.930 . S
C1831 C1829 1.419 . S
C1831 C1832 1.362 . S
C1832 H1824 0.930 . S
C1832 C1831 1.362 . S
C1832 C1835 1.409 . S
C1833 H1825 0.930 . S
C1833 C1834 1.355 . S
C1833 C1835 1.415 . S
C1834 C1833 1.355 . S
C1834 C1836 1.419 . S
C1835 C1830 1.425 . S
C1835 C1832 1.409 . S
C1835 C1833 1.415 . S
C1836 H1826 0.930 . S
C1836 C1834 1.419 . S
C1836 C1837 1.362 . S
C1837 H1827 0.930 . S
C1837 C1830 1.409 . S
C1837 C1836 1.362 . S
H1838 C1844 0.930 . S
H1839 C1847 0.930 . S
H1840 C1848 0.930 . S
H1841 C1849 0.930 . S
H1842 C1852 0.930 . S
H1843 C1853 0.930 . S
C1844 H1838 0.930 . S
C1844 C1845 1.355 . S
C1844 C1846 1.415 . S
C1845 C1844 1.355 . S
C1845 C1847 1.419 . S
C1846 C1844 1.415 . S
C1846 C1851 1.425 . S
C1846 C1853 1.409 . S
C1847 H1839 0.930 . S
C1847 C1845 1.419 . S
C1847 C1848 1.362 . S
C1848 H1840 0.930 . S
C1848 C1847 1.362 . S
C1848 C1851 1.409 . S
C1849 H1841 0.930 . S
C1849 C1850 1.355 . S
C1849 C1851 1.415 . S
C1850 C1849 1.355 . S
C1850 C1852 1.419 . S
C1851 C1846 1.425 . S
C1851 C1848 1.409 . S
C1851 C1849 1.415 . S
C1852 H1842 0.930 . S
C1852 C1850 1.419 . S
C1852 C1853 1.362 . S
C1853 H1843 0.930 . S
C1853 C1846 1.409 . S
C1853 C1852 1.362 . S
C997 N170 1.951 . S
C1002 C301 1.879 . S
C1013 N184 0.998 . S
C1018 C385 1.051 . S
C1029 N158 1.551 . S
C1034 C465 1.508 . S
C1045 N145 1.529 . S
C1050 C381 1.517 1_556 S
C1066 C469 0.907 . S
C1061 N119 1.006 . S
C1077 N131 1.868 . S
C1082 C297 1.823 1_556 S
C1098 C290 1.533 . S
C1093 N144 1.623 . S
C1114 C374 1.404 . S
C1109 N118 1.399 . S
C1125 N132 1.450 . S
C1130 C476 1.453 . S
C1141 N171 1.424 . S
C1146 C392 1.425 . S
C1157 N183 1.315 . S
C1162 C458 1.299 . S
C1178 C308 1.529 . S
C1173 N157 1.586 . S
C1194 C553 1.825 . S
C1189 N14 1.915 . S
C1205 N28 1.005 . S
C1210 C637 0.974 . S
C1221 N2 1.554 . S
C1226 C717 1.513 . S
C1237 N223 1.522 . S
C1242 C633 1.476 . S
C1253 N197 0.957 . S
C1258 C721 0.923 . S
C1269 N209 1.869 . S
C1274 C549 1.829 . S
C1285 N222 1.632 . S
C1290 C542 1.588 . S
C1301 N196 1.369 . S
C1306 C626 1.339 . S
C1322 C728 1.439 . S
C1317 N210 1.451 . S
C1333 N15 1.440 . S
C1338 C644 1.440 . S
C1354 C710 1.327 . S
C1349 N27 1.367 . S
C1365 N1 1.583 . S
C1370 C560 1.527 . S
C1386 C805 1.847 . S
C1381 N92 1.914 . S
C1397 N106 0.990 . S
C1402 C889 1.032 . S
C1418 C969 1.552 . S
C1413 N80 1.564 . S
C1434 C885 1.483 . S
C1429 N67 1.528 . S
C1450 C973 0.988 . S
C1445 N41 0.990 . S
C1461 N53 1.881 . S
C1466 C801 1.852 . S
C1477 N66 1.625 . S
C1482 C794 1.559 . S
C1493 N40 1.406 . S
C1498 C878 1.403 . S
C1514 C980 1.449 . S
C1509 N54 1.445 . S
C1525 N93 1.437 . S
C1530 C896 1.427 . S
C1541 N105 1.369 . S
C1546 C962 1.342 . S
C1557 N79 1.586 . S
C1562 C812 1.529 . S
C1573 N200 1.278 . S
C1578 C304 1.217 . S
C1594 C388 1.544 . S
C1589 N213 1.749 . S
C1605 N226 1.514 . S
C1610 C460 1.379 . S
C1621 N83 1.531 . S
C1626 C376 1.430 . S
C1637 N96 1.721 . S
C1642 C472 1.510 . S
C1658 C292 1.158 . S
C1653 N109 1.294 . S
C1669 N44 1.283 . S
C1674 C556 1.208 . S
C1685 N57 1.716 . S
C1690 C640 1.501 . S
C1701 N70 1.500 . S
C1706 C712 1.330 . S
C1717 N161 1.540 . S
C1722 C628 1.390 . S
C1738 C724 1.595 . S
C1733 N174 1.733 . S
C1749 N187 1.280 . S
C1754 C544 1.229 . S
C1765 N122 1.309 . S
C1770 C808 1.110 . S
C1781 N135 1.720 . S
C1786 C892 1.546 . S
C1802 C964 1.384 . S
C1797 N148 1.494 . S
C1813 N5 1.538 . S
C1818 C880 1.383 . S
C1829 N18 1.714 . S
C1834 C976 1.496 . S
C1845 N31 1.329 . S
C1850 C796 1.173 . S
