# Generated by pormake.
# Topology zzz, (3,6)-cn, num edge types: 1
# Building blocks:
#     Node 0, Type 0, BuildingBlock: CUQRIR_clean_linker_1, # of connection points: 3
#     Node 1, Type 0, BuildingBlock: CUQRIR_clean_linker_1, # of connection points: 3
#     Node 2, Type 0, BuildingBlock: CUQRIR_clean_linker_1, # of connection points: 3
#     Node 3, Type 0, BuildingBlock: CUQRIR_clean_linker_1, # of connection points: 3
#     Node 4, Type 0, BuildingBlock: CUQRIR_clean_linker_1, # of connection points: 3
#     Node 5, Type 0, BuildingBlock: CUQRIR_clean_linker_1, # of connection points: 3
#     Node 6, Type 0, BuildingBlock: CUQRIR_clean_linker_1, # of connection points: 3
#     Node 7, Type 0, BuildingBlock: CUQRIR_clean_linker_1, # of connection points: 3
#     Node 8, Type 1, BuildingBlock: KUMBUR_clean_sbu_1, # of connection points: 6
#     Node 9, Type 1, BuildingBlock: KUMBUR_clean_sbu_1, # of connection points: 6
#     Node 10, Type 1, BuildingBlock: KUMBUR_clean_sbu_1, # of connection points: 6
#     Node 11, Type 1, BuildingBlock: KUMBUR_clean_sbu_1, # of connection points: 6
#     Edge 12, Type (0, 1), BuildingBlock: MIFKUJ_clean_linker_0, # of connection points: 2
#     Edge 13, Type (0, 1), BuildingBlock: MIFKUJ_clean_linker_0, # of connection points: 2
#     Edge 14, Type (0, 1), BuildingBlock: MIFKUJ_clean_linker_0, # of connection points: 2
#     Edge 15, Type (0, 1), BuildingBlock: MIFKUJ_clean_linker_0, # of connection points: 2
#     Edge 16, Type (0, 1), BuildingBlock: MIFKUJ_clean_linker_0, # of connection points: 2
#     Edge 17, Type (0, 1), BuildingBlock: MIFKUJ_clean_linker_0, # of connection points: 2
#     Edge 18, Type (0, 1), BuildingBlock: MIFKUJ_clean_linker_0, # of connection points: 2
#     Edge 19, Type (0, 1), BuildingBlock: MIFKUJ_clean_linker_0, # of connection points: 2
#     Edge 20, Type (0, 1), BuildingBlock: MIFKUJ_clean_linker_0, # of connection points: 2
#     Edge 21, Type (0, 1), BuildingBlock: MIFKUJ_clean_linker_0, # of connection points: 2
#     Edge 22, Type (0, 1), BuildingBlock: MIFKUJ_clean_linker_0, # of connection points: 2
#     Edge 23, Type (0, 1), BuildingBlock: MIFKUJ_clean_linker_0, # of connection points: 2
#     Edge 24, Type (0, 1), BuildingBlock: MIFKUJ_clean_linker_0, # of connection points: 2
#     Edge 25, Type (0, 1), BuildingBlock: MIFKUJ_clean_linker_0, # of connection points: 2
#     Edge 26, Type (0, 1), BuildingBlock: MIFKUJ_clean_linker_0, # of connection points: 2
#     Edge 27, Type (0, 1), BuildingBlock: MIFKUJ_clean_linker_0, # of connection points: 2
#     Edge 28, Type (0, 1), BuildingBlock: MIFKUJ_clean_linker_0, # of connection points: 2
#     Edge 29, Type (0, 1), BuildingBlock: MIFKUJ_clean_linker_0, # of connection points: 2
#     Edge 30, Type (0, 1), BuildingBlock: MIFKUJ_clean_linker_0, # of connection points: 2
#     Edge 31, Type (0, 1), BuildingBlock: MIFKUJ_clean_linker_0, # of connection points: 2
#     Edge 32, Type (0, 1), BuildingBlock: MIFKUJ_clean_linker_0, # of connection points: 2
#     Edge 33, Type (0, 1), BuildingBlock: MIFKUJ_clean_linker_0, # of connection points: 2
#     Edge 34, Type (0, 1), BuildingBlock: MIFKUJ_clean_linker_0, # of connection points: 2
#     Edge 35, Type (0, 1), BuildingBlock: MIFKUJ_clean_linker_0, # of connection points: 2
# Relax obj value: 0.170
# Max RMSD: 0.096
# Mean RMSD: 0.084
data_MOF--net-zzz--node1-KUMBUR_clean_sbu_1--node2-CUQRIR_clean_linker_1--edge1-MIFKUJ_clean_linker_0
_symmetry_space_group_name_H-M    P1
_symmetry_Int_Tables_number       1
_symmetry_cell_setting            triclinic
loop_
_symmetry_equiv_pos_as_xyz
'x, y, z'
_cell_length_a     62.418724
_cell_length_b     62.439749
_cell_length_c     18.859309
_cell_angle_alpha  89.98571
_cell_angle_beta   89.93747
_cell_angle_gamma 90.394706
loop_
_atom_site_label
_atom_site_type_symbol
_atom_site_fract_x
_atom_site_fract_y
_atom_site_fract_z
_atom_type_partial_charge
C0 C 0.74888 0.52905 0.26538 0.0
N1 N 0.76983 0.53589 0.26686 0.0
N2 N 0.73867 0.53574 0.20476 0.0
C3 C 0.73834 0.51631 0.32303 0.0
C4 C 0.75428 0.54649 0.16953 0.0
N5 N 0.77279 0.54673 0.20689 0.0
C6 C 0.75192 0.55519 0.09536 0.0
H7 H 0.74142 0.49907 0.31369 0.0
H8 H 0.72076 0.51886 0.32293 0.0
H9 H 0.74516 0.5207 0.37541 0.0
H10 H 0.7478 0.57242 0.0985 0.0
H11 H 0.73903 0.54673 0.06587 0.0
H12 H 0.7671 0.55369 0.06514 0.0
C13 C 1.00795 0.75196 0.24069 0.0
N14 N 1.00034 0.77231 0.24891 0.0
N15 N 0.99845 0.7418 0.18425 0.0
C16 C 0.02473 0.74214 0.28685 0.0
C17 C 0.98508 0.75698 0.15834 0.0
N18 N 0.98612 0.77518 0.19743 0.0
C19 C 0.97155 0.75418 0.09288 0.0
H20 H 0.04072 0.7455 0.26339 0.0
H21 H 0.02248 0.72452 0.2898 0.0
H22 H 0.02429 0.7492 0.34084 0.0
H23 H 0.95764 0.74373 0.1057 0.0
H24 H 0.98096 0.74619 0.05062 0.0
H25 H 0.96532 0.7696 0.07275 0.0
C26 C 0.78221 1.00654 0.24839 0.0
N27 N 0.76112 1.0006 0.24164 0.0
N28 N 0.79405 1.00023 0.19068 0.0
C29 C 0.79079 0.01974 0.30832 0.0
C30 C 0.77938 0.99039 0.14912 0.0
N31 N 0.75977 0.99058 0.1795 0.0
C32 C 0.78409 0.98157 0.07648 0.0
H33 H 0.78358 0.03592 0.30608 0.0
H34 H 0.8085 0.02122 0.30545 0.0
H35 H 0.78602 0.01237 0.35955 0.0
H36 H 0.80021 0.9742 0.07508 0.0
H37 H 0.78397 0.99491 0.0376 0.0
H38 H 0.7719 0.9695 0.06046 0.0
C39 C 0.52575 0.78485 0.24729 0.0
N40 N 0.53577 0.76533 0.24818 0.0
N41 N 0.53305 0.79745 0.19253 0.0
C42 C 0.50901 0.79165 0.29936 0.0
C43 C 0.54754 0.78481 0.16002 0.0
N44 N 0.54935 0.76569 0.1936 0.0
C45 C 0.55815 0.79024 0.09016 0.0
H46 H 0.49313 0.78594 0.2806 0.0
H47 H 0.50858 0.80937 0.30365 0.0
H48 H 0.5121 0.78444 0.35214 0.0
H49 H 0.57532 0.79392 0.0996 0.0
H50 H 0.55079 0.80425 0.06388 0.0
H51 H 0.55716 0.77643 0.05326 0.0
C52 C 0.28589 0.50341 0.05828 0.0
N53 N 0.26623 0.49347 0.05525 0.0
N54 N 0.29921 0.49359 0.10615 0.0
C55 C 0.29177 0.523 0.01671 0.0
C56 C 0.28674 0.4776 0.13218 0.0
N57 N 0.26694 0.47767 0.10262 0.0
C58 C 0.29331 0.46303 0.19207 0.0
H59 H 0.28429 0.52238 0.96336 0.0
H60 H 0.30943 0.5246 0.01181 0.0
H61 H 0.28552 0.53728 0.04472 0.0
H62 H 0.29811 0.4728 0.23865 0.0
H63 H 0.30737 0.45348 0.17572 0.0
H64 H 0.28037 0.45171 0.20752 0.0
C65 C 0.03006 0.28674 0.05257 0.0
N66 N 0.03758 0.26612 0.0543 0.0
N67 N 0.03664 0.29819 0.11088 0.0
C68 C 0.01616 0.29563 0.9952 0.0
C69 C 0.04834 0.2838 0.14751 0.0
N70 N 0.04876 0.26455 0.11414 0.0
C71 C 0.05875 0.2883 0.21825 0.0
H72 H 0.0179 0.31331 0.99225 0.0
H73 H 0.99919 0.29173 0.00747 0.0
H74 H 0.02026 0.28834 0.94333 0.0
H75 H 0.05441 0.27563 0.25684 0.0
H76 H 0.05435 0.30407 0.24057 0.0
H77 H 0.0764 0.28805 0.21158 0.0
C78 C 0.24921 0.02911 0.07118 0.0
N79 N 0.27007 0.03608 0.06935 0.0
N80 N 0.23907 0.03571 0.13195 0.0
C81 C 0.23862 0.0165 0.01334 0.0
C82 C 0.25461 0.04665 0.16686 0.0
N83 N 0.27308 0.0469 0.12933 0.0
C84 C 0.252 0.05618 0.23966 0.0
H85 H 0.22098 0.01858 0.01482 0.0
H86 H 0.24224 0.99929 0.02102 0.0
H87 H 0.24501 0.02145 0.96084 0.0
H88 H 0.23986 0.04717 0.27098 0.0
H89 H 0.24649 0.07295 0.23414 0.0
H90 H 0.26742 0.05631 0.26889 0.0
C91 C 0.50696 0.25336 0.07358 0.0
N92 N 0.49951 0.274 0.0748 0.0
N93 N 0.49943 0.24174 0.13038 0.0
C94 C 0.52115 0.2445 0.01687 0.0
C95 C 0.4875 0.2562 0.16609 0.0
N96 N 0.48737 0.27543 0.13259 0.0
C97 C 0.4777 0.25202 0.23801 0.0
H98 H 0.51727 0.25181 0.96483 0.0
H99 H 0.51952 0.22682 0.01383 0.0
H100 H 0.53804 0.24855 0.02977 0.0
H101 H 0.48674 0.23969 0.26766 0.0
H102 H 0.461 0.24624 0.23081 0.0
H103 H 0.4773 0.26672 0.27057 0.0
Tb104 Tb 0.99538 0.02809 0.59184 0.0
C105 C 0.07165 0.03801 0.79075 0.0
N106 N 0.06859 0.02539 0.73275 0.0
C107 C 0.10428 0.03388 0.69289 0.0
C108 C 0.09085 0.0497 0.80057 0.0
C109 C 0.08517 0.02224 0.68641 0.0
C110 C 0.10702 0.04794 0.74962 0.0
C111 C 0.05873 0.05043 0.90495 0.0
C112 C 0.05585 0.03845 0.84232 0.0
C113 C 0.07752 0.06262 0.91388 0.0
C114 C 0.09352 0.06231 0.86171 0.0
Tb115 Tb 0.03651 1.00702 0.72959 0.0
N116 N 0.03769 0.02681 0.8313 0.0
C117 C 0.04284 0.04944 0.95728 0.0
C118 C 0.02272 0.02478 0.8839 0.0
C119 C 0.0249 0.03631 0.94706 0.0
H120 H 0.08426 1.01012 0.64605 0.0
H121 H 0.01287 0.03488 0.98813 0.0
H122 H 0.95257 1.00397 0.6563 0.0
H123 H 0.02717 0.03278 0.32456 0.0
H124 H 0.00921 0.01413 0.87754 0.0
H125 H 0.04452 0.0583 1.00639 0.0
H126 H 0.023 0.0443 0.44786 0.0
H127 H 0.11713 0.03153 0.65512 0.0
H128 H 0.07998 0.07207 0.96141 0.0
H129 H 0.10809 0.0715 0.86985 0.0
H130 H 0.92495 0.97846 0.61429 0.0
H131 H 0.12198 0.05669 0.7551 0.0
H132 H 1.00447 1.00356 0.27692 0.0
N133 N 0.97075 1.00272 0.56098 0.0
C134 C 0.97145 0.99596 0.4926 0.0
C135 C 0.93805 0.98308 0.57978 0.0
C136 C 0.95561 0.98204 0.46557 0.0
C137 C 0.95383 0.99732 0.60372 0.0
C138 C 0.93902 0.97527 0.51049 0.0
N139 N 1.00079 0.01944 0.47497 0.0
C140 C 0.01426 0.03035 0.43017 0.0
C141 C 0.98806 0.99814 0.3766 0.0
C142 C 0.98732 1.00418 0.44866 0.0
C143 C 1.00331 1.00784 0.33245 0.0
C144 C 0.01623 0.02426 0.35917 0.0
H145 H 0.92657 0.96452 0.4916 0.0
H146 H 0.94353 0.96641 0.37172 0.0
H147 H 0.97284 0.97914 0.29458 0.0
O148 O 0.97985 0.04818 0.51893 0.0
O149 O 0.99681 0.99282 0.61281 0.0
O150 O 0.03194 0.98615 0.6357 0.0
O151 O 0.96932 0.04632 0.62704 0.0
O152 O 0.02964 0.03565 0.56712 0.0
O153 O 0.04757 1.00757 0.61818 0.0
O154 O 0.03031 0.97976 0.7918 0.0
O155 O 0.02399 0.04014 0.74496 0.0
O156 O 0.01697 0.0533 0.63383 0.0
O157 O 0.06262 0.98965 0.76914 0.0
O158 O 1.00235 0.99961 0.75403 0.0
O159 O 0.98507 0.02801 0.70332 0.0
C160 C 0.01354 0.98014 0.60757 0.0
C161 C 0.96721 0.07968 0.57277 0.0
C162 C 0.98538 0.11405 0.5598 0.0
C163 C 0.96765 0.12418 0.59106 0.0
C164 C 0.94959 0.08995 0.60352 0.0
C165 C 0.9499 0.11213 0.61293 0.0
C166 C 0.98512 0.09174 0.55189 0.0
C167 C 0.04628 0.02264 0.56938 0.0
C168 C 0.96742 0.05631 0.56711 0.0
C169 C 0.95622 0.97616 0.39395 0.0
C170 C 0.9727 0.98373 0.34991 0.0
C171 C 0.02178 0.05647 0.70115 0.0
C172 C 0.05502 0.97817 0.88566 0.0
C173 C 0.04456 0.96771 1.00473 0.0
C174 C 0.0614 0.97993 0.03301 0.0
C175 C 0.07194 0.99046 0.91431 0.0
C176 C 0.04143 0.96689 0.93144 0.0
C177 C 0.07496 0.99143 0.9877 0.0
C178 C 0.98576 0.01262 0.75075 0.0
C179 C 0.0504 0.97786 0.80905 0.0
H180 H 0.96728 0.14142 0.5971 0.0
H181 H 0.93576 0.08078 0.62094 0.0
H182 H 0.93628 0.12002 0.63673 0.0
H183 H 0.999 0.08373 0.5301 0.0
H184 H 0.06415 0.98037 0.08971 0.0
H185 H 0.0827 0.99948 0.88035 0.0
H186 H 0.02852 0.95714 0.90996 0.0
H187 H 0.08793 1.00096 0.00941 0.0
Tb188 Tb 0.52544 0.03484 0.7325 0.0
C189 C 0.51172 0.94988 0.59939 0.0
N190 N 0.52319 0.96762 0.58001 0.0
C191 C 0.55402 0.94558 0.55948 0.0
C192 C 0.52128 0.9295 0.60263 0.0
C193 C 0.54377 0.96541 0.55626 0.0
C194 C 0.54284 0.92761 0.58384 0.0
C195 C 0.47752 0.93412 0.63372 0.0
C196 C 0.49009 0.95206 0.61452 0.0
C197 C 0.48711 0.91391 0.63842 0.0
C198 C 0.50894 0.91161 0.62304 0.0
Tb199 Tb 0.50409 0.99903 0.57925 0.0
N200 N 0.4815 0.97197 0.61218 0.0
C201 C 0.45575 0.93711 0.64838 0.0
C202 C 0.46011 0.97484 0.62346 0.0
C203 C 0.44698 0.95755 0.64267 0.0
H204 H 0.55229 0.97847 0.53197 0.0
H205 H 0.43008 0.95997 0.65252 0.0
H206 H 0.48174 0.06234 0.76638 0.0
H207 H 0.60812 0.06029 0.70208 0.0
H208 H 0.45299 0.99035 0.61665 0.0
H209 H 0.44556 0.92374 0.66346 0.0
H210 H 0.57936 0.03439 0.72449 0.0
H211 H 0.57043 0.94409 0.54166 0.0
H212 H 0.47778 0.89995 0.65363 0.0
H213 H 0.51607 0.89586 0.62621 0.0
H214 H 0.47088 0.10026 0.77035 0.0
H215 H 0.55079 0.91224 0.58559 0.0
H216 H 0.60001 0.09876 0.68884 0.0
N217 N 0.51361 0.0693 0.73298 0.0
C218 C 0.52863 0.08476 0.72207 0.0
C219 C 0.48712 0.09612 0.75588 0.0
C220 C 0.52328 0.10665 0.72486 0.0
C221 C 0.49326 0.07464 0.75295 0.0
C222 C 0.50213 0.11221 0.74096 0.0
N223 N 0.55423 0.0573 0.71448 0.0
C224 C 0.57515 0.05084 0.71428 0.0
C225 C 0.56583 0.09409 0.70201 0.0
C226 C 0.54958 0.07852 0.71098 0.0
C227 C 0.58706 0.08732 0.69603 0.0
C228 C 0.59172 0.06562 0.70318 0.0
H229 H 0.49737 0.12885 0.74373 0.0
H230 H 0.5355 0.1391 0.71522 0.0
H231 H 0.57288 0.12803 0.69693 0.0
O232 O 0.54268 0.04271 0.82495 0.0
O233 O 0.51019 0.0519 0.64127 0.0
O234 O 0.51696 0.03041 0.5457 0.0
O235 O 0.51023 0.02946 0.83104 0.0
O236 O 0.55011 0.01582 0.67538 0.0
O237 O 0.53716 0.01178 0.5621 0.0
O238 O 0.47887 1.00473 0.50882 0.0
O239 O 0.50329 0.98673 0.69002 0.0
O240 O 0.53395 1.00061 0.73547 0.0
O241 O 0.50511 0.98447 0.4788 0.0
O242 O 0.4793 0.01966 0.62951 0.0
O243 O 0.49211 0.02342 0.74314 0.0
C244 C 0.51297 0.04945 0.57227 0.0
C245 C 0.52774 0.03781 0.94271 0.0
C246 C 0.54901 0.03524 0.05017 0.0
C247 C 0.53031 0.03686 0.09107 0.0
C248 C 0.50906 0.03931 0.98382 0.0
C249 C 0.51041 0.03903 0.05786 0.0
C250 C 0.54758 0.03601 0.97611 0.0
C251 C 0.55339 0.01457 0.6063 0.0
C252 C 0.52681 0.03672 0.86518 0.0
C253 C 0.53928 0.12219 0.71358 0.0
C254 C 0.56053 0.1159 0.70253 0.0
C255 C 0.51933 0.98535 0.73503 0.0
C256 C 0.491 1.00755 0.39119 0.0
C257 C 0.4757 0.0333 0.30845 0.0
C258 C 0.49469 0.0328 0.26841 0.0
C259 C 0.50977 1.00694 0.35005 0.0
C260 C 0.47429 0.02093 0.37043 0.0
C261 C 0.51161 0.01966 0.28933 0.0
C262 C 0.47599 0.02278 0.69814 0.0
C263 C 0.48849 0.99497 0.45687 0.0
H264 H 0.53117 0.03632 0.14826 0.0
H265 H 0.4935 0.04058 0.95882 0.0
H266 H 0.49596 0.04017 0.08937 0.0
H267 H 0.56191 0.03408 0.94418 0.0
H268 H 0.49627 0.04215 0.22037 0.0
H269 H 0.52307 0.99684 0.36493 0.0
H270 H 0.46005 0.02171 0.40323 0.0
H271 H 0.52617 0.01913 0.25825 0.0
Tb272 Tb 0.53802 0.50527 0.58709 0.0
C273 C 0.46803 0.49318 0.78977 0.0
N274 N 0.46905 0.50646 0.7326 0.0
C275 C 0.43503 0.49282 0.69275 0.0
C276 C 0.45093 0.47853 0.79888 0.0
C277 C 0.45196 0.5075 0.68739 0.0
C278 C 0.43466 0.47801 0.74807 0.0
C279 C 0.48263 0.48261 0.90353 0.0
C280 C 0.4836 0.49511 0.84144 0.0
C281 C 0.4661 0.46744 0.91166 0.0
C282 C 0.45033 0.46533 0.85924 0.0
Tb283 Tb 0.49894 0.52832 0.7271 0.0
N284 N 0.49967 0.50953 0.83089 0.0
C285 C 0.49808 0.48604 0.95608 0.0
C286 C 0.51435 0.51352 0.883 0.0
C287 C 0.51393 0.50167 0.94598 0.0
H288 H 0.45078 0.51996 0.64824 0.0
H289 H 0.52572 0.50471 0.98689 0.0
H290 H 0.58185 0.53265 0.6249 0.0
H291 H 0.50536 0.48135 0.33327 0.0
H292 H 0.52636 0.52586 0.87616 0.0
H293 H 0.49757 0.47709 1.00522 0.0
H294 H 0.51172 0.47813 0.46175 0.0
H295 H 0.42206 0.49324 0.65492 0.0
H296 H 0.46516 0.45753 0.95875 0.0
H297 H 0.43742 0.45386 0.86679 0.0
H298 H 0.60716 0.55693 0.56272 0.0
H299 H 0.42133 0.4669 0.75272 0.0
H300 H 0.52473 0.50898 0.26376 0.0
N301 N 0.56172 0.52844 0.53495 0.0
C302 C 0.55929 0.53173 0.46435 0.0
C303 C 0.59365 0.55009 0.53456 0.0
C304 C 0.57358 0.54499 0.42626 0.0
C305 C 0.57929 0.53642 0.56965 0.0
C306 C 0.5906 0.55467 0.46273 0.0
N307 N 0.5321 0.50559 0.46715 0.0
C308 C 0.51925 0.49109 0.43289 0.0
C309 C 0.54152 0.52172 0.35506 0.0
C310 C 0.54366 0.5201 0.42933 0.0
C311 C 0.5269 0.50819 0.3207 0.0
C312 C 0.51596 0.49257 0.35972 0.0
H313 H 0.6019 0.56502 0.43541 0.0
H314 H 0.58223 0.55679 0.32202 0.0
H315 H 0.55361 0.53721 0.26006 0.0
O316 O 0.5555 0.48253 0.52872 0.0
O317 O 0.53769 0.541 0.59868 0.0
O318 O 0.5033 0.54867 0.63188 0.0
O319 O 0.5601 0.48601 0.64095 0.0
O320 O 0.50328 0.49949 0.56498 0.0
O321 O 0.48636 0.52802 0.61692 0.0
O322 O 0.50449 0.55635 0.78289 0.0
O323 O 0.51521 0.4971 0.74286 0.0
O324 O 0.51394 0.48321 0.63285 0.0
O325 O 0.4718 0.54419 0.7716 0.0
O326 O 0.53295 0.53701 0.74902 0.0
O327 O 0.55224 0.51056 0.69287 0.0
C328 C 0.52138 0.55437 0.60068 0.0
C329 C 0.55943 0.45131 0.59754 0.0
C330 C 0.53494 0.4209 0.58903 0.0
C331 C 0.54894 0.40882 0.6314 0.0
C332 C 0.57332 0.43912 0.63938 0.0
C333 C 0.568 0.41796 0.65647 0.0
C334 C 0.5402 0.44222 0.57356 0.0
C335 C 0.48725 0.51321 0.56695 0.0
C336 C 0.56364 0.47415 0.58577 0.0
C337 C 0.57113 0.54714 0.35258 0.0
C338 C 0.55493 0.53579 0.31716 0.0
C339 C 0.51284 0.48032 0.70166 0.0
C340 C 0.47721 0.57824 0.83462 0.0
C341 C 0.48591 0.61392 0.87779 0.0
C342 C 0.465 0.61585 0.90458 0.0
C343 C 0.45626 0.58029 0.86056 0.0
C344 C 0.4918 0.59507 0.84341 0.0
C345 C 0.45022 0.59908 0.89561 0.0
C346 C 0.55033 0.52512 0.74305 0.0
C347 C 0.48426 0.55923 0.79577 0.0
H348 H 0.54545 0.39222 0.6437 0.0
H349 H 0.58799 0.4461 0.65991 0.0
H350 H 0.5787 0.40859 0.68904 0.0
H351 H 0.52914 0.45186 0.54323 0.0
H352 H 0.46012 0.63024 0.9321 0.0
H353 H 0.44466 0.56747 0.8538 0.0
H354 H 0.50809 0.59341 0.82425 0.0
H355 H 0.43408 0.60064 0.91593 0.0
Tb356 Tb 0.02639 0.53815 0.58462 0.0
C357 C 0.03963 0.48007 0.84202 0.0
N358 N 0.03229 0.47552 0.77608 0.0
C359 C 0.05382 0.44385 0.77271 0.0
C360 C 0.05532 0.46732 0.87465 0.0
C361 C 0.03832 0.45712 0.74244 0.0
C362 C 0.06267 0.4492 0.83853 0.0
C363 C 0.03622 0.50118 0.94882 0.0
C364 C 0.03017 0.49668 0.87836 0.0
C365 C 0.05297 0.48957 0.9801 0.0
C366 C 0.06247 0.47261 0.94309 0.0
Tb367 Tb 1.00735 0.49822 0.73042 0.0
N368 N 0.01359 0.50694 0.84697 0.0
C369 C 0.02452 0.5164 0.98678 0.0
C370 C 1.00082 0.52013 0.88631 0.0
C371 C 1.00644 0.52556 0.95585 0.0
H372 H 0.0315 0.45298 0.6916 0.0
H373 H 0.99663 0.53654 0.9859 0.0
H374 H 0.01681 0.58509 0.66967 0.0
H375 H 0.99996 0.51254 0.32654 0.0
H376 H 0.9862 0.52647 0.86435 0.0
H377 H 0.02865 0.52036 0.04103 0.0
H378 H 0.02285 0.51223 0.43337 0.0
H379 H 0.05897 0.42957 0.74522 0.0
H380 H 0.05805 0.49298 0.03387 0.0
H381 H 0.07478 0.46324 0.96878 0.0
H382 H 0.98844 0.6119 0.67191 0.0
H383 H 0.07467 0.43892 0.86185 0.0
H384 H 0.97023 0.53844 0.31733 0.0
N385 N 1.00225 0.56603 0.58872 0.0
C386 C 0.98801 0.56668 0.53405 0.0
C387 C 0.98779 0.59897 0.63378 0.0
C388 C 0.97234 0.58282 0.52955 0.0
C389 C 1.00342 0.58303 0.63444 0.0
C390 C 0.97189 0.59863 0.58196 0.0
N391 N 1.00566 0.53698 0.48517 0.0
C392 C 0.00974 0.52334 0.43024 0.0
C393 C 0.97676 0.5529 0.41949 0.0
C394 C 0.99018 0.55205 0.47947 0.0
C395 C 0.98019 0.53831 0.36433 0.0
C396 C 0.99692 0.52362 0.36944 0.0
H397 H 0.96014 0.61131 0.58055 0.0
H398 H 0.94618 0.59549 0.46699 0.0
H399 H 0.94986 0.56909 0.37112 0.0
O400 O 0.05306 0.53608 0.5174 0.0
O401 O 0.99613 0.51948 0.57291 0.0
O402 O 0.98326 0.51995 0.68451 0.0
O403 O 0.03832 0.56692 0.53985 0.0
O404 O 0.03534 0.50453 0.55876 0.0
O405 O 0.01203 0.48341 0.62516 0.0
O406 O 0.98741 0.48143 0.80164 0.0
O407 O 0.04247 0.49923 0.70621 0.0
O408 O 0.04984 0.53372 0.67207 0.0
O409 O 0.98645 0.47469 0.69017 0.0
O410 O 1.00032 0.53272 0.74735 0.0
O411 O 0.0286 0.55 0.69513 0.0
C412 C 0.97959 0.52016 0.61592 0.0
C413 C 0.06855 0.56709 0.45862 0.0
C414 C 0.09722 0.56329 0.37297 0.0
C415 C 0.09589 0.58511 0.35626 0.0
C416 C 0.06742 0.58905 0.44288 0.0
C417 C 0.08115 0.59802 0.39198 0.0
C418 C 0.0837 0.55448 0.42433 0.0
C419 C 0.02506 0.48617 0.57052 0.0
C420 C 0.0529 0.55659 0.50524 0.0
C421 C 0.95833 0.58325 0.47126 0.0
C422 C 0.96052 0.56832 0.41635 0.0
C423 C 0.0557 0.51583 0.70384 0.0
C424 C 0.95347 0.47625 0.74826 0.0
C425 C 0.92292 0.49766 0.78408 0.0
C426 C 0.91055 0.48831 0.73021 0.0
C427 C 0.94088 0.46675 0.69495 0.0
C428 C 0.94422 0.49151 0.7933 0.0
C429 C 0.91951 0.47277 0.68611 0.0
C430 C 0.01433 0.54863 0.74655 0.0
C431 C 0.97671 0.47234 0.75056 0.0
H432 H 0.10623 0.59209 0.31616 0.0
H433 H 0.05567 0.59913 0.46856 0.0
H434 H 0.08012 0.61489 0.3794 0.0
H435 H 0.08452 0.53744 0.43545 0.0
H436 H 0.89401 0.49295 0.72262 0.0
H437 H 0.94775 0.45515 0.65895 0.0
H438 H 0.95369 0.49922 0.83425 0.0
H439 H 0.90997 0.4656 0.64438 0.0
H440 H 0.20844 0.06587 0.14378 0.0
H441 H 0.17442 0.06318 0.20929 0.0
H442 H 0.18661 0.99645 0.24984 0.0
H443 H 0.22064 0.9993 0.18379 0.0
H444 H 0.13689 0.04043 0.20182 0.0
H445 H 0.16848 0.98383 0.41873 0.0
H446 H 0.20286 0.97375 0.47347 0.0
H447 H 0.22929 0.03548 0.42166 0.0
H448 H 0.19498 0.04605 0.36772 0.0
H449 H 0.0746 0.9913 0.53076 0.0
H450 H 0.10507 0.99323 0.4498 0.0
H451 H 0.08944 0.0586 0.4 0.0
H452 H 0.05907 0.05694 0.48323 0.0
H453 H 0.14077 0.01552 0.45101 0.0
H454 H 0.10802 0.07103 0.23015 0.0
H455 H 0.0741 0.07887 0.16845 0.0
H456 H 0.04999 0.01635 0.22199 0.0
H457 H 0.08365 1.00824 0.2845 0.0
C458 C 0.2035 0.05047 0.16482 0.0
C459 C 0.21709 0.03269 0.15702 0.0
C460 C 0.18404 0.04895 0.20288 0.0
C461 C 0.17769 0.02967 0.23592 0.0
C462 C 0.19096 0.01164 0.22594 0.0
C463 C 0.21036 0.01315 0.18721 0.0
C464 C 0.15791 0.0288 0.28327 0.0
C465 C 0.13786 0.03523 0.25658 0.0
C466 C 0.15867 0.02162 0.35474 0.0
C467 C 0.17922 0.01563 0.38851 0.0
C468 C 0.1816 0.99528 0.41935 0.0
C469 C 0.20107 0.98949 0.45021 0.0
C470 C 0.21826 1.00394 0.45085 0.0
C471 C 0.21598 0.02427 0.42095 0.0
C472 C 0.19653 0.03017 0.3902 0.0
C473 C 0.07756 1.0062 0.50291 0.0
C474 C 0.06414 0.024 0.51466 0.0
C475 C 0.09517 1.00728 0.45615 0.0
C476 C 0.09998 0.02606 0.41781 0.0
C477 C 0.08629 0.04377 0.42792 0.0
C478 C 0.06873 0.04279 0.47569 0.0
C479 C 0.1196 0.02706 0.36961 0.0
C480 C 0.13971 0.02073 0.39628 0.0
C481 C 0.11883 0.03416 0.29797 0.0
C482 C 0.09823 0.03919 0.26296 0.0
C483 C 0.0954 0.05904 0.22919 0.0
C484 C 0.07622 0.06352 0.19409 0.0
C485 C 0.05985 0.04816 0.19166 0.0
C486 C 0.06261 0.0283 0.22443 0.0
C487 C 0.08168 0.02381 0.2601 0.0
H488 H 0.04506 0.05161 0.16412 0.0
H489 H 0.23334 0.9994 0.47463 0.0
H490 H 0.53694 0.22261 0.16956 0.0
H491 H 0.54069 0.18858 0.23476 0.0
H492 H 0.4725 0.17819 0.21895 0.0
H493 H 0.46918 0.21131 0.15119 0.0
H494 H 0.52922 0.17573 0.35515 0.0
H495 H 0.45579 0.13108 0.24588 0.0
H496 H 0.43639 0.12663 0.13281 0.0
H497 H 0.49465 0.13805 0.01719 0.0
H498 H 0.51432 0.14285 0.12966 0.0
H499 H 0.50243 0.09184 0.6008 0.0
H500 H 0.50201 0.1226 0.52036 0.0
H501 H 0.51909 0.0814 0.34638 0.0
H502 H 0.52019 0.05076 0.42732 0.0
H503 H 0.49055 0.10825 0.29904 0.0
H504 H 0.5556 0.11774 0.42613 0.0
H505 H 0.58086 0.12288 0.52523 0.0
H506 H 0.54712 0.17928 0.59001 0.0
H507 H 0.52142 0.17429 0.49204 0.0
C508 C 0.52295 0.21254 0.17737 0.0
C509 C 0.50282 0.21958 0.15327 0.0
C510 C 0.52498 0.19314 0.21603 0.0
C511 C 0.50695 0.18011 0.23222 0.0
C512 C 0.48696 0.18705 0.2063 0.0
C513 C 0.485 0.2062 0.16717 0.0
C514 C 0.5087 0.16016 0.27918 0.0
C515 C 0.52069 0.16105 0.34248 0.0
C516 C 0.49808 0.14044 0.26368 0.0
C517 C 0.48648 0.1373 0.19604 0.0
C518 C 0.46446 0.13255 0.19628 0.0
C519 C 0.4534 0.13005 0.13232 0.0
C520 C 0.46429 0.13196 0.06784 0.0
C521 C 0.48624 0.13655 0.06717 0.0
C522 C 0.49732 0.13926 0.13097 0.0
C523 C 0.50658 0.0893 0.54596 0.0
C524 C 0.51192 0.06858 0.52212 0.0
C525 C 0.50621 0.10706 0.49927 0.0
C526 C 0.51087 0.10483 0.42631 0.0
C527 C 0.51554 0.084 0.40192 0.0
C528 C 0.5162 0.0663 0.44883 0.0
C529 C 0.51074 0.124 0.3758 0.0
C530 C 0.49903 0.12295 0.31188 0.0
C531 C 0.52205 0.14341 0.38998 0.0
C532 C 0.5365 0.14556 0.45196 0.0
C533 C 0.55337 0.13105 0.46212 0.0
C534 C 0.56783 0.134 0.51789 0.0
C535 C 0.56568 0.1515 0.56344 0.0
C536 C 0.54881 0.16581 0.55439 0.0
C537 C 0.53428 0.16292 0.49882 0.0
H538 H 0.57715 0.15405 0.60562 0.0
H539 H 0.45571 0.12991 0.01842 0.0
H540 H 0.31131 0.52961 0.17864 0.0
H541 H 0.34446 0.53485 0.24752 0.0
H542 H 0.36735 0.47374 0.17382 0.0
H543 H 0.33505 0.46945 0.10206 0.0
H544 H 0.35977 0.51791 0.35421 0.0
H545 H 0.42021 0.46532 0.19771 0.0
H546 H 0.42974 0.45655 0.07408 0.0
H547 H 0.40139 0.51521 1.003 0.0
H548 H 0.392 0.52447 0.12625 0.0
H549 H 0.47434 0.47911 0.48074 0.0
H550 H 0.44434 0.47748 0.39708 0.0
H551 H 0.42767 0.54236 0.44983 0.0
H552 H 0.45789 0.54424 0.53195 0.0
H553 H 0.43283 0.4972 0.27898 0.0
H554 H 0.37729 0.55294 0.42979 0.0
H555 H 0.36781 0.56364 0.5518 0.0
H556 H 0.38599 0.50167 0.62851 0.0
H557 H 0.39625 0.49081 0.50718 0.0
C558 C 0.32385 0.51777 0.17489 0.0
C559 C 0.32051 0.49926 0.13349 0.0
C560 C 0.34281 0.52054 0.21552 0.0
C561 C 0.3591 0.50484 0.21676 0.0
C562 C 0.35583 0.48661 0.17362 0.0
C563 C 0.33711 0.48405 0.13235 0.0
C564 C 0.3786 0.50679 0.26595 0.0
C565 C 0.37573 0.51372 0.33656 0.0
C566 C 0.39982 0.50097 0.24563 0.0
C567 C 0.40521 0.49546 0.17122 0.0
C568 C 0.41606 0.47636 0.15571 0.0
C569 C 0.42144 0.47131 0.0857 0.0
C570 C 0.4161 0.48528 0.03071 0.0
C571 C 0.40543 0.50436 0.04563 0.0
C572 C 0.40006 0.5095 0.11555 0.0
C573 C 0.46455 0.49319 0.47398 0.0
C574 C 0.46897 0.51187 0.51366 0.0
C575 C 0.44705 0.49215 0.42618 0.0
C576 C 0.43298 0.50958 0.4171 0.0
C577 C 0.43758 0.52833 0.45616 0.0
C578 C 0.45515 0.52944 0.5033 0.0
C579 C 0.41385 0.50833 0.36652 0.0
C580 C 0.41681 0.50147 0.29595 0.0
C581 C 0.3928 0.51455 0.3863 0.0
C582 C 0.38768 0.52116 0.45969 0.0
C583 C 0.37944 0.54167 0.47285 0.0
C584 C 0.37405 0.54779 0.54187 0.0
C585 C 0.37654 0.5334 0.59796 0.0
C586 C 0.38447 0.51289 0.58515 0.0
C587 C 0.3902 0.50679 0.51637 0.0
H588 H 0.37219 0.53809 0.65128 0.0
H589 H 0.42026 0.48135 0.97656 0.0
H590 H 0.05569 0.33626 0.07887 0.0
H591 H 0.05294 0.36984 0.1464 0.0
H592 H 1.00436 0.34103 0.27895 0.0
H593 H 1.00666 0.3079 0.20924 0.0
H594 H 0.99471 0.38078 0.26935 0.0
H595 H 0.06208 0.34663 0.32403 0.0
H596 H 0.09733 0.33128 0.29494 0.0
H597 H 0.11743 0.3913 0.20458 0.0
H598 H 0.0823 0.40697 0.23308 0.0
H599 H 1.00409 0.44718 0.57326 0.0
H600 H 1.00544 0.41771 0.48892 0.0
H601 H 0.05119 0.45281 0.36233 0.0
H602 H 0.05022 0.4825 0.44811 0.0
H603 H 0.06237 0.4118 0.36259 0.0
H604 H 0.99642 0.44688 0.31508 0.0
H605 H 0.9614 0.46276 0.34369 0.0
H606 H 0.93841 0.4017 0.41729 0.0
H607 H 0.97343 0.38552 0.39024 0.0
C608 C 0.04383 0.33743 0.12058 0.0
C609 C 0.03097 0.31948 0.13701 0.0
C610 C 0.04256 0.35657 0.16068 0.0
C611 C 0.02881 0.35826 0.22013 0.0
C612 C 0.01519 0.34059 0.2341 0.0
C613 C 0.0163 0.32158 0.19349 0.0
C614 C 0.02905 0.37783 0.26908 0.0
C615 C 0.00958 0.38729 0.29012 0.0
C616 C 0.04828 0.38721 0.29597 0.0
C617 C 0.06953 0.37791 0.28018 0.0
C618 C 0.07402 0.35653 0.29789 0.0
C619 C 0.09399 0.34778 0.28161 0.0
C620 C 0.10963 0.36031 0.24805 0.0
C621 C 0.10535 0.38163 0.23085 0.0
C622 C 0.08543 0.39046 0.24715 0.0
C623 C 0.01456 0.44883 0.52775 0.0
C624 C 0.02693 0.46768 0.51826 0.0
C625 C 0.01519 0.43179 0.47868 0.0
C626 C 0.02808 0.4328 0.41733 0.0
C627 C 0.04092 0.45136 0.40842 0.0
C628 C 0.0403 0.46851 0.45779 0.0
C629 C 0.02804 0.41453 0.36337 0.0
C630 C 0.04752 0.40532 0.34157 0.0
C631 C 1.00881 0.40542 0.33564 0.0
C632 C 0.98763 0.41502 0.35116 0.0
C633 C 0.98394 0.43686 0.33778 0.0
C634 C 0.96409 0.44591 0.35369 0.0
C635 C 0.9477 0.43325 0.3824 0.0
C636 C 0.95113 0.41149 0.3951 0.0
C637 C 0.97098 0.40236 0.37944 0.0
H638 H 0.93234 0.44029 0.3947 0.0
H639 H 0.12507 0.35351 0.23537 0.0
H640 H 0.80794 0.03326 0.10986 0.0
H641 H 0.84196 0.03552 0.04454 0.0
H642 H 0.86341 0.978 0.14806 0.0
H643 H 0.82931 0.97604 0.21386 0.0
H644 H 0.89769 1.00389 0.1266 0.0
H645 H 0.84187 0.97679 0.97998 0.0
H646 H 0.80644 0.97605 0.92238 0.0
H647 H 0.82127 0.03486 0.81435 0.0
H648 H 0.85673 0.03609 0.87199 0.0
H649 H 0.97875 0.98279 0.85907 0.0
H650 H 0.94826 0.98043 0.94151 0.0
H651 H 0.92043 0.03621 0.8447 0.0
H652 H 0.95041 0.03844 0.76231 0.0
H653 H 0.88978 1.00895 0.86558 0.0
H654 H 0.94646 0.03544 0.01842 0.0
H655 H 0.98203 0.03396 0.07511 0.0
H656 H 0.96582 0.9733 0.16876 0.0
H657 H 0.93019 0.97439 0.11257 0.0
C658 C 0.82028 0.02162 0.1208 0.0
C659 C 0.81606 1.00485 0.16885 0.0
C660 C 0.83969 0.02265 0.08237 0.0
C661 C 0.8555 1.00673 0.08971 0.0
C662 C 0.85176 0.99058 0.14075 0.0
C663 C 0.83228 0.98956 0.17918 0.0
C664 C 0.87501 1.0062 0.04104 0.0
C665 C 0.89586 1.0048 0.06952 0.0
C666 C 0.87312 1.00736 0.966 0.0
C667 C 0.85188 1.00664 0.93085 0.0
C668 C 0.83753 0.98965 0.9443 0.0
C669 C 0.81745 0.98912 0.91159 0.0
C670 C 0.81158 1.00544 0.86493 0.0
C671 C 0.82582 0.02226 0.85063 0.0
C672 C 0.84593 0.02286 0.88324 0.0
C673 C 0.96617 0.9946 0.85532 0.0
C674 C 0.96735 0.01081 0.8032 0.0
C675 C 0.94865 0.99332 0.90314 0.0
C676 C 0.93173 1.00828 0.90082 0.0
C677 C 0.93296 0.02436 0.84856 0.0
C678 C 0.95036 0.02564 0.80106 0.0
C679 C 0.91256 1.00722 0.95098 0.0
C680 C 0.89168 1.00818 0.92267 0.0
C681 C 0.91448 1.0054 0.02596 0.0
C682 C 0.93574 1.00492 0.06079 0.0
C683 C 0.95053 0.02176 0.05091 0.0
C684 C 0.97069 0.02099 0.083 0.0
C685 C 0.97622 1.00351 0.1253 0.0
C686 C 0.96153 0.98684 0.13605 0.0
C687 C 0.94133 0.98754 0.1042 0.0
H688 H 0.99189 1.00287 0.14965 0.0
H689 H 0.79601 1.00501 0.8397 0.0
H690 H 0.49818 0.80837 0.11449 0.0
H691 H 0.49397 0.84117 0.04341 0.0
H692 H 0.55202 0.86683 0.13436 0.0
H693 H 0.55591 0.83412 0.20554 0.0
H694 H 0.52509 0.89908 0.11419 0.0
H695 H 0.54974 0.84149 0.96692 0.0
H696 H 0.54807 0.80557 0.91285 0.0
H697 H 0.48815 0.8211 0.81443 0.0
H698 H 0.48929 0.85702 0.86889 0.0
H699 H 0.55092 0.97491 0.83323 0.0
H700 H 0.55149 0.94481 0.91761 0.0
H701 H 0.48979 0.92376 0.84197 0.0
H702 H 0.48856 0.95438 0.7615 0.0
H703 H 0.51793 0.88938 0.8544 0.0
H704 H 0.49375 0.94721 0.995 0.0
H705 H 0.49328 0.98232 0.05449 0.0
H706 H 0.55031 0.96607 0.16912 0.0
H707 H 0.55167 0.93125 0.10808 0.0
C708 C 0.50951 0.82139 0.12146 0.0
C709 C 0.52702 0.81877 0.16767 0.0
C710 C 0.50739 0.84009 0.07954 0.0
C711 C 0.52288 0.85674 0.08164 0.0
C712 C 0.53973 0.85454 0.13085 0.0
C713 C 0.54185 0.83585 0.17251 0.0
C714 C 0.52222 0.87577 0.03077 0.0
C715 C 0.52385 0.89685 0.05732 0.0
C716 C 0.52007 0.87335 0.95604 0.0
C717 C 0.51949 0.85187 0.92257 0.0
C718 C 0.53614 0.8372 0.9341 0.0
C719 C 0.53529 0.81684 0.90336 0.0
C720 C 0.51799 0.81104 0.86036 0.0
C721 C 0.50153 0.82561 0.84784 0.0
C722 C 0.50226 0.84597 0.87862 0.0
C723 C 0.53741 0.96394 0.83452 0.0
C724 C 0.51993 0.96703 0.78816 0.0
C725 C 0.53775 0.9466 0.88313 0.0
C726 C 0.52076 0.93156 0.88658 0.0
C727 C 0.50332 0.93471 0.84051 0.0
C728 C 0.50275 0.95227 0.79338 0.0
C729 C 0.52099 0.91268 0.93783 0.0
C730 C 0.51928 0.89163 0.91125 0.0
C731 C 0.52301 0.91516 0.01251 0.0
C732 C 0.52299 0.93667 0.0461 0.0
C733 C 0.50648 0.95129 0.03166 0.0
C734 C 0.50602 0.97115 0.0658 0.0
C735 C 0.52177 0.97646 0.11542 0.0
C736 C 0.53817 0.96202 0.13037 0.0
C737 C 0.53885 0.94224 0.09579 0.0
H738 H 0.52114 0.99169 0.14262 0.0
H739 H 0.51736 0.79526 0.83662 0.0
H740 H 0.71904 0.49906 0.15882 0.0
H741 H 0.68567 0.49651 0.08931 0.0
H742 H 0.67608 0.56433 0.11544 0.0
H743 H 0.70918 0.56664 0.18536 0.0
H744 H 0.63797 0.54541 0.11807 0.0
H745 H 0.69876 0.54069 0.96071 0.0
H746 H 0.73243 0.52508 0.91662 0.0
H747 H 0.70046 0.46487 0.88209 0.0
H748 H 0.66666 0.48004 0.92698 0.0
H749 H 0.56178 0.55897 0.83284 0.0
H750 H 0.59174 0.56091 0.91709 0.0
H751 H 0.60886 0.49602 0.86445 0.0
H752 H 0.57994 0.4946 0.77808 0.0
H753 H 0.64327 0.51364 0.87815 0.0
H754 H 0.58245 0.51713 0.034 0.0
H755 H 0.5491 0.53087 0.08689 0.0
H756 H 0.58016 0.59097 0.13112 0.0
H757 H 0.6136 0.57772 0.07742 0.0
C758 C 0.7094 0.51325 0.15176 0.0
C759 C 0.71666 0.53298 0.17927 0.0
C760 C 0.6904 0.51191 0.11072 0.0
C761 C 0.67812 0.53031 0.0951 0.0
C762 C 0.6849 0.54979 0.12583 0.0
C763 C 0.70385 0.55111 0.16657 0.0
C764 C 0.65896 0.52964 0.04464 0.0
C765 C 0.63923 0.53861 0.06533 0.0
C766 C 0.66 0.52046 0.97577 0.0
C767 C 0.68023 0.51145 0.94778 0.0
C768 C 0.69894 0.52409 0.94404 0.0
C769 C 0.71804 0.51532 0.9189 0.0
C770 C 0.71859 0.49398 0.89669 0.0
C771 C 0.70002 0.48139 0.89938 0.0
C772 C 0.68088 0.49006 0.92463 0.0
C773 C 0.57193 0.54511 0.83921 0.0
C774 C 0.56825 0.52669 0.79746 0.0
C775 C 0.58913 0.54612 0.88842 0.0
C776 C 0.60296 0.5285 0.89944 0.0
C777 C 0.59897 0.51007 0.85802 0.0
C778 C 0.58217 0.50923 0.80805 0.0
C779 C 0.62186 0.52915 0.95154 0.0
C780 C 0.64172 0.52031 0.93096 0.0
C781 C 0.62079 0.53824 0.02088 0.0
C782 C 0.60047 0.5465 0.05085 0.0
C783 C 0.5821 0.53336 0.05421 0.0
C784 C 0.56319 0.54105 0.08448 0.0
C785 C 0.5625 0.5618 0.11213 0.0
C786 C 0.5807 0.57492 0.10948 0.0
C787 C 0.59963 0.56733 0.07908 0.0
H788 H 0.54788 0.56769 0.13585 0.0
H789 H 0.7334 0.48722 0.87727 0.0
H790 H 0.96844 0.71074 0.16524 0.0
H791 H 0.97171 0.67746 0.09757 0.0
H792 H 0.03892 0.6906 0.06528 0.0
H793 H 0.03528 0.72446 0.13148 0.0
H794 H 0.02366 0.67705 0.94565 0.0
H795 H 0.01725 0.64859 0.18019 0.0
H796 H 1.00144 0.64274 0.29858 0.0
H797 H 0.94379 0.61843 0.20313 0.0
H798 H 0.95913 0.62441 0.0841 0.0
H799 H 0.04656 0.57564 0.79055 0.0
H800 H 0.04473 0.60651 0.87001 0.0
H801 H 0.97723 0.59488 0.90113 0.0
H802 H 0.97916 0.5636 0.82225 0.0
H803 H 0.99315 0.60732 0.02267 0.0
H804 H 0.99938 0.63673 0.78806 0.0
H805 H 0.01571 0.64177 0.66992 0.0
H806 H 0.07408 0.66372 0.7666 0.0
H807 H 0.05818 0.65867 0.88532 0.0
C808 C 0.98399 0.70641 0.14448 0.0
C809 C 1.0016 0.72036 0.15448 0.0
C810 C 0.98593 0.68717 0.1058 0.0
C811 C 1.00566 0.6809 0.07594 0.0
C812 C 0.02344 0.69468 0.08723 0.0
C813 C 0.02146 0.71403 0.12603 0.0
C814 C 1.00744 0.66066 0.03079 0.0
C815 C 0.01725 0.66179 0.96346 0.0
C816 C 0.99866 0.64048 0.05165 0.0
C817 C 0.98927 0.63716 0.12316 0.0
C818 C 1.00112 0.64219 0.18441 0.0
C819 C 0.99226 0.63881 0.25165 0.0
C820 C 0.97161 0.63026 0.25838 0.0
C821 C 0.95977 0.62507 0.19785 0.0
C822 C 0.96855 0.62845 0.13048 0.0
C823 C 0.03129 0.57954 0.81445 0.0
C824 C 0.01304 0.56686 0.79955 0.0
C825 C 0.0302 0.59746 0.85987 0.0
C826 C 0.01072 0.60374 0.89145 0.0
C827 C 0.99254 0.59075 0.87799 0.0
C828 C 0.99366 0.57267 0.83276 0.0
C829 C 0.00935 0.62376 0.93774 0.0
C830 C 0.99957 0.6226 1.00508 0.0
C831 C 0.01815 0.64392 0.91696 0.0
C832 C 0.02765 0.64715 0.8456 0.0
C833 C 0.01573 0.64252 0.78413 0.0
C834 C 0.02491 0.64538 0.71708 0.0
C835 C 0.04593 0.65296 0.7108 0.0
C836 C 0.05781 0.65781 0.77155 0.0
C837 C 0.04871 0.65499 0.83873 0.0
H838 H 0.05301 0.65514 0.65885 0.0
H839 H 0.9648 0.62761 0.31049 0.0
H840 H 0.02052 0.2327 0.13378 0.0
H841 H 0.02359 0.20367 0.21894 0.0
H842 H 0.08816 0.22374 0.2679 0.0
H843 H 0.08574 0.25192 0.1769 0.0
H844 H 0.07896 0.1774 0.28493 0.0
H845 H 0.05304 0.24627 0.37113 0.0
H846 H 0.03102 0.27891 0.36259 0.0
H847 H 0.97408 0.24034 0.34553 0.0
H848 H 0.99568 0.20752 0.35504 0.0
H849 H 1.00497 0.14903 0.61921 0.0
H850 H 0.03194 0.17229 0.56423 0.0
H851 H 0.03274 0.13117 0.38018 0.0
H852 H 1.00662 0.10773 0.43548 0.0
H853 H 0.02153 0.19359 0.45868 0.0
H854 H 0.07081 0.13731 0.27344 0.0
H855 H 0.09205 0.10435 0.28326 0.0
H856 H 0.10342 0.1172 0.50371 0.0
H857 H 0.08264 0.15061 0.49459 0.0
C858 C 0.03576 0.23022 0.15973 0.0
C859 C 0.05278 0.24468 0.15001 0.0
C860 C 0.03744 0.21378 0.20883 0.0
C861 C 0.05585 0.21212 0.25089 0.0
C862 C 0.07376 0.22503 0.23624 0.0
C863 C 0.0723 0.24116 0.18505 0.0
C864 C 0.05452 0.19955 0.31667 0.0
C865 C 0.06669 0.18093 0.3239 0.0
C866 C 0.03902 0.20474 0.36841 0.0
C867 C 0.02598 0.22449 0.36386 0.0
C868 C 0.03582 0.24478 0.36563 0.0
C869 C 0.02341 0.2633 0.3607 0.0
C870 C 1.0012 0.26169 0.35317 0.0
C871 C 0.99129 0.24157 0.35136 0.0
C872 C 1.00358 0.22302 0.35701 0.0
C873 C 0.01134 0.14474 0.56773 0.0
C874 C 1.0036 0.12667 0.53151 0.0
C875 C 0.02691 0.15788 0.5367 0.0
C876 C 0.0346 0.15342 0.46826 0.0
C877 C 0.02773 0.13467 0.4339 0.0
C878 C 0.01249 0.12137 0.46535 0.0
C879 C 0.04514 0.17046 0.42597 0.0
C880 C 0.03458 0.19017 0.42246 0.0
C881 C 0.06221 0.16622 0.37844 0.0
C882 C 0.075 0.14634 0.3836 0.0
C883 C 0.07795 0.13319 0.32392 0.0
C884 C 0.08989 0.1144 0.32934 0.0
C885 C 0.09903 0.10862 0.39411 0.0
C886 C 0.09626 0.12164 0.45362 0.0
C887 C 0.08436 0.14047 0.44841 0.0
H888 H 0.10835 0.09412 0.3981 0.0
H889 H 0.99166 0.27604 0.34889 0.0
H890 H 0.30874 0.02425 0.14734 0.0
H891 H 0.34479 0.03846 0.16825 0.0
H892 H 0.31928 0.10233 0.185 0.0
H893 H 0.28297 0.08795 0.16146 0.0
H894 H 0.36661 0.0715 0.0828 0.0
H895 H 0.35426 0.12246 0.3248 0.0
H896 H 0.32836 0.12808 0.42214 0.0
H897 H 0.31216 0.06112 0.42002 0.0
H898 H 0.33813 0.05513 0.32341 0.0
H899 H 0.47437 0.07314 0.2441 0.0
H900 H 0.44203 0.09276 0.20815 0.0
H901 H 0.40245 0.04137 0.28752 0.0
H902 H 0.43394 0.02113 0.3183 0.0
H903 H 0.39036 0.08754 0.32814 0.0
H904 H 0.40706 0.03519 0.12371 0.0
H905 H 0.43409 0.0242 0.03528 0.0
H906 H 0.44165 0.0896 0.96862 0.0
H907 H 0.41471 0.1009 0.05697 0.0
C908 C 0.31091 0.04127 0.15588 0.0
C909 C 0.29341 0.05511 0.15257 0.0
C910 C 0.33139 0.0494 0.16703 0.0
C911 C 0.33461 0.07146 0.17654 0.0
C912 C 0.31701 0.0853 0.1767 0.0
C913 C 0.29642 0.07712 0.16435 0.0
C914 C 0.35658 0.07918 0.18927 0.0
C915 C 0.37184 0.07597 0.13567 0.0
C916 C 0.36332 0.08511 0.25798 0.0
C917 C 0.34786 0.08845 0.31638 0.0
C918 C 0.34515 0.10898 0.34522 0.0
C919 C 0.33049 0.11221 0.40026 0.0
C920 C 0.31855 0.09499 0.42703 0.0
C921 C 0.32133 0.07447 0.39905 0.0
C922 C 0.336 0.07115 0.34413 0.0
C923 C 0.45876 0.06603 0.25355 0.0
C924 C 0.45677 0.0457 0.28541 0.0
C925 C 0.44041 0.07742 0.23406 0.0
C926 C 0.42004 0.06878 0.24755 0.0
C927 C 0.41809 0.04858 0.27889 0.0
C928 C 0.43618 0.03704 0.29658 0.0
C929 C 0.40026 0.07892 0.22249 0.0
C930 C 0.38524 0.0852 0.2737 0.0
C931 C 0.39369 0.07571 0.1518 0.0
C932 C 0.40904 0.06886 0.09675 0.0
C933 C 0.41447 0.04716 0.08992 0.0
C934 C 0.42979 0.0409 0.04004 0.0
C935 C 0.43963 0.05621 0.99653 0.0
C936 C 0.43406 0.07778 1.00249 0.0
C937 C 0.41879 0.08412 0.05245 0.0
H938 H 0.45154 0.05136 0.95813 0.0
H939 H 0.3072 0.09753 0.46959 0.0
H940 H 0.5132 0.3082 0.16529 0.0
H941 H 0.50536 0.33643 0.25089 0.0
H942 H 0.43992 0.31423 0.26534 0.0
H943 H 0.4477 0.28622 0.17702 0.0
H944 H 0.44954 0.36324 0.2794 0.0
H945 H 0.46394 0.29432 0.39526 0.0
H946 H 0.48334 0.26018 0.4081 0.0
H947 H 0.54327 0.2943 0.41373 0.0
H948 H 0.52418 0.32862 0.40236 0.0
H949 H 0.50634 0.39232 0.6475 0.0
H950 H 0.47924 0.37123 0.58403 0.0
H951 H 0.49394 0.40604 0.39194 0.0
H952 H 0.52058 0.42688 0.45441 0.0
H953 H 0.49349 0.34576 0.49041 0.0
H954 H 0.45909 0.40108 0.26465 0.0
H955 H 0.4398 0.43515 0.25393 0.0
H956 H 0.41928 0.4302 0.47066 0.0
H957 H 0.43816 0.39584 0.4826 0.0
C958 C 0.49691 0.31006 0.18402 0.0
C959 C 0.48105 0.29515 0.16537 0.0
C960 C 0.49248 0.326 0.23327 0.0
C961 C 0.47218 0.32705 0.265 0.0
C962 C 0.45566 0.31355 0.2413 0.0
C963 C 0.46008 0.29768 0.1911 0.0
C964 C 0.46971 0.34001 0.32962 0.0
C965 C 0.45881 0.35951 0.32634 0.0
C966 C 0.48114 0.33453 0.39143 0.0
C967 C 0.49265 0.31395 0.3979 0.0
C968 C 0.48125 0.29449 0.39928 0.0
C969 C 0.49219 0.27514 0.40666 0.0
C970 C 0.51452 0.27506 0.41149 0.0
C971 C 0.52597 0.29437 0.40989 0.0
C972 C 0.5151 0.31377 0.40353 0.0
C973 C 0.5033 0.39577 0.59223 0.0
C974 C 0.51583 0.41097 0.55578 0.0
C975 C 0.48765 0.38395 0.55622 0.0
C976 C 0.48444 0.38707 0.48314 0.0
C977 C 0.49562 0.4036 0.44852 0.0
C978 C 0.51113 0.41542 0.48441 0.0
C979 C 0.47448 0.37006 0.43931 0.0
C980 C 0.48323 0.34952 0.44577 0.0
C981 C 0.46104 0.37477 0.38082 0.0
C982 C 0.45 0.39572 0.37441 0.0
C983 C 0.45033 0.40711 0.30997 0.0
C984 C 0.43948 0.42653 0.30369 0.0
C985 C 0.42818 0.43476 0.3614 0.0
C986 C 0.42797 0.42375 0.42589 0.0
C987 C 0.43879 0.40431 0.43249 0.0
H988 H 0.41958 0.44967 0.35611 0.0
H989 H 0.52295 0.26005 0.41658 0.0
H990 H 0.25475 0.48687 0.23442 0.0
H991 H 0.2183 0.48442 0.27867 0.0
H992 H 0.19972 0.44971 0.09148 0.0
H993 H 0.23665 0.45125 0.04799 0.0
H994 H 0.19339 0.50159 0.1263 0.0
H995 H 0.14522 0.43211 0.22579 0.0
H996 H 0.1496 0.39678 0.28247 0.0
H997 H 0.20362 0.4206 0.39969 0.0
H998 H 0.1994 0.45609 0.34444 0.0
H999 H 0.09771 0.55363 0.2326 0.0
H1000 H 0.11889 0.52547 0.17508 0.0
H1001 H 0.14972 0.51192 0.37493 0.0
H1002 H 0.12829 0.53957 0.43227 0.0
H1003 H 0.1412 0.47504 0.30432 0.0
H1004 H 0.17336 0.54538 0.2575 0.0
H1005 H 0.17316 0.58241 0.21184 0.0
H1006 H 0.15695 0.55918 1.00422 0.0
H1007 H 0.15681 0.5221 0.04897 0.0
C1008 C 0.24316 0.47745 0.20496 0.0
C1009 C 0.24815 0.4696 0.13734 0.0
C1010 C 0.22238 0.47587 0.23055 0.0
C1011 C 0.20632 0.46678 0.18817 0.0
C1012 C 0.2119 0.4565 0.1249 0.0
C1013 C 0.23288 0.45771 0.0997 0.0
C1014 C 0.18481 0.47568 0.19613 0.0
C1015 C 0.18151 0.49548 0.16315 0.0
C1016 C 0.16977 0.46773 0.24532 0.0
C1017 C 0.17234 0.44659 0.27954 0.0
C1018 C 0.1581 0.42977 0.26331 0.0
C1019 C 0.1605 0.40974 0.29537 0.0
C1020 C 0.17696 0.4064 0.34419 0.0
C1021 C 0.19098 0.42315 0.3614 0.0
C1022 C 0.18865 0.44321 0.32951 0.0
C1023 C 0.10925 0.54475 0.26354 0.0
C1024 C 0.11187 0.54887 0.33608 0.0
C1025 C 0.121 0.52851 0.2312 0.0
C1026 C 0.13567 0.51653 0.27107 0.0
C1027 C 0.13821 0.52073 0.3436 0.0
C1028 C 0.12635 0.53675 0.37591 0.0
C1029 C 0.15043 0.50148 0.23664 0.0
C1030 C 0.15239 0.48063 0.26422 0.0
C1031 C 0.16482 0.50873 0.18392 0.0
C1032 C 0.16473 0.53101 0.15681 0.0
C1033 C 0.16957 0.54822 0.20227 0.0
C1034 C 0.16954 0.56921 0.17654 0.0
C1035 C 0.16494 0.57317 0.10525 0.0
C1036 C 0.16039 0.55612 0.05953 0.0
C1037 C 0.16031 0.53511 0.0851 0.0
H1038 H 0.16497 0.58943 0.08539 0.0
H1039 H 0.17878 0.39088 0.36895 0.0
H1040 H 0.95759 0.79882 0.27088 0.0
H1041 H 0.95314 0.8378 0.25848 0.0
H1042 H 0.9912 0.83652 0.06749 0.0
H1043 H 0.99694 0.7981 0.08323 0.0
H1044 H 0.99342 0.86282 0.25559 0.0
H1045 H 0.96975 0.87481 0.95929 0.0
H1046 H 0.94366 0.85968 0.87475 0.0
H1047 H 0.90251 0.84118 0.04705 0.0
H1048 H 0.92817 0.8565 0.1327 0.0
H1049 H 0.05768 0.93172 0.06752 0.0
H1050 H 0.0351 0.90364 0.11783 0.0
H1051 H 0.97934 0.94337 0.09012 0.0
H1052 H 1.00208 0.9711 0.0348 0.0
H1053 H 0.97114 0.90504 0.04592 0.0
H1054 H 1.00369 0.93295 0.25322 0.0
H1055 H 0.03357 0.94568 0.32747 0.0
H1056 H 0.06136 0.88302 0.3229 0.0
H1057 H 0.03153 0.86979 0.25012 0.0
C1058 C 0.96456 0.80694 0.22564 0.0
C1059 C 0.97783 0.79579 0.17841 0.0
C1060 C 0.96189 0.82904 0.21835 0.0
C1061 C 0.97175 0.8399 0.16192 0.0
C1062 C 0.98322 0.82832 0.11084 0.0
C1063 C 0.98642 0.80644 0.11948 0.0
C1064 C 0.97385 0.86342 0.16202 0.0
C1065 C 0.98812 0.87243 0.21117 0.0
C1066 C 0.96665 0.8757 0.10411 0.0
C1067 C 0.95093 0.86685 0.05254 0.0
C1068 C 0.95505 0.86772 0.97923 0.0
C1069 C 0.94035 0.85904 0.93107 0.0
C1070 C 0.92144 0.84947 0.95551 0.0
C1071 C 0.91717 0.84857 0.02818 0.0
C1072 C 0.93181 0.85723 0.07657 0.0
C1073 C 0.04072 0.93467 0.07438 0.0
C1074 C 0.03155 0.95358 0.04948 0.0
C1075 C 0.02779 0.91867 0.10304 0.0
C1076 C 1.00558 0.92169 0.10992 0.0
C1077 C 0.99647 0.94092 0.08653 0.0
C1078 C 0.0094 0.95676 0.05584 0.0
C1079 C 0.99204 0.90392 0.13677 0.0
C1080 C 0.97566 0.89605 0.0927 0.0
C1081 C 0.99764 0.8925 0.19892 0.0
C1082 C 0.01497 0.90019 0.24718 0.0
C1083 C 0.01607 0.92178 0.26851 0.0
C1084 C 0.03299 0.92911 0.31069 0.0
C1085 C 0.04925 0.91511 0.33072 0.0
C1086 C 0.04852 0.89375 0.30897 0.0
C1087 C 0.03144 0.88626 0.26789 0.0
H1088 H 0.06249 0.92084 0.36266 0.0
H1089 H 0.9101 0.84274 0.91813 0.0
H1090 H 0.73074 0.96106 0.21974 0.0
H1091 H 0.69314 0.96065 0.18236 0.0
H1092 H 0.70683 1.00956 0.02772 0.0
H1093 H 0.74448 1.00964 0.06372 0.0
H1094 H 0.68327 0.01952 0.16419 0.0
H1095 H 0.68654 0.97317 0.96524 0.0
H1096 H 0.69408 0.93966 0.90171 0.0
H1097 H 0.64592 0.90695 0.02393 0.0
H1098 H 0.63823 0.94015 0.08889 0.0
H1099 H 0.58661 0.05599 0.02564 0.0
H1100 H 0.62238 0.04255 0.05176 0.0
H1101 H 0.59469 0.98987 0.16916 0.0
H1102 H 0.55871 1.00372 0.14431 0.0
H1103 H 0.62391 0.97777 0.05652 0.0
H1104 H 0.62265 0.02184 0.26314 0.0
H1105 H 0.61704 0.05419 0.33548 0.0
H1106 H 0.66185 0.08909 0.20602 0.0
H1107 H 0.66766 0.05697 0.13258 0.0
C1108 C 0.72579 0.97083 0.17531 0.0
C1109 C 0.74008 0.9855 0.14463 0.0
C1110 C 0.70444 0.97053 0.15393 0.0
C1111 C 0.69733 0.98509 0.10282 0.0
C1112 C 0.71217 0.99802 0.06667 0.0
C1113 C 0.73355 0.99812 0.08728 0.0
C1114 C 0.6748 0.99156 0.1037 0.0
C1115 C 0.67026 1.01041 0.14077 0.0
C1116 C 0.65805 0.97916 0.07431 0.0
C1117 C 0.66228 0.95915 0.03394 0.0
C1118 C 0.67782 0.95878 0.97976 0.0
C1119 C 0.68203 0.93982 0.943 0.0
C1120 C 0.67064 0.92113 0.95923 0.0
C1121 C 0.65486 0.92141 0.01178 0.0
C1122 C 0.65059 0.94032 0.04868 0.0
C1123 C 0.58819 0.04191 0.05878 0.0
C1124 C 0.57 0.03063 0.08221 0.0
C1125 C 0.60856 0.0342 0.0734 0.0
C1126 C 0.61103 0.01509 0.11148 0.0
C1127 C 0.59297 1.00454 0.13906 0.0
C1128 C 0.57253 0.01249 0.1253 0.0
C1129 C 0.63251 1.00575 0.11764 0.0
C1130 C 0.63691 0.9865 0.08176 0.0
C1131 C 0.64932 0.0175 0.1492 0.0
C1132 C 0.64546 0.03703 0.192 0.0
C1133 C 0.63118 0.03646 0.2497 0.0
C1134 C 0.62802 0.05473 0.29109 0.0
C1135 C 0.63906 0.07369 0.27533 0.0
C1136 C 0.6533 0.0744 0.21817 0.0
C1137 C 0.65657 0.05615 0.17673 0.0
H1138 H 0.63658 0.08782 0.30747 0.0
H1139 H 0.67393 0.90646 0.93075 0.0
H1140 H 0.52914 0.7291 0.16249 0.0
H1141 H 0.54239 0.70057 0.08713 0.0
H1142 H 0.60349 0.73289 0.06915 0.0
H1143 H 0.59055 0.76102 0.15045 0.0
H1144 H 0.56982 0.72186 0.93397 0.0
H1145 H 0.61894 0.69035 0.09284 0.0
H1146 H 0.63239 0.68194 0.2126 0.0
H1147 H 0.57572 0.64465 0.25413 0.0
H1148 H 0.56199 0.65278 0.1359 0.0
H1149 H 0.51462 0.62974 0.78128 0.0
H1150 H 0.54651 0.65155 0.80652 0.0
H1151 H 0.52652 0.65697 0.02495 0.0
H1152 H 0.49517 0.6346 1.0007 0.0
H1153 H 0.56978 0.64599 0.01081 0.0
H1154 H 0.5174 0.7 0.90812 0.0
H1155 H 0.49575 0.71128 0.8052 0.0
H1156 H 0.55123 0.70749 0.67098 0.0
H1157 H 0.57314 0.69613 0.77333 0.0
C1158 C 0.54572 0.72958 0.14569 0.0
C1159 C 0.55887 0.74709 0.16222 0.0
C1160 C 0.55322 0.71347 0.10198 0.0
C1161 C 0.57383 0.71486 0.07249 0.0
C1162 C 0.58755 0.73168 0.09164 0.0
C1163 C 0.58017 0.74761 0.13762 0.0
C1164 C 0.57895 0.69965 0.01573 0.0
C1165 C 0.571 0.70509 0.94857 0.0
C1166 C 0.5809 0.67791 0.03451 0.0
C1167 C 0.58963 0.67189 0.1048 0.0
C1168 C 0.60947 0.68018 0.1275 0.0
C1169 C 0.61713 0.67549 0.19534 0.0
C1170 C 0.60502 0.66261 0.24109 0.0
C1171 C 0.58527 0.65438 0.21891 0.0
C1172 C 0.57758 0.65893 0.15121 0.0
C1173 C 0.51704 0.63574 0.8346 0.0
C1174 C 0.50252 0.63046 0.88932 0.0
C1175 C 0.53527 0.64804 0.84884 0.0
C1176 C 0.53907 0.65538 0.91779 0.0
C1177 C 0.52407 0.65097 0.97162 0.0
C1178 C 0.50595 0.6386 0.95755 0.0
C1179 C 0.55785 0.66878 0.93516 0.0
C1180 C 0.5705 0.66249 0.99283 0.0
C1181 C 0.5597 0.68985 0.90876 0.0
C1182 C 0.54681 0.69722 0.84793 0.0
C1183 C 0.52493 0.70165 0.8566 0.0
C1184 C 0.51263 0.708 0.79847 0.0
C1185 C 0.52211 0.71007 0.73161 0.0
C1186 C 0.54392 0.70587 0.72281 0.0
C1187 C 0.55629 0.6995 0.78083 0.0
H1188 H 0.51255 0.71494 0.68668 0.0
H1189 H 0.61089 0.65912 0.29378 0.0
H1190 H 0.80777 0.52263 0.19287 0.0
H1191 H 0.84184 0.53329 0.1401 0.0
H1192 H 0.8176 0.5969 0.1044 0.0
H1193 H 0.78349 0.58639 0.16121 0.0
H1194 H 0.82853 0.57205 0.98349 0.0
H1195 H 0.86183 0.59488 0.19534 0.0
H1196 H 0.8702 0.59295 0.32288 0.0
H1197 H 0.90293 0.53353 0.29072 0.0
H1198 H 0.89435 0.53473 0.16339 0.0
H1199 H 0.90932 0.53802 0.752 0.0
H1200 H 0.89276 0.56375 0.83276 0.0
H1201 H 0.89903 0.51835 1.00444 0.0
H1202 H 0.91656 0.49326 0.92441 0.0
H1203 H 0.90285 0.55573 0.05706 0.0
H1204 H 0.85513 0.52122 0.89279 0.0
H1205 H 0.83865 0.51127 0.77869 0.0
H1206 H 0.82489 0.57733 0.73662 0.0
H1207 H 0.84194 0.58777 0.84968 0.0
C1208 C 0.81004 0.53909 0.17626 0.0
C1209 C 0.79325 0.55376 0.18075 0.0
C1210 C 0.8295 0.54523 0.14686 0.0
C1211 C 0.83233 0.56599 0.12 0.0
C1212 C 0.81579 0.58096 0.12639 0.0
C1213 C 0.79635 0.5749 0.15752 0.0
C1214 C 0.85035 0.5696 0.07113 0.0
C1215 C 0.84506 0.56946 0.99904 0.0
C1216 C 0.87161 0.56552 0.09264 0.0
C1217 C 0.87758 0.56504 0.16917 0.0
C1218 C 0.87081 0.58138 0.2153 0.0
C1219 C 0.87556 0.58038 0.2877 0.0
C1220 C 0.88717 0.56318 0.31477 0.0
C1221 C 0.89407 0.54693 0.26953 0.0
C1222 C 0.8893 0.54779 0.19713 0.0
C1223 C 0.90733 0.53374 0.8071 0.0
C1224 C 0.9137 0.51361 0.83215 0.0
C1225 C 0.89804 0.54847 0.85329 0.0
C1226 C 0.89441 0.5429 0.92448 0.0
C1227 C 0.90178 0.52312 0.94992 0.0
C1228 C 0.91149 0.50866 0.90416 0.0
C1229 C 0.88034 0.55589 0.97044 0.0
C1230 C 0.88663 0.55952 0.04105 0.0
C1231 C 0.85935 0.5614 0.94884 0.0
C1232 C 0.85032 0.55534 0.8788 0.0
C1233 C 0.84899 0.53368 0.85856 0.0
C1234 C 0.83947 0.52794 0.79421 0.0
C1235 C 0.83076 0.54366 0.75039 0.0
C1236 C 0.83167 0.56517 0.77063 0.0
C1237 C 0.8414 0.57103 0.83457 0.0
H1238 H 0.82329 0.53918 0.70075 0.0
H1239 H 0.89079 0.56243 0.37078 0.0
H1240 H 1.00093 0.25082 0.98842 0.0
H1241 H 0.99704 0.21727 0.92103 0.0
H1242 H 0.0646 0.20545 0.94621 0.0
H1243 H 0.06857 0.2395 0.00826 0.0
H1244 H 0.05678 0.18982 0.83121 0.0
H1245 H 0.01891 0.18035 0.04889 0.0
H1246 H 0.99215 0.18822 0.14142 0.0
H1247 H 0.94137 0.17887 0.99091 0.0
H1248 H 0.96785 0.17122 0.89715 0.0
H1249 H 0.05569 0.07705 0.76627 0.0
H1250 H 0.05698 0.11209 0.82342 0.0
H1251 H 0.99206 0.12377 0.75698 0.0
H1252 H 0.99038 0.08762 0.70483 0.0
H1253 H 0.99729 0.13976 0.88815 0.0
H1254 H 0.0395 0.14299 0.67714 0.0
H1255 H 0.06836 0.13216 0.59641 0.0
H1256 H 0.11523 0.15122 0.75096 0.0
H1257 H 0.08641 0.1613 0.83378 0.0
C1258 C 0.01505 0.24143 0.97756 0.0
C1259 C 0.03514 0.24822 1.00387 0.0
C1260 C 0.01278 0.22177 0.94014 0.0
C1261 C 0.03039 0.20788 0.92908 0.0
C1262 C 0.05053 0.21528 0.95308 0.0
C1263 C 0.05283 0.23497 0.98908 0.0
C1264 C 0.0282 0.18574 0.89395 0.0
C1265 C 0.04386 0.1789 0.84491 0.0
C1266 C 0.01132 0.17097 0.90958 0.0
C1267 C 0.99536 0.17545 0.96581 0.0
C1268 C 1.00204 0.1801 0.03541 0.0
C1269 C 0.98693 0.18452 0.08809 0.0
C1270 C 0.96508 0.18411 0.072 0.0
C1271 C 0.9583 0.17922 1.00324 0.0
C1272 C 0.97335 0.17484 0.95031 0.0
C1273 C 0.0415 0.08674 0.76512 0.0
C1274 C 0.02292 0.07908 0.7309 0.0
C1275 C 0.04234 0.1072 0.79708 0.0
C1276 C 0.02473 0.12127 0.79464 0.0
C1277 C 1.00604 0.11363 0.7603 0.0
C1278 C 1.00516 0.09294 0.72913 0.0
C1279 C 0.02602 0.14385 0.82643 0.0
C1280 C 0.0102 0.15075 0.87469 0.0
C1281 C 0.0432 0.1584 0.81195 0.0
C1282 C 0.06067 0.15287 0.76164 0.0
C1283 C 0.05592 0.14489 0.69378 0.0
C1284 C 0.07231 0.13881 0.64772 0.0
C1285 C 0.09369 0.14116 0.66819 0.0
C1286 C 0.09866 0.14945 0.73504 0.0
C1287 C 0.08226 0.15526 0.7817 0.0
H1288 H 0.10638 0.1365 0.63237 0.0
H1289 H 0.95341 0.18753 0.11285 0.0
H1290 H 0.29321 0.06795 0.00851 0.0
H1291 H 0.32659 0.06495 0.94268 0.0
H1292 H 0.31864 0.99631 0.93584 0.0
H1293 H 0.28604 0.99942 0.00893 0.0
H1294 H 0.35745 1.00132 0.95179 0.0
H1295 H 0.3131 0.03648 0.78106 0.0
H1296 H 0.28846 0.06395 0.73534 0.0
H1297 H 0.33512 0.11302 0.77922 0.0
H1298 H 0.35995 0.08588 0.82585 0.0
H1299 H 0.43655 0.02712 0.62899 0.0
H1300 H 0.40047 0.02814 0.68174 0.0
H1301 H 0.42813 0.0234 0.89017 0.0
H1302 H 0.46378 0.02195 0.83839 0.0
H1303 H 0.37822 0.05263 0.76279 0.0
H1304 H 0.39637 1.00032 0.00945 0.0
H1305 H 0.4203 0.97058 0.04185 0.0
H1306 H 0.42315 0.9508 0.82397 0.0
H1307 H 0.39902 0.9802 0.79046 0.0
C1308 C 0.29836 0.05219 0.99209 0.0
C1309 C 0.28661 0.03397 0.01416 0.0
C1310 C 0.3176 0.05044 0.95336 0.0
C1311 C 0.32557 0.03039 0.93151 0.0
C1312 C 0.3133 0.01211 0.95107 0.0
C1313 C 0.29425 0.01386 0.99196 0.0
C1314 C 0.3469 0.02858 0.89133 0.0
C1315 C 0.36175 0.0126 0.9104 0.0
C1316 C 0.35315 0.04284 0.83571 0.0
C1317 C 0.33831 0.05916 0.80734 0.0
C1318 C 0.31806 0.05314 0.78121 0.0
C1319 C 0.30407 0.06865 0.75512 0.0
C1320 C 0.31021 0.09022 0.75449 0.0
C1321 C 0.33038 0.09632 0.77976 0.0
C1322 C 0.34443 0.08087 0.80591 0.0
C1323 C 0.43498 0.02617 0.68608 0.0
C1324 C 0.45345 0.02417 0.7287 0.0
C1325 C 0.41418 0.02688 0.71655 0.0
C1326 C 0.41105 0.02552 0.79075 0.0
C1327 C 0.42958 0.02405 0.83307 0.0
C1328 C 0.45024 0.02334 0.80289 0.0
C1329 C 0.3887 0.02567 0.82419 0.0
C1330 C 0.37377 0.04134 0.80402 0.0
C1331 C 0.38214 0.01077 0.87727 0.0
C1332 C 0.396 0.99256 0.89746 0.0
C1333 C 0.40196 0.98951 0.96858 0.0
C1334 C 0.4156 0.97274 0.98711 0.0
C1335 C 0.42327 0.95884 0.935 0.0
C1336 C 0.41723 0.9616 0.86429 0.0
C1337 C 0.40358 0.97831 0.84551 0.0
H1338 H 0.43388 0.94591 0.94943 0.0
H1339 H 0.29935 0.1022 0.73431 0.0
H1340 H 0.46856 0.29709 0.01092 0.0
H1341 H 0.47234 0.33031 0.94271 0.0
H1342 H 0.54101 0.32605 0.95945 0.0
H1343 H 0.53706 0.29259 0.02843 0.0
H1344 H 0.52927 0.36651 0.98514 0.0
H1345 H 0.51298 0.31764 0.79835 0.0
H1346 H 0.4929 0.28966 0.73385 0.0
H1347 H 0.43744 0.32993 0.72835 0.0
H1348 H 0.45709 0.35804 0.79375 0.0
H1349 H 0.54589 0.45909 0.76659 0.0
H1350 H 0.54593 0.42331 0.81942 0.0
H1351 H 0.47885 0.41612 0.76863 0.0
H1352 H 0.47975 0.45096 0.70857 0.0
H1353 H 0.49149 0.3802 0.75903 0.0
H1354 H 0.50745 0.42811 0.95653 0.0
H1355 H 0.52825 0.45555 0.02191 0.0
H1356 H 0.58475 0.4172 1.00563 0.0
H1357 H 0.5644 0.38947 0.94069 0.0
C1358 C 0.48451 0.30294 0.99868 0.0
C1359 C 0.50248 0.29174 0.02428 0.0
C1360 C 0.48671 0.32212 0.95946 0.0
C1361 C 0.50702 0.33108 0.94434 0.0
C1362 C 0.52508 0.31976 0.96941 0.0
C1363 C 0.52286 0.30036 0.00828 0.0
C1364 C 0.50916 0.35246 0.90505 0.0
C1365 C 0.52122 0.36933 0.9351 0.0
C1366 C 0.49842 0.35685 0.84017 0.0
C1367 C 0.48645 0.33986 0.80169 0.0
C1368 C 0.49644 0.32045 0.78404 0.0
C1369 C 0.48514 0.30458 0.74716 0.0
C1370 C 0.46389 0.30799 0.72719 0.0
C1371 C 0.45389 0.32729 0.74397 0.0
C1372 C 0.46511 0.3432 0.78091 0.0
C1373 C 0.53119 0.44977 0.76627 0.0
C1374 C 0.51282 0.45806 0.73319 0.0
C1375 C 0.53104 0.42924 0.79811 0.0
C1376 C 0.51215 0.41657 0.80185 0.0
C1377 C 0.4938 0.42501 0.76791 0.0
C1378 C 0.49422 0.44518 0.73349 0.0
C1379 C 0.51144 0.39465 0.8393 0.0
C1380 C 0.49959 0.37758 0.80899 0.0
C1381 C 0.52233 0.39011 0.90414 0.0
C1382 C 0.53445 0.40681 0.94327 0.0
C1383 C 0.52432 0.42557 0.96672 0.0
C1384 C 0.53601 0.44117 1.00363 0.0
C1385 C 0.55777 0.43819 0.01741 0.0
C1386 C 0.5679 0.41952 0.99478 0.0
C1387 C 0.5563 0.40382 0.95815 0.0
H1388 H 0.56676 0.45032 0.04585 0.0
H1389 H 0.45518 0.29569 0.69857 0.0
H1390 H 0.23554 0.52383 0.08072 0.0
H1391 H 0.20072 0.52796 0.02018 0.0
H1392 H 0.21713 0.47714 0.87663 0.0
H1393 H 0.25208 0.47344 0.936 0.0
H1394 H 0.19391 0.53009 0.84021 0.0
H1395 H 0.18661 0.45365 0.9034 0.0
H1396 H 0.18212 0.42029 0.97204 0.0
H1397 H 0.14055 0.45268 0.11786 0.0
H1398 H 0.14465 0.48599 0.04974 0.0
H1399 H 0.07986 0.4798 0.73346 0.0
H1400 H 0.11518 0.47721 0.78883 0.0
H1401 H 0.1184 0.54602 0.80412 0.0
H1402 H 0.08301 0.5485 0.74831 0.0
H1403 H 0.13215 0.48379 0.90467 0.0
H1404 H 0.17046 0.56495 0.81533 0.0
H1405 H 0.16947 0.58916 0.71188 0.0
H1406 H 0.14851 0.53716 0.5795 0.0
H1407 H 0.14969 0.5126 0.68177 0.0
C1408 C 0.23195 0.51388 0.03523 0.0
C1409 C 0.24706 0.49858 0.0127 0.0
C1410 C 0.21172 0.51596 1.0011 0.0
C1411 C 0.20546 0.5024 0.94455 0.0
C1412 C 0.22085 0.48753 0.92093 0.0
C1413 C 0.24115 0.48565 0.95433 0.0
C1414 C 0.18351 0.50444 0.90838 0.0
C1415 C 0.18039 0.52008 0.85523 0.0
C1416 C 0.16558 0.49103 0.9244 0.0
C1417 C 0.16683 0.47263 0.9734 0.0
C1418 C 0.17721 0.45385 0.95166 0.0
C1419 C 0.17431 0.43477 0.98956 0.0
C1420 C 0.16118 0.43435 0.04971 0.0
C1421 C 0.15095 0.45301 0.07196 0.0
C1422 C 0.1536 0.47201 0.03377 0.0
C1423 C 0.08789 0.49441 0.74923 0.0
C1424 C 0.07804 0.51432 0.73659 0.0
C1425 C 0.10842 0.49295 0.78096 0.0
C1426 C 0.12024 0.51138 0.80121 0.0
C1427 C 0.11037 0.53136 0.78843 0.0
C1428 C 0.08983 0.53279 0.75643 0.0
C1429 C 0.14238 0.50949 0.83669 0.0
C1430 C 0.14553 0.49406 0.89008 0.0
C1431 C 0.16055 0.52233 0.81819 0.0
C1432 C 0.15988 0.53702 0.7565 0.0
C1433 C 0.16568 0.55868 0.76412 0.0
C1434 C 0.1651 0.57246 0.70567 0.0
C1435 C 0.15884 0.56472 0.63924 0.0
C1436 C 0.15325 0.54316 0.63103 0.0
C1437 C 0.15385 0.52932 0.68924 0.0
H1438 H 0.15839 0.57541 0.5941 0.0
H1439 H 0.15896 0.4196 0.07904 0.0
H1440 H 0.03216 0.80221 0.23746 0.0
H1441 H 0.03591 0.83549 0.30711 0.0
H1442 H 0.98297 0.81573 0.43877 0.0
H1443 H 0.98019 0.782 0.37177 0.0
H1444 H 0.97784 0.85719 0.38047 0.0
H1445 H 0.02925 0.81775 0.50544 0.0
H1446 H 0.06137 0.79593 0.52489 0.0
H1447 H 0.10137 0.8482 0.45659 0.0
H1448 H 0.06951 0.8703 0.4359 0.0
H1449 H 0.97812 0.95308 0.59464 0.0
H1450 H 0.97616 0.91711 0.54359 0.0
H1451 H 0.04286 0.92184 0.48464 0.0
H1452 H 0.045 0.95703 0.5402 0.0
H1453 H 0.04028 0.88549 0.51274 0.0
H1454 H 0.9882 0.92228 0.36831 0.0
H1455 H 0.95617 0.93733 0.3121 0.0
H1456 H 0.91669 0.89157 0.42209 0.0
H1457 H 0.94905 0.8741 0.46922 0.0
C1458 C 0.02198 0.80456 0.28327 0.0
C1459 C 1.00624 0.78905 0.3 0.0
C1460 C 0.02387 0.82384 0.32259 0.0
C1461 C 0.0096 0.82858 0.37854 0.0
C1462 C 0.99426 0.81277 0.39632 0.0
C1463 C 0.99284 0.79326 0.35849 0.0
C1464 C 0.00967 0.85035 0.41534 0.0
C1465 C 0.99145 0.86332 0.41017 0.0
C1466 C 0.02747 0.85873 0.45345 0.0
C1467 C 0.0468 0.84551 0.46654 0.0
C1468 C 0.04483 0.82451 0.49307 0.0
C1469 C 0.06304 0.8121 0.50486 0.0
C1470 C 0.08339 0.82059 0.49128 0.0
C1471 C 0.08558 0.84157 0.46646 0.0
C1472 C 0.06742 0.85403 0.45453 0.0
C1473 C 0.99236 0.94651 0.57035 0.0
C1474 C 0.01174 0.95829 0.57213 0.0
C1475 C 0.9912 0.92573 0.53989 0.0
C1476 C 0.00923 0.91604 0.50753 0.0
C1477 C 0.0285 0.92816 0.50866 0.0
C1478 C 0.02976 0.94863 0.54067 0.0
C1479 C 1.00859 0.8933 0.47537 0.0
C1480 C 0.02667 0.8798 0.48241 0.0
C1481 C 0.9906 0.88439 0.43856 0.0
C1482 C 0.97116 0.89679 0.42125 0.0
C1483 C 0.97279 0.91523 0.37925 0.0
C1484 C 0.95453 0.92414 0.34887 0.0
C1485 C 0.93428 0.9158 0.36488 0.0
C1486 C 0.93236 0.89812 0.40993 0.0
C1487 C 0.95072 0.88841 0.43714 0.0
H1488 H 0.92013 0.92292 0.342 0.0
H1489 H 0.09748 0.81097 0.50051 0.0
H1490 H 0.75175 0.98392 0.37221 0.0
H1491 H 0.71773 0.98674 0.43859 0.0
H1492 H 0.69322 0.0294 0.27974 0.0
H1493 H 0.72721 0.02669 0.21355 0.0
H1494 H 0.68913 0.03724 0.45972 0.0
H1495 H 0.63919 0.98548 0.27551 0.0
H1496 H 0.63832 0.95258 0.2044 0.0
H1497 H 0.69121 0.92756 0.32316 0.0
H1498 H 0.69156 0.95995 0.3978 0.0
H1499 H 0.57196 0.04309 0.51276 0.0
H1500 H 0.60811 0.04247 0.45989 0.0
H1501 H 0.62197 0.98466 0.57489 0.0
H1502 H 0.58625 0.98595 0.63076 0.0
H1503 H 0.63141 0.9838 0.4183 0.0
H1504 H 0.65087 0.02281 0.62907 0.0
H1505 H 0.64848 0.05159 0.71827 0.0
H1506 H 0.65526 0.09895 0.55445 0.0
H1507 H 0.65806 0.07036 0.46435 0.0
C1508 C 0.73928 0.99422 0.35202 0.0
C1509 C 0.74254 1.00521 0.28748 0.0
C1510 C 0.71956 0.99557 0.38952 0.0
C1511 C 0.70222 1.00769 0.36335 0.0
C1512 C 0.70583 0.01938 0.30047 0.0
C1513 C 0.7255 0.01806 0.26304 0.0
C1514 C 0.68069 1.00868 0.40202 0.0
C1515 C 0.67658 0.02553 0.44996 0.0
C1516 C 0.66381 0.9936 0.39079 0.0
C1517 C 0.66585 0.97547 0.34083 0.0
C1518 C 0.65088 0.97312 0.2857 0.0
C1519 C 0.6503 0.95441 0.24528 0.0
C1520 C 0.66479 0.93797 0.25877 0.0
C1521 C 0.68002 0.94033 0.31257 0.0
C1522 C 0.68047 0.95893 0.35389 0.0
C1523 C 0.5828 0.03037 0.52749 0.0
C1524 C 0.57602 0.01462 0.5765 0.0
C1525 C 0.60359 0.03002 0.49707 0.0
C1526 C 0.61818 0.01349 0.51266 0.0
C1527 C 0.61135 0.99769 0.56152 0.0
C1528 C 0.59082 0.99846 0.59381 0.0
C1529 C 0.63998 0.01218 0.47595 0.0
C1530 C 0.644 0.99553 0.42763 0.0
C1531 C 0.65674 0.02731 0.48699 0.0
C1532 C 0.65445 0.04452 0.54012 0.0
C1533 C 0.65171 0.03938 0.6121 0.0
C1534 C 0.65045 0.05563 0.66282 0.0
C1535 C 0.6516 0.07709 0.642 0.0
C1536 C 0.65429 0.08232 0.57045 0.0
C1537 C 0.65585 0.06611 0.5196 0.0
H1538 H 0.65045 0.08965 0.68133 0.0
H1539 H 0.66429 0.92347 0.22736 0.0
H1540 H 0.4988 0.74417 0.2885 0.0
H1541 H 0.49595 0.70982 0.35216 0.0
H1542 H 0.56454 0.70913 0.37797 0.0
H1543 H 0.56723 0.74319 0.31402 0.0
H1544 H 0.55463 0.67144 0.3447 0.0
H1545 H 0.525 0.71711 0.52111 0.0
H1546 H 0.50082 0.74417 0.57175 0.0
H1547 H 0.44649 0.70407 0.525 0.0
H1548 H 0.47034 0.67689 0.473 0.0
H1549 H 0.55769 0.57864 0.56915 0.0
H1550 H 0.56018 0.61456 0.51843 0.0
H1551 H 0.49136 0.61672 0.50154 0.0
H1552 H 0.4889 0.5812 0.55623 0.0
H1553 H 0.50171 0.65412 0.53237 0.0
H1554 H 0.53298 0.61269 0.33246 0.0
H1555 H 0.55853 0.58779 0.27671 0.0
H1556 H 0.61099 0.62055 0.37767 0.0
H1557 H 0.58575 0.6461 0.43184 0.0
C1558 C 0.5132 0.73703 0.30957 0.0
C1559 C 0.53325 0.74689 0.29658 0.0
C1560 C 0.51162 0.71712 0.34602 0.0
C1561 C 0.53001 0.70632 0.37141 0.0
C1562 C 0.54994 0.71656 0.35956 0.0
C1563 C 0.5515 0.73633 0.32321 0.0
C1564 C 0.52884 0.68421 0.40736 0.0
C1565 C 0.54312 0.66795 0.38632 0.0
C1566 C 0.51384 0.67876 0.46159 0.0
C1567 C 0.49943 0.69509 0.49235 0.0
C1568 C 0.50788 0.71416 0.52095 0.0
C1569 C 0.49423 0.72951 0.54996 0.0
C1570 C 0.47212 0.72588 0.55137 0.0
C1571 C 0.46362 0.70688 0.52377 0.0
C1572 C 0.47719 0.69149 0.4945 0.0
C1573 C 0.54305 0.58659 0.55401 0.0
C1574 C 0.5231 0.5765 0.5667 0.0
C1575 C 0.54447 0.60737 0.52385 0.0
C1576 C 0.52602 0.61886 0.50291 0.0
C1577 C 0.50606 0.60875 0.51616 0.0
C1578 C 0.50463 0.58814 0.5476 0.0
C1579 C 0.52733 0.6413 0.46896 0.0
C1580 C 0.51312 0.65763 0.4905 0.0
C1581 C 0.54255 0.64698 0.41576 0.0
C1582 C 0.55754 0.63111 0.38639 0.0
C1583 C 0.54996 0.61444 0.34301 0.0
C1584 C 0.56439 0.60033 0.31138 0.0
C1585 C 0.58638 0.60255 0.32384 0.0
C1586 C 0.59397 0.61884 0.36816 0.0
C1587 C 0.57964 0.63325 0.39879 0.0
H1588 H 0.59757 0.59176 0.29885 0.0
H1589 H 0.46159 0.73776 0.57401 0.0
H1590 H 0.79424 0.56713 0.32567 0.0
H1591 H 0.82849 0.56325 0.38626 0.0
H1592 H 0.8189 0.4948 0.39325 0.0
H1593 H 0.78529 0.49879 0.32641 0.0
H1594 H 0.84581 0.55398 0.49515 0.0
H1595 H 0.8662 0.46704 0.40776 0.0
H1596 H 0.85951 0.4424 0.30786 0.0
H1597 H 0.8471 0.49579 0.17099 0.0
H1598 H 0.85384 0.52081 0.26994 0.0
H1599 H 0.94112 0.52912 0.68298 0.0
H1600 H 0.90484 0.52934 0.63271 0.0
H1601 H 0.93062 0.51313 0.42788 0.0
H1602 H 0.96616 0.51001 0.48046 0.0
H1603 H 0.89599 0.49684 0.42336 0.0
H1604 H 0.91026 0.56923 0.49004 0.0
H1605 H 0.92164 0.59815 0.57128 0.0
H1606 H 0.87113 0.58134 0.71539 0.0
H1607 H 0.85921 0.55242 0.63456 0.0
C1608 C 0.79926 0.55122 0.34099 0.0
C1609 C 0.78675 0.53332 0.32056 0.0
C1610 C 0.81909 0.54895 0.376 0.0
C1611 C 0.82724 0.52863 0.39399 0.0
C1612 C 0.81387 0.51074 0.37856 0.0
C1613 C 0.79416 0.51301 0.34165 0.0
C1614 C 0.84965 0.52651 0.42707 0.0
C1615 C 0.85659 0.54136 0.47899 0.0
C1616 C 0.86471 0.51062 0.40617 0.0
C1617 C 0.86033 0.49577 0.34651 0.0
C1618 C 0.86206 0.47353 0.35634 0.0
C1619 C 0.85825 0.45951 0.29989 0.0
C1620 C 0.85281 0.46755 0.23321 0.0
C1621 C 0.85123 0.48963 0.22277 0.0
C1622 C 0.85503 0.50373 0.27902 0.0
C1623 C 0.93901 0.52535 0.62743 0.0
C1624 C 0.95697 0.52009 0.58588 0.0
C1625 C 0.91814 0.52595 0.59794 0.0
C1626 C 0.91439 0.52221 0.52492 0.0
C1627 C 0.93239 0.51639 0.48395 0.0
C1628 C 0.95308 0.51499 0.51408 0.0
C1629 C 0.89201 0.52418 0.49156 0.0
C1630 C 0.88512 0.50939 0.43953 0.0
C1631 C 0.87742 0.54078 0.50946 0.0
C1632 C 0.8839 0.55864 0.55659 0.0
C1633 C 0.90153 0.57176 0.53895 0.0
C1634 C 0.90808 0.58811 0.58486 0.0
C1635 C 0.89714 0.59149 0.64847 0.0
C1636 C 0.8795 0.57867 0.66602 0.0
C1637 C 0.87277 0.56239 0.62009 0.0
H1638 H 0.90232 0.60408 0.68413 0.0
H1639 H 0.84987 0.45667 0.18957 0.0
loop_
_geom_bond_atom_site_label_1
_geom_bond_atom_site_label_2
_geom_bond_distance
_geom_bond_site_symmetry_2
_ccdc_geom_bond_type
C0 N1 1.317 . S
C0 N2 1.348 . S
C0 C3 1.485 . S
N1 C0 1.317 . S
N1 N5 1.370 . S
N2 C0 1.348 . S
N2 C4 1.346 . S
C3 C0 1.485 . S
C3 H7 0.960 . S
C3 H8 0.961 . S
C3 H9 0.960 . S
C4 N2 1.346 . S
C4 N5 1.307 . S
C4 C6 1.486 . S
N5 N1 1.370 . S
N5 C4 1.307 . S
C6 C4 1.486 . S
C6 H10 0.960 . S
C6 H11 0.960 . S
C6 H12 0.959 . S
H7 C3 0.960 . S
H8 C3 0.961 . S
H9 C3 0.960 . S
H10 C6 0.960 . S
H11 C6 0.960 . S
H12 C6 0.959 . S
C13 N14 1.317 . S
C13 N15 1.348 . S
C13 C16 1.485 . S
N14 C13 1.317 . S
N14 N18 1.370 . S
N15 C13 1.348 . S
N15 C17 1.346 . S
C16 C13 1.485 . S
C16 H20 0.960 . S
C16 H21 0.961 . S
C16 H22 0.960 . S
C17 N15 1.346 . S
C17 N18 1.307 . S
C17 C19 1.486 . S
N18 N14 1.370 . S
N18 C17 1.307 . S
C19 C17 1.486 . S
C19 H23 0.960 . S
C19 H24 0.960 . S
C19 H25 0.959 . S
H20 C16 0.960 . S
H21 C16 0.961 . S
H22 C16 0.960 . S
H23 C19 0.960 . S
H24 C19 0.960 . S
H25 C19 0.959 . S
C26 N27 1.317 . S
C26 N28 1.348 . S
C26 C29 1.485 . S
N27 C26 1.317 . S
N27 N31 1.370 . S
N28 C26 1.348 . S
N28 C30 1.346 . S
C29 C26 1.485 . S
C29 H33 0.960 . S
C29 H34 0.961 . S
C29 H35 0.960 . S
C30 N28 1.346 . S
C30 N31 1.307 . S
C30 C32 1.486 . S
N31 N27 1.370 . S
N31 C30 1.307 . S
C32 C30 1.486 . S
C32 H36 0.960 . S
C32 H37 0.960 . S
C32 H38 0.959 . S
H33 C29 0.960 . S
H34 C29 0.961 . S
H35 C29 0.960 . S
H36 C32 0.960 . S
H37 C32 0.960 . S
H38 C32 0.959 . S
C39 N40 1.317 . S
C39 N41 1.348 . S
C39 C42 1.485 . S
N40 C39 1.317 . S
N40 N44 1.370 . S
N41 C39 1.348 . S
N41 C43 1.346 . S
C42 C39 1.485 . S
C42 H46 0.960 . S
C42 H47 0.961 . S
C42 H48 0.960 . S
C43 N41 1.346 . S
C43 N44 1.307 . S
C43 C45 1.486 . S
N44 N40 1.370 . S
N44 C43 1.307 . S
C45 C43 1.486 . S
C45 H49 0.960 . S
C45 H50 0.960 . S
C45 H51 0.959 . S
H46 C42 0.960 . S
H47 C42 0.961 . S
H48 C42 0.960 . S
H49 C45 0.960 . S
H50 C45 0.960 . S
H51 C45 0.959 . S
C52 N53 1.316 1_556 S
C52 N54 1.348 1_556 S
C52 C55 1.485 . S
N53 C52 1.316 1_554 S
N53 N57 1.387 . S
N54 C52 1.348 1_554 S
N54 C56 1.346 . S
C55 C52 1.485 . S
C55 H59 0.960 . S
C55 H60 0.961 . S
C55 H61 0.960 . S
C56 N54 1.346 . S
C56 N57 1.307 . S
C56 C58 1.486 . S
N57 N53 1.387 . S
N57 C56 1.307 . S
C58 C56 1.486 . S
C58 H62 0.960 . S
C58 H63 0.960 . S
C58 H64 0.959 . S
H59 C55 0.960 . S
H60 C55 0.961 . S
H61 C55 0.960 . S
H62 C58 0.960 . S
H63 C58 0.960 . S
H64 C58 0.959 . S
C65 N66 1.317 1_556 S
C65 N67 1.348 1_556 S
C65 C68 1.485 . S
N66 C65 1.317 1_554 S
N66 N70 1.370 . S
N67 C65 1.348 1_554 S
N67 C69 1.346 . S
C68 C65 1.485 . S
C68 H72 0.960 . S
C68 H73 0.961 . S
C68 H74 0.960 . S
C69 N67 1.346 . S
C69 N70 1.307 . S
C69 C71 1.486 . S
N70 N66 1.370 . S
N70 C69 1.307 . S
C71 C69 1.486 . S
C71 H75 0.960 . S
C71 H76 0.960 . S
C71 H77 0.959 . S
H72 C68 0.960 . S
H73 C68 0.961 . S
H74 C68 0.960 . S
H75 C71 0.960 . S
H76 C71 0.960 . S
H77 C71 0.959 . S
C78 N79 1.317 1_556 S
C78 N80 1.348 1_556 S
C78 C81 1.485 . S
N79 C78 1.317 1_554 S
N79 N83 1.370 . S
N80 C78 1.348 1_554 S
N80 C82 1.346 . S
C81 C78 1.485 . S
C81 H85 0.960 . S
C81 H86 0.961 . S
C81 H87 0.960 . S
C82 N80 1.346 . S
C82 N83 1.307 . S
C82 C84 1.486 . S
N83 N79 1.370 . S
N83 C82 1.307 . S
C84 C82 1.486 . S
C84 H88 0.960 . S
C84 H89 0.960 . S
C84 H90 0.959 . S
H85 C81 0.960 . S
H86 C81 0.961 . S
H87 C81 0.960 . S
H88 C84 0.960 . S
H89 C84 0.960 . S
H90 C84 0.959 . S
C91 N92 1.317 . S
C91 N93 1.348 1_556 S
C91 C94 1.485 . S
N92 C91 1.317 . S
N92 N96 1.370 1_556 S
N93 C91 1.348 1_554 S
N93 C95 1.346 . S
C94 C91 1.485 . S
C94 H98 0.960 . S
C94 H99 0.961 . S
C94 H100 0.960 . S
C95 N93 1.346 . S
C95 N96 1.307 . S
C95 C97 1.486 . S
N96 N92 1.370 1_554 S
N96 C95 1.307 . S
C97 C95 1.486 . S
C97 H101 0.960 . S
C97 H102 0.960 . S
C97 H103 0.959 . S
H98 C94 0.960 . S
H99 C94 0.961 . S
H100 C94 0.960 . S
H101 C97 0.960 . S
H102 C97 0.960 . S
H103 C97 0.959 . S
Tb104 N133 2.617 . S
Tb104 N139 2.572 . S
Tb104 O148 2.465 1_655 S
Tb104 O149 2.387 1_545 S
Tb104 O151 2.428 . S
Tb104 O152 2.308 1_655 S
Tb104 O156 2.349 1_655 S
Tb104 O159 2.393 . S
Tb104 C168 2.802 . S
C105 N106 1.379 . S
C105 C108 1.416 . S
C105 C112 1.424 . S
N106 C105 1.379 . S
N106 C109 1.334 . S
N106 Tb115 2.617 1_545 S
C107 C109 1.390 . S
C107 C110 1.339 . S
C107 H127 0.930 . S
C108 C105 1.416 . S
C108 C110 1.416 . S
C108 C114 1.448 . S
C109 N106 1.334 . S
C109 C107 1.390 . S
C109 H120 0.930 1_545 S
C110 C107 1.339 . S
C110 C108 1.416 . S
C110 H131 0.930 . S
C111 C112 1.413 . S
C111 C113 1.427 . S
C111 C117 1.416 . S
C112 C105 1.424 . S
C112 C111 1.413 . S
C112 N116 1.361 . S
C113 C111 1.427 . S
C113 C114 1.328 . S
C113 H128 0.929 1_556 S
C114 C108 1.448 . S
C114 C113 1.328 . S
C114 H129 0.930 . S
Tb115 N106 2.617 1_565 S
Tb115 N116 2.572 1_565 S
Tb115 O150 2.349 . S
Tb115 O153 2.393 1_565 S
Tb115 O154 2.465 . S
Tb115 O155 2.387 1_565 S
Tb115 O157 2.428 . S
Tb115 O158 2.308 1_465 S
Tb115 C179 2.802 . S
N116 C112 1.361 . S
N116 Tb115 2.572 1_545 S
N116 C118 1.340 . S
C117 C111 1.416 . S
C117 C119 1.332 . S
C117 H125 0.931 1_556 S
C118 N116 1.340 . S
C118 C119 1.407 . S
C118 H124 0.930 1_455 S
C119 C117 1.332 . S
C119 C118 1.407 . S
C119 H121 0.929 1_455 S
H120 C109 0.930 1_565 S
H121 C119 0.929 1_655 S
H122 C137 0.930 . S
H123 C144 0.933 . S
H124 C118 0.930 1_655 S
H125 C117 0.931 1_554 S
H126 C140 0.930 . S
H127 C107 0.930 . S
H128 C113 0.929 1_554 S
H129 C114 0.930 . S
H130 C135 0.930 . S
H131 C110 0.930 . S
H132 C143 0.931 . S
N133 Tb104 2.617 . S
N133 C134 1.379 . S
N133 C137 1.334 . S
C134 N133 1.379 . S
C134 C136 1.416 1_545 S
C134 C142 1.424 . S
C135 H130 0.930 . S
C135 C137 1.390 . S
C135 C138 1.336 1_545 S
C136 C134 1.416 1_565 S
C136 C138 1.417 . S
C136 C169 1.448 . S
C137 H122 0.930 . S
C137 N133 1.334 . S
C137 C135 1.390 . S
C138 C135 1.336 1_565 S
C138 C136 1.417 . S
C138 H145 0.932 . S
N139 Tb104 2.572 . S
N139 C140 1.340 1_655 S
N139 C142 1.361 . S
C140 H126 0.930 . S
C140 N139 1.340 1_455 S
C140 C144 1.391 1_545 S
C141 C142 1.413 1_565 S
C141 C143 1.416 . S
C141 C170 1.427 . S
C142 C134 1.424 . S
C142 N139 1.361 . S
C142 C141 1.413 1_545 S
C143 H132 0.931 . S
C143 C141 1.416 . S
C143 C144 1.346 1_655 S
C144 H123 0.933 . S
C144 C140 1.391 1_565 S
C144 C143 1.346 1_455 S
H145 C138 0.932 . S
H146 C169 0.930 . S
H147 C170 0.929 . S
O148 Tb104 2.465 1_455 S
O148 C168 1.264 1_455 S
O149 Tb104 2.387 1_565 S
O149 C160 1.264 . S
O150 Tb115 2.349 . S
O150 C160 1.243 1_455 S
O151 Tb104 2.428 . S
O151 C168 1.256 . S
O152 Tb104 2.308 1_455 S
O152 C167 1.266 . S
O153 Tb115 2.393 1_545 S
O153 C167 1.249 . S
O154 Tb115 2.465 . S
O154 C179 1.264 . S
O155 Tb115 2.387 1_545 S
O155 C171 1.264 . S
O156 Tb104 2.349 1_455 S
O156 C171 1.243 . S
O157 Tb115 2.428 . S
O157 C179 1.256 . S
O158 Tb115 2.308 1_645 S
O158 C178 1.266 . S
O159 Tb104 2.393 . S
O159 C178 1.248 . S
C160 O149 1.264 . S
C160 O150 1.243 1_655 S
C161 C164 1.399 . S
C161 C166 1.383 1_655 S
C161 C168 1.496 . S
C162 C163 1.399 . S
C162 C166 1.389 1_655 S
C163 C162 1.399 . S
C163 C165 1.380 . S
C163 H180 0.929 . S
C164 C161 1.399 . S
C164 C165 1.392 . S
C164 H181 0.929 . S
C165 C163 1.380 . S
C165 C164 1.392 . S
C165 H182 0.929 . S
C166 C161 1.383 1_455 S
C166 C162 1.389 1_455 S
C166 H183 0.931 . S
C167 O152 1.266 . S
C167 O153 1.249 . S
C168 Tb104 2.802 . S
C168 O148 1.264 1_655 S
C168 O151 1.256 . S
C168 C161 1.496 . S
C169 C136 1.448 . S
C169 H146 0.930 . S
C169 C170 1.328 . S
C170 C141 1.427 . S
C170 H147 0.929 . S
C170 C169 1.328 . S
C171 O155 1.264 . S
C171 O156 1.243 . S
C172 C175 1.399 . S
C172 C176 1.383 . S
C172 C179 1.496 . S
C173 C174 1.399 . S
C173 C176 1.389 . S
C174 C173 1.399 . S
C174 C177 1.380 . S
C174 H184 0.929 . S
C175 C172 1.399 . S
C175 C177 1.392 . S
C175 H185 0.929 . S
C176 C172 1.383 . S
C176 C173 1.389 . S
C176 H186 0.931 . S
C177 C174 1.380 . S
C177 C175 1.392 . S
C177 H187 0.929 . S
C178 O158 1.266 . S
C178 O159 1.248 . S
C179 Tb115 2.802 . S
C179 O154 1.264 . S
C179 O157 1.256 . S
C179 C172 1.496 . S
H180 C163 0.929 . S
H181 C164 0.929 . S
H182 C165 0.929 . S
H183 C166 0.931 . S
H184 C174 0.929 . S
H185 C175 0.929 . S
H186 C176 0.931 . S
H187 C177 0.929 . S
Tb188 N217 2.617 . S
Tb188 N223 2.572 . S
Tb188 O232 2.465 . S
Tb188 O233 2.387 . S
Tb188 O235 2.428 . S
Tb188 O236 2.308 . S
Tb188 O240 2.349 1_545 S
Tb188 O243 2.393 . S
Tb188 C252 2.802 . S
C189 N190 1.379 . S
C189 C192 1.416 . S
C189 C196 1.424 . S
N190 C189 1.379 . S
N190 C193 1.334 . S
N190 Tb199 2.617 . S
C191 C193 1.390 . S
C191 C194 1.339 . S
C191 H211 0.930 . S
C192 C189 1.416 . S
C192 C194 1.416 . S
C192 C198 1.448 . S
C193 N190 1.334 . S
C193 C191 1.390 . S
C193 H204 0.930 . S
C194 C191 1.339 . S
C194 C192 1.416 . S
C194 H215 0.930 . S
C195 C196 1.413 . S
C195 C197 1.427 . S
C195 C201 1.416 . S
C196 C189 1.424 . S
C196 C195 1.413 . S
C196 N200 1.361 . S
C197 C195 1.427 . S
C197 C198 1.328 . S
C197 H212 0.929 . S
C198 C192 1.448 . S
C198 C197 1.328 . S
C198 H213 0.930 . S
Tb199 N190 2.617 . S
Tb199 N200 2.572 . S
Tb199 O234 2.349 1_565 S
Tb199 O237 2.393 . S
Tb199 O238 2.463 1_565 S
Tb199 O239 2.387 . S
Tb199 O241 2.428 . S
Tb199 O242 2.308 1_565 S
Tb199 C263 2.802 . S
N200 C196 1.361 . S
N200 Tb199 2.572 . S
N200 C202 1.340 . S
C201 C195 1.416 . S
C201 C203 1.332 . S
C201 H209 0.931 . S
C202 N200 1.340 . S
C202 C203 1.407 . S
C202 H208 0.930 . S
C203 C201 1.332 . S
C203 C202 1.407 . S
C203 H205 0.929 . S
H204 C193 0.930 . S
H205 C203 0.929 . S
H206 C221 0.930 . S
H207 C228 0.929 . S
H208 C202 0.930 . S
H209 C201 0.931 . S
H210 C224 0.930 . S
H211 C191 0.930 . S
H212 C197 0.929 . S
H213 C198 0.930 . S
H214 C219 0.930 . S
H215 C194 0.930 . S
H216 C227 0.931 . S
N217 Tb188 2.617 . S
N217 C218 1.379 . S
N217 C221 1.334 . S
C218 N217 1.379 . S
C218 C220 1.416 . S
C218 C226 1.424 . S
C219 H214 0.930 . S
C219 C221 1.390 . S
C219 C222 1.339 . S
C220 C218 1.416 . S
C220 C222 1.416 . S
C220 C253 1.448 . S
C221 H206 0.930 . S
C221 N217 1.334 . S
C221 C219 1.390 . S
C222 C219 1.339 . S
C222 C220 1.416 . S
C222 H229 0.930 . S
N223 Tb188 2.572 . S
N223 C224 1.340 . S
N223 C226 1.361 . S
C224 H210 0.930 . S
C224 N223 1.340 . S
C224 C228 1.407 . S
C225 C226 1.413 . S
C225 C227 1.416 . S
C225 C254 1.427 . S
C226 C218 1.424 . S
C226 N223 1.361 . S
C226 C225 1.413 . S
C227 H216 0.931 . S
C227 C225 1.416 . S
C227 C228 1.332 . S
C228 H207 0.929 . S
C228 C224 1.407 . S
C228 C227 1.332 . S
H229 C222 0.930 . S
H230 C253 0.930 . S
H231 C254 0.929 . S
O232 Tb188 2.465 . S
O232 C252 1.264 . S
O233 Tb188 2.387 . S
O233 C244 1.264 . S
O234 Tb199 2.349 1_545 S
O234 C244 1.243 . S
O235 Tb188 2.428 . S
O235 C252 1.256 . S
O236 Tb188 2.308 . S
O236 C251 1.266 . S
O237 Tb199 2.393 . S
O237 C251 1.248 1_565 S
O238 Tb199 2.463 1_545 S
O238 C263 1.262 1_545 S
O239 Tb199 2.387 . S
O239 C255 1.264 . S
O240 Tb188 2.349 1_565 S
O240 C255 1.243 . S
O241 Tb199 2.428 . S
O241 C263 1.256 . S
O242 Tb199 2.308 1_545 S
O242 C262 1.266 . S
O243 Tb188 2.393 . S
O243 C262 1.248 . S
C244 O233 1.264 . S
C244 O234 1.243 . S
C245 C248 1.399 . S
C245 C250 1.383 . S
C245 C252 1.496 . S
C246 C247 1.399 1_556 S
C246 C250 1.389 . S
C247 C246 1.399 1_554 S
C247 C249 1.380 . S
C247 H264 0.929 . S
C248 C245 1.399 . S
C248 C249 1.392 1_556 S
C248 H265 0.929 . S
C249 C247 1.380 . S
C249 C248 1.392 1_554 S
C249 H266 0.929 . S
C250 C245 1.383 . S
C250 C246 1.389 . S
C250 H267 0.931 . S
C251 O236 1.266 . S
C251 O237 1.248 1_545 S
C252 Tb188 2.802 . S
C252 O232 1.264 . S
C252 O235 1.256 . S
C252 C245 1.496 . S
C253 C220 1.448 . S
C253 H230 0.930 . S
C253 C254 1.328 . S
C254 C225 1.427 . S
C254 H231 0.929 . S
C254 C253 1.328 . S
C255 O239 1.264 . S
C255 O240 1.243 . S
C256 C259 1.399 1_545 S
C256 C260 1.384 . S
C256 C263 1.496 1_545 S
C257 C258 1.399 . S
C257 C260 1.389 . S
C258 C257 1.399 . S
C258 C261 1.380 1_545 S
C258 H268 0.929 . S
C259 C256 1.399 1_565 S
C259 C261 1.392 . S
C259 H269 0.929 . S
C260 C256 1.384 . S
C260 C257 1.389 . S
C260 H270 0.931 . S
C261 C258 1.380 1_565 S
C261 C259 1.392 . S
C261 H271 0.929 . S
C262 O242 1.266 . S
C262 O243 1.248 . S
C263 Tb199 2.802 . S
C263 O238 1.262 1_565 S
C263 O241 1.256 . S
C263 C256 1.496 1_565 S
H264 C247 0.929 . S
H265 C248 0.929 . S
H266 C249 0.929 . S
H267 C250 0.931 . S
H268 C258 0.929 . S
H269 C259 0.929 . S
H270 C260 0.931 . S
H271 C261 0.929 . S
Tb272 N301 2.617 . S
Tb272 N307 2.572 . S
Tb272 O316 2.465 . S
Tb272 O317 2.387 . S
Tb272 O319 2.428 . S
Tb272 O320 2.308 . S
Tb272 O324 2.349 . S
Tb272 O327 2.393 . S
Tb272 C336 2.802 . S
C273 N274 1.379 . S
C273 C276 1.416 . S
C273 C280 1.424 . S
N274 C273 1.379 . S
N274 C277 1.334 . S
N274 Tb283 2.617 . S
C275 C277 1.390 . S
C275 C278 1.339 . S
C275 H295 0.930 . S
C276 C273 1.416 . S
C276 C278 1.416 . S
C276 C282 1.448 . S
C277 N274 1.334 . S
C277 C275 1.390 . S
C277 H288 0.930 . S
C278 C275 1.339 . S
C278 C276 1.416 . S
C278 H299 0.930 . S
C279 C280 1.413 . S
C279 C281 1.427 . S
C279 C285 1.416 . S
C280 C273 1.424 . S
C280 C279 1.413 . S
C280 N284 1.361 . S
C281 C279 1.427 . S
C281 C282 1.328 . S
C281 H296 0.929 1_556 S
C282 C276 1.448 . S
C282 C281 1.328 . S
C282 H297 0.930 . S
Tb283 N274 2.617 . S
Tb283 N284 2.572 . S
Tb283 O318 2.349 . S
Tb283 O321 2.393 . S
Tb283 O322 2.465 . S
Tb283 O323 2.387 . S
Tb283 O325 2.428 . S
Tb283 O326 2.308 . S
Tb283 C347 2.802 . S
N284 C280 1.361 . S
N284 Tb283 2.572 . S
N284 C286 1.340 . S
C285 C279 1.416 . S
C285 C287 1.332 . S
C285 H293 0.931 1_556 S
C286 N284 1.340 . S
C286 C287 1.407 . S
C286 H292 0.930 . S
C287 C285 1.332 . S
C287 C286 1.407 . S
C287 H289 0.929 . S
H288 C277 0.930 . S
H289 C287 0.929 . S
H290 C305 0.930 . S
H291 C312 0.929 . S
H292 C286 0.930 . S
H293 C285 0.931 1_554 S
H294 C308 0.930 . S
H295 C275 0.930 . S
H296 C281 0.929 1_554 S
H297 C282 0.930 . S
H298 C303 0.930 . S
H299 C278 0.930 . S
H300 C311 0.931 . S
N301 Tb272 2.617 . S
N301 C302 1.379 . S
N301 C305 1.334 . S
C302 N301 1.379 . S
C302 C304 1.416 . S
C302 C310 1.424 . S
C303 H298 0.930 . S
C303 C305 1.390 . S
C303 C306 1.339 . S
C304 C302 1.416 . S
C304 C306 1.416 . S
C304 C337 1.448 . S
C305 H290 0.930 . S
C305 N301 1.334 . S
C305 C303 1.390 . S
C306 C303 1.339 . S
C306 C304 1.416 . S
C306 H313 0.930 . S
N307 Tb272 2.572 . S
N307 C308 1.340 . S
N307 C310 1.361 . S
C308 H294 0.930 . S
C308 N307 1.340 . S
C308 C312 1.407 . S
C309 C310 1.413 . S
C309 C311 1.416 . S
C309 C338 1.427 . S
C310 C302 1.424 . S
C310 N307 1.361 . S
C310 C309 1.413 . S
C311 H300 0.931 . S
C311 C309 1.416 . S
C311 C312 1.332 . S
C312 H291 0.929 . S
C312 C308 1.407 . S
C312 C311 1.332 . S
H313 C306 0.930 . S
H314 C337 0.930 . S
H315 C338 0.929 . S
O316 Tb272 2.465 . S
O316 C336 1.264 . S
O317 Tb272 2.387 . S
O317 C328 1.264 . S
O318 Tb283 2.349 . S
O318 C328 1.243 . S
O319 Tb272 2.428 . S
O319 C336 1.256 . S
O320 Tb272 2.308 . S
O320 C335 1.266 . S
O321 Tb283 2.393 . S
O321 C335 1.248 . S
O322 Tb283 2.465 . S
O322 C347 1.264 . S
O323 Tb283 2.387 . S
O323 C339 1.264 . S
O324 Tb272 2.349 . S
O324 C339 1.243 . S
O325 Tb283 2.428 . S
O325 C347 1.256 . S
O326 Tb283 2.308 . S
O326 C346 1.266 . S
O327 Tb272 2.393 . S
O327 C346 1.248 . S
C328 O317 1.264 . S
C328 O318 1.243 . S
C329 C332 1.399 . S
C329 C334 1.383 . S
C329 C336 1.496 . S
C330 C331 1.399 . S
C330 C334 1.389 . S
C331 C330 1.399 . S
C331 C333 1.380 . S
C331 H348 0.929 . S
C332 C329 1.399 . S
C332 C333 1.392 . S
C332 H349 0.929 . S
C333 C331 1.380 . S
C333 C332 1.392 . S
C333 H350 0.929 . S
C334 C329 1.383 . S
C334 C330 1.389 . S
C334 H351 0.931 . S
C335 O320 1.266 . S
C335 O321 1.248 . S
C336 Tb272 2.802 . S
C336 O316 1.264 . S
C336 O319 1.256 . S
C336 C329 1.496 . S
C337 C304 1.448 . S
C337 H314 0.930 . S
C337 C338 1.328 . S
C338 C309 1.427 . S
C338 H315 0.929 . S
C338 C337 1.328 . S
C339 O323 1.264 . S
C339 O324 1.243 . S
C340 C343 1.399 . S
C340 C344 1.383 . S
C340 C347 1.496 . S
C341 C342 1.399 . S
C341 C344 1.389 . S
C342 C341 1.399 . S
C342 C345 1.380 . S
C342 H352 0.929 . S
C343 C340 1.399 . S
C343 C345 1.392 . S
C343 H353 0.929 . S
C344 C340 1.383 . S
C344 C341 1.389 . S
C344 H354 0.931 . S
C345 C342 1.380 . S
C345 C343 1.392 . S
C345 H355 0.929 . S
C346 O326 1.266 . S
C346 O327 1.248 . S
C347 Tb283 2.802 . S
C347 O322 1.264 . S
C347 O325 1.256 . S
C347 C340 1.496 . S
H348 C331 0.929 . S
H349 C332 0.929 . S
H350 C333 0.929 . S
H351 C334 0.931 . S
H352 C342 0.929 . S
H353 C343 0.929 . S
H354 C344 0.931 . S
H355 C345 0.929 . S
Tb356 N385 2.617 . S
Tb356 N391 2.572 . S
Tb356 O400 2.465 . S
Tb356 O401 2.387 1_455 S
Tb356 O403 2.428 . S
Tb356 O404 2.308 . S
Tb356 O408 2.349 . S
Tb356 O411 2.393 . S
Tb356 C420 2.802 . S
C357 N358 1.379 . S
C357 C360 1.416 . S
C357 C364 1.424 . S
N358 C357 1.379 . S
N358 C361 1.331 1_455 S
N358 Tb367 2.617 1_455 S
C359 C361 1.377 1_455 S
C359 C362 1.339 . S
C359 H379 0.930 . S
C360 C357 1.416 . S
C360 C362 1.416 . S
C360 C366 1.448 . S
C361 N358 1.331 1_655 S
C361 C359 1.377 1_655 S
C361 H372 0.949 . S
C362 C359 1.339 . S
C362 C360 1.416 . S
C362 H383 0.930 . S
C363 C364 1.413 . S
C363 C365 1.427 . S
C363 C369 1.416 . S
C364 C357 1.424 . S
C364 C363 1.413 . S
C364 N368 1.361 . S
C365 C363 1.427 . S
C365 C366 1.328 . S
C365 H380 0.929 1_556 S
C366 C360 1.448 . S
C366 C365 1.328 . S
C366 H381 0.930 . S
Tb367 N358 2.617 1_655 S
Tb367 N368 2.572 1_655 S
Tb367 O402 2.349 . S
Tb367 O405 2.393 . S
Tb367 O406 2.465 . S
Tb367 O407 2.387 1_655 S
Tb367 O409 2.428 . S
Tb367 O410 2.308 1_655 S
Tb367 C431 2.802 . S
N368 C364 1.361 . S
N368 Tb367 2.572 1_455 S
N368 C370 1.340 . S
C369 C363 1.416 . S
C369 C371 1.332 . S
C369 H377 0.931 1_556 S
C370 N368 1.340 . S
C370 C371 1.407 . S
C370 H376 0.930 . S
C371 C369 1.332 . S
C371 C370 1.407 . S
C371 H373 0.929 . S
H372 C361 0.949 . S
H373 C371 0.929 . S
H374 C389 0.930 . S
H375 C396 0.929 . S
H376 C370 0.930 . S
H377 C369 0.931 1_554 S
H378 C392 0.930 . S
H379 C359 0.930 . S
H380 C365 0.929 1_554 S
H381 C366 0.930 . S
H382 C387 0.930 . S
H383 C362 0.930 . S
H384 C395 0.931 . S
N385 Tb356 2.617 . S
N385 C386 1.379 . S
N385 C389 1.334 . S
C386 N385 1.379 . S
C386 C388 1.416 1_455 S
C386 C394 1.424 . S
C387 H382 0.930 . S
C387 C389 1.390 . S
C387 C390 1.339 1_455 S
C388 C386 1.416 1_655 S
C388 C390 1.416 . S
C388 C421 1.448 . S
C389 H374 0.930 . S
C389 N385 1.334 . S
C389 C387 1.390 . S
C390 C387 1.339 1_655 S
C390 C388 1.416 . S
C390 H397 0.930 . S
N391 Tb356 2.572 . S
N391 C392 1.340 . S
N391 C394 1.361 . S
C392 H378 0.930 . S
C392 N391 1.340 . S
C392 C396 1.407 1_455 S
C393 C394 1.413 1_655 S
C393 C395 1.416 . S
C393 C422 1.427 . S
C394 C386 1.424 . S
C394 N391 1.361 . S
C394 C393 1.413 1_455 S
C395 H384 0.931 . S
C395 C393 1.416 . S
C395 C396 1.332 . S
C396 H375 0.929 . S
C396 C392 1.407 1_655 S
C396 C395 1.332 . S
H397 C390 0.930 . S
H398 C421 0.930 . S
H399 C422 0.929 . S
O400 Tb356 2.465 . S
O400 C420 1.264 . S
O401 Tb356 2.387 1_655 S
O401 C412 1.264 . S
O402 Tb367 2.349 . S
O402 C412 1.243 . S
O403 Tb356 2.428 . S
O403 C420 1.256 . S
O404 Tb356 2.308 . S
O404 C419 1.266 . S
O405 Tb367 2.393 . S
O405 C419 1.248 1_655 S
O406 Tb367 2.465 . S
O406 C431 1.264 . S
O407 Tb367 2.387 1_455 S
O407 C423 1.264 . S
O408 Tb356 2.349 . S
O408 C423 1.243 . S
O409 Tb367 2.428 . S
O409 C431 1.256 . S
O410 Tb367 2.308 1_455 S
O410 C430 1.266 . S
O411 Tb356 2.393 . S
O411 C430 1.248 . S
C412 O401 1.264 . S
C412 O402 1.243 . S
C413 C416 1.399 . S
C413 C418 1.383 . S
C413 C420 1.496 . S
C414 C415 1.399 . S
C414 C418 1.389 . S
C415 C414 1.399 . S
C415 C417 1.380 . S
C415 H432 0.929 . S
C416 C413 1.399 . S
C416 C417 1.392 . S
C416 H433 0.929 . S
C417 C415 1.380 . S
C417 C416 1.392 . S
C417 H434 0.929 . S
C418 C413 1.383 . S
C418 C414 1.389 . S
C418 H435 0.931 . S
C419 O404 1.266 . S
C419 O405 1.248 1_455 S
C420 Tb356 2.802 . S
C420 O400 1.264 . S
C420 O403 1.256 . S
C420 C413 1.496 . S
C421 C388 1.448 . S
C421 H398 0.930 . S
C421 C422 1.328 . S
C422 C393 1.427 . S
C422 H399 0.929 . S
C422 C421 1.328 . S
C423 O407 1.264 . S
C423 O408 1.243 . S
C424 C427 1.399 . S
C424 C428 1.383 . S
C424 C431 1.496 . S
C425 C426 1.399 . S
C425 C428 1.389 . S
C426 C425 1.399 . S
C426 C429 1.380 . S
C426 H436 0.929 . S
C427 C424 1.399 . S
C427 C429 1.392 . S
C427 H437 0.929 . S
C428 C424 1.383 . S
C428 C425 1.389 . S
C428 H438 0.931 . S
C429 C426 1.380 . S
C429 C427 1.392 . S
C429 H439 0.929 . S
C430 O410 1.266 . S
C430 O411 1.248 . S
C431 Tb367 2.802 . S
C431 O406 1.264 . S
C431 O409 1.256 . S
C431 C424 1.496 . S
H432 C415 0.929 . S
H433 C416 0.929 . S
H434 C417 0.929 . S
H435 C418 0.931 . S
H436 C426 0.929 . S
H437 C427 0.929 . S
H438 C428 0.931 . S
H439 C429 0.929 . S
H440 C458 0.951 . S
H441 C460 0.951 . S
H442 C462 0.950 . S
H443 C463 0.950 . S
H444 C465 0.950 . S
H445 C468 0.962 . S
H446 C469 0.950 . S
H447 C471 0.950 . S
H448 C472 0.950 . S
H449 C473 0.951 . S
H450 C475 0.951 . S
H451 C477 0.950 . S
H452 C478 0.950 . S
H453 C480 0.950 . S
H454 C483 0.950 . S
H455 C484 0.950 . S
H456 C486 0.950 . S
H457 C487 0.950 . S
C458 H440 0.951 . S
C458 C459 1.366 . S
C458 C460 1.388 . S
C459 C458 1.366 . S
C459 C463 1.385 . S
C460 H441 0.951 . S
C460 C458 1.388 . S
C460 C461 1.366 . S
C461 C460 1.366 . S
C461 C462 1.414 . S
C461 C464 1.499 . S
C462 H442 0.950 . S
C462 C461 1.414 . S
C462 C463 1.374 . S
C463 H443 0.950 . S
C463 C459 1.385 . S
C463 C462 1.374 . S
C464 C461 1.499 . S
C464 C465 1.373 . S
C464 C466 1.389 . S
C465 H444 0.950 . S
C465 C464 1.373 . S
C465 C481 1.377 . S
C466 C464 1.389 . S
C466 C467 1.524 . S
C466 C480 1.377 . S
C467 C466 1.524 . S
C467 C468 1.370 1_545 S
C467 C472 1.363 . S
C468 H445 0.962 . S
C468 C467 1.370 1_565 S
C468 C469 1.350 . S
C469 H446 0.950 . S
C469 C468 1.350 . S
C469 C470 1.287 . S
C470 C469 1.287 . S
C470 C471 1.524 1_565 S
C470 H489 0.913 . S
C471 H447 0.950 . S
C471 C470 1.524 1_545 S
C471 C472 1.415 . S
C472 H448 0.950 . S
C472 C467 1.363 . S
C472 C471 1.415 . S
C473 H449 0.951 . S
C473 C474 1.366 . S
C473 C475 1.388 . S
C474 C473 1.366 . S
C474 C478 1.385 . S
C475 H450 0.951 . S
C475 C473 1.388 . S
C475 C476 1.366 . S
C476 C475 1.366 . S
C476 C477 1.414 . S
C476 C479 1.499 . S
C477 H451 0.950 . S
C477 C476 1.414 . S
C477 C478 1.374 . S
C478 H452 0.950 . S
C478 C474 1.385 . S
C478 C477 1.374 . S
C479 C476 1.499 . S
C479 C480 1.373 . S
C479 C481 1.389 . S
C480 H453 0.950 . S
C480 C466 1.377 . S
C480 C479 1.373 . S
C481 C465 1.377 . S
C481 C479 1.389 . S
C481 C482 1.524 . S
C482 C481 1.524 . S
C482 C483 1.397 . S
C482 C487 1.363 . S
C483 H454 0.950 . S
C483 C482 1.397 . S
C483 C484 1.334 . S
C484 H455 0.950 . S
C484 C483 1.334 . S
C484 C485 1.287 . S
C485 C484 1.287 . S
C485 C486 1.524 . S
C485 H488 0.999 . S
C486 H456 0.950 . S
C486 C485 1.524 . S
C486 C487 1.415 . S
C487 H457 0.950 . S
C487 C482 1.363 . S
C487 C486 1.415 . S
H488 C485 0.999 . S
H489 C470 0.913 . S
H490 C508 0.951 . S
H491 C510 0.951 . S
H492 C512 0.950 . S
H493 C513 0.950 . S
H494 C515 0.950 . S
H495 C518 0.950 . S
H496 C519 0.950 . S
H497 C521 0.950 . S
H498 C522 0.950 . S
H499 C523 0.951 . S
H500 C525 0.951 . S
H501 C527 0.950 . S
H502 C528 0.950 . S
H503 C530 0.950 . S
H504 C533 0.950 . S
H505 C534 0.950 . S
H506 C536 0.950 . S
H507 C537 0.950 . S
C508 H490 0.951 . S
C508 C509 1.366 . S
C508 C510 1.388 . S
C509 C508 1.366 . S
C509 C513 1.385 . S
C510 H491 0.951 . S
C510 C508 1.388 . S
C510 C511 1.366 . S
C511 C510 1.366 . S
C511 C512 1.414 . S
C511 C514 1.499 . S
C512 H492 0.950 . S
C512 C511 1.414 . S
C512 C513 1.374 . S
C513 H493 0.950 . S
C513 C509 1.385 . S
C513 C512 1.374 . S
C514 C511 1.499 . S
C514 C515 1.373 . S
C514 C516 1.389 . S
C515 H494 0.950 . S
C515 C514 1.373 . S
C515 C531 1.377 . S
C516 C514 1.389 . S
C516 C517 1.524 . S
C516 C530 1.377 . S
C517 C516 1.524 . S
C517 C518 1.397 . S
C517 C522 1.363 . S
C518 H495 0.950 . S
C518 C517 1.397 . S
C518 C519 1.334 . S
C519 H496 0.950 . S
C519 C518 1.334 . S
C519 C520 1.287 . S
C520 C519 1.287 . S
C520 C521 1.524 . S
C520 H539 0.913 . S
C521 H497 0.950 . S
C521 C520 1.524 . S
C521 C522 1.415 . S
C522 H498 0.950 . S
C522 C517 1.363 . S
C522 C521 1.415 . S
C523 H499 0.951 . S
C523 C524 1.366 . S
C523 C525 1.388 . S
C524 C523 1.366 . S
C524 C528 1.385 . S
C525 H500 0.951 . S
C525 C523 1.388 . S
C525 C526 1.366 . S
C526 C525 1.366 . S
C526 C527 1.414 . S
C526 C529 1.499 . S
C527 H501 0.950 . S
C527 C526 1.414 . S
C527 C528 1.374 . S
C528 H502 0.950 . S
C528 C524 1.385 . S
C528 C527 1.374 . S
C529 C526 1.499 . S
C529 C530 1.373 . S
C529 C531 1.389 . S
C530 H503 0.950 . S
C530 C516 1.377 . S
C530 C529 1.373 . S
C531 C515 1.377 . S
C531 C529 1.389 . S
C531 C532 1.524 . S
C532 C531 1.524 . S
C532 C533 1.397 . S
C532 C537 1.363 . S
C533 H504 0.950 . S
C533 C532 1.397 . S
C533 C534 1.334 . S
C534 H505 0.950 . S
C534 C533 1.334 . S
C534 C535 1.287 . S
C535 C534 1.287 . S
C535 C536 1.524 . S
C535 H538 0.999 . S
C536 H506 0.950 . S
C536 C535 1.524 . S
C536 C537 1.415 . S
C537 H507 0.950 . S
C537 C532 1.363 . S
C537 C536 1.415 . S
H538 C535 0.999 . S
H539 C520 0.913 . S
H540 C558 0.951 . S
H541 C560 0.951 . S
H542 C562 0.950 . S
H543 C563 0.950 . S
H544 C565 0.950 . S
H545 C568 0.950 . S
H546 C569 0.950 . S
H547 C571 0.950 . S
H548 C572 0.950 . S
H549 C573 0.951 . S
H550 C575 0.951 . S
H551 C577 0.950 . S
H552 C578 0.950 . S
H553 C580 0.950 . S
H554 C583 0.950 . S
H555 C584 0.950 . S
H556 C586 0.950 . S
H557 C587 0.950 . S
C558 H540 0.951 . S
C558 C559 1.366 . S
C558 C560 1.388 . S
C559 C558 1.366 . S
C559 C563 1.385 . S
C560 H541 0.951 . S
C560 C558 1.388 . S
C560 C561 1.366 . S
C561 C560 1.366 . S
C561 C562 1.414 . S
C561 C564 1.499 . S
C562 H542 0.950 . S
C562 C561 1.414 . S
C562 C563 1.374 . S
C563 H543 0.950 . S
C563 C559 1.385 . S
C563 C562 1.374 . S
C564 C561 1.499 . S
C564 C565 1.373 . S
C564 C566 1.389 . S
C565 H544 0.950 . S
C565 C564 1.373 . S
C565 C581 1.377 . S
C566 C564 1.389 . S
C566 C567 1.524 . S
C566 C580 1.377 . S
C567 C566 1.524 . S
C567 C568 1.397 . S
C567 C572 1.363 . S
C568 H545 0.950 . S
C568 C567 1.397 . S
C568 C569 1.334 . S
C569 H546 0.950 . S
C569 C568 1.334 . S
C569 C570 1.287 . S
C570 C569 1.287 . S
C570 C571 1.524 . S
C570 H589 0.913 . S
C571 H547 0.950 . S
C571 C570 1.524 . S
C571 C572 1.415 . S
C572 H548 0.950 . S
C572 C567 1.363 . S
C572 C571 1.415 . S
C573 H549 0.951 . S
C573 C574 1.366 . S
C573 C575 1.388 . S
C574 C573 1.366 . S
C574 C578 1.385 . S
C575 H550 0.951 . S
C575 C573 1.388 . S
C575 C576 1.366 . S
C576 C575 1.366 . S
C576 C577 1.414 . S
C576 C579 1.499 . S
C577 H551 0.950 . S
C577 C576 1.414 . S
C577 C578 1.374 . S
C578 H552 0.950 . S
C578 C574 1.385 . S
C578 C577 1.374 . S
C579 C576 1.499 . S
C579 C580 1.373 . S
C579 C581 1.389 . S
C580 H553 0.950 . S
C580 C566 1.377 . S
C580 C579 1.373 . S
C581 C565 1.377 . S
C581 C579 1.389 . S
C581 C582 1.524 . S
C582 C581 1.524 . S
C582 C583 1.397 . S
C582 C587 1.363 . S
C583 H554 0.950 . S
C583 C582 1.397 . S
C583 C584 1.334 . S
C584 H555 0.950 . S
C584 C583 1.334 . S
C584 C585 1.287 . S
C585 C584 1.287 . S
C585 C586 1.524 . S
C585 H588 0.999 . S
C586 H556 0.950 . S
C586 C585 1.524 . S
C586 C587 1.415 . S
C587 H557 0.950 . S
C587 C582 1.363 . S
C587 C586 1.415 . S
H588 C585 0.999 . S
H589 C570 0.913 . S
H590 C608 0.951 . S
H591 C610 0.951 . S
H592 C612 0.950 . S
H593 C613 0.950 . S
H594 C615 0.927 1_655 S
H595 C618 0.950 . S
H596 C619 0.950 . S
H597 C621 0.950 . S
H598 C622 0.950 . S
H599 C623 0.951 . S
H600 C625 0.951 . S
H601 C627 0.950 . S
H602 C628 0.950 . S
H603 C630 0.950 . S
H604 C633 0.950 . S
H605 C634 0.950 . S
H606 C636 0.950 . S
H607 C637 0.950 . S
C608 H590 0.951 . S
C608 C609 1.366 . S
C608 C610 1.388 . S
C609 C608 1.366 . S
C609 C613 1.385 . S
C610 H591 0.951 . S
C610 C608 1.388 . S
C610 C611 1.366 . S
C611 C610 1.366 . S
C611 C612 1.414 . S
C611 C614 1.499 . S
C612 H592 0.950 . S
C612 C611 1.414 . S
C612 C613 1.374 . S
C613 H593 0.950 . S
C613 C609 1.385 . S
C613 C612 1.374 . S
C614 C611 1.499 . S
C614 C615 1.373 . S
C614 C616 1.389 . S
C615 H594 0.927 1_455 S
C615 C614 1.373 . S
C615 C631 1.377 . S
C616 C614 1.389 . S
C616 C617 1.524 . S
C616 C630 1.377 . S
C617 C616 1.524 . S
C617 C618 1.397 . S
C617 C622 1.363 . S
C618 H595 0.950 . S
C618 C617 1.397 . S
C618 C619 1.334 . S
C619 H596 0.950 . S
C619 C618 1.334 . S
C619 C620 1.287 . S
C620 C619 1.287 . S
C620 C621 1.524 . S
C620 H639 0.913 . S
C621 H597 0.950 . S
C621 C620 1.524 . S
C621 C622 1.415 . S
C622 H598 0.950 . S
C622 C617 1.363 . S
C622 C621 1.415 . S
C623 H599 0.951 . S
C623 C624 1.366 . S
C623 C625 1.388 . S
C624 C623 1.366 . S
C624 C628 1.385 . S
C625 H600 0.951 . S
C625 C623 1.388 . S
C625 C626 1.366 . S
C626 C625 1.366 . S
C626 C627 1.414 . S
C626 C629 1.499 . S
C627 H601 0.950 . S
C627 C626 1.414 . S
C627 C628 1.374 . S
C628 H602 0.950 . S
C628 C624 1.385 . S
C628 C627 1.374 . S
C629 C626 1.499 . S
C629 C630 1.373 . S
C629 C631 1.389 . S
C630 H603 0.950 . S
C630 C616 1.377 . S
C630 C629 1.373 . S
C631 C615 1.377 . S
C631 C629 1.389 . S
C631 C632 1.524 1_455 S
C632 C631 1.524 1_655 S
C632 C633 1.397 . S
C632 C637 1.363 . S
C633 H604 0.950 . S
C633 C632 1.397 . S
C633 C634 1.334 . S
C634 H605 0.950 . S
C634 C633 1.334 . S
C634 C635 1.287 . S
C635 C634 1.287 . S
C635 C636 1.524 . S
C635 H638 0.999 . S
C636 H606 0.950 . S
C636 C635 1.524 . S
C636 C637 1.415 . S
C637 H607 0.950 . S
C637 C632 1.363 . S
C637 C636 1.415 . S
H638 C635 0.999 . S
H639 C620 0.913 . S
H640 C658 0.951 . S
H641 C660 0.951 . S
H642 C662 0.950 . S
H643 C663 0.950 . S
H644 C665 0.950 1_545 S
H645 C668 0.950 1_554 S
H646 C669 0.950 . S
H647 C671 0.950 . S
H648 C672 0.950 . S
H649 C673 0.951 . S
H650 C675 0.951 . S
H651 C677 0.950 . S
H652 C678 0.950 . S
H653 C680 0.950 . S
H654 C683 0.950 1_556 S
H655 C684 0.950 1_556 S
H656 C686 0.950 . S
H657 C687 0.950 1_565 S
C658 H640 0.951 . S
C658 C659 1.366 . S
C658 C660 1.388 . S
C659 C658 1.366 . S
C659 C663 1.385 . S
C660 H641 0.951 . S
C660 C658 1.388 . S
C660 C661 1.366 . S
C661 C660 1.366 . S
C661 C662 1.414 . S
C661 C664 1.499 . S
C662 H642 0.950 . S
C662 C661 1.414 . S
C662 C663 1.374 . S
C663 H643 0.950 . S
C663 C659 1.385 . S
C663 C662 1.374 . S
C664 C661 1.499 . S
C664 C665 1.373 . S
C664 C666 1.389 1_554 S
C665 H644 0.950 1_565 S
C665 C664 1.373 . S
C665 C681 1.377 1_565 S
C666 C664 1.389 1_556 S
C666 C667 1.524 . S
C666 C680 1.377 . S
C667 C666 1.524 . S
C667 C668 1.397 . S
C667 C672 1.363 . S
C668 H645 0.950 1_556 S
C668 C667 1.397 . S
C668 C669 1.334 . S
C669 H646 0.950 . S
C669 C668 1.334 . S
C669 C670 1.287 . S
C670 C669 1.287 . S
C670 C671 1.524 . S
C670 H689 0.913 . S
C671 H647 0.950 . S
C671 C670 1.524 . S
C671 C672 1.415 . S
C672 H648 0.950 . S
C672 C667 1.363 . S
C672 C671 1.415 . S
C673 H649 0.951 . S
C673 C674 1.366 1_565 S
C673 C675 1.388 . S
C674 C673 1.366 1_545 S
C674 C678 1.385 . S
C675 H650 0.951 . S
C675 C673 1.388 . S
C675 C676 1.366 . S
C676 C675 1.366 . S
C676 C677 1.414 1_565 S
C676 C679 1.499 . S
C677 H651 0.950 . S
C677 C676 1.414 1_545 S
C677 C678 1.374 . S
C678 H652 0.950 . S
C678 C674 1.385 . S
C678 C677 1.374 . S
C679 C676 1.499 . S
C679 C680 1.373 . S
C679 C681 1.389 1_566 S
C680 H653 0.950 . S
C680 C666 1.377 . S
C680 C679 1.373 . S
C681 C665 1.377 1_545 S
C681 C679 1.389 1_544 S
C681 C682 1.524 . S
C682 C681 1.524 . S
C682 C683 1.397 . S
C682 C687 1.363 . S
C683 H654 0.950 1_554 S
C683 C682 1.397 . S
C683 C684 1.334 . S
C684 H655 0.950 1_554 S
C684 C683 1.334 . S
C684 C685 1.287 . S
C685 C684 1.287 . S
C685 C686 1.524 . S
C685 H688 0.999 . S
C686 H656 0.950 . S
C686 C685 1.524 . S
C686 C687 1.415 . S
C687 H657 0.950 1_545 S
C687 C682 1.363 . S
C687 C686 1.415 . S
H688 C685 0.999 . S
H689 C670 0.913 . S
H690 C708 0.951 . S
H691 C710 0.951 . S
H692 C712 0.950 . S
H693 C713 0.950 . S
H694 C715 0.950 . S
H695 C718 0.950 . S
H696 C719 0.950 . S
H697 C721 0.950 . S
H698 C722 0.950 . S
H699 C723 0.951 . S
H700 C725 0.951 . S
H701 C727 0.950 . S
H702 C728 0.950 . S
H703 C730 0.950 . S
H704 C733 0.950 . S
H705 C734 0.950 . S
H706 C736 0.950 . S
H707 C737 0.950 . S
C708 H690 0.951 . S
C708 C709 1.366 . S
C708 C710 1.388 . S
C709 C708 1.366 . S
C709 C713 1.385 . S
C710 H691 0.951 . S
C710 C708 1.388 . S
C710 C711 1.366 . S
C711 C710 1.366 . S
C711 C712 1.414 . S
C711 C714 1.499 . S
C712 H692 0.950 . S
C712 C711 1.414 . S
C712 C713 1.374 . S
C713 H693 0.950 . S
C713 C709 1.385 . S
C713 C712 1.374 . S
C714 C711 1.499 . S
C714 C715 1.373 . S
C714 C716 1.389 1_554 S
C715 H694 0.950 . S
C715 C714 1.373 . S
C715 C731 1.377 . S
C716 C714 1.389 1_556 S
C716 C717 1.524 . S
C716 C730 1.377 . S
C717 C716 1.524 . S
C717 C718 1.397 . S
C717 C722 1.363 . S
C718 H695 0.950 . S
C718 C717 1.397 . S
C718 C719 1.334 . S
C719 H696 0.950 . S
C719 C718 1.334 . S
C719 C720 1.287 . S
C720 C719 1.287 . S
C720 C721 1.524 . S
C720 H739 0.913 . S
C721 H697 0.950 . S
C721 C720 1.524 . S
C721 C722 1.415 . S
C722 H698 0.950 . S
C722 C717 1.363 . S
C722 C721 1.415 . S
C723 H699 0.951 . S
C723 C724 1.366 . S
C723 C725 1.388 . S
C724 C723 1.366 . S
C724 C728 1.385 . S
C725 H700 0.951 . S
C725 C723 1.388 . S
C725 C726 1.366 . S
C726 C725 1.366 . S
C726 C727 1.414 . S
C726 C729 1.499 . S
C727 H701 0.950 . S
C727 C726 1.414 . S
C727 C728 1.374 . S
C728 H702 0.950 . S
C728 C724 1.385 . S
C728 C727 1.374 . S
C729 C726 1.499 . S
C729 C730 1.373 . S
C729 C731 1.389 1_556 S
C730 H703 0.950 . S
C730 C716 1.377 . S
C730 C729 1.373 . S
C731 C715 1.377 . S
C731 C729 1.389 1_554 S
C731 C732 1.524 . S
C732 C731 1.524 . S
C732 C733 1.397 . S
C732 C737 1.363 . S
C733 H704 0.950 . S
C733 C732 1.397 . S
C733 C734 1.334 . S
C734 H705 0.950 . S
C734 C733 1.334 . S
C734 C735 1.287 . S
C735 C734 1.287 . S
C735 C736 1.524 . S
C735 H738 0.999 . S
C736 H706 0.950 . S
C736 C735 1.524 . S
C736 C737 1.415 . S
C737 H707 0.950 . S
C737 C732 1.363 . S
C737 C736 1.415 . S
H738 C735 0.999 . S
H739 C720 0.913 . S
H740 C758 0.951 . S
H741 C760 0.951 . S
H742 C762 0.950 . S
H743 C763 0.950 . S
H744 C765 0.950 . S
H745 C768 0.950 1_556 S
H746 C769 0.950 . S
H747 C771 0.950 . S
H748 C772 0.950 . S
H749 C773 0.951 . S
H750 C775 0.951 . S
H751 C777 0.950 . S
H752 C778 0.950 . S
H753 C780 0.950 . S
H754 C783 0.950 1_554 S
H755 C784 0.950 . S
H756 C786 0.950 . S
H757 C787 0.950 . S
C758 H740 0.951 . S
C758 C759 1.366 . S
C758 C760 1.388 . S
C759 C758 1.366 . S
C759 C763 1.385 . S
C760 H741 0.951 . S
C760 C758 1.388 . S
C760 C761 1.366 . S
C761 C760 1.366 . S
C761 C762 1.414 . S
C761 C764 1.499 . S
C762 H742 0.950 . S
C762 C761 1.414 . S
C762 C763 1.374 . S
C763 H743 0.950 . S
C763 C759 1.385 . S
C763 C762 1.374 . S
C764 C761 1.499 . S
C764 C765 1.373 . S
C764 C766 1.389 . S
C765 H744 0.950 . S
C765 C764 1.373 . S
C765 C781 1.377 1_554 S
C766 C764 1.389 . S
C766 C767 1.524 . S
C766 C780 1.377 1_554 S
C767 C766 1.524 . S
C767 C768 1.397 . S
C767 C772 1.363 . S
C768 H745 0.950 1_554 S
C768 C767 1.397 . S
C768 C769 1.334 . S
C769 H746 0.950 . S
C769 C768 1.334 . S
C769 C770 1.287 . S
C770 C769 1.287 . S
C770 C771 1.524 . S
C770 H789 0.913 . S
C771 H747 0.950 . S
C771 C770 1.524 . S
C771 C772 1.415 . S
C772 H748 0.950 . S
C772 C767 1.363 . S
C772 C771 1.415 . S
C773 H749 0.951 . S
C773 C774 1.366 . S
C773 C775 1.388 . S
C774 C773 1.366 . S
C774 C778 1.385 . S
C775 H750 0.951 . S
C775 C773 1.388 . S
C775 C776 1.366 . S
C776 C775 1.366 . S
C776 C777 1.414 . S
C776 C779 1.499 . S
C777 H751 0.950 . S
C777 C776 1.414 . S
C777 C778 1.374 . S
C778 H752 0.950 . S
C778 C774 1.385 . S
C778 C777 1.374 . S
C779 C776 1.499 . S
C779 C780 1.373 . S
C779 C781 1.389 . S
C780 H753 0.950 . S
C780 C766 1.377 1_556 S
C780 C779 1.373 . S
C781 C765 1.377 1_556 S
C781 C779 1.389 . S
C781 C782 1.524 . S
C782 C781 1.524 . S
C782 C783 1.397 . S
C782 C787 1.363 . S
C783 H754 0.950 1_556 S
C783 C782 1.397 . S
C783 C784 1.334 . S
C784 H755 0.950 . S
C784 C783 1.334 . S
C784 C785 1.287 . S
C785 C784 1.287 . S
C785 C786 1.524 . S
C785 H788 0.999 . S
C786 H756 0.950 . S
C786 C785 1.524 . S
C786 C787 1.415 . S
C787 H757 0.950 . S
C787 C782 1.363 . S
C787 C786 1.415 . S
H788 C785 0.999 . S
H789 C770 0.913 . S
H790 C808 0.951 . S
H791 C810 0.951 . S
H792 C812 0.922 1_455 S
H793 C813 0.950 1_455 S
H794 C815 0.950 . S
H795 C818 0.950 . S
H796 C819 0.950 . S
H797 C821 0.950 . S
H798 C822 0.950 1_556 S
H799 C823 0.951 . S
H800 C825 0.951 . S
H801 C827 0.950 . S
H802 C828 0.950 . S
H803 C830 0.950 . S
H804 C833 0.950 . S
H805 C834 0.950 . S
H806 C836 0.950 . S
H807 C837 0.950 1_554 S
C808 H790 0.951 . S
C808 C809 1.366 . S
C808 C810 1.388 . S
C809 C808 1.366 . S
C809 C813 1.385 . S
C810 H791 0.951 . S
C810 C808 1.388 . S
C810 C811 1.366 . S
C811 C810 1.366 . S
C811 C812 1.439 . S
C811 C814 1.499 . S
C812 H792 0.922 1_655 S
C812 C811 1.439 . S
C812 C813 1.378 . S
C813 H793 0.950 1_655 S
C813 C809 1.385 . S
C813 C812 1.378 . S
C814 C811 1.499 . S
C814 C815 1.373 1_655 S
C814 C816 1.389 . S
C815 H794 0.950 . S
C815 C814 1.373 1_455 S
C815 C831 1.377 1_554 S
C816 C814 1.389 . S
C816 C817 1.524 . S
C816 C830 1.377 1_554 S
C817 C816 1.524 . S
C817 C818 1.397 . S
C817 C822 1.363 . S
C818 H795 0.950 . S
C818 C817 1.397 . S
C818 C819 1.334 . S
C819 H796 0.950 . S
C819 C818 1.334 . S
C819 C820 1.287 . S
C820 C819 1.287 . S
C820 C821 1.524 . S
C820 H839 0.913 . S
C821 H797 0.950 . S
C821 C820 1.524 . S
C821 C822 1.415 . S
C822 H798 0.950 1_554 S
C822 C817 1.363 . S
C822 C821 1.415 . S
C823 H799 0.951 . S
C823 C824 1.362 1_455 S
C823 C825 1.388 . S
C824 C823 1.362 1_655 S
C824 C828 1.389 . S
C825 H800 0.951 . S
C825 C823 1.388 . S
C825 C826 1.366 1_455 S
C826 C825 1.366 1_655 S
C826 C827 1.414 . S
C826 C829 1.499 . S
C827 H801 0.950 . S
C827 C826 1.414 . S
C827 C828 1.374 . S
C828 H802 0.950 . S
C828 C824 1.389 . S
C828 C827 1.374 . S
C829 C826 1.499 . S
C829 C830 1.373 . S
C829 C831 1.389 1_655 S
C830 H803 0.950 . S
C830 C816 1.377 1_556 S
C830 C829 1.373 . S
C831 C815 1.377 1_556 S
C831 C829 1.389 1_455 S
C831 C832 1.524 . S
C832 C831 1.524 . S
C832 C833 1.397 . S
C832 C837 1.363 . S
C833 H804 0.950 . S
C833 C832 1.397 . S
C833 C834 1.334 . S
C834 H805 0.950 . S
C834 C833 1.334 . S
C834 C835 1.287 . S
C835 C834 1.287 . S
C835 C836 1.524 . S
C835 H838 0.999 . S
C836 H806 0.950 . S
C836 C835 1.524 . S
C836 C837 1.415 . S
C837 H807 0.950 1_556 S
C837 C832 1.363 . S
C837 C836 1.415 . S
H838 C835 0.999 . S
H839 C820 0.913 . S
H840 C858 0.951 1_556 S
H841 C860 0.951 . S
H842 C862 0.950 . S
H843 C863 0.950 . S
H844 C865 0.950 . S
H845 C868 0.950 . S
H846 C869 0.950 . S
H847 C871 0.950 . S
H848 C872 0.950 . S
H849 C873 0.951 . S
H850 C875 0.951 . S
H851 C877 0.950 . S
H852 C878 0.958 . S
H853 C880 0.950 1_655 S
H854 C883 0.950 . S
H855 C884 0.950 . S
H856 C886 0.950 . S
H857 C887 0.950 . S
C858 H840 0.951 1_554 S
C858 C859 1.366 . S
C858 C860 1.388 . S
C859 C858 1.366 . S
C859 C863 1.385 . S
C860 H841 0.951 . S
C860 C858 1.388 . S
C860 C861 1.366 . S
C861 C860 1.366 . S
C861 C862 1.414 . S
C861 C864 1.499 . S
C862 H842 0.950 . S
C862 C861 1.414 . S
C862 C863 1.374 . S
C863 H843 0.950 . S
C863 C859 1.385 . S
C863 C862 1.374 . S
C864 C861 1.499 . S
C864 C865 1.373 . S
C864 C866 1.389 . S
C865 H844 0.950 . S
C865 C864 1.373 . S
C865 C881 1.377 . S
C866 C864 1.389 . S
C866 C867 1.524 1_455 S
C866 C880 1.377 . S
C867 C866 1.524 1_655 S
C867 C868 1.397 . S
C867 C872 1.363 . S
C868 H845 0.950 . S
C868 C867 1.397 . S
C868 C869 1.334 . S
C869 H846 0.950 . S
C869 C868 1.334 . S
C869 C870 1.287 . S
C870 C869 1.287 . S
C870 C871 1.524 . S
C870 H889 0.913 . S
C871 H847 0.950 . S
C871 C870 1.524 . S
C871 C872 1.415 . S
C872 H848 0.950 . S
C872 C867 1.363 . S
C872 C871 1.415 . S
C873 H849 0.951 . S
C873 C874 1.366 . S
C873 C875 1.388 . S
C874 C873 1.366 . S
C874 C878 1.385 . S
C875 H850 0.951 . S
C875 C873 1.388 . S
C875 C876 1.366 . S
C876 C875 1.366 . S
C876 C877 1.414 . S
C876 C879 1.499 . S
C877 H851 0.950 . S
C877 C876 1.414 . S
C877 C878 1.374 . S
C878 H852 0.958 . S
C878 C874 1.385 . S
C878 C877 1.374 . S
C879 C876 1.499 . S
C879 C880 1.373 . S
C879 C881 1.389 . S
C880 H853 0.950 1_455 S
C880 C866 1.377 . S
C880 C879 1.373 . S
C881 C865 1.377 . S
C881 C879 1.389 . S
C881 C882 1.524 . S
C882 C881 1.524 . S
C882 C883 1.397 . S
C882 C887 1.363 . S
C883 H854 0.950 . S
C883 C882 1.397 . S
C883 C884 1.334 . S
C884 H855 0.950 . S
C884 C883 1.334 . S
C884 C885 1.287 . S
C885 C884 1.287 . S
C885 C886 1.524 . S
C885 H888 0.999 . S
C886 H856 0.950 . S
C886 C885 1.524 . S
C886 C887 1.415 . S
C887 H857 0.950 . S
C887 C882 1.363 . S
C887 C886 1.415 . S
H888 C885 0.999 . S
H889 C870 0.913 . S
H890 C908 0.951 . S
H891 C910 0.951 . S
H892 C912 0.950 . S
H893 C913 0.950 . S
H894 C915 0.950 . S
H895 C918 0.950 . S
H896 C919 0.950 . S
H897 C921 0.950 . S
H898 C922 0.950 . S
H899 C923 0.951 . S
H900 C925 0.951 . S
H901 C927 0.964 . S
H902 C928 0.950 1_565 S
H903 C930 0.950 . S
H904 C933 0.950 . S
H905 C934 0.950 . S
H906 C936 0.950 . S
H907 C937 0.950 . S
C908 H890 0.951 . S
C908 C909 1.366 . S
C908 C910 1.388 . S
C909 C908 1.366 . S
C909 C913 1.385 . S
C910 H891 0.951 . S
C910 C908 1.388 . S
C910 C911 1.366 . S
C911 C910 1.366 . S
C911 C912 1.414 . S
C911 C914 1.499 . S
C912 H892 0.950 . S
C912 C911 1.414 . S
C912 C913 1.374 . S
C913 H893 0.950 . S
C913 C909 1.385 . S
C913 C912 1.374 . S
C914 C911 1.499 . S
C914 C915 1.373 . S
C914 C916 1.389 . S
C915 H894 0.950 . S
C915 C914 1.373 . S
C915 C931 1.377 . S
C916 C914 1.389 . S
C916 C917 1.524 . S
C916 C930 1.377 . S
C917 C916 1.524 . S
C917 C918 1.397 . S
C917 C922 1.363 . S
C918 H895 0.950 . S
C918 C917 1.397 . S
C918 C919 1.334 . S
C919 H896 0.950 . S
C919 C918 1.334 . S
C919 C920 1.287 . S
C920 C919 1.287 . S
C920 C921 1.524 . S
C920 H939 0.913 . S
C921 H897 0.950 . S
C921 C920 1.524 . S
C921 C922 1.415 . S
C922 H898 0.950 . S
C922 C917 1.363 . S
C922 C921 1.415 . S
C923 H899 0.951 . S
C923 C924 1.366 . S
C923 C925 1.388 . S
C924 C923 1.366 . S
C924 C928 1.385 . S
C925 H900 0.951 . S
C925 C923 1.388 . S
C925 C926 1.366 . S
C926 C925 1.366 . S
C926 C927 1.414 . S
C926 C929 1.499 . S
C927 H901 0.964 . S
C927 C926 1.414 . S
C927 C928 1.374 . S
C928 H902 0.950 1_545 S
C928 C924 1.385 . S
C928 C927 1.374 . S
C929 C926 1.499 . S
C929 C930 1.373 . S
C929 C931 1.389 . S
C930 H903 0.950 . S
C930 C916 1.377 . S
C930 C929 1.373 . S
C931 C915 1.377 . S
C931 C929 1.389 . S
C931 C932 1.524 . S
C932 C931 1.524 . S
C932 C933 1.397 1_545 S
C932 C937 1.363 . S
C933 H904 0.950 . S
C933 C932 1.397 1_565 S
C933 C934 1.334 . S
C934 H905 0.950 . S
C934 C933 1.334 . S
C934 C935 1.287 . S
C935 C934 1.287 . S
C935 C936 1.524 1_565 S
C935 H938 0.999 . S
C936 H906 0.950 . S
C936 C935 1.524 1_545 S
C936 C937 1.415 . S
C937 H907 0.950 . S
C937 C932 1.363 . S
C937 C936 1.415 . S
H938 C935 0.999 . S
H939 C920 0.913 . S
H940 C958 0.951 . S
H941 C960 0.951 . S
H942 C962 0.950 . S
H943 C963 0.950 . S
H944 C965 0.950 . S
H945 C968 0.950 . S
H946 C969 0.950 . S
H947 C971 0.950 . S
H948 C972 0.950 . S
H949 C973 0.951 . S
H950 C975 0.951 . S
H951 C977 0.950 . S
H952 C978 0.950 . S
H953 C980 0.950 . S
H954 C983 0.950 . S
H955 C984 0.950 . S
H956 C986 0.950 . S
H957 C987 0.950 . S
C958 H940 0.951 . S
C958 C959 1.366 . S
C958 C960 1.388 . S
C959 C958 1.366 . S
C959 C963 1.385 . S
C960 H941 0.951 . S
C960 C958 1.388 . S
C960 C961 1.366 . S
C961 C960 1.366 . S
C961 C962 1.414 . S
C961 C964 1.499 . S
C962 H942 0.950 . S
C962 C961 1.414 . S
C962 C963 1.374 . S
C963 H943 0.950 . S
C963 C959 1.385 . S
C963 C962 1.374 . S
C964 C961 1.499 . S
C964 C965 1.373 . S
C964 C966 1.389 . S
C965 H944 0.950 . S
C965 C964 1.373 . S
C965 C981 1.377 . S
C966 C964 1.389 . S
C966 C967 1.524 . S
C966 C980 1.377 . S
C967 C966 1.524 . S
C967 C968 1.397 . S
C967 C972 1.363 . S
C968 H945 0.950 . S
C968 C967 1.397 . S
C968 C969 1.334 . S
C969 H946 0.950 . S
C969 C968 1.334 . S
C969 C970 1.287 . S
C970 C969 1.287 . S
C970 C971 1.524 . S
C970 H989 0.913 . S
C971 H947 0.950 . S
C971 C970 1.524 . S
C971 C972 1.415 . S
C972 H948 0.950 . S
C972 C967 1.363 . S
C972 C971 1.415 . S
C973 H949 0.951 . S
C973 C974 1.366 . S
C973 C975 1.388 . S
C974 C973 1.366 . S
C974 C978 1.385 . S
C975 H950 0.951 . S
C975 C973 1.388 . S
C975 C976 1.366 . S
C976 C975 1.366 . S
C976 C977 1.414 . S
C976 C979 1.499 . S
C977 H951 0.950 . S
C977 C976 1.414 . S
C977 C978 1.374 . S
C978 H952 0.950 . S
C978 C974 1.385 . S
C978 C977 1.374 . S
C979 C976 1.499 . S
C979 C980 1.373 . S
C979 C981 1.389 . S
C980 H953 0.950 . S
C980 C966 1.377 . S
C980 C979 1.373 . S
C981 C965 1.377 . S
C981 C979 1.389 . S
C981 C982 1.524 . S
C982 C981 1.524 . S
C982 C983 1.397 . S
C982 C987 1.363 . S
C983 H954 0.950 . S
C983 C982 1.397 . S
C983 C984 1.334 . S
C984 H955 0.950 . S
C984 C983 1.334 . S
C984 C985 1.287 . S
C985 C984 1.287 . S
C985 C986 1.524 . S
C985 H988 0.999 . S
C986 H956 0.950 . S
C986 C985 1.524 . S
C986 C987 1.415 . S
C987 H957 0.950 . S
C987 C982 1.363 . S
C987 C986 1.415 . S
H988 C985 0.999 . S
H989 C970 0.913 . S
H990 C1008 0.951 . S
H991 C1010 0.951 . S
H992 C1012 0.950 . S
H993 C1013 0.950 1_556 S
H994 C1015 0.950 . S
H995 C1018 0.950 . S
H996 C1019 0.950 . S
H997 C1021 0.950 . S
H998 C1022 0.950 . S
H999 C1023 0.951 . S
H1000 C1025 0.951 . S
H1001 C1027 0.950 . S
H1002 C1028 0.950 . S
H1003 C1030 0.950 . S
H1004 C1033 0.950 . S
H1005 C1034 0.950 . S
H1006 C1036 0.950 . S
H1007 C1037 0.950 . S
C1008 H990 0.951 . S
C1008 C1009 1.366 . S
C1008 C1010 1.388 . S
C1009 C1008 1.366 . S
C1009 C1013 1.385 . S
C1010 H991 0.951 . S
C1010 C1008 1.388 . S
C1010 C1011 1.366 . S
C1011 C1010 1.366 . S
C1011 C1012 1.414 . S
C1011 C1014 1.499 . S
C1012 H992 0.950 . S
C1012 C1011 1.414 . S
C1012 C1013 1.374 . S
C1013 H993 0.950 1_554 S
C1013 C1009 1.385 . S
C1013 C1012 1.374 . S
C1014 C1011 1.499 . S
C1014 C1015 1.373 . S
C1014 C1016 1.389 . S
C1015 H994 0.950 . S
C1015 C1014 1.373 . S
C1015 C1031 1.377 . S
C1016 C1014 1.389 . S
C1016 C1017 1.524 . S
C1016 C1030 1.377 . S
C1017 C1016 1.524 . S
C1017 C1018 1.397 . S
C1017 C1022 1.363 . S
C1018 H995 0.950 . S
C1018 C1017 1.397 . S
C1018 C1019 1.334 . S
C1019 H996 0.950 . S
C1019 C1018 1.334 . S
C1019 C1020 1.287 . S
C1020 C1019 1.287 . S
C1020 C1021 1.524 . S
C1020 H1039 0.913 . S
C1021 H997 0.950 . S
C1021 C1020 1.524 . S
C1021 C1022 1.415 . S
C1022 H998 0.950 . S
C1022 C1017 1.363 . S
C1022 C1021 1.415 . S
C1023 H999 0.951 . S
C1023 C1024 1.366 . S
C1023 C1025 1.388 . S
C1024 C1023 1.366 . S
C1024 C1028 1.385 . S
C1025 H1000 0.951 . S
C1025 C1023 1.388 . S
C1025 C1026 1.366 . S
C1026 C1025 1.366 . S
C1026 C1027 1.414 . S
C1026 C1029 1.499 . S
C1027 H1001 0.950 . S
C1027 C1026 1.414 . S
C1027 C1028 1.374 . S
C1028 H1002 0.950 . S
C1028 C1024 1.385 . S
C1028 C1027 1.374 . S
C1029 C1026 1.499 . S
C1029 C1030 1.373 . S
C1029 C1031 1.389 . S
C1030 H1003 0.950 . S
C1030 C1016 1.377 . S
C1030 C1029 1.373 . S
C1031 C1015 1.377 . S
C1031 C1029 1.389 . S
C1031 C1032 1.524 . S
C1032 C1031 1.524 . S
C1032 C1033 1.397 . S
C1032 C1037 1.363 . S
C1033 H1004 0.950 . S
C1033 C1032 1.397 . S
C1033 C1034 1.334 . S
C1034 H1005 0.950 . S
C1034 C1033 1.334 . S
C1034 C1035 1.287 . S
C1035 C1034 1.287 . S
C1035 C1036 1.524 . S
C1035 H1038 0.999 . S
C1036 H1006 0.950 . S
C1036 C1035 1.524 . S
C1036 C1037 1.415 . S
C1037 H1007 0.950 . S
C1037 C1032 1.363 . S
C1037 C1036 1.415 . S
H1038 C1035 0.999 . S
H1039 C1020 0.913 . S
H1040 C1058 0.951 . S
H1041 C1060 0.951 . S
H1042 C1062 0.950 1_455 S
H1043 C1063 0.950 1_455 S
H1044 C1065 0.950 . S
H1045 C1068 0.950 . S
H1046 C1069 0.951 1_556 S
H1047 C1071 0.950 . S
H1048 C1072 0.950 . S
H1049 C1073 0.951 . S
H1050 C1075 0.951 . S
H1051 C1077 0.946 1_554 S
H1052 C1078 0.950 . S
H1053 C1080 0.950 . S
H1054 C1083 0.950 . S
H1055 C1084 0.950 . S
H1056 C1086 0.950 . S
H1057 C1087 0.950 . S
C1058 H1040 0.951 . S
C1058 C1059 1.366 . S
C1058 C1060 1.388 . S
C1059 C1058 1.366 . S
C1059 C1063 1.385 . S
C1060 H1041 0.951 . S
C1060 C1058 1.388 . S
C1060 C1061 1.366 . S
C1061 C1060 1.366 . S
C1061 C1062 1.414 . S
C1061 C1064 1.499 . S
C1062 H1042 0.950 1_655 S
C1062 C1061 1.414 . S
C1062 C1063 1.374 . S
C1063 H1043 0.950 1_655 S
C1063 C1059 1.385 . S
C1063 C1062 1.374 . S
C1064 C1061 1.499 . S
C1064 C1065 1.373 1_655 S
C1064 C1066 1.389 . S
C1065 H1044 0.950 . S
C1065 C1064 1.373 1_455 S
C1065 C1081 1.377 . S
C1066 C1064 1.389 . S
C1066 C1067 1.524 . S
C1066 C1080 1.377 . S
C1067 C1066 1.524 . S
C1067 C1068 1.397 . S
C1067 C1072 1.363 . S
C1068 H1045 0.950 . S
C1068 C1067 1.397 . S
C1068 C1069 1.334 . S
C1069 H1046 0.951 1_554 S
C1069 C1068 1.334 . S
C1069 C1070 1.287 . S
C1070 C1069 1.287 . S
C1070 C1071 1.524 . S
C1070 H1089 0.913 . S
C1071 H1047 0.950 . S
C1071 C1070 1.524 . S
C1071 C1072 1.415 . S
C1072 H1048 0.950 . S
C1072 C1067 1.363 . S
C1072 C1071 1.415 . S
C1073 H1049 0.951 . S
C1073 C1074 1.366 . S
C1073 C1075 1.388 . S
C1074 C1073 1.366 . S
C1074 C1078 1.385 1_455 S
C1075 H1050 0.951 . S
C1075 C1073 1.388 . S
C1075 C1076 1.366 . S
C1076 C1075 1.366 . S
C1076 C1077 1.414 1_455 S
C1076 C1079 1.499 1_456 S
C1077 H1051 0.946 1_556 S
C1077 C1076 1.414 1_655 S
C1077 C1078 1.378 . S
C1078 H1052 0.950 . S
C1078 C1074 1.385 1_655 S
C1078 C1077 1.378 . S
C1079 C1076 1.499 1_654 S
C1079 C1080 1.373 . S
C1079 C1081 1.389 1_655 S
C1080 H1053 0.950 . S
C1080 C1066 1.377 . S
C1080 C1079 1.373 . S
C1081 C1065 1.377 . S
C1081 C1079 1.389 1_455 S
C1081 C1082 1.524 . S
C1082 C1081 1.524 . S
C1082 C1083 1.397 . S
C1082 C1087 1.363 . S
C1083 H1054 0.950 . S
C1083 C1082 1.397 . S
C1083 C1084 1.334 . S
C1084 H1055 0.950 . S
C1084 C1083 1.334 . S
C1084 C1085 1.287 . S
C1085 C1084 1.287 . S
C1085 C1086 1.524 . S
C1085 H1088 0.999 . S
C1086 H1056 0.950 . S
C1086 C1085 1.524 . S
C1086 C1087 1.415 . S
C1087 H1057 0.950 . S
C1087 C1082 1.363 . S
C1087 C1086 1.415 . S
H1088 C1085 0.999 . S
H1089 C1070 0.913 . S
H1090 C1108 0.951 . S
H1091 C1110 0.951 . S
H1092 C1112 0.950 1_545 S
H1093 C1113 0.950 . S
H1094 C1115 0.950 . S
H1095 C1118 0.950 . S
H1096 C1119 0.950 . S
H1097 C1121 0.950 . S
H1098 C1122 0.950 . S
H1099 C1123 0.951 . S
H1100 C1125 0.951 . S
H1101 C1127 0.950 . S
H1102 C1128 0.950 . S
H1103 C1130 0.950 . S
H1104 C1133 0.950 . S
H1105 C1134 0.950 . S
H1106 C1136 0.950 . S
H1107 C1137 0.950 . S
C1108 H1090 0.951 . S
C1108 C1109 1.366 . S
C1108 C1110 1.388 . S
C1109 C1108 1.366 . S
C1109 C1113 1.385 . S
C1110 H1091 0.951 . S
C1110 C1108 1.388 . S
C1110 C1111 1.366 . S
C1111 C1110 1.366 . S
C1111 C1112 1.414 . S
C1111 C1114 1.499 . S
C1112 H1092 0.950 1_565 S
C1112 C1111 1.414 . S
C1112 C1113 1.374 . S
C1113 H1093 0.950 . S
C1113 C1109 1.385 . S
C1113 C1112 1.374 . S
C1114 C1111 1.499 . S
C1114 C1115 1.373 1_565 S
C1114 C1116 1.389 . S
C1115 H1094 0.950 . S
C1115 C1114 1.373 1_545 S
C1115 C1131 1.377 . S
C1116 C1114 1.389 . S
C1116 C1117 1.524 . S
C1116 C1130 1.377 . S
C1117 C1116 1.524 . S
C1117 C1118 1.397 . S
C1117 C1122 1.363 . S
C1118 H1095 0.950 . S
C1118 C1117 1.397 . S
C1118 C1119 1.334 . S
C1119 H1096 0.950 . S
C1119 C1118 1.334 . S
C1119 C1120 1.287 . S
C1120 C1119 1.287 . S
C1120 C1121 1.524 . S
C1120 H1139 0.913 . S
C1121 H1097 0.950 . S
C1121 C1120 1.524 . S
C1121 C1122 1.415 . S
C1122 H1098 0.950 . S
C1122 C1117 1.363 . S
C1122 C1121 1.415 . S
C1123 H1099 0.951 . S
C1123 C1124 1.366 . S
C1123 C1125 1.388 . S
C1124 C1123 1.366 . S
C1124 C1128 1.385 1_545 S
C1125 H1100 0.951 . S
C1125 C1123 1.388 . S
C1125 C1126 1.366 1_556 S
C1126 C1125 1.366 1_554 S
C1126 C1127 1.414 1_545 S
C1126 C1129 1.499 1_545 S
C1127 H1101 0.950 . S
C1127 C1126 1.414 1_565 S
C1127 C1128 1.374 1_554 S
C1128 H1102 0.950 . S
C1128 C1124 1.385 1_565 S
C1128 C1127 1.374 1_556 S
C1129 C1126 1.499 1_565 S
C1129 C1130 1.373 . S
C1129 C1131 1.389 1_565 S
C1130 H1103 0.950 . S
C1130 C1116 1.377 . S
C1130 C1129 1.373 . S
C1131 C1115 1.377 . S
C1131 C1129 1.389 1_545 S
C1131 C1132 1.524 . S
C1132 C1131 1.524 . S
C1132 C1133 1.397 . S
C1132 C1137 1.363 . S
C1133 H1104 0.950 . S
C1133 C1132 1.397 . S
C1133 C1134 1.334 . S
C1134 H1105 0.950 . S
C1134 C1133 1.334 . S
C1134 C1135 1.287 . S
C1135 C1134 1.287 . S
C1135 C1136 1.524 . S
C1135 H1138 0.999 . S
C1136 H1106 0.950 . S
C1136 C1135 1.524 . S
C1136 C1137 1.415 . S
C1137 H1107 0.950 . S
C1137 C1132 1.363 . S
C1137 C1136 1.415 . S
H1138 C1135 0.999 . S
H1139 C1120 0.913 . S
H1140 C1158 0.951 . S
H1141 C1160 0.951 . S
H1142 C1162 0.950 . S
H1143 C1163 0.950 . S
H1144 C1165 0.950 . S
H1145 C1168 0.950 . S
H1146 C1169 0.950 . S
H1147 C1171 0.950 . S
H1148 C1172 0.950 . S
H1149 C1173 0.951 . S
H1150 C1175 0.951 . S
H1151 C1177 0.950 . S
H1152 C1178 0.950 1_554 S
H1153 C1180 0.950 . S
H1154 C1183 0.950 . S
H1155 C1184 0.950 . S
H1156 C1186 0.950 . S
H1157 C1187 0.950 . S
C1158 H1140 0.951 . S
C1158 C1159 1.366 . S
C1158 C1160 1.388 . S
C1159 C1158 1.366 . S
C1159 C1163 1.385 . S
C1160 H1141 0.951 . S
C1160 C1158 1.388 . S
C1160 C1161 1.366 . S
C1161 C1160 1.366 . S
C1161 C1162 1.414 . S
C1161 C1164 1.499 . S
C1162 H1142 0.950 . S
C1162 C1161 1.414 . S
C1162 C1163 1.374 . S
C1163 H1143 0.950 . S
C1163 C1159 1.385 . S
C1163 C1162 1.374 . S
C1164 C1161 1.499 . S
C1164 C1165 1.373 . S
C1164 C1166 1.389 . S
C1165 H1144 0.950 . S
C1165 C1164 1.373 . S
C1165 C1181 1.377 . S
C1166 C1164 1.389 . S
C1166 C1167 1.524 . S
C1166 C1180 1.377 . S
C1167 C1166 1.524 . S
C1167 C1168 1.397 . S
C1167 C1172 1.363 . S
C1168 H1145 0.950 . S
C1168 C1167 1.397 . S
C1168 C1169 1.334 . S
C1169 H1146 0.950 . S
C1169 C1168 1.334 . S
C1169 C1170 1.287 . S
C1170 C1169 1.287 . S
C1170 C1171 1.524 . S
C1170 H1189 0.913 . S
C1171 H1147 0.950 . S
C1171 C1170 1.524 . S
C1171 C1172 1.415 . S
C1172 H1148 0.950 . S
C1172 C1167 1.363 . S
C1172 C1171 1.415 . S
C1173 H1149 0.951 . S
C1173 C1174 1.366 . S
C1173 C1175 1.388 . S
C1174 C1173 1.366 . S
C1174 C1178 1.385 . S
C1175 H1150 0.951 . S
C1175 C1173 1.388 . S
C1175 C1176 1.366 . S
C1176 C1175 1.366 . S
C1176 C1177 1.414 1_556 S
C1176 C1179 1.499 1_556 S
C1177 H1151 0.950 . S
C1177 C1176 1.414 1_554 S
C1177 C1178 1.374 1_554 S
C1178 H1152 0.950 1_556 S
C1178 C1174 1.385 . S
C1178 C1177 1.374 1_556 S
C1179 C1176 1.499 1_554 S
C1179 C1180 1.373 . S
C1179 C1181 1.389 . S
C1180 H1153 0.950 . S
C1180 C1166 1.377 . S
C1180 C1179 1.373 . S
C1181 C1165 1.377 . S
C1181 C1179 1.389 . S
C1181 C1182 1.524 1_554 S
C1182 C1181 1.524 1_556 S
C1182 C1183 1.397 . S
C1182 C1187 1.363 . S
C1183 H1154 0.950 . S
C1183 C1182 1.397 . S
C1183 C1184 1.334 . S
C1184 H1155 0.950 . S
C1184 C1183 1.334 . S
C1184 C1185 1.287 . S
C1185 C1184 1.287 . S
C1185 C1186 1.524 . S
C1185 H1188 0.999 . S
C1186 H1156 0.950 . S
C1186 C1185 1.524 . S
C1186 C1187 1.415 . S
C1187 H1157 0.950 . S
C1187 C1182 1.363 . S
C1187 C1186 1.415 . S
H1188 C1185 0.999 . S
H1189 C1170 0.913 . S
H1190 C1208 0.951 . S
H1191 C1210 0.951 . S
H1192 C1212 0.950 . S
H1193 C1213 0.950 . S
H1194 C1215 0.950 . S
H1195 C1218 0.950 . S
H1196 C1219 0.950 . S
H1197 C1221 0.950 . S
H1198 C1222 0.950 . S
H1199 C1223 0.951 . S
H1200 C1225 0.951 . S
H1201 C1227 0.950 . S
H1202 C1228 0.950 1_554 S
H1203 C1230 0.950 . S
H1204 C1233 0.950 1_554 S
H1205 C1234 0.950 . S
H1206 C1236 0.950 . S
H1207 C1237 0.950 . S
C1208 H1190 0.951 . S
C1208 C1209 1.366 . S
C1208 C1210 1.388 . S
C1209 C1208 1.366 . S
C1209 C1213 1.385 . S
C1210 H1191 0.951 . S
C1210 C1208 1.388 . S
C1210 C1211 1.366 . S
C1211 C1210 1.366 . S
C1211 C1212 1.414 . S
C1211 C1214 1.499 . S
C1212 H1192 0.950 . S
C1212 C1211 1.414 . S
C1212 C1213 1.374 . S
C1213 H1193 0.950 . S
C1213 C1209 1.385 . S
C1213 C1212 1.374 . S
C1214 C1211 1.499 . S
C1214 C1215 1.373 . S
C1214 C1216 1.389 . S
C1215 H1194 0.950 . S
C1215 C1214 1.373 . S
C1215 C1231 1.377 . S
C1216 C1214 1.389 . S
C1216 C1217 1.524 . S
C1216 C1230 1.377 . S
C1217 C1216 1.524 . S
C1217 C1218 1.397 . S
C1217 C1222 1.363 . S
C1218 H1195 0.950 . S
C1218 C1217 1.397 . S
C1218 C1219 1.334 . S
C1219 H1196 0.950 . S
C1219 C1218 1.334 . S
C1219 C1220 1.287 . S
C1220 C1219 1.287 . S
C1220 C1221 1.524 . S
C1220 H1239 0.913 . S
C1221 H1197 0.950 . S
C1221 C1220 1.524 . S
C1221 C1222 1.415 . S
C1222 H1198 0.950 . S
C1222 C1217 1.363 . S
C1222 C1221 1.415 . S
C1223 H1199 0.951 . S
C1223 C1224 1.366 . S
C1223 C1225 1.388 . S
C1224 C1223 1.366 . S
C1224 C1228 1.385 . S
C1225 H1200 0.951 . S
C1225 C1223 1.388 . S
C1225 C1226 1.366 . S
C1226 C1225 1.366 . S
C1226 C1227 1.414 1_556 S
C1226 C1229 1.499 1_556 S
C1227 H1201 0.950 . S
C1227 C1226 1.414 1_554 S
C1227 C1228 1.374 1_554 S
C1228 H1202 0.950 1_556 S
C1228 C1224 1.385 . S
C1228 C1227 1.374 1_556 S
C1229 C1226 1.499 1_554 S
C1229 C1230 1.373 . S
C1229 C1231 1.389 . S
C1230 H1203 0.950 . S
C1230 C1216 1.377 . S
C1230 C1229 1.373 . S
C1231 C1215 1.377 . S
C1231 C1229 1.389 . S
C1231 C1232 1.524 1_554 S
C1232 C1231 1.524 1_556 S
C1232 C1233 1.397 . S
C1232 C1237 1.363 . S
C1233 H1204 0.950 1_556 S
C1233 C1232 1.397 . S
C1233 C1234 1.334 . S
C1234 H1205 0.950 . S
C1234 C1233 1.334 . S
C1234 C1235 1.287 . S
C1235 C1234 1.287 . S
C1235 C1236 1.524 . S
C1235 H1238 0.999 . S
C1236 H1206 0.950 . S
C1236 C1235 1.524 . S
C1236 C1237 1.415 . S
C1237 H1207 0.950 . S
C1237 C1232 1.363 . S
C1237 C1236 1.415 . S
H1238 C1235 0.999 . S
H1239 C1220 0.913 . S
H1240 C1258 0.951 . S
H1241 C1260 0.951 . S
H1242 C1262 0.950 . S
H1243 C1263 0.950 1_554 S
H1244 C1265 0.950 . S
H1245 C1268 0.950 . S
H1246 C1269 0.950 1_554 S
H1247 C1271 0.950 . S
H1248 C1272 0.950 . S
H1249 C1273 0.951 . S
H1250 C1275 0.951 . S
H1251 C1277 0.950 . S
H1252 C1278 0.950 . S
H1253 C1280 0.950 1_655 S
H1254 C1283 0.950 . S
H1255 C1284 0.950 . S
H1256 C1286 0.950 . S
H1257 C1287 0.950 . S
C1258 H1240 0.951 . S
C1258 C1259 1.366 . S
C1258 C1260 1.388 . S
C1259 C1258 1.366 . S
C1259 C1263 1.385 . S
C1260 H1241 0.951 . S
C1260 C1258 1.388 . S
C1260 C1261 1.366 . S
C1261 C1260 1.366 . S
C1261 C1262 1.414 . S
C1261 C1264 1.499 . S
C1262 H1242 0.950 . S
C1262 C1261 1.414 . S
C1262 C1263 1.374 . S
C1263 H1243 0.950 1_556 S
C1263 C1259 1.385 . S
C1263 C1262 1.374 . S
C1264 C1261 1.499 . S
C1264 C1265 1.373 . S
C1264 C1266 1.389 . S
C1265 H1244 0.950 . S
C1265 C1264 1.373 . S
C1265 C1281 1.377 . S
C1266 C1264 1.389 . S
C1266 C1267 1.524 1_455 S
C1266 C1280 1.377 . S
C1267 C1266 1.524 1_655 S
C1267 C1268 1.397 . S
C1267 C1272 1.363 . S
C1268 H1245 0.950 . S
C1268 C1267 1.397 . S
C1268 C1269 1.334 . S
C1269 H1246 0.950 1_556 S
C1269 C1268 1.334 . S
C1269 C1270 1.287 . S
C1270 C1269 1.287 . S
C1270 C1271 1.524 . S
C1270 H1289 0.913 . S
C1271 H1247 0.950 . S
C1271 C1270 1.524 . S
C1271 C1272 1.415 . S
C1272 H1248 0.950 . S
C1272 C1267 1.363 . S
C1272 C1271 1.415 . S
C1273 H1249 0.951 . S
C1273 C1274 1.366 . S
C1273 C1275 1.388 . S
C1274 C1273 1.366 . S
C1274 C1278 1.385 . S
C1275 H1250 0.951 . S
C1275 C1273 1.388 . S
C1275 C1276 1.366 . S
C1276 C1275 1.366 . S
C1276 C1277 1.414 . S
C1276 C1279 1.499 . S
C1277 H1251 0.950 . S
C1277 C1276 1.414 . S
C1277 C1278 1.374 . S
C1278 H1252 0.950 . S
C1278 C1274 1.385 . S
C1278 C1277 1.374 . S
C1279 C1276 1.499 . S
C1279 C1280 1.373 . S
C1279 C1281 1.389 . S
C1280 H1253 0.950 1_455 S
C1280 C1266 1.377 . S
C1280 C1279 1.373 . S
C1281 C1265 1.377 . S
C1281 C1279 1.389 . S
C1281 C1282 1.524 . S
C1282 C1281 1.524 . S
C1282 C1283 1.397 . S
C1282 C1287 1.363 . S
C1283 H1254 0.950 . S
C1283 C1282 1.397 . S
C1283 C1284 1.334 . S
C1284 H1255 0.950 . S
C1284 C1283 1.334 . S
C1284 C1285 1.287 . S
C1285 C1284 1.287 . S
C1285 C1286 1.524 . S
C1285 H1288 0.999 . S
C1286 H1256 0.950 . S
C1286 C1285 1.524 . S
C1286 C1287 1.415 . S
C1287 H1257 0.950 . S
C1287 C1282 1.363 . S
C1287 C1286 1.415 . S
H1288 C1285 0.999 . S
H1289 C1270 0.913 . S
H1290 C1308 0.951 1_554 S
H1291 C1310 0.951 . S
H1292 C1312 0.950 . S
H1293 C1313 0.950 . S
H1294 C1315 0.950 . S
H1295 C1318 0.950 . S
H1296 C1319 0.950 . S
H1297 C1321 0.950 . S
H1298 C1322 0.950 . S
H1299 C1323 0.951 . S
H1300 C1325 0.951 . S
H1301 C1327 0.950 . S
H1302 C1328 0.950 . S
H1303 C1330 0.950 . S
H1304 C1333 0.950 . S
H1305 C1334 0.950 . S
H1306 C1336 0.950 . S
H1307 C1337 0.950 . S
C1308 H1290 0.951 1_556 S
C1308 C1309 1.366 . S
C1308 C1310 1.388 . S
C1309 C1308 1.366 . S
C1309 C1313 1.385 . S
C1310 H1291 0.951 . S
C1310 C1308 1.388 . S
C1310 C1311 1.366 . S
C1311 C1310 1.366 . S
C1311 C1312 1.414 . S
C1311 C1314 1.499 . S
C1312 H1292 0.950 . S
C1312 C1311 1.414 . S
C1312 C1313 1.374 . S
C1313 H1293 0.950 . S
C1313 C1309 1.385 . S
C1313 C1312 1.374 . S
C1314 C1311 1.499 . S
C1314 C1315 1.373 . S
C1314 C1316 1.389 . S
C1315 H1294 0.950 . S
C1315 C1314 1.373 . S
C1315 C1331 1.377 . S
C1316 C1314 1.389 . S
C1316 C1317 1.524 . S
C1316 C1330 1.377 . S
C1317 C1316 1.524 . S
C1317 C1318 1.397 . S
C1317 C1322 1.363 . S
C1318 H1295 0.950 . S
C1318 C1317 1.397 . S
C1318 C1319 1.334 . S
C1319 H1296 0.950 . S
C1319 C1318 1.334 . S
C1319 C1320 1.287 . S
C1320 C1319 1.287 . S
C1320 C1321 1.524 . S
C1320 H1339 0.913 . S
C1321 H1297 0.950 . S
C1321 C1320 1.524 . S
C1321 C1322 1.415 . S
C1322 H1298 0.950 . S
C1322 C1317 1.363 . S
C1322 C1321 1.415 . S
C1323 H1299 0.951 . S
C1323 C1324 1.366 . S
C1323 C1325 1.388 . S
C1324 C1323 1.366 . S
C1324 C1328 1.385 . S
C1325 H1300 0.951 . S
C1325 C1323 1.388 . S
C1325 C1326 1.366 . S
C1326 C1325 1.366 . S
C1326 C1327 1.414 . S
C1326 C1329 1.499 . S
C1327 H1301 0.950 . S
C1327 C1326 1.414 . S
C1327 C1328 1.374 . S
C1328 H1302 0.950 . S
C1328 C1324 1.385 . S
C1328 C1327 1.374 . S
C1329 C1326 1.499 . S
C1329 C1330 1.373 . S
C1329 C1331 1.389 . S
C1330 H1303 0.950 . S
C1330 C1316 1.377 . S
C1330 C1329 1.373 . S
C1331 C1315 1.377 . S
C1331 C1329 1.389 . S
C1331 C1332 1.524 1_545 S
C1332 C1331 1.524 1_565 S
C1332 C1333 1.397 . S
C1332 C1337 1.363 . S
C1333 H1304 0.950 . S
C1333 C1332 1.397 . S
C1333 C1334 1.334 . S
C1334 H1305 0.950 . S
C1334 C1333 1.334 . S
C1334 C1335 1.287 . S
C1335 C1334 1.287 . S
C1335 C1336 1.524 . S
C1335 H1338 0.999 . S
C1336 H1306 0.950 . S
C1336 C1335 1.524 . S
C1336 C1337 1.415 . S
C1337 H1307 0.950 . S
C1337 C1332 1.363 . S
C1337 C1336 1.415 . S
H1338 C1335 0.999 . S
H1339 C1320 0.913 . S
H1340 C1358 0.951 . S
H1341 C1360 0.951 . S
H1342 C1362 0.950 . S
H1343 C1363 0.950 . S
H1344 C1365 0.950 . S
H1345 C1368 0.950 . S
H1346 C1369 0.950 . S
H1347 C1371 0.950 . S
H1348 C1372 0.950 . S
H1349 C1373 0.951 . S
H1350 C1375 0.951 . S
H1351 C1377 0.950 . S
H1352 C1378 0.950 . S
H1353 C1380 0.950 . S
H1354 C1383 0.950 . S
H1355 C1384 0.950 1_554 S
H1356 C1386 0.950 . S
H1357 C1387 0.950 . S
C1358 H1340 0.951 . S
C1358 C1359 1.366 . S
C1358 C1360 1.388 . S
C1359 C1358 1.366 . S
C1359 C1363 1.385 . S
C1360 H1341 0.951 . S
C1360 C1358 1.388 . S
C1360 C1361 1.366 . S
C1361 C1360 1.366 . S
C1361 C1362 1.414 . S
C1361 C1364 1.499 . S
C1362 H1342 0.950 . S
C1362 C1361 1.414 . S
C1362 C1363 1.374 . S
C1363 H1343 0.950 . S
C1363 C1359 1.385 . S
C1363 C1362 1.374 . S
C1364 C1361 1.499 . S
C1364 C1365 1.373 . S
C1364 C1366 1.389 . S
C1365 H1344 0.950 . S
C1365 C1364 1.373 . S
C1365 C1381 1.377 . S
C1366 C1364 1.389 . S
C1366 C1367 1.524 . S
C1366 C1380 1.377 . S
C1367 C1366 1.524 . S
C1367 C1368 1.397 . S
C1367 C1372 1.363 . S
C1368 H1345 0.950 . S
C1368 C1367 1.397 . S
C1368 C1369 1.334 . S
C1369 H1346 0.950 . S
C1369 C1368 1.334 . S
C1369 C1370 1.287 . S
C1370 C1369 1.287 . S
C1370 C1371 1.524 . S
C1370 H1389 0.913 . S
C1371 H1347 0.950 . S
C1371 C1370 1.524 . S
C1371 C1372 1.415 . S
C1372 H1348 0.950 . S
C1372 C1367 1.363 . S
C1372 C1371 1.415 . S
C1373 H1349 0.951 . S
C1373 C1374 1.366 . S
C1373 C1375 1.388 . S
C1374 C1373 1.366 . S
C1374 C1378 1.385 . S
C1375 H1350 0.951 . S
C1375 C1373 1.388 . S
C1375 C1376 1.366 . S
C1376 C1375 1.366 . S
C1376 C1377 1.414 . S
C1376 C1379 1.499 . S
C1377 H1351 0.950 . S
C1377 C1376 1.414 . S
C1377 C1378 1.374 . S
C1378 H1352 0.950 . S
C1378 C1374 1.385 . S
C1378 C1377 1.374 . S
C1379 C1376 1.499 . S
C1379 C1380 1.373 . S
C1379 C1381 1.389 . S
C1380 H1353 0.950 . S
C1380 C1366 1.377 . S
C1380 C1379 1.373 . S
C1381 C1365 1.377 . S
C1381 C1379 1.389 . S
C1381 C1382 1.524 . S
C1382 C1381 1.524 . S
C1382 C1383 1.397 . S
C1382 C1387 1.363 . S
C1383 H1354 0.950 . S
C1383 C1382 1.397 . S
C1383 C1384 1.334 . S
C1384 H1355 0.950 1_556 S
C1384 C1383 1.334 . S
C1384 C1385 1.286 1_556 S
C1385 C1384 1.286 1_554 S
C1385 C1386 1.523 1_554 S
C1385 H1388 1.000 . S
C1386 H1356 0.950 . S
C1386 C1385 1.523 1_556 S
C1386 C1387 1.415 . S
C1387 H1357 0.950 . S
C1387 C1382 1.363 . S
C1387 C1386 1.415 . S
H1388 C1385 1.000 . S
H1389 C1370 0.913 . S
H1390 C1408 0.951 1_554 S
H1391 C1410 0.951 . S
H1392 C1412 0.950 . S
H1393 C1413 0.950 . S
H1394 C1415 0.950 . S
H1395 C1418 0.950 1_556 S
H1396 C1419 0.950 . S
H1397 C1421 0.950 . S
H1398 C1422 0.950 . S
H1399 C1423 0.951 . S
H1400 C1425 0.951 . S
H1401 C1427 0.950 . S
H1402 C1428 0.950 . S
H1403 C1430 0.950 . S
H1404 C1433 0.950 . S
H1405 C1434 0.950 . S
H1406 C1436 0.950 . S
H1407 C1437 0.950 . S
C1408 H1390 0.951 1_556 S
C1408 C1409 1.366 . S
C1408 C1410 1.388 . S
C1409 C1408 1.366 . S
C1409 C1413 1.385 . S
C1410 H1391 0.951 . S
C1410 C1408 1.388 . S
C1410 C1411 1.366 . S
C1411 C1410 1.366 . S
C1411 C1412 1.414 . S
C1411 C1414 1.499 . S
C1412 H1392 0.950 . S
C1412 C1411 1.414 . S
C1412 C1413 1.374 . S
C1413 H1393 0.950 . S
C1413 C1409 1.385 . S
C1413 C1412 1.374 . S
C1414 C1411 1.499 . S
C1414 C1415 1.373 . S
C1414 C1416 1.389 . S
C1415 H1394 0.950 . S
C1415 C1414 1.373 . S
C1415 C1431 1.377 . S
C1416 C1414 1.389 . S
C1416 C1417 1.509 1_556 S
C1416 C1430 1.377 . S
C1417 C1416 1.509 1_554 S
C1417 C1418 1.402 . S
C1417 C1422 1.373 . S
C1418 H1395 0.950 1_554 S
C1418 C1417 1.402 . S
C1418 C1419 1.334 . S
C1419 H1396 0.950 . S
C1419 C1418 1.334 . S
C1419 C1420 1.287 . S
C1420 C1419 1.287 . S
C1420 C1421 1.524 . S
C1420 H1439 0.913 . S
C1421 H1397 0.950 . S
C1421 C1420 1.524 . S
C1421 C1422 1.415 . S
C1422 H1398 0.950 . S
C1422 C1417 1.373 . S
C1422 C1421 1.415 . S
C1423 H1399 0.951 . S
C1423 C1424 1.366 . S
C1423 C1425 1.388 . S
C1424 C1423 1.366 . S
C1424 C1428 1.385 . S
C1425 H1400 0.951 . S
C1425 C1423 1.388 . S
C1425 C1426 1.366 . S
C1426 C1425 1.366 . S
C1426 C1427 1.414 . S
C1426 C1429 1.499 . S
C1427 H1401 0.950 . S
C1427 C1426 1.414 . S
C1427 C1428 1.374 . S
C1428 H1402 0.950 . S
C1428 C1424 1.385 . S
C1428 C1427 1.374 . S
C1429 C1426 1.499 . S
C1429 C1430 1.373 . S
C1429 C1431 1.389 . S
C1430 H1403 0.950 . S
C1430 C1416 1.377 . S
C1430 C1429 1.373 . S
C1431 C1415 1.377 . S
C1431 C1429 1.389 . S
C1431 C1432 1.524 . S
C1432 C1431 1.524 . S
C1432 C1433 1.397 . S
C1432 C1437 1.363 . S
C1433 H1404 0.950 . S
C1433 C1432 1.397 . S
C1433 C1434 1.334 . S
C1434 H1405 0.950 . S
C1434 C1433 1.334 . S
C1434 C1435 1.287 . S
C1435 C1434 1.287 . S
C1435 C1436 1.524 . S
C1435 H1438 0.999 . S
C1436 H1406 0.950 . S
C1436 C1435 1.524 . S
C1436 C1437 1.415 . S
C1437 H1407 0.950 . S
C1437 C1432 1.363 . S
C1437 C1436 1.415 . S
H1438 C1435 0.999 . S
H1439 C1420 0.913 . S
H1440 C1458 0.951 1_455 S
H1441 C1460 0.951 1_455 S
H1442 C1462 0.950 . S
H1443 C1463 0.950 . S
H1444 C1465 0.950 . S
H1445 C1468 0.950 . S
H1446 C1469 0.950 . S
H1447 C1471 0.950 . S
H1448 C1472 0.950 . S
H1449 C1473 0.951 . S
H1450 C1475 0.951 . S
H1451 C1477 0.950 . S
H1452 C1478 0.950 . S
H1453 C1480 0.950 . S
H1454 C1483 0.950 . S
H1455 C1484 0.950 . S
H1456 C1486 0.950 . S
H1457 C1487 0.950 . S
C1458 H1440 0.951 1_655 S
C1458 C1459 1.366 . S
C1458 C1460 1.388 . S
C1459 C1458 1.366 . S
C1459 C1463 1.385 . S
C1460 H1441 0.951 1_655 S
C1460 C1458 1.388 . S
C1460 C1461 1.366 . S
C1461 C1460 1.366 . S
C1461 C1462 1.414 . S
C1461 C1464 1.499 . S
C1462 H1442 0.950 . S
C1462 C1461 1.414 . S
C1462 C1463 1.374 . S
C1463 H1443 0.950 . S
C1463 C1459 1.385 . S
C1463 C1462 1.374 . S
C1464 C1461 1.499 . S
C1464 C1465 1.373 . S
C1464 C1466 1.389 1_655 S
C1465 H1444 0.950 . S
C1465 C1464 1.373 . S
C1465 C1481 1.377 . S
C1466 C1464 1.389 1_455 S
C1466 C1467 1.524 . S
C1466 C1480 1.377 . S
C1467 C1466 1.524 . S
C1467 C1468 1.397 . S
C1467 C1472 1.363 . S
C1468 H1445 0.950 . S
C1468 C1467 1.397 . S
C1468 C1469 1.334 . S
C1469 H1446 0.950 . S
C1469 C1468 1.334 . S
C1469 C1470 1.287 . S
C1470 C1469 1.287 . S
C1470 C1471 1.524 . S
C1470 H1489 0.913 . S
C1471 H1447 0.950 . S
C1471 C1470 1.524 . S
C1471 C1472 1.415 . S
C1472 H1448 0.950 . S
C1472 C1467 1.363 . S
C1472 C1471 1.415 . S
C1473 H1449 0.951 . S
C1473 C1474 1.366 . S
C1473 C1475 1.388 . S
C1474 C1473 1.366 . S
C1474 C1478 1.385 1_655 S
C1475 H1450 0.951 . S
C1475 C1473 1.388 . S
C1475 C1476 1.366 . S
C1476 C1475 1.366 . S
C1476 C1477 1.414 1_655 S
C1476 C1479 1.499 . S
C1477 H1451 0.950 . S
C1477 C1476 1.414 1_455 S
C1477 C1478 1.374 . S
C1478 H1452 0.950 . S
C1478 C1474 1.385 1_455 S
C1478 C1477 1.374 . S
C1479 C1476 1.499 . S
C1479 C1480 1.373 1_655 S
C1479 C1481 1.389 . S
C1480 H1453 0.950 . S
C1480 C1466 1.377 . S
C1480 C1479 1.373 1_455 S
C1481 C1465 1.377 . S
C1481 C1479 1.389 . S
C1481 C1482 1.524 . S
C1482 C1481 1.524 . S
C1482 C1483 1.397 . S
C1482 C1487 1.363 . S
C1483 H1454 0.950 . S
C1483 C1482 1.397 . S
C1483 C1484 1.334 . S
C1484 H1455 0.950 . S
C1484 C1483 1.334 . S
C1484 C1485 1.287 . S
C1485 C1484 1.287 . S
C1485 C1486 1.524 . S
C1485 H1488 0.999 . S
C1486 H1456 0.950 . S
C1486 C1485 1.524 . S
C1486 C1487 1.415 . S
C1487 H1457 0.950 . S
C1487 C1482 1.363 . S
C1487 C1486 1.415 . S
H1488 C1485 0.999 . S
H1489 C1470 0.913 . S
H1490 C1508 0.951 . S
H1491 C1510 0.951 . S
H1492 C1512 0.950 . S
H1493 C1513 0.946 . S
H1494 C1515 0.950 1_545 S
H1495 C1518 0.950 . S
H1496 C1519 0.950 . S
H1497 C1521 0.950 . S
H1498 C1522 0.950 . S
H1499 C1523 0.951 . S
H1500 C1525 0.951 . S
H1501 C1527 0.950 . S
H1502 C1528 0.950 . S
H1503 C1530 0.950 . S
H1504 C1533 0.950 . S
H1505 C1534 0.950 1_565 S
H1506 C1536 0.950 . S
H1507 C1537 0.950 . S
C1508 H1490 0.951 . S
C1508 C1509 1.366 . S
C1508 C1510 1.388 . S
C1509 C1508 1.366 . S
C1509 C1513 1.389 1_565 S
C1510 H1491 0.951 . S
C1510 C1508 1.388 . S
C1510 C1511 1.366 . S
C1511 C1510 1.366 . S
C1511 C1512 1.414 1_565 S
C1511 C1514 1.499 . S
C1512 H1492 0.950 . S
C1512 C1511 1.414 1_545 S
C1512 C1513 1.373 . S
C1513 H1493 0.946 . S
C1513 C1509 1.389 1_545 S
C1513 C1512 1.373 . S
C1514 C1511 1.499 . S
C1514 C1515 1.373 . S
C1514 C1516 1.389 . S
C1515 H1494 0.950 1_565 S
C1515 C1514 1.373 . S
C1515 C1531 1.377 . S
C1516 C1514 1.389 . S
C1516 C1517 1.524 . S
C1516 C1530 1.377 . S
C1517 C1516 1.524 . S
C1517 C1518 1.397 . S
C1517 C1522 1.363 . S
C1518 H1495 0.950 . S
C1518 C1517 1.397 . S
C1518 C1519 1.334 . S
C1519 H1496 0.950 . S
C1519 C1518 1.334 . S
C1519 C1520 1.287 . S
C1520 C1519 1.287 . S
C1520 C1521 1.524 . S
C1520 H1539 0.913 . S
C1521 H1497 0.950 . S
C1521 C1520 1.524 . S
C1521 C1522 1.415 . S
C1522 H1498 0.950 . S
C1522 C1517 1.363 . S
C1522 C1521 1.415 . S
C1523 H1499 0.951 . S
C1523 C1524 1.366 1_545 S
C1523 C1525 1.388 . S
C1524 C1523 1.366 1_565 S
C1524 C1528 1.385 . S
C1525 H1500 0.951 . S
C1525 C1523 1.388 . S
C1525 C1526 1.366 1_545 S
C1526 C1525 1.366 1_565 S
C1526 C1527 1.414 . S
C1526 C1529 1.499 . S
C1527 H1501 0.950 . S
C1527 C1526 1.414 . S
C1527 C1528 1.374 . S
C1528 H1502 0.950 . S
C1528 C1524 1.385 . S
C1528 C1527 1.374 . S
C1529 C1526 1.499 . S
C1529 C1530 1.373 . S
C1529 C1531 1.389 . S
C1530 H1503 0.950 . S
C1530 C1516 1.377 . S
C1530 C1529 1.373 . S
C1531 C1515 1.377 . S
C1531 C1529 1.389 . S
C1531 C1532 1.524 1_565 S
C1532 C1531 1.524 1_545 S
C1532 C1533 1.397 1_545 S
C1532 C1537 1.363 . S
C1533 H1504 0.950 . S
C1533 C1532 1.397 1_565 S
C1533 C1534 1.334 1_565 S
C1534 H1505 0.950 1_545 S
C1534 C1533 1.334 1_545 S
C1534 C1535 1.287 . S
C1535 C1534 1.287 . S
C1535 C1536 1.524 . S
C1535 H1538 0.999 . S
C1536 H1506 0.950 . S
C1536 C1535 1.524 . S
C1536 C1537 1.415 . S
C1537 H1507 0.950 . S
C1537 C1532 1.363 . S
C1537 C1536 1.415 . S
H1538 C1535 0.999 . S
H1539 C1520 0.913 . S
H1540 C1558 0.951 . S
H1541 C1560 0.951 . S
H1542 C1562 0.950 . S
H1543 C1563 0.950 . S
H1544 C1565 0.950 . S
H1545 C1568 0.950 . S
H1546 C1569 0.950 . S
H1547 C1571 0.950 . S
H1548 C1572 0.950 . S
H1549 C1573 0.951 . S
H1550 C1575 0.951 . S
H1551 C1577 0.950 . S
H1552 C1578 0.950 . S
H1553 C1580 0.950 . S
H1554 C1583 0.950 . S
H1555 C1584 0.950 . S
H1556 C1586 0.950 . S
H1557 C1587 0.950 . S
C1558 H1540 0.951 . S
C1558 C1559 1.366 . S
C1558 C1560 1.388 . S
C1559 C1558 1.366 . S
C1559 C1563 1.385 . S
C1560 H1541 0.951 . S
C1560 C1558 1.388 . S
C1560 C1561 1.366 . S
C1561 C1560 1.366 . S
C1561 C1562 1.414 . S
C1561 C1564 1.499 . S
C1562 H1542 0.950 . S
C1562 C1561 1.414 . S
C1562 C1563 1.374 . S
C1563 H1543 0.950 . S
C1563 C1559 1.385 . S
C1563 C1562 1.374 . S
C1564 C1561 1.499 . S
C1564 C1565 1.373 . S
C1564 C1566 1.389 . S
C1565 H1544 0.950 . S
C1565 C1564 1.373 . S
C1565 C1581 1.377 . S
C1566 C1564 1.389 . S
C1566 C1567 1.524 . S
C1566 C1580 1.377 . S
C1567 C1566 1.524 . S
C1567 C1568 1.397 . S
C1567 C1572 1.363 . S
C1568 H1545 0.950 . S
C1568 C1567 1.397 . S
C1568 C1569 1.334 . S
C1569 H1546 0.950 . S
C1569 C1568 1.334 . S
C1569 C1570 1.287 . S
C1570 C1569 1.287 . S
C1570 C1571 1.524 . S
C1570 H1589 0.913 . S
C1571 H1547 0.950 . S
C1571 C1570 1.524 . S
C1571 C1572 1.415 . S
C1572 H1548 0.950 . S
C1572 C1567 1.363 . S
C1572 C1571 1.415 . S
C1573 H1549 0.951 . S
C1573 C1574 1.366 . S
C1573 C1575 1.388 . S
C1574 C1573 1.366 . S
C1574 C1578 1.385 . S
C1575 H1550 0.951 . S
C1575 C1573 1.388 . S
C1575 C1576 1.366 . S
C1576 C1575 1.366 . S
C1576 C1577 1.414 . S
C1576 C1579 1.499 . S
C1577 H1551 0.950 . S
C1577 C1576 1.414 . S
C1577 C1578 1.374 . S
C1578 H1552 0.950 . S
C1578 C1574 1.385 . S
C1578 C1577 1.374 . S
C1579 C1576 1.499 . S
C1579 C1580 1.373 . S
C1579 C1581 1.389 . S
C1580 H1553 0.950 . S
C1580 C1566 1.377 . S
C1580 C1579 1.373 . S
C1581 C1565 1.377 . S
C1581 C1579 1.389 . S
C1581 C1582 1.524 . S
C1582 C1581 1.524 . S
C1582 C1583 1.397 . S
C1582 C1587 1.363 . S
C1583 H1554 0.950 . S
C1583 C1582 1.397 . S
C1583 C1584 1.334 . S
C1584 H1555 0.950 . S
C1584 C1583 1.334 . S
C1584 C1585 1.287 . S
C1585 C1584 1.287 . S
C1585 C1586 1.524 . S
C1585 H1588 0.999 . S
C1586 H1556 0.950 . S
C1586 C1585 1.524 . S
C1586 C1587 1.415 . S
C1587 H1557 0.950 . S
C1587 C1582 1.363 . S
C1587 C1586 1.415 . S
H1588 C1585 0.999 . S
H1589 C1570 0.913 . S
H1590 C1608 0.951 . S
H1591 C1610 0.951 . S
H1592 C1612 0.950 . S
H1593 C1613 0.950 . S
H1594 C1615 0.950 . S
H1595 C1618 0.950 . S
H1596 C1619 0.950 . S
H1597 C1621 0.950 . S
H1598 C1622 0.950 . S
H1599 C1623 0.951 . S
H1600 C1625 0.951 . S
H1601 C1627 0.950 . S
H1602 C1628 0.950 . S
H1603 C1630 0.950 . S
H1604 C1633 0.950 . S
H1605 C1634 0.950 . S
H1606 C1636 0.950 . S
H1607 C1637 0.950 . S
C1608 H1590 0.951 . S
C1608 C1609 1.366 . S
C1608 C1610 1.388 . S
C1609 C1608 1.366 . S
C1609 C1613 1.385 . S
C1610 H1591 0.951 . S
C1610 C1608 1.388 . S
C1610 C1611 1.366 . S
C1611 C1610 1.366 . S
C1611 C1612 1.414 . S
C1611 C1614 1.499 . S
C1612 H1592 0.950 . S
C1612 C1611 1.414 . S
C1612 C1613 1.374 . S
C1613 H1593 0.950 . S
C1613 C1609 1.385 . S
C1613 C1612 1.374 . S
C1614 C1611 1.499 . S
C1614 C1615 1.373 . S
C1614 C1616 1.389 . S
C1615 H1594 0.950 . S
C1615 C1614 1.373 . S
C1615 C1631 1.377 . S
C1616 C1614 1.389 . S
C1616 C1617 1.524 . S
C1616 C1630 1.377 . S
C1617 C1616 1.524 . S
C1617 C1618 1.397 . S
C1617 C1622 1.363 . S
C1618 H1595 0.950 . S
C1618 C1617 1.397 . S
C1618 C1619 1.334 . S
C1619 H1596 0.950 . S
C1619 C1618 1.334 . S
C1619 C1620 1.287 . S
C1620 C1619 1.287 . S
C1620 C1621 1.524 . S
C1620 H1639 0.913 . S
C1621 H1597 0.950 . S
C1621 C1620 1.524 . S
C1621 C1622 1.415 . S
C1622 H1598 0.950 . S
C1622 C1617 1.363 . S
C1622 C1621 1.415 . S
C1623 H1599 0.951 . S
C1623 C1624 1.366 . S
C1623 C1625 1.388 . S
C1624 C1623 1.366 . S
C1624 C1628 1.385 . S
C1625 H1600 0.951 . S
C1625 C1623 1.388 . S
C1625 C1626 1.366 . S
C1626 C1625 1.366 . S
C1626 C1627 1.414 . S
C1626 C1629 1.499 . S
C1627 H1601 0.950 . S
C1627 C1626 1.414 . S
C1627 C1628 1.374 . S
C1628 H1602 0.950 . S
C1628 C1624 1.385 . S
C1628 C1627 1.374 . S
C1629 C1626 1.499 . S
C1629 C1630 1.373 . S
C1629 C1631 1.389 . S
C1630 H1603 0.950 . S
C1630 C1616 1.377 . S
C1630 C1629 1.373 . S
C1631 C1615 1.377 . S
C1631 C1629 1.389 . S
C1631 C1632 1.524 . S
C1632 C1631 1.524 . S
C1632 C1633 1.397 . S
C1632 C1637 1.363 . S
C1633 H1604 0.950 . S
C1633 C1632 1.397 . S
C1633 C1634 1.334 . S
C1634 H1605 0.950 . S
C1634 C1633 1.334 . S
C1634 C1635 1.287 . S
C1635 C1634 1.287 . S
C1635 C1636 1.524 . S
C1635 H1638 0.999 . S
C1636 H1606 0.950 . S
C1636 C1635 1.524 . S
C1636 C1637 1.415 . S
C1637 H1607 0.950 . S
C1637 C1632 1.363 . S
C1637 C1636 1.415 . S
H1638 C1635 0.999 . S
H1639 C1620 0.913 . S
C459 N80 1.890 . S
C474 C167 1.935 . S
C524 C244 1.956 . S
C509 N93 1.894 . S
C574 C335 1.925 . S
C559 N54 1.878 . S
C624 C419 1.917 . S
C609 N67 1.871 . S
C674 C178 1.936 . S
C659 N28 1.896 . S
C709 N41 1.901 . S
C724 C255 1.957 . S
C759 N2 1.884 . S
C774 C346 1.924 . S
C809 N15 1.876 . S
C824 C430 1.915 1_655 S
C874 C162 0.531 1_455 S
C859 N70 0.396 . S
C924 C257 0.522 . S
C909 N83 0.366 . S
C974 C330 0.528 . S
C959 N96 0.399 . S
C1009 N57 0.378 . S
C1024 C414 0.527 . S
C1059 N18 0.391 . S
C1074 C173 0.534 . S
C1124 C246 0.521 . S
C1109 N31 0.360 . S
C1174 C341 0.533 . S
C1159 N44 0.393 . S
C1209 N5 0.373 . S
C1224 C425 0.527 . S
C1259 N66 1.929 1_556 S
C1274 C171 1.987 . S
C1309 N79 1.923 1_556 S
C1324 C262 1.977 . S
C1374 C339 2.004 . S
C1359 N92 1.945 . S
C1424 C423 2.011 . S
C1409 N53 1.944 1_556 S
C1459 N14 1.937 . S
C1474 C160 1.986 . S
C1524 C251 1.977 1_565 S
C1509 N27 1.934 . S
C1574 C328 2.004 . S
C1559 N40 1.954 . S
C1609 N1 1.961 . S
C1624 C412 2.010 . S
