# Generated by pormake.
# Topology apo, (3,6)-cn, num edge types: 1
# Building blocks:
#     Node 0, Type 0, BuildingBlock: PAMTOO_clean_linker_0, # of connection points: 3
#     Node 1, Type 0, BuildingBlock: PAMTOO_clean_linker_0, # of connection points: 3
#     Node 2, Type 0, BuildingBlock: PAMTOO_clean_linker_0, # of connection points: 3
#     Node 3, Type 0, BuildingBlock: PAMTOO_clean_linker_0, # of connection points: 3
#     Node 4, Type 0, BuildingBlock: PAMTOO_clean_linker_0, # of connection points: 3
#     Node 5, Type 0, BuildingBlock: PAMTOO_clean_linker_0, # of connection points: 3
#     Node 6, Type 0, BuildingBlock: PAMTOO_clean_linker_0, # of connection points: 3
#     Node 7, Type 0, BuildingBlock: PAMTOO_clean_linker_0, # of connection points: 3
#     Node 8, Type 1, BuildingBlock: KUMBOL_clean_sbu_1, # of connection points: 6
#     Node 9, Type 1, BuildingBlock: KUMBOL_clean_sbu_1, # of connection points: 6
#     Node 10, Type 1, BuildingBlock: KUMBOL_clean_sbu_1, # of connection points: 6
#     Node 11, Type 1, BuildingBlock: KUMBOL_clean_sbu_1, # of connection points: 6
#     Edge 12, Type (0, 1), None
#     Edge 13, Type (0, 1), None
#     Edge 14, Type (0, 1), None
#     Edge 15, Type (0, 1), None
#     Edge 16, Type (0, 1), None
#     Edge 17, Type (0, 1), None
#     Edge 18, Type (0, 1), None
#     Edge 19, Type (0, 1), None
#     Edge 20, Type (0, 1), None
#     Edge 21, Type (0, 1), None
#     Edge 22, Type (0, 1), None
#     Edge 23, Type (0, 1), None
#     Edge 24, Type (0, 1), None
#     Edge 25, Type (0, 1), None
#     Edge 26, Type (0, 1), None
#     Edge 27, Type (0, 1), None
#     Edge 28, Type (0, 1), None
#     Edge 29, Type (0, 1), None
#     Edge 30, Type (0, 1), None
#     Edge 31, Type (0, 1), None
#     Edge 32, Type (0, 1), None
#     Edge 33, Type (0, 1), None
#     Edge 34, Type (0, 1), None
#     Edge 35, Type (0, 1), None
# Relax obj value: 0.038
# Max RMSD: 0.294
# Mean RMSD: 0.203
data_MOF--net-apo--node1-KUMBOL_clean_sbu_1--node2-PAMTOO_clean_linker_0--edge1-none
_symmetry_space_group_name_H-M    P1
_symmetry_Int_Tables_number       1
_symmetry_cell_setting            triclinic
loop_
_symmetry_equiv_pos_as_xyz
'x, y, z'
_cell_length_a     12.644132
_cell_length_b     18.835598
_cell_length_c     26.437021
_cell_angle_alpha  89.732516
_cell_angle_beta   89.903227
_cell_angle_gamma 88.993832
loop_
_atom_site_label
_atom_site_type_symbol
_atom_site_fract_x
_atom_site_fract_y
_atom_site_fract_z
_atom_type_partial_charge
H0 H 0.39297 0.48255 0.40958 0.0
H1 H 0.33204 0.32945 0.29361 0.0
H2 H 0.18838 0.30677 0.43968 0.0
H3 H 0.27214 0.17022 0.38091 0.0
C4 C 0.2496 0.19067 0.34284 0.0
O5 O 0.20057 0.25607 0.34714 0.0
H6 H 0.32163 0.19537 0.31886 0.0
C7 C 0.35421 0.43482 0.39704 0.0
C8 C 0.29043 0.39698 0.43061 0.0
C9 C 0.3687 0.41104 0.34754 0.0
C10 C 0.31893 0.34962 0.33136 0.0
C11 C 0.25283 0.31275 0.36426 0.0
C12 C 0.23952 0.33566 0.41424 0.0
H13 H 0.15416 0.98151 0.92663 0.0
H14 H 0.28709 0.18995 0.93399 0.0
H15 H 0.17743 0.1117 0.79226 0.0
H16 H 0.38436 0.17448 0.78612 0.0
C17 C 0.37978 0.2099 0.81946 0.0
O18 O 0.27679 0.21416 0.83697 0.0
H19 H 0.43154 0.18767 0.84955 0.0
C20 C 0.17194 0.03166 0.90856 0.0
C21 C 0.15592 0.04047 0.85592 0.0
C22 C 0.21893 0.08536 0.93733 0.0
C23 C 0.24755 0.14887 0.91301 0.0
C24 C 0.23372 0.15773 0.86083 0.0
C25 C 0.18629 0.10426 0.83266 0.0
H26 H 0.88944 0.97454 0.63367 0.0
H27 H 0.77881 0.10738 0.75649 0.0
H28 H 0.66643 0.14288 0.60502 0.0
H29 H 0.67478 0.27181 0.65307 0.0
C30 C 0.6865 0.2552 0.69311 0.0
O31 O 0.65658 0.18597 0.69848 0.0
H32 H 0.77121 0.26116 0.70366 0.0
C33 C 0.84328 0.01911 0.64794 0.0
C34 C 0.78135 0.0579 0.61351 0.0
C35 C 0.84255 0.03539 0.70015 0.0
C36 C 0.78102 0.09329 0.71686 0.0
C37 C 0.71851 0.13197 0.68227 0.0
C38 C 0.71736 0.11367 0.63101 0.0
H39 H 0.66391 0.45451 0.13053 0.0
H40 H 0.82649 0.25475 0.10952 0.0
H41 H 0.73664 0.31912 0.25859 0.0
H42 H 0.97168 0.27027 0.23418 0.0
C43 C 0.94805 0.22285 0.21222 0.0
O44 O 0.83944 0.22318 0.20569 0.0
H45 H 0.9875 0.22469 0.17465 0.0
C46 C 0.69375 0.40496 0.14637 0.0
C47 C 0.69118 0.39323 0.19906 0.0
C48 C 0.74051 0.35462 0.11391 0.0
C49 C 0.78611 0.29232 0.13413 0.0
C50 C 0.78683 0.28053 0.18637 0.0
C51 C 0.73705 0.32991 0.21851 0.0
H52 H 0.64867 0.48444 0.62978 0.0
H53 H 0.84802 0.66594 0.62092 0.0
H54 H 0.71148 0.60831 0.76323 0.0
H55 H 0.72175 0.76348 0.74038 0.0
C56 C 0.79905 0.76311 0.72016 0.0
O57 O 0.83726 0.69484 0.7169 0.0
H58 H 0.78774 0.78605 0.68166 0.0
C59 C 0.68295 0.53012 0.64777 0.0
C60 C 0.66999 0.54122 0.70039 0.0
C61 C 0.74689 0.57454 0.61854 0.0
C62 C 0.79601 0.63175 0.64224 0.0
C63 C 0.78232 0.64361 0.69405 0.0
C64 C 0.71908 0.59896 0.72301 0.0
H65 H 0.85832 -0.00751 0.14938 0.0
H66 H 0.89623 0.81582 0.25102 0.0
H67 H 0.72152 0.79103 0.11288 0.0
H68 H 0.64889 0.76432 0.2441 0.0
C69 C 0.71353 0.72339 0.24355 0.0
O70 O 0.77326 0.73044 0.20012 0.0
H71 H 0.76636 0.73125 0.27639 0.0
C72 C 0.84139 0.93789 0.15939 0.0
C73 C 0.78867 0.89452 0.12509 0.0
C74 C 0.87908 0.90994 0.20493 0.0
C75 C 0.86425 0.83815 0.21631 0.0
C76 C 0.80219 0.79607 0.18459 0.0
C77 C 0.76573 0.82409 0.13842 0.0
H78 H 0.16608 0.95178 0.4283 0.0
H79 H 0.3226 0.75023 0.45011 0.0
H80 H 0.2235 0.81266 0.30117 0.0
H81 H 0.47417 0.71218 0.38502 0.0
C82 C 0.43498 0.71286 0.34747 0.0
O83 O 0.32661 0.7161 0.35438 0.0
H84 H 0.46022 0.75997 0.32532 0.0
C85 C 0.194 0.9018 0.41262 0.0
C86 C 0.18664 0.88901 0.36021 0.0
C87 C 0.24148 0.85171 0.44517 0.0
C88 C 0.28253 0.78811 0.42544 0.0
C89 C 0.2784 0.77505 0.37338 0.0
C90 C 0.22846 0.82459 0.34103 0.0
H91 H 0.38573 0.46892 0.92064 0.0
H92 H 0.31383 0.60983 0.79571 0.0
H93 H 0.22806 0.6688 0.94704 0.0
H94 H 0.06748 0.69437 0.8771 0.0
C95 C 0.11144 0.70795 0.84204 0.0
O96 O 0.21889 0.70635 0.85152 0.0
H97 H 0.09351 0.66894 0.81193 0.0
C98 C 0.35587 0.5192 0.90598 0.0
C99 C 0.31028 0.56795 0.93968 0.0
C100 C 0.35826 0.5333 0.85376 0.0
C101 C 0.31421 0.59781 0.83571 0.0
C102 C 0.26767 0.64674 0.86933 0.0
C103 C 0.26668 0.63191 0.92133 0.0
C104 C 0.69853 0.08645 0.33575 0.0
C105 C 0.61649 0.97082 0.33737 0.0
C106 C 0.70771 0.01266 0.33359 0.0
C107 C 0.51649 0.00348 0.34189 0.0
C108 C 0.59766 0.11932 0.33999 0.0
C109 C 0.50714 0.07742 0.34269 0.0
N110 N 0.78775 0.12577 0.33649 0.0
C111 C 0.78165 0.19789 0.34176 0.0
C112 C 0.59078 0.19329 0.34348 0.0
C113 C 0.68309 0.23261 0.34479 0.0
Gd114 Gd 0.15781 0.0287 0.21876 0.0
Gd115 Gd 0.94635 0.05938 0.33837 0.0
N116 N 0.80568 0.98155 0.331 0.0
C117 C 0.62838 0.89705 0.33751 0.0
C118 C 0.81801 0.90952 0.33407 0.0
C119 C 0.72924 0.86655 0.33528 0.0
H120 H 0.89652 0.88576 0.33527 0.0
H121 H 0.73803 0.81001 0.33554 0.0
H122 H 0.17059 0.19813 0.18548 0.0
H123 H 0.85272 0.22859 0.34515 0.0
H124 H 0.30713 0.28645 0.16446 0.0
H125 H 0.56023 0.86325 0.33997 0.0
H126 H 0.44576 0.97197 0.34477 0.0
H127 H 0.29062 0.87493 0.23528 0.0
H128 H 0.51478 0.22042 0.34672 0.0
H129 H 0.67787 0.28951 0.34945 0.0
H130 H 0.6352 0.16375 0.19459 0.0
H131 H 0.42952 0.10142 0.34659 0.0
H132 H 0.62145 0.91304 0.22259 0.0
H133 H 0.47451 0.8299 0.23532 0.0
N134 N 0.33178 0.98269 0.22662 0.0
C135 C 0.41156 0.02938 0.22074 0.0
C136 C 0.35373 0.91193 0.23195 0.0
C137 C 0.54072 0.93323 0.22403 0.0
C138 C 0.45807 0.88616 0.23116 0.0
C139 C 0.51823 0.00587 0.21897 0.0
H140 H 0.68097 0.03825 0.2103 0.0
N141 N 0.28192 0.11925 0.20867 0.0
C142 C 0.38589 0.09999 0.21166 0.0
C143 C 0.43674 0.2179 0.18612 0.0
C144 C 0.46614 0.14908 0.20109 0.0
C145 C 0.25293 0.18512 0.19149 0.0
C146 C 0.32984 0.23522 0.17984 0.0
O147 O 0.89474 0.00374 0.26583 0.0
O148 O 0.04384 0.94378 0.2384 0.0
O149 O 0.10267 0.05873 0.14303 0.0
O150 O 0.20208 0.96589 0.15305 0.0
O151 O 0.10574 0.00411 0.34642 0.0
O152 O 0.14856 0.93847 0.27672 0.0
O153 O 0.21242 0.10271 0.28041 0.0
O154 O 0.08 0.13674 0.33899 0.0
O155 O 0.96605 -0.00057 0.40819 0.0
O156 O 0.90275 0.107 0.41062 0.0
O157 O 1.00916 0.0996 0.21429 0.0
O158 O 0.96731 0.15577 0.28925 0.0
C159 C 0.94186 0.95448 0.23809 0.0
C160 C 0.13949 0.94453 0.32633 0.0
C161 C 0.22788 0.03296 0.07813 0.0
C162 C 0.25563 0.07127 0.99012 0.0
C163 C 0.40223 0.06788 0.0495 0.0
C164 C 0.33601 0.04247 0.08714 0.0
C165 C 0.36271 0.08238 1.00145 0.0
C166 C 0.18779 0.04638 1.0289 0.0
C167 C 0.15889 0.00957 0.12047 0.0
C168 C 0.57263 0.12672 0.2023 0.0
C169 C 0.59864 0.05517 0.21098 0.0
H170 H 0.49593 0.25679 0.17671 0.0
C171 C 0.17574 0.14014 0.31901 0.0
C172 C 0.98439 0.15731 0.24018 0.0
C173 C 0.84535 0.02767 0.47459 0.0
C174 C 0.7746 0.0341 0.56056 0.0
C175 C 0.69247 0.95833 0.49871 0.0
C176 C 0.76705 0.97851 0.46271 0.0
C177 C 0.69626 0.98588 0.54748 0.0
C178 C 0.84906 0.05524 0.52401 0.0
C179 C 0.92447 0.04945 0.43643 0.0
H180 H 0.48473 0.07615 0.05775 0.0
H181 H 0.37012 0.02977 0.1233 0.0
H182 H 0.41679 0.1013 0.97281 0.0
H183 H 0.1048 0.03831 1.02099 0.0
H184 H 0.63259 0.92037 0.48897 0.0
H185 H 0.764 0.9547 0.42601 0.0
H186 H 0.63962 0.96844 0.57547 0.0
H187 H 0.91028 0.09211 0.5342 0.0
C188 C 0.86353 0.4187 0.82796 0.0
C189 C 0.89176 0.54074 0.85346 0.0
C190 C 0.82266 0.48593 0.83985 0.0
C191 C 1.00155 0.52822 0.85268 0.0
C192 C 0.97378 0.40518 0.83084 0.0
C193 C 0.04244 0.4608 0.84136 0.0
N194 N 0.7954 0.36439 0.82159 0.0
C195 C 0.83231 0.29601 0.8173 0.0
C196 C 0.01161 0.33518 0.82655 0.0
C197 C 0.94056 0.28042 0.81931 0.0
Gd198 Gd 0.40519 0.40106 0.71063 0.0
Gd199 Gd 0.61532 0.39346 0.8328 0.0
N200 N 0.71614 0.49463 0.84554 0.0
C201 C 0.84848 0.60428 0.87224 0.0
C202 C 0.67422 0.55482 0.86681 0.0
C203 C 0.73961 0.61066 0.87993 0.0
H204 H 0.59014 0.559 0.87403 0.0
H205 H 0.70659 0.6575 0.89774 0.0
H206 H 0.22658 0.2714 0.71341 0.0
H207 H 0.77732 0.25336 0.81264 0.0
H208 H 0.03253 0.26126 0.70801 0.0
H209 H 0.8986 0.64715 0.88388 0.0
H210 H 0.05563 0.56873 0.86422 0.0
H211 H 0.45174 0.57178 0.68384 0.0
H212 H 0.09548 0.32281 0.82914 0.0
H213 H 0.96901 0.22609 0.81597 0.0
H214 H 0.90462 0.50215 0.70973 0.0
H215 H 0.12719 0.45141 0.8433 0.0
H216 H 0.15634 0.68564 0.691 0.0
H217 H 0.34974 0.68445 0.676 0.0
N218 N 0.31869 0.51175 0.70659 0.0
C219 C 0.2115 0.51005 0.71099 0.0
C220 C 0.36794 0.57257 0.69155 0.0
C221 C 0.20132 0.63658 0.69525 0.0
C222 C 0.31033 0.63615 0.68682 0.0
C223 C 0.15033 0.57282 0.70582 0.0
H224 H 0.99329 0.61757 0.70428 0.0
N225 N 0.22278 0.38422 0.71691 0.0
C226 C 0.16226 0.44456 0.71515 0.0
C227 C 1.00419 0.37433 0.7099 0.0
C228 C 0.05098 0.44102 0.71258 0.0
C229 C 0.17759 0.31895 0.71444 0.0
C230 C 0.06791 0.31304 0.7105 0.0
O231 O 0.61243 0.49097 0.78092 0.0
O232 O 0.57211 0.43563 0.70717 0.0
O233 O 0.34024 0.34962 0.64407 0.0
O234 O 0.45357 0.43284 0.63517 0.0
O235 O 0.44236 0.41999 0.837 0.0
O236 O 0.39621 0.48786 0.76987 0.0
O237 O 0.36773 0.31721 0.76999 0.0
O238 O 0.5181 0.29509 0.82054 0.0
O239 O 0.58587 0.42264 0.91155 0.0
O240 O 0.6645 0.32334 0.89439 0.0
O241 O 0.51606 0.30519 0.71537 0.0
O242 O 0.6659 0.33602 0.76181 0.0
C243 C 0.61032 0.48959 0.73102 0.0
C244 C 0.40305 0.47913 0.81885 0.0
C245 C 0.32535 0.42195 0.57103 0.0
C246 C 0.27592 0.42369 0.48218 0.0
C247 C 0.21054 0.5161 0.53793 0.0
C248 C 0.26465 0.48423 0.57819 0.0
C249 C 0.217 0.48641 0.48985 0.0
C250 C 0.32965 0.39124 0.52282 0.0
C251 C 0.38895 0.39062 0.6124 0.0
C252 C 0.99012 0.50393 0.71064 0.0
C253 C 0.03999 0.56956 0.70776 0.0
H254 H 0.91908 0.36959 0.70715 0.0
C255 C 0.42112 0.28099 0.80497 0.0
C256 C 0.61824 0.30064 0.72578 0.0
C257 C 0.71154 0.3785 0.97134 0.0
C258 C 0.76143 0.373 0.06061 0.0
C259 C 0.8885 0.41095 0.99796 0.0
C260 C 0.81397 0.40114 0.96007 0.0
C261 C 0.86258 0.39682 0.04805 0.0
C262 C 0.68513 0.36448 1.02227 0.0
C263 C 0.63451 0.36678 0.93002 0.0
H264 H 0.16524 0.56466 0.54387 0.0
H265 H 0.26047 0.50937 0.61433 0.0
H266 H 0.17735 0.51274 0.45846 0.0
H267 H 0.3778 0.34388 0.51648 0.0
H268 H 0.9671 0.4285 0.98831 0.0
H269 H 0.83752 0.41011 0.922 0.0
H270 H 0.92195 0.4036 0.07709 0.0
H271 H 0.60706 0.34567 0.03186 0.0
C272 C 0.68571 -0.00134 0.85634 0.0
C273 C 0.5458 0.91249 0.86589 0.0
C274 C 0.65283 0.9284 0.8565 0.0
C275 C 0.47178 0.96775 0.87314 0.0
C276 C 0.61222 0.05391 0.86699 0.0
C277 C 0.50503 0.03806 0.87405 0.0
N278 N 0.79076 0.01228 0.8518 0.0
C279 C 0.8283 0.07856 0.86125 0.0
C280 C 0.65 0.12244 0.87479 0.0
C281 C 0.75857 0.13421 0.8733 0.0
Gd282 Gd 0.10655 0.88887 0.72388 0.0
Gd283 Gd 0.90194 0.91199 0.84708 0.0
N284 N 0.72636 0.87548 0.85145 0.0
C285 C 0.5166 0.84129 0.86924 0.0
C286 C 0.69882 0.80588 0.85568 0.0
C287 C 0.59329 0.78776 0.86367 0.0
H288 H 0.75907 0.76463 0.85294 0.0
H289 H 0.57085 0.7327 0.86595 0.0
H290 H 0.06176 0.05084 0.67516 0.0
H291 H 0.91265 0.08732 0.86173 0.0
H292 H 0.16041 0.16135 0.66057 0.0
H293 H 0.43511 0.82709 0.87611 0.0
H294 H 0.38919 0.95653 0.87998 0.0
H295 H 0.29112 0.76167 0.75003 0.0
H296 H 0.59703 0.16564 0.88533 0.0
H297 H 0.78898 0.18523 0.88388 0.0
H298 H 0.51099 0.10391 0.71702 0.0
H299 H 0.44759 0.0792 0.88274 0.0
H300 H 0.59228 0.8606 0.75288 0.0
H301 H 0.48429 0.75266 0.75878 0.0
N302 N 0.28777 0.87433 0.74186 0.0
C303 C 0.3463 0.93397 0.73655 0.0
C304 C 0.33639 0.80969 0.74921 0.0
C305 C 0.50702 0.86505 0.7499 0.0
C306 C 0.44633 0.8041 0.75335 0.0
C307 C 0.45739 0.93098 0.74175 0.0
H308 H 0.60103 -0.0079 0.74132 0.0
N309 N 0.19169 -0.00347 0.7096 0.0
C310 C 0.29691 -0.00321 0.72031 0.0
C311 C 0.30591 0.11855 0.69139 0.0
C312 C 0.35649 0.0582 0.71181 0.0
C313 C 0.14353 0.05345 0.68638 0.0
C314 C 0.19932 0.11578 0.67791 0.0
O315 O 0.83588 0.84964 0.78267 0.0
O316 O 0.97596 0.80669 0.7319 0.0
O317 O 0.0765 0.90627 0.64352 0.0
O318 O 0.17821 0.81985 0.66716 0.0
O319 O 0.98447 0.80454 0.84156 0.0
O320 O 0.13086 0.80768 0.78635 0.0
O321 O 0.11492 0.98503 0.77535 0.0
O322 O 0.07661 0.92554 0.84617 0.0
O323 O 0.86981 0.86009 0.91908 0.0
O324 O 0.94232 0.96337 0.91774 0.0
O325 O 0.94255 0.93068 0.71557 0.0
O326 O 0.90138 -0.00182 0.78503 0.0
C327 C 0.87618 0.80708 0.74799 0.0
C328 C 0.07551 0.7795 0.82358 0.0
C329 C 0.21448 0.8723 0.58773 0.0
C330 C 0.26272 0.87052 0.49826 0.0
C331 C 0.38026 0.92268 0.55958 0.0
C332 C 0.30991 0.90602 0.59834 0.0
C333 C 0.35704 0.905 0.50973 0.0
C334 C 0.191 0.85446 0.53733 0.0
C335 C 0.13983 0.85529 0.62889 0.0
C336 C 0.46523 0.05668 0.72192 0.0
C337 C 0.51602 -0.00689 0.73613 0.0
H338 H 0.34936 0.16669 0.68429 0.0
C339 C 0.11496 0.9815 0.82475 0.0
C340 C 0.90234 0.98825 0.73547 0.0
C341 C 0.82926 0.93679 0.98723 0.0
C342 C 0.76762 0.92282 0.07412 0.0
C343 C 0.6994 0.01966 1.02251 0.0
C344 C 0.76401 -0.0025 0.98266 0.0
C345 C 0.70135 0.98277 0.0683 0.0
C346 C 0.82991 0.8991 0.03318 0.0
C347 C 0.90043 0.91391 0.94571 0.0
H348 H 0.45309 0.94919 0.56827 0.0
H349 H 0.33059 0.91916 0.63652 0.0
H350 H 0.41282 0.91799 0.48006 0.0
H351 H 0.11782 0.82804 0.52855 0.0
H352 H 0.65102 0.06723 1.01834 0.0
H353 H 0.76468 0.02924 0.94908 0.0
H354 H 0.65483 0.00265 0.09983 0.0
H355 H 0.88345 0.85397 0.03808 0.0
C356 C 0.90298 0.53573 0.33915 0.0
C357 C 0.94895 0.65235 0.36958 0.0
C358 C 0.87237 0.60291 0.35481 0.0
C359 C 0.05681 0.63529 0.36403 0.0
C360 C 0.01136 0.51626 0.33828 0.0
C361 C 0.0881 0.56726 0.34837 0.0
N362 N 0.82681 0.48668 0.33222 0.0
C363 C 0.8543 0.41655 0.32765 0.0
C364 C 0.03931 0.44504 0.33086 0.0
C365 C 0.96046 0.3948 0.32588 0.0
Gd366 Gd 0.45334 0.55811 0.21428 0.0
Gd367 Gd 0.64958 0.52571 0.34312 0.0
N368 N 0.76761 0.61681 0.36151 0.0
C369 C 0.91512 0.71483 0.39351 0.0
C370 C 0.73462 0.67576 0.38726 0.0
C371 C 0.80787 0.72508 0.40423 0.0
H372 H 0.6518 0.68374 0.39562 0.0
H373 H 0.78133 0.7715 0.425 0.0
H374 H 0.3574 0.39234 0.21655 0.0
H375 H 0.79453 0.37675 0.32781 0.0
H376 H 0.18098 0.33517 0.21892 0.0
H377 H 0.97153 0.75355 0.40624 0.0
H378 H 0.11649 0.67278 0.37473 0.0
H379 H 0.40381 0.72801 0.18547 0.0
H380 H 0.12145 0.42818 0.33039 0.0
H381 H 0.98138 0.33912 0.32196 0.0
H382 H 0.93367 0.52922 0.21255 0.0
H383 H 0.17165 0.55345 0.34693 0.0
H384 H 0.06772 0.7612 0.18433 0.0
H385 H 0.24718 0.80601 0.16964 0.0
N386 N 0.31209 0.63899 0.20591 0.0
C387 C 0.21381 0.61154 0.2106 0.0
C388 C 0.32516 0.70804 0.19172 0.0
C389 C 0.13563 0.72654 0.19097 0.0
C390 C 0.23711 0.75242 0.18333 0.0
C391 C 0.12279 0.65508 0.20384 0.0
H392 H 0.95162 0.65798 0.20222 0.0
N393 N 0.29274 0.49701 0.22059 0.0
C394 C 0.20376 0.53864 0.2176 0.0
C395 C 0.09519 0.43411 0.21688 0.0
C396 C 0.10255 0.50806 0.21628 0.0
C397 C 0.28587 0.42462 0.21812 0.0
C398 C 0.18701 0.39228 0.21824 0.0
O399 O 0.69007 0.61696 0.29061 0.0
O400 O 0.58261 0.63937 0.21903 0.0
O401 O 0.4631 0.4868 0.14972 0.0
O402 O 0.44354 0.60013 0.13775 0.0
O403 O 0.49329 0.58911 0.3439 0.0
O404 O 0.45219 0.64899 0.26927 0.0
O405 O 0.3947 0.49849 0.28353 0.0
O406 O 0.5391 0.44105 0.31887 0.0
O407 O 0.59788 0.54962 0.42062 0.0
O408 O 0.68706 0.45416 0.40535 0.0
O409 O 0.61902 0.51101 0.21568 0.0
O410 O 0.65466 0.43963 0.28286 0.0
C411 C 0.66427 0.65221 0.2488 0.0
C412 C 0.46651 0.64755 0.3187 0.0
C413 C 0.3624 0.5264 0.07811 0.0
C414 C 0.2948 0.54637 0.99269 0.0
C415 C 0.18774 0.48536 0.05455 0.0
C416 C 0.26828 0.49154 0.09014 0.0
C417 C 0.20066 0.51283 1.00601 0.0
C418 C 0.37566 0.55336 1.02878 0.0
C419 C 0.44492 0.53772 0.11682 0.0
C420 C 0.01193 0.55183 0.2125 0.0
C421 C 0.02207 0.62521 0.20675 0.0
H422 H 0.01892 0.40877 0.2157 0.0
C423 C 0.43731 0.45012 0.31352 0.0
C424 C 0.64659 0.4486 0.23356 0.0
C425 C 0.73072 0.51505 0.48018 0.0
C426 C 0.7756 0.55509 0.56569 0.0
C427 C 0.91453 0.52925 0.50471 0.0
C428 C 0.83945 0.51026 0.46919 0.0
C429 C 0.8833 0.55155 0.55256 0.0
C430 C 0.69889 0.53682 0.52911 0.0
C431 C 0.65289 0.49731 0.44017 0.0
H432 H 0.11552 0.4586 0.06455 0.0
H433 H 0.25633 0.46876 0.12676 0.0
H434 H 0.13826 0.5065 0.97841 0.0
H435 H 0.44847 0.57934 1.01844 0.0
H436 H 0.99746 0.52577 0.49518 0.0
H437 H 0.86729 0.491 0.43318 0.0
H438 H 0.94391 0.56412 0.57988 0.0
H439 H 0.6155 0.53966 0.53859 0.0
loop_
_geom_bond_atom_site_label_1
_geom_bond_atom_site_label_2
_geom_bond_distance
_geom_bond_site_symmetry_2
_ccdc_geom_bond_type
H0 C7 0.929 . S
H1 C10 0.930 . S
H2 C12 0.929 . S
H3 C4 0.969 . S
C4 H3 0.969 . S
C4 O5 1.550 . S
C4 H6 0.973 . S
O5 C4 1.550 . S
O5 C11 1.412 . S
H6 C4 0.973 . S
C7 H0 0.929 . S
C7 C8 1.400 . S
C7 C9 1.364 . S
C8 C7 1.400 . S
C8 C12 1.377 . S
C9 C7 1.364 . S
C9 C10 1.374 . S
C10 H1 0.930 . S
C10 C9 1.374 . S
C10 C11 1.383 . S
C11 O5 1.412 . S
C11 C10 1.383 . S
C11 C12 1.394 . S
C12 H2 0.929 . S
C12 C8 1.377 . S
C12 C11 1.394 . S
H13 C20 0.929 . S
H14 C23 0.930 . S
H15 C25 0.929 . S
H16 C17 0.969 . S
C17 H16 0.969 . S
C17 O18 1.550 . S
C17 H19 0.973 . S
O18 C17 1.550 . S
O18 C24 1.412 . S
H19 C17 0.973 . S
C20 H13 0.929 . S
C20 C21 1.400 . S
C20 C22 1.364 . S
C21 C20 1.400 . S
C21 C25 1.377 . S
C22 C20 1.364 . S
C22 C23 1.374 . S
C23 H14 0.930 . S
C23 C22 1.374 . S
C23 C24 1.383 . S
C24 O18 1.412 . S
C24 C23 1.383 . S
C24 C25 1.394 . S
C25 H15 0.929 . S
C25 C21 1.377 . S
C25 C24 1.394 . S
H26 C33 0.929 . S
H27 C36 0.930 . S
H28 C38 0.929 . S
H29 C30 0.969 . S
C30 H29 0.969 . S
C30 O31 1.550 . S
C30 H32 0.973 . S
O31 C30 1.550 . S
O31 C37 1.412 . S
H32 C30 0.973 . S
C33 H26 0.929 . S
C33 C34 1.400 . S
C33 C35 1.364 . S
C34 C33 1.400 . S
C34 C38 1.377 . S
C35 C33 1.364 . S
C35 C36 1.374 . S
C36 H27 0.930 . S
C36 C35 1.374 . S
C36 C37 1.383 . S
C37 O31 1.412 . S
C37 C36 1.383 . S
C37 C38 1.394 . S
C38 H28 0.929 . S
C38 C34 1.377 . S
C38 C37 1.394 . S
H39 C46 0.929 . S
H40 C49 0.930 . S
H41 C51 0.929 . S
H42 C43 0.969 . S
C43 H42 0.969 . S
C43 O44 1.550 . S
C43 H45 0.973 . S
O44 C43 1.550 . S
O44 C50 1.412 . S
H45 C43 0.973 . S
C46 H39 0.929 . S
C46 C47 1.400 . S
C46 C48 1.364 . S
C47 C46 1.400 . S
C47 C51 1.377 . S
C48 C46 1.364 . S
C48 C49 1.374 . S
C49 H40 0.930 . S
C49 C48 1.374 . S
C49 C50 1.383 . S
C50 O44 1.412 . S
C50 C49 1.383 . S
C50 C51 1.394 . S
C51 H41 0.929 . S
C51 C47 1.377 . S
C51 C50 1.394 . S
H52 C59 0.929 . S
H53 C62 0.930 . S
H54 C64 0.929 . S
H55 C56 0.969 . S
C56 H55 0.969 . S
C56 O57 1.550 . S
C56 H58 0.973 . S
O57 C56 1.550 . S
O57 C63 1.412 . S
H58 C56 0.973 . S
C59 H52 0.929 . S
C59 C60 1.400 . S
C59 C61 1.364 . S
C60 C59 1.400 . S
C60 C64 1.377 . S
C61 C59 1.364 . S
C61 C62 1.374 . S
C62 H53 0.930 . S
C62 C61 1.374 . S
C62 C63 1.383 . S
C63 O57 1.412 . S
C63 C62 1.383 . S
C63 C64 1.394 . S
C64 H54 0.929 . S
C64 C60 1.377 . S
C64 C63 1.394 . S
H65 C72 0.929 . S
H66 C75 0.930 . S
H67 C77 0.929 . S
H68 C69 0.969 . S
C69 H68 0.969 . S
C69 O70 1.550 . S
C69 H71 0.973 . S
O70 C69 1.550 . S
O70 C76 1.412 . S
H71 C69 0.973 . S
C72 H65 0.929 . S
C72 C73 1.400 . S
C72 C74 1.364 . S
C73 C72 1.400 . S
C73 C77 1.377 . S
C74 C72 1.364 . S
C74 C75 1.374 . S
C75 H66 0.930 . S
C75 C74 1.374 . S
C75 C76 1.383 . S
C76 O70 1.412 . S
C76 C75 1.383 . S
C76 C77 1.394 . S
C77 H67 0.929 . S
C77 C73 1.377 . S
C77 C76 1.394 . S
H78 C85 0.929 . S
H79 C88 0.930 . S
H80 C90 0.929 . S
H81 C82 0.969 . S
C82 H81 0.969 . S
C82 O83 1.550 . S
C82 H84 0.973 . S
O83 C82 1.550 . S
O83 C89 1.412 . S
H84 C82 0.973 . S
C85 H78 0.929 . S
C85 C86 1.400 . S
C85 C87 1.364 . S
C86 C85 1.400 . S
C86 C90 1.377 . S
C87 C85 1.364 . S
C87 C88 1.374 . S
C88 H79 0.930 . S
C88 C87 1.374 . S
C88 C89 1.383 . S
C89 O83 1.412 . S
C89 C88 1.383 . S
C89 C90 1.394 . S
C90 H80 0.929 . S
C90 C86 1.377 . S
C90 C89 1.394 . S
H91 C98 0.929 . S
H92 C101 0.930 . S
H93 C103 0.929 . S
H94 C95 0.969 . S
C95 H94 0.969 . S
C95 O96 1.550 . S
C95 H97 0.973 . S
O96 C95 1.550 . S
O96 C102 1.412 . S
H97 C95 0.973 . S
C98 H91 0.929 . S
C98 C99 1.400 . S
C98 C100 1.364 . S
C99 C98 1.400 . S
C99 C103 1.377 . S
C100 C98 1.364 . S
C100 C101 1.374 . S
C101 H92 0.930 . S
C101 C100 1.374 . S
C101 C102 1.383 . S
C102 O96 1.412 . S
C102 C101 1.383 . S
C102 C103 1.394 . S
C103 H93 0.929 . S
C103 C99 1.377 . S
C103 C102 1.394 . S
C104 C106 1.422 1_545 S
C104 C108 1.415 . S
C104 N110 1.369 . S
C105 C106 1.421 . S
C105 C107 1.417 . S
C105 C117 1.422 . S
C106 C104 1.422 1_565 S
C106 C105 1.421 . S
C106 N116 1.359 . S
C107 C105 1.417 . S
C107 C109 1.329 . S
C107 H126 0.930 . S
C108 C104 1.415 . S
C108 C109 1.437 1_545 S
C108 C112 1.413 . S
C109 C107 1.329 . S
C109 C108 1.437 1_565 S
C109 H131 0.929 . S
N110 C104 1.369 . S
N110 C111 1.338 . S
N110 Gd115 2.622 . S
C111 N110 1.338 . S
C111 C113 1.378 . S
C111 H123 0.929 . S
C112 C108 1.413 . S
C112 C113 1.348 . S
C112 H128 0.931 . S
C113 C111 1.378 . S
C113 C112 1.348 . S
C113 H129 0.930 . S
Gd114 N134 2.622 . S
Gd114 N141 2.570 . S
Gd114 O148 2.353 . S
Gd114 O149 2.468 . S
Gd114 O150 2.427 . S
Gd114 O152 2.388 1_545 S
Gd114 O153 2.386 . S
Gd114 O157 2.307 . S
Gd114 C167 2.805 . S
Gd115 N110 2.622 . S
Gd115 N116 2.570 1_545 S
Gd115 O147 2.386 . S
Gd115 O151 2.307 1_655 S
Gd115 O154 2.353 1_655 S
Gd115 O155 2.468 . S
Gd115 O156 2.427 . S
Gd115 O158 2.388 . S
Gd115 C179 2.805 . S
N116 C106 1.359 . S
N116 Gd115 2.570 1_565 S
N116 C118 1.343 . S
C117 C105 1.422 . S
C117 C119 1.321 . S
C117 H125 0.931 . S
C118 N116 1.343 . S
C118 C119 1.390 . S
C118 H120 0.931 . S
C119 C117 1.321 . S
C119 C118 1.390 . S
C119 H121 0.930 . S
H120 C118 0.931 . S
H121 C119 0.930 . S
H122 C145 0.931 . S
H123 C111 0.929 . S
H124 C146 0.930 . S
H125 C117 0.931 . S
H126 C107 0.930 . S
H127 C136 0.929 1_565 S
H128 C112 0.931 . S
H129 C113 0.930 . S
H130 C168 0.930 . S
H131 C109 0.929 . S
H132 C137 0.931 . S
H133 C138 0.930 1_565 S
N134 Gd114 2.622 . S
N134 C135 1.369 . S
N134 C136 1.338 . S
C135 N134 1.369 . S
C135 C139 1.415 . S
C135 C142 1.422 . S
C136 H127 0.929 1_545 S
C136 N134 1.338 . S
C136 C138 1.378 . S
C137 H132 0.931 . S
C137 C138 1.348 . S
C137 C139 1.413 . S
C138 H133 0.930 1_545 S
C138 C136 1.378 . S
C138 C137 1.348 . S
C139 C135 1.415 . S
C139 C137 1.413 . S
C139 C169 1.437 . S
H140 C169 0.929 . S
N141 Gd114 2.570 . S
N141 C142 1.359 . S
N141 C145 1.343 . S
C142 C135 1.422 . S
C142 N141 1.359 . S
C142 C144 1.421 . S
C143 C144 1.422 . S
C143 C146 1.321 . S
C143 H170 0.931 . S
C144 C142 1.421 . S
C144 C143 1.422 . S
C144 C168 1.417 . S
C145 H122 0.931 . S
C145 N141 1.343 . S
C145 C146 1.390 . S
C146 H124 0.930 . S
C146 C143 1.321 . S
C146 C145 1.390 . S
O147 Gd115 2.386 . S
O147 C159 1.265 1_545 S
O148 Gd114 2.353 . S
O148 C159 1.242 1_445 S
O149 Gd114 2.468 . S
O149 C167 1.263 . S
O150 Gd114 2.427 . S
O150 C167 1.252 . S
O151 Gd115 2.307 1_455 S
O151 C160 1.261 1_545 S
O152 Gd114 2.388 1_565 S
O152 C160 1.252 . S
O153 Gd114 2.386 . S
O153 C171 1.265 . S
O154 Gd115 2.353 1_455 S
O154 C171 1.242 . S
O155 Gd115 2.468 . S
O155 C179 1.263 . S
O156 Gd115 2.427 . S
O156 C179 1.252 . S
O157 Gd114 2.307 . S
O157 C172 1.261 1_455 S
O158 Gd115 2.388 . S
O158 C172 1.252 . S
C159 O147 1.265 1_565 S
C159 O148 1.242 1_665 S
C160 O151 1.261 1_565 S
C160 O152 1.252 . S
C161 C164 1.394 1_545 S
C161 C166 1.370 . S
C161 C167 1.500 . S
C162 C165 1.383 . S
C162 C166 1.395 1_556 S
C163 C164 1.396 1_556 S
C163 C165 1.365 1_565 S
C163 H180 0.929 . S
C164 C161 1.394 1_565 S
C164 C163 1.396 1_554 S
C164 H181 0.930 . S
C165 C162 1.383 . S
C165 C163 1.365 1_545 S
C165 H182 0.931 1_545 S
C166 C161 1.370 . S
C166 C162 1.395 1_554 S
C166 H183 0.930 . S
C167 Gd114 2.805 . S
C167 O149 1.263 . S
C167 O150 1.252 . S
C167 C161 1.500 . S
C168 H130 0.930 . S
C168 C144 1.417 . S
C168 C169 1.329 . S
C169 C139 1.437 . S
C169 H140 0.929 . S
C169 C168 1.329 . S
H170 C143 0.931 . S
C171 O153 1.265 . S
C171 O154 1.242 . S
C172 O157 1.261 1_655 S
C172 O158 1.252 . S
C173 C176 1.394 . S
C173 C178 1.370 . S
C173 C179 1.500 . S
C174 C177 1.383 . S
C174 C178 1.395 . S
C175 C176 1.396 . S
C175 C177 1.365 . S
C175 H184 0.929 . S
C176 C173 1.394 . S
C176 C175 1.396 . S
C176 H185 0.930 . S
C177 C174 1.383 . S
C177 C175 1.365 . S
C177 H186 0.931 . S
C178 C173 1.370 . S
C178 C174 1.395 . S
C178 H187 0.930 . S
C179 Gd115 2.805 . S
C179 O155 1.263 . S
C179 O156 1.252 . S
C179 C173 1.500 . S
H180 C163 0.929 . S
H181 C164 0.930 . S
H182 C165 0.931 1_565 S
H183 C166 0.930 . S
H184 C175 0.929 . S
H185 C176 0.930 . S
H186 C177 0.931 . S
H187 C178 0.930 . S
C188 C190 1.422 . S
C188 C192 1.415 1_655 S
C188 N194 1.369 . S
C189 C190 1.421 . S
C189 C191 1.417 1_655 S
C189 C201 1.422 . S
C190 C188 1.422 . S
C190 C189 1.421 . S
C190 N200 1.359 . S
C191 C189 1.417 1_455 S
C191 C193 1.329 . S
C191 H210 0.930 . S
C192 C188 1.415 1_455 S
C192 C193 1.437 . S
C192 C196 1.413 . S
C193 C191 1.329 . S
C193 C192 1.437 . S
C193 H215 0.929 . S
N194 C188 1.369 . S
N194 C195 1.338 . S
N194 Gd199 2.622 . S
C195 N194 1.338 . S
C195 C197 1.378 . S
C195 H207 0.929 . S
C196 C192 1.413 . S
C196 C197 1.348 1_455 S
C196 H212 0.931 . S
C197 C195 1.378 . S
C197 C196 1.348 1_655 S
C197 H213 0.930 1_655 S
Gd198 N218 2.622 . S
Gd198 N225 2.570 . S
Gd198 O232 2.353 . S
Gd198 O233 2.468 . S
Gd198 O234 2.427 . S
Gd198 O236 2.388 . S
Gd198 O237 2.386 . S
Gd198 O241 2.307 . S
Gd198 C251 2.805 . S
Gd199 N194 2.622 . S
Gd199 N200 2.570 . S
Gd199 O231 2.386 . S
Gd199 O235 2.307 . S
Gd199 O238 2.353 . S
Gd199 O239 2.468 . S
Gd199 O240 2.427 . S
Gd199 O242 2.388 . S
Gd199 C263 2.805 . S
N200 C190 1.359 . S
N200 Gd199 2.570 . S
N200 C202 1.343 . S
C201 C189 1.422 . S
C201 C203 1.321 . S
C201 H209 0.931 . S
C202 N200 1.343 . S
C202 C203 1.390 . S
C202 H204 0.931 . S
C203 C201 1.321 . S
C203 C202 1.390 . S
C203 H205 0.930 . S
H204 C202 0.931 . S
H205 C203 0.930 . S
H206 C229 0.931 . S
H207 C195 0.929 . S
H208 C230 0.930 . S
H209 C201 0.931 . S
H210 C191 0.930 . S
H211 C220 0.929 . S
H212 C196 0.931 . S
H213 C197 0.930 1_455 S
H214 C252 0.930 1_655 S
H215 C193 0.929 . S
H216 C221 0.931 . S
H217 C222 0.930 . S
N218 Gd198 2.622 . S
N218 C219 1.369 . S
N218 C220 1.338 . S
C219 N218 1.369 . S
C219 C223 1.415 . S
C219 C226 1.422 . S
C220 H211 0.929 . S
C220 N218 1.338 . S
C220 C222 1.378 . S
C221 H216 0.931 . S
C221 C222 1.348 1_655 S
C221 C223 1.413 1_655 S
C222 H217 0.930 . S
C222 C220 1.378 . S
C222 C221 1.348 1_455 S
C223 C219 1.415 . S
C223 C221 1.413 1_455 S
C223 C253 1.437 1_455 S
H224 C253 0.929 . S
N225 Gd198 2.570 . S
N225 C226 1.359 . S
N225 C229 1.343 . S
C226 C219 1.422 . S
C226 N225 1.359 . S
C226 C228 1.421 . S
C227 C228 1.422 . S
C227 C230 1.321 . S
C227 H254 0.931 . S
C228 C226 1.421 . S
C228 C227 1.422 . S
C228 C252 1.417 . S
C229 H206 0.931 . S
C229 N225 1.343 . S
C229 C230 1.390 . S
C230 H208 0.930 . S
C230 C227 1.321 . S
C230 C229 1.390 . S
O231 Gd199 2.386 . S
O231 C243 1.265 . S
O232 Gd198 2.353 . S
O232 C243 1.242 . S
O233 Gd198 2.468 . S
O233 C251 1.263 . S
O234 Gd198 2.427 . S
O234 C251 1.252 . S
O235 Gd199 2.307 . S
O235 C244 1.261 . S
O236 Gd198 2.388 . S
O236 C244 1.252 . S
O237 Gd198 2.386 . S
O237 C255 1.265 . S
O238 Gd199 2.353 . S
O238 C255 1.242 . S
O239 Gd199 2.468 . S
O239 C263 1.263 . S
O240 Gd199 2.427 . S
O240 C263 1.252 . S
O241 Gd198 2.307 . S
O241 C256 1.261 . S
O242 Gd199 2.388 . S
O242 C256 1.252 . S
C243 O231 1.265 . S
C243 O232 1.242 . S
C244 O235 1.261 . S
C244 O236 1.252 . S
C245 C248 1.394 . S
C245 C250 1.370 . S
C245 C251 1.500 . S
C246 C249 1.383 . S
C246 C250 1.395 . S
C247 C248 1.396 . S
C247 C249 1.365 . S
C247 H264 0.929 . S
C248 C245 1.394 . S
C248 C247 1.396 . S
C248 H265 0.930 . S
C249 C246 1.383 . S
C249 C247 1.365 . S
C249 H266 0.931 . S
C250 C245 1.370 . S
C250 C246 1.395 . S
C250 H267 0.930 . S
C251 Gd198 2.805 . S
C251 O233 1.263 . S
C251 O234 1.252 . S
C251 C245 1.500 . S
C252 H214 0.930 1_455 S
C252 C228 1.417 . S
C252 C253 1.329 1_455 S
C253 C223 1.437 1_655 S
C253 H224 0.929 . S
C253 C252 1.329 1_655 S
H254 C227 0.931 . S
C255 O237 1.265 . S
C255 O238 1.242 . S
C256 O241 1.261 . S
C256 O242 1.252 . S
C257 C260 1.394 . S
C257 C262 1.370 . S
C257 C263 1.500 . S
C258 C261 1.383 . S
C258 C262 1.395 1_554 S
C259 C260 1.396 1_554 S
C259 C261 1.365 . S
C259 H268 0.929 . S
C260 C257 1.394 . S
C260 C259 1.396 1_556 S
C260 H269 0.930 . S
C261 C258 1.383 . S
C261 C259 1.365 . S
C261 H270 0.931 . S
C262 C257 1.370 . S
C262 C258 1.395 1_556 S
C262 H271 0.930 . S
C263 Gd199 2.805 . S
C263 O239 1.263 . S
C263 O240 1.252 . S
C263 C257 1.500 . S
H264 C247 0.929 . S
H265 C248 0.930 . S
H266 C249 0.931 . S
H267 C250 0.930 . S
H268 C259 0.929 . S
H269 C260 0.930 . S
H270 C261 0.931 . S
H271 C262 0.930 . S
C272 C274 1.422 . S
C272 C276 1.415 . S
C272 N278 1.369 . S
C273 C274 1.421 . S
C273 C275 1.417 . S
C273 C285 1.422 . S
C274 C272 1.422 . S
C274 C273 1.421 . S
C274 N284 1.359 . S
C275 C273 1.417 . S
C275 C277 1.329 . S
C275 H294 0.930 . S
C276 C272 1.415 . S
C276 C277 1.437 . S
C276 C280 1.413 . S
C277 C275 1.329 . S
C277 C276 1.437 . S
C277 H299 0.929 . S
N278 C272 1.369 . S
N278 C279 1.338 . S
N278 Gd283 2.622 . S
C279 N278 1.338 . S
C279 C281 1.378 . S
C279 H291 0.929 1_565 S
C280 C276 1.413 . S
C280 C281 1.348 . S
C280 H296 0.931 . S
C281 C279 1.378 . S
C281 C280 1.348 . S
C281 H297 0.930 1_565 S
Gd282 N302 2.622 . S
Gd282 N309 2.570 1_565 S
Gd282 O316 2.353 . S
Gd282 O317 2.468 . S
Gd282 O318 2.427 . S
Gd282 O320 2.388 . S
Gd282 O321 2.386 . S
Gd282 O325 2.307 . S
Gd282 C335 2.805 . S
Gd283 N278 2.622 . S
Gd283 N284 2.570 . S
Gd283 O315 2.386 . S
Gd283 O319 2.307 1_655 S
Gd283 O322 2.353 1_655 S
Gd283 O323 2.468 . S
Gd283 O324 2.427 . S
Gd283 O326 2.388 1_565 S
Gd283 C347 2.805 . S
N284 C274 1.359 . S
N284 Gd283 2.570 . S
N284 C286 1.343 . S
C285 C273 1.422 . S
C285 C287 1.321 . S
C285 H293 0.931 . S
C286 N284 1.343 . S
C286 C287 1.390 . S
C286 H288 0.931 . S
C287 C285 1.321 . S
C287 C286 1.390 . S
C287 H289 0.930 . S
H288 C286 0.931 . S
H289 C287 0.930 . S
H290 C313 0.931 . S
H291 C279 0.929 1_545 S
H292 C314 0.930 . S
H293 C285 0.931 . S
H294 C275 0.930 . S
H295 C304 0.929 . S
H296 C280 0.931 . S
H297 C281 0.930 1_545 S
H298 C336 0.930 . S
H299 C277 0.929 . S
H300 C305 0.931 . S
H301 C306 0.930 . S
N302 Gd282 2.622 . S
N302 C303 1.369 . S
N302 C304 1.338 . S
C303 N302 1.369 . S
C303 C307 1.415 . S
C303 C310 1.422 1_565 S
C304 H295 0.929 . S
C304 N302 1.338 . S
C304 C306 1.378 . S
C305 H300 0.931 . S
C305 C306 1.348 . S
C305 C307 1.413 . S
C306 H301 0.930 . S
C306 C304 1.378 . S
C306 C305 1.348 . S
C307 C303 1.415 . S
C307 C305 1.413 . S
C307 C337 1.437 1_565 S
H308 C337 0.929 . S
N309 Gd282 2.570 1_545 S
N309 C310 1.359 . S
N309 C313 1.343 . S
C310 C303 1.422 1_545 S
C310 N309 1.359 . S
C310 C312 1.421 . S
C311 C312 1.422 . S
C311 C314 1.321 . S
C311 H338 0.931 . S
C312 C310 1.421 . S
C312 C311 1.422 . S
C312 C336 1.417 . S
C313 H290 0.931 . S
C313 N309 1.343 . S
C313 C314 1.390 . S
C314 H292 0.930 . S
C314 C311 1.321 . S
C314 C313 1.390 . S
O315 Gd283 2.386 . S
O315 C327 1.265 . S
O316 Gd282 2.353 . S
O316 C327 1.242 1_455 S
O317 Gd282 2.468 . S
O317 C335 1.263 . S
O318 Gd282 2.427 . S
O318 C335 1.252 . S
O319 Gd283 2.307 1_455 S
O319 C328 1.261 . S
O320 Gd282 2.388 . S
O320 C328 1.252 . S
O321 Gd282 2.386 . S
O321 C339 1.265 1_565 S
O322 Gd283 2.353 1_455 S
O322 C339 1.242 1_565 S
O323 Gd283 2.468 . S
O323 C347 1.263 . S
O324 Gd283 2.427 . S
O324 C347 1.252 . S
O325 Gd282 2.307 . S
O325 C340 1.261 1_465 S
O326 Gd283 2.388 1_545 S
O326 C340 1.252 . S
C327 O315 1.265 . S
C327 O316 1.242 1_655 S
C328 O319 1.261 . S
C328 O320 1.252 . S
C329 C332 1.394 . S
C329 C334 1.370 . S
C329 C335 1.500 . S
C330 C333 1.383 . S
C330 C334 1.395 . S
C331 C332 1.396 . S
C331 C333 1.365 . S
C331 H348 0.929 . S
C332 C329 1.394 . S
C332 C331 1.396 . S
C332 H349 0.930 . S
C333 C330 1.383 . S
C333 C331 1.365 . S
C333 H350 0.931 . S
C334 C329 1.370 . S
C334 C330 1.395 . S
C334 H351 0.930 . S
C335 Gd282 2.805 . S
C335 O317 1.263 . S
C335 O318 1.252 . S
C335 C329 1.500 . S
C336 H298 0.930 . S
C336 C312 1.417 . S
C336 C337 1.329 . S
C337 C307 1.437 1_545 S
C337 H308 0.929 . S
C337 C336 1.329 . S
H338 C311 0.931 . S
C339 O321 1.265 1_545 S
C339 O322 1.242 1_545 S
C340 O325 1.261 1_645 S
C340 O326 1.252 . S
C341 C344 1.394 1_565 S
C341 C346 1.370 . S
C341 C347 1.500 . S
C342 C345 1.383 . S
C342 C346 1.395 1_554 S
C343 C344 1.396 . S
C343 C345 1.365 1_546 S
C343 H352 0.929 1_556 S
C344 C341 1.394 1_545 S
C344 C343 1.396 . S
C344 H353 0.930 . S
C345 C342 1.383 . S
C345 C343 1.365 1_564 S
C345 H354 0.933 . S
C346 C341 1.370 . S
C346 C342 1.395 1_556 S
C346 H355 0.930 . S
C347 Gd283 2.805 . S
C347 O323 1.263 . S
C347 O324 1.252 . S
C347 C341 1.500 . S
H348 C331 0.929 . S
H349 C332 0.930 . S
H350 C333 0.931 . S
H351 C334 0.930 . S
H352 C343 0.929 1_554 S
H353 C344 0.930 . S
H354 C345 0.933 . S
H355 C346 0.930 . S
C356 C358 1.422 . S
C356 C360 1.415 1_655 S
C356 N362 1.369 . S
C357 C358 1.421 . S
C357 C359 1.417 1_655 S
C357 C369 1.422 . S
C358 C356 1.422 . S
C358 C357 1.421 . S
C358 N368 1.359 . S
C359 C357 1.417 1_455 S
C359 C361 1.329 . S
C359 H378 0.930 . S
C360 C356 1.415 1_455 S
C360 C361 1.437 . S
C360 C364 1.413 . S
C361 C359 1.329 . S
C361 C360 1.437 . S
C361 H383 0.929 . S
N362 C356 1.369 . S
N362 C363 1.338 . S
N362 Gd367 2.622 . S
C363 N362 1.338 . S
C363 C365 1.378 . S
C363 H375 0.929 . S
C364 C360 1.413 . S
C364 C365 1.348 1_455 S
C364 H380 0.931 . S
C365 C363 1.378 . S
C365 C364 1.348 1_655 S
C365 H381 0.930 1_655 S
Gd366 N386 2.622 . S
Gd366 N393 2.570 . S
Gd366 O400 2.353 . S
Gd366 O401 2.468 . S
Gd366 O402 2.427 . S
Gd366 O404 2.388 . S
Gd366 O405 2.386 . S
Gd366 O409 2.307 . S
Gd366 C419 2.805 . S
Gd367 N362 2.622 . S
Gd367 N368 2.570 . S
Gd367 O399 2.386 . S
Gd367 O403 2.307 . S
Gd367 O406 2.353 . S
Gd367 O407 2.468 . S
Gd367 O408 2.427 . S
Gd367 O410 2.388 . S
Gd367 C431 2.805 . S
N368 C358 1.359 . S
N368 Gd367 2.570 . S
N368 C370 1.343 . S
C369 C357 1.422 . S
C369 C371 1.321 . S
C369 H377 0.931 . S
C370 N368 1.343 . S
C370 C371 1.390 . S
C370 H372 0.931 . S
C371 C369 1.321 . S
C371 C370 1.390 . S
C371 H373 0.930 . S
H372 C370 0.931 . S
H373 C371 0.930 . S
H374 C397 0.931 . S
H375 C363 0.929 . S
H376 C398 0.930 . S
H377 C369 0.931 . S
H378 C359 0.930 . S
H379 C388 0.929 . S
H380 C364 0.931 . S
H381 C365 0.930 1_455 S
H382 C420 0.930 1_655 S
H383 C361 0.929 . S
H384 C389 0.931 . S
H385 C390 0.930 . S
N386 Gd366 2.622 . S
N386 C387 1.369 . S
N386 C388 1.338 . S
C387 N386 1.369 . S
C387 C391 1.415 . S
C387 C394 1.422 . S
C388 H379 0.929 . S
C388 N386 1.338 . S
C388 C390 1.378 . S
C389 H384 0.931 . S
C389 C390 1.348 1_655 S
C389 C391 1.413 1_655 S
C390 H385 0.930 . S
C390 C388 1.378 . S
C390 C389 1.348 1_455 S
C391 C387 1.415 . S
C391 C389 1.413 1_455 S
C391 C421 1.437 1_455 S
H392 C421 0.929 . S
N393 Gd366 2.570 . S
N393 C394 1.359 . S
N393 C397 1.343 . S
C394 C387 1.422 . S
C394 N393 1.359 . S
C394 C396 1.421 . S
C395 C396 1.422 . S
C395 C398 1.321 . S
C395 H422 0.931 . S
C396 C394 1.421 . S
C396 C395 1.422 . S
C396 C420 1.417 . S
C397 H374 0.931 . S
C397 N393 1.343 . S
C397 C398 1.390 . S
C398 H376 0.930 . S
C398 C395 1.321 . S
C398 C397 1.390 . S
O399 Gd367 2.386 . S
O399 C411 1.265 . S
O400 Gd366 2.353 . S
O400 C411 1.242 . S
O401 Gd366 2.468 . S
O401 C419 1.263 . S
O402 Gd366 2.427 . S
O402 C419 1.252 . S
O403 Gd367 2.307 . S
O403 C412 1.261 . S
O404 Gd366 2.388 . S
O404 C412 1.252 . S
O405 Gd366 2.386 . S
O405 C423 1.265 . S
O406 Gd367 2.353 . S
O406 C423 1.242 . S
O407 Gd367 2.468 . S
O407 C431 1.263 . S
O408 Gd367 2.427 . S
O408 C431 1.252 . S
O409 Gd366 2.307 . S
O409 C424 1.261 . S
O410 Gd367 2.388 . S
O410 C424 1.252 . S
C411 O399 1.265 . S
C411 O400 1.242 . S
C412 O403 1.261 . S
C412 O404 1.252 . S
C413 C416 1.394 . S
C413 C418 1.370 . S
C413 C419 1.500 . S
C414 C417 1.383 . S
C414 C418 1.395 1_556 S
C415 C416 1.419 . S
C415 C417 1.347 1_554 S
C415 H432 0.924 1_554 S
C416 C413 1.394 . S
C416 C415 1.419 . S
C416 H433 0.930 . S
C417 C414 1.383 . S
C417 C415 1.347 1_556 S
C417 H434 0.931 . S
C418 C413 1.370 . S
C418 C414 1.395 1_554 S
C418 H435 0.930 . S
C419 Gd366 2.805 . S
C419 O401 1.263 . S
C419 O402 1.252 . S
C419 C413 1.500 . S
C420 H382 0.930 1_455 S
C420 C396 1.417 . S
C420 C421 1.329 1_455 S
C421 C391 1.437 1_655 S
C421 H392 0.929 . S
C421 C420 1.329 1_655 S
H422 C395 0.931 . S
C423 O405 1.265 . S
C423 O406 1.242 . S
C424 O409 1.261 . S
C424 O410 1.252 . S
C425 C428 1.394 . S
C425 C430 1.370 . S
C425 C431 1.500 . S
C426 C429 1.383 . S
C426 C430 1.395 . S
C427 C428 1.396 . S
C427 C429 1.365 . S
C427 H436 0.929 . S
C428 C425 1.394 . S
C428 C427 1.396 . S
C428 H437 0.930 . S
C429 C426 1.383 . S
C429 C427 1.365 . S
C429 H438 0.931 . S
C430 C425 1.370 . S
C430 C426 1.395 . S
C430 H439 0.930 . S
C431 Gd367 2.805 . S
C431 O407 1.263 . S
C431 O408 1.252 . S
C431 C425 1.500 . S
H432 C415 0.924 1_556 S
H433 C416 0.930 . S
H434 C417 0.931 . S
H435 C418 0.930 . S
H436 C427 0.929 . S
H437 C428 0.930 . S
H438 C429 0.931 . S
H439 C430 0.930 . S
C86 C160 1.891 . S
C244 C100 1.886 . S
C243 C60 1.811 . S
C74 C159 1.849 . S
C340 C35 1.881 . S
C424 C47 1.903 . S
C9 C423 1.844 . S
C21 C339 1.823 . S
C162 C22 1.574 . S
C246 C8 1.502 . S
C258 C48 1.288 . S
C174 C34 1.300 . S
C342 C73 1.492 . S
C61 C426 1.578 . S
C414 C99 1.299 . S
C87 C330 1.287 . S
C171 C4 1.501 . S
C255 C17 1.591 . S
C30 C256 1.380 . S
C172 C43 1.595 . S
C327 C56 1.442 . S
C69 C411 1.627 . S
C82 C412 1.503 . S
C95 C328 1.462 . S
