# Generated by pormake.
# Topology zzz, (3,6)-cn, num edge types: 1
# Building blocks:
#     Node 0, Type 0, BuildingBlock: BETDIP_clean_linker_0, # of connection points: 3
#     Node 1, Type 0, BuildingBlock: BETDIP_clean_linker_0, # of connection points: 3
#     Node 2, Type 0, BuildingBlock: BETDIP_clean_linker_0, # of connection points: 3
#     Node 3, Type 0, BuildingBlock: BETDIP_clean_linker_0, # of connection points: 3
#     Node 4, Type 0, BuildingBlock: BETDIP_clean_linker_0, # of connection points: 3
#     Node 5, Type 0, BuildingBlock: BETDIP_clean_linker_0, # of connection points: 3
#     Node 6, Type 0, BuildingBlock: BETDIP_clean_linker_0, # of connection points: 3
#     Node 7, Type 0, BuildingBlock: BETDIP_clean_linker_0, # of connection points: 3
#     Node 8, Type 1, BuildingBlock: BETGAK_clean_sbu_0, # of connection points: 6
#     Node 9, Type 1, BuildingBlock: BETGAK_clean_sbu_0, # of connection points: 6
#     Node 10, Type 1, BuildingBlock: BETGAK_clean_sbu_0, # of connection points: 6
#     Node 11, Type 1, BuildingBlock: BETGAK_clean_sbu_0, # of connection points: 6
#     Edge 12, Type (0, 1), BuildingBlock: OJICUG_clean_linker_0, # of connection points: 2
#     Edge 13, Type (0, 1), BuildingBlock: OJICUG_clean_linker_0, # of connection points: 2
#     Edge 14, Type (0, 1), BuildingBlock: OJICUG_clean_linker_0, # of connection points: 2
#     Edge 15, Type (0, 1), BuildingBlock: OJICUG_clean_linker_0, # of connection points: 2
#     Edge 16, Type (0, 1), BuildingBlock: OJICUG_clean_linker_0, # of connection points: 2
#     Edge 17, Type (0, 1), BuildingBlock: OJICUG_clean_linker_0, # of connection points: 2
#     Edge 18, Type (0, 1), BuildingBlock: OJICUG_clean_linker_0, # of connection points: 2
#     Edge 19, Type (0, 1), BuildingBlock: OJICUG_clean_linker_0, # of connection points: 2
#     Edge 20, Type (0, 1), BuildingBlock: OJICUG_clean_linker_0, # of connection points: 2
#     Edge 21, Type (0, 1), BuildingBlock: OJICUG_clean_linker_0, # of connection points: 2
#     Edge 22, Type (0, 1), BuildingBlock: OJICUG_clean_linker_0, # of connection points: 2
#     Edge 23, Type (0, 1), BuildingBlock: OJICUG_clean_linker_0, # of connection points: 2
#     Edge 24, Type (0, 1), BuildingBlock: OJICUG_clean_linker_0, # of connection points: 2
#     Edge 25, Type (0, 1), BuildingBlock: OJICUG_clean_linker_0, # of connection points: 2
#     Edge 26, Type (0, 1), BuildingBlock: OJICUG_clean_linker_0, # of connection points: 2
#     Edge 27, Type (0, 1), BuildingBlock: OJICUG_clean_linker_0, # of connection points: 2
#     Edge 28, Type (0, 1), BuildingBlock: OJICUG_clean_linker_0, # of connection points: 2
#     Edge 29, Type (0, 1), BuildingBlock: OJICUG_clean_linker_0, # of connection points: 2
#     Edge 30, Type (0, 1), BuildingBlock: OJICUG_clean_linker_0, # of connection points: 2
#     Edge 31, Type (0, 1), BuildingBlock: OJICUG_clean_linker_0, # of connection points: 2
#     Edge 32, Type (0, 1), BuildingBlock: OJICUG_clean_linker_0, # of connection points: 2
#     Edge 33, Type (0, 1), BuildingBlock: OJICUG_clean_linker_0, # of connection points: 2
#     Edge 34, Type (0, 1), BuildingBlock: OJICUG_clean_linker_0, # of connection points: 2
#     Edge 35, Type (0, 1), BuildingBlock: OJICUG_clean_linker_0, # of connection points: 2
# Relax obj value: 0.380
# Max RMSD: 0.216
# Mean RMSD: 0.159
data_MOF--net-zzz--node1-BETGAK_clean_sbu_0--node2-BETDIP_clean_linker_0--edge1-OJICUG_clean_linker_0
_symmetry_space_group_name_H-M    P1
_symmetry_Int_Tables_number       1
_symmetry_cell_setting            triclinic
loop_
_symmetry_equiv_pos_as_xyz
'x, y, z'
_cell_length_a     37.630447
_cell_length_b     37.663068
_cell_length_c     9.9206124
_cell_angle_alpha  90.131678
_cell_angle_beta   89.978645
_cell_angle_gamma 90.168618
loop_
_atom_site_label
_atom_site_type_symbol
_atom_site_fract_x
_atom_site_fract_y
_atom_site_fract_z
_atom_type_partial_charge
H0 H 0.7877 0.55416 0.51696 0.0
H1 H 0.74358 0.46 0.32949 0.0
H2 H 0.84179 0.4543 0.54484 0.0
H3 H 0.72685 0.49963 0.1772 0.0
C4 C 0.71531 0.52016 0.24037 0.0
C5 C 0.78838 0.52585 0.49792 0.0
C6 C 0.81709 0.50533 0.54743 0.0
C7 C 0.7612 0.5097 0.41922 0.0
C8 C 0.76342 0.47302 0.39122 0.0
C9 C 0.79271 0.45311 0.43295 0.0
C10 C 0.8183 0.46913 0.51615 0.0
N11 N 0.73295 0.53043 0.36246 0.0
H12 H 1.01371 0.78794 0.51277 0.0
H13 H 0.10351 0.74681 0.29201 0.0
H14 H 0.11003 0.84876 0.48443 0.0
H15 H 0.08034 0.69425 0.40151 0.0
C16 C 0.0548 0.6976 0.35244 0.0
C17 C 0.04104 0.79029 0.48014 0.0
C18 C 0.06102 0.82106 0.51383 0.0
C19 C 0.05693 0.76237 0.40489 0.0
C20 C 0.09196 0.76672 0.35756 0.0
C21 C 0.11122 0.79785 0.38382 0.0
C22 C 0.09594 0.824 0.46657 0.0
N23 N 0.03732 0.73107 0.36834 0.0
H24 H 0.78624 1.02172 0.51315 0.0
H25 H 0.82591 0.11724 0.32155 0.0
H26 H 0.72696 0.1188 0.53125 0.0
H27 H 0.85188 0.08112 0.18699 0.0
C28 C 0.86145 0.05944 0.24867 0.0
C29 C 0.78416 0.04981 0.49173 0.0
C30 C 0.75423 0.06915 0.53867 0.0
C31 C 0.81087 0.06686 0.41325 0.0
C32 C 0.80668 0.10322 0.38241 0.0
C33 C 0.77625 0.12177 0.42144 0.0
C34 C 0.75126 0.10499 0.50463 0.0
N35 N 0.84068 0.04726 0.36095 0.0
H36 H 0.55226 0.78335 0.5032 0.0
H37 H 0.45718 0.82493 0.31626 0.0
H38 H 0.45333 0.72691 0.53173 0.0
H39 H 0.49536 0.84539 0.16928 0.0
C40 C 0.51647 0.85627 0.23148 0.0
C41 C 0.52396 0.78196 0.48416 0.0
C42 C 0.50394 0.75279 0.53373 0.0
C43 C 0.50733 0.80872 0.40567 0.0
C44 C 0.47068 0.80551 0.37768 0.0
C45 C 0.45126 0.77585 0.41981 0.0
C46 C 0.46775 0.75071 0.50282 0.0
N47 N 0.5276 0.83758 0.34986 0.0
H48 H 0.26952 0.50005 0.17551 0.0
H49 H 0.31933 0.59077 0.36219 0.0
H50 H 0.21809 0.6013 0.16483 0.0
H51 H 0.37162 0.54839 0.21918 0.0
C52 C 0.36358 0.53285 0.30635 0.0
C53 C 0.26993 0.52829 0.19629 0.0
C54 C 0.24138 0.54986 0.15347 0.0
C55 C 0.29914 0.54352 0.26592 0.0
C56 C 0.29837 0.57978 0.29967 0.0
C57 C 0.26873 0.60072 0.26829 0.0
C58 C 0.24158 0.58589 0.18814 0.0
N59 N 0.3273 0.52198 0.31638 0.0
H60 H 0.06627 0.27223 0.15457 0.0
H61 H 0.97477 0.31947 0.34369 0.0
H62 H 0.9647 0.22127 0.12417 0.0
H63 H 1.01933 0.37376 0.21496 0.0
C64 C 1.0339 0.36436 0.30248 0.0
C65 C 0.03789 0.27236 0.17309 0.0
C66 C 1.01634 0.24457 0.1216 0.0
C67 C 1.02246 0.30055 0.24792 0.0
C68 C 0.98597 0.29934 0.27821 0.0
C69 C 0.96499 0.27018 0.23892 0.0
C70 C 0.98012 0.24433 0.15384 0.0
N71 N 0.04394 0.32782 0.30697 0.0
H72 H 0.29423 0.05528 0.13486 0.0
H73 H 0.25885 0.95959 0.33394 0.0
H74 H 0.35978 0.96237 0.13375 0.0
H75 H 0.20515 0.97964 0.26484 0.0
C76 C 0.20696 1.00679 0.30084 0.0
C77 C 0.29798 1.02755 0.15967 0.0
C78 C 0.32969 1.01006 0.12038 0.0
C79 C 0.2711 1.00888 0.23151 0.0
C80 C 0.27757 0.9734 0.26979 0.0
C81 C 0.30944 0.95635 0.23616 0.0
C82 C 0.33442 0.97458 0.15681 0.0
N83 N 0.23897 1.02625 0.27368 0.0
H84 H 0.50251 0.30166 0.17181 0.0
H85 H 0.59563 0.25339 0.34391 0.0
H86 H 0.60371 0.35268 0.13173 0.0
H87 H 0.55138 0.2001 0.21531 0.0
C88 C 0.53648 0.20857 0.30361 0.0
C89 C 0.53103 0.30136 0.18623 0.0
C90 C 0.55212 0.32946 0.13532 0.0
C91 C 0.54713 0.27272 0.25555 0.0
C92 C 0.58387 0.27382 0.2816 0.0
C93 C 0.60449 0.30323 0.24252 0.0
C94 C 0.58861 0.32945 0.16171 0.0
N95 N 0.52617 0.24495 0.31329 0.0
La96 La 0.06631 1.02738 0.89954 0.0
La97 La 1.01136 0.03954 0.71801 0.0
C98 C 0.10891 1.00113 0.06638 0.0
C99 C 0.12426 0.96523 0.07428 0.0
C100 C 0.16101 0.95999 0.05672 0.0
C101 C 0.17577 0.92607 0.071 0.0
C102 C 0.15361 0.89692 0.09699 0.0
C103 C 0.11674 0.90209 0.10807 0.0
C104 C 0.10227 0.93579 0.09771 0.0
C105 C 0.09121 0.04599 0.65883 0.0
C106 C 0.03522 0.96162 0.72824 0.0
C107 C 0.96884 0.06453 0.54635 0.0
C108 C 0.95247 0.09983 0.53279 0.0
C109 C 0.91558 0.10329 0.51455 0.0
C110 C 0.90027 0.13698 0.4995 0.0
C111 C 0.92161 0.16757 0.50665 0.0
C112 C 0.95828 0.16384 0.53009 0.0
C113 C 0.97351 0.13047 0.5422 0.0
C114 C 0.98679 1.02059 0.95932 0.0
C115 C 0.04223 0.10502 0.89421 0.0
O116 O 0.11904 1.02003 0.96341 0.0
O117 O 0.0747 1.00381 0.08805 0.0
O118 O 0.10127 0.05936 0.77263 0.0
O119 O 0.06575 1.02481 0.68244 0.0
O120 O 0.05133 0.97228 0.84016 0.0
O121 O 1.02032 0.98537 0.64929 0.0
O122 O 0.95875 0.04633 0.65114 0.0
O123 O 1.00327 0.06286 0.52857 0.0
O124 O 0.97669 1.00732 0.84536 0.0
O125 O 1.01193 0.04207 0.93509 0.0
O126 O 1.0258 0.09465 0.78221 0.0
O127 O 0.05755 0.08113 0.97117 0.0
H128 H 0.17837 0.98231 0.0361 0.0
H129 H 0.20431 0.92273 0.06482 0.0
H130 H 0.09912 0.88014 0.13154 0.0
H131 H 0.07382 0.93867 0.11011 0.0
H132 H 0.89881 0.07992 0.50911 0.0
H133 H 0.8721 0.13918 0.47975 0.0
H134 H 0.97576 0.18676 0.53209 0.0
H135 H 1.00197 0.1288 0.55668 0.0
La136 La 0.54824 0.06526 0.93615 0.0
La137 La 0.53501 1.0181 0.72738 0.0
C138 C 0.57317 0.09868 0.13486 0.0
C139 C 0.60307 0.12298 0.15653 0.0
C140 C 0.62019 0.13964 0.04781 0.0
C141 C 0.6506 0.16031 0.06994 0.0
C142 C 0.66432 0.16443 0.20102 0.0
C143 C 0.64539 0.1495 0.30996 0.0
C144 C 0.61523 0.12883 0.28762 0.0
C145 C 0.52771 0.09991 0.7172 0.0
C146 C 0.61294 0.04234 0.74345 0.0
C147 C 0.51045 0.98054 0.53847 0.0
C148 C 0.47715 0.96014 0.52612 0.0
C149 C 0.47793 0.92327 0.50355 0.0
C150 C 0.44621 0.90394 0.49131 0.0
C151 C 0.41335 0.92116 0.50456 0.0
C152 C 0.41291 0.95784 0.53242 0.0
C153 C 0.44433 0.97706 0.54224 0.0
C154 C 0.55301 0.98528 0.95678 0.0
C155 C 0.46986 0.04172 0.91508 0.0
O156 O 0.548 0.11059 0.05708 0.0
O157 O 0.58117 0.06568 0.10773 0.0
O158 O 0.51849 0.10726 0.83907 0.0
O159 O 0.54881 0.07366 0.71945 0.0
O160 O 0.60305 0.05462 0.86289 0.0
O161 O 0.58861 1.03039 0.65948 0.0
O162 O 0.53265 0.96876 0.62832 0.0
O163 O 0.50771 1.01516 0.54316 0.0
O164 O 0.56626 0.97881 0.83936 0.0
O165 O 0.53191 1.01091 0.94298 0.0
O166 O 0.47986 1.03058 0.794 0.0
O167 O 0.49445 0.0519 1.00174 0.0
H168 H 0.61087 0.1355 0.94562 0.0
H169 H 0.66453 0.17131 0.98401 0.0
H170 H 0.6554 0.15117 0.4121 0.0
H171 H 0.60237 0.1161 0.37251 0.0
H172 H 0.50306 0.9096 0.49236 0.0
H173 H 0.44726 0.87592 0.46779 0.0
H174 H 0.38814 0.97232 0.539 0.0
H175 H 0.44274 1.00539 0.55995 0.0
La176 La 0.50628 0.54896 0.94099 0.0
La177 La 0.55365 0.53402 0.73304 0.0
C178 C 0.47288 0.57473 0.13796 0.0
C179 C 0.44841 0.60434 0.15955 0.0
C180 C 0.43142 0.62106 0.05101 0.0
C181 C 0.41039 0.65108 0.07338 0.0
C182 C 0.40631 0.66487 0.20448 0.0
C183 C 0.42152 0.64622 0.3133 0.0
C184 C 0.44246 0.61639 0.29074 0.0
C185 C 0.47173 0.52701 0.72312 0.0
C186 C 0.53014 0.61223 0.74375 0.0
C187 C 0.59085 0.5076 0.54652 0.0
C188 C 0.60889 0.47308 0.53233 0.0
C189 C 0.64553 0.47155 0.50482 0.0
C190 C 0.66257 0.43869 0.49004 0.0
C191 C 0.64332 0.40697 0.50611 0.0
C192 C 0.60692 0.40885 0.53846 0.0
C193 C 0.58994 0.4414 0.55061 0.0
C194 C 0.58633 0.55374 0.96107 0.0
C195 C 0.52851 0.47061 0.9258 0.0
O196 O 0.4609 0.54922 0.06136 0.0
O197 O 0.50584 0.58295 0.10991 0.0
O198 O 0.46406 0.51874 0.84557 0.0
O199 O 0.49819 0.54801 0.72416 0.0
O200 O 0.51733 0.60307 0.86312 0.0
O201 O 0.54243 0.58751 0.66214 0.0
O202 O 0.60355 0.52835 0.63999 0.0
O203 O 0.55608 0.50722 0.54734 0.0
O204 O 0.59303 0.5661 0.84247 0.0
O205 O 0.56055 0.53254 0.94899 0.0
O206 O 0.53961 0.47968 0.80375 0.0
O207 O 0.51918 0.49578 1.0111 0.0
H208 H 0.43553 0.61174 0.94879 0.0
H209 H 0.39911 0.66472 0.98752 0.0
H210 H 0.41986 0.65622 0.41551 0.0
H211 H 0.45532 0.60369 0.37556 0.0
H212 H 0.66077 0.49575 0.49191 0.0
H213 H 0.69043 0.43803 0.46304 0.0
H214 H 0.59087 0.38504 0.54737 0.0
H215 H 0.56172 0.44161 0.57201 0.0
La216 La 1.02116 0.50316 0.9534 0.0
La217 La 0.03719 0.5511 0.74834 0.0
C218 C 0.99497 0.46911 0.14795 0.0
C219 C 0.96465 0.44537 0.1693 0.0
C220 C 0.94679 0.4295 0.06044 0.0
C221 C 0.91605 0.40938 0.08292 0.0
C222 C 0.9026 0.40521 0.21443 0.0
C223 C 0.92241 0.41912 0.32334 0.0
C224 C 0.95301 0.43908 0.30069 0.0
C225 C 0.04196 0.46929 0.73215 0.0
C226 C 0.95833 0.52929 0.75838 0.0
C227 C 0.06619 0.58667 0.56418 0.0
C228 C 0.10122 0.6044 0.55588 0.0
C229 C 0.10509 0.64086 0.58582 0.0
C230 C 0.13823 0.65766 0.57281 0.0
C231 C 0.16796 0.63789 0.53377 0.0
C232 C 0.16413 0.60144 0.50632 0.0
C233 C 0.13119 0.58495 0.51635 0.0
C234 C 1.01902 0.58382 0.97757 0.0
C235 C 0.10011 0.52493 0.94081 0.0
O236 O 1.01969 0.45694 0.06843 0.0
O237 O 0.98773 0.50243 0.12378 0.0
O238 O 0.05024 0.46086 0.85382 0.0
O239 O 1.02161 0.4961 0.73606 0.0
O240 O 0.96727 0.51588 0.87693 0.0
O241 O 0.9833 0.54133 0.67718 0.0
O242 O 0.04367 0.60006 0.65009 0.0
O243 O 0.06626 0.55195 0.56796 0.0
O244 O 1.00759 0.59204 0.85901 0.0
O245 O 0.03887 0.55709 0.96446 0.0
O246 O 0.09121 0.5367 0.81979 0.0
O247 O 0.07479 0.51499 0.02463 0.0
H248 H 0.95581 0.43383 0.95803 0.0
H249 H 0.90162 0.39898 0.99695 0.0
H250 H 0.91282 0.4173 0.426 0.0
H251 H 0.96665 0.451 0.38578 0.0
H252 H 0.08235 0.65654 0.616 0.0
H253 H 0.14054 0.68592 0.59142 0.0
H254 H 0.18662 0.58585 0.47237 0.0
H255 H 0.12925 0.55699 0.49147 0.0
C256 C 0.14604 0.99808 0.39467 0.0
C257 C 0.1761 1.02016 0.3812 0.0
H258 H 0.0953 0.98937 0.48708 0.0
C259 C 0.17647 0.0527 0.45085 0.0
H260 H 0.14518 0.97246 0.34515 0.0
C261 C 0.14794 0.06207 0.536 0.0
C262 C 0.11823 0.03943 0.55135 0.0
H263 H 0.19925 0.07022 0.44362 0.0
H264 H 0.14961 0.08654 0.59326 0.0
C265 C 0.11733 1.00775 0.47659 0.0
C266 C 0.52828 0.14553 0.37534 0.0
C267 C 0.52924 0.18165 0.41049 0.0
H268 H 0.52832 0.09122 0.44271 0.0
C269 C 0.52699 0.19078 0.5474 0.0
H270 H 0.52791 0.13815 0.27069 0.0
C271 C 0.52563 0.16411 0.64642 0.0
C272 C 0.52718 0.12778 0.61079 0.0
H273 H 0.52761 0.21838 0.57826 0.0
H274 H 0.52466 0.172 0.75141 0.0
C275 C 0.52801 0.11881 0.47377 0.0
C276 C 0.42682 0.52801 0.37975 0.0
C277 C 0.39063 0.52635 0.41342 0.0
H278 H 0.48095 0.53066 0.44929 0.0
C279 C 0.38136 0.52214 0.54942 0.0
H280 H 0.43441 0.52929 0.27556 0.0
C281 C 0.40789 0.5214 0.64926 0.0
C282 C 0.44417 0.52548 0.61545 0.0
H283 H 0.35369 0.52074 0.57916 0.0
H284 H 0.39983 0.51889 0.75364 0.0
C285 C 0.45335 0.52829 0.47911 0.0
C286 C 0.04142 0.3799 0.54964 0.0
C287 C 0.04097 0.39022 0.41383 0.0
H288 H 0.04218 0.39689 0.75644 0.0
C289 C 0.04347 0.4266 0.38404 0.0
H290 H 0.03957 0.3521 0.57643 0.0
C291 C 0.04344 0.45245 0.48626 0.0
C292 C 0.04254 0.44231 0.62196 0.0
H293 H 0.04545 0.43495 0.28075 0.0
H294 H 0.0444 0.48028 0.45917 0.0
C295 C 0.04256 0.40568 0.65255 0.0
C296 C 0.92472 0.07074 0.19062 0.0
C297 C 0.89725 0.04594 0.21138 0.0
H298 H 0.97538 0.08178 0.10103 0.0
C299 C 0.90215 1.01094 0.16609 0.0
H300 H 0.92127 0.09814 0.22123 0.0
C301 C 0.93282 1.00179 0.09228 0.0
C302 C 0.95945 1.02724 0.06526 0.0
H303 H 0.88107 0.99155 0.1775 0.0
H304 H 0.93474 0.97538 0.04941 0.0
C305 C 0.95575 0.06136 0.12107 0.0
C306 C 0.56375 0.89782 0.14446 0.0
C307 C 0.52911 0.89225 0.19296 0.0
H308 H 0.59849 0.93183 0.0297 0.0
C309 C 0.50388 0.91932 0.17642 0.0
H310 H 0.58339 0.87697 0.15233 0.0
C311 C 0.51268 0.95099 0.11035 0.0
C312 C 0.54656 0.95569 0.05328 0.0
H313 H 0.47668 0.91526 0.20894 0.0
H314 H 0.49207 0.97061 0.09519 0.0
C315 C 0.57228 0.92911 0.07369 0.0
C316 C 0.67353 0.5664 0.14998 0.0
C317 C 0.67922 0.53212 0.20092 0.0
H318 H 0.63944 0.60013 0.03232 0.0
C319 C 0.6523 0.50651 0.18534 0.0
H320 H 0.6943 0.58629 0.15693 0.0
C321 C 0.62062 0.51462 0.11809 0.0
C322 C 0.6158 0.54813 0.05884 0.0
H323 H 0.65655 0.47953 0.21913 0.0
H324 H 0.60112 0.49373 0.10362 0.0
C325 C 0.64225 0.57421 0.07811 0.0
C326 C 0.06375 0.63749 0.25341 0.0
C327 C 0.04256 0.66811 0.26232 0.0
H328 H 0.07234 0.58673 0.16239 0.0
C329 C 1.01202 0.67009 0.18094 0.0
H330 H 0.08811 0.63562 0.31028 0.0
C331 C 1.00353 0.64221 0.09098 0.0
C332 C 1.025 0.6116 0.08277 0.0
H333 H 0.99532 0.69343 0.18406 0.0
H334 H 0.98054 0.64484 0.02613 0.0
C335 C 0.05483 0.60942 0.16721 0.0
C336 C 0.90788 0.23635 0.25762 0.0
C337 C 0.93227 0.26039 0.31574 0.0
H338 H 0.88474 0.18472 0.27863 0.0
C339 C 0.93411 0.26179 0.45743 0.0
H340 H 0.90377 0.23608 0.14953 0.0
C341 C 0.92188 0.23296 0.53269 0.0
C342 C 0.90846 0.20292 0.46539 0.0
H343 H 0.95089 0.281 0.50816 0.0
H344 H 0.92966 0.23118 0.63765 0.0
C345 C 0.89664 0.20688 0.33208 0.0
C346 C 0.34747 0.9023 0.25179 0.0
C347 C 0.32146 0.92425 0.31065 0.0
H348 H 0.40045 0.88304 0.27478 0.0
C349 C 0.31911 0.92492 0.45221 0.0
H350 H 0.34866 0.89919 0.14327 0.0
C351 C 0.34827 0.9142 0.5287 0.0
C352 C 0.37966 0.90408 0.46229 0.0
H353 H 0.29849 0.93988 0.50281 0.0
H354 H 0.34895 0.92132 0.63459 0.0
C355 C 0.37719 0.89269 0.32773 0.0
C356 C 0.63591 0.31176 0.45899 0.0
C357 C 0.63757 0.31297 0.31729 0.0
H358 H 0.63845 0.34315 0.63834 0.0
C359 C 0.66108 0.33778 0.25904 0.0
H360 H 0.62015 0.2918 0.51003 0.0
C361 C 0.67036 0.36822 0.33228 0.0
C362 C 0.658 0.37207 0.46513 0.0
H363 H 0.66527 0.3379 0.15097 0.0
H364 H 0.68113 0.39074 0.278 0.0
C365 C 0.64632 0.34153 0.5334 0.0
C366 C 0.23637 0.65797 0.29719 0.0
C367 C 0.26008 0.63274 0.35037 0.0
H368 H 0.18486 0.68087 0.3232 0.0
C369 C 0.26134 0.62892 0.49146 0.0
H370 H 0.23606 0.66326 0.18989 0.0
C371 C 0.23234 0.63982 0.56878 0.0
C372 C 0.20263 0.65435 0.50398 0.0
H373 H 0.28032 0.61126 0.53829 0.0
H374 H 0.23003 0.62997 0.67099 0.0
C375 C 0.207 0.66835 0.37408 0.0
C376 C 0.13889 0.8049 0.1586 0.0
C377 C 0.14238 0.80777 0.29948 0.0
H378 H 0.143 0.8331 0.97284 0.0
C379 C 0.16775 0.83175 0.35103 0.0
H380 H 0.12067 0.78595 0.11392 0.0
C381 C 0.18029 0.85921 0.26913 0.0
C382 C 0.16761 0.86199 0.13661 0.0
H383 H 0.17247 0.8334 0.45864 0.0
H384 H 0.19357 0.88152 0.31659 0.0
C385 C 0.15198 0.83199 0.07659 0.0
C386 C 0.7433 0.17883 0.40933 0.0
C387 C 0.76433 0.15321 0.34416 0.0
H388 H 0.69268 0.2045 0.4088 0.0
C389 C 0.75975 0.14827 0.20478 0.0
H390 H 0.74724 0.18443 0.51545 0.0
C391 C 0.72817 0.15912 0.14424 0.0
C392 C 0.7018 0.1755 0.22313 0.0
H393 H 0.77646 0.1299 0.14956 0.0
H394 H 0.72213 0.14875 0.04493 0.0
C395 C 0.71181 0.19005 0.34834 0.0
C396 C 0.42264 0.76011 0.20568 0.0
C397 C 0.41887 0.76463 0.34563 0.0
H398 H 0.42066 0.72255 0.04568 0.0
C399 C 0.39331 0.74387 0.41276 0.0
H400 H 0.44076 0.77672 0.14873 0.0
C401 C 0.38135 0.71243 0.35266 0.0
C402 C 0.39513 0.70227 0.22643 0.0
H403 H 0.38844 0.74786 0.51936 0.0
H404 H 0.36709 0.69341 0.41431 0.0
C405 C 0.41103 0.7286 0.14597 0.0
C406 C 0.80774 0.42447 0.21808 0.0
C407 C 0.80322 0.42067 0.35795 0.0
H408 H 0.84502 0.42164 0.05758 0.0
C409 C 0.82335 0.39465 0.42445 0.0
H410 H 0.79162 0.44303 0.16167 0.0
C411 C 0.85432 0.38189 0.36367 0.0
C412 C 0.86476 0.39542 0.23748 0.0
H413 H 0.81932 0.3898 0.53099 0.0
H414 H 0.87291 0.36701 0.42469 0.0
C415 C 0.83883 0.41212 0.1578 0.0
C416 C 1.01449 0.20226 0.92518 0.0
C417 C 1.03037 0.21276 0.04766 0.0
H418 H 1.00577 0.1607 0.78103 0.0
C419 C 0.05307 0.18857 0.11218 0.0
H420 H 0.99633 0.22001 0.87401 0.0
C421 C 0.0581 0.15416 0.05941 0.0
C422 C 0.04065 0.14301 0.94054 0.0
H423 H 0.06502 0.1954 0.20809 0.0
H424 H 0.07458 0.13578 0.11525 0.0
C425 C 1.01966 0.16803 0.87214 0.0
C426 C 0.37098 1.01734 0.92356 0.0
C427 C 0.36086 1.02774 0.05448 0.0
H428 H 0.41267 1.01375 0.7767 0.0
C429 C 0.38606 0.04569 0.13434 0.0
H430 H 0.35264 1.00236 0.86115 0.0
C431 C 0.4209 0.05153 0.08706 0.0
C432 C 0.4316 0.0395 0.95851 0.0
H433 H 0.3796 0.05288 0.23724 0.0
H434 H 0.4399 0.0641 0.154 0.0
C435 C 0.40571 1.0234 0.87587 0.0
C436 C 0.54917 0.37138 0.93949 0.0
C437 C 0.53748 0.36197 0.06947 0.0
H438 H 0.55538 0.41247 0.79221 0.0
C439 C 0.52008 0.38787 0.14727 0.0
H440 H 0.56355 0.35231 0.87849 0.0
C441 C 0.51606 0.42275 0.0988 0.0
C442 C 0.52928 0.43263 0.97111 0.0
H443 H 0.51177 0.38182 0.24922 0.0
H444 H 0.50376 0.44232 0.16392 0.0
C445 C 0.54489 0.4061 0.89059 0.0
C446 C 0.18286 0.51753 0.1632 0.0
C447 C 0.20853 0.53583 0.08707 0.0
H448 H 0.12867 0.49987 0.1777 0.0
C449 C 0.19892 0.54814 0.95828 0.0
H450 H 0.18908 0.50874 0.26439 0.0
C451 C 0.16429 0.54323 0.90843 0.0
C452 C 0.13802 0.52643 0.98709 0.0
H453 H 0.21781 0.5632 0.89881 0.0
H454 H 0.15772 0.5541 0.81052 0.0
C455 C 0.14805 0.51292 0.11401 0.0
C456 C 1.02417 0.87674 0.5182 0.0
C457 C 0.04635 0.85273 0.58628 0.0
H458 H 1.00327 0.92974 0.50862 0.0
C459 C 0.06206 0.8639 0.70811 0.0
H460 H 1.01259 0.8694 0.42214 0.0
C461 C 0.05703 0.89854 0.75759 0.0
C462 C 0.03652 0.92332 0.68558 0.0
H463 H 0.08008 0.84639 0.76116 0.0
H464 H 0.07073 0.90639 0.8487 0.0
C465 C 1.01933 0.91155 0.56717 0.0
C466 C 0.69747 1.03392 0.53004 0.0
C467 C 0.72249 0.05308 0.60662 0.0
H468 H 0.64352 1.01573 0.51183 0.0
C469 C 0.7119 0.06592 0.73396 0.0
H470 H 0.70432 1.02476 0.42978 0.0
C471 C 0.67691 0.06117 0.78077 0.0
C472 C 0.65124 0.04384 0.70075 0.0
H473 H 0.73015 0.08175 0.79364 0.0
H474 H 0.66958 0.07268 0.877 0.0
C475 C 0.66235 1.02937 0.57636 0.0
C476 C 0.53835 0.69571 0.52541 0.0
C477 C 0.51956 0.72099 0.6016 0.0
H478 H 0.55623 0.64174 0.50921 0.0
C479 C 0.507 0.71094 0.72979 0.0
H480 H 0.54731 0.70219 0.4246 0.0
C481 C 0.51172 0.6762 0.77802 0.0
C482 C 0.52873 0.65025 0.69871 0.0
H483 H 0.49152 0.72944 0.7893 0.0
H484 H 0.50047 0.6693 0.87511 0.0
C485 C 0.54288 0.66081 0.57322 0.0
C486 C 0.85909 0.50769 0.74357 0.0
C487 C 0.84928 0.5204 0.61553 0.0
H488 H 0.90061 0.50054 0.88899 0.0
C489 C 0.87494 0.53887 0.53977 0.0
H490 H 0.84026 0.49246 0.80278 0.0
C491 C 0.90994 0.54291 0.58795 0.0
C492 C 0.92024 0.52858 0.71325 0.0
H493 H 0.86862 0.54795 0.43912 0.0
H494 H 0.92932 0.55601 0.52418 0.0
C495 C 0.89393 0.51191 0.79216 0.0
loop_
_geom_bond_atom_site_label_1
_geom_bond_atom_site_label_2
_geom_bond_distance
_geom_bond_site_symmetry_2
_ccdc_geom_bond_type
H0 C5 0.930 . S
H1 C8 0.930 . S
H2 C10 0.930 . S
H3 C4 1.016 . S
C4 H3 1.016 . S
C4 N11 1.286 . S
C5 H0 0.930 . S
C5 C6 1.397 . S
C5 C7 1.361 . S
C6 C5 1.397 . S
C6 C10 1.390 . S
C7 C5 1.361 . S
C7 C8 1.393 . S
C7 N11 1.413 . S
C8 H1 0.930 . S
C8 C7 1.393 . S
C8 C9 1.399 . S
C9 C8 1.399 . S
C9 C10 1.381 . S
C10 H2 0.930 . S
C10 C6 1.390 . S
C10 C9 1.381 . S
N11 C4 1.286 . S
N11 C7 1.413 . S
H12 C17 0.930 . S
H13 C20 0.930 . S
H14 C22 0.930 . S
H15 C16 1.016 . S
C16 H15 1.016 . S
C16 N23 1.286 1_655 S
C17 H12 0.930 . S
C17 C18 1.397 . S
C17 C19 1.361 . S
C18 C17 1.397 . S
C18 C22 1.390 1_455 S
C19 C17 1.361 . S
C19 C20 1.393 . S
C19 N23 1.413 . S
C20 H13 0.930 . S
C20 C19 1.393 . S
C20 C21 1.403 . S
C21 C20 1.403 . S
C21 C22 1.379 1_455 S
C22 H14 0.930 . S
C22 C18 1.390 1_655 S
C22 C21 1.379 1_655 S
N23 C16 1.286 1_455 S
N23 C19 1.413 . S
H24 C29 0.930 . S
H25 C32 0.930 . S
H26 C34 0.930 . S
H27 C28 1.016 . S
C28 H27 1.016 . S
C28 N35 1.286 1_565 S
C29 H24 0.930 . S
C29 C30 1.397 . S
C29 C31 1.361 . S
C30 C29 1.397 . S
C30 C34 1.390 1_545 S
C31 C29 1.361 . S
C31 C32 1.393 . S
C31 N35 1.413 . S
C32 H25 0.930 . S
C32 C31 1.393 . S
C32 C33 1.403 . S
C33 C32 1.403 . S
C33 C34 1.379 1_545 S
C34 H26 0.930 . S
C34 C30 1.390 1_565 S
C34 C33 1.379 1_565 S
N35 C28 1.286 1_545 S
N35 C31 1.413 . S
H36 C41 0.930 . S
H37 C44 0.930 . S
H38 C46 0.930 . S
H39 C40 1.016 . S
C40 H39 1.016 . S
C40 N47 1.286 . S
C41 H36 0.930 . S
C41 C42 1.397 . S
C41 C43 1.361 . S
C42 C41 1.397 . S
C42 C46 1.390 . S
C43 C41 1.361 . S
C43 C44 1.393 . S
C43 N47 1.413 . S
C44 H37 0.930 . S
C44 C43 1.393 . S
C44 C45 1.399 . S
C45 C44 1.399 . S
C45 C46 1.381 . S
C46 H38 0.930 . S
C46 C42 1.390 . S
C46 C45 1.381 . S
N47 C40 1.286 . S
N47 C43 1.413 . S
H48 C53 0.930 . S
H49 C56 0.930 . S
H50 C58 0.930 1_556 S
H51 C52 1.016 . S
C52 H51 1.016 . S
C52 N59 1.286 . S
C53 H48 0.930 . S
C53 C54 1.397 . S
C53 C55 1.361 1_556 S
C54 C53 1.397 . S
C54 C58 1.390 1_556 S
C55 C53 1.361 1_554 S
C55 C56 1.393 . S
C55 N59 1.413 . S
C56 H49 0.930 . S
C56 C55 1.393 . S
C56 C57 1.399 . S
C57 C56 1.399 . S
C57 C58 1.381 . S
C58 H50 0.930 1_554 S
C58 C54 1.390 1_554 S
C58 C57 1.381 . S
N59 C52 1.286 . S
N59 C55 1.413 . S
H60 C65 0.930 . S
H61 C68 0.930 . S
H62 C70 0.930 . S
H63 C64 1.026 . S
C64 H63 1.026 . S
C64 N71 1.272 1_655 S
C65 H60 0.930 . S
C65 C66 1.397 . S
C65 C67 1.361 1_556 S
C66 C65 1.397 . S
C66 C70 1.390 1_456 S
C67 C65 1.361 1_554 S
C67 C68 1.393 . S
C67 N71 1.413 . S
C68 H61 0.930 . S
C68 C67 1.393 . S
C68 C69 1.404 . S
C69 C68 1.404 . S
C69 C70 1.378 1_455 S
C70 H62 0.930 . S
C70 C66 1.390 1_654 S
C70 C69 1.378 1_655 S
N71 C64 1.272 1_455 S
N71 C67 1.413 . S
H72 C77 0.930 . S
H73 C80 0.930 . S
H74 C82 0.930 . S
H75 C76 1.026 . S
C76 H75 1.026 . S
C76 N83 1.272 1_565 S
C77 H72 0.930 . S
C77 C78 1.397 . S
C77 C79 1.361 1_556 S
C78 C77 1.397 . S
C78 C82 1.390 1_546 S
C79 C77 1.361 1_554 S
C79 C80 1.393 . S
C79 N83 1.413 . S
C80 H73 0.930 . S
C80 C79 1.393 . S
C80 C81 1.404 . S
C81 C80 1.404 . S
C81 C82 1.378 1_545 S
C82 H74 0.930 . S
C82 C78 1.390 1_564 S
C82 C81 1.378 1_565 S
N83 C76 1.272 1_545 S
N83 C79 1.413 . S
H84 C89 0.930 . S
H85 C92 0.930 . S
H86 C94 0.930 1_556 S
H87 C88 1.016 . S
C88 H87 1.016 . S
C88 N95 1.286 . S
C89 H84 0.930 . S
C89 C90 1.397 . S
C89 C91 1.361 1_556 S
C90 C89 1.397 . S
C90 C94 1.390 1_556 S
C91 C89 1.361 1_554 S
C91 C92 1.393 . S
C91 N95 1.413 . S
C92 H85 0.930 . S
C92 C91 1.393 . S
C92 C93 1.399 . S
C93 C92 1.399 . S
C93 C94 1.381 . S
C94 H86 0.930 1_554 S
C94 C90 1.390 1_554 S
C94 C93 1.381 . S
N95 C88 1.286 . S
N95 C91 1.413 . S
La96 C98 2.928 1_556 S
La96 O116 2.521 1_556 S
La96 O117 2.628 1_556 S
La96 O118 2.554 . S
La96 O119 2.757 1_565 S
La96 O120 2.470 . S
La96 O125 2.482 1_455 S
La96 O127 2.503 1_565 S
La97 C107 2.928 . S
La97 O119 2.482 1_655 S
La97 O121 2.503 1_545 S
La97 O122 2.521 . S
La97 O123 2.628 . S
La97 O124 2.554 . S
La97 O125 2.757 1_545 S
La97 O126 2.470 . S
C98 La96 2.928 1_554 S
C98 C99 1.503 . S
C98 O116 1.261 . S
C98 O117 1.243 . S
C99 C98 1.503 . S
C99 C100 1.394 . S
C99 C104 1.373 . S
C100 C99 1.394 . S
C100 C101 1.380 . S
C100 H128 0.930 . S
C101 C100 1.380 . S
C101 C102 1.376 . S
C101 H129 0.930 . S
C102 C101 1.376 . S
C102 C103 1.370 . S
C103 C102 1.370 . S
C103 C104 1.396 . S
C103 H130 0.929 . S
C104 C99 1.373 . S
C104 C103 1.396 . S
C104 H131 0.929 1_455 S
C105 O118 1.240 . S
C105 O119 1.289 1_565 S
C106 O120 1.258 1_655 S
C106 O121 1.256 . S
C107 La97 2.928 . S
C107 C108 1.503 . S
C107 O122 1.261 . S
C107 O123 1.243 . S
C108 C107 1.503 . S
C108 C109 1.394 . S
C108 C113 1.373 . S
C109 C108 1.394 . S
C109 C110 1.380 . S
C109 H132 0.930 . S
C110 C109 1.380 . S
C110 C111 1.376 . S
C110 H133 0.930 . S
C111 C110 1.376 . S
C111 C112 1.370 . S
C112 C111 1.370 . S
C112 C113 1.396 . S
C112 H134 0.929 . S
C113 C108 1.373 . S
C113 C112 1.396 . S
C113 H135 0.929 1_655 S
C114 O124 1.240 . S
C114 O125 1.289 1_545 S
C115 O126 1.258 1_455 S
C115 O127 1.256 . S
O116 La96 2.521 1_554 S
O116 C98 1.261 . S
O117 La96 2.628 1_554 S
O117 C98 1.243 . S
O118 La96 2.554 . S
O118 C105 1.240 . S
O119 La96 2.757 1_545 S
O119 La97 2.482 1_455 S
O119 C105 1.289 1_545 S
O120 La96 2.470 . S
O120 C106 1.258 1_455 S
O121 La97 2.503 1_565 S
O121 C106 1.256 . S
O122 La97 2.521 . S
O122 C107 1.261 . S
O123 La97 2.628 . S
O123 C107 1.243 . S
O124 La97 2.554 . S
O124 C114 1.240 . S
O125 La96 2.482 1_655 S
O125 La97 2.757 1_565 S
O125 C114 1.289 1_565 S
O126 La97 2.470 . S
O126 C115 1.258 1_655 S
O127 La96 2.503 1_545 S
O127 C115 1.256 . S
H128 C100 0.930 . S
H129 C101 0.930 . S
H130 C103 0.929 . S
H131 C104 0.929 1_655 S
H132 C109 0.930 . S
H133 C110 0.930 . S
H134 C112 0.929 . S
H135 C113 0.929 1_455 S
La136 C138 2.928 1_556 S
La136 O156 2.521 1_556 S
La136 O157 2.628 1_556 S
La136 O158 2.554 . S
La136 O159 2.757 . S
La136 O160 2.470 . S
La136 O165 2.482 1_545 S
La136 O167 2.503 . S
La137 C147 2.928 . S
La137 O159 2.482 1_565 S
La137 O161 2.503 . S
La137 O162 2.521 . S
La137 O163 2.628 . S
La137 O164 2.554 . S
La137 O165 2.757 . S
La137 O166 2.470 . S
C138 La136 2.928 1_554 S
C138 C139 1.503 . S
C138 O156 1.261 . S
C138 O157 1.243 . S
C139 C138 1.503 . S
C139 C140 1.394 . S
C139 C144 1.373 . S
C140 C139 1.394 . S
C140 C141 1.380 . S
C140 H168 0.930 . S
C141 C140 1.380 . S
C141 C142 1.376 . S
C141 H169 0.930 . S
C142 C141 1.376 . S
C142 C143 1.370 . S
C143 C142 1.370 . S
C143 C144 1.396 . S
C143 H170 0.945 . S
C144 C139 1.373 . S
C144 C143 1.396 . S
C144 H171 0.929 1_545 S
C145 O158 1.240 . S
C145 O159 1.289 . S
C146 O160 1.258 1_565 S
C146 O161 1.256 . S
C147 La137 2.928 . S
C147 C148 1.503 . S
C147 O162 1.261 . S
C147 O163 1.243 . S
C148 C147 1.503 . S
C148 C149 1.394 . S
C148 C153 1.373 . S
C149 C148 1.394 . S
C149 C150 1.380 . S
C149 H172 0.930 . S
C150 C149 1.380 . S
C150 C151 1.376 . S
C150 H173 0.930 . S
C151 C150 1.376 . S
C151 C152 1.370 . S
C152 C151 1.370 . S
C152 C153 1.396 . S
C152 H174 0.938 . S
C153 C148 1.373 . S
C153 C152 1.396 . S
C153 H175 0.929 1_565 S
C154 O164 1.240 . S
C154 O165 1.289 . S
C155 O166 1.258 1_545 S
C155 O167 1.256 . S
O156 La136 2.521 1_554 S
O156 C138 1.261 . S
O157 La136 2.628 1_554 S
O157 C138 1.243 . S
O158 La136 2.554 . S
O158 C145 1.240 . S
O159 La136 2.757 . S
O159 La137 2.482 1_545 S
O159 C145 1.289 . S
O160 La136 2.470 . S
O160 C146 1.258 1_545 S
O161 La137 2.503 . S
O161 C146 1.256 . S
O162 La137 2.521 . S
O162 C147 1.261 . S
O163 La137 2.628 . S
O163 C147 1.243 . S
O164 La137 2.554 . S
O164 C154 1.240 . S
O165 La136 2.482 1_565 S
O165 La137 2.757 . S
O165 C154 1.289 . S
O166 La137 2.470 . S
O166 C155 1.258 1_565 S
O167 La136 2.503 . S
O167 C155 1.256 . S
H168 C140 0.930 . S
H169 C141 0.930 . S
H170 C143 0.945 . S
H171 C144 0.929 1_565 S
H172 C149 0.930 . S
H173 C150 0.930 . S
H174 C152 0.938 . S
H175 C153 0.929 1_545 S
La176 C178 2.928 1_556 S
La176 O196 2.521 1_556 S
La176 O197 2.628 1_556 S
La176 O198 2.554 . S
La176 O199 2.757 . S
La176 O200 2.470 . S
La176 O205 2.482 . S
La176 O207 2.503 . S
La177 C187 2.928 . S
La177 O199 2.482 . S
La177 O201 2.503 . S
La177 O202 2.521 . S
La177 O203 2.628 . S
La177 O204 2.554 . S
La177 O205 2.757 . S
La177 O206 2.470 . S
C178 La176 2.928 1_554 S
C178 C179 1.503 . S
C178 O196 1.261 . S
C178 O197 1.243 . S
C179 C178 1.503 . S
C179 C180 1.394 . S
C179 C184 1.373 . S
C180 C179 1.394 . S
C180 C181 1.380 . S
C180 H208 0.930 . S
C181 C180 1.380 . S
C181 C182 1.376 . S
C181 H209 0.930 . S
C182 C181 1.376 . S
C182 C183 1.370 . S
C183 C182 1.370 . S
C183 C184 1.396 . S
C183 H210 0.929 . S
C184 C179 1.373 . S
C184 C183 1.396 . S
C184 H211 0.929 . S
C185 O198 1.240 . S
C185 O199 1.289 . S
C186 O200 1.258 . S
C186 O201 1.256 . S
C187 La177 2.928 . S
C187 C188 1.503 . S
C187 O202 1.261 . S
C187 O203 1.243 . S
C188 C187 1.503 . S
C188 C189 1.394 . S
C188 C193 1.373 . S
C189 C188 1.394 . S
C189 C190 1.380 . S
C189 H212 0.930 . S
C190 C189 1.380 . S
C190 C191 1.376 . S
C190 H213 0.930 . S
C191 C190 1.376 . S
C191 C192 1.370 . S
C192 C191 1.370 . S
C192 C193 1.396 . S
C192 H214 0.929 . S
C193 C188 1.373 . S
C193 C192 1.396 . S
C193 H215 0.929 . S
C194 O204 1.240 . S
C194 O205 1.289 . S
C195 O206 1.258 . S
C195 O207 1.256 . S
O196 La176 2.521 1_554 S
O196 C178 1.261 . S
O197 La176 2.628 1_554 S
O197 C178 1.243 . S
O198 La176 2.554 . S
O198 C185 1.240 . S
O199 La176 2.757 . S
O199 La177 2.482 . S
O199 C185 1.289 . S
O200 La176 2.470 . S
O200 C186 1.258 . S
O201 La177 2.503 . S
O201 C186 1.256 . S
O202 La177 2.521 . S
O202 C187 1.261 . S
O203 La177 2.628 . S
O203 C187 1.243 . S
O204 La177 2.554 . S
O204 C194 1.240 . S
O205 La176 2.482 . S
O205 La177 2.757 . S
O205 C194 1.289 . S
O206 La177 2.470 . S
O206 C195 1.258 . S
O207 La176 2.503 . S
O207 C195 1.256 . S
H208 C180 0.930 . S
H209 C181 0.930 . S
H210 C183 0.929 . S
H211 C184 0.929 . S
H212 C189 0.930 . S
H213 C190 0.930 . S
H214 C192 0.929 . S
H215 C193 0.929 . S
La216 C218 2.928 1_556 S
La216 O236 2.521 1_556 S
La216 O237 2.628 1_556 S
La216 O238 2.554 . S
La216 O239 2.757 1_655 S
La216 O240 2.470 . S
La216 O245 2.482 . S
La216 O247 2.503 1_655 S
La217 C227 2.928 . S
La217 O239 2.482 . S
La217 O241 2.503 1_455 S
La217 O242 2.521 . S
La217 O243 2.628 . S
La217 O244 2.554 . S
La217 O245 2.757 1_455 S
La217 O246 2.470 . S
C218 La216 2.928 1_554 S
C218 C219 1.503 . S
C218 O236 1.261 . S
C218 O237 1.243 . S
C219 C218 1.503 . S
C219 C220 1.394 . S
C219 C224 1.373 . S
C220 C219 1.394 . S
C220 C221 1.380 . S
C220 H248 0.930 . S
C221 C220 1.380 . S
C221 C222 1.376 . S
C221 H249 0.930 . S
C222 C221 1.376 . S
C222 C223 1.370 . S
C223 C222 1.370 . S
C223 C224 1.396 . S
C223 H250 0.929 . S
C224 C219 1.373 . S
C224 C223 1.396 . S
C224 H251 0.929 . S
C225 O238 1.247 . S
C225 O239 1.285 1_655 S
C226 O240 1.258 . S
C226 O241 1.256 . S
C227 La217 2.928 . S
C227 C228 1.503 . S
C227 O242 1.261 . S
C227 O243 1.243 . S
C228 C227 1.503 . S
C228 C229 1.394 . S
C228 C233 1.373 . S
C229 C228 1.394 . S
C229 C230 1.380 . S
C229 H252 0.930 . S
C230 C229 1.380 . S
C230 C231 1.376 . S
C230 H253 0.930 . S
C231 C230 1.376 . S
C231 C232 1.370 . S
C232 C231 1.370 . S
C232 C233 1.396 . S
C232 H254 0.929 . S
C233 C228 1.373 . S
C233 C232 1.396 . S
C233 H255 0.929 . S
C234 O244 1.251 . S
C234 O245 1.283 1_455 S
C235 O246 1.258 . S
C235 O247 1.256 . S
O236 La216 2.521 1_554 S
O236 C218 1.261 . S
O237 La216 2.628 1_554 S
O237 C218 1.243 . S
O238 La216 2.554 . S
O238 C225 1.247 . S
O239 La216 2.757 1_455 S
O239 La217 2.482 . S
O239 C225 1.285 1_455 S
O240 La216 2.470 . S
O240 C226 1.258 . S
O241 La217 2.503 1_655 S
O241 C226 1.256 . S
O242 La217 2.521 . S
O242 C227 1.261 . S
O243 La217 2.628 . S
O243 C227 1.243 . S
O244 La217 2.554 . S
O244 C234 1.251 . S
O245 La216 2.482 . S
O245 La217 2.757 1_655 S
O245 C234 1.283 1_655 S
O246 La217 2.470 . S
O246 C235 1.258 . S
O247 La216 2.503 1_455 S
O247 C235 1.256 . S
H248 C220 0.930 . S
H249 C221 0.930 . S
H250 C223 0.929 . S
H251 C224 0.929 . S
H252 C229 0.930 . S
H253 C230 0.930 . S
H254 C232 0.929 . S
H255 C233 0.929 . S
C256 C257 1.381 1_565 S
C256 H260 0.950 . S
C256 C265 1.390 . S
C257 C256 1.381 1_545 S
C257 C259 1.394 . S
H258 C265 0.950 . S
C259 C257 1.394 . S
C259 C261 1.390 . S
C259 H263 0.950 . S
H260 C256 0.950 . S
C261 C259 1.390 . S
C261 C262 1.406 . S
C261 H264 0.950 . S
C262 C261 1.406 . S
C262 C265 1.368 1_545 S
H263 C259 0.950 . S
H264 C261 0.950 . S
C265 C256 1.390 . S
C265 H258 0.950 . S
C265 C262 1.368 1_565 S
C266 C267 1.387 . S
C266 H270 0.950 . S
C266 C275 1.390 . S
C267 C266 1.387 . S
C267 C269 1.387 . S
H268 C275 0.950 . S
C269 C267 1.387 . S
C269 C271 1.390 . S
C269 H273 0.950 . S
H270 C266 0.950 . S
C271 C269 1.390 . S
C271 C272 1.387 . S
C271 H274 0.950 . S
C272 C271 1.387 . S
C272 C275 1.387 . S
H273 C269 0.950 . S
H274 C271 0.950 . S
C275 C266 1.390 . S
C275 H268 0.950 . S
C275 C272 1.387 . S
C276 C277 1.387 . S
C276 H280 0.950 . S
C276 C285 1.390 . S
C277 C276 1.387 . S
C277 C279 1.387 . S
H278 C285 0.950 . S
C279 C277 1.387 . S
C279 C281 1.390 . S
C279 H283 0.950 . S
H280 C276 0.950 . S
C281 C279 1.390 . S
C281 C282 1.387 . S
C281 H284 0.950 . S
C282 C281 1.387 . S
C282 C285 1.387 . S
H283 C279 0.950 . S
H284 C281 0.950 . S
C285 C276 1.390 . S
C285 H278 0.950 . S
C285 C282 1.387 . S
C286 C287 1.409 . S
C286 H290 0.950 . S
C286 C295 1.390 . S
C287 C286 1.409 . S
C287 C289 1.367 1_455 S
H288 C295 0.950 . S
C289 C287 1.367 1_655 S
C289 C291 1.390 . S
C289 H293 0.950 . S
H290 C286 0.950 . S
C291 C289 1.390 . S
C291 C292 1.387 1_655 S
C291 H294 0.950 . S
C292 C291 1.387 1_455 S
C292 C295 1.387 . S
H293 C289 0.950 . S
H294 C291 0.950 . S
C295 C286 1.390 . S
C295 H288 0.950 . S
C295 C292 1.387 . S
C296 C297 1.388 1_545 S
C296 H300 0.950 . S
C296 C305 1.390 . S
C297 C296 1.388 1_565 S
C297 C299 1.387 . S
H298 C305 0.950 . S
C299 C297 1.387 . S
C299 C301 1.390 . S
C299 H303 0.950 . S
H300 C296 0.950 . S
C301 C299 1.390 . S
C301 C302 1.399 . S
C301 H304 0.950 . S
C302 C301 1.399 . S
C302 C305 1.375 1_565 S
H303 C299 0.950 . S
H304 C301 0.950 . S
C305 C296 1.390 . S
C305 H298 0.950 . S
C305 C302 1.375 1_545 S
C306 C307 1.387 . S
C306 H310 0.950 . S
C306 C315 1.390 . S
C307 C306 1.387 . S
C307 C309 1.387 . S
H308 C315 0.950 . S
C309 C307 1.387 . S
C309 C311 1.390 . S
C309 H313 0.950 . S
H310 C306 0.950 . S
C311 C309 1.390 . S
C311 C312 1.387 . S
C311 H314 0.950 . S
C312 C311 1.387 . S
C312 C315 1.387 . S
H313 C309 0.950 . S
H314 C311 0.950 . S
C315 C306 1.390 . S
C315 H308 0.950 . S
C315 C312 1.387 . S
C316 C317 1.387 . S
C316 H320 0.950 . S
C316 C325 1.390 . S
C317 C316 1.387 . S
C317 C319 1.387 . S
H318 C325 0.950 . S
C319 C317 1.387 . S
C319 C321 1.390 . S
C319 H323 0.950 . S
H320 C316 0.950 . S
C321 C319 1.390 . S
C321 C322 1.387 . S
C321 H324 0.950 . S
C322 C321 1.387 . S
C322 C325 1.387 . S
H323 C319 0.950 . S
H324 C321 0.950 . S
C325 C316 1.390 . S
C325 H318 0.950 . S
C325 C322 1.387 . S
C326 C327 1.381 1_455 S
C326 H330 0.950 . S
C326 C335 1.390 . S
C327 C326 1.381 1_655 S
C327 C329 1.395 . S
H328 C335 0.950 . S
C329 C327 1.395 . S
C329 C331 1.390 . S
C329 H333 0.950 . S
H330 C326 0.950 . S
C331 C329 1.390 . S
C331 C332 1.387 . S
C331 H334 0.950 . S
C332 C331 1.387 . S
C332 C335 1.387 1_655 S
H333 C329 0.950 . S
H334 C331 0.950 . S
C335 C326 1.390 . S
C335 H328 0.950 . S
C335 C332 1.387 1_455 S
C336 C337 1.387 . S
C336 H340 0.950 . S
C336 C345 1.390 . S
C337 C336 1.387 . S
C337 C339 1.387 . S
H338 C345 0.950 . S
C339 C337 1.387 . S
C339 C341 1.390 . S
C339 H343 0.950 1_655 S
H340 C336 0.950 . S
C341 C339 1.390 . S
C341 C342 1.387 . S
C341 H344 0.950 . S
C342 C341 1.387 . S
C342 C345 1.387 . S
H343 C339 0.950 1_455 S
H344 C341 0.950 . S
C345 C336 1.390 . S
C345 H338 0.950 . S
C345 C342 1.387 . S
C346 C347 1.387 . S
C346 H350 0.950 . S
C346 C355 1.390 . S
C347 C346 1.387 . S
C347 C349 1.387 . S
H348 C355 0.950 . S
C349 C347 1.387 . S
C349 C351 1.390 . S
C349 H353 0.950 1_565 S
H350 C346 0.950 . S
C351 C349 1.390 . S
C351 C352 1.387 . S
C351 H354 0.950 . S
C352 C351 1.387 . S
C352 C355 1.387 . S
H353 C349 0.950 1_545 S
H354 C351 0.950 . S
C355 C346 1.390 . S
C355 H348 0.950 . S
C355 C352 1.387 . S
C356 C357 1.387 . S
C356 H360 0.950 . S
C356 C365 1.390 . S
C357 C356 1.387 . S
C357 C359 1.387 . S
H358 C365 0.950 . S
C359 C357 1.387 . S
C359 C361 1.390 . S
C359 H363 0.950 . S
H360 C356 0.950 . S
C361 C359 1.390 . S
C361 C362 1.387 . S
C361 H364 0.950 . S
C362 C361 1.387 . S
C362 C365 1.387 . S
H363 C359 0.950 . S
H364 C361 0.950 . S
C365 C356 1.390 . S
C365 H358 0.950 . S
C365 C362 1.387 . S
C366 C367 1.387 . S
C366 H370 0.950 . S
C366 C375 1.390 . S
C367 C366 1.387 . S
C367 C369 1.387 . S
H368 C375 0.950 . S
C369 C367 1.387 . S
C369 C371 1.390 . S
C369 H373 0.950 . S
H370 C366 0.950 . S
C371 C369 1.390 . S
C371 C372 1.387 . S
C371 H374 0.950 . S
C372 C371 1.387 . S
C372 C375 1.387 . S
H373 C369 0.950 . S
H374 C371 0.950 . S
C375 C366 1.390 . S
C375 H368 0.950 . S
C375 C372 1.387 . S
C376 C377 1.387 . S
C376 H380 0.939 1_455 S
C376 C385 1.390 . S
C377 C376 1.387 . S
C377 C379 1.387 . S
H378 C385 0.950 . S
C379 C377 1.387 . S
C379 C381 1.390 . S
C379 H383 0.950 . S
H380 C376 0.939 1_655 S
C381 C379 1.390 . S
C381 C382 1.387 . S
C381 H384 0.950 . S
C382 C381 1.387 . S
C382 C385 1.387 . S
H383 C379 0.950 . S
H384 C381 0.950 . S
C385 C376 1.390 . S
C385 H378 0.950 . S
C385 C382 1.387 . S
C386 C387 1.387 . S
C386 H390 0.950 . S
C386 C395 1.390 . S
C387 C386 1.387 . S
C387 C389 1.387 1_545 S
H388 C395 0.950 . S
C389 C387 1.387 1_565 S
C389 C391 1.390 1_565 S
C389 H393 0.950 . S
H390 C386 0.950 . S
C391 C389 1.390 1_545 S
C391 C392 1.387 . S
C391 H394 0.950 . S
C392 C391 1.387 . S
C392 C395 1.387 . S
H393 C389 0.950 . S
H394 C391 0.950 . S
C395 C386 1.390 . S
C395 H388 0.950 . S
C395 C392 1.387 . S
C396 C397 1.387 . S
C396 H400 0.950 . S
C396 C405 1.390 . S
C397 C396 1.387 . S
C397 C399 1.387 . S
H398 C405 0.950 . S
C399 C397 1.387 . S
C399 C401 1.390 . S
C399 H403 0.950 . S
H400 C396 0.950 . S
C401 C399 1.390 . S
C401 C402 1.387 . S
C401 H404 0.950 . S
C402 C401 1.387 . S
C402 C405 1.387 . S
H403 C399 0.950 . S
H404 C401 0.950 . S
C405 C396 1.390 . S
C405 H398 0.950 . S
C405 C402 1.387 . S
C406 C407 1.387 . S
C406 H410 0.950 . S
C406 C415 1.390 . S
C407 C406 1.387 . S
C407 C409 1.387 . S
H408 C415 0.950 . S
C409 C407 1.387 . S
C409 C411 1.390 . S
C409 H413 0.950 . S
H410 C406 0.950 . S
C411 C409 1.390 . S
C411 C412 1.387 . S
C411 H414 0.950 . S
C412 C411 1.387 . S
C412 C415 1.387 . S
H413 C409 0.950 . S
H414 C411 0.950 . S
C415 C406 1.390 . S
C415 H408 0.950 . S
C415 C412 1.387 . S
C416 C417 1.387 . S
C416 H420 0.950 . S
C416 C425 1.390 . S
C417 C416 1.387 . S
C417 C419 1.387 . S
H418 C425 0.950 . S
C419 C417 1.387 . S
C419 C421 1.390 . S
C419 H423 0.950 1_456 S
H420 C416 0.950 . S
C421 C419 1.390 . S
C421 C422 1.387 . S
C421 H424 0.954 1_556 S
C422 C421 1.387 . S
C422 C425 1.387 . S
H423 C419 0.950 1_654 S
H424 C421 0.954 1_554 S
C425 C416 1.390 . S
C425 H418 0.950 . S
C425 C422 1.387 . S
C426 C427 1.387 . S
C426 H430 0.950 1_545 S
C426 C435 1.390 . S
C427 C426 1.387 . S
C427 C429 1.387 . S
H428 C435 0.950 . S
C429 C427 1.387 . S
C429 C431 1.390 . S
C429 H433 0.950 1_556 S
H430 C426 0.950 1_565 S
C431 C429 1.390 . S
C431 C432 1.387 . S
C431 H434 0.950 1_556 S
C432 C431 1.387 . S
C432 C435 1.387 . S
H433 C429 0.950 1_554 S
H434 C431 0.950 1_554 S
C435 C426 1.390 . S
C435 H428 0.950 . S
C435 C432 1.387 . S
C436 C437 1.387 . S
C436 H440 0.950 . S
C436 C445 1.390 . S
C437 C436 1.387 . S
C437 C439 1.387 . S
H438 C445 0.950 . S
C439 C437 1.387 . S
C439 C441 1.390 . S
C439 H443 0.950 1_556 S
H440 C436 0.950 . S
C441 C439 1.390 . S
C441 C442 1.387 . S
C441 H444 0.950 1_556 S
C442 C441 1.387 . S
C442 C445 1.387 . S
H443 C439 0.950 1_554 S
H444 C441 0.950 1_554 S
C445 C436 1.390 . S
C445 H438 0.950 . S
C445 C442 1.387 . S
C446 C447 1.387 . S
C446 H450 0.950 . S
C446 C455 1.390 . S
C447 C446 1.387 . S
C447 C449 1.387 . S
H448 C455 0.950 . S
C449 C447 1.387 . S
C449 C451 1.390 . S
C449 H453 0.950 1_556 S
H450 C446 0.950 . S
C451 C449 1.390 . S
C451 C452 1.387 . S
C451 H454 0.950 1_556 S
C452 C451 1.387 . S
C452 C455 1.387 . S
H453 C449 0.950 1_554 S
H454 C451 0.950 1_554 S
C455 C446 1.390 . S
C455 H448 0.950 . S
C455 C452 1.387 . S
C456 C457 1.387 . S
C456 H460 0.950 . S
C456 C465 1.390 . S
C457 C456 1.387 . S
C457 C459 1.387 1_655 S
H458 C465 0.950 . S
C459 C457 1.387 1_455 S
C459 C461 1.390 . S
C459 H463 0.950 . S
H460 C456 0.950 . S
C461 C459 1.390 . S
C461 C462 1.387 1_455 S
C461 H464 0.950 . S
C462 C461 1.387 1_655 S
C462 C465 1.387 . S
H463 C459 0.950 . S
H464 C461 0.950 . S
C465 C456 1.390 . S
C465 H458 0.950 . S
C465 C462 1.387 . S
C466 C467 1.387 . S
C466 H470 0.950 . S
C466 C475 1.390 . S
C467 C466 1.387 . S
C467 C469 1.387 1_565 S
H468 C475 0.950 . S
C469 C467 1.387 1_545 S
C469 C471 1.390 . S
C469 H473 0.950 . S
H470 C466 0.950 . S
C471 C469 1.390 . S
C471 C472 1.387 1_545 S
C471 H474 0.950 . S
C472 C471 1.387 1_565 S
C472 C475 1.387 . S
H473 C469 0.950 . S
H474 C471 0.950 . S
C475 C466 1.390 . S
C475 H468 0.950 . S
C475 C472 1.387 . S
C476 C477 1.387 . S
C476 H480 0.950 . S
C476 C485 1.390 . S
C477 C476 1.387 . S
C477 C479 1.387 . S
H478 C485 0.950 . S
C479 C477 1.387 . S
C479 C481 1.390 . S
C479 H483 0.950 . S
H480 C476 0.950 . S
C481 C479 1.390 . S
C481 C482 1.387 . S
C481 H484 0.950 . S
C482 C481 1.387 . S
C482 C485 1.387 . S
H483 C479 0.950 . S
H484 C481 0.950 . S
C485 C476 1.390 . S
C485 H478 0.950 . S
C485 C482 1.387 . S
C486 C487 1.387 . S
C486 H490 0.950 . S
C486 C495 1.390 . S
C487 C486 1.387 . S
C487 C489 1.387 . S
H488 C495 0.950 . S
C489 C487 1.387 . S
C489 C491 1.390 . S
C489 H493 0.950 . S
H490 C486 0.950 . S
C491 C489 1.390 . S
C491 C492 1.387 . S
C491 H494 0.950 . S
C492 C491 1.387 . S
C492 C495 1.387 . S
H493 C489 0.950 . S
H494 C491 0.950 . S
C495 C486 1.390 . S
C495 H488 0.950 . S
C495 C492 1.387 . S
C257 C76 1.937 1_545 S
C262 C105 2.223 1_545 S
C272 C145 2.243 . S
C267 C88 1.957 . S
C282 C185 2.254 . S
C277 C52 1.974 . S
C292 C225 2.236 1_455 S
C287 C64 1.948 1_455 S
C302 C114 2.226 1_564 S
C297 C28 1.937 . S
C307 C40 1.955 . S
C312 C154 2.245 1_554 S
C317 C4 1.968 . S
C322 C194 2.253 1_554 S
C327 C16 1.949 . S
C332 C234 2.237 1_654 S
C342 C111 0.829 . S
C337 C69 0.840 1_655 S
C352 C151 0.827 . S
C347 C81 0.838 1_565 S
C362 C191 0.825 . S
C357 C93 0.835 . S
C367 C57 0.834 . S
C372 C231 0.814 . S
C377 C21 0.840 . S
C382 C102 0.832 . S
C392 C142 0.833 . S
C387 C33 0.839 . S
C402 C182 0.818 . S
C397 C45 0.825 . S
C407 C9 0.826 . S
C412 C222 0.820 . S
C417 C66 2.280 . S
C422 C115 2.596 . S
C427 C78 2.239 . S
C432 C155 2.559 . S
C442 C195 2.545 . S
C437 C90 2.223 . S
C452 C235 2.587 . S
C447 C54 2.261 . S
C457 C18 2.289 1_655 S
C462 C106 2.604 . S
C472 C146 2.558 . S
C467 C30 2.250 1_565 S
C482 C186 2.544 . S
C477 C42 2.242 . S
C487 C6 2.283 . S
C492 C226 2.590 . S
