# Generated by pormake.
# Topology zzz, (3,6)-cn, num edge types: 1
# Building blocks:
#     Node 0, Type 0, BuildingBlock: VETTIZ_charged_linker_0, # of connection points: 3
#     Node 1, Type 0, BuildingBlock: VETTIZ_charged_linker_0, # of connection points: 3
#     Node 2, Type 0, BuildingBlock: VETTIZ_charged_linker_0, # of connection points: 3
#     Node 3, Type 0, BuildingBlock: VETTIZ_charged_linker_0, # of connection points: 3
#     Node 4, Type 0, BuildingBlock: VETTIZ_charged_linker_0, # of connection points: 3
#     Node 5, Type 0, BuildingBlock: VETTIZ_charged_linker_0, # of connection points: 3
#     Node 6, Type 0, BuildingBlock: VETTIZ_charged_linker_0, # of connection points: 3
#     Node 7, Type 0, BuildingBlock: VETTIZ_charged_linker_0, # of connection points: 3
#     Node 8, Type 1, BuildingBlock: VOLQOD_clean_sbu_1, # of connection points: 6
#     Node 9, Type 1, BuildingBlock: VOLQOD_clean_sbu_1, # of connection points: 6
#     Node 10, Type 1, BuildingBlock: VOLQOD_clean_sbu_1, # of connection points: 6
#     Node 11, Type 1, BuildingBlock: VOLQOD_clean_sbu_1, # of connection points: 6
#     Edge 12, Type (0, 1), None
#     Edge 13, Type (0, 1), None
#     Edge 14, Type (0, 1), None
#     Edge 15, Type (0, 1), None
#     Edge 16, Type (0, 1), None
#     Edge 17, Type (0, 1), None
#     Edge 18, Type (0, 1), None
#     Edge 19, Type (0, 1), None
#     Edge 20, Type (0, 1), None
#     Edge 21, Type (0, 1), None
#     Edge 22, Type (0, 1), None
#     Edge 23, Type (0, 1), None
#     Edge 24, Type (0, 1), None
#     Edge 25, Type (0, 1), None
#     Edge 26, Type (0, 1), None
#     Edge 27, Type (0, 1), None
#     Edge 28, Type (0, 1), None
#     Edge 29, Type (0, 1), None
#     Edge 30, Type (0, 1), None
#     Edge 31, Type (0, 1), None
#     Edge 32, Type (0, 1), None
#     Edge 33, Type (0, 1), None
#     Edge 34, Type (0, 1), None
#     Edge 35, Type (0, 1), None
# Relax obj value: 0.366
# Max RMSD: 0.260
# Mean RMSD: 0.211
data_MOF--net-zzz--node1-VOLQOD_clean_sbu_1--node2-VETTIZ_charged_linker_0--edge1-none
_symmetry_space_group_name_H-M    P1
_symmetry_Int_Tables_number       1
_symmetry_cell_setting            triclinic
loop_
_symmetry_equiv_pos_as_xyz
'x, y, z'
_cell_length_a     31.405818
_cell_length_b     31.130513
_cell_length_c     12.503284
_cell_angle_alpha  90.304768
_cell_angle_beta   89.893646
_cell_angle_gamma 92.458599
loop_
_atom_site_label
_atom_site_type_symbol
_atom_site_fract_x
_atom_site_fract_y
_atom_site_fract_z
_atom_type_partial_charge
C0 C 0.87295 0.54272 0.45006 0.0
C1 C 0.91462 0.56302 0.45398 0.0
C2 C 0.92814 0.5898 0.36867 0.0
C3 C 0.86952 0.5613 0.26551 0.0
C4 C 0.84899 0.5457 0.35444 0.0
C5 C 0.80583 0.5253 0.32011 0.0
H6 H 0.69334 0.45093 0.87857 0.0
C7 C 0.85096 0.53998 0.17299 0.0
C8 C 0.80843 0.52896 0.19704 0.0
H9 H 0.6469 0.55572 0.06744 0.0
H10 H 0.7136 0.55732 0.17413 0.0
H11 H 0.76985 0.50003 0.83134 0.0
H12 H 0.75875 0.40058 0.07113 0.0
H13 H 0.80343 0.3928 0.98786 0.0
H14 H 0.75081 0.39075 0.93064 0.0
H15 H 0.76876 0.44406 0.79551 0.0
H16 H 0.81757 0.47315 0.83126 0.0
C17 C 0.76937 0.55112 0.3658 0.0
C18 C 0.80158 0.47801 0.35579 0.0
C19 C 0.95848 0.44839 0.99088 0.0
C20 C 0.95636 0.42797 0.89074 0.0
C21 C 0.9162 0.41284 0.85231 0.0
C22 C 0.87875 0.42502 0.9036 0.0
C23 C 0.8821 0.45429 0.98959 0.0
C24 C 0.92166 0.46559 0.03153 0.0
C25 C 0.92053 0.50149 0.11193 0.0
C26 C 0.87338 0.51113 0.10779 0.0
C27 C 0.85099 0.48123 0.0427 0.0
C28 C 0.94986 0.54033 0.07632 0.0
C29 C 0.93395 0.48323 0.22092 0.0
C30 C 0.69597 0.47277 0.94627 0.0
C31 C 0.66409 0.50204 0.96687 0.0
C32 C 0.67044 0.53212 0.05152 0.0
C33 C 0.70813 0.53263 0.11402 0.0
C34 C 0.7395 0.50313 0.09055 0.0
C35 C 0.73379 0.47504 1.00499 0.0
C36 C 0.77495 0.4563 0.96947 0.0
C37 C 0.80603 0.47938 0.0445 0.0
C38 C 0.78479 0.50339 0.12144 0.0
C39 C 0.78339 0.46856 0.85069 0.0
C40 C 0.77204 0.40741 0.99013 0.0
H41 H 0.91866 0.60477 0.20259 0.0
H42 H 0.8611 0.52303 0.51563 0.0
H43 H 0.82851 0.45962 0.32421 0.0
H44 H 0.77133 0.46259 0.32563 0.0
H45 H 0.80148 0.47574 0.44444 0.0
H46 H 0.771 0.58455 0.33471 0.0
H47 H 0.7713 0.55258 0.45451 0.0
H48 H 0.73802 0.53573 0.34393 0.0
H49 H 0.98886 0.45878 0.02527 0.0
H50 H 0.91364 0.39595 0.77646 0.0
H51 H 0.84892 0.41465 0.8682 0.0
H52 H 0.97618 0.53104 0.02289 0.0
H53 H 0.96587 0.5564 0.14558 0.0
H54 H 0.93165 0.56434 0.03198 0.0
H55 H 0.91104 0.45718 0.24744 0.0
H56 H 0.93578 0.50808 0.28392 0.0
H57 H 0.96613 0.46985 0.2155 0.0
H58 H 0.95889 0.60681 0.37123 0.0
C59 C 0.90595 0.58815 0.27211 0.0
C60 C 0.10784 0.87779 0.87795 0.0
C61 C 0.10506 0.92151 0.90558 0.0
C62 C 0.1157 0.93542 0.00973 0.0
C63 C 0.11204 0.86168 0.06395 0.0
C64 C 0.11233 0.84793 0.95995 0.0
C65 C 0.10877 0.7995 0.95343 0.0
H66 H 0.99814 0.63212 0.05041 0.0
C67 C 0.09627 0.82637 0.13026 0.0
C68 C 0.10084 0.78833 0.07215 0.0
H69 H 0.11734 0.64088 0.87476 0.0
H70 H 0.14 0.70382 0.98236 0.0
H71 H 0.04664 0.68284 0.32166 0.0
H72 H 0.97915 0.74337 0.06338 0.0
H73 H 0.95945 0.74362 0.19869 0.0
H74 H 0.95504 0.69507 0.12058 0.0
H75 H 1.00234 0.65207 0.26399 0.0
H76 H 0.9935 0.70038 0.33875 0.0
C77 C 0.15115 0.78347 0.90841 0.0
C78 C 0.07046 0.78531 0.88196 0.0
C79 C 0.97161 0.86667 0.35617 0.0
C80 C 0.97239 0.85934 0.46707 0.0
C81 C 0.9865 0.819 0.50165 0.0
C82 C 1.00323 0.7895 0.4265 0.0
C83 C 1.00921 0.80225 0.31913 0.0
C84 C 0.99838 0.84324 0.29145 0.0
C85 C 0.03118 0.86422 0.21766 0.0
C86 C 0.0623 0.82806 0.20475 0.0
C87 C 0.04395 0.79003 0.24718 0.0
C88 C 0.05223 0.90538 0.2698 0.0
C89 C 1.00891 0.87442 0.11136 0.0
C90 C 0.02872 0.64804 0.03365 0.0
C91 C 0.05558 0.63251 0.9513 0.0
C92 C 0.09572 0.65318 0.93409 0.0
C93 C 0.10826 0.68994 0.99168 0.0
C94 C 0.07922 0.70792 0.06083 0.0
C95 C 0.04209 0.68598 0.09036 0.0
C96 C 0.01973 0.71118 0.17811 0.0
C97 C 0.05043 0.75065 0.192 0.0
C98 C 0.08211 0.7496 0.113 0.0
C99 C 0.01537 0.68505 0.28164 0.0
C100 C 0.97579 0.7241 0.13781 0.0
H101 H 0.12701 0.91476 0.17136 0.0
H102 H 0.10134 0.86702 0.79691 0.0
H103 H 0.06605 0.74989 0.87791 0.0
H104 H 0.07534 0.79644 0.79845 0.0
H105 H 0.04052 0.79855 0.91322 0.0
H106 H 0.16599 0.80686 0.85103 0.0
H107 H 0.1462 0.75332 0.86172 0.0
H108 H 0.17451 0.77859 0.97345 0.0
H109 H 0.96131 0.897 0.32542 0.0
H110 H 0.98825 0.81199 0.5862 0.0
H111 H 0.01701 0.76044 0.45504 0.0
H112 H 0.03118 0.92191 0.32593 0.0
H113 H 0.05996 0.93047 0.2096 0.0
H114 H 0.0812 0.89782 0.31577 0.0
H115 H 0.99497 0.84457 0.07375 0.0
H116 H 0.03132 0.88991 0.05343 0.0
H117 H 0.98286 0.89686 0.12539 0.0
H118 H 0.11508 0.96912 0.03118 0.0
C119 C 0.12046 0.90482 0.09005 0.0
C120 C 0.86439 0.98721 0.01938 0.0
C121 C 0.87521 0.99544 0.9106 0.0
C122 C 0.84379 0.01003 0.84169 0.0
C123 C 0.79379 0.01406 0.98775 0.0
C124 C 0.8226 0.99603 0.05606 0.0
C125 C 0.80322 0.99063 0.16791 0.0
H126 H 0.64148 0.04218 0.50681 0.0
C127 C 0.75587 0.02567 0.04896 0.0
C128 C 0.75904 0.00955 0.15317 0.0
H129 H 0.68461 0.91359 0.48201 0.0
H130 H 0.73126 0.9356 0.33262 0.0
H131 H 0.70762 0.11291 0.36499 0.0
H132 H 0.61211 0.01228 0.31639 0.0
H133 H 0.61376 0.03806 0.19413 0.0
H134 H 0.59852 0.06728 0.31286 0.0
H135 H 0.65244 0.11292 0.40401 0.0
H136 H 0.66884 0.129 0.2716 0.0
C137 C 0.82983 0.01718 0.24992 0.0
C138 C 0.80103 0.94268 0.19765 0.0
C139 C 0.63771 0.09892 0.86412 0.0
C140 C 0.59561 0.09973 0.90132 0.0
C141 C 0.58854 0.10862 0.01003 0.0
C142 C 0.62228 0.10654 0.08311 0.0
C143 C 0.66158 0.09188 0.04659 0.0
C144 C 0.6697 0.09091 0.93796 0.0
C145 C 0.7102 0.06895 0.91188 0.0
C146 C 0.7228 0.05328 0.02153 0.0
C147 C 0.69439 0.06677 0.09992 0.0
C148 C 0.74235 0.10363 0.86734 0.0
C149 C 0.69964 0.0305 0.83455 0.0
C150 C 0.66457 0.01994 0.47753 0.0
C151 C 0.66187 0.97723 0.51223 0.0
C152 C 0.68815 0.94736 0.46195 0.0
C153 C 0.71573 0.96023 0.37667 0.0
C154 C 0.71571 1.00276 0.33831 0.0
C155 C 0.68666 0.03015 0.38307 0.0
C156 C 0.66844 0.05884 0.29972 0.0
C157 C 0.69631 0.0495 0.20433 0.0
C158 C 0.72627 0.01873 0.22909 0.0
C159 C 0.67442 0.10609 0.33688 0.0
C160 C 0.62087 0.04389 0.27975 0.0
H161 H 0.78233 0.0321 0.82191 0.0
H162 H 0.888 0.97595 0.07435 0.0
H163 H 0.7742 0.92527 0.15589 0.0
H164 H 0.79766 0.93846 0.28518 0.0
H165 H 0.83104 0.9272 0.17524 0.0
H166 H 0.83282 0.0515 0.22568 0.0
H167 H 0.86235 1.00475 0.25692 0.0
H168 H 0.81447 0.01555 0.33002 0.0
H169 H 0.64361 0.09295 0.77994 0.0
H170 H 0.55637 0.11097 0.0402 0.0
H171 H 0.61529 0.11161 0.16605 0.0
H172 H 0.73736 0.13566 0.90414 0.0
H173 H 0.73879 0.10706 0.77947 0.0
H174 H 0.77584 0.09716 0.88596 0.0
H175 H 0.72016 1.00295 0.84636 0.0
H176 H 0.70156 0.0406 0.74954 0.0
H177 H 0.66695 0.01653 0.84897 0.0
H178 H 0.85106 0.0162 0.75816 0.0
C179 C 0.8037 0.0196 0.87932 0.0
C180 C 0.57164 0.67929 0.49881 0.0
C181 C 0.59357 0.63997 0.50081 0.0
C182 C 0.61976 0.63006 0.41265 0.0
C183 C 0.58485 0.68249 0.3108 0.0
C184 C 0.57082 0.70242 0.40103 0.0
C185 C 0.54703 0.74204 0.36654 0.0
H186 H 0.46838 0.83465 0.90709 0.0
C187 C 0.56014 0.69624 0.22107 0.0
C188 C 0.54798 0.73795 0.24322 0.0
H189 H 0.57595 0.89505 0.07275 0.0
H190 H 0.576 0.83333 0.19826 0.0
H191 H 0.51422 0.75651 0.88011 0.0
H192 H 0.41817 0.77801 0.12051 0.0
H193 H 0.4084 0.72702 0.06068 0.0
H194 H 0.40628 0.7748 0.98013 0.0
H195 H 0.4587 0.7583 0.84689 0.0
H196 H 0.48191 0.70967 0.88972 0.0
C197 C 0.57102 0.78336 0.40419 0.0
C198 C 0.50102 0.7399 0.40987 0.0
C199 C 0.47496 0.5727 0.05046 0.0
C200 C 0.45234 0.5729 0.95429 0.0
C201 C 0.43072 0.60985 0.92655 0.0
C202 C 0.43947 0.64862 0.98149 0.0
C203 C 0.47195 0.65003 0.05886 0.0
C204 C 0.48859 0.61221 0.09397 0.0
C205 C 0.52572 0.6197 0.16837 0.0
C206 C 0.53069 0.6686 0.16483 0.0
C207 C 0.49752 0.68587 0.10647 0.0
C208 C 0.56588 0.59754 0.12607 0.0
C209 C 0.51168 0.60303 0.27946 0.0
C210 C 0.49088 0.83612 0.97273 0.0
C211 C 0.52147 0.87025 0.98098 0.0
C212 C 0.55173 0.86942 0.065 0.0
C213 C 0.55141 0.83467 0.1381 0.0
C214 C 0.52081 0.80075 0.12615 0.0
C215 C 0.49214 0.80123 0.04228 0.0
C216 C 0.47148 0.75753 0.02087 0.0
C217 C 0.49433 0.73091 0.10195 0.0
C218 C 0.51955 0.75695 0.17086 0.0
C219 C 0.48163 0.74457 0.90351 0.0
C220 C 0.42341 0.75919 0.04608 0.0
H221 H 0.62977 0.63927 0.24369 0.0
H222 H 0.55207 0.6886 0.56566 0.0
H223 H 0.48397 0.70961 0.38375 0.0
H224 H 0.48315 0.76744 0.37994 0.0
H225 H 0.50085 0.74119 0.49869 0.0
H226 H 0.6037 0.78557 0.36973 0.0
H227 H 0.57369 0.78388 0.49283 0.0
H228 H 0.55383 0.81209 0.37921 0.0
H229 H 0.49023 0.54375 0.07482 0.0
H230 H 0.4122 0.61032 0.85356 0.0
H231 H 0.42458 0.67676 0.95309 0.0
H232 H 0.5583 0.56951 0.07348 0.0
H233 H 0.58471 0.58459 0.1925 0.0
H234 H 0.58662 0.62015 0.07863 0.0
H235 H 0.48347 0.62001 0.30902 0.0
H236 H 0.53727 0.60771 0.33889 0.0
H237 H 0.5032 0.56801 0.27591 0.0
H238 H 0.63846 0.60159 0.41358 0.0
C239 C 0.6142 0.65049 0.31509 0.0
C240 C 0.39848 0.5032 0.32477 0.0
C241 C 0.41083 0.51313 0.43165 0.0
C242 C 0.38584 0.54067 0.49225 0.0
C243 C 0.33579 0.54576 0.3474 0.0
C244 C 0.35985 0.51918 0.28481 0.0
C245 C 0.33832 0.51052 0.17681 0.0
H246 H 0.18161 0.57085 0.83394 0.0
C247 C 0.29817 0.55799 0.28693 0.0
C248 C 0.29821 0.53707 0.18691 0.0
H249 H 0.21934 0.44054 0.85987 0.0
H250 H 0.267 0.46151 0.00822 0.0
H251 H 0.15242 0.54024 0.02715 0.0
H252 H 0.24716 0.64017 0.968 0.0
H253 H 0.21016 0.65799 0.06401 0.0
H254 H 0.1916 0.63992 0.93457 0.0
H255 H 0.13875 0.59477 0.03641 0.0
H256 H 0.15617 0.56529 0.15101 0.0
C257 C 0.32825 0.46178 0.16401 0.0
C258 C 0.36726 0.52775 0.08611 0.0
C259 C 0.17789 0.62759 0.47121 0.0
C260 C 0.13602 0.62704 0.43198 0.0
C261 C 0.12952 0.6357 0.32336 0.0
C262 C 0.16408 0.63658 0.25242 0.0
C263 C 0.20375 0.62364 0.28957 0.0
C264 C 0.21124 0.62256 0.39834 0.0
C265 C 0.2533 0.60339 0.42375 0.0
C266 C 0.26595 0.58679 0.31404 0.0
C267 C 0.23701 0.5989 0.23626 0.0
C268 C 0.24559 0.56599 0.50476 0.0
C269 C 0.28418 0.64031 0.46379 0.0
C270 C 0.20368 0.5478 0.86351 0.0
C271 C 0.19922 0.50505 0.82958 0.0
C272 C 0.22408 0.47426 0.88015 0.0
C273 C 0.25219 0.48648 0.96501 0.0
C274 C 0.25383 0.52925 1.00304 0.0
C275 C 0.22615 0.55757 0.9576 0.0
C276 C 0.20886 0.58721 0.04035 0.0
C277 C 0.23756 0.5792 0.13396 0.0
C278 C 0.26558 0.54626 0.11122 0.0
C279 C 0.16178 0.57163 0.06495 0.0
C280 C 0.2144 0.63394 0.99992 0.0
H281 H 0.33207 0.57798 0.50224 0.0
H282 H 0.41757 0.48302 0.27507 0.0
H283 H 0.37573 0.56245 0.09882 0.0
H284 H 0.35087 0.52406 0.00771 0.0
H285 H 0.39711 0.50986 0.08263 0.0
H286 H 0.29733 0.45218 0.20218 0.0
H287 H 0.3533 0.4426 0.20104 0.0
H288 H 0.32779 0.45201 0.07874 0.0
H289 H 0.1832 0.62158 0.55535 0.0
H290 H 0.09768 0.6353 0.29066 0.0
H291 H 0.1575 0.64194 0.16973 0.0
H292 H 0.21573 0.54708 0.48513 0.0
H293 H 0.24264 0.57842 0.58777 0.0
H294 H 0.27057 0.54221 0.50396 0.0
H295 H 0.27341 0.67253 0.44037 0.0
H296 H 0.31643 0.63848 0.4282 0.0
H297 H 0.28692 0.64031 0.55234 0.0
H298 H 0.39491 0.54972 0.57322 0.0
C299 C 0.34921 0.55743 0.45053 0.0
C300 C 1.00872 0.13702 0.51553 0.0
C301 C 0.99827 0.09547 0.47492 0.0
C302 C 0.02491 0.07791 0.39738 0.0
C303 C 0.06592 0.14378 0.38619 0.0
C304 C 0.04252 0.16124 0.4677 0.0
C305 C 0.05297 0.20877 0.47835 0.0
H306 H 0.05238 0.39215 0.24448 0.0
C307 C 0.08314 0.17842 0.31826 0.0
C308 C 0.07711 0.21677 0.37294 0.0
H309 H 0.10369 0.36739 0.55918 0.0
H310 H 0.11205 0.29235 0.50861 0.0
H311 H 0.1272 0.31829 0.11165 0.0
H312 H 0.99472 0.29236 0.20397 0.0
H313 H 1.0086 0.28394 0.06712 0.0
H314 H 1.00839 0.3376 0.11948 0.0
H315 H 0.08699 0.354 0.06855 0.0
H316 H 0.08979 0.30143 0.00935 0.0
C317 C 0.08156 0.21624 0.57772 0.0
C318 C 1.01173 0.23402 0.48627 0.0
C319 C 0.09718 0.13907 0.92967 0.0
C320 C 0.06868 0.14899 0.84901 0.0
C321 C 0.04873 0.18901 0.85522 0.0
C322 C 0.05619 0.21734 0.94344 0.0
C323 C 0.08001 0.20345 0.03108 0.0
C324 C 0.09671 0.16285 0.02491 0.0
C325 C 0.09443 0.14089 0.13102 0.0
C326 C 0.08626 0.17847 0.20475 0.0
C327 C 0.0784 0.21597 0.14648 0.0
C328 C 0.13765 0.121 0.15464 0.0
C329 C 0.0556 0.10738 0.12642 0.0
C330 C 0.06452 0.37035 0.30311 0.0
C331 C 0.07536 0.38502 0.40827 0.0
C332 C 0.09334 0.35647 0.48055 0.0
C333 C 0.09665 0.31331 0.4542 0.0
C334 C 0.08094 0.29857 0.35617 0.0
C335 C 0.06958 0.32636 0.27719 0.0
C336 C 0.06311 0.30161 0.1714 0.0
C337 C 0.07401 0.25565 0.20408 0.0
C338 C 0.07959 0.25526 0.315 0.0
C339 C 0.09355 0.31987 0.08507 0.0
C340 C 0.01609 0.30394 0.13821 0.0
H341 H 0.08258 0.08512 0.30982 0.0
H342 H 0.98882 0.15137 0.57547 0.0
H343 H 0.9909 0.22712 0.41591 0.0
H344 H 0.01887 0.26915 0.49021 0.0
H345 H 0.9937 0.22545 0.56014 0.0
H346 H 0.11583 0.21349 0.5575 0.0
H347 H 0.07374 0.19211 0.64039 0.0
H348 H 0.07681 0.24802 0.61537 0.0
H349 H 0.10992 0.10724 0.93144 0.0
H350 H 0.02571 0.19726 0.79513 0.0
H351 H 0.03962 0.2468 0.94659 0.0
H352 H 0.16445 0.14441 0.13691 0.0
H353 H 0.14181 0.09185 0.10475 0.0
H354 H 0.14088 0.1121 0.2397 0.0
H355 H 0.03927 0.10515 0.04778 0.0
H356 H 0.02948 0.11621 0.18097 0.0
H357 H 0.06529 0.07419 0.14226 0.0
H358 H 0.01622 0.0479 0.358 0.0
C359 C 0.06138 0.10038 0.36286 0.0
C360 C 0.33288 1.00688 0.87664 0.0
C361 C 0.37228 0.03145 0.86952 0.0
C362 C 0.3822 0.06234 0.94998 0.0
C363 C 0.32679 0.03015 0.05792 0.0
C364 C 0.30847 0.0098 0.97164 0.0
C365 C 0.26703 0.98668 0.0081 0.0
H366 H 0.16224 0.95415 0.49838 0.0
C367 C 0.30913 0.01078 0.15385 0.0
C368 C 0.26753 0.99589 0.12981 0.0
H369 H 0.10584 0.02451 0.24255 0.0
H370 H 0.17079 0.0167 0.13311 0.0
H371 H 0.20507 0.87982 0.31608 0.0
H372 H 0.25536 0.99137 0.49218 0.0
H373 H 0.28625 0.9458 0.51265 0.0
H374 H 0.23249 0.94448 0.55781 0.0
H375 H 0.21252 0.87853 0.4584 0.0
H376 H 0.25596 0.87005 0.36697 0.0
C377 C 0.268 0.93812 0.98408 0.0
C378 C 0.22867 1.00623 0.95361 0.0
C379 C 0.42082 0.9249 0.33666 0.0
C380 C 0.41932 0.90102 0.43152 0.0
C381 C 0.37943 0.88425 0.46791 0.0
C382 C 0.34162 0.89727 0.4205 0.0
C383 C 0.34421 0.92867 0.34018 0.0
C384 C 0.38336 0.94141 0.29824 0.0
C385 C 0.38101 0.97845 0.22243 0.0
C386 C 0.3331 0.98497 0.2229 0.0
C387 C 0.31209 0.95481 0.28959 0.0
C388 C 0.39855 0.96432 0.11274 0.0
C389 C 0.40667 0.01756 0.26944 0.0
C390 C 0.16334 0.96729 0.41834 0.0
C391 C 0.13003 0.99188 0.38131 0.0
C392 C 0.1319 0.00734 0.275 0.0
C393 C 0.1685 1.00198 0.21096 0.0
C394 C 0.20163 0.97799 0.25089 0.0
C395 C 0.19842 0.96033 0.35206 0.0
C396 C 0.23804 0.93794 0.38256 0.0
C397 C 0.26717 0.9514 0.29051 0.0
C398 C 0.24477 0.97138 0.20871 0.0
C399 C 0.22759 0.88896 0.38183 0.0
C400 C 0.25405 0.9556 0.49214 0.0
H401 H 0.36945 0.08196 0.11212 0.0
H402 H 0.3233 0.98428 0.81422 0.0
H403 H 0.22623 0.04058 0.97672 0.0
H404 H 0.19867 0.98843 0.97641 0.0
H405 H 0.23188 1.00428 0.86519 0.0
H406 H 0.2961 0.92407 0.02235 0.0
H407 H 0.26968 0.93213 0.89652 0.0
H408 H 0.23875 0.92109 0.01525 0.0
H409 H 0.45095 0.93728 0.30469 0.0
H410 H 0.37733 0.86514 0.54004 0.0
H411 H 0.31203 0.88581 0.45503 0.0
H412 H 0.37587 0.9411 0.07254 0.0
H413 H 0.4295 0.94871 0.12144 0.0
H414 H 0.40508 0.99189 0.05947 0.0
H415 H 0.44016 0.00967 0.28572 0.0
H416 H 0.39222 0.0284 0.34568 0.0
H417 H 0.40854 0.04481 0.21394 0.0
H418 H 0.41078 0.083 0.94489 0.0
C419 C 0.35972 0.06113 0.0465 0.0
C420 C 0.50591 0.31384 0.89325 0.0
C421 C 0.4831 0.35131 0.86764 0.0
C422 C 0.44514 0.35874 0.92524 0.0
C423 C 0.46368 0.30571 0.05242 0.0
C424 C 0.49305 0.28928 0.98443 0.0
C425 C 0.51077 0.24909 0.03583 0.0
H426 H 0.53452 0.14492 0.51392 0.0
C427 C 0.46951 0.28852 0.15823 0.0
C428 C 0.48891 0.24893 0.14691 0.0
H429 H 0.48695 0.0742 0.23827 0.0
H430 H 0.48339 0.14284 0.13804 0.0
H431 H 0.59349 0.21421 0.4141 0.0
H432 H 0.46398 0.20337 0.50811 0.0
H433 H 0.48098 0.25594 0.5441 0.0
H434 H 0.50872 0.21118 0.5964 0.0
H435 H 0.5773 0.23512 0.54011 0.0
H436 H 0.58144 0.26875 0.423 0.0
C437 C 0.55958 0.25402 0.04632 0.0
C438 C 0.49779 0.20901 0.96951 0.0
C439 C 0.53113 0.40458 0.40078 0.0
C440 C 0.55884 0.40114 0.48822 0.0
C441 C 0.5586 0.36259 0.54607 0.0
C442 C 0.53456 0.32672 0.51057 0.0
C443 C 0.51215 0.32892 0.41383 0.0
C444 C 0.5086 0.3678 0.36324 0.0
C445 C 0.48582 0.36317 0.25749 0.0
C446 C 0.47889 0.31409 0.25052 0.0
C447 C 0.49628 0.29497 0.34059 0.0
C448 C 0.51555 0.38185 0.16837 0.0
C449 C 0.44379 0.3868 0.26463 0.0
C450 C 0.52468 0.14332 0.43085 0.0
C451 C 0.51077 0.10427 0.38482 0.0
C452 C 0.49807 0.10395 0.27587 0.0
C453 C 0.49675 0.14314 0.21752 0.0
C454 C 0.50928 0.18217 0.26836 0.0
C455 C 0.52175 0.18134 0.37442 0.0
C456 C 0.52368 0.22469 0.42618 0.0
C457 C 0.50662 0.25139 0.33694 0.0
C458 C 0.50186 0.22773 0.2417 0.0
C459 C 0.57121 0.23645 0.45276 0.0
C460 C 0.49309 0.22401 0.52438 0.0
H461 H 0.40887 0.34458 0.06827 0.0
H462 H 0.53378 0.30559 0.84776 0.0
H463 H 0.46268 0.20283 0.97156 0.0
H464 H 0.51351 0.18036 1.00021 0.0
H465 H 0.50781 0.21336 0.88479 0.0
H466 H 0.56887 0.28357 0.0925 0.0
H467 H 0.57486 0.25615 0.9662 0.0
H468 H 0.57218 0.22593 0.08856 0.0
H469 H 0.52983 0.43443 0.35722 0.0
H470 H 0.57903 0.35921 0.61493 0.0
H471 H 0.53671 0.29796 0.55634 0.0
H472 H 0.54448 0.36269 0.16032 0.0
H473 H 0.5258 0.41575 0.18489 0.0
H474 H 0.49975 0.38288 0.09012 0.0
H475 H 0.44908 0.41837 0.30517 0.0
H476 H 0.4194 0.36786 0.31113 0.0
H477 H 0.43083 0.39379 0.1848 0.0
H478 H 0.42541 0.38525 0.90544 0.0
C479 C 0.43572 0.33632 0.01932 0.0
O480 O 0.10409 0.01296 0.55205 0.0
Zn481 Zn 0.06946 0.02215 0.6883 0.0
O482 O 1.00883 1.00496 0.66661 0.0
Zn483 Zn 0.97557 0.05422 0.71912 0.0
Zn484 Zn 0.99971 0.9934 0.51409 0.0
Zn485 Zn 0.98956 0.95093 0.74064 0.0
O486 O 0.93221 0.03249 0.82717 0.0
O487 O 0.93626 0.96135 0.83703 0.0
O488 O 0.07768 0.08422 0.74818 0.0
O489 O 1.01188 0.10416 0.78019 0.0
O490 O 0.94339 0.07916 0.59656 0.0
O491 O 0.95402 0.03315 0.47076 0.0
O492 O 0.97659 0.93444 0.4879 0.0
O493 O 0.0942 0.98158 0.7947 0.0
O494 O 0.97867 0.89792 0.6379 0.0
O495 O 0.03977 0.93457 0.8266 0.0
C496 C 0.09478 1.00136 0.45649 0.0
C497 C 0.91903 0.9963 0.86511 0.0
C498 C 0.95837 0.07161 0.50455 0.0
C499 C 0.05198 0.11222 0.78175 0.0
C500 C 0.97284 0.89888 0.53692 0.0
C501 C 0.07844 0.94783 0.83932 0.0
O502 O 0.0562 0.9937 0.42867 0.0
O503 O 0.49504 0.07552 0.55527 0.0
Zn504 Zn 0.49385 0.04615 0.69824 0.0
O505 O 0.51309 0.98705 0.68114 0.0
Zn506 Zn 0.46659 0.94826 0.73038 0.0
Zn507 Zn 0.52686 0.97673 0.52932 0.0
Zn508 Zn 0.56441 0.97635 0.76495 0.0
O509 O 0.48696 0.90925 0.84602 0.0
O510 O 0.55508 0.92753 0.8762 0.0
O511 O 0.43467 0.04827 0.76625 0.0
O512 O 0.41618 0.97961 0.79135 0.0
O513 O 0.44282 0.91474 0.60628 0.0
O514 O 0.48747 0.93019 0.4725 0.0
O515 O 0.58848 0.96273 0.5072 0.0
O516 O 0.53501 0.0816 0.79228 0.0
O517 O 0.61762 0.97043 0.6678 0.0
O518 O 0.57783 0.0304 0.84413 0.0
C519 C 0.5061 0.06712 0.45937 0.0
C520 C 0.52139 0.90463 0.89795 0.0
C521 C 0.45381 0.91098 0.50876 0.0
C522 C 0.40776 0.01919 0.7982 0.0
C523 C 0.62129 0.96433 0.56708 0.0
C524 C 0.56628 0.0691 0.84678 0.0
O525 O 0.51922 0.0302 0.43428 0.0
O526 O 0.4437 0.48551 0.584 0.0
Zn527 Zn 0.48079 0.47737 0.71367 0.0
O528 O 0.54015 0.49547 0.68408 0.0
Zn529 Zn 0.57507 0.44722 0.72966 0.0
Zn530 Zn 0.54374 0.50897 0.5292 0.0
Zn531 Zn 0.56063 0.54835 0.76166 0.0
O532 O 0.61626 0.46669 0.84536 0.0
O533 O 0.60905 0.53674 0.86898 0.0
O534 O 0.47504 0.41622 0.77087 0.0
O535 O 0.54062 0.39361 0.78662 0.0
O536 O 0.61 0.4352 0.60018 0.0
O537 O 0.58697 0.47119 0.46485 0.0
O538 O 0.56636 0.56894 0.5092 0.0
O539 O 0.45711 0.51593 0.82786 0.0
O540 O 0.57801 0.60094 0.66559 0.0
O541 O 0.51109 0.56448 0.8467 0.0
C542 C 0.44887 0.49698 0.48683 0.0
C543 C 0.62686 0.50189 0.89276 0.0
C544 C 0.59157 0.43526 0.50986 0.0
C545 C 0.50043 0.3872 0.7981 0.0
C546 C 0.57799 0.60199 0.56362 0.0
C547 C 0.47345 0.55034 0.8685 0.0
O548 O 0.48607 0.50594 0.44999 0.0
O549 O 0.97452 0.57833 0.56607 0.0
Zn550 Zn 0.03306 0.57647 0.63749 0.0
O551 O 0.05162 0.51681 0.65147 0.0
Zn552 Zn 0.06454 0.50554 0.80167 0.0
Zn553 Zn 1.00621 0.47752 0.59415 0.0
Zn554 Zn 0.10402 0.50645 0.57389 0.0
O555 O 0.12562 0.48919 0.82878 0.0
O556 O 0.15611 0.50355 0.67298 0.0
O557 O 0.03287 0.60746 0.78183 0.0
O558 O 0.05744 0.55969 0.89453 0.0
O559 O 0.02372 0.45976 0.85352 0.0
O560 O 0.98009 0.44503 0.71713 0.0
O561 O 0.02925 0.4342 0.48689 0.0
O562 O 0.07605 0.6102 0.54418 0.0
O563 O 0.09842 0.45219 0.48156 0.0
O564 O 0.11692 0.55792 0.48587 0.0
C565 C 0.94853 0.54956 0.52764 0.0
C566 C 0.15906 0.49373 0.77144 0.0
C567 C 0.99052 0.44054 0.8147 0.0
C568 C 0.04373 0.59696 0.87613 0.0
C569 C 0.06667 0.42813 0.45142 0.0
C570 C 0.10625 0.59694 0.48609 0.0
O571 O 0.95745 0.50995 0.52851 0.0
loop_
_geom_bond_atom_site_label_1
_geom_bond_atom_site_label_2
_geom_bond_distance
_geom_bond_site_symmetry_2
_ccdc_geom_bond_type
C0 C1 1.391 . S
C0 C4 1.391 . S
C0 H42 0.948 . S
C1 C0 1.391 . S
C1 C2 1.391 . S
C2 C1 1.391 . S
C2 H58 0.947 . S
C2 C59 1.392 . S
C3 C4 1.391 . S
C3 C7 1.397 . S
C3 C59 1.419 . S
C4 C0 1.391 . S
C4 C3 1.391 . S
C4 C5 1.399 . S
C5 C4 1.399 . S
C5 C8 1.396 . S
C5 C17 1.453 . S
C5 C18 1.684 . S
H6 C30 0.948 . S
C7 C3 1.397 . S
C7 C8 1.394 . S
C7 C26 1.723 . S
C8 C5 1.396 . S
C8 C7 1.394 . S
C8 C38 1.723 . S
H9 C32 0.947 . S
H10 C33 0.948 . S
H11 C39 0.982 . S
H12 C40 0.979 . S
H13 C40 0.980 . S
H14 C40 0.983 . S
H15 C39 0.979 . S
H16 C39 0.977 . S
C17 C5 1.453 . S
C17 H46 0.982 . S
C17 H47 0.979 . S
C17 H48 0.977 . S
C18 C5 1.684 . S
C18 H43 0.979 . S
C18 H44 0.980 . S
C18 H45 0.983 . S
C19 C20 1.391 . S
C19 C24 1.391 . S
C19 H49 0.948 . S
C20 C19 1.391 . S
C20 C21 1.391 . S
C21 C20 1.391 . S
C21 C22 1.392 . S
C21 H50 0.947 . S
C22 C21 1.392 . S
C22 C23 1.419 . S
C22 H51 0.948 . S
C23 C22 1.419 . S
C23 C24 1.391 . S
C23 C27 1.397 . S
C24 C19 1.391 . S
C24 C23 1.391 . S
C24 C25 1.399 . S
C25 C24 1.399 . S
C25 C26 1.396 1_556 S
C25 C28 1.453 1_556 S
C25 C29 1.684 1_556 S
C26 C7 1.723 . S
C26 C25 1.396 1_554 S
C26 C27 1.394 1_554 S
C27 C23 1.397 . S
C27 C26 1.394 1_556 S
C27 C37 1.723 . S
C28 C25 1.453 1_554 S
C28 H52 0.982 . S
C28 H53 0.979 . S
C28 H54 0.977 . S
C29 C25 1.684 1_554 S
C29 H55 0.979 . S
C29 H56 0.980 . S
C29 H57 0.983 . S
C30 H6 0.948 . S
C30 C31 1.391 . S
C30 C35 1.391 . S
C31 C30 1.391 . S
C31 C32 1.391 1_556 S
C32 H9 0.947 . S
C32 C31 1.391 1_554 S
C32 C33 1.392 . S
C33 H10 0.948 . S
C33 C32 1.392 . S
C33 C34 1.419 . S
C34 C33 1.419 . S
C34 C35 1.391 1_554 S
C34 C38 1.397 . S
C35 C30 1.391 . S
C35 C34 1.391 1_556 S
C35 C36 1.399 . S
C36 C35 1.399 . S
C36 C37 1.396 . S
C36 C39 1.453 . S
C36 C40 1.684 . S
C37 C27 1.723 . S
C37 C36 1.396 . S
C37 C38 1.394 1_556 S
C38 C8 1.723 . S
C38 C34 1.397 . S
C38 C37 1.394 1_554 S
C39 H11 0.982 . S
C39 H15 0.979 . S
C39 H16 0.977 . S
C39 C36 1.453 . S
C40 H12 0.979 . S
C40 H13 0.980 . S
C40 H14 0.983 . S
C40 C36 1.684 . S
H41 C59 0.948 . S
H42 C0 0.948 . S
H43 C18 0.979 . S
H44 C18 0.980 . S
H45 C18 0.983 . S
H46 C17 0.982 . S
H47 C17 0.979 . S
H48 C17 0.977 . S
H49 C19 0.948 . S
H50 C21 0.947 . S
H51 C22 0.948 . S
H52 C28 0.982 . S
H53 C28 0.979 . S
H54 C28 0.977 . S
H55 C29 0.979 . S
H56 C29 0.980 . S
H57 C29 0.983 . S
H58 C2 0.947 . S
C59 C2 1.392 . S
C59 C3 1.419 . S
C59 H41 0.948 . S
C60 C61 1.391 . S
C60 C64 1.391 . S
C60 H102 0.948 . S
C61 C60 1.391 . S
C61 C62 1.391 . S
C62 C61 1.391 . S
C62 H118 0.947 . S
C62 C119 1.392 . S
C63 C64 1.391 . S
C63 C67 1.397 1_556 S
C63 C119 1.419 . S
C64 C60 1.391 . S
C64 C63 1.391 . S
C64 C65 1.399 . S
C65 C64 1.399 . S
C65 C68 1.396 . S
C65 C77 1.453 1_655 S
C65 C78 1.684 . S
H66 C90 0.948 . S
C67 C63 1.397 1_554 S
C67 C68 1.394 1_554 S
C67 C86 1.723 . S
C68 C65 1.396 . S
C68 C67 1.394 1_556 S
C68 C98 1.723 1_556 S
H69 C92 0.947 . S
H70 C93 0.948 . S
H71 C99 0.982 . S
H72 C100 0.979 . S
H73 C100 0.980 . S
H74 C100 0.983 . S
H75 C99 0.979 . S
H76 C99 0.977 . S
C77 C65 1.453 1_455 S
C77 H106 0.982 . S
C77 H107 0.979 . S
C77 H108 0.977 . S
C78 C65 1.684 . S
C78 H103 0.979 . S
C78 H104 0.980 . S
C78 H105 0.983 . S
C79 C80 1.391 . S
C79 C84 1.391 . S
C79 H109 0.948 . S
C80 C79 1.391 . S
C80 C81 1.391 . S
C81 C80 1.391 . S
C81 C82 1.392 . S
C81 H110 0.947 . S
C82 C81 1.392 . S
C82 C83 1.419 . S
C82 H111 0.948 . S
C83 C82 1.419 . S
C83 C84 1.391 . S
C83 C87 1.397 . S
C84 C79 1.391 . S
C84 C83 1.391 . S
C84 C85 1.399 . S
C85 C84 1.399 . S
C85 C86 1.396 . S
C85 C88 1.453 1_655 S
C85 C89 1.684 . S
C86 C67 1.723 . S
C86 C85 1.396 . S
C86 C87 1.394 . S
C87 C83 1.397 . S
C87 C86 1.394 . S
C87 C97 1.723 . S
C88 C85 1.453 1_455 S
C88 H112 0.982 . S
C88 H113 0.979 . S
C88 H114 0.977 . S
C89 C85 1.684 . S
C89 H115 0.979 . S
C89 H116 0.980 . S
C89 H117 0.983 . S
C90 H66 0.948 . S
C90 C91 1.391 1_554 S
C90 C95 1.391 . S
C91 C90 1.391 1_556 S
C91 C92 1.391 . S
C92 H69 0.947 . S
C92 C91 1.391 . S
C92 C93 1.392 . S
C93 H70 0.948 . S
C93 C92 1.392 . S
C93 C94 1.419 1_556 S
C94 C93 1.419 1_554 S
C94 C95 1.391 . S
C94 C98 1.397 . S
C95 C90 1.391 . S
C95 C94 1.391 . S
C95 C96 1.399 . S
C96 C95 1.399 . S
C96 C97 1.396 . S
C96 C99 1.453 1_655 S
C96 C100 1.684 . S
C97 C87 1.723 . S
C97 C96 1.396 . S
C97 C98 1.394 . S
C98 C68 1.723 1_554 S
C98 C94 1.397 . S
C98 C97 1.394 . S
C99 H71 0.982 . S
C99 H75 0.979 . S
C99 H76 0.977 . S
C99 C96 1.453 1_455 S
C100 H72 0.979 . S
C100 H73 0.980 . S
C100 H74 0.983 . S
C100 C96 1.684 . S
H101 C119 0.948 1_554 S
H102 C60 0.948 . S
H103 C78 0.979 . S
H104 C78 0.980 . S
H105 C78 0.983 . S
H106 C77 0.982 . S
H107 C77 0.979 . S
H108 C77 0.977 . S
H109 C79 0.948 . S
H110 C81 0.947 . S
H111 C82 0.948 . S
H112 C88 0.982 . S
H113 C88 0.979 . S
H114 C88 0.977 . S
H115 C89 0.979 . S
H116 C89 0.980 . S
H117 C89 0.983 . S
H118 C62 0.947 . S
C119 C62 1.392 . S
C119 C63 1.419 . S
C119 H101 0.948 1_556 S
C120 C121 1.391 1_554 S
C120 C124 1.391 . S
C120 H162 0.948 . S
C121 C120 1.391 1_556 S
C121 C122 1.391 . S
C122 C121 1.391 . S
C122 H178 0.947 . S
C122 C179 1.392 . S
C123 C124 1.391 1_556 S
C123 C127 1.397 1_566 S
C123 C179 1.419 . S
C124 C120 1.391 . S
C124 C123 1.391 1_554 S
C124 C125 1.399 . S
C125 C124 1.399 . S
C125 C128 1.396 1_565 S
C125 C137 1.453 1_565 S
C125 C138 1.684 . S
H126 C150 0.948 . S
C127 C123 1.397 1_544 S
C127 C128 1.394 . S
C127 C146 1.723 1_554 S
C128 C125 1.396 1_545 S
C128 C127 1.394 . S
C128 C158 1.723 . S
H129 C152 0.947 . S
H130 C153 0.948 . S
H131 C159 0.982 . S
H132 C160 0.979 . S
H133 C160 0.980 . S
H134 C160 0.983 . S
H135 C159 0.979 . S
H136 C159 0.977 . S
C137 C125 1.453 1_545 S
C137 H166 0.982 . S
C137 H167 0.979 . S
C137 H168 0.977 . S
C138 C125 1.684 . S
C138 H163 0.979 . S
C138 H164 0.980 . S
C138 H165 0.983 . S
C139 C140 1.391 . S
C139 C144 1.391 . S
C139 H169 0.948 . S
C140 C139 1.391 . S
C140 C141 1.391 . S
C141 C140 1.391 . S
C141 C142 1.392 . S
C141 H170 0.947 . S
C142 C141 1.392 . S
C142 C143 1.419 . S
C142 H171 0.948 1_556 S
C143 C142 1.419 . S
C143 C144 1.391 . S
C143 C147 1.397 1_565 S
C144 C139 1.391 . S
C144 C143 1.391 . S
C144 C145 1.399 . S
C145 C144 1.399 . S
C145 C146 1.396 1_565 S
C145 C148 1.453 1_565 S
C145 C149 1.684 . S
C146 C127 1.723 1_556 S
C146 C145 1.396 1_545 S
C146 C147 1.394 . S
C147 C143 1.397 1_545 S
C147 C146 1.394 . S
C147 C157 1.723 1_556 S
C148 C145 1.453 1_545 S
C148 H172 0.982 . S
C148 H173 0.979 . S
C148 H174 0.977 . S
C149 C145 1.684 . S
C149 H175 0.979 . S
C149 H176 0.980 . S
C149 H177 0.983 . S
C150 H126 0.948 . S
C150 C151 1.391 . S
C150 C155 1.391 . S
C151 C150 1.391 . S
C151 C152 1.391 . S
C152 H129 0.947 . S
C152 C151 1.391 . S
C152 C153 1.392 . S
C153 H130 0.948 . S
C153 C152 1.392 . S
C153 C154 1.419 . S
C154 C153 1.419 . S
C154 C155 1.391 . S
C154 C158 1.397 1_565 S
C155 C150 1.391 . S
C155 C154 1.391 . S
C155 C156 1.399 . S
C156 C155 1.399 . S
C156 C157 1.396 1_565 S
C156 C159 1.453 1_565 S
C156 C160 1.684 . S
C157 C147 1.723 1_554 S
C157 C156 1.396 1_545 S
C157 C158 1.394 . S
C158 C128 1.723 . S
C158 C154 1.397 1_545 S
C158 C157 1.394 . S
C159 H131 0.982 . S
C159 H135 0.979 . S
C159 H136 0.977 . S
C159 C156 1.453 1_545 S
C160 H132 0.979 . S
C160 H133 0.980 . S
C160 H134 0.983 . S
C160 C156 1.684 . S
H161 C179 0.948 . S
H162 C120 0.948 . S
H163 C138 0.979 . S
H164 C138 0.980 . S
H165 C138 0.983 . S
H166 C137 0.982 . S
H167 C137 0.979 . S
H168 C137 0.977 . S
H169 C139 0.948 . S
H170 C141 0.947 . S
H171 C142 0.948 1_554 S
H172 C148 0.982 . S
H173 C148 0.979 . S
H174 C148 0.977 . S
H175 C149 0.979 . S
H176 C149 0.980 . S
H177 C149 0.983 . S
H178 C122 0.947 . S
C179 C122 1.392 . S
C179 C123 1.419 . S
C179 H161 0.948 . S
C180 C181 1.391 . S
C180 C184 1.391 . S
C180 H222 0.948 . S
C181 C180 1.391 . S
C181 C182 1.391 . S
C182 C181 1.391 . S
C182 H238 0.947 . S
C182 C239 1.392 . S
C183 C184 1.391 . S
C183 C187 1.397 . S
C183 C239 1.419 . S
C184 C180 1.391 . S
C184 C183 1.391 . S
C184 C185 1.399 . S
C185 C184 1.399 . S
C185 C188 1.396 . S
C185 C197 1.453 . S
C185 C198 1.684 . S
H186 C210 0.948 . S
C187 C183 1.397 . S
C187 C188 1.394 . S
C187 C206 1.723 . S
C188 C185 1.396 . S
C188 C187 1.394 . S
C188 C218 1.723 . S
H189 C212 0.947 . S
H190 C213 0.948 . S
H191 C219 0.982 . S
H192 C220 0.979 . S
H193 C220 0.980 . S
H194 C220 0.983 . S
H195 C219 0.979 . S
H196 C219 0.977 . S
C197 C185 1.453 . S
C197 H226 0.982 . S
C197 H227 0.979 . S
C197 H228 0.977 . S
C198 C185 1.684 . S
C198 H223 0.979 . S
C198 H224 0.980 . S
C198 H225 0.983 . S
C199 C200 1.391 . S
C199 C204 1.391 . S
C199 H229 0.948 . S
C200 C199 1.391 . S
C200 C201 1.391 . S
C201 C200 1.391 . S
C201 C202 1.392 . S
C201 H230 0.947 . S
C202 C201 1.392 . S
C202 C203 1.419 . S
C202 H231 0.948 . S
C203 C202 1.419 . S
C203 C204 1.391 . S
C203 C207 1.397 . S
C204 C199 1.391 . S
C204 C203 1.391 . S
C204 C205 1.399 1_556 S
C205 C204 1.399 1_554 S
C205 C206 1.396 . S
C205 C208 1.453 . S
C205 C209 1.684 . S
C206 C187 1.723 . S
C206 C205 1.396 . S
C206 C207 1.394 1_554 S
C207 C203 1.397 . S
C207 C206 1.394 1_556 S
C207 C217 1.723 . S
C208 C205 1.453 . S
C208 H232 0.982 . S
C208 H233 0.979 . S
C208 H234 0.977 . S
C209 C205 1.684 . S
C209 H235 0.979 . S
C209 H236 0.980 . S
C209 H237 0.983 . S
C210 H186 0.948 . S
C210 C211 1.391 . S
C210 C215 1.391 . S
C211 C210 1.391 . S
C211 C212 1.391 1_556 S
C212 H189 0.947 . S
C212 C211 1.391 1_554 S
C212 C213 1.392 . S
C213 H190 0.948 . S
C213 C212 1.392 . S
C213 C214 1.419 . S
C214 C213 1.419 . S
C214 C215 1.391 1_554 S
C214 C218 1.397 . S
C215 C210 1.391 . S
C215 C214 1.391 1_556 S
C215 C216 1.399 . S
C216 C215 1.399 . S
C216 C217 1.396 . S
C216 C219 1.453 . S
C216 C220 1.684 . S
C217 C207 1.723 . S
C217 C216 1.396 . S
C217 C218 1.394 1_556 S
C218 C188 1.723 . S
C218 C214 1.397 . S
C218 C217 1.394 1_554 S
C219 H191 0.982 . S
C219 H195 0.979 . S
C219 H196 0.977 . S
C219 C216 1.453 . S
C220 H192 0.979 . S
C220 H193 0.980 . S
C220 H194 0.983 . S
C220 C216 1.684 . S
H221 C239 0.948 . S
H222 C180 0.948 . S
H223 C198 0.979 . S
H224 C198 0.980 . S
H225 C198 0.983 . S
H226 C197 0.982 . S
H227 C197 0.979 . S
H228 C197 0.977 . S
H229 C199 0.948 . S
H230 C201 0.947 . S
H231 C202 0.948 . S
H232 C208 0.982 . S
H233 C208 0.979 . S
H234 C208 0.977 . S
H235 C209 0.979 . S
H236 C209 0.980 . S
H237 C209 0.983 . S
H238 C182 0.947 . S
C239 C182 1.392 . S
C239 C183 1.419 . S
C239 H221 0.948 . S
C240 C241 1.391 . S
C240 C244 1.391 . S
C240 H282 0.948 . S
C241 C240 1.391 . S
C241 C242 1.391 . S
C242 C241 1.391 . S
C242 H298 0.947 . S
C242 C299 1.392 . S
C243 C244 1.391 . S
C243 C247 1.397 . S
C243 C299 1.419 . S
C244 C240 1.391 . S
C244 C243 1.391 . S
C244 C245 1.399 . S
C245 C244 1.399 . S
C245 C248 1.396 . S
C245 C257 1.453 . S
C245 C258 1.684 . S
H246 C270 0.948 . S
C247 C243 1.397 . S
C247 C248 1.394 . S
C247 C266 1.723 . S
C248 C245 1.396 . S
C248 C247 1.394 . S
C248 C278 1.723 . S
H249 C272 0.947 . S
H250 C273 0.948 . S
H251 C279 0.982 . S
H252 C280 0.979 . S
H253 C280 0.980 . S
H254 C280 0.983 . S
H255 C279 0.979 . S
H256 C279 0.977 . S
C257 C245 1.453 . S
C257 H286 0.982 . S
C257 H287 0.979 . S
C257 H288 0.977 . S
C258 C245 1.684 . S
C258 H283 0.979 . S
C258 H284 0.980 . S
C258 H285 0.983 . S
C259 C260 1.391 . S
C259 C264 1.391 . S
C259 H289 0.948 . S
C260 C259 1.391 . S
C260 C261 1.391 . S
C261 C260 1.391 . S
C261 C262 1.392 . S
C261 H290 0.947 . S
C262 C261 1.392 . S
C262 C263 1.419 . S
C262 H291 0.948 . S
C263 C262 1.419 . S
C263 C264 1.391 . S
C263 C267 1.397 . S
C264 C259 1.391 . S
C264 C263 1.391 . S
C264 C265 1.399 . S
C265 C264 1.399 . S
C265 C266 1.396 . S
C265 C268 1.453 . S
C265 C269 1.684 . S
C266 C247 1.723 . S
C266 C265 1.396 . S
C266 C267 1.394 . S
C267 C263 1.397 . S
C267 C266 1.394 . S
C267 C277 1.723 . S
C268 C265 1.453 . S
C268 H292 0.982 . S
C268 H293 0.979 . S
C268 H294 0.977 . S
C269 C265 1.684 . S
C269 H295 0.979 . S
C269 H296 0.980 . S
C269 H297 0.983 . S
C270 H246 0.948 . S
C270 C271 1.391 . S
C270 C275 1.391 1_556 S
C271 C270 1.391 . S
C271 C272 1.391 . S
C272 H249 0.947 . S
C272 C271 1.391 . S
C272 C273 1.392 . S
C273 H250 0.948 . S
C273 C272 1.392 . S
C273 C274 1.419 1_556 S
C274 C273 1.419 1_554 S
C274 C275 1.391 . S
C274 C278 1.397 . S
C275 C270 1.391 1_554 S
C275 C274 1.391 . S
C275 C276 1.399 . S
C276 C275 1.399 . S
C276 C277 1.396 . S
C276 C279 1.453 . S
C276 C280 1.684 . S
C277 C267 1.723 . S
C277 C276 1.396 . S
C277 C278 1.394 . S
C278 C248 1.723 . S
C278 C274 1.397 . S
C278 C277 1.394 . S
C279 H251 0.982 . S
C279 H255 0.979 . S
C279 H256 0.977 . S
C279 C276 1.453 . S
C280 H252 0.979 . S
C280 H253 0.980 . S
C280 H254 0.983 . S
C280 C276 1.684 . S
H281 C299 0.948 . S
H282 C240 0.948 . S
H283 C258 0.979 . S
H284 C258 0.980 . S
H285 C258 0.983 . S
H286 C257 0.982 . S
H287 C257 0.979 . S
H288 C257 0.977 . S
H289 C259 0.948 . S
H290 C261 0.947 . S
H291 C262 0.948 . S
H292 C268 0.982 . S
H293 C268 0.979 . S
H294 C268 0.977 . S
H295 C269 0.979 . S
H296 C269 0.980 . S
H297 C269 0.983 . S
H298 C242 0.947 . S
C299 C242 1.392 . S
C299 C243 1.419 . S
C299 H281 0.948 . S
C300 C301 1.391 . S
C300 C304 1.391 . S
C300 H342 0.948 . S
C301 C300 1.391 . S
C301 C302 1.391 . S
C302 C301 1.391 . S
C302 H358 0.947 . S
C302 C359 1.392 . S
C303 C304 1.391 . S
C303 C307 1.397 . S
C303 C359 1.419 . S
C304 C300 1.391 . S
C304 C303 1.391 . S
C304 C305 1.399 . S
C305 C304 1.399 . S
C305 C308 1.396 . S
C305 C317 1.453 . S
C305 C318 1.684 . S
H306 C330 0.948 . S
C307 C303 1.397 . S
C307 C308 1.394 . S
C307 C326 1.723 . S
C308 C305 1.396 . S
C308 C307 1.394 . S
C308 C338 1.723 . S
H309 C332 0.947 . S
H310 C333 0.948 . S
H311 C339 0.982 . S
H312 C340 0.979 . S
H313 C340 0.980 . S
H314 C340 0.983 . S
H315 C339 0.979 . S
H316 C339 0.977 . S
C317 C305 1.453 . S
C317 H346 0.982 . S
C317 H347 0.979 . S
C317 H348 0.977 . S
C318 C305 1.684 . S
C318 H343 0.979 . S
C318 H344 0.980 . S
C318 H345 0.983 . S
C319 C320 1.391 . S
C319 C324 1.391 1_556 S
C319 H349 0.948 . S
C320 C319 1.391 . S
C320 C321 1.391 . S
C321 C320 1.391 . S
C321 C322 1.392 1_556 S
C321 H350 0.947 . S
C322 C321 1.392 1_554 S
C322 C323 1.419 . S
C322 H351 0.948 . S
C323 C322 1.419 . S
C323 C324 1.391 . S
C323 C327 1.397 . S
C324 C319 1.391 1_554 S
C324 C323 1.391 . S
C324 C325 1.399 . S
C325 C324 1.399 . S
C325 C326 1.396 . S
C325 C328 1.453 . S
C325 C329 1.684 . S
C326 C307 1.723 . S
C326 C325 1.396 . S
C326 C327 1.394 . S
C327 C323 1.397 . S
C327 C326 1.394 . S
C327 C337 1.723 . S
C328 C325 1.453 . S
C328 H352 0.982 . S
C328 H353 0.979 . S
C328 H354 0.977 . S
C329 C325 1.684 . S
C329 H355 0.979 . S
C329 H356 0.980 . S
C329 H357 0.983 . S
C330 H306 0.948 . S
C330 C331 1.391 . S
C330 C335 1.391 . S
C331 C330 1.391 . S
C331 C332 1.391 . S
C332 H309 0.947 . S
C332 C331 1.391 . S
C332 C333 1.392 . S
C333 H310 0.948 . S
C333 C332 1.392 . S
C333 C334 1.419 . S
C334 C333 1.419 . S
C334 C335 1.391 . S
C334 C338 1.397 . S
C335 C330 1.391 . S
C335 C334 1.391 . S
C335 C336 1.399 . S
C336 C335 1.399 . S
C336 C337 1.396 . S
C336 C339 1.453 . S
C336 C340 1.684 . S
C337 C327 1.723 . S
C337 C336 1.396 . S
C337 C338 1.394 . S
C338 C308 1.723 . S
C338 C334 1.397 . S
C338 C337 1.394 . S
C339 H311 0.982 . S
C339 H315 0.979 . S
C339 H316 0.977 . S
C339 C336 1.453 . S
C340 H312 0.979 . S
C340 H313 0.980 . S
C340 H314 0.983 . S
C340 C336 1.684 . S
H341 C359 0.948 . S
H342 C300 0.948 . S
H343 C318 0.979 . S
H344 C318 0.980 . S
H345 C318 0.983 . S
H346 C317 0.982 . S
H347 C317 0.979 . S
H348 C317 0.977 . S
H349 C319 0.948 . S
H350 C321 0.947 . S
H351 C322 0.948 . S
H352 C328 0.982 . S
H353 C328 0.979 . S
H354 C328 0.977 . S
H355 C329 0.979 . S
H356 C329 0.980 . S
H357 C329 0.983 . S
H358 C302 0.947 . S
C359 C302 1.392 . S
C359 C303 1.419 . S
C359 H341 0.948 . S
C360 C361 1.391 . S
C360 C364 1.391 1_556 S
C360 H402 0.948 . S
C361 C360 1.391 . S
C361 C362 1.391 . S
C362 C361 1.391 . S
C362 H418 0.947 . S
C362 C419 1.392 1_556 S
C363 C364 1.391 . S
C363 C367 1.397 1_545 S
C363 C419 1.419 . S
C364 C360 1.391 1_554 S
C364 C363 1.391 . S
C364 C365 1.399 . S
C365 C364 1.399 . S
C365 C368 1.396 1_545 S
C365 C377 1.453 1_545 S
C365 C378 1.684 . S
H366 C390 0.948 . S
C367 C363 1.397 1_565 S
C367 C368 1.394 . S
C367 C386 1.723 . S
C368 C365 1.396 1_565 S
C368 C367 1.394 . S
C368 C398 1.723 . S
H369 C392 0.947 . S
H370 C393 0.948 . S
H371 C399 0.982 . S
H372 C400 0.979 . S
H373 C400 0.980 . S
H374 C400 0.983 . S
H375 C399 0.979 . S
H376 C399 0.977 . S
C377 C365 1.453 1_565 S
C377 H406 0.982 . S
C377 H407 0.979 1_554 S
C377 H408 0.977 . S
C378 C365 1.684 . S
C378 H403 0.979 . S
C378 H404 0.980 . S
C378 H405 0.983 1_554 S
C379 C380 1.391 . S
C379 C384 1.391 . S
C379 H409 0.948 . S
C380 C379 1.391 . S
C380 C381 1.391 . S
C381 C380 1.391 . S
C381 C382 1.392 . S
C381 H410 0.947 . S
C382 C381 1.392 . S
C382 C383 1.419 . S
C382 H411 0.948 . S
C383 C382 1.419 . S
C383 C384 1.391 . S
C383 C387 1.397 1_545 S
C384 C379 1.391 . S
C384 C383 1.391 . S
C384 C385 1.399 . S
C385 C384 1.399 . S
C385 C386 1.396 1_545 S
C385 C388 1.453 1_545 S
C385 C389 1.684 . S
C386 C367 1.723 . S
C386 C385 1.396 1_565 S
C386 C387 1.394 . S
C387 C383 1.397 1_565 S
C387 C386 1.394 . S
C387 C397 1.723 . S
C388 C385 1.453 1_565 S
C388 H412 0.982 . S
C388 H413 0.979 . S
C388 H414 0.977 . S
C389 C385 1.684 . S
C389 H415 0.979 . S
C389 H416 0.980 . S
C389 H417 0.983 . S
C390 H366 0.948 . S
C390 C391 1.391 . S
C390 C395 1.391 . S
C391 C390 1.391 . S
C391 C392 1.391 . S
C392 H369 0.947 . S
C392 C391 1.391 . S
C392 C393 1.392 . S
C393 H370 0.948 . S
C393 C392 1.392 . S
C393 C394 1.419 . S
C394 C393 1.419 . S
C394 C395 1.391 . S
C394 C398 1.396 1_545 S
C395 C390 1.391 . S
C395 C394 1.391 . S
C395 C396 1.399 . S
C396 C395 1.399 . S
C396 C397 1.396 1_545 S
C396 C399 1.453 1_545 S
C396 C400 1.684 . S
C397 C387 1.723 . S
C397 C396 1.396 1_565 S
C397 C398 1.395 . S
C398 C368 1.723 . S
C398 C394 1.396 1_565 S
C398 C397 1.395 . S
C399 H371 0.982 . S
C399 H375 0.979 . S
C399 H376 0.977 . S
C399 C396 1.453 1_565 S
C400 H372 0.979 . S
C400 H373 0.980 . S
C400 H374 0.983 . S
C400 C396 1.684 . S
H401 C419 0.948 . S
H402 C360 0.948 . S
H403 C378 0.979 . S
H404 C378 0.980 . S
H405 C378 0.983 1_556 S
H406 C377 0.982 . S
H407 C377 0.979 1_556 S
H408 C377 0.977 . S
H409 C379 0.948 . S
H410 C381 0.947 . S
H411 C382 0.948 . S
H412 C388 0.982 . S
H413 C388 0.979 . S
H414 C388 0.977 . S
H415 C389 0.979 . S
H416 C389 0.980 . S
H417 C389 0.983 . S
H418 C362 0.947 . S
C419 C362 1.392 1_554 S
C419 C363 1.419 . S
C419 H401 0.948 . S
C420 C421 1.391 . S
C420 C424 1.391 . S
C420 H462 0.948 . S
C421 C420 1.391 . S
C421 C422 1.391 . S
C422 C421 1.391 . S
C422 H478 0.947 . S
C422 C479 1.392 1_556 S
C423 C424 1.391 1_554 S
C423 C427 1.397 . S
C423 C479 1.419 . S
C424 C420 1.391 . S
C424 C423 1.391 1_556 S
C424 C425 1.399 1_556 S
C425 C424 1.399 1_554 S
C425 C428 1.396 . S
C425 C437 1.453 . S
C425 C438 1.684 1_554 S
H426 C450 0.948 . S
C427 C423 1.397 . S
C427 C428 1.394 . S
C427 C446 1.723 . S
C428 C425 1.396 . S
C428 C427 1.394 . S
C428 C458 1.723 . S
H429 C452 0.947 . S
H430 C453 0.948 . S
H431 C459 0.982 . S
H432 C460 0.979 . S
H433 C460 0.980 . S
H434 C460 0.983 . S
H435 C459 0.979 . S
H436 C459 0.977 . S
C437 C425 1.453 . S
C437 H466 0.982 . S
C437 H467 0.979 1_554 S
C437 H468 0.977 . S
C438 C425 1.684 1_556 S
C438 H463 0.978 1_556 S
C438 H464 0.980 1_556 S
C438 H465 0.983 . S
C439 C440 1.391 . S
C439 C444 1.391 . S
C439 H469 0.948 . S
C440 C439 1.391 . S
C440 C441 1.391 . S
C441 C440 1.391 . S
C441 C442 1.392 . S
C441 H470 0.947 . S
C442 C441 1.392 . S
C442 C443 1.419 . S
C442 H471 0.948 . S
C443 C442 1.419 . S
C443 C444 1.391 . S
C443 C447 1.397 . S
C444 C439 1.391 . S
C444 C443 1.391 . S
C444 C445 1.399 . S
C445 C444 1.399 . S
C445 C446 1.396 . S
C445 C448 1.453 . S
C445 C449 1.684 . S
C446 C427 1.723 . S
C446 C445 1.396 . S
C446 C447 1.394 . S
C447 C443 1.397 . S
C447 C446 1.394 . S
C447 C457 1.723 . S
C448 C445 1.453 . S
C448 H472 0.982 . S
C448 H473 0.979 . S
C448 H474 0.977 . S
C449 C445 1.684 . S
C449 H475 0.979 . S
C449 H476 0.980 . S
C449 H477 0.983 . S
C450 H426 0.948 . S
C450 C451 1.391 . S
C450 C455 1.391 . S
C451 C450 1.391 . S
C451 C452 1.391 . S
C452 H429 0.947 . S
C452 C451 1.391 . S
C452 C453 1.392 . S
C453 H430 0.948 . S
C453 C452 1.392 . S
C453 C454 1.419 . S
C454 C453 1.419 . S
C454 C455 1.391 . S
C454 C458 1.397 . S
C455 C450 1.391 . S
C455 C454 1.391 . S
C455 C456 1.399 . S
C456 C455 1.399 . S
C456 C457 1.396 . S
C456 C459 1.453 . S
C456 C460 1.684 . S
C457 C447 1.723 . S
C457 C456 1.396 . S
C457 C458 1.394 . S
C458 C428 1.723 . S
C458 C454 1.397 . S
C458 C457 1.394 . S
C459 H431 0.982 . S
C459 H435 0.979 . S
C459 H436 0.977 . S
C459 C456 1.453 . S
C460 H432 0.979 . S
C460 H433 0.980 . S
C460 H434 0.983 . S
C460 C456 1.684 . S
H461 C479 0.948 . S
H462 C420 0.948 . S
H463 C438 0.978 1_554 S
H464 C438 0.980 1_554 S
H465 C438 0.983 . S
H466 C437 0.982 . S
H467 C437 0.979 1_556 S
H468 C437 0.977 . S
H469 C439 0.948 . S
H470 C441 0.947 . S
H471 C442 0.948 . S
H472 C448 0.982 . S
H473 C448 0.979 . S
H474 C448 0.977 . S
H475 C449 0.979 . S
H476 C449 0.980 . S
H477 C449 0.983 . S
H478 C422 0.947 . S
C479 C422 1.392 1_554 S
C479 C423 1.419 . S
C479 H461 0.948 . S
O480 Zn481 1.953 . S
O480 C496 1.225 . S
Zn481 O480 1.953 . S
Zn481 O482 1.949 . S
Zn481 O488 1.919 1_565 S
Zn481 O493 1.924 . S
O482 Zn481 1.949 . S
O482 Zn483 1.923 1_565 S
O482 Zn484 1.950 . S
O482 Zn485 1.945 1_455 S
Zn483 O482 1.923 1_545 S
Zn483 O486 1.933 1_455 S
Zn483 O489 1.941 . S
Zn483 O490 1.965 . S
Zn484 O482 1.950 . S
Zn484 O491 1.938 1_565 S
Zn484 O492 1.906 . S
Zn484 O502 1.953 . S
Zn485 O482 1.945 1_655 S
Zn485 O487 1.932 . S
Zn485 O494 1.977 . S
Zn485 O495 1.910 1_655 S
O486 Zn483 1.933 1_655 S
O486 C497 1.226 . S
O487 Zn485 1.932 . S
O487 C497 1.307 1_565 S
O488 Zn481 1.919 1_545 S
O488 C499 1.253 . S
O489 Zn483 1.941 . S
O489 C499 1.283 . S
O490 Zn483 1.965 . S
O490 C498 1.303 . S
O491 Zn484 1.938 1_545 S
O491 C498 1.247 . S
O492 Zn484 1.906 . S
O492 C500 1.304 1_455 S
O493 Zn481 1.924 . S
O493 C501 1.311 . S
O494 Zn485 1.977 . S
O494 C500 1.272 . S
O495 Zn485 1.910 1_455 S
O495 C501 1.231 . S
C496 O480 1.225 . S
C496 O502 1.298 . S
C497 O486 1.226 . S
C497 O487 1.307 1_545 S
C498 O490 1.303 . S
C498 O491 1.247 . S
C499 O488 1.253 . S
C499 O489 1.283 . S
C500 O492 1.304 1_655 S
C500 O494 1.272 . S
C501 O493 1.311 . S
C501 O495 1.231 . S
O502 Zn484 1.953 . S
O502 C496 1.298 . S
O503 Zn504 1.953 . S
O503 C519 1.225 . S
Zn504 O503 1.953 . S
Zn504 O505 1.949 . S
Zn504 O511 1.919 . S
Zn504 O516 1.924 . S
O505 Zn504 1.949 . S
O505 Zn506 1.923 1_545 S
O505 Zn507 1.950 . S
O505 Zn508 1.945 1_545 S
Zn506 O505 1.923 1_565 S
Zn506 O509 1.933 . S
Zn506 O512 1.941 . S
Zn506 O513 1.965 . S
Zn507 O505 1.950 . S
Zn507 O514 1.938 . S
Zn507 O515 1.906 1_545 S
Zn507 O525 1.953 . S
Zn508 O505 1.945 1_565 S
Zn508 O510 1.932 . S
Zn508 O517 1.977 . S
Zn508 O518 1.910 1_565 S
O509 Zn506 1.933 . S
O509 C520 1.226 . S
O510 Zn508 1.932 . S
O510 C520 1.307 . S
O511 Zn504 1.919 . S
O511 C522 1.253 . S
O512 Zn506 1.941 . S
O512 C522 1.283 1_565 S
O513 Zn506 1.965 . S
O513 C521 1.303 . S
O514 Zn507 1.938 . S
O514 C521 1.247 1_545 S
O515 Zn507 1.906 1_565 S
O515 C523 1.304 . S
O516 Zn504 1.924 . S
O516 C524 1.311 . S
O517 Zn508 1.977 . S
O517 C523 1.272 . S
O518 Zn508 1.910 1_545 S
O518 C524 1.231 . S
C519 O503 1.225 . S
C519 O525 1.298 . S
C520 O509 1.226 . S
C520 O510 1.307 . S
C521 O513 1.303 . S
C521 O514 1.247 1_565 S
C522 O511 1.253 . S
C522 O512 1.283 1_545 S
C523 O515 1.304 . S
C523 O517 1.272 . S
C524 O516 1.311 . S
C524 O518 1.231 . S
O525 Zn507 1.953 . S
O525 C519 1.298 . S
O526 Zn527 1.953 . S
O526 C542 1.225 . S
Zn527 O526 1.953 . S
Zn527 O528 1.949 . S
Zn527 O534 1.919 . S
Zn527 O539 1.924 . S
O528 Zn527 1.949 . S
O528 Zn529 1.923 . S
O528 Zn530 1.950 . S
O528 Zn531 1.945 . S
Zn529 O528 1.923 . S
Zn529 O532 1.933 . S
Zn529 O535 1.941 . S
Zn529 O536 1.965 . S
Zn530 O528 1.950 . S
Zn530 O537 1.938 . S
Zn530 O538 1.906 . S
Zn530 O548 1.953 . S
Zn531 O528 1.945 . S
Zn531 O533 1.932 . S
Zn531 O540 1.977 . S
Zn531 O541 1.910 . S
O532 Zn529 1.933 . S
O532 C543 1.226 . S
O533 Zn531 1.932 . S
O533 C543 1.307 . S
O534 Zn527 1.919 . S
O534 C545 1.253 . S
O535 Zn529 1.941 . S
O535 C545 1.283 . S
O536 Zn529 1.965 . S
O536 C544 1.303 . S
O537 Zn530 1.938 . S
O537 C544 1.247 . S
O538 Zn530 1.906 . S
O538 C546 1.304 . S
O539 Zn527 1.924 . S
O539 C547 1.311 . S
O540 Zn531 1.977 . S
O540 C546 1.272 . S
O541 Zn531 1.910 . S
O541 C547 1.231 . S
C542 O526 1.225 . S
C542 O548 1.298 . S
C543 O532 1.226 . S
C543 O533 1.307 . S
C544 O536 1.303 . S
C544 O537 1.247 . S
C545 O534 1.253 . S
C545 O535 1.283 . S
C546 O538 1.304 . S
C546 O540 1.272 . S
C547 O539 1.311 . S
C547 O541 1.231 . S
O548 Zn530 1.953 . S
O548 C542 1.298 . S
O549 Zn550 1.953 1_655 S
O549 C565 1.225 . S
Zn550 O549 1.953 1_455 S
Zn550 O551 1.949 . S
Zn550 O557 1.919 . S
Zn550 O562 1.924 . S
O551 Zn550 1.949 . S
O551 Zn552 1.923 . S
O551 Zn553 1.950 1_455 S
O551 Zn554 1.945 . S
Zn552 O551 1.923 . S
Zn552 O555 1.933 . S
Zn552 O558 1.941 1_455 S
Zn552 O559 1.965 1_455 S
Zn553 O551 1.950 1_655 S
Zn553 O560 1.938 . S
Zn553 O561 1.912 . S
Zn553 O571 1.953 . S
Zn554 O551 1.945 . S
Zn554 O556 1.932 . S
Zn554 O563 1.977 . S
Zn554 O564 1.910 . S
O555 Zn552 1.933 . S
O555 C566 1.226 . S
O556 Zn554 1.932 . S
O556 C566 1.307 . S
O557 Zn550 1.919 . S
O557 C568 1.253 . S
O558 Zn552 1.941 1_655 S
O558 C568 1.283 1_655 S
O559 Zn552 1.965 1_655 S
O559 C567 1.303 . S
O560 Zn553 1.938 . S
O560 C567 1.247 . S
O561 Zn553 1.912 . S
O561 C569 1.290 1_655 S
O562 Zn550 1.924 . S
O562 C570 1.311 . S
O563 Zn554 1.977 . S
O563 C569 1.272 . S
O564 Zn554 1.910 . S
O564 C570 1.231 . S
C565 O549 1.225 . S
C565 O571 1.298 . S
C566 O555 1.226 . S
C566 O556 1.307 . S
C567 O559 1.303 . S
C567 O560 1.247 . S
C568 O557 1.253 . S
C568 O558 1.283 1_455 S
C569 O561 1.290 1_455 S
C569 O563 1.272 . S
C570 O562 1.311 . S
C570 O564 1.231 . S
O571 Zn553 1.953 . S
O571 C565 1.298 . S
C391 C496 3.301 1_545 S
C519 C451 3.663 . S
C542 C241 2.751 . S
C569 C331 2.527 . S
C497 C121 2.328 1_545 S
C211 C520 3.033 . S
C31 C543 2.793 . S
C91 C568 2.719 1_655 S
C498 C301 2.273 . S
C521 C380 1.688 1_565 S
C544 C440 2.077 . S
C260 C570 1.276 . S
C61 C501 2.020 1_655 S
C524 C140 1.793 1_545 S
C547 C200 2.336 . S
C20 C567 1.200 . S
C320 C499 3.207 . S
C361 C522 2.881 . S
C545 C421 3.058 . S
C566 C271 3.406 . S
C80 C500 3.628 . S
C523 C151 3.217 . S
C546 C181 2.862 . S
C1 C565 3.236 . S
