# Generated by pormake.
# Topology pyr, (3,6)-cn, num edge types: 1
# Building blocks:
#     Node 0, Type 0, BuildingBlock: PAMTOO_clean_linker_0, # of connection points: 3
#     Node 1, Type 0, BuildingBlock: PAMTOO_clean_linker_0, # of connection points: 3
#     Node 2, Type 0, BuildingBlock: PAMTOO_clean_linker_0, # of connection points: 3
#     Node 3, Type 0, BuildingBlock: PAMTOO_clean_linker_0, # of connection points: 3
#     Node 4, Type 0, BuildingBlock: PAMTOO_clean_linker_0, # of connection points: 3
#     Node 5, Type 0, BuildingBlock: PAMTOO_clean_linker_0, # of connection points: 3
#     Node 6, Type 0, BuildingBlock: PAMTOO_clean_linker_0, # of connection points: 3
#     Node 7, Type 0, BuildingBlock: PAMTOO_clean_linker_0, # of connection points: 3
#     Node 8, Type 1, BuildingBlock: FUNLAD_clean_sbu_0, # of connection points: 6
#     Node 9, Type 1, BuildingBlock: FUNLAD_clean_sbu_0, # of connection points: 6
#     Node 10, Type 1, BuildingBlock: FUNLAD_clean_sbu_0, # of connection points: 6
#     Node 11, Type 1, BuildingBlock: FUNLAD_clean_sbu_0, # of connection points: 6
#     Edge 12, Type (0, 1), BuildingBlock: UVAHIK_clean_linker_0, # of connection points: 2
#     Edge 13, Type (0, 1), BuildingBlock: UVAHIK_clean_linker_0, # of connection points: 2
#     Edge 14, Type (0, 1), BuildingBlock: UVAHIK_clean_linker_0, # of connection points: 2
#     Edge 15, Type (0, 1), BuildingBlock: UVAHIK_clean_linker_0, # of connection points: 2
#     Edge 16, Type (0, 1), BuildingBlock: UVAHIK_clean_linker_0, # of connection points: 2
#     Edge 17, Type (0, 1), BuildingBlock: UVAHIK_clean_linker_0, # of connection points: 2
#     Edge 18, Type (0, 1), BuildingBlock: UVAHIK_clean_linker_0, # of connection points: 2
#     Edge 19, Type (0, 1), BuildingBlock: UVAHIK_clean_linker_0, # of connection points: 2
#     Edge 20, Type (0, 1), BuildingBlock: UVAHIK_clean_linker_0, # of connection points: 2
#     Edge 21, Type (0, 1), BuildingBlock: UVAHIK_clean_linker_0, # of connection points: 2
#     Edge 22, Type (0, 1), BuildingBlock: UVAHIK_clean_linker_0, # of connection points: 2
#     Edge 23, Type (0, 1), BuildingBlock: UVAHIK_clean_linker_0, # of connection points: 2
#     Edge 24, Type (0, 1), BuildingBlock: UVAHIK_clean_linker_0, # of connection points: 2
#     Edge 25, Type (0, 1), BuildingBlock: UVAHIK_clean_linker_0, # of connection points: 2
#     Edge 26, Type (0, 1), BuildingBlock: UVAHIK_clean_linker_0, # of connection points: 2
#     Edge 27, Type (0, 1), BuildingBlock: UVAHIK_clean_linker_0, # of connection points: 2
#     Edge 28, Type (0, 1), BuildingBlock: UVAHIK_clean_linker_0, # of connection points: 2
#     Edge 29, Type (0, 1), BuildingBlock: UVAHIK_clean_linker_0, # of connection points: 2
#     Edge 30, Type (0, 1), BuildingBlock: UVAHIK_clean_linker_0, # of connection points: 2
#     Edge 31, Type (0, 1), BuildingBlock: UVAHIK_clean_linker_0, # of connection points: 2
#     Edge 32, Type (0, 1), BuildingBlock: UVAHIK_clean_linker_0, # of connection points: 2
#     Edge 33, Type (0, 1), BuildingBlock: UVAHIK_clean_linker_0, # of connection points: 2
#     Edge 34, Type (0, 1), BuildingBlock: UVAHIK_clean_linker_0, # of connection points: 2
#     Edge 35, Type (0, 1), BuildingBlock: UVAHIK_clean_linker_0, # of connection points: 2
# Relax obj value: 0.148
# Max RMSD: 0.207
# Mean RMSD: 0.133
data_MOF--net-pry--node1-FUNLAD_clean_sbu_0--node2-PAMTOO_clean_linker_0--edge1-UVAHIK_clean_linker_0
_symmetry_space_group_name_H-M    P1
_symmetry_Int_Tables_number       1
_symmetry_cell_setting            triclinic
loop_
_symmetry_equiv_pos_as_xyz
'x, y, z'
_cell_length_a     44.883644
_cell_length_b     48.617611
_cell_length_c     48.78491
_cell_angle_alpha  89.995689
_cell_angle_beta   90.821449
_cell_angle_gamma 90.323379
loop_
_atom_site_label
_atom_site_type_symbol
_atom_site_fract_x
_atom_site_fract_y
_atom_site_fract_z
_atom_type_partial_charge
H0 H 0.15154 0.21638 0.24513 0.0
H1 H 0.21699 0.15187 0.24114 0.0
H2 H 0.21782 0.2165 0.18176 0.0
H3 H 0.22856 0.16156 0.15916 0.0
C4 C 0.24057 0.15208 0.17686 0.0
O5 O 0.24354 0.17113 0.1978 0.0
H6 H 0.2269 0.13434 0.18396 0.0
C7 C 0.17075 0.2073 0.23554 0.0
C8 C 0.18286 0.21976 0.21189 0.0
C9 C 0.18262 0.18255 0.24629 0.0
C10 C 0.20713 0.17056 0.23314 0.0
C11 C 0.21956 0.18272 0.20987 0.0
C12 C 0.20753 0.2072 0.19947 0.0
H13 H 0.36398 0.92346 0.73253 0.0
H14 H 0.36552 0.86242 0.66843 0.0
H15 H 0.42813 0.85769 0.73528 0.0
H16 H 0.45395 0.84177 0.68278 0.0
C17 C 0.43331 0.83543 0.67151 0.0
O18 O 0.40979 0.83458 0.68948 0.0
H19 H 0.42893 0.85108 0.65528 0.0
C20 C 0.37354 0.90514 0.72365 0.0
C21 C 0.39754 0.892 0.7372 0.0
C22 C 0.36174 0.89478 0.69872 0.0
C23 C 0.37439 0.87099 0.68738 0.0
C24 C 0.39819 0.85769 0.70056 0.0
C25 C 0.40957 0.86809 0.72543 0.0
H26 H 0.70832 0.39779 0.97583 0.0
H27 H 0.63355 0.42401 0.92632 0.0
H28 H 0.6986 0.48308 0.95384 0.0
H29 H 0.63115 0.50871 0.94082 0.0
C30 C 0.62517 0.48897 0.93058 0.0
O31 O 0.65082 0.47525 0.92378 0.0
H32 H 0.61139 0.47663 0.94495 0.0
C33 C 0.69583 0.41402 0.96575 0.0
C34 C 0.70662 0.44117 0.96683 0.0
C35 C 0.66926 0.40762 0.95155 0.0
C36 C 0.65344 0.42871 0.93832 0.0
C37 C 0.66391 0.45586 0.93949 0.0
C38 C 0.69013 0.46217 0.95407 0.0
H39 H 0.89417 0.64467 0.46969 0.0
H40 H 0.91927 0.56124 0.48778 0.0
H41 H 0.98658 0.62111 0.46966 0.0
H42 H 0.96353 0.53317 0.46623 0.0
C43 C 0.9821 0.54838 0.46517 0.0
O44 O 0.97655 0.56997 0.48275 0.0
H45 H 1.00239 0.53754 0.47259 0.0
C46 C 0.91119 0.62906 0.47183 0.0
C47 C 0.94135 0.63642 0.469 0.0
C48 C 0.90287 0.60202 0.47851 0.0
C49 C 0.92514 0.58214 0.48225 0.0
C50 C 0.95513 0.58897 0.47831 0.0
C51 C 0.96318 0.61594 0.47146 0.0
H52 H 0.87417 0.91587 0.84599 0.0
H53 H 0.88306 0.85597 0.91071 0.0
H54 H 0.94469 0.85587 0.84446 0.0
H55 H 0.92564 0.80004 0.86417 0.0
C56 C 0.92192 0.805 0.88612 0.0
O57 O 0.93007 0.83213 0.89089 0.0
H58 H 0.89773 0.80221 0.89006 0.0
C59 C 0.88538 0.89823 0.85482 0.0
C60 C 0.91065 0.88737 0.84172 0.0
C61 C 0.87515 0.88728 0.87984 0.0
C62 C 0.89058 0.86496 0.89168 0.0
C63 C 0.91547 0.85359 0.87892 0.0
C64 C 0.92548 0.86488 0.85412 0.0
H65 H 0.73474 0.12809 0.34456 0.0
H66 H 0.66914 0.19181 0.33509 0.0
H67 H 0.73051 0.19484 0.40285 0.0
H68 H 0.66583 0.20316 0.41444 0.0
C69 C 0.66083 0.2174 0.39711 0.0
O70 O 0.68486 0.21852 0.3797 0.0
H71 H 0.64108 0.20903 0.38582 0.0
C72 C 0.72483 0.14697 0.35172 0.0
C73 C 0.73603 0.15973 0.37583 0.0
C74 C 0.70101 0.15849 0.3365 0.0
C75 C 0.6878 0.1828 0.34611 0.0
C76 C 0.69811 0.19539 0.37032 0.0
C77 C 0.72233 0.18414 0.38477 0.0
H78 H 0.42827 0.63897 0.12568 0.0
H79 H 0.44432 0.5557 0.10021 0.0
H80 H 0.51806 0.60852 0.12046 0.0
H81 H 0.53079 0.52904 0.11412 0.0
C82 C 0.50866 0.53724 0.11979 0.0
O83 O 0.50242 0.55973 0.10332 0.0
H84 H 0.4921 0.5207 0.11527 0.0
C85 C 0.44367 0.62231 0.1221 0.0
C86 C 0.47455 0.62712 0.12433 0.0
C87 C 0.43244 0.59663 0.11356 0.0
C88 C 0.45247 0.57562 0.107 0.0
C89 C 0.4832 0.57996 0.10981 0.0
C90 C 0.49418 0.6055 0.11863 0.0
H91 H 0.14867 0.41262 0.66916 0.0
H92 H 0.14751 0.49982 0.65379 0.0
H93 H 0.15364 0.44338 0.58666 0.0
H94 H 0.17394 0.52647 0.61745 0.0
C95 C 0.17097 0.51519 0.59775 0.0
O96 O 0.14933 0.49511 0.60045 0.0
H97 H 0.1628 0.53065 0.58269 0.0
C98 C 0.15048 0.42982 0.65514 0.0
C99 C 0.15189 0.42469 0.62686 0.0
C100 C 0.14909 0.45682 0.66529 0.0
C101 C 0.14901 0.47882 0.64658 0.0
C102 C 0.15124 0.47395 0.61837 0.0
C103 C 0.15288 0.44696 0.60856 0.0
C104 C 0.07475 0.04951 0.49389 0.0
N105 N 0.0607 0.08775 0.56948 0.0
C106 C 0.0891 0.09728 0.567 0.0
C107 C 0.09651 0.12401 0.5749 0.0
C108 C 0.0744 0.14135 0.58506 0.0
C109 C 0.04539 0.13089 0.58805 0.0
C110 C 0.03901 0.10377 0.58024 0.0
Zn111 Zn 0.05121 0.05017 0.55254 0.0
C112 C 0.99389 0.05014 0.52077 0.0
N113 N 0.035 0.97296 0.51351 0.0
C114 C 0.0569 0.95733 0.50255 0.0
C115 C 1.00651 0.96348 0.51486 0.0
C116 C 0.9992 0.93719 0.50554 0.0
C117 C 0.0215 0.92004 0.4952 0.0
C118 C 0.05063 0.93063 0.49332 0.0
Zn119 Zn 0.0442 1.01036 0.53098 0.0
O120 O 0.07143 0.06412 0.51527 0.0
C121 C 0.10161 1.01025 0.56248 0.0
O122 O 0.06604 0.02452 0.49434 0.0
H123 H 0.98944 0.9761 0.52381 0.0
H124 H 0.1059 0.08451 0.55786 0.0
H125 H 0.07943 0.96525 0.50168 0.0
O126 O 0.09309 0.0346 0.5676 0.0
O127 O 0.08527 0.99501 0.54726 0.0
H128 H 0.01655 0.09584 0.58193 0.0
O129 O 0.02239 0.99682 0.56811 0.0
O130 O 0.03072 0.03584 0.58949 0.0
O131 O 1.00338 0.02636 0.51468 0.0
O132 O 1.00912 0.065 0.53731 0.0
C133 C 0.0204 0.01137 0.58975 0.0
H134 H 0.11902 0.13143 0.57186 0.0
H135 H 0.02777 0.14367 0.59592 0.0
H136 H 0.97629 0.93028 0.50684 0.0
H137 H 0.06862 0.91815 0.48572 0.0
C138 C 0.61362 0.9975 1.01388 0.0
N139 N 0.57285 0.0749 1.00679 0.0
C140 C 0.60071 0.08583 1.00919 0.0
C141 C 0.60705 0.11156 0.99808 0.0
C142 C 0.58451 0.12627 0.98434 0.0
C143 C 0.55603 0.11433 0.98181 0.0
C144 C 0.55067 0.08845 0.99323 0.0
Zn145 Zn 0.56467 0.03808 0.02512 0.0
C146 C 0.53046 0.99956 0.98863 0.0
N147 N 0.54871 0.96128 0.06437 0.0
C148 C 0.57154 0.94688 0.07597 0.0
C149 C 0.52041 0.95116 0.06406 0.0
C150 C 0.51423 0.92544 0.07537 0.0
C151 C 0.53747 0.90967 0.08678 0.0
C152 C 0.56642 0.92088 0.08721 0.0
Zn153 Zn 0.55684 0.99821 0.04595 0.0
O154 O 0.60541 0.02207 1.0091 0.0
C155 C 0.5906 0.03692 0.08261 0.0
O156 O 0.59748 0.98242 0.02907 0.0
H157 H 0.50258 0.96291 0.05471 0.0
H158 H 0.61797 0.07476 0.02018 0.0
H159 H 0.59387 0.95535 0.07606 0.0
O160 O 0.58744 0.05207 0.06151 0.0
O161 O 0.58041 0.01244 0.08186 0.0
H162 H 0.52869 0.07931 0.99155 0.0
O163 O 0.51633 0.01472 0.06249 0.0
O164 O 0.52403 0.05373 0.04122 0.0
O165 O 0.53328 0.98441 1.00979 0.0
O166 O 0.54149 0.02373 0.98918 0.0
C167 C 0.50807 0.03914 0.05698 0.0
H168 H 0.62919 0.12017 1.00094 0.0
H169 H 0.53809 0.12489 0.97119 0.0
H170 H 0.49146 0.91797 0.07501 0.0
H171 H 0.58513 0.90943 0.09545 0.0
C172 C 0.55255 0.47371 0.50981 0.0
N173 N 0.54895 0.5077 0.58946 0.0
C174 C 0.53961 0.48365 0.60083 0.0
C175 C 0.54388 0.47887 0.62892 0.0
C176 C 0.55768 0.49915 0.64541 0.0
C177 C 0.5675 0.5235 0.63284 0.0
C178 C 0.56309 0.52726 0.60482 0.0
Zn179 Zn 0.53968 0.51774 0.54961 0.0
C180 C 0.59225 0.54362 0.52295 0.0
N181 N 0.52013 0.5433 0.46779 0.0
C182 C 0.50572 0.525 0.45112 0.0
C183 C 0.53023 0.56781 0.45803 0.0
C184 C 0.52677 0.57433 0.43028 0.0
C185 C 0.51275 0.55546 0.41243 0.0
C186 C 0.50174 0.5307 0.42328 0.0
Zn187 Zn 0.52905 0.53234 0.50745 0.0
O188 O 0.55323 0.47817 0.53553 0.0
C189 C 0.47651 0.50628 0.53404 0.0
O190 O 0.54326 0.4926 0.49381 0.0
H191 H 0.54161 0.58206 0.47167 0.0
H192 H 0.52833 0.46841 0.58823 0.0
H193 H 0.49802 0.50557 0.45926 0.0
O194 O 0.49516 0.50354 0.55371 0.0
O195 O 0.48487 0.51747 0.51186 0.0
H196 H 0.57023 0.5463 0.59547 0.0
O197 O 0.51511 0.57197 0.5217 0.0
O198 O 0.52604 0.55749 0.5631 0.0
O199 O 0.57339 0.54697 0.50359 0.0
O200 O 0.58406 0.53198 0.54493 0.0
C201 C 0.51653 0.57645 0.54738 0.0
H202 H 0.53625 0.45964 0.63761 0.0
H203 H 0.57766 0.54003 0.64462 0.0
H204 H 0.5353 0.59378 0.42283 0.0
H205 H 0.49117 0.51538 0.41023 0.0
C206 C 0.04409 0.57666 0.04264 0.0
N207 N 0.0435 0.54705 0.12413 0.0
C208 C 0.05328 0.57164 0.13423 0.0
C209 C 0.04703 0.57923 0.16118 0.0
C210 C 0.03039 0.56142 0.17779 0.0
C211 C 0.02004 0.53647 0.16658 0.0
C212 C 0.02696 0.52963 0.13965 0.0
Zn213 Zn 0.05534 0.53451 0.08581 0.0
C214 C 1.00491 0.50644 0.05618 0.0
N215 N 0.08042 0.50607 1.00683 0.0
C216 C 0.09461 0.52525 0.99135 0.0
C217 C 0.07344 0.48078 0.99653 0.0
C218 C 0.08018 0.47427 0.96937 0.0
C219 C 0.0938 0.49416 0.95276 0.0
C220 C 0.10137 0.51975 0.96416 0.0
Zn221 Zn 0.06828 0.51797 0.04523 0.0
O222 O 0.04215 0.57364 0.06849 0.0
C223 C 0.11896 0.54586 0.07434 0.0
O224 O 0.05423 0.55688 0.02855 0.0
H225 H 0.0621 0.46588 1.0092 0.0
H226 H 0.06638 0.58518 0.12153 0.0
H227 H 0.10021 0.54514 0.99994 0.0
O228 O 0.09955 0.54949 0.0927 0.0
O229 O 0.11152 0.53353 0.05234 0.0
H230 H 0.01963 0.51008 0.13132 0.0
O231 O 0.08182 0.47928 0.06239 0.0
O232 O 0.06863 0.49499 0.10253 0.0
O233 O 0.02499 0.50235 0.03857 0.0
O234 O 0.01139 0.51945 0.0781 0.0
C235 C 0.07917 0.47557 0.08809 0.0
H236 H 0.05523 0.59875 0.16898 0.0
H237 H 1.00752 0.52195 0.17877 0.0
H238 H 0.07396 0.4543 0.96118 0.0
H239 H 0.11226 0.53546 0.95208 0.0
C240 C 0.16175 0.18443 0.2943 0.0
C241 C 0.16973 0.16899 0.27116 0.0
C242 C 0.15127 0.17141 0.31807 0.0
C243 C 0.14875 0.10243 0.35284 0.0
H244 H 0.09007 0.13772 0.39827 0.0
C245 C 0.09158 0.04676 0.44456 0.0
C246 C 0.0871 0.06227 0.46851 0.0
C247 C 0.10184 0.05938 0.42047 0.0
C248 C 0.10668 0.12763 0.38598 0.0
H249 H 0.17167 0.12761 0.25477 0.0
H250 H 0.15297 0.10507 0.29567 0.0
H251 H 0.10671 0.16039 0.35661 0.0
H252 H 0.09035 0.10337 0.48568 0.0
H253 H 0.1081 0.12516 0.44399 0.0
H254 H 0.14836 0.06951 0.38216 0.0
C255 C 0.15561 0.12721 0.29594 0.0
C256 C 0.11634 0.14072 0.36199 0.0
C257 C 0.16627 0.1402 0.2723 0.0
C258 C 0.09346 0.09067 0.46772 0.0
C259 C 0.10346 0.10328 0.44365 0.0
C260 C 0.13892 0.08926 0.37673 0.0
C261 C 0.1482 0.14252 0.31938 0.0
C262 C 0.13762 0.12841 0.34501 0.0
C263 C 0.10766 0.0879 0.41959 0.0
C264 C 0.11783 0.1017 0.39375 0.0
H265 H 0.16439 0.20659 0.29434 0.0
H266 H 0.14626 0.18404 0.33566 0.0
H267 H 0.16554 0.09236 0.34077 0.0
H268 H 0.08687 0.02489 0.4443 0.0
H269 H 0.10458 0.04686 0.40234 0.0
C270 C 0.41773 0.88561 0.78534 0.0
C271 C 0.41014 0.90324 0.76349 0.0
C272 C 0.42986 0.89609 0.80987 0.0
C273 C 0.43967 0.96132 0.84988 0.0
H274 H 0.50005 0.9193 0.88875 0.0
C275 C 0.5098 1.00618 0.94076 0.0
C276 C 0.51525 0.98888 0.9634 0.0
C277 C 0.49625 0.9959 0.91675 0.0
C278 C 0.48299 0.93119 0.87832 0.0
H279 H 0.40978 0.94583 0.75038 0.0
H280 H 0.43134 0.96407 0.79284 0.0
H281 H 0.47826 0.90127 0.84636 0.0
H282 H 0.5104 0.94712 0.97841 0.0
H283 H 0.4869 0.92924 0.93658 0.0
H284 H 0.44488 0.99144 0.88175 0.0
C285 C 0.42731 0.94214 0.79135 0.0
C286 C 0.47038 0.92081 0.85396 0.0
C287 C 0.41497 0.93166 0.76689 0.0
C288 C 0.5066 0.96107 0.96142 0.0
C289 C 0.49328 0.95075 0.93733 0.0
C290 C 0.45245 0.97179 0.87416 0.0
C291 C 0.435 0.92452 0.81324 0.0
C292 C 0.44846 0.93567 0.83934 0.0
C293 C 0.48799 0.968 0.91462 0.0
C294 C 0.47426 0.95685 0.88875 0.0
H295 H 0.41392 0.86366 0.78362 0.0
H296 H 0.43487 0.88183 0.82632 0.0
H297 H 0.42253 0.97322 0.83961 0.0
H298 H 0.51616 0.02769 0.9415 0.0
H299 H 0.49279 1.00974 0.89961 0.0
C300 C 0.58523 0.47654 0.89577 0.0
C301 C 0.60824 0.49434 0.90439 0.0
C302 C 0.57348 0.47834 0.86912 0.0
C303 C 0.57491 0.52155 0.80556 0.0
H304 H 0.56211 0.45151 0.76899 0.0
C305 C 0.58575 0.50707 0.68963 0.0
C306 C 0.56089 0.49581 0.67565 0.0
C307 C 0.5874 0.50675 0.71818 0.0
C308 C 0.56527 0.47119 0.77907 0.0
H309 H 0.63698 0.52791 0.89233 0.0
H310 H 0.61723 0.53075 0.84574 0.0
H311 H 0.57115 0.45261 0.81844 0.0
H312 H 0.5188 0.47433 0.68104 0.0
H313 H 0.52254 0.47273 0.73113 0.0
H314 H 0.57083 0.53981 0.76572 0.0
C315 C 0.60732 0.51601 0.85958 0.0
C316 C 0.57026 0.47192 0.80742 0.0
C317 C 0.61876 0.51441 0.88626 0.0
C318 C 0.53841 0.48296 0.69103 0.0
C319 C 0.54037 0.48221 0.71969 0.0
C320 C 0.57046 0.52074 0.7772 0.0
C321 C 0.58498 0.49759 0.85042 0.0
C322 C 0.57578 0.49709 0.82096 0.0
C323 C 0.56457 0.49467 0.73344 0.0
C324 C 0.56618 0.49553 0.76369 0.0
H325 H 0.57713 0.46059 0.9093 0.0
H326 H 0.55599 0.4641 0.86297 0.0
H327 H 0.57833 0.54135 0.8153 0.0
H328 H 0.60391 0.51644 0.67854 0.0
H329 H 0.60657 0.516 0.7284 0.0
C330 C 0.96357 0.55532 0.41658 0.0
C331 C 0.98671 0.55782 0.43607 0.0
C332 C 0.96847 0.5619 0.38913 0.0
C333 C 0.02961 0.56606 0.33995 0.0
H334 H 0.9683 0.59579 0.29179 0.0
C335 C 0.99704 0.56253 0.21863 0.0
C336 C 0.02491 0.56803 0.207 0.0
C337 C 0.99263 0.56647 0.24665 0.0
C338 C 0.98561 0.58742 0.30499 0.0
H339 H 0.03227 0.57108 0.44291 0.0
H340 H 0.04097 0.58288 0.39484 0.0
H341 H 0.96015 0.59408 0.34116 0.0
H342 H 0.06983 0.58265 0.21556 0.0
H343 H 0.06206 0.58973 0.26449 0.0
H344 H 0.05481 0.55888 0.30379 0.0
C345 C 0.01926 0.57516 0.40057 0.0
C346 C 0.98095 0.58642 0.33326 0.0
C347 C 0.01432 0.56854 0.42804 0.0
C348 C 0.04803 0.5784 0.22386 0.0
C349 C 0.04367 0.58221 0.25193 0.0
C350 C 0.03429 0.56715 0.31172 0.0
C351 C 0.99658 0.57133 0.38068 0.0
C352 C 1.00267 0.57525 0.35103 0.0
C353 C 0.01605 0.57589 0.26371 0.0
C354 C 0.01214 0.57738 0.29387 0.0
H355 H 0.94196 0.54745 0.42245 0.0
H356 H 0.95056 0.55851 0.37439 0.0
H357 H 0.04663 0.55693 0.35294 0.0
H358 H 0.97871 0.55479 0.20612 0.0
H359 H 0.97117 0.56118 0.25511 0.0
C360 C 0.28131 0.11606 0.17518 0.0
C361 C 0.27073 0.14214 0.16748 0.0
C362 C 0.30779 0.10576 0.16435 0.0
C363 C 0.35811 0.11476 0.10494 0.0
H364 H 0.41134 0.06854 0.14769 0.0
C365 C 0.47164 0.07783 0.06323 0.0
C366 C 0.48069 0.05083 0.0694 0.0
C367 C 0.44645 0.0892 0.07547 0.0
C368 C 0.39657 0.08115 0.13533 0.0
H369 H 0.28036 0.17843 0.1435 0.0
H370 H 0.3269 0.16078 0.12487 0.0
H371 H 0.36775 0.08851 0.16918 0.0
H372 H 0.46995 0.01461 0.09332 0.0
H373 H 0.42593 0.03432 0.11446 0.0
H374 H 0.3869 0.10738 0.07109 0.0
C375 C 0.3144 0.14791 0.13876 0.0
C376 C 0.3715 0.09267 0.1477 0.0
C377 C 0.28789 0.15818 0.1496 0.0
C378 C 0.46372 0.03546 0.08806 0.0
C379 C 0.43854 0.04687 0.10037 0.0
C380 C 0.3832 0.10329 0.09259 0.0
C381 C 0.32453 0.12134 0.14561 0.0
C382 C 0.35182 0.10961 0.13268 0.0
C383 C 0.42956 0.07395 0.09431 0.0
C384 C 0.40279 0.08625 0.10757 0.0
H385 H 0.26859 0.10327 0.18899 0.0
H386 H 0.3146 0.08518 0.17002 0.0
H387 H 0.34329 0.12723 0.09249 0.0
H388 H 0.48417 0.09036 0.04904 0.0
H389 H 0.44053 0.1102 0.07049 0.0
C390 C 0.31127 0.91736 0.69944 0.0
C391 C 0.33606 0.90846 0.68459 0.0
C392 C 0.28666 0.92914 0.68597 0.0
C393 C 0.25045 0.93465 0.61683 0.0
H394 H 0.20558 0.99266 0.65138 0.0
C395 C 0.13688 0.97141 0.57274 0.0
C396 C 0.12961 0.99941 0.57504 0.0
C397 C 0.16249 0.96091 0.58565 0.0
C398 C 0.21799 0.97668 0.64122 0.0
H399 H 0.35469 0.90585 0.64395 0.0
H400 H 0.3122 0.92679 0.62054 0.0
H401 H 0.24956 0.97422 0.67445 0.0
H402 H 0.14407 0.03842 0.59234 0.0
H403 H 0.18902 0.02032 0.61423 0.0
H404 H 0.21943 0.93764 0.58326 0.0
C405 C 0.31131 0.92404 0.64254 0.0
C406 C 0.24307 0.96578 0.6547 0.0
C407 C 0.3358 0.91209 0.65599 0.0
C408 C 0.14888 0.01672 0.59023 0.0
C409 C 0.1746 1.00626 0.60299 0.0
C410 C 0.22548 0.94564 0.6033 0.0
C411 C 0.28623 0.93254 0.65728 0.0
C412 C 0.25965 0.94452 0.64275 0.0
C413 C 0.18171 0.97814 0.60107 0.0
C414 C 0.20877 0.96677 0.61532 0.0
H415 H 0.31056 0.91457 0.72145 0.0
H416 H 0.26767 0.93499 0.69806 0.0
H417 H 0.2623 0.91807 0.60703 0.0
H418 H 0.12249 0.95742 0.56136 0.0
H419 H 0.16684 0.9391 0.58398 0.0
C420 C 0.76076 0.43062 0.97165 0.0
C421 C 0.73643 0.44702 0.97889 0.0
C422 C 0.78928 0.43665 0.98171 0.0
C423 C 0.83097 0.47038 0.03688 0.0
H424 H 0.89396 0.4752 0.98349 0.0
C425 C 0.95007 0.50901 0.06449 0.0
C426 C 0.974 0.49738 0.0504 0.0
C427 C 0.9207 0.50223 0.0572 0.0
C428 C 0.87681 0.47347 0.99879 0.0
H429 H 0.72266 0.48222 1.00271 0.0
H430 H 0.77284 0.4926 0.02074 0.0
H431 H 0.84334 0.46461 0.96834 0.0
H432 H 0.98605 0.46851 0.01862 0.0
H433 H 0.93502 0.45587 1.00662 0.0
H434 H 0.86453 0.47859 0.06746 0.0
C435 C 0.76966 0.47514 1.00719 0.0
C436 C 0.84777 0.46757 0.99004 0.0
C437 C 0.74109 0.46932 0.99679 0.0
C438 C 0.96805 0.47805 0.02964 0.0
C439 C 0.93875 0.47098 0.02262 0.0
C440 C 0.86018 0.47594 0.04573 0.0
C441 C 0.79404 0.45903 0.99944 0.0
C442 C 0.82461 0.46589 1.00898 0.0
C443 C 0.91467 0.48342 0.03588 0.0
C444 C 0.8835 0.47745 0.02678 0.0
H445 H 0.75786 0.41349 0.95765 0.0
H446 H 0.80768 0.42382 0.97557 0.0
H447 H 0.81348 0.46899 0.0519 0.0
H448 H 0.95399 0.52408 0.08052 0.0
H449 H 0.90277 0.51244 0.06768 0.0
C450 C 0.86213 0.57962 0.50543 0.0
C451 C 0.87101 0.59503 0.48256 0.0
C452 C 0.83195 0.57429 0.50994 0.0
C453 C 0.75874 0.57097 0.475 0.0
H454 H 0.7276 0.58093 0.54805 0.0
C455 C 0.63273 0.56577 0.49564 0.0
C456 C 0.62376 0.55185 0.51941 0.0
C457 C 0.66278 0.57198 0.49153 0.0
C458 C 0.73598 0.57775 0.52759 0.0
H459 H 0.85536 0.61634 0.44612 0.0
H460 H 0.80266 0.60709 0.45401 0.0
H461 H 0.78046 0.58881 0.53989 0.0
H462 H 0.63929 0.53394 0.55774 0.0
H463 H 0.69168 0.54434 0.55036 0.0
H464 H 0.71445 0.55959 0.4627 0.0
C465 C 0.81901 0.5991 0.46844 0.0
C466 C 0.76627 0.58227 0.52293 0.0
C467 C 0.84915 0.60458 0.46404 0.0
C468 C 0.64543 0.54477 0.53923 0.0
C469 C 0.67549 0.55085 0.53506 0.0
C470 C 0.7285 0.5663 0.47968 0.0
C471 C 0.81006 0.58408 0.49155 0.0
C472 C 0.77797 0.57895 0.49658 0.0
C473 C 0.68458 0.56429 0.51103 0.0
C474 C 0.71672 0.56966 0.50603 0.0
H475 H 0.87846 0.57219 0.52018 0.0
H476 H 0.82574 0.56243 0.52778 0.0
H477 H 0.76718 0.5679 0.45454 0.0
H478 H 0.61657 0.57165 0.48004 0.0
H479 H 0.66891 0.58279 0.47303 0.0
C480 C 0.16848 0.24951 0.17122 0.0
C481 C 0.16994 0.24568 0.19985 0.0
C482 C 0.15758 0.274 0.15977 0.0
C483 C 0.14246 0.34761 0.17665 0.0
H484 H 0.09807 0.34574 0.10792 0.0
C485 C 0.0872 0.44547 0.12979 0.0
C486 C 0.08854 0.44907 0.10118 0.0
C487 C 0.09635 0.42074 0.14214 0.0
C488 C 0.1107 0.34675 0.12697 0.0
H489 H 0.1605 0.26512 0.23874 0.0
H490 H 0.14085 0.30752 0.21882 0.0
H491 H 0.11463 0.3029 0.12889 0.0
H492 H 0.1006 0.42908 0.06323 0.0
H493 H 0.11657 0.38615 0.08467 0.0
H494 H 0.1384 0.39151 0.1747 0.0
C495 C 0.14864 0.29165 0.20516 0.0
C496 C 0.12027 0.32206 0.13907 0.0
C497 C 0.1596 0.26709 0.21664 0.0
C498 C 0.09915 0.42713 0.08529 0.0
C499 C 0.10818 0.40236 0.09762 0.0
C500 C 0.13279 0.37231 0.16458 0.0
C501 C 0.14758 0.29558 0.17651 0.0
C502 C 0.13649 0.32204 0.16404 0.0
C503 C 0.10699 0.39877 0.12626 0.0
C504 C 0.11689 0.37231 0.13946 0.0
H505 H 0.17574 0.23348 0.15748 0.0
H506 H 0.15753 0.27615 0.13769 0.0
H507 H 0.15524 0.34866 0.19561 0.0
H508 H 0.07912 0.46182 0.14275 0.0
H509 H 0.0947 0.41875 0.16417 0.0
C510 C 0.62915 0.37174 0.95484 0.0
C511 C 0.65892 0.37873 0.9496 0.0
C512 C 0.61997 0.34421 0.95454 0.0
C513 C 0.65103 0.27447 0.96214 0.0
H514 H 0.57269 0.25094 0.9367 0.0
C515 C 0.61792 0.1606 0.96162 0.0
C516 C 0.59058 0.1544 0.97396 0.0
C517 C 0.62511 0.18765 0.9547 0.0
C518 C 0.5946 0.25728 0.94393 0.0
H519 H 0.70203 0.36276 0.93837 0.0
H520 H 0.686 0.31482 0.93731 0.0
H521 H 0.58762 0.29915 0.93187 0.0
H522 H 0.54885 0.17158 0.98765 0.0
H523 H 0.5614 0.21887 0.97541 0.0
H524 H 0.658 0.23278 0.97433 0.0
C525 C 0.66988 0.33041 0.94249 0.0
C526 C 0.60313 0.28486 0.94125 0.0
C527 C 0.67908 0.35785 0.94304 0.0
C528 C 0.56998 0.17565 0.97796 0.0
C529 C 0.57716 0.20274 0.97096 0.0
C530 C 0.64259 0.24697 0.96464 0.0
C531 C 0.64037 0.32319 0.94874 0.0
C532 C 0.63141 0.29379 0.95047 0.0
C533 C 0.6051 0.20908 0.9599 0.0
C534 C 0.61426 0.23809 0.95571 0.0
H535 H 0.61321 0.38749 0.96004 0.0
H536 H 0.59716 0.33936 0.95973 0.0
H537 H 0.67271 0.2807 0.97003 0.0
H538 H 0.63401 0.14459 0.95776 0.0
H539 H 0.64659 0.19189 0.94573 0.0
C540 C 0.93578 0.68578 0.48204 0.0
C541 C 0.94992 0.66582 0.46607 0.0
C542 C 0.94398 0.71338 0.48026 0.0
C543 C 1.00555 0.75931 0.46114 0.0
H544 H 0.94418 0.81468 0.46782 0.0
C545 C 0.02821 0.87793 0.46553 0.0
C546 C 0.01443 0.89098 0.48775 0.0
C547 C 0.02114 0.85061 0.45881 0.0
C548 C 0.96155 0.79945 0.46587 0.0
H549 H 0.98391 0.65922 0.43567 0.0
H550 H 0.99831 0.70784 0.43246 0.0
H551 H 0.93001 0.76653 0.46252 0.0
H552 H 0.98331 0.88489 0.52096 0.0
H553 H 0.97047 0.83791 0.50871 0.0
H554 H 0.03706 0.79256 0.46485 0.0
C555 C 0.98091 0.70194 0.44647 0.0
C556 C 0.95347 0.77187 0.46293 0.0
C557 C 0.97266 0.67414 0.44829 0.0
C558 C 0.99372 0.87594 0.5032 0.0
C559 C 0.98643 0.84891 0.49629 0.0
C560 C 0.01365 0.78706 0.46387 0.0
C561 C 0.96656 0.72186 0.46242 0.0
C562 C 0.97536 0.75137 0.46143 0.0
C563 C 0.99992 0.836 0.47398 0.0
C564 C 0.9917 0.80724 0.4671 0.0
H565 H 0.91876 0.68 0.4965 0.0
H566 H 0.93302 0.72802 0.4934 0.0
H567 H 0.02295 0.74402 0.46015 0.0
H568 H 0.0441 0.88891 0.45305 0.0
H569 H 0.03183 0.84107 0.44149 0.0
C570 C 0.45033 0.78592 0.67427 0.0
C571 C 0.43816 0.8075 0.65868 0.0
C572 C 0.4569 0.76063 0.66199 0.0
C573 C 0.47296 0.72977 0.5943 0.0
H574 H 0.46002 0.66078 0.6322 0.0
C575 C 0.49431 0.62388 0.54278 0.0
C576 C 0.50692 0.60313 0.55927 0.0
C577 C 0.48481 0.64869 0.55442 0.0
C578 C 0.46412 0.67985 0.6214 0.0
H579 H 0.42232 0.81925 0.61824 0.0
H580 H 0.43358 0.77513 0.59678 0.0
H581 H 0.44506 0.70376 0.65355 0.0
H582 H 0.51973 0.59251 0.601 0.0
H583 H 0.50373 0.63563 0.62107 0.0
H584 H 0.49233 0.70592 0.56228 0.0
C585 C 0.43855 0.7778 0.6184 0.0
C586 C 0.45548 0.70456 0.63368 0.0
C587 C 0.43189 0.80303 0.63072 0.0
C588 C 0.50998 0.60791 0.58762 0.0
C589 C 0.50057 0.63266 0.59922 0.0
C590 C 0.48169 0.70507 0.58204 0.0
C591 C 0.45147 0.75634 0.63379 0.0
C592 C 0.4599 0.72989 0.62037 0.0
C593 C 0.48771 0.65339 0.58285 0.0
C594 C 0.47756 0.67974 0.59548 0.0
H595 H 0.45537 0.78886 0.69586 0.0
H596 H 0.46705 0.74471 0.67446 0.0
H597 H 0.47713 0.74889 0.58358 0.0
H598 H 0.49152 0.62088 0.52089 0.0
H599 H 0.47475 0.66401 0.54116 0.0
C600 C 0.90149 0.90903 0.79502 0.0
C601 C 0.92162 0.89977 0.8154 0.0
C602 C 0.91168 0.92106 0.77067 0.0
C603 C 0.97827 0.9552 0.74013 0.0
H604 H 0.93709 0.9405 0.67126 0.0
C605 C 1.00723 0.01436 0.63997 0.0
C606 C 1.0074 0.99938 0.61527 0.0
C607 C 0.99632 1.00254 0.66418 0.0
C608 C 0.94904 0.94476 0.69024 0.0
H609 H 0.96861 0.89627 0.8257 0.0
H610 H 0.98633 0.91676 0.78324 0.0
H611 H 0.91974 0.91885 0.71325 0.0
H612 H 0.99579 0.96004 0.59695 0.0
H613 H 0.97696 0.93952 0.63894 0.0
H614 H 1.00788 0.98074 0.71704 0.0
C615 C 0.96253 0.91497 0.78619 0.0
C616 C 0.93883 0.93253 0.71449 0.0
C617 C 0.95233 0.90284 0.81051 0.0
C618 C 0.99597 0.97233 0.61547 0.0
C619 C 0.98499 0.96055 0.63964 0.0
C620 C 0.98841 0.96752 0.71589 0.0
C621 C 0.94239 0.92433 0.76586 0.0
C622 C 0.9533 0.93748 0.73986 0.0
C623 C 0.98514 0.97538 0.66447 0.0
C624 C 0.97401 0.96248 0.6905 0.0
H625 H 0.87769 0.90682 0.79776 0.0
H626 H 0.89538 0.92818 0.75576 0.0
H627 H 0.98989 0.95985 0.75919 0.0
H628 H 0.0158 0.03522 0.64071 0.0
H629 H 0.99649 0.01484 0.68269 0.0
C630 C 0.68656 0.11659 0.30852 0.0
C631 C 0.69016 0.14531 0.31045 0.0
C632 C 0.6766 0.1043 0.284 0.0
C633 C 0.67066 0.11643 0.20905 0.0
H634 H 0.61179 0.05785 0.2107 0.0
C635 C 0.61224 0.07629 0.11001 0.0
C636 C 0.60452 0.04825 0.10819 0.0
C637 C 0.62366 0.08745 0.13451 0.0
C638 C 0.62858 0.07388 0.20978 0.0
H639 H 0.68632 0.18352 0.28781 0.0
H640 H 0.66887 0.16216 0.24518 0.0
H641 H 0.62959 0.07841 0.25352 0.0
H642 H 0.60347 1.00987 0.13078 0.0
H643 H 0.62402 0.02912 0.17326 0.0
H644 H 0.66995 0.11183 0.1654 0.0
C645 C 0.67385 0.14909 0.2626 0.0
C646 C 0.63875 0.08575 0.23443 0.0
C647 C 0.68357 0.16138 0.28717 0.0
C648 C 0.60906 0.03156 0.13142 0.0
C649 C 0.62065 0.0427 0.15591 0.0
C650 C 0.66066 0.10446 0.18442 0.0
C651 C 0.67021 0.12037 0.26066 0.0
C652 C 0.6598 0.10731 0.23441 0.0
C653 C 0.6279 0.07089 0.15793 0.0
C654 C 0.63931 0.0831 0.18435 0.0
H655 H 0.69116 0.10357 0.32607 0.0
H656 H 0.67428 0.08213 0.28323 0.0
H657 H 0.68725 0.13267 0.20823 0.0
H658 H 0.60891 0.08985 0.09263 0.0
H659 H 0.62847 0.10928 0.13521 0.0
C660 C 0.48372 0.53904 0.16583 0.0
C661 C 0.50897 0.54422 0.14997 0.0
C662 C 0.48397 0.5452 0.19378 0.0
C663 C 0.53592 0.55446 0.25194 0.0
H664 H 0.46573 0.58106 0.28882 0.0
C665 C 0.53578 0.57163 0.36868 0.0
C666 C 0.51109 0.56068 0.38245 0.0
C667 C 0.53534 0.5741 0.34014 0.0
C668 C 0.48547 0.57352 0.27882 0.0
H669 H 0.55354 0.56134 0.15017 0.0
H670 H 0.55415 0.57219 0.19924 0.0
H671 H 0.46545 0.57735 0.2389 0.0
H672 H 0.46604 0.54503 0.37714 0.0
H673 H 0.46544 0.54891 0.32732 0.0
H674 H 0.55575 0.55008 0.29179 0.0
C675 C 0.53438 0.5628 0.19024 0.0
C676 C 0.48531 0.57139 0.25024 0.0
C677 C 0.53409 0.55664 0.16224 0.0
C678 C 0.48555 0.55323 0.36712 0.0
C679 C 0.48509 0.55575 0.33858 0.0
C680 C 0.53609 0.55661 0.28048 0.0
C681 C 0.50944 0.55683 0.2064 0.0
C682 C 0.51038 0.56143 0.23651 0.0
C683 C 0.51018 0.56574 0.32473 0.0
C684 C 0.51072 0.56578 0.29429 0.0
H685 H 0.46392 0.5299 0.15662 0.0
H686 H 0.46448 0.54013 0.20564 0.0
H687 H 0.55545 0.54633 0.24205 0.0
H688 H 0.5559 0.57735 0.37984 0.0
H689 H 0.55489 0.58218 0.3301 0.0
C690 C 0.16116 0.44488 0.71435 0.0
C691 C 0.14608 0.46169 0.69525 0.0
C692 C 0.15684 0.44821 0.74245 0.0
C693 C 0.13352 0.49767 0.79418 0.0
H694 H 0.11273 0.43345 0.83721 0.0
C695 C 0.09041 0.50842 0.90373 0.0
C696 C 0.09929 0.48894 0.9234 0.0
C697 C 0.09665 0.50448 0.8761 0.0
C698 C 0.11897 0.45154 0.82564 0.0
H699 H 0.11484 0.49542 0.69097 0.0
H700 H 0.10812 0.50171 0.74005 0.0
H701 H 0.12396 0.42828 0.78868 0.0
H702 H 0.12134 0.44993 0.92972 0.0
H703 H 0.13307 0.44325 0.88136 0.0
H704 H 0.12916 0.52096 0.83099 0.0
C705 C 0.12323 0.48595 0.73314 0.0
C706 C 0.12531 0.44856 0.79783 0.0
C707 C 0.12722 0.48241 0.70502 0.0
C708 C 0.11412 0.46516 0.91488 0.0
C709 C 0.12074 0.46136 0.88719 0.0
C710 C 0.12756 0.50062 0.82203 0.0
C711 C 0.13771 0.46866 0.75209 0.0
C712 C 0.13233 0.47164 0.7818 0.0
C713 C 0.11229 0.48112 0.86748 0.0
C714 C 0.11983 0.47765 0.83807 0.0
H715 H 0.17629 0.42907 0.70761 0.0
H716 H 0.16857 0.43485 0.75668 0.0
H717 H 0.13927 0.51574 0.78235 0.0
H718 H 0.07851 0.52674 0.90975 0.0
H719 H 0.08906 0.51977 0.86149 0.0
C720 C 0.84818 0.90253 0.92237 0.0
C721 C 0.8485 0.89915 0.89371 0.0
C722 C 0.82315 0.91329 0.93543 0.0
C723 C 0.75321 0.95298 0.92207 0.0
H724 H 0.73151 0.925 0.99349 0.0
C725 C 0.65984 1.00357 0.98563 0.0
C726 C 0.64118 0.98643 1.00117 0.0
C727 C 0.68521 0.99307 0.97292 0.0
C728 C 0.737 0.93295 0.97345 0.0
H729 H 0.82224 0.90435 0.85646 0.0
H730 H 0.77859 0.92278 0.87915 0.0
H731 H 0.77452 0.90616 0.97034 0.0
H732 H 0.6349 0.94461 0.01548 0.0
H733 H 0.67872 0.92621 0.99303 0.0
H734 H 0.71518 0.97919 0.92481 0.0
C735 C 0.79793 0.91762 0.89158 0.0
C736 C 0.76205 0.92236 0.96026 0.0
C737 C 0.82304 0.90697 0.8785 0.0
C738 C 0.64877 0.9585 1.0038 0.0
C739 C 0.67409 0.94795 0.99099 0.0
C740 C 0.72811 0.96351 0.93522 0.0
C741 C 0.79754 0.92093 0.92029 0.0
C742 C 0.77063 0.93221 0.93436 0.0
C743 C 0.69269 0.96504 0.97523 0.0
C744 C 0.71958 0.95371 0.96116 0.0
H745 H 0.8675 0.89719 0.93476 0.0
H746 H 0.82411 0.91597 0.95746 0.0
H747 H 0.75913 0.96142 0.90234 0.0
H748 H 0.65484 0.02522 0.98321 0.0
H749 H 0.69912 1.00708 0.96145 0.0
C750 C 0.78487 0.13376 0.37782 0.0
C751 C 0.76211 0.14789 0.39143 0.0
C752 C 0.8093 0.12294 0.39234 0.0
C753 C 0.83659 0.10661 0.46392 0.0
H754 H 0.91262 0.10126 0.42763 0.0
C755 C 0.95062 0.08298 0.51874 0.0
C756 C 0.96633 0.06085 0.50741 0.0
C757 C 0.92516 0.09343 0.50543 0.0
C758 C 0.89148 0.10258 0.43799 0.0
H759 H 0.74761 0.1611 0.43162 0.0
H760 H 0.79082 0.14414 0.45642 0.0
H761 H 0.86997 0.12039 0.40301 0.0
H762 H 0.96766 0.03252 0.4731 0.0
H763 H 0.92387 0.05136 0.44955 0.0
H764 H 0.85898 0.08978 0.49932 0.0
C765 C 0.78949 0.14057 0.43455 0.0
C766 C 0.86682 0.11334 0.42381 0.0
C767 C 0.76474 0.15087 0.4201 0.0
C768 C 0.95602 0.04947 0.48248 0.0
C769 C 0.93104 0.06033 0.46889 0.0
C770 C 0.86148 0.09643 0.47828 0.0
C771 C 0.81222 0.12636 0.42095 0.0
C772 C 0.83882 0.11532 0.43641 0.0
C773 C 0.91534 0.08241 0.4802 0.0
C774 C 0.88911 0.09408 0.46537 0.0
H775 H 0.7842 0.13127 0.35578 0.0
H776 H 0.82579 0.11172 0.38095 0.0
H777 H 0.81551 0.10716 0.47438 0.0
H778 H 0.95799 0.09219 0.5379 0.0
H779 H 0.9135 0.11052 0.51454 0.0
C780 C 0.38043 0.60157 0.13093 0.0
C781 C 0.39983 0.59225 0.1106 0.0
C782 C 0.34963 0.59825 0.12775 0.0
C783 C 0.29133 0.58856 0.07492 0.0
H784 H 0.24349 0.56147 0.13485 0.0
C785 C 0.17147 0.54953 0.05846 0.0
C786 C 0.15025 0.55474 0.0787 0.0
C787 C 0.20136 0.55638 0.06284 0.0
C788 C 0.25644 0.5695 0.11804 0.0
H789 H 0.40221 0.57219 0.07102 0.0
H790 H 0.34841 0.56621 0.06554 0.0
H791 H 0.29697 0.56853 0.14177 0.0
H792 H 0.14371 0.57184 0.11922 0.0
H793 H 0.19606 0.58421 0.12674 0.0
H794 H 0.25097 0.58955 0.05115 0.0
C795 C 0.35703 0.57622 0.08386 0.0
C796 C 0.28708 0.57345 0.12199 0.0
C797 C 0.38782 0.57937 0.08712 0.0
C798 C 0.15953 0.56749 0.10325 0.0
C799 C 0.18954 0.57441 0.10763 0.0
C800 C 0.26072 0.58475 0.071 0.0
C801 C 0.3376 0.58573 0.10408 0.0
C802 C 0.30489 0.58267 0.10035 0.0
C803 C 0.21083 0.56874 0.08753 0.0
C804 C 0.24296 0.5748 0.0924 0.0
H805 H 0.3891 0.61138 0.14934 0.0
H806 H 0.3352 0.6059 0.14361 0.0
H807 H 0.30441 0.59619 0.05801 0.0
H808 H 0.16512 0.53967 0.03932 0.0
H809 H 0.21718 0.55131 0.0471 0.0
C810 C 0.22236 0.49658 0.60773 0.0
C811 C 0.20027 0.50372 0.58841 0.0
C812 C 0.25097 0.48971 0.59922 0.0
C813 C 0.30096 0.50509 0.54274 0.0
H814 H 0.35331 0.4531 0.57927 0.0
C815 C 0.42477 0.4994 0.51522 0.0
C816 C 0.44492 0.49823 0.5375 0.0
C817 C 0.39441 0.49446 0.51901 0.0
C818 C 0.339 0.46779 0.56894 0.0
H819 H 0.18962 0.50691 0.54515 0.0
H820 H 0.2397 0.4948 0.5301 0.0
H821 H 0.30036 0.4537 0.59027 0.0
H822 H 0.44913 0.48986 0.58106 0.0
H823 H 0.39614 0.48187 0.5878 0.0
H824 H 0.3395 0.51998 0.5222 0.0
C825 C 0.23516 0.49509 0.55184 0.0
C826 C 0.30867 0.46807 0.5752 0.0
C827 C 0.20653 0.50189 0.56039 0.0
C828 C 0.4342 0.49092 0.56345 0.0
C829 C 0.40379 0.48616 0.56728 0.0
C830 C 0.33123 0.50489 0.53658 0.0
C831 C 0.25795 0.48977 0.5712 0.0
C832 C 0.2894 0.48704 0.56247 0.0
C833 C 0.38342 0.48842 0.54521 0.0
C834 C 0.35076 0.48656 0.54992 0.0
H835 H 0.21784 0.49757 0.62946 0.0
H836 H 0.268 0.48583 0.61467 0.0
H837 H 0.28687 0.5203 0.53291 0.0
H838 H 0.43235 0.50469 0.49489 0.0
H839 H 0.37945 0.49584 0.50145 0.0
C840 C 0.9583 0.76563 0.89323 0.0
C841 C 0.93916 0.78527 0.90455 0.0
C842 C 0.97147 0.74524 0.90968 0.0
C843 C 0.96217 0.70877 0.97647 0.0
H844 H 0.04039 0.68023 0.96018 0.0
C845 C 0.01907 0.6233 0.04289 0.0
C846 C 0.034 0.60244 0.02863 0.0
C847 C 1.00867 0.64691 0.02914 0.0
C848 C 0.0184 0.68775 0.96492 0.0
H849 H 0.91945 0.79925 0.9422 0.0
H850 H 0.9429 0.76405 0.97119 0.0
H851 H 0.02094 0.71915 0.93422 0.0
H852 H 0.04988 0.59048 0.98858 0.0
H853 H 0.0319 0.63131 0.96484 0.0
H854 H 0.9597 0.67724 1.00717 0.0
C855 C 0.9474 0.76405 0.94945 0.0
C856 C 1.00716 0.71017 0.94995 0.0
C857 C 0.93419 0.78446 0.93293 0.0
C858 C 0.03855 0.60605 1.00034 0.0
C859 C 0.02836 0.62965 0.98669 0.0
C860 C 0.97348 0.68639 0.99153 0.0
C861 C 0.96595 0.74384 0.93803 0.0
C862 C 0.9787 0.72089 0.95522 0.0
C863 C 0.01312 0.65043 1.0008 0.0
C864 C 1.00164 0.67531 0.98578 0.0
H865 H 0.96241 0.76552 0.8714 0.0
H866 H 0.98519 0.72998 0.89989 0.0
H867 H 0.94002 0.71602 0.981 0.0
H868 H 0.01511 0.62128 0.06464 0.0
H869 H 0.99731 0.66252 0.04081 0.0
C870 C 0.50991 0.66609 0.11515 0.0
C871 C 0.48598 0.65533 0.13013 0.0
C872 C 0.51791 0.69379 0.11751 0.0
C873 C 0.48301 0.75946 0.13087 0.0
H874 H 0.56365 0.78811 0.1266 0.0
C875 C 0.51073 0.86426 0.08362 0.0
C876 C 0.53166 0.88135 0.0971 0.0
C877 C 0.50559 0.83749 0.09273 0.0
C878 C 0.54103 0.78044 0.12815 0.0
H879 H 0.45323 0.66481 0.16097 0.0
H880 H 0.46692 0.71338 0.16471 0.0
H881 H 0.55549 0.73902 0.1351 0.0
H882 H 0.56333 0.88352 0.13113 0.0
H883 H 0.55486 0.83628 0.14652 0.0
H884 H 0.46852 0.80063 0.12301 0.0
C885 C 0.47923 0.70035 0.15093 0.0
C886 C 0.53637 0.75236 0.13283 0.0
C887 C 0.47136 0.67258 0.14871 0.0
C888 C 0.54735 0.87086 0.11999 0.0
C889 C 0.54244 0.84388 0.12892 0.0
C890 C 0.48767 0.78742 0.12594 0.0
C891 C 0.50206 0.71139 0.1348 0.0
C892 C 0.5073 0.74152 0.13368 0.0
C893 C 0.52147 0.82697 0.11536 0.0
C894 C 0.5167 0.79807 0.12394 0.0
H895 H 0.52144 0.65352 0.1004 0.0
H896 H 0.53538 0.70176 0.10458 0.0
H897 H 0.46035 0.75169 0.13115 0.0
H898 H 0.49873 0.87129 0.06555 0.0
H899 H 0.4897 0.82473 0.08157 0.0
C900 C 0.16535 0.37481 0.62911 0.0
C901 C 0.14879 0.39605 0.61682 0.0
C902 C 0.15883 0.34733 0.62305 0.0
C903 C 0.09562 0.30434 0.60295 0.0
H904 H 0.15475 0.24773 0.59209 0.0
C905 C 0.06315 0.19145 0.5797 0.0
C906 C 0.08144 0.17066 0.59055 0.0
C907 C 0.07147 0.21909 0.58224 0.0
C908 C 0.13796 0.26322 0.59549 0.0
H909 H 0.11327 0.40532 0.58778 0.0
H910 H 0.10185 0.35722 0.57715 0.0
H911 H 0.17043 0.29573 0.59586 0.0
H912 H 0.12206 0.16245 0.61354 0.0
H913 H 0.13619 0.2107 0.61876 0.0
H914 H 0.0632 0.27198 0.60342 0.0
C915 C 0.11981 0.36186 0.59152 0.0
C916 C 0.14697 0.29072 0.59745 0.0
C917 C 0.12655 0.38936 0.59736 0.0
C918 C 0.1077 0.17808 0.60476 0.0
C919 C 0.11588 0.20571 0.60754 0.0
C920 C 0.08662 0.27684 0.60127 0.0
C921 C 0.1354 0.34059 0.60481 0.0
C922 C 0.12589 0.31155 0.60125 0.0
C923 C 0.09814 0.22656 0.5959 0.0
C924 C 0.10768 0.2559 0.5976 0.0
H925 H 0.18265 0.37947 0.64415 0.0
H926 H 0.17113 0.33136 0.63367 0.0
H927 H 0.07892 0.31994 0.60636 0.0
H928 H 0.043 0.18629 0.5683 0.0
H929 H 0.05743 0.23451 0.57271 0.0
C930 C 0.64051 0.26552 0.39056 0.0
C931 C 0.65336 0.24569 0.40793 0.0
C932 C 0.63094 0.29078 0.40107 0.0
C933 C 0.6373 0.33696 0.46222 0.0
H934 H 0.56237 0.36582 0.43454 0.0
C935 C 0.57644 0.42715 0.51534 0.0
C936 C 0.56343 0.44726 0.49832 0.0
C937 C 0.58776 0.4028 0.50422 0.0
C938 C 0.58349 0.35825 0.44233 0.0
H939 H 0.66712 0.23707 0.44976 0.0
H940 H 0.65022 0.28087 0.4682 0.0
H941 H 0.58236 0.32379 0.41501 0.0
H942 H 0.55197 0.45725 0.45613 0.0
H943 H 0.57166 0.41498 0.43683 0.0
H944 H 0.63822 0.37135 0.48973 0.0
C945 C 0.64772 0.27719 0.4464 0.0
C946 C 0.59504 0.33411 0.43106 0.0
C947 C 0.65732 0.25198 0.43587 0.0
C948 C 0.56174 0.44223 0.46992 0.0
C949 C 0.57294 0.41787 0.45883 0.0
C950 C 0.62569 0.36107 0.47355 0.0
C951 C 0.63399 0.29684 0.42924 0.0
C952 C 0.62211 0.32306 0.44084 0.0
C953 C 0.58625 0.39785 0.47578 0.0
C954 C 0.5986 0.37205 0.46379 0.0
H955 H 0.63729 0.26119 0.36894 0.0
H956 H 0.621 0.30552 0.38709 0.0
H957 H 0.65841 0.3294 0.47005 0.0
H958 H 0.57813 0.43029 0.53729 0.0
H959 H 0.59749 0.38773 0.51796 0.0
loop_
_geom_bond_atom_site_label_1
_geom_bond_atom_site_label_2
_geom_bond_distance
_geom_bond_site_symmetry_2
_ccdc_geom_bond_type
H0 C7 0.929 . S
H1 C10 0.930 . S
H2 C12 0.929 . S
H3 C4 0.969 . S
C4 H3 0.969 . S
C4 O5 1.550 . S
C4 H6 0.973 . S
O5 C4 1.550 . S
O5 C11 1.412 . S
H6 C4 0.973 . S
C7 H0 0.929 . S
C7 C8 1.400 . S
C7 C9 1.364 . S
C8 C7 1.400 . S
C8 C12 1.377 . S
C9 C7 1.364 . S
C9 C10 1.374 . S
C10 H1 0.930 . S
C10 C9 1.374 . S
C10 C11 1.383 . S
C11 O5 1.412 . S
C11 C10 1.383 . S
C11 C12 1.394 . S
C12 H2 0.929 . S
C12 C8 1.377 . S
C12 C11 1.394 . S
H13 C20 0.929 . S
H14 C23 0.930 . S
H15 C25 0.929 . S
H16 C17 0.969 . S
C17 H16 0.969 . S
C17 O18 1.550 . S
C17 H19 0.973 . S
O18 C17 1.550 . S
O18 C24 1.412 . S
H19 C17 0.973 . S
C20 H13 0.929 . S
C20 C21 1.400 . S
C20 C22 1.364 . S
C21 C20 1.400 . S
C21 C25 1.377 . S
C22 C20 1.364 . S
C22 C23 1.374 . S
C23 H14 0.930 . S
C23 C22 1.374 . S
C23 C24 1.383 . S
C24 O18 1.412 . S
C24 C23 1.383 . S
C24 C25 1.394 . S
C25 H15 0.929 . S
C25 C21 1.377 . S
C25 C24 1.394 . S
H26 C33 0.929 . S
H27 C36 0.930 . S
H28 C38 0.929 . S
H29 C30 0.969 . S
C30 H29 0.969 . S
C30 O31 1.550 . S
C30 H32 0.973 . S
O31 C30 1.550 . S
O31 C37 1.412 . S
H32 C30 0.973 . S
C33 H26 0.929 . S
C33 C34 1.400 . S
C33 C35 1.364 . S
C34 C33 1.400 . S
C34 C38 1.377 . S
C35 C33 1.364 . S
C35 C36 1.374 . S
C36 H27 0.930 . S
C36 C35 1.374 . S
C36 C37 1.383 . S
C37 O31 1.412 . S
C37 C36 1.383 . S
C37 C38 1.394 . S
C38 H28 0.929 . S
C38 C34 1.377 . S
C38 C37 1.394 . S
H39 C46 0.929 . S
H40 C49 0.930 . S
H41 C51 0.929 . S
H42 C43 0.969 . S
C43 H42 0.969 . S
C43 O44 1.550 . S
C43 H45 0.973 . S
O44 C43 1.550 . S
O44 C50 1.412 . S
H45 C43 0.973 . S
C46 H39 0.929 . S
C46 C47 1.400 . S
C46 C48 1.364 . S
C47 C46 1.400 . S
C47 C51 1.377 . S
C48 C46 1.364 . S
C48 C49 1.374 . S
C49 H40 0.930 . S
C49 C48 1.374 . S
C49 C50 1.383 . S
C50 O44 1.412 . S
C50 C49 1.383 . S
C50 C51 1.394 . S
C51 H41 0.929 . S
C51 C47 1.377 . S
C51 C50 1.394 . S
H52 C59 0.929 . S
H53 C62 0.930 . S
H54 C64 0.929 . S
H55 C56 0.969 . S
C56 H55 0.969 . S
C56 O57 1.550 . S
C56 H58 0.973 . S
O57 C56 1.550 . S
O57 C63 1.412 . S
H58 C56 0.973 . S
C59 H52 0.929 . S
C59 C60 1.400 . S
C59 C61 1.364 . S
C60 C59 1.400 . S
C60 C64 1.377 . S
C61 C59 1.364 . S
C61 C62 1.374 . S
C62 H53 0.930 . S
C62 C61 1.374 . S
C62 C63 1.383 . S
C63 O57 1.412 . S
C63 C62 1.383 . S
C63 C64 1.394 . S
C64 H54 0.929 . S
C64 C60 1.377 . S
C64 C63 1.394 . S
H65 C72 0.929 . S
H66 C75 0.930 . S
H67 C77 0.929 . S
H68 C69 0.969 . S
C69 H68 0.969 . S
C69 O70 1.550 . S
C69 H71 0.973 . S
O70 C69 1.550 . S
O70 C76 1.412 . S
H71 C69 0.973 . S
C72 H65 0.929 . S
C72 C73 1.400 . S
C72 C74 1.364 . S
C73 C72 1.400 . S
C73 C77 1.377 . S
C74 C72 1.364 . S
C74 C75 1.374 . S
C75 H66 0.930 . S
C75 C74 1.374 . S
C75 C76 1.383 . S
C76 O70 1.412 . S
C76 C75 1.383 . S
C76 C77 1.394 . S
C77 H67 0.929 . S
C77 C73 1.377 . S
C77 C76 1.394 . S
H78 C85 0.929 . S
H79 C88 0.930 . S
H80 C90 0.929 . S
H81 C82 0.969 . S
C82 H81 0.969 . S
C82 O83 1.550 . S
C82 H84 0.973 . S
O83 C82 1.550 . S
O83 C89 1.412 . S
H84 C82 0.973 . S
C85 H78 0.929 . S
C85 C86 1.400 . S
C85 C87 1.364 . S
C86 C85 1.400 . S
C86 C90 1.377 . S
C87 C85 1.364 . S
C87 C88 1.374 . S
C88 H79 0.930 . S
C88 C87 1.374 . S
C88 C89 1.383 . S
C89 O83 1.412 . S
C89 C88 1.383 . S
C89 C90 1.394 . S
C90 H80 0.929 . S
C90 C86 1.377 . S
C90 C89 1.394 . S
H91 C98 0.929 . S
H92 C101 0.930 . S
H93 C103 0.929 . S
H94 C95 0.969 . S
C95 H94 0.969 . S
C95 O96 1.550 . S
C95 H97 0.973 . S
O96 C95 1.550 . S
O96 C102 1.412 . S
H97 C95 0.973 . S
C98 H91 0.929 . S
C98 C99 1.400 . S
C98 C100 1.364 . S
C99 C98 1.400 . S
C99 C103 1.377 . S
C100 C98 1.364 . S
C100 C101 1.374 . S
C101 H92 0.930 . S
C101 C100 1.374 . S
C101 C102 1.383 . S
C102 O96 1.412 . S
C102 C101 1.383 . S
C102 C103 1.394 . S
C103 H93 0.929 . S
C103 C99 1.377 . S
C103 C102 1.394 . S
C104 O120 1.251 . S
C104 O122 1.254 . S
N105 C106 1.333 . S
N105 C110 1.307 . S
N105 Zn111 2.020 . S
C106 N105 1.333 . S
C106 C107 1.379 . S
C106 H124 0.952 . S
C107 C106 1.379 . S
C107 C108 1.390 . S
C107 H134 0.949 . S
C108 C107 1.390 . S
C108 C109 1.357 . S
C109 C108 1.357 . S
C109 C110 1.370 . S
C109 H135 0.950 . S
C110 N105 1.307 . S
C110 C109 1.370 . S
C110 H128 0.948 . S
Zn111 N105 2.020 . S
Zn111 O120 2.039 . S
Zn111 O126 2.034 . S
Zn111 O130 2.025 . S
Zn111 O132 2.024 1_455 S
C112 O131 1.246 . S
C112 O132 1.249 . S
N113 C114 1.307 1_655 S
N113 C115 1.333 . S
N113 Zn119 2.020 1_655 S
C114 N113 1.307 1_455 S
C114 C118 1.370 . S
C114 H125 0.948 . S
C115 N113 1.333 . S
C115 C116 1.379 . S
C115 H123 0.952 . S
C116 C115 1.379 . S
C116 C117 1.390 . S
C116 H136 0.949 . S
C117 C116 1.390 . S
C117 C118 1.357 1_655 S
C118 C114 1.370 . S
C118 C117 1.357 1_455 S
C118 H137 0.950 . S
Zn119 N113 2.020 1_455 S
Zn119 O122 2.025 1_565 S
Zn119 O127 2.024 . S
Zn119 O129 2.039 . S
Zn119 O131 2.034 1_465 S
O120 C104 1.251 . S
O120 Zn111 2.039 . S
C121 O126 1.246 . S
C121 O127 1.249 1_545 S
O122 C104 1.254 . S
O122 Zn119 2.025 1_545 S
H123 C115 0.952 . S
H124 C106 0.952 . S
H125 C114 0.948 . S
O126 Zn111 2.034 . S
O126 C121 1.246 . S
O127 Zn119 2.024 . S
O127 C121 1.249 1_565 S
H128 C110 0.948 . S
O129 Zn119 2.039 . S
O129 C133 1.251 1_565 S
O130 Zn111 2.025 . S
O130 C133 1.254 . S
O131 C112 1.246 . S
O131 Zn119 2.034 1_645 S
O132 Zn111 2.024 1_655 S
O132 C112 1.249 . S
C133 O129 1.251 1_545 S
C133 O130 1.254 . S
H134 C107 0.949 . S
H135 C109 0.950 . S
H136 C116 0.949 . S
H137 C118 0.950 . S
C138 O154 1.288 . S
C138 O156 1.229 1_545 S
N139 C140 1.332 . S
N139 C144 1.309 . S
N139 Zn145 2.018 1_556 S
C140 N139 1.332 . S
C140 C141 1.387 . S
C140 H158 0.945 1_556 S
C141 C140 1.387 . S
C141 C142 1.390 . S
C141 H168 0.949 . S
C142 C141 1.390 . S
C142 C143 1.357 . S
C143 C142 1.357 . S
C143 C144 1.370 . S
C143 H169 0.950 . S
C144 N139 1.309 . S
C144 C143 1.370 . S
C144 H162 0.948 . S
Zn145 N139 2.018 1_554 S
Zn145 O154 2.039 . S
Zn145 O160 2.034 . S
Zn145 O164 2.025 . S
Zn145 O166 2.024 1_554 S
C146 O165 1.246 1_545 S
C146 O166 1.249 . S
N147 C148 1.307 . S
N147 C149 1.333 . S
N147 Zn153 2.020 . S
C148 N147 1.307 . S
C148 C152 1.370 . S
C148 H159 0.948 . S
C149 N147 1.333 . S
C149 C150 1.379 . S
C149 H157 0.952 . S
C150 C149 1.379 . S
C150 C151 1.390 . S
C150 H170 0.949 . S
C151 C150 1.390 . S
C151 C152 1.357 . S
C152 C148 1.370 . S
C152 C151 1.357 . S
C152 H171 0.950 . S
Zn153 N147 2.020 . S
Zn153 O156 2.025 . S
Zn153 O161 2.024 1_565 S
Zn153 O163 2.039 1_565 S
Zn153 O165 2.034 1_554 S
O154 C138 1.288 . S
O154 Zn145 2.039 . S
C155 O160 1.246 . S
C155 O161 1.249 . S
O156 C138 1.229 1_565 S
O156 Zn153 2.025 . S
H157 C149 0.952 . S
H158 C140 0.945 1_554 S
H159 C148 0.948 . S
O160 Zn145 2.034 . S
O160 C155 1.246 . S
O161 Zn153 2.024 1_545 S
O161 C155 1.249 . S
H162 C144 0.948 . S
O163 Zn153 2.039 1_545 S
O163 C167 1.251 . S
O164 Zn145 2.025 . S
O164 C167 1.254 . S
O165 C146 1.246 1_565 S
O165 Zn153 2.034 1_556 S
O166 Zn145 2.024 1_556 S
O166 C146 1.249 . S
C167 O163 1.251 . S
C167 O164 1.254 . S
H168 C141 0.949 . S
H169 C143 0.950 . S
H170 C150 0.949 . S
H171 C152 0.950 . S
C172 O188 1.251 . S
C172 O190 1.254 . S
N173 C174 1.333 . S
N173 C178 1.307 . S
N173 Zn179 2.020 . S
C174 N173 1.333 . S
C174 C175 1.379 . S
C174 H192 0.952 . S
C175 C174 1.379 . S
C175 C176 1.390 . S
C175 H202 0.949 . S
C176 C175 1.390 . S
C176 C177 1.357 . S
C177 C176 1.357 . S
C177 C178 1.370 . S
C177 H203 0.950 . S
C178 N173 1.307 . S
C178 C177 1.370 . S
C178 H196 0.948 . S
Zn179 N173 2.020 . S
Zn179 O188 2.039 . S
Zn179 O194 2.034 . S
Zn179 O198 2.025 . S
Zn179 O200 2.024 . S
C180 O199 1.246 . S
C180 O200 1.249 . S
N181 C182 1.307 . S
N181 C183 1.333 . S
N181 Zn187 2.020 . S
C182 N181 1.307 . S
C182 C186 1.370 . S
C182 H193 0.948 . S
C183 N181 1.333 . S
C183 C184 1.379 . S
C183 H191 0.952 . S
C184 C183 1.379 . S
C184 C185 1.390 . S
C184 H204 0.949 . S
C185 C184 1.390 . S
C185 C186 1.357 . S
C186 C182 1.370 . S
C186 C185 1.357 . S
C186 H205 0.950 . S
Zn187 N181 2.020 . S
Zn187 O190 2.025 . S
Zn187 O195 2.024 . S
Zn187 O197 2.039 . S
Zn187 O199 2.034 . S
O188 C172 1.251 . S
O188 Zn179 2.039 . S
C189 O194 1.246 . S
C189 O195 1.249 . S
O190 C172 1.254 . S
O190 Zn187 2.025 . S
H191 C183 0.952 . S
H192 C174 0.952 . S
H193 C182 0.948 . S
O194 Zn179 2.034 . S
O194 C189 1.246 . S
O195 Zn187 2.024 . S
O195 C189 1.249 . S
H196 C178 0.948 . S
O197 Zn187 2.039 . S
O197 C201 1.251 . S
O198 Zn179 2.025 . S
O198 C201 1.254 . S
O199 C180 1.246 . S
O199 Zn187 2.034 . S
O200 Zn179 2.024 . S
O200 C180 1.249 . S
C201 O197 1.251 . S
C201 O198 1.254 . S
H202 C175 0.949 . S
H203 C177 0.950 . S
H204 C184 0.949 . S
H205 C186 0.950 . S
C206 O222 1.251 . S
C206 O224 1.254 1_554 S
N207 C208 1.333 . S
N207 C212 1.307 . S
N207 Zn213 2.020 . S
C208 N207 1.333 . S
C208 C209 1.379 . S
C208 H226 0.952 . S
C209 C208 1.379 . S
C209 C210 1.395 . S
C209 H236 0.949 . S
C210 C209 1.395 . S
C210 C211 1.356 1_455 S
C211 C210 1.356 1_655 S
C211 C212 1.370 1_655 S
C211 H237 0.950 . S
C212 N207 1.307 . S
C212 C211 1.370 1_455 S
C212 H230 0.948 . S
Zn213 N207 2.020 . S
Zn213 O222 2.039 . S
Zn213 O228 2.034 . S
Zn213 O232 2.025 . S
Zn213 O234 2.024 1_455 S
C214 O233 1.246 1_654 S
C214 O234 1.249 . S
N215 C216 1.307 . S
N215 C217 1.333 . S
N215 Zn221 2.020 1_556 S
C216 N215 1.307 . S
C216 C220 1.370 . S
C216 H227 0.948 . S
C217 N215 1.333 . S
C217 C218 1.379 . S
C217 H225 0.952 . S
C218 C217 1.379 . S
C218 C219 1.390 . S
C218 H238 0.949 . S
C219 C218 1.390 . S
C219 C220 1.357 . S
C220 C216 1.370 . S
C220 C219 1.357 . S
C220 H239 0.950 . S
Zn221 N215 2.020 1_554 S
Zn221 O224 2.025 1_554 S
Zn221 O229 2.024 . S
Zn221 O231 2.039 . S
Zn221 O233 2.034 1_554 S
O222 C206 1.251 . S
O222 Zn213 2.039 . S
C223 O228 1.246 . S
C223 O229 1.249 . S
O224 C206 1.254 1_556 S
O224 Zn221 2.025 1_556 S
H225 C217 0.952 . S
H226 C208 0.952 . S
H227 C216 0.948 . S
O228 Zn213 2.034 . S
O228 C223 1.246 . S
O229 Zn221 2.024 . S
O229 C223 1.249 . S
H230 C212 0.948 . S
O231 Zn221 2.039 . S
O231 C235 1.251 . S
O232 Zn213 2.025 . S
O232 C235 1.254 . S
O233 C214 1.246 1_456 S
O233 Zn221 2.034 1_556 S
O234 Zn213 2.024 1_655 S
O234 C214 1.249 . S
C235 O231 1.251 . S
C235 O232 1.254 . S
H236 C209 0.949 . S
H237 C211 0.950 . S
H238 C218 0.949 . S
H239 C220 0.950 . S
C240 C241 1.349 . S
C240 C242 1.327 . S
C240 H265 0.950 . S
C241 C240 1.349 . S
C241 C257 1.349 . S
C242 C240 1.327 . S
C242 C261 1.429 . S
C242 H266 0.950 . S
C243 C260 1.574 . S
C243 C262 1.368 . S
C243 H267 0.949 . S
H244 C248 0.949 . S
C245 C246 1.349 . S
C245 C247 1.327 . S
C245 H268 0.950 . S
C246 C245 1.349 . S
C246 C258 1.349 . S
C247 C245 1.327 . S
C247 C263 1.429 . S
C247 H269 0.950 . S
C248 H244 0.949 . S
C248 C256 1.574 . S
C248 C264 1.368 . S
H249 C257 0.950 . S
H250 C255 0.950 . S
H251 C256 0.949 . S
H252 C258 0.950 . S
H253 C259 0.950 . S
H254 C260 0.949 . S
C255 H250 0.950 . S
C255 C257 1.327 . S
C255 C261 1.429 . S
C256 C248 1.574 . S
C256 H251 0.949 . S
C256 C262 1.368 . S
C257 C241 1.349 . S
C257 H249 0.950 . S
C257 C255 1.327 . S
C258 C246 1.349 . S
C258 H252 0.950 . S
C258 C259 1.327 . S
C259 H253 0.950 . S
C259 C258 1.327 . S
C259 C263 1.429 . S
C260 C243 1.574 . S
C260 H254 0.949 . S
C260 C264 1.368 . S
C261 C242 1.429 . S
C261 C255 1.429 . S
C261 C262 1.523 . S
C262 C243 1.368 . S
C262 C256 1.368 . S
C262 C261 1.523 . S
C263 C247 1.429 . S
C263 C259 1.429 . S
C263 C264 1.523 . S
C264 C248 1.368 . S
C264 C260 1.368 . S
C264 C263 1.523 . S
H265 C240 0.950 . S
H266 C242 0.950 . S
H267 C243 0.949 . S
H268 C245 0.950 . S
H269 C247 0.950 . S
C270 C271 1.349 . S
C270 C272 1.327 . S
C270 H295 0.950 . S
C271 C270 1.349 . S
C271 C287 1.349 . S
C272 C270 1.327 . S
C272 C291 1.429 . S
C272 H296 0.950 . S
C273 C290 1.574 . S
C273 C292 1.368 . S
C273 H297 0.949 . S
H274 C278 0.949 . S
C275 C276 1.349 1_545 S
C275 C277 1.327 . S
C275 H298 0.950 . S
C276 C275 1.349 1_565 S
C276 C288 1.349 . S
C277 C275 1.327 . S
C277 C293 1.429 1_545 S
C277 H299 0.950 . S
C278 H274 0.949 . S
C278 C286 1.574 . S
C278 C294 1.368 . S
H279 C287 0.950 . S
H280 C285 0.950 . S
H281 C286 0.949 . S
H282 C288 0.950 . S
H283 C289 0.950 . S
H284 C290 0.949 1_545 S
C285 H280 0.950 . S
C285 C287 1.327 . S
C285 C291 1.429 . S
C286 C278 1.574 . S
C286 H281 0.949 . S
C286 C292 1.368 . S
C287 C271 1.349 . S
C287 H279 0.950 . S
C287 C285 1.327 . S
C288 C276 1.349 . S
C288 H282 0.950 . S
C288 C289 1.327 . S
C289 H283 0.950 . S
C289 C288 1.327 . S
C289 C293 1.429 . S
C290 C273 1.574 . S
C290 H284 0.949 1_565 S
C290 C294 1.368 . S
C291 C272 1.429 . S
C291 C285 1.429 . S
C291 C292 1.523 . S
C292 C273 1.368 . S
C292 C286 1.368 . S
C292 C291 1.523 . S
C293 C277 1.429 1_565 S
C293 C289 1.429 . S
C293 C294 1.523 . S
C294 C278 1.368 . S
C294 C290 1.368 . S
C294 C293 1.523 . S
H295 C270 0.950 . S
H296 C272 0.950 . S
H297 C273 0.949 . S
H298 C275 0.950 . S
H299 C277 0.950 . S
C300 C301 1.349 . S
C300 C302 1.327 . S
C300 H325 0.950 . S
C301 C300 1.349 . S
C301 C317 1.349 . S
C302 C300 1.327 . S
C302 C321 1.429 . S
C302 H326 0.950 . S
C303 C320 1.574 . S
C303 C322 1.368 . S
C303 H327 0.949 . S
H304 C308 0.949 . S
C305 C306 1.349 . S
C305 C307 1.327 . S
C305 H328 0.950 . S
C306 C305 1.349 . S
C306 C318 1.349 . S
C307 C305 1.327 . S
C307 C323 1.429 . S
C307 H329 0.950 . S
C308 H304 0.949 . S
C308 C316 1.574 . S
C308 C324 1.368 . S
H309 C317 0.950 . S
H310 C315 0.950 . S
H311 C316 0.949 . S
H312 C318 0.950 . S
H313 C319 0.950 . S
H314 C320 0.949 . S
C315 H310 0.950 . S
C315 C317 1.327 . S
C315 C321 1.429 . S
C316 C308 1.574 . S
C316 H311 0.949 . S
C316 C322 1.368 . S
C317 C301 1.349 . S
C317 H309 0.950 . S
C317 C315 1.327 . S
C318 C306 1.349 . S
C318 H312 0.950 . S
C318 C319 1.327 . S
C319 H313 0.950 . S
C319 C318 1.327 . S
C319 C323 1.429 . S
C320 C303 1.574 . S
C320 H314 0.949 . S
C320 C324 1.368 . S
C321 C302 1.429 . S
C321 C315 1.429 . S
C321 C322 1.523 . S
C322 C303 1.368 . S
C322 C316 1.368 . S
C322 C321 1.523 . S
C323 C307 1.429 . S
C323 C319 1.429 . S
C323 C324 1.523 . S
C324 C308 1.368 . S
C324 C320 1.368 . S
C324 C323 1.523 . S
H325 C300 0.950 . S
H326 C302 0.950 . S
H327 C303 0.949 . S
H328 C305 0.950 . S
H329 C307 0.950 . S
C330 C331 1.349 . S
C330 C332 1.327 . S
C330 H355 0.950 . S
C331 C330 1.349 . S
C331 C347 1.349 . S
C332 C330 1.327 . S
C332 C351 1.429 . S
C332 H356 0.950 . S
C333 C350 1.574 . S
C333 C352 1.368 . S
C333 H357 0.949 . S
H334 C338 0.949 1_455 S
C335 C336 1.349 . S
C335 C337 1.327 . S
C335 H358 0.950 . S
C336 C335 1.349 . S
C336 C348 1.349 1_655 S
C337 C335 1.327 . S
C337 C353 1.429 . S
C337 H359 0.950 . S
C338 H334 0.949 1_655 S
C338 C346 1.574 . S
C338 C354 1.368 . S
H339 C347 0.950 . S
H340 C345 0.950 . S
H341 C346 0.949 . S
H342 C348 0.950 . S
H343 C349 0.950 . S
H344 C350 0.949 . S
C345 H340 0.950 . S
C345 C347 1.327 . S
C345 C351 1.429 . S
C346 C338 1.574 . S
C346 H341 0.949 . S
C346 C352 1.368 . S
C347 C331 1.349 . S
C347 H339 0.950 . S
C347 C345 1.327 . S
C348 C336 1.349 1_455 S
C348 H342 0.950 . S
C348 C349 1.327 . S
C349 H343 0.950 . S
C349 C348 1.327 . S
C349 C353 1.429 1_455 S
C350 C333 1.574 . S
C350 H344 0.949 . S
C350 C354 1.368 . S
C351 C332 1.429 . S
C351 C345 1.429 . S
C351 C352 1.523 . S
C352 C333 1.368 . S
C352 C346 1.368 . S
C352 C351 1.523 . S
C353 C337 1.429 . S
C353 C349 1.429 1_655 S
C353 C354 1.523 . S
C354 C338 1.368 . S
C354 C350 1.368 . S
C354 C353 1.523 . S
H355 C330 0.950 . S
H356 C332 0.950 . S
H357 C333 0.949 . S
H358 C335 0.950 . S
H359 C337 0.950 . S
C360 C361 1.349 . S
C360 C362 1.327 . S
C360 H385 0.950 . S
C361 C360 1.349 . S
C361 C377 1.349 . S
C362 C360 1.327 . S
C362 C381 1.429 . S
C362 H386 0.950 . S
C363 C380 1.574 . S
C363 C382 1.368 . S
C363 H387 0.949 . S
H364 C368 0.949 . S
C365 C366 1.349 . S
C365 C367 1.327 . S
C365 H388 0.950 . S
C366 C365 1.349 . S
C366 C378 1.349 . S
C367 C365 1.327 . S
C367 C383 1.429 . S
C367 H389 0.950 . S
C368 H364 0.949 . S
C368 C376 1.574 . S
C368 C384 1.368 . S
H369 C377 0.950 . S
H370 C375 0.950 . S
H371 C376 0.949 . S
H372 C378 0.950 . S
H373 C379 0.950 . S
H374 C380 0.949 . S
C375 H370 0.950 . S
C375 C377 1.327 . S
C375 C381 1.429 . S
C376 C368 1.574 . S
C376 H371 0.949 . S
C376 C382 1.368 . S
C377 C361 1.349 . S
C377 H369 0.950 . S
C377 C375 1.327 . S
C378 C366 1.349 . S
C378 H372 0.950 . S
C378 C379 1.327 . S
C379 H373 0.950 . S
C379 C378 1.327 . S
C379 C383 1.429 . S
C380 C363 1.574 . S
C380 H374 0.949 . S
C380 C384 1.368 . S
C381 C362 1.429 . S
C381 C375 1.429 . S
C381 C382 1.523 . S
C382 C363 1.368 . S
C382 C376 1.368 . S
C382 C381 1.523 . S
C383 C367 1.429 . S
C383 C379 1.429 . S
C383 C384 1.523 . S
C384 C368 1.368 . S
C384 C380 1.368 . S
C384 C383 1.523 . S
H385 C360 0.950 . S
H386 C362 0.950 . S
H387 C363 0.949 . S
H388 C365 0.950 . S
H389 C367 0.950 . S
C390 C391 1.349 . S
C390 C392 1.327 . S
C390 H415 0.950 . S
C391 C390 1.349 . S
C391 C407 1.349 . S
C392 C390 1.327 . S
C392 C411 1.429 . S
C392 H416 0.950 . S
C393 C410 1.574 . S
C393 C412 1.368 . S
C393 H417 0.949 . S
H394 C398 0.949 . S
C395 C396 1.349 . S
C395 C397 1.327 . S
C395 H418 0.950 . S
C396 C395 1.349 . S
C396 C408 1.349 1_565 S
C397 C395 1.327 . S
C397 C413 1.429 . S
C397 H419 0.950 . S
C398 H394 0.949 . S
C398 C406 1.574 . S
C398 C414 1.368 . S
H399 C407 0.950 . S
H400 C405 0.950 . S
H401 C406 0.949 . S
H402 C408 0.950 . S
H403 C409 0.933 1_545 S
H404 C410 0.949 . S
C405 H400 0.950 . S
C405 C407 1.327 . S
C405 C411 1.429 . S
C406 C398 1.574 . S
C406 H401 0.949 . S
C406 C412 1.368 . S
C407 C391 1.349 . S
C407 H399 0.950 . S
C407 C405 1.327 . S
C408 C396 1.349 1_545 S
C408 H402 0.950 . S
C408 C409 1.314 1_545 S
C409 H403 0.933 1_565 S
C409 C408 1.314 1_565 S
C409 C413 1.459 . S
C410 C393 1.574 . S
C410 H404 0.949 . S
C410 C414 1.368 . S
C411 C392 1.429 . S
C411 C405 1.429 . S
C411 C412 1.523 . S
C412 C393 1.368 . S
C412 C406 1.368 . S
C412 C411 1.523 . S
C413 C397 1.429 . S
C413 C409 1.459 . S
C413 C414 1.523 . S
C414 C398 1.368 . S
C414 C410 1.368 . S
C414 C413 1.523 . S
H415 C390 0.950 . S
H416 C392 0.950 . S
H417 C393 0.949 . S
H418 C395 0.950 . S
H419 C397 0.950 . S
C420 C421 1.349 . S
C420 C422 1.327 . S
C420 H445 0.950 . S
C421 C420 1.349 . S
C421 C437 1.349 . S
C422 C420 1.327 . S
C422 C441 1.429 . S
C422 H446 0.950 . S
C423 C440 1.574 . S
C423 C442 1.368 . S
C423 H447 0.949 . S
H424 C428 0.949 . S
C425 C426 1.349 . S
C425 C427 1.327 . S
C425 H448 0.950 . S
C426 C425 1.349 . S
C426 C438 1.349 1_554 S
C427 C425 1.327 . S
C427 C443 1.429 1_554 S
C427 H449 0.950 . S
C428 H424 0.949 . S
C428 C436 1.574 . S
C428 C444 1.368 . S
H429 C437 0.950 . S
H430 C435 0.950 . S
H431 C436 0.949 . S
H432 C438 0.950 . S
H433 C439 0.950 . S
H434 C440 0.949 1_554 S
C435 H430 0.950 . S
C435 C437 1.327 . S
C435 C441 1.429 . S
C436 C428 1.574 . S
C436 H431 0.949 . S
C436 C442 1.368 . S
C437 C421 1.349 . S
C437 H429 0.950 . S
C437 C435 1.327 . S
C438 C426 1.349 1_556 S
C438 H432 0.950 . S
C438 C439 1.327 . S
C439 H433 0.950 . S
C439 C438 1.327 . S
C439 C443 1.429 . S
C440 C423 1.574 . S
C440 H434 0.949 1_556 S
C440 C444 1.368 . S
C441 C422 1.429 . S
C441 C435 1.429 . S
C441 C442 1.523 . S
C442 C423 1.368 . S
C442 C436 1.368 . S
C442 C441 1.523 . S
C443 C427 1.429 1_556 S
C443 C439 1.429 . S
C443 C444 1.523 . S
C444 C428 1.368 . S
C444 C440 1.368 . S
C444 C443 1.523 . S
H445 C420 0.950 . S
H446 C422 0.950 . S
H447 C423 0.949 . S
H448 C425 0.950 . S
H449 C427 0.950 . S
C450 C451 1.349 . S
C450 C452 1.327 . S
C450 H475 0.950 . S
C451 C450 1.349 . S
C451 C467 1.349 . S
C452 C450 1.327 . S
C452 C471 1.429 . S
C452 H476 0.950 . S
C453 C470 1.574 . S
C453 C472 1.368 . S
C453 H477 0.949 . S
H454 C458 0.949 . S
C455 C456 1.349 . S
C455 C457 1.327 . S
C455 H478 0.950 . S
C456 C455 1.349 . S
C456 C468 1.349 . S
C457 C455 1.327 . S
C457 C473 1.429 . S
C457 H479 0.950 . S
C458 H454 0.949 . S
C458 C466 1.574 . S
C458 C474 1.368 . S
H459 C467 0.950 . S
H460 C465 0.950 . S
H461 C466 0.949 . S
H462 C468 0.950 . S
H463 C469 0.950 . S
H464 C470 0.949 . S
C465 H460 0.950 . S
C465 C467 1.327 . S
C465 C471 1.429 . S
C466 C458 1.574 . S
C466 H461 0.949 . S
C466 C472 1.368 . S
C467 C451 1.349 . S
C467 H459 0.950 . S
C467 C465 1.327 . S
C468 C456 1.349 . S
C468 H462 0.950 . S
C468 C469 1.327 . S
C469 H463 0.950 . S
C469 C468 1.327 . S
C469 C473 1.429 . S
C470 C453 1.574 . S
C470 H464 0.949 . S
C470 C474 1.368 . S
C471 C452 1.429 . S
C471 C465 1.429 . S
C471 C472 1.523 . S
C472 C453 1.368 . S
C472 C466 1.368 . S
C472 C471 1.523 . S
C473 C457 1.429 . S
C473 C469 1.429 . S
C473 C474 1.523 . S
C474 C458 1.368 . S
C474 C470 1.368 . S
C474 C473 1.523 . S
H475 C450 0.950 . S
H476 C452 0.950 . S
H477 C453 0.949 . S
H478 C455 0.950 . S
H479 C457 0.950 . S
C480 C481 1.349 . S
C480 C482 1.327 . S
C480 H505 0.950 . S
C481 C480 1.349 . S
C481 C497 1.349 . S
C482 C480 1.327 . S
C482 C501 1.429 . S
C482 H506 0.950 . S
C483 C500 1.574 . S
C483 C502 1.368 . S
C483 H507 0.949 . S
H484 C488 0.949 . S
C485 C486 1.349 . S
C485 C487 1.327 . S
C485 H508 0.950 . S
C486 C485 1.349 . S
C486 C498 1.349 . S
C487 C485 1.327 . S
C487 C503 1.429 . S
C487 H509 0.950 . S
C488 H484 0.949 . S
C488 C496 1.574 . S
C488 C504 1.368 . S
H489 C497 0.950 . S
H490 C495 0.950 . S
H491 C496 0.949 . S
H492 C498 0.950 . S
H493 C499 0.950 . S
H494 C500 0.949 . S
C495 H490 0.950 . S
C495 C497 1.327 . S
C495 C501 1.429 . S
C496 C488 1.574 . S
C496 H491 0.949 . S
C496 C502 1.368 . S
C497 C481 1.349 . S
C497 H489 0.950 . S
C497 C495 1.327 . S
C498 C486 1.349 . S
C498 H492 0.950 . S
C498 C499 1.327 . S
C499 H493 0.950 . S
C499 C498 1.327 . S
C499 C503 1.429 . S
C500 C483 1.574 . S
C500 H494 0.949 . S
C500 C504 1.368 . S
C501 C482 1.429 . S
C501 C495 1.429 . S
C501 C502 1.523 . S
C502 C483 1.368 . S
C502 C496 1.368 . S
C502 C501 1.523 . S
C503 C487 1.429 . S
C503 C499 1.429 . S
C503 C504 1.523 . S
C504 C488 1.368 . S
C504 C500 1.368 . S
C504 C503 1.523 . S
H505 C480 0.950 . S
H506 C482 0.950 . S
H507 C483 0.949 . S
H508 C485 0.950 . S
H509 C487 0.950 . S
C510 C511 1.349 . S
C510 C512 1.327 . S
C510 H535 0.950 . S
C511 C510 1.349 . S
C511 C527 1.349 . S
C512 C510 1.327 . S
C512 C531 1.429 . S
C512 H536 0.950 . S
C513 C530 1.574 . S
C513 C532 1.368 . S
C513 H537 0.949 . S
H514 C518 0.949 . S
C515 C516 1.349 . S
C515 C517 1.327 . S
C515 H538 0.950 . S
C516 C515 1.349 . S
C516 C528 1.349 . S
C517 C515 1.327 . S
C517 C533 1.429 . S
C517 H539 0.950 . S
C518 H514 0.949 . S
C518 C526 1.574 . S
C518 C534 1.368 . S
H519 C527 0.950 . S
H520 C525 0.950 . S
H521 C526 0.949 . S
H522 C528 0.950 . S
H523 C529 0.950 . S
H524 C530 0.949 . S
C525 H520 0.950 . S
C525 C527 1.327 . S
C525 C531 1.429 . S
C526 C518 1.574 . S
C526 H521 0.949 . S
C526 C532 1.368 . S
C527 C511 1.349 . S
C527 H519 0.950 . S
C527 C525 1.327 . S
C528 C516 1.349 . S
C528 H522 0.950 . S
C528 C529 1.327 . S
C529 H523 0.950 . S
C529 C528 1.327 . S
C529 C533 1.429 . S
C530 C513 1.574 . S
C530 H524 0.949 . S
C530 C534 1.368 . S
C531 C512 1.429 . S
C531 C525 1.429 . S
C531 C532 1.523 . S
C532 C513 1.368 . S
C532 C526 1.368 . S
C532 C531 1.523 . S
C533 C517 1.429 . S
C533 C529 1.429 . S
C533 C534 1.523 . S
C534 C518 1.368 . S
C534 C530 1.368 . S
C534 C533 1.523 . S
H535 C510 0.950 . S
H536 C512 0.950 . S
H537 C513 0.949 . S
H538 C515 0.950 . S
H539 C517 0.950 . S
C540 C541 1.349 . S
C540 C542 1.327 . S
C540 H565 0.950 . S
C541 C540 1.349 . S
C541 C557 1.349 . S
C542 C540 1.327 . S
C542 C561 1.429 . S
C542 H566 0.950 . S
C543 C560 1.574 . S
C543 C562 1.368 . S
C543 H567 0.949 . S
H544 C548 0.949 . S
C545 C546 1.349 . S
C545 C547 1.327 . S
C545 H568 0.950 . S
C546 C545 1.349 . S
C546 C558 1.349 . S
C547 C545 1.327 . S
C547 C563 1.429 . S
C547 H569 0.950 . S
C548 H544 0.949 . S
C548 C556 1.574 . S
C548 C564 1.368 . S
H549 C557 0.950 . S
H550 C555 0.950 . S
H551 C556 0.949 . S
H552 C558 0.950 . S
H553 C559 0.950 . S
H554 C560 0.949 . S
C555 H550 0.950 . S
C555 C557 1.327 . S
C555 C561 1.429 . S
C556 C548 1.574 . S
C556 H551 0.949 . S
C556 C562 1.368 . S
C557 C541 1.349 . S
C557 H549 0.950 . S
C557 C555 1.327 . S
C558 C546 1.349 . S
C558 H552 0.950 . S
C558 C559 1.327 . S
C559 H553 0.950 . S
C559 C558 1.327 . S
C559 C563 1.429 . S
C560 C543 1.574 . S
C560 H554 0.949 . S
C560 C564 1.368 . S
C561 C542 1.429 . S
C561 C555 1.429 . S
C561 C562 1.523 . S
C562 C543 1.368 . S
C562 C556 1.368 . S
C562 C561 1.523 . S
C563 C547 1.429 . S
C563 C559 1.429 . S
C563 C564 1.523 . S
C564 C548 1.368 . S
C564 C560 1.368 . S
C564 C563 1.523 . S
H565 C540 0.950 . S
H566 C542 0.950 . S
H567 C543 0.949 . S
H568 C545 0.950 . S
H569 C547 0.950 . S
C570 C571 1.349 . S
C570 C572 1.327 . S
C570 H595 0.950 . S
C571 C570 1.349 . S
C571 C587 1.349 . S
C572 C570 1.327 . S
C572 C591 1.429 . S
C572 H596 0.950 . S
C573 C590 1.574 . S
C573 C592 1.368 . S
C573 H597 0.949 . S
H574 C578 0.949 . S
C575 C576 1.349 . S
C575 C577 1.327 . S
C575 H598 0.950 . S
C576 C575 1.349 . S
C576 C588 1.349 . S
C577 C575 1.327 . S
C577 C593 1.429 . S
C577 H599 0.950 . S
C578 H574 0.949 . S
C578 C586 1.574 . S
C578 C594 1.368 . S
H579 C587 0.950 . S
H580 C585 0.950 . S
H581 C586 0.949 . S
H582 C588 0.950 . S
H583 C589 0.950 . S
H584 C590 0.949 . S
C585 H580 0.950 . S
C585 C587 1.327 . S
C585 C591 1.429 . S
C586 C578 1.574 . S
C586 H581 0.949 . S
C586 C592 1.368 . S
C587 C571 1.349 . S
C587 H579 0.950 . S
C587 C585 1.327 . S
C588 C576 1.349 . S
C588 H582 0.950 . S
C588 C589 1.327 . S
C589 H583 0.950 . S
C589 C588 1.327 . S
C589 C593 1.429 . S
C590 C573 1.574 . S
C590 H584 0.949 . S
C590 C594 1.368 . S
C591 C572 1.429 . S
C591 C585 1.429 . S
C591 C592 1.523 . S
C592 C573 1.368 . S
C592 C586 1.368 . S
C592 C591 1.523 . S
C593 C577 1.429 . S
C593 C589 1.429 . S
C593 C594 1.523 . S
C594 C578 1.368 . S
C594 C590 1.368 . S
C594 C593 1.523 . S
H595 C570 0.950 . S
H596 C572 0.950 . S
H597 C573 0.949 . S
H598 C575 0.950 . S
H599 C577 0.950 . S
C600 C601 1.349 . S
C600 C602 1.327 . S
C600 H625 0.950 . S
C601 C600 1.349 . S
C601 C617 1.349 . S
C602 C600 1.327 . S
C602 C621 1.429 . S
C602 H626 0.950 . S
C603 C620 1.574 . S
C603 C622 1.368 . S
C603 H627 0.949 1_655 S
H604 C608 0.949 . S
C605 C606 1.346 1_445 S
C605 C607 1.317 1_545 S
C605 H628 0.964 . S
C606 C605 1.346 1_665 S
C606 C618 1.349 . S
C607 C605 1.317 1_565 S
C607 C623 1.429 1_455 S
C607 H629 0.950 . S
C608 H604 0.949 . S
C608 C616 1.574 . S
C608 C624 1.368 . S
H609 C617 0.950 . S
H610 C615 0.950 . S
H611 C616 0.949 . S
H612 C618 0.950 . S
H613 C619 0.950 . S
H614 C620 0.949 1_455 S
C615 H610 0.950 . S
C615 C617 1.327 . S
C615 C621 1.429 . S
C616 C608 1.574 . S
C616 H611 0.949 . S
C616 C622 1.368 . S
C617 C601 1.349 . S
C617 H609 0.950 . S
C617 C615 1.327 . S
C618 C606 1.349 . S
C618 H612 0.950 . S
C618 C619 1.327 . S
C619 H613 0.950 . S
C619 C618 1.327 . S
C619 C623 1.429 . S
C620 C603 1.574 . S
C620 H614 0.949 1_655 S
C620 C624 1.368 . S
C621 C602 1.429 . S
C621 C615 1.429 . S
C621 C622 1.523 . S
C622 C603 1.368 . S
C622 C616 1.368 . S
C622 C621 1.523 . S
C623 C607 1.429 1_655 S
C623 C619 1.429 . S
C623 C624 1.523 . S
C624 C608 1.368 . S
C624 C620 1.368 . S
C624 C623 1.523 . S
H625 C600 0.950 . S
H626 C602 0.950 . S
H627 C603 0.949 1_455 S
H628 C605 0.964 . S
H629 C607 0.950 . S
C630 C631 1.349 . S
C630 C632 1.327 . S
C630 H655 0.950 . S
C631 C630 1.349 . S
C631 C647 1.349 . S
C632 C630 1.327 . S
C632 C651 1.429 . S
C632 H656 0.950 . S
C633 C650 1.574 . S
C633 C652 1.368 . S
C633 H657 0.949 . S
H634 C638 0.949 . S
C635 C636 1.349 . S
C635 C637 1.327 . S
C635 H658 0.950 . S
C636 C635 1.349 . S
C636 C648 1.349 . S
C637 C635 1.327 . S
C637 C653 1.429 . S
C637 H659 0.950 . S
C638 H634 0.949 . S
C638 C646 1.574 . S
C638 C654 1.368 . S
H639 C647 0.950 . S
H640 C645 0.950 . S
H641 C646 0.949 . S
H642 C648 0.950 . S
H643 C649 0.950 . S
H644 C650 0.949 . S
C645 H640 0.950 . S
C645 C647 1.327 . S
C645 C651 1.429 . S
C646 C638 1.574 . S
C646 H641 0.949 . S
C646 C652 1.368 . S
C647 C631 1.349 . S
C647 H639 0.950 . S
C647 C645 1.327 . S
C648 C636 1.349 . S
C648 H642 0.950 . S
C648 C649 1.327 . S
C649 H643 0.950 . S
C649 C648 1.327 . S
C649 C653 1.429 . S
C650 C633 1.574 . S
C650 H644 0.949 . S
C650 C654 1.368 . S
C651 C632 1.429 . S
C651 C645 1.429 . S
C651 C652 1.523 . S
C652 C633 1.368 . S
C652 C646 1.368 . S
C652 C651 1.523 . S
C653 C637 1.429 . S
C653 C649 1.429 . S
C653 C654 1.523 . S
C654 C638 1.368 . S
C654 C650 1.368 . S
C654 C653 1.523 . S
H655 C630 0.950 . S
H656 C632 0.950 . S
H657 C633 0.949 . S
H658 C635 0.950 . S
H659 C637 0.950 . S
C660 C661 1.349 . S
C660 C662 1.327 . S
C660 H685 0.950 . S
C661 C660 1.349 . S
C661 C677 1.349 . S
C662 C660 1.327 . S
C662 C681 1.429 . S
C662 H686 0.950 . S
C663 C680 1.574 . S
C663 C682 1.368 . S
C663 H687 0.949 . S
H664 C668 0.949 . S
C665 C666 1.349 . S
C665 C667 1.327 . S
C665 H688 0.950 . S
C666 C665 1.349 . S
C666 C678 1.349 . S
C667 C665 1.327 . S
C667 C683 1.429 . S
C667 H689 0.950 . S
C668 H664 0.949 . S
C668 C676 1.574 . S
C668 C684 1.368 . S
H669 C677 0.950 . S
H670 C675 0.950 . S
H671 C676 0.949 . S
H672 C678 0.950 . S
H673 C679 0.950 . S
H674 C680 0.949 . S
C675 H670 0.950 . S
C675 C677 1.327 . S
C675 C681 1.429 . S
C676 C668 1.574 . S
C676 H671 0.949 . S
C676 C682 1.368 . S
C677 C661 1.349 . S
C677 H669 0.950 . S
C677 C675 1.327 . S
C678 C666 1.349 . S
C678 H672 0.950 . S
C678 C679 1.327 . S
C679 H673 0.950 . S
C679 C678 1.327 . S
C679 C683 1.429 . S
C680 C663 1.574 . S
C680 H674 0.949 . S
C680 C684 1.368 . S
C681 C662 1.429 . S
C681 C675 1.429 . S
C681 C682 1.523 . S
C682 C663 1.368 . S
C682 C676 1.368 . S
C682 C681 1.523 . S
C683 C667 1.429 . S
C683 C679 1.429 . S
C683 C684 1.523 . S
C684 C668 1.368 . S
C684 C680 1.368 . S
C684 C683 1.523 . S
H685 C660 0.950 . S
H686 C662 0.950 . S
H687 C663 0.949 . S
H688 C665 0.950 . S
H689 C667 0.950 . S
C690 C691 1.349 . S
C690 C692 1.327 . S
C690 H715 0.950 . S
C691 C690 1.349 . S
C691 C707 1.349 . S
C692 C690 1.327 . S
C692 C711 1.429 . S
C692 H716 0.950 . S
C693 C710 1.574 . S
C693 C712 1.368 . S
C693 H717 0.949 . S
H694 C698 0.949 . S
C695 C696 1.349 . S
C695 C697 1.327 . S
C695 H718 0.950 . S
C696 C695 1.349 . S
C696 C708 1.349 . S
C697 C695 1.327 . S
C697 C713 1.429 . S
C697 H719 0.950 . S
C698 H694 0.949 . S
C698 C706 1.574 . S
C698 C714 1.368 . S
H699 C707 0.950 . S
H700 C705 0.950 . S
H701 C706 0.949 . S
H702 C708 0.950 . S
H703 C709 0.950 . S
H704 C710 0.949 . S
C705 H700 0.950 . S
C705 C707 1.327 . S
C705 C711 1.429 . S
C706 C698 1.574 . S
C706 H701 0.949 . S
C706 C712 1.368 . S
C707 C691 1.349 . S
C707 H699 0.950 . S
C707 C705 1.327 . S
C708 C696 1.349 . S
C708 H702 0.950 . S
C708 C709 1.327 . S
C709 H703 0.950 . S
C709 C708 1.327 . S
C709 C713 1.429 . S
C710 C693 1.574 . S
C710 H704 0.949 . S
C710 C714 1.368 . S
C711 C692 1.429 . S
C711 C705 1.429 . S
C711 C712 1.523 . S
C712 C693 1.368 . S
C712 C706 1.368 . S
C712 C711 1.523 . S
C713 C697 1.429 . S
C713 C709 1.429 . S
C713 C714 1.523 . S
C714 C698 1.368 . S
C714 C710 1.368 . S
C714 C713 1.523 . S
H715 C690 0.950 . S
H716 C692 0.950 . S
H717 C693 0.949 . S
H718 C695 0.950 . S
H719 C697 0.950 . S
C720 C721 1.349 . S
C720 C722 1.327 . S
C720 H745 0.950 . S
C721 C720 1.349 . S
C721 C737 1.349 . S
C722 C720 1.327 . S
C722 C741 1.429 . S
C722 H746 0.950 . S
C723 C740 1.574 . S
C723 C742 1.368 . S
C723 H747 0.949 . S
H724 C728 0.949 1_554 S
C725 C726 1.349 . S
C725 C727 1.327 . S
C725 H748 0.950 . S
C726 C725 1.349 . S
C726 C738 1.349 1_556 S
C727 C725 1.327 . S
C727 C743 1.429 . S
C727 H749 0.950 . S
C728 H724 0.949 1_556 S
C728 C736 1.574 . S
C728 C744 1.368 . S
H729 C737 0.950 . S
H730 C735 0.950 . S
H731 C736 0.949 . S
H732 C738 0.950 . S
H733 C739 0.950 . S
H734 C740 0.949 . S
C735 H730 0.950 . S
C735 C737 1.327 . S
C735 C741 1.429 . S
C736 C728 1.574 . S
C736 H731 0.949 . S
C736 C742 1.368 . S
C737 C721 1.349 . S
C737 H729 0.950 . S
C737 C735 1.327 . S
C738 C726 1.349 1_554 S
C738 H732 0.950 . S
C738 C739 1.327 . S
C739 H733 0.950 . S
C739 C738 1.327 . S
C739 C743 1.429 1_554 S
C740 C723 1.574 . S
C740 H734 0.949 . S
C740 C744 1.368 . S
C741 C722 1.429 . S
C741 C735 1.429 . S
C741 C742 1.523 . S
C742 C723 1.368 . S
C742 C736 1.368 . S
C742 C741 1.523 . S
C743 C727 1.429 . S
C743 C739 1.429 1_556 S
C743 C744 1.523 . S
C744 C728 1.368 . S
C744 C740 1.368 . S
C744 C743 1.523 . S
H745 C720 0.950 . S
H746 C722 0.950 . S
H747 C723 0.949 . S
H748 C725 0.950 . S
H749 C727 0.950 . S
C750 C751 1.349 . S
C750 C752 1.327 . S
C750 H775 0.950 . S
C751 C750 1.349 . S
C751 C767 1.349 . S
C752 C750 1.327 . S
C752 C771 1.429 . S
C752 H776 0.950 . S
C753 C770 1.574 . S
C753 C772 1.368 . S
C753 H777 0.949 . S
H754 C758 0.949 . S
C755 C756 1.349 . S
C755 C757 1.327 . S
C755 H778 0.950 . S
C756 C755 1.349 . S
C756 C768 1.349 . S
C757 C755 1.327 . S
C757 C773 1.429 . S
C757 H779 0.950 . S
C758 H754 0.949 . S
C758 C766 1.574 . S
C758 C774 1.368 . S
H759 C767 0.950 . S
H760 C765 0.950 . S
H761 C766 0.949 . S
H762 C768 0.950 . S
H763 C769 0.950 . S
H764 C770 0.949 . S
C765 H760 0.950 . S
C765 C767 1.327 . S
C765 C771 1.429 . S
C766 C758 1.574 . S
C766 H761 0.949 . S
C766 C772 1.368 . S
C767 C751 1.349 . S
C767 H759 0.950 . S
C767 C765 1.327 . S
C768 C756 1.349 . S
C768 H762 0.950 . S
C768 C769 1.327 . S
C769 H763 0.950 . S
C769 C768 1.327 . S
C769 C773 1.429 . S
C770 C753 1.574 . S
C770 H764 0.949 . S
C770 C774 1.368 . S
C771 C752 1.429 . S
C771 C765 1.429 . S
C771 C772 1.523 . S
C772 C753 1.368 . S
C772 C766 1.368 . S
C772 C771 1.523 . S
C773 C757 1.429 . S
C773 C769 1.429 . S
C773 C774 1.523 . S
C774 C758 1.368 . S
C774 C770 1.368 . S
C774 C773 1.523 . S
H775 C750 0.950 . S
H776 C752 0.950 . S
H777 C753 0.949 . S
H778 C755 0.950 . S
H779 C757 0.950 . S
C780 C781 1.349 . S
C780 C782 1.327 . S
C780 H805 0.950 . S
C781 C780 1.349 . S
C781 C797 1.349 . S
C782 C780 1.327 . S
C782 C801 1.429 . S
C782 H806 0.950 . S
C783 C800 1.574 . S
C783 C802 1.368 . S
C783 H807 0.949 . S
H784 C788 0.949 . S
C785 C786 1.349 . S
C785 C787 1.327 . S
C785 H808 0.950 . S
C786 C785 1.349 . S
C786 C798 1.349 . S
C787 C785 1.327 . S
C787 C803 1.429 . S
C787 H809 0.950 . S
C788 H784 0.949 . S
C788 C796 1.574 . S
C788 C804 1.368 . S
H789 C797 0.950 . S
H790 C795 0.950 . S
H791 C796 0.949 . S
H792 C798 0.950 . S
H793 C799 0.950 . S
H794 C800 0.949 . S
C795 H790 0.950 . S
C795 C797 1.327 . S
C795 C801 1.429 . S
C796 C788 1.574 . S
C796 H791 0.949 . S
C796 C802 1.368 . S
C797 C781 1.349 . S
C797 H789 0.950 . S
C797 C795 1.327 . S
C798 C786 1.349 . S
C798 H792 0.950 . S
C798 C799 1.327 . S
C799 H793 0.950 . S
C799 C798 1.327 . S
C799 C803 1.429 . S
C800 C783 1.574 . S
C800 H794 0.949 . S
C800 C804 1.368 . S
C801 C782 1.429 . S
C801 C795 1.429 . S
C801 C802 1.523 . S
C802 C783 1.368 . S
C802 C796 1.368 . S
C802 C801 1.523 . S
C803 C787 1.429 . S
C803 C799 1.429 . S
C803 C804 1.523 . S
C804 C788 1.368 . S
C804 C800 1.368 . S
C804 C803 1.523 . S
H805 C780 0.950 . S
H806 C782 0.950 . S
H807 C783 0.949 . S
H808 C785 0.950 . S
H809 C787 0.950 . S
C810 C811 1.349 . S
C810 C812 1.327 . S
C810 H835 0.950 . S
C811 C810 1.349 . S
C811 C827 1.349 . S
C812 C810 1.327 . S
C812 C831 1.429 . S
C812 H836 0.950 . S
C813 C830 1.574 . S
C813 C832 1.368 . S
C813 H837 0.949 . S
H814 C818 0.949 . S
C815 C816 1.349 . S
C815 C817 1.327 . S
C815 H838 0.950 . S
C816 C815 1.349 . S
C816 C828 1.349 . S
C817 C815 1.327 . S
C817 C833 1.429 . S
C817 H839 0.950 . S
C818 H814 0.949 . S
C818 C826 1.574 . S
C818 C834 1.368 . S
H819 C827 0.950 . S
H820 C825 0.950 . S
H821 C826 0.949 . S
H822 C828 0.950 . S
H823 C829 0.950 . S
H824 C830 0.949 . S
C825 H820 0.950 . S
C825 C827 1.327 . S
C825 C831 1.429 . S
C826 C818 1.574 . S
C826 H821 0.949 . S
C826 C832 1.368 . S
C827 C811 1.349 . S
C827 H819 0.950 . S
C827 C825 1.327 . S
C828 C816 1.349 . S
C828 H822 0.950 . S
C828 C829 1.327 . S
C829 H823 0.950 . S
C829 C828 1.327 . S
C829 C833 1.429 . S
C830 C813 1.574 . S
C830 H824 0.949 . S
C830 C834 1.368 . S
C831 C812 1.429 . S
C831 C825 1.429 . S
C831 C832 1.523 . S
C832 C813 1.368 . S
C832 C826 1.368 . S
C832 C831 1.523 . S
C833 C817 1.429 . S
C833 C829 1.429 . S
C833 C834 1.523 . S
C834 C818 1.368 . S
C834 C830 1.368 . S
C834 C833 1.523 . S
H835 C810 0.950 . S
H836 C812 0.950 . S
H837 C813 0.949 . S
H838 C815 0.950 . S
H839 C817 0.950 . S
C840 C841 1.349 . S
C840 C842 1.327 . S
C840 H865 0.950 . S
C841 C840 1.349 . S
C841 C857 1.349 . S
C842 C840 1.327 . S
C842 C861 1.429 . S
C842 H866 0.950 1_655 S
C843 C860 1.574 . S
C843 C862 1.368 . S
C843 H867 0.949 . S
H844 C848 0.949 . S
C845 C846 1.349 1_655 S
C845 C847 1.327 . S
C845 H868 0.950 . S
C846 C845 1.349 1_455 S
C846 C858 1.349 1_554 S
C847 C845 1.327 . S
C847 C863 1.429 1_654 S
C847 H869 0.950 . S
C848 H844 0.949 . S
C848 C856 1.574 . S
C848 C864 1.368 1_455 S
H849 C857 0.950 . S
H850 C855 0.950 . S
H851 C856 0.949 . S
H852 C858 0.950 . S
H853 C859 0.950 . S
H854 C860 0.949 1_554 S
C855 H850 0.950 . S
C855 C857 1.327 . S
C855 C861 1.429 . S
C856 C848 1.574 . S
C856 H851 0.949 . S
C856 C862 1.368 1_455 S
C857 C841 1.349 . S
C857 H849 0.950 . S
C857 C855 1.327 . S
C858 C846 1.349 1_556 S
C858 H852 0.950 . S
C858 C859 1.327 . S
C859 H853 0.950 . S
C859 C858 1.327 . S
C859 C863 1.429 . S
C860 C843 1.574 . S
C860 H854 0.949 1_556 S
C860 C864 1.368 . S
C861 C842 1.429 . S
C861 C855 1.429 . S
C861 C862 1.523 . S
C862 C843 1.368 . S
C862 C856 1.368 1_655 S
C862 C861 1.523 . S
C863 C847 1.429 1_456 S
C863 C859 1.429 . S
C863 C864 1.523 1_455 S
C864 C848 1.368 1_655 S
C864 C860 1.368 . S
C864 C863 1.523 1_655 S
H865 C840 0.950 . S
H866 C842 0.950 1_455 S
H867 C843 0.949 . S
H868 C845 0.950 . S
H869 C847 0.950 . S
C870 C871 1.349 . S
C870 C872 1.327 . S
C870 H895 0.950 . S
C871 C870 1.349 . S
C871 C887 1.349 . S
C872 C870 1.327 . S
C872 C891 1.429 . S
C872 H896 0.950 . S
C873 C890 1.574 . S
C873 C892 1.368 . S
C873 H897 0.949 . S
H874 C878 0.949 . S
C875 C876 1.349 . S
C875 C877 1.327 . S
C875 H898 0.950 . S
C876 C875 1.349 . S
C876 C888 1.349 . S
C877 C875 1.327 . S
C877 C893 1.429 . S
C877 H899 0.950 . S
C878 H874 0.949 . S
C878 C886 1.574 . S
C878 C894 1.368 . S
H879 C887 0.950 . S
H880 C885 0.950 . S
H881 C886 0.949 . S
H882 C888 0.950 . S
H883 C889 0.950 . S
H884 C890 0.949 . S
C885 H880 0.950 . S
C885 C887 1.327 . S
C885 C891 1.429 . S
C886 C878 1.574 . S
C886 H881 0.949 . S
C886 C892 1.368 . S
C887 C871 1.349 . S
C887 H879 0.950 . S
C887 C885 1.327 . S
C888 C876 1.349 . S
C888 H882 0.950 . S
C888 C889 1.327 . S
C889 H883 0.950 . S
C889 C888 1.327 . S
C889 C893 1.429 . S
C890 C873 1.574 . S
C890 H884 0.949 . S
C890 C894 1.368 . S
C891 C872 1.429 . S
C891 C885 1.429 . S
C891 C892 1.523 . S
C892 C873 1.368 . S
C892 C886 1.368 . S
C892 C891 1.523 . S
C893 C877 1.429 . S
C893 C889 1.429 . S
C893 C894 1.523 . S
C894 C878 1.368 . S
C894 C890 1.368 . S
C894 C893 1.523 . S
H895 C870 0.950 . S
H896 C872 0.950 . S
H897 C873 0.949 . S
H898 C875 0.950 . S
H899 C877 0.950 . S
C900 C901 1.349 . S
C900 C902 1.327 . S
C900 H925 0.950 . S
C901 C900 1.349 . S
C901 C917 1.349 . S
C902 C900 1.327 . S
C902 C921 1.429 . S
C902 H926 0.950 . S
C903 C920 1.574 . S
C903 C922 1.368 . S
C903 H927 0.949 . S
H904 C908 0.949 . S
C905 C906 1.349 . S
C905 C907 1.327 . S
C905 H928 0.950 . S
C906 C905 1.349 . S
C906 C918 1.349 . S
C907 C905 1.327 . S
C907 C923 1.429 . S
C907 H929 0.950 . S
C908 H904 0.949 . S
C908 C916 1.574 . S
C908 C924 1.368 . S
H909 C917 0.950 . S
H910 C915 0.950 . S
H911 C916 0.949 . S
H912 C918 0.950 . S
H913 C919 0.950 . S
H914 C920 0.949 . S
C915 H910 0.950 . S
C915 C917 1.327 . S
C915 C921 1.429 . S
C916 C908 1.574 . S
C916 H911 0.949 . S
C916 C922 1.368 . S
C917 C901 1.349 . S
C917 H909 0.950 . S
C917 C915 1.327 . S
C918 C906 1.349 . S
C918 H912 0.950 . S
C918 C919 1.327 . S
C919 H913 0.950 . S
C919 C918 1.327 . S
C919 C923 1.429 . S
C920 C903 1.574 . S
C920 H914 0.949 . S
C920 C924 1.368 . S
C921 C902 1.429 . S
C921 C915 1.429 . S
C921 C922 1.523 . S
C922 C903 1.368 . S
C922 C916 1.368 . S
C922 C921 1.523 . S
C923 C907 1.429 . S
C923 C919 1.429 . S
C923 C924 1.523 . S
C924 C908 1.368 . S
C924 C920 1.368 . S
C924 C923 1.523 . S
H925 C900 0.950 . S
H926 C902 0.950 . S
H927 C903 0.949 . S
H928 C905 0.950 . S
H929 C907 0.950 . S
C930 C931 1.349 . S
C930 C932 1.327 . S
C930 H955 0.950 . S
C931 C930 1.349 . S
C931 C947 1.349 . S
C932 C930 1.327 . S
C932 C951 1.429 . S
C932 H956 0.950 . S
C933 C950 1.574 . S
C933 C952 1.368 . S
C933 H957 0.949 . S
H934 C938 0.949 . S
C935 C936 1.349 . S
C935 C937 1.327 . S
C935 H958 0.950 . S
C936 C935 1.349 . S
C936 C948 1.349 . S
C937 C935 1.327 . S
C937 C953 1.429 . S
C937 H959 0.950 . S
C938 H934 0.949 . S
C938 C946 1.574 . S
C938 C954 1.368 . S
H939 C947 0.950 . S
H940 C945 0.950 . S
H941 C946 0.949 . S
H942 C948 0.950 . S
H943 C949 0.950 . S
H944 C950 0.949 . S
C945 H940 0.950 . S
C945 C947 1.327 . S
C945 C951 1.429 . S
C946 C938 1.574 . S
C946 H941 0.949 . S
C946 C952 1.368 . S
C947 C931 1.349 . S
C947 H939 0.950 . S
C947 C945 1.327 . S
C948 C936 1.349 . S
C948 H942 0.950 . S
C948 C949 1.327 . S
C949 H943 0.950 . S
C949 C948 1.327 . S
C949 C953 1.429 . S
C950 C933 1.574 . S
C950 H944 0.949 . S
C950 C954 1.368 . S
C951 C932 1.429 . S
C951 C945 1.429 . S
C951 C952 1.523 . S
C952 C933 1.368 . S
C952 C946 1.368 . S
C952 C951 1.523 . S
C953 C937 1.429 . S
C953 C949 1.429 . S
C953 C954 1.523 . S
C954 C938 1.368 . S
C954 C950 1.368 . S
C954 C953 1.523 . S
H955 C930 0.950 . S
H956 C932 0.950 . S
H957 C933 0.949 . S
H958 C935 0.950 . S
H959 C937 0.950 . S
C241 C9 2.835 . S
C246 C104 2.847 . S
C271 C21 2.215 . S
C276 C146 2.221 1_565 S
C306 C176 0.633 . S
C301 C30 0.642 . S
C331 C43 0.747 . S
C336 C210 0.740 1_655 S
C366 C167 1.774 . S
C361 C4 1.753 . S
C396 C121 2.434 1_565 S
C391 C22 2.427 . S
C426 C214 0.890 . S
C421 C34 0.886 . S
C456 C180 1.121 . S
C451 C48 1.105 . S
C481 C8 2.284 . S
C486 C235 2.294 . S
C516 C142 1.150 . S
C511 C35 1.146 . S
C541 C47 1.136 . S
C546 C117 1.147 . S
C571 C17 1.887 . S
C576 C201 1.918 . S
C606 C133 2.351 1_665 S
C601 C60 2.339 . S
C631 C74 2.591 . S
C636 C155 2.605 . S
C661 C82 0.469 . S
C666 C185 0.464 . S
C691 C100 1.286 . S
C696 C219 1.298 . S
C721 C61 2.238 . S
C726 C138 2.241 1_566 S
C756 C112 1.943 . S
C751 C73 1.932 . S
C786 C223 1.441 . S
C781 C87 1.439 . S
C816 C189 0.763 . S
C811 C95 0.760 . S
C841 C56 2.244 . S
C846 C206 2.352 . S
C876 C151 1.165 . S
C871 C86 1.157 . S
C906 C108 1.024 . S
C901 C99 1.016 . S
C931 C69 2.031 . S
C936 C172 2.060 . S
