# Generated by pormake.
# Topology tsx, (6,3)-cn, num edge types: 1
# Building blocks:
#     Node 0, Type 0, BuildingBlock: MIDCAF_clean_sbu_0, # of connection points: 6
#     Node 1, Type 0, BuildingBlock: MIDCAF_clean_sbu_0, # of connection points: 6
#     Node 2, Type 1, BuildingBlock: CUQRIR_clean_linker_1, # of connection points: 3
#     Node 3, Type 1, BuildingBlock: CUQRIR_clean_linker_1, # of connection points: 3
#     Node 4, Type 1, BuildingBlock: CUQRIR_clean_linker_1, # of connection points: 3
#     Node 5, Type 1, BuildingBlock: CUQRIR_clean_linker_1, # of connection points: 3
#     Edge 6, Type (0, 1), BuildingBlock: EZIPEK_clean_linker_0, # of connection points: 2
#     Edge 7, Type (0, 1), BuildingBlock: EZIPEK_clean_linker_0, # of connection points: 2
#     Edge 8, Type (0, 1), BuildingBlock: EZIPEK_clean_linker_0, # of connection points: 2
#     Edge 9, Type (0, 1), BuildingBlock: EZIPEK_clean_linker_0, # of connection points: 2
#     Edge 10, Type (0, 1), BuildingBlock: EZIPEK_clean_linker_0, # of connection points: 2
#     Edge 11, Type (0, 1), BuildingBlock: EZIPEK_clean_linker_0, # of connection points: 2
#     Edge 12, Type (0, 1), BuildingBlock: EZIPEK_clean_linker_0, # of connection points: 2
#     Edge 13, Type (0, 1), BuildingBlock: EZIPEK_clean_linker_0, # of connection points: 2
#     Edge 14, Type (0, 1), BuildingBlock: EZIPEK_clean_linker_0, # of connection points: 2
#     Edge 15, Type (0, 1), BuildingBlock: EZIPEK_clean_linker_0, # of connection points: 2
#     Edge 16, Type (0, 1), BuildingBlock: EZIPEK_clean_linker_0, # of connection points: 2
#     Edge 17, Type (0, 1), BuildingBlock: EZIPEK_clean_linker_0, # of connection points: 2
# Relax obj value: 0.119
# Max RMSD: 0.171
# Mean RMSD: 0.149
data_MOF--net-tsx--node1-MIDCAF_clean_sbu_0--node2-CUQRIR_clean_linker_1--edge1-EZIPEK_clean_linker_0
_symmetry_space_group_name_H-M    P1
_symmetry_Int_Tables_number       1
_symmetry_cell_setting            triclinic
loop_
_symmetry_equiv_pos_as_xyz
'x, y, z'
_cell_length_a     12.860171
_cell_length_b     13.392531
_cell_length_c     24.673899
_cell_angle_alpha  78.388304
_cell_angle_beta   94.415402
_cell_angle_gamma 90.443943
loop_
_atom_site_label
_atom_site_type_symbol
_atom_site_fract_x
_atom_site_fract_y
_atom_site_fract_z
_atom_type_partial_charge
Zn0 Zn 0.8834 0.92256 0.91218 0.0
Zn1 Zn 0.12197 0.86369 0.05039 0.0
Zn2 Zn 0.99718 0.98542 -0.0063 0.0
C3 C 0.219 0.0474 0.03492 0.0
C4 C 0.106 0.78505 0.96333 0.0
O5 O 0.92336 0.84636 0.03435 0.0
O6 O 0.87841 0.77953 0.96159 0.0
C7 C 0.77678 0.08597 0.9297 0.0
O8 O 0.12125 0.06889 0.03372 0.0
O9 O 0.24258 0.96054 0.02702 0.0
O10 O 0.1145 0.74316 0.01421 0.0
O11 O 0.07476 0.87776 0.94947 0.0
O12 O 0.75714 1.00865 0.9088 0.0
O13 O 0.8634 0.09055 0.95888 0.0
O14 O 0.09691 0.02062 0.92492 0.0
O15 O 0.98602 0.99422 0.85676 0.0
C16 C 0.07012 0.03322 0.87296 0.0
O17 O 0.03638 0.01975 0.07551 0.0
O18 O 0.07761 0.87133 0.12739 0.0
C19 C 0.886 0.77212 0.01388 0.0
C20 C 0.05207 0.9637 0.12418 0.0
Zn21 Zn 0.75246 0.55236 0.54994 0.0
Zn22 Zn 0.41977 0.60141 0.41689 0.0
Zn23 Zn 0.59308 0.60528 0.47889 0.0
C24 C 0.57815 0.54861 0.3581 0.0
C25 C 0.45429 0.80395 0.43114 0.0
O26 O 0.55517 0.51554 0.5612 0.0
O27 O 0.69792 0.46732 0.61604 0.0
C28 C 0.81287 0.49788 0.45754 0.0
O29 O 0.63195 0.55226 0.40388 0.0
O30 O 0.48204 0.5696 0.35212 0.0
O31 O 0.38797 0.74543 0.41388 0.0
O32 O 0.54223 0.76856 0.45621 0.0
O33 O 0.84912 0.49328 0.5069 0.0
O34 O 0.72063 0.53492 0.4411 0.0
O35 O 0.64355 0.75828 0.49061 0.0
O36 O 0.77285 0.69751 0.55263 0.0
C37 C 0.72169 0.77272 0.52402 0.0
O38 O 0.4716 0.50579 0.5227 0.0
O39 O 0.33688 0.49632 0.46266 0.0
C40 C 0.59995 0.47061 0.60843 0.0
C41 C 0.38143 0.46949 0.51066 0.0
C42 C 0.17504 0.23185 0.37787 0.0
N43 N 0.20591 0.15534 0.35377 0.0
N44 N 0.08671 0.27802 0.35093 0.0
C45 C 0.23548 0.26611 0.4253 0.0
C46 C 0.06825 0.23134 0.30764 0.0
N47 N 0.13837 0.15551 0.30981 0.0
C48 C 0.9762 0.25485 0.26545 0.0
H49 H 0.18694 0.31318 0.44588 0.0
H50 H 0.30175 0.31317 0.40882 0.0
H51 H 0.26906 0.20004 0.45578 0.0
H52 H 0.92867 0.31887 0.2727 0.0
H53 H 0.92743 0.18582 0.2667 0.0
H54 H 1.00342 0.27642 0.22324 0.0
C55 C 0.02935 0.14952 0.57425 0.0
N56 N 0.09843 0.17865 0.61219 0.0
N57 N 0.96039 0.08087 0.59856 0.0
C58 C 0.03348 0.18344 0.51336 0.0
C59 C 0.99034 0.06877 0.65319 0.0
N60 N 0.07357 0.12801 0.66154 0.0
C61 C 0.94302 0.99391 0.69834 0.0
H62 H 0.96959 0.14898 0.4912 0.0
H63 H 0.10845 0.15921 0.50135 0.0
H64 H 0.02978 0.26787 0.5026 0.0
H65 H 0.99976 0.93121 0.71507 0.0
H66 H 0.8697 0.96134 0.68289 0.0
H67 H 0.927 0.03177 0.73293 0.0
C68 C 0.42399 0.45541 0.89427 0.0
N69 N 0.46304 0.40305 0.85913 0.0
N70 N 0.32982 0.50083 0.87279 0.0
C71 C 0.49792 0.48812 0.93752 0.0
C72 C 0.32155 0.48033 0.82036 0.0
N73 N 0.40357 0.42299 0.81195 0.0
C74 C 0.24594 0.53304 0.77324 0.0
H75 H 0.48398 0.44431 -0.02077 0.0
H76 H 0.4937 0.57146 0.93444 0.0
H77 H 0.57988 0.47249 0.93119 0.0
H78 H 0.27721 0.54029 0.73209 0.0
H79 H 0.22486 0.61043 0.77847 0.0
H80 H 0.1746 0.48658 0.77129 0.0
C81 C 0.62113 0.35145 0.08744 0.0
N82 N 0.66581 0.41693 0.11788 0.0
N83 N 0.54167 0.29966 0.11328 0.0
C84 C 0.66033 0.33251 0.03459 0.0
C85 C 0.54144 0.33317 0.16127 0.0
N86 N 0.61581 0.4042 0.16408 0.0
C87 C 0.46045 0.30516 0.20231 0.0
H88 H 0.59813 0.30093 0.00943 0.0
H89 H 0.7244 0.2753 0.04537 0.0
H90 H 0.69301 0.40271 0.01022 0.0
H91 H 0.49186 0.30849 0.24475 0.0
H92 H 0.42934 0.22802 0.20127 0.0
H93 H 0.39571 0.3615 0.19184 0.0
C94 C 0.28933 0.22065 0.04579 0.0
C95 C 0.30258 0.11328 0.05494 0.0
C96 C 0.481 0.13262 0.09568 0.0
C97 C 0.46279 0.23761 0.09139 0.0
N98 N 0.33529 0.37194 0.08071 0.0
N99 N 0.40018 0.96754 0.1098 0.0
C100 C 0.36253 0.27874 0.07215 0.0
C101 C 0.3958 0.06873 0.08549 0.0
N102 N 0.21056 0.2688 0.00997 0.0
N103 N 0.57846 0.0931 0.11197 0.0
H104 H 0.33516 0.92049 0.11203 0.0
H105 H 0.46413 0.93407 0.13532 0.0
H106 H 0.64072 0.13762 0.12262 0.0
H107 H 0.59846 0.01838 0.11063 0.0
H108 H 0.20146 0.3478 0.00062 0.0
H109 H 0.16198 0.23174 -0.01528 0.0
H110 H 0.25794 0.39733 0.07563 0.0
H111 H 0.38894 0.42202 0.09428 0.0
C112 C 0.26551 0.71323 0.94018 0.0
C113 C 0.15944 0.73423 0.92497 0.0
C114 C 0.15515 0.58661 0.87915 0.0
C115 C 0.26381 0.57076 0.89479 0.0
N116 N 0.3289 0.55529 -0.01227 0.0
N117 N 1.00403 0.6995 0.87167 0.0
C118 C 0.30179 0.61676 0.93835 0.0
C119 C 0.10377 0.67335 0.89172 0.0
N120 N 0.32601 0.77597 0.966 0.0
N121 N 0.09905 0.51069 0.86192 0.0
H122 H 0.96975 0.76617 0.8779 0.0
H123 H 0.961 0.66224 0.84432 0.0
H124 H 0.13367 0.44017 0.86269 0.0
H125 H 0.01829 0.5127 0.85409 0.0
H126 H 0.40358 0.75798 -0.0204 0.0
H127 H 0.30044 0.84826 0.96859 0.0
H128 H 0.33744 0.58241 0.02469 0.0
H129 H 0.32471 0.47701 -0.00944 0.0
C130 C 0.72227 0.67461 0.03165 0.0
C131 C 0.82911 0.68708 0.04797 0.0
C132 C 0.82871 0.52077 0.11308 0.0
C133 C 0.72327 0.50781 0.09533 0.0
N134 N 0.56713 0.57007 0.0447 0.0
N135 N 0.97811 0.63356 0.11251 0.0
C136 C 0.67021 0.58469 0.05596 0.0
C137 C 0.88071 0.6137 0.09144 0.0
N138 N 0.67118 0.74919 -0.00725 0.0
N139 N 0.87964 0.4422 0.14871 0.0
H140 H 0.01615 0.70151 0.09853 0.0
H141 H 0.01753 0.58746 0.14678 0.0
H142 H 0.84225 0.37405 0.16388 0.0
H143 H 0.95925 0.44136 0.16008 0.0
H144 H 0.60068 0.73936 0.97095 0.0
H145 H 0.70086 0.8224 -0.01901 0.0
H146 H 0.51635 0.62525 0.02163 0.0
H147 H 0.51635 0.62525 0.02163 0.0
C148 C 0.59537 0.15494 0.93051 0.0
C149 C 0.69976 0.17239 0.91596 0.0
C150 C 0.64874 0.34468 0.86483 0.0
C151 C 0.54283 0.3236 0.87478 0.0
N152 N 0.41265 0.20565 0.91242 0.0
N153 N 0.82188 0.27767 0.861 0.0
C154 C 0.51558 0.22748 0.90626 0.0
C155 C 0.72548 0.26579 0.88098 0.0
N156 N 0.57335 0.07013 0.96887 0.0
N157 N 0.67683 0.44154 0.84219 0.0
H158 H 0.8801 0.22208 0.87187 0.0
H159 H 0.84121 0.33886 0.83024 0.0
H160 H 0.62296 0.50106 0.83225 0.0
H161 H 0.75396 0.46479 0.8389 0.0
H162 H 0.50095 0.05607 -0.01515 0.0
H163 H 0.63047 0.01733 -0.01154 0.0
H164 H 0.38547 0.13405 0.93019 0.0
H165 H 0.35297 0.25763 0.89565 0.0
C166 C 0.72093 0.94964 0.54721 0.0
C167 C 0.76978 0.87383 0.52491 0.0
C168 C 0.94096 0.93477 0.55222 0.0
C169 C 0.8944 1.01369 0.5722 0.0
N170 N 0.74109 0.10855 0.58098 0.0
N171 N 0.92338 0.82107 0.48779 0.0
C172 C 0.78423 0.02574 0.56668 0.0
C173 C 0.87889 0.87715 0.52049 0.0
N174 N 0.61608 0.94573 0.55234 0.0
N175 N 0.04276 0.90876 0.56761 0.0
H176 H 0.87856 0.77887 0.46343 0.0
H177 H 1.00245 0.82517 0.48095 0.0
H178 H 0.08966 0.94627 0.59335 0.0
H179 H 0.07645 0.84311 0.55964 0.0
H180 H 0.57708 0.99257 0.5732 0.0
H181 H 0.56888 0.8922 0.53725 0.0
H182 H 0.66191 0.12653 0.57409 0.0
H183 H 0.78677 0.16312 0.59622 0.0
C184 C 0.8584 0.34048 0.4253 0.0
C185 C 0.87225 0.44638 0.42202 0.0
C186 C 0.0273 0.44204 0.3703 0.0
C187 C 0.01183 0.33651 0.37272 0.0
N188 N 0.89913 0.18996 0.39115 0.0
N189 N 0.95789 0.60261 0.38474 0.0
C190 C 0.92204 0.28788 0.39571 0.0
C191 C 0.953 0.49882 0.39216 0.0
N192 N 0.78963 0.28826 0.46013 0.0
N193 N 0.11396 0.48687 0.3477 0.0
H194 H 0.90403 0.6453 0.4003 0.0
H195 H 1.00989 0.64705 0.36009 0.0
H196 H 0.16656 0.44716 0.32953 0.0
H197 H 0.13652 0.56113 0.34911 0.0
H198 H 0.7848 0.20909 0.46926 0.0
H199 H 0.74052 0.32359 0.48244 0.0
H200 H 0.82734 0.15649 0.39994 0.0
H201 H 0.95028 0.14233 0.37748 0.0
C202 C 0.24846 0.42381 0.57986 0.0
C203 C 0.32985 0.39252 0.55164 0.0
C204 C 0.27392 0.21468 0.57628 0.0
C205 C 0.1856 0.2472 0.59987 0.0
N206 N 0.08076 0.37949 0.61743 0.0
N207 N 0.4377 0.25895 0.534 0.0
C208 C 0.17264 0.35126 0.60112 0.0
C209 C 0.34881 0.28772 0.55404 0.0
N210 N 0.24496 0.52254 0.58653 0.0
N211 N 0.28034 0.11585 0.5702 0.0
H212 H 0.49273 0.31154 0.51716 0.0
H213 H 0.46177 0.18372 0.53793 0.0
H214 H 0.22233 0.06309 0.58164 0.0
H215 H 0.33746 0.08742 0.54967 0.0
H216 H 0.19449 0.54885 0.61165 0.0
H217 H 0.30049 0.57602 0.57121 0.0
H218 H 0.05723 0.45456 0.61536 0.0
H219 H 0.05723 0.45456 0.61536 0.0
C220 C 0.33632 0.93079 0.45362 0.0
C221 C 0.4208 0.91175 0.42375 0.0
C222 C 0.37897 0.07039 0.35656 0.0
C223 C 0.28137 0.07557 0.37876 0.0
N224 N 0.16714 1.00959 0.45022 0.0
N225 N 0.52566 0.96397 0.34667 0.0
C226 C 0.26086 1.00638 0.42843 0.0
C227 C 0.44409 0.98265 0.37554 0.0
N228 N 0.32772 0.87447 0.50575 0.0
N229 N 0.41171 0.15152 0.31959 0.0
H230 H 0.57696 0.90272 0.36125 0.0
H231 H 0.53919 1.00646 0.30761 0.0
H232 H 0.36799 0.21872 0.30846 0.0
H233 H 0.48688 0.15589 0.30638 0.0
H234 H 0.27342 0.89008 0.53221 0.0
H235 H 0.38258 0.8184 0.52433 0.0
H236 H 0.14309 0.95291 0.48175 0.0
H237 H 0.10925 0.06307 0.43329 0.0
C238 C 0.10115 0.11413 0.16823 0.0
C239 C 0.06644 1.01156 0.17435 0.0
C240 C 0.08627 0.99881 0.27561 0.0
C241 C 0.13871 0.09372 0.26804 0.0
N242 N 0.21131 0.23327 0.20629 0.0
N243 N 0.02062 0.85634 0.23673 0.0
C244 C 0.15527 0.14555 0.21381 0.0
C245 C 0.05947 0.95293 0.22901 0.0
N246 N 0.07084 0.18597 0.12213 0.0
N247 N 0.05303 0.95744 0.32632 0.0
H248 H 0.98066 0.82698 0.20512 0.0
H249 H 0.02822 0.80555 0.27485 0.0
H250 H 0.06674 0.9924 0.35999 0.0
H251 H 1.00448 0.89433 0.33372 0.0
H252 H 0.09083 0.26261 0.11763 0.0
H253 H 1.00968 0.17489 0.09387 0.0
H254 H 0.231 0.27096 0.16732 0.0
H255 H 0.24323 0.26385 0.23942 0.0
C256 C 0.19455 0.0308 0.80243 0.0
C257 C 0.13572 0.08873 0.83081 0.0
C258 C 0.07322 0.20021 0.74531 0.0
C259 C 0.12068 0.13555 0.71529 0.0
N260 N 0.24611 1.00427 0.71388 0.0
N261 N 0.06827 0.25283 0.83343 0.0
C262 C 0.19077 0.05746 0.74359 0.0
C263 C 0.09558 0.18397 0.80326 0.0
N264 N 0.24579 0.94612 0.83194 0.0
N265 N 0.99516 0.26567 0.7202 0.0
H266 H 0.08199 0.23797 0.87662 0.0
H267 H 0.04117 0.32587 0.81508 0.0
H268 H 0.9666 0.26903 0.67919 0.0
H269 H 0.95138 0.30773 0.74168 0.0
H270 H 0.28254 0.89275 0.81441 0.0
H271 H 0.2501 0.93052 0.8752 0.0
H272 H 0.30242 0.94943 0.73135 0.0
H273 H 0.23862 0.01994 0.67089 0.0
C274 C 0.52122 0.5432 0.6799 0.0
C275 C 0.53965 0.456 0.6576 0.0
C276 C 0.45418 0.3484 0.73357 0.0
C277 C 0.44806 0.43339 0.75919 0.0
N278 N 0.49255 0.60888 0.76136 0.0
N279 N 0.53236 0.27441 0.66388 0.0
C280 C 0.48607 0.53008 0.73356 0.0
C281 C 0.50841 0.3579 0.68454 0.0
N282 N 0.53769 0.63912 0.65 0.0
N283 N 0.40646 0.25986 0.75577 0.0
H284 H 0.57074 0.28006 0.62763 0.0
H285 H 0.51966 0.19979 0.68411 0.0
H286 H 0.3665 0.25242 0.79161 0.0
H287 H 0.39962 0.19732 0.73663 0.0
H288 H 0.51154 0.7051 0.6611 0.0
H289 H 0.56961 0.65379 0.61168 0.0
H290 H 0.53091 0.6768 0.74721 0.0
H291 H 0.47066 0.60345 0.80152 0.0
C292 C 0.6155 0.58981 0.25975 0.0
C293 C 0.62568 0.51979 0.31101 0.0
C294 C 0.67425 0.38768 0.26243 0.0
C295 C 0.63902 0.45114 0.2113 0.0
N296 N 0.54372 0.60279 0.16603 0.0
N297 N 0.64257 0.34472 0.35947 0.0
C298 C 0.6035 0.55111 0.21053 0.0
C299 C 0.65198 0.41679 0.31247 0.0
N300 N 0.60804 0.69184 0.25843 0.0
N301 N 0.71778 0.29506 0.2628 0.0
H302 H 0.61998 0.36257 0.3961 0.0
H303 H 0.64851 0.26674 0.36062 0.0
H304 H 0.73029 0.27058 0.22624 0.0
H305 H 0.74836 0.24709 0.29904 0.0
H306 H 0.60546 0.74596 0.22144 0.0
H307 H 0.61495 0.7215 0.29458 0.0
H308 H 0.51069 0.67413 0.16485 0.0
H309 H 0.51275 0.56607 0.13528 0.0
loop_
_geom_bond_atom_site_label_1
_geom_bond_atom_site_label_2
_geom_bond_distance
_geom_bond_site_symmetry_2
_ccdc_geom_bond_type
Zn0 O6 1.920 1_545 S
Zn0 O12 1.898 . S
Zn0 O15 1.905 1_545 S
Zn1 O9 1.905 1_565 S
Zn1 O10 1.898 . S
Zn1 O18 1.920 . S
Zn2 O5 2.080 1_445 S
Zn2 O8 2.114 . S
Zn2 O11 2.120 1_545 S
Zn2 O13 2.120 1_455 S
Zn2 O14 2.114 1_554 S
Zn2 O17 2.080 . S
C3 O8 1.166 . S
C3 O9 1.182 . S
C4 O10 1.167 . S
C4 O11 1.299 . S
O5 Zn2 2.080 1_665 S
O5 C19 1.305 . S
O6 Zn0 1.920 1_565 S
O6 C19 1.234 1_556 S
C7 O12 1.167 . S
C7 O13 1.299 1_556 S
O8 Zn2 2.114 . S
O8 C3 1.166 . S
O9 Zn1 1.905 1_545 S
O9 C3 1.182 . S
O10 Zn1 1.898 . S
O10 C4 1.167 . S
O11 Zn2 2.120 1_565 S
O11 C4 1.299 . S
O12 Zn0 1.898 . S
O12 C7 1.167 . S
O13 Zn2 2.120 1_655 S
O13 C7 1.299 1_554 S
O14 Zn2 2.114 1_556 S
O14 C16 1.166 1_545 S
O15 Zn0 1.905 1_565 S
O15 C16 1.182 1_655 S
C16 O14 1.166 1_565 S
C16 O15 1.182 1_455 S
O17 Zn2 2.080 . S
O17 C20 1.305 1_545 S
O18 Zn1 1.920 . S
O18 C20 1.234 . S
C19 O5 1.305 . S
C19 O6 1.234 1_554 S
C20 O17 1.305 1_565 S
C20 O18 1.234 . S
Zn21 O27 1.920 . S
Zn21 O33 1.898 . S
Zn21 O36 1.905 . S
Zn22 O30 1.905 . S
Zn22 O31 1.898 . S
Zn22 O39 1.920 . S
Zn23 O26 2.080 . S
Zn23 O29 2.114 . S
Zn23 O32 2.120 . S
Zn23 O34 2.120 . S
Zn23 O35 2.114 . S
Zn23 O38 2.080 . S
C24 O29 1.166 . S
C24 O30 1.182 . S
C25 O31 1.167 . S
C25 O32 1.299 . S
O26 Zn23 2.080 . S
O26 C40 1.305 . S
O27 Zn21 1.920 . S
O27 C40 1.234 . S
C28 O33 1.167 . S
C28 O34 1.299 . S
O29 Zn23 2.114 . S
O29 C24 1.166 . S
O30 Zn22 1.905 . S
O30 C24 1.182 . S
O31 Zn22 1.898 . S
O31 C25 1.167 . S
O32 Zn23 2.120 . S
O32 C25 1.299 . S
O33 Zn21 1.898 . S
O33 C28 1.167 . S
O34 Zn23 2.120 . S
O34 C28 1.299 . S
O35 Zn23 2.114 . S
O35 C37 1.166 . S
O36 Zn21 1.905 . S
O36 C37 1.182 . S
C37 O35 1.166 . S
C37 O36 1.182 . S
O38 Zn23 2.080 . S
O38 C41 1.305 . S
O39 Zn22 1.920 . S
O39 C41 1.234 . S
C40 O26 1.305 . S
C40 O27 1.234 . S
C41 O38 1.305 . S
C41 O39 1.234 . S
C42 N43 1.317 1_545 S
C42 N44 1.348 . S
C42 C45 1.485 . S
N43 C42 1.317 1_565 S
N43 N47 1.370 1_565 S
N44 C42 1.348 . S
N44 C46 1.346 . S
C45 C42 1.485 . S
C45 H49 0.960 1_545 S
C45 H50 0.961 . S
C45 H51 0.960 1_545 S
C46 N44 1.346 . S
C46 N47 1.307 . S
C46 C48 1.486 1_455 S
N47 N43 1.370 1_545 S
N47 C46 1.307 . S
C48 C46 1.486 1_655 S
C48 H52 0.960 . S
C48 H53 0.960 . S
C48 H54 0.959 . S
H49 C45 0.960 1_565 S
H50 C45 0.961 . S
H51 C45 0.960 1_565 S
H52 C48 0.960 . S
H53 C48 0.960 . S
H54 C48 0.959 . S
C55 N56 1.317 . S
C55 N57 1.348 1_445 S
C55 C58 1.485 . S
N56 C55 1.317 . S
N56 N60 1.370 . S
N57 C55 1.348 1_665 S
N57 C59 1.346 . S
C58 C55 1.485 . S
C58 H62 0.960 1_455 S
C58 H63 0.961 1_545 S
C58 H64 0.960 . S
C59 N57 1.346 . S
C59 N60 1.307 1_665 S
C59 C61 1.486 . S
N60 N56 1.370 . S
N60 C59 1.307 1_445 S
C61 C59 1.486 . S
C61 H65 0.960 . S
C61 H66 0.960 . S
C61 H67 0.959 . S
H62 C58 0.960 1_655 S
H63 C58 0.961 1_565 S
H64 C58 0.960 . S
H65 C61 0.960 . S
H66 C61 0.960 . S
H67 C61 0.959 . S
C68 N69 1.317 . S
C68 N70 1.348 . S
C68 C71 1.485 1_556 S
N69 C68 1.317 . S
N69 N73 1.370 . S
N70 C68 1.348 . S
N70 C72 1.346 . S
C71 C68 1.485 1_554 S
C71 H75 0.960 . S
C71 H76 0.961 . S
C71 H77 0.960 . S
C72 N70 1.346 . S
C72 N73 1.307 . S
C72 C74 1.486 . S
N73 N69 1.370 . S
N73 C72 1.307 . S
C74 C72 1.486 . S
C74 H78 0.960 . S
C74 H79 0.960 . S
C74 H80 0.959 . S
H75 C71 0.960 . S
H76 C71 0.961 . S
H77 C71 0.960 . S
H78 C74 0.960 . S
H79 C74 0.960 . S
H80 C74 0.959 . S
C81 N82 1.317 . S
C81 N83 1.348 . S
C81 C84 1.485 1_554 S
N82 C81 1.317 . S
N82 N86 1.370 . S
N83 C81 1.348 . S
N83 C85 1.346 . S
C84 C81 1.485 1_556 S
C84 H88 0.960 . S
C84 H89 0.961 . S
C84 H90 0.960 . S
C85 N83 1.346 . S
C85 N86 1.307 . S
C85 C87 1.486 . S
N86 N82 1.370 . S
N86 C85 1.307 . S
C87 C85 1.486 . S
C87 H91 0.960 . S
C87 H92 0.960 . S
C87 H93 0.959 . S
H88 C84 0.960 . S
H89 C84 0.961 . S
H90 C84 0.960 . S
H91 C87 0.960 . S
H92 C87 0.960 . S
H93 C87 0.959 . S
C94 C95 1.363 . S
C94 C100 1.379 . S
C94 N102 1.356 . S
C95 C94 1.363 . S
C95 C101 1.363 . S
C96 C97 1.363 . S
C96 C101 1.379 . S
C96 N103 1.356 . S
C97 C96 1.363 . S
C97 C100 1.363 . S
N98 C100 1.356 . S
N98 H110 0.984 . S
N98 H111 0.985 . S
N99 C101 1.356 . S
N99 H104 0.984 . S
N99 H105 0.985 . S
C100 C94 1.379 . S
C100 C97 1.363 . S
C100 N98 1.356 . S
C101 C95 1.363 . S
C101 C96 1.379 . S
C101 N99 1.356 . S
N102 C94 1.356 . S
N102 H108 0.984 . S
N102 H109 0.984 . S
N103 C96 1.356 . S
N103 H106 0.984 . S
N103 H107 0.985 . S
H104 N99 0.984 . S
H105 N99 0.985 . S
H106 N103 0.984 . S
H107 N103 0.985 . S
H108 N102 0.984 . S
H109 N102 0.984 . S
H110 N98 0.984 . S
H111 N98 0.985 . S
C112 C113 1.363 1_554 S
C112 C118 1.379 . S
C112 N120 1.356 . S
C113 C112 1.363 1_556 S
C113 C119 1.363 . S
C114 C115 1.363 . S
C114 C119 1.379 . S
C114 N121 1.356 . S
C115 C114 1.363 . S
C115 C118 1.363 1_556 S
N116 C118 1.356 . S
N116 H128 0.984 . S
N116 H129 0.985 . S
N117 C119 1.356 . S
N117 H122 0.984 . S
N117 H123 0.985 . S
C118 C112 1.379 . S
C118 C115 1.363 1_554 S
C118 N116 1.356 . S
C119 C113 1.363 . S
C119 C114 1.379 . S
C119 N117 1.356 . S
N120 C112 1.356 . S
N120 H126 0.984 . S
N120 H127 0.984 . S
N121 C114 1.356 . S
N121 H124 0.984 . S
N121 H125 0.985 . S
H122 N117 0.984 . S
H123 N117 0.985 . S
H124 N121 0.984 . S
H125 N121 0.985 . S
H126 N120 0.984 . S
H127 N120 0.984 . S
H128 N116 0.984 . S
H129 N116 0.985 . S
C130 C131 1.363 . S
C130 C136 1.379 . S
C130 N138 1.356 1_554 S
C131 C130 1.363 . S
C131 C137 1.363 . S
C132 C133 1.363 . S
C132 C137 1.379 . S
C132 N139 1.356 . S
C133 C132 1.363 . S
C133 C136 1.363 . S
N134 C136 1.356 1_556 S
N134 H146 0.984 . S
N134 H147 0.985 1_556 S
N135 C137 1.356 . S
N135 H140 0.984 . S
N135 H141 0.985 . S
C136 C130 1.379 . S
C136 C133 1.363 . S
C136 N134 1.356 1_554 S
C137 C131 1.363 . S
C137 C132 1.379 . S
C137 N135 1.356 . S
N138 C130 1.356 1_556 S
N138 H144 0.984 . S
N138 H145 0.984 . S
N139 C132 1.356 . S
N139 H142 0.984 . S
N139 H143 0.985 . S
H140 N135 0.984 . S
H141 N135 0.985 . S
H142 N139 0.984 . S
H143 N139 0.985 . S
H144 N138 0.984 . S
H145 N138 0.984 . S
H146 N134 0.984 . S
H147 N134 0.985 1_554 S
C148 C149 1.363 1_554 S
C148 C154 1.379 1_554 S
C148 N156 1.356 . S
C149 C148 1.363 1_556 S
C149 C155 1.363 . S
C150 C151 1.363 . S
C150 C155 1.379 . S
C150 N157 1.356 . S
C151 C150 1.363 . S
C151 C154 1.363 . S
N152 C154 1.356 1_554 S
N152 H164 0.984 . S
N152 H165 0.985 1_554 S
N153 C155 1.356 . S
N153 H158 0.984 . S
N153 H159 0.985 . S
C154 C148 1.379 1_556 S
C154 C151 1.363 . S
C154 N152 1.356 1_556 S
C155 C149 1.363 . S
C155 C150 1.379 . S
C155 N153 1.356 . S
N156 C148 1.356 . S
N156 H162 0.984 . S
N156 H163 0.984 . S
N157 C150 1.356 . S
N157 H160 0.984 . S
N157 H161 0.985 . S
H158 N153 0.984 . S
H159 N153 0.985 . S
H160 N157 0.984 . S
H161 N157 0.985 . S
H162 N156 0.984 . S
H163 N156 0.984 . S
H164 N152 0.984 . S
H165 N152 0.985 1_556 S
C166 C167 1.363 . S
C166 C172 1.379 . S
C166 N174 1.356 . S
C167 C166 1.363 . S
C167 C173 1.363 . S
C168 C169 1.363 . S
C168 C173 1.379 . S
C168 N175 1.356 1_655 S
C169 C168 1.363 . S
C169 C172 1.363 . S
N170 C172 1.356 1_545 S
N170 H182 0.984 . S
N170 H183 0.985 . S
N171 C173 1.356 . S
N171 H176 0.984 . S
N171 H177 0.985 . S
C172 C166 1.379 . S
C172 C169 1.363 . S
C172 N170 1.356 1_565 S
C173 C167 1.363 . S
C173 C168 1.379 . S
C173 N171 1.356 . S
N174 C166 1.356 . S
N174 H180 0.984 . S
N174 H181 0.984 . S
N175 C168 1.356 1_455 S
N175 H178 0.984 . S
N175 H179 0.985 . S
H176 N171 0.984 . S
H177 N171 0.985 . S
H178 N175 0.984 . S
H179 N175 0.985 . S
H180 N174 0.984 . S
H181 N174 0.984 . S
H182 N170 0.984 . S
H183 N170 0.985 . S
C184 C185 1.363 . S
C184 C190 1.379 . S
C184 N192 1.356 . S
C185 C184 1.363 . S
C185 C191 1.363 . S
C186 C187 1.363 . S
C186 C191 1.379 . S
C186 N193 1.356 . S
C187 C186 1.363 . S
C187 C190 1.363 . S
N188 C190 1.356 1_455 S
N188 H200 0.984 . S
N188 H201 0.985 . S
N189 C191 1.356 . S
N189 H194 0.984 . S
N189 H195 0.985 . S
C190 C184 1.379 . S
C190 C187 1.363 . S
C190 N188 1.356 1_655 S
C191 C185 1.363 . S
C191 C186 1.379 . S
C191 N189 1.356 . S
N192 C184 1.356 . S
N192 H198 0.984 . S
N192 H199 0.984 . S
N193 C186 1.356 . S
N193 H196 0.984 . S
N193 H197 0.985 . S
H194 N189 0.984 . S
H195 N189 0.985 . S
H196 N193 0.984 . S
H197 N193 0.985 . S
H198 N192 0.984 . S
H199 N192 0.984 . S
H200 N188 0.984 . S
H201 N188 0.985 . S
C202 C203 1.363 . S
C202 C208 1.379 . S
C202 N210 1.356 . S
C203 C202 1.363 . S
C203 C209 1.363 . S
C204 C205 1.363 . S
C204 C209 1.379 . S
C204 N211 1.356 . S
C205 C204 1.363 . S
C205 C208 1.363 . S
N206 C208 1.356 . S
N206 H218 0.984 . S
N206 H219 0.985 1_455 S
N207 C209 1.356 . S
N207 H212 0.984 . S
N207 H213 0.985 . S
C208 C202 1.379 . S
C208 C205 1.363 . S
C208 N206 1.356 . S
C209 C203 1.363 . S
C209 C204 1.379 . S
C209 N207 1.356 . S
N210 C202 1.356 . S
N210 H216 0.984 . S
N210 H217 0.984 . S
N211 C204 1.356 . S
N211 H214 0.984 . S
N211 H215 0.985 . S
H212 N207 0.984 . S
H213 N207 0.985 . S
H214 N211 0.984 . S
H215 N211 0.985 . S
H216 N210 0.984 . S
H217 N210 0.984 . S
H218 N206 0.984 . S
H219 N206 0.985 1_655 S
C220 C221 1.363 . S
C220 C226 1.379 . S
C220 N228 1.356 . S
C221 C220 1.363 . S
C221 C227 1.363 . S
C222 C223 1.363 . S
C222 C227 1.379 . S
C222 N229 1.356 . S
C223 C222 1.363 . S
C223 C226 1.363 . S
N224 C226 1.356 . S
N224 H236 0.984 . S
N224 H237 0.985 . S
N225 C227 1.356 . S
N225 H230 0.984 . S
N225 H231 0.985 . S
C226 C220 1.379 . S
C226 C223 1.363 . S
C226 N224 1.356 . S
C227 C221 1.363 . S
C227 C222 1.379 . S
C227 N225 1.356 . S
N228 C220 1.356 . S
N228 H234 0.984 . S
N228 H235 0.984 . S
N229 C222 1.356 . S
N229 H232 0.984 1_565 S
N229 H233 0.985 1_565 S
H230 N225 0.984 . S
H231 N225 0.985 . S
H232 N229 0.984 1_545 S
H233 N229 0.985 1_545 S
H234 N228 0.984 . S
H235 N228 0.984 . S
H236 N224 0.984 . S
H237 N224 0.985 . S
C238 C239 1.363 1_545 S
C238 C244 1.379 . S
C238 N246 1.356 . S
C239 C238 1.363 1_565 S
C239 C245 1.363 . S
C240 C241 1.363 . S
C240 C245 1.379 . S
C240 N247 1.356 1_455 S
C241 C240 1.363 . S
C241 C244 1.363 1_565 S
N242 C244 1.356 . S
N242 H254 0.984 . S
N242 H255 0.985 . S
N243 C245 1.356 1_655 S
N243 H248 0.984 . S
N243 H249 0.985 . S
C244 C238 1.379 . S
C244 C241 1.363 1_545 S
C244 N242 1.356 . S
C245 C239 1.363 . S
C245 C240 1.379 . S
C245 N243 1.356 1_455 S
N246 C238 1.356 . S
N246 H252 0.984 . S
N246 H253 0.984 . S
N247 C240 1.356 1_655 S
N247 H250 0.984 . S
N247 H251 0.985 . S
H248 N243 0.984 . S
H249 N243 0.985 . S
H250 N247 0.984 . S
H251 N247 0.985 . S
H252 N246 0.984 . S
H253 N246 0.984 . S
H254 N242 0.984 . S
H255 N242 0.985 . S
C256 C257 1.363 . S
C256 C262 1.379 . S
C256 N264 1.356 . S
C257 C256 1.363 . S
C257 C263 1.363 1_465 S
C258 C259 1.363 1_655 S
C258 C263 1.379 . S
C258 N265 1.356 . S
C259 C258 1.363 1_455 S
C259 C262 1.363 1_545 S
N260 C262 1.356 . S
N260 H272 0.984 . S
N260 H273 0.985 . S
N261 C263 1.356 . S
N261 H266 0.984 . S
N261 H267 0.985 . S
C262 C256 1.379 . S
C262 C259 1.363 1_565 S
C262 N260 1.356 . S
C263 C257 1.363 1_645 S
C263 C258 1.379 . S
C263 N261 1.356 . S
N264 C256 1.356 . S
N264 H270 0.984 . S
N264 H271 0.984 . S
N265 C258 1.356 . S
N265 H268 0.984 . S
N265 H269 0.985 . S
H266 N261 0.984 . S
H267 N261 0.985 . S
H268 N265 0.984 . S
H269 N265 0.985 . S
H270 N264 0.984 . S
H271 N264 0.984 . S
H272 N260 0.984 . S
H273 N260 0.985 . S
C274 C275 1.363 . S
C274 C280 1.379 . S
C274 N282 1.356 . S
C275 C274 1.363 . S
C275 C281 1.363 . S
C276 C277 1.363 . S
C276 C281 1.379 . S
C276 N283 1.356 . S
C277 C276 1.363 . S
C277 C280 1.363 . S
N278 C280 1.356 . S
N278 H290 0.984 . S
N278 H291 0.985 . S
N279 C281 1.356 . S
N279 H284 0.984 . S
N279 H285 0.985 . S
C280 C274 1.379 . S
C280 C277 1.363 . S
C280 N278 1.356 . S
C281 C275 1.363 . S
C281 C276 1.379 . S
C281 N279 1.356 . S
N282 C274 1.356 . S
N282 H288 0.984 . S
N282 H289 0.984 . S
N283 C276 1.356 . S
N283 H286 0.984 . S
N283 H287 0.985 . S
H284 N279 0.984 . S
H285 N279 0.985 . S
H286 N283 0.984 . S
H287 N283 0.985 . S
H288 N282 0.984 . S
H289 N282 0.984 . S
H290 N278 0.984 . S
H291 N278 0.985 . S
C292 C293 1.363 . S
C292 C298 1.379 . S
C292 N300 1.356 . S
C293 C292 1.363 . S
C293 C299 1.363 . S
C294 C295 1.363 . S
C294 C299 1.379 . S
C294 N301 1.356 . S
C295 C294 1.363 . S
C295 C298 1.363 . S
N296 C298 1.356 . S
N296 H308 0.984 . S
N296 H309 0.985 . S
N297 C299 1.356 . S
N297 H302 0.984 . S
N297 H303 0.985 . S
C298 C292 1.379 . S
C298 C295 1.363 . S
C298 N296 1.356 . S
C299 C293 1.363 . S
C299 C294 1.379 . S
C299 N297 1.356 . S
N300 C292 1.356 . S
N300 H306 0.984 . S
N300 H307 0.984 . S
N301 C294 1.356 . S
N301 H304 0.984 . S
N301 H305 0.985 . S
H302 N297 0.984 . S
H303 N297 0.985 . S
H304 N301 0.984 . S
H305 N301 0.985 . S
H306 N300 0.984 . S
H307 N300 0.984 . S
H308 N296 0.984 . S
H309 N296 0.985 . S
C97 N83 1.338 . S
C95 C3 1.194 . S
C113 C4 1.453 1_556 S
C115 N70 1.525 . S
C131 C19 1.488 . S
C133 N82 1.617 . S
C149 C7 1.226 . S
C151 N69 1.409 . S
C167 C37 1.194 . S
C169 N57 1.338 . S
C185 C28 1.453 . S
C187 N44 1.525 1_655 S
C205 N56 1.617 . S
C203 C41 1.488 . S
C223 N43 1.409 . S
C221 C25 1.226 . S
C239 C20 1.373 . S
C241 N47 1.570 1_565 S
C257 C16 1.391 . S
C259 N60 1.502 . S
C277 N73 1.570 . S
C275 C40 1.373 . S
C293 C24 1.391 . S
C295 N86 1.502 . S
