# Generated by pormake.
# Topology sqc, (4,8)-cn, num edge types: 1
# Building blocks:
#     Node 0, Type 0, BuildingBlock: MUDLON_clean_linker_0, # of connection points: 4
#     Node 1, Type 0, BuildingBlock: MUDLON_clean_linker_0, # of connection points: 4
#     Node 2, Type 0, BuildingBlock: MUDLON_clean_linker_0, # of connection points: 4
#     Node 3, Type 0, BuildingBlock: MUDLON_clean_linker_0, # of connection points: 4
#     Node 4, Type 0, BuildingBlock: MUDLON_clean_linker_0, # of connection points: 4
#     Node 5, Type 0, BuildingBlock: MUDLON_clean_linker_0, # of connection points: 4
#     Node 6, Type 0, BuildingBlock: MUDLON_clean_linker_0, # of connection points: 4
#     Node 7, Type 0, BuildingBlock: MUDLON_clean_linker_0, # of connection points: 4
#     Node 8, Type 1, BuildingBlock: VETTIZ_charged_sbu_0, # of connection points: 8
#     Node 9, Type 1, BuildingBlock: VETTIZ_charged_sbu_0, # of connection points: 8
#     Node 10, Type 1, BuildingBlock: VETTIZ_charged_sbu_0, # of connection points: 8
#     Node 11, Type 1, BuildingBlock: VETTIZ_charged_sbu_0, # of connection points: 8
#     Edge 12, Type (0, 1), BuildingBlock: CIFDUS_clean_linker_0, # of connection points: 2
#     Edge 13, Type (0, 1), BuildingBlock: CIFDUS_clean_linker_0, # of connection points: 2
#     Edge 14, Type (0, 1), BuildingBlock: CIFDUS_clean_linker_0, # of connection points: 2
#     Edge 15, Type (0, 1), BuildingBlock: CIFDUS_clean_linker_0, # of connection points: 2
#     Edge 16, Type (0, 1), BuildingBlock: CIFDUS_clean_linker_0, # of connection points: 2
#     Edge 17, Type (0, 1), BuildingBlock: CIFDUS_clean_linker_0, # of connection points: 2
#     Edge 18, Type (0, 1), BuildingBlock: CIFDUS_clean_linker_0, # of connection points: 2
#     Edge 19, Type (0, 1), BuildingBlock: CIFDUS_clean_linker_0, # of connection points: 2
#     Edge 20, Type (0, 1), BuildingBlock: CIFDUS_clean_linker_0, # of connection points: 2
#     Edge 21, Type (0, 1), BuildingBlock: CIFDUS_clean_linker_0, # of connection points: 2
#     Edge 22, Type (0, 1), BuildingBlock: CIFDUS_clean_linker_0, # of connection points: 2
#     Edge 23, Type (0, 1), BuildingBlock: CIFDUS_clean_linker_0, # of connection points: 2
#     Edge 24, Type (0, 1), BuildingBlock: CIFDUS_clean_linker_0, # of connection points: 2
#     Edge 25, Type (0, 1), BuildingBlock: CIFDUS_clean_linker_0, # of connection points: 2
#     Edge 26, Type (0, 1), BuildingBlock: CIFDUS_clean_linker_0, # of connection points: 2
#     Edge 27, Type (0, 1), BuildingBlock: CIFDUS_clean_linker_0, # of connection points: 2
#     Edge 28, Type (0, 1), BuildingBlock: CIFDUS_clean_linker_0, # of connection points: 2
#     Edge 29, Type (0, 1), BuildingBlock: CIFDUS_clean_linker_0, # of connection points: 2
#     Edge 30, Type (0, 1), BuildingBlock: CIFDUS_clean_linker_0, # of connection points: 2
#     Edge 31, Type (0, 1), BuildingBlock: CIFDUS_clean_linker_0, # of connection points: 2
#     Edge 32, Type (0, 1), BuildingBlock: CIFDUS_clean_linker_0, # of connection points: 2
#     Edge 33, Type (0, 1), BuildingBlock: CIFDUS_clean_linker_0, # of connection points: 2
#     Edge 34, Type (0, 1), BuildingBlock: CIFDUS_clean_linker_0, # of connection points: 2
#     Edge 35, Type (0, 1), BuildingBlock: CIFDUS_clean_linker_0, # of connection points: 2
#     Edge 36, Type (0, 1), BuildingBlock: CIFDUS_clean_linker_0, # of connection points: 2
#     Edge 37, Type (0, 1), BuildingBlock: CIFDUS_clean_linker_0, # of connection points: 2
#     Edge 38, Type (0, 1), BuildingBlock: CIFDUS_clean_linker_0, # of connection points: 2
#     Edge 39, Type (0, 1), BuildingBlock: CIFDUS_clean_linker_0, # of connection points: 2
#     Edge 40, Type (0, 1), BuildingBlock: CIFDUS_clean_linker_0, # of connection points: 2
#     Edge 41, Type (0, 1), BuildingBlock: CIFDUS_clean_linker_0, # of connection points: 2
#     Edge 42, Type (0, 1), BuildingBlock: CIFDUS_clean_linker_0, # of connection points: 2
#     Edge 43, Type (0, 1), BuildingBlock: CIFDUS_clean_linker_0, # of connection points: 2
# Relax obj value: 0.165
# Max RMSD: 0.287
# Mean RMSD: 0.211
data_MOF--net-sqc--node1-VETTIZ_charged_sbu_0--node2-MUDLON_clean_linker_0--edge1-CIFDUS_clean_linker_0
_symmetry_space_group_name_H-M    P1
_symmetry_Int_Tables_number       1
_symmetry_cell_setting            triclinic
loop_
_symmetry_equiv_pos_as_xyz
'x, y, z'
_cell_length_a     28.995149
_cell_length_b     29.117023
_cell_length_c     79.907859
_cell_angle_alpha  89.920387
_cell_angle_beta   90.122465
_cell_angle_gamma 89.83429
loop_
_atom_site_label
_atom_site_type_symbol
_atom_site_fract_x
_atom_site_fract_y
_atom_site_fract_z
_atom_type_partial_charge
H0 H 0.77966 0.97495 0.55325 0.0
N1 N 0.83105 0.01129 0.52907 0.0
H2 H 0.73453 0.01562 0.57472 0.0
H3 H 0.82045 0.10482 0.53205 0.0
H4 H 0.77685 0.14518 0.55357 0.0
H5 H 0.79643 0.06703 0.50444 0.0
H6 H 0.75588 0.04243 0.47919 0.0
H7 H 0.81143 0.92613 0.51996 0.0
H8 H 0.76844 0.90103 0.49536 0.0
H9 H 0.89982 0.96105 0.54135 0.0
H10 H 0.87219 0.08281 0.51232 0.0
H11 H 0.98262 0.97286 0.5378 0.0
H12 H 0.95426 0.09697 0.50972 0.0
H13 H 0.20836 0.01625 0.53977 0.0
H14 H 0.25729 0.03739 0.5634 0.0
H15 H 0.24161 0.18058 0.55045 0.0
H16 H 0.19177 0.15915 0.52682 0.0
H17 H 0.23131 0.1063 0.49459 0.0
H18 H 0.28998 0.06204 0.47965 0.0
H19 H 0.22975 0.93641 0.49832 0.0
H20 H 0.17235 0.98113 0.51365 0.0
H21 H 0.12711 0.02977 0.54288 0.0
H22 H 0.04558 0.01588 0.54578 0.0
H23 H 0.0218 0.07443 0.49673 0.0
N24 N 0.17051 0.07483 0.51658 0.0
H25 H 0.10399 0.09126 0.4944 0.0
C26 C 0.80444 0.03658 0.54125 0.0
C27 C 0.77895 0.01214 0.55324 0.0
C28 C 0.75296 0.03531 0.56538 0.0
C29 C 0.75246 0.0835 0.56585 0.0
C30 C 0.77701 0.10796 0.55358 0.0
C31 C 0.80232 0.08481 0.5413 0.0
C32 C 0.80725 0.9982 0.514 0.0
C33 C 0.79125 0.03074 0.50235 0.0
C34 C 0.7676 0.01654 0.48796 0.0
C35 C 0.75883 0.9696 0.48508 0.0
C36 C 0.77534 0.93732 0.49682 0.0
C37 C 0.79947 0.95154 0.51103 0.0
C38 C 0.8796 0.02128 0.52743 0.0
C39 C 0.91169 0.99085 0.53449 0.0
C40 C 0.9591 0.99791 0.5325 0.0
C41 C 0.97569 0.03613 0.52352 0.0
C42 C 0.94322 0.06676 0.5165 0.0
C43 C 0.89583 0.05914 0.51826 0.0
C44 C 0.19567 0.08635 0.53163 0.0
C45 C 0.21465 0.05225 0.54214 0.0
C46 C 0.24273 0.06432 0.55564 0.0
C47 C 0.25328 0.11057 0.55871 0.0
C48 C 0.23421 0.14463 0.54828 0.0
C49 C 0.20548 0.13254 0.53491 0.0
C50 C 0.19752 0.04719 0.50523 0.0
C51 C 0.23018 0.06915 0.49508 0.0
C52 C 0.26367 0.04375 0.48655 0.0
C53 C 0.26508 0.99564 0.48796 0.0
C54 C 0.23031 0.97349 0.49724 0.0
C55 C 0.19703 0.99897 0.50587 0.0
C56 C 0.12231 0.0625 0.5184 0.0
C57 C 0.1049 0.04002 0.53269 0.0
C58 C 0.05763 0.03151 0.5343 0.0
C59 C 0.02644 0.04419 0.52156 0.0
C60 C 0.04423 0.06515 0.50705 0.0
C61 C 0.09141 0.0744 0.50558 0.0
H62 H 0.30809 0.52421 0.80318 0.0
N63 N 0.28774 0.5992 0.78551 0.0
H64 H 0.25575 0.47729 0.82015 0.0
H65 H 0.19592 0.61518 0.7905 0.0
H66 H 0.14341 0.5689 0.80769 0.0
H67 H 0.22875 0.55645 0.76371 0.0
H68 H 0.25094 0.50944 0.73998 0.0
H69 H 0.37003 0.59766 0.77066 0.0
H70 H 0.39225 0.5545 0.7458 0.0
H71 H 0.3243 0.64587 0.81078 0.0
H72 H 0.25069 0.66393 0.7644 0.0
H73 H 0.32785 0.72888 0.81449 0.0
H74 H 0.2563 0.74758 0.7674 0.0
H75 H 0.31102 0.03437 0.80444 0.0
H76 H 0.25587 0.0782 0.82063 0.0
H77 H 0.19174 0.95224 0.83691 0.0
H78 H 0.24558 0.90823 0.82029 0.0
H79 H 0.26157 0.97106 0.77382 0.0
H80 H 0.28641 0.01785 0.75014 0.0
H81 H 0.42681 0.01227 0.76836 0.0
H82 H 0.40117 0.96597 0.79225 0.0
H83 H 0.37342 0.8758 0.80886 0.0
H84 H 0.36588 0.79319 0.80475 0.0
H85 H 0.23277 0.81479 0.78145 0.0
N86 N 0.31515 0.94188 0.79991 0.0
H87 H 0.24195 0.89779 0.78502 0.0
C88 C 0.25615 0.57356 0.79588 0.0
C89 C 0.27217 0.53412 0.80417 0.0
C90 C 0.24217 0.50713 0.81367 0.0
C91 C 0.19548 0.51936 0.81522 0.0
C92 C 0.17931 0.5588 0.8068 0.0
C93 C 0.20926 0.58543 0.79708 0.0
C94 C 0.29807 0.57967 0.7693 0.0
C95 C 0.2645 0.55634 0.75986 0.0
C96 C 0.27735 0.52961 0.74607 0.0
C97 C 0.32385 0.52676 0.74101 0.0
C98 C 0.35646 0.55388 0.7496 0.0
C99 C 0.34378 0.5794 0.7637 0.0
C100 C 0.28787 0.64865 0.78727 0.0
C101 C 0.3092 0.66797 0.80132 0.0
C102 C 0.31156 0.71562 0.8033 0.0
C103 C 0.29315 0.74555 0.7911 0.0
C104 C 0.27071 0.72597 0.77713 0.0
C105 C 0.26778 0.67803 0.7753 0.0
C106 C 0.28126 0.96741 0.8098 0.0
C107 C 0.28443 0.01575 0.81106 0.0
C108 C 0.25318 0.04112 0.82067 0.0
C109 C 0.2185 0.01903 0.82986 0.0
C110 C 0.21687 0.97068 0.82951 0.0
C111 C 0.24792 0.94525 0.81979 0.0
C112 C 0.32969 0.96479 0.78475 0.0
C113 C 0.2978 0.97905 0.77251 0.0
C114 C 0.31215 1.00599 0.759 0.0
C115 C 0.35868 0.01908 0.75734 0.0
C116 C 0.39065 1.0035 0.76936 0.0
C117 C 0.37622 0.97663 0.7829 0.0
C118 C 0.30824 0.89303 0.79747 0.0
C119 C 0.34262 0.86261 0.80289 0.0
C120 C 0.33795 0.81521 0.80062 0.0
C121 C 0.29831 0.79666 0.79296 0.0
C122 C 0.26399 0.82744 0.78727 0.0
C123 C 0.26904 0.87509 0.78936 0.0
H124 H 0.72188 0.10056 0.08049 0.0
N125 N 0.66855 0.07727 0.05468 0.0
H126 H 0.76692 0.04957 0.09883 0.0
H127 H 0.66834 0.98286 0.05426 0.0
H128 H 0.71261 0.93198 0.07259 0.0
H129 H 0.72698 0.02851 0.03444 0.0
H130 H 0.78292 0.05954 0.015 0.0
H131 H 0.67978 0.16525 0.04604 0.0
H132 H 0.73432 0.19697 0.02565 0.0
H133 H 0.59089 0.09112 0.07176 0.0
H134 H 0.64137 0.03406 0.02554 0.0
H135 H 0.51213 0.07068 0.06382 0.0
H136 H 0.56306 0.01629 0.01701 0.0
H137 H 0.2865 0.03873 0.04067 0.0
H138 H 0.22675 1.00625 0.05837 0.0
H139 H 0.27796 0.86976 0.0475 0.0
H140 H 0.33534 0.90295 0.02873 0.0
H141 H 0.31635 0.95087 0.99232 0.0
H142 H 0.26292 0.98238 0.9715 0.0
H143 H 0.26435 0.11253 0.99744 0.0
H144 H 0.31898 0.08122 0.01768 0.0
H145 H 0.37018 0.0648 0.03944 0.0
H146 H 0.44867 0.08699 0.04708 0.0
H147 H 0.50138 0.96803 0.02087 0.0
N148 N 0.345 0.99079 0.0203 0.0
H149 H 0.42298 0.94832 0.01243 0.0
C150 C 0.69098 0.0458 0.06619 0.0
C151 C 0.71932 0.06374 0.07886 0.0
C152 C 0.7454 0.03464 0.08919 0.0
C153 C 0.74332 0.98677 0.08717 0.0
C154 C 0.71456 0.96872 0.07459 0.0
C155 C 0.68896 0.99784 0.06413 0.0
C156 C 0.69912 0.09463 0.04184 0.0
C157 C 0.72823 0.06531 0.03266 0.0
C158 C 0.76014 0.08326 0.02136 0.0
C159 C 0.76329 0.13096 0.01861 0.0
C160 C 0.7335 0.16018 0.02758 0.0
C161 C 0.70188 0.14213 0.0391 0.0
C162 C 0.62235 0.06479 0.0493 0.0
C163 C 0.58493 0.07465 0.05981 0.0
C164 C 0.53973 0.06326 0.05513 0.0
C165 C 0.53053 0.04192 0.03965 0.0
C166 C 0.56829 0.03199 0.02913 0.0
C167 C 0.61353 0.04275 0.03394 0.0
C168 C 0.31518 0.97314 0.0332 0.0
C169 C 0.28501 1.00186 0.04214 0.0
C170 C 0.25081 0.98303 0.0524 0.0
C171 C 0.24666 0.93505 0.05431 0.0
C172 C 0.27881 0.9067 0.04602 0.0
C173 C 0.31231 0.92557 0.0355 0.0
C174 C 0.32173 0.01343 0.00658 0.0
C175 C 0.30615 0.9866 0.99318 0.0
C176 C 0.27508 1.00453 0.98144 0.0
C177 C 0.25852 0.04984 0.98291 0.0
C178 C 0.27643 0.07761 0.99579 0.0
C179 C 0.30778 0.05964 0.00748 0.0
C180 C 0.39077 1.00532 0.02504 0.0
C181 C 0.39871 0.04411 0.03506 0.0
C182 C 0.44387 0.05632 0.03965 0.0
C183 C 0.4821 0.02955 0.0346 0.0
C184 C 0.4735 0.99039 0.02472 0.0
C185 C 0.42854 0.97873 0.01996 0.0
H186 H 0.22638 0.47644 0.30114 0.0
N187 N 0.2675 0.42906 0.27573 0.0
H188 H 0.26445 0.50925 0.32557 0.0
H189 H 0.35732 0.42938 0.28241 0.0
H190 H 0.39658 0.46538 0.30607 0.0
H191 H 0.29906 0.50449 0.26082 0.0
H192 H 0.25774 0.55849 0.24305 0.0
H193 H 0.17526 0.42369 0.2661 0.0
H194 H 0.13469 0.4759 0.24752 0.0
H195 H 0.19705 0.40357 0.29664 0.0
H196 H 0.30063 0.35149 0.26302 0.0
H197 H 0.17798 0.32548 0.30513 0.0
H198 H 0.2806 0.27278 0.27095 0.0
H199 H 0.16582 0.08256 0.33728 0.0
H200 H 0.20437 0.02306 0.35428 0.0
H201 H 0.30462 1.00392 0.31507 0.0
H202 H 0.26684 0.06273 0.29838 0.0
H203 H 0.23071 0.10383 0.2757 0.0
H204 H 0.2107 0.05868 0.25121 0.0
H205 H 0.08783 0.01073 0.27625 0.0
H206 H 0.10928 0.05503 0.30111 0.0
H207 H 0.12657 0.17569 0.30364 0.0
H208 H 0.14361 0.25507 0.29585 0.0
H209 H 0.28896 0.22211 0.2946 0.0
N210 N 0.18464 0.10551 0.30567 0.0
H211 H 0.27166 0.14304 0.30191 0.0
C212 C 0.28914 0.45013 0.29005 0.0
C213 C 0.26341 0.47311 0.30234 0.0
C214 C 0.28546 0.49241 0.31621 0.0
C215 C 0.33386 0.49026 0.31789 0.0
C216 C 0.35931 0.46705 0.3055 0.0
C217 C 0.33708 0.44695 0.29182 0.0
C218 C 0.24075 0.46004 0.2652 0.0
C219 C 0.263 0.49822 0.25814 0.0
C220 C 0.23932 0.52888 0.24773 0.0
C221 C 0.19265 0.52176 0.24364 0.0
C222 C 0.17032 0.4832 0.25055 0.0
C223 C 0.19389 0.45286 0.26125 0.0
C224 C 0.25047 0.38342 0.27915 0.0
C225 C 0.21535 0.37531 0.29091 0.0
C226 C 0.20427 0.33046 0.2957 0.0
C227 C 0.22806 0.29272 0.28887 0.0
C228 C 0.26219 0.30099 0.27673 0.0
C229 C 0.27327 0.34586 0.27199 0.0
C230 C 0.21302 0.07727 0.31651 0.0
C231 C 0.19684 0.06633 0.33258 0.0
C232 C 0.21874 0.03236 0.34225 0.0
C233 C 0.25696 0.00848 0.33584 0.0
C234 C 0.27476 0.02135 0.3202 0.0
C235 C 0.2532 0.05535 0.31065 0.0
C236 C 0.17144 0.08269 0.29035 0.0
C237 C 0.19928 0.08395 0.27595 0.0
C238 C 0.1876 0.05823 0.26184 0.0
C239 C 0.14772 0.03087 0.26174 0.0
C240 C 0.11921 0.03079 0.27598 0.0
C241 C 0.13112 0.05634 0.29014 0.0
C242 C 0.19748 0.15313 0.30349 0.0
C243 C 0.16215 0.18587 0.30195 0.0
C244 C 0.17199 0.23122 0.29747 0.0
C245 C 0.21766 0.24498 0.29443 0.0
C246 C 0.2533 0.21252 0.29651 0.0
C247 C 0.24339 0.1671 0.30094 0.0
H248 H 0.82267 0.04142 0.31853 0.0
N249 N 0.80022 0.09565 0.29291 0.0
H250 H 0.77065 1.00661 0.33911 0.0
H251 H 0.70674 0.10763 0.29471 0.0
H252 H 0.65488 0.07414 0.31533 0.0
H253 H 0.7379 0.04075 0.27596 0.0
H254 H 0.75489 0.99098 0.25254 0.0
H255 H 0.87602 0.09522 0.27408 0.0
H256 H 0.89215 0.0482 0.24958 0.0
H257 H 0.86418 0.14418 0.30861 0.0
H258 H 0.74486 0.15796 0.2769 0.0
H259 H 0.86944 0.22746 0.31101 0.0
H260 H 0.7469 0.24133 0.28033 0.0
H261 H 0.84692 0.4988 0.32838 0.0
H262 H 0.7945 0.55204 0.34266 0.0
H263 H 0.67851 0.48654 0.31864 0.0
H264 H 0.73107 0.43363 0.30443 0.0
H265 H 0.76861 0.47528 0.28087 0.0
H266 H 0.79166 0.52092 0.25689 0.0
H267 H 0.93476 0.50384 0.27081 0.0
H268 H 0.91109 0.45841 0.29526 0.0
H269 H 0.84545 0.37285 0.32698 0.0
H270 H 0.83727 0.28996 0.32392 0.0
H271 H 0.78142 0.31013 0.27419 0.0
N272 N 0.82546 0.43805 0.30483 0.0
H273 H 0.78612 0.39233 0.27792 0.0
C274 C 0.76874 0.07693 0.30509 0.0
C275 C 0.78608 0.04877 0.31787 0.0
C276 C 0.75638 0.02931 0.32967 0.0
C277 C 0.70861 0.03766 0.32886 0.0
C278 C 0.69143 0.06675 0.31622 0.0
C279 C 0.72116 0.08623 0.30447 0.0
C280 C 0.80606 0.07164 0.27716 0.0
C281 C 0.7717 0.04297 0.27036 0.0
C282 C 0.7814 0.01446 0.25669 0.0
C283 C 0.82533 0.0145 0.24917 0.0
C284 C 0.85843 0.04567 0.25529 0.0
C285 C 0.84906 0.07331 0.26919 0.0
C286 C 0.80391 0.14498 0.29281 0.0
C287 C 0.83893 0.16544 0.30224 0.0
C288 C 0.84134 0.21315 0.30379 0.0
C289 C 0.808 0.24171 0.29619 0.0
C290 C 0.77343 0.2209 0.28633 0.0
C291 C 0.77177 0.17305 0.28449 0.0
C292 C 0.79308 0.46242 0.31531 0.0
C293 C 0.81008 0.49524 0.32657 0.0
C294 C 0.78011 0.52558 0.33471 0.0
C295 C 0.73245 0.52384 0.33161 0.0
C296 C 0.71517 0.48913 0.32108 0.0
C297 C 0.74514 0.45862 0.31304 0.0
C298 C 0.83827 0.46333 0.28997 0.0
C299 C 0.80496 0.48117 0.27886 0.0
C300 C 0.81824 0.50704 0.26501 0.0
C301 C 0.86506 0.51587 0.2619 0.0
C302 C 0.89839 0.49789 0.27294 0.0
C303 C 0.88502 0.47176 0.28682 0.0
C304 C 0.81735 0.3893 0.3027 0.0
C305 C 0.83097 0.35928 0.31551 0.0
C306 C 0.82678 0.31172 0.3136 0.0
C307 C 0.80956 0.29272 0.29862 0.0
C308 C 0.79459 0.32301 0.28596 0.0
C309 C 0.79782 0.37062 0.28804 0.0
H310 H 0.73602 0.995 0.78887 0.0
N311 N 0.78283 0.93353 0.76945 0.0
H312 H 0.77027 0.05302 0.80705 0.0
H313 H 0.87056 0.93836 0.7791 0.0
H314 H 0.9052 0.99418 0.79812 0.0
H315 H 0.815 0.99191 0.74685 0.0
H316 H 0.7715 0.04312 0.72871 0.0
H317 H 0.68849 0.93088 0.76415 0.0
H318 H 0.64476 0.97897 0.745 0.0
H319 H 0.71654 0.90581 0.79162 0.0
H320 H 0.82289 0.85711 0.75861 0.0
H321 H 0.69737 0.82666 0.79911 0.0
H322 H 0.80677 0.77811 0.76682 0.0
H323 H 0.68124 0.5482 0.8254 0.0
H324 H 0.73148 0.49609 0.84098 0.0
H325 H 0.8505 0.56041 0.81842 0.0
H326 H 0.79974 0.60989 0.80206 0.0
H327 H 0.75508 0.55514 0.77955 0.0
H328 H 0.72527 0.49988 0.75953 0.0
H329 H 0.58591 0.53688 0.77324 0.0
H330 H 0.61651 0.59144 0.79387 0.0
H331 H 0.69756 0.68179 0.8206 0.0
H332 H 0.71722 0.76107 0.81361 0.0
H333 H 0.75836 0.71713 0.76415 0.0
N334 N 0.70493 0.60713 0.80148 0.0
H335 H 0.74208 0.63846 0.77163 0.0
C336 C 0.80092 0.96258 0.78252 0.0
C337 C 0.7729 0.99441 0.79099 0.0
C338 C 0.7927 0.0276 0.80144 0.0
C339 C 0.84085 0.02909 0.80395 0.0
C340 C 0.86827 0.9953 0.79616 0.0
C341 C 0.84851 0.96274 0.78549 0.0
C342 C 0.75553 0.9573 0.75691 0.0
C343 C 0.77782 0.98856 0.74633 0.0
C344 C 0.75264 0.01775 0.73582 0.0
C345 C 0.7041 0.01577 0.73523 0.0
C346 C 0.68187 0.98268 0.74529 0.0
C347 C 0.70713 0.95433 0.75618 0.0
C348 C 0.77053 0.88726 0.77424 0.0
C349 C 0.73578 0.87795 0.78599 0.0
C350 C 0.72535 0.83245 0.79043 0.0
C351 C 0.75021 0.79519 0.78356 0.0
C352 C 0.78574 0.80518 0.7721 0.0
C353 C 0.79539 0.85051 0.76743 0.0
C354 C 0.73639 0.58325 0.81264 0.0
C355 C 0.71825 0.55147 0.82406 0.0
C356 C 0.7472 0.52169 0.83301 0.0
C357 C 0.79537 0.52336 0.83093 0.0
C358 C 0.81363 0.55702 0.82009 0.0
C359 C 0.78456 0.58615 0.8109 0.0
C360 C 0.68794 0.57773 0.78823 0.0
C361 C 0.71811 0.55169 0.77822 0.0
C362 C 0.7009 0.52013 0.76667 0.0
C363 C 0.65307 0.51387 0.7647 0.0
C364 C 0.62291 0.5404 0.77455 0.0
C365 C 0.64026 0.57197 0.7862 0.0
C366 C 0.71766 0.65366 0.79675 0.0
C367 C 0.71115 0.68936 0.80829 0.0
C368 C 0.72202 0.73492 0.80417 0.0
C369 C 0.73926 0.74629 0.7882 0.0
C370 C 0.74601 0.71026 0.77667 0.0
C371 C 0.73601 0.66466 0.78092 0.0
H372 H 0.3297 0.52098 0.0173 0.0
N373 N 0.34347 0.48186 0.04812 0.0
H374 H 0.28063 0.49195 0.99497 0.0
H375 H 0.29667 0.4033 0.04768 0.0
H376 H 0.24856 0.37273 0.02505 0.0
H377 H 0.28466 0.55386 0.04083 0.0
H378 H 0.23936 0.59829 0.06083 0.0
H379 H 0.34549 0.47658 0.08138 0.0
H380 H 0.30115 0.52242 0.10156 0.0
H381 H 0.37605 0.56667 0.03894 0.0
H382 H 0.41677 0.42673 0.04854 0.0
H383 H 0.45591 0.58644 0.03251 0.0
H384 H 0.49669 0.44566 0.04159 0.0
H385 H 0.70283 0.59935 0.99064 0.0
H386 H 0.75413 0.56107 0.97081 0.0
H387 H 0.7447 0.43598 0.9998 0.0
H388 H 0.69145 0.47417 0.01904 0.0
H389 H 0.72821 0.51925 0.04036 0.0
H390 H 0.78566 0.55266 0.05877 0.0
H391 H 0.73479 0.68846 0.04648 0.0
H392 H 0.67944 0.6543 0.02704 0.0
H393 H 0.59318 0.59617 0.00492 0.0
H394 H 0.51367 0.57604 0.01188 0.0
H395 H 0.56379 0.48547 0.05084 0.0
N396 N 0.67028 0.566 0.01913 0.0
H397 H 0.64323 0.5049 0.04334 0.0
C398 C 0.31699 0.46417 0.03421 0.0
C399 C 0.31239 0.4885 0.01909 0.0
C400 C 0.28433 0.47162 0.00625 0.0
C401 C 0.26053 0.42979 0.00812 0.0
C402 C 0.26572 0.40531 0.02321 0.0
C403 C 0.29354 0.42246 0.0361 0.0
C404 C 0.31827 0.5111 0.05958 0.0
C405 C 0.28838 0.54623 0.054 0.0
C406 C 0.26227 0.57167 0.06546 0.0
C407 C 0.26635 0.56344 0.08272 0.0
C408 C 0.2972 0.52936 0.08831 0.0
C409 C 0.3226 0.50329 0.07683 0.0
C410 C 0.3904 0.49511 0.04436 0.0
C411 C 0.40218 0.54014 0.03967 0.0
C412 C 0.448 0.55129 0.03584 0.0
C413 C 0.48313 0.51768 0.03649 0.0
C414 C 0.471 0.47269 0.0412 0.0
C415 C 0.42525 0.46167 0.04507 0.0
C416 C 0.69373 0.53992 0.00637 0.0
C417 C 0.711 0.56336 0.99244 0.0
C418 C 0.74077 0.5415 0.98125 0.0
C419 C 0.75454 0.49563 0.98388 0.0
C420 C 0.73489 0.47126 0.99733 0.0
C421 C 0.70457 0.49314 0.00843 0.0
C422 C 0.69963 0.58437 0.03212 0.0
C423 C 0.72923 0.55617 0.04161 0.0
C424 C 0.76211 0.57553 0.05232 0.0
C425 C 0.76558 0.62356 0.05413 0.0
C426 C 0.7343 0.65147 0.04516 0.0
C427 C 0.70202 0.63205 0.03422 0.0
C428 C 0.62409 0.5523 0.02359 0.0
C429 C 0.58686 0.57186 0.01492 0.0
C430 C 0.5414 0.56057 0.01904 0.0
C431 C 0.53193 0.52933 0.03205 0.0
C432 C 0.56954 0.50931 0.04065 0.0
C433 C 0.61514 0.52056 0.03644 0.0
H434 H 0.20302 0.5563 0.56574 0.0
N435 N 0.18201 0.53151 0.53466 0.0
H436 H 0.2591 0.52034 0.58465 0.0
H437 H 0.22657 0.44966 0.52945 0.0
H438 H 0.28176 0.41279 0.54834 0.0
H439 H 0.1915 0.48717 0.50469 0.0
H440 H 0.23289 0.51549 0.48007 0.0
H441 H 0.22476 0.61133 0.53128 0.0
H442 H 0.26713 0.6396 0.50697 0.0
H443 H 0.11218 0.59011 0.53607 0.0
H444 H 0.14353 0.44718 0.52812 0.0
H445 H 0.03088 0.5755 0.5303 0.0
H446 H 0.06192 0.43155 0.52302 0.0
H447 H 0.80309 0.53024 0.53159 0.0
H448 H 0.7504 0.51341 0.5544 0.0
H449 H 0.76891 0.36816 0.54587 0.0
H450 H 0.82262 0.38528 0.52295 0.0
H451 H 0.79756 0.43405 0.48628 0.0
H452 H 0.74859 0.47686 0.46668 0.0
H453 H 0.79511 0.60403 0.48884 0.0
H454 H 0.84509 0.56114 0.50769 0.0
H455 H 0.88262 0.53005 0.53403 0.0
H456 H 0.9632 0.5425 0.54057 0.0
H457 H 1.00198 0.44253 0.50317 0.0
N458 N 0.84715 0.46749 0.51145 0.0
H459 H 0.92032 0.42857 0.49725 0.0
C460 C 0.21021 0.50566 0.54627 0.0
C461 C 0.21956 0.52452 0.56203 0.0
C462 C 0.25169 0.50389 0.57281 0.0
C463 C 0.27537 0.46375 0.56801 0.0
C464 C 0.26486 0.44409 0.55236 0.0
C465 C 0.23272 0.46482 0.54159 0.0
C466 C 0.20509 0.54738 0.5198 0.0
C467 C 0.20766 0.52058 0.50521 0.0
C468 C 0.23146 0.53678 0.49116 0.0
C469 C 0.25314 0.57999 0.49147 0.0
C470 C 0.25008 0.60665 0.50611 0.0
C471 C 0.22626 0.59047 0.52008 0.0
C472 C 0.13392 0.51988 0.53275 0.0
C473 C 0.10124 0.55534 0.53341 0.0
C474 C 0.05467 0.54679 0.53015 0.0
C475 C 0.0394 0.50222 0.52623 0.0
C476 C 0.07228 0.46643 0.52577 0.0
C477 C 0.11909 0.47519 0.5289 0.0
C478 C 0.81765 0.45882 0.52565 0.0
C479 C 0.79663 0.49472 0.53468 0.0
C480 C 0.7662 0.48511 0.54773 0.0
C481 C 0.75551 0.43951 0.55189 0.0
C482 C 0.77624 0.40365 0.54282 0.0
C483 C 0.80717 0.41331 0.52987 0.0
C484 C 0.8251 0.49416 0.49843 0.0
C485 C 0.79797 0.47124 0.48655 0.0
C486 C 0.76953 0.49577 0.47552 0.0
C487 C 0.76736 0.544 0.47623 0.0
C488 C 0.79615 0.56699 0.48771 0.0
C489 C 0.82484 0.54241 0.49862 0.0
C490 C 0.89495 0.47783 0.51515 0.0
C491 C 0.90804 0.51047 0.52723 0.0
C492 C 0.95465 0.51792 0.5309 0.0
C493 C 0.98955 0.49353 0.52245 0.0
C494 C 0.9763 0.4614 0.5102 0.0
C495 C 0.9296 0.45367 0.50665 0.0
Fe496 Fe 0.01479 0.77185 0.17939 0.0
O497 O 0.04756 0.8024 0.1606 0.0
Fe498 Fe 0.90798 0.74612 0.16289 0.0
Fe499 Fe 0.11469 0.80389 0.15935 0.0
O500 O 0.9756 0.7453 0.16136 0.0
O501 O 0.97534 0.7456 0.15966 0.0
O502 O 0.04671 0.80364 0.15897 0.0
Fe503 Fe 1.00805 0.77663 0.14064 0.0
C504 C 0.08731 0.83875 0.19376 0.0
O505 O 0.05737 0.71571 0.17856 0.0
O506 O 0.12469 0.75187 0.17687 0.0
O507 O 0.96149 0.74223 0.12433 0.0
O508 O 0.912 0.70356 0.14229 0.0
O509 O 0.92075 0.69817 0.18144 0.0
O510 O 0.9759 0.73543 0.19702 0.0
O511 O 0.12086 0.75552 0.14075 0.0
O512 O 0.05234 0.72096 0.13824 0.0
C513 C 0.94539 0.70326 0.19491 0.0
O514 O 0.96362 0.83278 0.14128 0.0
O515 O 0.89662 0.79748 0.14576 0.0
O516 O 0.05884 0.80498 0.19617 0.0
O517 O 0.1072 0.84783 0.17957 0.0
C518 C 0.10068 0.7169 0.18088 0.0
C519 C 0.09592 0.7221 0.1359 0.0
C520 C 0.08169 0.84459 0.12618 0.0
O521 O 0.10337 0.85043 0.14029 0.0
O522 O 0.04935 0.8141 0.12343 0.0
C523 C 0.92968 0.71155 0.1276 0.0
O524 O 0.90472 0.79462 0.18222 0.0
O525 O 0.97318 0.82808 0.18114 0.0
C526 C 0.91968 0.83131 0.14021 0.0
C527 C 0.93172 0.82754 0.18603 0.0
Fe528 Fe 0.51313 0.7699 0.44559 0.0
O529 O 0.51517 0.76691 0.42138 0.0
Fe530 Fe 0.50272 0.82837 0.4067 0.0
Fe531 Fe 0.50158 0.71365 0.40636 0.0
O532 O 0.49802 0.77429 0.42203 0.0
O533 O 0.5076 0.77519 0.39103 0.0
O534 O 0.48961 0.7681 0.39165 0.0
Fe535 Fe 0.49133 0.772 0.3675 0.0
C536 C 0.55217 0.67284 0.43575 0.0
O537 O 0.4546 0.72992 0.44627 0.0
O538 O 0.43768 0.71174 0.41899 0.0
O539 O 0.43516 0.81438 0.37086 0.0
O540 O 0.43327 0.83215 0.39872 0.0
O541 O 0.48702 0.87603 0.425 0.0
O542 O 0.47329 0.82888 0.44707 0.0
O543 O 0.47667 0.66602 0.38932 0.0
O544 O 0.45039 0.71433 0.36905 0.0
C545 C 0.46886 0.86747 0.43936 0.0
O546 O 0.5313 0.83072 0.36597 0.0
O547 O 0.51765 0.87667 0.38853 0.0
O548 O 0.55314 0.71114 0.44372 0.0
O549 O 0.52579 0.66473 0.42312 0.0
C550 C 0.42782 0.71386 0.43479 0.0
C551 C 0.45138 0.67522 0.37649 0.0
C552 C 0.57379 0.70931 0.37776 0.0
O553 O 0.56519 0.70995 0.39368 0.0
O554 O 0.54821 0.72892 0.36653 0.0
C555 C 0.41583 0.83276 0.38377 0.0
O556 O 0.57213 0.83104 0.41477 0.0
O557 O 0.57052 0.81038 0.44249 0.0
C558 C 0.53323 0.86947 0.37368 0.0
C559 C 0.59012 0.8284 0.4296 0.0
Fe560 Fe 0.51958 0.27598 0.67636 0.0
O561 O 0.55243 0.30372 0.65688 0.0
Fe562 Fe 0.41152 0.25124 0.66004 0.0
Fe563 Fe 0.61968 0.30227 0.65451 0.0
O564 O 0.47928 0.24843 0.65871 0.0
O565 O 0.47885 0.2486 0.65695 0.0
O566 O 0.55209 0.30379 0.65516 0.0
Fe567 Fe 0.51205 0.27633 0.63741 0.0
C568 C 0.59691 0.34219 0.68883 0.0
O569 O 0.56093 0.21878 0.67608 0.0
O570 O 0.62968 0.25114 0.67227 0.0
O571 O 0.46446 0.24357 0.62167 0.0
O572 O 0.41328 0.2075 0.63952 0.0
O573 O 0.42344 0.20431 0.6789 0.0
O574 O 0.47957 0.24088 0.69444 0.0
O575 O 0.62256 0.25315 0.63626 0.0
O576 O 0.55416 0.21857 0.63533 0.0
C577 C 0.44802 0.20933 0.6924 0.0
O578 O 0.47003 0.33404 0.63732 0.0
O579 O 0.40149 0.30245 0.64277 0.0
O580 O 0.56585 0.31122 0.69241 0.0
O581 O 0.61562 0.3474 0.6742 0.0
C582 C 0.60463 0.21775 0.6771 0.0
C583 C 0.59717 0.21972 0.63187 0.0
C584 C 0.5867 0.33935 0.62108 0.0
O585 O 0.60848 0.3477 0.635 0.0
O586 O 0.55316 0.30979 0.61945 0.0
C587 C 0.43066 0.21528 0.62476 0.0
O588 O 0.40977 0.30063 0.67892 0.0
O589 O 0.47883 0.33313 0.67766 0.0
C590 C 0.42604 0.33463 0.63681 0.0
C591 C 0.437 0.33372 0.6822 0.0
Fe592 Fe 1.00084 0.266 0.92918 0.0
O593 O 0.97356 0.23046 0.91026 0.0
Fe594 Fe 0.02757 0.37064 0.9111 0.0
Fe595 Fe 0.97608 0.16309 0.90909 0.0
O596 O 0.02893 0.3034 0.91087 0.0
O597 O 0.02969 0.30318 0.90908 0.0
O598 O 0.97388 0.23047 0.90852 0.0
Fe599 Fe 1.00136 0.26813 0.89009 0.0
C600 C 0.06123 0.1824 0.93119 0.0
O601 O 0.96593 0.22182 0.94608 0.0
O602 O 0.93117 0.16895 0.92876 0.0
O603 O 0.94364 0.31045 0.88996 0.0
O604 O 0.97714 0.37892 0.89323 0.0
O605 O 0.97741 0.37513 0.92953 0.0
O606 O 0.94314 0.30701 0.92981 0.0
O607 O 0.92951 0.17162 0.88985 0.0
O608 O 0.96591 0.22496 0.87287 0.0
C609 C 0.94283 0.3498 0.93287 0.0
O610 O 0.03535 0.31386 0.8735 0.0
O611 O 0.07194 0.36571 0.89106 0.0
O612 O 0.05865 0.2256 0.92934 0.0
O613 O 0.02825 0.15592 0.92692 0.0
C614 C 0.93599 0.18936 0.94306 0.0
C615 C 0.93549 0.19262 0.87565 0.0
C616 C 0.05784 0.18286 0.88571 0.0
O617 O 0.02448 0.15792 0.89051 0.0
O618 O 0.05913 0.22589 0.88866 0.0
C619 C 0.94369 0.35406 0.88844 0.0
O620 O 0.07398 0.36083 0.9304 0.0
O621 O 0.03549 0.30796 0.94671 0.0
C622 C 0.06422 0.34741 0.87647 0.0
C623 C 0.06779 0.33845 0.9443 0.0
H624 H 0.31031 0.0079 0.45805 0.0
H625 H 0.31037 0.92429 0.50276 0.0
H626 H 0.37552 0.88043 0.49222 0.0
H627 H 0.43085 0.86409 0.47028 0.0
H628 H 0.43225 0.9461 0.42522 0.0
H629 H 0.3693 0.99337 0.43626 0.0
C630 C 0.32478 0.98029 0.46553 0.0
C631 C 0.30475 0.96905 0.48109 0.0
C632 C 0.36288 0.95526 0.45945 0.0
C633 C 0.32402 0.93301 0.49056 0.0
C634 C 0.36172 0.90817 0.48463 0.0
C635 C 0.41787 0.89254 0.46285 0.0
C636 C 0.43629 0.90119 0.44686 0.0
C637 C 0.38118 0.91878 0.46908 0.0
C638 C 0.41897 0.93858 0.43758 0.0
C639 C 0.38266 0.96542 0.44383 0.0
H640 H 0.4201 0.09056 0.75824 0.0
H641 H 0.3303 0.01615 0.72475 0.0
H642 H 0.35029 0.06812 0.70201 0.0
H643 H 0.39156 0.13498 0.6917 0.0
H644 H 0.48306 0.20953 0.72455 0.0
H645 H 0.46467 0.1565 0.74738 0.0
C646 C 0.40537 0.08531 0.74592 0.0
C647 C 0.37335 0.04955 0.74331 0.0
C648 C 0.41724 0.11532 0.73277 0.0
C649 C 0.35429 0.04375 0.72726 0.0
C650 C 0.36591 0.07334 0.71419 0.0
C651 C 0.40763 0.13996 0.70383 0.0
C652 C 0.43838 0.17675 0.70636 0.0
C653 C 0.39697 0.10944 0.71685 0.0
C654 C 0.45907 0.18183 0.72219 0.0
C655 C 0.44855 0.15147 0.73527 0.0
H656 H 0.24699 0.13573 0.96941 0.0
H657 H 0.18309 1.00217 0.97185 0.0
H658 H 0.11819 0.03024 0.9553 0.0
H659 H 0.07716 0.09376 0.94133 0.0
H660 H 0.13992 0.22807 0.93988 0.0
H661 H 0.2069 0.19872 0.95492 0.0
C662 C 0.21885 0.11274 0.96638 0.0
C663 C 0.2203 0.0668 0.97191 0.0
C664 C 0.18101 0.12931 0.95707 0.0
C665 C 0.1836 0.03747 0.96758 0.0
C666 C 0.1461 0.05361 0.95821 0.0
C667 C 0.10559 0.11658 0.94419 0.0
C668 C 0.1031 0.16315 0.93948 0.0
C669 C 0.14415 0.0996 0.95303 0.0
C670 C 0.1405 0.19209 0.94336 0.0
C671 C 0.17899 0.17536 0.95199 0.0
H672 H 0.11431 0.94359 0.26209 0.0
H673 H 0.1577 0.05114 0.22843 0.0
H674 H 0.14461 1.0007 0.20452 0.0
H675 H 0.12093 0.926 0.19316 0.0
H676 H 0.07428 0.81988 0.22687 0.0
H677 H 0.0879 0.87018 0.25072 0.0
C678 C 0.12022 0.95635 0.24953 0.0
C679 C 0.13712 1.00113 0.24711 0.0
C680 C 0.11217 0.92736 0.23582 0.0
C681 C 0.14536 0.01663 0.23071 0.0
C682 C 0.13769 0.98787 0.217 0.0
C683 C 0.11405 0.91374 0.20573 0.0
C684 C 0.09698 0.86906 0.2082 0.0
C685 C 0.12139 0.94306 0.21942 0.0
C686 C 0.08753 0.85405 0.22458 0.0
C687 C 0.09528 0.88281 0.23825 0.0
H688 H 0.32775 0.16676 0.55742 0.0
H689 H 0.24931 0.08175 0.59112 0.0
H690 H 0.29986 0.1035 0.61432 0.0
H691 H 0.36365 0.14967 0.62523 0.0
H692 H 0.44247 0.23472 0.59147 0.0
H693 H 0.39494 0.20931 0.56808 0.0
C694 C 0.32176 0.15315 0.56987 0.0
C695 C 0.28465 0.12312 0.57263 0.0
C696 C 0.35114 0.16555 0.5831 0.0
C697 C 0.2777 0.10494 0.58872 0.0
C698 C 0.30653 0.1174 0.60197 0.0
C699 C 0.37087 0.16238 0.61275 0.0
C700 C 0.40651 0.19442 0.61023 0.0
C701 C 0.34308 0.14803 0.59934 0.0
C702 C 0.4154 0.21004 0.59387 0.0
C703 C 0.38799 0.19577 0.58046 0.0
H704 H 0.23065 0.09919 0.84774 0.0
H705 H 0.12681 1.00056 0.83332 0.0
H706 H 0.06912 0.04276 0.84913 0.0
H707 H 0.04772 0.10658 0.86709 0.0
H708 H 0.1487 0.20821 0.88097 0.0
H709 H 0.20772 0.16647 0.86493 0.0
C710 C 0.19534 0.08711 0.8479 0.0
C711 C 0.18353 0.0461 0.83946 0.0
C712 C 0.16176 0.11215 0.85686 0.0
C713 C 0.13747 0.03109 0.84 0.0
C714 C 0.10422 0.05549 0.84893 0.0
C715 C 0.0827 0.1197 0.8667 0.0
C716 C 0.09392 0.1602 0.87541 0.0
C717 C 0.11603 0.09578 0.85747 0.0
C718 C 0.13916 0.17711 0.87441 0.0
C719 C 0.17289 0.15312 0.86529 0.0
H720 H 0.20733 0.97016 0.08276 0.0
H721 H 0.20006 0.85372 0.04942 0.0
H722 H 0.14327 0.81768 0.06759 0.0
H723 H 0.10055 0.8161 0.09439 0.0
H724 H 0.10709 0.93378 0.12698 0.0
H725 H 0.15722 0.97327 0.10721 0.0
C726 C 0.19273 0.93742 0.07915 0.0
C727 C 0.20907 0.91461 0.06478 0.0
C728 C 0.15926 0.91714 0.08948 0.0
C729 C 0.18963 0.87174 0.06064 0.0
C730 C 0.15657 0.85119 0.07094 0.0
C731 C 0.11169 0.85098 0.09685 0.0
C732 C 0.10012 0.87201 0.11212 0.0
C733 C 0.14172 0.87315 0.08558 0.0
C734 C 0.11553 0.91691 0.1153 0.0
C735 C 0.14456 0.93936 0.10407 0.0
H736 H 0.2875 1.00134 0.36829 0.0
H737 H 0.26957 0.92403 0.32275 0.0
H738 H 0.30985 0.85864 0.33508 0.0
H739 H 0.35857 0.82742 0.35712 0.0
H740 H 0.38205 0.90509 0.40225 0.0
H741 H 0.32988 0.96537 0.39213 0.0
C742 C 0.29185 0.96984 0.36124 0.0
C743 C 0.27642 0.96772 0.34453 0.0
C744 C 0.31599 0.93241 0.36835 0.0
C745 C 0.28202 0.92672 0.33551 0.0
C746 C 0.30486 0.88927 0.34257 0.0
C747 C 0.35163 0.85709 0.36493 0.0
C748 C 0.37485 0.862 0.3803 0.0
C749 C 0.32328 0.89229 0.35874 0.0
C750 C 0.36475 0.90035 0.39036 0.0
C751 C 0.33532 0.93516 0.38447 0.0
H752 H 0.66276 0.07647 0.57676 0.0
H753 H 0.79112 0.14654 0.58614 0.0
H754 H 0.75513 0.19086 0.60845 0.0
H755 H 0.68751 0.21258 0.62418 0.0
H756 H 0.55627 0.1483 0.61431 0.0
H757 H 0.59326 0.09805 0.59356 0.0
C758 C 0.68271 0.10128 0.5838 0.0
C759 C 0.72949 0.10855 0.57973 0.0
C760 C 0.66139 0.12749 0.59651 0.0
C761 C 0.75501 0.14081 0.5889 0.0
C762 C 0.73449 0.16601 0.60169 0.0
C763 C 0.66663 0.18751 0.61762 0.0
C764 C 0.61891 0.18461 0.62081 0.0
C765 C 0.68769 0.16008 0.60543 0.0
C766 C 0.59302 0.15137 0.61218 0.0
C767 C 0.61415 0.12283 0.60023 0.0
H768 H 0.62802 0.99641 0.32086 0.0
H769 H 0.71772 0.02424 0.36273 0.0
H770 H 0.66783 0.97885 0.38107 0.0
H771 H 0.60176 0.92582 0.38457 0.0
H772 H 0.51558 0.89556 0.342 0.0
H773 H 0.5601 0.94838 0.32467 0.0
C774 C 0.63619 0.99339 0.33407 0.0
C775 C 0.67655 0.01363 0.3404 0.0
C776 C 0.60781 0.96684 0.34443 0.0
C777 C 0.68709 0.00856 0.3575 0.0
C778 C 0.65849 0.98277 0.368 0.0
C779 C 0.59228 0.9318 0.37161 0.0
C780 C 0.55548 0.90722 0.36452 0.0
C781 C 0.61916 0.96103 0.36154 0.0
C782 C 0.54383 0.91431 0.34765 0.0
C783 C 0.56936 0.94428 0.33774 0.0
H784 H 0.83441 0.99311 0.09634 0.0
H785 H 0.71274 0.91006 0.10296 0.0
H786 H 0.75618 0.85663 0.12048 0.0
H787 H 0.82822 0.83221 0.13319 0.0
H788 H 0.95194 0.91216 0.12628 0.0
H789 H 0.90798 0.96845 0.10977 0.0
C790 C 0.81742 0.96349 0.10175 0.0
C791 C 0.77035 0.95549 0.09826 0.0
C792 C 0.84288 0.93244 0.11175 0.0
C793 C 0.74894 0.91673 0.10524 0.0
C794 C 0.77373 0.88627 0.11533 0.0
C795 C 0.84588 0.86203 0.12823 0.0
C796 C 0.89356 0.86777 0.13107 0.0
C797 C 0.8207 0.89358 0.11855 0.0
C798 C 0.91537 0.90675 0.12437 0.0
C799 C 0.89022 0.93891 0.11488 0.0
H800 H 0.80615 0.07028 0.83208 0.0
H801 H 0.92469 0.07158 0.79945 0.0
H802 H 0.96256 0.12708 0.81764 0.0
H803 H 0.96474 0.17072 0.84421 0.0
H804 H 0.84539 0.16959 0.87628 0.0
H805 H 0.80449 0.12051 0.85652 0.0
C806 C 0.83982 0.08328 0.82866 0.0
C807 C 0.86256 0.06576 0.81446 0.0
C808 C 0.86126 0.11589 0.83903 0.0
C809 C 0.90662 0.08307 0.81052 0.0
C810 C 0.92825 0.11536 0.82084 0.0
C811 C 0.92926 0.16093 0.84655 0.0
C812 C 0.90802 0.17389 0.86164 0.0
C813 C 0.90626 0.13146 0.83531 0.0
C814 C 0.86237 0.16013 0.86471 0.0
C815 C 0.8391 0.13172 0.85349 0.0
H816 H 0.76728 0.89107 0.4664 0.0
H817 H 0.68392 0.01354 0.47137 0.0
H818 H 0.62959 0.98389 0.45088 0.0
H819 H 0.59853 0.91801 0.43546 0.0
H820 H 0.67569 0.79168 0.43356 0.0
H821 H 0.73961 0.82771 0.44877 0.0
C822 C 0.73733 0.91142 0.46299 0.0
C823 C 0.72966 0.95432 0.4707 0.0
C824 C 0.70494 0.89327 0.45169 0.0
C825 C 0.69123 0.98062 0.46566 0.0
C826 C 0.65974 0.9635 0.454 0.0
C827 C 0.63026 0.89915 0.4378 0.0
C828 C 0.6332 0.85279 0.43314 0.0
C829 C 0.66537 0.91926 0.44741 0.0
C830 C 0.67346 0.82781 0.43671 0.0
C831 C 0.70958 0.84823 0.44561 0.0
H832 H 0.90885 0.97368 0.24343 0.0
H833 H 0.76918 0.97761 0.22455 0.0
H834 H 0.78859 0.91891 0.20394 0.0
H835 H 0.84588 0.8659 0.19105 0.0
H836 H 0.98654 0.86885 0.20881 0.0
H837 H 0.96623 0.92603 0.22966 0.0
C838 C 0.88263 0.96277 0.23463 0.0
C839 C 0.83746 0.98053 0.23575 0.0
C840 C 0.89427 0.92994 0.22247 0.0
C841 C 0.80407 0.96434 0.22435 0.0
C842 C 0.81521 0.93083 0.21241 0.0
C843 C 0.87193 0.87917 0.1995 0.0
C844 C 0.91764 0.863 0.19834 0.0
C845 C 0.86021 0.91316 0.21138 0.0
C846 C 0.95116 0.88083 0.2093 0.0
C847 C 0.93958 0.91352 0.22131 0.0
H848 H 0.78877 0.09327 0.98896 0.0
H849 H 0.81422 0.21104 0.02031 0.0
H850 H 0.87032 0.23994 1.00003 0.0
H851 H 0.91292 0.2311 0.9731 0.0
H852 H 0.88805 0.10963 0.94336 0.0
H853 H 0.83245 0.08264 0.96353 0.0
C854 C 0.80704 0.12488 0.99161 0.0
C855 C 0.79721 0.14958 0.00628 0.0
C856 C 0.83989 0.14072 0.98014 0.0
C857 C 0.8205 0.19133 0.00907 0.0
C858 C 0.85298 0.20775 0.99752 0.0
C859 C 0.89564 0.19858 0.97114 0.0
C860 C 0.90475 0.17288 0.95656 0.0
C861 C 0.86315 0.18263 0.98297 0.0
C862 C 0.8817 0.13075 0.95427 0.0
C863 C 0.8497 0.11501 0.96584 0.0
H864 H 0.72901 0.05768 0.70567 0.0
H865 H 0.61769 0.05173 0.74154 0.0
H866 H 0.57559 0.10974 0.7258 0.0
H867 H 0.57226 0.16661 0.70298 0.0
H868 H 0.68765 0.17951 0.66936 0.0
H869 H 0.72667 0.11544 0.68339 0.0
C870 C 0.69587 0.06926 0.71029 0.0
C871 C 0.67705 0.04972 0.72494 0.0
C872 C 0.67257 0.10449 0.70162 0.0
C873 C 0.63317 0.06488 0.73021 0.0
C874 C 0.60907 0.0987 0.72129 0.0
C875 C 0.60579 0.15507 0.69865 0.0
C876 C 0.62706 0.17764 0.68514 0.0
C877 C 0.62869 0.11921 0.70712 0.0
C878 C 0.67074 0.16279 0.67979 0.0
C879 C 0.69299 0.12614 0.68779 0.0
H880 H 0.762 0.40689 0.97234 0.0
H881 H 0.83217 0.53756 0.97219 0.0
H882 H 0.89465 0.50473 0.95584 0.0
H883 H 0.93115 0.43881 0.94238 0.0
H884 H 0.86355 0.3069 0.94323 0.0
H885 H 0.79887 0.34027 0.95859 0.0
C886 C 0.79102 0.42816 0.96879 0.0
C887 C 0.79185 0.47488 0.97343 0.0
C888 C 0.82758 0.40882 0.95954 0.0
C889 C 0.82976 0.50185 0.96854 0.0
C890 C 0.86589 0.48299 0.95928 0.0
C891 C 0.90226 0.41725 0.94584 0.0
C892 C 0.90249 0.37032 0.94163 0.0
C893 C 0.86532 0.43652 0.95479 0.0
C894 C 0.86451 0.34313 0.94627 0.0
C895 C 0.82743 0.36218 0.9551 0.0
H896 H 0.92906 0.5843 0.26095 0.0
H897 H 0.83091 0.51195 0.23011 0.0
H898 H 0.84758 0.56308 0.20671 0.0
H899 H 0.88757 0.62976 0.19534 0.0
H900 H 0.98663 0.70217 0.22589 0.0
H901 H 0.97244 0.64911 0.24896 0.0
C902 C 0.91186 0.57932 0.24903 0.0
C903 C 0.87849 0.5446 0.24734 0.0
C904 C 0.92154 0.60896 0.2356 0.0
C905 C 0.85617 0.53888 0.23184 0.0
C906 C 0.86578 0.568 0.21843 0.0
C907 C 0.90617 0.63412 0.20702 0.0
C908 C 0.93773 0.67041 0.20886 0.0
C909 C 0.89789 0.60354 0.22025 0.0
C910 C 0.96178 0.67491 0.22409 0.0
C911 C 0.95375 0.6445 0.23732 0.0
H912 H 0.67902 0.51984 0.46743 0.0
H913 H 0.77967 0.62772 0.46129 0.0
H914 H 0.72219 0.67546 0.44735 0.0
H915 H 0.64222 0.68917 0.4389 0.0
H916 H 0.54154 0.58147 0.44357 0.0
H917 H 0.6006 0.53033 0.45568 0.0
C918 C 0.6888 0.55335 0.46273 0.0
C919 C 0.73366 0.57034 0.46576 0.0
C920 C 0.65556 0.58063 0.45448 0.0
C921 C 0.74526 0.6141 0.45961 0.0
C922 C 0.71246 0.6414 0.45152 0.0
C923 C 0.63342 0.65423 0.4424 0.0
C924 C 0.58774 0.63903 0.44058 0.0
C925 C 0.66734 0.62543 0.44926 0.0
C926 C 0.57661 0.59371 0.44488 0.0
C927 C 0.61029 0.56471 0.45188 0.0
H928 H 0.68615 0.49646 0.73362 0.0
H929 H 0.57961 0.45455 0.76794 0.0
H930 H 0.55278 0.39707 0.74781 0.0
H931 H 0.56104 0.3574 0.72044 0.0
H932 H 0.66957 0.40078 0.68695 0.0
H933 H 0.69481 0.45743 0.70702 0.0
C934 C 0.65739 0.47444 0.73685 0.0
C935 C 0.63526 0.47976 0.75236 0.0
C936 C 0.64264 0.44116 0.72538 0.0
C937 C 0.59718 0.4516 0.75605 0.0
C938 C 0.58203 0.4184 0.74458 0.0
C939 C 0.59014 0.37924 0.71753 0.0
C940 C 0.61282 0.37471 0.70201 0.0
C941 C 0.60469 0.41264 0.7292 0.0
C942 C 0.65086 0.40331 0.69863 0.0
C943 C 0.66553 0.436 0.71013 0.0
H944 H 0.80056 0.58938 0.08349 0.0
H945 H 0.81275 0.70489 0.04983 0.0
H946 H 0.86832 0.74057 0.06869 0.0
H947 H 0.9101 0.74128 0.09581 0.0
H948 H 0.89876 0.62406 0.1286 0.0
H949 H 0.84812 0.58605 0.10863 0.0
C950 C 0.81594 0.62187 0.07998 0.0
C951 C 0.80162 0.64438 0.06524 0.0
C952 C 0.84866 0.64188 0.09071 0.0
C953 C 0.82182 0.68703 0.06127 0.0
C954 C 0.85415 0.70736 0.07198 0.0
C955 C 0.89753 0.70692 0.09833 0.0
C956 C 0.90811 0.68561 0.1137 0.0
C957 C 0.86743 0.68541 0.08687 0.0
C958 C 0.89099 0.64131 0.1169 0.0
C959 C 0.86176 0.61962 0.10553 0.0
H960 H 0.72847 0.56047 0.36322 0.0
H961 H 0.66743 0.57063 0.31404 0.0
H962 H 0.61653 0.63172 0.32368 0.0
H963 H 0.58743 0.68013 0.34599 0.0
H964 H 0.64434 0.66888 0.39582 0.0
H965 H 0.69948 0.61114 0.3859 0.0
C966 C 0.7041 0.57624 0.35464 0.0
C967 C 0.70139 0.56059 0.33797 0.0
C968 C 0.67451 0.61142 0.36032 0.0
C969 C 0.66958 0.5813 0.327 0.0
C970 C 0.64072 0.61655 0.33246 0.0
C971 C 0.61229 0.66577 0.35472 0.0
C972 C 0.61176 0.67928 0.37164 0.0
C973 C 0.64269 0.63165 0.34909 0.0
C974 C 0.64401 0.65946 0.38271 0.0
C975 C 0.67539 0.62618 0.37706 0.0
H976 H 0.68296 0.38022 0.55209 0.0
H977 H 0.75639 0.47691 0.58305 0.0
H978 H 0.70649 0.45854 0.60669 0.0
H979 H 0.64627 0.41104 0.61909 0.0
H980 H 0.57308 0.31312 0.58847 0.0
H981 H 0.61785 0.33677 0.5641 0.0
C982 C 0.68791 0.39723 0.56403 0.0
C983 C 0.72354 0.42954 0.56589 0.0
C984 C 0.65901 0.38652 0.57758 0.0
C985 C 0.72912 0.45199 0.58131 0.0
C986 C 0.70068 0.44144 0.59483 0.0
C987 C 0.63957 0.3952 0.60705 0.0
C988 C 0.60663 0.35995 0.60572 0.0
C989 C 0.66602 0.40828 0.59318 0.0
C990 C 0.59812 0.34036 0.58993 0.0
C991 C 0.62406 0.35356 0.57598 0.0
H992 H 0.78512 0.48234 0.86186 0.0
H993 H 0.87516 0.48513 0.81881 0.0
H994 H 0.9269 0.43091 0.83241 0.0
H995 H 0.94876 0.38473 0.85694 0.0
H996 H 0.85823 0.37839 0.89949 0.0
H997 H 0.80362 0.43054 0.88543 0.0
C998 C 0.8156 0.47067 0.85527 0.0
C999 C 0.82624 0.48891 0.83934 0.0
C1000 C 0.84491 0.43823 0.86301 0.0
C1001 C 0.86645 0.47327 0.83124 0.0
C1002 C 0.89595 0.44163 0.83893 0.0
C1003 C 0.91644 0.39397 0.8629 0.0
C1004 C 0.9068 0.37732 0.87901 0.0
C1005 C 0.88576 0.42419 0.85484 0.0
C1006 C 0.86558 0.39012 0.8869 0.0
C1007 C 0.83475 0.42029 0.87894 0.0
H1008 H 0.17354 0.57978 0.08314 0.0
H1009 H 0.2996 0.60971 0.10964 0.0
H1010 H 0.25734 0.65897 0.12908 0.0
H1011 H 0.18556 0.69649 0.13768 0.0
H1012 H 0.05846 0.66579 0.11193 0.0
H1013 H 0.09986 0.61321 0.09325 0.0
C1014 C 0.19159 0.59707 0.09321 0.0
C1015 C 0.23968 0.59142 0.0949 0.0
C1016 C 0.16689 0.62497 0.10449 0.0
C1017 C 0.26263 0.61343 0.10812 0.0
C1018 C 0.2385 0.64166 0.11921 0.0
C1019 C 0.16678 0.67804 0.12806 0.0
C1020 C 0.11903 0.6854 0.1261 0.0
C1021 C 0.19077 0.64806 0.1174 0.0
C1022 C 0.09516 0.66068 0.11374 0.0
C1023 C 0.11891 0.63088 0.10298 0.0
H1024 H 0.1839 0.42596 0.81683 0.0
H1025 H 0.13802 0.55322 0.83895 0.0
H1026 H 0.09161 0.51082 0.85913 0.0
H1027 H 0.06778 0.43811 0.8716 0.0
H1028 H 0.11042 0.30989 0.84961 0.0
H1029 H 0.15418 0.35195 0.82813 0.0
C1030 C 0.16352 0.44427 0.82604 0.0
C1031 C 0.16458 0.49274 0.82645 0.0
C1032 C 0.13655 0.41953 0.83761 0.0
C1033 C 0.13757 0.51606 0.83829 0.0
C1034 C 0.11122 0.49182 0.84989 0.0
C1035 C 0.08651 0.41936 0.86203 0.0
C1036 C 0.08656 0.37107 0.86227 0.0
C1037 C 0.11101 0.44368 0.84982 0.0
C1038 C 0.11004 0.34709 0.84966 0.0
C1039 C 0.13518 0.37117 0.83747 0.0
H1040 H 0.27398 0.4547 0.6021 0.0
H1041 H 0.35856 0.42633 0.55895 0.0
H1042 H 0.41626 0.38951 0.57682 0.0
H1043 H 0.44017 0.36004 0.60456 0.0
H1044 H 0.35381 0.38576 0.64734 0.0
H1045 H 0.30042 0.43038 0.62996 0.0
C1046 C 0.30534 0.44115 0.5966 0.0
C1047 C 0.31147 0.443 0.57912 0.0
C1048 C 0.33848 0.41993 0.60697 0.0
C1049 C 0.35226 0.42462 0.57228 0.0
C1050 C 0.38558 0.40387 0.58253 0.0
C1051 C 0.41044 0.37676 0.61012 0.0
C1052 C 0.40125 0.37043 0.62724 0.0
C1053 C 0.37882 0.40074 0.59987 0.0
C1054 C 0.36182 0.39086 0.63423 0.0
C1055 C 0.33107 0.41592 0.62426 0.0
H1056 H 0.30917 0.57117 0.33238 0.0
H1057 H 0.41336 0.46508 0.33473 0.0
H1058 H 0.4573 0.51066 0.35482 0.0
H1059 H 0.46963 0.58471 0.36965 0.0
H1060 H 0.36355 0.68863 0.36708 0.0
H1061 H 0.31598 0.63885 0.34979 0.0
C1062 C 0.34073 0.55707 0.33759 0.0
C1063 C 0.35794 0.51481 0.33178 0.0
C1064 C 0.36557 0.58314 0.34923 0.0
C1065 C 0.39962 0.49801 0.33858 0.0
C1066 C 0.4247 0.52391 0.3502 0.0
C1067 C 0.43556 0.5957 0.36567 0.0
C1068 C 0.42016 0.64027 0.3695 0.0
C1069 C 0.40857 0.56712 0.35533 0.0
C1070 C 0.37618 0.6545 0.36415 0.0
C1071 C 0.34904 0.62618 0.3542 0.0
H1072 H 0.17742 0.38523 0.01075 0.0
H1073 H 0.27584 0.43418 0.97438 0.0
H1074 H 0.22522 0.41001 0.95174 0.0
H1075 H 0.15264 0.37683 0.94213 0.0
H1076 H 0.05491 0.32458 0.97803 0.0
H1077 H 0.10626 0.34717 1.00095 0.0
C1078 C 0.18819 0.39005 0.99788 0.0
C1079 C 0.23035 0.41219 0.99438 0.0
C1080 C 0.15907 0.37542 0.98481 0.0
C1081 C 0.24325 0.41837 0.97755 0.0
C1082 C 0.21443 0.40422 0.96455 0.0
C1083 C 0.1424 0.37034 0.95496 0.0
C1084 C 0.09963 0.34949 0.95832 0.0
C1085 C 0.1721 0.3832 0.96802 0.0
C1086 C 0.08753 0.34063 0.97505 0.0
C1087 C 0.11685 0.35369 0.98817 0.0
H1088 H 0.40637 0.48115 0.73851 0.0
H1089 H 0.27499 0.49595 0.71337 0.0
H1090 H 0.2971 0.43643 0.6935 0.0
H1091 H 0.35386 0.37878 0.68332 0.0
H1092 H 0.48762 0.37173 0.70683 0.0
H1093 H 0.46489 0.43046 0.72691 0.0
C1094 C 0.38269 0.47261 0.72849 0.0
C1095 C 0.33872 0.49339 0.72773 0.0
C1096 C 0.39614 0.43942 0.71672 0.0
C1097 C 0.30863 0.48019 0.71471 0.0
C1098 C 0.32138 0.44622 0.70318 0.0
C1099 C 0.37787 0.3903 0.69285 0.0
C1100 C 0.42226 0.37075 0.69369 0.0
C1101 C 0.36492 0.42523 0.70415 0.0
C1102 C 0.45335 0.38635 0.70592 0.0
C1103 C 0.44032 0.41987 0.71744 0.0
H1104 H 0.25775 0.66695 0.47889 0.0
H1105 H 0.31167 0.53013 0.47161 0.0
H1106 H 0.36518 0.55899 0.45057 0.0
H1107 H 0.40447 0.62476 0.43736 0.0
H1108 H 0.35548 0.76197 0.44684 0.0
H1109 H 0.29216 0.73161 0.46376 0.0
C1110 C 0.28105 0.64338 0.47265 0.0
C1111 C 0.28102 0.59652 0.47703 0.0
C1112 C 0.31271 0.66042 0.46093 0.0
C1113 C 0.3107 0.56631 0.46848 0.0
C1114 C 0.34161 0.58285 0.45651 0.0
C1115 C 0.37883 0.64768 0.44267 0.0
C1116 C 0.38377 0.69532 0.4407 0.0
C1117 C 0.3439 0.63002 0.45301 0.0
C1118 C 0.35152 0.7251 0.44801 0.0
C1119 C 0.31573 0.70776 0.45781 0.0
H1120 H 0.22684 0.56965 0.21681 0.0
H1121 H 0.10151 0.5486 0.24493 0.0
H1122 H 0.06131 0.60365 0.22707 0.0
H1123 H 0.06253 0.6612 0.20444 0.0
H1124 H 0.18961 0.68735 0.17816 0.0
H1125 H 0.22841 0.62756 0.19454 0.0
C1126 C 0.19089 0.57734 0.21925 0.0
C1127 C 0.16758 0.55467 0.23235 0.0
C1128 C 0.16821 0.61025 0.20926 0.0
C1129 C 0.12051 0.56464 0.23485 0.0
C1130 C 0.09744 0.59655 0.22471 0.0
C1131 C 0.0986 0.65343 0.20217 0.0
C1132 C 0.12315 0.67857 0.19004 0.0
C1133 C 0.12103 0.61987 0.21197 0.0
C1134 C 0.17002 0.66859 0.18744 0.0
C1135 C 0.1922 0.63441 0.19681 0.0
loop_
_geom_bond_atom_site_label_1
_geom_bond_atom_site_label_2
_geom_bond_distance
_geom_bond_site_symmetry_2
_ccdc_geom_bond_type
H0 C27 0.926 1_565 S
N1 C26 1.433 . S
N1 C32 1.435 1_545 S
N1 C38 1.423 1_545 S
H2 C28 0.930 . S
H3 C31 0.931 . S
H4 C30 0.929 . S
H5 C33 0.930 . S
H6 C34 0.932 1_545 S
H7 C37 0.929 . S
H8 C36 0.931 . S
H9 C39 0.929 . S
H10 C43 0.932 . S
H11 C40 0.931 . S
H12 C42 0.929 . S
H13 C45 0.926 1_565 S
H14 C46 0.930 . S
H15 C48 0.929 . S
H16 C49 0.931 . S
H17 C51 0.930 . S
H18 C52 0.932 1_545 S
H19 C54 0.931 . S
H20 C55 0.929 . S
H21 C57 0.929 . S
H22 C58 0.931 . S
H23 C60 0.929 . S
N24 C44 1.433 . S
N24 C50 1.435 1_545 S
N24 C56 1.423 1_545 S
H25 C61 0.932 . S
C26 N1 1.433 . S
C26 C27 1.363 . S
C26 C31 1.370 . S
C27 H0 0.926 1_545 S
C27 C26 1.363 . S
C27 C28 1.385 . S
C28 H2 0.930 . S
C28 C27 1.385 . S
C28 C29 1.357 . S
C29 C28 1.357 . S
C29 C30 1.406 . S
C30 H4 0.929 . S
C30 C29 1.406 . S
C30 C31 1.391 . S
C31 H3 0.931 . S
C31 C26 1.370 . S
C31 C30 1.391 . S
C32 N1 1.435 1_565 S
C32 C33 1.358 1_565 S
C32 C37 1.371 . S
C33 H5 0.930 . S
C33 C32 1.358 1_545 S
C33 C34 1.405 1_545 S
C34 H6 0.932 1_565 S
C34 C33 1.405 1_565 S
C34 C35 1.383 . S
C35 C34 1.383 . S
C35 C36 1.393 . S
C36 H8 0.931 . S
C36 C35 1.393 . S
C36 C37 1.382 . S
C37 H7 0.929 . S
C37 C32 1.371 . S
C37 C36 1.382 . S
C38 N1 1.423 1_565 S
C38 C39 1.362 . S
C38 C43 1.388 . S
C39 H9 0.929 . S
C39 C38 1.362 . S
C39 C40 1.376 . S
C40 H11 0.931 . S
C40 C39 1.376 . S
C40 C41 1.396 . S
C41 C40 1.396 . S
C41 C42 1.348 . S
C41 C59 1.472 1_655 S
C42 H12 0.929 . S
C42 C41 1.348 . S
C42 C43 1.443 . S
C43 H10 0.932 . S
C43 C38 1.388 . S
C43 C42 1.443 . S
C44 N24 1.433 . S
C44 C45 1.363 . S
C44 C49 1.370 . S
C45 H13 0.926 1_545 S
C45 C44 1.363 . S
C45 C46 1.385 . S
C46 H14 0.930 . S
C46 C45 1.385 . S
C46 C47 1.357 . S
C47 C46 1.357 . S
C47 C48 1.406 . S
C48 H15 0.929 . S
C48 C47 1.406 . S
C48 C49 1.391 . S
C49 H16 0.931 . S
C49 C44 1.370 . S
C49 C48 1.391 . S
C50 N24 1.435 1_565 S
C50 C51 1.358 1_565 S
C50 C55 1.371 . S
C51 H17 0.930 . S
C51 C50 1.358 1_545 S
C51 C52 1.405 1_545 S
C52 H18 0.932 1_565 S
C52 C51 1.405 1_565 S
C52 C53 1.383 . S
C53 C52 1.383 . S
C53 C54 1.393 . S
C54 H19 0.931 . S
C54 C53 1.393 . S
C54 C55 1.382 . S
C55 H20 0.929 . S
C55 C50 1.371 . S
C55 C54 1.382 . S
C56 N24 1.423 1_565 S
C56 C57 1.362 . S
C56 C61 1.388 . S
C57 H21 0.929 . S
C57 C56 1.362 . S
C57 C58 1.376 . S
C58 H22 0.931 . S
C58 C57 1.376 . S
C58 C59 1.396 . S
C59 C41 1.472 1_455 S
C59 C58 1.396 . S
C59 C60 1.348 . S
C60 H23 0.929 . S
C60 C59 1.348 . S
C60 C61 1.443 . S
C61 H25 0.932 . S
C61 C56 1.388 . S
C61 C60 1.443 . S
H62 C89 0.929 . S
N63 C88 1.433 . S
N63 C94 1.435 . S
N63 C100 1.423 . S
H64 C90 0.930 . S
H65 C93 0.931 . S
H66 C92 0.929 . S
H67 C95 0.930 . S
H68 C96 0.932 . S
H69 C99 0.929 . S
H70 C98 0.931 . S
H71 C101 0.929 . S
H72 C105 0.932 . S
H73 C102 0.931 . S
H74 C104 0.929 . S
H75 C107 0.929 1_545 S
H76 C108 0.930 . S
H77 C110 0.929 . S
H78 C111 0.931 . S
H79 C113 0.930 . S
H80 C114 0.932 . S
H81 C116 0.931 . S
H82 C117 0.929 . S
H83 C119 0.929 . S
H84 C120 0.931 . S
H85 C122 0.929 . S
N86 C106 1.433 . S
N86 C112 1.435 . S
N86 C118 1.423 . S
H87 C123 0.932 . S
C88 N63 1.433 . S
C88 C89 1.363 . S
C88 C93 1.370 . S
C89 H62 0.929 . S
C89 C88 1.363 . S
C89 C90 1.385 . S
C90 H64 0.930 . S
C90 C89 1.385 . S
C90 C91 1.357 . S
C91 C90 1.357 . S
C91 C92 1.406 . S
C92 H66 0.929 . S
C92 C91 1.406 . S
C92 C93 1.391 . S
C93 H65 0.931 . S
C93 C88 1.370 . S
C93 C92 1.391 . S
C94 N63 1.435 . S
C94 C95 1.358 . S
C94 C99 1.371 . S
C95 H67 0.930 . S
C95 C94 1.358 . S
C95 C96 1.405 . S
C96 H68 0.932 . S
C96 C95 1.405 . S
C96 C97 1.383 . S
C97 C96 1.383 . S
C97 C98 1.393 . S
C98 H70 0.931 . S
C98 C97 1.393 . S
C98 C99 1.382 . S
C99 H69 0.929 . S
C99 C94 1.371 . S
C99 C98 1.382 . S
C100 N63 1.423 . S
C100 C101 1.362 . S
C100 C105 1.388 . S
C101 H71 0.929 . S
C101 C100 1.362 . S
C101 C102 1.376 . S
C102 H73 0.931 . S
C102 C101 1.376 . S
C102 C103 1.396 . S
C103 C102 1.396 . S
C103 C104 1.348 . S
C103 C121 1.472 . S
C104 H74 0.929 . S
C104 C103 1.348 . S
C104 C105 1.443 . S
C105 H72 0.932 . S
C105 C100 1.388 . S
C105 C104 1.443 . S
C106 N86 1.433 . S
C106 C107 1.363 . S
C106 C111 1.370 . S
C107 H75 0.929 1_565 S
C107 C106 1.363 . S
C107 C108 1.385 1_565 S
C108 H76 0.930 . S
C108 C107 1.385 1_545 S
C108 C109 1.357 1_545 S
C109 C108 1.357 1_565 S
C109 C110 1.406 . S
C110 H77 0.929 . S
C110 C109 1.406 . S
C110 C111 1.391 . S
C111 H78 0.931 . S
C111 C106 1.370 . S
C111 C110 1.391 . S
C112 N86 1.435 . S
C112 C113 1.358 . S
C112 C117 1.371 . S
C113 H79 0.930 . S
C113 C112 1.358 . S
C113 C114 1.405 1_565 S
C114 H80 0.932 . S
C114 C113 1.405 1_545 S
C114 C115 1.383 . S
C115 C114 1.383 . S
C115 C116 1.393 1_545 S
C116 H81 0.931 . S
C116 C115 1.393 1_565 S
C116 C117 1.382 . S
C117 H82 0.929 . S
C117 C112 1.371 . S
C117 C116 1.382 . S
C118 N86 1.423 . S
C118 C119 1.362 . S
C118 C123 1.388 . S
C119 H83 0.929 . S
C119 C118 1.362 . S
C119 C120 1.376 . S
C120 H84 0.931 . S
C120 C119 1.376 . S
C120 C121 1.396 . S
C121 C103 1.472 . S
C121 C120 1.396 . S
C121 C122 1.348 . S
C122 H85 0.929 . S
C122 C121 1.348 . S
C122 C123 1.443 . S
C123 H87 0.932 . S
C123 C118 1.388 . S
C123 C122 1.443 . S
H124 C151 0.929 . S
N125 C150 1.429 1_545 S
N125 C156 1.435 . S
N125 C162 1.423 . S
H126 C152 0.930 . S
H127 C155 0.931 . S
H128 C154 0.929 . S
H129 C157 0.930 1_565 S
H130 C158 0.921 1_556 S
H131 C161 0.929 . S
H132 C160 0.928 1_556 S
H133 C163 0.929 . S
H134 C167 0.932 . S
H135 C164 0.931 . S
H136 C166 0.929 . S
H137 C169 0.929 . S
H138 C170 0.930 . S
H139 C172 0.929 . S
H140 C173 0.931 . S
H141 C175 0.930 1_565 S
H142 C176 0.921 1_556 S
H143 C178 0.928 1_556 S
H144 C179 0.929 . S
H145 C181 0.929 . S
H146 C182 0.931 . S
H147 C184 0.929 . S
N148 C168 1.429 1_545 S
N148 C174 1.435 . S
N148 C180 1.423 . S
H149 C185 0.932 . S
C150 N125 1.429 1_565 S
C150 C151 1.363 1_565 S
C150 C155 1.374 . S
C151 H124 0.929 . S
C151 C150 1.363 1_545 S
C151 C152 1.385 1_545 S
C152 H126 0.930 . S
C152 C151 1.385 1_565 S
C152 C153 1.357 . S
C153 C152 1.357 . S
C153 C154 1.406 . S
C154 H128 0.929 . S
C154 C153 1.406 . S
C154 C155 1.391 . S
C155 H127 0.931 . S
C155 C150 1.374 . S
C155 C154 1.391 . S
C156 N125 1.435 . S
C156 C157 1.358 . S
C156 C161 1.371 . S
C157 H129 0.930 1_545 S
C157 C156 1.358 . S
C157 C158 1.405 . S
C158 H130 0.921 1_554 S
C158 C157 1.405 . S
C158 C159 1.383 1_554 S
C159 C158 1.383 1_556 S
C159 C160 1.393 1_556 S
C160 H132 0.928 1_554 S
C160 C159 1.393 1_554 S
C160 C161 1.382 . S
C161 H131 0.929 . S
C161 C156 1.371 . S
C161 C160 1.382 . S
C162 N125 1.423 . S
C162 C163 1.362 . S
C162 C167 1.388 . S
C163 H133 0.929 . S
C163 C162 1.362 . S
C163 C164 1.376 . S
C164 H135 0.931 . S
C164 C163 1.376 . S
C164 C165 1.396 . S
C165 C164 1.396 . S
C165 C166 1.348 . S
C165 C183 1.472 . S
C166 H136 0.929 . S
C166 C165 1.348 . S
C166 C167 1.443 . S
C167 H134 0.932 . S
C167 C162 1.388 . S
C167 C166 1.443 . S
C168 N148 1.429 1_565 S
C168 C169 1.363 1_565 S
C168 C173 1.374 . S
C169 H137 0.929 . S
C169 C168 1.363 1_545 S
C169 C170 1.385 1_545 S
C170 H138 0.930 . S
C170 C169 1.385 1_565 S
C170 C171 1.357 . S
C171 C170 1.357 . S
C171 C172 1.406 . S
C172 H139 0.929 . S
C172 C171 1.406 . S
C172 C173 1.391 . S
C173 H140 0.931 . S
C173 C168 1.374 . S
C173 C172 1.391 . S
C174 N148 1.435 . S
C174 C175 1.358 . S
C174 C179 1.371 . S
C175 H141 0.930 1_545 S
C175 C174 1.358 . S
C175 C176 1.405 . S
C176 H142 0.921 1_554 S
C176 C175 1.405 . S
C176 C177 1.383 1_554 S
C177 C176 1.383 1_556 S
C177 C178 1.393 1_556 S
C178 H143 0.928 1_554 S
C178 C177 1.393 1_554 S
C178 C179 1.382 . S
C179 H144 0.929 . S
C179 C174 1.371 . S
C179 C178 1.382 . S
C180 N148 1.423 . S
C180 C181 1.362 . S
C180 C185 1.388 . S
C181 H145 0.929 . S
C181 C180 1.362 . S
C181 C182 1.376 . S
C182 H146 0.931 . S
C182 C181 1.376 . S
C182 C183 1.396 . S
C183 C165 1.472 . S
C183 C182 1.396 . S
C183 C184 1.348 . S
C184 H147 0.929 . S
C184 C183 1.348 . S
C184 C185 1.443 . S
C185 H149 0.932 . S
C185 C180 1.388 . S
C185 C184 1.443 . S
H186 C213 0.929 . S
N187 C212 1.433 . S
N187 C218 1.435 . S
N187 C224 1.423 . S
H188 C214 0.930 . S
H189 C217 0.931 . S
H190 C216 0.929 . S
H191 C219 0.930 . S
H192 C220 0.932 . S
H193 C223 0.929 . S
H194 C222 0.931 . S
H195 C225 0.929 . S
H196 C229 0.932 . S
H197 C226 0.931 . S
H198 C228 0.929 . S
H199 C231 0.929 . S
H200 C232 0.930 1_565 S
H201 C234 0.929 . S
H202 C235 0.931 . S
H203 C237 0.930 . S
H204 C238 0.932 1_565 S
H205 C240 0.931 . S
H206 C241 0.929 . S
H207 C243 0.929 . S
H208 C244 0.931 . S
H209 C246 0.929 . S
N210 C230 1.433 . S
N210 C236 1.435 . S
N210 C242 1.423 . S
H211 C247 0.932 . S
C212 N187 1.433 . S
C212 C213 1.363 . S
C212 C217 1.370 . S
C213 H186 0.929 . S
C213 C212 1.363 . S
C213 C214 1.385 . S
C214 H188 0.930 . S
C214 C213 1.385 . S
C214 C215 1.357 . S
C215 C214 1.357 . S
C215 C216 1.406 . S
C216 H190 0.929 . S
C216 C215 1.406 . S
C216 C217 1.391 . S
C217 H189 0.931 . S
C217 C212 1.370 . S
C217 C216 1.391 . S
C218 N187 1.435 . S
C218 C219 1.358 . S
C218 C223 1.371 . S
C219 H191 0.930 . S
C219 C218 1.358 . S
C219 C220 1.405 . S
C220 H192 0.932 . S
C220 C219 1.405 . S
C220 C221 1.383 . S
C221 C220 1.383 . S
C221 C222 1.393 . S
C222 H194 0.931 . S
C222 C221 1.393 . S
C222 C223 1.382 . S
C223 H193 0.929 . S
C223 C218 1.371 . S
C223 C222 1.382 . S
C224 N187 1.423 . S
C224 C225 1.362 . S
C224 C229 1.388 . S
C225 H195 0.929 . S
C225 C224 1.362 . S
C225 C226 1.376 . S
C226 H197 0.931 . S
C226 C225 1.376 . S
C226 C227 1.396 . S
C227 C226 1.396 . S
C227 C228 1.348 . S
C227 C245 1.472 . S
C228 H198 0.929 . S
C228 C227 1.348 . S
C228 C229 1.443 . S
C229 H196 0.932 . S
C229 C224 1.388 . S
C229 C228 1.443 . S
C230 N210 1.433 . S
C230 C231 1.363 . S
C230 C235 1.370 . S
C231 H199 0.929 . S
C231 C230 1.363 . S
C231 C232 1.385 . S
C232 H200 0.930 1_545 S
C232 C231 1.385 . S
C232 C233 1.357 . S
C233 C232 1.357 . S
C233 C234 1.406 . S
C234 H201 0.929 . S
C234 C233 1.406 . S
C234 C235 1.391 . S
C235 H202 0.931 . S
C235 C230 1.370 . S
C235 C234 1.391 . S
C236 N210 1.435 . S
C236 C237 1.358 . S
C236 C241 1.371 . S
C237 H203 0.930 . S
C237 C236 1.358 . S
C237 C238 1.405 . S
C238 H204 0.932 1_545 S
C238 C237 1.405 . S
C238 C239 1.383 . S
C239 C238 1.383 . S
C239 C240 1.393 . S
C240 H205 0.931 . S
C240 C239 1.393 . S
C240 C241 1.382 . S
C241 H206 0.929 . S
C241 C236 1.371 . S
C241 C240 1.382 . S
C242 N210 1.423 . S
C242 C243 1.362 . S
C242 C247 1.388 . S
C243 H207 0.929 . S
C243 C242 1.362 . S
C243 C244 1.376 . S
C244 H208 0.931 . S
C244 C243 1.376 . S
C244 C245 1.396 . S
C245 C227 1.472 . S
C245 C244 1.396 . S
C245 C246 1.348 . S
C246 H209 0.929 . S
C246 C245 1.348 . S
C246 C247 1.443 . S
C247 H211 0.932 . S
C247 C242 1.388 . S
C247 C246 1.443 . S
H248 C275 0.929 . S
N249 C274 1.433 . S
N249 C280 1.435 . S
N249 C286 1.423 . S
H250 C276 0.930 1_565 S
H251 C279 0.931 . S
H252 C278 0.929 . S
H253 C281 0.930 . S
H254 C282 0.932 1_565 S
H255 C285 0.929 . S
H256 C284 0.931 . S
H257 C287 0.929 . S
H258 C291 0.932 . S
H259 C288 0.931 . S
H260 C290 0.929 . S
H261 C293 0.929 . S
H262 C294 0.930 . S
H263 C296 0.929 . S
H264 C297 0.931 . S
H265 C299 0.930 . S
H266 C300 0.932 . S
H267 C302 0.931 . S
H268 C303 0.929 . S
H269 C305 0.929 . S
H270 C306 0.931 . S
H271 C308 0.929 . S
N272 C292 1.433 . S
N272 C298 1.435 . S
N272 C304 1.423 . S
H273 C309 0.932 . S
C274 N249 1.433 . S
C274 C275 1.363 . S
C274 C279 1.370 . S
C275 H248 0.929 . S
C275 C274 1.363 . S
C275 C276 1.385 . S
C276 H250 0.930 1_545 S
C276 C275 1.385 . S
C276 C277 1.357 . S
C277 C276 1.357 . S
C277 C278 1.406 . S
C278 H252 0.929 . S
C278 C277 1.406 . S
C278 C279 1.391 . S
C279 H251 0.931 . S
C279 C274 1.370 . S
C279 C278 1.391 . S
C280 N249 1.435 . S
C280 C281 1.358 . S
C280 C285 1.371 . S
C281 H253 0.930 . S
C281 C280 1.358 . S
C281 C282 1.405 . S
C282 H254 0.932 1_545 S
C282 C281 1.405 . S
C282 C283 1.383 . S
C283 C282 1.383 . S
C283 C284 1.393 . S
C284 H256 0.931 . S
C284 C283 1.393 . S
C284 C285 1.382 . S
C285 H255 0.929 . S
C285 C280 1.371 . S
C285 C284 1.382 . S
C286 N249 1.423 . S
C286 C287 1.362 . S
C286 C291 1.388 . S
C287 H257 0.929 . S
C287 C286 1.362 . S
C287 C288 1.376 . S
C288 H259 0.931 . S
C288 C287 1.376 . S
C288 C289 1.396 . S
C289 C288 1.396 . S
C289 C290 1.348 . S
C289 C307 1.472 . S
C290 H260 0.929 . S
C290 C289 1.348 . S
C290 C291 1.443 . S
C291 H258 0.932 . S
C291 C286 1.388 . S
C291 C290 1.443 . S
C292 N272 1.433 . S
C292 C293 1.363 . S
C292 C297 1.370 . S
C293 H261 0.929 . S
C293 C292 1.363 . S
C293 C294 1.385 . S
C294 H262 0.930 . S
C294 C293 1.385 . S
C294 C295 1.357 . S
C295 C294 1.357 . S
C295 C296 1.406 . S
C296 H263 0.929 . S
C296 C295 1.406 . S
C296 C297 1.391 . S
C297 H264 0.931 . S
C297 C292 1.370 . S
C297 C296 1.391 . S
C298 N272 1.435 . S
C298 C299 1.358 . S
C298 C303 1.371 . S
C299 H265 0.930 . S
C299 C298 1.358 . S
C299 C300 1.405 . S
C300 H266 0.932 . S
C300 C299 1.405 . S
C300 C301 1.383 . S
C301 C300 1.383 . S
C301 C302 1.393 . S
C302 H267 0.931 . S
C302 C301 1.393 . S
C302 C303 1.382 . S
C303 H268 0.929 . S
C303 C298 1.371 . S
C303 C302 1.382 . S
C304 N272 1.423 . S
C304 C305 1.362 . S
C304 C309 1.388 . S
C305 H269 0.929 . S
C305 C304 1.362 . S
C305 C306 1.376 . S
C306 H270 0.931 . S
C306 C305 1.376 . S
C306 C307 1.396 . S
C307 C289 1.472 . S
C307 C306 1.396 . S
C307 C308 1.348 . S
C308 H271 0.929 . S
C308 C307 1.348 . S
C308 C309 1.443 . S
C309 H273 0.932 . S
C309 C304 1.388 . S
C309 C308 1.443 . S
H310 C337 0.929 1_545 S
N311 C336 1.433 . S
N311 C342 1.435 . S
N311 C348 1.423 . S
H312 C338 0.930 . S
H313 C341 0.931 . S
H314 C340 0.929 . S
H315 C343 0.930 . S
H316 C344 0.932 . S
H317 C347 0.929 . S
H318 C346 0.931 . S
H319 C349 0.929 . S
H320 C353 0.932 . S
H321 C350 0.931 . S
H322 C352 0.929 . S
H323 C355 0.929 . S
H324 C356 0.930 . S
H325 C358 0.929 . S
H326 C359 0.931 . S
H327 C361 0.930 . S
H328 C362 0.932 . S
H329 C364 0.931 . S
H330 C365 0.929 . S
H331 C367 0.929 . S
H332 C368 0.931 . S
H333 C370 0.929 . S
N334 C354 1.433 . S
N334 C360 1.435 . S
N334 C366 1.423 . S
H335 C371 0.932 . S
C336 N311 1.433 . S
C336 C337 1.363 . S
C336 C341 1.370 . S
C337 H310 0.929 1_565 S
C337 C336 1.363 . S
C337 C338 1.385 1_565 S
C338 H312 0.930 . S
C338 C337 1.385 1_545 S
C338 C339 1.357 1_545 S
C339 C338 1.357 1_565 S
C339 C340 1.406 . S
C340 H314 0.929 . S
C340 C339 1.406 . S
C340 C341 1.391 . S
C341 H313 0.931 . S
C341 C336 1.370 . S
C341 C340 1.391 . S
C342 N311 1.435 . S
C342 C343 1.358 . S
C342 C347 1.371 . S
C343 H315 0.930 . S
C343 C342 1.358 . S
C343 C344 1.405 1_565 S
C344 H316 0.932 . S
C344 C343 1.405 1_545 S
C344 C345 1.383 . S
C345 C344 1.383 . S
C345 C346 1.393 1_545 S
C346 H318 0.931 . S
C346 C345 1.393 1_565 S
C346 C347 1.382 . S
C347 H317 0.929 . S
C347 C342 1.371 . S
C347 C346 1.382 . S
C348 N311 1.423 . S
C348 C349 1.362 . S
C348 C353 1.388 . S
C349 H319 0.929 . S
C349 C348 1.362 . S
C349 C350 1.376 . S
C350 H321 0.931 . S
C350 C349 1.376 . S
C350 C351 1.396 . S
C351 C350 1.396 . S
C351 C352 1.348 . S
C351 C369 1.472 . S
C352 H322 0.929 . S
C352 C351 1.348 . S
C352 C353 1.443 . S
C353 H320 0.932 . S
C353 C348 1.388 . S
C353 C352 1.443 . S
C354 N334 1.433 . S
C354 C355 1.363 . S
C354 C359 1.370 . S
C355 H323 0.929 . S
C355 C354 1.363 . S
C355 C356 1.385 . S
C356 H324 0.930 . S
C356 C355 1.385 . S
C356 C357 1.357 . S
C357 C356 1.357 . S
C357 C358 1.406 . S
C358 H325 0.929 . S
C358 C357 1.406 . S
C358 C359 1.391 . S
C359 H326 0.931 . S
C359 C354 1.370 . S
C359 C358 1.391 . S
C360 N334 1.435 . S
C360 C361 1.358 . S
C360 C365 1.371 . S
C361 H327 0.930 . S
C361 C360 1.358 . S
C361 C362 1.405 . S
C362 H328 0.932 . S
C362 C361 1.405 . S
C362 C363 1.383 . S
C363 C362 1.383 . S
C363 C364 1.393 . S
C364 H329 0.931 . S
C364 C363 1.393 . S
C364 C365 1.382 . S
C365 H330 0.929 . S
C365 C360 1.371 . S
C365 C364 1.382 . S
C366 N334 1.423 . S
C366 C367 1.362 . S
C366 C371 1.388 . S
C367 H331 0.929 . S
C367 C366 1.362 . S
C367 C368 1.376 . S
C368 H332 0.931 . S
C368 C367 1.376 . S
C368 C369 1.396 . S
C369 C351 1.472 . S
C369 C368 1.396 . S
C369 C370 1.348 . S
C370 H333 0.929 . S
C370 C369 1.348 . S
C370 C371 1.443 . S
C371 H335 0.932 . S
C371 C366 1.388 . S
C371 C370 1.443 . S
H372 C399 0.929 . S
N373 C398 1.433 . S
N373 C404 1.435 . S
N373 C410 1.423 . S
H374 C400 0.930 . S
H375 C403 0.931 . S
H376 C402 0.929 . S
H377 C405 0.930 . S
H378 C406 0.932 . S
H379 C409 0.929 . S
H380 C408 0.931 . S
H381 C411 0.929 1_556 S
H382 C415 0.932 . S
H383 C412 0.931 1_556 S
H384 C414 0.929 . S
H385 C417 0.929 . S
H386 C418 0.930 . S
H387 C420 0.929 . S
H388 C421 0.931 . S
H389 C423 0.930 . S
H390 C424 0.932 . S
H391 C426 0.931 . S
H392 C427 0.929 . S
H393 C429 0.929 1_556 S
H394 C430 0.931 1_556 S
H395 C432 0.929 . S
N396 C416 1.433 . S
N396 C422 1.435 . S
N396 C428 1.423 . S
H397 C433 0.932 . S
C398 N373 1.433 . S
C398 C399 1.363 . S
C398 C403 1.370 . S
C399 H372 0.929 . S
C399 C398 1.363 . S
C399 C400 1.385 1_554 S
C400 H374 0.930 . S
C400 C399 1.385 1_556 S
C400 C401 1.357 . S
C401 C400 1.357 . S
C401 C402 1.406 . S
C402 H376 0.929 . S
C402 C401 1.406 . S
C402 C403 1.391 1_556 S
C403 H375 0.931 . S
C403 C398 1.370 . S
C403 C402 1.391 1_554 S
C404 N373 1.435 . S
C404 C405 1.358 . S
C404 C409 1.371 . S
C405 H377 0.930 . S
C405 C404 1.358 . S
C405 C406 1.405 . S
C406 H378 0.932 . S
C406 C405 1.405 . S
C406 C407 1.383 . S
C407 C406 1.383 . S
C407 C408 1.393 . S
C408 H380 0.931 . S
C408 C407 1.393 . S
C408 C409 1.382 . S
C409 H379 0.929 . S
C409 C404 1.371 . S
C409 C408 1.382 . S
C410 N373 1.423 . S
C410 C411 1.362 . S
C410 C415 1.388 . S
C411 H381 0.929 1_554 S
C411 C410 1.362 . S
C411 C412 1.376 . S
C412 H383 0.931 1_554 S
C412 C411 1.376 . S
C412 C413 1.396 . S
C413 C412 1.396 . S
C413 C414 1.348 . S
C413 C431 1.472 . S
C414 H384 0.929 . S
C414 C413 1.348 . S
C414 C415 1.443 . S
C415 H382 0.932 . S
C415 C410 1.388 . S
C415 C414 1.443 . S
C416 N396 1.433 . S
C416 C417 1.363 . S
C416 C421 1.370 . S
C417 H385 0.929 . S
C417 C416 1.363 . S
C417 C418 1.385 1_554 S
C418 H386 0.930 . S
C418 C417 1.385 1_556 S
C418 C419 1.357 . S
C419 C418 1.357 . S
C419 C420 1.406 . S
C420 H387 0.929 . S
C420 C419 1.406 . S
C420 C421 1.391 1_556 S
C421 H388 0.931 . S
C421 C416 1.370 . S
C421 C420 1.391 1_554 S
C422 N396 1.435 . S
C422 C423 1.358 . S
C422 C427 1.371 . S
C423 H389 0.930 . S
C423 C422 1.358 . S
C423 C424 1.405 . S
C424 H390 0.932 . S
C424 C423 1.405 . S
C424 C425 1.383 . S
C425 C424 1.383 . S
C425 C426 1.393 . S
C426 H391 0.931 . S
C426 C425 1.393 . S
C426 C427 1.382 . S
C427 H392 0.929 . S
C427 C422 1.371 . S
C427 C426 1.382 . S
C428 N396 1.423 . S
C428 C429 1.362 . S
C428 C433 1.388 . S
C429 H393 0.929 1_554 S
C429 C428 1.362 . S
C429 C430 1.376 . S
C430 H394 0.931 1_554 S
C430 C429 1.376 . S
C430 C431 1.396 . S
C431 C413 1.472 . S
C431 C430 1.396 . S
C431 C432 1.348 . S
C432 H395 0.929 . S
C432 C431 1.348 . S
C432 C433 1.443 . S
C433 H397 0.932 . S
C433 C428 1.388 . S
C433 C432 1.443 . S
H434 C461 0.929 . S
N435 C460 1.433 . S
N435 C466 1.435 . S
N435 C472 1.423 . S
H436 C462 0.930 . S
H437 C465 0.931 . S
H438 C464 0.929 . S
H439 C467 0.930 . S
H440 C468 0.932 . S
H441 C471 0.929 . S
H442 C470 0.931 . S
H443 C473 0.929 . S
H444 C477 0.932 . S
H445 C474 0.931 . S
H446 C476 0.929 . S
H447 C479 0.929 . S
H448 C480 0.930 . S
H449 C482 0.929 . S
H450 C483 0.931 . S
H451 C485 0.930 . S
H452 C486 0.932 . S
H453 C488 0.931 . S
H454 C489 0.929 . S
H455 C491 0.929 . S
H456 C492 0.931 . S
H457 C494 0.929 . S
N458 C478 1.433 . S
N458 C484 1.435 . S
N458 C490 1.423 . S
H459 C495 0.932 . S
C460 N435 1.433 . S
C460 C461 1.363 . S
C460 C465 1.370 . S
C461 H434 0.929 . S
C461 C460 1.363 . S
C461 C462 1.385 . S
C462 H436 0.930 . S
C462 C461 1.385 . S
C462 C463 1.357 . S
C463 C462 1.357 . S
C463 C464 1.406 . S
C464 H438 0.929 . S
C464 C463 1.406 . S
C464 C465 1.391 . S
C465 H437 0.931 . S
C465 C460 1.370 . S
C465 C464 1.391 . S
C466 N435 1.435 . S
C466 C467 1.358 . S
C466 C471 1.371 . S
C467 H439 0.930 . S
C467 C466 1.358 . S
C467 C468 1.405 . S
C468 H440 0.932 . S
C468 C467 1.405 . S
C468 C469 1.383 . S
C469 C468 1.383 . S
C469 C470 1.393 . S
C470 H442 0.931 . S
C470 C469 1.393 . S
C470 C471 1.382 . S
C471 H441 0.929 . S
C471 C466 1.371 . S
C471 C470 1.382 . S
C472 N435 1.423 . S
C472 C473 1.362 . S
C472 C477 1.388 . S
C473 H443 0.929 . S
C473 C472 1.362 . S
C473 C474 1.376 . S
C474 H445 0.931 . S
C474 C473 1.376 . S
C474 C475 1.396 . S
C475 C474 1.396 . S
C475 C476 1.348 . S
C475 C493 1.472 1_455 S
C476 H446 0.929 . S
C476 C475 1.348 . S
C476 C477 1.443 . S
C477 H444 0.932 . S
C477 C472 1.388 . S
C477 C476 1.443 . S
C478 N458 1.433 . S
C478 C479 1.363 . S
C478 C483 1.370 . S
C479 H447 0.929 . S
C479 C478 1.363 . S
C479 C480 1.385 . S
C480 H448 0.930 . S
C480 C479 1.385 . S
C480 C481 1.357 . S
C481 C480 1.357 . S
C481 C482 1.406 . S
C482 H449 0.929 . S
C482 C481 1.406 . S
C482 C483 1.391 . S
C483 H450 0.931 . S
C483 C478 1.370 . S
C483 C482 1.391 . S
C484 N458 1.435 . S
C484 C485 1.358 . S
C484 C489 1.371 . S
C485 H451 0.930 . S
C485 C484 1.358 . S
C485 C486 1.405 . S
C486 H452 0.932 . S
C486 C485 1.405 . S
C486 C487 1.383 . S
C487 C486 1.383 . S
C487 C488 1.393 . S
C488 H453 0.931 . S
C488 C487 1.393 . S
C488 C489 1.382 . S
C489 H454 0.929 . S
C489 C484 1.371 . S
C489 C488 1.382 . S
C490 N458 1.423 . S
C490 C491 1.362 . S
C490 C495 1.388 . S
C491 H455 0.929 . S
C491 C490 1.362 . S
C491 C492 1.376 . S
C492 H456 0.931 . S
C492 C491 1.376 . S
C492 C493 1.396 . S
C493 C475 1.472 1_655 S
C493 C492 1.396 . S
C493 C494 1.348 . S
C494 H457 0.929 . S
C494 C493 1.348 . S
C494 C495 1.443 . S
C495 H459 0.932 . S
C495 C490 1.388 . S
C495 C494 1.443 . S
Fe496 O497 1.886 . S
Fe496 O500 1.715 1_455 S
Fe496 O505 2.077 . S
Fe496 O510 1.935 1_455 S
Fe496 O516 2.077 . S
Fe496 O525 1.935 1_455 S
O497 Fe496 1.886 . S
O497 Fe499 1.715 . S
Fe498 O500 1.886 . S
Fe498 O501 1.715 . S
Fe498 O508 1.935 . S
Fe498 O509 2.077 . S
Fe498 O515 1.935 . S
Fe498 O524 2.077 . S
Fe499 O497 1.715 . S
Fe499 O502 1.886 . S
Fe499 O506 1.935 . S
Fe499 O511 2.077 . S
Fe499 O517 1.935 . S
Fe499 O521 2.077 . S
O500 Fe496 1.715 1_655 S
O500 Fe498 1.886 . S
O501 Fe498 1.715 . S
O501 Fe503 1.905 . S
O502 Fe499 1.886 . S
O502 Fe503 1.696 1_455 S
Fe503 O501 1.905 . S
Fe503 O502 1.696 1_655 S
Fe503 O507 2.095 . S
Fe503 O512 1.921 1_655 S
Fe503 O514 2.095 . S
Fe503 O522 1.921 1_655 S
C504 O516 1.381 . S
C504 O517 1.421 . S
O505 Fe496 2.077 . S
O505 C518 1.381 . S
O506 Fe499 1.935 . S
O506 C518 1.421 . S
O507 Fe503 2.095 . S
O507 C523 1.381 . S
O508 Fe498 1.935 . S
O508 C523 1.421 . S
O509 Fe498 2.077 . S
O509 C513 1.381 . S
O510 Fe496 1.935 1_655 S
O510 C513 1.421 . S
O511 Fe499 2.077 . S
O511 C519 1.381 . S
O512 Fe503 1.921 1_455 S
O512 C519 1.421 . S
C513 O509 1.381 . S
C513 O510 1.421 . S
O514 Fe503 2.095 . S
O514 C526 1.381 . S
O515 Fe498 1.935 . S
O515 C526 1.421 . S
O516 Fe496 2.077 . S
O516 C504 1.381 . S
O517 Fe499 1.935 . S
O517 C504 1.421 . S
C518 O505 1.381 . S
C518 O506 1.421 . S
C519 O511 1.381 . S
C519 O512 1.421 . S
C520 O521 1.381 . S
C520 O522 1.421 . S
O521 Fe499 2.077 . S
O521 C520 1.381 . S
O522 Fe503 1.921 1_455 S
O522 C520 1.421 . S
C523 O507 1.381 . S
C523 O508 1.421 . S
O524 Fe498 2.077 . S
O524 C527 1.381 . S
O525 Fe496 1.935 1_655 S
O525 C527 1.421 . S
C526 O514 1.381 . S
C526 O515 1.421 . S
C527 O524 1.381 . S
C527 O525 1.421 . S
Fe528 O529 1.886 . S
Fe528 O532 1.715 . S
Fe528 O537 2.077 . S
Fe528 O542 1.935 . S
Fe528 O548 2.077 . S
Fe528 O557 1.935 . S
O529 Fe528 1.886 . S
O529 Fe531 1.715 . S
Fe530 O532 1.886 . S
Fe530 O533 1.715 . S
Fe530 O540 1.935 . S
Fe530 O541 2.077 . S
Fe530 O547 1.935 . S
Fe530 O556 2.077 . S
Fe531 O529 1.715 . S
Fe531 O534 1.886 . S
Fe531 O538 1.935 . S
Fe531 O543 2.077 . S
Fe531 O549 1.935 . S
Fe531 O553 2.077 . S
O532 Fe528 1.715 . S
O532 Fe530 1.886 . S
O533 Fe530 1.715 . S
O533 Fe535 1.886 . S
O534 Fe531 1.886 . S
O534 Fe535 1.715 . S
Fe535 O533 1.886 . S
Fe535 O534 1.715 . S
Fe535 O539 2.077 . S
Fe535 O544 1.935 . S
Fe535 O546 2.077 . S
Fe535 O554 1.935 . S
C536 O548 1.381 . S
C536 O549 1.421 . S
O537 Fe528 2.077 . S
O537 C550 1.381 . S
O538 Fe531 1.935 . S
O538 C550 1.421 . S
O539 Fe535 2.077 . S
O539 C555 1.381 . S
O540 Fe530 1.935 . S
O540 C555 1.421 . S
O541 Fe530 2.077 . S
O541 C545 1.381 . S
O542 Fe528 1.935 . S
O542 C545 1.421 . S
O543 Fe531 2.077 . S
O543 C551 1.381 . S
O544 Fe535 1.935 . S
O544 C551 1.421 . S
C545 O541 1.381 . S
C545 O542 1.421 . S
O546 Fe535 2.077 . S
O546 C558 1.381 . S
O547 Fe530 1.935 . S
O547 C558 1.421 . S
O548 Fe528 2.077 . S
O548 C536 1.381 . S
O549 Fe531 1.935 . S
O549 C536 1.421 . S
C550 O537 1.381 . S
C550 O538 1.421 . S
C551 O543 1.381 . S
C551 O544 1.421 . S
C552 O553 1.381 . S
C552 O554 1.421 . S
O553 Fe531 2.077 . S
O553 C552 1.381 . S
O554 Fe535 1.935 . S
O554 C552 1.421 . S
C555 O539 1.381 . S
C555 O540 1.421 . S
O556 Fe530 2.077 . S
O556 C559 1.381 . S
O557 Fe528 1.935 . S
O557 C559 1.421 . S
C558 O546 1.381 . S
C558 O547 1.421 . S
C559 O556 1.381 . S
C559 O557 1.421 . S
Fe560 O561 1.886 . S
Fe560 O564 1.715 . S
Fe560 O569 2.077 . S
Fe560 O574 1.935 . S
Fe560 O580 2.077 . S
Fe560 O589 1.935 . S
O561 Fe560 1.886 . S
O561 Fe563 1.715 . S
Fe562 O564 1.886 . S
Fe562 O565 1.715 . S
Fe562 O572 1.935 . S
Fe562 O573 2.077 . S
Fe562 O579 1.935 . S
Fe562 O588 2.077 . S
Fe563 O561 1.715 . S
Fe563 O566 1.886 . S
Fe563 O570 1.935 . S
Fe563 O575 2.077 . S
Fe563 O581 1.935 . S
Fe563 O585 2.077 . S
O564 Fe560 1.715 . S
O564 Fe562 1.886 . S
O565 Fe562 1.715 . S
O565 Fe567 1.886 . S
O566 Fe563 1.886 . S
O566 Fe567 1.715 . S
Fe567 O565 1.886 . S
Fe567 O566 1.715 . S
Fe567 O571 2.077 . S
Fe567 O576 1.935 . S
Fe567 O578 2.077 . S
Fe567 O586 1.935 . S
C568 O580 1.381 . S
C568 O581 1.421 . S
O569 Fe560 2.077 . S
O569 C582 1.381 . S
O570 Fe563 1.935 . S
O570 C582 1.421 . S
O571 Fe567 2.077 . S
O571 C587 1.381 . S
O572 Fe562 1.935 . S
O572 C587 1.421 . S
O573 Fe562 2.077 . S
O573 C577 1.381 . S
O574 Fe560 1.935 . S
O574 C577 1.421 . S
O575 Fe563 2.077 . S
O575 C583 1.381 . S
O576 Fe567 1.935 . S
O576 C583 1.421 . S
C577 O573 1.381 . S
C577 O574 1.421 . S
O578 Fe567 2.077 . S
O578 C590 1.381 . S
O579 Fe562 1.935 . S
O579 C590 1.421 . S
O580 Fe560 2.077 . S
O580 C568 1.381 . S
O581 Fe563 1.935 . S
O581 C568 1.421 . S
C582 O569 1.381 . S
C582 O570 1.421 . S
C583 O575 1.381 . S
C583 O576 1.421 . S
C584 O585 1.381 . S
C584 O586 1.421 . S
O585 Fe563 2.077 . S
O585 C584 1.381 . S
O586 Fe567 1.935 . S
O586 C584 1.421 . S
C587 O571 1.381 . S
C587 O572 1.421 . S
O588 Fe562 2.077 . S
O588 C591 1.381 . S
O589 Fe560 1.935 . S
O589 C591 1.421 . S
C590 O578 1.381 . S
C590 O579 1.421 . S
C591 O588 1.381 . S
C591 O589 1.421 . S
Fe592 O593 1.886 . S
Fe592 O596 1.715 . S
Fe592 O601 2.077 1_455 S
Fe592 O606 1.935 1_455 S
Fe592 O612 2.077 . S
Fe592 O621 1.935 . S
O593 Fe592 1.886 . S
O593 Fe595 1.715 . S
Fe594 O596 1.886 . S
Fe594 O597 1.715 . S
Fe594 O604 1.935 1_455 S
Fe594 O605 2.077 1_455 S
Fe594 O611 1.935 . S
Fe594 O620 2.077 . S
Fe595 O593 1.715 . S
Fe595 O598 1.886 . S
Fe595 O602 1.935 1_455 S
Fe595 O607 2.077 1_455 S
Fe595 O613 1.935 . S
Fe595 O617 2.077 . S
O596 Fe592 1.715 . S
O596 Fe594 1.886 . S
O597 Fe594 1.715 . S
O597 Fe599 1.886 . S
O598 Fe595 1.886 . S
O598 Fe599 1.715 . S
Fe599 O597 1.886 . S
Fe599 O598 1.715 . S
Fe599 O603 2.077 1_455 S
Fe599 O608 1.935 1_455 S
Fe599 O610 2.077 . S
Fe599 O618 1.935 . S
C600 O612 1.381 . S
C600 O613 1.421 . S
O601 Fe592 2.077 1_655 S
O601 C614 1.381 . S
O602 Fe595 1.935 1_655 S
O602 C614 1.421 . S
O603 Fe599 2.077 1_655 S
O603 C619 1.381 . S
O604 Fe594 1.935 1_655 S
O604 C619 1.421 . S
O605 Fe594 2.077 1_655 S
O605 C609 1.381 . S
O606 Fe592 1.935 1_655 S
O606 C609 1.421 . S
O607 Fe595 2.077 1_655 S
O607 C615 1.381 . S
O608 Fe599 1.935 1_655 S
O608 C615 1.421 . S
C609 O605 1.381 . S
C609 O606 1.421 . S
O610 Fe599 2.077 . S
O610 C622 1.381 . S
O611 Fe594 1.935 . S
O611 C622 1.421 . S
O612 Fe592 2.077 . S
O612 C600 1.381 . S
O613 Fe595 1.935 . S
O613 C600 1.421 . S
C614 O601 1.381 . S
C614 O602 1.421 . S
C615 O607 1.381 . S
C615 O608 1.421 . S
C616 O617 1.381 . S
C616 O618 1.421 . S
O617 Fe595 2.077 . S
O617 C616 1.381 . S
O618 Fe599 1.935 . S
O618 C616 1.421 . S
C619 O603 1.381 . S
C619 O604 1.421 . S
O620 Fe594 2.077 . S
O620 C623 1.381 . S
O621 Fe592 1.935 . S
O621 C623 1.421 . S
C622 O610 1.381 . S
C622 O611 1.421 . S
C623 O620 1.381 . S
C623 O621 1.421 . S
H624 C630 0.930 . S
H625 C633 0.930 . S
H626 C634 0.930 . S
H627 C635 0.930 . S
H628 C638 0.930 . S
H629 C639 0.930 . S
C630 H624 0.930 . S
C630 C631 1.355 . S
C630 C632 1.415 . S
C631 C630 1.355 . S
C631 C633 1.419 . S
C632 C630 1.415 . S
C632 C637 1.425 . S
C632 C639 1.409 . S
C633 H625 0.930 . S
C633 C631 1.419 . S
C633 C634 1.362 . S
C634 H626 0.930 . S
C634 C633 1.362 . S
C634 C637 1.409 . S
C635 H627 0.930 . S
C635 C636 1.355 . S
C635 C637 1.415 . S
C636 C635 1.355 . S
C636 C638 1.419 . S
C637 C632 1.425 . S
C637 C634 1.409 . S
C637 C635 1.415 . S
C638 H628 0.930 . S
C638 C636 1.419 . S
C638 C639 1.362 . S
C639 H629 0.930 . S
C639 C632 1.409 . S
C639 C638 1.362 . S
H640 C646 0.930 . S
H641 C649 0.930 . S
H642 C650 0.930 . S
H643 C651 0.930 . S
H644 C654 0.930 . S
H645 C655 0.930 . S
C646 H640 0.930 . S
C646 C647 1.355 . S
C646 C648 1.415 . S
C647 C646 1.355 . S
C647 C649 1.419 . S
C648 C646 1.415 . S
C648 C653 1.425 . S
C648 C655 1.409 . S
C649 H641 0.930 . S
C649 C647 1.419 . S
C649 C650 1.362 . S
C650 H642 0.930 . S
C650 C649 1.362 . S
C650 C653 1.409 . S
C651 H643 0.930 . S
C651 C652 1.355 . S
C651 C653 1.415 . S
C652 C651 1.355 . S
C652 C654 1.419 . S
C653 C648 1.425 . S
C653 C650 1.409 . S
C653 C651 1.415 . S
C654 H644 0.930 . S
C654 C652 1.419 . S
C654 C655 1.362 . S
C655 H645 0.930 . S
C655 C648 1.409 . S
C655 C654 1.362 . S
H656 C662 0.930 . S
H657 C665 0.930 . S
H658 C666 0.930 . S
H659 C667 0.930 . S
H660 C670 0.930 . S
H661 C671 0.930 . S
C662 H656 0.930 . S
C662 C663 1.355 . S
C662 C664 1.415 . S
C663 C662 1.355 . S
C663 C665 1.419 . S
C664 C662 1.415 . S
C664 C669 1.425 . S
C664 C671 1.409 . S
C665 H657 0.930 . S
C665 C663 1.419 . S
C665 C666 1.362 . S
C666 H658 0.930 . S
C666 C665 1.362 . S
C666 C669 1.409 . S
C667 H659 0.930 . S
C667 C668 1.355 . S
C667 C669 1.415 . S
C668 C667 1.355 . S
C668 C670 1.419 . S
C669 C664 1.425 . S
C669 C666 1.409 . S
C669 C667 1.415 . S
C670 H660 0.930 . S
C670 C668 1.419 . S
C670 C671 1.362 . S
C671 H661 0.930 . S
C671 C664 1.409 . S
C671 C670 1.362 . S
H672 C678 0.930 . S
H673 C681 0.930 . S
H674 C682 0.930 . S
H675 C683 0.930 . S
H676 C686 0.930 . S
H677 C687 0.930 . S
C678 H672 0.930 . S
C678 C679 1.355 . S
C678 C680 1.415 . S
C679 C678 1.355 . S
C679 C681 1.419 1_565 S
C680 C678 1.415 . S
C680 C685 1.425 . S
C680 C687 1.409 . S
C681 H673 0.930 . S
C681 C679 1.419 1_545 S
C681 C682 1.362 1_545 S
C682 H674 0.930 . S
C682 C681 1.362 1_565 S
C682 C685 1.409 . S
C683 H675 0.930 . S
C683 C684 1.355 . S
C683 C685 1.415 . S
C684 C683 1.355 . S
C684 C686 1.419 . S
C685 C680 1.425 . S
C685 C682 1.409 . S
C685 C683 1.415 . S
C686 H676 0.930 . S
C686 C684 1.419 . S
C686 C687 1.362 . S
C687 H677 0.930 . S
C687 C680 1.409 . S
C687 C686 1.362 . S
H688 C694 0.930 . S
H689 C697 0.930 . S
H690 C698 0.930 . S
H691 C699 0.930 . S
H692 C702 0.930 . S
H693 C703 0.930 . S
C694 H688 0.930 . S
C694 C695 1.355 . S
C694 C696 1.415 . S
C695 C694 1.355 . S
C695 C697 1.419 . S
C696 C694 1.415 . S
C696 C701 1.425 . S
C696 C703 1.409 . S
C697 H689 0.930 . S
C697 C695 1.419 . S
C697 C698 1.362 . S
C698 H690 0.930 . S
C698 C697 1.362 . S
C698 C701 1.409 . S
C699 H691 0.930 . S
C699 C700 1.355 . S
C699 C701 1.415 . S
C700 C699 1.355 . S
C700 C702 1.419 . S
C701 C696 1.425 . S
C701 C698 1.409 . S
C701 C699 1.415 . S
C702 H692 0.930 . S
C702 C700 1.419 . S
C702 C703 1.362 . S
C703 H693 0.930 . S
C703 C696 1.409 . S
C703 C702 1.362 . S
H704 C710 0.930 . S
H705 C713 0.930 1_565 S
H706 C714 0.930 . S
H707 C715 0.930 . S
H708 C718 0.930 . S
H709 C719 0.930 . S
C710 H704 0.930 . S
C710 C711 1.355 . S
C710 C712 1.415 . S
C711 C710 1.355 . S
C711 C713 1.419 . S
C712 C710 1.415 . S
C712 C717 1.425 . S
C712 C719 1.409 . S
C713 H705 0.930 1_545 S
C713 C711 1.419 . S
C713 C714 1.362 . S
C714 H706 0.930 . S
C714 C713 1.362 . S
C714 C717 1.409 . S
C715 H707 0.930 . S
C715 C716 1.355 . S
C715 C717 1.415 . S
C716 C715 1.355 . S
C716 C718 1.419 . S
C717 C712 1.425 . S
C717 C714 1.409 . S
C717 C715 1.415 . S
C718 H708 0.930 . S
C718 C716 1.419 . S
C718 C719 1.362 . S
C719 H709 0.930 . S
C719 C712 1.409 . S
C719 C718 1.362 . S
H720 C726 0.930 . S
H721 C729 0.930 . S
H722 C730 0.930 . S
H723 C731 0.930 . S
H724 C734 0.930 . S
H725 C735 0.930 . S
C726 H720 0.930 . S
C726 C727 1.355 . S
C726 C728 1.415 . S
C727 C726 1.355 . S
C727 C729 1.419 . S
C728 C726 1.415 . S
C728 C733 1.425 . S
C728 C735 1.409 . S
C729 H721 0.930 . S
C729 C727 1.419 . S
C729 C730 1.362 . S
C730 H722 0.930 . S
C730 C729 1.362 . S
C730 C733 1.409 . S
C731 H723 0.930 . S
C731 C732 1.355 . S
C731 C733 1.415 . S
C732 C731 1.355 . S
C732 C734 1.419 . S
C733 C728 1.425 . S
C733 C730 1.409 . S
C733 C731 1.415 . S
C734 H724 0.930 . S
C734 C732 1.419 . S
C734 C735 1.362 . S
C735 H725 0.930 . S
C735 C728 1.409 . S
C735 C734 1.362 . S
H736 C742 0.930 . S
H737 C745 0.930 . S
H738 C746 0.930 . S
H739 C747 0.930 . S
H740 C750 0.930 . S
H741 C751 0.930 . S
C742 H736 0.930 . S
C742 C743 1.355 . S
C742 C744 1.415 1_545 S
C743 C742 1.355 . S
C743 C745 1.419 1_545 S
C744 C742 1.415 1_565 S
C744 C749 1.425 . S
C744 C751 1.409 . S
C745 H737 0.930 . S
C745 C743 1.419 1_565 S
C745 C746 1.362 . S
C746 H738 0.930 . S
C746 C745 1.362 . S
C746 C749 1.409 . S
C747 H739 0.930 . S
C747 C748 1.355 . S
C747 C749 1.415 . S
C748 C747 1.355 . S
C748 C750 1.419 . S
C749 C744 1.425 . S
C749 C746 1.409 . S
C749 C747 1.415 . S
C750 H740 0.930 . S
C750 C748 1.419 . S
C750 C751 1.362 . S
C751 H741 0.930 . S
C751 C744 1.409 . S
C751 C750 1.362 . S
H752 C758 0.930 . S
H753 C761 0.930 . S
H754 C762 0.930 . S
H755 C763 0.930 . S
H756 C766 0.930 . S
H757 C767 0.930 . S
C758 H752 0.930 . S
C758 C759 1.355 . S
C758 C760 1.415 . S
C759 C758 1.355 . S
C759 C761 1.419 . S
C760 C758 1.415 . S
C760 C765 1.425 . S
C760 C767 1.409 . S
C761 H753 0.930 . S
C761 C759 1.419 . S
C761 C762 1.362 . S
C762 H754 0.930 . S
C762 C761 1.362 . S
C762 C765 1.409 . S
C763 H755 0.930 . S
C763 C764 1.355 . S
C763 C765 1.415 . S
C764 C763 1.355 . S
C764 C766 1.419 . S
C765 C760 1.425 . S
C765 C762 1.409 . S
C765 C763 1.415 . S
C766 H756 0.930 . S
C766 C764 1.419 . S
C766 C767 1.362 . S
C767 H757 0.930 . S
C767 C760 1.409 . S
C767 C766 1.362 . S
H768 C774 0.930 . S
H769 C777 0.930 . S
H770 C778 0.930 . S
H771 C779 0.930 . S
H772 C782 0.930 . S
H773 C783 0.930 . S
C774 H768 0.930 . S
C774 C775 1.355 1_565 S
C774 C776 1.415 . S
C775 C774 1.355 1_545 S
C775 C777 1.419 . S
C776 C774 1.415 . S
C776 C781 1.425 . S
C776 C783 1.409 . S
C777 H769 0.930 . S
C777 C775 1.419 . S
C777 C778 1.362 1_545 S
C778 H770 0.930 . S
C778 C777 1.362 1_565 S
C778 C781 1.409 . S
C779 H771 0.930 . S
C779 C780 1.355 . S
C779 C781 1.415 . S
C780 C779 1.355 . S
C780 C782 1.419 . S
C781 C776 1.425 . S
C781 C778 1.409 . S
C781 C779 1.415 . S
C782 H772 0.930 . S
C782 C780 1.419 . S
C782 C783 1.362 . S
C783 H773 0.930 . S
C783 C776 1.409 . S
C783 C782 1.362 . S
H784 C790 0.930 . S
H785 C793 0.930 . S
H786 C794 0.930 . S
H787 C795 0.930 . S
H788 C798 0.930 . S
H789 C799 0.930 . S
C790 H784 0.930 . S
C790 C791 1.355 . S
C790 C792 1.415 . S
C791 C790 1.355 . S
C791 C793 1.419 . S
C792 C790 1.415 . S
C792 C797 1.425 . S
C792 C799 1.409 . S
C793 H785 0.930 . S
C793 C791 1.419 . S
C793 C794 1.362 . S
C794 H786 0.930 . S
C794 C793 1.362 . S
C794 C797 1.409 . S
C795 H787 0.930 . S
C795 C796 1.355 . S
C795 C797 1.415 . S
C796 C795 1.355 . S
C796 C798 1.419 . S
C797 C792 1.425 . S
C797 C794 1.409 . S
C797 C795 1.415 . S
C798 H788 0.930 . S
C798 C796 1.419 . S
C798 C799 1.362 . S
C799 H789 0.930 . S
C799 C792 1.409 . S
C799 C798 1.362 . S
H800 C806 0.930 . S
H801 C809 0.930 . S
H802 C810 0.930 . S
H803 C811 0.930 . S
H804 C814 0.930 . S
H805 C815 0.930 . S
C806 H800 0.930 . S
C806 C807 1.355 . S
C806 C808 1.415 . S
C807 C806 1.355 . S
C807 C809 1.419 . S
C808 C806 1.415 . S
C808 C813 1.425 . S
C808 C815 1.409 . S
C809 H801 0.930 . S
C809 C807 1.419 . S
C809 C810 1.362 . S
C810 H802 0.930 . S
C810 C809 1.362 . S
C810 C813 1.409 . S
C811 H803 0.930 . S
C811 C812 1.355 . S
C811 C813 1.415 . S
C812 C811 1.355 . S
C812 C814 1.419 . S
C813 C808 1.425 . S
C813 C810 1.409 . S
C813 C811 1.415 . S
C814 H804 0.930 . S
C814 C812 1.419 . S
C814 C815 1.362 . S
C815 H805 0.930 . S
C815 C808 1.409 . S
C815 C814 1.362 . S
H816 C822 0.930 . S
H817 C825 0.930 . S
H818 C826 0.930 . S
H819 C827 0.930 . S
H820 C830 0.930 . S
H821 C831 0.930 . S
C822 H816 0.930 . S
C822 C823 1.355 . S
C822 C824 1.415 . S
C823 C822 1.355 . S
C823 C825 1.419 . S
C824 C822 1.415 . S
C824 C829 1.425 . S
C824 C831 1.409 . S
C825 H817 0.930 . S
C825 C823 1.419 . S
C825 C826 1.362 . S
C826 H818 0.930 . S
C826 C825 1.362 . S
C826 C829 1.409 . S
C827 H819 0.930 . S
C827 C828 1.355 . S
C827 C829 1.415 . S
C828 C827 1.355 . S
C828 C830 1.419 . S
C829 C824 1.425 . S
C829 C826 1.409 . S
C829 C827 1.415 . S
C830 H820 0.930 . S
C830 C828 1.419 . S
C830 C831 1.362 . S
C831 H821 0.930 . S
C831 C824 1.409 . S
C831 C830 1.362 . S
H832 C838 0.930 . S
H833 C841 0.930 . S
H834 C842 0.930 . S
H835 C843 0.930 . S
H836 C846 0.930 . S
H837 C847 0.930 . S
C838 H832 0.930 . S
C838 C839 1.355 . S
C838 C840 1.415 . S
C839 C838 1.355 . S
C839 C841 1.419 . S
C840 C838 1.415 . S
C840 C845 1.425 . S
C840 C847 1.409 . S
C841 H833 0.930 . S
C841 C839 1.419 . S
C841 C842 1.362 . S
C842 H834 0.930 . S
C842 C841 1.362 . S
C842 C845 1.409 . S
C843 H835 0.930 . S
C843 C844 1.355 . S
C843 C845 1.415 . S
C844 C843 1.355 . S
C844 C846 1.419 . S
C845 C840 1.425 . S
C845 C842 1.409 . S
C845 C843 1.415 . S
C846 H836 0.930 . S
C846 C844 1.419 . S
C846 C847 1.362 . S
C847 H837 0.930 . S
C847 C840 1.409 . S
C847 C846 1.362 . S
H848 C854 0.930 . S
H849 C857 0.930 1_554 S
H850 C858 0.930 . S
H851 C859 0.930 . S
H852 C862 0.930 . S
H853 C863 0.930 . S
C854 H848 0.930 . S
C854 C855 1.355 . S
C854 C856 1.415 . S
C855 C854 1.355 . S
C855 C857 1.419 . S
C856 C854 1.415 . S
C856 C861 1.425 . S
C856 C863 1.409 . S
C857 H849 0.930 1_556 S
C857 C855 1.419 . S
C857 C858 1.362 . S
C858 H850 0.930 . S
C858 C857 1.362 . S
C858 C861 1.409 . S
C859 H851 0.930 . S
C859 C860 1.355 . S
C859 C861 1.415 . S
C860 C859 1.355 . S
C860 C862 1.419 . S
C861 C856 1.425 . S
C861 C858 1.409 . S
C861 C859 1.415 . S
C862 H852 0.930 . S
C862 C860 1.419 . S
C862 C863 1.362 . S
C863 H853 0.930 . S
C863 C856 1.409 . S
C863 C862 1.362 . S
H864 C870 0.930 . S
H865 C873 0.930 . S
H866 C874 0.930 . S
H867 C875 0.930 . S
H868 C878 0.930 . S
H869 C879 0.930 . S
C870 H864 0.930 . S
C870 C871 1.355 . S
C870 C872 1.415 . S
C871 C870 1.355 . S
C871 C873 1.419 . S
C872 C870 1.415 . S
C872 C877 1.425 . S
C872 C879 1.409 . S
C873 H865 0.930 . S
C873 C871 1.419 . S
C873 C874 1.362 . S
C874 H866 0.930 . S
C874 C873 1.362 . S
C874 C877 1.409 . S
C875 H867 0.930 . S
C875 C876 1.355 . S
C875 C877 1.415 . S
C876 C875 1.355 . S
C876 C878 1.419 . S
C877 C872 1.425 . S
C877 C874 1.409 . S
C877 C875 1.415 . S
C878 H868 0.930 . S
C878 C876 1.419 . S
C878 C879 1.362 . S
C879 H869 0.930 . S
C879 C872 1.409 . S
C879 C878 1.362 . S
H880 C886 0.930 . S
H881 C889 0.930 . S
H882 C890 0.930 . S
H883 C891 0.930 . S
H884 C894 0.930 . S
H885 C895 0.930 . S
C886 H880 0.930 . S
C886 C887 1.355 . S
C886 C888 1.415 . S
C887 C886 1.355 . S
C887 C889 1.419 . S
C888 C886 1.415 . S
C888 C893 1.425 . S
C888 C895 1.409 . S
C889 H881 0.930 . S
C889 C887 1.419 . S
C889 C890 1.362 . S
C890 H882 0.930 . S
C890 C889 1.362 . S
C890 C893 1.409 . S
C891 H883 0.930 . S
C891 C892 1.355 . S
C891 C893 1.415 . S
C892 C891 1.355 . S
C892 C894 1.419 . S
C893 C888 1.425 . S
C893 C890 1.409 . S
C893 C891 1.415 . S
C894 H884 0.930 . S
C894 C892 1.419 . S
C894 C895 1.362 . S
C895 H885 0.930 . S
C895 C888 1.409 . S
C895 C894 1.362 . S
H896 C902 0.930 . S
H897 C905 0.930 . S
H898 C906 0.930 . S
H899 C907 0.930 . S
H900 C910 0.930 . S
H901 C911 0.930 . S
C902 H896 0.930 . S
C902 C903 1.355 . S
C902 C904 1.415 . S
C903 C902 1.355 . S
C903 C905 1.419 . S
C904 C902 1.415 . S
C904 C909 1.425 . S
C904 C911 1.409 . S
C905 H897 0.930 . S
C905 C903 1.419 . S
C905 C906 1.362 . S
C906 H898 0.930 . S
C906 C905 1.362 . S
C906 C909 1.409 . S
C907 H899 0.930 . S
C907 C908 1.355 . S
C907 C909 1.415 . S
C908 C907 1.355 . S
C908 C910 1.419 . S
C909 C904 1.425 . S
C909 C906 1.409 . S
C909 C907 1.415 . S
C910 H900 0.930 . S
C910 C908 1.419 . S
C910 C911 1.362 . S
C911 H901 0.930 . S
C911 C904 1.409 . S
C911 C910 1.362 . S
H912 C918 0.930 . S
H913 C921 0.930 . S
H914 C922 0.930 . S
H915 C923 0.930 . S
H916 C926 0.930 . S
H917 C927 0.930 . S
C918 H912 0.930 . S
C918 C919 1.355 . S
C918 C920 1.415 . S
C919 C918 1.355 . S
C919 C921 1.419 . S
C920 C918 1.415 . S
C920 C925 1.425 . S
C920 C927 1.409 . S
C921 H913 0.930 . S
C921 C919 1.419 . S
C921 C922 1.362 . S
C922 H914 0.930 . S
C922 C921 1.362 . S
C922 C925 1.409 . S
C923 H915 0.930 . S
C923 C924 1.355 . S
C923 C925 1.415 . S
C924 C923 1.355 . S
C924 C926 1.419 . S
C925 C920 1.425 . S
C925 C922 1.409 . S
C925 C923 1.415 . S
C926 H916 0.930 . S
C926 C924 1.419 . S
C926 C927 1.362 . S
C927 H917 0.930 . S
C927 C920 1.409 . S
C927 C926 1.362 . S
H928 C934 0.930 . S
H929 C937 0.930 . S
H930 C938 0.930 . S
H931 C939 0.930 . S
H932 C942 0.930 . S
H933 C943 0.930 . S
C934 H928 0.930 . S
C934 C935 1.355 . S
C934 C936 1.415 . S
C935 C934 1.355 . S
C935 C937 1.419 . S
C936 C934 1.415 . S
C936 C941 1.425 . S
C936 C943 1.409 . S
C937 H929 0.930 . S
C937 C935 1.419 . S
C937 C938 1.362 . S
C938 H930 0.930 . S
C938 C937 1.362 . S
C938 C941 1.409 . S
C939 H931 0.930 . S
C939 C940 1.355 . S
C939 C941 1.415 . S
C940 C939 1.355 . S
C940 C942 1.419 . S
C941 C936 1.425 . S
C941 C938 1.409 . S
C941 C939 1.415 . S
C942 H932 0.930 . S
C942 C940 1.419 . S
C942 C943 1.362 . S
C943 H933 0.930 . S
C943 C936 1.409 . S
C943 C942 1.362 . S
H944 C950 0.930 . S
H945 C953 0.930 . S
H946 C954 0.930 . S
H947 C955 0.930 . S
H948 C958 0.930 . S
H949 C959 0.930 . S
C950 H944 0.930 . S
C950 C951 1.355 . S
C950 C952 1.415 . S
C951 C950 1.355 . S
C951 C953 1.419 . S
C952 C950 1.415 . S
C952 C957 1.425 . S
C952 C959 1.409 . S
C953 H945 0.930 . S
C953 C951 1.419 . S
C953 C954 1.362 . S
C954 H946 0.930 . S
C954 C953 1.362 . S
C954 C957 1.409 . S
C955 H947 0.930 . S
C955 C956 1.355 . S
C955 C957 1.415 . S
C956 C955 1.355 . S
C956 C958 1.419 . S
C957 C952 1.425 . S
C957 C954 1.409 . S
C957 C955 1.415 . S
C958 H948 0.930 . S
C958 C956 1.419 . S
C958 C959 1.362 . S
C959 H949 0.930 . S
C959 C952 1.409 . S
C959 C958 1.362 . S
H960 C966 0.930 . S
H961 C969 0.930 . S
H962 C970 0.930 . S
H963 C971 0.930 . S
H964 C974 0.930 . S
H965 C975 0.930 . S
C966 H960 0.930 . S
C966 C967 1.355 . S
C966 C968 1.415 . S
C967 C966 1.355 . S
C967 C969 1.419 . S
C968 C966 1.415 . S
C968 C973 1.425 . S
C968 C975 1.409 . S
C969 H961 0.930 . S
C969 C967 1.419 . S
C969 C970 1.362 . S
C970 H962 0.930 . S
C970 C969 1.362 . S
C970 C973 1.409 . S
C971 H963 0.930 . S
C971 C972 1.355 . S
C971 C973 1.415 . S
C972 C971 1.355 . S
C972 C974 1.419 . S
C973 C968 1.425 . S
C973 C970 1.409 . S
C973 C971 1.415 . S
C974 H964 0.930 . S
C974 C972 1.419 . S
C974 C975 1.362 . S
C975 H965 0.930 . S
C975 C968 1.409 . S
C975 C974 1.362 . S
H976 C982 0.930 . S
H977 C985 0.930 . S
H978 C986 0.930 . S
H979 C987 0.930 . S
H980 C990 0.930 . S
H981 C991 0.930 . S
C982 H976 0.930 . S
C982 C983 1.355 . S
C982 C984 1.415 . S
C983 C982 1.355 . S
C983 C985 1.419 . S
C984 C982 1.415 . S
C984 C989 1.425 . S
C984 C991 1.409 . S
C985 H977 0.930 . S
C985 C983 1.419 . S
C985 C986 1.362 . S
C986 H978 0.930 . S
C986 C985 1.362 . S
C986 C989 1.409 . S
C987 H979 0.930 . S
C987 C988 1.355 . S
C987 C989 1.415 . S
C988 C987 1.355 . S
C988 C990 1.419 . S
C989 C984 1.425 . S
C989 C986 1.409 . S
C989 C987 1.415 . S
C990 H980 0.930 . S
C990 C988 1.419 . S
C990 C991 1.362 . S
C991 H981 0.930 . S
C991 C984 1.409 . S
C991 C990 1.362 . S
H992 C998 0.930 . S
H993 C1001 0.930 . S
H994 C1002 0.930 . S
H995 C1003 0.930 . S
H996 C1006 0.930 . S
H997 C1007 0.930 . S
C998 H992 0.930 . S
C998 C999 1.355 . S
C998 C1000 1.415 . S
C999 C998 1.355 . S
C999 C1001 1.419 . S
C1000 C998 1.415 . S
C1000 C1005 1.425 . S
C1000 C1007 1.409 . S
C1001 H993 0.930 . S
C1001 C999 1.419 . S
C1001 C1002 1.362 . S
C1002 H994 0.930 . S
C1002 C1001 1.362 . S
C1002 C1005 1.409 . S
C1003 H995 0.930 . S
C1003 C1004 1.355 . S
C1003 C1005 1.415 . S
C1004 C1003 1.355 . S
C1004 C1006 1.419 . S
C1005 C1000 1.425 . S
C1005 C1002 1.409 . S
C1005 C1003 1.415 . S
C1006 H996 0.930 . S
C1006 C1004 1.419 . S
C1006 C1007 1.362 . S
C1007 H997 0.930 . S
C1007 C1000 1.409 . S
C1007 C1006 1.362 . S
H1008 C1014 0.930 . S
H1009 C1017 0.930 . S
H1010 C1018 0.930 . S
H1011 C1019 0.930 . S
H1012 C1022 0.930 . S
H1013 C1023 0.930 . S
C1014 H1008 0.930 . S
C1014 C1015 1.355 . S
C1014 C1016 1.415 . S
C1015 C1014 1.355 . S
C1015 C1017 1.419 . S
C1016 C1014 1.415 . S
C1016 C1021 1.425 . S
C1016 C1023 1.409 . S
C1017 H1009 0.930 . S
C1017 C1015 1.419 . S
C1017 C1018 1.362 . S
C1018 H1010 0.930 . S
C1018 C1017 1.362 . S
C1018 C1021 1.409 . S
C1019 H1011 0.930 . S
C1019 C1020 1.355 . S
C1019 C1021 1.415 . S
C1020 C1019 1.355 . S
C1020 C1022 1.419 . S
C1021 C1016 1.425 . S
C1021 C1018 1.409 . S
C1021 C1019 1.415 . S
C1022 H1012 0.930 . S
C1022 C1020 1.419 . S
C1022 C1023 1.362 . S
C1023 H1013 0.930 . S
C1023 C1016 1.409 . S
C1023 C1022 1.362 . S
H1024 C1030 0.930 . S
H1025 C1033 0.930 . S
H1026 C1034 0.930 . S
H1027 C1035 0.930 . S
H1028 C1038 0.930 . S
H1029 C1039 0.930 . S
C1030 H1024 0.930 . S
C1030 C1031 1.355 . S
C1030 C1032 1.415 . S
C1031 C1030 1.355 . S
C1031 C1033 1.419 . S
C1032 C1030 1.415 . S
C1032 C1037 1.425 . S
C1032 C1039 1.409 . S
C1033 H1025 0.930 . S
C1033 C1031 1.419 . S
C1033 C1034 1.362 . S
C1034 H1026 0.930 . S
C1034 C1033 1.362 . S
C1034 C1037 1.409 . S
C1035 H1027 0.930 . S
C1035 C1036 1.355 . S
C1035 C1037 1.415 . S
C1036 C1035 1.355 . S
C1036 C1038 1.419 . S
C1037 C1032 1.425 . S
C1037 C1034 1.409 . S
C1037 C1035 1.415 . S
C1038 H1028 0.930 . S
C1038 C1036 1.419 . S
C1038 C1039 1.362 . S
C1039 H1029 0.930 . S
C1039 C1032 1.409 . S
C1039 C1038 1.362 . S
H1040 C1046 0.930 . S
H1041 C1049 0.930 . S
H1042 C1050 0.930 . S
H1043 C1051 0.930 . S
H1044 C1054 0.930 . S
H1045 C1055 0.930 . S
C1046 H1040 0.930 . S
C1046 C1047 1.355 . S
C1046 C1048 1.415 . S
C1047 C1046 1.355 . S
C1047 C1049 1.419 . S
C1048 C1046 1.415 . S
C1048 C1053 1.425 . S
C1048 C1055 1.409 . S
C1049 H1041 0.930 . S
C1049 C1047 1.419 . S
C1049 C1050 1.362 . S
C1050 H1042 0.930 . S
C1050 C1049 1.362 . S
C1050 C1053 1.409 . S
C1051 H1043 0.930 . S
C1051 C1052 1.355 . S
C1051 C1053 1.415 . S
C1052 C1051 1.355 . S
C1052 C1054 1.419 . S
C1053 C1048 1.425 . S
C1053 C1050 1.409 . S
C1053 C1051 1.415 . S
C1054 H1044 0.930 . S
C1054 C1052 1.419 . S
C1054 C1055 1.362 . S
C1055 H1045 0.930 . S
C1055 C1048 1.409 . S
C1055 C1054 1.362 . S
H1056 C1062 0.930 . S
H1057 C1065 0.930 . S
H1058 C1066 0.930 . S
H1059 C1067 0.930 . S
H1060 C1070 0.930 . S
H1061 C1071 0.930 . S
C1062 H1056 0.930 . S
C1062 C1063 1.355 . S
C1062 C1064 1.415 . S
C1063 C1062 1.355 . S
C1063 C1065 1.419 . S
C1064 C1062 1.415 . S
C1064 C1069 1.425 . S
C1064 C1071 1.409 . S
C1065 H1057 0.930 . S
C1065 C1063 1.419 . S
C1065 C1066 1.362 . S
C1066 H1058 0.930 . S
C1066 C1065 1.362 . S
C1066 C1069 1.409 . S
C1067 H1059 0.930 . S
C1067 C1068 1.355 . S
C1067 C1069 1.415 . S
C1068 C1067 1.355 . S
C1068 C1070 1.419 . S
C1069 C1064 1.425 . S
C1069 C1066 1.409 . S
C1069 C1067 1.415 . S
C1070 H1060 0.930 . S
C1070 C1068 1.419 . S
C1070 C1071 1.362 . S
C1071 H1061 0.930 . S
C1071 C1064 1.409 . S
C1071 C1070 1.362 . S
H1072 C1078 0.930 . S
H1073 C1081 0.930 . S
H1074 C1082 0.930 . S
H1075 C1083 0.930 . S
H1076 C1086 0.930 . S
H1077 C1087 0.930 . S
C1078 H1072 0.930 . S
C1078 C1079 1.355 . S
C1078 C1080 1.415 . S
C1079 C1078 1.355 . S
C1079 C1081 1.419 . S
C1080 C1078 1.415 . S
C1080 C1085 1.425 . S
C1080 C1087 1.409 . S
C1081 H1073 0.930 . S
C1081 C1079 1.419 . S
C1081 C1082 1.362 . S
C1082 H1074 0.930 . S
C1082 C1081 1.362 . S
C1082 C1085 1.409 . S
C1083 H1075 0.930 . S
C1083 C1084 1.355 . S
C1083 C1085 1.415 . S
C1084 C1083 1.355 . S
C1084 C1086 1.419 . S
C1085 C1080 1.425 . S
C1085 C1082 1.409 . S
C1085 C1083 1.415 . S
C1086 H1076 0.930 . S
C1086 C1084 1.419 . S
C1086 C1087 1.362 . S
C1087 H1077 0.930 . S
C1087 C1080 1.409 . S
C1087 C1086 1.362 . S
H1088 C1094 0.930 . S
H1089 C1097 0.930 . S
H1090 C1098 0.930 . S
H1091 C1099 0.930 . S
H1092 C1102 0.930 . S
H1093 C1103 0.930 . S
C1094 H1088 0.930 . S
C1094 C1095 1.355 . S
C1094 C1096 1.415 . S
C1095 C1094 1.355 . S
C1095 C1097 1.419 . S
C1096 C1094 1.415 . S
C1096 C1101 1.425 . S
C1096 C1103 1.409 . S
C1097 H1089 0.930 . S
C1097 C1095 1.419 . S
C1097 C1098 1.362 . S
C1098 H1090 0.930 . S
C1098 C1097 1.362 . S
C1098 C1101 1.409 . S
C1099 H1091 0.930 . S
C1099 C1100 1.355 . S
C1099 C1101 1.415 . S
C1100 C1099 1.355 . S
C1100 C1102 1.419 . S
C1101 C1096 1.425 . S
C1101 C1098 1.409 . S
C1101 C1099 1.415 . S
C1102 H1092 0.930 . S
C1102 C1100 1.419 . S
C1102 C1103 1.362 . S
C1103 H1093 0.930 . S
C1103 C1096 1.409 . S
C1103 C1102 1.362 . S
H1104 C1110 0.930 . S
H1105 C1113 0.930 . S
H1106 C1114 0.930 . S
H1107 C1115 0.930 . S
H1108 C1118 0.930 . S
H1109 C1119 0.930 . S
C1110 H1104 0.930 . S
C1110 C1111 1.355 . S
C1110 C1112 1.415 . S
C1111 C1110 1.355 . S
C1111 C1113 1.419 . S
C1112 C1110 1.415 . S
C1112 C1117 1.425 . S
C1112 C1119 1.409 . S
C1113 H1105 0.930 . S
C1113 C1111 1.419 . S
C1113 C1114 1.362 . S
C1114 H1106 0.930 . S
C1114 C1113 1.362 . S
C1114 C1117 1.409 . S
C1115 H1107 0.930 . S
C1115 C1116 1.355 . S
C1115 C1117 1.415 . S
C1116 C1115 1.355 . S
C1116 C1118 1.419 . S
C1117 C1112 1.425 . S
C1117 C1114 1.409 . S
C1117 C1115 1.415 . S
C1118 H1108 0.930 . S
C1118 C1116 1.419 . S
C1118 C1119 1.362 . S
C1119 H1109 0.930 . S
C1119 C1112 1.409 . S
C1119 C1118 1.362 . S
H1120 C1126 0.930 . S
H1121 C1129 0.930 . S
H1122 C1130 0.930 . S
H1123 C1131 0.930 . S
H1124 C1134 0.930 . S
H1125 C1135 0.930 . S
C1126 H1120 0.930 . S
C1126 C1127 1.355 . S
C1126 C1128 1.415 . S
C1127 C1126 1.355 . S
C1127 C1129 1.419 . S
C1128 C1126 1.415 . S
C1128 C1133 1.425 . S
C1128 C1135 1.409 . S
C1129 H1121 0.930 . S
C1129 C1127 1.419 . S
C1129 C1130 1.362 . S
C1130 H1122 0.930 . S
C1130 C1129 1.362 . S
C1130 C1133 1.409 . S
C1131 H1123 0.930 . S
C1131 C1132 1.355 . S
C1131 C1133 1.415 . S
C1132 C1131 1.355 . S
C1132 C1134 1.419 . S
C1133 C1128 1.425 . S
C1133 C1130 1.409 . S
C1133 C1131 1.415 . S
C1134 H1124 0.930 . S
C1134 C1132 1.419 . S
C1134 C1135 1.362 . S
C1135 H1125 0.930 . S
C1135 C1128 1.409 . S
C1135 C1134 1.362 . S
C636 C545 1.468 . S
C631 C53 1.479 . S
C647 C115 1.492 . S
C652 C577 1.469 . S
C663 C177 1.501 . S
C668 C600 1.501 . S
C684 C504 1.450 . S
C679 C239 1.508 1_565 S
C700 C587 1.482 . S
C695 C47 1.560 . S
C716 C616 1.571 . S
C711 C109 1.613 1_545 S
C732 C520 1.581 . S
C727 C171 1.599 . S
C748 C555 1.503 . S
C743 C233 1.555 . S
C759 C29 1.631 . S
C764 C583 1.583 . S
C775 C277 1.596 . S
C780 C558 1.516 . S
C791 C153 1.615 . S
C796 C526 1.564 . S
C812 C615 1.567 . S
C807 C339 1.588 1_545 S
C828 C559 1.469 . S
C823 C35 1.483 . S
C839 C283 1.505 1_565 S
C844 C527 1.457 . S
C855 C159 1.502 . S
C860 C614 1.503 . S
C876 C582 1.483 . S
C871 C345 1.490 . S
C887 C419 1.536 . S
C892 C609 1.662 . S
C903 C301 1.505 . S
C908 C513 1.457 . S
C919 C487 1.490 . S
C924 C536 1.434 . S
C935 C363 1.491 . S
C940 C568 1.476 . S
C956 C523 1.439 . S
C951 C425 1.521 . S
C967 C295 1.554 . S
C972 C552 1.529 . S
C983 C481 1.569 . S
C988 C584 1.500 . S
C1004 C619 1.564 . S
C999 C357 1.619 . S
C1015 C407 1.519 . S
C1020 C519 1.443 . S
C1031 C91 1.617 . S
C1036 C622 1.563 . S
C1047 C463 1.552 . S
C1052 C590 1.487 . S
C1068 C551 1.583 . S
C1063 C215 1.619 . S
C1084 C623 1.627 . S
C1079 C401 1.574 . S
C1100 C591 1.425 . S
C1095 C97 1.499 . S
C1116 C550 1.473 . S
C1111 C469 1.482 . S
C1132 C518 1.484 . S
C1127 C221 1.499 . S
