# Generated by pormake.
# Topology apo, (3,6)-cn, num edge types: 1
# Building blocks:
#     Node 0, Type 0, BuildingBlock: PAMTOO_clean_linker_0, # of connection points: 3
#     Node 1, Type 0, BuildingBlock: PAMTOO_clean_linker_0, # of connection points: 3
#     Node 2, Type 0, BuildingBlock: PAMTOO_clean_linker_0, # of connection points: 3
#     Node 3, Type 0, BuildingBlock: PAMTOO_clean_linker_0, # of connection points: 3
#     Node 4, Type 0, BuildingBlock: PAMTOO_clean_linker_0, # of connection points: 3
#     Node 5, Type 0, BuildingBlock: PAMTOO_clean_linker_0, # of connection points: 3
#     Node 6, Type 0, BuildingBlock: PAMTOO_clean_linker_0, # of connection points: 3
#     Node 7, Type 0, BuildingBlock: PAMTOO_clean_linker_0, # of connection points: 3
#     Node 8, Type 1, BuildingBlock: KUMBUR_clean_sbu_1, # of connection points: 6
#     Node 9, Type 1, BuildingBlock: KUMBUR_clean_sbu_1, # of connection points: 6
#     Node 10, Type 1, BuildingBlock: KUMBUR_clean_sbu_1, # of connection points: 6
#     Node 11, Type 1, BuildingBlock: KUMBUR_clean_sbu_1, # of connection points: 6
#     Edge 12, Type (0, 1), BuildingBlock: OJICUG_clean_linker_0, # of connection points: 2
#     Edge 13, Type (0, 1), BuildingBlock: OJICUG_clean_linker_0, # of connection points: 2
#     Edge 14, Type (0, 1), BuildingBlock: OJICUG_clean_linker_0, # of connection points: 2
#     Edge 15, Type (0, 1), BuildingBlock: OJICUG_clean_linker_0, # of connection points: 2
#     Edge 16, Type (0, 1), BuildingBlock: OJICUG_clean_linker_0, # of connection points: 2
#     Edge 17, Type (0, 1), BuildingBlock: OJICUG_clean_linker_0, # of connection points: 2
#     Edge 18, Type (0, 1), BuildingBlock: OJICUG_clean_linker_0, # of connection points: 2
#     Edge 19, Type (0, 1), BuildingBlock: OJICUG_clean_linker_0, # of connection points: 2
#     Edge 20, Type (0, 1), BuildingBlock: OJICUG_clean_linker_0, # of connection points: 2
#     Edge 21, Type (0, 1), BuildingBlock: OJICUG_clean_linker_0, # of connection points: 2
#     Edge 22, Type (0, 1), BuildingBlock: OJICUG_clean_linker_0, # of connection points: 2
#     Edge 23, Type (0, 1), BuildingBlock: OJICUG_clean_linker_0, # of connection points: 2
#     Edge 24, Type (0, 1), BuildingBlock: OJICUG_clean_linker_0, # of connection points: 2
#     Edge 25, Type (0, 1), BuildingBlock: OJICUG_clean_linker_0, # of connection points: 2
#     Edge 26, Type (0, 1), BuildingBlock: OJICUG_clean_linker_0, # of connection points: 2
#     Edge 27, Type (0, 1), BuildingBlock: OJICUG_clean_linker_0, # of connection points: 2
#     Edge 28, Type (0, 1), BuildingBlock: OJICUG_clean_linker_0, # of connection points: 2
#     Edge 29, Type (0, 1), BuildingBlock: OJICUG_clean_linker_0, # of connection points: 2
#     Edge 30, Type (0, 1), BuildingBlock: OJICUG_clean_linker_0, # of connection points: 2
#     Edge 31, Type (0, 1), BuildingBlock: OJICUG_clean_linker_0, # of connection points: 2
#     Edge 32, Type (0, 1), BuildingBlock: OJICUG_clean_linker_0, # of connection points: 2
#     Edge 33, Type (0, 1), BuildingBlock: OJICUG_clean_linker_0, # of connection points: 2
#     Edge 34, Type (0, 1), BuildingBlock: OJICUG_clean_linker_0, # of connection points: 2
#     Edge 35, Type (0, 1), BuildingBlock: OJICUG_clean_linker_0, # of connection points: 2
# Relax obj value: 0.038
# Max RMSD: 0.245
# Mean RMSD: 0.174
data_MOF--net-apo--node1-KUMBUR_clean_sbu_1--node2-PAMTOO_clean_linker_0--edge1-OJICUG_clean_linker_0
_symmetry_space_group_name_H-M    P1
_symmetry_Int_Tables_number       1
_symmetry_cell_setting            triclinic
loop_
_symmetry_equiv_pos_as_xyz
'x, y, z'
_cell_length_a     20.37854
_cell_length_b     30.532597
_cell_length_c     38.825772
_cell_angle_alpha  89.790248
_cell_angle_beta   89.943071
_cell_angle_gamma 90.500529
loop_
_atom_site_label
_atom_site_type_symbol
_atom_site_fract_x
_atom_site_fract_y
_atom_site_fract_z
_atom_type_partial_charge
H0 H 0.37828 0.44977 0.444 0.0
H1 H 0.28952 0.39803 0.35163 0.0
H2 H 0.25619 0.33342 0.44766 0.0
H3 H 0.29361 0.27717 0.38623 0.0
C4 C 0.26559 0.29554 0.36634 0.0
O5 O 0.23534 0.33081 0.38163 0.0
H6 H 0.30041 0.30741 0.34621 0.0
C7 C 0.34718 0.42583 0.43134 0.0
C8 C 0.31827 0.39152 0.45085 0.0
C9 C 0.33793 0.42834 0.39528 0.0
C10 C 0.2985 0.39653 0.37911 0.0
C11 C 0.27057 0.36216 0.39798 0.0
C12 C 0.27987 0.35987 0.43358 0.0
H13 H 0.18517 0.04815 0.93796 0.0
H14 H 0.29625 0.16796 0.95027 0.0
H15 H 0.24407 0.12331 0.84901 0.0
H16 H 0.38259 0.15427 0.86146 0.0
C17 C 0.37143 0.18405 0.87681 0.0
O18 O 0.30495 0.18488 0.88395 0.0
H19 H 0.39925 0.18236 0.9014 0.0
C20 C 0.21004 0.07647 0.92696 0.0
C21 C 0.21062 0.0822 0.89106 0.0
C22 C 0.24117 0.10699 0.9487 0.0
C23 C 0.27189 0.1441 0.93398 0.0
C24 C 0.27352 0.14978 0.89804 0.0
C25 C 0.24306 0.1187 0.8767 0.0
H26 H 0.88405 0.06782 0.60889 0.0
H27 H 0.79654 0.13668 0.69404 0.0
H28 H 0.77527 0.18599 0.59145 0.0
H29 H 0.79591 0.25611 0.64226 0.0
C30 C 0.77791 0.23862 0.66567 0.0
O31 O 0.74908 0.19946 0.6562 0.0
H32 H 0.82069 0.23258 0.68281 0.0
C33 C 0.85524 0.09461 0.61883 0.0
C34 C 0.83072 0.126 0.59566 0.0
C35 C 0.84327 0.09769 0.65454 0.0
C36 C 0.80768 0.13366 0.66688 0.0
C37 C 0.78448 0.16563 0.64412 0.0
C38 C 0.79565 0.1617 0.60872 0.0
H39 H 0.65043 0.463 0.11753 0.0
H40 H 0.76414 0.34702 0.09989 0.0
H41 H 0.74114 0.3953 0.20246 0.0
H42 H 0.87287 0.37012 0.18036 0.0
C43 C 0.85996 0.33935 0.16651 0.0
O44 O 0.79275 0.33455 0.16452 0.0
H45 H 0.88111 0.34152 0.14012 0.0
C46 C 0.68011 0.43646 0.12733 0.0
C47 C 0.69262 0.43336 0.16295 0.0
C48 C 0.70584 0.40576 0.10412 0.0
C49 C 0.74241 0.37063 0.11716 0.0
C50 C 0.75454 0.36702 0.15251 0.0
C51 C 0.72957 0.39807 0.17531 0.0
H52 H 0.67532 0.55345 0.60129 0.0
H53 H 0.79716 0.66889 0.59012 0.0
H54 H 0.7444 0.62245 0.69096 0.0
H55 H 0.73487 0.71944 0.67668 0.0
C56 C 0.78142 0.72352 0.66192 0.0
O57 O 0.80888 0.68295 0.65637 0.0
H58 H 0.77012 0.73903 0.63667 0.0
C59 C 0.7027 0.5804 0.61259 0.0
C60 C 0.70533 0.58461 0.64859 0.0
C61 C 0.73574 0.61068 0.59117 0.0
C62 C 0.7711 0.64543 0.60621 0.0
C63 C 0.77408 0.6497 0.64211 0.0
C64 C 0.74154 0.61916 0.66321 0.0
H65 H 0.88669 0.94611 0.10849 0.0
H66 H 0.79356 0.89794 0.20117 0.0
H67 H 0.76295 0.83084 0.10621 0.0
H68 H 0.64956 0.83537 0.1492 0.0
C69 C 0.67209 0.83291 0.17522 0.0
O70 O 0.73944 0.82995 0.17204 0.0
H71 H 0.65988 0.86284 0.1901 0.0
C72 C 0.85455 0.9229 0.12142 0.0
C73 C 0.82575 0.88852 0.10242 0.0
C74 C 0.84336 0.92704 0.15712 0.0
C75 C 0.80375 0.89549 0.17386 0.0
C76 C 0.77589 0.86072 0.15547 0.0
C77 C 0.78661 0.85739 0.11998 0.0
H78 H 0.11259 0.94566 0.42648 0.0
H79 H 0.21749 0.82521 0.44113 0.0
H80 H 0.22745 0.89112 0.34388 0.0
H81 H 0.19845 0.79793 0.34199 0.0
C82 C 0.23291 0.78661 0.36236 0.0
O83 O 0.26216 0.822 0.37826 0.0
H84 H 0.20402 0.76729 0.38155 0.0
C85 C 0.14498 0.92067 0.41666 0.0
C86 C 0.16781 0.92321 0.38236 0.0
C87 C 0.16329 0.88581 0.43837 0.0
C88 C 0.20413 0.85301 0.42527 0.0
C89 C 0.22601 0.85488 0.39117 0.0
C90 C 0.20885 0.89006 0.37002 0.0
H91 H 0.39516 0.57998 0.93604 0.0
H92 H 0.31317 0.63463 0.84236 0.0
H93 H 0.29532 0.70301 0.93751 0.0
H94 H 0.17355 0.69622 0.8987 0.0
C95 C 0.19317 0.69723 0.87194 0.0
O96 O 0.26071 0.7012 0.87271 0.0
H97 H 0.1789 0.66592 0.85924 0.0
C98 C 0.36944 0.60529 0.92209 0.0
C99 C 0.34842 0.6422 0.9405 0.0
C100 C 0.35841 0.6017 0.88614 0.0
C101 C 0.32237 0.63521 0.86977 0.0
C102 C 0.29821 0.67076 0.88847 0.0
C103 C 0.3127 0.67474 0.92348 0.0
Tb104 Tb 0.08631 0.12157 0.2259 0.0
C105 C 0.81191 0.09935 0.27313 0.0
N106 N 0.84981 0.13614 0.27558 0.0
C107 C 0.76425 0.17788 0.2488 0.0
C108 C 0.75023 0.09994 0.25673 0.0
C109 C 0.82456 0.17566 0.26587 0.0
C110 C 0.72751 0.13969 0.24354 0.0
C111 C 0.79413 0.02332 0.28938 0.0
C112 C 0.83305 0.06162 0.2893 0.0
C113 C 0.7341 0.02309 0.27164 0.0
C114 C 0.71221 0.06133 0.25531 0.0
Tb115 Tb 0.94935 0.12737 0.30259 0.0
N116 N 0.89197 0.06292 0.30561 0.0
C117 C 0.81628 0.98682 0.30783 0.0
C118 C 0.91233 0.02832 0.32518 0.0
C119 C 0.87519 0.98956 0.32621 0.0
H120 H 0.84968 0.20588 0.27192 0.0
H121 H 0.89204 0.96183 0.3411 0.0
H122 H 0.20558 0.06402 0.26056 0.0
H123 H 0.08802 0.28227 0.16615 0.0
H124 H 0.95784 0.0305 0.33937 0.0
H125 H 0.78773 0.95674 0.3086 0.0
H126 H 0.04646 0.20744 0.17652 0.0
H127 H 0.7455 0.20919 0.24037 0.0
H128 H 0.70361 0.99385 0.27105 0.0
H129 H 0.66497 0.06105 0.24253 0.0
H130 H 0.31934 0.07677 0.28037 0.0
H131 H 0.68037 0.1416 0.23076 0.0
H132 H 0.19477 0.30547 0.19075 0.0
N133 N 0.19232 0.12973 0.24379 0.0
C134 C 0.2207 0.16956 0.23854 0.0
C135 C 0.29194 0.10326 0.26887 0.0
C136 C 0.28529 0.17846 0.24948 0.0
C137 C 0.22738 0.0962 0.2578 0.0
C138 C 0.32081 0.14471 0.26505 0.0
N139 N 0.12307 0.19042 0.21107 0.0
C140 C 0.09045 0.21809 0.18945 0.0
C141 C 0.21181 0.24302 0.21564 0.0
C142 C 0.18425 0.20131 0.22218 0.0
C143 C 0.17544 0.27305 0.19639 0.0
C144 C 0.11504 0.26016 0.18261 0.0
H145 H 0.37068 0.15015 0.2738 0.0
H146 H 0.36151 0.22822 0.25289 0.0
H147 H 0.29722 0.28479 0.22302 0.0
O148 O 0.11016 0.12446 0.17334 0.0
O149 O 0.11431 0.14618 0.27688 0.0
O150 O 0.02339 0.1803 0.29964 0.0
O151 O 0.1161 0.0636 0.201 0.0
O152 O 0.99439 0.15751 0.21755 0.0
O153 O 0.96249 0.18581 0.27008 0.0
O154 O 0.96357 0.12032 0.35627 0.0
O155 O 0.95575 0.07109 0.26748 0.0
O156 O 0.98352 0.10463 0.21742 0.0
O157 O 0.88572 0.15955 0.33656 0.0
O158 O 0.04133 0.0941 0.31426 0.0
O159 O 0.08242 0.06561 0.26258 0.0
C160 C 0.08737 0.17735 0.29515 0.0
C161 C 0.18632 0.07404 0.15195 0.0
C162 C 0.24292 0.07395 0.09623 0.0
C163 C 0.29708 0.05403 0.11206 0.0
C164 C 0.24108 0.05438 0.16725 0.0
C165 C 0.29618 0.0446 0.14735 0.0
C166 C 0.18783 0.08408 0.1165 0.0
C167 C 0.96864 0.18882 0.23638 0.0
C168 C 0.12618 0.08356 0.1717 0.0
C169 C 0.31214 0.22052 0.24437 0.0
C170 C 0.27543 0.25277 0.22748 0.0
C171 C 0.95515 0.07228 0.2338 0.0
C172 C 0.86494 0.12146 0.3884 0.0
C173 C 0.83118 0.10485 0.44755 0.0
C174 C 0.77649 0.08179 0.43465 0.0
C175 C 0.80899 0.09918 0.37633 0.0
C176 C 0.8756 0.12453 0.42414 0.0
C177 C 0.76555 0.0791 0.39929 0.0
C178 C 0.07506 0.06489 0.29666 0.0
C179 C 0.91133 0.1423 0.36395 0.0
H180 H 0.34029 0.04601 0.09718 0.0
H181 H 0.24119 0.04627 0.19441 0.0
H182 H 0.33826 0.02938 0.15927 0.0
H183 H 0.14531 0.09884 0.10451 0.0
H184 H 0.74104 0.06681 0.45195 0.0
H185 H 0.79815 0.09777 0.34918 0.0
H186 H 0.91823 0.14217 0.43365 0.0
H187 H 0.72268 0.06194 0.38966 0.0
Tb188 Tb 0.45494 0.39441 0.74088 0.0
C189 C 0.7512 0.42269 0.78869 0.0
N190 N 0.71252 0.38677 0.79363 0.0
C191 C 0.80308 0.34011 0.78017 0.0
C192 C 0.8175 0.41878 0.77896 0.0
C193 C 0.73772 0.34572 0.79015 0.0
C194 C 0.84311 0.3768 0.77439 0.0
C195 C 0.76258 0.5018 0.78967 0.0
C196 C 0.72417 0.46358 0.79384 0.0
C197 C 0.82861 0.4982 0.77973 0.0
C198 C 0.85598 0.45678 0.77432 0.0
Tb199 Tb 0.60597 0.39983 0.80846 0.0
N200 N 0.6596 0.46567 0.80259 0.0
C201 C 0.73333 0.54239 0.79556 0.0
C202 C 0.63149 0.50508 0.8095 0.0
C203 C 0.66763 0.54398 0.80575 0.0
H204 H 0.70771 0.31729 0.7958 0.0
H205 H 0.64477 0.57519 0.81077 0.0
H206 H 0.32877 0.43972 0.7798 0.0
H207 H 0.49007 0.22962 0.69203 0.0
H208 H 0.5812 0.50677 0.81752 0.0
H209 H 0.7611 0.57259 0.79259 0.0
H210 H 0.51236 0.30836 0.69549 0.0
H211 H 0.82267 0.3075 0.77724 0.0
H212 H 0.85893 0.5272 0.77621 0.0
H213 H 0.90703 0.45448 0.76677 0.0
H214 H 0.22354 0.41571 0.80569 0.0
H215 H 0.89381 0.37236 0.76684 0.0
H216 H 0.39466 0.19743 0.72264 0.0
N217 N 0.35588 0.37584 0.76436 0.0
C218 C 0.3384 0.33286 0.76262 0.0
C219 C 0.25552 0.39204 0.79376 0.0
C220 C 0.27896 0.31758 0.77704 0.0
C221 C 0.31521 0.40558 0.77924 0.0
C222 C 0.23743 0.34781 0.79282 0.0
N223 N 0.4377 0.32053 0.73283 0.0
C224 C 0.47389 0.29474 0.71137 0.0
C225 C 0.36433 0.25942 0.74402 0.0
C226 C 0.3811 0.3042 0.74673 0.0
C227 C 0.40576 0.23202 0.72537 0.0
C228 C 0.45992 0.25 0.70829 0.0
H229 H 0.19131 0.33739 0.80423 0.0
H230 H 0.21807 0.26029 0.78669 0.0
H231 H 0.29257 0.20937 0.7575 0.0
O232 O 0.457 0.39361 0.68664 0.0
O233 O 0.44419 0.36874 0.79409 0.0
O234 O 0.54496 0.34061 0.80699 0.0
O235 O 0.37779 0.42406 0.71328 0.0
O236 O 0.55272 0.37043 0.72578 0.0
O237 O 0.59568 0.34225 0.77584 0.0
O238 O 0.58606 0.41527 0.8603 0.0
O239 O 0.61797 0.435 0.75913 0.0
O240 O 0.51499 0.45422 0.73938 0.0
O241 O 0.66429 0.3718 0.84727 0.0
O242 O 0.5155 0.43481 0.82174 0.0
O243 O 0.45358 0.45345 0.77321 0.0
C244 C 0.48063 0.33874 0.80879 0.0
C245 C 0.35426 0.3911 0.6592 0.0
C246 C 0.32104 0.37511 0.59989 0.0
C247 C 0.27176 0.34695 0.61274 0.0
C248 C 0.3042 0.36315 0.67128 0.0
C249 C 0.26328 0.34127 0.64815 0.0
C250 C 0.36204 0.39741 0.62338 0.0
C251 C 0.5939 0.34462 0.74211 0.0
C252 C 0.40039 0.4123 0.68345 0.0
C253 C 0.26326 0.27277 0.77549 0.0
C254 C 0.30586 0.24375 0.75903 0.0
C255 C 0.57933 0.45784 0.73879 0.0
C256 C 0.67879 0.41528 0.8968 0.0
C257 C 0.7095 0.43112 0.95636 0.0
C258 C 0.76153 0.45753 0.94415 0.0
C259 C 0.73147 0.4414 0.88541 0.0
C260 C 0.66807 0.41004 0.93239 0.0
C261 C 0.77231 0.46254 0.90892 0.0
C262 C 0.47159 0.45911 0.80572 0.0
C263 C 0.6355 0.3929 0.87192 0.0
H264 H 0.23927 0.32961 0.59531 0.0
H265 H 0.29671 0.35807 0.69853 0.0
H266 H 0.22493 0.31968 0.65771 0.0
H267 H 0.40081 0.41876 0.61383 0.0
H268 H 0.79489 0.47357 0.96187 0.0
H269 H 0.74173 0.44511 0.85844 0.0
H270 H 0.62754 0.38976 0.94134 0.0
H271 H 0.81293 0.48252 0.89979 0.0
Tb272 Tb 0.07987 0.90104 0.73399 0.0
C273 C 0.79807 0.87077 0.78855 0.0
N274 N 0.83298 0.90888 0.79008 0.0
C275 C 0.73893 0.94879 0.77084 0.0
C276 C 0.73215 0.87013 0.77767 0.0
C277 C 0.80427 0.94777 0.78181 0.0
C278 C 0.70276 0.9098 0.76864 0.0
C279 C 0.7948 0.79197 0.79666 0.0
C280 C 0.82918 0.83217 0.79773 0.0
C281 C 0.72923 0.79105 0.78551 0.0
C282 C 0.69799 0.83003 0.77604 0.0
Tb283 Tb 0.93964 0.90294 0.80732 0.0
N284 N 0.89324 0.83428 0.80768 0.0
C285 C 0.8272 0.75401 0.80716 0.0
C286 C 0.92341 0.7978 0.82014 0.0
C287 C 0.89146 0.75707 0.81943 0.0
H288 H 0.83128 0.97819 0.78413 0.0
H289 H 0.91609 0.72815 0.82885 0.0
H290 H 0.17784 0.81539 0.7432 0.0
H291 H 0.12661 0.0755 0.73177 0.0
H292 H 0.97122 0.79982 0.83163 0.0
H293 H 0.80255 0.72243 0.80674 0.0
H294 H 0.0581 0.00887 0.72849 0.0
H295 H 0.71642 0.97967 0.76423 0.0
H296 H 0.70211 0.76042 0.78432 0.0
H297 H 0.64735 0.82881 0.76759 0.0
H298 H 0.29559 0.80276 0.75385 0.0
H299 H 0.65218 0.91073 0.76011 0.0
H300 H 0.24625 0.06951 0.7413 0.0
N301 N 0.18727 0.88477 0.74339 0.0
C302 C 0.22885 0.91973 0.74494 0.0
C303 C 0.27738 0.83585 0.75163 0.0
C304 C 0.29664 0.9141 0.7503 0.0
C305 C 0.21051 0.8431 0.74614 0.0
C306 C 0.32063 0.87149 0.75382 0.0
N307 N 0.13701 0.96547 0.73794 0.0
C308 C 0.10968 1.00572 0.7334 0.0
C309 C 0.24439 0.99862 0.74325 0.0
C310 C 0.2031 0.96143 0.74152 0.0
C311 C 0.21625 0.04009 0.74005 0.0
C312 C 0.14867 0.04361 0.73487 0.0
H313 H 0.37242 0.86575 0.758 0.0
H314 H 0.39034 0.9474 0.75615 0.0
H315 H 0.34459 0.02138 0.74997 0.0
O316 O 0.06682 0.92707 0.68443 0.0
O317 O 0.10543 0.93169 0.78403 0.0
O318 O 0.00796 0.95817 0.80522 0.0
O319 O 0.12585 0.86993 0.69204 0.0
O320 O 0.98676 0.93423 0.72432 0.0
O321 O 0.9491 0.9626 0.7758 0.0
O322 O 0.95389 0.89066 0.86025 0.0
O323 O 0.91719 0.87519 0.75635 0.0
O324 O 0.0119 0.84472 0.73501 0.0
O325 O 0.88091 0.93601 0.84345 0.0
O326 O 0.03224 0.868 0.81759 0.0
O327 O 0.07036 0.84193 0.76533 0.0
C328 C 0.07228 0.95658 0.80552 0.0
C329 C 0.06815 0.87613 0.63948 0.0
C330 C 0.06207 0.8654 0.57721 0.0
C331 C 0.00275 0.84216 0.58179 0.0
C332 C 0.00869 0.85327 0.64333 0.0
C333 C 0.97644 0.83608 0.61468 0.0
C334 C 0.09491 0.88202 0.60639 0.0
C335 C 0.95329 0.96321 0.74188 0.0
C336 C 0.1002 0.89633 0.6695 0.0
C337 C 0.33809 0.95106 0.75203 0.0
C338 C 0.31204 0.9932 0.74848 0.0
C339 C 0.94752 0.84569 0.73783 0.0
C340 C 0.85856 0.89561 0.89448 0.0
C341 C 0.82759 0.87723 0.95372 0.0
C342 C 0.77273 0.85414 0.94121 0.0
C343 C 0.80228 0.87343 0.88283 0.0
C344 C 0.8706 0.898 0.93018 0.0
C345 C 0.76001 0.85257 0.90599 0.0
C346 C 0.0677 0.8406 0.79919 0.0
C347 C 0.90548 0.91538 0.8697 0.0
H348 H 0.97684 0.82848 0.55993 0.0
H349 H 0.98683 0.84935 0.6684 0.0
H350 H 0.93059 0.81835 0.61797 0.0
H351 H 0.14017 0.90056 0.60332 0.0
H352 H 0.73877 0.83817 0.9588 0.0
H353 H 0.79053 0.87234 0.85591 0.0
H354 H 0.91346 0.9155 0.93957 0.0
H355 H 0.71699 0.83535 0.89661 0.0
Tb356 Tb 0.43813 0.61116 0.23603 0.0
C357 C 0.68797 0.69272 0.2992 0.0
N358 N 0.67115 0.65004 0.2946 0.0
C359 C 0.77694 0.63581 0.27022 0.0
C360 C 0.74939 0.70912 0.28825 0.0
C361 C 0.71512 0.62118 0.28126 0.0
C362 C 0.79396 0.68005 0.27342 0.0
C363 C 0.65811 0.76454 0.31984 0.0
C364 C 0.64282 0.71994 0.31464 0.0
C365 C 0.71853 0.78149 0.30812 0.0
C366 C 0.76413 0.75381 0.29241 0.0
Tb367 Tb 0.56941 0.62945 0.31325 0.0
N368 N 0.58498 0.70226 0.32566 0.0
C369 C 0.61295 0.79049 0.33741 0.0
C370 C 0.54319 0.72677 0.34512 0.0
C371 C 0.55575 0.77132 0.3506 0.0
H372 H 0.7027 0.58687 0.27913 0.0
H373 H 0.52179 0.79067 0.3655 0.0
H374 H 0.31215 0.6775 0.25432 0.0
H375 H 0.43794 0.43832 0.20892 0.0
H376 H 0.50087 0.71213 0.35737 0.0
H377 H 0.6228 0.82492 0.34194 0.0
H378 H 0.48191 0.51425 0.20768 0.0
H379 H 0.81143 0.61295 0.25929 0.0
H380 H 0.73092 0.81576 0.31163 0.0
H381 H 0.81082 0.76719 0.28387 0.0
H382 H 0.20246 0.67011 0.2803 0.0
H383 H 0.84173 0.69133 0.26469 0.0
H384 H 0.3306 0.42271 0.23661 0.0
N385 N 0.33255 0.60925 0.25666 0.0
C386 C 0.30569 0.56858 0.26045 0.0
C387 C 0.23147 0.64124 0.27551 0.0
C388 C 0.24179 0.56257 0.27368 0.0
C389 C 0.29465 0.64539 0.26168 0.0
C390 C 0.20539 0.59963 0.28223 0.0
N391 N 0.40166 0.54038 0.23562 0.0
C392 C 0.43541 0.50744 0.22003 0.0
C393 C 0.31367 0.49045 0.25012 0.0
C394 C 0.34076 0.533 0.24876 0.0
C395 C 0.34973 0.45593 0.23613 0.0
C396 C 0.41043 0.46459 0.22054 0.0
H397 H 0.15611 0.59648 0.29249 0.0
H398 H 0.16672 0.51469 0.2871 0.0
H399 H 0.22983 0.45147 0.26654 0.0
O400 O 0.46734 0.60549 0.18411 0.0
O401 O 0.45493 0.56068 0.27605 0.0
O402 O 0.47297 0.60139 0.32413 0.0
O403 O 0.36942 0.62394 0.19694 0.0
O404 O 0.53924 0.59102 0.22779 0.0
O405 O 0.58186 0.57053 0.28104 0.0
O406 O 0.59794 0.63881 0.36486 0.0
O407 O 0.58947 0.655 0.26119 0.0
O408 O 0.48927 0.67472 0.23896 0.0
O409 O 0.60998 0.57637 0.34032 0.0
O410 O 0.46877 0.65378 0.32052 0.0
O411 O 0.42678 0.67128 0.26658 0.0
C412 C 0.45048 0.56586 0.30952 0.0
C413 C 0.41334 0.65286 0.14558 0.0
C414 C 0.40365 0.67497 0.08499 0.0
C415 C 0.41244 0.71891 0.09528 0.0
C416 C 0.42276 0.69675 0.15493 0.0
C417 C 0.4224 0.72952 0.12985 0.0
C418 C 0.40437 0.64201 0.11066 0.0
C419 C 0.57715 0.56652 0.2472 0.0
C420 C 0.41121 0.61834 0.17215 0.0
C421 C 0.21547 0.52 0.27665 0.0
C422 C 0.25132 0.484 0.26484 0.0
C423 C 0.55259 0.68188 0.24335 0.0
C424 C 0.68106 0.59331 0.38725 0.0
C425 C 0.73743 0.59096 0.44278 0.0
C426 C 0.79419 0.57614 0.42607 0.0
C427 C 0.7384 0.57883 0.37096 0.0
C428 C 0.68119 0.59986 0.4231 0.0
C429 C 0.79472 0.57053 0.39034 0.0
C430 C 0.42973 0.67668 0.30027 0.0
C431 C 0.61912 0.59908 0.36826 0.0
H432 H 0.4105 0.74542 0.07674 0.0
H433 H 0.42954 0.7057 0.18165 0.0
H434 H 0.42908 0.7634 0.13729 0.0
H435 H 0.39825 0.60791 0.10366 0.0
H436 H 0.8382 0.56914 0.44065 0.0
H437 H 0.73942 0.57324 0.34347 0.0
H438 H 0.63675 0.61052 0.43585 0.0
H439 H 0.83873 0.55918 0.37768 0.0
C440 C 0.14231 1.00255 0.37266 0.0
C441 C 0.14815 0.96001 0.35942 0.0
H442 H 0.11548 0.06892 0.36305 0.0
C443 C 0.13408 0.95294 0.3243 0.0
H444 H 0.15425 0.00952 0.39926 0.0
C445 C 0.11302 0.9874 0.30324 0.0
C446 C 0.10485 0.02938 0.31703 0.0
H447 H 0.13736 0.92051 0.31328 0.0
H448 H 0.10061 0.98081 0.27663 0.0
C449 C 0.12059 0.03671 0.35179 0.0
C450 C 0.35833 0.55134 0.83382 0.0
C451 C 0.38591 0.56416 0.86568 0.0
H452 H 0.36495 0.51038 0.78931 0.0
C453 C 0.44158 0.54137 0.87727 0.0
H454 H 0.31471 0.56673 0.82384 0.0
C455 C 0.4678 0.50692 0.85824 0.0
C456 C 0.44123 0.495 0.82613 0.0
H457 H 0.46646 0.55037 0.90081 0.0
H458 H 0.51035 0.4904 0.86851 0.0
C459 C 0.38649 0.51804 0.81403 0.0
C460 C 0.70982 0.52125 0.68904 0.0
C461 C 0.67238 0.55199 0.67105 0.0
H462 H 0.70971 0.46618 0.72292 0.0
C463 C 0.60384 0.5514 0.67471 0.0
H464 H 0.76273 0.52088 0.68625 0.0
C465 C 0.57325 0.52092 0.69673 0.0
C466 C 0.61076 0.49019 0.7151 0.0
H467 H 0.57413 0.57487 0.66089 0.0
H468 H 0.52037 0.52159 0.69944 0.0
C469 C 0.67931 0.49028 0.71038 0.0
C470 C 0.87834 1.00625 0.16176 0.0
C471 C 0.87256 0.96434 0.1768 0.0
H472 H 0.90912 0.07308 0.16795 0.0
C473 C 0.8946 0.95848 0.21086 0.0
H474 H 0.86085 0.01234 0.13588 0.0
C475 C 0.92127 0.99355 0.22936 0.0
C476 C 0.92703 0.03523 0.21422 0.0
H477 H 0.8922 0.92663 0.22316 0.0
H478 H 0.93839 0.98782 0.25537 0.0
C479 C 0.90567 0.04119 0.18019 0.0
C480 C 0.86843 0.01896 0.66779 0.0
C481 C 0.86689 0.06289 0.67854 0.0
H482 H 0.89676 0.95331 0.67947 0.0
C483 C 0.88916 0.07305 0.712 0.0
H484 H 0.84978 0.00941 0.64279 0.0
C485 C 0.9144 0.04031 0.73354 0.0
C486 C 0.91886 0.99705 0.72179 0.0
H487 H 0.8892 0.10648 0.72117 0.0
H488 H 0.93317 0.04917 0.75869 0.0
C489 C 0.89473 0.98661 0.68897 0.0
C490 C 0.64486 0.45751 0.21981 0.0
C491 C 0.66921 0.46796 0.18675 0.0
H492 H 0.59727 0.48118 0.2655 0.0
C493 C 0.66989 0.51199 0.17609 0.0
H494 H 0.64341 0.4239 0.22879 0.0
C495 C 0.64307 0.54431 0.19686 0.0
C496 C 0.61609 0.53356 0.22906 0.0
H497 H 0.69013 0.5215 0.15134 0.0
H498 H 0.64185 0.5777 0.18733 0.0
C499 C 0.61878 0.4902 0.24092 0.0
C500 C 0.39493 0.45396 0.34116 0.0
C501 C 0.36938 0.46354 0.37401 0.0
H502 H 0.44123 0.47849 0.29537 0.0
C503 C 0.3722 0.50705 0.38564 0.0
H504 H 0.39495 0.42069 0.3316 0.0
C505 C 0.39875 0.5402 0.3647 0.0
C506 C 0.4229 0.53061 0.33163 0.0
H507 H 0.35248 0.51571 0.41059 0.0
H508 H 0.39939 0.57351 0.37421 0.0
C509 C 0.42132 0.48709 0.32026 0.0
C510 C 0.10718 0.04792 0.86935 0.0
C511 C 0.17588 0.05035 0.86881 0.0
H512 H 0.02068 0.01696 0.8496 0.0
C513 C 0.21092 0.02143 0.84783 0.0
H514 H 0.07929 0.06978 0.88556 0.0
C515 C 0.17758 0.99028 0.82782 0.0
C516 C 0.1085 0.98841 0.82757 0.0
H517 H 0.26407 0.0224 0.84744 0.0
H518 H 0.20608 0.96757 0.81279 0.0
C519 C 0.0738 0.01756 0.84876 0.0
C520 C 0.22479 0.13222 1.00985 0.0
C521 C 0.24265 0.09921 0.98658 0.0
H522 H 0.21005 0.14995 0.06279 0.0
C523 C 0.26124 0.05816 0.99968 0.0
H524 H 0.20996 0.16409 1.00049 0.0
C525 C 0.26203 0.05025 0.0352 0.0
C526 C 0.24324 0.08297 0.05849 0.0
H527 H 0.27566 0.03218 0.98239 0.0
H528 H 0.27634 0.01821 0.04445 0.0
C529 C 0.22444 0.12404 0.04544 0.0
C530 C 0.32716 0.42576 0.51014 0.0
C531 C 0.32717 0.38824 0.48908 0.0
H532 H 0.32574 0.45109 0.5618 0.0
C533 C 0.33182 0.34691 0.5051 0.0
H534 H 0.32335 0.45812 0.49886 0.0
C535 C 0.33214 0.34298 0.54097 0.0
C536 C 0.32901 0.38026 0.56195 0.0
H537 H 0.33402 0.31729 0.48991 0.0
H538 H 0.33372 0.31057 0.55238 0.0
C539 C 0.3284 0.4218 0.54622 0.0
C540 C 0.70732 0.45459 0.05206 0.0
C541 C 0.69935 0.41246 0.06628 0.0
H542 H 0.71542 0.49354 1.00635 0.0
C543 C 0.68937 0.37683 0.04393 0.0
H544 H 0.71581 0.48273 0.06842 0.0
C545 C 0.6898 0.38305 1.00817 0.0
C546 C 0.70058 0.42496 0.99406 0.0
H547 H 0.68235 0.34403 0.05407 0.0
H548 H 0.68436 0.35479 0.9916 0.0
C549 C 0.70783 0.46075 1.01643 0.0
C550 C 0.85171 0.15588 0.53596 0.0
C551 C 0.83807 0.12004 0.5578 0.0
H552 H 0.86094 0.1791 0.48394 0.0
C553 C 0.82773 0.07858 0.54302 0.0
H554 H 0.86062 0.18815 0.54656 0.0
C555 C 0.82829 0.0734 0.50729 0.0
C556 C 0.83936 0.1095 0.48541 0.0
H557 H 0.81658 0.05034 0.55901 0.0
H558 H 0.81851 0.04122 0.49672 0.0
C559 C 0.85261 0.15063 0.50013 0.0
C560 C 0.83688 0.84485 0.04768 0.0
C561 C 0.83455 0.88577 0.06423 0.0
H562 H 0.83682 0.8102 0.99974 0.0
C563 C 0.83711 0.92399 0.04373 0.0
H564 H 0.83684 0.81469 0.06243 0.0
C565 C 0.839 0.92125 1.00773 0.0
C566 C 0.83743 0.88031 0.99145 0.0
H567 H 0.83465 0.95611 0.05533 0.0
H568 H 0.83811 0.95112 0.9926 0.0
C569 C 0.83763 0.84218 1.01175 0.0
C570 C 0.71678 0.64046 0.53167 0.0
C571 C 0.73485 0.60546 0.55317 0.0
H572 H 0.70249 0.66301 0.47977 0.0
C573 C 0.75337 0.56563 0.53815 0.0
H574 H 0.70215 0.67146 0.54264 0.0
C575 C 0.75477 0.5611 0.5023 0.0
C576 C 0.73634 0.596 0.48079 0.0
H577 H 0.76788 0.53825 0.55416 0.0
H578 H 0.76965 0.53014 0.49134 0.0
C579 C 0.71678 0.6356 0.49581 0.0
C580 C 0.33786 0.62125 1.00292 0.0
C581 C 0.36569 0.64806 0.97727 0.0
H582 H 0.32625 0.60924 0.05697 0.0
C583 C 0.40832 0.68212 0.98692 0.0
H584 H 0.30453 0.59489 0.996 0.0
C585 C 0.42227 0.68977 0.02164 0.0
C586 C 0.39264 0.66418 0.04777 0.0
H587 H 0.43076 0.70297 0.96749 0.0
H588 H 0.45619 0.71601 0.02791 0.0
C589 C 0.35076 0.62941 0.03783 0.0
C590 C 0.07154 0.89008 0.48141 0.0
C591 C 0.13812 0.88266 0.47426 0.0
H592 H 0.9955 0.89063 0.5195 0.0
C593 C 0.18003 0.87086 0.50146 0.0
H594 H 0.03791 0.89885 0.46098 0.0
C595 C 0.15571 0.86607 0.535 0.0
C596 C 0.08883 0.87255 0.54199 0.0
H597 H 0.23169 0.86527 0.49679 0.0
H598 H 0.18896 0.8563 0.55532 0.0
C599 C 0.04715 0.88494 0.51486 0.0
C600 C 0.15421 0.27914 0.3389 0.0
C601 C 0.21668 0.26505 0.34947 0.0
H602 H 0.06373 0.26199 0.3138 0.0
C603 C 0.23599 0.22218 0.34178 0.0
H604 H 0.13845 0.31235 0.34363 0.0
C605 C 0.1936 0.19366 0.3245 0.0
C606 C 0.13105 0.2075 0.31422 0.0
H607 H 0.28428 0.21078 0.34902 0.0
H608 H 0.20978 0.16065 0.31931 0.0
C609 C 0.11147 0.25039 0.32179 0.0
C610 C 0.45559 0.22223 0.83999 0.0
C611 C 0.3949 0.22417 0.85706 0.0
H612 H 0.52965 0.25655 0.8113 0.0
C613 C 0.36165 0.26443 0.85787 0.0
H614 H 0.4828 0.19191 0.83942 0.0
C615 C 0.38862 0.30169 0.84165 0.0
C616 C 0.44971 0.29955 0.8249 0.0
H617 H 0.3154 0.26732 0.87137 0.0
H618 H 0.36249 0.33239 0.8429 0.0
C619 C 0.48265 0.25935 0.82415 0.0
C620 C 0.70507 0.30502 0.67076 0.0
C621 C 0.72881 0.26579 0.68484 0.0
H622 H 0.64366 0.36093 0.67807 0.0
C623 C 0.70601 0.25183 0.71721 0.0
H624 H 0.72158 0.31625 0.64569 0.0
C625 C 0.66116 0.27708 0.73553 0.0
C626 C 0.63881 0.31696 0.72195 0.0
H627 H 0.72318 0.22142 0.72833 0.0
H628 H 0.64412 0.26544 0.76039 0.0
C629 C 0.66038 0.33041 0.68918 0.0
C630 C 0.90994 0.30386 0.21897 0.0
C631 C 0.88803 0.30046 0.18481 0.0
H632 H 0.95343 0.27098 0.26201 0.0
C633 C 0.89069 0.25989 0.16808 0.0
H634 H 0.90745 0.33476 0.23251 0.0
C635 C 0.91629 0.22342 0.18497 0.0
C636 C 0.93977 0.227 0.21886 0.0
H637 H 0.87304 0.25653 0.1419 0.0
H638 H 0.9179 0.19244 0.17148 0.0
C639 C 0.93583 0.26743 0.23584 0.0
C640 C 0.80196 0.79458 0.69214 0.0
C641 C 0.82649 0.75392 0.68176 0.0
H642 H 0.82116 0.85565 0.71691 0.0
C643 C 0.89233 0.74383 0.68923 0.0
H644 H 0.75182 0.80347 0.68627 0.0
C645 C 0.93203 0.7736 0.70738 0.0
C646 C 0.9068 0.81401 0.71817 0.0
H647 H 0.91325 0.71304 0.68121 0.0
H648 H 0.98225 0.76489 0.71315 0.0
C649 C 0.84159 0.82431 0.70993 0.0
C650 C 0.67957 0.75552 0.20048 0.0
C651 C 0.64286 0.79336 0.19341 0.0
H652 H 0.6794 0.69046 0.22135 0.0
C653 C 0.57605 0.79372 0.20237 0.0
H654 H 0.7309 0.75363 0.19348 0.0
C655 C 0.54665 0.75745 0.21843 0.0
C656 C 0.58354 0.71998 0.22594 0.0
H657 H 0.5465 0.82222 0.19686 0.0
H658 H 0.49517 0.75892 0.22529 0.0
C659 C 0.65015 0.71929 0.21662 0.0
C660 C 0.30878 0.76833 0.31337 0.0
C661 C 0.28483 0.75868 0.34647 0.0
H662 H 0.37413 0.74985 0.27273 0.0
C663 C 0.31148 0.72361 0.36503 0.0
H664 H 0.28973 0.79587 0.29896 0.0
C665 C 0.35951 0.69741 0.35017 0.0
C666 C 0.38197 0.70609 0.31658 0.0
H667 H 0.29449 0.71617 0.39086 0.0
H668 H 0.37809 0.66985 0.36473 0.0
C669 C 0.3569 0.74215 0.29848 0.0
C670 C 0.15074 0.73215 0.81734 0.0
C671 C 0.16365 0.73525 0.85275 0.0
H672 H 0.10881 0.76247 0.77284 0.0
C673 C 0.14766 0.77396 0.87016 0.0
H674 H 0.16302 0.7027 0.80335 0.0
C675 C 0.1171 0.80839 0.8527 0.0
C676 C 0.10265 0.80494 0.8174 0.0
H677 H 0.15779 0.77721 0.89742 0.0
H678 H 0.10452 0.83762 0.8669 0.0
C679 C 0.12015 0.76651 0.79989 0.0
loop_
_geom_bond_atom_site_label_1
_geom_bond_atom_site_label_2
_geom_bond_distance
_geom_bond_site_symmetry_2
_ccdc_geom_bond_type
H0 C7 0.929 . S
H1 C10 0.930 . S
H2 C12 0.929 . S
H3 C4 0.969 . S
C4 H3 0.969 . S
C4 O5 1.550 . S
C4 H6 0.973 . S
O5 C4 1.550 . S
O5 C11 1.412 . S
H6 C4 0.973 . S
C7 H0 0.929 . S
C7 C8 1.400 . S
C7 C9 1.364 . S
C8 C7 1.400 . S
C8 C12 1.377 . S
C9 C7 1.364 . S
C9 C10 1.374 . S
C10 H1 0.930 . S
C10 C9 1.374 . S
C10 C11 1.383 . S
C11 O5 1.412 . S
C11 C10 1.383 . S
C11 C12 1.394 . S
C12 H2 0.929 . S
C12 C8 1.377 . S
C12 C11 1.394 . S
H13 C20 0.929 . S
H14 C23 0.930 . S
H15 C25 0.929 . S
H16 C17 0.969 . S
C17 H16 0.969 . S
C17 O18 1.550 . S
C17 H19 0.973 . S
O18 C17 1.550 . S
O18 C24 1.412 . S
H19 C17 0.973 . S
C20 H13 0.929 . S
C20 C21 1.400 . S
C20 C22 1.364 . S
C21 C20 1.400 . S
C21 C25 1.377 . S
C22 C20 1.364 . S
C22 C23 1.374 . S
C23 H14 0.930 . S
C23 C22 1.374 . S
C23 C24 1.383 . S
C24 O18 1.412 . S
C24 C23 1.383 . S
C24 C25 1.394 . S
C25 H15 0.929 . S
C25 C21 1.377 . S
C25 C24 1.394 . S
H26 C33 0.929 . S
H27 C36 0.930 . S
H28 C38 0.929 . S
H29 C30 0.969 . S
C30 H29 0.969 . S
C30 O31 1.550 . S
C30 H32 0.973 . S
O31 C30 1.550 . S
O31 C37 1.412 . S
H32 C30 0.973 . S
C33 H26 0.929 . S
C33 C34 1.400 . S
C33 C35 1.364 . S
C34 C33 1.400 . S
C34 C38 1.377 . S
C35 C33 1.364 . S
C35 C36 1.374 . S
C36 H27 0.930 . S
C36 C35 1.374 . S
C36 C37 1.383 . S
C37 O31 1.412 . S
C37 C36 1.383 . S
C37 C38 1.394 . S
C38 H28 0.929 . S
C38 C34 1.377 . S
C38 C37 1.394 . S
H39 C46 0.929 . S
H40 C49 0.930 . S
H41 C51 0.929 . S
H42 C43 0.969 . S
C43 H42 0.969 . S
C43 O44 1.550 . S
C43 H45 0.973 . S
O44 C43 1.550 . S
O44 C50 1.412 . S
H45 C43 0.973 . S
C46 H39 0.929 . S
C46 C47 1.400 . S
C46 C48 1.364 . S
C47 C46 1.400 . S
C47 C51 1.377 . S
C48 C46 1.364 . S
C48 C49 1.374 . S
C49 H40 0.930 . S
C49 C48 1.374 . S
C49 C50 1.383 . S
C50 O44 1.412 . S
C50 C49 1.383 . S
C50 C51 1.394 . S
C51 H41 0.929 . S
C51 C47 1.377 . S
C51 C50 1.394 . S
H52 C59 0.929 . S
H53 C62 0.930 . S
H54 C64 0.929 . S
H55 C56 0.969 . S
C56 H55 0.969 . S
C56 O57 1.550 . S
C56 H58 0.973 . S
O57 C56 1.550 . S
O57 C63 1.412 . S
H58 C56 0.973 . S
C59 H52 0.929 . S
C59 C60 1.400 . S
C59 C61 1.364 . S
C60 C59 1.400 . S
C60 C64 1.377 . S
C61 C59 1.364 . S
C61 C62 1.374 . S
C62 H53 0.930 . S
C62 C61 1.374 . S
C62 C63 1.383 . S
C63 O57 1.412 . S
C63 C62 1.383 . S
C63 C64 1.394 . S
C64 H54 0.929 . S
C64 C60 1.377 . S
C64 C63 1.394 . S
H65 C72 0.929 . S
H66 C75 0.930 . S
H67 C77 0.929 . S
H68 C69 0.969 . S
C69 H68 0.969 . S
C69 O70 1.550 . S
C69 H71 0.973 . S
O70 C69 1.550 . S
O70 C76 1.412 . S
H71 C69 0.973 . S
C72 H65 0.929 . S
C72 C73 1.400 . S
C72 C74 1.364 . S
C73 C72 1.400 . S
C73 C77 1.377 . S
C74 C72 1.364 . S
C74 C75 1.374 . S
C75 H66 0.930 . S
C75 C74 1.374 . S
C75 C76 1.383 . S
C76 O70 1.412 . S
C76 C75 1.383 . S
C76 C77 1.394 . S
C77 H67 0.929 . S
C77 C73 1.377 . S
C77 C76 1.394 . S
H78 C85 0.929 . S
H79 C88 0.930 . S
H80 C90 0.929 . S
H81 C82 0.969 . S
C82 H81 0.969 . S
C82 O83 1.550 . S
C82 H84 0.973 . S
O83 C82 1.550 . S
O83 C89 1.412 . S
H84 C82 0.973 . S
C85 H78 0.929 . S
C85 C86 1.400 . S
C85 C87 1.364 . S
C86 C85 1.400 . S
C86 C90 1.377 . S
C87 C85 1.364 . S
C87 C88 1.374 . S
C88 H79 0.930 . S
C88 C87 1.374 . S
C88 C89 1.383 . S
C89 O83 1.412 . S
C89 C88 1.383 . S
C89 C90 1.394 . S
C90 H80 0.929 . S
C90 C86 1.377 . S
C90 C89 1.394 . S
H91 C98 0.929 . S
H92 C101 0.930 . S
H93 C103 0.929 . S
H94 C95 0.969 . S
C95 H94 0.969 . S
C95 O96 1.550 . S
C95 H97 0.973 . S
O96 C95 1.550 . S
O96 C102 1.412 . S
H97 C95 0.973 . S
C98 H91 0.929 . S
C98 C99 1.400 . S
C98 C100 1.364 . S
C99 C98 1.400 . S
C99 C103 1.377 . S
C100 C98 1.364 . S
C100 C101 1.374 . S
C101 H92 0.930 . S
C101 C100 1.374 . S
C101 C102 1.383 . S
C102 O96 1.412 . S
C102 C101 1.383 . S
C102 C103 1.394 . S
C103 H93 0.929 . S
C103 C99 1.377 . S
C103 C102 1.394 . S
Tb104 N133 2.617 . S
Tb104 N139 2.572 . S
Tb104 O148 2.465 . S
Tb104 O149 2.387 . S
Tb104 O151 2.428 . S
Tb104 O152 2.308 . S
Tb104 O156 2.349 . S
Tb104 O159 2.393 . S
Tb104 C168 2.802 . S
C105 N106 1.379 . S
C105 C108 1.416 . S
C105 C112 1.424 . S
N106 C105 1.379 . S
N106 C109 1.334 . S
N106 Tb115 2.617 . S
C107 C109 1.390 . S
C107 C110 1.339 . S
C107 H127 0.930 . S
C108 C105 1.416 . S
C108 C110 1.416 . S
C108 C114 1.448 . S
C109 N106 1.334 . S
C109 C107 1.390 . S
C109 H120 0.930 . S
C110 C107 1.339 . S
C110 C108 1.416 . S
C110 H131 0.930 . S
C111 C112 1.413 1_565 S
C111 C113 1.427 . S
C111 C117 1.416 . S
C112 C105 1.424 . S
C112 C111 1.413 1_545 S
C112 N116 1.361 . S
C113 C111 1.427 . S
C113 C114 1.328 1_565 S
C113 H128 0.929 . S
C114 C108 1.448 . S
C114 C113 1.328 1_545 S
C114 H129 0.930 . S
Tb115 N106 2.617 . S
Tb115 N116 2.572 . S
Tb115 O150 2.349 1_655 S
Tb115 O153 2.393 . S
Tb115 O154 2.465 . S
Tb115 O155 2.387 . S
Tb115 O157 2.428 . S
Tb115 O158 2.308 1_655 S
Tb115 C179 2.802 . S
N116 C112 1.361 . S
N116 Tb115 2.572 . S
N116 C118 1.340 1_545 S
C117 C111 1.416 . S
C117 C119 1.332 . S
C117 H125 0.931 . S
C118 N116 1.340 1_565 S
C118 C119 1.407 . S
C118 H124 0.930 . S
C119 C117 1.332 . S
C119 C118 1.407 . S
C119 H121 0.929 . S
H120 C109 0.930 . S
H121 C119 0.929 . S
H122 C137 0.930 . S
H123 C144 0.929 . S
H124 C118 0.930 . S
H125 C117 0.931 . S
H126 C140 0.930 . S
H127 C107 0.930 . S
H128 C113 0.929 . S
H129 C114 0.930 . S
H130 C135 0.930 . S
H131 C110 0.930 . S
H132 C143 0.931 . S
N133 Tb104 2.617 . S
N133 C134 1.379 . S
N133 C137 1.334 . S
C134 N133 1.379 . S
C134 C136 1.416 . S
C134 C142 1.424 . S
C135 H130 0.930 . S
C135 C137 1.390 . S
C135 C138 1.339 . S
C136 C134 1.416 . S
C136 C138 1.416 . S
C136 C169 1.448 . S
C137 H122 0.930 . S
C137 N133 1.334 . S
C137 C135 1.390 . S
C138 C135 1.339 . S
C138 C136 1.416 . S
C138 H145 0.930 . S
N139 Tb104 2.572 . S
N139 C140 1.340 . S
N139 C142 1.361 . S
C140 H126 0.930 . S
C140 N139 1.340 . S
C140 C144 1.407 . S
C141 C142 1.413 . S
C141 C143 1.416 . S
C141 C170 1.427 . S
C142 C134 1.424 . S
C142 N139 1.361 . S
C142 C141 1.413 . S
C143 H132 0.931 . S
C143 C141 1.416 . S
C143 C144 1.332 . S
C144 H123 0.929 . S
C144 C140 1.407 . S
C144 C143 1.332 . S
H145 C138 0.930 . S
H146 C169 0.930 . S
H147 C170 0.929 . S
O148 Tb104 2.465 . S
O148 C168 1.264 . S
O149 Tb104 2.387 . S
O149 C160 1.264 . S
O150 Tb115 2.349 1_455 S
O150 C160 1.243 . S
O151 Tb104 2.428 . S
O151 C168 1.256 . S
O152 Tb104 2.308 . S
O152 C167 1.266 1_455 S
O153 Tb115 2.393 . S
O153 C167 1.248 . S
O154 Tb115 2.465 . S
O154 C179 1.264 . S
O155 Tb115 2.387 . S
O155 C171 1.264 . S
O156 Tb104 2.349 . S
O156 C171 1.243 1_455 S
O157 Tb115 2.428 . S
O157 C179 1.256 . S
O158 Tb115 2.308 1_455 S
O158 C178 1.266 . S
O159 Tb104 2.393 . S
O159 C178 1.248 . S
C160 O149 1.264 . S
C160 O150 1.243 . S
C161 C164 1.399 . S
C161 C166 1.383 . S
C161 C168 1.496 . S
C162 C163 1.399 . S
C162 C166 1.389 . S
C163 C162 1.399 . S
C163 C165 1.380 . S
C163 H180 0.929 . S
C164 C161 1.399 . S
C164 C165 1.392 . S
C164 H181 0.929 . S
C165 C163 1.380 . S
C165 C164 1.392 . S
C165 H182 0.929 . S
C166 C161 1.383 . S
C166 C162 1.389 . S
C166 H183 0.931 . S
C167 O152 1.266 1_655 S
C167 O153 1.248 . S
C168 Tb104 2.802 . S
C168 O148 1.264 . S
C168 O151 1.256 . S
C168 C161 1.496 . S
C169 C136 1.448 . S
C169 H146 0.930 . S
C169 C170 1.328 . S
C170 C141 1.427 . S
C170 H147 0.929 . S
C170 C169 1.328 . S
C171 O155 1.264 . S
C171 O156 1.243 1_655 S
C172 C175 1.399 . S
C172 C176 1.383 . S
C172 C179 1.496 . S
C173 C174 1.399 . S
C173 C176 1.389 . S
C174 C173 1.399 . S
C174 C177 1.380 . S
C174 H184 0.929 . S
C175 C172 1.399 . S
C175 C177 1.392 . S
C175 H185 0.929 . S
C176 C172 1.383 . S
C176 C173 1.389 . S
C176 H186 0.931 . S
C177 C174 1.380 . S
C177 C175 1.392 . S
C177 H187 0.929 . S
C178 O158 1.266 . S
C178 O159 1.248 . S
C179 Tb115 2.802 . S
C179 O154 1.264 . S
C179 O157 1.256 . S
C179 C172 1.496 . S
H180 C163 0.929 . S
H181 C164 0.929 . S
H182 C165 0.929 . S
H183 C166 0.931 . S
H184 C174 0.929 . S
H185 C175 0.929 . S
H186 C176 0.931 . S
H187 C177 0.929 . S
Tb188 N217 2.617 . S
Tb188 N223 2.572 . S
Tb188 O232 2.465 . S
Tb188 O233 2.387 . S
Tb188 O235 2.428 . S
Tb188 O236 2.308 . S
Tb188 O240 2.349 . S
Tb188 O243 2.393 . S
Tb188 C252 2.802 . S
C189 N190 1.379 . S
C189 C192 1.416 . S
C189 C196 1.424 . S
N190 C189 1.379 . S
N190 C193 1.334 . S
N190 Tb199 2.617 . S
C191 C193 1.390 . S
C191 C194 1.339 . S
C191 H211 0.930 . S
C192 C189 1.416 . S
C192 C194 1.416 . S
C192 C198 1.448 . S
C193 N190 1.334 . S
C193 C191 1.390 . S
C193 H204 0.930 . S
C194 C191 1.339 . S
C194 C192 1.416 . S
C194 H215 0.930 . S
C195 C196 1.413 . S
C195 C197 1.427 . S
C195 C201 1.416 . S
C196 C189 1.424 . S
C196 C195 1.413 . S
C196 N200 1.361 . S
C197 C195 1.427 . S
C197 C198 1.328 . S
C197 H212 0.929 . S
C198 C192 1.448 . S
C198 C197 1.328 . S
C198 H213 0.930 . S
Tb199 N190 2.617 . S
Tb199 N200 2.572 . S
Tb199 O234 2.349 . S
Tb199 O237 2.393 . S
Tb199 O238 2.465 . S
Tb199 O239 2.387 . S
Tb199 O241 2.428 . S
Tb199 O242 2.308 . S
Tb199 C263 2.802 . S
N200 C196 1.361 . S
N200 Tb199 2.572 . S
N200 C202 1.340 . S
C201 C195 1.416 . S
C201 C203 1.332 . S
C201 H209 0.931 . S
C202 N200 1.340 . S
C202 C203 1.407 . S
C202 H208 0.930 . S
C203 C201 1.332 . S
C203 C202 1.407 . S
C203 H205 0.929 . S
H204 C193 0.930 . S
H205 C203 0.929 . S
H206 C221 0.930 . S
H207 C228 0.929 . S
H208 C202 0.930 . S
H209 C201 0.931 . S
H210 C224 0.930 . S
H211 C191 0.930 . S
H212 C197 0.929 . S
H213 C198 0.930 . S
H214 C219 0.930 . S
H215 C194 0.930 . S
H216 C227 0.931 . S
N217 Tb188 2.617 . S
N217 C218 1.379 . S
N217 C221 1.334 . S
C218 N217 1.379 . S
C218 C220 1.416 . S
C218 C226 1.424 . S
C219 H214 0.930 . S
C219 C221 1.390 . S
C219 C222 1.339 . S
C220 C218 1.416 . S
C220 C222 1.416 . S
C220 C253 1.448 . S
C221 H206 0.930 . S
C221 N217 1.334 . S
C221 C219 1.390 . S
C222 C219 1.339 . S
C222 C220 1.416 . S
C222 H229 0.930 . S
N223 Tb188 2.572 . S
N223 C224 1.340 . S
N223 C226 1.361 . S
C224 H210 0.930 . S
C224 N223 1.340 . S
C224 C228 1.407 . S
C225 C226 1.413 . S
C225 C227 1.416 . S
C225 C254 1.427 . S
C226 C218 1.424 . S
C226 N223 1.361 . S
C226 C225 1.413 . S
C227 H216 0.931 . S
C227 C225 1.416 . S
C227 C228 1.332 . S
C228 H207 0.929 . S
C228 C224 1.407 . S
C228 C227 1.332 . S
H229 C222 0.930 . S
H230 C253 0.930 . S
H231 C254 0.929 . S
O232 Tb188 2.465 . S
O232 C252 1.264 . S
O233 Tb188 2.387 . S
O233 C244 1.264 . S
O234 Tb199 2.349 . S
O234 C244 1.243 . S
O235 Tb188 2.428 . S
O235 C252 1.256 . S
O236 Tb188 2.308 . S
O236 C251 1.266 . S
O237 Tb199 2.393 . S
O237 C251 1.248 . S
O238 Tb199 2.465 . S
O238 C263 1.264 . S
O239 Tb199 2.387 . S
O239 C255 1.264 . S
O240 Tb188 2.349 . S
O240 C255 1.243 . S
O241 Tb199 2.428 . S
O241 C263 1.256 . S
O242 Tb199 2.308 . S
O242 C262 1.266 . S
O243 Tb188 2.393 . S
O243 C262 1.248 . S
C244 O233 1.264 . S
C244 O234 1.243 . S
C245 C248 1.399 . S
C245 C250 1.383 . S
C245 C252 1.496 . S
C246 C247 1.399 . S
C246 C250 1.389 . S
C247 C246 1.399 . S
C247 C249 1.380 . S
C247 H264 0.929 . S
C248 C245 1.399 . S
C248 C249 1.392 . S
C248 H265 0.929 . S
C249 C247 1.380 . S
C249 C248 1.392 . S
C249 H266 0.929 . S
C250 C245 1.383 . S
C250 C246 1.389 . S
C250 H267 0.931 . S
C251 O236 1.266 . S
C251 O237 1.248 . S
C252 Tb188 2.802 . S
C252 O232 1.264 . S
C252 O235 1.256 . S
C252 C245 1.496 . S
C253 C220 1.448 . S
C253 H230 0.930 . S
C253 C254 1.328 . S
C254 C225 1.427 . S
C254 H231 0.929 . S
C254 C253 1.328 . S
C255 O239 1.264 . S
C255 O240 1.243 . S
C256 C259 1.399 . S
C256 C260 1.383 . S
C256 C263 1.496 . S
C257 C258 1.399 . S
C257 C260 1.389 . S
C258 C257 1.399 . S
C258 C261 1.380 . S
C258 H268 0.929 . S
C259 C256 1.399 . S
C259 C261 1.392 . S
C259 H269 0.929 . S
C260 C256 1.383 . S
C260 C257 1.389 . S
C260 H270 0.931 . S
C261 C258 1.380 . S
C261 C259 1.392 . S
C261 H271 0.929 . S
C262 O242 1.266 . S
C262 O243 1.248 . S
C263 Tb199 2.802 . S
C263 O238 1.264 . S
C263 O241 1.256 . S
C263 C256 1.496 . S
H264 C247 0.929 . S
H265 C248 0.929 . S
H266 C249 0.929 . S
H267 C250 0.931 . S
H268 C258 0.929 . S
H269 C259 0.929 . S
H270 C260 0.931 . S
H271 C261 0.929 . S
Tb272 N301 2.617 . S
Tb272 N307 2.572 . S
Tb272 O316 2.465 . S
Tb272 O317 2.387 . S
Tb272 O319 2.428 . S
Tb272 O320 2.308 . S
Tb272 O324 2.349 . S
Tb272 O327 2.393 . S
Tb272 C336 2.802 . S
C273 N274 1.379 . S
C273 C276 1.416 . S
C273 C280 1.424 . S
N274 C273 1.379 . S
N274 C277 1.334 . S
N274 Tb283 2.617 . S
C275 C277 1.390 . S
C275 C278 1.339 . S
C275 H295 0.930 . S
C276 C273 1.416 . S
C276 C278 1.416 . S
C276 C282 1.448 . S
C277 N274 1.334 . S
C277 C275 1.390 . S
C277 H288 0.930 . S
C278 C275 1.339 . S
C278 C276 1.416 . S
C278 H299 0.930 . S
C279 C280 1.413 . S
C279 C281 1.427 . S
C279 C285 1.416 . S
C280 C273 1.424 . S
C280 C279 1.413 . S
C280 N284 1.361 . S
C281 C279 1.427 . S
C281 C282 1.328 . S
C281 H296 0.929 . S
C282 C276 1.448 . S
C282 C281 1.328 . S
C282 H297 0.930 . S
Tb283 N274 2.617 . S
Tb283 N284 2.572 . S
Tb283 O318 2.349 1_655 S
Tb283 O321 2.393 . S
Tb283 O322 2.465 . S
Tb283 O323 2.387 . S
Tb283 O325 2.428 . S
Tb283 O326 2.308 1_655 S
Tb283 C347 2.802 . S
N284 C280 1.361 . S
N284 Tb283 2.572 . S
N284 C286 1.340 . S
C285 C279 1.416 . S
C285 C287 1.332 . S
C285 H293 0.931 . S
C286 N284 1.340 . S
C286 C287 1.407 . S
C286 H292 0.930 . S
C287 C285 1.332 . S
C287 C286 1.407 . S
C287 H289 0.929 . S
H288 C277 0.930 . S
H289 C287 0.929 . S
H290 C305 0.930 . S
H291 C312 0.929 . S
H292 C286 0.930 . S
H293 C285 0.931 . S
H294 C308 0.930 . S
H295 C275 0.930 . S
H296 C281 0.929 . S
H297 C282 0.930 . S
H298 C303 0.930 . S
H299 C278 0.930 . S
H300 C311 0.931 . S
N301 Tb272 2.617 . S
N301 C302 1.379 . S
N301 C305 1.334 . S
C302 N301 1.379 . S
C302 C304 1.416 . S
C302 C310 1.424 . S
C303 H298 0.930 . S
C303 C305 1.390 . S
C303 C306 1.339 . S
C304 C302 1.416 . S
C304 C306 1.416 . S
C304 C337 1.448 . S
C305 H290 0.930 . S
C305 N301 1.334 . S
C305 C303 1.390 . S
C306 C303 1.339 . S
C306 C304 1.416 . S
C306 H313 0.930 . S
N307 Tb272 2.572 . S
N307 C308 1.340 1_565 S
N307 C310 1.361 . S
C308 H294 0.930 . S
C308 N307 1.340 1_545 S
C308 C312 1.407 . S
C309 C310 1.413 1_545 S
C309 C311 1.416 . S
C309 C338 1.427 . S
C310 C302 1.424 . S
C310 N307 1.361 . S
C310 C309 1.413 1_565 S
C311 H300 0.931 . S
C311 C309 1.416 . S
C311 C312 1.332 . S
C312 H291 0.929 . S
C312 C308 1.407 . S
C312 C311 1.332 . S
H313 C306 0.930 . S
H314 C337 0.930 . S
H315 C338 0.929 . S
O316 Tb272 2.465 . S
O316 C336 1.264 . S
O317 Tb272 2.387 . S
O317 C328 1.264 . S
O318 Tb283 2.349 1_455 S
O318 C328 1.243 . S
O319 Tb272 2.428 . S
O319 C336 1.256 . S
O320 Tb272 2.308 . S
O320 C335 1.266 1_455 S
O321 Tb283 2.393 . S
O321 C335 1.248 . S
O322 Tb283 2.465 . S
O322 C347 1.264 . S
O323 Tb283 2.387 . S
O323 C339 1.264 . S
O324 Tb272 2.349 . S
O324 C339 1.243 1_455 S
O325 Tb283 2.428 . S
O325 C347 1.256 . S
O326 Tb283 2.308 1_455 S
O326 C346 1.266 . S
O327 Tb272 2.393 . S
O327 C346 1.248 . S
C328 O317 1.264 . S
C328 O318 1.243 . S
C329 C332 1.399 . S
C329 C334 1.383 . S
C329 C336 1.496 . S
C330 C331 1.399 . S
C330 C334 1.389 . S
C331 C330 1.399 . S
C331 C333 1.380 . S
C331 H348 0.929 . S
C332 C329 1.399 . S
C332 C333 1.392 . S
C332 H349 0.929 . S
C333 C331 1.380 . S
C333 C332 1.392 . S
C333 H350 0.929 . S
C334 C329 1.383 . S
C334 C330 1.389 . S
C334 H351 0.931 . S
C335 O320 1.266 1_655 S
C335 O321 1.248 . S
C336 Tb272 2.802 . S
C336 O316 1.264 . S
C336 O319 1.256 . S
C336 C329 1.496 . S
C337 C304 1.448 . S
C337 H314 0.930 . S
C337 C338 1.328 1_565 S
C338 C309 1.427 . S
C338 H315 0.929 . S
C338 C337 1.328 1_545 S
C339 O323 1.264 . S
C339 O324 1.243 1_655 S
C340 C343 1.399 . S
C340 C344 1.383 . S
C340 C347 1.496 . S
C341 C342 1.399 . S
C341 C344 1.389 . S
C342 C341 1.399 . S
C342 C345 1.380 . S
C342 H352 0.929 . S
C343 C340 1.399 . S
C343 C345 1.392 . S
C343 H353 0.929 . S
C344 C340 1.383 . S
C344 C341 1.389 . S
C344 H354 0.931 . S
C345 C342 1.380 . S
C345 C343 1.392 . S
C345 H355 0.929 . S
C346 O326 1.266 . S
C346 O327 1.248 . S
C347 Tb283 2.802 . S
C347 O322 1.264 . S
C347 O325 1.256 . S
C347 C340 1.496 . S
H348 C331 0.929 . S
H349 C332 0.929 . S
H350 C333 0.929 . S
H351 C334 0.931 . S
H352 C342 0.929 . S
H353 C343 0.929 . S
H354 C344 0.931 . S
H355 C345 0.929 . S
Tb356 N385 2.617 . S
Tb356 N391 2.572 . S
Tb356 O400 2.465 . S
Tb356 O401 2.387 . S
Tb356 O403 2.428 . S
Tb356 O404 2.308 . S
Tb356 O408 2.349 . S
Tb356 O411 2.393 . S
Tb356 C420 2.802 . S
C357 N358 1.379 . S
C357 C360 1.416 . S
C357 C364 1.424 . S
N358 C357 1.379 . S
N358 C361 1.334 . S
N358 Tb367 2.617 . S
C359 C361 1.390 . S
C359 C362 1.339 . S
C359 H379 0.930 . S
C360 C357 1.416 . S
C360 C362 1.416 . S
C360 C366 1.448 . S
C361 N358 1.334 . S
C361 C359 1.390 . S
C361 H372 0.930 . S
C362 C359 1.339 . S
C362 C360 1.416 . S
C362 H383 0.930 . S
C363 C364 1.413 . S
C363 C365 1.427 . S
C363 C369 1.416 . S
C364 C357 1.424 . S
C364 C363 1.413 . S
C364 N368 1.361 . S
C365 C363 1.427 . S
C365 C366 1.328 . S
C365 H380 0.929 . S
C366 C360 1.448 . S
C366 C365 1.328 . S
C366 H381 0.930 . S
Tb367 N358 2.617 . S
Tb367 N368 2.572 . S
Tb367 O402 2.349 . S
Tb367 O405 2.393 . S
Tb367 O406 2.465 . S
Tb367 O407 2.387 . S
Tb367 O409 2.428 . S
Tb367 O410 2.308 . S
Tb367 C431 2.802 . S
N368 C364 1.361 . S
N368 Tb367 2.572 . S
N368 C370 1.340 . S
C369 C363 1.416 . S
C369 C371 1.332 . S
C369 H377 0.931 . S
C370 N368 1.340 . S
C370 C371 1.407 . S
C370 H376 0.930 . S
C371 C369 1.332 . S
C371 C370 1.407 . S
C371 H373 0.929 . S
H372 C361 0.930 . S
H373 C371 0.929 . S
H374 C389 0.930 . S
H375 C396 0.929 . S
H376 C370 0.930 . S
H377 C369 0.931 . S
H378 C392 0.930 . S
H379 C359 0.930 . S
H380 C365 0.929 . S
H381 C366 0.930 . S
H382 C387 0.930 . S
H383 C362 0.930 . S
H384 C395 0.931 . S
N385 Tb356 2.617 . S
N385 C386 1.379 . S
N385 C389 1.334 . S
C386 N385 1.379 . S
C386 C388 1.416 . S
C386 C394 1.424 . S
C387 H382 0.930 . S
C387 C389 1.390 . S
C387 C390 1.339 . S
C388 C386 1.416 . S
C388 C390 1.416 . S
C388 C421 1.448 . S
C389 H374 0.930 . S
C389 N385 1.334 . S
C389 C387 1.390 . S
C390 C387 1.339 . S
C390 C388 1.416 . S
C390 H397 0.930 . S
N391 Tb356 2.572 . S
N391 C392 1.340 . S
N391 C394 1.361 . S
C392 H378 0.930 . S
C392 N391 1.340 . S
C392 C396 1.407 . S
C393 C394 1.413 . S
C393 C395 1.416 . S
C393 C422 1.427 . S
C394 C386 1.424 . S
C394 N391 1.361 . S
C394 C393 1.413 . S
C395 H384 0.931 . S
C395 C393 1.416 . S
C395 C396 1.332 . S
C396 H375 0.929 . S
C396 C392 1.407 . S
C396 C395 1.332 . S
H397 C390 0.930 . S
H398 C421 0.930 . S
H399 C422 0.929 . S
O400 Tb356 2.465 . S
O400 C420 1.264 . S
O401 Tb356 2.387 . S
O401 C412 1.264 . S
O402 Tb367 2.349 . S
O402 C412 1.243 . S
O403 Tb356 2.428 . S
O403 C420 1.256 . S
O404 Tb356 2.308 . S
O404 C419 1.266 . S
O405 Tb367 2.393 . S
O405 C419 1.248 . S
O406 Tb367 2.465 . S
O406 C431 1.264 . S
O407 Tb367 2.387 . S
O407 C423 1.264 . S
O408 Tb356 2.349 . S
O408 C423 1.243 . S
O409 Tb367 2.428 . S
O409 C431 1.256 . S
O410 Tb367 2.308 . S
O410 C430 1.266 . S
O411 Tb356 2.393 . S
O411 C430 1.248 . S
C412 O401 1.264 . S
C412 O402 1.243 . S
C413 C416 1.399 . S
C413 C418 1.383 . S
C413 C420 1.496 . S
C414 C415 1.399 . S
C414 C418 1.389 . S
C415 C414 1.399 . S
C415 C417 1.380 . S
C415 H432 0.929 . S
C416 C413 1.399 . S
C416 C417 1.392 . S
C416 H433 0.929 . S
C417 C415 1.380 . S
C417 C416 1.392 . S
C417 H434 0.929 . S
C418 C413 1.383 . S
C418 C414 1.389 . S
C418 H435 0.931 . S
C419 O404 1.266 . S
C419 O405 1.248 . S
C420 Tb356 2.802 . S
C420 O400 1.264 . S
C420 O403 1.256 . S
C420 C413 1.496 . S
C421 C388 1.448 . S
C421 H398 0.930 . S
C421 C422 1.328 . S
C422 C393 1.427 . S
C422 H399 0.929 . S
C422 C421 1.328 . S
C423 O407 1.264 . S
C423 O408 1.243 . S
C424 C427 1.399 . S
C424 C428 1.383 . S
C424 C431 1.496 . S
C425 C426 1.399 . S
C425 C428 1.389 . S
C426 C425 1.399 . S
C426 C429 1.380 . S
C426 H436 0.929 . S
C427 C424 1.399 . S
C427 C429 1.392 . S
C427 H437 0.929 . S
C428 C424 1.383 . S
C428 C425 1.389 . S
C428 H438 0.931 . S
C429 C426 1.380 . S
C429 C427 1.392 . S
C429 H439 0.929 . S
C430 O410 1.266 . S
C430 O411 1.248 . S
C431 Tb367 2.802 . S
C431 O406 1.264 . S
C431 O409 1.256 . S
C431 C424 1.496 . S
H432 C415 0.929 . S
H433 C416 0.929 . S
H434 C417 0.929 . S
H435 C418 0.931 . S
H436 C426 0.929 . S
H437 C427 0.929 . S
H438 C428 0.931 . S
H439 C429 0.929 . S
C440 C441 1.387 . S
C440 H444 0.950 . S
C440 C449 1.390 . S
C441 C440 1.387 . S
C441 C443 1.387 . S
H442 C449 0.950 1_545 S
C443 C441 1.387 . S
C443 C445 1.390 . S
C443 H447 0.950 . S
H444 C440 0.950 . S
C445 C443 1.390 . S
C445 C446 1.387 1_565 S
C445 H448 0.950 . S
C446 C445 1.387 1_545 S
C446 C449 1.387 1_545 S
H447 C443 0.950 . S
H448 C445 0.950 . S
C449 C440 1.390 . S
C449 H442 0.950 1_565 S
C449 C446 1.387 1_565 S
C450 C451 1.387 . S
C450 H454 0.950 . S
C450 C459 1.390 . S
C451 C450 1.387 . S
C451 C453 1.387 . S
H452 C459 0.950 . S
C453 C451 1.387 . S
C453 C455 1.390 . S
C453 H457 0.950 . S
H454 C450 0.950 . S
C455 C453 1.390 . S
C455 C456 1.387 . S
C455 H458 0.950 . S
C456 C455 1.387 . S
C456 C459 1.387 . S
H457 C453 0.950 . S
H458 C455 0.950 . S
C459 C450 1.390 . S
C459 H452 0.950 . S
C459 C456 1.387 . S
C460 C461 1.387 . S
C460 H464 0.950 . S
C460 C469 1.390 . S
C461 C460 1.387 . S
C461 C463 1.387 . S
H462 C469 0.950 . S
C463 C461 1.387 . S
C463 C465 1.390 . S
C463 H467 0.950 . S
H464 C460 0.950 . S
C465 C463 1.390 . S
C465 C466 1.387 . S
C465 H468 0.950 . S
C466 C465 1.387 . S
C466 C469 1.387 . S
H467 C463 0.950 . S
H468 C465 0.950 . S
C469 C460 1.390 . S
C469 H462 0.950 . S
C469 C466 1.387 . S
C470 C471 1.387 . S
C470 H474 0.950 . S
C470 C479 1.390 1_565 S
C471 C470 1.387 . S
C471 C473 1.387 . S
H472 C479 0.950 . S
C473 C471 1.387 . S
C473 C475 1.390 . S
C473 H477 0.950 . S
H474 C470 0.950 . S
C475 C473 1.390 . S
C475 C476 1.387 1_565 S
C475 H478 0.950 . S
C476 C475 1.387 1_545 S
C476 C479 1.387 . S
H477 C473 0.950 . S
H478 C475 0.950 . S
C479 C470 1.390 1_545 S
C479 H472 0.950 . S
C479 C476 1.387 . S
C480 C481 1.387 . S
C480 H484 0.950 . S
C480 C489 1.390 1_545 S
C481 C480 1.387 . S
C481 C483 1.387 . S
H482 C489 0.950 . S
C483 C481 1.387 . S
C483 C485 1.390 . S
C483 H487 0.950 . S
H484 C480 0.950 . S
C485 C483 1.390 . S
C485 C486 1.387 1_545 S
C485 H488 0.950 . S
C486 C485 1.387 1_565 S
C486 C489 1.387 . S
H487 C483 0.950 . S
H488 C485 0.950 . S
C489 C480 1.390 1_565 S
C489 H482 0.950 . S
C489 C486 1.387 . S
C490 C491 1.387 . S
C490 H494 0.950 . S
C490 C499 1.390 . S
C491 C490 1.387 . S
C491 C493 1.387 . S
H492 C499 0.950 . S
C493 C491 1.387 . S
C493 C495 1.390 . S
C493 H497 0.950 . S
H494 C490 0.950 . S
C495 C493 1.390 . S
C495 C496 1.387 . S
C495 H498 0.950 . S
C496 C495 1.387 . S
C496 C499 1.387 . S
H497 C493 0.950 . S
H498 C495 0.950 . S
C499 C490 1.390 . S
C499 H492 0.950 . S
C499 C496 1.387 . S
C500 C501 1.387 . S
C500 H504 0.950 . S
C500 C509 1.390 . S
C501 C500 1.387 . S
C501 C503 1.387 . S
H502 C509 0.950 . S
C503 C501 1.387 . S
C503 C505 1.390 . S
C503 H507 0.950 . S
H504 C500 0.950 . S
C505 C503 1.390 . S
C505 C506 1.387 . S
C505 H508 0.950 . S
C506 C505 1.387 . S
C506 C509 1.387 . S
H507 C503 0.950 . S
H508 C505 0.950 . S
C509 C500 1.390 . S
C509 H502 0.950 . S
C509 C506 1.387 . S
C510 C511 1.387 . S
C510 H514 0.950 . S
C510 C519 1.390 . S
C511 C510 1.387 . S
C511 C513 1.387 . S
H512 C519 0.950 1_565 S
C513 C511 1.387 . S
C513 C515 1.390 . S
C513 H517 0.950 . S
H514 C510 0.950 . S
C515 C513 1.390 . S
C515 C516 1.387 1_545 S
C515 H518 0.950 . S
C516 C515 1.387 1_565 S
C516 C519 1.387 1_565 S
H517 C513 0.950 . S
H518 C515 0.950 . S
C519 C510 1.390 . S
C519 H512 0.950 1_545 S
C519 C516 1.387 1_545 S
C520 C521 1.387 . S
C520 H524 0.950 . S
C520 C529 1.390 1_556 S
C521 C520 1.387 . S
C521 C523 1.387 . S
H522 C529 0.950 . S
C523 C521 1.387 . S
C523 C525 1.416 . S
C523 H527 0.950 . S
H524 C520 0.950 . S
C525 C523 1.416 . S
C525 C526 1.369 1_556 S
C525 H528 0.944 1_556 S
C526 C525 1.369 1_554 S
C526 C529 1.387 . S
H527 C523 0.950 . S
H528 C525 0.944 1_554 S
C529 C520 1.390 1_554 S
C529 H522 0.950 . S
C529 C526 1.387 . S
C530 C531 1.387 . S
C530 H534 0.950 . S
C530 C539 1.390 . S
C531 C530 1.387 . S
C531 C533 1.387 . S
H532 C539 0.950 . S
C533 C531 1.387 . S
C533 C535 1.390 . S
C533 H537 0.950 . S
H534 C530 0.950 . S
C535 C533 1.390 . S
C535 C536 1.387 . S
C535 H538 0.950 . S
C536 C535 1.387 . S
C536 C539 1.387 . S
H537 C533 0.950 . S
H538 C535 0.950 . S
C539 C530 1.390 . S
C539 H532 0.950 . S
C539 C536 1.387 . S
C540 C541 1.387 . S
C540 H544 0.950 . S
C540 C549 1.390 1_554 S
C541 C540 1.387 . S
C541 C543 1.387 . S
H542 C549 0.950 . S
C543 C541 1.387 . S
C543 C545 1.390 1_554 S
C543 H547 0.950 . S
H544 C540 0.950 . S
C545 C543 1.390 1_556 S
C545 C546 1.387 . S
C545 H548 0.950 . S
C546 C545 1.387 . S
C546 C549 1.387 . S
H547 C543 0.950 . S
H548 C545 0.950 . S
C549 C540 1.390 1_556 S
C549 H542 0.950 . S
C549 C546 1.387 . S
C550 C551 1.387 . S
C550 H554 0.950 . S
C550 C559 1.390 . S
C551 C550 1.387 . S
C551 C553 1.387 . S
H552 C559 0.950 . S
C553 C551 1.387 . S
C553 C555 1.390 . S
C553 H557 0.950 . S
H554 C550 0.950 . S
C555 C553 1.390 . S
C555 C556 1.387 . S
C555 H558 0.950 . S
C556 C555 1.387 . S
C556 C559 1.387 . S
H557 C553 0.950 . S
H558 C555 0.950 . S
C559 C550 1.390 . S
C559 H552 0.950 . S
C559 C556 1.387 . S
C560 C561 1.387 . S
C560 H564 0.950 . S
C560 C569 1.390 1_554 S
C561 C560 1.387 . S
C561 C563 1.387 . S
H562 C569 0.950 . S
C563 C561 1.387 . S
C563 C565 1.390 1_554 S
C563 H567 0.950 . S
H564 C560 0.950 . S
C565 C563 1.390 1_556 S
C565 C566 1.387 . S
C565 H568 0.950 . S
C566 C565 1.387 . S
C566 C569 1.387 . S
H567 C563 0.950 . S
H568 C565 0.950 . S
C569 C560 1.390 1_556 S
C569 H562 0.950 . S
C569 C566 1.387 . S
C570 C571 1.387 . S
C570 H574 0.950 . S
C570 C579 1.390 . S
C571 C570 1.387 . S
C571 C573 1.387 . S
H572 C579 0.950 . S
C573 C571 1.387 . S
C573 C575 1.390 . S
C573 H577 0.950 . S
H574 C570 0.950 . S
C575 C573 1.390 . S
C575 C576 1.387 . S
C575 H578 0.950 . S
C576 C575 1.387 . S
C576 C579 1.387 . S
H577 C573 0.950 . S
H578 C575 0.950 . S
C579 C570 1.390 . S
C579 H572 0.950 . S
C579 C576 1.387 . S
C580 C581 1.387 . S
C580 H584 0.950 . S
C580 C589 1.390 1_556 S
C581 C580 1.387 . S
C581 C583 1.387 . S
H582 C589 0.950 . S
C583 C581 1.387 . S
C583 C585 1.390 1_556 S
C583 H587 0.950 . S
H584 C580 0.950 . S
C585 C583 1.390 1_554 S
C585 C586 1.387 . S
C585 H588 0.950 . S
C586 C585 1.387 . S
C586 C589 1.387 . S
H587 C583 0.950 . S
H588 C585 0.950 . S
C589 C580 1.390 1_554 S
C589 H582 0.950 . S
C589 C586 1.387 . S
C590 C591 1.387 . S
C590 H594 0.950 . S
C590 C599 1.390 . S
C591 C590 1.387 . S
C591 C593 1.387 . S
H592 C599 0.950 . S
C593 C591 1.387 . S
C593 C595 1.390 . S
C593 H597 0.950 . S
H594 C590 0.950 . S
C595 C593 1.390 . S
C595 C596 1.387 . S
C595 H598 0.950 . S
C596 C595 1.387 . S
C596 C599 1.387 . S
H597 C593 0.950 . S
H598 C595 0.950 . S
C599 C590 1.390 . S
C599 H592 0.950 . S
C599 C596 1.387 . S
C600 C601 1.387 . S
C600 H604 0.950 . S
C600 C609 1.390 . S
C601 C600 1.387 . S
C601 C603 1.387 . S
H602 C609 0.950 . S
C603 C601 1.387 . S
C603 C605 1.390 . S
C603 H607 0.950 . S
H604 C600 0.950 . S
C605 C603 1.390 . S
C605 C606 1.387 . S
C605 H608 0.950 . S
C606 C605 1.387 . S
C606 C609 1.387 . S
H607 C603 0.950 . S
H608 C605 0.950 . S
C609 C600 1.390 . S
C609 H602 0.950 . S
C609 C606 1.387 . S
C610 C611 1.387 . S
C610 H614 0.950 . S
C610 C619 1.390 . S
C611 C610 1.387 . S
C611 C613 1.387 . S
H612 C619 0.950 . S
C613 C611 1.387 . S
C613 C615 1.390 . S
C613 H617 0.950 . S
H614 C610 0.950 . S
C615 C613 1.390 . S
C615 C616 1.387 . S
C615 H618 0.950 . S
C616 C615 1.387 . S
C616 C619 1.387 . S
H617 C613 0.950 . S
H618 C615 0.950 . S
C619 C610 1.390 . S
C619 H612 0.950 . S
C619 C616 1.387 . S
C620 C621 1.387 . S
C620 H624 0.950 . S
C620 C629 1.390 . S
C621 C620 1.387 . S
C621 C623 1.387 . S
H622 C629 0.950 . S
C623 C621 1.387 . S
C623 C625 1.390 . S
C623 H627 0.950 . S
H624 C620 0.950 . S
C625 C623 1.390 . S
C625 C626 1.387 . S
C625 H628 0.950 . S
C626 C625 1.387 . S
C626 C629 1.387 . S
H627 C623 0.950 . S
H628 C625 0.950 . S
C629 C620 1.390 . S
C629 H622 0.950 . S
C629 C626 1.387 . S
C630 C631 1.387 . S
C630 H634 0.950 . S
C630 C639 1.390 . S
C631 C630 1.387 . S
C631 C633 1.387 . S
H632 C639 0.950 . S
C633 C631 1.387 . S
C633 C635 1.390 . S
C633 H637 0.950 . S
H634 C630 0.950 . S
C635 C633 1.390 . S
C635 C636 1.387 . S
C635 H638 0.950 . S
C636 C635 1.387 . S
C636 C639 1.387 . S
H637 C633 0.950 . S
H638 C635 0.950 . S
C639 C630 1.390 . S
C639 H632 0.950 . S
C639 C636 1.387 . S
C640 C641 1.387 . S
C640 H644 0.950 . S
C640 C649 1.390 . S
C641 C640 1.387 . S
C641 C643 1.387 . S
H642 C649 0.950 . S
C643 C641 1.387 . S
C643 C645 1.390 . S
C643 H647 0.950 . S
H644 C640 0.950 . S
C645 C643 1.390 . S
C645 C646 1.387 . S
C645 H648 0.950 1_655 S
C646 C645 1.387 . S
C646 C649 1.387 . S
H647 C643 0.950 . S
H648 C645 0.950 1_455 S
C649 C640 1.390 . S
C649 H642 0.950 . S
C649 C646 1.387 . S
C650 C651 1.387 . S
C650 H654 0.950 . S
C650 C659 1.390 . S
C651 C650 1.387 . S
C651 C653 1.387 . S
H652 C659 0.950 . S
C653 C651 1.387 . S
C653 C655 1.390 . S
C653 H657 0.950 . S
H654 C650 0.950 . S
C655 C653 1.390 . S
C655 C656 1.387 . S
C655 H658 0.950 . S
C656 C655 1.387 . S
C656 C659 1.387 . S
H657 C653 0.950 . S
H658 C655 0.950 . S
C659 C650 1.390 . S
C659 H652 0.950 . S
C659 C656 1.387 . S
C660 C661 1.387 . S
C660 H664 0.950 . S
C660 C669 1.390 . S
C661 C660 1.387 . S
C661 C663 1.387 . S
H662 C669 0.950 . S
C663 C661 1.387 . S
C663 C665 1.390 . S
C663 H667 0.950 . S
H664 C660 0.950 . S
C665 C663 1.390 . S
C665 C666 1.387 . S
C665 H668 0.950 . S
C666 C665 1.387 . S
C666 C669 1.387 . S
H667 C663 0.950 . S
H668 C665 0.950 . S
C669 C660 1.390 . S
C669 H662 0.950 . S
C669 C666 1.387 . S
C670 C671 1.387 . S
C670 H674 0.950 . S
C670 C679 1.390 . S
C671 C670 1.387 . S
C671 C673 1.387 . S
H672 C679 0.950 . S
C673 C671 1.387 . S
C673 C675 1.390 . S
C673 H677 0.950 . S
H674 C670 0.950 . S
C675 C673 1.390 . S
C675 C676 1.387 . S
C675 H678 0.950 . S
C676 C675 1.387 . S
C676 C679 1.387 . S
H677 C673 0.950 . S
H678 C675 0.950 . S
C679 C670 1.390 . S
C679 H672 0.950 . S
C679 C676 1.387 . S
C441 C86 1.628 . S
C446 C178 1.627 . S
C456 C262 1.667 . S
C451 C100 1.684 . S
C466 C255 1.623 . S
C461 C60 1.628 . S
C471 C74 1.679 . S
C476 C171 1.678 . S
C486 C335 1.668 . S
C481 C35 1.684 . S
C496 C419 1.626 . S
C491 C47 1.632 . S
C501 C9 1.677 . S
C506 C412 1.679 . S
C511 C21 1.632 . S
C516 C328 1.623 . S
C526 C162 1.434 . S
C521 C22 1.585 . S
C536 C246 1.413 . S
C531 C8 1.578 . S
C546 C257 1.352 . S
C541 C48 1.581 . S
C556 C173 1.361 . S
C551 C34 1.580 . S
C566 C341 1.413 . S
C561 C73 1.581 . S
C571 C61 1.581 . S
C576 C425 1.430 . S
C586 C414 1.361 . S
C581 C99 1.582 . S
C591 C87 1.581 . S
C596 C330 1.355 . S
C606 C160 1.575 . S
C601 C4 1.484 . S
C616 C244 1.497 . S
C611 C17 1.482 . S
C621 C30 1.483 . S
C626 C251 1.545 . S
C636 C167 1.467 . S
C631 C43 1.473 . S
C646 C339 1.497 . S
C641 C56 1.446 . S
C651 C69 1.520 . S
C656 C423 1.575 . S
C661 C82 1.444 . S
C666 C430 1.468 . S
C671 C95 1.512 . S
C676 C346 1.545 . S
