# Generated by pormake.
# Topology tbo, (3,4)-cn, num edge types: 1
# Building blocks:
#     Node 0, Type 0, BuildingBlock: ESEHIV_clean_linker_0, # of connection points: 3
#     Node 1, Type 0, BuildingBlock: ESEHIV_clean_linker_0, # of connection points: 3
#     Node 2, Type 0, BuildingBlock: ESEHIV_clean_linker_0, # of connection points: 3
#     Node 3, Type 0, BuildingBlock: ESEHIV_clean_linker_0, # of connection points: 3
#     Node 4, Type 0, BuildingBlock: ESEHIV_clean_linker_0, # of connection points: 3
#     Node 5, Type 0, BuildingBlock: ESEHIV_clean_linker_0, # of connection points: 3
#     Node 6, Type 0, BuildingBlock: ESEHIV_clean_linker_0, # of connection points: 3
#     Node 7, Type 0, BuildingBlock: ESEHIV_clean_linker_0, # of connection points: 3
#     Node 8, Type 0, BuildingBlock: ESEHIV_clean_linker_0, # of connection points: 3
#     Node 9, Type 0, BuildingBlock: ESEHIV_clean_linker_0, # of connection points: 3
#     Node 10, Type 0, BuildingBlock: ESEHIV_clean_linker_0, # of connection points: 3
#     Node 11, Type 0, BuildingBlock: ESEHIV_clean_linker_0, # of connection points: 3
#     Node 12, Type 0, BuildingBlock: ESEHIV_clean_linker_0, # of connection points: 3
#     Node 13, Type 0, BuildingBlock: ESEHIV_clean_linker_0, # of connection points: 3
#     Node 14, Type 0, BuildingBlock: ESEHIV_clean_linker_0, # of connection points: 3
#     Node 15, Type 0, BuildingBlock: ESEHIV_clean_linker_0, # of connection points: 3
#     Node 16, Type 0, BuildingBlock: ESEHIV_clean_linker_0, # of connection points: 3
#     Node 17, Type 0, BuildingBlock: ESEHIV_clean_linker_0, # of connection points: 3
#     Node 18, Type 0, BuildingBlock: ESEHIV_clean_linker_0, # of connection points: 3
#     Node 19, Type 0, BuildingBlock: ESEHIV_clean_linker_0, # of connection points: 3
#     Node 20, Type 0, BuildingBlock: ESEHIV_clean_linker_0, # of connection points: 3
#     Node 21, Type 0, BuildingBlock: ESEHIV_clean_linker_0, # of connection points: 3
#     Node 22, Type 0, BuildingBlock: ESEHIV_clean_linker_0, # of connection points: 3
#     Node 23, Type 0, BuildingBlock: ESEHIV_clean_linker_0, # of connection points: 3
#     Node 24, Type 0, BuildingBlock: ESEHIV_clean_linker_0, # of connection points: 3
#     Node 25, Type 0, BuildingBlock: ESEHIV_clean_linker_0, # of connection points: 3
#     Node 26, Type 0, BuildingBlock: ESEHIV_clean_linker_0, # of connection points: 3
#     Node 27, Type 0, BuildingBlock: ESEHIV_clean_linker_0, # of connection points: 3
#     Node 28, Type 0, BuildingBlock: ESEHIV_clean_linker_0, # of connection points: 3
#     Node 29, Type 0, BuildingBlock: ESEHIV_clean_linker_0, # of connection points: 3
#     Node 30, Type 0, BuildingBlock: ESEHIV_clean_linker_0, # of connection points: 3
#     Node 31, Type 0, BuildingBlock: ESEHIV_clean_linker_0, # of connection points: 3
#     Node 32, Type 1, BuildingBlock: ESEHIV_clean_sbu_0, # of connection points: 4
#     Node 33, Type 1, BuildingBlock: ESEHIV_clean_sbu_0, # of connection points: 4
#     Node 34, Type 1, BuildingBlock: ESEHIV_clean_sbu_0, # of connection points: 4
#     Node 35, Type 1, BuildingBlock: ESEHIV_clean_sbu_0, # of connection points: 4
#     Node 36, Type 1, BuildingBlock: ESEHIV_clean_sbu_0, # of connection points: 4
#     Node 37, Type 1, BuildingBlock: ESEHIV_clean_sbu_0, # of connection points: 4
#     Node 38, Type 1, BuildingBlock: ESEHIV_clean_sbu_0, # of connection points: 4
#     Node 39, Type 1, BuildingBlock: ESEHIV_clean_sbu_0, # of connection points: 4
#     Node 40, Type 1, BuildingBlock: ESEHIV_clean_sbu_0, # of connection points: 4
#     Node 41, Type 1, BuildingBlock: ESEHIV_clean_sbu_0, # of connection points: 4
#     Node 42, Type 1, BuildingBlock: ESEHIV_clean_sbu_0, # of connection points: 4
#     Node 43, Type 1, BuildingBlock: ESEHIV_clean_sbu_0, # of connection points: 4
#     Node 44, Type 1, BuildingBlock: ESEHIV_clean_sbu_0, # of connection points: 4
#     Node 45, Type 1, BuildingBlock: ESEHIV_clean_sbu_0, # of connection points: 4
#     Node 46, Type 1, BuildingBlock: ESEHIV_clean_sbu_0, # of connection points: 4
#     Node 47, Type 1, BuildingBlock: ESEHIV_clean_sbu_0, # of connection points: 4
#     Node 48, Type 1, BuildingBlock: ESEHIV_clean_sbu_0, # of connection points: 4
#     Node 49, Type 1, BuildingBlock: ESEHIV_clean_sbu_0, # of connection points: 4
#     Node 50, Type 1, BuildingBlock: ESEHIV_clean_sbu_0, # of connection points: 4
#     Node 51, Type 1, BuildingBlock: ESEHIV_clean_sbu_0, # of connection points: 4
#     Node 52, Type 1, BuildingBlock: ESEHIV_clean_sbu_0, # of connection points: 4
#     Node 53, Type 1, BuildingBlock: ESEHIV_clean_sbu_0, # of connection points: 4
#     Node 54, Type 1, BuildingBlock: ESEHIV_clean_sbu_0, # of connection points: 4
#     Node 55, Type 1, BuildingBlock: ESEHIV_clean_sbu_0, # of connection points: 4
#     Edge 56, Type (0, 1), BuildingBlock: XIVTED_clean_linker_0, # of connection points: 2
#     Edge 57, Type (0, 1), BuildingBlock: XIVTED_clean_linker_0, # of connection points: 2
#     Edge 58, Type (0, 1), BuildingBlock: XIVTED_clean_linker_0, # of connection points: 2
#     Edge 59, Type (0, 1), BuildingBlock: XIVTED_clean_linker_0, # of connection points: 2
#     Edge 60, Type (0, 1), BuildingBlock: XIVTED_clean_linker_0, # of connection points: 2
#     Edge 61, Type (0, 1), BuildingBlock: XIVTED_clean_linker_0, # of connection points: 2
#     Edge 62, Type (0, 1), BuildingBlock: XIVTED_clean_linker_0, # of connection points: 2
#     Edge 63, Type (0, 1), BuildingBlock: XIVTED_clean_linker_0, # of connection points: 2
#     Edge 64, Type (0, 1), BuildingBlock: XIVTED_clean_linker_0, # of connection points: 2
#     Edge 65, Type (0, 1), BuildingBlock: XIVTED_clean_linker_0, # of connection points: 2
#     Edge 66, Type (0, 1), BuildingBlock: XIVTED_clean_linker_0, # of connection points: 2
#     Edge 67, Type (0, 1), BuildingBlock: XIVTED_clean_linker_0, # of connection points: 2
#     Edge 68, Type (0, 1), BuildingBlock: XIVTED_clean_linker_0, # of connection points: 2
#     Edge 69, Type (0, 1), BuildingBlock: XIVTED_clean_linker_0, # of connection points: 2
#     Edge 70, Type (0, 1), BuildingBlock: XIVTED_clean_linker_0, # of connection points: 2
#     Edge 71, Type (0, 1), BuildingBlock: XIVTED_clean_linker_0, # of connection points: 2
#     Edge 72, Type (0, 1), BuildingBlock: XIVTED_clean_linker_0, # of connection points: 2
#     Edge 73, Type (0, 1), BuildingBlock: XIVTED_clean_linker_0, # of connection points: 2
#     Edge 74, Type (0, 1), BuildingBlock: XIVTED_clean_linker_0, # of connection points: 2
#     Edge 75, Type (0, 1), BuildingBlock: XIVTED_clean_linker_0, # of connection points: 2
#     Edge 76, Type (0, 1), BuildingBlock: XIVTED_clean_linker_0, # of connection points: 2
#     Edge 77, Type (0, 1), BuildingBlock: XIVTED_clean_linker_0, # of connection points: 2
#     Edge 78, Type (0, 1), BuildingBlock: XIVTED_clean_linker_0, # of connection points: 2
#     Edge 79, Type (0, 1), BuildingBlock: XIVTED_clean_linker_0, # of connection points: 2
#     Edge 80, Type (0, 1), BuildingBlock: XIVTED_clean_linker_0, # of connection points: 2
#     Edge 81, Type (0, 1), BuildingBlock: XIVTED_clean_linker_0, # of connection points: 2
#     Edge 82, Type (0, 1), BuildingBlock: XIVTED_clean_linker_0, # of connection points: 2
#     Edge 83, Type (0, 1), BuildingBlock: XIVTED_clean_linker_0, # of connection points: 2
#     Edge 84, Type (0, 1), BuildingBlock: XIVTED_clean_linker_0, # of connection points: 2
#     Edge 85, Type (0, 1), BuildingBlock: XIVTED_clean_linker_0, # of connection points: 2
#     Edge 86, Type (0, 1), BuildingBlock: XIVTED_clean_linker_0, # of connection points: 2
#     Edge 87, Type (0, 1), BuildingBlock: XIVTED_clean_linker_0, # of connection points: 2
#     Edge 88, Type (0, 1), BuildingBlock: XIVTED_clean_linker_0, # of connection points: 2
#     Edge 89, Type (0, 1), BuildingBlock: XIVTED_clean_linker_0, # of connection points: 2
#     Edge 90, Type (0, 1), BuildingBlock: XIVTED_clean_linker_0, # of connection points: 2
#     Edge 91, Type (0, 1), BuildingBlock: XIVTED_clean_linker_0, # of connection points: 2
#     Edge 92, Type (0, 1), BuildingBlock: XIVTED_clean_linker_0, # of connection points: 2
#     Edge 93, Type (0, 1), BuildingBlock: XIVTED_clean_linker_0, # of connection points: 2
#     Edge 94, Type (0, 1), BuildingBlock: XIVTED_clean_linker_0, # of connection points: 2
#     Edge 95, Type (0, 1), BuildingBlock: XIVTED_clean_linker_0, # of connection points: 2
#     Edge 96, Type (0, 1), BuildingBlock: XIVTED_clean_linker_0, # of connection points: 2
#     Edge 97, Type (0, 1), BuildingBlock: XIVTED_clean_linker_0, # of connection points: 2
#     Edge 98, Type (0, 1), BuildingBlock: XIVTED_clean_linker_0, # of connection points: 2
#     Edge 99, Type (0, 1), BuildingBlock: XIVTED_clean_linker_0, # of connection points: 2
#     Edge 100, Type (0, 1), BuildingBlock: XIVTED_clean_linker_0, # of connection points: 2
#     Edge 101, Type (0, 1), BuildingBlock: XIVTED_clean_linker_0, # of connection points: 2
#     Edge 102, Type (0, 1), BuildingBlock: XIVTED_clean_linker_0, # of connection points: 2
#     Edge 103, Type (0, 1), BuildingBlock: XIVTED_clean_linker_0, # of connection points: 2
#     Edge 104, Type (0, 1), BuildingBlock: XIVTED_clean_linker_0, # of connection points: 2
#     Edge 105, Type (0, 1), BuildingBlock: XIVTED_clean_linker_0, # of connection points: 2
#     Edge 106, Type (0, 1), BuildingBlock: XIVTED_clean_linker_0, # of connection points: 2
#     Edge 107, Type (0, 1), BuildingBlock: XIVTED_clean_linker_0, # of connection points: 2
#     Edge 108, Type (0, 1), BuildingBlock: XIVTED_clean_linker_0, # of connection points: 2
#     Edge 109, Type (0, 1), BuildingBlock: XIVTED_clean_linker_0, # of connection points: 2
#     Edge 110, Type (0, 1), BuildingBlock: XIVTED_clean_linker_0, # of connection points: 2
#     Edge 111, Type (0, 1), BuildingBlock: XIVTED_clean_linker_0, # of connection points: 2
#     Edge 112, Type (0, 1), BuildingBlock: XIVTED_clean_linker_0, # of connection points: 2
#     Edge 113, Type (0, 1), BuildingBlock: XIVTED_clean_linker_0, # of connection points: 2
#     Edge 114, Type (0, 1), BuildingBlock: XIVTED_clean_linker_0, # of connection points: 2
#     Edge 115, Type (0, 1), BuildingBlock: XIVTED_clean_linker_0, # of connection points: 2
#     Edge 116, Type (0, 1), BuildingBlock: XIVTED_clean_linker_0, # of connection points: 2
#     Edge 117, Type (0, 1), BuildingBlock: XIVTED_clean_linker_0, # of connection points: 2
#     Edge 118, Type (0, 1), BuildingBlock: XIVTED_clean_linker_0, # of connection points: 2
#     Edge 119, Type (0, 1), BuildingBlock: XIVTED_clean_linker_0, # of connection points: 2
#     Edge 120, Type (0, 1), BuildingBlock: XIVTED_clean_linker_0, # of connection points: 2
#     Edge 121, Type (0, 1), BuildingBlock: XIVTED_clean_linker_0, # of connection points: 2
#     Edge 122, Type (0, 1), BuildingBlock: XIVTED_clean_linker_0, # of connection points: 2
#     Edge 123, Type (0, 1), BuildingBlock: XIVTED_clean_linker_0, # of connection points: 2
#     Edge 124, Type (0, 1), BuildingBlock: XIVTED_clean_linker_0, # of connection points: 2
#     Edge 125, Type (0, 1), BuildingBlock: XIVTED_clean_linker_0, # of connection points: 2
#     Edge 126, Type (0, 1), BuildingBlock: XIVTED_clean_linker_0, # of connection points: 2
#     Edge 127, Type (0, 1), BuildingBlock: XIVTED_clean_linker_0, # of connection points: 2
#     Edge 128, Type (0, 1), BuildingBlock: XIVTED_clean_linker_0, # of connection points: 2
#     Edge 129, Type (0, 1), BuildingBlock: XIVTED_clean_linker_0, # of connection points: 2
#     Edge 130, Type (0, 1), BuildingBlock: XIVTED_clean_linker_0, # of connection points: 2
#     Edge 131, Type (0, 1), BuildingBlock: XIVTED_clean_linker_0, # of connection points: 2
#     Edge 132, Type (0, 1), BuildingBlock: XIVTED_clean_linker_0, # of connection points: 2
#     Edge 133, Type (0, 1), BuildingBlock: XIVTED_clean_linker_0, # of connection points: 2
#     Edge 134, Type (0, 1), BuildingBlock: XIVTED_clean_linker_0, # of connection points: 2
#     Edge 135, Type (0, 1), BuildingBlock: XIVTED_clean_linker_0, # of connection points: 2
#     Edge 136, Type (0, 1), BuildingBlock: XIVTED_clean_linker_0, # of connection points: 2
#     Edge 137, Type (0, 1), BuildingBlock: XIVTED_clean_linker_0, # of connection points: 2
#     Edge 138, Type (0, 1), BuildingBlock: XIVTED_clean_linker_0, # of connection points: 2
#     Edge 139, Type (0, 1), BuildingBlock: XIVTED_clean_linker_0, # of connection points: 2
#     Edge 140, Type (0, 1), BuildingBlock: XIVTED_clean_linker_0, # of connection points: 2
#     Edge 141, Type (0, 1), BuildingBlock: XIVTED_clean_linker_0, # of connection points: 2
#     Edge 142, Type (0, 1), BuildingBlock: XIVTED_clean_linker_0, # of connection points: 2
#     Edge 143, Type (0, 1), BuildingBlock: XIVTED_clean_linker_0, # of connection points: 2
#     Edge 144, Type (0, 1), BuildingBlock: XIVTED_clean_linker_0, # of connection points: 2
#     Edge 145, Type (0, 1), BuildingBlock: XIVTED_clean_linker_0, # of connection points: 2
#     Edge 146, Type (0, 1), BuildingBlock: XIVTED_clean_linker_0, # of connection points: 2
#     Edge 147, Type (0, 1), BuildingBlock: XIVTED_clean_linker_0, # of connection points: 2
#     Edge 148, Type (0, 1), BuildingBlock: XIVTED_clean_linker_0, # of connection points: 2
#     Edge 149, Type (0, 1), BuildingBlock: XIVTED_clean_linker_0, # of connection points: 2
#     Edge 150, Type (0, 1), BuildingBlock: XIVTED_clean_linker_0, # of connection points: 2
#     Edge 151, Type (0, 1), BuildingBlock: XIVTED_clean_linker_0, # of connection points: 2
# Relax obj value: 0.003
# Max RMSD: 0.123
# Mean RMSD: 0.049
data_MOF--net-tbo--node1-ESEHIV_clean_sbu_0--node2-ESEHIV_clean_linker_0--edge1-XIVTED_clean_linker_0
_symmetry_space_group_name_H-M    P1
_symmetry_Int_Tables_number       1
_symmetry_cell_setting            triclinic
loop_
_symmetry_equiv_pos_as_xyz
'x, y, z'
_cell_length_a     70.47837
_cell_length_b     70.371746
_cell_length_c     70.506517
_cell_angle_alpha  90.187196
_cell_angle_beta   92.566887
_cell_angle_gamma 90.930706
loop_
_atom_site_label
_atom_site_type_symbol
_atom_site_fract_x
_atom_site_fract_y
_atom_site_fract_z
_atom_type_partial_charge
H0 H 0.15675 0.19585 0.18554 0.0
H1 H 0.1998 0.15438 0.17672 0.0
H2 H 0.15888 0.14501 0.21923 0.0
C3 C 0.16336 0.1825 0.18926 0.0
C4 C 0.15583 0.17121 0.20364 0.0
C5 C 0.17928 0.17663 0.17952 0.0
C6 C 0.18779 0.15924 0.1844 0.0
C7 C 0.18025 0.1476 0.19845 0.0
C8 C 0.16438 0.15376 0.20804 0.0
H9 H 0.84977 0.18153 0.19731 0.0
H10 H 0.86069 0.22605 0.15729 0.0
H11 H 0.81028 0.19103 0.15021 0.0
C12 C 0.8456 0.18943 0.18468 0.0
C13 C 0.82875 0.18423 0.17434 0.0
C14 C 0.85722 0.20461 0.17875 0.0
C15 C 0.85161 0.21472 0.16229 0.0
C16 C 0.83481 0.20978 0.15175 0.0
C17 C 0.82349 0.19458 0.15797 0.0
H18 H 0.81208 0.89977 0.16112 0.0
H19 H 0.85758 0.85991 0.15909 0.0
H20 H 0.85189 0.89422 0.20894 0.0
C21 C 0.82438 0.89313 0.16787 0.0
C22 C 0.83072 0.8987 0.18636 0.0
C23 C 0.83409 0.8792 0.15792 0.0
C24 C 0.85002 0.87059 0.16673 0.0
C25 C 0.85646 0.87585 0.18516 0.0
C26 C 0.84678 0.88994 0.19481 0.0
H27 H 0.13968 0.84995 0.19419 0.0
H28 H 0.19121 0.85833 0.16461 0.0
H29 H 0.15065 0.81496 0.146 0.0
C30 C 0.14875 0.84629 0.18276 0.0
C31 C 0.14314 0.83144 0.17028 0.0
C32 C 0.16618 0.85598 0.18101 0.0
C33 C 0.17786 0.8508 0.16623 0.0
C34 C 0.17246 0.83603 0.15348 0.0
C35 C 0.15514 0.82621 0.15581 0.0
H36 H 0.15567 0.85329 0.81423 0.0
H37 H 0.16117 0.80741 0.85399 0.0
H38 H 0.19842 0.85647 0.85959 0.0
C39 C 0.16263 0.84718 0.82673 0.0
C40 C 0.17788 0.85707 0.836 0.0
C41 C 0.15656 0.82927 0.83295 0.0
C42 C 0.16564 0.82132 0.84922 0.0
C43 C 0.18075 0.83103 0.85908 0.0
C44 C 0.18671 0.84895 0.85231 0.0
H45 H 0.20401 0.20355 0.90033 0.0
H46 H 0.23972 0.15495 0.89664 0.0
H47 H 0.19552 0.16411 0.85369 0.0
C48 C 0.20792 0.19078 0.89291 0.0
C49 C 0.19769 0.18517 0.87615 0.0
C50 C 0.22299 0.1799 0.90044 0.0
C51 C 0.22799 0.16329 0.89096 0.0
C52 C 0.2184 0.15768 0.8739 0.0
C53 C 0.20331 0.16873 0.86653 0.0
H54 H 0.84724 0.17114 0.86329 0.0
H55 H 0.89375 0.16144 0.82708 0.0
H56 H 0.89386 0.21125 0.86258 0.0
C57 C 0.86068 0.17569 0.8578 0.0
C58 C 0.86936 0.19268 0.86449 0.0
C59 C 0.86931 0.16433 0.84431 0.0
C60 C 0.88679 0.17027 0.83721 0.0
C61 C 0.89587 0.18703 0.84405 0.0
C62 C 0.88701 0.19816 0.85757 0.0
H63 H 0.85806 0.86982 0.84041 0.0
H64 H 0.89995 0.82635 0.84472 0.0
H65 H 0.89388 0.85956 0.79363 0.0
C66 C 0.86939 0.86199 0.83421 0.0
C67 C 0.87478 0.86639 0.81572 0.0
C68 C 0.87865 0.84782 0.84489 0.0
C69 C 0.89338 0.83788 0.83682 0.0
C70 C 0.89906 0.84191 0.81838 0.0
C71 C 0.88974 0.85635 0.8079 0.0
H72 H 0.18997 0.69538 0.62769 0.0
H73 H 0.23827 0.65871 0.62966 0.0
H74 H 0.19505 0.65161 0.67017 0.0
C75 C 0.19774 0.6838 0.63428 0.0
C76 C 0.1902 0.67405 0.64979 0.0
C77 C 0.21495 0.67806 0.62675 0.0
C78 C 0.2248 0.66282 0.63513 0.0
C79 C 0.21783 0.65334 0.65089 0.0
C80 C 0.20053 0.659 0.65806 0.0
H81 H 0.87277 0.67487 0.66944 0.0
H82 H 0.87248 0.71712 0.62549 0.0
H83 H 0.82401 0.67995 0.63096 0.0
C84 C 0.86551 0.68188 0.6576 0.0
C85 C 0.84716 0.67564 0.65146 0.0
C86 C 0.87475 0.6969 0.64836 0.0
C87 C 0.86537 0.70571 0.63279 0.0
C88 C 0.84709 0.69954 0.62631 0.0
C89 C 0.83808 0.6847 0.63589 0.0
H90 H 0.84144 0.38877 0.69484 0.0
H91 H 0.88609 0.34789 0.70049 0.0
H92 H 0.8808 0.39087 0.74331 0.0
C93 C 0.85364 0.38313 0.70271 0.0
C94 C 0.85998 0.39179 0.71997 0.0
C95 C 0.86298 0.36724 0.69553 0.0
C96 C 0.87882 0.36008 0.70591 0.0
C97 C 0.88539 0.36847 0.72316 0.0
C98 C 0.87584 0.3843 0.73004 0.0
H99 H 0.16577 0.37936 0.71946 0.0
H100 H 0.20406 0.38582 0.67422 0.0
H101 H 0.1645 0.33861 0.67352 0.0
C102 C 0.17115 0.37428 0.70623 0.0
C103 C 0.16327 0.3577 0.69754 0.0
C104 C 0.18568 0.38461 0.69777 0.0
C105 C 0.19257 0.37807 0.68061 0.0
C106 C 0.18516 0.36146 0.67181 0.0
C107 C 0.17061 0.35119 0.68046 0.0
H108 H 0.15058 0.36291 0.33329 0.0
H109 H 0.14179 0.31832 0.37381 0.0
H110 H 0.19283 0.35232 0.37803 0.0
C111 C 0.15564 0.35476 0.34545 0.0
C112 C 0.17313 0.35968 0.35492 0.0
C113 C 0.14415 0.33992 0.35228 0.0
C114 C 0.15044 0.32985 0.36852 0.0
C115 C 0.168 0.33418 0.37776 0.0
C116 C 0.17928 0.34897 0.3708 0.0
H117 H 0.16454 0.70199 0.35479 0.0
H118 H 0.20603 0.65796 0.35682 0.0
H119 H 0.1607 0.65691 0.31351 0.0
C120 C 0.16993 0.68888 0.34915 0.0
C121 C 0.16063 0.68038 0.33323 0.0
C122 C 0.18621 0.68094 0.35781 0.0
C123 C 0.1935 0.66423 0.35012 0.0
C124 C 0.18441 0.65541 0.33402 0.0
C125 C 0.16808 0.66377 0.32555 0.0
H126 H 0.82357 0.67341 0.34925 0.0
H127 H 0.86382 0.65945 0.30735 0.0
H128 H 0.87035 0.71152 0.33913 0.0
C129 C 0.83596 0.67718 0.34143 0.0
C130 C 0.84621 0.69404 0.34596 0.0
C131 C 0.84225 0.66456 0.32758 0.0
C132 C 0.85878 0.66915 0.31791 0.0
C133 C 0.86905 0.68602 0.32216 0.0
C134 C 0.86259 0.69835 0.33608 0.0
H135 H 0.81903 0.37437 0.38493 0.0
H136 H 0.85242 0.32455 0.39576 0.0
H137 H 0.86165 0.35865 0.34635 0.0
C138 C 0.83004 0.36479 0.38084 0.0
C139 C 0.83998 0.36851 0.36436 0.0
C140 C 0.83431 0.34884 0.39215 0.0
C141 C 0.84875 0.33655 0.3868 0.0
C142 C 0.85902 0.34017 0.37049 0.0
C143 C 0.85433 0.35608 0.35932 0.0
H144 H 0.67702 0.19703 0.66699 0.0
H145 H 0.72657 0.16196 0.66585 0.0
H146 H 0.68544 0.15255 0.70804 0.0
C147 C 0.68554 0.18562 0.67288 0.0
C148 C 0.67913 0.17539 0.68855 0.0
C149 C 0.70255 0.1808 0.66438 0.0
C150 C 0.7132 0.16553 0.67187 0.0
C151 C 0.70718 0.15533 0.68767 0.0
C152 C 0.69012 0.16035 0.69583 0.0
H153 H 0.36145 0.16972 0.70005 0.0
H154 H 0.36564 0.21417 0.65853 0.0
H155 H 0.31684 0.17658 0.65724 0.0
C156 C 0.35557 0.17725 0.68782 0.0
C157 C 0.33789 0.17137 0.67958 0.0
C158 C 0.36582 0.19263 0.68024 0.0
C159 C 0.3579 0.20232 0.66442 0.0
C160 C 0.34018 0.19666 0.656 0.0
C161 C 0.33039 0.18116 0.6637 0.0
H162 H 0.31931 0.88662 0.67443 0.0
H163 H 0.36174 0.8434 0.6711 0.0
H164 H 0.36296 0.88201 0.71851 0.0
C165 C 0.33197 0.8798 0.68018 0.0
C166 C 0.34009 0.88594 0.69779 0.0
C167 C 0.33966 0.86443 0.67035 0.0
C168 C 0.35573 0.85526 0.67845 0.0
C169 C 0.36408 0.86129 0.69603 0.0
C170 C 0.35623 0.87677 0.70535 0.0
H171 H 0.65308 0.86141 0.69245 0.0
H172 H 0.70038 0.8704 0.65699 0.0
H173 H 0.66022 0.82479 0.64442 0.0
C174 C 0.66117 0.85732 0.68042 0.0
C175 C 0.65497 0.84168 0.66919 0.0
C176 C 0.6775 0.86785 0.67611 0.0
C177 C 0.68753 0.86261 0.66019 0.0
C178 C 0.68142 0.84725 0.64851 0.0
C179 C 0.66526 0.83655 0.65335 0.0
H180 H 0.63467 0.86525 0.30768 0.0
H181 H 0.64559 0.82344 0.3508 0.0
H182 H 0.68215 0.87275 0.34782 0.0
C183 C 0.64335 0.86033 0.31969 0.0
C184 C 0.65909 0.87133 0.32661 0.0
C185 C 0.63833 0.84319 0.32853 0.0
C186 C 0.64918 0.83693 0.3444 0.0
C187 C 0.6651 0.84742 0.35144 0.0
C188 C 0.66987 0.86462 0.34248 0.0
H189 H 0.67542 0.2121 0.38106 0.0
H190 H 0.71499 0.16608 0.37952 0.0
H191 H 0.67088 0.17054 0.336 0.0
C192 C 0.68044 0.19936 0.37439 0.0
C193 C 0.67121 0.19262 0.35745 0.0
C194 C 0.69628 0.18986 0.38258 0.0
C195 C 0.70257 0.17329 0.37372 0.0
C196 C 0.69358 0.16633 0.3569 0.0
C197 C 0.67799 0.1761 0.34884 0.0
H198 H 0.31567 0.17375 0.37242 0.0
H199 H 0.35347 0.15909 0.32859 0.0
H200 H 0.36378 0.20989 0.36176 0.0
C201 C 0.32821 0.17684 0.36456 0.0
C202 C 0.33914 0.19331 0.36892 0.0
C203 C 0.3332 0.16441 0.35 0.0
C204 C 0.3495 0.16856 0.33984 0.0
C205 C 0.36061 0.18496 0.34397 0.0
C206 C 0.35531 0.1972 0.35855 0.0
H207 H 0.33313 0.86444 0.36004 0.0
H208 H 0.37724 0.82434 0.35043 0.0
H209 H 0.36834 0.87117 0.31221 0.0
C210 C 0.34485 0.85975 0.35186 0.0
C211 C 0.34958 0.8699 0.3355 0.0
C212 C 0.35468 0.84325 0.35744 0.0
C213 C 0.36936 0.83684 0.3462 0.0
C214 C 0.37443 0.84692 0.32991 0.0
C215 C 0.36446 0.86338 0.32473 0.0
H216 H 0.67899 0.71502 0.13807 0.0
H217 H 0.72353 0.67478 0.14628 0.0
H218 H 0.67334 0.66963 0.17862 0.0
C219 C 0.68444 0.70244 0.14512 0.0
C220 C 0.67391 0.69332 0.15909 0.0
C221 C 0.70236 0.69584 0.14066 0.0
C222 C 0.70965 0.67979 0.14984 0.0
C223 C 0.69924 0.67004 0.16336 0.0
C224 C 0.68148 0.67709 0.16821 0.0
H225 H 0.36285 0.65887 0.19489 0.0
H226 H 0.36182 0.69359 0.14509 0.0
H227 H 0.31409 0.65643 0.15583 0.0
C228 C 0.35544 0.66364 0.182 0.0
C229 C 0.33722 0.65636 0.17704 0.0
C230 C 0.36432 0.67697 0.17057 0.0
C231 C 0.35491 0.68311 0.15379 0.0
C232 C 0.3368 0.67565 0.1481 0.0
C233 C 0.32799 0.66228 0.15994 0.0
H234 H 0.3316 0.36578 0.19002 0.0
H235 H 0.3772 0.32602 0.19366 0.0
H236 H 0.37639 0.37274 0.23317 0.0
C237 C 0.34451 0.36076 0.19713 0.0
C238 C 0.35263 0.37111 0.21262 0.0
C239 C 0.35319 0.34446 0.19018 0.0
C240 C 0.3705 0.33869 0.19878 0.0
C241 C 0.37902 0.3488 0.21429 0.0
C242 C 0.36991 0.36492 0.22123 0.0
H243 H 0.66014 0.37695 0.20262 0.0
H244 H 0.70322 0.38028 0.16117 0.0
H245 H 0.66172 0.33484 0.15856 0.0
C246 C 0.6668 0.37124 0.19032 0.0
C247 C 0.65919 0.35466 0.18154 0.0
C248 C 0.68253 0.38081 0.18293 0.0
C249 C 0.69077 0.37336 0.16666 0.0
C250 C 0.68345 0.35668 0.15783 0.0
C251 C 0.66758 0.34761 0.16533 0.0
H252 H 0.65515 0.3685 0.80379 0.0
H253 H 0.66278 0.3288 0.84959 0.0
H254 H 0.70111 0.37663 0.84533 0.0
C255 C 0.663 0.36387 0.81645 0.0
C256 C 0.67921 0.37425 0.8231 0.0
C257 C 0.65673 0.34766 0.82613 0.0
C258 C 0.66715 0.34167 0.8425 0.0
C259 C 0.68335 0.35187 0.84952 0.0
C260 C 0.68913 0.36821 0.83972 0.0
H261 H 0.68762 0.71913 0.87326 0.0
H262 H 0.73535 0.68202 0.87348 0.0
H263 H 0.69018 0.67584 0.83034 0.0
C264 C 0.69477 0.7072 0.86714 0.0
C265 C 0.68669 0.69812 0.85091 0.0
C266 C 0.71224 0.70156 0.87534 0.0
C267 C 0.72195 0.68658 0.86701 0.0
C268 C 0.71398 0.67695 0.85088 0.0
C269 C 0.69638 0.68297 0.84284 0.0
H270 H 0.3432 0.66941 0.85747 0.0
H271 H 0.38558 0.66496 0.8157 0.0
H272 H 0.38998 0.70955 0.85745 0.0
C273 C 0.35615 0.67461 0.85142 0.0
C274 C 0.36585 0.6905 0.85961 0.0
C275 C 0.363 0.66546 0.8354 0.0
C276 C 0.37988 0.67226 0.82768 0.0
C277 C 0.38982 0.68802 0.83563 0.0
C278 C 0.38268 0.69705 0.85158 0.0
H279 H 0.33857 0.36179 0.87572 0.0
H280 H 0.37346 0.31302 0.88661 0.0
H281 H 0.38317 0.34868 0.83849 0.0
C282 C 0.35016 0.35281 0.87195 0.0
C283 C 0.36063 0.3574 0.85603 0.0
C284 C 0.35452 0.3367 0.883 0.0
C285 C 0.36964 0.32514 0.8779 0.0
C286 C 0.38025 0.32945 0.86198 0.0
C287 C 0.37553 0.34557 0.85113 0.0
Cu288 Cu 0.27565 0.26812 0.04155 0.0
N289 N 0.27497 0.28834 0.02446 0.0
N290 N 0.28275 0.3049 0.99881 0.0
C291 C 0.28543 0.28887 0.00896 0.0
C292 C 0.27008 0.31494 0.0084 0.0
C293 C 0.26523 0.30463 0.02421 0.0
O294 O 0.28224 0.24665 0.02578 0.0
C295 C 0.28775 0.28761 0.0735 0.0
O296 O 0.27133 0.29544 0.0692 0.0
H297 H 0.29513 0.27777 1.00542 0.0
H298 H 0.25534 0.30873 0.03472 0.0
N299 N 0.2521 0.26334 0.052 0.0
N300 N 0.23131 0.25207 0.07247 0.0
C301 C 0.24978 0.2539 0.06833 0.0
C302 C 0.23453 0.26781 0.0455 0.0
C303 C 0.22165 0.26086 0.05808 0.0
C304 C 0.27296 0.23096 0.02481 0.0
O305 O 0.2615 0.22651 0.03832 0.0
H306 H 0.26153 0.24807 0.07667 0.0
H307 H 0.23131 0.27545 0.03249 0.0
O308 O 0.29356 0.27464 0.0626 0.0
H309 H 0.26454 0.32863 1.0042 0.0
H310 H 0.20639 0.26226 0.05669 0.0
Cu311 Cu 0.76683 0.28511 0.99952 0.0
N312 N 0.74458 0.28824 0.01471 0.0
N313 N 0.72676 0.29694 0.03852 0.0
C314 C 0.74294 0.30025 0.02944 0.0
C315 C 0.71788 0.28239 0.02901 0.0
C316 C 0.72893 0.27706 0.01431 0.0
O317 O 0.78051 0.27244 0.02212 0.0
C318 C 0.7578 0.31116 0.96762 0.0
O319 O 0.77354 0.32011 0.97336 0.0
H320 H 0.75383 0.3105 0.034 0.0
H321 H 0.72613 0.26541 1.00447 0.0
N322 N 0.78936 0.28206 0.98467 0.0
N323 N 0.81005 0.27084 0.96451 0.0
C324 C 0.79231 0.26918 0.97098 0.0
C325 C 0.80563 0.29219 0.98697 0.0
C326 C 0.81841 0.28534 0.97454 0.0
C327 C 0.78969 0.28154 0.03529 0.0
O328 O 0.79122 0.30013 0.03426 0.0
H329 H 0.78184 0.25858 0.96622 0.0
H330 H 0.80803 0.30368 0.99707 0.0
O331 O 0.75234 0.29651 0.97658 0.0
H332 H 0.70455 0.27581 0.03266 0.0
H333 H 0.83272 0.29072 0.97296 0.0
Cu334 Cu 0.79595 0.79065 0.00767 0.0
N335 N 0.81825 0.79391 0.99473 0.0
N336 N 0.83676 0.80209 0.97104 0.0
C337 C 0.81909 0.80231 0.97769 0.0
C338 C 0.84746 0.79318 0.98459 0.0
C339 C 0.83596 0.78809 0.99918 0.0
O340 O 0.77616 0.78788 0.98766 0.0
C341 C 0.8047 0.82483 0.02845 0.0
O342 O 0.81785 0.82721 0.01602 0.0
H343 H 0.80687 0.8085 0.97039 0.0
H344 H 0.84014 0.78047 0.01195 0.0
N345 N 0.79634 0.76796 0.02112 0.0
N346 N 0.786 0.74684 0.04195 0.0
C347 C 0.78855 0.76541 0.03802 0.0
C348 C 0.79909 0.75042 0.01422 0.0
C349 C 0.79263 0.73731 0.02705 0.0
C350 C 0.76181 0.77679 0.98883 0.0
O351 O 0.7574 0.77022 1.00551 0.0
H352 H 0.78301 0.7769 0.04627 0.0
H353 H 0.80385 0.74743 1.00016 0.0
O354 O 0.79287 0.81101 0.02626 0.0
H355 H 0.86241 0.79013 0.98386 0.0
H356 H 0.79175 0.72206 0.02506 0.0
Cu357 Cu 0.2702 0.76569 1.00598 0.0
N358 N 0.26769 0.78598 0.02287 0.0
N359 N 0.25582 0.80212 0.04696 0.0
C360 C 0.25545 0.78568 0.03699 0.0
C361 C 0.26888 0.81323 0.03868 0.0
C362 C 0.27619 0.80323 0.02384 0.0
O363 O 0.27083 0.74289 0.0221 0.0
C364 C 0.25322 0.78296 0.97543 0.0
O365 O 0.26756 0.79432 0.98045 0.0
H366 H 0.24614 0.77368 0.03957 0.0
H367 H 0.28675 0.8083 0.01433 0.0
N368 N 0.293 0.76605 0.99317 0.0
N369 N 0.31312 0.75794 0.97092 0.0
C370 C 0.29567 0.7553 0.97772 0.0
C371 C 0.30936 0.77592 0.99635 0.0
C372 C 0.32183 0.77089 0.98267 0.0
C373 C 0.28564 0.74263 0.03327 0.0
O374 O 0.29797 0.75677 0.03258 0.0
H375 H 0.28497 0.74553 0.97175 0.0
H376 H 0.3121 0.78596 0.00782 0.0
O377 O 0.25031 0.76826 0.98561 0.0
H378 H 0.27295 0.82754 0.04303 0.0
H379 H 0.3361 0.7765 0.98138 0.0
Cu380 Cu 1.00189 0.24913 0.28461 0.0
N381 N 0.01811 0.22826 0.28383 0.0
N382 N 0.04226 0.21068 0.27447 0.0
C383 C 0.0339 0.22783 0.27374 0.0
C384 C 0.03128 0.19991 0.28556 0.0
C385 C 0.01643 0.21075 0.29129 0.0
O386 O 0.01869 0.27157 0.28703 0.0
C387 C 0.97473 0.23247 0.26084 0.0
O388 O 0.97768 0.21941 0.27384 0.0
H389 H 0.03872 0.23973 0.26544 0.0
H390 H 1.00491 0.20591 0.29973 0.0
N391 N 0.98611 0.24911 0.30539 0.0
N392 N 0.96351 0.25936 0.32408 0.0
C393 C 0.97283 0.2623 0.30801 0.0
C394 C 0.98523 0.23739 0.32041 0.0
C395 C 0.97122 0.24363 0.33191 0.0
C396 C 0.02656 0.27391 0.30355 0.0
O397 O 0.02242 0.26185 0.31698 0.0
H398 H 0.97005 0.27381 0.29818 0.0
H399 H 0.99435 0.22544 0.32312 0.0
O400 O 0.98449 0.24791 0.26215 0.0
H401 H 0.03365 0.18518 0.28916 0.0
H402 H 0.96738 0.23738 0.34524 0.0
Cu403 Cu 0.73984 0.03234 0.25389 0.0
N404 N 0.73862 0.04953 0.2337 0.0
N405 N 0.74811 0.07414 0.21613 0.0
C406 C 0.74924 0.06561 0.23329 0.0
C407 C 0.73619 0.0629 0.20533 0.0
C408 C 0.73044 0.04769 0.21617 0.0
O409 O 0.74309 0.04867 0.27632 0.0
C410 C 0.76811 1.0027 0.25802 0.0
O411 O 0.76319 1.00038 0.27562 0.0
H412 H 0.75852 0.07029 0.24508 0.0
H413 H 0.72169 0.03573 0.21133 0.0
N414 N 0.71795 0.01672 0.25497 0.0
N415 N 0.69917 0.99219 0.26281 0.0
C416 C 0.71632 1.00086 0.26553 0.0
C417 C 0.70116 0.01815 0.24522 0.0
C418 C 0.68959 1.00299 0.24996 0.0
C419 C 0.73293 0.04784 0.29081 0.0
O420 O 0.72174 0.03302 0.2931 0.0
H421 H 0.72754 0.99565 0.27496 0.0
H422 H 0.69756 0.02938 0.23534 0.0
O423 O 0.7609 0.01607 0.24813 0.0
H424 H 0.73226 0.06515 0.19051 0.0
H425 H 0.67518 1.00028 0.24455 0.0
Cu426 Cu 1.00721 0.76865 0.24771 0.0
N427 N 0.99492 0.792 0.24802 0.0
N428 N 0.97268 0.81384 0.24204 0.0
C429 C 0.97712 0.79522 0.2412 0.0
C430 C 0.98841 0.82254 0.24987 0.0
C431 C 1.00209 0.80907 0.25345 0.0
O432 O 0.98813 0.74868 0.25146 0.0
C433 C 0.02034 0.77845 0.21127 0.0
O434 O 1.00549 0.78948 0.21003 0.0
H435 H 0.968 0.78413 0.23501 0.0
H436 H 0.01641 0.81163 0.25912 0.0
N437 N 0.02532 0.76711 0.26779 0.0
N438 N 0.0495 0.75576 0.2857 0.0
C439 C 0.03892 0.75392 0.26934 0.0
C440 C 0.02739 0.77776 0.28367 0.0
C441 C 0.04227 0.77076 0.29476 0.0
C442 C 0.9812 0.74923 0.26785 0.0
O443 O 0.98701 0.76279 0.27968 0.0
H444 H 0.04066 0.74289 0.25886 0.0
H445 H 0.01849 0.78953 0.28712 0.0
O446 O 0.02194 0.76678 0.225 0.0
H447 H 0.99016 0.8376 0.25263 0.0
H448 H 0.04736 0.7763 0.30843 0.0
Cu449 Cu 0.24414 1.00487 0.2811 0.0
N450 N 0.24422 0.02234 0.30116 0.0
N451 N 0.25368 0.04832 0.3176 0.0
C452 C 0.25504 0.03827 0.30141 0.0
C453 C 0.24145 0.03825 0.32802 0.0
C454 C 0.2356 0.02223 0.31781 0.0
O455 O 0.24226 0.02071 0.25832 0.0
C456 C 0.26883 0.98164 0.30047 0.0
O457 O 0.25623 0.98506 0.31316 0.0
H458 H 0.26423 0.04202 0.29006 0.0
H459 H 0.22615 0.01111 0.32246 0.0
N460 N 0.22389 0.98727 0.28048 0.0
N461 N 0.20627 0.96247 0.26966 0.0
C462 C 0.22277 0.97231 0.26852 0.0
C463 C 0.20755 0.98688 0.28968 0.0
C464 C 0.19661 0.9716 0.28297 0.0
C465 C 0.22558 0.02594 0.25307 0.0
O466 O 0.21103 0.019 0.26192 0.0
H467 H 0.23361 0.96922 0.25861 0.0
H468 H 0.20355 0.9973 0.29999 0.0
O469 O 0.26693 0.98958 0.28426 0.0
H470 H 0.23711 0.04209 0.34203 0.0
H471 H 0.18258 0.96768 0.2874 0.0
Cu472 Cu 0.03056 0.7409 0.73052 0.0
N473 N 0.04588 0.71984 0.7261 0.0
N474 N 0.07007 0.70378 0.71455 0.0
C475 C 0.06062 0.72034 0.71456 0.0
C476 C 0.06078 0.69238 0.72658 0.0
C477 C 0.04593 0.70234 0.73374 0.0
O478 O 0.04837 0.76152 0.73817 0.0
C479 C 1.00388 0.72825 0.70444 0.0
O480 O 0.00838 0.71298 0.71418 0.0
H481 H 0.06433 0.73275 0.70641 0.0
H482 H 0.03607 0.69729 0.74398 0.0
N483 N 0.01434 0.73874 0.75065 0.0
N484 N 0.9918 0.74949 0.7691 0.0
C485 C 0.9998 0.75071 0.75213 0.0
C486 C 0.0156 0.72936 0.76725 0.0
C487 C 1.00168 0.73603 0.77872 0.0
C488 C 0.05957 0.7563 0.75188 0.0
O489 O 0.05757 0.73902 0.75856 0.0
H490 H 0.9961 0.76117 0.74142 0.0
H491 H 0.02646 0.71925 0.77119 0.0
O492 O 0.01288 0.74377 0.70845 0.0
H493 H 0.0647 0.67804 0.73036 0.0
H494 H 0.99948 0.7318 0.79321 0.0
Cu495 Cu 0.25577 0.02249 0.76847 0.0
N496 N 0.25246 0.03909 0.74809 0.0
N497 N 0.26021 0.06306 0.72897 0.0
C498 C 0.26298 0.05506 0.74623 0.0
C499 C 0.24732 0.05162 0.71962 0.0
C500 C 0.24263 0.03679 0.73143 0.0
O501 O 0.26089 0.03924 0.79027 0.0
C502 C 0.28448 0.99322 0.77056 0.0
O503 O 0.28122 0.99117 0.78864 0.0
H504 H 0.27341 0.05995 0.75696 0.0
H505 H 0.2335 0.02473 0.72776 0.0
N506 N 0.23422 1.007 0.77174 0.0
N507 N 0.21635 0.9824 0.7809 0.0
C508 C 0.23366 0.99087 0.782 0.0
C509 C 0.21655 0.00882 0.76394 0.0
C510 C 0.20552 0.99358 0.76947 0.0
C511 C 0.25217 0.0384 0.80569 0.0
O512 O 0.24163 0.02338 0.80919 0.0
H513 H 0.24578 0.98526 0.78991 0.0
H514 H 0.21202 0.02032 0.75477 0.0
O515 O 0.27625 1.00629 0.76108 0.0
H516 H 0.24205 0.05346 0.7051 0.0
H517 H 0.1907 0.99098 0.76547 0.0
Cu518 Cu 0.0413 0.27569 0.79682 0.0
N519 N 0.02492 0.29627 0.79946 0.0
N520 N 1.00023 0.31511 0.79245 0.0
C521 C 0.00864 0.2984 0.78895 0.0
C522 C 0.01172 0.3238 0.80578 0.0
C523 C 0.0269 0.31219 0.81005 0.0
O524 O 0.02452 0.25327 0.7958 0.0
C525 C 0.06494 0.29654 0.77553 0.0
O526 O 0.06388 0.30678 0.79103 0.0
H527 H 1.0035 0.28814 0.77839 0.0
H528 H 0.03885 0.31554 0.81967 0.0
N529 N 0.05923 0.27304 0.81723 0.0
N530 N 0.08404 0.2617 0.83449 0.0
C531 C 0.07418 0.26127 0.81757 0.0
C532 C 0.05968 0.28126 0.83451 0.0
C533 C 0.07491 0.27433 0.84514 0.0
C534 C 0.01775 0.24898 0.81175 0.0
O535 O 0.02338 0.25895 0.82679 0.0
H536 H 0.07738 0.25216 0.80578 0.0
H537 H 0.04935 0.29114 0.83932 0.0
O538 O 0.0558 0.28076 0.77436 0.0
H539 H 0.00948 0.33767 0.81188 0.0
H540 H 0.07885 0.27828 0.85964 0.0
Cu541 Cu 0.77955 0.00884 0.76406 0.0
N542 N 0.78623 0.02142 0.78685 0.0
N543 N 0.79966 0.04414 0.80553 0.0
C544 C 0.79735 0.03714 0.78771 0.0
C545 C 0.78968 0.0321 0.81636 0.0
C546 C 0.78143 0.01808 0.80479 0.0
O547 O 0.77668 0.02902 0.74506 0.0
C548 C 0.79682 0.97538 0.77226 0.0
O549 O 0.78347 0.97614 0.78464 0.0
H550 H 0.80359 0.04324 0.77534 0.0
H551 H 0.77248 1.00642 0.80916 0.0
N552 N 0.756 0.99617 0.76412 0.0
N553 N 0.73311 0.97573 0.75404 0.0
C554 C 0.74994 0.98397 0.75035 0.0
C555 C 0.74245 0.9958 0.777 0.0
C556 C 0.72832 0.98307 0.77085 0.0
C557 C 0.76472 0.0413 0.7501 0.0
O558 O 0.75599 0.03844 0.76595 0.0
H559 H 0.75812 0.98074 0.73816 0.0
H560 H 0.74289 1.00399 0.79001 0.0
O561 O 0.79857 0.98918 0.7607 0.0
H562 H 0.7881 0.03345 0.83149 0.0
H563 H 0.71556 0.9795 0.77815 0.0
Cu564 Cu 0.27829 0.78183 0.50214 0.0
N565 N 0.27599 0.80259 0.5185 0.0
N566 N 0.28148 0.82089 0.54434 0.0
C567 C 0.28488 0.80414 0.53578 0.0
C568 C 0.26995 0.83024 0.53183 0.0
C569 C 0.26659 0.81892 0.51592 0.0
O570 O 0.28193 0.76057 0.51957 0.0
C571 C 0.30584 0.77807 0.47278 0.0
O572 O 0.3017 0.75981 0.47222 0.0
H573 H 0.2941 0.79331 0.5417 0.0
H574 H 0.25809 0.82242 0.5033 0.0
N575 N 0.25594 0.77739 0.48718 0.0
N576 N 0.236 0.76375 0.46527 0.0
C577 C 0.2543 0.76656 0.47135 0.0
C578 C 0.23808 0.78189 0.49113 0.0
C579 C 0.22576 0.77355 0.47766 0.0
C580 C 0.2738 0.74436 0.51743 0.0
O581 O 0.26667 0.73932 0.50062 0.0
H582 H 0.26619 0.75979 0.46517 0.0
H583 H 0.23423 0.79001 0.5034 0.0
O584 O 0.2986 0.78851 0.48526 0.0
H585 H 0.26427 0.84424 0.53397 0.0
H586 H 0.21043 0.7743 0.47736 0.0
Cu587 Cu 0.76844 0.78862 0.49056 0.0
N588 N 0.78884 0.78941 0.47441 0.0
N589 N 0.80582 0.77962 0.45027 0.0
C590 C 0.78978 0.77722 0.45977 0.0
C591 C 0.81544 0.79398 0.45935 0.0
C592 C 0.80487 0.80008 0.47422 0.0
O593 O 0.74611 0.79066 0.47329 0.0
C594 C 0.78815 0.7657 0.51431 0.0
O595 O 0.7999 0.77997 0.5115 0.0
H596 H 0.77903 0.7664 0.45653 0.0
H597 H 0.80878 0.8112 0.48434 0.0
N598 N 0.76753 0.8083 0.50833 0.0
N599 N 0.7574 0.82305 0.53408 0.0
C600 C 0.75644 0.80714 0.52333 0.0
C601 C 0.77594 0.82559 0.50952 0.0
C602 C 0.76966 0.83476 0.5254 0.0
C603 C 0.74708 0.80592 0.4636 0.0
O604 O 0.7612 0.8179 0.4676 0.0
H605 H 0.74743 0.79492 0.52597 0.0
H606 H 0.78567 0.83125 0.49947 0.0
O607 O 0.77172 0.76577 0.50591 0.0
H608 H 0.82912 0.79966 0.45556 0.0
H609 H 0.77384 0.84892 0.53016 0.0
Cu610 Cu 0.78086 0.27856 0.53726 0.0
N611 N 0.78347 0.25892 0.51962 0.0
N612 N 0.77485 0.24092 0.49433 0.0
C613 C 0.77119 0.25654 0.50458 0.0
C614 C 0.79014 0.23309 0.50331 0.0
C615 C 0.79549 0.24428 0.51889 0.0
O616 O 0.77442 0.29984 0.52057 0.0
C617 C 0.76612 0.25432 0.56284 0.0
O618 O 0.78264 0.24692 0.55952 0.0
H619 H 0.75934 0.26583 0.50163 0.0
H620 H 0.80701 0.24167 0.52915 0.0
N621 N 0.80298 0.28411 0.55222 0.0
N622 N 0.82149 0.29668 0.57596 0.0
C623 C 0.80356 0.29417 0.56857 0.0
C624 C 0.82113 0.27998 0.54911 0.0
C625 C 0.83256 0.28767 0.5637 0.0
C626 C 0.78583 0.31377 0.51808 0.0
O627 O 0.7994 0.31745 0.53099 0.0
H628 H 0.79102 0.29997 0.57456 0.0
H629 H 0.82576 0.27218 0.53696 0.0
O630 O 0.76157 0.26976 0.55447 0.0
H631 H 0.79691 0.22018 0.499 0.0
H632 H 0.84785 0.28663 0.56507 0.0
Cu633 Cu 0.26266 0.28295 0.51589 0.0
N634 N 0.25879 0.30494 0.52993 0.0
N635 N 0.24828 0.3228 0.55345 0.0
C636 C 0.25069 0.30501 0.54684 0.0
C637 C 0.25532 0.33437 0.54009 0.0
C638 C 0.26179 0.32329 0.52559 0.0
O639 O 0.27047 0.26349 0.53407 0.0
C640 C 0.22499 0.28621 0.49933 0.0
O641 O 0.22189 0.29802 0.51326 0.0
H642 H 0.24594 0.29218 0.55372 0.0
H643 H 0.26784 0.32826 0.51264 0.0
N644 N 0.28173 0.28571 0.49854 0.0
N645 N 0.29831 0.27789 0.47348 0.0
C646 C 0.28307 0.27385 0.48371 0.0
C647 C 0.29661 0.29787 0.4977 0.0
C648 C 0.30698 0.29297 0.48225 0.0
C649 C 0.2868 0.26641 0.54216 0.0
O650 O 0.29668 0.28151 0.53743 0.0
H651 H 0.27327 0.26208 0.48085 0.0
H652 H 0.29988 0.30923 0.50775 0.0
O653 O 0.24025 0.27674 0.49976 0.0
H654 H 0.25566 0.34974 0.54062 0.0
H655 H 0.31986 0.29993 0.47785 0.0
Cu656 Cu 0.76571 0.53583 0.75909 0.0
N657 N 0.7653 0.55143 0.73764 0.0
N658 N 0.77483 0.57272 0.71642 0.0
C659 C 0.77983 0.56229 0.73184 0.0
C660 C 0.75648 0.568 0.71219 0.0
C661 C 0.75064 0.55489 0.72532 0.0
O662 O 0.76436 0.55225 0.78147 0.0
C663 C 0.79235 0.50609 0.76877 0.0
O664 O 0.78395 0.5047 0.78499 0.0
H665 H 0.79383 0.56254 0.7388 0.0
H666 H 0.73659 0.54859 0.72601 0.0
N667 N 0.74373 0.5205 0.75899 0.0
N668 N 0.72465 0.49563 0.76496 0.0
C669 C 0.74262 0.50162 0.76205 0.0
C670 C 0.72583 0.52668 0.75975 0.0
C671 C 0.71404 0.51142 0.76334 0.0
C672 C 0.77361 0.56778 0.78441 0.0
O673 O 0.78781 0.57207 0.7737 0.0
H674 H 0.75487 0.49261 0.76286 0.0
H675 H 0.72183 0.54144 0.75896 0.0
O676 O 0.78757 0.51929 0.75728 0.0
H677 H 0.74773 0.57401 0.7008 0.0
H678 H 0.69903 0.5122 0.7658 0.0
Cu679 Cu 0.29747 0.51354 0.75835 0.0
N680 N 0.3169 0.49605 0.76234 0.0
N681 N 0.33234 0.4712 0.77485 0.0
C682 C 0.3161 0.48116 0.77423 0.0
C683 C 0.3438 0.48025 0.76281 0.0
C684 C 0.33424 0.49556 0.75512 0.0
O685 O 0.2735 0.49932 0.75845 0.0
C686 C 0.3155 0.54453 0.77389 0.0
O687 O 0.32669 0.53947 0.76042 0.0
H688 H 0.30394 0.47803 0.78258 0.0
H689 H 0.33966 0.50572 0.74517 0.0
N690 N 0.29794 0.52546 0.73467 0.0
N691 N 0.28984 0.54666 0.71231 0.0
C692 C 0.28734 0.54064 0.73019 0.0
C693 C 0.30755 0.52161 0.71907 0.0
C694 C 0.30253 0.53467 0.70521 0.0
C695 C 0.27121 0.48822 0.74419 0.0
O696 O 0.28477 0.48721 0.73206 0.0
H697 H 0.2777 0.54689 0.73987 0.0
H698 H 0.31731 0.51003 0.71777 0.0
O699 O 0.30093 0.53415 0.77686 0.0
H700 H 0.35805 0.4761 0.75971 0.0
H701 H 0.30791 0.53532 0.69108 0.0
Cu702 Cu 0.26715 0.51068 0.2799 0.0
N703 N 0.26655 0.49442 0.30086 0.0
N704 N 0.25578 0.46997 0.3178 0.0
C705 C 0.25313 0.48072 0.30213 0.0
C706 C 0.27158 0.4773 0.32684 0.0
C707 C 0.27829 0.49233 0.31627 0.0
O708 O 0.27298 0.49339 0.25917 0.0
C709 C 0.24059 0.53281 0.29536 0.0
O710 O 0.25175 0.52835 0.31002 0.0
H711 H 0.24159 0.47874 0.29162 0.0
H712 H 0.29094 0.50084 0.31943 0.0
N713 N 0.2859 0.52979 0.28046 0.0
N714 N 0.30086 0.55523 0.26879 0.0
C715 C 0.2892 0.54018 0.26493 0.0
C716 C 0.29581 0.53849 0.29484 0.0
C717 C 0.30513 0.55418 0.28765 0.0
C718 C 0.29015 0.48777 0.26082 0.0
O719 O 0.30121 0.49486 0.27467 0.0
H720 H 0.28209 0.53735 0.25127 0.0
H721 H 0.29552 0.53435 0.30957 0.0
O722 O 0.24374 0.52544 0.27921 0.0
H723 H 0.27811 0.47191 0.33988 0.0
H724 H 0.31388 0.5643 0.29582 0.0
Cu725 Cu 0.77254 0.5189 0.26171 0.0
N726 N 0.79317 0.50281 0.26585 0.0
N727 N 0.8094 0.47861 0.27879 0.0
C728 C 0.79222 0.48662 0.27592 0.0
C729 C 0.82161 0.49023 0.26991 0.0
C730 C 0.81156 0.50516 0.26199 0.0
O731 O 0.75064 0.50223 0.25553 0.0
C732 C 0.78337 0.53731 0.29665 0.0
O733 O 0.79436 0.52265 0.2997 0.0
H734 H 0.77925 0.48151 0.28194 0.0
H735 H 0.81738 0.51722 0.25463 0.0
N736 N 0.77503 0.53528 0.24115 0.0
N737 N 0.76718 0.55933 0.22183 0.0
C738 C 0.76308 0.54969 0.23768 0.0
C739 C 0.78727 0.53575 0.22704 0.0
C740 C 0.7824 0.55057 0.21504 0.0
C741 C 0.75175 0.49396 0.23948 0.0
O742 O 0.76662 0.49753 0.22942 0.0
H743 H 0.75127 0.5527 0.24646 0.0
H744 H 0.79868 0.52588 0.22539 0.0
O745 O 0.77084 0.53656 0.28303 0.0
H746 H 0.8368 0.48839 0.26949 0.0
H747 H 0.78955 0.55457 0.20235 0.0
Cu748 Cu 0.51902 0.24051 0.76996 0.0
N749 N 0.5047 0.2396 0.79175 0.0
N750 N 0.48348 0.24951 0.81215 0.0
C751 C 0.49236 0.25322 0.79597 0.0
C752 C 0.4905 0.23282 0.81839 0.0
C753 C 0.50367 0.22677 0.80582 0.0
O754 O 0.50013 0.23917 0.74872 0.0
C755 C 0.54454 0.26452 0.78794 0.0
O756 O 0.54251 0.25081 0.80033 0.0
H757 H 0.48979 0.26552 0.78711 0.0
H758 H 0.51194 0.21404 0.80707 0.0
N759 N 0.53615 0.22053 0.76761 0.0
N760 N 0.56113 0.20498 0.75699 0.0
C761 C 0.55152 0.22146 0.7569 0.0
C762 C 0.53602 0.20284 0.77479 0.0
C763 C 0.55137 0.19324 0.76829 0.0
C764 C 0.49126 0.22323 0.74741 0.0
O765 O 0.49617 0.20972 0.75935 0.0
H766 H 0.55524 0.2339 0.74881 0.0
H767 H 0.52533 0.19705 0.78373 0.0
O768 O 0.5349 0.26352 0.77219 0.0
H769 H 0.48663 0.22565 0.83125 0.0
H770 H 0.55499 0.17872 0.77165 0.0
Cu771 Cu 0.52694 0.77535 0.76519 0.0
N772 N 0.54599 0.77608 0.78469 0.0
N773 N 0.57123 0.76633 0.80227 0.0
C774 C 0.56087 0.76425 0.78578 0.0
C775 C 0.56259 0.78012 0.81186 0.0
C776 C 0.54707 0.78608 0.80103 0.0
O777 O 0.54037 0.77605 0.7414 0.0
C778 C 0.50458 0.75231 0.78607 0.0
O779 O 0.50991 0.76573 0.79824 0.0
H780 H 0.56345 0.75367 0.77506 0.0
H781 H 0.53679 0.79623 0.80536 0.0
N782 N 0.51006 0.79573 0.76558 0.0
N783 N 0.48432 0.81263 0.75758 0.0
C784 C 0.49381 0.79643 0.75479 0.0
C785 C 0.51095 0.81217 0.77544 0.0
C786 C 0.49502 0.82256 0.77063 0.0
C787 C 0.54435 0.79246 0.73484 0.0
O788 O 0.53827 0.80756 0.74351 0.0
H789 H 0.48901 0.78518 0.74513 0.0
H790 H 0.52255 0.81666 0.78501 0.0
O791 O 0.51086 0.75296 0.76937 0.0
H792 H 0.56691 0.78527 0.8259 0.0
H793 H 0.49181 0.83655 0.77592 0.0
Cu794 Cu 0.51171 0.76083 0.23366 0.0
N795 N 0.4984 0.78344 0.23519 0.0
N796 N 0.47672 0.80304 0.24627 0.0
C797 C 0.4821 0.78484 0.24429 0.0
C798 C 0.49016 0.8135 0.23777 0.0
C799 C 0.50355 0.80135 0.23097 0.0
O800 O 0.49206 0.74102 0.23218 0.0
C801 C 0.52805 0.76895 0.2708 0.0
O802 O 0.51137 0.7755 0.27486 0.0
H803 H 0.47515 0.77273 0.25057 0.0
H804 H 0.51653 0.80534 0.22427 0.0
N805 N 0.52678 0.75983 0.21255 0.0
N806 N 0.55148 0.75173 0.19546 0.0
C807 C 0.54325 0.75043 0.21236 0.0
C808 C 0.52436 0.76746 0.19517 0.0
C809 C 0.53958 0.76245 0.18457 0.0
C810 C 0.49094 0.72788 0.2197 0.0
O811 O 0.5055 0.72477 0.20918 0.0
H812 H 0.54885 0.74248 0.22441 0.0
H813 H 0.51243 0.77603 0.19056 0.0
O814 O 0.52983 0.76004 0.25525 0.0
H815 H 0.49068 0.82885 0.23701 0.0
H816 H 0.54174 0.76659 0.17005 0.0
Cu817 Cu 0.522 0.25681 0.27269 0.0
N818 N 0.5059 0.23543 0.2726 0.0
N819 N 0.48043 0.21779 0.27939 0.0
C820 C 0.48937 0.23482 0.28141 0.0
C821 C 0.49189 0.20718 0.26892 0.0
C822 C 0.50759 0.21813 0.2647 0.0
O823 O 0.50526 0.27883 0.27373 0.0
C824 C 0.55403 0.24093 0.28847 0.0
O825 O 0.55068 0.23098 0.27285 0.0
H826 H 0.48419 0.24666 0.28941 0.0
H827 H 0.51935 0.21376 0.25647 0.0
N828 N 0.53475 0.25956 0.25014 0.0
N829 N 0.55531 0.27218 0.23031 0.0
C830 C 0.54838 0.27282 0.24782 0.0
C831 C 0.5329 0.25009 0.23353 0.0
C832 C 0.54556 0.25791 0.22121 0.0
C833 C 0.49448 0.28014 0.25874 0.0
O834 O 0.49563 0.26717 0.24543 0.0
H835 H 0.55285 0.28295 0.25877 0.0
H836 H 0.52298 0.23848 0.23052 0.0
O837 O 0.54224 0.25376 0.29259 0.0
H838 H 0.48906 0.19264 0.26446 0.0
H839 H 0.54754 0.25333 0.20678 0.0
H840 H 0.15899 0.19411 0.15063 0.0
H841 H 0.25013 0.24215 0.10556 0.0
H842 H 0.21633 0.1859 0.1727 0.0
H843 H 0.19492 0.23913 0.07641 0.0
H844 H 0.23746 0.2241 0.13166 0.0
H845 H 0.17137 0.21325 0.12488 0.0
C846 C 0.17418 0.19644 0.15013 0.0
C847 C 0.18665 0.18841 0.16387 0.0
C848 C 0.22812 0.22739 0.11953 0.0
C849 C 0.20093 0.21026 0.13436 0.0
C850 C 0.23537 0.23767 0.1045 0.0
C851 C 0.22369 0.24213 0.08848 0.0
C852 C 0.20897 0.22158 0.11875 0.0
C853 C 0.20452 0.23622 0.08839 0.0
C854 C 0.18125 0.20727 0.13536 0.0
C855 C 0.20622 0.19168 0.16234 0.0
N856 N 0.19779 0.22625 0.10325 0.0
N857 N 0.21275 0.2024 0.1479 0.0
H858 H 0.81982 0.19519 0.11808 0.0
H859 H 0.80822 0.29641 0.06726 0.0
H860 H 0.83693 0.24829 0.14502 0.0
H861 H 0.78931 0.24315 0.04176 0.0
H862 H 0.82008 0.27911 0.09531 0.0
H863 H 0.80967 0.21257 0.08961 0.0
C864 C 0.82137 0.21053 0.11806 0.0
C865 C 0.82913 0.22027 0.13409 0.0
C866 C 0.81339 0.27121 0.08355 0.0
C867 C 0.8177 0.24034 0.10128 0.0
C868 C 0.80663 0.28108 0.0675 0.0
C869 C 0.7977 0.27125 0.0521 0.0
C870 C 0.81123 0.25134 0.08425 0.0
C871 C 0.79605 0.25137 0.05327 0.0
C872 C 0.81566 0.22045 0.10172 0.0
C873 C 0.83116 0.24014 0.133 0.0
N874 N 0.8027 0.24211 0.06905 0.0
N875 N 0.82542 0.24951 0.11692 0.0
H876 H 0.85602 0.8789 0.12714 0.0
H877 H 0.7817 0.82253 0.05911 0.0
H878 H 0.79888 0.86726 0.14368 0.0
H879 H 0.83097 0.85224 0.03912 0.0
H880 H 0.78726 0.83799 0.0902 0.0
H881 H 0.84707 0.86812 0.09495 0.0
C882 C 0.84154 0.87413 0.12392 0.0
C883 C 0.82819 0.8739 0.13808 0.0
C884 C 0.79668 0.84128 0.07889 0.0
C885 C 0.81781 0.86133 0.10124 0.0
C886 C 0.7935 0.83249 0.06113 0.0
C887 C 0.80595 0.83597 0.04645 0.0
C888 C 0.81255 0.85342 0.08207 0.0
C889 C 0.82103 0.849 0.04996 0.0
C890 C 0.8364 0.86804 0.10553 0.0
C891 C 0.80957 0.8677 0.13313 0.0
N892 N 0.82402 0.85702 0.06742 0.0
N893 N 0.80496 0.86143 0.11515 0.0
H894 H 0.19165 0.86037 0.13046 0.0
H895 H 0.23866 0.77763 0.07092 0.0
H896 H 0.18147 0.80063 0.14019 0.0
H897 H 0.24639 0.83737 0.05926 0.0
H898 H 0.21828 0.78577 0.09669 0.0
H899 H 0.21235 0.85221 0.10489 0.0
C900 C 0.19384 0.84551 0.1273 0.0
C901 C 0.18483 0.83116 0.1376 0.0
C902 C 0.22443 0.7971 0.0885 0.0
C903 C 0.20847 0.8217 0.10809 0.0
C904 C 0.23603 0.79247 0.07366 0.0
C905 C 0.24425 0.80681 0.06271 0.0
C906 C 0.22095 0.81626 0.09253 0.0
C907 C 0.24056 0.8258 0.06733 0.0
C908 C 0.2056 0.84087 0.1126 0.0
C909 C 0.18796 0.81217 0.13256 0.0
N910 N 0.22918 0.82995 0.08183 0.0
N911 N 0.19954 0.80801 0.11822 0.0
H912 H 0.16563 0.81007 0.88819 0.0
H913 H 0.26574 0.80268 0.94561 0.0
H914 H 0.21899 0.83147 0.86853 0.0
H915 H 0.2157 0.77343 0.96427 0.0
H916 H 0.2481 0.81283 0.91728 0.0
H917 H 0.18276 0.7962 0.91581 0.0
C918 C 0.18093 0.81179 0.88957 0.0
C919 C 0.1908 0.82219 0.87597 0.0
C920 C 0.24086 0.80413 0.92743 0.0
C921 C 0.21046 0.80639 0.90771 0.0
C922 C 0.25096 0.79831 0.94373 0.0
C923 C 0.24219 0.78726 0.9575 0.0
C924 C 0.22158 0.79913 0.92468 0.0
C925 C 0.22304 0.7819 0.95403 0.0
C926 C 0.19067 0.80389 0.9054 0.0
C927 C 0.21061 0.82401 0.87873 0.0
N928 N 0.21329 0.78805 0.93802 0.0
N929 N 0.21968 0.81629 0.89421 0.0
H930 H 0.23101 0.15832 0.93195 0.0
H931 H 0.28389 0.24318 0.98999 0.0
H932 H 0.23841 0.21482 0.90968 0.0
H933 H 0.25666 0.1959 0.01736 0.0
H934 H 0.27429 0.22939 0.95911 0.0
H935 H 0.24682 0.1688 0.96203 0.0
C936 C 0.23614 0.17288 0.93335 0.0
C937 C 0.23331 0.18578 0.91839 0.0
C938 C 0.27066 0.22191 0.97189 0.0
C939 C 0.25151 0.19776 0.95257 0.0
C940 C 0.27629 0.22967 0.98955 0.0
C941 C 0.27093 0.22076 1.00636 0.0
C942 C 0.2598 0.20501 0.97097 0.0
C943 C 0.26098 0.20333 1.0048 0.0
C944 C 0.24508 0.17884 0.9505 0.0
C945 C 0.24013 0.2045 0.92095 0.0
N946 N 0.25563 0.19607 0.98742 0.0
N947 N 0.24893 0.20992 0.93771 0.0
H948 H 0.83155 0.20109 0.8668 0.0
H949 H 0.84755 0.26388 0.96129 0.0
H950 H 0.88624 0.21093 0.89549 0.0
H951 H 0.79219 0.25151 0.93513 0.0
H952 H 0.8619 0.24509 0.93681 0.0
H953 H 0.81682 0.21983 0.89126 0.0
C954 C 0.84047 0.20712 0.87827 0.0
C955 C 0.8602 0.20439 0.87905 0.0
C956 C 0.8466 0.24646 0.93639 0.0
C957 C 0.8434 0.22605 0.90704 0.0
C958 C 0.83838 0.25731 0.95034 0.0
C959 C 0.8186 0.2594 0.95027 0.0
C960 C 0.83501 0.2376 0.92215 0.0
C961 C 0.80746 0.25018 0.93587 0.0
C962 C 0.83204 0.21789 0.89219 0.0
C963 C 0.87104 0.21283 0.89412 0.0
N964 N 0.81582 0.23974 0.92237 0.0
N965 N 0.8625 0.22325 0.90749 0.0
H966 H 0.90119 0.84067 0.87668 0.0
H967 H 0.81442 0.80885 0.93931 0.0
H968 H 0.84242 0.84323 0.85708 0.0
H969 H 0.87258 0.81202 0.96127 0.0
H970 H 0.82449 0.82139 0.9092 0.0
H971 H 0.8911 0.83017 0.90774 0.0
C972 C 0.88615 0.83905 0.87893 0.0
C973 C 0.87263 0.84277 0.86422 0.0
C974 C 0.83505 0.81941 0.92062 0.0
C975 C 0.86096 0.83074 0.89978 0.0
C976 C 0.8293 0.81231 0.93794 0.0
C977 C 0.84264 0.8094 0.95304 0.0
C978 C 0.85433 0.82359 0.91822 0.0
C979 C 0.86179 0.81382 0.95006 0.0
C980 C 0.88039 0.83312 0.89669 0.0
C981 C 0.85333 0.84068 0.86803 0.0
N982 N 0.86706 0.82066 0.93301 0.0
N983 N 0.84808 0.8347 0.88539 0.0
H984 H 0.14769 0.20714 0.21618 0.0
H985 H 0.05116 0.17482 0.26377 0.0
H986 H 0.12544 0.14962 0.21473 0.0
H987 H 0.07116 0.23307 0.26234 0.0
H988 H 0.0788 0.16529 0.24664 0.0
H989 H 0.12009 0.21693 0.23342 0.0
C990 C 0.13697 0.19658 0.21937 0.0
C991 C 0.13898 0.17749 0.21398 0.0
C992 C 0.07716 0.18017 0.25007 0.0
C993 C 0.10738 0.18861 0.23398 0.0
C994 C 0.06141 0.18563 0.25999 0.0
C995 C 0.05874 0.20482 0.26457 0.0
C996 C 0.09049 0.19396 0.24467 0.0
C997 C 0.07244 0.21816 0.25896 0.0
C998 C 0.12125 0.20217 0.22933 0.0
C999 C 0.12471 0.16442 0.21881 0.0
N1000 N 0.0877 0.21249 0.24934 0.0
N1001 N 0.10957 0.17021 0.22851 0.0
H1002 H 0.81073 0.15676 0.15202 0.0
H1003 H 0.76392 0.10232 0.23857 0.0
H1004 H 0.81915 0.17431 0.21054 0.0
H1005 H 0.75734 0.08383 0.18018 0.0
H1006 H 0.78353 0.12909 0.22858 0.0
H1007 H 0.79052 0.13047 0.16205 0.0
C1008 C 0.80826 0.15517 0.16699 0.0
C1009 C 0.81666 0.16789 0.18043 0.0
C1010 C 0.77777 0.11919 0.21795 0.0
C1011 C 0.79355 0.13753 0.19208 0.0
C1012 C 0.7666 0.10381 0.22366 0.0
C1013 C 0.75895 0.09061 0.21025 0.0
C1014 C 0.78139 0.12152 0.19866 0.0
C1015 C 0.76271 0.09362 0.19106 0.0
C1016 C 0.79677 0.14005 0.17272 0.0
C1017 C 0.81317 0.1648 0.19966 0.0
N1018 N 0.77368 0.10867 0.18588 0.0
N1019 N 0.80188 0.15 0.20489 0.0
H1020 H 0.88668 0.89327 0.2043 0.0
H1021 H 0.93879 0.79642 0.23165 0.0
H1022 H 0.86503 0.83801 0.18662 0.0
H1023 H 0.96651 0.85163 0.23572 0.0
H1024 H 0.91042 0.81141 0.21813 0.0
H1025 H 0.9147 0.8782 0.21901 0.0
C1026 C 0.88778 0.87795 0.20361 0.0
C1027 C 0.87351 0.86687 0.19422 0.0
C1028 C 0.92275 0.82021 0.222 0.0
C1029 C 0.90555 0.84953 0.211 0.0
C1030 C 0.93908 0.81164 0.2297 0.0
C1031 C 0.95538 0.82264 0.2348 0.0
C1032 C 0.92253 0.83998 0.2195 0.0
C1033 C 0.95444 0.84243 0.2322 0.0
C1034 C 0.90383 0.86937 0.21191 0.0
C1035 C 0.87579 0.84709 0.19357 0.0
N1036 N 0.93834 0.85042 0.22475 0.0
N1037 N 0.89147 0.83905 0.2019 0.0
H1038 H 0.20184 0.86351 0.1969 0.0
H1039 H 0.16993 0.95204 0.25915 0.0
H1040 H 0.14429 0.88364 0.19644 0.0
H1041 H 0.22828 0.93617 0.25351 0.0
H1042 H 0.15989 0.92565 0.23812 0.0
H1043 H 0.21147 0.88894 0.21909 0.0
C1044 C 0.19123 0.87334 0.20135 0.0
C1045 C 0.17221 0.87141 0.19466 0.0
C1046 C 0.17489 0.92793 0.24151 0.0
C1047 C 0.18314 0.90049 0.22043 0.0
C1048 C 0.18063 0.94292 0.25364 0.0
C1049 C 0.2 0.94642 0.25805 0.0
C1050 C 0.18861 0.91624 0.23382 0.0
C1051 C 0.21323 0.93422 0.25028 0.0
C1052 C 0.19673 0.88781 0.21414 0.0
C1053 C 0.15906 0.88439 0.20133 0.0
N1054 N 0.2073 0.91972 0.23857 0.0
N1055 N 0.16476 0.89836 0.21381 0.0
H1056 H 0.15584 0.79145 0.8235 0.0
H1057 H 0.06087 0.79556 0.75611 0.0
H1058 H 0.1235 0.84262 0.81569 0.0
H1059 H 0.0924 0.74479 0.7688 0.0
H1060 H 0.08448 0.81396 0.77587 0.0
H1061 H 0.1329 0.77463 0.80241 0.0
C1062 C 0.14378 0.79911 0.81757 0.0
C1063 C 0.14165 0.8185 0.82146 0.0
C1064 C 0.08624 0.79881 0.77416 0.0
C1065 C 0.11538 0.79935 0.79677 0.0
C1066 C 0.07289 0.78838 0.76275 0.0
C1067 C 0.07464 0.76863 0.76091 0.0
C1068 C 0.1014 0.78936 0.7836 0.0
C1069 C 0.09037 0.75997 0.76997 0.0
C1070 C 0.13075 0.78954 0.80532 0.0
C1071 C 0.12586 0.82772 0.81294 0.0
N1072 N 0.10303 0.77032 0.78093 0.0
N1073 N 0.11337 0.81809 0.80099 0.0
H1074 H 0.22522 0.15307 0.8362 0.0
H1075 H 0.23954 0.0412 0.84178 0.0
H1076 H 0.22487 0.12248 0.88908 0.0
H1077 H 0.26023 0.07528 0.79607 0.0
H1078 H 0.23232 0.07037 0.8589 0.0
H1079 H 0.23559 0.12416 0.82037 0.0
C1080 C 0.22723 0.14024 0.84444 0.0
C1081 C 0.22418 0.14016 0.86397 0.0
C1082 C 0.23864 0.07145 0.84522 0.0
C1083 C 0.23603 0.10708 0.84601 0.0
C1084 C 0.24281 0.0548 0.83546 0.0
C1085 C 0.25052 0.05576 0.81746 0.0
C1086 C 0.24184 0.0892 0.83677 0.0
C1087 C 0.2544 0.07382 0.80994 0.0
C1088 C 0.2333 0.12381 0.83546 0.0
C1089 C 0.22718 0.12319 0.87402 0.0
N1090 N 0.24979 0.08981 0.81951 0.0
N1091 N 0.23281 0.10731 0.86492 0.0
H1092 H 0.92693 0.19541 0.86682 0.0
H1093 H 0.99004 0.23696 0.78509 0.0
H1094 H 0.90853 0.19123 0.80781 0.0
H1095 H 0.00974 0.22934 0.84331 0.0
H1096 H 0.96101 0.21857 0.79173 0.0
H1097 H 0.95799 0.20666 0.85751 0.0
C1098 C 0.9295 0.19684 0.85185 0.0
C1099 C 0.91512 0.19257 0.83807 0.0
C1100 C 0.97188 0.22067 0.80292 0.0
C1101 C 0.95077 0.2056 0.82717 0.0
C1102 C 0.98848 0.23103 0.7991 0.0
C1103 C 1.00221 0.23482 0.81373 0.0
C1104 C 0.96912 0.21417 0.82148 0.0
C1105 C 0.99942 0.22697 0.83167 0.0
C1106 C 0.94729 0.20318 0.8465 0.0
C1107 C 0.91929 0.19441 0.81885 0.0
N1108 N 0.98317 0.21724 0.83506 0.0
N1109 N 0.93669 0.20104 0.81394 0.0
H1110 H 0.88897 0.8971 0.79623 0.0
H1111 H 0.78499 0.93931 0.77719 0.0
H1112 H 0.83649 0.86937 0.8103 0.0
H1113 H 0.83566 0.97256 0.76822 0.0
H1114 H 0.80434 0.91165 0.78384 0.0
H1115 H 0.87056 0.92296 0.78118 0.0
C1116 C 0.87359 0.89633 0.79591 0.0
C1117 C 0.86422 0.88117 0.8047 0.0
C1118 C 0.81136 0.92487 0.78023 0.0
C1119 C 0.84317 0.91054 0.78754 0.0
C1120 C 0.80027 0.94068 0.77633 0.0
C1121 C 0.80874 0.95826 0.77225 0.0
C1122 C 0.83124 0.92658 0.78041 0.0
C1123 C 0.82859 0.95921 0.77123 0.0
C1124 C 0.86312 0.9111 0.7874 0.0
C1125 C 0.84431 0.8809 0.80395 0.0
N1126 N 0.83925 0.94362 0.77559 0.0
N1127 N 0.83452 0.89534 0.79564 0.0
H1128 H 0.16118 0.11385 0.20095 0.0
H1129 H 0.24922 0.05622 0.24475 0.0
H1130 H 0.2177 0.13825 0.20578 0.0
H1131 H 0.19358 0.032 0.23148 0.0
H1132 H 0.23954 0.08545 0.22808 0.0
H1133 H 0.17394 0.0831 0.21014 0.0
C1134 C 0.17633 0.11269 0.20394 0.0
C1135 C 0.18836 0.12865 0.20282 0.0
C1136 C 0.2296 0.07358 0.22853 0.0
C1137 C 0.20323 0.09335 0.21345 0.0
C1138 C 0.23518 0.05685 0.23789 0.0
C1139 C 0.22212 0.04173 0.23961 0.0
C1140 C 0.21087 0.07509 0.22093 0.0
C1141 C 0.20404 0.04338 0.23067 0.0
C1142 C 0.18367 0.09508 0.2091 0.0
C1143 C 0.20794 0.12626 0.20652 0.0
N1144 N 0.19892 0.05978 0.22194 0.0
N1145 N 0.21476 0.10897 0.21191 0.0
H1146 H 0.18015 0.86711 0.79851 0.0
H1147 H 0.22825 0.96903 0.81539 0.0
H1148 H 0.19166 0.88925 0.85515 0.0
H1149 H 0.19218 0.95536 0.76611 0.0
H1150 H 0.21945 0.93837 0.82945 0.0
H1151 H 0.18914 0.89782 0.7856 0.0
C1152 C 0.1844 0.87843 0.80831 0.0
C1153 C 0.18471 0.87554 0.82807 0.0
C1154 C 0.21343 0.94214 0.8156 0.0
C1155 C 0.19571 0.91078 0.81312 0.0
C1156 C 0.21851 0.95955 0.80754 0.0
C1157 C 0.21091 0.96471 0.78957 0.0
C1158 C 0.201 0.92966 0.80541 0.0
C1159 C 0.19822 0.95199 0.78005 0.0
C1160 C 0.18965 0.89596 0.80086 0.0
C1161 C 0.1912 0.89068 0.83987 0.0
N1162 N 0.1938 0.935 0.788 0.0
N1163 N 0.19645 0.90765 0.83222 0.0
H1164 H 0.1864 0.19435 0.8393 0.0
H1165 H 0.09553 0.25207 0.87049 0.0
H1166 H 0.17017 0.20093 0.89723 0.0
H1167 H 0.10987 0.24538 0.812 0.0
H1168 H 0.12303 0.23343 0.88023 0.0
H1169 H 0.15857 0.21266 0.82872 0.0
C1170 C 0.17698 0.19956 0.8498 0.0
C1171 C 0.18079 0.19616 0.86923 0.0
C1172 C 0.12021 0.23602 0.86525 0.0
C1173 C 0.14893 0.21726 0.85719 0.0
C1174 C 0.1045 0.24681 0.85965 0.0
C1175 C 0.1003 0.25047 0.84035 0.0
C1176 C 0.13199 0.22872 0.8515 0.0
C1177 C 0.11239 0.24284 0.82701 0.0
C1178 C 0.16113 0.21009 0.84374 0.0
C1179 C 0.1681 0.20345 0.88215 0.0
N1180 N 0.12768 0.23238 0.83283 0.0
N1181 N 0.15284 0.21362 0.87591 0.0
H1182 H 0.8638 0.15002 0.80818 0.0
H1183 H 0.81262 0.05398 0.84135 0.0
H1184 H 0.85415 0.13687 0.86671 0.0
H1185 H 0.81093 0.07355 0.78328 0.0
H1186 H 0.83032 0.08284 0.85082 0.0
H1187 H 0.84739 0.12026 0.79864 0.0
C1188 C 0.85834 0.1408 0.81901 0.0
C1189 C 0.8602 0.14598 0.83824 0.0
C1190 C 0.82608 0.08076 0.836 0.0
C1191 C 0.84142 0.11199 0.82748 0.0
C1192 C 0.81587 0.06428 0.83056 0.0
C1193 C 0.81021 0.06113 0.81143 0.0
C1194 C 0.8308 0.0942 0.82222 0.0
C1195 C 0.81516 0.07503 0.79813 0.0
C1196 C 0.84888 0.1239 0.81357 0.0
C1197 C 0.85277 0.13356 0.8517 0.0
N1198 N 0.82516 0.09089 0.80377 0.0
N1199 N 0.84372 0.11716 0.84608 0.0
H1200 H 0.93232 0.83003 0.83577 0.0
H1201 H 0.9633 0.76624 0.74855 0.0
H1202 H 0.89998 0.82663 0.7824 0.0
H1203 H 0.98826 0.76197 0.8053 0.0
H1204 H 0.94129 0.78988 0.75982 0.0
H1205 H 0.95461 0.80721 0.82379 0.0
C1206 C 0.92994 0.82454 0.82147 0.0
C1207 C 0.91409 0.83014 0.81016 0.0
C1208 C 0.95153 0.78372 0.76983 0.0
C1209 C 0.93973 0.80395 0.79628 0.0
C1210 C 0.96411 0.77024 0.76341 0.0
C1211 C 0.97768 0.76212 0.776 0.0
C1212 C 0.95259 0.7893 0.78899 0.0
C1213 C 0.97794 0.76769 0.79514 0.0
C1214 C 0.94269 0.81148 0.81465 0.0
C1215 C 0.91201 0.82282 0.7916 0.0
N1216 N 0.96568 0.78102 0.80101 0.0
N1217 N 0.92462 0.81003 0.78528 0.0
H1218 H 0.81742 0.93264 0.17246 0.0
H1219 H 0.78222 0.96932 0.27272 0.0
H1220 H 0.8224 0.89992 0.22405 0.0
H1221 H 0.77956 1.00266 0.2214 0.0
H1222 H 0.79762 0.94403 0.25544 0.0
H1223 H 0.80334 0.95836 0.19022 0.0
C1224 C 0.8154 0.93078 0.18748 0.0
C1225 C 0.82114 0.91406 0.19675 0.0
C1226 C 0.79377 0.95693 0.248 0.0
C1227 C 0.80525 0.94364 0.21729 0.0
C1228 C 0.78506 0.97144 0.2579 0.0
C1229 C 0.77951 0.98817 0.24853 0.0
C1230 C 0.79692 0.95912 0.22857 0.0
C1231 C 0.78351 0.99003 0.22925 0.0
C1232 C 0.80751 0.94556 0.19767 0.0
C1233 C 0.81841 0.91263 0.21634 0.0
N1234 N 0.79185 0.97567 0.21992 0.0
N1235 N 0.81068 0.92719 0.22593 0.0
H1236 H 0.13582 0.79327 0.17425 0.0
H1237 H 0.02446 0.80748 0.186 0.0
H1238 H 0.10831 0.8475 0.17134 0.0
H1239 H 0.05474 0.76036 0.21122 0.0
H1240 H 0.05392 0.81884 0.17271 0.0
H1241 H 0.10506 0.77799 0.18058 0.0
C1242 C 0.12325 0.80188 0.17469 0.0
C1243 C 0.12455 0.82166 0.17241 0.0
C1244 C 0.05406 0.80587 0.18094 0.0
C1245 C 0.08949 0.80436 0.17938 0.0
C1246 C 0.0372 0.79928 0.18845 0.0
C1247 C 0.03711 0.78304 0.19999 0.0
C1248 C 0.07099 0.7961 0.1848 0.0
C1249 C 0.05414 0.77302 0.20256 0.0
C1250 C 0.10577 0.7932 0.17836 0.0
C1251 C 0.1079 0.83223 0.17319 0.0
N1252 N 0.07044 0.7798 0.19517 0.0
N1253 N 0.09108 0.82346 0.1766 0.0
H1254 H 0.87275 0.24011 0.18707 0.0
H1255 H 0.96052 0.19838 0.24872 0.0
H1256 H 0.88352 0.18036 0.19463 0.0
H1257 H 0.95389 0.2585 0.23941 0.0
H1258 H 0.93302 0.192 0.22754 0.0
H1259 H 0.90267 0.24757 0.20487 0.0
C1260 C 0.88142 0.22855 0.19236 0.0
C1261 C 0.87545 0.20954 0.18943 0.0
C1262 C 0.93756 0.20662 0.22995 0.0
C1263 C 0.90972 0.21804 0.20992 0.0
C1264 C 0.95334 0.21029 0.24207 0.0
C1265 C 0.95949 0.22902 0.24595 0.0
C1266 C 0.92754 0.22178 0.22165 0.0
C1267 C 0.94966 0.24384 0.23677 0.0
C1268 C 0.89849 0.23284 0.20258 0.0
C1269 C 0.88725 0.19521 0.19681 0.0
N1270 N 0.93403 0.23991 0.22518 0.0
N1271 N 0.90371 0.19975 0.2067 0.0
H1272 H 0.22656 0.6617 0.59422 0.0
H1273 H 0.27389 0.75664 0.55444 0.0
H1274 H 0.22211 0.71615 0.6217 0.0
H1275 H 0.25984 0.70783 0.51899 0.0
H1276 H 0.25942 0.74055 0.58106 0.0
H1277 H 0.2424 0.6772 0.56804 0.0
C1278 C 0.22885 0.67696 0.59466 0.0
C1279 C 0.22298 0.68769 0.6101 0.0
C1280 C 0.25964 0.73332 0.56749 0.0
C1281 C 0.24141 0.70547 0.58037 0.0
C1282 C 0.2681 0.74239 0.55231 0.0
C1283 C 0.26811 0.73357 0.53439 0.0
C1284 C 0.25133 0.71518 0.56484 0.0
C1285 C 0.26017 0.71519 0.53252 0.0
C1286 C 0.23789 0.68578 0.57974 0.0
C1287 C 0.22626 0.70741 0.60997 0.0
N1288 N 0.2521 0.70662 0.54752 0.0
N1289 N 0.23541 0.71566 0.59541 0.0
H1290 H 0.8632 0.70851 0.59282 0.0
H1291 H 0.76771 0.74802 0.5419 0.0
H1292 H 0.80952 0.70896 0.61996 0.0
H1293 H 0.82311 0.75111 0.51847 0.0
H1294 H 0.78137 0.72979 0.56887 0.0
H1295 H 0.84765 0.72119 0.56413 0.0
C1296 C 0.84816 0.71144 0.59282 0.0
C1297 C 0.83773 0.70781 0.60893 0.0
C1298 C 0.79044 0.73419 0.55764 0.0
C1299 C 0.81963 0.72208 0.57584 0.0
C1300 C 0.78259 0.74436 0.54217 0.0
C1301 C 0.79434 0.75103 0.52802 0.0
C1302 C 0.81009 0.7307 0.55877 0.0
C1303 C 0.8136 0.74627 0.52916 0.0
C1304 C 0.83922 0.71851 0.57633 0.0
C1305 C 0.81813 0.71145 0.60785 0.0
N1306 N 0.82087 0.73655 0.5443 0.0
N1307 N 0.80973 0.71846 0.59162 0.0
H1308 H 0.82631 0.35858 0.68285 0.0
H1309 H 0.85708 0.31042 0.58582 0.0
H1310 H 0.8844 0.35455 0.6666 0.0
H1311 H 0.79989 0.30744 0.60533 0.0
H1312 H 0.86693 0.3281 0.61445 0.0
H1313 H 0.81594 0.34189 0.65351 0.0
C1314 C 0.83688 0.35433 0.67306 0.0
C1315 C 0.85628 0.35793 0.6773 0.0
C1316 C 0.85222 0.32357 0.61247 0.0
C1317 C 0.8445 0.33865 0.64367 0.0
C1318 C 0.84655 0.31333 0.59608 0.0
C1319 C 0.82755 0.30725 0.59296 0.0
C1320 C 0.83884 0.32793 0.62595 0.0
C1321 C 0.81462 0.3119 0.60685 0.0
C1322 C 0.83096 0.34468 0.65636 0.0
C1323 C 0.86932 0.35187 0.66411 0.0
N1324 N 0.8205 0.32193 0.62267 0.0
N1325 N 0.86321 0.34257 0.64796 0.0
H1326 H 0.19183 0.38329 0.64077 0.0
H1327 H 0.24314 0.30108 0.58481 0.0
H1328 H 0.1958 0.3257 0.66113 0.0
H1329 H 0.23204 0.35665 0.56144 0.0
H1330 H 0.22642 0.30986 0.61299 0.0
H1331 H 0.20684 0.37379 0.61176 0.0
C1332 C 0.19583 0.36861 0.6391 0.0
C1333 C 0.19269 0.35529 0.65346 0.0
C1334 C 0.22761 0.32011 0.60167 0.0
C1335 C 0.20996 0.34428 0.62021 0.0
C1336 C 0.23714 0.3151 0.58548 0.0
C1337 C 0.23901 0.32809 0.57054 0.0
C1338 C 0.21995 0.33832 0.60308 0.0
C1339 C 0.23119 0.34619 0.57257 0.0
C1340 C 0.20437 0.36318 0.6225 0.0
C1341 C 0.1979 0.3364 0.65039 0.0
N1342 N 0.22203 0.35074 0.5885 0.0
N1343 N 0.20642 0.33148 0.63417 0.0
H1344 H 0.14815 0.32686 0.4095 0.0
H1345 H 0.23427 0.27415 0.46396 0.0
H1346 H 0.2024 0.3177 0.38535 0.0
H1347 H 0.19023 0.30263 0.49316 0.0
H1348 H 0.21872 0.28291 0.43363 0.0
H1349 H 0.15981 0.31136 0.43882 0.0
C1350 C 0.16243 0.32137 0.41031 0.0
C1351 C 0.1744 0.32366 0.39506 0.0
C1352 C 0.21233 0.28699 0.44669 0.0
C1353 C 0.18773 0.30584 0.4284 0.0
C1354 C 0.22109 0.28186 0.46404 0.0
C1355 C 0.21363 0.28782 0.48119 0.0
C1356 C 0.19587 0.29797 0.44644 0.0
C1357 C 0.19656 0.29786 0.48031 0.0
C1358 C 0.16909 0.31261 0.42703 0.0
C1359 C 0.19281 0.3164 0.39687 0.0
N1360 N 0.18832 0.30274 0.46323 0.0
N1361 N 0.19892 0.30782 0.41323 0.0
H1362 H 0.22371 0.69115 0.36539 0.0
H1363 H 0.20087 0.7471 0.46095 0.0
H1364 H 0.16851 0.69255 0.38929 0.0
H1365 H 0.25506 0.75119 0.43489 0.0
H1366 H 0.18961 0.72534 0.43584 0.0
H1367 H 0.23655 0.71063 0.39219 0.0
C1368 C 0.21439 0.6953 0.37643 0.0
C1369 C 0.195 0.69036 0.37506 0.0
C1370 C 0.20399 0.73098 0.4356 0.0
C1371 C 0.20946 0.71276 0.40557 0.0
C1372 C 0.21041 0.74359 0.44991 0.0
C1373 C 0.22899 0.75117 0.45014 0.0
C1374 C 0.21617 0.72579 0.42127 0.0
C1375 C 0.24071 0.74563 0.4355 0.0
C1376 C 0.22166 0.70655 0.39162 0.0
C1377 C 0.1835 0.69624 0.38967 0.0
N1378 N 0.23411 0.73333 0.42169 0.0
N1379 N 0.19086 0.70716 0.40421 0.0
H1380 H 0.86892 0.7127 0.37287 0.0
H1381 H 0.78283 0.7614 0.42393 0.0
H1382 H 0.8101 0.70476 0.35438 0.0
H1383 H 0.84178 0.77206 0.44021 0.0
H1384 H 0.79253 0.74071 0.39841 0.0
H1385 H 0.85925 0.73442 0.39755 0.0
C1386 C 0.85396 0.71562 0.37389 0.0
C1387 C 0.84032 0.70694 0.36137 0.0
C1388 C 0.80337 0.74759 0.40751 0.0
C1389 C 0.82911 0.73172 0.38991 0.0
C1390 C 0.79783 0.75937 0.42217 0.0
C1391 C 0.8115 0.7684 0.43438 0.0
C1392 C 0.82275 0.74471 0.40499 0.0
C1393 C 0.83075 0.7655 0.43111 0.0
C1394 C 0.84845 0.72798 0.38808 0.0
C1395 C 0.82111 0.71097 0.36376 0.0
N1396 N 0.8358 0.75383 0.41681 0.0
N1397 N 0.8161 0.72307 0.37771 0.0
H1398 H 0.8279 0.37398 0.42084 0.0
H1399 H 0.77299 0.29832 0.48398 0.0
H1400 H 0.81771 0.31565 0.40388 0.0
H1401 H 0.8037 0.34685 0.50806 0.0
H1402 H 0.78235 0.30808 0.45238 0.0
H1403 H 0.8126 0.3674 0.45078 0.0
C1404 C 0.82225 0.35985 0.42334 0.0
C1405 C 0.82416 0.34531 0.4099 0.0
C1406 C 0.78678 0.31674 0.46456 0.0
C1407 C 0.80651 0.33775 0.44402 0.0
C1408 C 0.78127 0.31131 0.48261 0.0
C1409 C 0.78763 0.32176 0.49876 0.0
C1410 C 0.79849 0.33288 0.46258 0.0
C1411 C 0.79854 0.33834 0.49603 0.0
C1412 C 0.81359 0.3561 0.44044 0.0
C1413 C 0.8167 0.32721 0.41394 0.0
N1414 N 0.80369 0.34334 0.47833 0.0
N1415 N 0.80819 0.32395 0.4306 0.0
H1416 H 0.17605 0.70966 0.65656 0.0
H1417 H 0.08248 0.66891 0.70441 0.0
H1418 H 0.16173 0.65001 0.6606 0.0
H1419 H 0.09625 0.72876 0.70114 0.0
H1420 H 0.11105 0.66193 0.68751 0.0
H1421 H 0.14623 0.71722 0.67142 0.0
C1422 C 0.16658 0.69817 0.6604 0.0
C1423 C 0.17154 0.67916 0.65748 0.0
C1424 C 0.10781 0.67661 0.69044 0.0
C1425 C 0.13745 0.68769 0.67467 0.0
C1426 C 0.09151 0.68061 0.70022 0.0
C1427 C 0.08684 0.69947 0.7043 0.0
C1428 C 0.11969 0.69156 0.68466 0.0
C1429 C 0.09905 0.71402 0.69817 0.0
C1430 C 0.14961 0.70248 0.669 0.0
C1431 C 0.15872 0.66486 0.66289 0.0
N1432 N 0.11489 0.70976 0.68873 0.0
N1433 N 0.14239 0.66941 0.67125 0.0
H1434 H 0.82539 0.64683 0.6349 0.0
H1435 H 0.80349 0.59456 0.73234 0.0
H1436 H 0.84698 0.66724 0.68964 0.0
H1437 H 0.77228 0.58322 0.67939 0.0
H1438 H 0.82214 0.61898 0.71656 0.0
H1439 H 0.80833 0.62138 0.65062 0.0
C1440 C 0.82649 0.64606 0.65025 0.0
C1441 C 0.83751 0.65944 0.66094 0.0
C1442 C 0.81123 0.61112 0.70839 0.0
C1443 C 0.81819 0.62993 0.67906 0.0
C1444 C 0.80066 0.59708 0.71736 0.0
C1445 C 0.78628 0.5868 0.70717 0.0
C1446 C 0.80753 0.61484 0.68903 0.0
C1447 C 0.78308 0.59091 0.68783 0.0
C1448 C 0.8168 0.63142 0.65921 0.0
C1449 C 0.83878 0.65726 0.68077 0.0
N1450 N 0.79363 0.60456 0.67939 0.0
N1451 N 0.82921 0.64283 0.68918 0.0
H1452 H 0.91472 0.38823 0.74171 0.0
H1453 H 0.97107 0.29505 0.77487 0.0
H1454 H 0.89471 0.33107 0.72921 0.0
H1455 H 0.9904 0.35222 0.78833 0.0
H1456 H 0.94301 0.30792 0.75822 0.0
H1457 H 0.9423 0.37529 0.75916 0.0
C1458 C 0.91603 0.37295 0.74272 0.0
C1459 C 0.90229 0.36075 0.73393 0.0
C1460 C 0.95337 0.31766 0.76484 0.0
C1461 C 0.93409 0.34578 0.75379 0.0
C1462 C 0.96949 0.31031 0.7743 0.0
C1463 C 0.98325 0.32252 0.78304 0.0
C1464 C 0.95092 0.33742 0.76403 0.0
C1465 C 0.98016 0.3422 0.78204 0.0
C1466 C 0.93187 0.36556 0.75262 0.0
C1467 C 0.90501 0.34106 0.73551 0.0
N1468 N 0.9644 0.349 0.77268 0.0
N1469 N 0.92056 0.33421 0.74522 0.0
H1470 H 0.19184 0.41846 0.68032 0.0
H1471 H 0.25125 0.46553 0.76845 0.0
H1472 H 0.19767 0.39131 0.73497 0.0
H1473 H 0.25212 0.48471 0.71051 0.0
H1474 H 0.2263 0.44197 0.75877 0.0
H1475 H 0.20842 0.44649 0.69351 0.0
C1476 C 0.19656 0.41846 0.69516 0.0
C1477 C 0.19369 0.40242 0.70648 0.0
C1478 C 0.23172 0.45161 0.74829 0.0
C1479 C 0.21281 0.43453 0.72175 0.0
C1480 C 0.24579 0.46512 0.75384 0.0
C1481 C 0.2537 0.47694 0.7402 0.0
C1482 C 0.22554 0.45021 0.72906 0.0
C1483 C 0.24643 0.47573 0.72141 0.0
C1484 C 0.20599 0.43449 0.70272 0.0
C1485 C 0.1997 0.40337 0.72574 0.0
N1486 N 0.23288 0.46256 0.7164 0.0
N1487 N 0.20924 0.41907 0.73274 0.0
H1488 H 0.13513 0.33339 0.3143 0.0
H1489 H 0.03187 0.29285 0.33671 0.0
H1490 H 0.1104 0.33482 0.3691 0.0
H1491 H 0.05457 0.28844 0.28115 0.0
H1492 H 0.05893 0.31276 0.34701 0.0
H1493 H 0.10466 0.32117 0.3003 0.0
C1494 C 0.12321 0.33142 0.32331 0.0
C1495 C 0.12536 0.33488 0.34294 0.0
C1496 C 0.05801 0.30769 0.33248 0.0
C1497 C 0.09058 0.32094 0.3271 0.0
C1498 C 0.04247 0.29636 0.32656 0.0
C1499 C 0.04102 0.28892 0.30809 0.0
C1500 C 0.07256 0.31143 0.31996 0.0
C1501 C 0.05514 0.29399 0.29551 0.0
C1502 C 0.10587 0.32438 0.31534 0.0
C1503 C 0.1095 0.33203 0.35397 0.0
N1504 N 0.07052 0.3047 0.30176 0.0
N1505 N 0.09291 0.32515 0.34594 0.0
H1506 H 0.18893 0.64438 0.29693 0.0
H1507 H 0.22104 0.53951 0.32661 0.0
H1508 H 0.19492 0.62406 0.35449 0.0
H1509 H 0.23019 0.56195 0.27089 0.0
H1510 H 0.20552 0.56883 0.33499 0.0
H1511 H 0.19929 0.6133 0.28555 0.0
C1512 C 0.19239 0.63339 0.30717 0.0
C1513 C 0.19119 0.6369 0.32673 0.0
C1514 C 0.21066 0.56734 0.32083 0.0
C1515 C 0.20277 0.60128 0.31378 0.0
C1516 C 0.21937 0.5505 0.31596 0.0
C1517 C 0.22694 0.54828 0.29804 0.0
C1518 C 0.20957 0.58232 0.30776 0.0
C1519 C 0.22439 0.56301 0.28481 0.0
C1520 C 0.19831 0.61568 0.30065 0.0
C1521 C 0.19591 0.62215 0.33933 0.0
N1522 N 0.21611 0.57956 0.29001 0.0
N1523 N 0.20141 0.60505 0.33264 0.0
H1524 H 0.8758 0.68673 0.28391 0.0
H1525 H 0.97753 0.73675 0.30358 0.0
H1526 H 0.90302 0.69634 0.33915 0.0
H1527 H 0.95241 0.73027 0.247 0.0
H1528 H 0.95185 0.71772 0.31585 0.0
H1529 H 0.9048 0.69855 0.26923 0.0
C1530 C 0.88797 0.69105 0.29291 0.0
C1531 C 0.88697 0.69081 0.31276 0.0
C1532 C 0.9519 0.72024 0.30071 0.0
C1533 C 0.92001 0.70428 0.29618 0.0
C1534 C 0.96662 0.73113 0.29368 0.0
C1535 C 0.967 0.73524 0.27427 0.0
C1536 C 0.93709 0.71357 0.28833 0.0
C1537 C 0.95261 0.7274 0.26208 0.0
C1538 C 0.90446 0.69786 0.28455 0.0
C1539 C 0.90308 0.69659 0.3238 0.0
N1540 N 0.93802 0.71713 0.26935 0.0
N1541 N 0.91881 0.70316 0.31538 0.0
H1542 H 0.86499 0.3936 0.34889 0.0
H1543 H 0.78506 0.45053 0.28957 0.0
H1544 H 0.80501 0.38163 0.35215 0.0
H1545 H 0.84381 0.46894 0.29502 0.0
H1546 H 0.79232 0.42414 0.31083 0.0
H1547 H 0.85771 0.42017 0.32768 0.0
C1548 C 0.85027 0.39656 0.34512 0.0
C1549 C 0.83559 0.38532 0.35227 0.0
C1550 C 0.80362 0.43397 0.30738 0.0
C1551 C 0.82712 0.41578 0.32793 0.0
C1552 C 0.79948 0.44915 0.29524 0.0
C1553 C 0.81378 0.46224 0.29049 0.0
C1554 C 0.82224 0.43167 0.31481 0.0
C1555 C 0.8323 0.45926 0.29806 0.0
C1556 C 0.84612 0.41178 0.33307 0.0
C1557 C 0.81677 0.39 0.3471 0.0
N1558 N 0.83597 0.44434 0.30982 0.0
N1559 N 0.81308 0.40479 0.33517 0.0
H1560 H 0.22465 0.64697 0.68887 0.0
H1561 H 0.28319 0.55174 0.67431 0.0
H1562 H 0.23602 0.6241 0.63374 0.0
H1563 H 0.27506 0.57769 0.72884 0.0
H1564 H 0.26609 0.57797 0.65902 0.0
H1565 H 0.24271 0.62123 0.70367 0.0
C1566 C 0.23086 0.63646 0.67987 0.0
C1567 C 0.22876 0.63768 0.66003 0.0
C1568 C 0.26809 0.57791 0.67433 0.0
C1569 C 0.24968 0.6082 0.6769 0.0
C1570 C 0.27795 0.56298 0.68307 0.0
C1571 C 0.28048 0.56237 0.70293 0.0
C1572 C 0.2607 0.59235 0.68553 0.0
C1573 C 0.27317 0.57729 0.71354 0.0
C1574 C 0.24129 0.62182 0.68833 0.0
C1575 C 0.23741 0.62382 0.64909 0.0
N1576 N 0.2636 0.5916 0.70472 0.0
N1577 N 0.24745 0.60963 0.65766 0.0
H1578 H 0.1803 0.37154 0.31859 0.0
H1579 H 0.25105 0.45654 0.35347 0.0
H1580 H 0.19262 0.38595 0.37746 0.0
H1581 H 0.23402 0.44649 0.29471 0.0
H1582 H 0.23079 0.42976 0.36241 0.0
H1583 H 0.20044 0.3984 0.30939 0.0
C1584 C 0.18713 0.38037 0.32958 0.0
C1585 C 0.18484 0.3763 0.34885 0.0
C1586 C 0.23146 0.43343 0.34755 0.0
C1587 C 0.20813 0.40699 0.33841 0.0
C1588 C 0.24315 0.44867 0.34243 0.0
C1589 C 0.24422 0.45391 0.32331 0.0
C1590 C 0.22082 0.42321 0.33344 0.0
C1591 C 0.23345 0.44323 0.30965 0.0
C1592 C 0.19873 0.39566 0.32432 0.0
C1593 C 0.19424 0.38822 0.36244 0.0
N1594 N 0.22225 0.42842 0.31497 0.0
N1595 N 0.20546 0.40292 0.35697 0.0
H1596 H 0.14991 0.68659 0.29571 0.0
H1597 H 0.06032 0.74824 0.32224 0.0
H1598 H 0.13088 0.69367 0.35258 0.0
H1599 H 0.07362 0.73582 0.26442 0.0
H1600 H 0.08639 0.72821 0.33335 0.0
H1601 H 0.1219 0.70382 0.28353 0.0
C1602 C 0.13975 0.69157 0.30559 0.0
C1603 C 0.14288 0.68893 0.3252 0.0
C1604 C 0.08361 0.72979 0.31821 0.0
C1605 C 0.11102 0.70879 0.31146 0.0
C1606 C 0.06879 0.74137 0.31187 0.0
C1607 C 0.06481 0.7438 0.29237 0.0
C1608 C 0.09471 0.72062 0.30499 0.0
C1609 C 0.07609 0.73423 0.27958 0.0
C1610 C 0.12383 0.70149 0.29866 0.0
C1611 C 0.12927 0.69574 0.33738 0.0
N1612 N 0.09059 0.72314 0.28611 0.0
N1613 N 0.11407 0.70545 0.33034 0.0
H1614 H 0.8041 0.65799 0.32022 0.0
H1615 H 0.81345 0.54497 0.32146 0.0
H1616 H 0.85742 0.62912 0.32738 0.0
H1617 H 0.76711 0.57239 0.29085 0.0
H1618 H 0.82678 0.57611 0.33027 0.0
H1619 H 0.78785 0.62705 0.31505 0.0
C1620 C 0.81235 0.64513 0.32073 0.0
C1621 C 0.83214 0.64609 0.32408 0.0
C1622 C 0.81359 0.57531 0.32179 0.0
C1623 C 0.81367 0.61079 0.31859 0.0
C1624 C 0.80584 0.55751 0.31686 0.0
C1625 C 0.78918 0.55597 0.30521 0.0
C1626 C 0.80456 0.59181 0.31525 0.0
C1627 C 0.78002 0.57285 0.29978 0.0
C1628 C 0.80309 0.62754 0.31777 0.0
C1629 C 0.84218 0.62903 0.3246 0.0
N1630 N 0.78789 0.59008 0.30475 0.0
N1631 N 0.83283 0.61211 0.322 0.0
H1632 H 0.8613 0.30107 0.37269 0.0
H1633 H 0.95893 0.29723 0.31918 0.0
H1634 H 0.89309 0.35077 0.35603 0.0
H1635 H 0.93459 0.24816 0.34604 0.0
H1636 H 0.93381 0.31668 0.33132 0.0
H1637 H 0.88712 0.2811 0.36234 0.0
C1638 C 0.87372 0.30782 0.367 0.0
C1639 C 0.87486 0.32768 0.36508 0.0
C1640 C 0.93395 0.30167 0.33463 0.0
C1641 C 0.90436 0.30485 0.35296 0.0
C1642 C 0.94824 0.29051 0.32756 0.0
C1643 C 0.94884 0.271 0.33151 0.0
C1644 C 0.91996 0.29329 0.34564 0.0
C1645 C 0.93475 0.26316 0.34277 0.0
C1646 C 0.88842 0.29639 0.36101 0.0
C1647 C 0.8913 0.33554 0.35741 0.0
N1648 N 0.92082 0.2743 0.34934 0.0
N1649 N 0.90528 0.32413 0.35157 0.0
H1650 H 0.85064 0.399 0.7567 0.0
H1651 H 0.80819 0.502 0.73412 0.0
H1652 H 0.84719 0.42334 0.70061 0.0
H1653 H 0.80392 0.47419 0.78827 0.0
H1654 H 0.82498 0.47453 0.7224 0.0
H1655 H 0.8357 0.42734 0.76908 0.0
C1656 C 0.8468 0.41033 0.74698 0.0
C1657 C 0.85023 0.40874 0.72755 0.0
C1658 C 0.82047 0.47447 0.73688 0.0
C1659 C 0.83302 0.44134 0.7417 0.0
C1660 C 0.81096 0.49023 0.74366 0.0
C1661 C 0.80455 0.49048 0.76226 0.0
C1662 C 0.82373 0.45876 0.74876 0.0
C1663 C 0.80856 0.47469 0.77385 0.0
C1664 C 0.83819 0.4265 0.75406 0.0
C1665 C 0.84467 0.42382 0.71563 0.0
N1666 N 0.81781 0.45949 0.76691 0.0
N1667 N 0.83642 0.43947 0.72289 0.0
H1668 H 0.13201 0.3738 0.71185 0.0
H1669 H 0.086 0.27687 0.74988 0.0
H1670 H 0.15687 0.31918 0.70224 0.0
H1671 H 0.07061 0.33333 0.7667 0.0
H1672 H 0.10871 0.29101 0.72803 0.0
H1673 H 0.10613 0.35811 0.72766 0.0
C1674 C 0.13206 0.35846 0.71313 0.0
C1675 C 0.14685 0.34784 0.70603 0.0
C1676 C 0.10017 0.30023 0.73638 0.0
C1677 C 0.11699 0.32961 0.72409 0.0
C1678 C 0.08715 0.29218 0.74871 0.0
C1679 C 0.07656 0.30398 0.76018 0.0
C1680 C 0.1023 0.32014 0.73546 0.0
C1681 C 0.07865 0.32371 0.75827 0.0
C1682 C 0.11719 0.34947 0.72209 0.0
C1683 C 0.14579 0.32792 0.70759 0.0
N1684 N 0.09126 0.33112 0.74625 0.0
N1685 N 0.13121 0.31944 0.71663 0.0
H1686 H 0.90497 0.67395 0.6558 0.0
H1687 H 0.97642 0.75511 0.69611 0.0
H1688 H 0.88968 0.73303 0.65445 0.0
H1689 H 0.99249 0.69777 0.6834 0.0
H1690 H 0.94508 0.74865 0.68014 0.0
H1691 H 0.93727 0.68323 0.66609 0.0
C1692 C 0.90842 0.68891 0.65775 0.0
C1693 C 0.89455 0.7027 0.6544 0.0
C1694 C 0.95564 0.73764 0.68055 0.0
C1695 C 0.93176 0.71358 0.66616 0.0
C1696 C 0.97357 0.74139 0.68948 0.0
C1697 C 0.98703 0.72693 0.69112 0.0
C1698 C 0.95126 0.71929 0.67338 0.0
C1699 C 0.98249 0.7093 0.68259 0.0
C1700 C 0.92694 0.69425 0.66349 0.0
C1701 C 0.89996 0.72193 0.65685 0.0
N1702 N 0.96501 0.70594 0.67432 0.0
N1703 N 0.91811 0.72681 0.66276 0.0
H1704 H 0.71912 0.16704 0.6328 0.0
H1705 H 0.73798 0.26862 0.58492 0.0
H1706 H 0.7014 0.21949 0.65794 0.0
H1707 H 0.76588 0.21675 0.57052 0.0
H1708 H 0.72016 0.25085 0.60869 0.0
H1709 H 0.73209 0.18507 0.60681 0.0
C1710 C 0.71798 0.18236 0.63291 0.0
C1711 C 0.70936 0.19172 0.6478 0.0
C1712 C 0.7301 0.24341 0.60018 0.0
C1713 C 0.72406 0.21259 0.61775 0.0
C1714 C 0.74016 0.2535 0.58658 0.0
C1715 C 0.75353 0.24417 0.57586 0.0
C1716 C 0.73329 0.22386 0.60278 0.0
C1717 C 0.75589 0.22459 0.57861 0.0
C1718 C 0.72532 0.19268 0.61797 0.0
C1719 C 0.70786 0.21163 0.64678 0.0
N1720 N 0.74594 0.21515 0.59175 0.0
N1721 N 0.71525 0.22142 0.63209 0.0
H1722 H 0.30275 0.20512 0.64746 0.0
H1723 H 0.32382 0.26254 0.55348 0.0
H1724 H 0.35874 0.21066 0.62536 0.0
H1725 H 0.26754 0.24248 0.56581 0.0
H1726 H 0.33674 0.24486 0.58063 0.0
H1727 H 0.28947 0.22015 0.61876 0.0
C1728 C 0.31228 0.20938 0.63656 0.0
C1729 C 0.33196 0.20653 0.63891 0.0
C1730 C 0.32158 0.24416 0.57735 0.0
C1731 C 0.31676 0.22407 0.60608 0.0
C1732 C 0.31417 0.25428 0.56185 0.0
C1733 C 0.29456 0.25401 0.55741 0.0
C1734 C 0.30928 0.23389 0.58876 0.0
C1735 C 0.28276 0.24299 0.5687 0.0
C1736 C 0.30465 0.21801 0.62018 0.0
C1737 C 0.34355 0.21278 0.6244 0.0
N1738 N 0.29029 0.23351 0.58402 0.0
N1739 N 0.33579 0.22129 0.60867 0.0
H1740 H 0.33378 0.82771 0.65756 0.0
H1741 H 0.28598 0.85753 0.55678 0.0
H1742 H 0.32503 0.88594 0.64074 0.0
H1743 H 0.2946 0.79942 0.57408 0.0
H1744 H 0.29965 0.86823 0.58753 0.0
H1745 H 0.31936 0.81717 0.62709 0.0
C1746 C 0.32895 0.83832 0.64743 0.0
C1747 C 0.33074 0.85778 0.65179 0.0
C1748 C 0.29854 0.85313 0.5846 0.0
C1749 C 0.3139 0.84573 0.61677 0.0
C1750 C 0.29061 0.84698 0.56703 0.0
C1751 C 0.28914 0.82749 0.56266 0.0
C1752 C 0.30506 0.83974 0.59801 0.0
C1753 C 0.29566 0.81457 0.57658 0.0
C1754 C 0.32058 0.83226 0.63004 0.0
C1755 C 0.32381 0.87079 0.63815 0.0
N1756 N 0.30332 0.82091 0.59354 0.0
N1757 N 0.31576 0.86454 0.62129 0.0
H1758 H 0.69112 0.8124 0.63416 0.0
H1759 H 0.74749 0.85741 0.54811 0.0
H1760 H 0.69538 0.87254 0.62301 0.0
H1761 H 0.74303 0.79712 0.55839 0.0
H1762 H 0.72863 0.86315 0.57573 0.0
H1763 H 0.70967 0.80631 0.60621 0.0
C1764 C 0.69583 0.8243 0.62578 0.0
C1765 C 0.69181 0.84301 0.63107 0.0
C1766 C 0.73177 0.84865 0.57194 0.0
C1767 C 0.7132 0.83619 0.59917 0.0
C1768 C 0.74268 0.84538 0.55621 0.0
C1769 C 0.74684 0.82675 0.55078 0.0
C1770 C 0.72497 0.8332 0.58243 0.0
C1771 C 0.73995 0.81171 0.56179 0.0
C1772 C 0.70653 0.82084 0.60989 0.0
C1773 C 0.69843 0.85789 0.61972 0.0
N1774 N 0.72938 0.81526 0.57704 0.0
N1775 N 0.70879 0.85417 0.60439 0.0
H1776 H 0.70392 0.84894 0.35642 0.0
H1777 H 0.71063 0.79193 0.45465 0.0
H1778 H 0.65372 0.82877 0.38357 0.0
H1779 H 0.75453 0.82914 0.43439 0.0
H1780 H 0.69007 0.80089 0.42688 0.0
H1781 H 0.72332 0.83739 0.38323 0.0
C1782 C 0.69691 0.84223 0.36808 0.0
C1783 C 0.67707 0.8401 0.36775 0.0
C1784 C 0.70424 0.807 0.42862 0.0
C1785 C 0.69941 0.82636 0.3985 0.0
C1786 C 0.71596 0.80185 0.44437 0.0
C1787 C 0.73424 0.80992 0.44693 0.0
C1788 C 0.71109 0.81999 0.41529 0.0
C1789 C 0.74047 0.82271 0.43318 0.0
C1790 C 0.70805 0.83549 0.38336 0.0
C1791 C 0.66896 0.83067 0.3831 0.0
N1792 N 0.72898 0.82728 0.41803 0.0
N1793 N 0.68015 0.82417 0.39788 0.0
H1794 H 0.71198 0.16984 0.41268 0.0
H1795 H 0.75476 0.26154 0.46814 0.0
H1796 H 0.70492 0.22713 0.39214 0.0
H1797 H 0.76975 0.20412 0.48294 0.0
H1798 H 0.73493 0.24929 0.44135 0.0
H1799 H 0.73142 0.18221 0.43962 0.0
C1800 C 0.71451 0.18503 0.41379 0.0
C1801 C 0.70684 0.19741 0.39993 0.0
C1802 C 0.74257 0.23935 0.45042 0.0
C1803 C 0.72904 0.21173 0.43105 0.0
C1804 C 0.75385 0.24633 0.46579 0.0
C1805 C 0.7639 0.23384 0.4779 0.0
C1806 C 0.74116 0.21967 0.44714 0.0
C1807 C 0.7624 0.21429 0.47392 0.0
C1808 C 0.7256 0.19208 0.42924 0.0
C1809 C 0.71033 0.21701 0.40248 0.0
N1810 N 0.75118 0.20781 0.45897 0.0
N1811 N 0.72119 0.22353 0.41767 0.0
H1812 H 0.36213 0.21224 0.39558 0.0
H1813 H 0.27565 0.25939 0.44725 0.0
H1814 H 0.30332 0.20495 0.37677 0.0
H1815 H 0.33436 0.27234 0.46259 0.0
H1816 H 0.2857 0.23946 0.42131 0.0
H1817 H 0.35249 0.23429 0.42011 0.0
C1818 C 0.3472 0.21534 0.39652 0.0
C1819 C 0.33352 0.20664 0.38407 0.0
C1820 C 0.29643 0.24671 0.43026 0.0
C1821 C 0.32238 0.23177 0.4123 0.0
C1822 C 0.29068 0.25803 0.44514 0.0
C1823 C 0.30419 0.26742 0.45721 0.0
C1824 C 0.31587 0.24458 0.42743 0.0
C1825 C 0.32348 0.26544 0.45357 0.0
C1826 C 0.34171 0.22789 0.41059 0.0
C1827 C 0.31436 0.21102 0.3862 0.0
N1828 N 0.32876 0.25411 0.43909 0.0
N1829 N 0.30938 0.22323 0.40004 0.0
H1830 H 0.35181 0.80458 0.3633 0.0
H1831 H 0.31639 0.81554 0.46934 0.0
H1832 H 0.34603 0.85835 0.3919 0.0
H1833 H 0.31882 0.76153 0.44044 0.0
H1834 H 0.32998 0.83097 0.44203 0.0
H1835 H 0.34236 0.78822 0.39213 0.0
C1836 C 0.34871 0.81296 0.37567 0.0
C1837 C 0.34961 0.83292 0.37506 0.0
C1838 C 0.32769 0.81572 0.44167 0.0
C1839 C 0.33866 0.81423 0.40815 0.0
C1840 C 0.31997 0.80685 0.45734 0.0
C1841 C 0.31633 0.78716 0.45724 0.0
C1842 C 0.33183 0.8049 0.42563 0.0
C1843 C 0.32134 0.77673 0.44121 0.0
C1844 C 0.34322 0.80359 0.39211 0.0
C1845 C 0.34523 0.84297 0.39152 0.0
N1846 N 0.32869 0.78573 0.42603 0.0
N1847 N 0.33993 0.83355 0.4073 0.0
H1848 H 0.66543 0.21084 0.69647 0.0
H1849 H 0.57325 0.1701 0.74647 0.0
H1850 H 0.65158 0.15114 0.70114 0.0
H1851 H 0.58743 0.22991 0.74376 0.0
H1852 H 0.60152 0.16309 0.72921 0.0
H1853 H 0.63636 0.21833 0.71257 0.0
C1854 C 0.65622 0.19931 0.70073 0.0
C1855 C 0.66106 0.18031 0.69751 0.0
C1856 C 0.59846 0.17777 0.73237 0.0
C1857 C 0.6278 0.18879 0.71615 0.0
C1858 C 0.58232 0.18179 0.74237 0.0
C1859 C 0.57785 0.20066 0.7467 0.0
C1860 C 0.61035 0.19268 0.72659 0.0
C1861 C 0.5901 0.21517 0.74062 0.0
C1862 C 0.63967 0.20359 0.71004 0.0
C1863 C 0.64863 0.16597 0.70357 0.0
N1864 N 0.60577 0.21088 0.73092 0.0
N1865 N 0.63265 0.1705 0.71259 0.0
H1866 H 0.33199 0.16284 0.71693 0.0
H1867 H 0.26664 0.07095 0.69195 0.0
H1868 H 0.31911 0.14255 0.65991 0.0
H1869 H 0.27793 0.09187 0.74903 0.0
H1870 H 0.28571 0.09717 0.68003 0.0
H1871 H 0.31285 0.13659 0.72911 0.0
C1872 C 0.32527 0.15279 0.70698 0.0
C1873 C 0.3271 0.15499 0.68736 0.0
C1874 C 0.284 0.09605 0.69517 0.0
C1875 C 0.30497 0.125 0.70118 0.0
C1876 C 0.27295 0.08111 0.702 0.0
C1877 C 0.27065 0.07907 0.72158 0.0
C1878 C 0.29285 0.10913 0.70797 0.0
C1879 C 0.2795 0.09265 0.73386 0.0
C1880 C 0.31422 0.13788 0.71393 0.0
C1881 C 0.31787 0.14162 0.67513 0.0
N1882 N 0.29021 0.10704 0.72687 0.0
N1883 N 0.30722 0.12726 0.68223 0.0
H1884 H 0.37155 0.85361 0.73371 0.0
H1885 H 0.47182 0.80505 0.72132 0.0
H1886 H 0.39529 0.84693 0.67872 0.0
H1887 H 0.45657 0.83315 0.77273 0.0
H1888 H 0.44181 0.81533 0.7058 0.0
H1889 H 0.40055 0.84095 0.74852 0.0
C1890 C 0.38286 0.84954 0.7247 0.0
C1891 C 0.38102 0.85173 0.70489 0.0
C1892 C 0.44506 0.8192 0.72048 0.0
C1893 C 0.41424 0.83673 0.7219 0.0
C1894 C 0.46209 0.81327 0.72936 0.0
C1895 C 0.46667 0.8183 0.74833 0.0
C1896 C 0.43239 0.82995 0.73076 0.0
C1897 C 0.45366 0.82913 0.75805 0.0
C1898 C 0.3994 0.84222 0.73321 0.0
C1899 C 0.39599 0.8455 0.69401 0.0
N1900 N 0.43709 0.83451 0.7492 0.0
N1901 N 0.412 0.83834 0.70266 0.0
H1902 H 0.67794 0.87157 0.71503 0.0
H1903 H 0.73267 0.97193 0.71584 0.0
H1904 H 0.69182 0.90212 0.66435 0.0
H1905 H 0.71088 0.94669 0.76625 0.0
H1906 H 0.71777 0.94627 0.69687 0.0
H1907 H 0.68966 0.89874 0.73417 0.0
C1908 C 0.6833 0.88402 0.7079 0.0
C1909 C 0.684 0.88445 0.68801 0.0
C1910 C 0.71613 0.94635 0.71206 0.0
C1911 C 0.69767 0.91552 0.70989 0.0
C1912 C 0.72472 0.96097 0.72291 0.0
C1913 C 0.72313 0.96138 0.74267 0.0
C1914 C 0.70596 0.93186 0.72101 0.0
C1915 C 0.71237 0.94697 0.75105 0.0
C1916 C 0.69006 0.8995 0.71886 0.0
C1917 C 0.69133 0.90093 0.67963 0.0
N1918 N 0.70433 0.93269 0.7402 0.0
N1919 N 0.69794 0.91572 0.69059 0.0
H1920 H 0.60871 0.82854 0.34795 0.0
H1921 H 0.56483 0.76845 0.25983 0.0
H1922 H 0.63115 0.83081 0.2921 0.0
H1923 H 0.53063 0.78655 0.30567 0.0
H1924 H 0.59207 0.78558 0.27465 0.0
H1925 H 0.58241 0.80818 0.33533 0.0
C1926 C 0.60807 0.82473 0.33304 0.0
C1927 C 0.62201 0.83143 0.32099 0.0
C1928 C 0.57864 0.78563 0.28154 0.0
C1929 C 0.5923 0.80794 0.30661 0.0
C1930 C 0.5631 0.7757 0.27321 0.0
C1931 C 0.54533 0.77615 0.28146 0.0
C1932 C 0.57653 0.79588 0.2984 0.0
C1933 C 0.54402 0.78589 0.29877 0.0
C1934 C 0.5931 0.81316 0.32587 0.0
C1935 C 0.62056 0.8261 0.30179 0.0
N1936 N 0.5594 0.79543 0.30664 0.0
N1937 N 0.60603 0.81458 0.29521 0.0
H1938 H 0.70199 0.16152 0.31966 0.0
H1939 H 0.71806 0.05029 0.326 0.0
H1940 H 0.70151 0.1318 0.37302 0.0
H1941 H 0.74169 0.0848 0.28212 0.0
H1942 H 0.70985 0.07934 0.34289 0.0
H1943 H 0.71391 0.13284 0.30464 0.0
C1944 C 0.70434 0.14892 0.32818 0.0
C1945 C 0.70072 0.14901 0.34759 0.0
C1946 C 0.71705 0.08052 0.32969 0.0
C1947 C 0.71429 0.11616 0.33052 0.0
C1948 C 0.72177 0.06396 0.32005 0.0
C1949 C 0.7306 0.06508 0.30262 0.0
C1950 C 0.72079 0.09835 0.32163 0.0
C1951 C 0.735 0.08321 0.29556 0.0
C1952 C 0.71128 0.13263 0.31966 0.0
C1953 C 0.70419 0.13235 0.35803 0.0
N1954 N 0.7298 0.09911 0.30494 0.0
N1955 N 0.71061 0.11654 0.34934 0.0
H1956 H 0.37168 0.21953 0.33014 0.0
H1957 H 0.4684 0.18216 0.28864 0.0
H1958 H 0.38832 0.16081 0.33267 0.0
H1959 H 0.45143 0.2408 0.28785 0.0
H1960 H 0.43851 0.17355 0.30313 0.0
H1961 H 0.4003 0.22714 0.31332 0.0
C1962 C 0.3814 0.20823 0.32721 0.0
C1963 C 0.37764 0.18952 0.33299 0.0
C1964 C 0.44133 0.18829 0.29974 0.0
C1965 C 0.41048 0.19813 0.31348 0.0
C1966 C 0.45836 0.1932 0.29137 0.0
C1967 C 0.46255 0.21227 0.28715 0.0
C1968 C 0.42837 0.20254 0.30386 0.0
C1969 C 0.44903 0.22599 0.29117 0.0
C1970 C 0.39771 0.21257 0.3175 0.0
C1971 C 0.39058 0.1754 0.3284 0.0
N1972 N 0.43262 0.22086 0.29932 0.0
N1973 N 0.40646 0.18001 0.31901 0.0
H1974 H 0.33822 0.88122 0.29943 0.0
H1975 H 0.28231 0.97132 0.33546 0.0
H1976 H 0.33696 0.89846 0.35817 0.0
H1977 H 0.28874 0.95944 0.27605 0.0
H1978 H 0.3033 0.94521 0.34367 0.0
H1979 H 0.32098 0.90991 0.29028 0.0
C1980 C 0.33446 0.89108 0.31041 0.0
C1981 C 0.33905 0.88732 0.32965 0.0
C1982 C 0.30032 0.94834 0.32882 0.0
C1983 C 0.31909 0.92017 0.31921 0.0
C1984 C 0.28832 0.9633 0.3241 0.0
C1985 C 0.28369 0.96752 0.30503 0.0
C1986 C 0.30766 0.93724 0.31438 0.0
C1987 C 0.292 0.9567 0.29094 0.0
C1988 C 0.32455 0.90745 0.30515 0.0
C1989 C 0.3335 0.90053 0.34321 0.0
N1990 N 0.30343 0.9419 0.2959 0.0
N1991 N 0.3238 0.91628 0.33774 0.0
H1992 H 0.71677 0.1497 0.72507 0.0
H1993 H 0.76504 0.0483 0.7113 0.0
H1994 H 0.72419 0.12559 0.66964 0.0
H1995 H 0.75492 0.07477 0.76508 0.0
H1996 H 0.75349 0.07727 0.69507 0.0
H1997 H 0.73383 0.1232 0.73935 0.0
C1998 C 0.722 0.13877 0.71589 0.0
C1999 C 0.71881 0.13975 0.69615 0.0
C2000 C 0.75403 0.07674 0.71043 0.0
C2001 C 0.73854 0.1091 0.71246 0.0
C2002 C 0.76072 0.06028 0.71966 0.0
C2003 C 0.76073 0.05907 0.73954 0.0
C2004 C 0.74751 0.092 0.72124 0.0
C2005 C 0.75489 0.07494 0.74972 0.0
C2006 C 0.73185 0.12363 0.72404 0.0
C2007 C 0.72632 0.12536 0.68494 0.0
N2008 N 0.74847 0.09059 0.74049 0.0
N2009 N 0.73568 0.1105 0.69325 0.0
H2010 H 0.67385 0.9042 0.34335 0.0
H2011 H 0.67464 0.96528 0.24791 0.0
H2012 H 0.65637 0.88072 0.28851 0.0
H2013 H 0.70872 0.97981 0.29833 0.0
H2014 H 0.66424 0.93593 0.26338 0.0
H2015 H 0.68339 0.93355 0.32785 0.0
C2016 C 0.6721 0.90507 0.32805 0.0
C2017 C 0.66438 0.88969 0.3173 0.0
C2018 C 0.674 0.94555 0.27104 0.0
C2019 C 0.67491 0.92375 0.29945 0.0
C2020 C 0.67984 0.96236 0.26226 0.0
C2021 C 0.69262 0.97501 0.27181 0.0
C2022 C 0.68074 0.94149 0.28962 0.0
C2023 C 0.69905 0.97038 0.29035 0.0
C2024 C 0.67747 0.92196 0.31922 0.0
C2025 C 0.66201 0.89214 0.29752 0.0
N2026 N 0.69298 0.95408 0.29866 0.0
N2027 N 0.66722 0.9088 0.28926 0.0
H2028 H 0.64049 0.20849 0.37447 0.0
H2029 H 0.58694 0.22958 0.27449 0.0
H2030 H 0.66417 0.20007 0.31976 0.0
H2031 H 0.56241 0.24438 0.32739 0.0
H2032 H 0.61585 0.22036 0.29168 0.0
H2033 H 0.61257 0.22313 0.35858 0.0
C2034 C 0.63993 0.20987 0.35916 0.0
C2035 C 0.65466 0.20278 0.34844 0.0
C2036 C 0.60429 0.22571 0.29968 0.0
C2037 C 0.62272 0.21944 0.3302 0.0
C2038 C 0.58768 0.23099 0.28982 0.0
C2039 C 0.57213 0.23764 0.29951 0.0
C2040 C 0.60552 0.22675 0.31958 0.0
C2041 C 0.57408 0.23935 0.31937 0.0
C2042 C 0.62395 0.21817 0.35011 0.0
C2043 C 0.65306 0.20491 0.32864 0.0
N2044 N 0.59042 0.2337 0.32881 0.0
N2045 N 0.63743 0.21291 0.32024 0.0
H2046 H 0.3223 0.15068 0.31466 0.0
H2047 H 0.26318 0.06161 0.3532 0.0
H2048 H 0.3165 0.13926 0.37424 0.0
H2049 H 0.26793 0.07473 0.29384 0.0
H2050 H 0.28211 0.09018 0.36137 0.0
H2051 H 0.30237 0.12279 0.30692 0.0
C2052 C 0.31694 0.14224 0.32613 0.0
C2053 C 0.32116 0.14733 0.34514 0.0
C2054 C 0.27897 0.08681 0.34656 0.0
C2055 C 0.29805 0.11539 0.33635 0.0
C2056 C 0.26805 0.07053 0.34188 0.0
C2057 C 0.26402 0.06561 0.32278 0.0
C2058 C 0.28591 0.09828 0.33204 0.0
C2059 C 0.27093 0.07769 0.30873 0.0
C2060 C 0.30543 0.12636 0.3217 0.0
C2061 C 0.31348 0.136 0.35939 0.0
N2062 N 0.28154 0.09339 0.31364 0.0
N2063 N 0.30235 0.12056 0.35471 0.0
H2064 H 0.40312 0.86844 0.31553 0.0
H2065 H 0.44508 0.78315 0.2558 0.0
H2066 H 0.38149 0.81082 0.31737 0.0
H2067 H 0.47292 0.83804 0.26241 0.0
H2068 H 0.42056 0.7936 0.27661 0.0
H2069 H 0.42774 0.85806 0.29463 0.0
C2070 C 0.40355 0.85359 0.31152 0.0
C2071 C 0.39016 0.84049 0.31815 0.0
C2072 C 0.43204 0.80336 0.27351 0.0
C2073 C 0.41836 0.82849 0.29417 0.0
C2074 C 0.44613 0.79739 0.26162 0.0
C2075 C 0.46132 0.80963 0.25738 0.0
C2076 C 0.43296 0.82179 0.28118 0.0
C2077 C 0.46151 0.82809 0.26509 0.0
C2078 C 0.41766 0.84766 0.29963 0.0
C2079 C 0.39159 0.82137 0.3127 0.0
N2080 N 0.4476 0.83357 0.27662 0.0
N2081 N 0.40535 0.81597 0.30095 0.0
H2082 H 0.3347 0.8878 0.73596 0.0
H2083 H 0.2933 0.99311 0.73311 0.0
H2084 H 0.32673 0.92019 0.68445 0.0
H2085 H 0.29939 0.95981 0.78428 0.0
H2086 H 0.30709 0.96731 0.71539 0.0
H2087 H 0.32287 0.91444 0.75399 0.0
C2088 C 0.3305 0.90056 0.72843 0.0
C2089 C 0.33183 0.90178 0.70864 0.0
C2090 C 0.30552 0.96567 0.73051 0.0
C2091 C 0.31813 0.93242 0.72928 0.0
C2092 C 0.29772 0.98045 0.7407 0.0
C2093 C 0.29509 0.97864 0.76026 0.0
C2094 C 0.31076 0.94886 0.73989 0.0
C2095 C 0.30113 0.96187 0.76924 0.0
C2096 C 0.32369 0.91576 0.73875 0.0
C2097 C 0.32584 0.91856 0.69964 0.0
N2098 N 0.30857 0.94761 0.75897 0.0
N2099 N 0.31931 0.93323 0.71003 0.0
H2100 H 0.64964 0.80368 0.67678 0.0
H2101 H 0.54398 0.82112 0.70948 0.0
H2102 H 0.62007 0.85671 0.67251 0.0
H2103 H 0.57525 0.77113 0.72564 0.0
H2104 H 0.56944 0.83072 0.68918 0.0
H2105 H 0.62071 0.78845 0.68862 0.0
C2106 C 0.63695 0.81199 0.67802 0.0
C2107 C 0.6372 0.83148 0.67385 0.0
C2108 C 0.57071 0.8175 0.69692 0.0
C2109 C 0.60426 0.81429 0.68721 0.0
C2110 C 0.5561 0.81195 0.70844 0.0
C2111 C 0.55758 0.79539 0.71937 0.0
C2112 C 0.58718 0.80659 0.69646 0.0
C2113 C 0.57355 0.78399 0.71739 0.0
C2114 C 0.62052 0.80334 0.68484 0.0
C2115 C 0.62049 0.84169 0.67575 0.0
N2116 N 0.58795 0.78997 0.7064 0.0
N2117 N 0.60478 0.83301 0.68235 0.0
H2118 H 0.38103 0.2286 0.68687 0.0
H2119 H 0.47784 0.18914 0.73446 0.0
H2120 H 0.39458 0.16924 0.69229 0.0
H2121 H 0.46657 0.24908 0.73047 0.0
H2122 H 0.44824 0.18225 0.71662 0.0
H2123 H 0.41268 0.23695 0.70071 0.0
C2124 C 0.39066 0.21732 0.69086 0.0
C2125 C 0.38501 0.19815 0.68852 0.0
C2126 C 0.45219 0.19695 0.71946 0.0
C2127 C 0.42126 0.20764 0.7044 0.0
C2128 C 0.46918 0.20091 0.72964 0.0
C2129 C 0.47467 0.21972 0.73408 0.0
C2130 C 0.4403 0.21187 0.71371 0.0
C2131 C 0.4629 0.23438 0.72731 0.0
C2132 C 0.40871 0.22211 0.69881 0.0
C2133 C 0.39809 0.18418 0.69412 0.0
N2134 N 0.44614 0.23013 0.71762 0.0
N2135 N 0.41549 0.1892 0.70178 0.0
H2136 H 0.69344 0.69949 0.10285 0.0
H2137 H 0.78683 0.75799 0.07863 0.0
H2138 H 0.73708 0.71304 0.14574 0.0
H2139 H 0.7589 0.71922 0.03862 0.0
H2140 H 0.76577 0.74658 0.10321 0.0
H2141 H 0.71413 0.71215 0.07852 0.0
C2142 C 0.70727 0.70542 0.10711 0.0
C2143 C 0.71365 0.70534 0.12621 0.0
C2144 C 0.76435 0.74052 0.08906 0.0
C2145 C 0.73721 0.71973 0.09872 0.0
C2146 C 0.77632 0.747 0.07512 0.0
C2147 C 0.77468 0.73935 0.05673 0.0
C2148 C 0.75034 0.72667 0.08439 0.0
C2149 C 0.76079 0.72522 0.05274 0.0
C2150 C 0.71909 0.71245 0.09328 0.0
C2151 C 0.73173 0.71293 0.1311 0.0
N2152 N 0.74901 0.71944 0.06642 0.0
N2153 N 0.74289 0.71992 0.11744 0.0
H2154 H 0.35311 0.67984 0.11388 0.0
H2155 H 0.2627 0.72685 0.06012 0.0
H2156 H 0.29933 0.68523 0.14009 0.0
H2157 H 0.31884 0.72467 0.03855 0.0
H2158 H 0.2737 0.70737 0.08743 0.0
H2159 H 0.33889 0.69219 0.08443 0.0
C2160 C 0.33826 0.68364 0.11346 0.0
C2161 C 0.32752 0.68175 0.12965 0.0
C2162 C 0.28348 0.71084 0.0765 0.0
C2163 C 0.31092 0.69596 0.09563 0.0
C2164 C 0.27713 0.72175 0.06082 0.0
C2165 C 0.28987 0.72724 0.04702 0.0
C2166 C 0.30264 0.70542 0.07825 0.0
C2167 C 0.30855 0.72069 0.04884 0.0
C2168 C 0.33008 0.69063 0.09655 0.0
C2169 C 0.30818 0.68648 0.12799 0.0
N2170 N 0.31436 0.71028 0.06414 0.0
N2171 N 0.30054 0.69355 0.11137 0.0
H2172 H 0.31543 0.33603 0.18368 0.0
H2173 H 0.32577 0.28286 0.08396 0.0
H2174 H 0.36998 0.32804 0.15958 0.0
H2175 H 0.27377 0.30612 0.10343 0.0
H2176 H 0.34248 0.29489 0.11321 0.0
H2177 H 0.30017 0.32043 0.15603 0.0
C2178 C 0.32423 0.33104 0.17254 0.0
C2179 C 0.34403 0.33366 0.17388 0.0
C2180 C 0.3274 0.29726 0.11101 0.0
C2181 C 0.32654 0.31545 0.14209 0.0
C2182 C 0.31787 0.29036 0.0944 0.0
C2183 C 0.29839 0.29362 0.09118 0.0
C2184 C 0.31724 0.30718 0.12453 0.0
C2185 C 0.28883 0.30342 0.10516 0.0
C2186 C 0.31549 0.32204 0.15676 0.0
C2187 C 0.35468 0.32633 0.15918 0.0
N2188 N 0.29831 0.3098 0.12113 0.0
N2189 N 0.3458 0.31765 0.14383 0.0
H2190 H 0.69766 0.37546 0.12706 0.0
H2191 H 0.70733 0.28044 0.06654 0.0
H2192 H 0.68912 0.31914 0.1496 0.0
H2193 H 0.73351 0.33336 0.05023 0.0
H2194 H 0.69815 0.29528 0.09602 0.0
H2195 H 0.70935 0.36119 0.09809 0.0
C2196 C 0.69841 0.36013 0.12604 0.0
C2197 C 0.69212 0.34851 0.14075 0.0
C2198 C 0.70593 0.30368 0.08603 0.0
C2199 C 0.70513 0.33213 0.10751 0.0
C2200 C 0.71102 0.29524 0.06911 0.0
C2201 C 0.72112 0.3057 0.05587 0.0
C2202 C 0.71075 0.32282 0.08972 0.0
C2203 C 0.72583 0.32477 0.06012 0.0
C2204 C 0.70498 0.35201 0.10945 0.0
C2205 C 0.69331 0.32871 0.13849 0.0
N2206 N 0.7205 0.33278 0.07663 0.0
N2207 N 0.69949 0.32119 0.12217 0.0
H2208 H 0.66943 0.33548 0.88173 0.0
H2209 H 0.76907 0.33618 0.94044 0.0
H2210 H 0.72197 0.35402 0.85786 0.0
H2211 H 0.72152 0.30082 0.95554 0.0
H2212 H 0.75099 0.34606 0.91178 0.0
H2213 H 0.68735 0.32549 0.91034 0.0
C2214 C 0.68472 0.33735 0.88236 0.0
C2215 C 0.69411 0.34563 0.86717 0.0
C2216 C 0.74452 0.33613 0.92137 0.0
C2217 C 0.7147 0.33459 0.90029 0.0
C2218 C 0.7548 0.33055 0.93779 0.0
C2219 C 0.74682 0.31762 0.95043 0.0
C2220 C 0.726 0.32896 0.91765 0.0
C2221 C 0.72828 0.31076 0.94617 0.0
C2222 C 0.69493 0.33173 0.89881 0.0
C2223 C 0.71397 0.34803 0.86921 0.0
N2224 N 0.71848 0.31657 0.93021 0.0
N2225 N 0.72355 0.34262 0.88544 0.0
H2226 H 0.69412 0.70805 0.908 0.0
H2227 H 0.77459 0.7783 0.95264 0.0
H2228 H 0.74746 0.71824 0.88188 0.0
H2229 H 0.72976 0.75422 0.98523 0.0
H2230 H 0.76284 0.75957 0.92513 0.0
H2231 H 0.70541 0.72736 0.93528 0.0
C2232 C 0.70829 0.71428 0.90811 0.0
C2233 C 0.7199 0.71155 0.8927 0.0
C2234 C 0.75552 0.75849 0.93828 0.0
C2235 C 0.73281 0.73393 0.92374 0.0
C2236 C 0.76208 0.76933 0.95395 0.0
C2237 C 0.75314 0.76786 0.97133 0.0
C2238 C 0.73977 0.74622 0.93987 0.0
C2239 C 0.73711 0.75582 0.97216 0.0
C2240 C 0.71471 0.7253 0.92365 0.0
C2241 C 0.73814 0.71988 0.89355 0.0
N2242 N 0.73096 0.74547 0.95668 0.0
N2243 N 0.74399 0.73085 0.90875 0.0
H2244 H 0.38575 0.70514 0.89094 0.0
H2245 H 0.29329 0.74321 0.94019 0.0
H2246 H 0.32876 0.69872 0.86648 0.0
H2247 H 0.35024 0.75149 0.96416 0.0
H2248 H 0.3061 0.72672 0.91326 0.0
H2249 H 0.37315 0.72205 0.91786 0.0
C2250 C 0.37059 0.70734 0.89117 0.0
C2251 C 0.35832 0.70046 0.87634 0.0
C2252 C 0.31583 0.73213 0.92439 0.0
C2253 C 0.34375 0.71972 0.90732 0.0
C2254 C 0.30849 0.74149 0.93988 0.0
C2255 C 0.32067 0.74869 0.95461 0.0
C2256 C 0.33553 0.72986 0.92354 0.0
C2257 C 0.34031 0.74633 0.95311 0.0
C2258 C 0.3634 0.71693 0.90661 0.0
C2259 C 0.33876 0.7035 0.87765 0.0
N2260 N 0.34711 0.73707 0.93791 0.0
N2261 N 0.33211 0.7129 0.89281 0.0
H2262 H 0.34245 0.30153 0.89474 0.0
H2263 H 0.29031 0.34045 0.98564 0.0
H2264 H 0.34087 0.36098 0.90973 0.0
H2265 H 0.29606 0.28098 0.97239 0.0
H2266 H 0.30716 0.34852 0.95701 0.0
H2267 H 0.3243 0.29395 0.92249 0.0
C2268 C 0.33839 0.313 0.90391 0.0
C2269 C 0.3433 0.33193 0.89985 0.0
C2270 C 0.30471 0.3337 0.96037 0.0
C2271 C 0.32219 0.32335 0.93166 0.0
C2272 C 0.29498 0.32909 0.97667 0.0
C2273 C 0.29187 0.31 0.98156 0.0
C2274 C 0.31129 0.31912 0.94881 0.0
C2275 C 0.29842 0.29588 0.96943 0.0
C2276 C 0.3279 0.30867 0.91972 0.0
C2277 C 0.33725 0.34621 0.91212 0.0
N2278 N 0.30781 0.30072 0.95368 0.0
N2279 N 0.32706 0.34162 0.92745 0.0
H2280 H 0.64535 0.70674 0.13519 0.0
H2281 H 0.58048 0.73991 0.21923 0.0
H2282 H 0.65972 0.69748 0.19453 0.0
H2283 H 0.56318 0.74401 0.15988 0.0
H2284 H 0.6097 0.72488 0.2104 0.0
H2285 H 0.61547 0.72088 0.14389 0.0
C2286 C 0.64224 0.7077 0.15007 0.0
C2287 C 0.65516 0.70096 0.16415 0.0
C2288 C 0.5995 0.72903 0.19929 0.0
C2289 C 0.62083 0.71714 0.17423 0.0
C2290 C 0.58269 0.73758 0.20433 0.0
C2291 C 0.56912 0.74322 0.19032 0.0
C2292 C 0.60297 0.7261 0.18006 0.0
C2293 C 0.57319 0.7401 0.17122 0.0
C2294 C 0.62512 0.71571 0.15501 0.0
C2295 C 0.65017 0.70232 0.18317 0.0
N2296 N 0.5897 0.73177 0.16667 0.0
N2297 N 0.63348 0.71032 0.18764 0.0
H2298 H 0.32038 0.62174 0.16805 0.0
H2299 H 0.31152 0.59184 0.27721 0.0
H2300 H 0.33475 0.65887 0.21548 0.0
H2301 H 0.30128 0.55296 0.23024 0.0
H2302 H 0.31839 0.61704 0.25467 0.0
H2303 H 0.31057 0.59712 0.19038 0.0
C2304 C 0.32116 0.62481 0.18313 0.0
C2305 C 0.32851 0.64231 0.18992 0.0
C2306 C 0.31461 0.60299 0.24929 0.0
C2307 C 0.31762 0.61419 0.21557 0.0
C2308 C 0.31083 0.58851 0.2622 0.0
C2309 C 0.30576 0.57015 0.25571 0.0
C2310 C 0.31335 0.59917 0.22968 0.0
C2311 C 0.30485 0.5669 0.23598 0.0
C2312 C 0.31574 0.61071 0.19589 0.0
C2313 C 0.32938 0.64548 0.20964 0.0
N2314 N 0.30859 0.58122 0.2237 0.0
N2315 N 0.32413 0.63156 0.22173 0.0
H2316 H 0.38965 0.34363 0.25209 0.0
H2317 H 0.48977 0.30007 0.22651 0.0
H2318 H 0.41075 0.33953 0.1958 0.0
H2319 H 0.46771 0.29461 0.28226 0.0
H2320 H 0.4632 0.3201 0.21705 0.0
H2321 H 0.41978 0.33061 0.26507 0.0
C2322 C 0.4007 0.34021 0.2425 0.0
C2323 C 0.39761 0.34248 0.2228 0.0
C2324 C 0.46418 0.31481 0.23146 0.0
C2325 C 0.43204 0.32772 0.23751 0.0
C2326 C 0.47947 0.30347 0.23691 0.0
C2327 C 0.48095 0.29572 0.25519 0.0
C2328 C 0.44991 0.31825 0.24425 0.0
C2329 C 0.46716 0.3005 0.26809 0.0
C2330 C 0.41784 0.33273 0.24991 0.0
C2331 C 0.41237 0.33775 0.21103 0.0
N2332 N 0.45201 0.31127 0.26229 0.0
N2333 N 0.42882 0.33059 0.21854 0.0
H2334 H 0.6875 0.38917 0.22112 0.0
H2335 H 0.74171 0.48741 0.20266 0.0
H2336 H 0.69519 0.41319 0.16569 0.0
H2337 H 0.73001 0.46812 0.25898 0.0
H2338 H 0.72265 0.46113 0.18929 0.0
H2339 H 0.70117 0.41831 0.2356 0.0
C2340 C 0.6919 0.4006 0.21198 0.0
C2341 C 0.69031 0.3986 0.1921 0.0
C2342 C 0.724 0.46265 0.20458 0.0
C2343 C 0.70608 0.43197 0.20864 0.0
C2344 C 0.73487 0.47772 0.21223 0.0
C2345 C 0.73749 0.4799 0.23196 0.0
C2346 C 0.71583 0.44934 0.21669 0.0
C2347 C 0.72824 0.46698 0.24369 0.0
C2348 C 0.69975 0.41723 0.22028 0.0
C2349 C 0.69645 0.41386 0.18104 0.0
N2350 N 0.718 0.45205 0.23587 0.0
N2351 N 0.7041 0.42979 0.18944 0.0
H2352 H 0.64423 0.33878 0.7894 0.0
H2353 H 0.55551 0.27733 0.82294 0.0
H2354 H 0.62875 0.33276 0.84763 0.0
H2355 H 0.56581 0.28634 0.76379 0.0
H2356 H 0.58154 0.29914 0.83166 0.0
H2357 H 0.61526 0.32104 0.7792 0.0
C2358 C 0.63471 0.33386 0.80004 0.0
C2359 C 0.63908 0.33716 0.81945 0.0
C2360 C 0.57811 0.29656 0.81674 0.0
C2361 C 0.60594 0.31676 0.80784 0.0
C2362 C 0.56318 0.28409 0.81174 0.0
C2363 C 0.55854 0.27994 0.7926 0.0
C2364 C 0.5888 0.30488 0.80254 0.0
C2365 C 0.56889 0.28923 0.77871 0.0
C2366 C 0.61819 0.32369 0.79419 0.0
C2367 C 0.62625 0.33027 0.83256 0.0
N2368 N 0.58373 0.30112 0.78396 0.0
N2369 N 0.61038 0.32039 0.82653 0.0
H2370 H 0.75189 0.67331 0.84399 0.0
H2371 H 0.74013 0.56704 0.80293 0.0
H2372 H 0.69839 0.64268 0.83912 0.0
H2373 H 0.78986 0.60221 0.79502 0.0
H2374 H 0.72625 0.59301 0.82049 0.0
H2375 H 0.76742 0.64599 0.83 0.0
C2376 C 0.74343 0.66081 0.84008 0.0
C2377 C 0.72376 0.66037 0.84264 0.0
C2378 C 0.74027 0.595 0.81504 0.0
C2379 C 0.74148 0.62897 0.82667 0.0
C2380 C 0.74828 0.58011 0.80511 0.0
C2381 C 0.76621 0.58241 0.79737 0.0
C2382 C 0.75024 0.61236 0.81742 0.0
C2383 C 0.776 0.59977 0.80064 0.0
C2384 C 0.75229 0.64524 0.83203 0.0
C2385 C 0.71351 0.64379 0.83717 0.0
N2386 N 0.76788 0.61407 0.81034 0.0
N2387 N 0.72247 0.62879 0.8295 0.0
H2388 H 0.39758 0.69219 0.79789 0.0
H2389 H 0.50018 0.73892 0.82145 0.0
H2390 H 0.42291 0.69968 0.85433 0.0
H2391 H 0.47594 0.7343 0.76435 0.0
H2392 H 0.47334 0.72087 0.83292 0.0
H2393 H 0.42699 0.7044 0.78473 0.0
C2394 C 0.40937 0.69626 0.80752 0.0
C2395 C 0.4077 0.69502 0.82729 0.0
C2396 C 0.47388 0.72357 0.81784 0.0
C2397 C 0.44138 0.70904 0.81228 0.0
C2398 C 0.48929 0.73382 0.81126 0.0
C2399 C 0.49024 0.7382 0.79193 0.0
C2400 C 0.45904 0.71778 0.80508 0.0
C2401 C 0.47578 0.73114 0.77936 0.0
C2402 C 0.42613 0.70327 0.79998 0.0
C2403 C 0.42338 0.70067 0.83904 0.0
N2404 N 0.4606 0.72148 0.78619 0.0
N2405 N 0.43948 0.70744 0.83137 0.0
H2406 H 0.32547 0.37064 0.84451 0.0
H2407 H 0.36723 0.45872 0.78677 0.0
H2408 H 0.38536 0.3831 0.84091 0.0
H2409 H 0.30731 0.4459 0.78945 0.0
H2410 H 0.37409 0.4311 0.80659 0.0
H2411 H 0.31846 0.39845 0.82483 0.0
C2412 C 0.33715 0.37929 0.8397 0.0
C2413 C 0.35604 0.37448 0.84437 0.0
C2414 C 0.35943 0.43432 0.80285 0.0
C2415 C 0.34812 0.40626 0.82162 0.0
C2416 C 0.35549 0.45007 0.7914 0.0
C2417 C 0.33663 0.45474 0.78638 0.0
C2418 C 0.34443 0.42308 0.80936 0.0
C2419 C 0.32204 0.44307 0.79313 0.0
C2420 C 0.33314 0.3951 0.82835 0.0
C2421 C 0.37059 0.38609 0.83747 0.0
N2422 N 0.32625 0.42781 0.80424 0.0
N2423 N 0.36632 0.4014 0.82647 0.0
H2424 H 0.71591 0.64077 0.14526 0.0
H2425 H 0.74629 0.58505 0.24038 0.0
H2426 H 0.70075 0.65915 0.20092 0.0
H2427 H 0.76441 0.56989 0.18476 0.0
H2428 H 0.72815 0.61116 0.22629 0.0
H2429 H 0.73197 0.61356 0.15951 0.0
C2430 C 0.71594 0.63905 0.16052 0.0
C2431 C 0.70717 0.65241 0.17194 0.0
C2432 C 0.73608 0.60211 0.21717 0.0
C2433 C 0.72555 0.6211 0.18842 0.0
C2434 C 0.7464 0.58713 0.22519 0.0
C2435 C 0.7569 0.57517 0.21374 0.0
C2436 C 0.73617 0.60518 0.19751 0.0
C2437 C 0.75673 0.57882 0.19418 0.0
C2438 C 0.72511 0.62347 0.16865 0.0
C2439 C 0.7073 0.6492 0.19159 0.0
N2440 N 0.74651 0.59345 0.1867 0.0
N2441 N 0.71648 0.63393 0.19923 0.0
H2442 H 0.65743 0.40232 0.80643 0.0
H2443 H 0.7465 0.4677 0.78102 0.0
H2444 H 0.71575 0.38587 0.81657 0.0
H2445 H 0.68859 0.48085 0.76386 0.0
H2446 H 0.73549 0.43757 0.79365 0.0
H2447 H 0.66848 0.43099 0.79055 0.0
C2448 C 0.67256 0.40461 0.80518 0.0
C2449 C 0.68566 0.3916 0.81294 0.0
C2450 C 0.72519 0.447 0.78703 0.0
C2451 C 0.69843 0.42466 0.79496 0.0
C2452 C 0.73149 0.46426 0.77966 0.0
C2453 C 0.71849 0.47708 0.77135 0.0
C2454 C 0.7057 0.44243 0.78625 0.0
C2455 C 0.69916 0.47168 0.77037 0.0
C2456 C 0.67886 0.42107 0.79618 0.0
C2457 C 0.7051 0.3956 0.81112 0.0
N2458 N 0.69336 0.45486 0.77782 0.0
N2459 N 0.71088 0.41176 0.8024 0.0
H2460 H 0.67645 0.70451 0.8133 0.0
H2461 H 0.58139 0.75781 0.83877 0.0
H2462 H 0.65498 0.70756 0.86956 0.0
H2463 H 0.59732 0.74893 0.78109 0.0
H2464 H 0.60842 0.73915 0.84996 0.0
H2465 H 0.6474 0.71968 0.80072 0.0
C2466 C 0.66552 0.7081 0.82296 0.0
C2467 C 0.66827 0.70497 0.84255 0.0
C2468 C 0.60603 0.7412 0.83484 0.0
C2469 C 0.63518 0.72257 0.82833 0.0
C2470 C 0.59064 0.75203 0.82844 0.0
C2471 C 0.58713 0.7551 0.80895 0.0
C2472 C 0.61819 0.73342 0.82171 0.0
C2473 C 0.59944 0.74685 0.79623 0.0
C2474 C 0.64901 0.71688 0.8158 0.0
C2475 C 0.65367 0.71005 0.85441 0.0
N2476 N 0.6145 0.7365 0.80282 0.0
N2477 N 0.63789 0.71871 0.84715 0.0
H2478 H 0.35637 0.65805 0.79762 0.0
H2479 H 0.30557 0.55629 0.80969 0.0
H2480 H 0.34596 0.63494 0.85289 0.0
H2481 H 0.33409 0.57483 0.75995 0.0
H2482 H 0.3146 0.58687 0.82524 0.0
H2483 H 0.34216 0.62953 0.783 0.0
C2484 C 0.3511 0.64696 0.80671 0.0
C2485 C 0.35271 0.64878 0.82653 0.0
C2486 C 0.31874 0.58416 0.81089 0.0
C2487 C 0.33615 0.61598 0.8098 0.0
C2488 C 0.31355 0.56681 0.80202 0.0
C2489 C 0.31928 0.56296 0.7836 0.0
C2490 C 0.32935 0.59775 0.80104 0.0
C2491 C 0.3296 0.57705 0.77426 0.0
C2492 C 0.3429 0.63068 0.79834 0.0
C2493 C 0.34505 0.63413 0.83754 0.0
N2494 N 0.33425 0.59373 0.78305 0.0
N2495 N 0.33723 0.61824 0.82903 0.0
H2496 H 0.38236 0.29036 0.86289 0.0
H2497 H 0.48051 0.28781 0.81033 0.0
H2498 H 0.41465 0.34051 0.84846 0.0
H2499 H 0.45439 0.23774 0.8336 0.0
H2500 H 0.45596 0.30716 0.8237 0.0
H2501 H 0.40818 0.27067 0.85221 0.0
C2502 C 0.39492 0.29727 0.85766 0.0
C2503 C 0.3962 0.31718 0.85646 0.0
C2504 C 0.4556 0.29195 0.82597 0.0
C2505 C 0.42572 0.29466 0.84393 0.0
C2506 C 0.46956 0.28087 0.81822 0.0
C2507 C 0.46945 0.26109 0.82073 0.0
C2508 C 0.44123 0.28323 0.83623 0.0
C2509 C 0.45509 0.25293 0.83141 0.0
C2510 C 0.40962 0.28599 0.85146 0.0
C2511 C 0.41278 0.32525 0.84931 0.0
N2512 N 0.44147 0.26402 0.83866 0.0
N2513 N 0.42679 0.31398 0.84324 0.0
H2514 H 0.36921 0.40528 0.2235 0.0
H2515 H 0.27117 0.45683 0.24407 0.0
H2516 H 0.31445 0.37723 0.21631 0.0
H2517 H 0.32675 0.48282 0.2524 0.0
H2518 H 0.28608 0.4284 0.23115 0.0
H2519 H 0.35341 0.43435 0.23257 0.0
C2520 C 0.35387 0.40516 0.22399 0.0
C2521 C 0.34321 0.3887 0.21915 0.0
C2522 C 0.29496 0.44045 0.23559 0.0
C2523 C 0.32486 0.4222 0.22925 0.0
C2524 C 0.28642 0.45674 0.24275 0.0
C2525 C 0.29774 0.47217 0.24936 0.0
C2526 C 0.3149 0.43971 0.23502 0.0
C2527 C 0.31748 0.47119 0.24759 0.0
C2528 C 0.34481 0.42185 0.229 0.0
C2529 C 0.32328 0.3896 0.21972 0.0
N2530 N 0.32539 0.45526 0.24075 0.0
N2531 N 0.31477 0.40602 0.22468 0.0
H2532 H 0.65269 0.34653 0.21877 0.0
H2533 H 0.56032 0.28174 0.19351 0.0
H2534 H 0.62822 0.33904 0.16198 0.0
H2535 H 0.58372 0.29068 0.25051 0.0
H2536 H 0.5849 0.30297 0.1817 0.0
H2537 H 0.62685 0.32705 0.23085 0.0
C2538 C 0.64177 0.34098 0.20887 0.0
C2539 C 0.64272 0.34431 0.18932 0.0
C2540 C 0.58462 0.30032 0.19681 0.0
C2541 C 0.61324 0.32175 0.20299 0.0
C2542 C 0.57066 0.28808 0.20354 0.0
C2543 C 0.56989 0.28442 0.22304 0.0
C2544 C 0.59799 0.30892 0.20965 0.0
C2545 C 0.58355 0.29327 0.2354 0.0
C2546 C 0.62709 0.32973 0.21575 0.0
C2547 C 0.62826 0.33656 0.17712 0.0
N2548 N 0.59703 0.30506 0.2285 0.0
N2549 N 0.61419 0.32559 0.18414 0.0
H2550 H 0.3969 0.6569 0.17507 0.0
H2551 H 0.45569 0.74048 0.22796 0.0
H2552 H 0.37495 0.71336 0.18027 0.0
H2553 H 0.48348 0.69545 0.19877 0.0
H2554 H 0.42496 0.72811 0.21544 0.0
H2555 H 0.42799 0.66854 0.18782 0.0
C2556 C 0.39874 0.67179 0.17876 0.0
C2557 C 0.3835 0.68428 0.1765 0.0
C2558 C 0.43779 0.72089 0.21189 0.0
C2559 C 0.41868 0.69752 0.19155 0.0
C2560 C 0.45533 0.7278 0.21918 0.0
C2561 C 0.47222 0.71897 0.21442 0.0
C2562 C 0.43705 0.70483 0.20001 0.0
C2563 C 0.47084 0.70271 0.2028 0.0
C2564 C 0.41641 0.6784 0.18605 0.0
C2565 C 0.38647 0.70339 0.18163 0.0
N2566 N 0.45355 0.69613 0.19603 0.0
N2567 N 0.40368 0.70941 0.1891 0.0
loop_
_geom_bond_atom_site_label_1
_geom_bond_atom_site_label_2
_geom_bond_distance
_geom_bond_site_symmetry_2
_ccdc_geom_bond_type
H0 C3 0.931 . S
H1 C6 0.928 . S
H2 C8 0.930 . S
C3 H0 0.931 . S
C3 C4 1.413 . S
C3 C5 1.360 . S
C4 C3 1.413 . S
C4 C8 1.429 . S
C5 C3 1.360 . S
C5 C6 1.372 . S
C6 H1 0.928 . S
C6 C5 1.372 . S
C6 C7 1.404 . S
C7 C6 1.404 . S
C7 C8 1.391 . S
C8 H2 0.930 . S
C8 C4 1.429 . S
C8 C7 1.391 . S
H9 C12 0.931 . S
H10 C15 0.928 . S
H11 C17 0.930 . S
C12 H9 0.931 . S
C12 C13 1.413 . S
C12 C14 1.360 . S
C13 C12 1.413 . S
C13 C17 1.429 . S
C14 C12 1.360 . S
C14 C15 1.372 . S
C15 H10 0.928 . S
C15 C14 1.372 . S
C15 C16 1.404 . S
C16 C15 1.404 . S
C16 C17 1.391 . S
C17 H11 0.930 . S
C17 C13 1.429 . S
C17 C16 1.391 . S
H18 C21 0.931 . S
H19 C24 0.928 . S
H20 C26 0.930 . S
C21 H18 0.931 . S
C21 C22 1.413 . S
C21 C23 1.360 . S
C22 C21 1.413 . S
C22 C26 1.429 . S
C23 C21 1.360 . S
C23 C24 1.372 . S
C24 H19 0.928 . S
C24 C23 1.372 . S
C24 C25 1.404 . S
C25 C24 1.404 . S
C25 C26 1.391 . S
C26 H20 0.930 . S
C26 C22 1.429 . S
C26 C25 1.391 . S
H27 C30 0.931 . S
H28 C33 0.928 . S
H29 C35 0.930 . S
C30 H27 0.931 . S
C30 C31 1.413 . S
C30 C32 1.360 . S
C31 C30 1.413 . S
C31 C35 1.429 . S
C32 C30 1.360 . S
C32 C33 1.372 . S
C33 H28 0.928 . S
C33 C32 1.372 . S
C33 C34 1.404 . S
C34 C33 1.404 . S
C34 C35 1.391 . S
C35 H29 0.930 . S
C35 C31 1.429 . S
C35 C34 1.391 . S
H36 C39 0.931 . S
H37 C42 0.928 . S
H38 C44 0.930 . S
C39 H36 0.931 . S
C39 C40 1.413 . S
C39 C41 1.360 . S
C40 C39 1.413 . S
C40 C44 1.429 . S
C41 C39 1.360 . S
C41 C42 1.372 . S
C42 H37 0.928 . S
C42 C41 1.372 . S
C42 C43 1.404 . S
C43 C42 1.404 . S
C43 C44 1.391 . S
C44 H38 0.930 . S
C44 C40 1.429 . S
C44 C43 1.391 . S
H45 C48 0.931 . S
H46 C51 0.928 . S
H47 C53 0.930 . S
C48 H45 0.931 . S
C48 C49 1.413 . S
C48 C50 1.360 . S
C49 C48 1.413 . S
C49 C53 1.429 . S
C50 C48 1.360 . S
C50 C51 1.372 . S
C51 H46 0.928 . S
C51 C50 1.372 . S
C51 C52 1.404 . S
C52 C51 1.404 . S
C52 C53 1.391 . S
C53 H47 0.930 . S
C53 C49 1.429 . S
C53 C52 1.391 . S
H54 C57 0.931 . S
H55 C60 0.928 . S
H56 C62 0.930 . S
C57 H54 0.931 . S
C57 C58 1.413 . S
C57 C59 1.360 . S
C58 C57 1.413 . S
C58 C62 1.429 . S
C59 C57 1.360 . S
C59 C60 1.372 . S
C60 H55 0.928 . S
C60 C59 1.372 . S
C60 C61 1.404 . S
C61 C60 1.404 . S
C61 C62 1.391 . S
C62 H56 0.930 . S
C62 C58 1.429 . S
C62 C61 1.391 . S
H63 C66 0.931 . S
H64 C69 0.928 . S
H65 C71 0.930 . S
C66 H63 0.931 . S
C66 C67 1.413 . S
C66 C68 1.360 . S
C67 C66 1.413 . S
C67 C71 1.429 . S
C68 C66 1.360 . S
C68 C69 1.372 . S
C69 H64 0.928 . S
C69 C68 1.372 . S
C69 C70 1.404 . S
C70 C69 1.404 . S
C70 C71 1.391 . S
C71 H65 0.930 . S
C71 C67 1.429 . S
C71 C70 1.391 . S
H72 C75 0.931 . S
H73 C78 0.928 . S
H74 C80 0.930 . S
C75 H72 0.931 . S
C75 C76 1.413 . S
C75 C77 1.360 . S
C76 C75 1.413 . S
C76 C80 1.429 . S
C77 C75 1.360 . S
C77 C78 1.372 . S
C78 H73 0.928 . S
C78 C77 1.372 . S
C78 C79 1.404 . S
C79 C78 1.404 . S
C79 C80 1.391 . S
C80 H74 0.930 . S
C80 C76 1.429 . S
C80 C79 1.391 . S
H81 C84 0.931 . S
H82 C87 0.928 . S
H83 C89 0.930 . S
C84 H81 0.931 . S
C84 C85 1.413 . S
C84 C86 1.360 . S
C85 C84 1.413 . S
C85 C89 1.429 . S
C86 C84 1.360 . S
C86 C87 1.372 . S
C87 H82 0.928 . S
C87 C86 1.372 . S
C87 C88 1.404 . S
C88 C87 1.404 . S
C88 C89 1.391 . S
C89 H83 0.930 . S
C89 C85 1.429 . S
C89 C88 1.391 . S
H90 C93 0.931 . S
H91 C96 0.928 . S
H92 C98 0.930 . S
C93 H90 0.931 . S
C93 C94 1.413 . S
C93 C95 1.360 . S
C94 C93 1.413 . S
C94 C98 1.429 . S
C95 C93 1.360 . S
C95 C96 1.372 . S
C96 H91 0.928 . S
C96 C95 1.372 . S
C96 C97 1.404 . S
C97 C96 1.404 . S
C97 C98 1.391 . S
C98 H92 0.930 . S
C98 C94 1.429 . S
C98 C97 1.391 . S
H99 C102 0.931 . S
H100 C105 0.928 . S
H101 C107 0.930 . S
C102 H99 0.931 . S
C102 C103 1.413 . S
C102 C104 1.360 . S
C103 C102 1.413 . S
C103 C107 1.429 . S
C104 C102 1.360 . S
C104 C105 1.372 . S
C105 H100 0.928 . S
C105 C104 1.372 . S
C105 C106 1.404 . S
C106 C105 1.404 . S
C106 C107 1.391 . S
C107 H101 0.930 . S
C107 C103 1.429 . S
C107 C106 1.391 . S
H108 C111 0.931 . S
H109 C114 0.928 . S
H110 C116 0.930 . S
C111 H108 0.931 . S
C111 C112 1.413 . S
C111 C113 1.360 . S
C112 C111 1.413 . S
C112 C116 1.429 . S
C113 C111 1.360 . S
C113 C114 1.372 . S
C114 H109 0.928 . S
C114 C113 1.372 . S
C114 C115 1.404 . S
C115 C114 1.404 . S
C115 C116 1.391 . S
C116 H110 0.930 . S
C116 C112 1.429 . S
C116 C115 1.391 . S
H117 C120 0.931 . S
H118 C123 0.928 . S
H119 C125 0.930 . S
C120 H117 0.931 . S
C120 C121 1.413 . S
C120 C122 1.360 . S
C121 C120 1.413 . S
C121 C125 1.429 . S
C122 C120 1.360 . S
C122 C123 1.372 . S
C123 H118 0.928 . S
C123 C122 1.372 . S
C123 C124 1.404 . S
C124 C123 1.404 . S
C124 C125 1.391 . S
C125 H119 0.930 . S
C125 C121 1.429 . S
C125 C124 1.391 . S
H126 C129 0.931 . S
H127 C132 0.928 . S
H128 C134 0.930 . S
C129 H126 0.931 . S
C129 C130 1.413 . S
C129 C131 1.360 . S
C130 C129 1.413 . S
C130 C134 1.429 . S
C131 C129 1.360 . S
C131 C132 1.372 . S
C132 H127 0.928 . S
C132 C131 1.372 . S
C132 C133 1.404 . S
C133 C132 1.404 . S
C133 C134 1.391 . S
C134 H128 0.930 . S
C134 C130 1.429 . S
C134 C133 1.391 . S
H135 C138 0.931 . S
H136 C141 0.928 . S
H137 C143 0.930 . S
C138 H135 0.931 . S
C138 C139 1.413 . S
C138 C140 1.360 . S
C139 C138 1.413 . S
C139 C143 1.429 . S
C140 C138 1.360 . S
C140 C141 1.372 . S
C141 H136 0.928 . S
C141 C140 1.372 . S
C141 C142 1.404 . S
C142 C141 1.404 . S
C142 C143 1.391 . S
C143 H137 0.930 . S
C143 C139 1.429 . S
C143 C142 1.391 . S
H144 C147 0.931 . S
H145 C150 0.928 . S
H146 C152 0.930 . S
C147 H144 0.931 . S
C147 C148 1.413 . S
C147 C149 1.360 . S
C148 C147 1.413 . S
C148 C152 1.429 . S
C149 C147 1.360 . S
C149 C150 1.372 . S
C150 H145 0.928 . S
C150 C149 1.372 . S
C150 C151 1.404 . S
C151 C150 1.404 . S
C151 C152 1.391 . S
C152 H146 0.930 . S
C152 C148 1.429 . S
C152 C151 1.391 . S
H153 C156 0.931 . S
H154 C159 0.928 . S
H155 C161 0.930 . S
C156 H153 0.931 . S
C156 C157 1.413 . S
C156 C158 1.360 . S
C157 C156 1.413 . S
C157 C161 1.429 . S
C158 C156 1.360 . S
C158 C159 1.372 . S
C159 H154 0.928 . S
C159 C158 1.372 . S
C159 C160 1.404 . S
C160 C159 1.404 . S
C160 C161 1.391 . S
C161 H155 0.930 . S
C161 C157 1.429 . S
C161 C160 1.391 . S
H162 C165 0.931 . S
H163 C168 0.928 . S
H164 C170 0.930 . S
C165 H162 0.931 . S
C165 C166 1.413 . S
C165 C167 1.360 . S
C166 C165 1.413 . S
C166 C170 1.429 . S
C167 C165 1.360 . S
C167 C168 1.372 . S
C168 H163 0.928 . S
C168 C167 1.372 . S
C168 C169 1.404 . S
C169 C168 1.404 . S
C169 C170 1.391 . S
C170 H164 0.930 . S
C170 C166 1.429 . S
C170 C169 1.391 . S
H171 C174 0.931 . S
H172 C177 0.928 . S
H173 C179 0.930 . S
C174 H171 0.931 . S
C174 C175 1.413 . S
C174 C176 1.360 . S
C175 C174 1.413 . S
C175 C179 1.429 . S
C176 C174 1.360 . S
C176 C177 1.372 . S
C177 H172 0.928 . S
C177 C176 1.372 . S
C177 C178 1.404 . S
C178 C177 1.404 . S
C178 C179 1.391 . S
C179 H173 0.930 . S
C179 C175 1.429 . S
C179 C178 1.391 . S
H180 C183 0.931 . S
H181 C186 0.928 . S
H182 C188 0.930 . S
C183 H180 0.931 . S
C183 C184 1.413 . S
C183 C185 1.360 . S
C184 C183 1.413 . S
C184 C188 1.429 . S
C185 C183 1.360 . S
C185 C186 1.372 . S
C186 H181 0.928 . S
C186 C185 1.372 . S
C186 C187 1.404 . S
C187 C186 1.404 . S
C187 C188 1.391 . S
C188 H182 0.930 . S
C188 C184 1.429 . S
C188 C187 1.391 . S
H189 C192 0.931 . S
H190 C195 0.928 . S
H191 C197 0.930 . S
C192 H189 0.931 . S
C192 C193 1.413 . S
C192 C194 1.360 . S
C193 C192 1.413 . S
C193 C197 1.429 . S
C194 C192 1.360 . S
C194 C195 1.372 . S
C195 H190 0.928 . S
C195 C194 1.372 . S
C195 C196 1.404 . S
C196 C195 1.404 . S
C196 C197 1.391 . S
C197 H191 0.930 . S
C197 C193 1.429 . S
C197 C196 1.391 . S
H198 C201 0.931 . S
H199 C204 0.928 . S
H200 C206 0.930 . S
C201 H198 0.931 . S
C201 C202 1.413 . S
C201 C203 1.360 . S
C202 C201 1.413 . S
C202 C206 1.429 . S
C203 C201 1.360 . S
C203 C204 1.372 . S
C204 H199 0.928 . S
C204 C203 1.372 . S
C204 C205 1.404 . S
C205 C204 1.404 . S
C205 C206 1.391 . S
C206 H200 0.930 . S
C206 C202 1.429 . S
C206 C205 1.391 . S
H207 C210 0.931 . S
H208 C213 0.928 . S
H209 C215 0.930 . S
C210 H207 0.931 . S
C210 C211 1.413 . S
C210 C212 1.360 . S
C211 C210 1.413 . S
C211 C215 1.429 . S
C212 C210 1.360 . S
C212 C213 1.372 . S
C213 H208 0.928 . S
C213 C212 1.372 . S
C213 C214 1.404 . S
C214 C213 1.404 . S
C214 C215 1.391 . S
C215 H209 0.930 . S
C215 C211 1.429 . S
C215 C214 1.391 . S
H216 C219 0.931 . S
H217 C222 0.928 . S
H218 C224 0.930 . S
C219 H216 0.931 . S
C219 C220 1.413 . S
C219 C221 1.360 . S
C220 C219 1.413 . S
C220 C224 1.429 . S
C221 C219 1.360 . S
C221 C222 1.372 . S
C222 H217 0.928 . S
C222 C221 1.372 . S
C222 C223 1.404 . S
C223 C222 1.404 . S
C223 C224 1.391 . S
C224 H218 0.930 . S
C224 C220 1.429 . S
C224 C223 1.391 . S
H225 C228 0.931 . S
H226 C231 0.928 . S
H227 C233 0.930 . S
C228 H225 0.931 . S
C228 C229 1.413 . S
C228 C230 1.360 . S
C229 C228 1.413 . S
C229 C233 1.429 . S
C230 C228 1.360 . S
C230 C231 1.372 . S
C231 H226 0.928 . S
C231 C230 1.372 . S
C231 C232 1.404 . S
C232 C231 1.404 . S
C232 C233 1.391 . S
C233 H227 0.930 . S
C233 C229 1.429 . S
C233 C232 1.391 . S
H234 C237 0.931 . S
H235 C240 0.928 . S
H236 C242 0.930 . S
C237 H234 0.931 . S
C237 C238 1.413 . S
C237 C239 1.360 . S
C238 C237 1.413 . S
C238 C242 1.429 . S
C239 C237 1.360 . S
C239 C240 1.372 . S
C240 H235 0.928 . S
C240 C239 1.372 . S
C240 C241 1.404 . S
C241 C240 1.404 . S
C241 C242 1.391 . S
C242 H236 0.930 . S
C242 C238 1.429 . S
C242 C241 1.391 . S
H243 C246 0.931 . S
H244 C249 0.928 . S
H245 C251 0.930 . S
C246 H243 0.931 . S
C246 C247 1.413 . S
C246 C248 1.360 . S
C247 C246 1.413 . S
C247 C251 1.429 . S
C248 C246 1.360 . S
C248 C249 1.372 . S
C249 H244 0.928 . S
C249 C248 1.372 . S
C249 C250 1.404 . S
C250 C249 1.404 . S
C250 C251 1.391 . S
C251 H245 0.930 . S
C251 C247 1.429 . S
C251 C250 1.391 . S
H252 C255 0.931 . S
H253 C258 0.928 . S
H254 C260 0.930 . S
C255 H252 0.931 . S
C255 C256 1.413 . S
C255 C257 1.360 . S
C256 C255 1.413 . S
C256 C260 1.429 . S
C257 C255 1.360 . S
C257 C258 1.372 . S
C258 H253 0.928 . S
C258 C257 1.372 . S
C258 C259 1.404 . S
C259 C258 1.404 . S
C259 C260 1.391 . S
C260 H254 0.930 . S
C260 C256 1.429 . S
C260 C259 1.391 . S
H261 C264 0.931 . S
H262 C267 0.928 . S
H263 C269 0.930 . S
C264 H261 0.931 . S
C264 C265 1.413 . S
C264 C266 1.360 . S
C265 C264 1.413 . S
C265 C269 1.429 . S
C266 C264 1.360 . S
C266 C267 1.372 . S
C267 H262 0.928 . S
C267 C266 1.372 . S
C267 C268 1.404 . S
C268 C267 1.404 . S
C268 C269 1.391 . S
C269 H263 0.930 . S
C269 C265 1.429 . S
C269 C268 1.391 . S
H270 C273 0.931 . S
H271 C276 0.928 . S
H272 C278 0.930 . S
C273 H270 0.931 . S
C273 C274 1.413 . S
C273 C275 1.360 . S
C274 C273 1.413 . S
C274 C278 1.429 . S
C275 C273 1.360 . S
C275 C276 1.372 . S
C276 H271 0.928 . S
C276 C275 1.372 . S
C276 C277 1.404 . S
C277 C276 1.404 . S
C277 C278 1.391 . S
C278 H272 0.930 . S
C278 C274 1.429 . S
C278 C277 1.391 . S
H279 C282 0.931 . S
H280 C285 0.928 . S
H281 C287 0.930 . S
C282 H279 0.931 . S
C282 C283 1.413 . S
C282 C284 1.360 . S
C283 C282 1.413 . S
C283 C287 1.429 . S
C284 C282 1.360 . S
C284 C285 1.372 . S
C285 H280 0.928 . S
C285 C284 1.372 . S
C285 C286 1.404 . S
C286 C285 1.404 . S
C286 C287 1.391 . S
C287 H281 0.930 . S
C287 C283 1.429 . S
C287 C286 1.391 . S
Cu288 N289 1.999 . S
Cu288 O294 1.974 1_554 S
Cu288 N299 1.985 . S
Cu288 O308 1.959 . S
N289 Cu288 1.999 . S
N289 C291 1.263 1_554 S
N289 C293 1.389 . S
N290 C291 1.358 . S
N290 C292 1.400 . S
C291 N289 1.263 1_556 S
C291 N290 1.358 . S
C291 H297 0.930 . S
C292 N290 1.400 . S
C292 C293 1.351 1_556 S
C292 H309 0.930 . S
C293 N289 1.389 . S
C293 C292 1.351 1_554 S
C293 H298 0.930 . S
O294 Cu288 1.974 1_556 S
O294 C304 1.282 . S
C295 O296 1.261 . S
C295 O308 1.251 . S
O296 C295 1.261 . S
H297 C291 0.930 . S
H298 C293 0.930 . S
N299 Cu288 1.985 . S
N299 C301 1.335 . S
N299 C302 1.390 . S
N300 C301 1.345 . S
N300 C303 1.336 . S
C301 N299 1.335 . S
C301 N300 1.345 . S
C301 H306 0.930 . S
C302 N299 1.390 . S
C302 C303 1.346 . S
C302 H307 0.930 . S
C303 N300 1.336 . S
C303 C302 1.346 . S
C303 H310 0.929 . S
C304 O294 1.282 . S
C304 O305 1.216 . S
O305 C304 1.216 . S
H306 C301 0.930 . S
H307 C302 0.930 . S
O308 Cu288 1.959 . S
O308 C295 1.251 . S
H309 C292 0.930 . S
H310 C303 0.929 . S
Cu311 N312 1.999 . S
Cu311 O317 1.974 . S
Cu311 N322 1.985 1_554 S
Cu311 O331 1.959 1_554 S
N312 Cu311 1.999 . S
N312 C314 1.263 . S
N312 C316 1.389 . S
N313 C314 1.358 . S
N313 C315 1.400 . S
C314 N312 1.263 . S
C314 N313 1.358 . S
C314 H320 0.930 . S
C315 N313 1.400 . S
C315 C316 1.351 . S
C315 H332 0.930 . S
C316 N312 1.389 . S
C316 C315 1.351 . S
C316 H321 0.930 . S
O317 Cu311 1.974 . S
O317 C327 1.282 . S
C318 O319 1.261 . S
C318 O331 1.251 . S
O319 C318 1.261 . S
H320 C314 0.930 . S
H321 C316 0.930 . S
N322 Cu311 1.985 1_556 S
N322 C324 1.335 . S
N322 C325 1.390 . S
N323 C324 1.345 . S
N323 C326 1.336 . S
C324 N322 1.335 . S
C324 N323 1.345 . S
C324 H329 0.930 . S
C325 N322 1.390 . S
C325 C326 1.346 . S
C325 H330 0.930 1_556 S
C326 N323 1.336 . S
C326 C325 1.346 . S
C326 H333 0.929 . S
C327 O317 1.282 . S
C327 O328 1.216 . S
O328 C327 1.216 . S
H329 C324 0.930 . S
H330 C325 0.930 1_554 S
O331 Cu311 1.959 1_556 S
O331 C318 1.251 . S
H332 C315 0.930 . S
H333 C326 0.929 . S
Cu334 N335 1.999 1_554 S
Cu334 O340 1.974 1_554 S
Cu334 N345 1.985 . S
Cu334 O354 1.959 . S
N335 Cu334 1.999 1_556 S
N335 C337 1.263 . S
N335 C339 1.389 . S
N336 C337 1.358 . S
N336 C338 1.400 . S
C337 N335 1.263 . S
C337 N336 1.358 . S
C337 H343 0.930 . S
C338 N336 1.400 . S
C338 C339 1.351 . S
C338 H355 0.930 . S
C339 N335 1.389 . S
C339 C338 1.351 . S
C339 H344 0.964 . S
O340 Cu334 1.974 1_556 S
O340 C350 1.282 . S
C341 O342 1.261 . S
C341 O354 1.251 . S
O342 C341 1.261 . S
H343 C337 0.930 . S
H344 C339 0.964 . S
N345 Cu334 1.985 . S
N345 C347 1.335 . S
N345 C348 1.390 . S
N346 C347 1.345 . S
N346 C349 1.336 . S
C347 N345 1.335 . S
C347 N346 1.345 . S
C347 H352 0.930 . S
C348 N345 1.390 . S
C348 C349 1.346 . S
C348 H353 0.934 . S
C349 N346 1.336 . S
C349 C348 1.346 . S
C349 H356 0.929 . S
C350 O340 1.282 . S
C350 O351 1.216 . S
O351 C350 1.216 . S
H352 C347 0.930 . S
H353 C348 0.934 . S
O354 Cu334 1.959 . S
O354 C341 1.251 . S
H355 C338 0.930 . S
H356 C349 0.929 . S
Cu357 N358 2.002 . S
Cu357 O363 1.977 . S
Cu357 N368 1.982 1_554 S
Cu357 O377 1.956 1_554 S
N358 Cu357 2.002 . S
N358 C360 1.263 . S
N358 C362 1.389 . S
N359 C360 1.358 . S
N359 C361 1.400 . S
C360 N358 1.263 . S
C360 N359 1.358 . S
C360 H366 0.930 . S
C361 N359 1.400 . S
C361 C362 1.351 . S
C361 H378 0.930 . S
C362 N358 1.389 . S
C362 C361 1.351 . S
C362 H367 0.930 . S
O363 Cu357 1.977 . S
O363 C373 1.282 . S
C364 O365 1.261 . S
C364 O377 1.251 . S
O365 C364 1.261 . S
H366 C360 0.930 . S
H367 C362 0.930 . S
N368 Cu357 1.982 1_556 S
N368 C370 1.335 . S
N368 C371 1.390 . S
N369 C370 1.345 . S
N369 C372 1.336 . S
C370 N368 1.335 . S
C370 N369 1.345 . S
C370 H375 0.930 . S
C371 N368 1.390 . S
C371 C372 1.346 . S
C371 H376 0.888 1_556 S
C372 N369 1.336 . S
C372 C371 1.346 . S
C372 H379 0.929 . S
C373 O363 1.282 . S
C373 O374 1.216 . S
O374 C373 1.216 . S
H375 C370 0.930 . S
H376 C371 0.888 1_554 S
O377 Cu357 1.956 1_556 S
O377 C364 1.251 . S
H378 C361 0.930 . S
H379 C372 0.929 . S
Cu380 N381 1.999 . S
Cu380 O386 1.974 . S
Cu380 N391 1.985 1_455 S
Cu380 O400 1.959 1_455 S
N381 Cu380 1.999 . S
N381 C383 1.263 . S
N381 C385 1.389 . S
N382 C383 1.358 . S
N382 C384 1.400 . S
C383 N381 1.263 . S
C383 N382 1.358 . S
C383 H389 0.930 . S
C384 N382 1.400 . S
C384 C385 1.351 . S
C384 H401 0.930 . S
C385 N381 1.389 . S
C385 C384 1.351 . S
C385 H390 0.930 . S
O386 Cu380 1.974 . S
O386 C396 1.282 . S
C387 O388 1.261 . S
C387 O400 1.251 . S
O388 C387 1.261 . S
H389 C383 0.930 . S
H390 C385 0.930 . S
N391 Cu380 1.985 1_655 S
N391 C393 1.335 . S
N391 C394 1.389 1_655 S
N392 C393 1.345 . S
N392 C395 1.336 . S
C393 N391 1.335 . S
C393 N392 1.345 . S
C393 H398 0.930 . S
C394 N391 1.389 1_455 S
C394 C395 1.339 1_455 S
C394 H399 0.937 . S
C395 N392 1.336 . S
C395 C394 1.339 1_655 S
C395 H402 0.929 . S
C396 O386 1.282 . S
C396 O397 1.216 . S
O397 C396 1.216 . S
H398 C393 0.930 . S
H399 C394 0.937 . S
O400 Cu380 1.959 1_655 S
O400 C387 1.251 . S
H401 C384 0.930 . S
H402 C395 0.929 . S
Cu403 N404 1.999 . S
Cu403 O409 1.974 . S
Cu403 N414 1.985 1_545 S
Cu403 O423 1.959 1_545 S
N404 Cu403 1.999 . S
N404 C406 1.263 . S
N404 C408 1.389 . S
N405 C406 1.358 . S
N405 C407 1.400 . S
C406 N404 1.263 . S
C406 N405 1.358 . S
C406 H412 0.930 . S
C407 N405 1.400 . S
C407 C408 1.351 . S
C407 H424 0.930 . S
C408 N404 1.389 . S
C408 C407 1.351 . S
C408 H413 0.930 . S
O409 Cu403 1.974 . S
O409 C419 1.282 . S
C410 O411 1.261 . S
C410 O423 1.251 . S
O411 C410 1.261 . S
H412 C406 0.930 . S
H413 C408 0.930 . S
N414 Cu403 1.985 1_565 S
N414 C416 1.335 . S
N414 C417 1.390 . S
N415 C416 1.345 . S
N415 C418 1.336 . S
C416 N414 1.335 . S
C416 N415 1.345 . S
C416 H421 0.930 . S
C417 N414 1.390 . S
C417 C418 1.346 . S
C417 H422 0.930 1_565 S
C418 N415 1.336 . S
C418 C417 1.346 . S
C418 H425 0.929 . S
C419 O409 1.282 . S
C419 O420 1.216 . S
O420 C419 1.216 . S
H421 C416 0.930 . S
H422 C417 0.930 1_545 S
O423 Cu403 1.959 1_565 S
O423 C410 1.251 . S
H424 C407 0.930 . S
H425 C418 0.929 . S
Cu426 N427 2.002 . S
Cu426 O432 1.977 . S
Cu426 N437 1.982 1_655 S
Cu426 O446 1.956 1_655 S
N427 Cu426 2.002 . S
N427 C429 1.263 . S
N427 C431 1.389 . S
N428 C429 1.358 . S
N428 C430 1.400 . S
C429 N427 1.263 . S
C429 N428 1.358 . S
C429 H435 0.930 . S
C430 N428 1.400 . S
C430 C431 1.351 . S
C430 H447 0.930 . S
C431 N427 1.389 . S
C431 C430 1.351 . S
C431 H436 0.930 . S
O432 Cu426 1.977 . S
O432 C442 1.282 . S
C433 O434 1.261 . S
C433 O446 1.251 . S
O434 C433 1.261 . S
H435 C429 0.930 . S
H436 C431 0.930 . S
N437 Cu426 1.982 1_455 S
N437 C439 1.335 . S
N437 C440 1.390 . S
N438 C439 1.345 . S
N438 C441 1.336 . S
C439 N437 1.335 . S
C439 N438 1.345 . S
C439 H444 0.930 . S
C440 N437 1.390 . S
C440 C441 1.346 . S
C440 H445 0.930 . S
C441 N438 1.336 . S
C441 C440 1.346 . S
C441 H448 0.929 . S
C442 O432 1.282 . S
C442 O443 1.216 . S
O443 C442 1.216 . S
H444 C439 0.930 . S
H445 C440 0.930 . S
O446 Cu426 1.956 1_455 S
O446 C433 1.251 . S
H447 C430 0.930 . S
H448 C441 0.929 . S
Cu449 N450 1.984 1_565 S
Cu449 O455 1.955 1_565 S
Cu449 N460 1.999 . S
Cu449 O469 1.978 . S
N450 Cu449 1.984 1_545 S
N450 C452 1.263 . S
N450 C454 1.389 . S
N451 C452 1.358 . S
N451 C453 1.400 . S
C452 N450 1.263 . S
C452 N451 1.358 . S
C452 H458 0.930 . S
C453 N451 1.400 . S
C453 C454 1.351 . S
C453 H470 0.930 . S
C454 N450 1.389 . S
C454 C453 1.351 . S
C454 H459 0.930 . S
O455 Cu449 1.955 1_545 S
O455 C465 1.282 . S
C456 O457 1.261 . S
C456 O469 1.251 . S
O457 C456 1.261 . S
H458 C452 0.930 . S
H459 C454 0.930 . S
N460 Cu449 1.999 . S
N460 C462 1.335 . S
N460 C463 1.390 . S
N461 C462 1.345 . S
N461 C464 1.336 . S
C462 N460 1.335 . S
C462 N461 1.345 . S
C462 H467 0.930 . S
C463 N460 1.390 . S
C463 C464 1.346 . S
C463 H468 0.930 . S
C464 N461 1.336 . S
C464 C463 1.346 . S
C464 H471 0.929 . S
C465 O455 1.282 . S
C465 O466 1.216 . S
O466 C465 1.216 . S
H467 C462 0.930 . S
H468 C463 0.930 . S
O469 Cu449 1.978 . S
O469 C456 1.251 . S
H470 C453 0.930 . S
H471 C464 0.929 . S
Cu472 N473 1.999 . S
Cu472 O478 1.974 . S
Cu472 N483 1.985 1_455 S
Cu472 O492 1.959 1_455 S
N473 Cu472 1.999 . S
N473 C475 1.263 . S
N473 C477 1.389 . S
N474 C475 1.358 . S
N474 C476 1.400 . S
C475 N473 1.263 . S
C475 N474 1.358 . S
C475 H481 0.930 . S
C476 N474 1.400 . S
C476 C477 1.351 . S
C476 H493 0.930 . S
C477 N473 1.389 . S
C477 C476 1.351 . S
C477 H482 0.930 . S
O478 Cu472 1.974 . S
O478 C488 1.282 . S
C479 O480 1.261 . S
C479 O492 1.251 . S
O480 C479 1.261 . S
H481 C475 0.930 . S
H482 C477 0.930 . S
N483 Cu472 1.985 1_655 S
N483 C485 1.335 . S
N483 C486 1.398 . S
N484 C485 1.345 . S
N484 C487 1.336 . S
C485 N483 1.335 . S
C485 N484 1.345 . S
C485 H490 0.930 . S
C486 N483 1.398 . S
C486 C487 1.380 . S
C486 H491 0.896 1_655 S
C487 N484 1.336 . S
C487 C486 1.380 . S
C487 H494 0.929 . S
C488 O478 1.282 . S
C488 O489 1.216 . S
O489 C488 1.216 . S
H490 C485 0.930 . S
H491 C486 0.896 1_455 S
O492 Cu472 1.959 1_655 S
O492 C479 1.251 . S
H493 C476 0.930 . S
H494 C487 0.929 . S
Cu495 N496 1.999 . S
Cu495 O501 1.974 . S
Cu495 N506 1.985 1_545 S
Cu495 O515 1.959 1_545 S
N496 Cu495 1.999 . S
N496 C498 1.263 . S
N496 C500 1.389 . S
N497 C498 1.358 . S
N497 C499 1.400 . S
C498 N496 1.263 . S
C498 N497 1.358 . S
C498 H504 0.930 . S
C499 N497 1.400 . S
C499 C500 1.351 . S
C499 H516 0.930 . S
C500 N496 1.389 . S
C500 C499 1.351 . S
C500 H505 0.930 . S
O501 Cu495 1.974 . S
O501 C511 1.282 . S
C502 O503 1.261 . S
C502 O515 1.251 . S
O503 C502 1.261 . S
H504 C498 0.930 . S
H505 C500 0.930 . S
N506 Cu495 1.985 1_565 S
N506 C508 1.335 . S
N506 C509 1.390 1_565 S
N507 C508 1.345 . S
N507 C510 1.336 . S
C508 N506 1.335 . S
C508 N507 1.345 . S
C508 H513 0.930 . S
C509 N506 1.390 1_545 S
C509 C510 1.346 1_545 S
C509 H514 0.930 . S
C510 N507 1.336 . S
C510 C509 1.346 1_565 S
C510 H517 0.929 . S
C511 O501 1.282 . S
C511 O512 1.216 . S
O512 C511 1.216 . S
H513 C508 0.930 . S
H514 C509 0.930 . S
O515 Cu495 1.959 1_565 S
O515 C502 1.251 . S
H516 C499 0.930 . S
H517 C510 0.929 . S
Cu518 N519 1.999 . S
Cu518 O524 1.974 . S
Cu518 N529 1.985 . S
Cu518 O538 1.959 . S
N519 Cu518 1.999 . S
N519 C521 1.263 1_455 S
N519 C523 1.389 . S
N520 C521 1.358 . S
N520 C522 1.400 . S
C521 N519 1.263 1_655 S
C521 N520 1.358 . S
C521 H527 0.930 . S
C522 N520 1.400 . S
C522 C523 1.351 1_655 S
C522 H539 0.930 . S
C523 N519 1.389 . S
C523 C522 1.351 1_455 S
C523 H528 0.930 . S
O524 Cu518 1.974 . S
O524 C534 1.282 1_455 S
C525 O526 1.261 . S
C525 O538 1.251 . S
O526 C525 1.261 . S
H527 C521 0.930 . S
H528 C523 0.930 . S
N529 Cu518 1.985 . S
N529 C531 1.335 . S
N529 C532 1.390 . S
N530 C531 1.345 . S
N530 C533 1.336 . S
C531 N529 1.335 . S
C531 N530 1.345 . S
C531 H536 0.930 . S
C532 N529 1.390 . S
C532 C533 1.346 . S
C532 H537 0.930 . S
C533 N530 1.336 . S
C533 C532 1.346 . S
C533 H540 0.929 . S
C534 O524 1.282 1_655 S
C534 O535 1.216 1_655 S
O535 C534 1.216 1_455 S
H536 C531 0.930 . S
H537 C532 0.930 . S
O538 Cu518 1.959 . S
O538 C525 1.251 . S
H539 C522 0.930 . S
H540 C533 0.929 . S
Cu541 N542 1.999 . S
Cu541 O547 1.974 . S
Cu541 N552 1.985 . S
Cu541 O561 1.959 1_545 S
N542 Cu541 1.999 . S
N542 C544 1.263 . S
N542 C546 1.389 . S
N543 C544 1.358 . S
N543 C545 1.400 . S
C544 N542 1.263 . S
C544 N543 1.358 . S
C544 H550 0.930 . S
C545 N543 1.400 . S
C545 C546 1.351 . S
C545 H562 0.930 . S
C546 N542 1.389 . S
C546 C545 1.351 . S
C546 H551 0.930 . S
O547 Cu541 1.974 . S
O547 C557 1.282 . S
C548 O549 1.240 1_565 S
C548 O561 1.251 . S
O549 C548 1.240 1_545 S
H550 C544 0.930 . S
H551 C546 0.930 . S
N552 Cu541 1.985 . S
N552 C554 1.335 1_545 S
N552 C555 1.390 . S
N553 C554 1.345 . S
N553 C556 1.336 . S
C554 N552 1.335 1_565 S
C554 N553 1.345 . S
C554 H559 0.930 . S
C555 N552 1.390 . S
C555 C556 1.346 1_545 S
C555 H560 0.930 . S
C556 N553 1.336 . S
C556 C555 1.346 1_565 S
C556 H563 0.929 . S
C557 O547 1.282 . S
C557 O558 1.216 . S
O558 C557 1.216 . S
H559 C554 0.930 . S
H560 C555 0.930 . S
O561 Cu541 1.959 1_565 S
O561 C548 1.251 . S
H562 C545 0.930 . S
H563 C556 0.929 . S
Cu564 N565 1.999 . S
Cu564 O570 1.974 . S
Cu564 N575 1.985 . S
Cu564 O584 1.959 . S
N565 Cu564 1.999 . S
N565 C567 1.263 . S
N565 C569 1.389 . S
N566 C567 1.358 . S
N566 C568 1.400 . S
C567 N565 1.263 . S
C567 N566 1.358 . S
C567 H573 0.930 . S
C568 N566 1.400 . S
C568 C569 1.351 . S
C568 H585 0.930 . S
C569 N565 1.389 . S
C569 C568 1.351 . S
C569 H574 0.930 . S
O570 Cu564 1.974 . S
O570 C580 1.282 . S
C571 O572 1.261 . S
C571 O584 1.251 . S
O572 C571 1.261 . S
H573 C567 0.930 . S
H574 C569 0.930 . S
N575 Cu564 1.985 . S
N575 C577 1.335 . S
N575 C578 1.390 . S
N576 C577 1.345 . S
N576 C579 1.336 . S
C577 N575 1.335 . S
C577 N576 1.345 . S
C577 H582 0.930 . S
C578 N575 1.390 . S
C578 C579 1.346 . S
C578 H583 0.930 . S
C579 N576 1.336 . S
C579 C578 1.346 . S
C579 H586 0.929 . S
C580 O570 1.282 . S
C580 O581 1.216 . S
O581 C580 1.216 . S
H582 C577 0.930 . S
H583 C578 0.930 . S
O584 Cu564 1.959 . S
O584 C571 1.251 . S
H585 C568 0.930 . S
H586 C579 0.929 . S
Cu587 N588 1.999 . S
Cu587 O593 1.974 . S
Cu587 N598 1.985 . S
Cu587 O607 1.959 . S
N588 Cu587 1.999 . S
N588 C590 1.263 . S
N588 C592 1.389 . S
N589 C590 1.358 . S
N589 C591 1.400 . S
C590 N588 1.263 . S
C590 N589 1.358 . S
C590 H596 0.930 . S
C591 N589 1.400 . S
C591 C592 1.351 . S
C591 H608 0.930 . S
C592 N588 1.389 . S
C592 C591 1.351 . S
C592 H597 0.930 . S
O593 Cu587 1.974 . S
O593 C603 1.282 . S
C594 O595 1.261 . S
C594 O607 1.251 . S
O595 C594 1.261 . S
H596 C590 0.930 . S
H597 C592 0.930 . S
N598 Cu587 1.985 . S
N598 C600 1.335 . S
N598 C601 1.390 . S
N599 C600 1.345 . S
N599 C602 1.336 . S
C600 N598 1.335 . S
C600 N599 1.345 . S
C600 H605 0.930 . S
C601 N598 1.390 . S
C601 C602 1.346 . S
C601 H606 0.930 . S
C602 N599 1.336 . S
C602 C601 1.346 . S
C602 H609 0.929 . S
C603 O593 1.282 . S
C603 O604 1.216 . S
O604 C603 1.216 . S
H605 C600 0.930 . S
H606 C601 0.930 . S
O607 Cu587 1.959 . S
O607 C594 1.251 . S
H608 C591 0.930 . S
H609 C602 0.929 . S
Cu610 N611 1.999 . S
Cu610 O616 1.974 . S
Cu610 N621 1.985 . S
Cu610 O630 1.959 . S
N611 Cu610 1.999 . S
N611 C613 1.263 . S
N611 C615 1.389 . S
N612 C613 1.358 . S
N612 C614 1.400 . S
C613 N611 1.263 . S
C613 N612 1.358 . S
C613 H619 0.930 . S
C614 N612 1.400 . S
C614 C615 1.351 . S
C614 H631 0.930 . S
C615 N611 1.389 . S
C615 C614 1.351 . S
C615 H620 0.930 . S
O616 Cu610 1.974 . S
O616 C626 1.282 . S
C617 O618 1.261 . S
C617 O630 1.251 . S
O618 C617 1.261 . S
H619 C613 0.930 . S
H620 C615 0.930 . S
N621 Cu610 1.985 . S
N621 C623 1.335 . S
N621 C624 1.390 . S
N622 C623 1.345 . S
N622 C625 1.336 . S
C623 N621 1.335 . S
C623 N622 1.345 . S
C623 H628 0.930 . S
C624 N621 1.390 . S
C624 C625 1.346 . S
C624 H629 0.930 . S
C625 N622 1.336 . S
C625 C624 1.346 . S
C625 H632 0.929 . S
C626 O616 1.282 . S
C626 O627 1.216 . S
O627 C626 1.216 . S
H628 C623 0.930 . S
H629 C624 0.930 . S
O630 Cu610 1.959 . S
O630 C617 1.251 . S
H631 C614 0.930 . S
H632 C625 0.929 . S
Cu633 N634 1.999 . S
Cu633 O639 1.974 . S
Cu633 N644 1.985 . S
Cu633 O653 1.959 . S
N634 Cu633 1.999 . S
N634 C636 1.263 . S
N634 C638 1.389 . S
N635 C636 1.358 . S
N635 C637 1.400 . S
C636 N634 1.263 . S
C636 N635 1.358 . S
C636 H642 0.930 . S
C637 N635 1.400 . S
C637 C638 1.351 . S
C637 H654 0.930 . S
C638 N634 1.389 . S
C638 C637 1.351 . S
C638 H643 0.930 . S
O639 Cu633 1.974 . S
O639 C649 1.282 . S
C640 O641 1.261 . S
C640 O653 1.251 . S
O641 C640 1.261 . S
H642 C636 0.930 . S
H643 C638 0.930 . S
N644 Cu633 1.985 . S
N644 C646 1.335 . S
N644 C647 1.390 . S
N645 C646 1.345 . S
N645 C648 1.336 . S
C646 N644 1.335 . S
C646 N645 1.345 . S
C646 H651 0.930 . S
C647 N644 1.390 . S
C647 C648 1.346 . S
C647 H652 0.930 . S
C648 N645 1.336 . S
C648 C647 1.346 . S
C648 H655 0.929 . S
C649 O639 1.282 . S
C649 O650 1.216 . S
O650 C649 1.216 . S
H651 C646 0.930 . S
H652 C647 0.930 . S
O653 Cu633 1.959 . S
O653 C640 1.251 . S
H654 C637 0.930 . S
H655 C648 0.929 . S
Cu656 N657 1.999 . S
Cu656 O662 1.974 . S
Cu656 N667 1.985 . S
Cu656 O676 1.959 . S
N657 Cu656 1.999 . S
N657 C659 1.263 . S
N657 C661 1.389 . S
N658 C659 1.358 . S
N658 C660 1.400 . S
C659 N657 1.263 . S
C659 N658 1.358 . S
C659 H665 0.930 . S
C660 N658 1.400 . S
C660 C661 1.351 . S
C660 H677 0.930 . S
C661 N657 1.389 . S
C661 C660 1.351 . S
C661 H666 0.930 . S
O662 Cu656 1.974 . S
O662 C672 1.282 . S
C663 O664 1.261 . S
C663 O676 1.251 . S
O664 C663 1.261 . S
H665 C659 0.930 . S
H666 C661 0.930 . S
N667 Cu656 1.985 . S
N667 C669 1.335 . S
N667 C670 1.390 . S
N668 C669 1.345 . S
N668 C671 1.336 . S
C669 N667 1.335 . S
C669 N668 1.345 . S
C669 H674 0.930 . S
C670 N667 1.390 . S
C670 C671 1.346 . S
C670 H675 0.930 . S
C671 N668 1.336 . S
C671 C670 1.346 . S
C671 H678 0.929 . S
C672 O662 1.282 . S
C672 O673 1.216 . S
O673 C672 1.216 . S
H674 C669 0.930 . S
H675 C670 0.930 . S
O676 Cu656 1.959 . S
O676 C663 1.251 . S
H677 C660 0.930 . S
H678 C671 0.929 . S
Cu679 N680 1.999 . S
Cu679 O685 1.974 . S
Cu679 N690 1.985 . S
Cu679 O699 1.959 . S
N680 Cu679 1.999 . S
N680 C682 1.263 . S
N680 C684 1.389 . S
N681 C682 1.358 . S
N681 C683 1.400 . S
C682 N680 1.263 . S
C682 N681 1.358 . S
C682 H688 0.930 . S
C683 N681 1.400 . S
C683 C684 1.351 . S
C683 H700 0.930 . S
C684 N680 1.389 . S
C684 C683 1.351 . S
C684 H689 0.930 . S
O685 Cu679 1.974 . S
O685 C695 1.282 . S
C686 O687 1.261 . S
C686 O699 1.251 . S
O687 C686 1.261 . S
H688 C682 0.930 . S
H689 C684 0.930 . S
N690 Cu679 1.985 . S
N690 C692 1.335 . S
N690 C693 1.390 . S
N691 C692 1.345 . S
N691 C694 1.336 . S
C692 N690 1.335 . S
C692 N691 1.345 . S
C692 H697 0.930 . S
C693 N690 1.390 . S
C693 C694 1.346 . S
C693 H698 0.930 . S
C694 N691 1.336 . S
C694 C693 1.346 . S
C694 H701 0.929 . S
C695 O685 1.282 . S
C695 O696 1.216 . S
O696 C695 1.216 . S
H697 C692 0.930 . S
H698 C693 0.930 . S
O699 Cu679 1.959 . S
O699 C686 1.251 . S
H700 C683 0.930 . S
H701 C694 0.929 . S
Cu702 N703 1.999 . S
Cu702 O708 1.974 . S
Cu702 N713 1.985 . S
Cu702 O722 1.959 . S
N703 Cu702 1.999 . S
N703 C705 1.263 . S
N703 C707 1.389 . S
N704 C705 1.358 . S
N704 C706 1.400 . S
C705 N703 1.263 . S
C705 N704 1.358 . S
C705 H711 0.930 . S
C706 N704 1.400 . S
C706 C707 1.351 . S
C706 H723 0.930 . S
C707 N703 1.389 . S
C707 C706 1.351 . S
C707 H712 0.930 . S
O708 Cu702 1.974 . S
O708 C718 1.282 . S
C709 O710 1.261 . S
C709 O722 1.251 . S
O710 C709 1.261 . S
H711 C705 0.930 . S
H712 C707 0.930 . S
N713 Cu702 1.985 . S
N713 C715 1.335 . S
N713 C716 1.390 . S
N714 C715 1.345 . S
N714 C717 1.336 . S
C715 N713 1.335 . S
C715 N714 1.345 . S
C715 H720 0.930 . S
C716 N713 1.390 . S
C716 C717 1.346 . S
C716 H721 0.930 . S
C717 N714 1.336 . S
C717 C716 1.346 . S
C717 H724 0.929 . S
C718 O708 1.282 . S
C718 O719 1.216 . S
O719 C718 1.216 . S
H720 C715 0.930 . S
H721 C716 0.930 . S
O722 Cu702 1.959 . S
O722 C709 1.251 . S
H723 C706 0.930 . S
H724 C717 0.929 . S
Cu725 N726 1.999 . S
Cu725 O731 1.974 . S
Cu725 N736 1.985 . S
Cu725 O745 1.959 . S
N726 Cu725 1.999 . S
N726 C728 1.263 . S
N726 C730 1.389 . S
N727 C728 1.358 . S
N727 C729 1.400 . S
C728 N726 1.263 . S
C728 N727 1.358 . S
C728 H734 0.930 . S
C729 N727 1.400 . S
C729 C730 1.351 . S
C729 H746 0.930 . S
C730 N726 1.389 . S
C730 C729 1.351 . S
C730 H735 0.930 . S
O731 Cu725 1.974 . S
O731 C741 1.282 . S
C732 O733 1.261 . S
C732 O745 1.251 . S
O733 C732 1.261 . S
H734 C728 0.930 . S
H735 C730 0.930 . S
N736 Cu725 1.985 . S
N736 C738 1.335 . S
N736 C739 1.390 . S
N737 C738 1.345 . S
N737 C740 1.336 . S
C738 N736 1.335 . S
C738 N737 1.345 . S
C738 H743 0.930 . S
C739 N736 1.390 . S
C739 C740 1.346 . S
C739 H744 0.930 . S
C740 N737 1.336 . S
C740 C739 1.346 . S
C740 H747 0.929 . S
C741 O731 1.282 . S
C741 O742 1.216 . S
O742 C741 1.216 . S
H743 C738 0.930 . S
H744 C739 0.930 . S
O745 Cu725 1.959 . S
O745 C732 1.251 . S
H746 C729 0.930 . S
H747 C740 0.929 . S
Cu748 N749 1.999 . S
Cu748 O754 1.974 . S
Cu748 N759 1.985 . S
Cu748 O768 1.959 . S
N749 Cu748 1.999 . S
N749 C751 1.263 . S
N749 C753 1.389 . S
N750 C751 1.358 . S
N750 C752 1.400 . S
C751 N749 1.263 . S
C751 N750 1.358 . S
C751 H757 0.930 . S
C752 N750 1.400 . S
C752 C753 1.351 . S
C752 H769 0.930 . S
C753 N749 1.389 . S
C753 C752 1.351 . S
C753 H758 0.930 . S
O754 Cu748 1.974 . S
O754 C764 1.282 . S
C755 O756 1.261 . S
C755 O768 1.251 . S
O756 C755 1.261 . S
H757 C751 0.930 . S
H758 C753 0.930 . S
N759 Cu748 1.985 . S
N759 C761 1.335 . S
N759 C762 1.390 . S
N760 C761 1.345 . S
N760 C763 1.336 . S
C761 N759 1.335 . S
C761 N760 1.345 . S
C761 H766 0.930 . S
C762 N759 1.390 . S
C762 C763 1.346 . S
C762 H767 0.930 . S
C763 N760 1.336 . S
C763 C762 1.346 . S
C763 H770 0.929 . S
C764 O754 1.282 . S
C764 O765 1.216 . S
O765 C764 1.216 . S
H766 C761 0.930 . S
H767 C762 0.930 . S
O768 Cu748 1.959 . S
O768 C755 1.251 . S
H769 C752 0.930 . S
H770 C763 0.929 . S
Cu771 N772 1.999 . S
Cu771 O777 1.974 . S
Cu771 N782 1.985 . S
Cu771 O791 1.959 . S
N772 Cu771 1.999 . S
N772 C774 1.263 . S
N772 C776 1.389 . S
N773 C774 1.358 . S
N773 C775 1.400 . S
C774 N772 1.263 . S
C774 N773 1.358 . S
C774 H780 0.930 . S
C775 N773 1.400 . S
C775 C776 1.351 . S
C775 H792 0.930 . S
C776 N772 1.389 . S
C776 C775 1.351 . S
C776 H781 0.930 . S
O777 Cu771 1.974 . S
O777 C787 1.282 . S
C778 O779 1.261 . S
C778 O791 1.251 . S
O779 C778 1.261 . S
H780 C774 0.930 . S
H781 C776 0.930 . S
N782 Cu771 1.985 . S
N782 C784 1.335 . S
N782 C785 1.390 . S
N783 C784 1.345 . S
N783 C786 1.336 . S
C784 N782 1.335 . S
C784 N783 1.345 . S
C784 H789 0.930 . S
C785 N782 1.390 . S
C785 C786 1.346 . S
C785 H790 0.930 . S
C786 N783 1.336 . S
C786 C785 1.346 . S
C786 H793 0.929 . S
C787 O777 1.282 . S
C787 O788 1.216 . S
O788 C787 1.216 . S
H789 C784 0.930 . S
H790 C785 0.930 . S
O791 Cu771 1.959 . S
O791 C778 1.251 . S
H792 C775 0.930 . S
H793 C786 0.929 . S
Cu794 N795 1.999 . S
Cu794 O800 1.974 . S
Cu794 N805 1.985 . S
Cu794 O814 1.959 . S
N795 Cu794 1.999 . S
N795 C797 1.263 . S
N795 C799 1.389 . S
N796 C797 1.358 . S
N796 C798 1.400 . S
C797 N795 1.263 . S
C797 N796 1.358 . S
C797 H803 0.930 . S
C798 N796 1.400 . S
C798 C799 1.351 . S
C798 H815 0.930 . S
C799 N795 1.389 . S
C799 C798 1.351 . S
C799 H804 0.930 . S
O800 Cu794 1.974 . S
O800 C810 1.282 . S
C801 O802 1.261 . S
C801 O814 1.251 . S
O802 C801 1.261 . S
H803 C797 0.930 . S
H804 C799 0.930 . S
N805 Cu794 1.985 . S
N805 C807 1.335 . S
N805 C808 1.390 . S
N806 C807 1.345 . S
N806 C809 1.336 . S
C807 N805 1.335 . S
C807 N806 1.345 . S
C807 H812 0.930 . S
C808 N805 1.390 . S
C808 C809 1.346 . S
C808 H813 0.930 . S
C809 N806 1.336 . S
C809 C808 1.346 . S
C809 H816 0.929 . S
C810 O800 1.282 . S
C810 O811 1.216 . S
O811 C810 1.216 . S
H812 C807 0.930 . S
H813 C808 0.930 . S
O814 Cu794 1.959 . S
O814 C801 1.251 . S
H815 C798 0.930 . S
H816 C809 0.929 . S
Cu817 N818 1.999 . S
Cu817 O823 1.974 . S
Cu817 N828 1.985 . S
Cu817 O837 1.959 . S
N818 Cu817 1.999 . S
N818 C820 1.263 . S
N818 C822 1.389 . S
N819 C820 1.358 . S
N819 C821 1.400 . S
C820 N818 1.263 . S
C820 N819 1.358 . S
C820 H826 0.930 . S
C821 N819 1.400 . S
C821 C822 1.351 . S
C821 H838 0.930 . S
C822 N818 1.389 . S
C822 C821 1.351 . S
C822 H827 0.930 . S
O823 Cu817 1.974 . S
O823 C833 1.282 . S
C824 O825 1.261 . S
C824 O837 1.251 . S
O825 C824 1.261 . S
H826 C820 0.930 . S
H827 C822 0.930 . S
N828 Cu817 1.985 . S
N828 C830 1.335 . S
N828 C831 1.390 . S
N829 C830 1.345 . S
N829 C832 1.336 . S
C830 N828 1.335 . S
C830 N829 1.345 . S
C830 H835 0.930 . S
C831 N828 1.390 . S
C831 C832 1.346 . S
C831 H836 0.930 . S
C832 N829 1.336 . S
C832 C831 1.346 . S
C832 H839 0.929 . S
C833 O823 1.282 . S
C833 O834 1.216 . S
O834 C833 1.216 . S
H835 C830 0.930 . S
H836 C831 0.930 . S
O837 Cu817 1.959 . S
O837 C824 1.251 . S
H838 C821 0.930 . S
H839 C832 0.929 . S
H840 C846 0.930 . S
H841 C850 0.930 . S
H842 C855 0.929 . S
H843 C853 0.929 . S
H844 C848 0.929 . S
H845 C854 0.929 . S
C846 H840 0.930 . S
C846 C847 1.367 . S
C846 C854 1.378 . S
C847 C846 1.367 . S
C847 C855 1.433 . S
C848 H844 0.929 . S
C848 C850 1.378 . S
C848 C852 1.350 . S
C849 C852 1.463 . S
C849 C854 1.350 . S
C849 N857 1.427 . S
C850 H841 0.930 . S
C850 C848 1.378 . S
C850 C851 1.367 . S
C851 C850 1.367 . S
C851 C853 1.433 . S
C852 C848 1.350 . S
C852 C849 1.463 . S
C852 N856 1.427 . S
C853 H843 0.929 . S
C853 C851 1.433 . S
C853 N856 1.384 . S
C854 H845 0.929 . S
C854 C846 1.378 . S
C854 C849 1.350 . S
C855 H842 0.929 . S
C855 C847 1.433 . S
C855 N857 1.384 . S
N856 C852 1.427 . S
N856 C853 1.384 . S
N857 C849 1.427 . S
N857 C855 1.384 . S
H858 C864 0.930 . S
H859 C868 0.930 . S
H860 C873 0.929 . S
H861 C871 0.929 . S
H862 C866 0.929 . S
H863 C872 0.929 . S
C864 H858 0.930 . S
C864 C865 1.367 . S
C864 C872 1.378 . S
C865 C864 1.367 . S
C865 C873 1.433 . S
C866 H862 0.929 . S
C866 C868 1.378 . S
C866 C870 1.350 . S
C867 C870 1.463 . S
C867 C872 1.350 . S
C867 N875 1.427 . S
C868 H859 0.930 . S
C868 C866 1.378 . S
C868 C869 1.367 . S
C869 C868 1.367 . S
C869 C871 1.433 . S
C870 C866 1.350 . S
C870 C867 1.463 . S
C870 N874 1.427 . S
C871 H861 0.929 . S
C871 C869 1.433 . S
C871 N874 1.384 . S
C872 H863 0.929 . S
C872 C864 1.378 . S
C872 C867 1.350 . S
C873 H860 0.929 . S
C873 C865 1.433 . S
C873 N875 1.384 . S
N874 C870 1.427 . S
N874 C871 1.384 . S
N875 C867 1.427 . S
N875 C873 1.384 . S
H876 C882 0.930 . S
H877 C886 0.930 . S
H878 C891 0.929 . S
H879 C889 0.929 . S
H880 C884 0.929 . S
H881 C890 0.929 . S
C882 H876 0.930 . S
C882 C883 1.367 . S
C882 C890 1.378 . S
C883 C882 1.367 . S
C883 C891 1.433 . S
C884 H880 0.929 . S
C884 C886 1.378 . S
C884 C888 1.350 . S
C885 C888 1.463 . S
C885 C890 1.350 . S
C885 N893 1.427 . S
C886 H877 0.930 . S
C886 C884 1.378 . S
C886 C887 1.367 . S
C887 C886 1.367 . S
C887 C889 1.433 . S
C888 C884 1.350 . S
C888 C885 1.463 . S
C888 N892 1.427 . S
C889 H879 0.929 . S
C889 C887 1.433 . S
C889 N892 1.384 . S
C890 H881 0.929 . S
C890 C882 1.378 . S
C890 C885 1.350 . S
C891 H878 0.929 . S
C891 C883 1.433 . S
C891 N893 1.384 . S
N892 C888 1.427 . S
N892 C889 1.384 . S
N893 C885 1.427 . S
N893 C891 1.384 . S
H894 C900 0.930 . S
H895 C904 0.930 . S
H896 C909 0.929 . S
H897 C907 0.929 . S
H898 C902 0.929 . S
H899 C908 0.929 . S
C900 H894 0.930 . S
C900 C901 1.367 . S
C900 C908 1.378 . S
C901 C900 1.367 . S
C901 C909 1.433 . S
C902 H898 0.929 . S
C902 C904 1.378 . S
C902 C906 1.350 . S
C903 C906 1.463 . S
C903 C908 1.350 . S
C903 N911 1.427 . S
C904 H895 0.930 . S
C904 C902 1.378 . S
C904 C905 1.367 . S
C905 C904 1.367 . S
C905 C907 1.433 . S
C906 C902 1.350 . S
C906 C903 1.463 . S
C906 N910 1.427 . S
C907 H897 0.929 . S
C907 C905 1.433 . S
C907 N910 1.384 . S
C908 H899 0.929 . S
C908 C900 1.378 . S
C908 C903 1.350 . S
C909 H896 0.929 . S
C909 C901 1.433 . S
C909 N911 1.384 . S
N910 C906 1.427 . S
N910 C907 1.384 . S
N911 C903 1.427 . S
N911 C909 1.384 . S
H912 C918 0.930 . S
H913 C922 0.930 . S
H914 C927 0.929 . S
H915 C925 0.929 . S
H916 C920 0.929 . S
H917 C926 0.929 . S
C918 H912 0.930 . S
C918 C919 1.367 . S
C918 C926 1.378 . S
C919 C918 1.367 . S
C919 C927 1.433 . S
C920 H916 0.929 . S
C920 C922 1.378 . S
C920 C924 1.350 . S
C921 C924 1.463 . S
C921 C926 1.350 . S
C921 N929 1.427 . S
C922 H913 0.930 . S
C922 C920 1.378 . S
C922 C923 1.367 . S
C923 C922 1.367 . S
C923 C925 1.433 . S
C924 C920 1.350 . S
C924 C921 1.463 . S
C924 N928 1.427 . S
C925 H915 0.929 . S
C925 C923 1.433 . S
C925 N928 1.384 . S
C926 H917 0.929 . S
C926 C918 1.378 . S
C926 C921 1.350 . S
C927 H914 0.929 . S
C927 C919 1.433 . S
C927 N929 1.384 . S
N928 C924 1.427 . S
N928 C925 1.384 . S
N929 C921 1.427 . S
N929 C927 1.384 . S
H930 C936 0.930 . S
H931 C940 0.930 . S
H932 C945 0.929 . S
H933 C943 0.929 . S
H934 C938 0.929 . S
H935 C944 0.929 . S
C936 H930 0.930 . S
C936 C937 1.367 . S
C936 C944 1.378 . S
C937 C936 1.367 . S
C937 C945 1.433 . S
C938 H934 0.929 . S
C938 C940 1.378 . S
C938 C942 1.350 . S
C939 C942 1.463 . S
C939 C944 1.350 . S
C939 N947 1.427 . S
C940 H931 0.930 . S
C940 C938 1.378 . S
C940 C941 1.367 . S
C941 C940 1.367 . S
C941 C943 1.433 . S
C942 C938 1.350 . S
C942 C939 1.463 . S
C942 N946 1.427 . S
C943 H933 0.929 . S
C943 C941 1.433 . S
C943 N946 1.384 . S
C944 H935 0.929 . S
C944 C936 1.378 . S
C944 C939 1.350 . S
C945 H932 0.929 . S
C945 C937 1.433 . S
C945 N947 1.384 . S
N946 C942 1.427 . S
N946 C943 1.384 . S
N947 C939 1.427 . S
N947 C945 1.384 . S
H948 C954 0.930 . S
H949 C958 0.930 . S
H950 C963 0.929 . S
H951 C961 0.929 . S
H952 C956 0.929 . S
H953 C962 0.929 . S
C954 H948 0.930 . S
C954 C955 1.367 . S
C954 C962 1.378 . S
C955 C954 1.367 . S
C955 C963 1.433 . S
C956 H952 0.929 . S
C956 C958 1.378 . S
C956 C960 1.350 . S
C957 C960 1.463 . S
C957 C962 1.350 . S
C957 N965 1.427 . S
C958 H949 0.930 . S
C958 C956 1.378 . S
C958 C959 1.367 . S
C959 C958 1.367 . S
C959 C961 1.433 . S
C960 C956 1.350 . S
C960 C957 1.463 . S
C960 N964 1.427 . S
C961 H951 0.929 . S
C961 C959 1.433 . S
C961 N964 1.384 . S
C962 H953 0.929 . S
C962 C954 1.378 . S
C962 C957 1.350 . S
C963 H950 0.929 . S
C963 C955 1.433 . S
C963 N965 1.384 . S
N964 C960 1.427 . S
N964 C961 1.384 . S
N965 C957 1.427 . S
N965 C963 1.384 . S
H966 C972 0.930 . S
H967 C976 0.930 . S
H968 C981 0.929 . S
H969 C979 0.929 . S
H970 C974 0.929 . S
H971 C980 0.929 . S
C972 H966 0.930 . S
C972 C973 1.367 . S
C972 C980 1.378 . S
C973 C972 1.367 . S
C973 C981 1.433 . S
C974 H970 0.929 . S
C974 C976 1.378 . S
C974 C978 1.350 . S
C975 C978 1.463 . S
C975 C980 1.350 . S
C975 N983 1.427 . S
C976 H967 0.930 . S
C976 C974 1.378 . S
C976 C977 1.367 . S
C977 C976 1.367 . S
C977 C979 1.433 . S
C978 C974 1.350 . S
C978 C975 1.463 . S
C978 N982 1.427 . S
C979 H969 0.929 . S
C979 C977 1.433 . S
C979 N982 1.384 . S
C980 H971 0.929 . S
C980 C972 1.378 . S
C980 C975 1.350 . S
C981 H968 0.929 . S
C981 C973 1.433 . S
C981 N983 1.384 . S
N982 C978 1.427 . S
N982 C979 1.384 . S
N983 C975 1.427 . S
N983 C981 1.384 . S
H984 C990 0.930 . S
H985 C994 0.930 . S
H986 C999 0.929 . S
H987 C997 0.929 . S
H988 C992 0.929 . S
H989 C998 0.929 . S
C990 H984 0.930 . S
C990 C991 1.367 . S
C990 C998 1.378 . S
C991 C990 1.367 . S
C991 C999 1.433 . S
C992 H988 0.929 . S
C992 C994 1.378 . S
C992 C996 1.350 . S
C993 C996 1.463 . S
C993 C998 1.350 . S
C993 N1001 1.427 . S
C994 H985 0.930 . S
C994 C992 1.378 . S
C994 C995 1.367 . S
C995 C994 1.367 . S
C995 C997 1.433 . S
C996 C992 1.350 . S
C996 C993 1.463 . S
C996 N1000 1.427 . S
C997 H987 0.929 . S
C997 C995 1.433 . S
C997 N1000 1.384 . S
C998 H989 0.929 . S
C998 C990 1.378 . S
C998 C993 1.350 . S
C999 H986 0.929 . S
C999 C991 1.433 . S
C999 N1001 1.384 . S
N1000 C996 1.427 . S
N1000 C997 1.384 . S
N1001 C993 1.427 . S
N1001 C999 1.384 . S
H1002 C1008 0.930 . S
H1003 C1012 0.930 . S
H1004 C1017 0.929 . S
H1005 C1015 0.929 . S
H1006 C1010 0.929 . S
H1007 C1016 0.929 . S
C1008 H1002 0.930 . S
C1008 C1009 1.367 . S
C1008 C1016 1.378 . S
C1009 C1008 1.367 . S
C1009 C1017 1.433 . S
C1010 H1006 0.929 . S
C1010 C1012 1.378 . S
C1010 C1014 1.350 . S
C1011 C1014 1.463 . S
C1011 C1016 1.350 . S
C1011 N1019 1.427 . S
C1012 H1003 0.930 . S
C1012 C1010 1.378 . S
C1012 C1013 1.367 . S
C1013 C1012 1.367 . S
C1013 C1015 1.433 . S
C1014 C1010 1.350 . S
C1014 C1011 1.463 . S
C1014 N1018 1.427 . S
C1015 H1005 0.929 . S
C1015 C1013 1.433 . S
C1015 N1018 1.384 . S
C1016 H1007 0.929 . S
C1016 C1008 1.378 . S
C1016 C1011 1.350 . S
C1017 H1004 0.929 . S
C1017 C1009 1.433 . S
C1017 N1019 1.384 . S
N1018 C1014 1.427 . S
N1018 C1015 1.384 . S
N1019 C1011 1.427 . S
N1019 C1017 1.384 . S
H1020 C1026 0.930 . S
H1021 C1030 0.930 . S
H1022 C1035 0.929 . S
H1023 C1033 0.929 . S
H1024 C1028 0.929 . S
H1025 C1034 0.929 . S
C1026 H1020 0.930 . S
C1026 C1027 1.367 . S
C1026 C1034 1.378 . S
C1027 C1026 1.367 . S
C1027 C1035 1.433 . S
C1028 H1024 0.929 . S
C1028 C1030 1.378 . S
C1028 C1032 1.350 . S
C1029 C1032 1.463 . S
C1029 C1034 1.350 . S
C1029 N1037 1.427 . S
C1030 H1021 0.930 . S
C1030 C1028 1.378 . S
C1030 C1031 1.367 . S
C1031 C1030 1.367 . S
C1031 C1033 1.433 . S
C1032 C1028 1.350 . S
C1032 C1029 1.463 . S
C1032 N1036 1.427 . S
C1033 H1023 0.929 . S
C1033 C1031 1.433 . S
C1033 N1036 1.384 . S
C1034 H1025 0.929 . S
C1034 C1026 1.378 . S
C1034 C1029 1.350 . S
C1035 H1022 0.929 . S
C1035 C1027 1.433 . S
C1035 N1037 1.384 . S
N1036 C1032 1.427 . S
N1036 C1033 1.384 . S
N1037 C1029 1.427 . S
N1037 C1035 1.384 . S
H1038 C1044 0.930 . S
H1039 C1048 0.930 . S
H1040 C1053 0.929 . S
H1041 C1051 0.929 . S
H1042 C1046 0.929 . S
H1043 C1052 0.929 . S
C1044 H1038 0.930 . S
C1044 C1045 1.367 . S
C1044 C1052 1.378 . S
C1045 C1044 1.367 . S
C1045 C1053 1.433 . S
C1046 H1042 0.929 . S
C1046 C1048 1.378 . S
C1046 C1050 1.350 . S
C1047 C1050 1.463 . S
C1047 C1052 1.350 . S
C1047 N1055 1.427 . S
C1048 H1039 0.930 . S
C1048 C1046 1.378 . S
C1048 C1049 1.367 . S
C1049 C1048 1.367 . S
C1049 C1051 1.433 . S
C1050 C1046 1.350 . S
C1050 C1047 1.463 . S
C1050 N1054 1.427 . S
C1051 H1041 0.929 . S
C1051 C1049 1.433 . S
C1051 N1054 1.384 . S
C1052 H1043 0.929 . S
C1052 C1044 1.378 . S
C1052 C1047 1.350 . S
C1053 H1040 0.929 . S
C1053 C1045 1.433 . S
C1053 N1055 1.384 . S
N1054 C1050 1.427 . S
N1054 C1051 1.384 . S
N1055 C1047 1.427 . S
N1055 C1053 1.384 . S
H1056 C1062 0.930 . S
H1057 C1066 0.930 . S
H1058 C1071 0.929 . S
H1059 C1069 0.929 . S
H1060 C1064 0.929 . S
H1061 C1070 0.929 . S
C1062 H1056 0.930 . S
C1062 C1063 1.367 . S
C1062 C1070 1.378 . S
C1063 C1062 1.367 . S
C1063 C1071 1.433 . S
C1064 H1060 0.929 . S
C1064 C1066 1.378 . S
C1064 C1068 1.350 . S
C1065 C1068 1.463 . S
C1065 C1070 1.350 . S
C1065 N1073 1.427 . S
C1066 H1057 0.930 . S
C1066 C1064 1.378 . S
C1066 C1067 1.367 . S
C1067 C1066 1.367 . S
C1067 C1069 1.433 . S
C1068 C1064 1.350 . S
C1068 C1065 1.463 . S
C1068 N1072 1.427 . S
C1069 H1059 0.929 . S
C1069 C1067 1.433 . S
C1069 N1072 1.384 . S
C1070 H1061 0.929 . S
C1070 C1062 1.378 . S
C1070 C1065 1.350 . S
C1071 H1058 0.929 . S
C1071 C1063 1.433 . S
C1071 N1073 1.384 . S
N1072 C1068 1.427 . S
N1072 C1069 1.384 . S
N1073 C1065 1.427 . S
N1073 C1071 1.384 . S
H1074 C1080 0.930 . S
H1075 C1084 0.930 . S
H1076 C1089 0.929 . S
H1077 C1087 0.929 . S
H1078 C1082 0.929 . S
H1079 C1088 0.929 . S
C1080 H1074 0.930 . S
C1080 C1081 1.367 . S
C1080 C1088 1.378 . S
C1081 C1080 1.367 . S
C1081 C1089 1.433 . S
C1082 H1078 0.929 . S
C1082 C1084 1.378 . S
C1082 C1086 1.350 . S
C1083 C1086 1.463 . S
C1083 C1088 1.350 . S
C1083 N1091 1.427 . S
C1084 H1075 0.930 . S
C1084 C1082 1.378 . S
C1084 C1085 1.367 . S
C1085 C1084 1.367 . S
C1085 C1087 1.433 . S
C1086 C1082 1.350 . S
C1086 C1083 1.463 . S
C1086 N1090 1.427 . S
C1087 H1077 0.929 . S
C1087 C1085 1.433 . S
C1087 N1090 1.384 . S
C1088 H1079 0.929 . S
C1088 C1080 1.378 . S
C1088 C1083 1.350 . S
C1089 H1076 0.929 . S
C1089 C1081 1.433 . S
C1089 N1091 1.384 . S
N1090 C1086 1.427 . S
N1090 C1087 1.384 . S
N1091 C1083 1.427 . S
N1091 C1089 1.384 . S
H1092 C1098 0.930 . S
H1093 C1102 0.930 . S
H1094 C1107 0.929 . S
H1095 C1105 0.929 . S
H1096 C1100 0.929 . S
H1097 C1106 0.929 . S
C1098 H1092 0.930 . S
C1098 C1099 1.367 . S
C1098 C1106 1.378 . S
C1099 C1098 1.367 . S
C1099 C1107 1.433 . S
C1100 H1096 0.929 . S
C1100 C1102 1.378 . S
C1100 C1104 1.350 . S
C1101 C1104 1.463 . S
C1101 C1106 1.350 . S
C1101 N1109 1.427 . S
C1102 H1093 0.930 . S
C1102 C1100 1.378 . S
C1102 C1103 1.367 . S
C1103 C1102 1.367 . S
C1103 C1105 1.433 . S
C1104 C1100 1.350 . S
C1104 C1101 1.463 . S
C1104 N1108 1.427 . S
C1105 H1095 0.929 . S
C1105 C1103 1.433 . S
C1105 N1108 1.384 . S
C1106 H1097 0.929 . S
C1106 C1098 1.378 . S
C1106 C1101 1.350 . S
C1107 H1094 0.929 . S
C1107 C1099 1.433 . S
C1107 N1109 1.384 . S
N1108 C1104 1.427 . S
N1108 C1105 1.384 . S
N1109 C1101 1.427 . S
N1109 C1107 1.384 . S
H1110 C1116 0.930 . S
H1111 C1120 0.930 . S
H1112 C1125 0.929 . S
H1113 C1123 0.929 . S
H1114 C1118 0.929 . S
H1115 C1124 0.929 . S
C1116 H1110 0.930 . S
C1116 C1117 1.367 . S
C1116 C1124 1.378 . S
C1117 C1116 1.367 . S
C1117 C1125 1.433 . S
C1118 H1114 0.929 . S
C1118 C1120 1.378 . S
C1118 C1122 1.350 . S
C1119 C1122 1.463 . S
C1119 C1124 1.350 . S
C1119 N1127 1.427 . S
C1120 H1111 0.930 . S
C1120 C1118 1.378 . S
C1120 C1121 1.367 . S
C1121 C1120 1.367 . S
C1121 C1123 1.433 . S
C1122 C1118 1.350 . S
C1122 C1119 1.463 . S
C1122 N1126 1.427 . S
C1123 H1113 0.929 . S
C1123 C1121 1.433 . S
C1123 N1126 1.384 . S
C1124 H1115 0.929 . S
C1124 C1116 1.378 . S
C1124 C1119 1.350 . S
C1125 H1112 0.929 . S
C1125 C1117 1.433 . S
C1125 N1127 1.384 . S
N1126 C1122 1.427 . S
N1126 C1123 1.384 . S
N1127 C1119 1.427 . S
N1127 C1125 1.384 . S
H1128 C1134 0.930 . S
H1129 C1138 0.930 . S
H1130 C1143 0.929 . S
H1131 C1141 0.929 . S
H1132 C1136 0.929 . S
H1133 C1142 0.929 . S
C1134 H1128 0.930 . S
C1134 C1135 1.367 . S
C1134 C1142 1.378 . S
C1135 C1134 1.367 . S
C1135 C1143 1.433 . S
C1136 H1132 0.929 . S
C1136 C1138 1.378 . S
C1136 C1140 1.350 . S
C1137 C1140 1.463 . S
C1137 C1142 1.350 . S
C1137 N1145 1.427 . S
C1138 H1129 0.930 . S
C1138 C1136 1.378 . S
C1138 C1139 1.367 . S
C1139 C1138 1.367 . S
C1139 C1141 1.433 . S
C1140 C1136 1.350 . S
C1140 C1137 1.463 . S
C1140 N1144 1.427 . S
C1141 H1131 0.929 . S
C1141 C1139 1.433 . S
C1141 N1144 1.384 . S
C1142 H1133 0.929 . S
C1142 C1134 1.378 . S
C1142 C1137 1.350 . S
C1143 H1130 0.929 . S
C1143 C1135 1.433 . S
C1143 N1145 1.384 . S
N1144 C1140 1.427 . S
N1144 C1141 1.384 . S
N1145 C1137 1.427 . S
N1145 C1143 1.384 . S
H1146 C1152 0.930 . S
H1147 C1156 0.930 . S
H1148 C1161 0.929 . S
H1149 C1159 0.929 . S
H1150 C1154 0.929 . S
H1151 C1160 0.929 . S
C1152 H1146 0.930 . S
C1152 C1153 1.367 . S
C1152 C1160 1.378 . S
C1153 C1152 1.367 . S
C1153 C1161 1.433 . S
C1154 H1150 0.929 . S
C1154 C1156 1.378 . S
C1154 C1158 1.350 . S
C1155 C1158 1.463 . S
C1155 C1160 1.350 . S
C1155 N1163 1.427 . S
C1156 H1147 0.930 . S
C1156 C1154 1.378 . S
C1156 C1157 1.367 . S
C1157 C1156 1.367 . S
C1157 C1159 1.433 . S
C1158 C1154 1.350 . S
C1158 C1155 1.463 . S
C1158 N1162 1.427 . S
C1159 H1149 0.929 . S
C1159 C1157 1.433 . S
C1159 N1162 1.384 . S
C1160 H1151 0.929 . S
C1160 C1152 1.378 . S
C1160 C1155 1.350 . S
C1161 H1148 0.929 . S
C1161 C1153 1.433 . S
C1161 N1163 1.384 . S
N1162 C1158 1.427 . S
N1162 C1159 1.384 . S
N1163 C1155 1.427 . S
N1163 C1161 1.384 . S
H1164 C1170 0.930 . S
H1165 C1174 0.930 . S
H1166 C1179 0.929 . S
H1167 C1177 0.929 . S
H1168 C1172 0.929 . S
H1169 C1178 0.929 . S
C1170 H1164 0.930 . S
C1170 C1171 1.367 . S
C1170 C1178 1.378 . S
C1171 C1170 1.367 . S
C1171 C1179 1.433 . S
C1172 H1168 0.929 . S
C1172 C1174 1.378 . S
C1172 C1176 1.350 . S
C1173 C1176 1.463 . S
C1173 C1178 1.350 . S
C1173 N1181 1.427 . S
C1174 H1165 0.930 . S
C1174 C1172 1.378 . S
C1174 C1175 1.367 . S
C1175 C1174 1.367 . S
C1175 C1177 1.433 . S
C1176 C1172 1.350 . S
C1176 C1173 1.463 . S
C1176 N1180 1.427 . S
C1177 H1167 0.929 . S
C1177 C1175 1.433 . S
C1177 N1180 1.384 . S
C1178 H1169 0.929 . S
C1178 C1170 1.378 . S
C1178 C1173 1.350 . S
C1179 H1166 0.929 . S
C1179 C1171 1.433 . S
C1179 N1181 1.384 . S
N1180 C1176 1.427 . S
N1180 C1177 1.384 . S
N1181 C1173 1.427 . S
N1181 C1179 1.384 . S
H1182 C1188 0.930 . S
H1183 C1192 0.930 . S
H1184 C1197 0.929 . S
H1185 C1195 0.929 . S
H1186 C1190 0.929 . S
H1187 C1196 0.929 . S
C1188 H1182 0.930 . S
C1188 C1189 1.367 . S
C1188 C1196 1.378 . S
C1189 C1188 1.367 . S
C1189 C1197 1.433 . S
C1190 H1186 0.929 . S
C1190 C1192 1.378 . S
C1190 C1194 1.350 . S
C1191 C1194 1.463 . S
C1191 C1196 1.350 . S
C1191 N1199 1.427 . S
C1192 H1183 0.930 . S
C1192 C1190 1.378 . S
C1192 C1193 1.367 . S
C1193 C1192 1.367 . S
C1193 C1195 1.433 . S
C1194 C1190 1.350 . S
C1194 C1191 1.463 . S
C1194 N1198 1.427 . S
C1195 H1185 0.929 . S
C1195 C1193 1.433 . S
C1195 N1198 1.384 . S
C1196 H1187 0.929 . S
C1196 C1188 1.378 . S
C1196 C1191 1.350 . S
C1197 H1184 0.929 . S
C1197 C1189 1.433 . S
C1197 N1199 1.384 . S
N1198 C1194 1.427 . S
N1198 C1195 1.384 . S
N1199 C1191 1.427 . S
N1199 C1197 1.384 . S
H1200 C1206 0.930 . S
H1201 C1210 0.930 . S
H1202 C1215 0.929 . S
H1203 C1213 0.929 . S
H1204 C1208 0.929 . S
H1205 C1214 0.929 . S
C1206 H1200 0.930 . S
C1206 C1207 1.367 . S
C1206 C1214 1.378 . S
C1207 C1206 1.367 . S
C1207 C1215 1.433 . S
C1208 H1204 0.929 . S
C1208 C1210 1.378 . S
C1208 C1212 1.350 . S
C1209 C1212 1.463 . S
C1209 C1214 1.350 . S
C1209 N1217 1.427 . S
C1210 H1201 0.930 . S
C1210 C1208 1.378 . S
C1210 C1211 1.367 . S
C1211 C1210 1.367 . S
C1211 C1213 1.433 . S
C1212 C1208 1.350 . S
C1212 C1209 1.463 . S
C1212 N1216 1.427 . S
C1213 H1203 0.929 . S
C1213 C1211 1.433 . S
C1213 N1216 1.384 . S
C1214 H1205 0.929 . S
C1214 C1206 1.378 . S
C1214 C1209 1.350 . S
C1215 H1202 0.929 . S
C1215 C1207 1.433 . S
C1215 N1217 1.384 . S
N1216 C1212 1.427 . S
N1216 C1213 1.384 . S
N1217 C1209 1.427 . S
N1217 C1215 1.384 . S
H1218 C1224 0.930 . S
H1219 C1228 0.930 . S
H1220 C1233 0.929 . S
H1221 C1231 0.929 . S
H1222 C1226 0.929 . S
H1223 C1232 0.929 . S
C1224 H1218 0.930 . S
C1224 C1225 1.367 . S
C1224 C1232 1.378 . S
C1225 C1224 1.367 . S
C1225 C1233 1.433 . S
C1226 H1222 0.929 . S
C1226 C1228 1.378 . S
C1226 C1230 1.350 . S
C1227 C1230 1.463 . S
C1227 C1232 1.350 . S
C1227 N1235 1.427 . S
C1228 H1219 0.930 . S
C1228 C1226 1.378 . S
C1228 C1229 1.367 . S
C1229 C1228 1.367 . S
C1229 C1231 1.433 . S
C1230 C1226 1.350 . S
C1230 C1227 1.463 . S
C1230 N1234 1.427 . S
C1231 H1221 0.929 . S
C1231 C1229 1.433 . S
C1231 N1234 1.384 . S
C1232 H1223 0.929 . S
C1232 C1224 1.378 . S
C1232 C1227 1.350 . S
C1233 H1220 0.929 . S
C1233 C1225 1.433 . S
C1233 N1235 1.384 . S
N1234 C1230 1.427 . S
N1234 C1231 1.384 . S
N1235 C1227 1.427 . S
N1235 C1233 1.384 . S
H1236 C1242 0.930 . S
H1237 C1246 0.930 . S
H1238 C1251 0.929 . S
H1239 C1249 0.929 . S
H1240 C1244 0.929 . S
H1241 C1250 0.929 . S
C1242 H1236 0.930 . S
C1242 C1243 1.367 . S
C1242 C1250 1.378 . S
C1243 C1242 1.367 . S
C1243 C1251 1.433 . S
C1244 H1240 0.929 . S
C1244 C1246 1.378 . S
C1244 C1248 1.350 . S
C1245 C1248 1.463 . S
C1245 C1250 1.350 . S
C1245 N1253 1.427 . S
C1246 H1237 0.930 . S
C1246 C1244 1.378 . S
C1246 C1247 1.367 . S
C1247 C1246 1.367 . S
C1247 C1249 1.433 . S
C1248 C1244 1.350 . S
C1248 C1245 1.463 . S
C1248 N1252 1.427 . S
C1249 H1239 0.929 . S
C1249 C1247 1.433 . S
C1249 N1252 1.384 . S
C1250 H1241 0.929 . S
C1250 C1242 1.378 . S
C1250 C1245 1.350 . S
C1251 H1238 0.929 . S
C1251 C1243 1.433 . S
C1251 N1253 1.384 . S
N1252 C1248 1.427 . S
N1252 C1249 1.384 . S
N1253 C1245 1.427 . S
N1253 C1251 1.384 . S
H1254 C1260 0.930 . S
H1255 C1264 0.930 . S
H1256 C1269 0.929 . S
H1257 C1267 0.929 . S
H1258 C1262 0.929 . S
H1259 C1268 0.929 . S
C1260 H1254 0.930 . S
C1260 C1261 1.367 . S
C1260 C1268 1.378 . S
C1261 C1260 1.367 . S
C1261 C1269 1.433 . S
C1262 H1258 0.929 . S
C1262 C1264 1.378 . S
C1262 C1266 1.350 . S
C1263 C1266 1.463 . S
C1263 C1268 1.350 . S
C1263 N1271 1.427 . S
C1264 H1255 0.930 . S
C1264 C1262 1.378 . S
C1264 C1265 1.367 . S
C1265 C1264 1.367 . S
C1265 C1267 1.433 . S
C1266 C1262 1.350 . S
C1266 C1263 1.463 . S
C1266 N1270 1.427 . S
C1267 H1257 0.929 . S
C1267 C1265 1.433 . S
C1267 N1270 1.384 . S
C1268 H1259 0.929 . S
C1268 C1260 1.378 . S
C1268 C1263 1.350 . S
C1269 H1256 0.929 . S
C1269 C1261 1.433 . S
C1269 N1271 1.384 . S
N1270 C1266 1.427 . S
N1270 C1267 1.384 . S
N1271 C1263 1.427 . S
N1271 C1269 1.384 . S
H1272 C1278 0.930 . S
H1273 C1282 0.930 . S
H1274 C1287 0.929 . S
H1275 C1285 0.929 . S
H1276 C1280 0.929 . S
H1277 C1286 0.929 . S
C1278 H1272 0.930 . S
C1278 C1279 1.367 . S
C1278 C1286 1.378 . S
C1279 C1278 1.367 . S
C1279 C1287 1.433 . S
C1280 H1276 0.929 . S
C1280 C1282 1.378 . S
C1280 C1284 1.350 . S
C1281 C1284 1.463 . S
C1281 C1286 1.350 . S
C1281 N1289 1.427 . S
C1282 H1273 0.930 . S
C1282 C1280 1.378 . S
C1282 C1283 1.367 . S
C1283 C1282 1.367 . S
C1283 C1285 1.433 . S
C1284 C1280 1.350 . S
C1284 C1281 1.463 . S
C1284 N1288 1.427 . S
C1285 H1275 0.929 . S
C1285 C1283 1.433 . S
C1285 N1288 1.384 . S
C1286 H1277 0.929 . S
C1286 C1278 1.378 . S
C1286 C1281 1.350 . S
C1287 H1274 0.929 . S
C1287 C1279 1.433 . S
C1287 N1289 1.384 . S
N1288 C1284 1.427 . S
N1288 C1285 1.384 . S
N1289 C1281 1.427 . S
N1289 C1287 1.384 . S
H1290 C1296 0.930 . S
H1291 C1300 0.930 . S
H1292 C1305 0.929 . S
H1293 C1303 0.929 . S
H1294 C1298 0.929 . S
H1295 C1304 0.929 . S
C1296 H1290 0.930 . S
C1296 C1297 1.367 . S
C1296 C1304 1.378 . S
C1297 C1296 1.367 . S
C1297 C1305 1.433 . S
C1298 H1294 0.929 . S
C1298 C1300 1.378 . S
C1298 C1302 1.350 . S
C1299 C1302 1.463 . S
C1299 C1304 1.350 . S
C1299 N1307 1.427 . S
C1300 H1291 0.930 . S
C1300 C1298 1.378 . S
C1300 C1301 1.367 . S
C1301 C1300 1.367 . S
C1301 C1303 1.433 . S
C1302 C1298 1.350 . S
C1302 C1299 1.463 . S
C1302 N1306 1.427 . S
C1303 H1293 0.929 . S
C1303 C1301 1.433 . S
C1303 N1306 1.384 . S
C1304 H1295 0.929 . S
C1304 C1296 1.378 . S
C1304 C1299 1.350 . S
C1305 H1292 0.929 . S
C1305 C1297 1.433 . S
C1305 N1307 1.384 . S
N1306 C1302 1.427 . S
N1306 C1303 1.384 . S
N1307 C1299 1.427 . S
N1307 C1305 1.384 . S
H1308 C1314 0.930 . S
H1309 C1318 0.930 . S
H1310 C1323 0.929 . S
H1311 C1321 0.929 . S
H1312 C1316 0.929 . S
H1313 C1322 0.929 . S
C1314 H1308 0.930 . S
C1314 C1315 1.367 . S
C1314 C1322 1.378 . S
C1315 C1314 1.367 . S
C1315 C1323 1.433 . S
C1316 H1312 0.929 . S
C1316 C1318 1.378 . S
C1316 C1320 1.350 . S
C1317 C1320 1.463 . S
C1317 C1322 1.350 . S
C1317 N1325 1.427 . S
C1318 H1309 0.930 . S
C1318 C1316 1.378 . S
C1318 C1319 1.367 . S
C1319 C1318 1.367 . S
C1319 C1321 1.433 . S
C1320 C1316 1.350 . S
C1320 C1317 1.463 . S
C1320 N1324 1.427 . S
C1321 H1311 0.929 . S
C1321 C1319 1.433 . S
C1321 N1324 1.384 . S
C1322 H1313 0.929 . S
C1322 C1314 1.378 . S
C1322 C1317 1.350 . S
C1323 H1310 0.929 . S
C1323 C1315 1.433 . S
C1323 N1325 1.384 . S
N1324 C1320 1.427 . S
N1324 C1321 1.384 . S
N1325 C1317 1.427 . S
N1325 C1323 1.384 . S
H1326 C1332 0.930 . S
H1327 C1336 0.930 . S
H1328 C1341 0.929 . S
H1329 C1339 0.929 . S
H1330 C1334 0.929 . S
H1331 C1340 0.929 . S
C1332 H1326 0.930 . S
C1332 C1333 1.367 . S
C1332 C1340 1.378 . S
C1333 C1332 1.367 . S
C1333 C1341 1.433 . S
C1334 H1330 0.929 . S
C1334 C1336 1.378 . S
C1334 C1338 1.350 . S
C1335 C1338 1.463 . S
C1335 C1340 1.350 . S
C1335 N1343 1.427 . S
C1336 H1327 0.930 . S
C1336 C1334 1.378 . S
C1336 C1337 1.367 . S
C1337 C1336 1.367 . S
C1337 C1339 1.433 . S
C1338 C1334 1.350 . S
C1338 C1335 1.463 . S
C1338 N1342 1.427 . S
C1339 H1329 0.929 . S
C1339 C1337 1.433 . S
C1339 N1342 1.384 . S
C1340 H1331 0.929 . S
C1340 C1332 1.378 . S
C1340 C1335 1.350 . S
C1341 H1328 0.929 . S
C1341 C1333 1.433 . S
C1341 N1343 1.384 . S
N1342 C1338 1.427 . S
N1342 C1339 1.384 . S
N1343 C1335 1.427 . S
N1343 C1341 1.384 . S
H1344 C1350 0.930 . S
H1345 C1354 0.930 . S
H1346 C1359 0.929 . S
H1347 C1357 0.929 . S
H1348 C1352 0.929 . S
H1349 C1358 0.929 . S
C1350 H1344 0.930 . S
C1350 C1351 1.367 . S
C1350 C1358 1.378 . S
C1351 C1350 1.367 . S
C1351 C1359 1.433 . S
C1352 H1348 0.929 . S
C1352 C1354 1.378 . S
C1352 C1356 1.350 . S
C1353 C1356 1.463 . S
C1353 C1358 1.350 . S
C1353 N1361 1.427 . S
C1354 H1345 0.930 . S
C1354 C1352 1.378 . S
C1354 C1355 1.367 . S
C1355 C1354 1.367 . S
C1355 C1357 1.433 . S
C1356 C1352 1.350 . S
C1356 C1353 1.463 . S
C1356 N1360 1.427 . S
C1357 H1347 0.929 . S
C1357 C1355 1.433 . S
C1357 N1360 1.384 . S
C1358 H1349 0.929 . S
C1358 C1350 1.378 . S
C1358 C1353 1.350 . S
C1359 H1346 0.929 . S
C1359 C1351 1.433 . S
C1359 N1361 1.384 . S
N1360 C1356 1.427 . S
N1360 C1357 1.384 . S
N1361 C1353 1.427 . S
N1361 C1359 1.384 . S
H1362 C1368 0.930 . S
H1363 C1372 0.930 . S
H1364 C1377 0.929 . S
H1365 C1375 0.929 . S
H1366 C1370 0.929 . S
H1367 C1376 0.929 . S
C1368 H1362 0.930 . S
C1368 C1369 1.367 . S
C1368 C1376 1.378 . S
C1369 C1368 1.367 . S
C1369 C1377 1.433 . S
C1370 H1366 0.929 . S
C1370 C1372 1.378 . S
C1370 C1374 1.350 . S
C1371 C1374 1.463 . S
C1371 C1376 1.350 . S
C1371 N1379 1.427 . S
C1372 H1363 0.930 . S
C1372 C1370 1.378 . S
C1372 C1373 1.367 . S
C1373 C1372 1.367 . S
C1373 C1375 1.433 . S
C1374 C1370 1.350 . S
C1374 C1371 1.463 . S
C1374 N1378 1.427 . S
C1375 H1365 0.929 . S
C1375 C1373 1.433 . S
C1375 N1378 1.384 . S
C1376 H1367 0.929 . S
C1376 C1368 1.378 . S
C1376 C1371 1.350 . S
C1377 H1364 0.929 . S
C1377 C1369 1.433 . S
C1377 N1379 1.384 . S
N1378 C1374 1.427 . S
N1378 C1375 1.384 . S
N1379 C1371 1.427 . S
N1379 C1377 1.384 . S
H1380 C1386 0.930 . S
H1381 C1390 0.930 . S
H1382 C1395 0.929 . S
H1383 C1393 0.929 . S
H1384 C1388 0.929 . S
H1385 C1394 0.929 . S
C1386 H1380 0.930 . S
C1386 C1387 1.367 . S
C1386 C1394 1.378 . S
C1387 C1386 1.367 . S
C1387 C1395 1.433 . S
C1388 H1384 0.929 . S
C1388 C1390 1.378 . S
C1388 C1392 1.350 . S
C1389 C1392 1.463 . S
C1389 C1394 1.350 . S
C1389 N1397 1.427 . S
C1390 H1381 0.930 . S
C1390 C1388 1.378 . S
C1390 C1391 1.367 . S
C1391 C1390 1.367 . S
C1391 C1393 1.433 . S
C1392 C1388 1.350 . S
C1392 C1389 1.463 . S
C1392 N1396 1.427 . S
C1393 H1383 0.929 . S
C1393 C1391 1.433 . S
C1393 N1396 1.384 . S
C1394 H1385 0.929 . S
C1394 C1386 1.378 . S
C1394 C1389 1.350 . S
C1395 H1382 0.929 . S
C1395 C1387 1.433 . S
C1395 N1397 1.384 . S
N1396 C1392 1.427 . S
N1396 C1393 1.384 . S
N1397 C1389 1.427 . S
N1397 C1395 1.384 . S
H1398 C1404 0.930 . S
H1399 C1408 0.930 . S
H1400 C1413 0.929 . S
H1401 C1411 0.929 . S
H1402 C1406 0.929 . S
H1403 C1412 0.929 . S
C1404 H1398 0.930 . S
C1404 C1405 1.367 . S
C1404 C1412 1.378 . S
C1405 C1404 1.367 . S
C1405 C1413 1.433 . S
C1406 H1402 0.929 . S
C1406 C1408 1.378 . S
C1406 C1410 1.350 . S
C1407 C1410 1.463 . S
C1407 C1412 1.350 . S
C1407 N1415 1.427 . S
C1408 H1399 0.930 . S
C1408 C1406 1.378 . S
C1408 C1409 1.367 . S
C1409 C1408 1.367 . S
C1409 C1411 1.433 . S
C1410 C1406 1.350 . S
C1410 C1407 1.463 . S
C1410 N1414 1.427 . S
C1411 H1401 0.929 . S
C1411 C1409 1.433 . S
C1411 N1414 1.384 . S
C1412 H1403 0.929 . S
C1412 C1404 1.378 . S
C1412 C1407 1.350 . S
C1413 H1400 0.929 . S
C1413 C1405 1.433 . S
C1413 N1415 1.384 . S
N1414 C1410 1.427 . S
N1414 C1411 1.384 . S
N1415 C1407 1.427 . S
N1415 C1413 1.384 . S
H1416 C1422 0.930 . S
H1417 C1426 0.930 . S
H1418 C1431 0.929 . S
H1419 C1429 0.929 . S
H1420 C1424 0.929 . S
H1421 C1430 0.929 . S
C1422 H1416 0.930 . S
C1422 C1423 1.367 . S
C1422 C1430 1.378 . S
C1423 C1422 1.367 . S
C1423 C1431 1.433 . S
C1424 H1420 0.929 . S
C1424 C1426 1.378 . S
C1424 C1428 1.350 . S
C1425 C1428 1.463 . S
C1425 C1430 1.350 . S
C1425 N1433 1.427 . S
C1426 H1417 0.930 . S
C1426 C1424 1.378 . S
C1426 C1427 1.367 . S
C1427 C1426 1.367 . S
C1427 C1429 1.433 . S
C1428 C1424 1.350 . S
C1428 C1425 1.463 . S
C1428 N1432 1.427 . S
C1429 H1419 0.929 . S
C1429 C1427 1.433 . S
C1429 N1432 1.384 . S
C1430 H1421 0.929 . S
C1430 C1422 1.378 . S
C1430 C1425 1.350 . S
C1431 H1418 0.929 . S
C1431 C1423 1.433 . S
C1431 N1433 1.384 . S
N1432 C1428 1.427 . S
N1432 C1429 1.384 . S
N1433 C1425 1.427 . S
N1433 C1431 1.384 . S
H1434 C1440 0.930 . S
H1435 C1444 0.930 . S
H1436 C1449 0.929 . S
H1437 C1447 0.929 . S
H1438 C1442 0.929 . S
H1439 C1448 0.929 . S
C1440 H1434 0.930 . S
C1440 C1441 1.367 . S
C1440 C1448 1.378 . S
C1441 C1440 1.367 . S
C1441 C1449 1.433 . S
C1442 H1438 0.929 . S
C1442 C1444 1.378 . S
C1442 C1446 1.350 . S
C1443 C1446 1.463 . S
C1443 C1448 1.350 . S
C1443 N1451 1.427 . S
C1444 H1435 0.930 . S
C1444 C1442 1.378 . S
C1444 C1445 1.367 . S
C1445 C1444 1.367 . S
C1445 C1447 1.433 . S
C1446 C1442 1.350 . S
C1446 C1443 1.463 . S
C1446 N1450 1.427 . S
C1447 H1437 0.929 . S
C1447 C1445 1.433 . S
C1447 N1450 1.384 . S
C1448 H1439 0.929 . S
C1448 C1440 1.378 . S
C1448 C1443 1.350 . S
C1449 H1436 0.929 . S
C1449 C1441 1.433 . S
C1449 N1451 1.384 . S
N1450 C1446 1.427 . S
N1450 C1447 1.384 . S
N1451 C1443 1.427 . S
N1451 C1449 1.384 . S
H1452 C1458 0.930 . S
H1453 C1462 0.930 . S
H1454 C1467 0.929 . S
H1455 C1465 0.929 . S
H1456 C1460 0.929 . S
H1457 C1466 0.929 . S
C1458 H1452 0.930 . S
C1458 C1459 1.367 . S
C1458 C1466 1.378 . S
C1459 C1458 1.367 . S
C1459 C1467 1.433 . S
C1460 H1456 0.929 . S
C1460 C1462 1.378 . S
C1460 C1464 1.350 . S
C1461 C1464 1.463 . S
C1461 C1466 1.350 . S
C1461 N1469 1.427 . S
C1462 H1453 0.930 . S
C1462 C1460 1.378 . S
C1462 C1463 1.367 . S
C1463 C1462 1.367 . S
C1463 C1465 1.433 . S
C1464 C1460 1.350 . S
C1464 C1461 1.463 . S
C1464 N1468 1.427 . S
C1465 H1455 0.929 . S
C1465 C1463 1.433 . S
C1465 N1468 1.384 . S
C1466 H1457 0.929 . S
C1466 C1458 1.378 . S
C1466 C1461 1.350 . S
C1467 H1454 0.929 . S
C1467 C1459 1.433 . S
C1467 N1469 1.384 . S
N1468 C1464 1.427 . S
N1468 C1465 1.384 . S
N1469 C1461 1.427 . S
N1469 C1467 1.384 . S
H1470 C1476 0.930 . S
H1471 C1480 0.930 . S
H1472 C1485 0.929 . S
H1473 C1483 0.929 . S
H1474 C1478 0.929 . S
H1475 C1484 0.929 . S
C1476 H1470 0.930 . S
C1476 C1477 1.367 . S
C1476 C1484 1.378 . S
C1477 C1476 1.367 . S
C1477 C1485 1.433 . S
C1478 H1474 0.929 . S
C1478 C1480 1.378 . S
C1478 C1482 1.350 . S
C1479 C1482 1.463 . S
C1479 C1484 1.350 . S
C1479 N1487 1.427 . S
C1480 H1471 0.930 . S
C1480 C1478 1.378 . S
C1480 C1481 1.367 . S
C1481 C1480 1.367 . S
C1481 C1483 1.433 . S
C1482 C1478 1.350 . S
C1482 C1479 1.463 . S
C1482 N1486 1.427 . S
C1483 H1473 0.929 . S
C1483 C1481 1.433 . S
C1483 N1486 1.384 . S
C1484 H1475 0.929 . S
C1484 C1476 1.378 . S
C1484 C1479 1.350 . S
C1485 H1472 0.929 . S
C1485 C1477 1.433 . S
C1485 N1487 1.384 . S
N1486 C1482 1.427 . S
N1486 C1483 1.384 . S
N1487 C1479 1.427 . S
N1487 C1485 1.384 . S
H1488 C1494 0.930 . S
H1489 C1498 0.930 . S
H1490 C1503 0.929 . S
H1491 C1501 0.929 . S
H1492 C1496 0.929 . S
H1493 C1502 0.929 . S
C1494 H1488 0.930 . S
C1494 C1495 1.367 . S
C1494 C1502 1.378 . S
C1495 C1494 1.367 . S
C1495 C1503 1.433 . S
C1496 H1492 0.929 . S
C1496 C1498 1.378 . S
C1496 C1500 1.350 . S
C1497 C1500 1.463 . S
C1497 C1502 1.350 . S
C1497 N1505 1.427 . S
C1498 H1489 0.930 . S
C1498 C1496 1.378 . S
C1498 C1499 1.367 . S
C1499 C1498 1.367 . S
C1499 C1501 1.433 . S
C1500 C1496 1.350 . S
C1500 C1497 1.463 . S
C1500 N1504 1.427 . S
C1501 H1491 0.929 . S
C1501 C1499 1.433 . S
C1501 N1504 1.384 . S
C1502 H1493 0.929 . S
C1502 C1494 1.378 . S
C1502 C1497 1.350 . S
C1503 H1490 0.929 . S
C1503 C1495 1.433 . S
C1503 N1505 1.384 . S
N1504 C1500 1.427 . S
N1504 C1501 1.384 . S
N1505 C1497 1.427 . S
N1505 C1503 1.384 . S
H1506 C1512 0.930 . S
H1507 C1516 0.930 . S
H1508 C1521 0.929 . S
H1509 C1519 0.929 . S
H1510 C1514 0.929 . S
H1511 C1520 0.929 . S
C1512 H1506 0.930 . S
C1512 C1513 1.367 . S
C1512 C1520 1.378 . S
C1513 C1512 1.367 . S
C1513 C1521 1.433 . S
C1514 H1510 0.929 . S
C1514 C1516 1.378 . S
C1514 C1518 1.350 . S
C1515 C1518 1.463 . S
C1515 C1520 1.350 . S
C1515 N1523 1.427 . S
C1516 H1507 0.930 . S
C1516 C1514 1.378 . S
C1516 C1517 1.367 . S
C1517 C1516 1.367 . S
C1517 C1519 1.433 . S
C1518 C1514 1.350 . S
C1518 C1515 1.463 . S
C1518 N1522 1.427 . S
C1519 H1509 0.929 . S
C1519 C1517 1.433 . S
C1519 N1522 1.384 . S
C1520 H1511 0.929 . S
C1520 C1512 1.378 . S
C1520 C1515 1.350 . S
C1521 H1508 0.929 . S
C1521 C1513 1.433 . S
C1521 N1523 1.384 . S
N1522 C1518 1.427 . S
N1522 C1519 1.384 . S
N1523 C1515 1.427 . S
N1523 C1521 1.384 . S
H1524 C1530 0.930 . S
H1525 C1534 0.930 . S
H1526 C1539 0.929 . S
H1527 C1537 0.929 . S
H1528 C1532 0.929 . S
H1529 C1538 0.929 . S
C1530 H1524 0.930 . S
C1530 C1531 1.367 . S
C1530 C1538 1.378 . S
C1531 C1530 1.367 . S
C1531 C1539 1.433 . S
C1532 H1528 0.929 . S
C1532 C1534 1.378 . S
C1532 C1536 1.350 . S
C1533 C1536 1.463 . S
C1533 C1538 1.350 . S
C1533 N1541 1.427 . S
C1534 H1525 0.930 . S
C1534 C1532 1.378 . S
C1534 C1535 1.367 . S
C1535 C1534 1.367 . S
C1535 C1537 1.433 . S
C1536 C1532 1.350 . S
C1536 C1533 1.463 . S
C1536 N1540 1.427 . S
C1537 H1527 0.929 . S
C1537 C1535 1.433 . S
C1537 N1540 1.384 . S
C1538 H1529 0.929 . S
C1538 C1530 1.378 . S
C1538 C1533 1.350 . S
C1539 H1526 0.929 . S
C1539 C1531 1.433 . S
C1539 N1541 1.384 . S
N1540 C1536 1.427 . S
N1540 C1537 1.384 . S
N1541 C1533 1.427 . S
N1541 C1539 1.384 . S
H1542 C1548 0.930 . S
H1543 C1552 0.930 . S
H1544 C1557 0.929 . S
H1545 C1555 0.929 . S
H1546 C1550 0.929 . S
H1547 C1556 0.929 . S
C1548 H1542 0.930 . S
C1548 C1549 1.367 . S
C1548 C1556 1.378 . S
C1549 C1548 1.367 . S
C1549 C1557 1.433 . S
C1550 H1546 0.929 . S
C1550 C1552 1.378 . S
C1550 C1554 1.350 . S
C1551 C1554 1.463 . S
C1551 C1556 1.350 . S
C1551 N1559 1.427 . S
C1552 H1543 0.930 . S
C1552 C1550 1.378 . S
C1552 C1553 1.367 . S
C1553 C1552 1.367 . S
C1553 C1555 1.433 . S
C1554 C1550 1.350 . S
C1554 C1551 1.463 . S
C1554 N1558 1.427 . S
C1555 H1545 0.929 . S
C1555 C1553 1.433 . S
C1555 N1558 1.384 . S
C1556 H1547 0.929 . S
C1556 C1548 1.378 . S
C1556 C1551 1.350 . S
C1557 H1544 0.929 . S
C1557 C1549 1.433 . S
C1557 N1559 1.384 . S
N1558 C1554 1.427 . S
N1558 C1555 1.384 . S
N1559 C1551 1.427 . S
N1559 C1557 1.384 . S
H1560 C1566 0.930 . S
H1561 C1570 0.930 . S
H1562 C1575 0.929 . S
H1563 C1573 0.929 . S
H1564 C1568 0.929 . S
H1565 C1574 0.929 . S
C1566 H1560 0.930 . S
C1566 C1567 1.367 . S
C1566 C1574 1.378 . S
C1567 C1566 1.367 . S
C1567 C1575 1.433 . S
C1568 H1564 0.929 . S
C1568 C1570 1.378 . S
C1568 C1572 1.350 . S
C1569 C1572 1.463 . S
C1569 C1574 1.350 . S
C1569 N1577 1.427 . S
C1570 H1561 0.930 . S
C1570 C1568 1.378 . S
C1570 C1571 1.367 . S
C1571 C1570 1.367 . S
C1571 C1573 1.433 . S
C1572 C1568 1.350 . S
C1572 C1569 1.463 . S
C1572 N1576 1.427 . S
C1573 H1563 0.929 . S
C1573 C1571 1.433 . S
C1573 N1576 1.384 . S
C1574 H1565 0.929 . S
C1574 C1566 1.378 . S
C1574 C1569 1.350 . S
C1575 H1562 0.929 . S
C1575 C1567 1.433 . S
C1575 N1577 1.384 . S
N1576 C1572 1.427 . S
N1576 C1573 1.384 . S
N1577 C1569 1.427 . S
N1577 C1575 1.384 . S
H1578 C1584 0.930 . S
H1579 C1588 0.930 . S
H1580 C1593 0.929 . S
H1581 C1591 0.929 . S
H1582 C1586 0.929 . S
H1583 C1592 0.929 . S
C1584 H1578 0.930 . S
C1584 C1585 1.367 . S
C1584 C1592 1.378 . S
C1585 C1584 1.367 . S
C1585 C1593 1.433 . S
C1586 H1582 0.929 . S
C1586 C1588 1.378 . S
C1586 C1590 1.350 . S
C1587 C1590 1.463 . S
C1587 C1592 1.350 . S
C1587 N1595 1.427 . S
C1588 H1579 0.930 . S
C1588 C1586 1.378 . S
C1588 C1589 1.367 . S
C1589 C1588 1.367 . S
C1589 C1591 1.433 . S
C1590 C1586 1.350 . S
C1590 C1587 1.463 . S
C1590 N1594 1.427 . S
C1591 H1581 0.929 . S
C1591 C1589 1.433 . S
C1591 N1594 1.384 . S
C1592 H1583 0.929 . S
C1592 C1584 1.378 . S
C1592 C1587 1.350 . S
C1593 H1580 0.929 . S
C1593 C1585 1.433 . S
C1593 N1595 1.384 . S
N1594 C1590 1.427 . S
N1594 C1591 1.384 . S
N1595 C1587 1.427 . S
N1595 C1593 1.384 . S
H1596 C1602 0.930 . S
H1597 C1606 0.930 . S
H1598 C1611 0.929 . S
H1599 C1609 0.929 . S
H1600 C1604 0.929 . S
H1601 C1610 0.929 . S
C1602 H1596 0.930 . S
C1602 C1603 1.367 . S
C1602 C1610 1.378 . S
C1603 C1602 1.367 . S
C1603 C1611 1.433 . S
C1604 H1600 0.929 . S
C1604 C1606 1.378 . S
C1604 C1608 1.350 . S
C1605 C1608 1.463 . S
C1605 C1610 1.350 . S
C1605 N1613 1.427 . S
C1606 H1597 0.930 . S
C1606 C1604 1.378 . S
C1606 C1607 1.367 . S
C1607 C1606 1.367 . S
C1607 C1609 1.433 . S
C1608 C1604 1.350 . S
C1608 C1605 1.463 . S
C1608 N1612 1.427 . S
C1609 H1599 0.929 . S
C1609 C1607 1.433 . S
C1609 N1612 1.384 . S
C1610 H1601 0.929 . S
C1610 C1602 1.378 . S
C1610 C1605 1.350 . S
C1611 H1598 0.929 . S
C1611 C1603 1.433 . S
C1611 N1613 1.384 . S
N1612 C1608 1.427 . S
N1612 C1609 1.384 . S
N1613 C1605 1.427 . S
N1613 C1611 1.384 . S
H1614 C1620 0.930 . S
H1615 C1624 0.930 . S
H1616 C1629 0.929 . S
H1617 C1627 0.929 . S
H1618 C1622 0.929 . S
H1619 C1628 0.929 . S
C1620 H1614 0.930 . S
C1620 C1621 1.367 . S
C1620 C1628 1.378 . S
C1621 C1620 1.367 . S
C1621 C1629 1.433 . S
C1622 H1618 0.929 . S
C1622 C1624 1.378 . S
C1622 C1626 1.350 . S
C1623 C1626 1.463 . S
C1623 C1628 1.350 . S
C1623 N1631 1.427 . S
C1624 H1615 0.930 . S
C1624 C1622 1.378 . S
C1624 C1625 1.367 . S
C1625 C1624 1.367 . S
C1625 C1627 1.433 . S
C1626 C1622 1.350 . S
C1626 C1623 1.463 . S
C1626 N1630 1.427 . S
C1627 H1617 0.929 . S
C1627 C1625 1.433 . S
C1627 N1630 1.384 . S
C1628 H1619 0.929 . S
C1628 C1620 1.378 . S
C1628 C1623 1.350 . S
C1629 H1616 0.929 . S
C1629 C1621 1.433 . S
C1629 N1631 1.384 . S
N1630 C1626 1.427 . S
N1630 C1627 1.384 . S
N1631 C1623 1.427 . S
N1631 C1629 1.384 . S
H1632 C1638 0.930 . S
H1633 C1642 0.930 . S
H1634 C1647 0.929 . S
H1635 C1645 0.929 . S
H1636 C1640 0.929 . S
H1637 C1646 0.929 . S
C1638 H1632 0.930 . S
C1638 C1639 1.367 . S
C1638 C1646 1.378 . S
C1639 C1638 1.367 . S
C1639 C1647 1.433 . S
C1640 H1636 0.929 . S
C1640 C1642 1.378 . S
C1640 C1644 1.350 . S
C1641 C1644 1.463 . S
C1641 C1646 1.350 . S
C1641 N1649 1.427 . S
C1642 H1633 0.930 . S
C1642 C1640 1.378 . S
C1642 C1643 1.367 . S
C1643 C1642 1.367 . S
C1643 C1645 1.433 . S
C1644 C1640 1.350 . S
C1644 C1641 1.463 . S
C1644 N1648 1.427 . S
C1645 H1635 0.929 . S
C1645 C1643 1.433 . S
C1645 N1648 1.384 . S
C1646 H1637 0.929 . S
C1646 C1638 1.378 . S
C1646 C1641 1.350 . S
C1647 H1634 0.929 . S
C1647 C1639 1.433 . S
C1647 N1649 1.384 . S
N1648 C1644 1.427 . S
N1648 C1645 1.384 . S
N1649 C1641 1.427 . S
N1649 C1647 1.384 . S
H1650 C1656 0.930 . S
H1651 C1660 0.930 . S
H1652 C1665 0.929 . S
H1653 C1663 0.929 . S
H1654 C1658 0.929 . S
H1655 C1664 0.929 . S
C1656 H1650 0.930 . S
C1656 C1657 1.367 . S
C1656 C1664 1.378 . S
C1657 C1656 1.367 . S
C1657 C1665 1.433 . S
C1658 H1654 0.929 . S
C1658 C1660 1.378 . S
C1658 C1662 1.350 . S
C1659 C1662 1.463 . S
C1659 C1664 1.350 . S
C1659 N1667 1.427 . S
C1660 H1651 0.930 . S
C1660 C1658 1.378 . S
C1660 C1661 1.367 . S
C1661 C1660 1.367 . S
C1661 C1663 1.433 . S
C1662 C1658 1.350 . S
C1662 C1659 1.463 . S
C1662 N1666 1.427 . S
C1663 H1653 0.929 . S
C1663 C1661 1.433 . S
C1663 N1666 1.384 . S
C1664 H1655 0.929 . S
C1664 C1656 1.378 . S
C1664 C1659 1.350 . S
C1665 H1652 0.929 . S
C1665 C1657 1.433 . S
C1665 N1667 1.384 . S
N1666 C1662 1.427 . S
N1666 C1663 1.384 . S
N1667 C1659 1.427 . S
N1667 C1665 1.384 . S
H1668 C1674 0.930 . S
H1669 C1678 0.930 . S
H1670 C1683 0.929 . S
H1671 C1681 0.929 . S
H1672 C1676 0.929 . S
H1673 C1682 0.929 . S
C1674 H1668 0.930 . S
C1674 C1675 1.367 . S
C1674 C1682 1.378 . S
C1675 C1674 1.367 . S
C1675 C1683 1.433 . S
C1676 H1672 0.929 . S
C1676 C1678 1.378 . S
C1676 C1680 1.350 . S
C1677 C1680 1.463 . S
C1677 C1682 1.350 . S
C1677 N1685 1.427 . S
C1678 H1669 0.930 . S
C1678 C1676 1.378 . S
C1678 C1679 1.367 . S
C1679 C1678 1.367 . S
C1679 C1681 1.433 . S
C1680 C1676 1.350 . S
C1680 C1677 1.463 . S
C1680 N1684 1.427 . S
C1681 H1671 0.929 . S
C1681 C1679 1.433 . S
C1681 N1684 1.384 . S
C1682 H1673 0.929 . S
C1682 C1674 1.378 . S
C1682 C1677 1.350 . S
C1683 H1670 0.929 . S
C1683 C1675 1.433 . S
C1683 N1685 1.384 . S
N1684 C1680 1.427 . S
N1684 C1681 1.384 . S
N1685 C1677 1.427 . S
N1685 C1683 1.384 . S
H1686 C1692 0.930 . S
H1687 C1696 0.930 . S
H1688 C1701 0.929 . S
H1689 C1699 0.929 . S
H1690 C1694 0.929 . S
H1691 C1700 0.929 . S
C1692 H1686 0.930 . S
C1692 C1693 1.367 . S
C1692 C1700 1.378 . S
C1693 C1692 1.367 . S
C1693 C1701 1.433 . S
C1694 H1690 0.929 . S
C1694 C1696 1.378 . S
C1694 C1698 1.350 . S
C1695 C1698 1.463 . S
C1695 C1700 1.350 . S
C1695 N1703 1.427 . S
C1696 H1687 0.930 . S
C1696 C1694 1.378 . S
C1696 C1697 1.367 . S
C1697 C1696 1.367 . S
C1697 C1699 1.433 . S
C1698 C1694 1.350 . S
C1698 C1695 1.463 . S
C1698 N1702 1.427 . S
C1699 H1689 0.929 . S
C1699 C1697 1.433 . S
C1699 N1702 1.384 . S
C1700 H1691 0.929 . S
C1700 C1692 1.378 . S
C1700 C1695 1.350 . S
C1701 H1688 0.929 . S
C1701 C1693 1.433 . S
C1701 N1703 1.384 . S
N1702 C1698 1.427 . S
N1702 C1699 1.384 . S
N1703 C1695 1.427 . S
N1703 C1701 1.384 . S
H1704 C1710 0.930 . S
H1705 C1714 0.930 . S
H1706 C1719 0.929 . S
H1707 C1717 0.929 . S
H1708 C1712 0.929 . S
H1709 C1718 0.929 . S
C1710 H1704 0.930 . S
C1710 C1711 1.367 . S
C1710 C1718 1.378 . S
C1711 C1710 1.367 . S
C1711 C1719 1.433 . S
C1712 H1708 0.929 . S
C1712 C1714 1.378 . S
C1712 C1716 1.350 . S
C1713 C1716 1.463 . S
C1713 C1718 1.350 . S
C1713 N1721 1.427 . S
C1714 H1705 0.930 . S
C1714 C1712 1.378 . S
C1714 C1715 1.367 . S
C1715 C1714 1.367 . S
C1715 C1717 1.433 . S
C1716 C1712 1.350 . S
C1716 C1713 1.463 . S
C1716 N1720 1.427 . S
C1717 H1707 0.929 . S
C1717 C1715 1.433 . S
C1717 N1720 1.384 . S
C1718 H1709 0.929 . S
C1718 C1710 1.378 . S
C1718 C1713 1.350 . S
C1719 H1706 0.929 . S
C1719 C1711 1.433 . S
C1719 N1721 1.384 . S
N1720 C1716 1.427 . S
N1720 C1717 1.384 . S
N1721 C1713 1.427 . S
N1721 C1719 1.384 . S
H1722 C1728 0.930 . S
H1723 C1732 0.930 . S
H1724 C1737 0.929 . S
H1725 C1735 0.929 . S
H1726 C1730 0.929 . S
H1727 C1736 0.929 . S
C1728 H1722 0.930 . S
C1728 C1729 1.367 . S
C1728 C1736 1.378 . S
C1729 C1728 1.367 . S
C1729 C1737 1.433 . S
C1730 H1726 0.929 . S
C1730 C1732 1.378 . S
C1730 C1734 1.350 . S
C1731 C1734 1.463 . S
C1731 C1736 1.350 . S
C1731 N1739 1.427 . S
C1732 H1723 0.930 . S
C1732 C1730 1.378 . S
C1732 C1733 1.367 . S
C1733 C1732 1.367 . S
C1733 C1735 1.433 . S
C1734 C1730 1.350 . S
C1734 C1731 1.463 . S
C1734 N1738 1.427 . S
C1735 H1725 0.929 . S
C1735 C1733 1.433 . S
C1735 N1738 1.384 . S
C1736 H1727 0.929 . S
C1736 C1728 1.378 . S
C1736 C1731 1.350 . S
C1737 H1724 0.929 . S
C1737 C1729 1.433 . S
C1737 N1739 1.384 . S
N1738 C1734 1.427 . S
N1738 C1735 1.384 . S
N1739 C1731 1.427 . S
N1739 C1737 1.384 . S
H1740 C1746 0.930 . S
H1741 C1750 0.930 . S
H1742 C1755 0.929 . S
H1743 C1753 0.929 . S
H1744 C1748 0.929 . S
H1745 C1754 0.929 . S
C1746 H1740 0.930 . S
C1746 C1747 1.367 . S
C1746 C1754 1.378 . S
C1747 C1746 1.367 . S
C1747 C1755 1.433 . S
C1748 H1744 0.929 . S
C1748 C1750 1.378 . S
C1748 C1752 1.350 . S
C1749 C1752 1.463 . S
C1749 C1754 1.350 . S
C1749 N1757 1.427 . S
C1750 H1741 0.930 . S
C1750 C1748 1.378 . S
C1750 C1751 1.367 . S
C1751 C1750 1.367 . S
C1751 C1753 1.433 . S
C1752 C1748 1.350 . S
C1752 C1749 1.463 . S
C1752 N1756 1.427 . S
C1753 H1743 0.929 . S
C1753 C1751 1.433 . S
C1753 N1756 1.384 . S
C1754 H1745 0.929 . S
C1754 C1746 1.378 . S
C1754 C1749 1.350 . S
C1755 H1742 0.929 . S
C1755 C1747 1.433 . S
C1755 N1757 1.384 . S
N1756 C1752 1.427 . S
N1756 C1753 1.384 . S
N1757 C1749 1.427 . S
N1757 C1755 1.384 . S
H1758 C1764 0.930 . S
H1759 C1768 0.930 . S
H1760 C1773 0.929 . S
H1761 C1771 0.929 . S
H1762 C1766 0.929 . S
H1763 C1772 0.929 . S
C1764 H1758 0.930 . S
C1764 C1765 1.367 . S
C1764 C1772 1.378 . S
C1765 C1764 1.367 . S
C1765 C1773 1.433 . S
C1766 H1762 0.929 . S
C1766 C1768 1.378 . S
C1766 C1770 1.350 . S
C1767 C1770 1.463 . S
C1767 C1772 1.350 . S
C1767 N1775 1.427 . S
C1768 H1759 0.930 . S
C1768 C1766 1.378 . S
C1768 C1769 1.367 . S
C1769 C1768 1.367 . S
C1769 C1771 1.433 . S
C1770 C1766 1.350 . S
C1770 C1767 1.463 . S
C1770 N1774 1.427 . S
C1771 H1761 0.929 . S
C1771 C1769 1.433 . S
C1771 N1774 1.384 . S
C1772 H1763 0.929 . S
C1772 C1764 1.378 . S
C1772 C1767 1.350 . S
C1773 H1760 0.929 . S
C1773 C1765 1.433 . S
C1773 N1775 1.384 . S
N1774 C1770 1.427 . S
N1774 C1771 1.384 . S
N1775 C1767 1.427 . S
N1775 C1773 1.384 . S
H1776 C1782 0.930 . S
H1777 C1786 0.930 . S
H1778 C1791 0.929 . S
H1779 C1789 0.929 . S
H1780 C1784 0.929 . S
H1781 C1790 0.929 . S
C1782 H1776 0.930 . S
C1782 C1783 1.367 . S
C1782 C1790 1.378 . S
C1783 C1782 1.367 . S
C1783 C1791 1.433 . S
C1784 H1780 0.929 . S
C1784 C1786 1.378 . S
C1784 C1788 1.350 . S
C1785 C1788 1.463 . S
C1785 C1790 1.350 . S
C1785 N1793 1.427 . S
C1786 H1777 0.930 . S
C1786 C1784 1.378 . S
C1786 C1787 1.367 . S
C1787 C1786 1.367 . S
C1787 C1789 1.433 . S
C1788 C1784 1.350 . S
C1788 C1785 1.463 . S
C1788 N1792 1.427 . S
C1789 H1779 0.929 . S
C1789 C1787 1.433 . S
C1789 N1792 1.384 . S
C1790 H1781 0.929 . S
C1790 C1782 1.378 . S
C1790 C1785 1.350 . S
C1791 H1778 0.929 . S
C1791 C1783 1.433 . S
C1791 N1793 1.384 . S
N1792 C1788 1.427 . S
N1792 C1789 1.384 . S
N1793 C1785 1.427 . S
N1793 C1791 1.384 . S
H1794 C1800 0.930 . S
H1795 C1804 0.930 . S
H1796 C1809 0.929 . S
H1797 C1807 0.929 . S
H1798 C1802 0.929 . S
H1799 C1808 0.929 . S
C1800 H1794 0.930 . S
C1800 C1801 1.367 . S
C1800 C1808 1.378 . S
C1801 C1800 1.367 . S
C1801 C1809 1.433 . S
C1802 H1798 0.929 . S
C1802 C1804 1.378 . S
C1802 C1806 1.350 . S
C1803 C1806 1.463 . S
C1803 C1808 1.350 . S
C1803 N1811 1.427 . S
C1804 H1795 0.930 . S
C1804 C1802 1.378 . S
C1804 C1805 1.367 . S
C1805 C1804 1.367 . S
C1805 C1807 1.433 . S
C1806 C1802 1.350 . S
C1806 C1803 1.463 . S
C1806 N1810 1.427 . S
C1807 H1797 0.929 . S
C1807 C1805 1.433 . S
C1807 N1810 1.384 . S
C1808 H1799 0.929 . S
C1808 C1800 1.378 . S
C1808 C1803 1.350 . S
C1809 H1796 0.929 . S
C1809 C1801 1.433 . S
C1809 N1811 1.384 . S
N1810 C1806 1.427 . S
N1810 C1807 1.384 . S
N1811 C1803 1.427 . S
N1811 C1809 1.384 . S
H1812 C1818 0.930 . S
H1813 C1822 0.930 . S
H1814 C1827 0.929 . S
H1815 C1825 0.929 . S
H1816 C1820 0.929 . S
H1817 C1826 0.929 . S
C1818 H1812 0.930 . S
C1818 C1819 1.367 . S
C1818 C1826 1.378 . S
C1819 C1818 1.367 . S
C1819 C1827 1.433 . S
C1820 H1816 0.929 . S
C1820 C1822 1.378 . S
C1820 C1824 1.350 . S
C1821 C1824 1.463 . S
C1821 C1826 1.350 . S
C1821 N1829 1.427 . S
C1822 H1813 0.930 . S
C1822 C1820 1.378 . S
C1822 C1823 1.367 . S
C1823 C1822 1.367 . S
C1823 C1825 1.433 . S
C1824 C1820 1.350 . S
C1824 C1821 1.463 . S
C1824 N1828 1.427 . S
C1825 H1815 0.929 . S
C1825 C1823 1.433 . S
C1825 N1828 1.384 . S
C1826 H1817 0.929 . S
C1826 C1818 1.378 . S
C1826 C1821 1.350 . S
C1827 H1814 0.929 . S
C1827 C1819 1.433 . S
C1827 N1829 1.384 . S
N1828 C1824 1.427 . S
N1828 C1825 1.384 . S
N1829 C1821 1.427 . S
N1829 C1827 1.384 . S
H1830 C1836 0.930 . S
H1831 C1840 0.930 . S
H1832 C1845 0.929 . S
H1833 C1843 0.929 . S
H1834 C1838 0.929 . S
H1835 C1844 0.929 . S
C1836 H1830 0.930 . S
C1836 C1837 1.367 . S
C1836 C1844 1.378 . S
C1837 C1836 1.367 . S
C1837 C1845 1.433 . S
C1838 H1834 0.929 . S
C1838 C1840 1.378 . S
C1838 C1842 1.350 . S
C1839 C1842 1.463 . S
C1839 C1844 1.350 . S
C1839 N1847 1.427 . S
C1840 H1831 0.930 . S
C1840 C1838 1.378 . S
C1840 C1841 1.367 . S
C1841 C1840 1.367 . S
C1841 C1843 1.433 . S
C1842 C1838 1.350 . S
C1842 C1839 1.463 . S
C1842 N1846 1.427 . S
C1843 H1833 0.929 . S
C1843 C1841 1.433 . S
C1843 N1846 1.384 . S
C1844 H1835 0.929 . S
C1844 C1836 1.378 . S
C1844 C1839 1.350 . S
C1845 H1832 0.929 . S
C1845 C1837 1.433 . S
C1845 N1847 1.384 . S
N1846 C1842 1.427 . S
N1846 C1843 1.384 . S
N1847 C1839 1.427 . S
N1847 C1845 1.384 . S
H1848 C1854 0.930 . S
H1849 C1858 0.930 . S
H1850 C1863 0.929 . S
H1851 C1861 0.929 . S
H1852 C1856 0.929 . S
H1853 C1862 0.929 . S
C1854 H1848 0.930 . S
C1854 C1855 1.367 . S
C1854 C1862 1.378 . S
C1855 C1854 1.367 . S
C1855 C1863 1.433 . S
C1856 H1852 0.929 . S
C1856 C1858 1.378 . S
C1856 C1860 1.350 . S
C1857 C1860 1.463 . S
C1857 C1862 1.350 . S
C1857 N1865 1.427 . S
C1858 H1849 0.930 . S
C1858 C1856 1.378 . S
C1858 C1859 1.367 . S
C1859 C1858 1.367 . S
C1859 C1861 1.433 . S
C1860 C1856 1.350 . S
C1860 C1857 1.463 . S
C1860 N1864 1.427 . S
C1861 H1851 0.929 . S
C1861 C1859 1.433 . S
C1861 N1864 1.384 . S
C1862 H1853 0.929 . S
C1862 C1854 1.378 . S
C1862 C1857 1.350 . S
C1863 H1850 0.929 . S
C1863 C1855 1.433 . S
C1863 N1865 1.384 . S
N1864 C1860 1.427 . S
N1864 C1861 1.384 . S
N1865 C1857 1.427 . S
N1865 C1863 1.384 . S
H1866 C1872 0.930 . S
H1867 C1876 0.930 . S
H1868 C1881 0.929 . S
H1869 C1879 0.929 . S
H1870 C1874 0.929 . S
H1871 C1880 0.929 . S
C1872 H1866 0.930 . S
C1872 C1873 1.367 . S
C1872 C1880 1.378 . S
C1873 C1872 1.367 . S
C1873 C1881 1.433 . S
C1874 H1870 0.929 . S
C1874 C1876 1.378 . S
C1874 C1878 1.350 . S
C1875 C1878 1.463 . S
C1875 C1880 1.350 . S
C1875 N1883 1.427 . S
C1876 H1867 0.930 . S
C1876 C1874 1.378 . S
C1876 C1877 1.367 . S
C1877 C1876 1.367 . S
C1877 C1879 1.433 . S
C1878 C1874 1.350 . S
C1878 C1875 1.463 . S
C1878 N1882 1.427 . S
C1879 H1869 0.929 . S
C1879 C1877 1.433 . S
C1879 N1882 1.384 . S
C1880 H1871 0.929 . S
C1880 C1872 1.378 . S
C1880 C1875 1.350 . S
C1881 H1868 0.929 . S
C1881 C1873 1.433 . S
C1881 N1883 1.384 . S
N1882 C1878 1.427 . S
N1882 C1879 1.384 . S
N1883 C1875 1.427 . S
N1883 C1881 1.384 . S
H1884 C1890 0.930 . S
H1885 C1894 0.930 . S
H1886 C1899 0.929 . S
H1887 C1897 0.929 . S
H1888 C1892 0.929 . S
H1889 C1898 0.929 . S
C1890 H1884 0.930 . S
C1890 C1891 1.367 . S
C1890 C1898 1.378 . S
C1891 C1890 1.367 . S
C1891 C1899 1.433 . S
C1892 H1888 0.929 . S
C1892 C1894 1.378 . S
C1892 C1896 1.350 . S
C1893 C1896 1.463 . S
C1893 C1898 1.350 . S
C1893 N1901 1.427 . S
C1894 H1885 0.930 . S
C1894 C1892 1.378 . S
C1894 C1895 1.367 . S
C1895 C1894 1.367 . S
C1895 C1897 1.433 . S
C1896 C1892 1.350 . S
C1896 C1893 1.463 . S
C1896 N1900 1.427 . S
C1897 H1887 0.929 . S
C1897 C1895 1.433 . S
C1897 N1900 1.384 . S
C1898 H1889 0.929 . S
C1898 C1890 1.378 . S
C1898 C1893 1.350 . S
C1899 H1886 0.929 . S
C1899 C1891 1.433 . S
C1899 N1901 1.384 . S
N1900 C1896 1.427 . S
N1900 C1897 1.384 . S
N1901 C1893 1.427 . S
N1901 C1899 1.384 . S
H1902 C1908 0.930 . S
H1903 C1912 0.930 . S
H1904 C1917 0.929 . S
H1905 C1915 0.929 . S
H1906 C1910 0.929 . S
H1907 C1916 0.929 . S
C1908 H1902 0.930 . S
C1908 C1909 1.367 . S
C1908 C1916 1.378 . S
C1909 C1908 1.367 . S
C1909 C1917 1.433 . S
C1910 H1906 0.929 . S
C1910 C1912 1.378 . S
C1910 C1914 1.350 . S
C1911 C1914 1.463 . S
C1911 C1916 1.350 . S
C1911 N1919 1.427 . S
C1912 H1903 0.930 . S
C1912 C1910 1.378 . S
C1912 C1913 1.367 . S
C1913 C1912 1.367 . S
C1913 C1915 1.433 . S
C1914 C1910 1.350 . S
C1914 C1911 1.463 . S
C1914 N1918 1.427 . S
C1915 H1905 0.929 . S
C1915 C1913 1.433 . S
C1915 N1918 1.384 . S
C1916 H1907 0.929 . S
C1916 C1908 1.378 . S
C1916 C1911 1.350 . S
C1917 H1904 0.929 . S
C1917 C1909 1.433 . S
C1917 N1919 1.384 . S
N1918 C1914 1.427 . S
N1918 C1915 1.384 . S
N1919 C1911 1.427 . S
N1919 C1917 1.384 . S
H1920 C1926 0.930 . S
H1921 C1930 0.930 . S
H1922 C1935 0.929 . S
H1923 C1933 0.929 . S
H1924 C1928 0.929 . S
H1925 C1934 0.929 . S
C1926 H1920 0.930 . S
C1926 C1927 1.367 . S
C1926 C1934 1.378 . S
C1927 C1926 1.367 . S
C1927 C1935 1.433 . S
C1928 H1924 0.929 . S
C1928 C1930 1.378 . S
C1928 C1932 1.350 . S
C1929 C1932 1.463 . S
C1929 C1934 1.350 . S
C1929 N1937 1.427 . S
C1930 H1921 0.930 . S
C1930 C1928 1.378 . S
C1930 C1931 1.367 . S
C1931 C1930 1.367 . S
C1931 C1933 1.433 . S
C1932 C1928 1.350 . S
C1932 C1929 1.463 . S
C1932 N1936 1.427 . S
C1933 H1923 0.929 . S
C1933 C1931 1.433 . S
C1933 N1936 1.384 . S
C1934 H1925 0.929 . S
C1934 C1926 1.378 . S
C1934 C1929 1.350 . S
C1935 H1922 0.929 . S
C1935 C1927 1.433 . S
C1935 N1937 1.384 . S
N1936 C1932 1.427 . S
N1936 C1933 1.384 . S
N1937 C1929 1.427 . S
N1937 C1935 1.384 . S
H1938 C1944 0.930 . S
H1939 C1948 0.930 . S
H1940 C1953 0.929 . S
H1941 C1951 0.929 . S
H1942 C1946 0.929 . S
H1943 C1952 0.929 . S
C1944 H1938 0.930 . S
C1944 C1945 1.367 . S
C1944 C1952 1.378 . S
C1945 C1944 1.367 . S
C1945 C1953 1.433 . S
C1946 H1942 0.929 . S
C1946 C1948 1.378 . S
C1946 C1950 1.350 . S
C1947 C1950 1.463 . S
C1947 C1952 1.350 . S
C1947 N1955 1.427 . S
C1948 H1939 0.930 . S
C1948 C1946 1.378 . S
C1948 C1949 1.367 . S
C1949 C1948 1.367 . S
C1949 C1951 1.433 . S
C1950 C1946 1.350 . S
C1950 C1947 1.463 . S
C1950 N1954 1.427 . S
C1951 H1941 0.929 . S
C1951 C1949 1.433 . S
C1951 N1954 1.384 . S
C1952 H1943 0.929 . S
C1952 C1944 1.378 . S
C1952 C1947 1.350 . S
C1953 H1940 0.929 . S
C1953 C1945 1.433 . S
C1953 N1955 1.384 . S
N1954 C1950 1.427 . S
N1954 C1951 1.384 . S
N1955 C1947 1.427 . S
N1955 C1953 1.384 . S
H1956 C1962 0.930 . S
H1957 C1966 0.930 . S
H1958 C1971 0.929 . S
H1959 C1969 0.929 . S
H1960 C1964 0.929 . S
H1961 C1970 0.929 . S
C1962 H1956 0.930 . S
C1962 C1963 1.367 . S
C1962 C1970 1.378 . S
C1963 C1962 1.367 . S
C1963 C1971 1.433 . S
C1964 H1960 0.929 . S
C1964 C1966 1.378 . S
C1964 C1968 1.350 . S
C1965 C1968 1.463 . S
C1965 C1970 1.350 . S
C1965 N1973 1.427 . S
C1966 H1957 0.930 . S
C1966 C1964 1.378 . S
C1966 C1967 1.367 . S
C1967 C1966 1.367 . S
C1967 C1969 1.433 . S
C1968 C1964 1.350 . S
C1968 C1965 1.463 . S
C1968 N1972 1.427 . S
C1969 H1959 0.929 . S
C1969 C1967 1.433 . S
C1969 N1972 1.384 . S
C1970 H1961 0.929 . S
C1970 C1962 1.378 . S
C1970 C1965 1.350 . S
C1971 H1958 0.929 . S
C1971 C1963 1.433 . S
C1971 N1973 1.384 . S
N1972 C1968 1.427 . S
N1972 C1969 1.384 . S
N1973 C1965 1.427 . S
N1973 C1971 1.384 . S
H1974 C1980 0.930 . S
H1975 C1984 0.930 . S
H1976 C1989 0.929 . S
H1977 C1987 0.929 . S
H1978 C1982 0.929 . S
H1979 C1988 0.929 . S
C1980 H1974 0.930 . S
C1980 C1981 1.367 . S
C1980 C1988 1.378 . S
C1981 C1980 1.367 . S
C1981 C1989 1.433 . S
C1982 H1978 0.929 . S
C1982 C1984 1.378 . S
C1982 C1986 1.350 . S
C1983 C1986 1.463 . S
C1983 C1988 1.350 . S
C1983 N1991 1.427 . S
C1984 H1975 0.930 . S
C1984 C1982 1.378 . S
C1984 C1985 1.367 . S
C1985 C1984 1.367 . S
C1985 C1987 1.433 . S
C1986 C1982 1.350 . S
C1986 C1983 1.463 . S
C1986 N1990 1.427 . S
C1987 H1977 0.929 . S
C1987 C1985 1.433 . S
C1987 N1990 1.384 . S
C1988 H1979 0.929 . S
C1988 C1980 1.378 . S
C1988 C1983 1.350 . S
C1989 H1976 0.929 . S
C1989 C1981 1.433 . S
C1989 N1991 1.384 . S
N1990 C1986 1.427 . S
N1990 C1987 1.384 . S
N1991 C1983 1.427 . S
N1991 C1989 1.384 . S
H1992 C1998 0.930 . S
H1993 C2002 0.930 . S
H1994 C2007 0.929 . S
H1995 C2005 0.929 . S
H1996 C2000 0.929 . S
H1997 C2006 0.929 . S
C1998 H1992 0.930 . S
C1998 C1999 1.367 . S
C1998 C2006 1.378 . S
C1999 C1998 1.367 . S
C1999 C2007 1.433 . S
C2000 H1996 0.929 . S
C2000 C2002 1.378 . S
C2000 C2004 1.350 . S
C2001 C2004 1.463 . S
C2001 C2006 1.350 . S
C2001 N2009 1.427 . S
C2002 H1993 0.930 . S
C2002 C2000 1.378 . S
C2002 C2003 1.367 . S
C2003 C2002 1.367 . S
C2003 C2005 1.433 . S
C2004 C2000 1.350 . S
C2004 C2001 1.463 . S
C2004 N2008 1.427 . S
C2005 H1995 0.929 . S
C2005 C2003 1.433 . S
C2005 N2008 1.384 . S
C2006 H1997 0.929 . S
C2006 C1998 1.378 . S
C2006 C2001 1.350 . S
C2007 H1994 0.929 . S
C2007 C1999 1.433 . S
C2007 N2009 1.384 . S
N2008 C2004 1.427 . S
N2008 C2005 1.384 . S
N2009 C2001 1.427 . S
N2009 C2007 1.384 . S
H2010 C2016 0.930 . S
H2011 C2020 0.930 . S
H2012 C2025 0.929 . S
H2013 C2023 0.929 . S
H2014 C2018 0.929 . S
H2015 C2024 0.929 . S
C2016 H2010 0.930 . S
C2016 C2017 1.367 . S
C2016 C2024 1.378 . S
C2017 C2016 1.367 . S
C2017 C2025 1.433 . S
C2018 H2014 0.929 . S
C2018 C2020 1.378 . S
C2018 C2022 1.350 . S
C2019 C2022 1.463 . S
C2019 C2024 1.350 . S
C2019 N2027 1.427 . S
C2020 H2011 0.930 . S
C2020 C2018 1.378 . S
C2020 C2021 1.367 . S
C2021 C2020 1.367 . S
C2021 C2023 1.433 . S
C2022 C2018 1.350 . S
C2022 C2019 1.463 . S
C2022 N2026 1.427 . S
C2023 H2013 0.929 . S
C2023 C2021 1.433 . S
C2023 N2026 1.384 . S
C2024 H2015 0.929 . S
C2024 C2016 1.378 . S
C2024 C2019 1.350 . S
C2025 H2012 0.929 . S
C2025 C2017 1.433 . S
C2025 N2027 1.384 . S
N2026 C2022 1.427 . S
N2026 C2023 1.384 . S
N2027 C2019 1.427 . S
N2027 C2025 1.384 . S
H2028 C2034 0.930 . S
H2029 C2038 0.930 . S
H2030 C2043 0.929 . S
H2031 C2041 0.929 . S
H2032 C2036 0.929 . S
H2033 C2042 0.929 . S
C2034 H2028 0.930 . S
C2034 C2035 1.367 . S
C2034 C2042 1.378 . S
C2035 C2034 1.367 . S
C2035 C2043 1.433 . S
C2036 H2032 0.929 . S
C2036 C2038 1.378 . S
C2036 C2040 1.350 . S
C2037 C2040 1.463 . S
C2037 C2042 1.350 . S
C2037 N2045 1.427 . S
C2038 H2029 0.930 . S
C2038 C2036 1.378 . S
C2038 C2039 1.367 . S
C2039 C2038 1.367 . S
C2039 C2041 1.433 . S
C2040 C2036 1.350 . S
C2040 C2037 1.463 . S
C2040 N2044 1.427 . S
C2041 H2031 0.929 . S
C2041 C2039 1.433 . S
C2041 N2044 1.384 . S
C2042 H2033 0.929 . S
C2042 C2034 1.378 . S
C2042 C2037 1.350 . S
C2043 H2030 0.929 . S
C2043 C2035 1.433 . S
C2043 N2045 1.384 . S
N2044 C2040 1.427 . S
N2044 C2041 1.384 . S
N2045 C2037 1.427 . S
N2045 C2043 1.384 . S
H2046 C2052 0.930 . S
H2047 C2056 0.930 . S
H2048 C2061 0.929 . S
H2049 C2059 0.929 . S
H2050 C2054 0.929 . S
H2051 C2060 0.929 . S
C2052 H2046 0.930 . S
C2052 C2053 1.367 . S
C2052 C2060 1.378 . S
C2053 C2052 1.367 . S
C2053 C2061 1.433 . S
C2054 H2050 0.929 . S
C2054 C2056 1.378 . S
C2054 C2058 1.350 . S
C2055 C2058 1.463 . S
C2055 C2060 1.350 . S
C2055 N2063 1.427 . S
C2056 H2047 0.930 . S
C2056 C2054 1.378 . S
C2056 C2057 1.367 . S
C2057 C2056 1.367 . S
C2057 C2059 1.433 . S
C2058 C2054 1.350 . S
C2058 C2055 1.463 . S
C2058 N2062 1.427 . S
C2059 H2049 0.929 . S
C2059 C2057 1.433 . S
C2059 N2062 1.384 . S
C2060 H2051 0.929 . S
C2060 C2052 1.378 . S
C2060 C2055 1.350 . S
C2061 H2048 0.929 . S
C2061 C2053 1.433 . S
C2061 N2063 1.384 . S
N2062 C2058 1.427 . S
N2062 C2059 1.384 . S
N2063 C2055 1.427 . S
N2063 C2061 1.384 . S
H2064 C2070 0.930 . S
H2065 C2074 0.930 . S
H2066 C2079 0.929 . S
H2067 C2077 0.929 . S
H2068 C2072 0.929 . S
H2069 C2078 0.929 . S
C2070 H2064 0.930 . S
C2070 C2071 1.367 . S
C2070 C2078 1.378 . S
C2071 C2070 1.367 . S
C2071 C2079 1.433 . S
C2072 H2068 0.929 . S
C2072 C2074 1.378 . S
C2072 C2076 1.350 . S
C2073 C2076 1.463 . S
C2073 C2078 1.350 . S
C2073 N2081 1.427 . S
C2074 H2065 0.930 . S
C2074 C2072 1.378 . S
C2074 C2075 1.367 . S
C2075 C2074 1.367 . S
C2075 C2077 1.433 . S
C2076 C2072 1.350 . S
C2076 C2073 1.463 . S
C2076 N2080 1.427 . S
C2077 H2067 0.929 . S
C2077 C2075 1.433 . S
C2077 N2080 1.384 . S
C2078 H2069 0.929 . S
C2078 C2070 1.378 . S
C2078 C2073 1.350 . S
C2079 H2066 0.929 . S
C2079 C2071 1.433 . S
C2079 N2081 1.384 . S
N2080 C2076 1.427 . S
N2080 C2077 1.384 . S
N2081 C2073 1.427 . S
N2081 C2079 1.384 . S
H2082 C2088 0.930 . S
H2083 C2092 0.930 . S
H2084 C2097 0.929 . S
H2085 C2095 0.929 . S
H2086 C2090 0.929 . S
H2087 C2096 0.929 . S
C2088 H2082 0.930 . S
C2088 C2089 1.367 . S
C2088 C2096 1.378 . S
C2089 C2088 1.367 . S
C2089 C2097 1.433 . S
C2090 H2086 0.929 . S
C2090 C2092 1.378 . S
C2090 C2094 1.350 . S
C2091 C2094 1.463 . S
C2091 C2096 1.350 . S
C2091 N2099 1.427 . S
C2092 H2083 0.930 . S
C2092 C2090 1.378 . S
C2092 C2093 1.367 . S
C2093 C2092 1.367 . S
C2093 C2095 1.433 . S
C2094 C2090 1.350 . S
C2094 C2091 1.463 . S
C2094 N2098 1.427 . S
C2095 H2085 0.929 . S
C2095 C2093 1.433 . S
C2095 N2098 1.384 . S
C2096 H2087 0.929 . S
C2096 C2088 1.378 . S
C2096 C2091 1.350 . S
C2097 H2084 0.929 . S
C2097 C2089 1.433 . S
C2097 N2099 1.384 . S
N2098 C2094 1.427 . S
N2098 C2095 1.384 . S
N2099 C2091 1.427 . S
N2099 C2097 1.384 . S
H2100 C2106 0.930 . S
H2101 C2110 0.930 . S
H2102 C2115 0.929 . S
H2103 C2113 0.929 . S
H2104 C2108 0.929 . S
H2105 C2114 0.929 . S
C2106 H2100 0.930 . S
C2106 C2107 1.367 . S
C2106 C2114 1.378 . S
C2107 C2106 1.367 . S
C2107 C2115 1.433 . S
C2108 H2104 0.929 . S
C2108 C2110 1.378 . S
C2108 C2112 1.350 . S
C2109 C2112 1.463 . S
C2109 C2114 1.350 . S
C2109 N2117 1.427 . S
C2110 H2101 0.930 . S
C2110 C2108 1.378 . S
C2110 C2111 1.367 . S
C2111 C2110 1.367 . S
C2111 C2113 1.433 . S
C2112 C2108 1.350 . S
C2112 C2109 1.463 . S
C2112 N2116 1.427 . S
C2113 H2103 0.929 . S
C2113 C2111 1.433 . S
C2113 N2116 1.384 . S
C2114 H2105 0.929 . S
C2114 C2106 1.378 . S
C2114 C2109 1.350 . S
C2115 H2102 0.929 . S
C2115 C2107 1.433 . S
C2115 N2117 1.384 . S
N2116 C2112 1.427 . S
N2116 C2113 1.384 . S
N2117 C2109 1.427 . S
N2117 C2115 1.384 . S
H2118 C2124 0.930 . S
H2119 C2128 0.930 . S
H2120 C2133 0.929 . S
H2121 C2131 0.929 . S
H2122 C2126 0.929 . S
H2123 C2132 0.929 . S
C2124 H2118 0.930 . S
C2124 C2125 1.367 . S
C2124 C2132 1.378 . S
C2125 C2124 1.367 . S
C2125 C2133 1.433 . S
C2126 H2122 0.929 . S
C2126 C2128 1.378 . S
C2126 C2130 1.350 . S
C2127 C2130 1.463 . S
C2127 C2132 1.350 . S
C2127 N2135 1.427 . S
C2128 H2119 0.930 . S
C2128 C2126 1.378 . S
C2128 C2129 1.367 . S
C2129 C2128 1.367 . S
C2129 C2131 1.433 . S
C2130 C2126 1.350 . S
C2130 C2127 1.463 . S
C2130 N2134 1.427 . S
C2131 H2121 0.929 . S
C2131 C2129 1.433 . S
C2131 N2134 1.384 . S
C2132 H2123 0.929 . S
C2132 C2124 1.378 . S
C2132 C2127 1.350 . S
C2133 H2120 0.929 . S
C2133 C2125 1.433 . S
C2133 N2135 1.384 . S
N2134 C2130 1.427 . S
N2134 C2131 1.384 . S
N2135 C2127 1.427 . S
N2135 C2133 1.384 . S
H2136 C2142 0.930 . S
H2137 C2146 0.930 . S
H2138 C2151 0.929 . S
H2139 C2149 0.929 . S
H2140 C2144 0.929 . S
H2141 C2150 0.929 . S
C2142 H2136 0.930 . S
C2142 C2143 1.367 . S
C2142 C2150 1.378 . S
C2143 C2142 1.367 . S
C2143 C2151 1.433 . S
C2144 H2140 0.929 . S
C2144 C2146 1.378 . S
C2144 C2148 1.350 . S
C2145 C2148 1.463 . S
C2145 C2150 1.350 . S
C2145 N2153 1.427 . S
C2146 H2137 0.930 . S
C2146 C2144 1.378 . S
C2146 C2147 1.367 . S
C2147 C2146 1.367 . S
C2147 C2149 1.433 . S
C2148 C2144 1.350 . S
C2148 C2145 1.463 . S
C2148 N2152 1.427 . S
C2149 H2139 0.929 . S
C2149 C2147 1.433 . S
C2149 N2152 1.384 . S
C2150 H2141 0.929 . S
C2150 C2142 1.378 . S
C2150 C2145 1.350 . S
C2151 H2138 0.929 . S
C2151 C2143 1.433 . S
C2151 N2153 1.384 . S
N2152 C2148 1.427 . S
N2152 C2149 1.384 . S
N2153 C2145 1.427 . S
N2153 C2151 1.384 . S
H2154 C2160 0.930 . S
H2155 C2164 0.930 . S
H2156 C2169 0.929 . S
H2157 C2167 0.929 . S
H2158 C2162 0.929 . S
H2159 C2168 0.929 . S
C2160 H2154 0.930 . S
C2160 C2161 1.367 . S
C2160 C2168 1.378 . S
C2161 C2160 1.367 . S
C2161 C2169 1.433 . S
C2162 H2158 0.929 . S
C2162 C2164 1.378 . S
C2162 C2166 1.350 . S
C2163 C2166 1.463 . S
C2163 C2168 1.350 . S
C2163 N2171 1.427 . S
C2164 H2155 0.930 . S
C2164 C2162 1.378 . S
C2164 C2165 1.367 . S
C2165 C2164 1.367 . S
C2165 C2167 1.433 . S
C2166 C2162 1.350 . S
C2166 C2163 1.463 . S
C2166 N2170 1.427 . S
C2167 H2157 0.929 . S
C2167 C2165 1.433 . S
C2167 N2170 1.384 . S
C2168 H2159 0.929 . S
C2168 C2160 1.378 . S
C2168 C2163 1.350 . S
C2169 H2156 0.929 . S
C2169 C2161 1.433 . S
C2169 N2171 1.384 . S
N2170 C2166 1.427 . S
N2170 C2167 1.384 . S
N2171 C2163 1.427 . S
N2171 C2169 1.384 . S
H2172 C2178 0.930 . S
H2173 C2182 0.930 . S
H2174 C2187 0.929 . S
H2175 C2185 0.929 . S
H2176 C2180 0.929 . S
H2177 C2186 0.929 . S
C2178 H2172 0.930 . S
C2178 C2179 1.367 . S
C2178 C2186 1.378 . S
C2179 C2178 1.367 . S
C2179 C2187 1.433 . S
C2180 H2176 0.929 . S
C2180 C2182 1.378 . S
C2180 C2184 1.350 . S
C2181 C2184 1.463 . S
C2181 C2186 1.350 . S
C2181 N2189 1.427 . S
C2182 H2173 0.930 . S
C2182 C2180 1.378 . S
C2182 C2183 1.367 . S
C2183 C2182 1.367 . S
C2183 C2185 1.433 . S
C2184 C2180 1.350 . S
C2184 C2181 1.463 . S
C2184 N2188 1.427 . S
C2185 H2175 0.929 . S
C2185 C2183 1.433 . S
C2185 N2188 1.384 . S
C2186 H2177 0.929 . S
C2186 C2178 1.378 . S
C2186 C2181 1.350 . S
C2187 H2174 0.929 . S
C2187 C2179 1.433 . S
C2187 N2189 1.384 . S
N2188 C2184 1.427 . S
N2188 C2185 1.384 . S
N2189 C2181 1.427 . S
N2189 C2187 1.384 . S
H2190 C2196 0.930 . S
H2191 C2200 0.930 . S
H2192 C2205 0.929 . S
H2193 C2203 0.929 . S
H2194 C2198 0.929 . S
H2195 C2204 0.929 . S
C2196 H2190 0.930 . S
C2196 C2197 1.367 . S
C2196 C2204 1.378 . S
C2197 C2196 1.367 . S
C2197 C2205 1.433 . S
C2198 H2194 0.929 . S
C2198 C2200 1.378 . S
C2198 C2202 1.350 . S
C2199 C2202 1.463 . S
C2199 C2204 1.350 . S
C2199 N2207 1.427 . S
C2200 H2191 0.930 . S
C2200 C2198 1.378 . S
C2200 C2201 1.367 . S
C2201 C2200 1.367 . S
C2201 C2203 1.433 . S
C2202 C2198 1.350 . S
C2202 C2199 1.463 . S
C2202 N2206 1.427 . S
C2203 H2193 0.929 . S
C2203 C2201 1.433 . S
C2203 N2206 1.384 . S
C2204 H2195 0.929 . S
C2204 C2196 1.378 . S
C2204 C2199 1.350 . S
C2205 H2192 0.929 . S
C2205 C2197 1.433 . S
C2205 N2207 1.384 . S
N2206 C2202 1.427 . S
N2206 C2203 1.384 . S
N2207 C2199 1.427 . S
N2207 C2205 1.384 . S
H2208 C2214 0.930 . S
H2209 C2218 0.930 . S
H2210 C2223 0.929 . S
H2211 C2221 0.929 . S
H2212 C2216 0.929 . S
H2213 C2222 0.929 . S
C2214 H2208 0.930 . S
C2214 C2215 1.367 . S
C2214 C2222 1.378 . S
C2215 C2214 1.367 . S
C2215 C2223 1.433 . S
C2216 H2212 0.929 . S
C2216 C2218 1.378 . S
C2216 C2220 1.350 . S
C2217 C2220 1.463 . S
C2217 C2222 1.350 . S
C2217 N2225 1.427 . S
C2218 H2209 0.930 . S
C2218 C2216 1.378 . S
C2218 C2219 1.367 . S
C2219 C2218 1.367 . S
C2219 C2221 1.433 . S
C2220 C2216 1.350 . S
C2220 C2217 1.463 . S
C2220 N2224 1.427 . S
C2221 H2211 0.929 . S
C2221 C2219 1.433 . S
C2221 N2224 1.384 . S
C2222 H2213 0.929 . S
C2222 C2214 1.378 . S
C2222 C2217 1.350 . S
C2223 H2210 0.929 . S
C2223 C2215 1.433 . S
C2223 N2225 1.384 . S
N2224 C2220 1.427 . S
N2224 C2221 1.384 . S
N2225 C2217 1.427 . S
N2225 C2223 1.384 . S
H2226 C2232 0.930 . S
H2227 C2236 0.930 . S
H2228 C2241 0.929 . S
H2229 C2239 0.929 . S
H2230 C2234 0.929 . S
H2231 C2240 0.929 . S
C2232 H2226 0.930 . S
C2232 C2233 1.367 . S
C2232 C2240 1.378 . S
C2233 C2232 1.367 . S
C2233 C2241 1.433 . S
C2234 H2230 0.929 . S
C2234 C2236 1.378 . S
C2234 C2238 1.350 . S
C2235 C2238 1.463 . S
C2235 C2240 1.350 . S
C2235 N2243 1.427 . S
C2236 H2227 0.930 . S
C2236 C2234 1.378 . S
C2236 C2237 1.367 . S
C2237 C2236 1.367 . S
C2237 C2239 1.433 . S
C2238 C2234 1.350 . S
C2238 C2235 1.463 . S
C2238 N2242 1.427 . S
C2239 H2229 0.929 . S
C2239 C2237 1.433 . S
C2239 N2242 1.384 . S
C2240 H2231 0.929 . S
C2240 C2232 1.378 . S
C2240 C2235 1.350 . S
C2241 H2228 0.929 . S
C2241 C2233 1.433 . S
C2241 N2243 1.384 . S
N2242 C2238 1.427 . S
N2242 C2239 1.384 . S
N2243 C2235 1.427 . S
N2243 C2241 1.384 . S
H2244 C2250 0.930 . S
H2245 C2254 0.930 . S
H2246 C2259 0.929 . S
H2247 C2257 0.929 . S
H2248 C2252 0.929 . S
H2249 C2258 0.929 . S
C2250 H2244 0.930 . S
C2250 C2251 1.367 . S
C2250 C2258 1.378 . S
C2251 C2250 1.367 . S
C2251 C2259 1.433 . S
C2252 H2248 0.929 . S
C2252 C2254 1.378 . S
C2252 C2256 1.350 . S
C2253 C2256 1.463 . S
C2253 C2258 1.350 . S
C2253 N2261 1.427 . S
C2254 H2245 0.930 . S
C2254 C2252 1.378 . S
C2254 C2255 1.367 . S
C2255 C2254 1.367 . S
C2255 C2257 1.433 . S
C2256 C2252 1.350 . S
C2256 C2253 1.463 . S
C2256 N2260 1.427 . S
C2257 H2247 0.929 . S
C2257 C2255 1.433 . S
C2257 N2260 1.384 . S
C2258 H2249 0.929 . S
C2258 C2250 1.378 . S
C2258 C2253 1.350 . S
C2259 H2246 0.929 . S
C2259 C2251 1.433 . S
C2259 N2261 1.384 . S
N2260 C2256 1.427 . S
N2260 C2257 1.384 . S
N2261 C2253 1.427 . S
N2261 C2259 1.384 . S
H2262 C2268 0.930 . S
H2263 C2272 0.930 . S
H2264 C2277 0.929 . S
H2265 C2275 0.929 . S
H2266 C2270 0.929 . S
H2267 C2276 0.929 . S
C2268 H2262 0.930 . S
C2268 C2269 1.367 . S
C2268 C2276 1.378 . S
C2269 C2268 1.367 . S
C2269 C2277 1.433 . S
C2270 H2266 0.929 . S
C2270 C2272 1.378 . S
C2270 C2274 1.350 . S
C2271 C2274 1.463 . S
C2271 C2276 1.350 . S
C2271 N2279 1.427 . S
C2272 H2263 0.930 . S
C2272 C2270 1.378 . S
C2272 C2273 1.367 . S
C2273 C2272 1.367 . S
C2273 C2275 1.433 . S
C2274 C2270 1.350 . S
C2274 C2271 1.463 . S
C2274 N2278 1.427 . S
C2275 H2265 0.929 . S
C2275 C2273 1.433 . S
C2275 N2278 1.384 . S
C2276 H2267 0.929 . S
C2276 C2268 1.378 . S
C2276 C2271 1.350 . S
C2277 H2264 0.929 . S
C2277 C2269 1.433 . S
C2277 N2279 1.384 . S
N2278 C2274 1.427 . S
N2278 C2275 1.384 . S
N2279 C2271 1.427 . S
N2279 C2277 1.384 . S
H2280 C2286 0.930 . S
H2281 C2290 0.930 . S
H2282 C2295 0.929 . S
H2283 C2293 0.929 . S
H2284 C2288 0.929 . S
H2285 C2294 0.929 . S
C2286 H2280 0.930 . S
C2286 C2287 1.367 . S
C2286 C2294 1.378 . S
C2287 C2286 1.367 . S
C2287 C2295 1.433 . S
C2288 H2284 0.929 . S
C2288 C2290 1.378 . S
C2288 C2292 1.350 . S
C2289 C2292 1.463 . S
C2289 C2294 1.350 . S
C2289 N2297 1.427 . S
C2290 H2281 0.930 . S
C2290 C2288 1.378 . S
C2290 C2291 1.367 . S
C2291 C2290 1.367 . S
C2291 C2293 1.433 . S
C2292 C2288 1.350 . S
C2292 C2289 1.463 . S
C2292 N2296 1.427 . S
C2293 H2283 0.929 . S
C2293 C2291 1.433 . S
C2293 N2296 1.384 . S
C2294 H2285 0.929 . S
C2294 C2286 1.378 . S
C2294 C2289 1.350 . S
C2295 H2282 0.929 . S
C2295 C2287 1.433 . S
C2295 N2297 1.384 . S
N2296 C2292 1.427 . S
N2296 C2293 1.384 . S
N2297 C2289 1.427 . S
N2297 C2295 1.384 . S
H2298 C2304 0.930 . S
H2299 C2308 0.930 . S
H2300 C2313 0.929 . S
H2301 C2311 0.929 . S
H2302 C2306 0.929 . S
H2303 C2312 0.929 . S
C2304 H2298 0.930 . S
C2304 C2305 1.367 . S
C2304 C2312 1.378 . S
C2305 C2304 1.367 . S
C2305 C2313 1.433 . S
C2306 H2302 0.929 . S
C2306 C2308 1.378 . S
C2306 C2310 1.350 . S
C2307 C2310 1.463 . S
C2307 C2312 1.350 . S
C2307 N2315 1.427 . S
C2308 H2299 0.930 . S
C2308 C2306 1.378 . S
C2308 C2309 1.367 . S
C2309 C2308 1.367 . S
C2309 C2311 1.433 . S
C2310 C2306 1.350 . S
C2310 C2307 1.463 . S
C2310 N2314 1.427 . S
C2311 H2301 0.929 . S
C2311 C2309 1.433 . S
C2311 N2314 1.384 . S
C2312 H2303 0.929 . S
C2312 C2304 1.378 . S
C2312 C2307 1.350 . S
C2313 H2300 0.929 . S
C2313 C2305 1.433 . S
C2313 N2315 1.384 . S
N2314 C2310 1.427 . S
N2314 C2311 1.384 . S
N2315 C2307 1.427 . S
N2315 C2313 1.384 . S
H2316 C2322 0.930 . S
H2317 C2326 0.930 . S
H2318 C2331 0.929 . S
H2319 C2329 0.929 . S
H2320 C2324 0.929 . S
H2321 C2330 0.929 . S
C2322 H2316 0.930 . S
C2322 C2323 1.367 . S
C2322 C2330 1.378 . S
C2323 C2322 1.367 . S
C2323 C2331 1.433 . S
C2324 H2320 0.929 . S
C2324 C2326 1.378 . S
C2324 C2328 1.350 . S
C2325 C2328 1.463 . S
C2325 C2330 1.350 . S
C2325 N2333 1.427 . S
C2326 H2317 0.930 . S
C2326 C2324 1.378 . S
C2326 C2327 1.367 . S
C2327 C2326 1.367 . S
C2327 C2329 1.433 . S
C2328 C2324 1.350 . S
C2328 C2325 1.463 . S
C2328 N2332 1.427 . S
C2329 H2319 0.929 . S
C2329 C2327 1.433 . S
C2329 N2332 1.384 . S
C2330 H2321 0.929 . S
C2330 C2322 1.378 . S
C2330 C2325 1.350 . S
C2331 H2318 0.929 . S
C2331 C2323 1.433 . S
C2331 N2333 1.384 . S
N2332 C2328 1.427 . S
N2332 C2329 1.384 . S
N2333 C2325 1.427 . S
N2333 C2331 1.384 . S
H2334 C2340 0.930 . S
H2335 C2344 0.930 . S
H2336 C2349 0.929 . S
H2337 C2347 0.929 . S
H2338 C2342 0.929 . S
H2339 C2348 0.929 . S
C2340 H2334 0.930 . S
C2340 C2341 1.367 . S
C2340 C2348 1.378 . S
C2341 C2340 1.367 . S
C2341 C2349 1.433 . S
C2342 H2338 0.929 . S
C2342 C2344 1.378 . S
C2342 C2346 1.350 . S
C2343 C2346 1.463 . S
C2343 C2348 1.350 . S
C2343 N2351 1.427 . S
C2344 H2335 0.930 . S
C2344 C2342 1.378 . S
C2344 C2345 1.367 . S
C2345 C2344 1.367 . S
C2345 C2347 1.433 . S
C2346 C2342 1.350 . S
C2346 C2343 1.463 . S
C2346 N2350 1.427 . S
C2347 H2337 0.929 . S
C2347 C2345 1.433 . S
C2347 N2350 1.384 . S
C2348 H2339 0.929 . S
C2348 C2340 1.378 . S
C2348 C2343 1.350 . S
C2349 H2336 0.929 . S
C2349 C2341 1.433 . S
C2349 N2351 1.384 . S
N2350 C2346 1.427 . S
N2350 C2347 1.384 . S
N2351 C2343 1.427 . S
N2351 C2349 1.384 . S
H2352 C2358 0.930 . S
H2353 C2362 0.930 . S
H2354 C2367 0.929 . S
H2355 C2365 0.929 . S
H2356 C2360 0.929 . S
H2357 C2366 0.929 . S
C2358 H2352 0.930 . S
C2358 C2359 1.367 . S
C2358 C2366 1.378 . S
C2359 C2358 1.367 . S
C2359 C2367 1.433 . S
C2360 H2356 0.929 . S
C2360 C2362 1.378 . S
C2360 C2364 1.350 . S
C2361 C2364 1.463 . S
C2361 C2366 1.350 . S
C2361 N2369 1.427 . S
C2362 H2353 0.930 . S
C2362 C2360 1.378 . S
C2362 C2363 1.367 . S
C2363 C2362 1.367 . S
C2363 C2365 1.433 . S
C2364 C2360 1.350 . S
C2364 C2361 1.463 . S
C2364 N2368 1.427 . S
C2365 H2355 0.929 . S
C2365 C2363 1.433 . S
C2365 N2368 1.384 . S
C2366 H2357 0.929 . S
C2366 C2358 1.378 . S
C2366 C2361 1.350 . S
C2367 H2354 0.929 . S
C2367 C2359 1.433 . S
C2367 N2369 1.384 . S
N2368 C2364 1.427 . S
N2368 C2365 1.384 . S
N2369 C2361 1.427 . S
N2369 C2367 1.384 . S
H2370 C2376 0.930 . S
H2371 C2380 0.930 . S
H2372 C2385 0.929 . S
H2373 C2383 0.929 . S
H2374 C2378 0.929 . S
H2375 C2384 0.929 . S
C2376 H2370 0.930 . S
C2376 C2377 1.367 . S
C2376 C2384 1.378 . S
C2377 C2376 1.367 . S
C2377 C2385 1.433 . S
C2378 H2374 0.929 . S
C2378 C2380 1.378 . S
C2378 C2382 1.350 . S
C2379 C2382 1.463 . S
C2379 C2384 1.350 . S
C2379 N2387 1.427 . S
C2380 H2371 0.930 . S
C2380 C2378 1.378 . S
C2380 C2381 1.367 . S
C2381 C2380 1.367 . S
C2381 C2383 1.433 . S
C2382 C2378 1.350 . S
C2382 C2379 1.463 . S
C2382 N2386 1.427 . S
C2383 H2373 0.929 . S
C2383 C2381 1.433 . S
C2383 N2386 1.384 . S
C2384 H2375 0.929 . S
C2384 C2376 1.378 . S
C2384 C2379 1.350 . S
C2385 H2372 0.929 . S
C2385 C2377 1.433 . S
C2385 N2387 1.384 . S
N2386 C2382 1.427 . S
N2386 C2383 1.384 . S
N2387 C2379 1.427 . S
N2387 C2385 1.384 . S
H2388 C2394 0.930 . S
H2389 C2398 0.930 . S
H2390 C2403 0.929 . S
H2391 C2401 0.929 . S
H2392 C2396 0.929 . S
H2393 C2402 0.929 . S
C2394 H2388 0.930 . S
C2394 C2395 1.367 . S
C2394 C2402 1.378 . S
C2395 C2394 1.367 . S
C2395 C2403 1.433 . S
C2396 H2392 0.929 . S
C2396 C2398 1.378 . S
C2396 C2400 1.350 . S
C2397 C2400 1.463 . S
C2397 C2402 1.350 . S
C2397 N2405 1.427 . S
C2398 H2389 0.930 . S
C2398 C2396 1.378 . S
C2398 C2399 1.367 . S
C2399 C2398 1.367 . S
C2399 C2401 1.433 . S
C2400 C2396 1.350 . S
C2400 C2397 1.463 . S
C2400 N2404 1.427 . S
C2401 H2391 0.929 . S
C2401 C2399 1.433 . S
C2401 N2404 1.384 . S
C2402 H2393 0.929 . S
C2402 C2394 1.378 . S
C2402 C2397 1.350 . S
C2403 H2390 0.929 . S
C2403 C2395 1.433 . S
C2403 N2405 1.384 . S
N2404 C2400 1.427 . S
N2404 C2401 1.384 . S
N2405 C2397 1.427 . S
N2405 C2403 1.384 . S
H2406 C2412 0.930 . S
H2407 C2416 0.930 . S
H2408 C2421 0.929 . S
H2409 C2419 0.929 . S
H2410 C2414 0.929 . S
H2411 C2420 0.929 . S
C2412 H2406 0.930 . S
C2412 C2413 1.367 . S
C2412 C2420 1.378 . S
C2413 C2412 1.367 . S
C2413 C2421 1.433 . S
C2414 H2410 0.929 . S
C2414 C2416 1.378 . S
C2414 C2418 1.350 . S
C2415 C2418 1.463 . S
C2415 C2420 1.350 . S
C2415 N2423 1.427 . S
C2416 H2407 0.930 . S
C2416 C2414 1.378 . S
C2416 C2417 1.367 . S
C2417 C2416 1.367 . S
C2417 C2419 1.433 . S
C2418 C2414 1.350 . S
C2418 C2415 1.463 . S
C2418 N2422 1.427 . S
C2419 H2409 0.929 . S
C2419 C2417 1.433 . S
C2419 N2422 1.384 . S
C2420 H2411 0.929 . S
C2420 C2412 1.378 . S
C2420 C2415 1.350 . S
C2421 H2408 0.929 . S
C2421 C2413 1.433 . S
C2421 N2423 1.384 . S
N2422 C2418 1.427 . S
N2422 C2419 1.384 . S
N2423 C2415 1.427 . S
N2423 C2421 1.384 . S
H2424 C2430 0.930 . S
H2425 C2434 0.930 . S
H2426 C2439 0.929 . S
H2427 C2437 0.929 . S
H2428 C2432 0.929 . S
H2429 C2438 0.929 . S
C2430 H2424 0.930 . S
C2430 C2431 1.367 . S
C2430 C2438 1.378 . S
C2431 C2430 1.367 . S
C2431 C2439 1.433 . S
C2432 H2428 0.929 . S
C2432 C2434 1.378 . S
C2432 C2436 1.350 . S
C2433 C2436 1.463 . S
C2433 C2438 1.350 . S
C2433 N2441 1.427 . S
C2434 H2425 0.930 . S
C2434 C2432 1.378 . S
C2434 C2435 1.367 . S
C2435 C2434 1.367 . S
C2435 C2437 1.433 . S
C2436 C2432 1.350 . S
C2436 C2433 1.463 . S
C2436 N2440 1.427 . S
C2437 H2427 0.929 . S
C2437 C2435 1.433 . S
C2437 N2440 1.384 . S
C2438 H2429 0.929 . S
C2438 C2430 1.378 . S
C2438 C2433 1.350 . S
C2439 H2426 0.929 . S
C2439 C2431 1.433 . S
C2439 N2441 1.384 . S
N2440 C2436 1.427 . S
N2440 C2437 1.384 . S
N2441 C2433 1.427 . S
N2441 C2439 1.384 . S
H2442 C2448 0.930 . S
H2443 C2452 0.930 . S
H2444 C2457 0.929 . S
H2445 C2455 0.929 . S
H2446 C2450 0.929 . S
H2447 C2456 0.929 . S
C2448 H2442 0.930 . S
C2448 C2449 1.367 . S
C2448 C2456 1.378 . S
C2449 C2448 1.367 . S
C2449 C2457 1.433 . S
C2450 H2446 0.929 . S
C2450 C2452 1.378 . S
C2450 C2454 1.350 . S
C2451 C2454 1.463 . S
C2451 C2456 1.350 . S
C2451 N2459 1.427 . S
C2452 H2443 0.930 . S
C2452 C2450 1.378 . S
C2452 C2453 1.367 . S
C2453 C2452 1.367 . S
C2453 C2455 1.433 . S
C2454 C2450 1.350 . S
C2454 C2451 1.463 . S
C2454 N2458 1.427 . S
C2455 H2445 0.929 . S
C2455 C2453 1.433 . S
C2455 N2458 1.384 . S
C2456 H2447 0.929 . S
C2456 C2448 1.378 . S
C2456 C2451 1.350 . S
C2457 H2444 0.929 . S
C2457 C2449 1.433 . S
C2457 N2459 1.384 . S
N2458 C2454 1.427 . S
N2458 C2455 1.384 . S
N2459 C2451 1.427 . S
N2459 C2457 1.384 . S
H2460 C2466 0.930 . S
H2461 C2470 0.930 . S
H2462 C2475 0.929 . S
H2463 C2473 0.929 . S
H2464 C2468 0.929 . S
H2465 C2474 0.929 . S
C2466 H2460 0.930 . S
C2466 C2467 1.367 . S
C2466 C2474 1.378 . S
C2467 C2466 1.367 . S
C2467 C2475 1.433 . S
C2468 H2464 0.929 . S
C2468 C2470 1.378 . S
C2468 C2472 1.350 . S
C2469 C2472 1.463 . S
C2469 C2474 1.350 . S
C2469 N2477 1.427 . S
C2470 H2461 0.930 . S
C2470 C2468 1.378 . S
C2470 C2471 1.367 . S
C2471 C2470 1.367 . S
C2471 C2473 1.433 . S
C2472 C2468 1.350 . S
C2472 C2469 1.463 . S
C2472 N2476 1.427 . S
C2473 H2463 0.929 . S
C2473 C2471 1.433 . S
C2473 N2476 1.384 . S
C2474 H2465 0.929 . S
C2474 C2466 1.378 . S
C2474 C2469 1.350 . S
C2475 H2462 0.929 . S
C2475 C2467 1.433 . S
C2475 N2477 1.384 . S
N2476 C2472 1.427 . S
N2476 C2473 1.384 . S
N2477 C2469 1.427 . S
N2477 C2475 1.384 . S
H2478 C2484 0.930 . S
H2479 C2488 0.930 . S
H2480 C2493 0.929 . S
H2481 C2491 0.929 . S
H2482 C2486 0.929 . S
H2483 C2492 0.929 . S
C2484 H2478 0.930 . S
C2484 C2485 1.367 . S
C2484 C2492 1.378 . S
C2485 C2484 1.367 . S
C2485 C2493 1.433 . S
C2486 H2482 0.929 . S
C2486 C2488 1.378 . S
C2486 C2490 1.350 . S
C2487 C2490 1.463 . S
C2487 C2492 1.350 . S
C2487 N2495 1.427 . S
C2488 H2479 0.930 . S
C2488 C2486 1.378 . S
C2488 C2489 1.367 . S
C2489 C2488 1.367 . S
C2489 C2491 1.433 . S
C2490 C2486 1.350 . S
C2490 C2487 1.463 . S
C2490 N2494 1.427 . S
C2491 H2481 0.929 . S
C2491 C2489 1.433 . S
C2491 N2494 1.384 . S
C2492 H2483 0.929 . S
C2492 C2484 1.378 . S
C2492 C2487 1.350 . S
C2493 H2480 0.929 . S
C2493 C2485 1.433 . S
C2493 N2495 1.384 . S
N2494 C2490 1.427 . S
N2494 C2491 1.384 . S
N2495 C2487 1.427 . S
N2495 C2493 1.384 . S
H2496 C2502 0.930 . S
H2497 C2506 0.930 . S
H2498 C2511 0.929 . S
H2499 C2509 0.929 . S
H2500 C2504 0.929 . S
H2501 C2510 0.929 . S
C2502 H2496 0.930 . S
C2502 C2503 1.367 . S
C2502 C2510 1.378 . S
C2503 C2502 1.367 . S
C2503 C2511 1.433 . S
C2504 H2500 0.929 . S
C2504 C2506 1.378 . S
C2504 C2508 1.350 . S
C2505 C2508 1.463 . S
C2505 C2510 1.350 . S
C2505 N2513 1.427 . S
C2506 H2497 0.930 . S
C2506 C2504 1.378 . S
C2506 C2507 1.367 . S
C2507 C2506 1.367 . S
C2507 C2509 1.433 . S
C2508 C2504 1.350 . S
C2508 C2505 1.463 . S
C2508 N2512 1.427 . S
C2509 H2499 0.929 . S
C2509 C2507 1.433 . S
C2509 N2512 1.384 . S
C2510 H2501 0.929 . S
C2510 C2502 1.378 . S
C2510 C2505 1.350 . S
C2511 H2498 0.929 . S
C2511 C2503 1.433 . S
C2511 N2513 1.384 . S
N2512 C2508 1.427 . S
N2512 C2509 1.384 . S
N2513 C2505 1.427 . S
N2513 C2511 1.384 . S
H2514 C2520 0.930 . S
H2515 C2524 0.930 . S
H2516 C2529 0.929 . S
H2517 C2527 0.929 . S
H2518 C2522 0.929 . S
H2519 C2528 0.929 . S
C2520 H2514 0.930 . S
C2520 C2521 1.367 . S
C2520 C2528 1.378 . S
C2521 C2520 1.367 . S
C2521 C2529 1.433 . S
C2522 H2518 0.929 . S
C2522 C2524 1.378 . S
C2522 C2526 1.350 . S
C2523 C2526 1.463 . S
C2523 C2528 1.350 . S
C2523 N2531 1.427 . S
C2524 H2515 0.930 . S
C2524 C2522 1.378 . S
C2524 C2525 1.367 . S
C2525 C2524 1.367 . S
C2525 C2527 1.433 . S
C2526 C2522 1.350 . S
C2526 C2523 1.463 . S
C2526 N2530 1.427 . S
C2527 H2517 0.929 . S
C2527 C2525 1.433 . S
C2527 N2530 1.384 . S
C2528 H2519 0.929 . S
C2528 C2520 1.378 . S
C2528 C2523 1.350 . S
C2529 H2516 0.929 . S
C2529 C2521 1.433 . S
C2529 N2531 1.384 . S
N2530 C2526 1.427 . S
N2530 C2527 1.384 . S
N2531 C2523 1.427 . S
N2531 C2529 1.384 . S
H2532 C2538 0.930 . S
H2533 C2542 0.930 . S
H2534 C2547 0.929 . S
H2535 C2545 0.929 . S
H2536 C2540 0.929 . S
H2537 C2546 0.929 . S
C2538 H2532 0.930 . S
C2538 C2539 1.367 . S
C2538 C2546 1.378 . S
C2539 C2538 1.367 . S
C2539 C2547 1.433 . S
C2540 H2536 0.929 . S
C2540 C2542 1.378 . S
C2540 C2544 1.350 . S
C2541 C2544 1.463 . S
C2541 C2546 1.350 . S
C2541 N2549 1.427 . S
C2542 H2533 0.930 . S
C2542 C2540 1.378 . S
C2542 C2543 1.367 . S
C2543 C2542 1.367 . S
C2543 C2545 1.433 . S
C2544 C2540 1.350 . S
C2544 C2541 1.463 . S
C2544 N2548 1.427 . S
C2545 H2535 0.929 . S
C2545 C2543 1.433 . S
C2545 N2548 1.384 . S
C2546 H2537 0.929 . S
C2546 C2538 1.378 . S
C2546 C2541 1.350 . S
C2547 H2534 0.929 . S
C2547 C2539 1.433 . S
C2547 N2549 1.384 . S
N2548 C2544 1.427 . S
N2548 C2545 1.384 . S
N2549 C2541 1.427 . S
N2549 C2547 1.384 . S
H2550 C2556 0.930 . S
H2551 C2560 0.930 . S
H2552 C2565 0.929 . S
H2553 C2563 0.929 . S
H2554 C2558 0.929 . S
H2555 C2564 0.929 . S
C2556 H2550 0.930 . S
C2556 C2557 1.367 . S
C2556 C2564 1.378 . S
C2557 C2556 1.367 . S
C2557 C2565 1.433 . S
C2558 H2554 0.929 . S
C2558 C2560 1.378 . S
C2558 C2562 1.350 . S
C2559 C2562 1.463 . S
C2559 C2564 1.350 . S
C2559 N2567 1.427 . S
C2560 H2551 0.930 . S
C2560 C2558 1.378 . S
C2560 C2561 1.367 . S
C2561 C2560 1.367 . S
C2561 C2563 1.433 . S
C2562 C2558 1.350 . S
C2562 C2559 1.463 . S
C2562 N2566 1.427 . S
C2563 H2553 0.929 . S
C2563 C2561 1.433 . S
C2563 N2566 1.384 . S
C2564 H2555 0.929 . S
C2564 C2556 1.378 . S
C2564 C2559 1.350 . S
C2565 H2552 0.929 . S
C2565 C2557 1.433 . S
C2565 N2567 1.384 . S
N2566 C2562 1.427 . S
N2566 C2563 1.384 . S
N2567 C2559 1.427 . S
N2567 C2565 1.384 . S
C851 N300 1.475 . S
C847 C5 1.511 . S
C869 C327 1.585 . S
C865 C16 1.588 . S
C883 C23 1.524 . S
C887 C341 1.522 . S
C905 N359 1.449 . S
C901 C34 1.478 . S
C919 C43 1.570 . S
C923 C364 1.570 . S
C937 C50 1.508 . S
C941 C304 1.503 . S
C955 C58 1.423 . S
C959 N323 1.385 . S
C977 N336 1.460 . S
C973 C68 1.493 . S
C995 N382 1.417 . S
C991 C4 1.448 . S
C1009 C13 1.536 . S
C1013 N405 1.513 . S
C1027 C25 1.549 . S
C1031 N428 1.535 . S
C1049 N461 1.407 . S
C1045 C32 1.455 . S
C1063 C41 1.551 . S
C1067 C488 1.542 . S
C1085 C511 1.569 . S
C1081 C52 1.575 . S
C1099 C61 1.488 . S
C1103 C534 1.488 . S
C1121 C548 1.446 . S
C1117 C67 1.446 . S
C1135 C7 1.452 . S
C1139 C465 1.447 . S
C1153 C40 1.491 . S
C1157 N507 1.456 . S
C1175 N530 1.441 . S
C1171 C49 1.484 . S
C1189 C59 1.473 . S
C1193 N543 1.442 . S
C1211 N484 1.426 . S
C1207 C70 1.461 . S
C1229 C410 1.663 . S
C1225 C22 1.664 . S
C1243 C31 1.501 . S
C1247 C433 1.494 . S
C1265 C387 1.593 . S
C1261 C14 1.595 . S
C1283 C580 1.466 . S
C1279 C77 1.470 . S
C1297 C88 1.594 . S
C1301 C594 1.594 . S
C1315 C95 1.506 . S
C1319 N622 1.459 . S
C1337 N635 1.431 . S
C1333 C106 1.464 . S
C1351 C115 1.579 . S
C1355 C640 1.579 . S
C1369 C122 1.490 . S
C1373 N576 1.445 . S
C1387 C130 1.507 . S
C1391 N589 1.481 . S
C1405 C140 1.462 . S
C1409 C626 1.452 . S
C1427 N474 1.412 . S
C1423 C76 1.449 . S
C1441 C85 1.514 . S
C1445 N658 1.477 . S
C1463 N520 1.450 . S
C1459 C97 1.475 . S
C1477 C104 1.501 . S
C1481 C695 1.500 . S
C1495 C113 1.586 . S
C1499 C396 1.581 . S
C1517 C709 1.594 . S
C1513 C124 1.594 . S
C1531 C133 1.530 . S
C1535 C442 1.523 . S
C1553 N727 1.407 . S
C1549 C139 1.444 . S
C1567 C79 1.472 . S
C1571 N691 1.428 . S
C1589 N704 1.485 . S
C1585 C112 1.521 . S
C1603 C121 1.487 . S
C1607 N438 1.438 . S
C1625 C732 1.432 . S
C1621 C131 1.433 . S
C1639 C142 1.442 . S
C1643 N392 1.402 . S
C1657 C94 1.564 . S
C1661 C663 1.564 . S
C1675 C103 1.550 . S
C1679 C525 1.547 . S
C1693 C86 1.588 . S
C1697 C479 1.589 . S
C1711 C149 1.536 . S
C1715 C617 1.535 . S
C1733 C649 1.533 . S
C1729 C160 1.542 . S
C1747 C167 1.480 . S
C1751 N566 1.449 . S
C1765 C178 1.453 . S
C1769 N599 1.411 . S
C1783 C187 1.584 . S
C1787 C603 1.575 . S
C1801 C194 1.551 . S
C1805 N612 1.516 . S
C1823 N645 1.367 . S
C1819 C202 1.399 . S
C1837 C212 1.505 . S
C1841 C571 1.503 . S
C1859 N760 1.432 . S
C1855 C148 1.475 . S
C1873 C157 1.475 . S
C1877 N497 1.432 . S
C1895 N783 1.377 . S
C1891 C169 1.421 . S
C1909 C176 1.478 . S
C1913 N553 1.439 . S
C1927 C185 1.558 . S
C1931 C801 1.558 . S
C1945 C196 1.655 . S
C1949 C419 1.650 . S
C1967 N819 1.373 . S
C1963 C205 1.409 . S
C1981 C211 1.492 . S
C1985 C456 1.494 . S
C2003 C557 1.494 . S
C1999 C151 1.496 . S
C2021 N415 1.498 . S
C2017 C184 1.541 . S
C2035 C193 1.578 . S
C2039 C824 1.577 . S
C2053 C203 1.393 . S
C2057 N451 1.343 . S
C2075 N796 1.477 . S
C2071 C214 1.505 . S
C2093 C502 1.559 . S
C2089 C166 1.558 . S
C2111 C787 1.551 . S
C2107 C175 1.556 . S
C2129 C764 1.561 . S
C2125 C158 1.567 . S
C2143 C221 1.425 . S
C2147 N346 1.394 . S
C2161 C232 1.561 . S
C2165 C373 1.555 . S
C2183 C295 1.551 . S
C2179 C239 1.553 . S
C2201 N313 1.377 . S
C2197 C250 1.413 . S
C2219 C318 1.582 . S
C2215 C259 1.584 . S
C2237 C350 1.507 . S
C2233 C266 1.502 . S
C2255 N369 1.481 . S
C2251 C274 1.515 . S
C2269 C284 1.507 . S
C2273 N290 1.480 . S
C2287 C220 1.393 . S
C2291 N806 1.356 . S
C2309 N714 1.470 . S
C2305 C229 1.502 . S
C2327 C833 1.581 . S
C2323 C241 1.585 . S
C2345 C741 1.373 . S
C2341 C248 1.383 . S
C2359 C257 1.581 . S
C2363 C755 1.578 . S
C2381 C672 1.580 . S
C2377 C268 1.587 . S
C2399 C778 1.625 . S
C2395 C277 1.627 . S
C2413 C283 1.479 . S
C2417 N681 1.437 . S
C2435 N737 1.368 . S
C2431 C223 1.399 . S
C2453 N668 1.461 . S
C2449 C256 1.493 . S
C2471 N773 1.404 . S
C2467 C265 1.435 . S
C2485 C275 1.503 . S
C2489 C686 1.499 . S
C2503 C286 1.439 . S
C2507 N750 1.401 . S
C2521 C238 1.672 . S
C2525 C718 1.667 . S
C2539 C247 1.425 . S
C2543 N829 1.387 . S
C2561 C810 1.540 . S
C2557 C230 1.546 . S
