# Generated by pormake.
# Topology sqc, (4,8)-cn, num edge types: 1
# Building blocks:
#     Node 0, Type 0, BuildingBlock: NAHDIM_clean_linker_0, # of connection points: 4
#     Node 1, Type 0, BuildingBlock: NAHDIM_clean_linker_0, # of connection points: 4
#     Node 2, Type 0, BuildingBlock: NAHDIM_clean_linker_0, # of connection points: 4
#     Node 3, Type 0, BuildingBlock: NAHDIM_clean_linker_0, # of connection points: 4
#     Node 4, Type 0, BuildingBlock: NAHDIM_clean_linker_0, # of connection points: 4
#     Node 5, Type 0, BuildingBlock: NAHDIM_clean_linker_0, # of connection points: 4
#     Node 6, Type 0, BuildingBlock: NAHDIM_clean_linker_0, # of connection points: 4
#     Node 7, Type 0, BuildingBlock: NAHDIM_clean_linker_0, # of connection points: 4
#     Node 8, Type 1, BuildingBlock: VETTIZ_charged_sbu_0, # of connection points: 8
#     Node 9, Type 1, BuildingBlock: VETTIZ_charged_sbu_0, # of connection points: 8
#     Node 10, Type 1, BuildingBlock: VETTIZ_charged_sbu_0, # of connection points: 8
#     Node 11, Type 1, BuildingBlock: VETTIZ_charged_sbu_0, # of connection points: 8
#     Edge 12, Type (0, 1), BuildingBlock: OJICUG_clean_linker_0, # of connection points: 2
#     Edge 13, Type (0, 1), BuildingBlock: OJICUG_clean_linker_0, # of connection points: 2
#     Edge 14, Type (0, 1), BuildingBlock: OJICUG_clean_linker_0, # of connection points: 2
#     Edge 15, Type (0, 1), BuildingBlock: OJICUG_clean_linker_0, # of connection points: 2
#     Edge 16, Type (0, 1), BuildingBlock: OJICUG_clean_linker_0, # of connection points: 2
#     Edge 17, Type (0, 1), BuildingBlock: OJICUG_clean_linker_0, # of connection points: 2
#     Edge 18, Type (0, 1), BuildingBlock: OJICUG_clean_linker_0, # of connection points: 2
#     Edge 19, Type (0, 1), BuildingBlock: OJICUG_clean_linker_0, # of connection points: 2
#     Edge 20, Type (0, 1), BuildingBlock: OJICUG_clean_linker_0, # of connection points: 2
#     Edge 21, Type (0, 1), BuildingBlock: OJICUG_clean_linker_0, # of connection points: 2
#     Edge 22, Type (0, 1), BuildingBlock: OJICUG_clean_linker_0, # of connection points: 2
#     Edge 23, Type (0, 1), BuildingBlock: OJICUG_clean_linker_0, # of connection points: 2
#     Edge 24, Type (0, 1), BuildingBlock: OJICUG_clean_linker_0, # of connection points: 2
#     Edge 25, Type (0, 1), BuildingBlock: OJICUG_clean_linker_0, # of connection points: 2
#     Edge 26, Type (0, 1), BuildingBlock: OJICUG_clean_linker_0, # of connection points: 2
#     Edge 27, Type (0, 1), BuildingBlock: OJICUG_clean_linker_0, # of connection points: 2
#     Edge 28, Type (0, 1), BuildingBlock: OJICUG_clean_linker_0, # of connection points: 2
#     Edge 29, Type (0, 1), BuildingBlock: OJICUG_clean_linker_0, # of connection points: 2
#     Edge 30, Type (0, 1), BuildingBlock: OJICUG_clean_linker_0, # of connection points: 2
#     Edge 31, Type (0, 1), BuildingBlock: OJICUG_clean_linker_0, # of connection points: 2
#     Edge 32, Type (0, 1), BuildingBlock: OJICUG_clean_linker_0, # of connection points: 2
#     Edge 33, Type (0, 1), BuildingBlock: OJICUG_clean_linker_0, # of connection points: 2
#     Edge 34, Type (0, 1), BuildingBlock: OJICUG_clean_linker_0, # of connection points: 2
#     Edge 35, Type (0, 1), BuildingBlock: OJICUG_clean_linker_0, # of connection points: 2
#     Edge 36, Type (0, 1), BuildingBlock: OJICUG_clean_linker_0, # of connection points: 2
#     Edge 37, Type (0, 1), BuildingBlock: OJICUG_clean_linker_0, # of connection points: 2
#     Edge 38, Type (0, 1), BuildingBlock: OJICUG_clean_linker_0, # of connection points: 2
#     Edge 39, Type (0, 1), BuildingBlock: OJICUG_clean_linker_0, # of connection points: 2
#     Edge 40, Type (0, 1), BuildingBlock: OJICUG_clean_linker_0, # of connection points: 2
#     Edge 41, Type (0, 1), BuildingBlock: OJICUG_clean_linker_0, # of connection points: 2
#     Edge 42, Type (0, 1), BuildingBlock: OJICUG_clean_linker_0, # of connection points: 2
#     Edge 43, Type (0, 1), BuildingBlock: OJICUG_clean_linker_0, # of connection points: 2
# Relax obj value: 0.111
# Max RMSD: 0.262
# Mean RMSD: 0.120
data_MOF--net-sqc--node1-VETTIZ_charged_sbu_0--node2-NAHDIM_clean_linker_0--edge1-OJICUG_clean_linker_0
_symmetry_space_group_name_H-M    P1
_symmetry_Int_Tables_number       1
_symmetry_cell_setting            triclinic
loop_
_symmetry_equiv_pos_as_xyz
'x, y, z'
_cell_length_a     25.676848
_cell_length_b     25.660956
_cell_length_c     83.382153
_cell_angle_alpha  89.446151
_cell_angle_beta   89.486326
_cell_angle_gamma 89.98679
loop_
_atom_site_label
_atom_site_type_symbol
_atom_site_fract_x
_atom_site_fract_y
_atom_site_fract_z
_atom_type_partial_charge
C0 C 0.83567 0.94555 0.40582 0.0
C1 C 0.81407 0.91511 0.42028 0.0
C2 C 0.85227 0.94693 0.4446 0.0
C3 C 0.85929 0.90433 0.45494 0.0
C4 C 0.90009 0.90364 0.46607 0.0
C5 C 0.93475 0.94651 0.46672 0.0
C6 C 0.92742 0.98977 0.45627 0.0
C7 C 0.88568 0.9897 0.44548 0.0
C8 C 0.90629 0.85708 0.47707 0.0
C9 C 0.96392 0.03584 0.45639 0.0
C10 C 0.26105 0.76412 0.44849 0.0
C11 C 0.26864 0.82309 0.44739 0.0
C12 C 0.2171 0.86277 0.46784 0.0
C13 C 0.20205 0.91373 0.46418 0.0
C14 C 0.15296 0.93233 0.46889 0.0
C15 C 0.11825 0.8988 0.47734 0.0
C16 C 0.1333 0.84692 0.48089 0.0
C17 C 0.18298 0.8296 0.4762 0.0
C18 C 0.13835 0.98796 0.46497 0.0
C19 C 0.0972 0.81022 0.48982 0.0
C20 C 0.20292 0.06061 0.56872 0.0
C21 C 0.19646 0.08196 0.55324 0.0
C22 C 0.15099 0.07329 0.54455 0.0
C23 C 0.11176 0.04051 0.5511 0.0
C24 C 0.11805 0.01852 0.5666 0.0
C25 C 0.16338 0.02944 0.5753 0.0
C26 C 0.14514 0.09961 0.52836 0.0
C27 C 0.07697 0.9835 0.57395 0.0
C28 C 0.73213 0.24087 0.54161 0.0
C29 C 0.76191 0.19382 0.54823 0.0
C30 C 0.8532 0.16964 0.54588 0.0
C31 C 0.9 0.18684 0.5391 0.0
C32 C 0.94029 0.15173 0.53569 0.0
C33 C 0.93393 0.09833 0.53973 0.0
C34 C 0.88759 0.08109 0.54736 0.0
C35 C 0.84733 0.11683 0.55016 0.0
C36 C 0.98939 0.17174 0.52766 0.0
C37 C 0.88049 0.02491 0.55245 0.0
C38 C 0.97888 0.94592 0.4782 0.0
C39 C 0.02478 0.92021 0.47369 0.0
C40 C 0.06838 0.91988 0.48364 0.0
C41 C 0.06597 0.94434 0.49874 0.0
C42 C 0.10866 0.94329 0.50921 0.0
C43 C 0.10722 0.97004 0.52361 0.0
C44 C 0.06355 0.99991 0.52792 0.0
C45 C 0.06364 0.03111 0.54181 0.0
C46 C 0.01967 0.06043 0.54574 0.0
C47 C 0.97594 0.06083 0.53591 0.0
C48 C 0.97507 0.03005 0.52193 0.0
C49 C 0.93177 0.0298 0.5117 0.0
C50 C 0.93222 0.00091 0.49765 0.0
C51 C 0.97661 0.97253 0.49301 0.0
C52 C 0.02036 0.97165 0.50328 0.0
C53 C 0.01932 0.99987 0.51785 0.0
C54 C 0.33192 0.10519 0.58339 0.0
C55 C 0.29154 0.09208 0.57138 0.0
O56 O 0.81356 0.94691 0.43363 0.0
O57 O 0.81457 0.20497 0.54803 0.0
O58 O 0.24647 0.06948 0.57753 0.0
O59 O 0.26349 0.84474 0.46245 0.0
H60 H 0.84037 0.88114 0.42238 0.0
H61 H 0.87619 0.95822 0.40823 0.0
H62 H 0.81159 0.98068 0.40336 0.0
H63 H 0.83622 0.92059 0.395 0.0
H64 H 0.83256 0.87188 0.45429 0.0
H65 H 0.87966 0.0225 0.43742 0.0
H66 H 0.94267 0.83604 0.47388 0.0
H67 H 0.87306 0.82954 0.47627 0.0
H68 H 0.90979 0.87 0.48969 0.0
H69 H 0.95576 0.06403 0.44653 0.0
H70 H 0.00488 0.02239 0.45525 0.0
H71 H 0.9601 0.0564 0.46799 0.0
H72 H 0.23748 0.8385 0.43938 0.0
H73 H 0.26918 0.74607 0.43667 0.0
H74 H 0.2202 0.75483 0.45192 0.0
H75 H 0.28722 0.74706 0.45767 0.0
H76 H 0.22884 0.9387 0.45757 0.0
H77 H 0.19518 0.79008 0.4789 0.0
H78 H 0.10204 0.98866 0.45784 0.0
H79 H 0.16942 0.00868 0.45809 0.0
H80 H 0.13056 0.00949 0.47623 0.0
H81 H 0.11314 0.77002 0.4906 0.0
H82 H 0.05883 0.80898 0.48379 0.0
H83 H 0.09049 0.82479 0.50217 0.0
H84 H 0.30636 0.07122 0.56056 0.0
H85 H 0.22645 0.1061 0.54784 0.0
H86 H 0.16843 0.01312 0.58722 0.0
H87 H 0.15219 0.07076 0.51876 0.0
H88 H 0.17332 0.13206 0.52661 0.0
H89 H 0.10517 0.11531 0.52685 0.0
H90 H 0.09023 0.9648 0.58527 0.0
H91 H 0.06606 0.95264 0.56536 0.0
H92 H 0.04145 0.00669 0.57657 0.0
H93 H 0.75392 0.16085 0.53998 0.0
H94 H 0.68957 0.23299 0.54173 0.0
H95 H 0.74459 0.24887 0.52904 0.0
H96 H 0.73992 0.27614 0.54884 0.0
H97 H 0.90425 0.22778 0.53603 0.0
H98 H 0.81163 0.10334 0.55577 0.0
H99 H 0.99972 0.14721 0.5172 0.0
H100 H 0.02207 0.16945 0.53626 0.0
H101 H 0.9855 0.21285 0.52354 0.0
H102 H 0.84492 0.01909 0.55994 0.0
H103 H 0.91485 0.01135 0.55934 0.0
H104 H 0.87744 1.00014 0.54167 0.0
H105 H 0.02714 0.90161 0.46207 0.0
H106 H 0.14391 0.92204 0.50636 0.0
H107 H 0.14125 0.96795 0.53116 0.0
H108 H 0.02057 0.08559 0.55613 0.0
H109 H 0.89707 0.05212 0.5144 0.0
H110 H 0.89774 0.00216 0.49028 0.0
H111 H 0.36581 0.07892 0.58055 0.0
H112 H 0.32073 0.08394 0.59481 0.0
H113 H 0.3368 0.18689 0.58177 0.0
C114 C 0.21179 0.97292 0.84136 0.0
C115 C 0.20615 0.01442 0.82801 0.0
C116 C 0.19656 0.95025 0.80614 0.0
C117 C 0.24698 0.92905 0.80619 0.0
C118 C 0.25791 0.88242 0.79808 0.0
C119 C 0.21802 0.85754 0.78937 0.0
C120 C 0.16785 0.88016 0.78876 0.0
C121 C 0.15787 0.92627 0.79715 0.0
C122 C 0.31198 0.85959 0.79882 0.0
C123 C 0.1247 0.85549 0.77929 0.0
C124 C 0.08016 0.51932 0.81741 0.0
C125 C 0.12868 0.49133 0.8107 0.0
C126 C 0.18346 0.56817 0.80429 0.0
C127 C 0.15228 0.58861 0.79197 0.0
C128 C 0.16356 0.63728 0.78495 0.0
C129 C 0.20896 0.66454 0.78956 0.0
C130 C 0.24112 0.64345 0.80169 0.0
C131 C 0.22751 0.59582 0.80901 0.0
C132 C 0.12711 0.65908 0.77246 0.0
C133 C 0.29021 0.6708 0.80678 0.0
C134 C 0.30567 0.56035 0.69416 0.0
C135 C 0.26405 0.59412 0.69083 0.0
C136 C 0.26181 0.64389 0.69768 0.0
C137 C 0.30277 0.66068 0.70766 0.0
C138 C 0.34624 0.62782 0.71021 0.0
C139 C 0.34648 0.57762 0.70371 0.0
C140 C 0.21486 0.67785 0.69466 0.0
C141 C 0.39156 0.64492 0.72029 0.0
C142 C 0.28889 0.0719 0.70028 0.0
C143 C 0.34089 0.04553 0.69643 0.0
C144 C 0.3273 0.95286 0.69331 0.0
C145 C 0.28259 0.92419 0.68999 0.0
C146 C 0.27442 0.87503 0.69707 0.0
C147 C 0.3129 0.85371 0.70727 0.0
C148 C 0.35993 0.88121 0.70973 0.0
C149 C 0.36642 0.93085 0.70281 0.0
C150 C 0.22406 0.84667 0.69403 0.0
C151 C 0.40256 0.8589 0.72007 0.0
C152 C 0.22866 0.80814 0.78074 0.0
C153 C 0.21706 0.76101 0.78858 0.0
C154 C 0.22445 0.71321 0.78094 0.0
C155 C 0.24453 0.71217 0.76509 0.0
C156 C 0.25331 0.66481 0.75716 0.0
C157 C 0.27016 0.66408 0.74129 0.0
C158 C 0.28075 0.71064 0.73285 0.0
C159 C 0.29771 0.7102 0.71665 0.0
C160 C 0.30855 0.75722 0.70869 0.0
C161 C 0.30208 0.80497 0.71642 0.0
C162 C 0.28423 0.80616 0.73252 0.0
C163 C 0.27594 0.85357 0.74052 0.0
C164 C 0.25817 0.85434 0.75633 0.0
C165 C 0.24764 0.80776 0.76475 0.0
C166 C 0.25554 0.75958 0.75691 0.0
C167 C 0.27383 0.75879 0.74078 0.0
C168 C 0.23091 0.46508 0.68094 0.0
C169 C 0.28304 0.48953 0.67572 0.0
O170 O 0.18329 0.99374 0.81442 0.0
O171 O 0.33184 0.00176 0.68724 0.0
O172 O 0.307 0.51025 0.68907 0.0
O173 O 0.17261 0.52247 0.81203 0.0
H174 H 0.24506 0.03059 0.82476 0.0
H175 H 0.24093 0.94291 0.83813 0.0
H176 H 0.17387 0.95331 0.84375 0.0
H177 H 0.22526 0.99117 0.85263 0.0
H178 H 0.27774 0.94869 0.81255 0.0
H179 H 0.11933 0.9435 0.79694 0.0
H180 H 0.31001 0.81909 0.80361 0.0
H181 H 0.33833 0.88272 0.80649 0.0
H182 H 0.32894 0.85775 0.78655 0.0
H183 H 0.08842 0.87902 0.77955 0.0
H184 H 0.11604 0.81608 0.78423 0.0
H185 H 0.1373 0.85073 0.76661 0.0
H186 H 0.12267 0.48132 0.79789 0.0
H187 H 0.0455 0.49352 0.81675 0.0
H188 H 0.07105 0.55525 0.81054 0.0
H189 H 0.08618 0.53024 0.83013 0.0
H190 H 0.11901 0.56703 0.78776 0.0
H191 H 0.25156 0.57963 0.81844 0.0
H192 H 0.1216 0.70167 0.774 0.0
H193 H 0.08848 0.63977 0.77303 0.0
H194 H 0.14385 0.65261 0.76033 0.0
H195 H 0.31347 0.64687 0.81527 0.0
H196 H 0.27989 0.70803 0.81269 0.0
H197 H 0.31476 0.68036 0.79612 0.0
H198 H 0.27538 0.52061 0.66664 0.0
H199 H 0.23232 0.58122 0.6834 0.0
H200 H 0.37862 0.55138 0.70612 0.0
H201 H 0.19735 0.69038 0.70623 0.0
H202 H 0.18458 0.65764 0.6876 0.0
H203 H 0.22716 0.71343 0.68799 0.0
H204 H 0.42603 0.61927 0.71865 0.0
H205 H 0.38001 0.64379 0.73314 0.0
H206 H 0.40279 0.68564 0.71722 0.0
H207 H 0.35939 0.03448 0.70802 0.0
H208 H 0.29513 0.10688 0.70778 0.0
H209 H 0.26328 0.04444 0.70706 0.0
H210 H 0.26884 0.0838 0.68907 0.0
H211 H 0.25312 0.94144 0.68238 0.0
H212 H 0.40184 0.95266 0.70486 0.0
H213 H 0.20478 0.83613 0.70559 0.0
H214 H 0.23251 0.80995 0.68759 0.0
H215 H 0.1966 0.87026 0.68674 0.0
H216 H 0.4395 0.88114 0.71877 0.0
H217 H 0.40994 0.81755 0.71696 0.0
H218 H 0.39009 0.85994 0.73285 0.0
H219 H 0.2013 0.7616 0.80069 0.0
H220 H 0.24662 0.6276 0.76304 0.0
H221 H 0.27482 0.62635 0.73578 0.0
H222 H 0.32165 0.75667 0.69628 0.0
H223 H 0.28288 0.89075 0.73465 0.0
H224 H 0.25251 0.89199 0.76183 0.0
H225 H 0.20834 0.45304 0.6703 0.0
H226 H 0.20692 0.49373 0.68762 0.0
H227 H 0.23745 0.4309 0.68896 0.0
C228 C 0.81337 0.99169 0.06683 0.0
C229 C 0.78989 0.9429 0.07477 0.0
C230 C 0.71901 0.91467 0.0569 0.0
C231 C 0.70572 0.87891 0.04509 0.0
C232 C 0.65696 0.88043 0.03761 0.0
C233 C 0.62062 0.91939 0.04192 0.0
C234 C 0.63313 0.95507 0.05414 0.0
C235 C 0.68223 0.95262 0.06145 0.0
C236 C 0.64501 0.84158 0.02468 0.0
C237 C 0.59529 0.99715 0.05904 0.0
C238 C 0.21543 0.8291 0.0194 0.0
C239 C 0.23744 0.84484 0.03569 0.0
C240 C 0.33237 0.83792 0.03762 0.0
C241 C 0.34377 0.88815 0.04311 0.0
C242 C 0.39367 0.90957 0.04102 0.0
C243 C 0.43288 0.88032 0.03315 0.0
C244 C 0.42269 0.82816 0.02878 0.0
C245 C 0.37252 0.80744 0.03124 0.0
C246 C 0.40367 0.96447 0.04656 0.0
C247 C 0.46402 0.79522 0.02084 0.0
C248 C 0.33657 0.06288 0.94888 0.0
C249 C 0.34793 0.09648 0.96159 0.0
C250 C 0.39558 0.093 0.96964 0.0
C251 C 0.43264 0.05538 0.96481 0.0
C252 C 0.42261 0.02371 0.95139 0.0
C253 C 0.37469 0.02818 0.94351 0.0
C254 C 0.40589 0.12863 0.98356 0.0
C255 C 0.46179 0.98396 0.94574 0.0
C256 C 0.84374 0.13904 0.99199 0.0
C257 C 0.81154 0.12728 0.97709 0.0
C258 C 0.71808 0.14196 0.97481 0.0
C259 C 0.67762 0.16808 0.98263 0.0
C260 C 0.62709 0.1473 0.983 0.0
C261 C 0.61725 0.09963 0.9752 0.0
C262 C 0.6566 0.07657 0.96566 0.0
C263 C 0.70676 0.09805 0.96554 0.0
C264 C 0.58532 0.17399 0.99275 0.0
C265 C 0.64669 0.02697 0.95661 0.0
C266 C 0.57283 0.92722 0.03221 0.0
C267 C 0.5272 0.90032 0.03647 0.0
C268 C 0.48146 0.90676 0.02761 0.0
C269 C 0.48128 0.94034 0.01402 0.0
C270 C 0.43648 0.94665 0.00457 0.0
C271 C 0.43601 0.98119 0.99161 0.0
C272 C 0.4804 0.01066 0.9875 0.0
C273 C 0.48008 0.0466 0.9745 0.0
C274 C 0.52491 0.07529 0.97071 0.0
C275 C 0.57036 0.06887 0.9796 0.0
C276 C 0.57145 0.03304 0.99262 0.0
C277 C 0.61675 0.02555 0.00174 0.0
C278 C 0.61746 0.99056 0.01454 0.0
C279 C 0.57272 0.96199 0.01892 0.0
C280 C 0.52679 0.96864 0.00984 0.0
C281 C 0.52624 0.00404 0.99662 0.0
C282 C 0.22675 0.01429 0.95702 0.0
C283 C 0.24169 0.06692 0.94936 0.0
O284 O 0.76763 0.91126 0.0633 0.0
O285 O 0.7676 0.15871 0.97703 0.0
O286 O 0.28945 0.06277 0.94158 0.0
O287 O 0.28343 0.81768 0.03835 0.0
H288 H 0.75984 0.95555 0.08358 0.0
H289 H 0.78217 0.01527 0.06115 0.0
H290 H 0.84219 0.98107 0.0574 0.0
H291 H 0.83278 0.01612 0.07594 0.0
H292 H 0.73437 0.85033 0.04144 0.0
H293 H 0.69158 0.98124 0.07039 0.0
H294 H 0.60769 0.82143 0.02748 0.0
H295 H 0.67619 0.81187 0.02335 0.0
H296 H 0.64027 0.86235 0.01304 0.0
H297 H 0.60799 0.01788 0.06997 0.0
H298 H 0.5561 0.98015 0.0613 0.0
H299 H 0.59159 0.02603 0.04912 0.0
H300 H 0.24442 0.88754 0.03467 0.0
H301 H 0.17627 0.84652 0.0176 0.0
H302 H 0.21301 0.78604 0.01839 0.0
H303 H 0.24164 0.84352 0.00966 0.0
H304 H 0.31381 0.91105 0.0489 0.0
H305 H 0.3638 0.76808 0.0275 0.0
H306 H 0.44263 0.96743 0.05216 0.0
H307 H 0.37365 0.97766 0.05531 0.0
H308 H 0.40305 0.99136 0.03606 0.0
H309 H 0.45019 0.75504 0.01843 0.0
H310 H 0.49882 0.79284 0.02863 0.0
H311 H 0.47638 0.81374 0.00934 0.0
H312 H 0.24358 0.09504 0.95938 0.0
H313 H 0.31995 0.1256 0.96528 0.0
H314 H 0.366 0.00319 0.93348 0.0
H315 H 0.41005 0.1051 0.99472 0.0
H316 H 0.37419 0.15753 0.98536 0.0
H317 H 0.44309 0.14987 0.98153 0.0
H318 H 0.4495 0.96455 0.93454 0.0
H319 H 0.46715 0.95378 0.95521 0.0
H320 H 0.50013 0.00296 0.94361 0.0
H321 H 0.80066 0.08535 0.97822 0.0
H322 H 0.87997 0.11534 0.99201 0.0
H323 H 0.82079 0.12904 0.00295 0.0
H324 H 0.85421 0.18099 0.9925 0.0
H325 H 0.68645 0.20294 0.98932 0.0
H326 H 0.73741 0.07936 0.95869 0.0
H327 H 0.57645 0.15023 0.00364 0.0
H328 H 0.54895 0.1772 0.9857 0.0
H329 H 0.59733 0.21357 0.99654 0.0
H330 H 0.67835 0.01846 0.94785 0.0
H331 H 0.60914 0.02958 0.95014 0.0
H332 H 0.6438 0.99388 0.96525 0.0
H333 H 0.52713 0.87465 0.04688 0.0
H334 H 0.40108 0.92507 0.00708 0.0
H335 H 0.40025 0.98457 0.9849 0.0
H336 H 0.52443 0.10286 0.96077 0.0
H337 H 0.65236 0.04666 0.99914 0.0
H338 H 0.65358 0.98662 0.02103 0.0
H339 H 0.18627 0.01555 0.96183 0.0
H340 H 0.25332 0.00544 0.96713 0.0
H341 H 0.23042 0.98224 0.94822 0.0
C342 C 0.03814 0.04233 0.18751 0.0
C343 C 0.09594 0.02807 0.18813 0.0
C344 C 0.13857 0.07208 0.20975 0.0
C345 C 0.1843 0.09065 0.2024 0.0
C346 C 0.20894 0.13562 0.20801 0.0
C347 C 0.18702 0.16247 0.22119 0.0
C348 C 0.14142 0.14301 0.22884 0.0
C349 C 0.11817 0.09743 0.22313 0.0
C350 C 0.25811 0.15463 0.19983 0.0
C351 C 0.11672 0.17096 0.24281 0.0
C352 C 0.18126 0.56139 0.17037 0.0
C353 C 0.20479 0.52163 0.18125 0.0
C354 C 0.18636 0.43754 0.19362 0.0
C355 C 0.14742 0.41687 0.20361 0.0
C356 C 0.15788 0.37514 0.21412 0.0
C357 C 0.20818 0.35247 0.21419 0.0
C358 C 0.24745 0.3726 0.20381 0.0
C359 C 0.23626 0.41534 0.19378 0.0
C360 C 0.11506 0.35509 0.22505 0.0
C361 C 0.30085 0.34806 0.20296 0.0
C362 C 0.35579 0.45656 0.30562 0.0
C363 C 0.31064 0.4262 0.30793 0.0
C364 C 0.30518 0.37783 0.30039 0.0
C365 C 0.34529 0.35942 0.29016 0.0
C366 C 0.39079 0.38964 0.28781 0.0
C367 C 0.39526 0.43793 0.29551 0.0
C368 C 0.25592 0.34672 0.30315 0.0
C369 C 0.43421 0.37134 0.27694 0.0
C370 C 0.38238 0.95359 0.28469 0.0
C371 C 0.41707 0.97413 0.29807 0.0
C372 C 0.38488 0.06478 0.30033 0.0
C373 C 0.34777 0.09524 0.30825 0.0
C374 C 0.33479 0.14534 0.30265 0.0
C375 C 0.36075 0.16608 0.28897 0.0
C376 C 0.40087 0.1368 0.28152 0.0
C377 C 0.41201 0.08617 0.28711 0.0
C378 C 0.29189 0.17519 0.31097 0.0
C379 C 0.43078 0.15824 0.26725 0.0
C380 C 0.21136 0.21119 0.22692 0.0
C381 C 0.19993 0.25764 0.21882 0.0
C382 C 0.21882 0.30544 0.22419 0.0
C383 C 0.24858 0.30722 0.23839 0.0
C384 C 0.26467 0.35479 0.24493 0.0
C385 C 0.29364 0.35593 0.25898 0.0
C386 C 0.30871 0.30949 0.26679 0.0
C387 C 0.33751 0.3102 0.28119 0.0
C388 C 0.35492 0.26324 0.28802 0.0
C389 C 0.34176 0.21517 0.28131 0.0
C390 C 0.30934 0.21387 0.26767 0.0
C391 C 0.29154 0.16638 0.26142 0.0
C392 C 0.25942 0.16541 0.24811 0.0
C393 C 0.24432 0.21181 0.24038 0.0
C394 C 0.26232 0.26007 0.24629 0.0
C395 C 0.29378 0.26115 0.26021 0.0
C396 C 0.2883 0.56004 0.31373 0.0
C397 C 0.32933 0.52924 0.32317 0.0
O398 O 0.11283 0.03055 0.20382 0.0
O399 O 0.39271 0.01527 0.30585 0.0
O400 O 0.36284 0.5038 0.31268 0.0
O401 O 0.17424 0.47756 0.18357 0.0
H402 H 0.11655 0.05745 0.18045 0.0
H403 H 0.03271 0.08353 0.19114 0.0
H404 H 0.01526 0.0173 0.19588 0.0
H405 H 0.02305 0.03789 0.17515 0.0
H406 H 0.2005 0.06997 0.19224 0.0
H407 H 0.08294 0.08236 0.22872 0.0
H408 H 0.25067 0.19292 0.19398 0.0
H409 H 0.27245 0.12706 0.1906 0.0
H410 H 0.28914 0.1604 0.20884 0.0
H411 H 0.07987 0.15222 0.2469 0.0
H412 H 0.10848 0.21208 0.23941 0.0
H413 H 0.14413 0.17146 0.25303 0.0
H414 H 0.24667 0.51319 0.17883 0.0
H415 H 0.16564 0.6243 0.18556 0.0
H416 H 0.15 0.54082 0.16344 0.0
H417 H 0.20896 0.56446 0.15985 0.0
H418 H 0.10886 0.43402 0.20329 0.0
H419 H 0.26605 0.43009 0.18567 0.0
H420 H 0.12979 0.34989 0.23745 0.0
H421 H 0.10188 0.31642 0.22083 0.0
H422 H 0.08094 0.38172 0.22533 0.0
H423 H 0.32516 0.36489 0.19311 0.0
H424 H 0.29739 0.30539 0.20114 0.0
H425 H 0.3213 0.35406 0.21446 0.0
H426 H 0.3081 0.50063 0.33089 0.0
H427 H 0.27901 0.4399 0.3154 0.0
H428 H 0.42955 0.46175 0.29349 0.0
H429 H 0.23391 0.3445 0.29178 0.0
H430 H 0.23026 0.36419 0.31245 0.0
H431 H 0.26569 0.30625 0.30688 0.0
H432 H 0.46661 0.39993 0.27608 0.0
H433 H 0.41893 0.36447 0.26473 0.0
H434 H 0.44977 0.33369 0.28151 0.0
H435 H 0.45485 0.98739 0.29286 0.0
H436 H 0.40148 0.92019 0.27862 0.0
H437 H 0.37558 0.98459 0.27557 0.0
H438 H 0.34411 0.94073 0.28964 0.0
H439 H 0.3275 0.07874 0.31857 0.0
H440 H 0.44156 0.06368 0.28098 0.0
H441 H 0.26119 0.18591 0.30223 0.0
H442 H 0.30786 0.2119 0.31585 0.0
H443 H 0.27375 0.15252 0.32096 0.0
H444 H 0.46711 0.13592 0.26493 0.0
H445 H 0.44096 0.1998 0.26912 0.0
H446 H 0.40609 0.15611 0.25642 0.0
H447 H 0.17603 0.25655 0.20816 0.0
H448 H 0.25442 0.39165 0.23938 0.0
H449 H 0.30455 0.3937 0.26354 0.0
H450 H 0.37775 0.26407 0.2989 0.0
H451 H 0.30166 0.12931 0.26685 0.0
H452 H 0.24681 0.12772 0.2439 0.0
H453 H 0.30687 0.58477 0.3043 0.0
H454 H 0.2649 0.58487 0.32193 0.0
H455 H 0.2614 0.53274 0.30772 0.0
C456 C 0.51088 0.4436 0.32327 0.0
C457 C 0.56977 0.45036 0.32093 0.0
C458 C 0.61277 0.39756 0.30083 0.0
C459 C 0.65857 0.38434 0.30899 0.0
C460 C 0.68791 0.34053 0.30455 0.0
C461 C 0.6709 0.30921 0.29174 0.0
C462 C 0.62483 0.32275 0.28344 0.0
C463 C 0.59679 0.36731 0.28797 0.0
C464 C 0.73728 0.32799 0.31347 0.0
C465 C 0.60536 0.29032 0.26974 0.0
C466 C 0.69236 0.91456 0.33437 0.0
C467 C 0.73364 0.9414 0.32473 0.0
C468 C 0.736 0.03556 0.31937 0.0
C469 C 0.70016 0.03743 0.30674 0.0
C470 C 0.69542 0.08259 0.29712 0.0
C471 C 0.72793 0.12606 0.30002 0.0
C472 C 0.76327 0.12431 0.31295 0.0
C473 C 0.76615 0.07936 0.32259 0.0
C474 C 0.65617 0.08379 0.28378 0.0
C475 C 0.7986 0.1697 0.3165 0.0
C476 C 0.8906 0.05043 0.20642 0.0
C477 C 0.84108 0.07281 0.20487 0.0
C478 C 0.82779 0.11808 0.21325 0.0
C479 C 0.86491 0.14148 0.22338 0.0
C480 C 0.91546 0.11998 0.22455 0.0
C481 C 0.92775 0.07474 0.21596 0.0
C482 C 0.77396 0.14088 0.21131 0.0
C483 C 0.95607 0.14431 0.23507 0.0
C484 C 0.884 0.54758 0.23027 0.0
C485 C 0.91214 0.52524 0.21559 0.0
C486 C 0.87662 0.4356 0.21476 0.0
C487 C 0.83938 0.4047 0.2073 0.0
C488 C 0.82827 0.35414 0.21286 0.0
C489 C 0.85576 0.33384 0.22613 0.0
C490 C 0.89506 0.36409 0.23337 0.0
C491 C 0.90491 0.41487 0.22769 0.0
C492 C 0.78618 0.32298 0.20484 0.0
C493 C 0.92591 0.34309 0.24733 0.0
C494 C 0.70301 0.26446 0.28626 0.0
C495 C 0.69869 0.21665 0.29441 0.0
C496 C 0.72692 0.17293 0.28936 0.0
C497 C 0.75796 0.17614 0.27526 0.0
C498 C 0.78355 0.13217 0.26902 0.0
C499 C 0.81309 0.13574 0.25495 0.0
C500 C 0.82045 0.18395 0.24709 0.0
C501 C 0.85005 0.18814 0.23274 0.0
C502 C 0.86139 0.23733 0.22624 0.0
C503 C 0.84109 0.2825 0.23316 0.0
C504 C 0.80672 0.27849 0.24646 0.0
C505 C 0.78133 0.32254 0.25268 0.0
C506 C 0.7469 0.31797 0.26558 0.0
C507 C 0.73774 0.26943 0.27308 0.0
C508 C 0.76416 0.22485 0.26731 0.0
C509 C 0.79729 0.22912 0.25365 0.0
C510 C 0.88181 0.93031 0.21414 0.0
C511 C 0.87363 0.96098 0.19851 0.0
O512 O 0.58325 0.43905 0.30522 0.0
O513 O 0.88326 0.48501 0.20912 0.0
O514 O 0.90373 0.00591 0.19869 0.0
O515 O 0.7423 0.99286 0.32888 0.0
H516 H 0.58745 0.42158 0.32938 0.0
H517 H 0.49987 0.40246 0.32103 0.0
H518 H 0.48888 0.46873 0.31485 0.0
H519 H 0.4993 0.45341 0.33576 0.0
H520 H 0.67173 0.40866 0.31869 0.0
H521 H 0.56159 0.37811 0.28168 0.0
H522 H 0.73205 0.29079 0.32019 0.0
H523 H 0.74776 0.35889 0.32211 0.0
H524 H 0.77014 0.32273 0.30489 0.0
H525 H 0.56591 0.30246 0.2658 0.0
H526 H 0.60417 0.24851 0.27329 0.0
H527 H 0.63261 0.29419 0.25939 0.0
H528 H 0.73434 0.93432 0.31155 0.0
H529 H 0.662 0.90327 0.32538 0.0
H530 H 0.66799 0.94619 0.33997 0.0
H531 H 0.7337 0.85916 0.34799 0.0
H532 H 0.67556 0.00405 0.30451 0.0
H533 H 0.79314 0.07766 0.3325 0.0
H534 H 0.63172 0.11937 0.28468 0.0
H535 H 0.63043 0.04898 0.28401 0.0
H536 H 0.67681 0.08546 0.27203 0.0
H537 H 0.82621 0.16084 0.32634 0.0
H538 H 0.77472 0.20385 0.32 0.0
H539 H 0.82128 0.1808 0.30559 0.0
H540 H 0.8316 0.97082 0.19761 0.0
H541 H 0.81292 0.05547 0.19695 0.0
H542 H 0.96602 0.0574 0.21702 0.0
H543 H 0.75237 0.13788 0.22287 0.0
H544 H 0.75117 0.1206 0.20198 0.0
H545 H 0.77672 0.18286 0.20805 0.0
H546 H 0.9927 0.12131 0.23531 0.0
H547 H 0.94076 0.1478 0.24751 0.0
H548 H 0.96507 0.18425 0.23062 0.0
H549 H 0.95128 0.51069 0.21907 0.0
H550 H 0.90676 0.58029 0.23532 0.0
H551 H 0.87954 0.51722 0.23975 0.0
H552 H 0.84466 0.56195 0.22697 0.0
H553 H 0.81807 0.42093 0.19726 0.0
H554 H 0.93431 0.43802 0.23349 0.0
H555 H 0.7558 0.31178 0.21379 0.0
H556 H 0.80304 0.28649 0.19998 0.0
H557 H 0.76746 0.34493 0.19489 0.0
H558 H 0.95893 0.36894 0.25046 0.0
H559 H 0.94139 0.30378 0.24451 0.0
H560 H 0.89994 0.33902 0.25798 0.0
H561 H 0.674 0.21374 0.305 0.0
H562 H 0.78008 0.09426 0.27472 0.0
H563 H 0.83098 0.10047 0.25048 0.0
H564 H 0.88529 0.24043 0.21547 0.0
H565 H 0.78709 0.36096 0.24749 0.0
H566 H 0.72809 0.35318 0.26973 0.0
H567 H 0.92351 0.91962 0.21549 0.0
H568 H 0.85789 0.89422 0.21428 0.0
H569 H 0.8698 0.95433 0.22454 0.0
C570 C 0.82729 0.51741 0.6494 0.0
C571 C 0.79614 0.50101 0.66443 0.0
C572 C 0.77046 0.578 0.67998 0.0
C573 C 0.82014 0.59657 0.68386 0.0
C574 C 0.8259 0.63905 0.6942 0.0
C575 C 0.7811 0.66183 0.70132 0.0
C576 C 0.73128 0.64083 0.69817 0.0
C577 C 0.72662 0.59998 0.68724 0.0
C578 C 0.87966 0.66097 0.69689 0.0
C579 C 0.68261 0.66253 0.7059 0.0
C580 C 0.62824 0.06285 0.68154 0.0
C581 C 0.64594 0.01711 0.69114 0.0
C582 C 0.68892 0.93393 0.68858 0.0
C583 C 0.66859 0.90815 0.70215 0.0
C584 C 0.69487 0.86577 0.70905 0.0
C585 C 0.74328 0.84966 0.70246 0.0
C586 C 0.76337 0.87501 0.68857 0.0
C587 C 0.73536 0.9164 0.68164 0.0
C588 C 0.67054 0.83815 0.72334 0.0
C589 C 0.81462 0.85883 0.68117 0.0
C590 C 0.86829 0.97175 0.79337 0.0
C591 C 0.82015 0.94586 0.79221 0.0
C592 C 0.81722 0.8954 0.78592 0.0
C593 C 0.86291 0.871 0.78002 0.0
C594 C 0.91137 0.89681 0.78119 0.0
C595 C 0.91341 0.94661 0.78801 0.0
C596 C 0.76488 0.86866 0.78529 0.0
C597 C 0.96086 0.87229 0.77494 0.0
C598 C 0.8607 0.47283 0.7972 0.0
C599 C 0.90931 0.49467 0.80531 0.0
C600 C 0.89218 0.58766 0.80212 0.0
C601 C 0.84848 0.61872 0.80491 0.0
C602 C 0.83906 0.66348 0.79558 0.0
C603 C 0.87545 0.6785 0.78352 0.0
C604 C 0.92111 0.64838 0.78116 0.0
C605 C 0.92872 0.60287 0.79039 0.0
C606 C 0.78988 0.69434 0.79853 0.0
C607 C 0.96203 0.6645 0.769 0.0
C608 C 0.78551 0.7114 0.71027 0.0
C609 C 0.76816 0.75675 0.70257 0.0
C610 C 0.77149 0.80521 0.70991 0.0
C611 C 0.79618 0.80939 0.72492 0.0
C612 C 0.80478 0.85815 0.73191 0.0
C613 C 0.82686 0.86181 0.74702 0.0
C614 C 0.83992 0.81678 0.75588 0.0
C615 C 0.85919 0.82014 0.77168 0.0
C616 C 0.87209 0.77459 0.78012 0.0
C617 C 0.86515 0.72533 0.77334 0.0
C618 C 0.84544 0.7213 0.75758 0.0
C619 C 0.83692 0.67257 0.75042 0.0
C620 C 0.81787 0.66912 0.73487 0.0
C621 C 0.80543 0.71422 0.72601 0.0
C622 C 0.81194 0.76362 0.73319 0.0
C623 C 0.8329 0.76723 0.74885 0.0
C624 C 0.81223 0.08579 0.79114 0.0
C625 C 0.83443 0.05352 0.80503 0.0
O626 O 0.7628 0.54114 0.66868 0.0
O627 O 0.89853 0.54396 0.8112 0.0
O628 O 0.87334 0.02064 0.79943 0.0
O629 O 0.66465 0.97598 0.68208 0.0
H630 H 0.82402 0.49258 0.67428 0.0
H631 H 0.84849 0.55431 0.65153 0.0
H632 H 0.80088 0.5239 0.63908 0.0
H633 H 0.85666 0.48722 0.64634 0.0
H634 H 0.85434 0.5797 0.6783 0.0
H635 H 0.68846 0.58509 0.68425 0.0
H636 H 0.87983 0.70376 0.69475 0.0
H637 H 0.90944 0.64292 0.68895 0.0
H638 H 0.89114 0.65394 0.70952 0.0
H639 H 0.64976 0.63442 0.70546 0.0
H640 H 0.67076 0.69854 0.69942 0.0
H641 H 0.68974 0.67278 0.71861 0.0
H642 H 0.61866 0.00504 0.70096 0.0
H643 H 0.58534 0.06645 0.68425 0.0
H644 H 0.6225 0.0486 0.66893 0.0
H645 H 0.68202 0.12131 0.68728 0.0
H646 H 0.6317 0.92045 0.70721 0.0
H647 H 0.75041 0.93628 0.67106 0.0
H648 H 0.69233 0.84815 0.73432 0.0
H649 H 0.67256 0.79522 0.72186 0.0
H650 H 0.62917 0.84947 0.72519 0.0
H651 H 0.82814 0.88675 0.67175 0.0
H652 H 0.8103 0.81988 0.67566 0.0
H653 H 0.84495 0.85559 0.69054 0.0
H654 H 0.80218 0.0306 0.81055 0.0
H655 H 0.78446 0.96447 0.79601 0.0
H656 H 0.95039 0.96667 0.78895 0.0
H657 H 0.7503 0.86988 0.77281 0.0
H658 H 0.73556 0.88782 0.79314 0.0
H659 H 0.76829 0.8271 0.78898 0.0
H660 H 0.99461 0.89921 0.77558 0.0
H661 H 0.95581 0.8603 0.76229 0.0
H662 H 0.96967 0.83668 0.78209 0.0
H663 H 0.94155 0.49683 0.79634 0.0
H664 H 0.86859 0.4335 0.79229 0.0
H665 H 0.84904 0.49865 0.78709 0.0
H666 H 0.82779 0.4702 0.80592 0.0
H667 H 0.82094 0.60692 0.81418 0.0
H668 H 0.96364 0.57988 0.78865 0.0
H669 H 0.76956 0.70201 0.78704 0.0
H670 H 0.80003 0.73257 0.80377 0.0
H671 H 0.76264 0.67391 0.80689 0.0
H672 H 0.9964 0.63831 0.76921 0.0
H673 H 0.97491 0.70501 0.77136 0.0
H674 H 0.94546 0.66393 0.75677 0.0
H675 H 0.75036 0.75408 0.69084 0.0
H676 H 0.79463 0.89402 0.72574 0.0
H677 H 0.83275 0.90047 0.75175 0.0
H678 H 0.88625 0.77746 0.7923 0.0
H679 H 0.84508 0.63647 0.75673 0.0
H680 H 0.8123 0.63066 0.72994 0.0
H681 H 0.84346 0.1083 0.7849 0.0
H682 H 0.78212 0.11322 0.79566 0.0
H683 H 0.79378 0.05962 0.78231 0.0
C684 C 0.74691 0.7534 0.06015 0.0
C685 C 0.75038 0.69384 0.06079 0.0
C686 C 0.69975 0.64787 0.04152 0.0
C687 C 0.68759 0.60031 0.04898 0.0
C688 C 0.64091 0.57447 0.04558 0.0
C689 C 0.60546 0.59733 0.03467 0.0
C690 C 0.61785 0.64547 0.0271 0.0
C691 C 0.66538 0.66989 0.03049 0.0
C692 C 0.62942 0.52289 0.05369 0.0
C693 C 0.58076 0.67116 0.01553 0.0
C694 C 0.21113 0.58967 0.08519 0.0
C695 C 0.24225 0.54983 0.07647 0.0
C696 C 0.33587 0.5521 0.07074 0.0
C697 C 0.33542 0.58421 0.05702 0.0
C698 C 0.37896 0.58653 0.04666 0.0
C699 C 0.42304 0.55498 0.04991 0.0
C700 C 0.42407 0.52423 0.0641 0.0
C701 C 0.38075 0.52401 0.07446 0.0
C702 C 0.37746 0.62174 0.03207 0.0
C703 C 0.47047 0.4907 0.06819 0.0
C704 C 0.29893 0.35581 0.9777 0.0
C705 C 0.31464 0.40133 0.9695 0.0
C706 C 0.3658 0.41983 0.97075 0.0
C707 C 0.40202 0.39176 0.98015 0.0
C708 C 0.38765 0.3433 0.9871 0.0
C709 C 0.33609 0.32587 0.98574 0.0
C710 C 0.38049 0.47072 0.96269 0.0
C711 C 0.42593 0.31153 0.99672 0.0
C712 C 0.70573 0.41701 0.91002 0.0
C713 C 0.73856 0.42048 0.92527 0.0
C714 C 0.67469 0.40278 0.94699 0.0
C715 C 0.64604 0.44919 0.9453 0.0
C716 C 0.60241 0.4589 0.9551 0.0
C717 C 0.58816 0.42228 0.96717 0.0
C718 C 0.6172 0.37575 0.96898 0.0
C719 C 0.65986 0.36654 0.95877 0.0
C720 C 0.57158 0.50836 0.95254 0.0
C721 C 0.60325 0.33574 0.98169 0.0
C722 C 0.55642 0.56982 0.03073 0.0
C723 C 0.51288 0.57694 0.04071 0.0
C724 C 0.4662 0.55045 0.03795 0.0
C725 C 0.4624 0.51687 0.02463 0.0
C726 C 0.41609 0.48984 0.0214 0.0
C727 C 0.41251 0.4573 0.00824 0.0
C728 C 0.45547 0.44947 0.99794 0.0
C729 C 0.45204 0.41655 0.98449 0.0
C730 C 0.49573 0.40849 0.97472 0.0
C731 C 0.54319 0.43279 0.97799 0.0
C732 C 0.54711 0.46662 0.99125 0.0
C733 C 0.59408 0.49195 0.99485 0.0
C734 C 0.59714 0.52602 0.00768 0.0
C735 C 0.55358 0.53549 0.0176 0.0
C736 C 0.50624 0.50941 0.01444 0.0
C737 C 0.50294 0.47517 0.00119 0.0
C738 C 0.17148 0.36335 0.99276 0.0
C739 C 0.20506 0.37232 0.97771 0.0
O740 O 0.74331 0.67416 0.04557 0.0
O741 O 0.71635 0.39083 0.93752 0.0
O742 O 0.24842 0.34016 0.97837 0.0
O743 O 0.29427 0.54762 0.0808 0.0
H744 H 0.71801 0.68113 0.06897 0.0
H745 H 0.70697 0.76523 0.0566 0.0
H746 H 0.77479 0.76988 0.05121 0.0
H747 H 0.75508 0.77014 0.07211 0.0
H748 H 0.7147 0.58368 0.0575 0.0
H749 H 0.67524 0.70695 0.02491 0.0
H750 H 0.59452 0.5269 0.06151 0.0
H751 H 0.6624 0.50892 0.06112 0.0
H752 H 0.62058 0.49299 0.04457 0.0
H753 H 0.59487 0.70994 0.01134 0.0
H754 H 0.54199 0.67601 0.02134 0.0
H755 H 0.5755 0.64581 0.00495 0.0
H756 H 0.23543 0.54631 0.06333 0.0
H757 H 0.19692 0.6171 0.07555 0.0
H758 H 0.23991 0.61818 0.09024 0.0
H759 H 0.16013 0.54522 0.09969 0.0
H760 H 0.30131 0.60759 0.05444 0.0
H761 H 0.38098 0.50025 0.08528 0.0
H762 H 0.37335 0.59776 0.02115 0.0
H763 H 0.41443 0.64398 0.03089 0.0
H764 H 0.34443 0.64968 0.03259 0.0
H765 H 0.46302 0.46522 0.07881 0.0
H766 H 0.50419 0.51616 0.0708 0.0
H767 H 0.48133 0.46584 0.05786 0.0
H768 H 0.21625 0.41419 0.97805 0.0
H769 H 0.2869 0.42309 0.9624 0.0
H770 H 0.32395 0.28996 0.99162 0.0
H771 H 0.38767 0.50056 0.97197 0.0
H772 H 0.34953 0.4853 0.95458 0.0
H773 H 0.41711 0.46599 0.95567 0.0
H774 H 0.41041 0.27234 -8e-05 0.0
H775 H 0.43528 0.33242 0.00793 0.0
H776 H 0.46282 0.3068 0.98983 0.0
H777 H 0.74144 0.46186 0.92904 0.0
H778 H 0.66604 0.4327 0.9121 0.0
H779 H 0.72414 0.44014 0.90016 0.0
H780 H 0.70202 0.37586 0.90615 0.0
H781 H 0.65707 0.47792 0.93633 0.0
H782 H 0.68212 0.33084 0.95998 0.0
H783 H 0.57791 0.53494 0.96276 0.0
H784 H 0.52927 0.49953 0.9521 0.0
H785 H 0.58313 0.52908 0.9413 0.0
H786 H 0.6326 0.30401 0.9825 0.0
H787 H 0.56492 0.31817 0.9789 0.0
H788 H 0.59966 0.35464 0.99358 0.0
H789 H 0.51575 0.60242 0.05097 0.0
H790 H 0.3818 0.49372 0.02893 0.0
H791 H 0.37559 0.43809 0.00632 0.0
H792 H 0.49268 0.38324 0.96441 0.0
H793 H 0.62898 0.48599 0.98772 0.0
H794 H 0.63425 0.54467 0.00976 0.0
H795 H 0.13531 0.38705 0.99213 0.0
H796 H 0.19349 0.37532 0.00353 0.0
H797 H 0.1609 0.32161 0.99424 0.0
C798 C 0.81825 0.76336 0.44866 0.0
C799 C 0.80882 0.7045 0.44823 0.0
C800 C 0.8567 0.65456 0.46772 0.0
C801 C 0.86863 0.60829 0.4597 0.0
C802 C 0.91255 0.57879 0.46393 0.0
C803 C 0.94532 0.59652 0.47629 0.0
C804 C 0.93344 0.64365 0.48428 0.0
C805 C 0.88857 0.67158 0.48006 0.0
C806 C 0.92374 0.52857 0.4553 0.0
C807 C 0.96818 0.66466 0.49722 0.0
C808 C 0.34281 0.63352 0.43071 0.0
C809 C 0.30341 0.62419 0.44361 0.0
C810 C 0.22381 0.57606 0.44995 0.0
C811 C 0.2136 0.60288 0.46433 0.0
C812 C 0.16757 0.59419 0.47314 0.0
C813 C 0.13183 0.55602 0.46799 0.0
C814 C 0.14245 0.52793 0.45379 0.0
C815 C 0.18813 0.53863 0.4449 0.0
C816 C 0.15714 0.6262 0.48795 0.0
C817 C 0.10539 0.48677 0.44798 0.0
C818 C 0.23588 0.41416 0.55789 0.0
C819 C 0.21129 0.46272 0.55963 0.0
C820 C 0.16127 0.47135 0.55353 0.0
C821 C 0.13501 0.43048 0.54568 0.0
C822 C 0.15866 0.38092 0.54451 0.0
C823 C 0.20894 0.37348 0.55062 0.0
C824 C 0.13718 0.5248 0.55501 0.0
C825 C 0.13156 0.33652 0.53631 0.0
C826 C 0.73062 0.50616 0.56703 0.0
C827 C 0.75333 0.45102 0.56747 0.0
C828 C 0.84795 0.44889 0.56731 0.0
C829 C 0.88654 0.48497 0.57101 0.0
C830 C 0.93401 0.48602 0.56253 0.0
C831 C 0.94354 0.44883 0.5504 0.0
C832 C 0.90586 0.40987 0.5474 0.0
C833 C 0.85821 0.41055 0.55582 0.0
C834 C 0.97343 0.52762 0.56632 0.0
C835 C 0.91547 0.36828 0.53505 0.0
C836 C 0.99112 0.5652 0.48129 0.0
C837 C 0.03733 0.57004 0.47238 0.0
C838 C 0.08332 0.54592 0.47744 0.0
C839 C 0.08339 0.51658 0.49192 0.0
C840 C 0.12921 0.49348 0.49775 0.0
C841 C 0.12975 0.46838 0.51261 0.0
C842 C 0.08411 0.46395 0.522 0.0
C843 C 0.08497 0.44147 0.53755 0.0
C844 C 0.03852 0.43526 0.54627 0.0
C845 C 0.99111 0.45311 0.54014 0.0
C846 C 0.99012 0.47856 0.52498 0.0
C847 C 0.94389 0.5001 0.51888 0.0
C848 C 0.9439 0.52753 0.50441 0.0
C849 C 0.99009 0.53445 0.49545 0.0
C850 C 0.03663 0.51109 0.50098 0.0
C851 C 0.0368 0.48382 0.51589 0.0
C852 C 0.34291 0.47667 0.55656 0.0
C853 C 0.32031 0.4397 0.56943 0.0
O854 O 0.81507 0.68381 0.46347 0.0
O855 O 0.80126 0.45192 0.575 0.0
O856 O 0.28557 0.40495 0.56269 0.0
O857 O 0.26686 0.58572 0.44064 0.0
H858 H 0.83904 0.68892 0.43984 0.0
H859 H 0.85976 0.77098 0.45146 0.0
H860 H 0.79393 0.78208 0.45805 0.0
H861 H 0.80974 0.78141 0.43684 0.0
H862 H 0.84328 0.5952 0.45024 0.0
H863 H 0.87889 0.70759 0.4861 0.0
H864 H 0.96136 0.53198 0.4487 0.0
H865 H 0.89277 0.51861 0.44663 0.0
H866 H 0.9276 0.49612 0.46412 0.0
H867 H 0.95772 0.7052 0.50054 0.0
H868 H 0.00955 0.66393 0.49323 0.0
H869 H 0.96471 0.63963 0.5081 0.0
H870 H 0.28547 0.66061 0.44812 0.0
H871 H 0.33496 0.67415 0.42612 0.0
H872 H 0.32769 0.61366 0.41969 0.0
H873 H 0.41305 0.61267 0.44167 0.0
H874 H 0.24109 0.63097 0.46882 0.0
H875 H 0.19614 0.51781 0.43391 0.0
H876 H 0.16158 0.60126 0.49879 0.0
H877 H 0.11664 0.64138 0.48792 0.0
H878 H 0.18435 0.65968 0.48889 0.0
H879 H 0.12117 0.46542 0.43748 0.0
H880 H 0.06801 0.50533 0.44453 0.0
H881 H 0.09681 0.45837 0.45779 0.0
H882 H 0.30012 0.46297 0.5788 0.0
H883 H 0.23106 0.49448 0.56543 0.0
H884 H 0.22798 0.33599 0.54944 0.0
H885 H 0.13298 0.54257 0.5429 0.0
H886 H 0.16092 0.55132 0.56245 0.0
H887 H 0.09766 0.52163 0.56042 0.0
H888 H 0.15395 0.29955 0.53714 0.0
H889 H 0.12595 0.34655 0.52345 0.0
H890 H 0.09237 0.33038 0.54175 0.0
H891 H 0.7577 0.43879 0.55474 0.0
H892 H 0.69171 0.50601 0.5613 0.0
H893 H 0.75671 0.53221 0.55991 0.0
H894 H 0.72681 0.52219 0.57932 0.0
H895 H 0.8785 0.51369 0.58015 0.0
H896 H 0.82896 0.38126 0.55344 0.0
H897 H 0.98617 0.54813 0.55517 0.0
H898 H 0.00825 0.50908 0.57172 0.0
H899 H 0.95785 0.55683 0.57487 0.0
H900 H 0.88566 0.33692 0.53567 0.0
H901 H 0.95459 0.35067 0.53674 0.0
H902 H 0.91474 0.38612 0.52288 0.0
H903 H 0.03791 0.59426 0.46164 0.0
H904 H 0.1655 0.49568 0.49107 0.0
H905 H 0.1665 0.45259 0.51666 0.0
H906 H 0.03959 0.41818 0.55822 0.0
H907 H 0.90728 0.49689 0.52534 0.0
H908 H 0.90724 0.54374 0.50043 0.0
H909 H 0.37221 0.50296 0.56195 0.0
H910 H 0.31184 0.50124 0.55127 0.0
H911 H 0.36175 0.45438 0.54674 0.0
Fe912 Fe 0.02894 0.74629 0.14697 0.0
O913 O 0.06932 0.77146 0.12789 0.0
Fe914 Fe 0.90935 0.71266 0.13172 0.0
Fe915 Fe 0.14568 0.76824 0.12717 0.0
O916 O 0.98587 0.70915 0.13094 0.0
O917 O 0.98532 0.70958 0.12931 0.0
O918 O 0.06937 0.77073 0.1264 0.0
Fe919 Fe 0.02463 0.73631 0.11006 0.0
C920 C 0.11084 0.82876 0.1565 0.0
O921 O 0.07564 0.682 0.14929 0.0
O922 O 0.15237 0.72124 0.14738 0.0
O923 O 0.9702 0.69841 0.09552 0.0
O924 O 0.91399 0.65872 0.1135 0.0
O925 O 0.92095 0.66446 0.15114 0.0
O926 O 0.9818 0.71197 0.1651 0.0
O927 O 0.1509 0.70232 0.11338 0.0
O928 O 0.07015 0.67024 0.11011 0.0
C929 C 0.94669 0.67527 0.16406 0.0
O930 O 0.97867 0.80247 0.10853 0.0
O931 O 0.90032 0.76764 0.11396 0.0
O932 O 0.0784 0.79222 0.16114 0.0
O933 O 0.13657 0.82877 0.14297 0.0
C934 C 0.12375 0.68403 0.15242 0.0
C935 C 0.11964 0.66609 0.10952 0.0
C936 C 0.11431 0.79791 0.0928 0.0
O937 O 0.13891 0.80987 0.10583 0.0
O938 O 0.07357 0.76769 0.09216 0.0
C939 C 0.93027 0.66878 0.09898 0.0
O940 O 0.90582 0.77177 0.14844 0.0
O941 O 0.98217 0.81073 0.14548 0.0
C942 C 0.92897 0.80391 0.10826 0.0
C943 C 0.93527 0.81106 0.15035 0.0
Fe944 Fe 0.53703 0.74778 0.40158 0.0
O945 O 0.56575 0.70086 0.38482 0.0
Fe946 Fe 0.51745 0.86356 0.38115 0.0
Fe947 Fe 0.56165 0.62497 0.38648 0.0
O948 O 0.50799 0.78721 0.38294 0.0
O949 O 0.50906 0.78726 0.38124 0.0
O950 O 0.56569 0.70046 0.38324 0.0
Fe951 Fe 0.53744 0.73952 0.36435 0.0
C952 C 0.61294 0.6685 0.41638 0.0
O953 O 0.47064 0.70352 0.4038 0.0
O954 O 0.50659 0.62457 0.40475 0.0
O955 O 0.50417 0.78951 0.34695 0.0
O956 O 0.46873 0.85714 0.36168 0.0
O957 O 0.4621 0.8609 0.39894 0.0
O958 O 0.49908 0.8024 0.41668 0.0
O959 O 0.50242 0.61647 0.37025 0.0
O960 O 0.46975 0.69585 0.36476 0.0
C961 C 0.46364 0.83679 0.41269 0.0
O962 O 0.60575 0.781 0.36241 0.0
O963 O 0.57836 0.86353 0.36493 0.0
O964 O 0.57549 0.70199 0.41883 0.0
O965 O 0.61607 0.63812 0.40401 0.0
C966 C 0.46974 0.65585 0.40813 0.0
C967 C 0.46727 0.64604 0.36438 0.0
C968 C 0.5991 0.64176 0.35254 0.0
O969 O 0.61154 0.62693 0.36693 0.0
O970 O 0.5698 0.68207 0.34931 0.0
C971 C 0.4754 0.83125 0.3485 0.0
O972 O 0.57194 0.86928 0.39938 0.0
O973 O 0.60446 0.78973 0.40021 0.0
C974 C 0.61219 0.82995 0.36077 0.0
C975 C 0.60947 0.83825 0.40217 0.0
Fe976 Fe 0.53986 0.29454 0.66717 0.0
O977 O 0.54435 0.28773 0.64389 0.0
Fe978 Fe 0.48168 0.25583 0.6316 0.0
Fe979 Fe 0.60221 0.25292 0.63196 0.0
O980 O 0.53961 0.28824 0.64379 0.0
O981 O 0.53887 0.21701 0.62063 0.0
O982 O 0.54438 0.21664 0.62069 0.0
Fe983 Fe 0.54285 0.21093 0.59721 0.0
C984 C 0.64715 0.33401 0.65558 0.0
O985 O 0.59232 0.23566 0.67155 0.0
O986 O 0.60643 0.19322 0.64852 0.0
O987 O 0.48 0.16275 0.60147 0.0
O988 O 0.42828 0.21601 0.61706 0.0
O989 O 0.47481 0.19661 0.64806 0.0
O990 O 0.48054 0.24099 0.67085 0.0
O991 O 0.65534 0.21247 0.61731 0.0
O992 O 0.6029 0.16018 0.60219 0.0
C993 C 0.4667 0.20089 0.66304 0.0
O994 O 0.48784 0.26773 0.59284 0.0
O995 O 0.48536 0.31527 0.61496 0.0
O996 O 0.6037 0.34242 0.66328 0.0
O997 O 0.6549 0.29711 0.64519 0.0
C998 C 0.60823 0.19628 0.66374 0.0
C999 C 0.64842 0.17651 0.60658 0.0
C1000 C 0.61322 0.30691 0.6006 0.0
O1001 O 0.60232 0.31285 0.61539 0.0
O1002 O 0.60027 0.26594 0.59313 0.0
C1003 C 0.43505 0.17863 0.60675 0.0
O1004 O 0.42946 0.30277 0.64472 0.0
O1005 O 0.48212 0.34798 0.66215 0.0
C1006 C 0.47531 0.3092 0.60019 0.0
C1007 C 0.43895 0.34126 0.6544 0.0
Fe1008 Fe 0.01278 0.24712 0.90589 0.0
O1009 O 0.98236 0.20547 0.88837 0.0
Fe1010 Fe 0.04186 0.36652 0.88824 0.0
Fe1011 Fe 0.98243 0.12949 0.88778 0.0
O1012 O 0.0449 0.28988 0.88832 0.0
O1013 O 0.04549 0.28999 0.88663 0.0
O1014 O 0.98346 0.20498 0.88723 0.0
Fe1015 Fe 0.00836 0.25134 0.86944 0.0
C1016 C 0.07948 0.15177 0.90844 0.0
O1017 O 0.97483 0.19892 0.92231 0.0
O1018 O 0.93261 0.13688 0.90745 0.0
O1019 O 0.00234 0.31137 0.85263 0.0
O1020 O 0.98626 0.37503 0.87006 0.0
O1021 O 0.98079 0.37155 0.90465 0.0
O1022 O 0.9472 0.2918 0.9058 0.0
O1023 O 0.92813 0.1401 0.86982 0.0
O1024 O 0.96464 0.20497 0.85374 0.0
C1025 C 0.94298 0.34061 0.90753 0.0
O1026 O 0.05898 0.29933 0.85402 0.0
O1027 O 0.09834 0.35943 0.87057 0.0
O1028 O 0.07764 0.20098 0.90651 0.0
O1029 O 0.04251 0.12166 0.90418 0.0
C1030 C 0.93966 0.16327 0.92048 0.0
C1031 C 0.93265 0.16614 0.85639 0.0
C1032 C 0.06948 0.1534 0.86233 0.0
O1033 O 0.03594 0.12449 0.86947 0.0
O1034 O 0.07054 0.20313 0.86352 0.0
C1035 C 0.98002 0.35494 0.85623 0.0
O1036 O 0.09095 0.35804 0.90779 0.0
O1037 O 0.04842 0.29471 0.92252 0.0
C1038 C 0.09542 0.33457 0.85709 0.0
C1039 C 0.08313 0.33107 0.92085 0.0
C1040 C 0.36812 0.82139 0.44752 0.0
C1041 C 0.3213 0.83617 0.44006 0.0
H1042 H 0.45092 0.81146 0.4449 0.0
C1043 C 0.32358 0.85875 0.4247 0.0
H1044 H 0.36749 0.80444 0.45947 0.0
C1045 C 0.37077 0.86259 0.41644 0.0
C1046 C 0.41714 0.84347 0.42323 0.0
H1047 H 0.28836 0.87104 0.41869 0.0
H1048 H 0.36997 0.87754 0.40425 0.0
C1049 C 0.41575 0.82526 0.43918 0.0
C1050 C 0.40816 0.11721 0.69621 0.0
C1051 C 0.3764 0.08313 0.68754 0.0
H1052 H 0.46194 0.18094 0.69527 0.0
C1053 C 0.37521 0.08762 0.67073 0.0
H1054 H 0.40908 0.11511 0.70918 0.0
C1055 C 0.40568 0.12493 0.66276 0.0
C1056 C 0.43702 0.15938 0.67145 0.0
H1057 H 0.35019 0.06277 0.66374 0.0
H1058 H 0.4035 0.1277 0.64981 0.0
C1059 C 0.43814 0.15499 0.68825 0.0
C1060 C 0.17089 0.05474 0.92816 0.0
C1061 C 0.20149 0.08765 0.93769 0.0
H1062 H 0.10778 0.04909 0.91162 0.0
C1063 C 0.19523 0.14181 0.93607 0.0
H1064 H 0.17585 0.0129 0.92852 0.0
C1065 C 0.15703 0.16257 0.92608 0.0
C1066 C 0.1239 0.12962 0.91745 0.0
H1067 H 0.21929 0.16821 0.94286 0.0
H1068 H 0.15252 0.2045 0.92552 0.0
C1069 C 0.13197 0.0755 0.91834 0.0
C1070 C 0.08196 0.92982 0.18831 0.0
C1071 C 0.10574 0.97426 0.18148 0.0
H1072 H 0.06494 0.84857 0.18585 0.0
C1073 C 0.13696 0.96855 0.16772 0.0
H1074 H 0.0584 0.93298 0.1991 0.0
C1075 C 0.14144 0.92033 0.16028 0.0
C1076 C 0.11441 0.87654 0.16634 0.0
H1077 H 0.15646 0.0019 0.16233 0.0
H1078 H 0.16412 0.91822 0.14929 0.0
C1079 C 0.08602 0.88144 0.18077 0.0
C1080 C 0.35352 0.15618 0.5612 0.0
C1081 C 0.28771 0.14645 0.57007 0.0
H1082 H 0.44487 0.16126 0.57127 0.0
C1083 C 0.27031 0.16616 0.59093 0.0
H1084 H 0.36166 0.14932 0.54864 0.0
C1085 C 0.32495 0.17007 0.60433 0.0
C1086 C 0.3908 0.16528 0.59669 0.0
H1087 H 0.23061 0.16562 0.59537 0.0
H1088 H 0.31821 0.17711 0.61695 0.0
C1089 C 0.40496 0.16011 0.57551 0.0
C1090 C 0.11699 0.05194 0.83372 0.0
C1091 C 0.17135 0.05754 0.83439 0.0
H1092 H 0.04273 0.07926 0.84162 0.0
C1093 C 0.19216 0.09958 0.84302 0.0
H1094 H 0.09951 0.01965 0.82746 0.0
C1095 C 0.15915 0.13399 0.85133 0.0
C1096 C 0.10505 0.1262 0.85123 0.0
H1097 H 0.23393 0.10423 0.84397 0.0
H1098 H 0.17593 0.16437 0.85858 0.0
C1099 C 0.0844 0.08597 0.84193 0.0
C1100 C 0.20589 0.86563 0.06358 0.0
C1101 C 0.20019 0.83557 0.04971 0.0
H1102 H 0.18265 0.8783 0.08791 0.0
C1103 C 0.16267 0.79544 0.04983 0.0
H1104 H 0.23469 0.89637 0.06397 0.0
C1105 C 0.132 0.78573 0.06349 0.0
C1106 C 0.13912 0.81477 0.0775 0.0
H1107 H 0.15742 0.7706 0.03958 0.0
H1108 H 0.10468 0.75358 0.06331 0.0
C1109 C 0.17587 0.85537 0.07729 0.0
C1110 C 0.47285 0.89942 0.30837 0.0
C1111 C 0.4282 0.93077 0.31008 0.0
H1112 H 0.52238 0.84179 0.31917 0.0
C1113 C 0.39433 0.92123 0.32312 0.0
H1114 H 0.49888 0.90498 0.2982 0.0
C1115 C 0.4077 0.88521 0.33506 0.0
C1116 C 0.45446 0.85692 0.334 0.0
H1117 H 0.3587 0.9434 0.32451 0.0
H1118 H 0.38271 0.88135 0.34555 0.0
C1119 C 0.48586 0.86271 0.32022 0.0
C1120 C 0.70984 0.13843 0.5677 0.0
C1121 C 0.74338 0.18086 0.56506 0.0
H1122 H 0.65539 0.10151 0.58363 0.0
C1123 C 0.75484 0.21396 0.57787 0.0
H1124 H 0.70095 0.11194 0.55807 0.0
C1125 C 0.72893 0.20794 0.59257 0.0
C1126 C 0.69065 0.16907 0.59461 0.0
H1127 H 0.78096 0.24671 0.57614 0.0
H1128 H 0.73509 0.23711 0.60166 0.0
C1129 C 0.68414 0.13222 0.5824 0.0
C1130 C 0.7415 0.84493 0.32532 0.0
C1131 C 0.76599 0.90758 0.33341 0.0
H1132 H 0.66317 0.78789 0.3301 0.0
C1133 C 0.75252 0.92896 0.35437 0.0
H1134 H 0.75312 0.83105 0.31361 0.0
C1135 C 0.69457 0.90137 0.36323 0.0
C1136 C 0.66041 0.84926 0.35349 0.0
H1137 H 0.77093 0.9629 0.35943 0.0
H1138 H 0.67986 0.91654 0.37445 0.0
C1139 C 0.68412 0.8201 0.33527 0.0
C1140 C 0.82611 0.90435 0.1004 0.0
C1141 C 0.83107 0.91215 0.08375 0.0
H1142 H 0.8543 0.86426 0.12124 0.0
C1143 C 0.87325 0.88883 0.0756 0.0
H1144 H 0.79421 0.92177 0.10703 0.0
C1145 C 0.90848 0.85685 0.08386 0.0
C1146 C 0.90158 0.8472 0.10033 0.0
H1147 H 0.87781 0.89382 0.06275 0.0
H1148 H 0.93896 0.83707 0.07722 0.0
C1149 C 0.86071 0.87186 0.10856 0.0
C1150 C 0.90136 0.11879 0.81479 0.0
C1151 C 0.85667 0.0884 0.81782 0.0
H1152 H 0.96 0.16835 0.82461 0.0
C1153 C 0.83403 0.08903 0.83322 0.0
H1154 H 0.9196 0.11903 0.80303 0.0
C1155 C 0.85714 0.11694 0.84554 0.0
C1156 C 0.90314 0.14537 0.84272 0.0
H1157 H 0.79935 0.06642 0.8359 0.0
H1158 H 0.83991 0.11487 0.85744 0.0
C1159 C 0.92422 0.1473 0.82711 0.0
C1160 C 0.75307 0.84327 0.41203 0.0
C1161 C 0.75981 0.89518 0.41673 0.0
H1162 H 0.70073 0.78454 0.40411 0.0
C1163 C 0.7164 0.92871 0.41669 0.0
H1164 H 0.78598 0.81697 0.41142 0.0
C1165 C 0.66728 0.91044 0.41211 0.0
C1166 C 0.66063 0.85826 0.40753 0.0
H1167 H 0.72072 0.96922 0.41994 0.0
H1168 H 0.63469 0.93724 0.41205 0.0
C1169 C 0.70412 0.82487 0.40769 0.0
C1170 C 0.93883 0.92727 0.17788 0.0
C1171 C 0.88807 0.92729 0.18432 0.0
H1172 H 0.9929 0.89219 0.16163 0.0
C1173 C 0.85174 0.89136 0.17846 0.0
H1174 H 0.96794 0.95376 0.18225 0.0
C1175 C 0.86627 0.85515 0.16683 0.0
C1176 C 0.91754 0.85411 0.16078 0.0
H1177 H 0.8125 0.89011 0.18334 0.0
H1178 H 0.83777 0.82687 0.163 0.0
C1179 C 0.95318 0.89165 0.16608 0.0
C1180 C 0.86143 0.18673 0.95818 0.0
C1181 C 0.84287 0.1366 0.96192 0.0
H1182 H 0.90684 0.23411 0.94218 0.0
C1183 C 0.85413 0.09538 0.95144 0.0
H1184 H 0.85247 0.21935 0.96587 0.0
C1185 C 0.88451 0.10399 0.93765 0.0
C1186 C 0.90475 0.15375 0.93432 0.0
H1187 H 0.83983 0.05645 0.95399 0.0
H1188 H 0.89335 0.07154 0.92987 0.0
C1189 C 0.89248 0.1951 0.94462 0.0
C1190 C 0.71636 0.06619 0.67554 0.0
C1191 C 0.68574 0.0515 0.69547 0.0
H1192 H 0.69481 0.12276 0.65167 0.0
C1193 C 0.64427 0.099 0.70638 0.0
H1194 H 0.74475 0.04058 0.67008 0.0
C1195 C 0.61384 0.14722 0.69383 0.0
C1196 C 0.63184 0.15387 0.67294 0.0
H1197 H 0.63054 0.09169 0.71849 0.0
H1198 H 0.58453 0.17261 0.69891 0.0
C1199 C 0.68323 0.11555 0.66399 0.0
C1200 C 0.80216 0.34625 0.92127 0.0
C1201 C 0.79282 0.40016 0.92179 0.0
H1202 H 0.85666 0.28537 0.91665 0.0
C1203 C 0.83366 0.43463 0.91789 0.0
H1204 H 0.77122 0.31872 0.92394 0.0
C1205 C 0.88289 0.41555 0.9136 0.0
C1206 C 0.89206 0.36157 0.91298 0.0
H1207 H 0.82726 0.47635 0.91796 0.0
H1208 H 0.91338 0.44309 0.91048 0.0
C1209 C 0.85117 0.32721 0.91701 0.0
C1210 C 0.8814 0.57587 0.19118 0.0
C1211 C 0.91934 0.56759 0.20298 0.0
H1212 H 0.86051 0.61592 0.16966 0.0
C1213 C 0.9636 0.59987 0.20303 0.0
H1214 H 0.84582 0.5532 0.19114 0.0
C1215 C 0.97135 0.63728 0.1909 0.0
C1216 C 0.9355 0.6422 0.17833 0.0
H1217 H 0.99266 0.59536 0.21228 0.0
H1218 H 0.0064 0.66073 0.19101 0.0
C1219 C 0.88973 0.61215 0.1789 0.0
C1220 C 0.75118 0.65091 0.4305 0.0
C1221 C 0.75552 0.69064 0.44185 0.0
H1222 H 0.70274 0.6117 0.41388 0.0
C1223 C 0.71008 0.71694 0.44679 0.0
H1224 H 0.78513 0.62887 0.42679 0.0
C1225 C 0.66252 0.70749 0.43926 0.0
C1226 C 0.6592 0.67063 0.42693 0.0
H1227 H 0.71155 0.74636 0.45598 0.0
H1228 H 0.62903 0.73076 0.44262 0.0
C1229 C 0.70368 0.64092 0.42315 0.0
C1230 C 0.76376 0.42164 0.64838 0.0
C1231 C 0.76301 0.45237 0.66234 0.0
H1232 H 0.72799 0.35973 0.63539 0.0
C1233 C 0.72783 0.43899 0.67473 0.0
H1234 H 0.79073 0.42927 0.63861 0.0
C1235 C 0.69142 0.39936 0.67273 0.0
C1236 C 0.69006 0.37105 0.65842 0.0
H1237 H 0.72699 0.46093 0.68577 0.0
H1238 H 0.66351 0.3917 0.68229 0.0
C1239 C 0.72776 0.38129 0.6465 0.0
C1240 C 0.80099 0.63998 0.08075 0.0
C1241 C 0.80153 0.67517 0.06776 0.0
H1242 H 0.84272 0.60793 0.10053 0.0
C1243 C 0.84958 0.69583 0.06252 0.0
H1244 H 0.76495 0.62181 0.08469 0.0
C1245 C 0.8944 0.68824 0.0717 0.0
C1246 C 0.89195 0.65917 0.0861 0.0
H1247 H 0.85175 0.72122 0.0521 0.0
H1248 H 0.92943 0.70923 0.06828 0.0
C1249 C 0.84581 0.63177 0.08978 0.0
C1250 C 0.62901 0.51036 0.33613 0.0
C1251 C 0.58782 0.50467 0.32534 0.0
H1252 H 0.66723 0.56005 0.35268 0.0
C1253 C 0.56136 0.54969 0.32007 0.0
H1254 H 0.65147 0.47684 0.33998 0.0
C1255 C 0.56991 0.59759 0.32752 0.0
C1256 C 0.60585 0.60129 0.3401 0.0
H1257 H 0.53107 0.54718 0.31117 0.0
H1258 H 0.54467 0.63003 0.32454 0.0
C1259 C 0.63826 0.55828 0.34333 0.0
C1260 C 0.69196 0.37404 0.56781 0.0
C1261 C 0.71688 0.41389 0.57622 0.0
H1262 H 0.63974 0.30936 0.56883 0.0
C1263 C 0.70638 0.41935 0.59271 0.0
H1264 H 0.69916 0.369 0.5551 0.0
C1265 C 0.67155 0.38564 0.60059 0.0
C1266 C 0.64699 0.34541 0.59218 0.0
H1267 H 0.72517 0.44972 0.59949 0.0
H1268 H 0.66454 0.39064 0.61331 0.0
C1269 C 0.65765 0.34008 0.57569 0.0
C1270 C 0.95049 0.41066 0.81497 0.0
C1271 C 0.92629 0.4582 0.81876 0.0
H1272 H 0.98421 0.33977 0.8237 0.0
C1273 C 0.91672 0.46969 0.83499 0.0
H1274 H 0.9576 0.40036 0.80258 0.0
C1275 C 0.9332 0.43562 0.84711 0.0
C1276 C 0.95854 0.38865 0.84332 0.0
H1277 H 0.89707 0.50527 0.83841 0.0
H1278 H 0.92634 0.44633 0.85948 0.0
C1279 C 0.96579 0.37599 0.82709 0.0
C1280 C 0.14713 0.53209 0.07724 0.0
C1281 C 0.21183 0.51562 0.08584 0.0
H1282 H 0.0825 0.60506 0.08026 0.0
C1283 C 0.23134 0.53478 0.10645 0.0
H1284 H 0.13478 0.51718 0.06579 0.0
C1285 C 0.19783 0.59102 0.11405 0.0
C1286 C 0.1427 0.61795 0.10359 0.0
H1287 H 0.26696 0.52094 0.11187 0.0
H1288 H 0.21136 0.60925 0.12489 0.0
C1289 C 0.11639 0.58825 0.08592 0.0
C1290 C 0.10788 0.39654 0.81645 0.0
C1291 C 0.13614 0.44153 0.82035 0.0
H1292 H 0.07561 0.32432 0.82486 0.0
C1293 C 0.16266 0.44263 0.83502 0.0
H1294 H 0.0872 0.39455 0.8052 0.0
C1295 C 0.15592 0.40259 0.84627 0.0
C1296 C 0.12129 0.36134 0.84329 0.0
H1297 H 0.18491 0.47655 0.83843 0.0
H1298 H 0.1733 0.4071 0.85797 0.0
C1299 C 0.10115 0.35635 0.82775 0.0
C1300 C 0.38939 0.36964 0.56853 0.0
C1301 C 0.36373 0.4089 0.57716 0.0
H1302 H 0.4452 0.30809 0.56892 0.0
C1303 C 0.37864 0.41849 0.59304 0.0
H1304 H 0.37902 0.36179 0.55622 0.0
C1305 C 0.41675 0.3877 0.60039 0.0
C1306 C 0.44077 0.34689 0.59195 0.0
H1307 H 0.3599 0.44895 0.5999 0.0
H1308 H 0.42604 0.3948 0.61283 0.0
C1309 C 0.42743 0.33903 0.57583 0.0
C1310 C 0.37982 0.54052 0.34864 0.0
C1311 C 0.36105 0.56295 0.33438 0.0
H1312 H 0.42669 0.54966 0.36949 0.0
C1313 C 0.37531 0.61476 0.33059 0.0
H1314 H 0.37052 0.50049 0.35177 0.0
C1315 C 0.40689 0.64336 0.34093 0.0
C1316 C 0.42616 0.62028 0.35502 0.0
H1317 H 0.36304 0.63316 0.31953 0.0
H1318 H 0.41844 0.68253 0.33748 0.0
C1319 C 0.41187 0.56875 0.35882 0.0
C1320 C 0.15313 0.31193 0.96015 0.0
C1321 C 0.1749 0.36136 0.96262 0.0
H1322 H 0.10642 0.26408 0.94521 0.0
C1323 C 0.16838 0.40035 0.95084 0.0
H1324 H 0.15858 0.28075 0.96882 0.0
C1325 C 0.13944 0.39046 0.93705 0.0
C1326 C 0.11594 0.34161 0.93493 0.0
H1327 H 0.18536 0.4386 0.95235 0.0
H1328 H 0.13448 0.42137 0.92825 0.0
C1329 C 0.12341 0.30239 0.94658 0.0
C1330 C 0.37338 0.46646 0.66637 0.0
C1331 C 0.32102 0.45118 0.66809 0.0
H1332 H 0.45147 0.44368 0.66088 0.0
C1333 C 0.3068 0.40081 0.66298 0.0
H1334 H 0.38553 0.5054 0.66958 0.0
C1335 C 0.34479 0.36555 0.65771 0.0
C1336 C 0.39753 0.37988 0.65745 0.0
H1337 H 0.26687 0.38755 0.6635 0.0
H1338 H 0.33318 0.32639 0.65457 0.0
C1339 C 0.41119 0.43113 0.66135 0.0
C1340 C 0.37015 0.55152 0.43872 0.0
C1341 C 0.34657 0.6051 0.45198 0.0
H1342 H 0.42121 0.54565 0.41277 0.0
C1343 C 0.38032 0.66885 0.45338 0.0
H1344 H 0.35363 0.51277 0.43923 0.0
C1345 C 0.41914 0.68632 0.43616 0.0
C1346 C 0.43203 0.64 0.42053 0.0
H1347 H 0.36986 0.69735 0.46233 0.0
H1348 H 0.43696 0.72421 0.43543 0.0
C1349 C 0.4098 0.57315 0.42189 0.0
C1350 C 0.1225 0.56524 0.19155 0.0
C1351 C 0.19482 0.55971 0.19282 0.0
H1352 H 0.05899 0.60704 0.1726 0.0
C1353 C 0.23983 0.61062 0.18479 0.0
H1354 H 0.09662 0.53809 0.19762 0.0
C1355 C 0.21314 0.65057 0.16904 0.0
C1356 C 0.14482 0.64711 0.16421 0.0
H1357 H 0.28132 0.60926 0.1869 0.0
H1358 H 0.23827 0.67741 0.16256 0.0
C1359 C 0.09988 0.60656 0.1755 0.0
loop_
_geom_bond_atom_site_label_1
_geom_bond_atom_site_label_2
_geom_bond_distance
_geom_bond_site_symmetry_2
_ccdc_geom_bond_type
C0 C1 1.560 . S
C0 H61 0.959 . S
C0 H62 0.959 . S
C0 H63 0.960 . S
C1 C0 1.560 . S
C1 O56 1.426 . S
C1 H60 0.980 . S
C2 C3 1.407 . S
C2 C7 1.418 . S
C2 O56 1.334 . S
C3 C2 1.407 . S
C3 C4 1.360 . S
C3 H64 0.929 . S
C4 C3 1.360 . S
C4 C5 1.401 . S
C4 C8 1.527 . S
C5 C4 1.401 . S
C5 C6 1.405 . S
C5 C38 1.587 . S
C6 C5 1.405 . S
C6 C7 1.332 . S
C6 C9 1.496 1_565 S
C7 C2 1.418 . S
C7 C6 1.332 . S
C7 H65 0.929 1_565 S
C8 C4 1.527 . S
C8 H66 0.959 . S
C8 H67 0.961 . S
C8 H68 0.961 . S
C9 C6 1.496 1_545 S
C9 H69 0.960 . S
C9 H70 0.960 . S
C9 H71 0.961 . S
C10 C11 1.517 . S
C10 H73 0.961 . S
C10 H74 0.960 . S
C10 H75 0.959 . S
C11 C10 1.517 . S
C11 O59 1.468 . S
C11 H72 0.980 . S
C12 C13 1.349 . S
C12 C17 1.367 . S
C12 O59 1.408 . S
C13 C12 1.349 . S
C13 C14 1.407 . S
C13 H76 0.930 . S
C14 C13 1.407 . S
C14 C15 1.449 . S
C14 C18 1.535 . S
C15 C14 1.449 . S
C15 C16 1.384 . S
C15 C40 1.553 . S
C16 C15 1.384 . S
C16 C17 1.364 . S
C16 C19 1.450 . S
C17 C12 1.367 . S
C17 C16 1.364 . S
C17 H77 0.931 . S
C18 C14 1.535 . S
C18 H78 0.959 . S
C18 H79 0.961 . S
C18 H80 0.964 . S
C19 C16 1.450 . S
C19 H81 0.960 . S
C19 H82 0.960 . S
C19 H83 0.960 . S
C20 C21 1.309 . S
C20 C25 1.304 . S
C20 O58 1.435 . S
C21 C20 1.309 . S
C21 C22 1.476 . S
C21 H85 0.930 . S
C22 C21 1.476 . S
C22 C23 1.400 . S
C22 C26 1.567 . S
C23 C22 1.400 . S
C23 C24 1.373 . S
C23 C45 1.432 . S
C24 C23 1.373 . S
C24 C25 1.339 . S
C24 C27 1.530 1_545 S
C25 C20 1.304 . S
C25 C24 1.339 . S
C25 H86 0.930 . S
C26 C22 1.567 . S
C26 H87 0.961 . S
C26 H88 0.960 . S
C26 H89 0.958 . S
C27 C24 1.530 1_565 S
C27 H90 0.961 . S
C27 H91 0.960 . S
C27 H92 0.960 . S
C28 C29 1.530 . S
C28 H94 0.961 . S
C28 H95 0.961 . S
C28 H96 0.959 . S
C29 C28 1.530 . S
C29 O57 1.412 . S
C29 H93 0.980 . S
C30 C31 1.288 . S
C30 C35 1.377 . S
C30 O57 1.393 . S
C31 C30 1.288 . S
C31 C32 1.369 . S
C31 H97 0.932 . S
C32 C31 1.369 . S
C32 C33 1.398 . S
C32 C36 1.527 . S
C33 C32 1.398 . S
C33 C34 1.380 . S
C33 C47 1.497 . S
C34 C33 1.380 . S
C34 C35 1.383 . S
C34 C37 1.603 . S
C35 C30 1.377 . S
C35 C34 1.383 . S
C35 H98 0.929 . S
C36 C32 1.527 . S
C36 H99 0.961 . S
C36 H100 0.959 . S
C36 H101 0.959 . S
C37 C34 1.603 . S
C37 H102 0.959 1_545 S
C37 H103 0.962 1_545 S
C37 H104 0.961 1_545 S
C38 C5 1.587 . S
C38 C39 1.360 1_655 S
C38 C51 1.412 . S
C39 C38 1.360 1_455 S
C39 C40 1.365 . S
C39 H105 0.929 . S
C40 C15 1.553 . S
C40 C39 1.365 . S
C40 C41 1.404 . S
C41 C40 1.404 . S
C41 C42 1.395 . S
C41 C52 1.451 . S
C42 C41 1.395 . S
C42 C43 1.322 . S
C42 H106 0.930 . S
C43 C42 1.322 . S
C43 C44 1.459 1_565 S
C43 H107 0.929 . S
C44 C43 1.459 1_545 S
C44 C45 1.445 . S
C44 C53 1.395 . S
C45 C23 1.432 . S
C45 C44 1.445 . S
C45 C46 1.370 . S
C46 C45 1.370 . S
C46 C47 1.438 1_455 S
C46 H108 0.930 . S
C47 C33 1.497 . S
C47 C46 1.438 1_655 S
C47 C48 1.360 . S
C48 C47 1.360 . S
C48 C49 1.401 . S
C48 C53 1.446 1_655 S
C49 C48 1.401 . S
C49 C50 1.347 1_545 S
C49 H109 0.929 . S
C50 C49 1.347 1_565 S
C50 C51 1.455 . S
C50 H110 0.930 . S
C51 C38 1.412 . S
C51 C50 1.455 . S
C51 C52 1.331 1_655 S
C52 C41 1.451 . S
C52 C51 1.331 1_455 S
C52 C53 1.497 1_565 S
C53 C44 1.395 . S
C53 C48 1.446 1_455 S
C53 C52 1.497 1_545 S
C54 C55 1.582 . S
C54 H111 0.962 . S
C54 H112 0.959 . S
C54 H113 0.958 . S
C55 C54 1.582 . S
C55 O58 1.458 . S
C55 H84 0.980 . S
O56 C1 1.426 . S
O56 C2 1.334 . S
O57 C29 1.412 . S
O57 C30 1.393 . S
O58 C20 1.435 . S
O58 C55 1.458 . S
O59 C11 1.468 . S
O59 C12 1.408 . S
H60 C1 0.980 . S
H61 C0 0.959 . S
H62 C0 0.959 . S
H63 C0 0.960 . S
H64 C3 0.929 . S
H65 C7 0.929 1_545 S
H66 C8 0.959 . S
H67 C8 0.961 . S
H68 C8 0.961 . S
H69 C9 0.960 . S
H70 C9 0.960 . S
H71 C9 0.961 . S
H72 C11 0.980 . S
H73 C10 0.961 . S
H74 C10 0.960 . S
H75 C10 0.959 . S
H76 C13 0.930 . S
H77 C17 0.931 . S
H78 C18 0.959 . S
H79 C18 0.961 . S
H80 C18 0.964 . S
H81 C19 0.960 . S
H82 C19 0.960 . S
H83 C19 0.960 . S
H84 C55 0.980 . S
H85 C21 0.930 . S
H86 C25 0.930 . S
H87 C26 0.961 . S
H88 C26 0.960 . S
H89 C26 0.958 . S
H90 C27 0.961 . S
H91 C27 0.960 . S
H92 C27 0.960 . S
H93 C29 0.980 . S
H94 C28 0.961 . S
H95 C28 0.961 . S
H96 C28 0.959 . S
H97 C31 0.932 . S
H98 C35 0.929 . S
H99 C36 0.961 . S
H100 C36 0.959 . S
H101 C36 0.959 . S
H102 C37 0.959 1_565 S
H103 C37 0.962 1_565 S
H104 C37 0.961 1_565 S
H105 C39 0.929 . S
H106 C42 0.930 . S
H107 C43 0.929 . S
H108 C46 0.930 . S
H109 C49 0.929 . S
H110 C50 0.930 . S
H111 C54 0.962 . S
H112 C54 0.959 . S
H113 C54 0.958 . S
C114 C115 1.560 . S
C114 H175 0.959 . S
C114 H176 0.959 . S
C114 H177 0.960 . S
C115 C114 1.560 . S
C115 O170 1.426 1_545 S
C115 H174 0.980 1_545 S
C116 C117 1.407 . S
C116 C121 1.418 . S
C116 O170 1.334 . S
C117 C116 1.407 . S
C117 C118 1.360 . S
C117 H178 0.929 . S
C118 C117 1.360 . S
C118 C119 1.401 . S
C118 C122 1.527 . S
C119 C118 1.401 . S
C119 C120 1.405 . S
C119 C152 1.587 . S
C120 C119 1.405 . S
C120 C121 1.332 . S
C120 C123 1.496 . S
C121 C116 1.418 . S
C121 C120 1.332 . S
C121 H179 0.929 . S
C122 C118 1.527 . S
C122 H180 0.959 . S
C122 H181 0.961 . S
C122 H182 0.961 . S
C123 C120 1.496 . S
C123 H183 0.960 . S
C123 H184 0.960 . S
C123 H185 0.961 . S
C124 C125 1.517 . S
C124 H187 0.961 . S
C124 H188 0.960 . S
C124 H189 0.959 . S
C125 C124 1.517 . S
C125 O173 1.468 . S
C125 H186 0.980 . S
C126 C127 1.349 . S
C126 C131 1.367 . S
C126 O173 1.408 . S
C127 C126 1.349 . S
C127 C128 1.407 . S
C127 H190 0.930 . S
C128 C127 1.407 . S
C128 C129 1.449 . S
C128 C132 1.535 . S
C129 C128 1.449 . S
C129 C130 1.384 . S
C129 C154 1.553 . S
C130 C129 1.384 . S
C130 C131 1.364 . S
C130 C133 1.450 . S
C131 C126 1.367 . S
C131 C130 1.364 . S
C131 H191 0.931 . S
C132 C128 1.535 . S
C132 H192 0.959 . S
C132 H193 0.961 . S
C132 H194 0.959 . S
C133 C130 1.450 . S
C133 H195 0.960 . S
C133 H196 0.960 . S
C133 H197 0.960 . S
C134 C135 1.309 . S
C134 C139 1.304 . S
C134 O172 1.435 . S
C135 C134 1.309 . S
C135 C136 1.476 . S
C135 H199 0.930 . S
C136 C135 1.476 . S
C136 C137 1.400 . S
C136 C140 1.567 . S
C137 C136 1.400 . S
C137 C138 1.373 . S
C137 C159 1.432 . S
C138 C137 1.373 . S
C138 C139 1.339 . S
C138 C141 1.530 . S
C139 C134 1.304 . S
C139 C138 1.339 . S
C139 H200 0.930 . S
C140 C136 1.567 . S
C140 H201 0.961 . S
C140 H202 0.960 . S
C140 H203 0.958 . S
C141 C138 1.530 . S
C141 H204 0.961 . S
C141 H205 0.960 . S
C141 H206 0.960 . S
C142 C143 1.530 . S
C142 H208 0.961 . S
C142 H209 0.961 . S
C142 H210 0.959 . S
C143 C142 1.530 . S
C143 O171 1.412 1_545 S
C143 H207 0.980 . S
C144 C145 1.288 . S
C144 C149 1.377 . S
C144 O171 1.393 . S
C145 C144 1.288 . S
C145 C146 1.369 . S
C145 H211 0.932 . S
C146 C145 1.369 . S
C146 C147 1.398 . S
C146 C150 1.527 . S
C147 C146 1.398 . S
C147 C148 1.380 . S
C147 C161 1.497 . S
C148 C147 1.380 . S
C148 C149 1.383 . S
C148 C151 1.603 . S
C149 C144 1.377 . S
C149 C148 1.383 . S
C149 H212 0.929 . S
C150 C146 1.527 . S
C150 H213 0.961 . S
C150 H214 0.959 . S
C150 H215 0.959 . S
C151 C148 1.603 . S
C151 H216 0.960 . S
C151 H217 0.962 . S
C151 H218 0.961 . S
C152 C119 1.587 . S
C152 C153 1.360 . S
C152 C165 1.412 . S
C153 C152 1.360 . S
C153 C154 1.365 . S
C153 H219 0.929 . S
C154 C129 1.553 . S
C154 C153 1.365 . S
C154 C155 1.404 . S
C155 C154 1.404 . S
C155 C156 1.395 . S
C155 C166 1.451 . S
C156 C155 1.395 . S
C156 C157 1.322 . S
C156 H220 0.930 . S
C157 C156 1.322 . S
C157 C158 1.459 . S
C157 H221 0.929 . S
C158 C157 1.459 . S
C158 C159 1.445 . S
C158 C167 1.395 . S
C159 C137 1.432 . S
C159 C158 1.445 . S
C159 C160 1.370 . S
C160 C159 1.370 . S
C160 C161 1.438 . S
C160 H222 0.930 . S
C161 C147 1.497 . S
C161 C160 1.438 . S
C161 C162 1.360 . S
C162 C161 1.360 . S
C162 C163 1.401 . S
C162 C167 1.446 . S
C163 C162 1.401 . S
C163 C164 1.347 . S
C163 H223 0.929 . S
C164 C163 1.347 . S
C164 C165 1.455 . S
C164 H224 0.930 . S
C165 C152 1.412 . S
C165 C164 1.455 . S
C165 C166 1.331 . S
C166 C155 1.451 . S
C166 C165 1.331 . S
C166 C167 1.497 . S
C167 C158 1.395 . S
C167 C162 1.446 . S
C167 C166 1.497 . S
C168 C169 1.582 . S
C168 H225 0.962 . S
C168 H226 0.959 . S
C168 H227 0.958 . S
C169 C168 1.582 . S
C169 O172 1.458 . S
C169 H198 0.980 . S
O170 C115 1.426 1_565 S
O170 C116 1.334 . S
O171 C143 1.412 1_565 S
O171 C144 1.393 . S
O172 C134 1.435 . S
O172 C169 1.458 . S
O173 C125 1.468 . S
O173 C126 1.408 . S
H174 C115 0.980 1_565 S
H175 C114 0.959 . S
H176 C114 0.959 . S
H177 C114 0.960 . S
H178 C117 0.929 . S
H179 C121 0.929 . S
H180 C122 0.959 . S
H181 C122 0.961 . S
H182 C122 0.961 . S
H183 C123 0.960 . S
H184 C123 0.960 . S
H185 C123 0.961 . S
H186 C125 0.980 . S
H187 C124 0.961 . S
H188 C124 0.960 . S
H189 C124 0.959 . S
H190 C127 0.930 . S
H191 C131 0.931 . S
H192 C132 0.959 . S
H193 C132 0.961 . S
H194 C132 0.959 . S
H195 C133 0.960 . S
H196 C133 0.960 . S
H197 C133 0.960 . S
H198 C169 0.980 . S
H199 C135 0.930 . S
H200 C139 0.930 . S
H201 C140 0.961 . S
H202 C140 0.960 . S
H203 C140 0.958 . S
H204 C141 0.961 . S
H205 C141 0.960 . S
H206 C141 0.960 . S
H207 C143 0.980 . S
H208 C142 0.961 . S
H209 C142 0.961 . S
H210 C142 0.959 . S
H211 C145 0.932 . S
H212 C149 0.929 . S
H213 C150 0.961 . S
H214 C150 0.959 . S
H215 C150 0.959 . S
H216 C151 0.960 . S
H217 C151 0.962 . S
H218 C151 0.961 . S
H219 C153 0.929 . S
H220 C156 0.930 . S
H221 C157 0.929 . S
H222 C160 0.930 . S
H223 C163 0.929 . S
H224 C164 0.930 . S
H225 C168 0.962 . S
H226 C168 0.959 . S
H227 C168 0.958 . S
C228 C229 1.560 . S
C228 H289 0.959 . S
C228 H290 0.959 . S
C228 H291 0.960 . S
C229 C228 1.560 . S
C229 O284 1.426 . S
C229 H288 0.980 . S
C230 C231 1.407 . S
C230 C235 1.418 . S
C230 O284 1.334 . S
C231 C230 1.407 . S
C231 C232 1.360 . S
C231 H292 0.929 . S
C232 C231 1.360 . S
C232 C233 1.401 . S
C232 C236 1.527 . S
C233 C232 1.401 . S
C233 C234 1.405 . S
C233 C266 1.587 . S
C234 C233 1.405 . S
C234 C235 1.332 . S
C234 C237 1.496 1_565 S
C235 C230 1.418 . S
C235 C234 1.332 . S
C235 H293 0.929 . S
C236 C232 1.527 . S
C236 H294 0.959 . S
C236 H295 0.961 . S
C236 H296 0.961 . S
C237 C234 1.496 1_545 S
C237 H297 0.960 . S
C237 H298 0.960 1_545 S
C237 H299 0.961 . S
C238 C239 1.517 . S
C238 H301 0.961 . S
C238 H302 0.960 . S
C238 H303 0.959 . S
C239 C238 1.517 . S
C239 O287 1.468 . S
C239 H300 0.980 . S
C240 C241 1.349 . S
C240 C245 1.367 . S
C240 O287 1.408 . S
C241 C240 1.349 . S
C241 C242 1.407 . S
C241 H304 0.930 . S
C242 C241 1.407 . S
C242 C243 1.449 . S
C242 C246 1.535 . S
C243 C242 1.449 . S
C243 C244 1.384 . S
C243 C268 1.553 . S
C244 C243 1.384 . S
C244 C245 1.364 . S
C244 C247 1.450 . S
C245 C240 1.367 . S
C245 C244 1.364 . S
C245 H305 0.931 . S
C246 C242 1.535 . S
C246 H306 0.959 . S
C246 H307 0.961 . S
C246 H308 0.959 . S
C247 C244 1.450 . S
C247 H309 0.960 . S
C247 H310 0.960 . S
C247 H311 0.960 . S
C248 C249 1.309 . S
C248 C253 1.304 . S
C248 O286 1.435 . S
C249 C248 1.309 . S
C249 C250 1.476 . S
C249 H313 0.930 . S
C250 C249 1.476 . S
C250 C251 1.400 . S
C250 C254 1.567 . S
C251 C250 1.400 . S
C251 C252 1.373 . S
C251 C273 1.432 . S
C252 C251 1.373 . S
C252 C253 1.339 . S
C252 C255 1.530 1_545 S
C253 C248 1.304 . S
C253 C252 1.339 . S
C253 H314 0.930 1_545 S
C254 C250 1.567 . S
C254 H315 0.961 . S
C254 H316 0.960 . S
C254 H317 0.958 . S
C255 C252 1.530 1_565 S
C255 H318 0.961 . S
C255 H319 0.960 . S
C255 H320 0.960 . S
C256 C257 1.530 . S
C256 H322 0.961 . S
C256 H323 0.961 . S
C256 H324 0.959 . S
C257 C256 1.530 . S
C257 O285 1.412 . S
C257 H321 0.980 . S
C258 C259 1.288 . S
C258 C263 1.377 . S
C258 O285 1.393 . S
C259 C258 1.288 . S
C259 C260 1.369 . S
C259 H325 0.932 . S
C260 C259 1.369 . S
C260 C261 1.398 . S
C260 C264 1.527 . S
C261 C260 1.398 . S
C261 C262 1.380 . S
C261 C275 1.497 . S
C262 C261 1.380 . S
C262 C263 1.383 . S
C262 C265 1.603 1_545 S
C263 C258 1.377 . S
C263 C262 1.383 . S
C263 H326 0.929 . S
C264 C260 1.527 . S
C264 H327 0.961 . S
C264 H328 0.959 . S
C264 H329 0.959 . S
C265 C262 1.603 1_565 S
C265 H330 0.960 . S
C265 H331 0.962 . S
C265 H332 0.961 . S
C266 C233 1.587 . S
C266 C267 1.360 . S
C266 C279 1.412 . S
C267 C266 1.360 . S
C267 C268 1.365 . S
C267 H333 0.929 . S
C268 C243 1.553 . S
C268 C267 1.365 . S
C268 C269 1.404 . S
C269 C268 1.404 . S
C269 C270 1.395 . S
C269 C280 1.451 . S
C270 C269 1.395 . S
C270 C271 1.322 1_554 S
C270 H334 0.930 . S
C271 C270 1.322 1_556 S
C271 C272 1.459 . S
C271 H335 0.929 . S
C272 C271 1.459 . S
C272 C273 1.445 1_565 S
C272 C281 1.395 . S
C273 C251 1.432 . S
C273 C272 1.445 1_545 S
C273 C274 1.370 . S
C274 C273 1.370 . S
C274 C275 1.438 . S
C274 H336 0.930 . S
C275 C261 1.497 . S
C275 C274 1.438 . S
C275 C276 1.360 . S
C276 C275 1.360 . S
C276 C277 1.401 . S
C276 C281 1.446 1_545 S
C277 C276 1.401 . S
C277 C278 1.347 1_546 S
C277 H337 0.929 . S
C278 C277 1.347 1_564 S
C278 C279 1.455 . S
C278 H338 0.930 . S
C279 C266 1.412 . S
C279 C278 1.455 . S
C279 C280 1.331 . S
C280 C269 1.451 . S
C280 C279 1.331 . S
C280 C281 1.497 1_554 S
C281 C272 1.395 . S
C281 C276 1.446 1_565 S
C281 C280 1.497 1_556 S
C282 C283 1.582 . S
C282 H339 0.962 . S
C282 H340 0.959 . S
C282 H341 0.958 . S
C283 C282 1.582 . S
C283 O286 1.458 . S
C283 H312 0.980 . S
O284 C229 1.426 . S
O284 C230 1.334 . S
O285 C257 1.412 . S
O285 C258 1.393 . S
O286 C248 1.435 . S
O286 C283 1.458 . S
O287 C239 1.468 . S
O287 C240 1.408 . S
H288 C229 0.980 . S
H289 C228 0.959 . S
H290 C228 0.959 . S
H291 C228 0.960 . S
H292 C231 0.929 . S
H293 C235 0.929 . S
H294 C236 0.959 . S
H295 C236 0.961 . S
H296 C236 0.961 . S
H297 C237 0.960 . S
H298 C237 0.960 1_565 S
H299 C237 0.961 . S
H300 C239 0.980 . S
H301 C238 0.961 . S
H302 C238 0.960 . S
H303 C238 0.959 . S
H304 C241 0.930 . S
H305 C245 0.931 . S
H306 C246 0.959 . S
H307 C246 0.961 . S
H308 C246 0.959 . S
H309 C247 0.960 . S
H310 C247 0.960 . S
H311 C247 0.960 . S
H312 C283 0.980 . S
H313 C249 0.930 . S
H314 C253 0.930 1_565 S
H315 C254 0.961 . S
H316 C254 0.960 . S
H317 C254 0.958 . S
H318 C255 0.961 . S
H319 C255 0.960 . S
H320 C255 0.960 . S
H321 C257 0.980 . S
H322 C256 0.961 . S
H323 C256 0.961 . S
H324 C256 0.959 . S
H325 C259 0.932 . S
H326 C263 0.929 . S
H327 C264 0.961 . S
H328 C264 0.959 . S
H329 C264 0.959 . S
H330 C265 0.960 . S
H331 C265 0.962 . S
H332 C265 0.961 . S
H333 C267 0.929 . S
H334 C270 0.930 . S
H335 C271 0.929 . S
H336 C274 0.930 . S
H337 C277 0.929 . S
H338 C278 0.930 . S
H339 C282 0.962 . S
H340 C282 0.959 . S
H341 C282 0.958 . S
C342 C343 1.560 1_565 S
C342 H403 0.959 1_565 S
C342 H404 0.959 . S
C342 H405 0.960 . S
C343 C342 1.560 1_545 S
C343 O398 1.426 . S
C343 H402 0.980 . S
C344 C345 1.407 . S
C344 C349 1.418 . S
C344 O398 1.334 . S
C345 C344 1.407 . S
C345 C346 1.360 . S
C345 H406 0.929 . S
C346 C345 1.360 . S
C346 C347 1.401 . S
C346 C350 1.527 . S
C347 C346 1.401 . S
C347 C348 1.405 . S
C347 C380 1.587 . S
C348 C347 1.405 . S
C348 C349 1.332 . S
C348 C351 1.496 . S
C349 C344 1.418 . S
C349 C348 1.332 . S
C349 H407 0.929 . S
C350 C346 1.527 . S
C350 H408 0.959 . S
C350 H409 0.961 . S
C350 H410 0.961 . S
C351 C348 1.496 . S
C351 H411 0.960 . S
C351 H412 0.960 . S
C351 H413 0.961 . S
C352 C353 1.517 . S
C352 H415 0.961 . S
C352 H416 0.960 . S
C352 H417 0.959 . S
C353 C352 1.517 . S
C353 O401 1.468 . S
C353 H414 0.980 . S
C354 C355 1.349 . S
C354 C359 1.367 . S
C354 O401 1.408 . S
C355 C354 1.349 . S
C355 C356 1.407 . S
C355 H418 0.930 . S
C356 C355 1.407 . S
C356 C357 1.449 . S
C356 C360 1.535 . S
C357 C356 1.449 . S
C357 C358 1.384 . S
C357 C382 1.553 . S
C358 C357 1.384 . S
C358 C359 1.364 . S
C358 C361 1.450 . S
C359 C354 1.367 . S
C359 C358 1.364 . S
C359 H419 0.931 . S
C360 C356 1.535 . S
C360 H420 0.959 . S
C360 H421 0.961 . S
C360 H422 0.959 . S
C361 C358 1.450 . S
C361 H423 0.960 . S
C361 H424 0.960 . S
C361 H425 0.960 . S
C362 C363 1.309 . S
C362 C367 1.304 . S
C362 O400 1.435 . S
C363 C362 1.309 . S
C363 C364 1.476 . S
C363 H427 0.930 . S
C364 C363 1.476 . S
C364 C365 1.400 . S
C364 C368 1.567 . S
C365 C364 1.400 . S
C365 C366 1.373 . S
C365 C387 1.432 . S
C366 C365 1.373 . S
C366 C367 1.339 . S
C366 C369 1.530 . S
C367 C362 1.304 . S
C367 C366 1.339 . S
C367 H428 0.930 . S
C368 C364 1.567 . S
C368 H429 0.961 . S
C368 H430 0.960 . S
C368 H431 0.958 . S
C369 C366 1.530 . S
C369 H432 0.961 . S
C369 H433 0.960 . S
C369 H434 0.960 . S
C370 C371 1.530 1_565 S
C370 H436 0.961 . S
C370 H437 0.961 . S
C370 H438 0.959 . S
C371 C370 1.530 1_545 S
C371 O399 1.412 . S
C371 H435 0.980 1_545 S
C372 C373 1.288 . S
C372 C377 1.377 . S
C372 O399 1.393 . S
C373 C372 1.288 . S
C373 C374 1.369 . S
C373 H439 0.932 . S
C374 C373 1.369 . S
C374 C375 1.398 . S
C374 C378 1.527 . S
C375 C374 1.398 . S
C375 C376 1.380 . S
C375 C389 1.497 . S
C376 C375 1.380 . S
C376 C377 1.383 . S
C376 C379 1.603 . S
C377 C372 1.377 . S
C377 C376 1.383 . S
C377 H440 0.929 . S
C378 C374 1.527 . S
C378 H441 0.961 . S
C378 H442 0.959 . S
C378 H443 0.959 . S
C379 C376 1.603 . S
C379 H444 0.960 . S
C379 H445 0.962 . S
C379 H446 0.961 . S
C380 C347 1.587 . S
C380 C381 1.360 . S
C380 C393 1.412 . S
C381 C380 1.360 . S
C381 C382 1.365 . S
C381 H447 0.929 . S
C382 C357 1.553 . S
C382 C381 1.365 . S
C382 C383 1.404 . S
C383 C382 1.404 . S
C383 C384 1.395 . S
C383 C394 1.451 . S
C384 C383 1.395 . S
C384 C385 1.322 . S
C384 H448 0.930 . S
C385 C384 1.322 . S
C385 C386 1.459 . S
C385 H449 0.929 . S
C386 C385 1.459 . S
C386 C387 1.445 . S
C386 C395 1.395 . S
C387 C365 1.432 . S
C387 C386 1.445 . S
C387 C388 1.370 . S
C388 C387 1.370 . S
C388 C389 1.438 . S
C388 H450 0.930 . S
C389 C375 1.497 . S
C389 C388 1.438 . S
C389 C390 1.360 . S
C390 C389 1.360 . S
C390 C391 1.401 . S
C390 C395 1.446 . S
C391 C390 1.401 . S
C391 C392 1.347 . S
C391 H451 0.929 . S
C392 C391 1.347 . S
C392 C393 1.455 . S
C392 H452 0.930 . S
C393 C380 1.412 . S
C393 C392 1.455 . S
C393 C394 1.331 . S
C394 C383 1.451 . S
C394 C393 1.331 . S
C394 C395 1.497 . S
C395 C386 1.395 . S
C395 C390 1.446 . S
C395 C394 1.497 . S
C396 C397 1.582 . S
C396 H453 0.962 . S
C396 H454 0.959 . S
C396 H455 0.958 . S
C397 C396 1.582 . S
C397 O400 1.458 . S
C397 H426 0.980 . S
O398 C343 1.426 . S
O398 C344 1.334 . S
O399 C371 1.412 . S
O399 C372 1.393 . S
O400 C362 1.435 . S
O400 C397 1.458 . S
O401 C353 1.468 . S
O401 C354 1.408 . S
H402 C343 0.980 . S
H403 C342 0.959 1_545 S
H404 C342 0.959 . S
H405 C342 0.960 . S
H406 C345 0.929 . S
H407 C349 0.929 . S
H408 C350 0.959 . S
H409 C350 0.961 . S
H410 C350 0.961 . S
H411 C351 0.960 . S
H412 C351 0.960 . S
H413 C351 0.961 . S
H414 C353 0.980 . S
H415 C352 0.961 . S
H416 C352 0.960 . S
H417 C352 0.959 . S
H418 C355 0.930 . S
H419 C359 0.931 . S
H420 C360 0.959 . S
H421 C360 0.961 . S
H422 C360 0.959 . S
H423 C361 0.960 . S
H424 C361 0.960 . S
H425 C361 0.960 . S
H426 C397 0.980 . S
H427 C363 0.930 . S
H428 C367 0.930 . S
H429 C368 0.961 . S
H430 C368 0.960 . S
H431 C368 0.958 . S
H432 C369 0.961 . S
H433 C369 0.960 . S
H434 C369 0.960 . S
H435 C371 0.980 1_565 S
H436 C370 0.961 . S
H437 C370 0.961 . S
H438 C370 0.959 . S
H439 C373 0.932 . S
H440 C377 0.929 . S
H441 C378 0.961 . S
H442 C378 0.959 . S
H443 C378 0.959 . S
H444 C379 0.960 . S
H445 C379 0.962 . S
H446 C379 0.961 . S
H447 C381 0.929 . S
H448 C384 0.930 . S
H449 C385 0.929 . S
H450 C388 0.930 . S
H451 C391 0.929 . S
H452 C392 0.930 . S
H453 C396 0.962 . S
H454 C396 0.959 . S
H455 C396 0.958 . S
C456 C457 1.560 . S
C456 H517 0.959 . S
C456 H518 0.959 . S
C456 H519 0.960 . S
C457 C456 1.560 . S
C457 O512 1.426 . S
C457 H516 0.980 . S
C458 C459 1.407 . S
C458 C463 1.418 . S
C458 O512 1.334 . S
C459 C458 1.407 . S
C459 C460 1.360 . S
C459 H520 0.929 . S
C460 C459 1.360 . S
C460 C461 1.401 . S
C460 C464 1.527 . S
C461 C460 1.401 . S
C461 C462 1.405 . S
C461 C494 1.587 . S
C462 C461 1.405 . S
C462 C463 1.332 . S
C462 C465 1.496 . S
C463 C458 1.418 . S
C463 C462 1.332 . S
C463 H521 0.929 . S
C464 C460 1.527 . S
C464 H522 0.959 . S
C464 H523 0.961 . S
C464 H524 0.961 . S
C465 C462 1.496 . S
C465 H525 0.960 . S
C465 H526 0.960 . S
C465 H527 0.961 . S
C466 C467 1.517 . S
C466 H529 0.961 . S
C466 H530 0.960 . S
C466 H531 0.959 . S
C467 C466 1.517 . S
C467 O515 1.468 1_565 S
C467 H528 0.980 1_565 S
C468 C469 1.349 . S
C468 C473 1.367 . S
C468 O515 1.408 . S
C469 C468 1.349 . S
C469 C470 1.407 . S
C469 H532 0.930 . S
C470 C469 1.407 . S
C470 C471 1.449 . S
C470 C474 1.535 . S
C471 C470 1.449 . S
C471 C472 1.384 . S
C471 C496 1.553 . S
C472 C471 1.384 . S
C472 C473 1.364 . S
C472 C475 1.450 . S
C473 C468 1.367 . S
C473 C472 1.364 . S
C473 H533 0.931 . S
C474 C470 1.535 . S
C474 H534 0.959 . S
C474 H535 0.961 . S
C474 H536 0.959 . S
C475 C472 1.450 . S
C475 H537 0.960 . S
C475 H538 0.960 . S
C475 H539 0.960 . S
C476 C477 1.309 . S
C476 C481 1.304 . S
C476 O514 1.435 . S
C477 C476 1.309 . S
C477 C478 1.476 . S
C477 H541 0.930 . S
C478 C477 1.476 . S
C478 C479 1.400 . S
C478 C482 1.567 . S
C479 C478 1.400 . S
C479 C480 1.373 . S
C479 C501 1.432 . S
C480 C479 1.373 . S
C480 C481 1.339 . S
C480 C483 1.530 . S
C481 C476 1.304 . S
C481 C480 1.339 . S
C481 H542 0.930 . S
C482 C478 1.567 . S
C482 H543 0.961 . S
C482 H544 0.960 . S
C482 H545 0.958 . S
C483 C480 1.530 . S
C483 H546 0.961 . S
C483 H547 0.960 . S
C483 H548 0.960 . S
C484 C485 1.530 . S
C484 H550 0.961 . S
C484 H551 0.961 . S
C484 H552 0.959 . S
C485 C484 1.530 . S
C485 O513 1.412 . S
C485 H549 0.980 . S
C486 C487 1.288 . S
C486 C491 1.377 . S
C486 O513 1.393 . S
C487 C486 1.288 . S
C487 C488 1.369 . S
C487 H553 0.932 . S
C488 C487 1.369 . S
C488 C489 1.398 . S
C488 C492 1.527 . S
C489 C488 1.398 . S
C489 C490 1.380 . S
C489 C503 1.497 . S
C490 C489 1.380 . S
C490 C491 1.383 . S
C490 C493 1.603 . S
C491 C486 1.377 . S
C491 C490 1.383 . S
C491 H554 0.929 . S
C492 C488 1.527 . S
C492 H555 0.961 . S
C492 H556 0.959 . S
C492 H557 0.959 . S
C493 C490 1.603 . S
C493 H558 0.960 . S
C493 H559 0.962 . S
C493 H560 0.961 . S
C494 C461 1.587 . S
C494 C495 1.360 . S
C494 C507 1.412 . S
C495 C494 1.360 . S
C495 C496 1.365 . S
C495 H561 0.929 . S
C496 C471 1.553 . S
C496 C495 1.365 . S
C496 C497 1.404 . S
C497 C496 1.404 . S
C497 C498 1.395 . S
C497 C508 1.451 . S
C498 C497 1.395 . S
C498 C499 1.322 . S
C498 H562 0.930 . S
C499 C498 1.322 . S
C499 C500 1.459 . S
C499 H563 0.929 . S
C500 C499 1.459 . S
C500 C501 1.445 . S
C500 C509 1.395 . S
C501 C479 1.432 . S
C501 C500 1.445 . S
C501 C502 1.370 . S
C502 C501 1.370 . S
C502 C503 1.438 . S
C502 H564 0.930 . S
C503 C489 1.497 . S
C503 C502 1.438 . S
C503 C504 1.360 . S
C504 C503 1.360 . S
C504 C505 1.401 . S
C504 C509 1.446 . S
C505 C504 1.401 . S
C505 C506 1.347 . S
C505 H565 0.929 . S
C506 C505 1.347 . S
C506 C507 1.455 . S
C506 H566 0.930 . S
C507 C494 1.412 . S
C507 C506 1.455 . S
C507 C508 1.331 . S
C508 C497 1.451 . S
C508 C507 1.331 . S
C508 C509 1.497 . S
C509 C500 1.395 . S
C509 C504 1.446 . S
C509 C508 1.497 . S
C510 C511 1.582 . S
C510 H567 0.962 . S
C510 H568 0.959 . S
C510 H569 0.958 . S
C511 C510 1.582 . S
C511 O514 1.458 1_565 S
C511 H540 0.980 . S
O512 C457 1.426 . S
O512 C458 1.334 . S
O513 C485 1.412 . S
O513 C486 1.393 . S
O514 C476 1.435 . S
O514 C511 1.458 1_545 S
O515 C467 1.468 1_545 S
O515 C468 1.408 . S
H516 C457 0.980 . S
H517 C456 0.959 . S
H518 C456 0.959 . S
H519 C456 0.960 . S
H520 C459 0.929 . S
H521 C463 0.929 . S
H522 C464 0.959 . S
H523 C464 0.961 . S
H524 C464 0.961 . S
H525 C465 0.960 . S
H526 C465 0.960 . S
H527 C465 0.961 . S
H528 C467 0.980 1_545 S
H529 C466 0.961 . S
H530 C466 0.960 . S
H531 C466 0.959 . S
H532 C469 0.930 . S
H533 C473 0.931 . S
H534 C474 0.959 . S
H535 C474 0.961 . S
H536 C474 0.959 . S
H537 C475 0.960 . S
H538 C475 0.960 . S
H539 C475 0.960 . S
H540 C511 0.980 . S
H541 C477 0.930 . S
H542 C481 0.930 . S
H543 C482 0.961 . S
H544 C482 0.960 . S
H545 C482 0.958 . S
H546 C483 0.961 . S
H547 C483 0.960 . S
H548 C483 0.960 . S
H549 C485 0.980 . S
H550 C484 0.961 . S
H551 C484 0.961 . S
H552 C484 0.959 . S
H553 C487 0.932 . S
H554 C491 0.929 . S
H555 C492 0.961 . S
H556 C492 0.959 . S
H557 C492 0.959 . S
H558 C493 0.960 . S
H559 C493 0.962 . S
H560 C493 0.961 . S
H561 C495 0.929 . S
H562 C498 0.930 . S
H563 C499 0.929 . S
H564 C502 0.930 . S
H565 C505 0.929 . S
H566 C506 0.930 . S
H567 C510 0.962 . S
H568 C510 0.959 . S
H569 C510 0.958 . S
C570 C571 1.560 . S
C570 H631 0.959 . S
C570 H632 0.959 . S
C570 H633 0.960 . S
C571 C570 1.560 . S
C571 O626 1.426 . S
C571 H630 0.980 . S
C572 C573 1.407 . S
C572 C577 1.418 . S
C572 O626 1.334 . S
C573 C572 1.407 . S
C573 C574 1.360 . S
C573 H634 0.929 . S
C574 C573 1.360 . S
C574 C575 1.401 . S
C574 C578 1.527 . S
C575 C574 1.401 . S
C575 C576 1.405 . S
C575 C608 1.587 . S
C576 C575 1.405 . S
C576 C577 1.332 . S
C576 C579 1.496 . S
C577 C572 1.418 . S
C577 C576 1.332 . S
C577 H635 0.929 . S
C578 C574 1.527 . S
C578 H636 0.959 . S
C578 H637 0.961 . S
C578 H638 0.961 . S
C579 C576 1.496 . S
C579 H639 0.960 . S
C579 H640 0.960 . S
C579 H641 0.961 . S
C580 C581 1.517 . S
C580 H643 0.961 . S
C580 H644 0.960 . S
C580 H645 0.959 . S
C581 C580 1.517 . S
C581 O629 1.468 1_545 S
C581 H642 0.980 1_545 S
C582 C583 1.349 . S
C582 C587 1.367 . S
C582 O629 1.408 . S
C583 C582 1.349 . S
C583 C584 1.407 . S
C583 H646 0.930 . S
C584 C583 1.407 . S
C584 C585 1.449 . S
C584 C588 1.535 . S
C585 C584 1.449 . S
C585 C586 1.384 . S
C585 C610 1.553 . S
C586 C585 1.384 . S
C586 C587 1.364 . S
C586 C589 1.450 . S
C587 C582 1.367 . S
C587 C586 1.364 . S
C587 H647 0.931 . S
C588 C584 1.535 . S
C588 H648 0.959 . S
C588 H649 0.961 . S
C588 H650 0.959 . S
C589 C586 1.450 . S
C589 H651 0.960 . S
C589 H652 0.960 . S
C589 H653 0.960 . S
C590 C591 1.309 . S
C590 C595 1.304 . S
C590 O628 1.435 . S
C591 C590 1.309 . S
C591 C592 1.476 . S
C591 H655 0.930 . S
C592 C591 1.476 . S
C592 C593 1.400 . S
C592 C596 1.567 . S
C593 C592 1.400 . S
C593 C594 1.373 . S
C593 C615 1.432 . S
C594 C593 1.373 . S
C594 C595 1.339 . S
C594 C597 1.530 . S
C595 C590 1.304 . S
C595 C594 1.339 . S
C595 H656 0.930 . S
C596 C592 1.567 . S
C596 H657 0.961 . S
C596 H658 0.960 . S
C596 H659 0.958 . S
C597 C594 1.530 . S
C597 H660 0.961 . S
C597 H661 0.960 . S
C597 H662 0.960 . S
C598 C599 1.530 . S
C598 H664 0.961 . S
C598 H665 0.961 . S
C598 H666 0.959 . S
C599 C598 1.530 . S
C599 O627 1.412 . S
C599 H663 0.980 . S
C600 C601 1.288 . S
C600 C605 1.377 . S
C600 O627 1.393 . S
C601 C600 1.288 . S
C601 C602 1.369 . S
C601 H667 0.932 . S
C602 C601 1.369 . S
C602 C603 1.398 . S
C602 C606 1.527 . S
C603 C602 1.398 . S
C603 C604 1.380 . S
C603 C617 1.497 . S
C604 C603 1.380 . S
C604 C605 1.383 . S
C604 C607 1.603 . S
C605 C600 1.377 . S
C605 C604 1.383 . S
C605 H668 0.929 . S
C606 C602 1.527 . S
C606 H669 0.961 . S
C606 H670 0.959 . S
C606 H671 0.959 . S
C607 C604 1.603 . S
C607 H672 0.960 . S
C607 H673 0.962 . S
C607 H674 0.961 . S
C608 C575 1.587 . S
C608 C609 1.360 . S
C608 C621 1.412 . S
C609 C608 1.360 . S
C609 C610 1.365 . S
C609 H675 0.929 . S
C610 C585 1.553 . S
C610 C609 1.365 . S
C610 C611 1.404 . S
C611 C610 1.404 . S
C611 C612 1.395 . S
C611 C622 1.451 . S
C612 C611 1.395 . S
C612 C613 1.322 . S
C612 H676 0.930 . S
C613 C612 1.322 . S
C613 C614 1.459 . S
C613 H677 0.929 . S
C614 C613 1.459 . S
C614 C615 1.445 . S
C614 C623 1.395 . S
C615 C593 1.432 . S
C615 C614 1.445 . S
C615 C616 1.370 . S
C616 C615 1.370 . S
C616 C617 1.438 . S
C616 H678 0.930 . S
C617 C603 1.497 . S
C617 C616 1.438 . S
C617 C618 1.360 . S
C618 C617 1.360 . S
C618 C619 1.401 . S
C618 C623 1.446 . S
C619 C618 1.401 . S
C619 C620 1.347 . S
C619 H679 0.929 . S
C620 C619 1.347 . S
C620 C621 1.455 . S
C620 H680 0.930 . S
C621 C608 1.412 . S
C621 C620 1.455 . S
C621 C622 1.331 . S
C622 C611 1.451 . S
C622 C621 1.331 . S
C622 C623 1.497 . S
C623 C614 1.395 . S
C623 C618 1.446 . S
C623 C622 1.497 . S
C624 C625 1.582 . S
C624 H681 0.962 . S
C624 H682 0.959 . S
C624 H683 0.958 . S
C625 C624 1.582 . S
C625 O628 1.458 1_545 S
C625 H654 0.980 . S
O626 C571 1.426 . S
O626 C572 1.334 . S
O627 C599 1.412 . S
O627 C600 1.393 . S
O628 C590 1.435 . S
O628 C625 1.458 1_565 S
O629 C581 1.468 1_565 S
O629 C582 1.408 . S
H630 C571 0.980 . S
H631 C570 0.959 . S
H632 C570 0.959 . S
H633 C570 0.960 . S
H634 C573 0.929 . S
H635 C577 0.929 . S
H636 C578 0.959 . S
H637 C578 0.961 . S
H638 C578 0.961 . S
H639 C579 0.960 . S
H640 C579 0.960 . S
H641 C579 0.961 . S
H642 C581 0.980 1_565 S
H643 C580 0.961 . S
H644 C580 0.960 . S
H645 C580 0.959 . S
H646 C583 0.930 . S
H647 C587 0.931 . S
H648 C588 0.959 . S
H649 C588 0.961 . S
H650 C588 0.959 . S
H651 C589 0.960 . S
H652 C589 0.960 . S
H653 C589 0.960 . S
H654 C625 0.980 . S
H655 C591 0.930 . S
H656 C595 0.930 . S
H657 C596 0.961 . S
H658 C596 0.960 . S
H659 C596 0.958 . S
H660 C597 0.961 . S
H661 C597 0.960 . S
H662 C597 0.960 . S
H663 C599 0.980 . S
H664 C598 0.961 . S
H665 C598 0.961 . S
H666 C598 0.959 . S
H667 C601 0.932 . S
H668 C605 0.929 . S
H669 C606 0.961 . S
H670 C606 0.959 . S
H671 C606 0.959 . S
H672 C607 0.960 . S
H673 C607 0.962 . S
H674 C607 0.961 . S
H675 C609 0.929 . S
H676 C612 0.930 . S
H677 C613 0.929 . S
H678 C616 0.930 . S
H679 C619 0.929 . S
H680 C620 0.930 . S
H681 C624 0.962 . S
H682 C624 0.959 . S
H683 C624 0.958 . S
C684 C685 1.560 . S
C684 H745 0.959 . S
C684 H746 0.959 . S
C684 H747 0.960 . S
C685 C684 1.560 . S
C685 O740 1.426 . S
C685 H744 0.980 . S
C686 C687 1.407 . S
C686 C691 1.418 . S
C686 O740 1.334 . S
C687 C686 1.407 . S
C687 C688 1.360 . S
C687 H748 0.929 . S
C688 C687 1.360 . S
C688 C689 1.401 . S
C688 C692 1.527 . S
C689 C688 1.401 . S
C689 C690 1.405 . S
C689 C722 1.587 . S
C690 C689 1.405 . S
C690 C691 1.332 . S
C690 C693 1.496 . S
C691 C686 1.418 . S
C691 C690 1.332 . S
C691 H749 0.929 . S
C692 C688 1.527 . S
C692 H750 0.959 . S
C692 H751 0.961 . S
C692 H752 0.961 . S
C693 C690 1.496 . S
C693 H753 0.960 . S
C693 H754 0.960 . S
C693 H755 0.961 . S
C694 C695 1.517 . S
C694 H757 0.961 . S
C694 H758 0.960 . S
C694 H759 0.959 . S
C695 C694 1.517 . S
C695 O743 1.468 . S
C695 H756 0.980 . S
C696 C697 1.349 . S
C696 C701 1.367 . S
C696 O743 1.408 . S
C697 C696 1.349 . S
C697 C698 1.407 . S
C697 H760 0.930 . S
C698 C697 1.407 . S
C698 C699 1.449 . S
C698 C702 1.535 . S
C699 C698 1.449 . S
C699 C700 1.384 . S
C699 C724 1.553 . S
C700 C699 1.384 . S
C700 C701 1.364 . S
C700 C703 1.450 . S
C701 C696 1.367 . S
C701 C700 1.364 . S
C701 H761 0.931 . S
C702 C698 1.535 . S
C702 H762 0.959 . S
C702 H763 0.961 . S
C702 H764 0.959 . S
C703 C700 1.450 . S
C703 H765 0.960 . S
C703 H766 0.960 . S
C703 H767 0.960 . S
C704 C705 1.309 . S
C704 C709 1.304 . S
C704 O742 1.435 . S
C705 C704 1.309 . S
C705 C706 1.476 . S
C705 H769 0.930 . S
C706 C705 1.476 . S
C706 C707 1.400 . S
C706 C710 1.567 . S
C707 C706 1.400 . S
C707 C708 1.373 . S
C707 C729 1.432 . S
C708 C707 1.373 . S
C708 C709 1.339 . S
C708 C711 1.530 . S
C709 C704 1.304 . S
C709 C708 1.339 . S
C709 H770 0.930 . S
C710 C706 1.567 . S
C710 H771 0.961 . S
C710 H772 0.960 . S
C710 H773 0.958 . S
C711 C708 1.530 . S
C711 H774 0.961 . S
C711 H775 0.960 1_556 S
C711 H776 0.960 . S
C712 C713 1.530 . S
C712 H778 0.961 . S
C712 H779 0.961 . S
C712 H780 0.959 . S
C713 C712 1.530 . S
C713 O741 1.412 . S
C713 H777 0.980 . S
C714 C715 1.288 . S
C714 C719 1.377 . S
C714 O741 1.393 . S
C715 C714 1.288 . S
C715 C716 1.369 . S
C715 H781 0.932 . S
C716 C715 1.369 . S
C716 C717 1.398 . S
C716 C720 1.527 . S
C717 C716 1.398 . S
C717 C718 1.380 . S
C717 C731 1.497 . S
C718 C717 1.380 . S
C718 C719 1.383 . S
C718 C721 1.603 . S
C719 C714 1.377 . S
C719 C718 1.383 . S
C719 H782 0.929 . S
C720 C716 1.527 . S
C720 H783 0.961 . S
C720 H784 0.959 . S
C720 H785 0.959 . S
C721 C718 1.603 . S
C721 H786 0.960 . S
C721 H787 0.962 . S
C721 H788 0.961 . S
C722 C689 1.587 . S
C722 C723 1.360 . S
C722 C735 1.412 . S
C723 C722 1.360 . S
C723 C724 1.365 . S
C723 H789 0.929 . S
C724 C699 1.553 . S
C724 C723 1.365 . S
C724 C725 1.404 . S
C725 C724 1.404 . S
C725 C726 1.395 . S
C725 C736 1.451 . S
C726 C725 1.395 . S
C726 C727 1.322 . S
C726 H790 0.930 . S
C727 C726 1.322 . S
C727 C728 1.432 1_554 S
C727 H791 0.929 . S
C728 C727 1.432 1_556 S
C728 C729 1.491 . S
C728 C737 1.378 1_556 S
C729 C707 1.432 . S
C729 C728 1.491 . S
C729 C730 1.370 . S
C730 C729 1.370 . S
C730 C731 1.438 . S
C730 H792 0.930 . S
C731 C717 1.497 . S
C731 C730 1.438 . S
C731 C732 1.360 . S
C732 C731 1.360 . S
C732 C733 1.401 1_556 S
C732 C737 1.446 1_556 S
C733 C732 1.401 1_554 S
C733 C734 1.347 . S
C733 H793 0.929 1_554 S
C734 C733 1.347 . S
C734 C735 1.455 . S
C734 H794 0.930 . S
C735 C722 1.412 . S
C735 C734 1.455 . S
C735 C736 1.331 . S
C736 C725 1.451 . S
C736 C735 1.331 . S
C736 C737 1.497 . S
C737 C728 1.378 1_554 S
C737 C732 1.446 1_554 S
C737 C736 1.497 . S
C738 C739 1.582 . S
C738 H795 0.962 . S
C738 H796 0.959 . S
C738 H797 0.958 . S
C739 C738 1.582 . S
C739 O742 1.458 . S
C739 H768 0.980 . S
O740 C685 1.426 . S
O740 C686 1.334 . S
O741 C713 1.412 . S
O741 C714 1.393 . S
O742 C704 1.435 . S
O742 C739 1.458 . S
O743 C695 1.468 . S
O743 C696 1.408 . S
H744 C685 0.980 . S
H745 C684 0.959 . S
H746 C684 0.959 . S
H747 C684 0.960 . S
H748 C687 0.929 . S
H749 C691 0.929 . S
H750 C692 0.959 . S
H751 C692 0.961 . S
H752 C692 0.961 . S
H753 C693 0.960 . S
H754 C693 0.960 . S
H755 C693 0.961 . S
H756 C695 0.980 . S
H757 C694 0.961 . S
H758 C694 0.960 . S
H759 C694 0.959 . S
H760 C697 0.930 . S
H761 C701 0.931 . S
H762 C702 0.959 . S
H763 C702 0.961 . S
H764 C702 0.959 . S
H765 C703 0.960 . S
H766 C703 0.960 . S
H767 C703 0.960 . S
H768 C739 0.980 . S
H769 C705 0.930 . S
H770 C709 0.930 . S
H771 C710 0.961 . S
H772 C710 0.960 . S
H773 C710 0.958 . S
H774 C711 0.961 . S
H775 C711 0.960 1_554 S
H776 C711 0.960 . S
H777 C713 0.980 . S
H778 C712 0.961 . S
H779 C712 0.961 . S
H780 C712 0.959 . S
H781 C715 0.932 . S
H782 C719 0.929 . S
H783 C720 0.961 . S
H784 C720 0.959 . S
H785 C720 0.959 . S
H786 C721 0.960 . S
H787 C721 0.962 . S
H788 C721 0.961 . S
H789 C723 0.929 . S
H790 C726 0.930 . S
H791 C727 0.929 . S
H792 C730 0.930 . S
H793 C733 0.929 1_556 S
H794 C734 0.930 . S
H795 C738 0.962 . S
H796 C738 0.959 . S
H797 C738 0.958 . S
C798 C799 1.560 . S
C798 H859 0.959 . S
C798 H860 0.959 . S
C798 H861 0.960 . S
C799 C798 1.560 . S
C799 O854 1.426 . S
C799 H858 0.980 . S
C800 C801 1.407 . S
C800 C805 1.418 . S
C800 O854 1.334 . S
C801 C800 1.407 . S
C801 C802 1.360 . S
C801 H862 0.929 . S
C802 C801 1.360 . S
C802 C803 1.401 . S
C802 C806 1.527 . S
C803 C802 1.401 . S
C803 C804 1.405 . S
C803 C836 1.587 . S
C804 C803 1.405 . S
C804 C805 1.332 . S
C804 C807 1.496 . S
C805 C800 1.418 . S
C805 C804 1.332 . S
C805 H863 0.929 . S
C806 C802 1.527 . S
C806 H864 0.959 . S
C806 H865 0.961 . S
C806 H866 0.961 . S
C807 C804 1.496 . S
C807 H867 0.960 . S
C807 H868 0.960 . S
C807 H869 0.961 . S
C808 C809 1.517 . S
C808 H871 0.961 . S
C808 H872 0.960 . S
C808 H873 0.959 . S
C809 C808 1.517 . S
C809 O857 1.468 . S
C809 H870 0.980 . S
C810 C811 1.349 . S
C810 C815 1.367 . S
C810 O857 1.408 . S
C811 C810 1.349 . S
C811 C812 1.407 . S
C811 H874 0.930 . S
C812 C811 1.407 . S
C812 C813 1.449 . S
C812 C816 1.535 . S
C813 C812 1.449 . S
C813 C814 1.384 . S
C813 C838 1.553 . S
C814 C813 1.384 . S
C814 C815 1.364 . S
C814 C817 1.450 . S
C815 C810 1.367 . S
C815 C814 1.364 . S
C815 H875 0.931 . S
C816 C812 1.535 . S
C816 H876 0.959 . S
C816 H877 0.961 . S
C816 H878 0.959 . S
C817 C814 1.450 . S
C817 H879 0.960 . S
C817 H880 0.960 . S
C817 H881 0.960 . S
C818 C819 1.309 . S
C818 C823 1.304 . S
C818 O856 1.435 . S
C819 C818 1.309 . S
C819 C820 1.476 . S
C819 H883 0.930 . S
C820 C819 1.476 . S
C820 C821 1.400 . S
C820 C824 1.567 . S
C821 C820 1.400 . S
C821 C822 1.373 . S
C821 C843 1.432 . S
C822 C821 1.373 . S
C822 C823 1.339 . S
C822 C825 1.530 . S
C823 C818 1.304 . S
C823 C822 1.339 . S
C823 H884 0.930 . S
C824 C820 1.567 . S
C824 H885 0.961 . S
C824 H886 0.960 . S
C824 H887 0.958 . S
C825 C822 1.530 . S
C825 H888 0.961 . S
C825 H889 0.960 . S
C825 H890 0.960 . S
C826 C827 1.530 . S
C826 H892 0.961 . S
C826 H893 0.961 . S
C826 H894 0.959 . S
C827 C826 1.530 . S
C827 O855 1.412 . S
C827 H891 0.980 . S
C828 C829 1.288 . S
C828 C833 1.377 . S
C828 O855 1.393 . S
C829 C828 1.288 . S
C829 C830 1.369 . S
C829 H895 0.932 . S
C830 C829 1.369 . S
C830 C831 1.398 . S
C830 C834 1.527 . S
C831 C830 1.398 . S
C831 C832 1.380 . S
C831 C845 1.497 . S
C832 C831 1.380 . S
C832 C833 1.383 . S
C832 C835 1.603 . S
C833 C828 1.377 . S
C833 C832 1.383 . S
C833 H896 0.929 . S
C834 C830 1.527 . S
C834 H897 0.961 . S
C834 H898 0.959 . S
C834 H899 0.959 . S
C835 C832 1.603 . S
C835 H900 0.960 . S
C835 H901 0.962 . S
C835 H902 0.961 . S
C836 C803 1.587 . S
C836 C837 1.360 1_655 S
C836 C849 1.412 . S
C837 C836 1.360 1_455 S
C837 C838 1.365 . S
C837 H903 0.929 . S
C838 C813 1.553 . S
C838 C837 1.365 . S
C838 C839 1.404 . S
C839 C838 1.404 . S
C839 C840 1.395 . S
C839 C850 1.451 . S
C840 C839 1.395 . S
C840 C841 1.322 . S
C840 H904 0.930 . S
C841 C840 1.322 . S
C841 C842 1.459 . S
C841 H905 0.929 . S
C842 C841 1.459 . S
C842 C843 1.445 . S
C842 C851 1.395 . S
C843 C821 1.432 . S
C843 C842 1.445 . S
C843 C844 1.370 . S
C844 C843 1.370 . S
C844 C845 1.438 1_455 S
C844 H906 0.930 . S
C845 C831 1.497 . S
C845 C844 1.438 1_655 S
C845 C846 1.360 . S
C846 C845 1.360 . S
C846 C847 1.401 . S
C846 C851 1.446 1_655 S
C847 C846 1.401 . S
C847 C848 1.347 . S
C847 H907 0.929 . S
C848 C847 1.347 . S
C848 C849 1.455 . S
C848 H908 0.930 . S
C849 C836 1.412 . S
C849 C848 1.455 . S
C849 C850 1.331 1_655 S
C850 C839 1.451 . S
C850 C849 1.331 1_455 S
C850 C851 1.497 . S
C851 C842 1.395 . S
C851 C846 1.446 1_455 S
C851 C850 1.497 . S
C852 C853 1.582 . S
C852 H909 0.962 . S
C852 H910 0.959 . S
C852 H911 0.958 . S
C853 C852 1.582 . S
C853 O856 1.458 . S
C853 H882 0.980 . S
O854 C799 1.426 . S
O854 C800 1.334 . S
O855 C827 1.412 . S
O855 C828 1.393 . S
O856 C818 1.435 . S
O856 C853 1.458 . S
O857 C809 1.468 . S
O857 C810 1.408 . S
H858 C799 0.980 . S
H859 C798 0.959 . S
H860 C798 0.959 . S
H861 C798 0.960 . S
H862 C801 0.929 . S
H863 C805 0.929 . S
H864 C806 0.959 . S
H865 C806 0.961 . S
H866 C806 0.961 . S
H867 C807 0.960 . S
H868 C807 0.960 . S
H869 C807 0.961 . S
H870 C809 0.980 . S
H871 C808 0.961 . S
H872 C808 0.960 . S
H873 C808 0.959 . S
H874 C811 0.930 . S
H875 C815 0.931 . S
H876 C816 0.959 . S
H877 C816 0.961 . S
H878 C816 0.959 . S
H879 C817 0.960 . S
H880 C817 0.960 . S
H881 C817 0.960 . S
H882 C853 0.980 . S
H883 C819 0.930 . S
H884 C823 0.930 . S
H885 C824 0.961 . S
H886 C824 0.960 . S
H887 C824 0.958 . S
H888 C825 0.961 . S
H889 C825 0.960 . S
H890 C825 0.960 . S
H891 C827 0.980 . S
H892 C826 0.961 . S
H893 C826 0.961 . S
H894 C826 0.959 . S
H895 C829 0.932 . S
H896 C833 0.929 . S
H897 C834 0.961 . S
H898 C834 0.959 . S
H899 C834 0.959 . S
H900 C835 0.960 . S
H901 C835 0.962 . S
H902 C835 0.961 . S
H903 C837 0.929 . S
H904 C840 0.930 . S
H905 C841 0.929 . S
H906 C844 0.930 . S
H907 C847 0.929 . S
H908 C848 0.930 . S
H909 C852 0.962 . S
H910 C852 0.959 . S
H911 C852 0.958 . S
Fe912 O913 1.886 . S
Fe912 O916 1.715 1_455 S
Fe912 O921 2.077 . S
Fe912 O926 1.935 1_455 S
Fe912 O932 2.077 . S
Fe912 O941 1.935 1_455 S
O913 Fe912 1.886 . S
O913 Fe915 1.715 . S
Fe914 O916 1.886 . S
Fe914 O917 1.715 . S
Fe914 O924 1.935 . S
Fe914 O925 2.077 . S
Fe914 O931 1.935 . S
Fe914 O940 2.077 . S
Fe915 O913 1.715 . S
Fe915 O918 1.886 . S
Fe915 O922 1.935 . S
Fe915 O927 2.077 . S
Fe915 O933 1.935 . S
Fe915 O937 2.077 . S
O916 Fe912 1.715 1_655 S
O916 Fe914 1.886 . S
O917 Fe914 1.715 . S
O917 Fe919 1.886 1_655 S
O918 Fe915 1.886 . S
O918 Fe919 1.715 . S
Fe919 O917 1.886 1_455 S
Fe919 O918 1.715 . S
Fe919 O923 2.077 1_455 S
Fe919 O928 1.935 . S
Fe919 O930 2.077 1_455 S
Fe919 O938 1.935 . S
C920 O932 1.381 . S
C920 O933 1.421 . S
O921 Fe912 2.077 . S
O921 C934 1.381 . S
O922 Fe915 1.935 . S
O922 C934 1.421 . S
O923 Fe919 2.077 1_655 S
O923 C939 1.381 . S
O924 Fe914 1.935 . S
O924 C939 1.421 . S
O925 Fe914 2.077 . S
O925 C929 1.381 . S
O926 Fe912 1.935 1_655 S
O926 C929 1.421 . S
O927 Fe915 2.077 . S
O927 C935 1.381 . S
O928 Fe919 1.935 . S
O928 C935 1.421 . S
C929 O925 1.381 . S
C929 O926 1.421 . S
O930 Fe919 2.077 1_655 S
O930 C942 1.381 . S
O931 Fe914 1.935 . S
O931 C942 1.421 . S
O932 Fe912 2.077 . S
O932 C920 1.381 . S
O933 Fe915 1.935 . S
O933 C920 1.421 . S
C934 O921 1.381 . S
C934 O922 1.421 . S
C935 O927 1.381 . S
C935 O928 1.421 . S
C936 O937 1.381 . S
C936 O938 1.421 . S
O937 Fe915 2.077 . S
O937 C936 1.381 . S
O938 Fe919 1.935 . S
O938 C936 1.421 . S
C939 O923 1.381 . S
C939 O924 1.421 . S
O940 Fe914 2.077 . S
O940 C943 1.381 . S
O941 Fe912 1.935 1_655 S
O941 C943 1.421 . S
C942 O930 1.381 . S
C942 O931 1.421 . S
C943 O940 1.381 . S
C943 O941 1.421 . S
Fe944 O945 1.886 . S
Fe944 O948 1.715 . S
Fe944 O953 2.077 . S
Fe944 O958 1.935 . S
Fe944 O964 2.077 . S
Fe944 O973 1.935 . S
O945 Fe944 1.886 . S
O945 Fe947 1.715 . S
Fe946 O948 1.886 . S
Fe946 O949 1.715 . S
Fe946 O956 1.935 . S
Fe946 O957 2.077 . S
Fe946 O963 1.935 . S
Fe946 O972 2.077 . S
Fe947 O945 1.715 . S
Fe947 O950 1.886 . S
Fe947 O954 1.935 . S
Fe947 O959 2.077 . S
Fe947 O965 1.935 . S
Fe947 O969 2.077 . S
O948 Fe944 1.715 . S
O948 Fe946 1.886 . S
O949 Fe946 1.715 . S
O949 Fe951 1.886 . S
O950 Fe947 1.886 . S
O950 Fe951 1.715 . S
Fe951 O949 1.886 . S
Fe951 O950 1.715 . S
Fe951 O955 2.077 . S
Fe951 O960 1.935 . S
Fe951 O962 2.077 . S
Fe951 O970 1.935 . S
C952 O964 1.381 . S
C952 O965 1.421 . S
O953 Fe944 2.077 . S
O953 C966 1.381 . S
O954 Fe947 1.935 . S
O954 C966 1.421 . S
O955 Fe951 2.077 . S
O955 C971 1.381 . S
O956 Fe946 1.935 . S
O956 C971 1.421 . S
O957 Fe946 2.077 . S
O957 C961 1.381 . S
O958 Fe944 1.935 . S
O958 C961 1.421 . S
O959 Fe947 2.077 . S
O959 C967 1.381 . S
O960 Fe951 1.935 . S
O960 C967 1.421 . S
C961 O957 1.381 . S
C961 O958 1.421 . S
O962 Fe951 2.077 . S
O962 C974 1.381 . S
O963 Fe946 1.935 . S
O963 C974 1.421 . S
O964 Fe944 2.077 . S
O964 C952 1.381 . S
O965 Fe947 1.935 . S
O965 C952 1.421 . S
C966 O953 1.381 . S
C966 O954 1.421 . S
C967 O959 1.381 . S
C967 O960 1.421 . S
C968 O969 1.381 . S
C968 O970 1.421 . S
O969 Fe947 2.077 . S
O969 C968 1.381 . S
O970 Fe951 1.935 . S
O970 C968 1.421 . S
C971 O955 1.381 . S
C971 O956 1.421 . S
O972 Fe946 2.077 . S
O972 C975 1.381 . S
O973 Fe944 1.935 . S
O973 C975 1.421 . S
C974 O962 1.381 . S
C974 O963 1.421 . S
C975 O972 1.381 . S
C975 O973 1.421 . S
Fe976 O977 1.886 . S
Fe976 O980 1.715 . S
Fe976 O985 2.077 . S
Fe976 O990 1.935 . S
Fe976 O996 2.077 . S
Fe976 O1005 1.935 . S
O977 Fe976 1.886 . S
O977 Fe979 1.715 . S
Fe978 O980 1.886 . S
Fe978 O981 1.715 . S
Fe978 O988 1.935 . S
Fe978 O989 2.077 . S
Fe978 O995 1.935 . S
Fe978 O1004 2.077 . S
Fe979 O977 1.715 . S
Fe979 O982 1.886 . S
Fe979 O986 1.935 . S
Fe979 O991 2.077 . S
Fe979 O997 1.935 . S
Fe979 O1001 2.077 . S
O980 Fe976 1.715 . S
O980 Fe978 1.886 . S
O981 Fe978 1.715 . S
O981 Fe983 1.886 . S
O982 Fe979 1.886 . S
O982 Fe983 1.715 . S
Fe983 O981 1.886 . S
Fe983 O982 1.715 . S
Fe983 O987 2.077 . S
Fe983 O992 1.935 . S
Fe983 O994 2.077 . S
Fe983 O1002 1.935 . S
C984 O996 1.381 . S
C984 O997 1.421 . S
O985 Fe976 2.077 . S
O985 C998 1.381 . S
O986 Fe979 1.935 . S
O986 C998 1.421 . S
O987 Fe983 2.077 . S
O987 C1003 1.381 . S
O988 Fe978 1.935 . S
O988 C1003 1.421 . S
O989 Fe978 2.077 . S
O989 C993 1.381 . S
O990 Fe976 1.935 . S
O990 C993 1.421 . S
O991 Fe979 2.077 . S
O991 C999 1.381 . S
O992 Fe983 1.935 . S
O992 C999 1.421 . S
C993 O989 1.381 . S
C993 O990 1.421 . S
O994 Fe983 2.077 . S
O994 C1006 1.381 . S
O995 Fe978 1.935 . S
O995 C1006 1.421 . S
O996 Fe976 2.077 . S
O996 C984 1.381 . S
O997 Fe979 1.935 . S
O997 C984 1.421 . S
C998 O985 1.381 . S
C998 O986 1.421 . S
C999 O991 1.381 . S
C999 O992 1.421 . S
C1000 O1001 1.381 . S
C1000 O1002 1.421 . S
O1001 Fe979 2.077 . S
O1001 C1000 1.381 . S
O1002 Fe983 1.935 . S
O1002 C1000 1.421 . S
C1003 O987 1.381 . S
C1003 O988 1.421 . S
O1004 Fe978 2.077 . S
O1004 C1007 1.381 . S
O1005 Fe976 1.935 . S
O1005 C1007 1.421 . S
C1006 O994 1.381 . S
C1006 O995 1.421 . S
C1007 O1004 1.381 . S
C1007 O1005 1.421 . S
Fe1008 O1009 1.886 . S
Fe1008 O1012 1.715 . S
Fe1008 O1017 2.077 1_455 S
Fe1008 O1022 1.935 1_455 S
Fe1008 O1028 2.077 . S
Fe1008 O1037 1.935 . S
O1009 Fe1008 1.886 . S
O1009 Fe1011 1.715 . S
Fe1010 O1012 1.886 . S
Fe1010 O1013 1.715 . S
Fe1010 O1020 1.935 1_455 S
Fe1010 O1021 2.077 1_455 S
Fe1010 O1027 1.935 . S
Fe1010 O1036 2.077 . S
Fe1011 O1009 1.715 . S
Fe1011 O1014 1.886 . S
Fe1011 O1018 1.935 1_455 S
Fe1011 O1023 2.077 1_455 S
Fe1011 O1029 1.935 . S
Fe1011 O1033 2.077 . S
O1012 Fe1008 1.715 . S
O1012 Fe1010 1.886 . S
O1013 Fe1010 1.715 . S
O1013 Fe1015 1.886 . S
O1014 Fe1011 1.886 . S
O1014 Fe1015 1.715 . S
Fe1015 O1013 1.886 . S
Fe1015 O1014 1.715 . S
Fe1015 O1019 2.077 1_455 S
Fe1015 O1024 1.935 1_455 S
Fe1015 O1026 2.077 . S
Fe1015 O1034 1.935 . S
C1016 O1028 1.381 . S
C1016 O1029 1.421 . S
O1017 Fe1008 2.077 1_655 S
O1017 C1030 1.381 . S
O1018 Fe1011 1.935 1_655 S
O1018 C1030 1.421 . S
O1019 Fe1015 2.077 1_655 S
O1019 C1035 1.381 . S
O1020 Fe1010 1.935 1_655 S
O1020 C1035 1.421 . S
O1021 Fe1010 2.077 1_655 S
O1021 C1025 1.381 . S
O1022 Fe1008 1.935 1_655 S
O1022 C1025 1.421 . S
O1023 Fe1011 2.077 1_655 S
O1023 C1031 1.381 . S
O1024 Fe1015 1.935 1_655 S
O1024 C1031 1.421 . S
C1025 O1021 1.381 . S
C1025 O1022 1.421 . S
O1026 Fe1015 2.077 . S
O1026 C1038 1.381 . S
O1027 Fe1010 1.935 . S
O1027 C1038 1.421 . S
O1028 Fe1008 2.077 . S
O1028 C1016 1.381 . S
O1029 Fe1011 1.935 . S
O1029 C1016 1.421 . S
C1030 O1017 1.381 . S
C1030 O1018 1.421 . S
C1031 O1023 1.381 . S
C1031 O1024 1.421 . S
C1032 O1033 1.381 . S
C1032 O1034 1.421 . S
O1033 Fe1011 2.077 . S
O1033 C1032 1.381 . S
O1034 Fe1015 1.935 . S
O1034 C1032 1.421 . S
C1035 O1019 1.381 . S
C1035 O1020 1.421 . S
O1036 Fe1010 2.077 . S
O1036 C1039 1.381 . S
O1037 Fe1008 1.935 . S
O1037 C1039 1.421 . S
C1038 O1026 1.381 . S
C1038 O1027 1.421 . S
C1039 O1036 1.381 . S
C1039 O1037 1.421 . S
C1040 C1041 1.387 . S
C1040 H1044 0.950 . S
C1040 C1049 1.390 . S
C1041 C1040 1.387 . S
C1041 C1043 1.387 . S
H1042 C1049 0.950 . S
C1043 C1041 1.387 . S
C1043 C1045 1.390 . S
C1043 H1047 0.950 . S
H1044 C1040 0.950 . S
C1045 C1043 1.390 . S
C1045 C1046 1.387 . S
C1045 H1048 0.950 . S
C1046 C1045 1.387 . S
C1046 C1049 1.387 . S
H1047 C1043 0.950 . S
H1048 C1045 0.950 . S
C1049 C1040 1.390 . S
C1049 H1042 0.950 . S
C1049 C1046 1.387 . S
C1050 C1051 1.387 . S
C1050 H1054 0.950 . S
C1050 C1059 1.390 . S
C1051 C1050 1.387 . S
C1051 C1053 1.387 . S
H1052 C1059 0.950 . S
C1053 C1051 1.387 . S
C1053 C1055 1.390 . S
C1053 H1057 0.950 . S
H1054 C1050 0.950 . S
C1055 C1053 1.390 . S
C1055 C1056 1.387 . S
C1055 H1058 0.950 . S
C1056 C1055 1.387 . S
C1056 C1059 1.387 . S
H1057 C1053 0.950 . S
H1058 C1055 0.950 . S
C1059 C1050 1.390 . S
C1059 H1052 0.950 . S
C1059 C1056 1.387 . S
C1060 C1061 1.387 . S
C1060 H1064 0.950 . S
C1060 C1069 1.390 . S
C1061 C1060 1.387 . S
C1061 C1063 1.387 . S
H1062 C1069 0.950 . S
C1063 C1061 1.387 . S
C1063 C1065 1.390 . S
C1063 H1067 0.950 . S
H1064 C1060 0.950 . S
C1065 C1063 1.390 . S
C1065 C1066 1.387 . S
C1065 H1068 0.950 . S
C1066 C1065 1.387 . S
C1066 C1069 1.387 . S
H1067 C1063 0.950 . S
H1068 C1065 0.950 . S
C1069 C1060 1.390 . S
C1069 H1062 0.950 . S
C1069 C1066 1.387 . S
C1070 C1071 1.387 . S
C1070 H1074 0.950 . S
C1070 C1079 1.390 . S
C1071 C1070 1.387 . S
C1071 C1073 1.387 . S
H1072 C1079 0.950 . S
C1073 C1071 1.387 . S
C1073 C1075 1.390 . S
C1073 H1077 0.950 . S
H1074 C1070 0.950 . S
C1075 C1073 1.390 . S
C1075 C1076 1.387 . S
C1075 H1078 0.950 . S
C1076 C1075 1.387 . S
C1076 C1079 1.387 . S
H1077 C1073 0.950 . S
H1078 C1075 0.950 . S
C1079 C1070 1.390 . S
C1079 H1072 0.950 . S
C1079 C1076 1.387 . S
C1080 C1081 1.387 . S
C1080 H1084 0.950 . S
C1080 C1089 1.390 . S
C1081 C1080 1.387 . S
C1081 C1083 1.387 . S
H1082 C1089 0.950 . S
C1083 C1081 1.387 . S
C1083 C1085 1.390 . S
C1083 H1087 0.950 . S
H1084 C1080 0.950 . S
C1085 C1083 1.390 . S
C1085 C1086 1.387 . S
C1085 H1088 0.950 . S
C1086 C1085 1.387 . S
C1086 C1089 1.387 . S
H1087 C1083 0.950 . S
H1088 C1085 0.950 . S
C1089 C1080 1.390 . S
C1089 H1082 0.950 . S
C1089 C1086 1.387 . S
C1090 C1091 1.387 . S
C1090 H1094 0.950 . S
C1090 C1099 1.390 . S
C1091 C1090 1.387 . S
C1091 C1093 1.387 . S
H1092 C1099 0.950 . S
C1093 C1091 1.387 . S
C1093 C1095 1.390 . S
C1093 H1097 0.950 . S
H1094 C1090 0.950 . S
C1095 C1093 1.390 . S
C1095 C1096 1.387 . S
C1095 H1098 0.950 . S
C1096 C1095 1.387 . S
C1096 C1099 1.387 . S
H1097 C1093 0.950 . S
H1098 C1095 0.950 . S
C1099 C1090 1.390 . S
C1099 H1092 0.950 . S
C1099 C1096 1.387 . S
C1100 C1101 1.387 . S
C1100 H1104 0.950 . S
C1100 C1109 1.390 . S
C1101 C1100 1.387 . S
C1101 C1103 1.387 . S
H1102 C1109 0.950 . S
C1103 C1101 1.387 . S
C1103 C1105 1.390 . S
C1103 H1107 0.950 . S
H1104 C1100 0.950 . S
C1105 C1103 1.390 . S
C1105 C1106 1.387 . S
C1105 H1108 0.950 . S
C1106 C1105 1.387 . S
C1106 C1109 1.387 . S
H1107 C1103 0.950 . S
H1108 C1105 0.950 . S
C1109 C1100 1.390 . S
C1109 H1102 0.950 . S
C1109 C1106 1.387 . S
C1110 C1111 1.387 . S
C1110 H1114 0.950 . S
C1110 C1119 1.390 . S
C1111 C1110 1.387 . S
C1111 C1113 1.387 . S
H1112 C1119 0.950 . S
C1113 C1111 1.387 . S
C1113 C1115 1.390 . S
C1113 H1117 0.950 . S
H1114 C1110 0.950 . S
C1115 C1113 1.390 . S
C1115 C1116 1.387 . S
C1115 H1118 0.950 . S
C1116 C1115 1.387 . S
C1116 C1119 1.387 . S
H1117 C1113 0.950 . S
H1118 C1115 0.950 . S
C1119 C1110 1.390 . S
C1119 H1112 0.950 . S
C1119 C1116 1.387 . S
C1120 C1121 1.387 . S
C1120 H1124 0.950 . S
C1120 C1129 1.390 . S
C1121 C1120 1.387 . S
C1121 C1123 1.387 . S
H1122 C1129 0.950 . S
C1123 C1121 1.387 . S
C1123 C1125 1.390 . S
C1123 H1127 0.950 . S
H1124 C1120 0.950 . S
C1125 C1123 1.390 . S
C1125 C1126 1.387 . S
C1125 H1128 0.950 . S
C1126 C1125 1.387 . S
C1126 C1129 1.387 . S
H1127 C1123 0.950 . S
H1128 C1125 0.950 . S
C1129 C1120 1.390 . S
C1129 H1122 0.950 . S
C1129 C1126 1.387 . S
C1130 C1131 1.387 . S
C1130 H1134 0.950 . S
C1130 C1139 1.390 . S
C1131 C1130 1.387 . S
C1131 C1133 1.387 . S
H1132 C1139 0.950 . S
C1133 C1131 1.387 . S
C1133 C1135 1.390 . S
C1133 H1137 0.950 . S
H1134 C1130 0.950 . S
C1135 C1133 1.390 . S
C1135 C1136 1.387 . S
C1135 H1138 0.950 . S
C1136 C1135 1.387 . S
C1136 C1139 1.387 . S
H1137 C1133 0.950 . S
H1138 C1135 0.950 . S
C1139 C1130 1.390 . S
C1139 H1132 0.950 . S
C1139 C1136 1.387 . S
C1140 C1141 1.387 . S
C1140 H1144 0.950 . S
C1140 C1149 1.390 . S
C1141 C1140 1.387 . S
C1141 C1143 1.387 . S
H1142 C1149 0.950 . S
C1143 C1141 1.387 . S
C1143 C1145 1.390 . S
C1143 H1147 0.950 . S
H1144 C1140 0.950 . S
C1145 C1143 1.390 . S
C1145 C1146 1.387 . S
C1145 H1148 0.950 . S
C1146 C1145 1.387 . S
C1146 C1149 1.387 . S
H1147 C1143 0.950 . S
H1148 C1145 0.950 . S
C1149 C1140 1.390 . S
C1149 H1142 0.950 . S
C1149 C1146 1.387 . S
C1150 C1151 1.387 . S
C1150 H1154 0.950 . S
C1150 C1159 1.390 . S
C1151 C1150 1.387 . S
C1151 C1153 1.387 . S
H1152 C1159 0.950 . S
C1153 C1151 1.387 . S
C1153 C1155 1.390 . S
C1153 H1157 0.950 . S
H1154 C1150 0.950 . S
C1155 C1153 1.390 . S
C1155 C1156 1.387 . S
C1155 H1158 0.950 . S
C1156 C1155 1.387 . S
C1156 C1159 1.387 . S
H1157 C1153 0.950 . S
H1158 C1155 0.950 . S
C1159 C1150 1.390 . S
C1159 H1152 0.950 . S
C1159 C1156 1.387 . S
C1160 C1161 1.387 . S
C1160 H1164 0.950 . S
C1160 C1169 1.390 . S
C1161 C1160 1.387 . S
C1161 C1163 1.387 . S
H1162 C1169 0.950 . S
C1163 C1161 1.387 . S
C1163 C1165 1.390 . S
C1163 H1167 0.950 . S
H1164 C1160 0.950 . S
C1165 C1163 1.390 . S
C1165 C1166 1.387 . S
C1165 H1168 0.950 . S
C1166 C1165 1.387 . S
C1166 C1169 1.387 . S
H1167 C1163 0.950 . S
H1168 C1165 0.950 . S
C1169 C1160 1.390 . S
C1169 H1162 0.950 . S
C1169 C1166 1.387 . S
C1170 C1171 1.387 . S
C1170 H1174 0.943 1_565 S
C1170 C1179 1.390 . S
C1171 C1170 1.387 . S
C1171 C1173 1.387 . S
H1172 C1179 0.950 . S
C1173 C1171 1.387 . S
C1173 C1175 1.390 . S
C1173 H1177 0.950 . S
H1174 C1170 0.943 1_545 S
C1175 C1173 1.390 . S
C1175 C1176 1.387 . S
C1175 H1178 0.950 . S
C1176 C1175 1.387 . S
C1176 C1179 1.387 . S
H1177 C1173 0.950 . S
H1178 C1175 0.950 . S
C1179 C1170 1.390 . S
C1179 H1172 0.950 . S
C1179 C1176 1.387 . S
C1180 C1181 1.387 . S
C1180 H1184 0.950 . S
C1180 C1189 1.390 . S
C1181 C1180 1.387 . S
C1181 C1183 1.387 . S
H1182 C1189 0.950 . S
C1183 C1181 1.387 . S
C1183 C1185 1.390 . S
C1183 H1187 0.950 . S
H1184 C1180 0.950 . S
C1185 C1183 1.390 . S
C1185 C1186 1.387 . S
C1185 H1188 0.950 . S
C1186 C1185 1.387 . S
C1186 C1189 1.387 . S
H1187 C1183 0.950 . S
H1188 C1185 0.950 . S
C1189 C1180 1.390 . S
C1189 H1182 0.950 . S
C1189 C1186 1.387 . S
C1190 C1191 1.387 . S
C1190 H1194 0.950 . S
C1190 C1199 1.390 . S
C1191 C1190 1.387 . S
C1191 C1193 1.387 . S
H1192 C1199 0.950 . S
C1193 C1191 1.387 . S
C1193 C1195 1.390 . S
C1193 H1197 0.950 . S
H1194 C1190 0.950 . S
C1195 C1193 1.390 . S
C1195 C1196 1.387 . S
C1195 H1198 0.950 . S
C1196 C1195 1.387 . S
C1196 C1199 1.387 . S
H1197 C1193 0.950 . S
H1198 C1195 0.950 . S
C1199 C1190 1.390 . S
C1199 H1192 0.950 . S
C1199 C1196 1.387 . S
C1200 C1201 1.387 . S
C1200 H1204 0.950 . S
C1200 C1209 1.390 . S
C1201 C1200 1.387 . S
C1201 C1203 1.387 . S
H1202 C1209 0.950 . S
C1203 C1201 1.387 . S
C1203 C1205 1.390 . S
C1203 H1207 0.950 . S
H1204 C1200 0.950 . S
C1205 C1203 1.390 . S
C1205 C1206 1.387 . S
C1205 H1208 0.950 . S
C1206 C1205 1.387 . S
C1206 C1209 1.387 . S
H1207 C1203 0.950 . S
H1208 C1205 0.950 . S
C1209 C1200 1.390 . S
C1209 H1202 0.950 . S
C1209 C1206 1.387 . S
C1210 C1211 1.387 . S
C1210 H1214 0.950 . S
C1210 C1219 1.390 . S
C1211 C1210 1.387 . S
C1211 C1213 1.387 . S
H1212 C1219 0.950 . S
C1213 C1211 1.387 . S
C1213 C1215 1.390 . S
C1213 H1217 0.950 . S
H1214 C1210 0.950 . S
C1215 C1213 1.390 . S
C1215 C1216 1.387 . S
C1215 H1218 0.950 . S
C1216 C1215 1.387 . S
C1216 C1219 1.387 . S
H1217 C1213 0.950 . S
H1218 C1215 0.950 . S
C1219 C1210 1.390 . S
C1219 H1212 0.950 . S
C1219 C1216 1.387 . S
C1220 C1221 1.387 . S
C1220 H1224 0.950 . S
C1220 C1229 1.390 . S
C1221 C1220 1.387 . S
C1221 C1223 1.387 . S
H1222 C1229 0.950 . S
C1223 C1221 1.387 . S
C1223 C1225 1.390 . S
C1223 H1227 0.950 . S
H1224 C1220 0.950 . S
C1225 C1223 1.390 . S
C1225 C1226 1.387 . S
C1225 H1228 0.950 . S
C1226 C1225 1.387 . S
C1226 C1229 1.387 . S
H1227 C1223 0.950 . S
H1228 C1225 0.950 . S
C1229 C1220 1.390 . S
C1229 H1222 0.950 . S
C1229 C1226 1.387 . S
C1230 C1231 1.387 . S
C1230 H1234 0.950 . S
C1230 C1239 1.390 . S
C1231 C1230 1.387 . S
C1231 C1233 1.387 . S
H1232 C1239 0.950 . S
C1233 C1231 1.387 . S
C1233 C1235 1.390 . S
C1233 H1237 0.950 . S
H1234 C1230 0.950 . S
C1235 C1233 1.390 . S
C1235 C1236 1.387 . S
C1235 H1238 0.950 . S
C1236 C1235 1.387 . S
C1236 C1239 1.387 . S
H1237 C1233 0.950 . S
H1238 C1235 0.950 . S
C1239 C1230 1.390 . S
C1239 H1232 0.950 . S
C1239 C1236 1.387 . S
C1240 C1241 1.387 . S
C1240 H1244 0.950 . S
C1240 C1249 1.390 . S
C1241 C1240 1.387 . S
C1241 C1243 1.387 . S
H1242 C1249 0.950 . S
C1243 C1241 1.387 . S
C1243 C1245 1.390 . S
C1243 H1247 0.950 . S
H1244 C1240 0.950 . S
C1245 C1243 1.390 . S
C1245 C1246 1.387 . S
C1245 H1248 0.950 . S
C1246 C1245 1.387 . S
C1246 C1249 1.387 . S
H1247 C1243 0.950 . S
H1248 C1245 0.950 . S
C1249 C1240 1.390 . S
C1249 H1242 0.950 . S
C1249 C1246 1.387 . S
C1250 C1251 1.387 . S
C1250 H1254 0.950 . S
C1250 C1259 1.390 . S
C1251 C1250 1.387 . S
C1251 C1253 1.387 . S
H1252 C1259 0.950 . S
C1253 C1251 1.387 . S
C1253 C1255 1.390 . S
C1253 H1257 0.950 . S
H1254 C1250 0.950 . S
C1255 C1253 1.390 . S
C1255 C1256 1.387 . S
C1255 H1258 0.950 . S
C1256 C1255 1.387 . S
C1256 C1259 1.387 . S
H1257 C1253 0.950 . S
H1258 C1255 0.950 . S
C1259 C1250 1.390 . S
C1259 H1252 0.950 . S
C1259 C1256 1.387 . S
C1260 C1261 1.387 . S
C1260 H1264 0.950 . S
C1260 C1269 1.390 . S
C1261 C1260 1.387 . S
C1261 C1263 1.387 . S
H1262 C1269 0.950 . S
C1263 C1261 1.387 . S
C1263 C1265 1.390 . S
C1263 H1267 0.950 . S
H1264 C1260 0.950 . S
C1265 C1263 1.390 . S
C1265 C1266 1.387 . S
C1265 H1268 0.950 . S
C1266 C1265 1.387 . S
C1266 C1269 1.387 . S
H1267 C1263 0.950 . S
H1268 C1265 0.950 . S
C1269 C1260 1.390 . S
C1269 H1262 0.950 . S
C1269 C1266 1.387 . S
C1270 C1271 1.387 . S
C1270 H1274 0.950 . S
C1270 C1279 1.390 . S
C1271 C1270 1.387 . S
C1271 C1273 1.387 . S
H1272 C1279 0.950 . S
C1273 C1271 1.387 . S
C1273 C1275 1.390 . S
C1273 H1277 0.950 . S
H1274 C1270 0.950 . S
C1275 C1273 1.390 . S
C1275 C1276 1.387 . S
C1275 H1278 0.950 . S
C1276 C1275 1.387 . S
C1276 C1279 1.387 . S
H1277 C1273 0.950 . S
H1278 C1275 0.950 . S
C1279 C1270 1.390 . S
C1279 H1272 0.950 . S
C1279 C1276 1.387 . S
C1280 C1281 1.387 . S
C1280 H1284 0.950 . S
C1280 C1289 1.390 . S
C1281 C1280 1.387 . S
C1281 C1283 1.387 . S
H1282 C1289 0.950 . S
C1283 C1281 1.387 . S
C1283 C1285 1.390 . S
C1283 H1287 0.950 . S
H1284 C1280 0.950 . S
C1285 C1283 1.390 . S
C1285 C1286 1.387 . S
C1285 H1288 0.950 . S
C1286 C1285 1.387 . S
C1286 C1289 1.387 . S
H1287 C1283 0.950 . S
H1288 C1285 0.950 . S
C1289 C1280 1.390 . S
C1289 H1282 0.950 . S
C1289 C1286 1.387 . S
C1290 C1291 1.387 . S
C1290 H1294 0.950 . S
C1290 C1299 1.390 . S
C1291 C1290 1.387 . S
C1291 C1293 1.387 . S
H1292 C1299 0.950 . S
C1293 C1291 1.387 . S
C1293 C1295 1.390 . S
C1293 H1297 0.950 . S
H1294 C1290 0.950 . S
C1295 C1293 1.390 . S
C1295 C1296 1.387 . S
C1295 H1298 0.950 . S
C1296 C1295 1.387 . S
C1296 C1299 1.387 . S
H1297 C1293 0.950 . S
H1298 C1295 0.950 . S
C1299 C1290 1.390 . S
C1299 H1292 0.950 . S
C1299 C1296 1.387 . S
C1300 C1301 1.387 . S
C1300 H1304 0.950 . S
C1300 C1309 1.390 . S
C1301 C1300 1.387 . S
C1301 C1303 1.387 . S
H1302 C1309 0.950 . S
C1303 C1301 1.387 . S
C1303 C1305 1.390 . S
C1303 H1307 0.950 . S
H1304 C1300 0.950 . S
C1305 C1303 1.390 . S
C1305 C1306 1.387 . S
C1305 H1308 0.950 . S
C1306 C1305 1.387 . S
C1306 C1309 1.387 . S
H1307 C1303 0.950 . S
H1308 C1305 0.950 . S
C1309 C1300 1.390 . S
C1309 H1302 0.950 . S
C1309 C1306 1.387 . S
C1310 C1311 1.387 . S
C1310 H1314 0.950 . S
C1310 C1319 1.390 . S
C1311 C1310 1.387 . S
C1311 C1313 1.387 . S
H1312 C1319 0.950 . S
C1313 C1311 1.387 . S
C1313 C1315 1.390 . S
C1313 H1317 0.950 . S
H1314 C1310 0.950 . S
C1315 C1313 1.390 . S
C1315 C1316 1.387 . S
C1315 H1318 0.950 . S
C1316 C1315 1.387 . S
C1316 C1319 1.387 . S
H1317 C1313 0.950 . S
H1318 C1315 0.950 . S
C1319 C1310 1.390 . S
C1319 H1312 0.950 . S
C1319 C1316 1.387 . S
C1320 C1321 1.387 . S
C1320 H1324 0.950 . S
C1320 C1329 1.390 . S
C1321 C1320 1.387 . S
C1321 C1323 1.387 . S
H1322 C1329 0.950 . S
C1323 C1321 1.387 . S
C1323 C1325 1.390 . S
C1323 H1327 0.950 . S
H1324 C1320 0.950 . S
C1325 C1323 1.390 . S
C1325 C1326 1.387 . S
C1325 H1328 0.950 . S
C1326 C1325 1.387 . S
C1326 C1329 1.387 . S
H1327 C1323 0.950 . S
H1328 C1325 0.950 . S
C1329 C1320 1.390 . S
C1329 H1322 0.950 . S
C1329 C1326 1.387 . S
C1330 C1331 1.387 . S
C1330 H1334 0.950 . S
C1330 C1339 1.390 . S
C1331 C1330 1.387 . S
C1331 C1333 1.387 . S
H1332 C1339 0.950 . S
C1333 C1331 1.387 . S
C1333 C1335 1.390 . S
C1333 H1337 0.950 . S
H1334 C1330 0.950 . S
C1335 C1333 1.390 . S
C1335 C1336 1.387 . S
C1335 H1338 0.950 . S
C1336 C1335 1.387 . S
C1336 C1339 1.387 . S
H1337 C1333 0.950 . S
H1338 C1335 0.950 . S
C1339 C1330 1.390 . S
C1339 H1332 0.950 . S
C1339 C1336 1.387 . S
C1340 C1341 1.387 . S
C1340 H1344 0.950 . S
C1340 C1349 1.390 . S
C1341 C1340 1.387 . S
C1341 C1343 1.387 . S
H1342 C1349 0.950 . S
C1343 C1341 1.387 . S
C1343 C1345 1.390 . S
C1343 H1347 0.950 . S
H1344 C1340 0.950 . S
C1345 C1343 1.390 . S
C1345 C1346 1.387 . S
C1345 H1348 0.950 . S
C1346 C1345 1.387 . S
C1346 C1349 1.387 . S
H1347 C1343 0.950 . S
H1348 C1345 0.950 . S
C1349 C1340 1.390 . S
C1349 H1342 0.950 . S
C1349 C1346 1.387 . S
C1350 C1351 1.387 . S
C1350 H1354 0.950 . S
C1350 C1359 1.390 . S
C1351 C1350 1.387 . S
C1351 C1353 1.387 . S
H1352 C1359 0.950 . S
C1353 C1351 1.387 . S
C1353 C1355 1.390 . S
C1353 H1357 0.950 . S
H1354 C1350 0.950 . S
C1355 C1353 1.390 . S
C1355 C1356 1.387 . S
C1355 H1358 0.950 . S
C1356 C1355 1.387 . S
C1356 C1359 1.387 . S
H1357 C1353 0.950 . S
H1358 C1355 0.950 . S
C1359 C1350 1.390 . S
C1359 H1352 0.950 . S
C1359 C1356 1.387 . S
C1046 C961 1.543 . S
C1041 C11 1.045 . S
C1051 C143 1.135 . S
C1056 C993 1.535 . S
C1061 C283 1.104 . S
C1066 C1016 1.621 . S
C1076 C920 1.475 . S
C1071 C343 1.255 1_565 S
C1086 C1003 1.426 . S
C1081 C55 1.069 . S
C1096 C1032 1.264 . S
C1091 C115 1.268 . S
C1106 C936 1.380 . S
C1101 C239 1.065 . S
C1116 C971 1.334 . S
C1111 C371 1.114 1_565 S
C1121 C29 1.218 . S
C1126 C999 1.321 . S
C1131 C467 0.844 . S
C1136 C974 1.350 . S
C1141 C229 1.096 . S
C1146 C942 1.218 . S
C1156 C1031 1.402 . S
C1151 C625 1.213 . S
C1166 C975 1.402 . S
C1161 C1 1.127 . S
C1171 C511 1.192 . S
C1176 C943 1.551 . S
C1181 C257 1.200 . S
C1186 C1030 1.511 . S
C1196 C998 1.523 . S
C1191 C581 0.899 . S
C1201 C713 1.138 . S
C1206 C1025 1.541 . S
C1211 C485 1.126 . S
C1216 C929 1.523 . S
C1221 C799 1.230 . S
C1226 C952 1.448 . S
C1231 C571 1.239 . S
C1236 C984 1.458 . S
C1246 C939 1.251 . S
C1241 C685 1.263 . S
C1251 C457 1.256 . S
C1256 C968 1.250 . S
C1261 C827 1.095 . S
C1266 C1000 1.334 . S
C1276 C1035 1.316 . S
C1271 C599 1.096 . S
C1281 C695 0.855 . S
C1286 C935 1.375 . S
C1291 C125 0.851 . S
C1296 C1038 1.366 . S
C1301 C853 1.214 . S
C1306 C1006 1.393 . S
C1316 C967 1.417 . S
C1311 C397 1.236 . S
C1326 C1039 1.576 . S
C1321 C739 1.219 . S
C1336 C1007 1.567 . S
C1331 C169 1.209 . S
C1346 C966 1.521 . S
C1341 C809 0.904 . S
C1356 C934 1.545 . S
C1351 C353 0.904 . S
