# Generated by pormake.
# Topology zzz, (3,6)-cn, num edge types: 1
# Building blocks:
#     Node 0, Type 0, BuildingBlock: KAKCAD_clean_linker_0, # of connection points: 3
#     Node 1, Type 0, BuildingBlock: KAKCAD_clean_linker_0, # of connection points: 3
#     Node 2, Type 0, BuildingBlock: KAKCAD_clean_linker_0, # of connection points: 3
#     Node 3, Type 0, BuildingBlock: KAKCAD_clean_linker_0, # of connection points: 3
#     Node 4, Type 0, BuildingBlock: KAKCAD_clean_linker_0, # of connection points: 3
#     Node 5, Type 0, BuildingBlock: KAKCAD_clean_linker_0, # of connection points: 3
#     Node 6, Type 0, BuildingBlock: KAKCAD_clean_linker_0, # of connection points: 3
#     Node 7, Type 0, BuildingBlock: KAKCAD_clean_linker_0, # of connection points: 3
#     Node 8, Type 1, BuildingBlock: KUMBOL_clean_sbu_1, # of connection points: 6
#     Node 9, Type 1, BuildingBlock: KUMBOL_clean_sbu_1, # of connection points: 6
#     Node 10, Type 1, BuildingBlock: KUMBOL_clean_sbu_1, # of connection points: 6
#     Node 11, Type 1, BuildingBlock: KUMBOL_clean_sbu_1, # of connection points: 6
#     Edge 12, Type (0, 1), BuildingBlock: CIFDUS_clean_linker_0, # of connection points: 2
#     Edge 13, Type (0, 1), BuildingBlock: CIFDUS_clean_linker_0, # of connection points: 2
#     Edge 14, Type (0, 1), BuildingBlock: CIFDUS_clean_linker_0, # of connection points: 2
#     Edge 15, Type (0, 1), BuildingBlock: CIFDUS_clean_linker_0, # of connection points: 2
#     Edge 16, Type (0, 1), BuildingBlock: CIFDUS_clean_linker_0, # of connection points: 2
#     Edge 17, Type (0, 1), BuildingBlock: CIFDUS_clean_linker_0, # of connection points: 2
#     Edge 18, Type (0, 1), BuildingBlock: CIFDUS_clean_linker_0, # of connection points: 2
#     Edge 19, Type (0, 1), BuildingBlock: CIFDUS_clean_linker_0, # of connection points: 2
#     Edge 20, Type (0, 1), BuildingBlock: CIFDUS_clean_linker_0, # of connection points: 2
#     Edge 21, Type (0, 1), BuildingBlock: CIFDUS_clean_linker_0, # of connection points: 2
#     Edge 22, Type (0, 1), BuildingBlock: CIFDUS_clean_linker_0, # of connection points: 2
#     Edge 23, Type (0, 1), BuildingBlock: CIFDUS_clean_linker_0, # of connection points: 2
#     Edge 24, Type (0, 1), BuildingBlock: CIFDUS_clean_linker_0, # of connection points: 2
#     Edge 25, Type (0, 1), BuildingBlock: CIFDUS_clean_linker_0, # of connection points: 2
#     Edge 26, Type (0, 1), BuildingBlock: CIFDUS_clean_linker_0, # of connection points: 2
#     Edge 27, Type (0, 1), BuildingBlock: CIFDUS_clean_linker_0, # of connection points: 2
#     Edge 28, Type (0, 1), BuildingBlock: CIFDUS_clean_linker_0, # of connection points: 2
#     Edge 29, Type (0, 1), BuildingBlock: CIFDUS_clean_linker_0, # of connection points: 2
#     Edge 30, Type (0, 1), BuildingBlock: CIFDUS_clean_linker_0, # of connection points: 2
#     Edge 31, Type (0, 1), BuildingBlock: CIFDUS_clean_linker_0, # of connection points: 2
#     Edge 32, Type (0, 1), BuildingBlock: CIFDUS_clean_linker_0, # of connection points: 2
#     Edge 33, Type (0, 1), BuildingBlock: CIFDUS_clean_linker_0, # of connection points: 2
#     Edge 34, Type (0, 1), BuildingBlock: CIFDUS_clean_linker_0, # of connection points: 2
#     Edge 35, Type (0, 1), BuildingBlock: CIFDUS_clean_linker_0, # of connection points: 2
# Relax obj value: 0.326
# Max RMSD: 0.207
# Mean RMSD: 0.182
data_MOF--net-zzz--node1-KUMBOL_clean_sbu_1--node2-KAKCAD_clean_linker_0--edge1-CIFDUS_clean_linker_0
_symmetry_space_group_name_H-M    P1
_symmetry_Int_Tables_number       1
_symmetry_cell_setting            triclinic
loop_
_symmetry_equiv_pos_as_xyz
'x, y, z'
_cell_length_a     50.711166
_cell_length_b     50.602727
_cell_length_c     18.587838
_cell_angle_alpha  89.946219
_cell_angle_beta   90.298848
_cell_angle_gamma 90.53577
loop_
_atom_site_label
_atom_site_type_symbol
_atom_site_fract_x
_atom_site_fract_y
_atom_site_fract_z
_atom_type_partial_charge
C0 C 0.79338 0.63012 0.98912 0.0
C1 C 0.8197 0.62188 0.9839 0.0
C2 C 0.7787 0.62437 0.05093 0.0
C3 C 0.78996 0.60985 0.10794 0.0
C4 C 0.81724 0.60518 0.10642 0.0
C5 C 0.83191 0.61129 0.04557 0.0
C6 C 0.77317 0.59487 0.16006 0.0
C7 C 0.7493 0.58354 0.13643 0.0
C8 C 0.73622 0.56398 0.17656 0.0
C9 C 0.74763 0.5552 0.24199 0.0
C10 C 0.77137 0.56695 0.26765 0.0
C11 C 0.78317 0.58739 0.22765 0.0
C12 C 0.78686 0.55627 0.32958 0.0
C13 C 0.79282 0.57244 0.38908 0.0
C14 C 0.80094 0.53272 0.32139 0.0
C15 C 0.82141 0.52616 0.36931 0.0
C16 C 0.82829 0.54285 0.42757 0.0
C17 C 0.71183 0.55223 0.14402 0.0
C18 C 0.6868 0.5592 0.16941 0.0
C19 C 0.71348 0.5393 0.07725 0.0
C20 C 0.6909 0.5347 0.03509 0.0
C21 C 0.66592 0.54304 0.05819 0.0
C22 C 0.66409 0.55458 0.12713 0.0
C23 C 0.81295 0.56568 0.43785 0.0
H24 H 0.78354 0.63895 0.9433 0.0
H25 H 0.75798 0.62935 0.05135 0.0
H26 H 0.82695 0.59408 0.1485 0.0
H27 H 0.8521 0.60453 0.04438 0.0
H28 H 0.7414 0.58866 0.08402 0.0
H29 H 0.80149 0.59606 0.24706 0.0
H30 H 0.73856 0.53906 0.27147 0.0
H31 H 0.78264 0.59098 0.39605 0.0
H32 H 0.7974 0.52028 0.27486 0.0
H33 H 0.83273 0.50866 0.3579 0.0
H34 H 0.68498 0.56977 0.21975 0.0
H35 H 0.73256 0.53405 0.0558 0.0
H36 H 0.81689 0.57884 0.48253 0.0
H37 H 0.6453 0.56141 0.14688 0.0
H38 H 0.69316 0.52524 0.98329 0.0
C39 C 0.93548 0.80232 0.99418 0.0
C40 C 0.94758 0.82738 0.99192 0.0
C41 C 0.93555 0.78764 0.05815 0.0
C42 C 0.94837 0.79751 0.12028 0.0
C43 C 0.95834 0.82349 0.11892 0.0
C44 C 0.95776 0.83822 0.05605 0.0
C45 C 0.95528 0.78 0.18202 0.0
C46 C 0.96166 0.75351 0.16993 0.0
C47 C 0.97313 0.73792 0.22386 0.0
C48 C 0.97943 0.74961 0.29138 0.0
C49 C 0.9724 0.77627 0.30489 0.0
C50 C 0.9595 0.79061 0.25084 0.0
C51 C 0.97924 0.79129 0.37173 0.0
C52 C 0.95889 0.79883 0.41825 0.0
C53 C 1.00339 0.80518 0.3759 0.0
C54 C 1.00645 0.82718 0.42177 0.0
C55 C 0.98531 0.83605 0.46414 0.0
C56 C 0.97842 0.70986 0.20412 0.0
C57 C 0.95693 0.69357 0.18468 0.0
C58 C 1.00385 0.70187 0.18439 0.0
C59 C 1.00746 0.67895 0.1426 0.0
C60 C 0.98569 0.66359 0.11862 0.0
C61 C 0.96045 0.67092 0.14261 0.0
C62 C 0.96191 0.82076 0.46399 0.0
H63 H 0.92731 0.79354 0.94574 0.0
H64 H 0.9269 0.76801 0.0576 0.0
H65 H 0.96884 0.83191 0.16437 0.0
H66 H 0.96777 0.85722 0.05657 0.0
H67 H 0.95893 0.74502 0.11688 0.0
H68 H 0.95394 0.81083 0.26183 0.0
H69 H 0.9893 0.73818 0.33259 0.0
H70 H 0.93983 0.78902 0.41505 0.0
H71 H 0.01915 0.80045 0.33909 0.0
H72 H 0.02471 0.83842 0.41979 0.0
H73 H 0.93703 0.69956 0.19735 0.0
H74 H 0.02074 0.71432 0.19697 0.0
H75 H 0.9453 0.82657 0.49658 0.0
H76 H 0.943 0.66022 0.12513 0.0
H77 H 0.02731 0.67387 0.12698 0.0
C78 C 0.70704 0.95235 1.00806 0.0
C79 C 0.68626 0.93767 0.03925 0.0
C80 C 0.73022 0.95737 0.0464 0.0
C81 C 0.7332 0.94793 0.11688 0.0
C82 C 0.71422 0.93018 0.14412 0.0
C83 C 0.69105 0.92487 0.1053 0.0
C84 C 0.7527 0.96097 0.16531 0.0
C85 C 0.77816 0.9672 0.14138 0.0
C86 C 0.79497 0.98431 0.1807 0.0
C87 C 0.78533 0.99566 0.24533 0.0
C88 C 0.75981 0.98891 0.27059 0.0
C89 C 0.74408 0.97135 0.2307 0.0
C90 C 0.74722 1.00116 0.33447 0.0
C91 C 0.74337 0.98597 0.39698 0.0
C92 C 0.73222 0.02414 0.32534 0.0
C93 C 0.71269 0.03088 0.37527 0.0
C94 C 0.70765 1.01479 0.43572 0.0
C95 C 0.82155 0.99097 0.1495 0.0
C96 C 0.83586 0.97142 0.11291 0.0
C97 C 0.83147 1.01702 0.14823 0.0
C98 C 0.85414 0.02349 0.10806 0.0
C99 C 0.86744 1.00416 0.06743 0.0
C100 C 0.85813 0.9779 0.07208 0.0
C101 C 0.72401 0.99281 0.4473 0.0
H102 H 0.70452 0.96266 0.95752 0.0
H103 H 0.74444 0.9711 1.02369 0.0
H104 H 0.71635 0.92208 0.19779 0.0
H105 H 0.67599 0.91262 0.12997 0.0
H106 H 0.7844 0.95958 0.08978 0.0
H107 H 0.72407 0.96733 0.24839 0.0
H108 H 0.79745 1.0095 0.27555 0.0
H109 H 0.75402 0.96769 0.40425 0.0
H110 H 0.73419 0.03579 0.27669 0.0
H111 H 0.70074 0.0481 0.36487 0.0
H112 H 0.82926 0.95101 0.11359 0.0
H113 H 0.8211 0.03265 0.17557 0.0
H114 H 0.72064 0.97979 0.49266 0.0
H115 H 0.86727 0.96226 0.04172 0.0
H116 H 0.86087 0.04385 0.10794 0.0
C117 C 0.53572 0.70677 0.31791 0.0
C118 C 0.53902 0.70885 0.39278 0.0
C119 C 0.54128 0.72821 0.27257 0.0
C120 C 0.55082 0.75247 0.30014 0.0
C121 C 0.55271 0.75518 0.37539 0.0
C122 C 0.54673 0.73364 0.42125 0.0
C123 C 0.56254 0.77248 0.2492 0.0
C124 C 0.5557 0.79973 0.24779 0.0
C125 C 0.56661 0.81682 0.19449 0.0
C126 C 0.58379 0.80627 0.1433 0.0
C127 C 0.58963 0.77941 0.14201 0.0
C128 C 0.57989 0.76298 0.1965 0.0
C129 C 0.60027 0.76748 0.07558 0.0
C130 C 0.5884 0.77383 1.00952 0.0
C131 C 0.61812 0.74647 0.07842 0.0
C132 C 0.62129 0.73006 1.01858 0.0
C133 C 0.60584 0.73385 0.95611 0.0
C134 C 0.5586 0.84489 0.18218 0.0
C135 C 0.53256 0.85084 0.16183 0.0
C136 C 0.57836 0.86413 0.16971 0.0
C137 C 0.57284 0.88734 0.13148 0.0
C138 C 0.54725 0.89231 0.10589 0.0
C139 C 0.52691 0.87441 0.1245 0.0
C140 C 0.59108 0.75722 0.95057 0.0
H141 H 0.52925 0.68828 0.29404 0.0
H142 H 0.53918 0.72542 0.21503 0.0
H143 H 0.56014 0.77343 0.39856 0.0
H144 H 0.54936 0.73601 0.47874 0.0
H145 H 0.54166 0.80732 0.28609 0.0
H146 H 0.58443 0.74209 0.19496 0.0
H147 H 0.5911 0.81873 0.10009 0.0
H148 H 0.57453 0.78993 1.00536 0.0
H149 H 0.62804 0.74157 0.12835 0.0
H150 H 0.6339 0.71303 1.02392 0.0
H151 H 0.51698 0.83632 0.16918 0.0
H152 H 0.59867 0.8601 0.18413 0.0
H153 H 0.57886 0.76132 0.90411 0.0
H154 H 0.50696 0.87769 0.10567 0.0
H155 H 0.58887 0.90089 0.11909 0.0
C156 C 0.24314 0.44193 0.37856 0.0
C157 C 0.21826 0.4301 0.36807 0.0
C158 C 0.26008 0.44569 0.32074 0.0
C159 C 0.25275 0.4373 0.25122 0.0
C160 C 0.22973 0.42179 0.24325 0.0
C161 C 0.21258 0.41826 0.30126 0.0
C162 C 0.26641 0.44887 0.18757 0.0
C163 C 0.29326 0.45547 0.19159 0.0
C164 C 0.30494 0.47264 0.14166 0.0
C165 C 0.28977 0.48194 0.08269 0.0
C166 C 0.26306 0.47379 0.07495 0.0
C167 C 0.25171 0.4576 0.12798 0.0
C168 C 0.24543 0.48264 1.01521 0.0
C169 C 0.22824 0.50391 0.0259 0.0
C170 C 0.24087 0.46594 0.95602 0.0
C171 C 0.21904 0.46974 0.91033 0.0
C172 C 0.20094 0.49022 0.92295 0.0
C173 C 0.33203 0.48222 0.15982 0.0
C174 C 0.33497 0.50373 0.20709 0.0
C175 C 0.35359 0.46538 0.15023 0.0
C176 C 0.37695 0.46901 0.19017 0.0
C177 C 0.37923 0.48929 0.242 0.0
C178 C 0.35822 0.50724 0.24759 0.0
C179 C 0.2064 0.50777 0.98017 0.0
H180 H 0.24823 0.45136 0.42912 0.0
H181 H 0.27752 0.45775 0.32975 0.0
H182 H 0.22391 0.4142 0.19103 0.0
H183 H 0.19373 0.40857 0.292 0.0
H184 H 0.30495 0.44857 0.23677 0.0
H185 H 0.23081 0.45308 0.1244 0.0
H186 H 0.29846 0.49549 0.0442 0.0
H187 H 0.23077 0.5166 0.07239 0.0
H188 H 0.25336 0.44899 0.9475 0.0
H189 H 0.21587 0.45601 0.86641 0.0
H190 H 0.31839 0.5165 0.21746 0.0
H191 H 0.35167 0.44824 0.11565 0.0
H192 H 0.19292 0.52358 0.99246 0.0
H193 H 0.35883 0.52295 0.28707 0.0
H194 H 0.39278 0.45508 0.18273 0.0
C195 C 0.11632 0.26332 0.35964 0.0
C196 C 0.12573 0.23802 0.34415 0.0
C197 C 0.10936 0.2803 0.30384 0.0
C198 C 0.11232 0.27248 0.23152 0.0
C199 C 0.12705 0.24962 0.21737 0.0
C200 C 0.13352 0.23235 0.27341 0.0
C201 C 0.09491 0.28425 0.17501 0.0
C202 C 0.08583 0.31018 0.1825 0.0
C203 C 0.06282 0.3186 0.14762 0.0
C204 C 0.05005 0.30143 0.09787 0.0
C205 C 0.06073 0.27616 0.08362 0.0
C206 C 0.08279 0.26783 0.12318 0.0
C207 C 0.04823 0.25643 0.03395 0.0
C208 C 0.03099 0.23711 0.06161 0.0
C209 C 0.05823 0.25282 0.96425 0.0
C210 C 0.05157 0.23016 0.92377 0.0
C211 C 0.03498 0.21022 0.95226 0.0
C212 C 0.05131 0.34373 0.17447 0.0
C213 C 0.033 0.34269 0.23091 0.0
C214 C 0.06425 0.36788 0.16069 0.0
C215 C 0.06003 0.39003 0.20459 0.0
C216 C 0.04317 0.38854 0.26473 0.0
C217 C 0.02899 0.36473 0.27545 0.0
C218 C 0.02442 0.21442 1.02148 0.0
H219 H 0.11034 0.26841 0.41374 0.0
H220 H 0.09849 0.29779 0.31824 0.0
H221 H 0.13097 0.24356 0.16265 0.0
H222 H 0.14138 0.21312 0.2603 0.0
H223 H 0.09531 0.32333 0.22092 0.0
H224 H 0.08914 0.24759 0.11681 0.0
H225 H 0.03194 0.30744 0.0717 0.0
H226 H 0.02373 0.23885 0.1161 0.0
H227 H 0.07217 0.26699 0.94228 0.0
H228 H 0.05989 0.22809 0.87059 0.0
H229 H 0.02341 0.32413 0.24444 0.0
H230 H 0.07896 0.36912 0.11875 0.0
H231 H 1.01203 0.19956 0.04654 0.0
H232 H 0.01607 0.36238 0.32121 0.0
H233 H 0.07089 0.40803 0.19293 0.0
C234 C 0.33055 0.10519 0.36565 0.0
C235 C 0.35132 0.12065 0.33734 0.0
C236 C 0.30764 0.10059 0.32571 0.0
C237 C 0.30493 0.11125 0.25641 0.0
C238 C 0.32388 0.12965 0.23231 0.0
C239 C 0.3468 0.13448 0.27272 0.0
C240 C 0.28581 0.09887 0.20551 0.0
C241 C 0.26054 0.09126 0.22825 0.0
C242 C 0.24465 0.07418 0.18658 0.0
C243 C 0.25437 0.06479 0.12003 0.0
C244 C 0.27966 0.07284 0.09601 0.0
C245 C 0.29481 0.09012 0.13859 0.0
C246 C 0.29291 0.06147 0.03196 0.0
C247 C 0.30686 0.03774 0.03916 0.0
C248 C 0.29806 0.07761 0.97195 0.0
C249 C 0.31758 0.0708 0.9221 0.0
C250 C 0.33285 0.04795 0.9319 0.0
C251 C 0.21915 0.06498 0.21809 0.0
C252 C 0.21924 0.05258 0.2858 0.0
C253 C 0.1948 0.072 0.18749 0.0
C254 C 0.17115 0.06773 0.22548 0.0
C255 C 0.17135 0.05614 0.29462 0.0
C256 C 0.19575 0.04815 0.32335 0.0
C257 C 0.32662 0.03108 0.98986 0.0
H258 H 0.33293 0.09406 0.41495 0.0
H259 H 0.29347 0.08632 0.34607 0.0
H260 H 0.32198 0.13868 0.1797 0.0
H261 H 0.36188 0.14729 0.2503 0.0
H262 H 0.25356 0.09787 0.28022 0.0
H263 H 0.31474 0.09497 0.12188 0.0
H264 H 0.24283 0.05078 0.0887 0.0
H265 H 0.30385 0.02531 0.08596 0.0
H266 H 0.28821 0.09641 0.9663 0.0
H267 H 0.32193 0.0844 0.87864 0.0
H268 H 0.23774 0.04722 0.3111 0.0
H269 H 0.19416 0.08191 0.13585 0.0
H270 H 0.33778 1.01322 0.99879 0.0
H271 H 0.19693 0.03952 0.37659 0.0
H272 H 0.15276 0.07393 0.20122 0.0
C273 C 0.46567 0.33194 0.94119 0.0
C274 C 0.49201 0.33987 0.92984 0.0
C275 C 0.45962 0.31044 0.98623 0.0
C276 C 0.47968 0.29614 1.02114 0.0
C277 C 0.50601 0.3025 1.00484 0.0
C278 C 0.5121 0.32404 0.95972 0.0
C279 C 0.47338 0.28135 0.08868 0.0
C280 C 0.47979 0.25447 0.10142 0.0
C281 C 0.47478 0.243 0.16984 0.0
C282 C 0.46566 0.25912 0.22565 0.0
C283 C 0.46022 0.28593 0.21449 0.0
C284 C 0.46272 0.29626 0.14487 0.0
C285 C 0.45577 0.30383 0.27691 0.0
C286 C 0.44431 0.29447 0.34118 0.0
C287 C 0.46623 0.32972 0.27579 0.0
C288 C 0.46689 0.345 0.33786 0.0
C289 C 0.45776 0.33461 0.4031 0.0
C290 C 0.4796 0.2147 0.18845 0.0
C291 C 0.45857 0.19936 0.21556 0.0
C292 C 0.50537 0.20519 0.19706 0.0
C293 C 0.51005 0.18171 0.23579 0.0
C294 C 0.48906 0.16735 0.26729 0.0
C295 C 0.4632 0.17605 0.25425 0.0
C296 C 0.44576 0.30955 0.40414 0.0
H297 H 0.44957 0.3435 0.9198 0.0
H298 H 0.43913 0.30637 0.9987 0.0
H299 H 0.52192 0.29225 0.03178 0.0
H300 H 0.53264 0.32907 0.95114 0.0
H301 H 0.48816 0.24268 0.05882 0.0
H302 H 0.45783 0.31674 0.13493 0.0
H303 H 0.46417 0.25076 0.27916 0.0
H304 H 0.43536 0.27499 0.34394 0.0
H305 H 0.47582 0.33772 0.22861 0.0
H306 H 0.47666 0.36413 0.33606 0.0
H307 H 0.43851 0.20636 0.21067 0.0
H308 H 0.52201 0.21686 0.17847 0.0
H309 H 0.43859 0.30123 0.45415 0.0
H310 H 0.4465 0.16532 0.27623 0.0
H311 H 0.53024 0.17574 0.24484 0.0
C312 C 0.08397 0.05881 0.83676 0.0
C313 C 0.06334 0.06564 0.9526 0.0
C314 C 0.06454 0.05216 0.88628 0.0
C315 C 0.08123 0.08635 0.96711 0.0
C316 C 0.10259 0.07889 0.85227 0.0
C317 C 0.10086 0.09289 0.91723 0.0
N318 N 0.08457 0.04569 0.77303 0.0
C319 C 0.1044 0.05001 0.72497 0.0
C320 C 0.12237 0.08431 0.80185 0.0
C321 C 0.12343 0.06961 0.73828 0.0
Gd322 Gd 0.9959 0.03912 0.62489 0.0
Gd323 Gd 0.0525 1.0128 0.75619 0.0
N324 N 0.04759 0.03186 0.87096 0.0
C325 C 0.04469 0.0574 1.00327 0.0
C326 C 0.03096 0.0224 0.92271 0.0
C327 C 0.02877 0.03539 0.98873 0.0
H328 H 0.01978 1.00445 0.91451 0.0
H329 H 0.01513 0.0281 0.0289 0.0
H330 H 0.01921 0.01877 0.46745 0.0
H331 H 0.10526 0.03851 0.67612 0.0
H332 H 1.00593 0.98891 0.36775 0.0
H333 H 0.04313 0.06725 0.05479 0.0
H334 H 0.08042 0.09706 1.0175 0.0
H335 H 0.9407 0.05094 0.71734 0.0
H336 H 0.13704 0.0996 0.8118 0.0
H337 H 0.13888 0.07338 0.69955 0.0
H338 H 0.91898 0.95912 0.4334 0.0
H339 H 0.11477 0.10863 0.92971 0.0
H340 H 0.88006 0.99825 0.64216 0.0
H341 H 0.89552 0.0327 0.72745 0.0
N342 N 0.95153 0.02525 0.63243 0.0
C343 C 0.94296 1.00748 0.58282 0.0
C344 C 0.93451 0.03511 0.68206 0.0
C345 C 0.9001 1.00575 0.63874 0.0
C346 C 0.90875 0.02516 0.687 0.0
C347 C 0.91707 0.9971 0.58468 0.0
H348 H 0.88906 0.97072 0.53223 0.0
N349 N 0.98408 1.01205 0.52684 0.0
C350 C 0.95967 1.00095 0.5275 0.0
C351 C 0.96829 0.97912 0.41467 0.0
C352 C 0.95117 0.98388 0.472 0.0
C353 C 1.00024 1.00886 0.46889 0.0
C354 C 0.99279 0.99198 0.41261 0.0
O355 O 0.04989 0.05607 0.72108 0.0
O356 O 1.00599 0.06259 0.72468 0.0
O357 O 1.00789 0.0677 0.54548 0.0
O358 O 0.96976 0.0715 0.59558 0.0
O359 O 1.01061 1.00183 0.78911 0.0
O360 O 0.98591 0.03626 0.74444 0.0
O361 O 1.00819 0.99636 0.60832 0.0
O362 O 0.02285 0.98174 0.71888 0.0
O363 O 0.07315 0.99036 0.83802 0.0
O364 O 0.08418 0.98631 0.72676 0.0
O365 O 0.03864 0.04406 0.58769 0.0
O366 O 0.06087 1.0092 0.63816 0.0
C367 C 0.02992 0.07127 0.73706 0.0
C368 C 0.98905 1.01627 0.78919 0.0
C369 C 0.99555 0.11044 0.57471 0.0
C370 C 0.02554 0.14742 0.55082 0.0
C371 C 0.9968 0.1482 0.65519 0.0
C372 C 0.98645 0.1234 0.63646 0.0
C373 C 0.01631 0.16015 0.61291 0.0
C374 C 0.01494 0.12262 0.53248 0.0
C375 C 0.98795 0.08302 0.55716 0.0
C376 C 0.9258 0.97255 0.47503 0.0
C377 C 0.90879 0.97912 0.53138 0.0
H378 H 0.96254 0.96607 0.37104 0.0
C379 C 1.0141 0.97717 0.65317 0.0
C380 C 0.05808 0.02693 0.58728 0.0
C381 C 0.08246 0.94793 0.79626 0.0
C382 C 0.05198 0.91064 0.8106 0.0
C383 C 0.09884 0.90326 0.79038 0.0
C384 C 0.10345 0.93053 0.78751 0.0
C385 C 0.07336 0.89331 0.80225 0.0
C386 C 0.05698 0.93791 0.80678 0.0
C387 C 0.08625 0.97662 0.79131 0.0
H388 H 0.98986 0.15807 0.70303 0.0
H389 H 0.9719 0.1142 0.67106 0.0
H390 H 0.02386 0.17943 0.62827 0.0
H391 H 0.02251 0.11212 0.48625 0.0
H392 H 0.11511 0.88977 0.78413 0.0
H393 H 0.12325 0.93799 0.77836 0.0
H394 H 0.0707 0.87214 0.80664 0.0
H395 H 0.04096 0.95167 0.81141 0.0
C396 C 0.529 0.94294 0.68181 0.0
C397 C 0.49623 0.92532 0.76401 0.0
C398 C 0.50508 0.94554 0.71736 0.0
C399 C 0.51207 0.90312 0.77623 0.0
C400 C 0.54476 0.92049 0.69312 0.0
C401 C 0.53623 0.90069 0.74078 0.0
N402 N 0.53736 0.96296 0.63838 0.0
C403 C 0.56066 0.96132 0.60228 0.0
C404 C 0.5689 0.91887 0.65719 0.0
C405 C 0.5768 0.93931 0.61131 0.0
Gd406 Gd 0.53188 0.06105 0.74611 0.0
Gd407 Gd 0.50932 0.99933 0.6279 0.0
N408 N 0.49032 0.96753 0.70555 0.0
C409 C 0.47147 0.92775 0.79595 0.0
C410 C 0.46513 0.96858 0.73106 0.0
C411 C 0.45564 0.9492 0.77818 0.0
H412 H 0.4518 0.98379 0.71387 0.0
H413 H 0.43589 0.95056 0.79963 0.0
H414 H 0.58987 0.07648 0.66244 0.0
H415 H 0.56672 0.97699 0.56634 0.0
H416 H 0.60633 0.10969 0.57744 0.0
H417 H 0.46399 0.91268 0.83214 0.0
H418 H 0.50567 0.88757 0.81241 0.0
H419 H 0.47458 0.08387 0.80707 0.0
H420 H 0.58158 0.90195 0.66456 0.0
H421 H 0.59535 0.93815 0.58301 0.0
H422 H 0.53691 0.17301 0.56262 0.0
H423 H 0.54818 0.88341 0.75066 0.0
H424 H 0.46056 0.15913 0.70912 0.0
H425 H 0.44634 0.123 0.79034 0.0
N426 N 0.50416 0.09768 0.73538 0.0
C427 C 0.51276 0.11763 0.6921 0.0
C428 C 0.48084 0.09951 0.77129 0.0
C429 C 0.47306 0.14208 0.7165 0.0
C430 C 0.46491 0.12168 0.76221 0.0
C431 C 0.49723 0.14025 0.68079 0.0
H432 H 0.49425 0.17742 0.62351 0.0
N433 N 0.55133 0.0928 0.66909 0.0
C434 C 0.53673 0.11487 0.65694 0.0
C435 C 0.5708 0.1326 0.57976 0.0
C436 C 0.54589 0.1351 0.61081 0.0
C437 C 0.57667 0.09171 0.64469 0.0
C438 C 0.58647 0.11109 0.59805 0.0
O439 O 0.53945 0.99371 0.7179 0.0
O440 O 0.52659 0.02213 0.80554 0.0
O441 O 0.5669 0.07068 0.80865 0.0
O442 O 0.52877 0.08324 0.84568 0.0
O443 O 0.47667 0.02233 0.68524 0.0
O444 O 0.49721 0.03773 0.78829 0.0
O445 O 0.50167 0.06695 0.65647 0.0
O446 O 0.51402 0.03834 0.56851 0.0
O447 O 0.47423 0.989 0.56647 0.0
O448 O 0.51248 0.9774 0.52792 0.0
O449 O 0.56442 0.03811 0.68791 0.0
O450 O 0.54367 0.0229 0.58505 0.0
C451 C 0.53574 0.99908 0.78606 0.0
C452 C 0.47583 0.0305 0.7528 0.0
C453 C 0.55876 0.06932 0.93346 0.0
C454 C 0.57161 0.03198 1.00937 0.0
C455 C 0.56146 0.07479 0.06259 0.0
C456 C 0.55645 0.08526 0.99451 0.0
C457 C 0.56929 0.04852 0.07011 0.0
C458 C 0.56555 0.04262 0.94131 0.0
C459 C 0.55349 0.08046 0.86183 0.0
C460 C 0.53026 0.15744 0.59843 0.0
C461 C 0.50603 0.16002 0.63341 0.0
H462 H 0.57854 0.14769 0.54403 0.0
C463 C 0.5048 0.06135 0.5882 0.0
C464 C 0.56512 0.03022 0.62006 0.0
C465 C 0.48187 0.99109 0.4415 0.0
C466 C 0.46797 0.02847 0.36715 0.0
C467 C 0.47934 0.9863 0.31214 0.0
C468 C 0.48466 0.97559 0.37977 0.0
C469 C 0.47079 1.01237 0.30573 0.0
C470 C 0.47426 0.01761 0.4348 0.0
C471 C 0.48764 0.97974 0.51259 0.0
H472 H 0.55988 0.08724 0.10966 0.0
H473 H 0.55084 0.10579 0.98945 0.0
H474 H 0.57441 0.04166 0.12346 0.0
H475 H 0.56654 0.03039 0.89385 0.0
H476 H 0.4813 0.97418 0.26454 0.0
H477 H 0.49089 0.95522 0.38395 0.0
H478 H 0.46552 0.01941 0.25265 0.0
H479 H 0.47289 0.02955 0.48276 0.0
C480 C 0.44087 0.49852 0.72755 0.0
C481 C 0.4438 0.47437 0.83977 0.0
C482 C 0.45352 0.49367 0.79183 0.0
C483 C 0.42167 0.45908 0.81997 0.0
C484 C 0.41748 0.48469 0.70976 0.0
C485 C 0.40848 0.46427 0.75502 0.0
N486 N 0.45006 0.51859 0.68598 0.0
C487 C 0.43445 0.5285 0.63235 0.0
C488 C 0.40317 0.49274 0.64917 0.0
C489 C 0.41132 0.51524 0.61149 0.0
Gd490 Gd 0.54675 0.50153 0.59995 0.0
Gd491 Gd 0.49168 0.53681 0.71891 0.0
N492 N 0.47469 0.50889 0.80903 0.0
C493 C 0.45628 0.4715 0.90667 0.0
C494 C 0.48598 0.50738 0.87577 0.0
C495 C 0.47721 0.4884 0.92521 0.0
H496 H 0.50248 0.52013 0.88948 0.0
H497 H 0.48669 0.48669 0.97728 0.0
H498 H 0.5158 0.44931 0.52611 0.0
H499 H 0.43994 0.54654 0.60489 0.0
H500 H 0.51047 0.42855 0.40692 0.0
H501 H 0.44952 0.45681 0.94496 0.0
H502 H 0.41411 0.44384 0.85548 0.0
H503 H 0.5984 0.54214 0.58704 0.0
H504 H 0.38509 0.48265 0.6335 0.0
H505 H 0.39965 0.52256 0.56692 0.0
H506 H 0.56834 0.47904 0.25425 0.0
H507 H 0.3908 0.45308 0.74166 0.0
H508 H 0.62303 0.54517 0.36696 0.0
H509 H 0.62796 0.56019 0.49314 0.0
N510 N 0.57675 0.51783 0.51445 0.0
C511 C 0.57446 0.50861 0.44638 0.0
C512 C 0.59621 0.53551 0.53218 0.0
C513 C 0.61003 0.53729 0.40795 0.0
C514 C 0.61292 0.54576 0.47913 0.0
C515 C 0.59088 0.51815 0.39097 0.0
H516 H 0.60036 0.51498 0.27769 0.0
N517 N 0.54248 0.47901 0.48947 0.0
C518 C 0.55664 0.48849 0.43337 0.0
C519 C 0.53726 0.45563 0.35457 0.0
C520 C 0.55443 0.47717 0.36429 0.0
C521 C 0.52658 0.45728 0.48102 0.0
C522 C 0.52348 0.44547 0.41346 0.0
O523 O 0.51047 0.4976 0.74783 0.0
O524 O 0.51204 0.47733 0.64017 0.0
O525 O 0.57847 0.47291 0.59823 0.0
O526 O 0.56272 0.48584 0.69978 0.0
O527 O 0.53141 0.53125 0.77213 0.0
O528 O 0.55878 0.53515 0.67532 0.0
O529 O 0.54406 0.54524 0.57123 0.0
O530 O 0.51034 0.56527 0.63661 0.0
O531 O 0.50099 0.56823 0.7934 0.0
O532 O 0.46124 0.56418 0.7533 0.0
O533 O 0.50406 0.49667 0.56475 0.0
O534 O 0.48639 0.53633 0.5972 0.0
C535 C 0.50656 0.47641 0.70878 0.0
C536 C 0.55483 0.53612 0.74528 0.0
C537 C 0.57549 0.44188 0.69319 0.0
C538 C 0.5524 0.39938 0.68652 0.0
C539 C 0.58216 0.40902 0.78639 0.0
C540 C 0.58735 0.43412 0.75798 0.0
C541 C 0.56462 0.39178 0.75132 0.0
C542 C 0.55865 0.42427 0.6571 0.0
C543 C 0.57808 0.46926 0.66774 0.0
C544 C 0.56989 0.4873 0.30788 0.0
C545 C 0.58811 0.50776 0.32122 0.0
H546 H 0.53494 0.44639 0.30234 0.0
C547 C 0.52943 0.56595 0.58783 0.0
C548 C 0.48796 0.51633 0.55225 0.0
C549 C 0.4785 0.60767 0.76683 0.0
C550 C 0.50323 0.64914 0.75308 0.0
C551 C 0.45569 0.64792 0.73416 0.0
C552 C 0.45507 0.62096 0.75042 0.0
C553 C 0.47951 0.66205 0.73625 0.0
C554 C 0.50249 0.62178 0.76581 0.0
C555 C 0.47814 0.57936 0.78654 0.0
H556 H 0.59116 0.40319 0.83681 0.0
H557 H 0.60015 0.44765 0.78723 0.0
H558 H 0.56008 0.37293 0.77611 0.0
H559 H 0.55002 0.43037 0.6065 0.0
H560 H 0.43752 0.65808 0.72181 0.0
H561 H 0.4363 0.61055 0.75054 0.0
H562 H 0.47914 0.68317 0.72716 0.0
H563 H 0.52073 0.61149 0.77628 0.0
C564 C 0.03827 0.45207 0.7964 0.0
C565 C 0.06343 0.46585 0.90157 0.0
C566 C 0.04469 0.47121 0.84724 0.0
C567 C 0.07554 0.44102 0.90409 0.0
C568 C 0.05041 0.42711 0.79879 0.0
C569 C 0.06906 0.42172 0.85284 0.0
N570 N 0.02048 0.45799 0.74397 0.0
C571 C 1.01324 0.43957 0.6939 0.0
C572 C 0.0435 0.40834 0.74656 0.0
C573 C 0.02474 0.41457 0.69411 0.0
Gd574 Gd 0.02595 0.55755 0.61697 0.0
Gd575 Gd 1.00251 0.50052 0.74791 0.0
N576 N 0.03329 0.49539 0.84197 0.0
C577 C 0.06967 0.48572 0.95127 0.0
C578 C 0.0386 0.51447 0.89191 0.0
C579 C 0.05706 0.51007 0.94666 0.0
H580 H 0.02855 0.53303 0.89048 0.0
H581 H 0.06143 0.52542 0.98556 0.0
H582 H 1.00327 0.52209 0.47416 0.0
H583 H 0.99818 0.44392 0.6546 0.0
H584 H 0.96935 0.5257 0.38043 0.0
H585 H 0.08404 0.48242 0.99359 0.0
H586 H 0.09007 0.4366 0.94524 0.0
H587 H 0.028 0.61613 0.6997 0.0
H588 H 0.05237 0.38894 0.74657 0.0
H589 H 0.019 0.40007 0.65409 0.0
H590 H 0.9349 0.61281 0.41148 0.0
H591 H 0.07863 0.40268 0.85539 0.0
H592 H 0.97105 0.66648 0.60063 0.0
H593 H 1.00526 0.65898 0.69364 0.0
N594 N 1.00628 0.59926 0.61313 0.0
C595 C 0.98802 0.60315 0.56053 0.0
C596 C 1.01274 0.619 0.66004 0.0
C597 C 0.98086 0.64758 0.60342 0.0
C598 C 1.00009 0.6434 0.65615 0.0
C599 C 0.97465 0.62738 0.55461 0.0
H600 H 0.94493 0.6491 0.49546 0.0
N601 N 0.99518 0.55929 0.52144 0.0
C602 C 0.98231 0.58261 0.51329 0.0
C603 C 0.95809 0.56495 0.41155 0.0
C604 C 0.96318 0.58593 0.45868 0.0
C605 C 0.99139 0.53944 0.47277 0.0
C606 C 0.97251 0.54173 0.41811 0.0
O607 O 0.04676 0.50215 0.72355 0.0
O608 O 0.05439 0.5463 0.70538 0.0
O609 O 0.05005 0.55689 0.52158 0.0
O610 O 0.0557 0.58817 0.59928 0.0
O611 O 0.9971 0.54292 0.7883 0.0
O612 O 0.0298 0.56805 0.73473 0.0
O613 O 0.98285 0.5574 0.6505 0.0
O614 O 0.97386 0.51331 0.6604 0.0
O615 O 0.97778 0.50227 0.84208 0.0
O616 O 0.97296 0.46983 0.76721 0.0
O617 O 0.03326 0.51468 0.58251 0.0
O618 O 0.99794 0.49233 0.62966 0.0
C619 C 0.06274 0.5228 0.72405 0.0
C620 C 1.01257 0.56407 0.78658 0.0
C621 C 0.09383 0.56759 0.55403 0.0
C622 C 0.12807 0.53436 0.53903 0.0
C623 C 0.13708 0.57422 0.60825 0.0
C624 C 0.11152 0.5831 0.59471 0.0
C625 C 0.14536 0.55 0.58072 0.0
C626 C 0.10234 0.54325 0.52663 0.0
C627 C 0.06591 0.57527 0.54586 0.0
C628 C 0.94974 0.60998 0.45284 0.0
C629 C 0.95547 0.63065 0.50066 0.0
H630 H 0.94348 0.56667 0.3691 0.0
C631 C 0.96611 0.5375 0.64666 0.0
C632 C 0.01701 0.49419 0.58249 0.0
C633 C 0.93454 0.4895 0.81143 0.0
C634 C 0.90031 0.523 0.79916 0.0
C635 C 0.88862 0.47618 0.80813 0.0
C636 C 0.91522 0.46963 0.81412 0.0
C637 C 0.88114 0.50262 0.80197 0.0
C638 C 0.92702 0.51587 0.80039 0.0
C639 C 0.96259 0.48298 0.81983 0.0
H640 H 0.15055 0.58619 0.64005 0.0
H641 H 0.10544 0.60181 0.61718 0.0
H642 H 0.16547 0.5439 0.59051 0.0
H643 H 0.08877 0.53085 0.49629 0.0
H644 H 0.87369 0.4608 0.81086 0.0
H645 H 0.92069 0.44915 0.82128 0.0
H646 H 0.8603 0.50695 0.80282 0.0
H647 H 0.94211 0.531 0.79521 0.0
H648 H 0.15641 1.0151 0.38166 0.0
H649 H 0.1307 0.09154 0.3082 0.0
H650 H 0.09268 0.08901 0.38864 0.0
H651 H 0.06792 0.06603 0.48618 0.0
H652 H 0.09525 0.98998 0.55964 0.0
H653 H 0.13121 0.99168 0.47405 0.0
C654 C 0.14256 0.03128 0.38313 0.0
C655 C 0.14671 0.05354 0.33881 0.0
C656 C 0.12092 0.02988 0.43032 0.0
C657 C 0.12805 0.07401 0.34088 0.0
C658 C 0.10634 0.07267 0.38748 0.0
C659 C 0.08161 0.04974 0.48304 0.0
C660 C 0.07878 0.028 0.53024 0.0
C661 C 0.10271 0.05083 0.43333 0.0
C662 C 0.09686 1.00713 0.52496 0.0
C663 C 0.11755 1.00801 0.47572 0.0
H664 H 0.46489 0.15643 0.39542 0.0
H665 H 0.52479 0.12705 0.25317 0.0
H666 H 0.53423 0.0912 0.33781 0.0
H667 H 0.52643 0.06881 0.45478 0.0
H668 H 0.46665 0.09873 0.59626 0.0
H669 H 0.45625 0.13353 0.50978 0.0
C670 C 0.47983 0.14205 0.38232 0.0
C671 C 0.49408 0.14461 0.31752 0.0
C672 C 0.48537 0.1216 0.4317 0.0
C673 C 0.51365 0.12586 0.30263 0.0
C674 C 0.51902 0.10526 0.35105 0.0
C675 C 0.51101 0.08285 0.46635 0.0
C676 C 0.49759 0.08134 0.53257 0.0
C677 C 0.50517 0.10303 0.41612 0.0
C678 C 0.47765 0.09971 0.54654 0.0
C679 C 0.47162 0.1196 0.49688 0.0
H680 H 0.40387 0.53283 0.30288 0.0
H681 H 0.406 0.44754 0.30185 0.0
H682 H 0.44076 0.44828 0.39273 0.0
H683 H 0.46891 0.47291 0.47919 0.0
H684 H 0.4655 0.55802 0.48338 0.0
H685 H 0.43283 0.55743 0.38639 0.0
C686 C 0.4118 0.51434 0.32246 0.0
C687 C 0.40205 0.49018 0.29445 0.0
C688 C 0.43158 0.51481 0.37635 0.0
C689 C 0.41318 0.46655 0.32054 0.0
C690 C 0.433 0.46689 0.37344 0.0
C691 C 0.46129 0.49134 0.45821 0.0
C692 C 0.46965 0.51548 0.48905 0.0
C693 C 0.44219 0.49088 0.40246 0.0
C694 C 0.45931 0.53913 0.46132 0.0
C695 C 0.44059 0.53882 0.40567 0.0
H696 H 1.00103 0.40459 0.34698 0.0
H697 H 0.08303 0.42277 0.30696 0.0
H698 H 0.08211 0.45735 0.39795 0.0
H699 H 0.05854 0.48178 0.49353 0.0
H700 H 0.97721 0.46181 0.53637 0.0
H701 H 0.97771 0.42861 0.44166 0.0
C702 C 0.01884 0.41589 0.35818 0.0
C703 C 0.04201 0.41078 0.31887 0.0
C704 C 0.01843 0.43552 0.41224 0.0
C705 C 0.06463 0.42629 0.3344 0.0
C706 C 0.06425 0.44604 0.38736 0.0
C707 C 0.04092 0.47019 0.48203 0.0
C708 C 0.01796 0.47423 0.52306 0.0
C709 C 0.04132 0.45077 0.42714 0.0
C710 C 0.99532 0.45899 0.50685 0.0
C711 C 0.99552 0.43998 0.45223 0.0
H712 H 0.91011 0.97387 0.02748 0.0
H713 H 0.87573 0.05069 0.99255 0.0
H714 H 0.91053 0.06158 0.90755 0.0
H715 H 0.95031 0.04911 0.83982 0.0
H716 H 0.98165 0.97073 0.86541 0.0
H717 H 0.94849 0.9608 0.95653 0.0
C718 C 0.90982 0.99293 1.00092 0.0
C719 C 0.88988 1.0113 1.01758 0.0
C720 C 0.92948 0.99886 0.94967 0.0
C721 C 0.89079 0.03613 0.98296 0.0
C722 C 0.91065 0.04236 0.93329 0.0
C723 C 0.94962 0.02967 0.86416 0.0
C724 C 0.96845 1.01061 0.84466 0.0
C725 C 0.92998 0.02381 0.91563 0.0
C726 C 0.96759 0.98584 0.87909 0.0
C727 C 0.94852 0.9801 0.93123 0.0
H728 H 0.574 0.90435 0.98327 0.0
H729 H 0.5093 0.93054 0.11363 0.0
H730 H 0.50086 0.96669 0.02867 0.0
H731 H 0.51119 0.99025 0.91484 0.0
H732 H 0.57449 0.96223 0.78216 0.0
H733 H 0.58391 0.92736 0.86944 0.0
C734 C 0.55813 0.91807 0.99331 0.0
C735 C 0.54239 0.91479 0.05512 0.0
C736 C 0.55299 0.93838 0.94322 0.0
C737 C 0.52168 0.93255 0.0666 0.0
C738 C 0.51688 0.95325 1.01799 0.0
C739 C 0.52718 0.97663 0.90546 0.0
C740 C 0.54205 0.97881 0.84172 0.0
C741 C 0.53231 0.95631 0.95581 0.0
C742 C 0.56254 0.96083 0.83016 0.0
C743 C 0.56798 0.94089 0.88024 0.0
H744 H 0.66353 0.55137 0.91238 0.0
H745 H 0.61467 0.53003 0.09312 0.0
H746 H 0.57619 0.52698 1.01362 0.0
H747 H 0.55633 0.52957 0.89203 0.0
H748 H 0.60558 0.55041 0.71164 0.0
H749 H 0.64377 0.55412 0.79143 0.0
C750 C 0.64456 0.54574 0.93454 0.0
C751 C 0.64228 0.54082 1.00915 0.0
C752 C 0.62242 0.54392 0.88832 0.0
C753 C 0.61721 0.53416 0.03639 0.0
C754 C 0.59513 0.53229 0.99074 0.0
C755 C 0.57537 0.53508 0.87003 0.0
C756 C 0.57788 0.53963 0.79528 0.0
C757 C 0.59747 0.53711 0.91653 0.0
C758 C 0.60287 0.54662 0.7684 0.0
C759 C 0.62482 0.54878 0.81422 0.0
H760 H 0.0222 0.65871 1.00981 0.0
H761 H 0.95592 0.61769 0.10501 0.0
H762 H 0.95771 0.58421 1.01114 0.0
H763 H 0.97758 0.56654 0.89975 0.0
H764 H 0.04626 0.60568 0.81207 0.0
H765 H 0.04414 0.63925 0.9053 0.0
C766 C 1.0084 0.64224 1.01144 0.0
C767 C 0.98873 0.64133 0.06507 0.0
C768 C 1.00982 0.62252 0.95776 0.0
C769 C 0.97094 0.61968 0.06418 0.0
C770 C 0.97204 0.60025 1.01047 0.0
C771 C 0.9921 0.58239 0.90093 0.0
C772 C 1.01155 0.58379 0.84684 0.0
C773 C 0.99123 0.60155 0.95641 0.0
C774 C 0.03046 0.60434 0.85084 0.0
C775 C 0.02944 0.62355 0.90489 0.0
H776 H 0.09606 0.19642 0.30783 0.0
H777 H 0.13491 0.2327 0.48981 0.0
H778 H 0.10816 0.20563 0.57194 0.0
H779 H 0.06927 0.17644 0.59054 0.0
H780 H 0.02735 0.14616 0.40451 0.0
H781 H 0.05985 0.16594 0.32559 0.0
C782 C 0.0995 0.19767 0.36541 0.0
C783 C 0.1176 0.21631 0.39278 0.0
C784 C 0.08292 0.18357 0.41163 0.0
C785 C 0.12126 0.21823 0.46762 0.0
C786 C 0.10568 0.20308 0.51441 0.0
C787 C 0.06722 0.17427 0.53275 0.0
C788 C 0.04584 0.15972 0.50381 0.0
C789 C 0.08559 0.1866 0.4869 0.0
C790 C 0.04377 0.1568 0.4287 0.0
C791 C 0.06231 0.16822 0.38324 0.0
H792 H 0.39737 0.11937 0.26085 0.0
H793 H 0.36775 0.11276 0.47772 0.0
H794 H 0.40538 0.08566 0.51076 0.0
H795 H 0.43802 0.05443 0.46753 0.0
H796 H 0.47057 0.06409 0.25434 0.0
H797 H 0.44003 0.09996 0.23103 0.0
C798 C 0.39949 0.11315 0.31634 0.0
C799 C 0.37865 0.11662 0.3654 0.0
C800 C 0.42108 0.09736 0.33497 0.0
C801 C 0.38264 0.10905 0.43754 0.0
C802 C 0.40415 0.09346 0.45653 0.0
C803 C 0.43943 0.06475 0.41666 0.0
C804 C 0.45566 0.05517 0.36117 0.0
C805 C 0.42219 0.08575 0.40388 0.0
C806 C 0.45714 0.0697 0.29659 0.0
C807 C 0.43986 0.0905 0.28337 0.0
H808 H 0.48725 0.31473 0.51046 0.0
H809 H 0.44719 0.38523 0.4417 0.0
H810 H 0.47154 0.41123 0.53128 0.0
H811 H 0.50876 0.41465 0.61292 0.0
H812 H 0.55138 0.345 0.67699 0.0
H813 H 0.52122 0.31765 0.60548 0.0
C814 C 0.48317 0.33559 0.51722 0.0
C815 C 0.46554 0.34817 0.47006 0.0
C816 C 0.49808 0.35053 0.56647 0.0
C817 C 0.46064 0.37526 0.47794 0.0
C818 C 0.47474 0.3901 0.52845 0.0
C819 C 0.51145 0.39351 0.61219 0.0
C820 C 0.5326 0.38209 0.64988 0.0
C821 C 0.49436 0.37809 0.57034 0.0
C822 C 0.53529 0.35446 0.64883 0.0
C823 C 0.51809 0.33879 0.60766 0.0
H824 H 0.17058 0.44852 0.33056 0.0
H825 H 0.21823 0.42995 0.51639 0.0
H826 H 0.19117 0.45892 0.59057 0.0
H827 H 0.16016 0.49623 0.59534 0.0
H828 H 0.11621 0.51689 0.40389 0.0
H829 H 0.13514 0.47997 0.34001 0.0
C830 C 0.17443 0.44979 0.38793 0.0
C831 C 0.19672 0.4375 0.4176 0.0
C832 C 0.15977 0.46747 0.42901 0.0
C833 C 0.20137 0.43954 0.49209 0.0
C834 C 0.1861 0.45634 0.53428 0.0
C835 C 0.15464 0.49252 0.53978 0.0
C836 C 0.13715 0.50967 0.50429 0.0
C837 C 0.16636 0.47167 0.50212 0.0
C838 C 0.12957 0.5041 0.43289 0.0
C839 C 0.14052 0.48302 0.39594 0.0
H840 H 0.94608 0.87945 0.95954 0.0
H841 H 0.9669 0.804 0.8702 0.0
H842 H 0.99836 0.82554 0.78987 0.0
H843 H 0.02822 0.86358 0.77129 0.0
H844 H 1.01413 0.93537 0.89123 0.0
H845 H 0.97254 0.91803 0.93176 0.0
C846 C 0.957 0.86785 0.92089 0.0
C847 C 0.95503 0.84019 0.92305 0.0
C848 C 0.97724 0.87987 0.8816 0.0
C849 C 0.96834 0.82537 0.87074 0.0
C850 C 0.98682 0.83764 0.8258 0.0
C851 C 0.01615 0.87548 0.80635 0.0
C852 C 0.02489 0.9008 0.82801 0.0
C853 C 0.99298 0.86451 0.83544 0.0
C854 C 1.00819 0.91612 0.87153 0.0
C855 C 0.98426 0.90608 0.8959 0.0
H856 H 0.64065 0.94025 0.1178 0.0
H857 H 0.66891 0.94421 0.89908 0.0
H858 H 0.63185 0.97212 0.86631 0.0
H859 H 0.6005 1.00463 0.90941 0.0
H860 H 0.56868 0.99715 0.12407 0.0
H861 H 0.59856 0.96078 0.14819 0.0
C862 C 0.63834 0.94606 0.06204 0.0
C863 C 0.65878 0.94173 1.01225 0.0
C864 C 0.61701 0.9622 0.04344 0.0
C865 C 0.65443 0.94869 0.9398 0.0
C866 C 0.63325 0.96473 0.92095 0.0
C867 C 0.59905 0.99469 0.96082 0.0
C868 C 0.58329 1.00502 1.01632 0.0
C869 C 0.6158 0.97335 0.974 0.0
C870 C 0.58177 0.99095 0.08165 0.0
C871 C 0.59866 0.96986 0.09536 0.0
H872 H 0.59061 0.73494 0.81312 0.0
H873 H 0.60545 0.68083 0.98888 0.0
H874 H 0.5781 0.64778 0.93165 0.0
H875 H 0.54101 0.63908 0.85316 0.0
H876 H 0.52156 0.69391 0.68299 0.0
H877 H 0.55831 0.7224 0.71982 0.0
C878 C 0.5881 0.71585 0.83879 0.0
C879 C 0.5992 0.71123 0.90744 0.0
C880 C 0.57044 0.6974 0.80849 0.0
C881 C 0.59707 0.68562 0.93692 0.0
C882 C 0.58088 0.66662 0.90478 0.0
C883 C 0.54521 0.65666 0.82178 0.0
C884 C 0.52815 0.66432 0.76566 0.0
C885 C 0.56602 0.67308 0.84374 0.0
C886 C 0.53392 0.68766 0.72733 0.0
C887 C 0.55507 0.70393 0.74812 0.0
H888 H 0.87165 0.62744 0.94805 0.0
H889 H 0.79602 0.60511 0.85873 0.0
H890 H 0.81739 0.57643 0.77262 0.0
H891 H 0.85507 0.5474 0.75185 0.0
H892 H 0.92837 0.56349 0.8645 0.0
H893 H 0.91104 0.60437 0.90918 0.0
C894 C 0.85991 0.61689 0.90821 0.0
C895 C 0.83225 0.61732 0.91273 0.0
C896 C 0.87208 0.59828 0.86385 0.0
C897 C 0.81736 0.60475 0.85822 0.0
C898 C 0.82958 0.58783 0.80952 0.0
C899 C 0.86738 0.55988 0.78573 0.0
C900 C 0.89264 0.55135 0.80686 0.0
C901 C 0.85656 0.5826 0.81677 0.0
C902 C 0.90876 0.56885 0.84719 0.0
C903 C 0.89873 0.5924 0.8739 0.0
H904 H 0.06782 0.18236 0.86164 0.0
H905 H 0.98933 0.1802 0.95069 0.0
H906 H 0.98098 0.13773 0.89294 0.0
H907 H 0.99605 0.10019 0.81924 0.0
H908 H 0.0733 0.10345 0.72414 0.0
H909 H 0.08178 0.14628 0.7811 0.0
C910 C 0.0487 0.17293 0.86778 0.0
C911 C 0.02942 0.1848 0.91183 0.0
C912 C 0.04377 0.14838 0.83338 0.0
C913 C 1.00492 0.17165 0.91899 0.0
C914 C 0.99999 0.14727 0.88539 0.0
C915 C 0.01471 0.11033 0.81068 0.0
C916 C 0.03428 0.09818 0.76868 0.0
C917 C 0.01932 0.13527 0.84302 0.0
C918 C 0.05817 0.11188 0.75769 0.0
C919 C 0.06295 0.13654 0.78996 0.0
H920 H 0.38197 0.0333 0.97564 0.0
H921 H 0.33745 0.0525 0.78479 0.0
H922 H 0.37711 0.04745 0.71138 0.0
H923 H 0.42537 0.03919 0.70201 0.0
H924 H 0.46939 0.02207 0.89545 0.0
H925 H 0.42924 0.02434 0.9664 0.0
C926 C 0.38078 0.03596 0.91782 0.0
C927 C 0.35658 0.0431 0.88598 0.0
C928 C 0.40378 0.03348 0.8761 0.0
C929 C 0.35574 0.04707 0.81099 0.0
C930 C 0.37847 0.04415 0.76888 0.0
C931 C 0.42605 0.03572 0.75956 0.0
C932 C 0.45046 0.03049 0.79319 0.0
C933 C 0.40273 0.0376 0.80086 0.0
C934 C 0.451 0.02632 0.86804 0.0
C935 C 0.42798 0.02757 0.90884 0.0
H936 H 0.46738 0.36339 0.81331 0.0
H937 H 0.53052 0.37581 0.96666 0.0
H938 H 0.53981 0.41903 0.91439 0.0
H939 H 0.53035 0.4538 0.82473 0.0
H940 H 0.46757 0.44177 0.67117 0.0
H941 H 0.45732 0.3986 0.72498 0.0
C942 C 0.48314 0.37552 0.83558 0.0
C943 C 0.49833 0.36588 0.89385 0.0
C944 C 0.48833 0.40074 0.8055 0.0
C945 C 0.51879 0.38212 0.92107 0.0
C946 C 0.52396 0.40713 0.89171 0.0
C947 C 0.51439 0.44169 0.80333 0.0
C948 C 0.49996 0.45073 0.74344 0.0
C949 C 0.50893 0.41667 0.83387 0.0
C950 C 0.47918 0.43502 0.71661 0.0
C951 C 0.47332 0.41035 0.74745 0.0
H952 H 0.17504 0.53467 0.87513 0.0
H953 H 0.16907 0.44956 0.87551 0.0
H954 H 0.12704 0.45181 0.81148 0.0
H955 H 0.09088 0.47791 0.7579 0.0
H956 H 0.09644 0.56306 0.76102 0.0
H957 H 0.1394 0.56067 0.81954 0.0
C958 C 0.16458 0.51657 0.86144 0.0
C959 C 0.1756 0.49198 0.88041 0.0
C960 C 0.14008 0.51796 0.82485 0.0
C961 C 0.1616 0.46882 0.86096 0.0
C962 C 0.13731 0.47006 0.82463 0.0
C963 C 0.10135 0.49596 0.77186 0.0
C964 C 0.08989 0.52062 0.75591 0.0
C965 C 0.1262 0.49452 0.80668 0.0
C966 C 0.10438 0.54373 0.77281 0.0
C967 C 0.12907 0.54242 0.80668 0.0
H968 H 0.02647 0.85917 0.54107 0.0
H969 H 0.94666 0.87327 0.46996 0.0
H970 H 0.94804 0.91711 0.52383 0.0
H971 H 0.9721 0.9524 0.58893 0.0
H972 H 0.05212 0.93952 0.65709 0.0
H973 H 0.0503 0.89446 0.609 0.0
C974 C 1.00935 0.87179 0.53746 0.0
C975 C 0.98641 0.8625 0.50152 0.0
C976 C 1.01025 0.89735 0.56872 0.0
C977 C 0.96444 0.87936 0.49813 0.0
C978 C 0.96525 0.90467 0.52857 0.0
C979 C 0.98918 0.93981 0.59261 0.0
C980 C 1.01218 0.94935 0.62696 0.0
C981 C 0.98807 0.914 0.56355 0.0
C982 C 0.03396 0.93249 0.63269 0.0
C983 C 0.03301 0.90678 0.60423 0.0
H984 H 0.65784 0.02791 0.39354 0.0
H985 H 0.70395 1.01128 0.58345 0.0
H986 H 0.66459 1.01581 0.65824 0.0
H987 H 0.61614 0.02291 0.66928 0.0
H988 H 0.57073 0.03797 0.47687 0.0
H989 H 0.6105 0.03602 0.40443 0.0
C990 C 0.65946 0.02571 0.45143 0.0
C991 C 0.68404 0.0194 0.48251 0.0
C992 C 0.63665 0.02798 0.49404 0.0
C993 C 0.68538 1.01602 0.55769 0.0
C994 C 0.66282 0.01867 0.60064 0.0
C995 C 0.61506 0.026 0.61162 0.0
C996 C 0.59034 0.03052 0.57878 0.0
C997 C 0.63821 0.0244 0.56941 0.0
C998 C 0.58934 0.03425 0.50377 0.0
C999 C 0.61215 0.03318 0.46207 0.0
H1000 H 0.55867 0.65941 0.37232 0.0
H1001 H 0.51083 0.70403 0.51864 0.0
H1002 H 0.50299 0.66406 0.59066 0.0
H1003 H 0.50989 0.6161 0.61262 0.0
H1004 H 0.55877 0.57246 0.46592 0.0
H1005 H 0.56622 0.61218 0.39507 0.0
C1006 C 0.54657 0.66046 0.42015 0.0
C1007 C 0.53528 0.68483 0.43958 0.0
C1008 C 0.54256 0.6375 0.46216 0.0
C1009 C 0.51994 0.68572 0.50241 0.0
C1010 C 0.51545 0.66281 0.54373 0.0
C1011 C 0.52231 0.61527 0.56549 0.0
C1012 C 0.53395 0.59101 0.54582 0.0
C1013 C 0.52669 0.63852 0.52431 0.0
C1014 C 0.54981 0.59061 0.48379 0.0
C1015 C 0.55402 0.61344 0.44263 0.0
H1016 H 0.86172 0.57827 0.49671 0.0
H1017 H 0.8493 0.49445 0.46545 0.0
H1018 H 0.88993 0.48539 0.53095 0.0
H1019 H 0.93041 0.50115 0.59305 0.0
H1020 H 0.94053 0.58458 0.63303 0.0
H1021 H 0.89926 0.59361 0.57015 0.0
C1022 C 0.86736 0.55791 0.50519 0.0
C1023 C 0.85213 0.5372 0.47433 0.0
C1024 C 0.89064 0.55266 0.5447 0.0
C1025 C 0.8606 0.51105 0.48607 0.0
C1026 C 0.88388 0.50574 0.52437 0.0
C1027 C 0.92348 0.5213 0.58872 0.0
C1028 C 0.93916 0.54222 0.61615 0.0
C1029 C 0.89931 0.52639 0.55311 0.0
C1030 C 0.92944 0.56811 0.61081 0.0
C1031 C 0.90567 0.57331 0.57499 0.0
loop_
_geom_bond_atom_site_label_1
_geom_bond_atom_site_label_2
_geom_bond_distance
_geom_bond_site_symmetry_2
_ccdc_geom_bond_type
C0 C1 1.386 . S
C0 C2 1.397 . S
C0 H24 0.931 . S
C1 C0 1.386 . S
C1 C5 1.397 . S
C2 C0 1.397 . S
C2 C3 1.384 . S
C2 H25 0.930 . S
C3 C2 1.384 . S
C3 C4 1.377 . S
C3 C6 1.481 . S
C4 C3 1.377 . S
C4 C5 1.389 . S
C4 H26 0.929 . S
C5 C1 1.397 . S
C5 C4 1.389 . S
C5 H27 0.931 . S
C6 C3 1.481 . S
C6 C7 1.387 . S
C6 C11 1.390 . S
C7 C6 1.387 . S
C7 C8 1.401 . S
C7 H28 0.930 . S
C8 C7 1.401 . S
C8 C9 1.376 . S
C8 C17 1.511 . S
C9 C8 1.376 . S
C9 C10 1.392 . S
C9 H30 0.931 . S
C10 C9 1.392 . S
C10 C11 1.361 . S
C10 C12 1.500 . S
C11 C6 1.390 . S
C11 C10 1.361 . S
C11 H29 0.931 . S
C12 C10 1.500 . S
C12 C13 1.371 . S
C12 C14 1.365 . S
C13 C12 1.371 . S
C13 C23 1.386 . S
C13 H31 0.931 . S
C14 C12 1.365 . S
C14 C15 1.409 . S
C14 H32 0.929 . S
C15 C14 1.409 . S
C15 C16 1.380 . S
C15 H33 0.930 . S
C16 C15 1.380 . S
C16 C23 1.357 . S
C17 C8 1.511 . S
C17 C18 1.341 . S
C17 C19 1.371 . S
C18 C17 1.341 . S
C18 C22 1.394 . S
C18 H34 0.930 . S
C19 C17 1.371 . S
C19 C20 1.392 . S
C19 H35 0.931 . S
C20 C19 1.392 . S
C20 C21 1.331 . S
C20 H38 0.932 . S
C21 C20 1.331 . S
C21 C22 1.336 . S
C22 C18 1.394 . S
C22 C21 1.336 . S
C22 H37 0.929 . S
C23 C13 1.386 . S
C23 C16 1.357 . S
C23 H36 0.928 . S
H24 C0 0.931 . S
H25 C2 0.930 . S
H26 C4 0.929 . S
H27 C5 0.931 . S
H28 C7 0.930 . S
H29 C11 0.931 . S
H30 C9 0.931 . S
H31 C13 0.931 . S
H32 C14 0.929 . S
H33 C15 0.930 . S
H34 C18 0.930 . S
H35 C19 0.931 . S
H36 C23 0.928 . S
H37 C22 0.929 . S
H38 C20 0.932 . S
C39 C40 1.386 . S
C39 C41 1.397 . S
C39 H63 0.931 . S
C40 C39 1.386 . S
C40 C44 1.397 . S
C41 C39 1.397 . S
C41 C42 1.384 . S
C41 H64 0.930 . S
C42 C41 1.384 . S
C42 C43 1.377 . S
C42 C45 1.481 . S
C43 C42 1.377 . S
C43 C44 1.389 . S
C43 H65 0.929 . S
C44 C40 1.397 . S
C44 C43 1.389 . S
C44 H66 0.931 . S
C45 C42 1.481 . S
C45 C46 1.387 . S
C45 C50 1.390 . S
C46 C45 1.387 . S
C46 C47 1.401 . S
C46 H67 0.930 . S
C47 C46 1.401 . S
C47 C48 1.376 . S
C47 C56 1.511 . S
C48 C47 1.376 . S
C48 C49 1.392 . S
C48 H69 0.931 . S
C49 C48 1.392 . S
C49 C50 1.361 . S
C49 C51 1.500 . S
C50 C45 1.390 . S
C50 C49 1.361 . S
C50 H68 0.931 . S
C51 C49 1.500 . S
C51 C52 1.371 . S
C51 C53 1.365 . S
C52 C51 1.371 . S
C52 C62 1.386 . S
C52 H70 0.931 . S
C53 C51 1.365 . S
C53 C54 1.409 . S
C53 H71 0.929 . S
C54 C53 1.409 . S
C54 C55 1.380 . S
C54 H72 0.930 . S
C55 C54 1.380 . S
C55 C62 1.357 . S
C56 C47 1.511 . S
C56 C57 1.341 . S
C56 C58 1.371 . S
C57 C56 1.341 . S
C57 C61 1.394 . S
C57 H73 0.930 . S
C58 C56 1.371 . S
C58 C59 1.392 . S
C58 H74 0.931 . S
C59 C58 1.392 . S
C59 C60 1.331 . S
C59 H77 0.932 . S
C60 C59 1.331 . S
C60 C61 1.336 . S
C61 C57 1.394 . S
C61 C60 1.336 . S
C61 H76 0.929 . S
C62 C52 1.386 . S
C62 C55 1.357 . S
C62 H75 0.928 . S
H63 C39 0.931 . S
H64 C41 0.930 . S
H65 C43 0.929 . S
H66 C44 0.931 . S
H67 C46 0.930 . S
H68 C50 0.931 . S
H69 C48 0.931 . S
H70 C52 0.931 . S
H71 C53 0.929 . S
H72 C54 0.930 . S
H73 C57 0.930 . S
H74 C58 0.931 . S
H75 C62 0.928 . S
H76 C61 0.929 . S
H77 C59 0.932 . S
C78 C79 1.386 . S
C78 C80 1.397 . S
C78 H102 0.931 . S
C79 C78 1.386 . S
C79 C83 1.397 . S
C80 C78 1.397 . S
C80 C81 1.384 . S
C80 H103 0.930 . S
C81 C80 1.384 . S
C81 C82 1.377 . S
C81 C84 1.481 . S
C82 C81 1.377 . S
C82 C83 1.389 . S
C82 H104 0.929 . S
C83 C79 1.397 . S
C83 C82 1.389 . S
C83 H105 0.931 . S
C84 C81 1.481 . S
C84 C85 1.387 . S
C84 C89 1.390 . S
C85 C84 1.387 . S
C85 C86 1.401 . S
C85 H106 0.930 . S
C86 C85 1.401 . S
C86 C87 1.376 . S
C86 C95 1.511 . S
C87 C86 1.376 . S
C87 C88 1.392 . S
C87 H108 0.931 . S
C88 C87 1.392 . S
C88 C89 1.361 . S
C88 C90 1.500 . S
C89 C84 1.390 . S
C89 C88 1.361 . S
C89 H107 0.931 . S
C90 C88 1.500 . S
C90 C91 1.371 . S
C90 C92 1.365 . S
C91 C90 1.371 . S
C91 C101 1.386 . S
C91 H109 0.931 . S
C92 C90 1.365 . S
C92 C93 1.409 . S
C92 H110 0.929 . S
C93 C92 1.409 . S
C93 C94 1.380 . S
C93 H111 0.930 . S
C94 C93 1.380 . S
C94 C101 1.357 . S
C95 C86 1.511 . S
C95 C96 1.341 . S
C95 C97 1.371 . S
C96 C95 1.341 . S
C96 C100 1.394 . S
C96 H112 0.930 . S
C97 C95 1.371 . S
C97 C98 1.392 . S
C97 H113 0.931 . S
C98 C97 1.392 . S
C98 C99 1.331 . S
C98 H116 0.932 . S
C99 C98 1.331 . S
C99 C100 1.336 . S
C100 C96 1.394 . S
C100 C99 1.336 . S
C100 H115 0.929 . S
C101 C91 1.386 . S
C101 C94 1.357 . S
C101 H114 0.928 . S
H102 C78 0.931 . S
H103 C80 0.930 . S
H104 C82 0.929 . S
H105 C83 0.931 . S
H106 C85 0.930 . S
H107 C89 0.931 . S
H108 C87 0.931 . S
H109 C91 0.931 . S
H110 C92 0.929 . S
H111 C93 0.930 . S
H112 C96 0.930 . S
H113 C97 0.931 . S
H114 C101 0.928 . S
H115 C100 0.929 . S
H116 C98 0.932 . S
C117 C118 1.386 . S
C117 C119 1.397 . S
C117 H141 0.931 . S
C118 C117 1.386 . S
C118 C122 1.397 . S
C119 C117 1.397 . S
C119 C120 1.384 . S
C119 H142 0.930 . S
C120 C119 1.384 . S
C120 C121 1.377 . S
C120 C123 1.481 . S
C121 C120 1.377 . S
C121 C122 1.389 . S
C121 H143 0.929 . S
C122 C118 1.397 . S
C122 C121 1.389 . S
C122 H144 0.931 . S
C123 C120 1.481 . S
C123 C124 1.387 . S
C123 C128 1.390 . S
C124 C123 1.387 . S
C124 C125 1.401 . S
C124 H145 0.930 . S
C125 C124 1.401 . S
C125 C126 1.376 . S
C125 C134 1.511 . S
C126 C125 1.376 . S
C126 C127 1.392 . S
C126 H147 0.931 . S
C127 C126 1.392 . S
C127 C128 1.361 . S
C127 C129 1.500 . S
C128 C123 1.390 . S
C128 C127 1.361 . S
C128 H146 0.931 . S
C129 C127 1.500 . S
C129 C130 1.371 . S
C129 C131 1.365 . S
C130 C129 1.371 . S
C130 C140 1.386 . S
C130 H148 0.931 . S
C131 C129 1.365 . S
C131 C132 1.409 . S
C131 H149 0.929 . S
C132 C131 1.409 . S
C132 C133 1.380 . S
C132 H150 0.930 . S
C133 C132 1.380 . S
C133 C140 1.357 . S
C134 C125 1.511 . S
C134 C135 1.341 . S
C134 C136 1.371 . S
C135 C134 1.341 . S
C135 C139 1.394 . S
C135 H151 0.930 . S
C136 C134 1.371 . S
C136 C137 1.392 . S
C136 H152 0.931 . S
C137 C136 1.392 . S
C137 C138 1.331 . S
C137 H155 0.932 . S
C138 C137 1.331 . S
C138 C139 1.336 . S
C139 C135 1.394 . S
C139 C138 1.336 . S
C139 H154 0.929 . S
C140 C130 1.386 . S
C140 C133 1.357 . S
C140 H153 0.928 . S
H141 C117 0.931 . S
H142 C119 0.930 . S
H143 C121 0.929 . S
H144 C122 0.931 . S
H145 C124 0.930 . S
H146 C128 0.931 . S
H147 C126 0.931 . S
H148 C130 0.931 . S
H149 C131 0.929 . S
H150 C132 0.930 . S
H151 C135 0.930 . S
H152 C136 0.931 . S
H153 C140 0.928 . S
H154 C139 0.929 . S
H155 C137 0.932 . S
C156 C157 1.386 . S
C156 C158 1.397 . S
C156 H180 0.931 . S
C157 C156 1.386 . S
C157 C161 1.397 . S
C158 C156 1.397 . S
C158 C159 1.384 . S
C158 H181 0.930 . S
C159 C158 1.384 . S
C159 C160 1.377 . S
C159 C162 1.481 . S
C160 C159 1.377 . S
C160 C161 1.389 . S
C160 H182 0.929 . S
C161 C157 1.397 . S
C161 C160 1.389 . S
C161 H183 0.931 . S
C162 C159 1.481 . S
C162 C163 1.387 . S
C162 C167 1.390 . S
C163 C162 1.387 . S
C163 C164 1.401 . S
C163 H184 0.930 . S
C164 C163 1.401 . S
C164 C165 1.376 1_554 S
C164 C173 1.511 . S
C165 C164 1.376 1_556 S
C165 C166 1.392 . S
C165 H186 0.931 . S
C166 C165 1.392 . S
C166 C167 1.361 1_556 S
C166 C168 1.500 . S
C167 C162 1.390 . S
C167 C166 1.361 1_554 S
C167 H185 0.931 . S
C168 C166 1.500 . S
C168 C169 1.371 . S
C168 C170 1.365 . S
C169 C168 1.371 . S
C169 C179 1.386 . S
C169 H187 0.931 . S
C170 C168 1.365 . S
C170 C171 1.409 . S
C170 H188 0.929 . S
C171 C170 1.409 . S
C171 C172 1.380 . S
C171 H189 0.930 . S
C172 C171 1.380 . S
C172 C179 1.357 . S
C173 C164 1.511 . S
C173 C174 1.341 . S
C173 C175 1.371 . S
C174 C173 1.341 . S
C174 C178 1.394 . S
C174 H190 0.930 . S
C175 C173 1.371 . S
C175 C176 1.392 . S
C175 H191 0.931 1_554 S
C176 C175 1.392 . S
C176 C177 1.331 . S
C176 H194 0.932 . S
C177 C176 1.331 . S
C177 C178 1.336 . S
C178 C174 1.394 . S
C178 C177 1.336 . S
C178 H193 0.929 . S
C179 C169 1.386 . S
C179 C172 1.357 . S
C179 H192 0.928 . S
H180 C156 0.931 . S
H181 C158 0.930 . S
H182 C160 0.929 . S
H183 C161 0.931 . S
H184 C163 0.930 . S
H185 C167 0.931 . S
H186 C165 0.931 . S
H187 C169 0.931 . S
H188 C170 0.929 . S
H189 C171 0.930 . S
H190 C174 0.930 . S
H191 C175 0.931 1_556 S
H192 C179 0.928 . S
H193 C178 0.929 . S
H194 C176 0.932 . S
C195 C196 1.386 . S
C195 C197 1.397 . S
C195 H219 0.931 . S
C196 C195 1.386 . S
C196 C200 1.397 . S
C197 C195 1.397 . S
C197 C198 1.384 . S
C197 H220 0.930 . S
C198 C197 1.384 . S
C198 C199 1.377 . S
C198 C201 1.481 . S
C199 C198 1.377 . S
C199 C200 1.389 . S
C199 H221 0.929 . S
C200 C196 1.397 . S
C200 C199 1.389 . S
C200 H222 0.931 . S
C201 C198 1.481 . S
C201 C202 1.387 . S
C201 C206 1.390 . S
C202 C201 1.387 . S
C202 C203 1.401 . S
C202 H223 0.930 . S
C203 C202 1.401 . S
C203 C204 1.376 1_554 S
C203 C212 1.511 . S
C204 C203 1.376 1_556 S
C204 C205 1.392 . S
C204 H225 0.931 . S
C205 C204 1.392 . S
C205 C206 1.361 1_556 S
C205 C207 1.500 . S
C206 C201 1.390 . S
C206 C205 1.361 1_554 S
C206 H224 0.931 . S
C207 C205 1.500 . S
C207 C208 1.371 . S
C207 C209 1.365 . S
C208 C207 1.371 . S
C208 C218 1.386 . S
C208 H226 0.931 . S
C209 C207 1.365 . S
C209 C210 1.409 . S
C209 H227 0.929 . S
C210 C209 1.409 . S
C210 C211 1.380 . S
C210 H228 0.930 . S
C211 C210 1.380 . S
C211 C218 1.357 . S
C212 C203 1.511 . S
C212 C213 1.341 . S
C212 C214 1.371 . S
C213 C212 1.341 . S
C213 C217 1.394 . S
C213 H229 0.930 . S
C214 C212 1.371 . S
C214 C215 1.392 . S
C214 H230 0.931 1_554 S
C215 C214 1.392 . S
C215 C216 1.331 . S
C215 H233 0.932 . S
C216 C215 1.331 . S
C216 C217 1.336 . S
C217 C213 1.394 . S
C217 C216 1.336 . S
C217 H232 0.929 . S
C218 C208 1.386 . S
C218 C211 1.357 . S
C218 H231 0.928 . S
H219 C195 0.931 . S
H220 C197 0.930 . S
H221 C199 0.929 . S
H222 C200 0.931 . S
H223 C202 0.930 . S
H224 C206 0.931 . S
H225 C204 0.931 . S
H226 C208 0.931 . S
H227 C209 0.929 . S
H228 C210 0.930 . S
H229 C213 0.930 . S
H230 C214 0.931 1_556 S
H231 C218 0.928 . S
H232 C217 0.929 . S
H233 C215 0.932 . S
C234 C235 1.386 . S
C234 C236 1.397 . S
C234 H258 0.931 . S
C235 C234 1.386 . S
C235 C239 1.397 . S
C236 C234 1.397 . S
C236 C237 1.384 . S
C236 H259 0.930 . S
C237 C236 1.384 . S
C237 C238 1.377 . S
C237 C240 1.481 . S
C238 C237 1.377 . S
C238 C239 1.389 . S
C238 H260 0.929 . S
C239 C235 1.397 . S
C239 C238 1.389 . S
C239 H261 0.931 . S
C240 C237 1.481 . S
C240 C241 1.387 . S
C240 C245 1.390 . S
C241 C240 1.387 . S
C241 C242 1.401 . S
C241 H262 0.930 . S
C242 C241 1.401 . S
C242 C243 1.376 1_554 S
C242 C251 1.511 . S
C243 C242 1.376 1_556 S
C243 C244 1.392 . S
C243 H264 0.931 . S
C244 C243 1.392 . S
C244 C245 1.361 1_556 S
C244 C246 1.500 . S
C245 C240 1.390 . S
C245 C244 1.361 1_554 S
C245 H263 0.931 . S
C246 C244 1.500 . S
C246 C247 1.371 . S
C246 C248 1.365 . S
C247 C246 1.371 . S
C247 C257 1.386 . S
C247 H265 0.931 . S
C248 C246 1.365 . S
C248 C249 1.409 . S
C248 H266 0.929 . S
C249 C248 1.409 . S
C249 C250 1.380 . S
C249 H267 0.930 . S
C250 C249 1.380 . S
C250 C257 1.357 . S
C251 C242 1.511 . S
C251 C252 1.341 . S
C251 C253 1.371 . S
C252 C251 1.341 . S
C252 C256 1.394 . S
C252 H268 0.930 . S
C253 C251 1.371 . S
C253 C254 1.392 . S
C253 H269 0.931 1_554 S
C254 C253 1.392 . S
C254 C255 1.331 . S
C254 H272 0.932 . S
C255 C254 1.331 . S
C255 C256 1.336 . S
C256 C252 1.394 . S
C256 C255 1.336 . S
C256 H271 0.929 . S
C257 C247 1.386 . S
C257 C250 1.357 . S
C257 H270 0.928 . S
H258 C234 0.931 . S
H259 C236 0.930 . S
H260 C238 0.929 . S
H261 C239 0.931 . S
H262 C241 0.930 . S
H263 C245 0.931 . S
H264 C243 0.931 . S
H265 C247 0.931 . S
H266 C248 0.929 . S
H267 C249 0.930 . S
H268 C252 0.930 . S
H269 C253 0.931 1_556 S
H270 C257 0.928 . S
H271 C256 0.929 . S
H272 C254 0.932 . S
C273 C274 1.386 . S
C273 C275 1.397 . S
C273 H297 0.931 . S
C274 C273 1.386 . S
C274 C278 1.397 . S
C275 C273 1.397 . S
C275 C276 1.384 . S
C275 H298 0.930 . S
C276 C275 1.384 . S
C276 C277 1.377 . S
C276 C279 1.481 . S
C277 C276 1.377 . S
C277 C278 1.389 . S
C277 H299 0.929 . S
C278 C274 1.397 . S
C278 C277 1.389 . S
C278 H300 0.931 . S
C279 C276 1.481 . S
C279 C280 1.387 . S
C279 C284 1.390 1_556 S
C280 C279 1.387 . S
C280 C281 1.401 1_556 S
C280 H301 0.930 . S
C281 C280 1.401 1_554 S
C281 C282 1.376 . S
C281 C290 1.511 . S
C282 C281 1.376 . S
C282 C283 1.392 . S
C282 H303 0.931 . S
C283 C282 1.392 . S
C283 C284 1.361 . S
C283 C285 1.500 . S
C284 C279 1.390 1_554 S
C284 C283 1.361 . S
C284 H302 0.931 . S
C285 C283 1.500 . S
C285 C286 1.371 . S
C285 C287 1.365 . S
C286 C285 1.371 . S
C286 C296 1.386 . S
C286 H304 0.931 . S
C287 C285 1.365 . S
C287 C288 1.409 . S
C287 H305 0.929 . S
C288 C287 1.409 . S
C288 C289 1.380 . S
C288 H306 0.930 . S
C289 C288 1.380 . S
C289 C296 1.357 . S
C290 C281 1.511 . S
C290 C291 1.341 . S
C290 C292 1.371 . S
C291 C290 1.341 . S
C291 C295 1.394 . S
C291 H307 0.930 1_554 S
C292 C290 1.371 . S
C292 C293 1.392 . S
C292 H308 0.931 . S
C293 C292 1.392 . S
C293 C294 1.331 . S
C293 H311 0.932 . S
C294 C293 1.331 . S
C294 C295 1.336 . S
C295 C291 1.394 . S
C295 C294 1.336 . S
C295 H310 0.929 . S
C296 C286 1.386 . S
C296 C289 1.357 . S
C296 H309 0.928 . S
H297 C273 0.931 . S
H298 C275 0.930 . S
H299 C277 0.929 . S
H300 C278 0.931 . S
H301 C280 0.930 . S
H302 C284 0.931 . S
H303 C282 0.931 . S
H304 C286 0.931 . S
H305 C287 0.929 . S
H306 C288 0.930 . S
H307 C291 0.930 1_556 S
H308 C292 0.931 . S
H309 C296 0.928 . S
H310 C295 0.929 . S
H311 C293 0.932 . S
C312 C314 1.422 . S
C312 C316 1.415 . S
C312 N318 1.369 . S
C313 C314 1.421 . S
C313 C315 1.417 . S
C313 C325 1.422 . S
C314 C312 1.422 . S
C314 C313 1.421 . S
C314 N324 1.359 . S
C315 C313 1.417 . S
C315 C317 1.329 . S
C315 H334 0.930 . S
C316 C312 1.415 . S
C316 C317 1.437 . S
C316 C320 1.413 . S
C317 C315 1.329 . S
C317 C316 1.437 . S
C317 H339 0.929 . S
N318 C312 1.369 . S
N318 C319 1.337 1_545 S
N318 Gd323 2.622 1_545 S
C319 N318 1.337 1_565 S
C319 C321 1.377 1_565 S
C319 H331 0.931 . S
C320 C316 1.413 . S
C320 C321 1.348 . S
C320 H336 0.931 . S
C321 C319 1.377 1_545 S
C321 C320 1.348 . S
C321 H337 0.930 . S
Gd322 N342 2.622 . S
Gd322 N349 2.570 . S
Gd322 O356 2.353 1_655 S
Gd322 O357 2.468 . S
Gd322 O358 2.427 . S
Gd322 O360 2.388 . S
Gd322 O361 2.386 1_545 S
Gd322 O365 2.307 1_655 S
Gd322 C375 2.805 . S
Gd323 N318 2.622 1_565 S
Gd323 N324 2.570 1_565 S
Gd323 O355 2.386 1_565 S
Gd323 O359 2.307 1_465 S
Gd323 O362 2.353 . S
Gd323 O363 2.468 . S
Gd323 O364 2.427 . S
Gd323 O366 2.388 . S
Gd323 C387 2.805 . S
N324 C314 1.359 . S
N324 Gd323 2.570 1_545 S
N324 C326 1.343 . S
C325 C313 1.422 . S
C325 C327 1.321 . S
C325 H333 0.931 1_556 S
C326 N324 1.343 . S
C326 C327 1.390 . S
C326 H328 0.935 1_455 S
C327 C325 1.321 . S
C327 C326 1.390 . S
C327 H329 0.930 . S
H328 C326 0.935 1_655 S
H329 C327 0.930 . S
H330 C353 0.931 1_455 S
H331 C319 0.931 . S
H332 C354 0.930 1_455 S
H333 C325 0.931 1_554 S
H334 C315 0.930 . S
H335 C344 0.929 . S
H336 C320 0.931 . S
H337 C321 0.930 . S
H338 C376 0.930 . S
H339 C317 0.929 . S
H340 C345 0.931 . S
H341 C346 0.930 . S
N342 Gd322 2.622 . S
N342 C343 1.369 . S
N342 C344 1.338 . S
C343 N342 1.369 . S
C343 C347 1.415 1_545 S
C343 C350 1.422 . S
C344 H335 0.929 . S
C344 N342 1.338 . S
C344 C346 1.378 . S
C345 H340 0.931 . S
C345 C346 1.348 1_565 S
C345 C347 1.413 . S
C346 H341 0.930 . S
C346 C344 1.378 . S
C346 C345 1.348 1_545 S
C347 C343 1.415 1_565 S
C347 C345 1.413 . S
C347 C377 1.437 . S
H348 C377 0.929 . S
N349 Gd322 2.570 . S
N349 C350 1.359 . S
N349 C353 1.343 . S
C350 C343 1.422 . S
C350 N349 1.359 . S
C350 C352 1.421 1_545 S
C351 C352 1.422 . S
C351 C354 1.321 . S
C351 H378 0.931 . S
C352 C350 1.421 1_565 S
C352 C351 1.422 . S
C352 C376 1.417 . S
C353 H330 0.931 1_655 S
C353 N349 1.343 . S
C353 C354 1.390 1_545 S
C354 H332 0.930 1_655 S
C354 C351 1.321 . S
C354 C353 1.390 1_565 S
O355 Gd323 2.386 1_545 S
O355 C367 1.265 . S
O356 Gd322 2.353 1_455 S
O356 C367 1.242 . S
O357 Gd322 2.468 . S
O357 C375 1.263 . S
O358 Gd322 2.427 . S
O358 C375 1.252 . S
O359 Gd323 2.307 1_645 S
O359 C368 1.261 . S
O360 Gd322 2.388 . S
O360 C368 1.252 . S
O361 Gd322 2.386 1_565 S
O361 C379 1.265 . S
O362 Gd323 2.353 . S
O362 C379 1.242 1_455 S
O363 Gd323 2.468 . S
O363 C387 1.263 . S
O364 Gd323 2.427 . S
O364 C387 1.252 . S
O365 Gd322 2.307 1_455 S
O365 C380 1.261 . S
O366 Gd323 2.388 . S
O366 C380 1.252 1_565 S
C367 O355 1.265 . S
C367 O356 1.242 . S
C368 O359 1.261 . S
C368 O360 1.252 . S
C369 C372 1.394 . S
C369 C374 1.370 . S
C369 C375 1.500 . S
C370 C373 1.383 . S
C370 C374 1.395 . S
C371 C372 1.396 . S
C371 C373 1.365 . S
C371 H388 0.929 . S
C372 C369 1.394 . S
C372 C371 1.396 . S
C372 H389 0.930 . S
C373 C370 1.383 . S
C373 C371 1.365 . S
C373 H390 0.931 . S
C374 C369 1.370 . S
C374 C370 1.395 . S
C374 H391 0.930 1_655 S
C375 Gd322 2.805 . S
C375 O357 1.263 . S
C375 O358 1.252 . S
C375 C369 1.500 . S
C376 H338 0.930 . S
C376 C352 1.417 . S
C376 C377 1.329 . S
C377 C347 1.437 . S
C377 H348 0.929 . S
C377 C376 1.329 . S
H378 C351 0.931 . S
C379 O361 1.265 . S
C379 O362 1.242 1_655 S
C380 O365 1.261 . S
C380 O366 1.252 1_545 S
C381 C384 1.394 . S
C381 C386 1.370 . S
C381 C387 1.500 . S
C382 C385 1.383 . S
C382 C386 1.395 . S
C383 C384 1.396 . S
C383 C385 1.365 . S
C383 H392 0.929 . S
C384 C381 1.394 . S
C384 C383 1.396 . S
C384 H393 0.930 . S
C385 C382 1.383 . S
C385 C383 1.365 . S
C385 H394 0.931 . S
C386 C381 1.370 . S
C386 C382 1.395 . S
C386 H395 0.930 . S
C387 Gd323 2.805 . S
C387 O363 1.263 . S
C387 O364 1.252 . S
C387 C381 1.500 . S
H388 C371 0.929 . S
H389 C372 0.930 . S
H390 C373 0.931 . S
H391 C374 0.930 1_455 S
H392 C383 0.929 . S
H393 C384 0.930 . S
H394 C385 0.931 . S
H395 C386 0.930 . S
C396 C398 1.422 . S
C396 C400 1.415 . S
C396 N402 1.369 . S
C397 C398 1.421 . S
C397 C399 1.417 . S
C397 C409 1.422 . S
C398 C396 1.422 . S
C398 C397 1.421 . S
C398 N408 1.359 . S
C399 C397 1.417 . S
C399 C401 1.329 . S
C399 H418 0.930 . S
C400 C396 1.415 . S
C400 C401 1.437 . S
C400 C404 1.413 . S
C401 C399 1.329 . S
C401 C400 1.437 . S
C401 H423 0.929 . S
N402 C396 1.369 . S
N402 C403 1.338 . S
N402 Gd407 2.622 . S
C403 N402 1.338 . S
C403 C405 1.378 . S
C403 H415 0.929 . S
C404 C400 1.413 . S
C404 C405 1.348 . S
C404 H420 0.931 . S
C405 C403 1.378 . S
C405 C404 1.348 . S
C405 H421 0.930 . S
Gd406 N426 2.622 . S
Gd406 N433 2.570 . S
Gd406 O440 2.353 1_545 S
Gd406 O441 2.468 . S
Gd406 O442 2.427 . S
Gd406 O444 2.388 . S
Gd406 O445 2.386 . S
Gd406 O449 2.307 . S
Gd406 C459 2.805 . S
Gd407 N402 2.622 . S
Gd407 N408 2.570 . S
Gd407 O439 2.386 . S
Gd407 O443 2.307 1_565 S
Gd407 O446 2.353 1_565 S
Gd407 O447 2.468 . S
Gd407 O448 2.427 . S
Gd407 O450 2.388 . S
Gd407 C471 2.805 . S
N408 C398 1.359 . S
N408 Gd407 2.570 . S
N408 C410 1.343 . S
C409 C397 1.422 . S
C409 C411 1.321 . S
C409 H417 0.931 . S
C410 N408 1.343 . S
C410 C411 1.390 . S
C410 H412 0.931 . S
C411 C409 1.321 . S
C411 C410 1.390 . S
C411 H413 0.930 . S
H412 C410 0.931 . S
H413 C411 0.930 . S
H414 C437 0.931 . S
H415 C403 0.929 . S
H416 C438 0.930 . S
H417 C409 0.931 . S
H418 C399 0.930 . S
H419 C428 0.929 . S
H420 C404 0.931 . S
H421 C405 0.930 . S
H422 C460 0.930 . S
H423 C401 0.929 . S
H424 C429 0.931 . S
H425 C430 0.930 . S
N426 Gd406 2.622 . S
N426 C427 1.369 . S
N426 C428 1.338 . S
C427 N426 1.369 . S
C427 C431 1.415 . S
C427 C434 1.422 . S
C428 H419 0.929 . S
C428 N426 1.338 . S
C428 C430 1.378 . S
C429 H424 0.931 . S
C429 C430 1.348 . S
C429 C431 1.413 . S
C430 H425 0.930 . S
C430 C428 1.378 . S
C430 C429 1.348 . S
C431 C427 1.415 . S
C431 C429 1.413 . S
C431 C461 1.437 . S
H432 C461 0.929 . S
N433 Gd406 2.570 . S
N433 C434 1.359 . S
N433 C437 1.343 . S
C434 C427 1.422 . S
C434 N433 1.359 . S
C434 C436 1.421 . S
C435 C436 1.422 . S
C435 C438 1.321 . S
C435 H462 0.931 . S
C436 C434 1.421 . S
C436 C435 1.422 . S
C436 C460 1.417 . S
C437 H414 0.931 . S
C437 N433 1.343 . S
C437 C438 1.390 . S
C438 H416 0.930 . S
C438 C435 1.321 . S
C438 C437 1.390 . S
O439 Gd407 2.386 . S
O439 C451 1.265 . S
O440 Gd406 2.353 1_565 S
O440 C451 1.242 . S
O441 Gd406 2.468 . S
O441 C459 1.263 . S
O442 Gd406 2.427 . S
O442 C459 1.252 . S
O443 Gd407 2.307 1_545 S
O443 C452 1.261 . S
O444 Gd406 2.388 . S
O444 C452 1.252 . S
O445 Gd406 2.386 . S
O445 C463 1.265 . S
O446 Gd407 2.353 1_545 S
O446 C463 1.242 . S
O447 Gd407 2.468 . S
O447 C471 1.263 . S
O448 Gd407 2.427 . S
O448 C471 1.252 . S
O449 Gd406 2.307 . S
O449 C464 1.261 1_545 S
O450 Gd407 2.388 . S
O450 C464 1.252 . S
C451 O439 1.265 . S
C451 O440 1.242 . S
C452 O443 1.261 . S
C452 O444 1.252 . S
C453 C456 1.394 . S
C453 C458 1.370 . S
C453 C459 1.500 . S
C454 C457 1.383 . S
C454 C458 1.395 . S
C455 C456 1.396 1_554 S
C455 C457 1.365 1_554 S
C455 H472 0.929 . S
C456 C453 1.394 . S
C456 C455 1.396 1_556 S
C456 H473 0.930 . S
C457 C454 1.383 . S
C457 C455 1.365 1_556 S
C457 H474 0.931 1_556 S
C458 C453 1.370 . S
C458 C454 1.395 . S
C458 H475 0.930 . S
C459 Gd406 2.805 . S
C459 O441 1.263 . S
C459 O442 1.252 . S
C459 C453 1.500 . S
C460 H422 0.930 . S
C460 C436 1.417 . S
C460 C461 1.329 . S
C461 C431 1.437 . S
C461 H432 0.929 . S
C461 C460 1.329 . S
H462 C435 0.931 . S
C463 O445 1.265 . S
C463 O446 1.242 . S
C464 O449 1.261 1_565 S
C464 O450 1.252 . S
C465 C468 1.394 . S
C465 C470 1.370 . S
C465 C471 1.500 . S
C466 C469 1.383 . S
C466 C470 1.395 . S
C467 C468 1.396 . S
C467 C469 1.365 . S
C467 H476 0.929 . S
C468 C465 1.394 . S
C468 C467 1.396 . S
C468 H477 0.930 . S
C469 C466 1.383 . S
C469 C467 1.365 . S
C469 H478 0.931 . S
C470 C465 1.370 . S
C470 C466 1.395 . S
C470 H479 0.930 1_565 S
C471 Gd407 2.805 . S
C471 O447 1.263 . S
C471 O448 1.252 . S
C471 C465 1.500 . S
H472 C455 0.929 . S
H473 C456 0.930 . S
H474 C457 0.931 1_554 S
H475 C458 0.930 . S
H476 C467 0.929 . S
H477 C468 0.930 . S
H478 C469 0.931 . S
H479 C470 0.930 1_545 S
C480 C482 1.422 . S
C480 C484 1.415 . S
C480 N486 1.369 . S
C481 C482 1.421 . S
C481 C483 1.417 . S
C481 C493 1.422 . S
C482 C480 1.422 . S
C482 C481 1.421 . S
C482 N492 1.359 . S
C483 C481 1.417 . S
C483 C485 1.329 . S
C483 H502 0.930 . S
C484 C480 1.415 . S
C484 C485 1.437 . S
C484 C488 1.413 . S
C485 C483 1.329 . S
C485 C484 1.437 . S
C485 H507 0.929 . S
N486 C480 1.369 . S
N486 C487 1.338 . S
N486 Gd491 2.622 . S
C487 N486 1.338 . S
C487 C489 1.378 . S
C487 H499 0.929 . S
C488 C484 1.413 . S
C488 C489 1.348 . S
C488 H504 0.931 . S
C489 C487 1.378 . S
C489 C488 1.348 . S
C489 H505 0.930 . S
Gd490 N510 2.622 . S
Gd490 N517 2.570 . S
Gd490 O524 2.353 . S
Gd490 O525 2.468 . S
Gd490 O526 2.427 . S
Gd490 O528 2.388 . S
Gd490 O529 2.386 . S
Gd490 O533 2.307 . S
Gd490 C543 2.805 . S
Gd491 N486 2.622 . S
Gd491 N492 2.570 . S
Gd491 O523 2.386 . S
Gd491 O527 2.307 . S
Gd491 O530 2.353 . S
Gd491 O531 2.468 . S
Gd491 O532 2.427 . S
Gd491 O534 2.388 . S
Gd491 C555 2.805 . S
N492 C482 1.359 . S
N492 Gd491 2.570 . S
N492 C494 1.343 . S
C493 C481 1.422 . S
C493 C495 1.321 . S
C493 H501 0.931 1_556 S
C494 N492 1.343 . S
C494 C495 1.390 . S
C494 H496 0.931 . S
C495 C493 1.321 . S
C495 C494 1.390 . S
C495 H497 0.930 . S
H496 C494 0.931 . S
H497 C495 0.930 . S
H498 C521 0.931 . S
H499 C487 0.929 . S
H500 C522 0.930 . S
H501 C493 0.931 1_554 S
H502 C483 0.930 . S
H503 C512 0.929 . S
H504 C488 0.931 . S
H505 C489 0.930 . S
H506 C544 0.930 . S
H507 C485 0.929 . S
H508 C513 0.931 . S
H509 C514 0.930 . S
N510 Gd490 2.622 . S
N510 C511 1.369 . S
N510 C512 1.338 . S
C511 N510 1.369 . S
C511 C515 1.415 . S
C511 C518 1.422 . S
C512 H503 0.929 . S
C512 N510 1.338 . S
C512 C514 1.378 . S
C513 H508 0.931 . S
C513 C514 1.348 . S
C513 C515 1.413 . S
C514 H509 0.930 . S
C514 C512 1.378 . S
C514 C513 1.348 . S
C515 C511 1.415 . S
C515 C513 1.413 . S
C515 C545 1.437 . S
H516 C545 0.929 . S
N517 Gd490 2.570 . S
N517 C518 1.359 . S
N517 C521 1.343 . S
C518 C511 1.422 . S
C518 N517 1.359 . S
C518 C520 1.421 . S
C519 C520 1.422 . S
C519 C522 1.321 . S
C519 H546 0.931 . S
C520 C518 1.421 . S
C520 C519 1.422 . S
C520 C544 1.417 . S
C521 H498 0.931 . S
C521 N517 1.343 . S
C521 C522 1.390 . S
C522 H500 0.930 . S
C522 C519 1.321 . S
C522 C521 1.390 . S
O523 Gd491 2.386 . S
O523 C535 1.265 . S
O524 Gd490 2.353 . S
O524 C535 1.242 . S
O525 Gd490 2.468 . S
O525 C543 1.263 . S
O526 Gd490 2.427 . S
O526 C543 1.252 . S
O527 Gd491 2.307 . S
O527 C536 1.261 . S
O528 Gd490 2.388 . S
O528 C536 1.252 . S
O529 Gd490 2.386 . S
O529 C547 1.265 . S
O530 Gd491 2.353 . S
O530 C547 1.242 . S
O531 Gd491 2.468 . S
O531 C555 1.263 . S
O532 Gd491 2.427 . S
O532 C555 1.252 . S
O533 Gd490 2.307 . S
O533 C548 1.261 . S
O534 Gd491 2.388 . S
O534 C548 1.252 . S
C535 O523 1.265 . S
C535 O524 1.242 . S
C536 O527 1.261 . S
C536 O528 1.252 . S
C537 C540 1.394 . S
C537 C542 1.370 . S
C537 C543 1.500 . S
C538 C541 1.383 . S
C538 C542 1.395 . S
C539 C540 1.396 . S
C539 C541 1.365 . S
C539 H556 0.929 . S
C540 C537 1.394 . S
C540 C539 1.396 . S
C540 H557 0.930 . S
C541 C538 1.383 . S
C541 C539 1.365 . S
C541 H558 0.931 . S
C542 C537 1.370 . S
C542 C538 1.395 . S
C542 H559 0.930 . S
C543 Gd490 2.805 . S
C543 O525 1.263 . S
C543 O526 1.252 . S
C543 C537 1.500 . S
C544 H506 0.930 . S
C544 C520 1.417 . S
C544 C545 1.329 . S
C545 C515 1.437 . S
C545 H516 0.929 . S
C545 C544 1.329 . S
H546 C519 0.931 . S
C547 O529 1.265 . S
C547 O530 1.242 . S
C548 O533 1.261 . S
C548 O534 1.252 . S
C549 C552 1.394 . S
C549 C554 1.370 . S
C549 C555 1.500 . S
C550 C553 1.383 . S
C550 C554 1.395 . S
C551 C552 1.396 . S
C551 C553 1.365 . S
C551 H560 0.929 . S
C552 C549 1.394 . S
C552 C551 1.396 . S
C552 H561 0.930 . S
C553 C550 1.383 . S
C553 C551 1.365 . S
C553 H562 0.931 . S
C554 C549 1.370 . S
C554 C550 1.395 . S
C554 H563 0.930 . S
C555 Gd491 2.805 . S
C555 O531 1.263 . S
C555 O532 1.252 . S
C555 C549 1.500 . S
H556 C539 0.929 . S
H557 C540 0.930 . S
H558 C541 0.931 . S
H559 C542 0.930 . S
H560 C551 0.929 . S
H561 C552 0.930 . S
H562 C553 0.931 . S
H563 C554 0.930 . S
C564 C566 1.422 . S
C564 C568 1.415 . S
C564 N570 1.369 1_455 S
C565 C566 1.421 . S
C565 C567 1.417 . S
C565 C577 1.422 . S
C566 C564 1.422 . S
C566 C565 1.421 . S
C566 N576 1.359 . S
C567 C565 1.417 . S
C567 C569 1.329 . S
C567 H586 0.930 . S
C568 C564 1.415 . S
C568 C569 1.437 . S
C568 C572 1.413 . S
C569 C567 1.329 . S
C569 C568 1.437 . S
C569 H591 0.929 . S
N570 C564 1.369 1_655 S
N570 C571 1.338 . S
N570 Gd575 2.622 . S
C571 N570 1.338 . S
C571 C573 1.378 1_655 S
C571 H583 0.929 . S
C572 C568 1.413 . S
C572 C573 1.348 . S
C572 H588 0.931 . S
C573 C571 1.378 1_455 S
C573 C572 1.348 . S
C573 H589 0.933 . S
Gd574 N594 2.622 . S
Gd574 N601 2.570 . S
Gd574 O608 2.353 . S
Gd574 O609 2.468 . S
Gd574 O610 2.427 . S
Gd574 O612 2.388 . S
Gd574 O613 2.386 1_455 S
Gd574 O617 2.307 . S
Gd574 C627 2.805 . S
Gd575 N570 2.622 . S
Gd575 N576 2.570 1_655 S
Gd575 O607 2.386 1_655 S
Gd575 O611 2.307 . S
Gd575 O614 2.353 . S
Gd575 O615 2.468 . S
Gd575 O616 2.427 . S
Gd575 O618 2.388 . S
Gd575 C639 2.805 . S
N576 C566 1.359 . S
N576 Gd575 2.570 1_455 S
N576 C578 1.343 . S
C577 C565 1.422 . S
C577 C579 1.321 . S
C577 H585 0.931 1_556 S
C578 N576 1.343 . S
C578 C579 1.390 . S
C578 H580 0.931 1_455 S
C579 C577 1.321 . S
C579 C578 1.390 . S
C579 H581 0.930 . S
H580 C578 0.931 1_655 S
H581 C579 0.930 . S
H582 C605 0.931 . S
H583 C571 0.929 . S
H584 C606 0.930 . S
H585 C577 0.931 1_554 S
H586 C567 0.930 . S
H587 C596 0.929 . S
H588 C572 0.931 . S
H589 C573 0.933 . S
H590 C628 0.930 . S
H591 C569 0.929 . S
H592 C597 0.931 . S
H593 C598 0.930 . S
N594 Gd574 2.622 . S
N594 C595 1.369 . S
N594 C596 1.338 . S
C595 N594 1.369 . S
C595 C599 1.415 1_455 S
C595 C602 1.422 1_455 S
C596 H587 0.929 . S
C596 N594 1.338 . S
C596 C598 1.378 . S
C597 H592 0.931 . S
C597 C598 1.348 1_655 S
C597 C599 1.413 . S
C598 H593 0.930 . S
C598 C596 1.378 . S
C598 C597 1.348 1_455 S
C599 C595 1.415 1_655 S
C599 C597 1.413 . S
C599 C629 1.437 . S
H600 C629 0.929 . S
N601 Gd574 2.570 . S
N601 C602 1.359 1_455 S
N601 C605 1.343 . S
C602 C595 1.422 1_655 S
C602 N601 1.359 1_655 S
C602 C604 1.421 . S
C603 C604 1.422 . S
C603 C606 1.321 . S
C603 H630 0.931 . S
C604 C602 1.421 . S
C604 C603 1.422 . S
C604 C628 1.417 . S
C605 H582 0.931 . S
C605 N601 1.343 . S
C605 C606 1.390 1_455 S
C606 H584 0.930 . S
C606 C603 1.321 . S
C606 C605 1.390 1_655 S
O607 Gd575 2.386 1_455 S
O607 C619 1.265 . S
O608 Gd574 2.353 . S
O608 C619 1.242 . S
O609 Gd574 2.468 . S
O609 C627 1.263 . S
O610 Gd574 2.427 . S
O610 C627 1.252 . S
O611 Gd575 2.307 . S
O611 C620 1.261 1_655 S
O612 Gd574 2.388 . S
O612 C620 1.252 . S
O613 Gd574 2.386 1_655 S
O613 C631 1.265 . S
O614 Gd575 2.353 . S
O614 C631 1.242 . S
O615 Gd575 2.468 . S
O615 C639 1.263 . S
O616 Gd575 2.427 . S
O616 C639 1.252 . S
O617 Gd574 2.307 . S
O617 C632 1.261 . S
O618 Gd575 2.388 . S
O618 C632 1.252 1_655 S
C619 O607 1.265 . S
C619 O608 1.242 . S
C620 O611 1.261 1_455 S
C620 O612 1.252 . S
C621 C624 1.394 . S
C621 C626 1.370 . S
C621 C627 1.500 . S
C622 C625 1.383 . S
C622 C626 1.395 . S
C623 C624 1.396 . S
C623 C625 1.365 . S
C623 H640 0.929 . S
C624 C621 1.394 . S
C624 C623 1.396 . S
C624 H641 0.930 . S
C625 C622 1.383 . S
C625 C623 1.365 . S
C625 H642 0.931 . S
C626 C621 1.370 . S
C626 C622 1.395 . S
C626 H643 0.930 . S
C627 Gd574 2.805 . S
C627 O609 1.263 . S
C627 O610 1.252 . S
C627 C621 1.500 . S
C628 H590 0.930 . S
C628 C604 1.417 . S
C628 C629 1.329 . S
C629 C599 1.437 . S
C629 H600 0.929 . S
C629 C628 1.329 . S
H630 C603 0.931 . S
C631 O613 1.265 . S
C631 O614 1.242 . S
C632 O617 1.261 . S
C632 O618 1.252 1_455 S
C633 C636 1.394 . S
C633 C638 1.370 . S
C633 C639 1.500 . S
C634 C637 1.383 . S
C634 C638 1.395 . S
C635 C636 1.396 . S
C635 C637 1.365 . S
C635 H644 0.929 . S
C636 C633 1.394 . S
C636 C635 1.396 . S
C636 H645 0.930 . S
C637 C634 1.383 . S
C637 C635 1.365 . S
C637 H646 0.931 . S
C638 C633 1.370 . S
C638 C634 1.395 . S
C638 H647 0.930 . S
C639 Gd575 2.805 . S
C639 O615 1.263 . S
C639 O616 1.252 . S
C639 C633 1.500 . S
H640 C623 0.929 . S
H641 C624 0.930 . S
H642 C625 0.931 . S
H643 C626 0.930 . S
H644 C635 0.929 . S
H645 C636 0.930 . S
H646 C637 0.931 . S
H647 C638 0.930 . S
H648 C654 0.930 . S
H649 C657 0.930 . S
H650 C658 0.930 . S
H651 C659 0.930 . S
H652 C662 0.930 . S
H653 C663 0.930 . S
C654 H648 0.930 . S
C654 C655 1.355 . S
C654 C656 1.415 . S
C655 C654 1.355 . S
C655 C657 1.419 . S
C656 C654 1.415 . S
C656 C661 1.425 . S
C656 C663 1.409 1_545 S
C657 H649 0.930 . S
C657 C655 1.419 . S
C657 C658 1.362 . S
C658 H650 0.930 . S
C658 C657 1.362 . S
C658 C661 1.409 . S
C659 H651 0.930 . S
C659 C660 1.355 . S
C659 C661 1.415 . S
C660 C659 1.355 . S
C660 C662 1.419 1_545 S
C661 C656 1.425 . S
C661 C658 1.409 . S
C661 C659 1.415 . S
C662 H652 0.930 . S
C662 C660 1.419 1_565 S
C662 C663 1.362 . S
C663 H653 0.930 . S
C663 C656 1.409 1_565 S
C663 C662 1.362 . S
H664 C670 0.930 . S
H665 C673 0.930 . S
H666 C674 0.930 . S
H667 C675 0.930 . S
H668 C678 0.930 . S
H669 C679 0.930 . S
C670 H664 0.930 . S
C670 C671 1.355 . S
C670 C672 1.415 . S
C671 C670 1.355 . S
C671 C673 1.419 . S
C672 C670 1.415 . S
C672 C677 1.425 . S
C672 C679 1.409 . S
C673 H665 0.930 . S
C673 C671 1.419 . S
C673 C674 1.362 . S
C674 H666 0.930 . S
C674 C673 1.362 . S
C674 C677 1.409 . S
C675 H667 0.930 . S
C675 C676 1.355 . S
C675 C677 1.415 . S
C676 C675 1.355 . S
C676 C678 1.419 . S
C677 C672 1.425 . S
C677 C674 1.409 . S
C677 C675 1.415 . S
C678 H668 0.930 . S
C678 C676 1.419 . S
C678 C679 1.362 . S
C679 H669 0.930 . S
C679 C672 1.409 . S
C679 C678 1.362 . S
H680 C686 0.930 . S
H681 C689 0.930 . S
H682 C690 0.930 . S
H683 C691 0.930 . S
H684 C694 0.930 . S
H685 C695 0.930 . S
C686 H680 0.930 . S
C686 C687 1.355 . S
C686 C688 1.415 . S
C687 C686 1.355 . S
C687 C689 1.419 . S
C688 C686 1.415 . S
C688 C693 1.425 . S
C688 C695 1.409 . S
C689 H681 0.930 . S
C689 C687 1.419 . S
C689 C690 1.362 . S
C690 H682 0.930 . S
C690 C689 1.362 . S
C690 C693 1.409 . S
C691 H683 0.930 . S
C691 C692 1.355 . S
C691 C693 1.415 . S
C692 C691 1.355 . S
C692 C694 1.419 . S
C693 C688 1.425 . S
C693 C690 1.409 . S
C693 C691 1.415 . S
C694 H684 0.930 . S
C694 C692 1.419 . S
C694 C695 1.362 . S
C695 H685 0.930 . S
C695 C688 1.409 . S
C695 C694 1.362 . S
H696 C702 0.930 . S
H697 C705 0.930 . S
H698 C706 0.930 . S
H699 C707 0.930 . S
H700 C710 0.930 1_655 S
H701 C711 0.930 1_655 S
C702 H696 0.930 . S
C702 C703 1.355 . S
C702 C704 1.415 . S
C703 C702 1.355 . S
C703 C705 1.419 . S
C704 C702 1.415 . S
C704 C709 1.425 . S
C704 C711 1.409 . S
C705 H697 0.930 . S
C705 C703 1.419 . S
C705 C706 1.362 . S
C706 H698 0.930 . S
C706 C705 1.362 . S
C706 C709 1.409 . S
C707 H699 0.930 . S
C707 C708 1.355 . S
C707 C709 1.415 . S
C708 C707 1.355 . S
C708 C710 1.419 . S
C709 C704 1.425 . S
C709 C706 1.409 . S
C709 C707 1.415 . S
C710 H700 0.930 1_455 S
C710 C708 1.419 . S
C710 C711 1.362 . S
C711 H701 0.930 1_455 S
C711 C704 1.409 . S
C711 C710 1.362 . S
H712 C718 0.930 . S
H713 C721 0.930 . S
H714 C722 0.909 1_545 S
H715 C723 0.930 1_545 S
H716 C726 0.930 . S
H717 C727 0.930 . S
C718 H712 0.930 . S
C718 C719 1.355 . S
C718 C720 1.415 1_554 S
C719 C718 1.355 . S
C719 C721 1.419 . S
C720 C718 1.415 1_556 S
C720 C725 1.425 . S
C720 C727 1.409 . S
C721 H713 0.930 . S
C721 C719 1.419 . S
C721 C722 1.374 1_554 S
C722 H714 0.909 1_565 S
C722 C721 1.374 1_556 S
C722 C725 1.420 . S
C723 H715 0.930 1_565 S
C723 C724 1.355 . S
C723 C725 1.415 . S
C724 C723 1.355 . S
C724 C726 1.419 . S
C725 C720 1.425 . S
C725 C722 1.420 . S
C725 C723 1.415 . S
C726 H716 0.930 . S
C726 C724 1.419 . S
C726 C727 1.362 . S
C727 H717 0.930 . S
C727 C720 1.409 . S
C727 C726 1.362 . S
H728 C734 0.930 . S
H729 C737 0.930 . S
H730 C738 0.930 . S
H731 C739 0.930 . S
H732 C742 0.930 . S
H733 C743 0.930 . S
C734 H728 0.930 . S
C734 C735 1.355 . S
C734 C736 1.415 1_554 S
C735 C734 1.355 . S
C735 C737 1.419 . S
C736 C734 1.415 1_556 S
C736 C741 1.425 . S
C736 C743 1.409 . S
C737 H729 0.930 . S
C737 C735 1.419 . S
C737 C738 1.362 . S
C738 H730 0.930 . S
C738 C737 1.362 . S
C738 C741 1.409 1_554 S
C739 H731 0.930 . S
C739 C740 1.355 . S
C739 C741 1.415 . S
C740 C739 1.355 . S
C740 C742 1.419 . S
C741 C736 1.425 . S
C741 C738 1.409 1_556 S
C741 C739 1.415 . S
C742 H732 0.930 . S
C742 C740 1.419 . S
C742 C743 1.362 . S
C743 H733 0.930 . S
C743 C736 1.409 . S
C743 C742 1.362 . S
H744 C750 0.930 . S
H745 C753 0.930 . S
H746 C754 0.930 . S
H747 C755 0.930 . S
H748 C758 0.930 . S
H749 C759 0.930 . S
C750 H744 0.930 . S
C750 C751 1.355 . S
C750 C752 1.415 1_554 S
C751 C750 1.355 . S
C751 C753 1.419 . S
C752 C750 1.415 1_556 S
C752 C757 1.425 . S
C752 C759 1.409 . S
C753 H745 0.930 . S
C753 C751 1.419 . S
C753 C754 1.362 . S
C754 H746 0.930 . S
C754 C753 1.362 . S
C754 C757 1.409 1_554 S
C755 H747 0.930 . S
C755 C756 1.355 . S
C755 C757 1.415 . S
C756 C755 1.355 . S
C756 C758 1.419 . S
C757 C752 1.425 . S
C757 C754 1.409 1_556 S
C757 C755 1.415 . S
C758 H748 0.930 . S
C758 C756 1.419 . S
C758 C759 1.362 . S
C759 H749 0.930 . S
C759 C752 1.409 . S
C759 C758 1.362 . S
H760 C766 0.930 . S
H761 C769 0.930 . S
H762 C770 0.930 . S
H763 C771 0.930 . S
H764 C774 0.930 . S
H765 C775 0.930 . S
C766 H760 0.930 . S
C766 C767 1.355 . S
C766 C768 1.415 1_554 S
C767 C766 1.355 . S
C767 C769 1.419 . S
C768 C766 1.415 1_556 S
C768 C773 1.425 . S
C768 C775 1.409 1_655 S
C769 H761 0.930 . S
C769 C767 1.419 . S
C769 C770 1.362 . S
C770 H762 0.930 . S
C770 C769 1.362 . S
C770 C773 1.409 1_554 S
C771 H763 0.930 . S
C771 C772 1.355 . S
C771 C773 1.415 . S
C772 C771 1.355 . S
C772 C774 1.419 1_655 S
C773 C768 1.425 . S
C773 C770 1.409 1_556 S
C773 C771 1.415 . S
C774 H764 0.930 . S
C774 C772 1.419 1_455 S
C774 C775 1.362 . S
C775 H765 0.930 . S
C775 C768 1.409 1_455 S
C775 C774 1.362 . S
H776 C782 0.930 . S
H777 C785 0.930 . S
H778 C786 0.930 . S
H779 C787 0.930 . S
H780 C790 0.941 . S
H781 C791 0.930 . S
C782 H776 0.930 . S
C782 C783 1.355 . S
C782 C784 1.415 . S
C783 C782 1.355 . S
C783 C785 1.419 . S
C784 C782 1.415 . S
C784 C789 1.425 . S
C784 C791 1.409 . S
C785 H777 0.930 . S
C785 C783 1.419 . S
C785 C786 1.362 . S
C786 H778 0.930 . S
C786 C785 1.362 . S
C786 C789 1.409 . S
C787 H779 0.930 . S
C787 C788 1.355 1_455 S
C787 C789 1.415 . S
C788 C787 1.355 1_655 S
C788 C790 1.423 . S
C789 C784 1.425 . S
C789 C786 1.409 . S
C789 C787 1.415 . S
C790 H780 0.941 . S
C790 C788 1.423 . S
C790 C791 1.348 1_655 S
C791 H781 0.930 . S
C791 C784 1.409 . S
C791 C790 1.348 1_455 S
H792 C798 0.930 . S
H793 C801 0.930 . S
H794 C802 0.930 1_565 S
H795 C803 0.930 . S
H796 C806 0.930 . S
H797 C807 0.930 . S
C798 H792 0.930 . S
C798 C799 1.355 . S
C798 C800 1.415 . S
C799 C798 1.355 . S
C799 C801 1.419 . S
C800 C798 1.415 . S
C800 C805 1.425 . S
C800 C807 1.409 . S
C801 H793 0.930 . S
C801 C799 1.419 . S
C801 C802 1.362 . S
C802 H794 0.930 1_545 S
C802 C801 1.362 . S
C802 C805 1.409 . S
C803 H795 0.930 . S
C803 C804 1.355 1_565 S
C803 C805 1.415 1_565 S
C804 C803 1.355 1_545 S
C804 C806 1.419 . S
C805 C800 1.425 . S
C805 C802 1.409 . S
C805 C803 1.415 1_545 S
C806 H796 0.930 . S
C806 C804 1.419 . S
C806 C807 1.362 . S
C807 H797 0.930 . S
C807 C800 1.409 . S
C807 C806 1.362 . S
H808 C814 0.930 . S
H809 C817 0.930 . S
H810 C818 0.930 . S
H811 C819 0.930 . S
H812 C822 0.930 . S
H813 C823 0.930 . S
C814 H808 0.930 . S
C814 C815 1.355 . S
C814 C816 1.415 . S
C815 C814 1.355 . S
C815 C817 1.419 . S
C816 C814 1.415 . S
C816 C821 1.425 . S
C816 C823 1.409 . S
C817 H809 0.930 . S
C817 C815 1.419 . S
C817 C818 1.362 . S
C818 H810 0.930 . S
C818 C817 1.362 . S
C818 C821 1.409 . S
C819 H811 0.930 . S
C819 C820 1.355 . S
C819 C821 1.415 . S
C820 C819 1.355 . S
C820 C822 1.419 . S
C821 C816 1.425 . S
C821 C818 1.409 . S
C821 C819 1.415 . S
C822 H812 0.930 . S
C822 C820 1.419 . S
C822 C823 1.362 . S
C823 H813 0.930 . S
C823 C816 1.409 . S
C823 C822 1.362 . S
H824 C830 0.930 . S
H825 C833 0.930 . S
H826 C834 0.930 . S
H827 C835 0.930 . S
H828 C838 0.930 . S
H829 C839 0.930 . S
C830 H824 0.930 . S
C830 C831 1.355 . S
C830 C832 1.415 . S
C831 C830 1.355 . S
C831 C833 1.419 . S
C832 C830 1.415 . S
C832 C837 1.425 . S
C832 C839 1.409 . S
C833 H825 0.930 . S
C833 C831 1.419 . S
C833 C834 1.362 . S
C834 H826 0.930 . S
C834 C833 1.362 . S
C834 C837 1.409 . S
C835 H827 0.930 . S
C835 C836 1.355 . S
C835 C837 1.415 . S
C836 C835 1.355 . S
C836 C838 1.419 . S
C837 C832 1.425 . S
C837 C834 1.409 . S
C837 C835 1.415 . S
C838 H828 0.930 . S
C838 C836 1.419 . S
C838 C839 1.362 . S
C839 H829 0.930 . S
C839 C832 1.409 . S
C839 C838 1.362 . S
H840 C846 0.930 . S
H841 C849 0.930 . S
H842 C850 0.931 1_455 S
H843 C851 0.930 . S
H844 C854 0.930 . S
H845 C855 0.930 . S
C846 H840 0.930 . S
C846 C847 1.355 . S
C846 C848 1.415 . S
C847 C846 1.355 . S
C847 C849 1.419 1_554 S
C848 C846 1.415 . S
C848 C853 1.425 1_554 S
C848 C855 1.409 . S
C849 H841 0.930 . S
C849 C847 1.419 1_556 S
C849 C850 1.362 . S
C850 H842 0.931 1_655 S
C850 C849 1.362 . S
C850 C853 1.409 . S
C851 H843 0.930 . S
C851 C852 1.355 . S
C851 C853 1.415 1_455 S
C852 C851 1.355 . S
C852 C854 1.419 . S
C853 C848 1.425 1_556 S
C853 C850 1.409 . S
C853 C851 1.415 1_655 S
C854 H844 0.930 . S
C854 C852 1.419 . S
C854 C855 1.362 1_456 S
C855 H845 0.930 . S
C855 C848 1.409 . S
C855 C854 1.362 1_654 S
H856 C862 0.930 . S
H857 C865 0.930 1_545 S
H858 C866 0.930 . S
H859 C867 0.930 . S
H860 C870 0.930 . S
H861 C871 0.930 . S
C862 H856 0.930 . S
C862 C863 1.355 1_556 S
C862 C864 1.415 . S
C863 C862 1.355 1_554 S
C863 C865 1.419 . S
C864 C862 1.415 . S
C864 C869 1.425 1_565 S
C864 C871 1.409 . S
C865 H857 0.930 1_565 S
C865 C863 1.419 . S
C865 C866 1.362 1_565 S
C866 H858 0.930 . S
C866 C865 1.362 1_545 S
C866 C869 1.409 1_554 S
C867 H859 0.930 . S
C867 C868 1.355 . S
C867 C869 1.415 . S
C868 C867 1.355 . S
C868 C870 1.419 1_545 S
C869 C864 1.425 1_545 S
C869 C866 1.409 1_556 S
C869 C867 1.415 . S
C870 H860 0.930 . S
C870 C868 1.419 1_565 S
C870 C871 1.362 . S
C871 H861 0.930 . S
C871 C864 1.409 . S
C871 C870 1.362 . S
H872 C878 0.930 . S
H873 C881 0.930 . S
H874 C882 0.930 . S
H875 C883 0.930 1_554 S
H876 C886 0.930 . S
H877 C887 0.930 . S
C878 H872 0.930 . S
C878 C879 1.355 1_556 S
C878 C880 1.415 . S
C879 C878 1.355 1_554 S
C879 C881 1.419 . S
C880 C878 1.415 . S
C880 C885 1.425 1_556 S
C880 C887 1.409 . S
C881 H873 0.930 . S
C881 C879 1.419 . S
C881 C882 1.362 . S
C882 H874 0.930 . S
C882 C881 1.362 . S
C882 C885 1.409 . S
C883 H875 0.930 1_556 S
C883 C884 1.355 . S
C883 C885 1.415 1_556 S
C884 C883 1.355 . S
C884 C886 1.419 . S
C885 C880 1.425 1_554 S
C885 C882 1.409 . S
C885 C883 1.415 1_554 S
C886 H876 0.930 . S
C886 C884 1.419 . S
C886 C887 1.362 . S
C887 H877 0.930 . S
C887 C880 1.409 . S
C887 C886 1.362 . S
H888 C894 0.930 . S
H889 C897 0.930 . S
H890 C898 0.930 . S
H891 C899 0.930 . S
H892 C902 0.930 . S
H893 C903 0.930 . S
C894 H888 0.930 . S
C894 C895 1.355 . S
C894 C896 1.415 . S
C895 C894 1.355 . S
C895 C897 1.419 1_554 S
C896 C894 1.415 . S
C896 C901 1.425 1_554 S
C896 C903 1.409 . S
C897 H889 0.930 . S
C897 C895 1.419 1_556 S
C897 C898 1.362 . S
C898 H890 0.930 . S
C898 C897 1.362 . S
C898 C901 1.409 . S
C899 H891 0.930 . S
C899 C900 1.355 . S
C899 C901 1.415 . S
C900 C899 1.355 . S
C900 C902 1.419 . S
C901 C896 1.425 1_556 S
C901 C898 1.409 . S
C901 C899 1.415 . S
C902 H892 0.930 . S
C902 C900 1.419 . S
C902 C903 1.362 1_556 S
C903 H893 0.930 . S
C903 C896 1.409 . S
C903 C902 1.362 1_554 S
H904 C910 0.930 . S
H905 C913 0.930 . S
H906 C914 0.930 1_655 S
H907 C915 0.954 . S
H908 C918 0.930 . S
H909 C919 0.930 . S
C910 H904 0.930 . S
C910 C911 1.355 . S
C910 C912 1.415 . S
C911 C910 1.355 . S
C911 C913 1.419 . S
C912 C910 1.415 . S
C912 C917 1.425 . S
C912 C919 1.409 . S
C913 H905 0.930 . S
C913 C911 1.419 . S
C913 C914 1.362 . S
C914 H906 0.930 1_455 S
C914 C913 1.362 . S
C914 C917 1.409 . S
C915 H907 0.954 . S
C915 C916 1.355 . S
C915 C917 1.415 . S
C916 C915 1.355 . S
C916 C918 1.419 . S
C917 C912 1.425 . S
C917 C914 1.409 . S
C917 C915 1.415 . S
C918 H908 0.930 . S
C918 C916 1.419 . S
C918 C919 1.362 . S
C919 H909 0.930 . S
C919 C912 1.409 . S
C919 C918 1.362 . S
H920 C926 0.930 . S
H921 C929 0.930 . S
H922 C930 0.930 . S
H923 C931 0.930 . S
H924 C934 0.930 . S
H925 C935 0.930 . S
C926 H920 0.930 . S
C926 C927 1.355 . S
C926 C928 1.415 . S
C927 C926 1.355 . S
C927 C929 1.419 . S
C928 C926 1.415 . S
C928 C933 1.425 . S
C928 C935 1.409 . S
C929 H921 0.930 . S
C929 C927 1.419 . S
C929 C930 1.362 . S
C930 H922 0.930 . S
C930 C929 1.362 . S
C930 C933 1.409 . S
C931 H923 0.930 . S
C931 C932 1.355 . S
C931 C933 1.415 . S
C932 C931 1.355 . S
C932 C934 1.419 . S
C933 C928 1.425 . S
C933 C930 1.409 . S
C933 C931 1.415 . S
C934 H924 0.930 . S
C934 C932 1.419 . S
C934 C935 1.362 . S
C935 H925 0.930 . S
C935 C928 1.409 . S
C935 C934 1.362 . S
H936 C942 0.930 . S
H937 C945 0.930 . S
H938 C946 0.930 . S
H939 C947 0.930 . S
H940 C950 0.930 . S
H941 C951 0.930 . S
C942 H936 0.930 . S
C942 C943 1.355 . S
C942 C944 1.415 . S
C943 C942 1.355 . S
C943 C945 1.419 . S
C944 C942 1.415 . S
C944 C949 1.425 . S
C944 C951 1.409 . S
C945 H937 0.930 . S
C945 C943 1.419 . S
C945 C946 1.362 . S
C946 H938 0.930 . S
C946 C945 1.362 . S
C946 C949 1.409 . S
C947 H939 0.930 . S
C947 C948 1.355 . S
C947 C949 1.415 . S
C948 C947 1.355 . S
C948 C950 1.419 . S
C949 C944 1.425 . S
C949 C946 1.409 . S
C949 C947 1.415 . S
C950 H940 0.930 . S
C950 C948 1.419 . S
C950 C951 1.362 . S
C951 H941 0.930 . S
C951 C944 1.409 . S
C951 C950 1.362 . S
H952 C958 0.930 . S
H953 C961 0.930 . S
H954 C962 0.930 . S
H955 C963 0.930 . S
H956 C966 0.930 . S
H957 C967 0.930 . S
C958 H952 0.930 . S
C958 C959 1.355 . S
C958 C960 1.415 . S
C959 C958 1.355 . S
C959 C961 1.419 . S
C960 C958 1.415 . S
C960 C965 1.425 . S
C960 C967 1.409 . S
C961 H953 0.930 . S
C961 C959 1.419 . S
C961 C962 1.362 . S
C962 H954 0.930 . S
C962 C961 1.362 . S
C962 C965 1.409 . S
C963 H955 0.930 . S
C963 C964 1.355 . S
C963 C965 1.415 . S
C964 C963 1.355 . S
C964 C966 1.419 . S
C965 C960 1.425 . S
C965 C962 1.409 . S
C965 C963 1.415 . S
C966 H956 0.930 . S
C966 C964 1.419 . S
C966 C967 1.362 . S
C967 H957 0.930 . S
C967 C960 1.409 . S
C967 C966 1.362 . S
H968 C974 0.930 . S
H969 C977 0.930 . S
H970 C978 0.930 . S
H971 C979 0.930 . S
H972 C982 0.930 1_455 S
H973 C983 0.930 1_455 S
C974 H968 0.930 . S
C974 C975 1.355 . S
C974 C976 1.415 . S
C975 C974 1.355 . S
C975 C977 1.419 . S
C976 C974 1.415 . S
C976 C981 1.425 . S
C976 C983 1.409 . S
C977 H969 0.930 . S
C977 C975 1.419 . S
C977 C978 1.362 . S
C978 H970 0.930 . S
C978 C977 1.362 . S
C978 C981 1.409 . S
C979 H971 0.930 . S
C979 C980 1.355 . S
C979 C981 1.415 . S
C980 C979 1.355 . S
C980 C982 1.419 . S
C981 C976 1.425 . S
C981 C978 1.409 . S
C981 C979 1.415 . S
C982 H972 0.930 1_655 S
C982 C980 1.419 . S
C982 C983 1.362 . S
C983 H973 0.930 1_655 S
C983 C976 1.409 . S
C983 C982 1.362 . S
H984 C990 0.930 1_545 S
H985 C993 0.930 . S
H986 C994 0.930 . S
H987 C995 0.930 . S
H988 C998 0.930 . S
H989 C999 0.930 . S
C990 H984 0.930 1_565 S
C990 C991 1.355 . S
C990 C992 1.415 . S
C991 C990 1.355 . S
C991 C993 1.419 . S
C992 C990 1.415 . S
C992 C997 1.425 . S
C992 C999 1.409 1_565 S
C993 H985 0.930 . S
C993 C991 1.419 . S
C993 C994 1.362 . S
C994 H986 0.930 . S
C994 C993 1.362 . S
C994 C997 1.409 . S
C995 H987 0.930 . S
C995 C996 1.355 . S
C995 C997 1.415 . S
C996 C995 1.355 . S
C996 C998 1.419 1_565 S
C997 C992 1.425 . S
C997 C994 1.409 . S
C997 C995 1.415 . S
C998 H988 0.930 . S
C998 C996 1.419 1_545 S
C998 C999 1.362 . S
C999 H989 0.930 . S
C999 C992 1.409 1_545 S
C999 C998 1.362 . S
H1000 C1006 0.930 . S
H1001 C1009 0.930 . S
H1002 C1010 0.930 . S
H1003 C1011 0.930 . S
H1004 C1014 0.930 . S
H1005 C1015 0.930 . S
C1006 H1000 0.930 . S
C1006 C1007 1.355 . S
C1006 C1008 1.415 . S
C1007 C1006 1.355 . S
C1007 C1009 1.419 . S
C1008 C1006 1.415 . S
C1008 C1013 1.425 . S
C1008 C1015 1.409 . S
C1009 H1001 0.930 . S
C1009 C1007 1.419 . S
C1009 C1010 1.362 . S
C1010 H1002 0.930 . S
C1010 C1009 1.362 . S
C1010 C1013 1.409 . S
C1011 H1003 0.930 . S
C1011 C1012 1.355 . S
C1011 C1013 1.415 . S
C1012 C1011 1.355 . S
C1012 C1014 1.419 . S
C1013 C1008 1.425 . S
C1013 C1010 1.409 . S
C1013 C1011 1.415 . S
C1014 H1004 0.930 . S
C1014 C1012 1.419 . S
C1014 C1015 1.362 . S
C1015 H1005 0.930 . S
C1015 C1008 1.409 . S
C1015 C1014 1.362 . S
H1016 C1022 0.930 . S
H1017 C1025 0.930 . S
H1018 C1026 0.930 . S
H1019 C1027 0.930 . S
H1020 C1030 0.930 . S
H1021 C1031 0.930 . S
C1022 H1016 0.930 . S
C1022 C1023 1.355 . S
C1022 C1024 1.415 . S
C1023 C1022 1.355 . S
C1023 C1025 1.419 . S
C1024 C1022 1.415 . S
C1024 C1029 1.425 . S
C1024 C1031 1.409 . S
C1025 H1017 0.930 . S
C1025 C1023 1.419 . S
C1025 C1026 1.362 . S
C1026 H1018 0.930 . S
C1026 C1025 1.362 . S
C1026 C1029 1.409 . S
C1027 H1019 0.930 . S
C1027 C1028 1.355 . S
C1027 C1029 1.415 . S
C1028 C1027 1.355 . S
C1028 C1030 1.419 . S
C1029 C1024 1.425 . S
C1029 C1026 1.409 . S
C1029 C1027 1.415 . S
C1030 H1020 0.930 . S
C1030 C1028 1.419 . S
C1030 C1031 1.362 . S
C1031 H1021 0.930 . S
C1031 C1024 1.409 . S
C1031 C1030 1.362 . S
C655 C255 2.413 . S
C660 C380 2.585 . S
C676 C463 2.591 . S
C671 C294 2.373 . S
C692 C548 2.594 . S
C687 C177 2.423 . S
C708 C632 2.588 . S
C703 C216 2.418 . S
C724 C368 2.585 1_565 S
C719 C99 2.378 . S
C735 C138 2.387 . S
C740 C451 2.604 . S
C751 C21 2.432 . S
C756 C536 2.597 . S
C767 C60 2.415 . S
C772 C620 2.578 1_655 S
C788 C370 0.642 . S
C783 C196 0.611 . S
C804 C466 0.608 1_545 S
C799 C235 0.479 . S
C820 C538 0.537 . S
C815 C289 0.558 . S
C831 C157 0.556 . S
C836 C622 0.641 . S
C847 C40 0.630 . S
C852 C382 0.628 . S
C868 C454 0.553 . S
C863 C79 0.504 . S
C884 C550 0.578 . S
C879 C133 0.515 . S
C895 C1 0.624 . S
C900 C634 0.618 . S
C911 C211 2.709 . S
C916 C367 3.061 . S
C927 C250 2.734 . S
C932 C452 3.125 . S
C948 C535 3.077 . S
C943 C274 2.719 . S
C964 C619 3.082 . S
C959 C172 2.732 . S
C975 C55 2.698 . S
C980 C379 3.055 . S
C996 C464 3.126 . S
C991 C94 2.738 . S
C1012 C547 3.108 . S
C1007 C118 2.784 . S
C1023 C16 2.720 . S
C1028 C631 3.078 . S
