# Generated by pormake.
# Topology rtl, (3,6)-cn, num edge types: 1
# Building blocks:
#     Node 0, Type 0, BuildingBlock: MIDCAF_clean_linker_0, # of connection points: 3
#     Node 1, Type 0, BuildingBlock: MIDCAF_clean_linker_0, # of connection points: 3
#     Node 2, Type 0, BuildingBlock: MIDCAF_clean_linker_0, # of connection points: 3
#     Node 3, Type 0, BuildingBlock: MIDCAF_clean_linker_0, # of connection points: 3
#     Node 4, Type 1, BuildingBlock: KUMBOL_clean_sbu_1, # of connection points: 6
#     Node 5, Type 1, BuildingBlock: KUMBOL_clean_sbu_1, # of connection points: 6
#     Edge 6, Type (0, 1), BuildingBlock: ZUJKAS_clean_linker_0, # of connection points: 2
#     Edge 7, Type (0, 1), BuildingBlock: ZUJKAS_clean_linker_0, # of connection points: 2
#     Edge 8, Type (0, 1), BuildingBlock: ZUJKAS_clean_linker_0, # of connection points: 2
#     Edge 9, Type (0, 1), BuildingBlock: ZUJKAS_clean_linker_0, # of connection points: 2
#     Edge 10, Type (0, 1), BuildingBlock: ZUJKAS_clean_linker_0, # of connection points: 2
#     Edge 11, Type (0, 1), BuildingBlock: ZUJKAS_clean_linker_0, # of connection points: 2
#     Edge 12, Type (0, 1), BuildingBlock: ZUJKAS_clean_linker_0, # of connection points: 2
#     Edge 13, Type (0, 1), BuildingBlock: ZUJKAS_clean_linker_0, # of connection points: 2
#     Edge 14, Type (0, 1), BuildingBlock: ZUJKAS_clean_linker_0, # of connection points: 2
#     Edge 15, Type (0, 1), BuildingBlock: ZUJKAS_clean_linker_0, # of connection points: 2
#     Edge 16, Type (0, 1), BuildingBlock: ZUJKAS_clean_linker_0, # of connection points: 2
#     Edge 17, Type (0, 1), BuildingBlock: ZUJKAS_clean_linker_0, # of connection points: 2
# Relax obj value: 0.017
# Max RMSD: 0.084
# Mean RMSD: 0.052
data_MOF--net-rtl--node1-KUMBOL_clean_sbu_1--node2-MIDCAF_clean_linker_0--edge1-ZUJKAS_clean_linker_0
_symmetry_space_group_name_H-M    P1
_symmetry_Int_Tables_number       1
_symmetry_cell_setting            triclinic
loop_
_symmetry_equiv_pos_as_xyz
'x, y, z'
_cell_length_a     49.035039
_cell_length_b     49.566021
_cell_length_c     42.585233
_cell_angle_alpha  81.965763
_cell_angle_beta   99.479657
_cell_angle_gamma 90.318269
loop_
_atom_site_label
_atom_site_type_symbol
_atom_site_fract_x
_atom_site_fract_y
_atom_site_fract_z
_atom_type_partial_charge
C0 C 0.19323 0.91446 0.10629 0.0
C1 C 0.2066 0.90437 0.1375 0.0
C2 C 0.2297 0.88683 0.14105 0.0
C3 C 0.23881 0.87913 0.11408 0.0
H4 H 0.2819 0.81518 0.08516 0.0
H5 H 0.31207 0.7755 0.08793 0.0
H6 H 0.31751 0.79737 0.98735 0.0
H7 H 0.28709 0.83632 0.98434 0.0
H8 H 0.23729 0.86687 0.94079 0.0
H9 H 0.21216 0.88192 0.88726 0.0
H10 H 0.1619 0.93608 0.92595 0.0
H11 H 0.18729 0.9212 0.97996 0.0
H12 H 0.19123 0.91478 0.05578 0.0
H13 H 0.1751 0.92764 0.10259 0.0
H14 H 0.24073 0.87897 0.16471 0.0
H15 H 0.2565 0.86538 0.11777 0.0
N16 N 0.25368 0.85996 0.05762 0.0
N17 N 0.24855 0.86238 1.00163 0.0
N18 N 0.22141 0.89064 0.02413 0.0
C19 C 0.26119 0.85123 0.03132 0.0
C20 C 0.22869 0.88203 0.9977 0.0
C21 C 0.23388 0.87982 0.05419 0.0
C22 C 0.28174 0.82876 0.03444 0.0
C23 C 0.28974 0.81162 0.06373 0.0
C24 C 0.30709 0.78891 0.06534 0.0
C25 C 0.31686 0.78299 0.03772 0.0
C26 C 0.30979 0.80087 0.00888 0.0
C27 C 0.29242 0.82336 0.00722 0.0
C28 C 0.21424 0.89265 0.96489 0.0
C29 C 0.22099 0.88208 0.93809 0.0
C30 C 0.20646 0.89058 0.90731 0.0
C31 C 0.18485 0.90994 0.90243 0.0
C32 C 0.17854 0.92118 0.92898 0.0
C33 C 0.19303 0.91256 0.95993 0.0
C34 C 0.2251 0.88886 0.08288 0.0
C35 C 0.20239 0.90688 0.07936 0.0
C36 C 0.60572 0.66759 0.4922 0.0
C37 C 0.61815 0.67622 0.46509 0.0
C38 C 0.63894 0.69578 0.46734 0.0
C39 C 0.64752 0.7061 0.49615 0.0
H40 H 0.6997 0.75873 0.53275 0.0
H41 H 0.7363 0.79157 0.53223 0.0
H42 H 0.74009 0.79284 0.63407 0.0
H43 H 0.70342 0.75915 0.63488 0.0
H44 H 0.66305 0.71772 0.67181 0.0
H45 H 0.64599 0.69818 0.72057 0.0
H46 H 0.58885 0.6493 0.66506 0.0
H47 H 0.6054 0.66906 0.61635 0.0
H48 H 0.6047 0.67046 0.54174 0.0
H49 H 0.58977 0.65238 0.49127 0.0
H50 H 0.64864 0.70314 0.44676 0.0
H51 H 0.6638 0.72096 0.49689 0.0
N52 N 0.66588 0.72629 0.55574 0.0
N53 N 0.6664 0.72553 0.61097 0.0
N54 N 0.63616 0.69745 0.58181 0.0
C55 C 0.67628 0.73559 0.58369 0.0
C56 C 0.64625 0.70643 0.61019 0.0
C57 C 0.64589 0.70731 0.55445 0.0
C58 C 0.69845 0.75619 0.5839 0.0
C59 C 0.70815 0.76593 0.55516 0.0
C60 C 0.72911 0.78501 0.55476 0.0
C61 C 0.74102 0.79506 0.58303 0.0
C62 C 0.73145 0.78537 0.61188 0.0
C63 C 0.71035 0.76616 0.61231 0.0
C64 C 0.63567 0.69501 0.64 0.0
C65 C 0.64677 0.70289 0.66993 0.0
C66 C 0.6371 0.69156 0.69796 0.0
C67 C 0.61604 0.67216 0.69677 0.0
C68 C 0.60482 0.66446 0.66684 0.0
C69 C 0.61449 0.67571 0.63886 0.0
C70 C 0.63562 0.69706 0.52358 0.0
C71 C 0.6144 0.67785 0.52118 0.0
C72 C 0.82448 0.08738 0.95528 0.0
C73 C 0.81379 0.0999 0.92407 0.0
C74 C 0.79269 0.11981 0.91993 0.0
C75 C 0.78285 0.12737 0.94652 0.0
H76 H 0.72985 0.18293 0.97421 0.0
H77 H 0.69952 0.22273 0.97056 0.0
H78 H 0.70971 0.21368 0.07415 0.0
H79 H 0.73984 0.17439 0.07802 0.0
H80 H 0.7748 0.12895 0.12033 0.0
H81 H 0.79839 0.11146 0.17399 0.0
H82 H 0.8554 0.06596 0.1333 0.0
H83 H 0.83149 0.08304 0.0794 0.0
H84 H 0.82359 0.08483 0.00549 0.0
H85 H 0.84047 0.0717 0.95922 0.0
H86 H 0.78422 0.13001 0.89617 0.0
H87 H 0.76685 0.14303 0.9425 0.0
N88 N 0.76526 0.14415 1.00299 0.0
N89 N 0.76891 0.14007 0.05904 0.0
N90 N 0.79573 0.11173 0.0363 0.0
C91 C 0.75737 0.1524 0.02937 0.0
C92 C 0.78803 0.11975 0.06277 0.0
C93 C 0.78441 0.1237 0.00633 0.0
C94 C 0.73755 0.17551 0.0264 0.0
C95 C 0.7255 0.18934 0.9962 0.0
C96 C 0.70806 0.21207 0.99407 0.0
C97 C 0.70253 0.22147 0.0221 0.0
C98 C 0.71399 0.20722 0.05215 0.0
C99 C 0.7312 0.18454 0.0543 0.0
C100 C 0.80134 0.10759 0.09544 0.0
C101 C 0.79226 0.1151 0.1227 0.0
C102 C 0.80586 0.10518 0.15353 0.0
C103 C 0.82892 0.08754 0.15789 0.0
C104 C 0.83756 0.07937 0.13073 0.0
C105 C 0.82391 0.08927 0.09982 0.0
C106 C 0.79387 0.11512 0.97783 0.0
C107 C 0.81464 0.09485 0.98181 0.0
C108 C 0.41499 0.33565 0.55729 0.0
C109 C 0.40365 0.32654 0.58506 0.0
C110 C 0.38352 0.30627 0.58372 0.0
C111 C 0.37443 0.29583 0.55509 0.0
H112 H 0.311 0.25488 0.51354 0.0
H113 H 0.27268 0.22373 0.51329 0.0
H114 H 0.28204 0.20746 0.41862 0.0
H115 H 0.32084 0.23888 0.4187 0.0
H116 H 0.35244 0.29001 0.37785 0.0
H117 H 0.36731 0.31239 0.32889 0.0
H118 H 0.43129 0.35322 0.38608 0.0
H119 H 0.41625 0.33143 0.43482 0.0
H120 H 0.41469 0.3331 0.5075 0.0
H121 H 0.43035 0.35144 0.55746 0.0
H122 H 0.37468 0.29853 0.60483 0.0
H123 H 0.35863 0.28047 0.55495 0.0
N124 N 0.35347 0.27729 0.49487 0.0
N125 N 0.35216 0.27866 0.43937 0.0
N126 N 0.3838 0.3053 0.46879 0.0
C127 C 0.34234 0.26869 0.46671 0.0
C128 C 0.37296 0.29702 0.44027 0.0
C129 C 0.37421 0.29548 0.49621 0.0
C130 C 0.31906 0.24945 0.4661 0.0
C131 C 0.30506 0.24471 0.49259 0.0
C132 C 0.28291 0.22697 0.49241 0.0
C133 C 0.27426 0.21332 0.46587 0.0
C134 C 0.28836 0.21769 0.43945 0.0
C135 C 0.31046 0.23576 0.43946 0.0
C136 C 0.38296 0.30904 0.41038 0.0
C137 C 0.36977 0.30365 0.38002 0.0
C138 C 0.37836 0.3164 0.35192 0.0
C139 C 0.40032 0.3348 0.35356 0.0
C140 C 0.41394 0.3396 0.38392 0.0
C141 C 0.40537 0.32693 0.41194 0.0
C142 C 0.38521 0.30543 0.52703 0.0
C143 C 0.40587 0.32523 0.52858 0.0
C144 C 0.9699 0.08482 0.50139 0.0
C145 C 0.92011 0.08016 0.48866 0.0
C146 C 0.94632 0.06976 0.5042 0.0
C147 C 0.91809 0.10556 0.46908 0.0
C148 C 0.96779 0.11084 0.48279 0.0
C149 C 0.94189 0.12084 0.46609 0.0
N150 N 0.9945 0.07489 0.51867 0.0
C151 C 0.01715 0.09112 0.52058 0.0
C152 C 0.99157 0.12654 0.48261 0.0
C153 C 0.01625 0.11679 0.50201 0.0
Gd154 Gd 0.02692 0.97201 0.50776 0.0
Gd155 Gd 0.99361 0.03123 0.54882 0.0
N156 N 0.94895 0.04522 0.52321 0.0
C157 C 0.8967 0.06495 0.49385 0.0
C158 C 0.92618 0.03086 0.52956 0.0
C159 C 0.89974 0.04032 0.51465 0.0
H160 H 0.92852 0.01208 0.54606 0.0
H161 H 0.88174 0.02869 0.51934 0.0
H162 H 0.09118 0.99867 0.50806 0.0
H163 H 0.03578 0.08484 0.53714 0.0
H164 H 0.13838 0.98798 0.53642 0.0
H165 H 0.87619 0.07227 0.48241 0.0
H166 H 0.89817 0.11381 0.45671 0.0
H167 H 0.99011 0.91689 0.52476 0.0
H168 H 0.99082 0.14664 0.46867 0.0
H169 H 0.03445 0.12931 0.50326 0.0
H170 H 0.13167 0.89998 0.59745 0.0
H171 H 0.93993 0.14071 0.45155 0.0
H172 H 0.0434 0.85708 0.58739 0.0
H173 H 0.99702 0.87139 0.55722 0.0
N174 N 0.03173 0.92856 0.53761 0.0
C175 C 0.05761 0.92075 0.55278 0.0
C176 C 0.01024 0.91105 0.53836 0.0
C177 C 0.04042 0.87713 0.57332 0.0
C178 C 0.01418 0.88516 0.55643 0.0
C179 C 0.06258 0.89491 0.57149 0.0
H180 H 0.09357 0.86802 0.60242 0.0
N181 N 0.07364 0.96345 0.53107 0.0
C182 C 0.07908 0.93886 0.54986 0.0
C183 C 0.12748 0.94969 0.56145 0.0
C184 C 0.10611 0.93144 0.56575 0.0
C185 C 0.09475 0.9805 0.52526 0.0
C186 C 0.12182 0.97415 0.54079 0.0
O187 O 0.972 0.02145 0.50066 0.0
O188 O 0.01002 0.01195 0.48023 0.0
O189 O 0.04898 0.95885 0.47194 0.0
O190 O 0.00456 0.95148 0.46969 0.0
O191 O 0.97869 0.98805 0.55915 0.0
O192 O 0.98204 0.96751 0.51407 0.0
O193 O 0.02884 0.96619 0.56194 0.0
O194 O 0.03424 0.01036 0.57044 0.0
O195 O 0.9766 0.02338 0.59337 0.0
O196 O 0.99673 0.06133 0.58146 0.0
O197 O 0.04395 0.01456 0.49814 0.0
O198 O 0.03858 0.03643 0.5417 0.0
C199 C 0.9838 0.01837 0.47596 0.0
C200 C 0.97016 0.97055 0.53907 0.0
C201 C 0.02632 0.93621 0.42759 0.0
C202 C 0.04642 0.9295 0.38044 0.0
C203 C 1.0018 0.91041 0.38756 0.0
C204 C 0.00326 0.9212 0.41633 0.0
C205 C 0.02314 0.9147 0.36955 0.0
C206 C 0.04815 0.94002 0.40968 0.0
C207 C 0.0266 0.94925 0.45673 0.0
C208 C 0.11106 0.90594 0.58497 0.0
C209 C 0.08937 0.8877 0.58776 0.0
H210 H 0.14851 0.94476 0.57326 0.0
C211 C 0.03705 0.98431 0.58102 0.0
C212 C 0.05074 0.03355 0.51682 0.0
C213 C 0.95767 0.06308 0.60672 0.0
C214 C 0.92428 0.07032 0.64145 0.0
C215 C 0.92168 0.09796 0.58916 0.0
C216 C 0.94475 0.08422 0.5837 0.0
C217 C 0.91144 0.09108 0.61779 0.0
C218 C 0.94748 0.0563 0.63573 0.0
C219 C 0.98143 0.0479 0.60025 0.0
H220 H 0.98391 0.89896 0.379 0.0
H221 H 0.98621 0.918 0.42961 0.0
H222 H 0.02151 0.90647 0.34705 0.0
H223 H 0.06594 0.95183 0.41782 0.0
H224 H 0.91186 0.11418 0.57125 0.0
H225 H 0.95254 0.0903 0.56154 0.0
H226 H 0.89382 0.10248 0.62175 0.0
H227 H 0.95743 0.0401 0.65365 0.0
C228 C 0.58963 0.54675 0.01999 0.0
C229 C 0.57776 0.59474 0.00474 0.0
C230 C 0.5717 0.56853 0.01925 0.0
C231 C 0.60169 0.59857 0.99057 0.0
C232 C 0.61393 0.55059 0.00636 0.0
C233 C 0.61977 0.57658 0.99148 0.0
N234 N 0.58291 0.52161 0.03338 0.0
C235 C 0.60035 0.49979 0.03589 0.0
C236 C 0.63153 0.52811 0.00791 0.0
C237 C 0.6248 0.50265 0.02297 0.0
Gd238 Gd 0.4796 0.487 0.99659 0.0
Gd239 Gd 0.54186 0.5187 0.05478 0.0
N240 N 0.54858 0.56415 0.033 0.0
C241 C 0.55979 0.61642 0.00529 0.0
C242 C 0.53206 0.58556 0.03543 0.0
C243 C 0.53706 0.61186 0.0211 0.0
H244 H 0.51548 0.58274 0.04913 0.0
H245 H 0.52361 0.62868 0.02269 0.0
H246 H 0.4974 0.42143 0.00903 0.0
H247 H 0.59556 0.4802 0.04807 0.0
H248 H 0.48016 0.37756 0.03321 0.0
H249 H 0.56369 0.63685 0.99437 0.0
H250 H 0.60656 0.61854 0.97916 0.0
H251 H 0.4255 0.53139 0.98471 0.0
H252 H 0.65043 0.53023 0.99777 0.0
H253 H 0.63847 0.48523 0.02473 0.0
H254 H 0.39583 0.40245 0.06655 0.0
H255 H 0.63823 0.57989 0.98065 0.0
H256 H 0.36338 0.4949 0.03555 0.0
H257 H 0.38078 0.53465 1.00317 0.0
N258 N 0.43526 0.49163 0.00999 0.0
C259 C 0.4252 0.46897 0.02577 0.0
C260 C 0.41902 0.51454 1.00048 0.0
C261 C 0.3835 0.49369 0.02842 0.0
C262 C 0.39328 0.5162 0.01022 0.0
C263 C 0.39914 0.46943 0.03563 0.0
H264 H 0.36922 0.44548 0.05921 0.0
N265 N 0.46472 0.44488 0.01934 0.0
C266 C 0.44012 0.44473 0.03 0.0
C267 C 0.44437 0.39597 0.04564 0.0
C268 C 0.4295 0.42032 0.04404 0.0
C269 C 0.47861 0.42112 0.01921 0.0
C270 C 0.46883 0.39633 0.03273 0.0
O271 O 0.54297 0.51821 1.00178 0.0
O272 O 0.49804 0.52664 0.97823 0.0
O273 O 0.48897 0.4686 0.95619 0.0
O274 O 0.44786 0.48447 0.95505 0.0
O275 O 0.49898 0.53636 0.05287 0.0
O276 O 0.47468 0.53161 1.00239 0.0
O277 O 0.49142 0.46739 0.0484 0.0
O278 O 0.50387 0.50366 0.07507 0.0
O279 O 0.55773 0.54191 0.09352 0.0
O280 O 0.56973 0.49961 0.09664 0.0
O281 O 0.52306 0.47034 1.00078 0.0
O282 O 0.54519 0.47352 0.0525 0.0
C283 C 0.52454 0.52995 0.97801 0.0
C284 C 0.47881 0.5436 0.02856 0.0
C285 C 0.46402 0.48594 0.90569 0.0
C286 C 0.46051 0.48011 0.84923 0.0
C287 C 0.46784 0.52506 0.86571 0.0
C288 C 0.46763 0.51398 0.89766 0.0
C289 C 0.46432 0.50829 0.8416 0.0
C290 C 0.46049 0.4691 0.88152 0.0
C291 C 0.46454 0.47378 0.93921 0.0
C292 C 0.4042 0.42093 0.05531 0.0
C293 C 0.38907 0.44545 0.05119 0.0
H294 H 0.43687 0.37676 0.05617 0.0
C295 C 0.49353 0.47928 0.07432 0.0
C296 C 0.54085 0.4611 0.0267 0.0
C297 C 0.56232 0.51522 0.14469 0.0
C298 C 0.55776 0.5308 0.19573 0.0
C299 C 0.54503 0.48476 0.1864 0.0
C300 C 0.552 0.48978 0.1558 0.0
C301 C 0.54773 0.50503 0.20623 0.0
C302 C 0.56526 0.53569 0.16485 0.0
C303 C 0.56945 0.52057 0.112 0.0
H304 H 0.47077 0.54671 0.85963 0.0
H305 H 0.47026 0.5272 0.91606 0.0
H306 H 0.46485 0.51734 0.81704 0.0
H307 H 0.45741 0.44747 0.8879 0.0
H308 H 0.53771 0.46496 0.19483 0.0
H309 H 0.5493 0.47362 0.14091 0.0
H310 H 0.54245 0.5003 0.23008 0.0
H311 H 0.57299 0.55544 0.15633 0.0
H312 H 0.27066 0.1617 0.44968 0.0
H313 H 0.23239 0.12992 0.45409 0.0
H314 H 0.18666 0.1909 0.48791 0.0
H315 H 0.22452 0.22272 0.48325 0.0
H316 H 0.21067 0.11203 0.51217 0.0
H317 H 0.13088 0.16393 0.41522 0.0
H318 H 0.16734 0.17068 0.41738 0.0
H319 H 0.14755 0.18581 0.44256 0.0
C320 C 0.25223 0.16842 0.45753 0.0
C321 C 0.25054 0.19465 0.46615 0.0
C322 C 0.23051 0.15024 0.46021 0.0
C323 C 0.20665 0.15819 0.47105 0.0
C324 C 0.20475 0.18451 0.4791 0.0
H325 H 0.08347 0.06282 0.55793 0.0
H326 H 0.12172 0.09241 0.54609 0.0
C327 C 0.22646 0.20258 0.47666 0.0
C328 C 0.18421 0.13868 0.47557 0.0
H329 H 0.11522 0.12926 0.45244 0.0
C330 C 0.18984 0.11561 0.49894 0.0
C331 C 0.15717 0.14334 0.45806 0.0
C332 C 0.15032 0.16714 0.43168 0.0
C333 C 0.16887 0.09747 0.50595 0.0
C334 C 0.14155 0.1028 0.48943 0.0
C335 C 0.13613 0.12541 0.46535 0.0
C336 C 0.11828 0.08512 0.49665 0.0
C337 C 0.17618 0.07268 0.53086 0.0
C338 C 0.10322 0.07185 0.47254 0.0
C339 C 0.08118 0.05524 0.47912 0.0
C340 C 0.07369 0.05172 0.5099 0.0
C341 C 0.08865 0.06525 0.53394 0.0
C342 C 0.11068 0.08193 0.52731 0.0
H343 H 0.19866 0.06772 0.53491 0.0
H344 H 0.17066 0.07674 0.55403 0.0
H345 H 0.16454 0.05465 0.5236 0.0
H346 H 0.10867 0.07418 0.44868 0.0
H347 H 0.06999 0.04518 0.46004 0.0
H348 H 0.35847 0.75976 0.08508 0.0
H349 H 0.3861 0.71864 0.08496 0.0
H350 H 0.3408 0.70856 0.99177 0.0
H351 H 0.31271 0.74901 0.99193 0.0
H352 H 0.36404 0.66274 0.07451 0.0
H353 H 0.42561 0.70968 0.98308 0.0
H354 H 0.40829 0.7297 0.00651 0.0
H355 H 0.38877 0.71521 0.97367 0.0
C356 C 0.35423 0.74866 0.0647 0.0
C357 C 0.33355 0.75788 0.03837 0.0
C358 C 0.37011 0.72528 0.06461 0.0
C359 C 0.36569 0.71089 0.03815 0.0
C360 C 0.34482 0.71971 0.01214 0.0
H361 H 0.44557 0.57535 0.97914 0.0
H362 H 0.41689 0.61465 0.98257 0.0
C363 C 0.32888 0.74292 0.01225 0.0
C364 C 0.38263 0.68642 0.03761 0.0
H365 H 0.43096 0.66217 0.99898 0.0
C366 C 0.37881 0.66255 0.05817 0.0
C367 C 0.40158 0.68631 0.01598 0.0
C368 C 0.40657 0.7116 0.99364 0.0
C369 C 0.39305 0.63824 0.05719 0.0
C370 C 0.41231 0.63813 0.03576 0.0
C371 C 0.41621 0.66219 0.01536 0.0
C372 C 0.42873 0.61339 0.03406 0.0
C373 C 0.38653 0.6128 0.07837 0.0
C374 C 0.44505 0.5996 0.06177 0.0
C375 C 0.46073 0.57659 0.06002 0.0
C376 C 0.46107 0.56729 0.03035 0.0
C377 C 0.44522 0.58149 1.00249 0.0
C378 C 0.42905 0.60417 1.00438 0.0
H379 H 0.36561 0.61417 0.08493 0.0
H380 H 0.38759 0.5944 0.06642 0.0
H381 H 0.40172 0.61024 0.10101 0.0
H382 H 0.44598 0.6068 0.08477 0.0
H383 H 0.47293 0.56632 0.08192 0.0
H384 H 0.78871 0.79683 0.62664 0.0
H385 H 0.8271 0.82833 0.6228 0.0
H386 H 0.7834 0.86935 0.53275 0.0
H387 H 0.74464 0.83873 0.53696 0.0
H388 H 0.85924 0.83512 0.57496 0.0
H389 H 0.80726 0.93282 0.58115 0.0
H390 H 0.79252 0.90014 0.59248 0.0
H391 H 0.7894 0.9144 0.55078 0.0
C392 C 0.78702 0.81293 0.60638 0.0
C393 C 0.76359 0.81522 0.5821 0.0
C394 C 0.80906 0.83078 0.6041 0.0
C395 C 0.808 0.85139 0.57767 0.0
C396 C 0.78449 0.85395 0.55365 0.0
H397 H 0.94199 0.93641 0.50017 0.0
H398 H 0.90318 0.90734 0.51081 0.0
C399 C 0.76248 0.83618 0.55592 0.0
C400 C 0.83203 0.86925 0.5742 0.0
H401 H 0.85109 0.93589 0.56344 0.0
C402 C 0.85751 0.85714 0.5727 0.0
C403 C 0.8298 0.89798 0.57147 0.0
C404 C 0.80334 0.91212 0.57436 0.0
C405 C 0.88064 0.873 0.56774 0.0
C406 C 0.87811 0.90173 0.56382 0.0
C407 C 0.85286 0.91385 0.56613 0.0
C408 C 0.9015 0.91953 0.55729 0.0
C409 C 0.90767 0.85892 0.56691 0.0
C410 C 0.91302 0.93644 0.57962 0.0
C411 C 0.9353 0.95302 0.57371 0.0
C412 C 0.94635 0.95316 0.5452 0.0
C413 C 0.93432 0.93655 0.52259 0.0
C414 C 0.91214 0.91988 0.52862 0.0
H415 H 0.90795 0.83716 0.57768 0.0
H416 H 0.91077 0.85981 0.54156 0.0
H417 H 0.92531 0.86923 0.57995 0.0
H418 H 0.90496 0.93657 0.60181 0.0
H419 H 0.94392 0.96562 0.5916 0.0
H420 H 0.71389 0.26327 0.05714 0.0
H421 H 0.68521 0.30355 0.05664 0.0
H422 H 0.62438 0.27685 0.98269 0.0
H423 H 0.65295 0.23614 0.98328 0.0
H424 H 0.66497 0.34451 1.00154 0.0
H425 H 0.58146 0.29 0.05741 0.0
H426 H 0.61546 0.27507 0.06023 0.0
H427 H 0.59133 0.27703 0.02339 0.0
C428 C 0.69434 0.26588 0.04088 0.0
C429 C 0.68553 0.24644 0.02044 0.0
C430 C 0.67807 0.28894 0.04052 0.0
C431 C 0.6526 0.29294 0.01992 0.0
C432 C 0.64387 0.27389 0.99903 0.0
H433 H 0.54712 0.43729 0.97427 0.0
H434 H 0.5742 0.39639 0.97286 0.0
C435 C 0.66027 0.25081 0.99921 0.0
C436 C 0.63539 0.31724 0.02039 0.0
H437 H 0.57555 0.33759 0.04211 0.0
C438 C 0.64538 0.34303 0.01029 0.0
C439 C 0.61002 0.31514 0.03217 0.0
C440 C 0.59888 0.28788 0.04417 0.0
C441 C 0.63048 0.36686 0.01141 0.0
C442 C 0.60505 0.36474 0.02295 0.0
C443 C 0.59509 0.339 0.03324 0.0
C444 C 0.58842 0.38919 0.02416 0.0
C445 C 0.64206 0.39422 1.0006 0.0
C446 C 0.58742 0.39848 0.05359 0.0
C447 C 0.5721 0.422 0.05453 0.0
C448 C 0.55734 0.43636 0.02604 0.0
C449 C 0.55822 0.42672 0.99667 0.0
C450 C 0.57369 0.40338 0.99575 0.0
H451 H 0.66373 0.39252 0.99644 0.0
H452 H 0.62918 0.40364 0.97783 0.0
H453 H 0.64134 0.40809 0.01881 0.0
H454 H 0.59869 0.38766 0.07576 0.0
H455 H 0.57169 0.42881 0.07754 0.0
H456 H 0.20257 0.87065 0.19328 0.0
H457 H 0.1806 0.88066 0.23801 0.0
H458 H 0.16267 0.96283 0.19094 0.0
H459 H 0.18533 0.95338 0.1464 0.0
H460 H 0.18904 0.9382 0.2749 0.0
H461 H 0.08743 0.91177 0.2071 0.0
H462 H 0.1191 0.8955 0.20245 0.0
H463 H 0.11231 0.93059 0.18629 0.0
C464 C 0.19462 0.89108 0.19273 0.0
C465 C 0.19561 0.91116 0.16609 0.0
C466 C 0.182 0.8967 0.21829 0.0
C467 C 0.17011 0.92245 0.21765 0.0
C468 C 0.17184 0.94285 0.19178 0.0
H469 H 0.04316 0.96244 0.32364 0.0
H470 H 0.07602 0.96491 0.28581 0.0
C471 C 0.18455 0.9373 0.16625 0.0
C472 C 0.15365 0.92714 0.24252 0.0
H473 H 0.08786 0.92326 0.25866 0.0
C474 C 0.16689 0.9351 0.27146 0.0
C475 C 0.12483 0.92322 0.23766 0.0
C476 C 0.10986 0.91477 0.20677 0.0
C477 C 0.15188 0.93919 0.29592 0.0
C478 C 0.12304 0.93457 0.29141 0.0
C479 C 0.10992 0.92689 0.26216 0.0
C480 C 0.10585 0.93676 0.31667 0.0
C481 C 0.16699 0.9488 0.32603 0.0
C482 C 0.112 0.92073 0.34701 0.0
C483 C 0.09342 0.91972 0.36883 0.0
C484 C 0.06826 0.93434 0.36037 0.0
C485 C 0.06256 0.95112 0.33062 0.0
C486 C 0.08127 0.95246 0.30905 0.0
H487 H 0.18611 0.95974 0.3215 0.0
H488 H 0.15371 0.96249 0.33583 0.0
H489 H 0.17318 0.93087 0.34454 0.0
H490 H 0.13043 0.9079 0.3532 0.0
H491 H 0.09796 0.90638 0.39153 0.0
H492 H 0.5627 0.66066 0.70506 0.0
H493 H 0.54658 0.63851 0.75352 0.0
H494 H 0.63049 0.63276 0.80428 0.0
H495 H 0.64679 0.65485 0.75595 0.0
H496 H 0.55942 0.58783 0.78656 0.0
H497 H 0.59061 0.66592 0.86625 0.0
H498 H 0.58977 0.67243 0.82333 0.0
H499 H 0.61863 0.65428 0.84901 0.0
C500 C 0.57775 0.65468 0.72653 0.0
C501 C 0.60606 0.65962 0.7266 0.0
C502 C 0.56848 0.64212 0.75426 0.0
C503 C 0.58726 0.63434 0.7827 0.0
C504 C 0.61552 0.6392 0.78288 0.0
H505 H 0.57433 0.52674 0.95777 0.0
H506 H 0.58926 0.55317 0.91072 0.0
C507 C 0.62481 0.65183 0.75518 0.0
C508 C 0.5774 0.62013 0.81175 0.0
H509 H 0.57708 0.62297 0.89149 0.0
C510 C 0.56314 0.59562 0.80942 0.0
C511 C 0.58209 0.6304 0.84157 0.0
C512 C 0.59586 0.65733 0.84521 0.0
C513 C 0.55403 0.58085 0.83626 0.0
C514 C 0.55937 0.59079 0.86611 0.0
C515 C 0.57326 0.61539 0.86849 0.0
C516 C 0.55066 0.5757 0.89514 0.0
C517 C 0.53886 0.5546 0.83281 0.0
C518 C 0.52414 0.57992 0.90197 0.0
C519 C 0.51571 0.56518 0.92908 0.0
C520 C 0.53365 0.54588 0.94966 0.0
C521 C 0.56024 0.54179 0.9427 0.0
C522 C 0.56873 0.5567 0.91575 0.0
H523 H 0.53684 0.54925 0.80806 0.0
H524 H 0.5499 0.53769 0.84997 0.0
H525 H 0.51786 0.55644 0.83893 0.0
H526 H 0.50995 0.59453 0.88624 0.0
H527 H 0.49517 0.56893 0.93395 0.0
H528 H 0.85039 0.0367 0.18343 0.0
H529 H 0.87687 0.02266 0.23726 0.0
H530 H 0.86869 0.10399 0.2601 0.0
H531 H 0.84298 0.11836 0.20621 0.0
H532 H 0.92261 0.08247 0.27614 0.0
H533 H 0.84638 0.01077 0.32284 0.0
H534 H 0.85561 0.00485 0.2852 0.0
H535 H 0.83741 0.03569 0.28743 0.0
C536 C 0.85432 0.05159 0.1999 0.0
C537 C 0.84445 0.0786 0.19064 0.0
C538 C 0.8692 0.04348 0.23071 0.0
C539 C 0.87437 0.06222 0.25273 0.0
C540 C 0.86472 0.08919 0.24349 0.0
H541 H 0.92917 0.03307 0.4578 0.0
H542 H 0.90352 0.04346 0.40332 0.0
C543 C 0.84986 0.0973 0.21278 0.0
C544 C 0.89051 0.05406 0.28519 0.0
H545 H 0.88985 0.01264 0.35614 0.0
C546 C 0.91552 0.06717 0.29367 0.0
C547 C 0.88094 0.03439 0.30803 0.0
C548 C 0.8535 0.02072 0.30065 0.0
C549 C 0.9313 0.06114 0.32446 0.0
C550 C 0.9221 0.04095 0.34711 0.0
C551 C 0.89701 0.02789 0.33863 0.0
C552 C 0.93766 0.03388 0.38015 0.0
C553 C 0.95723 0.07704 0.33266 0.0
C554 C 0.96522 0.02453 0.38531 0.0
C555 C 0.98018 0.01929 0.41647 0.0
C556 C 0.96767 0.02287 0.44308 0.0
C557 C 0.93968 0.03094 0.43788 0.0
C558 C 0.92488 0.0366 0.40671 0.0
H559 H 0.95723 0.09643 0.31604 0.0
H560 H 0.95962 0.08183 0.35766 0.0
H561 H 0.97547 0.0647 0.33053 0.0
H562 H 0.97524 0.02144 0.36522 0.0
H563 H 1.00155 0.01255 0.41966 0.0
H564 H 0.45574 0.3397 0.6124 0.0
H565 H 0.46873 0.36197 0.66044 0.0
H566 H 0.38325 0.364 0.67279 0.0
H567 H 0.37014 0.34181 0.62498 0.0
H568 H 0.45226 0.41197 0.66976 0.0
H569 H 0.42116 0.3338 0.7627 0.0
H570 H 0.42452 0.32666 0.72307 0.0
H571 H 0.39367 0.34305 0.72955 0.0
C572 C 0.43975 0.34481 0.62545 0.0
C573 C 0.41193 0.33888 0.61497 0.0
C574 C 0.44721 0.35739 0.65295 0.0
C575 C 0.42703 0.3642 0.67052 0.0
C576 C 0.39927 0.35824 0.66016 0.0
H577 H 0.42861 0.49048 0.78973 0.0
H578 H 0.42223 0.46144 0.7473 0.0
C579 C 0.39181 0.3456 0.63276 0.0
C580 C 0.43462 0.37925 0.69834 0.0
H581 H 0.42853 0.37872 0.77717 0.0
C582 C 0.44734 0.40456 0.69334 0.0
C583 C 0.42855 0.36939 0.72921 0.0
C584 C 0.41649 0.34161 0.7366 0.0
C585 C 0.45324 0.42075 0.71803 0.0
C586 C 0.44566 0.41164 0.74834 0.0
C587 C 0.43393 0.38585 0.75376 0.0
C588 C 0.4492 0.4289 0.77442 0.0
C589 C 0.46757 0.44747 0.71142 0.0
C590 C 0.46583 0.41988 0.80409 0.0
C591 C 0.46948 0.43644 0.82845 0.0
C592 C 0.45646 0.46228 0.82358 0.0
C593 C 0.4394 0.47097 0.794 0.0
C594 C 0.43572 0.45439 0.76973 0.0
H595 H 0.47906 0.44767 0.69097 0.0
H596 H 0.45187 0.46422 0.70503 0.0
H597 H 0.48225 0.45165 0.73291 0.0
H598 H 0.4763 0.4002 0.80823 0.0
H599 H 0.48288 0.42921 0.85088 0.0
H600 H 0.56607 0.66588 0.43476 0.0
H601 H 0.55369 0.645 0.38541 0.0
H602 H 0.63992 0.63882 0.37783 0.0
H603 H 0.65253 0.65934 0.42711 0.0
H604 H 0.57664 0.66385 0.31792 0.0
H605 H 0.60044 0.55854 0.38198 0.0
H606 H 0.58977 0.58557 0.40197 0.0
H607 H 0.62391 0.5853 0.39212 0.0
C608 C 0.58237 0.66003 0.42258 0.0
C609 C 0.61028 0.66425 0.43483 0.0
C610 C 0.57526 0.64834 0.39432 0.0
C611 C 0.59593 0.64051 0.37808 0.0
C612 C 0.62372 0.64489 0.39002 0.0
H613 H 0.60116 0.56529 0.20731 0.0
H614 H 0.60891 0.59528 0.24908 0.0
C615 C 0.63084 0.65669 0.41811 0.0
C616 C 0.58873 0.62652 0.34947 0.0
H617 H 0.58829 0.5636 0.32555 0.0
C618 C 0.5791 0.64194 0.31949 0.0
C619 C 0.59199 0.59798 0.3518 0.0
C620 C 0.60197 0.58068 0.38365 0.0
C621 C 0.57291 0.6294 0.29156 0.0
C622 C 0.57642 0.6009 0.29391 0.0
C623 C 0.58577 0.58551 0.32394 0.0
C624 C 0.57004 0.58634 0.26566 0.0
C625 C 0.56256 0.64646 0.2597 0.0
C626 C 0.54539 0.57195 0.26087 0.0
C627 C 0.54083 0.55501 0.237 0.0
C628 C 0.561 0.55188 0.2177 0.0
C629 C 0.58515 0.56738 0.2216 0.0
C630 C 0.58966 0.58443 0.24548 0.0
H631 H 0.55966 0.66824 0.26211 0.0
H632 H 0.57753 0.64498 0.24307 0.0
H633 H 0.54257 0.63849 0.24865 0.0
H634 H 0.53005 0.57321 0.27626 0.0
H635 H 0.52179 0.54376 0.23424 0.0
H636 H 0.86801 0.09194 0.91937 0.0
H637 H 0.88684 0.08151 0.87263 0.0
H638 H 0.80427 0.08094 0.81886 0.0
H639 H 0.78523 0.09138 0.86553 0.0
H640 H 0.87795 0.03806 0.83654 0.0
H641 H 0.84349 0.13714 0.76298 0.0
H642 H 0.8435 0.13069 0.80574 0.0
H643 H 0.81615 0.11803 0.77833 0.0
C644 C 0.85383 0.08932 0.8977 0.0
C645 C 0.82512 0.09267 0.89605 0.0
C646 C 0.86464 0.08342 0.87102 0.0
C647 C 0.84697 0.08085 0.84221 0.0
C648 C 0.81828 0.0834 0.84072 0.0
H649 H 0.87078 0.06345 0.65015 0.0
H650 H 0.8526 0.06188 0.70046 0.0
C651 C 0.80744 0.08941 0.86735 0.0
C652 C 0.85863 0.07625 0.81344 0.0
H653 H 0.86232 0.10456 0.73658 0.0
C654 C 0.8746 0.05257 0.81465 0.0
C655 C 0.85437 0.09536 0.78509 0.0
C656 C 0.83868 0.12186 0.78293 0.0
C657 C 0.88593 0.04721 0.78788 0.0
C658 C 0.88135 0.06619 0.75943 0.0
C659 C 0.86556 0.08992 0.75837 0.0
C660 C 0.89279 0.06231 0.73029 0.0
C661 C 0.90228 0.02115 0.79002 0.0
C662 C 0.92147 0.06232 0.73056 0.0
C663 C 0.93192 0.06321 0.70177 0.0
C664 C 0.91379 0.06442 0.67234 0.0
C665 C 0.88518 0.06289 0.67245 0.0
C666 C 0.87479 0.06189 0.70115 0.0
H667 H 0.89818 0.00586 0.81032 0.0
H668 H 0.89739 0.01212 0.76735 0.0
H669 H 0.92468 0.02565 0.79395 0.0
H670 H 0.93569 0.06312 0.75273 0.0
H671 H 0.95404 0.06461 0.70233 0.0
H672 H 0.41432 0.38829 0.34193 0.0
H673 H 0.42921 0.4123 0.29375 0.0
H674 H 0.42026 0.33884 0.24965 0.0
H675 H 0.40542 0.31455 0.29794 0.0
H676 H 0.4745 0.40053 0.26737 0.0
H677 H 0.37805 0.39524 0.17968 0.0
H678 H 0.37904 0.38787 0.2226 0.0
H679 H 0.39104 0.36284 0.20106 0.0
C680 C 0.41559 0.37717 0.32204 0.0
C681 C 0.40872 0.34946 0.32382 0.0
C682 C 0.42394 0.39099 0.29444 0.0
C683 C 0.42546 0.37748 0.26794 0.0
C684 C 0.41861 0.34984 0.26953 0.0
H685 H 0.48487 0.42476 0.08776 0.0
H686 H 0.46815 0.40041 0.13456 0.0
C687 C 0.41019 0.33597 0.29717 0.0
C688 C 0.4355 0.39214 0.23935 0.0
H689 H 0.41763 0.4124 0.15851 0.0
C690 C 0.46201 0.40324 0.2436 0.0
C691 C 0.41918 0.39556 0.20835 0.0
C692 C 0.39014 0.38497 0.20257 0.0
C693 C 0.47279 0.41743 0.21765 0.0
C694 C 0.4565 0.42096 0.18669 0.0
C695 C 0.43003 0.40973 0.18233 0.0
C696 C 0.46669 0.43599 0.15842 0.0
C697 C 0.50172 0.42809 0.22345 0.0
C698 C 0.47131 0.46413 0.15623 0.0
C699 C 0.48026 0.47826 0.12903 0.0
C700 C 0.48477 0.46444 0.1036 0.0
C701 C 0.48068 0.43617 0.10632 0.0
C702 C 0.47141 0.42215 0.13324 0.0
H703 H 0.51352 0.41887 0.24701 0.0
H704 H 0.51311 0.42388 0.20413 0.0
H705 H 0.50063 0.45046 0.22328 0.0
H706 H 0.46765 0.47522 0.17537 0.0
H707 H 0.48336 0.50001 0.12779 0.0
H708 H 0.1649 0.87629 0.85883 0.0
H709 H 0.13967 0.88895 0.80425 0.0
H710 H 0.14234 0.9736 0.8177 0.0
H711 H 0.16807 0.96113 0.87231 0.0
H712 H 0.08791 0.91876 0.7846 0.0
H713 H 0.17496 0.97085 0.73378 0.0
H714 H 0.1801 0.94789 0.7712 0.0
H715 H 0.16722 0.98195 0.76982 0.0
C716 C 0.16032 0.89764 0.85009 0.0
C717 C 0.16869 0.91775 0.86975 0.0
C718 C 0.14577 0.9048 0.819 0.0
C719 C 0.13948 0.9322 0.80687 0.0
C720 C 0.14736 0.95235 0.82654 0.0
H721 H 0.06031 0.01693 0.62423 0.0
H722 H 0.08446 0.00328 0.67883 0.0
C723 C 0.16183 0.94519 0.85777 0.0
C724 C 0.12455 0.93956 0.77363 0.0
H725 H 0.13156 0.97289 0.69975 0.0
C726 C 0.09741 0.93054 0.76597 0.0
C727 C 0.1371 0.95489 0.7495 0.0
C728 C 0.16652 0.96433 0.75626 0.0
C729 C 0.0822 0.93695 0.73486 0.0
C730 C 0.09477 0.95222 0.71064 0.0
C731 C 0.12199 0.96113 0.71834 0.0
C732 C 0.07981 0.96002 0.67741 0.0
C733 C 0.05259 0.92797 0.72849 0.0
C734 C 0.06925 0.9402 0.65832 0.0
C735 C 0.05505 0.94796 0.62707 0.0
C736 C 0.05167 0.97565 0.61416 0.0
C737 C 0.06253 0.99539 0.63331 0.0
C738 C 0.07644 0.98765 0.66456 0.0
H739 H 0.04397 0.92291 0.75111 0.0
H740 H 0.03929 0.94404 0.71245 0.0
H741 H 0.05164 0.90942 0.71649 0.0
H742 H 0.07206 0.91873 0.66753 0.0
H743 H 0.04668 0.93227 0.61316 0.0
loop_
_geom_bond_atom_site_label_1
_geom_bond_atom_site_label_2
_geom_bond_distance
_geom_bond_site_symmetry_2
_ccdc_geom_bond_type
C0 C1 1.384 . S
C0 H13 0.947 . S
C0 C35 1.382 . S
C1 C0 1.384 . S
C1 C2 1.378 . S
C2 C1 1.378 . S
C2 C3 1.378 . S
C2 H14 0.952 . S
C3 C2 1.378 . S
C3 H15 0.950 . S
C3 C34 1.383 . S
H4 C23 0.947 . S
H5 C24 0.946 . S
H6 C26 0.953 1_556 S
H7 C27 0.945 . S
H8 C29 0.952 . S
H9 C30 0.949 . S
H10 C32 0.950 . S
H11 C33 0.948 . S
H12 C35 0.951 . S
H13 C0 0.947 . S
H14 C2 0.952 . S
H15 C3 0.950 . S
N16 C19 1.382 . S
N16 C21 1.363 . S
N17 C19 1.371 1_556 S
N17 C20 1.372 . S
N18 C20 1.361 1_554 S
N18 C21 1.377 . S
C19 N16 1.382 . S
C19 N17 1.371 1_554 S
C19 C22 1.480 . S
C20 N17 1.372 . S
C20 N18 1.361 1_556 S
C20 C28 1.457 . S
C21 N16 1.363 . S
C21 N18 1.377 . S
C21 C34 1.479 . S
C22 C19 1.480 . S
C22 C23 1.383 . S
C22 C27 1.385 1_554 S
C23 H4 0.947 . S
C23 C22 1.383 . S
C23 C24 1.388 . S
C24 H5 0.946 . S
C24 C23 1.388 . S
C24 C25 1.384 . S
C25 C24 1.384 . S
C25 C26 1.377 . S
C26 H6 0.953 1_554 S
C26 C25 1.377 . S
C26 C27 1.369 1_554 S
C27 H7 0.945 . S
C27 C22 1.385 1_556 S
C27 C26 1.369 1_556 S
C28 C20 1.457 . S
C28 C29 1.372 . S
C28 C33 1.364 . S
C29 H8 0.952 . S
C29 C28 1.372 . S
C29 C30 1.389 . S
C30 H9 0.949 . S
C30 C29 1.389 . S
C30 C31 1.387 . S
C31 C30 1.387 . S
C31 C32 1.372 . S
C32 H10 0.950 . S
C32 C31 1.372 . S
C32 C33 1.379 . S
C33 H11 0.948 . S
C33 C28 1.364 . S
C33 C32 1.379 . S
C34 C3 1.383 . S
C34 C21 1.479 . S
C34 C35 1.398 . S
C35 C0 1.382 . S
C35 H12 0.951 . S
C35 C34 1.398 . S
C36 C37 1.384 . S
C36 H49 0.947 . S
C36 C71 1.382 . S
C37 C36 1.384 . S
C37 C38 1.378 . S
C38 C37 1.378 . S
C38 C39 1.378 . S
C38 H50 0.952 . S
C39 C38 1.378 . S
C39 H51 0.950 . S
C39 C70 1.383 . S
H40 C59 0.947 . S
H41 C60 0.946 . S
H42 C62 0.953 . S
H43 C63 0.945 . S
H44 C65 0.952 . S
H45 C66 0.949 . S
H46 C68 0.950 . S
H47 C69 0.948 . S
H48 C71 0.951 . S
H49 C36 0.947 . S
H50 C38 0.952 . S
H51 C39 0.950 . S
N52 C55 1.382 . S
N52 C57 1.363 . S
N53 C55 1.371 . S
N53 C56 1.372 . S
N54 C56 1.361 . S
N54 C57 1.377 . S
C55 N52 1.382 . S
C55 N53 1.371 . S
C55 C58 1.480 . S
C56 N53 1.372 . S
C56 N54 1.361 . S
C56 C64 1.457 . S
C57 N52 1.363 . S
C57 N54 1.377 . S
C57 C70 1.479 . S
C58 C55 1.480 . S
C58 C59 1.383 . S
C58 C63 1.385 . S
C59 H40 0.947 . S
C59 C58 1.383 . S
C59 C60 1.388 . S
C60 H41 0.946 . S
C60 C59 1.388 . S
C60 C61 1.384 . S
C61 C60 1.384 . S
C61 C62 1.377 . S
C62 H42 0.953 . S
C62 C61 1.377 . S
C62 C63 1.369 . S
C63 H43 0.945 . S
C63 C58 1.385 . S
C63 C62 1.369 . S
C64 C56 1.457 . S
C64 C65 1.372 . S
C64 C69 1.364 . S
C65 H44 0.952 . S
C65 C64 1.372 . S
C65 C66 1.389 . S
C66 H45 0.949 . S
C66 C65 1.389 . S
C66 C67 1.387 . S
C67 C66 1.387 . S
C67 C68 1.372 . S
C68 H46 0.950 . S
C68 C67 1.372 . S
C68 C69 1.379 . S
C69 H47 0.948 . S
C69 C64 1.364 . S
C69 C68 1.379 . S
C70 C39 1.383 . S
C70 C57 1.479 . S
C70 C71 1.398 . S
C71 C36 1.382 . S
C71 H48 0.951 . S
C71 C70 1.398 . S
C72 C73 1.384 . S
C72 H85 0.947 . S
C72 C107 1.382 . S
C73 C72 1.384 . S
C73 C74 1.378 . S
C74 C73 1.378 . S
C74 C75 1.378 . S
C74 H86 0.952 . S
C75 C74 1.378 . S
C75 H87 0.950 . S
C75 C106 1.383 . S
H76 C95 0.947 . S
H77 C96 0.946 . S
H78 C98 0.953 . S
H79 C99 0.945 . S
H80 C101 0.952 . S
H81 C102 0.949 . S
H82 C104 0.950 . S
H83 C105 0.948 . S
H84 C107 0.951 . S
H85 C72 0.947 . S
H86 C74 0.952 . S
H87 C75 0.950 . S
N88 C91 1.382 1_556 S
N88 C93 1.362 . S
N89 C91 1.371 . S
N89 C92 1.372 . S
N90 C92 1.361 . S
N90 C93 1.368 1_554 S
C91 N88 1.382 1_554 S
C91 N89 1.371 . S
C91 C94 1.480 . S
C92 N89 1.372 . S
C92 N90 1.361 . S
C92 C100 1.457 . S
C93 N88 1.362 . S
C93 N90 1.368 1_556 S
C93 C106 1.489 . S
C94 C91 1.480 . S
C94 C95 1.383 1_554 S
C94 C99 1.385 . S
C95 H76 0.947 . S
C95 C94 1.383 1_556 S
C95 C96 1.388 . S
C96 H77 0.946 . S
C96 C95 1.388 . S
C96 C97 1.384 1_556 S
C97 C96 1.384 1_554 S
C97 C98 1.377 . S
C98 H78 0.953 . S
C98 C97 1.377 . S
C98 C99 1.369 . S
C99 H79 0.945 . S
C99 C94 1.385 . S
C99 C98 1.369 . S
C100 C92 1.457 . S
C100 C101 1.372 . S
C100 C105 1.364 . S
C101 H80 0.952 . S
C101 C100 1.372 . S
C101 C102 1.389 . S
C102 H81 0.949 . S
C102 C101 1.389 . S
C102 C103 1.387 . S
C103 C102 1.387 . S
C103 C104 1.372 . S
C104 H82 0.950 . S
C104 C103 1.372 . S
C104 C105 1.379 . S
C105 H83 0.948 . S
C105 C100 1.364 . S
C105 C104 1.379 . S
C106 C75 1.383 . S
C106 C93 1.489 . S
C106 C107 1.398 . S
C107 C72 1.382 . S
C107 H84 0.951 . S
C107 C106 1.398 . S
C108 C109 1.384 . S
C108 H121 0.947 . S
C108 C143 1.382 . S
C109 C108 1.384 . S
C109 C110 1.378 . S
C110 C109 1.378 . S
C110 C111 1.378 . S
C110 H122 0.952 . S
C111 C110 1.378 . S
C111 H123 0.950 . S
C111 C142 1.383 . S
H112 C131 0.947 . S
H113 C132 0.946 . S
H114 C134 0.953 . S
H115 C135 0.945 . S
H116 C137 0.952 . S
H117 C138 0.949 . S
H118 C140 0.950 . S
H119 C141 0.948 . S
H120 C143 0.951 . S
H121 C108 0.947 . S
H122 C110 0.952 . S
H123 C111 0.950 . S
N124 C127 1.382 . S
N124 C129 1.363 . S
N125 C127 1.371 . S
N125 C128 1.372 . S
N126 C128 1.361 . S
N126 C129 1.377 . S
C127 N124 1.382 . S
C127 N125 1.371 . S
C127 C130 1.480 . S
C128 N125 1.372 . S
C128 N126 1.361 . S
C128 C136 1.457 . S
C129 N124 1.363 . S
C129 N126 1.377 . S
C129 C142 1.479 . S
C130 C127 1.480 . S
C130 C131 1.383 . S
C130 C135 1.385 . S
C131 H112 0.947 . S
C131 C130 1.383 . S
C131 C132 1.388 . S
C132 H113 0.946 . S
C132 C131 1.388 . S
C132 C133 1.384 . S
C133 C132 1.384 . S
C133 C134 1.377 . S
C134 H114 0.953 . S
C134 C133 1.377 . S
C134 C135 1.369 . S
C135 H115 0.945 . S
C135 C130 1.385 . S
C135 C134 1.369 . S
C136 C128 1.457 . S
C136 C137 1.372 . S
C136 C141 1.364 . S
C137 H116 0.952 . S
C137 C136 1.372 . S
C137 C138 1.389 . S
C138 H117 0.949 . S
C138 C137 1.389 . S
C138 C139 1.387 . S
C139 C138 1.387 . S
C139 C140 1.372 . S
C140 H118 0.950 . S
C140 C139 1.372 . S
C140 C141 1.379 . S
C141 H119 0.948 . S
C141 C136 1.364 . S
C141 C140 1.379 . S
C142 C111 1.383 . S
C142 C129 1.479 . S
C142 C143 1.398 . S
C143 C108 1.382 . S
C143 H120 0.951 . S
C143 C142 1.398 . S
C144 C146 1.422 . S
C144 C148 1.415 . S
C144 N150 1.369 . S
C145 C146 1.421 . S
C145 C147 1.417 . S
C145 C157 1.422 . S
C146 C144 1.422 . S
C146 C145 1.421 . S
C146 N156 1.359 . S
C147 C145 1.417 . S
C147 C149 1.329 . S
C147 H166 0.930 . S
C148 C144 1.415 . S
C148 C149 1.437 . S
C148 C152 1.413 . S
C149 C147 1.329 . S
C149 C148 1.437 . S
C149 H171 0.929 . S
N150 C144 1.369 . S
N150 C151 1.338 1_655 S
N150 Gd155 2.622 . S
C151 N150 1.338 1_455 S
C151 C153 1.378 1_455 S
C151 H163 0.929 . S
C152 C148 1.413 . S
C152 C153 1.351 . S
C152 H168 0.931 . S
C153 C151 1.378 1_655 S
C153 C152 1.351 . S
C153 H169 0.926 1_655 S
Gd154 N174 2.622 . S
Gd154 N181 2.570 . S
Gd154 O188 2.353 1_455 S
Gd154 O189 2.468 . S
Gd154 O190 2.427 . S
Gd154 O192 2.388 1_455 S
Gd154 O193 2.386 . S
Gd154 O197 2.307 1_565 S
Gd154 C207 2.805 . S
Gd155 N150 2.622 . S
Gd155 N156 2.570 . S
Gd155 O187 2.386 . S
Gd155 O191 2.307 1_545 S
Gd155 O194 2.353 1_655 S
Gd155 O195 2.468 . S
Gd155 O196 2.427 . S
Gd155 O198 2.388 1_655 S
Gd155 C219 2.805 . S
N156 C146 1.359 . S
N156 Gd155 2.570 . S
N156 C158 1.343 . S
C157 C145 1.422 . S
C157 C159 1.321 . S
C157 H165 0.931 . S
C158 N156 1.343 . S
C158 C159 1.390 . S
C158 H160 0.931 . S
C159 C157 1.321 . S
C159 C158 1.390 . S
C159 H161 0.930 . S
H160 C158 0.931 . S
H161 C159 0.930 . S
H162 C185 0.931 . S
H163 C151 0.929 . S
H164 C186 0.930 . S
H165 C157 0.931 . S
H166 C147 0.930 . S
H167 C176 0.929 1_655 S
H168 C152 0.931 . S
H169 C153 0.926 1_455 S
H170 C208 0.930 . S
H171 C149 0.929 . S
H172 C177 0.931 . S
H173 C178 0.930 1_655 S
N174 Gd154 2.622 . S
N174 C175 1.369 . S
N174 C176 1.338 . S
C175 N174 1.369 . S
C175 C179 1.415 . S
C175 C182 1.422 . S
C176 H167 0.929 1_455 S
C176 N174 1.338 . S
C176 C178 1.378 . S
C177 H172 0.931 . S
C177 C178 1.348 . S
C177 C179 1.413 . S
C178 H173 0.930 1_455 S
C178 C176 1.378 . S
C178 C177 1.348 . S
C179 C175 1.415 . S
C179 C177 1.413 . S
C179 C209 1.437 . S
H180 C209 0.929 . S
N181 Gd154 2.570 . S
N181 C182 1.359 . S
N181 C185 1.343 . S
C182 C175 1.422 . S
C182 N181 1.359 . S
C182 C184 1.421 . S
C183 C184 1.422 . S
C183 C186 1.321 . S
C183 H210 0.931 . S
C184 C182 1.421 . S
C184 C183 1.422 . S
C184 C208 1.417 . S
C185 H162 0.931 . S
C185 N181 1.343 . S
C185 C186 1.390 . S
C186 H164 0.930 . S
C186 C183 1.321 . S
C186 C185 1.390 . S
O187 Gd155 2.386 . S
O187 C199 1.265 . S
O188 Gd154 2.353 1_655 S
O188 C199 1.242 1_565 S
O189 Gd154 2.468 . S
O189 C207 1.263 . S
O190 Gd154 2.427 . S
O190 C207 1.252 . S
O191 Gd155 2.307 1_565 S
O191 C200 1.261 . S
O192 Gd154 2.388 1_655 S
O192 C200 1.252 . S
O193 Gd154 2.386 . S
O193 C211 1.265 . S
O194 Gd155 2.353 1_455 S
O194 C211 1.242 1_545 S
O195 Gd155 2.468 . S
O195 C219 1.263 . S
O196 Gd155 2.427 . S
O196 C219 1.252 . S
O197 Gd154 2.307 1_545 S
O197 C212 1.261 . S
O198 Gd155 2.388 1_455 S
O198 C212 1.252 . S
C199 O187 1.265 . S
C199 O188 1.242 1_545 S
C200 O191 1.261 . S
C200 O192 1.252 . S
C201 C204 1.394 . S
C201 C206 1.370 . S
C201 C207 1.500 . S
C202 C205 1.383 . S
C202 C206 1.395 . S
C203 C204 1.396 . S
C203 C205 1.365 . S
C203 H220 0.929 . S
C204 C201 1.394 . S
C204 C203 1.396 . S
C204 H221 0.930 . S
C205 C202 1.383 . S
C205 C203 1.365 . S
C205 H222 0.931 . S
C206 C201 1.370 . S
C206 C202 1.395 . S
C206 H223 0.930 . S
C207 Gd154 2.805 . S
C207 O189 1.263 . S
C207 O190 1.252 . S
C207 C201 1.500 . S
C208 H170 0.930 . S
C208 C184 1.417 . S
C208 C209 1.329 . S
C209 C179 1.437 . S
C209 H180 0.929 . S
C209 C208 1.329 . S
H210 C183 0.931 . S
C211 O193 1.265 . S
C211 O194 1.242 1_565 S
C212 O197 1.261 . S
C212 O198 1.252 . S
C213 C216 1.394 . S
C213 C218 1.370 . S
C213 C219 1.500 . S
C214 C217 1.383 . S
C214 C218 1.395 . S
C215 C216 1.396 . S
C215 C217 1.365 . S
C215 H224 0.929 . S
C216 C213 1.394 . S
C216 C215 1.396 . S
C216 H225 0.930 . S
C217 C214 1.383 . S
C217 C215 1.365 . S
C217 H226 0.931 . S
C218 C213 1.370 . S
C218 C214 1.395 . S
C218 H227 0.930 . S
C219 Gd155 2.805 . S
C219 O195 1.263 . S
C219 O196 1.252 . S
C219 C213 1.500 . S
H220 C203 0.929 . S
H221 C204 0.930 . S
H222 C205 0.931 . S
H223 C206 0.930 . S
H224 C215 0.929 . S
H225 C216 0.930 . S
H226 C217 0.931 . S
H227 C218 0.930 . S
C228 C230 1.422 . S
C228 C232 1.415 . S
C228 N234 1.369 . S
C229 C230 1.421 . S
C229 C231 1.417 . S
C229 C241 1.422 . S
C230 C228 1.422 . S
C230 C229 1.421 . S
C230 N240 1.359 . S
C231 C229 1.417 . S
C231 C233 1.329 . S
C231 H250 0.930 . S
C232 C228 1.415 . S
C232 C233 1.437 . S
C232 C236 1.413 . S
C233 C231 1.329 . S
C233 C232 1.437 . S
C233 H255 0.929 . S
N234 C228 1.369 . S
N234 C235 1.338 . S
N234 Gd239 2.622 . S
C235 N234 1.338 . S
C235 C237 1.378 . S
C235 H247 0.929 . S
C236 C232 1.413 . S
C236 C237 1.348 . S
C236 H252 0.931 . S
C237 C235 1.378 . S
C237 C236 1.348 . S
C237 H253 0.930 . S
Gd238 N258 2.622 . S
Gd238 N265 2.570 1_556 S
Gd238 O272 2.353 . S
Gd238 O273 2.468 . S
Gd238 O274 2.427 . S
Gd238 O276 2.388 . S
Gd238 O277 2.386 1_556 S
Gd238 O281 2.307 1_556 S
Gd238 C291 2.805 . S
Gd239 N234 2.622 . S
Gd239 N240 2.570 . S
Gd239 O271 2.386 1_554 S
Gd239 O275 2.307 . S
Gd239 O278 2.353 . S
Gd239 O279 2.468 . S
Gd239 O280 2.427 . S
Gd239 O282 2.388 . S
Gd239 C303 2.805 . S
N240 C230 1.359 . S
N240 Gd239 2.570 . S
N240 C242 1.343 . S
C241 C229 1.422 . S
C241 C243 1.321 . S
C241 H249 0.931 . S
C242 N240 1.343 . S
C242 C243 1.390 . S
C242 H244 0.931 . S
C243 C241 1.321 . S
C243 C242 1.390 . S
C243 H245 0.930 . S
H244 C242 0.931 . S
H245 C243 0.930 . S
H246 C269 0.931 . S
H247 C235 0.929 . S
H248 C270 0.930 . S
H249 C241 0.931 . S
H250 C231 0.930 . S
H251 C260 0.929 . S
H252 C236 0.931 . S
H253 C237 0.930 . S
H254 C292 0.930 . S
H255 C233 0.929 . S
H256 C261 0.931 . S
H257 C262 0.930 . S
N258 Gd238 2.622 . S
N258 C259 1.369 1_556 S
N258 C260 1.338 . S
C259 N258 1.369 1_554 S
C259 C263 1.415 . S
C259 C266 1.422 . S
C260 H251 0.929 . S
C260 N258 1.338 . S
C260 C262 1.378 . S
C261 H256 0.931 . S
C261 C262 1.348 1_554 S
C261 C263 1.413 . S
C262 H257 0.930 . S
C262 C260 1.378 . S
C262 C261 1.348 1_556 S
C263 C259 1.415 . S
C263 C261 1.413 . S
C263 C293 1.437 . S
H264 C293 0.929 . S
N265 Gd238 2.570 1_554 S
N265 C266 1.359 . S
N265 C269 1.343 . S
C266 C259 1.422 . S
C266 N265 1.359 . S
C266 C268 1.421 . S
C267 C268 1.422 . S
C267 C270 1.321 . S
C267 H294 0.931 . S
C268 C266 1.421 . S
C268 C267 1.422 . S
C268 C292 1.417 . S
C269 H246 0.931 . S
C269 N265 1.343 . S
C269 C270 1.390 . S
C270 H248 0.930 . S
C270 C267 1.321 . S
C270 C269 1.390 . S
O271 Gd239 2.386 1_556 S
O271 C283 1.265 . S
O272 Gd238 2.353 . S
O272 C283 1.242 . S
O273 Gd238 2.468 . S
O273 C291 1.263 . S
O274 Gd238 2.427 . S
O274 C291 1.252 . S
O275 Gd239 2.307 . S
O275 C284 1.261 . S
O276 Gd238 2.388 . S
O276 C284 1.252 1_556 S
O277 Gd238 2.386 1_554 S
O277 C295 1.265 . S
O278 Gd239 2.353 . S
O278 C295 1.242 . S
O279 Gd239 2.468 . S
O279 C303 1.263 . S
O280 Gd239 2.427 . S
O280 C303 1.252 . S
O281 Gd238 2.307 1_554 S
O281 C296 1.261 . S
O282 Gd239 2.388 . S
O282 C296 1.252 . S
C283 O271 1.265 . S
C283 O272 1.242 . S
C284 O275 1.261 . S
C284 O276 1.252 1_554 S
C285 C288 1.394 . S
C285 C290 1.370 . S
C285 C291 1.500 . S
C286 C289 1.383 . S
C286 C290 1.395 . S
C287 C288 1.396 . S
C287 C289 1.365 . S
C287 H304 0.929 . S
C288 C285 1.394 . S
C288 C287 1.396 . S
C288 H305 0.930 . S
C289 C286 1.383 . S
C289 C287 1.365 . S
C289 H306 0.931 . S
C290 C285 1.370 . S
C290 C286 1.395 . S
C290 H307 0.930 . S
C291 Gd238 2.805 . S
C291 O273 1.263 . S
C291 O274 1.252 . S
C291 C285 1.500 . S
C292 H254 0.930 . S
C292 C268 1.417 . S
C292 C293 1.329 . S
C293 C263 1.437 . S
C293 H264 0.929 . S
C293 C292 1.329 . S
H294 C267 0.931 . S
C295 O277 1.265 . S
C295 O278 1.242 . S
C296 O281 1.261 . S
C296 O282 1.252 . S
C297 C300 1.394 . S
C297 C302 1.370 . S
C297 C303 1.500 . S
C298 C301 1.383 . S
C298 C302 1.395 . S
C299 C300 1.396 . S
C299 C301 1.365 . S
C299 H308 0.929 . S
C300 C297 1.394 . S
C300 C299 1.396 . S
C300 H309 0.930 . S
C301 C298 1.383 . S
C301 C299 1.365 . S
C301 H310 0.931 . S
C302 C297 1.370 . S
C302 C298 1.395 . S
C302 H311 0.930 . S
C303 Gd239 2.805 . S
C303 O279 1.263 . S
C303 O280 1.252 . S
C303 C297 1.500 . S
H304 C287 0.929 . S
H305 C288 0.930 . S
H306 C289 0.931 . S
H307 C290 0.930 . S
H308 C299 0.929 . S
H309 C300 0.930 . S
H310 C301 0.931 . S
H311 C302 0.930 . S
H312 C320 0.929 . S
H313 C322 0.930 . S
H314 C324 0.930 . S
H315 C327 0.929 . S
H316 C330 0.930 . S
H317 C332 0.960 . S
H318 C332 0.960 . S
H319 C332 0.960 . S
C320 H312 0.929 . S
C320 C321 1.377 . S
C320 C322 1.384 . S
C321 C320 1.377 . S
C321 C327 1.390 . S
C322 H313 0.930 . S
C322 C320 1.384 . S
C322 C323 1.372 . S
C323 C322 1.372 . S
C323 C324 1.400 . S
C323 C328 1.490 . S
C324 H314 0.930 . S
C324 C323 1.400 . S
C324 C327 1.386 . S
H325 C341 0.930 . S
H326 C342 0.931 . S
C327 H315 0.929 . S
C327 C321 1.390 . S
C327 C324 1.386 . S
C328 C323 1.490 . S
C328 C330 1.395 . S
C328 C331 1.403 . S
H329 C335 0.930 . S
C330 H316 0.930 . S
C330 C328 1.395 . S
C330 C333 1.403 . S
C331 C328 1.403 . S
C331 C332 1.524 . S
C331 C335 1.400 . S
C332 H317 0.960 . S
C332 H318 0.960 . S
C332 H319 0.960 . S
C332 C331 1.524 . S
C333 C330 1.403 . S
C333 C334 1.392 . S
C333 C337 1.495 . S
C334 C333 1.392 . S
C334 C335 1.385 . S
C334 C336 1.478 . S
C335 H329 0.930 . S
C335 C331 1.400 . S
C335 C334 1.385 . S
C336 C334 1.478 . S
C336 C338 1.381 . S
C336 C342 1.383 . S
C337 C333 1.495 . S
C337 H343 0.959 . S
C337 H344 0.961 . S
C337 H345 0.960 . S
C338 C336 1.381 . S
C338 C339 1.394 . S
C338 H346 0.930 . S
C339 C338 1.394 . S
C339 C340 1.383 . S
C339 H347 0.929 . S
C340 C339 1.383 . S
C340 C341 1.377 . S
C341 H325 0.930 . S
C341 C340 1.377 . S
C341 C342 1.379 . S
C342 H326 0.931 . S
C342 C336 1.383 . S
C342 C341 1.379 . S
H343 C337 0.959 . S
H344 C337 0.961 . S
H345 C337 0.960 . S
H346 C338 0.930 . S
H347 C339 0.929 . S
H348 C356 0.929 . S
H349 C358 0.930 . S
H350 C360 0.930 . S
H351 C363 0.929 . S
H352 C366 0.930 . S
H353 C368 0.960 . S
H354 C368 0.960 . S
H355 C368 0.960 . S
C356 H348 0.929 . S
C356 C357 1.377 . S
C356 C358 1.384 . S
C357 C356 1.377 . S
C357 C363 1.390 . S
C358 H349 0.930 . S
C358 C356 1.384 . S
C358 C359 1.372 . S
C359 C358 1.372 . S
C359 C360 1.400 . S
C359 C364 1.490 . S
C360 H350 0.930 . S
C360 C359 1.400 . S
C360 C363 1.386 . S
H361 C377 0.930 . S
H362 C378 0.931 . S
C363 H351 0.929 . S
C363 C357 1.390 . S
C363 C360 1.386 . S
C364 C359 1.490 . S
C364 C366 1.395 . S
C364 C367 1.403 . S
H365 C371 0.930 1_556 S
C366 H352 0.930 . S
C366 C364 1.395 . S
C366 C369 1.403 . S
C367 C364 1.403 . S
C367 C368 1.524 1_554 S
C367 C371 1.400 . S
C368 H353 0.960 . S
C368 H354 0.960 . S
C368 H355 0.960 . S
C368 C367 1.524 1_556 S
C369 C366 1.403 . S
C369 C370 1.392 . S
C369 C373 1.495 . S
C370 C369 1.392 . S
C370 C371 1.385 . S
C370 C372 1.478 . S
C371 H365 0.930 1_554 S
C371 C367 1.400 . S
C371 C370 1.385 . S
C372 C370 1.478 . S
C372 C374 1.381 . S
C372 C378 1.383 . S
C373 C369 1.495 . S
C373 H379 0.959 . S
C373 H380 0.961 . S
C373 H381 0.960 . S
C374 C372 1.381 . S
C374 C375 1.394 . S
C374 H382 0.930 . S
C375 C374 1.394 . S
C375 C376 1.383 . S
C375 H383 0.929 . S
C376 C375 1.383 . S
C376 C377 1.377 . S
C377 H361 0.930 . S
C377 C376 1.377 . S
C377 C378 1.379 . S
C378 H362 0.931 . S
C378 C372 1.383 . S
C378 C377 1.379 . S
H379 C373 0.959 . S
H380 C373 0.961 . S
H381 C373 0.960 . S
H382 C374 0.930 . S
H383 C375 0.929 . S
H384 C392 0.929 . S
H385 C394 0.930 . S
H386 C396 0.930 . S
H387 C399 0.929 . S
H388 C402 0.930 . S
H389 C404 0.960 . S
H390 C404 0.960 . S
H391 C404 0.960 . S
C392 H384 0.929 . S
C392 C393 1.377 . S
C392 C394 1.384 . S
C393 C392 1.377 . S
C393 C399 1.390 . S
C394 H385 0.930 . S
C394 C392 1.384 . S
C394 C395 1.372 . S
C395 C394 1.372 . S
C395 C396 1.400 . S
C395 C400 1.490 . S
C396 H386 0.930 . S
C396 C395 1.400 . S
C396 C399 1.386 . S
H397 C413 0.930 . S
H398 C414 0.931 . S
C399 H387 0.929 . S
C399 C393 1.390 . S
C399 C396 1.386 . S
C400 C395 1.490 . S
C400 C402 1.395 . S
C400 C403 1.403 . S
H401 C407 0.930 . S
C402 H388 0.930 . S
C402 C400 1.395 . S
C402 C405 1.403 . S
C403 C400 1.403 . S
C403 C404 1.524 . S
C403 C407 1.400 . S
C404 H389 0.960 . S
C404 H390 0.960 . S
C404 H391 0.960 . S
C404 C403 1.524 . S
C405 C402 1.403 . S
C405 C406 1.392 . S
C405 C409 1.495 . S
C406 C405 1.392 . S
C406 C407 1.385 . S
C406 C408 1.478 . S
C407 H401 0.930 . S
C407 C403 1.400 . S
C407 C406 1.385 . S
C408 C406 1.478 . S
C408 C410 1.381 . S
C408 C414 1.383 . S
C409 C405 1.495 . S
C409 H415 0.959 . S
C409 H416 0.961 . S
C409 H417 0.960 . S
C410 C408 1.381 . S
C410 C411 1.394 . S
C410 H418 0.930 . S
C411 C410 1.394 . S
C411 C412 1.383 . S
C411 H419 0.929 . S
C412 C411 1.383 . S
C412 C413 1.377 . S
C413 H397 0.930 . S
C413 C412 1.377 . S
C413 C414 1.379 . S
C414 H398 0.931 . S
C414 C408 1.383 . S
C414 C413 1.379 . S
H415 C409 0.959 . S
H416 C409 0.961 . S
H417 C409 0.960 . S
H418 C410 0.930 . S
H419 C411 0.929 . S
H420 C428 0.929 . S
H421 C430 0.930 . S
H422 C432 0.930 . S
H423 C435 0.929 . S
H424 C438 0.930 1_556 S
H425 C440 0.960 . S
H426 C440 0.960 . S
H427 C440 0.960 . S
C428 H420 0.929 . S
C428 C429 1.377 . S
C428 C430 1.384 . S
C429 C428 1.377 . S
C429 C435 1.390 1_554 S
C430 H421 0.930 . S
C430 C428 1.384 . S
C430 C431 1.372 . S
C431 C430 1.372 . S
C431 C432 1.400 1_554 S
C431 C436 1.490 . S
C432 H422 0.930 . S
C432 C431 1.400 1_556 S
C432 C435 1.386 . S
H433 C449 0.930 . S
H434 C450 0.931 . S
C435 H423 0.929 . S
C435 C429 1.390 1_556 S
C435 C432 1.386 . S
C436 C431 1.490 . S
C436 C438 1.395 . S
C436 C439 1.403 . S
H437 C443 0.930 . S
C438 H424 0.930 1_554 S
C438 C436 1.395 . S
C438 C441 1.403 . S
C439 C436 1.403 . S
C439 C440 1.524 . S
C439 C443 1.400 . S
C440 H425 0.960 . S
C440 H426 0.960 . S
C440 H427 0.960 . S
C440 C439 1.524 . S
C441 C438 1.403 . S
C441 C442 1.392 . S
C441 C445 1.495 1_554 S
C442 C441 1.392 . S
C442 C443 1.385 . S
C442 C444 1.478 . S
C443 H437 0.930 . S
C443 C439 1.400 . S
C443 C442 1.385 . S
C444 C442 1.478 . S
C444 C446 1.381 . S
C444 C450 1.383 1_554 S
C445 C441 1.495 1_556 S
C445 H451 0.959 . S
C445 H452 0.961 . S
C445 H453 0.960 1_556 S
C446 C444 1.381 . S
C446 C447 1.394 . S
C446 H454 0.930 . S
C447 C446 1.394 . S
C447 C448 1.383 . S
C447 H455 0.929 . S
C448 C447 1.383 . S
C448 C449 1.377 1_554 S
C449 H433 0.930 . S
C449 C448 1.377 1_556 S
C449 C450 1.379 . S
C450 H434 0.931 . S
C450 C444 1.383 1_556 S
C450 C449 1.379 . S
H451 C445 0.959 . S
H452 C445 0.961 . S
H453 C445 0.960 1_554 S
H454 C446 0.930 . S
H455 C447 0.929 . S
H456 C464 0.929 . S
H457 C466 0.930 . S
H458 C468 0.930 . S
H459 C471 0.929 . S
H460 C474 0.930 . S
H461 C476 0.960 . S
H462 C476 0.960 . S
H463 C476 0.960 . S
C464 H456 0.929 . S
C464 C465 1.377 . S
C464 C466 1.384 . S
C465 C464 1.377 . S
C465 C471 1.390 . S
C466 H457 0.930 . S
C466 C464 1.384 . S
C466 C467 1.372 . S
C467 C466 1.372 . S
C467 C468 1.400 . S
C467 C472 1.490 . S
C468 H458 0.930 . S
C468 C467 1.400 . S
C468 C471 1.386 . S
H469 C485 0.930 . S
H470 C486 0.931 . S
C471 H459 0.929 . S
C471 C465 1.390 . S
C471 C468 1.386 . S
C472 C467 1.490 . S
C472 C474 1.395 . S
C472 C475 1.403 . S
H473 C479 0.930 . S
C474 H460 0.930 . S
C474 C472 1.395 . S
C474 C477 1.403 . S
C475 C472 1.403 . S
C475 C476 1.524 . S
C475 C479 1.400 . S
C476 H461 0.960 . S
C476 H462 0.960 . S
C476 H463 0.960 . S
C476 C475 1.524 . S
C477 C474 1.403 . S
C477 C478 1.392 . S
C477 C481 1.495 . S
C478 C477 1.392 . S
C478 C479 1.385 . S
C478 C480 1.478 . S
C479 H473 0.930 . S
C479 C475 1.400 . S
C479 C478 1.385 . S
C480 C478 1.478 . S
C480 C482 1.381 . S
C480 C486 1.383 . S
C481 C477 1.495 . S
C481 H487 0.959 . S
C481 H488 0.961 . S
C481 H489 0.960 . S
C482 C480 1.381 . S
C482 C483 1.394 . S
C482 H490 0.930 . S
C483 C482 1.394 . S
C483 C484 1.383 . S
C483 H491 0.929 . S
C484 C483 1.383 . S
C484 C485 1.377 . S
C485 H469 0.930 . S
C485 C484 1.377 . S
C485 C486 1.379 . S
C486 H470 0.931 . S
C486 C480 1.383 . S
C486 C485 1.379 . S
H487 C481 0.959 . S
H488 C481 0.961 . S
H489 C481 0.960 . S
H490 C482 0.930 . S
H491 C483 0.929 . S
H492 C500 0.929 . S
H493 C502 0.930 . S
H494 C504 0.930 . S
H495 C507 0.929 . S
H496 C510 0.930 . S
H497 C512 0.960 . S
H498 C512 0.960 . S
H499 C512 0.960 . S
C500 H492 0.929 . S
C500 C501 1.377 . S
C500 C502 1.384 . S
C501 C500 1.377 . S
C501 C507 1.390 . S
C502 H493 0.930 . S
C502 C500 1.384 . S
C502 C503 1.372 . S
C503 C502 1.372 . S
C503 C504 1.400 . S
C503 C508 1.490 . S
C504 H494 0.930 . S
C504 C503 1.400 . S
C504 C507 1.386 . S
H505 C521 0.930 . S
H506 C522 0.931 . S
C507 H495 0.929 . S
C507 C501 1.390 . S
C507 C504 1.386 . S
C508 C503 1.490 . S
C508 C510 1.395 . S
C508 C511 1.403 . S
H509 C515 0.930 . S
C510 H496 0.930 . S
C510 C508 1.395 . S
C510 C513 1.403 . S
C511 C508 1.403 . S
C511 C512 1.524 . S
C511 C515 1.400 . S
C512 H497 0.960 . S
C512 H498 0.960 . S
C512 H499 0.960 . S
C512 C511 1.524 . S
C513 C510 1.403 . S
C513 C514 1.392 . S
C513 C517 1.495 . S
C514 C513 1.392 . S
C514 C515 1.385 . S
C514 C516 1.478 . S
C515 H509 0.930 . S
C515 C511 1.400 . S
C515 C514 1.385 . S
C516 C514 1.478 . S
C516 C518 1.381 . S
C516 C522 1.383 . S
C517 C513 1.495 . S
C517 H523 0.959 . S
C517 H524 0.961 . S
C517 H525 0.960 . S
C518 C516 1.381 . S
C518 C519 1.394 . S
C518 H526 0.930 . S
C519 C518 1.394 . S
C519 C520 1.383 . S
C519 H527 0.929 . S
C520 C519 1.383 . S
C520 C521 1.377 . S
C521 H505 0.930 . S
C521 C520 1.377 . S
C521 C522 1.379 . S
C522 H506 0.931 . S
C522 C516 1.383 . S
C522 C521 1.379 . S
H523 C517 0.959 . S
H524 C517 0.961 . S
H525 C517 0.960 . S
H526 C518 0.930 . S
H527 C519 0.929 . S
H528 C536 0.929 . S
H529 C538 0.930 . S
H530 C540 0.930 . S
H531 C543 0.929 . S
H532 C546 0.930 . S
H533 C548 0.960 . S
H534 C548 0.960 . S
H535 C548 0.960 . S
C536 H528 0.929 . S
C536 C537 1.377 . S
C536 C538 1.384 . S
C537 C536 1.377 . S
C537 C543 1.390 . S
C538 H529 0.930 . S
C538 C536 1.384 . S
C538 C539 1.372 . S
C539 C538 1.372 . S
C539 C540 1.400 . S
C539 C544 1.490 . S
C540 H530 0.930 . S
C540 C539 1.400 . S
C540 C543 1.386 . S
H541 C557 0.930 . S
H542 C558 0.931 . S
C543 H531 0.929 . S
C543 C537 1.390 . S
C543 C540 1.386 . S
C544 C539 1.490 . S
C544 C546 1.395 . S
C544 C547 1.403 . S
H545 C551 0.930 . S
C546 H532 0.930 . S
C546 C544 1.395 . S
C546 C549 1.403 . S
C547 C544 1.403 . S
C547 C548 1.524 . S
C547 C551 1.400 . S
C548 H533 0.960 . S
C548 H534 0.960 . S
C548 H535 0.960 . S
C548 C547 1.524 . S
C549 C546 1.403 . S
C549 C550 1.392 . S
C549 C553 1.495 . S
C550 C549 1.392 . S
C550 C551 1.385 . S
C550 C552 1.478 . S
C551 H545 0.930 . S
C551 C547 1.400 . S
C551 C550 1.385 . S
C552 C550 1.478 . S
C552 C554 1.381 . S
C552 C558 1.383 . S
C553 C549 1.495 . S
C553 H559 0.959 . S
C553 H560 0.961 . S
C553 H561 0.960 . S
C554 C552 1.381 . S
C554 C555 1.394 . S
C554 H562 0.930 . S
C555 C554 1.394 . S
C555 C556 1.383 . S
C555 H563 0.945 . S
C556 C555 1.383 . S
C556 C557 1.377 . S
C557 H541 0.930 . S
C557 C556 1.377 . S
C557 C558 1.379 . S
C558 H542 0.931 . S
C558 C552 1.383 . S
C558 C557 1.379 . S
H559 C553 0.959 . S
H560 C553 0.961 . S
H561 C553 0.960 . S
H562 C554 0.930 . S
H563 C555 0.945 . S
H564 C572 0.929 . S
H565 C574 0.930 . S
H566 C576 0.930 . S
H567 C579 0.929 . S
H568 C582 0.930 . S
H569 C584 0.960 . S
H570 C584 0.960 . S
H571 C584 0.960 . S
C572 H564 0.929 . S
C572 C573 1.377 . S
C572 C574 1.384 . S
C573 C572 1.377 . S
C573 C579 1.390 . S
C574 H565 0.930 . S
C574 C572 1.384 . S
C574 C575 1.372 . S
C575 C574 1.372 . S
C575 C576 1.400 . S
C575 C580 1.490 . S
C576 H566 0.930 . S
C576 C575 1.400 . S
C576 C579 1.386 . S
H577 C593 0.930 . S
H578 C594 0.931 . S
C579 H567 0.929 . S
C579 C573 1.390 . S
C579 C576 1.386 . S
C580 C575 1.490 . S
C580 C582 1.395 . S
C580 C583 1.403 . S
H581 C587 0.930 . S
C582 H568 0.930 . S
C582 C580 1.395 . S
C582 C585 1.403 . S
C583 C580 1.403 . S
C583 C584 1.524 . S
C583 C587 1.400 . S
C584 H569 0.960 . S
C584 H570 0.960 . S
C584 H571 0.960 . S
C584 C583 1.524 . S
C585 C582 1.403 . S
C585 C586 1.392 . S
C585 C589 1.495 . S
C586 C585 1.392 . S
C586 C587 1.385 . S
C586 C588 1.478 . S
C587 H581 0.930 . S
C587 C583 1.400 . S
C587 C586 1.385 . S
C588 C586 1.478 . S
C588 C590 1.381 . S
C588 C594 1.383 . S
C589 C585 1.495 . S
C589 H595 0.959 . S
C589 H596 0.961 . S
C589 H597 0.960 . S
C590 C588 1.381 . S
C590 C591 1.394 . S
C590 H598 0.930 . S
C591 C590 1.394 . S
C591 C592 1.383 . S
C591 H599 0.929 . S
C592 C591 1.383 . S
C592 C593 1.377 . S
C593 H577 0.930 . S
C593 C592 1.377 . S
C593 C594 1.379 . S
C594 H578 0.931 . S
C594 C588 1.383 . S
C594 C593 1.379 . S
H595 C589 0.959 . S
H596 C589 0.961 . S
H597 C589 0.960 . S
H598 C590 0.930 . S
H599 C591 0.929 . S
H600 C608 0.929 . S
H601 C610 0.930 . S
H602 C612 0.930 . S
H603 C615 0.929 . S
H604 C618 0.930 . S
H605 C620 0.960 . S
H606 C620 0.960 . S
H607 C620 0.960 . S
C608 H600 0.929 . S
C608 C609 1.377 . S
C608 C610 1.384 . S
C609 C608 1.377 . S
C609 C615 1.390 . S
C610 H601 0.930 . S
C610 C608 1.384 . S
C610 C611 1.372 . S
C611 C610 1.372 . S
C611 C612 1.400 . S
C611 C616 1.490 . S
C612 H602 0.930 . S
C612 C611 1.400 . S
C612 C615 1.386 . S
H613 C629 0.930 . S
H614 C630 0.931 . S
C615 H603 0.929 . S
C615 C609 1.390 . S
C615 C612 1.386 . S
C616 C611 1.490 . S
C616 C618 1.395 . S
C616 C619 1.403 . S
H617 C623 0.930 . S
C618 H604 0.930 . S
C618 C616 1.395 . S
C618 C621 1.403 . S
C619 C616 1.403 . S
C619 C620 1.524 . S
C619 C623 1.400 . S
C620 H605 0.960 . S
C620 H606 0.960 . S
C620 H607 0.960 . S
C620 C619 1.524 . S
C621 C618 1.403 . S
C621 C622 1.392 . S
C621 C625 1.495 . S
C622 C621 1.392 . S
C622 C623 1.385 . S
C622 C624 1.478 . S
C623 H617 0.930 . S
C623 C619 1.400 . S
C623 C622 1.385 . S
C624 C622 1.478 . S
C624 C626 1.381 . S
C624 C630 1.383 . S
C625 C621 1.495 . S
C625 H631 0.959 . S
C625 H632 0.961 . S
C625 H633 0.960 . S
C626 C624 1.381 . S
C626 C627 1.394 . S
C626 H634 0.930 . S
C627 C626 1.394 . S
C627 C628 1.383 . S
C627 H635 0.929 . S
C628 C627 1.383 . S
C628 C629 1.377 . S
C629 H613 0.930 . S
C629 C628 1.377 . S
C629 C630 1.379 . S
C630 H614 0.931 . S
C630 C624 1.383 . S
C630 C629 1.379 . S
H631 C625 0.959 . S
H632 C625 0.961 . S
H633 C625 0.960 . S
H634 C626 0.930 . S
H635 C627 0.929 . S
H636 C644 0.929 . S
H637 C646 0.930 . S
H638 C648 0.930 . S
H639 C651 0.929 . S
H640 C654 0.930 . S
H641 C656 0.960 . S
H642 C656 0.960 . S
H643 C656 0.960 . S
C644 H636 0.929 . S
C644 C645 1.377 . S
C644 C646 1.384 . S
C645 C644 1.377 . S
C645 C651 1.390 . S
C646 H637 0.930 . S
C646 C644 1.384 . S
C646 C647 1.372 . S
C647 C646 1.372 . S
C647 C648 1.400 . S
C647 C652 1.490 . S
C648 H638 0.930 . S
C648 C647 1.400 . S
C648 C651 1.386 . S
H649 C665 0.930 . S
H650 C666 0.931 . S
C651 H639 0.929 . S
C651 C645 1.390 . S
C651 C648 1.386 . S
C652 C647 1.490 . S
C652 C654 1.395 . S
C652 C655 1.403 . S
H653 C659 0.930 . S
C654 H640 0.930 . S
C654 C652 1.395 . S
C654 C657 1.403 . S
C655 C652 1.403 . S
C655 C656 1.524 . S
C655 C659 1.400 . S
C656 H641 0.960 . S
C656 H642 0.960 . S
C656 H643 0.960 . S
C656 C655 1.524 . S
C657 C654 1.403 . S
C657 C658 1.392 . S
C657 C661 1.495 . S
C658 C657 1.392 . S
C658 C659 1.385 . S
C658 C660 1.478 . S
C659 H653 0.930 . S
C659 C655 1.400 . S
C659 C658 1.385 . S
C660 C658 1.478 . S
C660 C662 1.381 . S
C660 C666 1.383 . S
C661 C657 1.495 . S
C661 H667 0.959 . S
C661 H668 0.976 . S
C661 H669 0.960 . S
C662 C660 1.381 . S
C662 C663 1.394 . S
C662 H670 0.930 . S
C663 C662 1.394 . S
C663 C664 1.383 . S
C663 H671 0.929 . S
C664 C663 1.383 . S
C664 C665 1.377 . S
C665 H649 0.930 . S
C665 C664 1.377 . S
C665 C666 1.379 . S
C666 H650 0.931 . S
C666 C660 1.383 . S
C666 C665 1.379 . S
H667 C661 0.959 . S
H668 C661 0.976 . S
H669 C661 0.960 . S
H670 C662 0.930 . S
H671 C663 0.929 . S
H672 C680 0.929 . S
H673 C682 0.930 . S
H674 C684 0.930 . S
H675 C687 0.929 . S
H676 C690 0.930 . S
H677 C692 0.960 . S
H678 C692 0.960 . S
H679 C692 0.960 . S
C680 H672 0.929 . S
C680 C681 1.377 . S
C680 C682 1.384 . S
C681 C680 1.377 . S
C681 C687 1.390 . S
C682 H673 0.930 . S
C682 C680 1.384 . S
C682 C683 1.372 . S
C683 C682 1.372 . S
C683 C684 1.400 . S
C683 C688 1.490 . S
C684 H674 0.930 . S
C684 C683 1.400 . S
C684 C687 1.386 . S
H685 C701 0.930 . S
H686 C702 0.931 . S
C687 H675 0.929 . S
C687 C681 1.390 . S
C687 C684 1.386 . S
C688 C683 1.490 . S
C688 C690 1.395 . S
C688 C691 1.403 . S
H689 C695 0.930 . S
C690 H676 0.930 . S
C690 C688 1.395 . S
C690 C693 1.403 . S
C691 C688 1.403 . S
C691 C692 1.524 . S
C691 C695 1.400 . S
C692 H677 0.960 . S
C692 H678 0.960 . S
C692 H679 0.960 . S
C692 C691 1.524 . S
C693 C690 1.403 . S
C693 C694 1.392 . S
C693 C697 1.495 . S
C694 C693 1.392 . S
C694 C695 1.385 . S
C694 C696 1.478 . S
C695 H689 0.930 . S
C695 C691 1.400 . S
C695 C694 1.385 . S
C696 C694 1.478 . S
C696 C698 1.381 . S
C696 C702 1.383 . S
C697 C693 1.495 . S
C697 H703 0.959 . S
C697 H704 0.961 . S
C697 H705 0.960 . S
C698 C696 1.381 . S
C698 C699 1.394 . S
C698 H706 0.930 . S
C699 C698 1.394 . S
C699 C700 1.383 . S
C699 H707 0.929 . S
C700 C699 1.383 . S
C700 C701 1.377 . S
C701 H685 0.930 . S
C701 C700 1.377 . S
C701 C702 1.379 . S
C702 H686 0.931 . S
C702 C696 1.383 . S
C702 C701 1.379 . S
H703 C697 0.959 . S
H704 C697 0.961 . S
H705 C697 0.960 . S
H706 C698 0.930 . S
H707 C699 0.929 . S
H708 C716 0.929 . S
H709 C718 0.930 . S
H710 C720 0.930 . S
H711 C723 0.929 . S
H712 C726 0.930 . S
H713 C728 0.960 . S
H714 C728 0.960 . S
H715 C728 0.960 . S
C716 H708 0.929 . S
C716 C717 1.377 . S
C716 C718 1.384 . S
C717 C716 1.377 . S
C717 C723 1.390 . S
C718 H709 0.930 . S
C718 C716 1.384 . S
C718 C719 1.372 . S
C719 C718 1.372 . S
C719 C720 1.400 . S
C719 C724 1.490 . S
C720 H710 0.930 . S
C720 C719 1.400 . S
C720 C723 1.386 . S
H721 C737 0.930 1_545 S
H722 C738 0.931 1_545 S
C723 H711 0.929 . S
C723 C717 1.390 . S
C723 C720 1.386 . S
C724 C719 1.490 . S
C724 C726 1.395 . S
C724 C727 1.403 . S
H725 C731 0.930 . S
C726 H712 0.930 . S
C726 C724 1.395 . S
C726 C729 1.403 . S
C727 C724 1.403 . S
C727 C728 1.524 . S
C727 C731 1.400 . S
C728 H713 0.960 . S
C728 H714 0.960 . S
C728 H715 0.960 . S
C728 C727 1.524 . S
C729 C726 1.403 . S
C729 C730 1.392 . S
C729 C733 1.495 . S
C730 C729 1.392 . S
C730 C731 1.385 . S
C730 C732 1.478 . S
C731 H725 0.930 . S
C731 C727 1.400 . S
C731 C730 1.385 . S
C732 C730 1.478 . S
C732 C734 1.381 . S
C732 C738 1.383 . S
C733 C729 1.495 . S
C733 H739 0.959 . S
C733 H740 0.961 . S
C733 H741 0.960 . S
C734 C732 1.381 . S
C734 C735 1.394 . S
C734 H742 0.930 . S
C735 C734 1.394 . S
C735 C736 1.383 . S
C735 H743 0.929 . S
C736 C735 1.383 . S
C736 C737 1.377 . S
C737 H721 0.930 1_565 S
C737 C736 1.377 . S
C737 C738 1.379 . S
C738 H722 0.931 1_565 S
C738 C732 1.383 . S
C738 C737 1.379 . S
H739 C733 0.959 . S
H740 C733 0.961 . S
H741 C733 0.960 . S
H742 C734 0.930 . S
H743 C735 0.929 . S
C340 C212 1.600 . S
C321 C133 1.635 . S
C357 C25 1.612 . S
C376 C284 1.613 . S
C393 C61 1.617 . S
C412 C200 1.612 . S
C429 C97 1.582 . S
C448 C296 1.607 . S
C484 C202 1.443 . S
C465 C1 1.562 . S
C520 C283 1.600 . S
C501 C67 1.584 . S
C537 C103 1.572 . S
C556 C199 1.593 . S
C573 C109 1.541 . S
C592 C286 1.390 . S
C628 C298 1.429 . S
C609 C37 1.534 . S
C664 C214 1.431 . S
C645 C73 1.546 . S
C700 C295 1.604 . S
C681 C139 1.598 . S
C717 C31 1.596 . S
C736 C211 1.592 . S
