# Generated by pormake.
# Topology zzz, (3,6)-cn, num edge types: 1
# Building blocks:
#     Node 0, Type 0, BuildingBlock: BETDIP_clean_linker_0, # of connection points: 3
#     Node 1, Type 0, BuildingBlock: BETDIP_clean_linker_0, # of connection points: 3
#     Node 2, Type 0, BuildingBlock: BETDIP_clean_linker_0, # of connection points: 3
#     Node 3, Type 0, BuildingBlock: BETDIP_clean_linker_0, # of connection points: 3
#     Node 4, Type 0, BuildingBlock: BETDIP_clean_linker_0, # of connection points: 3
#     Node 5, Type 0, BuildingBlock: BETDIP_clean_linker_0, # of connection points: 3
#     Node 6, Type 0, BuildingBlock: BETDIP_clean_linker_0, # of connection points: 3
#     Node 7, Type 0, BuildingBlock: BETDIP_clean_linker_0, # of connection points: 3
#     Node 8, Type 1, BuildingBlock: KUMBOL_clean_sbu_0, # of connection points: 6
#     Node 9, Type 1, BuildingBlock: KUMBOL_clean_sbu_0, # of connection points: 6
#     Node 10, Type 1, BuildingBlock: KUMBOL_clean_sbu_0, # of connection points: 6
#     Node 11, Type 1, BuildingBlock: KUMBOL_clean_sbu_0, # of connection points: 6
#     Edge 12, Type (0, 1), BuildingBlock: AJUNOK_clean_linker_0, # of connection points: 2
#     Edge 13, Type (0, 1), BuildingBlock: AJUNOK_clean_linker_0, # of connection points: 2
#     Edge 14, Type (0, 1), BuildingBlock: AJUNOK_clean_linker_0, # of connection points: 2
#     Edge 15, Type (0, 1), BuildingBlock: AJUNOK_clean_linker_0, # of connection points: 2
#     Edge 16, Type (0, 1), BuildingBlock: AJUNOK_clean_linker_0, # of connection points: 2
#     Edge 17, Type (0, 1), BuildingBlock: AJUNOK_clean_linker_0, # of connection points: 2
#     Edge 18, Type (0, 1), BuildingBlock: AJUNOK_clean_linker_0, # of connection points: 2
#     Edge 19, Type (0, 1), BuildingBlock: AJUNOK_clean_linker_0, # of connection points: 2
#     Edge 20, Type (0, 1), BuildingBlock: AJUNOK_clean_linker_0, # of connection points: 2
#     Edge 21, Type (0, 1), BuildingBlock: AJUNOK_clean_linker_0, # of connection points: 2
#     Edge 22, Type (0, 1), BuildingBlock: AJUNOK_clean_linker_0, # of connection points: 2
#     Edge 23, Type (0, 1), BuildingBlock: AJUNOK_clean_linker_0, # of connection points: 2
#     Edge 24, Type (0, 1), BuildingBlock: AJUNOK_clean_linker_0, # of connection points: 2
#     Edge 25, Type (0, 1), BuildingBlock: AJUNOK_clean_linker_0, # of connection points: 2
#     Edge 26, Type (0, 1), BuildingBlock: AJUNOK_clean_linker_0, # of connection points: 2
#     Edge 27, Type (0, 1), BuildingBlock: AJUNOK_clean_linker_0, # of connection points: 2
#     Edge 28, Type (0, 1), BuildingBlock: AJUNOK_clean_linker_0, # of connection points: 2
#     Edge 29, Type (0, 1), BuildingBlock: AJUNOK_clean_linker_0, # of connection points: 2
#     Edge 30, Type (0, 1), BuildingBlock: AJUNOK_clean_linker_0, # of connection points: 2
#     Edge 31, Type (0, 1), BuildingBlock: AJUNOK_clean_linker_0, # of connection points: 2
#     Edge 32, Type (0, 1), BuildingBlock: AJUNOK_clean_linker_0, # of connection points: 2
#     Edge 33, Type (0, 1), BuildingBlock: AJUNOK_clean_linker_0, # of connection points: 2
#     Edge 34, Type (0, 1), BuildingBlock: AJUNOK_clean_linker_0, # of connection points: 2
#     Edge 35, Type (0, 1), BuildingBlock: AJUNOK_clean_linker_0, # of connection points: 2
# Relax obj value: 0.232
# Max RMSD: 0.181
# Mean RMSD: 0.118
data_MOF--net-zzz--node1-KUMBOL_clean_sbu_0--node2-BETDIP_clean_linker_0--edge1-AJUNOK_clean_linker_0
_symmetry_space_group_name_H-M    P1
_symmetry_Int_Tables_number       1
_symmetry_cell_setting            triclinic
loop_
_symmetry_equiv_pos_as_xyz
'x, y, z'
_cell_length_a     37.333926
_cell_length_b     37.080714
_cell_length_c     10.994257
_cell_angle_alpha  91.702267
_cell_angle_beta   89.683697
_cell_angle_gamma 90.047928
loop_
_atom_site_label
_atom_site_type_symbol
_atom_site_fract_x
_atom_site_fract_y
_atom_site_fract_z
_atom_type_partial_charge
H0 H 0.77985 0.534 0.39289 0.0
H1 H 0.75702 0.61242 0.11817 0.0
H2 H 0.85662 0.61572 0.30318 0.0
H3 H 0.73047 0.56593 0.02475 0.0
C4 C 0.71303 0.55755 0.09807 0.0
C5 C 0.78747 0.55735 0.34194 0.0
C6 C 0.82157 0.57476 0.36632 0.0
C7 C 0.76338 0.57064 0.24994 0.0
C8 C 0.77429 0.60106 0.18576 0.0
C9 C 0.8085 0.61564 0.19859 0.0
C10 C 0.83048 0.60379 0.29278 0.0
N11 N 0.72916 0.55382 0.21772 0.0
H12 H 0.03776 0.78833 0.40621 0.0
H13 H 0.94887 0.75101 0.18766 0.0
H14 H 0.94525 0.85565 0.35948 0.0
H15 H 0.99441 0.73391 0.05759 0.0
C16 C 1.00714 0.71665 0.12265 0.0
C17 C 1.01134 0.79251 0.3692 0.0
C18 C 0.9918 0.82517 0.40214 0.0
C19 C 0.99607 0.7654 0.2871 0.0
C20 C 0.96172 0.77185 0.24224 0.0
C21 C 0.94607 0.80611 0.25087 0.0
C22 C 0.95902 0.83043 0.34231 0.0
N23 N 1.01462 0.73283 0.24269 0.0
H24 H 0.77025 1.0079 0.52623 0.0
H25 H 0.79512 1.01237 0.14296 0.0
H26 H 0.68755 0.02942 0.26349 0.0
H27 H 0.84041 0.95639 0.25755 0.0
C28 C 0.84793 0.98457 0.26949 0.0
C29 C 0.76153 1.01057 0.43321 0.0
C30 C 0.72412 1.01688 0.40821 0.0
C31 C 0.78756 1.00845 0.33538 0.0
C32 C 0.77583 1.01256 0.21715 0.0
C33 C 0.7407 1.02146 0.1931 0.0
C34 C 0.71489 0.02255 0.28621 0.0
N35 N 0.8258 1.00633 0.35136 0.0
H36 H 0.5363 0.78071 0.44534 0.0
H37 H 0.60559 0.80313 0.14435 0.0
H38 H 0.60922 0.69957 0.30943 0.0
H39 H 0.60589 0.86049 0.2524 0.0
C40 C 0.57724 0.86203 0.23634 0.0
C41 C 0.5575 0.77233 0.38318 0.0
C42 C 0.57283 0.73709 0.39166 0.0
C43 C 0.57064 0.79695 0.29515 0.0
C44 C 0.59738 0.78491 0.21335 0.0
C45 C 0.61071 0.74942 0.21197 0.0
C46 C 0.59934 0.72686 0.30605 0.0
N47 N 0.5557 0.83259 0.27999 0.0
H48 H 0.27129 0.53563 0.07073 0.0
H49 H 0.30062 0.45687 0.3363 0.0
H50 H 0.20228 0.44567 0.14453 0.0
H51 H 0.32192 0.50635 0.43422 0.0
C52 C 0.33933 0.51552 0.36189 0.0
C53 C 0.26583 0.51094 0.11751 0.0
C54 C 0.23333 0.49099 0.09051 0.0
C55 C 0.29103 0.49869 0.20726 0.0
C56 C 0.28284 0.46678 0.26743 0.0
C57 C 0.25032 0.4489 0.25018 0.0
C58 C 0.22734 0.45977 0.15711 0.0
N59 N 0.32367 0.51805 0.24139 0.0
H60 H 1.01755 0.26538 0.04484 0.0
H61 H 0.09677 0.305 0.29997 0.0
H62 H 0.09181 0.19222 0.20354 0.0
H63 H 0.0385 0.32371 0.39657 0.0
C64 C 0.03595 0.34183 0.32148 0.0
C65 C 0.04061 0.26077 0.10152 0.0
C66 C 0.05687 0.22519 0.10156 0.0
C67 C 0.05432 0.28995 0.17882 0.0
C68 C 0.08495 0.28307 0.24659 0.0
C69 C 0.09513 0.24774 0.26994 0.0
C70 C 0.08336 0.21966 0.1897 0.0
N71 N 0.03704 0.32495 0.19977 0.0
H72 H 0.29134 1.02214 0.05378 0.0
H73 H 0.25923 0.09519 0.34614 0.0
H74 H 0.36418 0.10327 0.18957 0.0
H75 H 0.20457 0.08918 0.25496 0.0
C76 C 0.20405 0.06003 0.26172 0.0
C77 C 0.29702 0.04506 0.11383 0.0
C78 C 0.33148 0.06257 0.10702 0.0
C79 C 0.26981 0.05793 0.19841 0.0
C80 C 0.27869 0.08655 0.27872 0.0
C81 C 0.31339 0.10082 0.28577 0.0
C82 C 0.33806 0.09097 0.19165 0.0
N83 N 0.23517 0.04053 0.21446 0.0
H84 H 0.52191 0.28765 0.01686 0.0
H85 H 0.45199 0.26055 0.31656 0.0
H86 H 0.44017 0.36127 0.14511 0.0
H87 H 0.50589 0.2373 0.38208 0.0
C88 C 0.50928 0.21941 0.30282 0.0
C89 C 0.49951 0.29414 0.07645 0.0
C90 C 0.48133 0.32806 0.0657 0.0
C91 C 0.48863 0.2689 0.16685 0.0
C92 C 0.46023 0.27851 0.2457 0.0
C93 C 0.44393 0.31222 0.24203 0.0
C94 C 0.45312 0.33539 0.14788 0.0
N95 N 0.50643 0.23474 0.18375 0.0
Gd96 Gd 0.99437 0.03941 0.65632 0.0
Gd97 Gd 0.05681 1.00643 0.86805 0.0
C98 C 0.10416 0.09529 0.11601 0.0
C99 C 0.16528 0.09855 0.04034 0.0
C100 C 0.12477 0.05237 0.9613 0.0
C101 C 0.09747 0.06611 0.03394 0.0
C102 C 0.15952 0.06718 0.96884 0.0
C103 C 0.13762 0.11258 0.11395 0.0
C104 C 0.0772 0.1059 0.19821 0.0
C105 C 0.04509 0.08674 0.1999 0.0
N106 N 0.06497 0.0497 0.02917 0.0
C107 C 0.03942 0.0585 0.11494 0.0
H108 H 1.01413 0.04473 0.11821 0.0
C109 C 0.14542 1.00497 0.83094 0.0
N110 N 0.11783 0.02314 0.88859 0.0
C111 C 0.18054 1.01794 0.83891 0.0
C112 C 0.18754 0.04959 0.90645 0.0
H113 H 0.13998 0.98132 0.77403 0.0
H114 H 0.14275 0.13621 0.17092 0.0
H115 H 0.02814 1.00119 0.38953 0.0
H116 H 0.0811 0.1282 0.26246 0.0
H117 H 0.02437 0.09413 0.26519 0.0
H118 H 0.1914 0.1113 0.04317 0.0
H119 H 0.91231 0.07206 0.73702 0.0
H120 H 0.96128 0.91236 0.29238 0.0
H121 H 1.01588 0.94817 0.25955 0.0
H122 H 0.85439 0.93604 0.52393 0.0
H123 H 0.20203 1.00398 0.7908 0.0
H124 H 0.21468 0.05993 0.91115 0.0
H125 H 0.90073 0.90724 0.39451 0.0
H126 H 0.84982 0.05008 0.74273 0.0
N127 N 0.98185 0.99474 0.50287 0.0
C128 C 0.96637 0.93573 0.35009 0.0
C129 C 0.99732 0.95589 0.33167 0.0
C130 C 0.94123 0.94761 0.43685 0.0
C131 C 0.94966 0.97803 0.51098 0.0
C132 C 1.00441 0.98584 0.40795 0.0
N133 N 0.93241 0.025 0.64395 0.0
C134 C 0.92389 0.99381 0.5844 0.0
C135 C 0.87043 0.03378 0.69864 0.0
C136 C 0.86198 1.00004 0.6467 0.0
C137 C 0.90579 0.04623 0.69438 0.0
C138 C 0.88868 0.98 0.58585 0.0
H139 H 0.83457 0.99045 0.64955 0.0
O140 O 0.96283 0.08043 0.56726 0.0
O141 O 0.03435 0.05844 0.79907 0.0
O142 O 1.00132 1.00455 0.9594 0.0
O143 O 0.96089 0.02933 0.82659 0.0
O144 O 0.98456 0.08175 0.80594 0.0
O145 O 0.01951 0.07729 0.53557 0.0
O146 O 0.0898 0.96072 0.91349 0.0
O147 O 1.01635 0.98728 0.72711 0.0
O148 O 0.04924 0.03086 0.55934 0.0
O149 O 0.08952 0.03163 0.71761 0.0
O150 O 0.06652 0.96442 0.71678 0.0
O151 O 0.04231 0.97293 0.01987 0.0
C152 C 1.01587 0.08332 0.85422 0.0
C153 C 0.88103 0.94764 0.52175 0.0
C154 C 0.90742 0.93128 0.4478 0.0
C155 C 0.99124 0.09761 0.53286 0.0
C156 C 0.99649 0.13461 0.58346 0.0
C157 C 0.97282 0.14984 0.67061 0.0
C158 C 0.02886 0.1522 0.55992 0.0
C159 C 0.03943 0.18304 0.62868 0.0
C160 C 0.98257 0.18082 0.73768 0.0
C161 C 1.0159 0.19689 0.71905 0.0
C162 C 0.96855 1.01557 0.93265 0.0
C163 C 0.03494 0.96271 0.6707 0.0
C164 C 0.06697 0.94909 0.99247 0.0
C165 C 0.05564 0.91118 0.97296 0.0
C166 C 0.08184 0.88426 0.96113 0.0
C167 C 0.01925 0.90156 0.96367 0.0
C168 C 1.00874 0.86501 0.95273 0.0
C169 C 0.07194 0.84828 0.94315 0.0
C170 C 0.03583 0.83858 0.94106 0.0
C171 C 0.08263 0.03315 0.60017 0.0
H172 H 0.94754 0.13697 0.69113 0.0
H173 H 0.04566 0.1414 0.487 0.0
H174 H 0.96456 0.19192 0.80659 0.0
H175 H 0.02291 0.22045 0.77434 0.0
H176 H 0.11003 0.89109 0.96616 0.0
H177 H 0.9992 0.92253 0.96839 0.0
H178 H 0.09236 0.82762 0.93536 0.0
H179 H 0.02958 0.8101 0.93723 0.0
Gd180 Gd 0.51132 0.99949 0.63707 0.0
Gd181 Gd 0.54154 0.06821 0.83585 0.0
C182 C 0.46425 0.08614 0.1578 0.0
C183 C 0.43051 0.13835 0.09744 0.0
C184 C 0.47623 0.11212 0.96308 0.0
C185 C 0.48443 0.08717 0.04928 0.0
C186 C 0.44993 0.13886 0.98844 0.0
C187 C 0.43737 0.11162 0.1806 0.0
C188 C 0.47188 0.05974 0.24136 0.0
C189 C 0.50176 0.0381 0.22216 0.0
N190 N 0.5127 0.06463 0.02915 0.0
C191 C 0.52362 0.04331 0.12171 0.0
H192 H 0.54914 0.0298 0.12132 0.0
C193 C 0.4891 0.13773 0.77462 0.0
N194 N 0.49443 0.11102 0.85628 0.0
C195 C 0.46392 0.16501 0.7966 0.0
C196 C 0.44418 0.16559 0.90405 0.0
H197 H 0.50541 0.13995 0.69503 0.0
H198 H 0.42281 0.11157 0.26461 0.0
H199 H 0.55325 0.04319 0.41092 0.0
H200 H 0.4558 0.0568 0.32257 0.0
H201 H 0.50869 1.01773 0.28511 0.0
H202 H 0.41013 0.15845 0.11838 0.0
H203 H 0.4962 0.91518 0.74069 0.0
H204 H 0.64 0.97949 0.2738 0.0
H205 H 0.60362 0.03505 0.27029 0.0
H206 H 0.63028 0.87068 0.49384 0.0
H207 H 0.46022 0.18591 0.73112 0.0
H208 H 0.42459 0.18675 0.92106 0.0
H209 H 0.65084 0.91908 0.36231 0.0
H210 H 0.52629 0.8563 0.74421 0.0
N211 N 0.55977 0.99295 0.49613 0.0
C212 C 0.61752 0.98288 0.33583 0.0
C213 C 0.59702 1.01417 0.33341 0.0
C214 C 0.60828 0.95598 0.41655 0.0
C215 C 0.57859 0.96165 0.49516 0.0
C216 C 0.56829 1.01877 0.41452 0.0
N217 N 0.53744 0.94051 0.63797 0.0
C218 C 0.56736 0.93475 0.56984 0.0
C219 C 0.53846 0.87823 0.69594 0.0
C220 C 0.57079 0.87299 0.63423 0.0
C221 C 0.52164 0.91186 0.69412 0.0
C222 C 0.58518 0.90109 0.56755 0.0
H223 H 0.58363 0.84679 0.63455 0.0
O224 O 0.47308 0.95819 0.57783 0.0
O225 O 0.48976 0.04389 0.76644 0.0
O226 O 0.55535 1.01453 0.92579 0.0
O227 O 0.52144 0.97295 0.81685 0.0
O228 O 0.46933 0.99266 0.78492 0.0
O229 O 0.48049 1.00526 0.47354 0.0
O230 O 0.56263 0.12012 0.78766 0.0
O231 O 0.56014 0.03378 0.67636 0.0
O232 O 0.49932 0.05402 0.54906 0.0
O233 O 0.5427 0.08868 0.64305 0.0
O234 O 0.59355 0.03652 0.82513 0.0
O235 O 0.57799 0.09765 0.95731 0.0
C236 C 0.46645 0.02548 0.82541 0.0
C237 C 0.61595 0.89609 0.49522 0.0
C238 C 0.62753 0.92355 0.41992 0.0
C239 C 0.46051 0.97739 0.49208 0.0
C240 C 0.42199 0.98412 0.49886 0.0
C241 C 0.39752 0.9562 0.4751 0.0
C242 C 0.40956 1.01861 0.53274 0.0
C243 C 0.373 0.02641 0.53184 0.0
C244 C 0.36081 0.96314 0.48191 0.0
C245 C 0.34853 0.99812 0.50819 0.0
C246 C 0.54119 0.98183 0.91159 0.0
C247 C 0.59112 0.02399 0.71431 0.0
C248 C 0.58504 0.12187 0.87657 0.0
C249 C 0.62239 0.12579 0.83567 0.0
C250 C 0.63117 0.14786 0.73776 0.0
C251 C 0.64812 0.10239 0.87864 0.0
C252 C 0.68138 0.09867 0.82085 0.0
C253 C 0.66504 0.14537 0.68259 0.0
C254 C 0.69017 0.12055 0.72336 0.0
C255 C 0.51892 0.08389 0.55589 0.0
H256 H 0.4068 0.92922 0.45121 0.0
H257 H 0.4285 0.03989 0.55488 0.0
H258 H 0.34185 0.94165 0.46255 0.0
H259 H 0.32003 1.00321 0.50351 0.0
H260 H 0.61145 0.16593 0.70113 0.0
H261 H 0.64191 0.08587 0.95578 0.0
H262 H 0.6715 0.1621 0.60651 0.0
H263 H 0.71611 0.11835 0.6792 0.0
Gd264 Gd 0.4931 0.55348 0.84174 0.0
Gd265 Gd 0.55744 0.51747 0.62705 0.0
C266 C 0.67872 0.52279 0.68175 0.0
C267 C 0.69703 0.56526 0.52911 0.0
C268 C 0.63439 0.54815 0.54913 0.0
C269 C 0.64278 0.5263 0.64456 0.0
C270 C 0.66149 0.56745 0.48894 0.0
C271 C 0.70565 0.54291 0.62516 0.0
C272 C 0.68662 0.49864 0.77315 0.0
C273 C 0.65919 0.47801 0.82255 0.0
N274 N 0.61606 0.5074 0.69792 0.0
C275 C 0.62399 0.48239 0.78259 0.0
H276 H 0.60335 0.46624 0.82263 0.0
C277 C 0.59089 0.56807 0.41082 0.0
N278 N 0.59986 0.54954 0.51229 0.0
C279 C 0.61674 0.58784 0.34882 0.0
C280 C 0.65215 0.58785 0.3888 0.0
H281 H 0.56352 0.56842 0.3797 0.0
H282 H 0.73331 0.54088 0.65354 0.0
H283 H 0.44227 0.59879 0.64403 0.0
H284 H 0.71383 0.49528 0.80465 0.0
H285 H 0.66509 0.45886 0.89207 0.0
H286 H 0.71812 0.58023 0.48513 0.0
H287 H 0.48881 0.51812 0.11942 0.0
H288 H 0.33479 0.55948 0.6671 0.0
H289 H 0.37943 0.6003 0.57697 0.0
H290 H 0.3389 0.48032 1.00256 0.0
H291 H 0.60935 0.60299 0.27012 0.0
H292 H 0.67217 0.60306 0.34027 0.0
H293 H 0.32027 0.51327 0.82265 0.0
H294 H 0.44465 0.48686 0.24551 0.0
N295 N 0.43371 0.55698 0.76982 0.0
C296 C 0.36234 0.55881 0.69742 0.0
C297 C 0.38743 0.58195 0.64656 0.0
C298 C 0.37283 0.53612 0.79014 0.0
C299 C 0.40902 0.53648 0.82677 0.0
C300 C 0.4231 0.58089 0.6846 0.0
N301 N 0.45338 0.52296 0.96974 0.0
C302 C 0.41924 0.51869 0.92959 0.0
C303 C 0.43789 0.49381 0.15402 0.0
C304 C 0.40392 0.48581 0.10867 0.0
C305 C 0.46257 0.51231 0.08315 0.0
C306 C 0.39379 0.49926 0.99669 0.0
H307 H 0.38502 0.47135 0.16426 0.0
O308 O 0.50994 0.59064 0.98788 0.0
O309 O 0.55191 0.54641 0.80517 0.0
O310 O 0.54304 0.47424 0.76816 0.0
O311 O 0.4883 0.49215 0.8531 0.0
O312 O 0.53578 0.5382 0.98072 0.0
O313 O 0.46323 0.60253 0.88261 0.0
O314 O 0.56497 0.49419 0.44681 0.0
O315 O 0.4988 0.52553 0.66063 0.0
O316 O 0.50667 0.59469 0.69367 0.0
O317 O 0.56427 0.57855 0.63868 0.0
O318 O 0.51564 0.53402 0.48726 0.0
O319 O 0.55818 0.45916 0.59992 0.0
C320 C 0.5636 0.53856 0.91006 0.0
C321 C 0.35856 0.49589 0.95381 0.0
C322 C 0.348 0.51454 0.85112 0.0
C323 C 0.48778 0.61548 0.95425 0.0
C324 C 0.50303 0.65029 0.91783 0.0
C325 C 0.48023 0.67738 0.87766 0.0
C326 C 0.5403 0.65558 0.91309 0.0
C327 C 0.55519 0.68875 0.87782 0.0
C328 C 0.49439 0.70931 0.83479 0.0
C329 C 0.53128 0.71526 0.8362 0.0
C330 C 0.51306 0.46704 0.82969 0.0
C331 C 0.4876 0.53346 0.55548 0.0
C332 C 0.55745 0.46179 0.48184 0.0
C333 C 0.52741 0.44462 0.41674 0.0
C334 C 0.5273 0.4456 0.28958 0.0
C335 C 0.49732 0.43085 0.47852 0.0
C336 C 0.46717 0.41864 0.41273 0.0
C337 C 0.49729 0.43494 0.22476 0.0
C338 C 0.46738 0.42219 0.28528 0.0
C339 C 0.53839 0.60294 0.64649 0.0
H340 H 0.45145 0.6736 0.87772 0.0
H341 H 0.55735 0.63372 0.93931 0.0
H342 H 0.4766 0.73009 0.80351 0.0
H343 H 0.5401 0.74155 0.80971 0.0
H344 H 0.54995 0.45592 0.24029 0.0
H345 H 0.49746 0.42897 0.57666 0.0
H346 H 0.4968 0.43732 0.12728 0.0
H347 H 0.44458 0.41478 0.23032 0.0
Gd348 Gd 1.01 0.4963 0.82318 0.0
Gd349 Gd 0.04507 0.56217 0.62185 0.0
C350 C 0.03881 0.68355 0.72107 0.0
C351 C 0.99657 0.7049 0.57261 0.0
C352 C 1.01483 0.64184 0.56958 0.0
C353 C 0.03581 0.64822 0.67005 0.0
C354 C 0.99619 0.67043 0.51625 0.0
C355 C 1.01788 0.71146 0.67522 0.0
C356 C 0.06405 0.69014 0.81232 0.0
C357 C 0.0869 0.66243 0.84502 0.0
N358 N 0.05612 0.62068 0.70986 0.0
C359 C 0.08304 0.62805 0.79078 0.0
H360 H 0.10187 0.60788 0.81477 0.0
C361 C 1.00163 0.60277 0.40287 0.0
N362 N 1.01575 0.60843 0.51645 0.0
C363 C 0.98393 0.6306 0.34478 0.0
C364 C 0.97984 0.66411 0.40373 0.0
H365 H 1.00416 0.57669 0.35712 0.0
H366 H 0.01935 0.73855 0.71469 0.0
H367 H 0.95528 0.45741 0.60554 0.0
H368 H 0.06716 0.71679 0.85407 0.0
H369 H 0.10764 0.66751 0.91181 0.0
H370 H 0.98192 0.72702 0.53419 0.0
H371 H 0.05613 0.47851 0.07386 0.0
H372 H 0.97648 0.34493 0.58135 0.0
H373 H 0.94337 0.39831 0.51422 0.0
H374 H 0.05995 0.32636 0.90106 0.0
H375 H 0.97432 0.62665 0.25316 0.0
H376 H 0.96584 0.68545 0.35847 0.0
H377 H 0.02053 0.31851 0.7239 0.0
H378 H 0.08431 0.42625 0.17119 0.0
N379 N 0.99603 0.43961 0.72616 0.0
C380 C 0.98191 0.37117 0.62331 0.0
C381 C 0.96315 0.40119 0.58546 0.0
C382 C 1.00674 0.37521 0.71716 0.0
C383 C 1.01299 0.4101 0.76834 0.0
C384 C 0.97018 0.43514 0.63887 0.0
N385 N 0.03884 0.44789 0.91863 0.0
C386 C 0.03529 0.41444 0.86711 0.0
C387 C 0.07193 0.423 0.0833 0.0
C388 C 0.0711 0.38907 0.0259 0.0
C389 C 0.05561 0.45225 0.02856 0.0
C390 C 0.05183 0.38418 0.9182 0.0
H391 H 0.08403 0.36657 0.06839 0.0
O392 O 0.98985 0.48749 1.00454 0.0
O393 O 1.01647 0.55601 0.79736 0.0
O394 O 0.08785 0.54908 0.76805 0.0
O395 O 0.07161 0.49288 0.83665 0.0
O396 O 0.02734 0.53887 0.9679 0.0
O397 O 0.95268 0.49579 0.85754 0.0
O398 O 0.06927 0.57047 0.4456 0.0
O399 O 0.03788 0.5025 0.64602 0.0
O400 O 0.96467 0.51304 0.69166 0.0
O401 O 0.98365 0.56641 0.60664 0.0
O402 O 0.0267 0.52043 0.4766 0.0
O403 O 0.10278 0.55794 0.59787 0.0
C404 C 0.02515 0.56733 0.90379 0.0
C405 C 0.04719 0.3498 0.86375 0.0
C406 C 0.02468 0.34532 0.76322 0.0
C407 C 0.95732 0.49577 0.97497 0.0
C408 C 0.94214 0.52602 0.04654 0.0
C409 C 0.9449 0.52561 0.17332 0.0
C410 C 0.92878 0.55692 0.99033 0.0
C411 C 0.91665 0.58668 0.0611 0.0
C412 C 0.93505 0.55568 0.24325 0.0
C413 C 0.92079 0.58568 0.18848 0.0
C414 C 0.09574 0.51907 0.82643 0.0
C415 C 0.02883 0.49172 0.53924 0.0
C416 C 0.10028 0.55881 0.48004 0.0
C417 C 0.11423 0.52749 0.40926 0.0
C418 C 0.10973 0.52653 0.28297 0.0
C419 C 0.12961 0.49755 0.46575 0.0
C420 C 0.14122 0.46731 0.39542 0.0
C421 C 0.11998 0.49653 0.21374 0.0
C422 C 0.13556 0.46732 0.26859 0.0
C423 C 0.9581 0.54226 0.62755 0.0
H424 H 0.95585 0.50246 0.21792 0.0
H425 H 0.92756 0.55769 0.89213 0.0
H426 H 0.93858 0.55584 0.34037 0.0
H427 H 0.91272 0.60794 0.24776 0.0
H428 H 0.09769 0.54877 0.23766 0.0
H429 H 0.13344 0.49808 0.56338 0.0
H430 H 0.11629 0.49604 0.11661 0.0
H431 H 0.14444 0.44544 0.20897 0.0
C432 C 0.14596 0.02637 0.31595 0.0
C433 C 0.17624 0.04695 0.3523 0.0
C434 C 0.11567 1.02197 0.39444 0.0
C435 C 0.11411 0.03805 0.51312 0.0
H436 H 0.14496 1.0148 0.22441 0.0
H437 H 0.09331 1.00595 0.36148 0.0
S438 S 0.18382 0.09827 0.64653 0.0
N439 N 0.20058 0.08575 0.51248 0.0
N440 N 0.14494 0.07753 0.65711 0.0
C441 C 0.14402 0.05884 0.54901 0.0
C442 C 0.1745 0.06333 0.46969 0.0
C443 C 0.48019 0.16342 0.3827 0.0
C444 C 0.51061 0.17985 0.33086 0.0
C445 C 0.48248 0.13079 0.44644 0.0
C446 C 0.51547 0.11333 0.46415 0.0
H447 H 0.45456 0.17706 0.38015 0.0
H448 H 0.45868 0.12077 0.49053 0.0
S449 S 0.60346 0.14506 0.34932 0.0
N450 N 0.57485 0.17553 0.30192 0.0
N451 N 0.57934 0.11518 0.42238 0.0
C452 C 0.54595 0.12904 0.41035 0.0
C453 C 0.5435 0.16191 0.3439 0.0
C454 C 0.39151 0.49805 0.494 0.0
C455 C 0.37857 0.51934 0.39847 0.0
C456 C 0.42637 0.50228 0.54334 0.0
C457 C 0.45027 0.5287 0.50185 0.0
H458 H 0.37409 0.47805 0.53312 0.0
H459 H 0.43444 0.485 0.61602 0.0
S460 S 0.43078 0.59174 0.25343 0.0
N461 N 0.39346 0.56798 0.26456 0.0
N462 N 0.45857 0.57595 0.35562 0.0
C463 C 0.43809 0.54977 0.40466 0.0
C464 C 0.40244 0.54538 0.3543 0.0
C465 C 1.01544 0.40885 0.31546 0.0
C466 C 0.03814 0.38189 0.36039 0.0
C467 C 1.01326 0.44406 0.37211 0.0
C468 C 0.03301 0.45413 0.47816 0.0
H469 H 0.99817 0.40237 0.23908 0.0
H470 H 0.99482 0.46326 0.33488 0.0
S471 S 0.10036 0.39561 0.62156 0.0
N472 N 0.0833 0.36958 0.51189 0.0
N473 N 0.07966 0.43481 0.61383 0.0
C474 C 0.05728 0.42811 0.51884 0.0
C475 C 0.05949 0.39244 0.46185 0.0
C476 C 0.90701 0.97111 0.1659 0.0
C477 C 0.8801 0.9967 0.19525 0.0
C478 C 0.93622 0.97874 0.08839 0.0
C479 C 0.9386 1.01087 0.02507 0.0
H480 H 0.90521 0.94438 0.20187 0.0
H481 H 0.95674 0.95881 0.07361 0.0
S482 S 0.87427 0.08701 0.05972 0.0
N483 N 0.85834 0.05674 0.15337 0.0
N484 N 0.91063 0.06913 0.99634 0.0
C485 C 0.91145 0.03673 0.05034 0.0
C486 C 0.88284 0.03002 0.1369 0.0
C487 C 0.59098 0.91929 0.12667 0.0
C488 C 0.56515 0.89333 0.16024 0.0
C489 C 0.58278 0.94851 0.05175 0.0
C490 C 0.54844 0.95283 1.00243 0.0
H491 H 0.61834 0.91674 0.15727 0.0
H492 H 0.60399 0.9671 0.02859 0.0
S493 S 0.47031 0.89334 0.06142 0.0
N494 N 0.50304 0.87503 0.13916 0.0
N495 N 0.48781 0.92884 0.99574 0.0
C496 C 0.52214 0.92724 0.03534 0.0
C497 C 0.53038 0.89785 0.11427 0.0
C498 C 0.6613 0.5722 0.95861 0.0
C499 C 0.67374 0.55355 0.06119 0.0
C500 C 0.62629 0.56742 0.91043 0.0
C501 C 0.6016 0.54307 0.96033 0.0
H502 H 0.67912 0.59071 0.91366 0.0
H503 H 0.61861 0.58287 0.83277 0.0
S504 S 0.62054 0.48632 0.22615 0.0
N505 N 0.65801 0.50929 0.20919 0.0
N506 N 0.59282 0.49996 0.12008 0.0
C507 C 0.61352 0.52458 0.06399 0.0
C508 C 0.64923 0.5297 0.11347 0.0
C509 C 0.99052 0.66463 0.97736 0.0
C510 C 1.01162 0.67744 0.07691 0.0
C511 C 0.99496 0.62972 0.92187 0.0
C512 C 0.02109 0.60534 0.96157 0.0
H513 H 0.9703 0.68208 0.94048 0.0
H514 H 0.97771 0.62184 0.84675 0.0
S515 S 0.08374 0.62486 0.21763 0.0
N516 N 0.05986 0.66218 0.21148 0.0
N517 N 0.06805 0.59707 0.11015 0.0
C518 C 0.04184 0.61752 0.06276 0.0
C519 C 0.03737 0.65325 0.11891 0.0
C520 C 0.08689 0.25933 0.49243 0.0
C521 C 0.10483 0.23954 0.3984 0.0
C522 C 0.06929 0.24132 0.58497 0.0
C523 C 0.0717 0.20361 0.59058 0.0
H524 H 0.08043 0.28748 0.48408 0.0
H525 H 0.04995 0.25653 0.63915 0.0
S526 S 0.14053 0.14775 0.43147 0.0
N527 N 0.14131 0.18633 0.36055 0.0
N528 N 0.11039 0.15225 0.54145 0.0
C529 C 0.09989 0.18677 0.52486 0.0
C530 C 0.11664 0.20506 0.42762 0.0
C531 C 0.36325 0.1201 0.41699 0.0
C532 C 0.32589 0.11783 0.40568 0.0
C533 C 0.38092 0.0903 0.46547 0.0
C534 C 0.36104 0.06443 0.52963 0.0
H535 H 0.37794 0.13861 0.3613 0.0
H536 H 0.40876 0.08604 0.44357 0.0
S537 S 0.27321 0.08547 0.66735 0.0
N538 N 0.27751 0.11448 0.55636 0.0
N539 N 0.30911 0.05951 0.66192 0.0
C540 C 0.32678 0.07479 0.56851 0.0
C541 C 0.30984 0.10401 0.51121 0.0
C542 C 0.4489 0.32985 0.45802 0.0
C543 C 0.42682 0.32801 0.35416 0.0
C544 C 0.45484 0.36327 0.51765 0.0
C545 C 0.44 0.39447 0.46838 0.0
H546 H 0.46718 0.30807 0.47691 0.0
H547 H 0.47743 0.36538 0.57889 0.0
S548 S 0.35952 0.39635 0.27547 0.0
N549 N 0.37441 0.35443 0.26162 0.0
N550 N 0.38583 0.41707 0.37585 0.0
C551 C 0.40752 0.38938 0.40582 0.0
C552 C 0.4014 0.35565 0.34389 0.0
C553 C 0.23065 0.44882 0.46176 0.0
C554 C 0.23478 0.42835 0.35232 0.0
C555 C 0.19614 0.45511 0.50851 0.0
C556 C 0.1665 0.44038 0.44584 0.0
H557 H 0.25185 0.46663 0.49367 0.0
H558 H 0.1928 0.47735 0.57364 0.0
S559 S 0.16959 0.36103 0.23512 0.0
N560 N 0.21123 0.37629 0.23934 0.0
N561 N 0.14658 0.38661 0.33332 0.0
C562 C 0.17308 0.40839 0.37717 0.0
C563 C 0.20792 0.40273 0.32679 0.0
C564 C 0.92409 0.85741 0.13528 0.0
C565 C 0.92555 0.81967 0.14243 0.0
C566 C 0.95 0.87426 0.06356 0.0
C567 C 0.97096 0.8539 0.97922 0.0
H568 H 0.91095 0.87331 0.20639 0.0
H569 H 0.95618 0.90177 0.08588 0.0
S570 S 0.94388 0.76283 0.86572 0.0
N571 N 0.9218 0.76889 0.99566 0.0
N572 N 0.96781 0.79985 0.84714 0.0
C573 C 0.95786 0.81923 0.94847 0.0
C574 C 0.93313 0.80256 0.02855 0.0
C575 C 0.70629 1.02053 1.00073 0.0
C576 C 0.73279 0.03622 0.07427 0.0
C577 C 0.69372 0.03864 0.90028 0.0
C578 C 0.70659 0.07328 0.87345 0.0
H579 H 0.69351 0.99556 0.02598 0.0
H580 H 0.67035 0.02794 0.85456 0.0
S581 S 0.78027 0.12264 0.02773 0.0
N582 N 0.77541 0.08534 0.10457 0.0
N583 N 0.7508 0.1198 0.91644 0.0
C584 C 0.73606 0.08702 0.93747 0.0
C585 C 0.74916 0.0685 0.03913 0.0
C586 C 0.63139 0.69559 0.08786 0.0
C587 C 0.62933 0.73352 0.09972 0.0
C588 C 0.61204 0.67775 0.99523 0.0
C589 C 0.59349 0.69801 0.90841 0.0
H590 H 0.64184 0.67963 0.1604 0.0
H591 H 0.60863 0.649 1.00241 0.0
S592 S 0.62434 0.78922 0.82529 0.0
N593 N 0.63823 0.78447 0.96647 0.0
N594 N 0.6034 0.75131 0.78694 0.0
C595 C 0.60725 0.73286 0.89092 0.0
C596 C 0.62593 0.75076 0.98774 0.0
C597 C 0.85487 0.65732 0.12104 0.0
C598 C 0.8256 0.63436 0.09459 0.0
C599 C 0.88909 0.64768 0.07689 0.0
C600 C 0.8933 0.61501 1.00889 0.0
H601 H 0.85317 0.67655 0.19697 0.0
H602 H 0.91215 0.66037 0.11974 0.0
S603 S 0.82104 0.57097 0.82872 0.0
N604 N 0.80012 0.59702 0.93071 0.0
N605 N 0.86423 0.57777 0.85161 0.0
C606 C 0.86306 0.60306 0.94346 0.0
C607 C 0.82846 0.61347 0.98611 0.0
C608 C 0.06974 0.1705 0.95501 0.0
C609 C 0.04486 0.19125 0.02691 0.0
C610 C 0.06125 0.13585 0.90083 0.0
C611 C 0.02769 0.11897 0.91901 0.0
H612 H 0.09642 0.18112 0.94096 0.0
H613 H 0.08122 0.12226 0.84436 0.0
S614 S 0.95346 0.15969 0.10482 0.0
N615 N 0.98531 0.19056 0.1144 0.0
N616 N 0.96973 0.12648 0.01777 0.0
C617 C 1.00287 0.13932 0.99161 0.0
C618 C 1.01129 0.17474 0.04438 0.0
C619 C 0.38627 0.02252 0.05426 0.0
C620 C 0.36312 0.05099 0.02346 0.0
C621 C 0.41936 1.0156 0.99173 0.0
C622 C 0.43219 0.03709 0.89578 0.0
H623 H 0.37922 1.00583 0.12998 0.0
H624 H 0.43547 0.99314 0.02034 0.0
S625 S 0.38169 0.11471 0.77614 0.0
N626 N 0.35612 0.10101 0.8888 0.0
N627 N 0.41653 0.08719 0.76922 0.0
C628 C 0.40891 0.06523 0.86239 0.0
C629 C 0.37531 0.07247 0.92695 0.0
C630 C 0.52659 0.37379 0.97886 0.0
C631 C 0.49169 0.35874 0.98101 0.0
C632 C 0.5339 0.40775 0.92532 0.0
C633 C 0.50651 0.42897 0.87426 0.0
H634 H 0.54809 0.36026 0.02482 0.0
H635 H 0.56089 0.41839 0.93038 0.0
S636 S 0.41182 0.4001 0.8386 0.0
N637 N 0.43062 0.36654 0.91023 0.0
N638 N 0.4439 0.42997 0.81795 0.0
C639 C 0.47212 0.41334 0.87004 0.0
C640 C 0.4649 0.37857 0.92082 0.0
C641 C 0.18445 0.47479 0.93312 0.0
C642 C 0.20252 0.50173 1.00474 0.0
C643 C 0.15095 0.48078 0.87552 0.0
C644 C 0.1332 0.51442 0.88268 0.0
H645 H 0.19573 0.44792 0.92523 0.0
H646 H 0.13856 0.45844 0.82588 0.0
S647 S 0.16768 0.59469 0.05748 0.0
N648 N 0.1988 0.56386 0.07802 0.0
N649 N 0.13721 0.57538 0.96875 0.0
C650 C 0.15147 0.54209 0.94989 0.0
C651 C 0.18549 0.53577 1.01037 0.0
C652 C 0.03732 0.87563 0.46114 0.0
C653 C 1.00504 0.85702 0.48492 0.0
C654 C 0.04608 0.90932 0.52067 0.0
C655 C 0.02287 0.92731 0.60574 0.0
H656 H 0.05551 0.86477 0.39235 0.0
H657 H 0.07121 0.92201 0.49709 0.0
S658 S 0.93688 0.88887 0.71321 0.0
N659 N 0.9511 0.85873 0.61024 0.0
N660 N 0.96751 0.92105 0.71904 0.0
C661 C 0.99133 0.90831 0.63452 0.0
C662 C 0.98247 0.87386 0.57486 0.0
C663 C 0.66918 0.04936 0.49911 0.0
C664 C 0.69353 1.01998 0.50223 0.0
C665 C 0.63653 0.05026 0.56618 0.0
C666 C 0.62552 1.02148 0.6386 0.0
H667 H 0.6751 0.07187 0.44173 0.0
H668 H 0.61956 0.07374 0.56063 0.0
S669 S 0.68048 0.94012 0.69384 0.0
N670 N 0.70482 0.9626 0.59534 0.0
N671 N 0.64405 0.96445 0.72064 0.0
C672 C 0.65034 0.99288 0.64851 0.0
C673 C 0.68387 0.99202 0.58065 0.0
C674 C 0.52653 0.69409 0.48486 0.0
C675 C 0.5617 0.70834 0.48132 0.0
C676 C 0.5186 0.66104 0.54276 0.0
C677 C 0.54557 0.64023 0.5976 0.0
H678 H 0.50536 0.70745 0.43667 0.0
H679 H 0.49143 0.65082 0.53902 0.0
S680 S 0.64094 0.66751 0.62801 0.0
N681 N 0.6227 0.70036 0.55142 0.0
N682 N 0.60825 0.63876 0.65418 0.0
C683 C 0.58028 0.65521 0.59996 0.0
C684 C 0.58814 0.68897 0.54403 0.0
C685 C 0.86631 0.52865 0.45778 0.0
C686 C 0.8511 0.56371 0.45721 0.0
C687 C 0.89951 0.52127 0.51787 0.0
C688 C 0.92022 0.54873 0.57735 0.0
H689 H 0.85355 0.50703 0.4058 0.0
H690 H 0.9101 0.49414 0.51072 0.0
S691 S 0.89091 0.64395 0.61923 0.0
N692 N 0.85826 0.62499 0.53923 0.0
N693 N 0.92048 0.61175 0.64077 0.0
C694 C 0.9045 0.5833 0.58219 0.0
C695 C 0.87032 0.59052 0.52577 0.0
loop_
_geom_bond_atom_site_label_1
_geom_bond_atom_site_label_2
_geom_bond_distance
_geom_bond_site_symmetry_2
_ccdc_geom_bond_type
H0 C5 0.930 . S
H1 C8 0.930 . S
H2 C10 0.930 . S
H3 C4 1.016 . S
C4 H3 1.016 . S
C4 N11 1.286 . S
C5 H0 0.930 . S
C5 C6 1.397 . S
C5 C7 1.361 . S
C6 C5 1.397 . S
C6 C10 1.390 . S
C7 C5 1.361 . S
C7 C8 1.393 . S
C7 N11 1.413 . S
C8 H1 0.930 . S
C8 C7 1.393 . S
C8 C9 1.399 . S
C9 C8 1.399 . S
C9 C10 1.381 . S
C10 H2 0.930 . S
C10 C6 1.390 . S
C10 C9 1.381 . S
N11 C4 1.286 . S
N11 C7 1.413 . S
H12 C17 0.930 . S
H13 C20 0.930 . S
H14 C22 0.930 . S
H15 C16 1.016 . S
C16 H15 1.016 . S
C16 N23 1.286 . S
C17 H12 0.930 . S
C17 C18 1.397 . S
C17 C19 1.361 . S
C18 C17 1.397 . S
C18 C22 1.390 . S
C19 C17 1.361 . S
C19 C20 1.393 . S
C19 N23 1.413 . S
C20 H13 0.930 . S
C20 C19 1.393 . S
C20 C21 1.399 . S
C21 C20 1.399 . S
C21 C22 1.381 . S
C22 H14 0.930 . S
C22 C18 1.390 . S
C22 C21 1.381 . S
N23 C16 1.286 . S
N23 C19 1.413 . S
H24 C29 0.930 . S
H25 C32 0.930 . S
H26 C34 0.930 . S
H27 C28 1.016 . S
C28 H27 1.016 . S
C28 N35 1.286 . S
C29 H24 0.930 . S
C29 C30 1.397 . S
C29 C31 1.361 . S
C30 C29 1.397 . S
C30 C34 1.390 . S
C31 C29 1.361 . S
C31 C32 1.393 . S
C31 N35 1.413 . S
C32 H25 0.930 . S
C32 C31 1.393 . S
C32 C33 1.399 . S
C33 C32 1.399 . S
C33 C34 1.381 . S
C34 H26 0.930 . S
C34 C30 1.390 . S
C34 C33 1.381 . S
N35 C28 1.286 . S
N35 C31 1.413 . S
H36 C41 0.930 . S
H37 C44 0.930 . S
H38 C46 0.930 . S
H39 C40 1.016 . S
C40 H39 1.016 . S
C40 N47 1.286 . S
C41 H36 0.930 . S
C41 C42 1.397 . S
C41 C43 1.361 . S
C42 C41 1.397 . S
C42 C46 1.390 . S
C43 C41 1.361 . S
C43 C44 1.393 . S
C43 N47 1.413 . S
C44 H37 0.930 . S
C44 C43 1.393 . S
C44 C45 1.399 . S
C45 C44 1.399 . S
C45 C46 1.381 . S
C46 H38 0.930 . S
C46 C42 1.390 . S
C46 C45 1.381 . S
N47 C40 1.286 . S
N47 C43 1.413 . S
H48 C53 0.930 . S
H49 C56 0.930 . S
H50 C58 0.930 . S
H51 C52 1.016 . S
C52 H51 1.016 . S
C52 N59 1.286 . S
C53 H48 0.930 . S
C53 C54 1.397 . S
C53 C55 1.361 1_556 S
C54 C53 1.397 . S
C54 C58 1.390 . S
C55 C53 1.361 1_554 S
C55 C56 1.393 . S
C55 N59 1.413 . S
C56 H49 0.930 . S
C56 C55 1.393 . S
C56 C57 1.399 . S
C57 C56 1.399 . S
C57 C58 1.381 1_554 S
C58 H50 0.930 . S
C58 C54 1.390 . S
C58 C57 1.381 1_556 S
N59 C52 1.286 . S
N59 C55 1.413 . S
H60 C65 0.930 . S
H61 C68 0.930 . S
H62 C70 0.930 . S
H63 C64 1.016 . S
C64 H63 1.016 . S
C64 N71 1.286 . S
C65 H60 0.930 . S
C65 C66 1.397 . S
C65 C67 1.361 1_556 S
C66 C65 1.397 . S
C66 C70 1.390 . S
C67 C65 1.361 1_554 S
C67 C68 1.393 . S
C67 N71 1.413 . S
C68 H61 0.930 . S
C68 C67 1.393 . S
C68 C69 1.399 . S
C69 C68 1.399 . S
C69 C70 1.381 1_554 S
C70 H62 0.930 . S
C70 C66 1.390 . S
C70 C69 1.381 1_556 S
N71 C64 1.286 . S
N71 C67 1.413 . S
H72 C77 0.930 . S
H73 C80 0.930 . S
H74 C82 0.930 . S
H75 C76 1.016 . S
C76 H75 1.016 . S
C76 N83 1.286 . S
C77 H72 0.930 . S
C77 C78 1.397 . S
C77 C79 1.361 1_556 S
C78 C77 1.397 . S
C78 C82 1.390 . S
C79 C77 1.361 1_554 S
C79 C80 1.393 . S
C79 N83 1.413 . S
C80 H73 0.930 . S
C80 C79 1.393 . S
C80 C81 1.399 . S
C81 C80 1.399 . S
C81 C82 1.381 1_554 S
C82 H74 0.930 . S
C82 C78 1.390 . S
C82 C81 1.381 1_556 S
N83 C76 1.286 . S
N83 C79 1.413 . S
H84 C89 0.930 . S
H85 C92 0.930 . S
H86 C94 0.930 . S
H87 C88 1.016 . S
C88 H87 1.016 . S
C88 N95 1.286 . S
C89 H84 0.930 . S
C89 C90 1.397 . S
C89 C91 1.361 1_556 S
C90 C89 1.397 . S
C90 C94 1.390 . S
C91 C89 1.361 1_554 S
C91 C92 1.393 . S
C91 N95 1.413 . S
C92 H85 0.930 . S
C92 C91 1.393 . S
C92 C93 1.399 . S
C93 C92 1.399 . S
C93 C94 1.381 1_554 S
C94 H86 0.930 . S
C94 C90 1.390 . S
C94 C93 1.381 1_556 S
N95 C88 1.286 . S
N95 C91 1.413 . S
Gd96 N127 2.661 1_545 S
Gd96 N133 2.601 . S
Gd96 O140 2.545 . S
Gd96 O141 2.606 1_655 S
Gd96 O143 2.429 . S
Gd96 O144 2.545 1_655 S
Gd96 O145 2.412 . S
Gd96 O147 2.362 1_545 S
Gd96 O148 2.324 1_655 S
Gd96 C155 2.828 . S
Gd97 N106 2.661 1_566 S
Gd97 N110 2.601 1_565 S
Gd97 O141 2.362 1_565 S
Gd97 O142 2.324 1_455 S
Gd97 O146 2.545 . S
Gd97 O147 2.606 1_455 S
Gd97 O149 2.429 . S
Gd97 O150 2.545 . S
Gd97 O151 2.412 1_556 S
Gd97 C164 2.828 . S
C98 C101 1.417 . S
C98 C103 1.431 . S
C98 C104 1.412 . S
C99 C102 1.437 . S
C99 C103 1.317 . S
C99 H118 0.929 . S
C100 C101 1.426 . S
C100 C102 1.413 . S
C100 N110 1.359 1_554 S
C101 C98 1.417 . S
C101 C100 1.426 . S
C101 N106 1.350 . S
C102 C99 1.437 . S
C102 C100 1.413 . S
C102 C112 1.391 . S
C103 C98 1.431 . S
C103 C99 1.317 . S
C103 H114 0.930 . S
C104 C98 1.412 . S
C104 C105 1.355 . S
C104 H116 0.930 . S
C105 C104 1.355 . S
C105 C107 1.402 . S
C105 H117 0.930 1_455 S
N106 Gd97 2.661 1_544 S
N106 C101 1.350 . S
N106 C107 1.307 . S
C107 C105 1.402 . S
C107 N106 1.307 . S
C107 H108 0.930 1_455 S
H108 C107 0.930 1_655 S
C109 N110 1.334 1_565 S
C109 C111 1.394 . S
C109 H113 0.930 . S
N110 Gd97 2.601 1_545 S
N110 C100 1.359 1_556 S
N110 C109 1.334 1_545 S
C111 C109 1.394 . S
C111 C112 1.359 1_566 S
C111 H123 0.930 . S
C112 C102 1.391 . S
C112 C111 1.359 1_544 S
C112 H124 0.929 . S
H113 C109 0.930 . S
H114 C103 0.930 . S
H115 C132 0.930 . S
H116 C104 0.930 . S
H117 C105 0.930 1_655 S
H118 C99 0.929 . S
H119 C137 0.930 . S
H120 C128 0.930 . S
H121 C129 0.930 . S
H122 C153 0.929 . S
H123 C111 0.930 . S
H124 C112 0.929 . S
H125 C154 0.930 . S
H126 C135 0.930 . S
N127 Gd96 2.661 1_565 S
N127 C131 1.350 . S
N127 C132 1.307 1_655 S
C128 H120 0.930 . S
C128 C129 1.355 1_655 S
C128 C130 1.412 . S
C129 H121 0.930 . S
C129 C128 1.355 1_455 S
C129 C132 1.402 . S
C130 C128 1.412 . S
C130 C131 1.417 . S
C130 C154 1.431 . S
C131 N127 1.350 . S
C131 C130 1.417 . S
C131 C134 1.426 . S
C132 H115 0.930 . S
C132 N127 1.307 1_455 S
C132 C129 1.402 . S
N133 Gd96 2.601 . S
N133 C134 1.359 1_545 S
N133 C137 1.334 . S
C134 C131 1.426 . S
C134 N133 1.359 1_565 S
C134 C138 1.413 . S
C135 H126 0.930 . S
C135 C136 1.359 . S
C135 C137 1.394 . S
C136 C135 1.359 . S
C136 C138 1.391 1_545 S
C136 H139 0.929 . S
C137 H119 0.930 . S
C137 N133 1.334 . S
C137 C135 1.394 . S
C138 C134 1.413 . S
C138 C136 1.391 1_565 S
C138 C153 1.437 . S
H139 C136 0.929 . S
O140 Gd96 2.545 . S
O140 C155 1.258 . S
O141 Gd96 2.606 1_455 S
O141 Gd97 2.362 1_545 S
O141 C152 1.284 . S
O142 Gd97 2.324 1_655 S
O142 C162 1.254 1_565 S
O143 Gd96 2.429 . S
O143 C162 1.268 . S
O144 Gd96 2.545 1_455 S
O144 C152 1.250 . S
O145 Gd96 2.412 . S
O145 C155 1.252 . S
O146 Gd97 2.545 . S
O146 C164 1.258 . S
O147 Gd96 2.362 1_565 S
O147 Gd97 2.606 1_655 S
O147 C163 1.284 . S
O148 Gd96 2.324 1_455 S
O148 C171 1.254 . S
O149 Gd97 2.429 . S
O149 C171 1.268 1_565 S
O150 Gd97 2.545 . S
O150 C163 1.250 1_455 S
O151 Gd97 2.412 1_554 S
O151 C164 1.252 1_554 S
C152 O141 1.284 . S
C152 O144 1.250 . S
C153 H122 0.929 . S
C153 C138 1.437 . S
C153 C154 1.317 . S
C154 H125 0.930 . S
C154 C130 1.431 . S
C154 C153 1.317 . S
C155 Gd96 2.828 . S
C155 O140 1.258 . S
C155 O145 1.252 . S
C155 C156 1.497 . S
C156 C155 1.497 . S
C156 C157 1.395 . S
C156 C158 1.380 . S
C157 C156 1.395 . S
C157 C160 1.398 . S
C157 H172 0.930 . S
C158 C156 1.380 . S
C158 C159 1.391 . S
C158 H173 0.930 1_655 S
C159 C158 1.391 . S
C159 C161 1.387 . S
C160 C157 1.398 . S
C160 C161 1.380 . S
C160 H174 0.930 . S
C161 C159 1.387 . S
C161 C160 1.380 . S
C161 H175 0.930 . S
C162 O142 1.254 1_545 S
C162 O143 1.268 . S
C163 O147 1.284 . S
C163 O150 1.250 1_655 S
C164 Gd97 2.828 . S
C164 O146 1.258 . S
C164 O151 1.252 1_556 S
C164 C165 1.497 1_556 S
C165 C164 1.497 1_554 S
C165 C166 1.395 . S
C165 C167 1.380 . S
C166 C165 1.395 . S
C166 C169 1.398 . S
C166 H176 0.930 . S
C167 C165 1.380 . S
C167 C168 1.391 . S
C167 H177 0.930 . S
C168 C167 1.391 . S
C168 C170 1.387 . S
C169 C166 1.398 . S
C169 C170 1.380 . S
C169 H178 0.930 . S
C170 C168 1.387 . S
C170 C169 1.380 . S
C170 H179 0.930 . S
C171 O148 1.254 . S
C171 O149 1.268 1_545 S
H172 C157 0.930 . S
H173 C158 0.930 1_455 S
H174 C160 0.930 . S
H175 C161 0.930 . S
H176 C166 0.930 . S
H177 C167 0.930 . S
H178 C169 0.930 . S
H179 C170 0.930 . S
Gd180 N211 2.661 . S
Gd180 N217 2.601 . S
Gd180 O224 2.545 . S
Gd180 O225 2.606 1_565 S
Gd180 O227 2.429 . S
Gd180 O228 2.545 1_565 S
Gd180 O229 2.412 . S
Gd180 O231 2.362 . S
Gd180 O232 2.324 1_565 S
Gd180 C239 2.828 . S
Gd181 N190 2.661 1_556 S
Gd181 N194 2.601 . S
Gd181 O225 2.362 . S
Gd181 O226 2.324 1_545 S
Gd181 O230 2.545 . S
Gd181 O231 2.606 1_545 S
Gd181 O233 2.429 . S
Gd181 O234 2.545 . S
Gd181 O235 2.412 1_556 S
Gd181 C248 2.828 . S
C182 C185 1.417 . S
C182 C187 1.431 . S
C182 C188 1.412 . S
C183 C186 1.437 . S
C183 C187 1.317 . S
C183 H202 0.929 . S
C184 C185 1.426 . S
C184 C186 1.413 . S
C184 N194 1.359 1_554 S
C185 C182 1.417 . S
C185 C184 1.426 . S
C185 N190 1.350 . S
C186 C183 1.437 . S
C186 C184 1.413 . S
C186 C196 1.391 . S
C187 C182 1.431 . S
C187 C183 1.317 . S
C187 H198 0.930 . S
C188 C182 1.412 . S
C188 C189 1.355 . S
C188 H200 0.930 . S
C189 C188 1.355 . S
C189 C191 1.402 . S
C189 H201 0.930 1_545 S
N190 Gd181 2.661 1_554 S
N190 C185 1.350 . S
N190 C191 1.307 . S
C191 C189 1.402 . S
C191 N190 1.307 . S
C191 H192 0.930 1_545 S
H192 C191 0.930 1_565 S
C193 N194 1.334 . S
C193 C195 1.394 . S
C193 H197 0.930 . S
N194 Gd181 2.601 . S
N194 C184 1.359 1_556 S
N194 C193 1.334 . S
C195 C193 1.394 . S
C195 C196 1.359 1_556 S
C195 H207 0.930 . S
C196 C186 1.391 . S
C196 C195 1.359 1_554 S
C196 H208 0.929 . S
H197 C193 0.930 . S
H198 C187 0.930 . S
H199 C216 0.930 . S
H200 C188 0.930 . S
H201 C189 0.930 1_565 S
H202 C183 0.929 . S
H203 C221 0.930 . S
H204 C212 0.930 . S
H205 C213 0.930 . S
H206 C237 0.929 . S
H207 C195 0.930 . S
H208 C196 0.929 . S
H209 C238 0.930 . S
H210 C219 0.930 . S
N211 Gd180 2.661 . S
N211 C215 1.350 . S
N211 C216 1.307 1_565 S
C212 H204 0.930 . S
C212 C213 1.355 1_565 S
C212 C214 1.412 . S
C213 H205 0.930 . S
C213 C212 1.355 1_545 S
C213 C216 1.402 . S
C214 C212 1.412 . S
C214 C215 1.417 . S
C214 C238 1.431 . S
C215 N211 1.350 . S
C215 C214 1.417 . S
C215 C218 1.426 . S
C216 H199 0.930 . S
C216 N211 1.307 1_545 S
C216 C213 1.402 . S
N217 Gd180 2.601 . S
N217 C218 1.359 . S
N217 C221 1.334 . S
C218 C215 1.426 . S
C218 N217 1.359 . S
C218 C222 1.413 . S
C219 H210 0.930 . S
C219 C220 1.359 . S
C219 C221 1.394 . S
C220 C219 1.359 . S
C220 C222 1.391 . S
C220 H223 0.929 . S
C221 H203 0.930 . S
C221 N217 1.334 . S
C221 C219 1.394 . S
C222 C218 1.413 . S
C222 C220 1.391 . S
C222 C237 1.437 . S
H223 C220 0.929 . S
O224 Gd180 2.545 . S
O224 C239 1.258 . S
O225 Gd180 2.606 1_545 S
O225 Gd181 2.362 . S
O225 C236 1.284 . S
O226 Gd181 2.324 1_565 S
O226 C246 1.254 . S
O227 Gd180 2.429 . S
O227 C246 1.268 . S
O228 Gd180 2.545 1_545 S
O228 C236 1.250 . S
O229 Gd180 2.412 . S
O229 C239 1.252 . S
O230 Gd181 2.545 . S
O230 C248 1.258 . S
O231 Gd180 2.362 . S
O231 Gd181 2.606 1_565 S
O231 C247 1.284 . S
O232 Gd180 2.324 1_545 S
O232 C255 1.254 . S
O233 Gd181 2.429 . S
O233 C255 1.268 . S
O234 Gd181 2.545 . S
O234 C247 1.250 1_545 S
O235 Gd181 2.412 1_554 S
O235 C248 1.252 1_554 S
C236 O225 1.284 . S
C236 O228 1.250 . S
C237 H206 0.929 . S
C237 C222 1.437 . S
C237 C238 1.317 . S
C238 H209 0.930 . S
C238 C214 1.431 . S
C238 C237 1.317 . S
C239 Gd180 2.828 . S
C239 O224 1.258 . S
C239 O229 1.252 . S
C239 C240 1.497 . S
C240 C239 1.497 . S
C240 C241 1.395 . S
C240 C242 1.380 . S
C241 C240 1.395 . S
C241 C244 1.398 . S
C241 H256 0.930 . S
C242 C240 1.380 . S
C242 C243 1.391 . S
C242 H257 0.930 1_565 S
C243 C242 1.391 . S
C243 C245 1.387 . S
C244 C241 1.398 . S
C244 C245 1.380 . S
C244 H258 0.930 . S
C245 C243 1.387 . S
C245 C244 1.380 . S
C245 H259 0.930 . S
C246 O226 1.254 . S
C246 O227 1.268 . S
C247 O231 1.284 . S
C247 O234 1.250 1_565 S
C248 Gd181 2.828 . S
C248 O230 1.258 . S
C248 O235 1.252 1_556 S
C248 C249 1.497 1_556 S
C249 C248 1.497 1_554 S
C249 C250 1.395 . S
C249 C251 1.380 . S
C250 C249 1.395 . S
C250 C253 1.398 . S
C250 H260 0.930 . S
C251 C249 1.380 . S
C251 C252 1.391 . S
C251 H261 0.930 . S
C252 C251 1.391 . S
C252 C254 1.387 . S
C253 C250 1.398 . S
C253 C254 1.380 . S
C253 H262 0.930 . S
C254 C252 1.387 . S
C254 C253 1.380 . S
C254 H263 0.930 . S
C255 O232 1.254 . S
C255 O233 1.268 . S
H256 C241 0.930 . S
H257 C242 0.930 1_545 S
H258 C244 0.930 . S
H259 C245 0.930 . S
H260 C250 0.930 . S
H261 C251 0.930 . S
H262 C253 0.930 . S
H263 C254 0.930 . S
Gd264 N295 2.661 . S
Gd264 N301 2.601 . S
Gd264 O308 2.545 1_556 S
Gd264 O309 2.606 . S
Gd264 O311 2.429 . S
Gd264 O312 2.545 . S
Gd264 O313 2.412 . S
Gd264 O315 2.362 . S
Gd264 O316 2.324 . S
Gd264 C323 2.828 1_556 S
Gd265 N274 2.661 . S
Gd265 N278 2.601 . S
Gd265 O309 2.362 . S
Gd265 O310 2.324 . S
Gd265 O314 2.545 . S
Gd265 O315 2.606 . S
Gd265 O317 2.429 . S
Gd265 O318 2.545 . S
Gd265 O319 2.412 . S
Gd265 C332 2.828 . S
C266 C269 1.417 . S
C266 C271 1.431 . S
C266 C272 1.412 . S
C267 C270 1.437 . S
C267 C271 1.317 . S
C267 H286 0.929 . S
C268 C269 1.426 . S
C268 C270 1.413 . S
C268 N278 1.359 . S
C269 C266 1.417 . S
C269 C268 1.426 . S
C269 N274 1.350 . S
C270 C267 1.437 . S
C270 C268 1.413 . S
C270 C280 1.391 . S
C271 C266 1.431 . S
C271 C267 1.317 . S
C271 H282 0.930 . S
C272 C266 1.412 . S
C272 C273 1.355 . S
C272 H284 0.930 . S
C273 C272 1.355 . S
C273 C275 1.402 . S
C273 H285 0.930 . S
N274 Gd265 2.661 . S
N274 C269 1.350 . S
N274 C275 1.307 . S
C275 C273 1.402 . S
C275 N274 1.307 . S
C275 H276 0.930 . S
H276 C275 0.930 . S
C277 N278 1.334 . S
C277 C279 1.394 . S
C277 H281 0.930 . S
N278 Gd265 2.601 . S
N278 C268 1.359 . S
N278 C277 1.334 . S
C279 C277 1.394 . S
C279 C280 1.359 . S
C279 H291 0.930 . S
C280 C270 1.391 . S
C280 C279 1.359 . S
C280 H292 0.929 . S
H281 C277 0.930 . S
H282 C271 0.930 . S
H283 C300 0.930 . S
H284 C272 0.930 . S
H285 C273 0.930 . S
H286 C267 0.929 . S
H287 C305 0.930 . S
H288 C296 0.930 . S
H289 C297 0.930 . S
H290 C321 0.929 . S
H291 C279 0.930 . S
H292 C280 0.929 . S
H293 C322 0.930 . S
H294 C303 0.930 . S
N295 Gd264 2.661 . S
N295 C299 1.350 . S
N295 C300 1.307 . S
C296 H288 0.930 . S
C296 C297 1.355 . S
C296 C298 1.412 . S
C297 H289 0.930 . S
C297 C296 1.355 . S
C297 C300 1.402 . S
C298 C296 1.412 . S
C298 C299 1.417 . S
C298 C322 1.431 . S
C299 N295 1.350 . S
C299 C298 1.417 . S
C299 C302 1.426 . S
C300 H283 0.930 . S
C300 N295 1.307 . S
C300 C297 1.402 . S
N301 Gd264 2.601 . S
N301 C302 1.359 . S
N301 C305 1.334 1_556 S
C302 C299 1.426 . S
C302 N301 1.359 . S
C302 C306 1.413 . S
C303 H294 0.930 . S
C303 C304 1.359 . S
C303 C305 1.394 . S
C304 C303 1.359 . S
C304 C306 1.391 1_554 S
C304 H307 0.929 . S
C305 H287 0.930 . S
C305 N301 1.334 1_554 S
C305 C303 1.394 . S
C306 C302 1.413 . S
C306 C304 1.391 1_556 S
C306 C321 1.437 . S
H307 C304 0.929 . S
O308 Gd264 2.545 1_554 S
O308 C323 1.258 . S
O309 Gd264 2.606 . S
O309 Gd265 2.362 . S
O309 C320 1.284 . S
O310 Gd265 2.324 . S
O310 C330 1.254 . S
O311 Gd264 2.429 . S
O311 C330 1.268 . S
O312 Gd264 2.545 . S
O312 C320 1.250 . S
O313 Gd264 2.412 . S
O313 C323 1.252 1_556 S
O314 Gd265 2.545 . S
O314 C332 1.258 . S
O315 Gd264 2.362 . S
O315 Gd265 2.606 . S
O315 C331 1.284 . S
O316 Gd264 2.324 . S
O316 C339 1.254 . S
O317 Gd265 2.429 . S
O317 C339 1.268 . S
O318 Gd265 2.545 . S
O318 C331 1.250 . S
O319 Gd265 2.412 . S
O319 C332 1.252 . S
C320 O309 1.284 . S
C320 O312 1.250 . S
C321 H290 0.929 . S
C321 C306 1.437 . S
C321 C322 1.317 . S
C322 H293 0.930 . S
C322 C298 1.431 . S
C322 C321 1.317 . S
C323 Gd264 2.828 1_554 S
C323 O308 1.258 . S
C323 O313 1.252 1_554 S
C323 C324 1.497 . S
C324 C323 1.497 . S
C324 C325 1.395 . S
C324 C326 1.380 . S
C325 C324 1.395 . S
C325 C328 1.398 . S
C325 H340 0.930 . S
C326 C324 1.380 . S
C326 C327 1.391 . S
C326 H341 0.930 . S
C327 C326 1.391 . S
C327 C329 1.387 . S
C328 C325 1.398 . S
C328 C329 1.380 . S
C328 H342 0.930 . S
C329 C327 1.387 . S
C329 C328 1.380 . S
C329 H343 0.930 . S
C330 O310 1.254 . S
C330 O311 1.268 . S
C331 O315 1.284 . S
C331 O318 1.250 . S
C332 Gd265 2.828 . S
C332 O314 1.258 . S
C332 O319 1.252 . S
C332 C333 1.497 . S
C333 C332 1.497 . S
C333 C334 1.395 . S
C333 C335 1.380 . S
C334 C333 1.395 . S
C334 C337 1.398 . S
C334 H344 0.930 . S
C335 C333 1.380 . S
C335 C336 1.391 . S
C335 H345 0.930 . S
C336 C335 1.391 . S
C336 C338 1.387 . S
C337 C334 1.398 . S
C337 C338 1.380 . S
C337 H346 0.930 . S
C338 C336 1.387 . S
C338 C337 1.380 . S
C338 H347 0.930 . S
C339 O316 1.254 . S
C339 O317 1.268 . S
H340 C325 0.930 . S
H341 C326 0.930 . S
H342 C328 0.930 . S
H343 C329 0.930 . S
H344 C334 0.930 . S
H345 C335 0.930 . S
H346 C337 0.930 . S
H347 C338 0.930 . S
Gd348 N379 2.661 . S
Gd348 N385 2.605 . S
Gd348 O392 2.545 1_556 S
Gd348 O393 2.606 1_655 S
Gd348 O395 2.429 1_655 S
Gd348 O396 2.545 . S
Gd348 O397 2.412 . S
Gd348 O399 2.362 1_655 S
Gd348 O400 2.324 . S
Gd348 C407 2.828 1_556 S
Gd349 N358 2.661 . S
Gd349 N362 2.601 . S
Gd349 O393 2.362 . S
Gd349 O394 2.324 . S
Gd349 O398 2.545 . S
Gd349 O399 2.606 . S
Gd349 O401 2.429 1_455 S
Gd349 O402 2.545 . S
Gd349 O403 2.412 . S
Gd349 C416 2.828 . S
C350 C353 1.417 . S
C350 C355 1.431 . S
C350 C356 1.412 . S
C351 C354 1.437 . S
C351 C355 1.317 . S
C351 H370 0.929 . S
C352 C353 1.426 . S
C352 C354 1.413 . S
C352 N362 1.359 . S
C353 C350 1.417 . S
C353 C352 1.426 . S
C353 N358 1.350 . S
C354 C351 1.437 . S
C354 C352 1.413 . S
C354 C364 1.391 . S
C355 C350 1.431 . S
C355 C351 1.317 . S
C355 H366 0.930 . S
C356 C350 1.412 . S
C356 C357 1.355 . S
C356 H368 0.930 . S
C357 C356 1.355 . S
C357 C359 1.402 . S
C357 H369 0.930 . S
N358 Gd349 2.661 . S
N358 C353 1.350 . S
N358 C359 1.307 . S
C359 C357 1.402 . S
C359 N358 1.307 . S
C359 H360 0.930 . S
H360 C359 0.930 . S
C361 N362 1.334 1_655 S
C361 C363 1.394 . S
C361 H365 0.930 . S
N362 Gd349 2.601 . S
N362 C352 1.359 . S
N362 C361 1.334 1_455 S
C363 C361 1.394 . S
C363 C364 1.359 1_655 S
C363 H375 0.930 . S
C364 C354 1.391 . S
C364 C363 1.359 1_455 S
C364 H376 0.929 1_455 S
H365 C361 0.930 . S
H366 C355 0.930 . S
H367 C384 0.930 . S
H368 C356 0.930 . S
H369 C357 0.930 . S
H370 C351 0.929 . S
H371 C389 0.930 . S
H372 C380 0.930 . S
H373 C381 0.930 . S
H374 C405 0.929 . S
H375 C363 0.930 . S
H376 C364 0.929 1_655 S
H377 C406 0.930 . S
H378 C387 0.930 . S
N379 Gd348 2.661 . S
N379 C383 1.350 . S
N379 C384 1.307 . S
C380 H372 0.930 . S
C380 C381 1.355 . S
C380 C382 1.412 . S
C381 H373 0.930 . S
C381 C380 1.355 . S
C381 C384 1.402 . S
C382 C380 1.412 . S
C382 C383 1.417 . S
C382 C406 1.431 . S
C383 N379 1.350 . S
C383 C382 1.417 . S
C383 C386 1.426 . S
C384 H367 0.930 . S
C384 N379 1.307 . S
C384 C381 1.402 . S
N385 Gd348 2.605 . S
N385 C386 1.367 . S
N385 C389 1.323 1_656 S
C386 C383 1.426 . S
C386 N385 1.367 . S
C386 C390 1.413 . S
C387 H378 0.930 . S
C387 C388 1.359 . S
C387 C389 1.394 . S
C388 C387 1.359 . S
C388 C390 1.391 1_454 S
C388 H391 0.929 . S
C389 H371 0.930 . S
C389 N385 1.323 1_454 S
C389 C387 1.394 . S
C390 C386 1.413 . S
C390 C388 1.391 1_656 S
C390 C405 1.437 . S
H391 C388 0.929 . S
O392 Gd348 2.545 1_554 S
O392 C407 1.258 . S
O393 Gd348 2.606 1_455 S
O393 Gd349 2.362 . S
O393 C404 1.284 1_455 S
O394 Gd349 2.324 . S
O394 C414 1.254 . S
O395 Gd348 2.429 1_455 S
O395 C414 1.268 . S
O396 Gd348 2.545 . S
O396 C404 1.250 . S
O397 Gd348 2.412 . S
O397 C407 1.252 1_556 S
O398 Gd349 2.545 . S
O398 C416 1.258 . S
O399 Gd348 2.362 1_455 S
O399 Gd349 2.606 . S
O399 C415 1.284 . S
O400 Gd348 2.324 . S
O400 C423 1.254 . S
O401 Gd349 2.429 1_655 S
O401 C423 1.268 . S
O402 Gd349 2.545 . S
O402 C415 1.250 . S
O403 Gd349 2.412 . S
O403 C416 1.252 . S
C404 O393 1.284 1_655 S
C404 O396 1.250 . S
C405 H374 0.929 . S
C405 C390 1.437 . S
C405 C406 1.317 . S
C406 H377 0.930 . S
C406 C382 1.431 . S
C406 C405 1.317 . S
C407 Gd348 2.828 1_554 S
C407 O392 1.258 . S
C407 O397 1.252 1_554 S
C407 C408 1.497 . S
C408 C407 1.497 . S
C408 C409 1.395 . S
C408 C410 1.380 . S
C409 C408 1.395 . S
C409 C412 1.398 . S
C409 H424 0.930 . S
C410 C408 1.380 . S
C410 C411 1.391 . S
C410 H425 0.930 . S
C411 C410 1.391 . S
C411 C413 1.387 . S
C412 C409 1.398 . S
C412 C413 1.380 . S
C412 H426 0.930 . S
C413 C411 1.387 . S
C413 C412 1.380 . S
C413 H427 0.930 . S
C414 O394 1.254 . S
C414 O395 1.268 . S
C415 O399 1.284 . S
C415 O402 1.250 . S
C416 Gd349 2.828 . S
C416 O398 1.258 . S
C416 O403 1.252 . S
C416 C417 1.497 . S
C417 C416 1.497 . S
C417 C418 1.395 . S
C417 C419 1.380 . S
C418 C417 1.395 . S
C418 C421 1.398 . S
C418 H428 0.930 . S
C419 C417 1.380 . S
C419 C420 1.391 . S
C419 H429 0.930 . S
C420 C419 1.391 . S
C420 C422 1.387 . S
C421 C418 1.398 . S
C421 C422 1.380 . S
C421 H430 0.930 . S
C422 C420 1.387 . S
C422 C421 1.380 . S
C422 H431 0.930 . S
C423 O400 1.254 . S
C423 O401 1.268 . S
H424 C409 0.930 . S
H425 C410 0.930 . S
H426 C412 0.930 . S
H427 C413 0.930 . S
H428 C418 0.930 . S
H429 C419 0.930 . S
H430 C421 0.930 . S
H431 C422 0.930 . S
C432 C433 1.369 . S
C432 C434 1.419 . S
C432 H436 0.931 1_545 S
C433 C432 1.369 . S
C433 C442 1.429 . S
C434 C432 1.419 . S
C434 C435 1.363 . S
C434 H437 0.929 1_545 S
C435 C434 1.363 . S
C435 C441 1.428 . S
H436 C432 0.931 1_565 S
H437 C434 0.929 1_565 S
S438 N439 1.613 . S
S438 N440 1.610 . S
N439 S438 1.613 . S
N439 C442 1.350 . S
N440 S438 1.610 . S
N440 C441 1.351 . S
C441 C435 1.428 . S
C441 N440 1.351 . S
C441 C442 1.434 . S
C442 C433 1.429 . S
C442 N439 1.350 . S
C442 C441 1.434 . S
C443 C444 1.369 . S
C443 C445 1.419 . S
C443 H447 0.930 . S
C444 C443 1.369 . S
C444 C453 1.429 . S
C445 C443 1.419 . S
C445 C446 1.363 . S
C445 H448 0.929 . S
C446 C445 1.363 . S
C446 C452 1.428 . S
H447 C443 0.930 . S
H448 C445 0.929 . S
S449 N450 1.613 . S
S449 N451 1.610 . S
N450 S449 1.613 . S
N450 C453 1.350 . S
N451 S449 1.610 . S
N451 C452 1.351 . S
C452 C446 1.428 . S
C452 N451 1.351 . S
C452 C453 1.434 . S
C453 C444 1.429 . S
C453 N450 1.350 . S
C453 C452 1.434 . S
C454 C455 1.369 . S
C454 C456 1.419 . S
C454 H458 0.930 . S
C455 C454 1.369 . S
C455 C464 1.429 . S
C456 C454 1.419 . S
C456 C457 1.363 . S
C456 H459 0.929 . S
C457 C456 1.363 . S
C457 C463 1.428 . S
H458 C454 0.930 . S
H459 C456 0.929 . S
S460 N461 1.613 . S
S460 N462 1.610 . S
N461 S460 1.613 . S
N461 C464 1.350 . S
N462 S460 1.610 . S
N462 C463 1.351 . S
C463 C457 1.428 . S
C463 N462 1.351 . S
C463 C464 1.434 . S
C464 C455 1.429 . S
C464 N461 1.350 . S
C464 C463 1.434 . S
C465 C466 1.369 . S
C465 C467 1.419 . S
C465 H469 0.930 . S
C466 C465 1.369 . S
C466 C475 1.429 . S
C467 C465 1.419 . S
C467 C468 1.363 . S
C467 H470 0.929 . S
C468 C467 1.363 . S
C468 C474 1.428 . S
H469 C465 0.930 . S
H470 C467 0.929 . S
S471 N472 1.613 . S
S471 N473 1.610 . S
N472 S471 1.613 . S
N472 C475 1.350 . S
N473 S471 1.610 . S
N473 C474 1.351 . S
C474 C468 1.428 . S
C474 N473 1.351 . S
C474 C475 1.434 . S
C475 C466 1.429 . S
C475 N472 1.350 . S
C475 C474 1.434 . S
C476 C477 1.369 . S
C476 C478 1.419 . S
C476 H480 0.930 . S
C477 C476 1.369 . S
C477 C486 1.429 1_565 S
C478 C476 1.419 . S
C478 C479 1.363 1_554 S
C478 H481 0.929 1_554 S
C479 C478 1.363 1_556 S
C479 C485 1.428 1_566 S
H480 C476 0.930 . S
H481 C478 0.929 1_556 S
S482 N483 1.613 . S
S482 N484 1.610 . S
N483 S482 1.613 . S
N483 C486 1.350 . S
N484 S482 1.610 . S
N484 C485 1.351 . S
C485 C479 1.428 1_544 S
C485 N484 1.351 . S
C485 C486 1.434 . S
C486 C477 1.429 1_545 S
C486 N483 1.350 . S
C486 C485 1.434 . S
C487 C488 1.369 . S
C487 C489 1.419 . S
C487 H491 0.930 . S
C488 C487 1.369 . S
C488 C497 1.429 . S
C489 C487 1.419 . S
C489 C490 1.363 1_554 S
C489 H492 0.929 . S
C490 C489 1.363 1_556 S
C490 C496 1.428 1_556 S
H491 C487 0.930 . S
H492 C489 0.929 . S
S493 N494 1.613 . S
S493 N495 1.610 1_554 S
N494 S493 1.613 . S
N494 C497 1.350 . S
N495 S493 1.610 1_556 S
N495 C496 1.351 1_556 S
C496 C490 1.428 1_554 S
C496 N495 1.351 1_554 S
C496 C497 1.434 . S
C497 C488 1.429 . S
C497 N494 1.350 . S
C497 C496 1.434 . S
C498 C499 1.369 . S
C498 C500 1.419 . S
C498 H502 0.930 . S
C499 C498 1.369 . S
C499 C508 1.429 . S
C500 C498 1.419 . S
C500 C501 1.363 1_554 S
C500 H503 0.929 1_554 S
C501 C500 1.363 1_556 S
C501 C507 1.428 1_556 S
H502 C498 0.930 . S
H503 C500 0.929 1_556 S
S504 N505 1.613 . S
S504 N506 1.610 . S
N505 S504 1.613 . S
N505 C508 1.350 . S
N506 S504 1.610 . S
N506 C507 1.351 . S
C507 C501 1.428 1_554 S
C507 N506 1.351 . S
C507 C508 1.434 . S
C508 C499 1.429 . S
C508 N505 1.350 . S
C508 C507 1.434 . S
C509 C510 1.369 . S
C509 C511 1.419 . S
C509 H513 0.930 . S
C510 C509 1.369 . S
C510 C519 1.429 . S
C511 C509 1.419 . S
C511 C512 1.363 1_554 S
C511 H514 0.929 1_554 S
C512 C511 1.363 1_556 S
C512 C518 1.428 1_556 S
H513 C509 0.930 . S
H514 C511 0.929 1_556 S
S515 N516 1.613 . S
S515 N517 1.610 . S
N516 S515 1.613 . S
N516 C519 1.350 . S
N517 S515 1.610 . S
N517 C518 1.351 . S
C518 C512 1.428 1_554 S
C518 N517 1.351 . S
C518 C519 1.434 . S
C519 C510 1.429 . S
C519 N516 1.350 . S
C519 C518 1.434 . S
C520 C521 1.369 . S
C520 C522 1.419 1_455 S
C520 H524 0.930 . S
C521 C520 1.369 . S
C521 C530 1.429 . S
C522 C520 1.419 1_655 S
C522 C523 1.364 . S
C522 H525 0.929 . S
C523 C522 1.364 . S
C523 C529 1.423 1_655 S
H524 C520 0.930 . S
H525 C522 0.929 . S
S526 N527 1.613 . S
S526 N528 1.610 . S
N527 S526 1.613 . S
N527 C530 1.350 . S
N528 S526 1.610 . S
N528 C529 1.351 . S
C529 C523 1.423 1_455 S
C529 N528 1.351 . S
C529 C530 1.434 . S
C530 C521 1.429 . S
C530 N527 1.350 . S
C530 C529 1.434 . S
C531 C532 1.369 . S
C531 C533 1.419 . S
C531 H535 0.930 . S
C532 C531 1.369 . S
C532 C541 1.429 . S
C533 C531 1.419 . S
C533 C534 1.350 1_545 S
C533 H536 0.929 . S
C534 C533 1.350 1_565 S
C534 C540 1.432 . S
H535 C531 0.930 . S
H536 C533 0.929 . S
S537 N538 1.613 1_565 S
S537 N539 1.610 . S
N538 S537 1.613 1_545 S
N538 C541 1.350 . S
N539 S537 1.610 . S
N539 C540 1.351 . S
C540 C534 1.432 . S
C540 N539 1.351 . S
C540 C541 1.434 1_565 S
C541 C532 1.429 . S
C541 N538 1.350 . S
C541 C540 1.434 1_545 S
C542 C543 1.369 . S
C542 C544 1.419 . S
C542 H546 0.930 1_554 S
C543 C542 1.369 . S
C543 C552 1.429 . S
C544 C542 1.419 . S
C544 C545 1.363 . S
C544 H547 0.929 . S
C545 C544 1.363 . S
C545 C551 1.428 . S
H546 C542 0.930 1_556 S
H547 C544 0.929 . S
S548 N549 1.613 . S
S548 N550 1.610 . S
N549 S548 1.613 . S
N549 C552 1.350 . S
N550 S548 1.610 . S
N550 C551 1.351 . S
C551 C545 1.428 . S
C551 N550 1.351 . S
C551 C552 1.434 . S
C552 C543 1.429 . S
C552 N549 1.350 . S
C552 C551 1.434 . S
C553 C554 1.369 . S
C553 C555 1.419 . S
C553 H557 0.930 . S
C554 C553 1.369 . S
C554 C563 1.429 . S
C555 C553 1.419 . S
C555 C556 1.363 . S
C555 H558 0.929 . S
C556 C555 1.363 . S
C556 C562 1.428 . S
H557 C553 0.930 . S
H558 C555 0.929 . S
S559 N560 1.613 . S
S559 N561 1.610 . S
N560 S559 1.613 . S
N560 C563 1.350 . S
N561 S559 1.610 . S
N561 C562 1.351 . S
C562 C556 1.428 . S
C562 N561 1.351 . S
C562 C563 1.434 . S
C563 C554 1.429 . S
C563 N560 1.350 . S
C563 C562 1.434 . S
C564 C565 1.369 . S
C564 C566 1.419 . S
C564 H568 0.930 . S
C565 C564 1.369 . S
C565 C574 1.404 1_655 S
C566 C564 1.419 . S
C566 C567 1.363 1_655 S
C566 H569 0.929 . S
C567 C566 1.363 1_455 S
C567 C573 1.428 . S
H568 C564 0.930 . S
H569 C566 0.929 . S
S570 N571 1.613 . S
S570 N572 1.610 . S
N571 S570 1.613 . S
N571 C574 1.360 . S
N572 S570 1.610 . S
N572 C573 1.351 . S
C573 C567 1.428 . S
C573 N572 1.351 . S
C573 C574 1.451 . S
C574 C565 1.404 1_455 S
C574 N571 1.360 . S
C574 C573 1.451 . S
C575 C576 1.369 . S
C575 C577 1.419 . S
C575 H579 0.930 . S
C576 C575 1.369 . S
C576 C585 1.429 . S
C577 C575 1.419 . S
C577 C578 1.363 1_565 S
C577 H580 0.929 . S
C578 C577 1.363 1_545 S
C578 C584 1.428 . S
H579 C575 0.930 . S
H580 C577 0.929 . S
S581 N582 1.589 1_545 S
S581 N583 1.610 . S
N582 S581 1.589 1_565 S
N582 C585 1.352 . S
N583 S581 1.610 . S
N583 C584 1.351 . S
C584 C578 1.428 . S
C584 N583 1.351 . S
C584 C585 1.434 1_545 S
C585 C576 1.429 . S
C585 N582 1.352 . S
C585 C584 1.434 1_565 S
C586 C587 1.369 . S
C586 C588 1.419 . S
C586 H590 0.930 . S
C587 C586 1.369 . S
C587 C596 1.429 . S
C588 C586 1.419 . S
C588 C589 1.363 . S
C588 H591 0.929 . S
C589 C588 1.363 . S
C589 C595 1.428 . S
H590 C586 0.930 . S
H591 C588 0.929 . S
S592 N593 1.613 1_556 S
S592 N594 1.610 1_556 S
N593 S592 1.613 1_554 S
N593 C596 1.350 . S
N594 S592 1.610 1_554 S
N594 C595 1.351 . S
C595 C589 1.428 . S
C595 N594 1.351 . S
C595 C596 1.434 . S
C596 C587 1.429 . S
C596 N593 1.350 . S
C596 C595 1.434 . S
C597 C598 1.369 . S
C597 C599 1.419 . S
C597 H601 0.930 . S
C598 C597 1.369 . S
C598 C607 1.429 . S
C599 C597 1.419 . S
C599 C600 1.363 . S
C599 H602 0.929 . S
C600 C599 1.363 . S
C600 C606 1.428 . S
H601 C597 0.930 . S
H602 C599 0.929 . S
S603 N604 1.613 . S
S603 N605 1.610 . S
N604 S603 1.613 . S
N604 C607 1.350 . S
N605 S603 1.610 . S
N605 C606 1.351 . S
C606 C600 1.428 . S
C606 N605 1.351 . S
C606 C607 1.434 . S
C607 C598 1.429 . S
C607 N604 1.350 . S
C607 C606 1.434 . S
C608 C609 1.369 . S
C608 C610 1.419 . S
C608 H612 0.930 . S
C609 C608 1.369 . S
C609 C618 1.429 . S
C610 C608 1.419 . S
C610 C611 1.363 . S
C610 H613 0.929 . S
C611 C610 1.363 . S
C611 C617 1.428 . S
H612 C608 0.930 . S
H613 C610 0.929 . S
S614 N615 1.613 1_654 S
S614 N616 1.617 1_554 S
N615 S614 1.613 1_456 S
N615 C618 1.350 . S
N616 S614 1.617 1_556 S
N616 C617 1.337 1_655 S
C617 C611 1.428 . S
C617 N616 1.337 1_455 S
C617 C618 1.434 . S
C618 C609 1.429 . S
C618 N615 1.350 . S
C618 C617 1.434 . S
C619 C620 1.369 . S
C619 C621 1.419 . S
C619 H623 0.930 . S
C620 C619 1.369 . S
C620 C629 1.429 . S
C621 C619 1.419 . S
C621 C622 1.363 . S
C621 H624 0.929 1_545 S
C622 C621 1.363 . S
C622 C628 1.428 . S
H623 C619 0.930 . S
H624 C621 0.929 1_565 S
S625 N626 1.613 . S
S625 N627 1.610 . S
N626 S625 1.613 . S
N626 C629 1.350 . S
N627 S625 1.610 . S
N627 C628 1.351 . S
C628 C622 1.428 . S
C628 N627 1.351 . S
C628 C629 1.434 . S
C629 C620 1.429 . S
C629 N626 1.350 . S
C629 C628 1.434 . S
C630 C631 1.369 . S
C630 C632 1.419 . S
C630 H634 0.930 . S
C631 C630 1.369 . S
C631 C640 1.429 . S
C632 C630 1.419 . S
C632 C633 1.363 . S
C632 H635 0.929 . S
C633 C632 1.363 . S
C633 C639 1.428 . S
H634 C630 0.930 . S
H635 C632 0.929 . S
S636 N637 1.613 . S
S636 N638 1.610 . S
N637 S636 1.613 . S
N637 C640 1.350 . S
N638 S636 1.610 . S
N638 C639 1.351 . S
C639 C633 1.428 . S
C639 N638 1.351 . S
C639 C640 1.434 . S
C640 C631 1.429 . S
C640 N637 1.350 . S
C640 C639 1.434 . S
C641 C642 1.369 . S
C641 C643 1.419 . S
C641 H645 0.930 . S
C642 C641 1.369 . S
C642 C651 1.429 . S
C643 C641 1.419 . S
C643 C644 1.363 . S
C643 H646 0.929 . S
C644 C643 1.363 . S
C644 C650 1.428 . S
H645 C641 0.930 . S
H646 C643 0.929 . S
S647 N648 1.613 . S
S647 N649 1.610 . S
N648 S647 1.613 . S
N648 C651 1.350 . S
N649 S647 1.610 . S
N649 C650 1.351 . S
C650 C644 1.428 . S
C650 N649 1.351 . S
C650 C651 1.434 . S
C651 C642 1.429 . S
C651 N648 1.350 . S
C651 C650 1.434 . S
C652 C653 1.369 . S
C652 C654 1.419 . S
C652 H656 0.930 1_655 S
C653 C652 1.369 . S
C653 C662 1.429 . S
C654 C652 1.419 . S
C654 C655 1.363 . S
C654 H657 0.929 1_655 S
C655 C654 1.363 . S
C655 C661 1.428 . S
H656 C652 0.930 1_455 S
H657 C654 0.929 1_455 S
S658 N659 1.613 . S
S658 N660 1.610 . S
N659 S658 1.613 . S
N659 C662 1.350 . S
N660 S658 1.610 . S
N660 C661 1.351 . S
C661 C655 1.428 . S
C661 N660 1.351 . S
C661 C662 1.434 . S
C662 C653 1.429 . S
C662 N659 1.350 . S
C662 C661 1.434 . S
C663 C664 1.369 . S
C663 C665 1.419 . S
C663 H667 0.930 . S
C664 C663 1.369 . S
C664 C673 1.429 . S
C665 C663 1.419 . S
C665 C666 1.363 . S
C665 H668 0.929 . S
C666 C665 1.363 . S
C666 C672 1.428 . S
H667 C663 0.930 . S
H668 C665 0.929 . S
S669 N670 1.613 . S
S669 N671 1.610 . S
N670 S669 1.613 . S
N670 C673 1.350 . S
N671 S669 1.610 . S
N671 C672 1.351 . S
C672 C666 1.428 . S
C672 N671 1.351 . S
C672 C673 1.434 . S
C673 C664 1.429 . S
C673 N670 1.350 . S
C673 C672 1.434 . S
C674 C675 1.369 . S
C674 C676 1.419 . S
C674 H678 0.930 . S
C675 C674 1.369 . S
C675 C684 1.429 . S
C676 C674 1.419 . S
C676 C677 1.363 . S
C676 H679 0.929 . S
C677 C676 1.363 . S
C677 C683 1.428 . S
H678 C674 0.930 . S
H679 C676 0.929 . S
S680 N681 1.613 . S
S680 N682 1.610 . S
N681 S680 1.613 . S
N681 C684 1.350 . S
N682 S680 1.610 . S
N682 C683 1.351 . S
C683 C677 1.428 . S
C683 N682 1.351 . S
C683 C684 1.434 . S
C684 C675 1.429 . S
C684 N681 1.350 . S
C684 C683 1.434 . S
C685 C686 1.369 . S
C685 C687 1.419 . S
C685 H689 0.930 . S
C686 C685 1.369 . S
C686 C695 1.429 . S
C687 C685 1.419 . S
C687 C688 1.363 . S
C687 H690 0.929 . S
C688 C687 1.363 . S
C688 C694 1.428 . S
H689 C685 0.930 . S
H690 C687 0.929 . S
S691 N692 1.613 . S
S691 N693 1.610 . S
N692 S691 1.613 . S
N692 C695 1.350 . S
N693 S691 1.610 . S
N693 C694 1.351 . S
C694 C688 1.428 . S
C694 N693 1.351 . S
C694 C695 1.434 . S
C695 C686 1.429 . S
C695 N692 1.350 . S
C695 C694 1.434 . S
C433 C76 1.937 . S
C435 C171 2.097 . S
C446 C255 2.104 . S
C444 C88 1.950 . S
C457 C331 2.004 . S
C455 C52 2.018 . S
C468 C415 2.004 . S
C466 C64 2.000 . S
C479 C162 2.094 1_565 S
C477 C28 1.946 . S
C488 C40 1.949 . S
C490 C246 2.106 . S
C499 C4 2.032 . S
C501 C320 2.003 . S
C510 C16 2.023 . S
C512 C404 1.996 . S
C523 C159 0.928 . S
C521 C69 0.883 . S
C534 C243 0.897 . S
C532 C81 0.854 . S
C545 C336 0.867 . S
C543 C93 0.845 . S
C554 C57 0.862 . S
C556 C420 0.896 . S
C565 C21 0.860 . S
C567 C168 0.920 . S
C578 C252 0.888 . S
C576 C33 0.840 . S
C589 C327 0.868 . S
C587 C45 0.830 . S
C598 C9 0.838 . S
C600 C411 0.894 . S
C609 C66 2.112 . S
C611 C152 2.211 . S
C620 C78 2.096 . S
C622 C236 2.194 . S
C633 C330 2.290 . S
C631 C90 2.024 . S
C644 C414 2.305 . S
C642 C54 2.041 . S
C653 C18 2.107 . S
C655 C163 2.212 . S
C666 C247 2.190 . S
C664 C30 2.092 . S
C677 C339 2.289 . S
C675 C42 2.004 . S
C686 C6 2.025 . S
C688 C423 2.308 . S
