# Generated by pormake.
# Topology pyr, (3,6)-cn, num edge types: 1
# Building blocks:
#     Node 0, Type 0, BuildingBlock: QEWDON_clean_linker_0, # of connection points: 3
#     Node 1, Type 0, BuildingBlock: QEWDON_clean_linker_0, # of connection points: 3
#     Node 2, Type 0, BuildingBlock: QEWDON_clean_linker_0, # of connection points: 3
#     Node 3, Type 0, BuildingBlock: QEWDON_clean_linker_0, # of connection points: 3
#     Node 4, Type 0, BuildingBlock: QEWDON_clean_linker_0, # of connection points: 3
#     Node 5, Type 0, BuildingBlock: QEWDON_clean_linker_0, # of connection points: 3
#     Node 6, Type 0, BuildingBlock: QEWDON_clean_linker_0, # of connection points: 3
#     Node 7, Type 0, BuildingBlock: QEWDON_clean_linker_0, # of connection points: 3
#     Node 8, Type 1, BuildingBlock: JUFBIX_clean_sbu_0, # of connection points: 6
#     Node 9, Type 1, BuildingBlock: JUFBIX_clean_sbu_0, # of connection points: 6
#     Node 10, Type 1, BuildingBlock: JUFBIX_clean_sbu_0, # of connection points: 6
#     Node 11, Type 1, BuildingBlock: JUFBIX_clean_sbu_0, # of connection points: 6
#     Edge 12, Type (0, 1), BuildingBlock: CIFDUS_clean_linker_0, # of connection points: 2
#     Edge 13, Type (0, 1), BuildingBlock: CIFDUS_clean_linker_0, # of connection points: 2
#     Edge 14, Type (0, 1), BuildingBlock: CIFDUS_clean_linker_0, # of connection points: 2
#     Edge 15, Type (0, 1), BuildingBlock: CIFDUS_clean_linker_0, # of connection points: 2
#     Edge 16, Type (0, 1), BuildingBlock: CIFDUS_clean_linker_0, # of connection points: 2
#     Edge 17, Type (0, 1), BuildingBlock: CIFDUS_clean_linker_0, # of connection points: 2
#     Edge 18, Type (0, 1), BuildingBlock: CIFDUS_clean_linker_0, # of connection points: 2
#     Edge 19, Type (0, 1), BuildingBlock: CIFDUS_clean_linker_0, # of connection points: 2
#     Edge 20, Type (0, 1), BuildingBlock: CIFDUS_clean_linker_0, # of connection points: 2
#     Edge 21, Type (0, 1), BuildingBlock: CIFDUS_clean_linker_0, # of connection points: 2
#     Edge 22, Type (0, 1), BuildingBlock: CIFDUS_clean_linker_0, # of connection points: 2
#     Edge 23, Type (0, 1), BuildingBlock: CIFDUS_clean_linker_0, # of connection points: 2
#     Edge 24, Type (0, 1), BuildingBlock: CIFDUS_clean_linker_0, # of connection points: 2
#     Edge 25, Type (0, 1), BuildingBlock: CIFDUS_clean_linker_0, # of connection points: 2
#     Edge 26, Type (0, 1), BuildingBlock: CIFDUS_clean_linker_0, # of connection points: 2
#     Edge 27, Type (0, 1), BuildingBlock: CIFDUS_clean_linker_0, # of connection points: 2
#     Edge 28, Type (0, 1), BuildingBlock: CIFDUS_clean_linker_0, # of connection points: 2
#     Edge 29, Type (0, 1), BuildingBlock: CIFDUS_clean_linker_0, # of connection points: 2
#     Edge 30, Type (0, 1), BuildingBlock: CIFDUS_clean_linker_0, # of connection points: 2
#     Edge 31, Type (0, 1), BuildingBlock: CIFDUS_clean_linker_0, # of connection points: 2
#     Edge 32, Type (0, 1), BuildingBlock: CIFDUS_clean_linker_0, # of connection points: 2
#     Edge 33, Type (0, 1), BuildingBlock: CIFDUS_clean_linker_0, # of connection points: 2
#     Edge 34, Type (0, 1), BuildingBlock: CIFDUS_clean_linker_0, # of connection points: 2
#     Edge 35, Type (0, 1), BuildingBlock: CIFDUS_clean_linker_0, # of connection points: 2
# Relax obj value: 0.195
# Max RMSD: 0.290
# Mean RMSD: 0.183
data_MOF--net-pyr--node1-JUFBIX_clean_sbu_0--node2-QEWDON_clean_linker_0--edge1-CIFDUS_clean_linker_0
_symmetry_space_group_name_H-M    P1
_symmetry_Int_Tables_number       1
_symmetry_cell_setting            triclinic
loop_
_symmetry_equiv_pos_as_xyz
'x, y, z'
_cell_length_a     32.841598
_cell_length_b     30.928119
_cell_length_c     34.9552
_cell_angle_alpha  83.381868
_cell_angle_beta   89.057331
_cell_angle_gamma 99.578208
loop_
_atom_site_label
_atom_site_type_symbol
_atom_site_fract_x
_atom_site_fract_y
_atom_site_fract_z
_atom_type_partial_charge
H0 H 0.29705 0.24811 0.18962 0.0
C1 C 0.27887 0.23156 0.21487 0.0
C2 C 0.29018 0.19275 0.23418 0.0
C3 C 0.24703 0.252 0.22929 0.0
H4 H 0.27523 0.14378 0.28395 0.0
C5 C 0.26731 0.17359 0.26875 0.0
C6 C 0.23439 0.1923 0.28404 0.0
C7 C 0.22459 0.23147 0.26345 0.0
C8 C 0.24559 0.29961 0.21377 0.0
H9 H 0.20167 0.24795 0.27559 0.0
C10 C 0.2105 0.31604 0.1973 0.0
C11 C 0.21412 0.36146 0.18102 0.0
C12 C 0.28262 0.32962 0.21497 0.0
H13 H 0.30964 0.31878 0.2277 0.0
C14 C 0.28581 0.3737 0.19995 0.0
H15 H 0.18154 0.29376 0.19606 0.0
C16 C 0.25226 0.38933 0.18303 0.0
H17 H 0.2561 0.42394 0.17163 0.0
H18 H 0.31475 0.39601 0.20127 0.0
H19 H 0.38558 0.87705 0.81022 0.0
C20 C 0.40604 0.85532 0.80205 0.0
C21 C 0.44394 0.85411 0.82018 0.0
C22 C 0.39373 0.82828 0.77347 0.0
H23 H 0.50004 0.82521 0.82037 0.0
C24 C 0.47062 0.82687 0.80722 0.0
C25 C 0.45879 0.80113 0.77728 0.0
C26 C 0.42014 0.80139 0.76122 0.0
C27 C 0.35307 0.82798 0.75637 0.0
H28 H 0.41078 0.78092 0.73861 0.0
C29 C 0.34247 0.86729 0.73848 0.0
C30 C 0.30366 0.86722 0.72245 0.0
C31 C 0.32477 0.78838 0.75785 0.0
H32 H 0.33257 0.75771 0.77153 0.0
C33 C 0.28594 0.78829 0.74222 0.0
H34 H 0.36441 0.89786 0.73702 0.0
C35 C 0.27527 0.82755 0.72471 0.0
H36 H 0.24513 0.82687 0.71242 0.0
H37 H 0.26409 0.75776 0.74364 0.0
H38 H 0.76993 0.50209 0.94131 0.0
C39 C 0.75483 0.46824 0.9494 0.0
C40 C 0.77663 0.43776 0.96919 0.0
C41 C 0.71282 0.45612 0.94218 0.0
H42 H 0.77246 0.37128 0.99716 0.0
C43 C 0.75582 0.39473 0.98148 0.0
C44 C 0.71349 0.38222 0.97491 0.0
C45 C 0.69247 0.41303 0.95443 0.0
C46 C 0.68869 0.49004 0.92694 0.0
H47 H 0.65955 0.40467 0.95047 0.0
C48 C 0.66968 0.48796 0.89133 0.0
C49 C 0.64504 0.51933 0.87822 0.0
C50 C 0.68322 0.52381 0.94916 0.0
H51 H 0.69754 0.52575 0.97676 0.0
C52 C 0.65846 0.5547 0.93634 0.0
H53 H 0.67399 0.46207 0.87398 0.0
C54 C 0.63927 0.55241 0.90114 0.0
H55 H 0.62055 0.57699 0.89141 0.0
H56 H 0.65414 0.58048 0.95372 0.0
H57 H 0.97504 0.78035 0.39891 0.0
C58 C 0.96222 0.76278 0.42618 0.0
C59 C 0.98029 0.77338 0.46094 0.0
C60 C 0.92428 0.73433 0.42665 0.0
H61 H 0.97402 0.75928 0.52326 0.0
C62 C 0.96239 0.7502 0.49599 0.0
C63 C 0.92578 0.71942 0.49647 0.0
C64 C 0.90744 0.71124 0.46149 0.0
C65 C 0.8984 0.73532 0.39244 0.0
H66 H 0.87748 0.69027 0.46153 0.0
C67 C 0.91465 0.7305 0.35625 0.0
C68 C 0.88989 0.73145 0.32392 0.0
C69 C 0.85732 0.7425 0.39586 0.0
H70 H 0.84426 0.74735 0.42339 0.0
C71 C 0.83284 0.74409 0.36364 0.0
H72 H 0.94604 0.72423 0.35357 0.0
C73 C 0.84889 0.73825 0.32778 0.0
H74 H 0.82932 0.73874 0.30314 0.0
H75 H 0.80127 0.74953 0.36654 0.0
H76 H 0.87813 0.86893 0.93363 0.0
C77 C 0.89249 0.88864 0.90782 0.0
C78 C 0.92959 0.87857 0.89182 0.0
C79 C 0.87145 0.92119 0.88883 0.0
H80 H 0.97351 0.89628 0.84296 0.0
C81 C 0.94544 0.90296 0.85588 0.0
C82 C 0.92464 0.93447 0.83517 0.0
C83 C 0.88819 0.94354 0.85276 0.0
C84 C 0.82629 0.92176 0.89878 0.0
H85 H 0.87113 0.96675 0.83736 0.0
C86 C 0.81039 0.94411 0.92836 0.0
C87 C 0.76649 0.94373 0.93318 0.0
C88 C 0.79798 0.89971 0.87501 0.0
H89 H 0.80866 0.88254 0.85246 0.0
C90 C 0.75593 0.90003 0.87896 0.0
H91 H 0.83165 0.96135 0.94708 0.0
C92 C 0.74052 0.92193 0.90707 0.0
H93 H 0.70761 0.92221 0.9077 0.0
H94 H 0.73494 0.88345 0.85963 0.0
H95 H 0.69524 0.19977 0.52323 0.0
C96 C 0.68667 0.19754 0.4936 0.0
C97 C 0.71085 0.1784 0.46913 0.0
C98 C 0.65102 0.21312 0.48031 0.0
H99 H 0.71594 0.15641 0.41375 0.0
C100 C 0.69852 0.17399 0.43141 0.0
C101 C 0.66281 0.18921 0.41735 0.0
C102 C 0.63954 0.20957 0.44205 0.0
C103 C 0.62322 0.22775 0.50802 0.0
H104 H 0.61177 0.22126 0.43217 0.0
C105 C 0.6142 0.27102 0.50384 0.0
C106 C 0.5875 0.28366 0.53092 0.0
C107 C 0.60556 0.1975 0.53931 0.0
H108 H 0.61214 0.1641 0.54296 0.0
C109 C 0.57898 0.20984 0.56592 0.0
H110 H 0.62793 0.29459 0.47986 0.0
C111 C 0.56995 0.25253 0.56181 0.0
H112 H 0.54969 0.2615 0.58325 0.0
H113 H 0.56545 0.18627 0.58992 0.0
H114 H 0.4092 0.76443 0.25922 0.0
C115 C 0.38056 0.75391 0.24538 0.0
C116 C 0.36516 0.78348 0.21779 0.0
C117 C 0.36005 0.71007 0.2541 0.0
H118 H 0.31639 0.79054 0.17784 0.0
C119 C 0.32828 0.76859 0.19963 0.0
C120 C 0.30666 0.72538 0.20873 0.0
C121 C 0.32283 0.69634 0.23604 0.0
C122 C 0.37986 0.6771 0.27828 0.0
H123 H 0.3071 0.66248 0.24242 0.0
C124 C 0.39441 0.68428 0.3153 0.0
C125 C 0.41431 0.65268 0.33656 0.0
C126 C 0.38545 0.63817 0.2632 0.0
H127 H 0.37503 0.63203 0.23477 0.0
C128 C 0.40536 0.60722 0.28414 0.0
H129 H 0.39015 0.71396 0.32748 0.0
C130 C 0.4198 0.61442 0.3205 0.0
H131 H 0.43493 0.58978 0.33642 0.0
H132 H 0.40967 0.57752 0.27208 0.0
H133 H 0.16849 0.4721 0.65721 0.0
C134 C 0.15069 0.45621 0.63536 0.0
C135 C 0.16882 0.45761 0.59845 0.0
C136 C 0.11211 0.4297 0.64572 0.0
H137 H 0.16062 0.43525 0.54268 0.0
C138 C 0.14677 0.43408 0.5712 0.0
C139 C 0.11159 0.4025 0.58271 0.0
C140 C 0.09245 0.40367 0.61876 0.0
C141 C 0.09619 0.42329 0.68653 0.0
H142 H 0.06428 0.38102 0.62752 0.0
C143 C 0.10285 0.4583 0.70934 0.0
C144 C 0.09178 0.45115 0.74881 0.0
C145 C 0.07697 0.38121 0.70387 0.0
H146 H 0.07262 0.35287 0.68798 0.0
C147 C 0.06441 0.37452 0.74268 0.0
H148 H 0.11789 0.49081 0.69676 0.0
C149 C 0.07193 0.40916 0.76514 0.0
H150 H 0.06255 0.40304 0.79541 0.0
H151 H 0.04967 0.34209 0.75561 0.0
Co152 Co 0.03119 0.06836 0.54237 0.0
C153 C 0.06597 0.99335 0.5371 0.0
Co154 Co 0.09436 0.07235 0.56308 0.0
C155 C 0.95701 0.09478 0.50891 0.0
C156 C 0.94926 0.02606 0.53021 0.0
N157 N 0.97792 0.0631 0.52414 0.0
N158 N 0.91642 0.07895 0.50605 0.0
C159 C 0.91151 0.03571 0.51924 0.0
H160 H 0.97062 0.12929 0.50252 0.0
H161 H 0.95496 0.99451 0.54383 0.0
C162 C 0.06006 0.14841 0.56541 0.0
N163 N 0.14621 0.07601 0.58302 0.0
C164 C 0.15576 0.04631 0.61113 0.0
C165 C 0.18169 0.10472 0.57424 0.0
N166 N 0.19544 0.05511 0.6207 0.0
C167 C 0.21236 0.0916 0.5973 0.0
C168 C 0.09533 0.1012 0.48352 0.0
O169 O 0.02801 0.12511 0.5544 0.0
O170 O 0.09268 0.13175 0.57117 0.0
O171 O 0.11827 0.09303 0.51164 0.0
O172 O 0.05601 0.09395 0.4903 0.0
O173 O 0.09613 0.01309 0.55402 0.0
H174 H 0.18516 0.13285 0.55226 0.0
H175 H 0.13423 0.01752 0.62353 0.0
O176 O 0.03493 0.01193 0.52971 0.0
O177 O 1.00744 0.04278 0.59474 0.0
O178 O 0.07025 0.05151 0.61481 0.0
C179 C 0.03177 0.03914 0.62264 0.0
H180 H 0.88239 0.01308 0.52199 0.0
H181 H 0.24439 0.10737 0.59682 0.0
Co182 Co 0.52172 0.07112 0.06641 0.0
C183 C 0.51402 0.00454 0.13017 0.0
Co184 Co 0.56148 0.08516 0.11525 0.0
C185 C 0.48675 0.01945 1.00793 0.0
C186 C 0.45492 0.07359 1.01341 0.0
N187 N 0.48641 0.05446 0.02772 0.0
N188 N 0.45689 0.01602 0.98201 0.0
C189 C 0.43649 0.04976 0.98545 0.0
H190 H 0.50796 0.99626 1.01282 0.0
H191 H 0.44593 0.10296 1.02261 0.0
C192 C 0.56944 0.15218 0.05177 0.0
N193 N 0.59917 0.10324 0.15204 0.0
C194 C 0.59669 0.10724 0.1902 0.0
C195 C 0.63855 0.12091 0.14111 0.0
N196 N 0.63329 0.12662 0.20316 0.0
C197 C 0.65926 0.13526 0.17194 0.0
C198 C 0.59915 0.04321 0.05778 0.0
O199 O 0.54307 0.12587 0.03568 0.0
O200 O 0.57937 0.14055 0.08582 0.0
O201 O 0.60566 0.05985 0.08935 0.0
O202 O 0.56389 0.0438 0.04346 0.0
O203 O 0.5432 0.02944 0.14446 0.0
H204 H 0.65123 0.12495 0.11192 0.0
H205 H 0.56858 0.09687 0.20779 0.0
O206 O 0.50059 0.01684 0.09741 0.0
O207 O 0.47963 0.09835 0.08982 0.0
O208 O 0.51624 0.10958 0.14063 0.0
C209 C 0.48251 0.1119 0.123 0.0
H210 H 0.41055 0.05696 0.96858 0.0
H211 H 0.69082 0.15248 0.17071 0.0
Co212 Co 0.58803 0.61329 0.58824 0.0
C213 C 0.52938 0.62676 0.53398 0.0
Co214 Co 0.52641 0.57697 0.60652 0.0
C215 C 0.67578 0.62962 0.58014 0.0
C216 C 0.65027 0.68814 0.56354 0.0
N217 N 0.63973 0.64458 0.57529 0.0
N218 N 0.70846 0.66223 0.57246 0.0
C219 C 0.69264 0.69912 0.56177 0.0
H220 H 0.67796 0.59566 0.59017 0.0
H221 H 0.62855 0.71056 0.55745 0.0
C222 C 0.58527 0.5637 0.66009 0.0
N223 N 0.47505 0.54542 0.62072 0.0
C224 C 0.43802 0.55825 0.61576 0.0
C225 C 0.46646 0.5026 0.6357 0.0
N226 N 0.40676 0.52486 0.62658 0.0
C227 C 0.42438 0.48976 0.63905 0.0
C228 C 0.57375 0.52995 0.56497 0.0
O229 O 0.60848 0.59001 0.63526 0.0
O230 O 0.54737 0.55269 0.65326 0.0
O231 O 0.5388 0.52923 0.58134 0.0
O232 O 0.60106 0.56439 0.56433 0.0
O233 O 0.50542 0.60177 0.55936 0.0
H234 H 0.48934 0.48164 0.64223 0.0
H235 H 0.43404 0.59059 0.60244 0.0
O236 O 0.56754 0.63646 0.54083 0.0
O237 O 0.57504 0.66186 0.61281 0.0
O238 O 0.51438 0.6239 0.63222 0.0
C239 C 0.54117 0.65858 0.63182 0.0
H240 H 0.71043 0.73155 0.55279 0.0
H241 H 0.40789 0.45682 0.64846 0.0
Co242 Co 0.07753 0.61396 1.01439 0.0
C243 C 1.00119 0.56113 1.01141 0.0
Co244 Co 0.04136 0.60574 0.0686 0.0
C245 C 0.11543 0.586 0.95055 0.0
C246 C 0.12668 0.65653 0.94673 0.0
N247 N 0.10942 0.61977 0.96977 0.0
N248 N 0.13511 0.59993 0.91621 0.0
C249 C 0.14213 0.64435 0.91337 0.0
H250 H 0.10275 0.55181 0.96027 0.0
H251 H 0.12606 0.68991 0.95286 0.0
C252 C 0.11782 0.65691 0.07311 0.0
N253 N 1.0083 0.5978 0.11246 0.0
C254 C 0.99407 0.62823 0.13119 0.0
C255 C 0.98869 0.55846 0.12988 0.0
N256 N 0.96594 0.60933 0.15927 0.0
C257 C 0.9626 0.56546 0.1587 0.0
C258 C 0.09218 0.5408 0.06746 0.0
O259 O 0.12096 0.65033 0.03791 0.0
O260 O 0.08416 0.64147 0.0921 0.0
O261 O 0.06539 0.55372 0.08817 0.0
O262 O 0.10135 0.56212 0.03412 0.0
O263 O 0.99894 0.56958 0.04586 0.0
H264 H 0.99205 0.52671 0.12127 0.0
H265 H 1.00289 0.6635 0.12338 0.0
O266 O 0.03376 0.57729 0.9911 0.0
O267 O 0.05382 0.66542 0.99469 0.0
O268 O 1.01731 0.65862 0.04844 0.0
C269 C 0.02693 0.67912 1.01469 0.0
H270 H 0.15577 0.66627 0.88839 0.0
H271 H 0.9426 0.54029 0.17762 0.0
H272 H 0.15131 0.18405 0.30897 0.0
H273 H 0.26927 0.15762 0.3492 0.0
H274 H 0.23769 0.12788 0.41235 0.0
H275 H 0.17683 0.10946 0.45777 0.0
H276 H 0.05816 0.13385 0.41832 0.0
H277 H 0.08949 0.16394 0.35457 0.0
C278 C 0.17028 0.17188 0.33147 0.0
C279 C 0.21315 0.17318 0.32322 0.0
C280 C 0.1516 0.15425 0.36854 0.0
C281 C 0.23641 0.15669 0.35349 0.0
C282 C 0.21827 0.13979 0.39012 0.0
C283 C 0.15759 0.12127 0.43533 0.0
C284 C 0.11473 0.11913 0.44366 0.0
C285 C 0.17591 0.13832 0.39818 0.0
C286 C 0.09095 0.13471 0.41347 0.0
C287 C 0.10903 0.15211 0.37672 0.0
H288 H 0.39162 0.87356 0.87471 0.0
H289 H 0.52064 0.89657 0.83862 0.0
H290 H 0.53645 0.94616 0.88798 0.0
H291 H 0.51264 0.9875 0.93835 0.0
H292 H 0.38266 0.97109 0.96757 0.0
H293 H 0.36784 0.91557 0.92283 0.0
C294 C 0.42321 0.88988 0.87694 0.0
C295 C 0.45471 0.88161 0.85225 0.0
C296 C 0.43176 0.92004 0.90393 0.0
C297 C 0.49566 0.90184 0.85717 0.0
C298 C 0.50471 0.93064 0.88519 0.0
C299 C 0.48119 0.97144 0.93491 0.0
C300 C 0.44867 0.98309 0.95605 0.0
C301 C 0.47289 0.94059 0.90825 0.0
C302 C 0.40795 0.96268 0.95128 0.0
C303 C 0.39959 0.93092 0.92588 0.0
H304 H 0.68524 0.52699 0.80919 0.0
H305 H 0.56369 0.51276 0.86225 0.0
H306 H 0.53355 0.5205 0.79866 0.0
H307 H 0.54273 0.53747 0.72827 0.0
H308 H 0.66526 0.55825 0.67566 0.0
H309 H 0.69415 0.54152 0.73856 0.0
C310 C 0.6521 0.52486 0.80662 0.0
C311 C 0.62655 0.51911 0.84002 0.0
C312 C 0.6353 0.53083 0.77009 0.0
C313 C 0.58377 0.51713 0.8367 0.0
C314 C 0.56662 0.52163 0.80044 0.0
C315 C 0.57565 0.53761 0.73056 0.0
C316 C 0.60183 0.54897 0.69745 0.0
C317 C 0.59219 0.52937 0.76696 0.0
C318 C 0.64452 0.54968 0.70082 0.0
C319 C 0.66106 0.54017 0.73675 0.0
H320 H 0.85437 0.66877 0.28218 0.0
H321 H 0.96192 0.76928 0.28506 0.0
H322 H 0.9938 0.74254 0.23054 0.0
H323 H 0.994 0.68516 0.18755 0.0
H324 H 0.88786 0.58229 0.18751 0.0
H325 H 0.8522 0.6153 0.23556 0.0
C326 C 0.88433 0.68542 0.27015 0.0
C327 C 0.90594 0.72075 0.28729 0.0
C328 C 0.90285 0.66899 0.23988 0.0
C329 C 0.94499 0.74182 0.27213 0.0
C330 C 0.96319 0.72649 0.24118 0.0
C331 C 0.96279 0.67056 0.1976 0.0
C332 C 0.94369 0.63119 0.18454 0.0
C333 C 0.94289 0.68926 0.22564 0.0
C334 C 0.90339 0.61217 0.19787 0.0
C335 C 0.88296 0.63112 0.22512 0.0
H336 H 0.31758 0.18883 0.15872 0.0
H337 H 0.34957 0.15603 0.27638 0.0
H338 H 0.41129 0.13026 0.25392 0.0
H339 H 0.45798 0.11677 0.20016 0.0
H340 H 0.42334 0.14772 0.08298 0.0
H341 H 0.3627 0.17445 0.10581 0.0
C342 C 0.33795 0.17624 0.17971 0.0
C343 C 0.32782 0.17472 0.21963 0.0
C344 C 0.37391 0.16108 0.16647 0.0
C345 C 0.35526 0.15741 0.24564 0.0
C346 C 0.39117 0.14284 0.23269 0.0
C347 C 0.43741 0.12967 0.17956 0.0
C348 C 0.44628 0.13019 0.13946 0.0
C349 C 0.40115 0.14452 0.19308 0.0
C350 C 0.41816 0.14662 0.11379 0.0
C351 C 0.38305 0.16204 0.12691 0.0
H352 H 0.23709 0.9034 0.73794 0.0
H353 H 0.34641 0.92294 0.66395 0.0
H354 H 0.32506 0.98781 0.628 0.0
H355 H 0.27123 0.03396 0.61379 0.0
H356 H 0.16229 0.01357 0.68842 0.0
H357 H 0.18767 0.95447 0.72844 0.0
C358 C 0.25626 0.92216 0.71409 0.0
C359 C 0.29278 0.90841 0.70307 0.0
C360 C 0.24386 0.95918 0.69379 0.0
C361 C 0.31799 0.93313 0.67267 0.0
C362 C 0.30578 0.97005 0.65215 0.0
C363 C 0.25376 0.01729 0.6394 0.0
C364 C 0.2148 0.02748 0.64797 0.0
C365 C 0.2683 0.98283 0.66195 0.0
C366 C 0.19212 0.00561 0.68107 0.0
C367 C 0.20653 0.97183 0.70387 0.0
H368 H 0.84255 0.48468 0.92505 0.0
H369 H 0.80628 0.42476 0.04086 0.0
H370 H 0.87388 0.45475 0.06332 0.0
H371 H 0.94107 0.50248 0.0513 0.0
H372 H 0.97915 0.56221 0.93591 0.0
H373 H 0.91337 0.52743 0.91189 0.0
C374 C 0.84971 0.47794 0.9551 0.0
C375 C 0.81941 0.45257 0.98126 0.0
C376 C 0.88887 0.49531 0.96789 0.0
C377 C 0.82915 0.44377 1.02007 0.0
C378 C 0.86772 0.46114 0.033 0.0
C379 C 0.9352 0.50751 1.02078 0.0
C380 C 0.96474 0.5352 0.99545 0.0
C381 C 0.89749 0.48755 1.00733 0.0
C382 C 0.95692 0.54096 0.95596 0.0
C383 C 0.9192 0.52132 0.9423 0.0
H384 H 0.88224 0.63814 0.5211 0.0
H385 H 0.909 0.77124 0.5507 0.0
H386 H 0.84319 0.76065 0.58617 0.0
H387 H 0.77134 0.72221 0.59093 0.0
H388 H 0.74167 0.59269 0.55427 0.0
H389 H 0.81461 0.59299 0.5394 0.0
C390 C 0.87428 0.66407 0.53679 0.0
C391 C 0.89964 0.7058 0.53213 0.0
C392 C 0.83495 0.65897 0.55449 0.0
C393 C 0.88983 0.73889 0.55334 0.0
C394 C 0.8517 0.73319 0.57304 0.0
C395 C 0.78111 0.69378 0.58041 0.0
C396 C 0.75134 0.65818 0.57242 0.0
C397 C 0.82283 0.69482 0.57084 0.0
C398 C 0.76413 0.62075 0.5601 0.0
C399 C 0.8058 0.62098 0.55148 0.0
H400 H 0.21501 0.40379 0.10801 0.0
H401 H 0.13842 0.37099 0.21177 0.0
H402 H 0.093 0.42236 0.18607 0.0
H403 H 0.07876 0.48267 0.1359 0.0
H404 H 0.15679 0.5137 0.03245 0.0
H405 H 0.19738 0.45779 0.05613 0.0
C406 C 0.18769 0.40688 0.12465 0.0
C407 C 0.1801 0.3827 0.16179 0.0
C408 C 0.16219 0.43725 0.1099 0.0
C409 C 0.14479 0.38806 0.18293 0.0
C410 C 0.11908 0.41813 0.16834 0.0
C411 C 0.1044 0.47697 0.11834 0.0
C412 C 0.11449 0.50329 0.08222 0.0
C413 C 0.12802 0.44391 0.13219 0.0
C414 C 0.14794 0.49468 0.0602 0.0
C415 C 0.17139 0.46244 0.07379 0.0
H416 H 0.6521 0.32547 0.94481 0.0
H417 H 0.72168 0.34269 0.04738 0.0
H418 H 0.6829 0.27401 0.07959 0.0
H419 H 0.62941 0.20977 0.07942 0.0
H420 H 0.55831 0.19049 0.97817 0.0
H421 H 0.59702 0.2598 0.94495 0.0
C422 C 0.6587 0.31418 0.97422 0.0
C423 C 0.69027 0.33911 0.99337 0.0
C424 C 0.6358 0.27456 0.99296 0.0
C425 C 0.69841 0.32383 0.03149 0.0
C426 C 0.67591 0.28471 0.05016 0.0
C427 C 0.62206 0.2206 0.0501 0.0
C428 C 0.59082 0.19491 0.03138 0.0
C429 C 0.64458 0.25992 0.03123 0.0
C430 C 0.58207 0.20965 0.99333 0.0
C431 C 0.6043 0.24921 0.97431 0.0
H432 H 0.04083 0.7944 0.51279 0.0
H433 H 0.98524 0.84961 0.41092 0.0
H434 H 1.01561 0.92276 0.42247 0.0
H435 H 0.04272 0.97176 0.46863 0.0
H436 H 0.09182 0.92015 0.57452 0.0
H437 H 0.07834 0.84531 0.55491 0.0
C438 C 0.03568 0.82234 0.49286 0.0
C439 C 1.00959 0.8157 0.4616 0.0
C440 C 0.05097 0.86535 0.50105 0.0
C441 C 1.00503 0.85256 0.43521 0.0
C442 C 1.0219 0.89504 0.44209 0.0
C443 C 0.05115 0.94414 0.48706 0.0
C444 C 0.06708 0.95068 0.52321 0.0
C445 C 0.04247 0.90177 0.47607 0.0
C446 C 0.07902 0.91534 0.54665 0.0
C447 C 0.07115 0.87272 0.5355 0.0
H448 H 0.50914 0.82117 0.71394 0.0
H449 H 0.46323 0.7167 0.80416 0.0
H450 H 0.48641 0.66249 0.76675 0.0
H451 H 0.5109 0.64412 0.70478 0.0
H452 H 0.55841 0.74825 0.61463 0.0
H453 H 0.54331 0.8037 0.65535 0.0
C454 C 0.50588 0.78676 0.7259 0.0
C455 C 0.48521 0.77272 0.76183 0.0
C456 C 0.51833 0.75581 0.70374 0.0
C457 C 0.47994 0.72807 0.7769 0.0
C458 C 0.49254 0.6971 0.75524 0.0
C459 C 0.51804 0.67903 0.69421 0.0
C460 C 0.53461 0.69235 0.65658 0.0
C461 C 0.51018 0.71043 0.71802 0.0
C462 C 0.54502 0.73749 0.64338 0.0
C463 C 0.53652 0.76905 0.66666 0.0
H464 H 1.00448 0.96151 0.80177 0.0
H465 H 0.87632 0.95296 0.77324 0.0
H466 H 0.89667 0.98391 0.70704 0.0
H467 H 0.95111 0.01329 0.65522 0.0
H468 H 0.07908 0.02148 0.68434 0.0
H469 H 0.05856 0.99097 0.75052 0.0
C470 C 0.98078 0.96616 0.78124 0.0
C471 C 0.93853 0.9548 0.7938 0.0
C472 C 0.99276 0.98414 0.74235 0.0
C473 C 0.90899 0.96189 0.76576 0.0
C474 C 0.92067 0.97943 0.7273 0.0
C475 C 0.9746 0.0085 0.67595 0.0
C476 C 1.01694 0.02016 0.6638 0.0
C477 C 0.9625 0.99078 0.71498 0.0
C478 C 0.04638 0.01331 0.69194 0.0
C479 C 0.03461 0.99564 0.73025 0.0
H480 H 0.71138 0.18955 0.35349 0.0
H481 H 0.58321 0.16993 0.39164 0.0
H482 H 0.56225 0.15 0.32831 0.0
H483 H 0.58084 0.13461 0.26254 0.0
H484 H 0.71013 0.14387 0.23085 0.0
H485 H 0.72965 0.16965 0.29148 0.0
C486 C 0.67877 0.18021 0.3485 0.0
C487 C 0.64915 0.18093 0.37782 0.0
C488 C 0.66696 0.16639 0.31296 0.0
C489 C 0.60698 0.17033 0.36972 0.0
C490 C 0.59489 0.15829 0.33356 0.0
C491 C 0.61323 0.14185 0.26898 0.0
C492 C 0.64376 0.13819 0.2412 0.0
C493 C 0.62469 0.15551 0.30506 0.0
C494 C 0.68565 0.14768 0.25057 0.0
C495 C 0.69708 0.16223 0.28561 0.0
H496 H 0.49317 0.67285 0.35838 0.0
H497 H 0.36749 0.64016 0.40295 0.0
H498 H 0.39174 0.63136 0.46898 0.0
H499 H 0.44912 0.6257 0.51331 0.0
H500 H 0.57494 0.66031 0.46816 0.0
H501 H 0.55038 0.67603 0.40339 0.0
C502 C 0.47122 0.66502 0.38273 0.0
C503 C 0.42867 0.65756 0.37605 0.0
C504 C 0.48546 0.65976 0.42048 0.0
C505 C 0.40037 0.64673 0.4076 0.0
C506 C 0.41427 0.64127 0.44527 0.0
C507 C 0.47116 0.63719 0.48936 0.0
C508 C 0.51387 0.64129 0.49566 0.0
C509 C 0.45679 0.64654 0.452 0.0
C510 C 0.54193 0.65669 0.46428 0.0
C511 C 0.52792 0.66561 0.42711 0.0
H512 H 0.12845 0.44483 0.81715 0.0
H513 H 0.08041 0.53718 0.73533 0.0
H514 H 0.09542 0.5945 0.7784 0.0
H515 H 0.11589 0.61563 0.84222 0.0
H516 H 0.16053 0.52163 0.92471 0.0
H517 H 0.1536 0.46749 0.87841 0.0
C518 C 0.12122 0.47751 0.80882 0.0
C519 C 0.10277 0.4867 0.77355 0.0
C520 C 0.1295 0.50989 0.83377 0.0
C521 C 0.09452 0.52942 0.7625 0.0
C522 C 0.10301 0.56209 0.78711 0.0
C523 C 0.12513 0.58371 0.84947 0.0
C524 C 0.13875 0.57234 0.88656 0.0
C525 C 0.11979 0.55243 0.82313 0.0
C526 C 0.14997 0.53072 0.89618 0.0
C527 C 0.14578 0.49984 0.86988 0.0
H528 H 0.69126 0.91442 0.97184 0.0
H529 H 0.79252 0.02378 0.96334 0.0
H530 H 0.75203 0.0631 1.00338 0.0
H531 H 0.68405 0.06923 0.0367 0.0
H532 H 0.58212 0.96152 0.0363 0.0
H533 H 0.62585 0.92005 1.0033 0.0
C534 C 0.70484 0.94711 0.97816 0.0
C535 C 0.74536 0.9659 0.96333 0.0
C536 C 0.68055 0.97042 0.99961 0.0
C537 C 0.76191 0.00778 0.97391 0.0
C538 C 0.73833 0.03064 0.99663 0.0
C539 C 0.67159 0.03649 0.02974 0.0
C540 C 0.62934 0.01859 0.03959 0.0
C541 C 0.69707 0.01279 1.00907 0.0
C542 C 0.61408 0.97634 0.02947 0.0
C543 C 0.63925 0.95244 1.01047 0.0
H544 H 0.78827 0.19307 0.43626 0.0
H545 H 0.71461 0.12126 0.53374 0.0
H546 H 0.77241 0.08451 0.55427 0.0
H547 H 0.84272 0.07017 0.54267 0.0
H548 H 0.91773 0.14358 0.44697 0.0
H549 H 0.86075 0.18267 0.42744 0.0
C550 C 0.78512 0.16958 0.46213 0.0
C551 C 0.74728 0.15968 0.48343 0.0
C552 C 0.81857 0.1488 0.47385 0.0
C553 C 0.74354 0.12957 0.51709 0.0
C554 C 0.77646 0.10838 0.52867 0.0
C555 C 0.84644 0.09471 0.51753 0.0
C556 C 0.88396 0.10367 0.49586 0.0
C557 C 0.81387 0.11727 0.50697 0.0
C558 C 0.88898 0.13623 0.4639 0.0
C559 C 0.85643 0.15839 0.45276 0.0
H560 H 0.29151 0.73943 0.13199 0.0
H561 H 0.23411 0.67793 0.24107 0.0
H562 H 0.16986 0.65422 0.20918 0.0
H563 H 0.13038 0.64955 0.15017 0.0
H564 H 0.18857 0.70847 0.04067 0.0
H565 H 0.25172 0.73543 0.07295 0.0
C566 C 0.26482 0.72118 0.14886 0.0
C567 C 0.26769 0.71056 0.18896 0.0
C568 C 0.22799 0.70746 0.13027 0.0
C569 C 0.23296 0.68619 0.21018 0.0
C570 C 0.1961 0.67287 0.19198 0.0
C571 C 0.15665 0.66885 0.13338 0.0
C572 C 0.15453 0.6773 0.09301 0.0
C573 C 0.19327 0.68322 0.15203 0.0
C574 C 0.18922 0.70167 0.07173 0.0
C575 C 0.22543 0.71694 0.09018 0.0
H576 H 0.21746 0.53066 0.62167 0.0
H577 H 0.22288 0.41588 0.5631 0.0
H578 H 0.29719 0.42947 0.5638 0.0
H579 H 0.36047 0.46753 0.58812 0.0
H580 H 0.35824 0.58098 0.64798 0.0
H581 H 0.28308 0.57422 0.6403 0.0
C582 C 0.23499 0.5091 0.60855 0.0
C583 C 0.21415 0.47239 0.59227 0.0
C584 C 0.27833 0.51626 0.61006 0.0
C585 C 0.23752 0.44497 0.57511 0.0
C586 C 0.28032 0.45224 0.57598 0.0
C587 C 0.34334 0.49081 0.59921 0.0
C588 C 0.36398 0.524 0.61919 0.0
C589 C 0.30083 0.48674 0.5945 0.0
C590 C 0.34232 0.55493 0.63278 0.0
C591 C 0.29959 0.55098 0.62841 0.0
H592 H 0.93122 0.84266 0.96983 0.0
H593 H 0.97352 0.82439 0.85596 0.0
H594 H 1.00795 0.76531 0.88326 0.0
H595 H 0.02642 0.71652 0.93901 0.0
H596 H 0.98031 0.729 0.05263 0.0
H597 H 0.94722 0.79087 0.02597 0.0
C598 C 0.94769 0.82583 0.9507 0.0
C599 C 0.95001 0.84023 0.91032 0.0
C600 C 0.96704 0.78991 0.9667 0.0
C601 C 0.97188 0.81669 0.88696 0.0
C602 C 0.99147 0.78189 0.90263 0.0
C603 C 1.00928 0.73274 0.95816 0.0
C604 C 1.00649 0.71762 0.99818 0.0
C605 C 0.98951 0.76815 0.94243 0.0
C606 C 0.98343 0.73937 1.0219 0.0
C607 C 0.96435 0.77504 1.00653 0.0
H608 H 0.44929 0.81171 0.21046 0.0
H609 H 0.33291 0.85901 0.19891 0.0
H610 H 0.36888 0.93109 0.17085 0.0
H611 H 0.43282 0.97969 0.14589 0.0
H612 H 0.54985 0.93628 0.16287 0.0
H613 H 0.5143 0.8639 0.19331 0.0
C614 C 0.43173 0.83793 0.20268 0.0
C615 C 0.38814 0.82918 0.20601 0.0
C616 C 0.45275 0.88002 0.18736 0.0
C617 C 0.36625 0.86398 0.19552 0.0
C618 C 0.38682 0.90547 0.17968 0.0
C619 C 0.45045 0.95438 0.1566 0.0
C620 C 0.49365 0.96272 0.15191 0.0
C621 C 0.42991 0.91355 0.1747 0.0
C622 C 0.51646 0.93027 0.16628 0.0
C623 C 0.49613 0.88898 0.18351 0.0
H624 H 0.03833 0.34422 0.57941 0.0
H625 H 0.168 0.36446 0.54482 0.0
H626 H 0.16241 0.28812 0.53566 0.0
H627 H 0.12479 0.21298 0.54743 0.0
H628 H 0.99612 0.18949 0.58354 0.0
H629 H 0.99803 0.26905 0.58419 0.0
C630 C 0.0654 0.33216 0.5697 0.0
C631 C 0.10382 0.36069 0.56435 0.0
C632 C 0.06275 0.28698 0.56628 0.0
C633 C 0.13782 0.34432 0.54965 0.0
C634 C 0.13503 0.29996 0.54497 0.0
C635 C 0.09726 0.22532 0.55571 0.0
C636 C 0.06081 0.19574 0.56667 0.0
C637 C 0.09837 0.27072 0.55519 0.0
C638 C 0.02481 0.21195 0.57583 0.0
C639 C 0.02582 0.25732 0.57589 0.0
H640 H 0.64198 0.36142 0.52298 0.0
H641 H 0.51191 0.30774 0.53439 0.0
H642 H 0.49595 0.38056 0.54231 0.0
H643 H 0.51925 0.45724 0.55305 0.0
H644 H 0.64926 0.51183 0.54332 0.0
H645 H 0.66492 0.44125 0.52717 0.0
C646 C 0.61014 0.36602 0.5263 0.0
C647 C 0.57817 0.32924 0.52846 0.0
C648 C 0.60121 0.40801 0.53158 0.0
C649 C 0.53703 0.3355 0.53305 0.0
C650 C 0.5279 0.37709 0.53765 0.0
C651 C 0.55102 0.45394 0.54695 0.0
C652 C 0.58305 0.48964 0.54985 0.0
C653 C 0.5598 0.41324 0.53816 0.0
C654 C 0.62398 0.48486 0.54142 0.0
C655 C 0.63298 0.44442 0.53232 0.0
loop_
_geom_bond_atom_site_label_1
_geom_bond_atom_site_label_2
_geom_bond_distance
_geom_bond_site_symmetry_2
_ccdc_geom_bond_type
H0 C1 0.949 . S
C1 H0 0.949 . S
C1 C2 1.395 . S
C1 C3 1.391 . S
C2 C1 1.395 . S
C2 C5 1.390 . S
C3 C1 1.391 . S
C3 C7 1.387 . S
C3 C8 1.491 . S
H4 C5 0.950 . S
C5 C2 1.390 . S
C5 H4 0.950 . S
C5 C6 1.378 . S
C6 C5 1.378 . S
C6 C7 1.409 . S
C7 C3 1.387 . S
C7 C6 1.409 . S
C7 H9 0.951 . S
C8 C3 1.491 . S
C8 C10 1.382 . S
C8 C12 1.404 . S
H9 C7 0.951 . S
C10 C8 1.382 . S
C10 C11 1.390 . S
C10 H15 0.949 . S
C11 C10 1.390 . S
C11 C16 1.399 . S
C12 C8 1.404 . S
C12 H13 0.950 . S
C12 C14 1.375 . S
H13 C12 0.950 . S
C14 C12 1.375 . S
C14 C16 1.382 . S
C14 H18 0.950 . S
H15 C10 0.949 . S
C16 C11 1.399 . S
C16 C14 1.382 . S
C16 H17 0.952 . S
H17 C16 0.952 . S
H18 C14 0.950 . S
H19 C20 0.949 . S
C20 H19 0.949 . S
C20 C21 1.395 . S
C20 C22 1.391 . S
C21 C20 1.395 . S
C21 C24 1.390 . S
C22 C20 1.391 . S
C22 C26 1.387 . S
C22 C27 1.491 . S
H23 C24 0.950 . S
C24 C21 1.390 . S
C24 H23 0.950 . S
C24 C25 1.378 . S
C25 C24 1.378 . S
C25 C26 1.409 . S
C26 C22 1.387 . S
C26 C25 1.409 . S
C26 H28 0.951 . S
C27 C22 1.491 . S
C27 C29 1.382 . S
C27 C31 1.404 . S
H28 C26 0.951 . S
C29 C27 1.382 . S
C29 C30 1.390 . S
C29 H34 0.949 . S
C30 C29 1.390 . S
C30 C35 1.399 . S
C31 C27 1.404 . S
C31 H32 0.950 . S
C31 C33 1.375 . S
H32 C31 0.950 . S
C33 C31 1.375 . S
C33 C35 1.382 . S
C33 H37 0.950 . S
H34 C29 0.949 . S
C35 C30 1.399 . S
C35 C33 1.382 . S
C35 H36 0.952 . S
H36 C35 0.952 . S
H37 C33 0.950 . S
H38 C39 0.949 . S
C39 H38 0.949 . S
C39 C40 1.395 . S
C39 C41 1.391 . S
C40 C39 1.395 . S
C40 C43 1.390 . S
C41 C39 1.391 . S
C41 C45 1.387 . S
C41 C46 1.491 . S
H42 C43 0.950 1_554 S
C43 C40 1.390 . S
C43 H42 0.950 1_556 S
C43 C44 1.378 . S
C44 C43 1.378 . S
C44 C45 1.409 . S
C45 C41 1.387 . S
C45 C44 1.409 . S
C45 H47 0.951 . S
C46 C41 1.491 . S
C46 C48 1.382 . S
C46 C50 1.404 . S
H47 C45 0.951 . S
C48 C46 1.382 . S
C48 C49 1.390 . S
C48 H53 0.949 . S
C49 C48 1.390 . S
C49 C54 1.399 . S
C50 C46 1.404 . S
C50 H51 0.950 . S
C50 C52 1.375 . S
H51 C50 0.950 . S
C52 C50 1.375 . S
C52 C54 1.382 . S
C52 H56 0.950 . S
H53 C48 0.949 . S
C54 C49 1.399 . S
C54 C52 1.382 . S
C54 H55 0.952 . S
H55 C54 0.952 . S
H56 C52 0.950 . S
H57 C58 0.949 . S
C58 H57 0.949 . S
C58 C59 1.395 . S
C58 C60 1.391 . S
C59 C58 1.395 . S
C59 C62 1.390 . S
C60 C58 1.391 . S
C60 C64 1.387 . S
C60 C65 1.491 . S
H61 C62 0.950 . S
C62 C59 1.390 . S
C62 H61 0.950 . S
C62 C63 1.378 . S
C63 C62 1.378 . S
C63 C64 1.409 . S
C64 C60 1.387 . S
C64 C63 1.409 . S
C64 H66 0.951 . S
C65 C60 1.491 . S
C65 C67 1.382 . S
C65 C69 1.404 . S
H66 C64 0.951 . S
C67 C65 1.382 . S
C67 C68 1.390 . S
C67 H72 0.949 . S
C68 C67 1.390 . S
C68 C73 1.399 . S
C69 C65 1.404 . S
C69 H70 0.950 . S
C69 C71 1.375 . S
H70 C69 0.950 . S
C71 C69 1.375 . S
C71 C73 1.382 . S
C71 H75 0.950 . S
H72 C67 0.949 . S
C73 C68 1.399 . S
C73 C71 1.382 . S
C73 H74 0.952 . S
H74 C73 0.952 . S
H75 C71 0.950 . S
H76 C77 0.949 . S
C77 H76 0.949 . S
C77 C78 1.395 . S
C77 C79 1.391 . S
C78 C77 1.395 . S
C78 C81 1.390 . S
C79 C77 1.391 . S
C79 C83 1.387 . S
C79 C84 1.491 . S
H80 C81 0.950 . S
C81 C78 1.390 . S
C81 H80 0.950 . S
C81 C82 1.378 . S
C82 C81 1.378 . S
C82 C83 1.409 . S
C83 C79 1.387 . S
C83 C82 1.409 . S
C83 H85 0.951 . S
C84 C79 1.491 . S
C84 C86 1.382 . S
C84 C88 1.404 . S
H85 C83 0.951 . S
C86 C84 1.382 . S
C86 C87 1.390 . S
C86 H91 0.949 . S
C87 C86 1.390 . S
C87 C92 1.399 . S
C88 C84 1.404 . S
C88 H89 0.950 . S
C88 C90 1.375 . S
H89 C88 0.950 . S
C90 C88 1.375 . S
C90 C92 1.382 . S
C90 H94 0.950 . S
H91 C86 0.949 . S
C92 C87 1.399 . S
C92 C90 1.382 . S
C92 H93 0.952 1_565 S
H93 C92 0.952 1_545 S
H94 C90 0.950 . S
H95 C96 0.949 . S
C96 H95 0.949 . S
C96 C97 1.395 . S
C96 C98 1.391 . S
C97 C96 1.395 . S
C97 C100 1.390 . S
C98 C96 1.391 . S
C98 C102 1.387 . S
C98 C103 1.491 . S
H99 C100 0.950 . S
C100 C97 1.390 . S
C100 H99 0.950 . S
C100 C101 1.378 . S
C101 C100 1.378 . S
C101 C102 1.409 . S
C102 C98 1.387 . S
C102 C101 1.409 . S
C102 H104 0.951 . S
C103 C98 1.491 . S
C103 C105 1.382 . S
C103 C107 1.404 . S
H104 C102 0.951 . S
C105 C103 1.382 . S
C105 C106 1.390 . S
C105 H110 0.949 . S
C106 C105 1.390 . S
C106 C111 1.399 . S
C107 C103 1.404 . S
C107 H108 0.950 . S
C107 C109 1.375 . S
H108 C107 0.950 . S
C109 C107 1.375 . S
C109 C111 1.382 . S
C109 H113 0.950 . S
H110 C105 0.949 . S
C111 C106 1.399 . S
C111 C109 1.382 . S
C111 H112 0.952 . S
H112 C111 0.952 . S
H113 C109 0.950 . S
H114 C115 0.949 . S
C115 H114 0.949 . S
C115 C116 1.395 . S
C115 C117 1.391 . S
C116 C115 1.395 . S
C116 C119 1.390 . S
C117 C115 1.391 . S
C117 C121 1.387 . S
C117 C122 1.491 . S
H118 C119 0.950 . S
C119 C116 1.390 . S
C119 H118 0.950 . S
C119 C120 1.378 . S
C120 C119 1.378 . S
C120 C121 1.409 . S
C121 C117 1.387 . S
C121 C120 1.409 . S
C121 H123 0.951 . S
C122 C117 1.491 . S
C122 C124 1.382 . S
C122 C126 1.404 . S
H123 C121 0.951 . S
C124 C122 1.382 . S
C124 C125 1.390 . S
C124 H129 0.949 . S
C125 C124 1.390 . S
C125 C130 1.399 . S
C126 C122 1.404 . S
C126 H127 0.950 . S
C126 C128 1.375 . S
H127 C126 0.950 . S
C128 C126 1.375 . S
C128 C130 1.382 . S
C128 H132 0.950 . S
H129 C124 0.949 . S
C130 C125 1.399 . S
C130 C128 1.382 . S
C130 H131 0.952 . S
H131 C130 0.952 . S
H132 C128 0.950 . S
H133 C134 0.949 . S
C134 H133 0.949 . S
C134 C135 1.395 . S
C134 C136 1.391 . S
C135 C134 1.395 . S
C135 C138 1.390 . S
C136 C134 1.391 . S
C136 C140 1.387 . S
C136 C141 1.491 . S
H137 C138 0.950 . S
C138 C135 1.390 . S
C138 H137 0.950 . S
C138 C139 1.378 . S
C139 C138 1.378 . S
C139 C140 1.409 . S
C140 C136 1.387 . S
C140 C139 1.409 . S
C140 H142 0.951 . S
C141 C136 1.491 . S
C141 C143 1.382 . S
C141 C145 1.404 . S
H142 C140 0.951 . S
C143 C141 1.382 . S
C143 C144 1.390 . S
C143 H148 0.949 . S
C144 C143 1.390 . S
C144 C149 1.399 . S
C145 C141 1.404 . S
C145 H146 0.950 . S
C145 C147 1.375 . S
H146 C145 0.950 . S
C147 C145 1.375 . S
C147 C149 1.382 . S
C147 H151 0.950 . S
H148 C143 0.949 . S
C149 C144 1.399 . S
C149 C147 1.382 . S
C149 H150 0.952 . S
H150 C149 0.952 . S
H151 C147 0.950 . S
Co152 N157 2.057 . S
Co152 O169 2.021 1_655 S
Co152 O172 2.062 1_655 S
Co152 O176 2.117 . S
Co152 O177 2.020 . S
C153 O173 1.259 1_655 S
C153 O176 1.258 1_565 S
Co154 N163 2.057 . S
Co154 O170 2.117 . S
Co154 O171 2.020 . S
Co154 O173 2.021 1_545 S
Co154 O178 2.062 . S
C155 N157 1.316 . S
C155 N158 1.347 . S
C155 H160 0.931 . S
C156 N157 1.375 . S
C156 C159 1.350 . S
C156 H161 0.930 . S
N157 Co152 2.057 . S
N157 C155 1.316 . S
N157 C156 1.375 . S
N158 C155 1.347 . S
N158 C159 1.373 . S
C159 C156 1.350 . S
C159 N158 1.373 . S
C159 H180 0.931 . S
H160 C155 0.931 . S
H161 C156 0.930 . S
C162 O169 1.260 . S
C162 O170 1.258 . S
N163 Co154 2.057 . S
N163 C164 1.316 . S
N163 C165 1.375 . S
C164 N163 1.316 . S
C164 N166 1.347 . S
C164 H175 0.931 1_545 S
C165 N163 1.375 . S
C165 C167 1.350 . S
C165 H174 0.930 . S
N166 C164 1.347 . S
N166 C167 1.373 . S
C167 C165 1.350 . S
C167 N166 1.373 . S
C167 H181 0.931 . S
C168 O171 1.256 . S
C168 O172 1.255 . S
O169 Co152 2.021 1_455 S
O169 C162 1.260 . S
O170 Co154 2.117 . S
O170 C162 1.258 . S
O171 Co154 2.020 . S
O171 C168 1.256 . S
O172 Co152 2.062 1_455 S
O172 C168 1.255 . S
O173 C153 1.259 1_455 S
O173 Co154 2.021 1_565 S
H174 C165 0.930 . S
H175 C164 0.931 1_565 S
O176 Co152 2.117 . S
O176 C153 1.258 1_545 S
O177 Co152 2.020 . S
O177 C179 1.256 . S
O178 Co154 2.062 . S
O178 C179 1.255 1_455 S
C179 O177 1.256 . S
C179 O178 1.255 1_655 S
H180 C159 0.931 . S
H181 C167 0.931 . S
Co182 N187 2.057 1_554 S
Co182 O199 2.021 . S
Co182 O202 2.062 . S
Co182 O206 2.117 1_545 S
Co182 O207 2.020 . S
C183 O203 1.259 . S
C183 O206 1.258 . S
Co184 N193 2.057 . S
Co184 O200 2.117 . S
Co184 O201 2.020 . S
Co184 O203 2.021 1_545 S
Co184 O208 2.062 . S
C185 N187 1.316 . S
C185 N188 1.347 1_545 S
C185 H190 0.931 . S
C186 N187 1.375 1_565 S
C186 C189 1.350 . S
C186 H191 0.930 1_556 S
N187 Co182 2.057 1_556 S
N187 C185 1.316 . S
N187 C186 1.375 1_545 S
N188 C185 1.347 1_565 S
N188 C189 1.373 . S
C189 C186 1.350 . S
C189 N188 1.373 . S
C189 H210 0.931 . S
H190 C185 0.931 . S
H191 C186 0.930 1_554 S
C192 O199 1.259 . S
C192 O200 1.258 . S
N193 Co184 2.057 . S
N193 C194 1.316 . S
N193 C195 1.375 . S
C194 N193 1.316 . S
C194 N196 1.347 . S
C194 H205 0.931 . S
C195 N193 1.375 . S
C195 C197 1.350 . S
C195 H204 0.930 . S
N196 C194 1.347 . S
N196 C197 1.373 . S
C197 C195 1.350 . S
C197 N196 1.373 . S
C197 H211 0.931 . S
C198 O201 1.256 . S
C198 O202 1.255 . S
O199 Co182 2.021 . S
O199 C192 1.259 . S
O200 Co184 2.117 . S
O200 C192 1.258 . S
O201 Co184 2.020 . S
O201 C198 1.256 . S
O202 Co182 2.062 . S
O202 C198 1.255 . S
O203 C183 1.259 . S
O203 Co184 2.021 1_565 S
H204 C195 0.930 . S
H205 C194 0.931 . S
O206 Co182 2.117 1_565 S
O206 C183 1.258 . S
O207 Co182 2.020 . S
O207 C209 1.256 . S
O208 Co184 2.062 . S
O208 C209 1.255 . S
C209 O207 1.256 . S
C209 O208 1.255 . S
H210 C189 0.931 . S
H211 C197 0.931 . S
Co212 N217 2.057 . S
Co212 O229 2.021 . S
Co212 O232 2.062 . S
Co212 O236 2.117 . S
Co212 O237 2.020 . S
C213 O233 1.259 . S
C213 O236 1.258 . S
Co214 N223 2.057 . S
Co214 O230 2.117 . S
Co214 O231 2.020 . S
Co214 O233 2.021 . S
Co214 O238 2.062 . S
C215 N217 1.316 . S
C215 N218 1.347 . S
C215 H220 0.931 . S
C216 N217 1.375 . S
C216 C219 1.350 . S
C216 H221 0.930 . S
N217 Co212 2.057 . S
N217 C215 1.316 . S
N217 C216 1.375 . S
N218 C215 1.347 . S
N218 C219 1.373 . S
C219 C216 1.350 . S
C219 N218 1.373 . S
C219 H240 0.931 . S
H220 C215 0.931 . S
H221 C216 0.930 . S
C222 O229 1.259 . S
C222 O230 1.258 . S
N223 Co214 2.057 . S
N223 C224 1.316 . S
N223 C225 1.375 . S
C224 N223 1.316 . S
C224 N226 1.347 . S
C224 H235 0.931 . S
C225 N223 1.375 . S
C225 C227 1.350 . S
C225 H234 0.930 . S
N226 C224 1.347 . S
N226 C227 1.373 . S
C227 C225 1.350 . S
C227 N226 1.373 . S
C227 H241 0.931 . S
C228 O231 1.256 . S
C228 O232 1.255 . S
O229 Co212 2.021 . S
O229 C222 1.259 . S
O230 Co214 2.117 . S
O230 C222 1.258 . S
O231 Co214 2.020 . S
O231 C228 1.256 . S
O232 Co212 2.062 . S
O232 C228 1.255 . S
O233 C213 1.259 . S
O233 Co214 2.021 . S
H234 C225 0.930 . S
H235 C224 0.931 . S
O236 Co212 2.117 . S
O236 C213 1.258 . S
O237 Co212 2.020 . S
O237 C239 1.256 . S
O238 Co214 2.062 . S
O238 C239 1.255 . S
C239 O237 1.256 . S
C239 O238 1.255 . S
H240 C219 0.931 . S
H241 C227 0.931 . S
Co242 N247 2.057 . S
Co242 O259 2.021 1_556 S
Co242 O262 2.062 1_556 S
Co242 O266 2.117 1_455 S
Co242 O267 2.020 . S
C243 O263 1.259 . S
C243 O266 1.258 1_554 S
Co244 N253 2.057 . S
Co244 O260 2.117 . S
Co244 O261 2.020 . S
Co244 O263 2.021 1_455 S
Co244 O268 2.062 . S
C245 N247 1.316 . S
C245 N248 1.347 . S
C245 H250 0.931 . S
C246 N247 1.375 . S
C246 C249 1.350 . S
C246 H251 0.930 1_455 S
N247 Co242 2.057 . S
N247 C245 1.316 . S
N247 C246 1.375 . S
N248 C245 1.347 . S
N248 C249 1.373 . S
C249 C246 1.350 . S
C249 N248 1.373 . S
C249 H270 0.931 . S
H250 C245 0.931 . S
H251 C246 0.930 1_655 S
C252 O259 1.259 . S
C252 O260 1.258 . S
N253 Co244 2.057 . S
N253 C254 1.316 1_455 S
N253 C255 1.375 . S
C254 N253 1.316 1_655 S
C254 N256 1.347 . S
C254 H265 0.931 . S
C255 N253 1.375 . S
C255 C257 1.350 . S
C255 H264 0.930 . S
N256 C254 1.347 . S
N256 C257 1.373 1_655 S
C257 C255 1.350 . S
C257 N256 1.373 1_455 S
C257 H271 0.931 . S
C258 O261 1.256 . S
C258 O262 1.255 . S
O259 Co242 2.021 1_554 S
O259 C252 1.259 . S
O260 Co244 2.117 . S
O260 C252 1.258 . S
O261 Co244 2.020 . S
O261 C258 1.256 . S
O262 Co242 2.062 1_554 S
O262 C258 1.255 . S
O263 C243 1.259 . S
O263 Co244 2.021 1_655 S
H264 C255 0.930 . S
H265 C254 0.931 . S
O266 Co242 2.117 1_655 S
O266 C243 1.258 1_556 S
O267 Co242 2.020 . S
O267 C269 1.256 1_556 S
O268 Co244 2.062 . S
O268 C269 1.255 . S
C269 O267 1.256 1_554 S
C269 O268 1.255 . S
H270 C249 0.931 . S
H271 C257 0.931 . S
H272 C278 0.930 . S
H273 C281 0.930 . S
H274 C282 0.930 . S
H275 C283 0.930 . S
H276 C286 0.930 . S
H277 C287 0.930 . S
C278 H272 0.930 . S
C278 C279 1.355 . S
C278 C280 1.415 . S
C279 C278 1.355 . S
C279 C281 1.419 . S
C280 C278 1.415 . S
C280 C285 1.425 . S
C280 C287 1.409 . S
C281 H273 0.930 . S
C281 C279 1.419 . S
C281 C282 1.362 . S
C282 H274 0.930 . S
C282 C281 1.362 . S
C282 C285 1.409 . S
C283 H275 0.930 . S
C283 C284 1.355 . S
C283 C285 1.415 . S
C284 C283 1.355 . S
C284 C286 1.419 . S
C285 C280 1.425 . S
C285 C282 1.409 . S
C285 C283 1.415 . S
C286 H276 0.930 . S
C286 C284 1.419 . S
C286 C287 1.362 . S
C287 H277 0.930 . S
C287 C280 1.409 . S
C287 C286 1.362 . S
H288 C294 0.930 . S
H289 C297 0.930 . S
H290 C298 0.930 . S
H291 C299 0.930 . S
H292 C302 0.930 . S
H293 C303 0.930 . S
C294 H288 0.930 . S
C294 C295 1.355 . S
C294 C296 1.415 . S
C295 C294 1.355 . S
C295 C297 1.419 1_565 S
C296 C294 1.415 . S
C296 C301 1.425 . S
C296 C303 1.409 . S
C297 H289 0.930 . S
C297 C295 1.419 1_545 S
C297 C298 1.362 . S
C298 H290 0.930 . S
C298 C297 1.362 . S
C298 C301 1.409 1_545 S
C299 H291 0.930 . S
C299 C300 1.355 1_545 S
C299 C301 1.415 1_545 S
C300 C299 1.355 1_565 S
C300 C302 1.419 . S
C301 C296 1.425 . S
C301 C298 1.409 1_565 S
C301 C299 1.415 1_565 S
C302 H292 0.930 . S
C302 C300 1.419 . S
C302 C303 1.362 . S
C303 H293 0.930 . S
C303 C296 1.409 . S
C303 C302 1.362 . S
H304 C310 0.930 . S
H305 C313 0.930 . S
H306 C314 0.930 . S
H307 C315 0.930 . S
H308 C318 0.930 . S
H309 C319 0.930 . S
C310 H304 0.930 . S
C310 C311 1.355 . S
C310 C312 1.415 . S
C311 C310 1.355 . S
C311 C313 1.419 . S
C312 C310 1.415 . S
C312 C317 1.425 . S
C312 C319 1.409 . S
C313 H305 0.930 . S
C313 C311 1.419 . S
C313 C314 1.362 . S
C314 H306 0.930 . S
C314 C313 1.362 . S
C314 C317 1.409 . S
C315 H307 0.930 . S
C315 C316 1.355 . S
C315 C317 1.415 . S
C316 C315 1.355 . S
C316 C318 1.419 . S
C317 C312 1.425 . S
C317 C314 1.409 . S
C317 C315 1.415 . S
C318 H308 0.930 . S
C318 C316 1.419 . S
C318 C319 1.362 . S
C319 H309 0.930 . S
C319 C312 1.409 . S
C319 C318 1.362 . S
H320 C326 0.930 . S
H321 C329 0.930 . S
H322 C330 0.930 . S
H323 C331 0.930 . S
H324 C334 0.930 . S
H325 C335 0.930 . S
C326 H320 0.930 . S
C326 C327 1.355 . S
C326 C328 1.415 . S
C327 C326 1.355 . S
C327 C329 1.419 1_655 S
C328 C326 1.415 . S
C328 C333 1.448 . S
C328 C335 1.409 . S
C329 H321 0.930 . S
C329 C327 1.419 1_455 S
C329 C330 1.362 . S
C330 H322 0.930 . S
C330 C329 1.362 . S
C330 C333 1.392 1_455 S
C331 H323 0.930 . S
C331 C332 1.355 1_455 S
C331 C333 1.411 1_455 S
C332 C331 1.355 1_655 S
C332 C334 1.419 . S
C333 C328 1.448 . S
C333 C330 1.392 1_655 S
C333 C331 1.411 1_655 S
C334 H324 0.930 . S
C334 C332 1.419 . S
C334 C335 1.362 . S
C335 H325 0.930 . S
C335 C328 1.409 . S
C335 C334 1.362 . S
H336 C342 0.930 . S
H337 C345 0.930 . S
H338 C346 0.930 . S
H339 C347 0.930 . S
H340 C350 0.930 . S
H341 C351 0.930 . S
C342 H336 0.930 . S
C342 C343 1.355 . S
C342 C344 1.415 . S
C343 C342 1.355 . S
C343 C345 1.419 . S
C344 C342 1.415 . S
C344 C349 1.425 . S
C344 C351 1.409 . S
C345 H337 0.930 . S
C345 C343 1.419 . S
C345 C346 1.362 . S
C346 H338 0.930 . S
C346 C345 1.362 . S
C346 C349 1.409 . S
C347 H339 0.930 . S
C347 C348 1.355 . S
C347 C349 1.415 . S
C348 C347 1.355 . S
C348 C350 1.419 . S
C349 C344 1.425 . S
C349 C346 1.409 . S
C349 C347 1.415 . S
C350 H340 0.930 . S
C350 C348 1.419 . S
C350 C351 1.362 . S
C351 H341 0.930 . S
C351 C344 1.409 . S
C351 C350 1.362 . S
H352 C358 0.930 . S
H353 C361 0.930 . S
H354 C362 0.930 . S
H355 C363 0.930 . S
H356 C366 0.930 . S
H357 C367 0.930 . S
C358 H352 0.930 . S
C358 C359 1.355 . S
C358 C360 1.415 . S
C359 C358 1.355 . S
C359 C361 1.419 1_565 S
C360 C358 1.415 . S
C360 C365 1.425 1_565 S
C360 C367 1.409 . S
C361 H353 0.930 . S
C361 C359 1.419 1_545 S
C361 C362 1.362 . S
C362 H354 0.930 . S
C362 C361 1.362 . S
C362 C365 1.409 . S
C363 H355 0.930 . S
C363 C364 1.355 . S
C363 C365 1.415 . S
C364 C363 1.355 . S
C364 C366 1.419 1_545 S
C365 C360 1.425 1_545 S
C365 C362 1.409 . S
C365 C363 1.415 . S
C366 H356 0.930 . S
C366 C364 1.419 1_565 S
C366 C367 1.362 . S
C367 H357 0.930 . S
C367 C360 1.409 . S
C367 C366 1.362 . S
H368 C374 0.930 . S
H369 C377 0.930 . S
H370 C378 0.930 . S
H371 C379 0.930 . S
H372 C382 0.930 . S
H373 C383 0.930 . S
C374 H368 0.930 . S
C374 C375 1.355 . S
C374 C376 1.415 . S
C375 C374 1.355 . S
C375 C377 1.419 1_556 S
C376 C374 1.415 . S
C376 C381 1.425 1_556 S
C376 C383 1.409 . S
C377 H369 0.930 . S
C377 C375 1.419 1_554 S
C377 C378 1.362 . S
C378 H370 0.930 . S
C378 C377 1.362 . S
C378 C381 1.409 . S
C379 H371 0.930 . S
C379 C380 1.355 1_554 S
C379 C381 1.415 . S
C380 C379 1.355 1_556 S
C380 C382 1.419 . S
C381 C376 1.425 1_554 S
C381 C378 1.409 . S
C381 C379 1.415 . S
C382 H372 0.930 . S
C382 C380 1.419 . S
C382 C383 1.362 . S
C383 H373 0.930 . S
C383 C376 1.409 . S
C383 C382 1.362 . S
H384 C390 0.930 . S
H385 C393 0.930 . S
H386 C394 0.930 . S
H387 C395 0.930 . S
H388 C398 0.930 . S
H389 C399 0.930 . S
C390 H384 0.930 . S
C390 C391 1.355 . S
C390 C392 1.415 . S
C391 C390 1.355 . S
C391 C393 1.419 . S
C392 C390 1.415 . S
C392 C397 1.425 . S
C392 C399 1.409 . S
C393 H385 0.930 . S
C393 C391 1.419 . S
C393 C394 1.362 . S
C394 H386 0.930 . S
C394 C393 1.362 . S
C394 C397 1.409 . S
C395 H387 0.930 . S
C395 C396 1.355 . S
C395 C397 1.415 . S
C396 C395 1.355 . S
C396 C398 1.419 . S
C397 C392 1.425 . S
C397 C394 1.409 . S
C397 C395 1.415 . S
C398 H388 0.930 . S
C398 C396 1.419 . S
C398 C399 1.362 . S
C399 H389 0.930 . S
C399 C392 1.409 . S
C399 C398 1.362 . S
H400 C406 0.930 . S
H401 C409 0.930 . S
H402 C410 0.930 . S
H403 C411 0.930 . S
H404 C414 0.930 . S
H405 C415 0.930 . S
C406 H400 0.930 . S
C406 C407 1.355 . S
C406 C408 1.415 . S
C407 C406 1.355 . S
C407 C409 1.419 . S
C408 C406 1.415 . S
C408 C413 1.425 . S
C408 C415 1.409 . S
C409 H401 0.930 . S
C409 C407 1.419 . S
C409 C410 1.362 . S
C410 H402 0.930 . S
C410 C409 1.362 . S
C410 C413 1.409 . S
C411 H403 0.930 . S
C411 C412 1.355 . S
C411 C413 1.415 . S
C412 C411 1.355 . S
C412 C414 1.419 . S
C413 C408 1.425 . S
C413 C410 1.409 . S
C413 C411 1.415 . S
C414 H404 0.930 . S
C414 C412 1.419 . S
C414 C415 1.362 . S
C415 H405 0.930 . S
C415 C408 1.409 . S
C415 C414 1.362 . S
H416 C422 0.930 . S
H417 C425 0.930 . S
H418 C426 0.930 . S
H419 C427 0.930 . S
H420 C430 0.930 . S
H421 C431 0.930 . S
C422 H416 0.930 . S
C422 C423 1.349 1_556 S
C422 C424 1.420 . S
C423 C422 1.349 1_554 S
C423 C425 1.430 . S
C424 C422 1.420 . S
C424 C429 1.413 1_556 S
C424 C431 1.416 . S
C425 H417 0.930 . S
C425 C423 1.430 . S
C425 C426 1.362 . S
C426 H418 0.930 . S
C426 C425 1.362 . S
C426 C429 1.409 . S
C427 H419 0.930 . S
C427 C428 1.355 . S
C427 C429 1.415 . S
C428 C427 1.355 . S
C428 C430 1.419 1_554 S
C429 C424 1.413 1_554 S
C429 C426 1.409 . S
C429 C427 1.415 . S
C430 H420 0.930 . S
C430 C428 1.419 1_556 S
C430 C431 1.362 . S
C431 H421 0.930 . S
C431 C424 1.416 . S
C431 C430 1.362 . S
H432 C438 0.930 . S
H433 C441 0.930 . S
H434 C442 0.930 . S
H435 C443 0.930 . S
H436 C446 0.930 . S
H437 C447 0.930 . S
C438 H432 0.930 . S
C438 C439 1.355 . S
C438 C440 1.415 . S
C439 C438 1.355 . S
C439 C441 1.419 . S
C440 C438 1.415 . S
C440 C445 1.425 . S
C440 C447 1.409 . S
C441 H433 0.930 . S
C441 C439 1.419 . S
C441 C442 1.362 . S
C442 H434 0.930 . S
C442 C441 1.362 . S
C442 C445 1.409 . S
C443 H435 0.930 . S
C443 C444 1.355 . S
C443 C445 1.415 . S
C444 C443 1.355 . S
C444 C446 1.419 . S
C445 C440 1.425 . S
C445 C442 1.409 . S
C445 C443 1.415 . S
C446 H436 0.930 . S
C446 C444 1.419 . S
C446 C447 1.362 . S
C447 H437 0.930 . S
C447 C440 1.409 . S
C447 C446 1.362 . S
H448 C454 0.930 . S
H449 C457 0.930 . S
H450 C458 0.930 . S
H451 C459 0.930 . S
H452 C462 0.930 . S
H453 C463 0.930 . S
C454 H448 0.930 . S
C454 C455 1.355 . S
C454 C456 1.415 . S
C455 C454 1.355 . S
C455 C457 1.419 . S
C456 C454 1.415 . S
C456 C461 1.425 . S
C456 C463 1.409 . S
C457 H449 0.930 . S
C457 C455 1.419 . S
C457 C458 1.362 . S
C458 H450 0.930 . S
C458 C457 1.362 . S
C458 C461 1.409 . S
C459 H451 0.930 . S
C459 C460 1.355 . S
C459 C461 1.415 . S
C460 C459 1.355 . S
C460 C462 1.419 . S
C461 C456 1.425 . S
C461 C458 1.409 . S
C461 C459 1.415 . S
C462 H452 0.930 . S
C462 C460 1.419 . S
C462 C463 1.362 . S
C463 H453 0.930 . S
C463 C456 1.409 . S
C463 C462 1.362 . S
H464 C470 0.930 1_455 S
H465 C473 0.930 . S
H466 C474 0.930 . S
H467 C475 0.930 . S
H468 C478 0.930 . S
H469 C479 0.930 . S
C470 H464 0.930 1_655 S
C470 C471 1.355 . S
C470 C472 1.415 . S
C471 C470 1.355 . S
C471 C473 1.419 1_565 S
C472 C470 1.415 . S
C472 C477 1.425 1_565 S
C472 C479 1.409 1_655 S
C473 H465 0.930 . S
C473 C471 1.419 1_545 S
C473 C474 1.362 . S
C474 H466 0.930 . S
C474 C473 1.362 . S
C474 C477 1.409 . S
C475 H467 0.930 . S
C475 C476 1.355 . S
C475 C477 1.415 . S
C476 C475 1.355 . S
C476 C478 1.419 1_645 S
C477 C472 1.425 1_545 S
C477 C474 1.409 . S
C477 C475 1.415 . S
C478 H468 0.930 . S
C478 C476 1.419 1_465 S
C478 C479 1.362 . S
C479 H469 0.930 . S
C479 C472 1.409 1_455 S
C479 C478 1.362 . S
H480 C486 0.930 . S
H481 C489 0.930 . S
H482 C490 0.930 . S
H483 C491 0.930 . S
H484 C494 0.930 . S
H485 C495 0.930 . S
C486 H480 0.930 . S
C486 C487 1.355 . S
C486 C488 1.415 . S
C487 C486 1.355 . S
C487 C489 1.419 . S
C488 C486 1.415 . S
C488 C493 1.425 . S
C488 C495 1.409 . S
C489 H481 0.930 . S
C489 C487 1.419 . S
C489 C490 1.362 . S
C490 H482 0.930 . S
C490 C489 1.362 . S
C490 C493 1.409 . S
C491 H483 0.930 . S
C491 C492 1.355 . S
C491 C493 1.415 . S
C492 C491 1.355 . S
C492 C494 1.419 . S
C493 C488 1.425 . S
C493 C490 1.409 . S
C493 C491 1.415 . S
C494 H484 0.930 . S
C494 C492 1.419 . S
C494 C495 1.362 . S
C495 H485 0.930 . S
C495 C488 1.409 . S
C495 C494 1.362 . S
H496 C502 0.930 . S
H497 C505 0.930 . S
H498 C506 0.930 . S
H499 C507 0.930 . S
H500 C510 0.930 . S
H501 C511 0.930 . S
C502 H496 0.930 . S
C502 C503 1.355 . S
C502 C504 1.415 . S
C503 C502 1.355 . S
C503 C505 1.419 . S
C504 C502 1.415 . S
C504 C509 1.425 . S
C504 C511 1.409 . S
C505 H497 0.930 . S
C505 C503 1.419 . S
C505 C506 1.362 . S
C506 H498 0.930 . S
C506 C505 1.362 . S
C506 C509 1.409 . S
C507 H499 0.930 . S
C507 C508 1.355 . S
C507 C509 1.415 . S
C508 C507 1.355 . S
C508 C510 1.419 . S
C509 C504 1.425 . S
C509 C506 1.409 . S
C509 C507 1.415 . S
C510 H500 0.930 . S
C510 C508 1.419 . S
C510 C511 1.362 . S
C511 H501 0.930 . S
C511 C504 1.409 . S
C511 C510 1.362 . S
H512 C518 0.930 . S
H513 C521 0.930 . S
H514 C522 0.930 . S
H515 C523 0.930 . S
H516 C526 0.930 . S
H517 C527 0.930 . S
C518 H512 0.930 . S
C518 C519 1.355 . S
C518 C520 1.415 . S
C519 C518 1.355 . S
C519 C521 1.419 . S
C520 C518 1.415 . S
C520 C525 1.425 . S
C520 C527 1.409 . S
C521 H513 0.930 . S
C521 C519 1.419 . S
C521 C522 1.362 . S
C522 H514 0.930 . S
C522 C521 1.362 . S
C522 C525 1.409 . S
C523 H515 0.930 . S
C523 C524 1.355 . S
C523 C525 1.415 . S
C524 C523 1.355 . S
C524 C526 1.419 . S
C525 C520 1.425 . S
C525 C522 1.409 . S
C525 C523 1.415 . S
C526 H516 0.930 . S
C526 C524 1.419 . S
C526 C527 1.362 . S
C527 H517 0.930 . S
C527 C520 1.409 . S
C527 C526 1.362 . S
H528 C534 0.930 . S
H529 C537 0.930 . S
H530 C538 0.930 . S
H531 C539 0.930 . S
H532 C542 0.929 1_566 S
H533 C543 0.930 . S
C534 H528 0.930 . S
C534 C535 1.355 1_565 S
C534 C536 1.415 1_565 S
C535 C534 1.355 1_545 S
C535 C537 1.419 1_556 S
C536 C534 1.415 1_545 S
C536 C541 1.425 1_556 S
C536 C543 1.409 1_545 S
C537 H529 0.930 . S
C537 C535 1.419 1_554 S
C537 C538 1.362 . S
C538 H530 0.930 . S
C538 C537 1.362 . S
C538 C541 1.409 . S
C539 H531 0.930 . S
C539 C540 1.355 . S
C539 C541 1.415 . S
C540 C539 1.355 . S
C540 C542 1.433 . S
C541 C536 1.425 1_554 S
C541 C538 1.409 . S
C541 C539 1.415 . S
C542 H532 0.929 1_544 S
C542 C540 1.433 . S
C542 C543 1.350 1_544 S
C543 H533 0.930 . S
C543 C536 1.409 1_565 S
C543 C542 1.350 1_566 S
H544 C550 0.930 . S
H545 C553 0.930 . S
H546 C554 0.930 . S
H547 C555 0.930 . S
H548 C558 0.930 . S
H549 C559 0.930 . S
C550 H544 0.930 . S
C550 C551 1.355 . S
C550 C552 1.415 . S
C551 C550 1.355 . S
C551 C553 1.419 . S
C552 C550 1.415 . S
C552 C557 1.425 . S
C552 C559 1.409 . S
C553 H545 0.930 . S
C553 C551 1.419 . S
C553 C554 1.362 . S
C554 H546 0.930 . S
C554 C553 1.362 . S
C554 C557 1.409 . S
C555 H547 0.930 . S
C555 C556 1.355 . S
C555 C557 1.415 . S
C556 C555 1.355 . S
C556 C558 1.419 . S
C557 C552 1.425 . S
C557 C554 1.409 . S
C557 C555 1.415 . S
C558 H548 0.930 . S
C558 C556 1.419 . S
C558 C559 1.362 . S
C559 H549 0.930 . S
C559 C552 1.409 . S
C559 C558 1.362 . S
H560 C566 0.930 . S
H561 C569 0.930 . S
H562 C570 0.930 . S
H563 C571 0.930 . S
H564 C574 0.930 . S
H565 C575 0.930 . S
C566 H560 0.930 . S
C566 C567 1.355 . S
C566 C568 1.415 . S
C567 C566 1.355 . S
C567 C569 1.419 . S
C568 C566 1.415 . S
C568 C573 1.425 . S
C568 C575 1.409 . S
C569 H561 0.930 . S
C569 C567 1.419 . S
C569 C570 1.362 . S
C570 H562 0.930 . S
C570 C569 1.362 . S
C570 C573 1.409 . S
C571 H563 0.930 . S
C571 C572 1.355 . S
C571 C573 1.415 . S
C572 C571 1.355 . S
C572 C574 1.419 . S
C573 C568 1.425 . S
C573 C570 1.409 . S
C573 C571 1.415 . S
C574 H564 0.930 . S
C574 C572 1.419 . S
C574 C575 1.362 . S
C575 H565 0.930 . S
C575 C568 1.409 . S
C575 C574 1.362 . S
H576 C582 0.930 . S
H577 C585 0.930 . S
H578 C586 0.930 . S
H579 C587 0.930 . S
H580 C590 0.930 . S
H581 C591 0.930 . S
C582 H576 0.930 . S
C582 C583 1.355 . S
C582 C584 1.415 . S
C583 C582 1.355 . S
C583 C585 1.419 . S
C584 C582 1.415 . S
C584 C589 1.425 . S
C584 C591 1.409 . S
C585 H577 0.930 . S
C585 C583 1.419 . S
C585 C586 1.362 . S
C586 H578 0.930 . S
C586 C585 1.362 . S
C586 C589 1.409 . S
C587 H579 0.930 . S
C587 C588 1.355 . S
C587 C589 1.415 . S
C588 C587 1.355 . S
C588 C590 1.419 . S
C589 C584 1.425 . S
C589 C586 1.409 . S
C589 C587 1.415 . S
C590 H580 0.930 . S
C590 C588 1.419 . S
C590 C591 1.362 . S
C591 H581 0.930 . S
C591 C584 1.409 . S
C591 C590 1.362 . S
H592 C598 0.930 . S
H593 C601 0.930 . S
H594 C602 0.930 . S
H595 C603 0.930 . S
H596 C606 0.930 . S
H597 C607 0.930 . S
C598 H592 0.930 . S
C598 C599 1.355 . S
C598 C600 1.415 . S
C599 C598 1.355 . S
C599 C601 1.419 1_655 S
C600 C598 1.415 . S
C600 C605 1.425 1_655 S
C600 C607 1.409 . S
C601 H593 0.930 . S
C601 C599 1.419 1_455 S
C601 C602 1.362 . S
C602 H594 0.930 . S
C602 C601 1.362 . S
C602 C605 1.409 . S
C603 H595 0.930 . S
C603 C604 1.355 . S
C603 C605 1.415 . S
C604 C603 1.355 . S
C604 C606 1.419 1_455 S
C605 C600 1.425 1_455 S
C605 C602 1.409 . S
C605 C603 1.415 . S
C606 H596 0.930 . S
C606 C604 1.419 1_655 S
C606 C607 1.362 . S
C607 H597 0.930 . S
C607 C600 1.409 . S
C607 C606 1.362 . S
H608 C614 0.930 . S
H609 C617 0.930 . S
H610 C618 0.930 . S
H611 C619 0.930 . S
H612 C622 0.930 . S
H613 C623 0.930 . S
C614 H608 0.930 . S
C614 C615 1.355 . S
C614 C616 1.415 . S
C615 C614 1.355 . S
C615 C617 1.419 . S
C616 C614 1.415 . S
C616 C621 1.425 . S
C616 C623 1.409 . S
C617 H609 0.930 . S
C617 C615 1.419 . S
C617 C618 1.362 . S
C618 H610 0.930 . S
C618 C617 1.362 . S
C618 C621 1.409 . S
C619 H611 0.930 . S
C619 C620 1.355 . S
C619 C621 1.415 . S
C620 C619 1.355 . S
C620 C622 1.419 . S
C621 C616 1.425 . S
C621 C618 1.409 . S
C621 C619 1.415 . S
C622 H612 0.930 . S
C622 C620 1.419 . S
C622 C623 1.362 . S
C623 H613 0.930 . S
C623 C616 1.409 . S
C623 C622 1.362 . S
H624 C630 0.930 . S
H625 C633 0.930 . S
H626 C634 0.930 . S
H627 C635 0.930 . S
H628 C638 0.922 1_655 S
H629 C639 0.930 . S
C630 H624 0.930 . S
C630 C631 1.355 . S
C630 C632 1.415 . S
C631 C630 1.355 . S
C631 C633 1.419 . S
C632 C630 1.415 . S
C632 C637 1.425 . S
C632 C639 1.409 . S
C633 H625 0.930 . S
C633 C631 1.419 . S
C633 C634 1.362 . S
C634 H626 0.930 . S
C634 C633 1.362 . S
C634 C637 1.409 . S
C635 H627 0.930 . S
C635 C636 1.355 . S
C635 C637 1.415 . S
C636 C635 1.355 . S
C636 C638 1.419 . S
C637 C632 1.425 . S
C637 C634 1.409 . S
C637 C635 1.415 . S
C638 H628 0.922 1_455 S
C638 C636 1.419 . S
C638 C639 1.362 . S
C639 H629 0.930 . S
C639 C632 1.409 . S
C639 C638 1.362 . S
H640 C646 0.930 . S
H641 C649 0.930 . S
H642 C650 0.930 . S
H643 C651 0.930 . S
H644 C654 0.930 . S
H645 C655 0.930 . S
C646 H640 0.930 . S
C646 C647 1.355 . S
C646 C648 1.415 . S
C647 C646 1.355 . S
C647 C649 1.419 . S
C648 C646 1.415 . S
C648 C653 1.425 . S
C648 C655 1.409 . S
C649 H641 0.930 . S
C649 C647 1.419 . S
C649 C650 1.362 . S
C650 H642 0.930 . S
C650 C649 1.362 . S
C650 C653 1.409 . S
C651 H643 0.930 . S
C651 C652 1.355 . S
C651 C653 1.415 . S
C652 C651 1.355 . S
C652 C654 1.419 . S
C653 C648 1.425 . S
C653 C650 1.409 . S
C653 C651 1.415 . S
C654 H644 0.930 . S
C654 C652 1.419 . S
C654 C655 1.362 . S
C655 H645 0.930 . S
C655 C648 1.409 . S
C655 C654 1.362 . S
C279 C6 2.428 . S
C284 C168 2.451 . S
C295 C21 1.599 . S
C300 N188 1.579 . S
C316 C222 1.443 . S
C311 C49 1.336 . S
C327 C68 1.083 . S
C332 N256 1.159 . S
C348 C209 2.975 . S
C343 C2 2.943 . S
C364 N166 0.943 . S
C359 C30 0.873 . S
C380 C243 1.799 1_556 S
C375 C40 1.778 . S
C396 N218 0.911 . S
C391 C63 0.974 . S
C407 C11 1.538 . S
C412 C258 1.837 . S
C428 C192 1.831 . S
C423 C44 1.818 1_554 S
C439 C59 0.989 . S
C444 C153 1.022 . S
C455 C25 1.680 . S
C460 C239 1.732 . S
C476 C179 2.585 . S
C471 C82 2.558 . S
C487 C101 1.328 . S
C492 N196 1.275 . S
C503 C125 1.788 . S
C508 C213 1.820 . S
C519 C144 0.966 . S
C524 N248 1.012 . S
C535 C87 1.876 1_545 S
C540 C198 2.051 . S
C556 N158 1.702 . S
C551 C97 1.670 . S
C572 C252 1.785 . S
C567 C120 1.774 . S
C588 N226 1.088 . S
C583 C135 1.031 . S
C599 C78 2.129 . S
C604 C269 2.129 1_556 S
C620 C183 1.351 . S
C615 C116 1.320 . S
C636 C162 1.554 . S
C631 C139 1.538 . S
C647 C106 1.321 . S
C652 C228 1.449 . S
