# Generated by pormake.
# Topology anh, (6,3)-cn, num edge types: 1
# Building blocks:
#     Node 0, Type 0, BuildingBlock: BETFAJ_clean_sbu_0, # of connection points: 6
#     Node 1, Type 0, BuildingBlock: BETFAJ_clean_sbu_0, # of connection points: 6
#     Node 2, Type 0, BuildingBlock: BETFAJ_clean_sbu_0, # of connection points: 6
#     Node 3, Type 1, BuildingBlock: PAMTOO_clean_linker_0, # of connection points: 3
#     Node 4, Type 1, BuildingBlock: PAMTOO_clean_linker_0, # of connection points: 3
#     Node 5, Type 1, BuildingBlock: PAMTOO_clean_linker_0, # of connection points: 3
#     Node 6, Type 1, BuildingBlock: PAMTOO_clean_linker_0, # of connection points: 3
#     Node 7, Type 1, BuildingBlock: PAMTOO_clean_linker_0, # of connection points: 3
#     Node 8, Type 1, BuildingBlock: PAMTOO_clean_linker_0, # of connection points: 3
#     Edge 9, Type (0, 1), BuildingBlock: EZIPEK_clean_linker_0, # of connection points: 2
#     Edge 10, Type (0, 1), BuildingBlock: EZIPEK_clean_linker_0, # of connection points: 2
#     Edge 11, Type (0, 1), BuildingBlock: EZIPEK_clean_linker_0, # of connection points: 2
#     Edge 12, Type (0, 1), BuildingBlock: EZIPEK_clean_linker_0, # of connection points: 2
#     Edge 13, Type (0, 1), BuildingBlock: EZIPEK_clean_linker_0, # of connection points: 2
#     Edge 14, Type (0, 1), BuildingBlock: EZIPEK_clean_linker_0, # of connection points: 2
#     Edge 15, Type (0, 1), BuildingBlock: EZIPEK_clean_linker_0, # of connection points: 2
#     Edge 16, Type (0, 1), BuildingBlock: EZIPEK_clean_linker_0, # of connection points: 2
#     Edge 17, Type (0, 1), BuildingBlock: EZIPEK_clean_linker_0, # of connection points: 2
#     Edge 18, Type (0, 1), BuildingBlock: EZIPEK_clean_linker_0, # of connection points: 2
#     Edge 19, Type (0, 1), BuildingBlock: EZIPEK_clean_linker_0, # of connection points: 2
#     Edge 20, Type (0, 1), BuildingBlock: EZIPEK_clean_linker_0, # of connection points: 2
#     Edge 21, Type (0, 1), BuildingBlock: EZIPEK_clean_linker_0, # of connection points: 2
#     Edge 22, Type (0, 1), BuildingBlock: EZIPEK_clean_linker_0, # of connection points: 2
#     Edge 23, Type (0, 1), BuildingBlock: EZIPEK_clean_linker_0, # of connection points: 2
#     Edge 24, Type (0, 1), BuildingBlock: EZIPEK_clean_linker_0, # of connection points: 2
#     Edge 25, Type (0, 1), BuildingBlock: EZIPEK_clean_linker_0, # of connection points: 2
#     Edge 26, Type (0, 1), BuildingBlock: EZIPEK_clean_linker_0, # of connection points: 2
# Relax obj value: 0.227
# Max RMSD: 0.213
# Mean RMSD: 0.133
data_MOF--net-anh--node1-BETFAJ_clean_sbu_0--node2-PAMTOO_clean_linker_0--edge1-EZIPEK_clean_linker_0
_symmetry_space_group_name_H-M    P1
_symmetry_Int_Tables_number       1
_symmetry_cell_setting            triclinic
loop_
_symmetry_equiv_pos_as_xyz
'x, y, z'
_cell_length_a     24.143472
_cell_length_b     29.741612
_cell_length_c     36.21499
_cell_angle_alpha  87.311973
_cell_angle_beta   91.904247
_cell_angle_gamma 132.69761
loop_
_atom_site_label
_atom_site_type_symbol
_atom_site_fract_x
_atom_site_fract_y
_atom_site_fract_z
_atom_type_partial_charge
Sm0 Sm 0.236 0.58707 0.14084 0.0
Sm1 Sm 0.13188 0.60403 0.16062 0.0
C2 C 0.32462 0.57632 0.11103 0.0
C3 C 0.32365 0.52662 0.11287 0.0
C4 C 0.27819 0.47872 0.13923 0.0
C5 C 0.27151 0.4284 0.13941 0.0
C6 C 0.31072 0.4257 0.11337 0.0
C7 C 0.35735 0.47407 0.08735 0.0
C8 C 0.36347 0.52432 0.08699 0.0
C9 C 0.20302 0.57102 0.2158 0.0
C10 C 0.31405 0.73017 0.14986 0.0
C11 C 1.04899 0.62183 0.18919 0.0
C12 C 0.96756 0.58746 0.18886 0.0
C13 C 0.92273 0.5499 0.21963 0.0
C14 C 0.8442 0.50914 0.21736 0.0
C15 C 0.80981 0.50614 0.18447 0.0
C16 C 0.85431 0.54658 0.15473 0.0
C17 C 0.93264 0.58701 0.15686 0.0
C18 C 0.12196 0.57613 0.08716 0.0
C19 C 1.05889 0.46214 0.15712 0.0
O20 O 0.34079 0.60414 0.14201 0.0
O21 O 0.26711 0.56338 0.09359 0.0
O22 O 0.21718 0.6119 0.19407 0.0
O23 O 0.2125 0.53956 0.19829 0.0
O24 O 0.32422 0.69393 0.1398 0.0
O25 O 0.24633 0.70681 0.16 0.0
O26 O 1.06791 0.59489 0.20745 0.0
O27 O 1.08565 0.64805 0.15791 0.0
O28 O 0.18205 0.61281 0.10554 0.0
O29 O 1.06468 0.55547 0.10698 0.0
O30 O 1.05568 0.49894 0.17411 0.0
O31 O 0.11931 0.48638 0.13716 0.0
H32 H 0.24723 0.48004 0.15935 0.0
H33 H 0.23554 0.39144 0.1597 0.0
H34 H 0.38812 0.47247 0.0672 0.0
H35 H 0.39832 0.56084 0.06633 0.0
H36 H 0.94823 0.5498 0.24478 0.0
H37 H 0.81033 0.47797 0.24048 0.0
H38 H 0.82821 0.54453 0.12913 0.0
H39 H 0.96539 0.61569 0.13281 0.0
Sm40 Sm 0.79519 0.08603 0.46563 0.0
Sm41 Sm 0.68836 0.11245 0.46287 0.0
C42 C 0.86358 0.04628 0.48119 0.0
C43 C 0.8407 0.98826 0.49398 0.0
C44 C 0.77527 0.94528 0.51526 0.0
C45 C 0.75314 0.88946 0.52632 0.0
C46 C 0.79584 0.87593 0.51591 0.0
C47 C 0.8607 0.91862 0.49431 0.0
C48 C 0.88306 0.97455 0.48346 0.0
C49 C 0.77477 0.11625 0.39688 0.0
C50 C 0.60761 0.96722 0.46156 0.0
C51 C 0.61517 0.14688 0.44318 0.0
C52 C 0.62049 0.19601 0.45567 0.0
C53 C 0.68373 0.24399 0.47591 0.0
C54 C 0.68961 0.29115 0.48763 0.0
C55 C 0.632 0.29065 0.47954 0.0
C56 C 0.56841 0.24247 0.45961 0.0
C57 C 0.56274 0.19537 0.44767 0.0
C58 C 0.7181 0.10139 0.53601 0.0
C59 C 0.87765 0.23058 0.46607 0.0
O60 O 0.8573 0.07449 0.50501 0.0
O61 O 0.84108 0.04651 0.44788 0.0
O62 O 0.72367 0.08194 0.42093 0.0
O63 O 0.83747 0.13221 0.40808 0.0
O64 O 0.67525 0.98673 0.46876 0.0
O65 O 0.59895 1.00658 0.45482 0.0
O66 O 0.67428 0.16521 0.42554 0.0
O67 O 0.58858 0.10219 0.46735 0.0
O68 O 0.7427 0.099 0.50699 0.0
O69 O 0.67507 0.11158 0.52672 0.0
O70 O 0.8101 0.21111 0.45838 0.0
O71 O 0.88514 0.19101 0.47482 0.0
H72 H 0.74137 0.95485 0.52324 0.0
H73 H 0.70292 0.85687 0.54299 0.0
H74 H 0.89412 0.90869 0.4861 0.0
H75 H 0.93323 1.00703 0.46674 0.0
H76 H 0.7286 0.24497 0.48254 0.0
H77 H 0.73895 0.32799 0.50304 0.0
H78 H 0.52352 0.24156 0.4532 0.0
H79 H 0.5135 0.15859 0.43219 0.0
Sm80 Sm 0.66574 0.57114 0.85162 0.0
Sm81 Sm 0.56444 0.44288 0.83913 0.0
C82 C 0.76292 0.69296 0.84579 0.0
C83 C 0.7576 0.73862 0.83373 0.0
C84 C 0.78931 0.77115 0.79976 0.0
C85 C 0.7814 0.81168 0.78671 0.0
C86 C 0.74286 0.82165 0.80765 0.0
C87 C 0.71276 0.79055 0.84207 0.0
C88 C 0.71963 0.74918 0.8549 0.0
C89 C 0.59617 0.50097 0.91605 0.0
C90 C 0.48042 0.50099 0.84798 0.0
C91 C 0.4963 0.32705 0.82721 0.0
C92 C 0.51444 0.28842 0.82757 0.0
C93 C 0.58457 0.31042 0.84017 0.0
C94 C 0.60539 0.27713 0.83467 0.0
C95 C 0.55591 0.22084 0.81695 0.0
C96 C 0.48466 0.19783 0.80574 0.0
C97 C 0.46431 0.23143 0.81086 0.0
C98 C 0.58605 0.50827 0.77636 0.0
C99 C 0.75342 0.51591 0.85062 0.0
O100 O 0.75273 0.65866 0.82013 0.0
O101 O 0.7315 0.66225 0.87698 0.0
O102 O 0.62367 0.49179 0.89175 0.0
O103 O 0.60544 0.54832 0.90704 0.0
O104 O 0.55198 0.55355 0.8416 0.0
O105 O 0.47106 0.45056 0.85222 0.0
O106 O 0.49289 0.34478 0.85864 0.0
O107 O 0.53078 0.37076 0.80193 0.0
O108 O 0.63761 0.52262 0.79818 0.0
O109 O 0.52041 0.46176 0.78951 0.0
O110 O 0.68226 0.46454 0.84303 0.0
O111 O 0.76172 0.56471 0.85628 0.0
H112 H 0.81948 0.76458 0.78294 0.0
H113 H 0.80542 0.83536 0.7602 0.0
H114 H 0.68304 0.79771 0.85875 0.0
H115 H 0.69462 0.72515 0.88121 0.0
H116 H 0.62413 0.35407 0.85325 0.0
H117 H 0.66072 0.29592 0.84343 0.0
H118 H 0.44571 0.15469 0.79193 0.0
H119 H 0.41026 0.21381 0.8006 0.0
H120 H 0.84308 0.22548 0.2382 0.0
H121 H 0.64722 0.03405 0.23001 0.0
H122 H 0.74411 0.15016 0.13135 0.0
H123 H 0.55653 1.01744 0.12419 0.0
C124 C 0.56066 1.00237 0.15195 0.0
O125 O 0.63635 0.03273 0.15847 0.0
H126 H 0.54211 0.01874 0.17041 0.0
C127 C 0.79984 0.18705 0.22126 0.0
C128 C 0.80087 0.19635 0.18287 0.0
C129 C 0.74402 0.12921 0.23836 0.0
C130 C 0.68835 0.07891 0.21677 0.0
C131 C 0.68698 0.0851 0.17826 0.0
C132 C 0.74355 0.1446 0.16113 0.0
H133 H 0.675 0.65699 0.62045 0.0
H134 H 0.66575 0.50772 0.61412 0.0
H135 H 0.73545 0.62822 0.5197 0.0
H136 H 0.64346 0.50417 0.49556 0.0
C137 C 0.64271 0.48273 0.52174 0.0
O138 O 0.70174 0.52753 0.54405 0.0
H139 H 0.58727 0.46032 0.53406 0.0
C140 C 0.68206 0.63083 0.60497 0.0
C141 C 0.70855 0.64921 0.56855 0.0
C142 C 0.66793 0.58058 0.62203 0.0
C143 C 0.6768 0.54686 0.60144 0.0
C144 C 0.69836 0.56265 0.56426 0.0
C145 C 0.71611 0.61477 0.54808 0.0
H146 H 1.0035 0.53329 0.92793 0.0
H147 H 0.18308 0.53638 0.92384 0.0
H148 H 1.06171 0.50904 0.82307 0.0
H149 H 0.15488 0.4381 0.84623 0.0
C150 C 0.19827 0.47966 0.86225 0.0
O151 O 0.18483 0.52057 0.85437 0.0
H152 H 0.18198 0.46506 0.89164 0.0
C153 C 1.03655 0.5298 0.91095 0.0
C154 C 1.02103 0.5212 0.87278 0.0
C155 C 0.09376 0.53535 0.92859 0.0
C156 C 0.13906 0.53071 0.90899 0.0
C157 C 0.1299 0.51933 0.87108 0.0
C158 C 1.06929 0.51498 0.8526 0.0
H159 H 1.08641 0.46118 0.38054 0.0
H160 H 0.29573 0.64881 0.38186 0.0
H161 H 0.19813 0.54388 0.4843 0.0
H162 H 0.30501 0.69678 0.49283 0.0
C163 C 0.3218 0.70467 0.46337 0.0
O164 O 0.31429 0.65594 0.45298 0.0
H165 H 0.2793 0.70327 0.44903 0.0
C166 C 0.13207 0.50066 0.39612 0.0
C167 C 0.13415 0.49439 0.43469 0.0
C168 C 0.1902 0.55565 0.37693 0.0
C169 C 0.25007 0.60688 0.39674 0.0
C170 C 0.25246 0.60467 0.43544 0.0
C171 C 0.19466 0.54746 0.45459 0.0
H172 H 0.7318 0.97829 0.68989 0.0
H173 H 0.70076 0.10352 0.69993 0.0
H174 H 0.69214 1.00994 0.79688 0.0
H175 H 0.58598 0.02965 0.80332 0.0
C176 C 0.60892 0.06348 0.77991 0.0
O177 O 0.68082 0.08841 0.77167 0.0
H178 H 0.56895 0.0354 0.75699 0.0
C179 C 0.72213 1.00137 0.70697 0.0
C180 C 0.71387 0.98976 0.7455 0.0
C181 C 0.71682 0.04207 0.6904 0.0
C182 C 0.704 0.07168 0.71259 0.0
C183 C 0.694 0.05968 0.75082 0.0
C184 C 0.69918 0.01881 0.76726 0.0
H185 H 0.6045 0.42572 0.07938 0.0
H186 H 0.3758 0.29052 0.04098 0.0
H187 H 0.43669 0.26784 0.14839 0.0
H188 H 0.26207 0.1891 0.14579 0.0
C189 C 0.26977 0.20848 0.11762 0.0
O190 O 0.32685 0.21765 0.09977 0.0
H191 H 0.21504 0.17025 0.10469 0.0
C192 C 0.5465 0.38334 0.0838 0.0
C193 C 0.52614 0.35022 0.11734 0.0
C194 C 0.49271 0.36282 0.05618 0.0
C195 C 0.41797 0.3074 0.06222 0.0
C196 C 0.39808 0.2725 0.09507 0.0
C197 C 0.45211 0.2943 0.12282 0.0
C198 C 0.25989 0.32822 0.08599 0.0
C199 C 0.30289 0.3719 0.11375 0.0
C200 C 0.32158 0.30863 0.14567 0.0
C201 C 0.28163 0.26599 0.11664 0.0
N202 N 0.23339 0.24623 0.05385 0.0
N203 N 0.38726 0.41096 0.16578 0.0
C204 C 0.25685 0.279 0.0852 0.0
C205 C 0.33729 0.36414 0.14243 0.0
N206 N 0.22003 0.33266 0.06093 0.0
N207 N 0.34462 0.29658 0.17645 0.0
H208 H 0.40083 0.45259 0.16392 0.0
H209 H 0.42026 0.411 0.18504 0.0
H210 H 0.34262 0.26058 0.17927 0.0
H211 H 0.36323 0.32123 0.20047 0.0
H212 H 0.22102 0.3683 0.0604 0.0
H213 H 0.18077 0.29816 0.04278 0.0
H214 H 0.22268 0.25841 0.02906 0.0
H215 H 0.23294 0.21132 0.0509 0.0
C216 C 1.01403 0.32164 0.44419 0.0
C217 C 0.94789 0.29938 0.46297 0.0
C218 C 1.00866 0.40788 0.46833 0.0
C219 C 1.07567 0.42948 0.4514 0.0
N220 N 0.14796 0.40604 0.43266 0.0
N221 N 0.89293 0.32458 0.50134 0.0
C222 C 1.08006 0.38587 0.44272 0.0
C223 C 0.94843 0.34359 0.4775 0.0
N224 N 1.01278 0.28251 0.425 0.0
N225 N 1.0013 0.44848 0.47465 0.0
H226 H 0.85084 0.27901 0.51029 0.0
H227 H 0.89328 0.3546 0.5153 0.0
H228 H 1.04483 0.49549 0.46956 0.0
H229 H 0.95081 0.43514 0.4827 0.0
H230 H 1.05619 0.29725 0.40754 0.0
H231 H 0.96542 0.23619 0.42293 0.0
H232 H 0.15704 0.37682 0.42947 0.0
H233 H 0.19705 0.45241 0.43142 0.0
C234 C 0.79611 0.92904 0.79497 0.0
C235 C 0.73417 0.86473 0.79329 0.0
C236 C 0.65867 0.88227 0.76055 0.0
C237 C 0.72008 0.94656 0.76292 0.0
N238 N 0.84469 0.03191 0.78493 0.0
N239 N 0.60446 0.77923 0.77776 0.0
C240 C 0.78806 0.9701 0.78094 0.0
C241 C 0.66478 0.84114 0.77705 0.0
N242 N 0.8632 0.95073 0.80944 0.0
N243 N 0.59494 0.8607 0.7418 0.0
H244 H 0.6078 0.74764 0.78767 0.0
H245 H 0.54988 0.75866 0.77035 0.0
H246 H 0.58671 0.88905 0.73126 0.0
H247 H 0.55129 0.81522 0.73504 0.0
H248 H 0.91341 0.99636 0.80777 0.0
H249 H 0.86994 0.92239 0.82196 0.0
H250 H 0.89237 0.05232 0.80118 0.0
H251 H 0.84258 0.0635 0.77335 0.0
C252 C 0.70148 0.40179 0.16216 0.0
C253 C 0.72789 0.45572 0.17862 0.0
C254 C 0.60806 0.42761 0.16542 0.0
C255 C 0.58447 0.37651 0.14629 0.0
N256 N 0.59667 0.30436 0.13559 0.0
N257 N 0.70225 0.51279 0.20471 0.0
C258 C 0.62702 0.35978 0.14808 0.0
C259 C 0.67929 0.46591 0.18347 0.0
N260 N 0.74951 0.3931 0.15751 0.0
N261 N 0.56378 0.44087 0.16446 0.0
H262 H 0.75463 0.54141 0.21789 0.0
H263 H 0.66793 0.52057 0.21162 0.0
H264 H 0.51009 0.41189 0.15264 0.0
H265 H 0.58051 0.48089 0.17421 0.0
H266 H 0.73742 0.36036 0.14029 0.0
H267 H 0.80336 0.42107 0.16909 0.0
H268 H 0.6219 0.28677 0.13946 0.0
H269 H 0.54272 0.2733 0.12426 0.0
C270 C 0.52054 0.85767 0.49019 0.0
C271 C 0.53908 0.89837 0.45994 0.0
C272 C 0.42274 0.80983 0.42792 0.0
C273 C 0.4032 0.76951 0.45871 0.0
N274 N 0.44778 0.75277 0.51315 0.0
N275 N 0.51774 0.90867 0.39599 0.0
C276 C 0.45687 0.79287 0.48785 0.0
C277 C 0.49277 0.87303 0.42769 0.0
N278 N 0.56144 0.88099 0.52217 0.0
N279 N 0.37406 0.78805 0.39876 0.0
H280 H 0.5691 0.95397 0.39438 0.0
H281 H 0.4916 0.89208 0.37039 0.0
H282 H 0.32781 0.74165 0.39535 0.0
H283 H 0.37834 0.81608 0.37833 0.0
H284 H 0.54555 0.85511 0.54666 0.0
H285 H 0.60805 0.92739 0.52532 0.0
H286 H 0.4883 0.76565 0.53286 0.0
H287 H 0.40338 0.70548 0.51182 0.0
C288 C 0.59005 0.159 0.83601 0.0
C289 C 0.57989 0.18757 0.80775 0.0
C290 C 0.60008 0.14294 0.76059 0.0
C291 C 0.60902 0.11344 0.78899 0.0
N292 N 0.64164 0.11378 0.85277 0.0
N293 N 0.59706 0.22135 0.74395 0.0
C294 C 0.61334 0.12801 0.82644 0.0
C295 C 0.59155 0.18394 0.77024 0.0
N296 N 0.57442 0.15911 0.87191 0.0
N297 N 0.59833 0.13115 0.72435 0.0
H298 H 0.59244 0.25262 0.75011 0.0
H299 H 0.6134 0.22585 0.71678 0.0
H300 H 0.61126 0.1064 0.71556 0.0
H301 H 0.58103 0.1439 0.70296 0.0
H302 H 0.57273 0.13323 0.89307 0.0
H303 H 0.55692 0.18096 0.88008 0.0
H304 H 0.65214 0.128 0.8799 0.0
H305 H 0.66322 0.09431 0.84649 0.0
C306 C 0.71002 0.76181 0.51276 0.0
C307 C 0.77388 0.81759 0.5285 0.0
C308 C 0.80079 0.76339 0.56556 0.0
C309 C 0.73253 0.70701 0.55294 0.0
N310 N 0.61678 0.65091 0.51825 0.0
N311 N 0.87304 0.87085 0.57427 0.0
C312 C 0.68561 0.70568 0.52745 0.0
C313 C 0.8175 0.81827 0.55609 0.0
N314 N 0.6741 0.76269 0.48315 0.0
N315 N 0.85053 0.76457 0.58586 0.0
H316 H 0.88667 0.91205 0.56837 0.0
H317 H 0.90104 0.87241 0.5974 0.0
H318 H 0.84054 0.72522 0.59306 0.0
H319 H 0.90462 0.80485 0.59259 0.0
H320 H 0.6322 0.72421 0.46804 0.0
H321 H 0.69041 0.80299 0.47166 0.0
H322 H 0.57646 0.64717 0.5031 0.0
H323 H 0.59754 0.60886 0.52809 0.0
C324 C 0.82452 0.47496 0.83601 0.0
C325 C 0.82409 0.51824 0.8532 0.0
C326 C 0.96014 0.57074 0.87111 0.0
C327 C 0.95629 0.5227 0.85949 0.0
N328 N 0.87105 0.42237 0.83471 0.0
N329 N 0.89665 0.60043 0.89629 0.0
C330 C 0.88432 0.47315 0.84306 0.0
C331 C 0.89375 0.56418 0.87297 0.0
N332 N 0.76957 0.43649 0.81086 0.0
N333 N 1.02936 0.62509 0.8801 0.0
H334 H 0.85035 0.59494 0.90181 0.0
H335 H 0.94186 0.63017 0.91409 0.0
H336 H 1.07838 0.63296 0.87806 0.0
H337 H 1.03894 0.66411 0.88515 0.0
H338 H 0.76939 0.40806 0.79499 0.0
H339 H 0.72957 0.43837 0.80242 0.0
H340 H 0.81814 0.38161 0.82706 0.0
H341 H 0.9121 0.42002 0.8383 0.0
C342 C 0.40476 0.82956 0.18538 0.0
C343 C 0.3816 0.79912 0.15129 0.0
C344 C 0.49055 0.89849 0.12131 0.0
C345 C 0.50537 0.93071 0.15376 0.0
N346 N 0.47424 0.92424 0.21777 0.0
N347 N 0.40022 0.80704 0.08557 0.0
C348 C 0.46199 0.89535 0.18612 0.0
C349 C 0.42443 0.83428 0.11901 0.0
N350 N 0.37486 0.79529 0.21758 0.0
N351 N 0.54071 0.92901 0.09274 0.0
H352 H 0.35246 0.76079 0.08262 0.0
H353 H 0.42351 0.83129 0.06048 0.0
H354 H 0.59053 0.97493 0.09385 0.0
H355 H 0.53729 0.90733 0.06983 0.0
H356 H 0.39435 0.81358 0.2437 0.0
H357 H 0.33589 0.74763 0.21816 0.0
H358 H 0.43755 0.90235 0.2402 0.0
H359 H 0.5194 0.97075 0.22131 0.0
C360 C 0.67793 0.39525 0.4695 0.0
C361 C 0.6388 0.34111 0.49189 0.0
C362 C 0.61111 0.38255 0.53718 0.0
C363 C 0.64832 0.43605 0.51399 0.0
N364 N 0.74024 0.50201 0.46596 0.0
N365 N 0.58018 0.28656 0.54979 0.0
C366 C 0.68889 0.4451 0.48252 0.0
C367 C 0.60892 0.33576 0.52663 0.0
N368 N 0.70311 0.39849 0.43532 0.0
N369 N 0.57765 0.37638 0.56917 0.0
H370 H 0.57609 0.25087 0.54252 0.0
H371 H 0.56451 0.28237 0.57704 0.0
H372 H 0.58611 0.41223 0.58043 0.0
H373 H 0.54055 0.33558 0.58458 0.0
H374 H 0.72395 0.43375 0.41593 0.0
H375 H 0.69794 0.36355 0.42514 0.0
H376 H 0.77655 0.51266 0.44511 0.0
H377 H 0.75299 0.5405 0.47586 0.0
C378 C 0.34938 0.45832 0.87678 0.0
C379 C 0.41078 0.49907 0.85123 0.0
C380 C 0.34276 0.53784 0.83537 0.0
C381 C 0.2774 0.49216 0.85825 0.0
N382 N 0.21722 0.39631 0.89195 0.0
N383 N 0.45395 0.573 0.80144 0.0
C384 C 0.28117 0.4493 0.87619 0.0
C385 C 0.40393 0.53777 0.82958 0.0
N386 N 0.35664 0.42909 0.90386 0.0
N387 N 0.3476 0.5825 0.8189 0.0
H388 H 0.49572 0.57297 0.7952 0.0
H389 H 0.44951 0.59731 0.78199 0.0
H390 H 0.30502 0.58285 0.82133 0.0
H391 H 0.39578 0.62137 0.80557 0.0
H392 H 0.31908 0.40445 0.92587 0.0
H393 H 0.40486 0.43586 0.90707 0.0
H394 H 0.21325 0.36053 0.90133 0.0
H395 H 0.16548 0.38429 0.8919 0.0
C396 C 0.9164 0.36666 0.15443 0.0
C397 C 0.99198 0.3924 0.15936 0.0
C398 C 0.93922 0.28574 0.16678 0.0
C399 C 0.86432 0.2615 0.16768 0.0
N400 N 0.78296 0.2813 0.1664 0.0
N401 N 1.07298 0.3734 0.17458 0.0
C402 C 0.85346 0.30268 0.16235 0.0
C403 C 1.00271 0.35094 0.16621 0.0
N404 N 0.90389 0.40243 0.14025 0.0
N405 N 0.94967 0.24602 0.16655 0.0
H406 H 0.12026 0.41989 0.17592 0.0
H407 H 1.08348 0.34609 0.1838 0.0
H408 H 0.90467 0.19861 0.16713 0.0
H409 H 1.00174 0.25975 0.16208 0.0
H410 H 0.8511 0.38425 0.13102 0.0
H411 H 0.94694 0.44876 0.13348 0.0
H412 H 0.77307 0.31015 0.16832 0.0
H413 H 0.73522 0.23495 0.17053 0.0
C414 C 0.16402 0.61633 0.02088 0.0
C415 C 0.11726 0.56584 0.04649 0.0
C416 C 1.05489 0.4955 -0.00556 0.0
C417 C 0.1051 0.54552 0.96932 0.0
N418 N 0.21444 0.65247 0.9586 0.0
N419 N 1.0245 0.45617 0.05761 0.0
C420 C 0.16214 0.60553 0.98262 0.0
C421 C 1.06426 0.50514 0.03319 0.0
N422 N 0.20613 0.6747 0.0325 0.0
N423 N 0.997 0.4386 0.98114 0.0
H424 H 1.02721 0.4606 0.08596 0.0
H425 H 0.99292 0.41116 0.0501 0.0
H426 H 0.99114 0.42861 0.95328 0.0
H427 H 0.95208 0.40199 -0.00274 0.0
H428 H 0.23517 0.71294 0.01463 0.0
H429 H 0.20609 0.68489 0.05962 0.0
H430 H 0.26272 0.69562 0.96707 0.0
H431 H 0.21272 0.64707 0.93022 0.0
C432 C 0.75811 0.15918 0.34075 0.0
C433 C 0.75903 0.1154 0.3569 0.0
C434 C 0.75401 0.08222 0.29523 0.0
C435 C 0.74513 0.12165 0.27934 0.0
N436 N 0.71923 0.18585 0.28845 0.0
N437 N 0.74195 0.02632 0.35011 0.0
C438 C 0.74101 0.15644 0.30259 0.0
C439 C 0.75152 0.07384 0.33431 0.0
N440 N 0.77732 0.20535 0.36126 0.0
N441 N 0.76947 0.0557 0.27333 0.0
H442 H 0.7402 0.01888 0.37866 0.0
H443 H 0.72867 0.9912 0.33489 0.0
H444 H 0.7756 0.06293 0.24474 0.0
H445 H 0.78393 0.03163 0.2839 0.0
H446 H 0.78465 0.24193 0.34988 0.0
H447 H 0.79341 0.21028 0.38887 0.0
H448 H 0.70888 0.20726 0.30495 0.0
H449 H 0.70385 0.1833 0.26083 0.0
C450 C 0.56145 0.4817 0.70831 0.0
C451 C 0.59937 0.52614 0.7363 0.0
C452 C 0.68479 0.60589 0.68962 0.0
C453 C 0.6428 0.56268 0.6613 0.0
N454 N 0.5254 0.46363 0.64388 0.0
N455 N 0.6761 0.63223 0.74977 0.0
C456 C 0.57605 0.50184 0.67066 0.0
C457 C 0.65478 0.58887 0.72582 0.0
N458 N 0.51474 0.42057 0.71692 0.0
N459 N 0.75459 0.66208 0.68273 0.0
H460 H 0.64942 0.6205 0.77519 0.0
H461 H 0.71203 0.67856 0.7421 0.0
H462 H 0.78147 0.67516 0.65728 0.0
H463 H 0.78883 0.69278 0.70361 0.0
H464 H 0.49288 0.38799 0.69695 0.0
H465 H 0.50379 0.40243 0.74367 0.0
H466 H 0.47277 0.42061 0.64994 0.0
H467 H 0.53213 0.47759 0.61614 0.0
C468 C 0.65182 0.02886 0.59075 0.0
C469 C 0.72055 0.08065 0.57374 0.0
C470 C 0.78897 0.09747 0.63117 0.0
C471 C 0.7191 0.05109 0.6494 0.0
N472 N 0.58342 0.97336 0.64751 0.0
N473 N 0.85461 0.166 0.57734 0.0
C474 C 0.65037 1.01664 0.62935 0.0
C475 C 0.78944 0.11491 0.59366 0.0
N476 N 0.58825 0.99024 0.56967 0.0
N477 N 0.85472 0.12476 0.64984 0.0
H478 H 0.85699 0.17953 0.54991 0.0
H479 H 0.90541 0.19712 0.59138 0.0
H480 H 0.85606 0.11396 0.67749 0.0
H481 H 0.90755 0.15457 0.63741 0.0
H482 H 0.53823 0.94831 0.57943 0.0
H483 H 0.58741 0.99705 0.54121 0.0
H484 H 0.53116 0.95233 0.63575 0.0
H485 H 0.58001 0.96066 0.67528 0.0
C486 C 0.59049 0.49744 0.98638 0.0
C487 C 0.56614 0.46673 0.95243 0.0
C488 C 0.49974 0.3697 0.9867 0.0
C489 C 0.51611 0.39861 0.02051 0.0
N490 N 0.55957 0.48854 0.05086 0.0
N491 N 0.46935 0.37074 0.92343 0.0
C492 C 0.55624 0.46219 0.01994 0.0
C493 C 0.51279 0.40199 0.9534 0.0
N494 N 0.64792 0.55954 0.9871 0.0
N495 N 0.47416 0.31238 0.98583 0.0
H496 H 0.47158 0.39335 0.90001 0.0
H497 H 0.42482 0.32327 0.92414 0.0
H498 H 0.46897 0.2883 0.00942 0.0
H499 H 0.46669 0.2922 0.96107 0.0
H500 H 0.67171 0.58291 0.01166 0.0
H501 H 0.67695 0.58694 0.96351 0.0
H502 H 0.58276 0.53351 0.0508 0.0
H503 H 0.5317 0.46353 0.0753 0.0
C504 C 0.17043 0.51347 0.27661 0.0
C505 C 0.18778 0.56409 0.25678 0.0
C506 C 0.18839 0.60121 0.3166 0.0
C507 C 0.18923 0.55885 0.33558 0.0
N508 N 0.19589 0.48165 0.33183 0.0
N509 N 0.21106 0.65758 0.26022 0.0
C510 C 0.18475 0.51708 0.31506 0.0
C511 C 0.19607 0.60846 0.27731 0.0
N512 N 0.13528 0.46002 0.25946 0.0
N513 N 0.17615 0.63231 0.33579 0.0
H514 H 0.20504 0.66164 0.23216 0.0
H515 H 0.23071 0.6957 0.27449 0.0
H516 H 0.16759 0.62677 0.36429 0.0
H517 H 0.16648 0.6586 0.32305 0.0
H518 H 0.11767 0.42082 0.27358 0.0
H519 H 0.11271 0.452 0.23298 0.0
H520 H 0.1988 0.45408 0.31698 0.0
H521 H 0.21046 0.48495 0.35965 0.0
loop_
_geom_bond_atom_site_label_1
_geom_bond_atom_site_label_2
_geom_bond_distance
_geom_bond_site_symmetry_2
_ccdc_geom_bond_type
Sm0 C2 2.846 . S
Sm0 O20 2.543 . S
Sm0 O21 2.450 . S
Sm0 O22 2.681 1_455 S
Sm0 O23 2.464 . S
Sm0 O24 2.396 . S
Sm0 O28 2.386 . S
Sm0 O31 2.408 1_455 S
Sm1 C11 2.846 . S
Sm1 O22 2.386 . S
Sm1 O25 2.408 1_655 S
Sm1 O26 2.543 . S
Sm1 O27 2.450 . S
Sm1 O28 2.681 1_655 S
Sm1 O29 2.464 . S
Sm1 O30 2.396 . S
C2 Sm0 2.846 . S
C2 C3 1.506 . S
C2 O20 1.261 . S
C2 O21 1.242 . S
C3 C2 1.506 . S
C3 C4 1.358 . S
C3 C8 1.382 . S
C4 C3 1.358 . S
C4 C5 1.385 . S
C4 H32 0.930 . S
C5 C4 1.385 . S
C5 C6 1.395 . S
C5 H33 0.929 . S
C6 C5 1.395 . S
C6 C7 1.335 . S
C7 C6 1.335 . S
C7 C8 1.398 . S
C7 H34 0.930 . S
C8 C3 1.382 . S
C8 C7 1.398 . S
C8 H35 0.929 . S
C9 O22 1.271 1_455 S
C9 O23 1.251 . S
C10 O24 1.252 . S
C10 O25 1.272 . S
C11 Sm1 2.846 . S
C11 C12 1.506 . S
C11 O26 1.261 . S
C11 O27 1.242 . S
C12 C11 1.506 . S
C12 C13 1.358 . S
C12 C17 1.382 . S
C13 C12 1.358 . S
C13 C14 1.385 . S
C13 H36 0.930 . S
C14 C13 1.385 . S
C14 C15 1.395 . S
C14 H37 0.929 . S
C15 C14 1.395 . S
C15 C16 1.335 . S
C16 C15 1.335 . S
C16 C17 1.398 . S
C16 H38 0.930 . S
C17 C12 1.382 . S
C17 C16 1.398 . S
C17 H39 0.929 . S
C18 O28 1.271 . S
C18 O29 1.251 1_455 S
C19 O30 1.252 . S
C19 O31 1.272 . S
O20 Sm0 2.543 . S
O20 C2 1.261 . S
O21 Sm0 2.450 . S
O21 C2 1.242 . S
O22 Sm0 2.681 1_655 S
O22 Sm1 2.386 . S
O22 C9 1.271 1_655 S
O23 Sm0 2.464 . S
O23 C9 1.251 . S
O24 Sm0 2.396 . S
O24 C10 1.252 . S
O25 Sm1 2.408 1_455 S
O25 C10 1.272 . S
O26 Sm1 2.543 . S
O26 C11 1.261 . S
O27 Sm1 2.450 . S
O27 C11 1.242 . S
O28 Sm0 2.386 . S
O28 Sm1 2.681 1_455 S
O28 C18 1.271 . S
O29 Sm1 2.464 . S
O29 C18 1.251 1_655 S
O30 Sm1 2.396 . S
O30 C19 1.252 . S
O31 Sm0 2.408 1_655 S
O31 C19 1.272 . S
H32 C4 0.930 . S
H33 C5 0.929 . S
H34 C7 0.930 . S
H35 C8 0.929 . S
H36 C13 0.930 . S
H37 C14 0.929 . S
H38 C16 0.930 . S
H39 C17 0.929 . S
Sm40 C42 2.846 1_545 S
Sm40 O60 2.543 1_545 S
Sm40 O61 2.450 1_545 S
Sm40 O62 2.681 . S
Sm40 O63 2.464 . S
Sm40 O64 2.396 1_545 S
Sm40 O68 2.386 . S
Sm40 O71 2.408 . S
Sm41 C51 2.846 . S
Sm41 O62 2.386 . S
Sm41 O65 2.408 1_545 S
Sm41 O66 2.543 . S
Sm41 O67 2.450 . S
Sm41 O68 2.681 . S
Sm41 O69 2.464 . S
Sm41 O70 2.396 . S
C42 Sm40 2.846 1_565 S
C42 C43 1.506 . S
C42 O60 1.261 . S
C42 O61 1.242 . S
C43 C42 1.506 . S
C43 C44 1.358 . S
C43 C48 1.382 . S
C44 C43 1.358 . S
C44 C45 1.385 . S
C44 H72 0.930 . S
C45 C44 1.385 . S
C45 C46 1.395 . S
C45 H73 0.929 . S
C46 C45 1.395 . S
C46 C47 1.335 . S
C47 C46 1.335 . S
C47 C48 1.398 . S
C47 H74 0.930 . S
C48 C43 1.382 . S
C48 C47 1.398 . S
C48 H75 0.929 . S
C49 O62 1.271 . S
C49 O63 1.251 . S
C50 O64 1.252 . S
C50 O65 1.272 . S
C51 Sm41 2.846 . S
C51 C52 1.506 . S
C51 O66 1.261 . S
C51 O67 1.242 . S
C52 C51 1.506 . S
C52 C53 1.358 . S
C52 C57 1.382 . S
C53 C52 1.358 . S
C53 C54 1.385 . S
C53 H76 0.930 . S
C54 C53 1.385 . S
C54 C55 1.395 . S
C54 H77 0.929 . S
C55 C54 1.395 . S
C55 C56 1.335 . S
C56 C55 1.335 . S
C56 C57 1.398 . S
C56 H78 0.930 . S
C57 C52 1.382 . S
C57 C56 1.398 . S
C57 H79 0.929 . S
C58 O68 1.271 . S
C58 O69 1.251 . S
C59 O70 1.252 . S
C59 O71 1.272 . S
O60 Sm40 2.543 1_565 S
O60 C42 1.261 . S
O61 Sm40 2.450 1_565 S
O61 C42 1.242 . S
O62 Sm40 2.681 . S
O62 Sm41 2.386 . S
O62 C49 1.271 . S
O63 Sm40 2.464 . S
O63 C49 1.251 . S
O64 Sm40 2.396 1_565 S
O64 C50 1.252 . S
O65 Sm41 2.408 1_565 S
O65 C50 1.272 . S
O66 Sm41 2.543 . S
O66 C51 1.261 . S
O67 Sm41 2.450 . S
O67 C51 1.242 . S
O68 Sm40 2.386 . S
O68 Sm41 2.681 . S
O68 C58 1.271 . S
O69 Sm41 2.464 . S
O69 C58 1.251 . S
O70 Sm41 2.396 . S
O70 C59 1.252 . S
O71 Sm40 2.408 . S
O71 C59 1.272 . S
H72 C44 0.930 . S
H73 C45 0.929 . S
H74 C47 0.930 . S
H75 C48 0.929 . S
H76 C53 0.930 . S
H77 C54 0.929 . S
H78 C56 0.930 . S
H79 C57 0.929 . S
Sm80 C82 2.846 . S
Sm80 O100 2.543 . S
Sm80 O101 2.450 . S
Sm80 O102 2.681 . S
Sm80 O103 2.464 . S
Sm80 O104 2.396 . S
Sm80 O108 2.386 . S
Sm80 O111 2.408 . S
Sm81 C91 2.846 . S
Sm81 O102 2.386 . S
Sm81 O105 2.408 . S
Sm81 O106 2.543 . S
Sm81 O107 2.450 . S
Sm81 O108 2.681 . S
Sm81 O109 2.464 . S
Sm81 O110 2.396 . S
C82 Sm80 2.846 . S
C82 C83 1.506 . S
C82 O100 1.261 . S
C82 O101 1.242 . S
C83 C82 1.506 . S
C83 C84 1.358 . S
C83 C88 1.382 . S
C84 C83 1.358 . S
C84 C85 1.385 . S
C84 H112 0.930 . S
C85 C84 1.385 . S
C85 C86 1.395 . S
C85 H113 0.929 . S
C86 C85 1.395 . S
C86 C87 1.335 . S
C87 C86 1.335 . S
C87 C88 1.398 . S
C87 H114 0.930 . S
C88 C83 1.382 . S
C88 C87 1.398 . S
C88 H115 0.929 . S
C89 O102 1.271 . S
C89 O103 1.251 . S
C90 O104 1.252 . S
C90 O105 1.272 . S
C91 Sm81 2.846 . S
C91 C92 1.506 . S
C91 O106 1.261 . S
C91 O107 1.242 . S
C92 C91 1.506 . S
C92 C93 1.358 . S
C92 C97 1.382 . S
C93 C92 1.358 . S
C93 C94 1.385 . S
C93 H116 0.930 . S
C94 C93 1.385 . S
C94 C95 1.395 . S
C94 H117 0.929 . S
C95 C94 1.395 . S
C95 C96 1.335 . S
C96 C95 1.335 . S
C96 C97 1.398 . S
C96 H118 0.930 . S
C97 C92 1.382 . S
C97 C96 1.398 . S
C97 H119 0.929 . S
C98 O108 1.271 . S
C98 O109 1.251 . S
C99 O110 1.252 . S
C99 O111 1.272 . S
O100 Sm80 2.543 . S
O100 C82 1.261 . S
O101 Sm80 2.450 . S
O101 C82 1.242 . S
O102 Sm80 2.681 . S
O102 Sm81 2.386 . S
O102 C89 1.271 . S
O103 Sm80 2.464 . S
O103 C89 1.251 . S
O104 Sm80 2.396 . S
O104 C90 1.252 . S
O105 Sm81 2.408 . S
O105 C90 1.272 . S
O106 Sm81 2.543 . S
O106 C91 1.261 . S
O107 Sm81 2.450 . S
O107 C91 1.242 . S
O108 Sm80 2.386 . S
O108 Sm81 2.681 . S
O108 C98 1.271 . S
O109 Sm81 2.464 . S
O109 C98 1.251 . S
O110 Sm81 2.396 . S
O110 C99 1.252 . S
O111 Sm80 2.408 . S
O111 C99 1.272 . S
H112 C84 0.930 . S
H113 C85 0.929 . S
H114 C87 0.930 . S
H115 C88 0.929 . S
H116 C93 0.930 . S
H117 C94 0.929 . S
H118 C96 0.930 . S
H119 C97 0.929 . S
H120 C127 0.929 . S
H121 C130 0.930 . S
H122 C132 0.929 . S
H123 C124 0.969 . S
C124 H123 0.969 . S
C124 O125 1.550 . S
C124 H126 0.973 . S
O125 C124 1.550 . S
O125 C131 1.412 . S
H126 C124 0.973 . S
C127 H120 0.929 . S
C127 C128 1.400 . S
C127 C129 1.364 . S
C128 C127 1.400 . S
C128 C132 1.377 . S
C129 C127 1.364 . S
C129 C130 1.374 1_545 S
C130 H121 0.930 . S
C130 C129 1.374 1_565 S
C130 C131 1.383 . S
C131 O125 1.412 . S
C131 C130 1.383 . S
C131 C132 1.394 1_565 S
C132 H122 0.929 . S
C132 C128 1.377 . S
C132 C131 1.394 1_545 S
H133 C140 0.929 . S
H134 C143 0.930 . S
H135 C145 0.929 . S
H136 C137 0.969 . S
C137 H136 0.969 . S
C137 O138 1.550 . S
C137 H139 0.973 . S
O138 C137 1.550 . S
O138 C144 1.412 . S
H139 C137 0.973 . S
C140 H133 0.929 . S
C140 C141 1.400 . S
C140 C142 1.364 . S
C141 C140 1.400 . S
C141 C145 1.377 . S
C142 C140 1.364 . S
C142 C143 1.374 . S
C143 H134 0.930 . S
C143 C142 1.374 . S
C143 C144 1.383 . S
C144 O138 1.412 . S
C144 C143 1.383 . S
C144 C145 1.394 . S
C145 H135 0.929 . S
C145 C141 1.377 . S
C145 C144 1.394 . S
H146 C153 0.929 1_655 S
H147 C156 0.930 . S
H148 C158 0.929 . S
H149 C150 0.969 . S
C150 H149 0.969 . S
C150 O151 1.550 . S
C150 H152 0.973 . S
O151 C150 1.550 . S
O151 C157 1.412 . S
H152 C150 0.973 . S
C153 H146 0.929 1_455 S
C153 C154 1.400 . S
C153 C155 1.364 . S
C154 C153 1.400 . S
C154 C158 1.377 . S
C155 C153 1.364 . S
C155 C156 1.374 . S
C156 H147 0.930 . S
C156 C155 1.374 . S
C156 C157 1.383 . S
C157 O151 1.412 . S
C157 C156 1.383 . S
C157 C158 1.394 . S
C158 H148 0.929 . S
C158 C154 1.377 . S
C158 C157 1.394 . S
H159 C166 0.929 . S
H160 C169 0.930 . S
H161 C171 0.929 . S
H162 C163 0.969 . S
C163 H162 0.969 . S
C163 O164 1.550 . S
C163 H165 0.973 . S
O164 C163 1.550 . S
O164 C170 1.412 . S
H165 C163 0.973 . S
C166 H159 0.929 . S
C166 C167 1.400 . S
C166 C168 1.364 1_655 S
C167 C166 1.400 . S
C167 C171 1.377 1_655 S
C168 C166 1.364 1_455 S
C168 C169 1.374 . S
C169 H160 0.930 . S
C169 C168 1.374 . S
C169 C170 1.383 . S
C170 O164 1.412 . S
C170 C169 1.383 . S
C170 C171 1.394 . S
C171 H161 0.929 . S
C171 C167 1.377 1_455 S
C171 C170 1.394 . S
H172 C179 0.929 . S
H173 C182 0.930 . S
H174 C184 0.929 . S
H175 C176 0.969 . S
C176 H175 0.969 . S
C176 O177 1.550 . S
C176 H178 0.973 . S
O177 C176 1.550 . S
O177 C183 1.412 . S
H178 C176 0.973 . S
C179 H172 0.929 . S
C179 C180 1.400 . S
C179 C181 1.364 1_565 S
C180 C179 1.400 . S
C180 C184 1.377 . S
C181 C179 1.364 1_545 S
C181 C182 1.374 . S
C182 H173 0.930 . S
C182 C181 1.374 . S
C182 C183 1.383 . S
C183 O177 1.412 . S
C183 C182 1.383 . S
C183 C184 1.394 1_545 S
C184 H174 0.929 . S
C184 C180 1.377 . S
C184 C183 1.394 1_565 S
H185 C192 0.929 . S
H186 C195 0.930 . S
H187 C197 0.929 . S
H188 C189 0.969 . S
C189 H188 0.969 . S
C189 O190 1.550 . S
C189 H191 0.973 . S
O190 C189 1.550 . S
O190 C196 1.412 . S
H191 C189 0.973 . S
C192 H185 0.929 . S
C192 C193 1.400 . S
C192 C194 1.364 . S
C193 C192 1.400 . S
C193 C197 1.377 . S
C194 C192 1.364 . S
C194 C195 1.374 . S
C195 H186 0.930 . S
C195 C194 1.374 . S
C195 C196 1.383 . S
C196 O190 1.412 . S
C196 C195 1.383 . S
C196 C197 1.394 . S
C197 H187 0.929 . S
C197 C193 1.377 . S
C197 C196 1.394 . S
C198 C199 1.363 . S
C198 C204 1.379 . S
C198 N206 1.356 . S
C199 C198 1.363 . S
C199 C205 1.363 . S
C200 C201 1.363 . S
C200 C205 1.379 . S
C200 N207 1.356 . S
C201 C200 1.363 . S
C201 C204 1.363 . S
N202 C204 1.356 . S
N202 H214 0.984 . S
N202 H215 0.985 . S
N203 C205 1.356 . S
N203 H208 0.984 . S
N203 H209 0.985 . S
C204 C198 1.379 . S
C204 C201 1.363 . S
C204 N202 1.356 . S
C205 C199 1.363 . S
C205 C200 1.379 . S
C205 N203 1.356 . S
N206 C198 1.356 . S
N206 H212 0.984 . S
N206 H213 0.984 . S
N207 C200 1.356 . S
N207 H210 0.984 . S
N207 H211 0.985 . S
H208 N203 0.984 . S
H209 N203 0.985 . S
H210 N207 0.984 . S
H211 N207 0.985 . S
H212 N206 0.984 . S
H213 N206 0.984 . S
H214 N202 0.984 . S
H215 N202 0.985 . S
C216 C217 1.363 . S
C216 C222 1.379 . S
C216 N224 1.356 . S
C217 C216 1.363 . S
C217 C223 1.363 . S
C218 C219 1.363 . S
C218 C223 1.379 . S
C218 N225 1.356 . S
C219 C218 1.363 . S
C219 C222 1.363 . S
N220 C222 1.356 . S
N220 H232 0.984 . S
N220 H233 0.985 . S
N221 C223 1.356 . S
N221 H226 0.984 . S
N221 H227 0.985 . S
C222 C216 1.379 . S
C222 C219 1.363 . S
C222 N220 1.356 . S
C223 C217 1.363 . S
C223 C218 1.379 . S
C223 N221 1.356 . S
N224 C216 1.356 . S
N224 H230 0.984 . S
N224 H231 0.984 . S
N225 C218 1.356 . S
N225 H228 0.984 . S
N225 H229 0.985 . S
H226 N221 0.984 . S
H227 N221 0.985 . S
H228 N225 0.984 . S
H229 N225 0.985 . S
H230 N224 0.984 . S
H231 N224 0.984 . S
H232 N220 0.984 . S
H233 N220 0.985 . S
C234 C235 1.363 . S
C234 C240 1.379 . S
C234 N242 1.356 . S
C235 C234 1.363 . S
C235 C241 1.363 . S
C236 C237 1.363 . S
C236 C241 1.379 . S
C236 N243 1.356 . S
C237 C236 1.363 . S
C237 C240 1.363 . S
N238 C240 1.356 1_545 S
N238 H250 0.984 . S
N238 H251 0.985 . S
N239 C241 1.356 . S
N239 H244 0.984 . S
N239 H245 0.985 . S
C240 C234 1.379 . S
C240 C237 1.363 . S
C240 N238 1.356 1_565 S
C241 C235 1.363 . S
C241 C236 1.379 . S
C241 N239 1.356 . S
N242 C234 1.356 . S
N242 H248 0.984 1_565 S
N242 H249 0.984 . S
N243 C236 1.356 . S
N243 H246 0.984 . S
N243 H247 0.985 . S
H244 N239 0.984 . S
H245 N239 0.985 . S
H246 N243 0.984 . S
H247 N243 0.985 . S
H248 N242 0.984 1_545 S
H249 N242 0.984 . S
H250 N238 0.984 . S
H251 N238 0.985 . S
C252 C253 1.363 . S
C252 C258 1.379 . S
C252 N260 1.356 . S
C253 C252 1.363 . S
C253 C259 1.363 . S
C254 C255 1.363 . S
C254 C259 1.379 . S
C254 N261 1.356 . S
C255 C254 1.363 . S
C255 C258 1.363 . S
N256 C258 1.356 . S
N256 H268 0.984 . S
N256 H269 0.985 . S
N257 C259 1.356 . S
N257 H262 0.984 . S
N257 H263 0.985 . S
C258 C252 1.379 . S
C258 C255 1.363 . S
C258 N256 1.356 . S
C259 C253 1.363 . S
C259 C254 1.379 . S
C259 N257 1.356 . S
N260 C252 1.356 . S
N260 H266 0.984 . S
N260 H267 0.984 . S
N261 C254 1.356 . S
N261 H264 0.984 . S
N261 H265 0.985 . S
H262 N257 0.984 . S
H263 N257 0.985 . S
H264 N261 0.984 . S
H265 N261 0.985 . S
H266 N260 0.984 . S
H267 N260 0.984 . S
H268 N256 0.984 . S
H269 N256 0.985 . S
C270 C271 1.363 . S
C270 C276 1.379 . S
C270 N278 1.356 . S
C271 C270 1.363 . S
C271 C277 1.363 . S
C272 C273 1.363 . S
C272 C277 1.379 . S
C272 N279 1.356 . S
C273 C272 1.363 . S
C273 C276 1.363 . S
N274 C276 1.356 . S
N274 H286 0.984 . S
N274 H287 0.985 . S
N275 C277 1.356 . S
N275 H280 0.984 . S
N275 H281 0.985 . S
C276 C270 1.379 . S
C276 C273 1.363 . S
C276 N274 1.356 . S
C277 C271 1.363 . S
C277 C272 1.379 . S
C277 N275 1.356 . S
N278 C270 1.356 . S
N278 H284 0.984 . S
N278 H285 0.984 . S
N279 C272 1.356 . S
N279 H282 0.984 . S
N279 H283 0.985 . S
H280 N275 0.984 . S
H281 N275 0.985 . S
H282 N279 0.984 . S
H283 N279 0.985 . S
H284 N278 0.984 . S
H285 N278 0.984 . S
H286 N274 0.984 . S
H287 N274 0.985 . S
C288 C289 1.363 . S
C288 C294 1.379 . S
C288 N296 1.356 . S
C289 C288 1.363 . S
C289 C295 1.363 . S
C290 C291 1.363 . S
C290 C295 1.379 . S
C290 N297 1.356 . S
C291 C290 1.363 . S
C291 C294 1.363 . S
N292 C294 1.356 . S
N292 H304 0.984 . S
N292 H305 0.985 . S
N293 C295 1.356 . S
N293 H298 0.984 . S
N293 H299 0.985 . S
C294 C288 1.379 . S
C294 C291 1.363 . S
C294 N292 1.356 . S
C295 C289 1.363 . S
C295 C290 1.379 . S
C295 N293 1.356 . S
N296 C288 1.356 . S
N296 H302 0.984 . S
N296 H303 0.984 . S
N297 C290 1.356 . S
N297 H300 0.984 . S
N297 H301 0.985 . S
H298 N293 0.984 . S
H299 N293 0.985 . S
H300 N297 0.984 . S
H301 N297 0.985 . S
H302 N296 0.984 . S
H303 N296 0.984 . S
H304 N292 0.984 . S
H305 N292 0.985 . S
C306 C307 1.363 . S
C306 C312 1.379 . S
C306 N314 1.356 . S
C307 C306 1.363 . S
C307 C313 1.363 . S
C308 C309 1.363 . S
C308 C313 1.379 . S
C308 N315 1.356 . S
C309 C308 1.363 . S
C309 C312 1.363 . S
N310 C312 1.356 . S
N310 H322 0.984 . S
N310 H323 0.985 . S
N311 C313 1.356 . S
N311 H316 0.984 . S
N311 H317 0.985 . S
C312 C306 1.379 . S
C312 C309 1.363 . S
C312 N310 1.356 . S
C313 C307 1.363 . S
C313 C308 1.379 . S
C313 N311 1.356 . S
N314 C306 1.356 . S
N314 H320 0.984 . S
N314 H321 0.984 . S
N315 C308 1.356 . S
N315 H318 0.984 . S
N315 H319 0.985 . S
H316 N311 0.984 . S
H317 N311 0.985 . S
H318 N315 0.984 . S
H319 N315 0.985 . S
H320 N314 0.984 . S
H321 N314 0.984 . S
H322 N310 0.984 . S
H323 N310 0.985 . S
C324 C325 1.363 . S
C324 C330 1.379 . S
C324 N332 1.356 . S
C325 C324 1.363 . S
C325 C331 1.363 . S
C326 C327 1.363 . S
C326 C331 1.379 . S
C326 N333 1.356 . S
C327 C326 1.363 . S
C327 C330 1.363 . S
N328 C330 1.356 . S
N328 H340 0.984 . S
N328 H341 0.985 . S
N329 C331 1.356 . S
N329 H334 0.984 . S
N329 H335 0.985 . S
C330 C324 1.379 . S
C330 C327 1.363 . S
C330 N328 1.356 . S
C331 C325 1.363 . S
C331 C326 1.379 . S
C331 N329 1.356 . S
N332 C324 1.356 . S
N332 H338 0.984 . S
N332 H339 0.984 . S
N333 C326 1.356 . S
N333 H336 0.984 1_655 S
N333 H337 0.985 1_655 S
H334 N329 0.984 . S
H335 N329 0.985 . S
H336 N333 0.984 1_455 S
H337 N333 0.985 1_455 S
H338 N332 0.984 . S
H339 N332 0.984 . S
H340 N328 0.984 . S
H341 N328 0.985 . S
C342 C343 1.363 . S
C342 C348 1.379 . S
C342 N350 1.356 . S
C343 C342 1.363 . S
C343 C349 1.363 . S
C344 C345 1.363 . S
C344 C349 1.379 . S
C344 N351 1.356 . S
C345 C344 1.363 . S
C345 C348 1.363 . S
N346 C348 1.356 . S
N346 H358 0.984 . S
N346 H359 0.985 . S
N347 C349 1.356 . S
N347 H352 0.984 . S
N347 H353 0.985 . S
C348 C342 1.379 . S
C348 C345 1.363 . S
C348 N346 1.356 . S
C349 C343 1.363 . S
C349 C344 1.379 . S
C349 N347 1.356 . S
N350 C342 1.356 . S
N350 H356 0.984 . S
N350 H357 0.984 . S
N351 C344 1.356 . S
N351 H354 0.984 . S
N351 H355 0.985 . S
H352 N347 0.984 . S
H353 N347 0.985 . S
H354 N351 0.984 . S
H355 N351 0.985 . S
H356 N350 0.984 . S
H357 N350 0.984 . S
H358 N346 0.984 . S
H359 N346 0.985 . S
C360 C361 1.363 . S
C360 C366 1.379 . S
C360 N368 1.356 . S
C361 C360 1.363 . S
C361 C367 1.363 . S
C362 C363 1.363 . S
C362 C367 1.379 . S
C362 N369 1.356 . S
C363 C362 1.363 . S
C363 C366 1.363 . S
N364 C366 1.356 . S
N364 H376 0.984 . S
N364 H377 0.985 . S
N365 C367 1.356 . S
N365 H370 0.984 . S
N365 H371 0.985 . S
C366 C360 1.379 . S
C366 C363 1.363 . S
C366 N364 1.356 . S
C367 C361 1.363 . S
C367 C362 1.379 . S
C367 N365 1.356 . S
N368 C360 1.356 . S
N368 H374 0.984 . S
N368 H375 0.984 . S
N369 C362 1.356 . S
N369 H372 0.984 . S
N369 H373 0.985 . S
H370 N365 0.984 . S
H371 N365 0.985 . S
H372 N369 0.984 . S
H373 N369 0.985 . S
H374 N368 0.984 . S
H375 N368 0.984 . S
H376 N364 0.984 . S
H377 N364 0.985 . S
C378 C379 1.363 . S
C378 C384 1.379 . S
C378 N386 1.356 . S
C379 C378 1.363 . S
C379 C385 1.363 . S
C380 C381 1.363 . S
C380 C385 1.379 . S
C380 N387 1.356 . S
C381 C380 1.363 . S
C381 C384 1.363 . S
N382 C384 1.356 . S
N382 H394 0.984 . S
N382 H395 0.985 . S
N383 C385 1.356 . S
N383 H388 0.984 . S
N383 H389 0.985 . S
C384 C378 1.379 . S
C384 C381 1.363 . S
C384 N382 1.356 . S
C385 C379 1.363 . S
C385 C380 1.379 . S
C385 N383 1.356 . S
N386 C378 1.356 . S
N386 H392 0.984 . S
N386 H393 0.984 . S
N387 C380 1.356 . S
N387 H390 0.984 . S
N387 H391 0.985 . S
H388 N383 0.984 . S
H389 N383 0.985 . S
H390 N387 0.984 . S
H391 N387 0.985 . S
H392 N386 0.984 . S
H393 N386 0.984 . S
H394 N382 0.984 . S
H395 N382 0.985 . S
C396 C397 1.363 . S
C396 C402 1.379 . S
C396 N404 1.356 . S
C397 C396 1.363 . S
C397 C403 1.363 . S
C398 C399 1.363 . S
C398 C403 1.379 . S
C398 N405 1.356 . S
C399 C398 1.363 . S
C399 C402 1.363 . S
N400 C402 1.356 . S
N400 H412 0.984 . S
N400 H413 0.985 . S
N401 C403 1.356 . S
N401 H406 0.984 . S
N401 H407 0.985 . S
C402 C396 1.379 . S
C402 C399 1.363 . S
C402 N400 1.356 . S
C403 C397 1.363 . S
C403 C398 1.379 . S
C403 N401 1.356 . S
N404 C396 1.356 . S
N404 H410 0.984 . S
N404 H411 0.984 . S
N405 C398 1.356 . S
N405 H408 0.984 . S
N405 H409 0.985 . S
H406 N401 0.984 . S
H407 N401 0.985 . S
H408 N405 0.984 . S
H409 N405 0.985 . S
H410 N404 0.984 . S
H411 N404 0.984 . S
H412 N400 0.984 . S
H413 N400 0.985 . S
C414 C415 1.363 . S
C414 C420 1.379 . S
C414 N422 1.356 . S
C415 C414 1.363 . S
C415 C421 1.363 . S
C416 C417 1.363 . S
C416 C421 1.379 1_556 S
C416 N423 1.356 . S
C417 C416 1.363 . S
C417 C420 1.363 1_556 S
N418 C420 1.356 1_556 S
N418 H430 0.984 . S
N418 H431 0.985 . S
N419 C421 1.356 1_655 S
N419 H424 0.984 . S
N419 H425 0.985 . S
C420 C414 1.379 . S
C420 C417 1.363 1_554 S
C420 N418 1.356 1_554 S
C421 C415 1.363 . S
C421 C416 1.379 1_554 S
C421 N419 1.356 1_455 S
N422 C414 1.356 . S
N422 H428 0.984 . S
N422 H429 0.984 . S
N423 C416 1.356 . S
N423 H426 0.984 . S
N423 H427 0.985 . S
H424 N419 0.984 . S
H425 N419 0.985 . S
H426 N423 0.984 . S
H427 N423 0.985 . S
H428 N422 0.984 . S
H429 N422 0.984 . S
H430 N418 0.984 . S
H431 N418 0.985 . S
C432 C433 1.363 . S
C432 C438 1.379 . S
C432 N440 1.356 . S
C433 C432 1.363 . S
C433 C439 1.363 1_545 S
C434 C435 1.363 1_565 S
C434 C439 1.379 . S
C434 N441 1.356 . S
C435 C434 1.363 1_545 S
C435 C438 1.363 . S
N436 C438 1.356 . S
N436 H448 0.984 . S
N436 H449 0.985 . S
N437 C439 1.356 . S
N437 H442 0.984 . S
N437 H443 0.985 . S
C438 C432 1.379 . S
C438 C435 1.363 . S
C438 N436 1.356 . S
C439 C433 1.363 1_565 S
C439 C434 1.379 . S
C439 N437 1.356 . S
N440 C432 1.356 . S
N440 H446 0.984 . S
N440 H447 0.984 . S
N441 C434 1.356 . S
N441 H444 0.984 . S
N441 H445 0.985 . S
H442 N437 0.984 . S
H443 N437 0.985 . S
H444 N441 0.984 . S
H445 N441 0.985 . S
H446 N440 0.984 . S
H447 N440 0.984 . S
H448 N436 0.984 . S
H449 N436 0.985 . S
C450 C451 1.363 . S
C450 C456 1.379 . S
C450 N458 1.356 . S
C451 C450 1.363 . S
C451 C457 1.363 . S
C452 C453 1.363 . S
C452 C457 1.379 . S
C452 N459 1.356 . S
C453 C452 1.363 . S
C453 C456 1.363 . S
N454 C456 1.356 . S
N454 H466 0.984 . S
N454 H467 0.985 . S
N455 C457 1.356 . S
N455 H460 0.984 . S
N455 H461 0.985 . S
C456 C450 1.379 . S
C456 C453 1.363 . S
C456 N454 1.356 . S
C457 C451 1.363 . S
C457 C452 1.379 . S
C457 N455 1.356 . S
N458 C450 1.356 . S
N458 H464 0.984 . S
N458 H465 0.984 . S
N459 C452 1.356 . S
N459 H462 0.984 . S
N459 H463 0.985 . S
H460 N455 0.984 . S
H461 N455 0.985 . S
H462 N459 0.984 . S
H463 N459 0.985 . S
H464 N458 0.984 . S
H465 N458 0.984 . S
H466 N454 0.984 . S
H467 N454 0.985 . S
C468 C469 1.363 1_565 S
C468 C474 1.379 . S
C468 N476 1.356 . S
C469 C468 1.363 1_545 S
C469 C475 1.363 . S
C470 C471 1.363 . S
C470 C475 1.379 . S
C470 N477 1.356 . S
C471 C470 1.363 . S
C471 C474 1.363 1_545 S
N472 C474 1.356 . S
N472 H484 0.984 . S
N472 H485 0.985 . S
N473 C475 1.356 . S
N473 H478 0.984 . S
N473 H479 0.985 . S
C474 C468 1.379 . S
C474 C471 1.363 1_565 S
C474 N472 1.356 . S
C475 C469 1.363 . S
C475 C470 1.379 . S
C475 N473 1.356 . S
N476 C468 1.356 . S
N476 H482 0.984 . S
N476 H483 0.984 . S
N477 C470 1.356 . S
N477 H480 0.984 . S
N477 H481 0.985 . S
H478 N473 0.984 . S
H479 N473 0.985 . S
H480 N477 0.984 . S
H481 N477 0.985 . S
H482 N476 0.984 . S
H483 N476 0.984 . S
H484 N472 0.984 . S
H485 N472 0.985 . S
C486 C487 1.363 . S
C486 C492 1.379 1_556 S
C486 N494 1.356 . S
C487 C486 1.363 . S
C487 C493 1.363 . S
C488 C489 1.363 1_556 S
C488 C493 1.379 . S
C488 N495 1.361 . S
C489 C488 1.363 1_554 S
C489 C492 1.363 . S
N490 C492 1.356 . S
N490 H502 0.984 . S
N490 H503 0.985 . S
N491 C493 1.356 . S
N491 H496 0.984 . S
N491 H497 0.985 . S
C492 C486 1.379 1_554 S
C492 C489 1.363 . S
C492 N490 1.356 . S
C493 C487 1.363 . S
C493 C488 1.379 . S
C493 N491 1.356 . S
N494 C486 1.356 . S
N494 H500 0.984 . S
N494 H501 0.984 . S
N495 C488 1.361 . S
N495 H498 0.970 1_556 S
N495 H499 0.994 . S
H496 N491 0.984 . S
H497 N491 0.985 . S
H498 N495 0.970 1_554 S
H499 N495 0.994 . S
H500 N494 0.984 . S
H501 N494 0.984 . S
H502 N490 0.984 . S
H503 N490 0.985 . S
C504 C505 1.363 . S
C504 C510 1.379 . S
C504 N512 1.356 . S
C505 C504 1.363 . S
C505 C511 1.363 1_655 S
C506 C507 1.363 . S
C506 C511 1.379 . S
C506 N513 1.356 . S
C507 C506 1.363 . S
C507 C510 1.363 1_455 S
N508 C510 1.356 . S
N508 H520 0.984 . S
N508 H521 0.985 . S
N509 C511 1.356 . S
N509 H514 0.984 . S
N509 H515 0.985 . S
C510 C504 1.379 . S
C510 C507 1.363 1_655 S
C510 N508 1.356 . S
C511 C505 1.363 1_455 S
C511 C506 1.379 . S
C511 N509 1.356 . S
N512 C504 1.356 . S
N512 H518 0.984 . S
N512 H519 0.984 . S
N513 C506 1.356 . S
N513 H516 0.984 . S
N513 H517 0.985 . S
H514 N509 0.984 . S
H515 N509 0.985 . S
H516 N513 0.984 . S
H517 N513 0.985 . S
H518 N512 0.984 . S
H519 N512 0.984 . S
H520 N508 0.984 . S
H521 N508 0.985 . S
C199 C6 0.968 . S
C201 C189 1.085 . S
C217 C59 1.878 . S
C219 C167 1.846 . S
C235 C86 1.352 . S
C237 C180 1.386 . S
C253 C15 0.740 . S
C255 C193 0.728 . S
C273 C163 1.858 . S
C271 C50 2.035 . S
C291 C176 1.366 . S
C289 C95 1.376 . S
C307 C46 1.163 . S
C309 C141 1.175 . S
C325 C99 3.084 . S
C327 C154 3.046 1_655 S
C343 C10 2.056 . S
C345 C124 1.899 . S
C363 C137 1.436 . S
C361 C55 1.404 . S
C381 C150 2.913 . S
C379 C90 3.101 . S
C397 C19 1.893 . S
C399 C128 1.888 . S
C417 C155 1.780 . S
C415 C18 1.729 . S
C433 C49 1.443 . S
C435 C129 1.472 . S
C451 C98 1.486 . S
C453 C142 1.600 . S
C471 C181 1.533 . S
C469 C58 1.451 . S
C489 C194 1.261 . S
C487 C89 1.271 . S
C505 C9 1.393 1_655 S
C507 C168 1.452 . S
