# Generated by pormake.
# Topology csq, (4,8)-cn, num edge types: 1
# Building blocks:
#     Node 0, Type 0, BuildingBlock: MIFKUJ_clean_linker_1, # of connection points: 4
#     Node 1, Type 0, BuildingBlock: MIFKUJ_clean_linker_1, # of connection points: 4
#     Node 2, Type 0, BuildingBlock: MIFKUJ_clean_linker_1, # of connection points: 4
#     Node 3, Type 0, BuildingBlock: MIFKUJ_clean_linker_1, # of connection points: 4
#     Node 4, Type 0, BuildingBlock: MIFKUJ_clean_linker_1, # of connection points: 4
#     Node 5, Type 0, BuildingBlock: MIFKUJ_clean_linker_1, # of connection points: 4
#     Node 6, Type 1, BuildingBlock: TAGTUT_clean_sbu_1, # of connection points: 8
#     Node 7, Type 1, BuildingBlock: TAGTUT_clean_sbu_1, # of connection points: 8
#     Node 8, Type 1, BuildingBlock: TAGTUT_clean_sbu_1, # of connection points: 8
#     Edge 9, Type (0, 1), BuildingBlock: XIVTED_clean_linker_0, # of connection points: 2
#     Edge 10, Type (0, 1), BuildingBlock: XIVTED_clean_linker_0, # of connection points: 2
#     Edge 11, Type (0, 1), BuildingBlock: XIVTED_clean_linker_0, # of connection points: 2
#     Edge 12, Type (0, 1), BuildingBlock: XIVTED_clean_linker_0, # of connection points: 2
#     Edge 13, Type (0, 1), BuildingBlock: XIVTED_clean_linker_0, # of connection points: 2
#     Edge 14, Type (0, 1), BuildingBlock: XIVTED_clean_linker_0, # of connection points: 2
#     Edge 15, Type (0, 1), BuildingBlock: XIVTED_clean_linker_0, # of connection points: 2
#     Edge 16, Type (0, 1), BuildingBlock: XIVTED_clean_linker_0, # of connection points: 2
#     Edge 17, Type (0, 1), BuildingBlock: XIVTED_clean_linker_0, # of connection points: 2
#     Edge 18, Type (0, 1), BuildingBlock: XIVTED_clean_linker_0, # of connection points: 2
#     Edge 19, Type (0, 1), BuildingBlock: XIVTED_clean_linker_0, # of connection points: 2
#     Edge 20, Type (0, 1), BuildingBlock: XIVTED_clean_linker_0, # of connection points: 2
#     Edge 21, Type (0, 1), BuildingBlock: XIVTED_clean_linker_0, # of connection points: 2
#     Edge 22, Type (0, 1), BuildingBlock: XIVTED_clean_linker_0, # of connection points: 2
#     Edge 23, Type (0, 1), BuildingBlock: XIVTED_clean_linker_0, # of connection points: 2
#     Edge 24, Type (0, 1), BuildingBlock: XIVTED_clean_linker_0, # of connection points: 2
#     Edge 25, Type (0, 1), BuildingBlock: XIVTED_clean_linker_0, # of connection points: 2
#     Edge 26, Type (0, 1), BuildingBlock: XIVTED_clean_linker_0, # of connection points: 2
#     Edge 27, Type (0, 1), BuildingBlock: XIVTED_clean_linker_0, # of connection points: 2
#     Edge 28, Type (0, 1), BuildingBlock: XIVTED_clean_linker_0, # of connection points: 2
#     Edge 29, Type (0, 1), BuildingBlock: XIVTED_clean_linker_0, # of connection points: 2
#     Edge 30, Type (0, 1), BuildingBlock: XIVTED_clean_linker_0, # of connection points: 2
#     Edge 31, Type (0, 1), BuildingBlock: XIVTED_clean_linker_0, # of connection points: 2
#     Edge 32, Type (0, 1), BuildingBlock: XIVTED_clean_linker_0, # of connection points: 2
# Relax obj value: 0.033
# Max RMSD: 0.127
# Mean RMSD: 0.058
data_MOF--net-csq--node1-TAGTUT_clean_sbu_1--node2-MIFKUJ_clean_linker_1--edge1-XIVTED_clean_linker_0
_symmetry_space_group_name_H-M    P1
_symmetry_Int_Tables_number       1
_symmetry_cell_setting            triclinic
loop_
_symmetry_equiv_pos_as_xyz
'x, y, z'
_cell_length_a     63.014754
_cell_length_b     61.889606
_cell_length_c     22.021643
_cell_angle_alpha  92.963007
_cell_angle_beta   91.435804
_cell_angle_gamma 120.00294
loop_
_atom_site_label
_atom_site_type_symbol
_atom_site_fract_x
_atom_site_fract_y
_atom_site_fract_z
_atom_type_partial_charge
H0 H 0.25835 0.45082 0.24898 0.0
H1 H 0.2918 0.45591 0.31854 0.0
H2 H 0.33603 0.5324 0.27096 0.0
H3 H 0.30317 0.52666 0.20002 0.0
H4 H 0.23685 0.48209 0.25929 0.0
H5 H 0.27446 0.45564 0.1016 0.0
H6 H 0.30428 0.45652 0.03072 0.0
H7 H 0.32089 0.5301 0.98392 0.0
H8 H 0.29134 0.52917 0.0549 0.0
H9 H 0.23199 0.53347 0.06164 0.0
H10 H 0.20692 0.53688 0.98089 0.0
H11 H 0.14827 0.46213 0.00756 0.0
H12 H 0.17386 0.45869 0.08795 0.0
H13 H 0.24317 0.49567 0.03922 0.0
H14 H 0.20644 0.52349 0.18434 0.0
H15 H 0.17699 0.52634 0.24837 0.0
H16 H 0.16227 0.45797 0.32735 0.0
H17 H 0.19039 0.45421 0.2594 0.0
C18 C 0.2786 0.48821 0.21868 0.0
C19 C 0.27549 0.46848 0.25302 0.0
C20 C 0.29448 0.47154 0.29321 0.0
C21 C 0.31666 0.49455 0.30027 0.0
C22 C 0.3195 0.51423 0.2657 0.0
C23 C 0.30073 0.51102 0.22505 0.0
C24 C 0.25804 0.4863 0.18106 0.0
C25 C 0.23772 0.48433 0.21071 0.0
C26 C 0.26004 0.4904 0.11853 0.0
C27 C 0.28071 0.49235 0.08359 0.0
C28 C 0.28493 0.47215 0.07702 0.0
C29 C 0.30175 0.47257 0.03599 0.0
C30 C 0.31479 0.4933 0.00127 0.0
C31 C 0.31129 0.51393 0.01016 0.0
C32 C 0.29436 0.5134 0.05065 0.0
C33 C 0.20469 0.49584 0.0805 0.0
C34 C 0.21348 0.51807 0.05109 0.0
C35 C 0.19915 0.51998 0.00498 0.0
C36 C 0.17579 0.49963 0.98736 0.0
C37 C 0.16641 0.47792 0.01955 0.0
C38 C 0.1808 0.47605 0.06596 0.0
C39 C 0.22214 0.49202 0.1175 0.0
C40 C 0.24186 0.49284 0.08755 0.0
C41 C 0.21977 0.48753 0.17997 0.0
C42 C 0.20039 0.48834 0.21581 0.0
C43 C 0.19631 0.50863 0.21386 0.0
C44 C 0.17979 0.51055 0.25181 0.0
C45 C 0.16731 0.49254 0.29387 0.0
C46 C 0.17122 0.47207 0.29524 0.0
C47 C 0.1875 0.46998 0.25657 0.0
H48 H 0.78626 0.28111 0.98279 0.0
H49 H 0.82215 0.30692 0.92522 0.0
H50 H 0.86799 0.29475 0.05159 0.0
H51 H 0.83207 0.26836 0.10776 0.0
H52 H 0.76186 0.23489 0.01368 0.0
H53 H 0.8032 0.31358 0.12139 0.0
H54 H 0.83986 0.35199 0.1626 0.0
H55 H 0.85548 0.30928 0.28698 0.0
H56 H 0.81903 0.27088 0.24485 0.0
H57 H 0.75595 0.20938 0.25943 0.0
H58 H 0.72852 0.18681 0.3375 0.0
H59 H 0.66924 0.18902 0.24005 0.0
H60 H 0.69753 0.21335 0.16387 0.0
H61 H 0.77045 0.25531 0.23684 0.0
H62 H 0.72106 0.17377 0.10855 0.0
H63 H 0.68572 0.14121 0.04538 0.0
H64 H 0.68096 0.19832 0.9511 0.0
H65 H 0.71618 0.23055 0.01379 0.0
C66 C 0.80656 0.27321 0.05023 0.0
C67 C 0.80395 0.28364 0.99744 0.0
C68 C 0.82444 0.29838 0.96469 0.0
C69 C 0.84782 0.303 0.98451 0.0
C70 C 0.85022 0.29177 0.03596 0.0
C71 C 0.82973 0.27676 0.06805 0.0
C72 C 0.78547 0.25957 0.08866 0.0
C73 C 0.76357 0.23941 0.06248 0.0
C74 C 0.78735 0.26605 0.15174 0.0
C75 C 0.80853 0.2894 0.17989 0.0
C76 C 0.81453 0.31254 0.15763 0.0
C77 C 0.8354 0.33445 0.18126 0.0
C78 C 0.85063 0.33357 0.22754 0.0
C79 C 0.8443 0.31044 0.25056 0.0
C80 C 0.82335 0.28855 0.22712 0.0
C81 C 0.72886 0.21299 0.20531 0.0
C82 C 0.73701 0.20497 0.25464 0.0
C83 C 0.72116 0.1918 0.29922 0.0
C84 C 0.69651 0.18592 0.29541 0.0
C85 C 0.68816 0.19348 0.24515 0.0
C86 C 0.70423 0.20704 0.20079 0.0
C87 C 0.74705 0.22934 0.16265 0.0
C88 C 0.76854 0.25054 0.18813 0.0
C89 C 0.74405 0.22451 0.09839 0.0
C90 C 0.72113 0.20456 0.06608 0.0
C91 C 0.71211 0.17921 0.07495 0.0
C92 C 0.69199 0.16066 0.03866 0.0
C93 C 0.68071 0.16721 0.99272 0.0
C94 C 0.68951 0.19264 0.98513 0.0
C95 C 0.70949 0.21107 0.02135 0.0
H96 H 0.55395 0.74612 0.94445 0.0
H97 H 0.5522 0.70755 0.90559 0.0
H98 H 0.49808 0.66632 0.03413 0.0
H99 H 0.49949 0.70501 0.07185 0.0
H100 H 0.52014 0.76246 0.95718 0.0
H101 H 0.5705 0.74148 0.08314 0.0
H102 H 0.57553 0.71207 0.14373 0.0
H103 H 0.52554 0.71406 0.27148 0.0
H104 H 0.51991 0.74279 0.20975 0.0
H105 H 0.52412 0.80919 0.19708 0.0
H106 H 0.53419 0.85018 0.24407 0.0
H107 H 0.57858 0.88603 0.09449 0.0
H108 H 0.56974 0.84513 0.04906 0.0
H109 H 0.55053 0.78894 0.17353 0.0
H110 H 0.49932 0.8092 0.04899 0.0
H111 H 0.49594 0.84069 0.99325 0.0
H112 H 0.5473 0.84088 0.86664 0.0
H113 H 0.55097 0.8098 0.92321 0.0
C114 C 0.527 0.72842 0.01125 0.0
C115 C 0.54137 0.7287 0.96344 0.0
C116 C 0.54061 0.70671 0.94195 0.0
C117 C 0.52535 0.68401 0.96769 0.0
C118 C 0.51003 0.68353 0.01352 0.0
C119 C 0.51083 0.70559 0.03508 0.0
C120 C 0.53089 0.75237 0.03994 0.0
C121 C 0.52676 0.76827 0.00446 0.0
C122 C 0.53939 0.75983 0.10177 0.0
C123 C 0.54441 0.74394 0.14123 0.0
C124 C 0.56052 0.73549 0.12401 0.0
C125 C 0.56342 0.71873 0.15864 0.0
C126 C 0.5508 0.71069 0.21203 0.0
C127 C 0.53558 0.72006 0.23067 0.0
C128 C 0.53236 0.73647 0.19549 0.0
C129 C 0.54584 0.824 0.11904 0.0
C130 C 0.53619 0.82584 0.17456 0.0
C131 C 0.54186 0.84917 0.20123 0.0
C132 C 0.55697 0.87101 0.1724 0.0
C133 C 0.56667 0.86931 0.11698 0.0
C134 C 0.5615 0.84599 0.091 0.0
C135 C 0.53965 0.79906 0.09103 0.0
C136 C 0.54349 0.783 0.12655 0.0
C137 C 0.53069 0.79139 0.0295 0.0
C138 C 0.52564 0.8074 0.99066 0.0
C139 C 0.5096 0.81581 0.00874 0.0
C140 C 0.50762 0.83373 0.97675 0.0
C141 C 0.52161 0.84351 0.92606 0.0
C142 C 0.53663 0.83403 0.90619 0.0
C143 C 0.53854 0.81607 0.93805 0.0
H144 H 0.77123 0.4833 0.16369 0.0
H145 H 0.79718 0.48074 0.24369 0.0
H146 H 0.85456 0.55583 0.21481 0.0
H147 H 0.82817 0.55835 0.13501 0.0
H148 H 0.75898 0.52053 0.18542 0.0
H149 H 0.7893 0.48886 0.03162 0.0
H150 H 0.81748 0.48383 0.96691 0.0
H151 H 0.84516 0.55883 0.91095 0.0
H152 H 0.81608 0.56332 0.97476 0.0
H153 H 0.74093 0.56314 0.97478 0.0
H154 H 0.70656 0.55612 0.90571 0.0
H155 H 0.66592 0.47927 0.95318 0.0
H156 H 0.69964 0.48688 0.02363 0.0
H157 H 0.76489 0.53331 0.96477 0.0
H158 H 0.72569 0.55842 0.12363 0.0
H159 H 0.6949 0.55579 0.19371 0.0
H160 H 0.68022 0.48243 0.23692 0.0
H161 H 0.7108 0.48515 0.16698 0.0
C162 C 0.79788 0.521 0.14372 0.0
C163 C 0.78966 0.49894 0.17356 0.0
C164 C 0.80448 0.49752 0.21924 0.0
C165 C 0.82773 0.51823 0.23602 0.0
C166 C 0.83652 0.53977 0.20341 0.0
C167 C 0.82167 0.54113 0.15737 0.0
C168 C 0.78002 0.52435 0.1071 0.0
C169 C 0.7602 0.52325 0.13704 0.0
C170 C 0.78214 0.52852 0.04456 0.0
C171 C 0.8009 0.52664 0.00896 0.0
C172 C 0.80172 0.50438 0.00621 0.0
C173 C 0.8179 0.50155 0.969 0.0
C174 C 0.83384 0.521 0.9338 0.0
C175 C 0.83302 0.54335 0.93679 0.0
C176 C 0.81658 0.54607 0.97372 0.0
C177 C 0.72246 0.52568 0.00506 0.0
C178 C 0.72437 0.54497 0.97076 0.0
C179 C 0.70487 0.5408 0.93085 0.0
C180 C 0.68342 0.51715 0.92404 0.0
C181 C 0.68185 0.49788 0.9583 0.0
C182 C 0.70111 0.50217 0.99865 0.0
C183 C 0.7435 0.52884 0.04296 0.0
C184 C 0.76405 0.53133 0.01347 0.0
C185 C 0.74164 0.52494 0.10565 0.0
C186 C 0.7205 0.52198 0.14008 0.0
C187 C 0.71546 0.5416 0.14731 0.0
C188 C 0.69807 0.54017 0.18783 0.0
C189 C 0.68528 0.51898 0.22124 0.0
C190 C 0.68962 0.49893 0.21166 0.0
C191 C 0.70713 0.50048 0.17177 0.0
H192 H 0.27195 0.83289 0.03398 0.0
H193 H 0.29983 0.85486 0.95476 0.0
H194 H 0.3016 0.78776 0.90005 0.0
H195 H 0.27412 0.76605 0.98002 0.0
H196 H 0.22881 0.75537 0.98599 0.0
H197 H 0.26046 0.83216 0.19049 0.0
H198 H 0.29722 0.86243 0.25251 0.0
H199 H 0.33658 0.82748 0.17879 0.0
H200 H 0.29983 0.79729 0.11702 0.0
H201 H 0.21379 0.73947 0.24189 0.0
H202 H 0.17883 0.71394 0.30217 0.0
H203 H 0.13024 0.72008 0.17136 0.0
H204 H 0.16532 0.74624 0.11221 0.0
H205 H 0.23582 0.78498 0.2032 0.0
H206 H 0.19566 0.70169 0.10717 0.0
H207 H 0.15867 0.66263 0.06951 0.0
H208 H 0.14191 0.70314 0.94083 0.0
H209 H 0.17885 0.74203 0.97853 0.0
C210 C 0.27103 0.79786 0.01322 0.0
C211 C 0.2787 0.82305 0.00568 0.0
C212 C 0.29437 0.83548 0.95982 0.0
C213 C 0.30273 0.82297 0.9207 0.0
C214 C 0.29559 0.79796 0.92955 0.0
C215 C 0.27983 0.78551 0.97515 0.0
C216 C 0.25199 0.78372 0.05645 0.0
C217 C 0.23053 0.76195 0.03348 0.0
C218 C 0.25418 0.79188 0.11883 0.0
C219 C 0.27739 0.81253 0.14874 0.0
C220 C 0.27712 0.83124 0.18707 0.0
C221 C 0.29807 0.8484 0.22287 0.0
C222 C 0.31974 0.84719 0.22104 0.0
C223 C 0.32025 0.82906 0.18085 0.0
C224 C 0.29926 0.81185 0.14521 0.0
C225 C 0.19211 0.74438 0.17201 0.0
C226 C 0.1957 0.73575 0.22685 0.0
C227 C 0.17572 0.72117 0.26118 0.0
C228 C 0.15184 0.71487 0.24099 0.0
C229 C 0.14843 0.72439 0.18743 0.0
C230 C 0.16843 0.73927 0.15365 0.0
C231 C 0.21278 0.75737 0.13204 0.0
C232 C 0.23435 0.77875 0.15552 0.0
C233 C 0.21125 0.74843 0.07086 0.0
C234 C 0.18986 0.72467 0.04559 0.0
C235 C 0.18403 0.70206 0.07063 0.0
C236 C 0.16298 0.67983 0.04919 0.0
C237 C 0.14737 0.67998 0.00282 0.0
C238 C 0.15346 0.70261 0.97733 0.0
C239 C 0.17464 0.72475 0.99826 0.0
H240 H 0.47683 0.20205 0.02521 0.0
H241 H 0.46698 0.16116 0.97799 0.0
H242 H 0.42231 0.12497 0.12687 0.0
H243 H 0.43091 0.16576 0.17248 0.0
H244 H 0.45028 0.22229 0.04908 0.0
H245 H 0.50129 0.2015 0.17325 0.0
H246 H 0.50438 0.16973 0.22847 0.0
H247 H 0.45294 0.16949 0.3549 0.0
H248 H 0.44955 0.20082 0.29882 0.0
H249 H 0.44678 0.2645 0.27903 0.0
H250 H 0.44832 0.30294 0.31821 0.0
H251 H 0.50237 0.34452 0.18986 0.0
H252 H 0.50118 0.30597 0.15186 0.0
H253 H 0.48057 0.24821 0.26566 0.0
H254 H 0.42995 0.2691 0.14102 0.0
H255 H 0.42489 0.29886 0.08202 0.0
H256 H 0.47512 0.29795 0.95349 0.0
H257 H 0.48079 0.26886 0.01369 0.0
C258 C 0.45496 0.18707 0.10292 0.0
C259 C 0.46473 0.18535 0.0475 0.0
C260 C 0.4592 0.16207 0.02072 0.0
C261 C 0.44409 0.14017 0.04934 0.0
C262 C 0.43422 0.14174 0.10458 0.0
C263 C 0.43926 0.16501 0.13065 0.0
C264 C 0.46113 0.21195 0.1313 0.0
C265 C 0.4573 0.22811 0.09611 0.0
C266 C 0.47004 0.21945 0.19291 0.0
C267 C 0.47495 0.20328 0.2315 0.0
C268 C 0.49093 0.19481 0.21335 0.0
C269 C 0.49275 0.17673 0.24505 0.0
C270 C 0.47864 0.16685 0.29553 0.0
C271 C 0.46369 0.1764 0.31549 0.0
C272 C 0.46194 0.19451 0.28393 0.0
C273 C 0.47371 0.28239 0.21232 0.0
C274 C 0.45931 0.28197 0.26019 0.0
C275 C 0.45995 0.30388 0.28185 0.0
C276 C 0.47511 0.32664 0.25622 0.0
C277 C 0.49049 0.32726 0.21039 0.0
C278 C 0.48982 0.30529 0.18868 0.0
C279 C 0.46985 0.25851 0.18321 0.0
C280 C 0.47397 0.24252 0.21833 0.0
C281 C 0.46134 0.2512 0.12135 0.0
C282 C 0.45617 0.26715 0.08248 0.0
C283 C 0.43997 0.27539 0.1003 0.0
C284 C 0.43705 0.29235 0.06659 0.0
C285 C 0.44975 0.30083 0.01349 0.0
C286 C 0.46503 0.29164 0.99412 0.0
C287 C 0.46827 0.27501 0.02842 0.0
C288 C 0.98021 0.43293 0.75612 0.0
C289 C 0.05231 0.48707 0.69607 0.0
C290 C 0.02242 0.55291 0.71872 0.0
Mg291 Mg 0.00138 0.45406 0.63327 0.0
O292 O 0.99178 0.47706 0.66095 0.0
Mg293 Mg 0.00613 0.4953 0.74267 0.0
Mg294 Mg 0.00069 0.5066 0.61352 0.0
O295 O 0.00991 0.53618 0.56588 0.0
Mg296 Mg 0.00116 0.5599 0.59245 0.0
Mg297 Mg -0.00358 0.51828 0.48356 0.0
C298 C 0.97933 0.46052 0.50773 0.0
C299 C 0.04314 0.51252 0.52178 0.0
O300 O 0.98832 0.45546 0.77889 0.0
O301 O 0.98276 0.42795 0.70043 0.0
O302 O 0.04216 0.4959 0.73089 0.0
O303 O 0.04035 0.47084 0.65198 0.0
O304 O 0.98649 0.44815 0.53929 0.0
O305 O 0.98048 0.48077 0.52946 0.0
C306 C 0.95864 0.50025 0.70719 0.0
O307 O 0.96593 0.5056 0.653 0.0
O308 O 0.97064 0.4955 0.74691 0.0
O309 O 0.01484 0.55815 0.44737 0.0
O310 O 0.02054 0.58585 0.52549 0.0
O311 O 0.96052 0.51822 0.49341 0.0
C312 C 0.02313 0.58074 0.46994 0.0
O313 O 0.9624 0.54371 0.57151 0.0
O314 O 0.01559 0.56551 0.68696 0.0
C315 C 0.95049 0.52747 0.52737 0.0
O316 O 0.02109 0.53258 0.6969 0.0
O317 O 0.03516 0.5073 0.57528 0.0
O318 O 0.03201 0.51772 0.48068 0.0
C319 C 0.44514 0.00962 0.7839 0.0
C320 C 0.42594 0.94377 0.67041 0.0
C321 C 0.52348 0.97643 0.68285 0.0
Mg322 Mg 0.44607 0.99872 0.64495 0.0
O323 O 0.47802 0.00714 0.67123 0.0
Mg324 Mg 0.48151 0.98721 0.73568 0.0
Mg325 Mg 0.49972 0.00488 0.6105 0.0
O326 O 0.52151 0.00269 0.54992 0.0
Mg327 Mg 0.55354 0.01169 0.57701 0.0
Mg328 Mg 0.51786 0.02239 0.48513 0.0
C329 C 0.47593 0.03345 0.53824 0.0
C330 C 0.46582 0.97081 0.48965 0.0
O331 O 0.45973 0.00116 0.79505 0.0
O332 O 0.43817 0.01086 0.72963 0.0
O333 O 0.44526 0.95167 0.70527 0.0
O334 O 0.4227 0.95849 0.63787 0.0
O335 O 0.45604 0.022 0.56669 0.0
O336 O 0.49506 0.03188 0.55211 0.0
C337 C 0.53406 0.0382 0.73165 0.0
O338 O 0.53221 0.03647 0.67304 0.0
O339 O 0.51718 0.02215 0.76262 0.0
O340 O 0.54005 0.00882 0.4265 0.0
O341 O 0.56198 -0.00017 0.49256 0.0
O342 O 0.55387 0.05822 0.51521 0.0
C343 C 0.55495 0.0008 0.43811 0.0
O344 O 0.57633 0.05206 0.58447 0.0
O345 O 0.5435 0.98822 0.65501 0.0
C346 C 0.57308 0.06647 0.55072 0.0
O347 O 0.50426 0.97777 0.66854 0.0
O348 O 0.46737 0.97318 0.54824 0.0
O349 O 0.48254 0.98682 0.45824 0.0
C350 C 0.54409 0.57576 0.45684 0.0
C351 C 0.5673 0.52383 0.50617 0.0
C352 C 0.47063 0.45705 0.5123 0.0
Mg353 Mg 0.55145 0.55685 0.57944 0.0
O354 O 0.51836 0.53323 0.55918 0.0
Mg355 Mg 0.50993 0.51393 0.4781 0.0
Mg356 Mg 0.49967 0.50513 0.61158 0.0
O357 O 0.48093 0.477 0.66384 0.0
Mg358 Mg 0.44777 0.45354 0.64337 0.0
Mg359 Mg 0.48937 0.49624 0.74495 0.0
C360 C 0.52871 0.55321 0.71077 0.0
C361 C 0.53831 0.49825 0.69568 0.0
O362 O 0.52925 0.55291 0.43692 0.0
O363 O 0.55409 0.58169 0.51114 0.0
O364 O 0.54619 0.51354 0.47786 0.0
O365 O 0.57325 0.54032 0.55061 0.0
O366 O 0.54652 0.56451 0.67554 0.0
O367 O 0.50908 0.53261 0.6933 0.0
C368 C 0.46103 0.512 0.52749 0.0
O369 O 0.46563 0.50735 0.58073 0.0
O370 O 0.47494 0.51504 0.48357 0.0
O371 O 0.46996 0.45714 0.78585 0.0
O372 O 0.44498 0.42858 0.71144 0.0
O373 O 0.45322 0.49678 0.7451 0.0
C374 C 0.45502 0.43435 0.76568 0.0
O375 O 0.42604 0.47017 0.67231 0.0
O376 O 0.45273 0.44578 0.54731 0.0
C377 C 0.43213 0.48668 0.7168 0.0
O378 O 0.49022 0.47764 0.52997 0.0
O379 O 0.53374 0.50294 0.64245 0.0
O380 O 0.52435 0.49514 0.7395 0.0
H381 H 0.12442 0.45578 0.33816 0.0
H382 H 0.08237 0.54825 0.46876 0.0
H383 H 0.17236 0.536 0.34868 0.0
H384 H 0.05285 0.47438 0.53164 0.0
H385 H 0.11496 0.54392 0.42183 0.0
H386 H 0.09716 0.46145 0.40596 0.0
C387 C 0.12943 0.47457 0.35502 0.0
C388 C 0.15074 0.49545 0.33675 0.0
C389 C 0.10167 0.52882 0.44688 0.0
C390 C 0.11922 0.50198 0.41367 0.0
C391 C 0.08315 0.53133 0.47376 0.0
C392 C 0.06518 0.51175 0.50455 0.0
C393 C 0.10176 0.50624 0.44916 0.0
C394 C 0.06668 0.49003 0.50913 0.0
C395 C 0.11378 0.47775 0.39372 0.0
C396 C 0.15589 0.51932 0.35977 0.0
N397 N 0.08445 0.48765 0.48071 0.0
N398 N 0.14014 0.52192 0.39636 0.0
H399 H 0.6589 0.19133 0.34142 0.0
H400 H 0.62215 0.08316 0.56952 0.0
H401 H 0.69603 0.14912 0.36152 0.0
H402 H 0.57168 0.10576 0.50321 0.0
H403 H 0.65487 0.1168 0.51737 0.0
H404 H 0.63147 0.16783 0.41996 0.0
C405 C 0.66134 0.17716 0.36206 0.0
C406 C 0.67983 0.17218 0.34409 0.0
C407 C 0.63675 0.11473 0.51542 0.0
C408 C 0.64891 0.14581 0.43564 0.0
C409 C 0.61811 0.09574 0.54594 0.0
C410 C 0.59402 0.09134 0.53981 0.0
C411 C 0.63127 0.12952 0.47909 0.0
C412 C 0.58993 0.10826 0.50838 0.0
C413 C 0.64582 0.16397 0.40743 0.0
C414 C 0.68236 0.15398 0.37403 0.0
N415 N 0.60827 0.12635 0.47831 0.0
N416 N 0.66708 0.14147 0.41805 0.0
H417 H 0.55893 0.71228 0.33515 0.0
H418 H 0.5318 0.5721 0.33452 0.0
H419 H 0.54707 0.66656 0.16918 0.0
H420 H 0.56584 0.62592 0.48949 0.0
H421 H 0.5359 0.60574 0.27322 0.0
H422 H 0.55992 0.68009 0.39319 0.0
C423 C 0.55661 0.69547 0.31099 0.0
C424 C 0.55287 0.69202 0.24737 0.0
C425 C 0.54266 0.61018 0.32051 0.0
C426 C 0.55384 0.65507 0.31334 0.0
C427 C 0.5403 0.59098 0.35558 0.0
C428 C 0.54838 0.59612 0.41741 0.0
C429 C 0.55286 0.63462 0.34764 0.0
C430 C 0.55932 0.621 0.44209 0.0
C431 C 0.55729 0.67717 0.34403 0.0
C432 C 0.55016 0.67 0.21819 0.0
N433 N 0.56101 0.63924 0.40733 0.0
N434 N 0.55046 0.65223 0.25145 0.0
H435 H 0.85235 0.55505 0.32721 0.0
H436 H 0.91408 0.48387 0.47194 0.0
H437 H 0.83488 0.4801 0.26789 0.0
H438 H 0.93077 0.55795 0.53706 0.0
H439 H 0.8787 0.47888 0.41204 0.0
H440 H 0.87615 0.55409 0.41527 0.0
C441 C 0.85362 0.53843 0.33264 0.0
C442 C 0.84201 0.51778 0.28968 0.0
C443 C 0.88974 0.49606 0.44033 0.0
C444 C 0.86876 0.51635 0.39079 0.0
C445 C 0.90986 0.49884 0.4748 0.0
C446 C 0.92556 0.52155 0.50827 0.0
C447 C 0.88566 0.51633 0.43853 0.0
C448 C 0.91918 0.54023 0.51128 0.0
C449 C 0.86693 0.53776 0.38331 0.0
C450 C 0.84362 0.49645 0.29982 0.0
N451 N 0.89999 0.53746 0.47545 0.0
N452 N 0.85696 0.49639 0.34902 0.0
H453 H 0.36809 0.87147 0.19422 0.0
H454 H 0.41933 0.93968 0.52824 0.0
H455 H 0.32095 0.86161 0.34175 0.0
H456 H 0.46331 0.95372 0.37221 0.0
H457 H 0.38345 0.90799 0.46479 0.0
H458 H 0.40364 0.89899 0.26267 0.0
C459 C 0.36522 0.87501 0.24113 0.0
C460 C 0.34149 0.86428 0.26216 0.0
C461 C 0.40103 0.91797 0.44472 0.0
C462 C 0.3822 0.89597 0.34104 0.0
C463 C 0.42152 0.93595 0.48104 0.0
C464 C 0.4443 0.94962 0.45548 0.0
C465 C 0.40351 0.91357 0.38267 0.0
C466 C 0.44607 0.94396 0.39385 0.0
C467 C 0.38554 0.89081 0.28023 0.0
C468 C 0.3389 0.86979 0.32335 0.0
N469 N 0.42599 0.92651 0.35969 0.0
N470 N 0.359 0.88527 0.36067 0.0
H471 H 0.51385 0.37444 0.28069 0.0
H472 H 0.43064 0.41857 0.44845 0.0
H473 H 0.43482 0.33081 0.2784 0.0
H474 H 0.50936 0.46445 0.44488 0.0
H475 H 0.43127 0.38992 0.36929 0.0
H476 H 0.51222 0.41065 0.3249 0.0
C477 C 0.49615 0.37258 0.28871 0.0
C478 C 0.47447 0.34945 0.27712 0.0
C479 C 0.44839 0.40649 0.38496 0.0
C480 C 0.47246 0.39069 0.32788 0.0
C481 C 0.44802 0.42291 0.43008 0.0
C482 C 0.47003 0.44366 0.45421 0.0
C483 C 0.47097 0.41063 0.3645 0.0
C484 C 0.49196 0.44855 0.42805 0.0
C485 C 0.49522 0.39324 0.31401 0.0
C486 C 0.45203 0.3481 0.28829 0.0
N487 N 0.49195 0.43184 0.3855 0.0
N488 N 0.45163 0.36833 0.31368 0.0
H489 H 0.56118 0.8855 0.8899 0.0
H490 H 0.48291 0.93941 0.73394 0.0
H491 H 0.48239 0.84962 0.89482 0.0
H492 H 0.56192 0.97486 0.73782 0.0
H493 H 0.482 0.90814 0.79949 0.0
H494 H 0.56146 0.91965 0.8391 0.0
C495 C 0.54388 0.88473 0.8799 0.0
C496 C 0.5217 0.86449 0.89591 0.0
C497 C 0.49953 0.92293 0.78645 0.0
C498 C 0.52187 0.90385 0.83815 0.0
C499 C 0.50008 0.94089 0.74931 0.0
C500 C 0.52252 0.95967 0.72975 0.0
C501 C 0.52157 0.92383 0.80409 0.0
C502 C 0.54416 0.96058 0.75102 0.0
C503 C 0.54406 0.90437 0.85131 0.0
C504 C 0.49992 0.86486 0.88324 0.0
N505 N 0.54311 0.94283 0.78651 0.0
N506 N 0.50052 0.88415 0.85467 0.0
H507 H 0.6346 0.48849 0.94183 0.0
H508 H 0.58545 0.52871 0.6626 0.0
H509 H 0.68433 0.53511 0.81128 0.0
H510 H 0.54078 0.46426 0.76182 0.0
H511 H 0.62245 0.53111 0.71014 0.0
H512 H 0.60026 0.47984 0.87327 0.0
C513 C 0.63836 0.4967 0.89833 0.0
C514 C 0.66248 0.51238 0.88222 0.0
C515 C 0.60452 0.51611 0.72021 0.0
C516 C 0.6229 0.50297 0.8035 0.0
C517 C 0.5835 0.51465 0.69281 0.0
C518 C 0.56024 0.4965 0.7093 0.0
C519 C 0.6019 0.49936 0.76415 0.0
C520 C 0.55849 0.47879 0.74889 0.0
C521 C 0.61866 0.49178 0.85909 0.0
C522 C 0.66604 0.52311 0.82589 0.0
N523 N 0.57904 0.48087 0.77561 0.0
N524 N 0.64641 0.51835 0.78857 0.0
H525 H 0.1012 0.6725 0.98376 0.0
H526 H 0.05569 0.54522 0.78267 0.0
H527 H 0.14273 0.63449 0.96957 0.0
H528 H 0.01696 0.58625 0.79256 0.0
H529 H 0.08275 0.57183 0.86973 0.0
H530 H 0.0658 0.63581 0.93236 0.0
C531 C 0.10274 0.65628 0.97019 0.0
C532 C 0.12499 0.65664 0.97971 0.0
C533 C 0.06799 0.57465 0.85364 0.0
C534 C 0.08467 0.61463 0.92052 0.0
C535 C 0.05245 0.55935 0.8042 0.0
C536 C 0.03445 0.56395 0.77958 0.0
C537 C 0.0654 0.59455 0.87836 0.0
C538 C 0.03099 0.58245 0.80928 0.0
C539 C 0.08253 0.63529 0.9411 0.0
C540 C 0.1259 0.63498 0.96261 0.0
N541 N 0.04657 0.59732 0.85648 0.0
N542 N 0.10614 0.61496 0.93281 0.0
H543 H 0.45542 0.10652 0.09359 0.0
H544 H 0.40833 0.02062 0.78143 0.0
H545 H 0.42043 0.11899 0.93951 0.0
H546 H 0.4659 0.02485 0.90091 0.0
H547 H 0.40265 0.04754 0.85571 0.0
H548 H 0.45015 0.06835 0.03817 0.0
C549 C 0.44625 0.10089 0.04854 0.0
C550 C 0.4385 0.11579 0.02047 0.0
C551 C 0.41629 0.04229 0.86608 0.0
C552 C 0.43222 0.07253 0.95778 0.0
C553 C 0.41954 0.02688 0.82377 0.0
C554 C 0.43805 0.02097 0.83432 0.0
C555 C 0.43168 0.05196 0.91935 0.0
C556 C 0.45162 0.0292 0.8906 0.0
C557 C 0.44331 0.07928 0.01705 0.0
C558 C 0.4268 0.10799 0.9622 0.0
N559 N 0.44846 0.04469 0.93074 0.0
N560 N 0.42408 0.08691 0.93265 0.0
H561 H 0.30645 0.45499 0.91788 0.0
H562 H 0.43974 0.52736 0.78926 0.0
H563 H 0.36032 0.53133 0.97631 0.0
H564 H 0.38205 0.45615 0.70891 0.0
H565 H 0.41013 0.53025 0.85345 0.0
H566 H 0.33339 0.45537 0.83924 0.0
C567 C 0.32401 0.47179 0.91441 0.0
C568 C 0.3312 0.49311 0.95408 0.0
C569 C 0.40381 0.51416 0.82115 0.0
C570 C 0.36201 0.49379 0.86354 0.0
C571 C 0.4207 0.51255 0.78419 0.0
C572 C 0.41341 0.49138 0.74392 0.0
C573 C 0.37946 0.49428 0.8186 0.0
C574 C 0.38849 0.47282 0.73923 0.0
C575 C 0.33926 0.47208 0.86905 0.0
C576 C 0.35396 0.51451 0.94661 0.0
N577 N 0.37248 0.4745 0.77691 0.0
N578 N 0.36859 0.51424 0.90256 0.0
H579 H 0.89072 0.34192 0.03591 0.0
H580 H 0.95168 0.38339 0.71771 0.0
H581 H 0.85477 0.30369 0.86237 0.0
H582 H 0.97315 0.43434 0.87862 0.0
H583 H 0.92158 0.35004 0.77537 0.0
H584 H 0.92616 0.37209 0.98309 0.0
C585 C 0.89045 0.33974 0.98671 0.0
C586 C 0.86982 0.32041 0.95327 0.0
C587 C 0.93306 0.36847 0.79813 0.0
C588 C 0.91015 0.35466 0.89289 0.0
C589 C 0.95039 0.38753 0.76541 0.0
C590 C 0.96482 0.41185 0.79315 0.0
C591 C 0.93027 0.37365 0.85919 0.0
C592 C 0.96227 0.41596 0.85518 0.0
C593 C 0.91058 0.35699 0.95669 0.0
C594 C 0.87025 0.31851 0.88966 0.0
N595 N 0.94519 0.39707 0.88607 0.0
N596 N 0.89012 0.33544 0.86147 0.0
H597 H 0.84878 0.53834 0.82021 0.0
H598 H 0.92776 0.47028 0.78765 0.0
H599 H 0.85875 0.49632 0.9576 0.0
H600 H 0.93894 0.52958 0.67466 0.0
H601 H 0.89583 0.4743 0.83739 0.0
H602 H 0.87679 0.53164 0.75675 0.0
C603 C 0.85686 0.52781 0.83727 0.0
C604 C 0.85116 0.51775 0.89448 0.0
C605 C 0.90507 0.48637 0.80143 0.0
C606 C 0.8827 0.50958 0.82131 0.0
C607 C 0.92324 0.48399 0.77271 0.0
C608 C 0.93623 0.49982 0.72735 0.0
C609 C 0.89975 0.50484 0.7852 0.0
C610 C 0.92934 0.51699 0.70932 0.0
C611 C 0.8727 0.52387 0.80074 0.0
C612 C 0.862 0.50399 0.91351 0.0
N613 N 0.91169 0.51929 0.7389 0.0
N614 N 0.8771 0.50029 0.87705 0.0
H615 H 0.34335 0.82153 0.88416 0.0
H616 H 0.37679 0.92664 0.64957 0.0
H617 H 0.29815 0.85361 0.84227 0.0
H618 H 0.42741 0.90436 0.71662 0.0
H619 H 0.34376 0.89202 0.69857 0.0
H620 H 0.37037 0.84461 0.80464 0.0
C621 C 0.33895 0.83321 0.8578 0.0
C622 C 0.31864 0.8359 0.8705 0.0
C623 C 0.36199 0.89438 0.70141 0.0
C624 C 0.34951 0.86241 0.77934 0.0
C625 C 0.38083 0.91398 0.67275 0.0
C626 C 0.40502 0.91872 0.68005 0.0
C627 C 0.36741 0.87942 0.73726 0.0
C628 C 0.4091 0.90166 0.71071 0.0
C629 C 0.35441 0.84642 0.81246 0.0
C630 C 0.31391 0.85141 0.83497 0.0
N631 N 0.3906 0.88305 0.73911 0.0
N632 N 0.32931 0.86419 0.79133 0.0
H633 H 0.45336 0.34464 0.05859 0.0
H634 H 0.43239 0.38418 0.73235 0.0
H635 H 0.44164 0.30009 0.89061 0.0
H636 H 0.46795 0.43755 0.88755 0.0
H637 H 0.42869 0.35101 0.79413 0.0
H638 H 0.45201 0.37673 1.00041 0.0
C639 C 0.45025 0.34153 0.00951 0.0
C640 C 0.44767 0.31975 0.97924 0.0
C641 C 0.43718 0.36996 0.81473 0.0
C642 C 0.44608 0.35625 0.91266 0.0
C643 C 0.43921 0.38895 0.77959 0.0
C644 C 0.45066 0.41381 0.8046 0.0
C645 C 0.44644 0.37574 0.8756 0.0
C646 C 0.45914 0.41872 0.86618 0.0
C647 C 0.44963 0.35988 0.97639 0.0
C648 C 0.44393 0.31673 0.91559 0.0
N649 N 0.45689 0.39986 0.89956 0.0
N650 N 0.44321 0.33476 0.88442 0.0
H651 H 0.17039 0.53876 0.95477 0.0
H652 H 0.07351 0.45805 0.68099 0.0
H653 H 0.15056 0.46304 0.89597 0.0
H654 H 0.08799 0.53054 0.75368 0.0
H655 H 0.10968 0.46412 0.74047 0.0
H656 H 0.14744 0.53988 0.86533 0.0
C657 C 0.16132 0.52242 0.92281 0.0
C658 C 0.162 0.50062 0.93333 0.0
C659 C 0.10526 0.47894 0.74225 0.0
C660 C 0.13567 0.50173 0.83097 0.0
C661 C 0.08479 0.47559 0.70784 0.0
C662 C 0.07752 0.49357 0.7139 0.0
C663 C 0.11833 0.5004 0.78255 0.0
C664 C 0.09273 0.51598 0.74905 0.0
C665 C 0.14826 0.52307 0.8717 0.0
C666 C 0.14992 0.47998 0.89043 0.0
N667 N 0.11218 0.51858 0.78303 0.0
N668 N 0.13705 0.48096 0.84136 0.0
H669 H 0.64157 0.12368 0.02495 0.0
H670 H 0.57517 0.07881 0.68962 0.0
H671 H 0.67226 0.16637 0.86929 0.0
H672 H 0.54394 0.04316 0.85394 0.0
H673 H 0.61191 0.11026 0.75148 0.0
H674 H 0.60676 0.09256 0.95944 0.0
C675 C 0.64108 0.12641 0.97686 0.0
C676 C 0.65982 0.14772 0.95271 0.0
C677 C 0.59691 0.09549 0.77365 0.0
C678 C 0.61974 0.11222 0.87711 0.0
C679 C 0.57598 0.07755 0.73838 0.0
C680 C 0.55637 0.05823 0.76635 0.0
C681 C 0.59817 0.09393 0.83709 0.0
C682 C 0.55844 0.05763 0.82992 0.0
C683 C 0.62108 0.10872 0.93941 0.0
C684 C 0.65801 0.15039 0.89001 0.0
N685 N 0.57886 0.0751 0.8628 0.0
N686 N 0.63831 0.13287 0.85433 0.0
H687 H 0.48639 0.63634 0.94327 0.0
H688 H 0.56886 0.59149 0.77458 0.0
H689 H 0.56544 0.67947 0.94548 0.0
H690 H 0.49012 0.546 0.77849 0.0
H691 H 0.56849 0.62019 0.85403 0.0
H692 H 0.48771 0.59998 0.89886 0.0
C693 C 0.50403 0.63805 0.9352 0.0
C694 C 0.52581 0.66109 0.94681 0.0
C695 C 0.55131 0.6037 0.83837 0.0
C696 C 0.52747 0.61969 0.89582 0.0
C697 C 0.55153 0.58724 0.79309 0.0
C698 C 0.52943 0.5666 0.76897 0.0
C699 C 0.52879 0.59969 0.85902 0.0
C700 C 0.50757 0.56182 0.79531 0.0
C701 C 0.50479 0.61731 0.90978 0.0
C702 C 0.54816 0.66226 0.93558 0.0
N703 N 0.50773 0.57856 0.83802 0.0
N704 N 0.5484 0.64196 0.91007 0.0
H705 H 0.43889 0.12489 0.33117 0.0
H706 H 0.51652 0.0701 0.48639 0.0
H707 H 0.51767 0.16041 0.32663 0.0
H708 H 0.43759 0.03538 0.48386 0.0
H709 H 0.51759 0.10143 0.42081 0.0
H710 H 0.43836 0.09056 0.3817 0.0
C711 C 0.45613 0.12553 0.34118 0.0
C712 C 0.47839 0.14574 0.32539 0.0
C713 C 0.50004 0.08678 0.43414 0.0
C714 C 0.47792 0.10617 0.38285 0.0
C715 C 0.4994 0.06879 0.47129 0.0
C716 C 0.47694 0.05019 0.49124 0.0
C717 C 0.47808 0.08612 0.41687 0.0
C718 C 0.45536 0.04951 0.47034 0.0
C719 C 0.45581 0.10579 0.36964 0.0
C720 C 0.50009 0.14521 0.33806 0.0
N721 N 0.45651 0.06729 0.43482 0.0
N722 N 0.49935 0.12583 0.36649 0.0
H723 H 0.31385 0.47614 0.41332 0.0
H724 H 0.45949 0.54743 0.46554 0.0
H725 H 0.36587 0.52135 0.28489 0.0
H726 H 0.41351 0.48105 0.55714 0.0
H727 H 0.423 0.54565 0.42011 0.0
H728 H 0.34832 0.4834 0.48265 0.0
C729 C 0.33242 0.48753 0.39958 0.0
C730 C 0.33693 0.49826 0.34314 0.0
C731 C 0.4208 0.53164 0.45083 0.0
C732 C 0.3761 0.50718 0.42285 0.0
C733 C 0.44158 0.53276 0.47702 0.0
C734 C 0.43932 0.51415 0.51421 0.0
C735 C 0.39759 0.51154 0.46115 0.0
C736 C 0.41583 0.49567 0.52842 0.0
C737 C 0.35199 0.49181 0.43942 0.0
C738 C 0.36138 0.51314 0.32828 0.0
N739 N 0.39566 0.49449 0.50076 0.0
N740 N 0.37996 0.51718 0.3679 0.0
H741 H 0.85566 0.37943 0.25898 0.0
H742 H 0.98521 0.42779 0.43258 0.0
H743 H 0.89631 0.34034 0.25261 0.0
H744 H 0.94444 0.46663 0.44691 0.0
H745 H 0.95722 0.40093 0.34792 0.0
H746 H 0.89157 0.41594 0.31016 0.0
C747 C 0.87228 0.37868 0.26753 0.0
C748 C 0.87291 0.35669 0.25259 0.0
C749 C 0.95458 0.41558 0.36879 0.0
C750 C 0.91393 0.39826 0.31122 0.0
C751 C 0.97062 0.43098 0.41703 0.0
C752 C 0.96679 0.44908 0.44757 0.0
C753 C 0.93432 0.41803 0.35159 0.0
C754 C 0.94788 0.45272 0.42494 0.0
C755 C 0.89274 0.3995 0.29682 0.0
C756 C 0.89486 0.35671 0.26474 0.0
N757 N 0.93197 0.43691 0.37906 0.0
N758 N 0.9144 0.37706 0.29387 0.0
H759 H 0.54593 0.90485 0.12808 0.0
H760 H 0.59174 0.98972 0.4418 0.0
H761 H 0.58066 0.89211 0.28225 0.0
H762 H 0.53489 0.986 0.32046 0.0
H763 H 0.59789 0.96316 0.36748 0.0
H764 H 0.55116 0.94295 0.18372 0.0
C765 C 0.55506 0.91041 0.17319 0.0
C766 C 0.56272 0.89545 0.20123 0.0
C767 C 0.58432 0.96846 0.35673 0.0
C768 C 0.56893 0.93862 0.26422 0.0
C769 C 0.58079 0.98366 0.39908 0.0
C770 C 0.56233 0.9896 0.38797 0.0
C771 C 0.56926 0.95903 0.30288 0.0
C772 C 0.54911 0.98162 0.33122 0.0
C773 C 0.55797 0.93199 0.20481 0.0
C774 C 0.57435 0.90317 0.25959 0.0
N775 N 0.55254 0.96633 0.29105 0.0
N776 N 0.57703 0.92419 0.2893 0.0
H777 H 0.63988 0.4798 0.24234 0.0
H778 H 0.61744 0.55372 0.51971 0.0
H779 H 0.69205 0.55591 0.30715 0.0
H780 H 0.56034 0.48465 0.42836 0.0
H781 H 0.64733 0.55123 0.45509 0.0
H782 H 0.61261 0.47838 0.32114 0.0
C783 C 0.64563 0.49619 0.27328 0.0
C784 C 0.66821 0.51807 0.26783 0.0
C785 C 0.62831 0.53645 0.44983 0.0
C786 C 0.63712 0.51653 0.35847 0.0
C787 C 0.61127 0.53771 0.4872 0.0
C788 C 0.58628 0.51951 0.47903 0.0
C789 C 0.62032 0.51677 0.40434 0.0
C790 C 0.57937 0.49926 0.43584 0.0
C791 C 0.63005 0.49538 0.31822 0.0
C792 C 0.67464 0.5388 0.30903 0.0
N793 N 0.59623 0.49856 0.39979 0.0
N794 N 0.65919 0.53752 0.35259 0.0
H795 H 0.14564 0.71569 0.36341 0.0
H796 H 0.02933 0.57901 0.34706 0.0
H797 H 0.10974 0.6738 0.19313 0.0
H798 H 0.05184 0.63035 0.50742 0.0
H799 H 0.05843 0.61326 0.28931 0.0
H800 H 0.1115 0.68435 0.41733 0.0
C801 C 0.13047 0.69995 0.33745 0.0
C802 C 0.13048 0.69725 0.27387 0.0
C803 C 0.05676 0.61705 0.33697 0.0
C804 C 0.09152 0.66129 0.33499 0.0
C805 C 0.04017 0.59751 0.37 0.0
C806 C 0.03825 0.60172 0.43236 0.0
C807 C 0.07178 0.64088 0.36671 0.0
C808 C 0.05271 0.62615 0.45953 0.0
C809 C 0.11095 0.68215 0.36811 0.0
C810 C 0.11032 0.67663 0.24221 0.0
N811 N 0.06908 0.64471 0.42674 0.0
N812 N 0.09176 0.65926 0.27317 0.0
loop_
_geom_bond_atom_site_label_1
_geom_bond_atom_site_label_2
_geom_bond_distance
_geom_bond_site_symmetry_2
_ccdc_geom_bond_type
H0 C19 0.949 . S
H1 C20 0.950 . S
H2 C22 0.950 . S
H3 C23 0.950 . S
H4 C25 0.950 . S
H5 C28 0.950 . S
H6 C29 0.950 . S
H7 C31 0.951 1_556 S
H8 C32 0.949 . S
H9 C34 0.949 . S
H10 C35 0.954 . S
H11 C37 0.950 . S
H12 C38 0.950 . S
H13 C40 0.950 . S
H14 C43 0.950 . S
H15 C44 0.950 . S
H16 C46 0.951 . S
H17 C47 0.949 . S
C18 C19 1.376 . S
C18 C23 1.386 . S
C18 C24 1.483 . S
C19 H0 0.949 . S
C19 C18 1.376 . S
C19 C20 1.397 . S
C20 H1 0.950 . S
C20 C19 1.397 . S
C20 C21 1.391 . S
C21 C20 1.391 . S
C21 C22 1.405 . S
C22 H2 0.950 . S
C22 C21 1.405 . S
C22 C23 1.367 . S
C23 H3 0.950 . S
C23 C18 1.386 . S
C23 C22 1.367 . S
C24 C18 1.483 . S
C24 C25 1.382 . S
C24 C26 1.403 . S
C25 H4 0.950 . S
C25 C24 1.382 . S
C25 C41 1.411 . S
C26 C24 1.403 . S
C26 C27 1.489 . S
C26 C40 1.411 . S
C27 C26 1.489 . S
C27 C28 1.383 . S
C27 C32 1.382 . S
C28 H5 0.950 . S
C28 C27 1.383 . S
C28 C29 1.395 . S
C29 H6 0.950 . S
C29 C28 1.395 . S
C29 C30 1.288 . S
C30 C29 1.288 . S
C30 C31 1.392 . S
C31 H7 0.951 1_554 S
C31 C30 1.392 . S
C31 C32 1.392 . S
C32 H8 0.949 . S
C32 C27 1.382 . S
C32 C31 1.392 . S
C33 C34 1.376 . S
C33 C38 1.386 . S
C33 C39 1.483 . S
C34 H9 0.949 . S
C34 C33 1.376 . S
C34 C35 1.397 . S
C35 H10 0.954 . S
C35 C34 1.397 . S
C35 C36 1.391 . S
C36 C35 1.391 . S
C36 C37 1.405 . S
C37 H11 0.950 . S
C37 C36 1.405 . S
C37 C38 1.367 . S
C38 H12 0.950 . S
C38 C33 1.386 . S
C38 C37 1.367 . S
C39 C33 1.483 . S
C39 C40 1.382 . S
C39 C41 1.403 . S
C40 H13 0.950 . S
C40 C26 1.411 . S
C40 C39 1.382 . S
C41 C25 1.411 . S
C41 C39 1.403 . S
C41 C42 1.489 . S
C42 C41 1.489 . S
C42 C43 1.383 . S
C42 C47 1.382 . S
C43 H14 0.950 . S
C43 C42 1.383 . S
C43 C44 1.395 . S
C44 H15 0.950 . S
C44 C43 1.395 . S
C44 C45 1.288 . S
C45 C44 1.288 . S
C45 C46 1.392 . S
C46 H16 0.951 . S
C46 C45 1.392 . S
C46 C47 1.392 . S
C47 H17 0.949 . S
C47 C42 1.382 . S
C47 C46 1.392 . S
H48 C67 0.949 . S
H49 C68 0.950 . S
H50 C70 0.950 . S
H51 C71 0.950 . S
H52 C73 0.950 . S
H53 C76 0.950 . S
H54 C77 0.950 . S
H55 C79 0.951 . S
H56 C80 0.949 . S
H57 C82 0.949 . S
H58 C83 0.950 . S
H59 C85 0.950 . S
H60 C86 0.950 . S
H61 C88 0.950 . S
H62 C91 0.950 . S
H63 C92 0.950 . S
H64 C94 0.951 . S
H65 C95 0.949 . S
C66 C67 1.376 . S
C66 C71 1.386 . S
C66 C72 1.483 . S
C67 H48 0.949 . S
C67 C66 1.376 . S
C67 C68 1.397 1_554 S
C68 H49 0.950 . S
C68 C67 1.397 1_556 S
C68 C69 1.391 . S
C69 C68 1.391 . S
C69 C70 1.400 1_556 S
C70 H50 0.950 . S
C70 C69 1.400 1_554 S
C70 C71 1.367 . S
C71 H51 0.950 . S
C71 C66 1.386 . S
C71 C70 1.367 . S
C72 C66 1.483 . S
C72 C73 1.382 . S
C72 C74 1.403 . S
C73 H52 0.950 . S
C73 C72 1.382 . S
C73 C89 1.411 . S
C74 C72 1.403 . S
C74 C75 1.489 . S
C74 C88 1.411 . S
C75 C74 1.489 . S
C75 C76 1.383 . S
C75 C80 1.382 . S
C76 H53 0.950 . S
C76 C75 1.383 . S
C76 C77 1.395 . S
C77 H54 0.950 . S
C77 C76 1.395 . S
C77 C78 1.288 . S
C78 C77 1.288 . S
C78 C79 1.392 . S
C79 H55 0.951 . S
C79 C78 1.392 . S
C79 C80 1.392 . S
C80 H56 0.949 . S
C80 C75 1.382 . S
C80 C79 1.392 . S
C81 C82 1.376 . S
C81 C86 1.386 . S
C81 C87 1.483 . S
C82 H57 0.949 . S
C82 C81 1.376 . S
C82 C83 1.397 . S
C83 H58 0.950 . S
C83 C82 1.397 . S
C83 C84 1.391 . S
C84 C83 1.391 . S
C84 C85 1.405 . S
C85 H59 0.950 . S
C85 C84 1.405 . S
C85 C86 1.367 . S
C86 H60 0.950 . S
C86 C81 1.386 . S
C86 C85 1.367 . S
C87 C81 1.483 . S
C87 C88 1.382 . S
C87 C89 1.403 . S
C88 H61 0.950 . S
C88 C74 1.411 . S
C88 C87 1.382 . S
C89 C73 1.411 . S
C89 C87 1.403 . S
C89 C90 1.489 . S
C90 C89 1.489 . S
C90 C91 1.383 . S
C90 C95 1.382 . S
C91 H62 0.950 . S
C91 C90 1.383 . S
C91 C92 1.395 . S
C92 H63 0.950 . S
C92 C91 1.395 . S
C92 C93 1.288 1_554 S
C93 C92 1.288 1_556 S
C93 C94 1.392 . S
C94 H64 0.951 . S
C94 C93 1.392 . S
C94 C95 1.392 1_556 S
C95 H65 0.949 . S
C95 C90 1.382 . S
C95 C94 1.392 1_554 S
H96 C115 0.949 . S
H97 C116 0.950 . S
H98 C118 0.950 . S
H99 C119 0.950 . S
H100 C121 0.950 . S
H101 C124 0.950 . S
H102 C125 0.950 . S
H103 C127 0.951 . S
H104 C128 0.949 . S
H105 C130 0.949 . S
H106 C131 0.950 . S
H107 C133 0.950 . S
H108 C134 0.950 . S
H109 C136 0.950 . S
H110 C139 0.950 . S
H111 C140 0.950 . S
H112 C142 0.951 . S
H113 C143 0.949 . S
C114 C115 1.376 . S
C114 C119 1.386 . S
C114 C120 1.483 . S
C115 H96 0.949 . S
C115 C114 1.376 . S
C115 C116 1.397 . S
C116 H97 0.950 . S
C116 C115 1.397 . S
C116 C117 1.391 . S
C117 C116 1.391 . S
C117 C118 1.405 . S
C118 H98 0.950 . S
C118 C117 1.405 . S
C118 C119 1.367 . S
C119 H99 0.950 . S
C119 C114 1.386 . S
C119 C118 1.367 . S
C120 C114 1.483 . S
C120 C121 1.382 . S
C120 C122 1.403 1_556 S
C121 H100 0.950 . S
C121 C120 1.382 . S
C121 C137 1.411 . S
C122 C120 1.403 1_554 S
C122 C123 1.489 . S
C122 C136 1.411 . S
C123 C122 1.489 . S
C123 C124 1.383 . S
C123 C128 1.382 . S
C124 H101 0.950 . S
C124 C123 1.383 . S
C124 C125 1.395 . S
C125 H102 0.950 . S
C125 C124 1.395 . S
C125 C126 1.288 . S
C126 C125 1.288 . S
C126 C127 1.392 . S
C127 H103 0.951 . S
C127 C126 1.392 . S
C127 C128 1.392 . S
C128 H104 0.949 . S
C128 C123 1.382 . S
C128 C127 1.392 . S
C129 C130 1.376 . S
C129 C134 1.386 . S
C129 C135 1.483 . S
C130 H105 0.949 . S
C130 C129 1.376 . S
C130 C131 1.397 . S
C131 H106 0.950 . S
C131 C130 1.397 . S
C131 C132 1.391 . S
C132 C131 1.391 . S
C132 C133 1.405 . S
C133 H107 0.950 . S
C133 C132 1.405 . S
C133 C134 1.367 . S
C134 H108 0.950 . S
C134 C129 1.386 . S
C134 C133 1.367 . S
C135 C129 1.483 . S
C135 C136 1.382 . S
C135 C137 1.403 1_554 S
C136 H109 0.950 . S
C136 C122 1.411 . S
C136 C135 1.382 . S
C137 C121 1.411 . S
C137 C135 1.403 1_556 S
C137 C138 1.489 . S
C138 C137 1.489 . S
C138 C139 1.383 . S
C138 C143 1.382 . S
C139 H110 0.950 . S
C139 C138 1.383 . S
C139 C140 1.395 . S
C140 H111 0.950 . S
C140 C139 1.395 . S
C140 C141 1.288 . S
C141 C140 1.288 . S
C141 C142 1.392 . S
C142 H112 0.951 . S
C142 C141 1.392 . S
C142 C143 1.392 . S
C143 H113 0.949 . S
C143 C138 1.382 . S
C143 C142 1.392 . S
H144 C163 0.949 . S
H145 C164 0.950 . S
H146 C166 0.950 . S
H147 C167 0.950 . S
H148 C169 0.950 . S
H149 C172 0.950 1_554 S
H150 C173 0.950 . S
H151 C175 0.951 . S
H152 C176 0.949 . S
H153 C178 0.949 . S
H154 C179 0.950 . S
H155 C181 0.950 . S
H156 C182 0.950 1_554 S
H157 C184 0.950 . S
H158 C187 0.950 . S
H159 C188 0.950 . S
H160 C190 0.951 . S
H161 C191 0.949 . S
C162 C163 1.376 . S
C162 C167 1.386 . S
C162 C168 1.483 . S
C163 H144 0.949 . S
C163 C162 1.376 . S
C163 C164 1.397 . S
C164 H145 0.950 . S
C164 C163 1.397 . S
C164 C165 1.391 . S
C165 C164 1.391 . S
C165 C166 1.405 . S
C166 H146 0.950 . S
C166 C165 1.405 . S
C166 C167 1.367 . S
C167 H147 0.950 . S
C167 C162 1.386 . S
C167 C166 1.367 . S
C168 C162 1.483 . S
C168 C169 1.382 . S
C168 C170 1.403 . S
C169 H148 0.950 . S
C169 C168 1.382 . S
C169 C185 1.411 . S
C170 C168 1.403 . S
C170 C171 1.489 1_554 S
C170 C184 1.411 1_554 S
C171 C170 1.489 1_556 S
C171 C172 1.383 . S
C171 C176 1.382 . S
C172 H149 0.950 1_556 S
C172 C171 1.383 . S
C172 C173 1.395 . S
C173 H150 0.950 . S
C173 C172 1.395 . S
C173 C174 1.288 . S
C174 C173 1.288 . S
C174 C175 1.392 . S
C175 H151 0.951 . S
C175 C174 1.392 . S
C175 C176 1.392 . S
C176 H152 0.949 . S
C176 C171 1.382 . S
C176 C175 1.392 . S
C177 C178 1.376 . S
C177 C182 1.386 . S
C177 C183 1.483 1_556 S
C178 H153 0.949 . S
C178 C177 1.376 . S
C178 C179 1.397 . S
C179 H154 0.950 . S
C179 C178 1.397 . S
C179 C180 1.391 . S
C180 C179 1.391 . S
C180 C181 1.405 . S
C181 H155 0.950 . S
C181 C180 1.405 . S
C181 C182 1.367 . S
C182 H156 0.950 1_556 S
C182 C177 1.386 . S
C182 C181 1.367 . S
C183 C177 1.483 1_554 S
C183 C184 1.382 1_554 S
C183 C185 1.403 . S
C184 H157 0.950 . S
C184 C170 1.411 1_556 S
C184 C183 1.382 1_556 S
C185 C169 1.411 . S
C185 C183 1.403 . S
C185 C186 1.489 . S
C186 C185 1.489 . S
C186 C187 1.383 . S
C186 C191 1.382 . S
C187 H158 0.950 . S
C187 C186 1.383 . S
C187 C188 1.395 . S
C188 H159 0.950 . S
C188 C187 1.395 . S
C188 C189 1.288 . S
C189 C188 1.288 . S
C189 C190 1.392 . S
C190 H160 0.951 . S
C190 C189 1.392 . S
C190 C191 1.392 . S
C191 H161 0.949 . S
C191 C186 1.382 . S
C191 C190 1.392 . S
H192 C211 0.949 . S
H193 C212 0.950 . S
H194 C214 0.950 . S
H195 C215 0.950 . S
H196 C217 0.950 1_556 S
H197 C220 0.950 . S
H198 C221 0.950 . S
H199 C223 0.951 . S
H200 C224 0.949 . S
H201 C226 0.949 . S
H202 C227 0.950 . S
H203 C229 0.950 . S
H204 C230 0.950 . S
H205 C232 0.950 . S
H206 C235 0.950 . S
H207 C236 0.950 . S
H208 C238 0.951 . S
H209 C239 0.949 . S
C210 C211 1.376 1_554 S
C210 C215 1.386 . S
C210 C216 1.483 . S
C211 H192 0.949 . S
C211 C210 1.376 1_556 S
C211 C212 1.397 . S
C212 H193 0.950 . S
C212 C211 1.397 . S
C212 C213 1.391 . S
C213 C212 1.391 . S
C213 C214 1.405 . S
C214 H194 0.950 . S
C214 C213 1.405 . S
C214 C215 1.367 1_556 S
C215 H195 0.950 . S
C215 C210 1.386 . S
C215 C214 1.367 1_554 S
C216 C210 1.483 . S
C216 C217 1.382 . S
C216 C218 1.403 . S
C217 H196 0.950 1_554 S
C217 C216 1.382 . S
C217 C233 1.411 . S
C218 C216 1.403 . S
C218 C219 1.489 . S
C218 C232 1.411 . S
C219 C218 1.489 . S
C219 C220 1.383 . S
C219 C224 1.382 . S
C220 H197 0.950 . S
C220 C219 1.383 . S
C220 C221 1.395 . S
C221 H198 0.950 . S
C221 C220 1.395 . S
C221 C222 1.288 . S
C222 C221 1.288 . S
C222 C223 1.392 . S
C223 H199 0.951 . S
C223 C222 1.392 . S
C223 C224 1.392 . S
C224 H200 0.949 . S
C224 C219 1.382 . S
C224 C223 1.392 . S
C225 C226 1.376 . S
C225 C230 1.386 . S
C225 C231 1.483 . S
C226 H201 0.949 . S
C226 C225 1.376 . S
C226 C227 1.397 . S
C227 H202 0.950 . S
C227 C226 1.397 . S
C227 C228 1.391 . S
C228 C227 1.391 . S
C228 C229 1.405 . S
C229 H203 0.950 . S
C229 C228 1.405 . S
C229 C230 1.367 . S
C230 H204 0.950 . S
C230 C225 1.386 . S
C230 C229 1.367 . S
C231 C225 1.483 . S
C231 C232 1.382 . S
C231 C233 1.403 . S
C232 H205 0.950 . S
C232 C218 1.411 . S
C232 C231 1.382 . S
C233 C217 1.411 . S
C233 C231 1.403 . S
C233 C234 1.489 . S
C234 C233 1.489 . S
C234 C235 1.383 . S
C234 C239 1.382 1_554 S
C235 H206 0.950 . S
C235 C234 1.383 . S
C235 C236 1.395 1_554 S
C236 H207 0.950 . S
C236 C235 1.395 1_556 S
C236 C237 1.288 . S
C237 C236 1.288 . S
C237 C238 1.392 . S
C238 H208 0.951 . S
C238 C237 1.392 . S
C238 C239 1.392 . S
C239 H209 0.949 . S
C239 C234 1.382 1_556 S
C239 C238 1.392 . S
H240 C259 0.949 . S
H241 C260 0.950 . S
H242 C262 0.950 . S
H243 C263 0.950 . S
H244 C265 0.950 . S
H245 C268 0.950 . S
H246 C269 0.950 . S
H247 C271 0.951 . S
H248 C272 0.949 . S
H249 C274 0.949 . S
H250 C275 0.950 . S
H251 C277 0.950 . S
H252 C278 0.950 . S
H253 C280 0.950 . S
H254 C283 0.950 . S
H255 C284 0.950 . S
H256 C286 0.951 . S
H257 C287 0.949 . S
C258 C259 1.376 . S
C258 C263 1.386 . S
C258 C264 1.483 . S
C259 H240 0.949 . S
C259 C258 1.376 . S
C259 C260 1.397 . S
C260 H241 0.950 . S
C260 C259 1.397 . S
C260 C261 1.391 . S
C261 C260 1.391 . S
C261 C262 1.405 . S
C262 H242 0.950 . S
C262 C261 1.405 . S
C262 C263 1.367 . S
C263 H243 0.950 . S
C263 C258 1.386 . S
C263 C262 1.367 . S
C264 C258 1.483 . S
C264 C265 1.382 . S
C264 C266 1.403 . S
C265 H244 0.950 . S
C265 C264 1.382 . S
C265 C281 1.411 . S
C266 C264 1.403 . S
C266 C267 1.489 . S
C266 C280 1.411 . S
C267 C266 1.489 . S
C267 C268 1.383 . S
C267 C272 1.382 . S
C268 H245 0.950 . S
C268 C267 1.383 . S
C268 C269 1.395 . S
C269 H246 0.950 . S
C269 C268 1.395 . S
C269 C270 1.288 . S
C270 C269 1.288 . S
C270 C271 1.392 . S
C271 H247 0.951 . S
C271 C270 1.392 . S
C271 C272 1.392 . S
C272 H248 0.949 . S
C272 C267 1.382 . S
C272 C271 1.392 . S
C273 C274 1.376 . S
C273 C278 1.386 . S
C273 C279 1.483 . S
C274 H249 0.949 . S
C274 C273 1.376 . S
C274 C275 1.397 . S
C275 H250 0.950 . S
C275 C274 1.397 . S
C275 C276 1.391 . S
C276 C275 1.391 . S
C276 C277 1.405 . S
C277 H251 0.950 . S
C277 C276 1.405 . S
C277 C278 1.367 . S
C278 H252 0.950 . S
C278 C273 1.386 . S
C278 C277 1.367 . S
C279 C273 1.483 . S
C279 C280 1.382 . S
C279 C281 1.403 . S
C280 H253 0.950 . S
C280 C266 1.411 . S
C280 C279 1.382 . S
C281 C265 1.411 . S
C281 C279 1.403 . S
C281 C282 1.489 . S
C282 C281 1.489 . S
C282 C283 1.383 . S
C282 C287 1.382 . S
C283 H254 0.950 . S
C283 C282 1.383 . S
C283 C284 1.395 . S
C284 H255 0.950 . S
C284 C283 1.395 . S
C284 C285 1.288 . S
C285 C284 1.288 . S
C285 C286 1.392 . S
C286 H256 0.951 . S
C286 C285 1.392 . S
C286 C287 1.392 . S
C287 H257 0.949 . S
C287 C282 1.382 . S
C287 C286 1.392 . S
C288 O300 1.241 . S
C288 O301 1.280 . S
C289 O302 1.277 . S
C289 O303 1.245 . S
C290 O314 1.247 . S
C290 O316 1.289 . S
Mg291 O292 1.926 . S
Mg291 O301 1.984 . S
Mg291 O303 1.988 1_655 S
Mg291 O304 2.061 . S
O292 Mg291 1.926 . S
O292 Mg293 1.986 1_655 S
O292 Mg294 1.917 1_655 S
Mg293 O292 1.986 1_455 S
Mg293 O300 2.042 1_455 S
Mg293 O302 2.041 . S
Mg293 O308 2.038 1_455 S
Mg293 O316 2.238 . S
Mg294 O292 1.917 1_455 S
Mg294 O295 1.917 . S
Mg294 O305 2.106 1_455 S
Mg294 O307 2.079 1_455 S
Mg294 O316 2.106 . S
Mg294 O317 2.079 . S
O295 Mg294 1.917 . S
O295 Mg296 1.926 . S
O295 Mg297 1.986 . S
Mg296 O295 1.926 . S
Mg296 O310 1.984 . S
Mg296 O313 1.988 1_455 S
Mg296 O314 2.061 . S
Mg297 O295 1.986 . S
Mg297 O305 2.238 1_455 S
Mg297 O309 2.042 . S
Mg297 O311 2.041 1_455 S
Mg297 O318 2.038 . S
C298 O304 1.247 . S
C298 O305 1.289 . S
C299 O317 1.245 . S
C299 O318 1.274 . S
O300 C288 1.241 . S
O300 Mg293 2.042 1_655 S
O301 C288 1.280 . S
O301 Mg291 1.984 . S
O302 C289 1.277 . S
O302 Mg293 2.041 . S
O303 C289 1.245 . S
O303 Mg291 1.988 1_455 S
O304 Mg291 2.061 . S
O304 C298 1.247 . S
O305 Mg294 2.106 1_655 S
O305 Mg297 2.238 1_655 S
O305 C298 1.289 . S
C306 O307 1.245 . S
C306 O308 1.274 . S
O307 Mg294 2.079 1_655 S
O307 C306 1.245 . S
O308 Mg293 2.038 1_655 S
O308 C306 1.274 . S
O309 Mg297 2.042 . S
O309 C312 1.241 . S
O310 Mg296 1.984 . S
O310 C312 1.280 . S
O311 Mg297 2.041 1_655 S
O311 C315 1.277 . S
C312 O309 1.241 . S
C312 O310 1.280 . S
O313 Mg296 1.988 1_655 S
O313 C315 1.245 . S
O314 C290 1.247 . S
O314 Mg296 2.061 . S
C315 O311 1.277 . S
C315 O313 1.245 . S
O316 C290 1.289 . S
O316 Mg293 2.238 . S
O316 Mg294 2.106 . S
O317 Mg294 2.079 . S
O317 C299 1.245 . S
O318 Mg297 2.038 . S
O318 C299 1.274 . S
C319 O331 1.241 . S
C319 O332 1.280 . S
C320 O333 1.277 . S
C320 O334 1.245 . S
C321 O345 1.247 . S
C321 O347 1.289 . S
Mg322 O323 1.926 . S
Mg322 O332 1.984 . S
Mg322 O334 1.988 1_545 S
Mg322 O335 2.061 . S
O323 Mg322 1.926 . S
O323 Mg324 1.986 . S
O323 Mg325 1.917 . S
Mg324 O323 1.986 . S
Mg324 O331 2.042 . S
Mg324 O333 2.041 1_545 S
Mg324 O339 2.038 . S
Mg324 O347 2.238 1_545 S
Mg325 O323 1.917 . S
Mg325 O326 1.917 1_545 S
Mg325 O336 2.106 . S
Mg325 O338 2.079 . S
Mg325 O347 2.106 1_545 S
Mg325 O348 2.079 1_545 S
O326 Mg325 1.917 1_565 S
O326 Mg327 1.926 . S
O326 Mg328 1.986 1_565 S
Mg327 O326 1.926 . S
Mg327 O341 1.984 . S
Mg327 O344 1.988 1_565 S
Mg327 O345 2.061 . S
Mg328 O326 1.986 1_545 S
Mg328 O336 2.238 . S
Mg328 O340 2.042 1_545 S
Mg328 O342 2.041 . S
Mg328 O349 2.038 1_545 S
C329 O335 1.247 . S
C329 O336 1.289 . S
C330 O348 1.245 . S
C330 O349 1.274 . S
O331 C319 1.241 . S
O331 Mg324 2.042 . S
O332 C319 1.280 . S
O332 Mg322 1.984 . S
O333 C320 1.277 . S
O333 Mg324 2.041 1_565 S
O334 C320 1.245 . S
O334 Mg322 1.988 1_565 S
O335 Mg322 2.061 . S
O335 C329 1.247 . S
O336 Mg325 2.106 . S
O336 Mg328 2.238 . S
O336 C329 1.289 . S
C337 O338 1.245 . S
C337 O339 1.274 . S
O338 Mg325 2.079 . S
O338 C337 1.245 . S
O339 Mg324 2.038 . S
O339 C337 1.274 . S
O340 Mg328 2.042 1_565 S
O340 C343 1.241 . S
O341 Mg327 1.984 . S
O341 C343 1.280 . S
O342 Mg328 2.041 . S
O342 C346 1.277 . S
C343 O340 1.241 . S
C343 O341 1.280 . S
O344 Mg327 1.988 1_545 S
O344 C346 1.245 . S
O345 C321 1.247 . S
O345 Mg327 2.061 . S
C346 O342 1.277 . S
C346 O344 1.245 . S
O347 C321 1.289 . S
O347 Mg324 2.238 1_565 S
O347 Mg325 2.106 1_565 S
O348 Mg325 2.079 1_565 S
O348 C330 1.245 . S
O349 Mg328 2.038 1_565 S
O349 C330 1.274 . S
C350 O362 1.241 . S
C350 O363 1.280 . S
C351 O364 1.277 . S
C351 O365 1.245 . S
C352 O376 1.247 . S
C352 O378 1.289 . S
Mg353 O354 1.926 . S
Mg353 O363 1.984 . S
Mg353 O365 1.988 . S
Mg353 O366 2.061 . S
O354 Mg353 1.926 . S
O354 Mg355 1.986 . S
O354 Mg356 1.917 . S
Mg355 O354 1.986 . S
Mg355 O362 2.042 . S
Mg355 O364 2.041 . S
Mg355 O370 2.038 . S
Mg355 O378 2.238 . S
Mg356 O354 1.917 . S
Mg356 O357 1.917 . S
Mg356 O367 2.106 . S
Mg356 O369 2.079 . S
Mg356 O378 2.106 . S
Mg356 O379 2.079 . S
O357 Mg356 1.917 . S
O357 Mg358 1.926 . S
O357 Mg359 1.986 . S
Mg358 O357 1.926 . S
Mg358 O372 1.984 . S
Mg358 O375 1.988 . S
Mg358 O376 2.061 . S
Mg359 O357 1.986 . S
Mg359 O367 2.238 . S
Mg359 O371 2.042 . S
Mg359 O373 2.041 . S
Mg359 O380 2.038 . S
C360 O366 1.247 . S
C360 O367 1.289 . S
C361 O379 1.245 . S
C361 O380 1.274 . S
O362 C350 1.241 . S
O362 Mg355 2.042 . S
O363 C350 1.280 . S
O363 Mg353 1.984 . S
O364 C351 1.277 . S
O364 Mg355 2.041 . S
O365 C351 1.245 . S
O365 Mg353 1.988 . S
O366 Mg353 2.061 . S
O366 C360 1.247 . S
O367 Mg356 2.106 . S
O367 Mg359 2.238 . S
O367 C360 1.289 . S
C368 O369 1.245 . S
C368 O370 1.274 . S
O369 Mg356 2.079 . S
O369 C368 1.245 . S
O370 Mg355 2.038 . S
O370 C368 1.274 . S
O371 Mg359 2.042 . S
O371 C374 1.241 . S
O372 Mg358 1.984 . S
O372 C374 1.280 . S
O373 Mg359 2.041 . S
O373 C377 1.277 . S
C374 O371 1.241 . S
C374 O372 1.280 . S
O375 Mg358 1.988 . S
O375 C377 1.245 . S
O376 C352 1.247 . S
O376 Mg358 2.061 . S
C377 O373 1.277 . S
C377 O375 1.245 . S
O378 C352 1.289 . S
O378 Mg355 2.238 . S
O378 Mg356 2.106 . S
O379 Mg356 2.079 . S
O379 C361 1.245 . S
O380 Mg359 2.038 . S
O380 C361 1.274 . S
H381 C387 0.930 . S
H382 C391 0.930 . S
H383 C396 0.929 . S
H384 C394 0.929 . S
H385 C389 0.929 . S
H386 C395 0.929 . S
C387 H381 0.930 . S
C387 C388 1.367 . S
C387 C395 1.378 . S
C388 C387 1.367 . S
C388 C396 1.433 . S
C389 H385 0.929 . S
C389 C391 1.378 . S
C389 C393 1.350 . S
C390 C393 1.463 . S
C390 C395 1.350 . S
C390 N398 1.427 . S
C391 H382 0.930 . S
C391 C389 1.378 . S
C391 C392 1.367 . S
C392 C391 1.367 . S
C392 C394 1.433 . S
C393 C389 1.350 . S
C393 C390 1.463 . S
C393 N397 1.427 . S
C394 H384 0.929 . S
C394 C392 1.433 . S
C394 N397 1.384 . S
C395 H386 0.929 . S
C395 C387 1.378 . S
C395 C390 1.350 . S
C396 H383 0.929 . S
C396 C388 1.433 . S
C396 N398 1.384 . S
N397 C393 1.427 . S
N397 C394 1.384 . S
N398 C390 1.427 . S
N398 C396 1.384 . S
H399 C405 0.930 . S
H400 C409 0.930 . S
H401 C414 0.929 . S
H402 C412 0.929 . S
H403 C407 0.929 . S
H404 C413 0.929 . S
C405 H399 0.930 . S
C405 C406 1.367 . S
C405 C413 1.378 . S
C406 C405 1.367 . S
C406 C414 1.433 . S
C407 H403 0.929 . S
C407 C409 1.378 . S
C407 C411 1.350 . S
C408 C411 1.463 . S
C408 C413 1.350 . S
C408 N416 1.427 . S
C409 H400 0.930 . S
C409 C407 1.378 . S
C409 C410 1.367 . S
C410 C409 1.367 . S
C410 C412 1.433 . S
C411 C407 1.350 . S
C411 C408 1.463 . S
C411 N415 1.427 . S
C412 H402 0.929 . S
C412 C410 1.433 . S
C412 N415 1.384 . S
C413 H404 0.929 . S
C413 C405 1.378 . S
C413 C408 1.350 . S
C414 H401 0.929 . S
C414 C406 1.433 . S
C414 N416 1.384 . S
N415 C411 1.427 . S
N415 C412 1.384 . S
N416 C408 1.427 . S
N416 C414 1.384 . S
H417 C423 0.930 . S
H418 C427 0.930 . S
H419 C432 0.929 . S
H420 C430 0.929 . S
H421 C425 0.929 . S
H422 C431 0.929 . S
C423 H417 0.930 . S
C423 C424 1.367 . S
C423 C431 1.378 . S
C424 C423 1.367 . S
C424 C432 1.433 . S
C425 H421 0.929 . S
C425 C427 1.378 . S
C425 C429 1.350 . S
C426 C429 1.463 . S
C426 C431 1.350 . S
C426 N434 1.427 . S
C427 H418 0.930 . S
C427 C425 1.378 . S
C427 C428 1.367 . S
C428 C427 1.367 . S
C428 C430 1.433 . S
C429 C425 1.350 . S
C429 C426 1.463 . S
C429 N433 1.427 . S
C430 H420 0.929 . S
C430 C428 1.433 . S
C430 N433 1.384 . S
C431 H422 0.929 . S
C431 C423 1.378 . S
C431 C426 1.350 . S
C432 H419 0.929 . S
C432 C424 1.433 . S
C432 N434 1.384 . S
N433 C429 1.427 . S
N433 C430 1.384 . S
N434 C426 1.427 . S
N434 C432 1.384 . S
H435 C441 0.930 . S
H436 C445 0.930 . S
H437 C450 0.929 . S
H438 C448 0.929 . S
H439 C443 0.929 . S
H440 C449 0.929 . S
C441 H435 0.930 . S
C441 C442 1.367 . S
C441 C449 1.378 . S
C442 C441 1.367 . S
C442 C450 1.433 . S
C443 H439 0.929 . S
C443 C445 1.378 . S
C443 C447 1.350 . S
C444 C447 1.463 . S
C444 C449 1.350 . S
C444 N452 1.427 . S
C445 H436 0.930 . S
C445 C443 1.378 . S
C445 C446 1.367 . S
C446 C445 1.367 . S
C446 C448 1.433 . S
C447 C443 1.350 . S
C447 C444 1.463 . S
C447 N451 1.427 . S
C448 H438 0.929 . S
C448 C446 1.433 . S
C448 N451 1.384 . S
C449 H440 0.929 . S
C449 C441 1.378 . S
C449 C444 1.350 . S
C450 H437 0.929 . S
C450 C442 1.433 . S
C450 N452 1.384 . S
N451 C447 1.427 . S
N451 C448 1.384 . S
N452 C444 1.427 . S
N452 C450 1.384 . S
H453 C459 0.930 . S
H454 C463 0.930 . S
H455 C468 0.929 . S
H456 C466 0.929 . S
H457 C461 0.929 . S
H458 C467 0.929 . S
C459 H453 0.930 . S
C459 C460 1.367 . S
C459 C467 1.378 . S
C460 C459 1.367 . S
C460 C468 1.433 . S
C461 H457 0.929 . S
C461 C463 1.378 . S
C461 C465 1.350 . S
C462 C465 1.463 . S
C462 C467 1.350 . S
C462 N470 1.427 . S
C463 H454 0.930 . S
C463 C461 1.378 . S
C463 C464 1.367 . S
C464 C463 1.367 . S
C464 C466 1.433 . S
C465 C461 1.350 . S
C465 C462 1.463 . S
C465 N469 1.427 . S
C466 H456 0.929 . S
C466 C464 1.433 . S
C466 N469 1.384 . S
C467 H458 0.929 . S
C467 C459 1.378 . S
C467 C462 1.350 . S
C468 H455 0.929 . S
C468 C460 1.433 . S
C468 N470 1.384 . S
N469 C465 1.427 . S
N469 C466 1.384 . S
N470 C462 1.427 . S
N470 C468 1.384 . S
H471 C477 0.930 . S
H472 C481 0.930 . S
H473 C486 0.929 . S
H474 C484 0.929 . S
H475 C479 0.929 . S
H476 C485 0.929 . S
C477 H471 0.930 . S
C477 C478 1.367 . S
C477 C485 1.378 . S
C478 C477 1.367 . S
C478 C486 1.433 . S
C479 H475 0.929 . S
C479 C481 1.378 . S
C479 C483 1.350 . S
C480 C483 1.463 . S
C480 C485 1.350 . S
C480 N488 1.427 . S
C481 H472 0.930 . S
C481 C479 1.378 . S
C481 C482 1.367 . S
C482 C481 1.367 . S
C482 C484 1.433 . S
C483 C479 1.350 . S
C483 C480 1.463 . S
C483 N487 1.427 . S
C484 H474 0.929 . S
C484 C482 1.433 . S
C484 N487 1.384 . S
C485 H476 0.929 . S
C485 C477 1.378 . S
C485 C480 1.350 . S
C486 H473 0.929 . S
C486 C478 1.433 . S
C486 N488 1.384 . S
N487 C483 1.427 . S
N487 C484 1.384 . S
N488 C480 1.427 . S
N488 C486 1.384 . S
H489 C495 0.930 . S
H490 C499 0.930 . S
H491 C504 0.929 . S
H492 C502 0.929 . S
H493 C497 0.929 . S
H494 C503 0.929 . S
C495 H489 0.930 . S
C495 C496 1.367 . S
C495 C503 1.378 . S
C496 C495 1.367 . S
C496 C504 1.433 . S
C497 H493 0.929 . S
C497 C499 1.378 . S
C497 C501 1.350 . S
C498 C501 1.463 . S
C498 C503 1.350 . S
C498 N506 1.427 . S
C499 H490 0.930 . S
C499 C497 1.378 . S
C499 C500 1.367 . S
C500 C499 1.367 . S
C500 C502 1.433 . S
C501 C497 1.350 . S
C501 C498 1.463 . S
C501 N505 1.427 . S
C502 H492 0.929 . S
C502 C500 1.433 . S
C502 N505 1.384 . S
C503 H494 0.929 . S
C503 C495 1.378 . S
C503 C498 1.350 . S
C504 H491 0.929 . S
C504 C496 1.433 . S
C504 N506 1.384 . S
N505 C501 1.427 . S
N505 C502 1.384 . S
N506 C498 1.427 . S
N506 C504 1.384 . S
H507 C513 0.930 . S
H508 C517 0.930 . S
H509 C522 0.929 . S
H510 C520 0.929 . S
H511 C515 0.929 . S
H512 C521 0.929 . S
C513 H507 0.930 . S
C513 C514 1.367 . S
C513 C521 1.378 . S
C514 C513 1.367 . S
C514 C522 1.433 . S
C515 H511 0.929 . S
C515 C517 1.378 . S
C515 C519 1.350 . S
C516 C519 1.463 . S
C516 C521 1.350 . S
C516 N524 1.427 . S
C517 H508 0.930 . S
C517 C515 1.378 . S
C517 C518 1.367 . S
C518 C517 1.367 . S
C518 C520 1.433 . S
C519 C515 1.350 . S
C519 C516 1.463 . S
C519 N523 1.427 . S
C520 H510 0.929 . S
C520 C518 1.433 . S
C520 N523 1.384 . S
C521 H512 0.929 . S
C521 C513 1.378 . S
C521 C516 1.350 . S
C522 H509 0.929 . S
C522 C514 1.433 . S
C522 N524 1.384 . S
N523 C519 1.427 . S
N523 C520 1.384 . S
N524 C516 1.427 . S
N524 C522 1.384 . S
H525 C531 0.930 . S
H526 C535 0.930 . S
H527 C540 0.929 . S
H528 C538 0.929 . S
H529 C533 0.929 . S
H530 C539 0.929 . S
C531 H525 0.930 . S
C531 C532 1.367 . S
C531 C539 1.378 . S
C532 C531 1.367 . S
C532 C540 1.433 . S
C533 H529 0.929 . S
C533 C535 1.378 . S
C533 C537 1.350 . S
C534 C537 1.463 . S
C534 C539 1.350 . S
C534 N542 1.427 . S
C535 H526 0.930 . S
C535 C533 1.378 . S
C535 C536 1.367 . S
C536 C535 1.367 . S
C536 C538 1.433 . S
C537 C533 1.350 . S
C537 C534 1.463 . S
C537 N541 1.427 . S
C538 H528 0.929 . S
C538 C536 1.433 . S
C538 N541 1.384 . S
C539 H530 0.929 . S
C539 C531 1.378 . S
C539 C534 1.350 . S
C540 H527 0.929 . S
C540 C532 1.433 . S
C540 N542 1.384 . S
N541 C537 1.427 . S
N541 C538 1.384 . S
N542 C534 1.427 . S
N542 C540 1.384 . S
H543 C549 0.930 . S
H544 C553 0.930 . S
H545 C558 0.929 . S
H546 C556 0.929 . S
H547 C551 0.929 . S
H548 C557 0.929 . S
C549 H543 0.930 . S
C549 C550 1.367 . S
C549 C557 1.378 . S
C550 C549 1.367 . S
C550 C558 1.433 1_554 S
C551 H547 0.929 . S
C551 C553 1.378 . S
C551 C555 1.350 . S
C552 C555 1.463 . S
C552 C557 1.350 1_556 S
C552 N560 1.427 . S
C553 H544 0.930 . S
C553 C551 1.378 . S
C553 C554 1.367 . S
C554 C553 1.367 . S
C554 C556 1.433 . S
C555 C551 1.350 . S
C555 C552 1.463 . S
C555 N559 1.427 . S
C556 H546 0.929 . S
C556 C554 1.433 . S
C556 N559 1.384 . S
C557 H548 0.929 . S
C557 C549 1.378 . S
C557 C552 1.350 1_554 S
C558 H545 0.929 . S
C558 C550 1.433 1_556 S
C558 N560 1.384 . S
N559 C555 1.427 . S
N559 C556 1.384 . S
N560 C552 1.427 . S
N560 C558 1.384 . S
H561 C567 0.930 . S
H562 C571 0.930 . S
H563 C576 0.929 1_554 S
H564 C574 0.929 . S
H565 C569 0.929 . S
H566 C575 0.929 . S
C567 H561 0.930 . S
C567 C568 1.367 . S
C567 C575 1.378 . S
C568 C567 1.367 . S
C568 C576 1.433 . S
C569 H565 0.929 . S
C569 C571 1.378 . S
C569 C573 1.350 . S
C570 C573 1.463 . S
C570 C575 1.350 . S
C570 N578 1.427 . S
C571 H562 0.930 . S
C571 C569 1.378 . S
C571 C572 1.367 . S
C572 C571 1.367 . S
C572 C574 1.433 . S
C573 C569 1.350 . S
C573 C570 1.463 . S
C573 N577 1.427 . S
C574 H564 0.929 . S
C574 C572 1.433 . S
C574 N577 1.384 . S
C575 H566 0.929 . S
C575 C567 1.378 . S
C575 C570 1.350 . S
C576 H563 0.929 1_556 S
C576 C568 1.433 . S
C576 N578 1.384 . S
N577 C573 1.427 . S
N577 C574 1.384 . S
N578 C570 1.427 . S
N578 C576 1.384 . S
H579 C585 0.930 . S
H580 C589 0.930 . S
H581 C594 0.929 . S
H582 C592 0.929 . S
H583 C587 0.929 . S
H584 C593 0.929 . S
C585 H579 0.930 . S
C585 C586 1.367 . S
C585 C593 1.378 . S
C586 C585 1.367 . S
C586 C594 1.433 . S
C587 H583 0.929 . S
C587 C589 1.378 . S
C587 C591 1.350 . S
C588 C591 1.463 . S
C588 C593 1.350 . S
C588 N596 1.427 . S
C589 H580 0.930 . S
C589 C587 1.378 . S
C589 C590 1.367 . S
C590 C589 1.367 . S
C590 C592 1.433 . S
C591 C587 1.350 . S
C591 C588 1.463 . S
C591 N595 1.427 . S
C592 H582 0.929 . S
C592 C590 1.433 . S
C592 N595 1.384 . S
C593 H584 0.929 . S
C593 C585 1.378 . S
C593 C588 1.350 . S
C594 H581 0.929 . S
C594 C586 1.433 . S
C594 N596 1.384 . S
N595 C591 1.427 . S
N595 C592 1.384 . S
N596 C588 1.427 . S
N596 C594 1.384 . S
H597 C603 0.930 . S
H598 C607 0.930 . S
H599 C612 0.929 . S
H600 C610 0.929 . S
H601 C605 0.929 . S
H602 C611 0.929 . S
C603 H597 0.930 . S
C603 C604 1.367 . S
C603 C611 1.378 . S
C604 C603 1.367 . S
C604 C612 1.433 . S
C605 H601 0.929 . S
C605 C607 1.378 . S
C605 C609 1.350 . S
C606 C609 1.463 . S
C606 C611 1.350 . S
C606 N614 1.427 . S
C607 H598 0.930 . S
C607 C605 1.378 . S
C607 C608 1.367 . S
C608 C607 1.367 . S
C608 C610 1.433 . S
C609 C605 1.350 . S
C609 C606 1.463 . S
C609 N613 1.427 . S
C610 H600 0.929 . S
C610 C608 1.433 . S
C610 N613 1.384 . S
C611 H602 0.929 . S
C611 C603 1.378 . S
C611 C606 1.350 . S
C612 H599 0.929 . S
C612 C604 1.433 . S
C612 N614 1.384 . S
N613 C609 1.427 . S
N613 C610 1.384 . S
N614 C606 1.427 . S
N614 C612 1.384 . S
H615 C621 0.930 . S
H616 C625 0.930 . S
H617 C630 0.929 . S
H618 C628 0.929 . S
H619 C623 0.929 . S
H620 C629 0.929 . S
C621 H615 0.930 . S
C621 C622 1.367 . S
C621 C629 1.378 . S
C622 C621 1.367 . S
C622 C630 1.433 . S
C623 H619 0.929 . S
C623 C625 1.378 . S
C623 C627 1.350 . S
C624 C627 1.463 . S
C624 C629 1.350 . S
C624 N632 1.427 . S
C625 H616 0.930 . S
C625 C623 1.378 . S
C625 C626 1.367 . S
C626 C625 1.367 . S
C626 C628 1.433 . S
C627 C623 1.350 . S
C627 C624 1.463 . S
C627 N631 1.427 . S
C628 H618 0.929 . S
C628 C626 1.433 . S
C628 N631 1.384 . S
C629 H620 0.929 . S
C629 C621 1.378 . S
C629 C624 1.350 . S
C630 H617 0.929 . S
C630 C622 1.433 . S
C630 N632 1.384 . S
N631 C627 1.427 . S
N631 C628 1.384 . S
N632 C624 1.427 . S
N632 C630 1.384 . S
H633 C639 0.930 . S
H634 C643 0.930 . S
H635 C648 0.929 . S
H636 C646 0.929 . S
H637 C641 0.929 . S
H638 C647 0.929 . S
C639 H633 0.930 . S
C639 C640 1.367 . S
C639 C647 1.378 . S
C640 C639 1.367 . S
C640 C648 1.433 1_554 S
C641 H637 0.929 . S
C641 C643 1.378 . S
C641 C645 1.350 . S
C642 C645 1.463 . S
C642 C647 1.350 1_556 S
C642 N650 1.427 . S
C643 H634 0.930 . S
C643 C641 1.378 . S
C643 C644 1.367 . S
C644 C643 1.367 . S
C644 C646 1.433 . S
C645 C641 1.350 . S
C645 C642 1.463 . S
C645 N649 1.427 . S
C646 H636 0.929 . S
C646 C644 1.433 . S
C646 N649 1.384 . S
C647 H638 0.929 . S
C647 C639 1.378 . S
C647 C642 1.350 1_554 S
C648 H635 0.929 . S
C648 C640 1.433 1_556 S
C648 N650 1.384 . S
N649 C645 1.427 . S
N649 C646 1.384 . S
N650 C642 1.427 . S
N650 C648 1.384 . S
H651 C657 0.930 . S
H652 C661 0.930 . S
H653 C666 0.929 . S
H654 C664 0.929 . S
H655 C659 0.929 . S
H656 C665 0.929 . S
C657 H651 0.930 . S
C657 C658 1.367 . S
C657 C665 1.378 . S
C658 C657 1.367 . S
C658 C666 1.433 . S
C659 H655 0.929 . S
C659 C661 1.378 . S
C659 C663 1.350 . S
C660 C663 1.463 . S
C660 C665 1.350 . S
C660 N668 1.427 . S
C661 H652 0.930 . S
C661 C659 1.378 . S
C661 C662 1.367 . S
C662 C661 1.367 . S
C662 C664 1.433 . S
C663 C659 1.350 . S
C663 C660 1.463 . S
C663 N667 1.427 . S
C664 H654 0.929 . S
C664 C662 1.433 . S
C664 N667 1.384 . S
C665 H656 0.929 . S
C665 C657 1.378 . S
C665 C660 1.350 . S
C666 H653 0.929 . S
C666 C658 1.433 . S
C666 N668 1.384 . S
N667 C663 1.427 . S
N667 C664 1.384 . S
N668 C660 1.427 . S
N668 C666 1.384 . S
H669 C675 0.930 . S
H670 C679 0.930 . S
H671 C684 0.929 . S
H672 C682 0.929 . S
H673 C677 0.929 . S
H674 C683 0.929 . S
C675 H669 0.930 . S
C675 C676 1.367 . S
C675 C683 1.378 . S
C676 C675 1.367 . S
C676 C684 1.433 . S
C677 H673 0.929 . S
C677 C679 1.378 . S
C677 C681 1.350 . S
C678 C681 1.463 . S
C678 C683 1.350 . S
C678 N686 1.427 . S
C679 H670 0.930 . S
C679 C677 1.378 . S
C679 C680 1.367 . S
C680 C679 1.367 . S
C680 C682 1.433 . S
C681 C677 1.350 . S
C681 C678 1.463 . S
C681 N685 1.427 . S
C682 H672 0.929 . S
C682 C680 1.433 . S
C682 N685 1.384 . S
C683 H674 0.929 . S
C683 C675 1.378 . S
C683 C678 1.350 . S
C684 H671 0.929 . S
C684 C676 1.433 . S
C684 N686 1.384 . S
N685 C681 1.427 . S
N685 C682 1.384 . S
N686 C678 1.427 . S
N686 C684 1.384 . S
H687 C693 0.930 . S
H688 C697 0.930 . S
H689 C702 0.929 . S
H690 C700 0.929 . S
H691 C695 0.929 . S
H692 C701 0.929 . S
C693 H687 0.930 . S
C693 C694 1.367 . S
C693 C701 1.378 . S
C694 C693 1.367 . S
C694 C702 1.433 . S
C695 H691 0.929 . S
C695 C697 1.378 . S
C695 C699 1.350 . S
C696 C699 1.463 . S
C696 C701 1.350 . S
C696 N704 1.427 . S
C697 H688 0.930 . S
C697 C695 1.378 . S
C697 C698 1.367 . S
C698 C697 1.367 . S
C698 C700 1.433 . S
C699 C695 1.350 . S
C699 C696 1.463 . S
C699 N703 1.427 . S
C700 H690 0.929 . S
C700 C698 1.433 . S
C700 N703 1.384 . S
C701 H692 0.929 . S
C701 C693 1.378 . S
C701 C696 1.350 . S
C702 H689 0.929 . S
C702 C694 1.433 . S
C702 N704 1.384 . S
N703 C699 1.427 . S
N703 C700 1.384 . S
N704 C696 1.427 . S
N704 C702 1.384 . S
H705 C711 0.930 . S
H706 C715 0.930 . S
H707 C720 0.929 . S
H708 C718 0.929 . S
H709 C713 0.929 . S
H710 C719 0.929 . S
C711 H705 0.930 . S
C711 C712 1.367 . S
C711 C719 1.378 . S
C712 C711 1.367 . S
C712 C720 1.433 . S
C713 H709 0.929 . S
C713 C715 1.378 . S
C713 C717 1.350 . S
C714 C717 1.463 . S
C714 C719 1.350 . S
C714 N722 1.427 . S
C715 H706 0.930 . S
C715 C713 1.378 . S
C715 C716 1.367 . S
C716 C715 1.367 . S
C716 C718 1.433 . S
C717 C713 1.350 . S
C717 C714 1.463 . S
C717 N721 1.427 . S
C718 H708 0.929 . S
C718 C716 1.433 . S
C718 N721 1.384 . S
C719 H710 0.929 . S
C719 C711 1.378 . S
C719 C714 1.350 . S
C720 H707 0.929 . S
C720 C712 1.433 . S
C720 N722 1.384 . S
N721 C717 1.427 . S
N721 C718 1.384 . S
N722 C714 1.427 . S
N722 C720 1.384 . S
H723 C729 0.930 . S
H724 C733 0.930 . S
H725 C738 0.929 . S
H726 C736 0.929 . S
H727 C731 0.929 . S
H728 C737 0.929 . S
C729 H723 0.930 . S
C729 C730 1.367 . S
C729 C737 1.378 . S
C730 C729 1.367 . S
C730 C738 1.433 . S
C731 H727 0.929 . S
C731 C733 1.378 . S
C731 C735 1.350 . S
C732 C735 1.463 . S
C732 C737 1.350 . S
C732 N740 1.427 . S
C733 H724 0.930 . S
C733 C731 1.378 . S
C733 C734 1.367 . S
C734 C733 1.367 . S
C734 C736 1.433 . S
C735 C731 1.350 . S
C735 C732 1.463 . S
C735 N739 1.427 . S
C736 H726 0.929 . S
C736 C734 1.433 . S
C736 N739 1.384 . S
C737 H728 0.929 . S
C737 C729 1.378 . S
C737 C732 1.350 . S
C738 H725 0.929 . S
C738 C730 1.433 . S
C738 N740 1.384 . S
N739 C735 1.427 . S
N739 C736 1.384 . S
N740 C732 1.427 . S
N740 C738 1.384 . S
H741 C747 0.930 . S
H742 C751 0.930 . S
H743 C756 0.929 . S
H744 C754 0.929 . S
H745 C749 0.929 . S
H746 C755 0.929 . S
C747 H741 0.930 . S
C747 C748 1.367 . S
C747 C755 1.378 . S
C748 C747 1.367 . S
C748 C756 1.433 . S
C749 H745 0.929 . S
C749 C751 1.378 . S
C749 C753 1.350 . S
C750 C753 1.463 . S
C750 C755 1.350 . S
C750 N758 1.427 . S
C751 H742 0.930 . S
C751 C749 1.378 . S
C751 C752 1.367 . S
C752 C751 1.367 . S
C752 C754 1.433 . S
C753 C749 1.350 . S
C753 C750 1.463 . S
C753 N757 1.427 . S
C754 H744 0.929 . S
C754 C752 1.433 . S
C754 N757 1.384 . S
C755 H746 0.929 . S
C755 C747 1.378 . S
C755 C750 1.350 . S
C756 H743 0.929 . S
C756 C748 1.433 . S
C756 N758 1.384 . S
N757 C753 1.427 . S
N757 C754 1.384 . S
N758 C750 1.427 . S
N758 C756 1.384 . S
H759 C765 0.930 . S
H760 C769 0.930 . S
H761 C774 0.929 . S
H762 C772 0.929 . S
H763 C767 0.929 . S
H764 C773 0.929 . S
C765 H759 0.930 . S
C765 C766 1.367 . S
C765 C773 1.378 . S
C766 C765 1.367 . S
C766 C774 1.433 . S
C767 H763 0.929 . S
C767 C769 1.378 . S
C767 C771 1.350 . S
C768 C771 1.463 . S
C768 C773 1.350 . S
C768 N776 1.427 . S
C769 H760 0.930 . S
C769 C767 1.378 . S
C769 C770 1.367 . S
C770 C769 1.367 . S
C770 C772 1.433 . S
C771 C767 1.350 . S
C771 C768 1.463 . S
C771 N775 1.427 . S
C772 H762 0.929 . S
C772 C770 1.433 . S
C772 N775 1.384 . S
C773 H764 0.929 . S
C773 C765 1.378 . S
C773 C768 1.350 . S
C774 H761 0.929 . S
C774 C766 1.433 . S
C774 N776 1.384 . S
N775 C771 1.427 . S
N775 C772 1.384 . S
N776 C768 1.427 . S
N776 C774 1.384 . S
H777 C783 0.930 . S
H778 C787 0.930 . S
H779 C792 0.929 . S
H780 C790 0.929 . S
H781 C785 0.929 . S
H782 C791 0.929 . S
C783 H777 0.930 . S
C783 C784 1.367 . S
C783 C791 1.378 . S
C784 C783 1.367 . S
C784 C792 1.433 . S
C785 H781 0.929 . S
C785 C787 1.378 . S
C785 C789 1.350 . S
C786 C789 1.463 . S
C786 C791 1.350 . S
C786 N794 1.427 . S
C787 H778 0.930 . S
C787 C785 1.378 . S
C787 C788 1.367 . S
C788 C787 1.367 . S
C788 C790 1.433 . S
C789 C785 1.350 . S
C789 C786 1.463 . S
C789 N793 1.427 . S
C790 H780 0.929 . S
C790 C788 1.433 . S
C790 N793 1.384 . S
C791 H782 0.929 . S
C791 C783 1.378 . S
C791 C786 1.350 . S
C792 H779 0.929 . S
C792 C784 1.433 . S
C792 N794 1.384 . S
N793 C789 1.427 . S
N793 C790 1.384 . S
N794 C786 1.427 . S
N794 C792 1.384 . S
H795 C801 0.930 . S
H796 C805 0.930 . S
H797 C810 0.929 . S
H798 C808 0.929 . S
H799 C803 0.929 . S
H800 C809 0.929 . S
C801 H795 0.930 . S
C801 C802 1.367 . S
C801 C809 1.378 . S
C802 C801 1.367 . S
C802 C810 1.433 . S
C803 H799 0.929 . S
C803 C805 1.378 . S
C803 C807 1.350 . S
C804 C807 1.463 . S
C804 C809 1.350 . S
C804 N812 1.427 . S
C805 H796 0.930 . S
C805 C803 1.378 . S
C805 C806 1.367 . S
C806 C805 1.367 . S
C806 C808 1.433 . S
C807 C803 1.350 . S
C807 C804 1.463 . S
C807 N811 1.427 . S
C808 H798 0.929 . S
C808 C806 1.433 . S
C808 N811 1.384 . S
C809 H800 0.929 . S
C809 C801 1.378 . S
C809 C804 1.350 . S
C810 H797 0.929 . S
C810 C802 1.433 . S
C810 N812 1.384 . S
N811 C807 1.427 . S
N811 C808 1.384 . S
N812 C804 1.427 . S
N812 C810 1.384 . S
C388 C45 1.916 . S
C392 C299 1.834 . S
C406 C84 1.670 . S
C410 C346 1.629 . S
C428 C350 1.825 . S
C424 C126 1.866 . S
C446 C315 1.550 . S
C442 C165 1.586 . S
C460 C222 1.778 . S
C464 C330 1.736 . S
C482 C352 1.032 . S
C478 C276 1.076 . S
C500 C321 1.445 . S
C496 C141 1.519 . S
C514 C180 1.466 . S
C518 C361 1.426 . S
C536 C290 1.342 . S
C532 C237 1.416 . S
C550 C261 1.507 . S
C554 C319 1.463 . S
C568 C30 1.950 1_556 S
C572 C377 1.919 . S
C590 C288 1.554 . S
C586 C69 1.597 . S
C608 C306 1.827 . S
C604 C174 1.915 . S
C626 C320 1.634 . S
C622 C213 1.669 . S
C644 C374 1.828 . S
C640 C285 1.868 . S
C662 C289 1.542 . S
C658 C36 1.579 1_556 S
C680 C337 1.748 . S
C676 C93 1.784 . S
C694 C117 1.083 . S
C698 C360 1.043 . S
C716 C329 1.448 . S
C712 C270 1.519 . S
C734 C368 1.421 . S
C730 C21 1.474 . S
C752 C298 1.339 . S
C748 C78 1.414 . S
C770 C343 1.463 . S
C766 C132 1.506 . S
C784 C189 1.945 . S
C788 C351 1.918 . S
C802 C228 1.591 . S
C806 C312 1.549 . S
