# Generated by pormake.
# Topology cml, (3,6)-cn, num edge types: 1
# Building blocks:
#     Node 0, Type 0, BuildingBlock: ESEHIV_clean_linker_0, # of connection points: 3
#     Node 1, Type 0, BuildingBlock: ESEHIV_clean_linker_0, # of connection points: 3
#     Node 2, Type 0, BuildingBlock: ESEHIV_clean_linker_0, # of connection points: 3
#     Node 3, Type 0, BuildingBlock: ESEHIV_clean_linker_0, # of connection points: 3
#     Node 4, Type 0, BuildingBlock: ESEHIV_clean_linker_0, # of connection points: 3
#     Node 5, Type 0, BuildingBlock: ESEHIV_clean_linker_0, # of connection points: 3
#     Node 6, Type 0, BuildingBlock: ESEHIV_clean_linker_0, # of connection points: 3
#     Node 7, Type 0, BuildingBlock: ESEHIV_clean_linker_0, # of connection points: 3
#     Node 8, Type 1, BuildingBlock: IZENUY_clean_sbu_0, # of connection points: 6
#     Node 9, Type 1, BuildingBlock: IZENUY_clean_sbu_0, # of connection points: 6
#     Node 10, Type 1, BuildingBlock: IZENUY_clean_sbu_0, # of connection points: 6
#     Node 11, Type 1, BuildingBlock: IZENUY_clean_sbu_0, # of connection points: 6
#     Edge 12, Type (0, 1), BuildingBlock: MIFKUJ_clean_linker_0, # of connection points: 2
#     Edge 13, Type (0, 1), BuildingBlock: MIFKUJ_clean_linker_0, # of connection points: 2
#     Edge 14, Type (0, 1), BuildingBlock: MIFKUJ_clean_linker_0, # of connection points: 2
#     Edge 15, Type (0, 1), BuildingBlock: MIFKUJ_clean_linker_0, # of connection points: 2
#     Edge 16, Type (0, 1), BuildingBlock: MIFKUJ_clean_linker_0, # of connection points: 2
#     Edge 17, Type (0, 1), BuildingBlock: MIFKUJ_clean_linker_0, # of connection points: 2
#     Edge 18, Type (0, 1), BuildingBlock: MIFKUJ_clean_linker_0, # of connection points: 2
#     Edge 19, Type (0, 1), BuildingBlock: MIFKUJ_clean_linker_0, # of connection points: 2
#     Edge 20, Type (0, 1), BuildingBlock: MIFKUJ_clean_linker_0, # of connection points: 2
#     Edge 21, Type (0, 1), BuildingBlock: MIFKUJ_clean_linker_0, # of connection points: 2
#     Edge 22, Type (0, 1), BuildingBlock: MIFKUJ_clean_linker_0, # of connection points: 2
#     Edge 23, Type (0, 1), BuildingBlock: MIFKUJ_clean_linker_0, # of connection points: 2
#     Edge 24, Type (0, 1), BuildingBlock: MIFKUJ_clean_linker_0, # of connection points: 2
#     Edge 25, Type (0, 1), BuildingBlock: MIFKUJ_clean_linker_0, # of connection points: 2
#     Edge 26, Type (0, 1), BuildingBlock: MIFKUJ_clean_linker_0, # of connection points: 2
#     Edge 27, Type (0, 1), BuildingBlock: MIFKUJ_clean_linker_0, # of connection points: 2
#     Edge 28, Type (0, 1), BuildingBlock: MIFKUJ_clean_linker_0, # of connection points: 2
#     Edge 29, Type (0, 1), BuildingBlock: MIFKUJ_clean_linker_0, # of connection points: 2
#     Edge 30, Type (0, 1), BuildingBlock: MIFKUJ_clean_linker_0, # of connection points: 2
#     Edge 31, Type (0, 1), BuildingBlock: MIFKUJ_clean_linker_0, # of connection points: 2
#     Edge 32, Type (0, 1), BuildingBlock: MIFKUJ_clean_linker_0, # of connection points: 2
#     Edge 33, Type (0, 1), BuildingBlock: MIFKUJ_clean_linker_0, # of connection points: 2
#     Edge 34, Type (0, 1), BuildingBlock: MIFKUJ_clean_linker_0, # of connection points: 2
#     Edge 35, Type (0, 1), BuildingBlock: MIFKUJ_clean_linker_0, # of connection points: 2
# Relax obj value: 0.055
# Max RMSD: 0.070
# Mean RMSD: 0.067
data_MOF--net-cml--node1-IZENUY_clean_sbu_0--node2-ESEHIV_clean_linker_0--edge1-MIFKUJ_clean_linker_0
_symmetry_space_group_name_H-M    P1
_symmetry_Int_Tables_number       1
_symmetry_cell_setting            triclinic
loop_
_symmetry_equiv_pos_as_xyz
'x, y, z'
_cell_length_a     43.910722
_cell_length_b     51.102488
_cell_length_c     47.433832
_cell_angle_alpha  89.995176
_cell_angle_beta   89.934796
_cell_angle_gamma 90.215288
loop_
_atom_site_label
_atom_site_type_symbol
_atom_site_fract_x
_atom_site_fract_y
_atom_site_fract_z
_atom_type_partial_charge
H0 H 0.32768 0.4001 0.02327 0.0
H1 H 0.272 0.38212 0.95129 0.0
H2 H 0.26889 0.33268 0.02469 0.0
C3 C 0.31058 0.38798 0.01315 0.0
C4 C 0.29911 0.36595 0.02742 0.0
C5 C 0.30098 0.39405 0.9857 0.0
C6 C 0.27967 0.3776 0.97243 0.0
C7 C 0.26822 0.35527 0.98621 0.0
C8 C 0.27814 0.34953 0.0137 0.0
H9 H 0.68126 0.58817 0.52989 0.0
H10 H 0.73232 0.61083 0.45664 0.0
H11 H 0.73819 0.65662 0.53289 0.0
C12 C 0.6975 0.60122 0.51985 0.0
C13 C 0.70854 0.62306 0.53463 0.0
C14 C 0.70611 0.59663 0.49183 0.0
C15 C 0.72607 0.61422 0.47843 0.0
C16 C 0.73798 0.63601 0.493 0.0
C17 C 0.72892 0.64025 0.52115 0.0
H18 H 0.69239 0.41873 0.03231 0.0
H19 H 0.74395 0.34747 0.03107 0.0
H20 H 0.74708 0.39976 0.95991 0.0
C21 C 0.70847 0.40593 0.02184 0.0
C22 C 0.71889 0.41223 0.99467 0.0
C23 C 0.7173 0.38261 0.03507 0.0
C24 C 0.73716 0.36556 0.02098 0.0
C25 C 0.74802 0.37159 0.99384 0.0
C26 C 0.73861 0.39489 0.98074 0.0
H27 H 0.32816 0.59267 0.52523 0.0
H28 H 0.27807 0.61841 0.45272 0.0
H29 H 0.27386 0.66238 0.52987 0.0
C30 C 0.31345 0.60686 0.51523 0.0
C31 C 0.30275 0.62827 0.53093 0.0
C32 C 0.30534 0.60338 0.48683 0.0
C33 C 0.28472 0.62094 0.47453 0.0
C34 C 0.27264 0.64187 0.49017 0.0
C35 C 0.28204 0.64557 0.51824 0.0
H36 H 0.81945 0.90919 0.03252 0.0
H37 H 0.76786 0.8881 0.95896 0.0
H38 H 0.77421 0.83462 0.02857 0.0
C39 C 0.80581 0.89511 0.02102 0.0
C40 C 0.79869 0.87098 0.0337 0.0
C41 C 0.79559 0.9013 0.99374 0.0
C42 C 0.7762 0.88355 0.97985 0.0
C43 C 0.7676 0.8598 0.99265 0.0
C44 C 0.77939 0.85352 0.01935 0.0
H45 H 0.19008 0.08489 0.533 0.0
H46 H 0.23877 0.11046 0.45928 0.0
H47 H 0.24342 0.15573 0.5357 0.0
C48 C 0.20558 0.09861 0.52297 0.0
C49 C 0.21578 0.12069 0.5379 0.0
C50 C 0.21373 0.09476 0.49468 0.0
C51 C 0.23238 0.11327 0.48117 0.0
C52 C 0.24351 0.13506 0.49602 0.0
C53 C 0.23514 0.13871 0.52436 0.0
H54 H 0.18056 0.91352 0.0241 0.0
H55 H 0.22513 0.83865 0.02502 0.0
H56 H 0.23623 0.89083 0.95424 0.0
C57 C 0.1952 0.89912 0.01426 0.0
C58 C 0.20703 0.90429 0.98741 0.0
C59 C 0.20152 0.87544 0.02811 0.0
C60 C 0.22087 0.85727 0.01489 0.0
C61 C 0.23399 0.8626 0.98834 0.0
C62 C 0.22652 0.88617 0.97464 0.0
H63 H 0.82328 0.09401 0.52578 0.0
H64 H 0.77271 0.11489 0.45138 0.0
H65 H 0.76904 0.16387 0.52479 0.0
C66 C 0.80798 0.10707 0.51479 0.0
C67 C 0.79743 0.12962 0.52863 0.0
C68 C 0.79948 0.10149 0.48681 0.0
C69 C 0.77923 0.1185 0.47306 0.0
C70 C 0.76829 0.14096 0.48668 0.0
C71 C 0.7777 0.14658 0.51429 0.0
Fe72 Fe 0.00415 0.81617 0.32355 0.0
Fe73 Fe 0.00283 0.84782 0.37858 0.0
O74 O 0.00294 0.8467 0.34124 0.0
Fe75 Fe 0.00176 0.87628 0.32185 0.0
O76 O 0.98035 0.86271 0.2922 0.0
O77 O 0.96872 0.82258 0.30492 0.0
O78 O 0.98111 0.79883 0.35026 0.0
C79 C 0.96325 0.80737 0.3692 0.0
C80 C 0.04316 0.84887 0.29079 0.0
O81 O 0.96744 0.82961 0.38015 0.0
C82 C 0.04166 0.88815 0.36712 0.0
O83 O 0.03971 0.80749 0.34055 0.0
O84 O 0.0254 0.81802 0.38336 0.0
O85 O 0.03757 0.86935 0.30466 0.0
O86 O 0.02729 0.82829 0.29387 0.0
C87 C 0.9619 0.88828 0.36375 0.0
O88 O 0.0383 0.86628 0.37917 0.0
O89 O 0.02344 0.89526 0.34791 0.0
C90 C 0.04354 0.80647 0.36684 0.0
O91 O 0.98011 0.87781 0.38102 0.0
O92 O 0.96555 0.88529 0.33759 0.0
C93 C 0.9643 0.84229 0.28945 0.0
Fe94 Fe 0.99817 0.15239 0.876 0.0
Fe95 Fe 0.99356 0.12167 0.82067 0.0
O96 O 0.9962 0.15204 0.83863 0.0
Fe97 Fe 0.99696 0.18182 0.81928 0.0
O98 O 0.03344 0.19128 0.83412 0.0
O99 O 0.02249 0.18145 0.87814 0.0
O100 O 0.03282 0.13321 0.87592 0.0
C101 C 0.03523 0.11093 0.86478 0.0
C102 C 0.95933 0.19328 0.86643 0.0
O103 O 0.01612 0.1033 0.84655 0.0
C104 C 0.95456 0.15451 0.78889 0.0
O105 O 0.97423 0.12317 0.88083 0.0
O106 O 0.95805 0.11353 0.83828 0.0
O107 O 0.97577 0.20053 0.84586 0.0
O108 O 0.96381 0.17174 0.87872 0.0
C109 C 0.03404 0.14764 0.78671 0.0
O110 O 0.97067 0.13419 0.7914 0.0
O111 O 0.96058 0.17488 0.8028 0.0
C112 C 0.95517 0.11211 0.86468 0.0
O113 O 0.02879 0.12782 0.80185 0.0
O114 O 0.01822 0.16823 0.78924 0.0
C115 C 0.03954 0.19224 0.86005 0.0
Fe116 Fe 0.5006 0.31545 0.31875 0.0
Fe117 Fe 0.50227 0.34713 0.37375 0.0
O118 O 0.50125 0.34603 0.33643 0.0
Fe119 Fe 0.50099 0.3755 0.31698 0.0
O120 O 0.47752 0.36258 0.28824 0.0
O121 O 0.46477 0.32276 0.30149 0.0
O122 O 0.47818 0.2987 0.34636 0.0
C123 C 0.46089 0.30794 0.36535 0.0
C124 C 0.53994 0.34649 0.28477 0.0
O125 O 0.46614 0.3301 0.37604 0.0
C126 C 0.54256 0.38617 0.36146 0.0
O127 O 0.53655 0.30607 0.33451 0.0
O128 O 0.52382 0.31661 0.37777 0.0
O129 O 0.53598 0.367 0.29904 0.0
O130 O 0.52268 0.32678 0.28806 0.0
C131 C 0.46323 0.3893 0.35985 0.0
O132 O 0.53847 0.36447 0.37366 0.0
O133 O 0.52455 0.3937 0.34226 0.0
C134 C 0.54135 0.30506 0.36066 0.0
O135 O 0.48103 0.37789 0.37679 0.0
O136 O 0.46592 0.38609 0.33364 0.0
C137 C 0.46011 0.34283 0.28665 0.0
Fe138 Fe 0.5006 0.65319 0.87897 0.0
Fe139 Fe 0.50455 0.62319 0.82311 0.0
O140 O 0.50175 0.65316 0.84162 0.0
Fe141 Fe 0.50032 0.68304 0.82266 0.0
O142 O 0.53474 0.6948 0.83954 0.0
O143 O 0.52135 0.68426 0.88277 0.0
O144 O 0.53716 0.63693 0.88141 0.0
C145 C 0.54319 0.61524 0.87012 0.0
C146 C 0.45856 0.69101 0.86763 0.0
O147 O 0.52688 0.60643 0.85027 0.0
C148 C 0.46384 0.65276 0.78952 0.0
O149 O 0.47956 0.62211 0.88173 0.0
O150 O 0.469 0.61146 0.83788 0.0
O151 O 0.47571 0.69982 0.8483 0.0
O152 O 0.46411 0.66944 0.87939 0.0
C153 C 0.54366 0.65308 0.79213 0.0
O154 O 0.48277 0.63433 0.79241 0.0
O155 O 0.46578 0.67313 0.80443 0.0
C156 C 0.46364 0.60958 0.86394 0.0
O157 O 0.54029 0.63297 0.80722 0.0
O158 O 0.52474 0.67173 0.79352 0.0
C159 C 0.53876 0.69631 0.86581 0.0
H160 H 0.2675 0.30179 0.98388 0.0
H161 H 0.23014 0.27361 0.96033 0.0
H162 H 0.18102 0.34181 0.93246 0.0
H163 H 0.21795 0.37005 0.95639 0.0
H164 H 0.14329 0.30491 0.95452 0.0
H165 H 0.22434 0.30832 0.88676 0.0
H166 H 0.27728 0.3042 0.87 0.0
H167 H 0.27671 0.22254 0.89132 0.0
H168 H 0.22389 0.22626 0.90861 0.0
H169 H 0.05764 0.24066 0.84229 0.0
H170 H 0.09828 0.26797 0.86276 0.0
H171 H 0.12132 0.20554 0.91994 0.0
H172 H 0.07983 0.17873 0.90058 0.0
H173 H 0.17215 0.23937 0.88211 0.0
H174 H 0.09292 0.23726 0.95391 0.0
H175 H 0.04046 0.24173 0.97165 0.0
H176 H 0.03889 0.32181 0.94435 0.0
H177 H 0.09086 0.31739 0.92516 0.0
C178 C 0.24864 0.31074 0.97285 0.0
C179 C 0.24567 0.33812 0.97192 0.0
C180 C 0.22749 0.29465 0.9592 0.0
C181 C 0.203 0.30565 0.9444 0.0
C182 C 0.19983 0.33295 0.94366 0.0
C183 C 0.22104 0.34904 0.95718 0.0
C184 C 0.1802 0.28868 0.93028 0.0
C185 C 0.1496 0.29082 0.93845 0.0
C186 C 0.18852 0.26994 0.90969 0.0
C187 C 0.22025 0.26763 0.89924 0.0
C188 C 0.23559 0.28953 0.8881 0.0
C189 C 0.26556 0.28726 0.87846 0.0
C190 C 0.28038 0.26314 0.87966 0.0
C191 C 0.26522 0.24122 0.89044 0.0
C192 C 0.23525 0.24339 0.90014 0.0
C193 C 0.07158 0.23278 0.85907 0.0
C194 C 0.06565 0.20776 0.87005 0.0
C195 C 0.09464 0.24833 0.87073 0.0
C196 C 0.11249 0.23873 0.89293 0.0
C197 C 0.10758 0.21326 0.90293 0.0
C198 C 0.08394 0.19805 0.89192 0.0
C199 C 0.1355 0.25567 0.90649 0.0
C200 C 0.16601 0.25355 0.89815 0.0
C201 C 0.12718 0.27438 0.927 0.0
C202 C 0.09548 0.27677 0.93741 0.0
C203 C 0.08108 0.25558 0.95093 0.0
C204 C 0.05145 0.25813 0.96133 0.0
C205 C 0.03619 0.28194 0.95882 0.0
C206 C 0.05054 0.30325 0.94589 0.0
C207 C 0.08004 0.30071 0.93515 0.0
H208 H 0.01338 0.2839 0.96716 0.0
H209 H 0.30358 0.26142 0.87218 0.0
H210 H 0.78347 0.62369 0.45548 0.0
H211 H 0.81978 0.65315 0.43295 0.0
H212 H 0.78066 0.71854 0.47749 0.0
H213 H 0.74276 0.68947 0.49857 0.0
H214 H 0.7933 0.73326 0.42681 0.0
H215 H 0.84916 0.68844 0.49826 0.0
H216 H 0.86873 0.65047 0.5246 0.0
H217 H 0.91456 0.62312 0.45027 0.0
H218 H 0.89491 0.66077 0.42337 0.0
H219 H 0.91997 0.81947 0.40868 0.0
H220 H 0.88086 0.7907 0.42842 0.0
H221 H 0.91196 0.72764 0.37542 0.0
H222 H 0.95139 0.75619 0.35567 0.0
H223 H 0.90345 0.71225 0.43029 0.0
H224 H 0.84698 0.76024 0.3599 0.0
H225 H 0.82886 0.80052 0.3368 0.0
H226 H 0.78549 0.82446 0.41372 0.0
H227 H 0.80374 0.78451 0.43739 0.0
C228 C 0.78214 0.64439 0.46017 0.0
C229 C 0.76011 0.65409 0.47902 0.0
C230 C 0.8033 0.66121 0.44754 0.0
C231 C 0.80345 0.68805 0.45393 0.0
C232 C 0.78119 0.6979 0.47233 0.0
C233 C 0.75972 0.68114 0.48466 0.0
C234 C 0.82688 0.7058 0.44155 0.0
C235 C 0.8174 0.72878 0.4279 0.0
C236 C 0.85839 0.69993 0.44261 0.0
C237 C 0.8703 0.67729 0.45873 0.0
C238 C 0.86322 0.67423 0.48747 0.0
C239 C 0.87436 0.65278 0.50251 0.0
C240 C 0.89281 0.63435 0.48909 0.0
C241 C 0.90023 0.63738 0.46062 0.0
C242 C 0.88912 0.65879 0.44547 0.0
C243 C 0.91849 0.7995 0.40112 0.0
C244 C 0.9389 0.79015 0.38058 0.0
C245 C 0.89601 0.78311 0.41237 0.0
C246 C 0.89333 0.75708 0.40323 0.0
C247 C 0.91361 0.74767 0.38275 0.0
C248 C 0.93608 0.76406 0.37142 0.0
C249 C 0.8698 0.73949 0.41548 0.0
C250 C 0.87932 0.71661 0.42916 0.0
C251 C 0.83842 0.7457 0.41488 0.0
C252 C 0.82694 0.76948 0.40048 0.0
C253 C 0.83373 0.77417 0.37193 0.0
C254 C 0.82343 0.79694 0.35873 0.0
C255 C 0.80612 0.81508 0.37381 0.0
C256 C 0.79895 0.81043 0.40208 0.0
C257 C 0.80923 0.7877 0.41539 0.0
H258 H 0.7982 0.83272 0.36358 0.0
H259 H 0.90141 0.61776 0.50078 0.0
H260 H 0.74514 0.35429 0.93932 0.0
H261 H 0.78002 0.32414 0.91545 0.0
H262 H 0.83329 0.3179 0.99148 0.0
H263 H 0.79864 0.34812 0.01537 0.0
H264 H 0.86866 0.32585 0.94356 0.0
H265 H 0.78659 0.2697 0.97442 0.0
H266 H 0.73298 0.2556 0.97824 0.0
H267 H 0.72779 0.2479 0.88822 0.0
H268 H 0.78129 0.26233 0.88385 0.0
H269 H 0.94002 0.19825 0.92091 0.0
H270 H 0.90315 0.22982 0.93956 0.0
H271 H 0.88848 0.25991 0.85581 0.0
H272 H 0.92632 0.22919 0.83712 0.0
H273 H 0.83344 0.24079 0.9047 0.0
H274 H 0.91308 0.30091 0.87311 0.0
H275 H 0.96604 0.31646 0.8686 0.0
H276 H 0.97449 0.31861 0.95874 0.0
H277 H 0.92187 0.30202 0.96373 0.0
C278 C 0.76439 0.34658 0.95086 0.0
C279 C 0.76916 0.35349 0.97922 0.0
C280 C 0.78415 0.32926 0.93728 0.0
C281 C 0.8091 0.31868 0.95178 0.0
C282 C 0.81413 0.32582 0.97996 0.0
C283 C 0.79424 0.34293 0.99361 0.0
C284 C 0.83012 0.30023 0.9376 0.0
C285 C 0.86095 0.3072 0.93521 0.0
C286 C 0.81994 0.27615 0.92618 0.0
C287 C 0.78784 0.26737 0.92879 0.0
C288 C 0.77394 0.26522 0.95543 0.0
C289 C 0.74359 0.25713 0.95769 0.0
C290 C 0.72696 0.25093 0.93348 0.0
C291 C 0.74069 0.25275 0.90695 0.0
C292 C 0.77102 0.26087 0.90457 0.0
C293 C 0.92893 0.2116 0.90648 0.0
C294 C 0.93615 0.21143 0.87761 0.0
C295 C 0.90798 0.2296 0.91716 0.0
C296 C 0.89347 0.2473 0.89906 0.0
C297 C 0.89982 0.24661 0.87011 0.0
C298 C 0.92138 0.22909 0.85951 0.0
C299 C 0.87178 0.26654 0.91067 0.0
C300 C 0.84096 0.25959 0.91281 0.0
C301 C 0.88182 0.29077 0.9216 0.0
C302 C 0.91383 0.29961 0.91876 0.0
C303 C 0.92649 0.30402 0.89195 0.0
C304 C 0.95641 0.31311 0.8893 0.0
C305 C 0.97372 0.31828 0.91335 0.0
C306 C 0.96117 0.31431 0.94012 0.0
C307 C 0.93134 0.30498 0.94287 0.0
H308 H 0.99674 0.3256 0.91119 0.0
H309 H 0.70347 0.24466 0.93528 0.0
H310 H 0.22005 0.66046 0.51338 0.0
H311 H 0.18208 0.68876 0.49137 0.0
H312 H 0.23604 0.6917 0.41537 0.0
H313 H 0.27448 0.66388 0.43751 0.0
H314 H 0.21371 0.73964 0.42914 0.0
H315 H 0.17479 0.65275 0.41825 0.0
H316 H 0.15913 0.60862 0.43362 0.0
H317 H 0.09131 0.64198 0.48794 0.0
H318 H 0.10688 0.68637 0.47321 0.0
H319 H 0.09399 0.78709 0.34009 0.0
H320 H 0.1339 0.75941 0.36034 0.0
H321 H 0.08738 0.76002 0.44045 0.0
H322 H 0.04767 0.78783 0.42058 0.0
H323 H 0.10627 0.70974 0.42282 0.0
H324 H 0.1465 0.79678 0.43415 0.0
H325 H 0.16208 0.84072 0.41799 0.0
H326 H 0.22734 0.80647 0.36167 0.0
H327 H 0.21182 0.76228 0.37717 0.0
C328 C 0.22399 0.66737 0.4921 0.0
C329 C 0.25018 0.65983 0.47713 0.0
C330 C 0.20217 0.68335 0.47946 0.0
C331 C 0.20606 0.69204 0.4516 0.0
C332 C 0.23253 0.6851 0.43684 0.0
C333 C 0.25434 0.66905 0.44944 0.0
C334 C 0.18231 0.70815 0.43782 0.0
C335 C 0.19031 0.73295 0.42739 0.0
C336 C 0.15169 0.69957 0.43593 0.0
C337 C 0.14222 0.6729 0.44483 0.0
C338 C 0.15671 0.65069 0.43366 0.0
C339 C 0.14782 0.62563 0.44222 0.0
C340 C 0.12429 0.6225 0.4618 0.0
C341 C 0.10956 0.64444 0.47281 0.0
C342 C 0.11839 0.66956 0.46434 0.0
C343 C 0.09226 0.7813 0.362 0.0
C344 C 0.06771 0.78968 0.37874 0.0
C345 C 0.11509 0.76557 0.37354 0.0
C346 C 0.11356 0.75777 0.40189 0.0
C347 C 0.08892 0.76583 0.41852 0.0
C348 C 0.06635 0.78182 0.40714 0.0
C349 C 0.13766 0.74123 0.41435 0.0
C350 C 0.12971 0.71635 0.4245 0.0
C351 C 0.16832 0.74969 0.41587 0.0
C352 C 0.17775 0.77622 0.40658 0.0
C353 C 0.16397 0.79861 0.41812 0.0
C354 C 0.17282 0.82355 0.40912 0.0
C355 C 0.19561 0.82635 0.38876 0.0
C356 C 0.20965 0.80424 0.3774 0.0
C357 C 0.20085 0.77924 0.38629 0.0
H358 H 0.20244 0.84564 0.38183 0.0
H359 H 0.11743 0.60307 0.4684 0.0
H360 H 0.76593 0.84651 0.93652 0.0
H361 H 0.72929 0.81783 0.91283 0.0
H362 H 0.6849 0.80258 0.99232 0.0
H363 H 0.72094 0.83164 0.01609 0.0
H364 H 0.69325 0.7576 0.96049 0.0
H365 H 0.65464 0.84539 0.94785 0.0
H366 H 0.65805 0.89152 0.93286 0.0
H367 H 0.67532 0.86724 0.84768 0.0
H368 H 0.67245 0.82093 0.86227 0.0
H369 H 0.55036 0.70793 0.92099 0.0
H370 H 0.59155 0.73477 0.93988 0.0
H371 H 0.62434 0.74959 0.85559 0.0
H372 H 0.58275 0.72305 0.83636 0.0
H373 H 0.62518 0.79349 0.88663 0.0
H374 H 0.6603 0.70606 0.89756 0.0
H375 H 0.65688 0.65969 0.9116 0.0
H376 H 0.64767 0.68234 0.99835 0.0
H377 H 0.6505 0.72889 0.98478 0.0
C378 C 0.74824 0.83723 0.94895 0.0
C379 C 0.74627 0.84152 0.9782 0.0
C380 C 0.72743 0.82073 0.93539 0.0
C381 C 0.70428 0.80824 0.95082 0.0
C382 C 0.70267 0.81198 0.98006 0.0
C383 C 0.72336 0.82854 0.99361 0.0
C384 C 0.68118 0.79177 0.93647 0.0
C385 C 0.67818 0.76547 0.94451 0.0
C386 C 0.66218 0.80189 0.91503 0.0
C387 C 0.66366 0.82971 0.90621 0.0
C388 C 0.65941 0.84989 0.92597 0.0
C389 C 0.6612 0.87606 0.91754 0.0
C390 C 0.66698 0.88231 0.88935 0.0
C391 C 0.67089 0.86238 0.86952 0.0
C392 C 0.66917 0.83616 0.87785 0.0
C393 C 0.56625 0.71691 0.9064 0.0
C394 C 0.56328 0.71326 0.87714 0.0
C395 C 0.58989 0.73216 0.91727 0.0
C396 C 0.6113 0.74384 0.89917 0.0
C397 C 0.60812 0.74067 0.86993 0.0
C398 C 0.58436 0.72548 0.85899 0.0
C399 C 0.63689 0.75937 0.91094 0.0
C400 C 0.64041 0.7855 0.90241 0.0
C401 C 0.65654 0.74902 0.93177 0.0
C402 C 0.65537 0.72101 0.94011 0.0
C403 C 0.65735 0.70117 0.91962 0.0
C404 C 0.65553 0.67485 0.92749 0.0
C405 C 0.652 0.66807 0.95584 0.0
C406 C 0.65038 0.68762 0.97639 0.0
C407 C 0.65212 0.71398 0.96862 0.0
H408 H 0.65055 0.64768 0.96189 0.0
H409 H 0.66836 0.90258 0.88286 0.0
H410 H 0.30207 0.14658 0.50955 0.0
H411 H 0.33644 0.17726 0.48573 0.0
H412 H 0.26458 0.19766 0.42771 0.0
H413 H 0.23089 0.16564 0.45058 0.0
H414 H 0.31278 0.19607 0.3996 0.0
H415 H 0.28779 0.23822 0.48563 0.0
H416 H 0.28104 0.24307 0.53698 0.0
H417 H 0.37686 0.23134 0.54948 0.0
H418 H 0.38413 0.22606 0.49822 0.0
H419 H 0.41498 0.32324 0.40061 0.0
H420 H 0.37453 0.29619 0.42085 0.0
H421 H 0.41045 0.22856 0.37787 0.0
H422 H 0.45043 0.25564 0.35691 0.0
H423 H 0.37544 0.258 0.45564 0.0
H424 H 0.35463 0.18553 0.36204 0.0
H425 H 0.35494 0.18654 0.31004 0.0
H426 H 0.33915 0.26941 0.31134 0.0
H427 H 0.3382 0.26882 0.36328 0.0
C428 C 0.29375 0.15768 0.49171 0.0
C429 C 0.26393 0.154 0.48191 0.0
C430 C 0.31328 0.17533 0.47819 0.0
C431 C 0.30301 0.19032 0.45522 0.0
C432 C 0.27313 0.18643 0.44536 0.0
C433 C 0.25385 0.16827 0.45846 0.0
C434 C 0.3235 0.20983 0.44142 0.0
C435 C 0.3264 0.20963 0.4119 0.0
C436 C 0.34066 0.22823 0.45723 0.0
C437 C 0.33645 0.23154 0.48809 0.0
C438 C 0.30739 0.23652 0.49934 0.0
C439 C 0.30348 0.23936 0.52843 0.0
C440 C 0.3285 0.23747 0.54648 0.0
C441 C 0.3575 0.23279 0.53547 0.0
C442 C 0.36153 0.22989 0.5064 0.0
C443 C 0.4142 0.30263 0.39535 0.0
C444 C 0.43598 0.2916 0.37714 0.0
C445 C 0.39106 0.28717 0.40699 0.0
C446 C 0.38923 0.26034 0.40076 0.0
C447 C 0.41098 0.24929 0.3826 0.0
C448 C 0.43395 0.26479 0.37072 0.0
C449 C 0.36521 0.24376 0.41396 0.0
C450 C 0.36168 0.24451 0.44336 0.0
C451 C 0.34651 0.22673 0.39792 0.0
C452 C 0.34667 0.22715 0.36661 0.0
C453 C 0.35108 0.20394 0.35124 0.0
C454 C 0.35137 0.20445 0.32175 0.0
C455 C 0.34714 0.22803 0.30739 0.0
C456 C 0.3425 0.25116 0.32247 0.0
C457 C 0.34212 0.25075 0.35194 0.0
H458 H 0.34741 0.22839 0.28457 0.0
H459 H 0.32542 0.23967 0.569 0.0
H460 H 0.27596 0.83118 0.01463 0.0
H461 H 0.31186 0.80107 0.99313 0.0
H462 H 0.27938 0.82261 0.91053 0.0
H463 H 0.2414 0.851 0.93197 0.0
H464 H 0.28985 0.77393 0.90978 0.0
H465 H 0.34835 0.8472 0.94045 0.0
H466 H 0.3676 0.88067 0.97343 0.0
H467 H 0.40507 0.82059 0.02616 0.0
H468 H 0.38567 0.78671 0.99368 0.0
H469 H 0.42837 0.73039 0.84062 0.0
H470 H 0.3885 0.75875 0.86002 0.0
H471 H 0.39378 0.71797 0.93941 0.0
H472 H 0.43301 0.68916 0.92006 0.0
H473 H 0.398 0.77702 0.93987 0.0
H474 H 0.33716 0.70403 0.90559 0.0
H475 H 0.32004 0.67323 0.86881 0.0
H476 H 0.28979 0.7375 0.81783 0.0
H477 H 0.30717 0.76872 0.85415 0.0
C478 C 0.2759 0.82919 0.99191 0.0
C479 C 0.25571 0.84379 0.97513 0.0
C480 C 0.29692 0.81223 0.97957 0.0
C481 C 0.29898 0.81001 0.95011 0.0
C482 C 0.2785 0.82411 0.9333 0.0
C483 C 0.25699 0.84067 0.94564 0.0
C484 C 0.32251 0.79303 0.93691 0.0
C485 C 0.31354 0.77493 0.91616 0.0
C486 C 0.35353 0.7941 0.94518 0.0
C487 C 0.36529 0.81441 0.96476 0.0
C488 C 0.3605 0.84112 0.95918 0.0
C489 C 0.37147 0.86016 0.97777 0.0
C490 C 0.38748 0.85276 0.00191 0.0
C491 C 0.39262 0.82629 0.00747 0.0
C492 C 0.38167 0.80716 0.98897 0.0
C493 C 0.4209 0.7274 0.86216 0.0
C494 C 0.43379 0.70757 0.87882 0.0
C495 C 0.39815 0.74355 0.87316 0.0
C496 C 0.38833 0.74039 0.90111 0.0
C497 C 0.40114 0.72066 0.91779 0.0
C498 C 0.42342 0.70417 0.90665 0.0
C499 C 0.36511 0.758 0.91322 0.0
C500 C 0.37425 0.77622 0.93362 0.0
C501 C 0.3345 0.75749 0.90414 0.0
C502 C 0.32377 0.73871 0.88244 0.0
C503 C 0.32712 0.71161 0.88642 0.0
C504 C 0.31731 0.69407 0.86568 0.0
C505 C 0.30392 0.70341 0.84096 0.0
C506 C 0.30021 0.7303 0.83697 0.0
C507 C 0.31001 0.74792 0.85763 0.0
H508 H 0.29635 0.6898 0.82492 0.0
H509 H 0.39596 0.86753 0.01627 0.0
H510 H 0.71372 0.12849 0.46323 0.0
H511 H 0.67803 0.15785 0.43959 0.0
H512 H 0.74032 0.22242 0.45218 0.0
H513 H 0.77521 0.19321 0.47723 0.0
H514 H 0.68787 0.23915 0.46188 0.0
H515 H 0.72922 0.19079 0.38573 0.0
H516 H 0.74487 0.15175 0.35891 0.0
H517 H 0.65186 0.12577 0.35501 0.0
H518 H 0.63569 0.16448 0.38216 0.0
H519 H 0.59115 0.28679 0.33216 0.0
H520 H 0.63324 0.26091 0.35112 0.0
H521 H 0.58931 0.25955 0.43256 0.0
H522 H 0.54793 0.28616 0.41408 0.0
H523 H 0.6382 0.21468 0.37171 0.0
H524 H 0.6394 0.25923 0.4851 0.0
H525 H 0.62922 0.30167 0.50796 0.0
H526 H 0.64782 0.34161 0.43014 0.0
H527 H 0.6586 0.29947 0.40694 0.0
C528 C 0.7197 0.14896 0.46083 0.0
C529 C 0.74711 0.15868 0.47191 0.0
C530 C 0.69945 0.16571 0.44717 0.0
C531 C 0.70667 0.19234 0.44354 0.0
C532 C 0.73417 0.202 0.45466 0.0
C533 C 0.75411 0.18535 0.4689 0.0
C534 C 0.68514 0.21019 0.42891 0.0
C535 C 0.67715 0.2338 0.4421 0.0
C536 C 0.6717 0.20372 0.40265 0.0
C537 C 0.68128 0.18046 0.38617 0.0
C538 C 0.71212 0.17667 0.37931 0.0
C539 C 0.72108 0.15461 0.36403 0.0
C540 C 0.69938 0.13627 0.35531 0.0
C541 C 0.66865 0.13999 0.36179 0.0
C542 C 0.65957 0.162 0.3771 0.0
C543 C 0.59052 0.28098 0.35412 0.0
C544 C 0.56634 0.28866 0.37168 0.0
C545 C 0.61456 0.26616 0.36492 0.0
C546 C 0.61474 0.25862 0.3934 0.0
C547 C 0.59014 0.26569 0.41071 0.0
C548 C 0.56639 0.28081 0.40007 0.0
C549 C 0.64043 0.24319 0.4051 0.0
C550 C 0.64916 0.22007 0.39137 0.0
C551 C 0.65546 0.25063 0.43027 0.0
C552 C 0.64955 0.27613 0.44423 0.0
C553 C 0.64149 0.27707 0.47291 0.0
C554 C 0.63559 0.30108 0.48592 0.0
C555 C 0.6378 0.32431 0.47049 0.0
C556 C 0.64603 0.3236 0.44205 0.0
C557 C 0.65202 0.29965 0.42895 0.0
H558 H 0.63317 0.34287 0.48059 0.0
H559 H 0.70637 0.11919 0.34348 0.0
H560 H 0.31284 0.44258 0.00776 0.0
H561 H 0.33616 0.48006 0.98422 0.0
H562 H 0.33977 0.43651 0.90637 0.0
H563 H 0.31788 0.3984 0.93017 0.0
H564 H 0.39178 0.46029 0.91482 0.0
H565 H 0.28769 0.48682 0.91722 0.0
H566 H 0.23755 0.49563 0.93858 0.0
H567 H 0.27786 0.55333 0.99289 0.0
H568 H 0.32834 0.54461 0.97214 0.0
H569 H 0.43583 0.57068 0.83353 0.0
H570 H 0.40335 0.53546 0.85158 0.0
H571 H 0.40876 0.56838 0.93513 0.0
H572 H 0.44134 0.60364 0.91736 0.0
H573 H 0.3498 0.55018 0.92049 0.0
H574 H 0.45422 0.52072 0.92004 0.0
H575 H 0.5041 0.51225 0.89798 0.0
H576 H 0.46188 0.45995 0.83878 0.0
H577 H 0.41164 0.46845 0.86024 0.0
C578 C 0.31874 0.44088 0.98566 0.0
C579 C 0.31354 0.41741 0.97089 0.0
C580 C 0.33171 0.46248 0.97212 0.0
C581 C 0.33935 0.46126 0.94339 0.0
C582 C 0.33394 0.43796 0.92851 0.0
C583 C 0.32116 0.41626 0.9421 0.0
C584 C 0.35427 0.48389 0.92929 0.0
C585 C 0.38224 0.47984 0.91562 0.0
C586 C 0.34221 0.50954 0.93077 0.0
C587 C 0.31186 0.5149 0.94327 0.0
C588 C 0.28591 0.50125 0.93387 0.0
C589 C 0.25741 0.50625 0.94584 0.0
C590 C 0.25453 0.52499 0.96712 0.0
C591 C 0.28013 0.53881 0.97642 0.0
C592 C 0.30869 0.53386 0.96454 0.0
C593 C 0.42984 0.57063 0.85569 0.0
C594 C 0.44147 0.58982 0.87409 0.0
C595 C 0.41132 0.55047 0.86595 0.0
C596 C 0.40395 0.54923 0.89471 0.0
C597 C 0.41425 0.56901 0.91286 0.0
C598 C 0.43299 0.58905 0.90269 0.0
C599 C 0.38715 0.52644 0.90625 0.0
C600 C 0.35899 0.53052 0.91948 0.0
C601 C 0.39892 0.50079 0.90427 0.0
C602 C 0.42914 0.49545 0.89154 0.0
C603 C 0.45554 0.50758 0.90217 0.0
C604 C 0.48388 0.50275 0.8898 0.0
C605 C 0.48614 0.48562 0.86694 0.0
C606 C 0.46008 0.47324 0.85646 0.0
C607 C 0.43167 0.47805 0.86872 0.0
H608 H 0.5081 0.4819 0.85739 0.0
H609 H 0.23245 0.52883 0.97637 0.0
H610 H 0.70318 0.54609 0.51014 0.0
H611 H 0.67925 0.50869 0.48653 0.0
H612 H 0.65636 0.55792 0.41585 0.0
H613 H 0.68023 0.59547 0.43944 0.0
H614 H 0.60729 0.5282 0.43613 0.0
H615 H 0.71175 0.51511 0.40873 0.0
H616 H 0.76681 0.50984 0.41694 0.0
H617 H 0.74938 0.44154 0.46726 0.0
H618 H 0.69414 0.44663 0.45969 0.0
H619 H 0.5569 0.43421 0.34024 0.0
H620 H 0.5887 0.46785 0.36169 0.0
H621 H 0.6112 0.41524 0.42957 0.0
H622 H 0.57932 0.38115 0.40813 0.0
H623 H 0.66073 0.44572 0.41204 0.0
H624 H 0.55767 0.4575 0.44018 0.0
H625 H 0.50228 0.46155 0.43324 0.0
H626 H 0.5161 0.53153 0.38475 0.0
H627 H 0.57172 0.52757 0.39081 0.0
C628 C 0.69317 0.54888 0.4895 0.0
C629 C 0.69353 0.57366 0.4766 0.0
C630 C 0.67966 0.5275 0.476 0.0
C631 C 0.66615 0.53054 0.44941 0.0
C632 C 0.66673 0.55519 0.43635 0.0
C633 C 0.68052 0.57655 0.44973 0.0
C634 C 0.65038 0.5082 0.43575 0.0
C635 C 0.61906 0.51032 0.43046 0.0
C636 C 0.66556 0.48454 0.42936 0.0
C637 C 0.69878 0.48142 0.43388 0.0
C638 C 0.71963 0.49911 0.42176 0.0
C639 C 0.75088 0.49612 0.42625 0.0
C640 C 0.76159 0.47541 0.44267 0.0
C641 C 0.74106 0.4576 0.45457 0.0
C642 C 0.70977 0.46051 0.45017 0.0
C643 C 0.56882 0.42958 0.35958 0.0
C644 C 0.56515 0.40508 0.3727 0.0
C645 C 0.58699 0.44889 0.37181 0.0
C646 C 0.60181 0.44419 0.39747 0.0
C647 C 0.59976 0.41928 0.40983 0.0
C648 C 0.58149 0.39986 0.39757 0.0
C649 C 0.61779 0.4659 0.41203 0.0
C650 C 0.64902 0.46363 0.41765 0.0
C651 C 0.60245 0.48934 0.41908 0.0
C652 C 0.56895 0.49206 0.41568 0.0
C653 C 0.54895 0.47363 0.4278 0.0
C654 C 0.5175 0.47591 0.42404 0.0
C655 C 0.5057 0.49672 0.40847 0.0
C656 C 0.52531 0.51537 0.39673 0.0
C657 C 0.55681 0.51311 0.40031 0.0
H658 H 0.48136 0.49841 0.40555 0.0
H659 H 0.78579 0.47313 0.44612 0.0
H660 H 0.71385 0.46116 0.01745 0.0
H661 H 0.69051 0.49976 0.99613 0.0
H662 H 0.67576 0.45666 0.91912 0.0
H663 H 0.69911 0.41796 0.94033 0.0
H664 H 0.693 0.50707 0.90848 0.0
H665 H 0.61949 0.46234 0.96671 0.0
H666 H 0.60046 0.44255 0.01078 0.0
H667 H 0.60786 0.5168 0.05263 0.0
H668 H 0.62742 0.53696 0.00889 0.0
H669 H 0.56512 0.56955 0.84861 0.0
H670 H 0.60165 0.53979 0.87004 0.0
H671 H 0.61214 0.59238 0.9405 0.0
H672 H 0.57541 0.62245 0.91917 0.0
H673 H 0.6008 0.54102 0.95656 0.0
H674 H 0.66915 0.58661 0.89555 0.0
H675 H 0.6868 0.60558 0.85061 0.0
H676 H 0.68758 0.52916 0.81298 0.0
H677 H 0.66947 0.50976 0.8576 0.0
C678 C 0.70579 0.45996 0.99591 0.0
C679 C 0.708 0.43644 0.98066 0.0
C680 C 0.69253 0.48203 0.98375 0.0
C681 C 0.68098 0.48095 0.9562 0.0
C682 C 0.68453 0.45791 0.94042 0.0
C683 C 0.69791 0.43583 0.95255 0.0
C684 C 0.66342 0.50317 0.94448 0.0
C685 C 0.67275 0.51441 0.91888 0.0
C686 C 0.63734 0.5131 0.95839 0.0
C687 C 0.62525 0.50109 0.98462 0.0
C688 C 0.61728 0.47441 0.98537 0.0
C689 C 0.60637 0.46312 0.01028 0.0
C690 C 0.60304 0.47839 0.03451 0.0
C691 C 0.61052 0.50499 0.03386 0.0
C692 C 0.62151 0.51636 0.00901 0.0
C693 C 0.57534 0.57497 0.86855 0.0
C694 C 0.56717 0.59833 0.88225 0.0
C695 C 0.59636 0.55797 0.8807 0.0
C696 C 0.60971 0.56394 0.90677 0.0
C697 C 0.60208 0.58744 0.92034 0.0
C698 C 0.58115 0.60461 0.90808 0.0
C699 C 0.63022 0.54479 0.92043 0.0
C700 C 0.62134 0.53401 0.94637 0.0
C701 C 0.65656 0.5352 0.90672 0.0
C702 C 0.66774 0.54675 0.87989 0.0
C703 C 0.67287 0.57386 0.87764 0.0
C704 C 0.68299 0.58469 0.85223 0.0
C705 C 0.68826 0.56859 0.82893 0.0
C706 C 0.68348 0.54161 0.83104 0.0
C707 C 0.67333 0.53068 0.8564 0.0
H708 H 0.69608 0.57702 0.80927 0.0
H709 H 0.5946 0.46962 0.05378 0.0
H710 H 0.36375 0.58514 0.48976 0.0
H711 H 0.38635 0.54914 0.46391 0.0
H712 H 0.3024 0.5378 0.41822 0.0
H713 H 0.27868 0.57271 0.44577 0.0
H714 H 0.32371 0.49263 0.43147 0.0
H715 H 0.36774 0.56737 0.38775 0.0
H716 H 0.39405 0.60996 0.38419 0.0
H717 H 0.47367 0.57711 0.42272 0.0
H718 H 0.44765 0.53448 0.42705 0.0
H719 H 0.41125 0.40872 0.33584 0.0
H720 H 0.38015 0.44538 0.35306 0.0
H721 H 0.44014 0.45434 0.42433 0.0
H722 H 0.47071 0.41759 0.40783 0.0
H723 H 0.42702 0.50172 0.39009 0.0
H724 H 0.37839 0.42808 0.43797 0.0
H725 H 0.35178 0.3855 0.43859 0.0
H726 H 0.28013 0.41732 0.38763 0.0
H727 H 0.3066 0.46 0.38635 0.0
C728 C 0.34982 0.57482 0.47454 0.0
C729 C 0.31925 0.58185 0.47004 0.0
C730 C 0.36302 0.55446 0.45934 0.0
C731 C 0.34635 0.54107 0.4386 0.0
C732 C 0.31583 0.54798 0.43395 0.0
C733 C 0.30238 0.56813 0.44954 0.0
C734 C 0.36072 0.51933 0.42263 0.0
C735 C 0.34605 0.49483 0.42196 0.0
C736 C 0.38996 0.52202 0.4102 0.0
C737 C 0.40565 0.54773 0.40784 0.0
C738 C 0.39077 0.56928 0.39567 0.0
C739 C 0.40565 0.59343 0.3935 0.0
C740 C 0.43549 0.59625 0.40326 0.0
C741 C 0.45054 0.57491 0.41519 0.0
C742 C 0.43575 0.55074 0.41747 0.0
C743 C 0.41755 0.41839 0.35532 0.0
C744 C 0.44325 0.41023 0.37059 0.0
C745 C 0.39983 0.43924 0.36508 0.0
C746 C 0.40797 0.45244 0.38991 0.0
C747 C 0.43355 0.44431 0.40514 0.0
C748 C 0.45085 0.42322 0.39576 0.0
C749 C 0.39044 0.47521 0.39997 0.0
C750 C 0.40452 0.49983 0.39935 0.0
C751 C 0.36062 0.47271 0.41082 0.0
C752 C 0.34466 0.44711 0.41176 0.0
C753 C 0.35712 0.42592 0.42666 0.0
C754 C 0.34203 0.40178 0.42718 0.0
C755 C 0.31434 0.39868 0.41308 0.0
C756 C 0.30162 0.41973 0.39849 0.0
C757 C 0.31665 0.4439 0.39787 0.0
H758 H 0.30268 0.37998 0.41351 0.0
H759 H 0.44697 0.61496 0.40154 0.0
H760 H 0.76437 0.93316 0.95653 0.0
H761 H 0.7836 0.97212 0.93209 0.0
H762 H 0.86938 0.96477 0.97527 0.0
H763 H 0.85152 0.92501 0.99822 0.0
H764 H 0.83552 0.01885 0.9739 0.0
H765 H 0.87489 0.94512 0.91745 0.0
H766 H 0.86704 0.90521 0.88908 0.0
H767 H 0.80819 0.94746 0.83311 0.0
H768 H 0.81538 0.98753 0.86145 0.0
H769 H 0.95486 0.09128 0.91748 0.0
H770 H 0.91947 0.05947 0.93705 0.0
H771 H 0.86737 0.06077 0.85994 0.0
H772 H 0.90384 0.09198 0.83961 0.0
H773 H 0.87281 0.01325 0.87529 0.0
H774 H 0.8404 0.08867 0.92381 0.0
H775 H 0.8445 0.12956 0.95114 0.0
H776 H 0.88303 0.0873 0.02064 0.0
H777 H 0.87961 0.0462 0.99359 0.0
C778 C 0.78747 0.93956 0.96062 0.0
C779 C 0.80628 0.92578 0.97956 0.0
C780 C 0.79826 0.96199 0.94682 0.0
C781 C 0.82778 0.97128 0.95209 0.0
C782 C 0.84639 0.95797 0.97121 0.0
C783 C 0.83596 0.93531 0.98449 0.0
C784 C 0.83999 0.99445 0.93724 0.0
C785 C 0.84373 0.01778 0.95235 0.0
C786 C 0.84943 0.99319 0.90882 0.0
C787 C 0.84533 0.96918 0.89176 0.0
C788 C 0.86003 0.94581 0.89927 0.0
C789 C 0.85576 0.92319 0.88316 0.0
C790 C 0.83703 0.92377 0.85936 0.0
C791 C 0.82263 0.94701 0.85158 0.0
C792 C 0.82679 0.96968 0.86765 0.0
C793 C 0.93571 0.08507 0.90472 0.0
C794 C 0.93213 0.09422 0.87699 0.0
C795 C 0.91528 0.06695 0.91605 0.0
C796 C 0.89026 0.05805 0.90026 0.0
C797 C 0.88638 0.0674 0.87262 0.0
C798 C 0.9072 0.08526 0.86104 0.0
C799 C 0.86953 0.03778 0.91223 0.0
C800 C 0.86409 0.01486 0.89662 0.0
C801 C 0.85788 0.03968 0.94006 0.0
C802 C 0.85987 0.06434 0.95657 0.0
C803 C 0.84992 0.08811 0.94486 0.0
C804 C 0.85211 0.11133 0.96031 0.0
C805 C 0.86405 0.11103 0.98759 0.0
C806 C 0.87378 0.0875 0.9995 0.0
C807 C 0.87167 0.06422 0.98413 0.0
H808 H 0.86573 0.12904 0.99952 0.0
H809 H 0.83376 0.90624 0.84691 0.0
H810 H 0.18444 0.09442 0.44404 0.0
H811 H 0.1593 0.05711 0.42117 0.0
H812 H 0.19015 0.00628 0.48777 0.0
H813 H 0.21506 0.04359 0.51089 0.0
H814 H 0.19469 0.98479 0.43056 0.0
H815 H 0.12348 0.02515 0.49409 0.0
H816 H 0.09505 0.06205 0.51458 0.0
H817 H 0.05374 0.07735 0.43428 0.0
H818 H 0.08239 0.04079 0.41316 0.0
H819 H 0.08507 0.88114 0.40826 0.0
H820 H 0.11898 0.91452 0.42836 0.0
H821 H 0.08249 0.97191 0.37106 0.0
H822 H 0.04877 0.93898 0.35092 0.0
H823 H 0.08195 0.98901 0.4252 0.0
H824 H 0.15263 0.95011 0.36105 0.0
H825 H 0.18263 0.9151 0.33867 0.0
H826 H 0.22494 0.89775 0.41802 0.0
H827 H 0.19493 0.93253 0.44098 0.0
C828 C 0.18628 0.0752 0.4535 0.0
C829 C 0.20154 0.07183 0.47924 0.0
C830 C 0.17186 0.05397 0.44052 0.0
C831 C 0.17279 0.02904 0.45291 0.0
C832 C 0.18924 0.02538 0.47791 0.0
C833 C 0.20328 0.04667 0.49112 0.0
C834 C 0.1548 0.00724 0.4408 0.0
C835 C 0.17002 0.98546 0.4297 0.0
C836 C 0.12269 0.00847 0.43932 0.0
C837 C 0.10536 0.03042 0.45197 0.0
C838 C 0.10858 0.03655 0.48073 0.0
C839 C 0.09239 0.05737 0.49247 0.0
C840 C 0.07268 0.07209 0.47573 0.0
C841 C 0.06907 0.06597 0.44721 0.0
C842 C 0.08528 0.04519 0.43534 0.0
C843 C 0.08446 0.90082 0.3998 0.0
C844 C 0.06401 0.9074 0.37813 0.0
C845 C 0.10393 0.91983 0.41122 0.0
C846 C 0.10318 0.94569 0.40121 0.0
C847 C 0.08333 0.9521 0.37917 0.0
C848 C 0.06409 0.93317 0.36765 0.0
C849 C 0.12178 0.96654 0.41455 0.0
C850 C 0.10662 0.98819 0.42608 0.0
C851 C 0.1539 0.96518 0.41627 0.0
C852 C 0.17131 0.94374 0.40278 0.0
C853 C 0.16806 0.93862 0.37381 0.0
C854 C 0.18514 0.91889 0.361 0.0
C855 C 0.20569 0.90424 0.37691 0.0
C856 C 0.20904 0.90916 0.40572 0.0
C857 C 0.19202 0.92889 0.41864 0.0
H858 H 0.21913 0.88918 0.36687 0.0
H859 H 0.06014 0.0882 0.48487 0.0
H860 H 0.21442 0.95516 0.00348 0.0
H861 H 0.19327 0.99407 0.98055 0.0
H862 H 0.15473 0.9452 0.91533 0.0
H863 H 0.17739 0.90662 0.93741 0.0
H864 H 0.17205 0.98847 0.89275 0.0
H865 H 0.11387 0.96693 0.97653 0.0
H866 H 0.10758 0.95856 0.02744 0.0
H867 H 0.14025 0.03595 0.04604 0.0
H868 H 0.14714 0.04464 0.99524 0.0
H869 H 0.04302 0.05983 0.84956 0.0
H870 H 0.07896 0.02842 0.86896 0.0
H871 H 0.11591 0.08814 0.92348 0.0
H872 H 0.07955 0.11976 0.90447 0.0
H873 H 0.10473 0.04365 0.95194 0.0
H874 H 0.15601 0.06628 0.8661 0.0
H875 H 0.16016 0.07356 0.81485 0.0
H876 H 0.13779 0.99294 0.79958 0.0
H877 H 0.13306 0.98525 0.85073 0.0
C878 C 0.20186 0.95294 0.98398 0.0
C879 C 0.19736 0.92805 0.97216 0.0
C880 C 0.18961 0.97508 0.97099 0.0
C881 C 0.17171 0.97255 0.94656 0.0
C882 C 0.16836 0.94772 0.93417 0.0
C883 C 0.18125 0.92568 0.94677 0.0
C884 C 0.15498 0.99531 0.93471 0.0
C885 C 0.15719 1.00042 0.90568 0.0
C886 C 0.13607 0.01137 0.95163 0.0
C887 C 0.13131 0.00634 0.98212 0.0
C888 C 0.11983 0.98211 0.9915 0.0
C889 C 0.11617 0.97731 0.02032 0.0
C890 C 0.12359 0.99668 0.03997 0.0
C891 C 0.13456 0.02095 0.03081 0.0
C892 C 0.13833 0.02583 0.002 0.0
C893 C 0.0589 0.06642 0.86553 0.0
C894 C 0.05831 0.09233 0.8755 0.0
C895 C 0.07958 0.04842 0.87651 0.0
C896 C 0.10038 0.05599 0.89745 0.0
C897 C 0.1001 0.0819 0.90728 0.0
C898 C 0.07933 0.09994 0.89635 0.0
C899 C 0.12136 0.03644 0.90993 0.0
C900 C 0.11991 0.03193 0.93908 0.0
C901 C 0.14066 0.02077 0.89306 0.0
C902 C 0.14401 0.02524 0.86228 0.0
C903 C 0.15182 0.05014 0.85182 0.0
C904 C 0.15429 0.05433 0.82277 0.0
C905 C 0.1492 0.03374 0.80397 0.0
C906 C 0.14173 0.00888 0.81417 0.0
C907 C 0.13919 0.00458 0.84319 0.0
H908 H 0.15109 0.03704 0.78149 0.0
H909 H 0.1208 0.99291 0.06228 0.0
H910 H 0.85727 0.0818 0.49146 0.0
H911 H 0.87918 0.04467 0.46707 0.0
H912 H 0.79528 0.03317 0.42139 0.0
H913 H 0.77209 0.06914 0.44766 0.0
H914 H 0.81676 0.98785 0.43404 0.0
H915 H 0.85982 0.06271 0.39054 0.0
H916 H 0.88512 0.10574 0.38707 0.0
H917 H 0.96528 0.07435 0.42606 0.0
H918 H 0.94031 0.03122 0.43016 0.0
H919 H 0.91254 0.90912 0.33625 0.0
H920 H 0.87913 0.94437 0.35315 0.0
H921 H 0.9294 0.94764 0.43106 0.0
H922 H 0.9622 0.91231 0.41489 0.0
H923 H 0.92041 0.99786 0.39353 0.0
H924 H 0.87044 0.92341 0.44083 0.0
H925 H 0.84424 0.88065 0.43928 0.0
H926 H 0.77535 0.91293 0.38548 0.0
H927 H 0.80147 0.95579 0.38636 0.0
C928 C 0.84309 0.07115 0.47671 0.0
C929 C 0.81277 0.07861 0.47167 0.0
C930 C 0.85593 0.05011 0.46232 0.0
C931 C 0.83919 0.03647 0.4418 0.0
C932 C 0.80878 0.04353 0.43692 0.0
C933 C 0.79566 0.06433 0.45177 0.0
C934 C 0.85369 0.01482 0.42575 0.0
C935 C 0.83919 0.99024 0.42476 0.0
C936 C 0.88287 0.01782 0.41329 0.0
C937 C 0.89808 0.04374 0.41081 0.0
C938 C 0.88277 0.06502 0.39855 0.0
C939 C 0.89707 0.08943 0.39645 0.0
C940 C 0.92677 0.09279 0.40638 0.0
C941 C 0.94226 0.07172 0.41838 0.0
C942 C 0.92806 0.04727 0.42057 0.0
C943 C 0.91619 0.91717 0.35711 0.0
C944 C 0.94003 0.90796 0.37421 0.0
C945 C 0.89712 0.93722 0.36669 0.0
C946 C 0.90197 0.94848 0.39327 0.0
C947 C 0.92538 0.93909 0.41048 0.0
C948 C 0.94401 0.91883 0.40121 0.0
C949 C 0.88393 0.97108 0.40291 0.0
C950 C 0.89778 0.99578 0.4025 0.0
C951 C 0.85402 0.96831 0.41343 0.0
C952 C 0.83811 0.94269 0.41336 0.0
C953 C 0.84988 0.92132 0.42845 0.0
C954 C 0.83501 0.89708 0.42774 0.0
C955 C 0.80821 0.89405 0.4122 0.0
C956 C 0.79615 0.91529 0.39745 0.0
C957 C 0.81096 0.93955 0.39806 0.0
H958 H 0.79675 0.87527 0.41165 0.0
H959 H 0.93779 0.11171 0.40473 0.0
H960 H 0.30551 0.40049 0.07081 0.0
H961 H 0.32766 0.39246 0.11718 0.0
H962 H 0.33785 0.31072 0.09681 0.0
H963 H 0.31579 0.31866 0.05005 0.0
H964 H 0.31964 0.32003 0.15395 0.0
H965 H 0.3969 0.3471 0.08844 0.0
H966 H 0.41944 0.37531 0.0517 0.0
H967 H 0.41725 0.4409 0.10823 0.0
H968 H 0.39423 0.41316 0.14518 0.0
H969 H 0.43597 0.3001 0.25953 0.0
H970 H 0.40337 0.3004 0.21763 0.0
H971 H 0.39891 0.38469 0.22163 0.0
H972 H 0.43218 0.38451 0.26275 0.0
H973 H 0.41478 0.37015 0.17133 0.0
H974 H 0.3369 0.34291 0.23718 0.0
H975 H 0.31461 0.31438 0.2738 0.0
H976 H 0.31851 0.24882 0.21734 0.0
H977 H 0.34124 0.27687 0.1805 0.0
C978 C 0.31233 0.38077 0.07621 0.0
C979 C 0.30939 0.36029 0.05661 0.0
C980 C 0.3248 0.37618 0.10277 0.0
C981 C 0.33473 0.35106 0.11025 0.0
C982 C 0.33029 0.33024 0.0914 0.0
C983 C 0.31773 0.33482 0.06473 0.0
C984 C 0.35214 0.34733 0.13667 0.0
C985 C 0.34064 0.33071 0.15774 0.0
C986 C 0.37939 0.36143 0.14157 0.0
C987 C 0.3936 0.3781 0.1195 0.0
C988 C 0.40103 0.36758 0.09297 0.0
C989 C 0.41391 0.38348 0.07211 0.0
C990 C 0.41971 0.40989 0.0776 0.0
C991 C 0.41272 0.42044 0.104 0.0
C992 C 0.39977 0.40464 0.12491 0.0
C993 C 0.42756 0.31863 0.25173 0.0
C994 C 0.43682 0.34231 0.26421 0.0
C995 C 0.40886 0.31878 0.22782 0.0
C996 C 0.39867 0.34259 0.21644 0.0
C997 C 0.40667 0.3661 0.22987 0.0
C998 C 0.42565 0.36598 0.2534 0.0
C999 C 0.38188 0.34349 0.18928 0.0
C1000 C 0.39374 0.35944 0.16779 0.0
C1001 C 0.35507 0.32874 0.18414 0.0
C1002 C 0.34103 0.31195 0.20617 0.0
C1003 C 0.3332 0.32237 0.23264 0.0
C1004 C 0.32046 0.30629 0.25342 0.0
C1005 C 0.3152 0.2798 0.24792 0.0
C1006 C 0.32262 0.26934 0.22158 0.0
C1007 C 0.3354 0.28532 0.20073 0.0
H1008 H 0.30532 0.26738 0.26402 0.0
H1009 H 0.42968 0.42217 0.06142 0.0
H1010 H 0.68959 0.66947 0.55729 0.0
H1011 H 0.66689 0.67665 0.60379 0.0
H1012 H 0.68024 0.59522 0.62422 0.0
H1013 H 0.70281 0.58793 0.57775 0.0
H1014 H 0.62352 0.60955 0.63524 0.0
H1015 H 0.72299 0.64414 0.65515 0.0
H1016 H 0.76795 0.67233 0.64757 0.0
H1017 H 0.71255 0.74079 0.65741 0.0
H1018 H 0.66714 0.713 0.66467 0.0
H1019 H 0.58227 0.61328 0.77788 0.0
H1020 H 0.61548 0.6108 0.73669 0.0
H1021 H 0.5909 0.68949 0.71345 0.0
H1022 H 0.55745 0.69225 0.75467 0.0
H1023 H 0.65376 0.6776 0.70452 0.0
H1024 H 0.55449 0.6434 0.68301 0.0
H1025 H 0.50929 0.61562 0.69113 0.0
H1026 H 0.56442 0.54672 0.68387 0.0
H1027 H 0.61008 0.57413 0.67623 0.0
C1028 C 0.68822 0.65323 0.57192 0.0
C1029 C 0.69784 0.62811 0.56383 0.0
C1030 C 0.67523 0.65735 0.59848 0.0
C1031 C 0.67194 0.63648 0.61755 0.0
C1032 C 0.68241 0.61158 0.60981 0.0
C1033 C 0.69526 0.60743 0.58326 0.0
C1034 C 0.65584 0.64013 0.64481 0.0
C1035 C 0.6305 0.62416 0.65055 0.0
C1036 C 0.66432 0.65973 0.66445 0.0
C1037 C 0.69161 0.67648 0.66018 0.0
C1038 C 0.72034 0.66521 0.65547 0.0
C1039 C 0.74592 0.68111 0.65127 0.0
C1040 C 0.7431 0.70833 0.65193 0.0
C1041 C 0.71469 0.7197 0.65687 0.0
C1042 C 0.68903 0.70388 0.66105 0.0
C1043 C 0.58418 0.63024 0.76429 0.0
C1044 C 0.56681 0.65284 0.76937 0.0
C1045 C 0.6032 0.62876 0.74075 0.0
C1046 C 0.60531 0.64984 0.72189 0.0
C1047 C 0.5895 0.67301 0.72776 0.0
C1048 C 0.5703 0.67447 0.75125 0.0
C1049 C 0.62189 0.64678 0.6949 0.0
C1050 C 0.64705 0.66293 0.68918 0.0
C1051 C 0.61325 0.62739 0.67516 0.0
C1052 C 0.58576 0.61083 0.67933 0.0
C1053 C 0.55702 0.62233 0.68337 0.0
C1054 C 0.53131 0.60665 0.68786 0.0
C1055 C 0.53399 0.57942 0.68808 0.0
C1056 C 0.56239 0.56782 0.68374 0.0
C1057 C 0.58819 0.58342 0.67931 0.0
H1058 H 0.51407 0.56731 0.69156 0.0
H1059 H 0.76293 0.72061 0.64868 0.0
H1060 H 0.69198 0.33611 0.05132 0.0
H1061 H 0.6662 0.32626 0.09595 0.0
H1062 H 0.68736 0.4038 0.12624 0.0
H1063 H 0.71328 0.41371 0.0817 0.0
H1064 H 0.69469 0.36466 0.16754 0.0
H1065 H 0.62034 0.394 0.10028 0.0
H1066 H 0.59317 0.39364 0.05483 0.0
H1067 H 0.56385 0.3146 0.06992 0.0
H1068 H 0.59127 0.31437 0.11532 0.0
H1069 H 0.58135 0.38488 0.27204 0.0
H1070 H 0.61575 0.38681 0.23165 0.0
H1071 H 0.5844 0.31081 0.20445 0.0
H1072 H 0.54962 0.30879 0.2447 0.0
H1073 H 0.58391 0.3458 0.16185 0.0
H1074 H 0.65508 0.31821 0.23181 0.0
H1075 H 0.68179 0.31965 0.27747 0.0
H1076 H 0.71673 0.39611 0.25784 0.0
H1077 H 0.68984 0.3953 0.21221 0.0
C1078 C 0.69161 0.35087 0.0677 0.0
C1079 C 0.70448 0.37572 0.06304 0.0
C1080 C 0.67676 0.34528 0.09309 0.0
C1081 C 0.6747 0.36439 0.11426 0.0
C1082 C 0.68872 0.3888 0.11015 0.0
C1083 C 0.70332 0.39449 0.08468 0.0
C1084 C 0.65626 0.35957 0.13992 0.0
C1085 C 0.67043 0.3607 0.16638 0.0
C1086 C 0.62474 0.35395 0.13826 0.0
C1087 C 0.60816 0.35405 0.11103 0.0
C1088 C 0.60834 0.37645 0.09379 0.0
C1089 C 0.59285 0.37638 0.06806 0.0
C1090 C 0.57687 0.35408 0.05945 0.0
C1091 C 0.57629 0.33184 0.0766 0.0
C1092 C 0.59179 0.3318 0.10233 0.0
C1093 C 0.58192 0.36844 0.25764 0.0
C1094 C 0.56259 0.34672 0.26157 0.0
C1095 C 0.60174 0.36953 0.23461 0.0
C1096 C 0.60279 0.34888 0.21513 0.0
C1097 C 0.58396 0.32695 0.21926 0.0
C1098 C 0.56415 0.32581 0.24232 0.0
C1099 C 0.62226 0.3509 0.18964 0.0
C1100 C 0.60824 0.34939 0.16311 0.0
C1101 C 0.65387 0.35626 0.1913 0.0
C1102 C 0.67022 0.35677 0.21867 0.0
C1103 C 0.66826 0.33542 0.23731 0.0
C1104 C 0.68347 0.33611 0.26318 0.0
C1105 C 0.7009 0.35798 0.27058 0.0
C1106 C 0.7032 0.37918 0.25209 0.0
C1107 C 0.68801 0.37861 0.2262 0.0
H1108 H 0.71265 0.35847 0.29061 0.0
H1109 H 0.56487 0.35405 0.03953 0.0
H1110 H 0.27168 0.64777 0.57707 0.0
H1111 H 0.29136 0.65447 0.62496 0.0
H1112 H 0.3787 0.6247 0.59909 0.0
H1113 H 0.36016 0.61943 0.55113 0.0
H1114 H 0.34781 0.60135 0.65149 0.0
H1115 H 0.37842 0.6832 0.60444 0.0
H1116 H 0.36665 0.72399 0.57895 0.0
H1117 H 0.30853 0.74841 0.64683 0.0
H1118 H 0.31965 0.70753 0.67253 0.0
H1119 H 0.46755 0.62243 0.74266 0.0
H1120 H 0.43238 0.62031 0.70325 0.0
H1121 H 0.37484 0.67768 0.74329 0.0
H1122 H 0.41098 0.68068 0.7827 0.0
H1123 H 0.37849 0.688 0.68951 0.0
H1124 H 0.35415 0.61176 0.74102 0.0
H1125 H 0.36328 0.5713 0.76796 0.0
H1126 H 0.40353 0.53574 0.69493 0.0
H1127 H 0.39508 0.57614 0.66764 0.0
C1128 C 0.29521 0.64301 0.58142 0.0
C1129 C 0.31418 0.63276 0.56015 0.0
C1130 C 0.30629 0.64668 0.60884 0.0
C1131 C 0.33635 0.63985 0.61545 0.0
C1132 C 0.35532 0.62979 0.59438 0.0
C1133 C 0.34452 0.6266 0.56699 0.0
C1134 C 0.34852 0.64289 0.64429 0.0
C1135 C 0.35454 0.62024 0.65993 0.0
C1136 C 0.35603 0.66764 0.65561 0.0
C1137 C 0.34951 0.69218 0.6402 0.0
C1138 C 0.36287 0.69714 0.61378 0.0
C1139 C 0.35639 0.7203 0.59933 0.0
C1140 C 0.33676 0.73874 0.61121 0.0
C1141 C 0.32367 0.73408 0.63761 0.0
C1142 C 0.33006 0.71093 0.65213 0.0
C1143 C 0.44733 0.63451 0.74326 0.0
C1144 C 0.44188 0.65155 0.76594 0.0
C1145 C 0.42711 0.63318 0.72072 0.0
C1146 C 0.40049 0.64832 0.72059 0.0
C1147 C 0.3951 0.66565 0.74304 0.0
C1148 C 0.4157 0.66732 0.76553 0.0
C1149 C 0.37907 0.64627 0.69643 0.0
C1150 C 0.37119 0.66907 0.68162 0.0
C1151 C 0.36925 0.62161 0.68611 0.0
C1152 C 0.37406 0.59707 0.7023 0.0
C1153 C 0.36508 0.59537 0.73073 0.0
C1154 C 0.37013 0.57243 0.74606 0.0
C1155 C 0.38399 0.55097 0.73317 0.0
C1156 C 0.39277 0.55238 0.70488 0.0
C1157 C 0.38781 0.57528 0.68945 0.0
H1158 H 0.38791 0.53324 0.74508 0.0
H1159 H 0.33177 0.75666 0.6 0.0
H1160 H 0.77317 0.84264 0.07741 0.0
H1161 H 0.7971 0.83016 0.12192 0.0
H1162 H 0.87876 0.87176 0.09767 0.0
H1163 H 0.85609 0.88241 0.05253 0.0
H1164 H 0.89454 0.829 0.11993 0.0
H1165 H 0.82236 0.89606 0.14604 0.0
H1166 H 0.77147 0.916 0.15006 0.0
H1167 H 0.7401 0.85008 0.19831 0.0
H1168 H 0.79075 0.82961 0.19428 0.0
H1169 H 0.96379 0.87378 0.24336 0.0
H1170 H 0.93141 0.87063 0.20195 0.0
H1171 H 0.88475 0.80429 0.23818 0.0
H1172 H 0.91775 0.80698 0.28008 0.0
H1173 H 0.84702 0.84929 0.21226 0.0
H1174 H 0.92691 0.78769 0.19115 0.0
H1175 H 0.98005 0.7727 0.18688 0.0
H1176 H 0.99943 0.83523 0.12906 0.0
H1177 H 0.94656 0.85085 0.13329 0.0
C1178 C 0.79637 0.84884 0.08138 0.0
C1179 C 0.81254 0.86376 0.06132 0.0
C1180 C 0.8099 0.84195 0.10705 0.0
C1181 C 0.83965 0.85029 0.11341 0.0
C1182 C 0.85578 0.86506 0.09337 0.0
C1183 C 0.84255 0.87151 0.06762 0.0
C1184 C 0.85446 0.84377 0.14072 0.0
C1185 C 0.88407 0.83351 0.14007 0.0
C1186 C 0.84062 0.84891 0.16716 0.0
C1187 C 0.81018 0.86116 0.16953 0.0
C1188 C 0.80453 0.88573 0.1573 0.0
C1189 C 0.77575 0.89714 0.15962 0.0
C1190 C 0.75253 0.88427 0.17434 0.0
C1191 C 0.75808 0.85999 0.18685 0.0
C1192 C 0.78681 0.84848 0.18456 0.0
C1193 C 0.94657 0.85855 0.24277 0.0
C1194 C 0.94335 0.8406 0.26508 0.0
C1195 C 0.92816 0.85675 0.21898 0.0
C1196 C 0.9059 0.83716 0.21701 0.0
C1197 C 0.90194 0.8195 0.2394 0.0
C1198 C 0.92079 0.82103 0.26321 0.0
C1199 C 0.88727 0.83553 0.19113 0.0
C1200 C 0.85704 0.84423 0.19207 0.0
C1201 C 0.90079 0.82965 0.16485 0.0
C1202 C 0.93276 0.82049 0.16263 0.0
C1203 C 0.94257 0.7984 0.17774 0.0
C1204 C 0.97264 0.78976 0.17528 0.0
C1205 C 0.99306 0.80299 0.15767 0.0
C1206 C 0.98355 0.82498 0.14264 0.0
C1207 C 0.95353 0.8337 0.14503 0.0
H1208 H 0.01622 0.79616 0.15553 0.0
H1209 H 0.73027 0.89314 0.17612 0.0
H1210 H 0.21137 0.08559 0.58118 0.0
H1211 H 0.18527 0.09155 0.62627 0.0
H1212 H 0.16774 0.17221 0.6052 0.0
H1213 H 0.19392 0.16637 0.56002 0.0
H1214 H 0.18094 0.16633 0.66135 0.0
H1215 H 0.11408 0.12742 0.59334 0.0
H1216 H 0.0989 0.09513 0.55735 0.0
H1217 H 0.10548 0.03342 0.61846 0.0
H1218 H 0.12118 0.06533 0.65475 0.0
H1219 H 0.05083 0.18585 0.74923 0.0
H1220 H 0.08632 0.18215 0.70974 0.0
H1221 H 0.10427 0.10192 0.73226 0.0
H1222 H 0.06871 0.10534 0.77176 0.0
H1223 H 0.09196 0.10769 0.67609 0.0
H1224 H 0.15678 0.14834 0.74495 0.0
H1225 H 0.17103 0.18173 0.78012 0.0
H1226 H 0.16652 0.24149 0.71664 0.0
H1227 H 0.15179 0.20851 0.68116 0.0
C1228 C 0.20226 0.10467 0.5863 0.0
C1229 C 0.20438 0.12543 0.56693 0.0
C1230 C 0.18737 0.10806 0.61206 0.0
C1231 C 0.17406 0.13219 0.61884 0.0
C1232 C 0.17778 0.15341 0.60035 0.0
C1233 C 0.19281 0.15006 0.57457 0.0
C1234 C 0.15437 0.13465 0.64415 0.0
C1235 C 0.16132 0.15369 0.66448 0.0
C1236 C 0.12896 0.11794 0.64835 0.0
C1237 C 0.11911 0.09873 0.62669 0.0
C1238 C 0.1125 0.10694 0.59906 0.0
C1239 C 0.10378 0.08871 0.57861 0.0
C1240 C 0.10131 0.06222 0.58559 0.0
C1241 C 0.10745 0.05394 0.61307 0.0
C1242 C 0.11625 0.07209 0.6336 0.0
C1243 C 0.06246 0.16745 0.74595 0.0
C1244 C 0.05682 0.14587 0.76368 0.0
C1245 C 0.08284 0.16542 0.72341 0.0
C1246 C 0.09808 0.14181 0.71817 0.0
C1247 C 0.09275 0.12032 0.73594 0.0
C1248 C 0.07245 0.12234 0.75855 0.0
C1249 C 0.11864 0.13923 0.69349 0.0
C1250 C 0.11171 0.12022 0.67312 0.0
C1251 C 0.14385 0.15613 0.68919 0.0
C1252 C 0.15291 0.17598 0.71045 0.0
C1253 C 0.15859 0.16863 0.73853 0.0
C1254 C 0.1668 0.18748 0.75852 0.0
C1255 C 0.16961 0.21372 0.75063 0.0
C1256 C 0.1643 0.22116 0.72272 0.0
C1257 C 0.15605 0.20239 0.70266 0.0
H1258 H 0.17596 0.22829 0.76614 0.0
H1259 H 0.09457 0.04813 0.56973 0.0
H1260 H 0.14402 0.88773 0.04637 0.0
H1261 H 0.1223 0.88111 0.09318 0.0
H1262 H 0.20428 0.84229 0.11989 0.0
H1263 H 0.22706 0.84996 0.07342 0.0
H1264 H 0.14182 0.81742 0.13452 0.0
H1265 H 0.20198 0.89709 0.14232 0.0
H1266 H 0.21818 0.94069 0.12565 0.0
H1267 H 0.12617 0.96824 0.13212 0.0
H1268 H 0.10937 0.92467 0.1485 0.0
H1269 H 0.09063 0.81687 0.27721 0.0
H1270 H 0.12336 0.81979 0.23528 0.0
H1271 H 0.07213 0.8868 0.20673 0.0
H1272 H 0.04145 0.88508 0.24958 0.0
H1273 H 0.12571 0.89574 0.19443 0.0
H1274 H 0.06304 0.81862 0.18356 0.0
H1275 H 0.04283 0.77525 0.19702 0.0
H1276 H 0.13263 0.7427 0.19182 0.0
H1277 H 0.15355 0.78601 0.17915 0.0
C1278 C 0.1577 0.87804 0.06219 0.0
C1279 C 0.18754 0.86971 0.05611 0.0
C1280 C 0.14507 0.87404 0.08885 0.0
C1281 C 0.16177 0.8613 0.1099 0.0
C1282 C 0.19105 0.85207 0.10379 0.0
C1283 C 0.20395 0.85641 0.07719 0.0
C1284 C 0.14889 0.85889 0.1386 0.0
C1285 C 0.13867 0.83437 0.14796 0.0
C1286 C 0.14419 0.8812 0.15557 0.0
C1287 C 0.1544 0.90758 0.14645 0.0
C1288 C 0.18518 0.9124 0.14004 0.0
C1289 C 0.19448 0.93712 0.13067 0.0
C1290 C 0.17321 0.95721 0.12778 0.0
C1291 C 0.14262 0.95266 0.13437 0.0
C1292 C 0.13321 0.92797 0.14374 0.0
C1293 C 0.08682 0.83235 0.26203 0.0
C1294 C 0.0638 0.85084 0.26649 0.0
C1295 C 0.10527 0.8339 0.23796 0.0
C1296 C 0.09993 0.85321 0.21737 0.0
C1297 C 0.07696 0.87178 0.22219 0.0
C1298 C 0.05935 0.87079 0.24665 0.0
C1299 C 0.11768 0.85417 0.19055 0.0
C1300 C 0.12895 0.87854 0.18139 0.0
C1301 C 0.1226 0.83174 0.17347 0.0
C1302 C 0.10991 0.80564 0.18072 0.0
C1303 C 0.07851 0.80226 0.18548 0.0
C1304 C 0.06693 0.77769 0.19297 0.0
C1305 C 0.08642 0.75626 0.19525 0.0
C1306 C 0.11756 0.75934 0.19008 0.0
C1307 C 0.12931 0.78389 0.1828 0.0
H1308 H 0.0774 0.73725 0.201 0.0
H1309 H 0.18043 0.97632 0.12047 0.0
H1310 H 0.80341 0.09565 0.57288 0.0
H1311 H 0.824 0.10475 0.61961 0.0
H1312 H 0.83444 0.18624 0.59767 0.0
H1313 H 0.81498 0.17704 0.55034 0.0
H1314 H 0.88447 0.1688 0.62185 0.0
H1315 H 0.77897 0.1658 0.64444 0.0
H1316 H 0.7267 0.14804 0.6451 0.0
H1317 H 0.7578 0.07994 0.68941 0.0
H1318 H 0.81037 0.09711 0.68867 0.0
H1319 H 0.93089 0.19757 0.76242 0.0
H1320 H 0.8975 0.19794 0.72102 0.0
H1321 H 0.89237 0.11368 0.72326 0.0
H1322 H 0.92589 0.11309 0.76435 0.0
H1323 H 0.83593 0.1385 0.71064 0.0
H1324 H 0.94197 0.13956 0.68195 0.0
H1325 H 0.99418 0.15753 0.68166 0.0
H1326 H 0.96085 0.23032 0.64891 0.0
H1327 H 0.90833 0.21291 0.64947 0.0
C1328 C 0.81012 0.11552 0.57795 0.0
C1329 C 0.80767 0.13559 0.55782 0.0
C1330 C 0.82155 0.12076 0.60483 0.0
C1331 C 0.83043 0.14626 0.61231 0.0
C1332 C 0.82759 0.16644 0.59242 0.0
C1333 C 0.81624 0.16119 0.56545 0.0
C1334 C 0.84433 0.15138 0.64032 0.0
C1335 C 0.8735 0.16271 0.6413 0.0
C1336 C 0.8303 0.14307 0.66572 0.0
C1337 C 0.79868 0.13268 0.66632 0.0
C1338 C 0.77472 0.14695 0.65415 0.0
C1339 C 0.74502 0.137 0.65457 0.0
C1340 C 0.73894 0.11286 0.66725 0.0
C1341 C 0.76255 0.09864 0.67959 0.0
C1342 C 0.7923 0.10849 0.67921 0.0
C1343 C 0.92223 0.17916 0.75438 0.0
C1344 C 0.93125 0.15527 0.76644 0.0
C1345 C 0.90323 0.17941 0.73072 0.0
C1346 C 0.89271 0.15582 0.71901 0.0
C1347 C 0.90026 0.13208 0.732 0.0
C1348 C 0.91954 0.13178 0.75537 0.0
C1349 C 0.876 0.15554 0.69193 0.0
C1350 C 0.84647 0.14504 0.69117 0.0
C1351 C 0.88961 0.16468 0.66673 0.0
C1352 C 0.9212 0.17506 0.66609 0.0
C1353 C 0.94574 0.15948 0.67492 0.0
C1354 C 0.97539 0.16954 0.67467 0.0
C1355 C 0.98082 0.19508 0.66536 0.0
C1356 C 0.9566 0.21057 0.65618 0.0
C1357 C 0.92689 0.20061 0.65646 0.0
H1358 H 0.00379 0.20284 0.66518 0.0
H1359 H 0.71594 0.10519 0.66755 0.0
loop_
_geom_bond_atom_site_label_1
_geom_bond_atom_site_label_2
_geom_bond_distance
_geom_bond_site_symmetry_2
_ccdc_geom_bond_type
H0 C3 0.931 . S
H1 C6 0.928 . S
H2 C8 0.930 . S
C3 H0 0.931 . S
C3 C4 1.413 . S
C3 C5 1.360 1_554 S
C4 C3 1.413 . S
C4 C8 1.429 . S
C5 C3 1.360 1_556 S
C5 C6 1.372 . S
C6 H1 0.928 . S
C6 C5 1.372 . S
C6 C7 1.404 . S
C7 C6 1.404 . S
C7 C8 1.391 1_556 S
C8 H2 0.930 . S
C8 C4 1.429 . S
C8 C7 1.391 1_554 S
H9 C12 0.931 . S
H10 C15 0.928 . S
H11 C17 0.930 . S
C12 H9 0.931 . S
C12 C13 1.413 . S
C12 C14 1.360 . S
C13 C12 1.413 . S
C13 C17 1.429 . S
C14 C12 1.360 . S
C14 C15 1.372 . S
C15 H10 0.928 . S
C15 C14 1.372 . S
C15 C16 1.404 . S
C16 C15 1.404 . S
C16 C17 1.391 . S
C17 H11 0.930 . S
C17 C13 1.429 . S
C17 C16 1.391 . S
H18 C21 0.931 . S
H19 C24 0.928 . S
H20 C26 0.930 . S
C21 H18 0.931 . S
C21 C22 1.413 1_554 S
C21 C23 1.360 . S
C22 C21 1.413 1_556 S
C22 C26 1.429 . S
C23 C21 1.360 . S
C23 C24 1.372 . S
C24 H19 0.928 . S
C24 C23 1.372 . S
C24 C25 1.404 1_554 S
C25 C24 1.404 1_556 S
C25 C26 1.391 . S
C26 H20 0.930 . S
C26 C22 1.429 . S
C26 C25 1.391 . S
H27 C30 0.931 . S
H28 C33 0.928 . S
H29 C35 0.930 . S
C30 H27 0.931 . S
C30 C31 1.413 . S
C30 C32 1.360 . S
C31 C30 1.413 . S
C31 C35 1.429 . S
C32 C30 1.360 . S
C32 C33 1.372 . S
C33 H28 0.928 . S
C33 C32 1.372 . S
C33 C34 1.404 . S
C34 C33 1.404 . S
C34 C35 1.391 . S
C35 H29 0.930 . S
C35 C31 1.429 . S
C35 C34 1.391 . S
H36 C39 0.931 . S
H37 C42 0.928 . S
H38 C44 0.930 . S
C39 H36 0.931 . S
C39 C40 1.413 . S
C39 C41 1.360 1_554 S
C40 C39 1.413 . S
C40 C44 1.429 . S
C41 C39 1.360 1_556 S
C41 C42 1.372 . S
C42 H37 0.928 . S
C42 C41 1.372 . S
C42 C43 1.404 . S
C43 C42 1.404 . S
C43 C44 1.391 1_556 S
C44 H38 0.930 . S
C44 C40 1.429 . S
C44 C43 1.391 1_554 S
H45 C48 0.931 . S
H46 C51 0.928 . S
H47 C53 0.930 . S
C48 H45 0.931 . S
C48 C49 1.413 . S
C48 C50 1.360 . S
C49 C48 1.413 . S
C49 C53 1.429 . S
C50 C48 1.360 . S
C50 C51 1.372 . S
C51 H46 0.928 . S
C51 C50 1.372 . S
C51 C52 1.404 . S
C52 C51 1.404 . S
C52 C53 1.391 . S
C53 H47 0.930 . S
C53 C49 1.429 . S
C53 C52 1.391 . S
H54 C57 0.931 . S
H55 C60 0.928 . S
H56 C62 0.930 . S
C57 H54 0.931 . S
C57 C58 1.413 1_554 S
C57 C59 1.360 . S
C58 C57 1.413 1_556 S
C58 C62 1.429 . S
C59 C57 1.360 . S
C59 C60 1.372 . S
C60 H55 0.928 . S
C60 C59 1.372 . S
C60 C61 1.404 1_554 S
C61 C60 1.404 1_556 S
C61 C62 1.391 . S
C62 H56 0.930 . S
C62 C58 1.429 . S
C62 C61 1.391 . S
H63 C66 0.931 . S
H64 C69 0.928 . S
H65 C71 0.930 . S
C66 H63 0.931 . S
C66 C67 1.413 . S
C66 C68 1.360 . S
C67 C66 1.413 . S
C67 C71 1.429 . S
C68 C66 1.360 . S
C68 C69 1.372 . S
C69 H64 0.928 . S
C69 C68 1.372 . S
C69 C70 1.404 . S
C70 C69 1.404 . S
C70 C71 1.391 . S
C71 H65 0.930 . S
C71 C67 1.429 . S
C71 C70 1.391 . S
Fe72 O74 1.918 . S
Fe72 O77 1.997 1_455 S
Fe72 O78 2.002 1_455 S
Fe72 O83 1.976 . S
Fe72 O86 1.996 . S
Fe73 O74 1.918 . S
Fe73 O81 1.997 1_455 S
Fe73 O84 1.996 . S
Fe73 O88 1.976 . S
Fe73 O91 2.002 1_455 S
O74 Fe72 1.918 . S
O74 Fe73 1.918 . S
O74 Fe75 1.918 . S
Fe75 O74 1.918 . S
Fe75 O76 2.002 1_455 S
Fe75 O85 1.976 . S
Fe75 O89 1.996 . S
Fe75 O92 1.997 1_455 S
O76 Fe75 2.002 1_655 S
O76 C93 1.295 . S
O77 Fe72 1.997 1_655 S
O77 C93 1.235 . S
O78 Fe72 2.002 1_655 S
O78 C79 1.295 . S
C79 O78 1.295 . S
C79 O81 1.235 . S
C80 O85 1.287 . S
C80 O86 1.255 . S
O81 Fe73 1.997 1_655 S
O81 C79 1.235 . S
C82 O88 1.287 . S
C82 O89 1.255 . S
O83 Fe72 1.976 . S
O83 C90 1.287 . S
O84 Fe73 1.996 . S
O84 C90 1.255 . S
O85 Fe75 1.976 . S
O85 C80 1.287 . S
O86 Fe72 1.996 . S
O86 C80 1.255 . S
C87 O91 1.295 . S
C87 O92 1.235 . S
O88 Fe73 1.976 . S
O88 C82 1.287 . S
O89 Fe75 1.996 . S
O89 C82 1.255 . S
C90 O83 1.287 . S
C90 O84 1.255 . S
O91 Fe73 2.002 1_655 S
O91 C87 1.295 . S
O92 Fe75 1.997 1_655 S
O92 C87 1.235 . S
C93 O76 1.295 . S
C93 O77 1.235 . S
Fe94 O96 1.919 . S
Fe94 O99 1.972 1_655 S
Fe94 O100 1.977 1_655 S
Fe94 O105 2.001 . S
Fe94 O108 2.021 . S
Fe95 O96 1.919 . S
Fe95 O103 1.972 1_655 S
Fe95 O106 2.020 . S
Fe95 O110 2.000 . S
Fe95 O113 1.978 1_655 S
O96 Fe94 1.919 . S
O96 Fe95 1.919 . S
O96 Fe97 1.919 . S
Fe97 O96 1.919 . S
Fe97 O98 1.979 1_655 S
Fe97 O107 2.000 . S
Fe97 O111 2.019 . S
Fe97 O114 1.973 1_655 S
O98 Fe97 1.979 1_455 S
O98 C115 1.295 . S
O99 Fe94 1.972 1_455 S
O99 C115 1.235 . S
O100 Fe94 1.977 1_455 S
O100 C101 1.295 . S
C101 O100 1.295 . S
C101 O103 1.235 . S
C102 O107 1.287 . S
C102 O108 1.255 . S
O103 Fe95 1.972 1_455 S
O103 C101 1.235 . S
C104 O110 1.287 . S
C104 O111 1.255 . S
O105 Fe94 2.001 . S
O105 C112 1.287 . S
O106 Fe95 2.020 . S
O106 C112 1.255 . S
O107 Fe97 2.000 . S
O107 C102 1.287 . S
O108 Fe94 2.021 . S
O108 C102 1.255 . S
C109 O113 1.295 . S
C109 O114 1.235 . S
O110 Fe95 2.000 . S
O110 C104 1.287 . S
O111 Fe97 2.019 . S
O111 C104 1.255 . S
C112 O105 1.287 . S
C112 O106 1.255 . S
O113 Fe95 1.978 1_455 S
O113 C109 1.295 . S
O114 Fe97 1.973 1_455 S
O114 C109 1.235 . S
C115 O98 1.295 . S
C115 O99 1.235 . S
Fe116 O118 1.918 . S
Fe116 O121 1.997 . S
Fe116 O122 2.002 . S
Fe116 O127 1.976 . S
Fe116 O130 1.996 . S
Fe117 O118 1.918 . S
Fe117 O125 1.997 . S
Fe117 O128 1.996 . S
Fe117 O132 1.976 . S
Fe117 O135 2.002 . S
O118 Fe116 1.918 . S
O118 Fe117 1.918 . S
O118 Fe119 1.918 . S
Fe119 O118 1.918 . S
Fe119 O120 2.002 . S
Fe119 O129 1.976 . S
Fe119 O133 1.996 . S
Fe119 O136 1.997 . S
O120 Fe119 2.002 . S
O120 C137 1.295 . S
O121 Fe116 1.997 . S
O121 C137 1.235 . S
O122 Fe116 2.002 . S
O122 C123 1.295 . S
C123 O122 1.295 . S
C123 O125 1.235 . S
C124 O129 1.287 . S
C124 O130 1.255 . S
O125 Fe117 1.997 . S
O125 C123 1.235 . S
C126 O132 1.287 . S
C126 O133 1.255 . S
O127 Fe116 1.976 . S
O127 C134 1.287 . S
O128 Fe117 1.996 . S
O128 C134 1.255 . S
O129 Fe119 1.976 . S
O129 C124 1.287 . S
O130 Fe116 1.996 . S
O130 C124 1.255 . S
C131 O135 1.295 . S
C131 O136 1.235 . S
O132 Fe117 1.976 . S
O132 C126 1.287 . S
O133 Fe119 1.996 . S
O133 C126 1.255 . S
C134 O127 1.287 . S
C134 O128 1.255 . S
O135 Fe117 2.002 . S
O135 C131 1.295 . S
O136 Fe119 1.997 . S
O136 C131 1.235 . S
C137 O120 1.295 . S
C137 O121 1.235 . S
Fe138 O140 1.918 . S
Fe138 O143 1.997 . S
Fe138 O144 2.002 . S
Fe138 O149 1.976 . S
Fe138 O152 1.996 . S
Fe139 O140 1.918 . S
Fe139 O147 1.997 . S
Fe139 O150 1.996 . S
Fe139 O154 1.976 . S
Fe139 O157 2.002 . S
O140 Fe138 1.918 . S
O140 Fe139 1.918 . S
O140 Fe141 1.918 . S
Fe141 O140 1.918 . S
Fe141 O142 2.002 . S
Fe141 O151 1.976 . S
Fe141 O155 1.996 . S
Fe141 O158 1.997 . S
O142 Fe141 2.002 . S
O142 C159 1.295 . S
O143 Fe138 1.997 . S
O143 C159 1.235 . S
O144 Fe138 2.002 . S
O144 C145 1.295 . S
C145 O144 1.295 . S
C145 O147 1.235 . S
C146 O151 1.287 . S
C146 O152 1.255 . S
O147 Fe139 1.997 . S
O147 C145 1.235 . S
C148 O154 1.287 . S
C148 O155 1.255 . S
O149 Fe138 1.976 . S
O149 C156 1.287 . S
O150 Fe139 1.996 . S
O150 C156 1.255 . S
O151 Fe141 1.976 . S
O151 C146 1.287 . S
O152 Fe138 1.996 . S
O152 C146 1.255 . S
C153 O157 1.295 . S
C153 O158 1.235 . S
O154 Fe139 1.976 . S
O154 C148 1.287 . S
O155 Fe141 1.996 . S
O155 C148 1.255 . S
C156 O149 1.287 . S
C156 O150 1.255 . S
O157 Fe139 2.002 . S
O157 C153 1.295 . S
O158 Fe141 1.997 . S
O158 C153 1.235 . S
C159 O142 1.295 . S
C159 O143 1.235 . S
H160 C178 0.951 . S
H161 C180 0.951 . S
H162 C182 0.950 . S
H163 C183 0.950 . S
H164 C185 0.950 . S
H165 C188 0.950 . S
H166 C189 0.950 . S
H167 C191 0.950 . S
H168 C192 0.950 . S
H169 C193 0.951 . S
H170 C195 0.951 . S
H171 C197 0.950 . S
H172 C198 0.950 . S
H173 C200 0.950 . S
H174 C203 0.950 . S
H175 C204 0.950 . S
H176 C206 0.950 . S
H177 C207 0.950 . S
C178 H160 0.951 . S
C178 C179 1.366 . S
C178 C180 1.388 . S
C179 C178 1.366 . S
C179 C183 1.385 . S
C180 H161 0.951 . S
C180 C178 1.388 . S
C180 C181 1.366 . S
C181 C180 1.366 . S
C181 C182 1.414 . S
C181 C184 1.499 . S
C182 H162 0.950 . S
C182 C181 1.414 . S
C182 C183 1.374 . S
C183 H163 0.950 . S
C183 C179 1.385 . S
C183 C182 1.374 . S
C184 C181 1.499 . S
C184 C185 1.373 . S
C184 C186 1.389 . S
C185 H164 0.950 . S
C185 C184 1.373 . S
C185 C201 1.377 . S
C186 C184 1.389 . S
C186 C187 1.524 . S
C186 C200 1.377 . S
C187 C186 1.524 . S
C187 C188 1.397 . S
C187 C192 1.363 . S
C188 H165 0.950 . S
C188 C187 1.397 . S
C188 C189 1.334 . S
C189 H166 0.950 . S
C189 C188 1.334 . S
C189 C190 1.287 . S
C190 C189 1.287 . S
C190 C191 1.524 . S
C190 H209 0.913 . S
C191 H167 0.950 . S
C191 C190 1.524 . S
C191 C192 1.415 . S
C192 H168 0.950 . S
C192 C187 1.363 . S
C192 C191 1.415 . S
C193 H169 0.951 . S
C193 C194 1.366 . S
C193 C195 1.388 . S
C194 C193 1.366 . S
C194 C198 1.385 . S
C195 H170 0.951 . S
C195 C193 1.388 . S
C195 C196 1.366 . S
C196 C195 1.366 . S
C196 C197 1.414 . S
C196 C199 1.499 . S
C197 H171 0.950 . S
C197 C196 1.414 . S
C197 C198 1.374 . S
C198 H172 0.950 . S
C198 C194 1.385 . S
C198 C197 1.374 . S
C199 C196 1.499 . S
C199 C200 1.373 . S
C199 C201 1.389 . S
C200 H173 0.950 . S
C200 C186 1.377 . S
C200 C199 1.373 . S
C201 C185 1.377 . S
C201 C199 1.389 . S
C201 C202 1.524 . S
C202 C201 1.524 . S
C202 C203 1.397 . S
C202 C207 1.363 . S
C203 H174 0.950 . S
C203 C202 1.397 . S
C203 C204 1.334 . S
C204 H175 0.950 . S
C204 C203 1.334 . S
C204 C205 1.287 . S
C205 C204 1.287 . S
C205 C206 1.524 . S
C205 H208 0.999 . S
C206 H176 0.950 . S
C206 C205 1.524 . S
C206 C207 1.415 . S
C207 H177 0.950 . S
C207 C202 1.363 . S
C207 C206 1.415 . S
H208 C205 0.999 . S
H209 C190 0.913 . S
H210 C228 0.951 . S
H211 C230 0.951 . S
H212 C232 0.950 . S
H213 C233 0.950 . S
H214 C235 0.950 . S
H215 C238 0.950 . S
H216 C239 0.950 . S
H217 C241 0.950 . S
H218 C242 0.950 . S
H219 C243 0.951 . S
H220 C245 0.951 . S
H221 C247 0.950 . S
H222 C248 0.950 . S
H223 C250 0.950 . S
H224 C253 0.950 . S
H225 C254 0.950 . S
H226 C256 0.950 . S
H227 C257 0.950 . S
C228 H210 0.951 . S
C228 C229 1.366 . S
C228 C230 1.388 . S
C229 C228 1.366 . S
C229 C233 1.385 . S
C230 H211 0.951 . S
C230 C228 1.388 . S
C230 C231 1.366 . S
C231 C230 1.366 . S
C231 C232 1.414 . S
C231 C234 1.499 . S
C232 H212 0.950 . S
C232 C231 1.414 . S
C232 C233 1.374 . S
C233 H213 0.950 . S
C233 C229 1.385 . S
C233 C232 1.374 . S
C234 C231 1.499 . S
C234 C235 1.373 . S
C234 C236 1.389 . S
C235 H214 0.950 . S
C235 C234 1.373 . S
C235 C251 1.377 . S
C236 C234 1.389 . S
C236 C237 1.524 . S
C236 C250 1.377 . S
C237 C236 1.524 . S
C237 C238 1.397 . S
C237 C242 1.363 . S
C238 H215 0.950 . S
C238 C237 1.397 . S
C238 C239 1.334 . S
C239 H216 0.950 . S
C239 C238 1.334 . S
C239 C240 1.287 . S
C240 C239 1.287 . S
C240 C241 1.524 . S
C240 H259 0.913 . S
C241 H217 0.950 . S
C241 C240 1.524 . S
C241 C242 1.415 . S
C242 H218 0.950 . S
C242 C237 1.363 . S
C242 C241 1.415 . S
C243 H219 0.951 . S
C243 C244 1.366 . S
C243 C245 1.388 . S
C244 C243 1.366 . S
C244 C248 1.385 . S
C245 H220 0.951 . S
C245 C243 1.388 . S
C245 C246 1.366 . S
C246 C245 1.366 . S
C246 C247 1.414 . S
C246 C249 1.499 . S
C247 H221 0.950 . S
C247 C246 1.414 . S
C247 C248 1.374 . S
C248 H222 0.950 . S
C248 C244 1.385 . S
C248 C247 1.374 . S
C249 C246 1.499 . S
C249 C250 1.373 . S
C249 C251 1.389 . S
C250 H223 0.950 . S
C250 C236 1.377 . S
C250 C249 1.373 . S
C251 C235 1.377 . S
C251 C249 1.389 . S
C251 C252 1.524 . S
C252 C251 1.524 . S
C252 C253 1.397 . S
C252 C257 1.363 . S
C253 H224 0.950 . S
C253 C252 1.397 . S
C253 C254 1.334 . S
C254 H225 0.950 . S
C254 C253 1.334 . S
C254 C255 1.287 . S
C255 C254 1.287 . S
C255 C256 1.524 . S
C255 H258 0.999 . S
C256 H226 0.950 . S
C256 C255 1.524 . S
C256 C257 1.415 . S
C257 H227 0.950 . S
C257 C252 1.363 . S
C257 C256 1.415 . S
H258 C255 0.999 . S
H259 C240 0.913 . S
H260 C278 0.951 . S
H261 C280 0.951 . S
H262 C282 0.950 . S
H263 C283 0.950 1_554 S
H264 C285 0.950 . S
H265 C288 0.950 . S
H266 C289 0.950 . S
H267 C291 0.950 . S
H268 C292 0.950 . S
H269 C293 0.951 . S
H270 C295 0.951 . S
H271 C297 0.950 . S
H272 C298 0.950 . S
H273 C300 0.950 . S
H274 C303 0.950 . S
H275 C304 0.950 . S
H276 C306 0.950 . S
H277 C307 0.950 . S
C278 H260 0.951 . S
C278 C279 1.366 . S
C278 C280 1.388 . S
C279 C278 1.366 . S
C279 C283 1.385 . S
C280 H261 0.951 . S
C280 C278 1.388 . S
C280 C281 1.366 . S
C281 C280 1.366 . S
C281 C282 1.414 . S
C281 C284 1.499 . S
C282 H262 0.950 . S
C282 C281 1.414 . S
C282 C283 1.374 . S
C283 H263 0.950 1_556 S
C283 C279 1.385 . S
C283 C282 1.374 . S
C284 C281 1.499 . S
C284 C285 1.373 . S
C284 C286 1.389 . S
C285 H264 0.950 . S
C285 C284 1.373 . S
C285 C301 1.377 . S
C286 C284 1.389 . S
C286 C287 1.524 . S
C286 C300 1.377 . S
C287 C286 1.524 . S
C287 C288 1.397 . S
C287 C292 1.363 . S
C288 H265 0.950 . S
C288 C287 1.397 . S
C288 C289 1.334 . S
C289 H266 0.950 . S
C289 C288 1.334 . S
C289 C290 1.287 . S
C290 C289 1.287 . S
C290 C291 1.524 . S
C290 H309 0.913 . S
C291 H267 0.950 . S
C291 C290 1.524 . S
C291 C292 1.415 . S
C292 H268 0.950 . S
C292 C287 1.363 . S
C292 C291 1.415 . S
C293 H269 0.951 . S
C293 C294 1.366 . S
C293 C295 1.388 . S
C294 C293 1.366 . S
C294 C298 1.385 . S
C295 H270 0.951 . S
C295 C293 1.388 . S
C295 C296 1.366 . S
C296 C295 1.366 . S
C296 C297 1.414 . S
C296 C299 1.499 . S
C297 H271 0.950 . S
C297 C296 1.414 . S
C297 C298 1.374 . S
C298 H272 0.950 . S
C298 C294 1.385 . S
C298 C297 1.374 . S
C299 C296 1.499 . S
C299 C300 1.373 . S
C299 C301 1.389 . S
C300 H273 0.950 . S
C300 C286 1.377 . S
C300 C299 1.373 . S
C301 C285 1.377 . S
C301 C299 1.389 . S
C301 C302 1.524 . S
C302 C301 1.524 . S
C302 C303 1.397 . S
C302 C307 1.363 . S
C303 H274 0.950 . S
C303 C302 1.397 . S
C303 C304 1.334 . S
C304 H275 0.950 . S
C304 C303 1.334 . S
C304 C305 1.287 . S
C305 C304 1.287 . S
C305 C306 1.524 . S
C305 H308 0.999 1_655 S
C306 H276 0.950 . S
C306 C305 1.524 . S
C306 C307 1.415 . S
C307 H277 0.950 . S
C307 C302 1.363 . S
C307 C306 1.415 . S
H308 C305 0.999 1_455 S
H309 C290 0.913 . S
H310 C328 0.951 . S
H311 C330 0.951 . S
H312 C332 0.950 . S
H313 C333 0.950 . S
H314 C335 0.950 . S
H315 C338 0.950 . S
H316 C339 0.950 . S
H317 C341 0.950 . S
H318 C342 0.950 . S
H319 C343 0.951 . S
H320 C345 0.951 . S
H321 C347 0.950 . S
H322 C348 0.950 . S
H323 C350 0.950 . S
H324 C353 0.950 . S
H325 C354 0.950 . S
H326 C356 0.950 . S
H327 C357 0.950 . S
C328 H310 0.951 . S
C328 C329 1.366 . S
C328 C330 1.388 . S
C329 C328 1.366 . S
C329 C333 1.385 . S
C330 H311 0.951 . S
C330 C328 1.388 . S
C330 C331 1.366 . S
C331 C330 1.366 . S
C331 C332 1.414 . S
C331 C334 1.499 . S
C332 H312 0.950 . S
C332 C331 1.414 . S
C332 C333 1.374 . S
C333 H313 0.950 . S
C333 C329 1.385 . S
C333 C332 1.374 . S
C334 C331 1.499 . S
C334 C335 1.373 . S
C334 C336 1.389 . S
C335 H314 0.950 . S
C335 C334 1.373 . S
C335 C351 1.377 . S
C336 C334 1.389 . S
C336 C337 1.524 . S
C336 C350 1.377 . S
C337 C336 1.524 . S
C337 C338 1.397 . S
C337 C342 1.363 . S
C338 H315 0.950 . S
C338 C337 1.397 . S
C338 C339 1.334 . S
C339 H316 0.950 . S
C339 C338 1.334 . S
C339 C340 1.287 . S
C340 C339 1.287 . S
C340 C341 1.524 . S
C340 H359 0.913 . S
C341 H317 0.950 . S
C341 C340 1.524 . S
C341 C342 1.415 . S
C342 H318 0.950 . S
C342 C337 1.363 . S
C342 C341 1.415 . S
C343 H319 0.951 . S
C343 C344 1.366 . S
C343 C345 1.388 . S
C344 C343 1.366 . S
C344 C348 1.385 . S
C345 H320 0.951 . S
C345 C343 1.388 . S
C345 C346 1.366 . S
C346 C345 1.366 . S
C346 C347 1.414 . S
C346 C349 1.499 . S
C347 H321 0.950 . S
C347 C346 1.414 . S
C347 C348 1.374 . S
C348 H322 0.950 . S
C348 C344 1.385 . S
C348 C347 1.374 . S
C349 C346 1.499 . S
C349 C350 1.373 . S
C349 C351 1.389 . S
C350 H323 0.950 . S
C350 C336 1.377 . S
C350 C349 1.373 . S
C351 C335 1.377 . S
C351 C349 1.389 . S
C351 C352 1.524 . S
C352 C351 1.524 . S
C352 C353 1.397 . S
C352 C357 1.363 . S
C353 H324 0.950 . S
C353 C352 1.397 . S
C353 C354 1.334 . S
C354 H325 0.950 . S
C354 C353 1.334 . S
C354 C355 1.287 . S
C355 C354 1.287 . S
C355 C356 1.524 . S
C355 H358 0.999 . S
C356 H326 0.950 . S
C356 C355 1.524 . S
C356 C357 1.415 . S
C357 H327 0.950 . S
C357 C352 1.363 . S
C357 C356 1.415 . S
H358 C355 0.999 . S
H359 C340 0.913 . S
H360 C378 0.951 . S
H361 C380 0.951 . S
H362 C382 0.950 . S
H363 C383 0.950 1_554 S
H364 C385 0.950 . S
H365 C388 0.950 . S
H366 C389 0.950 . S
H367 C391 0.950 . S
H368 C392 0.950 . S
H369 C393 0.951 . S
H370 C395 0.951 . S
H371 C397 0.950 . S
H372 C398 0.950 . S
H373 C400 0.950 . S
H374 C403 0.950 . S
H375 C404 0.950 . S
H376 C406 0.950 . S
H377 C407 0.950 . S
C378 H360 0.951 . S
C378 C379 1.366 . S
C378 C380 1.388 . S
C379 C378 1.366 . S
C379 C383 1.385 . S
C380 H361 0.951 . S
C380 C378 1.388 . S
C380 C381 1.366 . S
C381 C380 1.366 . S
C381 C382 1.414 . S
C381 C384 1.499 . S
C382 H362 0.950 . S
C382 C381 1.414 . S
C382 C383 1.374 . S
C383 H363 0.950 1_556 S
C383 C379 1.385 . S
C383 C382 1.374 . S
C384 C381 1.499 . S
C384 C385 1.373 . S
C384 C386 1.389 . S
C385 H364 0.950 . S
C385 C384 1.373 . S
C385 C401 1.377 . S
C386 C384 1.389 . S
C386 C387 1.524 . S
C386 C400 1.377 . S
C387 C386 1.524 . S
C387 C388 1.397 . S
C387 C392 1.363 . S
C388 H365 0.950 . S
C388 C387 1.397 . S
C388 C389 1.334 . S
C389 H366 0.950 . S
C389 C388 1.334 . S
C389 C390 1.287 . S
C390 C389 1.287 . S
C390 C391 1.524 . S
C390 H409 0.913 . S
C391 H367 0.950 . S
C391 C390 1.524 . S
C391 C392 1.415 . S
C392 H368 0.950 . S
C392 C387 1.363 . S
C392 C391 1.415 . S
C393 H369 0.951 . S
C393 C394 1.366 . S
C393 C395 1.388 . S
C394 C393 1.366 . S
C394 C398 1.385 . S
C395 H370 0.951 . S
C395 C393 1.388 . S
C395 C396 1.366 . S
C396 C395 1.366 . S
C396 C397 1.414 . S
C396 C399 1.499 . S
C397 H371 0.950 . S
C397 C396 1.414 . S
C397 C398 1.374 . S
C398 H372 0.950 . S
C398 C394 1.385 . S
C398 C397 1.374 . S
C399 C396 1.499 . S
C399 C400 1.373 . S
C399 C401 1.389 . S
C400 H373 0.950 . S
C400 C386 1.377 . S
C400 C399 1.373 . S
C401 C385 1.377 . S
C401 C399 1.389 . S
C401 C402 1.524 . S
C402 C401 1.524 . S
C402 C403 1.397 . S
C402 C407 1.363 . S
C403 H374 0.950 . S
C403 C402 1.397 . S
C403 C404 1.334 . S
C404 H375 0.950 . S
C404 C403 1.334 . S
C404 C405 1.287 . S
C405 C404 1.287 . S
C405 C406 1.524 1_556 S
C405 H408 0.999 1_556 S
C406 H376 0.950 . S
C406 C405 1.524 1_554 S
C406 C407 1.415 1_554 S
C407 H377 0.950 . S
C407 C402 1.363 . S
C407 C406 1.415 1_556 S
H408 C405 0.999 1_554 S
H409 C390 0.913 . S
H410 C428 0.951 . S
H411 C430 0.951 . S
H412 C432 0.950 . S
H413 C433 0.950 . S
H414 C435 0.950 . S
H415 C438 0.950 . S
H416 C439 0.950 . S
H417 C441 0.950 . S
H418 C442 0.950 . S
H419 C443 0.951 . S
H420 C445 0.951 . S
H421 C447 0.950 . S
H422 C448 0.950 . S
H423 C450 0.950 . S
H424 C453 0.950 . S
H425 C454 0.950 . S
H426 C456 0.950 . S
H427 C457 0.950 . S
C428 H410 0.951 . S
C428 C429 1.366 . S
C428 C430 1.388 . S
C429 C428 1.366 . S
C429 C433 1.385 . S
C430 H411 0.951 . S
C430 C428 1.388 . S
C430 C431 1.366 . S
C431 C430 1.366 . S
C431 C432 1.414 . S
C431 C434 1.499 . S
C432 H412 0.950 . S
C432 C431 1.414 . S
C432 C433 1.374 . S
C433 H413 0.950 . S
C433 C429 1.385 . S
C433 C432 1.374 . S
C434 C431 1.499 . S
C434 C435 1.373 . S
C434 C436 1.389 . S
C435 H414 0.950 . S
C435 C434 1.373 . S
C435 C451 1.377 . S
C436 C434 1.389 . S
C436 C437 1.524 . S
C436 C450 1.377 . S
C437 C436 1.524 . S
C437 C438 1.397 . S
C437 C442 1.363 . S
C438 H415 0.950 . S
C438 C437 1.397 . S
C438 C439 1.334 . S
C439 H416 0.950 . S
C439 C438 1.334 . S
C439 C440 1.287 . S
C440 C439 1.287 . S
C440 C441 1.524 . S
C440 H459 0.913 . S
C441 H417 0.950 . S
C441 C440 1.524 . S
C441 C442 1.415 . S
C442 H418 0.950 . S
C442 C437 1.363 . S
C442 C441 1.415 . S
C443 H419 0.951 . S
C443 C444 1.366 . S
C443 C445 1.388 . S
C444 C443 1.366 . S
C444 C448 1.385 . S
C445 H420 0.951 . S
C445 C443 1.388 . S
C445 C446 1.366 . S
C446 C445 1.366 . S
C446 C447 1.414 . S
C446 C449 1.499 . S
C447 H421 0.950 . S
C447 C446 1.414 . S
C447 C448 1.374 . S
C448 H422 0.950 . S
C448 C444 1.385 . S
C448 C447 1.374 . S
C449 C446 1.499 . S
C449 C450 1.373 . S
C449 C451 1.389 . S
C450 H423 0.950 . S
C450 C436 1.377 . S
C450 C449 1.373 . S
C451 C435 1.377 . S
C451 C449 1.389 . S
C451 C452 1.524 . S
C452 C451 1.524 . S
C452 C453 1.397 . S
C452 C457 1.363 . S
C453 H424 0.950 . S
C453 C452 1.397 . S
C453 C454 1.334 . S
C454 H425 0.950 . S
C454 C453 1.334 . S
C454 C455 1.287 . S
C455 C454 1.287 . S
C455 C456 1.524 . S
C455 H458 0.999 . S
C456 H426 0.950 . S
C456 C455 1.524 . S
C456 C457 1.415 . S
C457 H427 0.950 . S
C457 C452 1.363 . S
C457 C456 1.415 . S
H458 C455 0.999 . S
H459 C440 0.913 . S
H460 C478 0.951 1_554 S
H461 C480 0.951 . S
H462 C482 0.950 . S
H463 C483 0.950 . S
H464 C485 0.950 . S
H465 C488 0.950 . S
H466 C489 0.950 . S
H467 C491 0.950 1_554 S
H468 C492 0.950 . S
H469 C493 0.951 . S
H470 C495 0.951 . S
H471 C497 0.950 . S
H472 C498 0.950 . S
H473 C500 0.950 . S
H474 C503 0.950 . S
H475 C504 0.950 . S
H476 C506 0.950 . S
H477 C507 0.950 . S
C478 H460 0.951 1_556 S
C478 C479 1.366 . S
C478 C480 1.388 . S
C479 C478 1.366 . S
C479 C483 1.385 . S
C480 H461 0.951 . S
C480 C478 1.388 . S
C480 C481 1.366 . S
C481 C480 1.366 . S
C481 C482 1.414 . S
C481 C484 1.499 . S
C482 H462 0.950 . S
C482 C481 1.414 . S
C482 C483 1.374 . S
C483 H463 0.950 . S
C483 C479 1.385 . S
C483 C482 1.374 . S
C484 C481 1.499 . S
C484 C485 1.373 . S
C484 C486 1.389 . S
C485 H464 0.950 . S
C485 C484 1.373 . S
C485 C501 1.377 . S
C486 C484 1.389 . S
C486 C487 1.524 . S
C486 C500 1.377 . S
C487 C486 1.524 . S
C487 C488 1.397 . S
C487 C492 1.363 . S
C488 H465 0.950 . S
C488 C487 1.397 . S
C488 C489 1.334 . S
C489 H466 0.950 . S
C489 C488 1.334 . S
C489 C490 1.287 . S
C490 C489 1.287 . S
C490 C491 1.524 . S
C490 H509 0.913 . S
C491 H467 0.950 1_556 S
C491 C490 1.524 . S
C491 C492 1.415 . S
C492 H468 0.950 . S
C492 C487 1.363 . S
C492 C491 1.415 . S
C493 H469 0.951 . S
C493 C494 1.366 . S
C493 C495 1.388 . S
C494 C493 1.366 . S
C494 C498 1.385 . S
C495 H470 0.951 . S
C495 C493 1.388 . S
C495 C496 1.366 . S
C496 C495 1.366 . S
C496 C497 1.414 . S
C496 C499 1.499 . S
C497 H471 0.950 . S
C497 C496 1.414 . S
C497 C498 1.374 . S
C498 H472 0.950 . S
C498 C494 1.385 . S
C498 C497 1.374 . S
C499 C496 1.499 . S
C499 C500 1.373 . S
C499 C501 1.389 . S
C500 H473 0.950 . S
C500 C486 1.377 . S
C500 C499 1.373 . S
C501 C485 1.377 . S
C501 C499 1.389 . S
C501 C502 1.524 . S
C502 C501 1.524 . S
C502 C503 1.397 . S
C502 C507 1.363 . S
C503 H474 0.950 . S
C503 C502 1.397 . S
C503 C504 1.334 . S
C504 H475 0.950 . S
C504 C503 1.334 . S
C504 C505 1.287 . S
C505 C504 1.287 . S
C505 C506 1.524 . S
C505 H508 0.999 . S
C506 H476 0.950 . S
C506 C505 1.524 . S
C506 C507 1.415 . S
C507 H477 0.950 . S
C507 C502 1.363 . S
C507 C506 1.415 . S
H508 C505 0.999 . S
H509 C490 0.913 . S
H510 C528 0.951 . S
H511 C530 0.951 . S
H512 C532 0.950 . S
H513 C533 0.950 . S
H514 C535 0.950 . S
H515 C538 0.950 . S
H516 C539 0.950 . S
H517 C541 0.950 . S
H518 C542 0.950 . S
H519 C543 0.951 . S
H520 C545 0.951 . S
H521 C547 0.950 . S
H522 C548 0.950 . S
H523 C550 0.950 . S
H524 C553 0.950 . S
H525 C554 0.950 . S
H526 C556 0.950 . S
H527 C557 0.950 . S
C528 H510 0.951 . S
C528 C529 1.366 . S
C528 C530 1.388 . S
C529 C528 1.366 . S
C529 C533 1.385 . S
C530 H511 0.951 . S
C530 C528 1.388 . S
C530 C531 1.366 . S
C531 C530 1.366 . S
C531 C532 1.414 . S
C531 C534 1.499 . S
C532 H512 0.950 . S
C532 C531 1.414 . S
C532 C533 1.374 . S
C533 H513 0.950 . S
C533 C529 1.385 . S
C533 C532 1.374 . S
C534 C531 1.499 . S
C534 C535 1.373 . S
C534 C536 1.389 . S
C535 H514 0.950 . S
C535 C534 1.373 . S
C535 C551 1.377 . S
C536 C534 1.389 . S
C536 C537 1.524 . S
C536 C550 1.377 . S
C537 C536 1.524 . S
C537 C538 1.397 . S
C537 C542 1.363 . S
C538 H515 0.950 . S
C538 C537 1.397 . S
C538 C539 1.334 . S
C539 H516 0.950 . S
C539 C538 1.334 . S
C539 C540 1.287 . S
C540 C539 1.287 . S
C540 C541 1.524 . S
C540 H559 0.913 . S
C541 H517 0.950 . S
C541 C540 1.524 . S
C541 C542 1.415 . S
C542 H518 0.950 . S
C542 C537 1.363 . S
C542 C541 1.415 . S
C543 H519 0.951 . S
C543 C544 1.366 . S
C543 C545 1.388 . S
C544 C543 1.366 . S
C544 C548 1.385 . S
C545 H520 0.951 . S
C545 C543 1.388 . S
C545 C546 1.366 . S
C546 C545 1.366 . S
C546 C547 1.414 . S
C546 C549 1.499 . S
C547 H521 0.950 . S
C547 C546 1.414 . S
C547 C548 1.374 . S
C548 H522 0.950 . S
C548 C544 1.385 . S
C548 C547 1.374 . S
C549 C546 1.499 . S
C549 C550 1.373 . S
C549 C551 1.389 . S
C550 H523 0.950 . S
C550 C536 1.377 . S
C550 C549 1.373 . S
C551 C535 1.377 . S
C551 C549 1.389 . S
C551 C552 1.524 . S
C552 C551 1.524 . S
C552 C553 1.397 . S
C552 C557 1.363 . S
C553 H524 0.950 . S
C553 C552 1.397 . S
C553 C554 1.334 . S
C554 H525 0.950 . S
C554 C553 1.334 . S
C554 C555 1.287 . S
C555 C554 1.287 . S
C555 C556 1.524 . S
C555 H558 0.999 . S
C556 H526 0.950 . S
C556 C555 1.524 . S
C556 C557 1.415 . S
C557 H527 0.950 . S
C557 C552 1.363 . S
C557 C556 1.415 . S
H558 C555 0.999 . S
H559 C540 0.913 . S
H560 C578 0.951 1_554 S
H561 C580 0.951 . S
H562 C582 0.950 . S
H563 C583 0.950 . S
H564 C585 0.950 . S
H565 C588 0.950 . S
H566 C589 0.950 . S
H567 C591 0.941 1_554 S
H568 C592 0.950 . S
H569 C593 0.951 . S
H570 C595 0.951 . S
H571 C597 0.950 . S
H572 C598 0.950 . S
H573 C600 0.950 . S
H574 C603 0.950 . S
H575 C604 0.950 . S
H576 C606 0.950 . S
H577 C607 0.950 . S
C578 H560 0.951 1_556 S
C578 C579 1.366 . S
C578 C580 1.388 . S
C579 C578 1.366 . S
C579 C583 1.385 . S
C580 H561 0.951 . S
C580 C578 1.388 . S
C580 C581 1.366 . S
C581 C580 1.366 . S
C581 C582 1.414 . S
C581 C584 1.499 . S
C582 H562 0.950 . S
C582 C581 1.414 . S
C582 C583 1.374 . S
C583 H563 0.950 . S
C583 C579 1.385 . S
C583 C582 1.374 . S
C584 C581 1.499 . S
C584 C585 1.373 . S
C584 C586 1.389 . S
C585 H564 0.950 . S
C585 C584 1.373 . S
C585 C601 1.377 . S
C586 C584 1.389 . S
C586 C587 1.524 . S
C586 C600 1.377 . S
C587 C586 1.524 . S
C587 C588 1.397 . S
C587 C592 1.363 . S
C588 H565 0.950 . S
C588 C587 1.397 . S
C588 C589 1.334 . S
C589 H566 0.950 . S
C589 C588 1.334 . S
C589 C590 1.287 . S
C590 C589 1.287 . S
C590 C591 1.528 . S
C590 H609 0.913 . S
C591 H567 0.941 1_556 S
C591 C590 1.528 . S
C591 C592 1.421 . S
C592 H568 0.950 . S
C592 C587 1.363 . S
C592 C591 1.421 . S
C593 H569 0.951 . S
C593 C594 1.366 . S
C593 C595 1.388 . S
C594 C593 1.366 . S
C594 C598 1.385 . S
C595 H570 0.951 . S
C595 C593 1.388 . S
C595 C596 1.366 . S
C596 C595 1.366 . S
C596 C597 1.414 . S
C596 C599 1.499 . S
C597 H571 0.950 . S
C597 C596 1.414 . S
C597 C598 1.374 . S
C598 H572 0.950 . S
C598 C594 1.385 . S
C598 C597 1.374 . S
C599 C596 1.499 . S
C599 C600 1.373 . S
C599 C601 1.389 . S
C600 H573 0.950 . S
C600 C586 1.377 . S
C600 C599 1.373 . S
C601 C585 1.377 . S
C601 C599 1.389 . S
C601 C602 1.524 . S
C602 C601 1.524 . S
C602 C603 1.397 . S
C602 C607 1.363 . S
C603 H574 0.950 . S
C603 C602 1.397 . S
C603 C604 1.334 . S
C604 H575 0.950 . S
C604 C603 1.334 . S
C604 C605 1.287 . S
C605 C604 1.287 . S
C605 C606 1.524 . S
C605 H608 0.999 . S
C606 H576 0.950 . S
C606 C605 1.524 . S
C606 C607 1.415 . S
C607 H577 0.950 . S
C607 C602 1.363 . S
C607 C606 1.415 . S
H608 C605 0.999 . S
H609 C590 0.913 . S
H610 C628 0.951 . S
H611 C630 0.951 . S
H612 C632 0.950 . S
H613 C633 0.950 . S
H614 C635 0.950 . S
H615 C638 0.950 . S
H616 C639 0.950 . S
H617 C641 0.950 . S
H618 C642 0.950 . S
H619 C643 0.951 . S
H620 C645 0.951 . S
H621 C647 0.950 . S
H622 C648 0.950 . S
H623 C650 0.950 . S
H624 C653 0.950 . S
H625 C654 0.950 . S
H626 C656 0.950 . S
H627 C657 0.950 . S
C628 H610 0.951 . S
C628 C629 1.366 . S
C628 C630 1.388 . S
C629 C628 1.366 . S
C629 C633 1.385 . S
C630 H611 0.951 . S
C630 C628 1.388 . S
C630 C631 1.366 . S
C631 C630 1.366 . S
C631 C632 1.414 . S
C631 C634 1.499 . S
C632 H612 0.950 . S
C632 C631 1.414 . S
C632 C633 1.374 . S
C633 H613 0.950 . S
C633 C629 1.385 . S
C633 C632 1.374 . S
C634 C631 1.499 . S
C634 C635 1.373 . S
C634 C636 1.389 . S
C635 H614 0.950 . S
C635 C634 1.373 . S
C635 C651 1.377 . S
C636 C634 1.389 . S
C636 C637 1.524 . S
C636 C650 1.377 . S
C637 C636 1.524 . S
C637 C638 1.397 . S
C637 C642 1.363 . S
C638 H615 0.950 . S
C638 C637 1.397 . S
C638 C639 1.334 . S
C639 H616 0.950 . S
C639 C638 1.334 . S
C639 C640 1.287 . S
C640 C639 1.287 . S
C640 C641 1.524 . S
C640 H659 0.913 . S
C641 H617 0.950 . S
C641 C640 1.524 . S
C641 C642 1.415 . S
C642 H618 0.950 . S
C642 C637 1.363 . S
C642 C641 1.415 . S
C643 H619 0.951 . S
C643 C644 1.366 . S
C643 C645 1.388 . S
C644 C643 1.366 . S
C644 C648 1.385 . S
C645 H620 0.951 . S
C645 C643 1.388 . S
C645 C646 1.366 . S
C646 C645 1.366 . S
C646 C647 1.414 . S
C646 C649 1.499 . S
C647 H621 0.950 . S
C647 C646 1.414 . S
C647 C648 1.374 . S
C648 H622 0.950 . S
C648 C644 1.385 . S
C648 C647 1.374 . S
C649 C646 1.499 . S
C649 C650 1.373 . S
C649 C651 1.389 . S
C650 H623 0.950 . S
C650 C636 1.377 . S
C650 C649 1.373 . S
C651 C635 1.377 . S
C651 C649 1.389 . S
C651 C652 1.524 . S
C652 C651 1.524 . S
C652 C653 1.397 . S
C652 C657 1.363 . S
C653 H624 0.950 . S
C653 C652 1.397 . S
C653 C654 1.334 . S
C654 H625 0.950 . S
C654 C653 1.334 . S
C654 C655 1.287 . S
C655 C654 1.287 . S
C655 C656 1.524 . S
C655 H658 0.999 . S
C656 H626 0.950 . S
C656 C655 1.524 . S
C656 C657 1.415 . S
C657 H627 0.950 . S
C657 C652 1.363 . S
C657 C656 1.415 . S
H658 C655 0.999 . S
H659 C640 0.913 . S
H660 C678 0.951 1_554 S
H661 C680 0.951 . S
H662 C682 0.950 . S
H663 C683 0.950 . S
H664 C685 0.950 . S
H665 C688 0.950 . S
H666 C689 0.950 . S
H667 C691 0.950 . S
H668 C692 0.950 . S
H669 C693 0.951 . S
H670 C695 0.951 . S
H671 C697 0.950 . S
H672 C698 0.950 . S
H673 C700 0.950 . S
H674 C703 0.950 . S
H675 C704 0.950 . S
H676 C706 0.950 . S
H677 C707 0.950 . S
C678 H660 0.951 1_556 S
C678 C679 1.366 . S
C678 C680 1.388 . S
C679 C678 1.366 . S
C679 C683 1.385 . S
C680 H661 0.951 . S
C680 C678 1.388 . S
C680 C681 1.366 . S
C681 C680 1.366 . S
C681 C682 1.414 . S
C681 C684 1.499 . S
C682 H662 0.950 . S
C682 C681 1.414 . S
C682 C683 1.374 . S
C683 H663 0.950 . S
C683 C679 1.385 . S
C683 C682 1.374 . S
C684 C681 1.499 . S
C684 C685 1.373 . S
C684 C686 1.389 . S
C685 H664 0.950 . S
C685 C684 1.373 . S
C685 C701 1.377 . S
C686 C684 1.389 . S
C686 C687 1.524 . S
C686 C700 1.377 . S
C687 C686 1.524 . S
C687 C688 1.397 . S
C687 C692 1.363 . S
C688 H665 0.950 . S
C688 C687 1.397 . S
C688 C689 1.334 . S
C689 H666 0.950 . S
C689 C688 1.334 . S
C689 C690 1.315 . S
C690 C689 1.315 . S
C690 C691 1.514 1_556 S
C690 H709 0.891 1_556 S
C691 H667 0.950 . S
C691 C690 1.514 1_554 S
C691 C692 1.415 1_554 S
C692 H668 0.950 . S
C692 C687 1.363 . S
C692 C691 1.415 1_556 S
C693 H669 0.951 . S
C693 C694 1.366 . S
C693 C695 1.388 . S
C694 C693 1.366 . S
C694 C698 1.385 . S
C695 H670 0.951 . S
C695 C693 1.388 . S
C695 C696 1.366 . S
C696 C695 1.366 . S
C696 C697 1.414 . S
C696 C699 1.499 . S
C697 H671 0.950 . S
C697 C696 1.414 . S
C697 C698 1.374 . S
C698 H672 0.950 . S
C698 C694 1.385 . S
C698 C697 1.374 . S
C699 C696 1.499 . S
C699 C700 1.373 . S
C699 C701 1.389 . S
C700 H673 0.950 . S
C700 C686 1.377 . S
C700 C699 1.373 . S
C701 C685 1.377 . S
C701 C699 1.389 . S
C701 C702 1.524 . S
C702 C701 1.524 . S
C702 C703 1.397 . S
C702 C707 1.363 . S
C703 H674 0.950 . S
C703 C702 1.397 . S
C703 C704 1.334 . S
C704 H675 0.950 . S
C704 C703 1.334 . S
C704 C705 1.287 . S
C705 C704 1.287 . S
C705 C706 1.524 . S
C705 H708 0.999 . S
C706 H676 0.950 . S
C706 C705 1.524 . S
C706 C707 1.415 . S
C707 H677 0.950 . S
C707 C702 1.363 . S
C707 C706 1.415 . S
H708 C705 0.999 . S
H709 C690 0.891 1_554 S
H710 C728 0.951 . S
H711 C730 0.951 . S
H712 C732 0.950 . S
H713 C733 0.950 . S
H714 C735 0.950 . S
H715 C738 0.950 . S
H716 C739 0.950 . S
H717 C741 0.950 . S
H718 C742 0.950 . S
H719 C743 0.951 . S
H720 C745 0.951 . S
H721 C747 0.950 . S
H722 C748 0.950 . S
H723 C750 0.950 . S
H724 C753 0.950 . S
H725 C754 0.950 . S
H726 C756 0.950 . S
H727 C757 0.950 . S
C728 H710 0.951 . S
C728 C729 1.366 . S
C728 C730 1.388 . S
C729 C728 1.366 . S
C729 C733 1.385 . S
C730 H711 0.951 . S
C730 C728 1.388 . S
C730 C731 1.366 . S
C731 C730 1.366 . S
C731 C732 1.414 . S
C731 C734 1.499 . S
C732 H712 0.950 . S
C732 C731 1.414 . S
C732 C733 1.374 . S
C733 H713 0.950 . S
C733 C729 1.385 . S
C733 C732 1.374 . S
C734 C731 1.499 . S
C734 C735 1.373 . S
C734 C736 1.389 . S
C735 H714 0.950 . S
C735 C734 1.373 . S
C735 C751 1.377 . S
C736 C734 1.389 . S
C736 C737 1.524 . S
C736 C750 1.377 . S
C737 C736 1.524 . S
C737 C738 1.397 . S
C737 C742 1.363 . S
C738 H715 0.950 . S
C738 C737 1.397 . S
C738 C739 1.334 . S
C739 H716 0.950 . S
C739 C738 1.334 . S
C739 C740 1.287 . S
C740 C739 1.287 . S
C740 C741 1.524 . S
C740 H759 0.913 . S
C741 H717 0.950 . S
C741 C740 1.524 . S
C741 C742 1.415 . S
C742 H718 0.950 . S
C742 C737 1.363 . S
C742 C741 1.415 . S
C743 H719 0.951 . S
C743 C744 1.366 . S
C743 C745 1.388 . S
C744 C743 1.366 . S
C744 C748 1.385 . S
C745 H720 0.951 . S
C745 C743 1.388 . S
C745 C746 1.366 . S
C746 C745 1.366 . S
C746 C747 1.414 . S
C746 C749 1.499 . S
C747 H721 0.950 . S
C747 C746 1.414 . S
C747 C748 1.374 . S
C748 H722 0.950 . S
C748 C744 1.385 . S
C748 C747 1.374 . S
C749 C746 1.499 . S
C749 C750 1.373 . S
C749 C751 1.389 . S
C750 H723 0.950 . S
C750 C736 1.377 . S
C750 C749 1.373 . S
C751 C735 1.377 . S
C751 C749 1.389 . S
C751 C752 1.524 . S
C752 C751 1.524 . S
C752 C753 1.397 . S
C752 C757 1.363 . S
C753 H724 0.950 . S
C753 C752 1.397 . S
C753 C754 1.334 . S
C754 H725 0.950 . S
C754 C753 1.334 . S
C754 C755 1.287 . S
C755 C754 1.287 . S
C755 C756 1.524 . S
C755 H758 0.999 . S
C756 H726 0.950 . S
C756 C755 1.524 . S
C756 C757 1.415 . S
C757 H727 0.950 . S
C757 C752 1.363 . S
C757 C756 1.415 . S
H758 C755 0.999 . S
H759 C740 0.913 . S
H760 C778 0.951 . S
H761 C780 0.951 . S
H762 C782 0.950 . S
H763 C783 0.950 1_554 S
H764 C785 0.950 . S
H765 C788 0.950 . S
H766 C789 0.950 . S
H767 C791 0.950 . S
H768 C792 0.950 . S
H769 C793 0.951 . S
H770 C795 0.951 . S
H771 C797 0.950 . S
H772 C798 0.950 . S
H773 C800 0.950 . S
H774 C803 0.950 . S
H775 C804 0.950 . S
H776 C806 0.979 . S
H777 C807 0.950 . S
C778 H760 0.951 . S
C778 C779 1.366 . S
C778 C780 1.388 . S
C779 C778 1.366 . S
C779 C783 1.385 . S
C780 H761 0.951 . S
C780 C778 1.388 . S
C780 C781 1.366 . S
C781 C780 1.366 . S
C781 C782 1.414 . S
C781 C784 1.499 . S
C782 H762 0.950 . S
C782 C781 1.414 . S
C782 C783 1.374 . S
C783 H763 0.950 1_556 S
C783 C779 1.385 . S
C783 C782 1.374 . S
C784 C781 1.499 . S
C784 C785 1.373 1_565 S
C784 C786 1.389 . S
C785 H764 0.950 . S
C785 C784 1.373 1_545 S
C785 C801 1.377 . S
C786 C784 1.389 . S
C786 C787 1.524 . S
C786 C800 1.377 1_565 S
C787 C786 1.524 . S
C787 C788 1.397 . S
C787 C792 1.363 . S
C788 H765 0.950 . S
C788 C787 1.397 . S
C788 C789 1.334 . S
C789 H766 0.950 . S
C789 C788 1.334 . S
C789 C790 1.287 . S
C790 C789 1.287 . S
C790 C791 1.524 . S
C790 H809 0.913 . S
C791 H767 0.950 . S
C791 C790 1.524 . S
C791 C792 1.415 . S
C792 H768 0.950 . S
C792 C787 1.363 . S
C792 C791 1.415 . S
C793 H769 0.951 . S
C793 C794 1.366 . S
C793 C795 1.388 . S
C794 C793 1.366 . S
C794 C798 1.385 . S
C795 H770 0.951 . S
C795 C793 1.388 . S
C795 C796 1.366 . S
C796 C795 1.366 . S
C796 C797 1.414 . S
C796 C799 1.499 . S
C797 H771 0.950 . S
C797 C796 1.414 . S
C797 C798 1.374 . S
C798 H772 0.950 . S
C798 C794 1.385 . S
C798 C797 1.374 . S
C799 C796 1.499 . S
C799 C800 1.373 . S
C799 C801 1.389 . S
C800 H773 0.950 . S
C800 C786 1.377 1_545 S
C800 C799 1.373 . S
C801 C785 1.377 . S
C801 C799 1.389 . S
C801 C802 1.524 . S
C802 C801 1.524 . S
C802 C803 1.397 . S
C802 C807 1.363 . S
C803 H774 0.950 . S
C803 C802 1.397 . S
C803 C804 1.334 . S
C804 H775 0.950 . S
C804 C803 1.334 . S
C804 C805 1.287 . S
C805 C804 1.287 . S
C805 C806 1.507 1_556 S
C805 H808 0.999 . S
C806 H776 0.979 . S
C806 C805 1.507 1_554 S
C806 C807 1.399 1_554 S
C807 H777 0.950 . S
C807 C802 1.363 . S
C807 C806 1.399 1_556 S
H808 C805 0.999 . S
H809 C790 0.913 . S
H810 C828 0.951 . S
H811 C830 0.951 . S
H812 C832 0.950 . S
H813 C833 0.950 . S
H814 C835 0.950 . S
H815 C838 0.950 . S
H816 C839 0.950 . S
H817 C841 0.950 . S
H818 C842 0.950 . S
H819 C843 0.951 . S
H820 C845 0.951 . S
H821 C847 0.950 . S
H822 C848 0.950 . S
H823 C850 0.950 . S
H824 C853 0.950 . S
H825 C854 0.950 . S
H826 C856 0.950 . S
H827 C857 0.950 . S
C828 H810 0.951 . S
C828 C829 1.366 . S
C828 C830 1.388 . S
C829 C828 1.366 . S
C829 C833 1.385 . S
C830 H811 0.951 . S
C830 C828 1.388 . S
C830 C831 1.366 . S
C831 C830 1.366 . S
C831 C832 1.414 . S
C831 C834 1.499 . S
C832 H812 0.950 . S
C832 C831 1.414 . S
C832 C833 1.374 . S
C833 H813 0.950 . S
C833 C829 1.385 . S
C833 C832 1.374 . S
C834 C831 1.499 . S
C834 C835 1.373 1_545 S
C834 C836 1.389 . S
C835 H814 0.950 . S
C835 C834 1.373 1_565 S
C835 C851 1.377 . S
C836 C834 1.389 . S
C836 C837 1.524 . S
C836 C850 1.377 1_545 S
C837 C836 1.524 . S
C837 C838 1.397 . S
C837 C842 1.363 . S
C838 H815 0.950 . S
C838 C837 1.397 . S
C838 C839 1.334 . S
C839 H816 0.950 . S
C839 C838 1.334 . S
C839 C840 1.287 . S
C840 C839 1.287 . S
C840 C841 1.524 . S
C840 H859 0.913 . S
C841 H817 0.950 . S
C841 C840 1.524 . S
C841 C842 1.415 . S
C842 H818 0.950 . S
C842 C837 1.363 . S
C842 C841 1.415 . S
C843 H819 0.951 . S
C843 C844 1.366 . S
C843 C845 1.388 . S
C844 C843 1.366 . S
C844 C848 1.385 . S
C845 H820 0.951 . S
C845 C843 1.388 . S
C845 C846 1.366 . S
C846 C845 1.366 . S
C846 C847 1.414 . S
C846 C849 1.499 . S
C847 H821 0.950 . S
C847 C846 1.414 . S
C847 C848 1.374 . S
C848 H822 0.950 . S
C848 C844 1.385 . S
C848 C847 1.374 . S
C849 C846 1.499 . S
C849 C850 1.373 . S
C849 C851 1.389 . S
C850 H823 0.950 . S
C850 C836 1.377 1_565 S
C850 C849 1.373 . S
C851 C835 1.377 . S
C851 C849 1.389 . S
C851 C852 1.524 . S
C852 C851 1.524 . S
C852 C853 1.397 . S
C852 C857 1.363 . S
C853 H824 0.950 . S
C853 C852 1.397 . S
C853 C854 1.334 . S
C854 H825 0.950 . S
C854 C853 1.334 . S
C854 C855 1.287 . S
C855 C854 1.287 . S
C855 C856 1.524 . S
C855 H858 0.999 . S
C856 H826 0.950 . S
C856 C855 1.524 . S
C856 C857 1.415 . S
C857 H827 0.950 . S
C857 C852 1.363 . S
C857 C856 1.415 . S
H858 C855 0.999 . S
H859 C840 0.913 . S
H860 C878 0.951 . S
H861 C880 0.951 1_545 S
H862 C882 0.950 . S
H863 C883 0.950 . S
H864 C885 0.950 . S
H865 C888 0.949 . S
H866 C889 0.950 . S
H867 C891 0.950 . S
H868 C892 0.950 . S
H869 C893 0.951 . S
H870 C895 0.951 . S
H871 C897 0.950 . S
H872 C898 0.950 . S
H873 C900 0.950 . S
H874 C903 0.950 . S
H875 C904 0.950 . S
H876 C906 0.950 . S
H877 C907 0.950 . S
C878 H860 0.951 . S
C878 C879 1.366 . S
C878 C880 1.388 . S
C879 C878 1.366 . S
C879 C883 1.385 . S
C880 H861 0.951 1_565 S
C880 C878 1.388 . S
C880 C881 1.366 . S
C881 C880 1.366 . S
C881 C882 1.414 . S
C881 C884 1.499 1_565 S
C882 H862 0.950 . S
C882 C881 1.414 . S
C882 C883 1.374 . S
C883 H863 0.950 . S
C883 C879 1.385 . S
C883 C882 1.374 . S
C884 C881 1.499 1_545 S
C884 C885 1.373 1_545 S
C884 C886 1.389 . S
C885 H864 0.950 . S
C885 C884 1.373 1_565 S
C885 C901 1.377 1_565 S
C886 C884 1.389 . S
C886 C887 1.524 . S
C886 C900 1.377 . S
C887 C886 1.524 . S
C887 C888 1.397 1_556 S
C887 C892 1.363 . S
C888 H865 0.949 . S
C888 C887 1.397 1_554 S
C888 C889 1.334 . S
C889 H866 0.950 . S
C889 C888 1.334 . S
C889 C890 1.287 . S
C890 C889 1.287 . S
C890 C891 1.524 . S
C890 H909 0.913 . S
C891 H867 0.950 . S
C891 C890 1.524 . S
C891 C892 1.415 1_554 S
C892 H868 0.950 . S
C892 C887 1.363 . S
C892 C891 1.415 1_556 S
C893 H869 0.951 . S
C893 C894 1.366 . S
C893 C895 1.388 . S
C894 C893 1.366 . S
C894 C898 1.385 . S
C895 H870 0.951 . S
C895 C893 1.388 . S
C895 C896 1.366 . S
C896 C895 1.366 . S
C896 C897 1.414 . S
C896 C899 1.499 . S
C897 H871 0.950 . S
C897 C896 1.414 . S
C897 C898 1.374 . S
C898 H872 0.950 . S
C898 C894 1.385 . S
C898 C897 1.374 . S
C899 C896 1.499 . S
C899 C900 1.373 . S
C899 C901 1.389 . S
C900 H873 0.950 . S
C900 C886 1.377 . S
C900 C899 1.373 . S
C901 C885 1.377 1_545 S
C901 C899 1.389 . S
C901 C902 1.524 . S
C902 C901 1.524 . S
C902 C903 1.397 . S
C902 C907 1.363 1_545 S
C903 H874 0.950 . S
C903 C902 1.397 . S
C903 C904 1.334 . S
C904 H875 0.950 . S
C904 C903 1.334 . S
C904 C905 1.287 1_545 S
C905 C904 1.287 1_565 S
C905 C906 1.524 . S
C905 H908 0.999 . S
C906 H876 0.950 . S
C906 C905 1.524 . S
C906 C907 1.415 . S
C907 H877 0.950 . S
C907 C902 1.363 1_565 S
C907 C906 1.415 . S
H908 C905 0.999 . S
H909 C890 0.913 . S
H910 C928 0.951 . S
H911 C930 0.951 . S
H912 C932 0.950 . S
H913 C933 0.950 . S
H914 C935 0.950 . S
H915 C938 0.950 . S
H916 C939 0.950 . S
H917 C941 0.950 . S
H918 C942 0.950 . S
H919 C943 0.951 . S
H920 C945 0.951 . S
H921 C947 0.950 . S
H922 C948 0.950 . S
H923 C950 0.950 . S
H924 C953 0.950 . S
H925 C954 0.950 . S
H926 C956 0.950 . S
H927 C957 0.950 . S
C928 H910 0.951 . S
C928 C929 1.366 . S
C928 C930 1.388 . S
C929 C928 1.366 . S
C929 C933 1.385 . S
C930 H911 0.951 . S
C930 C928 1.388 . S
C930 C931 1.366 . S
C931 C930 1.366 . S
C931 C932 1.414 . S
C931 C934 1.471 1_545 S
C932 H912 0.950 . S
C932 C931 1.414 . S
C932 C933 1.374 . S
C933 H913 0.950 . S
C933 C929 1.385 . S
C933 C932 1.374 . S
C934 C931 1.471 1_565 S
C934 C935 1.411 . S
C934 C936 1.382 1_565 S
C935 H914 0.950 . S
C935 C934 1.411 . S
C935 C951 1.377 . S
C936 C934 1.382 1_545 S
C936 C937 1.524 . S
C936 C950 1.377 1_545 S
C937 C936 1.524 . S
C937 C938 1.397 . S
C937 C942 1.363 . S
C938 H915 0.950 . S
C938 C937 1.397 . S
C938 C939 1.334 . S
C939 H916 0.950 . S
C939 C938 1.334 . S
C939 C940 1.287 . S
C940 C939 1.287 . S
C940 C941 1.524 . S
C940 H959 0.913 . S
C941 H917 0.950 . S
C941 C940 1.524 . S
C941 C942 1.415 . S
C942 H918 0.950 . S
C942 C937 1.363 . S
C942 C941 1.415 . S
C943 H919 0.951 . S
C943 C944 1.366 . S
C943 C945 1.388 . S
C944 C943 1.366 . S
C944 C948 1.385 . S
C945 H920 0.951 . S
C945 C943 1.388 . S
C945 C946 1.366 . S
C946 C945 1.366 . S
C946 C947 1.414 . S
C946 C949 1.499 . S
C947 H921 0.950 . S
C947 C946 1.414 . S
C947 C948 1.374 . S
C948 H922 0.950 . S
C948 C944 1.385 . S
C948 C947 1.374 . S
C949 C946 1.499 . S
C949 C950 1.373 . S
C949 C951 1.389 . S
C950 H923 0.950 . S
C950 C936 1.377 1_565 S
C950 C949 1.373 . S
C951 C935 1.377 . S
C951 C949 1.389 . S
C951 C952 1.524 . S
C952 C951 1.524 . S
C952 C953 1.397 . S
C952 C957 1.363 . S
C953 H924 0.950 . S
C953 C952 1.397 . S
C953 C954 1.334 . S
C954 H925 0.950 . S
C954 C953 1.334 . S
C954 C955 1.287 . S
C955 C954 1.287 . S
C955 C956 1.524 . S
C955 H958 0.999 . S
C956 H926 0.950 . S
C956 C955 1.524 . S
C956 C957 1.415 . S
C957 H927 0.950 . S
C957 C952 1.363 . S
C957 C956 1.415 . S
H958 C955 0.999 . S
H959 C940 0.913 . S
H960 C978 0.951 . S
H961 C980 0.951 . S
H962 C982 0.950 . S
H963 C983 0.950 . S
H964 C985 0.950 . S
H965 C988 0.950 . S
H966 C989 0.950 . S
H967 C991 0.950 . S
H968 C992 0.950 . S
H969 C993 0.951 . S
H970 C995 0.951 . S
H971 C997 0.950 . S
H972 C998 0.950 . S
H973 C1000 0.950 . S
H974 C1003 0.950 . S
H975 C1004 0.950 . S
H976 C1006 0.950 . S
H977 C1007 0.950 . S
C978 H960 0.951 . S
C978 C979 1.366 . S
C978 C980 1.388 . S
C979 C978 1.366 . S
C979 C983 1.385 . S
C980 H961 0.951 . S
C980 C978 1.388 . S
C980 C981 1.366 . S
C981 C980 1.366 . S
C981 C982 1.414 . S
C981 C984 1.499 . S
C982 H962 0.950 . S
C982 C981 1.414 . S
C982 C983 1.374 . S
C983 H963 0.950 . S
C983 C979 1.385 . S
C983 C982 1.374 . S
C984 C981 1.499 . S
C984 C985 1.373 . S
C984 C986 1.389 . S
C985 H964 0.950 . S
C985 C984 1.373 . S
C985 C1001 1.377 . S
C986 C984 1.389 . S
C986 C987 1.524 . S
C986 C1000 1.377 . S
C987 C986 1.524 . S
C987 C988 1.397 . S
C987 C992 1.363 . S
C988 H965 0.950 . S
C988 C987 1.397 . S
C988 C989 1.334 . S
C989 H966 0.950 . S
C989 C988 1.334 . S
C989 C990 1.287 . S
C990 C989 1.287 . S
C990 C991 1.524 . S
C990 H1009 0.913 . S
C991 H967 0.950 . S
C991 C990 1.524 . S
C991 C992 1.415 . S
C992 H968 0.950 . S
C992 C987 1.363 . S
C992 C991 1.415 . S
C993 H969 0.951 . S
C993 C994 1.366 . S
C993 C995 1.388 . S
C994 C993 1.366 . S
C994 C998 1.385 . S
C995 H970 0.951 . S
C995 C993 1.388 . S
C995 C996 1.366 . S
C996 C995 1.366 . S
C996 C997 1.414 . S
C996 C999 1.499 . S
C997 H971 0.950 . S
C997 C996 1.414 . S
C997 C998 1.374 . S
C998 H972 0.950 . S
C998 C994 1.385 . S
C998 C997 1.374 . S
C999 C996 1.499 . S
C999 C1000 1.373 . S
C999 C1001 1.389 . S
C1000 H973 0.950 . S
C1000 C986 1.377 . S
C1000 C999 1.373 . S
C1001 C985 1.377 . S
C1001 C999 1.389 . S
C1001 C1002 1.524 . S
C1002 C1001 1.524 . S
C1002 C1003 1.397 . S
C1002 C1007 1.363 . S
C1003 H974 0.950 . S
C1003 C1002 1.397 . S
C1003 C1004 1.334 . S
C1004 H975 0.950 . S
C1004 C1003 1.334 . S
C1004 C1005 1.287 . S
C1005 C1004 1.287 . S
C1005 C1006 1.524 . S
C1005 H1008 0.999 . S
C1006 H976 0.950 . S
C1006 C1005 1.524 . S
C1006 C1007 1.415 . S
C1007 H977 0.950 . S
C1007 C1002 1.363 . S
C1007 C1006 1.415 . S
H1008 C1005 0.999 . S
H1009 C990 0.913 . S
H1010 C1028 0.951 . S
H1011 C1030 0.951 . S
H1012 C1032 0.950 . S
H1013 C1033 0.950 . S
H1014 C1035 0.950 . S
H1015 C1038 0.950 . S
H1016 C1039 0.950 . S
H1017 C1041 0.950 . S
H1018 C1042 0.950 . S
H1019 C1043 0.951 . S
H1020 C1045 0.951 . S
H1021 C1047 0.950 . S
H1022 C1048 0.950 . S
H1023 C1050 0.950 . S
H1024 C1053 0.950 . S
H1025 C1054 0.950 . S
H1026 C1056 0.950 . S
H1027 C1057 0.950 . S
C1028 H1010 0.951 . S
C1028 C1029 1.366 . S
C1028 C1030 1.388 . S
C1029 C1028 1.366 . S
C1029 C1033 1.385 . S
C1030 H1011 0.951 . S
C1030 C1028 1.388 . S
C1030 C1031 1.366 . S
C1031 C1030 1.366 . S
C1031 C1032 1.414 . S
C1031 C1034 1.499 . S
C1032 H1012 0.950 . S
C1032 C1031 1.414 . S
C1032 C1033 1.374 . S
C1033 H1013 0.950 . S
C1033 C1029 1.385 . S
C1033 C1032 1.374 . S
C1034 C1031 1.499 . S
C1034 C1035 1.373 . S
C1034 C1036 1.389 . S
C1035 H1014 0.950 . S
C1035 C1034 1.373 . S
C1035 C1051 1.377 . S
C1036 C1034 1.389 . S
C1036 C1037 1.524 . S
C1036 C1050 1.377 . S
C1037 C1036 1.524 . S
C1037 C1038 1.397 . S
C1037 C1042 1.363 . S
C1038 H1015 0.950 . S
C1038 C1037 1.397 . S
C1038 C1039 1.334 . S
C1039 H1016 0.950 . S
C1039 C1038 1.334 . S
C1039 C1040 1.287 . S
C1040 C1039 1.287 . S
C1040 C1041 1.524 . S
C1040 H1059 0.913 . S
C1041 H1017 0.950 . S
C1041 C1040 1.524 . S
C1041 C1042 1.415 . S
C1042 H1018 0.950 . S
C1042 C1037 1.363 . S
C1042 C1041 1.415 . S
C1043 H1019 0.951 . S
C1043 C1044 1.366 . S
C1043 C1045 1.388 . S
C1044 C1043 1.366 . S
C1044 C1048 1.385 . S
C1045 H1020 0.951 . S
C1045 C1043 1.388 . S
C1045 C1046 1.366 . S
C1046 C1045 1.366 . S
C1046 C1047 1.414 . S
C1046 C1049 1.499 . S
C1047 H1021 0.950 . S
C1047 C1046 1.414 . S
C1047 C1048 1.374 . S
C1048 H1022 0.950 . S
C1048 C1044 1.385 . S
C1048 C1047 1.374 . S
C1049 C1046 1.499 . S
C1049 C1050 1.373 . S
C1049 C1051 1.389 . S
C1050 H1023 0.950 . S
C1050 C1036 1.377 . S
C1050 C1049 1.373 . S
C1051 C1035 1.377 . S
C1051 C1049 1.389 . S
C1051 C1052 1.524 . S
C1052 C1051 1.524 . S
C1052 C1053 1.397 . S
C1052 C1057 1.363 . S
C1053 H1024 0.950 . S
C1053 C1052 1.397 . S
C1053 C1054 1.334 . S
C1054 H1025 0.950 . S
C1054 C1053 1.334 . S
C1054 C1055 1.287 . S
C1055 C1054 1.287 . S
C1055 C1056 1.524 . S
C1055 H1058 0.999 . S
C1056 H1026 0.950 . S
C1056 C1055 1.524 . S
C1056 C1057 1.415 . S
C1057 H1027 0.950 . S
C1057 C1052 1.363 . S
C1057 C1056 1.415 . S
H1058 C1055 0.999 . S
H1059 C1040 0.913 . S
H1060 C1078 0.951 . S
H1061 C1080 0.951 . S
H1062 C1082 0.950 . S
H1063 C1083 0.950 . S
H1064 C1085 0.950 . S
H1065 C1088 0.950 . S
H1066 C1089 0.950 . S
H1067 C1091 0.950 . S
H1068 C1092 0.950 . S
H1069 C1093 0.951 . S
H1070 C1095 0.951 . S
H1071 C1097 0.950 . S
H1072 C1098 0.950 . S
H1073 C1100 0.950 . S
H1074 C1103 0.950 . S
H1075 C1104 0.950 . S
H1076 C1106 0.950 . S
H1077 C1107 0.950 . S
C1078 H1060 0.951 . S
C1078 C1079 1.366 . S
C1078 C1080 1.388 . S
C1079 C1078 1.366 . S
C1079 C1083 1.385 . S
C1080 H1061 0.951 . S
C1080 C1078 1.388 . S
C1080 C1081 1.366 . S
C1081 C1080 1.366 . S
C1081 C1082 1.414 . S
C1081 C1084 1.499 . S
C1082 H1062 0.950 . S
C1082 C1081 1.414 . S
C1082 C1083 1.374 . S
C1083 H1063 0.950 . S
C1083 C1079 1.385 . S
C1083 C1082 1.374 . S
C1084 C1081 1.499 . S
C1084 C1085 1.373 . S
C1084 C1086 1.389 . S
C1085 H1064 0.950 . S
C1085 C1084 1.373 . S
C1085 C1101 1.377 . S
C1086 C1084 1.389 . S
C1086 C1087 1.524 . S
C1086 C1100 1.377 . S
C1087 C1086 1.524 . S
C1087 C1088 1.397 . S
C1087 C1092 1.363 . S
C1088 H1065 0.950 . S
C1088 C1087 1.397 . S
C1088 C1089 1.334 . S
C1089 H1066 0.950 . S
C1089 C1088 1.334 . S
C1089 C1090 1.287 . S
C1090 C1089 1.287 . S
C1090 C1091 1.524 . S
C1090 H1109 0.913 . S
C1091 H1067 0.950 . S
C1091 C1090 1.524 . S
C1091 C1092 1.415 . S
C1092 H1068 0.950 . S
C1092 C1087 1.363 . S
C1092 C1091 1.415 . S
C1093 H1069 0.951 . S
C1093 C1094 1.366 . S
C1093 C1095 1.388 . S
C1094 C1093 1.366 . S
C1094 C1098 1.385 . S
C1095 H1070 0.951 . S
C1095 C1093 1.388 . S
C1095 C1096 1.366 . S
C1096 C1095 1.366 . S
C1096 C1097 1.414 . S
C1096 C1099 1.499 . S
C1097 H1071 0.950 . S
C1097 C1096 1.414 . S
C1097 C1098 1.374 . S
C1098 H1072 0.950 . S
C1098 C1094 1.385 . S
C1098 C1097 1.374 . S
C1099 C1096 1.499 . S
C1099 C1100 1.373 . S
C1099 C1101 1.389 . S
C1100 H1073 0.950 . S
C1100 C1086 1.377 . S
C1100 C1099 1.373 . S
C1101 C1085 1.377 . S
C1101 C1099 1.389 . S
C1101 C1102 1.524 . S
C1102 C1101 1.524 . S
C1102 C1103 1.397 . S
C1102 C1107 1.363 . S
C1103 H1074 0.950 . S
C1103 C1102 1.397 . S
C1103 C1104 1.334 . S
C1104 H1075 0.950 . S
C1104 C1103 1.334 . S
C1104 C1105 1.287 . S
C1105 C1104 1.287 . S
C1105 C1106 1.524 . S
C1105 H1108 0.999 . S
C1106 H1076 0.950 . S
C1106 C1105 1.524 . S
C1106 C1107 1.415 . S
C1107 H1077 0.950 . S
C1107 C1102 1.363 . S
C1107 C1106 1.415 . S
H1108 C1105 0.999 . S
H1109 C1090 0.913 . S
H1110 C1128 0.951 . S
H1111 C1130 0.951 . S
H1112 C1132 0.950 . S
H1113 C1133 0.950 . S
H1114 C1135 0.950 . S
H1115 C1138 0.950 . S
H1116 C1139 0.950 . S
H1117 C1141 0.950 . S
H1118 C1142 0.950 . S
H1119 C1143 0.951 . S
H1120 C1145 0.951 . S
H1121 C1147 0.950 . S
H1122 C1148 0.950 . S
H1123 C1150 0.950 . S
H1124 C1153 0.950 . S
H1125 C1154 0.950 . S
H1126 C1156 0.950 . S
H1127 C1157 0.950 . S
C1128 H1110 0.951 . S
C1128 C1129 1.366 . S
C1128 C1130 1.388 . S
C1129 C1128 1.366 . S
C1129 C1133 1.385 . S
C1130 H1111 0.951 . S
C1130 C1128 1.388 . S
C1130 C1131 1.366 . S
C1131 C1130 1.366 . S
C1131 C1132 1.414 . S
C1131 C1134 1.499 . S
C1132 H1112 0.950 . S
C1132 C1131 1.414 . S
C1132 C1133 1.374 . S
C1133 H1113 0.950 . S
C1133 C1129 1.385 . S
C1133 C1132 1.374 . S
C1134 C1131 1.499 . S
C1134 C1135 1.373 . S
C1134 C1136 1.389 . S
C1135 H1114 0.950 . S
C1135 C1134 1.373 . S
C1135 C1151 1.377 . S
C1136 C1134 1.389 . S
C1136 C1137 1.524 . S
C1136 C1150 1.377 . S
C1137 C1136 1.524 . S
C1137 C1138 1.397 . S
C1137 C1142 1.363 . S
C1138 H1115 0.950 . S
C1138 C1137 1.397 . S
C1138 C1139 1.334 . S
C1139 H1116 0.950 . S
C1139 C1138 1.334 . S
C1139 C1140 1.287 . S
C1140 C1139 1.287 . S
C1140 C1141 1.524 . S
C1140 H1159 0.913 . S
C1141 H1117 0.950 . S
C1141 C1140 1.524 . S
C1141 C1142 1.415 . S
C1142 H1118 0.950 . S
C1142 C1137 1.363 . S
C1142 C1141 1.415 . S
C1143 H1119 0.951 . S
C1143 C1144 1.366 . S
C1143 C1145 1.388 . S
C1144 C1143 1.366 . S
C1144 C1148 1.385 . S
C1145 H1120 0.951 . S
C1145 C1143 1.388 . S
C1145 C1146 1.366 . S
C1146 C1145 1.366 . S
C1146 C1147 1.414 . S
C1146 C1149 1.499 . S
C1147 H1121 0.950 . S
C1147 C1146 1.414 . S
C1147 C1148 1.374 . S
C1148 H1122 0.950 . S
C1148 C1144 1.385 . S
C1148 C1147 1.374 . S
C1149 C1146 1.499 . S
C1149 C1150 1.373 . S
C1149 C1151 1.389 . S
C1150 H1123 0.950 . S
C1150 C1136 1.377 . S
C1150 C1149 1.373 . S
C1151 C1135 1.377 . S
C1151 C1149 1.389 . S
C1151 C1152 1.524 . S
C1152 C1151 1.524 . S
C1152 C1153 1.397 . S
C1152 C1157 1.363 . S
C1153 H1124 0.950 . S
C1153 C1152 1.397 . S
C1153 C1154 1.334 . S
C1154 H1125 0.950 . S
C1154 C1153 1.334 . S
C1154 C1155 1.287 . S
C1155 C1154 1.287 . S
C1155 C1156 1.524 . S
C1155 H1158 0.999 . S
C1156 H1126 0.950 . S
C1156 C1155 1.524 . S
C1156 C1157 1.415 . S
C1157 H1127 0.950 . S
C1157 C1152 1.363 . S
C1157 C1156 1.415 . S
H1158 C1155 0.999 . S
H1159 C1140 0.913 . S
H1160 C1178 0.951 . S
H1161 C1180 0.951 . S
H1162 C1182 0.950 . S
H1163 C1183 0.950 . S
H1164 C1185 0.950 . S
H1165 C1188 0.950 . S
H1166 C1189 0.950 . S
H1167 C1191 0.950 . S
H1168 C1192 0.950 . S
H1169 C1193 0.951 . S
H1170 C1195 0.951 . S
H1171 C1197 0.950 . S
H1172 C1198 0.950 . S
H1173 C1200 0.950 . S
H1174 C1203 0.950 . S
H1175 C1204 0.950 . S
H1176 C1206 0.950 . S
H1177 C1207 0.950 . S
C1178 H1160 0.951 . S
C1178 C1179 1.366 . S
C1178 C1180 1.388 . S
C1179 C1178 1.366 . S
C1179 C1183 1.385 . S
C1180 H1161 0.951 . S
C1180 C1178 1.388 . S
C1180 C1181 1.366 . S
C1181 C1180 1.366 . S
C1181 C1182 1.414 . S
C1181 C1184 1.499 . S
C1182 H1162 0.950 . S
C1182 C1181 1.414 . S
C1182 C1183 1.374 . S
C1183 H1163 0.950 . S
C1183 C1179 1.385 . S
C1183 C1182 1.374 . S
C1184 C1181 1.499 . S
C1184 C1185 1.373 . S
C1184 C1186 1.389 . S
C1185 H1164 0.950 . S
C1185 C1184 1.373 . S
C1185 C1201 1.377 . S
C1186 C1184 1.389 . S
C1186 C1187 1.524 . S
C1186 C1200 1.377 . S
C1187 C1186 1.524 . S
C1187 C1188 1.397 . S
C1187 C1192 1.363 . S
C1188 H1165 0.950 . S
C1188 C1187 1.397 . S
C1188 C1189 1.334 . S
C1189 H1166 0.950 . S
C1189 C1188 1.334 . S
C1189 C1190 1.287 . S
C1190 C1189 1.287 . S
C1190 C1191 1.524 . S
C1190 H1209 0.913 . S
C1191 H1167 0.950 . S
C1191 C1190 1.524 . S
C1191 C1192 1.415 . S
C1192 H1168 0.950 . S
C1192 C1187 1.363 . S
C1192 C1191 1.415 . S
C1193 H1169 0.951 . S
C1193 C1194 1.366 . S
C1193 C1195 1.388 . S
C1194 C1193 1.366 . S
C1194 C1198 1.385 . S
C1195 H1170 0.951 . S
C1195 C1193 1.388 . S
C1195 C1196 1.366 . S
C1196 C1195 1.366 . S
C1196 C1197 1.414 . S
C1196 C1199 1.499 . S
C1197 H1171 0.950 . S
C1197 C1196 1.414 . S
C1197 C1198 1.374 . S
C1198 H1172 0.950 . S
C1198 C1194 1.385 . S
C1198 C1197 1.374 . S
C1199 C1196 1.499 . S
C1199 C1200 1.373 . S
C1199 C1201 1.389 . S
C1200 H1173 0.950 . S
C1200 C1186 1.377 . S
C1200 C1199 1.373 . S
C1201 C1185 1.377 . S
C1201 C1199 1.389 . S
C1201 C1202 1.524 . S
C1202 C1201 1.524 . S
C1202 C1203 1.397 . S
C1202 C1207 1.363 . S
C1203 H1174 0.950 . S
C1203 C1202 1.397 . S
C1203 C1204 1.334 . S
C1204 H1175 0.950 . S
C1204 C1203 1.334 . S
C1204 C1205 1.287 . S
C1205 C1204 1.287 . S
C1205 C1206 1.524 . S
C1205 H1208 0.999 1_655 S
C1206 H1176 0.950 . S
C1206 C1205 1.524 . S
C1206 C1207 1.415 . S
C1207 H1177 0.950 . S
C1207 C1202 1.363 . S
C1207 C1206 1.415 . S
H1208 C1205 0.999 1_455 S
H1209 C1190 0.913 . S
H1210 C1228 0.951 . S
H1211 C1230 0.951 . S
H1212 C1232 0.950 . S
H1213 C1233 0.950 . S
H1214 C1235 0.950 . S
H1215 C1238 0.950 . S
H1216 C1239 0.950 . S
H1217 C1241 0.950 . S
H1218 C1242 0.950 . S
H1219 C1243 0.951 . S
H1220 C1245 0.951 . S
H1221 C1247 0.950 . S
H1222 C1248 0.950 . S
H1223 C1250 0.950 . S
H1224 C1253 0.950 . S
H1225 C1254 0.950 . S
H1226 C1256 0.950 . S
H1227 C1257 0.950 . S
C1228 H1210 0.951 . S
C1228 C1229 1.366 . S
C1228 C1230 1.388 . S
C1229 C1228 1.366 . S
C1229 C1233 1.385 . S
C1230 H1211 0.951 . S
C1230 C1228 1.388 . S
C1230 C1231 1.366 . S
C1231 C1230 1.366 . S
C1231 C1232 1.414 . S
C1231 C1234 1.499 . S
C1232 H1212 0.950 . S
C1232 C1231 1.414 . S
C1232 C1233 1.374 . S
C1233 H1213 0.950 . S
C1233 C1229 1.385 . S
C1233 C1232 1.374 . S
C1234 C1231 1.499 . S
C1234 C1235 1.373 . S
C1234 C1236 1.389 . S
C1235 H1214 0.950 . S
C1235 C1234 1.373 . S
C1235 C1251 1.377 . S
C1236 C1234 1.389 . S
C1236 C1237 1.524 . S
C1236 C1250 1.377 . S
C1237 C1236 1.524 . S
C1237 C1238 1.397 . S
C1237 C1242 1.363 . S
C1238 H1215 0.950 . S
C1238 C1237 1.397 . S
C1238 C1239 1.334 . S
C1239 H1216 0.950 . S
C1239 C1238 1.334 . S
C1239 C1240 1.287 . S
C1240 C1239 1.287 . S
C1240 C1241 1.524 . S
C1240 H1259 0.913 . S
C1241 H1217 0.950 . S
C1241 C1240 1.524 . S
C1241 C1242 1.415 . S
C1242 H1218 0.950 . S
C1242 C1237 1.363 . S
C1242 C1241 1.415 . S
C1243 H1219 0.951 . S
C1243 C1244 1.366 . S
C1243 C1245 1.388 . S
C1244 C1243 1.366 . S
C1244 C1248 1.385 . S
C1245 H1220 0.951 . S
C1245 C1243 1.388 . S
C1245 C1246 1.366 . S
C1246 C1245 1.366 . S
C1246 C1247 1.414 . S
C1246 C1249 1.499 . S
C1247 H1221 0.950 . S
C1247 C1246 1.414 . S
C1247 C1248 1.374 . S
C1248 H1222 0.950 . S
C1248 C1244 1.385 . S
C1248 C1247 1.374 . S
C1249 C1246 1.499 . S
C1249 C1250 1.373 . S
C1249 C1251 1.389 . S
C1250 H1223 0.950 . S
C1250 C1236 1.377 . S
C1250 C1249 1.373 . S
C1251 C1235 1.377 . S
C1251 C1249 1.389 . S
C1251 C1252 1.524 . S
C1252 C1251 1.524 . S
C1252 C1253 1.397 . S
C1252 C1257 1.363 . S
C1253 H1224 0.950 . S
C1253 C1252 1.397 . S
C1253 C1254 1.334 . S
C1254 H1225 0.950 . S
C1254 C1253 1.334 . S
C1254 C1255 1.287 . S
C1255 C1254 1.287 . S
C1255 C1256 1.524 . S
C1255 H1258 0.999 . S
C1256 H1226 0.950 . S
C1256 C1255 1.524 . S
C1256 C1257 1.415 . S
C1257 H1227 0.950 . S
C1257 C1252 1.363 . S
C1257 C1256 1.415 . S
H1258 C1255 0.999 . S
H1259 C1240 0.913 . S
H1260 C1278 0.951 . S
H1261 C1280 0.951 . S
H1262 C1282 0.950 . S
H1263 C1283 0.950 . S
H1264 C1285 0.950 . S
H1265 C1288 0.950 . S
H1266 C1289 0.950 . S
H1267 C1291 0.950 . S
H1268 C1292 0.950 . S
H1269 C1293 0.951 . S
H1270 C1295 0.951 . S
H1271 C1297 0.950 . S
H1272 C1298 0.950 . S
H1273 C1300 0.950 . S
H1274 C1303 0.950 . S
H1275 C1304 0.950 . S
H1276 C1306 0.950 . S
H1277 C1307 0.950 . S
C1278 H1260 0.951 . S
C1278 C1279 1.366 . S
C1278 C1280 1.388 . S
C1279 C1278 1.366 . S
C1279 C1283 1.385 . S
C1280 H1261 0.951 . S
C1280 C1278 1.388 . S
C1280 C1281 1.366 . S
C1281 C1280 1.366 . S
C1281 C1282 1.414 . S
C1281 C1284 1.499 . S
C1282 H1262 0.950 . S
C1282 C1281 1.414 . S
C1282 C1283 1.374 . S
C1283 H1263 0.950 . S
C1283 C1279 1.385 . S
C1283 C1282 1.374 . S
C1284 C1281 1.499 . S
C1284 C1285 1.373 . S
C1284 C1286 1.389 . S
C1285 H1264 0.950 . S
C1285 C1284 1.373 . S
C1285 C1301 1.377 . S
C1286 C1284 1.389 . S
C1286 C1287 1.524 . S
C1286 C1300 1.377 . S
C1287 C1286 1.524 . S
C1287 C1288 1.397 . S
C1287 C1292 1.363 . S
C1288 H1265 0.950 . S
C1288 C1287 1.397 . S
C1288 C1289 1.334 . S
C1289 H1266 0.950 . S
C1289 C1288 1.334 . S
C1289 C1290 1.287 . S
C1290 C1289 1.287 . S
C1290 C1291 1.524 . S
C1290 H1309 0.913 . S
C1291 H1267 0.950 . S
C1291 C1290 1.524 . S
C1291 C1292 1.415 . S
C1292 H1268 0.950 . S
C1292 C1287 1.363 . S
C1292 C1291 1.415 . S
C1293 H1269 0.951 . S
C1293 C1294 1.366 . S
C1293 C1295 1.388 . S
C1294 C1293 1.366 . S
C1294 C1298 1.385 . S
C1295 H1270 0.951 . S
C1295 C1293 1.388 . S
C1295 C1296 1.366 . S
C1296 C1295 1.366 . S
C1296 C1297 1.414 . S
C1296 C1299 1.499 . S
C1297 H1271 0.950 . S
C1297 C1296 1.414 . S
C1297 C1298 1.374 . S
C1298 H1272 0.950 . S
C1298 C1294 1.385 . S
C1298 C1297 1.374 . S
C1299 C1296 1.499 . S
C1299 C1300 1.373 . S
C1299 C1301 1.389 . S
C1300 H1273 0.950 . S
C1300 C1286 1.377 . S
C1300 C1299 1.373 . S
C1301 C1285 1.377 . S
C1301 C1299 1.389 . S
C1301 C1302 1.524 . S
C1302 C1301 1.524 . S
C1302 C1303 1.397 . S
C1302 C1307 1.363 . S
C1303 H1274 0.950 . S
C1303 C1302 1.397 . S
C1303 C1304 1.334 . S
C1304 H1275 0.950 . S
C1304 C1303 1.334 . S
C1304 C1305 1.287 . S
C1305 C1304 1.287 . S
C1305 C1306 1.524 . S
C1305 H1308 0.999 . S
C1306 H1276 0.950 . S
C1306 C1305 1.524 . S
C1306 C1307 1.415 . S
C1307 H1277 0.950 . S
C1307 C1302 1.363 . S
C1307 C1306 1.415 . S
H1308 C1305 0.999 . S
H1309 C1290 0.913 . S
H1310 C1328 0.951 . S
H1311 C1330 0.951 . S
H1312 C1332 0.950 . S
H1313 C1333 0.950 . S
H1314 C1335 0.950 . S
H1315 C1338 0.950 . S
H1316 C1339 0.950 . S
H1317 C1341 0.950 . S
H1318 C1342 0.950 . S
H1319 C1343 0.951 . S
H1320 C1345 0.951 . S
H1321 C1347 0.950 . S
H1322 C1348 0.950 . S
H1323 C1350 0.950 . S
H1324 C1353 0.950 . S
H1325 C1354 0.950 . S
H1326 C1356 0.950 . S
H1327 C1357 0.950 . S
C1328 H1310 0.951 . S
C1328 C1329 1.366 . S
C1328 C1330 1.388 . S
C1329 C1328 1.366 . S
C1329 C1333 1.385 . S
C1330 H1311 0.951 . S
C1330 C1328 1.388 . S
C1330 C1331 1.366 . S
C1331 C1330 1.366 . S
C1331 C1332 1.414 . S
C1331 C1334 1.499 . S
C1332 H1312 0.950 . S
C1332 C1331 1.414 . S
C1332 C1333 1.374 . S
C1333 H1313 0.950 . S
C1333 C1329 1.385 . S
C1333 C1332 1.374 . S
C1334 C1331 1.499 . S
C1334 C1335 1.373 . S
C1334 C1336 1.389 . S
C1335 H1314 0.950 . S
C1335 C1334 1.373 . S
C1335 C1351 1.377 . S
C1336 C1334 1.389 . S
C1336 C1337 1.524 . S
C1336 C1350 1.377 . S
C1337 C1336 1.524 . S
C1337 C1338 1.397 . S
C1337 C1342 1.363 . S
C1338 H1315 0.950 . S
C1338 C1337 1.397 . S
C1338 C1339 1.334 . S
C1339 H1316 0.950 . S
C1339 C1338 1.334 . S
C1339 C1340 1.287 . S
C1340 C1339 1.287 . S
C1340 C1341 1.524 . S
C1340 H1359 0.913 . S
C1341 H1317 0.950 . S
C1341 C1340 1.524 . S
C1341 C1342 1.415 . S
C1342 H1318 0.950 . S
C1342 C1337 1.363 . S
C1342 C1341 1.415 . S
C1343 H1319 0.951 . S
C1343 C1344 1.366 . S
C1343 C1345 1.388 . S
C1344 C1343 1.366 . S
C1344 C1348 1.385 . S
C1345 H1320 0.951 . S
C1345 C1343 1.388 . S
C1345 C1346 1.366 . S
C1346 C1345 1.366 . S
C1346 C1347 1.414 . S
C1346 C1349 1.499 . S
C1347 H1321 0.950 . S
C1347 C1346 1.414 . S
C1347 C1348 1.374 . S
C1348 H1322 0.950 . S
C1348 C1344 1.385 . S
C1348 C1347 1.374 . S
C1349 C1346 1.499 . S
C1349 C1350 1.373 . S
C1349 C1351 1.389 . S
C1350 H1323 0.950 . S
C1350 C1336 1.377 . S
C1350 C1349 1.373 . S
C1351 C1335 1.377 . S
C1351 C1349 1.389 . S
C1351 C1352 1.524 . S
C1352 C1351 1.524 . S
C1352 C1353 1.397 . S
C1352 C1357 1.363 . S
C1353 H1324 0.950 . S
C1353 C1352 1.397 . S
C1353 C1354 1.334 . S
C1354 H1325 0.950 . S
C1354 C1353 1.334 . S
C1354 C1355 1.287 . S
C1355 C1354 1.287 . S
C1355 C1356 1.524 . S
C1355 H1358 0.999 1_655 S
C1356 H1326 0.950 . S
C1356 C1355 1.524 . S
C1356 C1357 1.415 . S
C1357 H1327 0.950 . S
C1357 C1352 1.363 . S
C1357 C1356 1.415 . S
H1358 C1355 0.999 1_455 S
H1359 C1340 0.913 . S
C179 C7 1.513 . S
C194 C115 1.502 . S
C244 C79 1.501 . S
C229 C16 1.512 . S
C294 C102 1.486 . S
C279 C25 1.489 . S
C344 C90 1.491 . S
C329 C34 1.491 . S
C394 C159 1.502 . S
C379 C43 1.512 . S
C444 C123 1.501 . S
C429 C52 1.512 . S
C479 C61 1.489 . S
C494 C146 1.486 . S
C544 C134 1.491 . S
C529 C70 1.491 . S
C579 C5 1.443 . S
C594 C156 1.445 . S
C644 C126 1.446 . S
C629 C14 1.443 . S
C679 C22 1.469 . S
C694 C145 1.460 . S
C729 C32 1.471 . S
C744 C131 1.465 . S
C794 C112 1.445 . S
C779 C41 1.443 . S
C829 C50 1.443 . S
C844 C82 1.445 . S
C894 C101 1.460 . S
C879 C58 1.469 . S
C944 C87 1.465 . S
C929 C68 1.471 . S
C994 C137 1.441 . S
C979 C4 1.454 . S
C1044 C153 1.442 . S
C1029 C13 1.455 . S
C1079 C23 1.417 . S
C1094 C124 1.418 . S
C1144 C148 1.418 . S
C1129 C31 1.414 . S
C1194 C93 1.441 . S
C1179 C40 1.453 . S
C1229 C49 1.455 . S
C1244 C109 1.442 . S
C1279 C59 1.416 . S
C1294 C80 1.418 . S
C1329 C67 1.414 . S
C1344 C104 1.419 . S
