# Generated by pormake.
# Topology pth, (4,4)-cn, num edge types: 1
# Building blocks:
#     Node 0, Type 0, BuildingBlock: TATPOV_clean_sbu_0, # of connection points: 4
#     Node 1, Type 0, BuildingBlock: TATPOV_clean_sbu_0, # of connection points: 4
#     Node 2, Type 0, BuildingBlock: TATPOV_clean_sbu_0, # of connection points: 4
#     Node 3, Type 1, BuildingBlock: NAHDIM_clean_linker_0, # of connection points: 4
#     Node 4, Type 1, BuildingBlock: NAHDIM_clean_linker_0, # of connection points: 4
#     Node 5, Type 1, BuildingBlock: NAHDIM_clean_linker_0, # of connection points: 4
#     Edge 6, Type (0, 1), BuildingBlock: KIFKEQ_clean_linker_1, # of connection points: 2
#     Edge 7, Type (0, 1), BuildingBlock: KIFKEQ_clean_linker_1, # of connection points: 2
#     Edge 8, Type (0, 1), BuildingBlock: KIFKEQ_clean_linker_1, # of connection points: 2
#     Edge 9, Type (0, 1), BuildingBlock: KIFKEQ_clean_linker_1, # of connection points: 2
#     Edge 10, Type (0, 1), BuildingBlock: KIFKEQ_clean_linker_1, # of connection points: 2
#     Edge 11, Type (0, 1), BuildingBlock: KIFKEQ_clean_linker_1, # of connection points: 2
#     Edge 12, Type (0, 1), BuildingBlock: KIFKEQ_clean_linker_1, # of connection points: 2
#     Edge 13, Type (0, 1), BuildingBlock: KIFKEQ_clean_linker_1, # of connection points: 2
#     Edge 14, Type (0, 1), BuildingBlock: KIFKEQ_clean_linker_1, # of connection points: 2
#     Edge 15, Type (0, 1), BuildingBlock: KIFKEQ_clean_linker_1, # of connection points: 2
#     Edge 16, Type (0, 1), BuildingBlock: KIFKEQ_clean_linker_1, # of connection points: 2
#     Edge 17, Type (0, 1), BuildingBlock: KIFKEQ_clean_linker_1, # of connection points: 2
# Relax obj value: 0.054
# Max RMSD: 0.173
# Mean RMSD: 0.111
data_MOF--net-pth--node1-TATPOV_clean_sbu_0--node2-NAHDIM_clean_linker_0--edge1-KIFKEQ_clean_linker_1
_symmetry_space_group_name_H-M    P1
_symmetry_Int_Tables_number       1
_symmetry_cell_setting            triclinic
loop_
_symmetry_equiv_pos_as_xyz
'x, y, z'
_cell_length_a     32.394533
_cell_length_b     32.025751
_cell_length_c     80.037722
_cell_angle_alpha  92.16343
_cell_angle_beta   92.499597
_cell_angle_gamma 121.03733
loop_
_atom_site_label
_atom_site_type_symbol
_atom_site_fract_x
_atom_site_fract_y
_atom_site_fract_z
_atom_type_partial_charge
Zn0 Zn 0.16283 0.04742 0.04133 0.0
Zn1 Zn 0.11539 0.08633 0.05565 0.0
O2 O 0.12834 0.05107 0.07419 0.0
O3 O 0.16592 0.01751 0.06283 0.0
O4 O 0.09188 0.12552 0.06802 0.0
O5 O 0.21674 0.11244 0.03484 0.0
O6 O 0.17205 0.14047 0.04403 0.0
C7 C 0.14712 0.0247 0.07532 0.0
C8 C 0.06343 0.01074 0.02705 0.0
O9 O 0.06073 0.03718 0.03875 0.0
O10 O 0.10224 0.01073 0.02549 0.0
C11 C 0.07021 0.11313 0.08146 0.0
O12 O 0.05832 0.07057 0.08705 0.0
C13 C 0.20893 0.14713 0.03671 0.0
Zn14 Zn 0.1441 0.12693 0.36775 0.0
Zn15 Zn 0.0668 0.0969 0.38685 0.0
O16 O 0.12336 0.11311 0.40351 0.0
O17 O 0.18658 0.1368 0.38875 0.0
O18 O 0.01345 0.08201 0.40206 0.0
O19 O 0.13535 0.18117 0.3595 0.0
O20 O 0.07039 0.15188 0.37364 0.0
C21 C 0.16788 0.12751 0.40273 0.0
C22 C 0.0644 0.02558 0.36026 0.0
O23 O 0.04492 0.03431 0.37233 0.0
O24 O 0.10492 0.05878 0.3558 0.0
C25 C 0.97551 0.08203 0.39727 0.0
O26 O 0.96901 0.08896 0.38153 0.0
C27 C 0.09852 0.18208 0.36364 0.0
Zn28 Zn 0.06373 0.98492 0.74232 0.0
Zn29 Zn 0.0111 0.99602 0.72035 0.0
O30 O 0.05976 0.99285 0.70513 0.0
O31 O 0.11049 0.99571 0.72498 0.0
O32 O 0.96497 0.00423 0.70509 0.0
O33 O 0.01346 0.9175 0.74676 0.0
O34 O 0.9645 0.93155 0.73142 0.0
C35 C 0.0995 0.99573 0.70961 0.0
C36 C 0.06416 0.07085 0.7503 0.0
O37 O 0.04353 0.06025 0.73555 0.0
O38 O 0.07309 0.04125 0.75722 0.0
C39 C 0.97701 0.03146 0.69287 0.0
O40 O 0.02225 0.05485 0.68906 0.0
C41 C 0.97129 0.90421 0.74094 0.0
C42 C 0.86438 0.65417 0.31181 0.0
C43 C 0.91633 0.6831 0.30672 0.0
C44 C 0.94333 0.66858 0.28052 0.0
C45 C 0.99315 0.69107 0.2845 0.0
C46 C 0.02096 0.67718 0.2755 0.0
C47 C 0.99803 0.639 0.26263 0.0
C48 C 0.9476 0.61661 0.25858 0.0
C49 C 0.9213 0.6329 0.26727 0.0
C50 C 0.0746 0.70265 0.27999 0.0
C51 C 0.92075 0.5742 0.24555 0.0
C52 C 0.04546 0.36965 0.3187 0.0
C53 C 0.03146 0.4001 0.30924 0.0
C54 C 0.06381 0.46411 0.28957 0.0
C55 C 0.01853 0.45343 0.2826 0.0
C56 C 0.01487 0.48375 0.27124 0.0
C57 C 0.0572 0.52665 0.26719 0.0
C58 C 0.10288 0.53756 0.27415 0.0
C59 C 0.10559 0.50555 0.28504 0.0
C60 C 0.9655 0.47025 0.2638 0.0
C61 C 0.14863 0.58353 0.27039 0.0
C62 C 0.08697 0.44827 0.16244 0.0
C63 C 0.04115 0.43735 0.16683 0.0
C64 C 0.03445 0.47364 0.17424 0.0
C65 C 0.07443 0.5219 0.17731 0.0
C66 C 0.12023 0.53347 0.17222 0.0
C67 C 0.12579 0.49646 0.16468 0.0
C68 C 0.9847 0.46019 0.17902 0.0
C69 C 0.16344 0.58459 0.17514 0.0
C70 C 0.94617 0.78132 0.16099 0.0
C71 C 0.99184 0.77882 0.15987 0.0
C72 C 0.99785 0.70589 0.15965 0.0
C73 C 0.96794 0.65524 0.15941 0.0
C74 C 0.98415 0.62673 0.16679 0.0
C75 C 0.03207 0.64962 0.17411 0.0
C76 C 0.06384 0.70042 0.17304 0.0
C77 C 0.04622 0.72821 0.16597 0.0
C78 C 0.9494 0.57255 0.16743 0.0
C79 C 0.11569 0.72566 0.18007 0.0
C80 C 0.02529 0.61892 0.25457 0.0
C81 C 0.03621 0.58965 0.26401 0.0
C82 C 0.05284 0.56139 0.25661 0.0
C83 C 0.05931 0.56248 0.23924 0.0
C84 C 0.07325 0.53239 0.23118 0.0
C85 C 0.07721 0.53208 0.21393 0.0
C86 C 0.06723 0.56173 0.20408 0.0
C87 C 0.06829 0.55947 0.18641 0.0
C88 C 0.05872 0.58992 0.17701 0.0
C89 C 0.04662 0.62169 0.18476 0.0
C90 C 0.04413 0.62346 0.20236 0.0
C91 C 0.03019 0.65358 0.2105 0.0
C92 C 0.02543 0.65326 0.22767 0.0
C93 C 0.03393 0.62249 0.23738 0.0
C94 C 0.05005 0.59341 0.22961 0.0
C95 C 0.05453 0.59341 0.21203 0.0
C96 C 0.11313 0.37195 0.17639 0.0
C97 C 0.0778 0.36778 0.16215 0.0
O98 O 0.91552 0.68018 0.28938 0.0
O99 O 0.97862 0.73202 0.15393 0.0
O100 O 0.09465 0.41326 0.15589 0.0
O101 O 0.06855 0.43557 0.30071 0.0
H102 H 0.93573 0.66578 0.31215 0.0
H103 H 0.84688 0.61561 0.30669 0.0
H104 H 0.84318 0.66997 0.30684 0.0
H105 H 0.86378 0.65446 0.32569 0.0
H106 H 0.01018 0.71947 0.29461 0.0
H107 H 0.88278 0.61608 0.26432 0.0
H108 H 0.08247 0.67846 0.28729 0.0
H109 H 0.08822 0.73747 0.28768 0.0
H110 H 0.09462 0.71039 0.26848 0.0
H111 H 0.88107 0.55454 0.24659 0.0
H112 H 0.93291 0.54767 0.24671 0.0
H113 H 0.92796 0.58793 0.23285 0.0
H114 H 0.01218 0.41469 0.31637 0.0
H115 H 0.04319 0.3783 0.33228 0.0
H116 H 0.08615 0.38946 0.31955 0.0
H117 H 0.00178 0.29964 0.30675 0.0
H118 H 0.98577 0.42151 0.28592 0.0
H119 H 0.14035 0.51346 0.29045 0.0
H120 H 0.96624 0.47516 0.25013 0.0
H121 H 0.95467 0.49466 0.26977 0.0
H122 H 0.93758 0.43189 0.26579 0.0
H123 H 0.18095 0.58827 0.27767 0.0
H124 H 0.14543 0.61588 0.27332 0.0
H125 H 0.15416 0.58244 0.25684 0.0
H126 H 0.04226 0.35436 0.16743 0.0
H127 H 0.01042 0.40064 0.16436 0.0
H128 H 0.16085 0.5047 0.16096 0.0
H129 H 0.98461 0.46289 0.19289 0.0
H130 H 0.95659 0.42248 0.17426 0.0
H131 H 0.97494 0.4861 0.17405 0.0
H132 H 0.19675 0.5876 0.17062 0.0
H133 H 0.16974 0.59599 0.18874 0.0
H134 H 0.1562 0.61037 0.1686 0.0
H135 H 0.00946 0.78695 0.17282 0.0
H136 H 0.95543 0.81814 0.16609 0.0
H137 H 0.92174 0.75397 0.16949 0.0
H138 H 0.92665 0.77339 0.14842 0.0
H139 H 0.93097 0.63836 0.15415 0.0
H140 H 0.07003 0.76731 0.1656 0.0
H141 H 0.94649 0.56237 0.18063 0.0
H142 H 0.96329 0.55217 0.16053 0.0
H143 H 0.91273 0.56081 0.16182 0.0
H144 H 0.13776 0.76278 0.17553 0.0
H145 H 0.13205 0.70372 0.17661 0.0
H146 H 0.11698 0.72921 0.19396 0.0
H147 H 0.02883 0.58646 0.27716 0.0
H148 H 0.08063 0.50825 0.23808 0.0
H149 H 0.08771 0.50787 0.2084 0.0
H150 H 0.05888 0.58751 0.16346 0.0
H151 H 0.02199 0.67726 0.20368 0.0
H152 H 0.01424 0.67687 0.23324 0.0
H153 H 0.14977 0.38619 0.17194 0.0
H154 H 0.1004 0.33568 0.1814 0.0
H155 H 0.1156 0.39735 0.18677 0.0
C156 C 0.33747 0.93663 0.64654 0.0
C157 C 0.34113 0.98213 0.63949 0.0
C158 C 0.37354 0.99439 0.61253 0.0
C159 C 0.40485 0.04487 0.61218 0.0
C160 C 0.44609 0.06374 0.60306 0.0
C161 C 0.45635 0.0312 0.59435 0.0
C162 C 0.42437 0.98008 0.59462 0.0
C163 C 0.38278 0.96232 0.60351 0.0
C164 C 0.47883 0.11836 0.60282 0.0
C165 C 0.4345 0.94419 0.58576 0.0
C166 C 0.74486 0.15866 0.6624 0.0
C167 C 0.73873 0.12116 0.64856 0.0
C168 C 0.71011 0.12706 0.62079 0.0
C169 C 0.67935 0.07751 0.61565 0.0
C170 C 0.64042 0.06253 0.60372 0.0
C171 C 0.63198 0.09791 0.59694 0.0
C172 C 0.66426 0.14812 0.60162 0.0
C173 C 0.70352 0.16209 0.61332 0.0
C174 C 0.60751 0.00881 0.59871 0.0
C175 C 0.65616 0.18682 0.59479 0.0
C176 C 0.70573 0.1102 0.48921 0.0
C177 C 0.67511 0.06331 0.49452 0.0
C178 C 0.63372 0.05262 0.50274 0.0
C179 C 0.62286 0.08966 0.50572 0.0
C180 C 0.65272 0.13644 0.49983 0.0
C181 C 0.6936 0.14594 0.49146 0.0
C182 C 0.60173 0.00182 0.50834 0.0
C183 C 0.64185 0.17655 0.50263 0.0
C184 C 0.22562 0.95077 0.49552 0.0
C185 C 0.27573 0.99447 0.49309 0.0
C186 C 0.35279 0.99807 0.4921 0.0
C187 C 0.37217 0.96797 0.49207 0.0
C188 C 0.41996 0.98591 0.49826 0.0
C189 C 0.44916 0.03553 0.50423 0.0
C190 C 0.43109 0.06724 0.5028 0.0
C191 C 0.38285 0.04809 0.49688 0.0
C192 C 0.4383 0.95123 0.49934 0.0
C193 C 0.46186 0.12074 0.50847 0.0
C194 C 0.50066 0.05049 0.58508 0.0
C195 C 0.54446 0.06598 0.5942 0.0
C196 C 0.58715 0.08207 0.5862 0.0
C197 C 0.58622 0.08224 0.56851 0.0
C198 C 0.628 0.09642 0.55996 0.0
C199 C 0.62642 0.09593 0.54252 0.0
C200 C 0.58297 0.0812 0.53297 0.0
C201 C 0.58063 0.07944 0.51522 0.0
C202 C 0.53698 0.06542 0.50615 0.0
C203 C 0.49512 0.05212 0.51435 0.0
C204 C 0.49652 0.05259 0.53204 0.0
C205 C 0.45467 0.03813 0.54063 0.0
C206 C 0.45611 0.03806 0.55798 0.0
C207 C 0.4993 0.05197 0.56746 0.0
C208 C 0.54211 0.06739 0.55913 0.0
C209 C 0.54061 0.06734 0.54137 0.0
C210 C 0.8199 0.15367 0.49878 0.0
C211 C 0.78084 0.11077 0.48732 0.0
O212 O 0.33545 0.97621 0.62216 0.0
O213 O 0.30487 0.97735 0.48782 0.0
O214 O 0.74662 0.12169 0.48163 0.0
O215 O 0.74555 0.14176 0.63324 0.0
H216 H 0.37787 0.01351 0.64369 0.0
H217 H 0.36712 0.93207 0.6422 0.0
H218 H 0.30248 0.90327 0.64223 0.0
H219 H 0.3409 0.94042 0.66047 0.0
H220 H 0.397 0.06932 0.61917 0.0
H221 H 0.35821 0.92334 0.60395 0.0
H222 H 0.5141 0.12993 0.60962 0.0
H223 H 0.46326 0.13853 0.6088 0.0
H224 H 0.48586 0.12876 0.58971 0.0
H225 H 0.40944 0.90605 0.58893 0.0
H226 H 0.47219 0.95384 0.5891 0.0
H227 H 0.43062 0.94588 0.572 0.0
H228 H 0.70105 0.08963 0.64887 0.0
H229 H 0.74032 0.14311 0.67483 0.0
H230 H 0.717 0.1686 0.66017 0.0
H231 H 0.78103 0.19247 0.66259 0.0
H232 H 0.68551 0.05058 0.62112 0.0
H233 H 0.72791 0.20031 0.61728 0.0
H234 H 0.57219 0.99544 0.60413 0.0
H235 H 0.6228 0.9868 0.60319 0.0
H236 H 0.60069 0.00274 0.58486 0.0
H237 H 0.6835 0.2241 0.60021 0.0
H238 H 0.61967 0.17919 0.59753 0.0
H239 H 0.65766 0.186 0.58097 0.0
H240 H 0.76429 0.0782 0.49484 0.0
H241 H 0.68315 0.03485 0.49207 0.0
H242 H 0.71705 0.18176 0.48703 0.0
H243 H 0.60302 0.00318 0.52224 0.0
H244 H 0.6129 0.9761 0.50386 0.0
H245 H 0.56366 0.98733 0.50365 0.0
H246 H 0.66949 0.21142 0.49775 0.0
H247 H 0.63998 0.18289 0.51624 0.0
H248 H 0.60603 0.16518 0.49633 0.0
H249 H 0.29032 0.01523 0.50554 0.0
H250 H 0.20166 0.96337 0.50008 0.0
H251 H 0.22855 0.92773 0.50497 0.0
H252 H 0.209 0.92809 0.48354 0.0
H253 H 0.34888 0.92965 0.48801 0.0
H254 H 0.36856 0.07205 0.49631 0.0
H255 H 0.44735 0.94873 0.51266 0.0
H256 H 0.4719 0.96541 0.4927 0.0
H257 H 0.4114 0.91396 0.4938 0.0
H258 H 0.44596 0.14198 0.50375 0.0
H259 H 0.49878 0.1364 0.50413 0.0
H260 H 0.46522 0.12491 0.52238 0.0
H261 H 0.54526 0.06505 0.60775 0.0
H262 H 0.66232 0.1078 0.56666 0.0
H263 H 0.65969 0.10717 0.53661 0.0
H264 H 0.53536 0.06397 0.49256 0.0
H265 H 0.42011 0.02639 0.53407 0.0
H266 H 0.42276 0.02668 0.56386 0.0
H267 H 0.83751 0.18764 0.492 0.0
H268 H 0.84778 0.14568 0.50341 0.0
H269 H 0.80348 0.15986 0.50978 0.0
C270 C 0.71178 0.55498 0.77821 0.0
C271 C 0.71242 0.59687 0.78827 0.0
C272 C 0.69637 0.59349 0.81772 0.0
C273 C 0.67708 0.62381 0.81866 0.0
C274 C 0.64549 0.61849 0.83098 0.0
C275 C 0.63219 0.58133 0.84228 0.0
C276 C 0.65378 0.55244 0.84184 0.0
C277 C 0.68663 0.5599 0.82977 0.0
C278 C 0.62455 0.65102 0.83137 0.0
C279 C 0.64007 0.51162 0.85335 0.0
C280 C 0.27958 0.32359 0.78992 0.0
C281 C 0.3295 0.35642 0.79777 0.0
C282 C 0.37442 0.42182 0.81966 0.0
C283 C 0.40902 0.40897 0.82361 0.0
C284 C 0.44917 0.43865 0.83479 0.0
C285 C 0.45659 0.48367 0.84154 0.0
C286 C 0.4224 0.49732 0.83742 0.0
C287 C 0.38104 0.4655 0.82685 0.0
C288 C 0.48417 0.42205 0.83906 0.0
C289 C 0.43004 0.54589 0.84385 0.0
C290 C 0.38205 0.46182 0.94755 0.0
C291 C 0.40556 0.43685 0.94315 0.0
C292 C 0.44969 0.46087 0.93567 0.0
C293 C 0.47039 0.51066 0.93243 0.0
C294 C 0.44785 0.53638 0.93755 0.0
C295 C 0.40411 0.51162 0.94522 0.0
C296 C 0.47363 0.43281 0.93083 0.0
C297 C 0.46921 0.58959 0.93444 0.0
C298 C 0.86213 0.7173 0.94591 0.0
C299 C 0.82524 0.73158 0.95014 0.0
C300 C 0.74099 0.66774 0.94999 0.0
C301 C 0.71621 0.6168 0.94867 0.0
C302 C 0.67023 0.58957 0.94019 0.0
C303 C 0.64825 0.61419 0.93336 0.0
C304 C 0.67202 0.66572 0.93566 0.0
C305 C 0.71846 0.69204 0.94384 0.0
C306 C 0.64575 0.53465 0.93811 0.0
C307 C 0.64878 0.69299 0.92917 0.0
C308 C 0.58974 0.56668 0.85225 0.0
C309 C 0.54442 0.54027 0.84349 0.0
C310 C 0.50205 0.51742 0.85183 0.0
C311 C 0.50456 0.52213 0.86952 0.0
C312 C 0.4628 0.49832 0.87837 0.0
C313 C 0.46571 0.50298 0.89579 0.0
C314 C 0.51061 0.53085 0.90506 0.0
C315 C 0.51395 0.53503 0.92279 0.0
C316 C 0.55911 0.56268 0.93163 0.0
C317 C 0.60143 0.58623 0.92322 0.0
C318 C 0.5989 0.5824 0.90548 0.0
C319 C 0.64084 0.60512 0.8966 0.0
C320 C 0.63792 0.60075 0.87915 0.0
C321 C 0.59305 0.57309 0.86993 0.0
C322 C 0.55025 0.55047 0.8786 0.0
C323 C 0.55324 0.55479 0.89639 0.0
C324 C 0.25348 0.38543 0.94836 0.0
C325 C 0.30279 0.39016 0.95098 0.0
O326 O 0.72339 0.59489 0.80506 0.0
O327 O 0.78683 0.69268 0.95707 0.0
O328 O 0.33801 0.43912 0.9539 0.0
O329 O 0.33469 0.39324 0.80896 0.0
H330 H 0.67559 0.59141 0.78637 0.0
H331 H 0.6845 0.51951 0.78285 0.0
H332 H 0.74773 0.55842 0.77955 0.0
H333 H 0.70203 0.5549 0.76472 0.0
H334 H 0.68605 0.65097 0.80958 0.0
H335 H 0.7025 0.5373 0.82902 0.0
H336 H 0.58747 0.63079 0.82515 0.0
H337 H 0.64646 0.68461 0.82471 0.0
H338 H 0.62213 0.66163 0.8445 0.0
H339 H 0.65558 0.48885 0.84992 0.0
H340 H 0.60018 0.48758 0.85305 0.0
H341 H 0.65348 0.52724 0.86642 0.0
H342 H 0.35887 0.37015 0.78896 0.0
H343 H 0.28234 0.33027 0.77619 0.0
H344 H 0.25906 0.34264 0.79231 0.0
H345 H 0.25963 0.25521 0.79897 0.0
H346 H 0.40525 0.37576 0.81812 0.0
H347 H 0.3544 0.47535 0.82372 0.0
H348 H 0.49602 0.42969 0.85263 0.0
H349 H 0.51668 0.44236 0.83192 0.0
H350 H 0.46814 0.38238 0.8358 0.0
H351 H 0.40317 0.55346 0.83789 0.0
H352 H 0.46688 0.57584 0.84148 0.0
H353 H 0.427 0.54623 0.8576 0.0
H354 H 0.30835 0.37492 0.93912 0.0
H355 H 0.38951 0.39864 0.94548 0.0
H356 H 0.38599 0.53068 0.9489 0.0
H357 H 0.4728 0.42887 0.91696 0.0
H358 H 0.45548 0.3958 0.93564 0.0
H359 H 0.51212 0.45321 0.93573 0.0
H360 H 0.4472 0.60436 0.93918 0.0
H361 H 0.47215 0.59431 0.92078 0.0
H362 H 0.50626 0.61138 0.94065 0.0
H363 H 0.81305 0.73988 0.93814 0.0
H364 H 0.89311 0.74766 0.94012 0.0
H365 H 0.84497 0.68474 0.93683 0.0
H366 H 0.87578 0.70834 0.95738 0.0
H367 H 0.73386 0.59853 0.95371 0.0
H368 H 0.73733 0.73155 0.94539 0.0
H369 H 0.63636 0.52218 0.92461 0.0
H370 H 0.61156 0.51772 0.94449 0.0
H371 H 0.6688 0.52132 0.9434 0.0
H372 H 0.66907 0.73205 0.93388 0.0
H373 H 0.61111 0.67578 0.93291 0.0
H374 H 0.64726 0.69105 0.91527 0.0
H375 H 0.54218 0.53483 0.82993 0.0
H376 H 0.42733 0.47583 0.87193 0.0
H377 H 0.43224 0.48407 0.90189 0.0
H378 H 0.56136 0.56572 0.94523 0.0
H379 H 0.67645 0.6264 0.90304 0.0
H380 H 0.67127 0.61903 0.87295 0.0
H381 H 0.24555 0.40089 0.95958 0.0
H382 H 0.22459 0.34642 0.94587 0.0
H383 H 0.25312 0.40554 0.9374 0.0
H384 H 0.03401 0.10217 0.11228 0.0
H385 H 0.0938 0.20544 0.07415 0.0
H386 H 0.03281 0.16392 0.13059 0.0
H387 H 0.09158 0.26695 0.09236 0.0
H388 H 0.14102 0.37865 0.13835 0.0
H389 H 0.13481 0.31669 0.1179 0.0
H390 H 0.99574 0.21178 0.13478 0.0
H391 H 0.00268 0.27348 0.15545 0.0
C392 C 0.04617 0.1378 0.10769 0.0
C393 C 0.06424 0.14887 0.09177 0.0
C394 C 0.04529 0.17321 0.11817 0.0
C395 C 0.06235 0.22056 0.11299 0.0
C396 C 0.0789 0.23112 0.09685 0.0
C397 C 0.07983 0.1957 0.08636 0.0
C398 C 0.10889 0.34251 0.13749 0.0
C399 C 0.07211 0.33105 0.14836 0.0
C400 C 0.10518 0.30703 0.12575 0.0
C401 C 0.06472 0.25919 0.12467 0.0
C402 C 0.02762 0.24806 0.13538 0.0
C403 C 0.03138 0.28349 0.14713 0.0
H404 H 0.89559 0.08957 0.39193 0.0
H405 H 0.97915 0.0689 0.43074 0.0
H406 H 0.84392 0.09174 0.41283 0.0
H407 H 0.92807 0.07188 0.45159 0.0
H408 H 0.80476 0.04063 0.48353 0.0
H409 H 0.84683 0.02817 0.46109 0.0
H410 H 0.8523 0.14813 0.43619 0.0
H411 H 0.80955 0.15998 0.45854 0.0
C412 C 0.90275 0.08513 0.40489 0.0
C413 C 0.94163 0.07923 0.40966 0.0
C414 C 0.87331 0.0867 0.41687 0.0
C415 C 0.88199 0.08221 0.43389 0.0
C416 C 0.92002 0.0749 0.43857 0.0
C417 C 0.9495 0.07345 0.42661 0.0
C418 C 0.81432 0.06379 0.47311 0.0
C419 C 0.80323 0.10077 0.47265 0.0
C420 C 0.83872 0.05693 0.46033 0.0
C421 C 0.85292 0.08714 0.44684 0.0
C422 C 0.8412 0.12371 0.44625 0.0
C423 C 0.81684 0.13061 0.45906 0.0
H424 H 0.9749 0.82674 0.75146 0.0
H425 H 0.8761 0.87722 0.74194 0.0
H426 H 0.91097 0.75349 0.76249 0.0
H427 H 0.8119 0.8042 0.75369 0.0
H428 H 0.69904 0.64342 0.76257 0.0
H429 H 0.75941 0.71685 0.75 0.0
H430 H 0.86847 0.73192 0.78698 0.0
H431 H 0.80877 0.65758 0.79891 0.0
C432 C 0.93937 0.82212 0.75175 0.0
C433 C 0.93055 0.85786 0.74597 0.0
C434 C 0.90277 0.78028 0.75823 0.0
C435 C 0.8565 0.77337 0.75934 0.0
C436 C 0.8471 0.80831 0.75298 0.0
C437 C 0.8838 0.85012 0.74626 0.0
C438 C 0.73589 0.66293 0.76807 0.0
C439 C 0.74902 0.64522 0.78186 0.0
C440 C 0.77043 0.705 0.76091 0.0
C441 C 0.81889 0.73019 0.7674 0.0
C442 C 0.83168 0.71295 0.78144 0.0
C443 C 0.79732 0.67067 0.78846 0.0
H444 H 0.11492 0.03555 0.10528 0.0
H445 H 0.16108 0.94817 0.07883 0.0
H446 H 0.08618 0.97773 0.12708 0.0
H447 H 0.13226 0.89048 0.10067 0.0
H448 H 0.99671 0.76883 0.12567 0.0
H449 H 0.04545 0.83235 0.10717 0.0
H450 H 0.10913 0.9383 0.14968 0.0
H451 H 0.06055 0.87432 0.1683 0.0
C452 C 0.12001 0.00469 0.10431 0.0
C453 C 0.13977 0.9962 0.09021 0.0
C454 C 0.10368 0.97166 0.11684 0.0
C455 C 0.10647 0.92933 0.11544 0.0
C456 C 0.12914 0.92253 0.10193 0.0
C457 C 0.14593 0.95579 0.08949 0.0
C458 C 0.02198 0.80537 0.13113 0.0
C459 C 0.02554 0.81649 0.14848 0.0
C460 C 0.04996 0.84174 0.12054 0.0
C461 C 0.08134 0.89017 0.12702 0.0
C462 C 0.08529 0.90125 0.14437 0.0
C463 C 0.05773 0.8647 0.155 0.0
H464 H 0.25671 0.13651 0.40435 0.0
H465 H 0.14096 0.11386 0.4349 0.0
H466 H 0.29294 0.11545 0.42738 0.0
H467 H 0.1771 0.09257 0.4578 0.0
H468 H 0.26324 0.07177 0.49899 0.0
H469 H 0.24743 0.11768 0.47849 0.0
H470 H 0.26108 0.03271 0.43829 0.0
H471 H 0.27655 0.98696 0.45869 0.0
C472 C 0.23961 0.12824 0.41609 0.0
C473 C 0.19548 0.12603 0.41769 0.0
C474 C 0.26026 0.11592 0.42924 0.0
C475 C 0.23743 0.10164 0.44427 0.0
C476 C 0.1956 0.10355 0.44638 0.0
C477 C 0.17477 0.11554 0.43321 0.0
C478 C 0.26378 0.06373 0.48576 0.0
C479 C 0.27182 0.02637 0.48043 0.0
C480 C 0.25461 0.08982 0.47406 0.0
C481 C 0.2534 0.07903 0.45681 0.0
C482 C 0.26279 0.04257 0.4515 0.0
C483 C 0.27148 0.01622 0.46318 0.0
H484 H 0.11613 0.15594 0.73551 0.0
H485 H 0.06601 0.09696 0.78307 0.0
H486 H 0.17963 0.23246 0.75015 0.0
H487 H 0.12825 0.17375 0.79765 0.0
H488 H 0.26906 0.318 0.82929 0.0
H489 H 0.17682 0.26259 0.80985 0.0
H490 H 0.25388 0.22873 0.76256 0.0
H491 H 0.34784 0.28326 0.7805 0.0
C492 C 0.11688 0.16039 0.74903 0.0
C493 C 0.08677 0.1206 0.75824 0.0
C494 C 0.1533 0.20405 0.7574 0.0
C495 C 0.15896 0.2086 0.77498 0.0
C496 C 0.12441 0.17135 0.78408 0.0
C497 C 0.08886 0.12729 0.77575 0.0
C498 C 0.26586 0.30041 0.8171 0.0
C499 C 0.31961 0.31402 0.8055 0.0
C500 C 0.20938 0.26856 0.80452 0.0
C501 C 0.2062 0.24397 0.7835 0.0
C502 C 0.25802 0.24728 0.77464 0.0
C503 C 0.31594 0.27812 0.78614 0.0
H504 H 0.98811 0.08364 0.66527 0.0
H505 H 0.88444 0.99862 0.7006 0.0
H506 H 0.93007 0.10145 0.65201 0.0
H507 H 0.82739 0.01769 0.68783 0.0
H508 H 0.71876 0.02989 0.65585 0.0
H509 H 0.77524 0.00422 0.664 0.0
H510 H 0.89488 0.14966 0.65774 0.0
H511 H 0.83806 0.17444 0.64885 0.0
C512 C 0.95292 0.06863 0.67018 0.0
C513 C 0.941 0.03981 0.68403 0.0
C514 C 0.91974 0.07908 0.66264 0.0
C515 C 0.87398 0.06114 0.66885 0.0
C516 C 0.86186 0.03147 0.68249 0.0
C517 C 0.89482 0.02078 0.68992 0.0
C518 C 0.75715 0.05611 0.65599 0.0
C519 C 0.77403 0.1043 0.6519 0.0
C520 C 0.78957 0.04156 0.66079 0.0
C521 C 0.83972 0.07502 0.66179 0.0
C522 C 0.85659 0.12274 0.65701 0.0
C523 C 0.8241 0.13714 0.65204 0.0
H524 H 0.96802 0.95882 0.03368 0.0
H525 H 0.06445 0.9881 0.9943 0.0
H526 H 0.90092 0.89425 0.01517 0.0
H527 H 0.99793 0.92479 0.97587 0.0
H528 H 0.839 0.73784 0.98467 0.0
H529 H 0.88879 0.81145 0.00325 0.0
H530 H 0.91677 0.90027 0.96109 0.0
H531 H 0.86678 0.82669 0.94251 0.0
C532 C 0.9745 0.9523 0.02095 0.0
C533 C 0.02129 0.97809 0.0154 0.0
C534 C 0.93632 0.91532 0.01043 0.0
C535 C 0.94432 0.90461 0.99411 0.0
C536 C 0.99057 0.93256 0.98831 0.0
C537 C 0.02871 0.9686 0.99889 0.0
C538 C 0.85456 0.77317 0.97948 0.0
C539 C 0.84869 0.77663 0.96217 0.0
C540 C 0.88291 0.81529 0.99011 0.0
C541 C 0.90657 0.86149 0.98358 0.0
C542 C 0.89895 0.86506 0.96642 0.0
C543 C 0.87031 0.82305 0.95582 0.0
H544 H 0.99393 0.93995 0.37159 0.0
H545 H 0.08199 -0.00065 0.32976 0.0
H546 H 0.95863 0.85762 0.35819 0.0
H547 H 0.04619 0.91704 0.31634 0.0
H548 H 0.92575 0.764 0.29162 0.0
H549 H 0.96097 0.84719 0.30424 0.0
H550 H 0.99336 0.80268 0.35081 0.0
H551 H 0.95904 0.71966 0.33812 0.0
C552 C 0.00541 0.93549 0.35948 0.0
C553 C 0.04081 0.97609 0.35175 0.0
C554 C 0.98544 0.8884 0.35189 0.0
C555 C -0.00011 0.88113 0.33629 0.0
C556 C 0.03432 0.92176 0.32834 0.0
C557 C 0.05489 0.96876 0.33606 0.0
C558 C 0.94113 0.77215 0.30446 0.0
C559 C 0.94058 0.73557 0.31381 0.0
C560 C 0.9611 0.81967 0.31167 0.0
C561 C 0.97975 0.83118 0.32848 0.0
C562 C 0.97892 0.79462 0.33786 0.0
C563 C 0.95968 0.74735 0.33058 0.0
H564 H 0.19193 0.01906 0.71626 0.0
H565 H 0.08484 0.98044 0.6751 0.0
H566 H 0.24811 0.02127 0.69694 0.0
H567 H 0.14233 0.98329 0.65543 0.0
H568 H 0.24175 0.92637 0.63403 0.0
H569 H 0.18186 0.93507 0.64896 0.0
H570 H 0.29659 0.06864 0.67482 0.0
H571 H 0.35611 0.05902 0.66039 0.0
C572 C 0.18041 0.01136 0.70303 0.0
C573 C 0.1337 -0.00071 0.69725 0.0
C574 C 0.21296 0.01314 0.6919 0.0
C575 C 0.1999 0.0029 0.67462 0.0
C576 C 0.15335 0.99128 0.6687 0.0
C577 C 0.12057 0.98981 0.67993 0.0
C578 C 0.25392 0.95788 0.64275 0.0
C579 C 0.30359 0.99149 0.64632 0.0
C580 C 0.21968 0.96308 0.65119 0.0
C581 C 0.23459 0.0021 0.66327 0.0
C582 C 0.28405 0.0376 0.66584 0.0
C583 C 0.31815 0.03222 0.65753 0.0
H584 H 0.19874 0.22667 0.03658 0.0
H585 H 0.28362 0.16979 0.01688 0.0
H586 H 0.23269 0.29168 0.0175 0.0
H587 H 0.31839 0.23567 0.99799 0.0
H588 H 0.31143 0.41523 0.98481 0.0
H589 H 0.30174 0.36428 0.00809 0.0
H590 H 0.28205 0.24858 0.97292 0.0
H591 H 0.29268 0.29988 0.94982 0.0
C592 C 0.22565 0.22877 0.02851 0.0
C593 C 0.23782 0.1925 0.02807 0.0
C594 C 0.24534 0.26628 0.0176 0.0
C595 C 0.27772 0.26844 0.00603 0.0
C596 C 0.2928 0.23443 0.00653 0.0
C597 C 0.27311 0.19688 0.01745 0.0
C598 C 0.30611 0.37929 0.98216 0.0
C599 C 0.30312 0.36155 0.96554 0.0
C600 C 0.30028 0.35004 0.99545 0.0
C601 C 0.2911 0.30235 0.99237 0.0
C602 C 0.28991 0.2854 0.97578 0.0
C603 C 0.29568 0.31462 0.96252 0.0
H604 H 0.01206 0.17734 0.36332 0.0
H605 H 0.15462 0.25986 0.34532 0.0
H606 H 0.98607 0.22237 0.34673 0.0
H607 H 0.12927 0.30701 0.3293 0.0
H608 H 0.06688 0.3593 0.28072 0.0
H609 H 0.09795 0.31054 0.3031 0.0
H610 H 0.96708 0.27984 0.34121 0.0
H611 H 0.93284 0.32721 0.31966 0.0
C612 C 0.03822 0.20596 0.35611 0.0
C613 C 0.08529 0.21467 0.35551 0.0
C614 C 0.02335 0.23217 0.34662 0.0
C615 C 0.05539 0.26814 0.3365 0.0
C616 C 0.1032 0.27863 0.33658 0.0
C617 C 0.11794 0.25194 0.34591 0.0
C618 C 0.04752 0.34295 0.29161 0.0
C619 C 0.00191 0.35602 0.29954 0.0
C620 C 0.06807 0.31479 0.30612 0.0
C621 C 0.03832 0.29256 0.32526 0.0
C622 C 0.98508 0.29451 0.32996 0.0
C623 C 0.96185 0.32195 0.3162 0.0
loop_
_geom_bond_atom_site_label_1
_geom_bond_atom_site_label_2
_geom_bond_distance
_geom_bond_site_symmetry_2
_ccdc_geom_bond_type
Zn0 O3 2.031 1_545 S
Zn0 O5 2.049 . S
Zn0 O10 2.067 . S
Zn1 O2 1.962 . S
Zn1 O4 1.986 . S
Zn1 O6 1.996 . S
Zn1 O9 1.943 . S
O2 Zn1 1.962 . S
O2 C7 1.254 . S
O3 Zn0 2.031 1_565 S
O3 C7 1.269 1_565 S
O4 Zn1 1.986 . S
O4 C11 1.262 . S
O5 Zn0 2.049 . S
O5 C13 1.260 . S
O6 Zn1 1.996 . S
O6 C13 1.257 . S
C7 O2 1.254 . S
C7 O3 1.269 1_545 S
C8 O9 1.249 . S
C8 O10 1.270 . S
O9 Zn1 1.943 . S
O9 C8 1.249 . S
O10 Zn0 2.067 . S
O10 C8 1.270 . S
C11 O4 1.262 . S
C11 O12 1.232 . S
O12 C11 1.232 . S
C13 O5 1.260 . S
C13 O6 1.257 . S
Zn14 O17 2.031 . S
Zn14 O19 2.049 . S
Zn14 O24 2.067 . S
Zn15 O16 1.962 . S
Zn15 O18 1.986 1_455 S
Zn15 O20 1.996 . S
Zn15 O23 1.943 . S
O16 Zn15 1.962 . S
O16 C21 1.254 . S
O17 Zn14 2.031 . S
O17 C21 1.269 . S
O18 Zn15 1.986 1_655 S
O18 C25 1.262 . S
O19 Zn14 2.049 . S
O19 C27 1.260 . S
O20 Zn15 1.996 . S
O20 C27 1.257 . S
C21 O16 1.254 . S
C21 O17 1.269 . S
C22 O23 1.249 . S
C22 O24 1.270 . S
O23 Zn15 1.943 . S
O23 C22 1.249 . S
O24 Zn14 2.067 . S
O24 C22 1.270 . S
C25 O18 1.262 . S
C25 O26 1.232 . S
O26 C25 1.232 . S
C27 O19 1.260 . S
C27 O20 1.257 . S
Zn28 O31 2.031 1_565 S
Zn28 O33 2.049 . S
Zn28 O38 2.067 1_565 S
Zn29 O30 1.970 . S
Zn29 O32 1.986 1_455 S
Zn29 O34 1.996 1_445 S
Zn29 O37 1.943 . S
O30 Zn29 1.970 . S
O30 C35 1.249 . S
O31 Zn28 2.031 1_545 S
O31 C35 1.269 . S
O32 Zn29 1.986 1_655 S
O32 C39 1.262 . S
O33 Zn28 2.049 . S
O33 C41 1.260 1_455 S
O34 Zn29 1.996 1_665 S
O34 C41 1.257 . S
C35 O30 1.249 . S
C35 O31 1.269 . S
C36 O37 1.249 . S
C36 O38 1.270 . S
O37 Zn29 1.943 . S
O37 C36 1.249 . S
O38 Zn28 2.067 1_545 S
O38 C36 1.270 . S
C39 O32 1.262 . S
C39 O40 1.213 1_655 S
O40 C39 1.213 1_455 S
C41 O33 1.260 1_655 S
C41 O34 1.257 . S
C42 C43 1.560 1_655 S
C42 H103 0.959 . S
C42 H104 0.959 . S
C42 H105 0.960 . S
C43 C42 1.560 1_455 S
C43 O98 1.426 1_455 S
C43 H102 0.980 . S
C44 C45 1.407 . S
C44 C49 1.418 1_455 S
C44 O98 1.334 1_455 S
C45 C44 1.407 . S
C45 C46 1.360 . S
C45 H106 0.929 . S
C46 C45 1.360 . S
C46 C47 1.401 . S
C46 C50 1.527 . S
C47 C46 1.401 . S
C47 C48 1.405 1_455 S
C47 C80 1.587 . S
C48 C47 1.405 1_655 S
C48 C49 1.332 . S
C48 C51 1.496 . S
C49 C44 1.418 1_655 S
C49 C48 1.332 . S
C49 H107 0.929 . S
C50 C46 1.527 . S
C50 H108 0.959 . S
C50 H109 0.961 . S
C50 H110 0.961 . S
C51 C48 1.496 . S
C51 H111 0.960 . S
C51 H112 0.960 . S
C51 H113 0.961 . S
C52 C53 1.517 . S
C52 H115 0.961 . S
C52 H116 0.960 . S
C52 H117 0.959 . S
C53 C52 1.517 . S
C53 O101 1.468 . S
C53 H114 0.980 . S
C54 C55 1.349 . S
C54 C59 1.367 . S
C54 O101 1.408 . S
C55 C54 1.349 . S
C55 C56 1.407 . S
C55 H118 0.930 . S
C56 C55 1.407 . S
C56 C57 1.449 . S
C56 C60 1.535 1_455 S
C57 C56 1.449 . S
C57 C58 1.384 . S
C57 C82 1.553 . S
C58 C57 1.384 . S
C58 C59 1.364 . S
C58 C61 1.450 . S
C59 C54 1.367 . S
C59 C58 1.364 . S
C59 H119 0.931 . S
C60 C56 1.535 1_655 S
C60 H120 0.959 . S
C60 H121 0.961 . S
C60 H122 0.959 . S
C61 C58 1.450 . S
C61 H123 0.960 . S
C61 H124 0.960 . S
C61 H125 0.960 . S
C62 C63 1.309 . S
C62 C67 1.304 . S
C62 O100 1.435 . S
C63 C62 1.309 . S
C63 C64 1.476 . S
C63 H127 0.930 . S
C64 C63 1.476 . S
C64 C65 1.400 . S
C64 C68 1.567 1_455 S
C65 C64 1.400 . S
C65 C66 1.373 . S
C65 C87 1.432 . S
C66 C65 1.373 . S
C66 C67 1.339 . S
C66 C69 1.530 . S
C67 C62 1.304 . S
C67 C66 1.339 . S
C67 H128 0.930 . S
C68 C64 1.567 1_655 S
C68 H129 0.961 . S
C68 H130 0.960 . S
C68 H131 0.958 . S
C69 C66 1.530 . S
C69 H132 0.961 . S
C69 H133 0.960 . S
C69 H134 0.960 . S
C70 C71 1.530 . S
C70 H136 0.961 . S
C70 H137 0.961 1_455 S
C70 H138 0.959 1_455 S
C71 C70 1.530 . S
C71 O99 1.412 . S
C71 H135 0.980 . S
C72 C73 1.288 1_455 S
C72 C77 1.377 . S
C72 O99 1.393 . S
C73 C72 1.288 1_655 S
C73 C74 1.381 . S
C73 H139 0.932 . S
C74 C73 1.381 . S
C74 C75 1.378 1_655 S
C74 C78 1.534 . S
C75 C74 1.378 1_455 S
C75 C76 1.380 . S
C75 C89 1.497 . S
C76 C75 1.380 . S
C76 C77 1.383 . S
C76 C79 1.603 . S
C77 C72 1.377 . S
C77 C76 1.383 . S
C77 H140 0.929 . S
C78 C74 1.534 . S
C78 H141 0.961 . S
C78 H142 0.959 . S
C78 H143 0.959 . S
C79 C76 1.603 . S
C79 H144 0.960 . S
C79 H145 0.962 . S
C79 H146 0.961 . S
C80 C47 1.587 . S
C80 C81 1.360 . S
C80 C93 1.412 . S
C81 C80 1.360 . S
C81 C82 1.365 . S
C81 H147 0.929 . S
C82 C57 1.553 . S
C82 C81 1.365 . S
C82 C83 1.404 . S
C83 C82 1.404 . S
C83 C84 1.395 . S
C83 C94 1.451 . S
C84 C83 1.395 . S
C84 C85 1.322 . S
C84 H148 0.930 . S
C85 C84 1.322 . S
C85 C86 1.459 . S
C85 H149 0.929 . S
C86 C85 1.459 . S
C86 C87 1.445 . S
C86 C95 1.395 . S
C87 C65 1.432 . S
C87 C86 1.445 . S
C87 C88 1.370 . S
C88 C87 1.370 . S
C88 C89 1.438 . S
C88 H150 0.930 . S
C89 C75 1.497 . S
C89 C88 1.438 . S
C89 C90 1.360 . S
C90 C89 1.360 . S
C90 C91 1.401 . S
C90 C95 1.446 . S
C91 C90 1.401 . S
C91 C92 1.347 . S
C91 H151 0.929 . S
C92 C91 1.347 . S
C92 C93 1.455 . S
C92 H152 0.930 . S
C93 C80 1.412 . S
C93 C92 1.455 . S
C93 C94 1.331 . S
C94 C83 1.451 . S
C94 C93 1.331 . S
C94 C95 1.497 . S
C95 C86 1.395 . S
C95 C90 1.446 . S
C95 C94 1.497 . S
C96 C97 1.582 . S
C96 H153 0.962 . S
C96 H154 0.959 . S
C96 H155 0.958 . S
C97 C96 1.582 . S
C97 O100 1.458 . S
C97 H126 0.980 . S
O98 C43 1.426 1_655 S
O98 C44 1.334 1_655 S
O99 C71 1.412 . S
O99 C72 1.393 . S
O100 C62 1.435 . S
O100 C97 1.458 . S
O101 C53 1.468 . S
O101 C54 1.408 . S
H102 C43 0.980 . S
H103 C42 0.959 . S
H104 C42 0.959 . S
H105 C42 0.960 . S
H106 C45 0.929 . S
H107 C49 0.929 . S
H108 C50 0.959 . S
H109 C50 0.961 . S
H110 C50 0.961 . S
H111 C51 0.960 . S
H112 C51 0.960 . S
H113 C51 0.961 . S
H114 C53 0.980 . S
H115 C52 0.961 . S
H116 C52 0.960 . S
H117 C52 0.959 . S
H118 C55 0.930 . S
H119 C59 0.931 . S
H120 C60 0.959 . S
H121 C60 0.961 . S
H122 C60 0.959 . S
H123 C61 0.960 . S
H124 C61 0.960 . S
H125 C61 0.960 . S
H126 C97 0.980 . S
H127 C63 0.930 . S
H128 C67 0.930 . S
H129 C68 0.961 . S
H130 C68 0.960 . S
H131 C68 0.958 . S
H132 C69 0.961 . S
H133 C69 0.960 . S
H134 C69 0.960 . S
H135 C71 0.980 . S
H136 C70 0.961 . S
H137 C70 0.961 1_655 S
H138 C70 0.959 1_655 S
H139 C73 0.932 . S
H140 C77 0.929 . S
H141 C78 0.961 . S
H142 C78 0.959 . S
H143 C78 0.959 . S
H144 C79 0.960 . S
H145 C79 0.962 . S
H146 C79 0.961 . S
H147 C81 0.929 . S
H148 C84 0.930 . S
H149 C85 0.929 . S
H150 C88 0.930 . S
H151 C91 0.929 . S
H152 C92 0.930 . S
H153 C96 0.962 . S
H154 C96 0.959 . S
H155 C96 0.958 . S
C156 C157 1.560 1_565 S
C156 H217 0.959 . S
C156 H218 0.959 . S
C156 H219 0.960 . S
C157 C156 1.560 1_545 S
C157 O212 1.426 1_545 S
C157 H216 0.980 . S
C158 C159 1.407 . S
C158 C163 1.418 1_545 S
C158 O212 1.334 1_545 S
C159 C158 1.407 . S
C159 C160 1.360 . S
C159 H220 0.929 . S
C160 C159 1.360 . S
C160 C161 1.401 . S
C160 C164 1.527 . S
C161 C160 1.401 . S
C161 C162 1.405 . S
C161 C194 1.587 . S
C162 C161 1.405 . S
C162 C163 1.332 1_545 S
C162 C165 1.496 1_545 S
C163 C158 1.418 1_565 S
C163 C162 1.332 1_565 S
C163 H221 0.929 . S
C164 C160 1.527 . S
C164 H222 0.959 . S
C164 H223 0.961 . S
C164 H224 0.961 . S
C165 C162 1.496 1_565 S
C165 H225 0.960 . S
C165 H226 0.960 . S
C165 H227 0.961 . S
C166 C167 1.517 . S
C166 H229 0.961 . S
C166 H230 0.960 . S
C166 H231 0.959 . S
C167 C166 1.517 . S
C167 O215 1.468 . S
C167 H228 0.980 . S
C168 C169 1.349 . S
C168 C173 1.367 . S
C168 O215 1.408 . S
C169 C168 1.349 . S
C169 C170 1.407 . S
C169 H232 0.930 . S
C170 C169 1.407 . S
C170 C171 1.449 . S
C170 C174 1.535 . S
C171 C170 1.449 . S
C171 C172 1.384 . S
C171 C196 1.553 . S
C172 C171 1.384 . S
C172 C173 1.364 . S
C172 C175 1.450 . S
C173 C168 1.367 . S
C173 C172 1.364 . S
C173 H233 0.931 . S
C174 C170 1.535 . S
C174 H234 0.959 . S
C174 H235 0.961 1_545 S
C174 H236 0.959 1_545 S
C175 C172 1.450 . S
C175 H237 0.960 . S
C175 H238 0.960 . S
C175 H239 0.960 . S
C176 C177 1.309 . S
C176 C181 1.304 . S
C176 O214 1.435 . S
C177 C176 1.309 . S
C177 C178 1.476 . S
C177 H241 0.930 . S
C178 C177 1.476 . S
C178 C179 1.400 . S
C178 C182 1.567 . S
C179 C178 1.400 . S
C179 C180 1.373 . S
C179 C201 1.432 . S
C180 C179 1.373 . S
C180 C181 1.339 . S
C180 C183 1.530 . S
C181 C176 1.304 . S
C181 C180 1.339 . S
C181 H242 0.930 . S
C182 C178 1.567 . S
C182 H243 0.961 . S
C182 H244 0.960 1_545 S
C182 H245 0.958 1_545 S
C183 C180 1.530 . S
C183 H246 0.961 . S
C183 H247 0.960 . S
C183 H248 0.960 . S
C184 C185 1.530 . S
C184 H250 0.961 . S
C184 H251 0.961 . S
C184 H252 0.959 . S
C185 C184 1.530 . S
C185 O213 1.412 . S
C185 H249 0.980 . S
C186 C187 1.288 . S
C186 C191 1.377 . S
C186 O213 1.393 . S
C187 C186 1.288 . S
C187 C188 1.369 . S
C187 H253 0.932 1_545 S
C188 C187 1.369 . S
C188 C189 1.398 . S
C188 C192 1.527 1_545 S
C189 C188 1.398 . S
C189 C190 1.380 . S
C189 C203 1.497 . S
C190 C189 1.380 . S
C190 C191 1.383 . S
C190 C193 1.603 . S
C191 C186 1.377 . S
C191 C190 1.383 . S
C191 H254 0.929 . S
C192 C188 1.527 1_565 S
C192 H255 0.961 . S
C192 H256 0.959 . S
C192 H257 0.959 . S
C193 C190 1.603 . S
C193 H258 0.960 . S
C193 H259 0.962 . S
C193 H260 0.961 . S
C194 C161 1.587 . S
C194 C195 1.360 . S
C194 C207 1.412 . S
C195 C194 1.360 . S
C195 C196 1.365 . S
C195 H261 0.929 . S
C196 C171 1.553 . S
C196 C195 1.365 . S
C196 C197 1.404 . S
C197 C196 1.404 . S
C197 C198 1.395 . S
C197 C208 1.451 . S
C198 C197 1.395 . S
C198 C199 1.322 . S
C198 H262 0.930 . S
C199 C198 1.322 . S
C199 C200 1.459 . S
C199 H263 0.929 . S
C200 C199 1.459 . S
C200 C201 1.445 . S
C200 C209 1.395 . S
C201 C179 1.432 . S
C201 C200 1.445 . S
C201 C202 1.370 . S
C202 C201 1.370 . S
C202 C203 1.438 . S
C202 H264 0.930 . S
C203 C189 1.497 . S
C203 C202 1.438 . S
C203 C204 1.360 . S
C204 C203 1.360 . S
C204 C205 1.401 . S
C204 C209 1.446 . S
C205 C204 1.401 . S
C205 C206 1.347 . S
C205 H265 0.929 . S
C206 C205 1.347 . S
C206 C207 1.455 . S
C206 H266 0.930 . S
C207 C194 1.412 . S
C207 C206 1.455 . S
C207 C208 1.331 . S
C208 C197 1.451 . S
C208 C207 1.331 . S
C208 C209 1.497 . S
C209 C200 1.395 . S
C209 C204 1.446 . S
C209 C208 1.497 . S
C210 C211 1.582 . S
C210 H267 0.962 . S
C210 H268 0.959 . S
C210 H269 0.958 . S
C211 C210 1.582 . S
C211 O214 1.458 . S
C211 H240 0.980 . S
O212 C157 1.426 1_565 S
O212 C158 1.334 1_565 S
O213 C185 1.412 . S
O213 C186 1.393 . S
O214 C176 1.435 . S
O214 C211 1.458 . S
O215 C167 1.468 . S
O215 C168 1.408 . S
H216 C157 0.980 . S
H217 C156 0.959 . S
H218 C156 0.959 . S
H219 C156 0.960 . S
H220 C159 0.929 . S
H221 C163 0.929 . S
H222 C164 0.959 . S
H223 C164 0.961 . S
H224 C164 0.961 . S
H225 C165 0.960 . S
H226 C165 0.960 . S
H227 C165 0.961 . S
H228 C167 0.980 . S
H229 C166 0.961 . S
H230 C166 0.960 . S
H231 C166 0.959 . S
H232 C169 0.930 . S
H233 C173 0.931 . S
H234 C174 0.959 . S
H235 C174 0.961 1_565 S
H236 C174 0.959 1_565 S
H237 C175 0.960 . S
H238 C175 0.960 . S
H239 C175 0.960 . S
H240 C211 0.980 . S
H241 C177 0.930 . S
H242 C181 0.930 . S
H243 C182 0.961 . S
H244 C182 0.960 1_565 S
H245 C182 0.958 1_565 S
H246 C183 0.961 . S
H247 C183 0.960 . S
H248 C183 0.960 . S
H249 C185 0.980 . S
H250 C184 0.961 . S
H251 C184 0.961 . S
H252 C184 0.959 . S
H253 C187 0.932 1_565 S
H254 C191 0.929 . S
H255 C192 0.961 . S
H256 C192 0.959 . S
H257 C192 0.959 . S
H258 C193 0.960 . S
H259 C193 0.962 . S
H260 C193 0.961 . S
H261 C195 0.929 . S
H262 C198 0.930 . S
H263 C199 0.929 . S
H264 C202 0.930 . S
H265 C205 0.929 . S
H266 C206 0.930 . S
H267 C210 0.962 . S
H268 C210 0.959 . S
H269 C210 0.958 . S
C270 C271 1.560 . S
C270 H331 0.959 . S
C270 H332 0.959 . S
C270 H333 0.960 . S
C271 C270 1.560 . S
C271 O326 1.426 . S
C271 H330 0.980 . S
C272 C273 1.407 . S
C272 C277 1.418 . S
C272 O326 1.334 . S
C273 C272 1.407 . S
C273 C274 1.360 . S
C273 H334 0.929 . S
C274 C273 1.360 . S
C274 C275 1.401 . S
C274 C278 1.527 . S
C275 C274 1.401 . S
C275 C276 1.405 . S
C275 C308 1.587 . S
C276 C275 1.405 . S
C276 C277 1.332 . S
C276 C279 1.496 . S
C277 C272 1.418 . S
C277 C276 1.332 . S
C277 H335 0.929 . S
C278 C274 1.527 . S
C278 H336 0.959 . S
C278 H337 0.961 . S
C278 H338 0.961 . S
C279 C276 1.496 . S
C279 H339 0.960 . S
C279 H340 0.960 . S
C279 H341 0.961 . S
C280 C281 1.517 . S
C280 H343 0.961 . S
C280 H344 0.960 . S
C280 H345 0.959 . S
C281 C280 1.517 . S
C281 O329 1.468 . S
C281 H342 0.980 . S
C282 C283 1.349 . S
C282 C287 1.367 . S
C282 O329 1.408 . S
C283 C282 1.349 . S
C283 C284 1.407 . S
C283 H346 0.930 . S
C284 C283 1.407 . S
C284 C285 1.449 . S
C284 C288 1.535 . S
C285 C284 1.449 . S
C285 C286 1.384 . S
C285 C310 1.553 . S
C286 C285 1.384 . S
C286 C287 1.364 . S
C286 C289 1.450 . S
C287 C282 1.367 . S
C287 C286 1.364 . S
C287 H347 0.931 . S
C288 C284 1.535 . S
C288 H348 0.959 . S
C288 H349 0.961 . S
C288 H350 0.959 . S
C289 C286 1.450 . S
C289 H351 0.960 . S
C289 H352 0.960 . S
C289 H353 0.960 . S
C290 C291 1.309 . S
C290 C295 1.304 . S
C290 O328 1.435 . S
C291 C290 1.309 . S
C291 C292 1.476 . S
C291 H355 0.930 . S
C292 C291 1.476 . S
C292 C293 1.400 . S
C292 C296 1.567 . S
C293 C292 1.400 . S
C293 C294 1.373 . S
C293 C315 1.432 . S
C294 C293 1.373 . S
C294 C295 1.339 . S
C294 C297 1.530 . S
C295 C290 1.304 . S
C295 C294 1.339 . S
C295 H356 0.930 . S
C296 C292 1.567 . S
C296 H357 0.961 . S
C296 H358 0.960 . S
C296 H359 0.958 . S
C297 C294 1.530 . S
C297 H360 0.961 . S
C297 H361 0.960 . S
C297 H362 0.960 . S
C298 C299 1.530 . S
C298 H364 0.961 . S
C298 H365 0.961 . S
C298 H366 0.959 . S
C299 C298 1.530 . S
C299 O327 1.412 . S
C299 H363 0.980 . S
C300 C301 1.288 . S
C300 C305 1.377 . S
C300 O327 1.393 . S
C301 C300 1.288 . S
C301 C302 1.369 . S
C301 H367 0.932 . S
C302 C301 1.369 . S
C302 C303 1.398 . S
C302 C306 1.527 . S
C303 C302 1.398 . S
C303 C304 1.380 . S
C303 C317 1.497 . S
C304 C303 1.380 . S
C304 C305 1.383 . S
C304 C307 1.603 . S
C305 C300 1.377 . S
C305 C304 1.383 . S
C305 H368 0.929 . S
C306 C302 1.527 . S
C306 H369 0.961 . S
C306 H370 0.959 . S
C306 H371 0.959 . S
C307 C304 1.603 . S
C307 H372 0.960 . S
C307 H373 0.962 . S
C307 H374 0.961 . S
C308 C275 1.587 . S
C308 C309 1.360 . S
C308 C321 1.412 . S
C309 C308 1.360 . S
C309 C310 1.365 . S
C309 H375 0.929 . S
C310 C285 1.553 . S
C310 C309 1.365 . S
C310 C311 1.404 . S
C311 C310 1.404 . S
C311 C312 1.395 . S
C311 C322 1.451 . S
C312 C311 1.395 . S
C312 C313 1.322 . S
C312 H376 0.930 . S
C313 C312 1.322 . S
C313 C314 1.459 . S
C313 H377 0.929 . S
C314 C313 1.459 . S
C314 C315 1.445 . S
C314 C323 1.395 . S
C315 C293 1.432 . S
C315 C314 1.445 . S
C315 C316 1.370 . S
C316 C315 1.370 . S
C316 C317 1.438 . S
C316 H378 0.930 . S
C317 C303 1.497 . S
C317 C316 1.438 . S
C317 C318 1.360 . S
C318 C317 1.360 . S
C318 C319 1.401 . S
C318 C323 1.446 . S
C319 C318 1.401 . S
C319 C320 1.347 . S
C319 H379 0.929 . S
C320 C319 1.347 . S
C320 C321 1.455 . S
C320 H380 0.930 . S
C321 C308 1.412 . S
C321 C320 1.455 . S
C321 C322 1.331 . S
C322 C311 1.451 . S
C322 C321 1.331 . S
C322 C323 1.497 . S
C323 C314 1.395 . S
C323 C318 1.446 . S
C323 C322 1.497 . S
C324 C325 1.582 . S
C324 H381 0.962 . S
C324 H382 0.959 . S
C324 H383 0.958 . S
C325 C324 1.582 . S
C325 O328 1.458 . S
C325 H354 0.980 . S
O326 C271 1.426 . S
O326 C272 1.334 . S
O327 C299 1.412 . S
O327 C300 1.393 . S
O328 C290 1.435 . S
O328 C325 1.458 . S
O329 C281 1.468 . S
O329 C282 1.408 . S
H330 C271 0.980 . S
H331 C270 0.959 . S
H332 C270 0.959 . S
H333 C270 0.960 . S
H334 C273 0.929 . S
H335 C277 0.929 . S
H336 C278 0.959 . S
H337 C278 0.961 . S
H338 C278 0.961 . S
H339 C279 0.960 . S
H340 C279 0.960 . S
H341 C279 0.961 . S
H342 C281 0.980 . S
H343 C280 0.961 . S
H344 C280 0.960 . S
H345 C280 0.959 . S
H346 C283 0.930 . S
H347 C287 0.931 . S
H348 C288 0.959 . S
H349 C288 0.961 . S
H350 C288 0.959 . S
H351 C289 0.960 . S
H352 C289 0.960 . S
H353 C289 0.960 . S
H354 C325 0.980 . S
H355 C291 0.930 . S
H356 C295 0.930 . S
H357 C296 0.961 . S
H358 C296 0.960 . S
H359 C296 0.958 . S
H360 C297 0.961 . S
H361 C297 0.960 . S
H362 C297 0.960 . S
H363 C299 0.980 . S
H364 C298 0.961 . S
H365 C298 0.961 . S
H366 C298 0.959 . S
H367 C301 0.932 . S
H368 C305 0.929 . S
H369 C306 0.961 . S
H370 C306 0.959 . S
H371 C306 0.959 . S
H372 C307 0.960 . S
H373 C307 0.962 . S
H374 C307 0.961 . S
H375 C309 0.929 . S
H376 C312 0.930 . S
H377 C313 0.929 . S
H378 C316 0.930 . S
H379 C319 0.929 . S
H380 C320 0.930 . S
H381 C324 0.962 . S
H382 C324 0.959 . S
H383 C324 0.958 . S
H384 C392 0.950 . S
H385 C397 0.950 . S
H386 C394 0.950 . S
H387 C396 0.950 . S
H388 C398 0.950 . S
H389 C400 0.950 . S
H390 C402 0.950 . S
H391 C403 0.950 . S
C392 H384 0.950 . S
C392 C393 1.386 . S
C392 C394 1.391 . S
C393 C392 1.386 . S
C393 C397 1.393 . S
C394 H386 0.950 . S
C394 C392 1.391 . S
C394 C395 1.400 . S
C395 C394 1.400 . S
C395 C396 1.398 . S
C395 C401 1.491 . S
C396 H387 0.950 . S
C396 C395 1.398 . S
C396 C397 1.391 . S
C397 H385 0.950 . S
C397 C393 1.393 . S
C397 C396 1.391 . S
C398 H388 0.950 . S
C398 C399 1.386 . S
C398 C400 1.391 . S
C399 C398 1.386 . S
C399 C403 1.393 . S
C400 H389 0.950 . S
C400 C398 1.391 . S
C400 C401 1.400 . S
C401 C395 1.491 . S
C401 C400 1.400 . S
C401 C402 1.398 . S
C402 H390 0.950 . S
C402 C401 1.398 . S
C402 C403 1.391 . S
C403 H391 0.950 . S
C403 C399 1.393 . S
C403 C402 1.391 . S
H404 C412 0.950 . S
H405 C417 0.950 . S
H406 C414 0.950 . S
H407 C416 0.950 . S
H408 C418 0.950 . S
H409 C420 0.950 . S
H410 C422 0.950 . S
H411 C423 0.950 . S
C412 H404 0.950 . S
C412 C413 1.386 . S
C412 C414 1.391 . S
C413 C412 1.386 . S
C413 C417 1.393 . S
C414 H406 0.950 . S
C414 C412 1.391 . S
C414 C415 1.400 . S
C415 C414 1.400 . S
C415 C416 1.398 . S
C415 C421 1.491 . S
C416 H407 0.950 . S
C416 C415 1.398 . S
C416 C417 1.391 . S
C417 H405 0.950 . S
C417 C413 1.393 . S
C417 C416 1.391 . S
C418 H408 0.950 . S
C418 C419 1.386 . S
C418 C420 1.391 . S
C419 C418 1.386 . S
C419 C423 1.393 . S
C420 H409 0.950 . S
C420 C418 1.391 . S
C420 C421 1.400 . S
C421 C415 1.491 . S
C421 C420 1.400 . S
C421 C422 1.398 . S
C422 H410 0.950 . S
C422 C421 1.398 . S
C422 C423 1.391 . S
C423 H411 0.950 . S
C423 C419 1.393 . S
C423 C422 1.391 . S
H424 C432 0.950 . S
H425 C437 0.950 . S
H426 C434 0.950 . S
H427 C436 0.950 . S
H428 C438 0.950 . S
H429 C440 0.950 . S
H430 C442 0.950 . S
H431 C443 0.950 . S
C432 H424 0.950 . S
C432 C433 1.386 . S
C432 C434 1.391 . S
C433 C432 1.386 . S
C433 C437 1.393 . S
C434 H426 0.950 . S
C434 C432 1.391 . S
C434 C435 1.400 . S
C435 C434 1.400 . S
C435 C436 1.398 . S
C435 C441 1.491 . S
C436 H427 0.950 . S
C436 C435 1.398 . S
C436 C437 1.391 . S
C437 H425 0.950 . S
C437 C433 1.393 . S
C437 C436 1.391 . S
C438 H428 0.950 . S
C438 C439 1.386 . S
C438 C440 1.391 . S
C439 C438 1.386 . S
C439 C443 1.393 . S
C440 H429 0.950 . S
C440 C438 1.391 . S
C440 C441 1.400 . S
C441 C435 1.491 . S
C441 C440 1.400 . S
C441 C442 1.398 . S
C442 H430 0.950 . S
C442 C441 1.398 . S
C442 C443 1.391 . S
C443 H431 0.950 . S
C443 C439 1.393 . S
C443 C442 1.391 . S
H444 C452 0.950 . S
H445 C457 0.950 . S
H446 C454 0.950 . S
H447 C456 0.950 . S
H448 C458 0.950 . S
H449 C460 0.950 . S
H450 C462 0.950 . S
H451 C463 0.950 . S
C452 H444 0.950 . S
C452 C453 1.386 . S
C452 C454 1.391 . S
C453 C452 1.386 . S
C453 C457 1.393 . S
C454 H446 0.950 . S
C454 C452 1.391 . S
C454 C455 1.400 . S
C455 C454 1.400 . S
C455 C456 1.398 . S
C455 C461 1.491 . S
C456 H447 0.950 . S
C456 C455 1.398 . S
C456 C457 1.391 . S
C457 H445 0.950 . S
C457 C453 1.393 . S
C457 C456 1.391 . S
C458 H448 0.950 . S
C458 C459 1.386 . S
C458 C460 1.391 . S
C459 C458 1.386 . S
C459 C463 1.393 . S
C460 H449 0.950 . S
C460 C458 1.391 . S
C460 C461 1.400 . S
C461 C455 1.491 . S
C461 C460 1.400 . S
C461 C462 1.398 . S
C462 H450 0.950 . S
C462 C461 1.398 . S
C462 C463 1.391 . S
C463 H451 0.950 . S
C463 C459 1.393 . S
C463 C462 1.391 . S
H464 C472 0.950 . S
H465 C477 0.950 . S
H466 C474 0.950 . S
H467 C476 0.950 . S
H468 C478 0.950 . S
H469 C480 0.950 . S
H470 C482 0.950 . S
H471 C483 0.950 . S
C472 H464 0.950 . S
C472 C473 1.386 . S
C472 C474 1.391 . S
C473 C472 1.386 . S
C473 C477 1.393 . S
C474 H466 0.950 . S
C474 C472 1.391 . S
C474 C475 1.400 . S
C475 C474 1.400 . S
C475 C476 1.398 . S
C475 C481 1.491 . S
C476 H467 0.950 . S
C476 C475 1.398 . S
C476 C477 1.391 . S
C477 H465 0.950 . S
C477 C473 1.393 . S
C477 C476 1.391 . S
C478 H468 0.950 . S
C478 C479 1.386 . S
C478 C480 1.391 . S
C479 C478 1.386 . S
C479 C483 1.393 . S
C480 H469 0.950 . S
C480 C478 1.391 . S
C480 C481 1.400 . S
C481 C475 1.491 . S
C481 C480 1.400 . S
C481 C482 1.398 . S
C482 H470 0.950 . S
C482 C481 1.398 . S
C482 C483 1.391 . S
C483 H471 0.950 . S
C483 C479 1.393 . S
C483 C482 1.391 . S
H484 C492 0.950 . S
H485 C497 0.950 . S
H486 C494 0.950 . S
H487 C496 0.950 . S
H488 C498 0.950 . S
H489 C500 0.950 . S
H490 C502 0.950 . S
H491 C503 0.950 . S
C492 H484 0.950 . S
C492 C493 1.386 . S
C492 C494 1.391 . S
C493 C492 1.386 . S
C493 C497 1.393 . S
C494 H486 0.950 . S
C494 C492 1.391 . S
C494 C495 1.400 . S
C495 C494 1.400 . S
C495 C496 1.398 . S
C495 C501 1.491 . S
C496 H487 0.950 . S
C496 C495 1.398 . S
C496 C497 1.391 . S
C497 H485 0.950 . S
C497 C493 1.393 . S
C497 C496 1.391 . S
C498 H488 0.950 . S
C498 C499 1.386 . S
C498 C500 1.391 . S
C499 C498 1.386 . S
C499 C503 1.393 . S
C500 H489 0.950 . S
C500 C498 1.391 . S
C500 C501 1.400 . S
C501 C495 1.491 . S
C501 C500 1.400 . S
C501 C502 1.398 . S
C502 H490 0.950 . S
C502 C501 1.398 . S
C502 C503 1.391 . S
C503 H491 0.950 . S
C503 C499 1.393 . S
C503 C502 1.391 . S
H504 C512 0.950 . S
H505 C517 0.950 . S
H506 C514 0.950 . S
H507 C516 0.950 . S
H508 C518 0.950 . S
H509 C520 0.950 . S
H510 C522 0.950 . S
H511 C523 0.950 . S
C512 H504 0.950 . S
C512 C513 1.386 . S
C512 C514 1.391 . S
C513 C512 1.386 . S
C513 C517 1.393 . S
C514 H506 0.950 . S
C514 C512 1.391 . S
C514 C515 1.400 . S
C515 C514 1.400 . S
C515 C516 1.398 . S
C515 C521 1.491 . S
C516 H507 0.950 . S
C516 C515 1.398 . S
C516 C517 1.391 . S
C517 H505 0.950 . S
C517 C513 1.393 . S
C517 C516 1.391 . S
C518 H508 0.950 . S
C518 C519 1.386 . S
C518 C520 1.391 . S
C519 C518 1.386 . S
C519 C523 1.393 . S
C520 H509 0.950 . S
C520 C518 1.391 . S
C520 C521 1.400 . S
C521 C515 1.491 . S
C521 C520 1.400 . S
C521 C522 1.398 . S
C522 H510 0.950 . S
C522 C521 1.398 . S
C522 C523 1.391 . S
C523 H511 0.950 . S
C523 C519 1.393 . S
C523 C522 1.391 . S
H524 C532 0.950 . S
H525 C537 0.950 1_455 S
H526 C534 0.950 . S
H527 C536 0.950 1_556 S
H528 C538 0.950 . S
H529 C540 0.950 . S
H530 C542 0.950 1_554 S
H531 C543 0.950 . S
C532 H524 0.950 . S
C532 C533 1.386 . S
C532 C534 1.391 . S
C533 C532 1.386 . S
C533 C537 1.393 . S
C534 H526 0.950 . S
C534 C532 1.391 . S
C534 C535 1.400 . S
C535 C534 1.400 . S
C535 C536 1.398 . S
C535 C541 1.491 1_554 S
C536 H527 0.950 1_554 S
C536 C535 1.398 . S
C536 C537 1.391 . S
C537 H525 0.950 1_655 S
C537 C533 1.393 . S
C537 C536 1.391 . S
C538 H528 0.950 . S
C538 C539 1.386 . S
C538 C540 1.391 . S
C539 C538 1.386 . S
C539 C543 1.393 . S
C540 H529 0.950 . S
C540 C538 1.391 . S
C540 C541 1.400 . S
C541 C535 1.491 1_556 S
C541 C540 1.400 . S
C541 C542 1.398 . S
C542 H530 0.950 1_556 S
C542 C541 1.398 . S
C542 C543 1.391 . S
C543 H531 0.950 . S
C543 C539 1.393 . S
C543 C542 1.391 . S
H544 C552 0.950 . S
H545 C557 0.950 . S
H546 C554 0.950 . S
H547 C556 0.950 . S
H548 C558 0.950 1_655 S
H549 C560 0.942 1_655 S
H550 C562 0.950 . S
H551 C563 0.950 . S
C552 H544 0.950 . S
C552 C553 1.386 . S
C552 C554 1.391 . S
C553 C552 1.386 . S
C553 C557 1.393 1_455 S
C554 H546 0.950 . S
C554 C552 1.391 . S
C554 C555 1.400 . S
C555 C554 1.400 . S
C555 C556 1.398 1_455 S
C555 C561 1.491 . S
C556 H547 0.950 . S
C556 C555 1.398 1_655 S
C556 C557 1.391 . S
C557 H545 0.950 . S
C557 C553 1.393 1_655 S
C557 C556 1.391 . S
C558 H548 0.950 1_455 S
C558 C559 1.386 . S
C558 C560 1.396 . S
C559 C558 1.386 . S
C559 C563 1.393 . S
C560 H549 0.942 1_455 S
C560 C558 1.396 . S
C560 C561 1.403 . S
C561 C555 1.491 . S
C561 C560 1.403 . S
C561 C562 1.398 . S
C562 H550 0.950 . S
C562 C561 1.398 . S
C562 C563 1.391 . S
C563 H551 0.950 . S
C563 C559 1.393 . S
C563 C562 1.391 . S
H564 C572 0.950 . S
H565 C577 0.950 . S
H566 C574 0.950 . S
H567 C576 0.950 . S
H568 C578 0.950 . S
H569 C580 0.950 . S
H570 C582 0.950 . S
H571 C583 0.950 . S
C572 H564 0.950 . S
C572 C573 1.386 . S
C572 C574 1.391 . S
C573 C572 1.386 . S
C573 C577 1.393 . S
C574 H566 0.950 . S
C574 C572 1.391 . S
C574 C575 1.400 . S
C575 C574 1.400 . S
C575 C576 1.398 . S
C575 C581 1.491 . S
C576 H567 0.950 . S
C576 C575 1.398 . S
C576 C577 1.391 . S
C577 H565 0.950 . S
C577 C573 1.393 . S
C577 C576 1.391 . S
C578 H568 0.950 . S
C578 C579 1.386 . S
C578 C580 1.391 . S
C579 C578 1.386 . S
C579 C583 1.393 . S
C580 H569 0.950 . S
C580 C578 1.391 . S
C580 C581 1.400 . S
C581 C575 1.491 . S
C581 C580 1.400 . S
C581 C582 1.398 . S
C582 H570 0.950 . S
C582 C581 1.398 . S
C582 C583 1.391 . S
C583 H571 0.950 . S
C583 C579 1.393 . S
C583 C582 1.391 . S
H584 C592 0.950 . S
H585 C597 0.950 . S
H586 C594 0.975 . S
H587 C596 0.950 . S
H588 C598 0.950 . S
H589 C600 0.972 . S
H590 C602 0.950 . S
H591 C603 0.950 . S
C592 H584 0.950 . S
C592 C593 1.386 . S
C592 C594 1.368 1_554 S
C593 C592 1.386 . S
C593 C597 1.393 . S
C594 H586 0.975 . S
C594 C592 1.368 1_556 S
C594 C595 1.399 1_556 S
C595 C594 1.399 1_554 S
C595 C596 1.398 . S
C595 C601 1.491 1_554 S
C596 H587 0.950 . S
C596 C595 1.398 . S
C596 C597 1.391 . S
C597 H585 0.950 . S
C597 C593 1.393 . S
C597 C596 1.391 . S
C598 H588 0.950 . S
C598 C599 1.386 . S
C598 C600 1.391 . S
C599 C598 1.386 . S
C599 C603 1.393 . S
C600 H589 0.972 . S
C600 C598 1.391 . S
C600 C601 1.400 . S
C601 C595 1.491 1_556 S
C601 C600 1.400 . S
C601 C602 1.398 . S
C602 H590 0.950 . S
C602 C601 1.398 . S
C602 C603 1.391 . S
C603 H591 0.950 . S
C603 C599 1.393 . S
C603 C602 1.391 . S
H604 C612 0.950 1_655 S
H605 C617 0.950 . S
H606 C614 0.950 1_655 S
H607 C616 0.950 . S
H608 C618 0.950 . S
H609 C620 0.950 . S
H610 C622 0.950 1_655 S
H611 C623 0.950 1_655 S
C612 H604 0.950 1_455 S
C612 C613 1.386 . S
C612 C614 1.391 . S
C613 C612 1.386 . S
C613 C617 1.393 . S
C614 H606 0.950 1_455 S
C614 C612 1.391 . S
C614 C615 1.400 . S
C615 C614 1.400 . S
C615 C616 1.398 . S
C615 C621 1.491 . S
C616 H607 0.950 . S
C616 C615 1.398 . S
C616 C617 1.391 . S
C617 H605 0.950 . S
C617 C613 1.393 . S
C617 C616 1.391 . S
C618 H608 0.950 . S
C618 C619 1.386 . S
C618 C620 1.391 . S
C619 C618 1.386 . S
C619 C623 1.393 . S
C620 H609 0.950 . S
C620 C618 1.391 . S
C620 C621 1.400 . S
C621 C615 1.491 . S
C621 C620 1.400 . S
C621 C622 1.398 . S
C622 H610 0.950 1_455 S
C622 C621 1.398 . S
C622 C623 1.391 . S
C623 H611 0.950 1_455 S
C623 C619 1.393 . S
C623 C622 1.391 . S
C399 C97 1.052 . S
C393 C11 1.364 . S
C413 C25 1.439 . S
C419 C211 1.089 . S
C433 C41 1.214 . S
C439 C271 1.001 . S
C453 C7 1.273 1_565 S
C459 C71 1.052 . S
C479 C185 1.098 . S
C473 C21 1.352 . S
C493 C36 1.383 . S
C499 C281 0.861 . S
C519 C167 0.799 . S
C513 C39 1.338 . S
C533 C8 1.319 1_665 S
C539 C299 1.156 . S
C559 C43 1.095 . S
C553 C22 1.310 1_565 S
C579 C157 1.019 . S
C573 C35 1.260 . S
C599 C325 1.060 . S
C593 C13 1.431 . S
C613 C27 1.391 . S
C619 C53 0.904 . S
