# Generated by pormake.
# Topology pyr, (3,6)-cn, num edge types: 1
# Building blocks:
#     Node 0, Type 0, BuildingBlock: QEWDON_clean_linker_0, # of connection points: 3
#     Node 1, Type 0, BuildingBlock: QEWDON_clean_linker_0, # of connection points: 3
#     Node 2, Type 0, BuildingBlock: QEWDON_clean_linker_0, # of connection points: 3
#     Node 3, Type 0, BuildingBlock: QEWDON_clean_linker_0, # of connection points: 3
#     Node 4, Type 0, BuildingBlock: QEWDON_clean_linker_0, # of connection points: 3
#     Node 5, Type 0, BuildingBlock: QEWDON_clean_linker_0, # of connection points: 3
#     Node 6, Type 0, BuildingBlock: QEWDON_clean_linker_0, # of connection points: 3
#     Node 7, Type 0, BuildingBlock: QEWDON_clean_linker_0, # of connection points: 3
#     Node 8, Type 1, BuildingBlock: CIFDUS_clean_sbu_1, # of connection points: 6
#     Node 9, Type 1, BuildingBlock: CIFDUS_clean_sbu_1, # of connection points: 6
#     Node 10, Type 1, BuildingBlock: CIFDUS_clean_sbu_1, # of connection points: 6
#     Node 11, Type 1, BuildingBlock: CIFDUS_clean_sbu_1, # of connection points: 6
#     Edge 12, Type (0, 1), BuildingBlock: XIVTED_clean_linker_0, # of connection points: 2
#     Edge 13, Type (0, 1), BuildingBlock: XIVTED_clean_linker_0, # of connection points: 2
#     Edge 14, Type (0, 1), BuildingBlock: XIVTED_clean_linker_0, # of connection points: 2
#     Edge 15, Type (0, 1), BuildingBlock: XIVTED_clean_linker_0, # of connection points: 2
#     Edge 16, Type (0, 1), BuildingBlock: XIVTED_clean_linker_0, # of connection points: 2
#     Edge 17, Type (0, 1), BuildingBlock: XIVTED_clean_linker_0, # of connection points: 2
#     Edge 18, Type (0, 1), BuildingBlock: XIVTED_clean_linker_0, # of connection points: 2
#     Edge 19, Type (0, 1), BuildingBlock: XIVTED_clean_linker_0, # of connection points: 2
#     Edge 20, Type (0, 1), BuildingBlock: XIVTED_clean_linker_0, # of connection points: 2
#     Edge 21, Type (0, 1), BuildingBlock: XIVTED_clean_linker_0, # of connection points: 2
#     Edge 22, Type (0, 1), BuildingBlock: XIVTED_clean_linker_0, # of connection points: 2
#     Edge 23, Type (0, 1), BuildingBlock: XIVTED_clean_linker_0, # of connection points: 2
#     Edge 24, Type (0, 1), BuildingBlock: XIVTED_clean_linker_0, # of connection points: 2
#     Edge 25, Type (0, 1), BuildingBlock: XIVTED_clean_linker_0, # of connection points: 2
#     Edge 26, Type (0, 1), BuildingBlock: XIVTED_clean_linker_0, # of connection points: 2
#     Edge 27, Type (0, 1), BuildingBlock: XIVTED_clean_linker_0, # of connection points: 2
#     Edge 28, Type (0, 1), BuildingBlock: XIVTED_clean_linker_0, # of connection points: 2
#     Edge 29, Type (0, 1), BuildingBlock: XIVTED_clean_linker_0, # of connection points: 2
#     Edge 30, Type (0, 1), BuildingBlock: XIVTED_clean_linker_0, # of connection points: 2
#     Edge 31, Type (0, 1), BuildingBlock: XIVTED_clean_linker_0, # of connection points: 2
#     Edge 32, Type (0, 1), BuildingBlock: XIVTED_clean_linker_0, # of connection points: 2
#     Edge 33, Type (0, 1), BuildingBlock: XIVTED_clean_linker_0, # of connection points: 2
#     Edge 34, Type (0, 1), BuildingBlock: XIVTED_clean_linker_0, # of connection points: 2
#     Edge 35, Type (0, 1), BuildingBlock: XIVTED_clean_linker_0, # of connection points: 2
# Relax obj value: 0.136
# Max RMSD: 0.252
# Mean RMSD: 0.191
data_MOF--net-pry--node1-CIFDUS_clean_sbu_1--node2-QEWDON_clean_linker_0--edge1-XIVTED_clean_linker_0
_symmetry_space_group_name_H-M    P1
_symmetry_Int_Tables_number       1
_symmetry_cell_setting            triclinic
loop_
_symmetry_equiv_pos_as_xyz
'x, y, z'
_cell_length_a     37.001585
_cell_length_b     35.756999
_cell_length_c     37.375365
_cell_angle_alpha  92.107471
_cell_angle_beta   91.809409
_cell_angle_gamma 100.33801
loop_
_atom_site_label
_atom_site_type_symbol
_atom_site_fract_x
_atom_site_fract_y
_atom_site_fract_z
_atom_type_partial_charge
H0 H 0.19928 0.21085 0.14841 0.0
C1 C 0.18406 0.19482 0.16886 0.0
C2 C 0.19601 0.16208 0.18205 0.0
C3 C 0.15445 0.2087 0.18454 0.0
H4 H 0.18788 0.12017 0.22276 0.0
C5 C 0.17807 0.14411 0.21142 0.0
C6 C 0.14879 0.15774 0.22739 0.0
C7 C 0.13593 0.18833 0.2121 0.0
C8 C 0.14768 0.24847 0.1802 0.0
H9 H 0.11293 0.19865 0.2238 0.0
C10 C 0.13689 0.26314 0.14741 0.0
C11 C 0.12696 0.29984 0.14753 0.0
C12 C 0.14951 0.27153 0.21187 0.0
H13 H 0.15811 0.26156 0.23725 0.0
C14 C 0.13941 0.30707 0.2118 0.0
H15 H 0.1355 0.24617 0.12263 0.0
C16 C 0.12802 0.32099 0.18004 0.0
H17 H 0.12039 0.3489 0.18075 0.0
H18 H 0.14034 0.32391 0.23659 0.0
H19 H 0.3671 0.95886 0.73689 0.0
C20 C 0.3885 0.94737 0.7235 0.0
C21 C 0.42309 0.94826 0.74116 0.0
C22 C 0.38001 0.92795 0.69 0.0
H23 H 0.47499 0.92796 0.73717 0.0
C24 C 0.44869 0.92912 0.72419 0.0
C25 C 0.43995 0.90921 0.69107 0.0
C26 C 0.40648 0.91056 0.67345 0.0
C27 C 0.3416 0.91691 0.67601 0.0
H28 H 0.39901 0.89379 0.64864 0.0
C29 C 0.32086 0.94362 0.66374 0.0
C30 C 0.28534 0.93072 0.6484 0.0
C31 C 0.32637 0.87785 0.67308 0.0
H32 H 0.34188 0.85685 0.68237 0.0
C33 C 0.29137 0.86535 0.65776 0.0
H34 H 0.33229 0.97376 0.66569 0.0
C35 C 0.27097 0.89159 0.64543 0.0
H36 H 0.24377 0.88133 0.63343 0.0
H37 H 0.28009 0.83523 0.65532 0.0
H38 H 0.66137 0.47426 0.94427 0.0
C39 C 0.65477 0.44412 0.94895 0.0
C40 C 0.68056 0.4256 0.96619 0.0
C41 C 0.62004 0.42397 0.93761 0.0
H42 H 0.69047 0.37108 0.98383 0.0
C43 C 0.67092 0.38633 0.97144 0.0
C44 C 0.63592 0.36637 0.96071 0.0
C45 C 0.61043 0.38531 0.94418 0.0
C46 C 0.59525 0.44209 0.91538 0.0
H47 H 0.58357 0.36963 0.93531 0.0
C48 C 0.6061 0.45356 0.88132 0.0
C49 C 0.58121 0.46591 0.85757 0.0
C50 C 0.55976 0.44451 0.92625 0.0
H51 H 0.55096 0.43543 0.95242 0.0
C52 C 0.53532 0.45827 0.90308 0.0
H53 H 0.63318 0.45069 0.87254 0.0
C54 C 0.54579 0.46853 0.86867 0.0
H55 H 0.52623 0.47822 0.85065 0.0
H56 H 0.50796 0.46019 0.91149 0.0
H57 H 0.90717 0.68612 0.40523 0.0
C58 C 0.89119 0.67399 0.4271 0.0
C59 C 0.89404 0.69371 0.46106 0.0
C60 C 0.86533 0.63999 0.4207 0.0
H61 H 0.86713 0.69666 0.51149 0.0
C62 C 0.86956 0.67943 0.48752 0.0
C63 C 0.84406 0.6459 0.48114 0.0
C64 C 0.84528 0.6243 0.44952 0.0
C65 C 0.85263 0.62478 0.38366 0.0
H66 H 0.82551 0.59804 0.44535 0.0
C67 C 0.87672 0.62358 0.35523 0.0
C68 C 0.8627 0.6081 0.32117 0.0
C69 C 0.81453 0.61207 0.37652 0.0
H70 H 0.79464 0.61436 0.39669 0.0
C71 C 0.80102 0.5966 0.34311 0.0
H72 H 0.90594 0.63403 0.35952 0.0
C73 C 0.8249 0.59431 0.31567 0.0
H74 H 0.81361 0.58288 0.2896 0.0
H75 H 0.77178 0.58682 0.33833 0.0
H76 H 0.86626 0.89524 0.93794 0.0
C77 C 0.87916 0.90524 0.91363 0.0
C78 C 0.91049 0.89128 0.90164 0.0
C79 C 0.8631 0.9308 0.8933 0.0
H80 H 0.94828 0.89265 0.85797 0.0
C81 C 0.92538 0.90391 0.86867 0.0
C82 C 0.91044 0.93071 0.84888 0.0
C83 C 0.8799 0.9443 0.8619 0.0
C84 C 0.82518 0.93789 0.89968 0.0
H85 H 0.86746 0.96383 0.84609 0.0
C86 C 0.81476 0.95488 0.9318 0.0
C87 C 0.77881 0.96336 0.93403 0.0
C88 C 0.79897 0.92839 0.87117 0.0
H89 H 0.80593 0.91491 0.84652 0.0
C90 C 0.76371 0.9363 0.87371 0.0
H91 H 0.83446 0.96236 0.95411 0.0
C92 C 0.75377 0.95381 0.90471 0.0
H93 H 0.72612 0.9598 0.90594 0.0
H94 H 0.74402 0.92899 0.8514 0.0
H95 H 0.68472 0.18565 0.49129 0.0
C96 C 0.67404 0.1759 0.46458 0.0
C97 C 0.69449 0.15603 0.44192 0.0
C98 C 0.63957 0.18307 0.45311 0.0
H99 H 0.69468 0.1273 0.38985 0.0
C100 C 0.67954 0.14298 0.40754 0.0
C101 C 0.64516 0.15037 0.39569 0.0
C102 C 0.62544 0.17058 0.41866 0.0
C103 C 0.61608 0.19874 0.47879 0.0
H104 H 0.59852 0.17565 0.41009 0.0
C105 C 0.61606 0.23812 0.48281 0.0
C106 C 0.59318 0.25163 0.50785 0.0
C107 C 0.59286 0.1733 0.49932 0.0
H108 H 0.59232 0.14295 0.49624 0.0
C109 C 0.57011 0.18673 0.52386 0.0
H110 H 0.63354 0.25793 0.46668 0.0
C111 C 0.57034 0.22565 0.52823 0.0
H112 H 0.55219 0.23552 0.54719 0.0
H113 H 0.55212 0.16689 0.53945 0.0
H114 H 0.4115 0.73328 0.24421 0.0
C115 C 0.38865 0.72514 0.22496 0.0
C116 C 0.37569 0.75321 0.20559 0.0
C117 C 0.37214 0.68664 0.21953 0.0
H118 H 0.33613 0.76439 0.16594 0.0
C119 C 0.34623 0.74251 0.18053 0.0
C120 C 0.33021 0.70411 0.17375 0.0
C121 C 0.34342 0.67641 0.19357 0.0
C122 C 0.38414 0.65696 0.24135 0.0
H123 H 0.33132 0.64667 0.18896 0.0
C124 C 0.3907 0.6633 0.27853 0.0
C125 C 0.40085 0.63484 0.2995 0.0
C126 C 0.38775 0.62161 0.2254 0.0
H127 H 0.38313 0.61599 0.1968 0.0
C128 C 0.39757 0.59317 0.24622 0.0
H129 H 0.38783 0.69031 0.2912 0.0
C130 C 0.40414 0.59967 0.28305 0.0
H131 H 0.41153 0.57711 0.29875 0.0
H132 H 0.4001 0.56599 0.23376 0.0
H133 H 0.17571 0.46932 0.67815 0.0
C134 C 0.15884 0.45025 0.65859 0.0
C135 C 0.17477 0.43919 0.62699 0.0
C136 C 0.12224 0.43515 0.66593 0.0
H137 H 0.1673 0.39863 0.58164 0.0
C138 C 0.15446 0.40978 0.60431 0.0
C139 C 0.11787 0.39407 0.61171 0.0
C140 C 0.10134 0.41016 0.64024 0.0
C141 C 0.10679 0.44107 0.7018 0.0
H142 H 0.07228 0.4007 0.64394 0.0
C143 C 0.11935 0.47411 0.72382 0.0
C144 C 0.10603 0.47713 0.75837 0.0
C145 C 0.08062 0.41172 0.71541 0.0
H146 H 0.0715 0.38493 0.70064 0.0
C147 C 0.06648 0.41566 0.74909 0.0
H148 H 0.13965 0.4971 0.71469 0.0
C149 C 0.0791 0.44817 0.77051 0.0
H150 H 0.06859 0.45033 0.79712 0.0
H151 H 0.04638 0.39296 0.759 0.0
O152 O 0.95596 0.07612 0.52264 0.0
Mn153 Mn 1.00294 0.0506 0.52996 0.0
O154 O 0.92771 0.04915 0.47199 0.0
Mn155 Mn 0.9607 0.01739 0.46471 0.0
O156 O 0.05018 0.02596 0.5375 0.0
O157 O 0.02688 0.10071 0.55481 0.0
Mn158 Mn 0.05425 0.09029 0.59099 0.0
O159 O 0.98273 0.02944 0.57986 0.0
O160 O 0.09035 0.06839 0.57114 0.0
O161 O 0.02661 0.07296 0.48213 0.0
O162 O 0.99925 0.03513 0.43678 0.0
O163 O 0.05982 0.14195 0.59329 0.0
O164 O 0.02334 0.06156 0.62151 0.0
C165 C 0.96211 0.96685 0.48827 0.0
C166 C 0.93013 0.07282 0.49829 0.0
C167 C 0.08281 0.03884 0.5506 0.0
C168 C 0.038 0.13609 0.56508 0.0
C169 C 0.99448 0.03722 0.61288 0.0
C170 C 0.02469 0.06131 0.44898 0.0
O171 O 0.97795 0.99931 0.50445 0.0
O172 O 0.94268 0.96796 0.45895 0.0
O173 O 0.48207 0.04877 0.02127 0.0
Mn174 Mn 0.49997 0.05683 0.07598 0.0
O175 O 0.47418 0.98633 1.00684 0.0
Mn176 Mn 0.49967 0.97546 0.04708 0.0
O177 O 0.5198 0.06701 0.13 0.0
O178 O 0.51286 0.11259 0.0673 0.0
Mn179 Mn 0.4944 0.13873 0.10066 0.0
O180 O 0.44524 0.06225 0.09022 0.0
O181 O 0.51761 0.12878 0.14261 0.0
O182 O 0.55414 0.05054 0.06207 0.0
O183 O 0.55016 0.98838 0.04641 0.0
O184 O 0.51845 0.17434 0.0715 0.0
O185 O 0.44411 0.12475 0.09743 0.0
C186 C 0.47675 0.96743 0.09779 0.0
C187 C 0.47209 0.02014 0.99899 0.0
C188 C 0.52667 0.09732 0.15082 0.0
C189 C 0.52657 0.1449 0.05455 0.0
C190 C 0.42789 0.09029 0.09553 0.0
C191 C 0.5689 0.02162 0.05274 0.0
O192 O 0.48679 0.00059 0.08465 0.0
O193 O 0.4799 0.93861 0.07684 0.0
O194 O 0.57223 0.60688 0.58213 0.0
Mn195 Mn 0.51693 0.58475 0.58893 0.0
O196 O 0.58157 0.60026 0.52303 0.0
Mn197 Mn 0.53646 0.57066 0.50986 0.0
O198 O 0.46134 0.56211 0.59653 0.0
O199 O 0.52872 0.58214 0.64051 0.0
Mn200 Mn 0.49746 0.599 0.66831 0.0
O201 O 0.50626 0.64047 0.59728 0.0
O202 O 0.45269 0.56814 0.65593 0.0
O203 O 0.52789 0.52896 0.58013 0.0
O204 O 0.53112 0.5201 0.52026 0.0
O205 O 0.53335 0.58474 0.69805 0.0
O206 O 0.49971 0.64887 0.65676 0.0
C207 C 0.48973 0.59827 0.50879 0.0
C208 C 0.59258 0.61173 0.55492 0.0
C209 C 0.44107 0.55719 0.62402 0.0
C210 C 0.54746 0.5761 0.6683 0.0
C211 C 0.50113 0.661 0.62512 0.0
C212 C 0.53074 0.50792 0.55186 0.0
O213 O 0.50534 0.58849 0.53716 0.0
O214 O 0.50395 0.58876 0.47937 0.0
O215 O 0.96194 0.56705 0.02639 0.0
Mn216 Mn 0.01826 0.59136 0.02771 0.0
O217 O 0.94216 0.5632 0.96837 0.0
Mn218 Mn 0.9827 0.59398 0.9515 0.0
O219 O 0.07477 0.61537 0.02793 0.0
O220 O 0.01511 0.59952 0.08105 0.0
Mn221 Mn 0.05761 0.59484 0.10096 0.0
O222 O 0.03255 0.53734 0.03615 0.0
O223 O 0.09099 0.63394 0.08466 0.0
O224 O 1.00479 0.64606 0.01933 0.0
O225 O 0.98526 0.64537 0.96132 0.0
O226 O 0.02964 0.60388 0.1385 0.0
O227 O 0.06504 0.54591 0.0889 0.0
C228 C 0.03418 0.57626 0.94458 0.0
C229 C 0.9369 0.55732 1.00136 0.0
C230 C 0.09751 0.63413 0.05164 0.0
C231 C 1.00498 0.60485 0.11336 0.0
C232 C 0.05221 0.52543 0.06106 0.0
C233 C 0.99386 0.66252 0.99169 0.0
O234 O 0.02065 0.58245 0.97501 0.0
O235 O 0.01252 0.5789 0.91728 0.0
H236 H 0.13685 0.08394 0.25067 0.0
H237 H 0.0496 0.13695 0.43614 0.0
H238 H 0.12817 0.19861 0.28468 0.0
H239 H 0.05958 0.02313 0.40148 0.0
H240 H 0.08369 0.16129 0.38371 0.0
H241 H 0.11329 0.06198 0.30816 0.0
C242 C 0.13008 0.10456 0.2701 0.0
C243 C 0.13407 0.14318 0.26223 0.0
C244 C 0.07895 0.13104 0.38792 0.0
C245 C 0.10676 0.11809 0.32844 0.0
C246 C 0.05985 0.11727 0.41804 0.0
C247 C 0.05177 0.07803 0.42301 0.0
C248 C 0.0901 0.10532 0.36284 0.0
C249 C 0.0651 0.05361 0.39844 0.0
C250 C 0.1165 0.09197 0.303 0.0
C251 C 0.12464 0.1684 0.2888 0.0
N252 N 0.08333 0.06756 0.36941 0.0
N253 N 0.11132 0.15544 0.32045 0.0
H254 H 0.46616 0.92549 0.7951 0.0
H255 H 0.40877 0.03031 0.96218 0.0
H256 H 0.39707 0.0086 0.77469 0.0
H257 H 0.52134 0.01847 0.94848 0.0
H258 H 0.39702 0.01907 0.89674 0.0
H259 H 0.47973 0.95316 0.85508 0.0
C260 C 0.45425 0.94999 0.80261 0.0
C261 C 0.43101 0.9651 0.77871 0.0
C262 C 0.4245 0.02012 0.90809 0.0
C263 C 0.44529 0.99577 0.84922 0.0
C264 C 0.43125 0.02682 0.94524 0.0
C265 C 0.46619 0.0258 0.96049 0.0
C266 C 0.45263 0.01115 0.88671 0.0
C267 C 0.49416 0.01994 0.93763 0.0
C268 C 0.46184 0.96554 0.83732 0.0
C269 C 0.41502 0.99568 0.79182 0.0
N270 N 0.48663 0.01207 0.90209 0.0
N271 N 0.42218 0.0098 0.82629 0.0
H272 H 0.54649 0.4323 0.79668 0.0
H273 H 0.6167 0.60338 0.69416 0.0
H274 H 0.63985 0.51592 0.83469 0.0
H275 H 0.54794 0.50327 0.64626 0.0
H276 H 0.64427 0.56388 0.73469 0.0
H277 H 0.56023 0.44872 0.73528 0.0
C278 C 0.57008 0.45401 0.79187 0.0
C279 C 0.59146 0.47364 0.82048 0.0
C280 C 0.62441 0.55009 0.71426 0.0
C281 C 0.60743 0.49293 0.75044 0.0
C282 C 0.60911 0.57272 0.69062 0.0
C283 C 0.57874 0.55646 0.66844 0.0
C284 C 0.60833 0.51148 0.71562 0.0
C285 C 0.57048 0.51685 0.66412 0.0
C286 C 0.57832 0.46307 0.75683 0.0
C287 C 0.62234 0.50076 0.81311 0.0
N288 N 0.58386 0.49555 0.68888 0.0
N289 N 0.62889 0.51036 0.77876 0.0
H290 H 0.90452 0.66901 0.29181 0.0
H291 H 0.94867 0.54687 0.12145 0.0
H292 H 0.87054 0.54745 0.27807 0.0
H293 H 0.98039 0.66856 0.13338 0.0
H294 H 0.91019 0.54777 0.17328 0.0
H295 H 0.92891 0.67023 0.23155 0.0
C296 C 0.90312 0.64251 0.27638 0.0
C297 C 0.88579 0.60809 0.28976 0.0
C298 C 0.92458 0.5745 0.16393 0.0
C299 C 0.91208 0.60927 0.22058 0.0
C300 C 0.94571 0.57406 0.13369 0.0
C301 C 0.96791 0.60767 0.12361 0.0
C302 C 0.92593 0.60889 0.18385 0.0
C303 C 0.96365 0.64206 0.1406 0.0
C304 C 0.9163 0.64324 0.24177 0.0
C305 C 0.88387 0.57454 0.26855 0.0
N306 N 0.94402 0.64176 0.17068 0.0
N307 N 0.89672 0.57596 0.23494 0.0
H308 H 0.25208 0.13871 0.22024 0.0
H309 H 0.37017 0.0995 0.05154 0.0
H310 H 0.21605 0.15352 0.11165 0.0
H311 H 0.39741 0.07417 0.15965 0.0
H312 H 0.31128 0.11397 0.07137 0.0
H313 H 0.3037 0.11247 0.19763 0.0
C314 C 0.25475 0.13618 0.19153 0.0
C315 C 0.22907 0.14808 0.16789 0.0
C316 C 0.32965 0.10432 0.09065 0.0
C317 C 0.28924 0.11804 0.14153 0.0
C318 C 0.36302 0.09538 0.07918 0.0
C319 C 0.38832 0.08447 0.10375 0.0
C320 C 0.32183 0.10335 0.12723 0.0
C321 C 0.37829 0.08128 0.13958 0.0
C322 C 0.28448 0.12117 0.1786 0.0
C323 C 0.23505 0.14493 0.13097 0.0
N324 N 0.34619 0.09111 0.15027 0.0
N325 N 0.26439 0.13025 0.11897 0.0
H326 H 0.22407 0.94577 0.67822 0.0
H327 H 0.15042 0.0576 0.52339 0.0
H328 H 0.29171 0.97108 0.58738 0.0
H329 H 0.08146 0.97124 0.58017 0.0
H330 H 0.20496 0.03475 0.54693 0.0
H331 H 0.17428 0.9695 0.64699 0.0
C332 C 0.22872 0.95757 0.65212 0.0
C333 C 0.26177 0.95665 0.63524 0.0
C334 C 0.17782 0.02013 0.55326 0.0
C335 C 0.20483 0.98233 0.59894 0.0
C336 C 0.14679 0.03262 0.53938 0.0
C337 C 0.11158 0.01577 0.54954 0.0
C338 C 0.17326 0.99155 0.57823 0.0
C339 C 0.10814 0.98439 0.57121 0.0
C340 C 0.20019 0.97035 0.63406 0.0
C341 C 0.26655 0.97174 0.60123 0.0
N342 N 0.1387 0.97387 0.58562 0.0
N343 N 0.2381 0.98382 0.58387 0.0
H344 H 0.72345 0.41521 0.02558 0.0
H345 H 0.87971 0.59049 0.98509 0.0
H346 H 0.72263 0.48515 0.93371 0.0
H347 H 0.90726 0.49209 0.03518 0.0
H348 H 0.81498 0.56075 0.98304 0.0
H349 H 0.78513 0.45014 0.04295 0.0
C350 C 0.73606 0.43775 1.009 0.0
C351 C 0.71756 0.44706 0.97798 0.0
C352 C 0.83503 0.54591 0.99511 0.0
C353 C 0.78732 0.48784 0.9987 0.0
C354 C 0.87184 0.56293 0.99657 0.0
C355 C 0.89859 0.54344 1.01007 0.0
C356 C 0.82486 0.50898 1.00709 0.0
C357 C 0.88723 0.50789 0.02464 0.0
C358 C 0.77108 0.45781 0.0192 0.0
C359 C 0.73513 0.47725 0.95819 0.0
N360 N 0.85097 0.49136 0.0223 0.0
N361 N 0.76889 0.49654 0.96895 0.0
H362 H 0.77912 0.64931 0.44955 0.0
H363 H 0.64477 0.58824 0.59755 0.0
H364 H 0.82914 0.63602 0.55304 0.0
H365 H 0.62847 0.67165 0.5212 0.0
H366 H 0.71115 0.60127 0.58659 0.0
H367 H 0.72083 0.64907 0.47702 0.0
C368 C 0.77759 0.64563 0.47814 0.0
C369 C 0.8087 0.64185 0.49902 0.0
C370 C 0.69315 0.61775 0.57345 0.0
C371 C 0.74201 0.64294 0.531 0.0
C372 C 0.65548 0.61055 0.57983 0.0
C373 C 0.63149 0.62876 0.55986 0.0
C374 C 0.70607 0.64287 0.54681 0.0
C375 C 0.64624 0.65691 0.53681 0.0
C376 C 0.74446 0.64625 0.49392 0.0
C377 C 0.80546 0.63851 0.53615 0.0
N378 N 0.68253 0.66259 0.53036 0.0
N379 N 0.7723 0.63867 0.55115 0.0
H380 H 0.17177 0.34813 0.10724 0.0
H381 H 0.00821 0.45475 0.04526 0.0
H382 H 0.05785 0.29951 0.11857 0.0
H383 H 0.11983 0.50883 0.07257 0.0
H384 H 0.02612 0.39212 0.05393 0.0
H385 H 0.15317 0.40017 0.07472 0.0
C386 C 0.1428 0.34731 0.10116 0.0
C387 C 0.11639 0.31904 0.11515 0.0
C388 C 0.04675 0.41775 0.0573 0.0
C389 C 0.09463 0.37968 0.07917 0.0
C390 C 0.03661 0.45341 0.05207 0.0
C391 C 0.06257 0.48706 0.05826 0.0
C392 C 0.0832 0.41586 0.06817 0.0
C393 C 0.09889 0.48366 0.06759 0.0
C394 C 0.13212 0.37748 0.08318 0.0
C395 C 0.07911 0.32034 0.10767 0.0
N396 N 0.10801 0.44896 0.07237 0.0
N397 N 0.0693 0.35045 0.09069 0.0
H398 H 0.58994 0.33636 1.01078 0.0
H399 H 0.50988 0.14979 0.98421 0.0
H400 H 0.65739 0.30539 0.92662 0.0
H401 H 0.60036 0.15913 0.06111 0.0
H402 H 0.54535 0.20086 0.9511 0.0
H403 H 0.57127 0.26868 0.02285 0.0
C404 C 0.60071 0.31516 0.99493 0.0
C405 C 0.62523 0.32591 0.96793 0.0
C406 C 0.55825 0.19004 0.97399 0.0
C407 C 0.60387 0.24945 0.9811 0.0
C408 C 0.53825 0.16057 0.99262 0.0
C409 C 0.55219 0.15074 0.02554 0.0
C410 C 0.59203 0.20936 0.98875 0.0
C411 C 0.58875 0.16614 0.03578 0.0
C412 C 0.59016 0.2769 1.00174 0.0
C413 C 0.63859 0.29769 0.94786 0.0
N414 N 0.60691 0.19612 0.01839 0.0
N415 N 0.62759 0.26029 0.95475 0.0
H416 H 0.92728 0.72608 0.52466 0.0
H417 H 1.00073 0.92778 0.44706 0.0
H418 H 0.91317 0.7507 0.41322 0.0
H419 H 0.93926 0.91993 0.54329 0.0
H420 H 0.99222 0.85845 0.44197 0.0
H421 H 0.95329 0.79327 0.53775 0.0
C422 C 0.92997 0.7453 0.50279 0.0
C423 C 0.91712 0.7324 0.46775 0.0
C424 C 0.98186 0.87192 0.46496 0.0
C425 C 0.94858 0.80896 0.48269 0.0
C426 C 0.98722 0.91143 0.46829 0.0
C427 C 0.97118 0.92956 0.49599 0.0
C428 C 0.96091 0.85028 0.48992 0.0
C429 C 0.95272 0.90704 0.52203 0.0
C430 C 0.94497 0.78357 0.51043 0.0
C431 C 0.9227 0.75872 0.44054 0.0
N432 N 0.94774 0.86831 0.5182 0.0
N433 N 0.93791 0.79572 0.44863 0.0
H434 H 0.45245 0.85025 0.72953 0.0
H435 H 0.54131 0.72521 0.59633 0.0
H436 H 0.46888 0.89709 0.62537 0.0
H437 H 0.44083 0.68329 0.64876 0.0
H438 H 0.53142 0.79112 0.60919 0.0
H439 H 0.46863 0.79097 0.70618 0.0
C440 C 0.46096 0.84859 0.70213 0.0
C441 C 0.45982 0.8787 0.67944 0.0
C442 C 0.51127 0.76724 0.61697 0.0
C443 C 0.47781 0.81087 0.65253 0.0
C444 C 0.51668 0.72986 0.60938 0.0
C445 C 0.49187 0.69907 0.62173 0.0
C446 C 0.48146 0.7731 0.63753 0.0
C447 C 0.46068 0.7064 0.63906 0.0
C448 C 0.46964 0.81464 0.68872 0.0
C449 C 0.46988 0.87452 0.64371 0.0
N450 N 0.45676 0.7426 0.64712 0.0
N451 N 0.47841 0.84099 0.63115 0.0
H452 H 0.92017 0.88789 0.78786 0.0
H453 H 0.98199 0.07354 0.67423 0.0
H454 H 0.93198 0.00369 0.82908 0.0
H455 H 0.96424 0.961 0.62397 0.0
H456 H 0.96268 0.04653 0.73055 0.0
H457 H 0.9367 0.91168 0.72819 0.0
C458 C 0.92684 0.91827 0.7845 0.0
C459 C 0.92486 0.94387 0.8136 0.0
C460 C 0.96239 0.02745 0.70732 0.0
C461 C 0.94327 0.97127 0.74537 0.0
C462 C 0.97322 0.04298 0.67486 0.0
C463 C 0.97453 0.01965 0.64401 0.0
C464 C 0.95275 0.98786 0.70972 0.0
C465 C 0.96315 0.98016 0.64686 0.0
C466 C 0.93589 0.93182 0.75036 0.0
C467 C 0.93311 0.98291 0.80752 0.0
N468 N 0.95301 0.96545 0.67923 0.0
N469 N 0.9419 0.99526 0.77435 0.0
H470 H 0.63303 0.07859 0.3626 0.0
H471 H 0.57601 0.15708 0.17686 0.0
H472 H 0.62283 0.19485 0.34546 0.0
H473 H 0.5292 0.04197 0.20176 0.0
H474 H 0.60699 0.16646 0.23526 0.0
H475 H 0.60637 0.06053 0.30147 0.0
C476 C 0.62536 0.10025 0.3459 0.0
C477 C 0.63006 0.13829 0.35896 0.0
C478 C 0.59006 0.13904 0.22813 0.0
C479 C 0.60033 0.11804 0.28957 0.0
C480 C 0.5723 0.13356 0.19468 0.0
C481 C 0.54913 0.09895 0.18465 0.0
C482 C 0.58502 0.10978 0.2523 0.0
C483 C 0.54648 0.06923 0.2086 0.0
C484 C 0.61002 0.08989 0.31128 0.0
C485 C 0.61952 0.16524 0.33651 0.0
N486 N 0.56397 0.07545 0.24173 0.0
N487 N 0.60544 0.15464 0.30298 0.0
H488 H 0.45951 0.61992 0.33818 0.0
H489 H 0.50127 0.67445 0.50592 0.0
H490 H 0.3597 0.6653 0.34913 0.0
H491 H 0.41554 0.57581 0.50425 0.0
H492 H 0.46977 0.69876 0.45597 0.0
H493 H 0.47043 0.62745 0.40311 0.0
C494 C 0.44007 0.63172 0.35424 0.0
C495 C 0.40858 0.64179 0.33844 0.0
C496 C 0.4565 0.67309 0.46816 0.0
C497 C 0.42117 0.65084 0.41224 0.0
C498 C 0.47421 0.65936 0.49703 0.0
C499 C 0.46175 0.62222 0.50765 0.0
C500 C 0.42587 0.64968 0.45117 0.0
C501 C 0.42658 0.60403 0.49562 0.0
C502 C 0.4465 0.63638 0.39105 0.0
C503 C 0.38435 0.65732 0.36049 0.0
N504 N 0.41055 0.61697 0.46651 0.0
N505 N 0.39074 0.66073 0.39667 0.0
H506 H 0.08302 0.54457 0.76803 0.0
H507 H 0.06583 0.51354 0.94774 0.0
H508 H 0.16025 0.47809 0.80849 0.0
H509 H 0.08668 0.63207 0.92382 0.0
H510 H 0.10891 0.50152 0.90233 0.0
H511 H 0.08991 0.58184 0.82488 0.0
C512 C 0.103 0.53935 0.78821 0.0
C513 C 0.12125 0.50856 0.78389 0.0
C514 C 0.10572 0.53059 0.9084 0.0
C515 C 0.12805 0.54953 0.84904 0.0
C516 C 0.08142 0.53745 0.93464 0.0
C517 C 0.07244 0.57365 0.93881 0.0
C518 C 0.1197 0.55996 0.88588 0.0
C519 C 0.0928 0.60363 0.92079 0.0
C520 C 0.10689 0.56044 0.82066 0.0
C521 C 0.14591 0.50186 0.81114 0.0
N522 N 0.11416 0.59589 0.89363 0.0
N523 N 0.14762 0.52127 0.84324 0.0
H524 H 0.75548 0.9307 0.99601 0.0
H525 H 0.61778 0.07675 0.01972 0.0
H526 H 0.76675 0.03606 0.94186 0.0
H527 H 0.61128 0.97231 0.07513 0.0
H528 H 0.67963 0.07 1.00069 0.0
H529 H 0.7112 0.95281 0.03533 0.0
C530 C 0.74992 0.95925 0.99354 0.0
C531 C 0.76511 0.98174 0.96592 0.0
C532 C 0.66496 0.04901 0.01769 0.0
C533 C 0.71293 0.00674 1.00964 0.0
C534 C 0.62978 0.0531 0.02879 0.0
C535 C 0.60921 0.02487 0.04873 0.0
C536 C 0.67948 0.01649 0.02664 0.0
C537 C 0.62601 0.99455 0.05941 0.0
C538 C 0.72413 0.97173 1.01561 0.0
C539 C 0.75594 0.01805 0.96314 0.0
N540 N 0.65972 0.99092 0.0479 0.0
N541 N 0.72999 0.02914 0.98418 0.0
H542 H 0.71643 0.13509 0.50833 0.0
H543 H 0.91854 0.11992 0.44665 0.0
H544 H 0.75695 0.16129 0.40347 0.0
H545 H 0.8774 0.07948 0.54734 0.0
H546 H 0.86281 0.14581 0.4356 0.0
H547 H 0.77732 0.12336 0.52721 0.0
C548 C 0.73815 0.13867 0.48933 0.0
C549 C 0.73139 0.14902 0.45412 0.0
C550 C 0.86608 0.13201 0.4605 0.0
C551 C 0.80119 0.13559 0.47566 0.0
C552 C 0.89813 0.11766 0.46701 0.0
C553 C 0.90261 0.09791 0.49809 0.0
C554 C 0.83785 0.12614 0.48501 0.0
C555 C 0.87512 0.09505 0.52332 0.0
C556 C 0.77288 0.13184 0.50014 0.0
C557 C 0.76058 0.15279 0.43065 0.0
N558 N 0.84356 0.10856 0.51601 0.0
N559 N 0.79404 0.14603 0.44181 0.0
H560 H 0.31909 0.73848 0.11029 0.0
H561 H 0.14514 0.58672 0.04421 0.0
H562 H 0.27141 0.64435 0.17344 0.0
H563 H 0.13773 0.7056 0.04901 0.0
H564 H 0.20865 0.6031 0.06805 0.0
H565 H 0.26691 0.72191 0.06729 0.0
C566 C 0.29792 0.71438 0.1153 0.0
C567 C 0.29981 0.69309 0.14607 0.0
C568 C 0.19364 0.62566 0.06215 0.0
C569 C 0.24153 0.6729 0.09554 0.0
C570 C 0.15776 0.61648 0.04786 0.0
C571 C 0.13646 0.64498 0.04442 0.0
C572 C 0.20843 0.66365 0.07185 0.0
C573 C 0.15355 0.68299 0.05089 0.0
C574 C 0.26851 0.70476 0.09039 0.0
C575 C 0.27188 0.66135 0.15006 0.0
N576 N 0.18857 0.69131 0.06489 0.0
N577 N 0.24397 0.65219 0.12505 0.0
H578 H 0.23042 0.40568 0.59913 0.0
H579 H 0.38569 0.58101 0.65819 0.0
H580 H 0.20739 0.51381 0.63814 0.0
H581 H 0.4064 0.49743 0.57898 0.0
H582 H 0.32046 0.55371 0.65375 0.0
H583 H 0.29486 0.43567 0.59293 0.0
C584 C 0.23865 0.43577 0.6059 0.0
C585 C 0.21333 0.45707 0.61965 0.0
C586 C 0.3391 0.54136 0.63712 0.0
C587 C 0.28716 0.49122 0.61322 0.0
C588 C 0.37639 0.5568 0.63979 0.0
C589 C 0.40145 0.54123 0.6191 0.0
C590 C 0.32656 0.50948 0.61411 0.0
C591 C 0.38787 0.5102 0.59537 0.0
C592 C 0.2755 0.45279 0.60247 0.0
C593 C 0.22594 0.49592 0.6283 0.0
N594 N 0.35126 0.49489 0.59386 0.0
N595 N 0.2619 0.51154 0.62536 0.0
H596 H 0.9829 0.88084 0.90749 0.0
H597 H 0.93967 0.69373 0.02276 0.0
H598 H 0.87489 0.83422 0.94343 0.0
H599 H 0.03562 0.72127 0.95999 0.0
H600 H 0.92128 0.75388 1.00635 0.0
H601 H 0.00718 0.83033 0.93717 0.0
C602 C 0.96411 0.86016 0.9215 0.0
C603 C 0.92641 0.86204 0.92222 0.0
C604 C 0.94687 0.74726 0.99694 0.0
C605 C 0.95474 0.80425 0.95753 0.0
C606 C 0.9577 0.71326 1.00686 0.0
C607 C 0.98966 0.70296 0.99341 0.0
C608 C 0.96813 0.77106 0.97328 0.0
C609 C 0.01123 0.72859 0.97161 0.0
C610 C 0.97821 0.83141 0.93879 0.0
C611 C 0.9041 0.83468 0.94209 0.0
N612 N 0.99999 0.76121 0.96204 0.0
N613 N 0.91852 0.80702 0.95871 0.0
H614 H 0.34324 0.81539 0.2155 0.0
H615 H 0.52076 0.94973 0.15042 0.0
H616 H 0.44909 0.78302 0.20342 0.0
H617 H 0.40958 0.96351 0.12626 0.0
H618 H 0.49827 0.90296 0.19437 0.0
H619 H 0.37123 0.88168 0.20676 0.0
C620 C 0.37255 0.82244 0.21179 0.0
C621 C 0.39378 0.79371 0.20939 0.0
C622 C 0.47891 0.91746 0.18069 0.0
C623 C 0.42586 0.86926 0.1994 0.0
C624 C 0.49177 0.94469 0.1561 0.0
C625 C 0.46689 0.96036 0.13481 0.0
C626 C 0.4409 0.90612 0.18394 0.0
C627 C 0.42959 0.95221 0.1424 0.0
C628 C 0.38848 0.86021 0.20689 0.0
C629 C 0.43174 0.80434 0.20524 0.0
N630 N 0.41755 0.92488 0.16579 0.0
N631 N 0.44649 0.84123 0.19965 0.0
H632 H 0.11869 0.36703 0.54072 0.0
H633 H 0.98582 0.17469 0.5857 0.0
H634 H 0.07229 0.33675 0.64268 0.0
H635 H 0.07161 0.17494 0.51063 0.0
H636 H 0.99819 0.24408 0.58825 0.0
H637 H 0.08653 0.30487 0.51499 0.0
C638 C 0.10152 0.34783 0.55756 0.0
C639 C 0.09782 0.35781 0.59385 0.0
C640 C 0.01324 0.22903 0.56992 0.0
C641 C 0.06025 0.28771 0.56432 0.0
C642 C 1.00558 0.18938 0.56782 0.0
C643 C 0.02793 0.16919 0.54814 0.0
C644 C 0.04338 0.24844 0.55206 0.0
C645 C 0.05381 0.18966 0.52616 0.0
C646 C 0.08297 0.31262 0.54277 0.0
C647 C 0.07513 0.33149 0.61431 0.0
N648 N 0.06177 0.22835 0.52953 0.0
N649 N 0.0573 0.298 0.59928 0.0
H650 H 0.55572 0.29175 0.46454 0.0
H651 H 0.58392 0.48095 0.59106 0.0
H652 H 0.62239 0.30229 0.56217 0.0
H653 H 0.4931 0.44632 0.51495 0.0
H654 H 0.6032 0.41917 0.57976 0.0
H655 H 0.53965 0.35401 0.4788 0.0
C656 C 0.56773 0.30778 0.48851 0.0
C657 C 0.59061 0.2923 0.51207 0.0
C658 C 0.5786 0.42486 0.56617 0.0
C659 C 0.57166 0.36291 0.52922 0.0
C660 C 0.56725 0.45977 0.57311 0.0
C661 C 0.53648 0.46833 0.55437 0.0
C662 C 0.55925 0.39887 0.54002 0.0
C663 C 0.51673 0.44059 0.53021 0.0
C664 C 0.55817 0.34301 0.49696 0.0
C665 C 0.60488 0.31367 0.54325 0.0
N666 N 0.52861 0.40736 0.52351 0.0
N667 N 0.59514 0.34796 0.55103 0.0
loop_
_geom_bond_atom_site_label_1
_geom_bond_atom_site_label_2
_geom_bond_distance
_geom_bond_site_symmetry_2
_ccdc_geom_bond_type
H0 C1 0.949 . S
C1 H0 0.949 . S
C1 C2 1.395 . S
C1 C3 1.391 . S
C2 C1 1.395 . S
C2 C5 1.390 . S
C3 C1 1.391 . S
C3 C7 1.387 . S
C3 C8 1.491 . S
H4 C5 0.950 . S
C5 C2 1.390 . S
C5 H4 0.950 . S
C5 C6 1.378 . S
C6 C5 1.378 . S
C6 C7 1.409 . S
C7 C3 1.387 . S
C7 C6 1.409 . S
C7 H9 0.951 . S
C8 C3 1.491 . S
C8 C10 1.382 . S
C8 C12 1.404 . S
H9 C7 0.951 . S
C10 C8 1.382 . S
C10 C11 1.390 . S
C10 H15 0.949 . S
C11 C10 1.390 . S
C11 C16 1.399 . S
C12 C8 1.404 . S
C12 H13 0.950 . S
C12 C14 1.375 . S
H13 C12 0.950 . S
C14 C12 1.375 . S
C14 C16 1.382 . S
C14 H18 0.950 . S
H15 C10 0.949 . S
C16 C11 1.399 . S
C16 C14 1.382 . S
C16 H17 0.952 . S
H17 C16 0.952 . S
H18 C14 0.950 . S
H19 C20 0.949 . S
C20 H19 0.949 . S
C20 C21 1.395 . S
C20 C22 1.391 . S
C21 C20 1.395 . S
C21 C24 1.390 . S
C22 C20 1.391 . S
C22 C26 1.387 . S
C22 C27 1.491 . S
H23 C24 0.950 . S
C24 C21 1.390 . S
C24 H23 0.950 . S
C24 C25 1.378 . S
C25 C24 1.378 . S
C25 C26 1.409 . S
C26 C22 1.387 . S
C26 C25 1.409 . S
C26 H28 0.951 . S
C27 C22 1.491 . S
C27 C29 1.382 . S
C27 C31 1.404 . S
H28 C26 0.951 . S
C29 C27 1.382 . S
C29 C30 1.390 . S
C29 H34 0.949 . S
C30 C29 1.390 . S
C30 C35 1.399 . S
C31 C27 1.404 . S
C31 H32 0.950 . S
C31 C33 1.375 . S
H32 C31 0.950 . S
C33 C31 1.375 . S
C33 C35 1.382 . S
C33 H37 0.950 . S
H34 C29 0.949 . S
C35 C30 1.399 . S
C35 C33 1.382 . S
C35 H36 0.952 . S
H36 C35 0.952 . S
H37 C33 0.950 . S
H38 C39 0.949 . S
C39 H38 0.949 . S
C39 C40 1.395 . S
C39 C41 1.391 . S
C40 C39 1.395 . S
C40 C43 1.390 . S
C41 C39 1.391 . S
C41 C45 1.387 . S
C41 C46 1.491 . S
H42 C43 0.950 . S
C43 C40 1.390 . S
C43 H42 0.950 . S
C43 C44 1.378 . S
C44 C43 1.378 . S
C44 C45 1.409 . S
C45 C41 1.387 . S
C45 C44 1.409 . S
C45 H47 0.951 . S
C46 C41 1.491 . S
C46 C48 1.382 . S
C46 C50 1.404 . S
H47 C45 0.951 . S
C48 C46 1.382 . S
C48 C49 1.390 . S
C48 H53 0.949 . S
C49 C48 1.390 . S
C49 C54 1.399 . S
C50 C46 1.404 . S
C50 H51 0.950 . S
C50 C52 1.375 . S
H51 C50 0.950 . S
C52 C50 1.375 . S
C52 C54 1.382 . S
C52 H56 0.950 . S
H53 C48 0.949 . S
C54 C49 1.399 . S
C54 C52 1.382 . S
C54 H55 0.952 . S
H55 C54 0.952 . S
H56 C52 0.950 . S
H57 C58 0.949 . S
C58 H57 0.949 . S
C58 C59 1.395 . S
C58 C60 1.391 . S
C59 C58 1.395 . S
C59 C62 1.390 . S
C60 C58 1.391 . S
C60 C64 1.387 . S
C60 C65 1.491 . S
H61 C62 0.950 . S
C62 C59 1.390 . S
C62 H61 0.950 . S
C62 C63 1.378 . S
C63 C62 1.378 . S
C63 C64 1.409 . S
C64 C60 1.387 . S
C64 C63 1.409 . S
C64 H66 0.951 . S
C65 C60 1.491 . S
C65 C67 1.382 . S
C65 C69 1.404 . S
H66 C64 0.951 . S
C67 C65 1.382 . S
C67 C68 1.390 . S
C67 H72 0.949 . S
C68 C67 1.390 . S
C68 C73 1.399 . S
C69 C65 1.404 . S
C69 H70 0.950 . S
C69 C71 1.375 . S
H70 C69 0.950 . S
C71 C69 1.375 . S
C71 C73 1.382 . S
C71 H75 0.950 . S
H72 C67 0.949 . S
C73 C68 1.399 . S
C73 C71 1.382 . S
C73 H74 0.952 . S
H74 C73 0.952 . S
H75 C71 0.950 . S
H76 C77 0.949 . S
C77 H76 0.949 . S
C77 C78 1.395 . S
C77 C79 1.391 . S
C78 C77 1.395 . S
C78 C81 1.390 . S
C79 C77 1.391 . S
C79 C83 1.387 . S
C79 C84 1.491 . S
H80 C81 0.950 . S
C81 C78 1.390 . S
C81 H80 0.950 . S
C81 C82 1.378 . S
C82 C81 1.378 . S
C82 C83 1.409 . S
C83 C79 1.387 . S
C83 C82 1.409 . S
C83 H85 0.951 . S
C84 C79 1.491 . S
C84 C86 1.382 . S
C84 C88 1.404 . S
H85 C83 0.951 . S
C86 C84 1.382 . S
C86 C87 1.390 . S
C86 H91 0.949 . S
C87 C86 1.390 . S
C87 C92 1.399 . S
C88 C84 1.404 . S
C88 H89 0.950 . S
C88 C90 1.375 . S
H89 C88 0.950 . S
C90 C88 1.375 . S
C90 C92 1.382 . S
C90 H94 0.950 . S
H91 C86 0.949 . S
C92 C87 1.399 . S
C92 C90 1.382 . S
C92 H93 0.952 . S
H93 C92 0.952 . S
H94 C90 0.950 . S
H95 C96 0.949 . S
C96 H95 0.949 . S
C96 C97 1.395 . S
C96 C98 1.391 . S
C97 C96 1.395 . S
C97 C100 1.390 . S
C98 C96 1.391 . S
C98 C102 1.387 . S
C98 C103 1.491 . S
H99 C100 0.950 . S
C100 C97 1.390 . S
C100 H99 0.950 . S
C100 C101 1.378 . S
C101 C100 1.378 . S
C101 C102 1.409 . S
C102 C98 1.387 . S
C102 C101 1.409 . S
C102 H104 0.951 . S
C103 C98 1.491 . S
C103 C105 1.382 . S
C103 C107 1.404 . S
H104 C102 0.951 . S
C105 C103 1.382 . S
C105 C106 1.390 . S
C105 H110 0.949 . S
C106 C105 1.390 . S
C106 C111 1.399 . S
C107 C103 1.404 . S
C107 H108 0.950 . S
C107 C109 1.375 . S
H108 C107 0.950 . S
C109 C107 1.375 . S
C109 C111 1.382 . S
C109 H113 0.950 . S
H110 C105 0.949 . S
C111 C106 1.399 . S
C111 C109 1.382 . S
C111 H112 0.952 . S
H112 C111 0.952 . S
H113 C109 0.950 . S
H114 C115 0.949 . S
C115 H114 0.949 . S
C115 C116 1.395 . S
C115 C117 1.391 . S
C116 C115 1.395 . S
C116 C119 1.390 . S
C117 C115 1.391 . S
C117 C121 1.387 . S
C117 C122 1.491 . S
H118 C119 0.950 . S
C119 C116 1.390 . S
C119 H118 0.950 . S
C119 C120 1.378 . S
C120 C119 1.378 . S
C120 C121 1.409 . S
C121 C117 1.387 . S
C121 C120 1.409 . S
C121 H123 0.951 . S
C122 C117 1.491 . S
C122 C124 1.382 . S
C122 C126 1.404 . S
H123 C121 0.951 . S
C124 C122 1.382 . S
C124 C125 1.390 . S
C124 H129 0.949 . S
C125 C124 1.390 . S
C125 C130 1.399 . S
C126 C122 1.404 . S
C126 H127 0.950 . S
C126 C128 1.375 . S
H127 C126 0.950 . S
C128 C126 1.375 . S
C128 C130 1.382 . S
C128 H132 0.950 . S
H129 C124 0.949 . S
C130 C125 1.399 . S
C130 C128 1.382 . S
C130 H131 0.952 . S
H131 C130 0.952 . S
H132 C128 0.950 . S
H133 C134 0.949 . S
C134 H133 0.949 . S
C134 C135 1.395 . S
C134 C136 1.391 . S
C135 C134 1.395 . S
C135 C138 1.390 . S
C136 C134 1.391 . S
C136 C140 1.387 . S
C136 C141 1.491 . S
H137 C138 0.950 . S
C138 C135 1.390 . S
C138 H137 0.950 . S
C138 C139 1.378 . S
C139 C138 1.378 . S
C139 C140 1.409 . S
C140 C136 1.387 . S
C140 C139 1.409 . S
C140 H142 0.951 . S
C141 C136 1.491 . S
C141 C143 1.382 . S
C141 C145 1.404 . S
H142 C140 0.951 . S
C143 C141 1.382 . S
C143 C144 1.390 . S
C143 H148 0.949 . S
C144 C143 1.390 . S
C144 C149 1.399 . S
C145 C141 1.404 . S
C145 H146 0.950 . S
C145 C147 1.375 . S
H146 C145 0.950 . S
C147 C145 1.375 . S
C147 C149 1.382 . S
C147 H151 0.950 . S
H148 C143 0.949 . S
C149 C144 1.399 . S
C149 C147 1.382 . S
C149 H150 0.952 . S
H150 C149 0.952 . S
H151 C147 0.950 . S
O152 Mn153 2.163 1_655 S
O152 C166 1.244 . S
Mn153 O152 2.163 1_455 S
Mn153 O156 2.160 . S
Mn153 O157 2.221 . S
Mn153 O159 2.163 1_455 S
Mn153 O161 2.160 . S
Mn153 O171 2.221 1_445 S
O154 Mn155 2.087 . S
O154 C166 1.256 . S
Mn155 O154 2.087 . S
Mn155 O162 2.089 . S
Mn155 O171 2.290 1_545 S
Mn155 O172 2.251 1_545 S
O156 Mn153 2.160 . S
O156 C167 1.239 . S
O157 Mn153 2.221 . S
O157 Mn158 2.290 . S
O157 C168 1.278 . S
Mn158 O157 2.290 . S
Mn158 O160 2.089 . S
Mn158 O163 2.251 . S
Mn158 O164 2.087 . S
O159 Mn153 2.163 1_655 S
O159 C169 1.244 . S
O160 Mn158 2.089 . S
O160 C167 1.256 . S
O161 Mn153 2.160 . S
O161 C170 1.239 . S
O162 Mn155 2.089 . S
O162 C170 1.256 1_655 S
O163 Mn158 2.251 . S
O163 C168 1.241 . S
O164 Mn158 2.087 . S
O164 C169 1.256 1_455 S
C165 O171 1.278 . S
C165 O172 1.241 . S
C166 O152 1.244 . S
C166 O154 1.256 . S
C167 O156 1.239 . S
C167 O160 1.256 . S
C168 O157 1.278 . S
C168 O163 1.241 . S
C169 O159 1.244 . S
C169 O164 1.256 1_655 S
C170 O161 1.239 . S
C170 O162 1.256 1_455 S
O171 Mn153 2.221 1_665 S
O171 Mn155 2.290 1_565 S
O171 C165 1.278 . S
O172 Mn155 2.251 1_565 S
O172 C165 1.241 . S
O173 Mn174 2.163 . S
O173 C187 1.244 1_554 S
Mn174 O173 2.163 . S
Mn174 O177 2.160 . S
Mn174 O178 2.221 . S
Mn174 O180 2.163 . S
Mn174 O182 2.160 . S
Mn174 O192 2.221 1_545 S
O175 Mn176 2.087 1_556 S
O175 C187 1.256 1_565 S
Mn176 O175 2.087 1_554 S
Mn176 O183 2.089 . S
Mn176 O192 2.290 . S
Mn176 O193 2.251 . S
O177 Mn174 2.160 . S
O177 C188 1.239 . S
O178 Mn174 2.221 . S
O178 Mn179 2.290 . S
O178 C189 1.278 . S
Mn179 O178 2.290 . S
Mn179 O181 2.089 . S
Mn179 O184 2.251 . S
Mn179 O185 2.087 . S
O180 Mn174 2.163 . S
O180 C190 1.244 . S
O181 Mn179 2.089 . S
O181 C188 1.256 . S
O182 Mn174 2.160 . S
O182 C191 1.239 . S
O183 Mn176 2.089 . S
O183 C191 1.256 1_565 S
O184 Mn179 2.251 . S
O184 C189 1.241 . S
O185 Mn179 2.087 . S
O185 C190 1.256 . S
C186 O192 1.278 . S
C186 O193 1.241 . S
C187 O173 1.244 1_556 S
C187 O175 1.256 1_545 S
C188 O177 1.239 . S
C188 O181 1.256 . S
C189 O178 1.278 . S
C189 O184 1.241 . S
C190 O180 1.244 . S
C190 O185 1.256 . S
C191 O182 1.239 . S
C191 O183 1.256 1_545 S
O192 Mn174 2.221 1_565 S
O192 Mn176 2.290 . S
O192 C186 1.278 . S
O193 Mn176 2.251 . S
O193 C186 1.241 . S
O194 Mn195 2.163 . S
O194 C208 1.244 . S
Mn195 O194 2.163 . S
Mn195 O198 2.160 . S
Mn195 O199 2.221 . S
Mn195 O201 2.163 . S
Mn195 O203 2.160 . S
Mn195 O213 2.221 . S
O196 Mn197 2.087 . S
O196 C208 1.256 . S
Mn197 O196 2.087 . S
Mn197 O204 2.089 . S
Mn197 O213 2.290 . S
Mn197 O214 2.251 . S
O198 Mn195 2.160 . S
O198 C209 1.239 . S
O199 Mn195 2.221 . S
O199 Mn200 2.290 . S
O199 C210 1.278 . S
Mn200 O199 2.290 . S
Mn200 O202 2.089 . S
Mn200 O205 2.251 . S
Mn200 O206 2.087 . S
O201 Mn195 2.163 . S
O201 C211 1.244 . S
O202 Mn200 2.089 . S
O202 C209 1.256 . S
O203 Mn195 2.160 . S
O203 C212 1.239 . S
O204 Mn197 2.089 . S
O204 C212 1.256 . S
O205 Mn200 2.251 . S
O205 C210 1.241 . S
O206 Mn200 2.087 . S
O206 C211 1.256 . S
C207 O213 1.278 . S
C207 O214 1.241 . S
C208 O194 1.244 . S
C208 O196 1.256 . S
C209 O198 1.239 . S
C209 O202 1.256 . S
C210 O199 1.278 . S
C210 O205 1.241 . S
C211 O201 1.244 . S
C211 O206 1.256 . S
C212 O203 1.239 . S
C212 O204 1.256 . S
O213 Mn195 2.221 . S
O213 Mn197 2.290 . S
O213 C207 1.278 . S
O214 Mn197 2.251 . S
O214 C207 1.241 . S
O215 Mn216 2.163 1_655 S
O215 C229 1.244 1_554 S
Mn216 O215 2.163 1_455 S
Mn216 O219 2.160 . S
Mn216 O220 2.221 . S
Mn216 O222 2.163 . S
Mn216 O224 2.160 . S
Mn216 O234 2.221 1_554 S
O217 Mn218 2.087 . S
O217 C229 1.256 . S
Mn218 O217 2.087 . S
Mn218 O225 2.089 . S
Mn218 O234 2.290 1_655 S
Mn218 O235 2.251 1_655 S
O219 Mn216 2.160 . S
O219 C230 1.239 . S
O220 Mn216 2.221 . S
O220 Mn221 2.290 . S
O220 C231 1.278 1_455 S
Mn221 O220 2.290 . S
Mn221 O223 2.089 . S
Mn221 O226 2.251 1_455 S
Mn221 O227 2.087 . S
O222 Mn216 2.163 . S
O222 C232 1.244 . S
O223 Mn221 2.089 . S
O223 C230 1.256 . S
O224 Mn216 2.160 . S
O224 C233 1.239 1_454 S
O225 Mn218 2.089 . S
O225 C233 1.256 . S
O226 Mn221 2.251 1_655 S
O226 C231 1.241 . S
O227 Mn221 2.087 . S
O227 C232 1.256 . S
C228 O234 1.278 . S
C228 O235 1.241 . S
C229 O215 1.244 1_556 S
C229 O217 1.256 . S
C230 O219 1.239 . S
C230 O223 1.256 . S
C231 O220 1.278 1_655 S
C231 O226 1.241 . S
C232 O222 1.244 . S
C232 O227 1.256 . S
C233 O224 1.239 1_656 S
C233 O225 1.256 . S
O234 Mn216 2.221 1_556 S
O234 Mn218 2.290 1_455 S
O234 C228 1.278 . S
O235 Mn218 2.251 1_455 S
O235 C228 1.241 . S
H236 C242 0.930 . S
H237 C246 0.930 . S
H238 C251 0.929 . S
H239 C249 0.929 . S
H240 C244 0.929 . S
H241 C250 0.929 . S
C242 H236 0.930 . S
C242 C243 1.367 . S
C242 C250 1.378 . S
C243 C242 1.367 . S
C243 C251 1.433 . S
C244 H240 0.929 . S
C244 C246 1.378 . S
C244 C248 1.350 . S
C245 C248 1.463 . S
C245 C250 1.350 . S
C245 N253 1.427 . S
C246 H237 0.930 . S
C246 C244 1.378 . S
C246 C247 1.367 . S
C247 C246 1.367 . S
C247 C249 1.433 . S
C248 C244 1.350 . S
C248 C245 1.463 . S
C248 N252 1.427 . S
C249 H239 0.929 . S
C249 C247 1.433 . S
C249 N252 1.384 . S
C250 H241 0.929 . S
C250 C242 1.378 . S
C250 C245 1.350 . S
C251 H238 0.929 . S
C251 C243 1.433 . S
C251 N253 1.384 . S
N252 C248 1.427 . S
N252 C249 1.384 . S
N253 C245 1.427 . S
N253 C251 1.384 . S
H254 C260 0.930 . S
H255 C264 0.930 . S
H256 C269 0.929 . S
H257 C267 0.929 . S
H258 C262 0.929 . S
H259 C268 0.929 . S
C260 H254 0.930 . S
C260 C261 1.367 . S
C260 C268 1.378 . S
C261 C260 1.367 . S
C261 C269 1.433 . S
C262 H258 0.929 . S
C262 C264 1.378 . S
C262 C266 1.350 1_545 S
C263 C266 1.463 . S
C263 C268 1.350 . S
C263 N271 1.427 . S
C264 H255 0.930 . S
C264 C262 1.378 . S
C264 C265 1.367 . S
C265 C264 1.367 . S
C265 C267 1.433 1_545 S
C266 C262 1.350 1_565 S
C266 C263 1.463 . S
C266 N270 1.427 . S
C267 H257 0.929 . S
C267 C265 1.433 1_565 S
C267 N270 1.384 . S
C268 H259 0.929 . S
C268 C260 1.378 . S
C268 C263 1.350 . S
C269 H256 0.929 . S
C269 C261 1.433 . S
C269 N271 1.384 . S
N270 C266 1.427 . S
N270 C267 1.384 . S
N271 C263 1.427 . S
N271 C269 1.384 . S
H272 C278 0.930 . S
H273 C282 0.930 . S
H274 C287 0.929 . S
H275 C285 0.929 . S
H276 C280 0.929 . S
H277 C286 0.929 . S
C278 H272 0.930 . S
C278 C279 1.367 . S
C278 C286 1.378 . S
C279 C278 1.367 . S
C279 C287 1.433 . S
C280 H276 0.929 . S
C280 C282 1.378 . S
C280 C284 1.350 . S
C281 C284 1.463 . S
C281 C286 1.350 . S
C281 N289 1.427 . S
C282 H273 0.930 . S
C282 C280 1.378 . S
C282 C283 1.367 . S
C283 C282 1.367 . S
C283 C285 1.433 . S
C284 C280 1.350 . S
C284 C281 1.463 . S
C284 N288 1.427 . S
C285 H275 0.929 . S
C285 C283 1.433 . S
C285 N288 1.384 . S
C286 H277 0.929 . S
C286 C278 1.378 . S
C286 C281 1.350 . S
C287 H274 0.929 . S
C287 C279 1.433 . S
C287 N289 1.384 . S
N288 C284 1.427 . S
N288 C285 1.384 . S
N289 C281 1.427 . S
N289 C287 1.384 . S
H290 C296 0.930 . S
H291 C300 0.930 . S
H292 C305 0.929 . S
H293 C303 0.929 . S
H294 C298 0.929 . S
H295 C304 0.929 . S
C296 H290 0.930 . S
C296 C297 1.367 . S
C296 C304 1.378 . S
C297 C296 1.367 . S
C297 C305 1.433 . S
C298 H294 0.929 . S
C298 C300 1.378 . S
C298 C302 1.350 . S
C299 C302 1.463 . S
C299 C304 1.350 . S
C299 N307 1.427 . S
C300 H291 0.930 . S
C300 C298 1.378 . S
C300 C301 1.367 . S
C301 C300 1.367 . S
C301 C303 1.433 . S
C302 C298 1.350 . S
C302 C299 1.463 . S
C302 N306 1.427 . S
C303 H293 0.929 . S
C303 C301 1.433 . S
C303 N306 1.384 . S
C304 H295 0.929 . S
C304 C296 1.378 . S
C304 C299 1.350 . S
C305 H292 0.929 . S
C305 C297 1.433 . S
C305 N307 1.384 . S
N306 C302 1.427 . S
N306 C303 1.384 . S
N307 C299 1.427 . S
N307 C305 1.384 . S
H308 C314 0.930 . S
H309 C318 0.930 . S
H310 C323 0.929 . S
H311 C321 0.929 . S
H312 C316 0.929 . S
H313 C322 0.929 . S
C314 H308 0.930 . S
C314 C315 1.367 . S
C314 C322 1.378 . S
C315 C314 1.367 . S
C315 C323 1.433 . S
C316 H312 0.929 . S
C316 C318 1.378 . S
C316 C320 1.350 . S
C317 C320 1.463 . S
C317 C322 1.350 . S
C317 N325 1.427 . S
C318 H309 0.930 . S
C318 C316 1.378 . S
C318 C319 1.367 . S
C319 C318 1.367 . S
C319 C321 1.433 . S
C320 C316 1.350 . S
C320 C317 1.463 . S
C320 N324 1.427 . S
C321 H311 0.929 . S
C321 C319 1.433 . S
C321 N324 1.384 . S
C322 H313 0.929 . S
C322 C314 1.378 . S
C322 C317 1.350 . S
C323 H310 0.929 . S
C323 C315 1.433 . S
C323 N325 1.384 . S
N324 C320 1.427 . S
N324 C321 1.384 . S
N325 C317 1.427 . S
N325 C323 1.384 . S
H326 C332 0.930 . S
H327 C336 0.930 . S
H328 C341 0.929 . S
H329 C339 0.929 . S
H330 C334 0.929 . S
H331 C340 0.929 . S
C332 H326 0.930 . S
C332 C333 1.367 . S
C332 C340 1.378 . S
C333 C332 1.367 . S
C333 C341 1.433 1_565 S
C334 H330 0.929 . S
C334 C336 1.378 . S
C334 C338 1.350 . S
C335 C338 1.463 1_565 S
C335 C340 1.350 . S
C335 N343 1.427 1_565 S
C336 H327 0.930 . S
C336 C334 1.378 . S
C336 C337 1.367 . S
C337 C336 1.367 . S
C337 C339 1.433 1_545 S
C338 C334 1.350 . S
C338 C335 1.463 1_545 S
C338 N342 1.427 1_545 S
C339 H329 0.929 . S
C339 C337 1.433 1_565 S
C339 N342 1.384 . S
C340 H331 0.929 . S
C340 C332 1.378 . S
C340 C335 1.350 . S
C341 H328 0.929 . S
C341 C333 1.433 1_545 S
C341 N343 1.384 . S
N342 C338 1.427 1_565 S
N342 C339 1.384 . S
N343 C335 1.427 1_545 S
N343 C341 1.384 . S
H344 C350 0.930 . S
H345 C354 0.930 . S
H346 C359 0.929 . S
H347 C357 0.929 1_554 S
H348 C352 0.929 . S
H349 C358 0.929 . S
C350 H344 0.930 . S
C350 C351 1.367 . S
C350 C358 1.378 . S
C351 C350 1.367 . S
C351 C359 1.433 . S
C352 H348 0.929 . S
C352 C354 1.378 . S
C352 C356 1.350 . S
C353 C356 1.463 . S
C353 C358 1.350 . S
C353 N361 1.427 . S
C354 H345 0.930 . S
C354 C352 1.378 . S
C354 C355 1.367 . S
C355 C354 1.367 . S
C355 C357 1.433 . S
C356 C352 1.350 . S
C356 C353 1.463 . S
C356 N360 1.427 . S
C357 H347 0.929 1_556 S
C357 C355 1.433 . S
C357 N360 1.384 . S
C358 H349 0.929 . S
C358 C350 1.378 . S
C358 C353 1.350 . S
C359 H346 0.929 . S
C359 C351 1.433 . S
C359 N361 1.384 . S
N360 C356 1.427 . S
N360 C357 1.384 . S
N361 C353 1.427 . S
N361 C359 1.384 . S
H362 C368 0.930 . S
H363 C372 0.930 . S
H364 C377 0.929 . S
H365 C375 0.929 . S
H366 C370 0.929 . S
H367 C376 0.929 . S
C368 H362 0.930 . S
C368 C369 1.367 . S
C368 C376 1.378 . S
C369 C368 1.367 . S
C369 C377 1.433 . S
C370 H366 0.929 . S
C370 C372 1.378 . S
C370 C374 1.350 . S
C371 C374 1.463 . S
C371 C376 1.350 . S
C371 N379 1.427 . S
C372 H363 0.930 . S
C372 C370 1.378 . S
C372 C373 1.367 . S
C373 C372 1.367 . S
C373 C375 1.433 . S
C374 C370 1.350 . S
C374 C371 1.463 . S
C374 N378 1.427 . S
C375 H365 0.929 . S
C375 C373 1.433 . S
C375 N378 1.384 . S
C376 H367 0.929 . S
C376 C368 1.378 . S
C376 C371 1.350 . S
C377 H364 0.929 . S
C377 C369 1.433 . S
C377 N379 1.384 . S
N378 C374 1.427 . S
N378 C375 1.384 . S
N379 C371 1.427 . S
N379 C377 1.384 . S
H380 C386 0.930 . S
H381 C390 0.955 . S
H382 C395 0.929 . S
H383 C393 0.929 . S
H384 C388 0.929 . S
H385 C394 0.929 . S
C386 H380 0.930 . S
C386 C387 1.367 . S
C386 C394 1.378 . S
C387 C386 1.367 . S
C387 C395 1.433 . S
C388 H384 0.929 . S
C388 C390 1.378 . S
C388 C392 1.350 . S
C389 C392 1.463 . S
C389 C394 1.350 . S
C389 N397 1.427 . S
C390 H381 0.955 . S
C390 C388 1.378 . S
C390 C391 1.367 . S
C391 C390 1.367 . S
C391 C393 1.433 . S
C392 C388 1.350 . S
C392 C389 1.463 . S
C392 N396 1.427 . S
C393 H383 0.929 . S
C393 C391 1.433 . S
C393 N396 1.384 . S
C394 H385 0.929 . S
C394 C386 1.378 . S
C394 C389 1.350 . S
C395 H382 0.929 . S
C395 C387 1.433 . S
C395 N397 1.384 . S
N396 C392 1.427 . S
N396 C393 1.384 . S
N397 C389 1.427 . S
N397 C395 1.384 . S
H398 C404 0.930 . S
H399 C408 0.930 . S
H400 C413 0.929 . S
H401 C411 0.929 . S
H402 C406 0.929 . S
H403 C412 0.929 1_554 S
C404 H398 0.930 . S
C404 C405 1.367 . S
C404 C412 1.378 . S
C405 C404 1.367 . S
C405 C413 1.433 . S
C406 H402 0.929 . S
C406 C408 1.378 . S
C406 C410 1.350 . S
C407 C410 1.463 . S
C407 C412 1.350 . S
C407 N415 1.427 . S
C408 H399 0.930 . S
C408 C406 1.378 . S
C408 C409 1.367 1_556 S
C409 C408 1.367 1_554 S
C409 C411 1.433 . S
C410 C406 1.350 . S
C410 C407 1.463 . S
C410 N414 1.427 1_556 S
C411 H401 0.929 . S
C411 C409 1.433 . S
C411 N414 1.384 . S
C412 H403 0.929 1_556 S
C412 C404 1.378 . S
C412 C407 1.350 . S
C413 H400 0.929 . S
C413 C405 1.433 . S
C413 N415 1.384 . S
N414 C410 1.427 1_554 S
N414 C411 1.384 . S
N415 C407 1.427 . S
N415 C413 1.384 . S
H416 C422 0.930 . S
H417 C426 0.930 . S
H418 C431 0.929 . S
H419 C429 0.929 . S
H420 C424 0.929 . S
H421 C430 0.929 . S
C422 H416 0.930 . S
C422 C423 1.367 . S
C422 C430 1.378 . S
C423 C422 1.367 . S
C423 C431 1.433 . S
C424 H420 0.929 . S
C424 C426 1.378 . S
C424 C428 1.350 . S
C425 C428 1.463 . S
C425 C430 1.350 . S
C425 N433 1.427 . S
C426 H417 0.930 . S
C426 C424 1.378 . S
C426 C427 1.367 . S
C427 C426 1.367 . S
C427 C429 1.433 . S
C428 C424 1.350 . S
C428 C425 1.463 . S
C428 N432 1.427 . S
C429 H419 0.929 . S
C429 C427 1.433 . S
C429 N432 1.384 . S
C430 H421 0.929 . S
C430 C422 1.378 . S
C430 C425 1.350 . S
C431 H418 0.929 . S
C431 C423 1.433 . S
C431 N433 1.384 . S
N432 C428 1.427 . S
N432 C429 1.384 . S
N433 C425 1.427 . S
N433 C431 1.384 . S
H434 C440 0.930 . S
H435 C444 0.930 . S
H436 C449 0.929 . S
H437 C447 0.929 . S
H438 C442 0.929 . S
H439 C448 0.929 . S
C440 H434 0.930 . S
C440 C441 1.367 . S
C440 C448 1.378 . S
C441 C440 1.367 . S
C441 C449 1.433 . S
C442 H438 0.929 . S
C442 C444 1.378 . S
C442 C446 1.350 . S
C443 C446 1.463 . S
C443 C448 1.350 . S
C443 N451 1.427 . S
C444 H435 0.930 . S
C444 C442 1.378 . S
C444 C445 1.367 . S
C445 C444 1.367 . S
C445 C447 1.433 . S
C446 C442 1.350 . S
C446 C443 1.463 . S
C446 N450 1.427 . S
C447 H437 0.929 . S
C447 C445 1.433 . S
C447 N450 1.384 . S
C448 H439 0.929 . S
C448 C440 1.378 . S
C448 C443 1.350 . S
C449 H436 0.929 . S
C449 C441 1.433 . S
C449 N451 1.384 . S
N450 C446 1.427 . S
N450 C447 1.384 . S
N451 C443 1.427 . S
N451 C449 1.384 . S
H452 C458 0.930 . S
H453 C462 0.930 1_455 S
H454 C467 0.929 1_545 S
H455 C465 0.929 . S
H456 C460 0.929 . S
H457 C466 0.929 . S
C458 H452 0.930 . S
C458 C459 1.367 . S
C458 C466 1.378 . S
C459 C458 1.367 . S
C459 C467 1.433 . S
C460 H456 0.929 . S
C460 C462 1.378 . S
C460 C464 1.350 1_545 S
C461 C464 1.463 . S
C461 C466 1.350 . S
C461 N469 1.427 1_565 S
C462 H453 0.930 1_655 S
C462 C460 1.378 . S
C462 C463 1.367 1_545 S
C463 C462 1.367 1_565 S
C463 C465 1.433 . S
C464 C460 1.350 1_565 S
C464 C461 1.463 . S
C464 N468 1.427 . S
C465 H455 0.929 . S
C465 C463 1.433 . S
C465 N468 1.384 . S
C466 H457 0.929 . S
C466 C458 1.378 . S
C466 C461 1.350 . S
C467 H454 0.929 1_565 S
C467 C459 1.433 . S
C467 N469 1.384 1_565 S
N468 C464 1.427 . S
N468 C465 1.384 . S
N469 C461 1.427 1_545 S
N469 C467 1.384 1_545 S
H470 C476 0.930 . S
H471 C480 0.930 . S
H472 C485 0.929 . S
H473 C483 0.929 . S
H474 C478 0.929 . S
H475 C484 0.929 . S
C476 H470 0.930 . S
C476 C477 1.367 . S
C476 C484 1.378 . S
C477 C476 1.367 . S
C477 C485 1.433 . S
C478 H474 0.929 . S
C478 C480 1.378 . S
C478 C482 1.350 . S
C479 C482 1.463 . S
C479 C484 1.350 . S
C479 N487 1.427 . S
C480 H471 0.930 . S
C480 C478 1.378 . S
C480 C481 1.367 . S
C481 C480 1.367 . S
C481 C483 1.433 . S
C482 C478 1.350 . S
C482 C479 1.463 . S
C482 N486 1.427 . S
C483 H473 0.929 . S
C483 C481 1.433 . S
C483 N486 1.384 . S
C484 H475 0.929 . S
C484 C476 1.378 . S
C484 C479 1.350 . S
C485 H472 0.929 . S
C485 C477 1.433 . S
C485 N487 1.384 . S
N486 C482 1.427 . S
N486 C483 1.384 . S
N487 C479 1.427 . S
N487 C485 1.384 . S
H488 C494 0.930 . S
H489 C498 0.930 . S
H490 C503 0.929 . S
H491 C501 0.929 . S
H492 C496 0.929 . S
H493 C502 0.929 . S
C494 H488 0.930 . S
C494 C495 1.367 . S
C494 C502 1.378 . S
C495 C494 1.367 . S
C495 C503 1.433 . S
C496 H492 0.929 . S
C496 C498 1.378 . S
C496 C500 1.350 . S
C497 C500 1.463 . S
C497 C502 1.350 . S
C497 N505 1.427 . S
C498 H489 0.930 . S
C498 C496 1.378 . S
C498 C499 1.367 . S
C499 C498 1.367 . S
C499 C501 1.433 . S
C500 C496 1.350 . S
C500 C497 1.463 . S
C500 N504 1.427 . S
C501 H491 0.929 . S
C501 C499 1.433 . S
C501 N504 1.384 . S
C502 H493 0.929 . S
C502 C494 1.378 . S
C502 C497 1.350 . S
C503 H490 0.929 . S
C503 C495 1.433 . S
C503 N505 1.384 . S
N504 C500 1.427 . S
N504 C501 1.384 . S
N505 C497 1.427 . S
N505 C503 1.384 . S
H506 C512 0.930 . S
H507 C516 0.930 . S
H508 C521 0.929 . S
H509 C519 0.929 . S
H510 C514 0.929 . S
H511 C520 0.929 . S
C512 H506 0.930 . S
C512 C513 1.367 . S
C512 C520 1.378 . S
C513 C512 1.367 . S
C513 C521 1.433 . S
C514 H510 0.929 . S
C514 C516 1.378 . S
C514 C518 1.350 . S
C515 C518 1.463 . S
C515 C520 1.350 . S
C515 N523 1.427 . S
C516 H507 0.930 . S
C516 C514 1.378 . S
C516 C517 1.367 . S
C517 C516 1.367 . S
C517 C519 1.433 . S
C518 C514 1.350 . S
C518 C515 1.463 . S
C518 N522 1.427 . S
C519 H509 0.929 . S
C519 C517 1.433 . S
C519 N522 1.384 . S
C520 H511 0.929 . S
C520 C512 1.378 . S
C520 C515 1.350 . S
C521 H508 0.929 . S
C521 C513 1.433 . S
C521 N523 1.384 . S
N522 C518 1.427 . S
N522 C519 1.384 . S
N523 C515 1.427 . S
N523 C521 1.384 . S
H524 C530 0.930 . S
H525 C534 0.927 1_556 S
H526 C539 0.929 . S
H527 C537 0.929 . S
H528 C532 0.929 . S
H529 C538 0.929 1_554 S
C530 H524 0.930 . S
C530 C531 1.367 . S
C530 C538 1.378 . S
C531 C530 1.367 . S
C531 C539 1.433 1_565 S
C532 H528 0.929 . S
C532 C534 1.374 1_556 S
C532 C536 1.360 . S
C533 C536 1.473 1_565 S
C533 C538 1.350 . S
C533 N541 1.427 1_565 S
C534 H525 0.927 1_554 S
C534 C532 1.374 1_554 S
C534 C535 1.374 . S
C535 C534 1.374 . S
C535 C537 1.433 1_545 S
C536 C532 1.360 . S
C536 C533 1.473 1_545 S
C536 N540 1.406 1_546 S
C537 H527 0.929 . S
C537 C535 1.433 1_565 S
C537 N540 1.384 . S
C538 H529 0.929 1_556 S
C538 C530 1.378 . S
C538 C533 1.350 . S
C539 H526 0.929 . S
C539 C531 1.433 1_545 S
C539 N541 1.384 . S
N540 C536 1.406 1_564 S
N540 C537 1.384 . S
N541 C533 1.427 1_545 S
N541 C539 1.384 . S
H542 C548 0.930 . S
H543 C552 0.930 . S
H544 C557 0.929 . S
H545 C555 0.929 . S
H546 C550 0.929 . S
H547 C556 0.929 . S
C548 H542 0.930 . S
C548 C549 1.367 . S
C548 C556 1.378 . S
C549 C548 1.367 . S
C549 C557 1.433 . S
C550 H546 0.929 . S
C550 C552 1.378 . S
C550 C554 1.350 . S
C551 C554 1.463 . S
C551 C556 1.350 . S
C551 N559 1.427 . S
C552 H543 0.930 . S
C552 C550 1.378 . S
C552 C553 1.367 . S
C553 C552 1.367 . S
C553 C555 1.433 . S
C554 C550 1.350 . S
C554 C551 1.463 . S
C554 N558 1.427 . S
C555 H545 0.929 . S
C555 C553 1.433 . S
C555 N558 1.384 . S
C556 H547 0.929 . S
C556 C548 1.378 . S
C556 C551 1.350 . S
C557 H544 0.929 . S
C557 C549 1.433 . S
C557 N559 1.384 . S
N558 C554 1.427 . S
N558 C555 1.384 . S
N559 C551 1.427 . S
N559 C557 1.384 . S
H560 C566 0.930 . S
H561 C570 0.930 . S
H562 C575 0.929 . S
H563 C573 0.929 . S
H564 C568 0.929 . S
H565 C574 0.929 . S
C566 H560 0.930 . S
C566 C567 1.367 . S
C566 C574 1.378 . S
C567 C566 1.367 . S
C567 C575 1.433 . S
C568 H564 0.929 . S
C568 C570 1.378 . S
C568 C572 1.350 . S
C569 C572 1.463 . S
C569 C574 1.350 . S
C569 N577 1.427 . S
C570 H561 0.930 . S
C570 C568 1.378 . S
C570 C571 1.367 . S
C571 C570 1.367 . S
C571 C573 1.433 . S
C572 C568 1.350 . S
C572 C569 1.463 . S
C572 N576 1.427 . S
C573 H563 0.929 . S
C573 C571 1.433 . S
C573 N576 1.384 . S
C574 H565 0.929 . S
C574 C566 1.378 . S
C574 C569 1.350 . S
C575 H562 0.929 . S
C575 C567 1.433 . S
C575 N577 1.384 . S
N576 C572 1.427 . S
N576 C573 1.384 . S
N577 C569 1.427 . S
N577 C575 1.384 . S
H578 C584 0.930 . S
H579 C588 0.930 . S
H580 C593 0.929 . S
H581 C591 0.929 . S
H582 C586 0.929 . S
H583 C592 0.929 . S
C584 H578 0.930 . S
C584 C585 1.367 . S
C584 C592 1.378 . S
C585 C584 1.367 . S
C585 C593 1.433 . S
C586 H582 0.929 . S
C586 C588 1.378 . S
C586 C590 1.350 . S
C587 C590 1.463 . S
C587 C592 1.350 . S
C587 N595 1.427 . S
C588 H579 0.930 . S
C588 C586 1.378 . S
C588 C589 1.367 . S
C589 C588 1.367 . S
C589 C591 1.433 . S
C590 C586 1.350 . S
C590 C587 1.463 . S
C590 N594 1.427 . S
C591 H581 0.929 . S
C591 C589 1.433 . S
C591 N594 1.384 . S
C592 H583 0.929 . S
C592 C584 1.378 . S
C592 C587 1.350 . S
C593 H580 0.929 . S
C593 C585 1.433 . S
C593 N595 1.384 . S
N594 C590 1.427 . S
N594 C591 1.384 . S
N595 C587 1.427 . S
N595 C593 1.384 . S
H596 C602 0.930 . S
H597 C606 0.930 1_554 S
H598 C611 0.929 . S
H599 C609 0.929 1_455 S
H600 C604 0.929 . S
H601 C610 0.929 . S
C602 H596 0.930 . S
C602 C603 1.367 . S
C602 C610 1.378 . S
C603 C602 1.367 . S
C603 C611 1.433 . S
C604 H600 0.929 . S
C604 C606 1.378 . S
C604 C608 1.350 . S
C605 C608 1.463 . S
C605 C610 1.350 . S
C605 N613 1.427 . S
C606 H597 0.930 1_556 S
C606 C604 1.378 . S
C606 C607 1.367 . S
C607 C606 1.367 . S
C607 C609 1.433 . S
C608 C604 1.350 . S
C608 C605 1.463 . S
C608 N612 1.427 . S
C609 H599 0.929 1_655 S
C609 C607 1.433 . S
C609 N612 1.384 . S
C610 H601 0.929 . S
C610 C602 1.378 . S
C610 C605 1.350 . S
C611 H598 0.929 . S
C611 C603 1.433 . S
C611 N613 1.384 . S
N612 C608 1.427 . S
N612 C609 1.384 . S
N613 C605 1.427 . S
N613 C611 1.384 . S
H614 C620 0.930 . S
H615 C624 0.930 . S
H616 C629 0.929 . S
H617 C627 0.929 . S
H618 C622 0.929 . S
H619 C628 0.929 . S
C620 H614 0.930 . S
C620 C621 1.367 . S
C620 C628 1.378 . S
C621 C620 1.367 . S
C621 C629 1.433 . S
C622 H618 0.929 . S
C622 C624 1.378 . S
C622 C626 1.350 . S
C623 C626 1.463 . S
C623 C628 1.350 . S
C623 N631 1.427 . S
C624 H615 0.930 . S
C624 C622 1.378 . S
C624 C625 1.367 . S
C625 C624 1.367 . S
C625 C627 1.433 . S
C626 C622 1.350 . S
C626 C623 1.463 . S
C626 N630 1.427 . S
C627 H617 0.929 . S
C627 C625 1.433 . S
C627 N630 1.384 . S
C628 H619 0.929 . S
C628 C620 1.378 . S
C628 C623 1.350 . S
C629 H616 0.929 . S
C629 C621 1.433 . S
C629 N631 1.384 . S
N630 C626 1.427 . S
N630 C627 1.384 . S
N631 C623 1.427 . S
N631 C629 1.384 . S
H632 C638 0.930 . S
H633 C642 0.930 . S
H634 C647 0.929 . S
H635 C645 0.929 . S
H636 C640 0.929 . S
H637 C646 0.929 . S
C638 H632 0.930 . S
C638 C639 1.367 . S
C638 C646 1.378 . S
C639 C638 1.367 . S
C639 C647 1.433 . S
C640 H636 0.929 . S
C640 C642 1.378 . S
C640 C644 1.350 . S
C641 C644 1.463 . S
C641 C646 1.350 . S
C641 N649 1.427 . S
C642 H633 0.930 . S
C642 C640 1.378 . S
C642 C643 1.367 . S
C643 C642 1.367 . S
C643 C645 1.433 . S
C644 C640 1.350 . S
C644 C641 1.463 . S
C644 N648 1.427 . S
C645 H635 0.929 . S
C645 C643 1.433 . S
C645 N648 1.384 . S
C646 H637 0.929 . S
C646 C638 1.378 . S
C646 C641 1.350 . S
C647 H634 0.929 . S
C647 C639 1.433 . S
C647 N649 1.384 . S
N648 C644 1.427 . S
N648 C645 1.384 . S
N649 C641 1.427 . S
N649 C647 1.384 . S
H650 C656 0.930 . S
H651 C660 0.930 . S
H652 C665 0.929 . S
H653 C663 0.929 . S
H654 C658 0.929 . S
H655 C664 0.929 . S
C656 H650 0.930 . S
C656 C657 1.367 . S
C656 C664 1.378 . S
C657 C656 1.367 . S
C657 C665 1.433 . S
C658 H654 0.929 . S
C658 C660 1.378 . S
C658 C662 1.350 . S
C659 C662 1.463 . S
C659 C664 1.350 . S
C659 N667 1.427 . S
C660 H651 0.930 . S
C660 C658 1.378 . S
C660 C661 1.367 . S
C661 C660 1.367 . S
C661 C663 1.433 . S
C662 C658 1.350 . S
C662 C659 1.463 . S
C662 N666 1.427 . S
C663 H653 0.929 . S
C663 C661 1.433 . S
C663 N666 1.384 . S
C664 H655 0.929 . S
C664 C656 1.378 . S
C664 C659 1.350 . S
C665 H652 0.929 . S
C665 C657 1.433 . S
C665 N667 1.384 . S
N666 C662 1.427 . S
N666 C663 1.384 . S
N667 C659 1.427 . S
N667 C665 1.384 . S
C243 C6 1.873 . S
C247 C170 1.827 . S
C261 C21 1.986 . S
C265 C187 1.960 . S
C283 C210 0.828 . S
C279 C49 0.871 . S
C297 C68 1.416 . S
C301 C231 1.262 . S
C319 C190 2.370 . S
C315 C2 2.444 . S
C337 C167 1.354 . S
C333 C30 1.252 . S
C355 C229 1.109 . S
C351 C40 1.131 . S
C373 C208 1.200 . S
C369 C63 1.263 . S
C387 C11 1.518 . S
C391 C232 1.697 . S
C409 C189 1.449 . S
C405 C44 1.734 . S
C423 C59 1.370 . S
C427 C165 1.197 . S
C441 C25 1.714 . S
C445 C211 1.683 . S
C463 C169 1.982 1_565 S
C459 C82 2.080 . S
C477 C101 1.600 . S
C481 C188 1.566 . S
C495 C125 1.233 . S
C499 C207 1.113 . S
C513 C144 1.079 . S
C517 C228 1.017 . S
C531 C87 1.333 . S
C535 C191 1.461 . S
C553 C166 2.365 . S
C549 C97 2.385 . S
C571 C230 1.006 . S
C567 C120 1.090 . S
C589 C209 1.362 . S
C585 C135 1.370 . S
C603 C78 1.888 . S
C607 C233 1.834 . S
C625 C186 0.945 . S
C621 C116 1.098 . S
C643 C168 1.388 . S
C639 C139 1.585 . S
C657 C106 1.378 . S
C661 C212 1.499 . S
