# Generated by pormake.
# Topology pyr, (3,6)-cn, num edge types: 1
# Building blocks:
#     Node 0, Type 0, BuildingBlock: QEWDON_clean_linker_0, # of connection points: 3
#     Node 1, Type 0, BuildingBlock: QEWDON_clean_linker_0, # of connection points: 3
#     Node 2, Type 0, BuildingBlock: QEWDON_clean_linker_0, # of connection points: 3
#     Node 3, Type 0, BuildingBlock: QEWDON_clean_linker_0, # of connection points: 3
#     Node 4, Type 0, BuildingBlock: QEWDON_clean_linker_0, # of connection points: 3
#     Node 5, Type 0, BuildingBlock: QEWDON_clean_linker_0, # of connection points: 3
#     Node 6, Type 0, BuildingBlock: QEWDON_clean_linker_0, # of connection points: 3
#     Node 7, Type 0, BuildingBlock: QEWDON_clean_linker_0, # of connection points: 3
#     Node 8, Type 1, BuildingBlock: JUFBIX_clean_sbu_0, # of connection points: 6
#     Node 9, Type 1, BuildingBlock: JUFBIX_clean_sbu_0, # of connection points: 6
#     Node 10, Type 1, BuildingBlock: JUFBIX_clean_sbu_0, # of connection points: 6
#     Node 11, Type 1, BuildingBlock: JUFBIX_clean_sbu_0, # of connection points: 6
#     Edge 12, Type (0, 1), BuildingBlock: EZIPEK_clean_linker_0, # of connection points: 2
#     Edge 13, Type (0, 1), BuildingBlock: EZIPEK_clean_linker_0, # of connection points: 2
#     Edge 14, Type (0, 1), BuildingBlock: EZIPEK_clean_linker_0, # of connection points: 2
#     Edge 15, Type (0, 1), BuildingBlock: EZIPEK_clean_linker_0, # of connection points: 2
#     Edge 16, Type (0, 1), BuildingBlock: EZIPEK_clean_linker_0, # of connection points: 2
#     Edge 17, Type (0, 1), BuildingBlock: EZIPEK_clean_linker_0, # of connection points: 2
#     Edge 18, Type (0, 1), BuildingBlock: EZIPEK_clean_linker_0, # of connection points: 2
#     Edge 19, Type (0, 1), BuildingBlock: EZIPEK_clean_linker_0, # of connection points: 2
#     Edge 20, Type (0, 1), BuildingBlock: EZIPEK_clean_linker_0, # of connection points: 2
#     Edge 21, Type (0, 1), BuildingBlock: EZIPEK_clean_linker_0, # of connection points: 2
#     Edge 22, Type (0, 1), BuildingBlock: EZIPEK_clean_linker_0, # of connection points: 2
#     Edge 23, Type (0, 1), BuildingBlock: EZIPEK_clean_linker_0, # of connection points: 2
#     Edge 24, Type (0, 1), BuildingBlock: EZIPEK_clean_linker_0, # of connection points: 2
#     Edge 25, Type (0, 1), BuildingBlock: EZIPEK_clean_linker_0, # of connection points: 2
#     Edge 26, Type (0, 1), BuildingBlock: EZIPEK_clean_linker_0, # of connection points: 2
#     Edge 27, Type (0, 1), BuildingBlock: EZIPEK_clean_linker_0, # of connection points: 2
#     Edge 28, Type (0, 1), BuildingBlock: EZIPEK_clean_linker_0, # of connection points: 2
#     Edge 29, Type (0, 1), BuildingBlock: EZIPEK_clean_linker_0, # of connection points: 2
#     Edge 30, Type (0, 1), BuildingBlock: EZIPEK_clean_linker_0, # of connection points: 2
#     Edge 31, Type (0, 1), BuildingBlock: EZIPEK_clean_linker_0, # of connection points: 2
#     Edge 32, Type (0, 1), BuildingBlock: EZIPEK_clean_linker_0, # of connection points: 2
#     Edge 33, Type (0, 1), BuildingBlock: EZIPEK_clean_linker_0, # of connection points: 2
#     Edge 34, Type (0, 1), BuildingBlock: EZIPEK_clean_linker_0, # of connection points: 2
#     Edge 35, Type (0, 1), BuildingBlock: EZIPEK_clean_linker_0, # of connection points: 2
# Relax obj value: 0.218
# Max RMSD: 0.295
# Mean RMSD: 0.182
data_MOF--net-pyr--node1-JUFBIX_clean_sbu_0--node2-QEWDON_clean_linker_0--edge1-EZIPEK_clean_linker_0
_symmetry_space_group_name_H-M    P1
_symmetry_Int_Tables_number       1
_symmetry_cell_setting            triclinic
loop_
_symmetry_equiv_pos_as_xyz
'x, y, z'
_cell_length_a     26.892229
_cell_length_b     25.672838
_cell_length_c     28.775382
_cell_angle_alpha  82.337043
_cell_angle_beta   88.256474
_cell_angle_gamma 99.469651
loop_
_atom_site_label
_atom_site_type_symbol
_atom_site_fract_x
_atom_site_fract_y
_atom_site_fract_z
_atom_type_partial_charge
H0 H 0.34754 0.25425 0.18304 0.0
C1 C 0.32276 0.23301 0.21233 0.0
C2 C 0.33039 0.18173 0.23172 0.0
C3 C 0.28484 0.25798 0.23057 0.0
H4 H 0.30388 0.11564 0.28664 0.0
C5 C 0.29824 0.15471 0.27057 0.0
C6 C 0.26031 0.17912 0.2901 0.0
C7 C 0.2536 0.2304 0.2693 0.0
C8 C 0.28328 0.31535 0.21233 0.0
H9 H 0.22573 0.24987 0.28487 0.0
C10 C 0.23801 0.33511 0.20088 0.0
C11 C 0.24002 0.38948 0.18143 0.0
C12 C 0.32935 0.35122 0.20568 0.0
H13 H 0.36445 0.33809 0.21509 0.0
C14 C 0.33115 0.4044 0.18709 0.0
H15 H 0.202 0.30853 0.20611 0.0
C16 C 0.2871 0.42328 0.17477 0.0
H17 H 0.28972 0.46487 0.16015 0.0
H18 H 0.36702 0.43122 0.18212 0.0
H19 H 0.39731 0.87136 0.81414 0.0
C20 C 0.42955 0.85459 0.80349 0.0
C21 C 0.47868 0.87568 0.81538 0.0
C22 C 0.42072 0.80906 0.78114 0.0
H23 H 0.55829 0.87458 0.79864 0.0
C24 C 0.51967 0.85796 0.7934 0.0
C25 C 0.51036 0.81865 0.76326 0.0
C26 C 0.46129 0.7908 0.76174 0.0
C27 C 0.36906 0.78449 0.7726 0.0
H28 H 0.45416 0.75851 0.7407 0.0
C29 C 0.33838 0.81583 0.74776 0.0
C30 C 0.29079 0.79306 0.73532 0.0
C31 C 0.35145 0.72969 0.78583 0.0
H32 H 0.37505 0.70466 0.80472 0.0
C33 C 0.30311 0.70699 0.77447 0.0
H34 H 0.35238 0.85787 0.73632 0.0
C35 C 0.27271 0.73857 0.74902 0.0
H36 H 0.23581 0.72065 0.73941 0.0
H37 H 0.28957 0.6648 0.78477 0.0
H38 H 0.78132 0.53256 0.98519 0.0
C39 C 0.76755 0.49007 0.99333 0.0
C40 C 0.80135 0.45477 1.00555 0.0
C41 C 0.71582 0.4706 0.99287 0.0
H42 H 0.8097 0.37189 1.02031 0.0
C43 C 0.78329 0.39926 1.01328 0.0
C44 C 0.73095 0.37953 1.01377 0.0
C45 C 0.69783 0.41612 1.00528 0.0
C46 C 0.67946 0.50492 0.97595 0.0
H47 H 0.65751 0.40174 1.0059 0.0
C48 C 0.67994 0.52362 0.92776 0.0
C49 C 0.63678 0.54009 0.90821 0.0
C50 C 0.63768 0.50782 1.00534 0.0
H51 H 0.63648 0.49286 1.04246 0.0
C52 C 0.59586 0.52682 0.98651 0.0
H53 H 0.71192 0.52078 0.90492 0.0
C54 C 0.59476 0.54146 0.93815 0.0
H55 H 0.56091 0.55358 0.92398 0.0
H56 H 0.56334 0.52801 1.0092 0.0
H57 H 0.96856 0.73507 0.45346 0.0
C58 C 0.96684 0.7139 0.48883 0.0
C59 C 0.98778 0.74059 0.52506 0.0
C60 C 0.93922 0.66198 0.49938 0.0
H61 H 0.99365 0.73833 0.59927 0.0
C62 C 0.98038 0.71553 0.57177 0.0
C63 C 0.94986 0.66516 0.58314 0.0
C64 C 0.93472 0.63672 0.54586 0.0
C65 C 0.90765 0.6368 0.46428 0.0
H66 H 0.91336 0.59668 0.55283 0.0
C67 C 0.92706 0.63678 0.41858 0.0
C68 C 0.89705 0.61145 0.38628 0.0
C69 C 0.85721 0.61236 0.47679 0.0
H70 H 0.84052 0.61303 0.5114 0.0
C71 C 0.82757 0.58697 0.44471 0.0
H72 H 0.96561 0.6557 0.40823 0.0
C73 C 0.8475 0.58603 0.39963 0.0
H74 H 0.82424 0.56621 0.37494 0.0
H75 H 0.78905 0.56807 0.45483 0.0
H76 H 0.91368 0.86387 0.94683 0.0
C77 C 0.93051 0.88454 0.9133 0.0
C78 C 0.977 0.87324 0.89645 0.0
C79 C 0.90365 0.91877 0.88553 0.0
H80 H 1.03229 0.88899 0.83782 0.0
C81 C 0.99723 0.89822 0.8514 0.0
C82 C 0.97096 0.93275 0.82276 0.0
C83 C 0.92429 0.9424 0.84041 0.0
C84 C 0.84965 0.92081 0.89848 0.0
H85 H 0.90287 0.9669 0.81805 0.0
C86 C 0.83403 0.94584 0.93643 0.0
C87 C 0.78189 0.94746 0.94523 0.0
C88 C 0.81268 0.89707 0.87078 0.0
H89 H 0.82341 0.8775 0.84181 0.0
C90 C 0.76169 0.89797 0.87994 0.0
H91 H 0.86192 0.96475 0.958 0.0
C92 C 0.74643 0.92303 0.91663 0.0
H93 H 0.70656 0.92374 0.92259 0.0
H94 H 0.73379 0.87941 0.85819 0.0
H95 H 0.71746 0.21784 0.55902 0.0
C96 C 0.70928 0.21086 0.5235 0.0
C97 C 0.7452 0.19351 0.49549 0.0
C98 C 0.66172 0.21613 0.50628 0.0
H99 H 0.76147 0.16861 0.42888 0.0
C100 C 0.73404 0.18304 0.45013 0.0
C101 C 0.68697 0.18848 0.43275 0.0
C102 C 0.65085 0.20526 0.46076 0.0
C103 C 0.62183 0.22937 0.53656 0.0
H104 H 0.61395 0.20844 0.4476 0.0
C105 C 0.62563 0.28059 0.54949 0.0
C106 C 0.58527 0.29435 0.5747 0.0
C107 C 0.57824 0.19146 0.55023 0.0
H108 H 0.57472 0.15179 0.54033 0.0
C109 C 0.53877 0.20463 0.57648 0.0
H110 H 0.65884 0.31031 0.53832 0.0
C111 C 0.54202 0.25598 0.58842 0.0
H112 H 0.51059 0.26609 0.60776 0.0
H113 H 0.50523 0.17525 0.5869 0.0
H114 H 0.46877 0.74234 0.2597 0.0
C115 C 0.43484 0.73255 0.24099 0.0
C116 C 0.42287 0.77021 0.20521 0.0
C117 C 0.40526 0.68163 0.2507 0.0
H118 H 0.37224 0.78705 0.15086 0.0
C119 C 0.38062 0.75772 0.17897 0.0
C120 C 0.34963 0.70751 0.18808 0.0
C121 C 0.36219 0.66938 0.22417 0.0
C122 C 0.42391 0.64014 0.28405 0.0
H123 H 0.33907 0.63013 0.23088 0.0
C124 C 0.44438 0.65149 0.32733 0.0
C125 C 0.46796 0.61375 0.35517 0.0
C126 C 0.42642 0.59029 0.26994 0.0
H127 H 0.41196 0.58064 0.23683 0.0
C128 C 0.44987 0.55324 0.29712 0.0
H129 H 0.4421 0.68936 0.33924 0.0
C130 C 0.4709 0.56498 0.33898 0.0
H131 H 0.48876 0.53533 0.35944 0.0
H132 H 0.45216 0.51529 0.28544 0.0
H133 H 0.14689 0.50642 0.64416 0.0
C134 C 0.14498 0.46633 0.63545 0.0
C135 C 0.18984 0.44892 0.62391 0.0
C136 C 0.09918 0.43027 0.64259 0.0
H137 H 0.2224 0.38316 0.60391 0.0
C138 C 0.18786 0.39709 0.61287 0.0
C139 C 0.14166 0.36229 0.6154 0.0
C140 C 0.0974 0.37855 0.63097 0.0
C141 C 0.05737 0.44324 0.67132 0.0
H142 H 0.06255 0.35 0.6365 0.0
C143 C 0.06917 0.46672 0.7118 0.0
C144 C 1.03142 0.47462 0.74315 0.0
C145 C 1.0064 0.42859 0.6619 0.0
H146 H 0.99616 0.41013 0.63105 0.0
C147 C 0.96826 0.43751 0.69272 0.0
H148 H 0.10813 0.47693 0.72053 0.0
C149 C 0.9806 0.46003 0.73352 0.0
H150 H 0.95083 0.46559 0.75763 0.0
H151 H 0.92904 0.42612 0.68536 0.0
Co152 Co 0.05907 0.06789 0.53417 0.0
C153 C 0.06399 0.96389 0.52534 0.0
Co154 Co 0.12844 0.04428 0.56128 0.0
C155 C 0.96826 0.11386 0.53234 0.0
C156 C 0.98336 0.08295 0.46867 0.0
N157 N 1.00162 0.08956 0.51104 0.0
N158 N 0.9299 0.12221 0.50486 0.0
C159 C 0.93908 0.10298 0.46483 0.0
H160 H 0.97151 0.12439 0.56746 0.0
H161 H 1.00084 0.06414 0.44252 0.0
C162 C 0.12062 0.14783 0.57111 0.0
N163 N 0.18459 0.02119 0.58463 0.0
C164 C 0.18315 0.97369 0.61121 0.0
C165 C 0.23379 0.04382 0.57996 0.0
N166 N 0.22916 0.96567 0.62337 0.0
C167 C 0.26161 0.00932 0.60399 0.0
C168 C 0.14188 0.08894 0.46674 0.0
O169 O 0.07883 0.13501 0.55297 0.0
O170 O 0.15037 0.11405 0.57787 0.0
O171 O 0.1632 0.06627 0.50074 0.0
O172 O 0.09579 0.0941 0.47318 0.0
O173 O 0.10542 0.97459 0.5449 0.0
H174 H 0.24835 0.08252 0.56023 0.0
H175 H 0.14895 0.9452 0.62148 0.0
O176 O 1.03835 1.00057 0.51505 0.0
O177 O 1.02362 0.04139 0.59612 0.0
O178 O 0.09483 0.02214 0.62215 0.0
C179 C 0.04836 0.02293 0.62993 0.0
H180 H 0.91506 0.10291 0.43531 0.0
H181 H 0.30212 0.0155 0.60695 0.0
Co182 Co 0.55834 0.06693 0.07458 0.0
C183 C 0.5414 0.97745 0.14445 0.0
Co184 Co 0.60048 0.07532 0.13833 0.0
C185 C 0.52869 0.04617 0.98013 0.0
C186 C 0.47032 0.02591 1.03478 0.0
N187 N 0.51718 0.05374 1.02472 0.0
N188 N 0.49236 0.01074 0.96364 0.0
C189 C 0.45625 0.99816 0.99892 0.0
H190 H 0.56427 0.06399 0.96171 0.0
H191 H 0.45055 0.01955 0.0689 0.0
C192 C 0.62043 0.1643 0.06846 0.0
N193 N 0.63889 0.08451 0.18963 0.0
C194 C 0.6365 0.11955 0.22033 0.0
C195 C 0.67135 0.05317 0.20753 0.0
N196 N 0.66575 0.11082 0.25669 0.0
C197 C 0.68784 0.06922 0.24897 0.0
C198 C 0.65161 0.03479 0.06628 0.0
O199 O 0.58833 0.13732 0.04519 0.0
O200 O 0.62812 0.14463 0.10999 0.0
O201 O 0.65506 0.04796 0.10747 0.0
O202 O 0.61145 0.03954 0.04508 0.0
O203 O 0.57228 0.00516 0.16758 0.0
H204 H 0.68043 0.01909 0.19274 0.0
H205 H 0.61191 0.1491 0.21755 0.0
O206 O 0.53122 0.99693 0.10394 0.0
O207 O 0.50391 0.09433 0.10545 0.0
O208 O 0.54637 0.10316 0.16766 0.0
C209 C 0.50597 0.10736 0.14672 0.0
H210 H 0.42337 0.9672 1.00094 0.0
H211 H 0.712 0.05027 0.27282 0.0
Co212 Co 0.61851 0.61629 0.61264 0.0
C213 C 0.55074 0.62153 0.54067 0.0
Co214 Co 0.53884 0.59212 0.63835 0.0
C215 C 0.72468 0.62083 0.61939 0.0
C216 C 0.70922 0.67046 0.55749 0.0
N217 N 0.68643 0.63594 0.5944 0.0
N218 N 0.77011 0.6446 0.59998 0.0
C219 C 0.76088 0.67592 0.56089 0.0
H220 H 0.71981 0.5938 0.65202 0.0
H221 H 0.68963 0.69172 0.53087 0.0
C222 C 0.6037 0.58521 0.71004 0.0
N223 N 0.47197 0.56871 0.65929 0.0
C224 C 0.4288 0.57755 0.63913 0.0
C225 C 0.45727 0.52796 0.69437 0.0
N226 N 0.38847 0.5428 0.65967 0.0
C227 C 0.4062 0.5122 0.69472 0.0
C228 C 0.58373 0.5095 0.61266 0.0
O229 O 0.63675 0.60362 0.67708 0.0
O230 O 0.55797 0.57587 0.70041 0.0
O231 O 0.54255 0.5215 0.62698 0.0
O232 O 0.62279 0.54515 0.60501 0.0
O233 O 0.5193 0.60852 0.57584 0.0
H234 H 0.48237 0.50774 0.71605 0.0
H235 H 0.42733 0.60565 0.60782 0.0
O236 O 0.59797 0.62834 0.54787 0.0
O237 O 0.61499 0.68763 0.62099 0.0
O238 O 0.53671 0.66294 0.65019 0.0
C239 C 0.57612 0.69859 0.64119 0.0
H240 H 0.78942 0.7023 0.53762 0.0
H241 H 0.38404 0.47847 0.71695 0.0
Co242 Co 0.10591 0.60883 1.02225 0.0
C243 C 1.00156 0.56491 1.03769 0.0
Co244 Co 0.06893 0.62595 0.08599 0.0
C245 C 0.10959 0.55502 0.94176 0.0
C246 C 0.1647 0.62631 0.93473 0.0
N247 N 0.13169 0.59323 0.96612 0.0
N248 N 0.12556 0.5643 0.89629 0.0
C249 C 0.16087 0.60863 0.89155 0.0
H250 H 0.07852 0.52387 0.95551 0.0
H251 H 0.18586 0.66397 0.94137 0.0
C252 C 0.17402 0.66388 0.07527 0.0
N253 N 0.04298 0.64378 0.14013 0.0
C254 C 1.01071 0.61413 0.17399 0.0
C255 C 0.05414 0.6923 0.15417 0.0
N256 N 1.00193 0.64248 0.20861 0.0
C257 C 1.0289 0.69157 0.19639 0.0
C258 C 0.1127 0.5331 0.09967 0.0
O259 O 0.17099 0.64808 1.03509 0.0
O260 O 0.13363 0.66082 0.10013 0.0
O261 O 0.08501 0.5605 0.1196 0.0
O262 O 0.12509 0.54649 0.0561 0.0
O263 O 1.00428 0.58952 0.07324 0.0
H264 H 0.07919 0.72607 0.13489 0.0
H265 H 0.9943 0.57279 0.17351 0.0
O266 O 1.04132 0.568 1.01192 0.0
O267 O 0.0862 0.67228 0.98755 0.0
O268 O 0.05281 0.6914 0.05189 0.0
C269 C 0.06272 0.70286 1.00786 0.0
H270 H 0.17866 0.62951 0.85851 0.0
H271 H 1.03006 0.72433 0.21667 0.0
C272 C 0.24968 0.16428 0.3791 0.0
C273 C 0.23049 0.15369 0.3352 0.0
C274 C 0.15481 0.09707 0.37744 0.0
C275 C 0.17191 0.11157 0.42108 0.0
N276 N 0.23248 0.16674 0.46194 0.0
N277 N 0.16197 0.11513 0.29201 0.0
C278 C 0.21867 0.14703 0.42148 0.0
C279 C 0.18216 0.12159 0.33428 0.0
N280 N 0.29806 0.19052 0.38045 0.0
N281 N 0.11379 0.05781 0.37729 0.0
H282 H 0.18157 0.13063 0.25999 0.0
H283 H 0.12472 0.09765 0.2886 0.0
H284 H 0.09357 0.03817 0.40789 0.0
H285 H 0.10244 0.04127 0.34741 0.0
H286 H 0.31668 0.19365 0.41142 0.0
H287 H 0.32123 0.20568 0.35036 0.0
H288 H 0.26271 0.19746 0.46333 0.0
H289 H 0.21113 0.15622 0.4936 0.0
C290 C 0.44488 0.9132 0.88536 0.0
C291 C 0.48482 0.91422 0.85143 0.0
C292 C 0.53565 0.97735 0.89551 0.0
C293 C 0.4916 0.98433 0.92158 0.0
N294 N 0.40054 0.97499 0.91694 0.0
N295 N 0.5628 0.96964 0.81645 0.0
C296 C 0.44481 0.95799 0.90828 0.0
C297 C 0.52896 0.95312 0.85373 0.0
N298 N 0.40984 0.86875 0.89973 0.0
N299 N 0.58289 0.98819 0.91135 0.0
H300 H 0.55505 0.96013 0.78301 0.0
H301 H 0.59428 0.99913 0.81778 0.0
H302 H 0.58933 0.99352 0.94596 0.0
H303 H 0.61455 0.98182 0.8924 0.0
H304 H 0.38157 0.86854 0.92552 0.0
H305 H 0.41348 0.83136 0.89097 0.0
H306 H 0.36629 0.95537 0.90672 0.0
H307 H 0.39958 0.01149 0.92888 0.0
C308 C 0.64253 0.5171 0.82513 0.0
C309 C 0.634 0.55381 0.85632 0.0
C310 C 0.60297 0.60944 0.79165 0.0
C311 C 0.61735 0.57644 0.75958 0.0
N312 N 0.66024 0.50431 0.74474 0.0
N313 N 0.61967 0.64238 0.86543 0.0
C314 C 0.64082 0.53241 0.77591 0.0
C315 C 0.61851 0.60241 0.83832 0.0
N316 N 0.6482 0.46626 0.84225 0.0
N317 N 0.57315 0.64641 0.77833 0.0
H318 H 0.63392 0.64 0.89882 0.0
H319 H 0.61155 0.67983 0.8529 0.0
H320 H 0.5608 0.6532 0.74448 0.0
H321 H 0.55697 0.66679 0.80218 0.0
H322 H 0.64969 0.43676 0.82089 0.0
H323 H 0.64556 0.4516 0.87794 0.0
H324 H 0.68188 0.47498 0.75485 0.0
H325 H 0.65843 0.51338 0.70848 0.0
C326 C 0.95702 0.58196 0.33147 0.0
C327 C 0.91816 0.61187 0.33824 0.0
C328 C 0.92581 0.64798 0.25495 0.0
C329 C 0.96988 0.62549 0.25029 0.0
N330 N 1.03043 0.57409 0.28364 0.0
N331 N 0.86724 0.6766 0.30762 0.0
C332 C 0.98598 0.59255 0.28824 0.0
C333 C 0.90237 0.64526 0.30015 0.0
N334 N 0.96586 0.54337 0.36626 0.0
N335 N 0.90679 0.672 0.2158 0.0
H336 H 0.84938 0.67616 0.34037 0.0
H337 H 0.85842 0.70594 0.28212 0.0
H338 H 0.92366 0.67404 0.18231 0.0
H339 H 0.87219 0.68521 0.21593 0.0
H340 H 0.99061 0.51698 0.36183 0.0
H341 H 0.94494 0.53453 0.39831 0.0
H342 H 0.04717 0.55483 0.31163 0.0
H343 H 0.0525 0.58132 0.25231 0.0
C344 C 0.37868 0.15653 0.16259 0.0
C345 C 0.37388 0.15876 0.21159 0.0
C346 C 0.45267 0.12094 0.22003 0.0
C347 C 0.46141 0.12647 0.16993 0.0
N348 N 0.43739 0.16891 0.09543 0.0
N349 N 0.41566 0.15583 0.28473 0.0
C350 C 0.42563 0.14957 0.1417 0.0
C351 C 0.41353 0.14458 0.23969 0.0
N352 N 0.33825 0.16059 0.1356 0.0
N353 N 0.47975 0.09171 0.24967 0.0
H354 H 0.38943 0.17493 0.30005 0.0
H355 H 0.44663 0.15157 0.30496 0.0
H356 H 0.50726 0.07129 0.23889 0.0
H357 H 0.47065 0.08259 0.28564 0.0
H358 H 0.33869 0.15474 0.10042 0.0
H359 H 0.30283 0.16377 0.14969 0.0
H360 H 0.41371 0.18937 0.07468 0.0
H361 H 0.47335 0.17203 0.0797 0.0
C362 C 0.23781 0.86357 0.72731 0.0
C363 C 0.26251 0.82783 0.70561 0.0
C364 C 0.25733 0.87904 0.62852 0.0
C365 C 0.24007 0.91884 0.65108 0.0
N366 N 0.21419 0.95143 0.72082 0.0
N367 N 0.29658 0.80006 0.63628 0.0
C368 C 0.22973 0.91146 0.70023 0.0
C369 C 0.27175 0.83462 0.65621 0.0
N370 N 0.22275 0.85153 0.77385 0.0
N371 N 0.25905 0.88371 0.58062 0.0
H372 H 0.30568 0.76578 0.65541 0.0
H373 H 0.31005 0.80642 0.60132 0.0
H374 H 0.24917 0.91641 0.55969 0.0
H375 H 0.26658 0.85365 0.56183 0.0
H376 H 0.20116 0.87375 0.79134 0.0
H377 H 0.22835 0.81633 0.79411 0.0
H378 H 0.21026 0.951 0.75698 0.0
H379 H 0.20835 0.98706 0.70154 0.0
C380 C 0.87177 0.4777 0.05902 0.0
C381 C 0.85504 0.47694 1.0128 0.0
C382 C 0.93533 0.53262 0.98119 0.0
C383 C 0.95291 0.53153 1.02764 0.0
N384 N 0.94358 0.48675 0.10759 0.0
N385 N 0.87492 0.49248 0.92954 0.0
C386 C 0.9228 0.49922 0.06563 0.0
C387 C 0.88823 0.50081 0.97376 0.0
N388 N 0.83855 0.45976 0.09687 0.0
N389 N 0.96183 0.56581 0.94436 0.0
H390 H 0.84065 0.46965 0.92307 0.0
H391 H 0.89958 0.50375 0.89996 0.0
H392 H 0.99606 0.5904 0.94722 0.0
H393 H 0.9477 0.57264 0.91121 0.0
H394 H 0.84752 0.46504 0.1311 0.0
H395 H 0.80073 0.44391 0.09382 0.0
H396 H 0.92452 0.45949 0.13503 0.0
H397 H 0.98176 0.49827 0.11297 0.0
C398 C 0.89068 0.59926 0.63739 0.0
C399 C 0.92066 0.65031 0.62987 0.0
C400 C 0.84553 0.69029 0.63432 0.0
C401 C 0.81796 0.64315 0.62073 0.0
N402 N 0.81177 0.54854 0.61744 0.0
N403 N 0.92393 0.72951 0.66583 0.0
C404 C 0.83896 0.59539 0.62663 0.0
C405 C 0.89708 0.69121 0.64381 0.0
N406 N 0.91355 0.55593 0.64736 0.0
N407 N 0.82288 0.73359 0.63708 0.0
H408 H 0.96117 0.72759 0.67425 0.0
H409 H 0.90814 0.75935 0.679 0.0
H410 H 0.78424 0.7322 0.63318 0.0
H411 H 0.84267 0.77061 0.64232 0.0
H412 H 0.89378 0.51706 0.65452 0.0
H413 H 0.95246 0.56066 0.65146 0.0
H414 H 0.82704 0.51382 0.61736 0.0
H415 H 0.77466 0.54524 0.60729 0.0
C416 C 0.1707 0.40655 0.12572 0.0
C417 C 0.1945 0.41434 0.16824 0.0
C418 C 0.15974 0.49707 0.16943 0.0
C419 C 0.13496 0.4891 0.12716 0.0
N420 N 0.10528 0.42776 0.0735 0.0
N421 N 0.19778 0.45701 0.2377 0.0
C422 C 0.13669 0.44097 0.10808 0.0
C423 C 0.18373 0.45603 0.19258 0.0
N424 N 0.18252 0.36818 0.10079 0.0
N425 N 0.16471 0.5453 0.18558 0.0
H426 H 0.21542 0.42737 0.25529 0.0
H427 H 0.18713 0.48364 0.2589 0.0
H428 H 0.15087 0.57806 0.169 0.0
H429 H 0.18744 0.5547 0.21299 0.0
H430 H 0.17128 0.36486 0.06683 0.0
H431 H 0.20618 0.3416 0.11302 0.0
H432 H 0.10164 0.39118 0.06091 0.0
H433 H 0.0789 0.4511 0.06099 0.0
C434 C 0.72141 0.28702 0.06181 0.0
C435 C 0.70889 0.32114 1.02262 0.0
C436 C 0.6369 0.25229 1.01128 0.0
C437 C 0.65238 0.2165 0.04796 0.0
N438 N 0.72542 0.19543 0.08976 0.0
N439 N 0.66658 0.3254 0.94952 0.0
C440 C 0.69975 0.23232 0.0675 0.0
C441 C 0.67062 0.3001 0.99372 0.0
N442 N 0.75133 0.3063 0.09526 0.0
N443 N 0.58965 0.24337 0.99474 0.0
H444 H 0.69236 0.35885 0.93463 0.0
H445 H 0.64141 0.30936 0.92618 0.0
H446 H 0.56155 0.21191 1.00877 0.0
H447 H 0.57654 0.27131 0.97057 0.0
H448 H 0.75779 0.28223 0.12591 0.0
H449 H 0.76445 0.34675 0.09534 0.0
H450 H 0.76121 0.20603 0.10219 0.0
H451 H 0.71467 0.15457 0.08936 0.0
C452 C 0.05642 0.82036 0.50126 0.0
C453 C 1.00578 0.79903 0.51679 0.0
C454 C 0.99295 0.88542 0.53715 0.0
C455 C 0.04302 0.908 0.51953 0.0
N456 N 0.11818 0.89985 0.47497 0.0
N457 N 0.9221 0.8139 0.5372 0.0
C458 C 0.07359 0.87629 0.4986 0.0
C459 C 0.97281 0.83264 0.53037 0.0
N460 N 0.08837 0.78701 0.49043 0.0
N461 N 0.96566 0.91244 0.56358 0.0
H462 H 0.90584 0.77513 0.533 0.0
H463 H 0.89566 0.8383 0.54241 0.0
H464 H 0.97904 0.95013 0.5721 0.0
H465 H 0.93162 0.89498 0.58174 0.0
H466 H 0.12716 0.79917 0.48412 0.0
H467 H 0.07637 0.7462 0.49059 0.0
H468 H 0.13992 0.87962 0.45547 0.0
H469 H 0.13104 0.94089 0.47102 0.0
C470 C 0.53326 0.81891 0.67931 0.0
C471 C 0.54752 0.81068 0.72649 0.0
C472 C 0.6062 0.7547 0.70284 0.0
C473 C 0.57889 0.74889 0.66176 0.0
N474 N 0.52228 0.78134 0.60644 0.0
N475 N 0.60356 0.77724 0.78221 0.0
C476 C 0.54499 0.78384 0.64805 0.0
C477 C 0.58701 0.7818 0.73773 0.0
N478 N 0.50627 0.85846 0.6658 0.0
N479 N 0.64869 0.73248 0.70925 0.0
H480 H 0.58961 0.79608 0.80844 0.0
H481 H 0.62983 0.75351 0.79361 0.0
H482 H 0.66367 0.71291 0.68412 0.0
H483 H 0.67189 0.73801 0.7371 0.0
H484 H 0.4969 0.86864 0.63131 0.0
H485 H 0.49748 0.88418 0.68887 0.0
H486 H 0.49281 0.80149 0.59666 0.0
H487 H 0.53234 0.75738 0.5823 0.0
C488 C 1.00246 0.01231 0.7594 0.0
C489 C 0.98996 0.956 0.7728 0.0
C490 C 1.01567 0.94374 0.69224 0.0
C491 C 1.0241 0.99991 0.67788 0.0
N492 N 1.01817 0.08741 0.69638 0.0
N493 N 0.97387 0.86888 0.74805 0.0
C494 C 1.01491 0.03404 0.71105 0.0
C495 C 0.99361 0.92195 0.73807 0.0
N496 N 1.00482 0.0451 0.79328 0.0
N497 N 1.0296 0.91088 0.66238 0.0
H498 H 0.95626 0.8515 0.78049 0.0
H499 H 0.97039 0.84313 0.72281 0.0
H500 H 0.04439 0.9247 0.62826 0.0
H501 H 1.03001 0.87048 0.67261 0.0
H502 H 1.01871 0.08584 0.78678 0.0
H503 H 0.99726 0.03082 0.82888 0.0
H504 H 1.00708 0.11386 0.71747 0.0
H505 H 1.02812 0.10462 0.66173 0.0
C506 C 0.69861 0.20465 0.34503 0.0
C507 C 0.67501 0.17237 0.38626 0.0
C508 C 0.63667 0.1053 0.33917 0.0
C509 C 0.66582 0.13393 0.29939 0.0
N510 N 0.72583 0.20897 0.26304 0.0
N511 N 0.62544 0.08948 0.42392 0.0
C512 C 0.69683 0.18346 0.3018 0.0
C513 C 0.64452 0.12221 0.38371 0.0
N514 N 0.72215 0.25558 0.34737 0.0
N515 N 0.60113 0.06219 0.33395 0.0
H516 H 0.63029 0.10018 0.45739 0.0
H517 H 0.60793 0.05007 0.42443 0.0
H518 H 0.59487 0.04898 0.30155 0.0
H519 H 0.57496 0.0426 0.36062 0.0
H520 H 0.73643 0.28281 0.31804 0.0
H521 H 0.72377 0.27213 0.37862 0.0
H522 H 0.75335 0.24255 0.26332 0.0
H523 H 0.72429 0.1944 0.23086 0.0
C524 C 0.46583 0.58425 0.44204 0.0
C525 C 0.48686 0.62177 0.40294 0.0
C526 C 0.54768 0.66432 0.45511 0.0
C527 C 0.53101 0.62182 0.49218 0.0
N528 N 0.48312 0.53289 0.51411 0.0
N529 N 0.55334 0.69379 0.3709 0.0
C530 C 0.49245 0.57951 0.48378 0.0
C531 C 0.5293 0.66102 0.40907 0.0
N532 N 0.41982 0.55321 0.43957 0.0
N533 N 0.57957 0.70861 0.464 0.0
H534 H 0.54122 0.69249 0.33694 0.0
H535 H 0.58752 0.71919 0.37249 0.0
H536 H 0.59291 0.71291 0.49715 0.0
H537 H 0.58901 0.74294 0.43958 0.0
H538 H 0.40089 0.52834 0.4685 0.0
H539 H 0.39824 0.55677 0.41014 0.0
H540 H 0.45916 0.49908 0.50674 0.0
H541 H 0.50362 0.52562 0.54367 0.0
C542 C 0.04454 0.54875 0.79301 0.0
C543 C 0.0472 0.49528 0.78717 0.0
C544 C 0.10252 0.48819 0.85305 0.0
C545 C 0.09888 0.541 0.85952 0.0
N546 N 0.05543 0.61601 0.84515 0.0
N547 N 0.06803 0.41002 0.81815 0.0
C548 C 0.06649 0.56968 0.83235 0.0
C549 C 0.07277 0.46363 0.81948 0.0
N550 N 1.02321 0.58028 0.75999 0.0
N551 N 0.13572 0.46234 0.87812 0.0
H552 H 0.04565 0.39082 0.7944 0.0
H553 H 0.08221 0.38395 0.84316 0.0
H554 H 0.15785 0.47974 0.90299 0.0
H555 H 0.14416 0.42567 0.87182 0.0
H556 H 1.02551 0.62123 0.7597 0.0
H557 H 1.00615 0.56628 0.73095 0.0
H558 H 1.02811 0.6359 0.82955 0.0
H559 H 0.06993 0.63172 0.8745 0.0
C560 C 0.7425 0.94623 1.0267 0.0
C561 C 0.76186 0.97561 0.98267 0.0
C562 C 0.71632 0.04812 0.99795 0.0
C563 C 0.69485 0.01759 1.04103 0.0
N564 N 0.69763 0.94397 0.10187 0.0
N565 N 0.7769 0.05878 0.93113 0.0
C566 C 0.71153 0.96885 0.0573 0.0
C567 C 0.75193 0.02811 0.97003 0.0
N568 N 0.7518 0.89546 1.03815 0.0
N569 N 0.70195 0.09609 0.9834 0.0
H570 H 0.80299 0.04498 0.91033 0.0
H571 H 0.77521 0.09892 0.92142 0.0
H572 H 0.67994 0.11426 1.00464 0.0
H573 H 0.71048 0.11743 0.95 0.0
H574 H 0.73382 0.86885 0.06645 0.0
H575 H 0.77623 0.87901 1.01773 0.0
H576 H 0.71221 0.91124 0.11761 0.0
H577 H 0.67434 0.9585 0.1248 0.0
C578 C 0.83832 0.21765 0.50019 0.0
C579 C 0.79336 0.1808 0.51371 0.0
C580 C 0.84254 0.11025 0.53701 0.0
C581 C 0.88615 0.14452 0.51578 0.0
N582 N 0.92861 0.2308 0.48054 0.0
N583 N 0.75111 0.09345 0.5481 0.0
C584 C 0.88508 0.19868 0.4992 0.0
C585 C 0.79512 0.12774 0.53423 0.0
N586 N 0.83565 0.2703 0.48756 0.0
N587 N 0.84682 0.06063 0.55868 0.0
H588 H 0.71601 0.10572 0.54802 0.0
H589 H 0.7488 0.05268 0.55839 0.0
H590 H 0.8812 0.04682 0.55983 0.0
H591 H 0.81755 0.03455 0.57816 0.0
H592 H 0.86697 0.30028 0.47974 0.0
H593 H 0.80148 0.28456 0.48832 0.0
H594 H 0.93045 0.26951 0.46356 0.0
H595 H 0.96335 0.21765 0.48099 0.0
C596 C 0.30357 0.65657 0.12753 0.0
C597 C 0.30513 0.69572 0.15825 0.0
C598 C 0.2291 0.72275 0.12329 0.0
C599 C 0.22336 0.6788 0.09751 0.0
N600 N 0.25163 0.59698 0.08333 0.0
N601 N 0.26335 0.75979 0.19109 0.0
C602 C 0.25978 0.64394 0.10158 0.0
C603 C 0.26619 0.72714 0.15762 0.0
N604 N 0.34454 0.63241 0.12177 0.0
N605 N 0.1996 0.76109 0.11428 0.0
H606 H 0.2887 0.76286 0.21771 0.0
H607 H 0.23298 0.77953 0.19532 0.0
H608 H 0.17326 0.76001 0.08839 0.0
H609 H 0.20505 0.79657 0.12875 0.0
H610 H 0.3475 0.60784 0.09611 0.0
H611 H 0.37758 0.6409 0.13938 0.0
H612 H 0.27356 0.56732 0.0909 0.0
H613 H 0.22075 0.58521 0.06406 0.0
C614 C 0.27659 0.49414 0.59213 0.0
C615 C 0.2394 0.48216 0.6297 0.0
C616 C 0.29804 0.53096 0.67835 0.0
C617 C 0.33771 0.53253 0.64476 0.0
N618 N 0.36581 0.50663 0.57197 0.0
N619 N 0.21987 0.47919 0.71304 0.0
C620 C 0.32738 0.51254 0.60177 0.0
C621 C 0.25105 0.49854 0.67402 0.0
N622 N 0.2636 0.48765 0.5475 0.0
N623 N 0.30636 0.55863 0.71548 0.0
H624 H 0.18803 0.44998 0.71305 0.0
H625 H 0.22914 0.48701 0.74662 0.0
H626 H 0.34104 0.58252 0.71905 0.0
H627 H 0.2776 0.56206 0.73944 0.0
H628 H 0.28888 0.49996 0.5184 0.0
H629 H 0.22643 0.47503 0.53923 0.0
H630 H 0.35983 0.4861 0.54319 0.0
H631 H 0.40367 0.51722 0.5785 0.0
C632 C 0.97832 0.77581 0.92556 0.0
C633 C 1.00097 0.83014 0.92387 0.0
C634 C 0.06709 0.80113 0.97461 0.0
C635 C 0.04156 0.7474 0.9796 0.0
N636 N 0.96626 0.68635 0.96816 0.0
N637 N 0.06379 0.89536 0.95145 0.0
C638 C 0.99538 0.73558 0.95728 0.0
C639 C 0.04466 0.84302 0.94964 0.0
N640 N 0.94112 0.76225 0.89587 0.0
N641 N 0.11318 0.81201 0.99317 0.0
H642 H 0.04882 0.92663 0.93321 0.0
H643 H 0.09203 0.90786 0.97343 0.0
H644 H 0.12983 0.7826 1.01229 0.0
H645 H 0.1364 0.84917 0.98699 0.0
H646 H 0.9271 0.72294 0.89167 0.0
H647 H 0.92762 0.79027 0.87206 0.0
H648 H 0.92992 0.6767 0.9568 0.0
H649 H 0.97629 0.6569 0.99277 0.0
C650 C 0.44866 0.86579 0.21612 0.0
C651 C 0.45668 0.82225 0.19303 0.0
C652 C 0.52671 0.87888 0.14447 0.0
C653 C 0.51533 0.92352 0.1643 0.0
N654 N 0.46087 0.96169 0.21335 0.0
N655 N 0.5006 0.78634 0.1337 0.0
C656 C 0.47542 0.91755 0.19903 0.0
C657 C 0.49521 0.82842 0.15693 0.0
N658 N 0.41542 0.85758 0.25435 0.0
N659 N 0.56802 0.88483 0.1141 0.0
H660 H 0.47964 0.74821 0.14316 0.0
H661 H 0.52372 0.78958 0.10344 0.0
H662 H 0.59087 0.9216 0.10315 0.0
H663 H 0.58185 0.85318 0.10217 0.0
H664 H 0.41202 0.8865 0.27586 0.0
H665 H 0.39386 0.82045 0.26687 0.0
H666 H 0.42857 0.96055 0.23459 0.0
H667 H 0.47875 1.00025 0.20058 0.0
C668 C 0.13451 0.298 0.55693 0.0
C669 C 0.14029 0.3075 0.60399 0.0
C670 C 0.13826 0.21208 0.62968 0.0
C671 C 0.13393 0.2028 0.58232 0.0
N672 N 0.13803 0.23722 0.49983 0.0
N673 N 0.15681 0.27659 0.68394 0.0
C674 C 0.13515 0.24596 0.54562 0.0
C675 C 0.14515 0.26541 0.64001 0.0
N676 N 0.12681 0.33844 0.52331 0.0
N677 N 0.13293 0.16993 0.66497 0.0
H678 H 0.16064 0.31498 0.69309 0.0
H679 H 0.16635 0.24868 0.71034 0.0
H680 H 0.12857 0.13034 0.6589 0.0
H681 H 0.12934 0.17376 0.70042 0.0
H682 H 0.11621 0.33275 0.48961 0.0
H683 H 0.12753 0.37753 0.52995 0.0
H684 H 0.14463 0.26761 0.47144 0.0
H685 H 0.13823 0.19957 0.49014 0.0
C686 C 0.58387 0.39095 0.54684 0.0
C687 C 0.58682 0.34992 0.58443 0.0
C688 C 0.58408 0.413 0.64096 0.0
C689 C 0.58565 0.4548 0.60308 0.0
N690 N 0.59537 0.48573 0.51972 0.0
N691 N 0.59896 0.32319 0.66627 0.0
C692 C 0.58838 0.44448 0.55592 0.0
C693 C 0.58951 0.36129 0.6313 0.0
N694 N 0.5742 0.37849 0.50287 0.0
N695 N 0.57686 0.42253 0.6861 0.0
H696 H 0.6037 0.28505 0.66034 0.0
H697 H 0.60659 0.3307 0.70024 0.0
H698 H 0.57406 0.46018 0.69468 0.0
H699 H 0.56994 0.39251 0.71479 0.0
H700 H 0.56592 0.40588 0.47535 0.0
H701 H 0.56978 0.33966 0.49477 0.0
H702 H 0.60343 0.48102 0.48504 0.0
H703 H 0.59694 0.52544 0.52458 0.0
loop_
_geom_bond_atom_site_label_1
_geom_bond_atom_site_label_2
_geom_bond_distance
_geom_bond_site_symmetry_2
_ccdc_geom_bond_type
H0 C1 0.949 . S
C1 H0 0.949 . S
C1 C2 1.395 . S
C1 C3 1.391 . S
C2 C1 1.395 . S
C2 C5 1.390 . S
C3 C1 1.391 . S
C3 C7 1.387 . S
C3 C8 1.491 . S
H4 C5 0.950 . S
C5 C2 1.390 . S
C5 H4 0.950 . S
C5 C6 1.378 . S
C6 C5 1.378 . S
C6 C7 1.409 . S
C7 C3 1.387 . S
C7 C6 1.409 . S
C7 H9 0.951 . S
C8 C3 1.491 . S
C8 C10 1.382 . S
C8 C12 1.404 . S
H9 C7 0.951 . S
C10 C8 1.382 . S
C10 C11 1.390 . S
C10 H15 0.949 . S
C11 C10 1.390 . S
C11 C16 1.399 . S
C12 C8 1.404 . S
C12 H13 0.950 . S
C12 C14 1.375 . S
H13 C12 0.950 . S
C14 C12 1.375 . S
C14 C16 1.382 . S
C14 H18 0.950 . S
H15 C10 0.949 . S
C16 C11 1.399 . S
C16 C14 1.382 . S
C16 H17 0.952 . S
H17 C16 0.952 . S
H18 C14 0.950 . S
H19 C20 0.949 . S
C20 H19 0.949 . S
C20 C21 1.395 . S
C20 C22 1.391 . S
C21 C20 1.395 . S
C21 C24 1.390 . S
C22 C20 1.391 . S
C22 C26 1.387 . S
C22 C27 1.491 . S
H23 C24 0.950 . S
C24 C21 1.390 . S
C24 H23 0.950 . S
C24 C25 1.378 . S
C25 C24 1.378 . S
C25 C26 1.409 . S
C26 C22 1.387 . S
C26 C25 1.409 . S
C26 H28 0.951 . S
C27 C22 1.491 . S
C27 C29 1.382 . S
C27 C31 1.404 . S
H28 C26 0.951 . S
C29 C27 1.382 . S
C29 C30 1.390 . S
C29 H34 0.949 . S
C30 C29 1.390 . S
C30 C35 1.399 . S
C31 C27 1.404 . S
C31 H32 0.950 . S
C31 C33 1.375 . S
H32 C31 0.950 . S
C33 C31 1.375 . S
C33 C35 1.382 . S
C33 H37 0.950 . S
H34 C29 0.949 . S
C35 C30 1.399 . S
C35 C33 1.382 . S
C35 H36 0.952 . S
H36 C35 0.952 . S
H37 C33 0.950 . S
H38 C39 0.949 . S
C39 H38 0.949 . S
C39 C40 1.395 . S
C39 C41 1.391 . S
C40 C39 1.395 . S
C40 C43 1.390 . S
C41 C39 1.391 . S
C41 C45 1.387 . S
C41 C46 1.491 . S
H42 C43 0.950 1_554 S
C43 C40 1.390 . S
C43 H42 0.950 1_556 S
C43 C44 1.378 . S
C44 C43 1.378 . S
C44 C45 1.409 . S
C45 C41 1.387 . S
C45 C44 1.409 . S
C45 H47 0.951 . S
C46 C41 1.491 . S
C46 C48 1.382 . S
C46 C50 1.404 . S
H47 C45 0.951 . S
C48 C46 1.382 . S
C48 C49 1.390 . S
C48 H53 0.949 . S
C49 C48 1.390 . S
C49 C54 1.399 . S
C50 C46 1.404 . S
C50 H51 0.950 . S
C50 C52 1.375 . S
H51 C50 0.950 . S
C52 C50 1.375 . S
C52 C54 1.382 . S
C52 H56 0.950 . S
H53 C48 0.949 . S
C54 C49 1.399 . S
C54 C52 1.382 . S
C54 H55 0.952 . S
H55 C54 0.952 . S
H56 C52 0.950 . S
H57 C58 0.949 . S
C58 H57 0.949 . S
C58 C59 1.395 . S
C58 C60 1.391 . S
C59 C58 1.395 . S
C59 C62 1.390 . S
C60 C58 1.391 . S
C60 C64 1.387 . S
C60 C65 1.491 . S
H61 C62 0.950 . S
C62 C59 1.390 . S
C62 H61 0.950 . S
C62 C63 1.378 . S
C63 C62 1.378 . S
C63 C64 1.409 . S
C64 C60 1.387 . S
C64 C63 1.409 . S
C64 H66 0.951 . S
C65 C60 1.491 . S
C65 C67 1.382 . S
C65 C69 1.404 . S
H66 C64 0.951 . S
C67 C65 1.382 . S
C67 C68 1.390 . S
C67 H72 0.949 1_655 S
C68 C67 1.390 . S
C68 C73 1.399 . S
C69 C65 1.404 . S
C69 H70 0.950 . S
C69 C71 1.375 . S
H70 C69 0.950 . S
C71 C69 1.375 . S
C71 C73 1.382 . S
C71 H75 0.950 . S
H72 C67 0.949 1_455 S
C73 C68 1.399 . S
C73 C71 1.382 . S
C73 H74 0.952 . S
H74 C73 0.952 . S
H75 C71 0.950 . S
H76 C77 0.949 . S
C77 H76 0.949 . S
C77 C78 1.395 . S
C77 C79 1.391 . S
C78 C77 1.395 . S
C78 C81 1.390 . S
C79 C77 1.391 . S
C79 C83 1.387 . S
C79 C84 1.491 . S
H80 C81 0.950 1_455 S
C81 C78 1.390 . S
C81 H80 0.950 1_655 S
C81 C82 1.378 . S
C82 C81 1.378 . S
C82 C83 1.409 . S
C83 C79 1.387 . S
C83 C82 1.409 . S
C83 H85 0.951 . S
C84 C79 1.491 . S
C84 C86 1.382 . S
C84 C88 1.404 . S
H85 C83 0.951 . S
C86 C84 1.382 . S
C86 C87 1.390 . S
C86 H91 0.949 . S
C87 C86 1.390 . S
C87 C92 1.399 . S
C88 C84 1.404 . S
C88 H89 0.950 . S
C88 C90 1.375 . S
H89 C88 0.950 . S
C90 C88 1.375 . S
C90 C92 1.382 . S
C90 H94 0.950 . S
H91 C86 0.949 . S
C92 C87 1.399 . S
C92 C90 1.382 . S
C92 H93 0.952 1_565 S
H93 C92 0.952 1_545 S
H94 C90 0.950 . S
H95 C96 0.949 . S
C96 H95 0.949 . S
C96 C97 1.395 . S
C96 C98 1.391 . S
C97 C96 1.395 . S
C97 C100 1.390 . S
C98 C96 1.391 . S
C98 C102 1.387 . S
C98 C103 1.491 . S
H99 C100 0.950 . S
C100 C97 1.390 . S
C100 H99 0.950 . S
C100 C101 1.378 . S
C101 C100 1.378 . S
C101 C102 1.409 . S
C102 C98 1.387 . S
C102 C101 1.409 . S
C102 H104 0.951 . S
C103 C98 1.491 . S
C103 C105 1.382 . S
C103 C107 1.404 . S
H104 C102 0.951 . S
C105 C103 1.382 . S
C105 C106 1.390 . S
C105 H110 0.949 . S
C106 C105 1.390 . S
C106 C111 1.399 . S
C107 C103 1.404 . S
C107 H108 0.950 . S
C107 C109 1.375 . S
H108 C107 0.950 . S
C109 C107 1.375 . S
C109 C111 1.382 . S
C109 H113 0.950 . S
H110 C105 0.949 . S
C111 C106 1.399 . S
C111 C109 1.382 . S
C111 H112 0.952 . S
H112 C111 0.952 . S
H113 C109 0.950 . S
H114 C115 0.949 . S
C115 H114 0.949 . S
C115 C116 1.395 . S
C115 C117 1.391 . S
C116 C115 1.395 . S
C116 C119 1.390 . S
C117 C115 1.391 . S
C117 C121 1.387 . S
C117 C122 1.491 . S
H118 C119 0.950 . S
C119 C116 1.390 . S
C119 H118 0.950 . S
C119 C120 1.378 . S
C120 C119 1.378 . S
C120 C121 1.409 . S
C121 C117 1.387 . S
C121 C120 1.409 . S
C121 H123 0.951 . S
C122 C117 1.491 . S
C122 C124 1.382 . S
C122 C126 1.404 . S
H123 C121 0.951 . S
C124 C122 1.382 . S
C124 C125 1.390 . S
C124 H129 0.949 . S
C125 C124 1.390 . S
C125 C130 1.399 . S
C126 C122 1.404 . S
C126 H127 0.950 . S
C126 C128 1.375 . S
H127 C126 0.950 . S
C128 C126 1.375 . S
C128 C130 1.382 . S
C128 H132 0.950 . S
H129 C124 0.949 . S
C130 C125 1.399 . S
C130 C128 1.382 . S
C130 H131 0.952 . S
H131 C130 0.952 . S
H132 C128 0.950 . S
H133 C134 0.949 . S
C134 H133 0.949 . S
C134 C135 1.395 . S
C134 C136 1.391 . S
C135 C134 1.395 . S
C135 C138 1.390 . S
C136 C134 1.391 . S
C136 C140 1.387 . S
C136 C141 1.491 . S
H137 C138 0.950 . S
C138 C135 1.390 . S
C138 H137 0.950 . S
C138 C139 1.378 . S
C139 C138 1.378 . S
C139 C140 1.409 . S
C140 C136 1.387 . S
C140 C139 1.409 . S
C140 H142 0.951 . S
C141 C136 1.491 . S
C141 C143 1.382 . S
C141 C145 1.404 . S
H142 C140 0.951 . S
C143 C141 1.382 . S
C143 C144 1.390 . S
C143 H148 0.949 . S
C144 C143 1.390 . S
C144 C149 1.399 . S
C145 C141 1.404 . S
C145 H146 0.950 . S
C145 C147 1.375 . S
H146 C145 0.950 . S
C147 C145 1.375 . S
C147 C149 1.382 . S
C147 H151 0.950 . S
H148 C143 0.949 . S
C149 C144 1.399 . S
C149 C147 1.382 . S
C149 H150 0.952 . S
H150 C149 0.952 . S
H151 C147 0.950 . S
Co152 N157 2.057 . S
Co152 O169 2.024 . S
Co152 O172 2.059 1_655 S
Co152 O176 2.117 1_545 S
Co152 O177 2.020 . S
C153 O173 1.259 1_655 S
C153 O176 1.258 . S
Co154 N163 2.057 . S
Co154 O170 2.117 . S
Co154 O171 2.020 . S
Co154 O173 2.021 1_545 S
Co154 O178 2.062 . S
C155 N157 1.316 . S
C155 N158 1.347 . S
C155 H160 0.931 . S
C156 N157 1.375 . S
C156 C159 1.350 . S
C156 H161 0.930 1_545 S
N157 Co152 2.057 . S
N157 C155 1.316 . S
N157 C156 1.375 . S
N158 C155 1.347 . S
N158 C159 1.373 . S
C159 C156 1.350 . S
C159 N158 1.373 . S
C159 H180 0.931 . S
H160 C155 0.931 . S
H161 C156 0.930 1_565 S
C162 O169 1.241 1_455 S
C162 O170 1.258 . S
N163 Co154 2.057 . S
N163 C164 1.316 1_545 S
N163 C165 1.375 . S
C164 N163 1.316 1_565 S
C164 N166 1.347 1_565 S
C164 H175 0.931 . S
C165 N163 1.375 . S
C165 C167 1.350 . S
C165 H174 0.930 . S
N166 C164 1.347 1_545 S
N166 C167 1.373 . S
C167 C165 1.350 . S
C167 N166 1.373 . S
C167 H181 0.931 . S
C168 O171 1.256 . S
C168 O172 1.262 . S
O169 Co152 2.024 . S
O169 C162 1.241 1_655 S
O170 Co154 2.117 . S
O170 C162 1.258 . S
O171 Co154 2.020 . S
O171 C168 1.256 . S
O172 Co152 2.059 1_455 S
O172 C168 1.262 . S
O173 C153 1.259 1_455 S
O173 Co154 2.021 1_565 S
H174 C165 0.930 . S
H175 C164 0.931 . S
O176 Co152 2.117 1_565 S
O176 C153 1.258 . S
O177 Co152 2.020 . S
O177 C179 1.256 . S
O178 Co154 2.062 . S
O178 C179 1.255 1_455 S
C179 O177 1.256 . S
C179 O178 1.255 1_655 S
H180 C159 0.931 . S
H181 C167 0.931 . S
Co182 N187 2.057 1_544 S
Co182 O199 2.021 . S
Co182 O202 2.062 . S
Co182 O206 2.117 1_545 S
Co182 O207 2.020 . S
C183 O203 1.259 . S
C183 O206 1.258 . S
Co184 N193 2.057 . S
Co184 O200 2.117 . S
Co184 O201 2.020 . S
Co184 O203 2.021 1_545 S
Co184 O208 2.062 . S
C185 N187 1.316 1_545 S
C185 N188 1.347 1_545 S
C185 H190 0.931 . S
C186 N187 1.375 . S
C186 C189 1.350 . S
C186 H191 0.930 . S
N187 Co182 2.057 1_566 S
N187 C185 1.316 1_565 S
N187 C186 1.375 . S
N188 C185 1.347 1_565 S
N188 C189 1.373 . S
C189 C186 1.350 . S
C189 N188 1.373 . S
C189 H210 0.931 . S
H190 C185 0.931 . S
H191 C186 0.930 . S
C192 O199 1.259 . S
C192 O200 1.258 . S
N193 Co184 2.057 . S
N193 C194 1.316 . S
N193 C195 1.375 . S
C194 N193 1.316 . S
C194 N196 1.347 . S
C194 H205 0.931 . S
C195 N193 1.375 . S
C195 C197 1.350 . S
C195 H204 0.930 . S
N196 C194 1.347 . S
N196 C197 1.373 . S
C197 C195 1.350 . S
C197 N196 1.373 . S
C197 H211 0.931 . S
C198 O201 1.256 . S
C198 O202 1.255 . S
O199 Co182 2.021 . S
O199 C192 1.259 . S
O200 Co184 2.117 . S
O200 C192 1.258 . S
O201 Co184 2.020 . S
O201 C198 1.256 . S
O202 Co182 2.062 . S
O202 C198 1.255 . S
O203 C183 1.259 . S
O203 Co184 2.021 1_565 S
H204 C195 0.930 . S
H205 C194 0.931 . S
O206 Co182 2.117 1_565 S
O206 C183 1.258 . S
O207 Co182 2.020 . S
O207 C209 1.256 . S
O208 Co184 2.062 . S
O208 C209 1.255 . S
C209 O207 1.256 . S
C209 O208 1.255 . S
H210 C189 0.931 . S
H211 C197 0.931 . S
Co212 N217 2.057 . S
Co212 O229 2.021 . S
Co212 O232 2.062 . S
Co212 O236 2.117 . S
Co212 O237 2.020 . S
C213 O233 1.259 . S
C213 O236 1.258 . S
Co214 N223 2.057 . S
Co214 O230 2.117 . S
Co214 O231 2.020 . S
Co214 O233 2.021 . S
Co214 O238 2.062 . S
C215 N217 1.316 . S
C215 N218 1.347 . S
C215 H220 0.931 . S
C216 N217 1.375 . S
C216 C219 1.350 . S
C216 H221 0.930 . S
N217 Co212 2.057 . S
N217 C215 1.316 . S
N217 C216 1.375 . S
N218 C215 1.347 . S
N218 C219 1.373 . S
C219 C216 1.350 . S
C219 N218 1.373 . S
C219 H240 0.931 . S
H220 C215 0.931 . S
H221 C216 0.930 . S
C222 O229 1.259 . S
C222 O230 1.258 . S
N223 Co214 2.057 . S
N223 C224 1.316 . S
N223 C225 1.375 . S
C224 N223 1.316 . S
C224 N226 1.347 . S
C224 H235 0.931 . S
C225 N223 1.375 . S
C225 C227 1.350 . S
C225 H234 0.930 . S
N226 C224 1.347 . S
N226 C227 1.373 . S
C227 C225 1.350 . S
C227 N226 1.373 . S
C227 H241 0.931 . S
C228 O231 1.256 . S
C228 O232 1.255 . S
O229 Co212 2.021 . S
O229 C222 1.259 . S
O230 Co214 2.117 . S
O230 C222 1.258 . S
O231 Co214 2.020 . S
O231 C228 1.256 . S
O232 Co212 2.062 . S
O232 C228 1.255 . S
O233 C213 1.259 . S
O233 Co214 2.021 . S
H234 C225 0.930 . S
H235 C224 0.931 . S
O236 Co212 2.117 . S
O236 C213 1.258 . S
O237 Co212 2.020 . S
O237 C239 1.256 . S
O238 Co214 2.062 . S
O238 C239 1.255 . S
C239 O237 1.256 . S
C239 O238 1.255 . S
H240 C219 0.931 . S
H241 C227 0.931 . S
Co242 N247 2.057 . S
Co242 O259 2.023 . S
Co242 O262 2.062 1_556 S
Co242 O266 2.117 1_455 S
Co242 O267 2.020 . S
C243 O263 1.259 . S
C243 O266 1.258 1_554 S
Co244 N253 2.057 . S
Co244 O260 2.117 . S
Co244 O261 2.020 . S
Co244 O263 2.021 1_455 S
Co244 O268 2.062 . S
C245 N247 1.316 . S
C245 N248 1.347 . S
C245 H250 0.931 . S
C246 N247 1.375 . S
C246 C249 1.350 . S
C246 H251 0.930 1_455 S
N247 Co242 2.057 . S
N247 C245 1.316 . S
N247 C246 1.375 . S
N248 C245 1.347 . S
N248 C249 1.373 . S
C249 C246 1.350 . S
C249 N248 1.373 . S
C249 H270 0.931 . S
H250 C245 0.931 . S
H251 C246 0.930 1_655 S
C252 O259 1.252 1_554 S
C252 O260 1.258 . S
N253 Co244 2.057 . S
N253 C254 1.316 1_455 S
N253 C255 1.375 . S
C254 N253 1.316 1_655 S
C254 N256 1.347 . S
C254 H265 0.931 . S
C255 N253 1.375 . S
C255 C257 1.350 . S
C255 H264 0.930 . S
N256 C254 1.347 . S
N256 C257 1.373 1_655 S
C257 C255 1.350 . S
C257 N256 1.373 1_455 S
C257 H271 0.931 . S
C258 O261 1.256 . S
C258 O262 1.255 . S
O259 Co242 2.023 . S
O259 C252 1.252 1_556 S
O260 Co244 2.117 . S
O260 C252 1.258 . S
O261 Co244 2.020 . S
O261 C258 1.256 . S
O262 Co242 2.062 1_554 S
O262 C258 1.255 . S
O263 C243 1.259 . S
O263 Co244 2.021 1_655 S
H264 C255 0.930 . S
H265 C254 0.931 . S
O266 Co242 2.117 1_655 S
O266 C243 1.258 1_556 S
O267 Co242 2.020 . S
O267 C269 1.276 . S
O268 Co244 2.062 . S
O268 C269 1.230 1_554 S
C269 O267 1.276 . S
C269 O268 1.230 1_556 S
H270 C249 0.931 . S
H271 C257 0.931 . S
C272 C273 1.363 . S
C272 C278 1.379 . S
C272 N280 1.356 . S
C273 C272 1.363 . S
C273 C279 1.363 . S
C274 C275 1.363 . S
C274 C279 1.379 . S
C274 N281 1.356 . S
C275 C274 1.363 . S
C275 C278 1.363 . S
N276 C278 1.356 . S
N276 H288 0.984 . S
N276 H289 0.985 . S
N277 C279 1.356 . S
N277 H282 0.984 . S
N277 H283 0.985 . S
C278 C272 1.379 . S
C278 C275 1.363 . S
C278 N276 1.356 . S
C279 C273 1.363 . S
C279 C274 1.379 . S
C279 N277 1.356 . S
N280 C272 1.356 . S
N280 H286 0.984 . S
N280 H287 0.984 . S
N281 C274 1.356 . S
N281 H284 0.985 . S
N281 H285 0.985 1_455 S
H282 N277 0.984 . S
H283 N277 0.985 . S
H284 N281 0.985 . S
H285 N281 0.985 1_655 S
H286 N280 0.984 . S
H287 N280 0.984 . S
H288 N276 0.984 . S
H289 N276 0.985 . S
C290 C291 1.363 . S
C290 C296 1.379 . S
C290 N298 1.356 . S
C291 C290 1.363 . S
C291 C297 1.363 . S
C292 C293 1.363 1_545 S
C292 C297 1.379 1_545 S
C292 N299 1.356 . S
C293 C292 1.363 1_565 S
C293 C296 1.363 . S
N294 C296 1.356 . S
N294 H306 0.984 . S
N294 H307 0.985 . S
N295 C297 1.356 1_545 S
N295 H300 0.984 . S
N295 H301 0.985 . S
C296 C290 1.379 . S
C296 C293 1.363 . S
C296 N294 1.356 . S
C297 C291 1.363 . S
C297 C292 1.379 1_565 S
C297 N295 1.356 1_565 S
N298 C290 1.356 . S
N298 H304 0.984 . S
N298 H305 0.984 . S
N299 C292 1.356 . S
N299 H302 0.984 . S
N299 H303 0.985 . S
H300 N295 0.984 . S
H301 N295 0.985 . S
H302 N299 0.984 . S
H303 N299 0.985 . S
H304 N298 0.984 . S
H305 N298 0.984 . S
H306 N294 0.984 . S
H307 N294 0.985 . S
C308 C309 1.363 . S
C308 C314 1.379 . S
C308 N316 1.356 . S
C309 C308 1.363 . S
C309 C315 1.363 . S
C310 C311 1.363 . S
C310 C315 1.379 . S
C310 N317 1.356 . S
C311 C310 1.363 . S
C311 C314 1.363 . S
N312 C314 1.356 . S
N312 H324 0.984 . S
N312 H325 0.985 . S
N313 C315 1.356 . S
N313 H318 0.984 . S
N313 H319 0.985 . S
C314 C308 1.379 . S
C314 C311 1.363 . S
C314 N312 1.356 . S
C315 C309 1.363 . S
C315 C310 1.379 . S
C315 N313 1.356 . S
N316 C308 1.356 . S
N316 H322 0.984 . S
N316 H323 0.984 . S
N317 C310 1.356 . S
N317 H320 0.984 . S
N317 H321 0.985 . S
H318 N313 0.984 . S
H319 N313 0.985 . S
H320 N317 0.984 . S
H321 N317 0.985 . S
H322 N316 0.984 . S
H323 N316 0.984 . S
H324 N312 0.984 . S
H325 N312 0.985 . S
C326 C327 1.351 1_455 S
C326 C332 1.379 . S
C326 N334 1.356 . S
C327 C326 1.351 1_655 S
C327 C333 1.379 . S
C328 C329 1.363 . S
C328 C333 1.379 . S
C328 N335 1.356 . S
C329 C328 1.363 . S
C329 C332 1.363 1_655 S
N330 C332 1.356 . S
N330 H342 0.984 . S
N330 H343 0.985 . S
N331 C333 1.356 . S
N331 H336 0.984 . S
N331 H337 0.985 . S
C332 C326 1.379 . S
C332 C329 1.363 1_455 S
C332 N330 1.356 . S
C333 C327 1.379 . S
C333 C328 1.379 . S
C333 N331 1.356 . S
N334 C326 1.356 . S
N334 H340 0.984 . S
N334 H341 0.984 . S
N335 C328 1.356 . S
N335 H338 0.984 . S
N335 H339 0.985 . S
H336 N331 0.984 . S
H337 N331 0.985 . S
H338 N335 0.984 . S
H339 N335 0.985 . S
H340 N334 0.984 . S
H341 N334 0.984 . S
H342 N330 0.984 . S
H343 N330 0.985 . S
C344 C345 1.363 . S
C344 C350 1.379 . S
C344 N352 1.356 . S
C345 C344 1.363 . S
C345 C351 1.363 . S
C346 C347 1.363 . S
C346 C351 1.379 . S
C346 N353 1.356 . S
C347 C346 1.363 . S
C347 C350 1.363 . S
N348 C350 1.356 . S
N348 H360 0.984 . S
N348 H361 0.985 . S
N349 C351 1.356 . S
N349 H354 0.984 . S
N349 H355 0.985 . S
C350 C344 1.379 . S
C350 C347 1.363 . S
C350 N348 1.356 . S
C351 C345 1.363 . S
C351 C346 1.379 . S
C351 N349 1.356 . S
N352 C344 1.356 . S
N352 H358 0.984 . S
N352 H359 0.984 . S
N353 C346 1.356 . S
N353 H356 0.984 . S
N353 H357 0.985 . S
H354 N349 0.984 . S
H355 N349 0.985 . S
H356 N353 0.984 . S
H357 N353 0.985 . S
H358 N352 0.984 . S
H359 N352 0.984 . S
H360 N348 0.984 . S
H361 N348 0.985 . S
C362 C363 1.363 . S
C362 C368 1.379 . S
C362 N370 1.356 . S
C363 C362 1.363 . S
C363 C369 1.363 1_565 S
C364 C365 1.363 1_545 S
C364 C369 1.379 . S
C364 N371 1.356 . S
C365 C364 1.363 1_565 S
C365 C368 1.363 . S
N366 C368 1.356 . S
N366 H378 0.984 . S
N366 H379 0.985 . S
N367 C369 1.356 . S
N367 H372 0.984 . S
N367 H373 0.985 . S
C368 C362 1.379 . S
C368 C365 1.363 . S
C368 N366 1.356 . S
C369 C363 1.363 1_545 S
C369 C364 1.379 . S
C369 N367 1.356 . S
N370 C362 1.356 . S
N370 H376 0.984 . S
N370 H377 0.984 . S
N371 C364 1.356 . S
N371 H374 0.984 . S
N371 H375 0.985 . S
H372 N367 0.984 . S
H373 N367 0.985 . S
H374 N371 0.984 . S
H375 N371 0.985 . S
H376 N370 0.984 . S
H377 N370 0.984 . S
H378 N366 0.984 . S
H379 N366 0.985 . S
C380 C381 1.363 1_554 S
C380 C386 1.379 . S
C380 N388 1.356 . S
C381 C380 1.363 1_556 S
C381 C387 1.363 . S
C382 C383 1.363 . S
C382 C387 1.379 . S
C382 N389 1.356 . S
C383 C382 1.363 . S
C383 C386 1.363 1_556 S
N384 C386 1.356 . S
N384 H396 0.984 . S
N384 H397 0.985 . S
N385 C387 1.356 . S
N385 H390 0.984 . S
N385 H391 0.985 . S
C386 C380 1.379 . S
C386 C383 1.363 1_554 S
C386 N384 1.356 . S
C387 C381 1.363 . S
C387 C382 1.379 . S
C387 N385 1.356 . S
N388 C380 1.356 . S
N388 H394 0.984 . S
N388 H395 0.984 . S
N389 C382 1.356 . S
N389 H392 0.984 . S
N389 H393 0.985 . S
H390 N385 0.984 . S
H391 N385 0.985 . S
H392 N389 0.984 . S
H393 N389 0.985 . S
H394 N388 0.984 . S
H395 N388 0.984 . S
H396 N384 0.984 . S
H397 N384 0.985 . S
C398 C399 1.363 . S
C398 C404 1.379 . S
C398 N406 1.356 . S
C399 C398 1.363 . S
C399 C405 1.363 . S
C400 C401 1.363 . S
C400 C405 1.379 . S
C400 N407 1.356 . S
C401 C400 1.363 . S
C401 C404 1.363 . S
N402 C404 1.356 . S
N402 H414 0.984 . S
N402 H415 0.985 . S
N403 C405 1.356 . S
N403 H408 0.984 . S
N403 H409 0.985 . S
C404 C398 1.379 . S
C404 C401 1.363 . S
C404 N402 1.356 . S
C405 C399 1.363 . S
C405 C400 1.379 . S
C405 N403 1.356 . S
N406 C398 1.356 . S
N406 H412 0.984 . S
N406 H413 0.984 . S
N407 C400 1.356 . S
N407 H410 0.984 . S
N407 H411 0.985 . S
H408 N403 0.984 . S
H409 N403 0.985 . S
H410 N407 0.984 . S
H411 N407 0.985 . S
H412 N406 0.984 . S
H413 N406 0.984 . S
H414 N402 0.984 . S
H415 N402 0.985 . S
C416 C417 1.363 . S
C416 C422 1.379 . S
C416 N424 1.356 . S
C417 C416 1.363 . S
C417 C423 1.363 . S
C418 C419 1.363 . S
C418 C423 1.379 . S
C418 N425 1.356 . S
C419 C418 1.363 . S
C419 C422 1.363 . S
N420 C422 1.350 1_556 S
N420 H432 0.993 . S
N420 H433 0.982 1_556 S
N421 C423 1.356 . S
N421 H426 0.984 . S
N421 H427 0.985 . S
C422 C416 1.379 . S
C422 C419 1.363 . S
C422 N420 1.350 1_554 S
C423 C417 1.363 . S
C423 C418 1.379 . S
C423 N421 1.356 . S
N424 C416 1.356 . S
N424 H430 0.984 1_554 S
N424 H431 0.984 . S
N425 C418 1.356 . S
N425 H428 0.984 . S
N425 H429 0.985 . S
H426 N421 0.984 . S
H427 N421 0.985 . S
H428 N425 0.984 . S
H429 N425 0.985 . S
H430 N424 0.984 1_556 S
H431 N424 0.984 . S
H432 N420 0.993 . S
H433 N420 0.982 1_554 S
C434 C435 1.363 . S
C434 C440 1.379 . S
C434 N442 1.356 . S
C435 C434 1.363 . S
C435 C441 1.363 1_554 S
C436 C437 1.363 1_556 S
C436 C441 1.379 . S
C436 N443 1.356 . S
C437 C436 1.363 1_554 S
C437 C440 1.363 . S
N438 C440 1.356 . S
N438 H450 0.984 . S
N438 H451 0.985 . S
N439 C441 1.356 . S
N439 H444 0.984 . S
N439 H445 0.985 . S
C440 C434 1.379 . S
C440 C437 1.363 . S
C440 N438 1.356 . S
C441 C435 1.363 1_556 S
C441 C436 1.379 . S
C441 N439 1.356 . S
N442 C434 1.356 . S
N442 H448 0.984 . S
N442 H449 0.984 . S
N443 C436 1.356 . S
N443 H446 0.984 . S
N443 H447 0.985 . S
H444 N439 0.984 . S
H445 N439 0.985 . S
H446 N443 0.984 . S
H447 N443 0.985 . S
H448 N442 0.984 . S
H449 N442 0.984 . S
H450 N438 0.984 . S
H451 N438 0.985 . S
C452 C453 1.363 1_455 S
C452 C458 1.379 . S
C452 N460 1.356 . S
C453 C452 1.363 1_655 S
C453 C459 1.363 . S
C454 C455 1.363 . S
C454 C459 1.379 . S
C454 N461 1.356 . S
C455 C454 1.363 . S
C455 C458 1.363 1_655 S
N456 C458 1.356 . S
N456 H468 0.984 . S
N456 H469 0.985 . S
N457 C459 1.356 . S
N457 H462 0.984 . S
N457 H463 0.985 . S
C458 C452 1.379 . S
C458 C455 1.363 1_455 S
C458 N456 1.356 . S
C459 C453 1.363 . S
C459 C454 1.379 . S
C459 N457 1.356 . S
N460 C452 1.356 . S
N460 H466 0.984 . S
N460 H467 0.984 . S
N461 C454 1.356 . S
N461 H464 0.984 . S
N461 H465 0.985 . S
H462 N457 0.984 . S
H463 N457 0.985 . S
H464 N461 0.984 . S
H465 N461 0.985 . S
H466 N460 0.984 . S
H467 N460 0.984 . S
H468 N456 0.984 . S
H469 N456 0.985 . S
C470 C471 1.363 . S
C470 C476 1.379 . S
C470 N478 1.356 . S
C471 C470 1.363 . S
C471 C477 1.363 . S
C472 C473 1.363 . S
C472 C477 1.379 . S
C472 N479 1.356 . S
C473 C472 1.363 . S
C473 C476 1.363 . S
N474 C476 1.356 . S
N474 H486 0.984 . S
N474 H487 0.985 . S
N475 C477 1.356 . S
N475 H480 0.984 . S
N475 H481 0.985 . S
C476 C470 1.379 . S
C476 C473 1.363 . S
C476 N474 1.356 . S
C477 C471 1.363 . S
C477 C472 1.379 . S
C477 N475 1.356 . S
N478 C470 1.356 . S
N478 H484 0.984 . S
N478 H485 0.984 . S
N479 C472 1.356 . S
N479 H482 0.984 . S
N479 H483 0.985 . S
H480 N475 0.984 . S
H481 N475 0.985 . S
H482 N479 0.984 . S
H483 N479 0.985 . S
H484 N478 0.984 . S
H485 N478 0.984 . S
H486 N474 0.984 . S
H487 N474 0.985 . S
C488 C489 1.363 1_545 S
C488 C494 1.379 . S
C488 N496 1.356 . S
C489 C488 1.363 1_565 S
C489 C495 1.363 . S
C490 C491 1.363 1_455 S
C490 C495 1.379 1_455 S
C490 N497 1.356 . S
C491 C490 1.363 1_655 S
C491 C494 1.363 1_565 S
N492 C494 1.356 . S
N492 H504 0.984 . S
N492 H505 0.985 . S
N493 C495 1.356 1_455 S
N493 H498 0.984 . S
N493 H499 0.985 . S
C494 C488 1.379 . S
C494 C491 1.363 1_545 S
C494 N492 1.356 . S
C495 C489 1.363 . S
C495 C490 1.379 1_655 S
C495 N493 1.356 1_655 S
N496 C488 1.356 . S
N496 H502 0.984 . S
N496 H503 0.984 . S
N497 C490 1.356 . S
N497 H500 0.984 . S
N497 H501 0.985 . S
H498 N493 0.984 . S
H499 N493 0.985 . S
H500 N497 0.984 . S
H501 N497 0.985 . S
H502 N496 0.984 . S
H503 N496 0.984 . S
H504 N492 0.984 . S
H505 N492 0.985 . S
C506 C507 1.363 . S
C506 C512 1.379 . S
C506 N514 1.356 . S
C507 C506 1.363 . S
C507 C513 1.363 . S
C508 C509 1.363 . S
C508 C513 1.379 . S
C508 N515 1.356 . S
C509 C508 1.363 . S
C509 C512 1.363 . S
N510 C512 1.356 . S
N510 H522 0.984 . S
N510 H523 0.985 . S
N511 C513 1.356 . S
N511 H516 0.984 . S
N511 H517 0.985 . S
C512 C506 1.379 . S
C512 C509 1.363 . S
C512 N510 1.356 . S
C513 C507 1.363 . S
C513 C508 1.379 . S
C513 N511 1.356 . S
N514 C506 1.356 . S
N514 H520 0.984 . S
N514 H521 0.984 . S
N515 C508 1.356 . S
N515 H518 0.984 . S
N515 H519 0.985 . S
H516 N511 0.984 . S
H517 N511 0.985 . S
H518 N515 0.984 . S
H519 N515 0.985 . S
H520 N514 0.984 . S
H521 N514 0.984 . S
H522 N510 0.984 . S
H523 N510 0.985 . S
C524 C525 1.363 . S
C524 C530 1.379 . S
C524 N532 1.356 . S
C525 C524 1.363 . S
C525 C531 1.363 . S
C526 C527 1.363 . S
C526 C531 1.379 . S
C526 N533 1.356 . S
C527 C526 1.363 . S
C527 C530 1.363 . S
N528 C530 1.356 . S
N528 H540 0.984 . S
N528 H541 0.985 . S
N529 C531 1.356 . S
N529 H534 0.984 . S
N529 H535 0.985 . S
C530 C524 1.379 . S
C530 C527 1.363 . S
C530 N528 1.356 . S
C531 C525 1.363 . S
C531 C526 1.379 . S
C531 N529 1.356 . S
N532 C524 1.356 . S
N532 H538 0.984 . S
N532 H539 0.984 . S
N533 C526 1.356 . S
N533 H536 0.984 . S
N533 H537 0.985 . S
H534 N529 0.984 . S
H535 N529 0.985 . S
H536 N533 0.984 . S
H537 N533 0.985 . S
H538 N532 0.984 . S
H539 N532 0.984 . S
H540 N528 0.984 . S
H541 N528 0.985 . S
C542 C543 1.363 . S
C542 C548 1.379 . S
C542 N550 1.356 . S
C543 C542 1.363 . S
C543 C549 1.363 . S
C544 C545 1.363 . S
C544 C549 1.379 . S
C544 N551 1.356 . S
C545 C544 1.363 . S
C545 C548 1.363 . S
N546 C548 1.356 . S
N546 H558 0.984 . S
N546 H559 0.985 . S
N547 C549 1.356 . S
N547 H552 0.984 . S
N547 H553 0.985 . S
C548 C542 1.379 . S
C548 C545 1.363 . S
C548 N546 1.356 . S
C549 C543 1.363 . S
C549 C544 1.379 . S
C549 N547 1.356 . S
N550 C542 1.356 . S
N550 H556 0.984 1_455 S
N550 H557 0.984 . S
N551 C544 1.356 . S
N551 H554 0.984 . S
N551 H555 0.985 . S
H552 N547 0.984 . S
H553 N547 0.985 . S
H554 N551 0.984 . S
H555 N551 0.985 . S
H556 N550 0.984 1_655 S
H557 N550 0.984 . S
H558 N546 0.984 . S
H559 N546 0.985 . S
C560 C561 1.363 1_554 S
C560 C566 1.379 . S
C560 N568 1.356 . S
C561 C560 1.363 1_556 S
C561 C567 1.363 1_566 S
C562 C563 1.363 . S
C562 C567 1.379 . S
C562 N569 1.356 . S
C563 C562 1.363 . S
C563 C566 1.363 1_545 S
N564 C566 1.356 . S
N564 H576 0.984 . S
N564 H577 0.985 . S
N565 C567 1.356 1_556 S
N565 H570 0.984 . S
N565 H571 0.985 . S
C566 C560 1.379 . S
C566 C563 1.363 1_565 S
C566 N564 1.356 . S
C567 C561 1.363 1_544 S
C567 C562 1.379 . S
C567 N565 1.356 1_554 S
N568 C560 1.356 . S
N568 H574 0.984 . S
N568 H575 0.984 1_554 S
N569 C562 1.356 . S
N569 H572 0.984 . S
N569 H573 0.985 . S
H570 N565 0.984 . S
H571 N565 0.985 . S
H572 N569 0.984 . S
H573 N569 0.985 . S
H574 N568 0.984 . S
H575 N568 0.984 1_556 S
H576 N564 0.984 . S
H577 N564 0.985 . S
C578 C579 1.363 . S
C578 C584 1.379 . S
C578 N586 1.356 . S
C579 C578 1.363 . S
C579 C585 1.363 . S
C580 C581 1.363 . S
C580 C585 1.379 . S
C580 N587 1.356 . S
C581 C580 1.363 . S
C581 C584 1.363 . S
N582 C584 1.356 . S
N582 H594 0.984 . S
N582 H595 0.985 . S
N583 C585 1.356 . S
N583 H588 0.984 . S
N583 H589 0.985 . S
C584 C578 1.379 . S
C584 C581 1.363 . S
C584 N582 1.356 . S
C585 C579 1.363 . S
C585 C580 1.379 . S
C585 N583 1.356 . S
N586 C578 1.356 . S
N586 H592 0.984 . S
N586 H593 0.984 . S
N587 C580 1.356 . S
N587 H590 0.984 . S
N587 H591 0.985 . S
H588 N583 0.984 . S
H589 N583 0.985 . S
H590 N587 0.984 . S
H591 N587 0.985 . S
H592 N586 0.984 . S
H593 N586 0.984 . S
H594 N582 0.984 . S
H595 N582 0.985 . S
C596 C597 1.363 . S
C596 C602 1.379 . S
C596 N604 1.356 . S
C597 C596 1.363 . S
C597 C603 1.363 . S
C598 C599 1.363 . S
C598 C603 1.379 . S
C598 N605 1.356 . S
C599 C598 1.363 . S
C599 C602 1.363 . S
N600 C602 1.356 . S
N600 H612 0.984 . S
N600 H613 0.985 . S
N601 C603 1.356 . S
N601 H606 0.984 . S
N601 H607 0.985 . S
C602 C596 1.379 . S
C602 C599 1.363 . S
C602 N600 1.356 . S
C603 C597 1.363 . S
C603 C598 1.379 . S
C603 N601 1.356 . S
N604 C596 1.356 . S
N604 H610 0.984 . S
N604 H611 0.984 . S
N605 C598 1.356 . S
N605 H608 0.984 . S
N605 H609 0.985 . S
H606 N601 0.984 . S
H607 N601 0.985 . S
H608 N605 0.984 . S
H609 N605 0.985 . S
H610 N604 0.984 . S
H611 N604 0.984 . S
H612 N600 0.984 . S
H613 N600 0.985 . S
C614 C615 1.363 . S
C614 C620 1.379 . S
C614 N622 1.356 . S
C615 C614 1.363 . S
C615 C621 1.363 . S
C616 C617 1.363 . S
C616 C621 1.379 . S
C616 N623 1.356 . S
C617 C616 1.363 . S
C617 C620 1.363 . S
N618 C620 1.356 . S
N618 H630 0.984 . S
N618 H631 0.985 . S
N619 C621 1.356 . S
N619 H624 0.984 . S
N619 H625 0.985 . S
C620 C614 1.379 . S
C620 C617 1.363 . S
C620 N618 1.356 . S
C621 C615 1.363 . S
C621 C616 1.379 . S
C621 N619 1.356 . S
N622 C614 1.356 . S
N622 H628 0.984 . S
N622 H629 0.984 . S
N623 C616 1.356 . S
N623 H626 0.984 . S
N623 H627 0.985 . S
H624 N619 0.984 . S
H625 N619 0.985 . S
H626 N623 0.984 . S
H627 N623 0.985 . S
H628 N622 0.984 . S
H629 N622 0.984 . S
H630 N618 0.984 . S
H631 N618 0.985 . S
C632 C633 1.363 . S
C632 C638 1.379 . S
C632 N640 1.356 . S
C633 C632 1.363 . S
C633 C639 1.363 1_655 S
C634 C635 1.363 . S
C634 C639 1.379 . S
C634 N641 1.356 1_556 S
C635 C634 1.363 . S
C635 C638 1.363 1_455 S
N636 C638 1.356 . S
N636 H648 0.984 . S
N636 H649 0.985 . S
N637 C639 1.356 . S
N637 H642 0.988 . S
N637 H643 0.985 1_556 S
C638 C632 1.379 . S
C638 C635 1.363 1_655 S
C638 N636 1.356 . S
C639 C633 1.363 1_455 S
C639 C634 1.379 . S
C639 N637 1.356 . S
N640 C632 1.356 . S
N640 H646 0.984 . S
N640 H647 0.984 . S
N641 C634 1.356 1_554 S
N641 H644 0.984 . S
N641 H645 0.985 . S
H642 N637 0.988 . S
H643 N637 0.985 1_554 S
H644 N641 0.984 . S
H645 N641 0.985 . S
H646 N640 0.984 . S
H647 N640 0.984 . S
H648 N636 0.984 . S
H649 N636 0.985 . S
C650 C651 1.363 . S
C650 C656 1.379 . S
C650 N658 1.356 . S
C651 C650 1.363 . S
C651 C657 1.363 . S
C652 C653 1.363 . S
C652 C657 1.379 . S
C652 N659 1.356 . S
C653 C652 1.363 . S
C653 C656 1.363 . S
N654 C656 1.356 . S
N654 H666 0.984 . S
N654 H667 0.985 . S
N655 C657 1.356 . S
N655 H660 0.984 . S
N655 H661 0.985 . S
C656 C650 1.379 . S
C656 C653 1.363 . S
C656 N654 1.356 . S
C657 C651 1.363 . S
C657 C652 1.379 . S
C657 N655 1.356 . S
N658 C650 1.356 . S
N658 H664 0.984 . S
N658 H665 0.984 . S
N659 C652 1.356 . S
N659 H662 0.984 . S
N659 H663 0.985 . S
H660 N655 0.984 . S
H661 N655 0.985 . S
H662 N659 0.984 . S
H663 N659 0.985 . S
H664 N658 0.984 . S
H665 N658 0.984 . S
H666 N654 0.984 . S
H667 N654 0.985 . S
C668 C669 1.363 . S
C668 C674 1.379 . S
C668 N676 1.356 . S
C669 C668 1.363 . S
C669 C675 1.363 . S
C670 C671 1.363 . S
C670 C675 1.379 . S
C670 N677 1.356 . S
C671 C670 1.363 . S
C671 C674 1.363 . S
N672 C674 1.356 . S
N672 H684 0.984 . S
N672 H685 0.985 . S
N673 C675 1.356 . S
N673 H678 0.984 . S
N673 H679 0.985 . S
C674 C668 1.379 . S
C674 C671 1.363 . S
C674 N672 1.356 . S
C675 C669 1.363 . S
C675 C670 1.379 . S
C675 N673 1.356 . S
N676 C668 1.356 . S
N676 H682 0.984 . S
N676 H683 0.984 . S
N677 C670 1.356 . S
N677 H680 0.984 . S
N677 H681 0.985 . S
H678 N673 0.984 . S
H679 N673 0.985 . S
H680 N677 0.984 . S
H681 N677 0.985 . S
H682 N676 0.984 . S
H683 N676 0.984 . S
H684 N672 0.984 . S
H685 N672 0.985 . S
C686 C687 1.363 . S
C686 C692 1.379 . S
C686 N694 1.356 . S
C687 C686 1.363 . S
C687 C693 1.363 . S
C688 C689 1.363 . S
C688 C693 1.379 . S
C688 N695 1.356 . S
C689 C688 1.363 . S
C689 C692 1.363 . S
N690 C692 1.356 . S
N690 H702 0.984 . S
N690 H703 0.985 . S
N691 C693 1.356 . S
N691 H696 0.984 . S
N691 H697 0.985 . S
C692 C686 1.379 . S
C692 C689 1.363 . S
C692 N690 1.356 . S
C693 C687 1.363 . S
C693 C688 1.379 . S
C693 N691 1.356 . S
N694 C686 1.356 . S
N694 H700 0.984 . S
N694 H701 0.984 . S
N695 C688 1.356 . S
N695 H698 0.984 . S
N695 H699 0.985 . S
H696 N691 0.984 . S
H697 N691 0.985 . S
H698 N695 0.984 . S
H699 N695 0.985 . S
H700 N694 0.984 . S
H701 N694 0.984 . S
H702 N690 0.984 . S
H703 N690 0.985 . S
C273 C6 2.427 . S
C275 C168 2.466 . S
C291 C21 1.583 . S
C293 N188 1.605 . S
C311 C222 1.527 . S
C309 C49 1.451 . S
C327 C68 1.021 . S
C329 N256 1.152 . S
C347 C209 2.911 . S
C345 C2 2.886 . S
C365 N166 0.952 1_565 S
C363 C30 0.884 . S
C383 C243 1.870 1_556 S
C381 C40 1.866 . S
C401 N218 1.009 . S
C399 C63 1.003 . S
C417 C11 1.553 . S
C419 C258 1.857 . S
C437 C192 1.864 . S
C435 C44 1.828 1_554 S
C453 C59 1.046 . S
C455 C153 1.079 . S
C471 C25 1.696 . S
C473 C239 1.740 . S
C491 C179 2.550 1_565 S
C489 C82 2.526 . S
C507 C101 1.310 . S
C509 N196 1.298 . S
C525 C125 1.837 . S
C527 C213 1.867 . S
C543 C144 1.027 . S
C545 N248 1.019 . S
C561 C87 1.837 . S
C563 C198 2.048 . S
C581 N158 1.645 . S
C579 C97 1.629 . S
C599 C252 1.845 . S
C597 C120 1.844 . S
C617 N226 1.206 . S
C615 C135 1.180 . S
C633 C78 2.113 . S
C635 C269 2.130 . S
C653 C183 1.426 . S
C651 C116 1.408 . S
C671 C162 1.576 . S
C669 C139 1.539 . S
C687 C106 1.358 . S
C689 C228 1.447 . S
