# Generated by pormake.
# Topology pth, (4,4)-cn, num edge types: 1
# Building blocks:
#     Node 0, Type 0, BuildingBlock: NAHDIM_clean_sbu_0, # of connection points: 4
#     Node 1, Type 0, BuildingBlock: NAHDIM_clean_sbu_0, # of connection points: 4
#     Node 2, Type 0, BuildingBlock: NAHDIM_clean_sbu_0, # of connection points: 4
#     Node 3, Type 1, BuildingBlock: MUDLON_clean_linker_0, # of connection points: 4
#     Node 4, Type 1, BuildingBlock: MUDLON_clean_linker_0, # of connection points: 4
#     Node 5, Type 1, BuildingBlock: MUDLON_clean_linker_0, # of connection points: 4
#     Edge 6, Type (0, 1), BuildingBlock: FUNLAD_clean_linker_0, # of connection points: 2
#     Edge 7, Type (0, 1), BuildingBlock: FUNLAD_clean_linker_0, # of connection points: 2
#     Edge 8, Type (0, 1), BuildingBlock: FUNLAD_clean_linker_0, # of connection points: 2
#     Edge 9, Type (0, 1), BuildingBlock: FUNLAD_clean_linker_0, # of connection points: 2
#     Edge 10, Type (0, 1), BuildingBlock: FUNLAD_clean_linker_0, # of connection points: 2
#     Edge 11, Type (0, 1), BuildingBlock: FUNLAD_clean_linker_0, # of connection points: 2
#     Edge 12, Type (0, 1), BuildingBlock: FUNLAD_clean_linker_0, # of connection points: 2
#     Edge 13, Type (0, 1), BuildingBlock: FUNLAD_clean_linker_0, # of connection points: 2
#     Edge 14, Type (0, 1), BuildingBlock: FUNLAD_clean_linker_0, # of connection points: 2
#     Edge 15, Type (0, 1), BuildingBlock: FUNLAD_clean_linker_0, # of connection points: 2
#     Edge 16, Type (0, 1), BuildingBlock: FUNLAD_clean_linker_0, # of connection points: 2
#     Edge 17, Type (0, 1), BuildingBlock: FUNLAD_clean_linker_0, # of connection points: 2
# Relax obj value: 0.056
# Max RMSD: 0.170
# Mean RMSD: 0.116
data_MOF--net-pth--node1-NAHDIM_clean_sbu_0--node2-MUDLON_clean_linker_0--edge1-FUNLAD_clean_linker_0
_symmetry_space_group_name_H-M    P1
_symmetry_Int_Tables_number       1
_symmetry_cell_setting            triclinic
loop_
_symmetry_equiv_pos_as_xyz
'x, y, z'
_cell_length_a     37.6144
_cell_length_b     37.760131
_cell_length_c     74.909574
_cell_angle_alpha  91.65085
_cell_angle_beta   90.054602
_cell_angle_gamma 120.57236
loop_
_atom_site_label
_atom_site_type_symbol
_atom_site_fract_x
_atom_site_fract_y
_atom_site_fract_z
_atom_type_partial_charge
C0 C 0.01181 0.94963 0.05696 0.0
O1 O 0.97965 0.95456 0.05656 0.0
O2 O 0.03082 0.05373 0.05327 0.0
Zn3 Zn 0.03696 0.0165 0.03546 0.0
O4 O 0.9854 0.98575 0.02018 0.0
C5 C 0.11762 0.08249 0.02618 0.0
O6 O 0.12175 0.08923 0.04357 0.0
O7 O 0.04386 0.97444 0.04853 0.0
C8 C 0.98608 0.96469 0.00679 0.0
O9 O 0.02046 0.96505 0.00324 0.0
C10 C 0.0239 0.08131 0.04788 0.0
O11 O 0.01972 0.08418 0.03065 0.0
O12 O 0.08472 0.05172 0.01977 0.0
C13 C 0.08178 0.09421 0.33276 0.0
O14 O 0.07585 0.05995 0.32498 0.0
O15 O 0.03578 0.99444 0.34881 0.0
Zn16 Zn 0.05533 0.0454 0.36465 0.0
O17 O 0.00906 0.04361 0.37882 0.0
C18 C 0.10178 0.01945 0.38541 0.0
O19 O 0.07435 0.98345 0.37832 0.0
O20 O 0.07658 0.09527 0.34948 0.0
C21 C 0.99031 0.01988 0.39153 0.0
O22 O 0.00015 0.99252 0.39602 0.0
C23 C 0.99856 0.96554 0.34651 0.0
O24 O 0.96895 0.96792 0.3547 0.0
O25 O 0.10003 0.0511 0.38151 0.0
C26 C 0.08221 0.96078 0.69195 0.0
O27 O 0.09067 0.96649 0.70917 0.0
O28 O 0.98214 0.98939 0.68435 0.0
Zn29 Zn 0.01832 0.97994 0.70088 0.0
O30 O 0.056 0.03304 0.71451 0.0
C31 C 0.94816 0.90484 0.71155 0.0
O32 O 0.93957 0.90185 0.69438 0.0
O33 O 0.05238 0.96382 0.68585 0.0
C34 C 0.06807 0.03397 0.73046 0.0
O35 O 0.05549 0.99918 0.73849 0.0
C36 C 0.95685 0.9995 0.69036 0.0
O37 O 0.95502 0.00457 0.7077 0.0
O38 O 0.98166 0.93548 0.71758 0.0
H39 H 0.87291 0.6207 0.21355 0.0
N40 N 0.9221 0.59617 0.19988 0.0
H41 H 0.88833 0.67069 0.23813 0.0
H42 H 0.99176 0.63182 0.22122 0.0
H43 H 0.00704 0.68078 0.24621 0.0
H44 H 0.99534 0.66384 0.19079 0.0
H45 H 0.00725 0.70429 0.1644 0.0
H46 H 0.87244 0.57615 0.17147 0.0
H47 H 0.88479 0.61526 0.1444 0.0
H48 H 0.87206 0.52419 0.21392 0.0
H49 H 0.99103 0.59372 0.18963 0.0
H50 H 0.88254 0.46585 0.21662 0.0
H51 H 0.00091 0.53486 0.19128 0.0
H52 H 0.92267 0.30678 0.2336 0.0
H53 H 0.95468 0.28752 0.25686 0.0
H54 H 0.07435 0.36536 0.23395 0.0
H55 H 0.04186 0.38329 0.21051 0.0
H56 H 0.02049 0.39128 0.18161 0.0
H57 H 0.02941 0.36102 0.1538 0.0
H58 H 0.91584 0.24765 0.16337 0.0
H59 H 0.90747 0.27807 0.19121 0.0
H60 H 0.89044 0.354 0.19996 0.0
H61 H 0.88276 0.41423 0.19861 0.0
H62 H 0.01339 0.49301 0.21017 0.0
N63 N 0.9587 0.35198 0.20558 0.0
H64 H 0.02092 0.4326 0.21052 0.0
C65 C 0.93092 0.6224 0.21561 0.0
C66 C 0.90199 0.63339 0.22081 0.0
C67 C 0.91084 0.6618 0.23491 0.0
C68 C 0.94897 0.67982 0.24416 0.0
C69 C 0.97761 0.66791 0.23923 0.0
C70 C 0.96876 0.63959 0.22504 0.0
C71 C 0.93249 0.61733 0.18327 0.0
C72 C 0.97111 0.65287 0.18071 0.0
C73 C 0.97805 0.67582 0.16546 0.0
C74 C 0.94676 0.66345 0.15234 0.0
C75 C 0.90921 0.62634 0.15443 0.0
C76 C 0.90216 0.6037 0.16978 0.0
C77 C 0.93023 0.56294 0.20134 0.0
C78 C 0.90029 0.52663 0.20903 0.0
C79 C 0.90628 0.49326 0.21042 0.0
C80 C 0.94234 0.49528 0.20392 0.0
C81 C 0.97288 0.53219 0.19654 0.0
C82 C 0.96706 0.56584 0.19539 0.0
C83 C 0.97965 0.34638 0.22036 0.0
C84 C 0.95588 0.32019 0.23384 0.0
C85 C 0.97432 0.3094 0.24715 0.0
C86 C 0.01714 0.32475 0.24724 0.0
C87 C 0.04123 0.3525 0.23412 0.0
C88 C 0.02268 0.36312 0.22077 0.0
C89 C 0.96337 0.3366 0.18849 0.0
C90 C 0.99752 0.36 0.17768 0.0
C91 C 0.00257 0.34269 0.16182 0.0
C92 C 0.97332 0.30198 0.15644 0.0
C93 C 0.93862 0.27923 0.16706 0.0
C94 C 0.93385 0.2964 0.18296 0.0
C95 C 0.95593 0.38861 0.20556 0.0
C96 C 0.91732 0.38433 0.20224 0.0
C97 C 0.91302 0.41885 0.20161 0.0
C98 C 0.94738 0.45865 0.20449 0.0
C99 C 0.98629 0.46293 0.20774 0.0
C100 C 0.99061 0.42825 0.20814 0.0
H101 H 0.7835 0.15223 0.55537 0.0
N102 N 0.71234 0.10359 0.5383 0.0
H103 H 0.80978 0.13783 0.58245 0.0
H104 H 0.67002 0.03591 0.55874 0.0
H105 H 0.6958 0.02135 0.5859 0.0
H106 H 0.69753 0.02572 0.53038 0.0
H107 H 0.72734 0.00596 0.50603 0.0
H108 H 0.75432 0.14887 0.51105 0.0
H109 H 0.783 0.1289 0.48604 0.0
H110 H 0.69496 0.15933 0.55053 0.0
H111 H 0.63846 0.03755 0.52611 0.0
H112 H 0.62764 0.15392 0.55205 0.0
H113 H 0.57136 0.03269 0.52652 0.0
H114 H 0.4362 0.12213 0.57607 0.0
H115 H 0.38995 0.09132 0.6011 0.0
H116 H 0.33734 0.97163 0.57442 0.0
H117 H 0.38217 0.00311 0.54919 0.0
H118 H 0.40803 0.02395 0.51978 0.0
H119 H 0.36597 0.01787 0.49354 0.0
H120 H 0.375 0.13328 0.50914 0.0
H121 H 0.41669 0.13883 0.53536 0.0
H122 H 0.50979 0.15046 0.53839 0.0
H123 H 0.5762 0.1544 0.53492 0.0
H124 H 0.51805 0.02463 0.54531 0.0
N125 N 0.43769 0.08534 0.54565 0.0
H126 H 0.45165 0.02065 0.54756 0.0
C127 C 0.72504 0.09527 0.55505 0.0
C128 C 0.76411 0.12386 0.56214 0.0
C129 C 0.77891 0.11564 0.57762 0.0
C130 C 0.75485 0.07842 0.5863 0.0
C131 C 0.7152 0.05011 0.57941 0.0
C132 C 0.70035 0.05847 0.56393 0.0
C133 C 0.72426 0.08915 0.52268 0.0
C134 C 0.71585 0.0484 0.52072 0.0
C135 C 0.7327 0.037 0.50664 0.0
C136 C 0.75803 0.06596 0.49415 0.0
C137 C 0.7644 0.10604 0.49562 0.0
C138 C 0.74777 0.11746 0.50978 0.0
C139 C 0.67201 0.09931 0.53803 0.0
C140 C 0.66802 0.1317 0.54522 0.0
C141 C 0.62949 0.12858 0.54594 0.0
C142 C 0.59387 0.09299 0.53924 0.0
C143 C 0.59793 0.06041 0.53198 0.0
C144 C 0.63653 0.06334 0.53154 0.0
C145 C 0.41284 0.06512 0.56082 0.0
C146 C 0.41495 0.08919 0.57578 0.0
C147 C 0.38864 0.0714 0.59012 0.0
C148 C 0.35975 0.02888 0.58982 0.0
C149 C 0.35869 0.00454 0.57501 0.0
C150 C 0.38471 0.02249 0.5606 0.0
C151 C 0.41517 0.08183 0.52953 0.0
C152 C 0.40094 0.04788 0.51752 0.0
C153 C 0.37693 0.04445 0.50256 0.0
C154 C 0.36722 0.07512 0.4993 0.0
C155 C 0.38237 0.10942 0.51117 0.0
C156 C 0.40598 0.11259 0.52616 0.0
C157 C 0.47591 0.08565 0.54354 0.0
C158 C 0.51151 0.12291 0.53982 0.0
C159 C 0.54948 0.12508 0.538 0.0
C160 C 0.55281 0.08995 0.5401 0.0
C161 C 0.51676 0.05229 0.54345 0.0
C162 C 0.47861 0.05004 0.54498 0.0
H163 H 0.62668 0.77684 0.8786 0.0
N164 N 0.59693 0.6996 0.86717 0.0
H165 H 0.67158 0.81166 0.90463 0.0
H166 H 0.61513 0.66215 0.89361 0.0
H167 H 0.65889 0.69631 0.91996 0.0
H168 H 0.65818 0.68047 0.86544 0.0
H169 H 0.71016 0.70079 0.84244 0.0
H170 H 0.59932 0.73446 0.83651 0.0
H171 H 0.65172 0.75534 0.81339 0.0
H172 H 0.52208 0.68571 0.87441 0.0
H173 H 0.58821 0.62303 0.86145 0.0
H174 H 0.45788 0.61951 0.87587 0.0
H175 H 0.52419 0.55711 0.86192 0.0
H176 H 0.2872 0.43194 0.89814 0.0
H177 H 0.26162 0.38708 0.92376 0.0
H178 H 0.32921 0.32832 0.90632 0.0
H179 H 0.35495 0.37342 0.88109 0.0
H180 H 0.37536 0.40299 0.85079 0.0
H181 H 0.34705 0.35147 0.82625 0.0
H182 H 0.22866 0.34297 0.83224 0.0
H183 H 0.2576 0.39513 0.85645 0.0
H184 H 0.34364 0.49885 0.85935 0.0
H185 H 0.40845 0.56442 0.85765 0.0
H186 H 0.47348 0.50934 0.88086 0.0
N187 N 0.33202 0.42864 0.87147 0.0
H188 H 0.40911 0.44372 0.88159 0.0
C189 C 0.61754 0.71707 0.88413 0.0
C190 C 0.63299 0.75902 0.88781 0.0
C191 C 0.65851 0.77878 0.90273 0.0
C192 C 0.66909 0.75684 0.91435 0.0
C193 C 0.65189 0.71425 0.91113 0.0
C194 C 0.62647 0.69455 0.89614 0.0
C195 C 0.62481 0.70619 0.85273 0.0
C196 C 0.65604 0.69621 0.85403 0.0
C197 C 0.68595 0.70806 0.8409 0.0
C198 C 0.68527 0.72999 0.82619 0.0
C199 C 0.65291 0.73818 0.82449 0.0
C200 C 0.62303 0.7264 0.83767 0.0
C201 C 0.55989 0.65964 0.86762 0.0
C202 C 0.52262 0.65766 0.87169 0.0
C203 C 0.48593 0.61976 0.87238 0.0
C204 C 0.48564 0.5828 0.86885 0.0
C205 C 0.5232 0.58482 0.8649 0.0
C206 C 0.55999 0.62277 0.86442 0.0
C207 C 0.32284 0.40613 0.8877 0.0
C208 C 0.29714 0.40997 0.90013 0.0
C209 C 0.28237 0.38414 0.91464 0.0
C210 C 0.29312 0.3539 0.91698 0.0
C211 C 0.32066 0.35153 0.90502 0.0
C212 C 0.33533 0.37731 0.89049 0.0
C213 C 0.31844 0.40293 0.85542 0.0
C214 C 0.34359 0.39068 0.84656 0.0
C215 C 0.32725 0.36095 0.83263 0.0
C216 C 0.2855 0.34289 0.82733 0.0
C217 C 0.26105 0.35657 0.83576 0.0
C218 C 0.27743 0.38627 0.84964 0.0
C219 C 0.3712 0.4665 0.87077 0.0
C220 C 0.37199 0.50106 0.86401 0.0
C221 C 0.40905 0.53856 0.8632 0.0
C222 C 0.44631 0.54244 0.86929 0.0
C223 C 0.44555 0.50751 0.87588 0.0
C224 C 0.40846 0.46985 0.87649 0.0
C225 C 0.01126 0.13918 0.0551 0.0
C226 C 0.02184 0.11053 0.06081 0.0
C227 C 0.00972 0.16705 0.06733 0.0
C228 C 0.01877 0.16679 0.08554 0.0
C229 C 0.02992 0.13857 0.09117 0.0
C230 C 0.03118 0.11056 0.07898 0.0
C231 C 0.01768 0.19583 0.09901 0.0
C232 C 0.9933 0.21215 0.09737 0.0
C233 C 0.9899 0.23805 0.11177 0.0
C234 C 0.95202 0.23624 0.11415 0.0
C235 C 0.94687 0.25784 0.12839 0.0
C236 C 0.97978 0.28227 0.14036 0.0
H237 H 0.05336 0.26696 0.12151 0.0
C238 C 0.01831 0.28575 0.13744 0.0
C239 C 0.02335 0.26385 0.1233 0.0
H240 H 0.04422 0.30433 0.14646 0.0
H241 H 0.00423 0.14019 0.04116 0.0
H242 H 0.00214 0.1891 0.0624 0.0
H243 H 0.03732 0.13791 0.10509 0.0
H244 H 0.03974 0.0891 0.08381 0.0
H245 H 0.03533 0.20144 0.11132 0.0
H246 H 0.97241 0.20337 0.08593 0.0
H247 H 0.92594 0.21702 0.10531 0.0
H248 H 0.91699 0.25506 0.13019 0.0
C249 C 0.93762 0.99879 0.41567 0.0
C250 C 0.95931 0.0249 0.4017 0.0
C251 C 0.9102 0.00537 0.42587 0.0
C252 C 0.90397 0.03825 0.42226 0.0
C253 C 0.92523 0.06386 0.40815 0.0
C254 C 0.95236 0.05715 0.39791 0.0
C255 C 0.87826 0.04886 0.4337 0.0
C256 C 0.84709 0.0217 0.44372 0.0
C257 C 0.82395 0.03412 0.45595 0.0
C258 C 0.78287 0.00543 0.45999 0.0
C259 C 0.76099 0.01593 0.47201 0.0
C260 C 0.77998 0.05526 0.48045 0.0
H261 H 0.87498 0.09596 0.46208 0.0
C262 C 0.82119 0.08388 0.47641 0.0
C263 C 0.84291 0.07347 0.46434 0.0
H264 H 0.83724 0.11402 0.48301 0.0
H265 H 0.94239 0.97375 0.41896 0.0
H266 H 0.89517 0.98556 0.43692 0.0
H267 H 0.92123 0.08955 0.40515 0.0
H268 H 0.96855 0.0779 0.38725 0.0
H269 H 0.88494 0.08043 0.43351 0.0
H270 H 0.8374 0.98926 0.44268 0.0
H271 H 0.76764 0.97481 0.45381 0.0
H272 H 0.72922 0.9932 0.47471 0.0
C273 C 0.92651 0.87797 0.74226 0.0
C274 C 0.91734 0.87534 0.72392 0.0
C275 C 0.8962 0.85249 0.75415 0.0
C276 C 0.85579 0.82408 0.74796 0.0
C277 C 0.8473 0.82029 0.72952 0.0
C278 C 0.87766 0.84562 0.71763 0.0
C279 C 0.82138 0.79857 0.76015 0.0
C280 C 0.82199 0.80727 0.77776 0.0
C281 C 0.78618 0.78416 0.78956 0.0
C282 C 0.7936 0.78499 0.80797 0.0
C283 C 0.76083 0.76636 0.81975 0.0
C284 C 0.71977 0.74686 0.8134 0.0
H285 H 0.73796 0.76376 0.76911 0.0
C286 C 0.71221 0.74567 0.79496 0.0
C287 C 0.74505 0.7641 0.78314 0.0
H288 H 0.68088 0.73086 0.78969 0.0
H289 H 0.95699 0.90016 0.7475 0.0
H290 H 0.90483 0.85552 0.76812 0.0
H291 H 0.81667 0.79841 0.72431 0.0
H292 H 0.8696 0.8426 0.70356 0.0
H293 H 0.79379 0.77265 0.75412 0.0
H294 H 0.84943 0.83277 0.78402 0.0
H295 H 0.82493 0.80061 0.8133 0.0
H296 H 0.76771 0.76844 0.83392 0.0
C297 C 0.97334 0.88786 0.0755 0.0
C298 C 0.00984 0.91531 0.06684 0.0
C299 C 0.9707 0.85522 0.08483 0.0
C300 C 0.00445 0.84892 0.08564 0.0
C301 C 0.0412 0.87669 0.07721 0.0
C302 C 0.04383 0.90945 0.06779 0.0
C303 C 0.00274 0.81518 0.09607 0.0
C304 C 0.96709 0.77982 0.09882 0.0
C305 C 0.9628 0.74829 0.11144 0.0
C306 C 0.92397 0.7231 0.11888 0.0
C307 C 0.91866 0.69499 0.13178 0.0
C308 C 0.95198 0.69081 0.13739 0.0
H309 H 0.02606 0.76118 0.11069 0.0
C310 C 0.99055 0.71479 0.12938 0.0
C311 C 0.99597 0.74329 0.11654 0.0
H312 H 0.01668 0.71176 0.13309 0.0
H313 H 0.94668 0.89166 0.0752 0.0
H314 H 0.94239 0.83567 0.09174 0.0
H315 H 0.06786 0.87292 0.07785 0.0
H316 H 0.07247 0.9302 0.06133 0.0
H317 H 0.03143 0.82047 0.10201 0.0
H318 H 0.93881 0.77474 0.09249 0.0
H319 H 0.89784 0.72618 0.11516 0.0
H320 H 0.88865 0.67766 0.1378 0.0
C321 C 0.16035 0.06 0.40727 0.0
C322 C 0.13382 0.02275 0.39797 0.0
C323 C 0.18988 0.06266 0.41945 0.0
C324 C 0.19387 0.02813 0.42244 0.0
C325 C 0.1673 0.99099 0.4131 0.0
C326 C 0.13767 0.9883 0.40101 0.0
C327 C 0.22373 0.02876 0.43571 0.0
C328 C 0.25672 0.06348 0.44245 0.0
C329 C 0.28553 0.06437 0.45639 0.0
C330 C 0.32276 0.10146 0.45986 0.0
C331 C 0.34973 0.10472 0.4735 0.0
C332 C 0.34013 0.07086 0.48399 0.0
H333 H 0.24746 0.00136 0.46509 0.0
C334 C 0.30332 0.03349 0.48038 0.0
C335 C 0.27614 0.03028 0.46683 0.0
H336 H 0.29477 0.00709 0.48847 0.0
H337 H 0.1579 0.08701 0.40536 0.0
H338 H 0.20865 0.09158 0.42672 0.0
H339 H 0.16934 0.9638 0.4152 0.0
H340 H 0.1177 0.9591 0.39408 0.0
H341 H 0.21844 0.99908 0.43965 0.0
H342 H 0.26373 0.09295 0.43741 0.0
H343 H 0.33086 0.12828 0.45213 0.0
H344 H 0.37804 0.13386 0.4759 0.0
C345 C 0.10916 0.0751 0.75751 0.0
C346 C 0.09596 0.07386 0.73984 0.0
C347 C 0.13514 0.11275 0.76645 0.0
C348 C 0.14879 0.15008 0.75782 0.0
C349 C 0.13535 0.14876 0.7402 0.0
C350 C 0.10939 0.11112 0.73126 0.0
C351 C 0.17508 0.19083 0.76706 0.0
C352 C 0.19981 0.19668 0.78124 0.0
C353 C 0.224 0.23648 0.79151 0.0
C354 C 0.25498 0.24114 0.80348 0.0
C355 C 0.27602 0.27634 0.8146 0.0
C356 C 0.26649 0.30779 0.81407 0.0
H357 H 0.19107 0.26609 0.78195 0.0
C358 C 0.23634 0.30374 0.80174 0.0
C359 C 0.21518 0.26847 0.79065 0.0
H360 H 0.22847 0.32755 0.8009 0.0
H361 H 0.09912 0.04699 0.76456 0.0
H362 H 0.14351 0.1123 0.78022 0.0
H363 H 0.14498 0.17698 0.73329 0.0
H364 H 0.09971 0.11129 0.71766 0.0
H365 H 0.17451 0.21683 0.7616 0.0
H366 H 0.20298 0.17121 0.78558 0.0
H367 H 0.2623 0.21698 0.80455 0.0
H368 H 0.29857 0.27807 0.82412 0.0
C369 C 0.9025 0.01764 0.68433 0.0
C370 C 0.92932 0.00466 0.67795 0.0
C371 C 0.87649 0.0224 0.67254 0.0
C372 C 0.87688 0.01434 0.6541 0.0
C373 C 0.90321 0.00076 0.64781 0.0
C374 C 0.92929 0.99618 0.65957 0.0
C375 C 0.84998 0.01899 0.641 0.0
C376 C 0.83523 0.04458 0.64364 0.0
C377 C 0.81165 0.05146 0.62962 0.0
C378 C 0.8147 0.09001 0.62899 0.0
C379 C 0.79541 0.09852 0.61519 0.0
C380 C 0.77218 0.06839 0.60186 0.0
H381 H 0.78268 0.99017 0.61713 0.0
C382 C 0.76747 0.02914 0.60298 0.0
C383 C 0.78691 0.0207 0.61673 0.0
H384 H 0.74983 0.00528 0.59291 0.0
H385 H 0.90151 0.02406 0.69845 0.0
H386 H 0.85578 0.03177 0.67798 0.0
H387 H 0.90392 0.99403 0.6337 0.0
H388 H 0.94936 0.98586 0.65421 0.0
H389 H 0.8448 0.00292 0.62814 0.0
H390 H 0.84365 0.06384 0.65574 0.0
H391 H 0.83309 0.11405 0.63889 0.0
H392 H 0.79903 0.12885 0.61484 0.0
C393 C 0.91005 0.9334 0.00092 0.0
C394 C 0.94838 0.9388 0.99577 0.0
C395 C 0.87425 0.90772 0.99078 0.0
C396 C 0.87612 0.88715 0.97512 0.0
C397 C 0.91459 0.89286 0.97001 0.0
C398 C 0.95024 0.91829 0.98019 0.0
C399 C 0.83922 0.85898 0.96379 0.0
C400 C 0.80129 0.85404 0.96567 0.0
C401 C 0.76596 0.82669 0.95347 0.0
C402 C 0.73436 0.83556 0.95086 0.0
C403 C 0.70211 0.81212 0.93861 0.0
C404 C 0.70059 0.77904 0.92879 0.0
H405 H 0.78606 0.78335 0.94647 0.0
C406 C 0.73117 0.76897 0.93206 0.0
C407 C 0.7633 0.79231 0.94432 0.0
H408 H 0.73113 0.74383 0.92471 0.0
H409 H 0.90755 0.94855 0.01295 0.0
H410 H 0.84544 0.90392 0.99551 0.0
H411 H 0.91714 0.87744 0.95807 0.0
H412 H 0.97926 0.92174 0.97584 0.0
H413 H 0.84426 0.84261 0.95286 0.0
H414 H 0.79612 0.87227 0.97561 0.0
H415 H 0.73521 0.8614 0.95795 0.0
H416 H 0.67864 0.82025 0.93666 0.0
C417 C 0.02074 0.9279 0.32555 0.0
C418 C 0.98909 0.92927 0.33493 0.0
C419 C 0.01217 0.89366 0.31471 0.0
C420 C 0.97168 0.85966 0.31312 0.0
C421 C 0.94001 0.8613 0.32234 0.0
C422 C 0.94858 0.89565 0.33316 0.0
C423 C 0.96091 0.82278 0.3015 0.0
C424 C 0.98867 0.81259 0.29581 0.0
C425 C 0.97795 0.77715 0.28333 0.0
C426 C 0.00851 0.77908 0.27199 0.0
C427 C 0.99935 0.74723 0.25951 0.0
C428 C 0.95944 0.71236 0.25827 0.0
H429 H 0.91439 0.7384 0.29148 0.0
C430 C 0.92923 0.70973 0.2701 0.0
C431 C 0.93835 0.74174 0.2825 0.0
H432 H 0.89847 0.68288 0.2698 0.0
H433 H 0.05225 0.95347 0.32646 0.0
H434 H 0.03738 0.89462 0.3074 0.0
H435 H 0.90847 0.83581 0.32124 0.0
H436 H 0.92345 0.89575 0.34017 0.0
H437 H 0.92873 0.80357 0.29741 0.0
H438 H 0.02093 0.83162 0.29974 0.0
H439 H 0.03936 0.80587 0.27243 0.0
H440 H 0.02328 0.75055 0.2505 0.0
C441 C 0.1452 0.9559 0.68572 0.0
C442 C 0.10964 0.95529 0.67946 0.0
C443 C 0.17322 0.95499 0.6737 0.0
C444 C 0.16632 0.95376 0.65514 0.0
C445 C 0.12967 0.95094 0.64899 0.0
C446 C 0.10172 0.95179 0.66096 0.0
C447 C 0.19678 0.95692 0.64165 0.0
C448 C 0.2373 0.97242 0.64528 0.0
C449 C 0.26869 0.9826 0.63117 0.0
C450 C 0.31021 0.01142 0.63537 0.0
C451 C 0.3401 0.02531 0.62214 0.0
C452 C 0.32916 0.0107 0.60434 0.0
H453 H 0.22705 0.9425 0.60982 0.0
C454 C 0.28801 0.98016 0.60033 0.0
C455 C 0.25822 0.96598 0.61359 0.0
H456 H 0.2783 0.96814 0.58679 0.0
H457 H 0.15192 0.95803 0.6999 0.0
H458 H 0.20025 0.95567 0.67908 0.0
H459 H 0.1232 0.94944 0.6348 0.0
H460 H 0.07444 0.95084 0.65566 0.0
H461 H 0.18577 0.95005 0.6279 0.0
H462 H 0.24891 0.9821 0.65887 0.0
H463 H 0.31941 0.02429 0.64884 0.0
H464 H 0.37167 0.04805 0.62583 0.0
C465 C 0.14003 0.10933 0.99558 0.0
C466 C 0.14792 0.11342 0.01409 0.0
C467 C 0.1657 0.14089 0.98435 0.0
C468 C 0.19984 0.1773 0.9914 0.0
C469 C 0.20922 0.18035 0.00972 0.0
C470 C 0.18335 0.14884 0.021 0.0
C471 C 0.22539 0.21275 0.97999 0.0
C472 C 0.20872 0.22205 0.96628 0.0
C473 C 0.23216 0.25794 0.9548 0.0
C474 C 0.21008 0.27209 0.94515 0.0
C475 C 0.23016 0.3041 0.93337 0.0
C476 C 0.27288 0.32259 0.9308 0.0
H477 H 0.29311 0.2663 0.95939 0.0
C478 C 0.29522 0.30885 0.94061 0.0
C479 C 0.2751 0.27684 0.9525 0.0
H480 H 0.32819 0.32253 0.93892 0.0
H481 H 0.11329 0.08225 0.98978 0.0
H482 H 0.15845 0.13689 0.97018 0.0
H483 H 0.2357 0.20784 0.01542 0.0
H484 H 0.1905 0.15281 0.03518 0.0
H485 H 0.25753 0.23315 0.98386 0.0
H486 H 0.17561 0.20349 0.96377 0.0
H487 H 0.17696 0.25792 0.94656 0.0
H488 H 0.21189 0.31338 0.92579 0.0
C489 C 0.09353 0.16543 0.33009 0.0
C490 C 0.08893 0.12933 0.32189 0.0
C491 C 0.09511 0.19649 0.31979 0.0
C492 C 0.09172 0.1919 0.30104 0.0
C493 C 0.08967 0.15694 0.29286 0.0
C494 C 0.0882 0.12595 0.30315 0.0
C495 C 0.08846 0.22166 0.28954 0.0
C496 C 0.07485 0.24674 0.29542 0.0
C497 C 0.06426 0.27082 0.28335 0.0
C498 C 0.03616 0.28252 0.28926 0.0
C499 C 0.02202 0.30145 0.2778 0.0
C500 C 0.03583 0.30933 0.26014 0.0
H501 H 0.10281 0.27393 0.26109 0.0
C502 C 0.06571 0.29972 0.25453 0.0
C503 C 0.07997 0.28092 0.26601 0.0
H504 H 0.07703 0.30527 0.24101 0.0
H505 H 0.09485 0.16931 0.34451 0.0
H506 H 0.09845 0.22366 0.32664 0.0
H507 H 0.0876 0.15279 0.27845 0.0
H508 H 0.08502 0.09872 0.29639 0.0
H509 H 0.09319 0.21936 0.27537 0.0
H510 H 0.06687 0.24649 0.30935 0.0
H511 H 0.02399 0.27575 0.30263 0.0
H512 H 0.99968 0.30925 0.28269 0.0
loop_
_geom_bond_atom_site_label_1
_geom_bond_atom_site_label_2
_geom_bond_distance
_geom_bond_site_symmetry_2
_ccdc_geom_bond_type
C0 O1 1.160 . S
C0 O7 1.185 . S
O1 C0 1.160 . S
O2 Zn3 1.899 . S
O2 C10 1.284 . S
Zn3 O2 1.899 . S
Zn3 O4 2.032 1_445 S
Zn3 O7 2.086 1_545 S
Zn3 O12 1.977 . S
O4 Zn3 2.032 1_665 S
O4 C8 1.278 . S
C5 O6 1.203 . S
C5 O12 1.267 . S
O6 C5 1.203 . S
O7 C0 1.185 . S
O7 Zn3 2.086 1_565 S
C8 O4 1.278 . S
C8 O9 1.211 1_565 S
O9 C8 1.211 1_545 S
C10 O2 1.284 . S
C10 O11 1.273 1_455 S
O11 C10 1.273 1_655 S
O12 Zn3 1.977 . S
O12 C5 1.267 . S
C13 O14 1.160 . S
C13 O20 1.185 . S
O14 C13 1.160 . S
O15 Zn16 1.899 . S
O15 C23 1.284 1_545 S
Zn16 O15 1.899 . S
Zn16 O17 2.032 1_455 S
Zn16 O20 2.086 . S
Zn16 O25 1.977 . S
O17 Zn16 2.032 1_655 S
O17 C21 1.278 . S
C18 O19 1.203 . S
C18 O25 1.267 . S
O19 C18 1.203 . S
O20 C13 1.185 . S
O20 Zn16 2.086 . S
C21 O17 1.278 . S
C21 O22 1.211 . S
O22 C21 1.211 . S
C23 O15 1.284 1_565 S
C23 O24 1.273 1_455 S
O24 C23 1.273 1_655 S
O25 Zn16 1.977 . S
O25 C18 1.267 . S
C26 O27 1.160 1_565 S
C26 O33 1.185 . S
O27 C26 1.160 1_545 S
O28 Zn29 1.899 1_655 S
O28 C36 1.284 1_565 S
Zn29 O28 1.899 1_455 S
Zn29 O30 2.032 1_565 S
Zn29 O33 2.086 . S
Zn29 O38 1.977 1_455 S
O30 Zn29 2.032 1_545 S
O30 C34 1.278 . S
C31 O32 1.203 . S
C31 O38 1.267 . S
O32 C31 1.203 . S
O33 C26 1.185 . S
O33 Zn29 2.086 . S
C34 O30 1.278 . S
C34 O35 1.211 . S
O35 C34 1.211 . S
C36 O28 1.284 1_545 S
C36 O37 1.273 . S
O37 C36 1.273 . S
O38 Zn29 1.977 1_655 S
O38 C31 1.267 . S
H39 C66 0.929 . S
N40 C65 1.433 . S
N40 C71 1.435 . S
N40 C77 1.423 . S
H41 C67 0.930 . S
H42 C70 0.931 . S
H43 C69 0.929 . S
H44 C72 0.930 . S
H45 C73 0.932 . S
H46 C76 0.929 . S
H47 C75 0.931 . S
H48 C78 0.929 . S
H49 C82 0.932 . S
H50 C79 0.931 . S
H51 C81 0.929 1_455 S
H52 C84 0.929 . S
H53 C85 0.930 . S
H54 C87 0.929 . S
H55 C88 0.931 . S
H56 C90 0.930 . S
H57 C91 0.932 . S
H58 C93 0.931 . S
H59 C94 0.929 . S
H60 C96 0.929 . S
H61 C97 0.931 . S
H62 C99 0.929 1_455 S
N63 C83 1.433 . S
N63 C89 1.435 . S
N63 C95 1.423 . S
H64 C100 0.932 . S
C65 N40 1.433 . S
C65 C66 1.363 . S
C65 C70 1.370 1_655 S
C66 H39 0.929 . S
C66 C65 1.363 . S
C66 C67 1.385 . S
C67 H41 0.930 . S
C67 C66 1.385 . S
C67 C68 1.357 1_655 S
C68 C67 1.357 1_455 S
C68 C69 1.406 . S
C69 H43 0.929 . S
C69 C68 1.406 . S
C69 C70 1.391 . S
C70 H42 0.931 . S
C70 C65 1.370 1_455 S
C70 C69 1.391 . S
C71 N40 1.435 . S
C71 C72 1.358 1_655 S
C71 C76 1.371 . S
C72 H44 0.930 . S
C72 C71 1.358 1_455 S
C72 C73 1.405 . S
C73 H45 0.932 . S
C73 C72 1.405 . S
C73 C74 1.383 . S
C74 C73 1.383 . S
C74 C75 1.393 1_455 S
C75 H47 0.931 . S
C75 C74 1.393 1_655 S
C75 C76 1.382 . S
C76 H46 0.929 . S
C76 C71 1.371 . S
C76 C75 1.382 . S
C77 N40 1.423 . S
C77 C78 1.362 . S
C77 C82 1.388 1_655 S
C78 H48 0.929 . S
C78 C77 1.362 . S
C78 C79 1.376 . S
C79 H50 0.931 . S
C79 C78 1.376 . S
C79 C80 1.396 . S
C80 C79 1.396 . S
C80 C81 1.348 . S
C80 C98 1.472 . S
C81 H51 0.929 1_655 S
C81 C80 1.348 . S
C81 C82 1.443 1_655 S
C82 H49 0.932 . S
C82 C77 1.388 1_455 S
C82 C81 1.443 1_455 S
C83 N63 1.433 . S
C83 C84 1.363 . S
C83 C88 1.370 1_655 S
C84 H52 0.929 . S
C84 C83 1.363 . S
C84 C85 1.385 . S
C85 H53 0.930 . S
C85 C84 1.385 . S
C85 C86 1.357 1_655 S
C86 C85 1.357 1_455 S
C86 C87 1.406 . S
C87 H54 0.929 . S
C87 C86 1.406 . S
C87 C88 1.391 . S
C88 H55 0.931 . S
C88 C83 1.370 1_455 S
C88 C87 1.391 . S
C89 N63 1.435 . S
C89 C90 1.358 1_655 S
C89 C94 1.371 . S
C90 H56 0.930 . S
C90 C89 1.358 1_455 S
C90 C91 1.405 . S
C91 H57 0.932 . S
C91 C90 1.405 . S
C91 C92 1.383 . S
C92 C91 1.383 . S
C92 C93 1.393 1_455 S
C93 H58 0.931 . S
C93 C92 1.393 1_655 S
C93 C94 1.382 . S
C94 H59 0.929 . S
C94 C89 1.371 . S
C94 C93 1.382 . S
C95 N63 1.423 . S
C95 C96 1.362 . S
C95 C100 1.388 1_655 S
C96 H60 0.929 . S
C96 C95 1.362 . S
C96 C97 1.376 . S
C97 H61 0.931 . S
C97 C96 1.376 . S
C97 C98 1.396 . S
C98 C80 1.472 . S
C98 C97 1.396 . S
C98 C99 1.348 . S
C99 H62 0.929 1_655 S
C99 C98 1.348 . S
C99 C100 1.443 1_655 S
C100 H64 0.932 . S
C100 C95 1.388 1_455 S
C100 C99 1.443 1_455 S
H101 C128 0.929 . S
N102 C127 1.433 . S
N102 C133 1.435 . S
N102 C139 1.423 . S
H103 C129 0.930 . S
H104 C132 0.932 1_565 S
H105 C131 0.929 . S
H106 C134 0.930 . S
H107 C135 0.932 . S
H108 C138 0.929 . S
H109 C137 0.931 . S
H110 C140 0.929 . S
H111 C144 0.932 1_565 S
H112 C141 0.931 . S
H113 C143 0.929 . S
H114 C146 0.929 . S
H115 C147 0.930 . S
H116 C149 0.929 . S
H117 C150 0.925 1_565 S
H118 C152 0.930 . S
H119 C153 0.932 . S
H120 C155 0.931 . S
H121 C156 0.929 . S
H122 C158 0.929 . S
H123 C159 0.931 . S
H124 C161 0.929 . S
N125 C145 1.433 . S
N125 C151 1.435 . S
N125 C157 1.423 . S
H126 C162 0.932 1_565 S
C127 N102 1.433 . S
C127 C128 1.363 . S
C127 C132 1.372 . S
C128 H101 0.929 . S
C128 C127 1.363 . S
C128 C129 1.385 . S
C129 H103 0.930 . S
C129 C128 1.385 . S
C129 C130 1.357 . S
C130 C129 1.357 . S
C130 C131 1.406 1_545 S
C131 H105 0.929 . S
C131 C130 1.406 1_565 S
C131 C132 1.389 1_565 S
C132 H104 0.932 1_545 S
C132 C127 1.372 . S
C132 C131 1.389 1_545 S
C133 N102 1.435 . S
C133 C134 1.358 1_545 S
C133 C138 1.371 . S
C134 H106 0.930 . S
C134 C133 1.358 1_565 S
C134 C135 1.405 . S
C135 H107 0.932 . S
C135 C134 1.405 . S
C135 C136 1.383 1_565 S
C136 C135 1.383 1_545 S
C136 C137 1.393 . S
C137 H109 0.931 . S
C137 C136 1.393 . S
C137 C138 1.382 . S
C138 H108 0.929 . S
C138 C133 1.371 . S
C138 C137 1.382 . S
C139 N102 1.423 . S
C139 C140 1.362 . S
C139 C144 1.388 . S
C140 H110 0.929 . S
C140 C139 1.362 . S
C140 C141 1.376 . S
C141 H112 0.931 . S
C141 C140 1.376 . S
C141 C142 1.396 . S
C142 C141 1.396 . S
C142 C143 1.348 . S
C142 C160 1.472 . S
C143 H113 0.929 . S
C143 C142 1.348 . S
C143 C144 1.443 . S
C144 H111 0.932 1_545 S
C144 C139 1.388 . S
C144 C143 1.443 . S
C145 N125 1.433 . S
C145 C146 1.363 . S
C145 C150 1.376 . S
C146 H114 0.929 . S
C146 C145 1.363 . S
C146 C147 1.385 . S
C147 H115 0.930 . S
C147 C146 1.385 . S
C147 C148 1.357 . S
C148 C147 1.357 . S
C148 C149 1.406 1_545 S
C149 H116 0.929 . S
C149 C148 1.406 1_565 S
C149 C150 1.392 1_565 S
C150 H117 0.925 1_545 S
C150 C145 1.376 . S
C150 C149 1.392 1_545 S
C151 N125 1.435 . S
C151 C152 1.358 1_545 S
C151 C156 1.371 . S
C152 H118 0.930 . S
C152 C151 1.358 1_565 S
C152 C153 1.405 . S
C153 H119 0.932 . S
C153 C152 1.405 . S
C153 C154 1.383 1_565 S
C154 C153 1.383 1_545 S
C154 C155 1.393 . S
C155 H120 0.931 . S
C155 C154 1.393 . S
C155 C156 1.382 . S
C156 H121 0.929 . S
C156 C151 1.371 . S
C156 C155 1.382 . S
C157 N125 1.423 . S
C157 C158 1.362 . S
C157 C162 1.388 . S
C158 H122 0.929 . S
C158 C157 1.362 . S
C158 C159 1.376 . S
C159 H123 0.931 . S
C159 C158 1.376 . S
C159 C160 1.396 . S
C160 C142 1.472 . S
C160 C159 1.396 . S
C160 C161 1.348 . S
C161 H124 0.929 . S
C161 C160 1.348 . S
C161 C162 1.443 . S
C162 H126 0.932 1_545 S
C162 C157 1.388 . S
C162 C161 1.443 . S
H163 C190 0.929 . S
N164 C189 1.433 . S
N164 C195 1.435 . S
N164 C201 1.423 . S
H165 C191 0.930 . S
H166 C194 0.931 . S
H167 C193 0.929 . S
H168 C196 0.930 . S
H169 C197 0.932 . S
H170 C200 0.929 . S
H171 C199 0.931 . S
H172 C202 0.929 . S
H173 C206 0.932 . S
H174 C203 0.931 . S
H175 C205 0.929 . S
H176 C208 0.929 . S
H177 C209 0.930 . S
H178 C211 0.929 . S
H179 C212 0.931 . S
H180 C214 0.930 . S
H181 C215 0.932 . S
H182 C217 0.931 . S
H183 C218 0.929 . S
H184 C220 0.929 . S
H185 C221 0.931 . S
H186 C223 0.929 . S
N187 C207 1.433 . S
N187 C213 1.435 . S
N187 C219 1.423 . S
H188 C224 0.932 . S
C189 N164 1.433 . S
C189 C190 1.363 . S
C189 C194 1.370 . S
C190 H163 0.929 . S
C190 C189 1.363 . S
C190 C191 1.385 . S
C191 H165 0.930 . S
C191 C190 1.385 . S
C191 C192 1.357 . S
C192 C191 1.357 . S
C192 C193 1.406 . S
C193 H167 0.929 . S
C193 C192 1.406 . S
C193 C194 1.391 . S
C194 H166 0.931 . S
C194 C189 1.370 . S
C194 C193 1.391 . S
C195 N164 1.435 . S
C195 C196 1.358 . S
C195 C200 1.371 . S
C196 H168 0.930 . S
C196 C195 1.358 . S
C196 C197 1.405 . S
C197 H169 0.932 . S
C197 C196 1.405 . S
C197 C198 1.383 . S
C198 C197 1.383 . S
C198 C199 1.393 . S
C199 H171 0.931 . S
C199 C198 1.393 . S
C199 C200 1.382 . S
C200 H170 0.929 . S
C200 C195 1.371 . S
C200 C199 1.382 . S
C201 N164 1.423 . S
C201 C202 1.362 . S
C201 C206 1.388 . S
C202 H172 0.929 . S
C202 C201 1.362 . S
C202 C203 1.376 . S
C203 H174 0.931 . S
C203 C202 1.376 . S
C203 C204 1.396 . S
C204 C203 1.396 . S
C204 C205 1.348 . S
C204 C222 1.472 . S
C205 H175 0.929 . S
C205 C204 1.348 . S
C205 C206 1.443 . S
C206 H173 0.932 . S
C206 C201 1.388 . S
C206 C205 1.443 . S
C207 N187 1.433 . S
C207 C208 1.363 . S
C207 C212 1.370 . S
C208 H176 0.929 . S
C208 C207 1.363 . S
C208 C209 1.385 . S
C209 H177 0.930 . S
C209 C208 1.385 . S
C209 C210 1.357 . S
C210 C209 1.357 . S
C210 C211 1.406 . S
C211 H178 0.929 . S
C211 C210 1.406 . S
C211 C212 1.391 . S
C212 H179 0.931 . S
C212 C207 1.370 . S
C212 C211 1.391 . S
C213 N187 1.435 . S
C213 C214 1.358 . S
C213 C218 1.371 . S
C214 H180 0.930 . S
C214 C213 1.358 . S
C214 C215 1.405 . S
C215 H181 0.932 . S
C215 C214 1.405 . S
C215 C216 1.383 . S
C216 C215 1.383 . S
C216 C217 1.393 . S
C217 H182 0.931 . S
C217 C216 1.393 . S
C217 C218 1.382 . S
C218 H183 0.929 . S
C218 C213 1.371 . S
C218 C217 1.382 . S
C219 N187 1.423 . S
C219 C220 1.362 . S
C219 C224 1.388 . S
C220 H184 0.929 . S
C220 C219 1.362 . S
C220 C221 1.376 . S
C221 H185 0.931 . S
C221 C220 1.376 . S
C221 C222 1.396 . S
C222 C204 1.472 . S
C222 C221 1.396 . S
C222 C223 1.348 . S
C223 H186 0.929 . S
C223 C222 1.348 . S
C223 C224 1.443 . S
C224 H188 0.932 . S
C224 C219 1.388 . S
C224 C223 1.443 . S
C225 C226 1.377 . S
C225 C227 1.383 . S
C225 H241 0.951 . S
C226 C225 1.377 . S
C226 C230 1.379 1_455 S
C227 C225 1.383 . S
C227 C228 1.402 1_455 S
C227 H242 0.951 . S
C228 C227 1.402 1_655 S
C228 C229 1.375 . S
C228 C231 1.481 . S
C229 C228 1.375 . S
C229 C230 1.367 . S
C229 H243 0.951 . S
C230 C226 1.379 1_655 S
C230 C229 1.367 . S
C230 H244 0.950 . S
C231 C228 1.481 . S
C231 C232 1.297 . S
C231 H245 0.950 . S
C232 C231 1.297 . S
C232 C233 1.479 . S
C232 H246 0.950 . S
C233 C232 1.479 . S
C233 C234 1.375 1_655 S
C233 C239 1.404 . S
C234 C233 1.375 1_455 S
C234 C235 1.369 . S
C234 H247 0.950 . S
C235 C234 1.369 . S
C235 C236 1.390 1_455 S
C235 H248 0.951 . S
C236 C235 1.390 1_655 S
C236 C238 1.382 . S
H237 C239 0.949 . S
C238 C236 1.382 . S
C238 C239 1.385 . S
C238 H240 0.950 . S
C239 C233 1.404 . S
C239 H237 0.949 . S
C239 C238 1.385 . S
H240 C238 0.950 . S
H241 C225 0.951 . S
H242 C227 0.951 . S
H243 C229 0.951 . S
H244 C230 0.950 . S
H245 C231 0.950 . S
H246 C232 0.950 . S
H247 C234 0.950 . S
H248 C235 0.951 . S
C249 C250 1.386 1_565 S
C249 C251 1.383 . S
C249 H265 0.951 . S
C250 C249 1.386 1_545 S
C250 C254 1.383 . S
C251 C249 1.383 . S
C251 C252 1.402 1_565 S
C251 H266 0.951 . S
C252 C251 1.402 1_545 S
C252 C253 1.375 . S
C252 C255 1.481 . S
C253 C252 1.375 . S
C253 C254 1.367 . S
C253 H267 0.951 . S
C254 C250 1.383 . S
C254 C253 1.367 . S
C254 H268 0.950 . S
C255 C252 1.481 . S
C255 C256 1.297 . S
C255 H269 0.950 . S
C256 C255 1.297 . S
C256 C257 1.479 . S
C256 H270 0.950 1_545 S
C257 C256 1.479 . S
C257 C258 1.375 1_545 S
C257 C263 1.404 . S
C258 C257 1.375 1_565 S
C258 C259 1.369 . S
C258 H271 0.950 . S
C259 C258 1.369 . S
C259 C260 1.392 1_565 S
C259 H272 0.951 . S
C260 C259 1.392 1_545 S
C260 C262 1.384 . S
H261 C263 0.949 . S
C262 C260 1.384 . S
C262 C263 1.385 . S
C262 H264 0.950 . S
C263 C257 1.404 . S
C263 H261 0.949 . S
C263 C262 1.385 . S
H264 C262 0.950 . S
H265 C249 0.951 . S
H266 C251 0.951 . S
H267 C253 0.951 . S
H268 C254 0.950 . S
H269 C255 0.950 . S
H270 C256 0.950 1_565 S
H271 C258 0.950 . S
H272 C259 0.951 . S
C273 C274 1.386 . S
C273 C275 1.383 . S
C273 H289 0.951 . S
C274 C273 1.386 . S
C274 C278 1.383 . S
C275 C273 1.383 . S
C275 C276 1.402 . S
C275 H290 0.951 . S
C276 C275 1.402 . S
C276 C277 1.375 . S
C276 C279 1.481 . S
C277 C276 1.375 . S
C277 C278 1.367 . S
C277 H291 0.951 . S
C278 C274 1.383 . S
C278 C277 1.367 . S
C278 H292 0.950 . S
C279 C276 1.481 . S
C279 C280 1.297 . S
C279 H293 0.950 . S
C280 C279 1.297 . S
C280 C281 1.479 . S
C280 H294 0.950 . S
C281 C280 1.479 . S
C281 C282 1.375 . S
C281 C287 1.404 . S
C282 C281 1.375 . S
C282 C283 1.369 . S
C282 H295 0.950 . S
C283 C282 1.369 . S
C283 C284 1.392 . S
C283 H296 0.951 . S
C284 C283 1.392 . S
C284 C286 1.384 . S
H285 C287 0.949 . S
C286 C284 1.384 . S
C286 C287 1.385 . S
C286 H288 0.950 . S
C287 C281 1.404 . S
C287 H285 0.949 . S
C287 C286 1.385 . S
H288 C286 0.950 . S
H289 C273 0.951 . S
H290 C275 0.951 . S
H291 C277 0.951 . S
H292 C278 0.950 . S
H293 C279 0.950 . S
H294 C280 0.950 . S
H295 C282 0.950 . S
H296 C283 0.951 . S
C297 C298 1.386 . S
C297 C299 1.383 . S
C297 H313 0.951 1_455 S
C298 C297 1.386 . S
C298 C302 1.383 . S
C299 C297 1.383 . S
C299 C300 1.402 . S
C299 H314 0.951 1_455 S
C300 C299 1.402 . S
C300 C301 1.375 . S
C300 C303 1.481 . S
C301 C300 1.375 . S
C301 C302 1.367 . S
C301 H315 0.951 . S
C302 C298 1.383 . S
C302 C301 1.367 . S
C302 H316 0.950 . S
C303 C300 1.481 . S
C303 C304 1.297 . S
C303 H317 0.950 . S
C304 C303 1.297 . S
C304 C305 1.479 . S
C304 H318 0.950 1_455 S
C305 C304 1.479 . S
C305 C306 1.375 1_455 S
C305 C311 1.404 . S
C306 C305 1.375 1_655 S
C306 C307 1.369 . S
C306 H319 0.950 . S
C307 C306 1.369 . S
C307 C308 1.392 1_655 S
C307 H320 0.951 . S
C308 C307 1.392 1_455 S
C308 C310 1.384 . S
H309 C311 0.949 . S
C310 C308 1.384 . S
C310 C311 1.385 . S
C310 H312 0.950 . S
C311 C305 1.404 . S
C311 H309 0.949 . S
C311 C310 1.385 . S
H312 C310 0.950 . S
H313 C297 0.951 1_655 S
H314 C299 0.951 1_655 S
H315 C301 0.951 . S
H316 C302 0.950 . S
H317 C303 0.950 . S
H318 C304 0.950 1_655 S
H319 C306 0.950 . S
H320 C307 0.951 . S
C321 C322 1.386 . S
C321 C323 1.383 . S
C321 H337 0.951 . S
C322 C321 1.386 . S
C322 C326 1.383 . S
C323 C321 1.383 . S
C323 C324 1.402 . S
C323 H338 0.951 . S
C324 C323 1.402 . S
C324 C325 1.375 . S
C324 C327 1.481 . S
C325 C324 1.375 . S
C325 C326 1.367 . S
C325 H339 0.951 1_545 S
C326 C322 1.383 . S
C326 C325 1.367 . S
C326 H340 0.950 . S
C327 C324 1.481 . S
C327 C328 1.297 . S
C327 H341 0.950 . S
C328 C327 1.297 . S
C328 C329 1.479 . S
C328 H342 0.950 . S
C329 C328 1.479 . S
C329 C330 1.375 . S
C329 C335 1.404 . S
C330 C329 1.375 . S
C330 C331 1.369 . S
C330 H343 0.950 . S
C331 C330 1.369 . S
C331 C332 1.392 . S
C331 H344 0.951 . S
C332 C331 1.392 . S
C332 C334 1.384 . S
H333 C335 0.949 . S
C334 C332 1.384 . S
C334 C335 1.385 . S
C334 H336 0.950 1_545 S
C335 C329 1.404 . S
C335 H333 0.949 . S
C335 C334 1.385 . S
H336 C334 0.950 1_565 S
H337 C321 0.951 . S
H338 C323 0.951 . S
H339 C325 0.951 1_565 S
H340 C326 0.950 . S
H341 C327 0.950 . S
H342 C328 0.950 . S
H343 C330 0.950 . S
H344 C331 0.951 . S
C345 C346 1.386 . S
C345 C347 1.383 . S
C345 H361 0.951 . S
C346 C345 1.386 . S
C346 C350 1.383 . S
C347 C345 1.383 . S
C347 C348 1.402 . S
C347 H362 0.951 . S
C348 C347 1.402 . S
C348 C349 1.375 . S
C348 C351 1.481 . S
C349 C348 1.375 . S
C349 C350 1.367 . S
C349 H363 0.951 . S
C350 C346 1.383 . S
C350 C349 1.367 . S
C350 H364 0.950 . S
C351 C348 1.481 . S
C351 C352 1.297 . S
C351 H365 0.950 . S
C352 C351 1.297 . S
C352 C353 1.479 . S
C352 H366 0.950 . S
C353 C352 1.479 . S
C353 C354 1.375 . S
C353 C359 1.404 . S
C354 C353 1.375 . S
C354 C355 1.369 . S
C354 H367 0.950 . S
C355 C354 1.369 . S
C355 C356 1.392 . S
C355 H368 0.951 . S
C356 C355 1.392 . S
C356 C358 1.384 . S
H357 C359 0.949 . S
C358 C356 1.384 . S
C358 C359 1.385 . S
C358 H360 0.950 . S
C359 C353 1.404 . S
C359 H357 0.949 . S
C359 C358 1.385 . S
H360 C358 0.950 . S
H361 C345 0.951 . S
H362 C347 0.951 . S
H363 C349 0.951 . S
H364 C350 0.950 . S
H365 C351 0.950 . S
H366 C352 0.950 . S
H367 C354 0.950 . S
H368 C355 0.951 . S
C369 C370 1.386 . S
C369 C371 1.383 . S
C369 H385 0.951 . S
C370 C369 1.386 . S
C370 C374 1.383 1_545 S
C371 C369 1.383 . S
C371 C372 1.402 . S
C371 H386 0.951 . S
C372 C371 1.402 . S
C372 C373 1.375 1_545 S
C372 C375 1.481 1_545 S
C373 C372 1.375 1_565 S
C373 C374 1.367 . S
C373 H387 0.951 . S
C374 C370 1.383 1_565 S
C374 C373 1.367 . S
C374 H388 0.950 . S
C375 C372 1.481 1_565 S
C375 C376 1.297 1_565 S
C375 H389 0.950 . S
C376 C375 1.297 1_545 S
C376 C377 1.479 . S
C376 H390 0.950 . S
C377 C376 1.479 . S
C377 C378 1.375 . S
C377 C383 1.404 1_545 S
C378 C377 1.375 . S
C378 C379 1.369 . S
C378 H391 0.950 . S
C379 C378 1.369 . S
C379 C380 1.392 . S
C379 H392 0.951 . S
C380 C379 1.392 . S
C380 C382 1.384 1_545 S
H381 C383 0.949 . S
C382 C380 1.384 1_565 S
C382 C383 1.385 . S
C382 H384 0.950 . S
C383 C377 1.404 1_565 S
C383 H381 0.949 . S
C383 C382 1.385 . S
H384 C382 0.950 . S
H385 C369 0.951 . S
H386 C371 0.951 . S
H387 C373 0.951 . S
H388 C374 0.950 . S
H389 C375 0.950 . S
H390 C376 0.950 . S
H391 C378 0.950 . S
H392 C379 0.951 . S
C393 C394 1.386 . S
C393 C395 1.398 . S
C393 H409 0.951 . S
C394 C393 1.386 . S
C394 C398 1.383 1_554 S
C395 C393 1.398 . S
C395 C396 1.378 1_554 S
C395 H410 0.959 . S
C396 C395 1.378 1_556 S
C396 C397 1.375 . S
C396 C399 1.481 . S
C397 C396 1.375 . S
C397 C398 1.367 . S
C397 H411 0.951 . S
C398 C394 1.383 1_556 S
C398 C397 1.367 . S
C398 H412 0.950 . S
C399 C396 1.481 . S
C399 C400 1.297 . S
C399 H413 0.950 . S
C400 C399 1.297 . S
C400 C401 1.479 . S
C400 H414 0.950 . S
C401 C400 1.479 . S
C401 C402 1.375 . S
C401 C407 1.404 . S
C402 C401 1.375 . S
C402 C403 1.369 . S
C402 H415 0.950 . S
C403 C402 1.369 . S
C403 C404 1.392 . S
C403 H416 0.951 . S
C404 C403 1.392 . S
C404 C406 1.384 . S
H405 C407 0.949 . S
C406 C404 1.384 . S
C406 C407 1.385 . S
C406 H408 0.950 . S
C407 C401 1.404 . S
C407 H405 0.949 . S
C407 C406 1.385 . S
H408 C406 0.950 . S
H409 C393 0.951 . S
H410 C395 0.959 . S
H411 C397 0.951 . S
H412 C398 0.950 . S
H413 C399 0.950 . S
H414 C400 0.950 . S
H415 C402 0.950 . S
H416 C403 0.951 . S
C417 C418 1.386 . S
C417 C419 1.383 . S
C417 H433 0.951 . S
C418 C417 1.386 . S
C418 C422 1.383 . S
C419 C417 1.383 . S
C419 C420 1.402 . S
C419 H434 0.951 . S
C420 C419 1.402 . S
C420 C421 1.375 . S
C420 C423 1.481 . S
C421 C420 1.375 . S
C421 C422 1.367 . S
C421 H435 0.951 . S
C422 C418 1.383 . S
C422 C421 1.367 . S
C422 H436 0.950 . S
C423 C420 1.481 . S
C423 C424 1.297 . S
C423 H437 0.950 . S
C424 C423 1.297 . S
C424 C425 1.479 . S
C424 H438 0.950 . S
C425 C424 1.479 . S
C425 C426 1.375 . S
C425 C431 1.404 . S
C426 C425 1.375 . S
C426 C427 1.369 . S
C426 H439 0.950 . S
C427 C426 1.369 . S
C427 C428 1.392 . S
C427 H440 0.951 . S
C428 C427 1.392 . S
C428 C430 1.384 . S
H429 C431 0.949 . S
C430 C428 1.384 . S
C430 C431 1.385 . S
C430 H432 0.950 . S
C431 C425 1.404 . S
C431 H429 0.949 . S
C431 C430 1.385 . S
H432 C430 0.950 . S
H433 C417 0.951 . S
H434 C419 0.951 . S
H435 C421 0.951 . S
H436 C422 0.950 . S
H437 C423 0.950 . S
H438 C424 0.950 . S
H439 C426 0.950 . S
H440 C427 0.951 . S
C441 C442 1.386 1_545 S
C441 C443 1.383 . S
C441 H457 0.951 . S
C442 C441 1.386 1_565 S
C442 C446 1.383 . S
C443 C441 1.383 . S
C443 C444 1.402 1_545 S
C443 H458 0.951 . S
C444 C443 1.402 1_565 S
C444 C445 1.375 . S
C444 C447 1.481 . S
C445 C444 1.375 . S
C445 C446 1.367 . S
C445 H459 0.951 . S
C446 C442 1.383 . S
C446 C445 1.367 . S
C446 H460 0.950 . S
C447 C444 1.481 . S
C447 C448 1.297 . S
C447 H461 0.950 . S
C448 C447 1.297 . S
C448 C449 1.479 . S
C448 H462 0.948 1_565 S
C449 C448 1.479 . S
C449 C450 1.375 1_565 S
C449 C455 1.404 . S
C450 C449 1.375 1_545 S
C450 C451 1.369 . S
C450 H463 0.950 . S
C451 C450 1.369 . S
C451 C452 1.403 . S
C451 H464 0.951 . S
C452 C451 1.403 . S
C452 C454 1.380 1_545 S
H453 C455 0.949 . S
C454 C452 1.380 1_565 S
C454 C455 1.385 . S
C454 H456 0.950 . S
C455 C449 1.404 . S
C455 H453 0.949 . S
C455 C454 1.385 . S
H456 C454 0.950 . S
H457 C441 0.951 . S
H458 C443 0.951 . S
H459 C445 0.951 . S
H460 C446 0.950 . S
H461 C447 0.950 . S
H462 C448 0.948 1_545 S
H463 C450 0.950 . S
H464 C451 0.951 . S
C465 C466 1.386 1_556 S
C465 C467 1.383 . S
C465 H481 0.951 . S
C466 C465 1.386 1_554 S
C466 C470 1.383 . S
C467 C465 1.383 . S
C467 C468 1.402 . S
C467 H482 0.951 . S
C468 C467 1.402 . S
C468 C469 1.375 1_556 S
C468 C471 1.481 . S
C469 C468 1.375 1_554 S
C469 C470 1.367 . S
C469 H483 0.951 . S
C470 C466 1.383 . S
C470 C469 1.367 . S
C470 H484 0.950 . S
C471 C468 1.481 . S
C471 C472 1.297 . S
C471 H485 0.950 . S
C472 C471 1.297 . S
C472 C473 1.479 . S
C472 H486 0.950 . S
C473 C472 1.479 . S
C473 C474 1.375 . S
C473 C479 1.404 . S
C474 C473 1.375 . S
C474 C475 1.369 . S
C474 H487 0.950 . S
C475 C474 1.369 . S
C475 C476 1.392 . S
C475 H488 0.951 . S
C476 C475 1.392 . S
C476 C478 1.384 . S
H477 C479 0.949 . S
C478 C476 1.384 . S
C478 C479 1.385 . S
C478 H480 0.950 . S
C479 C473 1.404 . S
C479 H477 0.949 . S
C479 C478 1.385 . S
H480 C478 0.950 . S
H481 C465 0.951 . S
H482 C467 0.951 . S
H483 C469 0.951 . S
H484 C470 0.950 . S
H485 C471 0.950 . S
H486 C472 0.950 . S
H487 C474 0.950 . S
H488 C475 0.951 . S
C489 C490 1.386 . S
C489 C491 1.383 . S
C489 H505 0.951 . S
C490 C489 1.386 . S
C490 C494 1.383 . S
C491 C489 1.383 . S
C491 C492 1.402 . S
C491 H506 0.951 . S
C492 C491 1.402 . S
C492 C493 1.375 . S
C492 C495 1.481 . S
C493 C492 1.375 . S
C493 C494 1.367 . S
C493 H507 0.951 . S
C494 C490 1.383 . S
C494 C493 1.367 . S
C494 H508 0.950 . S
C495 C492 1.481 . S
C495 C496 1.297 . S
C495 H509 0.950 . S
C496 C495 1.297 . S
C496 C497 1.479 . S
C496 H510 0.950 . S
C497 C496 1.479 . S
C497 C498 1.375 . S
C497 C503 1.404 . S
C498 C497 1.375 . S
C498 C499 1.369 . S
C498 H511 0.950 . S
C499 C498 1.369 . S
C499 C500 1.392 . S
C499 H512 0.951 . S
C500 C499 1.392 . S
C500 C502 1.384 . S
H501 C503 0.949 . S
C502 C500 1.384 . S
C502 C503 1.385 . S
C502 H504 0.950 . S
C503 C497 1.404 . S
C503 H501 0.949 . S
C503 C502 1.385 . S
H504 C502 0.950 . S
H505 C489 0.951 . S
H506 C491 0.951 . S
H507 C493 0.951 . S
H508 C494 0.950 . S
H509 C495 0.950 . S
H510 C496 0.950 . S
H511 C498 0.950 . S
H512 C499 0.951 . S
C236 C92 1.236 1_655 S
C226 C10 1.255 . S
C250 C21 1.255 . S
C260 C136 1.268 . S
C274 C31 1.226 . S
C284 C198 1.303 . S
C298 C0 1.269 . S
C308 C74 1.288 . S
C332 C154 1.257 . S
C322 C18 1.252 . S
C346 C34 1.270 . S
C356 C216 1.264 . S
C380 C130 1.404 . S
C370 C36 1.572 . S
C394 C8 1.600 . S
C404 C192 1.498 . S
C428 C68 1.512 . S
C418 C23 1.594 . S
C452 C148 1.519 . S
C442 C26 1.549 . S
C476 C210 1.550 . S
C466 C5 1.553 . S
C490 C13 1.584 . S
C500 C86 1.522 . S
