# Generated by pormake.
# Topology rtl, (3,6)-cn, num edge types: 1
# Building blocks:
#     Node 0, Type 0, BuildingBlock: PAMTOO_clean_linker_0, # of connection points: 3
#     Node 1, Type 0, BuildingBlock: PAMTOO_clean_linker_0, # of connection points: 3
#     Node 2, Type 0, BuildingBlock: PAMTOO_clean_linker_0, # of connection points: 3
#     Node 3, Type 0, BuildingBlock: PAMTOO_clean_linker_0, # of connection points: 3
#     Node 4, Type 1, BuildingBlock: KUMJIN_clean_sbu_1, # of connection points: 6
#     Node 5, Type 1, BuildingBlock: KUMJIN_clean_sbu_1, # of connection points: 6
#     Edge 6, Type (0, 1), BuildingBlock: TEMPAE_clean_linker_10, # of connection points: 2
#     Edge 7, Type (0, 1), BuildingBlock: TEMPAE_clean_linker_10, # of connection points: 2
#     Edge 8, Type (0, 1), BuildingBlock: TEMPAE_clean_linker_10, # of connection points: 2
#     Edge 9, Type (0, 1), BuildingBlock: TEMPAE_clean_linker_10, # of connection points: 2
#     Edge 10, Type (0, 1), BuildingBlock: TEMPAE_clean_linker_10, # of connection points: 2
#     Edge 11, Type (0, 1), BuildingBlock: TEMPAE_clean_linker_10, # of connection points: 2
#     Edge 12, Type (0, 1), BuildingBlock: TEMPAE_clean_linker_10, # of connection points: 2
#     Edge 13, Type (0, 1), BuildingBlock: TEMPAE_clean_linker_10, # of connection points: 2
#     Edge 14, Type (0, 1), BuildingBlock: TEMPAE_clean_linker_10, # of connection points: 2
#     Edge 15, Type (0, 1), BuildingBlock: TEMPAE_clean_linker_10, # of connection points: 2
#     Edge 16, Type (0, 1), BuildingBlock: TEMPAE_clean_linker_10, # of connection points: 2
#     Edge 17, Type (0, 1), BuildingBlock: TEMPAE_clean_linker_10, # of connection points: 2
# Relax obj value: 0.052
# Max RMSD: 0.218
# Mean RMSD: 0.163
data_MOF--net-rtl--node1-KUMJIN_clean_sbu_1--node2-PAMTOO_clean_linker_0--edge1-TEMPAE_clean_linker_10
_symmetry_space_group_name_H-M    P1
_symmetry_Int_Tables_number       1
_symmetry_cell_setting            triclinic
loop_
_symmetry_equiv_pos_as_xyz
'x, y, z'
_cell_length_a     35.693174
_cell_length_b     35.957394
_cell_length_c     27.441305
_cell_angle_alpha  79.445777
_cell_angle_beta   99.406644
_cell_angle_gamma 91.358443
loop_
_atom_site_label
_atom_site_type_symbol
_atom_site_fract_x
_atom_site_fract_y
_atom_site_fract_z
_atom_type_partial_charge
H0 H 0.14787 0.87885 1.00234 0.0
H1 H 0.22658 0.79797 0.09802 0.0
H2 H 0.23298 0.82677 0.94111 0.0
H3 H 0.23215 0.74736 0.97877 0.0
C4 C 0.24899 0.74597 0.01696 0.0
O5 O 0.2589 0.78203 0.02493 0.0
H6 H 0.23111 0.73292 0.04515 0.0
C7 C 0.17197 0.86011 0.00685 0.0
C8 C 0.18863 0.8562 0.96494 0.0
C9 C 0.18594 0.84007 0.05507 0.0
C10 C 0.21609 0.81441 0.06129 0.0
C11 C 0.23208 0.80904 0.01971 0.0
C12 C 0.21921 0.83064 0.97218 0.0
H13 H 0.65626 0.63899 0.64876 0.0
H14 H 0.73252 0.71534 0.57485 0.0
H15 H 0.71848 0.72123 0.72587 0.0
H16 H 0.72954 0.79753 0.66034 0.0
C17 C 0.74448 0.78717 0.63283 0.0
O18 O 0.75449 0.74962 0.65087 0.0
H19 H 0.72477 0.78977 0.59645 0.0
C20 C 0.67632 0.66207 0.64945 0.0
C21 C 0.68475 0.67848 0.6927 0.0
C22 C 0.69306 0.67521 0.6067 0.0
C23 C 0.71923 0.70496 0.60748 0.0
C24 C 0.72861 0.72136 0.6505 0.0
C25 C 0.71141 0.70809 0.69306 0.0
H26 H 0.869 0.13543 0.08052 0.0
H27 H 0.79042 0.21719 0.98637 0.0
H28 H 0.80405 0.20673 0.14659 0.0
H29 H 0.72749 0.21206 0.10092 0.0
C30 C 0.72904 0.23177 0.06498 0.0
O31 O 0.76644 0.24071 0.06126 0.0
H32 H 0.71679 0.21757 0.03323 0.0
C33 C 0.84857 0.15797 0.07697 0.0
C34 C 0.83925 0.16881 0.12016 0.0
C35 C 0.83217 0.17592 0.02872 0.0
C36 C 0.80364 0.20325 0.02339 0.0
C37 C 0.79321 0.21372 0.06617 0.0
C38 C 0.81149 0.19713 0.11422 0.0
H39 H 0.37736 0.38114 0.44172 0.0
H40 H 0.30302 0.29766 0.50752 0.0
H41 H 0.3152 0.305 0.35363 0.0
H42 H 0.23765 0.27652 0.36999 0.0
C43 C 0.2437 0.27366 0.41153 0.0
O44 O 0.28245 0.2688 0.42733 0.0
H45 H 0.23407 0.30014 0.42155 0.0
C46 C 0.35761 0.35817 0.43819 0.0
C47 C 0.34897 0.34546 0.39186 0.0
C48 C 0.34083 0.34183 0.48012 0.0
C49 C 0.31568 0.31147 0.47569 0.0
C50 C 0.30669 0.29826 0.43033 0.0
C51 C 0.32316 0.31523 0.38859 0.0
Eu52 Eu 0.03742 0.97322 0.51343 0.0
C53 C 0.96243 0.13191 0.50606 0.0
N54 N 0.99458 0.11745 0.53675 0.0
C55 C 0.02481 0.17782 0.52305 0.0
C56 C 0.96055 0.17015 0.48191 0.0
C57 C 0.02537 0.13976 0.54613 0.0
C58 C 0.99231 0.19307 0.49066 0.0
C59 C 0.89839 0.12213 0.46461 0.0
C60 C 0.9317 0.10807 0.49744 0.0
C61 C 0.8964 0.16023 0.44074 0.0
C62 C 0.92735 0.18417 0.44941 0.0
Eu63 Eu 0.99337 0.05283 0.57296 0.0
N64 N 0.93487 0.07091 0.51978 0.0
C65 C 0.86814 0.09739 0.45642 0.0
C66 C 0.90468 0.04725 0.51387 0.0
C67 C 0.87117 0.0599 0.48157 0.0
H68 H 0.05014 0.12834 0.57214 0.0
H69 H 0.84756 0.0408 0.47647 0.0
H70 H 0.9812 0.89726 0.527 0.0
H71 H 0.1865 0.98998 0.59444 0.0
H72 H 0.9058 0.0188 0.53444 0.0
H73 H 0.84215 0.10706 0.43133 0.0
H74 H 0.12596 0.00937 0.54016 0.0
H75 H 0.04935 0.1954 0.53045 0.0
H76 H 0.8711 0.17143 0.41527 0.0
H77 H 0.92544 0.21342 0.43041 0.0
H78 H 0.98402 0.83206 0.57541 0.0
H79 H 0.992 0.22255 0.47271 0.0
H80 H 0.19395 0.92571 0.64577 0.0
N81 N 0.03764 0.91035 0.55694 0.0
C82 C 0.07086 0.89748 0.58642 0.0
C83 C 0.00857 0.85021 0.57904 0.0
C84 C 0.07397 0.8602 0.61395 0.0
C85 C 0.00688 0.88729 0.55218 0.0
C86 C 0.04222 0.83662 0.61017 0.0
N87 N 0.09755 0.95819 0.56387 0.0
C88 C 0.12789 0.98201 0.56396 0.0
C89 C 0.13636 0.90928 0.62031 0.0
C90 C 0.10164 0.92198 0.58988 0.0
C91 C 0.16689 0.93436 0.62265 0.0
C92 C 0.16272 0.97074 0.59397 0.0
H93 H 0.04348 0.80782 0.63082 0.0
H94 H 0.11152 0.81899 0.66543 0.0
H95 H 0.16631 0.86159 0.66992 0.0
O96 O 0.07352 0.97647 0.45586 0.0
O97 O 0.03704 0.96341 0.59767 0.0
O98 O 0.04635 0.02249 0.61751 0.0
O99 O 0.03116 0.93287 0.46192 0.0
O100 O 0.06165 0.03307 0.49936 0.0
O101 O 0.05643 0.05828 0.56968 0.0
O102 O 0.95598 0.04544 0.62929 0.0
O103 O 0.99262 0.06372 0.48881 0.0
O104 O 0.98574 0.00504 0.46686 0.0
O105 O 0.99755 0.09011 0.62818 0.0
O106 O 0.96853 0.99314 0.58529 0.0
O107 O 0.97421 0.9685 0.51473 0.0
C108 C 0.05041 0.98568 0.62911 0.0
C109 C 0.04649 0.95589 0.3816 0.0
C110 C 0.05777 0.94519 0.29992 0.0
C111 C 0.02838 0.97104 0.27661 0.0
C112 C 0.01755 0.98174 0.35769 0.0
C113 C 0.00841 0.98912 0.30542 0.0
C114 C 0.0665 0.93761 0.35272 0.0
C115 C 0.07138 0.05812 0.52884 0.0
C116 C 0.05685 0.94872 0.4365 0.0
C117 C 0.10852 0.8476 0.64421 0.0
C118 C 0.13968 0.87196 0.64703 0.0
C119 C 0.98109 0.0419 0.45604 0.0
C120 C 0.97959 0.06394 0.7061 0.0
C121 C 0.9628 0.07106 0.78654 0.0
C122 C 0.99316 0.04677 0.81118 0.0
C123 C 0.00968 0.03979 0.73113 0.0
C124 C 0.95626 0.07943 0.73376 0.0
C125 C 0.01639 0.0313 0.78353 0.0
C126 C 0.95866 0.96869 0.55502 0.0
C127 C 0.97132 0.07259 0.65118 0.0
H128 H 0.02066 0.97709 0.2361 0.0
H129 H 1.00231 0.9963 0.37949 0.0
H130 H 0.98589 0.009 0.28721 0.0
H131 H 0.08936 0.91816 0.37133 0.0
H132 H 0.99929 0.04016 0.85181 0.0
H133 H 0.02782 0.02752 0.71023 0.0
H134 H 0.93267 0.0976 0.71404 0.0
H135 H 0.0397 0.01275 0.80277 0.0
Eu136 Eu 0.48062 0.48882 0.98532 0.0
C137 C 0.6297 0.56034 0.05446 0.0
N138 N 0.61383 0.52888 0.07841 0.0
C139 C 0.67225 0.49468 0.08734 0.0
C140 C 0.66701 0.55953 0.04381 0.0
C141 C 0.63549 0.49719 0.09797 0.0
C142 C 0.68782 0.52576 0.05922 0.0
C143 C 0.62605 0.62793 0.02209 0.0
C144 C 0.60954 0.59414 0.0435 0.0
C145 C 0.66253 0.62691 0.00951 0.0
C146 C 0.68287 0.59274 0.02002 0.0
Eu147 Eu 0.54996 0.53556 0.09031 0.0
N148 N 0.57391 0.59412 0.05478 0.0
C149 C 0.60551 0.66179 0.01453 0.0
C150 C 0.55434 0.62714 0.04964 0.0
C151 C 0.56968 0.66145 0.02893 0.0
H152 H 0.62485 0.47382 0.12247 0.0
H153 H 0.55383 0.68753 0.02391 0.0
H154 H 0.39468 0.52286 0.98517 0.0
H155 H 0.52642 0.34084 0.01393 0.0
H156 H 0.52662 0.62672 0.06078 0.0
H157 H 0.61723 0.68835 0.99818 0.0
H158 H 0.52885 0.40926 0.98167 0.0
H159 H 0.6888 0.46902 0.10167 0.0
H160 H 0.67555 0.65251 0.99256 0.0
H161 H 0.71132 0.59255 0.01107 0.0
H162 H 0.33321 0.49995 0.00967 0.0
H163 H 0.71651 0.52393 0.05165 0.0
H164 H 0.47226 0.31405 0.05437 0.0
N165 N 0.42143 0.46904 0.008 0.0
C166 C 0.4176 0.43162 0.02586 0.0
C167 C 0.35677 0.48048 0.01468 0.0
C168 C 0.38339 0.41734 0.04108 0.0
C169 C 0.39149 0.4934 1.00086 0.0
C170 C 0.35283 0.44235 0.03544 0.0
N171 N 0.47924 0.42199 0.00936 0.0
C172 C 0.50621 0.39832 1.00176 0.0
C173 C 0.4443 0.36832 0.04477 0.0
C174 C 0.44771 0.40751 0.02761 0.0
C175 C 0.47376 0.34432 0.0416 0.0
C176 C 0.50446 0.35934 0.01897 0.0
H177 H 0.32602 0.43246 0.04651 0.0
H178 H 0.35481 0.36722 0.07335 0.0
H179 H 0.40815 0.32423 0.07655 0.0
O180 O 0.46423 0.46199 0.91945 0.0
O181 O 0.46321 0.48877 0.06199 0.0
O182 O 0.5194 0.48128 0.11699 0.0
O183 O 0.45628 0.52212 0.91275 0.0
O184 O 0.54252 0.47035 0.00621 0.0
O185 O 0.55821 0.47279 0.09037 0.0
O186 O 0.53216 0.56301 0.14744 0.0
O187 O 0.53983 0.56308 0.00727 0.0
O188 O 0.53755 0.51221 0.96849 0.0
O189 O 0.5885 0.53934 0.1601 0.0
O190 O 0.4894 0.55786 0.07128 0.0
O191 O 0.46557 0.54924 0.98979 0.0
C192 C 0.48269 0.47538 0.10654 0.0
C193 C 0.41401 0.49057 0.85747 0.0
C194 C 0.37767 0.46957 0.78391 0.0
C195 C 0.3457 0.48896 0.79059 0.0
C196 C 0.38166 0.50966 0.86351 0.0
C197 C 0.34769 0.50862 0.83036 0.0
C198 C 0.41171 0.47018 0.81789 0.0
C199 C 0.56136 0.45736 0.05124 0.0
C200 C 0.45079 0.49304 0.8903 0.0
C201 C 0.38063 0.37864 0.06065 0.0
C202 C 0.41106 0.35419 0.06262 0.0
C203 C 0.548 0.54706 0.97102 0.0
C204 C 0.56048 0.54225 0.23156 0.0
C205 C 0.57547 0.54937 0.31945 0.0
C206 C 0.55201 0.5183 0.33225 0.0
C207 C 0.53727 0.51136 0.24506 0.0
C208 C 0.57973 0.56102 0.26881 0.0
C209 C 0.53318 0.49938 0.29524 0.0
C210 C 0.46571 0.5665 0.02847 0.0
C211 C 0.56381 0.55618 0.17868 0.0
H212 H 0.31913 0.48876 0.76509 0.0
H213 H 0.38269 0.52579 0.89332 0.0
H214 H 0.3229 0.52346 0.83518 0.0
H215 H 0.43669 0.45575 0.81266 0.0
H216 H 0.54844 0.50848 0.37095 0.0
H217 H 0.52209 0.49689 0.21669 0.0
H218 H 0.59724 0.58525 0.25817 0.0
H219 H 0.51518 0.47552 0.30545 0.0
C220 C 0.18282 0.24621 0.4375 0.0
C221 C 0.22108 0.24056 0.43448 0.0
C222 C 0.15976 0.21599 0.4547 0.0
C223 C 0.17519 0.17892 0.46922 0.0
C224 C 0.21387 0.17297 0.46649 0.0
C225 C 0.23623 0.20374 0.44859 0.0
C226 C 0.11862 0.22365 0.45647 0.0
C227 C 0.23148 0.13397 0.48171 0.0
C228 C 0.12024 0.10673 0.55028 0.0
C229 C 0.09953 0.08762 0.51448 0.0
C230 C 0.14556 0.1359 0.53635 0.0
C231 C 0.15031 0.14635 0.48535 0.0
C232 C 0.13001 0.1266 0.44926 0.0
C233 C 0.10507 0.09744 0.46427 0.0
C234 C 0.16679 0.15597 0.57611 0.0
C235 C 0.13386 0.13692 0.39445 0.0
H236 H 0.17074 0.27442 0.4256 0.0
H237 H 0.26547 0.19886 0.44529 0.0
H238 H 0.09993 0.20698 0.43217 0.0
H239 H 0.11268 0.21454 0.49529 0.0
H240 H 0.11095 0.25406 0.44395 0.0
H241 H 0.26237 0.1343 0.48 0.0
H242 H 0.22728 0.12148 0.5205 0.0
H243 H 0.21725 0.11514 0.45661 0.0
H244 H 0.11652 0.099 0.58925 0.0
H245 H 0.08912 0.08295 0.43628 0.0
H246 H 0.15798 0.18614 0.56821 0.0
H247 H 0.19775 0.15522 0.57538 0.0
H248 H 0.16158 0.14318 0.61442 0.0
H249 H 0.12402 0.16646 0.37949 0.0
H250 H 0.11716 0.118 0.37137 0.0
H251 H 0.1641 0.13549 0.39002 0.0
C252 C 0.31587 0.73659 1.00113 0.0
C253 C 0.28363 0.72169 0.0207 0.0
C254 C 0.34703 0.71327 1.00149 0.0
C255 C 0.34545 0.67402 0.02077 0.0
C256 C 0.31271 0.6588 0.03988 0.0
C257 C 0.2822 0.68281 0.03949 0.0
C258 C 0.38148 0.73053 0.98092 0.0
C259 C 0.30972 0.61705 0.06026 0.0
C260 C 0.40849 0.60455 0.98191 0.0
C261 C 0.43637 0.59594 0.02483 0.0
C262 C 0.37916 0.63049 0.97963 0.0
C263 C 0.37788 0.64864 0.02099 0.0
C264 C 0.40662 0.64108 0.06368 0.0
C265 C 0.43541 0.6148 0.06515 0.0
C266 C 0.34894 0.63767 0.93349 0.0
C267 C 0.40643 0.66005 0.1084 0.0
H268 H 0.31664 0.76646 0.98527 0.0
H269 H 0.25689 0.67108 0.05341 0.0
H270 H 0.40718 0.72442 0.00997 0.0
H271 H 0.38611 0.7177 0.94856 0.0
H272 H 0.37863 0.76166 0.96847 0.0
H273 H 0.28226 0.6097 0.07361 0.0
H274 H 0.31269 0.60046 0.03073 0.0
H275 H 0.33315 0.60817 0.09196 0.0
H276 H 0.40907 0.59049 0.95032 0.0
H277 H 0.4569 0.6087 0.09839 0.0
H278 H 0.34664 0.66839 0.91783 0.0
H279 H 0.32096 0.6284 0.9438 0.0
H280 H 0.35485 0.62248 0.90374 0.0
H281 H 0.40488 0.69123 0.09624 0.0
H282 H 0.43205 0.65285 0.1374 0.0
H283 H 0.3809 0.65131 0.12581 0.0
C284 C 0.81428 0.7976 0.62194 0.0
C285 C 0.77854 0.81223 0.62411 0.0
C286 C 0.84476 0.82182 0.61153 0.0
C287 C 0.83924 0.8616 0.60201 0.0
C288 C 0.80314 0.8764 0.60365 0.0
C289 C 0.77338 0.8516 0.61468 0.0
C290 C 0.88286 0.80488 0.61052 0.0
C291 C 0.79578 0.91853 0.5932 0.0
C292 C 0.92293 0.92886 0.61675 0.0
C293 C 0.92863 0.94073 0.56689 0.0
C294 C 0.89471 0.90239 0.62882 0.0
C295 C 0.871 0.88789 0.59003 0.0
C296 C 0.87671 0.89975 0.53959 0.0
C297 C 0.90563 0.92576 0.52869 0.0
C298 C 0.8901 0.8901 0.68314 0.0
C299 C 0.85179 0.88552 0.49699 0.0
H300 H 0.81852 0.76725 0.62825 0.0
H301 H 0.74568 0.863 0.61549 0.0
H302 H 0.89085 0.81342 0.57267 0.0
H303 H 0.90508 0.81582 0.63749 0.0
H304 H 0.8829 0.7735 0.62009 0.0
H305 H 0.76605 0.92551 0.59558 0.0
H306 H 0.81521 0.93219 0.62045 0.0
H307 H 0.80165 0.93099 0.55514 0.0
H308 H 0.9409 0.94 0.64653 0.0
H309 H 0.9098 0.93494 0.49007 0.0
H310 H 0.89177 0.85881 0.6936 0.0
H311 H 0.86171 0.89882 0.68862 0.0
H312 H 0.91208 0.90244 0.70905 0.0
H313 H 0.8529 0.85417 0.50324 0.0
H314 H 0.86034 0.89688 0.45999 0.0
H315 H 0.82183 0.89377 0.49567 0.0
C316 C 0.72249 0.298 0.08313 0.0
C317 C 0.70601 0.26672 0.06397 0.0
C318 C 0.70052 0.32989 0.08338 0.0
C319 C 0.66101 0.33005 0.06531 0.0
C320 C 0.64408 0.29807 0.04743 0.0
C321 C 0.66678 0.26681 0.04707 0.0
C322 C 0.71961 0.36353 0.10253 0.0
C323 C 0.60196 0.29688 0.02859 0.0
C324 C 0.59544 0.39907 0.10092 0.0
C325 C 0.58878 0.42614 0.0567 0.0
C326 C 0.61942 0.36786 0.10468 0.0
C327 C 0.63744 0.36407 0.06346 0.0
C328 C 0.63171 0.39213 0.0194 0.0
C329 C 0.60731 0.42271 0.01649 0.0
C330 C 0.62457 0.3384 0.15214 0.0
C331 C 0.6507 0.38943 0.97485 0.0
H332 H 0.75261 0.29767 0.0977 0.0
H333 H 0.65383 0.24224 0.03358 0.0
H334 H 0.71547 0.38895 0.07237 0.0
H335 H 0.70644 0.36977 0.13409 0.0
H336 H 0.75055 0.35886 0.11559 0.0
H337 H 0.59315 0.26973 0.01642 0.0
H338 H 0.5859 0.30091 0.05862 0.0
H339 H 0.59385 0.32035 0.99641 0.0
H340 H 0.58098 0.4017 0.13195 0.0
H341 H 0.6025 0.44391 0.98245 0.0
H342 H 0.65521 0.3338 0.16724 0.0
H343 H 0.61285 0.31103 0.14364 0.0
H344 H 0.6102 0.34651 0.18167 0.0
H345 H 0.68187 0.38623 0.98674 0.0
H346 H 0.64496 0.41469 0.94455 0.0
H347 H 0.64044 0.364 0.95923 0.0
C348 C 0.19199 0.85703 0.1405 0.0
C349 C 0.16896 0.84704 0.09845 0.0
C350 C 0.17585 0.86982 0.17792 0.0
C351 C 0.13582 0.87241 0.17311 0.0
C352 C 0.11252 0.86012 0.13223 0.0
C353 C 0.12939 0.84765 0.09537 0.0
C354 C 0.20163 0.88263 0.22096 0.0
C355 C 0.06974 0.86206 0.12594 0.0
C356 C 0.08775 0.88775 0.28185 0.0
C357 C 0.07945 0.92661 0.26906 0.0
C358 C 0.10695 0.86976 0.2517 0.0
C359 C 0.11817 0.89119 0.20787 0.0
C360 C 0.1107 0.93059 0.19552 0.0
C361 C 0.09142 0.94779 0.22621 0.0
C362 C 0.11433 0.8277 0.26598 0.0
C363 C 0.12243 0.95452 0.14928 0.0
H364 H 0.2226 0.85677 0.14279 0.0
H365 H 0.11157 0.83948 0.06314 0.0
H366 H 0.19968 0.91384 0.21678 0.0
H367 H 0.19263 0.87018 0.25726 0.0
H368 H 0.23177 0.87478 0.22245 0.0
H369 H 0.05577 0.84817 0.09477 0.0
H370 H 0.05977 0.84839 0.16112 0.0
H371 H 0.06041 0.89209 0.11795 0.0
H372 H 0.07835 0.8712 0.31476 0.0
H373 H 0.08569 0.97794 0.21665 0.0
H374 H 0.14484 0.82153 0.26745 0.0
H375 H 0.09805 0.81315 0.23699 0.0
H376 H 0.10609 0.81557 0.30294 0.0
H377 H 0.15333 0.95119 0.14982 0.0
H378 H 0.11601 0.98502 0.14621 0.0
H379 H 0.1074 0.94489 0.11513 0.0
C380 C 0.62646 0.65493 0.72871 0.0
C381 C 0.66519 0.66417 0.73664 0.0
C382 C 0.60816 0.63755 0.76845 0.0
C383 C 0.62881 0.62954 0.81784 0.0
C384 C 0.6675 0.64018 0.82661 0.0
C385 C 0.68523 0.65741 0.78592 0.0
C386 C 0.5669 0.62677 0.75726 0.0
C387 C 0.69027 0.63299 0.87886 0.0
C388 C 0.5686 0.60791 0.9222 0.0
C389 C 0.56934 0.56826 0.93275 0.0
C390 C 0.589 0.62831 0.88639 0.0
C391 C 0.61001 0.60857 0.85953 0.0
C392 C 0.61083 0.56846 0.87008 0.0
C393 C 0.59057 0.54883 0.90658 0.0
C394 C 0.58784 0.67098 0.87706 0.0
C395 C 0.63263 0.54624 0.84218 0.0
H396 H 0.61043 0.66084 0.691 0.0
H397 H 0.71511 0.66443 0.7925 0.0
H398 H 0.56399 0.59564 0.76745 0.0
H399 H 0.54995 0.63979 0.78027 0.0
H400 H 0.55462 0.63576 0.71701 0.0
H401 H 0.72079 0.63982 0.87893 0.0
H402 H 0.67871 0.65065 0.90214 0.0
H403 H 0.68783 0.60299 0.89697 0.0
H404 H 0.55168 0.62305 0.94162 0.0
H405 H 0.59141 0.51817 0.91467 0.0
H406 H 0.5772 0.68219 0.83688 0.0
H407 H 0.61697 0.68203 0.88582 0.0
H408 H 0.56948 0.68206 0.90025 0.0
H409 H 0.62085 0.55226 0.8015 0.0
H410 H 0.63146 0.51525 0.85589 0.0
H411 H 0.66281 0.55507 0.84623 0.0
C412 C 0.89752 0.13953 0.17693 0.0
C413 C 0.85933 0.15085 0.17077 0.0
C414 C 0.91641 0.12046 0.22316 0.0
C415 C 0.89736 0.11407 0.26517 0.0
C416 C 0.85935 0.12648 0.26004 0.0
C417 C 0.84056 0.1442 0.21271 0.0
C418 C 0.95681 0.10713 0.22698 0.0
C419 C 0.83868 0.12123 0.30462 0.0
C420 C 0.93665 0.03837 0.37631 0.0
C421 C 0.95987 0.05982 0.40683 0.0
C422 C 0.91608 0.05564 0.32995 0.0
C423 C 0.91787 0.09538 0.31474 0.0
C424 C 0.94083 0.11719 0.34578 0.0
C425 C 0.9621 0.09905 0.39092 0.0
C426 C 0.89296 0.03133 0.29692 0.0
C427 C 0.94289 0.15972 0.33139 0.0
H428 H 0.91294 0.14558 0.14554 0.0
H429 H 0.81105 0.15243 0.20857 0.0
H430 H 0.97615 0.12187 0.25306 0.0
H431 H 0.95918 0.07639 0.24258 0.0
H432 H 0.96675 0.11232 0.19003 0.0
H433 H 0.80921 0.13261 0.29445 0.0
H434 H 0.8376 0.09078 0.32128 0.0
H435 H 0.85433 0.13573 0.33411 0.0
H436 H 0.93463 0.00807 0.38853 0.0
H437 H 0.98047 0.11577 0.41388 0.0
H438 H 0.90316 0.03496 0.26024 0.0
H439 H 0.86274 0.04035 0.28918 0.0
H440 H 0.89469 1.00083 0.31419 0.0
H441 H 0.95289 0.16769 0.29472 0.0
H442 H 0.96225 0.17247 0.35978 0.0
H443 H 0.91414 0.17222 0.32705 0.0
C444 C 0.38472 0.37136 0.54433 0.0
C445 C 0.34867 0.35732 0.52786 0.0
C446 C 0.39154 0.38851 0.58705 0.0
C447 C 0.3619 0.39095 0.61491 0.0
C448 C 0.32592 0.37557 0.59975 0.0
C449 C 0.31962 0.3594 0.55624 0.0
C450 C 0.43019 0.40497 0.60155 0.0
C451 C 0.29369 0.37702 0.62883 0.0
C452 C 0.38573 0.41138 0.74809 0.0
C453 C 0.37546 0.44963 0.74068 0.0
C454 C 0.38167 0.39186 0.70753 0.0
C455 C 0.3678 0.41133 0.65832 0.0
C456 C 0.35846 0.45027 0.6506 0.0
C457 C 0.36202 0.46882 0.69192 0.0
C458 C 0.39125 0.35021 0.71748 0.0
C459 C 0.34438 0.47232 0.59871 0.0
H460 H 0.40772 0.36922 0.52365 0.0
H461 H 0.29149 0.34927 0.54378 0.0
H462 H 0.42753 0.43592 0.59951 0.0
H463 H 0.44219 0.39257 0.64091 0.0
H464 H 0.45051 0.39993 0.57676 0.0
H465 H 0.26849 0.36103 0.61465 0.0
H466 H 0.30305 0.36524 0.66918 0.0
H467 H 0.28504 0.40685 0.62617 0.0
H468 H 0.39591 0.39648 0.78585 0.0
H469 H 0.35443 0.49851 0.68611 0.0
H470 H 0.41255 0.34468 0.69439 0.0
H471 H 0.36545 0.33393 0.70642 0.0
H472 H 0.4026 0.33944 0.75765 0.0
H473 H 0.36485 0.46957 0.57316 0.0
H474 H 0.34026 0.50284 0.59877 0.0
H475 H 0.31694 0.46061 0.58303 0.0
C476 C 0.66872 0.68101 0.51458 0.0
C477 C 0.68189 0.65816 0.56111 0.0
C478 C 0.65339 0.66488 0.47272 0.0
C479 C 0.65166 0.62498 0.47748 0.0
C480 C 0.66664 0.60185 0.52382 0.0
C481 C 0.68135 0.61872 0.56512 0.0
C482 C 0.63744 0.69051 0.42412 0.0
C483 C 0.66587 0.55924 0.53035 0.0
C484 C 0.57483 0.57982 0.39444 0.0
C485 C 0.59488 0.56989 0.35878 0.0
C486 C 0.5928 0.59855 0.43246 0.0
C487 C 0.63192 0.60725 0.43529 0.0
C488 C 0.65225 0.59768 0.39906 0.0
C489 C 0.63343 0.57929 0.36106 0.0
C490 C 0.56995 0.60866 0.46995 0.0
C491 C 0.69406 0.6061 0.40112 0.0
H492 H 0.66882 0.71151 0.51153 0.0
H493 H 0.69184 0.60101 0.60099 0.0
H494 H 0.64933 0.68278 0.3924 0.0
H495 H 0.60621 0.6869 0.41619 0.0
H496 H 0.64355 0.72079 0.42537 0.0
H497 H 0.68138 0.5454 0.56746 0.0
H498 H 0.63603 0.54936 0.52683 0.0
H499 H 0.67865 0.54978 0.50041 0.0
H500 H 0.54491 0.57312 0.39239 0.0
H501 H 0.64911 0.57144 0.33378 0.0
H502 H 0.57224 0.63939 0.47069 0.0
H503 H 0.58148 0.59339 0.5082 0.0
H504 H 0.53944 0.60144 0.46122 0.0
H505 H 0.69921 0.63667 0.40097 0.0
H506 H 0.70544 0.59815 0.36908 0.0
H507 H 0.71019 0.59038 0.43663 0.0
C508 C 0.82313 0.15505 0.94501 0.0
C509 C 0.84713 0.1668 0.985 0.0
C510 C 0.83831 0.14133 0.90743 0.0
C511 C 0.87827 0.13956 0.91017 0.0
C512 C 0.90239 0.15332 0.94912 0.0
C513 C 0.88651 0.1668 0.98593 0.0
C514 C 0.81175 0.12716 0.86621 0.0
C515 C 0.94511 0.15222 0.95333 0.0
C516 C 0.92636 0.06606 0.8582 0.0
C517 C 0.93829 0.08795 0.81579 0.0
C518 C 0.90508 0.08215 0.88784 0.0
C519 C 0.89545 0.12109 0.87474 0.0
C520 C 0.90606 0.143 0.83084 0.0
C521 C 0.92743 0.12619 0.80195 0.0
C522 C 0.89425 0.05779 0.93434 0.0
C523 C 0.89634 0.18459 0.81565 0.0
H524 H 0.79268 0.15501 0.94438 0.0
H525 H 0.90505 0.17641 0.01654 0.0
H526 H 0.81938 0.13934 0.82898 0.0
H527 H 0.81452 0.09597 0.87118 0.0
H528 H 0.78163 0.13427 0.8662 0.0
H529 H 0.9597 0.1661 0.98415 0.0
H530 H 0.95502 0.1224 0.96047 0.0
H531 H 0.95387 0.16642 0.91757 0.0
H532 H 0.934 0.03633 0.86854 0.0
H533 H 0.93676 0.14338 0.76942 0.0
H534 H 0.86342 0.06056 0.93471 0.0
H535 H 0.90961 0.06749 0.96826 0.0
H536 H 0.90113 0.02744 0.93701 0.0
H537 H 0.86586 0.18938 0.81638 0.0
H538 H 0.90256 0.1965 0.77753 0.0
H539 H 0.91304 0.2004 0.84288 0.0
C540 C 0.37507 0.34331 0.31153 0.0
C541 C 0.36695 0.36398 0.3475 0.0
C542 C 0.39275 0.36036 0.27071 0.0
C543 C 0.40392 0.39873 0.26637 0.0
C544 C 0.39591 0.41978 0.3023 0.0
C545 C 0.37688 0.40252 0.34148 0.0
C546 C 0.39962 0.33723 0.23228 0.0
C547 C 0.40771 0.46066 0.29957 0.0
C548 C 0.48282 0.43333 0.19067 0.0
C549 C 0.46253 0.45492 0.1469 0.0
C550 C 0.46419 0.41499 0.22979 0.0
C551 C 0.42406 0.41707 0.22444 0.0
C552 C 0.40338 0.43814 0.17986 0.0
C553 C 0.4229 0.45732 0.14224 0.0
C554 C 0.48755 0.39403 0.27731 0.0
C555 C 0.36055 0.4403 0.17166 0.0
H556 H 0.36818 0.31353 0.31548 0.0
H557 H 0.36976 0.41957 0.36737 0.0
H558 H 0.38736 0.35192 0.19398 0.0
H559 H 0.43058 0.3342 0.23306 0.0
H560 H 0.38707 0.30855 0.23903 0.0
H561 H 0.40106 0.47264 0.33175 0.0
H562 H 0.43869 0.46324 0.29901 0.0
H563 H 0.39304 0.478 0.26426 0.0
H564 H 0.51345 0.43115 0.19474 0.0
H565 H 0.40702 0.47464 0.10935 0.0
H566 H 0.47971 0.36369 0.28319 0.0
H567 H 0.48147 0.40546 0.31015 0.0
H568 H 0.51853 0.39625 0.27637 0.0
H569 H 0.34873 0.4119 0.16826 0.0
H570 H 0.34892 0.4606 0.13717 0.0
H571 H 0.35049 0.44884 0.20418 0.0
C572 C 0.15553 0.91334 0.9085 0.0
C573 C 0.17293 0.87778 0.9139 0.0
C574 C 0.13673 0.93194 0.86179 0.0
C575 C 0.13694 0.9157 0.81865 0.0
C576 C 0.15656 0.88123 0.82301 0.0
C577 C 0.17357 0.86228 0.87058 0.0
C578 C 0.11493 0.96792 0.85924 0.0
C579 C 0.15923 0.86416 0.77741 0.0
C580 C 0.05675 0.93876 0.70827 0.0
C581 C 0.07222 0.9686 0.67775 0.0
C582 C 0.07729 0.92177 0.75472 0.0
C583 C 0.11488 0.93374 0.76954 0.0
C584 C 0.13097 0.96323 0.73783 0.0
C585 C 0.10898 0.98105 0.6928 0.0
C586 C 0.05861 0.89134 0.78811 0.0
C587 C 0.17147 0.9756 0.75112 0.0
H588 H 0.15587 0.92658 0.94095 0.0
H589 H 0.18644 0.83482 0.87366 0.0
H590 H 0.12184 0.99028 0.82849 0.0
H591 H 0.08407 0.9622 0.85097 0.0
H592 H 0.1207 0.97889 0.89502 0.0
H593 H 0.17693 0.83804 0.78672 0.0
H594 H 0.13048 0.85725 0.75922 0.0
H595 H 0.17172 0.88509 0.74966 0.0
H596 H 0.02822 0.92929 0.69621 0.0
H597 H 0.12091 0.00389 0.66851 0.0
H598 H 0.05961 0.89901 0.82568 0.0
H599 H 0.07423 0.86421 0.79362 0.0
H600 H 0.02851 0.88685 0.77221 0.0
H601 H 0.17487 0.98745 0.78615 0.0
H602 H 0.18036 0.99728 0.72087 0.0
H603 H 0.1909 0.95086 0.75824 0.0
loop_
_geom_bond_atom_site_label_1
_geom_bond_atom_site_label_2
_geom_bond_distance
_geom_bond_site_symmetry_2
_ccdc_geom_bond_type
H0 C7 0.929 . S
H1 C10 0.930 . S
H2 C12 0.929 . S
H3 C4 0.969 . S
C4 H3 0.969 . S
C4 O5 1.550 . S
C4 H6 0.973 . S
O5 C4 1.550 . S
O5 C11 1.412 . S
H6 C4 0.973 . S
C7 H0 0.929 . S
C7 C8 1.400 1_554 S
C7 C9 1.364 . S
C8 C7 1.400 1_556 S
C8 C12 1.377 . S
C9 C7 1.364 . S
C9 C10 1.374 . S
C10 H1 0.930 . S
C10 C9 1.374 . S
C10 C11 1.383 . S
C11 O5 1.412 . S
C11 C10 1.383 . S
C11 C12 1.394 1_554 S
C12 H2 0.929 . S
C12 C8 1.377 . S
C12 C11 1.394 1_556 S
H13 C20 0.929 . S
H14 C23 0.930 . S
H15 C25 0.929 . S
H16 C17 0.969 . S
C17 H16 0.969 . S
C17 O18 1.550 . S
C17 H19 0.973 . S
O18 C17 1.550 . S
O18 C24 1.412 . S
H19 C17 0.973 . S
C20 H13 0.929 . S
C20 C21 1.400 . S
C20 C22 1.364 . S
C21 C20 1.400 . S
C21 C25 1.377 . S
C22 C20 1.364 . S
C22 C23 1.374 . S
C23 H14 0.930 . S
C23 C22 1.374 . S
C23 C24 1.383 . S
C24 O18 1.412 . S
C24 C23 1.383 . S
C24 C25 1.394 . S
C25 H15 0.929 . S
C25 C21 1.377 . S
C25 C24 1.394 . S
H26 C33 0.929 . S
H27 C36 0.930 1_556 S
H28 C38 0.929 . S
H29 C30 0.969 . S
C30 H29 0.969 . S
C30 O31 1.550 . S
C30 H32 0.973 1_554 S
O31 C30 1.550 . S
O31 C37 1.412 . S
H32 C30 0.973 1_556 S
C33 H26 0.929 . S
C33 C34 1.400 . S
C33 C35 1.364 . S
C34 C33 1.400 . S
C34 C38 1.377 . S
C35 C33 1.364 . S
C35 C36 1.374 . S
C36 H27 0.930 1_554 S
C36 C35 1.374 . S
C36 C37 1.383 . S
C37 O31 1.412 . S
C37 C36 1.383 . S
C37 C38 1.394 . S
C38 H28 0.929 . S
C38 C34 1.377 . S
C38 C37 1.394 . S
H39 C46 0.929 . S
H40 C49 0.930 . S
H41 C51 0.929 . S
H42 C43 0.969 . S
C43 H42 0.969 . S
C43 O44 1.550 . S
C43 H45 0.973 . S
O44 C43 1.550 . S
O44 C50 1.412 . S
H45 C43 0.973 . S
C46 H39 0.929 . S
C46 C47 1.400 . S
C46 C48 1.364 . S
C47 C46 1.400 . S
C47 C51 1.377 . S
C48 C46 1.364 . S
C48 C49 1.374 . S
C49 H40 0.930 . S
C49 C48 1.374 . S
C49 C50 1.383 . S
C50 O44 1.412 . S
C50 C49 1.383 . S
C50 C51 1.394 . S
C51 H41 0.929 . S
C51 C47 1.377 . S
C51 C50 1.394 . S
Eu52 N81 2.600 . S
Eu52 N87 2.562 . S
Eu52 O96 2.462 . S
Eu52 O97 2.373 . S
Eu52 O99 2.432 . S
Eu52 O100 2.291 1_565 S
Eu52 O104 2.335 1_465 S
Eu52 O107 2.372 1_455 S
Eu52 C116 2.787 . S
C53 N54 1.365 . S
C53 C56 1.405 . S
C53 C60 1.448 . S
N54 C53 1.365 . S
N54 C57 1.319 1_655 S
N54 Eu63 2.600 . S
C55 C57 1.397 . S
C55 C58 1.367 1_455 S
C55 H75 0.931 . S
C56 C53 1.405 . S
C56 C58 1.403 . S
C56 C62 1.439 . S
C57 N54 1.319 1_455 S
C57 C55 1.397 . S
C57 H68 0.930 . S
C58 C55 1.367 1_655 S
C58 C56 1.403 . S
C58 H79 0.929 . S
C59 C60 1.430 . S
C59 C61 1.387 . S
C59 C65 1.404 . S
C60 C53 1.448 . S
C60 C59 1.430 . S
C60 N64 1.351 . S
C61 C59 1.387 . S
C61 C62 1.374 . S
C61 H76 0.931 . S
C62 C56 1.439 . S
C62 C61 1.374 . S
C62 H77 0.931 . S
Eu63 N54 2.600 . S
Eu63 N64 2.562 . S
Eu63 O98 2.335 1_655 S
Eu63 O101 2.372 1_655 S
Eu63 O102 2.462 . S
Eu63 O103 2.373 . S
Eu63 O105 2.432 . S
Eu63 O106 2.291 1_545 S
Eu63 C127 2.787 . S
N64 C60 1.351 . S
N64 Eu63 2.562 . S
N64 C66 1.325 . S
C65 C59 1.404 . S
C65 C67 1.366 . S
C65 H73 0.930 . S
C66 N64 1.325 . S
C66 C67 1.416 . S
C66 H72 0.929 . S
C67 C65 1.366 . S
C67 C66 1.416 . S
C67 H69 0.930 . S
H68 C57 0.930 . S
H69 C67 0.930 . S
H70 C85 0.930 1_655 S
H71 C92 0.930 . S
H72 C66 0.929 . S
H73 C65 0.930 . S
H74 C88 0.929 . S
H75 C55 0.931 . S
H76 C61 0.931 . S
H77 C62 0.931 . S
H78 C83 0.931 1_655 S
H79 C58 0.929 . S
H80 C91 0.930 . S
N81 Eu52 2.600 . S
N81 C82 1.365 . S
N81 C85 1.319 . S
C82 N81 1.365 . S
C82 C84 1.405 . S
C82 C90 1.448 . S
C83 H78 0.931 1_455 S
C83 C85 1.397 . S
C83 C86 1.367 . S
C84 C82 1.405 . S
C84 C86 1.403 . S
C84 C117 1.439 . S
C85 H70 0.930 1_455 S
C85 N81 1.319 . S
C85 C83 1.397 . S
C86 C83 1.367 . S
C86 C84 1.403 . S
C86 H93 0.929 . S
N87 Eu52 2.562 . S
N87 C88 1.325 . S
N87 C90 1.351 . S
C88 H74 0.929 . S
C88 N87 1.325 . S
C88 C92 1.416 . S
C89 C90 1.430 . S
C89 C91 1.404 . S
C89 C118 1.387 . S
C90 C82 1.448 . S
C90 N87 1.351 . S
C90 C89 1.430 . S
C91 H80 0.930 . S
C91 C89 1.404 . S
C91 C92 1.366 . S
C92 H71 0.930 . S
C92 C88 1.416 . S
C92 C91 1.366 . S
H93 C86 0.929 . S
H94 C117 0.931 . S
H95 C118 0.931 . S
O96 Eu52 2.462 . S
O96 C116 1.252 . S
O97 Eu52 2.373 . S
O97 C108 1.249 . S
O98 Eu63 2.335 1_455 S
O98 C108 1.264 1_545 S
O99 Eu52 2.432 . S
O99 C116 1.268 . S
O100 Eu52 2.291 1_545 S
O100 C115 1.255 . S
O101 Eu63 2.372 1_455 S
O101 C115 1.257 . S
O102 Eu63 2.462 . S
O102 C127 1.252 . S
O103 Eu63 2.373 . S
O103 C119 1.249 . S
O104 Eu52 2.335 1_645 S
O104 C119 1.264 . S
O105 Eu63 2.432 . S
O105 C127 1.268 . S
O106 Eu63 2.291 1_565 S
O106 C126 1.255 . S
O107 Eu52 2.372 1_655 S
O107 C126 1.257 . S
C108 O97 1.249 . S
C108 O98 1.264 1_565 S
C109 C112 1.382 . S
C109 C114 1.390 . S
C109 C116 1.506 . S
C110 C111 1.398 . S
C110 C114 1.392 . S
C111 C110 1.398 . S
C111 C113 1.372 . S
C111 H128 0.931 . S
C112 C109 1.382 . S
C112 C113 1.390 . S
C112 H129 0.931 . S
C113 C111 1.372 . S
C113 C112 1.390 . S
C113 H130 0.929 . S
C114 C109 1.390 . S
C114 C110 1.392 . S
C114 H131 0.930 . S
C115 O100 1.255 . S
C115 O101 1.257 . S
C116 Eu52 2.787 . S
C116 O96 1.252 . S
C116 O99 1.268 . S
C116 C109 1.506 . S
C117 C84 1.439 . S
C117 H94 0.931 . S
C117 C118 1.374 . S
C118 C89 1.387 . S
C118 H95 0.931 . S
C118 C117 1.374 . S
C119 O103 1.249 . S
C119 O104 1.264 . S
C120 C123 1.382 . S
C120 C124 1.390 . S
C120 C127 1.506 . S
C121 C122 1.398 . S
C121 C124 1.392 . S
C122 C121 1.398 . S
C122 C125 1.372 . S
C122 H132 0.931 . S
C123 C120 1.382 . S
C123 C125 1.390 . S
C123 H133 0.931 . S
C124 C120 1.390 . S
C124 C121 1.392 . S
C124 H134 0.930 . S
C125 C122 1.372 . S
C125 C123 1.390 . S
C125 H135 0.929 . S
C126 O106 1.255 . S
C126 O107 1.257 . S
C127 Eu63 2.787 . S
C127 O102 1.252 . S
C127 O105 1.268 . S
C127 C120 1.506 . S
H128 C111 0.931 . S
H129 C112 0.931 . S
H130 C113 0.929 . S
H131 C114 0.930 . S
H132 C122 0.931 . S
H133 C123 0.931 . S
H134 C124 0.930 . S
H135 C125 0.929 . S
Eu136 N165 2.600 . S
Eu136 N171 2.562 1_556 S
Eu136 O180 2.462 . S
Eu136 O181 2.373 1_556 S
Eu136 O183 2.432 . S
Eu136 O184 2.291 1_556 S
Eu136 O188 2.335 . S
Eu136 O191 2.372 1_556 S
Eu136 C200 2.787 . S
C137 N138 1.365 . S
C137 C140 1.405 . S
C137 C144 1.448 . S
N138 C137 1.365 . S
N138 C141 1.319 . S
N138 Eu147 2.600 . S
C139 C141 1.397 . S
C139 C142 1.367 . S
C139 H159 0.931 . S
C140 C137 1.405 . S
C140 C142 1.403 . S
C140 C146 1.439 . S
C141 N138 1.319 . S
C141 C139 1.397 . S
C141 H152 0.930 . S
C142 C139 1.367 . S
C142 C140 1.403 . S
C142 H163 0.929 . S
C143 C144 1.430 . S
C143 C145 1.387 . S
C143 C149 1.404 . S
C144 C137 1.448 . S
C144 C143 1.430 . S
C144 N148 1.351 . S
C145 C143 1.387 . S
C145 C146 1.374 . S
C145 H160 0.931 . S
C146 C140 1.439 . S
C146 C145 1.374 . S
C146 H161 0.931 . S
Eu147 N138 2.600 . S
Eu147 N148 2.562 . S
Eu147 O182 2.335 . S
Eu147 O185 2.372 . S
Eu147 O186 2.462 . S
Eu147 O187 2.373 . S
Eu147 O189 2.432 . S
Eu147 O190 2.291 . S
Eu147 C211 2.787 . S
N148 C144 1.351 . S
N148 Eu147 2.562 . S
N148 C150 1.325 . S
C149 C143 1.404 . S
C149 C151 1.366 . S
C149 H157 0.930 . S
C150 N148 1.325 . S
C150 C151 1.416 . S
C150 H156 0.929 . S
C151 C149 1.366 . S
C151 C150 1.416 . S
C151 H153 0.930 . S
H152 C141 0.930 . S
H153 C151 0.930 . S
H154 C169 0.930 . S
H155 C176 0.930 . S
H156 C150 0.929 . S
H157 C149 0.930 . S
H158 C172 0.929 . S
H159 C139 0.931 . S
H160 C145 0.931 . S
H161 C146 0.931 . S
H162 C167 0.931 . S
H163 C142 0.929 . S
H164 C175 0.930 . S
N165 Eu136 2.600 . S
N165 C166 1.365 1_556 S
N165 C169 1.319 . S
C166 N165 1.365 1_554 S
C166 C168 1.405 . S
C166 C174 1.448 . S
C167 H162 0.931 . S
C167 C169 1.397 . S
C167 C170 1.367 1_556 S
C168 C166 1.405 . S
C168 C170 1.403 . S
C168 C201 1.439 . S
C169 H154 0.930 . S
C169 N165 1.319 . S
C169 C167 1.397 . S
C170 C167 1.367 1_554 S
C170 C168 1.403 . S
C170 H177 0.929 . S
N171 Eu136 2.562 1_554 S
N171 C172 1.325 . S
N171 C174 1.351 . S
C172 H158 0.929 . S
C172 N171 1.325 . S
C172 C176 1.416 . S
C173 C174 1.430 . S
C173 C175 1.404 . S
C173 C202 1.387 . S
C174 C166 1.448 . S
C174 N171 1.351 . S
C174 C173 1.430 . S
C175 H164 0.930 . S
C175 C173 1.404 . S
C175 C176 1.366 . S
C176 H155 0.930 . S
C176 C172 1.416 . S
C176 C175 1.366 . S
H177 C170 0.929 . S
H178 C201 0.931 . S
H179 C202 0.931 . S
O180 Eu136 2.462 . S
O180 C200 1.252 . S
O181 Eu136 2.373 1_554 S
O181 C192 1.249 . S
O182 Eu147 2.335 . S
O182 C192 1.264 . S
O183 Eu136 2.432 . S
O183 C200 1.268 . S
O184 Eu136 2.291 1_554 S
O184 C199 1.255 . S
O185 Eu147 2.372 . S
O185 C199 1.257 . S
O186 Eu147 2.462 . S
O186 C211 1.252 . S
O187 Eu147 2.373 . S
O187 C203 1.249 1_554 S
O188 Eu136 2.335 . S
O188 C203 1.264 . S
O189 Eu147 2.432 . S
O189 C211 1.268 . S
O190 Eu147 2.291 . S
O190 C210 1.255 . S
O191 Eu136 2.372 1_554 S
O191 C210 1.257 . S
C192 O181 1.249 . S
C192 O182 1.264 . S
C193 C196 1.382 . S
C193 C198 1.390 . S
C193 C200 1.506 . S
C194 C195 1.398 . S
C194 C198 1.392 . S
C195 C194 1.398 . S
C195 C197 1.372 . S
C195 H212 0.931 . S
C196 C193 1.382 . S
C196 C197 1.390 . S
C196 H213 0.931 . S
C197 C195 1.372 . S
C197 C196 1.390 . S
C197 H214 0.929 . S
C198 C193 1.390 . S
C198 C194 1.392 . S
C198 H215 0.930 . S
C199 O184 1.255 . S
C199 O185 1.257 . S
C200 Eu136 2.787 . S
C200 O180 1.252 . S
C200 O183 1.268 . S
C200 C193 1.506 . S
C201 C168 1.439 . S
C201 H178 0.931 . S
C201 C202 1.374 . S
C202 C173 1.387 . S
C202 H179 0.931 . S
C202 C201 1.374 . S
C203 O187 1.249 1_556 S
C203 O188 1.264 . S
C204 C207 1.382 . S
C204 C208 1.390 . S
C204 C211 1.506 . S
C205 C206 1.398 . S
C205 C208 1.392 . S
C206 C205 1.398 . S
C206 C209 1.372 . S
C206 H216 0.931 . S
C207 C204 1.382 . S
C207 C209 1.390 . S
C207 H217 0.931 . S
C208 C204 1.390 . S
C208 C205 1.392 . S
C208 H218 0.930 . S
C209 C206 1.372 . S
C209 C207 1.390 . S
C209 H219 0.929 . S
C210 O190 1.255 . S
C210 O191 1.257 . S
C211 Eu147 2.787 . S
C211 O186 1.252 . S
C211 O189 1.268 . S
C211 C204 1.506 . S
H212 C195 0.931 . S
H213 C196 0.931 . S
H214 C197 0.929 . S
H215 C198 0.930 . S
H216 C206 0.931 . S
H217 C207 0.931 . S
H218 C208 0.930 . S
H219 C209 0.929 . S
C220 C221 1.391 . S
C220 C222 1.394 . S
C220 H236 0.931 . S
C221 C220 1.391 . S
C221 C225 1.376 . S
C222 C220 1.394 . S
C222 C223 1.369 . S
C222 C226 1.531 . S
C223 C222 1.369 . S
C223 C224 1.410 . S
C223 C231 1.503 . S
C224 C223 1.410 . S
C224 C225 1.392 . S
C224 C227 1.511 . S
C225 C221 1.376 . S
C225 C224 1.392 . S
C225 H237 0.929 . S
C226 C222 1.531 . S
C226 H238 0.960 . S
C226 H239 0.962 . S
C226 H240 0.960 . S
C227 C224 1.511 . S
C227 H241 0.961 . S
C227 H242 0.961 . S
C227 H243 0.961 . S
C228 C229 1.370 . S
C228 C230 1.363 . S
C228 H244 0.931 . S
C229 C228 1.370 . S
C229 C233 1.408 . S
C230 C228 1.363 . S
C230 C231 1.370 . S
C230 C234 1.524 . S
C231 C223 1.503 . S
C231 C230 1.370 . S
C231 C232 1.403 . S
C232 C231 1.403 . S
C232 C233 1.404 . S
C232 C235 1.539 . S
C233 C229 1.408 . S
C233 C232 1.404 . S
C233 H245 0.930 . S
C234 C230 1.524 . S
C234 H246 0.956 . S
C234 H247 0.961 . S
C234 H248 0.961 . S
C235 C232 1.539 . S
C235 H249 0.958 . S
C235 H250 0.961 . S
C235 H251 0.960 . S
H236 C220 0.931 . S
H237 C225 0.929 . S
H238 C226 0.960 . S
H239 C226 0.962 . S
H240 C226 0.960 . S
H241 C227 0.961 . S
H242 C227 0.961 . S
H243 C227 0.961 . S
H244 C228 0.931 . S
H245 C233 0.930 . S
H246 C234 0.956 . S
H247 C234 0.961 . S
H248 C234 0.961 . S
H249 C235 0.958 . S
H250 C235 0.961 . S
H251 C235 0.960 . S
C252 C253 1.391 . S
C252 C254 1.394 . S
C252 H268 0.931 . S
C253 C252 1.391 . S
C253 C257 1.376 . S
C254 C252 1.394 . S
C254 C255 1.369 . S
C254 C258 1.531 . S
C255 C254 1.369 . S
C255 C256 1.410 . S
C255 C263 1.503 . S
C256 C255 1.410 . S
C256 C257 1.392 . S
C256 C259 1.511 . S
C257 C253 1.376 . S
C257 C256 1.392 . S
C257 H269 0.929 . S
C258 C254 1.531 . S
C258 H270 0.960 . S
C258 H271 0.962 . S
C258 H272 0.960 . S
C259 C256 1.511 . S
C259 H273 0.961 . S
C259 H274 0.961 . S
C259 H275 0.961 . S
C260 C261 1.370 . S
C260 C262 1.363 . S
C260 H276 0.931 1_554 S
C261 C260 1.370 . S
C261 C265 1.408 . S
C262 C260 1.363 . S
C262 C263 1.370 . S
C262 C266 1.524 1_554 S
C263 C255 1.503 . S
C263 C262 1.370 . S
C263 C264 1.403 . S
C264 C263 1.403 . S
C264 C265 1.404 . S
C264 C267 1.539 . S
C265 C261 1.408 . S
C265 C264 1.404 . S
C265 H277 0.930 . S
C266 C262 1.524 1_556 S
C266 H278 0.956 . S
C266 H279 0.961 . S
C266 H280 0.961 . S
C267 C264 1.539 . S
C267 H281 0.958 . S
C267 H282 0.961 . S
C267 H283 0.960 . S
H268 C252 0.931 . S
H269 C257 0.929 . S
H270 C258 0.960 . S
H271 C258 0.962 . S
H272 C258 0.960 . S
H273 C259 0.961 . S
H274 C259 0.961 . S
H275 C259 0.961 . S
H276 C260 0.931 1_556 S
H277 C265 0.930 . S
H278 C266 0.956 . S
H279 C266 0.961 . S
H280 C266 0.961 . S
H281 C267 0.958 . S
H282 C267 0.961 . S
H283 C267 0.960 . S
C284 C285 1.391 . S
C284 C286 1.394 . S
C284 H300 0.931 . S
C285 C284 1.391 . S
C285 C289 1.376 . S
C286 C284 1.394 . S
C286 C287 1.369 . S
C286 C290 1.531 . S
C287 C286 1.369 . S
C287 C288 1.410 . S
C287 C295 1.503 . S
C288 C287 1.410 . S
C288 C289 1.392 . S
C288 C291 1.511 . S
C289 C285 1.376 . S
C289 C288 1.392 . S
C289 H301 0.929 . S
C290 C286 1.531 . S
C290 H302 0.960 . S
C290 H303 0.962 . S
C290 H304 0.960 . S
C291 C288 1.511 . S
C291 H305 0.961 . S
C291 H306 0.961 . S
C291 H307 0.961 . S
C292 C293 1.370 . S
C292 C294 1.363 . S
C292 H308 0.931 . S
C293 C292 1.370 . S
C293 C297 1.408 . S
C294 C292 1.363 . S
C294 C295 1.370 . S
C294 C298 1.524 . S
C295 C287 1.503 . S
C295 C294 1.370 . S
C295 C296 1.403 . S
C296 C295 1.403 . S
C296 C297 1.404 . S
C296 C299 1.539 . S
C297 C293 1.408 . S
C297 C296 1.404 . S
C297 H309 0.930 . S
C298 C294 1.524 . S
C298 H310 0.956 . S
C298 H311 0.961 . S
C298 H312 0.961 . S
C299 C296 1.539 . S
C299 H313 0.958 . S
C299 H314 0.961 . S
C299 H315 0.960 . S
H300 C284 0.931 . S
H301 C289 0.929 . S
H302 C290 0.960 . S
H303 C290 0.962 . S
H304 C290 0.960 . S
H305 C291 0.961 . S
H306 C291 0.961 . S
H307 C291 0.961 . S
H308 C292 0.931 . S
H309 C297 0.930 . S
H310 C298 0.956 . S
H311 C298 0.961 . S
H312 C298 0.961 . S
H313 C299 0.958 . S
H314 C299 0.961 . S
H315 C299 0.960 . S
C316 C317 1.391 . S
C316 C318 1.394 . S
C316 H332 0.931 . S
C317 C316 1.391 . S
C317 C321 1.376 . S
C318 C316 1.394 . S
C318 C319 1.369 . S
C318 C322 1.531 1_554 S
C319 C318 1.369 . S
C319 C320 1.410 . S
C319 C327 1.503 . S
C320 C319 1.410 . S
C320 C321 1.392 . S
C320 C323 1.511 . S
C321 C317 1.376 . S
C321 C320 1.392 . S
C321 H333 0.929 . S
C322 C318 1.531 1_556 S
C322 H334 0.960 . S
C322 H335 0.962 1_556 S
C322 H336 0.960 . S
C323 C320 1.511 . S
C323 H337 0.961 . S
C323 H338 0.961 . S
C323 H339 0.961 . S
C324 C325 1.370 . S
C324 C326 1.363 . S
C324 H340 0.931 . S
C325 C324 1.370 . S
C325 C329 1.408 1_554 S
C326 C324 1.363 . S
C326 C327 1.370 . S
C326 C330 1.524 . S
C327 C319 1.503 . S
C327 C326 1.370 . S
C327 C328 1.403 1_554 S
C328 C327 1.403 1_556 S
C328 C329 1.404 . S
C328 C331 1.539 . S
C329 C325 1.408 1_556 S
C329 C328 1.404 . S
C329 H341 0.930 . S
C330 C326 1.524 . S
C330 H342 0.956 . S
C330 H343 0.961 . S
C330 H344 0.961 . S
C331 C328 1.539 . S
C331 H345 0.958 . S
C331 H346 0.961 . S
C331 H347 0.960 . S
H332 C316 0.931 . S
H333 C321 0.929 . S
H334 C322 0.960 . S
H335 C322 0.962 1_554 S
H336 C322 0.960 . S
H337 C323 0.961 . S
H338 C323 0.961 . S
H339 C323 0.961 . S
H340 C324 0.931 . S
H341 C329 0.930 . S
H342 C330 0.956 . S
H343 C330 0.961 . S
H344 C330 0.961 . S
H345 C331 0.958 . S
H346 C331 0.961 . S
H347 C331 0.960 . S
C348 C349 1.391 . S
C348 C350 1.394 . S
C348 H364 0.931 . S
C349 C348 1.391 . S
C349 C353 1.376 . S
C350 C348 1.394 . S
C350 C351 1.369 . S
C350 C354 1.531 . S
C351 C350 1.369 . S
C351 C352 1.410 . S
C351 C359 1.503 . S
C352 C351 1.410 . S
C352 C353 1.392 . S
C352 C355 1.511 . S
C353 C349 1.376 . S
C353 C352 1.392 . S
C353 H365 0.929 . S
C354 C350 1.531 . S
C354 H366 0.960 . S
C354 H367 0.962 . S
C354 H368 0.960 . S
C355 C352 1.511 . S
C355 H369 0.961 . S
C355 H370 0.961 . S
C355 H371 0.961 . S
C356 C357 1.370 . S
C356 C358 1.363 . S
C356 H372 0.931 . S
C357 C356 1.370 . S
C357 C361 1.408 . S
C358 C356 1.363 . S
C358 C359 1.370 . S
C358 C362 1.524 . S
C359 C351 1.503 . S
C359 C358 1.370 . S
C359 C360 1.403 . S
C360 C359 1.403 . S
C360 C361 1.404 . S
C360 C363 1.539 . S
C361 C357 1.408 . S
C361 C360 1.404 . S
C361 H373 0.930 1_565 S
C362 C358 1.524 . S
C362 H374 0.956 . S
C362 H375 0.961 . S
C362 H376 0.961 . S
C363 C360 1.539 . S
C363 H377 0.958 . S
C363 H378 0.961 1_565 S
C363 H379 0.960 . S
H364 C348 0.931 . S
H365 C353 0.929 . S
H366 C354 0.960 . S
H367 C354 0.962 . S
H368 C354 0.960 . S
H369 C355 0.961 . S
H370 C355 0.961 . S
H371 C355 0.961 . S
H372 C356 0.931 . S
H373 C361 0.930 1_545 S
H374 C362 0.956 . S
H375 C362 0.961 . S
H376 C362 0.961 . S
H377 C363 0.958 . S
H378 C363 0.961 1_545 S
H379 C363 0.960 . S
C380 C381 1.391 . S
C380 C382 1.394 . S
C380 H396 0.931 . S
C381 C380 1.391 . S
C381 C385 1.376 . S
C382 C380 1.394 . S
C382 C383 1.369 . S
C382 C386 1.531 . S
C383 C382 1.369 . S
C383 C384 1.410 . S
C383 C391 1.503 . S
C384 C383 1.410 . S
C384 C385 1.392 . S
C384 C387 1.511 . S
C385 C381 1.376 . S
C385 C384 1.392 . S
C385 H397 0.929 . S
C386 C382 1.531 . S
C386 H398 0.960 . S
C386 H399 0.962 . S
C386 H400 0.960 . S
C387 C384 1.511 . S
C387 H401 0.961 . S
C387 H402 0.961 . S
C387 H403 0.961 . S
C388 C389 1.370 . S
C388 C390 1.363 . S
C388 H404 0.931 . S
C389 C388 1.370 . S
C389 C393 1.408 . S
C390 C388 1.363 . S
C390 C391 1.370 . S
C390 C394 1.524 . S
C391 C383 1.503 . S
C391 C390 1.370 . S
C391 C392 1.403 . S
C392 C391 1.403 . S
C392 C393 1.404 . S
C392 C395 1.539 . S
C393 C389 1.408 . S
C393 C392 1.404 . S
C393 H405 0.930 . S
C394 C390 1.524 . S
C394 H406 0.956 . S
C394 H407 0.961 . S
C394 H408 0.961 . S
C395 C392 1.539 . S
C395 H409 0.958 . S
C395 H410 0.961 . S
C395 H411 0.960 . S
H396 C380 0.931 . S
H397 C385 0.929 . S
H398 C386 0.960 . S
H399 C386 0.962 . S
H400 C386 0.960 . S
H401 C387 0.961 . S
H402 C387 0.961 . S
H403 C387 0.961 . S
H404 C388 0.931 . S
H405 C393 0.930 . S
H406 C394 0.956 . S
H407 C394 0.961 . S
H408 C394 0.961 . S
H409 C395 0.958 . S
H410 C395 0.961 . S
H411 C395 0.960 . S
C412 C413 1.391 . S
C412 C414 1.394 . S
C412 H428 0.931 . S
C413 C412 1.391 . S
C413 C417 1.376 . S
C414 C412 1.394 . S
C414 C415 1.369 . S
C414 C418 1.531 . S
C415 C414 1.369 . S
C415 C416 1.410 . S
C415 C423 1.503 . S
C416 C415 1.410 . S
C416 C417 1.392 . S
C416 C419 1.511 . S
C417 C413 1.376 . S
C417 C416 1.392 . S
C417 H429 0.929 . S
C418 C414 1.531 . S
C418 H430 0.960 . S
C418 H431 0.962 . S
C418 H432 0.960 . S
C419 C416 1.511 . S
C419 H433 0.961 . S
C419 H434 0.961 . S
C419 H435 0.961 . S
C420 C421 1.370 . S
C420 C422 1.363 . S
C420 H436 0.932 1_545 S
C421 C420 1.370 . S
C421 C425 1.408 . S
C422 C420 1.363 . S
C422 C423 1.370 . S
C422 C426 1.524 . S
C423 C415 1.503 . S
C423 C422 1.370 . S
C423 C424 1.403 . S
C424 C423 1.403 . S
C424 C425 1.404 . S
C424 C427 1.539 . S
C425 C421 1.408 . S
C425 C424 1.404 . S
C425 H437 0.930 . S
C426 C422 1.524 . S
C426 H438 0.956 . S
C426 H439 0.961 . S
C426 H440 0.961 1_545 S
C427 C424 1.539 . S
C427 H441 0.958 . S
C427 H442 0.961 . S
C427 H443 0.960 . S
H428 C412 0.931 . S
H429 C417 0.929 . S
H430 C418 0.960 . S
H431 C418 0.962 . S
H432 C418 0.960 . S
H433 C419 0.961 . S
H434 C419 0.961 . S
H435 C419 0.961 . S
H436 C420 0.932 1_565 S
H437 C425 0.930 . S
H438 C426 0.956 . S
H439 C426 0.961 . S
H440 C426 0.961 1_565 S
H441 C427 0.958 . S
H442 C427 0.961 . S
H443 C427 0.960 . S
C444 C445 1.391 . S
C444 C446 1.394 . S
C444 H460 0.931 . S
C445 C444 1.391 . S
C445 C449 1.376 . S
C446 C444 1.394 . S
C446 C447 1.369 . S
C446 C450 1.531 . S
C447 C446 1.369 . S
C447 C448 1.410 . S
C447 C455 1.503 . S
C448 C447 1.410 . S
C448 C449 1.392 . S
C448 C451 1.511 . S
C449 C445 1.376 . S
C449 C448 1.392 . S
C449 H461 0.929 . S
C450 C446 1.531 . S
C450 H462 0.960 . S
C450 H463 0.962 . S
C450 H464 0.960 . S
C451 C448 1.511 . S
C451 H465 0.961 . S
C451 H466 0.961 . S
C451 H467 0.961 . S
C452 C453 1.370 . S
C452 C454 1.363 . S
C452 H468 0.931 . S
C453 C452 1.370 . S
C453 C457 1.408 . S
C454 C452 1.363 . S
C454 C455 1.370 . S
C454 C458 1.524 . S
C455 C447 1.503 . S
C455 C454 1.370 . S
C455 C456 1.403 . S
C456 C455 1.403 . S
C456 C457 1.404 . S
C456 C459 1.539 . S
C457 C453 1.408 . S
C457 C456 1.404 . S
C457 H469 0.930 . S
C458 C454 1.524 . S
C458 H470 0.956 . S
C458 H471 0.961 . S
C458 H472 0.961 . S
C459 C456 1.539 . S
C459 H473 0.958 . S
C459 H474 0.961 . S
C459 H475 0.960 . S
H460 C444 0.931 . S
H461 C449 0.929 . S
H462 C450 0.960 . S
H463 C450 0.962 . S
H464 C450 0.960 . S
H465 C451 0.961 . S
H466 C451 0.961 . S
H467 C451 0.961 . S
H468 C452 0.931 . S
H469 C457 0.930 . S
H470 C458 0.956 . S
H471 C458 0.961 . S
H472 C458 0.961 . S
H473 C459 0.958 . S
H474 C459 0.961 . S
H475 C459 0.960 . S
C476 C477 1.391 . S
C476 C478 1.394 . S
C476 H492 0.931 . S
C477 C476 1.391 . S
C477 C481 1.376 . S
C478 C476 1.394 . S
C478 C479 1.369 . S
C478 C482 1.531 . S
C479 C478 1.369 . S
C479 C480 1.410 . S
C479 C487 1.503 . S
C480 C479 1.410 . S
C480 C481 1.392 . S
C480 C483 1.511 . S
C481 C477 1.376 . S
C481 C480 1.392 . S
C481 H493 0.929 . S
C482 C478 1.531 . S
C482 H494 0.960 . S
C482 H495 0.962 . S
C482 H496 0.960 . S
C483 C480 1.511 . S
C483 H497 0.961 . S
C483 H498 0.961 . S
C483 H499 0.961 . S
C484 C485 1.370 . S
C484 C486 1.363 . S
C484 H500 0.931 . S
C485 C484 1.370 . S
C485 C489 1.408 . S
C486 C484 1.363 . S
C486 C487 1.370 . S
C486 C490 1.524 . S
C487 C479 1.503 . S
C487 C486 1.370 . S
C487 C488 1.403 . S
C488 C487 1.403 . S
C488 C489 1.404 . S
C488 C491 1.539 . S
C489 C485 1.408 . S
C489 C488 1.404 . S
C489 H501 0.930 . S
C490 C486 1.524 . S
C490 H502 0.956 . S
C490 H503 0.961 . S
C490 H504 0.961 . S
C491 C488 1.539 . S
C491 H505 0.958 . S
C491 H506 0.961 . S
C491 H507 0.960 . S
H492 C476 0.931 . S
H493 C481 0.929 . S
H494 C482 0.960 . S
H495 C482 0.962 . S
H496 C482 0.960 . S
H497 C483 0.961 . S
H498 C483 0.961 . S
H499 C483 0.961 . S
H500 C484 0.931 . S
H501 C489 0.930 . S
H502 C490 0.956 . S
H503 C490 0.961 . S
H504 C490 0.961 . S
H505 C491 0.958 . S
H506 C491 0.961 . S
H507 C491 0.960 . S
C508 C509 1.391 . S
C508 C510 1.394 . S
C508 H524 0.931 . S
C509 C508 1.391 . S
C509 C513 1.376 . S
C510 C508 1.394 . S
C510 C511 1.369 . S
C510 C514 1.531 . S
C511 C510 1.369 . S
C511 C512 1.410 . S
C511 C519 1.503 . S
C512 C511 1.410 . S
C512 C513 1.392 . S
C512 C515 1.511 . S
C513 C509 1.376 . S
C513 C512 1.392 . S
C513 H525 0.929 1_556 S
C514 C510 1.531 . S
C514 H526 0.960 . S
C514 H527 0.962 . S
C514 H528 0.960 . S
C515 C512 1.511 . S
C515 H529 0.946 1_556 S
C515 H530 0.961 . S
C515 H531 0.961 . S
C516 C517 1.370 . S
C516 C518 1.363 . S
C516 H532 0.931 . S
C517 C516 1.370 . S
C517 C521 1.408 . S
C518 C516 1.363 . S
C518 C519 1.370 . S
C518 C522 1.524 . S
C519 C511 1.503 . S
C519 C518 1.370 . S
C519 C520 1.403 . S
C520 C519 1.403 . S
C520 C521 1.404 . S
C520 C523 1.539 . S
C521 C517 1.408 . S
C521 C520 1.404 . S
C521 H533 0.930 . S
C522 C518 1.524 . S
C522 H534 0.956 . S
C522 H535 0.961 . S
C522 H536 0.991 . S
C523 C520 1.539 . S
C523 H537 0.958 . S
C523 H538 0.961 . S
C523 H539 0.960 . S
H524 C508 0.931 . S
H525 C513 0.929 1_554 S
H526 C514 0.960 . S
H527 C514 0.962 . S
H528 C514 0.960 . S
H529 C515 0.946 1_554 S
H530 C515 0.961 . S
H531 C515 0.961 . S
H532 C516 0.931 . S
H533 C521 0.930 . S
H534 C522 0.956 . S
H535 C522 0.961 . S
H536 C522 0.991 . S
H537 C523 0.958 . S
H538 C523 0.961 . S
H539 C523 0.960 . S
C540 C541 1.391 . S
C540 C542 1.394 . S
C540 H556 0.931 . S
C541 C540 1.391 . S
C541 C545 1.376 . S
C542 C540 1.394 . S
C542 C543 1.369 . S
C542 C546 1.531 . S
C543 C542 1.369 . S
C543 C544 1.410 . S
C543 C551 1.503 . S
C544 C543 1.410 . S
C544 C545 1.392 . S
C544 C547 1.511 . S
C545 C541 1.376 . S
C545 C544 1.392 . S
C545 H557 0.929 . S
C546 C542 1.531 . S
C546 H558 0.960 . S
C546 H559 0.962 . S
C546 H560 0.960 . S
C547 C544 1.511 . S
C547 H561 0.961 . S
C547 H562 0.961 . S
C547 H563 0.961 . S
C548 C549 1.370 . S
C548 C550 1.363 . S
C548 H564 0.931 . S
C549 C548 1.370 . S
C549 C553 1.408 . S
C550 C548 1.363 . S
C550 C551 1.370 . S
C550 C554 1.524 . S
C551 C543 1.503 . S
C551 C550 1.370 . S
C551 C552 1.403 . S
C552 C551 1.403 . S
C552 C553 1.404 . S
C552 C555 1.539 . S
C553 C549 1.408 . S
C553 C552 1.404 . S
C553 H565 0.930 . S
C554 C550 1.524 . S
C554 H566 0.956 . S
C554 H567 0.961 . S
C554 H568 0.961 . S
C555 C552 1.539 . S
C555 H569 0.958 . S
C555 H570 0.961 . S
C555 H571 0.960 . S
H556 C540 0.931 . S
H557 C545 0.929 . S
H558 C546 0.960 . S
H559 C546 0.962 . S
H560 C546 0.960 . S
H561 C547 0.961 . S
H562 C547 0.961 . S
H563 C547 0.961 . S
H564 C548 0.931 . S
H565 C553 0.930 . S
H566 C554 0.956 . S
H567 C554 0.961 . S
H568 C554 0.961 . S
H569 C555 0.958 . S
H570 C555 0.961 . S
H571 C555 0.960 . S
C572 C573 1.391 . S
C572 C574 1.394 . S
C572 H588 0.931 . S
C573 C572 1.391 . S
C573 C577 1.376 . S
C574 C572 1.394 . S
C574 C575 1.369 . S
C574 C578 1.531 . S
C575 C574 1.369 . S
C575 C576 1.410 . S
C575 C583 1.503 . S
C576 C575 1.410 . S
C576 C577 1.392 . S
C576 C579 1.511 . S
C577 C573 1.376 . S
C577 C576 1.392 . S
C577 H589 0.929 . S
C578 C574 1.531 . S
C578 H590 0.960 . S
C578 H591 0.962 . S
C578 H592 0.960 . S
C579 C576 1.511 . S
C579 H593 0.961 . S
C579 H594 0.961 . S
C579 H595 0.961 . S
C580 C581 1.370 . S
C580 C582 1.363 . S
C580 H596 0.931 . S
C581 C580 1.370 . S
C581 C585 1.408 . S
C582 C580 1.363 . S
C582 C583 1.370 . S
C582 C586 1.524 . S
C583 C575 1.503 . S
C583 C582 1.370 . S
C583 C584 1.403 . S
C584 C583 1.403 . S
C584 C585 1.404 . S
C584 C587 1.539 . S
C585 C581 1.408 . S
C585 C584 1.404 . S
C585 H597 0.930 1_565 S
C586 C582 1.524 . S
C586 H598 0.956 . S
C586 H599 0.961 . S
C586 H600 0.961 . S
C587 C584 1.539 . S
C587 H601 0.958 1_565 S
C587 H602 0.960 1_565 S
C587 H603 0.960 . S
H588 C572 0.931 . S
H589 C577 0.929 . S
H590 C578 0.960 . S
H591 C578 0.962 . S
H592 C578 0.960 . S
H593 C579 0.961 . S
H594 C579 0.961 . S
H595 C579 0.961 . S
H596 C580 0.931 . S
H597 C585 0.930 1_545 S
H598 C586 0.956 . S
H599 C586 0.961 . S
H600 C586 0.961 . S
H601 C587 0.958 1_545 S
H602 C587 0.960 1_545 S
H603 C587 0.960 . S
C229 C115 1.663 . S
C221 C43 1.600 . S
C253 C4 1.586 . S
C261 C210 1.649 . S
C285 C17 1.586 . S
C293 C126 1.656 . S
C317 C30 1.624 . S
C325 C199 1.648 . S
C357 C110 1.430 . S
C349 C9 1.570 . S
C389 C203 1.669 . S
C381 C21 1.653 . S
C413 C34 1.609 . S
C421 C119 1.625 . S
C445 C48 1.568 . S
C453 C194 1.394 . S
C485 C205 1.399 . S
C477 C22 1.586 . S
C517 C121 1.388 . S
C509 C35 1.578 1_556 S
C549 C192 1.668 . S
C541 C47 1.665 . S
C573 C8 1.625 . S
C581 C108 1.628 . S
