# Generated by pormake.
# Topology dag, (6,3)-cn, num edge types: 1
# Building blocks:
#     Node 0, Type 0, BuildingBlock: IZENUY_clean_sbu_0, # of connection points: 6
#     Node 1, Type 0, BuildingBlock: IZENUY_clean_sbu_0, # of connection points: 6
#     Node 2, Type 0, BuildingBlock: IZENUY_clean_sbu_0, # of connection points: 6
#     Node 3, Type 0, BuildingBlock: IZENUY_clean_sbu_0, # of connection points: 6
#     Node 4, Type 1, BuildingBlock: BETDIP_clean_linker_0, # of connection points: 3
#     Node 5, Type 1, BuildingBlock: BETDIP_clean_linker_0, # of connection points: 3
#     Node 6, Type 1, BuildingBlock: BETDIP_clean_linker_0, # of connection points: 3
#     Node 7, Type 1, BuildingBlock: BETDIP_clean_linker_0, # of connection points: 3
#     Node 8, Type 1, BuildingBlock: BETDIP_clean_linker_0, # of connection points: 3
#     Node 9, Type 1, BuildingBlock: BETDIP_clean_linker_0, # of connection points: 3
#     Node 10, Type 1, BuildingBlock: BETDIP_clean_linker_0, # of connection points: 3
#     Node 11, Type 1, BuildingBlock: BETDIP_clean_linker_0, # of connection points: 3
#     Edge 12, Type (0, 1), BuildingBlock: XUDNAN_clean_linker_2, # of connection points: 2
#     Edge 13, Type (0, 1), BuildingBlock: XUDNAN_clean_linker_2, # of connection points: 2
#     Edge 14, Type (0, 1), BuildingBlock: XUDNAN_clean_linker_2, # of connection points: 2
#     Edge 15, Type (0, 1), BuildingBlock: XUDNAN_clean_linker_2, # of connection points: 2
#     Edge 16, Type (0, 1), BuildingBlock: XUDNAN_clean_linker_2, # of connection points: 2
#     Edge 17, Type (0, 1), BuildingBlock: XUDNAN_clean_linker_2, # of connection points: 2
#     Edge 18, Type (0, 1), BuildingBlock: XUDNAN_clean_linker_2, # of connection points: 2
#     Edge 19, Type (0, 1), BuildingBlock: XUDNAN_clean_linker_2, # of connection points: 2
#     Edge 20, Type (0, 1), BuildingBlock: XUDNAN_clean_linker_2, # of connection points: 2
#     Edge 21, Type (0, 1), BuildingBlock: XUDNAN_clean_linker_2, # of connection points: 2
#     Edge 22, Type (0, 1), BuildingBlock: XUDNAN_clean_linker_2, # of connection points: 2
#     Edge 23, Type (0, 1), BuildingBlock: XUDNAN_clean_linker_2, # of connection points: 2
#     Edge 24, Type (0, 1), BuildingBlock: XUDNAN_clean_linker_2, # of connection points: 2
#     Edge 25, Type (0, 1), BuildingBlock: XUDNAN_clean_linker_2, # of connection points: 2
#     Edge 26, Type (0, 1), BuildingBlock: XUDNAN_clean_linker_2, # of connection points: 2
#     Edge 27, Type (0, 1), BuildingBlock: XUDNAN_clean_linker_2, # of connection points: 2
#     Edge 28, Type (0, 1), BuildingBlock: XUDNAN_clean_linker_2, # of connection points: 2
#     Edge 29, Type (0, 1), BuildingBlock: XUDNAN_clean_linker_2, # of connection points: 2
#     Edge 30, Type (0, 1), BuildingBlock: XUDNAN_clean_linker_2, # of connection points: 2
#     Edge 31, Type (0, 1), BuildingBlock: XUDNAN_clean_linker_2, # of connection points: 2
#     Edge 32, Type (0, 1), BuildingBlock: XUDNAN_clean_linker_2, # of connection points: 2
#     Edge 33, Type (0, 1), BuildingBlock: XUDNAN_clean_linker_2, # of connection points: 2
#     Edge 34, Type (0, 1), BuildingBlock: XUDNAN_clean_linker_2, # of connection points: 2
#     Edge 35, Type (0, 1), BuildingBlock: XUDNAN_clean_linker_2, # of connection points: 2
# Relax obj value: 0.090
# Max RMSD: 0.102
# Mean RMSD: 0.085
data_MOF--net-dag--node1-IZENUY_clean_sbu_0--node2-BETDIP_clean_linker_0--edge1-XUDNAN_clean_linker_2
_symmetry_space_group_name_H-M    P1
_symmetry_Int_Tables_number       1
_symmetry_cell_setting            triclinic
loop_
_symmetry_equiv_pos_as_xyz
'x, y, z'
_cell_length_a     40.467877
_cell_length_b     39.659023
_cell_length_c     35.968266
_cell_angle_alpha  85.978204
_cell_angle_beta   89.826015
_cell_angle_gamma 90.122227
loop_
_atom_site_label
_atom_site_type_symbol
_atom_site_fract_x
_atom_site_fract_y
_atom_site_fract_z
_atom_type_partial_charge
Fe0 Fe 0.19645 0.87691 0.99274 0.0
Fe1 Fe 0.12158 0.87972 0.00176 0.0
O2 O 0.15804 0.85581 0.99835 0.0
Fe3 Fe 0.15578 0.81109 0.00078 0.0
O4 O 0.19584 0.80462 0.02394 0.0
O5 O 0.21222 0.85583 0.03521 0.0
O6 O 0.18486 0.9121 0.02099 0.0
C7 C 0.16296 0.91306 0.04619 0.0
C8 C 0.20127 0.8236 0.94474 0.0
O9 O 0.1362 0.89697 0.044 0.0
C10 C 0.10073 0.83212 0.95652 0.0
O11 O 0.18321 0.89937 0.94956 0.0
O12 O 0.13656 0.91649 0.9727 0.0
O13 O 0.17437 0.80951 0.95482 0.0
O14 O 0.21461 0.84549 0.96389 0.0
C15 C 0.11013 0.82437 0.05379 0.0
O16 O 0.10529 0.86325 0.95984 0.0
O17 O 0.11517 0.81005 0.97788 0.0
C18 C 0.15838 0.91844 0.94742 0.0
O19 O 0.0994 0.84778 0.03143 0.0
O20 O 0.13696 0.80969 0.04718 0.0
C21 C 0.21313 0.82427 0.0423 0.0
Fe22 Fe 0.70524 0.6286 0.55009 0.0
Fe23 Fe 0.65745 0.68931 0.54288 0.0
O24 O 0.66519 0.64545 0.54137 0.0
Fe25 Fe 0.63242 0.61812 0.53136 0.0
O26 O 0.63626 0.59535 0.57647 0.0
O27 O 0.69008 0.58834 0.57287 0.0
O28 O 0.70589 0.64441 0.596 0.0
C29 C 0.70042 0.67442 0.60361 0.0
C30 C 0.68591 0.5916 0.49289 0.0
O31 O 0.68739 0.69547 0.57996 0.0
C32 C 0.62077 0.67049 0.48034 0.0
O33 O 0.72731 0.66594 0.52906 0.0
O34 O 0.68775 0.69972 0.50691 0.0
O35 O 0.65832 0.58779 0.50911 0.0
O36 O 0.70736 0.61131 0.50461 0.0
C37 C 0.60114 0.66422 0.57617 0.0
O38 O 0.6261 0.69072 0.50553 0.0
O39 O 0.62716 0.63946 0.48589 0.0
C40 C 0.71758 0.69057 0.50749 0.0
O41 O 0.62654 0.68213 0.5795 0.0
O42 O 0.59986 0.64323 0.5514 0.0
C43 C 0.66239 0.5809 0.58809 0.0
Fe44 Fe 0.84114 0.18234 0.02888 0.0
Fe45 Fe 0.86652 0.10981 0.03002 0.0
O46 O 0.83403 0.13833 0.03676 0.0
Fe47 Fe 0.79469 0.12279 0.05162 0.0
O48 O 0.77504 0.1424 0.01039 0.0
O49 O 0.79901 0.192 0.01284 0.0
O50 O 0.85231 0.17831 0.98032 0.0
C51 C 0.87579 0.15992 0.97083 0.0
C52 C 0.80392 0.18048 0.09254 0.0
O53 O 0.8866 0.13628 0.99287 0.0
C54 C 0.83516 0.08116 0.09468 0.0
O55 O 0.88463 0.18062 0.04391 0.0
O56 O 0.89116 0.12787 0.06545 0.0
O57 O 0.78506 0.15892 0.07906 0.0
O58 O 0.83067 0.18924 0.07663 0.0
C59 C 0.81556 0.07636 -0.00033 0.0
O60 O 0.85283 0.07816 0.06611 0.0
O61 O 0.81166 0.10203 0.09407 0.0
C62 C 0.89967 0.1585 0.0646 0.0
O63 O 0.84356 0.08997 0.99434 0.0
O64 O 0.79748 0.08391 0.02673 0.0
C65 C 0.77675 0.17345 0.00025 0.0
Fe66 Fe 0.3704 0.38648 0.50537 0.0
Fe67 Fe 0.29912 0.37781 0.48002 0.0
O68 O 0.33705 0.35983 0.49567 0.0
Fe69 Fe 0.3422 0.31553 0.50147 0.0
O70 O 0.37036 0.31722 0.54165 0.0
O71 O 0.3703 0.37086 0.55375 0.0
O72 O 0.34472 0.42171 0.51858 0.0
C73 C 0.31569 0.4218 0.53157 0.0
C74 C 0.40215 0.33344 0.47179 0.0
O75 O 0.29463 0.40074 0.52189 0.0
C76 C 0.30442 0.32488 0.43526 0.0
O77 O 0.37192 0.40281 0.45737 0.0
O78 O 0.31875 0.41425 0.45335 0.0
O79 O 0.3761 0.31661 0.46796 0.0
O80 O 0.4028 0.35674 0.49395 0.0
C81 C 0.2798 0.32222 0.52959 0.0
O82 O 0.30092 0.35625 0.43741 0.0
O83 O 0.31478 0.30624 0.46282 0.0
C84 C 0.34795 0.4169 0.4403 0.0
O85 O 0.27329 0.34436 0.50346 0.0
O86 O 0.30885 0.31157 0.53488 0.0
C87 C 0.3748 0.34015 0.56417 0.0
H88 H 0.13186 0.20252 0.19704 0.0
H89 H 0.20623 0.12482 0.20811 0.0
H90 H 0.11323 0.10417 0.15784 0.0
H91 H 0.22247 0.15545 0.25644 0.0
C92 C 0.21744 0.18168 0.24766 0.0
C93 C 0.13979 0.17699 0.19276 0.0
C94 C 0.11829 0.15457 0.17632 0.0
C95 C 0.17122 0.16643 0.20503 0.0
C96 C 0.18176 0.13324 0.19978 0.0
C97 C 0.1605 0.11087 0.1831 0.0
C98 C 0.12906 0.1216 0.17148 0.0
N99 N 0.19138 0.19006 0.22235 0.0
H100 H 0.28741 0.63033 0.70648 0.0
H101 H 0.37217 0.69413 0.72063 0.0
H102 H 0.38157 0.60517 0.66033 0.0
H103 H 0.33027 0.73347 0.71776 0.0
C104 C 0.3131 0.72115 0.73768 0.0
C105 C 0.31349 0.63555 0.70223 0.0
C106 C 0.33268 0.61474 0.68067 0.0
C107 C 0.32748 0.66439 0.71654 0.0
C108 C 0.36119 0.6719 0.7099 0.0
C109 C 0.3807 0.65108 0.68878 0.0
C110 C 0.36638 0.62208 0.67547 0.0
N111 N 0.30712 0.68587 0.73685 0.0
H112 H 0.94498 0.80013 0.29097 0.0
H113 H 0.88231 0.88527 0.30634 0.0
H114 H 0.9394 0.88193 0.20582 0.0
H115 H 0.90682 0.77297 0.3336 0.0
C116 C 0.8939 0.79254 0.34746 0.0
C117 C 0.93501 0.8243 0.28066 0.0
C118 C 0.94552 0.8393 0.24589 0.0
C119 C 0.91183 0.841 0.30211 0.0
C120 C 0.89965 0.87258 0.28906 0.0
C121 C 0.90868 0.88732 0.25396 0.0
C122 C 0.93188 0.87058 0.23277 0.0
N123 N 0.89944 0.82725 0.33684 0.0
H124 H 0.54534 0.30481 0.79083 0.0
H125 H 0.62967 0.37116 0.78948 0.0
H126 H 0.55216 0.38939 0.70966 0.0
H127 H 0.64027 0.34597 0.84474 0.0
C128 C 0.63041 0.32052 0.84467 0.0
C129 C 0.55825 0.32707 0.7791 0.0
C130 C 0.54452 0.34667 0.74908 0.0
C131 C 0.58874 0.3357 0.7941 0.0
C132 C 0.60584 0.36443 0.77873 0.0
C133 C 0.59244 0.38439 0.74865 0.0
C134 C 0.56185 0.37517 0.73405 0.0
N135 N 0.60217 0.31369 0.82306 0.0
H136 H 0.6327 0.30495 0.3321 0.0
H137 H 0.70884 0.38087 0.32702 0.0
H138 H 0.61822 0.39697 0.38589 0.0
H139 H 0.66034 0.28296 0.28728 0.0
C140 C 0.68554 0.29233 0.28664 0.0
C141 C 0.64152 0.32963 0.33838 0.0
C142 C 0.62149 0.34979 0.35978 0.0
C143 C 0.67304 0.341 0.32644 0.0
C144 C 0.68457 0.37236 0.33648 0.0
C145 C 0.66506 0.39284 0.35793 0.0
C146 C 0.63348 0.38137 0.36927 0.0
N147 N 0.6943 0.32171 0.30479 0.0
H148 H 0.04726 0.19445 0.74203 0.0
H149 H 0.12743 0.12313 0.74034 0.0
H150 H 0.04686 0.10547 0.81711 0.0
H151 H 0.15529 0.16908 0.71986 0.0
C152 C 0.1385 0.18403 0.70197 0.0
C153 C 0.05843 0.17073 0.75209 0.0
C154 C 0.04384 0.1512 0.7817 0.0
C155 C 0.08877 0.16103 0.7372 0.0
C156 C 0.10401 0.13085 0.75145 0.0
C157 C 0.08942 0.11092 0.78092 0.0
C158 C 0.05885 0.12091 0.79491 0.0
N159 N 0.10395 0.18296 0.70917 0.0
H160 H 0.43825 0.71017 0.26708 0.0
H161 H 0.36816 0.62957 0.25624 0.0
H162 H 0.45382 0.61238 0.32423 0.0
H163 H 0.35258 0.66025 0.20536 0.0
C164 C 0.35732 0.68653 0.21013 0.0
C165 C 0.43068 0.68419 0.27362 0.0
C166 C 0.44997 0.66276 0.29745 0.0
C167 C 0.40158 0.67244 0.2579 0.0
C168 C 0.39118 0.63891 0.26679 0.0
C169 C 0.41052 0.61717 0.29 0.0
C170 C 0.4398 0.6291 0.30508 0.0
N171 N 0.383 0.69548 0.2344 0.0
H172 H 0.78019 0.84579 0.86567 0.0
H173 H 0.86137 0.77727 0.85423 0.0
H174 H 0.87645 0.86946 0.90751 0.0
H175 H 0.76203 0.82031 0.81437 0.0
C176 C 0.77017 0.79422 0.81806 0.0
C177 C 0.80591 0.83929 0.87001 0.0
C178 C 0.82681 0.8616 0.88762 0.0
C179 C 0.81845 0.80878 0.85798 0.0
C180 C 0.85171 0.80061 0.86387 0.0
C181 C 0.87263 0.82255 0.88144 0.0
C182 C 0.86006 0.8527 0.89365 0.0
N183 N 0.79864 0.78567 0.83957 0.0
H184 H 0.19659 0.97305 0.04322 0.0
H185 H 0.13726 0.90549 0.11631 0.0
H186 H 0.14044 0.94589 0.16543 0.0
H187 H 0.24845 0.00986 0.11674 0.0
H188 H 0.24697 0.05149 0.09323 0.0
H189 H 0.24576 0.01462 0.06663 0.0
H190 H 0.19113 0.03564 0.03552 0.0
H191 H 0.1924 0.07256 0.06169 0.0
H192 H 0.15653 0.04545 0.06453 0.0
H193 H 0.14342 0.99591 0.20284 0.0
H194 H 0.14143 0.05407 0.22342 0.0
H195 H 0.19752 0.09019 0.126 0.0
C196 C 0.18513 0.9664 0.06999 0.0
C197 C 0.167 0.93608 0.07628 0.0
C198 C 0.15135 0.92861 0.11111 0.0
C199 C 0.1533 0.95123 0.13925 0.0
C200 C 0.17089 0.98125 0.13202 0.0
C201 C 0.18636 0.98899 0.09814 0.0
C202 C 0.19952 0.02487 0.09546 0.0
C203 C 0.23743 0.02521 0.09287 0.0
C204 C 0.18395 0.04585 0.06236 0.0
C205 C 0.18785 0.03655 0.13249 0.0
C206 C 0.17216 0.01069 0.15357 0.0
C207 C 0.15636 0.01614 0.1871 0.0
C208 C 0.15548 0.04911 0.1987 0.0
C209 C 0.1702 0.07604 0.17675 0.0
C210 C 0.18734 0.06959 0.14386 0.0
H211 H 0.53798 0.65016 0.55743 0.0
H212 H 0.59649 0.69006 0.64522 0.0
H213 H 0.5457 0.6944 0.68358 0.0
H214 H 0.46543 0.70262 0.56937 0.0
H215 H 0.43745 0.66923 0.55875 0.0
H216 H 0.47814 0.67131 0.53829 0.0
H217 H 0.48949 0.60995 0.56485 0.0
H218 H 0.44897 0.60774 0.58559 0.0
H219 H 0.48494 0.59945 0.61419 0.0
H220 H 0.48789 0.6894 0.714 0.0
H221 H 0.42951 0.67782 0.73197 0.0
H222 H 0.41051 0.64477 0.62151 0.0
C223 C 0.54019 0.66008 0.58463 0.0
C224 C 0.57114 0.66963 0.5985 0.0
C225 C 0.57291 0.68273 0.63407 0.0
C226 C 0.54424 0.6852 0.65601 0.0
C227 C 0.5141 0.67499 0.6416 0.0
C228 C 0.512 0.6631 0.60646 0.0
C229 C 0.47713 0.65311 0.59723 0.0
C230 C 0.46375 0.67541 0.56395 0.0
C231 C 0.47503 0.61533 0.59006 0.0
C232 C 0.45985 0.66043 0.63298 0.0
C233 C 0.48134 0.67305 0.65839 0.0
C234 C 0.47081 0.67994 0.69408 0.0
C235 C 0.43759 0.67341 0.70401 0.0
C236 C 0.4154 0.66011 0.6783 0.0
C237 C 0.42683 0.65432 0.64216 0.0
H238 H 0.89308 0.05164 0.11587 0.0
H239 H 0.78947 0.05609 0.14628 0.0
H240 H 0.79828 0.01003 0.19547 0.0
H241 H 0.90156 0.96539 0.12378 0.0
H242 H 0.94256 0.96471 0.14325 0.0
H243 H 0.92912 0.00073 0.11411 0.0
H244 H 0.9424 0.04033 0.16642 0.0
H245 H 0.95641 0.00445 0.19566 0.0
H246 H 0.92471 0.03163 0.21214 0.0
H247 H 0.81693 0.95809 0.23421 0.0
H248 H 0.84418 0.90723 0.26259 0.0
H249 H 0.93675 0.93959 0.20978 0.0
C250 C 0.87236 0.04333 0.13336 0.0
C251 C 0.84055 0.05717 0.12729 0.0
C252 C 0.81405 0.04586 0.15071 0.0
C253 C 0.81885 0.01972 0.17861 0.0
C254 C 0.85041 0.00587 0.1831 0.0
C255 C 0.87683 0.01775 0.16153 0.0
C256 C 0.90787 0.99761 0.17047 0.0
C257 C 0.92102 0.98114 0.13585 0.0
C258 C 0.93441 0.01982 0.18718 0.0
C259 C 0.89448 0.97144 0.19927 0.0
C260 C 0.86137 0.97676 0.20639 0.0
C261 C 0.84304 0.95419 0.22961 0.0
C262 C 0.85887 0.92537 0.24578 0.0
C263 C 0.89283 0.91932 0.23883 0.0
C264 C 0.9108 0.94316 0.21567 0.0
H265 H 0.39432 0.38412 0.61509 0.0
H266 H 0.39545 0.27785 0.59326 0.0
H267 H 0.43262 0.26619 0.64688 0.0
H268 H 0.47571 0.39122 0.63145 0.0
H269 H 0.47273 0.42006 0.66788 0.0
H270 H 0.44062 0.41897 0.63365 0.0
H271 H 0.39692 0.40732 0.68582 0.0
H272 H 0.42895 0.4087 0.72043 0.0
H273 H 0.40243 0.37217 0.7198 0.0
H274 H 0.47729 0.26796 0.6948 0.0
H275 H 0.52507 0.283 0.73288 0.0
H276 H 0.49402 0.38788 0.72411 0.0
C277 C 0.40147 0.35818 0.62224 0.0
C278 C 0.39198 0.33191 0.59991 0.0
C279 C 0.40232 0.29841 0.60999 0.0
C280 C 0.42335 0.29151 0.6405 0.0
C281 C 0.43345 0.3183 0.66091 0.0
C282 C 0.42249 0.35093 0.65244 0.0
C283 C 0.43996 0.37591 0.67555 0.0
C284 C 0.45834 0.40311 0.65064 0.0
C285 C 0.41561 0.39196 0.70198 0.0
C286 C 0.46376 0.35253 0.69689 0.0
C287 C 0.45922 0.3193 0.6887 0.0
C288 C 0.48053 0.29374 0.7022 0.0
C289 C 0.50757 0.30251 0.7239 0.0
C290 C 0.51319 0.3366 0.73155 0.0
C291 C 0.49034 0.3616 0.71874 0.0
H292 H 0.64344 0.56894 0.44274 0.0
H293 H 0.7454 0.56165 0.47876 0.0
H294 H 0.75392 0.5139 0.43885 0.0
H295 H 0.62659 0.48638 0.44793 0.0
H296 H 0.60051 0.48595 0.40744 0.0
H297 H 0.60441 0.52389 0.43153 0.0
H298 H 0.62337 0.55726 0.37076 0.0
H299 H 0.61892 0.51952 0.34604 0.0
H300 H 0.65769 0.54203 0.34467 0.0
H301 H 0.74744 0.46016 0.40621 0.0
H302 H 0.72802 0.40767 0.38042 0.0
H303 H 0.63083 0.45204 0.36308 0.0
C304 C 0.66788 0.55801 0.44116 0.0
C305 C 0.69381 0.56877 0.46363 0.0
C306 C 0.72538 0.55389 0.46132 0.0
C307 C 0.73037 0.52676 0.43881 0.0
C308 C 0.70371 0.5156 0.41831 0.0
C309 C 0.67325 0.53132 0.41867 0.0
C310 C 0.64764 0.51262 0.39747 0.0
C311 C 0.61808 0.50156 0.42261 0.0
C312 C 0.63625 0.53414 0.36266 0.0
C313 C 0.66782 0.48267 0.38707 0.0
C314 C 0.70022 0.48502 0.39878 0.0
C315 C 0.72244 0.45852 0.3959 0.0
C316 C 0.71115 0.42877 0.38113 0.0
C317 C 0.67788 0.42568 0.36955 0.0
C318 C 0.65635 0.45345 0.37178 0.0
H319 H 0.94196 0.15986 0.96598 0.0
H320 H 0.85385 0.18047 0.90031 0.0
H321 H 0.88852 0.18824 0.84302 0.0
H322 H 0.99776 0.21918 0.9111 0.0
H323 H 0.0321 0.19054 0.9178 0.0
H324 H 0.0005 0.19174 0.95311 0.0
H325 H 0.99103 0.12729 0.95006 0.0
H326 H 0.02231 0.12589 0.91471 0.0
H327 H 0.98123 0.11076 0.90596 0.0
H328 H 0.93344 0.18505 0.79219 0.0
H329 H 0.98306 0.17268 0.75445 0.0
H330 H 0.04012 0.15648 0.85578 0.0
C331 C 0.93 0.16669 0.93961 0.0
C332 C 0.8954 0.16945 0.93723 0.0
C333 C 0.88047 0.17849 0.90247 0.0
C334 C 0.89996 0.1829 0.86994 0.0
C335 C 0.93419 0.17893 0.87314 0.0
C336 C 0.94897 0.17155 0.90738 0.0
C337 C 0.98565 0.16609 0.90381 0.0
C338 C 0.00515 0.19354 0.92256 0.0
C339 C 0.9956 0.1304 0.91954 0.0
C340 C 0.98926 0.16997 0.86203 0.0
C341 C 0.95958 0.17777 0.84453 0.0
C342 C 0.95688 0.17961 0.80569 0.0
C343 C 0.98507 0.17261 0.78448 0.0
C344 C 0.01517 0.16355 0.80238 0.0
C345 C 0.01732 0.16331 0.84146 0.0
H346 H 0.31843 0.47748 0.41936 0.0
H347 H 0.39564 0.40888 0.38885 0.0
H348 H 0.41435 0.45051 0.33907 0.0
H349 H 0.30298 0.51838 0.3228 0.0
H350 H 0.29757 0.5594 0.34057 0.0
H351 H 0.28583 0.52182 0.3687 0.0
H352 H 0.32352 0.53996 0.42194 0.0
H353 H 0.33544 0.5774 0.39403 0.0
H354 H 0.36662 0.54852 0.41249 0.0
H355 H 0.43048 0.50168 0.30051 0.0
H356 H 0.44301 0.55992 0.27528 0.0
H357 H 0.35582 0.59635 0.3298 0.0
C358 C 0.33845 0.47087 0.40121 0.0
C359 C 0.35542 0.43995 0.40749 0.0
C360 C 0.38229 0.43246 0.38422 0.0
C361 C 0.39296 0.45584 0.35578 0.0
C362 C 0.37649 0.48661 0.35099 0.0
C363 C 0.34972 0.49421 0.37289 0.0
C364 C 0.33919 0.53068 0.36506 0.0
C365 C 0.30432 0.53267 0.34827 0.0
C366 C 0.34134 0.55027 0.40047 0.0
C367 C 0.36506 0.54267 0.33653 0.0
C368 C 0.38598 0.51664 0.32839 0.0
C369 C 0.41381 0.5221 0.30583 0.0
C370 C 0.42079 0.55514 0.29171 0.0
C371 C 0.39997 0.58214 0.30013 0.0
C372 C 0.37143 0.57577 0.32214 0.0
H373 H 0.04242 0.81807 0.98941 0.0
H374 H 0.0912 0.82712 0.88194 0.0
H375 H 0.03758 0.81723 0.8509 0.0
H376 H 0.97765 0.75504 0.96721 0.0
H377 H 0.94735 0.77573 0.99449 0.0
H378 H 0.99038 0.77656 0.00727 0.0
H379 H 0.98774 0.84217 0.00494 0.0
H380 H 0.9451 0.84118 0.99129 0.0
H381 H 0.97458 0.86526 0.96261 0.0
H382 H 0.97805 0.81139 0.83196 0.0
H383 H 0.91717 0.81541 0.82586 0.0
H384 H 0.90764 0.81469 0.94588 0.0
C385 C 0.04179 0.81689 0.95943 0.0
C386 C 0.07056 0.82248 0.93782 0.0
C387 C 0.06918 0.82217 0.89866 0.0
C388 C 0.03897 0.81651 0.88098 0.0
C389 C 0.01069 0.81158 0.90308 0.0
C390 C 0.01189 0.81191 0.94149 0.0
C391 C 0.97773 0.81036 0.95867 0.0
C392 C 0.97299 0.77746 0.98337 0.0
C393 C 0.97091 0.84161 0.98064 0.0
C394 C 0.95693 0.8104 0.92385 0.0
C395 C 0.97636 0.8101 0.89214 0.0
C396 C 0.96261 0.81126 0.85658 0.0
C397 C 0.92814 0.81347 0.85336 0.0
C398 C 0.90812 0.81519 0.88544 0.0
C399 C 0.92263 0.81314 0.92106 0.0
H400 H 0.85179 0.04832 0.94533 0.0
H401 H 0.75946 0.03737 0.00685 0.0
H402 H 0.74848 0.98384 0.97799 0.0
H403 H 0.82323 0.00875 0.85964 0.0
H404 H 0.86271 0.98875 0.85396 0.0
H405 H 0.86044 0.02882 0.87459 0.0
H406 H 0.8917 0.00313 0.93262 0.0
H407 H 0.89381 0.96301 0.91243 0.0
H408 H 0.87544 0.96578 0.95783 0.0
H409 H 0.75159 0.92764 0.94955 0.0
H410 H 0.76846 0.87419 0.92342 0.0
H411 H 0.85798 0.92284 0.87975 0.0
C412 C 0.82881 0.0352 0.95203 0.0
C413 C 0.80651 0.04709 0.97838 0.0
C414 C 0.77693 0.02884 0.98668 0.0
C415 C 0.77041 0.99842 0.97035 0.0
C416 C 0.79351 0.98682 0.94547 0.0
C417 C 0.82196 0.00487 0.93605 0.0
C418 C 0.84433 0.98555 0.91139 0.0
C419 C 0.84787 0.00408 0.87259 0.0
C420 C 0.8783 0.97898 0.92968 0.0
C421 C 0.82471 0.95323 0.9097 0.0
C422 C 0.79524 0.95454 0.92903 0.0
C423 C 0.77429 0.92656 0.93369 0.0
C424 C 0.78401 0.89634 0.9187 0.0
C425 C 0.81454 0.89436 0.89963 0.0
C426 C 0.83459 0.92351 0.89439 0.0
H427 H 0.46475 0.34849 0.49201 0.0
H428 H 0.40896 0.30147 0.40671 0.0
H429 H 0.46061 0.29539 0.37045 0.0
H430 H 0.51572 0.39726 0.43327 0.0
H431 H 0.55203 0.39261 0.46206 0.0
H432 H 0.51168 0.38925 0.48305 0.0
H433 H 0.52613 0.32993 0.51345 0.0
H434 H 0.56676 0.33321 0.49285 0.0
H435 H 0.54068 0.2976 0.48463 0.0
H436 H 0.51768 0.30135 0.34037 0.0
H437 H 0.57468 0.31654 0.3205 0.0
H438 H 0.59237 0.3572 0.42761 0.0
C439 C 0.4634 0.33632 0.46601 0.0
C440 C 0.43291 0.32544 0.45209 0.0
C441 C 0.43218 0.3097 0.41797 0.0
C442 C 0.46135 0.30623 0.39721 0.0
C443 C 0.49094 0.31812 0.41137 0.0
C444 C 0.49213 0.33241 0.4453 0.0
C445 C 0.52641 0.34495 0.45368 0.0
C446 C 0.52644 0.38328 0.45826 0.0
C447 C 0.54084 0.32523 0.48819 0.0
C448 C 0.54424 0.3366 0.41857 0.0
C449 C 0.52357 0.32093 0.39454 0.0
C450 C 0.53422 0.31301 0.3593 0.0
C451 C 0.56669 0.32164 0.3483 0.0
C452 C 0.58807 0.33811 0.37246 0.0
C453 C 0.57665 0.34496 0.40828 0.0
H454 H 0.12866 0.97939 0.95127 0.0
H455 H 0.18212 0.91846 0.87578 0.0
H456 H 0.17315 0.96258 0.82435 0.0
H457 H 0.06743 0.00968 0.88968 0.0
H458 H 0.06612 0.05144 0.90644 0.0
H459 H 0.07859 0.01605 0.93717 0.0
H460 H 0.1337 0.04637 0.95053 0.0
H461 H 0.12124 0.08202 0.92003 0.0
H462 H 0.15993 0.06119 0.91217 0.0
H463 H 0.15295 0.0118 0.78003 0.0
H464 H 0.1268 0.06242 0.7484 0.0
H465 H 0.09119 0.09179 0.85543 0.0
C466 C 0.13875 0.97543 0.92398 0.0
C467 C 0.15589 0.94553 0.9173 0.0
C468 C 0.169 0.94135 0.88137 0.0
C469 C 0.16395 0.9662 0.85207 0.0
C470 C 0.14638 0.99524 0.85951 0.0
C471 C 0.13449 0.0001 0.89483 0.0
C472 C 0.11612 0.03311 0.89586 0.0
C473 C 0.07993 0.02719 0.90799 0.0
C474 C 0.13381 0.05709 0.92114 0.0
C475 C 0.11857 0.04573 0.85536 0.0
C476 C 0.13604 0.0237 0.83466 0.0
C477 C 0.13967 0.02946 0.79613 0.0
C478 C 0.12483 0.05835 0.7784 0.0
C479 C 0.10666 0.08107 0.79927 0.0
C480 C 0.10426 0.07474 0.83835 0.0
H481 H 0.60888 0.63459 0.41988 0.0
H482 H 0.58757 0.73039 0.46613 0.0
H483 H 0.54732 0.74357 0.41573 0.0
H484 H 0.59557 0.66368 0.3187 0.0
H485 H 0.57685 0.62377 0.30976 0.0
H486 H 0.60896 0.62541 0.34423 0.0
H487 H 0.57019 0.59544 0.39353 0.0
H488 H 0.53793 0.59395 0.35955 0.0
H489 H 0.53038 0.61364 0.40242 0.0
H490 H 0.50231 0.74115 0.36846 0.0
H491 H 0.45712 0.7238 0.32808 0.0
H492 H 0.5088 0.63024 0.31148 0.0
C493 C 0.59652 0.65883 0.41882 0.0
C494 C 0.60131 0.68145 0.44696 0.0
C495 C 0.58443 0.71276 0.44474 0.0
C496 C 0.56157 0.72048 0.41616 0.0
C497 C 0.55634 0.69689 0.38977 0.0
C498 C 0.57372 0.66687 0.39058 0.0
C499 C 0.5609 0.64394 0.36196 0.0
C500 C 0.58714 0.63893 0.33187 0.0
C501 C 0.54915 0.60976 0.38049 0.0
C502 C 0.5323 0.66488 0.34639 0.0
C503 C 0.53045 0.69562 0.36219 0.0
C504 C 0.50402 0.71759 0.3551 0.0
C505 C 0.47847 0.70755 0.332 0.0
C506 C 0.47945 0.67569 0.31649 0.0
C507 C 0.50731 0.65473 0.32293 0.0
H508 H 0.33712 0.48643 0.52382 0.0
H509 H 0.27379 0.41896 0.59206 0.0
H510 H 0.26512 0.46409 0.6357 0.0
H511 H 0.37803 0.52193 0.59431 0.0
H512 H 0.38043 0.56395 0.57187 0.0
H513 H 0.37768 0.52809 0.54416 0.0
H514 H 0.32569 0.55355 0.51101 0.0
H515 H 0.3284 0.58975 0.53848 0.0
H516 H 0.29076 0.56537 0.53844 0.0
H517 H 0.27093 0.51467 0.67643 0.0
H518 H 0.28846 0.56557 0.70783 0.0
H519 H 0.34455 0.59977 0.60936 0.0
C520 C 0.32085 0.48139 0.54754 0.0
C521 C 0.30614 0.44938 0.55479 0.0
C522 C 0.28502 0.44356 0.58601 0.0
C523 C 0.28004 0.469 0.61088 0.0
C524 C 0.29576 0.50017 0.60344 0.0
C525 C 0.31524 0.5065 0.57203 0.0
C526 C 0.33102 0.54106 0.57099 0.0
C527 C 0.36902 0.53858 0.57031 0.0
C528 C 0.31818 0.56378 0.53776 0.0
C529 C 0.31863 0.5528 0.60751 0.0
C530 C 0.29815 0.52917 0.62594 0.0
C531 C 0.28637 0.53362 0.66184 0.0
C532 C 0.29636 0.56259 0.67946 0.0
C533 C 0.31804 0.58647 0.66115 0.0
C534 C 0.32822 0.58182 0.62429 0.0
H535 H 0.04345 0.82865 0.05835 0.0
H536 H 0.12969 0.79718 0.12286 0.0
H537 H 0.09449 0.7888 0.17947 0.0
H538 H 0.00871 0.877 0.12181 0.0
H539 H 0.96637 0.86627 0.11248 0.0
H540 H 0.99711 0.86384 0.07666 0.0
H541 H 0.98179 0.80135 0.06961 0.0
H542 H 0.95083 0.80328 0.10548 0.0
H543 H 0.98261 0.77147 0.10975 0.0
H544 H 0.05087 0.79357 0.2305 0.0
H545 H 0.00389 0.80961 0.2698 0.0
H546 H 0.94632 0.83489 0.17029 0.0
C547 C 0.05485 0.81909 0.08416 0.0
C548 C 0.08926 0.81348 0.0863 0.0
C549 C 0.10329 0.80124 0.12061 0.0
C550 C 0.08347 0.79648 0.15284 0.0
C551 C 0.04966 0.80339 0.14997 0.0
C552 C 0.03547 0.8139 0.11621 0.0
C553 C 0.99935 0.82251 0.12056 0.0
C554 C 0.99252 0.85959 0.10711 0.0
C555 C 0.97735 0.79818 0.10015 0.0
C556 C 0.99561 0.8168 0.16234 0.0
C557 C 0.02467 0.8054 0.17895 0.0
C558 C 0.0278 0.8017 0.21768 0.0
C559 C 0.00092 0.81074 0.23983 0.0
C560 C 0.97139 0.82355 0.22317 0.0
C561 C 0.96855 0.82532 0.18394 0.0
H562 H 0.60724 0.55872 0.62694 0.0
H563 H 0.71173 0.5378 0.61345 0.0
H564 H 0.70635 0.48761 0.65779 0.0
H565 H 0.60177 0.53085 0.72645 0.0
H566 H 0.56117 0.51295 0.7215 0.0
H567 H 0.57401 0.54882 0.69134 0.0
H568 H 0.56089 0.51567 0.63356 0.0
H569 H 0.54814 0.47971 0.66345 0.0
H570 H 0.57994 0.4751 0.629 0.0
H571 H 0.68829 0.43673 0.69904 0.0
H572 H 0.65911 0.38974 0.73395 0.0
H573 H 0.56707 0.44547 0.7221 0.0
C574 C 0.62915 0.54388 0.6336 0.0
C575 C 0.65991 0.5522 0.61661 0.0
C576 C 0.68789 0.53199 0.62612 0.0
C577 C 0.68511 0.50346 0.65133 0.0
C578 C 0.65426 0.49568 0.66706 0.0
C579 C 0.62684 0.51547 0.65874 0.0
C580 C 0.59617 0.50081 0.6779 0.0
C581 C 0.58249 0.52479 0.70597 0.0
C582 C 0.56975 0.49232 0.64927 0.0
C583 C 0.61043 0.46915 0.6975 0.0
C584 C 0.644 0.46673 0.6912 0.0
C585 C 0.6621 0.43863 0.7047 0.0
C586 C 0.64533 0.41213 0.7247 0.0
C587 C 0.61078 0.41389 0.73095 0.0
C588 C 0.59343 0.44319 0.71768 0.0
H589 H 0.93456 0.11887 0.11566 0.0
H590 H 0.93425 0.21826 0.05677 0.0
H591 H 0.98816 0.23084 0.08483 0.0
H592 H 0.97568 0.14404 0.20116 0.0
H593 H 0.9987 0.10514 0.2063 0.0
H594 H 0.95842 0.10575 0.18504 0.0
H595 H 0.98322 0.08058 0.1265 0.0
H596 H 0.02344 0.0799 0.1476 0.0
H597 H 0.01739 0.1018 0.10252 0.0
H598 H 0.0451 0.2297 0.11336 0.0
H599 H 0.09971 0.21512 0.14049 0.0
H600 H 0.06116 0.11751 0.18256 0.0
C601 C 0.94551 0.14353 0.10911 0.0
C602 C 0.93023 0.16757 0.08399 0.0
C603 C 0.94545 0.19949 0.07608 0.0
C604 C 0.97605 0.20688 0.09191 0.0
C605 C 0.99079 0.18227 0.11594 0.0
C606 C 0.97584 0.15136 0.12476 0.0
C607 C 0.99765 0.12836 0.14929 0.0
C608 C 0.98165 0.12037 0.18773 0.0
C609 C 0.00591 0.09576 0.13033 0.0
C610 C 0.02772 0.15074 0.15189 0.0
C611 C 0.02326 0.18185 0.13279 0.0
C612 C 0.04866 0.20568 0.12901 0.0
C613 C 0.07956 0.19723 0.14464 0.0
C614 C 0.08476 0.16517 0.16363 0.0
C615 C 0.05812 0.14213 0.16798 0.0
H616 H 0.22518 0.7573 0.06137 0.0
H617 H 0.2541 0.85861 0.08716 0.0
H618 H 0.29373 0.83438 0.13365 0.0
H619 H 0.23001 0.71926 0.15516 0.0
H620 H 0.24615 0.67984 0.14089 0.0
H621 H 0.2197 0.7052 0.11003 0.0
H622 H 0.26464 0.70607 0.05846 0.0
H623 H 0.29125 0.68075 0.08914 0.0
H624 H 0.30566 0.72079 0.06832 0.0
H625 H 0.33071 0.79921 0.17658 0.0
H626 H 0.36248 0.75546 0.21311 0.0
H627 H 0.30939 0.67726 0.15916 0.0
C628 C 0.23976 0.77446 0.07681 0.0
C629 C 0.23657 0.80987 0.07053 0.0
C630 C 0.25616 0.83139 0.09139 0.0
C631 C 0.27871 0.81789 0.11789 0.0
C632 C 0.28131 0.78288 0.12321 0.0
C633 C 0.26236 0.76146 0.1033 0.0
C634 C 0.27015 0.72477 0.11403 0.0
C635 C 0.23969 0.70618 0.13104 0.0
C636 C 0.28374 0.70707 0.08049 0.0
C637 C 0.29659 0.7289 0.143 0.0
C638 C 0.30262 0.76261 0.14793 0.0
C639 C 0.32618 0.77273 0.17302 0.0
C640 C 0.34411 0.74769 0.1936 0.0
C641 C 0.33832 0.71301 0.18883 0.0
C642 C 0.31422 0.70361 0.16329 0.0
H643 H 0.69448 0.73777 0.62901 0.0
H644 H 0.7292 0.63631 0.66117 0.0
H645 H 0.7463 0.65504 0.72216 0.0
H646 H 0.75946 0.78125 0.66985 0.0
H647 H 0.73384 0.81491 0.68479 0.0
H648 H 0.72226 0.79292 0.64472 0.0
H649 H 0.66531 0.77847 0.67505 0.0
H650 H 0.67681 0.8003 0.71538 0.0
H651 H 0.66357 0.7568 0.72079 0.0
H652 H 0.76269 0.68531 0.77777 0.0
H653 H 0.77883 0.72561 0.82372 0.0
H654 H 0.73284 0.8072 0.75592 0.0
C655 C 0.70549 0.71938 0.64892 0.0
C656 C 0.71057 0.68558 0.64023 0.0
C657 C 0.72513 0.66238 0.66711 0.0
C658 C 0.73477 0.67271 0.70191 0.0
C659 C 0.72949 0.70624 0.70948 0.0
C660 C 0.7152 0.72923 0.68379 0.0
C661 C 0.7137 0.76415 0.69821 0.0
C662 C 0.7335 0.78981 0.67289 0.0
C663 C 0.6777 0.77559 0.70262 0.0
C664 C 0.73013 0.75736 0.73571 0.0
C665 C 0.73875 0.72371 0.74179 0.0
C666 C 0.7558 0.71165 0.77353 0.0
C667 C 0.76491 0.73473 0.7994 0.0
C668 C 0.75699 0.76944 0.79323 0.0
C669 C 0.73877 0.7807 0.76143 0.0
H670 H 0.74352 0.17619 0.12746 0.0
H671 H 0.83972 0.2246 0.13171 0.0
H672 H 0.8209 0.25573 0.18483 0.0
H673 H 0.69654 0.24766 0.14575 0.0
H674 H 0.66595 0.22467 0.17394 0.0
H675 H 0.68776 0.20407 0.13824 0.0
H676 H 0.7068 0.15708 0.18717 0.0
H677 H 0.68499 0.17752 0.22308 0.0
H678 H 0.72844 0.16852 0.2282 0.0
H679 H 0.7909 0.28395 0.23478 0.0
H680 H 0.75139 0.30804 0.27791 0.0
H681 H 0.67459 0.24156 0.2411 0.0
C682 C 0.76079 0.19302 0.13981 0.0
C683 C 0.7931 0.19797 0.1254 0.0
C684 C 0.81482 0.22046 0.1422 0.0
C685 C 0.80442 0.23816 0.17247 0.0
C686 C 0.7723 0.233 0.18567 0.0
C687 C 0.75081 0.21096 0.16996 0.0
C688 C 0.71708 0.21125 0.18826 0.0
C689 C 0.69026 0.2226 0.15985 0.0
C690 C 0.70886 0.17653 0.20785 0.0
C691 C 0.72278 0.23746 0.21618 0.0
C692 C 0.75489 0.24943 0.21446 0.0
C693 C 0.76575 0.27462 0.23661 0.0
C694 C 0.74309 0.28819 0.26095 0.0
C695 C 0.70994 0.2766 0.26273 0.0
C696 C 0.69985 0.25067 0.24037 0.0
H697 H 0.28559 0.2743 0.58759 0.0
H698 H 0.21289 0.33383 0.5234 0.0
H699 H 0.16819 0.30531 0.5608 0.0
H700 H 0.23995 0.19752 0.5954 0.0
H701 H 0.25354 0.18589 0.64223 0.0
H702 H 0.27956 0.21172 0.61108 0.0
H703 H 0.28203 0.25756 0.65896 0.0
H704 H 0.25611 0.23183 0.69035 0.0
H705 H 0.2441 0.27455 0.6762 0.0
H706 H 0.13139 0.26891 0.60488 0.0
H707 H 0.10594 0.22862 0.65236 0.0
H708 H 0.20339 0.19356 0.68663 0.0
C709 C 0.26031 0.28152 0.58134 0.0
C710 C 0.25277 0.30629 0.55246 0.0
C711 C 0.2193 0.31493 0.54539 0.0
C712 C 0.19374 0.29886 0.56645 0.0
C713 C 0.20213 0.27433 0.59449 0.0
C714 C 0.23465 0.26583 0.60197 0.0
C715 C 0.2373 0.23849 0.63326 0.0
C716 C 0.25354 0.20651 0.61966 0.0
C717 C 0.25598 0.25139 0.66667 0.0
C718 C 0.20115 0.2327 0.64218 0.0
C719 C 0.18117 0.25359 0.61962 0.0
C720 C 0.14682 0.25251 0.62274 0.0
C721 C 0.1326 0.22954 0.64974 0.0
C722 C 0.15281 0.20807 0.67309 0.0
C723 C 0.18742 0.20973 0.66911 0.0
H724 H 0.77624 0.67028 0.47702 0.0
H725 H 0.71346 0.75775 0.48747 0.0
H726 H 0.75326 0.79327 0.4504 0.0
H727 H 0.85544 0.71379 0.48025 0.0
H728 H 0.87445 0.68965 0.44536 0.0
H729 H 0.8421 0.67104 0.47467 0.0
H730 H 0.80857 0.65787 0.41617 0.0
H731 H 0.84083 0.67635 0.3867 0.0
H732 H 0.79905 0.69162 0.38168 0.0
H733 H 0.79913 0.81943 0.41319 0.0
H734 H 0.84649 0.83451 0.37264 0.0
H735 H 0.87917 0.72998 0.38168 0.0
C736 C 0.77112 0.69697 0.47171 0.0
C737 C 0.74189 0.71136 0.4853 0.0
C738 C 0.73566 0.74622 0.47728 0.0
C739 C 0.75819 0.76663 0.45641 0.0
C740 C 0.78667 0.75175 0.44333 0.0
C741 C 0.79313 0.71769 0.45021 0.0
C742 C 0.82481 0.70796 0.43091 0.0
C743 C 0.85073 0.69484 0.45951 0.0
C744 C 0.81789 0.68191 0.40216 0.0
C745 C 0.83498 0.74188 0.41208 0.0
C746 C 0.81277 0.76677 0.4202 0.0
C747 C 0.81669 0.8002 0.40653 0.0
C748 C 0.84385 0.8085 0.38354 0.0
C749 C 0.86664 0.78338 0.37396 0.0
C750 C 0.86215 0.74964 0.38857 0.0
H751 H 0.77214 0.23988 0.97466 0.0
H752 H 0.72274 0.14285 0.97067 0.0
H753 H 0.67929 0.16995 0.93081 0.0
H754 H 0.69919 0.29019 0.97943 0.0
H755 H 0.7159 0.32508 0.95043 0.0
H756 H 0.74311 0.29794 0.97839 0.0
H757 H 0.77679 0.28571 0.91943 0.0
H758 H 0.74975 0.31289 0.89127 0.0
H759 H 0.75586 0.26973 0.8801 0.0
H760 H 0.64124 0.20792 0.89131 0.0
H761 H 0.61195 0.25358 0.8547 0.0
H762 H 0.68641 0.32545 0.88519 0.0
C763 C 0.75223 0.22422 0.96547 0.0
C764 C 0.75084 0.18922 0.9759 0.0
C765 C 0.72434 0.16972 0.9631 0.0
C766 C 0.69953 0.18488 0.94047 0.0
C767 C 0.70164 0.2195 0.93092 0.0
C768 C 0.72735 0.23888 0.94297 0.0
C769 C 0.72404 0.27552 0.92874 0.0
C770 C 0.72033 0.29853 0.96119 0.0
C771 C 0.75335 0.2866 0.90337 0.0
C772 C 0.69235 0.2738 0.9068 0.0
C773 C 0.6798 0.24128 0.90835 0.0
C774 C 0.65083 0.23347 0.88993 0.0
C775 C 0.63437 0.25959 0.86923 0.0
C776 C 0.64697 0.29303 0.86726 0.0
C777 C 0.67622 0.30011 0.88641 0.0
H778 H 0.303 0.25742 0.42223 0.0
H779 H 0.28106 0.35727 0.37089 0.0
H780 H 0.26046 0.33144 0.31504 0.0
H781 H 0.32889 0.21966 0.33637 0.0
H782 H 0.31022 0.1794 0.35021 0.0
H783 H 0.3257 0.20582 0.38508 0.0
H784 H 0.26831 0.20414 0.41735 0.0
H785 H 0.25266 0.17776 0.38265 0.0
H786 H 0.23225 0.21696 0.39068 0.0
H787 H 0.23835 0.29494 0.26697 0.0
H788 H 0.21628 0.25004 0.22981 0.0
H789 H 0.25318 0.17388 0.31169 0.0
C790 C 0.29424 0.27391 0.3991 0.0
C791 C 0.29361 0.3094 0.40104 0.0
C792 C 0.28175 0.33002 0.37016 0.0
C793 C 0.27009 0.31561 0.33822 0.0
C794 C 0.27067 0.28056 0.33745 0.0
C795 C 0.28255 0.25997 0.36697 0.0
C796 C 0.27897 0.22296 0.35976 0.0
C797 C 0.31297 0.20597 0.35773 0.0
C798 C 0.25672 0.20438 0.38936 0.0
C799 C 0.26244 0.22598 0.32196 0.0
C800 C 0.25813 0.25944 0.30948 0.0
C801 C 0.2419 0.26865 0.27623 0.0
C802 C 0.22936 0.24297 0.25539 0.0
C803 C 0.23312 0.20855 0.26796 0.0
C804 C 0.25034 0.20002 0.30132 0.0
H805 H 0.1991 0.76278 0.91163 0.0
H806 H 0.24272 0.86313 0.90136 0.0
H807 H 0.27354 0.8482 0.84574 0.0
H808 H 0.27213 0.71925 0.88695 0.0
H809 H 0.25101 0.68824 0.86136 0.0
H810 H 0.23022 0.7073 0.89892 0.0
H811 H 0.18269 0.72653 0.85429 0.0
H812 H 0.20333 0.70748 0.81658 0.0
H813 H 0.19209 0.75153 0.81175 0.0
H814 H 0.30067 0.82276 0.79278 0.0
H815 H 0.32464 0.78701 0.7462 0.0
H816 H 0.26562 0.70205 0.79104 0.0
C817 C 0.21486 0.78165 0.89736 0.0
C818 C 0.21853 0.81413 0.91076 0.0
C819 C 0.23972 0.83804 0.8917 0.0
C820 C 0.25721 0.82987 0.85997 0.0
C821 C 0.25344 0.7976 0.84772 0.0
C822 C 0.23297 0.77374 0.86579 0.0
C823 C 0.23492 0.74034 0.84771 0.0
C824 C 0.24785 0.71212 0.87539 0.0
C825 C 0.20125 0.73093 0.83162 0.0
C826 C 0.25988 0.74918 0.81694 0.0
C827 C 0.26989 0.78248 0.81734 0.0
C828 C 0.29299 0.79666 0.79207 0.0
C829 C 0.30645 0.77619 0.76577 0.0
C830 C 0.29701 0.7419 0.76508 0.0
C831 C 0.27327 0.72823 0.79091 0.0
loop_
_geom_bond_atom_site_label_1
_geom_bond_atom_site_label_2
_geom_bond_distance
_geom_bond_site_symmetry_2
_ccdc_geom_bond_type
Fe0 O2 1.918 . S
Fe0 O5 1.997 1_556 S
Fe0 O6 2.002 1_556 S
Fe0 O11 1.976 . S
Fe0 O14 1.996 . S
Fe1 O2 1.918 1_554 S
Fe1 O9 1.997 . S
Fe1 O12 1.996 1_554 S
Fe1 O16 1.976 1_554 S
Fe1 O19 2.002 . S
O2 Fe0 1.918 . S
O2 Fe1 1.918 1_556 S
O2 Fe3 1.918 1_556 S
Fe3 O2 1.918 1_554 S
Fe3 O4 2.002 . S
Fe3 O13 1.976 1_554 S
Fe3 O17 1.996 1_554 S
Fe3 O20 1.997 . S
O4 Fe3 2.002 . S
O4 C21 1.295 . S
O5 Fe0 1.997 1_554 S
O5 C21 1.235 . S
O6 Fe0 2.002 1_554 S
O6 C7 1.295 . S
C7 O6 1.295 . S
C7 O9 1.235 . S
C8 O13 1.287 . S
C8 O14 1.255 . S
O9 Fe1 1.997 . S
O9 C7 1.235 . S
C10 O16 1.287 . S
C10 O17 1.255 . S
O11 Fe0 1.976 . S
O11 C18 1.287 . S
O12 Fe1 1.996 1_556 S
O12 C18 1.255 . S
O13 Fe3 1.976 1_556 S
O13 C8 1.287 . S
O14 Fe0 1.996 . S
O14 C8 1.255 . S
C15 O19 1.295 . S
C15 O20 1.235 . S
O16 Fe1 1.976 1_556 S
O16 C10 1.287 . S
O17 Fe3 1.996 1_556 S
O17 C10 1.255 . S
C18 O11 1.287 . S
C18 O12 1.255 . S
O19 Fe1 2.002 . S
O19 C15 1.295 . S
O20 Fe3 1.997 . S
O20 C15 1.235 . S
C21 O4 1.295 . S
C21 O5 1.235 . S
Fe22 O24 1.918 . S
Fe22 O27 1.997 . S
Fe22 O28 2.002 . S
Fe22 O33 1.976 . S
Fe22 O36 1.996 . S
Fe23 O24 1.918 . S
Fe23 O31 1.997 . S
Fe23 O34 1.996 . S
Fe23 O38 1.976 . S
Fe23 O41 2.002 . S
O24 Fe22 1.918 . S
O24 Fe23 1.918 . S
O24 Fe25 1.918 . S
Fe25 O24 1.918 . S
Fe25 O26 2.002 . S
Fe25 O35 1.976 . S
Fe25 O39 1.996 . S
Fe25 O42 1.997 . S
O26 Fe25 2.002 . S
O26 C43 1.295 . S
O27 Fe22 1.997 . S
O27 C43 1.235 . S
O28 Fe22 2.002 . S
O28 C29 1.295 . S
C29 O28 1.295 . S
C29 O31 1.235 . S
C30 O35 1.287 . S
C30 O36 1.255 . S
O31 Fe23 1.997 . S
O31 C29 1.235 . S
C32 O38 1.287 . S
C32 O39 1.255 . S
O33 Fe22 1.976 . S
O33 C40 1.287 . S
O34 Fe23 1.996 . S
O34 C40 1.255 . S
O35 Fe25 1.976 . S
O35 C30 1.287 . S
O36 Fe22 1.996 . S
O36 C30 1.255 . S
C37 O41 1.295 . S
C37 O42 1.235 . S
O38 Fe23 1.976 . S
O38 C32 1.287 . S
O39 Fe25 1.996 . S
O39 C32 1.255 . S
C40 O33 1.287 . S
C40 O34 1.255 . S
O41 Fe23 2.002 . S
O41 C37 1.295 . S
O42 Fe25 1.997 . S
O42 C37 1.235 . S
C43 O26 1.295 . S
C43 O27 1.235 . S
Fe44 O46 1.918 . S
Fe44 O49 1.997 . S
Fe44 O50 2.002 1_554 S
Fe44 O55 1.976 . S
Fe44 O58 1.996 . S
Fe45 O46 1.918 . S
Fe45 O53 1.997 1_554 S
Fe45 O56 1.996 . S
Fe45 O60 1.976 . S
Fe45 O63 2.002 . S
O46 Fe44 1.918 . S
O46 Fe45 1.918 . S
O46 Fe47 1.918 . S
Fe47 O46 1.918 . S
Fe47 O48 2.002 . S
Fe47 O57 1.976 . S
Fe47 O61 1.996 . S
Fe47 O64 1.997 . S
O48 Fe47 2.002 . S
O48 C65 1.295 1_554 S
O49 Fe44 1.997 . S
O49 C65 1.235 1_554 S
O50 Fe44 2.002 1_556 S
O50 C51 1.295 . S
C51 O50 1.295 . S
C51 O53 1.235 . S
C52 O57 1.287 . S
C52 O58 1.255 . S
O53 Fe45 1.997 1_556 S
O53 C51 1.235 . S
C54 O60 1.287 . S
C54 O61 1.255 . S
O55 Fe44 1.976 . S
O55 C62 1.287 . S
O56 Fe45 1.996 . S
O56 C62 1.255 . S
O57 Fe47 1.976 . S
O57 C52 1.287 . S
O58 Fe44 1.996 . S
O58 C52 1.255 . S
C59 O63 1.298 . S
C59 O64 1.248 . S
O60 Fe45 1.976 . S
O60 C54 1.287 . S
O61 Fe47 1.996 . S
O61 C54 1.255 . S
C62 O55 1.287 . S
C62 O56 1.255 . S
O63 Fe45 2.002 . S
O63 C59 1.298 . S
O64 Fe47 1.997 . S
O64 C59 1.248 . S
C65 O48 1.295 1_556 S
C65 O49 1.235 1_556 S
Fe66 O68 1.918 . S
Fe66 O71 1.997 . S
Fe66 O72 2.002 . S
Fe66 O77 1.976 . S
Fe66 O80 1.996 . S
Fe67 O68 1.918 . S
Fe67 O75 1.997 . S
Fe67 O78 1.996 . S
Fe67 O82 1.976 . S
Fe67 O85 2.002 . S
O68 Fe66 1.918 . S
O68 Fe67 1.918 . S
O68 Fe69 1.918 . S
Fe69 O68 1.918 . S
Fe69 O70 2.002 . S
Fe69 O79 1.976 . S
Fe69 O83 1.996 . S
Fe69 O86 1.997 . S
O70 Fe69 2.002 . S
O70 C87 1.295 . S
O71 Fe66 1.997 . S
O71 C87 1.235 . S
O72 Fe66 2.002 . S
O72 C73 1.295 . S
C73 O72 1.295 . S
C73 O75 1.235 . S
C74 O79 1.287 . S
C74 O80 1.255 . S
O75 Fe67 1.997 . S
O75 C73 1.235 . S
C76 O82 1.287 . S
C76 O83 1.255 . S
O77 Fe66 1.976 . S
O77 C84 1.287 . S
O78 Fe67 1.996 . S
O78 C84 1.255 . S
O79 Fe69 1.976 . S
O79 C74 1.287 . S
O80 Fe66 1.996 . S
O80 C74 1.255 . S
C81 O85 1.295 . S
C81 O86 1.235 . S
O82 Fe67 1.976 . S
O82 C76 1.287 . S
O83 Fe69 1.996 . S
O83 C76 1.255 . S
C84 O77 1.287 . S
C84 O78 1.255 . S
O85 Fe67 2.002 . S
O85 C81 1.295 . S
O86 Fe69 1.997 . S
O86 C81 1.235 . S
C87 O70 1.295 . S
C87 O71 1.235 . S
H88 C93 0.930 . S
H89 C96 0.930 . S
H90 C98 0.930 . S
H91 C92 1.016 . S
C92 H91 1.016 . S
C92 N99 1.286 . S
C93 H88 0.930 . S
C93 C94 1.397 . S
C93 C95 1.361 . S
C94 C93 1.397 . S
C94 C98 1.390 . S
C95 C93 1.361 . S
C95 C96 1.393 . S
C95 N99 1.413 . S
C96 H89 0.930 . S
C96 C95 1.393 . S
C96 C97 1.399 . S
C97 C96 1.399 . S
C97 C98 1.381 . S
C98 H90 0.930 . S
C98 C94 1.390 . S
C98 C97 1.381 . S
N99 C92 1.286 . S
N99 C95 1.413 . S
H100 C105 0.930 . S
H101 C108 0.930 . S
H102 C110 0.930 . S
H103 C104 1.016 . S
C104 H103 1.016 . S
C104 N111 1.286 . S
C105 H100 0.930 . S
C105 C106 1.397 . S
C105 C107 1.361 . S
C106 C105 1.397 . S
C106 C110 1.390 . S
C107 C105 1.361 . S
C107 C108 1.393 . S
C107 N111 1.413 . S
C108 H101 0.930 . S
C108 C107 1.393 . S
C108 C109 1.399 . S
C109 C108 1.399 . S
C109 C110 1.381 . S
C110 H102 0.930 . S
C110 C106 1.390 . S
C110 C109 1.381 . S
N111 C104 1.286 . S
N111 C107 1.413 . S
H112 C117 0.930 . S
H113 C120 0.930 . S
H114 C122 0.930 . S
H115 C116 1.016 . S
C116 H115 1.016 . S
C116 N123 1.286 . S
C117 H112 0.930 . S
C117 C118 1.397 . S
C117 C119 1.361 . S
C118 C117 1.397 . S
C118 C122 1.390 . S
C119 C117 1.361 . S
C119 C120 1.393 . S
C119 N123 1.413 . S
C120 H113 0.930 . S
C120 C119 1.393 . S
C120 C121 1.399 . S
C121 C120 1.399 . S
C121 C122 1.381 . S
C122 H114 0.930 . S
C122 C118 1.390 . S
C122 C121 1.381 . S
N123 C116 1.286 . S
N123 C119 1.413 . S
H124 C129 0.930 . S
H125 C132 0.930 . S
H126 C134 0.930 . S
H127 C128 1.016 . S
C128 H127 1.016 . S
C128 N135 1.286 . S
C129 H124 0.930 . S
C129 C130 1.397 . S
C129 C131 1.361 . S
C130 C129 1.397 . S
C130 C134 1.390 . S
C131 C129 1.361 . S
C131 C132 1.393 . S
C131 N135 1.413 . S
C132 H125 0.930 . S
C132 C131 1.393 . S
C132 C133 1.399 . S
C133 C132 1.399 . S
C133 C134 1.381 . S
C134 H126 0.930 . S
C134 C130 1.390 . S
C134 C133 1.381 . S
N135 C128 1.286 . S
N135 C131 1.413 . S
H136 C141 0.930 . S
H137 C144 0.930 . S
H138 C146 0.930 . S
H139 C140 1.016 . S
C140 H139 1.016 . S
C140 N147 1.286 . S
C141 H136 0.930 . S
C141 C142 1.397 . S
C141 C143 1.361 . S
C142 C141 1.397 . S
C142 C146 1.390 . S
C143 C141 1.361 . S
C143 C144 1.393 . S
C143 N147 1.413 . S
C144 H137 0.930 . S
C144 C143 1.393 . S
C144 C145 1.399 . S
C145 C144 1.399 . S
C145 C146 1.381 . S
C146 H138 0.930 . S
C146 C142 1.390 . S
C146 C145 1.381 . S
N147 C140 1.286 . S
N147 C143 1.413 . S
H148 C153 0.930 . S
H149 C156 0.930 . S
H150 C158 0.930 . S
H151 C152 1.016 . S
C152 H151 1.016 . S
C152 N159 1.286 . S
C153 H148 0.930 . S
C153 C154 1.397 . S
C153 C155 1.361 . S
C154 C153 1.397 . S
C154 C158 1.390 . S
C155 C153 1.361 . S
C155 C156 1.393 . S
C155 N159 1.413 . S
C156 H149 0.930 . S
C156 C155 1.393 . S
C156 C157 1.399 . S
C157 C156 1.399 . S
C157 C158 1.381 . S
C158 H150 0.930 . S
C158 C154 1.390 . S
C158 C157 1.381 . S
N159 C152 1.286 . S
N159 C155 1.413 . S
H160 C165 0.930 . S
H161 C168 0.930 . S
H162 C170 0.930 . S
H163 C164 1.016 . S
C164 H163 1.016 . S
C164 N171 1.286 . S
C165 H160 0.930 . S
C165 C166 1.397 . S
C165 C167 1.361 . S
C166 C165 1.397 . S
C166 C170 1.390 . S
C167 C165 1.361 . S
C167 C168 1.393 . S
C167 N171 1.413 . S
C168 H161 0.930 . S
C168 C167 1.393 . S
C168 C169 1.399 . S
C169 C168 1.399 . S
C169 C170 1.381 . S
C170 H162 0.930 . S
C170 C166 1.390 . S
C170 C169 1.381 . S
N171 C164 1.286 . S
N171 C167 1.413 . S
H172 C177 0.930 . S
H173 C180 0.930 . S
H174 C182 0.930 . S
H175 C176 1.016 . S
C176 H175 1.016 . S
C176 N183 1.286 . S
C177 H172 0.930 . S
C177 C178 1.397 . S
C177 C179 1.361 . S
C178 C177 1.397 . S
C178 C182 1.390 . S
C179 C177 1.361 . S
C179 C180 1.393 . S
C179 N183 1.413 . S
C180 H173 0.930 . S
C180 C179 1.393 . S
C180 C181 1.399 . S
C181 C180 1.399 . S
C181 C182 1.381 . S
C182 H174 0.930 . S
C182 C178 1.390 . S
C182 C181 1.381 . S
N183 C176 1.286 . S
N183 C179 1.413 . S
H184 C196 0.930 1_545 S
H185 C198 0.930 . S
H186 C199 0.930 . S
H187 C203 0.959 . S
H188 C203 0.959 . S
H189 C203 0.961 . S
H190 C204 0.960 . S
H191 C204 0.961 . S
H192 C204 0.959 . S
H193 C207 0.929 . S
H194 C208 0.931 . S
H195 C210 0.930 . S
C196 H184 0.930 1_565 S
C196 C197 1.399 . S
C196 C201 1.399 1_565 S
C197 C196 1.399 . S
C197 C198 1.376 . S
C198 H185 0.930 . S
C198 C197 1.376 . S
C198 C199 1.388 . S
C199 H186 0.930 . S
C199 C198 1.388 . S
C199 C200 1.390 1_565 S
C200 C199 1.390 1_545 S
C200 C201 1.394 . S
C200 C206 1.465 . S
C201 C196 1.399 1_545 S
C201 C200 1.394 . S
C201 C202 1.516 . S
C202 C201 1.516 . S
C202 C203 1.502 . S
C202 C204 1.561 . S
C202 C205 1.526 . S
C203 H187 0.959 . S
C203 H188 0.959 . S
C203 H189 0.961 . S
C203 C202 1.502 . S
C204 H190 0.960 . S
C204 H191 0.961 . S
C204 H192 0.959 . S
C204 C202 1.561 . S
C205 C202 1.526 . S
C205 C206 1.396 . S
C205 C210 1.390 . S
C206 C200 1.465 . S
C206 C205 1.396 . S
C206 C207 1.399 . S
C207 H193 0.929 . S
C207 C206 1.399 . S
C207 C208 1.385 . S
C208 H194 0.931 . S
C208 C207 1.385 . S
C208 C209 1.389 . S
C209 C208 1.389 . S
C209 C210 1.387 . S
C210 H195 0.930 . S
C210 C205 1.390 . S
C210 C209 1.387 . S
H211 C223 0.930 . S
H212 C225 0.930 . S
H213 C226 0.930 . S
H214 C230 0.959 . S
H215 C230 0.959 . S
H216 C230 0.961 . S
H217 C231 0.960 . S
H218 C231 0.961 . S
H219 C231 0.959 . S
H220 C234 0.929 . S
H221 C235 0.931 . S
H222 C237 0.930 . S
C223 H211 0.930 . S
C223 C224 1.399 . S
C223 C228 1.399 . S
C224 C223 1.399 . S
C224 C225 1.376 . S
C225 H212 0.930 . S
C225 C224 1.376 . S
C225 C226 1.388 . S
C226 H213 0.930 . S
C226 C225 1.388 . S
C226 C227 1.390 . S
C227 C226 1.390 . S
C227 C228 1.394 . S
C227 C233 1.465 . S
C228 C223 1.399 . S
C228 C227 1.394 . S
C228 C229 1.516 . S
C229 C228 1.516 . S
C229 C230 1.502 . S
C229 C231 1.561 . S
C229 C232 1.526 . S
C230 H214 0.959 . S
C230 H215 0.959 . S
C230 H216 0.961 . S
C230 C229 1.502 . S
C231 H217 0.960 . S
C231 H218 0.961 . S
C231 H219 0.959 . S
C231 C229 1.561 . S
C232 C229 1.526 . S
C232 C233 1.396 . S
C232 C237 1.390 . S
C233 C227 1.465 . S
C233 C232 1.396 . S
C233 C234 1.399 . S
C234 H220 0.929 . S
C234 C233 1.399 . S
C234 C235 1.385 . S
C235 H221 0.931 . S
C235 C234 1.385 . S
C235 C236 1.389 . S
C236 C235 1.389 . S
C236 C237 1.387 . S
C237 H222 0.930 . S
C237 C232 1.390 . S
C237 C236 1.387 . S
H238 C250 0.930 . S
H239 C252 0.930 . S
H240 C253 0.930 . S
H241 C257 0.959 . S
H242 C257 0.959 1_565 S
H243 C257 0.961 . S
H244 C258 0.960 . S
H245 C258 0.961 . S
H246 C258 0.959 . S
H247 C261 0.929 . S
H248 C262 0.931 . S
H249 C264 0.930 . S
C250 H238 0.930 . S
C250 C251 1.399 . S
C250 C255 1.399 1_545 S
C251 C250 1.399 . S
C251 C252 1.376 . S
C252 H239 0.930 . S
C252 C251 1.376 . S
C252 C253 1.388 1_545 S
C253 H240 0.930 . S
C253 C252 1.388 1_565 S
C253 C254 1.390 . S
C254 C253 1.390 . S
C254 C255 1.394 . S
C254 C260 1.465 . S
C255 C250 1.399 1_565 S
C255 C254 1.394 . S
C255 C256 1.516 . S
C256 C255 1.516 . S
C256 C257 1.502 1_565 S
C256 C258 1.561 . S
C256 C259 1.526 . S
C257 H241 0.959 . S
C257 H242 0.959 1_545 S
C257 H243 0.961 . S
C257 C256 1.502 1_545 S
C258 H244 0.960 . S
C258 H245 0.961 . S
C258 H246 0.959 . S
C258 C256 1.561 . S
C259 C256 1.526 . S
C259 C260 1.396 . S
C259 C264 1.390 . S
C260 C254 1.465 . S
C260 C259 1.396 . S
C260 C261 1.399 . S
C261 H247 0.929 . S
C261 C260 1.399 . S
C261 C262 1.385 . S
C262 H248 0.931 . S
C262 C261 1.385 . S
C262 C263 1.389 . S
C263 C262 1.389 . S
C263 C264 1.387 . S
C264 H249 0.930 . S
C264 C259 1.390 . S
C264 C263 1.387 . S
H265 C277 0.930 . S
H266 C279 0.930 . S
H267 C280 0.930 . S
H268 C284 0.959 . S
H269 C284 0.959 . S
H270 C284 0.961 . S
H271 C285 0.960 . S
H272 C285 0.961 . S
H273 C285 0.959 . S
H274 C288 0.929 . S
H275 C289 0.931 . S
H276 C291 0.930 . S
C277 H265 0.930 . S
C277 C278 1.399 . S
C277 C282 1.399 . S
C278 C277 1.399 . S
C278 C279 1.376 . S
C279 H266 0.930 . S
C279 C278 1.376 . S
C279 C280 1.388 . S
C280 H267 0.930 . S
C280 C279 1.388 . S
C280 C281 1.390 . S
C281 C280 1.390 . S
C281 C282 1.394 . S
C281 C287 1.465 . S
C282 C277 1.399 . S
C282 C281 1.394 . S
C282 C283 1.516 . S
C283 C282 1.516 . S
C283 C284 1.502 . S
C283 C285 1.561 . S
C283 C286 1.526 . S
C284 H268 0.959 . S
C284 H269 0.959 . S
C284 H270 0.961 . S
C284 C283 1.502 . S
C285 H271 0.960 . S
C285 H272 0.961 . S
C285 H273 0.959 . S
C285 C283 1.561 . S
C286 C283 1.526 . S
C286 C287 1.396 . S
C286 C291 1.390 . S
C287 C281 1.465 . S
C287 C286 1.396 . S
C287 C288 1.399 . S
C288 H274 0.929 . S
C288 C287 1.399 . S
C288 C289 1.385 . S
C289 H275 0.931 . S
C289 C288 1.385 . S
C289 C290 1.389 . S
C290 C289 1.389 . S
C290 C291 1.387 . S
C291 H276 0.930 . S
C291 C286 1.390 . S
C291 C290 1.387 . S
H292 C304 0.930 . S
H293 C306 0.930 . S
H294 C307 0.930 . S
H295 C311 0.959 . S
H296 C311 0.959 . S
H297 C311 0.961 . S
H298 C312 0.960 . S
H299 C312 0.961 . S
H300 C312 0.959 . S
H301 C315 0.929 . S
H302 C316 0.931 . S
H303 C318 0.930 . S
C304 H292 0.930 . S
C304 C305 1.399 . S
C304 C309 1.399 . S
C305 C304 1.399 . S
C305 C306 1.376 . S
C306 H293 0.930 . S
C306 C305 1.376 . S
C306 C307 1.388 . S
C307 H294 0.930 . S
C307 C306 1.388 . S
C307 C308 1.390 . S
C308 C307 1.390 . S
C308 C309 1.394 . S
C308 C314 1.465 . S
C309 C304 1.399 . S
C309 C308 1.394 . S
C309 C310 1.516 . S
C310 C309 1.516 . S
C310 C311 1.502 . S
C310 C312 1.561 . S
C310 C313 1.526 . S
C311 H295 0.959 . S
C311 H296 0.959 . S
C311 H297 0.961 . S
C311 C310 1.502 . S
C312 H298 0.960 . S
C312 H299 0.961 . S
C312 H300 0.959 . S
C312 C310 1.561 . S
C313 C310 1.526 . S
C313 C314 1.396 . S
C313 C318 1.390 . S
C314 C308 1.465 . S
C314 C313 1.396 . S
C314 C315 1.399 . S
C315 H301 0.929 . S
C315 C314 1.399 . S
C315 C316 1.385 . S
C316 H302 0.931 . S
C316 C315 1.385 . S
C316 C317 1.389 . S
C317 C316 1.389 . S
C317 C318 1.387 . S
C318 H303 0.930 . S
C318 C313 1.390 . S
C318 C317 1.387 . S
H319 C331 0.930 . S
H320 C333 0.930 . S
H321 C334 0.930 . S
H322 C338 0.959 . S
H323 C338 0.959 . S
H324 C338 0.961 . S
H325 C339 0.946 1_655 S
H326 C339 0.961 . S
H327 C339 0.959 . S
H328 C342 0.929 . S
H329 C343 0.931 . S
H330 C345 0.930 . S
C331 H319 0.930 . S
C331 C332 1.399 . S
C331 C336 1.399 . S
C332 C331 1.399 . S
C332 C333 1.376 . S
C333 H320 0.930 . S
C333 C332 1.376 . S
C333 C334 1.388 . S
C334 H321 0.930 . S
C334 C333 1.388 . S
C334 C335 1.390 . S
C335 C334 1.390 . S
C335 C336 1.394 . S
C335 C341 1.465 . S
C336 C331 1.399 . S
C336 C335 1.394 . S
C336 C337 1.516 . S
C337 C336 1.516 . S
C337 C338 1.502 . S
C337 C339 1.561 1_655 S
C337 C340 1.526 1_655 S
C338 H322 0.959 . S
C338 H323 0.959 . S
C338 H324 0.961 . S
C338 C337 1.502 . S
C339 H325 0.946 1_455 S
C339 H326 0.961 . S
C339 H327 0.959 . S
C339 C337 1.561 1_455 S
C340 C337 1.526 1_455 S
C340 C341 1.396 1_455 S
C340 C345 1.390 . S
C341 C335 1.465 . S
C341 C340 1.396 1_655 S
C341 C342 1.399 1_655 S
C342 H328 0.929 . S
C342 C341 1.399 1_455 S
C342 C343 1.385 . S
C343 H329 0.931 . S
C343 C342 1.385 . S
C343 C344 1.389 . S
C344 C343 1.389 . S
C344 C345 1.387 . S
C345 H330 0.930 . S
C345 C340 1.390 . S
C345 C344 1.387 . S
H346 C358 0.930 . S
H347 C360 0.930 . S
H348 C361 0.930 . S
H349 C365 0.959 . S
H350 C365 0.959 . S
H351 C365 0.961 . S
H352 C366 0.960 . S
H353 C366 0.961 . S
H354 C366 0.959 . S
H355 C369 0.929 . S
H356 C370 0.931 . S
H357 C372 0.930 . S
C358 H346 0.930 . S
C358 C359 1.399 . S
C358 C363 1.399 . S
C359 C358 1.399 . S
C359 C360 1.376 . S
C360 H347 0.930 . S
C360 C359 1.376 . S
C360 C361 1.388 . S
C361 H348 0.930 . S
C361 C360 1.388 . S
C361 C362 1.390 . S
C362 C361 1.390 . S
C362 C363 1.394 . S
C362 C368 1.465 . S
C363 C358 1.399 . S
C363 C362 1.394 . S
C363 C364 1.516 . S
C364 C363 1.516 . S
C364 C365 1.502 . S
C364 C366 1.561 . S
C364 C367 1.526 . S
C365 H349 0.959 . S
C365 H350 0.959 . S
C365 H351 0.961 . S
C365 C364 1.502 . S
C366 H352 0.960 . S
C366 H353 0.961 . S
C366 H354 0.959 . S
C366 C364 1.561 . S
C367 C364 1.526 . S
C367 C368 1.396 . S
C367 C372 1.390 . S
C368 C362 1.465 . S
C368 C367 1.396 . S
C368 C369 1.399 . S
C369 H355 0.929 . S
C369 C368 1.399 . S
C369 C370 1.385 . S
C370 H356 0.931 . S
C370 C369 1.385 . S
C370 C371 1.389 . S
C371 C370 1.389 . S
C371 C372 1.387 . S
C372 H357 0.930 . S
C372 C367 1.390 . S
C372 C371 1.387 . S
H373 C385 0.930 . S
H374 C387 0.930 . S
H375 C388 0.930 . S
H376 C392 0.959 . S
H377 C392 0.959 . S
H378 C392 0.961 . S
H379 C393 0.960 1_554 S
H380 C393 0.961 . S
H381 C393 0.959 . S
H382 C396 0.929 . S
H383 C397 0.931 . S
H384 C399 0.930 . S
C385 H373 0.930 . S
C385 C386 1.399 . S
C385 C390 1.399 1_455 S
C386 C385 1.399 . S
C386 C387 1.376 . S
C387 H374 0.930 . S
C387 C386 1.376 . S
C387 C388 1.388 1_455 S
C388 H375 0.930 . S
C388 C387 1.388 1_655 S
C388 C389 1.390 . S
C389 C388 1.390 . S
C389 C390 1.394 . S
C389 C395 1.465 . S
C390 C385 1.399 1_655 S
C390 C389 1.394 . S
C390 C391 1.516 . S
C391 C390 1.516 . S
C391 C392 1.502 . S
C391 C393 1.561 . S
C391 C394 1.526 . S
C392 H376 0.959 . S
C392 H377 0.959 . S
C392 H378 0.961 . S
C392 C391 1.502 . S
C393 H379 0.960 1_556 S
C393 H380 0.961 . S
C393 H381 0.959 . S
C393 C391 1.561 . S
C394 C391 1.526 . S
C394 C395 1.396 . S
C394 C399 1.390 . S
C395 C389 1.465 . S
C395 C394 1.396 . S
C395 C396 1.399 . S
C396 H382 0.929 . S
C396 C395 1.399 . S
C396 C397 1.385 . S
C397 H383 0.931 . S
C397 C396 1.385 . S
C397 C398 1.389 . S
C398 C397 1.389 . S
C398 C399 1.387 . S
C399 H384 0.930 . S
C399 C394 1.390 . S
C399 C398 1.387 . S
H400 C412 0.930 . S
H401 C414 0.930 . S
H402 C415 0.930 1_554 S
H403 C419 0.959 . S
H404 C419 0.959 . S
H405 C419 0.961 1_545 S
H406 C420 0.960 1_545 S
H407 C420 0.961 . S
H408 C420 0.959 . S
H409 C423 0.929 . S
H410 C424 0.931 . S
H411 C426 0.930 . S
C412 H400 0.930 . S
C412 C413 1.399 . S
C412 C417 1.399 1_545 S
C413 C412 1.399 . S
C413 C414 1.376 1_556 S
C414 H401 0.930 . S
C414 C413 1.376 1_554 S
C414 C415 1.388 1_544 S
C415 H402 0.930 1_556 S
C415 C414 1.388 1_566 S
C415 C416 1.390 . S
C416 C415 1.390 . S
C416 C417 1.394 . S
C416 C422 1.465 . S
C417 C412 1.399 1_565 S
C417 C416 1.394 . S
C417 C418 1.516 . S
C418 C417 1.516 . S
C418 C419 1.502 . S
C418 C420 1.561 . S
C418 C421 1.526 . S
C419 H403 0.959 . S
C419 H404 0.959 . S
C419 H405 0.961 1_565 S
C419 C418 1.502 . S
C420 H406 0.960 1_565 S
C420 H407 0.961 . S
C420 H408 0.959 . S
C420 C418 1.561 . S
C421 C418 1.526 . S
C421 C422 1.396 . S
C421 C426 1.390 . S
C422 C416 1.465 . S
C422 C421 1.396 . S
C422 C423 1.399 . S
C423 H409 0.929 . S
C423 C422 1.399 . S
C423 C424 1.385 . S
C424 H410 0.931 . S
C424 C423 1.385 . S
C424 C425 1.389 . S
C425 C424 1.389 . S
C425 C426 1.387 . S
C426 H411 0.930 . S
C426 C421 1.390 . S
C426 C425 1.387 . S
H427 C439 0.930 . S
H428 C441 0.930 . S
H429 C442 0.930 . S
H430 C446 0.959 . S
H431 C446 0.959 . S
H432 C446 0.961 . S
H433 C447 0.960 . S
H434 C447 0.961 . S
H435 C447 0.959 . S
H436 C450 0.929 . S
H437 C451 0.931 . S
H438 C453 0.930 . S
C439 H427 0.930 . S
C439 C440 1.399 . S
C439 C444 1.399 . S
C440 C439 1.399 . S
C440 C441 1.376 . S
C441 H428 0.930 . S
C441 C440 1.376 . S
C441 C442 1.388 . S
C442 H429 0.930 . S
C442 C441 1.388 . S
C442 C443 1.390 . S
C443 C442 1.390 . S
C443 C444 1.394 . S
C443 C449 1.465 . S
C444 C439 1.399 . S
C444 C443 1.394 . S
C444 C445 1.516 . S
C445 C444 1.516 . S
C445 C446 1.502 . S
C445 C447 1.561 . S
C445 C448 1.526 . S
C446 H430 0.959 . S
C446 H431 0.959 . S
C446 H432 0.961 . S
C446 C445 1.502 . S
C447 H433 0.960 . S
C447 H434 0.961 . S
C447 H435 0.959 . S
C447 C445 1.561 . S
C448 C445 1.526 . S
C448 C449 1.396 . S
C448 C453 1.390 . S
C449 C443 1.465 . S
C449 C448 1.396 . S
C449 C450 1.399 . S
C450 H436 0.929 . S
C450 C449 1.399 . S
C450 C451 1.385 . S
C451 H437 0.931 . S
C451 C450 1.385 . S
C451 C452 1.389 . S
C452 C451 1.389 . S
C452 C453 1.387 . S
C453 H438 0.930 . S
C453 C448 1.390 . S
C453 C452 1.387 . S
H454 C466 0.930 1_545 S
H455 C468 0.930 . S
H456 C469 0.930 . S
H457 C473 0.959 . S
H458 C473 0.959 . S
H459 C473 0.961 . S
H460 C474 0.960 . S
H461 C474 0.961 . S
H462 C474 0.959 . S
H463 C477 0.929 . S
H464 C478 0.931 . S
H465 C480 0.930 . S
C466 H454 0.930 1_565 S
C466 C467 1.399 . S
C466 C471 1.399 1_565 S
C467 C466 1.399 . S
C467 C468 1.376 . S
C468 H455 0.930 . S
C468 C467 1.376 . S
C468 C469 1.388 . S
C469 H456 0.930 . S
C469 C468 1.388 . S
C469 C470 1.390 1_565 S
C470 C469 1.390 1_545 S
C470 C471 1.394 . S
C470 C476 1.465 . S
C471 C466 1.399 1_545 S
C471 C470 1.394 . S
C471 C472 1.516 . S
C472 C471 1.516 . S
C472 C473 1.502 . S
C472 C474 1.561 . S
C472 C475 1.526 . S
C473 H457 0.959 . S
C473 H458 0.959 . S
C473 H459 0.961 . S
C473 C472 1.502 . S
C474 H460 0.960 . S
C474 H461 0.961 . S
C474 H462 0.959 . S
C474 C472 1.561 . S
C475 C472 1.526 . S
C475 C476 1.396 . S
C475 C480 1.390 . S
C476 C470 1.465 . S
C476 C475 1.396 . S
C476 C477 1.399 . S
C477 H463 0.929 . S
C477 C476 1.399 . S
C477 C478 1.385 . S
C478 H464 0.931 . S
C478 C477 1.385 . S
C478 C479 1.389 . S
C479 C478 1.389 . S
C479 C480 1.387 . S
C480 H465 0.930 . S
C480 C475 1.390 . S
C480 C479 1.387 . S
H481 C493 0.930 . S
H482 C495 0.930 . S
H483 C496 0.930 . S
H484 C500 0.959 . S
H485 C500 0.959 . S
H486 C500 0.961 . S
H487 C501 0.960 . S
H488 C501 0.961 . S
H489 C501 0.959 . S
H490 C504 0.929 . S
H491 C505 0.931 . S
H492 C507 0.930 . S
C493 H481 0.930 . S
C493 C494 1.399 . S
C493 C498 1.399 . S
C494 C493 1.399 . S
C494 C495 1.376 . S
C495 H482 0.930 . S
C495 C494 1.376 . S
C495 C496 1.388 . S
C496 H483 0.930 . S
C496 C495 1.388 . S
C496 C497 1.390 . S
C497 C496 1.390 . S
C497 C498 1.394 . S
C497 C503 1.465 . S
C498 C493 1.399 . S
C498 C497 1.394 . S
C498 C499 1.516 . S
C499 C498 1.516 . S
C499 C500 1.502 . S
C499 C501 1.561 . S
C499 C502 1.526 . S
C500 H484 0.959 . S
C500 H485 0.959 . S
C500 H486 0.961 . S
C500 C499 1.502 . S
C501 H487 0.960 . S
C501 H488 0.961 . S
C501 H489 0.959 . S
C501 C499 1.561 . S
C502 C499 1.526 . S
C502 C503 1.396 . S
C502 C507 1.390 . S
C503 C497 1.465 . S
C503 C502 1.396 . S
C503 C504 1.399 . S
C504 H490 0.929 . S
C504 C503 1.399 . S
C504 C505 1.385 . S
C505 H491 0.931 . S
C505 C504 1.385 . S
C505 C506 1.389 . S
C506 C505 1.389 . S
C506 C507 1.387 . S
C507 H492 0.930 . S
C507 C502 1.390 . S
C507 C506 1.387 . S
H508 C520 0.930 . S
H509 C522 0.930 . S
H510 C523 0.930 . S
H511 C527 0.959 . S
H512 C527 0.959 . S
H513 C527 0.961 . S
H514 C528 0.960 . S
H515 C528 0.961 . S
H516 C528 0.959 . S
H517 C531 0.929 . S
H518 C532 0.931 . S
H519 C534 0.930 . S
C520 H508 0.930 . S
C520 C521 1.399 . S
C520 C525 1.399 . S
C521 C520 1.399 . S
C521 C522 1.376 . S
C522 H509 0.930 . S
C522 C521 1.376 . S
C522 C523 1.388 . S
C523 H510 0.930 . S
C523 C522 1.388 . S
C523 C524 1.390 . S
C524 C523 1.390 . S
C524 C525 1.394 . S
C524 C530 1.465 . S
C525 C520 1.399 . S
C525 C524 1.394 . S
C525 C526 1.516 . S
C526 C525 1.516 . S
C526 C527 1.502 . S
C526 C528 1.561 . S
C526 C529 1.526 . S
C527 H511 0.959 . S
C527 H512 0.959 . S
C527 H513 0.961 . S
C527 C526 1.502 . S
C528 H514 0.960 . S
C528 H515 0.961 . S
C528 H516 0.959 . S
C528 C526 1.561 . S
C529 C526 1.526 . S
C529 C530 1.396 . S
C529 C534 1.390 . S
C530 C524 1.465 . S
C530 C529 1.396 . S
C530 C531 1.399 . S
C531 H517 0.929 . S
C531 C530 1.399 . S
C531 C532 1.385 . S
C532 H518 0.931 . S
C532 C531 1.385 . S
C532 C533 1.389 . S
C533 C532 1.389 . S
C533 C534 1.387 . S
C534 H519 0.930 . S
C534 C529 1.390 . S
C534 C533 1.387 . S
H535 C547 0.930 . S
H536 C549 0.930 . S
H537 C550 0.930 . S
H538 C554 0.959 . S
H539 C554 0.959 . S
H540 C554 0.961 . S
H541 C555 0.960 . S
H542 C555 0.961 . S
H543 C555 0.959 . S
H544 C558 0.929 . S
H545 C559 0.931 . S
H546 C561 0.930 . S
C547 H535 0.930 . S
C547 C548 1.399 . S
C547 C552 1.399 . S
C548 C547 1.399 . S
C548 C549 1.376 . S
C549 H536 0.930 . S
C549 C548 1.376 . S
C549 C550 1.388 . S
C550 H537 0.930 . S
C550 C549 1.388 . S
C550 C551 1.390 . S
C551 C550 1.390 . S
C551 C552 1.394 . S
C551 C557 1.465 . S
C552 C547 1.399 . S
C552 C551 1.394 . S
C552 C553 1.516 . S
C553 C552 1.516 . S
C553 C554 1.502 1_455 S
C553 C555 1.561 . S
C553 C556 1.526 1_455 S
C554 H538 0.959 . S
C554 H539 0.959 . S
C554 H540 0.961 . S
C554 C553 1.502 1_655 S
C555 H541 0.960 . S
C555 H542 0.961 . S
C555 H543 0.959 . S
C555 C553 1.561 . S
C556 C553 1.526 1_655 S
C556 C557 1.396 1_655 S
C556 C561 1.390 . S
C557 C551 1.465 . S
C557 C556 1.396 1_455 S
C557 C558 1.399 . S
C558 H544 0.929 . S
C558 C557 1.399 . S
C558 C559 1.385 1_455 S
C559 H545 0.931 . S
C559 C558 1.385 1_655 S
C559 C560 1.389 . S
C560 C559 1.389 . S
C560 C561 1.387 . S
C561 H546 0.930 . S
C561 C556 1.390 . S
C561 C560 1.387 . S
H562 C574 0.930 . S
H563 C576 0.930 . S
H564 C577 0.930 . S
H565 C581 0.959 . S
H566 C581 0.959 . S
H567 C581 0.961 . S
H568 C582 0.960 . S
H569 C582 0.961 . S
H570 C582 0.959 . S
H571 C585 0.929 . S
H572 C586 0.931 . S
H573 C588 0.930 . S
C574 H562 0.930 . S
C574 C575 1.399 . S
C574 C579 1.399 . S
C575 C574 1.399 . S
C575 C576 1.376 . S
C576 H563 0.930 . S
C576 C575 1.376 . S
C576 C577 1.388 . S
C577 H564 0.930 . S
C577 C576 1.388 . S
C577 C578 1.390 . S
C578 C577 1.390 . S
C578 C579 1.394 . S
C578 C584 1.465 . S
C579 C574 1.399 . S
C579 C578 1.394 . S
C579 C580 1.516 . S
C580 C579 1.516 . S
C580 C581 1.502 . S
C580 C582 1.561 . S
C580 C583 1.526 . S
C581 H565 0.959 . S
C581 H566 0.959 . S
C581 H567 0.961 . S
C581 C580 1.502 . S
C582 H568 0.960 . S
C582 H569 0.961 . S
C582 H570 0.959 . S
C582 C580 1.561 . S
C583 C580 1.526 . S
C583 C584 1.396 . S
C583 C588 1.390 . S
C584 C578 1.465 . S
C584 C583 1.396 . S
C584 C585 1.399 . S
C585 H571 0.929 . S
C585 C584 1.399 . S
C585 C586 1.385 . S
C586 H572 0.931 . S
C586 C585 1.385 . S
C586 C587 1.389 . S
C587 C586 1.389 . S
C587 C588 1.387 . S
C588 H573 0.930 . S
C588 C583 1.390 . S
C588 C587 1.387 . S
H589 C601 0.930 . S
H590 C603 0.930 . S
H591 C604 0.930 . S
H592 C608 0.959 . S
H593 C608 0.959 . S
H594 C608 0.961 . S
H595 C609 0.960 . S
H596 C609 0.961 . S
H597 C609 0.959 . S
H598 C612 0.929 . S
H599 C613 0.931 . S
H600 C615 0.930 . S
C601 H589 0.930 . S
C601 C602 1.399 . S
C601 C606 1.399 1_655 S
C602 C601 1.399 . S
C602 C603 1.376 . S
C603 H590 0.930 . S
C603 C602 1.376 . S
C603 C604 1.388 1_655 S
C604 H591 0.930 . S
C604 C603 1.388 1_455 S
C604 C605 1.390 . S
C605 C604 1.390 . S
C605 C606 1.394 . S
C605 C611 1.465 . S
C606 C601 1.399 1_455 S
C606 C605 1.394 . S
C606 C607 1.516 . S
C607 C606 1.516 . S
C607 C608 1.502 . S
C607 C609 1.561 . S
C607 C610 1.526 . S
C608 H592 0.959 . S
C608 H593 0.959 . S
C608 H594 0.961 . S
C608 C607 1.502 . S
C609 H595 0.960 . S
C609 H596 0.961 . S
C609 H597 0.959 . S
C609 C607 1.561 . S
C610 C607 1.526 . S
C610 C611 1.396 . S
C610 C615 1.390 . S
C611 C605 1.465 . S
C611 C610 1.396 . S
C611 C612 1.399 . S
C612 H598 0.929 . S
C612 C611 1.399 . S
C612 C613 1.385 . S
C613 H599 0.931 . S
C613 C612 1.385 . S
C613 C614 1.389 . S
C614 C613 1.389 . S
C614 C615 1.387 . S
C615 H600 0.930 . S
C615 C610 1.390 . S
C615 C614 1.387 . S
H616 C628 0.930 . S
H617 C630 0.930 . S
H618 C631 0.930 . S
H619 C635 0.959 . S
H620 C635 0.959 . S
H621 C635 0.961 . S
H622 C636 0.960 . S
H623 C636 0.961 . S
H624 C636 0.959 . S
H625 C639 0.929 . S
H626 C640 0.931 . S
H627 C642 0.930 . S
C628 H616 0.930 . S
C628 C629 1.399 . S
C628 C633 1.399 . S
C629 C628 1.399 . S
C629 C630 1.376 . S
C630 H617 0.930 . S
C630 C629 1.376 . S
C630 C631 1.388 . S
C631 H618 0.930 . S
C631 C630 1.388 . S
C631 C632 1.390 . S
C632 C631 1.390 . S
C632 C633 1.394 . S
C632 C638 1.465 . S
C633 C628 1.399 . S
C633 C632 1.394 . S
C633 C634 1.516 . S
C634 C633 1.516 . S
C634 C635 1.502 . S
C634 C636 1.561 . S
C634 C637 1.526 . S
C635 H619 0.959 . S
C635 H620 0.959 . S
C635 H621 0.961 . S
C635 C634 1.502 . S
C636 H622 0.960 . S
C636 H623 0.961 . S
C636 H624 0.959 . S
C636 C634 1.561 . S
C637 C634 1.526 . S
C637 C638 1.396 . S
C637 C642 1.390 . S
C638 C632 1.465 . S
C638 C637 1.396 . S
C638 C639 1.399 . S
C639 H625 0.929 . S
C639 C638 1.399 . S
C639 C640 1.385 . S
C640 H626 0.931 . S
C640 C639 1.385 . S
C640 C641 1.389 . S
C641 C640 1.389 . S
C641 C642 1.387 . S
C642 H627 0.930 . S
C642 C637 1.390 . S
C642 C641 1.387 . S
H643 C655 0.930 . S
H644 C657 0.930 . S
H645 C658 0.930 . S
H646 C662 0.959 . S
H647 C662 0.959 . S
H648 C662 0.961 . S
H649 C663 0.960 . S
H650 C663 0.961 . S
H651 C663 0.959 . S
H652 C666 0.929 . S
H653 C667 0.931 . S
H654 C669 0.930 . S
C655 H643 0.930 . S
C655 C656 1.399 . S
C655 C660 1.399 . S
C656 C655 1.399 . S
C656 C657 1.376 . S
C657 H644 0.930 . S
C657 C656 1.376 . S
C657 C658 1.388 . S
C658 H645 0.930 . S
C658 C657 1.388 . S
C658 C659 1.390 . S
C659 C658 1.390 . S
C659 C660 1.394 . S
C659 C665 1.465 . S
C660 C655 1.399 . S
C660 C659 1.394 . S
C660 C661 1.516 . S
C661 C660 1.516 . S
C661 C662 1.502 . S
C661 C663 1.561 . S
C661 C664 1.526 . S
C662 H646 0.959 . S
C662 H647 0.959 . S
C662 H648 0.961 . S
C662 C661 1.502 . S
C663 H649 0.960 . S
C663 H650 0.961 . S
C663 H651 0.959 . S
C663 C661 1.561 . S
C664 C661 1.526 . S
C664 C665 1.396 . S
C664 C669 1.390 . S
C665 C659 1.465 . S
C665 C664 1.396 . S
C665 C666 1.399 . S
C666 H652 0.929 . S
C666 C665 1.399 . S
C666 C667 1.385 . S
C667 H653 0.931 . S
C667 C666 1.385 . S
C667 C668 1.389 . S
C668 C667 1.389 . S
C668 C669 1.387 . S
C669 H654 0.930 . S
C669 C664 1.390 . S
C669 C668 1.387 . S
H670 C682 0.930 . S
H671 C684 0.930 . S
H672 C685 0.930 . S
H673 C689 0.959 . S
H674 C689 0.959 . S
H675 C689 0.961 . S
H676 C690 0.960 . S
H677 C690 0.961 . S
H678 C690 0.959 . S
H679 C693 0.929 . S
H680 C694 0.931 . S
H681 C696 0.930 . S
C682 H670 0.930 . S
C682 C683 1.399 . S
C682 C687 1.399 . S
C683 C682 1.399 . S
C683 C684 1.376 . S
C684 H671 0.930 . S
C684 C683 1.376 . S
C684 C685 1.388 . S
C685 H672 0.930 . S
C685 C684 1.388 . S
C685 C686 1.390 . S
C686 C685 1.390 . S
C686 C687 1.394 . S
C686 C692 1.465 . S
C687 C682 1.399 . S
C687 C686 1.394 . S
C687 C688 1.516 . S
C688 C687 1.516 . S
C688 C689 1.502 . S
C688 C690 1.561 . S
C688 C691 1.526 . S
C689 H673 0.959 . S
C689 H674 0.959 . S
C689 H675 0.961 . S
C689 C688 1.502 . S
C690 H676 0.960 . S
C690 H677 0.961 . S
C690 H678 0.959 . S
C690 C688 1.561 . S
C691 C688 1.526 . S
C691 C692 1.396 . S
C691 C696 1.390 . S
C692 C686 1.465 . S
C692 C691 1.396 . S
C692 C693 1.399 . S
C693 H679 0.929 . S
C693 C692 1.399 . S
C693 C694 1.385 . S
C694 H680 0.931 . S
C694 C693 1.385 . S
C694 C695 1.389 . S
C695 C694 1.389 . S
C695 C696 1.387 . S
C696 H681 0.930 . S
C696 C691 1.390 . S
C696 C695 1.387 . S
H697 C709 0.930 . S
H698 C711 0.930 . S
H699 C712 0.930 . S
H700 C716 0.959 . S
H701 C716 0.959 . S
H702 C716 0.961 . S
H703 C717 0.960 . S
H704 C717 0.961 . S
H705 C717 0.959 . S
H706 C720 0.929 . S
H707 C721 0.931 . S
H708 C723 0.930 . S
C709 H697 0.930 . S
C709 C710 1.399 . S
C709 C714 1.399 . S
C710 C709 1.399 . S
C710 C711 1.376 . S
C711 H698 0.930 . S
C711 C710 1.376 . S
C711 C712 1.388 . S
C712 H699 0.930 . S
C712 C711 1.388 . S
C712 C713 1.390 . S
C713 C712 1.390 . S
C713 C714 1.394 . S
C713 C719 1.465 . S
C714 C709 1.399 . S
C714 C713 1.394 . S
C714 C715 1.516 . S
C715 C714 1.516 . S
C715 C716 1.502 . S
C715 C717 1.561 . S
C715 C718 1.526 . S
C716 H700 0.959 . S
C716 H701 0.959 . S
C716 H702 0.961 . S
C716 C715 1.502 . S
C717 H703 0.960 . S
C717 H704 0.961 . S
C717 H705 0.959 . S
C717 C715 1.561 . S
C718 C715 1.526 . S
C718 C719 1.396 . S
C718 C723 1.390 . S
C719 C713 1.465 . S
C719 C718 1.396 . S
C719 C720 1.399 . S
C720 H706 0.929 . S
C720 C719 1.399 . S
C720 C721 1.385 . S
C721 H707 0.931 . S
C721 C720 1.385 . S
C721 C722 1.389 . S
C722 C721 1.389 . S
C722 C723 1.387 . S
C723 H708 0.930 . S
C723 C718 1.390 . S
C723 C722 1.387 . S
H724 C736 0.930 . S
H725 C738 0.930 . S
H726 C739 0.930 . S
H727 C743 0.959 . S
H728 C743 0.959 . S
H729 C743 0.961 . S
H730 C744 0.960 . S
H731 C744 0.961 . S
H732 C744 0.959 . S
H733 C747 0.929 . S
H734 C748 0.931 . S
H735 C750 0.930 . S
C736 H724 0.930 . S
C736 C737 1.399 . S
C736 C741 1.399 . S
C737 C736 1.399 . S
C737 C738 1.376 . S
C738 H725 0.930 . S
C738 C737 1.376 . S
C738 C739 1.388 . S
C739 H726 0.930 . S
C739 C738 1.388 . S
C739 C740 1.390 . S
C740 C739 1.390 . S
C740 C741 1.394 . S
C740 C746 1.465 . S
C741 C736 1.399 . S
C741 C740 1.394 . S
C741 C742 1.516 . S
C742 C741 1.516 . S
C742 C743 1.502 . S
C742 C744 1.561 . S
C742 C745 1.526 . S
C743 H727 0.959 . S
C743 H728 0.959 . S
C743 H729 0.961 . S
C743 C742 1.502 . S
C744 H730 0.960 . S
C744 H731 0.961 . S
C744 H732 0.959 . S
C744 C742 1.561 . S
C745 C742 1.526 . S
C745 C746 1.396 . S
C745 C750 1.390 . S
C746 C740 1.465 . S
C746 C745 1.396 . S
C746 C747 1.399 . S
C747 H733 0.929 . S
C747 C746 1.399 . S
C747 C748 1.385 . S
C748 H734 0.931 . S
C748 C747 1.385 . S
C748 C749 1.389 . S
C749 C748 1.389 . S
C749 C750 1.387 . S
C750 H735 0.930 . S
C750 C745 1.390 . S
C750 C749 1.387 . S
H751 C763 0.930 . S
H752 C765 0.930 . S
H753 C766 0.930 1_554 S
H754 C770 0.959 . S
H755 C770 0.959 . S
H756 C770 0.961 . S
H757 C771 0.960 . S
H758 C771 0.961 . S
H759 C771 0.959 . S
H760 C774 0.929 . S
H761 C775 0.931 . S
H762 C777 0.930 . S
C763 H751 0.930 . S
C763 C764 1.399 . S
C763 C768 1.399 . S
C764 C763 1.399 . S
C764 C765 1.376 1_556 S
C765 H752 0.930 . S
C765 C764 1.376 1_554 S
C765 C766 1.388 1_554 S
C766 H753 0.930 1_556 S
C766 C765 1.388 1_556 S
C766 C767 1.390 . S
C767 C766 1.390 . S
C767 C768 1.394 . S
C767 C773 1.465 . S
C768 C763 1.399 . S
C768 C767 1.394 . S
C768 C769 1.516 . S
C769 C768 1.516 . S
C769 C770 1.502 . S
C769 C771 1.561 . S
C769 C772 1.526 . S
C770 H754 0.959 . S
C770 H755 0.959 . S
C770 H756 0.961 . S
C770 C769 1.502 . S
C771 H757 0.960 . S
C771 H758 0.961 . S
C771 H759 0.959 . S
C771 C769 1.561 . S
C772 C769 1.526 . S
C772 C773 1.396 . S
C772 C777 1.390 . S
C773 C767 1.465 . S
C773 C772 1.396 . S
C773 C774 1.399 . S
C774 H760 0.929 . S
C774 C773 1.399 . S
C774 C775 1.385 . S
C775 H761 0.931 . S
C775 C774 1.385 . S
C775 C776 1.389 . S
C776 C775 1.389 . S
C776 C777 1.387 . S
C777 H762 0.930 . S
C777 C772 1.390 . S
C777 C776 1.387 . S
H778 C790 0.930 . S
H779 C792 0.930 . S
H780 C793 0.930 . S
H781 C797 0.959 . S
H782 C797 0.959 . S
H783 C797 0.961 . S
H784 C798 0.960 . S
H785 C798 0.961 . S
H786 C798 0.959 . S
H787 C801 0.929 . S
H788 C802 0.931 . S
H789 C804 0.930 . S
C790 H778 0.930 . S
C790 C791 1.399 . S
C790 C795 1.399 . S
C791 C790 1.399 . S
C791 C792 1.376 . S
C792 H779 0.930 . S
C792 C791 1.376 . S
C792 C793 1.388 . S
C793 H780 0.930 . S
C793 C792 1.388 . S
C793 C794 1.390 . S
C794 C793 1.390 . S
C794 C795 1.394 . S
C794 C800 1.465 . S
C795 C790 1.399 . S
C795 C794 1.394 . S
C795 C796 1.516 . S
C796 C795 1.516 . S
C796 C797 1.502 . S
C796 C798 1.561 . S
C796 C799 1.526 . S
C797 H781 0.959 . S
C797 H782 0.959 . S
C797 H783 0.961 . S
C797 C796 1.502 . S
C798 H784 0.960 . S
C798 H785 0.961 . S
C798 H786 0.959 . S
C798 C796 1.561 . S
C799 C796 1.526 . S
C799 C800 1.396 . S
C799 C804 1.390 . S
C800 C794 1.465 . S
C800 C799 1.396 . S
C800 C801 1.399 . S
C801 H787 0.929 . S
C801 C800 1.399 . S
C801 C802 1.385 . S
C802 H788 0.931 . S
C802 C801 1.385 . S
C802 C803 1.389 . S
C803 C802 1.389 . S
C803 C804 1.387 . S
C804 H789 0.930 . S
C804 C799 1.390 . S
C804 C803 1.387 . S
H805 C817 0.930 . S
H806 C819 0.930 . S
H807 C820 0.930 . S
H808 C824 0.959 . S
H809 C824 0.959 . S
H810 C824 0.961 . S
H811 C825 0.960 . S
H812 C825 0.961 . S
H813 C825 0.959 . S
H814 C828 0.929 . S
H815 C829 0.931 . S
H816 C831 0.930 . S
C817 H805 0.930 . S
C817 C818 1.399 . S
C817 C822 1.399 . S
C818 C817 1.399 . S
C818 C819 1.376 . S
C819 H806 0.930 . S
C819 C818 1.376 . S
C819 C820 1.388 . S
C820 H807 0.930 . S
C820 C819 1.388 . S
C820 C821 1.390 . S
C821 C820 1.390 . S
C821 C822 1.394 . S
C821 C827 1.465 . S
C822 C817 1.399 . S
C822 C821 1.394 . S
C822 C823 1.516 . S
C823 C822 1.516 . S
C823 C824 1.502 . S
C823 C825 1.561 . S
C823 C826 1.526 . S
C824 H808 0.959 . S
C824 H809 0.959 . S
C824 H810 0.961 . S
C824 C823 1.502 . S
C825 H811 0.960 . S
C825 H812 0.961 . S
C825 H813 0.959 . S
C825 C823 1.561 . S
C826 C823 1.526 . S
C826 C827 1.396 . S
C826 C831 1.390 . S
C827 C821 1.465 . S
C827 C826 1.396 . S
C827 C828 1.399 . S
C828 H814 0.929 . S
C828 C827 1.399 . S
C828 C829 1.385 . S
C829 H815 0.931 . S
C829 C828 1.385 . S
C829 C830 1.389 . S
C830 C829 1.389 . S
C830 C831 1.387 . S
C831 H816 0.930 . S
C831 C826 1.390 . S
C831 C830 1.387 . S
C197 C7 1.413 . S
C209 C97 1.342 . S
C224 C37 1.403 . S
C236 C109 1.357 . S
C251 C54 1.343 . S
C263 C121 1.269 . S
C290 C130 1.310 . S
C278 C87 1.320 . S
C317 C145 1.327 . S
C305 C30 1.361 . S
C332 C51 1.295 . S
C344 C154 1.237 . S
C359 C84 1.362 . S
C371 C169 1.331 . S
C386 C10 1.423 . S
C398 C181 1.353 . S
C413 C59 1.259 1_556 S
C425 C178 1.264 . S
C452 C142 1.237 . S
C440 C74 1.268 . S
C479 C157 1.352 . S
C467 C18 1.374 . S
C494 C32 1.288 . S
C506 C166 1.253 . S
C533 C106 1.212 . S
C521 C73 1.266 . S
C548 C15 1.328 . S
C560 C118 1.271 . S
C587 C133 1.338 . S
C575 C43 1.361 . S
C614 C94 1.273 . S
C602 C62 1.254 . S
C641 C164 1.375 . S
C629 C21 1.379 . S
C668 C176 1.412 . S
C656 C29 1.428 . S
C683 C52 1.380 . S
C695 C140 1.343 . S
C722 C152 1.395 . S
C710 C81 1.372 . S
C749 C116 1.353 . S
C737 C40 1.394 . S
C764 C65 1.365 . S
C776 C128 1.382 . S
C803 C92 1.395 . S
C791 C76 1.387 . S
C830 C104 1.385 . S
C818 C8 1.390 . S
