# Generated by pormake.
# Topology anh, (6,3)-cn, num edge types: 1
# Building blocks:
#     Node 0, Type 0, BuildingBlock: CUKXOW_clean_sbu_0, # of connection points: 6
#     Node 1, Type 0, BuildingBlock: CUKXOW_clean_sbu_0, # of connection points: 6
#     Node 2, Type 0, BuildingBlock: CUKXOW_clean_sbu_0, # of connection points: 6
#     Node 3, Type 1, BuildingBlock: VETTIZ_charged_linker_0, # of connection points: 3
#     Node 4, Type 1, BuildingBlock: VETTIZ_charged_linker_0, # of connection points: 3
#     Node 5, Type 1, BuildingBlock: VETTIZ_charged_linker_0, # of connection points: 3
#     Node 6, Type 1, BuildingBlock: VETTIZ_charged_linker_0, # of connection points: 3
#     Node 7, Type 1, BuildingBlock: VETTIZ_charged_linker_0, # of connection points: 3
#     Node 8, Type 1, BuildingBlock: VETTIZ_charged_linker_0, # of connection points: 3
#     Edge 9, Type (0, 1), BuildingBlock: UVAHIK_clean_linker_0, # of connection points: 2
#     Edge 10, Type (0, 1), BuildingBlock: UVAHIK_clean_linker_0, # of connection points: 2
#     Edge 11, Type (0, 1), BuildingBlock: UVAHIK_clean_linker_0, # of connection points: 2
#     Edge 12, Type (0, 1), BuildingBlock: UVAHIK_clean_linker_0, # of connection points: 2
#     Edge 13, Type (0, 1), BuildingBlock: UVAHIK_clean_linker_0, # of connection points: 2
#     Edge 14, Type (0, 1), BuildingBlock: UVAHIK_clean_linker_0, # of connection points: 2
#     Edge 15, Type (0, 1), BuildingBlock: UVAHIK_clean_linker_0, # of connection points: 2
#     Edge 16, Type (0, 1), BuildingBlock: UVAHIK_clean_linker_0, # of connection points: 2
#     Edge 17, Type (0, 1), BuildingBlock: UVAHIK_clean_linker_0, # of connection points: 2
#     Edge 18, Type (0, 1), BuildingBlock: UVAHIK_clean_linker_0, # of connection points: 2
#     Edge 19, Type (0, 1), BuildingBlock: UVAHIK_clean_linker_0, # of connection points: 2
#     Edge 20, Type (0, 1), BuildingBlock: UVAHIK_clean_linker_0, # of connection points: 2
#     Edge 21, Type (0, 1), BuildingBlock: UVAHIK_clean_linker_0, # of connection points: 2
#     Edge 22, Type (0, 1), BuildingBlock: UVAHIK_clean_linker_0, # of connection points: 2
#     Edge 23, Type (0, 1), BuildingBlock: UVAHIK_clean_linker_0, # of connection points: 2
#     Edge 24, Type (0, 1), BuildingBlock: UVAHIK_clean_linker_0, # of connection points: 2
#     Edge 25, Type (0, 1), BuildingBlock: UVAHIK_clean_linker_0, # of connection points: 2
#     Edge 26, Type (0, 1), BuildingBlock: UVAHIK_clean_linker_0, # of connection points: 2
# Relax obj value: 0.136
# Max RMSD: 0.196
# Mean RMSD: 0.141
data_MOF--net-anh--node1-CUKXOW_clean_sbu_0--node2-VETTIZ_charged_linker_0--edge1-UVAHIK_clean_linker_0
_symmetry_space_group_name_H-M    P1
_symmetry_Int_Tables_number       1
_symmetry_cell_setting            triclinic
loop_
_symmetry_equiv_pos_as_xyz
'x, y, z'
_cell_length_a     43.384408
_cell_length_b     42.296197
_cell_length_c     80.642586
_cell_angle_alpha  95.654159
_cell_angle_beta   90.151198
_cell_angle_gamma 115.97832
loop_
_atom_site_label
_atom_site_type_symbol
_atom_site_fract_x
_atom_site_fract_y
_atom_site_fract_z
_atom_type_partial_charge
Tb0 Tb 0.07568 0.52448 0.15497 0.0
C1 C 0.05498 0.492 0.18878 0.0
Tb2 Tb 0.02479 0.44424 0.15405 0.0
O3 O 0.03555 0.53903 0.16429 0.0
O4 O 0.02218 0.49168 0.14931 0.0
O5 O 0.0781 0.51801 0.1812 0.0
C6 C 0.96379 0.38989 0.15625 0.0
O7 O 0.03059 0.46285 0.18063 0.0
C8 C 0.08978 0.45399 0.15651 0.0
C9 C 0.0509 0.47587 0.12034 0.0
O10 O 0.9746 0.42101 0.16451 0.0
O11 O 0.98763 0.38895 0.14671 0.0
O12 O 0.06326 0.42319 0.15614 0.0
O13 O 0.07784 0.47617 0.15575 0.0
O14 O 0.02611 0.45032 0.12753 0.0
O15 O 0.07499 0.50463 0.12892 0.0
C16 C 0.12908 0.58642 0.15196 0.0
O17 O 0.09887 0.57541 0.14469 0.0
O18 O 0.1291 0.56268 0.16101 0.0
C19 C 1.01005 0.50962 0.15809 0.0
Tb20 Tb 0.49737 0.99844 0.50286 0.0
C21 C 0.52773 0.0236 0.46878 0.0
Tb22 Tb 0.57048 0.05695 0.50384 0.0
O23 O 0.47746 0.03498 0.49575 0.0
O24 O 0.52244 0.05345 0.51084 0.0
O25 O 0.50255 0.99883 0.47611 0.0
C26 C 0.62215 0.12027 0.50094 0.0
O27 O 0.55553 0.04872 0.47716 0.0
C28 C 0.56595 0.99296 0.50314 0.0
C29 C 0.54052 0.02971 0.5374 0.0
O30 O 0.59021 0.11053 0.49672 0.0
O31 O 0.62528 0.09416 0.50672 0.0
O32 O 0.59251 0.0213 0.50945 0.0
O33 O 0.54571 1.00194 0.49589 0.0
O34 O 0.56203 0.05777 0.53041 0.0
O35 O 0.5159 1.00192 0.52855 0.0
C36 C 0.4415 0.93819 0.50559 0.0
O37 O 0.44402 0.9697 0.50968 0.0
O38 O 0.47025 0.94066 0.49985 0.0
C39 C 0.50326 0.06285 0.50299 0.0
Tb40 Tb 0.54573 0.55798 0.83701 0.0
C41 C 0.58971 0.56288 0.86872 0.0
Tb42 Tb 0.62172 0.56589 0.8333 0.0
O43 O 0.52774 0.50436 0.84454 0.0
O44 O 0.57036 0.52551 0.83009 0.0
O45 O 0.56589 0.57092 0.86264 0.0
C46 C 0.67195 0.54677 0.82779 0.0
O47 O 0.61054 0.55443 0.85914 0.0
C48 C 0.61894 0.62759 0.8369 0.0
C49 C 0.57817 0.56413 0.8013 0.0
O50 O 0.66659 0.56005 0.84209 0.0
O51 O 0.6495 0.54491 0.81665 0.0
O52 O 0.64773 0.62506 0.83541 0.0
O53 O 0.59598 0.59667 0.83672 0.0
O54 O 0.60586 0.56227 0.80727 0.0
O55 O 0.55327 0.56496 0.81066 0.0
C56 C 0.49331 0.5743 0.83799 0.0
O57 O 0.49361 0.54728 0.82889 0.0
O58 O 0.52195 0.59123 0.84686 0.0
C59 C 0.55337 0.4999 0.83822 0.0
C60 C 0.61218 0.0972 0.18888 0.0
C61 C 0.6396 0.12566 0.19809 0.0
C62 C 0.63894 0.12992 0.21562 0.0
C63 C 0.5843 0.07813 0.21462 0.0
C64 C 0.58466 0.07396 0.1974 0.0
C65 C 0.5527 0.04289 0.18972 0.0
H66 H 0.39911 0.90585 0.20099 0.0
C67 C 0.55243 0.04967 0.2197 0.0
C68 C 0.53358 0.02894 0.20518 0.0
H69 H 0.44467 0.93748 0.15416 0.0
H70 H 0.49453 0.98528 0.16905 0.0
H71 H 0.4643 0.91193 0.21878 0.0
H72 H 0.42021 0.9853 0.21932 0.0
H73 H 0.43261 0.9846 0.24003 0.0
H74 H 0.4012 0.94453 0.22859 0.0
H75 H 0.42956 0.90816 0.23171 0.0
H76 H 0.47383 0.93473 0.2389 0.0
C77 C 0.56344 0.01602 0.18016 0.0
C78 C 0.53324 0.057 0.17873 0.0
C79 C 0.53136 0.03989 0.28137 0.0
C80 C 0.50524 0.01499 0.29002 0.0
C81 C 0.47738 0.98692 0.28075 0.0
C82 C 0.4756 0.98367 0.26329 0.0
C83 C 0.50208 0.00854 0.25487 0.0
C84 C 0.52939 0.03597 0.2639 0.0
C85 C 0.55578 0.05913 0.25284 0.0
C86 C 0.53978 0.04097 0.23567 0.0
C87 C 0.50827 0.01159 0.23696 0.0
C88 C 0.58993 0.05707 0.25651 0.0
C89 C 0.55795 0.09685 0.2559 0.0
C90 C 0.41952 0.92343 0.1939 0.0
C91 C 0.41774 0.91828 0.17639 0.0
C92 C 0.44544 0.94102 0.16767 0.0
C93 C 0.47427 0.96877 0.17633 0.0
C94 C 0.47545 0.97363 0.19389 0.0
C95 C 0.44835 0.95097 0.20232 0.0
C96 C 0.45408 0.95909 0.22092 0.0
C97 C 0.48884 0.99094 0.22235 0.0
C98 C 0.50135 0.99946 0.20652 0.0
C99 C 0.45532 0.92688 0.22808 0.0
C100 C 0.42553 0.96871 0.22772 0.0
H101 H 0.61273 0.11115 0.23724 0.0
H102 H 0.61191 0.09349 0.17539 0.0
H103 H 0.53509 0.08274 0.18461 0.0
H104 H 0.50546 0.03942 0.17713 0.0
H105 H 0.54415 0.06128 0.16624 0.0
H106 H 0.58454 0.01415 0.18722 0.0
H107 H 0.57276 0.02416 0.16773 0.0
H108 H 0.54253 0.98885 0.17849 0.0
H109 H 0.55298 0.06204 0.288 0.0
H110 H 0.45719 0.96691 0.28698 0.0
H111 H 0.45379 0.96166 0.25702 0.0
H112 H 0.58497 0.0301 0.2594 0.0
H113 H 0.60467 0.07605 0.26741 0.0
H114 H 0.60645 0.06179 0.24576 0.0
H115 H 0.53253 0.09578 0.25893 0.0
H116 H 0.56511 0.11132 0.24476 0.0
H117 H 0.57638 0.11278 0.26649 0.0
H118 H 0.65998 0.15138 0.22298 0.0
C119 C 0.61154 0.10639 0.2239 0.0
C120 C 0.54797 0.62586 0.51713 0.0
C121 C 0.55214 0.65863 0.52538 0.0
C122 C 0.55275 0.66305 0.54291 0.0
C123 C 0.54611 0.60351 0.54397 0.0
C124 C 0.54532 0.59867 0.52673 0.0
C125 C 0.54228 0.56236 0.52049 0.0
H126 H 0.53601 0.40644 0.54094 0.0
C127 C 0.54304 0.57094 0.55046 0.0
C128 C 0.54072 0.54636 0.53683 0.0
H129 H 0.53726 0.43632 0.49124 0.0
H130 H 0.53668 0.49176 0.50268 0.0
H131 H 0.59047 0.48124 0.55839 0.0
H132 H 0.48044 0.42864 0.55319 0.0
H133 H 0.48976 0.45468 0.57252 0.0
H134 H 0.50351 0.42 0.56921 0.0
H135 H 0.56427 0.44285 0.56837 0.0
H136 H 0.57491 0.48676 0.57803 0.0
C137 C 0.57487 0.56728 0.51118 0.0
C138 C 0.50869 0.54206 0.50959 0.0
C139 C 0.54516 0.56656 0.61327 0.0
C140 C 0.54074 0.53935 0.62306 0.0
C141 C 0.53449 0.50574 0.61523 0.0
C142 C 0.53338 0.49943 0.59783 0.0
C143 C 0.53828 0.52695 0.58813 0.0
C144 C 0.54333 0.55959 0.59585 0.0
C145 C 0.54594 0.58491 0.58348 0.0
C146 C 0.54228 0.56223 0.56706 0.0
C147 C 0.53844 0.52866 0.56991 0.0
C148 C 0.58202 0.61677 0.5862 0.0
C149 C 0.51547 0.59462 0.58576 0.0
C150 C 0.53646 0.42503 0.53249 0.0
C151 C 0.53744 0.4175 0.51526 0.0
C152 C 0.53687 0.44184 0.50462 0.0
C153 C 0.53672 0.47398 0.51129 0.0
C154 C 0.53684 0.48155 0.52874 0.0
C155 C 0.5361 0.45671 0.53889 0.0
C156 C 0.53523 0.46772 0.557 0.0
C157 C 0.53678 0.50395 0.55633 0.0
C158 C 0.5378 0.5124 0.5398 0.0
C159 C 0.5677 0.46963 0.56606 0.0
C160 C 0.50065 0.44143 0.56345 0.0
H161 H 0.55043 0.6412 0.56548 0.0
H162 H 0.54757 0.62187 0.50364 0.0
H163 H 0.48718 0.54547 0.51565 0.0
H164 H 0.50065 0.51329 0.50777 0.0
H165 H 0.51136 0.552 0.49717 0.0
H166 H 0.5982 0.58779 0.51832 0.0
H167 H 0.57404 0.5759 0.49868 0.0
H168 H 0.57868 0.54308 0.50962 0.0
H169 H 0.5495 0.5925 0.61905 0.0
H170 H 0.53108 0.48451 0.62263 0.0
H171 H 0.52911 0.47343 0.59266 0.0
H172 H 0.60173 0.60789 0.5894 0.0
H173 H 0.58254 0.63633 0.59659 0.0
H174 H 0.59106 0.63036 0.57492 0.0
H175 H 0.49308 0.57306 0.59079 0.0
H176 H 0.5053 0.59812 0.57384 0.0
H177 H 0.52279 0.61896 0.59458 0.0
H178 H 0.55556 0.68785 0.5495 0.0
C179 C 0.54966 0.6358 0.55219 0.0
C180 C 0.16288 0.58432 0.84746 0.0
C181 C 0.19387 0.60096 0.85716 0.0
C182 C 0.1932 0.6003 0.87461 0.0
C183 C 0.13181 0.56393 0.87224 0.0
C184 C 0.13226 0.56605 0.85524 0.0
C185 C 0.09719 0.54583 0.84672 0.0
H186 H 0.92689 0.45082 0.85311 0.0
C187 C 0.09632 0.54087 0.87621 0.0
C188 C 0.07588 0.5303 0.86134 0.0
H189 H 0.98131 0.4905 0.80914 0.0
H190 H 0.03543 0.5116 0.82475 0.0
H191 H 0.98116 0.42053 0.86602 0.0
H192 H 0.9687 0.51565 0.87777 0.0
H193 H 0.97787 0.50324 0.89664 0.0
H194 H 0.93955 0.47385 0.88425 0.0
H195 H 0.94733 0.42157 0.87846 0.0
H196 H 0.98919 0.43219 0.88764 0.0
C197 C 0.09802 0.51668 0.83372 0.0
C198 C 0.08723 0.57275 0.83931 0.0
C199 C 0.06994 0.5101 0.93544 0.0
C200 C 0.03946 0.48957 0.94302 0.0
C201 C 1.00849 0.47274 0.93315 0.0
C202 C 1.0079 0.47632 0.91608 0.0
C203 C 0.03856 0.49711 0.90874 0.0
C204 C 0.06886 0.51361 0.91841 0.0
C205 C 0.09889 0.535 0.90857 0.0
C206 C 0.08165 0.52828 0.89134 0.0
C207 C 0.04638 0.50603 0.89151 0.0
C208 C 0.12505 0.51924 0.90906 0.0
C209 C 0.11326 0.57442 0.91584 0.0
C210 C 0.95045 0.46308 0.84669 0.0
C211 C 0.94984 0.46922 0.82989 0.0
C212 C 0.98114 0.48586 0.82212 0.0
C213 C 0.0125 0.49828 0.83124 0.0
C214 C 0.01257 0.49417 0.84832 0.0
C215 C 0.98194 0.47584 0.85564 0.0
C216 C 0.98692 0.4744 0.87397 0.0
C217 C 0.02547 0.49608 0.87656 0.0
C218 C 0.04027 0.50771 0.86152 0.0
C219 C 0.9754 0.43521 0.87683 0.0
C220 C 0.96714 0.49245 0.88379 0.0
H221 H 0.16367 0.58158 0.89545 0.0
H222 H 0.1626 0.5846 0.83404 0.0
H223 H 0.09763 0.59837 0.84745 0.0
H224 H 0.05926 0.56411 0.83841 0.0
H225 H 0.09763 0.57828 0.82679 0.0
H226 H 0.11522 0.50581 0.83831 0.0
H227 H 0.10765 0.52732 0.82174 0.0
H228 H 0.07274 0.49354 0.83128 0.0
H229 H 0.09428 0.52308 0.94255 0.0
H230 H 0.98452 0.45723 0.93868 0.0
H231 H 0.9835 0.46305 0.90929 0.0
H232 H 0.11157 0.48982 0.90781 0.0
H233 H 0.14059 0.52822 0.92105 0.0
H234 H 0.14255 0.52579 0.89869 0.0
H235 H 0.09275 0.58047 0.92143 0.0
H236 H 0.12343 0.59279 0.90621 0.0
H237 H 0.13364 0.58122 0.92577 0.0
H238 H 0.21681 0.61251 0.88234 0.0
C239 C 0.16235 0.5819 0.88219 0.0
C240 C 0.92608 0.46392 0.4677 0.0
C241 C 0.89637 0.43924 0.45838 0.0
C242 C 0.89456 0.43945 0.44095 0.0
C243 C 0.95232 0.48667 0.44219 0.0
C244 C 0.95359 0.48754 0.45937 0.0
C245 C 0.98709 0.51576 0.46727 0.0
H246 H 0.14972 0.63693 0.45728 0.0
C247 C 0.98576 0.51293 0.43727 0.0
C248 C 1.00623 0.53032 0.45191 0.0
H249 H 0.09874 0.61355 0.50353 0.0
H250 H 0.04627 0.57066 0.48824 0.0
H251 H 0.11843 0.55743 0.43914 0.0
H252 H 0.08907 0.64207 0.43858 0.0
H253 H 0.08123 0.62088 0.41813 0.0
H254 H 0.12446 0.6415 0.42732 0.0
H255 H 0.14184 0.59582 0.42862 0.0
H256 H 0.10606 0.55735 0.41839 0.0
C257 C 1.0046 0.49776 0.477 0.0
C258 C 0.9797 0.54373 0.47816 0.0
C259 C 1.0108 0.51977 0.37578 0.0
C260 C 0.0405 0.53947 0.36744 0.0
C261 C 0.07036 0.56361 0.37694 0.0
C262 C 0.0707 0.56797 0.39438 0.0
C263 C 0.04096 0.54788 0.40252 0.0
C264 C 1.01166 0.5243 0.39325 0.0
C265 C 0.98273 0.50468 0.40409 0.0
C266 C 0.99948 0.52066 0.42139 0.0
C267 C 0.03354 0.54584 0.42035 0.0
C268 C 0.97375 0.4648 0.40083 0.0
C269 C 0.95263 0.51372 0.40031 0.0
C270 C 0.12732 0.6222 0.4641 0.0
C271 C 0.12824 0.62785 0.48155 0.0
C272 C 0.09844 0.60917 0.49005 0.0
C273 C 0.06816 0.58445 0.48116 0.0
C274 C 0.06773 0.5789 0.46363 0.0
C275 C 0.09691 0.5981 0.45544 0.0
C276 C 0.09146 0.59068 0.43681 0.0
C277 C 0.05418 0.56361 0.43509 0.0
C278 C 0.04049 0.55633 0.4508 0.0
C279 C 0.11576 0.5747 0.43025 0.0
C280 C 0.09702 0.62547 0.4297 0.0
H281 H 0.91954 0.46146 0.41951 0.0
H282 H 0.92787 0.46468 0.48115 0.0
H283 H 0.95623 0.54501 0.47338 0.0
H284 H 1.00036 0.57088 0.478 0.0
H285 H 0.9757 0.53746 0.49127 0.0
H286 H 1.0036 0.47395 0.46934 0.0
H287 H 0.99145 0.48916 0.48869 0.0
H288 H 0.032 0.51497 0.48026 0.0
H289 H 0.9873 0.50124 0.3689 0.0
H290 H 0.09379 0.5787 0.37091 0.0
H291 H 0.09431 0.58661 0.40083 0.0
H292 H 0.99741 0.461 0.39911 0.0
H293 H 0.95681 0.45231 0.38937 0.0
H294 H 0.96147 0.4498 0.41133 0.0
H295 H 0.96229 0.54121 0.39691 0.0
H296 H 0.93712 0.51306 0.41124 0.0
H297 H 0.93558 0.49558 0.38973 0.0
H298 H 0.87198 0.42057 0.43352 0.0
C299 C 0.92233 0.46301 0.43282 0.0
C300 C 0.58062 0.96941 0.82129 0.0
C301 C 0.57643 0.93677 0.81289 0.0
C302 C 0.57081 0.93079 0.79545 0.0
C303 C 0.57379 0.98907 0.79475 0.0
C304 C 0.57879 0.99512 0.81194 0.0
C305 C 0.5808 0.03084 0.81849 0.0
H306 H 0.58516 0.18702 0.79971 0.0
C307 C 0.5734 0.02053 0.78854 0.0
C308 C 0.57734 0.04536 0.80234 0.0
H309 H 0.58839 0.15703 0.84905 0.0
H310 H 0.58392 0.09979 0.83696 0.0
H311 H 0.63408 0.15627 0.78314 0.0
H312 H 0.52491 0.11653 0.78575 0.0
H313 H 0.53117 0.10024 0.76586 0.0
H314 H 0.54864 0.14745 0.7715 0.0
H315 H 0.60919 0.17184 0.77151 0.0
H316 H 0.61647 0.13458 0.76329 0.0
C317 C 0.61613 0.05327 0.8277 0.0
C318 C 0.55014 0.0247 0.8296 0.0
C319 C 0.56247 0.02356 0.72588 0.0
C320 C 0.56147 0.04916 0.71628 0.0
C321 C 0.56422 0.08137 0.72444 0.0
C322 C 0.5678 0.08802 0.74184 0.0
C323 C 0.56862 0.06219 0.7513 0.0
C324 C 0.56592 0.0306 0.74332 0.0
C325 C 0.56689 0.00619 0.75546 0.0
C326 C 0.57067 0.02845 0.77204 0.0
C327 C 0.57179 0.06113 0.76947 0.0
C328 C 0.59901 0.99977 0.75217 0.0
C329 C 0.53223 0.97225 0.75341 0.0
C330 C 0.58525 0.1683 0.80795 0.0
C331 C 0.58772 0.17666 0.82529 0.0
C332 C 0.58672 0.15115 0.8356 0.0
C333 C 0.58413 0.11805 0.82856 0.0
C334 C 0.5819 0.11027 0.81105 0.0
C335 C 0.58214 0.13534 0.80119 0.0
C336 C 0.57808 0.12294 0.78295 0.0
C337 C 0.57569 0.08629 0.78326 0.0
C338 C 0.57821 0.07866 0.79969 0.0
C339 C 0.61092 0.14765 0.77464 0.0
C340 C 0.54415 0.12187 0.77601 0.0
H341 H 0.56535 0.95025 0.77312 0.0
H342 H 0.5846 0.97444 0.83474 0.0
H343 H 0.52644 1.00185 0.82396 0.0
H344 H 0.54385 0.04738 0.83095 0.0
H345 H 0.55521 0.0189 0.84219 0.0
H346 H 0.63694 0.05195 0.82006 0.0
H347 H 0.61747 0.04337 0.83981 0.0
H348 H 0.62212 0.08152 0.83007 0.0
H349 H 0.5601 0.99841 0.71998 0.0
H350 H 0.56403 0.10172 0.71733 0.0
H351 H 0.56989 0.11314 0.74721 0.0
H352 H 0.62101 0.0244 0.7491 0.0
H353 H 0.59387 0.97912 0.74149 0.0
H354 H 0.60845 0.99226 0.76313 0.0
H355 H 0.51108 0.97778 0.74879 0.0
H356 H 0.52351 0.96131 0.76537 0.0
H357 H 0.53372 0.95145 0.74437 0.0
H358 H 0.56766 0.90595 0.78877 0.0
C359 C 0.56957 0.95665 0.78637 0.0
C360 C 0.63909 0.48319 0.14718 0.0
C361 C 0.66902 0.48515 0.1392 0.0
C362 C 0.67221 0.49116 0.12235 0.0
C363 C 0.61706 0.49266 0.12122 0.0
C364 C 0.61314 0.48688 0.13783 0.0
C365 C 0.57864 0.48474 0.14339 0.0
H366 H 0.43099 0.49824 0.12026 0.0
C367 C 0.58648 0.49516 0.11463 0.0
C368 C 0.56329 0.49067 0.12744 0.0
H369 H 0.45316 0.47542 0.16859 0.0
H370 H 0.50778 0.47771 0.15907 0.0
H371 H 0.50505 0.55697 0.11455 0.0
H372 H 0.4513 0.44507 0.10036 0.0
H373 H 0.47628 0.46202 0.08345 0.0
H374 H 0.44387 0.47625 0.08947 0.0
H375 H 0.4709 0.53744 0.0987 0.0
H376 H 0.515 0.54995 0.09386 0.0
C377 C 0.58525 0.51446 0.15758 0.0
C378 C 0.55684 0.44758 0.14862 0.0
C379 C 0.58326 0.51668 0.05384 0.0
C380 C 0.5589 0.52023 0.04361 0.0
C381 C 0.52829 0.51801 0.05055 0.0
C382 C 0.52215 0.51252 0.06731 0.0
C383 C 0.54675 0.50899 0.07737 0.0
C384 C 0.57659 0.51103 0.07055 0.0
C385 C 0.59967 0.50639 0.08299 0.0
C386 C 0.57868 0.50108 0.09845 0.0
C387 C 0.54788 0.50276 0.09508 0.0
C388 C 0.63359 0.5412 0.08534 0.0
C389 C 0.60386 0.47271 0.07653 0.0
C390 C 0.44759 0.49411 0.12897 0.0
C391 C 0.43781 0.48731 0.14526 0.0
C392 C 0.46005 0.48094 0.15593 0.0
C393 C 0.49174 0.48234 0.15041 0.0
C394 C 0.50112 0.48956 0.13395 0.0
C395 C 0.47857 0.49484 0.12363 0.0
C396 C 0.49056 0.5006 0.10638 0.0
C397 C 0.52441 0.49871 0.10781 0.0
C398 C 0.5314 0.49243 0.12399 0.0
C399 C 0.49549 0.53801 0.10302 0.0
C400 C 0.46421 0.46968 0.09418 0.0
H401 H 0.6514 0.49944 0.10066 0.0
H402 H 0.63586 0.47843 0.16015 0.0
H403 H 0.55622 0.4269 0.13879 0.0
H404 H 0.52996 0.44255 0.15044 0.0
H405 H 0.56776 0.44407 0.16039 0.0
H406 H 0.60373 0.54043 0.15381 0.0
H407 H 0.59626 0.50968 0.16899 0.0
H408 H 0.56157 0.51679 0.16079 0.0
H409 H 0.60723 0.51862 0.04902 0.0
H410 H 0.50877 0.52005 0.04294 0.0
H411 H 0.49837 0.51119 0.07173 0.0
H412 H 0.62898 0.56456 0.08352 0.0
H413 H 0.65252 0.54056 0.07624 0.0
H414 H 0.64548 0.54715 0.09811 0.0
H415 H 0.58068 0.45303 0.06897 0.0
H416 H 0.60655 0.45822 0.0867 0.0
H417 H 0.62613 0.47921 0.06851 0.0
H418 H 0.6948 0.49292 0.11598 0.0
C419 C 0.64676 0.49496 0.11343 0.0
C420 C 0.13444 0.43274 0.16126 0.0
C421 C 0.12651 0.4601 0.15732 0.0
C422 C 0.16837 0.43683 0.16145 0.0
C423 C 0.26081 0.50476 0.16161 0.0
H424 H 0.27567 0.4222 0.14801 0.0
C425 C 0.3957 0.51381 0.14644 0.0
C426 C 0.40427 0.48681 0.15042 0.0
C427 C 0.36275 0.51149 0.14884 0.0
C428 C 0.27214 0.44551 0.15209 0.0
H429 H 0.14848 0.51333 0.1503 0.0
H430 H 0.20773 0.52057 0.15036 0.0
H431 H 0.21749 0.41676 0.14851 0.0
H432 H 0.38456 0.43648 0.16053 0.0
H433 H 0.32691 0.43235 0.16481 0.0
H434 H 0.3157 0.53359 0.16479 0.0
C435 C 0.18777 0.49599 0.15371 0.0
C436 C 0.23849 0.44241 0.15239 0.0
C437 C 0.15366 0.49192 0.15365 0.0
C438 C 0.37906 0.45789 0.15745 0.0
C439 C 0.34581 0.45536 0.1597 0.0
C440 C 0.29451 0.50789 0.16118 0.0
C441 C 0.19576 0.46837 0.1575 0.0
C442 C 0.23209 0.47196 0.15716 0.0
C443 C 0.33693 0.48191 0.15519 0.0
C444 C 0.3008 0.47833 0.15639 0.0
H445 H 0.11425 0.40789 0.16422 0.0
H446 H 0.17303 0.41511 0.16483 0.0
H447 H 0.25738 0.52813 0.16564 0.0
H448 H 0.4144 0.53652 0.14103 0.0
H449 H 0.35716 0.53239 0.14508 0.0
C450 C 0.68423 0.16376 0.50376 0.0
C451 C 0.65012 0.15536 0.49908 0.0
C452 C 0.71065 0.19684 0.50135 0.0
C453 C 0.73103 0.26817 0.47486 0.0
H454 H 0.80533 0.32362 0.50776 0.0
C455 C 0.83374 0.4044 0.46244 0.0
C456 C 0.86791 0.41192 0.46648 0.0
C457 C 0.80674 0.37568 0.46837 0.0
C458 C 0.7849 0.30831 0.4984 0.0
H459 H 0.61652 0.17495 0.4887 0.0
H460 H 0.66254 0.23253 0.48443 0.0
H461 H 0.75918 0.26768 0.5143 0.0
H462 H 0.90076 0.39623 0.48037 0.0
H463 H 0.85363 0.34553 0.49048 0.0
H464 H 0.75684 0.30788 0.45876 0.0
C465 C 0.66901 0.21358 0.4898 0.0
C466 C 0.7585 0.27632 0.50215 0.0
C467 C 0.64269 0.18068 0.49228 0.0
C468 C 0.87461 0.39114 0.47718 0.0
C469 C 0.84758 0.36213 0.48298 0.0
C470 C 0.75744 0.2999 0.47107 0.0
C471 C 0.70331 0.22188 0.49412 0.0
C472 C 0.73129 0.25598 0.49041 0.0
C473 C 0.81332 0.35355 0.4783 0.0
C474 C 0.78471 0.32043 0.48278 0.0
H475 H 0.69054 0.14464 0.50907 0.0
H476 H 0.73688 0.20245 0.50469 0.0
H477 H 0.71073 0.25275 0.46544 0.0
H478 H 0.82792 0.42035 0.45439 0.0
H479 H 0.78067 0.37039 0.46487 0.0
C480 C 0.58204 0.65774 0.83195 0.0
C481 C 0.61395 0.66004 0.83704 0.0
C482 C 0.57715 0.68823 0.83169 0.0
C483 C 0.61437 0.78419 0.84715 0.0
H484 H 0.55992 0.78676 0.80959 0.0
C485 C 0.60878 0.91214 0.82906 0.0
C486 C 0.57779 0.90817 0.82165 0.0
C487 C 0.61222 0.88247 0.83344 0.0
C488 C 0.57473 0.78638 0.82034 0.0
H489 H 0.66616 0.69609 0.84551 0.0
H490 H 0.65798 0.74975 0.84478 0.0
H491 H 0.56826 0.73427 0.81191 0.0
H492 H 0.52549 0.87086 0.81408 0.0
H493 H 0.53095 0.81941 0.82218 0.0
H494 H 0.62119 0.83683 0.85537 0.0
C495 C 0.63635 0.72425 0.84139 0.0
C496 C 0.57956 0.75616 0.82166 0.0
C497 C 0.64115 0.69357 0.84169 0.0
C498 C 0.54964 0.87457 0.81979 0.0
C499 C 0.55296 0.84508 0.82425 0.0
C500 C 0.60954 0.81459 0.84581 0.0
C501 C 0.6043 0.72198 0.83629 0.0
C502 C 0.59934 0.75452 0.83509 0.0
C503 C 0.58467 0.84835 0.83048 0.0
C504 C 0.58952 0.81601 0.8324 0.0
H505 H 0.56106 0.6324 0.82766 0.0
H506 H 0.55204 0.6853 0.8278 0.0
H507 H 0.62951 0.78377 0.85775 0.0
H508 H 0.63097 0.93773 0.83039 0.0
H509 H 0.63704 0.886 0.83816 0.0
C510 C 0.94699 0.47317 0.14908 0.0
C511 C 0.97314 0.50294 0.15825 0.0
C512 C 0.91266 0.46826 0.14888 0.0
C513 C 0.85327 0.50123 0.17068 0.0
H514 H 0.79679 0.45921 0.12985 0.0
C515 C 0.72378 0.50917 0.15725 0.0
C516 C 0.69772 0.48071 0.14735 0.0
C517 C 0.75585 0.50933 0.16047 0.0
C518 C 0.81189 0.47057 0.14148 0.0
H519 H 0.98334 0.5508 0.17443 0.0
H520 H 0.92429 0.54292 0.17377 0.0
H521 H 0.85475 0.46419 0.13142 0.0
H522 H 0.68472 0.4297 0.13351 0.0
H523 H 0.7398 0.42935 0.13946 0.0
H524 H 0.81043 0.50829 0.18054 0.0
C525 C 0.92977 0.52273 0.167 0.0
C526 C 0.84542 0.47341 0.1424 0.0
C527 C 0.96393 0.52745 0.16728 0.0
C528 C 0.70397 0.4517 0.14148 0.0
C529 C 0.7359 0.45185 0.14464 0.0
C530 C 0.81976 0.49858 0.16971 0.0
C531 C 0.90341 0.49314 0.15773 0.0
C532 C 0.86688 0.48892 0.15699 0.0
C533 C 0.76285 0.48118 0.1537 0.0
C534 C 0.79846 0.48323 0.15508 0.0
H535 H 0.95308 0.45379 0.14192 0.0
H536 H 0.89337 0.4448 0.14178 0.0
H537 H 0.8684 0.51277 0.18228 0.0
H538 H 0.72022 0.53238 0.16153 0.0
H539 H 0.77583 0.53253 0.16741 0.0
C540 C 0.41168 0.87238 0.50225 0.0
C541 C 0.41076 0.90479 0.50687 0.0
C542 C 0.38221 0.84059 0.50268 0.0
C543 C 0.29529 0.80008 0.51914 0.0
H544 H 0.27615 0.73278 0.47973 0.0
C545 C 0.16129 0.685 0.49938 0.0
C546 C 0.16027 0.65436 0.49044 0.0
C547 C 0.19287 0.7136 0.50453 0.0
C548 C 0.28133 0.75085 0.49101 0.0
H549 H 0.37888 0.92964 0.51606 0.0
H550 H 0.32703 0.87397 0.51659 0.0
H551 H 0.32942 0.7867 0.48257 0.0
H552 H 0.19064 0.62799 0.48105 0.0
H553 H 0.24571 0.67724 0.49055 0.0
H554 H 0.24662 0.76421 0.52738 0.0
C555 C 0.3506 0.87308 0.51281 0.0
C556 C 0.31191 0.78188 0.4926 0.0
C557 C 0.38016 0.90493 0.51239 0.0
C558 C 0.19095 0.65155 0.48786 0.0
C559 C 0.2224 0.67984 0.49316 0.0
C560 C 0.26458 0.76884 0.51756 0.0
C561 C 0.35119 0.84059 0.50771 0.0
C562 C 0.31921 0.80695 0.50663 0.0
C563 C 0.22381 0.71178 0.50089 0.0
C564 C 0.2572 0.74394 0.50342 0.0
H565 H 0.43508 0.87158 0.49809 0.0
H566 H 0.38362 0.81598 0.49892 0.0
H567 H 0.30036 0.8188 0.53016 0.0
H568 H 0.13784 0.68774 0.50136 0.0
H569 H 0.19303 0.73784 0.51038 0.0
C570 C 0.53929 0.44158 0.84888 0.0
C571 C 0.55988 0.46855 0.83934 0.0
C572 C 0.54464 0.41129 0.84942 0.0
C573 C 0.58389 0.36 0.82535 0.0
H574 H 0.5717 0.31203 0.86514 0.0
C575 C 0.61552 0.24237 0.82582 0.0
C576 C 0.59072 0.21196 0.83197 0.0
C577 C 0.61428 0.27485 0.82892 0.0
C578 C 0.575 0.32502 0.85391 0.0
H579 H 0.60234 0.48507 0.82307 0.0
H580 H 0.61258 0.43317 0.82437 0.0
H581 H 0.56469 0.36655 0.86611 0.0
H582 H 0.54635 0.19212 0.84702 0.0
H583 H 0.54405 0.24919 0.8525 0.0
H584 H 0.59404 0.31865 0.81311 0.0
C585 C 0.59181 0.43485 0.83122 0.0
C586 C 0.57092 0.35626 0.85444 0.0
C587 C 0.58627 0.46493 0.83061 0.0
C588 C 0.56595 0.21523 0.84226 0.0
C589 C 0.56461 0.24789 0.84533 0.0
C590 C 0.58809 0.32901 0.82485 0.0
C591 C 0.57078 0.40734 0.84045 0.0
C592 C 0.57538 0.37423 0.84015 0.0
C593 C 0.58805 0.27779 0.83817 0.0
C594 C 0.58384 0.31112 0.83911 0.0
H595 H 0.5187 0.44363 0.85574 0.0
H596 H 0.52768 0.39059 0.85651 0.0
H597 H 0.58669 0.37243 0.81397 0.0
H598 H 0.63504 0.24063 0.81794 0.0
H599 H 0.63327 0.29747 0.82357 0.0
C600 C 0.58771 0.95056 0.51106 0.0
C601 C 0.56351 0.95677 0.50207 0.0
C602 C 0.58624 0.91674 0.51005 0.0
C603 C 0.52794 0.82232 0.50111 0.0
H604 H 0.61265 0.81269 0.49782 0.0
C605 C 0.53032 0.68726 0.50542 0.0
C606 C 0.55642 0.68914 0.51638 0.0
C607 C 0.53135 0.71824 0.49995 0.0
C608 C 0.58874 0.81484 0.49881 0.0
H609 H 0.51927 0.93254 0.48463 0.0
H610 H 0.51596 0.87293 0.48328 0.0
H611 H 0.61344 0.87024 0.49611 0.0
H612 H 0.60489 0.72428 0.52944 0.0
H613 H 0.60686 0.7779 0.52003 0.0
H614 H 0.50344 0.76722 0.5045 0.0
C615 C 0.536 0.89432 0.49116 0.0
C616 C 0.58921 0.84787 0.49782 0.0
C617 C 0.53776 0.92838 0.49201 0.0
C618 C 0.58451 0.7221 0.52093 0.0
C619 C 0.58564 0.75286 0.51546 0.0
C620 C 0.5275 0.78924 0.50224 0.0
C621 C 0.56039 0.88818 0.50011 0.0
C622 C 0.55899 0.85222 0.49935 0.0
C623 C 0.55864 0.75158 0.50527 0.0
C624 C 0.55807 0.78525 0.50153 0.0
H625 H 0.60786 0.9719 0.51892 0.0
H626 H 0.60513 0.91284 0.51728 0.0
H627 H 0.50424 0.82482 0.5024 0.0
H628 H 0.50824 0.66219 0.50186 0.0
H629 H 0.51032 0.71619 0.49195 0.0
C630 C 0.69814 0.51603 0.80903 0.0
C631 C 0.69716 0.53265 0.82484 0.0
C632 C 0.72101 0.50117 0.80631 0.0
C633 C 0.77429 0.46918 0.82869 0.0
H634 H 0.82866 0.48865 0.78957 0.0
C635 C 0.91564 0.49068 0.81336 0.0
C636 C 0.91705 0.46353 0.82158 0.0
C637 C 0.88413 0.49006 0.8093 0.0
C638 C 0.81345 0.48271 0.80048 0.0
H639 H 0.71905 0.54701 0.85018 0.0
H640 H 0.75955 0.52163 0.8454 0.0
H641 H 0.78288 0.50725 0.79254 0.0
H642 H 0.88664 0.41243 0.8302 0.0
H643 H 0.83137 0.41122 0.823 0.0
H644 H 0.80606 0.44668 0.83717 0.0
C645 C 0.74229 0.5195 0.83517 0.0
C646 C 0.78711 0.49317 0.80213 0.0
C647 C 0.7194 0.53434 0.83788 0.0
C648 C 0.88629 0.43403 0.82414 0.0
C649 C 0.8547 0.43337 0.82005 0.0
C650 C 0.8006 0.4588 0.82705 0.0
C651 C 0.74323 0.50263 0.81937 0.0
C652 C 0.76803 0.48752 0.81652 0.0
C653 C 0.85337 0.46225 0.81337 0.0
C654 C 0.8212 0.46646 0.81319 0.0
H655 H 0.681 0.5142 0.7988 0.0
H656 H 0.72099 0.48814 0.79405 0.0
H657 H 0.75953 0.46384 0.83976 0.0
H658 H 0.93885 0.51396 0.81134 0.0
H659 H 0.88411 0.51289 0.8043 0.0
C660 C 0.15651 0.64389 0.13971 0.0
C661 C 0.1588 0.62046 0.15027 0.0
C662 C 0.18467 0.67647 0.1384 0.0
C663 C 0.27896 0.72562 0.14779 0.0
H664 H 0.2621 0.80857 0.14916 0.0
C665 C 0.39124 0.86521 0.15497 0.0
C666 C 0.38736 0.88838 0.16759 0.0
C667 C 0.36292 0.83391 0.14868 0.0
C668 C 0.26726 0.78567 0.14873 0.0
H669 H 0.19216 0.61226 0.1676 0.0
H670 H 0.24101 0.66928 0.16565 0.0
H671 H 0.21376 0.74996 0.14678 0.0
H672 H 0.3505 0.89847 0.18253 0.0
H673 H 0.30144 0.84384 0.1719 0.0
H674 H 0.33234 0.76134 0.15076 0.0
C675 C 0.21783 0.66242 0.1581 0.0
C676 C 0.23953 0.75201 0.14719 0.0
C677 C 0.18975 0.62987 0.15935 0.0
C678 C 0.35433 0.88083 0.17298 0.0
C679 C 0.32612 0.84966 0.16672 0.0
C680 C 0.30666 0.75926 0.14942 0.0
C681 C 0.21561 0.68622 0.14767 0.0
C682 C 0.24503 0.72163 0.14716 0.0
C683 C 0.3302 0.82529 0.15485 0.0
C684 C 0.30112 0.78974 0.15036 0.0
H685 H 0.13292 0.6371 0.1325 0.0
H686 H 0.1822 0.694 0.13013 0.0
H687 H 0.28412 0.70274 0.14748 0.0
H688 H 0.41641 0.87033 0.1506 0.0
H689 H 0.36683 0.81593 0.13936 0.0
C690 C 0.53471 0.12768 0.51264 0.0
C691 C 0.5085 0.09981 0.50262 0.0
C692 C 0.5397 0.1626 0.51224 0.0
C693 C 0.51778 0.22077 0.48744 0.0
H694 H 0.5424 0.28153 0.52931 0.0
C695 C 0.51372 0.35796 0.49811 0.0
C696 C 0.53942 0.38422 0.50906 0.0
C697 C 0.51188 0.32382 0.49535 0.0
C698 C 0.53597 0.26512 0.51745 0.0
H699 H 0.46672 0.08653 0.48441 0.0
H700 H 0.47468 0.14733 0.48403 0.0
H701 H 0.53495 0.22111 0.52876 0.0
H702 H 0.58478 0.39639 0.52464 0.0
H703 H 0.58203 0.33744 0.51961 0.0
H704 H 0.51818 0.26503 0.47627 0.0
C705 C 0.49201 0.14245 0.49192 0.0
C706 C 0.53173 0.23036 0.51713 0.0
C707 C 0.48722 0.10753 0.49224 0.0
C708 C 0.56454 0.37652 0.51624 0.0
C709 C 0.56277 0.34266 0.51347 0.0
C710 C 0.52185 0.25565 0.48779 0.0
C711 C 0.51826 0.1705 0.50197 0.0
C712 C 0.52274 0.20767 0.50212 0.0
C713 C 0.53572 0.31549 0.5035 0.0
C714 C 0.53124 0.27832 0.5028 0.0
H715 H 0.5514 0.12252 0.52084 0.0
H716 H 0.56053 0.18344 0.51996 0.0
H717 H 0.51119 0.20425 0.47561 0.0
H718 H 0.4939 0.36316 0.49255 0.0
H719 H 0.49071 0.30349 0.4876 0.0
C720 C 0.47192 0.61918 0.8457 0.0
C721 C 0.46661 0.58659 0.83707 0.0
C722 C 0.44707 0.63152 0.84465 0.0
C723 C 0.3799 0.63501 0.85052 0.0
H724 H 0.32309 0.61855 0.81039 0.0
C725 C 0.2325 0.5937 0.83593 0.0
C726 C 0.22716 0.61467 0.84914 0.0
C727 C 0.26561 0.60174 0.83095 0.0
C728 C 0.33888 0.62356 0.82167 0.0
H729 H 0.4319 0.5417 0.82025 0.0
H730 H 0.38784 0.56277 0.81875 0.0
H731 H 0.37479 0.60918 0.80878 0.0
H732 H 0.25149 0.66279 0.86612 0.0
H733 H 0.30951 0.67723 0.85725 0.0
H734 H 0.34335 0.64739 0.86362 0.0
C735 C 0.41144 0.57909 0.82609 0.0
C736 C 0.36837 0.61809 0.82075 0.0
C737 C 0.43639 0.5668 0.82711 0.0
C738 C 0.25506 0.64584 0.85611 0.0
C739 C 0.2882 0.65405 0.85104 0.0
C740 C 0.35045 0.64035 0.85144 0.0
C741 C 0.41641 0.61144 0.83498 0.0
C742 C 0.38849 0.62261 0.83528 0.0
C743 C 0.29399 0.63101 0.83905 0.0
C744 C 0.32893 0.63346 0.83715 0.0
H745 H 0.49533 0.6352 0.85325 0.0
H746 H 0.45176 0.65669 0.85149 0.0
H747 H 0.39467 0.6384 0.86196 0.0
H748 H 0.21151 0.56938 0.83038 0.0
H749 H 0.26906 0.58323 0.82177 0.0
C750 C 0.92015 0.32646 0.14992 0.0
C751 C 0.92957 0.36075 0.15782 0.0
C752 C 0.88791 0.29896 0.15235 0.0
C753 C 0.82089 0.27513 0.18293 0.0
H754 H 0.76074 0.20665 0.14756 0.0
C755 C 0.68176 0.18751 0.19476 0.0
C756 C 0.66924 0.15112 0.18981 0.0
C757 C 0.71248 0.21155 0.18895 0.0
C758 C 0.77745 0.22543 0.15756 0.0
H759 H 0.91248 0.39367 0.17378 0.0
H760 H 0.85658 0.34614 0.17788 0.0
H761 H 0.81745 0.25141 0.14107 0.0
H762 H 0.67786 0.11142 0.17412 0.0
H763 H 0.73208 0.15375 0.16392 0.0
H764 H 0.78131 0.24966 0.19942 0.0
C765 C 0.87408 0.34011 0.17012 0.0
C766 C 0.80986 0.25095 0.15386 0.0
C767 C 0.90607 0.36737 0.16772 0.0
C768 C 0.68698 0.13939 0.1781 0.0
C769 C 0.71796 0.16357 0.17229 0.0
C770 C 0.78872 0.24983 0.1866 0.0
C771 C 0.86483 0.30548 0.16273 0.0
C772 C 0.83159 0.27648 0.16649 0.0
C773 C 0.73151 0.19976 0.1781 0.0
C774 C 0.76634 0.22515 0.17394 0.0
H775 H 0.93786 0.3208 0.14217 0.0
H776 H 0.88145 0.27251 0.14652 0.0
H777 H 0.83739 0.29384 0.19301 0.0
H778 H 0.66822 0.19732 0.20352 0.0
H779 H 0.72182 0.23938 0.19331 0.0
C780 C 0.0742 0.50243 0.09411 0.0
C781 C 0.05073 0.47371 0.1019 0.0
C782 C 0.07251 0.50205 0.07683 0.0
C783 C 0.04135 0.44511 0.03734 0.0
H784 H 0.04408 0.52963 0.02116 0.0
C785 C 0.01941 0.45397 0.9674 0.0
C786 C 0.03995 0.48623 0.96118 0.0
C787 C 0.01987 0.45107 0.98451 0.0
C788 C 0.04374 0.506 0.02543 0.0
H789 H 1.00786 0.42143 0.09752 0.0
H790 H 1.00515 0.42079 0.06717 0.0
H791 H 0.04727 0.52656 0.05104 0.0
H792 H 0.07687 0.54081 0.96817 0.0
H793 H 0.07865 0.53539 -0.00219 0.0
H794 H 0.03848 0.42478 0.01171 0.0
C795 C 0.02476 0.44357 0.07456 0.0
C796 C 0.04546 0.50423 0.04256 0.0
C797 C 0.02626 0.44403 0.09192 0.0
C798 C 0.06104 0.51543 0.97247 0.0
C799 C 0.06168 0.51246 0.98953 0.0
C800 C 0.03993 0.44698 0.02016 0.0
C801 C 0.04748 0.47289 0.0669 0.0
C802 C 0.04456 0.47391 0.04869 0.0
C803 C 0.04097 0.48032 0.99578 0.0
C804 C 0.04138 0.4776 0.014 0.0
H805 H 0.09353 0.52569 0.10134 0.0
H806 H 0.09069 0.52478 0.07122 0.0
H807 H 0.04081 0.42151 0.04176 0.0
H808 H 1.00317 0.43083 0.95903 0.0
H809 H 1.00336 0.42601 0.9889 0.0
C810 C 0.49331 0.0045 0.44162 0.0
C811 C 0.52522 0.02281 0.45046 0.0
C812 C 0.49084 0.00441 0.42434 0.0
C813 C 0.53896 0.05193 0.38927 0.0
H814 H 0.47362 0.96773 0.36232 0.0
C815 C 0.53926 0.02939 0.31733 0.0
C816 C 0.50739 0.01766 0.30857 0.0
C817 C 0.5412 0.0311 0.33471 0.0
C818 C 0.49179 0.99149 0.36973 0.0
H819 H 0.57968 0.05489 0.44812 0.0
H820 H 0.57564 0.05365 0.41796 0.0
H821 H 0.47786 0.96793 0.39248 0.0
H822 H 0.45265 0.99936 0.31141 0.0
H823 H 0.45608 1.00127 0.34172 0.0
H824 H 0.55352 0.07492 0.36631 0.0
C825 C 0.55228 0.04023 0.42436 0.0
C826 C 0.49416 0.99172 0.38702 0.0
C827 C 0.55466 0.04075 0.44167 0.0
C828 C 0.47755 0.00784 0.31767 0.0
C829 C 0.47947 0.00907 0.33503 0.0
C830 C 0.53692 0.05148 0.37195 0.0
C831 C 0.52031 0.02221 0.41547 0.0
C832 C 0.51775 0.02197 0.39703 0.0
C833 C 0.5113 0.02066 0.34369 0.0
C834 C 0.51327 0.02129 0.36204 0.0
H835 H 0.4701 0.99072 0.44808 0.0
H836 H 0.4657 0.9908 0.41799 0.0
H837 H 0.55694 0.07595 0.39656 0.0
H838 H 0.56272 0.03653 0.31077 0.0
H839 H 0.56602 0.03978 0.34111 0.0
C840 C 0.54145 0.55187 0.77535 0.0
C841 C 0.57431 0.56451 0.78315 0.0
C842 C 0.53755 0.55098 0.7581 0.0
C843 C 0.57831 0.59171 0.72185 0.0
H844 H 0.52273 0.50073 0.69675 0.0
C845 C 0.57335 0.5716 0.64978 0.0
C846 C 0.54309 0.5458 0.64142 0.0
C847 C 0.57669 0.57554 0.6672 0.0
C848 C 0.53776 0.52653 0.70353 0.0
H849 H 0.62886 0.58703 0.77913 0.0
H850 H 0.62194 0.58635 0.7489 0.0
H851 H 0.52924 0.50503 0.72699 0.0
H852 H 0.49205 0.505 0.6444 0.0
H853 H 0.49692 0.51299 0.67481 0.0
H854 H 0.586 0.61366 0.69859 0.0
C855 C 0.59933 0.57679 0.75619 0.0
C856 C 0.54166 0.52884 0.72085 0.0
C857 C 0.60324 0.57698 0.77342 0.0
C858 C 0.51574 0.52487 0.65066 0.0
C859 C 0.51874 0.52929 0.66807 0.0
C860 C 0.57384 0.58959 0.70453 0.0
C861 C 0.56644 0.56341 0.7484 0.0
C862 C 0.56209 0.56137 0.73012 0.0
C863 C 0.54953 0.55417 0.67659 0.0
C864 C 0.55362 0.5569 0.69511 0.0
H865 H 0.51868 0.54196 0.78252 0.0
H866 H 0.51195 0.54064 0.75231 0.0
H867 H 0.59399 0.61714 0.72883 0.0
H868 H 0.59485 0.58781 0.64282 0.0
H869 H 0.60097 0.59459 0.67322 0.0
C870 C 0.56885 0.05818 0.56566 0.0
C871 C 0.54322 0.02948 0.55568 0.0
C872 C 0.57097 0.0579 0.58294 0.0
C873 C 0.51862 0.01761 0.61775 0.0
H874 H 0.60665 0.05224 0.64197 0.0
C875 C 0.57715 0.02831 0.68879 0.0
C876 C 0.55772 0.04268 0.69782 0.0
C877 C 0.57493 0.02419 0.67134 0.0
C878 C 0.58186 0.04216 0.63536 0.0
H879 H 0.50004 0.97774 0.55607 0.0
H880 H 0.50392 0.97735 0.58613 0.0
H881 H 0.60434 0.04995 0.61158 0.0
H882 H 0.51986 0.06278 0.69571 0.0
H883 H 0.51619 0.05587 0.66531 0.0
H884 H 0.49612 0.00973 0.64149 0.0
C885 C 0.52209 1.0002 0.58062 0.0
C886 C 0.58057 0.04124 0.61799 0.0
C887 C 0.52001 1.00042 0.56336 0.0
C888 C 0.53543 0.052 0.68908 0.0
C889 C 0.53308 0.04771 0.67167 0.0
C890 C 0.51992 0.01866 0.6351 0.0
C891 C 0.54749 0.02899 0.59061 0.0
C892 C 0.54894 0.02914 0.60901 0.0
C893 C 0.55304 0.03408 0.66261 0.0
C894 C 0.55157 0.03119 0.64411 0.0
H895 H 0.58714 0.08095 0.56016 0.0
H896 H 0.59061 0.08066 0.59034 0.0
H897 H 0.49388 0.00843 0.61121 0.0
H898 H 0.59469 0.02108 0.69521 0.0
H899 H 0.59038 0.0133 0.66469 0.0
C900 C 0.57567 0.57772 0.89755 0.0
C901 C 0.59146 0.56148 0.88693 0.0
C902 C 0.57468 0.57429 0.91457 0.0
C903 C 0.61281 0.54899 0.94906 0.0
H904 H 0.5273 0.53439 0.96936 0.0
C905 C 0.58071 0.50826 0.01595 0.0
C906 C 0.56516 0.52604 0.0258 0.0
C907 C 0.58569 0.51309 -0.00091 0.0
C908 C 0.55145 0.53877 0.96391 0.0
H909 H 0.61938 0.52959 0.88594 0.0
H910 H 0.61711 0.52304 0.91576 0.0
H911 H 0.53304 0.54179 0.93983 0.0
H912 H 0.54381 0.56382 0.02572 0.0
H913 H 0.55201 0.57176 0.99629 0.0
H914 H 0.63089 0.5454 0.97327 0.0
C915 C 0.6059 0.53886 0.9109 0.0
C916 C 0.5548 0.5431 0.94699 0.0
C917 C 0.60714 0.54254 0.89381 0.0
C918 C 0.55517 0.54912 0.01844 0.0
C919 C 0.55996 0.55376 0.00158 0.0
C920 C 0.60936 0.54442 0.96603 0.0
C921 C 0.58913 0.55424 0.92143 0.0
C922 C 0.58563 0.54865 0.93938 0.0
C923 C 0.57502 0.53561 0.9917 0.0
C924 C 0.57873 0.53961 0.97365 0.0
H925 H 0.56374 0.59291 0.89269 0.0
H926 H 0.56233 0.58724 0.92237 0.0
H927 H 0.63699 0.5535 0.94363 0.0
H928 H 0.58832 0.48996 0.02117 0.0
H929 H 0.59707 0.4985 0.99173 0.0
C930 C 0.07564 0.52912 0.21635 0.0
C931 C 0.05544 0.49616 0.20723 0.0
C932 C 0.07437 0.53358 0.2337 0.0
C933 C 0.05181 0.4853 0.27068 0.0
H934 H 0.0413 0.56699 0.2907 0.0
C935 C 0.02392 0.50054 0.34014 0.0
C936 C 0.04078 0.53448 0.34894 0.0
C937 C 0.02523 0.49573 0.32281 0.0
C938 C 0.04468 0.54427 0.28536 0.0
H939 H 0.01874 0.4418 0.20924 0.0
H940 H 0.0168 0.44963 0.23951 0.0
H941 H 0.04597 0.55899 0.26062 0.0
H942 H 0.07155 0.5901 0.34633 0.0
H943 H 0.07481 0.58158 0.31624 0.0
H944 H 0.05103 0.47076 0.29538 0.0
C945 C 0.03357 0.47197 0.23322 0.0
C946 C 0.04731 0.53969 0.26812 0.0
C947 C 0.03459 0.46757 0.21587 0.0
C948 C 0.05865 0.56353 0.33998 0.0
C949 C 0.06014 0.55869 0.32268 0.0
C950 C 0.04945 0.49 0.28794 0.0
C951 C 0.05315 0.50511 0.24229 0.0
C952 C 0.05087 0.51015 0.26061 0.0
C953 C 0.04358 0.52472 0.31388 0.0
C954 C 0.04581 0.51954 0.29549 0.0
H955 H 0.09196 0.55172 0.2101 0.0
H956 H 0.09003 0.55932 0.2404 0.0
H957 H 0.0549 0.46247 0.26523 0.0
H958 H 1.01021 0.47752 0.34665 0.0
H959 H 1.01177 0.46925 0.31641 0.0
loop_
_geom_bond_atom_site_label_1
_geom_bond_atom_site_label_2
_geom_bond_distance
_geom_bond_site_symmetry_2
_ccdc_geom_bond_type
Tb0 O3 2.453 1_455 S
Tb0 O4 2.596 1_455 S
Tb0 O5 2.374 . S
Tb0 O13 2.343 . S
Tb0 O15 2.353 . S
Tb0 O17 2.427 . S
Tb0 O18 2.513 . S
C1 O5 1.251 . S
C1 O7 1.263 . S
Tb2 O4 2.343 1_455 S
Tb2 O7 2.353 . S
Tb2 O10 2.427 1_455 S
Tb2 O11 2.513 1_455 S
Tb2 O12 2.453 . S
Tb2 O13 2.596 . S
Tb2 O14 2.374 . S
O3 Tb0 2.453 1_655 S
O3 C19 1.245 . S
O4 Tb0 2.596 1_655 S
O4 Tb2 2.343 1_655 S
O4 C19 1.259 . S
O5 Tb0 2.374 . S
O5 C1 1.251 . S
C6 O10 1.275 . S
C6 O11 1.246 . S
O7 C1 1.263 . S
O7 Tb2 2.353 . S
C8 O12 1.245 . S
C8 O13 1.259 . S
C9 O14 1.250 . S
C9 O15 1.263 . S
O10 Tb2 2.427 1_655 S
O10 C6 1.275 . S
O11 Tb2 2.513 1_655 S
O11 C6 1.246 . S
O12 Tb2 2.453 . S
O12 C8 1.245 . S
O13 Tb0 2.343 . S
O13 Tb2 2.596 . S
O13 C8 1.259 . S
O14 Tb2 2.374 . S
O14 C9 1.250 . S
O15 Tb0 2.353 . S
O15 C9 1.263 . S
C16 O17 1.275 . S
C16 O18 1.246 . S
O17 Tb0 2.427 . S
O17 C16 1.275 . S
O18 Tb0 2.513 . S
O18 C16 1.246 . S
C19 O3 1.245 . S
C19 O4 1.259 . S
Tb20 O23 2.453 . S
Tb20 O24 2.596 . S
Tb20 O25 2.374 . S
Tb20 O33 2.343 1_545 S
Tb20 O35 2.353 . S
Tb20 O37 2.427 1_545 S
Tb20 O38 2.513 1_545 S
C21 O25 1.251 . S
C21 O27 1.263 . S
Tb22 O24 2.343 . S
Tb22 O27 2.353 . S
Tb22 O30 2.427 . S
Tb22 O31 2.513 . S
Tb22 O32 2.453 1_545 S
Tb22 O33 2.596 1_545 S
Tb22 O34 2.374 . S
O23 Tb20 2.453 . S
O23 C39 1.245 . S
O24 Tb20 2.596 . S
O24 Tb22 2.343 . S
O24 C39 1.259 . S
O25 Tb20 2.374 . S
O25 C21 1.251 . S
C26 O30 1.275 . S
C26 O31 1.246 . S
O27 C21 1.263 . S
O27 Tb22 2.353 . S
C28 O32 1.245 . S
C28 O33 1.259 . S
C29 O34 1.250 . S
C29 O35 1.263 . S
O30 Tb22 2.427 . S
O30 C26 1.275 . S
O31 Tb22 2.513 . S
O31 C26 1.246 . S
O32 Tb22 2.453 1_565 S
O32 C28 1.245 . S
O33 Tb20 2.343 1_565 S
O33 Tb22 2.596 1_565 S
O33 C28 1.259 . S
O34 Tb22 2.374 . S
O34 C29 1.250 . S
O35 Tb20 2.353 . S
O35 C29 1.263 . S
C36 O37 1.275 . S
C36 O38 1.246 . S
O37 Tb20 2.427 1_565 S
O37 C36 1.275 . S
O38 Tb20 2.513 1_565 S
O38 C36 1.246 . S
C39 O23 1.245 . S
C39 O24 1.259 . S
Tb40 O43 2.453 . S
Tb40 O44 2.596 . S
Tb40 O45 2.374 . S
Tb40 O53 2.343 . S
Tb40 O55 2.353 . S
Tb40 O57 2.427 . S
Tb40 O58 2.513 . S
C41 O45 1.251 . S
C41 O47 1.263 . S
Tb42 O44 2.343 . S
Tb42 O47 2.353 . S
Tb42 O50 2.427 . S
Tb42 O51 2.513 . S
Tb42 O52 2.453 . S
Tb42 O53 2.596 . S
Tb42 O54 2.374 . S
O43 Tb40 2.453 . S
O43 C59 1.245 . S
O44 Tb40 2.596 . S
O44 Tb42 2.343 . S
O44 C59 1.259 . S
O45 Tb40 2.374 . S
O45 C41 1.251 . S
C46 O50 1.275 . S
C46 O51 1.246 . S
O47 C41 1.263 . S
O47 Tb42 2.353 . S
C48 O52 1.245 . S
C48 O53 1.259 . S
C49 O54 1.250 . S
C49 O55 1.263 . S
O50 Tb42 2.427 . S
O50 C46 1.275 . S
O51 Tb42 2.513 . S
O51 C46 1.246 . S
O52 Tb42 2.453 . S
O52 C48 1.245 . S
O53 Tb40 2.343 . S
O53 Tb42 2.596 . S
O53 C48 1.259 . S
O54 Tb42 2.374 . S
O54 C49 1.250 . S
O55 Tb40 2.353 . S
O55 C49 1.263 . S
C56 O57 1.275 . S
C56 O58 1.246 . S
O57 Tb40 2.427 . S
O57 C56 1.275 . S
O58 Tb40 2.513 . S
O58 C56 1.246 . S
C59 O43 1.245 . S
C59 O44 1.259 . S
C60 C61 1.391 . S
C60 C64 1.391 . S
C60 H102 0.948 . S
C61 C60 1.391 . S
C61 C62 1.391 . S
C62 C61 1.391 . S
C62 H118 0.947 . S
C62 C119 1.392 . S
C63 C64 1.391 . S
C63 C67 1.397 . S
C63 C119 1.419 . S
C64 C60 1.391 . S
C64 C63 1.391 . S
C64 C65 1.399 . S
C65 C64 1.399 . S
C65 C68 1.396 . S
C65 C77 1.453 . S
C65 C78 1.684 . S
H66 C90 0.948 . S
C67 C63 1.397 . S
C67 C68 1.394 . S
C67 C86 1.723 . S
C68 C65 1.396 . S
C68 C67 1.394 . S
C68 C98 1.723 . S
H69 C92 0.947 . S
H70 C93 0.948 . S
H71 C99 0.982 . S
H72 C100 0.979 . S
H73 C100 0.980 . S
H74 C100 0.983 . S
H75 C99 0.979 . S
H76 C99 0.977 . S
C77 C65 1.453 . S
C77 H106 0.982 . S
C77 H107 0.979 . S
C77 H108 0.977 . S
C78 C65 1.684 . S
C78 H103 0.979 . S
C78 H104 0.980 . S
C78 H105 0.983 . S
C79 C80 1.391 . S
C79 C84 1.391 . S
C79 H109 0.948 . S
C80 C79 1.391 . S
C80 C81 1.391 . S
C81 C80 1.391 . S
C81 C82 1.392 . S
C81 H110 0.947 . S
C82 C81 1.392 . S
C82 C83 1.419 . S
C82 H111 0.948 1_545 S
C83 C82 1.419 . S
C83 C84 1.391 . S
C83 C87 1.397 . S
C84 C79 1.391 . S
C84 C83 1.391 . S
C84 C85 1.399 . S
C85 C84 1.399 . S
C85 C86 1.396 . S
C85 C88 1.453 . S
C85 C89 1.684 . S
C86 C67 1.723 . S
C86 C85 1.396 . S
C86 C87 1.394 . S
C87 C83 1.397 . S
C87 C86 1.394 . S
C87 C97 1.723 . S
C88 C85 1.453 . S
C88 H112 0.982 . S
C88 H113 0.979 . S
C88 H114 0.977 . S
C89 C85 1.684 . S
C89 H115 0.979 . S
C89 H116 0.980 . S
C89 H117 0.983 . S
C90 H66 0.948 . S
C90 C91 1.391 . S
C90 C95 1.391 . S
C91 C90 1.391 . S
C91 C92 1.391 . S
C92 H69 0.947 . S
C92 C91 1.391 . S
C92 C93 1.392 . S
C93 H70 0.948 . S
C93 C92 1.392 . S
C93 C94 1.419 . S
C94 C93 1.419 . S
C94 C95 1.391 . S
C94 C98 1.397 1_565 S
C95 C90 1.391 . S
C95 C94 1.391 . S
C95 C96 1.399 . S
C96 C95 1.399 . S
C96 C97 1.396 1_565 S
C96 C99 1.453 . S
C96 C100 1.684 . S
C97 C87 1.723 . S
C97 C96 1.396 1_545 S
C97 C98 1.394 . S
C98 C68 1.723 . S
C98 C94 1.397 1_545 S
C98 C97 1.394 . S
C99 H71 0.982 . S
C99 H75 0.979 . S
C99 H76 0.977 . S
C99 C96 1.453 . S
C100 H72 0.979 . S
C100 H73 0.980 . S
C100 H74 0.983 . S
C100 C96 1.684 . S
H101 C119 0.948 . S
H102 C60 0.948 . S
H103 C78 0.979 . S
H104 C78 0.980 . S
H105 C78 0.983 . S
H106 C77 0.982 . S
H107 C77 0.979 . S
H108 C77 0.977 . S
H109 C79 0.948 . S
H110 C81 0.947 . S
H111 C82 0.948 1_565 S
H112 C88 0.982 . S
H113 C88 0.979 . S
H114 C88 0.977 . S
H115 C89 0.979 . S
H116 C89 0.980 . S
H117 C89 0.983 . S
H118 C62 0.947 . S
C119 C62 1.392 . S
C119 C63 1.419 . S
C119 H101 0.948 . S
C120 C121 1.391 . S
C120 C124 1.391 . S
C120 H162 0.948 . S
C121 C120 1.391 . S
C121 C122 1.391 . S
C122 C121 1.391 . S
C122 H178 0.947 . S
C122 C179 1.392 . S
C123 C124 1.391 . S
C123 C127 1.397 . S
C123 C179 1.419 . S
C124 C120 1.391 . S
C124 C123 1.391 . S
C124 C125 1.399 . S
C125 C124 1.399 . S
C125 C128 1.396 . S
C125 C137 1.453 . S
C125 C138 1.684 . S
H126 C150 0.948 . S
C127 C123 1.397 . S
C127 C128 1.394 . S
C127 C146 1.723 . S
C128 C125 1.396 . S
C128 C127 1.394 . S
C128 C158 1.723 . S
H129 C152 0.947 . S
H130 C153 0.948 . S
H131 C159 0.982 . S
H132 C160 0.979 . S
H133 C160 0.980 . S
H134 C160 0.983 . S
H135 C159 0.979 . S
H136 C159 0.977 . S
C137 C125 1.453 . S
C137 H166 0.982 . S
C137 H167 0.979 . S
C137 H168 0.977 . S
C138 C125 1.684 . S
C138 H163 0.979 . S
C138 H164 0.980 . S
C138 H165 0.983 . S
C139 C140 1.391 . S
C139 C144 1.391 . S
C139 H169 0.948 . S
C140 C139 1.391 . S
C140 C141 1.391 . S
C141 C140 1.391 . S
C141 C142 1.392 . S
C141 H170 0.947 . S
C142 C141 1.392 . S
C142 C143 1.419 . S
C142 H171 0.948 . S
C143 C142 1.419 . S
C143 C144 1.391 . S
C143 C147 1.397 . S
C144 C139 1.391 . S
C144 C143 1.391 . S
C144 C145 1.399 . S
C145 C144 1.399 . S
C145 C146 1.396 . S
C145 C148 1.453 . S
C145 C149 1.684 . S
C146 C127 1.723 . S
C146 C145 1.396 . S
C146 C147 1.394 . S
C147 C143 1.397 . S
C147 C146 1.394 . S
C147 C157 1.723 . S
C148 C145 1.453 . S
C148 H172 0.982 . S
C148 H173 0.979 . S
C148 H174 0.977 . S
C149 C145 1.684 . S
C149 H175 0.979 . S
C149 H176 0.980 . S
C149 H177 0.983 . S
C150 H126 0.948 . S
C150 C151 1.391 . S
C150 C155 1.391 . S
C151 C150 1.391 . S
C151 C152 1.391 . S
C152 H129 0.947 . S
C152 C151 1.391 . S
C152 C153 1.392 . S
C153 H130 0.948 . S
C153 C152 1.392 . S
C153 C154 1.419 . S
C154 C153 1.419 . S
C154 C155 1.391 . S
C154 C158 1.397 . S
C155 C150 1.391 . S
C155 C154 1.391 . S
C155 C156 1.399 . S
C156 C155 1.399 . S
C156 C157 1.396 . S
C156 C159 1.453 . S
C156 C160 1.684 . S
C157 C147 1.723 . S
C157 C156 1.396 . S
C157 C158 1.394 . S
C158 C128 1.723 . S
C158 C154 1.397 . S
C158 C157 1.394 . S
C159 H131 0.982 . S
C159 H135 0.979 . S
C159 H136 0.977 . S
C159 C156 1.453 . S
C160 H132 0.979 . S
C160 H133 0.980 . S
C160 H134 0.983 . S
C160 C156 1.684 . S
H161 C179 0.948 . S
H162 C120 0.948 . S
H163 C138 0.979 . S
H164 C138 0.980 . S
H165 C138 0.983 . S
H166 C137 0.982 . S
H167 C137 0.979 . S
H168 C137 0.977 . S
H169 C139 0.948 . S
H170 C141 0.947 . S
H171 C142 0.948 . S
H172 C148 0.982 . S
H173 C148 0.979 . S
H174 C148 0.977 . S
H175 C149 0.979 . S
H176 C149 0.980 . S
H177 C149 0.983 . S
H178 C122 0.947 . S
C179 C122 1.392 . S
C179 C123 1.419 . S
C179 H161 0.948 . S
C180 C181 1.391 . S
C180 C184 1.391 . S
C180 H222 0.948 . S
C181 C180 1.391 . S
C181 C182 1.391 . S
C182 C181 1.391 . S
C182 H238 0.947 . S
C182 C239 1.392 . S
C183 C184 1.391 . S
C183 C187 1.397 . S
C183 C239 1.419 . S
C184 C180 1.391 . S
C184 C183 1.391 . S
C184 C185 1.399 . S
C185 C184 1.399 . S
C185 C188 1.396 . S
C185 C197 1.453 . S
C185 C198 1.684 . S
H186 C210 0.948 . S
C187 C183 1.397 . S
C187 C188 1.394 . S
C187 C206 1.723 . S
C188 C185 1.396 . S
C188 C187 1.394 . S
C188 C218 1.723 . S
H189 C212 0.949 . S
H190 C213 0.948 . S
H191 C219 0.982 . S
H192 C220 0.979 . S
H193 C220 0.980 . S
H194 C220 0.983 1_655 S
H195 C219 0.979 . S
H196 C219 0.977 . S
C197 C185 1.453 . S
C197 H226 0.982 . S
C197 H227 0.979 . S
C197 H228 0.977 . S
C198 C185 1.684 . S
C198 H223 0.979 . S
C198 H224 0.980 . S
C198 H225 0.983 . S
C199 C200 1.391 . S
C199 C204 1.391 . S
C199 H229 0.948 . S
C200 C199 1.391 . S
C200 C201 1.391 . S
C201 C200 1.391 . S
C201 C202 1.392 . S
C201 H230 0.947 . S
C202 C201 1.392 . S
C202 C203 1.419 . S
C202 H231 0.948 . S
C203 C202 1.419 . S
C203 C204 1.391 . S
C203 C207 1.397 . S
C204 C199 1.391 . S
C204 C203 1.391 . S
C204 C205 1.399 . S
C205 C204 1.399 . S
C205 C206 1.396 . S
C205 C208 1.453 . S
C205 C209 1.684 . S
C206 C187 1.723 . S
C206 C205 1.396 . S
C206 C207 1.394 . S
C207 C203 1.397 . S
C207 C206 1.394 . S
C207 C217 1.723 . S
C208 C205 1.453 . S
C208 H232 0.982 . S
C208 H233 0.979 . S
C208 H234 0.977 . S
C209 C205 1.684 . S
C209 H235 0.979 . S
C209 H236 0.980 . S
C209 H237 0.983 . S
C210 H186 0.948 . S
C210 C211 1.391 . S
C210 C215 1.391 1_655 S
C211 C210 1.391 . S
C211 C212 1.413 . S
C212 H189 0.949 . S
C212 C211 1.413 . S
C212 C213 1.368 1_655 S
C213 H190 0.948 . S
C213 C212 1.368 1_455 S
C213 C214 1.419 . S
C214 C213 1.419 . S
C214 C215 1.391 . S
C214 C218 1.397 . S
C215 C210 1.391 1_455 S
C215 C214 1.391 . S
C215 C216 1.399 . S
C216 C215 1.399 . S
C216 C217 1.396 . S
C216 C219 1.453 1_455 S
C216 C220 1.684 . S
C217 C207 1.723 . S
C217 C216 1.396 . S
C217 C218 1.394 . S
C218 C188 1.723 . S
C218 C214 1.397 . S
C218 C217 1.394 . S
C219 H191 0.982 . S
C219 H195 0.979 . S
C219 H196 0.977 . S
C219 C216 1.453 1_655 S
C220 H192 0.979 . S
C220 H193 0.980 . S
C220 H194 0.983 1_455 S
C220 C216 1.684 . S
H221 C239 0.948 . S
H222 C180 0.948 . S
H223 C198 0.979 . S
H224 C198 0.980 . S
H225 C198 0.983 . S
H226 C197 0.982 . S
H227 C197 0.979 . S
H228 C197 0.977 . S
H229 C199 0.948 . S
H230 C201 0.947 . S
H231 C202 0.948 . S
H232 C208 0.982 . S
H233 C208 0.979 . S
H234 C208 0.977 . S
H235 C209 0.979 . S
H236 C209 0.980 . S
H237 C209 0.983 . S
H238 C182 0.947 . S
C239 C182 1.392 . S
C239 C183 1.419 . S
C239 H221 0.948 . S
C240 C241 1.391 . S
C240 C244 1.391 . S
C240 H282 0.948 . S
C241 C240 1.391 . S
C241 C242 1.391 . S
C242 C241 1.391 . S
C242 H298 0.947 . S
C242 C299 1.392 . S
C243 C244 1.391 . S
C243 C247 1.397 . S
C243 C299 1.419 . S
C244 C240 1.391 . S
C244 C243 1.391 . S
C244 C245 1.399 . S
C245 C244 1.399 . S
C245 C248 1.396 . S
C245 C257 1.453 . S
C245 C258 1.684 . S
H246 C270 0.948 . S
C247 C243 1.397 . S
C247 C248 1.394 . S
C247 C266 1.723 . S
C248 C245 1.396 . S
C248 C247 1.394 . S
C248 C278 1.723 1_655 S
H249 C272 0.947 . S
H250 C273 0.948 . S
H251 C279 0.982 . S
H252 C280 0.979 . S
H253 C280 0.980 . S
H254 C280 0.983 . S
H255 C279 0.979 . S
H256 C279 0.977 . S
C257 C245 1.453 . S
C257 H286 0.982 1_655 S
C257 H287 0.979 . S
C257 H288 0.977 1_655 S
C258 C245 1.684 . S
C258 H283 0.979 . S
C258 H284 0.980 . S
C258 H285 0.983 . S
C259 C260 1.391 1_655 S
C259 C264 1.391 . S
C259 H289 0.948 . S
C260 C259 1.391 1_455 S
C260 C261 1.391 . S
C261 C260 1.391 . S
C261 C262 1.392 . S
C261 H290 0.947 . S
C262 C261 1.392 . S
C262 C263 1.419 . S
C262 H291 0.948 . S
C263 C262 1.419 . S
C263 C264 1.391 1_455 S
C263 C267 1.397 . S
C264 C259 1.391 . S
C264 C263 1.391 1_655 S
C264 C265 1.399 . S
C265 C264 1.399 . S
C265 C266 1.396 . S
C265 C268 1.453 . S
C265 C269 1.684 . S
C266 C247 1.723 . S
C266 C265 1.396 . S
C266 C267 1.394 1_655 S
C267 C263 1.397 . S
C267 C266 1.394 1_455 S
C267 C277 1.723 . S
C268 C265 1.453 . S
C268 H292 0.982 . S
C268 H293 0.979 . S
C268 H294 0.977 . S
C269 C265 1.684 . S
C269 H295 0.979 . S
C269 H296 0.980 . S
C269 H297 0.983 . S
C270 H246 0.948 . S
C270 C271 1.391 . S
C270 C275 1.391 . S
C271 C270 1.391 . S
C271 C272 1.391 . S
C272 H249 0.947 . S
C272 C271 1.391 . S
C272 C273 1.392 . S
C273 H250 0.948 . S
C273 C272 1.392 . S
C273 C274 1.419 . S
C274 C273 1.419 . S
C274 C275 1.391 . S
C274 C278 1.397 . S
C275 C270 1.391 . S
C275 C274 1.391 . S
C275 C276 1.399 . S
C276 C275 1.399 . S
C276 C277 1.396 . S
C276 C279 1.453 . S
C276 C280 1.684 . S
C277 C267 1.723 . S
C277 C276 1.396 . S
C277 C278 1.394 . S
C278 C248 1.723 1_455 S
C278 C274 1.397 . S
C278 C277 1.394 . S
C279 H251 0.982 . S
C279 H255 0.979 . S
C279 H256 0.977 . S
C279 C276 1.453 . S
C280 H252 0.979 . S
C280 H253 0.980 . S
C280 H254 0.983 . S
C280 C276 1.684 . S
H281 C299 0.948 . S
H282 C240 0.948 . S
H283 C258 0.979 . S
H284 C258 0.980 . S
H285 C258 0.983 . S
H286 C257 0.982 1_455 S
H287 C257 0.979 . S
H288 C257 0.977 1_455 S
H289 C259 0.948 . S
H290 C261 0.947 . S
H291 C262 0.948 . S
H292 C268 0.982 . S
H293 C268 0.979 . S
H294 C268 0.977 . S
H295 C269 0.979 . S
H296 C269 0.980 . S
H297 C269 0.983 . S
H298 C242 0.947 . S
C299 C242 1.392 . S
C299 C243 1.419 . S
C299 H281 0.948 . S
C300 C301 1.391 . S
C300 C304 1.391 . S
C300 H342 0.948 . S
C301 C300 1.391 . S
C301 C302 1.391 . S
C302 C301 1.391 . S
C302 H358 0.947 . S
C302 C359 1.392 . S
C303 C304 1.391 . S
C303 C307 1.397 . S
C303 C359 1.419 . S
C304 C300 1.391 . S
C304 C303 1.391 . S
C304 C305 1.399 . S
C305 C304 1.399 . S
C305 C308 1.396 1_565 S
C305 C317 1.453 1_565 S
C305 C318 1.691 . S
H306 C330 0.948 . S
C307 C303 1.397 . S
C307 C308 1.394 1_565 S
C307 C326 1.723 . S
C308 C305 1.396 1_545 S
C308 C307 1.394 1_545 S
C308 C338 1.723 . S
H309 C332 0.947 . S
H310 C333 0.948 . S
H311 C339 0.982 . S
H312 C340 0.979 . S
H313 C340 0.980 . S
H314 C340 0.983 . S
H315 C339 0.979 . S
H316 C339 0.977 . S
C317 C305 1.453 1_545 S
C317 H346 0.982 . S
C317 H347 0.979 . S
C317 H348 0.977 . S
C318 C305 1.691 . S
C318 H343 0.982 . S
C318 H344 0.955 1_565 S
C318 H345 0.998 . S
C319 C320 1.391 1_565 S
C319 C324 1.391 . S
C319 H349 0.948 . S
C320 C319 1.391 1_545 S
C320 C321 1.391 . S
C321 C320 1.391 . S
C321 C322 1.392 . S
C321 H350 0.947 . S
C322 C321 1.392 . S
C322 C323 1.419 . S
C322 H351 0.948 . S
C323 C322 1.419 . S
C323 C324 1.391 1_545 S
C323 C327 1.397 . S
C324 C319 1.391 . S
C324 C323 1.391 1_565 S
C324 C325 1.399 . S
C325 C324 1.399 . S
C325 C326 1.396 . S
C325 C328 1.453 . S
C325 C329 1.684 . S
C326 C307 1.723 . S
C326 C325 1.396 . S
C326 C327 1.394 1_565 S
C327 C323 1.397 . S
C327 C326 1.394 1_545 S
C327 C337 1.723 . S
C328 C325 1.453 . S
C328 H352 0.982 . S
C328 H353 0.979 . S
C328 H354 0.977 . S
C329 C325 1.684 . S
C329 H355 0.979 . S
C329 H356 0.980 . S
C329 H357 0.983 . S
C330 H306 0.948 . S
C330 C331 1.391 . S
C330 C335 1.391 . S
C331 C330 1.391 . S
C331 C332 1.391 . S
C332 H309 0.947 . S
C332 C331 1.391 . S
C332 C333 1.392 . S
C333 H310 0.948 . S
C333 C332 1.392 . S
C333 C334 1.419 . S
C334 C333 1.419 . S
C334 C335 1.391 . S
C334 C338 1.397 . S
C335 C330 1.391 . S
C335 C334 1.391 . S
C335 C336 1.399 . S
C336 C335 1.399 . S
C336 C337 1.396 . S
C336 C339 1.453 . S
C336 C340 1.684 . S
C337 C327 1.723 . S
C337 C336 1.396 . S
C337 C338 1.394 . S
C338 C308 1.723 . S
C338 C334 1.397 . S
C338 C337 1.394 . S
C339 H311 0.982 . S
C339 H315 0.979 . S
C339 H316 0.977 . S
C339 C336 1.453 . S
C340 H312 0.979 . S
C340 H313 0.980 . S
C340 H314 0.983 . S
C340 C336 1.684 . S
H341 C359 0.948 . S
H342 C300 0.948 . S
H343 C318 0.982 . S
H344 C318 0.955 1_545 S
H345 C318 0.998 . S
H346 C317 0.982 . S
H347 C317 0.979 . S
H348 C317 0.977 . S
H349 C319 0.948 . S
H350 C321 0.947 . S
H351 C322 0.948 . S
H352 C328 0.982 . S
H353 C328 0.979 . S
H354 C328 0.977 . S
H355 C329 0.979 . S
H356 C329 0.980 . S
H357 C329 0.983 . S
H358 C302 0.947 . S
C359 C302 1.392 . S
C359 C303 1.419 . S
C359 H341 0.948 . S
C360 C361 1.391 . S
C360 C364 1.391 . S
C360 H402 0.948 . S
C361 C360 1.391 . S
C361 C362 1.391 . S
C362 C361 1.391 . S
C362 H418 0.947 . S
C362 C419 1.392 . S
C363 C364 1.391 . S
C363 C367 1.397 . S
C363 C419 1.419 . S
C364 C360 1.391 . S
C364 C363 1.391 . S
C364 C365 1.399 . S
C365 C364 1.399 . S
C365 C368 1.396 . S
C365 C377 1.453 . S
C365 C378 1.684 . S
H366 C390 0.948 . S
C367 C363 1.397 . S
C367 C368 1.394 . S
C367 C386 1.723 . S
C368 C365 1.396 . S
C368 C367 1.394 . S
C368 C398 1.723 . S
H369 C392 0.947 . S
H370 C393 0.948 . S
H371 C399 0.982 . S
H372 C400 0.979 . S
H373 C400 0.980 . S
H374 C400 0.983 . S
H375 C399 0.979 . S
H376 C399 0.977 . S
C377 C365 1.453 . S
C377 H406 0.982 . S
C377 H407 0.979 . S
C377 H408 0.977 . S
C378 C365 1.684 . S
C378 H403 0.979 . S
C378 H404 0.980 . S
C378 H405 0.983 . S
C379 C380 1.391 . S
C379 C384 1.391 . S
C379 H409 0.948 . S
C380 C379 1.391 . S
C380 C381 1.391 . S
C381 C380 1.391 . S
C381 C382 1.392 . S
C381 H410 0.947 . S
C382 C381 1.392 . S
C382 C383 1.419 . S
C382 H411 0.948 . S
C383 C382 1.419 . S
C383 C384 1.391 . S
C383 C387 1.397 . S
C384 C379 1.391 . S
C384 C383 1.391 . S
C384 C385 1.399 . S
C385 C384 1.399 . S
C385 C386 1.396 . S
C385 C388 1.453 . S
C385 C389 1.684 . S
C386 C367 1.723 . S
C386 C385 1.396 . S
C386 C387 1.394 . S
C387 C383 1.397 . S
C387 C386 1.394 . S
C387 C397 1.723 . S
C388 C385 1.453 . S
C388 H412 0.982 . S
C388 H413 0.979 . S
C388 H414 0.977 . S
C389 C385 1.684 . S
C389 H415 0.979 . S
C389 H416 0.980 . S
C389 H417 0.983 . S
C390 H366 0.948 . S
C390 C391 1.391 . S
C390 C395 1.391 . S
C391 C390 1.391 . S
C391 C392 1.391 . S
C392 H369 0.947 . S
C392 C391 1.391 . S
C392 C393 1.392 . S
C393 H370 0.948 . S
C393 C392 1.392 . S
C393 C394 1.419 . S
C394 C393 1.419 . S
C394 C395 1.391 . S
C394 C398 1.397 . S
C395 C390 1.391 . S
C395 C394 1.391 . S
C395 C396 1.399 . S
C396 C395 1.399 . S
C396 C397 1.396 . S
C396 C399 1.453 . S
C396 C400 1.684 . S
C397 C387 1.723 . S
C397 C396 1.396 . S
C397 C398 1.394 . S
C398 C368 1.723 . S
C398 C394 1.397 . S
C398 C397 1.394 . S
C399 H371 0.982 . S
C399 H375 0.979 . S
C399 H376 0.977 . S
C399 C396 1.453 . S
C400 H372 0.979 . S
C400 H373 0.980 . S
C400 H374 0.983 . S
C400 C396 1.684 . S
H401 C419 0.948 . S
H402 C360 0.948 . S
H403 C378 0.979 . S
H404 C378 0.980 . S
H405 C378 0.983 . S
H406 C377 0.982 . S
H407 C377 0.979 . S
H408 C377 0.977 . S
H409 C379 0.948 . S
H410 C381 0.947 . S
H411 C382 0.948 . S
H412 C388 0.982 . S
H413 C388 0.979 . S
H414 C388 0.977 . S
H415 C389 0.979 . S
H416 C389 0.980 . S
H417 C389 0.983 . S
H418 C362 0.947 . S
C419 C362 1.392 . S
C419 C363 1.419 . S
C419 H401 0.948 . S
C420 C421 1.349 . S
C420 C422 1.327 . S
C420 H445 0.950 . S
C421 C420 1.349 . S
C421 C437 1.349 . S
C422 C420 1.327 . S
C422 C441 1.429 . S
C422 H446 0.950 . S
C423 C440 1.574 . S
C423 C442 1.368 . S
C423 H447 0.949 . S
H424 C428 0.949 . S
C425 C426 1.349 . S
C425 C427 1.327 . S
C425 H448 0.950 . S
C426 C425 1.349 . S
C426 C438 1.349 . S
C427 C425 1.327 . S
C427 C443 1.429 . S
C427 H449 0.950 . S
C428 H424 0.949 . S
C428 C436 1.574 . S
C428 C444 1.368 . S
H429 C437 0.950 . S
H430 C435 0.950 . S
H431 C436 0.949 . S
H432 C438 0.950 . S
H433 C439 0.950 . S
H434 C440 0.949 . S
C435 H430 0.950 . S
C435 C437 1.327 . S
C435 C441 1.429 . S
C436 C428 1.574 . S
C436 H431 0.949 . S
C436 C442 1.368 . S
C437 C421 1.349 . S
C437 H429 0.950 . S
C437 C435 1.327 . S
C438 C426 1.349 . S
C438 H432 0.950 . S
C438 C439 1.327 . S
C439 H433 0.950 . S
C439 C438 1.327 . S
C439 C443 1.429 . S
C440 C423 1.574 . S
C440 H434 0.949 . S
C440 C444 1.368 . S
C441 C422 1.429 . S
C441 C435 1.429 . S
C441 C442 1.523 . S
C442 C423 1.368 . S
C442 C436 1.368 . S
C442 C441 1.523 . S
C443 C427 1.429 . S
C443 C439 1.429 . S
C443 C444 1.523 . S
C444 C428 1.368 . S
C444 C440 1.368 . S
C444 C443 1.523 . S
H445 C420 0.950 . S
H446 C422 0.950 . S
H447 C423 0.949 . S
H448 C425 0.950 . S
H449 C427 0.950 . S
C450 C451 1.349 . S
C450 C452 1.327 . S
C450 H475 0.950 . S
C451 C450 1.349 . S
C451 C467 1.349 . S
C452 C450 1.327 . S
C452 C471 1.429 . S
C452 H476 0.950 . S
C453 C470 1.574 . S
C453 C472 1.368 . S
C453 H477 0.949 . S
H454 C458 0.949 . S
C455 C456 1.349 . S
C455 C457 1.327 . S
C455 H478 0.950 . S
C456 C455 1.349 . S
C456 C468 1.349 . S
C457 C455 1.327 . S
C457 C473 1.429 . S
C457 H479 0.950 . S
C458 H454 0.949 . S
C458 C466 1.574 . S
C458 C474 1.368 . S
H459 C467 0.950 . S
H460 C465 0.950 . S
H461 C466 0.949 . S
H462 C468 0.950 . S
H463 C469 0.950 . S
H464 C470 0.949 . S
C465 H460 0.950 . S
C465 C467 1.327 . S
C465 C471 1.429 . S
C466 C458 1.574 . S
C466 H461 0.949 . S
C466 C472 1.368 . S
C467 C451 1.349 . S
C467 H459 0.950 . S
C467 C465 1.327 . S
C468 C456 1.349 . S
C468 H462 0.950 . S
C468 C469 1.327 . S
C469 H463 0.950 . S
C469 C468 1.327 . S
C469 C473 1.429 . S
C470 C453 1.574 . S
C470 H464 0.949 . S
C470 C474 1.368 . S
C471 C452 1.429 . S
C471 C465 1.429 . S
C471 C472 1.523 . S
C472 C453 1.368 . S
C472 C466 1.368 . S
C472 C471 1.523 . S
C473 C457 1.429 . S
C473 C469 1.429 . S
C473 C474 1.523 . S
C474 C458 1.368 . S
C474 C470 1.368 . S
C474 C473 1.523 . S
H475 C450 0.950 . S
H476 C452 0.950 . S
H477 C453 0.949 . S
H478 C455 0.950 . S
H479 C457 0.950 . S
C480 C481 1.349 . S
C480 C482 1.327 . S
C480 H505 0.950 . S
C481 C480 1.349 . S
C481 C497 1.349 . S
C482 C480 1.327 . S
C482 C501 1.429 . S
C482 H506 0.950 . S
C483 C500 1.574 . S
C483 C502 1.368 . S
C483 H507 0.949 . S
H484 C488 0.949 . S
C485 C486 1.349 . S
C485 C487 1.327 . S
C485 H508 0.950 . S
C486 C485 1.349 . S
C486 C498 1.349 . S
C487 C485 1.327 . S
C487 C503 1.429 . S
C487 H509 0.950 . S
C488 H484 0.949 . S
C488 C496 1.574 . S
C488 C504 1.368 . S
H489 C497 0.950 . S
H490 C495 0.950 . S
H491 C496 0.949 . S
H492 C498 0.950 . S
H493 C499 0.950 . S
H494 C500 0.949 . S
C495 H490 0.950 . S
C495 C497 1.327 . S
C495 C501 1.429 . S
C496 C488 1.574 . S
C496 H491 0.949 . S
C496 C502 1.368 . S
C497 C481 1.349 . S
C497 H489 0.950 . S
C497 C495 1.327 . S
C498 C486 1.349 . S
C498 H492 0.950 . S
C498 C499 1.327 . S
C499 H493 0.950 . S
C499 C498 1.327 . S
C499 C503 1.429 . S
C500 C483 1.574 . S
C500 H494 0.949 . S
C500 C504 1.368 . S
C501 C482 1.429 . S
C501 C495 1.429 . S
C501 C502 1.523 . S
C502 C483 1.368 . S
C502 C496 1.368 . S
C502 C501 1.523 . S
C503 C487 1.429 . S
C503 C499 1.429 . S
C503 C504 1.523 . S
C504 C488 1.368 . S
C504 C500 1.368 . S
C504 C503 1.523 . S
H505 C480 0.950 . S
H506 C482 0.950 . S
H507 C483 0.949 . S
H508 C485 0.950 . S
H509 C487 0.950 . S
C510 C511 1.349 . S
C510 C512 1.327 . S
C510 H535 0.950 . S
C511 C510 1.349 . S
C511 C527 1.349 . S
C512 C510 1.327 . S
C512 C531 1.429 . S
C512 H536 0.950 . S
C513 C530 1.574 . S
C513 C532 1.368 . S
C513 H537 0.949 . S
H514 C518 0.949 . S
C515 C516 1.349 . S
C515 C517 1.327 . S
C515 H538 0.950 . S
C516 C515 1.349 . S
C516 C528 1.349 . S
C517 C515 1.327 . S
C517 C533 1.429 . S
C517 H539 0.950 . S
C518 H514 0.949 . S
C518 C526 1.574 . S
C518 C534 1.368 . S
H519 C527 0.950 . S
H520 C525 0.950 . S
H521 C526 0.949 . S
H522 C528 0.950 . S
H523 C529 0.950 . S
H524 C530 0.949 . S
C525 H520 0.950 . S
C525 C527 1.327 . S
C525 C531 1.429 . S
C526 C518 1.574 . S
C526 H521 0.949 . S
C526 C532 1.368 . S
C527 C511 1.349 . S
C527 H519 0.950 . S
C527 C525 1.327 . S
C528 C516 1.349 . S
C528 H522 0.950 . S
C528 C529 1.327 . S
C529 H523 0.950 . S
C529 C528 1.327 . S
C529 C533 1.429 . S
C530 C513 1.574 . S
C530 H524 0.949 . S
C530 C534 1.368 . S
C531 C512 1.429 . S
C531 C525 1.429 . S
C531 C532 1.523 . S
C532 C513 1.368 . S
C532 C526 1.368 . S
C532 C531 1.523 . S
C533 C517 1.429 . S
C533 C529 1.429 . S
C533 C534 1.523 . S
C534 C518 1.368 . S
C534 C530 1.368 . S
C534 C533 1.523 . S
H535 C510 0.950 . S
H536 C512 0.950 . S
H537 C513 0.949 . S
H538 C515 0.950 . S
H539 C517 0.950 . S
C540 C541 1.349 . S
C540 C542 1.327 . S
C540 H565 0.950 . S
C541 C540 1.349 . S
C541 C557 1.349 . S
C542 C540 1.327 . S
C542 C561 1.429 . S
C542 H566 0.950 . S
C543 C560 1.574 . S
C543 C562 1.368 . S
C543 H567 0.949 . S
H544 C548 0.949 . S
C545 C546 1.349 . S
C545 C547 1.327 . S
C545 H568 0.950 . S
C546 C545 1.349 . S
C546 C558 1.349 . S
C547 C545 1.327 . S
C547 C563 1.429 . S
C547 H569 0.950 . S
C548 H544 0.949 . S
C548 C556 1.574 . S
C548 C564 1.368 . S
H549 C557 0.950 . S
H550 C555 0.950 . S
H551 C556 0.949 . S
H552 C558 0.950 . S
H553 C559 0.950 . S
H554 C560 0.949 . S
C555 H550 0.950 . S
C555 C557 1.327 . S
C555 C561 1.429 . S
C556 C548 1.574 . S
C556 H551 0.949 . S
C556 C562 1.368 . S
C557 C541 1.349 . S
C557 H549 0.950 . S
C557 C555 1.327 . S
C558 C546 1.349 . S
C558 H552 0.950 . S
C558 C559 1.327 . S
C559 H553 0.950 . S
C559 C558 1.327 . S
C559 C563 1.429 . S
C560 C543 1.574 . S
C560 H554 0.949 . S
C560 C564 1.368 . S
C561 C542 1.429 . S
C561 C555 1.429 . S
C561 C562 1.523 . S
C562 C543 1.368 . S
C562 C556 1.368 . S
C562 C561 1.523 . S
C563 C547 1.429 . S
C563 C559 1.429 . S
C563 C564 1.523 . S
C564 C548 1.368 . S
C564 C560 1.368 . S
C564 C563 1.523 . S
H565 C540 0.950 . S
H566 C542 0.950 . S
H567 C543 0.949 . S
H568 C545 0.950 . S
H569 C547 0.950 . S
C570 C571 1.349 . S
C570 C572 1.327 . S
C570 H595 0.950 . S
C571 C570 1.349 . S
C571 C587 1.349 . S
C572 C570 1.327 . S
C572 C591 1.429 . S
C572 H596 0.950 . S
C573 C590 1.574 . S
C573 C592 1.368 . S
C573 H597 0.949 . S
H574 C578 0.949 . S
C575 C576 1.349 . S
C575 C577 1.327 . S
C575 H598 0.950 . S
C576 C575 1.349 . S
C576 C588 1.349 . S
C577 C575 1.327 . S
C577 C593 1.429 . S
C577 H599 0.950 . S
C578 H574 0.949 . S
C578 C586 1.574 . S
C578 C594 1.368 . S
H579 C587 0.950 . S
H580 C585 0.950 . S
H581 C586 0.949 . S
H582 C588 0.950 . S
H583 C589 0.950 . S
H584 C590 0.949 . S
C585 H580 0.950 . S
C585 C587 1.327 . S
C585 C591 1.429 . S
C586 C578 1.574 . S
C586 H581 0.949 . S
C586 C592 1.368 . S
C587 C571 1.349 . S
C587 H579 0.950 . S
C587 C585 1.327 . S
C588 C576 1.349 . S
C588 H582 0.950 . S
C588 C589 1.327 . S
C589 H583 0.950 . S
C589 C588 1.327 . S
C589 C593 1.429 . S
C590 C573 1.574 . S
C590 H584 0.949 . S
C590 C594 1.368 . S
C591 C572 1.429 . S
C591 C585 1.429 . S
C591 C592 1.523 . S
C592 C573 1.368 . S
C592 C586 1.368 . S
C592 C591 1.523 . S
C593 C577 1.429 . S
C593 C589 1.429 . S
C593 C594 1.523 . S
C594 C578 1.368 . S
C594 C590 1.368 . S
C594 C593 1.523 . S
H595 C570 0.950 . S
H596 C572 0.950 . S
H597 C573 0.949 . S
H598 C575 0.950 . S
H599 C577 0.950 . S
C600 C601 1.349 . S
C600 C602 1.327 . S
C600 H625 0.950 . S
C601 C600 1.349 . S
C601 C617 1.349 . S
C602 C600 1.327 . S
C602 C621 1.429 . S
C602 H626 0.950 . S
C603 C620 1.574 . S
C603 C622 1.368 . S
C603 H627 0.949 . S
H604 C608 0.949 . S
C605 C606 1.349 . S
C605 C607 1.327 . S
C605 H628 0.950 . S
C606 C605 1.349 . S
C606 C618 1.349 . S
C607 C605 1.327 . S
C607 C623 1.429 . S
C607 H629 0.950 . S
C608 H604 0.949 . S
C608 C616 1.574 . S
C608 C624 1.368 . S
H609 C617 0.950 . S
H610 C615 0.950 . S
H611 C616 0.949 . S
H612 C618 0.950 . S
H613 C619 0.950 . S
H614 C620 0.949 . S
C615 H610 0.950 . S
C615 C617 1.327 . S
C615 C621 1.429 . S
C616 C608 1.574 . S
C616 H611 0.949 . S
C616 C622 1.368 . S
C617 C601 1.349 . S
C617 H609 0.950 . S
C617 C615 1.327 . S
C618 C606 1.349 . S
C618 H612 0.950 . S
C618 C619 1.327 . S
C619 H613 0.950 . S
C619 C618 1.327 . S
C619 C623 1.429 . S
C620 C603 1.574 . S
C620 H614 0.949 . S
C620 C624 1.368 . S
C621 C602 1.429 . S
C621 C615 1.429 . S
C621 C622 1.523 . S
C622 C603 1.368 . S
C622 C616 1.368 . S
C622 C621 1.523 . S
C623 C607 1.429 . S
C623 C619 1.429 . S
C623 C624 1.523 . S
C624 C608 1.368 . S
C624 C620 1.368 . S
C624 C623 1.523 . S
H625 C600 0.950 . S
H626 C602 0.950 . S
H627 C603 0.949 . S
H628 C605 0.950 . S
H629 C607 0.950 . S
C630 C631 1.349 . S
C630 C632 1.327 . S
C630 H655 0.950 . S
C631 C630 1.349 . S
C631 C647 1.349 . S
C632 C630 1.327 . S
C632 C651 1.429 . S
C632 H656 0.950 . S
C633 C650 1.574 . S
C633 C652 1.368 . S
C633 H657 0.949 . S
H634 C638 0.949 . S
C635 C636 1.349 . S
C635 C637 1.327 . S
C635 H658 0.950 . S
C636 C635 1.349 . S
C636 C648 1.349 . S
C637 C635 1.327 . S
C637 C653 1.429 . S
C637 H659 0.950 . S
C638 H634 0.949 . S
C638 C646 1.574 . S
C638 C654 1.368 . S
H639 C647 0.950 . S
H640 C645 0.950 . S
H641 C646 0.949 . S
H642 C648 0.950 . S
H643 C649 0.950 . S
H644 C650 0.949 . S
C645 H640 0.950 . S
C645 C647 1.327 . S
C645 C651 1.429 . S
C646 C638 1.574 . S
C646 H641 0.949 . S
C646 C652 1.368 . S
C647 C631 1.349 . S
C647 H639 0.950 . S
C647 C645 1.327 . S
C648 C636 1.349 . S
C648 H642 0.950 . S
C648 C649 1.327 . S
C649 H643 0.950 . S
C649 C648 1.327 . S
C649 C653 1.429 . S
C650 C633 1.574 . S
C650 H644 0.949 . S
C650 C654 1.368 . S
C651 C632 1.429 . S
C651 C645 1.429 . S
C651 C652 1.523 . S
C652 C633 1.368 . S
C652 C646 1.368 . S
C652 C651 1.523 . S
C653 C637 1.429 . S
C653 C649 1.429 . S
C653 C654 1.523 . S
C654 C638 1.368 . S
C654 C650 1.368 . S
C654 C653 1.523 . S
H655 C630 0.950 . S
H656 C632 0.950 . S
H657 C633 0.949 . S
H658 C635 0.950 . S
H659 C637 0.950 . S
C660 C661 1.349 . S
C660 C662 1.327 . S
C660 H685 0.950 . S
C661 C660 1.349 . S
C661 C677 1.349 . S
C662 C660 1.327 . S
C662 C681 1.429 . S
C662 H686 0.950 . S
C663 C680 1.574 . S
C663 C682 1.368 . S
C663 H687 0.949 . S
H664 C668 0.949 . S
C665 C666 1.349 . S
C665 C667 1.327 . S
C665 H688 0.950 . S
C666 C665 1.349 . S
C666 C678 1.349 . S
C667 C665 1.327 . S
C667 C683 1.429 . S
C667 H689 0.950 . S
C668 H664 0.949 . S
C668 C676 1.574 . S
C668 C684 1.368 . S
H669 C677 0.950 . S
H670 C675 0.950 . S
H671 C676 0.949 . S
H672 C678 0.950 . S
H673 C679 0.950 . S
H674 C680 0.949 . S
C675 H670 0.950 . S
C675 C677 1.327 . S
C675 C681 1.429 . S
C676 C668 1.574 . S
C676 H671 0.949 . S
C676 C682 1.368 . S
C677 C661 1.349 . S
C677 H669 0.950 . S
C677 C675 1.327 . S
C678 C666 1.349 . S
C678 H672 0.950 . S
C678 C679 1.327 . S
C679 H673 0.950 . S
C679 C678 1.327 . S
C679 C683 1.429 . S
C680 C663 1.574 . S
C680 H674 0.949 . S
C680 C684 1.368 . S
C681 C662 1.429 . S
C681 C675 1.429 . S
C681 C682 1.523 . S
C682 C663 1.368 . S
C682 C676 1.368 . S
C682 C681 1.523 . S
C683 C667 1.429 . S
C683 C679 1.429 . S
C683 C684 1.523 . S
C684 C668 1.368 . S
C684 C680 1.368 . S
C684 C683 1.523 . S
H685 C660 0.950 . S
H686 C662 0.950 . S
H687 C663 0.949 . S
H688 C665 0.950 . S
H689 C667 0.950 . S
C690 C691 1.349 . S
C690 C692 1.327 . S
C690 H715 0.950 . S
C691 C690 1.349 . S
C691 C707 1.349 . S
C692 C690 1.327 . S
C692 C711 1.429 . S
C692 H716 0.950 . S
C693 C710 1.574 . S
C693 C712 1.368 . S
C693 H717 0.949 . S
H694 C698 0.949 . S
C695 C696 1.349 . S
C695 C697 1.327 . S
C695 H718 0.950 . S
C696 C695 1.349 . S
C696 C708 1.349 . S
C697 C695 1.327 . S
C697 C713 1.429 . S
C697 H719 0.950 . S
C698 H694 0.949 . S
C698 C706 1.574 . S
C698 C714 1.368 . S
H699 C707 0.950 . S
H700 C705 0.950 . S
H701 C706 0.949 . S
H702 C708 0.950 . S
H703 C709 0.950 . S
H704 C710 0.949 . S
C705 H700 0.950 . S
C705 C707 1.327 . S
C705 C711 1.429 . S
C706 C698 1.574 . S
C706 H701 0.949 . S
C706 C712 1.368 . S
C707 C691 1.349 . S
C707 H699 0.950 . S
C707 C705 1.327 . S
C708 C696 1.349 . S
C708 H702 0.950 . S
C708 C709 1.327 . S
C709 H703 0.950 . S
C709 C708 1.327 . S
C709 C713 1.429 . S
C710 C693 1.574 . S
C710 H704 0.949 . S
C710 C714 1.368 . S
C711 C692 1.429 . S
C711 C705 1.429 . S
C711 C712 1.523 . S
C712 C693 1.368 . S
C712 C706 1.368 . S
C712 C711 1.523 . S
C713 C697 1.429 . S
C713 C709 1.429 . S
C713 C714 1.523 . S
C714 C698 1.368 . S
C714 C710 1.368 . S
C714 C713 1.523 . S
H715 C690 0.950 . S
H716 C692 0.950 . S
H717 C693 0.949 . S
H718 C695 0.950 . S
H719 C697 0.950 . S
C720 C721 1.349 . S
C720 C722 1.327 . S
C720 H745 0.950 . S
C721 C720 1.349 . S
C721 C737 1.349 . S
C722 C720 1.327 . S
C722 C741 1.429 . S
C722 H746 0.950 . S
C723 C740 1.574 . S
C723 C742 1.368 . S
C723 H747 0.949 . S
H724 C728 0.949 . S
C725 C726 1.349 . S
C725 C727 1.327 . S
C725 H748 0.950 . S
C726 C725 1.349 . S
C726 C738 1.349 . S
C727 C725 1.327 . S
C727 C743 1.429 . S
C727 H749 0.950 . S
C728 H724 0.949 . S
C728 C736 1.574 . S
C728 C744 1.368 . S
H729 C737 0.950 . S
H730 C735 0.950 . S
H731 C736 0.949 . S
H732 C738 0.950 . S
H733 C739 0.950 . S
H734 C740 0.949 . S
C735 H730 0.950 . S
C735 C737 1.327 . S
C735 C741 1.429 . S
C736 C728 1.574 . S
C736 H731 0.949 . S
C736 C742 1.368 . S
C737 C721 1.349 . S
C737 H729 0.950 . S
C737 C735 1.327 . S
C738 C726 1.349 . S
C738 H732 0.950 . S
C738 C739 1.327 . S
C739 H733 0.950 . S
C739 C738 1.327 . S
C739 C743 1.429 . S
C740 C723 1.574 . S
C740 H734 0.949 . S
C740 C744 1.368 . S
C741 C722 1.429 . S
C741 C735 1.429 . S
C741 C742 1.523 . S
C742 C723 1.368 . S
C742 C736 1.368 . S
C742 C741 1.523 . S
C743 C727 1.429 . S
C743 C739 1.429 . S
C743 C744 1.523 . S
C744 C728 1.368 . S
C744 C740 1.368 . S
C744 C743 1.523 . S
H745 C720 0.950 . S
H746 C722 0.950 . S
H747 C723 0.949 . S
H748 C725 0.950 . S
H749 C727 0.950 . S
C750 C751 1.349 . S
C750 C752 1.327 . S
C750 H775 0.950 . S
C751 C750 1.349 . S
C751 C767 1.349 . S
C752 C750 1.327 . S
C752 C771 1.429 . S
C752 H776 0.950 . S
C753 C770 1.574 . S
C753 C772 1.368 . S
C753 H777 0.949 . S
H754 C758 0.949 . S
C755 C756 1.349 . S
C755 C757 1.327 . S
C755 H778 0.950 . S
C756 C755 1.349 . S
C756 C768 1.349 . S
C757 C755 1.327 . S
C757 C773 1.429 . S
C757 H779 0.950 . S
C758 H754 0.949 . S
C758 C766 1.574 . S
C758 C774 1.368 . S
H759 C767 0.950 . S
H760 C765 0.950 . S
H761 C766 0.949 . S
H762 C768 0.950 . S
H763 C769 0.950 . S
H764 C770 0.949 . S
C765 H760 0.950 . S
C765 C767 1.327 . S
C765 C771 1.429 . S
C766 C758 1.574 . S
C766 H761 0.949 . S
C766 C772 1.368 . S
C767 C751 1.349 . S
C767 H759 0.950 . S
C767 C765 1.327 . S
C768 C756 1.349 . S
C768 H762 0.950 . S
C768 C769 1.327 . S
C769 H763 0.950 . S
C769 C768 1.327 . S
C769 C773 1.429 . S
C770 C753 1.574 . S
C770 H764 0.949 . S
C770 C774 1.368 . S
C771 C752 1.429 . S
C771 C765 1.429 . S
C771 C772 1.523 . S
C772 C753 1.368 . S
C772 C766 1.368 . S
C772 C771 1.523 . S
C773 C757 1.429 . S
C773 C769 1.429 . S
C773 C774 1.523 . S
C774 C758 1.368 . S
C774 C770 1.368 . S
C774 C773 1.523 . S
H775 C750 0.950 . S
H776 C752 0.950 . S
H777 C753 0.949 . S
H778 C755 0.950 . S
H779 C757 0.950 . S
C780 C781 1.349 . S
C780 C782 1.327 . S
C780 H805 0.950 . S
C781 C780 1.349 . S
C781 C797 1.349 . S
C782 C780 1.327 . S
C782 C801 1.429 . S
C782 H806 0.950 . S
C783 C800 1.574 . S
C783 C802 1.368 . S
C783 H807 0.949 . S
H784 C788 0.949 . S
C785 C786 1.349 . S
C785 C787 1.327 . S
C785 H808 0.950 . S
C786 C785 1.349 . S
C786 C798 1.349 . S
C787 C785 1.327 . S
C787 C803 1.429 1_556 S
C787 H809 0.961 . S
C788 H784 0.949 . S
C788 C796 1.574 . S
C788 C804 1.368 . S
H789 C797 0.950 . S
H790 C795 0.950 . S
H791 C796 0.949 . S
H792 C798 0.950 . S
H793 C799 0.950 . S
H794 C800 0.949 . S
C795 H790 0.950 . S
C795 C797 1.327 . S
C795 C801 1.429 . S
C796 C788 1.574 . S
C796 H791 0.949 . S
C796 C802 1.368 . S
C797 C781 1.349 . S
C797 H789 0.950 . S
C797 C795 1.327 . S
C798 C786 1.349 . S
C798 H792 0.950 . S
C798 C799 1.327 1_556 S
C799 H793 0.950 . S
C799 C798 1.327 1_554 S
C799 C803 1.429 . S
C800 C783 1.574 . S
C800 H794 0.949 . S
C800 C804 1.368 . S
C801 C782 1.429 . S
C801 C795 1.429 . S
C801 C802 1.523 . S
C802 C783 1.368 . S
C802 C796 1.368 . S
C802 C801 1.523 . S
C803 C787 1.429 1_554 S
C803 C799 1.429 . S
C803 C804 1.523 . S
C804 C788 1.368 . S
C804 C800 1.368 . S
C804 C803 1.523 . S
H805 C780 0.950 . S
H806 C782 0.950 . S
H807 C783 0.949 . S
H808 C785 0.950 . S
H809 C787 0.961 . S
C810 C811 1.349 . S
C810 C812 1.327 . S
C810 H835 0.950 . S
C811 C810 1.349 . S
C811 C827 1.349 . S
C812 C810 1.327 . S
C812 C831 1.429 . S
C812 H836 0.950 . S
C813 C830 1.574 . S
C813 C832 1.368 . S
C813 H837 0.949 . S
H814 C818 0.949 . S
C815 C816 1.349 . S
C815 C817 1.327 . S
C815 H838 0.950 . S
C816 C815 1.349 . S
C816 C828 1.349 . S
C817 C815 1.327 . S
C817 C833 1.429 . S
C817 H839 0.950 . S
C818 H814 0.949 . S
C818 C826 1.574 . S
C818 C834 1.368 . S
H819 C827 0.950 . S
H820 C825 0.950 . S
H821 C826 0.949 . S
H822 C828 0.950 . S
H823 C829 0.950 . S
H824 C830 0.949 . S
C825 H820 0.950 . S
C825 C827 1.327 . S
C825 C831 1.429 . S
C826 C818 1.574 . S
C826 H821 0.949 . S
C826 C832 1.368 . S
C827 C811 1.349 . S
C827 H819 0.950 . S
C827 C825 1.327 . S
C828 C816 1.349 . S
C828 H822 0.950 . S
C828 C829 1.327 . S
C829 H823 0.950 . S
C829 C828 1.327 . S
C829 C833 1.429 . S
C830 C813 1.574 . S
C830 H824 0.949 . S
C830 C834 1.368 . S
C831 C812 1.429 . S
C831 C825 1.429 . S
C831 C832 1.523 . S
C832 C813 1.368 . S
C832 C826 1.368 . S
C832 C831 1.523 . S
C833 C817 1.429 . S
C833 C829 1.429 . S
C833 C834 1.523 . S
C834 C818 1.368 . S
C834 C830 1.368 . S
C834 C833 1.523 . S
H835 C810 0.950 . S
H836 C812 0.950 . S
H837 C813 0.949 . S
H838 C815 0.950 . S
H839 C817 0.950 . S
C840 C841 1.349 . S
C840 C842 1.327 . S
C840 H865 0.950 . S
C841 C840 1.349 . S
C841 C857 1.349 . S
C842 C840 1.327 . S
C842 C861 1.429 . S
C842 H866 0.950 . S
C843 C860 1.574 . S
C843 C862 1.368 . S
C843 H867 0.949 . S
H844 C848 0.949 . S
C845 C846 1.349 . S
C845 C847 1.327 . S
C845 H868 0.950 . S
C846 C845 1.349 . S
C846 C858 1.349 . S
C847 C845 1.327 . S
C847 C863 1.429 . S
C847 H869 0.950 . S
C848 H844 0.949 . S
C848 C856 1.574 . S
C848 C864 1.368 . S
H849 C857 0.950 . S
H850 C855 0.950 . S
H851 C856 0.949 . S
H852 C858 0.950 . S
H853 C859 0.950 . S
H854 C860 0.949 . S
C855 H850 0.950 . S
C855 C857 1.327 . S
C855 C861 1.429 . S
C856 C848 1.574 . S
C856 H851 0.949 . S
C856 C862 1.368 . S
C857 C841 1.349 . S
C857 H849 0.950 . S
C857 C855 1.327 . S
C858 C846 1.349 . S
C858 H852 0.950 . S
C858 C859 1.327 . S
C859 H853 0.950 . S
C859 C858 1.327 . S
C859 C863 1.429 . S
C860 C843 1.574 . S
C860 H854 0.949 . S
C860 C864 1.368 . S
C861 C842 1.429 . S
C861 C855 1.429 . S
C861 C862 1.523 . S
C862 C843 1.368 . S
C862 C856 1.368 . S
C862 C861 1.523 . S
C863 C847 1.429 . S
C863 C859 1.429 . S
C863 C864 1.523 . S
C864 C848 1.368 . S
C864 C860 1.368 . S
C864 C863 1.523 . S
H865 C840 0.950 . S
H866 C842 0.950 . S
H867 C843 0.949 . S
H868 C845 0.950 . S
H869 C847 0.950 . S
C870 C871 1.349 . S
C870 C872 1.327 . S
C870 H895 0.950 . S
C871 C870 1.349 . S
C871 C887 1.338 1_545 S
C872 C870 1.327 . S
C872 C891 1.429 . S
C872 H896 0.950 . S
C873 C890 1.574 . S
C873 C892 1.368 1_565 S
C873 H897 0.949 . S
H874 C878 0.949 . S
C875 C876 1.349 1_565 S
C875 C877 1.327 . S
C875 H898 0.950 . S
C876 C875 1.349 1_545 S
C876 C888 1.349 . S
C877 C875 1.327 . S
C877 C893 1.429 1_565 S
C877 H899 0.950 . S
C878 H874 0.949 . S
C878 C886 1.574 . S
C878 C894 1.368 . S
H879 C887 0.958 . S
H880 C885 0.950 . S
H881 C886 0.949 . S
H882 C888 0.950 . S
H883 C889 0.950 . S
H884 C890 0.949 . S
C885 H880 0.950 . S
C885 C887 1.329 . S
C885 C891 1.429 1_565 S
C886 C878 1.574 . S
C886 H881 0.949 . S
C886 C892 1.368 . S
C887 C871 1.338 1_565 S
C887 H879 0.958 . S
C887 C885 1.329 . S
C888 C876 1.349 . S
C888 H882 0.950 . S
C888 C889 1.327 . S
C889 H883 0.950 . S
C889 C888 1.327 . S
C889 C893 1.429 . S
C890 C873 1.574 . S
C890 H884 0.949 . S
C890 C894 1.368 1_565 S
C891 C872 1.429 . S
C891 C885 1.429 1_545 S
C891 C892 1.523 . S
C892 C873 1.368 1_545 S
C892 C886 1.368 . S
C892 C891 1.523 . S
C893 C877 1.429 1_545 S
C893 C889 1.429 . S
C893 C894 1.523 . S
C894 C878 1.368 . S
C894 C890 1.368 1_545 S
C894 C893 1.523 . S
H895 C870 0.950 . S
H896 C872 0.950 . S
H897 C873 0.949 . S
H898 C875 0.950 . S
H899 C877 0.950 . S
C900 C901 1.349 . S
C900 C902 1.327 . S
C900 H925 0.950 . S
C901 C900 1.349 . S
C901 C917 1.349 . S
C902 C900 1.327 . S
C902 C921 1.429 . S
C902 H926 0.950 . S
C903 C920 1.574 . S
C903 C922 1.368 . S
C903 H927 0.949 . S
H904 C908 0.949 . S
C905 C906 1.349 . S
C905 C907 1.327 1_554 S
C905 H928 0.950 . S
C906 C905 1.349 . S
C906 C918 1.349 . S
C907 C905 1.327 1_556 S
C907 C923 1.429 . S
C907 H929 0.950 . S
C908 H904 0.949 . S
C908 C916 1.574 . S
C908 C924 1.368 . S
H909 C917 0.950 . S
H910 C915 0.950 . S
H911 C916 0.949 . S
H912 C918 0.950 . S
H913 C919 0.950 . S
H914 C920 0.949 . S
C915 H910 0.950 . S
C915 C917 1.327 . S
C915 C921 1.429 . S
C916 C908 1.574 . S
C916 H911 0.949 . S
C916 C922 1.368 . S
C917 C901 1.349 . S
C917 H909 0.950 . S
C917 C915 1.327 . S
C918 C906 1.349 . S
C918 H912 0.950 . S
C918 C919 1.327 1_554 S
C919 H913 0.950 . S
C919 C918 1.327 1_556 S
C919 C923 1.429 . S
C920 C903 1.574 . S
C920 H914 0.949 . S
C920 C924 1.368 . S
C921 C902 1.429 . S
C921 C915 1.429 . S
C921 C922 1.523 . S
C922 C903 1.368 . S
C922 C916 1.368 . S
C922 C921 1.523 . S
C923 C907 1.429 . S
C923 C919 1.429 . S
C923 C924 1.523 . S
C924 C908 1.368 . S
C924 C920 1.368 . S
C924 C923 1.523 . S
H925 C900 0.950 . S
H926 C902 0.950 . S
H927 C903 0.949 . S
H928 C905 0.950 . S
H929 C907 0.950 . S
C930 C931 1.349 . S
C930 C932 1.327 . S
C930 H955 0.950 . S
C931 C930 1.349 . S
C931 C947 1.349 . S
C932 C930 1.327 . S
C932 C951 1.429 . S
C932 H956 0.950 . S
C933 C950 1.574 . S
C933 C952 1.368 . S
C933 H957 0.949 . S
H934 C938 0.949 . S
C935 C936 1.353 . S
C935 C937 1.327 . S
C935 H958 0.950 . S
C936 C935 1.353 . S
C936 C948 1.346 1_455 S
C937 C935 1.327 . S
C937 C953 1.429 . S
C937 H959 0.950 . S
C938 H934 0.949 . S
C938 C946 1.574 . S
C938 C954 1.368 . S
H939 C947 0.950 . S
H940 C945 0.950 . S
H941 C946 0.949 . S
H942 C948 0.950 . S
H943 C949 0.952 . S
H944 C950 0.949 . S
C945 H940 0.950 . S
C945 C947 1.327 . S
C945 C951 1.429 . S
C946 C938 1.574 . S
C946 H941 0.949 . S
C946 C952 1.368 . S
C947 C931 1.349 . S
C947 H939 0.950 . S
C947 C945 1.327 . S
C948 C936 1.346 1_655 S
C948 H942 0.950 . S
C948 C949 1.328 . S
C949 H943 0.952 . S
C949 C948 1.328 . S
C949 C953 1.426 1_655 S
C950 C933 1.574 . S
C950 H944 0.949 . S
C950 C954 1.368 . S
C951 C932 1.429 . S
C951 C945 1.429 . S
C951 C952 1.523 . S
C952 C933 1.368 . S
C952 C946 1.368 . S
C952 C951 1.523 . S
C953 C937 1.429 . S
C953 C949 1.426 1_455 S
C953 C954 1.523 . S
C954 C938 1.368 . S
C954 C950 1.368 . S
C954 C953 1.523 . S
H955 C930 0.950 . S
H956 C932 0.950 . S
H957 C933 0.949 . S
H958 C935 0.950 . S
H959 C937 0.950 . S
C421 C8 1.993 . S
C426 C391 2.089 . S
C451 C26 1.278 . S
C456 C241 1.228 . S
C481 C48 1.440 . S
C486 C301 1.406 . S
C511 C19 1.733 . S
C516 C361 1.700 . S
C546 C271 1.526 . S
C541 C36 1.481 . S
C576 C331 1.767 . S
C571 C59 1.671 . S
C601 C28 1.464 . S
C606 C121 1.433 . S
C631 C46 1.206 . S
C636 C211 1.231 . S
C661 C16 1.566 . S
C666 C91 1.619 . S
C696 C151 1.714 . S
C691 C39 1.633 . S
C726 C181 0.932 . S
C721 C56 0.955 . S
C751 C6 1.314 . S
C756 C61 1.262 . S
C786 C200 1.409 . S
C781 C9 1.399 . S
C811 C21 1.492 . S
C816 C80 1.478 . S
C841 C49 1.472 . S
C846 C140 1.454 . S
C876 C320 1.430 . S
C871 C29 1.455 . S
C906 C380 1.572 . S
C901 C41 1.572 . S
C931 C1 1.496 . S
C936 C260 1.482 . S
