# Generated by pormake.
# Topology tbo, (3,4)-cn, num edge types: 1
# Building blocks:
#     Node 0, Type 0, BuildingBlock: BELTOD_clean_linker_0, # of connection points: 3
#     Node 1, Type 0, BuildingBlock: BELTOD_clean_linker_0, # of connection points: 3
#     Node 2, Type 0, BuildingBlock: BELTOD_clean_linker_0, # of connection points: 3
#     Node 3, Type 0, BuildingBlock: BELTOD_clean_linker_0, # of connection points: 3
#     Node 4, Type 0, BuildingBlock: BELTOD_clean_linker_0, # of connection points: 3
#     Node 5, Type 0, BuildingBlock: BELTOD_clean_linker_0, # of connection points: 3
#     Node 6, Type 0, BuildingBlock: BELTOD_clean_linker_0, # of connection points: 3
#     Node 7, Type 0, BuildingBlock: BELTOD_clean_linker_0, # of connection points: 3
#     Node 8, Type 0, BuildingBlock: BELTOD_clean_linker_0, # of connection points: 3
#     Node 9, Type 0, BuildingBlock: BELTOD_clean_linker_0, # of connection points: 3
#     Node 10, Type 0, BuildingBlock: BELTOD_clean_linker_0, # of connection points: 3
#     Node 11, Type 0, BuildingBlock: BELTOD_clean_linker_0, # of connection points: 3
#     Node 12, Type 0, BuildingBlock: BELTOD_clean_linker_0, # of connection points: 3
#     Node 13, Type 0, BuildingBlock: BELTOD_clean_linker_0, # of connection points: 3
#     Node 14, Type 0, BuildingBlock: BELTOD_clean_linker_0, # of connection points: 3
#     Node 15, Type 0, BuildingBlock: BELTOD_clean_linker_0, # of connection points: 3
#     Node 16, Type 0, BuildingBlock: BELTOD_clean_linker_0, # of connection points: 3
#     Node 17, Type 0, BuildingBlock: BELTOD_clean_linker_0, # of connection points: 3
#     Node 18, Type 0, BuildingBlock: BELTOD_clean_linker_0, # of connection points: 3
#     Node 19, Type 0, BuildingBlock: BELTOD_clean_linker_0, # of connection points: 3
#     Node 20, Type 0, BuildingBlock: BELTOD_clean_linker_0, # of connection points: 3
#     Node 21, Type 0, BuildingBlock: BELTOD_clean_linker_0, # of connection points: 3
#     Node 22, Type 0, BuildingBlock: BELTOD_clean_linker_0, # of connection points: 3
#     Node 23, Type 0, BuildingBlock: BELTOD_clean_linker_0, # of connection points: 3
#     Node 24, Type 0, BuildingBlock: BELTOD_clean_linker_0, # of connection points: 3
#     Node 25, Type 0, BuildingBlock: BELTOD_clean_linker_0, # of connection points: 3
#     Node 26, Type 0, BuildingBlock: BELTOD_clean_linker_0, # of connection points: 3
#     Node 27, Type 0, BuildingBlock: BELTOD_clean_linker_0, # of connection points: 3
#     Node 28, Type 0, BuildingBlock: BELTOD_clean_linker_0, # of connection points: 3
#     Node 29, Type 0, BuildingBlock: BELTOD_clean_linker_0, # of connection points: 3
#     Node 30, Type 0, BuildingBlock: BELTOD_clean_linker_0, # of connection points: 3
#     Node 31, Type 0, BuildingBlock: BELTOD_clean_linker_0, # of connection points: 3
#     Node 32, Type 1, BuildingBlock: ESEHIV_clean_sbu_0, # of connection points: 4
#     Node 33, Type 1, BuildingBlock: ESEHIV_clean_sbu_0, # of connection points: 4
#     Node 34, Type 1, BuildingBlock: ESEHIV_clean_sbu_0, # of connection points: 4
#     Node 35, Type 1, BuildingBlock: ESEHIV_clean_sbu_0, # of connection points: 4
#     Node 36, Type 1, BuildingBlock: ESEHIV_clean_sbu_0, # of connection points: 4
#     Node 37, Type 1, BuildingBlock: ESEHIV_clean_sbu_0, # of connection points: 4
#     Node 38, Type 1, BuildingBlock: ESEHIV_clean_sbu_0, # of connection points: 4
#     Node 39, Type 1, BuildingBlock: ESEHIV_clean_sbu_0, # of connection points: 4
#     Node 40, Type 1, BuildingBlock: ESEHIV_clean_sbu_0, # of connection points: 4
#     Node 41, Type 1, BuildingBlock: ESEHIV_clean_sbu_0, # of connection points: 4
#     Node 42, Type 1, BuildingBlock: ESEHIV_clean_sbu_0, # of connection points: 4
#     Node 43, Type 1, BuildingBlock: ESEHIV_clean_sbu_0, # of connection points: 4
#     Node 44, Type 1, BuildingBlock: ESEHIV_clean_sbu_0, # of connection points: 4
#     Node 45, Type 1, BuildingBlock: ESEHIV_clean_sbu_0, # of connection points: 4
#     Node 46, Type 1, BuildingBlock: ESEHIV_clean_sbu_0, # of connection points: 4
#     Node 47, Type 1, BuildingBlock: ESEHIV_clean_sbu_0, # of connection points: 4
#     Node 48, Type 1, BuildingBlock: ESEHIV_clean_sbu_0, # of connection points: 4
#     Node 49, Type 1, BuildingBlock: ESEHIV_clean_sbu_0, # of connection points: 4
#     Node 50, Type 1, BuildingBlock: ESEHIV_clean_sbu_0, # of connection points: 4
#     Node 51, Type 1, BuildingBlock: ESEHIV_clean_sbu_0, # of connection points: 4
#     Node 52, Type 1, BuildingBlock: ESEHIV_clean_sbu_0, # of connection points: 4
#     Node 53, Type 1, BuildingBlock: ESEHIV_clean_sbu_0, # of connection points: 4
#     Node 54, Type 1, BuildingBlock: ESEHIV_clean_sbu_0, # of connection points: 4
#     Node 55, Type 1, BuildingBlock: ESEHIV_clean_sbu_0, # of connection points: 4
#     Edge 56, Type (0, 1), BuildingBlock: EZIPEK_clean_linker_0, # of connection points: 2
#     Edge 57, Type (0, 1), BuildingBlock: EZIPEK_clean_linker_0, # of connection points: 2
#     Edge 58, Type (0, 1), BuildingBlock: EZIPEK_clean_linker_0, # of connection points: 2
#     Edge 59, Type (0, 1), BuildingBlock: EZIPEK_clean_linker_0, # of connection points: 2
#     Edge 60, Type (0, 1), BuildingBlock: EZIPEK_clean_linker_0, # of connection points: 2
#     Edge 61, Type (0, 1), BuildingBlock: EZIPEK_clean_linker_0, # of connection points: 2
#     Edge 62, Type (0, 1), BuildingBlock: EZIPEK_clean_linker_0, # of connection points: 2
#     Edge 63, Type (0, 1), BuildingBlock: EZIPEK_clean_linker_0, # of connection points: 2
#     Edge 64, Type (0, 1), BuildingBlock: EZIPEK_clean_linker_0, # of connection points: 2
#     Edge 65, Type (0, 1), BuildingBlock: EZIPEK_clean_linker_0, # of connection points: 2
#     Edge 66, Type (0, 1), BuildingBlock: EZIPEK_clean_linker_0, # of connection points: 2
#     Edge 67, Type (0, 1), BuildingBlock: EZIPEK_clean_linker_0, # of connection points: 2
#     Edge 68, Type (0, 1), BuildingBlock: EZIPEK_clean_linker_0, # of connection points: 2
#     Edge 69, Type (0, 1), BuildingBlock: EZIPEK_clean_linker_0, # of connection points: 2
#     Edge 70, Type (0, 1), BuildingBlock: EZIPEK_clean_linker_0, # of connection points: 2
#     Edge 71, Type (0, 1), BuildingBlock: EZIPEK_clean_linker_0, # of connection points: 2
#     Edge 72, Type (0, 1), BuildingBlock: EZIPEK_clean_linker_0, # of connection points: 2
#     Edge 73, Type (0, 1), BuildingBlock: EZIPEK_clean_linker_0, # of connection points: 2
#     Edge 74, Type (0, 1), BuildingBlock: EZIPEK_clean_linker_0, # of connection points: 2
#     Edge 75, Type (0, 1), BuildingBlock: EZIPEK_clean_linker_0, # of connection points: 2
#     Edge 76, Type (0, 1), BuildingBlock: EZIPEK_clean_linker_0, # of connection points: 2
#     Edge 77, Type (0, 1), BuildingBlock: EZIPEK_clean_linker_0, # of connection points: 2
#     Edge 78, Type (0, 1), BuildingBlock: EZIPEK_clean_linker_0, # of connection points: 2
#     Edge 79, Type (0, 1), BuildingBlock: EZIPEK_clean_linker_0, # of connection points: 2
#     Edge 80, Type (0, 1), BuildingBlock: EZIPEK_clean_linker_0, # of connection points: 2
#     Edge 81, Type (0, 1), BuildingBlock: EZIPEK_clean_linker_0, # of connection points: 2
#     Edge 82, Type (0, 1), BuildingBlock: EZIPEK_clean_linker_0, # of connection points: 2
#     Edge 83, Type (0, 1), BuildingBlock: EZIPEK_clean_linker_0, # of connection points: 2
#     Edge 84, Type (0, 1), BuildingBlock: EZIPEK_clean_linker_0, # of connection points: 2
#     Edge 85, Type (0, 1), BuildingBlock: EZIPEK_clean_linker_0, # of connection points: 2
#     Edge 86, Type (0, 1), BuildingBlock: EZIPEK_clean_linker_0, # of connection points: 2
#     Edge 87, Type (0, 1), BuildingBlock: EZIPEK_clean_linker_0, # of connection points: 2
#     Edge 88, Type (0, 1), BuildingBlock: EZIPEK_clean_linker_0, # of connection points: 2
#     Edge 89, Type (0, 1), BuildingBlock: EZIPEK_clean_linker_0, # of connection points: 2
#     Edge 90, Type (0, 1), BuildingBlock: EZIPEK_clean_linker_0, # of connection points: 2
#     Edge 91, Type (0, 1), BuildingBlock: EZIPEK_clean_linker_0, # of connection points: 2
#     Edge 92, Type (0, 1), BuildingBlock: EZIPEK_clean_linker_0, # of connection points: 2
#     Edge 93, Type (0, 1), BuildingBlock: EZIPEK_clean_linker_0, # of connection points: 2
#     Edge 94, Type (0, 1), BuildingBlock: EZIPEK_clean_linker_0, # of connection points: 2
#     Edge 95, Type (0, 1), BuildingBlock: EZIPEK_clean_linker_0, # of connection points: 2
#     Edge 96, Type (0, 1), BuildingBlock: EZIPEK_clean_linker_0, # of connection points: 2
#     Edge 97, Type (0, 1), BuildingBlock: EZIPEK_clean_linker_0, # of connection points: 2
#     Edge 98, Type (0, 1), BuildingBlock: EZIPEK_clean_linker_0, # of connection points: 2
#     Edge 99, Type (0, 1), BuildingBlock: EZIPEK_clean_linker_0, # of connection points: 2
#     Edge 100, Type (0, 1), BuildingBlock: EZIPEK_clean_linker_0, # of connection points: 2
#     Edge 101, Type (0, 1), BuildingBlock: EZIPEK_clean_linker_0, # of connection points: 2
#     Edge 102, Type (0, 1), BuildingBlock: EZIPEK_clean_linker_0, # of connection points: 2
#     Edge 103, Type (0, 1), BuildingBlock: EZIPEK_clean_linker_0, # of connection points: 2
#     Edge 104, Type (0, 1), BuildingBlock: EZIPEK_clean_linker_0, # of connection points: 2
#     Edge 105, Type (0, 1), BuildingBlock: EZIPEK_clean_linker_0, # of connection points: 2
#     Edge 106, Type (0, 1), BuildingBlock: EZIPEK_clean_linker_0, # of connection points: 2
#     Edge 107, Type (0, 1), BuildingBlock: EZIPEK_clean_linker_0, # of connection points: 2
#     Edge 108, Type (0, 1), BuildingBlock: EZIPEK_clean_linker_0, # of connection points: 2
#     Edge 109, Type (0, 1), BuildingBlock: EZIPEK_clean_linker_0, # of connection points: 2
#     Edge 110, Type (0, 1), BuildingBlock: EZIPEK_clean_linker_0, # of connection points: 2
#     Edge 111, Type (0, 1), BuildingBlock: EZIPEK_clean_linker_0, # of connection points: 2
#     Edge 112, Type (0, 1), BuildingBlock: EZIPEK_clean_linker_0, # of connection points: 2
#     Edge 113, Type (0, 1), BuildingBlock: EZIPEK_clean_linker_0, # of connection points: 2
#     Edge 114, Type (0, 1), BuildingBlock: EZIPEK_clean_linker_0, # of connection points: 2
#     Edge 115, Type (0, 1), BuildingBlock: EZIPEK_clean_linker_0, # of connection points: 2
#     Edge 116, Type (0, 1), BuildingBlock: EZIPEK_clean_linker_0, # of connection points: 2
#     Edge 117, Type (0, 1), BuildingBlock: EZIPEK_clean_linker_0, # of connection points: 2
#     Edge 118, Type (0, 1), BuildingBlock: EZIPEK_clean_linker_0, # of connection points: 2
#     Edge 119, Type (0, 1), BuildingBlock: EZIPEK_clean_linker_0, # of connection points: 2
#     Edge 120, Type (0, 1), BuildingBlock: EZIPEK_clean_linker_0, # of connection points: 2
#     Edge 121, Type (0, 1), BuildingBlock: EZIPEK_clean_linker_0, # of connection points: 2
#     Edge 122, Type (0, 1), BuildingBlock: EZIPEK_clean_linker_0, # of connection points: 2
#     Edge 123, Type (0, 1), BuildingBlock: EZIPEK_clean_linker_0, # of connection points: 2
#     Edge 124, Type (0, 1), BuildingBlock: EZIPEK_clean_linker_0, # of connection points: 2
#     Edge 125, Type (0, 1), BuildingBlock: EZIPEK_clean_linker_0, # of connection points: 2
#     Edge 126, Type (0, 1), BuildingBlock: EZIPEK_clean_linker_0, # of connection points: 2
#     Edge 127, Type (0, 1), BuildingBlock: EZIPEK_clean_linker_0, # of connection points: 2
#     Edge 128, Type (0, 1), BuildingBlock: EZIPEK_clean_linker_0, # of connection points: 2
#     Edge 129, Type (0, 1), BuildingBlock: EZIPEK_clean_linker_0, # of connection points: 2
#     Edge 130, Type (0, 1), BuildingBlock: EZIPEK_clean_linker_0, # of connection points: 2
#     Edge 131, Type (0, 1), BuildingBlock: EZIPEK_clean_linker_0, # of connection points: 2
#     Edge 132, Type (0, 1), BuildingBlock: EZIPEK_clean_linker_0, # of connection points: 2
#     Edge 133, Type (0, 1), BuildingBlock: EZIPEK_clean_linker_0, # of connection points: 2
#     Edge 134, Type (0, 1), BuildingBlock: EZIPEK_clean_linker_0, # of connection points: 2
#     Edge 135, Type (0, 1), BuildingBlock: EZIPEK_clean_linker_0, # of connection points: 2
#     Edge 136, Type (0, 1), BuildingBlock: EZIPEK_clean_linker_0, # of connection points: 2
#     Edge 137, Type (0, 1), BuildingBlock: EZIPEK_clean_linker_0, # of connection points: 2
#     Edge 138, Type (0, 1), BuildingBlock: EZIPEK_clean_linker_0, # of connection points: 2
#     Edge 139, Type (0, 1), BuildingBlock: EZIPEK_clean_linker_0, # of connection points: 2
#     Edge 140, Type (0, 1), BuildingBlock: EZIPEK_clean_linker_0, # of connection points: 2
#     Edge 141, Type (0, 1), BuildingBlock: EZIPEK_clean_linker_0, # of connection points: 2
#     Edge 142, Type (0, 1), BuildingBlock: EZIPEK_clean_linker_0, # of connection points: 2
#     Edge 143, Type (0, 1), BuildingBlock: EZIPEK_clean_linker_0, # of connection points: 2
#     Edge 144, Type (0, 1), BuildingBlock: EZIPEK_clean_linker_0, # of connection points: 2
#     Edge 145, Type (0, 1), BuildingBlock: EZIPEK_clean_linker_0, # of connection points: 2
#     Edge 146, Type (0, 1), BuildingBlock: EZIPEK_clean_linker_0, # of connection points: 2
#     Edge 147, Type (0, 1), BuildingBlock: EZIPEK_clean_linker_0, # of connection points: 2
#     Edge 148, Type (0, 1), BuildingBlock: EZIPEK_clean_linker_0, # of connection points: 2
#     Edge 149, Type (0, 1), BuildingBlock: EZIPEK_clean_linker_0, # of connection points: 2
#     Edge 150, Type (0, 1), BuildingBlock: EZIPEK_clean_linker_0, # of connection points: 2
#     Edge 151, Type (0, 1), BuildingBlock: EZIPEK_clean_linker_0, # of connection points: 2
# Relax obj value: 0.004
# Max RMSD: 0.126
# Mean RMSD: 0.052
data_MOF--net-tbo--node1-ESEHIV_clean_sbu_0--node2-BELTOD_clean_linker_0--edge1-EZIPEK_clean_linker_0
_symmetry_space_group_name_H-M    P1
_symmetry_Int_Tables_number       1
_symmetry_cell_setting            triclinic
loop_
_symmetry_equiv_pos_as_xyz
'x, y, z'
_cell_length_a     64.803251
_cell_length_b     65.433543
_cell_length_c     63.942688
_cell_angle_alpha  90.052266
_cell_angle_beta   92.901284
_cell_angle_gamma 90.9691
loop_
_atom_site_label
_atom_site_type_symbol
_atom_site_fract_x
_atom_site_fract_y
_atom_site_fract_z
_atom_type_partial_charge
P0 P 0.19449 0.19264 0.19847 0.0
H1 H 0.17128 0.20837 0.23245 0.0
H2 H 0.13712 0.22376 0.23381 0.0
H3 H 0.12705 0.21498 0.16722 0.0
H4 H 0.16138 0.1995 0.16582 0.0
H5 H 0.22798 0.16732 0.21456 0.0
H6 H 0.22947 0.13193 0.22708 0.0
H7 H 0.16355 0.12529 0.21569 0.0
H8 H 0.16204 0.16074 0.20285 0.0
H9 H 0.2107 0.16257 0.16903 0.0
H10 H 0.20295 0.22785 0.17234 0.0
O11 O 0.20976 0.20651 0.21503 0.0
H12 H 0.22996 0.16688 0.13724 0.0
H13 H 0.22204 0.23207 0.14034 0.0
C14 C 0.16899 0.20316 0.19899 0.0
C15 C 0.16177 0.20976 0.21812 0.0
C16 C 0.1423 0.21849 0.21892 0.0
C17 C 0.12968 0.22059 0.20061 0.0
C18 C 0.13666 0.21354 0.18148 0.0
C19 C 0.15621 0.20478 0.1807 0.0
C20 C 0.19491 0.1667 0.20796 0.0
C21 C 0.21381 0.15833 0.21487 0.0
C22 C 0.21467 0.13819 0.22202 0.0
C23 C 0.19661 0.12613 0.22244 0.0
C24 C 0.17761 0.13448 0.21563 0.0
C25 C 0.17678 0.15465 0.20828 0.0
C26 C 0.20541 0.19493 0.17313 0.0
C27 C 0.21283 0.17779 0.16282 0.0
C28 C 0.22382 0.1802 0.14465 0.0
C29 C 0.22746 0.19979 0.13652 0.0
C30 C 0.21937 0.21684 0.14639 0.0
C31 C 0.20845 0.21442 0.16457 0.0
P32 P 0.86681 0.15302 0.17653 0.0
H33 H 0.91087 0.15972 0.17068 0.0
H34 H 0.9379 0.17922 0.1905 0.0
H35 H 0.89335 0.19831 0.23408 0.0
H36 H 0.8661 0.1787 0.21415 0.0
H37 H 0.87848 0.13323 0.21607 0.0
H38 H 0.86173 0.10667 0.23644 0.0
H39 H 0.80747 0.10937 0.19477 0.0
H40 H 0.82427 0.13621 0.17425 0.0
H41 H 0.8669 0.16224 0.13193 0.0
H42 H 0.83464 0.18287 0.1852 0.0
O43 O 0.87842 0.13679 0.16095 0.0
H44 H 0.84916 0.18761 0.10984 0.0
H45 H 0.81687 0.2086 0.16289 0.0
C46 C 0.88653 0.16759 0.1911 0.0
C47 C 0.90685 0.16799 0.18453 0.0
C48 C 0.92229 0.17907 0.19583 0.0
C49 C 0.9176 0.19004 0.21378 0.0
C50 C 0.89723 0.18981 0.22032 0.0
C51 C 0.88175 0.17871 0.20895 0.0
C52 C 0.8524 0.1372 0.19396 0.0
C53 C 0.86272 0.12869 0.21164 0.0
C54 C 0.85325 0.1134 0.22322 0.0
C55 C 0.83336 0.10615 0.21716 0.0
C56 C 0.82276 0.11494 0.19978 0.0
C57 C 0.83229 0.13031 0.18817 0.0
C58 C 0.85179 0.17037 0.16017 0.0
C59 C 0.85576 0.172 0.13885 0.0
C60 C 0.84573 0.18656 0.12621 0.0
C61 C 0.83166 0.19993 0.13468 0.0
C62 C 0.8276 0.19834 0.15604 0.0
C63 C 0.83765 0.18365 0.16871 0.0
P64 P 0.85434 0.86501 0.15491 0.0
H65 H 0.86323 0.89298 0.18973 0.0
H66 H 0.84141 0.91521 0.20992 0.0
H67 H 0.78701 0.88969 0.1775 0.0
H68 H 0.80881 0.86738 0.15728 0.0
H69 H 0.88988 0.84419 0.14018 0.0
H70 H 0.91582 0.82191 0.157 0.0
H71 H 0.8855 0.82645 0.21526 0.0
H72 H 0.85924 0.84865 0.19829 0.0
H73 H 0.8321 0.87895 0.11698 0.0
H74 H 0.84549 0.82113 0.14662 0.0
O75 O 0.86833 0.8831 0.14355 0.0
H76 H 0.81514 0.8609 0.08694 0.0
H77 H 0.82881 0.8031 0.11638 0.0
C78 C 0.83772 0.87837 0.1721 0.0
C79 C 0.8466 0.89187 0.18721 0.0
C80 C 0.83417 0.90464 0.19864 0.0
C81 C 0.8126 0.90416 0.19515 0.0
C82 C 0.80362 0.89029 0.18042 0.0
C83 C 0.81609 0.8775 0.16895 0.0
C84 C 0.87275 0.84824 0.168 0.0
C85 C 0.88875 0.84039 0.15657 0.0
C86 C 0.90353 0.82767 0.16613 0.0
C87 C 0.90261 0.82256 0.18736 0.0
C88 C 0.88646 0.83022 0.19885 0.0
C89 C 0.87154 0.84292 0.18918 0.0
C90 C 0.84023 0.85141 0.13395 0.0
C91 C 0.83135 0.8624 0.11706 0.0
C92 C 0.82176 0.85213 0.09991 0.0
C93 C 0.8209 0.83068 0.09937 0.0
C94 C 0.82944 0.81966 0.11646 0.0
C95 C 0.83891 0.82996 0.13371 0.0
P96 P 0.14311 0.86454 0.16762 0.0
H97 H 0.18085 0.88132 0.15079 0.0
H98 H 0.20446 0.90926 0.16215 0.0
H99 H 0.17033 0.91731 0.21759 0.0
H100 H 0.14666 0.88925 0.20629 0.0
H101 H 0.12522 0.83976 0.13338 0.0
H102 H 0.13935 0.81377 0.11072 0.0
H103 H 0.19823 0.81913 0.14502 0.0
H104 H 0.18382 0.84459 0.16829 0.0
H105 H 0.10021 0.85116 0.16501 0.0
H106 H 0.15113 0.84981 0.21109 0.0
O107 O 0.12763 0.87825 0.15164 0.0
H108 H 0.07861 0.83196 0.18859 0.0
H109 H 0.1291 0.83099 0.23516 0.0
C110 C 0.16251 0.88246 0.17815 0.0
C111 C 0.17882 0.88855 0.16576 0.0
C112 C 0.1922 0.90462 0.17212 0.0
C113 C 0.18925 0.91518 0.19079 0.0
C114 C 0.173 0.90913 0.20326 0.0
C115 C 0.15962 0.893 0.19689 0.0
C116 C 0.15368 0.84462 0.15205 0.0
C117 C 0.14115 0.8353 0.13612 0.0
C118 C 0.14916 0.82044 0.12324 0.0
C119 C 0.1699 0.81474 0.12601 0.0
C120 C 0.18223 0.82345 0.14252 0.0
C121 C 0.17406 0.83808 0.15567 0.0
C122 C 0.12713 0.85238 0.18648 0.0
C123 C 0.10663 0.84712 0.18039 0.0
C124 C 0.09429 0.83613 0.19383 0.0
C125 C 0.1022 0.8301 0.21365 0.0
C126 C 0.12267 0.83559 0.21996 0.0
C127 C 0.13518 0.84638 0.20629 0.0
P128 P 0.18184 0.82871 0.85192 0.0
H129 H 0.153 0.8424 0.81857 0.0
H130 H 0.11778 0.83139 0.80752 0.0
H131 H 0.115 0.79359 0.86252 0.0
H132 H 0.15052 0.80408 0.87324 0.0
H133 H 0.19395 0.8495 0.81384 0.0
H134 H 0.21007 0.88302 0.80764 0.0
H135 H 0.20509 0.89862 0.87266 0.0
H136 H 0.18865 0.86539 0.87885 0.0
H137 H 0.21695 0.80392 0.86593 0.0
H138 H 0.16889 0.83715 0.89474 0.0
O139 O 0.19289 0.81381 0.83464 0.0
H140 H 0.23153 0.79447 0.90051 0.0
H141 H 0.18418 0.82832 0.9296 0.0
C142 C 0.15432 0.82455 0.84705 0.0
C143 C 0.14469 0.83215 0.82857 0.0
C144 C 0.12462 0.82573 0.82216 0.0
C145 C 0.11374 0.81157 0.83412 0.0
C146 C 0.12308 0.80451 0.85303 0.0
C147 C 0.14331 0.81071 0.85927 0.0
C148 C 0.19038 0.85466 0.8469 0.0
C149 C 0.19602 0.8602 0.82674 0.0
C150 C 0.20525 0.8793 0.82318 0.0
C151 C 0.20899 0.89318 0.83975 0.0
C152 C 0.20245 0.88806 0.85971 0.0
C153 C 0.19308 0.86901 0.86322 0.0
C154 C 0.1916 0.821 0.8777 0.0
C155 C 0.20943 0.80913 0.87965 0.0
C156 C 0.21789 0.80384 0.89939 0.0
C157 C 0.20894 0.81068 0.91758 0.0
C158 C 0.19129 0.82289 0.91572 0.0
C159 C 0.18256 0.82783 0.89588 0.0
P160 P 0.20435 0.18494 0.847 0.0
H161 H 0.22183 0.22384 0.8614 0.0
H162 H 0.23406 0.23698 0.89579 0.0
H163 H 0.21879 0.17914 0.92382 0.0
H164 H 0.20642 0.16588 0.88917 0.0
H165 H 0.17966 0.15635 0.82015 0.0
H166 H 0.18672 0.12197 0.80716 0.0
H167 H 0.24185 0.12005 0.84764 0.0
H168 H 0.23496 0.15454 0.86049 0.0
H169 H 0.18165 0.20039 0.80983 0.0
H170 H 0.16995 0.19005 0.87485 0.0
O171 O 0.21894 0.19656 0.82966 0.0
H172 H 0.14843 0.21764 0.80499 0.0
H173 H 0.1368 0.20753 0.86999 0.0
C174 C 0.21389 0.19365 0.87261 0.0
C175 C 0.22121 0.21388 0.87487 0.0
C176 C 0.22795 0.22149 0.89451 0.0
C177 C 0.22725 0.20907 0.91232 0.0
C178 C 0.21935 0.18898 0.91024 0.0
C179 C 0.21257 0.18135 0.89048 0.0
C180 C 0.20643 0.15787 0.84182 0.0
C181 C 0.19292 0.14834 0.82677 0.0
C182 C 0.19701 0.12876 0.81921 0.0
C183 C 0.21476 0.11843 0.8265 0.0
C184 C 0.22797 0.12769 0.84197 0.0
C185 C 0.22392 0.1473 0.84943 0.0
C186 C 0.17843 0.19424 0.84277 0.0
C187 C 0.17186 0.2016 0.82299 0.0
C188 C 0.15294 0.21144 0.82021 0.0
C189 C 0.14031 0.21399 0.83718 0.0
C190 C 0.1464 0.20575 0.85675 0.0
C191 C 0.1653 0.1958 0.85949 0.0
P192 P 0.883 0.17615 0.86754 0.0
H193 H 0.86224 0.13894 0.88031 0.0
H194 H 0.83496 0.11724 0.86354 0.0
H195 H 0.83175 0.15769 0.81032 0.0
H196 H 0.85899 0.17963 0.82724 0.0
H197 H 0.90064 0.16418 0.8284 0.0
H198 H 0.92573 0.18097 0.80619 0.0
H199 H 0.92548 0.23469 0.84525 0.0
H200 H 0.90032 0.218 0.86738 0.0
H201 H 0.89417 0.18627 0.91123 0.0
H202 H 0.84565 0.20112 0.86534 0.0
O203 O 0.89913 0.16046 0.88051 0.0
H204 H 0.87601 0.20444 0.93813 0.0
H205 H 0.82746 0.21943 0.89242 0.0
C206 C 0.86301 0.16053 0.85474 0.0
C207 C 0.85575 0.14312 0.865 0.0
C208 C 0.84015 0.13082 0.85552 0.0
C209 C 0.83148 0.13586 0.8357 0.0
C210 C 0.83835 0.15358 0.82561 0.0
C211 C 0.85394 0.16597 0.83518 0.0
C212 C 0.89826 0.19 0.84928 0.0
C213 C 0.90557 0.17976 0.83188 0.0
C214 C 0.91994 0.18925 0.81929 0.0
C215 C 0.92744 0.20902 0.82414 0.0
C216 C 0.9198 0.21944 0.84125 0.0
C217 C 0.90538 0.20995 0.85381 0.0
C218 C 0.87112 0.19213 0.88635 0.0
C219 C 0.87974 0.19361 0.90687 0.0
C220 C 0.8694 0.20395 0.92223 0.0
C221 C 0.85036 0.21309 0.91725 0.0
C222 C 0.84212 0.21239 0.89652 0.0
C223 C 0.85249 0.20199 0.88113 0.0
P224 P 0.86535 0.89838 0.83917 0.0
H225 H 0.87653 0.89831 0.79505 0.0
H226 H 0.90192 0.8787 0.77663 0.0
H227 H 0.91376 0.84209 0.8318 0.0
H228 H 0.88844 0.8618 0.85039 0.0
H229 H 0.87656 0.93741 0.82055 0.0
H230 H 0.85631 0.96339 0.8014 0.0
H231 H 0.8021 0.92438 0.80264 0.0
H232 H 0.82238 0.89828 0.82173 0.0
H233 H 0.84813 0.91099 0.87807 0.0
H234 H 0.84496 0.85751 0.83849 0.0
O235 O 0.88241 0.91201 0.85408 0.0
H236 H 0.82597 0.89377 0.90281 0.0
H237 H 0.82284 0.84015 0.86347 0.0
C238 C 0.88029 0.88129 0.82404 0.0
C239 C 0.88414 0.88577 0.8031 0.0
C240 C 0.89867 0.87463 0.79256 0.0
C241 C 0.90964 0.85897 0.80287 0.0
C242 C 0.90533 0.85405 0.82357 0.0
C243 C 0.89083 0.86522 0.83411 0.0
C244 C 0.85084 0.91615 0.82296 0.0
C245 C 0.86037 0.93433 0.81653 0.0
C246 C 0.84889 0.94908 0.8055 0.0
C247 C 0.82774 0.94579 0.80071 0.0
C248 C 0.81843 0.92714 0.8062 0.0
C249 C 0.82995 0.91234 0.81719 0.0
C250 C 0.84858 0.88536 0.85671 0.0
C251 C 0.84273 0.89552 0.87474 0.0
C252 C 0.83006 0.88574 0.88882 0.0
C253 C 0.8229 0.86567 0.88502 0.0
C254 C 0.82831 0.85562 0.8667 0.0
C255 C 0.84097 0.86548 0.85253 0.0
P256 P 0.19461 0.7026 0.67858 0.0
H257 H 0.17786 0.72522 0.71316 0.0
H258 H 0.14285 0.73584 0.72015 0.0
H259 H 0.11871 0.70125 0.66667 0.0
H260 H 0.15395 0.6903 0.65975 0.0
H261 H 0.21059 0.68332 0.71691 0.0
H262 H 0.22501 0.64954 0.72438 0.0
H263 H 0.20987 0.63098 0.66064 0.0
H264 H 0.19497 0.66473 0.65325 0.0
H265 H 0.1716 0.72933 0.64882 0.0
H266 H 0.22666 0.69303 0.64976 0.0
O267 O 0.2105 0.71803 0.69291 0.0
H268 H 0.17868 0.74137 0.61359 0.0
H269 H 0.23375 0.70529 0.61458 0.0
C270 C 0.16853 0.70721 0.68574 0.0
C271 C 0.16508 0.71961 0.70308 0.0
C272 C 0.14511 0.72569 0.7071 0.0
C273 C 0.12827 0.71947 0.69382 0.0
C274 C 0.13155 0.70622 0.67705 0.0
C275 C 0.15158 0.69997 0.67315 0.0
C276 C 0.20218 0.6767 0.6844 0.0
C277 C 0.21012 0.67194 0.70458 0.0
C278 C 0.21836 0.65269 0.70885 0.0
C279 C 0.21874 0.63787 0.693 0.0
C280 C 0.20984 0.64227 0.67304 0.0
C281 C 0.2014 0.66152 0.66883 0.0
C282 C 0.19815 0.70955 0.65166 0.0
C283 C 0.18487 0.72346 0.64131 0.0
C284 C 0.18896 0.7305 0.62126 0.0
C285 C 0.20665 0.7241 0.61152 0.0
C286 C 0.21992 0.71023 0.62182 0.0
C287 C 0.21579 0.70315 0.64182 0.0
P288 P 0.86038 0.66441 0.6733 0.0
H289 H 0.89235 0.69405 0.66387 0.0
H290 H 0.91919 0.71219 0.6854 0.0
H291 H 0.89556 0.68525 0.74103 0.0
H292 H 0.86852 0.66702 0.7194 0.0
H293 H 0.86638 0.62281 0.68877 0.0
H294 H 0.84215 0.59678 0.70114 0.0
H295 H 0.7937 0.64118 0.69967 0.0
H296 H 0.81796 0.66731 0.68746 0.0
H297 H 0.85246 0.70889 0.66959 0.0
H298 H 0.83235 0.65304 0.6383 0.0
O299 O 0.87494 0.65032 0.65826 0.0
H300 H 0.83129 0.72862 0.64408 0.0
H301 H 0.81085 0.67278 0.61314 0.0
C302 C 0.87823 0.67941 0.69001 0.0
C303 C 0.89271 0.69224 0.68072 0.0
C304 C 0.90809 0.7025 0.69297 0.0
C305 C 0.90937 0.70006 0.71479 0.0
C306 C 0.89479 0.68736 0.72421 0.0
C307 C 0.87932 0.67706 0.71188 0.0
C308 C 0.8439 0.6469 0.68689 0.0
C309 C 0.85066 0.62708 0.69148 0.0
C310 C 0.83685 0.61222 0.69847 0.0
C311 C 0.8161 0.61702 0.70105 0.0
C312 C 0.80962 0.63717 0.69765 0.0
C313 C 0.82348 0.65206 0.69073 0.0
C314 C 0.84426 0.6795 0.65561 0.0
C315 C 0.84353 0.70086 0.65731 0.0
C316 C 0.83137 0.71211 0.64285 0.0
C317 C 0.81959 0.70212 0.62674 0.0
C318 C 0.81984 0.68073 0.62545 0.0
C319 C 0.83215 0.66954 0.63974 0.0
P320 P 0.87186 0.3786 0.65958 0.0
H321 H 0.8587 0.37262 0.7027 0.0
H322 H 0.83896 0.39415 0.72569 0.0
H323 H 0.82601 0.43558 0.67453 0.0
H324 H 0.84593 0.41419 0.6515 0.0
H325 H 0.90761 0.39758 0.68141 0.0
H326 H 0.93441 0.38466 0.7062 0.0
H327 H 0.90661 0.32438 0.70163 0.0
H328 H 0.87949 0.33741 0.67703 0.0
H329 H 0.88983 0.34625 0.63546 0.0
H330 H 0.82916 0.37056 0.64257 0.0
O331 O 0.8831 0.3961 0.64475 0.0
H332 H 0.87599 0.3241 0.60695 0.0
H333 H 0.81531 0.34839 0.61384 0.0
C334 C 0.85399 0.39191 0.67539 0.0
C335 C 0.85147 0.3862 0.6963 0.0
C336 C 0.84031 0.39852 0.70948 0.0
C337 C 0.83134 0.4166 0.70187 0.0
C338 C 0.83302 0.42179 0.68072 0.0
C339 C 0.84426 0.40952 0.66758 0.0
C340 C 0.89194 0.36832 0.67691 0.0
C341 C 0.90736 0.38153 0.68556 0.0
C342 C 0.92257 0.37422 0.69977 0.0
C343 C 0.92255 0.35356 0.70561 0.0
C344 C 0.90693 0.34035 0.69719 0.0
C345 C 0.89159 0.34774 0.68307 0.0
C346 C 0.86046 0.3597 0.64158 0.0
C347 C 0.87343 0.34644 0.63129 0.0
C348 C 0.86558 0.33389 0.61492 0.0
C349 C 0.84462 0.33453 0.60832 0.0
C350 C 0.8315 0.34754 0.6188 0.0
C351 C 0.83939 0.36011 0.63526 0.0
P352 P 0.16292 0.37627 0.67596 0.0
H353 H 0.14708 0.41149 0.69774 0.0
H354 H 0.16415 0.43946 0.71804 0.0
H355 H 0.22293 0.41052 0.71267 0.0
H356 H 0.20586 0.38236 0.69276 0.0
H357 H 0.1812 0.39134 0.63822 0.0
H358 H 0.20547 0.37667 0.61434 0.0
H359 H 0.21063 0.32308 0.65332 0.0
H360 H 0.18658 0.33796 0.67751 0.0
H361 H 0.14601 0.37452 0.71782 0.0
H362 H 0.14573 0.3364 0.6627 0.0
O363 O 0.14596 0.38871 0.66038 0.0
H364 H 0.12133 0.351 0.73335 0.0
H365 H 0.12147 0.3125 0.67864 0.0
C366 C 0.17523 0.395 0.69346 0.0
C367 C 0.16359 0.41098 0.70121 0.0
C368 C 0.17329 0.42691 0.71281 0.0
C369 C 0.19481 0.42715 0.71664 0.0
C370 C 0.20632 0.41064 0.70979 0.0
C371 C 0.19657 0.39461 0.69836 0.0
C372 C 0.18162 0.36547 0.65928 0.0
C373 C 0.18755 0.37644 0.64168 0.0
C374 C 0.20144 0.36814 0.62811 0.0
C375 C 0.20968 0.34873 0.63198 0.0
C376 C 0.20434 0.33803 0.65002 0.0
C377 C 0.19054 0.34645 0.66372 0.0
C378 C 0.14813 0.35705 0.68924 0.0
C379 C 0.14109 0.3609 0.70923 0.0
C380 C 0.12692 0.34752 0.71809 0.0
C381 C 0.11953 0.3301 0.70709 0.0
C382 C 0.12702 0.32587 0.68736 0.0
C383 C 0.14098 0.33942 0.67838 0.0
P384 P 0.18847 0.31325 0.35573 0.0
H385 H 0.1703 0.27477 0.33969 0.0
H386 H 0.13527 0.26551 0.3262 0.0
H387 H 0.1136 0.32415 0.34563 0.0
H388 H 0.14868 0.3334 0.35932 0.0
H389 H 0.21375 0.3488 0.37162 0.0
H390 H 0.22201 0.38197 0.35543 0.0
H391 H 0.18069 0.36693 0.30252 0.0
H392 H 0.17238 0.33411 0.31856 0.0
H393 H 0.21046 0.27991 0.37626 0.0
H394 H 0.18129 0.33498 0.3952 0.0
O395 O 0.20365 0.29913 0.34137 0.0
H396 H 0.21759 0.27075 0.41216 0.0
H397 H 0.18852 0.32642 0.43139 0.0
C398 C 0.16214 0.30499 0.34993 0.0
C399 C 0.15796 0.28549 0.34145 0.0
C400 C 0.13798 0.28014 0.33391 0.0
C401 C 0.12194 0.2942 0.33486 0.0
C402 C 0.12579 0.3131 0.34484 0.0
C403 C 0.14579 0.3184 0.35249 0.0
C404 C 0.19196 0.33919 0.34662 0.0
C405 C 0.20601 0.35289 0.35686 0.0
C406 C 0.21079 0.37175 0.34759 0.0
C407 C 0.20185 0.3769 0.32782 0.0
C408 C 0.1876 0.36333 0.31784 0.0
C409 C 0.18278 0.34464 0.3271 0.0
C410 C 0.19503 0.308 0.38296 0.0
C411 C 0.2052 0.28993 0.3883 0.0
C412 C 0.2087 0.28436 0.40922 0.0
C413 C 0.20126 0.29611 0.42577 0.0
C414 C 0.19247 0.3152 0.42006 0.0
C415 C 0.18885 0.32072 0.39897 0.0
P416 P 0.19766 0.66333 0.32313 0.0
H417 H 0.23933 0.67182 0.33961 0.0
H418 H 0.25383 0.68377 0.3737 0.0
H419 H 0.19252 0.68569 0.39682 0.0
H420 H 0.17803 0.67301 0.36285 0.0
H421 H 0.20668 0.63932 0.28631 0.0
H422 H 0.22215 0.60566 0.28222 0.0
H423 H 0.22089 0.59581 0.34879 0.0
H424 H 0.20527 0.62948 0.35294 0.0
H425 H 0.17262 0.69888 0.33078 0.0
H426 H 0.16335 0.6395 0.30219 0.0
O427 O 0.21006 0.677 0.30551 0.0
H428 H 0.13734 0.70814 0.31925 0.0
H429 H 0.12809 0.64898 0.2903 0.0
C430 C 0.20757 0.67211 0.3485 0.0
C431 C 0.22898 0.67484 0.35198 0.0
C432 C 0.23726 0.68157 0.37142 0.0
C433 C 0.22423 0.68578 0.38769 0.0
C434 C 0.2028 0.68264 0.38439 0.0
C435 C 0.19454 0.67558 0.36498 0.0
C436 C 0.20505 0.63704 0.31994 0.0
C437 C 0.20943 0.62983 0.30001 0.0
C438 C 0.21833 0.61069 0.29768 0.0
C439 C 0.22297 0.59844 0.31525 0.0
C440 C 0.21763 0.60517 0.33509 0.0
C441 C 0.20865 0.62433 0.33741 0.0
C442 C 0.17048 0.66826 0.31793 0.0
C443 C 0.16284 0.68762 0.32253 0.0
C444 C 0.14276 0.69299 0.31583 0.0
C445 C 0.13009 0.67922 0.30402 0.0
C446 C 0.13759 0.65975 0.29955 0.0
C447 C 0.15767 0.65432 0.30643 0.0
P448 P 0.86543 0.68378 0.38033 0.0
H449 H 0.86358 0.67104 0.33603 0.0
H450 H 0.84084 0.64705 0.31614 0.0
H451 H 0.80279 0.64034 0.36914 0.0
H452 H 0.826 0.66392 0.38945 0.0
H453 H 0.90176 0.66924 0.36025 0.0
H454 H 0.92809 0.68622 0.33985 0.0
H455 H 0.89756 0.74373 0.34653 0.0
H456 H 0.87088 0.72663 0.36668 0.0
H457 H 0.88237 0.70258 0.41866 0.0
H458 H 0.82507 0.70448 0.38139 0.0
O459 O 0.87795 0.66635 0.39491 0.0
H460 H 0.86783 0.72479 0.44487 0.0
H461 H 0.81034 0.72644 0.40794 0.0
C462 C 0.84634 0.66968 0.36419 0.0
C463 C 0.85021 0.66477 0.34338 0.0
C464 C 0.83726 0.65098 0.332 0.0
C465 C 0.82021 0.64184 0.3412 0.0
C466 C 0.81587 0.64724 0.36176 0.0
C467 C 0.82903 0.66082 0.37326 0.0
C468 C 0.88445 0.69668 0.36512 0.0
C469 C 0.9007 0.6855 0.35737 0.0
C470 C 0.91574 0.69518 0.34578 0.0
C471 C 0.91482 0.71623 0.34176 0.0
C472 C 0.89856 0.72748 0.34953 0.0
C473 C 0.88336 0.71771 0.36098 0.0
C474 C 0.85462 0.70143 0.39837 0.0
C475 C 0.86667 0.70779 0.4161 0.0
C476 C 0.85843 0.72051 0.43102 0.0
C477 C 0.83797 0.7271 0.42842 0.0
C478 C 0.82613 0.72142 0.41025 0.0
C479 C 0.83449 0.70879 0.3952 0.0
P480 P 0.87064 0.38993 0.36263 0.0
H481 H 0.9124 0.39824 0.3503 0.0
H482 H 0.93593 0.3799 0.3284 0.0
H483 H 0.88959 0.33257 0.31705 0.0
H484 H 0.86569 0.35132 0.33854 0.0
H485 H 0.88598 0.43083 0.35415 0.0
H486 H 0.87296 0.45868 0.33194 0.0
H487 H 0.81947 0.42179 0.31301 0.0
H488 H 0.8329 0.39348 0.33489 0.0
H489 H 0.87313 0.34909 0.3806 0.0
H490 H 0.82794 0.39669 0.37497 0.0
O491 O 0.8853 0.40057 0.38205 0.0
H492 H 0.85024 0.32935 0.40262 0.0
H493 H 0.8049 0.37669 0.39684 0.0
C494 C 0.88753 0.37585 0.34655 0.0
C495 C 0.90727 0.3839 0.34317 0.0
C496 C 0.92067 0.37349 0.33064 0.0
C497 C 0.91456 0.35481 0.32125 0.0
C498 C 0.89462 0.34691 0.32426 0.0
C499 C 0.88107 0.35753 0.33661 0.0
C500 C 0.86003 0.41035 0.34675 0.0
C501 C 0.87137 0.42871 0.34538 0.0
C502 C 0.86402 0.44457 0.33262 0.0
C503 C 0.84518 0.44236 0.32099 0.0
C504 C 0.83398 0.42382 0.32199 0.0
C505 C 0.84154 0.40778 0.33458 0.0
C506 C 0.85194 0.374 0.37531 0.0
C507 C 0.85803 0.35501 0.38349 0.0
C508 C 0.84507 0.34382 0.39622 0.0
C509 C 0.82587 0.35153 0.40124 0.0
C510 C 0.81959 0.37042 0.39295 0.0
C511 C 0.83267 0.38171 0.38029 0.0
P512 P 0.706 0.2126 0.66422 0.0
H513 H 0.67286 0.19379 0.68847 0.0
H514 H 0.6391 0.20633 0.69802 0.0
H515 H 0.6487 0.26098 0.6619 0.0
H516 H 0.68273 0.24887 0.65298 0.0
H517 H 0.71487 0.19386 0.7047 0.0
H518 H 0.7235 0.15902 0.71565 0.0
H519 H 0.71803 0.13905 0.6513 0.0
H520 H 0.70914 0.17405 0.64027 0.0
H521 H 0.74385 0.22228 0.64337 0.0
H522 H 0.67918 0.21374 0.62549 0.0
O523 O 0.72205 0.22765 0.67878 0.0
H524 H 0.75053 0.23299 0.60757 0.0
H525 H 0.68581 0.22506 0.58975 0.0
C526 C 0.6802 0.22024 0.66969 0.0
C527 C 0.6677 0.20838 0.68245 0.0
C528 C 0.64844 0.21551 0.68791 0.0
C529 C 0.6414 0.23453 0.68058 0.0
C530 C 0.65381 0.24623 0.66762 0.0
C531 C 0.67316 0.23926 0.66247 0.0
C532 C 0.71148 0.18657 0.67169 0.0
C533 C 0.71548 0.18202 0.69291 0.0
C534 C 0.72042 0.16217 0.69916 0.0
C535 C 0.72144 0.1465 0.68428 0.0
C536 C 0.71732 0.15097 0.66299 0.0
C537 C 0.71224 0.1709 0.65674 0.0
C538 C 0.71098 0.21764 0.63719 0.0
C539 C 0.73112 0.2226 0.63174 0.0
C540 C 0.73492 0.22875 0.61136 0.0
C541 C 0.71863 0.22999 0.59612 0.0
C542 C 0.69855 0.22429 0.60135 0.0
C543 C 0.6948 0.21787 0.62172 0.0
P544 P 0.37421 0.16148 0.67581 0.0
H545 H 0.41469 0.17853 0.66632 0.0
H546 H 0.44122 0.19762 0.68742 0.0
H547 H 0.40113 0.19856 0.73918 0.0
H548 H 0.37448 0.17942 0.71805 0.0
H549 H 0.39227 0.12674 0.69737 0.0
H550 H 0.37873 0.10098 0.72116 0.0
H551 H 0.31935 0.12985 0.7172 0.0
H552 H 0.33304 0.15598 0.69366 0.0
H553 H 0.37107 0.20514 0.66501 0.0
H554 H 0.33646 0.14936 0.65166 0.0
O555 O 0.38716 0.14829 0.65854 0.0
H556 H 0.3486 0.22336 0.63955 0.0
H557 H 0.3138 0.16773 0.62632 0.0
C558 C 0.39272 0.17732 0.69072 0.0
C559 C 0.41152 0.18289 0.68217 0.0
C560 C 0.42667 0.19373 0.69419 0.0
C561 C 0.42319 0.19928 0.7149 0.0
C562 C 0.40413 0.19426 0.72327 0.0
C563 C 0.38895 0.18341 0.71121 0.0
C564 C 0.36353 0.14297 0.69335 0.0
C565 C 0.37631 0.12754 0.70157 0.0
C566 C 0.36865 0.1129 0.71518 0.0
C567 C 0.34802 0.11344 0.7208 0.0
C568 C 0.33528 0.12914 0.71294 0.0
C569 C 0.34305 0.14394 0.69942 0.0
C570 C 0.35522 0.17593 0.66061 0.0
C571 C 0.35835 0.1969 0.65706 0.0
C572 C 0.34558 0.20731 0.64244 0.0
C573 C 0.32957 0.19689 0.63101 0.0
C574 C 0.32603 0.17606 0.63501 0.0
C575 C 0.33887 0.16563 0.64956 0.0
P576 P 0.36196 0.87481 0.67454 0.0
H577 H 0.37079 0.90266 0.70961 0.0
H578 H 0.34941 0.92657 0.72825 0.0
H579 H 0.29522 0.90434 0.69296 0.0
H580 H 0.31651 0.88043 0.67428 0.0
H581 H 0.38501 0.84155 0.65761 0.0
H582 H 0.40887 0.81668 0.67297 0.0
H583 H 0.39996 0.84116 0.73439 0.0
H584 H 0.37532 0.86593 0.71903 0.0
H585 H 0.36476 0.87796 0.62905 0.0
H586 H 0.33004 0.84245 0.6724 0.0
O587 O 0.37821 0.89193 0.66475 0.0
H588 H 0.35122 0.85629 0.6002 0.0
H589 H 0.3159 0.82104 0.64321 0.0
C590 C 0.34531 0.88925 0.69088 0.0
C591 C 0.35424 0.90247 0.70625 0.0
C592 C 0.34208 0.91628 0.71674 0.0
C593 C 0.32073 0.91724 0.71199 0.0
C594 C 0.31165 0.90379 0.69691 0.0
C595 C 0.32385 0.88998 0.68638 0.0
C596 C 0.37797 0.85548 0.68714 0.0
C597 C 0.38773 0.84143 0.67445 0.0
C598 C 0.4015 0.82724 0.68318 0.0
C599 C 0.40618 0.82702 0.7048 0.0
C600 C 0.39647 0.84103 0.71765 0.0
C601 C 0.38241 0.85518 0.70887 0.0
C602 C 0.34815 0.86203 0.65288 0.0
C603 C 0.35378 0.86589 0.63233 0.0
C604 C 0.34616 0.85344 0.61584 0.0
C605 C 0.33266 0.837 0.61959 0.0
C606 C 0.32632 0.83364 0.64002 0.0
C607 C 0.33422 0.84594 0.6566 0.0
P608 P 0.63605 0.86761 0.68573 0.0
H609 H 0.62037 0.90843 0.69332 0.0
H610 H 0.63661 0.93971 0.70809 0.0
H611 H 0.69415 0.9082 0.71824 0.0
H612 H 0.67783 0.87673 0.70362 0.0
H613 H 0.64518 0.87725 0.64305 0.0
H614 H 0.66988 0.86423 0.61886 0.0
H615 H 0.69184 0.82122 0.66558 0.0
H616 H 0.66738 0.83482 0.69025 0.0
H617 H 0.61681 0.87735 0.72458 0.0
H618 H 0.63089 0.82283 0.6905 0.0
O619 O 0.61546 0.87464 0.6709 0.0
H620 H 0.59664 0.85692 0.74846 0.0
H621 H 0.61158 0.80223 0.71517 0.0
C622 C 0.648 0.89037 0.69706 0.0
C623 C 0.63648 0.9082 0.69868 0.0
C624 C 0.64569 0.92602 0.70714 0.0
C625 C 0.66656 0.92623 0.71412 0.0
C626 C 0.67803 0.90829 0.71285 0.0
C627 C 0.66875 0.89041 0.70448 0.0
C628 C 0.65387 0.85651 0.66821 0.0
C629 C 0.65513 0.86487 0.64811 0.0
C630 C 0.6693 0.85754 0.63431 0.0
C631 C 0.68259 0.84165 0.64032 0.0
C632 C 0.68161 0.8334 0.66058 0.0
C633 C 0.66753 0.841 0.67456 0.0
C634 C 0.62601 0.85162 0.70606 0.0
C635 C 0.6163 0.86091 0.72268 0.0
C636 C 0.60469 0.84926 0.73634 0.0
C637 C 0.60269 0.82801 0.73375 0.0
C638 C 0.61309 0.81858 0.71761 0.0
C639 C 0.62431 0.83033 0.70363 0.0
P640 P 0.67125 0.81655 0.35426 0.0
H641 H 0.63922 0.83417 0.32539 0.0
H642 H 0.60509 0.82119 0.31263 0.0
H643 H 0.61036 0.77062 0.35557 0.0
H644 H 0.64475 0.78307 0.36778 0.0
H645 H 0.67945 0.8344 0.31365 0.0
H646 H 0.6944 0.86738 0.30328 0.0
H647 H 0.69566 0.88777 0.36745 0.0
H648 H 0.68049 0.85484 0.37785 0.0
H649 H 0.71099 0.80835 0.37532 0.0
H650 H 0.64822 0.81542 0.39323 0.0
O651 O 0.68483 0.80045 0.34035 0.0
H652 H 0.72174 0.80055 0.4117 0.0
H653 H 0.65889 0.80684 0.42961 0.0
C654 C 0.64441 0.80993 0.34799 0.0
C655 C 0.63292 0.82056 0.33243 0.0
C656 C 0.61344 0.81314 0.3251 0.0
C657 C 0.60518 0.795 0.33324 0.0
C658 C 0.61637 0.78474 0.34925 0.0
C659 C 0.63595 0.79196 0.35631 0.0
C660 C 0.67896 0.84207 0.34654 0.0
C661 C 0.68261 0.84606 0.32547 0.0
C662 C 0.69118 0.86484 0.31954 0.0
C663 C 0.69628 0.87995 0.33461 0.0
C664 C 0.69187 0.87629 0.35559 0.0
C665 C 0.6832 0.8575 0.36151 0.0
C666 C 0.67874 0.81197 0.38145 0.0
C667 C 0.6995 0.80812 0.38705 0.0
C668 C 0.70563 0.80365 0.40778 0.0
C669 C 0.69109 0.80294 0.42332 0.0
C670 C 0.67032 0.80719 0.41782 0.0
C671 C 0.66425 0.81201 0.39707 0.0
P672 P 0.68624 0.17319 0.31061 0.0
H673 H 0.71088 0.20961 0.32219 0.0
H674 H 0.72784 0.22165 0.35508 0.0
H675 H 0.70333 0.16938 0.38714 0.0
H676 H 0.68583 0.15746 0.35408 0.0
H677 H 0.66742 0.14505 0.2792 0.0
H678 H 0.67516 0.10982 0.26929 0.0
H679 H 0.72098 0.10689 0.32036 0.0
H680 H 0.71348 0.14206 0.33017 0.0
H681 H 0.66959 0.21344 0.30225 0.0
H682 H 0.64495 0.15264 0.3114 0.0
O683 O 0.69945 0.18445 0.29192 0.0
H684 H 0.63457 0.22581 0.29408 0.0
H685 H 0.60986 0.16501 0.30271 0.0
C686 C 0.69756 0.18229 0.3355 0.0
C687 C 0.70906 0.20067 0.33623 0.0
C688 C 0.71873 0.20761 0.35503 0.0
C689 C 0.71707 0.19632 0.37354 0.0
C690 C 0.70493 0.17826 0.37302 0.0
C691 C 0.69502 0.17144 0.35417 0.0
C692 C 0.68913 0.14603 0.30609 0.0
C693 C 0.67864 0.13665 0.28874 0.0
C694 C 0.68316 0.1166 0.28294 0.0
C695 C 0.69849 0.10569 0.29422 0.0
C696 C 0.70889 0.11496 0.31163 0.0
C697 C 0.70442 0.13502 0.31737 0.0
C698 C 0.65998 0.18203 0.30699 0.0
C699 C 0.65666 0.20276 0.30257 0.0
C700 C 0.6367 0.20983 0.2979 0.0
C701 C 0.61968 0.19629 0.29756 0.0
C702 C 0.62284 0.17566 0.30273 0.0
C703 C 0.64286 0.16861 0.30762 0.0
P704 P 0.37827 0.17076 0.37267 0.0
H705 H 0.38842 0.15186 0.33349 0.0
H706 H 0.36993 0.12758 0.30978 0.0
H707 H 0.31658 0.13047 0.34719 0.0
H708 H 0.33514 0.15473 0.37112 0.0
H709 H 0.41559 0.19215 0.38799 0.0
H710 H 0.43931 0.21627 0.37175 0.0
H711 H 0.40059 0.21494 0.31488 0.0
H712 H 0.37637 0.19141 0.33142 0.0
H713 H 0.38771 0.17772 0.41697 0.0
H714 H 0.33967 0.19442 0.37132 0.0
O715 O 0.39384 0.15411 0.38502 0.0
H716 H 0.37165 0.19815 0.44347 0.0
H717 H 0.32314 0.21461 0.39828 0.0
C718 C 0.36292 0.15579 0.35366 0.0
C719 C 0.37254 0.14777 0.33632 0.0
C720 C 0.36207 0.13381 0.32286 0.0
C721 C 0.34186 0.1274 0.32665 0.0
C722 C 0.3321 0.13546 0.34389 0.0
C723 C 0.34264 0.14942 0.35743 0.0
C724 C 0.39459 0.18949 0.36069 0.0
C725 C 0.4121 0.19714 0.37208 0.0
C726 C 0.42558 0.21094 0.36287 0.0
C727 C 0.42181 0.21717 0.34205 0.0
C728 C 0.40381 0.21018 0.33092 0.0
C729 C 0.39012 0.19662 0.34029 0.0
C730 C 0.36452 0.18399 0.39231 0.0
C731 C 0.37345 0.18542 0.41273 0.0
C732 C 0.36437 0.19719 0.42786 0.0
C733 C 0.34618 0.20783 0.42288 0.0
C734 C 0.33714 0.20643 0.40244 0.0
C735 C 0.34645 0.19481 0.38715 0.0
P736 P 0.34822 0.88404 0.37014 0.0
H737 H 0.38852 0.89578 0.35575 0.0
H738 H 0.41262 0.87931 0.333 0.0
H739 H 0.36979 0.82863 0.32333 0.0
H740 H 0.34531 0.84544 0.34581 0.0
H741 H 0.35575 0.92615 0.35764 0.0
H742 H 0.33486 0.95091 0.33757 0.0
H743 H 0.28572 0.90593 0.32909 0.0
H744 H 0.30708 0.88077 0.34832 0.0
H745 H 0.35497 0.84269 0.38667 0.0
H746 H 0.30824 0.88874 0.38897 0.0
O747 O 0.36278 0.89748 0.38768 0.0
H748 H 0.33552 0.82121 0.41049 0.0
H749 H 0.28868 0.86704 0.41239 0.0
C750 C 0.3654 0.87154 0.353 0.0
C751 C 0.38427 0.8811 0.3488 0.0
C752 C 0.398 0.87176 0.33577 0.0
C753 C 0.39308 0.85268 0.32663 0.0
C754 C 0.37392 0.8433 0.33034 0.0
C755 C 0.36004 0.85282 0.34324 0.0
C756 C 0.33273 0.90181 0.35495 0.0
C757 C 0.34049 0.92158 0.35149 0.0
C758 C 0.32857 0.93572 0.34011 0.0
C759 C 0.30866 0.93032 0.33207 0.0
C760 C 0.30097 0.91043 0.33533 0.0
C761 C 0.31313 0.89613 0.34632 0.0
C762 C 0.33259 0.86692 0.38513 0.0
C763 C 0.34025 0.84792 0.39168 0.0
C764 C 0.32925 0.83572 0.40539 0.0
C765 C 0.31059 0.84249 0.41294 0.0
C766 C 0.3029 0.86147 0.40644 0.0
C767 C 0.314 0.87373 0.39291 0.0
P768 P 0.67886 0.7242 0.17258 0.0
H769 H 0.6621 0.74122 0.21024 0.0
H770 H 0.62702 0.75024 0.21901 0.0
H771 H 0.60285 0.72354 0.16096 0.0
H772 H 0.63806 0.71411 0.15231 0.0
H773 H 0.6991 0.70888 0.21093 0.0
H774 H 0.71568 0.67647 0.21999 0.0
H775 H 0.69613 0.65201 0.15942 0.0
H776 H 0.67902 0.68442 0.15049 0.0
H777 H 0.65647 0.75206 0.14399 0.0
H778 H 0.7083 0.7117 0.14164 0.0
O779 O 0.6938 0.74143 0.18565 0.0
H780 H 0.66229 0.76343 0.10827 0.0
H781 H 0.71401 0.72313 0.10584 0.0
C782 C 0.65272 0.72745 0.18038 0.0
C783 C 0.64928 0.73703 0.19949 0.0
C784 C 0.62928 0.74218 0.20451 0.0
C785 C 0.61241 0.73779 0.19051 0.0
C786 C 0.6157 0.72715 0.1719 0.0
C787 C 0.63575 0.72179 0.16698 0.0
C788 C 0.68835 0.69926 0.17981 0.0
C789 C 0.69817 0.69652 0.19964 0.0
C790 C 0.70762 0.67803 0.20484 0.0
C791 C 0.70737 0.66195 0.19028 0.0
C792 C 0.69662 0.6643 0.1708 0.0
C793 C 0.68693 0.68278 0.1657 0.0
C794 C 0.68128 0.73022 0.14522 0.0
C795 C 0.66863 0.74509 0.13562 0.0
C796 C 0.67202 0.75173 0.11528 0.0
C797 C 0.68836 0.74387 0.10438 0.0
C798 C 0.70109 0.72906 0.11392 0.0
C799 C 0.69771 0.72245 0.13429 0.0
P800 P 0.35944 0.65653 0.16912 0.0
H801 H 0.39758 0.67863 0.16243 0.0
H802 H 0.42147 0.69897 0.18527 0.0
H803 H 0.38388 0.6864 0.23765 0.0
H804 H 0.35961 0.66625 0.21458 0.0
H805 H 0.31458 0.64768 0.16348 0.0
H806 H 0.29281 0.61992 0.17637 0.0
H807 H 0.34433 0.59807 0.21479 0.0
H808 H 0.36636 0.62568 0.20161 0.0
H809 H 0.33991 0.65091 0.12747 0.0
H810 H 0.34908 0.70033 0.17185 0.0
O811 O 0.37409 0.64208 0.15453 0.0
H812 H 0.32189 0.67405 0.10283 0.0
H813 H 0.33139 0.72362 0.14692 0.0
C814 C 0.37698 0.67069 0.18685 0.0
C815 C 0.3945 0.6801 0.17886 0.0
C816 C 0.40814 0.69169 0.19187 0.0
C817 C 0.4045 0.69415 0.21316 0.0
C818 C 0.387 0.68462 0.22128 0.0
C819 C 0.37319 0.67311 0.20813 0.0
C820 C 0.34213 0.63901 0.18179 0.0
C821 C 0.32122 0.63722 0.17494 0.0
C822 C 0.30875 0.62132 0.18223 0.0
C823 C 0.31698 0.60695 0.1965 0.0
C824 C 0.33769 0.60906 0.20384 0.0
C825 C 0.35019 0.62488 0.19642 0.0
C826 C 0.34593 0.67388 0.15145 0.0
C827 C 0.33813 0.66674 0.13188 0.0
C828 C 0.32791 0.67994 0.11781 0.0
C829 C 0.32535 0.70055 0.12303 0.0
C830 C 0.33324 0.70778 0.14259 0.0
C831 C 0.3433 0.69447 0.1568 0.0
P832 P 0.36832 0.35158 0.17427 0.0
H833 H 0.37129 0.39627 0.17605 0.0
H834 H 0.35333 0.42196 0.19565 0.0
H835 H 0.32236 0.37426 0.22912 0.0
H836 H 0.33987 0.3483 0.20878 0.0
H837 H 0.39496 0.32013 0.15921 0.0
H838 H 0.41984 0.29715 0.1766 0.0
H839 H 0.40311 0.31942 0.23675 0.0
H840 H 0.37804 0.34241 0.21941 0.0
H841 H 0.33533 0.37021 0.14861 0.0
H842 H 0.35729 0.3092 0.16035 0.0
O843 O 0.38437 0.36414 0.15901 0.0
H844 H 0.31132 0.35692 0.1207 0.0
H845 H 0.33393 0.29614 0.132 0.0
C846 C 0.35713 0.37027 0.19109 0.0
C847 C 0.3609 0.39119 0.18778 0.0
C848 C 0.35067 0.40594 0.19902 0.0
C849 C 0.33655 0.40008 0.2139 0.0
C850 C 0.33329 0.37912 0.21778 0.0
C851 C 0.34327 0.36433 0.20621 0.0
C852 C 0.38418 0.33272 0.18792 0.0
C853 C 0.39618 0.31974 0.17616 0.0
C854 C 0.41043 0.30664 0.18606 0.0
C855 C 0.41317 0.30644 0.20794 0.0
C856 C 0.401 0.31917 0.21984 0.0
C857 C 0.38663 0.33226 0.20989 0.0
C858 C 0.34824 0.34078 0.15663 0.0
C859 C 0.33483 0.35395 0.14542 0.0
C860 C 0.32121 0.34641 0.1294 0.0
C861 C 0.32105 0.32559 0.12403 0.0
C862 C 0.33393 0.3123 0.13574 0.0
C863 C 0.34734 0.3198 0.15194 0.0
P864 P 0.6717 0.395 0.17164 0.0
H865 H 0.6555 0.42793 0.19556 0.0
H866 H 0.67161 0.45682 0.21506 0.0
H867 H 0.7319 0.43424 0.20268 0.0
H868 H 0.71578 0.40506 0.18335 0.0
H869 H 0.67164 0.34999 0.16954 0.0
H870 H 0.68837 0.32632 0.14657 0.0
H871 H 0.72333 0.37624 0.12119 0.0
H872 H 0.70613 0.4003 0.14396 0.0
H873 H 0.62854 0.38275 0.16337 0.0
H874 H 0.67505 0.37698 0.21365 0.0
O875 O 0.65847 0.4073 0.1526 0.0
H876 H 0.60422 0.36269 0.18342 0.0
H877 H 0.65052 0.35666 0.23377 0.0
C878 C 0.68443 0.41446 0.18785 0.0
C879 C 0.6722 0.42901 0.19727 0.0
C880 C 0.68134 0.44546 0.2084 0.0
C881 C 0.7029 0.44767 0.2102 0.0
C882 C 0.71521 0.43275 0.20141 0.0
C883 C 0.70602 0.41618 0.19031 0.0
C884 C 0.68784 0.37703 0.15882 0.0
C885 C 0.68323 0.35598 0.1595 0.0
C886 C 0.69271 0.34238 0.14628 0.0
C887 C 0.70701 0.34954 0.13215 0.0
C888 C 0.71237 0.37043 0.13206 0.0
C889 C 0.70268 0.38411 0.14516 0.0
C890 C 0.65347 0.38159 0.18719 0.0
C891 C 0.63344 0.37742 0.17883 0.0
C892 C 0.61957 0.36597 0.19023 0.0
C893 C 0.6256 0.35837 0.21006 0.0
C894 C 0.64562 0.36259 0.21854 0.0
C895 C 0.65952 0.37413 0.20711 0.0
P896 P 0.69317 0.32335 0.8542 0.0
H897 H 0.67863 0.28418 0.83634 0.0
H898 H 0.64465 0.27258 0.82211 0.0
H899 H 0.61727 0.32677 0.84621 0.0
H900 H 0.65141 0.33844 0.86062 0.0
H901 H 0.7206 0.35865 0.86503 0.0
H902 H 0.72588 0.39173 0.84776 0.0
H903 H 0.67592 0.37726 0.80289 0.0
H904 H 0.67048 0.34439 0.82009 0.0
H905 H 0.71242 0.28923 0.87602 0.0
H906 H 0.69278 0.34964 0.89212 0.0
O907 O 0.70936 0.31041 0.83984 0.0
H908 H 0.72759 0.28486 0.91155 0.0
H909 H 0.70832 0.34531 0.92785 0.0
C910 C 0.66761 0.31242 0.8491 0.0
C911 C 0.66529 0.29336 0.8391 0.0
C912 C 0.64588 0.28664 0.83108 0.0
C913 C 0.62849 0.29885 0.83304 0.0
C914 C 0.63049 0.31709 0.84465 0.0
C915 C 0.64996 0.32377 0.85278 0.0
C916 C 0.69451 0.34931 0.84452 0.0
C917 C 0.71023 0.36287 0.85201 0.0
C918 C 0.71336 0.38169 0.84207 0.0
C919 C 0.70111 0.38699 0.82421 0.0
C920 C 0.6853 0.37357 0.81684 0.0
C921 C 0.68212 0.35485 0.82682 0.0
C922 C 0.70195 0.31997 0.88125 0.0
C923 C 0.71129 0.30154 0.88722 0.0
C924 C 0.71993 0.29901 0.90749 0.0
C925 C 0.71926 0.31481 0.92226 0.0
C926 C 0.70909 0.33297 0.91663 0.0
C927 C 0.7003 0.33546 0.89626 0.0
P928 P 0.7084 0.67677 0.82247 0.0
H929 H 0.74329 0.67034 0.85244 0.0
H930 H 0.75409 0.68695 0.88575 0.0
H931 H 0.69861 0.72247 0.8825 0.0
H932 H 0.68761 0.70568 0.84938 0.0
H933 H 0.72207 0.6539 0.78682 0.0
H934 H 0.73534 0.61929 0.78299 0.0
H935 H 0.7244 0.60686 0.84772 0.0
H936 H 0.71075 0.64154 0.85153 0.0
H937 H 0.68896 0.70134 0.78883 0.0
H938 H 0.66891 0.66075 0.83718 0.0
O939 O 0.7232 0.69063 0.80703 0.0
H940 H 0.65294 0.70796 0.778 0.0
H941 H 0.63259 0.66745 0.82621 0.0
C942 C 0.71433 0.68629 0.84867 0.0
C943 C 0.73312 0.68123 0.85917 0.0
C944 C 0.73937 0.69079 0.8781 0.0
C945 C 0.72715 0.70593 0.88655 0.0
C946 C 0.7082 0.71075 0.87626 0.0
C947 C 0.70188 0.70108 0.85741 0.0
C948 C 0.7158 0.65045 0.81956 0.0
C949 C 0.72238 0.64374 0.80019 0.0
C950 C 0.73001 0.62404 0.79801 0.0
C951 C 0.73113 0.61068 0.81515 0.0
C952 C 0.72387 0.61707 0.83439 0.0
C953 C 0.71607 0.63681 0.83653 0.0
C954 C 0.68168 0.68051 0.81385 0.0
C955 C 0.67685 0.69371 0.79706 0.0
C956 C 0.65627 0.69751 0.79082 0.0
C957 C 0.64009 0.68819 0.80126 0.0
C958 C 0.64486 0.67475 0.81791 0.0
C959 C 0.66553 0.67093 0.82415 0.0
P960 P 0.3706 0.66079 0.87846 0.0
H961 H 0.38034 0.62511 0.85353 0.0
H962 H 0.35879 0.60155 0.83153 0.0
H963 H 0.30579 0.63906 0.84003 0.0
H964 H 0.32741 0.66287 0.86172 0.0
H965 H 0.4071 0.68341 0.89452 0.0
H966 H 0.43195 0.70621 0.87797 0.0
H967 H 0.39486 0.70315 0.82011 0.0
H968 H 0.37006 0.68016 0.83663 0.0
H969 H 0.3419 0.64075 0.90521 0.0
H970 H 0.36166 0.70271 0.893 0.0
O971 O 0.38635 0.64488 0.89162 0.0
H972 H 0.31785 0.65325 0.93049 0.0
H973 H 0.33778 0.71521 0.91872 0.0
C974 C 0.35544 0.64557 0.85953 0.0
C975 C 0.36416 0.62844 0.85045 0.0
C976 C 0.35187 0.61497 0.83799 0.0
C977 C 0.33066 0.61845 0.83437 0.0
C978 C 0.32209 0.63605 0.84276 0.0
C979 C 0.33445 0.64962 0.85509 0.0
C980 C 0.38686 0.67989 0.86675 0.0
C981 C 0.40416 0.68783 0.87834 0.0
C982 C 0.41832 0.70086 0.86893 0.0
C983 C 0.4153 0.70633 0.8478 0.0
C984 C 0.39747 0.69911 0.83644 0.0
C985 C 0.38334 0.68599 0.84586 0.0
C986 C 0.35353 0.67079 0.89724 0.0
C987 C 0.34112 0.65704 0.90805 0.0
C988 C 0.32741 0.66414 0.92244 0.0
C989 C 0.32605 0.68513 0.92645 0.0
C990 C 0.33863 0.69895 0.9158 0.0
C991 C 0.35224 0.69182 0.90117 0.0
P992 P 0.38891 0.37648 0.87549 0.0
H993 H 0.42495 0.39303 0.85578 0.0
H994 H 0.44767 0.37931 0.82982 0.0
H995 H 0.41186 0.32312 0.82743 0.0
H996 H 0.38868 0.33711 0.85292 0.0
H997 H 0.39381 0.41978 0.86735 0.0
H998 H 0.37523 0.44353 0.84414 0.0
H999 H 0.33027 0.39624 0.82732 0.0
H1000 H 0.34944 0.37203 0.85027 0.0
H1001 H 0.40478 0.33972 0.89516 0.0
H1002 H 0.34658 0.37083 0.89062 0.0
O1003 O 0.40383 0.38985 0.89281 0.0
H1004 H 0.39048 0.31513 0.91962 0.0
H1005 H 0.33213 0.34586 0.91496 0.0
C1006 C 0.40553 0.36585 0.85672 0.0
C1007 C 0.42202 0.37773 0.84974 0.0
C1008 C 0.43492 0.36996 0.83491 0.0
C1009 C 0.43154 0.35015 0.8269 0.0
C1010 C 0.41478 0.33839 0.83357 0.0
C1011 C 0.40167 0.34631 0.8482 0.0
C1012 C 0.37264 0.39428 0.86112 0.0
C1013 C 0.37974 0.41452 0.85906 0.0
C1014 C 0.36922 0.42808 0.84567 0.0
C1015 C 0.35135 0.4217 0.83403 0.0
C1016 C 0.344 0.40149 0.83623 0.0
C1017 C 0.35479 0.38776 0.84946 0.0
C1018 C 0.37658 0.35676 0.89049 0.0
C1019 C 0.38875 0.34094 0.89896 0.0
C1020 C 0.38066 0.32697 0.91302 0.0
C1021 C 0.36025 0.32863 0.91901 0.0
C1022 C 0.34788 0.34425 0.91036 0.0
C1023 C 0.35608 0.35839 0.89636 0.0
Cu1024 Cu 0.28985 0.25612 0.02148 0.0
N1025 N 0.31343 0.25866 0.00586 0.0
N1026 N 0.33342 0.27274 0.98211 0.0
C1027 C 0.31451 0.27202 0.9899 0.0
C1028 C 0.34486 0.25942 0.99359 0.0
C1029 C 0.33248 0.25077 0.00835 0.0
O1030 O 0.26719 0.25289 1.0002 0.0
C1031 C 0.27842 0.28635 0.05244 0.0
O1032 O 0.25904 0.28018 0.05027 0.0
H1033 H 0.30183 0.28156 0.98454 0.0
H1034 H 0.33736 0.24022 0.0205 0.0
N1035 N 0.28906 0.2338 0.03983 0.0
N1036 N 0.27757 0.21535 0.06634 0.0
C1037 C 0.27392 0.23111 0.05328 0.0
C1038 C 0.30266 0.21887 0.04437 0.0
C1039 C 0.29559 0.20744 0.06083 0.0
C1040 C 0.26604 0.23515 0.99176 0.0
O1041 O 0.27802 0.22074 0.99952 0.0
H1042 H 0.26069 0.24089 0.05391 0.0
H1043 H 0.31691 0.21667 0.03671 0.0
O1044 O 0.29154 0.27987 0.03997 0.0
H1045 H 0.36114 0.25675 0.99191 0.0
H1046 H 0.30334 0.19481 0.0686 0.0
Cu1047 Cu 0.77378 0.26466 0.03321 0.0
N1048 N 0.75143 0.27235 0.05089 0.0
N1049 N 0.73389 0.28978 0.07385 0.0
C1050 C 0.75004 0.29011 0.06136 0.0
C1051 C 0.72472 0.27126 0.0711 0.0
C1052 C 0.73562 0.26048 0.05684 0.0
O1053 O 0.78758 0.24912 0.0578 0.0
C1054 C 0.76284 0.29575 1.00109 0.0
O1055 O 0.77737 0.30712 0.01058 0.0
H1056 H 0.76096 0.30274 0.06037 0.0
H1057 H 0.73266 0.24491 0.05169 0.0
N1058 N 0.79675 0.25771 0.01586 0.0
N1059 N 0.81556 0.24739 0.98969 0.0
C1060 C 0.79626 0.24984 0.99632 0.0
C1061 C 0.81689 0.26045 0.02157 0.0
C1062 C 0.82854 0.25402 0.00548 0.0
C1063 C 0.79575 0.2572 0.07441 0.0
O1064 O 0.79604 0.27716 0.07666 0.0
H1065 H 0.78222 0.24595 0.9872 0.0
H1066 H 0.82267 0.26673 0.03643 0.0
O1067 O 0.75874 0.27803 0.00805 0.0
H1068 H 0.71139 0.26584 0.07915 0.0
H1069 H 0.84524 0.25418 1.00529 0.0
Cu1070 Cu 0.75816 0.78549 0.98835 0.0
N1071 N 0.76077 0.80889 0.97185 0.0
N1072 N 0.77319 0.83009 0.94805 0.0
C1073 C 0.7738 0.81111 0.95621 0.0
C1074 C 0.75934 0.84028 0.95891 0.0
C1075 C 0.7517 0.82714 0.97366 0.0
O1076 O 0.76013 0.7618 0.97011 0.0
C1077 C 0.77572 0.80107 0.02541 0.0
O1078 O 0.75923 0.8124 0.02315 0.0
H1079 H 0.78398 0.79929 0.95132 0.0
H1080 H 0.74072 0.8308 0.98522 0.0
N1081 N 0.73256 0.78347 1.00043 0.0
N1082 N 0.71026 0.77497 0.02447 0.0
C1083 C 0.72927 0.77224 0.01757 0.0
C1084 C 0.71479 0.79337 0.99607 0.0
C1085 C 0.70094 0.78818 0.01104 0.0
C1086 C 0.74623 0.7606 0.9553 0.0
O1087 O 0.73221 0.77484 0.95354 0.0
H1088 H 0.74091 0.76286 0.02534 0.0
H1089 H 0.71232 0.80413 0.98341 0.0
O1090 O 0.77894 0.78752 0.01161 0.0
H1091 H 0.75542 0.85616 0.95661 0.0
H1092 H 0.68567 0.79429 0.01254 0.0
Cu1093 Cu 0.24968 0.75159 0.02701 0.0
N1094 N 0.22679 0.74987 0.04354 0.0
N1095 N 0.20501 0.76028 0.06713 0.0
C1096 C 0.222 0.76491 0.05672 0.0
C1097 C 0.19875 0.74156 0.06034 0.0
C1098 C 0.21235 0.73508 0.0458 0.0
O1099 O 0.27355 0.75196 0.04682 0.0
C1100 C 0.25157 0.7777 0.99115 0.0
O1101 O 0.26669 0.76622 0.98543 0.0
H1102 H 0.23078 0.77907 0.05858 0.0
H1103 H 0.21178 0.7206 0.03766 0.0
N1104 N 0.25244 0.72904 0.00937 0.0
N1105 N 0.2673 0.70986 0.9857 0.0
C1106 C 0.27019 0.72439 1.00052 0.0
C1107 C 0.23787 0.71671 1.00003 0.0
C1108 C 0.24704 0.70479 0.98539 0.0
C1109 C 0.27438 0.73577 0.05793 0.0
O1110 O 0.26012 0.72147 0.05466 0.0
H1111 H 0.28468 0.73252 1.00382 0.0
H1112 H 0.22153 0.71733 1.00255 0.0
O1113 O 0.24464 0.77555 0.00932 0.0
H1114 H 0.18537 0.73324 0.06554 0.0
H1115 H 0.23928 0.69422 0.97446 0.0
Cu1116 Cu 0.01278 0.26952 0.25998 0.0
N1117 N 0.02777 0.26814 0.2358 0.0
N1118 N 0.05286 0.25884 0.21536 0.0
C1119 C 0.0452 0.25742 0.23447 0.0
C1120 C 0.03973 0.27072 0.204 0.0
C1121 C 0.02416 0.27645 0.21672 0.0
O1122 O 0.0335 0.26918 0.28319 0.0
C1123 C 0.98956 0.23471 0.24505 0.0
O1124 O 1.00272 0.2344 0.23015 0.0
H1125 H 0.0522 0.24878 0.24733 0.0
H1126 H 0.01109 0.28587 0.21233 0.0
N1127 N 0.9978 0.29361 0.26133 0.0
N1128 N 0.97508 0.31584 0.27257 0.0
C1129 C 0.98234 0.29669 0.27422 0.0
C1130 C 1.00026 0.31139 0.25106 0.0
C1131 C 0.98626 0.32519 0.25804 0.0
C1132 C 0.04535 0.28492 0.28488 0.0
O1133 O 0.04185 0.30048 0.27233 0.0
H1134 H 0.97685 0.2853 0.28498 0.0
H1135 H 0.01178 0.31428 0.23971 0.0
O1136 O 0.99225 0.24733 0.26017 0.0
H1137 H 0.04136 0.27494 0.1878 0.0
H1138 H 0.98463 0.34095 0.25318 0.0
Cu1139 Cu 0.75657 0.9948 0.26759 0.0
N1140 N 0.78073 0.0109 0.26959 0.0
N1141 N 0.80182 0.03657 0.26119 0.0
C1142 C 0.78476 0.02554 0.25551 0.0
C1143 C 0.80913 0.02851 0.27943 0.0
C1144 C 0.79606 0.01254 0.28458 0.0
O1145 O 0.73448 0.01481 0.26423 0.0
C1146 C 0.77437 0.96285 0.24762 0.0
O1147 O 0.78472 0.96284 0.26582 0.0
H1148 H 0.77505 0.02839 0.24159 0.0
H1149 H 0.79747 1.00314 0.29844 0.0
N1150 N 0.75175 0.97893 0.2914 0.0
N1151 N 0.73902 0.95368 0.31071 0.0
C1152 C 0.73992 0.96176 0.29138 0.0
C1153 C 0.75838 0.98183 0.31153 0.0
C1154 C 0.7506 0.96617 0.32348 0.0
C1155 C 0.73452 0.02812 0.27887 0.0
O1156 O 0.74783 0.02645 0.29492 0.0
H1157 H 0.73214 0.95528 0.27747 0.0
H1158 H 0.76799 0.9945 0.31721 0.0
O1159 O 0.76006 0.97584 0.24438 0.0
H1160 H 0.82268 0.034 0.28846 0.0
H1161 H 0.75314 0.96413 0.3402 0.0
Cu1162 Cu 0.01078 0.75427 0.26452 0.0
N1163 N 0.99296 0.75762 0.2408 0.0
N1164 N 0.96772 0.77102 0.22034 0.0
C1165 C 0.97823 0.77191 0.23907 0.0
C1166 C 0.97612 0.75566 0.20978 0.0
C1167 C 0.99176 0.7474 0.22246 0.0
O1168 O 0.99316 0.75394 0.28837 0.0
C1169 C 0.04249 0.77598 0.24819 0.0
O1170 O 0.03952 0.76113 0.23448 0.0
H1171 H 0.97531 0.78281 0.25127 0.0
H1172 H 1.00163 0.73497 0.21852 0.0
N1173 N 0.02551 0.72979 0.26467 0.0
N1174 N 0.05109 0.70804 0.272 0.0
C1175 C 0.04421 0.72718 0.27446 0.0
C1176 C 0.02039 0.71157 0.25583 0.0
C1177 C 0.03622 0.69809 0.26032 0.0
C1178 C 0.97858 0.74058 0.28715 0.0
O1179 O 0.97688 0.7285 0.27071 0.0
H1180 H 0.05265 0.73909 0.28318 0.0
H1181 H 0.00617 0.70829 0.24678 0.0
O1182 O 0.03129 0.7764 0.26403 0.0
H1183 H 0.97136 0.75091 0.19402 0.0
H1184 H 0.03686 0.68232 0.25534 0.0
Cu1185 Cu 0.25662 0.02595 0.25966 0.0
N1186 N 0.2811 0.04151 0.26098 0.0
N1187 N 0.30394 0.065 0.2733 0.0
C1188 C 0.28569 0.05551 0.27604 0.0
C1189 C 0.31128 0.05671 0.25592 0.0
C1190 C 0.29709 0.04214 0.24831 0.0
O1191 O 0.23512 0.04622 0.26065 0.0
C1192 C 0.2739 0.99429 0.28083 0.0
O1193 O 0.28584 0.99656 0.26496 0.0
H1194 H 0.27579 0.05875 0.28873 0.0
H1195 H 0.29838 0.03269 0.23457 0.0
N1196 N 0.25244 0.0106 0.23506 0.0
N1197 N 0.23943 0.98573 0.21418 0.0
C1198 C 0.2411 0.99317 0.23382 0.0
C1199 C 0.25812 0.01433 0.21542 0.0
C1200 C 0.25005 0.99892 0.20243 0.0
C1201 C 0.21792 0.04522 0.25017 0.0
O1202 O 0.21129 0.0277 0.24212 0.0
H1203 H 0.23363 0.9864 0.24697 0.0
H1204 H 0.26691 0.02761 0.21076 0.0
O1205 O 0.25873 1.00627 0.28239 0.0
H1206 H 0.32581 0.06088 0.24931 0.0
H1207 H 0.2514 0.99774 0.18568 0.0
Cu1208 Cu 0.01318 0.7713 0.75758 0.0
N1209 N 0.02696 0.76685 0.7331 0.0
N1210 N 0.05107 0.75536 0.71258 0.0
C1211 C 0.04521 0.75742 0.73237 0.0
C1212 C 0.03599 0.76376 0.70027 0.0
C1213 C 0.02107 0.77089 0.71303 0.0
O1214 O 0.03521 0.77307 0.77966 0.0
C1215 C 0.97695 0.75068 0.74574 0.0
O1216 O 0.97613 0.76625 0.73282 0.0
H1217 H 0.05396 0.75197 0.74606 0.0
H1218 H 0.00691 0.77834 0.70801 0.0
N1219 N 0.99949 0.79618 0.75668 0.0
N1220 N 0.97645 0.81976 0.76376 0.0
C1221 C 0.98322 0.80081 0.76798 0.0
C1222 C 1.00315 0.81283 0.74497 0.0
C1223 C 0.98887 0.82749 0.74935 0.0
C1224 C 0.03445 0.78313 0.79667 0.0
O1225 O 0.01659 0.78974 0.8025 0.0
H1226 H 0.97652 0.79053 0.77913 0.0
H1227 H 0.0153 0.81418 0.73405 0.0
O1228 O 0.99216 0.7495 0.7592 0.0
H1229 H 0.03582 0.76461 0.68336 0.0
H1230 H 0.98771 0.84262 0.7426 0.0
Cu1231 Cu 0.27012 0.01103 0.784 0.0
N1232 N 0.29476 0.02626 0.78446 0.0
N1233 N 0.31689 0.04988 0.77344 0.0
C1234 C 0.29796 0.04131 0.77062 0.0
C1235 C 0.32619 0.03984 0.78963 0.0
C1236 C 0.31243 0.02516 0.79644 0.0
O1237 O 0.2484 0.03152 0.78398 0.0
C1238 C 0.28543 0.9791 0.76228 0.0
O1239 O 0.29692 0.97886 0.77979 0.0
H1240 H 0.28672 0.04566 0.7584 0.0
H1241 H 0.31528 0.01427 0.80891 0.0
N1242 N 0.2667 0.99415 0.80721 0.0
N1243 N 0.25432 0.96783 0.82514 0.0
C1244 C 0.25342 0.97809 0.80691 0.0
C1245 C 0.27622 0.99413 0.82645 0.0
C1246 C 0.26861 0.97777 0.83758 0.0
C1247 C 0.24992 0.04348 0.79984 0.0
O1248 O 0.26456 0.04037 0.81439 0.0
H1249 H 0.24354 0.97377 0.79342 0.0
H1250 H 0.28796 1.00506 0.83194 0.0
O1251 O 0.27135 0.9925 0.75998 0.0
H1252 H 0.34184 0.0427 0.79578 0.0
H1253 H 0.27335 0.97332 0.85337 0.0
Cu1254 Cu 0.02531 0.27774 0.77629 0.0
N1255 N 0.0103 0.30181 0.775 0.0
N1256 N 0.9868 0.32354 0.7622 0.0
C1257 C 0.99486 0.30486 0.76055 0.0
C1258 C 0.99754 0.33281 0.77824 0.0
C1259 C 0.01217 0.31929 0.78615 0.0
O1260 O 1.005 0.2555 0.77612 0.0
C1261 C 0.05778 0.29268 0.75533 0.0
O1262 O 0.0589 0.3039 0.77239 0.0
H1263 H 0.98985 0.29368 0.74878 0.0
H1264 H 0.02356 0.32217 0.79879 0.0
N1265 N 0.04222 0.27458 0.80052 0.0
N1266 N 0.06788 0.26179 0.82068 0.0
C1267 C 0.05802 0.2615 0.80169 0.0
C1268 C 0.04196 0.28335 0.81959 0.0
C1269 C 0.05794 0.27547 0.83213 0.0
C1270 C 0.99265 0.25671 0.79097 0.0
O1271 O 0.99456 0.27215 0.80409 0.0
H1272 H 0.06226 0.25197 0.7888 0.0
H1273 H 0.03095 0.29457 0.82408 0.0
O1274 O 0.04361 0.27896 0.75307 0.0
H1275 H 0.99523 0.34828 0.78351 0.0
H1276 H 0.06202 0.27947 0.84825 0.0
Cu1277 Cu 0.75096 0.04076 0.7539 0.0
N1278 N 0.75493 0.05704 0.77776 0.0
N1279 N 0.77077 0.0794 0.79972 0.0
C1280 C 0.76943 0.07194 0.78006 0.0
C1281 C 0.75656 0.06891 0.81027 0.0
C1282 C 0.74677 0.05505 0.79662 0.0
O1283 O 0.75103 0.05904 0.72985 0.0
C1284 C 0.77128 0.00767 0.77044 0.0
O1285 O 0.75526 0.00834 0.78219 0.0
H1286 H 0.77959 0.07647 0.7679 0.0
H1287 H 0.73524 0.04371 0.80045 0.0
N1288 N 0.72577 0.02643 0.75321 0.0
N1289 N 0.70272 1.00145 0.7461 0.0
C1290 C 0.72208 0.00839 0.7435 0.0
C1291 C 0.70807 0.03107 0.76219 0.0
C1292 C 0.69374 0.01559 0.75779 0.0
C1293 C 0.73764 0.07309 0.72996 0.0
O1294 O 0.72486 0.07358 0.74524 0.0
H1295 H 0.73342 1.00039 0.73487 0.0
H1296 H 0.70578 0.04465 0.77137 0.0
O1297 O 0.77288 0.02072 0.75576 0.0
H1298 H 0.75407 0.07061 0.82678 0.0
H1299 H 0.67805 0.01468 0.76284 0.0
Cu1300 Cu 0.26726 0.76412 0.50627 0.0
N1301 N 0.29054 0.76889 0.52415 0.0
N1302 N 0.30963 0.78408 0.54992 0.0
C1303 C 0.29039 0.77994 0.54191 0.0
C1304 C 0.32248 0.77525 0.53679 0.0
C1305 C 0.31063 0.76586 0.52085 0.0
O1306 O 0.2437 0.76227 0.52377 0.0
C1307 C 0.27992 0.78576 0.47237 0.0
O1308 O 0.29247 0.77024 0.47203 0.0
H1309 H 0.27653 0.78591 0.54819 0.0
H1310 H 0.31628 0.7583 0.50728 0.0
N1311 N 0.26825 0.73981 0.49109 0.0
N1312 N 0.26086 0.7177 0.46513 0.0
C1313 C 0.25559 0.73523 0.47436 0.0
C1314 C 0.28192 0.72453 0.49263 0.0
C1315 C 0.2774 0.71083 0.4765 0.0
C1316 C 0.24505 0.74819 0.53747 0.0
O1317 O 0.26103 0.73608 0.53778 0.0
H1318 H 0.24329 0.74501 0.46851 0.0
H1319 H 0.29462 0.72375 0.50422 0.0
O1320 O 0.26656 0.78648 0.48629 0.0
H1321 H 0.33918 0.77624 0.53822 0.0
H1322 H 0.28591 0.69725 0.473 0.0
Cu1323 Cu 0.75833 0.77677 0.53581 0.0
N1324 N 0.78169 0.77992 0.52 0.0
N1325 N 0.80364 0.77218 0.49548 0.0
C1326 C 0.78505 0.76823 0.50321 0.0
C1327 C 0.81247 0.78691 0.50787 0.0
C1328 C 0.79883 0.7917 0.52305 0.0
O1329 O 0.73508 0.77387 0.51536 0.0
C1330 C 0.77778 0.75667 0.56855 0.0
O1331 O 0.78633 0.77496 0.57052 0.0
H1332 H 0.77438 0.75648 0.49722 0.0
H1333 H 0.8015 0.80247 0.53578 0.0
N1334 N 0.75302 0.79915 0.5529 0.0
N1335 N 0.73782 0.81717 0.57733 0.0
C1336 C 0.74035 0.7985 0.56898 0.0
C1337 C 0.75879 0.81891 0.5511 0.0
C1338 C 0.74939 0.8301 0.56619 0.0
C1339 C 0.73382 0.78857 0.50227 0.0
O1340 O 0.74703 0.80396 0.50447 0.0
H1341 H 0.73254 0.78473 0.57399 0.0
H1342 H 0.76858 0.82486 0.53925 0.0
O1343 O 0.76392 0.75343 0.55398 0.0
H1344 H 0.82786 0.79327 0.50638 0.0
H1345 H 0.75047 0.84649 0.56847 0.0
Cu1346 Cu 0.77546 0.27201 0.48962 0.0
N1347 N 0.7743 0.24836 0.47278 0.0
N1348 N 0.76272 0.22686 0.44739 0.0
C1349 C 0.76207 0.24601 0.45518 0.0
C1350 C 0.77583 0.2167 0.46053 0.0
C1351 C 0.78296 0.23 0.47618 0.0
O1352 O 0.77612 0.29558 0.47111 0.0
C1353 C 0.75372 0.2554 0.52061 0.0
O1354 O 0.76929 0.24292 0.51961 0.0
H1355 H 0.75242 0.25793 0.44852 0.0
H1356 H 0.7932 0.2263 0.48945 0.0
N1357 N 0.79876 0.27469 0.50816 0.0
N1358 N 0.81783 0.28673 0.53573 0.0
C1359 C 0.80025 0.28861 0.52376 0.0
C1360 C 0.81617 0.26374 0.51024 0.0
C1361 C 0.82798 0.27115 0.52734 0.0
C1362 C 0.79064 0.29543 0.45838 0.0
O1363 O 0.80312 0.27983 0.45841 0.0
H1364 H 0.78854 0.29976 0.52647 0.0
H1365 H 0.81995 0.25118 0.50022 0.0
O1366 O 0.75226 0.27023 0.50772 0.0
H1367 H 0.77966 0.20074 0.45907 0.0
H1368 H 0.84277 0.26553 0.53323 0.0
Cu1369 Cu 0.27454 0.26793 0.53267 0.0
N1370 N 0.27314 0.2922 0.54789 0.0
N1371 N 0.26136 0.31434 0.57081 0.0
C1372 C 0.2603 0.29501 0.56352 0.0
C1373 C 0.27536 0.32416 0.5594 0.0
C1374 C 0.28265 0.31041 0.54521 0.0
O1375 O 0.27773 0.2457 0.55291 0.0
C1376 C 0.24877 0.28015 0.49968 0.0
O1377 O 0.26377 0.29383 0.49881 0.0
H1378 H 0.2499 0.2833 0.569 0.0
H1379 H 0.29359 0.31361 0.53337 0.0
N1380 N 0.29712 0.26701 0.51564 0.0
N1381 N 0.3166 0.25586 0.49032 0.0
C1382 C 0.29782 0.25519 0.49844 0.0
C1383 C 0.31614 0.27549 0.51847 0.0
C1384 C 0.32824 0.26861 0.5028 0.0
C1385 C 0.29267 0.24788 0.56656 0.0
O1386 O 0.30419 0.26457 0.56645 0.0
H1387 H 0.28507 0.24562 0.49246 0.0
H1388 H 0.32107 0.28539 0.53138 0.0
O1389 O 0.24981 0.26655 0.51399 0.0
H1390 H 0.27953 0.34021 0.56086 0.0
H1391 H 0.34443 0.27216 0.50103 0.0
Cu1392 Cu 0.75988 0.50275 0.7611 0.0
N1393 N 0.75506 0.52198 0.73978 0.0
N1394 N 0.76236 0.54999 0.72147 0.0
C1395 C 0.77006 0.53385 0.7321 0.0
C1396 C 0.74165 0.54801 0.72185 0.0
C1397 C 0.73716 0.53064 0.73319 0.0
O1398 O 0.76111 0.51838 0.78729 0.0
C1399 C 0.78713 0.46882 0.75721 0.0
O1400 O 0.77559 0.45941 0.77058 0.0
H1401 H 0.78637 0.53181 0.73592 0.0
H1402 H 0.72204 0.52573 0.73782 0.0
N1403 N 0.73762 0.4843 0.76292 0.0
N1404 N 0.719 0.45834 0.7752 0.0
C1405 C 0.73455 0.47189 0.77933 0.0
C1406 C 0.72318 0.47866 0.74805 0.0
C1407 C 0.71164 0.46256 0.7556 0.0
C1408 C 0.7682 0.53666 0.78793 0.0
O1409 O 0.78232 0.54215 0.77497 0.0
H1410 H 0.74439 0.47189 0.79353 0.0
H1411 H 0.72189 0.485 0.73244 0.0
O1412 O 0.78424 0.48767 0.75321 0.0
H1413 H 0.73071 0.55918 0.7159 0.0
H1414 H 0.69971 0.45381 0.74697 0.0
Cu1415 Cu 0.27333 0.52331 0.76164 0.0
N1416 N 0.29636 0.50646 0.76397 0.0
N1417 N 0.31709 0.48264 0.77795 0.0
C1418 C 0.29808 0.49071 0.77746 0.0
C1419 C 0.32779 0.49361 0.76417 0.0
C1420 C 0.31492 0.50834 0.75552 0.0
O1421 O 0.24908 0.5053 0.7615 0.0
C1422 C 0.29187 0.55572 0.78231 0.0
O1423 O 0.3031 0.55415 0.76587 0.0
H1424 H 0.28595 0.48589 0.78748 0.0
H1425 H 0.31907 0.52008 0.74453 0.0
N1426 N 0.27109 0.53852 0.7369 0.0
N1427 N 0.26026 0.56343 0.71547 0.0
C1428 C 0.25907 0.55502 0.73456 0.0
C1429 C 0.28013 0.53634 0.71853 0.0
C1430 C 0.27346 0.55181 0.70521 0.0
C1431 C 0.24856 0.49226 0.74663 0.0
O1432 O 0.26354 0.49242 0.73355 0.0
H1433 H 0.2498 0.56092 0.74675 0.0
H1434 H 0.29085 0.52444 0.71509 0.0
O1435 O 0.27668 0.5433 0.78426 0.0
H1436 H 0.34391 0.49153 0.76115 0.0
H1437 H 0.27805 0.55447 0.68938 0.0
Cu1438 Cu 0.26319 0.49237 0.2645 0.0
N1439 N 0.24121 0.47365 0.26615 0.0
N1440 N 0.22356 0.44718 0.27885 0.0
C1441 C 0.23942 0.46055 0.28225 0.0
C1442 C 0.21498 0.45193 0.25986 0.0
C1443 C 0.22595 0.4683 0.25201 0.0
O1444 O 0.28709 0.47498 0.26119 0.0
C1445 C 0.26757 0.5278 0.29004 0.0
O1446 O 0.28169 0.53402 0.2774 0.0
H1447 H 0.25009 0.46026 0.29583 0.0
H1448 H 0.22352 0.47519 0.23674 0.0
N1449 N 0.26027 0.51057 0.24173 0.0
N1450 N 0.26847 0.53749 0.22208 0.0
C1451 C 0.27568 0.52232 0.23452 0.0
C1452 C 0.24273 0.51837 0.23305 0.0
C1453 C 0.24776 0.535 0.22089 0.0
C1454 C 0.28836 0.46732 0.24292 0.0
O1455 O 0.2757 0.47376 0.22772 0.0
H1456 H 0.29174 0.52091 0.2398 0.0
H1457 H 0.22732 0.51341 0.23665 0.0
O1458 O 0.26193 0.50905 0.28983 0.0
H1459 H 0.20225 0.44365 0.25195 0.0
H1460 H 0.23704 0.54536 0.2131 0.0
Cu1461 Cu 0.77002 0.55026 0.25956 0.0
N1462 N 0.7944 0.5354 0.26123 0.0
N1463 N 0.81595 0.5111 0.27249 0.0
C1464 C 0.79688 0.51875 0.27337 0.0
C1465 C 0.82605 0.52342 0.25939 0.0
C1466 C 0.81263 0.53848 0.25241 0.0
O1467 O 0.7477 0.52988 0.25748 0.0
C1468 C 0.78436 0.58269 0.28366 0.0
O1469 O 0.79557 0.58478 0.26723 0.0
H1470 H 0.78507 0.51262 0.28309 0.0
H1471 H 0.81604 0.55096 0.24199 0.0
N1472 N 0.7671 0.5668 0.23576 0.0
N1473 N 0.75445 0.59129 0.21475 0.0
C1474 C 0.75419 0.58269 0.23387 0.0
C1475 C 0.77578 0.56528 0.21713 0.0
C1476 C 0.76797 0.58044 0.20408 0.0
C1477 C 0.74909 0.51754 0.24218 0.0
O1478 O 0.76437 0.51991 0.22962 0.0
H1479 H 0.74463 0.58775 0.24621 0.0
H1480 H 0.78677 0.55382 0.2132 0.0
O1481 O 0.771 0.56816 0.28403 0.0
H1482 H 0.84199 0.5218 0.25546 0.0
H1483 H 0.77182 0.58329 0.18806 0.0
Cu1484 Cu 0.524 0.27199 0.75146 0.0
N1485 N 0.50843 0.29552 0.7545 0.0
N1486 N 0.48717 0.31747 0.76863 0.0
C1487 C 0.49654 0.29933 0.77066 0.0
C1488 C 0.4935 0.32563 0.75067 0.0
C1489 C 0.50667 0.31201 0.74194 0.0
O1490 O 0.50454 0.24922 0.74678 0.0
C1491 C 0.554 0.28681 0.78009 0.0
O1492 O 0.54886 0.30369 0.77018 0.0
H1493 H 0.49494 0.28919 0.78384 0.0
H1494 H 0.51455 0.31413 0.7276 0.0
N1495 N 0.53923 0.27309 0.72747 0.0
N1496 N 0.56437 0.26619 0.70614 0.0
C1497 C 0.55802 0.26497 0.72583 0.0
C1498 C 0.53339 0.27938 0.70803 0.0
C1499 C 0.54903 0.27527 0.6948 0.0
C1500 C 0.49051 0.24345 0.75877 0.0
O1501 O 0.49005 0.25095 0.77778 0.0
H1502 H 0.56666 0.25779 0.73868 0.0
H1503 H 0.51856 0.28583 0.70362 0.0
O1504 O 0.54425 0.27021 0.77519 0.0
H1505 H 0.48893 0.34034 0.74441 0.0
H1506 H 0.54899 0.27821 0.67815 0.0
Cu1507 Cu 0.51094 0.75129 0.77626 0.0
N1508 N 0.52782 0.72826 0.77334 0.0
N1509 N 0.55593 0.70878 0.77707 0.0
C1510 C 0.54862 0.72755 0.77246 0.0
C1511 C 0.53918 0.697 0.7803 0.0
C1512 C 0.52191 0.709 0.77794 0.0
O1513 O 0.52749 0.77654 0.77552 0.0
C1514 C 0.47687 0.75276 0.80351 0.0
O1515 O 0.46988 0.76777 0.79173 0.0
H1516 H 0.5585 0.74068 0.77004 0.0
H1517 H 0.50633 0.7044 0.78126 0.0
N1518 N 0.49165 0.75385 0.75365 0.0
N1519 N 0.4665 0.76832 0.73391 0.0
C1520 C 0.48193 0.77135 0.74855 0.0
C1521 C 0.48226 0.73929 0.7415 0.0
C1522 C 0.46667 0.74822 0.72924 0.0
C1523 C 0.5462 0.77895 0.78226 0.0
O1524 O 0.55386 0.76669 0.79682 0.0
H1525 H 0.48528 0.78581 0.75634 0.0
H1526 H 0.48577 0.7232 0.74228 0.0
O1527 O 0.49492 0.74591 0.80099 0.0
H1528 H 0.53956 0.68133 0.7857 0.0
H1529 H 0.45571 0.74045 0.71851 0.0
Cu1530 Cu 0.49669 0.77644 0.26152 0.0
N1531 N 0.47986 0.79912 0.26414 0.0
N1532 N 0.45571 0.81915 0.27651 0.0
C1533 C 0.46416 0.80045 0.27709 0.0
C1534 C 0.46641 0.83003 0.26267 0.0
C1535 C 0.48135 0.81761 0.25505 0.0
O1536 O 0.47877 0.75213 0.26132 0.0
C1537 C 0.52906 0.76426 0.29191 0.0
O1538 O 0.52362 0.74513 0.28807 0.0
H1539 H 0.45937 0.78815 0.28717 0.0
H1540 H 0.49279 0.82188 0.24403 0.0
N1541 N 0.51032 0.77662 0.23643 0.0
N1542 N 0.53462 0.76922 0.21422 0.0
C1543 C 0.52852 0.76754 0.23396 0.0
C1544 C 0.50469 0.78433 0.21749 0.0
C1545 C 0.51972 0.77974 0.20368 0.0
C1546 C 0.46431 0.75217 0.24701 0.0
O1547 O 0.46253 0.76813 0.23465 0.0
H1548 H 0.53706 0.75968 0.24632 0.0
H1549 H 0.49061 0.79255 0.21393 0.0
O1550 O 0.51852 0.77861 0.28358 0.0
H1551 H 0.46386 0.84591 0.25875 0.0
H1552 H 0.51976 0.78376 0.18727 0.0
Cu1553 Cu 0.51911 0.26555 0.25138 0.0
N1554 N 0.5047 0.27072 0.27531 0.0
N1555 N 0.48221 0.26491 0.29993 0.0
C1556 C 0.48848 0.25934 0.28105 0.0
C1557 C 0.49488 0.28046 0.30642 0.0
C1558 C 0.5088 0.28408 0.29107 0.0
O1559 O 0.49974 0.25396 0.22974 0.0
C1560 C 0.54095 0.23201 0.27151 0.0
O1561 O 0.52342 0.22686 0.27966 0.0
H1562 H 0.48207 0.2465 0.27206 0.0
H1563 H 0.5215 0.29503 0.29172 0.0
N1564 N 0.53244 0.28832 0.24003 0.0
N1565 N 0.55713 0.31087 0.23255 0.0
C1566 C 0.54987 0.29814 0.24719 0.0
C1567 C 0.52893 0.29494 0.22024 0.0
C1568 C 0.544 0.30898 0.21567 0.0
C1569 C 0.48114 0.25512 0.22187 0.0
O1570 O 0.47601 0.24254 0.20636 0.0
H1571 H 0.55788 0.2949 0.26206 0.0
H1572 H 0.5169 0.28901 0.20944 0.0
O1573 O 0.54163 0.24693 0.25877 0.0
H1574 H 0.49465 0.28795 0.32151 0.0
H1575 H 0.54597 0.31629 0.2007 0.0
C1576 C 0.26119 0.21067 0.12188 0.0
C1577 C 0.2408 0.20264 0.1184 0.0
C1578 C 0.24621 0.20017 0.08074 0.0
C1579 C 0.2657 0.21003 0.08406 0.0
N1580 N 0.29059 0.22765 0.10699 0.0
N1581 N 0.21284 0.19175 0.09442 0.0
C1582 C 0.27293 0.21602 0.10445 0.0
C1583 C 0.23302 0.19783 0.09778 0.0
N1584 N 0.26952 0.21271 0.14187 0.0
N1585 N 0.24057 0.19278 0.06127 0.0
H1586 H 0.20279 0.1898 0.10653 0.0
H1587 H 0.2056 0.19004 0.0796 0.0
H1588 H 0.25003 0.19443 0.04862 0.0
H1589 H 0.22745 0.18371 0.058 0.0
H1590 H 0.285 0.21648 0.14535 0.0
H1591 H 0.26144 0.2089 0.15505 0.0
H1592 H 0.29552 0.23449 0.12113 0.0
H1593 H 0.29939 0.232 0.09449 0.0
C1594 C 0.80082 0.21349 0.11365 0.0
C1595 C 0.82174 0.21587 0.12104 0.0
C1596 C 0.82575 0.24558 0.09799 0.0
C1597 C 0.80453 0.24383 0.09138 0.0
N1598 N 0.77078 0.22927 0.09677 0.0
N1599 N 0.85281 0.23666 0.12383 0.0
C1600 C 0.79173 0.22869 0.10036 0.0
C1601 C 0.83379 0.23273 0.11432 0.0
N1602 N 0.78982 0.19633 0.11867 0.0
N1603 N 0.83851 0.25874 0.08795 0.0
H1604 H 0.85914 0.22761 0.13587 0.0
H1605 H 0.86145 0.24989 0.12118 0.0
H1606 H 0.83336 0.26828 0.0758 0.0
H1607 H 0.85452 0.25899 0.09043 0.0
H1608 H 0.77533 0.1926 0.11179 0.0
H1609 H 0.79583 0.18496 0.12852 0.0
H1610 H 0.76047 0.21993 0.10452 0.0
H1611 H 0.76354 0.2405 0.08762 0.0
C1612 C 0.82066 0.82019 0.06143 0.0
C1613 C 0.81088 0.81994 0.08083 0.0
C1614 C 0.7815 0.80092 0.06429 0.0
C1615 C 0.78964 0.80423 0.04437 0.0
N1616 N 0.81655 0.81795 0.02354 0.0
N1617 N 0.78107 0.8116 0.10053 0.0
C1618 C 0.80928 0.81386 0.04281 0.0
C1619 C 0.79114 0.8105 0.08228 0.0
N1620 N 0.84091 0.82626 0.0609 0.0
N1621 N 0.76468 0.7883 0.06599 0.0
H1622 H 0.78753 0.81851 0.11409 0.0
H1623 H 0.76569 0.80712 0.10177 0.0
H1624 H 0.75761 0.78079 0.0531 0.0
H1625 H 0.75911 0.78365 0.08026 0.0
H1626 H 0.84953 0.82495 0.04767 0.0
H1627 H 0.84966 0.83093 0.07426 0.0
H1628 H 0.82952 0.82714 0.02126 0.0
H1629 H 0.80888 0.81314 0.00962 0.0
C1630 C 0.1854 0.7807 0.11752 0.0
C1631 C 0.17887 0.80039 0.11091 0.0
C1632 C 0.18682 0.79198 0.07484 0.0
C1633 C 0.19535 0.77329 0.08184 0.0
N1634 N 0.20613 0.75122 0.11021 0.0
N1635 N 0.17723 0.8263 0.08399 0.0
C1636 C 0.19554 0.76798 0.10331 0.0
C1637 C 0.18063 0.80647 0.08973 0.0
N1638 N 0.18137 0.7739 0.13712 0.0
N1639 N 0.18413 0.79559 0.05386 0.0
H1640 H 0.17323 0.83757 0.09452 0.0
H1641 H 0.18032 0.83202 0.06926 0.0
H1642 H 0.18812 0.78499 0.0426 0.0
H1643 H 0.17614 0.80806 0.04767 0.0
H1644 H 0.18392 0.75895 0.14205 0.0
H1645 H 0.17377 0.78268 0.14787 0.0
H1646 H 0.20869 0.7477 0.12599 0.0
H1647 H 0.21391 0.74181 0.10018 0.0
C1648 C 0.23682 0.81388 0.94644 0.0
C1649 C 0.21809 0.8045 0.93845 0.0
C1650 C 0.2201 0.77905 0.96661 0.0
C1651 C 0.23891 0.78834 0.97459 0.0
N1652 N 0.26339 0.81633 0.97471 0.0
N1653 N 0.18984 0.78068 0.94278 0.0
C1654 C 0.24672 0.80633 0.96526 0.0
C1655 C 0.20903 0.78797 0.94924 0.0
N1656 N 0.24533 0.82972 0.9357 0.0
N1657 N 0.21344 0.76095 0.97481 0.0
H1658 H 0.18171 0.7859 0.92941 0.0
H1659 H 0.18123 0.77048 0.95145 0.0
H1660 H 0.22054 0.75416 0.98794 0.0
H1661 H 0.20163 0.75187 0.96792 0.0
H1662 H 0.26006 0.83578 0.9391 0.0
H1663 H 0.23788 0.8364 0.92264 0.0
H1664 H 0.26894 0.8305 0.96996 0.0
H1665 H 0.27084 0.81109 0.98849 0.0
C1666 C 0.2585 0.21605 0.93603 0.0
C1667 C 0.23674 0.21664 0.93266 0.0
C1668 C 0.23374 0.23125 0.96789 0.0
C1669 C 0.2556 0.23149 0.97077 0.0
N1670 N 0.28883 0.22891 0.95571 0.0
N1671 N 0.2037 0.22765 0.94366 0.0
C1672 C 0.26797 0.22532 0.95424 0.0
C1673 C 0.22435 0.22515 0.94809 0.0
N1674 N 0.27013 0.20604 0.92212 0.0
N1675 N 0.22199 0.23601 0.9843 0.0
H1676 H 0.19634 0.22291 0.92955 0.0
H1677 H 0.19415 0.23564 0.95329 0.0
H1678 H 0.22841 0.24092 0.99876 0.0
H1679 H 0.20601 0.23395 0.98402 0.0
H1680 H 0.28573 0.20294 0.92499 0.0
H1681 H 0.26387 0.19922 0.90842 0.0
H1682 H 0.29842 0.22663 0.94336 0.0
H1683 H 0.2963 0.23618 0.96856 0.0
C1684 C 0.82705 0.20984 0.94724 0.0
C1685 C 0.83881 0.22256 0.93418 0.0
C1686 C 0.83112 0.25234 0.9556 0.0
C1687 C 0.82164 0.23922 0.97003 0.0
N1688 N 0.81228 0.20538 0.9811 0.0
N1689 N 0.8531 0.25568 0.92609 0.0
C1690 C 0.81982 0.21794 0.96613 0.0
C1691 C 0.84098 0.24382 0.93828 0.0
N1692 N 0.8227 0.19005 0.94146 0.0
N1693 N 0.83043 0.27298 0.9585 0.0
H1694 H 0.86007 0.25004 0.91296 0.0
H1695 H 0.85725 0.27078 0.92958 0.0
H1696 H 0.82348 0.27946 0.97122 0.0
H1697 H 0.8352 0.28366 0.94762 0.0
H1698 H 0.8125 0.18057 0.94917 0.0
H1699 H 0.82796 0.18357 0.92784 0.0
H1700 H 0.81263 0.1895 0.98034 0.0
H1701 H 0.80706 0.21086 0.99517 0.0
C1702 C 0.7885 0.85255 0.89672 0.0
C1703 C 0.81016 0.85517 0.90067 0.0
C1704 C 0.8071 0.842 0.93634 0.0
C1705 C 0.78575 0.83822 0.93194 0.0
N1706 N 0.75664 0.83636 0.90726 0.0
N1707 N 0.84074 0.84886 0.92264 0.0
C1708 C 0.7766 0.84248 0.91189 0.0
C1709 C 0.81966 0.84882 0.92004 0.0
N1710 N 0.77921 0.86035 0.87886 0.0
N1711 N 0.81514 0.83984 0.95636 0.0
H1712 H 0.85043 0.85366 0.911 0.0
H1713 H 0.84863 0.84249 0.93557 0.0
H1714 H 0.80622 0.83513 0.96866 0.0
H1715 H 0.83013 0.84436 0.96115 0.0
H1716 H 0.76326 0.86088 0.87613 0.0
H1717 H 0.78743 0.8677 0.86735 0.0
H1718 H 0.74955 0.83711 0.8923 0.0
H1719 H 0.74769 0.8289 0.91812 0.0
C1720 C 0.10858 0.25225 0.20292 0.0
C1721 C 0.10932 0.2306 0.20169 0.0
C1722 C 0.07182 0.22832 0.20531 0.0
C1723 C 0.07157 0.24965 0.20895 0.0
N1724 N 0.08945 0.28193 0.21314 0.0
N1725 N 0.09219 0.19766 0.20303 0.0
C1726 C 0.08986 0.26167 0.20807 0.0
C1727 C 0.09103 0.21851 0.20306 0.0
N1728 N 0.12573 0.26375 0.19889 0.0
N1729 N 0.05353 0.21763 0.20376 0.0
H1730 H 0.10592 0.18998 0.20099 0.0
H1731 H 0.07989 0.18794 0.20627 0.0
H1732 H 0.03933 0.22461 0.20537 0.0
H1733 H 0.0522 0.20236 0.19925 0.0
H1734 H 0.12571 0.2796 0.19752 0.0
H1735 H 0.13971 0.25731 0.1952 0.0
H1736 H 0.10262 0.29118 0.21518 0.0
H1737 H 0.0759 0.28923 0.21681 0.0
C1738 C 0.81077 0.09113 0.24443 0.0
C1739 C 0.8245 0.08819 0.22812 0.0
C1740 C 0.82413 0.05118 0.23471 0.0
C1741 C 0.80976 0.05406 0.25032 0.0
N1742 N 0.7871 0.07573 0.26847 0.0
N1743 N 0.84218 0.06547 0.20558 0.0
C1744 C 0.80241 0.07378 0.25472 0.0
C1745 C 0.83062 0.06819 0.22265 0.0
N1746 N 0.80621 0.11054 0.25043 0.0
N1747 N 0.83173 0.0321 0.23174 0.0
H1748 H 0.84734 0.07757 0.19649 0.0
H1749 H 0.8455 0.05124 0.19945 0.0
H1750 H 0.82673 0.01936 0.24003 0.0
H1751 H 0.8438 0.02901 0.22216 0.0
H1752 H 0.79805 0.11387 0.26358 0.0
H1753 H 0.8117 0.12353 0.24292 0.0
H1754 H 0.77932 0.08926 0.27085 0.0
H1755 H 0.78119 0.06331 0.27662 0.0
C1756 C 0.93931 0.81779 0.20112 0.0
C1757 C 0.91901 0.80955 0.19745 0.0
C1758 C 0.93063 0.77651 0.21156 0.0
C1759 C 0.95122 0.78414 0.21299 0.0
N1760 N 0.97588 0.81101 0.20696 0.0
N1761 N 0.89564 0.78043 0.19691 0.0
C1762 C 0.95574 0.80455 0.20725 0.0
C1763 C 0.9147 0.78873 0.20216 0.0
N1764 N 0.94274 0.83836 0.19925 0.0
N1765 N 0.92632 0.75773 0.21972 0.0
H1766 H 0.88357 0.78889 0.19012 0.0
H1767 H 0.8922 0.76487 0.19786 0.0
H1768 H 0.93776 0.74854 0.22664 0.0
H1769 H 0.91138 0.75201 0.22121 0.0
H1770 H 0.9567 0.84561 0.20369 0.0
H1771 H 0.93103 0.84852 0.19496 0.0
H1772 H 0.98048 0.82501 0.20087 0.0
H1773 H 0.9882 0.80159 0.21131 0.0
C1774 C 0.19466 0.95333 0.19257 0.0
C1775 C 0.20241 0.93343 0.19653 0.0
C1776 C 0.23562 0.94841 0.20958 0.0
C1777 C 0.22726 0.96815 0.20725 0.0
N1778 N 0.1985 0.98983 0.19903 0.0
N1779 N 0.22929 0.91174 0.21084 0.0
C1780 C 0.20668 0.97072 0.19938 0.0
C1781 C 0.22269 0.93087 0.20556 0.0
N1782 N 0.1761 0.95558 0.18175 0.0
N1783 N 0.2561 0.94659 0.21529 0.0
H1784 H 0.22027 0.89858 0.20797 0.0
H1785 H 0.24306 0.90894 0.21937 0.0
H1786 H 0.26574 0.95929 0.21841 0.0
H1787 H 0.26388 0.93281 0.21549 0.0
H1788 H 0.17059 0.96959 0.17642 0.0
H1789 H 0.16678 0.94322 0.17664 0.0
H1790 H 0.18292 0.99267 0.19572 0.0
H1791 H 0.20714 1.00286 0.20348 0.0
C1792 C 0.08992 0.78297 0.82013 0.0
C1793 C 0.09287 0.80375 0.82631 0.0
C1794 C 0.05787 0.81121 0.81219 0.0
C1795 C 0.05414 0.79006 0.80793 0.0
N1796 N 0.06541 0.7553 0.81209 0.0
N1797 N 0.0778 0.83646 0.83269 0.0
C1798 C 0.06982 0.77578 0.81319 0.0
C1799 C 0.07622 0.81747 0.82378 0.0
N1800 N 0.10644 0.77028 0.81989 0.0
N1801 N 0.04471 0.82557 0.80396 0.0
H1802 H 0.09089 0.84149 0.84153 0.0
H1803 H 0.06537 0.84634 0.8331 0.0
H1804 H 0.03186 0.82201 0.79412 0.0
H1805 H 0.04788 0.84122 0.8049 0.0
H1806 H 0.10554 0.75566 0.8134 0.0
H1807 H 0.12147 0.77497 0.82435 0.0
H1808 H 0.07563 0.74421 0.81769 0.0
H1809 H 0.05078 0.74947 0.80756 0.0
C1810 C 0.23334 0.09856 0.79954 0.0
C1811 C 0.22048 0.09858 0.81692 0.0
C1812 C 0.22278 0.06118 0.81937 0.0
C1813 C 0.23622 0.06125 0.80249 0.0
N1814 N 0.25065 0.07888 0.77351 0.0
N1815 N 0.19936 0.08001 0.84055 0.0
C1816 C 0.24018 0.07961 0.79151 0.0
C1817 C 0.21398 0.07986 0.82588 0.0
N1818 N 0.23971 0.11676 0.79132 0.0
N1819 N 0.21906 0.04326 0.8296 0.0
H1820 H 0.19296 0.09346 0.84587 0.0
H1821 H 0.19245 0.06689 0.8464 0.0
H1822 H 0.22418 0.0292 0.82434 0.0
H1823 H 0.21158 0.04227 0.84359 0.0
H1824 H 0.251 0.1181 0.78038 0.0
H1825 H 0.23445 0.13086 0.79627 0.0
H1826 H 0.25266 0.09132 0.76367 0.0
H1827 H 0.25585 0.06525 0.76738 0.0
C1828 C 0.96504 0.21311 0.81646 0.0
C1829 C 0.94412 0.21858 0.81206 0.0
C1830 C 0.9553 0.24645 0.7894 0.0
C1831 C 0.97617 0.24127 0.7942 0.0
N1832 N 1.00105 0.21734 0.80805 0.0
N1833 N 0.91897 0.23698 0.79084 0.0
C1834 C 0.98104 0.22368 0.80622 0.0
C1835 C 0.93914 0.23414 0.79733 0.0
N1836 N 0.96965 0.19864 0.83132 0.0
N1837 N 0.95101 0.26363 0.77793 0.0
H1838 H 0.90684 0.22821 0.79645 0.0
H1839 H 0.91435 0.24677 0.77874 0.0
H1840 H 0.96246 0.27225 0.77093 0.0
H1841 H 0.93635 0.26983 0.77605 0.0
H1842 H 0.9846 0.19561 0.83705 0.0
H1843 H 0.95839 0.19043 0.83903 0.0
H1844 H 1.00552 0.20363 0.815 0.0
H1845 H 0.01307 0.22503 0.80094 0.0
C1846 C 0.80905 0.97854 0.80552 0.0
C1847 C 0.81487 0.96268 0.792 0.0
C1848 C 0.79344 0.97733 0.76315 0.0
C1849 C 0.78822 0.99355 0.77655 0.0
N1850 N 0.79477 0.01228 0.80876 0.0
N1851 N 0.81596 0.94879 0.75719 0.0
C1852 C 0.79723 0.99497 0.7972 0.0
C1853 C 0.80812 0.96266 0.77052 0.0
N1854 N 0.814 0.97745 0.82655 0.0
N1855 N 0.78359 0.97534 0.74382 0.0
H1856 H 0.82652 0.93773 0.7622 0.0
H1857 H 0.81332 0.94922 0.741 0.0
H1858 H 0.77298 0.9859 0.73783 0.0
H1859 H 0.78489 0.96258 0.73427 0.0
H1860 H 0.80807 0.98724 0.83751 0.0
H1861 H 0.82271 0.96573 0.83337 0.0
H1862 H 0.80281 0.01523 0.82298 0.0
H1863 H 0.78615 0.02462 0.80319 0.0
C1864 C 0.20245 0.0894 0.21417 0.0
C1865 C 0.19811 0.10445 0.22918 0.0
C1866 C 0.20148 0.07884 0.25716 0.0
C1867 C 0.20874 0.06466 0.24256 0.0
N1868 N 0.21882 0.05734 0.2074 0.0
N1869 N 0.19392 0.11421 0.26501 0.0
C1870 C 0.20965 0.07003 0.22105 0.0
C1871 C 0.19754 0.09932 0.25071 0.0
N1872 N 0.19984 0.09371 0.19329 0.0
N1873 N 0.19808 0.07257 0.2771 0.0
H1874 H 0.19016 0.12911 0.2607 0.0
H1875 H 0.19568 0.11214 0.28114 0.0
H1876 H 0.20075 0.05765 0.28216 0.0
H1877 H 0.19102 0.08152 0.28805 0.0
H1878 H 0.20053 0.08269 0.18159 0.0
H1879 H 0.19511 0.10793 0.18767 0.0
H1880 H 0.22226 0.0616 0.19227 0.0
H1881 H 0.2247 0.04313 0.21156 0.0
C1882 C 0.21047 0.93163 0.83645 0.0
C1883 C 0.22074 0.91261 0.83644 0.0
C1884 C 0.25305 0.93023 0.82802 0.0
C1885 C 0.24318 0.94924 0.82961 0.0
N1886 N 0.21365 0.96871 0.83786 0.0
N1887 N 0.25259 0.89402 0.8359 0.0
C1888 C 0.22218 0.95011 0.83458 0.0
C1889 C 0.24228 0.91196 0.83324 0.0
N1890 N 0.18946 0.93196 0.83746 0.0
N1891 N 0.27252 0.92967 0.82083 0.0
H1892 H 0.24532 0.88034 0.83993 0.0
H1893 H 0.26861 0.89301 0.8359 0.0
H1894 H 0.28078 0.94287 0.81703 0.0
H1895 H 0.27979 0.9162 0.81701 0.0
H1896 H 0.1808 0.94513 0.83543 0.0
H1897 H 0.1804 0.91873 0.83875 0.0
H1898 H 0.19903 0.97056 0.84355 0.0
H1899 H 0.22195 0.9824 0.83636 0.0
C1900 C 0.12335 0.24802 0.83273 0.0
C1901 C 0.12135 0.22645 0.83463 0.0
C1902 C 0.08361 0.22904 0.83095 0.0
C1903 C 0.08583 0.25018 0.82682 0.0
N1904 N 0.10745 0.27954 0.82086 0.0
N1905 N 0.09991 0.19595 0.83361 0.0
C1906 C 0.10562 0.25964 0.82703 0.0
C1907 C 0.10153 0.2168 0.83335 0.0
N1908 N 0.14212 0.25742 0.83686 0.0
N1909 N 0.06426 0.22085 0.83277 0.0
H1910 H 0.1127 0.18653 0.83545 0.0
H1911 H 0.0861 0.18789 0.83057 0.0
H1912 H 0.05097 0.2296 0.83093 0.0
H1913 H 0.06141 0.20595 0.83768 0.0
H1914 H 0.14415 0.27322 0.83779 0.0
H1915 H 0.15545 0.24943 0.8412 0.0
H1916 H 0.12155 0.28675 0.81834 0.0
H1917 H 0.09468 0.28842 0.81666 0.0
C1918 C 0.79457 0.1271 0.82439 0.0
C1919 C 0.81579 0.12193 0.82529 0.0
C1920 C 0.80698 0.08819 0.81047 0.0
C1921 C 0.78598 0.09382 0.80827 0.0
N1922 N 0.76001 0.11942 0.80964 0.0
N1923 N 0.84273 0.09931 0.8156 0.0
C1924 C 0.77983 0.11354 0.81425 0.0
C1925 C 0.82216 0.10297 0.81724 0.0
N1926 N 0.78844 0.14459 0.8338 0.0
N1927 N 0.81226 0.06843 0.80689 0.0
H1928 H 0.85432 0.10983 0.82032 0.0
H1929 H 0.84826 0.08667 0.80787 0.0
H1930 H 0.80144 0.05722 0.8021 0.0
H1931 H 0.82694 0.06274 0.81038 0.0
H1932 H 0.77304 0.14813 0.83561 0.0
H1933 H 0.79883 0.15496 0.8412 0.0
H1934 H 0.75493 0.13427 0.81164 0.0
H1935 H 0.749 0.10974 0.80215 0.0
C1936 C 0.92248 0.83317 0.77752 0.0
C1937 C 0.92683 0.84884 0.79256 0.0
C1938 C 0.96405 0.84432 0.78931 0.0
C1939 C 0.95968 0.82977 0.77327 0.0
N1940 N 0.93541 0.81168 0.75018 0.0
N1941 N 0.95144 0.87158 0.81069 0.0
C1942 C 0.93904 0.82455 0.76684 0.0
C1943 C 0.94755 0.85504 0.7979 0.0
N1944 N 0.90261 0.8262 0.77391 0.0
N1945 N 0.984 0.84731 0.79676 0.0
H1946 H 0.93979 0.87978 0.8174 0.0
H1947 H 0.96606 0.87818 0.81339 0.0
H1948 H 0.99635 0.83969 0.79063 0.0
H1949 H 0.98817 0.85602 0.80998 0.0
H1950 H 0.89858 0.81346 0.76474 0.0
H1951 H 0.89013 0.83234 0.78131 0.0
H1952 H 0.92081 0.80858 0.74327 0.0
H1953 H 0.94734 0.80512 0.74226 0.0
C1954 C 0.79865 0.93946 0.20012 0.0
C1955 C 0.79967 0.91873 0.20662 0.0
C1956 C 0.77836 0.9266 0.23621 0.0
C1957 C 0.78002 0.94776 0.23151 0.0
N1958 N 0.79298 0.97473 0.20983 0.0
N1959 N 0.79143 0.89245 0.23136 0.0
C1960 C 0.79022 0.9543 0.21349 0.0
C1961 C 0.78956 0.91221 0.22469 0.0
N1962 N 0.80563 0.94491 0.18106 0.0
N1963 N 0.76579 0.92032 0.2516 0.0
H1964 H 0.79913 0.8814 0.22312 0.0
H1965 H 0.78655 0.88727 0.24572 0.0
H1966 H 0.75724 0.93052 0.26008 0.0
H1967 H 0.76232 0.90506 0.25465 0.0
H1968 H 0.80347 0.95929 0.17443 0.0
H1969 H 0.81204 0.93447 0.171 0.0
H1970 H 0.8025 0.98052 0.19853 0.0
H1971 H 0.78679 0.98605 0.21901 0.0
C1972 C 0.07062 0.82559 0.2346 0.0
C1973 C 0.08896 0.81728 0.22708 0.0
C1974 C 0.07925 0.78388 0.24124 0.0
C1975 C 0.05928 0.79123 0.24488 0.0
N1976 N 0.03529 0.81908 0.24383 0.0
N1977 N 0.10994 0.78775 0.22152 0.0
C1978 C 0.05485 0.81219 0.24162 0.0
C1979 C 0.09326 0.79626 0.23022 0.0
N1980 N 0.06835 0.8463 0.23502 0.0
N1981 N 0.08482 0.76499 0.24842 0.0
H1982 H 0.12047 0.79609 0.21301 0.0
H1983 H 0.11239 0.77206 0.22124 0.0
H1984 H 0.07498 0.75576 0.2569 0.0
H1985 H 0.09978 0.75947 0.24794 0.0
H1986 H 0.05621 0.8534 0.24206 0.0
H1987 H 0.07973 0.85644 0.23011 0.0
H1988 H 0.03056 0.83359 0.23917 0.0
H1989 H 0.02331 0.80986 0.24897 0.0
C1990 C 0.94919 0.19205 0.23814 0.0
C1991 C 0.93417 0.20221 0.2252 0.0
C1992 C 0.95294 0.23474 0.23102 0.0
C1993 C 0.96941 0.22403 0.24127 0.0
N1994 N 0.98386 0.1927 0.25454 0.0
N1995 N 0.92199 0.23287 0.20809 0.0
C1996 C 0.96763 0.20274 0.245 0.0
C1997 C 0.93593 0.22354 0.22156 0.0
N1998 N 0.94563 0.17227 0.24398 0.0
N1999 N 0.95367 0.25563 0.23016 0.0
H2000 H 0.90914 0.22529 0.20108 0.0
H2001 H 0.92381 0.24776 0.20269 0.0
H2002 H 0.96615 0.26436 0.23629 0.0
H2003 H 0.94123 0.26446 0.22493 0.0
H2004 H 0.955 0.16448 0.2549 0.0
H2005 H 0.93225 0.16409 0.23917 0.0
H2006 H 0.98465 0.17686 0.25559 0.0
H2007 H 0.99713 0.20031 0.26062 0.0
C2008 C 0.22159 0.75214 0.58971 0.0
C2009 C 0.21203 0.73251 0.59088 0.0
C2010 C 0.21909 0.72581 0.55424 0.0
C2011 C 0.22948 0.74503 0.5534 0.0
N2012 N 0.23508 0.77887 0.56767 0.0
N2013 N 0.19688 0.70292 0.57333 0.0
C2014 C 0.22875 0.75905 0.57024 0.0
C2015 C 0.20916 0.72009 0.57275 0.0
N2016 N 0.22494 0.76364 0.60746 0.0
N2017 N 0.21932 0.71284 0.53748 0.0
H2018 H 0.18946 0.69844 0.58673 0.0
H2019 H 0.19267 0.69406 0.56023 0.0
H2020 H 0.22518 0.71724 0.52322 0.0
H2021 H 0.21436 0.69764 0.53782 0.0
H2022 H 0.23407 0.77689 0.60817 0.0
H2023 H 0.21975 0.75925 0.62198 0.0
H2024 H 0.2333 0.79028 0.57876 0.0
H2025 H 0.24011 0.78443 0.55352 0.0
C2026 C 0.81725 0.71969 0.59185 0.0
C2027 C 0.80774 0.71415 0.61058 0.0
C2028 C 0.77632 0.73231 0.59878 0.0
C2029 C 0.78678 0.73981 0.58134 0.0
N2030 N 0.81716 0.74142 0.56112 0.0
N2031 N 0.77866 0.71516 0.63255 0.0
C2032 C 0.80718 0.73355 0.57774 0.0
C2033 C 0.78728 0.7203 0.61415 0.0
N2034 N 0.83587 0.71155 0.58751 0.0
N2035 N 0.75596 0.73678 0.60062 0.0
H2036 H 0.78599 0.70583 0.64377 0.0
H2037 H 0.76477 0.72088 0.63731 0.0
H2038 H 0.74773 0.74586 0.58982 0.0
H2039 H 0.74675 0.73043 0.61187 0.0
H2040 H 0.8426 0.71305 0.57315 0.0
H2041 H 0.8441 0.70197 0.59782 0.0
H2042 H 0.83283 0.73967 0.55895 0.0
H2043 H 0.8099 0.75068 0.5498 0.0
C2044 C 0.82574 0.30382 0.59206 0.0
C2045 C 0.83685 0.3225 0.58955 0.0
C2046 C 0.83599 0.31696 0.55142 0.0
C2047 C 0.82419 0.29881 0.5539 0.0
N2048 N 0.8051 0.27624 0.57558 0.0
N2049 N 0.84983 0.34859 0.56682 0.0
C2050 C 0.81825 0.29263 0.57398 0.0
C2051 C 0.84123 0.32956 0.56918 0.0
N2052 N 0.82296 0.29646 0.61174 0.0
N2053 N 0.84241 0.32188 0.532 0.0
H2054 H 0.85385 0.35823 0.57943 0.0
H2055 H 0.85159 0.35555 0.55237 0.0
H2056 H 0.8382 0.31321 0.51871 0.0
H2057 H 0.85286 0.33369 0.52918 0.0
H2058 H 0.81692 0.28198 0.61473 0.0
H2059 H 0.82798 0.30436 0.62528 0.0
H2060 H 0.79827 0.27205 0.58936 0.0
H2061 H 0.79987 0.26756 0.56261 0.0
C2062 C 0.2447 0.33753 0.62114 0.0
C2063 C 0.22313 0.33934 0.6165 0.0
C2064 C 0.22741 0.32637 0.58099 0.0
C2065 C 0.24857 0.32306 0.58618 0.0
N2066 N 0.27694 0.32235 0.61174 0.0
N2067 N 0.19327 0.33203 0.59343 0.0
C2068 C 0.25711 0.32778 0.60645 0.0
C2069 C 0.21428 0.33278 0.59679 0.0
N2070 N 0.2534 0.34573 0.63924 0.0
N2071 N 0.22008 0.324 0.56072 0.0
H2072 H 0.1831 0.33636 0.6047 0.0
H2073 H 0.18586 0.32543 0.5802 0.0
H2074 H 0.22946 0.31953 0.54882 0.0
H2075 H 0.20531 0.32818 0.55536 0.0
H2076 H 0.26928 0.34677 0.64253 0.0
H2077 H 0.24479 0.35295 0.65036 0.0
H2078 H 0.28355 0.32339 0.6269 0.0
H2079 H 0.28629 0.31523 0.60119 0.0
C2080 C 0.20477 0.30243 0.46575 0.0
C2081 C 0.20506 0.289 0.44841 0.0
C2082 C 0.22607 0.26533 0.46985 0.0
C2083 C 0.23085 0.28145 0.48429 0.0
N2084 N 0.2225 0.31477 0.49757 0.0
N2085 N 0.20221 0.25284 0.44212 0.0
C2086 C 0.21943 0.29982 0.48279 0.0
C2087 C 0.21148 0.26878 0.4529 0.0
N2088 N 0.18836 0.31488 0.46779 0.0
N2089 N 0.23634 0.2473 0.47135 0.0
H2090 H 0.19008 0.25518 0.43103 0.0
H2091 H 0.20483 0.23758 0.44587 0.0
H2092 H 0.24701 0.24401 0.48355 0.0
H2093 H 0.23511 0.23612 0.45971 0.0
H2094 H 0.18651 0.32395 0.48094 0.0
H2095 H 0.17504 0.31324 0.458 0.0
H2096 H 0.21623 0.32928 0.49585 0.0
H2097 H 0.23195 0.31286 0.5111 0.0
C2098 C 0.23307 0.68199 0.42642 0.0
C2099 C 0.23319 0.69406 0.40795 0.0
C2100 C 0.25386 0.72046 0.42696 0.0
C2101 C 0.25195 0.70939 0.44578 0.0
N2102 N 0.23705 0.68139 0.46438 0.0
N2103 N 0.24017 0.72657 0.39165 0.0
C2104 C 0.2408 0.69061 0.44578 0.0
C2105 C 0.24259 0.71384 0.40851 0.0
N2106 N 0.22628 0.66211 0.42535 0.0
N2107 N 0.26711 0.7369 0.42659 0.0
H2108 H 0.23164 0.72245 0.37798 0.0
H2109 H 0.24491 0.74186 0.39198 0.0
H2110 H 0.27607 0.74171 0.43975 0.0
H2111 H 0.27073 0.74445 0.41289 0.0
H2112 H 0.2278 0.65199 0.43787 0.0
H2113 H 0.22071 0.6552 0.41144 0.0
H2114 H 0.22722 0.66874 0.46566 0.0
H2115 H 0.24241 0.68749 0.47876 0.0
C2116 C 0.82483 0.76009 0.443 0.0
C2117 C 0.82872 0.7389 0.44546 0.0
C2118 C 0.8183 0.74057 0.48177 0.0
C2119 C 0.81276 0.76123 0.47877 0.0
N2120 N 0.80766 0.78998 0.45593 0.0
N2121 N 0.82557 0.70806 0.46583 0.0
C2122 C 0.81521 0.77083 0.45919 0.0
C2123 C 0.82444 0.72887 0.46449 0.0
N2124 N 0.83089 0.77006 0.42551 0.0
N2125 N 0.8183 0.73236 0.50139 0.0
H2126 H 0.82976 0.69889 0.45342 0.0
H2127 H 0.82057 0.6997 0.47852 0.0
H2128 H 0.81416 0.74072 0.51436 0.0
H2129 H 0.82419 0.71805 0.50516 0.0
H2130 H 0.83043 0.78586 0.42376 0.0
H2131 H 0.83788 0.76267 0.41334 0.0
H2132 H 0.80696 0.79713 0.44138 0.0
H2133 H 0.80056 0.79811 0.46755 0.0
C2134 C 0.81577 0.34369 0.43784 0.0
C2135 C 0.81297 0.33996 0.41598 0.0
C2136 C 0.78955 0.31109 0.42279 0.0
C2137 C 0.79489 0.31294 0.44448 0.0
N2138 N 0.81291 0.33059 0.47316 0.0
N2139 N 0.79712 0.32064 0.38721 0.0
C2140 C 0.80765 0.32938 0.4522 0.0
C2141 C 0.79958 0.32396 0.40831 0.0
N2142 N 0.8263 0.36087 0.4448 0.0
N2143 N 0.77482 0.29699 0.41617 0.0
H2144 H 0.80354 0.33032 0.37622 0.0
H2145 H 0.78954 0.30792 0.38052 0.0
H2146 H 0.76725 0.28753 0.42656 0.0
H2147 H 0.76884 0.29577 0.4008 0.0
H2148 H 0.82722 0.3656 0.46036 0.0
H2149 H 0.83288 0.37137 0.43472 0.0
H2150 H 0.82419 0.34054 0.47964 0.0
H2151 H 0.80659 0.32085 0.48415 0.0
C2152 C 0.10409 0.74903 0.69213 0.0
C2153 C 0.10752 0.72811 0.69684 0.0
C2154 C 0.07212 0.72466 0.70846 0.0
C2155 C 0.06971 0.74603 0.70619 0.0
N2156 N 0.08404 0.77914 0.69862 0.0
N2157 N 0.0957 0.69627 0.71141 0.0
C2158 C 0.08583 0.75837 0.69863 0.0
C2159 C 0.09172 0.71592 0.70542 0.0
N2160 N 0.11809 0.75983 0.68105 0.0
N2161 N 0.05545 0.71277 0.71308 0.0
H2162 H 0.10982 0.68933 0.7093 0.0
H2163 H 0.08559 0.68732 0.71981 0.0
H2164 H 0.04092 0.71887 0.71516 0.0
H2165 H 0.05552 0.69686 0.71304 0.0
H2166 H 0.11547 0.77452 0.67535 0.0
H2167 H 0.13155 0.75344 0.67585 0.0
H2168 H 0.09612 0.78917 0.69546 0.0
H2169 H 0.07092 0.78642 0.70352 0.0
C2170 C 0.79408 0.58645 0.69015 0.0
C2171 C 0.80094 0.60058 0.70603 0.0
C2172 C 0.77908 0.58316 0.73099 0.0
C2173 C 0.77407 0.56787 0.71576 0.0
N2174 N 0.77767 0.55357 0.68167 0.0
N2175 N 0.80165 0.61158 0.74206 0.0
C2176 C 0.78177 0.5692 0.69552 0.0
C2177 C 0.79378 0.59881 0.72659 0.0
N2178 N 0.7989 0.58985 0.66986 0.0
N2179 N 0.76957 0.58273 0.74957 0.0
H2180 H 0.81231 0.62329 0.73936 0.0
H2181 H 0.7988 0.60975 0.75783 0.0
H2182 H 0.75893 0.57132 0.75323 0.0
H2183 H 0.77091 0.59438 0.76068 0.0
H2184 H 0.79275 0.58126 0.65725 0.0
H2185 H 0.80781 0.60235 0.66533 0.0
H2186 H 0.78461 0.55228 0.66742 0.0
H2187 H 0.76815 0.54113 0.68512 0.0
C2188 C 0.95956 0.3441 0.71362 0.0
C2189 C 0.93911 0.34583 0.72039 0.0
C2190 C 0.95023 0.33213 0.7548 0.0
C2191 C 0.97083 0.33199 0.74853 0.0
N2192 N 0.99599 0.34048 0.72356 0.0
N2193 N 0.91543 0.34454 0.74833 0.0
C2194 C 0.97574 0.33879 0.72837 0.0
C2195 C 0.93454 0.34067 0.74126 0.0
N2196 N 0.96336 0.34679 0.69296 0.0
N2197 N 0.94565 0.32349 0.77348 0.0
H2198 H 0.90357 0.35084 0.73889 0.0
H2199 H 0.9118 0.34305 0.76394 0.0
H2200 H 0.95697 0.31738 0.78374 0.0
H2201 H 0.93064 0.32102 0.77809 0.0
H2202 H 0.97749 0.34372 0.68667 0.0
H2203 H 0.95186 0.35046 0.68164 0.0
H2204 H 1.0009 0.3472 0.70988 0.0
H2205 H 0.00807 0.33669 0.73419 0.0
C2206 C 0.20778 0.46353 0.71438 0.0
C2207 C 0.20563 0.44537 0.72632 0.0
C2208 C 0.22872 0.45998 0.75436 0.0
C2209 C 0.23084 0.47801 0.74232 0.0
N2210 N 0.21828 0.49931 0.71402 0.0
N2211 N 0.20999 0.42799 0.75939 0.0
C2212 C 0.2189 0.48053 0.72337 0.0
C2213 C 0.21478 0.44417 0.74693 0.0
N2214 N 0.20031 0.46413 0.694 0.0
N2215 N 0.24077 0.45755 0.77231 0.0
H2216 H 0.19987 0.41622 0.75433 0.0
H2217 H 0.2146 0.42707 0.77519 0.0
H2218 H 0.25051 0.46913 0.77851 0.0
H2219 H 0.24191 0.44383 0.78047 0.0
H2220 H 0.2035 0.47605 0.68382 0.0
H2221 H 0.19225 0.45198 0.68663 0.0
H2222 H 0.20838 0.50275 0.70122 0.0
H2223 H 0.22623 0.51203 0.72043 0.0
C2224 C 0.102 0.29326 0.30039 0.0
C2225 C 0.10224 0.29052 0.32239 0.0
C2226 C 0.06485 0.28326 0.32015 0.0
C2227 C 0.06495 0.28481 0.298 0.0
N2228 N 0.08454 0.28624 0.26687 0.0
N2229 N 0.08496 0.27985 0.35309 0.0
C2230 C 0.08381 0.2883 0.28809 0.0
C2231 C 0.08396 0.28454 0.33225 0.0
N2232 N 0.1189 0.30144 0.29125 0.0
N2233 N 0.04648 0.28155 0.32966 0.0
H2234 H 0.09866 0.28097 0.36236 0.0
H2235 H 0.07268 0.27341 0.36081 0.0
H2236 H 0.03226 0.28049 0.3213 0.0
H2237 H 0.04519 0.28262 0.34578 0.0
H2238 H 0.11871 0.30606 0.27566 0.0
H2239 H 0.13264 0.30538 0.2996 0.0
H2240 H 0.09828 0.28622 0.25909 0.0
H2241 H 0.07163 0.28246 0.25721 0.0
C2242 C 0.25548 0.57764 0.31674 0.0
C2243 C 0.2338 0.57876 0.31258 0.0
C2244 C 0.23349 0.54502 0.2959 0.0
C2245 C 0.25521 0.54355 0.30049 0.0
N2246 N 0.28567 0.55616 0.31978 0.0
N2247 N 0.20149 0.56156 0.30354 0.0
C2248 C 0.26579 0.55917 0.31239 0.0
C2249 C 0.22261 0.56174 0.30398 0.0
N2250 N 0.26636 0.5945 0.32396 0.0
N2251 N 0.22334 0.53148 0.28252 0.0
H2252 H 0.19307 0.57367 0.30917 0.0
H2253 H 0.19247 0.54868 0.29954 0.0
H2254 H 0.23021 0.51902 0.27583 0.0
H2255 H 0.20827 0.53358 0.27656 0.0
H2256 H 0.28244 0.59542 0.32492 0.0
H2257 H 0.25934 0.60817 0.32768 0.0
H2258 H 0.29365 0.5661 0.33016 0.0
H2259 H 0.29346 0.54264 0.31715 0.0
C2260 C 0.95151 0.72807 0.33736 0.0
C2261 C 0.93083 0.72617 0.32902 0.0
C2262 C 0.9415 0.74057 0.2958 0.0
C2263 C 0.96252 0.73901 0.30289 0.0
N2264 N 0.98788 0.7301 0.33012 0.0
N2265 N 0.90623 0.72891 0.29954 0.0
C2266 C 0.96766 0.73275 0.32372 0.0
C2267 C 0.92577 0.73221 0.3081 0.0
N2268 N 0.95565 0.72556 0.35836 0.0
N2269 N 0.9366 0.7503 0.27735 0.0
H2270 H 0.89424 0.7227 0.30791 0.0
H2271 H 0.9023 0.73078 0.28368 0.0
H2272 H 0.9478 0.75695 0.26823 0.0
H2273 H 0.92153 0.75364 0.27222 0.0
H2274 H 0.97006 0.72864 0.36574 0.0
H2275 H 0.94414 0.72221 0.36873 0.0
H2276 H 0.99247 0.7232 0.34423 0.0
H2277 H 1.00014 0.73355 0.3207 0.0
C2278 C 0.83638 0.45882 0.28598 0.0
C2279 C 0.83714 0.45983 0.30822 0.0
C2280 C 0.82664 0.49564 0.30639 0.0
C2281 C 0.82396 0.49401 0.28436 0.0
N2282 N 0.82287 0.47336 0.25325 0.0
N2283 N 0.82916 0.47794 0.33963 0.0
C2284 C 0.82791 0.47538 0.27415 0.0
C2285 C 0.83117 0.47791 0.31846 0.0
N2286 N 0.8444 0.4424 0.27617 0.0
N2287 N 0.82547 0.51435 0.31567 0.0
H2288 H 0.8319 0.46511 0.34897 0.0
H2289 H 0.82289 0.49004 0.34765 0.0
H2290 H 0.82274 0.52765 0.30706 0.0
H2291 H 0.8292 0.51699 0.33149 0.0
H2292 H 0.8462 0.44179 0.26009 0.0
H2293 H 0.85088 0.43006 0.28428 0.0
H2294 H 0.82332 0.45952 0.24524 0.0
H2295 H 0.81658 0.48525 0.24428 0.0
C2296 C 0.21798 0.59969 0.69903 0.0
C2297 C 0.22951 0.61821 0.69719 0.0
C2298 C 0.26144 0.60036 0.70761 0.0
C2299 C 0.25012 0.58172 0.70821 0.0
N2300 N 0.21861 0.56261 0.70138 0.0
N2301 N 0.26263 0.63543 0.69552 0.0
C2302 C 0.22865 0.5811 0.70294 0.0
C2303 C 0.2514 0.61832 0.70023 0.0
N2304 N 0.19687 0.6 0.69791 0.0
N2305 N 0.2816 0.60101 0.71495 0.0
H2306 H 0.25585 0.6488 0.68982 0.0
H2307 H 0.27869 0.6358 0.69544 0.0
H2308 H 0.28932 0.58808 0.72047 0.0
H2309 H 0.29012 0.61454 0.71719 0.0
H2310 H 0.18758 0.58743 0.7013 0.0
H2311 H 0.18855 0.61331 0.6951 0.0
H2312 H 0.20336 0.56075 0.69567 0.0
H2313 H 0.22618 0.54886 0.70421 0.0
C2314 C 0.22578 0.395 0.30393 0.0
C2315 C 0.2084 0.39572 0.31659 0.0
C2316 C 0.20222 0.43121 0.30555 0.0
C2317 C 0.21854 0.42987 0.29174 0.0
N2318 N 0.24479 0.4105 0.27605 0.0
N2319 N 0.17912 0.41369 0.3287 0.0
C2320 C 0.23011 0.41178 0.29056 0.0
C2321 C 0.19637 0.41366 0.31724 0.0
N2322 N 0.23823 0.37832 0.30486 0.0
N2323 N 0.19271 0.4495 0.30771 0.0
H2324 H 0.17492 0.40143 0.3381 0.0
H2325 H 0.16839 0.42535 0.32818 0.0
H2326 H 0.19662 0.46239 0.29905 0.0
H2327 H 0.18199 0.45237 0.31888 0.0
H2328 H 0.25232 0.37763 0.2978 0.0
H2329 H 0.23519 0.36548 0.31392 0.0
H2330 H 0.25242 0.39715 0.27256 0.0
H2331 H 0.24843 0.4227 0.26637 0.0
C2332 C 0.0915 0.68187 0.30663 0.0
C2333 C 0.10944 0.68579 0.29529 0.0
C2334 C 0.0883 0.70294 0.26771 0.0
C2335 C 0.0707 0.70016 0.27969 0.0
N2336 N 0.05517 0.68891 0.31099 0.0
N2337 N 0.12561 0.70132 0.26594 0.0
C2338 C 0.0722 0.69007 0.29927 0.0
C2339 C 0.10802 0.69666 0.27602 0.0
N2340 N 0.09293 0.67008 0.32428 0.0
N2341 N 0.08591 0.71127 0.24817 0.0
H2342 H 0.14018 0.69626 0.27107 0.0
H2343 H 0.12608 0.71108 0.25313 0.0
H2344 H 0.07169 0.71635 0.242 0.0
H2345 H 0.09754 0.71208 0.23755 0.0
H2346 H 0.08024 0.66492 0.33223 0.0
H2347 H 0.10689 0.66432 0.33037 0.0
H2348 H 0.05537 0.68362 0.32633 0.0
H2349 H 0.04085 0.69447 0.30566 0.0
C2350 C 0.81142 0.60499 0.33275 0.0
C2351 C 0.80749 0.62607 0.3293 0.0
C2352 C 0.78273 0.61716 0.30018 0.0
C2353 C 0.78888 0.59652 0.30178 0.0
N2354 N 0.80854 0.5702 0.31934 0.0
N2355 N 0.78909 0.65257 0.31054 0.0
C2356 C 0.80276 0.59019 0.31829 0.0
C2357 C 0.79282 0.63223 0.31338 0.0
N2358 N 0.82362 0.59918 0.34971 0.0
N2359 N 0.76711 0.62217 0.28603 0.0
H2360 H 0.79539 0.66385 0.32061 0.0
H2361 H 0.78043 0.65847 0.29787 0.0
H2362 H 0.75944 0.61128 0.27641 0.0
H2363 H 0.76058 0.63656 0.28488 0.0
H2364 H 0.82544 0.58408 0.35444 0.0
H2365 H 0.83103 0.60958 0.36004 0.0
H2366 H 0.82052 0.56482 0.32919 0.0
H2367 H 0.80177 0.55889 0.30961 0.0
C2368 C 0.92618 0.3418 0.2866 0.0
C2369 C 0.92942 0.34349 0.30869 0.0
C2370 C 0.96345 0.32796 0.30658 0.0
C2371 C 0.95952 0.32487 0.28482 0.0
N2372 N 0.93585 0.32507 0.25471 0.0
N2373 N 0.94911 0.33422 0.34021 0.0
C2374 C 0.94047 0.3307 0.275 0.0
C2375 C 0.94747 0.33536 0.31884 0.0
N2376 N 0.90998 0.35148 0.2766 0.0
N2377 N 0.98276 0.32466 0.31535 0.0
H2378 H 0.93755 0.33916 0.34971 0.0
H2379 H 0.96097 0.32663 0.34839 0.0
H2380 H 0.99494 0.31976 0.30666 0.0
H2381 H 0.9872 0.32861 0.33072 0.0
H2382 H 0.90809 0.35258 0.26038 0.0
H2383 H 0.89928 0.35991 0.28451 0.0
H2384 H 0.92139 0.32705 0.2472 0.0
H2385 H 0.94597 0.31671 0.246 0.0
C2386 C 0.83144 0.44435 0.72935 0.0
C2387 C 0.82019 0.43021 0.71606 0.0
C2388 C 0.7876 0.44358 0.72779 0.0
C2389 C 0.79879 0.45627 0.74259 0.0
N2390 N 0.83119 0.46766 0.75901 0.0
N2391 N 0.78779 0.41417 0.70472 0.0
C2392 C 0.8207 0.45642 0.74376 0.0
C2393 C 0.79832 0.42921 0.71588 0.0
N2394 N 0.85233 0.44657 0.72782 0.0
N2395 N 0.76675 0.44587 0.72447 0.0
H2396 H 0.79507 0.40354 0.69555 0.0
H2397 H 0.77207 0.41114 0.7059 0.0
H2398 H 0.75839 0.45656 0.73249 0.0
H2399 H 0.75805 0.43862 0.71241 0.0
H2400 H 0.86116 0.45805 0.73538 0.0
H2401 H 0.86071 0.43777 0.71772 0.0
H2402 H 0.84704 0.46676 0.76227 0.0
H2403 H 0.82376 0.47699 0.76942 0.0
C2404 C 0.10922 0.30259 0.73216 0.0
C2405 C 0.10343 0.31677 0.71622 0.0
C2406 C 0.06672 0.31052 0.72232 0.0
C2407 C 0.07259 0.29722 0.73898 0.0
N2408 N 0.09833 0.27686 0.75698 0.0
N2409 N 0.07707 0.3313 0.69305 0.0
C2410 C 0.09356 0.292 0.74291 0.0
C2411 C 0.08226 0.31964 0.71019 0.0
N2412 N 0.1297 0.29982 0.73741 0.0
N2413 N 0.04637 0.31536 0.71899 0.0
H2414 H 0.08798 0.33895 0.68436 0.0
H2415 H 0.06211 0.33239 0.68649 0.0
H2416 H 0.03459 0.30824 0.72698 0.0
H2417 H 0.0411 0.32689 0.70899 0.0
H2418 H 0.13516 0.29153 0.75035 0.0
H2419 H 0.1415 0.30655 0.72912 0.0
H2420 H 0.11307 0.27108 0.75974 0.0
H2421 H 0.08701 0.26882 0.76479 0.0
C2422 C 0.92266 0.72973 0.7372 0.0
C2423 C 0.92635 0.71076 0.72741 0.0
C2424 C 0.96379 0.71573 0.73437 0.0
C2425 C 0.9601 0.73495 0.74366 0.0
N2426 N 0.93641 0.75787 0.75884 0.0
N2427 N 0.94955 0.68329 0.72128 0.0
C2428 C 0.93958 0.7411 0.74673 0.0
C2429 C 0.94668 0.70295 0.7276 0.0
N2430 N 0.90312 0.73735 0.73647 0.0
N2431 N 0.98358 0.71028 0.73078 0.0
H2432 H 0.93732 0.67366 0.71615 0.0
H2433 H 0.96367 0.67595 0.72284 0.0
H2434 H 0.99647 0.71897 0.73597 0.0
H2435 H 0.98722 0.69776 0.7217 0.0
H2436 H 0.89972 0.75213 0.74105 0.0
H2437 H 0.8903 0.72924 0.7301 0.0
H2438 H 0.92192 0.76236 0.76324 0.0
H2439 H 0.94859 0.76624 0.76614 0.0
C2440 C 0.72291 0.22459 0.55751 0.0
C2441 C 0.72283 0.23801 0.57495 0.0
C2442 C 0.73841 0.26537 0.55445 0.0
C2443 C 0.73894 0.25178 0.5372 0.0
N2444 N 0.72633 0.22102 0.52004 0.0
N2445 N 0.72469 0.27248 0.58826 0.0
C2446 C 0.72926 0.23224 0.53801 0.0
C2447 C 0.72863 0.25888 0.57278 0.0
N2448 N 0.71816 0.20431 0.55986 0.0
N2449 N 0.7484 0.2839 0.55391 0.0
H2450 H 0.71742 0.26817 0.60181 0.0
H2451 H 0.72681 0.28822 0.58681 0.0
H2452 H 0.75509 0.28952 0.54056 0.0
H2453 H 0.75102 0.29323 0.56701 0.0
H2454 H 0.72026 0.19338 0.54836 0.0
H2455 H 0.71348 0.19809 0.57389 0.0
H2456 H 0.71779 0.20739 0.51911 0.0
H2457 H 0.73074 0.22648 0.50556 0.0
C2458 C 0.30249 0.22227 0.61947 0.0
C2459 C 0.31732 0.2077 0.61409 0.0
C2460 C 0.31034 0.21539 0.57675 0.0
C2461 C 0.29792 0.23194 0.58239 0.0
N2462 N 0.28228 0.2518 0.60886 0.0
N2463 N 0.33671 0.19124 0.58777 0.0
C2464 C 0.29388 0.23545 0.6037 0.0
C2465 C 0.3214 0.20425 0.59273 0.0
N2466 N 0.29645 0.22325 0.63961 0.0
N2467 N 0.31172 0.2105 0.55609 0.0
H2468 H 0.34521 0.18283 0.59894 0.0
H2469 H 0.34211 0.18983 0.5728 0.0
H2470 H 0.30409 0.21861 0.54407 0.0
H2471 H 0.31886 0.19743 0.55091 0.0
H2472 H 0.28431 0.23214 0.64425 0.0
H2473 H 0.30247 0.2138 0.65147 0.0
H2474 H 0.28084 0.25683 0.62416 0.0
H2475 H 0.27478 0.261 0.59764 0.0
C2476 C 0.31341 0.83045 0.585 0.0
C2477 C 0.3259 0.82296 0.60209 0.0
C2478 C 0.32565 0.78909 0.58551 0.0
C2479 C 0.31522 0.79722 0.5675 0.0
N2480 N 0.30275 0.82654 0.54835 0.0
N2481 N 0.34709 0.79602 0.61692 0.0
C2482 C 0.31004 0.81817 0.56677 0.0
C2483 C 0.33288 0.80247 0.60194 0.0
N2484 N 0.30433 0.84907 0.58639 0.0
N2485 N 0.32808 0.76846 0.58715 0.0
H2486 H 0.35315 0.80543 0.62897 0.0
H2487 H 0.35428 0.78193 0.61631 0.0
H2488 H 0.32268 0.7583 0.57545 0.0
H2489 H 0.3337 0.76133 0.60079 0.0
H2490 H 0.29345 0.85441 0.57525 0.0
H2491 H 0.30616 0.85834 0.59966 0.0
H2492 H 0.30061 0.84216 0.54628 0.0
H2493 H 0.30085 0.81811 0.53454 0.0
C2494 C 0.71885 0.83748 0.62804 0.0
C2495 C 0.69722 0.83375 0.62501 0.0
C2496 C 0.70249 0.82021 0.58989 0.0
C2497 C 0.72414 0.82247 0.59356 0.0
N2498 N 0.75324 0.82949 0.61735 0.0
N2499 N 0.66899 0.81747 0.60494 0.0
C2500 C 0.73241 0.83 0.61304 0.0
C2501 C 0.68921 0.82384 0.60648 0.0
N2502 N 0.72637 0.84892 0.64471 0.0
N2503 N 0.69458 0.81553 0.57023 0.0
H2504 H 0.6589 0.81953 0.61694 0.0
H2505 H 0.6628 0.80843 0.59268 0.0
H2506 H 0.70387 0.81343 0.55759 0.0
H2507 H 0.67884 0.8157 0.56603 0.0
H2508 H 0.74168 0.85397 0.64649 0.0
H2509 H 0.71697 0.85483 0.65593 0.0
H2510 H 0.76016 0.83285 0.63204 0.0
H2511 H 0.76344 0.82389 0.60669 0.0
C2512 C 0.70557 0.77767 0.44953 0.0
C2513 C 0.69795 0.79753 0.44522 0.0
C2514 C 0.70672 0.80738 0.48162 0.0
C2515 C 0.71809 0.78919 0.48451 0.0
N2516 N 0.72912 0.75699 0.47073 0.0
N2517 N 0.69255 0.83206 0.4569 0.0
C2518 C 0.71743 0.7741 0.4685 0.0
C2519 C 0.69855 0.81254 0.46129 0.0
N2520 N 0.70133 0.76221 0.4355 0.0
N2521 N 0.70373 0.81971 0.49843 0.0
H2522 H 0.68675 0.83663 0.44217 0.0
H2523 H 0.6949 0.84415 0.46741 0.0
H2524 H 0.70923 0.81603 0.51357 0.0
H2525 H 0.69405 0.83226 0.49775 0.0
H2526 H 0.70476 0.74699 0.4386 0.0
H2527 H 0.69251 0.76433 0.42158 0.0
H2528 H 0.73136 0.74686 0.45851 0.0
H2529 H 0.73765 0.75346 0.48445 0.0
C2530 C 0.71801 0.21093 0.41032 0.0
C2531 C 0.7287 0.20325 0.39318 0.0
C2532 C 0.76183 0.21259 0.41146 0.0
C2533 C 0.75122 0.21872 0.42918 0.0
N2534 N 0.71963 0.22004 0.44721 0.0
N2535 N 0.76087 0.19292 0.37928 0.0
C2536 C 0.72939 0.21683 0.4291 0.0
C2537 C 0.75067 0.20296 0.3943 0.0
N2538 N 0.69709 0.21331 0.40842 0.0
N2539 N 0.78249 0.21676 0.41072 0.0
H2540 H 0.75324 0.18536 0.36669 0.0
H2541 H 0.77672 0.19044 0.38036 0.0
H2542 H 0.79097 0.22417 0.42288 0.0
H2543 H 0.79078 0.21461 0.39738 0.0
H2544 H 0.68876 0.22083 0.41952 0.0
H2545 H 0.68824 0.20929 0.39492 0.0
H2546 H 0.70397 0.21697 0.4488 0.0
H2547 H 0.72763 0.22395 0.46125 0.0
C2548 C 0.33747 0.24208 0.43824 0.0
C2549 C 0.33689 0.22037 0.43937 0.0
C2550 C 0.32428 0.22235 0.47484 0.0
C2551 C 0.32332 0.24389 0.47305 0.0
N2552 N 0.32512 0.27405 0.45184 0.0
N2553 N 0.32558 0.18983 0.45686 0.0
C2554 C 0.32878 0.2537 0.45435 0.0
C2555 C 0.329 0.2105 0.45712 0.0
N2556 N 0.34713 0.25162 0.42234 0.0
N2557 N 0.32162 0.21333 0.49378 0.0
H2558 H 0.32852 0.1807 0.444 0.0
H2559 H 0.318 0.18206 0.46852 0.0
H2560 H 0.31885 0.22169 0.50721 0.0
H2561 H 0.32415 0.19788 0.49664 0.0
H2562 H 0.34996 0.26732 0.42194 0.0
H2563 H 0.35387 0.2437 0.41035 0.0
H2564 H 0.3268 0.28176 0.43777 0.0
H2565 H 0.31861 0.28283 0.46335 0.0
C2566 C 0.30434 0.83353 0.45024 0.0
C2567 C 0.29973 0.83007 0.42857 0.0
C2568 C 0.27668 0.80139 0.43688 0.0
C2569 C 0.28359 0.8031 0.45818 0.0
N2570 N 0.30422 0.82004 0.48559 0.0
N2571 N 0.28175 0.81102 0.40078 0.0
C2572 C 0.29722 0.81919 0.46506 0.0
C2573 C 0.28576 0.8142 0.42174 0.0
N2574 N 0.31559 0.8505 0.45659 0.0
N2575 N 0.26134 0.78755 0.43129 0.0
H2576 H 0.28752 0.82061 0.38935 0.0
H2577 H 0.27358 0.7984 0.39458 0.0
H2578 H 0.25441 0.77816 0.44221 0.0
H2579 H 0.2543 0.78643 0.41633 0.0
H2580 H 0.31766 0.85509 0.47216 0.0
H2581 H 0.32168 0.86095 0.44616 0.0
H2582 H 0.31615 0.82971 0.49124 0.0
H2583 H 0.29876 0.81022 0.49697 0.0
C2584 C 0.62123 0.26018 0.70015 0.0
C2585 C 0.62135 0.24264 0.68703 0.0
C2586 C 0.58354 0.24016 0.68735 0.0
C2587 C 0.58345 0.25863 0.69886 0.0
N2588 N 0.60142 0.28843 0.7126 0.0
N2589 N 0.60247 0.21798 0.66506 0.0
C2590 C 0.60211 0.26929 0.70419 0.0
C2591 C 0.60244 0.23316 0.67975 0.0
N2592 N 0.63928 0.26763 0.70944 0.0
N2593 N 0.56563 0.22903 0.68429 0.0
H2594 H 0.61598 0.21262 0.65892 0.0
H2595 H 0.58906 0.21192 0.65763 0.0
H2596 H 0.55159 0.23386 0.68969 0.0
H2597 H 0.565 0.21435 0.67794 0.0
H2598 H 0.63984 0.27909 0.72079 0.0
H2599 H 0.65359 0.26109 0.7073 0.0
H2600 H 0.6144 0.29791 0.71499 0.0
H2601 H 0.5875 0.29552 0.71535 0.0
C2602 C 0.3368 0.07696 0.72652 0.0
C2603 C 0.33978 0.09713 0.73452 0.0
C2604 C 0.32674 0.08608 0.76817 0.0
C2605 C 0.32549 0.06571 0.76072 0.0
N2606 N 0.33202 0.04092 0.7343 0.0
N2607 N 0.34054 0.12043 0.76384 0.0
C2608 C 0.33132 0.06093 0.74029 0.0
C2609 C 0.33554 0.10159 0.75562 0.0
N2610 N 0.33847 0.0733 0.70563 0.0
N2611 N 0.31885 0.09061 0.78699 0.0
H2612 H 0.34701 0.13216 0.75514 0.0
H2613 H 0.3398 0.12395 0.77966 0.0
H2614 H 0.31247 0.07946 0.79649 0.0
H2615 H 0.31719 0.10547 0.79242 0.0
H2616 H 0.33445 0.0594 0.69848 0.0
H2617 H 0.34218 0.0847 0.695 0.0
H2618 H 0.33805 0.03611 0.72037 0.0
H2619 H 0.32813 0.02892 0.74418 0.0
C2620 C 0.41571 0.79534 0.72555 0.0
C2621 C 0.42189 0.81246 0.71358 0.0
C2622 C 0.45729 0.79945 0.71392 0.0
C2623 C 0.45139 0.78313 0.72696 0.0
N2624 N 0.42638 0.7678 0.74888 0.0
N2625 N 0.44936 0.83297 0.69981 0.0
C2626 C 0.43096 0.78172 0.73383 0.0
C2627 C 0.44295 0.81514 0.70876 0.0
N2628 N 0.39521 0.79165 0.72834 0.0
N2629 N 0.47645 0.79953 0.70598 0.0
H2630 H 0.43937 0.84493 0.69614 0.0
H2631 H 0.46481 0.83668 0.69777 0.0
H2632 H 0.48717 0.78815 0.7095 0.0
H2633 H 0.4811 0.8098 0.69465 0.0
H2634 H 0.38961 0.77825 0.73495 0.0
H2635 H 0.38359 0.80125 0.72255 0.0
H2636 H 0.41236 0.76735 0.75616 0.0
H2637 H 0.43732 0.75789 0.75549 0.0
C2638 C 0.68085 0.9616 0.70841 0.0
C2639 C 0.67641 0.94546 0.72243 0.0
C2640 C 0.69111 0.96591 0.75189 0.0
C2641 C 0.69369 0.98259 0.73816 0.0
N2642 N 0.6887 0.99773 0.70416 0.0
N2643 N 0.67465 0.933 0.75781 0.0
C2644 C 0.68793 0.98081 0.71661 0.0
C2645 C 0.68085 0.94779 0.74429 0.0
N2646 N 0.67889 0.95833 0.68727 0.0
N2647 N 0.69909 0.96725 0.77203 0.0
H2648 H 0.66713 0.9195 0.75282 0.0
H2649 H 0.67549 0.93476 0.77402 0.0
H2650 H 0.7067 0.98038 0.77792 0.0
H2651 H 0.69968 0.95495 0.78233 0.0
H2652 H 0.68387 0.96879 0.67627 0.0
H2653 H 0.67387 0.94441 0.68069 0.0
H2654 H 0.68275 0.99808 0.68873 0.0
H2655 H 0.69382 0.01198 0.70986 0.0
C2656 C 0.58649 0.77019 0.30857 0.0
C2657 C 0.58558 0.78587 0.32385 0.0
C2658 C 0.54763 0.78357 0.32142 0.0
C2659 C 0.54849 0.76964 0.30443 0.0
N2660 N 0.56895 0.75087 0.28052 0.0
N2661 N 0.56561 0.80858 0.34413 0.0
C2662 C 0.56796 0.76303 0.29783 0.0
C2663 C 0.56622 0.79283 0.33012 0.0
N2664 N 0.60515 0.76206 0.30433 0.0
N2665 N 0.52902 0.78737 0.32969 0.0
H2666 H 0.57887 0.81511 0.35149 0.0
H2667 H 0.55213 0.81606 0.34752 0.0
H2668 H 0.51523 0.78042 0.32404 0.0
H2669 H 0.5274 0.79581 0.34329 0.0
H2670 H 0.60666 0.74883 0.29552 0.0
H2671 H 0.61922 0.76768 0.31077 0.0
H2672 H 0.58255 0.74816 0.27306 0.0
H2673 H 0.55606 0.74432 0.27265 0.0
C2674 C 0.71961 0.0832 0.27177 0.0
C2675 C 0.70469 0.085 0.28718 0.0
C2676 C 0.70565 0.04794 0.29325 0.0
C2677 C 0.72089 0.04622 0.27818 0.0
N2678 N 0.73863 0.0609 0.24951 0.0
N2679 N 0.68015 0.06899 0.30924 0.0
C2680 C 0.72653 0.06345 0.26617 0.0
C2681 C 0.69658 0.06728 0.2968 0.0
N2682 N 0.7279 0.10045 0.26322 0.0
N2683 N 0.70043 0.03114 0.30465 0.0
H2684 H 0.67338 0.08297 0.31229 0.0
H2685 H 0.6722 0.05653 0.31524 0.0
H2686 H 0.70584 0.01658 0.30147 0.0
H2687 H 0.69143 0.03166 0.31766 0.0
H2688 H 0.7406 0.10042 0.25389 0.0
H2689 H 0.7229 0.11511 0.26653 0.0
H2690 H 0.74204 0.07247 0.23901 0.0
H2691 H 0.74367 0.0466 0.245 0.0
C2692 C 0.43299 0.25041 0.32564 0.0
C2693 C 0.43746 0.22996 0.33159 0.0
C2694 C 0.47269 0.23441 0.31995 0.0
C2695 C 0.4675 0.25387 0.3119 0.0
N2696 N 0.44234 0.2797 0.30454 0.0
N2697 N 0.46033 0.2012 0.3308 0.0
C2698 C 0.44753 0.26173 0.31409 0.0
C2699 C 0.45702 0.22159 0.3278 0.0
N2700 N 0.41521 0.25917 0.33156 0.0
N2701 N 0.49279 0.22844 0.32046 0.0
H2702 H 0.44907 0.1911 0.33598 0.0
H2703 H 0.47356 0.19392 0.32627 0.0
H2704 H 0.50462 0.23784 0.31523 0.0
H2705 H 0.498 0.21522 0.32792 0.0
H2706 H 0.41204 0.2746 0.32944 0.0
H2707 H 0.40432 0.2514 0.34018 0.0
H2708 H 0.42738 0.28529 0.30359 0.0
H2709 H 0.45286 0.28831 0.29621 0.0
C2710 C 0.29013 0.96381 0.32959 0.0
C2711 C 0.29627 0.94554 0.31979 0.0
C2712 C 0.2803 0.95732 0.28659 0.0
C2713 C 0.27792 0.97699 0.29538 0.0
N2714 N 0.28197 0.99961 0.32521 0.0
N2715 N 0.29942 0.92596 0.28805 0.0
C2716 C 0.2829 0.98039 0.31698 0.0
C2717 C 0.29174 0.94243 0.29807 0.0
N2718 N 0.29103 0.9652 0.35094 0.0
N2719 N 0.27145 0.95284 0.26726 0.0
H2720 H 0.30848 0.91493 0.29563 0.0
H2721 H 0.29844 0.92425 0.27182 0.0
H2722 H 0.26251 0.96333 0.25871 0.0
H2723 H 0.27103 0.93819 0.26084 0.0
H2724 H 0.28499 0.97738 0.35901 0.0
H2725 H 0.29599 0.95322 0.3606 0.0
H2726 H 0.28779 1.00339 0.34022 0.0
H2727 H 0.2767 0.01215 0.31657 0.0
C2728 C 0.71122 0.11028 0.69311 0.0
C2729 C 0.72689 0.12552 0.69145 0.0
C2730 C 0.75159 0.104 0.71136 0.0
C2731 C 0.73576 0.08898 0.71342 0.0
N2732 N 0.70274 0.07499 0.7013 0.0
N2733 N 0.76304 0.13476 0.69378 0.0
C2734 C 0.7163 0.09122 0.70257 0.0
C2735 C 0.74747 0.1216 0.69882 0.0
N2736 N 0.69127 0.11441 0.68675 0.0
N2737 N 0.77007 0.10215 0.72239 0.0
H2738 H 0.76043 0.14775 0.68462 0.0
H2739 H 0.77864 0.13186 0.69696 0.0
H2740 H 0.77389 0.08931 0.73129 0.0
H2741 H 0.78119 0.11381 0.72371 0.0
H2742 H 0.67877 0.10488 0.68985 0.0
H2743 H 0.68696 0.12808 0.67953 0.0
H2744 H 0.68903 0.07494 0.69207 0.0
H2745 H 0.70626 0.06078 0.70787 0.0
C2746 C 0.69645 0.91784 0.32691 0.0
C2747 C 0.70726 0.89915 0.32853 0.0
C2748 C 0.73857 0.91642 0.31664 0.0
C2749 C 0.7282 0.93526 0.31651 0.0
N2750 N 0.69836 0.95486 0.32337 0.0
N2751 N 0.73937 0.88104 0.32794 0.0
C2752 C 0.70741 0.93622 0.3222 0.0
C2753 C 0.72855 0.89853 0.32416 0.0
N2754 N 0.67559 0.91787 0.32921 0.0
N2755 N 0.75793 0.91568 0.30918 0.0
H2756 H 0.73263 0.86766 0.33353 0.0
H2757 H 0.75533 0.88017 0.32714 0.0
H2758 H 0.76575 0.92868 0.3041 0.0
H2759 H 0.76562 0.90214 0.30659 0.0
H2760 H 0.66638 0.93051 0.32619 0.0
H2761 H 0.66712 0.90473 0.33274 0.0
H2762 H 0.68399 0.95711 0.32947 0.0
H2763 H 0.70594 0.96841 0.31941 0.0
C2764 C 0.59218 0.20414 0.26954 0.0
C2765 C 0.59869 0.20382 0.29109 0.0
C2766 C 0.56753 0.22227 0.2998 0.0
C2767 C 0.56041 0.22156 0.27839 0.0
N2768 N 0.56405 0.20865 0.24349 0.0
N2769 N 0.59116 0.20928 0.32714 0.0
C2770 C 0.57223 0.21161 0.26341 0.0
C2771 C 0.58586 0.2118 0.30635 0.0
N2772 N 0.60528 0.19772 0.25487 0.0
N2773 N 0.55749 0.23396 0.31369 0.0
H2774 H 0.60473 0.20219 0.33248 0.0
H2775 H 0.58138 0.21267 0.33904 0.0
H2776 H 0.54437 0.24232 0.30951 0.0
H2777 H 0.56317 0.23691 0.32893 0.0
H2778 H 0.60258 0.19988 0.23884 0.0
H2779 H 0.61963 0.19137 0.25876 0.0
H2780 H 0.57088 0.19968 0.2324 0.0
H2781 H 0.54942 0.2137 0.23852 0.0
C2782 C 0.33423 0.09038 0.31829 0.0
C2783 C 0.33149 0.11132 0.31313 0.0
C2784 C 0.30972 0.10148 0.28204 0.0
C2785 C 0.31354 0.08066 0.28652 0.0
N2786 N 0.33046 0.05483 0.30728 0.0
N2787 N 0.31837 0.13715 0.28938 0.0
C2788 C 0.32608 0.075 0.30425 0.0
C2789 C 0.31967 0.11698 0.29479 0.0
N2790 N 0.3443 0.08527 0.33682 0.0
N2791 N 0.29614 0.10626 0.26581 0.0
H2792 H 0.32491 0.1489 0.2987 0.0
H2793 H 0.31187 0.14228 0.27517 0.0
H2794 H 0.2891 0.09514 0.25601 0.0
H2795 H 0.29086 0.12093 0.26277 0.0
H2796 H 0.34511 0.07044 0.34262 0.0
H2797 H 0.35089 0.09611 0.34724 0.0
H2798 H 0.34111 0.04951 0.31864 0.0
H2799 H 0.32427 0.04332 0.29743 0.0
C2800 C 0.40503 0.84083 0.29163 0.0
C2801 C 0.40846 0.84246 0.3137 0.0
C2802 C 0.44349 0.82933 0.31096 0.0
C2803 C 0.43958 0.82649 0.28916 0.0
N2804 N 0.41567 0.82565 0.25927 0.0
N2805 N 0.42917 0.83415 0.34486 0.0
C2806 C 0.42002 0.83109 0.27965 0.0
C2807 C 0.42718 0.83544 0.32352 0.0
N2808 N 0.38793 0.84931 0.28201 0.0
N2809 N 0.46307 0.82705 0.31948 0.0
H2810 H 0.41743 0.83821 0.35457 0.0
H2811 H 0.44162 0.82728 0.35284 0.0
H2812 H 0.47542 0.82297 0.3106 0.0
H2813 H 0.46744 0.83095 0.33488 0.0
H2814 H 0.38569 0.85052 0.26582 0.0
H2815 H 0.37666 0.85662 0.29021 0.0
H2816 H 0.40103 0.82669 0.25189 0.0
H2817 H 0.42637 0.81837 0.25028 0.0
C2818 C 0.30859 0.95344 0.71558 0.0
C2819 C 0.30815 0.93281 0.72251 0.0
C2820 C 0.28626 0.9426 0.75103 0.0
C2821 C 0.28946 0.96351 0.74608 0.0
N2822 N 0.30416 0.98925 0.72414 0.0
N2823 N 0.29714 0.90752 0.74713 0.0
C2824 C 0.30046 0.96906 0.72825 0.0
C2825 C 0.29689 0.92727 0.74017 0.0
N2826 N 0.3167 0.95804 0.6968 0.0
N2827 N 0.27289 0.93749 0.76612 0.0
H2828 H 0.30436 0.89583 0.73934 0.0
H2829 H 0.29133 0.90289 0.76128 0.0
H2830 H 0.26478 0.94845 0.77408 0.0
H2831 H 0.26836 0.92255 0.76942 0.0
H2832 H 0.31573 0.97238 0.68982 0.0
H2833 H 0.32293 0.947 0.68728 0.0
H2834 H 0.31428 0.99438 0.71307 0.0
H2835 H 0.29788 1.00103 0.73265 0.0
C2836 C 0.59122 0.81452 0.76865 0.0
C2837 C 0.58808 0.81596 0.74654 0.0
C2838 C 0.55912 0.79157 0.74779 0.0
C2839 C 0.56042 0.79212 0.77011 0.0
N2840 N 0.57567 0.80754 0.80167 0.0
N2841 N 0.56512 0.81022 0.71607 0.0
C2842 C 0.57592 0.80458 0.78054 0.0
C2843 C 0.57081 0.80585 0.73643 0.0
N2844 N 0.60908 0.82201 0.77827 0.0
N2845 N 0.54787 0.77662 0.7372 0.0
H2846 H 0.57276 0.82117 0.70731 0.0
H2847 H 0.55144 0.80463 0.70872 0.0
H2848 H 0.5405 0.76453 0.7445 0.0
H2849 H 0.54813 0.77473 0.72103 0.0
H2850 H 0.61308 0.81956 0.79404 0.0
H2851 H 0.62078 0.82898 0.77007 0.0
H2852 H 0.58539 0.81801 0.80976 0.0
H2853 H 0.56435 0.80111 0.81079 0.0
C2854 C 0.43856 0.2318 0.73046 0.0
C2855 C 0.43967 0.21033 0.72774 0.0
C2856 C 0.47397 0.21036 0.74605 0.0
C2857 C 0.47248 0.23168 0.74954 0.0
N2858 N 0.4523 0.26238 0.74796 0.0
N2859 N 0.45641 0.17851 0.73588 0.0
C2860 C 0.45438 0.24227 0.74273 0.0
C2861 C 0.45681 0.1994 0.73642 0.0
N2862 N 0.42288 0.24231 0.72049 0.0
N2863 N 0.49197 0.20068 0.75157 0.0
H2864 H 0.44414 0.17003 0.72889 0.0
H2865 H 0.46737 0.1695 0.74374 0.0
H2866 H 0.50446 0.20805 0.75948 0.0
H2867 H 0.49503 0.18573 0.74728 0.0
H2868 H 0.42244 0.25818 0.7197 0.0
H2869 H 0.41088 0.23517 0.7116 0.0
H2870 H 0.4386 0.27033 0.74562 0.0
H2871 H 0.46386 0.2709 0.75605 0.0
C2872 C 0.70467 0.77088 0.08246 0.0
C2873 C 0.69312 0.7523 0.08356 0.0
C2874 C 0.69253 0.74898 0.0453 0.0
C2875 C 0.70318 0.76796 0.04422 0.0
N2876 N 0.71684 0.79858 0.06077 0.0
N2877 N 0.67358 0.7249 0.06634 0.0
C2878 C 0.70843 0.77941 0.06255 0.0
C2879 C 0.6863 0.74169 0.06503 0.0
N2880 N 0.71271 0.77993 0.10045 0.0
N2881 N 0.68893 0.73778 0.02741 0.0
H2882 H 0.669 0.71903 0.08057 0.0
H2883 H 0.66644 0.71759 0.05338 0.0
H2884 H 0.69289 0.74318 0.01276 0.0
H2885 H 0.68318 0.72284 0.02714 0.0
H2886 H 0.72317 0.79218 0.10067 0.0
H2887 H 0.7101 0.77428 0.11535 0.0
H2888 H 0.71918 0.8087 0.07326 0.0
H2889 H 0.72026 0.80494 0.04637 0.0
C2890 C 0.29347 0.72008 0.11166 0.0
C2891 C 0.31396 0.71419 0.10792 0.0
C2892 C 0.31024 0.72762 0.07205 0.0
C2893 C 0.28965 0.73303 0.07572 0.0
N2894 N 0.26376 0.74009 0.10022 0.0
N2895 N 0.34366 0.71713 0.08688 0.0
C2896 C 0.28205 0.73121 0.09603 0.0
C2897 C 0.32295 0.71961 0.08884 0.0
N2898 N 0.28442 0.71391 0.12951 0.0
N2899 N 0.31721 0.72903 0.05229 0.0
H2900 H 0.35331 0.71139 0.09897 0.0
H2901 H 0.35156 0.72241 0.07412 0.0
H2902 H 0.30851 0.73546 0.03987 0.0
H2903 H 0.33112 0.72297 0.04795 0.0
H2904 H 0.26879 0.71566 0.13196 0.0
H2905 H 0.29215 0.70564 0.14133 0.0
H2906 H 0.25813 0.74094 0.11516 0.0
H2907 H 0.25524 0.74845 0.08899 0.0
C2908 C 0.29175 0.30339 0.10906 0.0
C2909 C 0.30797 0.31764 0.10575 0.0
C2910 C 0.2999 0.31549 0.06783 0.0
C2911 C 0.28622 0.29871 0.07097 0.0
N2912 N 0.27177 0.27451 0.09523 0.0
N2913 N 0.32946 0.33529 0.08152 0.0
C2914 C 0.28261 0.29219 0.09177 0.0
C2915 C 0.31249 0.32332 0.085 0.0
N2916 N 0.28494 0.30064 0.12876 0.0
N2917 N 0.30063 0.32415 0.04844 0.0
H2918 H 0.33939 0.34102 0.09354 0.0
H2919 H 0.33475 0.33801 0.06665 0.0
H2920 H 0.29123 0.31913 0.03566 0.0
H2921 H 0.30888 0.33759 0.04559 0.0
H2922 H 0.27178 0.29199 0.13181 0.0
H2923 H 0.2912 0.30868 0.14175 0.0
H2924 H 0.27077 0.268 0.11001 0.0
H2925 H 0.26539 0.26519 0.08334 0.0
C2926 C 0.7312 0.32155 0.12287 0.0
C2927 C 0.7152 0.33518 0.11657 0.0
C2928 C 0.71226 0.31917 0.08167 0.0
C2929 C 0.7281 0.30557 0.08803 0.0
N2930 N 0.75389 0.29406 0.11332 0.0
N2931 N 0.69126 0.34829 0.08993 0.0
C2932 C 0.73798 0.3069 0.10827 0.0
C2933 C 0.706 0.33442 0.09588 0.0
N2934 N 0.73957 0.3225 0.14293 0.0
N2935 N 0.70303 0.31704 0.06206 0.0
H2936 H 0.68562 0.35904 0.10014 0.0
H2937 H 0.68493 0.34983 0.07477 0.0
H2938 H 0.70791 0.30642 0.05126 0.0
H2939 H 0.69025 0.32514 0.05648 0.0
H2940 H 0.75005 0.31212 0.14937 0.0
H2941 H 0.7356 0.33363 0.15363 0.0
H2942 H 0.76305 0.29483 0.12712 0.0
H2943 H 0.75854 0.28277 0.10312 0.0
C2944 C 0.7522 0.31317 0.9446 0.0
C2945 C 0.73027 0.31244 0.94317 0.0
C2946 C 0.72999 0.30484 0.9808 0.0
C2947 C 0.75182 0.30291 0.98152 0.0
N2948 N 0.78358 0.30254 0.96338 0.0
N2949 N 0.69803 0.30576 0.95932 0.0
C2950 C 0.76294 0.30654 0.96327 0.0
C2951 C 0.71906 0.30791 0.96116 0.0
N2952 N 0.76278 0.32053 0.92815 0.0
N2953 N 0.71978 0.30426 0.999 0.0
H2954 H 0.6895 0.30819 0.9453 0.0
H2955 H 0.68917 0.30018 0.97126 0.0
H2956 H 0.72733 0.30224 0.01364 0.0
H2957 H 0.7042 0.30761 0.99984 0.0
H2958 H 0.77865 0.32344 0.929 0.0
H2959 H 0.75542 0.32556 0.91425 0.0
H2960 H 0.79199 0.30249 0.94992 0.0
H2961 H 0.79203 0.29755 0.97665 0.0
C2962 C 0.72515 0.71429 0.92482 0.0
C2963 C 0.73461 0.71765 0.90555 0.0
C2964 C 0.75671 0.74463 0.92206 0.0
C2965 C 0.74499 0.74343 0.94012 0.0
N2966 N 0.71796 0.72751 0.95917 0.0
N2967 N 0.75836 0.73703 0.88507 0.0
C2968 C 0.7293 0.72821 0.94172 0.0
C2969 C 0.75035 0.7329 0.90403 0.0
N2970 N 0.71244 0.69761 0.92699 0.0
N2971 N 0.77383 0.7571 0.92214 0.0
H2972 H 0.75409 0.72891 0.87145 0.0
H2973 H 0.76808 0.74948 0.88242 0.0
H2974 H 0.77877 0.76584 0.93514 0.0
H2975 H 0.7842 0.75732 0.91022 0.0
H2976 H 0.70655 0.69316 0.94116 0.0
H2977 H 0.70915 0.68716 0.91489 0.0
H2978 H 0.70465 0.71855 0.96036 0.0
H2979 H 0.72141 0.73671 0.97228 0.0
C2980 C 0.31495 0.68803 0.96348 0.0
C2981 C 0.31132 0.69243 0.94186 0.0
C2982 C 0.27978 0.71048 0.94979 0.0
C2983 C 0.28213 0.70393 0.97087 0.0
N2984 N 0.30039 0.68468 0.9976 0.0
N2985 N 0.28863 0.70514 0.91387 0.0
C2986 C 0.29934 0.69223 0.97768 0.0
C2987 C 0.29329 0.70296 0.93483 0.0
N2988 N 0.33355 0.68042 0.97051 0.0
N2989 N 0.26515 0.72453 0.94427 0.0
H2990 H 0.29804 0.69975 0.90238 0.0
H2991 H 0.2746 0.71074 0.90785 0.0
H2992 H 0.2554 0.73075 0.95501 0.0
H2993 H 0.26403 0.73149 0.92963 0.0
H2994 H 0.33789 0.67877 0.98631 0.0
H2995 H 0.34544 0.67743 0.96059 0.0
H2996 H 0.31143 0.67432 1.00301 0.0
H2997 H 0.28909 0.68754 0.00824 0.0
C2998 C 0.34569 0.29433 0.92934 0.0
C2999 C 0.35238 0.31444 0.93516 0.0
C3000 C 0.34753 0.30646 0.97221 0.0
C3001 C 0.34033 0.28663 0.9663 0.0
N3002 N 0.33108 0.26163 0.93998 0.0
N3003 N 0.35834 0.34051 0.96158 0.0
C3004 C 0.33903 0.28057 0.94502 0.0
C3005 C 0.35289 0.32076 0.95648 0.0
N3006 N 0.34605 0.2884 0.90884 0.0
N3007 N 0.34967 0.31127 0.99303 0.0
H3008 H 0.36316 0.35114 0.95065 0.0
H3009 H 0.35718 0.34684 0.97639 0.0
H3010 H 0.34547 0.30117 1.00472 0.0
H3011 H 0.35658 0.32468 0.99894 0.0
H3012 H 0.3433 0.2735 0.9036 0.0
H3013 H 0.3499 0.29836 0.89688 0.0
H3014 H 0.32761 0.25654 0.92476 0.0
H3015 H 0.32718 0.25107 0.95136 0.0
C3016 C 0.58809 0.76698 0.1938 0.0
C3017 C 0.59159 0.74562 0.19488 0.0
C3018 C 0.55593 0.73991 0.20504 0.0
C3019 C 0.55339 0.76132 0.20643 0.0
N3020 N 0.56781 0.79534 0.2052 0.0
N3021 N 0.57969 0.71172 0.20369 0.0
C3022 C 0.56965 0.77491 0.20151 0.0
C3023 C 0.57568 0.73202 0.20098 0.0
N3024 N 0.6022 0.77964 0.18495 0.0
N3025 N 0.53923 0.72722 0.20719 0.0
H3026 H 0.59394 0.7054 0.20083 0.0
H3027 H 0.56944 0.70143 0.21025 0.0
H3028 H 0.52459 0.73272 0.20995 0.0
H3029 H 0.53942 0.71154 0.20443 0.0
H3030 H 0.59955 0.79502 0.18184 0.0
H3031 H 0.61578 0.77437 0.1789 0.0
H3032 H 0.57996 0.80584 0.20413 0.0
H3033 H 0.55458 0.80156 0.2111 0.0
C3034 C 0.29147 0.59089 0.22035 0.0
C3035 C 0.30416 0.5891 0.20298 0.0
C3036 C 0.29177 0.55366 0.19734 0.0
C3037 C 0.28015 0.55508 0.2154 0.0
N3038 N 0.27051 0.57371 0.2457 0.0
N3039 N 0.31802 0.56853 0.17588 0.0
C3040 C 0.28038 0.57339 0.22732 0.0
C3041 C 0.30476 0.57038 0.19172 0.0
N3042 N 0.2898 0.60944 0.22993 0.0
N3043 N 0.28986 0.53638 0.18535 0.0
H3044 H 0.3272 0.58062 0.17084 0.0
H3045 H 0.3209 0.55479 0.16846 0.0
H3046 H 0.28061 0.52393 0.18939 0.0
H3047 H 0.29622 0.53479 0.17083 0.0
H3048 H 0.27917 0.61243 0.24116 0.0
H3049 H 0.29822 0.62239 0.22569 0.0
H3050 H 0.27183 0.58568 0.25644 0.0
H3051 H 0.26199 0.56127 0.25099 0.0
C3052 C 0.4503 0.30304 0.22051 0.0
C3053 C 0.43019 0.29422 0.218 0.0
C3054 C 0.44408 0.26093 0.22902 0.0
C3055 C 0.46445 0.26923 0.22856 0.0
N3056 N 0.48497 0.2994 0.23523 0.0
N3057 N 0.40703 0.2656 0.22225 0.0
C3058 C 0.46704 0.2907 0.22762 0.0
C3059 C 0.42674 0.27344 0.22343 0.0
N3060 N 0.45358 0.32307 0.21536 0.0
N3061 N 0.44164 0.24103 0.23499 0.0
H3062 H 0.39419 0.2746 0.21867 0.0
H3063 H 0.4032 0.25031 0.22453 0.0
H3064 H 0.45427 0.23224 0.23994 0.0
H3065 H 0.42748 0.23362 0.23644 0.0
H3066 H 0.46827 0.32959 0.21429 0.0
H3067 H 0.44164 0.3329 0.21092 0.0
H3068 H 0.48762 0.3151 0.23662 0.0
H3069 H 0.49563 0.29052 0.24334 0.0
C3070 C 0.72163 0.46566 0.24063 0.0
C3071 C 0.71251 0.46641 0.21999 0.0
C3072 C 0.72164 0.50286 0.21788 0.0
C3073 C 0.73342 0.5013 0.23705 0.0
N3074 N 0.74535 0.4814 0.26678 0.0
N3075 N 0.70497 0.48521 0.18812 0.0
C3076 C 0.73338 0.48282 0.24865 0.0
C3077 C 0.7126 0.48495 0.20846 0.0
N3078 N 0.71883 0.44864 0.2526 0.0
N3079 N 0.71902 0.52162 0.20881 0.0
H3080 H 0.69818 0.47245 0.1806 0.0
H3081 H 0.70673 0.49761 0.17814 0.0
H3082 H 0.72536 0.535 0.21556 0.0
H3083 H 0.70904 0.52423 0.19586 0.0
H3084 H 0.72331 0.44782 0.26844 0.0
H3085 H 0.7105 0.43578 0.24708 0.0
H3086 H 0.74815 0.46772 0.27463 0.0
H3087 H 0.75332 0.49392 0.27352 0.0
C3088 C 0.59188 0.28478 0.82811 0.0
C3089 C 0.6094 0.29448 0.81971 0.0
C3090 C 0.59183 0.29437 0.78489 0.0
C3091 C 0.5734 0.28703 0.79362 0.0
N3092 N 0.55511 0.27678 0.82386 0.0
N3093 N 0.62501 0.31141 0.79076 0.0
C3094 C 0.57324 0.28244 0.81532 0.0
C3095 C 0.60909 0.30003 0.79827 0.0
N3096 N 0.5932 0.27762 0.84818 0.0
N3097 N 0.59306 0.29536 0.76364 0.0
H3098 H 0.63811 0.31584 0.79991 0.0
H3099 H 0.62445 0.31802 0.77594 0.0
H3100 H 0.58085 0.29113 0.75325 0.0
H3101 H 0.60679 0.29836 0.75633 0.0
H3102 H 0.58177 0.2686 0.85463 0.0
H3103 H 0.60648 0.27951 0.85797 0.0
H3104 H 0.55339 0.2754 0.8399 0.0
H3105 H 0.54131 0.27471 0.81492 0.0
C3106 C 0.76146 0.587 0.81589 0.0
C3107 C 0.73992 0.58998 0.81254 0.0
C3108 C 0.73593 0.55622 0.79605 0.0
C3109 C 0.75761 0.55304 0.79944 0.0
N3110 N 0.78974 0.56307 0.81739 0.0
N3111 N 0.70598 0.57564 0.80485 0.0
C3112 C 0.76995 0.56773 0.81094 0.0
C3113 C 0.72696 0.57392 0.80451 0.0
N3114 N 0.7739 0.60282 0.8231 0.0
N3115 N 0.72401 0.54337 0.78342 0.0
H3116 H 0.69892 0.58859 0.81053 0.0
H3117 H 0.6957 0.56355 0.80142 0.0
H3118 H 0.72922 0.53003 0.77686 0.0
H3119 H 0.70901 0.54674 0.77805 0.0
H3120 H 0.78997 0.60248 0.82346 0.0
H3121 H 0.76812 0.61684 0.82764 0.0
H3122 H 0.79902 0.57231 0.82738 0.0
H3123 H 0.79617 0.54891 0.81437 0.0
C3124 C 0.44356 0.70839 0.82229 0.0
C3125 C 0.43158 0.71828 0.83713 0.0
C3126 C 0.45157 0.75011 0.83223 0.0
C3127 C 0.46196 0.74073 0.81581 0.0
N3128 N 0.46378 0.71231 0.79181 0.0
N3129 N 0.42212 0.74931 0.8543 0.0
C3130 C 0.45692 0.72021 0.80994 0.0
C3131 C 0.43505 0.73937 0.84163 0.0
N3132 N 0.44258 0.68759 0.82027 0.0
N3133 N 0.45782 0.76909 0.83916 0.0
H3134 H 0.4099 0.74195 0.86139 0.0
H3135 H 0.42243 0.76509 0.85644 0.0
H3136 H 0.46984 0.7773 0.83262 0.0
H3137 H 0.45234 0.77596 0.85243 0.0
H3138 H 0.45263 0.67943 0.81131 0.0
H3139 H 0.43313 0.6783 0.82912 0.0
H3140 H 0.45875 0.69822 0.78568 0.0
H3141 H 0.47269 0.72067 0.78164 0.0
C3142 C 0.34113 0.43363 0.79735 0.0
C3143 C 0.34079 0.43642 0.81939 0.0
C3144 C 0.3262 0.47046 0.81383 0.0
C3145 C 0.32493 0.46696 0.79194 0.0
N3146 N 0.32727 0.44383 0.76302 0.0
N3147 N 0.32881 0.45559 0.84852 0.0
C3148 C 0.33124 0.44809 0.78375 0.0
C3149 C 0.332 0.45428 0.8276 0.0
N3150 N 0.35171 0.41776 0.78936 0.0
N3151 N 0.32285 0.48958 0.82141 0.0
H3152 H 0.3325 0.44384 0.85901 0.0
H3153 H 0.32067 0.46738 0.85508 0.0
H3154 H 0.31944 0.50197 0.81167 0.0
H3155 H 0.32552 0.49361 0.83709 0.0
H3156 H 0.35431 0.41625 0.7735 0.0
H3157 H 0.35944 0.407 0.79872 0.0
H3158 H 0.32961 0.42954 0.75643 0.0
H3159 H 0.31983 0.45408 0.7528 0.0
C3160 C 0.74139 0.64448 0.19653 0.0
C3161 C 0.71944 0.64319 0.1952 0.0
C3162 C 0.72104 0.60666 0.2038 0.0
C3163 C 0.74272 0.60863 0.20746 0.0
N3164 N 0.77333 0.62983 0.2105 0.0
N3165 N 0.6881 0.6237 0.2 0.0
C3166 C 0.75286 0.62766 0.20462 0.0
C3167 C 0.70915 0.62441 0.19941 0.0
N3168 N 0.75128 0.66158 0.18953 0.0
N3169 N 0.71198 0.58768 0.20407 0.0
H3170 H 0.67889 0.63637 0.1969 0.0
H3171 H 0.67986 0.61102 0.20513 0.0
H3172 H 0.72043 0.57449 0.2071 0.0
H3173 H 0.69654 0.58481 0.19955 0.0
H3174 H 0.76721 0.66261 0.18818 0.0
H3175 H 0.74341 0.67411 0.18321 0.0
H3176 H 0.78118 0.64385 0.21096 0.0
H3177 H 0.78206 0.61781 0.2167 0.0
C3178 C 0.69553 0.42415 0.81549 0.0
C3179 C 0.70602 0.40567 0.81196 0.0
C3180 C 0.72432 0.42186 0.78341 0.0
C3181 C 0.7144 0.44049 0.78745 0.0
N3182 N 0.69246 0.46053 0.80811 0.0
N3183 N 0.73179 0.38706 0.79421 0.0
C3184 C 0.70052 0.44194 0.80376 0.0
C3185 C 0.72082 0.40457 0.79635 0.0
N3186 N 0.68053 0.4245 0.82978 0.0
N3187 N 0.73687 0.42077 0.76691 0.0
H3188 H 0.72917 0.37385 0.80287 0.0
H3189 H 0.74431 0.38579 0.78477 0.0
H3190 H 0.74039 0.43342 0.75779 0.0
H3191 H 0.74297 0.4073 0.76145 0.0
H3192 H 0.67083 0.43677 0.8318 0.0
H3193 H 0.67701 0.41195 0.83908 0.0
H3194 H 0.68377 0.46344 0.82099 0.0
H3195 H 0.69547 0.47354 0.79925 0.0
C3196 C 0.60724 0.70678 0.80772 0.0
C3197 C 0.61819 0.6932 0.79514 0.0
C3198 C 0.58841 0.69143 0.76967 0.0
C3199 C 0.57705 0.70374 0.78301 0.0
N3200 N 0.57402 0.72008 0.81639 0.0
N3201 N 0.61848 0.67037 0.76555 0.0
C3202 C 0.58604 0.71059 0.80251 0.0
C3203 C 0.60857 0.6849 0.77645 0.0
N3204 N 0.6173 0.71657 0.82427 0.0
N3205 N 0.57998 0.68642 0.75031 0.0
H3206 H 0.63321 0.66527 0.77006 0.0
H3207 H 0.61159 0.66224 0.75298 0.0
H3208 H 0.56519 0.69091 0.74521 0.0
H3209 H 0.58804 0.67919 0.73882 0.0
H3210 H 0.61084 0.72834 0.83258 0.0
H3211 H 0.63277 0.71412 0.82869 0.0
H3212 H 0.57899 0.72355 0.83174 0.0
H3213 H 0.55839 0.72289 0.81317 0.0
C3214 C 0.31328 0.58383 0.83118 0.0
C3215 C 0.31747 0.60325 0.82225 0.0
C3216 C 0.29815 0.59271 0.78996 0.0
C3217 C 0.29714 0.57237 0.79756 0.0
N3218 N 0.30493 0.548 0.825 0.0
N3219 N 0.31524 0.62591 0.7925 0.0
C3220 C 0.30473 0.56779 0.8182 0.0
C3221 C 0.31005 0.60773 0.80153 0.0
N3222 N 0.31726 0.58083 0.85213 0.0
N3223 N 0.28751 0.59765 0.7717 0.0
H3224 H 0.32395 0.63732 0.80042 0.0
H3225 H 0.3123 0.6291 0.77669 0.0
H3226 H 0.27838 0.58701 0.76312 0.0
H3227 H 0.28604 0.61256 0.76621 0.0
H3228 H 0.3127 0.5677 0.85998 0.0
H3229 H 0.32344 0.59228 0.86208 0.0
H3230 H 0.31262 0.54339 0.83885 0.0
H3231 H 0.29853 0.53587 0.81615 0.0
C3232 C 0.46662 0.33761 0.8184 0.0
C3233 C 0.44584 0.34167 0.81174 0.0
C3234 C 0.45213 0.32821 0.77688 0.0
C3235 C 0.4733 0.32616 0.78296 0.0
N3236 N 0.5016 0.33216 0.80805 0.0
N3237 N 0.4197 0.34422 0.78362 0.0
C3238 C 0.4808 0.3318 0.80334 0.0
C3239 C 0.43881 0.33792 0.79066 0.0
N3240 N 0.47261 0.33855 0.83919 0.0
N3241 N 0.44464 0.32011 0.75826 0.0
H3242 H 0.40959 0.35164 0.79317 0.0
H3243 H 0.41461 0.34374 0.76792 0.0
H3244 H 0.454 0.31259 0.74802 0.0
H3245 H 0.42895 0.3192 0.75388 0.0
H3246 H 0.48697 0.33374 0.84516 0.0
H3247 H 0.46256 0.34233 0.85078 0.0
H3248 H 0.50824 0.33804 0.822 0.0
H3249 H 0.51235 0.32832 0.79715 0.0
C3250 C 0.33377 0.4311 0.23726 0.0
C3251 C 0.324 0.41599 0.22396 0.0
C3252 C 0.29059 0.4318 0.22889 0.0
C3253 C 0.30073 0.44878 0.23905 0.0
N3254 N 0.33248 0.46545 0.25151 0.0
N3255 N 0.29328 0.40419 0.20419 0.0
C3256 C 0.32247 0.4486 0.24311 0.0
C3257 C 0.30242 0.41683 0.2191 0.0
N3258 N 0.35374 0.42856 0.24454 0.0
N3259 N 0.26957 0.42973 0.22892 0.0
H3260 H 0.30135 0.39342 0.19596 0.0
H3261 H 0.27805 0.40578 0.19846 0.0
H3262 H 0.26033 0.44007 0.23641 0.0
H3263 H 0.26158 0.41662 0.2236 0.0
H3264 H 0.36111 0.43799 0.25583 0.0
H3265 H 0.36231 0.41584 0.24073 0.0
H3266 H 0.34852 0.4671 0.25262 0.0
H3267 H 0.32478 0.47849 0.25596 0.0
C3268 C 0.61054 0.32374 0.21731 0.0
C3269 C 0.61091 0.34512 0.22113 0.0
C3270 C 0.57767 0.34255 0.23761 0.0
C3271 C 0.57671 0.3215 0.23263 0.0
N3272 N 0.59331 0.29091 0.22226 0.0
N3273 N 0.59789 0.37422 0.23898 0.0
C3274 C 0.59369 0.31171 0.22412 0.0
C3275 C 0.59548 0.35429 0.23278 0.0
N3276 N 0.62571 0.31524 0.20619 0.0
N3277 N 0.56099 0.35133 0.24599 0.0
H3278 H 0.61081 0.38309 0.23551 0.0
H3279 H 0.58803 0.38153 0.24881 0.0
H3280 H 0.54813 0.34272 0.25018 0.0
H3281 H 0.55946 0.36699 0.24808 0.0
H3282 H 0.62527 0.30025 0.20076 0.0
H3283 H 0.63861 0.32353 0.2016 0.0
H3284 H 0.60576 0.28239 0.21777 0.0
H3285 H 0.58086 0.28193 0.22677 0.0
C3286 C 0.4395 0.70083 0.23092 0.0
C3287 C 0.41894 0.70729 0.22646 0.0
C3288 C 0.42763 0.74019 0.24336 0.0
C3289 C 0.44887 0.7352 0.24402 0.0
N3290 N 0.47543 0.71091 0.23751 0.0
N3291 N 0.39357 0.73388 0.22709 0.0
C3292 C 0.45494 0.7154 0.23794 0.0
C3293 C 0.41292 0.72708 0.23262 0.0
N3294 N 0.44421 0.68072 0.22845 0.0
N3295 N 0.42156 0.75752 0.25312 0.0
H3296 H 0.38231 0.72487 0.21913 0.0
H3297 H 0.38918 0.74898 0.22896 0.0
H3298 H 0.43201 0.7672 0.26142 0.0
H3299 H 0.40615 0.76113 0.25485 0.0
H3300 H 0.45841 0.67463 0.23326 0.0
H3301 H 0.43318 0.66974 0.22341 0.0
H3302 H 0.48083 0.69766 0.23079 0.0
H3303 H 0.4872 0.72103 0.24266 0.0
loop_
_geom_bond_atom_site_label_1
_geom_bond_atom_site_label_2
_geom_bond_distance
_geom_bond_site_symmetry_2
_ccdc_geom_bond_type
P0 O11 1.490 . S
P0 C14 1.812 . S
P0 C20 1.803 . S
P0 C26 1.819 . S
H1 C15 0.941 . S
H2 C16 0.939 . S
H3 C18 0.940 . S
H4 C19 0.940 . S
H5 C21 0.939 . S
H6 C22 0.942 . S
H7 C24 0.940 . S
H8 C25 0.939 . S
H9 C27 0.941 . S
H10 C31 0.939 . S
O11 P0 1.490 . S
H12 C28 0.939 . S
H13 C30 0.940 . S
C14 P0 1.812 . S
C14 C15 1.389 . S
C14 C19 1.391 . S
C15 H1 0.941 . S
C15 C14 1.389 . S
C15 C16 1.397 . S
C16 H2 0.939 . S
C16 C15 1.397 . S
C16 C17 1.378 . S
C17 C16 1.378 . S
C17 C18 1.378 . S
C18 H3 0.940 . S
C18 C17 1.378 . S
C18 C19 1.396 . S
C19 H4 0.940 . S
C19 C14 1.391 . S
C19 C18 1.396 . S
C20 P0 1.803 . S
C20 C21 1.378 . S
C20 C25 1.400 . S
C21 H5 0.939 . S
C21 C20 1.378 . S
C21 C22 1.361 . S
C22 H6 0.942 . S
C22 C21 1.361 . S
C22 C23 1.369 . S
C23 C22 1.369 . S
C23 C24 1.404 . S
C24 H7 0.940 . S
C24 C23 1.404 . S
C24 C25 1.389 . S
C25 H8 0.939 . S
C25 C20 1.400 . S
C25 C24 1.389 . S
C26 P0 1.819 . S
C26 C27 1.391 . S
C26 C31 1.391 . S
C27 H9 0.941 . S
C27 C26 1.391 . S
C27 C28 1.396 . S
C28 H12 0.939 . S
C28 C27 1.396 . S
C28 C29 1.397 . S
C29 C28 1.397 . S
C29 C30 1.385 . S
C30 H13 0.940 . S
C30 C29 1.385 . S
C30 C31 1.388 . S
C31 H10 0.939 . S
C31 C26 1.391 . S
C31 C30 1.388 . S
P32 O43 1.490 . S
P32 C46 1.812 . S
P32 C52 1.803 . S
P32 C58 1.819 . S
H33 C47 0.941 . S
H34 C48 0.939 . S
H35 C50 0.940 . S
H36 C51 0.940 . S
H37 C53 0.939 . S
H38 C54 0.942 . S
H39 C56 0.940 . S
H40 C57 0.939 . S
H41 C59 0.941 . S
H42 C63 0.939 . S
O43 P32 1.490 . S
H44 C60 0.939 . S
H45 C62 0.940 . S
C46 P32 1.812 . S
C46 C47 1.389 . S
C46 C51 1.391 . S
C47 H33 0.941 . S
C47 C46 1.389 . S
C47 C48 1.397 . S
C48 H34 0.939 . S
C48 C47 1.397 . S
C48 C49 1.378 . S
C49 C48 1.378 . S
C49 C50 1.378 . S
C50 H35 0.940 . S
C50 C49 1.378 . S
C50 C51 1.396 . S
C51 H36 0.940 . S
C51 C46 1.391 . S
C51 C50 1.396 . S
C52 P32 1.803 . S
C52 C53 1.378 . S
C52 C57 1.400 . S
C53 H37 0.939 . S
C53 C52 1.378 . S
C53 C54 1.361 . S
C54 H38 0.942 . S
C54 C53 1.361 . S
C54 C55 1.369 . S
C55 C54 1.369 . S
C55 C56 1.404 . S
C56 H39 0.940 . S
C56 C55 1.404 . S
C56 C57 1.389 . S
C57 H40 0.939 . S
C57 C52 1.400 . S
C57 C56 1.389 . S
C58 P32 1.819 . S
C58 C59 1.391 . S
C58 C63 1.391 . S
C59 H41 0.941 . S
C59 C58 1.391 . S
C59 C60 1.396 . S
C60 H44 0.939 . S
C60 C59 1.396 . S
C60 C61 1.397 . S
C61 C60 1.397 . S
C61 C62 1.385 . S
C62 H45 0.940 . S
C62 C61 1.385 . S
C62 C63 1.388 . S
C63 H42 0.939 . S
C63 C58 1.391 . S
C63 C62 1.388 . S
P64 O75 1.490 . S
P64 C78 1.812 . S
P64 C84 1.803 . S
P64 C90 1.819 . S
H65 C79 0.941 . S
H66 C80 0.939 . S
H67 C82 0.940 . S
H68 C83 0.940 . S
H69 C85 0.939 . S
H70 C86 0.942 . S
H71 C88 0.940 . S
H72 C89 0.939 . S
H73 C91 0.941 . S
H74 C95 0.939 . S
O75 P64 1.490 . S
H76 C92 0.939 . S
H77 C94 0.940 . S
C78 P64 1.812 . S
C78 C79 1.389 . S
C78 C83 1.391 . S
C79 H65 0.941 . S
C79 C78 1.389 . S
C79 C80 1.397 . S
C80 H66 0.939 . S
C80 C79 1.397 . S
C80 C81 1.378 . S
C81 C80 1.378 . S
C81 C82 1.378 . S
C82 H67 0.940 . S
C82 C81 1.378 . S
C82 C83 1.396 . S
C83 H68 0.940 . S
C83 C78 1.391 . S
C83 C82 1.396 . S
C84 P64 1.803 . S
C84 C85 1.378 . S
C84 C89 1.400 . S
C85 H69 0.939 . S
C85 C84 1.378 . S
C85 C86 1.361 . S
C86 H70 0.942 . S
C86 C85 1.361 . S
C86 C87 1.369 . S
C87 C86 1.369 . S
C87 C88 1.404 . S
C88 H71 0.940 . S
C88 C87 1.404 . S
C88 C89 1.389 . S
C89 H72 0.939 . S
C89 C84 1.400 . S
C89 C88 1.389 . S
C90 P64 1.819 . S
C90 C91 1.391 . S
C90 C95 1.391 . S
C91 H73 0.941 . S
C91 C90 1.391 . S
C91 C92 1.396 . S
C92 H76 0.939 . S
C92 C91 1.396 . S
C92 C93 1.397 . S
C93 C92 1.397 . S
C93 C94 1.385 . S
C94 H77 0.940 . S
C94 C93 1.385 . S
C94 C95 1.388 . S
C95 H74 0.939 . S
C95 C90 1.391 . S
C95 C94 1.388 . S
P96 O107 1.490 . S
P96 C110 1.812 . S
P96 C116 1.803 . S
P96 C122 1.819 . S
H97 C111 0.941 . S
H98 C112 0.939 . S
H99 C114 0.940 . S
H100 C115 0.940 . S
H101 C117 0.939 . S
H102 C118 0.942 . S
H103 C120 0.940 . S
H104 C121 0.939 . S
H105 C123 0.941 . S
H106 C127 0.939 . S
O107 P96 1.490 . S
H108 C124 0.939 . S
H109 C126 0.940 . S
C110 P96 1.812 . S
C110 C111 1.389 . S
C110 C115 1.391 . S
C111 H97 0.941 . S
C111 C110 1.389 . S
C111 C112 1.397 . S
C112 H98 0.939 . S
C112 C111 1.397 . S
C112 C113 1.378 . S
C113 C112 1.378 . S
C113 C114 1.378 . S
C114 H99 0.940 . S
C114 C113 1.378 . S
C114 C115 1.396 . S
C115 H100 0.940 . S
C115 C110 1.391 . S
C115 C114 1.396 . S
C116 P96 1.803 . S
C116 C117 1.378 . S
C116 C121 1.400 . S
C117 H101 0.939 . S
C117 C116 1.378 . S
C117 C118 1.361 . S
C118 H102 0.942 . S
C118 C117 1.361 . S
C118 C119 1.369 . S
C119 C118 1.369 . S
C119 C120 1.404 . S
C120 H103 0.940 . S
C120 C119 1.404 . S
C120 C121 1.389 . S
C121 H104 0.939 . S
C121 C116 1.400 . S
C121 C120 1.389 . S
C122 P96 1.819 . S
C122 C123 1.391 . S
C122 C127 1.391 . S
C123 H105 0.941 . S
C123 C122 1.391 . S
C123 C124 1.396 . S
C124 H108 0.939 . S
C124 C123 1.396 . S
C124 C125 1.397 . S
C125 C124 1.397 . S
C125 C126 1.385 . S
C126 H109 0.940 . S
C126 C125 1.385 . S
C126 C127 1.388 . S
C127 H106 0.939 . S
C127 C122 1.391 . S
C127 C126 1.388 . S
P128 O139 1.490 . S
P128 C142 1.812 . S
P128 C148 1.803 . S
P128 C154 1.819 . S
H129 C143 0.941 . S
H130 C144 0.939 . S
H131 C146 0.940 . S
H132 C147 0.940 . S
H133 C149 0.939 . S
H134 C150 0.942 . S
H135 C152 0.940 . S
H136 C153 0.939 . S
H137 C155 0.941 . S
H138 C159 0.939 . S
O139 P128 1.490 . S
H140 C156 0.939 . S
H141 C158 0.940 . S
C142 P128 1.812 . S
C142 C143 1.389 . S
C142 C147 1.391 . S
C143 H129 0.941 . S
C143 C142 1.389 . S
C143 C144 1.397 . S
C144 H130 0.939 . S
C144 C143 1.397 . S
C144 C145 1.378 . S
C145 C144 1.378 . S
C145 C146 1.378 . S
C146 H131 0.940 . S
C146 C145 1.378 . S
C146 C147 1.396 . S
C147 H132 0.940 . S
C147 C142 1.391 . S
C147 C146 1.396 . S
C148 P128 1.803 . S
C148 C149 1.378 . S
C148 C153 1.400 . S
C149 H133 0.939 . S
C149 C148 1.378 . S
C149 C150 1.361 . S
C150 H134 0.942 . S
C150 C149 1.361 . S
C150 C151 1.369 . S
C151 C150 1.369 . S
C151 C152 1.404 . S
C152 H135 0.940 . S
C152 C151 1.404 . S
C152 C153 1.389 . S
C153 H136 0.939 . S
C153 C148 1.400 . S
C153 C152 1.389 . S
C154 P128 1.819 . S
C154 C155 1.391 . S
C154 C159 1.391 . S
C155 H137 0.941 . S
C155 C154 1.391 . S
C155 C156 1.396 . S
C156 H140 0.939 . S
C156 C155 1.396 . S
C156 C157 1.397 . S
C157 C156 1.397 . S
C157 C158 1.385 . S
C158 H141 0.940 . S
C158 C157 1.385 . S
C158 C159 1.388 . S
C159 H138 0.939 . S
C159 C154 1.391 . S
C159 C158 1.388 . S
P160 O171 1.490 . S
P160 C174 1.812 . S
P160 C180 1.803 . S
P160 C186 1.819 . S
H161 C175 0.941 . S
H162 C176 0.939 . S
H163 C178 0.940 . S
H164 C179 0.940 . S
H165 C181 0.939 . S
H166 C182 0.942 . S
H167 C184 0.940 . S
H168 C185 0.939 . S
H169 C187 0.941 . S
H170 C191 0.939 . S
O171 P160 1.490 . S
H172 C188 0.939 . S
H173 C190 0.940 . S
C174 P160 1.812 . S
C174 C175 1.389 . S
C174 C179 1.391 . S
C175 H161 0.941 . S
C175 C174 1.389 . S
C175 C176 1.397 . S
C176 H162 0.939 . S
C176 C175 1.397 . S
C176 C177 1.378 . S
C177 C176 1.378 . S
C177 C178 1.378 . S
C178 H163 0.940 . S
C178 C177 1.378 . S
C178 C179 1.396 . S
C179 H164 0.940 . S
C179 C174 1.391 . S
C179 C178 1.396 . S
C180 P160 1.803 . S
C180 C181 1.378 . S
C180 C185 1.400 . S
C181 H165 0.939 . S
C181 C180 1.378 . S
C181 C182 1.361 . S
C182 H166 0.942 . S
C182 C181 1.361 . S
C182 C183 1.369 . S
C183 C182 1.369 . S
C183 C184 1.404 . S
C184 H167 0.940 . S
C184 C183 1.404 . S
C184 C185 1.389 . S
C185 H168 0.939 . S
C185 C180 1.400 . S
C185 C184 1.389 . S
C186 P160 1.819 . S
C186 C187 1.391 . S
C186 C191 1.391 . S
C187 H169 0.941 . S
C187 C186 1.391 . S
C187 C188 1.396 . S
C188 H172 0.939 . S
C188 C187 1.396 . S
C188 C189 1.397 . S
C189 C188 1.397 . S
C189 C190 1.385 . S
C190 H173 0.940 . S
C190 C189 1.385 . S
C190 C191 1.388 . S
C191 H170 0.939 . S
C191 C186 1.391 . S
C191 C190 1.388 . S
P192 O203 1.490 . S
P192 C206 1.812 . S
P192 C212 1.803 . S
P192 C218 1.819 . S
H193 C207 0.941 . S
H194 C208 0.939 . S
H195 C210 0.940 . S
H196 C211 0.940 . S
H197 C213 0.939 . S
H198 C214 0.942 . S
H199 C216 0.940 . S
H200 C217 0.939 . S
H201 C219 0.941 . S
H202 C223 0.939 . S
O203 P192 1.490 . S
H204 C220 0.939 . S
H205 C222 0.940 . S
C206 P192 1.812 . S
C206 C207 1.389 . S
C206 C211 1.391 . S
C207 H193 0.941 . S
C207 C206 1.389 . S
C207 C208 1.397 . S
C208 H194 0.939 . S
C208 C207 1.397 . S
C208 C209 1.378 . S
C209 C208 1.378 . S
C209 C210 1.378 . S
C210 H195 0.940 . S
C210 C209 1.378 . S
C210 C211 1.396 . S
C211 H196 0.940 . S
C211 C206 1.391 . S
C211 C210 1.396 . S
C212 P192 1.803 . S
C212 C213 1.378 . S
C212 C217 1.400 . S
C213 H197 0.939 . S
C213 C212 1.378 . S
C213 C214 1.361 . S
C214 H198 0.942 . S
C214 C213 1.361 . S
C214 C215 1.369 . S
C215 C214 1.369 . S
C215 C216 1.404 . S
C216 H199 0.940 . S
C216 C215 1.404 . S
C216 C217 1.389 . S
C217 H200 0.939 . S
C217 C212 1.400 . S
C217 C216 1.389 . S
C218 P192 1.819 . S
C218 C219 1.391 . S
C218 C223 1.391 . S
C219 H201 0.941 . S
C219 C218 1.391 . S
C219 C220 1.396 . S
C220 H204 0.939 . S
C220 C219 1.396 . S
C220 C221 1.397 . S
C221 C220 1.397 . S
C221 C222 1.385 . S
C222 H205 0.940 . S
C222 C221 1.385 . S
C222 C223 1.388 . S
C223 H202 0.939 . S
C223 C218 1.391 . S
C223 C222 1.388 . S
P224 O235 1.490 . S
P224 C238 1.812 . S
P224 C244 1.803 . S
P224 C250 1.819 . S
H225 C239 0.941 . S
H226 C240 0.939 . S
H227 C242 0.940 . S
H228 C243 0.940 . S
H229 C245 0.939 . S
H230 C246 0.942 . S
H231 C248 0.940 . S
H232 C249 0.939 . S
H233 C251 0.941 . S
H234 C255 0.939 . S
O235 P224 1.490 . S
H236 C252 0.939 . S
H237 C254 0.940 . S
C238 P224 1.812 . S
C238 C239 1.389 . S
C238 C243 1.391 . S
C239 H225 0.941 . S
C239 C238 1.389 . S
C239 C240 1.397 . S
C240 H226 0.939 . S
C240 C239 1.397 . S
C240 C241 1.378 . S
C241 C240 1.378 . S
C241 C242 1.378 . S
C242 H227 0.940 . S
C242 C241 1.378 . S
C242 C243 1.396 . S
C243 H228 0.940 . S
C243 C238 1.391 . S
C243 C242 1.396 . S
C244 P224 1.803 . S
C244 C245 1.378 . S
C244 C249 1.400 . S
C245 H229 0.939 . S
C245 C244 1.378 . S
C245 C246 1.361 . S
C246 H230 0.942 . S
C246 C245 1.361 . S
C246 C247 1.369 . S
C247 C246 1.369 . S
C247 C248 1.404 . S
C248 H231 0.940 . S
C248 C247 1.404 . S
C248 C249 1.389 . S
C249 H232 0.939 . S
C249 C244 1.400 . S
C249 C248 1.389 . S
C250 P224 1.819 . S
C250 C251 1.391 . S
C250 C255 1.391 . S
C251 H233 0.941 . S
C251 C250 1.391 . S
C251 C252 1.396 . S
C252 H236 0.939 . S
C252 C251 1.396 . S
C252 C253 1.397 . S
C253 C252 1.397 . S
C253 C254 1.385 . S
C254 H237 0.940 . S
C254 C253 1.385 . S
C254 C255 1.388 . S
C255 H234 0.939 . S
C255 C250 1.391 . S
C255 C254 1.388 . S
P256 O267 1.490 . S
P256 C270 1.812 . S
P256 C276 1.803 . S
P256 C282 1.819 . S
H257 C271 0.941 . S
H258 C272 0.939 . S
H259 C274 0.940 . S
H260 C275 0.940 . S
H261 C277 0.939 . S
H262 C278 0.942 . S
H263 C280 0.940 . S
H264 C281 0.939 . S
H265 C283 0.941 . S
H266 C287 0.939 . S
O267 P256 1.490 . S
H268 C284 0.939 . S
H269 C286 0.940 . S
C270 P256 1.812 . S
C270 C271 1.389 . S
C270 C275 1.391 . S
C271 H257 0.941 . S
C271 C270 1.389 . S
C271 C272 1.397 . S
C272 H258 0.939 . S
C272 C271 1.397 . S
C272 C273 1.378 . S
C273 C272 1.378 . S
C273 C274 1.378 . S
C274 H259 0.940 . S
C274 C273 1.378 . S
C274 C275 1.396 . S
C275 H260 0.940 . S
C275 C270 1.391 . S
C275 C274 1.396 . S
C276 P256 1.803 . S
C276 C277 1.378 . S
C276 C281 1.400 . S
C277 H261 0.939 . S
C277 C276 1.378 . S
C277 C278 1.361 . S
C278 H262 0.942 . S
C278 C277 1.361 . S
C278 C279 1.369 . S
C279 C278 1.369 . S
C279 C280 1.404 . S
C280 H263 0.940 . S
C280 C279 1.404 . S
C280 C281 1.389 . S
C281 H264 0.939 . S
C281 C276 1.400 . S
C281 C280 1.389 . S
C282 P256 1.819 . S
C282 C283 1.391 . S
C282 C287 1.391 . S
C283 H265 0.941 . S
C283 C282 1.391 . S
C283 C284 1.396 . S
C284 H268 0.939 . S
C284 C283 1.396 . S
C284 C285 1.397 . S
C285 C284 1.397 . S
C285 C286 1.385 . S
C286 H269 0.940 . S
C286 C285 1.385 . S
C286 C287 1.388 . S
C287 H266 0.939 . S
C287 C282 1.391 . S
C287 C286 1.388 . S
P288 O299 1.490 . S
P288 C302 1.812 . S
P288 C308 1.803 . S
P288 C314 1.819 . S
H289 C303 0.941 . S
H290 C304 0.939 . S
H291 C306 0.940 . S
H292 C307 0.940 . S
H293 C309 0.939 . S
H294 C310 0.942 . S
H295 C312 0.940 . S
H296 C313 0.939 . S
H297 C315 0.941 . S
H298 C319 0.939 . S
O299 P288 1.490 . S
H300 C316 0.939 . S
H301 C318 0.940 . S
C302 P288 1.812 . S
C302 C303 1.389 . S
C302 C307 1.391 . S
C303 H289 0.941 . S
C303 C302 1.389 . S
C303 C304 1.397 . S
C304 H290 0.939 . S
C304 C303 1.397 . S
C304 C305 1.378 . S
C305 C304 1.378 . S
C305 C306 1.378 . S
C306 H291 0.940 . S
C306 C305 1.378 . S
C306 C307 1.396 . S
C307 H292 0.940 . S
C307 C302 1.391 . S
C307 C306 1.396 . S
C308 P288 1.803 . S
C308 C309 1.378 . S
C308 C313 1.400 . S
C309 H293 0.939 . S
C309 C308 1.378 . S
C309 C310 1.361 . S
C310 H294 0.942 . S
C310 C309 1.361 . S
C310 C311 1.369 . S
C311 C310 1.369 . S
C311 C312 1.404 . S
C312 H295 0.940 . S
C312 C311 1.404 . S
C312 C313 1.389 . S
C313 H296 0.939 . S
C313 C308 1.400 . S
C313 C312 1.389 . S
C314 P288 1.819 . S
C314 C315 1.391 . S
C314 C319 1.391 . S
C315 H297 0.941 . S
C315 C314 1.391 . S
C315 C316 1.396 . S
C316 H300 0.939 . S
C316 C315 1.396 . S
C316 C317 1.397 . S
C317 C316 1.397 . S
C317 C318 1.385 . S
C318 H301 0.940 . S
C318 C317 1.385 . S
C318 C319 1.388 . S
C319 H298 0.939 . S
C319 C314 1.391 . S
C319 C318 1.388 . S
P320 O331 1.490 . S
P320 C334 1.812 . S
P320 C340 1.803 . S
P320 C346 1.819 . S
H321 C335 0.941 . S
H322 C336 0.939 . S
H323 C338 0.940 . S
H324 C339 0.940 . S
H325 C341 0.939 . S
H326 C342 0.942 . S
H327 C344 0.940 . S
H328 C345 0.939 . S
H329 C347 0.941 . S
H330 C351 0.939 . S
O331 P320 1.490 . S
H332 C348 0.939 . S
H333 C350 0.940 . S
C334 P320 1.812 . S
C334 C335 1.389 . S
C334 C339 1.391 . S
C335 H321 0.941 . S
C335 C334 1.389 . S
C335 C336 1.397 . S
C336 H322 0.939 . S
C336 C335 1.397 . S
C336 C337 1.378 . S
C337 C336 1.378 . S
C337 C338 1.378 . S
C338 H323 0.940 . S
C338 C337 1.378 . S
C338 C339 1.396 . S
C339 H324 0.940 . S
C339 C334 1.391 . S
C339 C338 1.396 . S
C340 P320 1.803 . S
C340 C341 1.378 . S
C340 C345 1.400 . S
C341 H325 0.939 . S
C341 C340 1.378 . S
C341 C342 1.361 . S
C342 H326 0.942 . S
C342 C341 1.361 . S
C342 C343 1.369 . S
C343 C342 1.369 . S
C343 C344 1.404 . S
C344 H327 0.940 . S
C344 C343 1.404 . S
C344 C345 1.389 . S
C345 H328 0.939 . S
C345 C340 1.400 . S
C345 C344 1.389 . S
C346 P320 1.819 . S
C346 C347 1.391 . S
C346 C351 1.391 . S
C347 H329 0.941 . S
C347 C346 1.391 . S
C347 C348 1.396 . S
C348 H332 0.939 . S
C348 C347 1.396 . S
C348 C349 1.397 . S
C349 C348 1.397 . S
C349 C350 1.385 . S
C350 H333 0.940 . S
C350 C349 1.385 . S
C350 C351 1.388 . S
C351 H330 0.939 . S
C351 C346 1.391 . S
C351 C350 1.388 . S
P352 O363 1.490 . S
P352 C366 1.812 . S
P352 C372 1.803 . S
P352 C378 1.819 . S
H353 C367 0.941 . S
H354 C368 0.939 . S
H355 C370 0.940 . S
H356 C371 0.940 . S
H357 C373 0.939 . S
H358 C374 0.942 . S
H359 C376 0.940 . S
H360 C377 0.939 . S
H361 C379 0.941 . S
H362 C383 0.939 . S
O363 P352 1.490 . S
H364 C380 0.939 . S
H365 C382 0.940 . S
C366 P352 1.812 . S
C366 C367 1.389 . S
C366 C371 1.391 . S
C367 H353 0.941 . S
C367 C366 1.389 . S
C367 C368 1.397 . S
C368 H354 0.939 . S
C368 C367 1.397 . S
C368 C369 1.378 . S
C369 C368 1.378 . S
C369 C370 1.378 . S
C370 H355 0.940 . S
C370 C369 1.378 . S
C370 C371 1.396 . S
C371 H356 0.940 . S
C371 C366 1.391 . S
C371 C370 1.396 . S
C372 P352 1.803 . S
C372 C373 1.378 . S
C372 C377 1.400 . S
C373 H357 0.939 . S
C373 C372 1.378 . S
C373 C374 1.361 . S
C374 H358 0.942 . S
C374 C373 1.361 . S
C374 C375 1.369 . S
C375 C374 1.369 . S
C375 C376 1.404 . S
C376 H359 0.940 . S
C376 C375 1.404 . S
C376 C377 1.389 . S
C377 H360 0.939 . S
C377 C372 1.400 . S
C377 C376 1.389 . S
C378 P352 1.819 . S
C378 C379 1.391 . S
C378 C383 1.391 . S
C379 H361 0.941 . S
C379 C378 1.391 . S
C379 C380 1.396 . S
C380 H364 0.939 . S
C380 C379 1.396 . S
C380 C381 1.397 . S
C381 C380 1.397 . S
C381 C382 1.385 . S
C382 H365 0.940 . S
C382 C381 1.385 . S
C382 C383 1.388 . S
C383 H362 0.939 . S
C383 C378 1.391 . S
C383 C382 1.388 . S
P384 O395 1.490 . S
P384 C398 1.812 . S
P384 C404 1.803 . S
P384 C410 1.819 . S
H385 C399 0.941 . S
H386 C400 0.939 . S
H387 C402 0.940 . S
H388 C403 0.940 . S
H389 C405 0.939 . S
H390 C406 0.942 . S
H391 C408 0.940 . S
H392 C409 0.939 . S
H393 C411 0.941 . S
H394 C415 0.939 . S
O395 P384 1.490 . S
H396 C412 0.939 . S
H397 C414 0.940 . S
C398 P384 1.812 . S
C398 C399 1.389 . S
C398 C403 1.391 . S
C399 H385 0.941 . S
C399 C398 1.389 . S
C399 C400 1.397 . S
C400 H386 0.939 . S
C400 C399 1.397 . S
C400 C401 1.378 . S
C401 C400 1.378 . S
C401 C402 1.378 . S
C402 H387 0.940 . S
C402 C401 1.378 . S
C402 C403 1.396 . S
C403 H388 0.940 . S
C403 C398 1.391 . S
C403 C402 1.396 . S
C404 P384 1.803 . S
C404 C405 1.378 . S
C404 C409 1.400 . S
C405 H389 0.939 . S
C405 C404 1.378 . S
C405 C406 1.361 . S
C406 H390 0.942 . S
C406 C405 1.361 . S
C406 C407 1.369 . S
C407 C406 1.369 . S
C407 C408 1.404 . S
C408 H391 0.940 . S
C408 C407 1.404 . S
C408 C409 1.389 . S
C409 H392 0.939 . S
C409 C404 1.400 . S
C409 C408 1.389 . S
C410 P384 1.819 . S
C410 C411 1.391 . S
C410 C415 1.391 . S
C411 H393 0.941 . S
C411 C410 1.391 . S
C411 C412 1.396 . S
C412 H396 0.939 . S
C412 C411 1.396 . S
C412 C413 1.397 . S
C413 C412 1.397 . S
C413 C414 1.385 . S
C414 H397 0.940 . S
C414 C413 1.385 . S
C414 C415 1.388 . S
C415 H394 0.939 . S
C415 C410 1.391 . S
C415 C414 1.388 . S
P416 O427 1.490 . S
P416 C430 1.812 . S
P416 C436 1.803 . S
P416 C442 1.819 . S
H417 C431 0.941 . S
H418 C432 0.939 . S
H419 C434 0.940 . S
H420 C435 0.940 . S
H421 C437 0.939 . S
H422 C438 0.942 . S
H423 C440 0.940 . S
H424 C441 0.939 . S
H425 C443 0.941 . S
H426 C447 0.939 . S
O427 P416 1.490 . S
H428 C444 0.939 . S
H429 C446 0.940 . S
C430 P416 1.812 . S
C430 C431 1.389 . S
C430 C435 1.391 . S
C431 H417 0.941 . S
C431 C430 1.389 . S
C431 C432 1.397 . S
C432 H418 0.939 . S
C432 C431 1.397 . S
C432 C433 1.378 . S
C433 C432 1.378 . S
C433 C434 1.378 . S
C434 H419 0.940 . S
C434 C433 1.378 . S
C434 C435 1.396 . S
C435 H420 0.940 . S
C435 C430 1.391 . S
C435 C434 1.396 . S
C436 P416 1.803 . S
C436 C437 1.378 . S
C436 C441 1.400 . S
C437 H421 0.939 . S
C437 C436 1.378 . S
C437 C438 1.361 . S
C438 H422 0.942 . S
C438 C437 1.361 . S
C438 C439 1.369 . S
C439 C438 1.369 . S
C439 C440 1.404 . S
C440 H423 0.940 . S
C440 C439 1.404 . S
C440 C441 1.389 . S
C441 H424 0.939 . S
C441 C436 1.400 . S
C441 C440 1.389 . S
C442 P416 1.819 . S
C442 C443 1.391 . S
C442 C447 1.391 . S
C443 H425 0.941 . S
C443 C442 1.391 . S
C443 C444 1.396 . S
C444 H428 0.939 . S
C444 C443 1.396 . S
C444 C445 1.397 . S
C445 C444 1.397 . S
C445 C446 1.385 . S
C446 H429 0.940 . S
C446 C445 1.385 . S
C446 C447 1.388 . S
C447 H426 0.939 . S
C447 C442 1.391 . S
C447 C446 1.388 . S
P448 O459 1.490 . S
P448 C462 1.812 . S
P448 C468 1.803 . S
P448 C474 1.819 . S
H449 C463 0.941 . S
H450 C464 0.939 . S
H451 C466 0.940 . S
H452 C467 0.940 . S
H453 C469 0.939 . S
H454 C470 0.942 . S
H455 C472 0.940 . S
H456 C473 0.939 . S
H457 C475 0.941 . S
H458 C479 0.939 . S
O459 P448 1.490 . S
H460 C476 0.939 . S
H461 C478 0.940 . S
C462 P448 1.812 . S
C462 C463 1.389 . S
C462 C467 1.391 . S
C463 H449 0.941 . S
C463 C462 1.389 . S
C463 C464 1.397 . S
C464 H450 0.939 . S
C464 C463 1.397 . S
C464 C465 1.378 . S
C465 C464 1.378 . S
C465 C466 1.378 . S
C466 H451 0.940 . S
C466 C465 1.378 . S
C466 C467 1.396 . S
C467 H452 0.940 . S
C467 C462 1.391 . S
C467 C466 1.396 . S
C468 P448 1.803 . S
C468 C469 1.378 . S
C468 C473 1.400 . S
C469 H453 0.939 . S
C469 C468 1.378 . S
C469 C470 1.361 . S
C470 H454 0.942 . S
C470 C469 1.361 . S
C470 C471 1.369 . S
C471 C470 1.369 . S
C471 C472 1.404 . S
C472 H455 0.940 . S
C472 C471 1.404 . S
C472 C473 1.389 . S
C473 H456 0.939 . S
C473 C468 1.400 . S
C473 C472 1.389 . S
C474 P448 1.819 . S
C474 C475 1.391 . S
C474 C479 1.391 . S
C475 H457 0.941 . S
C475 C474 1.391 . S
C475 C476 1.396 . S
C476 H460 0.939 . S
C476 C475 1.396 . S
C476 C477 1.397 . S
C477 C476 1.397 . S
C477 C478 1.385 . S
C478 H461 0.940 . S
C478 C477 1.385 . S
C478 C479 1.388 . S
C479 H458 0.939 . S
C479 C474 1.391 . S
C479 C478 1.388 . S
P480 O491 1.490 . S
P480 C494 1.812 . S
P480 C500 1.803 . S
P480 C506 1.819 . S
H481 C495 0.941 . S
H482 C496 0.939 . S
H483 C498 0.940 . S
H484 C499 0.940 . S
H485 C501 0.939 . S
H486 C502 0.942 . S
H487 C504 0.940 . S
H488 C505 0.939 . S
H489 C507 0.941 . S
H490 C511 0.939 . S
O491 P480 1.490 . S
H492 C508 0.939 . S
H493 C510 0.940 . S
C494 P480 1.812 . S
C494 C495 1.389 . S
C494 C499 1.391 . S
C495 H481 0.941 . S
C495 C494 1.389 . S
C495 C496 1.397 . S
C496 H482 0.939 . S
C496 C495 1.397 . S
C496 C497 1.378 . S
C497 C496 1.378 . S
C497 C498 1.378 . S
C498 H483 0.940 . S
C498 C497 1.378 . S
C498 C499 1.396 . S
C499 H484 0.940 . S
C499 C494 1.391 . S
C499 C498 1.396 . S
C500 P480 1.803 . S
C500 C501 1.378 . S
C500 C505 1.400 . S
C501 H485 0.939 . S
C501 C500 1.378 . S
C501 C502 1.361 . S
C502 H486 0.942 . S
C502 C501 1.361 . S
C502 C503 1.369 . S
C503 C502 1.369 . S
C503 C504 1.404 . S
C504 H487 0.940 . S
C504 C503 1.404 . S
C504 C505 1.389 . S
C505 H488 0.939 . S
C505 C500 1.400 . S
C505 C504 1.389 . S
C506 P480 1.819 . S
C506 C507 1.391 . S
C506 C511 1.391 . S
C507 H489 0.941 . S
C507 C506 1.391 . S
C507 C508 1.396 . S
C508 H492 0.939 . S
C508 C507 1.396 . S
C508 C509 1.397 . S
C509 C508 1.397 . S
C509 C510 1.385 . S
C510 H493 0.940 . S
C510 C509 1.385 . S
C510 C511 1.388 . S
C511 H490 0.939 . S
C511 C506 1.391 . S
C511 C510 1.388 . S
P512 O523 1.490 . S
P512 C526 1.812 . S
P512 C532 1.803 . S
P512 C538 1.819 . S
H513 C527 0.941 . S
H514 C528 0.939 . S
H515 C530 0.940 . S
H516 C531 0.940 . S
H517 C533 0.939 . S
H518 C534 0.942 . S
H519 C536 0.940 . S
H520 C537 0.939 . S
H521 C539 0.941 . S
H522 C543 0.939 . S
O523 P512 1.490 . S
H524 C540 0.939 . S
H525 C542 0.940 . S
C526 P512 1.812 . S
C526 C527 1.389 . S
C526 C531 1.391 . S
C527 H513 0.941 . S
C527 C526 1.389 . S
C527 C528 1.397 . S
C528 H514 0.939 . S
C528 C527 1.397 . S
C528 C529 1.378 . S
C529 C528 1.378 . S
C529 C530 1.378 . S
C530 H515 0.940 . S
C530 C529 1.378 . S
C530 C531 1.396 . S
C531 H516 0.940 . S
C531 C526 1.391 . S
C531 C530 1.396 . S
C532 P512 1.803 . S
C532 C533 1.378 . S
C532 C537 1.400 . S
C533 H517 0.939 . S
C533 C532 1.378 . S
C533 C534 1.361 . S
C534 H518 0.942 . S
C534 C533 1.361 . S
C534 C535 1.369 . S
C535 C534 1.369 . S
C535 C536 1.404 . S
C536 H519 0.940 . S
C536 C535 1.404 . S
C536 C537 1.389 . S
C537 H520 0.939 . S
C537 C532 1.400 . S
C537 C536 1.389 . S
C538 P512 1.819 . S
C538 C539 1.391 . S
C538 C543 1.391 . S
C539 H521 0.941 . S
C539 C538 1.391 . S
C539 C540 1.396 . S
C540 H524 0.939 . S
C540 C539 1.396 . S
C540 C541 1.397 . S
C541 C540 1.397 . S
C541 C542 1.385 . S
C542 H525 0.940 . S
C542 C541 1.385 . S
C542 C543 1.388 . S
C543 H522 0.939 . S
C543 C538 1.391 . S
C543 C542 1.388 . S
P544 O555 1.490 . S
P544 C558 1.812 . S
P544 C564 1.803 . S
P544 C570 1.819 . S
H545 C559 0.941 . S
H546 C560 0.939 . S
H547 C562 0.940 . S
H548 C563 0.940 . S
H549 C565 0.939 . S
H550 C566 0.942 . S
H551 C568 0.940 . S
H552 C569 0.939 . S
H553 C571 0.941 . S
H554 C575 0.939 . S
O555 P544 1.490 . S
H556 C572 0.939 . S
H557 C574 0.940 . S
C558 P544 1.812 . S
C558 C559 1.389 . S
C558 C563 1.391 . S
C559 H545 0.941 . S
C559 C558 1.389 . S
C559 C560 1.397 . S
C560 H546 0.939 . S
C560 C559 1.397 . S
C560 C561 1.378 . S
C561 C560 1.378 . S
C561 C562 1.378 . S
C562 H547 0.940 . S
C562 C561 1.378 . S
C562 C563 1.396 . S
C563 H548 0.940 . S
C563 C558 1.391 . S
C563 C562 1.396 . S
C564 P544 1.803 . S
C564 C565 1.378 . S
C564 C569 1.400 . S
C565 H549 0.939 . S
C565 C564 1.378 . S
C565 C566 1.361 . S
C566 H550 0.942 . S
C566 C565 1.361 . S
C566 C567 1.369 . S
C567 C566 1.369 . S
C567 C568 1.404 . S
C568 H551 0.940 . S
C568 C567 1.404 . S
C568 C569 1.389 . S
C569 H552 0.939 . S
C569 C564 1.400 . S
C569 C568 1.389 . S
C570 P544 1.819 . S
C570 C571 1.391 . S
C570 C575 1.391 . S
C571 H553 0.941 . S
C571 C570 1.391 . S
C571 C572 1.396 . S
C572 H556 0.939 . S
C572 C571 1.396 . S
C572 C573 1.397 . S
C573 C572 1.397 . S
C573 C574 1.385 . S
C574 H557 0.940 . S
C574 C573 1.385 . S
C574 C575 1.388 . S
C575 H554 0.939 . S
C575 C570 1.391 . S
C575 C574 1.388 . S
P576 O587 1.490 . S
P576 C590 1.812 . S
P576 C596 1.803 . S
P576 C602 1.819 . S
H577 C591 0.941 . S
H578 C592 0.939 . S
H579 C594 0.940 . S
H580 C595 0.940 . S
H581 C597 0.939 . S
H582 C598 0.942 . S
H583 C600 0.940 . S
H584 C601 0.939 . S
H585 C603 0.941 . S
H586 C607 0.939 . S
O587 P576 1.490 . S
H588 C604 0.939 . S
H589 C606 0.940 . S
C590 P576 1.812 . S
C590 C591 1.389 . S
C590 C595 1.391 . S
C591 H577 0.941 . S
C591 C590 1.389 . S
C591 C592 1.397 . S
C592 H578 0.939 . S
C592 C591 1.397 . S
C592 C593 1.378 . S
C593 C592 1.378 . S
C593 C594 1.378 . S
C594 H579 0.940 . S
C594 C593 1.378 . S
C594 C595 1.396 . S
C595 H580 0.940 . S
C595 C590 1.391 . S
C595 C594 1.396 . S
C596 P576 1.803 . S
C596 C597 1.378 . S
C596 C601 1.400 . S
C597 H581 0.939 . S
C597 C596 1.378 . S
C597 C598 1.361 . S
C598 H582 0.942 . S
C598 C597 1.361 . S
C598 C599 1.369 . S
C599 C598 1.369 . S
C599 C600 1.404 . S
C600 H583 0.940 . S
C600 C599 1.404 . S
C600 C601 1.389 . S
C601 H584 0.939 . S
C601 C596 1.400 . S
C601 C600 1.389 . S
C602 P576 1.819 . S
C602 C603 1.391 . S
C602 C607 1.391 . S
C603 H585 0.941 . S
C603 C602 1.391 . S
C603 C604 1.396 . S
C604 H588 0.939 . S
C604 C603 1.396 . S
C604 C605 1.397 . S
C605 C604 1.397 . S
C605 C606 1.385 . S
C606 H589 0.940 . S
C606 C605 1.385 . S
C606 C607 1.388 . S
C607 H586 0.939 . S
C607 C602 1.391 . S
C607 C606 1.388 . S
P608 O619 1.490 . S
P608 C622 1.812 . S
P608 C628 1.803 . S
P608 C634 1.819 . S
H609 C623 0.941 . S
H610 C624 0.939 . S
H611 C626 0.940 . S
H612 C627 0.940 . S
H613 C629 0.939 . S
H614 C630 0.942 . S
H615 C632 0.940 . S
H616 C633 0.939 . S
H617 C635 0.941 . S
H618 C639 0.939 . S
O619 P608 1.490 . S
H620 C636 0.939 . S
H621 C638 0.940 . S
C622 P608 1.812 . S
C622 C623 1.389 . S
C622 C627 1.391 . S
C623 H609 0.941 . S
C623 C622 1.389 . S
C623 C624 1.397 . S
C624 H610 0.939 . S
C624 C623 1.397 . S
C624 C625 1.378 . S
C625 C624 1.378 . S
C625 C626 1.378 . S
C626 H611 0.940 . S
C626 C625 1.378 . S
C626 C627 1.396 . S
C627 H612 0.940 . S
C627 C622 1.391 . S
C627 C626 1.396 . S
C628 P608 1.803 . S
C628 C629 1.378 . S
C628 C633 1.400 . S
C629 H613 0.939 . S
C629 C628 1.378 . S
C629 C630 1.361 . S
C630 H614 0.942 . S
C630 C629 1.361 . S
C630 C631 1.369 . S
C631 C630 1.369 . S
C631 C632 1.404 . S
C632 H615 0.940 . S
C632 C631 1.404 . S
C632 C633 1.389 . S
C633 H616 0.939 . S
C633 C628 1.400 . S
C633 C632 1.389 . S
C634 P608 1.819 . S
C634 C635 1.391 . S
C634 C639 1.391 . S
C635 H617 0.941 . S
C635 C634 1.391 . S
C635 C636 1.396 . S
C636 H620 0.939 . S
C636 C635 1.396 . S
C636 C637 1.397 . S
C637 C636 1.397 . S
C637 C638 1.385 . S
C638 H621 0.940 . S
C638 C637 1.385 . S
C638 C639 1.388 . S
C639 H618 0.939 . S
C639 C634 1.391 . S
C639 C638 1.388 . S
P640 O651 1.490 . S
P640 C654 1.812 . S
P640 C660 1.803 . S
P640 C666 1.819 . S
H641 C655 0.941 . S
H642 C656 0.939 . S
H643 C658 0.940 . S
H644 C659 0.940 . S
H645 C661 0.939 . S
H646 C662 0.942 . S
H647 C664 0.940 . S
H648 C665 0.939 . S
H649 C667 0.941 . S
H650 C671 0.939 . S
O651 P640 1.490 . S
H652 C668 0.939 . S
H653 C670 0.940 . S
C654 P640 1.812 . S
C654 C655 1.389 . S
C654 C659 1.391 . S
C655 H641 0.941 . S
C655 C654 1.389 . S
C655 C656 1.397 . S
C656 H642 0.939 . S
C656 C655 1.397 . S
C656 C657 1.378 . S
C657 C656 1.378 . S
C657 C658 1.378 . S
C658 H643 0.940 . S
C658 C657 1.378 . S
C658 C659 1.396 . S
C659 H644 0.940 . S
C659 C654 1.391 . S
C659 C658 1.396 . S
C660 P640 1.803 . S
C660 C661 1.378 . S
C660 C665 1.400 . S
C661 H645 0.939 . S
C661 C660 1.378 . S
C661 C662 1.361 . S
C662 H646 0.942 . S
C662 C661 1.361 . S
C662 C663 1.369 . S
C663 C662 1.369 . S
C663 C664 1.404 . S
C664 H647 0.940 . S
C664 C663 1.404 . S
C664 C665 1.389 . S
C665 H648 0.939 . S
C665 C660 1.400 . S
C665 C664 1.389 . S
C666 P640 1.819 . S
C666 C667 1.391 . S
C666 C671 1.391 . S
C667 H649 0.941 . S
C667 C666 1.391 . S
C667 C668 1.396 . S
C668 H652 0.939 . S
C668 C667 1.396 . S
C668 C669 1.397 . S
C669 C668 1.397 . S
C669 C670 1.385 . S
C670 H653 0.940 . S
C670 C669 1.385 . S
C670 C671 1.388 . S
C671 H650 0.939 . S
C671 C666 1.391 . S
C671 C670 1.388 . S
P672 O683 1.490 . S
P672 C686 1.812 . S
P672 C692 1.803 . S
P672 C698 1.819 . S
H673 C687 0.941 . S
H674 C688 0.939 . S
H675 C690 0.940 . S
H676 C691 0.940 . S
H677 C693 0.939 . S
H678 C694 0.942 . S
H679 C696 0.940 . S
H680 C697 0.939 . S
H681 C699 0.941 . S
H682 C703 0.939 . S
O683 P672 1.490 . S
H684 C700 0.939 . S
H685 C702 0.940 . S
C686 P672 1.812 . S
C686 C687 1.389 . S
C686 C691 1.391 . S
C687 H673 0.941 . S
C687 C686 1.389 . S
C687 C688 1.397 . S
C688 H674 0.939 . S
C688 C687 1.397 . S
C688 C689 1.378 . S
C689 C688 1.378 . S
C689 C690 1.378 . S
C690 H675 0.940 . S
C690 C689 1.378 . S
C690 C691 1.396 . S
C691 H676 0.940 . S
C691 C686 1.391 . S
C691 C690 1.396 . S
C692 P672 1.803 . S
C692 C693 1.378 . S
C692 C697 1.400 . S
C693 H677 0.939 . S
C693 C692 1.378 . S
C693 C694 1.361 . S
C694 H678 0.942 . S
C694 C693 1.361 . S
C694 C695 1.369 . S
C695 C694 1.369 . S
C695 C696 1.404 . S
C696 H679 0.940 . S
C696 C695 1.404 . S
C696 C697 1.389 . S
C697 H680 0.939 . S
C697 C692 1.400 . S
C697 C696 1.389 . S
C698 P672 1.819 . S
C698 C699 1.391 . S
C698 C703 1.391 . S
C699 H681 0.941 . S
C699 C698 1.391 . S
C699 C700 1.396 . S
C700 H684 0.939 . S
C700 C699 1.396 . S
C700 C701 1.397 . S
C701 C700 1.397 . S
C701 C702 1.385 . S
C702 H685 0.940 . S
C702 C701 1.385 . S
C702 C703 1.388 . S
C703 H682 0.939 . S
C703 C698 1.391 . S
C703 C702 1.388 . S
P704 O715 1.490 . S
P704 C718 1.812 . S
P704 C724 1.803 . S
P704 C730 1.819 . S
H705 C719 0.941 . S
H706 C720 0.939 . S
H707 C722 0.940 . S
H708 C723 0.940 . S
H709 C725 0.939 . S
H710 C726 0.942 . S
H711 C728 0.940 . S
H712 C729 0.939 . S
H713 C731 0.941 . S
H714 C735 0.939 . S
O715 P704 1.490 . S
H716 C732 0.939 . S
H717 C734 0.940 . S
C718 P704 1.812 . S
C718 C719 1.389 . S
C718 C723 1.391 . S
C719 H705 0.941 . S
C719 C718 1.389 . S
C719 C720 1.397 . S
C720 H706 0.939 . S
C720 C719 1.397 . S
C720 C721 1.378 . S
C721 C720 1.378 . S
C721 C722 1.378 . S
C722 H707 0.940 . S
C722 C721 1.378 . S
C722 C723 1.396 . S
C723 H708 0.940 . S
C723 C718 1.391 . S
C723 C722 1.396 . S
C724 P704 1.803 . S
C724 C725 1.378 . S
C724 C729 1.400 . S
C725 H709 0.939 . S
C725 C724 1.378 . S
C725 C726 1.361 . S
C726 H710 0.942 . S
C726 C725 1.361 . S
C726 C727 1.369 . S
C727 C726 1.369 . S
C727 C728 1.404 . S
C728 H711 0.940 . S
C728 C727 1.404 . S
C728 C729 1.389 . S
C729 H712 0.939 . S
C729 C724 1.400 . S
C729 C728 1.389 . S
C730 P704 1.819 . S
C730 C731 1.391 . S
C730 C735 1.391 . S
C731 H713 0.941 . S
C731 C730 1.391 . S
C731 C732 1.396 . S
C732 H716 0.939 . S
C732 C731 1.396 . S
C732 C733 1.397 . S
C733 C732 1.397 . S
C733 C734 1.385 . S
C734 H717 0.940 . S
C734 C733 1.385 . S
C734 C735 1.388 . S
C735 H714 0.939 . S
C735 C730 1.391 . S
C735 C734 1.388 . S
P736 O747 1.490 . S
P736 C750 1.812 . S
P736 C756 1.803 . S
P736 C762 1.819 . S
H737 C751 0.941 . S
H738 C752 0.939 . S
H739 C754 0.940 . S
H740 C755 0.940 . S
H741 C757 0.939 . S
H742 C758 0.942 . S
H743 C760 0.940 . S
H744 C761 0.939 . S
H745 C763 0.941 . S
H746 C767 0.939 . S
O747 P736 1.490 . S
H748 C764 0.939 . S
H749 C766 0.940 . S
C750 P736 1.812 . S
C750 C751 1.389 . S
C750 C755 1.391 . S
C751 H737 0.941 . S
C751 C750 1.389 . S
C751 C752 1.397 . S
C752 H738 0.939 . S
C752 C751 1.397 . S
C752 C753 1.378 . S
C753 C752 1.378 . S
C753 C754 1.378 . S
C754 H739 0.940 . S
C754 C753 1.378 . S
C754 C755 1.396 . S
C755 H740 0.940 . S
C755 C750 1.391 . S
C755 C754 1.396 . S
C756 P736 1.803 . S
C756 C757 1.378 . S
C756 C761 1.400 . S
C757 H741 0.939 . S
C757 C756 1.378 . S
C757 C758 1.361 . S
C758 H742 0.942 . S
C758 C757 1.361 . S
C758 C759 1.369 . S
C759 C758 1.369 . S
C759 C760 1.404 . S
C760 H743 0.940 . S
C760 C759 1.404 . S
C760 C761 1.389 . S
C761 H744 0.939 . S
C761 C756 1.400 . S
C761 C760 1.389 . S
C762 P736 1.819 . S
C762 C763 1.391 . S
C762 C767 1.391 . S
C763 H745 0.941 . S
C763 C762 1.391 . S
C763 C764 1.396 . S
C764 H748 0.939 . S
C764 C763 1.396 . S
C764 C765 1.397 . S
C765 C764 1.397 . S
C765 C766 1.385 . S
C766 H749 0.940 . S
C766 C765 1.385 . S
C766 C767 1.388 . S
C767 H746 0.939 . S
C767 C762 1.391 . S
C767 C766 1.388 . S
P768 O779 1.490 . S
P768 C782 1.812 . S
P768 C788 1.803 . S
P768 C794 1.819 . S
H769 C783 0.941 . S
H770 C784 0.939 . S
H771 C786 0.940 . S
H772 C787 0.940 . S
H773 C789 0.939 . S
H774 C790 0.942 . S
H775 C792 0.940 . S
H776 C793 0.939 . S
H777 C795 0.941 . S
H778 C799 0.939 . S
O779 P768 1.490 . S
H780 C796 0.939 . S
H781 C798 0.940 . S
C782 P768 1.812 . S
C782 C783 1.389 . S
C782 C787 1.391 . S
C783 H769 0.941 . S
C783 C782 1.389 . S
C783 C784 1.397 . S
C784 H770 0.939 . S
C784 C783 1.397 . S
C784 C785 1.378 . S
C785 C784 1.378 . S
C785 C786 1.378 . S
C786 H771 0.940 . S
C786 C785 1.378 . S
C786 C787 1.396 . S
C787 H772 0.940 . S
C787 C782 1.391 . S
C787 C786 1.396 . S
C788 P768 1.803 . S
C788 C789 1.378 . S
C788 C793 1.400 . S
C789 H773 0.939 . S
C789 C788 1.378 . S
C789 C790 1.361 . S
C790 H774 0.942 . S
C790 C789 1.361 . S
C790 C791 1.369 . S
C791 C790 1.369 . S
C791 C792 1.404 . S
C792 H775 0.940 . S
C792 C791 1.404 . S
C792 C793 1.389 . S
C793 H776 0.939 . S
C793 C788 1.400 . S
C793 C792 1.389 . S
C794 P768 1.819 . S
C794 C795 1.391 . S
C794 C799 1.391 . S
C795 H777 0.941 . S
C795 C794 1.391 . S
C795 C796 1.396 . S
C796 H780 0.939 . S
C796 C795 1.396 . S
C796 C797 1.397 . S
C797 C796 1.397 . S
C797 C798 1.385 . S
C798 H781 0.940 . S
C798 C797 1.385 . S
C798 C799 1.388 . S
C799 H778 0.939 . S
C799 C794 1.391 . S
C799 C798 1.388 . S
P800 O811 1.490 . S
P800 C814 1.812 . S
P800 C820 1.803 . S
P800 C826 1.819 . S
H801 C815 0.941 . S
H802 C816 0.939 . S
H803 C818 0.940 . S
H804 C819 0.940 . S
H805 C821 0.939 . S
H806 C822 0.942 . S
H807 C824 0.940 . S
H808 C825 0.939 . S
H809 C827 0.941 . S
H810 C831 0.939 . S
O811 P800 1.490 . S
H812 C828 0.939 . S
H813 C830 0.940 . S
C814 P800 1.812 . S
C814 C815 1.389 . S
C814 C819 1.391 . S
C815 H801 0.941 . S
C815 C814 1.389 . S
C815 C816 1.397 . S
C816 H802 0.939 . S
C816 C815 1.397 . S
C816 C817 1.378 . S
C817 C816 1.378 . S
C817 C818 1.378 . S
C818 H803 0.940 . S
C818 C817 1.378 . S
C818 C819 1.396 . S
C819 H804 0.940 . S
C819 C814 1.391 . S
C819 C818 1.396 . S
C820 P800 1.803 . S
C820 C821 1.378 . S
C820 C825 1.400 . S
C821 H805 0.939 . S
C821 C820 1.378 . S
C821 C822 1.361 . S
C822 H806 0.942 . S
C822 C821 1.361 . S
C822 C823 1.369 . S
C823 C822 1.369 . S
C823 C824 1.404 . S
C824 H807 0.940 . S
C824 C823 1.404 . S
C824 C825 1.389 . S
C825 H808 0.939 . S
C825 C820 1.400 . S
C825 C824 1.389 . S
C826 P800 1.819 . S
C826 C827 1.391 . S
C826 C831 1.391 . S
C827 H809 0.941 . S
C827 C826 1.391 . S
C827 C828 1.396 . S
C828 H812 0.939 . S
C828 C827 1.396 . S
C828 C829 1.397 . S
C829 C828 1.397 . S
C829 C830 1.385 . S
C830 H813 0.940 . S
C830 C829 1.385 . S
C830 C831 1.388 . S
C831 H810 0.939 . S
C831 C826 1.391 . S
C831 C830 1.388 . S
P832 O843 1.490 . S
P832 C846 1.812 . S
P832 C852 1.803 . S
P832 C858 1.819 . S
H833 C847 0.941 . S
H834 C848 0.939 . S
H835 C850 0.940 . S
H836 C851 0.940 . S
H837 C853 0.939 . S
H838 C854 0.942 . S
H839 C856 0.940 . S
H840 C857 0.939 . S
H841 C859 0.941 . S
H842 C863 0.939 . S
O843 P832 1.490 . S
H844 C860 0.939 . S
H845 C862 0.940 . S
C846 P832 1.812 . S
C846 C847 1.389 . S
C846 C851 1.391 . S
C847 H833 0.941 . S
C847 C846 1.389 . S
C847 C848 1.397 . S
C848 H834 0.939 . S
C848 C847 1.397 . S
C848 C849 1.378 . S
C849 C848 1.378 . S
C849 C850 1.378 . S
C850 H835 0.940 . S
C850 C849 1.378 . S
C850 C851 1.396 . S
C851 H836 0.940 . S
C851 C846 1.391 . S
C851 C850 1.396 . S
C852 P832 1.803 . S
C852 C853 1.378 . S
C852 C857 1.400 . S
C853 H837 0.939 . S
C853 C852 1.378 . S
C853 C854 1.361 . S
C854 H838 0.942 . S
C854 C853 1.361 . S
C854 C855 1.369 . S
C855 C854 1.369 . S
C855 C856 1.404 . S
C856 H839 0.940 . S
C856 C855 1.404 . S
C856 C857 1.389 . S
C857 H840 0.939 . S
C857 C852 1.400 . S
C857 C856 1.389 . S
C858 P832 1.819 . S
C858 C859 1.391 . S
C858 C863 1.391 . S
C859 H841 0.941 . S
C859 C858 1.391 . S
C859 C860 1.396 . S
C860 H844 0.939 . S
C860 C859 1.396 . S
C860 C861 1.397 . S
C861 C860 1.397 . S
C861 C862 1.385 . S
C862 H845 0.940 . S
C862 C861 1.385 . S
C862 C863 1.388 . S
C863 H842 0.939 . S
C863 C858 1.391 . S
C863 C862 1.388 . S
P864 O875 1.490 . S
P864 C878 1.812 . S
P864 C884 1.803 . S
P864 C890 1.819 . S
H865 C879 0.941 . S
H866 C880 0.939 . S
H867 C882 0.940 . S
H868 C883 0.940 . S
H869 C885 0.939 . S
H870 C886 0.942 . S
H871 C888 0.940 . S
H872 C889 0.939 . S
H873 C891 0.941 . S
H874 C895 0.939 . S
O875 P864 1.490 . S
H876 C892 0.939 . S
H877 C894 0.940 . S
C878 P864 1.812 . S
C878 C879 1.389 . S
C878 C883 1.391 . S
C879 H865 0.941 . S
C879 C878 1.389 . S
C879 C880 1.397 . S
C880 H866 0.939 . S
C880 C879 1.397 . S
C880 C881 1.378 . S
C881 C880 1.378 . S
C881 C882 1.378 . S
C882 H867 0.940 . S
C882 C881 1.378 . S
C882 C883 1.396 . S
C883 H868 0.940 . S
C883 C878 1.391 . S
C883 C882 1.396 . S
C884 P864 1.803 . S
C884 C885 1.378 . S
C884 C889 1.400 . S
C885 H869 0.939 . S
C885 C884 1.378 . S
C885 C886 1.361 . S
C886 H870 0.942 . S
C886 C885 1.361 . S
C886 C887 1.369 . S
C887 C886 1.369 . S
C887 C888 1.404 . S
C888 H871 0.940 . S
C888 C887 1.404 . S
C888 C889 1.389 . S
C889 H872 0.939 . S
C889 C884 1.400 . S
C889 C888 1.389 . S
C890 P864 1.819 . S
C890 C891 1.391 . S
C890 C895 1.391 . S
C891 H873 0.941 . S
C891 C890 1.391 . S
C891 C892 1.396 . S
C892 H876 0.939 . S
C892 C891 1.396 . S
C892 C893 1.397 . S
C893 C892 1.397 . S
C893 C894 1.385 . S
C894 H877 0.940 . S
C894 C893 1.385 . S
C894 C895 1.388 . S
C895 H874 0.939 . S
C895 C890 1.391 . S
C895 C894 1.388 . S
P896 O907 1.490 . S
P896 C910 1.812 . S
P896 C916 1.803 . S
P896 C922 1.819 . S
H897 C911 0.941 . S
H898 C912 0.939 . S
H899 C914 0.940 . S
H900 C915 0.940 . S
H901 C917 0.939 . S
H902 C918 0.942 . S
H903 C920 0.940 . S
H904 C921 0.939 . S
H905 C923 0.941 . S
H906 C927 0.939 . S
O907 P896 1.490 . S
H908 C924 0.939 . S
H909 C926 0.940 . S
C910 P896 1.812 . S
C910 C911 1.389 . S
C910 C915 1.391 . S
C911 H897 0.941 . S
C911 C910 1.389 . S
C911 C912 1.397 . S
C912 H898 0.939 . S
C912 C911 1.397 . S
C912 C913 1.378 . S
C913 C912 1.378 . S
C913 C914 1.378 . S
C914 H899 0.940 . S
C914 C913 1.378 . S
C914 C915 1.396 . S
C915 H900 0.940 . S
C915 C910 1.391 . S
C915 C914 1.396 . S
C916 P896 1.803 . S
C916 C917 1.378 . S
C916 C921 1.400 . S
C917 H901 0.939 . S
C917 C916 1.378 . S
C917 C918 1.361 . S
C918 H902 0.942 . S
C918 C917 1.361 . S
C918 C919 1.369 . S
C919 C918 1.369 . S
C919 C920 1.404 . S
C920 H903 0.940 . S
C920 C919 1.404 . S
C920 C921 1.389 . S
C921 H904 0.939 . S
C921 C916 1.400 . S
C921 C920 1.389 . S
C922 P896 1.819 . S
C922 C923 1.391 . S
C922 C927 1.391 . S
C923 H905 0.941 . S
C923 C922 1.391 . S
C923 C924 1.396 . S
C924 H908 0.939 . S
C924 C923 1.396 . S
C924 C925 1.397 . S
C925 C924 1.397 . S
C925 C926 1.385 . S
C926 H909 0.940 . S
C926 C925 1.385 . S
C926 C927 1.388 . S
C927 H906 0.939 . S
C927 C922 1.391 . S
C927 C926 1.388 . S
P928 O939 1.490 . S
P928 C942 1.812 . S
P928 C948 1.803 . S
P928 C954 1.819 . S
H929 C943 0.941 . S
H930 C944 0.939 . S
H931 C946 0.940 . S
H932 C947 0.940 . S
H933 C949 0.939 . S
H934 C950 0.942 . S
H935 C952 0.940 . S
H936 C953 0.939 . S
H937 C955 0.941 . S
H938 C959 0.939 . S
O939 P928 1.490 . S
H940 C956 0.939 . S
H941 C958 0.940 . S
C942 P928 1.812 . S
C942 C943 1.389 . S
C942 C947 1.391 . S
C943 H929 0.941 . S
C943 C942 1.389 . S
C943 C944 1.397 . S
C944 H930 0.939 . S
C944 C943 1.397 . S
C944 C945 1.378 . S
C945 C944 1.378 . S
C945 C946 1.378 . S
C946 H931 0.940 . S
C946 C945 1.378 . S
C946 C947 1.396 . S
C947 H932 0.940 . S
C947 C942 1.391 . S
C947 C946 1.396 . S
C948 P928 1.803 . S
C948 C949 1.378 . S
C948 C953 1.400 . S
C949 H933 0.939 . S
C949 C948 1.378 . S
C949 C950 1.361 . S
C950 H934 0.942 . S
C950 C949 1.361 . S
C950 C951 1.369 . S
C951 C950 1.369 . S
C951 C952 1.404 . S
C952 H935 0.940 . S
C952 C951 1.404 . S
C952 C953 1.389 . S
C953 H936 0.939 . S
C953 C948 1.400 . S
C953 C952 1.389 . S
C954 P928 1.819 . S
C954 C955 1.391 . S
C954 C959 1.391 . S
C955 H937 0.941 . S
C955 C954 1.391 . S
C955 C956 1.396 . S
C956 H940 0.939 . S
C956 C955 1.396 . S
C956 C957 1.397 . S
C957 C956 1.397 . S
C957 C958 1.385 . S
C958 H941 0.940 . S
C958 C957 1.385 . S
C958 C959 1.388 . S
C959 H938 0.939 . S
C959 C954 1.391 . S
C959 C958 1.388 . S
P960 O971 1.490 . S
P960 C974 1.812 . S
P960 C980 1.803 . S
P960 C986 1.819 . S
H961 C975 0.941 . S
H962 C976 0.939 . S
H963 C978 0.940 . S
H964 C979 0.940 . S
H965 C981 0.939 . S
H966 C982 0.942 . S
H967 C984 0.940 . S
H968 C985 0.939 . S
H969 C987 0.941 . S
H970 C991 0.939 . S
O971 P960 1.490 . S
H972 C988 0.939 . S
H973 C990 0.940 . S
C974 P960 1.812 . S
C974 C975 1.389 . S
C974 C979 1.391 . S
C975 H961 0.941 . S
C975 C974 1.389 . S
C975 C976 1.397 . S
C976 H962 0.939 . S
C976 C975 1.397 . S
C976 C977 1.378 . S
C977 C976 1.378 . S
C977 C978 1.378 . S
C978 H963 0.940 . S
C978 C977 1.378 . S
C978 C979 1.396 . S
C979 H964 0.940 . S
C979 C974 1.391 . S
C979 C978 1.396 . S
C980 P960 1.803 . S
C980 C981 1.378 . S
C980 C985 1.400 . S
C981 H965 0.939 . S
C981 C980 1.378 . S
C981 C982 1.361 . S
C982 H966 0.942 . S
C982 C981 1.361 . S
C982 C983 1.369 . S
C983 C982 1.369 . S
C983 C984 1.404 . S
C984 H967 0.940 . S
C984 C983 1.404 . S
C984 C985 1.389 . S
C985 H968 0.939 . S
C985 C980 1.400 . S
C985 C984 1.389 . S
C986 P960 1.819 . S
C986 C987 1.391 . S
C986 C991 1.391 . S
C987 H969 0.941 . S
C987 C986 1.391 . S
C987 C988 1.396 . S
C988 H972 0.939 . S
C988 C987 1.396 . S
C988 C989 1.397 . S
C989 C988 1.397 . S
C989 C990 1.385 . S
C990 H973 0.940 . S
C990 C989 1.385 . S
C990 C991 1.388 . S
C991 H970 0.939 . S
C991 C986 1.391 . S
C991 C990 1.388 . S
P992 O1003 1.490 . S
P992 C1006 1.812 . S
P992 C1012 1.803 . S
P992 C1018 1.819 . S
H993 C1007 0.941 . S
H994 C1008 0.939 . S
H995 C1010 0.940 . S
H996 C1011 0.940 . S
H997 C1013 0.939 . S
H998 C1014 0.942 . S
H999 C1016 0.940 . S
H1000 C1017 0.939 . S
H1001 C1019 0.941 . S
H1002 C1023 0.939 . S
O1003 P992 1.490 . S
H1004 C1020 0.939 . S
H1005 C1022 0.940 . S
C1006 P992 1.812 . S
C1006 C1007 1.389 . S
C1006 C1011 1.391 . S
C1007 H993 0.941 . S
C1007 C1006 1.389 . S
C1007 C1008 1.397 . S
C1008 H994 0.939 . S
C1008 C1007 1.397 . S
C1008 C1009 1.378 . S
C1009 C1008 1.378 . S
C1009 C1010 1.378 . S
C1010 H995 0.940 . S
C1010 C1009 1.378 . S
C1010 C1011 1.396 . S
C1011 H996 0.940 . S
C1011 C1006 1.391 . S
C1011 C1010 1.396 . S
C1012 P992 1.803 . S
C1012 C1013 1.378 . S
C1012 C1017 1.400 . S
C1013 H997 0.939 . S
C1013 C1012 1.378 . S
C1013 C1014 1.361 . S
C1014 H998 0.942 . S
C1014 C1013 1.361 . S
C1014 C1015 1.369 . S
C1015 C1014 1.369 . S
C1015 C1016 1.404 . S
C1016 H999 0.940 . S
C1016 C1015 1.404 . S
C1016 C1017 1.389 . S
C1017 H1000 0.939 . S
C1017 C1012 1.400 . S
C1017 C1016 1.389 . S
C1018 P992 1.819 . S
C1018 C1019 1.391 . S
C1018 C1023 1.391 . S
C1019 H1001 0.941 . S
C1019 C1018 1.391 . S
C1019 C1020 1.396 . S
C1020 H1004 0.939 . S
C1020 C1019 1.396 . S
C1020 C1021 1.397 . S
C1021 C1020 1.397 . S
C1021 C1022 1.385 . S
C1022 H1005 0.940 . S
C1022 C1021 1.385 . S
C1022 C1023 1.388 . S
C1023 H1002 0.939 . S
C1023 C1018 1.391 . S
C1023 C1022 1.388 . S
Cu1024 N1025 1.999 . S
Cu1024 O1030 1.992 . S
Cu1024 N1035 1.985 . S
Cu1024 O1044 1.959 . S
N1025 Cu1024 1.999 . S
N1025 C1027 1.263 1_554 S
N1025 C1029 1.389 . S
N1026 C1027 1.358 . S
N1026 C1028 1.400 . S
C1027 N1025 1.263 1_556 S
C1027 N1026 1.358 . S
C1027 H1033 0.930 . S
C1028 N1026 1.400 . S
C1028 C1029 1.351 1_556 S
C1028 H1045 0.930 . S
C1029 N1025 1.389 . S
C1029 C1028 1.351 1_554 S
C1029 H1034 0.930 . S
O1030 Cu1024 1.992 . S
O1030 C1040 1.271 1_554 S
C1031 O1032 1.261 . S
C1031 O1044 1.251 . S
O1032 C1031 1.261 . S
H1033 C1027 0.930 . S
H1034 C1029 0.930 . S
N1035 Cu1024 1.985 . S
N1035 C1037 1.335 . S
N1035 C1038 1.390 . S
N1036 C1037 1.345 . S
N1036 C1039 1.336 . S
C1037 N1035 1.335 . S
C1037 N1036 1.345 . S
C1037 H1042 0.930 . S
C1038 N1035 1.390 . S
C1038 C1039 1.346 . S
C1038 H1043 0.930 . S
C1039 N1036 1.336 . S
C1039 C1038 1.346 . S
C1039 H1046 0.929 . S
C1040 O1030 1.271 1_556 S
C1040 O1041 1.216 . S
O1041 C1040 1.216 . S
H1042 C1037 0.930 . S
H1043 C1038 0.930 . S
O1044 Cu1024 1.959 . S
O1044 C1031 1.251 . S
H1045 C1028 0.930 . S
H1046 C1039 0.929 . S
Cu1047 N1048 1.999 . S
Cu1047 O1053 1.974 . S
Cu1047 N1058 1.985 1_554 S
Cu1047 O1067 1.959 1_554 S
N1048 Cu1047 1.999 . S
N1048 C1050 1.263 . S
N1048 C1052 1.389 . S
N1049 C1050 1.358 . S
N1049 C1051 1.400 . S
C1050 N1048 1.263 . S
C1050 N1049 1.358 . S
C1050 H1056 0.930 . S
C1051 N1049 1.400 . S
C1051 C1052 1.351 . S
C1051 H1068 0.930 . S
C1052 N1048 1.389 . S
C1052 C1051 1.351 . S
C1052 H1057 0.930 . S
O1053 Cu1047 1.974 . S
O1053 C1063 1.282 . S
C1054 O1055 1.261 . S
C1054 O1067 1.251 . S
O1055 C1054 1.261 . S
H1056 C1050 0.930 . S
H1057 C1052 0.930 . S
N1058 Cu1047 1.985 1_556 S
N1058 C1060 1.335 . S
N1058 C1061 1.390 . S
N1059 C1060 1.345 . S
N1059 C1062 1.336 . S
C1060 N1058 1.335 . S
C1060 N1059 1.345 . S
C1060 H1065 0.930 . S
C1061 N1058 1.390 . S
C1061 C1062 1.346 . S
C1061 H1066 0.930 1_556 S
C1062 N1059 1.336 . S
C1062 C1061 1.346 . S
C1062 H1069 0.929 . S
C1063 O1053 1.282 . S
C1063 O1064 1.216 . S
O1064 C1063 1.216 . S
H1065 C1060 0.930 . S
H1066 C1061 0.930 1_554 S
O1067 Cu1047 1.959 1_556 S
O1067 C1054 1.251 . S
H1068 C1051 0.930 . S
H1069 C1062 0.929 . S
Cu1070 N1071 1.999 1_554 S
Cu1070 O1076 1.974 1_554 S
Cu1070 N1081 1.985 . S
Cu1070 O1090 1.959 . S
N1071 Cu1070 1.999 1_556 S
N1071 C1073 1.263 . S
N1071 C1075 1.389 . S
N1072 C1073 1.358 . S
N1072 C1074 1.400 . S
C1073 N1071 1.263 . S
C1073 N1072 1.358 . S
C1073 H1079 0.930 . S
C1074 N1072 1.400 . S
C1074 C1075 1.351 . S
C1074 H1091 0.930 . S
C1075 N1071 1.389 . S
C1075 C1074 1.351 . S
C1075 H1080 0.930 1_556 S
O1076 Cu1070 1.974 1_556 S
O1076 C1086 1.282 . S
C1077 O1078 1.261 . S
C1077 O1090 1.251 . S
O1078 C1077 1.261 . S
H1079 C1073 0.930 . S
H1080 C1075 0.930 1_554 S
N1081 Cu1070 1.985 . S
N1081 C1083 1.335 . S
N1081 C1084 1.390 . S
N1082 C1083 1.345 . S
N1082 C1085 1.336 . S
C1083 N1081 1.335 . S
C1083 N1082 1.345 . S
C1083 H1088 0.930 . S
C1084 N1081 1.390 . S
C1084 C1085 1.346 . S
C1084 H1089 0.930 . S
C1085 N1082 1.336 . S
C1085 C1084 1.346 . S
C1085 H1092 0.929 . S
C1086 O1076 1.282 . S
C1086 O1087 1.216 . S
O1087 C1086 1.216 . S
H1088 C1083 0.930 . S
H1089 C1084 0.930 . S
O1090 Cu1070 1.959 . S
O1090 C1077 1.251 . S
H1091 C1074 0.930 . S
H1092 C1085 0.929 . S
Cu1093 N1094 1.971 1_556 S
Cu1093 O1099 1.940 1_556 S
Cu1093 N1104 2.012 . S
Cu1093 O1113 1.993 . S
N1094 Cu1093 1.971 1_554 S
N1094 C1096 1.263 . S
N1094 C1098 1.389 . S
N1095 C1096 1.358 . S
N1095 C1097 1.400 . S
C1096 N1094 1.263 . S
C1096 N1095 1.358 . S
C1096 H1102 0.930 . S
C1097 N1095 1.400 . S
C1097 C1098 1.351 . S
C1097 H1114 0.930 . S
C1098 N1094 1.389 . S
C1098 C1097 1.351 . S
C1098 H1103 0.930 . S
O1099 Cu1093 1.940 1_554 S
O1099 C1109 1.282 . S
C1100 O1101 1.261 . S
C1100 O1113 1.251 . S
O1101 C1100 1.261 . S
H1102 C1096 0.930 . S
H1103 C1098 0.930 . S
N1104 Cu1093 2.012 . S
N1104 C1106 1.335 . S
N1104 C1107 1.390 . S
N1105 C1106 1.345 . S
N1105 C1108 1.336 . S
C1106 N1104 1.335 . S
C1106 N1105 1.345 . S
C1106 H1111 0.930 . S
C1107 N1104 1.390 . S
C1107 C1108 1.346 . S
C1107 H1112 0.924 1_556 S
C1108 N1105 1.336 . S
C1108 C1107 1.346 . S
C1108 H1115 0.929 . S
C1109 O1099 1.282 . S
C1109 O1110 1.216 . S
O1110 C1109 1.216 . S
H1111 C1106 0.930 . S
H1112 C1107 0.924 1_554 S
O1113 Cu1093 1.993 . S
O1113 C1100 1.251 . S
H1114 C1097 0.930 . S
H1115 C1108 0.929 . S
Cu1116 N1117 1.999 . S
Cu1116 O1122 1.974 . S
Cu1116 N1127 1.985 1_455 S
Cu1116 O1136 1.959 1_455 S
N1117 Cu1116 1.999 . S
N1117 C1119 1.263 . S
N1117 C1121 1.389 . S
N1118 C1119 1.358 . S
N1118 C1120 1.400 . S
C1119 N1117 1.263 . S
C1119 N1118 1.358 . S
C1119 H1125 0.930 . S
C1120 N1118 1.400 . S
C1120 C1121 1.351 . S
C1120 H1137 0.930 . S
C1121 N1117 1.389 . S
C1121 C1120 1.351 . S
C1121 H1126 0.930 . S
O1122 Cu1116 1.974 . S
O1122 C1132 1.282 . S
C1123 O1124 1.261 . S
C1123 O1136 1.251 . S
O1124 C1123 1.261 . S
H1125 C1119 0.930 . S
H1126 C1121 0.930 . S
N1127 Cu1116 1.985 1_655 S
N1127 C1129 1.335 . S
N1127 C1130 1.390 . S
N1128 C1129 1.345 . S
N1128 C1131 1.336 . S
C1129 N1127 1.335 . S
C1129 N1128 1.345 . S
C1129 H1134 0.930 . S
C1130 N1127 1.390 . S
C1130 C1131 1.346 . S
C1130 H1135 0.930 1_655 S
C1131 N1128 1.336 . S
C1131 C1130 1.346 . S
C1131 H1138 0.929 . S
C1132 O1122 1.282 . S
C1132 O1133 1.216 . S
O1133 C1132 1.216 . S
H1134 C1129 0.930 . S
H1135 C1130 0.930 1_455 S
O1136 Cu1116 1.959 1_655 S
O1136 C1123 1.251 . S
H1137 C1120 0.930 . S
H1138 C1131 0.929 . S
Cu1139 N1140 1.999 . S
Cu1139 O1145 1.974 . S
Cu1139 N1150 1.985 1_545 S
Cu1139 O1159 1.959 1_545 S
N1140 Cu1139 1.999 . S
N1140 C1142 1.263 . S
N1140 C1144 1.389 . S
N1141 C1142 1.358 . S
N1141 C1143 1.400 . S
C1142 N1140 1.263 . S
C1142 N1141 1.358 . S
C1142 H1148 0.930 . S
C1143 N1141 1.400 . S
C1143 C1144 1.351 . S
C1143 H1160 0.930 . S
C1144 N1140 1.389 . S
C1144 C1143 1.351 . S
C1144 H1149 0.930 . S
O1145 Cu1139 1.974 . S
O1145 C1155 1.282 . S
C1146 O1147 1.261 . S
C1146 O1159 1.251 . S
O1147 C1146 1.261 . S
H1148 C1142 0.930 . S
H1149 C1144 0.930 . S
N1150 Cu1139 1.985 1_565 S
N1150 C1152 1.335 . S
N1150 C1153 1.390 . S
N1151 C1152 1.345 . S
N1151 C1154 1.336 . S
C1152 N1150 1.335 . S
C1152 N1151 1.345 . S
C1152 H1157 0.930 . S
C1153 N1150 1.390 . S
C1153 C1154 1.346 . S
C1153 H1158 0.930 1_565 S
C1154 N1151 1.336 . S
C1154 C1153 1.346 . S
C1154 H1161 0.929 . S
C1155 O1145 1.282 . S
C1155 O1156 1.216 . S
O1156 C1155 1.216 . S
H1157 C1152 0.930 . S
H1158 C1153 0.930 1_545 S
O1159 Cu1139 1.959 1_565 S
O1159 C1146 1.251 . S
H1160 C1143 0.930 . S
H1161 C1154 0.929 . S
Cu1162 N1163 2.001 1_455 S
Cu1162 O1168 1.976 1_455 S
Cu1162 N1173 1.983 . S
Cu1162 O1182 1.957 . S
N1163 Cu1162 2.001 1_655 S
N1163 C1165 1.263 . S
N1163 C1167 1.389 . S
N1164 C1165 1.358 . S
N1164 C1166 1.400 . S
C1165 N1163 1.263 . S
C1165 N1164 1.358 . S
C1165 H1171 0.930 . S
C1166 N1164 1.400 . S
C1166 C1167 1.351 . S
C1166 H1183 0.930 . S
C1167 N1163 1.389 . S
C1167 C1166 1.351 . S
C1167 H1172 0.930 . S
O1168 Cu1162 1.976 1_655 S
O1168 C1178 1.282 . S
C1169 O1170 1.261 . S
C1169 O1182 1.251 . S
O1170 C1169 1.261 . S
H1171 C1165 0.930 . S
H1172 C1167 0.930 . S
N1173 Cu1162 1.983 . S
N1173 C1175 1.335 . S
N1173 C1176 1.390 . S
N1174 C1175 1.345 . S
N1174 C1177 1.336 . S
C1175 N1173 1.335 . S
C1175 N1174 1.345 . S
C1175 H1180 0.930 . S
C1176 N1173 1.390 . S
C1176 C1177 1.346 . S
C1176 H1181 0.930 . S
C1177 N1174 1.336 . S
C1177 C1176 1.346 . S
C1177 H1184 0.929 . S
C1178 O1168 1.282 . S
C1178 O1179 1.216 . S
O1179 C1178 1.216 . S
H1180 C1175 0.930 . S
H1181 C1176 0.930 . S
O1182 Cu1162 1.957 . S
O1182 C1169 1.251 . S
H1183 C1166 0.930 . S
H1184 C1177 0.929 . S
Cu1185 N1186 1.983 1_565 S
Cu1185 O1191 1.953 1_565 S
Cu1185 N1196 2.000 . S
Cu1185 O1205 1.979 . S
N1186 Cu1185 1.983 1_545 S
N1186 C1188 1.263 . S
N1186 C1190 1.389 . S
N1187 C1188 1.358 . S
N1187 C1189 1.400 . S
C1188 N1186 1.263 . S
C1188 N1187 1.358 . S
C1188 H1194 0.930 . S
C1189 N1187 1.400 . S
C1189 C1190 1.351 . S
C1189 H1206 0.930 . S
C1190 N1186 1.389 . S
C1190 C1189 1.351 . S
C1190 H1195 0.930 . S
O1191 Cu1185 1.953 1_545 S
O1191 C1201 1.282 . S
C1192 O1193 1.261 . S
C1192 O1205 1.251 . S
O1193 C1192 1.261 . S
H1194 C1188 0.930 . S
H1195 C1190 0.930 . S
N1196 Cu1185 2.000 . S
N1196 C1198 1.335 . S
N1196 C1199 1.390 . S
N1197 C1198 1.345 . S
N1197 C1200 1.336 . S
C1198 N1196 1.335 . S
C1198 N1197 1.345 . S
C1198 H1203 0.930 . S
C1199 N1196 1.390 . S
C1199 C1200 1.346 . S
C1199 H1204 0.930 . S
C1200 N1197 1.336 . S
C1200 C1199 1.346 . S
C1200 H1207 0.929 . S
C1201 O1191 1.282 . S
C1201 O1202 1.216 . S
O1202 C1201 1.216 . S
H1203 C1198 0.930 . S
H1204 C1199 0.930 . S
O1205 Cu1185 1.979 . S
O1205 C1192 1.251 . S
H1206 C1189 0.930 . S
H1207 C1200 0.929 . S
Cu1208 N1209 1.999 . S
Cu1208 O1214 1.974 . S
Cu1208 N1219 1.985 1_455 S
Cu1208 O1228 1.959 1_455 S
N1209 Cu1208 1.999 . S
N1209 C1211 1.263 . S
N1209 C1213 1.389 . S
N1210 C1211 1.358 . S
N1210 C1212 1.400 . S
C1211 N1209 1.263 . S
C1211 N1210 1.358 . S
C1211 H1217 0.930 . S
C1212 N1210 1.400 . S
C1212 C1213 1.351 . S
C1212 H1229 0.930 . S
C1213 N1209 1.389 . S
C1213 C1212 1.351 . S
C1213 H1218 0.930 . S
O1214 Cu1208 1.974 . S
O1214 C1224 1.282 . S
C1215 O1216 1.261 . S
C1215 O1228 1.251 . S
O1216 C1215 1.261 . S
H1217 C1211 0.930 . S
H1218 C1213 0.930 . S
N1219 Cu1208 1.985 1_655 S
N1219 C1221 1.335 . S
N1219 C1222 1.390 . S
N1220 C1221 1.345 . S
N1220 C1223 1.336 . S
C1221 N1219 1.335 . S
C1221 N1220 1.345 . S
C1221 H1226 0.930 . S
C1222 N1219 1.390 . S
C1222 C1223 1.346 . S
C1222 H1227 0.930 1_655 S
C1223 N1220 1.336 . S
C1223 C1222 1.346 . S
C1223 H1230 0.929 . S
C1224 O1214 1.282 . S
C1224 O1225 1.216 . S
O1225 C1224 1.216 . S
H1226 C1221 0.930 . S
H1227 C1222 0.930 1_455 S
O1228 Cu1208 1.959 1_655 S
O1228 C1215 1.251 . S
H1229 C1212 0.930 . S
H1230 C1223 0.929 . S
Cu1231 N1232 1.999 . S
Cu1231 O1237 1.974 . S
Cu1231 N1242 1.985 1_545 S
Cu1231 O1251 1.959 1_545 S
N1232 Cu1231 1.999 . S
N1232 C1234 1.263 . S
N1232 C1236 1.389 . S
N1233 C1234 1.358 . S
N1233 C1235 1.400 . S
C1234 N1232 1.263 . S
C1234 N1233 1.358 . S
C1234 H1240 0.930 . S
C1235 N1233 1.400 . S
C1235 C1236 1.351 . S
C1235 H1252 0.930 . S
C1236 N1232 1.389 . S
C1236 C1235 1.351 . S
C1236 H1241 0.930 . S
O1237 Cu1231 1.974 . S
O1237 C1247 1.282 . S
C1238 O1239 1.261 . S
C1238 O1251 1.251 . S
O1239 C1238 1.261 . S
H1240 C1234 0.930 . S
H1241 C1236 0.930 . S
N1242 Cu1231 1.985 1_565 S
N1242 C1244 1.335 . S
N1242 C1245 1.393 . S
N1243 C1244 1.345 . S
N1243 C1246 1.336 . S
C1244 N1242 1.335 . S
C1244 N1243 1.345 . S
C1244 H1249 0.930 . S
C1245 N1242 1.393 . S
C1245 C1246 1.361 . S
C1245 H1250 0.915 1_565 S
C1246 N1243 1.336 . S
C1246 C1245 1.361 . S
C1246 H1253 0.929 . S
C1247 O1237 1.282 . S
C1247 O1248 1.216 . S
O1248 C1247 1.216 . S
H1249 C1244 0.930 . S
H1250 C1245 0.915 1_545 S
O1251 Cu1231 1.959 1_565 S
O1251 C1238 1.251 . S
H1252 C1235 0.930 . S
H1253 C1246 0.929 . S
Cu1254 N1255 1.999 . S
Cu1254 O1260 1.974 . S
Cu1254 N1265 1.985 . S
Cu1254 O1274 1.959 . S
N1255 Cu1254 1.999 . S
N1255 C1257 1.263 1_455 S
N1255 C1259 1.389 . S
N1256 C1257 1.358 . S
N1256 C1258 1.400 . S
C1257 N1255 1.263 1_655 S
C1257 N1256 1.358 . S
C1257 H1263 0.930 . S
C1258 N1256 1.400 . S
C1258 C1259 1.351 1_655 S
C1258 H1275 0.930 . S
C1259 N1255 1.389 . S
C1259 C1258 1.351 1_455 S
C1259 H1264 0.930 . S
O1260 Cu1254 1.974 . S
O1260 C1270 1.282 1_455 S
C1261 O1262 1.261 . S
C1261 O1274 1.251 . S
O1262 C1261 1.261 . S
H1263 C1257 0.930 . S
H1264 C1259 0.930 . S
N1265 Cu1254 1.985 . S
N1265 C1267 1.335 . S
N1265 C1268 1.390 . S
N1266 C1267 1.345 . S
N1266 C1269 1.336 . S
C1267 N1265 1.335 . S
C1267 N1266 1.345 . S
C1267 H1272 0.930 . S
C1268 N1265 1.390 . S
C1268 C1269 1.346 . S
C1268 H1273 0.930 . S
C1269 N1266 1.336 . S
C1269 C1268 1.346 . S
C1269 H1276 0.929 . S
C1270 O1260 1.282 1_655 S
C1270 O1271 1.216 1_655 S
O1271 C1270 1.216 1_455 S
H1272 C1267 0.930 . S
H1273 C1268 0.930 . S
O1274 Cu1254 1.959 . S
O1274 C1261 1.251 . S
H1275 C1258 0.930 . S
H1276 C1269 0.929 . S
Cu1277 N1278 1.999 . S
Cu1277 O1283 1.974 . S
Cu1277 N1288 1.985 . S
Cu1277 O1297 1.959 1_545 S
N1278 Cu1277 1.999 . S
N1278 C1280 1.263 . S
N1278 C1282 1.389 . S
N1279 C1280 1.358 . S
N1279 C1281 1.400 . S
C1280 N1278 1.263 . S
C1280 N1279 1.358 . S
C1280 H1286 0.930 . S
C1281 N1279 1.400 . S
C1281 C1282 1.351 . S
C1281 H1298 0.930 . S
C1282 N1278 1.389 . S
C1282 C1281 1.351 . S
C1282 H1287 0.930 . S
O1283 Cu1277 1.974 . S
O1283 C1293 1.282 . S
C1284 O1285 1.234 1_565 S
C1284 O1297 1.251 . S
O1285 C1284 1.234 1_545 S
H1286 C1280 0.930 . S
H1287 C1282 0.930 . S
N1288 Cu1277 1.985 . S
N1288 C1290 1.335 1_545 S
N1288 C1291 1.390 . S
N1289 C1290 1.345 . S
N1289 C1292 1.336 . S
C1290 N1288 1.335 1_565 S
C1290 N1289 1.345 . S
C1290 H1295 0.930 . S
C1291 N1288 1.390 . S
C1291 C1292 1.346 1_545 S
C1291 H1296 0.930 . S
C1292 N1289 1.336 . S
C1292 C1291 1.346 1_565 S
C1292 H1299 0.929 . S
C1293 O1283 1.282 . S
C1293 O1294 1.216 . S
O1294 C1293 1.216 . S
H1295 C1290 0.930 . S
H1296 C1291 0.930 . S
O1297 Cu1277 1.959 1_565 S
O1297 C1284 1.251 . S
H1298 C1281 0.930 . S
H1299 C1292 0.929 . S
Cu1300 N1301 1.999 . S
Cu1300 O1306 1.974 . S
Cu1300 N1311 1.985 . S
Cu1300 O1320 1.959 . S
N1301 Cu1300 1.999 . S
N1301 C1303 1.263 . S
N1301 C1305 1.389 . S
N1302 C1303 1.358 . S
N1302 C1304 1.400 . S
C1303 N1301 1.263 . S
C1303 N1302 1.358 . S
C1303 H1309 0.930 . S
C1304 N1302 1.400 . S
C1304 C1305 1.351 . S
C1304 H1321 0.930 . S
C1305 N1301 1.389 . S
C1305 C1304 1.351 . S
C1305 H1310 0.930 . S
O1306 Cu1300 1.974 . S
O1306 C1316 1.282 . S
C1307 O1308 1.261 . S
C1307 O1320 1.251 . S
O1308 C1307 1.261 . S
H1309 C1303 0.930 . S
H1310 C1305 0.930 . S
N1311 Cu1300 1.985 . S
N1311 C1313 1.335 . S
N1311 C1314 1.390 . S
N1312 C1313 1.345 . S
N1312 C1315 1.336 . S
C1313 N1311 1.335 . S
C1313 N1312 1.345 . S
C1313 H1318 0.930 . S
C1314 N1311 1.390 . S
C1314 C1315 1.346 . S
C1314 H1319 0.930 . S
C1315 N1312 1.336 . S
C1315 C1314 1.346 . S
C1315 H1322 0.929 . S
C1316 O1306 1.282 . S
C1316 O1317 1.216 . S
O1317 C1316 1.216 . S
H1318 C1313 0.930 . S
H1319 C1314 0.930 . S
O1320 Cu1300 1.959 . S
O1320 C1307 1.251 . S
H1321 C1304 0.930 . S
H1322 C1315 0.929 . S
Cu1323 N1324 1.999 . S
Cu1323 O1329 1.974 . S
Cu1323 N1334 1.985 . S
Cu1323 O1343 1.959 . S
N1324 Cu1323 1.999 . S
N1324 C1326 1.263 . S
N1324 C1328 1.389 . S
N1325 C1326 1.358 . S
N1325 C1327 1.400 . S
C1326 N1324 1.263 . S
C1326 N1325 1.358 . S
C1326 H1332 0.930 . S
C1327 N1325 1.400 . S
C1327 C1328 1.351 . S
C1327 H1344 0.930 . S
C1328 N1324 1.389 . S
C1328 C1327 1.351 . S
C1328 H1333 0.930 . S
O1329 Cu1323 1.974 . S
O1329 C1339 1.282 . S
C1330 O1331 1.261 . S
C1330 O1343 1.251 . S
O1331 C1330 1.261 . S
H1332 C1326 0.930 . S
H1333 C1328 0.930 . S
N1334 Cu1323 1.985 . S
N1334 C1336 1.335 . S
N1334 C1337 1.390 . S
N1335 C1336 1.345 . S
N1335 C1338 1.336 . S
C1336 N1334 1.335 . S
C1336 N1335 1.345 . S
C1336 H1341 0.930 . S
C1337 N1334 1.390 . S
C1337 C1338 1.346 . S
C1337 H1342 0.930 . S
C1338 N1335 1.336 . S
C1338 C1337 1.346 . S
C1338 H1345 0.929 . S
C1339 O1329 1.282 . S
C1339 O1340 1.216 . S
O1340 C1339 1.216 . S
H1341 C1336 0.930 . S
H1342 C1337 0.930 . S
O1343 Cu1323 1.959 . S
O1343 C1330 1.251 . S
H1344 C1327 0.930 . S
H1345 C1338 0.929 . S
Cu1346 N1347 1.999 . S
Cu1346 O1352 1.974 . S
Cu1346 N1357 1.985 . S
Cu1346 O1366 1.959 . S
N1347 Cu1346 1.999 . S
N1347 C1349 1.263 . S
N1347 C1351 1.389 . S
N1348 C1349 1.358 . S
N1348 C1350 1.400 . S
C1349 N1347 1.263 . S
C1349 N1348 1.358 . S
C1349 H1355 0.930 . S
C1350 N1348 1.400 . S
C1350 C1351 1.351 . S
C1350 H1367 0.930 . S
C1351 N1347 1.389 . S
C1351 C1350 1.351 . S
C1351 H1356 0.930 . S
O1352 Cu1346 1.974 . S
O1352 C1362 1.282 . S
C1353 O1354 1.261 . S
C1353 O1366 1.251 . S
O1354 C1353 1.261 . S
H1355 C1349 0.930 . S
H1356 C1351 0.930 . S
N1357 Cu1346 1.985 . S
N1357 C1359 1.335 . S
N1357 C1360 1.390 . S
N1358 C1359 1.345 . S
N1358 C1361 1.336 . S
C1359 N1357 1.335 . S
C1359 N1358 1.345 . S
C1359 H1364 0.930 . S
C1360 N1357 1.390 . S
C1360 C1361 1.346 . S
C1360 H1365 0.930 . S
C1361 N1358 1.336 . S
C1361 C1360 1.346 . S
C1361 H1368 0.929 . S
C1362 O1352 1.282 . S
C1362 O1363 1.216 . S
O1363 C1362 1.216 . S
H1364 C1359 0.930 . S
H1365 C1360 0.930 . S
O1366 Cu1346 1.959 . S
O1366 C1353 1.251 . S
H1367 C1350 0.930 . S
H1368 C1361 0.929 . S
Cu1369 N1370 1.999 . S
Cu1369 O1375 1.974 . S
Cu1369 N1380 1.985 . S
Cu1369 O1389 1.959 . S
N1370 Cu1369 1.999 . S
N1370 C1372 1.263 . S
N1370 C1374 1.389 . S
N1371 C1372 1.358 . S
N1371 C1373 1.400 . S
C1372 N1370 1.263 . S
C1372 N1371 1.358 . S
C1372 H1378 0.930 . S
C1373 N1371 1.400 . S
C1373 C1374 1.351 . S
C1373 H1390 0.930 . S
C1374 N1370 1.389 . S
C1374 C1373 1.351 . S
C1374 H1379 0.930 . S
O1375 Cu1369 1.974 . S
O1375 C1385 1.282 . S
C1376 O1377 1.261 . S
C1376 O1389 1.251 . S
O1377 C1376 1.261 . S
H1378 C1372 0.930 . S
H1379 C1374 0.930 . S
N1380 Cu1369 1.985 . S
N1380 C1382 1.335 . S
N1380 C1383 1.390 . S
N1381 C1382 1.345 . S
N1381 C1384 1.336 . S
C1382 N1380 1.335 . S
C1382 N1381 1.345 . S
C1382 H1387 0.930 . S
C1383 N1380 1.390 . S
C1383 C1384 1.346 . S
C1383 H1388 0.930 . S
C1384 N1381 1.336 . S
C1384 C1383 1.346 . S
C1384 H1391 0.929 . S
C1385 O1375 1.282 . S
C1385 O1386 1.216 . S
O1386 C1385 1.216 . S
H1387 C1382 0.930 . S
H1388 C1383 0.930 . S
O1389 Cu1369 1.959 . S
O1389 C1376 1.251 . S
H1390 C1373 0.930 . S
H1391 C1384 0.929 . S
Cu1392 N1393 1.999 . S
Cu1392 O1398 1.974 . S
Cu1392 N1403 1.985 . S
Cu1392 O1412 1.959 . S
N1393 Cu1392 1.999 . S
N1393 C1395 1.263 . S
N1393 C1397 1.389 . S
N1394 C1395 1.358 . S
N1394 C1396 1.400 . S
C1395 N1393 1.263 . S
C1395 N1394 1.358 . S
C1395 H1401 0.930 . S
C1396 N1394 1.400 . S
C1396 C1397 1.351 . S
C1396 H1413 0.930 . S
C1397 N1393 1.389 . S
C1397 C1396 1.351 . S
C1397 H1402 0.930 . S
O1398 Cu1392 1.974 . S
O1398 C1408 1.282 . S
C1399 O1400 1.261 . S
C1399 O1412 1.251 . S
O1400 C1399 1.261 . S
H1401 C1395 0.930 . S
H1402 C1397 0.930 . S
N1403 Cu1392 1.985 . S
N1403 C1405 1.335 . S
N1403 C1406 1.390 . S
N1404 C1405 1.345 . S
N1404 C1407 1.336 . S
C1405 N1403 1.335 . S
C1405 N1404 1.345 . S
C1405 H1410 0.930 . S
C1406 N1403 1.390 . S
C1406 C1407 1.346 . S
C1406 H1411 0.930 . S
C1407 N1404 1.336 . S
C1407 C1406 1.346 . S
C1407 H1414 0.929 . S
C1408 O1398 1.282 . S
C1408 O1409 1.216 . S
O1409 C1408 1.216 . S
H1410 C1405 0.930 . S
H1411 C1406 0.930 . S
O1412 Cu1392 1.959 . S
O1412 C1399 1.251 . S
H1413 C1396 0.930 . S
H1414 C1407 0.929 . S
Cu1415 N1416 1.999 . S
Cu1415 O1421 1.974 . S
Cu1415 N1426 1.985 . S
Cu1415 O1435 1.959 . S
N1416 Cu1415 1.999 . S
N1416 C1418 1.263 . S
N1416 C1420 1.389 . S
N1417 C1418 1.358 . S
N1417 C1419 1.400 . S
C1418 N1416 1.263 . S
C1418 N1417 1.358 . S
C1418 H1424 0.930 . S
C1419 N1417 1.400 . S
C1419 C1420 1.351 . S
C1419 H1436 0.930 . S
C1420 N1416 1.389 . S
C1420 C1419 1.351 . S
C1420 H1425 0.930 . S
O1421 Cu1415 1.974 . S
O1421 C1431 1.282 . S
C1422 O1423 1.261 . S
C1422 O1435 1.251 . S
O1423 C1422 1.261 . S
H1424 C1418 0.930 . S
H1425 C1420 0.930 . S
N1426 Cu1415 1.985 . S
N1426 C1428 1.335 . S
N1426 C1429 1.390 . S
N1427 C1428 1.345 . S
N1427 C1430 1.336 . S
C1428 N1426 1.335 . S
C1428 N1427 1.345 . S
C1428 H1433 0.930 . S
C1429 N1426 1.390 . S
C1429 C1430 1.346 . S
C1429 H1434 0.930 . S
C1430 N1427 1.336 . S
C1430 C1429 1.346 . S
C1430 H1437 0.929 . S
C1431 O1421 1.282 . S
C1431 O1432 1.216 . S
O1432 C1431 1.216 . S
H1433 C1428 0.930 . S
H1434 C1429 0.930 . S
O1435 Cu1415 1.959 . S
O1435 C1422 1.251 . S
H1436 C1419 0.930 . S
H1437 C1430 0.929 . S
Cu1438 N1439 1.999 . S
Cu1438 O1444 1.974 . S
Cu1438 N1449 1.985 . S
Cu1438 O1458 1.959 . S
N1439 Cu1438 1.999 . S
N1439 C1441 1.263 . S
N1439 C1443 1.389 . S
N1440 C1441 1.358 . S
N1440 C1442 1.400 . S
C1441 N1439 1.263 . S
C1441 N1440 1.358 . S
C1441 H1447 0.930 . S
C1442 N1440 1.400 . S
C1442 C1443 1.351 . S
C1442 H1459 0.930 . S
C1443 N1439 1.389 . S
C1443 C1442 1.351 . S
C1443 H1448 0.930 . S
O1444 Cu1438 1.974 . S
O1444 C1454 1.282 . S
C1445 O1446 1.261 . S
C1445 O1458 1.251 . S
O1446 C1445 1.261 . S
H1447 C1441 0.930 . S
H1448 C1443 0.930 . S
N1449 Cu1438 1.985 . S
N1449 C1451 1.335 . S
N1449 C1452 1.390 . S
N1450 C1451 1.345 . S
N1450 C1453 1.336 . S
C1451 N1449 1.335 . S
C1451 N1450 1.345 . S
C1451 H1456 0.930 . S
C1452 N1449 1.390 . S
C1452 C1453 1.346 . S
C1452 H1457 0.930 . S
C1453 N1450 1.336 . S
C1453 C1452 1.346 . S
C1453 H1460 0.929 . S
C1454 O1444 1.282 . S
C1454 O1455 1.216 . S
O1455 C1454 1.216 . S
H1456 C1451 0.930 . S
H1457 C1452 0.930 . S
O1458 Cu1438 1.959 . S
O1458 C1445 1.251 . S
H1459 C1442 0.930 . S
H1460 C1453 0.929 . S
Cu1461 N1462 1.999 . S
Cu1461 O1467 1.974 . S
Cu1461 N1472 1.985 . S
Cu1461 O1481 1.959 . S
N1462 Cu1461 1.999 . S
N1462 C1464 1.263 . S
N1462 C1466 1.389 . S
N1463 C1464 1.358 . S
N1463 C1465 1.400 . S
C1464 N1462 1.263 . S
C1464 N1463 1.358 . S
C1464 H1470 0.930 . S
C1465 N1463 1.400 . S
C1465 C1466 1.351 . S
C1465 H1482 0.930 . S
C1466 N1462 1.389 . S
C1466 C1465 1.351 . S
C1466 H1471 0.930 . S
O1467 Cu1461 1.974 . S
O1467 C1477 1.282 . S
C1468 O1469 1.261 . S
C1468 O1481 1.251 . S
O1469 C1468 1.261 . S
H1470 C1464 0.930 . S
H1471 C1466 0.930 . S
N1472 Cu1461 1.985 . S
N1472 C1474 1.335 . S
N1472 C1475 1.390 . S
N1473 C1474 1.345 . S
N1473 C1476 1.336 . S
C1474 N1472 1.335 . S
C1474 N1473 1.345 . S
C1474 H1479 0.930 . S
C1475 N1472 1.390 . S
C1475 C1476 1.346 . S
C1475 H1480 0.930 . S
C1476 N1473 1.336 . S
C1476 C1475 1.346 . S
C1476 H1483 0.929 . S
C1477 O1467 1.282 . S
C1477 O1478 1.216 . S
O1478 C1477 1.216 . S
H1479 C1474 0.930 . S
H1480 C1475 0.930 . S
O1481 Cu1461 1.959 . S
O1481 C1468 1.251 . S
H1482 C1465 0.930 . S
H1483 C1476 0.929 . S
Cu1484 N1485 1.999 . S
Cu1484 O1490 1.974 . S
Cu1484 N1495 1.985 . S
Cu1484 O1504 1.959 . S
N1485 Cu1484 1.999 . S
N1485 C1487 1.263 . S
N1485 C1489 1.389 . S
N1486 C1487 1.358 . S
N1486 C1488 1.400 . S
C1487 N1485 1.263 . S
C1487 N1486 1.358 . S
C1487 H1493 0.930 . S
C1488 N1486 1.400 . S
C1488 C1489 1.351 . S
C1488 H1505 0.930 . S
C1489 N1485 1.389 . S
C1489 C1488 1.351 . S
C1489 H1494 0.930 . S
O1490 Cu1484 1.974 . S
O1490 C1500 1.282 . S
C1491 O1492 1.261 . S
C1491 O1504 1.251 . S
O1492 C1491 1.261 . S
H1493 C1487 0.930 . S
H1494 C1489 0.930 . S
N1495 Cu1484 1.985 . S
N1495 C1497 1.335 . S
N1495 C1498 1.390 . S
N1496 C1497 1.345 . S
N1496 C1499 1.336 . S
C1497 N1495 1.335 . S
C1497 N1496 1.345 . S
C1497 H1502 0.930 . S
C1498 N1495 1.390 . S
C1498 C1499 1.346 . S
C1498 H1503 0.930 . S
C1499 N1496 1.336 . S
C1499 C1498 1.346 . S
C1499 H1506 0.929 . S
C1500 O1490 1.282 . S
C1500 O1501 1.216 . S
O1501 C1500 1.216 . S
H1502 C1497 0.930 . S
H1503 C1498 0.930 . S
O1504 Cu1484 1.959 . S
O1504 C1491 1.251 . S
H1505 C1488 0.930 . S
H1506 C1499 0.929 . S
Cu1507 N1508 1.999 . S
Cu1507 O1513 1.974 . S
Cu1507 N1518 1.985 . S
Cu1507 O1527 1.959 . S
N1508 Cu1507 1.999 . S
N1508 C1510 1.263 . S
N1508 C1512 1.389 . S
N1509 C1510 1.358 . S
N1509 C1511 1.400 . S
C1510 N1508 1.263 . S
C1510 N1509 1.358 . S
C1510 H1516 0.930 . S
C1511 N1509 1.400 . S
C1511 C1512 1.351 . S
C1511 H1528 0.930 . S
C1512 N1508 1.389 . S
C1512 C1511 1.351 . S
C1512 H1517 0.930 . S
O1513 Cu1507 1.974 . S
O1513 C1523 1.282 . S
C1514 O1515 1.261 . S
C1514 O1527 1.251 . S
O1515 C1514 1.261 . S
H1516 C1510 0.930 . S
H1517 C1512 0.930 . S
N1518 Cu1507 1.985 . S
N1518 C1520 1.335 . S
N1518 C1521 1.390 . S
N1519 C1520 1.345 . S
N1519 C1522 1.336 . S
C1520 N1518 1.335 . S
C1520 N1519 1.345 . S
C1520 H1525 0.930 . S
C1521 N1518 1.390 . S
C1521 C1522 1.346 . S
C1521 H1526 0.930 . S
C1522 N1519 1.336 . S
C1522 C1521 1.346 . S
C1522 H1529 0.929 . S
C1523 O1513 1.282 . S
C1523 O1524 1.216 . S
O1524 C1523 1.216 . S
H1525 C1520 0.930 . S
H1526 C1521 0.930 . S
O1527 Cu1507 1.959 . S
O1527 C1514 1.251 . S
H1528 C1511 0.930 . S
H1529 C1522 0.929 . S
Cu1530 N1531 1.999 . S
Cu1530 O1536 1.974 . S
Cu1530 N1541 1.985 . S
Cu1530 O1550 1.959 . S
N1531 Cu1530 1.999 . S
N1531 C1533 1.263 . S
N1531 C1535 1.389 . S
N1532 C1533 1.358 . S
N1532 C1534 1.400 . S
C1533 N1531 1.263 . S
C1533 N1532 1.358 . S
C1533 H1539 0.930 . S
C1534 N1532 1.400 . S
C1534 C1535 1.351 . S
C1534 H1551 0.930 . S
C1535 N1531 1.389 . S
C1535 C1534 1.351 . S
C1535 H1540 0.930 . S
O1536 Cu1530 1.974 . S
O1536 C1546 1.282 . S
C1537 O1538 1.261 . S
C1537 O1550 1.251 . S
O1538 C1537 1.261 . S
H1539 C1533 0.930 . S
H1540 C1535 0.930 . S
N1541 Cu1530 1.985 . S
N1541 C1543 1.335 . S
N1541 C1544 1.390 . S
N1542 C1543 1.345 . S
N1542 C1545 1.336 . S
C1543 N1541 1.335 . S
C1543 N1542 1.345 . S
C1543 H1548 0.930 . S
C1544 N1541 1.390 . S
C1544 C1545 1.346 . S
C1544 H1549 0.930 . S
C1545 N1542 1.336 . S
C1545 C1544 1.346 . S
C1545 H1552 0.929 . S
C1546 O1536 1.282 . S
C1546 O1547 1.216 . S
O1547 C1546 1.216 . S
H1548 C1543 0.930 . S
H1549 C1544 0.930 . S
O1550 Cu1530 1.959 . S
O1550 C1537 1.251 . S
H1551 C1534 0.930 . S
H1552 C1545 0.929 . S
Cu1553 N1554 1.999 . S
Cu1553 O1559 1.974 . S
Cu1553 N1564 1.985 . S
Cu1553 O1573 1.959 . S
N1554 Cu1553 1.999 . S
N1554 C1556 1.263 . S
N1554 C1558 1.389 . S
N1555 C1556 1.358 . S
N1555 C1557 1.400 . S
C1556 N1554 1.263 . S
C1556 N1555 1.358 . S
C1556 H1562 0.930 . S
C1557 N1555 1.400 . S
C1557 C1558 1.351 . S
C1557 H1574 0.930 . S
C1558 N1554 1.389 . S
C1558 C1557 1.351 . S
C1558 H1563 0.930 . S
O1559 Cu1553 1.974 . S
O1559 C1569 1.282 . S
C1560 O1561 1.261 . S
C1560 O1573 1.251 . S
O1561 C1560 1.261 . S
H1562 C1556 0.930 . S
H1563 C1558 0.930 . S
N1564 Cu1553 1.985 . S
N1564 C1566 1.335 . S
N1564 C1567 1.390 . S
N1565 C1566 1.345 . S
N1565 C1568 1.336 . S
C1566 N1564 1.335 . S
C1566 N1565 1.345 . S
C1566 H1571 0.930 . S
C1567 N1564 1.390 . S
C1567 C1568 1.346 . S
C1567 H1572 0.930 . S
C1568 N1565 1.336 . S
C1568 C1567 1.346 . S
C1568 H1575 0.929 . S
C1569 O1559 1.282 . S
C1569 O1570 1.216 . S
O1570 C1569 1.216 . S
H1571 C1566 0.930 . S
H1572 C1567 0.930 . S
O1573 Cu1553 1.959 . S
O1573 C1560 1.251 . S
H1574 C1557 0.930 . S
H1575 C1568 0.929 . S
C1576 C1577 1.363 . S
C1576 C1582 1.379 . S
C1576 N1584 1.356 . S
C1577 C1576 1.363 . S
C1577 C1583 1.363 . S
C1578 C1579 1.363 . S
C1578 C1583 1.379 . S
C1578 N1585 1.356 . S
C1579 C1578 1.363 . S
C1579 C1582 1.363 . S
N1580 C1582 1.356 . S
N1580 H1592 0.984 . S
N1580 H1593 0.985 . S
N1581 C1583 1.356 . S
N1581 H1586 0.984 . S
N1581 H1587 0.985 . S
C1582 C1576 1.379 . S
C1582 C1579 1.363 . S
C1582 N1580 1.356 . S
C1583 C1577 1.363 . S
C1583 C1578 1.379 . S
C1583 N1581 1.356 . S
N1584 C1576 1.356 . S
N1584 H1590 0.984 . S
N1584 H1591 0.984 . S
N1585 C1578 1.356 . S
N1585 H1588 0.984 . S
N1585 H1589 0.985 . S
H1586 N1581 0.984 . S
H1587 N1581 0.985 . S
H1588 N1585 0.984 . S
H1589 N1585 0.985 . S
H1590 N1584 0.984 . S
H1591 N1584 0.984 . S
H1592 N1580 0.984 . S
H1593 N1580 0.985 . S
C1594 C1595 1.363 . S
C1594 C1600 1.379 . S
C1594 N1602 1.356 . S
C1595 C1594 1.363 . S
C1595 C1601 1.363 . S
C1596 C1597 1.363 . S
C1596 C1601 1.379 . S
C1596 N1603 1.356 . S
C1597 C1596 1.363 . S
C1597 C1600 1.363 . S
N1598 C1600 1.356 . S
N1598 H1610 0.984 . S
N1598 H1611 0.985 . S
N1599 C1601 1.356 . S
N1599 H1604 0.984 . S
N1599 H1605 0.985 . S
C1600 C1594 1.379 . S
C1600 C1597 1.363 . S
C1600 N1598 1.356 . S
C1601 C1595 1.363 . S
C1601 C1596 1.379 . S
C1601 N1599 1.356 . S
N1602 C1594 1.356 . S
N1602 H1608 0.984 . S
N1602 H1609 0.984 . S
N1603 C1596 1.356 . S
N1603 H1606 0.984 . S
N1603 H1607 0.985 . S
H1604 N1599 0.984 . S
H1605 N1599 0.985 . S
H1606 N1603 0.984 . S
H1607 N1603 0.985 . S
H1608 N1602 0.984 . S
H1609 N1602 0.984 . S
H1610 N1598 0.984 . S
H1611 N1598 0.985 . S
C1612 C1613 1.363 . S
C1612 C1618 1.379 . S
C1612 N1620 1.356 . S
C1613 C1612 1.363 . S
C1613 C1619 1.363 . S
C1614 C1615 1.363 . S
C1614 C1619 1.379 . S
C1614 N1621 1.356 . S
C1615 C1614 1.363 . S
C1615 C1618 1.363 . S
N1616 C1618 1.356 . S
N1616 H1628 0.984 . S
N1616 H1629 0.985 . S
N1617 C1619 1.356 . S
N1617 H1622 0.984 . S
N1617 H1623 0.985 . S
C1618 C1612 1.379 . S
C1618 C1615 1.363 . S
C1618 N1616 1.356 . S
C1619 C1613 1.363 . S
C1619 C1614 1.379 . S
C1619 N1617 1.356 . S
N1620 C1612 1.356 . S
N1620 H1626 0.984 . S
N1620 H1627 0.984 . S
N1621 C1614 1.356 . S
N1621 H1624 0.984 . S
N1621 H1625 0.985 . S
H1622 N1617 0.984 . S
H1623 N1617 0.985 . S
H1624 N1621 0.984 . S
H1625 N1621 0.985 . S
H1626 N1620 0.984 . S
H1627 N1620 0.984 . S
H1628 N1616 0.984 . S
H1629 N1616 0.985 . S
C1630 C1631 1.363 . S
C1630 C1636 1.379 . S
C1630 N1638 1.356 . S
C1631 C1630 1.363 . S
C1631 C1637 1.363 . S
C1632 C1633 1.363 . S
C1632 C1637 1.379 . S
C1632 N1639 1.356 . S
C1633 C1632 1.363 . S
C1633 C1636 1.363 . S
N1634 C1636 1.356 . S
N1634 H1646 0.984 . S
N1634 H1647 0.985 . S
N1635 C1637 1.356 . S
N1635 H1640 0.984 . S
N1635 H1641 0.985 . S
C1636 C1630 1.379 . S
C1636 C1633 1.363 . S
C1636 N1634 1.356 . S
C1637 C1631 1.363 . S
C1637 C1632 1.379 . S
C1637 N1635 1.356 . S
N1638 C1630 1.356 . S
N1638 H1644 0.984 . S
N1638 H1645 0.984 . S
N1639 C1632 1.356 . S
N1639 H1642 0.984 . S
N1639 H1643 0.985 . S
H1640 N1635 0.984 . S
H1641 N1635 0.985 . S
H1642 N1639 0.984 . S
H1643 N1639 0.985 . S
H1644 N1638 0.984 . S
H1645 N1638 0.984 . S
H1646 N1634 0.984 . S
H1647 N1634 0.985 . S
C1648 C1649 1.363 . S
C1648 C1654 1.379 . S
C1648 N1656 1.356 . S
C1649 C1648 1.363 . S
C1649 C1655 1.363 . S
C1650 C1651 1.363 . S
C1650 C1655 1.379 . S
C1650 N1657 1.356 . S
C1651 C1650 1.363 . S
C1651 C1654 1.363 . S
N1652 C1654 1.356 . S
N1652 H1664 0.984 . S
N1652 H1665 0.985 . S
N1653 C1655 1.356 . S
N1653 H1658 0.984 . S
N1653 H1659 0.985 . S
C1654 C1648 1.379 . S
C1654 C1651 1.363 . S
C1654 N1652 1.356 . S
C1655 C1649 1.363 . S
C1655 C1650 1.379 . S
C1655 N1653 1.356 . S
N1656 C1648 1.356 . S
N1656 H1662 0.984 . S
N1656 H1663 0.984 . S
N1657 C1650 1.356 . S
N1657 H1660 0.984 . S
N1657 H1661 0.985 . S
H1658 N1653 0.984 . S
H1659 N1653 0.985 . S
H1660 N1657 0.984 . S
H1661 N1657 0.985 . S
H1662 N1656 0.984 . S
H1663 N1656 0.984 . S
H1664 N1652 0.984 . S
H1665 N1652 0.985 . S
C1666 C1667 1.363 . S
C1666 C1672 1.379 . S
C1666 N1674 1.356 . S
C1667 C1666 1.363 . S
C1667 C1673 1.363 . S
C1668 C1669 1.363 . S
C1668 C1673 1.379 . S
C1668 N1675 1.356 . S
C1669 C1668 1.363 . S
C1669 C1672 1.363 . S
N1670 C1672 1.356 . S
N1670 H1682 0.984 . S
N1670 H1683 0.985 . S
N1671 C1673 1.356 . S
N1671 H1676 0.984 . S
N1671 H1677 0.985 . S
C1672 C1666 1.379 . S
C1672 C1669 1.363 . S
C1672 N1670 1.356 . S
C1673 C1667 1.363 . S
C1673 C1668 1.379 . S
C1673 N1671 1.356 . S
N1674 C1666 1.356 . S
N1674 H1680 0.984 . S
N1674 H1681 0.984 . S
N1675 C1668 1.356 . S
N1675 H1678 0.984 . S
N1675 H1679 0.985 . S
H1676 N1671 0.984 . S
H1677 N1671 0.985 . S
H1678 N1675 0.984 . S
H1679 N1675 0.985 . S
H1680 N1674 0.984 . S
H1681 N1674 0.984 . S
H1682 N1670 0.984 . S
H1683 N1670 0.985 . S
C1684 C1685 1.363 . S
C1684 C1690 1.379 . S
C1684 N1692 1.356 . S
C1685 C1684 1.363 . S
C1685 C1691 1.363 . S
C1686 C1687 1.363 . S
C1686 C1691 1.379 . S
C1686 N1693 1.356 . S
C1687 C1686 1.363 . S
C1687 C1690 1.363 . S
N1688 C1690 1.356 . S
N1688 H1700 0.984 . S
N1688 H1701 0.985 . S
N1689 C1691 1.356 . S
N1689 H1694 0.984 . S
N1689 H1695 0.985 . S
C1690 C1684 1.379 . S
C1690 C1687 1.363 . S
C1690 N1688 1.356 . S
C1691 C1685 1.363 . S
C1691 C1686 1.379 . S
C1691 N1689 1.356 . S
N1692 C1684 1.356 . S
N1692 H1698 0.984 . S
N1692 H1699 0.984 . S
N1693 C1686 1.356 . S
N1693 H1696 0.984 . S
N1693 H1697 0.985 . S
H1694 N1689 0.984 . S
H1695 N1689 0.985 . S
H1696 N1693 0.984 . S
H1697 N1693 0.985 . S
H1698 N1692 0.984 . S
H1699 N1692 0.984 . S
H1700 N1688 0.984 . S
H1701 N1688 0.985 . S
C1702 C1703 1.363 . S
C1702 C1708 1.379 . S
C1702 N1710 1.356 . S
C1703 C1702 1.363 . S
C1703 C1709 1.363 . S
C1704 C1705 1.363 . S
C1704 C1709 1.379 . S
C1704 N1711 1.356 . S
C1705 C1704 1.363 . S
C1705 C1708 1.363 . S
N1706 C1708 1.356 . S
N1706 H1718 0.984 . S
N1706 H1719 0.985 . S
N1707 C1709 1.356 . S
N1707 H1712 0.984 . S
N1707 H1713 0.985 . S
C1708 C1702 1.379 . S
C1708 C1705 1.363 . S
C1708 N1706 1.356 . S
C1709 C1703 1.363 . S
C1709 C1704 1.379 . S
C1709 N1707 1.356 . S
N1710 C1702 1.356 . S
N1710 H1716 0.984 . S
N1710 H1717 0.984 . S
N1711 C1704 1.356 . S
N1711 H1714 0.984 . S
N1711 H1715 0.985 . S
H1712 N1707 0.984 . S
H1713 N1707 0.985 . S
H1714 N1711 0.984 . S
H1715 N1711 0.985 . S
H1716 N1710 0.984 . S
H1717 N1710 0.984 . S
H1718 N1706 0.984 . S
H1719 N1706 0.985 . S
C1720 C1721 1.363 . S
C1720 C1726 1.379 . S
C1720 N1728 1.356 . S
C1721 C1720 1.363 . S
C1721 C1727 1.363 . S
C1722 C1723 1.363 . S
C1722 C1727 1.379 . S
C1722 N1729 1.356 . S
C1723 C1722 1.363 . S
C1723 C1726 1.363 . S
N1724 C1726 1.356 . S
N1724 H1736 0.984 . S
N1724 H1737 0.985 . S
N1725 C1727 1.356 . S
N1725 H1730 0.984 . S
N1725 H1731 0.985 . S
C1726 C1720 1.379 . S
C1726 C1723 1.363 . S
C1726 N1724 1.356 . S
C1727 C1721 1.363 . S
C1727 C1722 1.379 . S
C1727 N1725 1.356 . S
N1728 C1720 1.356 . S
N1728 H1734 0.984 . S
N1728 H1735 0.984 . S
N1729 C1722 1.356 . S
N1729 H1732 0.984 . S
N1729 H1733 0.985 . S
H1730 N1725 0.984 . S
H1731 N1725 0.985 . S
H1732 N1729 0.984 . S
H1733 N1729 0.985 . S
H1734 N1728 0.984 . S
H1735 N1728 0.984 . S
H1736 N1724 0.984 . S
H1737 N1724 0.985 . S
C1738 C1739 1.363 . S
C1738 C1744 1.379 . S
C1738 N1746 1.356 . S
C1739 C1738 1.363 . S
C1739 C1745 1.363 . S
C1740 C1741 1.363 . S
C1740 C1745 1.379 . S
C1740 N1747 1.356 . S
C1741 C1740 1.363 . S
C1741 C1744 1.363 . S
N1742 C1744 1.356 . S
N1742 H1754 0.984 . S
N1742 H1755 0.985 . S
N1743 C1745 1.356 . S
N1743 H1748 0.984 . S
N1743 H1749 0.985 . S
C1744 C1738 1.379 . S
C1744 C1741 1.363 . S
C1744 N1742 1.356 . S
C1745 C1739 1.363 . S
C1745 C1740 1.379 . S
C1745 N1743 1.356 . S
N1746 C1738 1.356 . S
N1746 H1752 0.984 . S
N1746 H1753 0.984 . S
N1747 C1740 1.356 . S
N1747 H1750 0.984 . S
N1747 H1751 0.985 . S
H1748 N1743 0.984 . S
H1749 N1743 0.985 . S
H1750 N1747 0.984 . S
H1751 N1747 0.985 . S
H1752 N1746 0.984 . S
H1753 N1746 0.984 . S
H1754 N1742 0.984 . S
H1755 N1742 0.985 . S
C1756 C1757 1.363 . S
C1756 C1762 1.379 . S
C1756 N1764 1.356 . S
C1757 C1756 1.363 . S
C1757 C1763 1.363 . S
C1758 C1759 1.363 . S
C1758 C1763 1.379 . S
C1758 N1765 1.356 . S
C1759 C1758 1.363 . S
C1759 C1762 1.363 . S
N1760 C1762 1.356 . S
N1760 H1772 0.984 . S
N1760 H1773 0.985 . S
N1761 C1763 1.356 . S
N1761 H1766 0.984 . S
N1761 H1767 0.985 . S
C1762 C1756 1.379 . S
C1762 C1759 1.363 . S
C1762 N1760 1.356 . S
C1763 C1757 1.363 . S
C1763 C1758 1.379 . S
C1763 N1761 1.356 . S
N1764 C1756 1.356 . S
N1764 H1770 0.984 . S
N1764 H1771 0.984 . S
N1765 C1758 1.356 . S
N1765 H1768 0.984 . S
N1765 H1769 0.985 . S
H1766 N1761 0.984 . S
H1767 N1761 0.985 . S
H1768 N1765 0.984 . S
H1769 N1765 0.985 . S
H1770 N1764 0.984 . S
H1771 N1764 0.984 . S
H1772 N1760 0.984 . S
H1773 N1760 0.985 . S
C1774 C1775 1.363 . S
C1774 C1780 1.379 . S
C1774 N1782 1.356 . S
C1775 C1774 1.363 . S
C1775 C1781 1.363 . S
C1776 C1777 1.363 . S
C1776 C1781 1.379 . S
C1776 N1783 1.356 . S
C1777 C1776 1.363 . S
C1777 C1780 1.363 . S
N1778 C1780 1.356 . S
N1778 H1790 0.984 . S
N1778 H1791 0.985 . S
N1779 C1781 1.356 . S
N1779 H1784 0.984 . S
N1779 H1785 0.985 . S
C1780 C1774 1.379 . S
C1780 C1777 1.363 . S
C1780 N1778 1.356 . S
C1781 C1775 1.363 . S
C1781 C1776 1.379 . S
C1781 N1779 1.356 . S
N1782 C1774 1.356 . S
N1782 H1788 0.984 . S
N1782 H1789 0.984 . S
N1783 C1776 1.356 . S
N1783 H1786 0.984 . S
N1783 H1787 0.985 . S
H1784 N1779 0.984 . S
H1785 N1779 0.985 . S
H1786 N1783 0.984 . S
H1787 N1783 0.985 . S
H1788 N1782 0.984 . S
H1789 N1782 0.984 . S
H1790 N1778 0.984 . S
H1791 N1778 0.985 . S
C1792 C1793 1.363 . S
C1792 C1798 1.379 . S
C1792 N1800 1.356 . S
C1793 C1792 1.363 . S
C1793 C1799 1.363 . S
C1794 C1795 1.363 . S
C1794 C1799 1.379 . S
C1794 N1801 1.356 . S
C1795 C1794 1.363 . S
C1795 C1798 1.363 . S
N1796 C1798 1.356 . S
N1796 H1808 0.984 . S
N1796 H1809 0.985 . S
N1797 C1799 1.356 . S
N1797 H1802 0.984 . S
N1797 H1803 0.985 . S
C1798 C1792 1.379 . S
C1798 C1795 1.363 . S
C1798 N1796 1.356 . S
C1799 C1793 1.363 . S
C1799 C1794 1.379 . S
C1799 N1797 1.356 . S
N1800 C1792 1.356 . S
N1800 H1806 0.984 . S
N1800 H1807 0.984 . S
N1801 C1794 1.356 . S
N1801 H1804 0.984 . S
N1801 H1805 0.985 . S
H1802 N1797 0.984 . S
H1803 N1797 0.985 . S
H1804 N1801 0.984 . S
H1805 N1801 0.985 . S
H1806 N1800 0.984 . S
H1807 N1800 0.984 . S
H1808 N1796 0.984 . S
H1809 N1796 0.985 . S
C1810 C1811 1.363 . S
C1810 C1816 1.379 . S
C1810 N1818 1.356 . S
C1811 C1810 1.363 . S
C1811 C1817 1.363 . S
C1812 C1813 1.363 . S
C1812 C1817 1.379 . S
C1812 N1819 1.356 . S
C1813 C1812 1.363 . S
C1813 C1816 1.363 . S
N1814 C1816 1.356 . S
N1814 H1826 0.984 . S
N1814 H1827 0.985 . S
N1815 C1817 1.356 . S
N1815 H1820 0.984 . S
N1815 H1821 0.985 . S
C1816 C1810 1.379 . S
C1816 C1813 1.363 . S
C1816 N1814 1.356 . S
C1817 C1811 1.363 . S
C1817 C1812 1.379 . S
C1817 N1815 1.356 . S
N1818 C1810 1.356 . S
N1818 H1824 0.984 . S
N1818 H1825 0.984 . S
N1819 C1812 1.356 . S
N1819 H1822 0.984 . S
N1819 H1823 0.985 . S
H1820 N1815 0.984 . S
H1821 N1815 0.985 . S
H1822 N1819 0.984 . S
H1823 N1819 0.985 . S
H1824 N1818 0.984 . S
H1825 N1818 0.984 . S
H1826 N1814 0.984 . S
H1827 N1814 0.985 . S
C1828 C1829 1.363 . S
C1828 C1834 1.379 . S
C1828 N1836 1.356 . S
C1829 C1828 1.363 . S
C1829 C1835 1.363 . S
C1830 C1831 1.363 . S
C1830 C1835 1.379 . S
C1830 N1837 1.356 . S
C1831 C1830 1.363 . S
C1831 C1834 1.363 . S
N1832 C1834 1.356 . S
N1832 H1844 0.984 . S
N1832 H1845 0.985 . S
N1833 C1835 1.356 . S
N1833 H1838 0.984 . S
N1833 H1839 0.985 . S
C1834 C1828 1.379 . S
C1834 C1831 1.363 . S
C1834 N1832 1.356 . S
C1835 C1829 1.363 . S
C1835 C1830 1.379 . S
C1835 N1833 1.356 . S
N1836 C1828 1.356 . S
N1836 H1842 0.984 . S
N1836 H1843 0.984 . S
N1837 C1830 1.356 . S
N1837 H1840 0.984 . S
N1837 H1841 0.985 . S
H1838 N1833 0.984 . S
H1839 N1833 0.985 . S
H1840 N1837 0.984 . S
H1841 N1837 0.985 . S
H1842 N1836 0.984 . S
H1843 N1836 0.984 . S
H1844 N1832 0.984 . S
H1845 N1832 0.985 . S
C1846 C1847 1.363 . S
C1846 C1852 1.379 . S
C1846 N1854 1.356 . S
C1847 C1846 1.363 . S
C1847 C1853 1.363 . S
C1848 C1849 1.363 . S
C1848 C1853 1.379 . S
C1848 N1855 1.356 . S
C1849 C1848 1.363 . S
C1849 C1852 1.363 . S
N1850 C1852 1.356 . S
N1850 H1862 0.984 . S
N1850 H1863 0.985 1_565 S
N1851 C1853 1.356 . S
N1851 H1856 0.984 . S
N1851 H1857 0.985 . S
C1852 C1846 1.379 . S
C1852 C1849 1.363 . S
C1852 N1850 1.356 . S
C1853 C1847 1.363 . S
C1853 C1848 1.379 . S
C1853 N1851 1.356 . S
N1854 C1846 1.356 . S
N1854 H1860 0.984 . S
N1854 H1861 0.984 . S
N1855 C1848 1.356 . S
N1855 H1858 0.984 . S
N1855 H1859 0.985 . S
H1856 N1851 0.984 . S
H1857 N1851 0.985 . S
H1858 N1855 0.984 . S
H1859 N1855 0.985 . S
H1860 N1854 0.984 . S
H1861 N1854 0.984 . S
H1862 N1850 0.984 . S
H1863 N1850 0.985 1_545 S
C1864 C1865 1.363 . S
C1864 C1870 1.379 . S
C1864 N1872 1.356 . S
C1865 C1864 1.363 . S
C1865 C1871 1.363 . S
C1866 C1867 1.363 . S
C1866 C1871 1.379 . S
C1866 N1873 1.356 . S
C1867 C1866 1.363 . S
C1867 C1870 1.363 . S
N1868 C1870 1.356 . S
N1868 H1880 0.984 . S
N1868 H1881 0.985 . S
N1869 C1871 1.356 . S
N1869 H1874 0.984 . S
N1869 H1875 0.985 . S
C1870 C1864 1.379 . S
C1870 C1867 1.363 . S
C1870 N1868 1.356 . S
C1871 C1865 1.363 . S
C1871 C1866 1.379 . S
C1871 N1869 1.356 . S
N1872 C1864 1.356 . S
N1872 H1878 0.984 . S
N1872 H1879 0.984 . S
N1873 C1866 1.356 . S
N1873 H1876 0.984 . S
N1873 H1877 0.985 . S
H1874 N1869 0.984 . S
H1875 N1869 0.985 . S
H1876 N1873 0.984 . S
H1877 N1873 0.985 . S
H1878 N1872 0.984 . S
H1879 N1872 0.984 . S
H1880 N1868 0.984 . S
H1881 N1868 0.985 . S
C1882 C1883 1.363 . S
C1882 C1888 1.379 . S
C1882 N1890 1.356 . S
C1883 C1882 1.363 . S
C1883 C1889 1.363 . S
C1884 C1885 1.363 . S
C1884 C1889 1.379 . S
C1884 N1891 1.356 . S
C1885 C1884 1.363 . S
C1885 C1888 1.363 . S
N1886 C1888 1.356 . S
N1886 H1898 0.984 . S
N1886 H1899 0.985 . S
N1887 C1889 1.356 . S
N1887 H1892 0.984 . S
N1887 H1893 0.985 . S
C1888 C1882 1.379 . S
C1888 C1885 1.363 . S
C1888 N1886 1.356 . S
C1889 C1883 1.363 . S
C1889 C1884 1.379 . S
C1889 N1887 1.356 . S
N1890 C1882 1.356 . S
N1890 H1896 0.984 . S
N1890 H1897 0.984 . S
N1891 C1884 1.356 . S
N1891 H1894 0.984 . S
N1891 H1895 0.985 . S
H1892 N1887 0.984 . S
H1893 N1887 0.985 . S
H1894 N1891 0.984 . S
H1895 N1891 0.985 . S
H1896 N1890 0.984 . S
H1897 N1890 0.984 . S
H1898 N1886 0.984 . S
H1899 N1886 0.985 . S
C1900 C1901 1.363 . S
C1900 C1906 1.379 . S
C1900 N1908 1.356 . S
C1901 C1900 1.363 . S
C1901 C1907 1.363 . S
C1902 C1903 1.363 . S
C1902 C1907 1.379 . S
C1902 N1909 1.356 . S
C1903 C1902 1.363 . S
C1903 C1906 1.363 . S
N1904 C1906 1.356 . S
N1904 H1916 0.984 . S
N1904 H1917 0.985 . S
N1905 C1907 1.356 . S
N1905 H1910 0.984 . S
N1905 H1911 0.985 . S
C1906 C1900 1.379 . S
C1906 C1903 1.363 . S
C1906 N1904 1.356 . S
C1907 C1901 1.363 . S
C1907 C1902 1.379 . S
C1907 N1905 1.356 . S
N1908 C1900 1.356 . S
N1908 H1914 0.984 . S
N1908 H1915 0.984 . S
N1909 C1902 1.356 . S
N1909 H1912 0.984 . S
N1909 H1913 0.985 . S
H1910 N1905 0.984 . S
H1911 N1905 0.985 . S
H1912 N1909 0.984 . S
H1913 N1909 0.985 . S
H1914 N1908 0.984 . S
H1915 N1908 0.984 . S
H1916 N1904 0.984 . S
H1917 N1904 0.985 . S
C1918 C1919 1.363 . S
C1918 C1924 1.379 . S
C1918 N1926 1.356 . S
C1919 C1918 1.363 . S
C1919 C1925 1.363 . S
C1920 C1921 1.363 . S
C1920 C1925 1.379 . S
C1920 N1927 1.356 . S
C1921 C1920 1.363 . S
C1921 C1924 1.363 . S
N1922 C1924 1.356 . S
N1922 H1934 0.984 . S
N1922 H1935 0.985 . S
N1923 C1925 1.356 . S
N1923 H1928 0.984 . S
N1923 H1929 0.985 . S
C1924 C1918 1.379 . S
C1924 C1921 1.363 . S
C1924 N1922 1.356 . S
C1925 C1919 1.363 . S
C1925 C1920 1.379 . S
C1925 N1923 1.356 . S
N1926 C1918 1.356 . S
N1926 H1932 0.984 . S
N1926 H1933 0.984 . S
N1927 C1920 1.356 . S
N1927 H1930 0.984 . S
N1927 H1931 0.985 . S
H1928 N1923 0.984 . S
H1929 N1923 0.985 . S
H1930 N1927 0.984 . S
H1931 N1927 0.985 . S
H1932 N1926 0.984 . S
H1933 N1926 0.984 . S
H1934 N1922 0.984 . S
H1935 N1922 0.985 . S
C1936 C1937 1.363 . S
C1936 C1942 1.379 . S
C1936 N1944 1.356 . S
C1937 C1936 1.363 . S
C1937 C1943 1.363 . S
C1938 C1939 1.363 . S
C1938 C1943 1.379 . S
C1938 N1945 1.356 . S
C1939 C1938 1.363 . S
C1939 C1942 1.363 . S
N1940 C1942 1.356 . S
N1940 H1952 0.984 . S
N1940 H1953 0.985 . S
N1941 C1943 1.356 . S
N1941 H1946 0.984 . S
N1941 H1947 0.985 . S
C1942 C1936 1.379 . S
C1942 C1939 1.363 . S
C1942 N1940 1.356 . S
C1943 C1937 1.363 . S
C1943 C1938 1.379 . S
C1943 N1941 1.356 . S
N1944 C1936 1.356 . S
N1944 H1950 0.984 . S
N1944 H1951 0.984 . S
N1945 C1938 1.356 . S
N1945 H1948 0.984 . S
N1945 H1949 0.985 . S
H1946 N1941 0.984 . S
H1947 N1941 0.985 . S
H1948 N1945 0.984 . S
H1949 N1945 0.985 . S
H1950 N1944 0.984 . S
H1951 N1944 0.984 . S
H1952 N1940 0.984 . S
H1953 N1940 0.985 . S
C1954 C1955 1.363 . S
C1954 C1960 1.379 . S
C1954 N1962 1.356 . S
C1955 C1954 1.363 . S
C1955 C1961 1.363 . S
C1956 C1957 1.363 . S
C1956 C1961 1.379 . S
C1956 N1963 1.356 . S
C1957 C1956 1.363 . S
C1957 C1960 1.363 . S
N1958 C1960 1.356 . S
N1958 H1970 0.984 . S
N1958 H1971 0.985 . S
N1959 C1961 1.356 . S
N1959 H1964 0.984 . S
N1959 H1965 0.985 . S
C1960 C1954 1.379 . S
C1960 C1957 1.363 . S
C1960 N1958 1.356 . S
C1961 C1955 1.363 . S
C1961 C1956 1.379 . S
C1961 N1959 1.356 . S
N1962 C1954 1.356 . S
N1962 H1968 0.984 . S
N1962 H1969 0.984 . S
N1963 C1956 1.356 . S
N1963 H1966 0.984 . S
N1963 H1967 0.985 . S
H1964 N1959 0.984 . S
H1965 N1959 0.985 . S
H1966 N1963 0.984 . S
H1967 N1963 0.985 . S
H1968 N1962 0.984 . S
H1969 N1962 0.984 . S
H1970 N1958 0.984 . S
H1971 N1958 0.985 . S
C1972 C1973 1.363 . S
C1972 C1978 1.379 . S
C1972 N1980 1.356 . S
C1973 C1972 1.363 . S
C1973 C1979 1.363 . S
C1974 C1975 1.363 . S
C1974 C1979 1.379 . S
C1974 N1981 1.356 . S
C1975 C1974 1.363 . S
C1975 C1978 1.363 . S
N1976 C1978 1.356 . S
N1976 H1988 0.984 . S
N1976 H1989 0.985 . S
N1977 C1979 1.356 . S
N1977 H1982 0.984 . S
N1977 H1983 0.985 . S
C1978 C1972 1.379 . S
C1978 C1975 1.363 . S
C1978 N1976 1.356 . S
C1979 C1973 1.363 . S
C1979 C1974 1.379 . S
C1979 N1977 1.356 . S
N1980 C1972 1.356 . S
N1980 H1986 0.984 . S
N1980 H1987 0.984 . S
N1981 C1974 1.356 . S
N1981 H1984 0.984 . S
N1981 H1985 0.985 . S
H1982 N1977 0.984 . S
H1983 N1977 0.985 . S
H1984 N1981 0.984 . S
H1985 N1981 0.985 . S
H1986 N1980 0.984 . S
H1987 N1980 0.984 . S
H1988 N1976 0.984 . S
H1989 N1976 0.985 . S
C1990 C1991 1.363 . S
C1990 C1996 1.379 . S
C1990 N1998 1.356 . S
C1991 C1990 1.363 . S
C1991 C1997 1.363 . S
C1992 C1993 1.363 . S
C1992 C1997 1.379 . S
C1992 N1999 1.356 . S
C1993 C1992 1.363 . S
C1993 C1996 1.363 . S
N1994 C1996 1.356 . S
N1994 H2006 0.984 . S
N1994 H2007 0.985 . S
N1995 C1997 1.356 . S
N1995 H2000 0.984 . S
N1995 H2001 0.985 . S
C1996 C1990 1.379 . S
C1996 C1993 1.363 . S
C1996 N1994 1.356 . S
C1997 C1991 1.363 . S
C1997 C1992 1.379 . S
C1997 N1995 1.356 . S
N1998 C1990 1.356 . S
N1998 H2004 0.984 . S
N1998 H2005 0.984 . S
N1999 C1992 1.356 . S
N1999 H2002 0.984 . S
N1999 H2003 0.985 . S
H2000 N1995 0.984 . S
H2001 N1995 0.985 . S
H2002 N1999 0.984 . S
H2003 N1999 0.985 . S
H2004 N1998 0.984 . S
H2005 N1998 0.984 . S
H2006 N1994 0.984 . S
H2007 N1994 0.985 . S
C2008 C2009 1.363 . S
C2008 C2014 1.379 . S
C2008 N2016 1.356 . S
C2009 C2008 1.363 . S
C2009 C2015 1.363 . S
C2010 C2011 1.363 . S
C2010 C2015 1.379 . S
C2010 N2017 1.356 . S
C2011 C2010 1.363 . S
C2011 C2014 1.363 . S
N2012 C2014 1.356 . S
N2012 H2024 0.984 . S
N2012 H2025 0.985 . S
N2013 C2015 1.356 . S
N2013 H2018 0.984 . S
N2013 H2019 0.985 . S
C2014 C2008 1.379 . S
C2014 C2011 1.363 . S
C2014 N2012 1.356 . S
C2015 C2009 1.363 . S
C2015 C2010 1.379 . S
C2015 N2013 1.356 . S
N2016 C2008 1.356 . S
N2016 H2022 0.984 . S
N2016 H2023 0.984 . S
N2017 C2010 1.356 . S
N2017 H2020 0.984 . S
N2017 H2021 0.985 . S
H2018 N2013 0.984 . S
H2019 N2013 0.985 . S
H2020 N2017 0.984 . S
H2021 N2017 0.985 . S
H2022 N2016 0.984 . S
H2023 N2016 0.984 . S
H2024 N2012 0.984 . S
H2025 N2012 0.985 . S
C2026 C2027 1.363 . S
C2026 C2032 1.379 . S
C2026 N2034 1.356 . S
C2027 C2026 1.363 . S
C2027 C2033 1.363 . S
C2028 C2029 1.363 . S
C2028 C2033 1.379 . S
C2028 N2035 1.356 . S
C2029 C2028 1.363 . S
C2029 C2032 1.363 . S
N2030 C2032 1.356 . S
N2030 H2042 0.984 . S
N2030 H2043 0.985 . S
N2031 C2033 1.356 . S
N2031 H2036 0.984 . S
N2031 H2037 0.985 . S
C2032 C2026 1.379 . S
C2032 C2029 1.363 . S
C2032 N2030 1.356 . S
C2033 C2027 1.363 . S
C2033 C2028 1.379 . S
C2033 N2031 1.356 . S
N2034 C2026 1.356 . S
N2034 H2040 0.984 . S
N2034 H2041 0.984 . S
N2035 C2028 1.356 . S
N2035 H2038 0.984 . S
N2035 H2039 0.985 . S
H2036 N2031 0.984 . S
H2037 N2031 0.985 . S
H2038 N2035 0.984 . S
H2039 N2035 0.985 . S
H2040 N2034 0.984 . S
H2041 N2034 0.984 . S
H2042 N2030 0.984 . S
H2043 N2030 0.985 . S
C2044 C2045 1.363 . S
C2044 C2050 1.379 . S
C2044 N2052 1.356 . S
C2045 C2044 1.363 . S
C2045 C2051 1.363 . S
C2046 C2047 1.363 . S
C2046 C2051 1.379 . S
C2046 N2053 1.356 . S
C2047 C2046 1.363 . S
C2047 C2050 1.363 . S
N2048 C2050 1.356 . S
N2048 H2060 0.984 . S
N2048 H2061 0.985 . S
N2049 C2051 1.356 . S
N2049 H2054 0.984 . S
N2049 H2055 0.985 . S
C2050 C2044 1.379 . S
C2050 C2047 1.363 . S
C2050 N2048 1.356 . S
C2051 C2045 1.363 . S
C2051 C2046 1.379 . S
C2051 N2049 1.356 . S
N2052 C2044 1.356 . S
N2052 H2058 0.984 . S
N2052 H2059 0.984 . S
N2053 C2046 1.356 . S
N2053 H2056 0.984 . S
N2053 H2057 0.985 . S
H2054 N2049 0.984 . S
H2055 N2049 0.985 . S
H2056 N2053 0.984 . S
H2057 N2053 0.985 . S
H2058 N2052 0.984 . S
H2059 N2052 0.984 . S
H2060 N2048 0.984 . S
H2061 N2048 0.985 . S
C2062 C2063 1.363 . S
C2062 C2068 1.379 . S
C2062 N2070 1.356 . S
C2063 C2062 1.363 . S
C2063 C2069 1.363 . S
C2064 C2065 1.363 . S
C2064 C2069 1.379 . S
C2064 N2071 1.356 . S
C2065 C2064 1.363 . S
C2065 C2068 1.363 . S
N2066 C2068 1.356 . S
N2066 H2078 0.984 . S
N2066 H2079 0.985 . S
N2067 C2069 1.356 . S
N2067 H2072 0.984 . S
N2067 H2073 0.985 . S
C2068 C2062 1.379 . S
C2068 C2065 1.363 . S
C2068 N2066 1.356 . S
C2069 C2063 1.363 . S
C2069 C2064 1.379 . S
C2069 N2067 1.356 . S
N2070 C2062 1.356 . S
N2070 H2076 0.984 . S
N2070 H2077 0.984 . S
N2071 C2064 1.356 . S
N2071 H2074 0.984 . S
N2071 H2075 0.985 . S
H2072 N2067 0.984 . S
H2073 N2067 0.985 . S
H2074 N2071 0.984 . S
H2075 N2071 0.985 . S
H2076 N2070 0.984 . S
H2077 N2070 0.984 . S
H2078 N2066 0.984 . S
H2079 N2066 0.985 . S
C2080 C2081 1.363 . S
C2080 C2086 1.379 . S
C2080 N2088 1.356 . S
C2081 C2080 1.363 . S
C2081 C2087 1.363 . S
C2082 C2083 1.363 . S
C2082 C2087 1.379 . S
C2082 N2089 1.356 . S
C2083 C2082 1.363 . S
C2083 C2086 1.363 . S
N2084 C2086 1.356 . S
N2084 H2096 0.984 . S
N2084 H2097 0.985 . S
N2085 C2087 1.356 . S
N2085 H2090 0.984 . S
N2085 H2091 0.985 . S
C2086 C2080 1.379 . S
C2086 C2083 1.363 . S
C2086 N2084 1.356 . S
C2087 C2081 1.363 . S
C2087 C2082 1.379 . S
C2087 N2085 1.356 . S
N2088 C2080 1.356 . S
N2088 H2094 0.984 . S
N2088 H2095 0.984 . S
N2089 C2082 1.356 . S
N2089 H2092 0.984 . S
N2089 H2093 0.985 . S
H2090 N2085 0.984 . S
H2091 N2085 0.985 . S
H2092 N2089 0.984 . S
H2093 N2089 0.985 . S
H2094 N2088 0.984 . S
H2095 N2088 0.984 . S
H2096 N2084 0.984 . S
H2097 N2084 0.985 . S
C2098 C2099 1.363 . S
C2098 C2104 1.379 . S
C2098 N2106 1.356 . S
C2099 C2098 1.363 . S
C2099 C2105 1.363 . S
C2100 C2101 1.363 . S
C2100 C2105 1.379 . S
C2100 N2107 1.356 . S
C2101 C2100 1.363 . S
C2101 C2104 1.363 . S
N2102 C2104 1.356 . S
N2102 H2114 0.984 . S
N2102 H2115 0.985 . S
N2103 C2105 1.356 . S
N2103 H2108 0.984 . S
N2103 H2109 0.985 . S
C2104 C2098 1.379 . S
C2104 C2101 1.363 . S
C2104 N2102 1.356 . S
C2105 C2099 1.363 . S
C2105 C2100 1.379 . S
C2105 N2103 1.356 . S
N2106 C2098 1.356 . S
N2106 H2112 0.984 . S
N2106 H2113 0.984 . S
N2107 C2100 1.356 . S
N2107 H2110 0.984 . S
N2107 H2111 0.985 . S
H2108 N2103 0.984 . S
H2109 N2103 0.985 . S
H2110 N2107 0.984 . S
H2111 N2107 0.985 . S
H2112 N2106 0.984 . S
H2113 N2106 0.984 . S
H2114 N2102 0.984 . S
H2115 N2102 0.985 . S
C2116 C2117 1.363 . S
C2116 C2122 1.379 . S
C2116 N2124 1.356 . S
C2117 C2116 1.363 . S
C2117 C2123 1.363 . S
C2118 C2119 1.363 . S
C2118 C2123 1.379 . S
C2118 N2125 1.356 . S
C2119 C2118 1.363 . S
C2119 C2122 1.363 . S
N2120 C2122 1.356 . S
N2120 H2132 0.984 . S
N2120 H2133 0.985 . S
N2121 C2123 1.356 . S
N2121 H2126 0.984 . S
N2121 H2127 0.985 . S
C2122 C2116 1.379 . S
C2122 C2119 1.363 . S
C2122 N2120 1.356 . S
C2123 C2117 1.363 . S
C2123 C2118 1.379 . S
C2123 N2121 1.356 . S
N2124 C2116 1.356 . S
N2124 H2130 0.984 . S
N2124 H2131 0.984 . S
N2125 C2118 1.356 . S
N2125 H2128 0.984 . S
N2125 H2129 0.985 . S
H2126 N2121 0.984 . S
H2127 N2121 0.985 . S
H2128 N2125 0.984 . S
H2129 N2125 0.985 . S
H2130 N2124 0.984 . S
H2131 N2124 0.984 . S
H2132 N2120 0.984 . S
H2133 N2120 0.985 . S
C2134 C2135 1.363 . S
C2134 C2140 1.379 . S
C2134 N2142 1.356 . S
C2135 C2134 1.363 . S
C2135 C2141 1.363 . S
C2136 C2137 1.363 . S
C2136 C2141 1.379 . S
C2136 N2143 1.356 . S
C2137 C2136 1.363 . S
C2137 C2140 1.363 . S
N2138 C2140 1.356 . S
N2138 H2150 0.984 . S
N2138 H2151 0.985 . S
N2139 C2141 1.356 . S
N2139 H2144 0.984 . S
N2139 H2145 0.985 . S
C2140 C2134 1.379 . S
C2140 C2137 1.363 . S
C2140 N2138 1.356 . S
C2141 C2135 1.363 . S
C2141 C2136 1.379 . S
C2141 N2139 1.356 . S
N2142 C2134 1.356 . S
N2142 H2148 0.984 . S
N2142 H2149 0.984 . S
N2143 C2136 1.356 . S
N2143 H2146 0.984 . S
N2143 H2147 0.985 . S
H2144 N2139 0.984 . S
H2145 N2139 0.985 . S
H2146 N2143 0.984 . S
H2147 N2143 0.985 . S
H2148 N2142 0.984 . S
H2149 N2142 0.984 . S
H2150 N2138 0.984 . S
H2151 N2138 0.985 . S
C2152 C2153 1.363 . S
C2152 C2158 1.379 . S
C2152 N2160 1.356 . S
C2153 C2152 1.363 . S
C2153 C2159 1.363 . S
C2154 C2155 1.363 . S
C2154 C2159 1.379 . S
C2154 N2161 1.356 . S
C2155 C2154 1.363 . S
C2155 C2158 1.363 . S
N2156 C2158 1.356 . S
N2156 H2168 0.984 . S
N2156 H2169 0.985 . S
N2157 C2159 1.356 . S
N2157 H2162 0.984 . S
N2157 H2163 0.985 . S
C2158 C2152 1.379 . S
C2158 C2155 1.363 . S
C2158 N2156 1.356 . S
C2159 C2153 1.363 . S
C2159 C2154 1.379 . S
C2159 N2157 1.356 . S
N2160 C2152 1.356 . S
N2160 H2166 0.984 . S
N2160 H2167 0.984 . S
N2161 C2154 1.356 . S
N2161 H2164 0.984 . S
N2161 H2165 0.985 . S
H2162 N2157 0.984 . S
H2163 N2157 0.985 . S
H2164 N2161 0.984 . S
H2165 N2161 0.985 . S
H2166 N2160 0.984 . S
H2167 N2160 0.984 . S
H2168 N2156 0.984 . S
H2169 N2156 0.985 . S
C2170 C2171 1.363 . S
C2170 C2176 1.379 . S
C2170 N2178 1.356 . S
C2171 C2170 1.363 . S
C2171 C2177 1.363 . S
C2172 C2173 1.363 . S
C2172 C2177 1.379 . S
C2172 N2179 1.356 . S
C2173 C2172 1.363 . S
C2173 C2176 1.363 . S
N2174 C2176 1.356 . S
N2174 H2186 0.984 . S
N2174 H2187 0.985 . S
N2175 C2177 1.356 . S
N2175 H2180 0.984 . S
N2175 H2181 0.985 . S
C2176 C2170 1.379 . S
C2176 C2173 1.363 . S
C2176 N2174 1.356 . S
C2177 C2171 1.363 . S
C2177 C2172 1.379 . S
C2177 N2175 1.356 . S
N2178 C2170 1.356 . S
N2178 H2184 0.984 . S
N2178 H2185 0.984 . S
N2179 C2172 1.356 . S
N2179 H2182 0.984 . S
N2179 H2183 0.985 . S
H2180 N2175 0.984 . S
H2181 N2175 0.985 . S
H2182 N2179 0.984 . S
H2183 N2179 0.985 . S
H2184 N2178 0.984 . S
H2185 N2178 0.984 . S
H2186 N2174 0.984 . S
H2187 N2174 0.985 . S
C2188 C2189 1.363 . S
C2188 C2194 1.379 . S
C2188 N2196 1.356 . S
C2189 C2188 1.363 . S
C2189 C2195 1.363 . S
C2190 C2191 1.363 . S
C2190 C2195 1.379 . S
C2190 N2197 1.356 . S
C2191 C2190 1.363 . S
C2191 C2194 1.363 . S
N2192 C2194 1.356 . S
N2192 H2204 0.984 . S
N2192 H2205 0.985 . S
N2193 C2195 1.356 . S
N2193 H2198 0.984 . S
N2193 H2199 0.985 . S
C2194 C2188 1.379 . S
C2194 C2191 1.363 . S
C2194 N2192 1.356 . S
C2195 C2189 1.363 . S
C2195 C2190 1.379 . S
C2195 N2193 1.356 . S
N2196 C2188 1.356 . S
N2196 H2202 0.984 . S
N2196 H2203 0.984 . S
N2197 C2190 1.356 . S
N2197 H2200 0.984 . S
N2197 H2201 0.985 . S
H2198 N2193 0.984 . S
H2199 N2193 0.985 . S
H2200 N2197 0.984 . S
H2201 N2197 0.985 . S
H2202 N2196 0.984 . S
H2203 N2196 0.984 . S
H2204 N2192 0.984 . S
H2205 N2192 0.985 . S
C2206 C2207 1.363 . S
C2206 C2212 1.379 . S
C2206 N2214 1.356 . S
C2207 C2206 1.363 . S
C2207 C2213 1.363 . S
C2208 C2209 1.363 . S
C2208 C2213 1.379 . S
C2208 N2215 1.356 . S
C2209 C2208 1.363 . S
C2209 C2212 1.363 . S
N2210 C2212 1.356 . S
N2210 H2222 0.984 . S
N2210 H2223 0.985 . S
N2211 C2213 1.356 . S
N2211 H2216 0.984 . S
N2211 H2217 0.985 . S
C2212 C2206 1.379 . S
C2212 C2209 1.363 . S
C2212 N2210 1.356 . S
C2213 C2207 1.363 . S
C2213 C2208 1.379 . S
C2213 N2211 1.356 . S
N2214 C2206 1.356 . S
N2214 H2220 0.984 . S
N2214 H2221 0.984 . S
N2215 C2208 1.356 . S
N2215 H2218 0.984 . S
N2215 H2219 0.985 . S
H2216 N2211 0.984 . S
H2217 N2211 0.985 . S
H2218 N2215 0.984 . S
H2219 N2215 0.985 . S
H2220 N2214 0.984 . S
H2221 N2214 0.984 . S
H2222 N2210 0.984 . S
H2223 N2210 0.985 . S
C2224 C2225 1.363 . S
C2224 C2230 1.379 . S
C2224 N2232 1.356 . S
C2225 C2224 1.363 . S
C2225 C2231 1.363 . S
C2226 C2227 1.363 . S
C2226 C2231 1.379 . S
C2226 N2233 1.356 . S
C2227 C2226 1.363 . S
C2227 C2230 1.363 . S
N2228 C2230 1.356 . S
N2228 H2240 0.984 . S
N2228 H2241 0.985 . S
N2229 C2231 1.356 . S
N2229 H2234 0.984 . S
N2229 H2235 0.985 . S
C2230 C2224 1.379 . S
C2230 C2227 1.363 . S
C2230 N2228 1.356 . S
C2231 C2225 1.363 . S
C2231 C2226 1.379 . S
C2231 N2229 1.356 . S
N2232 C2224 1.356 . S
N2232 H2238 0.984 . S
N2232 H2239 0.984 . S
N2233 C2226 1.356 . S
N2233 H2236 0.984 . S
N2233 H2237 0.985 . S
H2234 N2229 0.984 . S
H2235 N2229 0.985 . S
H2236 N2233 0.984 . S
H2237 N2233 0.985 . S
H2238 N2232 0.984 . S
H2239 N2232 0.984 . S
H2240 N2228 0.984 . S
H2241 N2228 0.985 . S
C2242 C2243 1.363 . S
C2242 C2248 1.379 . S
C2242 N2250 1.356 . S
C2243 C2242 1.363 . S
C2243 C2249 1.363 . S
C2244 C2245 1.363 . S
C2244 C2249 1.379 . S
C2244 N2251 1.356 . S
C2245 C2244 1.363 . S
C2245 C2248 1.363 . S
N2246 C2248 1.356 . S
N2246 H2258 0.984 . S
N2246 H2259 0.985 . S
N2247 C2249 1.356 . S
N2247 H2252 0.984 . S
N2247 H2253 0.985 . S
C2248 C2242 1.379 . S
C2248 C2245 1.363 . S
C2248 N2246 1.356 . S
C2249 C2243 1.363 . S
C2249 C2244 1.379 . S
C2249 N2247 1.356 . S
N2250 C2242 1.356 . S
N2250 H2256 0.984 . S
N2250 H2257 0.984 . S
N2251 C2244 1.356 . S
N2251 H2254 0.984 . S
N2251 H2255 0.985 . S
H2252 N2247 0.984 . S
H2253 N2247 0.985 . S
H2254 N2251 0.984 . S
H2255 N2251 0.985 . S
H2256 N2250 0.984 . S
H2257 N2250 0.984 . S
H2258 N2246 0.984 . S
H2259 N2246 0.985 . S
C2260 C2261 1.363 . S
C2260 C2266 1.379 . S
C2260 N2268 1.356 . S
C2261 C2260 1.363 . S
C2261 C2267 1.363 . S
C2262 C2263 1.363 . S
C2262 C2267 1.379 . S
C2262 N2269 1.356 . S
C2263 C2262 1.363 . S
C2263 C2266 1.363 . S
N2264 C2266 1.356 . S
N2264 H2276 0.984 . S
N2264 H2277 0.985 . S
N2265 C2267 1.356 . S
N2265 H2270 0.984 . S
N2265 H2271 0.985 . S
C2266 C2260 1.379 . S
C2266 C2263 1.363 . S
C2266 N2264 1.356 . S
C2267 C2261 1.363 . S
C2267 C2262 1.379 . S
C2267 N2265 1.356 . S
N2268 C2260 1.356 . S
N2268 H2274 0.984 . S
N2268 H2275 0.984 . S
N2269 C2262 1.356 . S
N2269 H2272 0.984 . S
N2269 H2273 0.985 . S
H2270 N2265 0.984 . S
H2271 N2265 0.985 . S
H2272 N2269 0.984 . S
H2273 N2269 0.985 . S
H2274 N2268 0.984 . S
H2275 N2268 0.984 . S
H2276 N2264 0.984 . S
H2277 N2264 0.985 . S
C2278 C2279 1.363 . S
C2278 C2284 1.379 . S
C2278 N2286 1.356 . S
C2279 C2278 1.363 . S
C2279 C2285 1.363 . S
C2280 C2281 1.363 . S
C2280 C2285 1.379 . S
C2280 N2287 1.356 . S
C2281 C2280 1.363 . S
C2281 C2284 1.363 . S
N2282 C2284 1.356 . S
N2282 H2294 0.984 . S
N2282 H2295 0.985 . S
N2283 C2285 1.356 . S
N2283 H2288 0.984 . S
N2283 H2289 0.985 . S
C2284 C2278 1.379 . S
C2284 C2281 1.363 . S
C2284 N2282 1.356 . S
C2285 C2279 1.363 . S
C2285 C2280 1.379 . S
C2285 N2283 1.356 . S
N2286 C2278 1.356 . S
N2286 H2292 0.984 . S
N2286 H2293 0.984 . S
N2287 C2280 1.356 . S
N2287 H2290 0.984 . S
N2287 H2291 0.985 . S
H2288 N2283 0.984 . S
H2289 N2283 0.985 . S
H2290 N2287 0.984 . S
H2291 N2287 0.985 . S
H2292 N2286 0.984 . S
H2293 N2286 0.984 . S
H2294 N2282 0.984 . S
H2295 N2282 0.985 . S
C2296 C2297 1.363 . S
C2296 C2302 1.379 . S
C2296 N2304 1.356 . S
C2297 C2296 1.363 . S
C2297 C2303 1.363 . S
C2298 C2299 1.363 . S
C2298 C2303 1.379 . S
C2298 N2305 1.356 . S
C2299 C2298 1.363 . S
C2299 C2302 1.363 . S
N2300 C2302 1.356 . S
N2300 H2312 0.984 . S
N2300 H2313 0.985 . S
N2301 C2303 1.356 . S
N2301 H2306 0.984 . S
N2301 H2307 0.985 . S
C2302 C2296 1.379 . S
C2302 C2299 1.363 . S
C2302 N2300 1.356 . S
C2303 C2297 1.363 . S
C2303 C2298 1.379 . S
C2303 N2301 1.356 . S
N2304 C2296 1.356 . S
N2304 H2310 0.984 . S
N2304 H2311 0.984 . S
N2305 C2298 1.356 . S
N2305 H2308 0.984 . S
N2305 H2309 0.985 . S
H2306 N2301 0.984 . S
H2307 N2301 0.985 . S
H2308 N2305 0.984 . S
H2309 N2305 0.985 . S
H2310 N2304 0.984 . S
H2311 N2304 0.984 . S
H2312 N2300 0.984 . S
H2313 N2300 0.985 . S
C2314 C2315 1.363 . S
C2314 C2320 1.379 . S
C2314 N2322 1.356 . S
C2315 C2314 1.363 . S
C2315 C2321 1.363 . S
C2316 C2317 1.363 . S
C2316 C2321 1.379 . S
C2316 N2323 1.356 . S
C2317 C2316 1.363 . S
C2317 C2320 1.363 . S
N2318 C2320 1.356 . S
N2318 H2330 0.984 . S
N2318 H2331 0.985 . S
N2319 C2321 1.356 . S
N2319 H2324 0.984 . S
N2319 H2325 0.985 . S
C2320 C2314 1.379 . S
C2320 C2317 1.363 . S
C2320 N2318 1.356 . S
C2321 C2315 1.363 . S
C2321 C2316 1.379 . S
C2321 N2319 1.356 . S
N2322 C2314 1.356 . S
N2322 H2328 0.984 . S
N2322 H2329 0.984 . S
N2323 C2316 1.356 . S
N2323 H2326 0.984 . S
N2323 H2327 0.985 . S
H2324 N2319 0.984 . S
H2325 N2319 0.985 . S
H2326 N2323 0.984 . S
H2327 N2323 0.985 . S
H2328 N2322 0.984 . S
H2329 N2322 0.984 . S
H2330 N2318 0.984 . S
H2331 N2318 0.985 . S
C2332 C2333 1.363 . S
C2332 C2338 1.379 . S
C2332 N2340 1.356 . S
C2333 C2332 1.363 . S
C2333 C2339 1.363 . S
C2334 C2335 1.363 . S
C2334 C2339 1.379 . S
C2334 N2341 1.356 . S
C2335 C2334 1.363 . S
C2335 C2338 1.363 . S
N2336 C2338 1.356 . S
N2336 H2348 0.984 . S
N2336 H2349 0.985 . S
N2337 C2339 1.356 . S
N2337 H2342 0.984 . S
N2337 H2343 0.985 . S
C2338 C2332 1.379 . S
C2338 C2335 1.363 . S
C2338 N2336 1.356 . S
C2339 C2333 1.363 . S
C2339 C2334 1.379 . S
C2339 N2337 1.356 . S
N2340 C2332 1.356 . S
N2340 H2346 0.984 . S
N2340 H2347 0.984 . S
N2341 C2334 1.356 . S
N2341 H2344 0.984 . S
N2341 H2345 0.985 . S
H2342 N2337 0.984 . S
H2343 N2337 0.985 . S
H2344 N2341 0.984 . S
H2345 N2341 0.985 . S
H2346 N2340 0.984 . S
H2347 N2340 0.984 . S
H2348 N2336 0.984 . S
H2349 N2336 0.985 . S
C2350 C2351 1.363 . S
C2350 C2356 1.379 . S
C2350 N2358 1.356 . S
C2351 C2350 1.363 . S
C2351 C2357 1.363 . S
C2352 C2353 1.363 . S
C2352 C2357 1.379 . S
C2352 N2359 1.356 . S
C2353 C2352 1.363 . S
C2353 C2356 1.363 . S
N2354 C2356 1.356 . S
N2354 H2366 0.984 . S
N2354 H2367 0.985 . S
N2355 C2357 1.356 . S
N2355 H2360 0.984 . S
N2355 H2361 0.985 . S
C2356 C2350 1.379 . S
C2356 C2353 1.363 . S
C2356 N2354 1.356 . S
C2357 C2351 1.363 . S
C2357 C2352 1.379 . S
C2357 N2355 1.356 . S
N2358 C2350 1.356 . S
N2358 H2364 0.984 . S
N2358 H2365 0.984 . S
N2359 C2352 1.356 . S
N2359 H2362 0.984 . S
N2359 H2363 0.985 . S
H2360 N2355 0.984 . S
H2361 N2355 0.985 . S
H2362 N2359 0.984 . S
H2363 N2359 0.985 . S
H2364 N2358 0.984 . S
H2365 N2358 0.984 . S
H2366 N2354 0.984 . S
H2367 N2354 0.985 . S
C2368 C2369 1.363 . S
C2368 C2374 1.379 . S
C2368 N2376 1.356 . S
C2369 C2368 1.363 . S
C2369 C2375 1.363 . S
C2370 C2371 1.363 . S
C2370 C2375 1.379 . S
C2370 N2377 1.356 . S
C2371 C2370 1.363 . S
C2371 C2374 1.363 . S
N2372 C2374 1.356 . S
N2372 H2384 0.984 . S
N2372 H2385 0.985 . S
N2373 C2375 1.356 . S
N2373 H2378 0.984 . S
N2373 H2379 0.985 . S
C2374 C2368 1.379 . S
C2374 C2371 1.363 . S
C2374 N2372 1.356 . S
C2375 C2369 1.363 . S
C2375 C2370 1.379 . S
C2375 N2373 1.356 . S
N2376 C2368 1.356 . S
N2376 H2382 0.984 . S
N2376 H2383 0.984 . S
N2377 C2370 1.356 . S
N2377 H2380 0.984 . S
N2377 H2381 0.985 . S
H2378 N2373 0.984 . S
H2379 N2373 0.985 . S
H2380 N2377 0.984 . S
H2381 N2377 0.985 . S
H2382 N2376 0.984 . S
H2383 N2376 0.984 . S
H2384 N2372 0.984 . S
H2385 N2372 0.985 . S
C2386 C2387 1.363 . S
C2386 C2392 1.379 . S
C2386 N2394 1.356 . S
C2387 C2386 1.363 . S
C2387 C2393 1.363 . S
C2388 C2389 1.363 . S
C2388 C2393 1.379 . S
C2388 N2395 1.356 . S
C2389 C2388 1.363 . S
C2389 C2392 1.363 . S
N2390 C2392 1.356 . S
N2390 H2402 0.984 . S
N2390 H2403 0.985 . S
N2391 C2393 1.356 . S
N2391 H2396 0.984 . S
N2391 H2397 0.985 . S
C2392 C2386 1.379 . S
C2392 C2389 1.363 . S
C2392 N2390 1.356 . S
C2393 C2387 1.363 . S
C2393 C2388 1.379 . S
C2393 N2391 1.356 . S
N2394 C2386 1.356 . S
N2394 H2400 0.984 . S
N2394 H2401 0.984 . S
N2395 C2388 1.356 . S
N2395 H2398 0.984 . S
N2395 H2399 0.985 . S
H2396 N2391 0.984 . S
H2397 N2391 0.985 . S
H2398 N2395 0.984 . S
H2399 N2395 0.985 . S
H2400 N2394 0.984 . S
H2401 N2394 0.984 . S
H2402 N2390 0.984 . S
H2403 N2390 0.985 . S
C2404 C2405 1.363 . S
C2404 C2410 1.379 . S
C2404 N2412 1.356 . S
C2405 C2404 1.363 . S
C2405 C2411 1.363 . S
C2406 C2407 1.363 . S
C2406 C2411 1.379 . S
C2406 N2413 1.356 . S
C2407 C2406 1.363 . S
C2407 C2410 1.363 . S
N2408 C2410 1.356 . S
N2408 H2420 0.984 . S
N2408 H2421 0.985 . S
N2409 C2411 1.356 . S
N2409 H2414 0.984 . S
N2409 H2415 0.985 . S
C2410 C2404 1.379 . S
C2410 C2407 1.363 . S
C2410 N2408 1.356 . S
C2411 C2405 1.363 . S
C2411 C2406 1.379 . S
C2411 N2409 1.356 . S
N2412 C2404 1.356 . S
N2412 H2418 0.984 . S
N2412 H2419 0.984 . S
N2413 C2406 1.356 . S
N2413 H2416 0.984 . S
N2413 H2417 0.985 . S
H2414 N2409 0.984 . S
H2415 N2409 0.985 . S
H2416 N2413 0.984 . S
H2417 N2413 0.985 . S
H2418 N2412 0.984 . S
H2419 N2412 0.984 . S
H2420 N2408 0.984 . S
H2421 N2408 0.985 . S
C2422 C2423 1.363 . S
C2422 C2428 1.379 . S
C2422 N2430 1.356 . S
C2423 C2422 1.363 . S
C2423 C2429 1.363 . S
C2424 C2425 1.363 . S
C2424 C2429 1.379 . S
C2424 N2431 1.356 . S
C2425 C2424 1.363 . S
C2425 C2428 1.363 . S
N2426 C2428 1.356 . S
N2426 H2438 0.984 . S
N2426 H2439 0.985 . S
N2427 C2429 1.356 . S
N2427 H2432 0.984 . S
N2427 H2433 0.985 . S
C2428 C2422 1.379 . S
C2428 C2425 1.363 . S
C2428 N2426 1.356 . S
C2429 C2423 1.363 . S
C2429 C2424 1.379 . S
C2429 N2427 1.356 . S
N2430 C2422 1.356 . S
N2430 H2436 0.984 . S
N2430 H2437 0.984 . S
N2431 C2424 1.356 . S
N2431 H2434 0.984 . S
N2431 H2435 0.985 . S
H2432 N2427 0.984 . S
H2433 N2427 0.985 . S
H2434 N2431 0.984 . S
H2435 N2431 0.985 . S
H2436 N2430 0.984 . S
H2437 N2430 0.984 . S
H2438 N2426 0.984 . S
H2439 N2426 0.985 . S
C2440 C2441 1.363 . S
C2440 C2446 1.379 . S
C2440 N2448 1.356 . S
C2441 C2440 1.363 . S
C2441 C2447 1.363 . S
C2442 C2443 1.363 . S
C2442 C2447 1.379 . S
C2442 N2449 1.356 . S
C2443 C2442 1.363 . S
C2443 C2446 1.363 . S
N2444 C2446 1.356 . S
N2444 H2456 0.984 . S
N2444 H2457 0.985 . S
N2445 C2447 1.356 . S
N2445 H2450 0.984 . S
N2445 H2451 0.985 . S
C2446 C2440 1.379 . S
C2446 C2443 1.363 . S
C2446 N2444 1.356 . S
C2447 C2441 1.363 . S
C2447 C2442 1.379 . S
C2447 N2445 1.356 . S
N2448 C2440 1.356 . S
N2448 H2454 0.984 . S
N2448 H2455 0.984 . S
N2449 C2442 1.356 . S
N2449 H2452 0.984 . S
N2449 H2453 0.985 . S
H2450 N2445 0.984 . S
H2451 N2445 0.985 . S
H2452 N2449 0.984 . S
H2453 N2449 0.985 . S
H2454 N2448 0.984 . S
H2455 N2448 0.984 . S
H2456 N2444 0.984 . S
H2457 N2444 0.985 . S
C2458 C2459 1.363 . S
C2458 C2464 1.379 . S
C2458 N2466 1.356 . S
C2459 C2458 1.363 . S
C2459 C2465 1.363 . S
C2460 C2461 1.363 . S
C2460 C2465 1.379 . S
C2460 N2467 1.356 . S
C2461 C2460 1.363 . S
C2461 C2464 1.363 . S
N2462 C2464 1.356 . S
N2462 H2474 0.984 . S
N2462 H2475 0.985 . S
N2463 C2465 1.356 . S
N2463 H2468 0.984 . S
N2463 H2469 0.985 . S
C2464 C2458 1.379 . S
C2464 C2461 1.363 . S
C2464 N2462 1.356 . S
C2465 C2459 1.363 . S
C2465 C2460 1.379 . S
C2465 N2463 1.356 . S
N2466 C2458 1.356 . S
N2466 H2472 0.984 . S
N2466 H2473 0.984 . S
N2467 C2460 1.356 . S
N2467 H2470 0.984 . S
N2467 H2471 0.985 . S
H2468 N2463 0.984 . S
H2469 N2463 0.985 . S
H2470 N2467 0.984 . S
H2471 N2467 0.985 . S
H2472 N2466 0.984 . S
H2473 N2466 0.984 . S
H2474 N2462 0.984 . S
H2475 N2462 0.985 . S
C2476 C2477 1.363 . S
C2476 C2482 1.379 . S
C2476 N2484 1.356 . S
C2477 C2476 1.363 . S
C2477 C2483 1.363 . S
C2478 C2479 1.363 . S
C2478 C2483 1.379 . S
C2478 N2485 1.356 . S
C2479 C2478 1.363 . S
C2479 C2482 1.363 . S
N2480 C2482 1.356 . S
N2480 H2492 0.984 . S
N2480 H2493 0.985 . S
N2481 C2483 1.356 . S
N2481 H2486 0.984 . S
N2481 H2487 0.985 . S
C2482 C2476 1.379 . S
C2482 C2479 1.363 . S
C2482 N2480 1.356 . S
C2483 C2477 1.363 . S
C2483 C2478 1.379 . S
C2483 N2481 1.356 . S
N2484 C2476 1.356 . S
N2484 H2490 0.984 . S
N2484 H2491 0.984 . S
N2485 C2478 1.356 . S
N2485 H2488 0.984 . S
N2485 H2489 0.985 . S
H2486 N2481 0.984 . S
H2487 N2481 0.985 . S
H2488 N2485 0.984 . S
H2489 N2485 0.985 . S
H2490 N2484 0.984 . S
H2491 N2484 0.984 . S
H2492 N2480 0.984 . S
H2493 N2480 0.985 . S
C2494 C2495 1.363 . S
C2494 C2500 1.379 . S
C2494 N2502 1.356 . S
C2495 C2494 1.363 . S
C2495 C2501 1.363 . S
C2496 C2497 1.363 . S
C2496 C2501 1.379 . S
C2496 N2503 1.356 . S
C2497 C2496 1.363 . S
C2497 C2500 1.363 . S
N2498 C2500 1.356 . S
N2498 H2510 0.984 . S
N2498 H2511 0.985 . S
N2499 C2501 1.356 . S
N2499 H2504 0.984 . S
N2499 H2505 0.985 . S
C2500 C2494 1.379 . S
C2500 C2497 1.363 . S
C2500 N2498 1.356 . S
C2501 C2495 1.363 . S
C2501 C2496 1.379 . S
C2501 N2499 1.356 . S
N2502 C2494 1.356 . S
N2502 H2508 0.984 . S
N2502 H2509 0.984 . S
N2503 C2496 1.356 . S
N2503 H2506 0.984 . S
N2503 H2507 0.985 . S
H2504 N2499 0.984 . S
H2505 N2499 0.985 . S
H2506 N2503 0.984 . S
H2507 N2503 0.985 . S
H2508 N2502 0.984 . S
H2509 N2502 0.984 . S
H2510 N2498 0.984 . S
H2511 N2498 0.985 . S
C2512 C2513 1.363 . S
C2512 C2518 1.379 . S
C2512 N2520 1.356 . S
C2513 C2512 1.363 . S
C2513 C2519 1.363 . S
C2514 C2515 1.363 . S
C2514 C2519 1.379 . S
C2514 N2521 1.356 . S
C2515 C2514 1.363 . S
C2515 C2518 1.363 . S
N2516 C2518 1.356 . S
N2516 H2528 0.984 . S
N2516 H2529 0.985 . S
N2517 C2519 1.356 . S
N2517 H2522 0.984 . S
N2517 H2523 0.985 . S
C2518 C2512 1.379 . S
C2518 C2515 1.363 . S
C2518 N2516 1.356 . S
C2519 C2513 1.363 . S
C2519 C2514 1.379 . S
C2519 N2517 1.356 . S
N2520 C2512 1.356 . S
N2520 H2526 0.984 . S
N2520 H2527 0.984 . S
N2521 C2514 1.356 . S
N2521 H2524 0.984 . S
N2521 H2525 0.985 . S
H2522 N2517 0.984 . S
H2523 N2517 0.985 . S
H2524 N2521 0.984 . S
H2525 N2521 0.985 . S
H2526 N2520 0.984 . S
H2527 N2520 0.984 . S
H2528 N2516 0.984 . S
H2529 N2516 0.985 . S
C2530 C2531 1.363 . S
C2530 C2536 1.379 . S
C2530 N2538 1.356 . S
C2531 C2530 1.363 . S
C2531 C2537 1.363 . S
C2532 C2533 1.363 . S
C2532 C2537 1.379 . S
C2532 N2539 1.356 . S
C2533 C2532 1.363 . S
C2533 C2536 1.363 . S
N2534 C2536 1.356 . S
N2534 H2546 0.984 . S
N2534 H2547 0.985 . S
N2535 C2537 1.356 . S
N2535 H2540 0.984 . S
N2535 H2541 0.985 . S
C2536 C2530 1.379 . S
C2536 C2533 1.363 . S
C2536 N2534 1.356 . S
C2537 C2531 1.363 . S
C2537 C2532 1.379 . S
C2537 N2535 1.356 . S
N2538 C2530 1.356 . S
N2538 H2544 0.984 . S
N2538 H2545 0.984 . S
N2539 C2532 1.356 . S
N2539 H2542 0.984 . S
N2539 H2543 0.985 . S
H2540 N2535 0.984 . S
H2541 N2535 0.985 . S
H2542 N2539 0.984 . S
H2543 N2539 0.985 . S
H2544 N2538 0.984 . S
H2545 N2538 0.984 . S
H2546 N2534 0.984 . S
H2547 N2534 0.985 . S
C2548 C2549 1.363 . S
C2548 C2554 1.379 . S
C2548 N2556 1.356 . S
C2549 C2548 1.363 . S
C2549 C2555 1.363 . S
C2550 C2551 1.363 . S
C2550 C2555 1.379 . S
C2550 N2557 1.356 . S
C2551 C2550 1.363 . S
C2551 C2554 1.363 . S
N2552 C2554 1.356 . S
N2552 H2564 0.984 . S
N2552 H2565 0.985 . S
N2553 C2555 1.356 . S
N2553 H2558 0.984 . S
N2553 H2559 0.985 . S
C2554 C2548 1.379 . S
C2554 C2551 1.363 . S
C2554 N2552 1.356 . S
C2555 C2549 1.363 . S
C2555 C2550 1.379 . S
C2555 N2553 1.356 . S
N2556 C2548 1.356 . S
N2556 H2562 0.984 . S
N2556 H2563 0.984 . S
N2557 C2550 1.356 . S
N2557 H2560 0.984 . S
N2557 H2561 0.985 . S
H2558 N2553 0.984 . S
H2559 N2553 0.985 . S
H2560 N2557 0.984 . S
H2561 N2557 0.985 . S
H2562 N2556 0.984 . S
H2563 N2556 0.984 . S
H2564 N2552 0.984 . S
H2565 N2552 0.985 . S
C2566 C2567 1.363 . S
C2566 C2572 1.379 . S
C2566 N2574 1.356 . S
C2567 C2566 1.363 . S
C2567 C2573 1.363 . S
C2568 C2569 1.363 . S
C2568 C2573 1.379 . S
C2568 N2575 1.356 . S
C2569 C2568 1.363 . S
C2569 C2572 1.363 . S
N2570 C2572 1.356 . S
N2570 H2582 0.984 . S
N2570 H2583 0.985 . S
N2571 C2573 1.356 . S
N2571 H2576 0.984 . S
N2571 H2577 0.985 . S
C2572 C2566 1.379 . S
C2572 C2569 1.363 . S
C2572 N2570 1.356 . S
C2573 C2567 1.363 . S
C2573 C2568 1.379 . S
C2573 N2571 1.356 . S
N2574 C2566 1.356 . S
N2574 H2580 0.984 . S
N2574 H2581 0.984 . S
N2575 C2568 1.356 . S
N2575 H2578 0.984 . S
N2575 H2579 0.985 . S
H2576 N2571 0.984 . S
H2577 N2571 0.985 . S
H2578 N2575 0.984 . S
H2579 N2575 0.985 . S
H2580 N2574 0.984 . S
H2581 N2574 0.984 . S
H2582 N2570 0.984 . S
H2583 N2570 0.985 . S
C2584 C2585 1.363 . S
C2584 C2590 1.379 . S
C2584 N2592 1.356 . S
C2585 C2584 1.363 . S
C2585 C2591 1.363 . S
C2586 C2587 1.363 . S
C2586 C2591 1.379 . S
C2586 N2593 1.356 . S
C2587 C2586 1.363 . S
C2587 C2590 1.363 . S
N2588 C2590 1.356 . S
N2588 H2600 0.984 . S
N2588 H2601 0.985 . S
N2589 C2591 1.356 . S
N2589 H2594 0.984 . S
N2589 H2595 0.985 . S
C2590 C2584 1.379 . S
C2590 C2587 1.363 . S
C2590 N2588 1.356 . S
C2591 C2585 1.363 . S
C2591 C2586 1.379 . S
C2591 N2589 1.356 . S
N2592 C2584 1.356 . S
N2592 H2598 0.984 . S
N2592 H2599 0.984 . S
N2593 C2586 1.356 . S
N2593 H2596 0.984 . S
N2593 H2597 0.985 . S
H2594 N2589 0.984 . S
H2595 N2589 0.985 . S
H2596 N2593 0.984 . S
H2597 N2593 0.985 . S
H2598 N2592 0.984 . S
H2599 N2592 0.984 . S
H2600 N2588 0.984 . S
H2601 N2588 0.985 . S
C2602 C2603 1.363 . S
C2602 C2608 1.379 . S
C2602 N2610 1.356 . S
C2603 C2602 1.363 . S
C2603 C2609 1.363 . S
C2604 C2605 1.363 . S
C2604 C2609 1.379 . S
C2604 N2611 1.356 . S
C2605 C2604 1.363 . S
C2605 C2608 1.363 . S
N2606 C2608 1.356 . S
N2606 H2618 0.984 . S
N2606 H2619 0.985 . S
N2607 C2609 1.356 . S
N2607 H2612 0.984 . S
N2607 H2613 0.985 . S
C2608 C2602 1.379 . S
C2608 C2605 1.363 . S
C2608 N2606 1.356 . S
C2609 C2603 1.363 . S
C2609 C2604 1.379 . S
C2609 N2607 1.356 . S
N2610 C2602 1.356 . S
N2610 H2616 0.984 . S
N2610 H2617 0.984 . S
N2611 C2604 1.356 . S
N2611 H2614 0.984 . S
N2611 H2615 0.985 . S
H2612 N2607 0.984 . S
H2613 N2607 0.985 . S
H2614 N2611 0.984 . S
H2615 N2611 0.985 . S
H2616 N2610 0.984 . S
H2617 N2610 0.984 . S
H2618 N2606 0.984 . S
H2619 N2606 0.985 . S
C2620 C2621 1.363 . S
C2620 C2626 1.379 . S
C2620 N2628 1.356 . S
C2621 C2620 1.363 . S
C2621 C2627 1.363 . S
C2622 C2623 1.363 . S
C2622 C2627 1.379 . S
C2622 N2629 1.356 . S
C2623 C2622 1.363 . S
C2623 C2626 1.363 . S
N2624 C2626 1.356 . S
N2624 H2636 0.984 . S
N2624 H2637 0.985 . S
N2625 C2627 1.356 . S
N2625 H2630 0.984 . S
N2625 H2631 0.985 . S
C2626 C2620 1.379 . S
C2626 C2623 1.363 . S
C2626 N2624 1.356 . S
C2627 C2621 1.363 . S
C2627 C2622 1.379 . S
C2627 N2625 1.356 . S
N2628 C2620 1.356 . S
N2628 H2634 0.984 . S
N2628 H2635 0.984 . S
N2629 C2622 1.356 . S
N2629 H2632 0.984 . S
N2629 H2633 0.985 . S
H2630 N2625 0.984 . S
H2631 N2625 0.985 . S
H2632 N2629 0.984 . S
H2633 N2629 0.985 . S
H2634 N2628 0.984 . S
H2635 N2628 0.984 . S
H2636 N2624 0.984 . S
H2637 N2624 0.985 . S
C2638 C2639 1.363 . S
C2638 C2644 1.379 . S
C2638 N2646 1.356 . S
C2639 C2638 1.363 . S
C2639 C2645 1.363 . S
C2640 C2641 1.363 . S
C2640 C2645 1.379 . S
C2640 N2647 1.356 . S
C2641 C2640 1.363 . S
C2641 C2644 1.363 . S
N2642 C2644 1.356 . S
N2642 H2654 0.984 . S
N2642 H2655 0.985 . S
N2643 C2645 1.356 . S
N2643 H2648 0.984 . S
N2643 H2649 0.985 . S
C2644 C2638 1.379 . S
C2644 C2641 1.363 . S
C2644 N2642 1.356 . S
C2645 C2639 1.363 . S
C2645 C2640 1.379 . S
C2645 N2643 1.356 . S
N2646 C2638 1.356 . S
N2646 H2652 0.984 . S
N2646 H2653 0.984 . S
N2647 C2640 1.356 . S
N2647 H2650 0.984 . S
N2647 H2651 0.985 . S
H2648 N2643 0.984 . S
H2649 N2643 0.985 . S
H2650 N2647 0.984 . S
H2651 N2647 0.985 . S
H2652 N2646 0.984 . S
H2653 N2646 0.984 . S
H2654 N2642 0.984 . S
H2655 N2642 0.985 . S
C2656 C2657 1.363 . S
C2656 C2662 1.379 . S
C2656 N2664 1.356 . S
C2657 C2656 1.363 . S
C2657 C2663 1.363 . S
C2658 C2659 1.363 . S
C2658 C2663 1.379 . S
C2658 N2665 1.356 . S
C2659 C2658 1.363 . S
C2659 C2662 1.363 . S
N2660 C2662 1.356 . S
N2660 H2672 0.984 . S
N2660 H2673 0.985 . S
N2661 C2663 1.356 . S
N2661 H2666 0.984 . S
N2661 H2667 0.985 . S
C2662 C2656 1.379 . S
C2662 C2659 1.363 . S
C2662 N2660 1.356 . S
C2663 C2657 1.363 . S
C2663 C2658 1.379 . S
C2663 N2661 1.356 . S
N2664 C2656 1.356 . S
N2664 H2670 0.984 . S
N2664 H2671 0.984 . S
N2665 C2658 1.356 . S
N2665 H2668 0.984 . S
N2665 H2669 0.985 . S
H2666 N2661 0.984 . S
H2667 N2661 0.985 . S
H2668 N2665 0.984 . S
H2669 N2665 0.985 . S
H2670 N2664 0.984 . S
H2671 N2664 0.984 . S
H2672 N2660 0.984 . S
H2673 N2660 0.985 . S
C2674 C2675 1.363 . S
C2674 C2680 1.379 . S
C2674 N2682 1.356 . S
C2675 C2674 1.363 . S
C2675 C2681 1.363 . S
C2676 C2677 1.363 . S
C2676 C2681 1.379 . S
C2676 N2683 1.356 . S
C2677 C2676 1.363 . S
C2677 C2680 1.363 . S
N2678 C2680 1.356 . S
N2678 H2690 0.984 . S
N2678 H2691 0.985 . S
N2679 C2681 1.356 . S
N2679 H2684 0.984 . S
N2679 H2685 0.985 . S
C2680 C2674 1.379 . S
C2680 C2677 1.363 . S
C2680 N2678 1.356 . S
C2681 C2675 1.363 . S
C2681 C2676 1.379 . S
C2681 N2679 1.356 . S
N2682 C2674 1.356 . S
N2682 H2688 0.984 . S
N2682 H2689 0.984 . S
N2683 C2676 1.356 . S
N2683 H2686 0.984 . S
N2683 H2687 0.985 . S
H2684 N2679 0.984 . S
H2685 N2679 0.985 . S
H2686 N2683 0.984 . S
H2687 N2683 0.985 . S
H2688 N2682 0.984 . S
H2689 N2682 0.984 . S
H2690 N2678 0.984 . S
H2691 N2678 0.985 . S
C2692 C2693 1.363 . S
C2692 C2698 1.379 . S
C2692 N2700 1.356 . S
C2693 C2692 1.363 . S
C2693 C2699 1.363 . S
C2694 C2695 1.363 . S
C2694 C2699 1.379 . S
C2694 N2701 1.356 . S
C2695 C2694 1.363 . S
C2695 C2698 1.363 . S
N2696 C2698 1.356 . S
N2696 H2708 0.984 . S
N2696 H2709 0.985 . S
N2697 C2699 1.356 . S
N2697 H2702 0.984 . S
N2697 H2703 0.985 . S
C2698 C2692 1.379 . S
C2698 C2695 1.363 . S
C2698 N2696 1.356 . S
C2699 C2693 1.363 . S
C2699 C2694 1.379 . S
C2699 N2697 1.356 . S
N2700 C2692 1.356 . S
N2700 H2706 0.984 . S
N2700 H2707 0.984 . S
N2701 C2694 1.356 . S
N2701 H2704 0.984 . S
N2701 H2705 0.985 . S
H2702 N2697 0.984 . S
H2703 N2697 0.985 . S
H2704 N2701 0.984 . S
H2705 N2701 0.985 . S
H2706 N2700 0.984 . S
H2707 N2700 0.984 . S
H2708 N2696 0.984 . S
H2709 N2696 0.985 . S
C2710 C2711 1.363 . S
C2710 C2716 1.379 . S
C2710 N2718 1.356 . S
C2711 C2710 1.363 . S
C2711 C2717 1.363 . S
C2712 C2713 1.363 . S
C2712 C2717 1.379 . S
C2712 N2719 1.356 . S
C2713 C2712 1.363 . S
C2713 C2716 1.363 . S
N2714 C2716 1.356 . S
N2714 H2726 0.984 . S
N2714 H2727 0.985 . S
N2715 C2717 1.356 . S
N2715 H2720 0.984 . S
N2715 H2721 0.985 . S
C2716 C2710 1.379 . S
C2716 C2713 1.363 . S
C2716 N2714 1.356 . S
C2717 C2711 1.363 . S
C2717 C2712 1.379 . S
C2717 N2715 1.356 . S
N2718 C2710 1.356 . S
N2718 H2724 0.984 . S
N2718 H2725 0.984 . S
N2719 C2712 1.356 . S
N2719 H2722 0.984 . S
N2719 H2723 0.985 . S
H2720 N2715 0.984 . S
H2721 N2715 0.985 . S
H2722 N2719 0.984 . S
H2723 N2719 0.985 . S
H2724 N2718 0.984 . S
H2725 N2718 0.984 . S
H2726 N2714 0.984 . S
H2727 N2714 0.985 . S
C2728 C2729 1.363 . S
C2728 C2734 1.379 . S
C2728 N2736 1.356 . S
C2729 C2728 1.363 . S
C2729 C2735 1.363 . S
C2730 C2731 1.363 . S
C2730 C2735 1.379 . S
C2730 N2737 1.356 . S
C2731 C2730 1.363 . S
C2731 C2734 1.363 . S
N2732 C2734 1.356 . S
N2732 H2744 0.984 . S
N2732 H2745 0.985 . S
N2733 C2735 1.356 . S
N2733 H2738 0.984 . S
N2733 H2739 0.985 . S
C2734 C2728 1.379 . S
C2734 C2731 1.363 . S
C2734 N2732 1.356 . S
C2735 C2729 1.363 . S
C2735 C2730 1.379 . S
C2735 N2733 1.356 . S
N2736 C2728 1.356 . S
N2736 H2742 0.984 . S
N2736 H2743 0.984 . S
N2737 C2730 1.356 . S
N2737 H2740 0.984 . S
N2737 H2741 0.985 . S
H2738 N2733 0.984 . S
H2739 N2733 0.985 . S
H2740 N2737 0.984 . S
H2741 N2737 0.985 . S
H2742 N2736 0.984 . S
H2743 N2736 0.984 . S
H2744 N2732 0.984 . S
H2745 N2732 0.985 . S
C2746 C2747 1.363 . S
C2746 C2752 1.379 . S
C2746 N2754 1.356 . S
C2747 C2746 1.363 . S
C2747 C2753 1.363 . S
C2748 C2749 1.363 . S
C2748 C2753 1.379 . S
C2748 N2755 1.356 . S
C2749 C2748 1.363 . S
C2749 C2752 1.363 . S
N2750 C2752 1.356 . S
N2750 H2762 0.984 . S
N2750 H2763 0.985 . S
N2751 C2753 1.356 . S
N2751 H2756 0.984 . S
N2751 H2757 0.985 . S
C2752 C2746 1.379 . S
C2752 C2749 1.363 . S
C2752 N2750 1.356 . S
C2753 C2747 1.363 . S
C2753 C2748 1.379 . S
C2753 N2751 1.356 . S
N2754 C2746 1.356 . S
N2754 H2760 0.984 . S
N2754 H2761 0.984 . S
N2755 C2748 1.356 . S
N2755 H2758 0.984 . S
N2755 H2759 0.985 . S
H2756 N2751 0.984 . S
H2757 N2751 0.985 . S
H2758 N2755 0.984 . S
H2759 N2755 0.985 . S
H2760 N2754 0.984 . S
H2761 N2754 0.984 . S
H2762 N2750 0.984 . S
H2763 N2750 0.985 . S
C2764 C2765 1.363 . S
C2764 C2770 1.379 . S
C2764 N2772 1.356 . S
C2765 C2764 1.363 . S
C2765 C2771 1.363 . S
C2766 C2767 1.363 . S
C2766 C2771 1.379 . S
C2766 N2773 1.356 . S
C2767 C2766 1.363 . S
C2767 C2770 1.363 . S
N2768 C2770 1.356 . S
N2768 H2780 0.984 . S
N2768 H2781 0.985 . S
N2769 C2771 1.356 . S
N2769 H2774 0.984 . S
N2769 H2775 0.985 . S
C2770 C2764 1.379 . S
C2770 C2767 1.363 . S
C2770 N2768 1.356 . S
C2771 C2765 1.363 . S
C2771 C2766 1.379 . S
C2771 N2769 1.356 . S
N2772 C2764 1.356 . S
N2772 H2778 0.984 . S
N2772 H2779 0.984 . S
N2773 C2766 1.356 . S
N2773 H2776 0.984 . S
N2773 H2777 0.985 . S
H2774 N2769 0.984 . S
H2775 N2769 0.985 . S
H2776 N2773 0.984 . S
H2777 N2773 0.985 . S
H2778 N2772 0.984 . S
H2779 N2772 0.984 . S
H2780 N2768 0.984 . S
H2781 N2768 0.985 . S
C2782 C2783 1.363 . S
C2782 C2788 1.379 . S
C2782 N2790 1.356 . S
C2783 C2782 1.363 . S
C2783 C2789 1.363 . S
C2784 C2785 1.363 . S
C2784 C2789 1.379 . S
C2784 N2791 1.356 . S
C2785 C2784 1.363 . S
C2785 C2788 1.363 . S
N2786 C2788 1.356 . S
N2786 H2798 0.984 . S
N2786 H2799 0.985 . S
N2787 C2789 1.356 . S
N2787 H2792 0.984 . S
N2787 H2793 0.985 . S
C2788 C2782 1.379 . S
C2788 C2785 1.363 . S
C2788 N2786 1.356 . S
C2789 C2783 1.363 . S
C2789 C2784 1.379 . S
C2789 N2787 1.356 . S
N2790 C2782 1.356 . S
N2790 H2796 0.984 . S
N2790 H2797 0.984 . S
N2791 C2784 1.356 . S
N2791 H2794 0.984 . S
N2791 H2795 0.985 . S
H2792 N2787 0.984 . S
H2793 N2787 0.985 . S
H2794 N2791 0.984 . S
H2795 N2791 0.985 . S
H2796 N2790 0.984 . S
H2797 N2790 0.984 . S
H2798 N2786 0.984 . S
H2799 N2786 0.985 . S
C2800 C2801 1.363 . S
C2800 C2806 1.379 . S
C2800 N2808 1.356 . S
C2801 C2800 1.363 . S
C2801 C2807 1.363 . S
C2802 C2803 1.363 . S
C2802 C2807 1.379 . S
C2802 N2809 1.356 . S
C2803 C2802 1.363 . S
C2803 C2806 1.363 . S
N2804 C2806 1.356 . S
N2804 H2816 0.984 . S
N2804 H2817 0.985 . S
N2805 C2807 1.356 . S
N2805 H2810 0.984 . S
N2805 H2811 0.985 . S
C2806 C2800 1.379 . S
C2806 C2803 1.363 . S
C2806 N2804 1.356 . S
C2807 C2801 1.363 . S
C2807 C2802 1.379 . S
C2807 N2805 1.356 . S
N2808 C2800 1.356 . S
N2808 H2814 0.984 . S
N2808 H2815 0.984 . S
N2809 C2802 1.356 . S
N2809 H2812 0.984 . S
N2809 H2813 0.985 . S
H2810 N2805 0.984 . S
H2811 N2805 0.985 . S
H2812 N2809 0.984 . S
H2813 N2809 0.985 . S
H2814 N2808 0.984 . S
H2815 N2808 0.984 . S
H2816 N2804 0.984 . S
H2817 N2804 0.985 . S
C2818 C2819 1.363 . S
C2818 C2824 1.379 . S
C2818 N2826 1.356 . S
C2819 C2818 1.363 . S
C2819 C2825 1.363 . S
C2820 C2821 1.363 . S
C2820 C2825 1.379 . S
C2820 N2827 1.356 . S
C2821 C2820 1.363 . S
C2821 C2824 1.363 . S
N2822 C2824 1.356 . S
N2822 H2834 0.996 . S
N2822 H2835 1.004 . S
N2823 C2825 1.356 . S
N2823 H2828 0.984 . S
N2823 H2829 0.985 . S
C2824 C2818 1.379 . S
C2824 C2821 1.363 . S
C2824 N2822 1.356 . S
C2825 C2819 1.363 . S
C2825 C2820 1.379 . S
C2825 N2823 1.356 . S
N2826 C2818 1.356 . S
N2826 H2832 0.984 . S
N2826 H2833 0.984 . S
N2827 C2820 1.356 . S
N2827 H2830 0.984 . S
N2827 H2831 0.985 . S
H2828 N2823 0.984 . S
H2829 N2823 0.985 . S
H2830 N2827 0.984 . S
H2831 N2827 0.985 . S
H2832 N2826 0.984 . S
H2833 N2826 0.984 . S
H2834 N2822 0.996 . S
H2835 N2822 1.004 . S
C2836 C2837 1.363 . S
C2836 C2842 1.379 . S
C2836 N2844 1.356 . S
C2837 C2836 1.363 . S
C2837 C2843 1.363 . S
C2838 C2839 1.363 . S
C2838 C2843 1.379 . S
C2838 N2845 1.356 . S
C2839 C2838 1.363 . S
C2839 C2842 1.363 . S
N2840 C2842 1.356 . S
N2840 H2852 0.984 . S
N2840 H2853 0.985 . S
N2841 C2843 1.356 . S
N2841 H2846 0.984 . S
N2841 H2847 0.985 . S
C2842 C2836 1.379 . S
C2842 C2839 1.363 . S
C2842 N2840 1.356 . S
C2843 C2837 1.363 . S
C2843 C2838 1.379 . S
C2843 N2841 1.356 . S
N2844 C2836 1.356 . S
N2844 H2850 0.984 . S
N2844 H2851 0.984 . S
N2845 C2838 1.356 . S
N2845 H2848 0.984 . S
N2845 H2849 0.985 . S
H2846 N2841 0.984 . S
H2847 N2841 0.985 . S
H2848 N2845 0.984 . S
H2849 N2845 0.985 . S
H2850 N2844 0.984 . S
H2851 N2844 0.984 . S
H2852 N2840 0.984 . S
H2853 N2840 0.985 . S
C2854 C2855 1.363 . S
C2854 C2860 1.379 . S
C2854 N2862 1.356 . S
C2855 C2854 1.363 . S
C2855 C2861 1.363 . S
C2856 C2857 1.363 . S
C2856 C2861 1.379 . S
C2856 N2863 1.356 . S
C2857 C2856 1.363 . S
C2857 C2860 1.363 . S
N2858 C2860 1.356 . S
N2858 H2870 0.984 . S
N2858 H2871 0.985 . S
N2859 C2861 1.356 . S
N2859 H2864 0.984 . S
N2859 H2865 0.985 . S
C2860 C2854 1.379 . S
C2860 C2857 1.363 . S
C2860 N2858 1.356 . S
C2861 C2855 1.363 . S
C2861 C2856 1.379 . S
C2861 N2859 1.356 . S
N2862 C2854 1.356 . S
N2862 H2868 0.984 . S
N2862 H2869 0.984 . S
N2863 C2856 1.356 . S
N2863 H2866 0.984 . S
N2863 H2867 0.985 . S
H2864 N2859 0.984 . S
H2865 N2859 0.985 . S
H2866 N2863 0.984 . S
H2867 N2863 0.985 . S
H2868 N2862 0.984 . S
H2869 N2862 0.984 . S
H2870 N2858 0.984 . S
H2871 N2858 0.985 . S
C2872 C2873 1.363 . S
C2872 C2878 1.379 . S
C2872 N2880 1.356 . S
C2873 C2872 1.363 . S
C2873 C2879 1.363 . S
C2874 C2875 1.363 . S
C2874 C2879 1.379 . S
C2874 N2881 1.356 . S
C2875 C2874 1.363 . S
C2875 C2878 1.363 . S
N2876 C2878 1.356 . S
N2876 H2888 0.984 . S
N2876 H2889 0.985 . S
N2877 C2879 1.356 . S
N2877 H2882 0.984 . S
N2877 H2883 0.985 . S
C2878 C2872 1.379 . S
C2878 C2875 1.363 . S
C2878 N2876 1.356 . S
C2879 C2873 1.363 . S
C2879 C2874 1.379 . S
C2879 N2877 1.356 . S
N2880 C2872 1.356 . S
N2880 H2886 0.984 . S
N2880 H2887 0.984 . S
N2881 C2874 1.356 . S
N2881 H2884 0.984 . S
N2881 H2885 0.985 . S
H2882 N2877 0.984 . S
H2883 N2877 0.985 . S
H2884 N2881 0.984 . S
H2885 N2881 0.985 . S
H2886 N2880 0.984 . S
H2887 N2880 0.984 . S
H2888 N2876 0.984 . S
H2889 N2876 0.985 . S
C2890 C2891 1.363 . S
C2890 C2896 1.379 . S
C2890 N2898 1.356 . S
C2891 C2890 1.363 . S
C2891 C2897 1.363 . S
C2892 C2893 1.363 . S
C2892 C2897 1.379 . S
C2892 N2899 1.356 . S
C2893 C2892 1.363 . S
C2893 C2896 1.363 . S
N2894 C2896 1.356 . S
N2894 H2906 0.984 . S
N2894 H2907 0.985 . S
N2895 C2897 1.356 . S
N2895 H2900 0.984 . S
N2895 H2901 0.985 . S
C2896 C2890 1.379 . S
C2896 C2893 1.363 . S
C2896 N2894 1.356 . S
C2897 C2891 1.363 . S
C2897 C2892 1.379 . S
C2897 N2895 1.356 . S
N2898 C2890 1.356 . S
N2898 H2904 0.984 . S
N2898 H2905 0.984 . S
N2899 C2892 1.356 . S
N2899 H2902 0.984 . S
N2899 H2903 0.985 . S
H2900 N2895 0.984 . S
H2901 N2895 0.985 . S
H2902 N2899 0.984 . S
H2903 N2899 0.985 . S
H2904 N2898 0.984 . S
H2905 N2898 0.984 . S
H2906 N2894 0.984 . S
H2907 N2894 0.985 . S
C2908 C2909 1.363 . S
C2908 C2914 1.379 . S
C2908 N2916 1.356 . S
C2909 C2908 1.363 . S
C2909 C2915 1.363 . S
C2910 C2911 1.363 . S
C2910 C2915 1.379 . S
C2910 N2917 1.356 . S
C2911 C2910 1.363 . S
C2911 C2914 1.363 . S
N2912 C2914 1.356 . S
N2912 H2924 0.984 . S
N2912 H2925 0.985 . S
N2913 C2915 1.356 . S
N2913 H2918 0.984 . S
N2913 H2919 0.985 . S
C2914 C2908 1.379 . S
C2914 C2911 1.363 . S
C2914 N2912 1.356 . S
C2915 C2909 1.363 . S
C2915 C2910 1.379 . S
C2915 N2913 1.356 . S
N2916 C2908 1.356 . S
N2916 H2922 0.984 . S
N2916 H2923 0.984 . S
N2917 C2910 1.356 . S
N2917 H2920 0.984 . S
N2917 H2921 0.985 . S
H2918 N2913 0.984 . S
H2919 N2913 0.985 . S
H2920 N2917 0.984 . S
H2921 N2917 0.985 . S
H2922 N2916 0.984 . S
H2923 N2916 0.984 . S
H2924 N2912 0.984 . S
H2925 N2912 0.985 . S
C2926 C2927 1.363 . S
C2926 C2932 1.379 . S
C2926 N2934 1.356 . S
C2927 C2926 1.363 . S
C2927 C2933 1.363 . S
C2928 C2929 1.363 . S
C2928 C2933 1.379 . S
C2928 N2935 1.356 . S
C2929 C2928 1.363 . S
C2929 C2932 1.363 . S
N2930 C2932 1.356 . S
N2930 H2942 0.984 . S
N2930 H2943 0.985 . S
N2931 C2933 1.356 . S
N2931 H2936 0.984 . S
N2931 H2937 0.985 . S
C2932 C2926 1.379 . S
C2932 C2929 1.363 . S
C2932 N2930 1.356 . S
C2933 C2927 1.363 . S
C2933 C2928 1.379 . S
C2933 N2931 1.356 . S
N2934 C2926 1.356 . S
N2934 H2940 0.984 . S
N2934 H2941 0.984 . S
N2935 C2928 1.356 . S
N2935 H2938 0.984 . S
N2935 H2939 0.985 . S
H2936 N2931 0.984 . S
H2937 N2931 0.985 . S
H2938 N2935 0.984 . S
H2939 N2935 0.985 . S
H2940 N2934 0.984 . S
H2941 N2934 0.984 . S
H2942 N2930 0.984 . S
H2943 N2930 0.985 . S
C2944 C2945 1.363 . S
C2944 C2950 1.379 . S
C2944 N2952 1.356 . S
C2945 C2944 1.363 . S
C2945 C2951 1.363 . S
C2946 C2947 1.363 . S
C2946 C2951 1.379 . S
C2946 N2953 1.356 . S
C2947 C2946 1.363 . S
C2947 C2950 1.363 . S
N2948 C2950 1.356 . S
N2948 H2960 0.984 . S
N2948 H2961 0.985 . S
N2949 C2951 1.356 . S
N2949 H2954 0.984 . S
N2949 H2955 0.985 . S
C2950 C2944 1.379 . S
C2950 C2947 1.363 . S
C2950 N2948 1.356 . S
C2951 C2945 1.363 . S
C2951 C2946 1.379 . S
C2951 N2949 1.356 . S
N2952 C2944 1.356 . S
N2952 H2958 0.984 . S
N2952 H2959 0.984 . S
N2953 C2946 1.356 . S
N2953 H2956 0.984 . S
N2953 H2957 0.985 . S
H2954 N2949 0.984 . S
H2955 N2949 0.985 . S
H2956 N2953 0.984 . S
H2957 N2953 0.985 . S
H2958 N2952 0.984 . S
H2959 N2952 0.984 . S
H2960 N2948 0.984 . S
H2961 N2948 0.985 . S
C2962 C2963 1.363 . S
C2962 C2968 1.379 . S
C2962 N2970 1.356 . S
C2963 C2962 1.363 . S
C2963 C2969 1.363 . S
C2964 C2965 1.363 . S
C2964 C2969 1.379 . S
C2964 N2971 1.356 . S
C2965 C2964 1.363 . S
C2965 C2968 1.363 . S
N2966 C2968 1.356 . S
N2966 H2978 0.984 . S
N2966 H2979 0.985 . S
N2967 C2969 1.356 . S
N2967 H2972 0.984 . S
N2967 H2973 0.985 . S
C2968 C2962 1.379 . S
C2968 C2965 1.363 . S
C2968 N2966 1.356 . S
C2969 C2963 1.363 . S
C2969 C2964 1.379 . S
C2969 N2967 1.356 . S
N2970 C2962 1.356 . S
N2970 H2976 0.984 . S
N2970 H2977 0.984 . S
N2971 C2964 1.356 . S
N2971 H2974 0.984 . S
N2971 H2975 0.985 . S
H2972 N2967 0.984 . S
H2973 N2967 0.985 . S
H2974 N2971 0.984 . S
H2975 N2971 0.985 . S
H2976 N2970 0.984 . S
H2977 N2970 0.984 . S
H2978 N2966 0.984 . S
H2979 N2966 0.985 . S
C2980 C2981 1.363 . S
C2980 C2986 1.379 . S
C2980 N2988 1.356 . S
C2981 C2980 1.363 . S
C2981 C2987 1.363 . S
C2982 C2983 1.363 . S
C2982 C2987 1.379 . S
C2982 N2989 1.356 . S
C2983 C2982 1.363 . S
C2983 C2986 1.363 . S
N2984 C2986 1.356 . S
N2984 H2996 0.984 . S
N2984 H2997 0.985 . S
N2985 C2987 1.356 . S
N2985 H2990 0.984 . S
N2985 H2991 0.985 . S
C2986 C2980 1.379 . S
C2986 C2983 1.363 . S
C2986 N2984 1.356 . S
C2987 C2981 1.363 . S
C2987 C2982 1.379 . S
C2987 N2985 1.356 . S
N2988 C2980 1.356 . S
N2988 H2994 0.984 . S
N2988 H2995 0.984 . S
N2989 C2982 1.356 . S
N2989 H2992 0.984 . S
N2989 H2993 0.985 . S
H2990 N2985 0.984 . S
H2991 N2985 0.985 . S
H2992 N2989 0.984 . S
H2993 N2989 0.985 . S
H2994 N2988 0.984 . S
H2995 N2988 0.984 . S
H2996 N2984 0.984 . S
H2997 N2984 0.985 . S
C2998 C2999 1.363 . S
C2998 C3004 1.379 . S
C2998 N3006 1.356 . S
C2999 C2998 1.363 . S
C2999 C3005 1.363 . S
C3000 C3001 1.363 . S
C3000 C3005 1.379 . S
C3000 N3007 1.356 . S
C3001 C3000 1.363 . S
C3001 C3004 1.363 . S
N3002 C3004 1.356 . S
N3002 H3014 0.984 . S
N3002 H3015 0.985 . S
N3003 C3005 1.356 . S
N3003 H3008 0.984 . S
N3003 H3009 0.985 . S
C3004 C2998 1.379 . S
C3004 C3001 1.363 . S
C3004 N3002 1.356 . S
C3005 C2999 1.363 . S
C3005 C3000 1.379 . S
C3005 N3003 1.356 . S
N3006 C2998 1.356 . S
N3006 H3012 0.984 . S
N3006 H3013 0.984 . S
N3007 C3000 1.356 . S
N3007 H3010 0.984 . S
N3007 H3011 0.985 . S
H3008 N3003 0.984 . S
H3009 N3003 0.985 . S
H3010 N3007 0.984 . S
H3011 N3007 0.985 . S
H3012 N3006 0.984 . S
H3013 N3006 0.984 . S
H3014 N3002 0.984 . S
H3015 N3002 0.985 . S
C3016 C3017 1.363 . S
C3016 C3022 1.379 . S
C3016 N3024 1.356 . S
C3017 C3016 1.363 . S
C3017 C3023 1.363 . S
C3018 C3019 1.363 . S
C3018 C3023 1.379 . S
C3018 N3025 1.356 . S
C3019 C3018 1.363 . S
C3019 C3022 1.363 . S
N3020 C3022 1.356 . S
N3020 H3032 0.984 . S
N3020 H3033 0.985 . S
N3021 C3023 1.356 . S
N3021 H3026 0.984 . S
N3021 H3027 0.985 . S
C3022 C3016 1.379 . S
C3022 C3019 1.363 . S
C3022 N3020 1.356 . S
C3023 C3017 1.363 . S
C3023 C3018 1.379 . S
C3023 N3021 1.356 . S
N3024 C3016 1.356 . S
N3024 H3030 0.984 . S
N3024 H3031 0.984 . S
N3025 C3018 1.356 . S
N3025 H3028 0.984 . S
N3025 H3029 0.985 . S
H3026 N3021 0.984 . S
H3027 N3021 0.985 . S
H3028 N3025 0.984 . S
H3029 N3025 0.985 . S
H3030 N3024 0.984 . S
H3031 N3024 0.984 . S
H3032 N3020 0.984 . S
H3033 N3020 0.985 . S
C3034 C3035 1.363 . S
C3034 C3040 1.379 . S
C3034 N3042 1.356 . S
C3035 C3034 1.363 . S
C3035 C3041 1.363 . S
C3036 C3037 1.363 . S
C3036 C3041 1.379 . S
C3036 N3043 1.356 . S
C3037 C3036 1.363 . S
C3037 C3040 1.363 . S
N3038 C3040 1.356 . S
N3038 H3050 0.984 . S
N3038 H3051 0.985 . S
N3039 C3041 1.356 . S
N3039 H3044 0.984 . S
N3039 H3045 0.985 . S
C3040 C3034 1.379 . S
C3040 C3037 1.363 . S
C3040 N3038 1.356 . S
C3041 C3035 1.363 . S
C3041 C3036 1.379 . S
C3041 N3039 1.356 . S
N3042 C3034 1.356 . S
N3042 H3048 0.984 . S
N3042 H3049 0.984 . S
N3043 C3036 1.356 . S
N3043 H3046 0.984 . S
N3043 H3047 0.985 . S
H3044 N3039 0.984 . S
H3045 N3039 0.985 . S
H3046 N3043 0.984 . S
H3047 N3043 0.985 . S
H3048 N3042 0.984 . S
H3049 N3042 0.984 . S
H3050 N3038 0.984 . S
H3051 N3038 0.985 . S
C3052 C3053 1.363 . S
C3052 C3058 1.379 . S
C3052 N3060 1.356 . S
C3053 C3052 1.363 . S
C3053 C3059 1.363 . S
C3054 C3055 1.363 . S
C3054 C3059 1.379 . S
C3054 N3061 1.356 . S
C3055 C3054 1.363 . S
C3055 C3058 1.363 . S
N3056 C3058 1.356 . S
N3056 H3068 0.984 . S
N3056 H3069 0.985 . S
N3057 C3059 1.356 . S
N3057 H3062 0.984 . S
N3057 H3063 0.985 . S
C3058 C3052 1.379 . S
C3058 C3055 1.363 . S
C3058 N3056 1.356 . S
C3059 C3053 1.363 . S
C3059 C3054 1.379 . S
C3059 N3057 1.356 . S
N3060 C3052 1.356 . S
N3060 H3066 0.984 . S
N3060 H3067 0.984 . S
N3061 C3054 1.356 . S
N3061 H3064 0.984 . S
N3061 H3065 0.985 . S
H3062 N3057 0.984 . S
H3063 N3057 0.985 . S
H3064 N3061 0.984 . S
H3065 N3061 0.985 . S
H3066 N3060 0.984 . S
H3067 N3060 0.984 . S
H3068 N3056 0.984 . S
H3069 N3056 0.985 . S
C3070 C3071 1.363 . S
C3070 C3076 1.379 . S
C3070 N3078 1.356 . S
C3071 C3070 1.363 . S
C3071 C3077 1.363 . S
C3072 C3073 1.363 . S
C3072 C3077 1.379 . S
C3072 N3079 1.356 . S
C3073 C3072 1.363 . S
C3073 C3076 1.363 . S
N3074 C3076 1.356 . S
N3074 H3086 0.984 . S
N3074 H3087 0.985 . S
N3075 C3077 1.356 . S
N3075 H3080 0.984 . S
N3075 H3081 0.985 . S
C3076 C3070 1.379 . S
C3076 C3073 1.363 . S
C3076 N3074 1.356 . S
C3077 C3071 1.363 . S
C3077 C3072 1.379 . S
C3077 N3075 1.356 . S
N3078 C3070 1.356 . S
N3078 H3084 0.984 . S
N3078 H3085 0.984 . S
N3079 C3072 1.356 . S
N3079 H3082 0.984 . S
N3079 H3083 0.985 . S
H3080 N3075 0.984 . S
H3081 N3075 0.985 . S
H3082 N3079 0.984 . S
H3083 N3079 0.985 . S
H3084 N3078 0.984 . S
H3085 N3078 0.984 . S
H3086 N3074 0.984 . S
H3087 N3074 0.985 . S
C3088 C3089 1.363 . S
C3088 C3094 1.379 . S
C3088 N3096 1.356 . S
C3089 C3088 1.363 . S
C3089 C3095 1.363 . S
C3090 C3091 1.363 . S
C3090 C3095 1.379 . S
C3090 N3097 1.356 . S
C3091 C3090 1.363 . S
C3091 C3094 1.363 . S
N3092 C3094 1.356 . S
N3092 H3104 0.984 . S
N3092 H3105 0.985 . S
N3093 C3095 1.356 . S
N3093 H3098 0.984 . S
N3093 H3099 0.985 . S
C3094 C3088 1.379 . S
C3094 C3091 1.363 . S
C3094 N3092 1.356 . S
C3095 C3089 1.363 . S
C3095 C3090 1.379 . S
C3095 N3093 1.356 . S
N3096 C3088 1.356 . S
N3096 H3102 0.984 . S
N3096 H3103 0.984 . S
N3097 C3090 1.356 . S
N3097 H3100 0.984 . S
N3097 H3101 0.985 . S
H3098 N3093 0.984 . S
H3099 N3093 0.985 . S
H3100 N3097 0.984 . S
H3101 N3097 0.985 . S
H3102 N3096 0.984 . S
H3103 N3096 0.984 . S
H3104 N3092 0.984 . S
H3105 N3092 0.985 . S
C3106 C3107 1.363 . S
C3106 C3112 1.379 . S
C3106 N3114 1.356 . S
C3107 C3106 1.363 . S
C3107 C3113 1.363 . S
C3108 C3109 1.363 . S
C3108 C3113 1.379 . S
C3108 N3115 1.356 . S
C3109 C3108 1.363 . S
C3109 C3112 1.363 . S
N3110 C3112 1.356 . S
N3110 H3122 0.984 . S
N3110 H3123 0.985 . S
N3111 C3113 1.356 . S
N3111 H3116 0.984 . S
N3111 H3117 0.985 . S
C3112 C3106 1.379 . S
C3112 C3109 1.363 . S
C3112 N3110 1.356 . S
C3113 C3107 1.363 . S
C3113 C3108 1.379 . S
C3113 N3111 1.356 . S
N3114 C3106 1.356 . S
N3114 H3120 0.984 . S
N3114 H3121 0.984 . S
N3115 C3108 1.356 . S
N3115 H3118 0.984 . S
N3115 H3119 0.985 . S
H3116 N3111 0.984 . S
H3117 N3111 0.985 . S
H3118 N3115 0.984 . S
H3119 N3115 0.985 . S
H3120 N3114 0.984 . S
H3121 N3114 0.984 . S
H3122 N3110 0.984 . S
H3123 N3110 0.985 . S
C3124 C3125 1.363 . S
C3124 C3130 1.379 . S
C3124 N3132 1.356 . S
C3125 C3124 1.363 . S
C3125 C3131 1.363 . S
C3126 C3127 1.363 . S
C3126 C3131 1.379 . S
C3126 N3133 1.356 . S
C3127 C3126 1.363 . S
C3127 C3130 1.363 . S
N3128 C3130 1.356 . S
N3128 H3140 0.984 . S
N3128 H3141 0.985 . S
N3129 C3131 1.356 . S
N3129 H3134 0.984 . S
N3129 H3135 0.985 . S
C3130 C3124 1.379 . S
C3130 C3127 1.363 . S
C3130 N3128 1.356 . S
C3131 C3125 1.363 . S
C3131 C3126 1.379 . S
C3131 N3129 1.356 . S
N3132 C3124 1.356 . S
N3132 H3138 0.984 . S
N3132 H3139 0.984 . S
N3133 C3126 1.356 . S
N3133 H3136 0.984 . S
N3133 H3137 0.985 . S
H3134 N3129 0.984 . S
H3135 N3129 0.985 . S
H3136 N3133 0.984 . S
H3137 N3133 0.985 . S
H3138 N3132 0.984 . S
H3139 N3132 0.984 . S
H3140 N3128 0.984 . S
H3141 N3128 0.985 . S
C3142 C3143 1.363 . S
C3142 C3148 1.379 . S
C3142 N3150 1.356 . S
C3143 C3142 1.363 . S
C3143 C3149 1.363 . S
C3144 C3145 1.363 . S
C3144 C3149 1.379 . S
C3144 N3151 1.356 . S
C3145 C3144 1.363 . S
C3145 C3148 1.363 . S
N3146 C3148 1.356 . S
N3146 H3158 0.984 . S
N3146 H3159 0.985 . S
N3147 C3149 1.356 . S
N3147 H3152 0.984 . S
N3147 H3153 0.985 . S
C3148 C3142 1.379 . S
C3148 C3145 1.363 . S
C3148 N3146 1.356 . S
C3149 C3143 1.363 . S
C3149 C3144 1.379 . S
C3149 N3147 1.356 . S
N3150 C3142 1.356 . S
N3150 H3156 0.984 . S
N3150 H3157 0.984 . S
N3151 C3144 1.356 . S
N3151 H3154 0.984 . S
N3151 H3155 0.985 . S
H3152 N3147 0.984 . S
H3153 N3147 0.985 . S
H3154 N3151 0.984 . S
H3155 N3151 0.985 . S
H3156 N3150 0.984 . S
H3157 N3150 0.984 . S
H3158 N3146 0.984 . S
H3159 N3146 0.985 . S
C3160 C3161 1.363 . S
C3160 C3166 1.379 . S
C3160 N3168 1.356 . S
C3161 C3160 1.363 . S
C3161 C3167 1.363 . S
C3162 C3163 1.363 . S
C3162 C3167 1.379 . S
C3162 N3169 1.356 . S
C3163 C3162 1.363 . S
C3163 C3166 1.363 . S
N3164 C3166 1.356 . S
N3164 H3176 0.984 . S
N3164 H3177 0.985 . S
N3165 C3167 1.356 . S
N3165 H3170 0.984 . S
N3165 H3171 0.985 . S
C3166 C3160 1.379 . S
C3166 C3163 1.363 . S
C3166 N3164 1.356 . S
C3167 C3161 1.363 . S
C3167 C3162 1.379 . S
C3167 N3165 1.356 . S
N3168 C3160 1.356 . S
N3168 H3174 0.984 . S
N3168 H3175 0.984 . S
N3169 C3162 1.356 . S
N3169 H3172 0.984 . S
N3169 H3173 0.985 . S
H3170 N3165 0.984 . S
H3171 N3165 0.985 . S
H3172 N3169 0.984 . S
H3173 N3169 0.985 . S
H3174 N3168 0.984 . S
H3175 N3168 0.984 . S
H3176 N3164 0.984 . S
H3177 N3164 0.985 . S
C3178 C3179 1.363 . S
C3178 C3184 1.379 . S
C3178 N3186 1.356 . S
C3179 C3178 1.363 . S
C3179 C3185 1.363 . S
C3180 C3181 1.363 . S
C3180 C3185 1.379 . S
C3180 N3187 1.356 . S
C3181 C3180 1.363 . S
C3181 C3184 1.363 . S
N3182 C3184 1.356 . S
N3182 H3194 0.984 . S
N3182 H3195 0.985 . S
N3183 C3185 1.356 . S
N3183 H3188 0.984 . S
N3183 H3189 0.985 . S
C3184 C3178 1.379 . S
C3184 C3181 1.363 . S
C3184 N3182 1.356 . S
C3185 C3179 1.363 . S
C3185 C3180 1.379 . S
C3185 N3183 1.356 . S
N3186 C3178 1.356 . S
N3186 H3192 0.984 . S
N3186 H3193 0.984 . S
N3187 C3180 1.356 . S
N3187 H3190 0.984 . S
N3187 H3191 0.985 . S
H3188 N3183 0.984 . S
H3189 N3183 0.985 . S
H3190 N3187 0.984 . S
H3191 N3187 0.985 . S
H3192 N3186 0.984 . S
H3193 N3186 0.984 . S
H3194 N3182 0.984 . S
H3195 N3182 0.985 . S
C3196 C3197 1.363 . S
C3196 C3202 1.379 . S
C3196 N3204 1.356 . S
C3197 C3196 1.363 . S
C3197 C3203 1.363 . S
C3198 C3199 1.363 . S
C3198 C3203 1.379 . S
C3198 N3205 1.356 . S
C3199 C3198 1.363 . S
C3199 C3202 1.363 . S
N3200 C3202 1.356 . S
N3200 H3212 0.984 . S
N3200 H3213 0.985 . S
N3201 C3203 1.356 . S
N3201 H3206 0.984 . S
N3201 H3207 0.985 . S
C3202 C3196 1.379 . S
C3202 C3199 1.363 . S
C3202 N3200 1.356 . S
C3203 C3197 1.363 . S
C3203 C3198 1.379 . S
C3203 N3201 1.356 . S
N3204 C3196 1.356 . S
N3204 H3210 0.984 . S
N3204 H3211 0.984 . S
N3205 C3198 1.356 . S
N3205 H3208 0.984 . S
N3205 H3209 0.985 . S
H3206 N3201 0.984 . S
H3207 N3201 0.985 . S
H3208 N3205 0.984 . S
H3209 N3205 0.985 . S
H3210 N3204 0.984 . S
H3211 N3204 0.984 . S
H3212 N3200 0.984 . S
H3213 N3200 0.985 . S
C3214 C3215 1.363 . S
C3214 C3220 1.379 . S
C3214 N3222 1.356 . S
C3215 C3214 1.363 . S
C3215 C3221 1.363 . S
C3216 C3217 1.363 . S
C3216 C3221 1.379 . S
C3216 N3223 1.356 . S
C3217 C3216 1.363 . S
C3217 C3220 1.363 . S
N3218 C3220 1.356 . S
N3218 H3230 0.984 . S
N3218 H3231 0.985 . S
N3219 C3221 1.356 . S
N3219 H3224 0.984 . S
N3219 H3225 0.985 . S
C3220 C3214 1.379 . S
C3220 C3217 1.363 . S
C3220 N3218 1.356 . S
C3221 C3215 1.363 . S
C3221 C3216 1.379 . S
C3221 N3219 1.356 . S
N3222 C3214 1.356 . S
N3222 H3228 0.984 . S
N3222 H3229 0.984 . S
N3223 C3216 1.356 . S
N3223 H3226 0.984 . S
N3223 H3227 0.985 . S
H3224 N3219 0.984 . S
H3225 N3219 0.985 . S
H3226 N3223 0.984 . S
H3227 N3223 0.985 . S
H3228 N3222 0.984 . S
H3229 N3222 0.984 . S
H3230 N3218 0.984 . S
H3231 N3218 0.985 . S
C3232 C3233 1.363 . S
C3232 C3238 1.379 . S
C3232 N3240 1.356 . S
C3233 C3232 1.363 . S
C3233 C3239 1.363 . S
C3234 C3235 1.363 . S
C3234 C3239 1.379 . S
C3234 N3241 1.356 . S
C3235 C3234 1.363 . S
C3235 C3238 1.363 . S
N3236 C3238 1.356 . S
N3236 H3248 0.984 . S
N3236 H3249 0.985 . S
N3237 C3239 1.356 . S
N3237 H3242 0.984 . S
N3237 H3243 0.985 . S
C3238 C3232 1.379 . S
C3238 C3235 1.363 . S
C3238 N3236 1.356 . S
C3239 C3233 1.363 . S
C3239 C3234 1.379 . S
C3239 N3237 1.356 . S
N3240 C3232 1.356 . S
N3240 H3246 0.984 . S
N3240 H3247 0.984 . S
N3241 C3234 1.356 . S
N3241 H3244 0.984 . S
N3241 H3245 0.985 . S
H3242 N3237 0.984 . S
H3243 N3237 0.985 . S
H3244 N3241 0.984 . S
H3245 N3241 0.985 . S
H3246 N3240 0.984 . S
H3247 N3240 0.984 . S
H3248 N3236 0.984 . S
H3249 N3236 0.985 . S
C3250 C3251 1.363 . S
C3250 C3256 1.379 . S
C3250 N3258 1.356 . S
C3251 C3250 1.363 . S
C3251 C3257 1.363 . S
C3252 C3253 1.363 . S
C3252 C3257 1.379 . S
C3252 N3259 1.356 . S
C3253 C3252 1.363 . S
C3253 C3256 1.363 . S
N3254 C3256 1.356 . S
N3254 H3266 0.984 . S
N3254 H3267 0.985 . S
N3255 C3257 1.356 . S
N3255 H3260 0.984 . S
N3255 H3261 0.985 . S
C3256 C3250 1.379 . S
C3256 C3253 1.363 . S
C3256 N3254 1.356 . S
C3257 C3251 1.363 . S
C3257 C3252 1.379 . S
C3257 N3255 1.356 . S
N3258 C3250 1.356 . S
N3258 H3264 0.984 . S
N3258 H3265 0.984 . S
N3259 C3252 1.356 . S
N3259 H3262 0.984 . S
N3259 H3263 0.985 . S
H3260 N3255 0.984 . S
H3261 N3255 0.985 . S
H3262 N3259 0.984 . S
H3263 N3259 0.985 . S
H3264 N3258 0.984 . S
H3265 N3258 0.984 . S
H3266 N3254 0.984 . S
H3267 N3254 0.985 . S
C3268 C3269 1.363 . S
C3268 C3274 1.379 . S
C3268 N3276 1.356 . S
C3269 C3268 1.363 . S
C3269 C3275 1.363 . S
C3270 C3271 1.363 . S
C3270 C3275 1.379 . S
C3270 N3277 1.356 . S
C3271 C3270 1.363 . S
C3271 C3274 1.363 . S
N3272 C3274 1.356 . S
N3272 H3284 0.984 . S
N3272 H3285 0.985 . S
N3273 C3275 1.356 . S
N3273 H3278 0.984 . S
N3273 H3279 0.985 . S
C3274 C3268 1.379 . S
C3274 C3271 1.363 . S
C3274 N3272 1.356 . S
C3275 C3269 1.363 . S
C3275 C3270 1.379 . S
C3275 N3273 1.356 . S
N3276 C3268 1.356 . S
N3276 H3282 0.984 . S
N3276 H3283 0.984 . S
N3277 C3270 1.356 . S
N3277 H3280 0.984 . S
N3277 H3281 0.985 . S
H3278 N3273 0.984 . S
H3279 N3273 0.985 . S
H3280 N3277 0.984 . S
H3281 N3277 0.985 . S
H3282 N3276 0.984 . S
H3283 N3276 0.984 . S
H3284 N3272 0.984 . S
H3285 N3272 0.985 . S
C3286 C3287 1.363 . S
C3286 C3292 1.379 . S
C3286 N3294 1.356 . S
C3287 C3286 1.363 . S
C3287 C3293 1.363 . S
C3288 C3289 1.363 . S
C3288 C3293 1.379 . S
C3288 N3295 1.356 . S
C3289 C3288 1.363 . S
C3289 C3292 1.363 . S
N3290 C3292 1.356 . S
N3290 H3302 0.984 . S
N3290 H3303 0.985 . S
N3291 C3293 1.356 . S
N3291 H3296 0.984 . S
N3291 H3297 0.985 . S
C3292 C3286 1.379 . S
C3292 C3289 1.363 . S
C3292 N3290 1.356 . S
C3293 C3287 1.363 . S
C3293 C3288 1.379 . S
C3293 N3291 1.356 . S
N3294 C3286 1.356 . S
N3294 H3300 0.984 . S
N3294 H3301 0.984 . S
N3295 C3288 1.356 . S
N3295 H3298 0.984 . S
N3295 H3299 0.985 . S
H3296 N3291 0.984 . S
H3297 N3291 0.985 . S
H3298 N3295 0.984 . S
H3299 N3295 0.985 . S
H3300 N3294 0.984 . S
H3301 N3294 0.984 . S
H3302 N3290 0.984 . S
H3303 N3290 0.985 . S
C1579 N1036 1.499 . S
C1577 C29 1.499 . S
C1597 C1063 1.619 . S
C1595 C61 1.601 . S
C1613 C93 1.523 . S
C1615 C1077 1.540 . S
C1633 N1095 1.447 . S
C1631 C119 1.474 . S
C1649 C157 1.571 . S
C1651 C1100 1.620 . S
C1667 C177 1.497 . S
C1669 C1040 1.524 . S
C1685 C221 1.440 . S
C1687 N1059 1.405 . S
C1705 N1072 1.476 . S
C1703 C253 1.500 . S
C1723 N1118 1.403 . S
C1721 C17 1.405 . S
C1739 C55 1.497 . S
C1741 N1141 1.492 . S
C1757 C87 1.554 . S
C1759 N1164 1.546 . S
C1777 N1197 1.423 . S
C1775 C113 1.452 . S
C1793 C145 1.504 . S
C1795 C1224 1.525 . S
C1813 C1247 1.559 . S
C1811 C183 1.531 . S
C1829 C215 1.509 . S
C1831 C1270 1.522 . S
C1849 C1284 1.413 . S
C1847 C247 1.406 . S
C1865 C23 1.407 . S
C1867 C1201 1.460 . S
C1883 C151 1.434 . S
C1885 N1243 1.432 . S
C1903 N1266 1.455 . S
C1901 C189 1.458 . S
C1919 C209 1.470 . S
C1921 N1279 1.441 . S
C1939 N1220 1.433 . S
C1937 C241 1.480 . S
C1957 C1146 1.656 . S
C1955 C81 1.641 . S
C1973 C125 1.523 . S
C1975 C1169 1.534 . S
C1993 C1123 1.619 . S
C1991 C49 1.600 . S
C2011 C1316 1.510 . S
C2009 C285 1.456 . S
C2027 C317 1.597 . S
C2029 C1330 1.621 . S
C2045 C349 1.522 . S
C2047 N1358 1.475 . S
C2065 N1371 1.438 . S
C2063 C375 1.456 . S
C2081 C413 1.579 . S
C2083 C1376 1.630 . S
C2099 C433 1.489 . S
C2101 N1312 1.462 . S
C2117 C477 1.527 . S
C2119 N1325 1.510 . S
C2135 C509 1.474 . S
C2137 C1362 1.477 . S
C2155 N1210 1.412 . S
C2153 C273 1.409 . S
C2171 C311 1.465 . S
C2173 N1394 1.438 . S
C2191 N1256 1.446 . S
C2189 C343 1.460 . S
C2207 C369 1.502 . S
C2209 C1431 1.526 . S
C2225 C401 1.533 . S
C2227 C1132 1.565 . S
C2245 C1445 1.589 . S
C2243 C439 1.546 . S
C2261 C471 1.528 . S
C2263 C1178 1.532 . S
C2281 N1463 1.385 . S
C2279 C503 1.402 . S
C2297 C279 1.416 . S
C2299 N1427 1.415 . S
C2317 N1440 1.477 . S
C2315 C407 1.462 . S
C2333 C445 1.456 . S
C2335 N1174 1.457 . S
C2353 C1468 1.446 . S
C2351 C465 1.433 . S
C2369 C497 1.454 . S
C2371 N1128 1.422 . S
C2387 C337 1.550 . S
C2389 C1399 1.564 . S
C2405 C381 1.576 . S
C2407 C1261 1.585 . S
C2423 C305 1.581 . S
C2425 C1215 1.605 . S
C2441 C541 1.517 . S
C2443 C1353 1.569 . S
C2461 C1385 1.562 . S
C2459 C573 1.544 . S
C2477 C605 1.488 . S
C2479 N1302 1.469 . S
C2495 C631 1.448 . S
C2497 N1335 1.415 . S
C2513 C669 1.585 . S
C2515 C1339 1.634 . S
C2531 C689 1.527 . S
C2533 N1348 1.528 . S
C2551 N1381 1.376 . S
C2549 C733 1.428 . S
C2567 C765 1.506 . S
C2569 C1307 1.524 . S
C2587 N1496 1.428 . S
C2585 C529 1.431 . S
C2603 C567 1.420 . S
C2605 N1233 1.411 . S
C2623 N1519 1.379 . S
C2621 C599 1.426 . S
C2639 C625 1.473 . S
C2641 N1289 1.461 . S
C2657 C657 1.511 . S
C2659 C1537 1.544 . S
C2675 C695 1.605 . S
C2677 C1155 1.644 . S
C2695 N1555 1.388 . S
C2693 C727 1.422 . S
C2711 C759 1.455 . S
C2713 C1192 1.461 . S
C2731 C1293 1.488 . S
C2729 C535 1.438 . S
C2749 N1151 1.478 . S
C2747 C663 1.490 . S
C2765 C701 1.547 . S
C2767 C1560 1.592 . S
C2783 C721 1.406 . S
C2785 N1187 1.364 . S
C2803 N1532 1.507 . S
C2801 C753 1.511 . S
C2821 C1238 1.566 . S
C2819 C593 1.550 . S
C2839 C1523 1.597 . S
C2837 C637 1.587 . S
C2857 C1500 1.591 . S
C2855 C561 1.555 . S
C2873 C797 1.409 . S
C2875 N1082 1.415 . S
C2891 C829 1.566 . S
C2893 C1109 1.582 . S
C2911 C1031 1.569 . S
C2909 C861 1.546 . S
C2929 N1049 1.390 . S
C2927 C887 1.416 . S
C2947 C1054 1.639 . S
C2945 C925 1.594 . S
C2965 C1086 1.552 . S
C2963 C945 1.516 . S
C2983 N1105 1.497 . S
C2981 C989 1.541 . S
C2999 C1021 1.541 . S
C3001 N1026 1.511 . S
C3017 C785 1.356 . S
C3019 N1542 1.350 . S
C3037 N1450 1.444 . S
C3035 C823 1.453 . S
C3055 C1569 1.594 . S
C3053 C855 1.569 . S
C3073 C1477 1.392 . S
C3071 C881 1.388 . S
C3089 C913 1.528 . S
C3091 C1491 1.559 . S
C3109 C1408 1.567 . S
C3107 C951 1.537 . S
C3127 C1514 1.644 . S
C3125 C983 1.630 . S
C3143 C1015 1.458 . S
C3145 N1417 1.419 . S
C3163 N1473 1.345 . S
C3161 C791 1.343 . S
C3181 N1404 1.437 . S
C3179 C919 1.438 . S
C3199 N1509 1.415 . S
C3197 C957 1.408 . S
C3215 C977 1.503 . S
C3217 C1422 1.512 . S
C3233 C1009 1.468 . S
C3235 N1486 1.438 . S
C3251 C849 1.641 . S
C3253 C1454 1.657 . S
C3269 C893 1.442 . S
C3271 N1565 1.412 . S
C3289 C1546 1.563 . S
C3287 C817 1.544 . S
