# Generated by pormake.
# Topology csq, (4,8)-cn, num edge types: 1
# Building blocks:
#     Node 0, Type 0, BuildingBlock: GIZVER_clean_linker_0, # of connection points: 4
#     Node 1, Type 0, BuildingBlock: GIZVER_clean_linker_0, # of connection points: 4
#     Node 2, Type 0, BuildingBlock: GIZVER_clean_linker_0, # of connection points: 4
#     Node 3, Type 0, BuildingBlock: GIZVER_clean_linker_0, # of connection points: 4
#     Node 4, Type 0, BuildingBlock: GIZVER_clean_linker_0, # of connection points: 4
#     Node 5, Type 0, BuildingBlock: GIZVER_clean_linker_0, # of connection points: 4
#     Node 6, Type 1, BuildingBlock: TAGTUT_clean_sbu_1, # of connection points: 8
#     Node 7, Type 1, BuildingBlock: TAGTUT_clean_sbu_1, # of connection points: 8
#     Node 8, Type 1, BuildingBlock: TAGTUT_clean_sbu_1, # of connection points: 8
#     Edge 9, Type (0, 1), BuildingBlock: UVAHIK_clean_linker_0, # of connection points: 2
#     Edge 10, Type (0, 1), BuildingBlock: UVAHIK_clean_linker_0, # of connection points: 2
#     Edge 11, Type (0, 1), BuildingBlock: UVAHIK_clean_linker_0, # of connection points: 2
#     Edge 12, Type (0, 1), BuildingBlock: UVAHIK_clean_linker_0, # of connection points: 2
#     Edge 13, Type (0, 1), BuildingBlock: UVAHIK_clean_linker_0, # of connection points: 2
#     Edge 14, Type (0, 1), BuildingBlock: UVAHIK_clean_linker_0, # of connection points: 2
#     Edge 15, Type (0, 1), BuildingBlock: UVAHIK_clean_linker_0, # of connection points: 2
#     Edge 16, Type (0, 1), BuildingBlock: UVAHIK_clean_linker_0, # of connection points: 2
#     Edge 17, Type (0, 1), BuildingBlock: UVAHIK_clean_linker_0, # of connection points: 2
#     Edge 18, Type (0, 1), BuildingBlock: UVAHIK_clean_linker_0, # of connection points: 2
#     Edge 19, Type (0, 1), BuildingBlock: UVAHIK_clean_linker_0, # of connection points: 2
#     Edge 20, Type (0, 1), BuildingBlock: UVAHIK_clean_linker_0, # of connection points: 2
#     Edge 21, Type (0, 1), BuildingBlock: UVAHIK_clean_linker_0, # of connection points: 2
#     Edge 22, Type (0, 1), BuildingBlock: UVAHIK_clean_linker_0, # of connection points: 2
#     Edge 23, Type (0, 1), BuildingBlock: UVAHIK_clean_linker_0, # of connection points: 2
#     Edge 24, Type (0, 1), BuildingBlock: UVAHIK_clean_linker_0, # of connection points: 2
#     Edge 25, Type (0, 1), BuildingBlock: UVAHIK_clean_linker_0, # of connection points: 2
#     Edge 26, Type (0, 1), BuildingBlock: UVAHIK_clean_linker_0, # of connection points: 2
#     Edge 27, Type (0, 1), BuildingBlock: UVAHIK_clean_linker_0, # of connection points: 2
#     Edge 28, Type (0, 1), BuildingBlock: UVAHIK_clean_linker_0, # of connection points: 2
#     Edge 29, Type (0, 1), BuildingBlock: UVAHIK_clean_linker_0, # of connection points: 2
#     Edge 30, Type (0, 1), BuildingBlock: UVAHIK_clean_linker_0, # of connection points: 2
#     Edge 31, Type (0, 1), BuildingBlock: UVAHIK_clean_linker_0, # of connection points: 2
#     Edge 32, Type (0, 1), BuildingBlock: UVAHIK_clean_linker_0, # of connection points: 2
# Relax obj value: 0.045
# Max RMSD: 0.136
# Mean RMSD: 0.097
data_MOF--net-csq--node1-TAGTUT_clean_sbu_1--node2-GIZVER_clean_linker_0--edge1-UVAHIK_clean_linker_0
_symmetry_space_group_name_H-M    P1
_symmetry_Int_Tables_number       1
_symmetry_cell_setting            triclinic
loop_
_symmetry_equiv_pos_as_xyz
'x, y, z'
_cell_length_a     69.287639
_cell_length_b     68.68651
_cell_length_c     23.138989
_cell_angle_alpha  92.873345
_cell_angle_beta   91.976545
_cell_angle_gamma 119.9813
loop_
_atom_site_label
_atom_site_type_symbol
_atom_site_fract_x
_atom_site_fract_y
_atom_site_fract_z
_atom_type_partial_charge
H0 H 0.24557 0.50921 0.03747 0.0
H1 H 0.23881 0.51839 0.21926 0.0
H2 H 0.1805 0.48569 0.1003 0.0
H3 H 0.27663 0.54079 0.10675 0.0
H4 H 0.27498 0.53767 0.18267 0.0
H5 H 0.28549 0.51717 0.04283 0.0
H6 H 0.31306 0.48093 0.12521 0.0
H7 H 0.27967 0.50818 0.2255 0.0
C8 C 0.23498 0.50659 0.07304 0.0
C9 C 0.21175 0.4963 0.06183 0.0
C10 C 0.24481 0.51436 0.12972 0.0
C11 C 0.23115 0.51158 0.17593 0.0
C12 C 0.20783 0.50136 0.16575 0.0
C13 C 0.19838 0.49339 0.10866 0.0
C14 C 0.26995 0.52804 0.13945 0.0
C15 C 0.28059 0.51351 0.13431 0.0
C16 C 0.28801 0.50996 0.08099 0.0
C17 C 0.29942 0.49786 0.07725 0.0
C18 C 0.30321 0.4892 0.12732 0.0
C19 C 0.29646 0.49312 0.18115 0.0
C20 C 0.28473 0.50488 0.18404 0.0
H21 H 0.81309 0.2379 0.05084 0.0
H22 H 0.80069 0.26298 0.21156 0.0
H23 H 0.83704 0.30848 0.08319 0.0
H24 H 0.79667 0.2127 0.12478 0.0
H25 H 0.80207 0.2254 0.19717 0.0
H26 H 0.76174 0.20915 0.06561 0.0
H27 H 0.70489 0.18573 0.16805 0.0
H28 H 0.77108 0.21731 0.25198 0.0
C29 C 0.81403 0.25167 0.0782 0.0
C30 C 0.82523 0.27359 0.06004 0.0
C31 C 0.80467 0.24767 0.13247 0.0
C32 C 0.8071 0.26593 0.16887 0.0
C33 C 0.81862 0.28801 0.15128 0.0
C34 C 0.82712 0.29146 0.09625 0.0
C35 C 0.79394 0.22436 0.15392 0.0
C36 C 0.76915 0.21462 0.15835 0.0
C37 C 0.75484 0.2073 0.10767 0.0
C38 C 0.73168 0.19733 0.11114 0.0
C39 C 0.72286 0.19453 0.16577 0.0
C40 C 0.73682 0.20143 0.2171 0.0
C41 C 0.76006 0.21179 0.21289 0.0
H42 H 0.55287 0.79569 0.95959 0.0
H43 H 0.57557 0.80921 0.14066 0.0
H44 H 0.53414 0.83391 0.07338 0.0
H45 H 0.58233 0.78877 0.99494 0.0
H46 H 0.59324 0.79633 0.06883 0.0
H47 H 0.55141 0.75134 0.96504 0.0
H48 H 0.53153 0.70062 0.08686 0.0
H49 H 0.57531 0.77007 0.14498 0.0
C50 C 0.55257 0.80228 0.0029 0.0
C51 C 0.54139 0.81442 0.01131 0.0
C52 C 0.56438 0.79971 0.04991 0.0
C53 C 0.56539 0.80989 0.10505 0.0
C54 C 0.55415 0.82188 0.11357 0.0
C55 C 0.54163 0.8234 0.06718 0.0
C56 C 0.57747 0.78787 0.0405 0.0
C57 C 0.56388 0.76359 0.05405 0.0
C58 C 0.55118 0.7468 0.00932 0.0
C59 C 0.53941 0.72402 0.02098 0.0
C60 C 0.53956 0.71827 0.07812 0.0
C61 C 0.55261 0.73467 0.1228 0.0
C62 C 0.56469 0.75739 0.11082 0.0
H63 H 0.75891 0.5414 0.97605 0.0
H64 H 0.7638 0.54977 0.16263 0.0
H65 H 0.69942 0.51252 0.06876 0.0
H66 H 0.79315 0.57072 0.02736 0.0
H67 H 0.79514 0.57549 0.10439 0.0
H68 H 0.80607 0.54693 0.98291 0.0
H69 H 0.8382 0.52175 0.09448 0.0
H70 H 0.79963 0.54901 0.16699 0.0
C71 C 0.75099 0.53794 0.01683 0.0
C72 C 0.72767 0.52533 0.01663 0.0
C73 C 0.76413 0.54672 0.06934 0.0
C74 C 0.75367 0.54268 0.12219 0.0
C75 C 0.73021 0.52997 0.12274 0.0
C76 C 0.71749 0.52131 0.06949 0.0
C77 C 0.78907 0.56204 0.06829 0.0
C78 C 0.80143 0.54925 0.07433 0.0
C79 C 0.80959 0.54324 0.02568 0.0
C80 C 0.82264 0.53291 0.03238 0.0
C81 C 0.82721 0.52857 0.08847 0.0
C82 C 0.81899 0.53425 0.13732 0.0
C83 C 0.80593 0.54438 0.12966 0.0
H84 H 0.28791 0.75892 0.00894 0.0
H85 H 0.29121 0.7741 0.19306 0.0
H86 H 0.32537 0.82754 0.08047 0.0
H87 H 0.27936 0.72958 0.07827 0.0
H88 H 0.28101 0.73621 0.15447 0.0
H89 H 0.24564 0.71874 0.01821 0.0
H90 H 0.18592 0.70152 0.10417 0.0
H91 H 0.24942 0.73651 0.20152 0.0
C92 C 0.29332 0.77114 0.04607 0.0
C93 C 0.30651 0.79421 0.03835 0.0
C94 C 0.28771 0.76383 0.10205 0.0
C95 C 0.29537 0.77981 0.15002 0.0
C96 C 0.30904 0.8029 0.143 0.0
C97 C 0.31423 0.8099 0.08673 0.0
C98 C 0.27538 0.73904 0.11168 0.0
C99 C 0.25048 0.72969 0.10949 0.0
C100 C 0.23762 0.7196 0.0569 0.0
C101 C 0.21433 0.70957 0.05484 0.0
C102 C 0.20402 0.71033 0.10516 0.0
C103 C 0.21638 0.71981 0.15825 0.0
C104 C 0.23974 0.72962 0.16036 0.0
H105 H 0.52511 0.27181 0.03714 0.0
H106 H 0.52314 0.28144 0.22217 0.0
H107 H 0.49056 0.30425 0.10499 0.0
H108 H 0.54741 0.26314 0.10308 0.0
H109 H 0.55077 0.2723 0.17857 0.0
H110 H 0.50696 0.2288 0.06828 0.0
H111 H 0.48615 0.17572 0.18332 0.0
H112 H 0.53715 0.24284 0.24268 0.0
C113 C 0.51923 0.27725 0.07392 0.0
C114 C 0.50654 0.28772 0.06472 0.0
C115 C 0.52468 0.27427 0.1309 0.0
C116 C 0.5181 0.2827 0.17826 0.0
C117 C 0.50561 0.29332 0.16896 0.0
C118 C 0.49939 0.29515 0.11226 0.0
C119 C 0.53817 0.26293 0.14165 0.0
C120 C 0.52306 0.23876 0.15474 0.0
C121 C 0.50776 0.22325 0.11088 0.0
C122 C 0.49419 0.20049 0.121 0.0
C123 C 0.49568 0.19348 0.17597 0.0
C124 C 0.51112 0.20851 0.21988 0.0
C125 C 0.52487 0.23123 0.2092 0.0
C126 C 0.9846 0.43172 0.72117 0.0
C127 C 0.05131 0.47754 0.66827 0.0
C128 C 0.03313 0.54286 0.7043 0.0
Mg129 Mg 0.00442 0.45316 0.60632 0.0
O130 O 0.9982 0.47489 0.63981 0.0
Mg131 Mg 0.01223 0.48874 0.71928 0.0
Mg132 Mg 0.00858 0.50308 0.59964 0.0
O133 O 0.0191 0.53107 0.55866 0.0
Mg134 Mg 0.01485 0.55442 0.58927 0.0
Mg135 Mg 0.00529 0.51728 0.47896 0.0
C136 C 0.98297 0.46334 0.49478 0.0
C137 C 0.04406 0.5049 0.50642 0.0
O138 O 0.993 0.45161 0.74708 0.0
O139 O 0.98676 0.42854 0.66723 0.0
O140 O 0.04319 0.48566 0.70458 0.0
O141 O 0.03982 0.46524 0.62285 0.0
O142 O 0.98864 0.45036 0.51951 0.0
O143 O 0.98743 0.48252 0.51885 0.0
C144 C 0.97221 0.49958 0.69216 0.0
O145 O 0.97928 0.50508 0.64145 0.0
O146 O 0.98164 0.49266 0.72779 0.0
O147 O 0.02677 0.55417 0.44998 0.0
O148 O 0.03489 0.5781 0.5291 0.0
O149 O 0.97512 0.52192 0.49217 0.0
C150 C 0.03697 0.57424 0.47554 0.0
O151 O 0.98028 0.54448 0.57092 0.0
O152 O 0.02845 0.55612 0.67743 0.0
C153 C 0.96802 0.53147 0.52737 0.0
O154 O 0.02918 0.52377 0.68067 0.0
O155 O 0.03798 0.50091 0.55845 0.0
O156 O 0.03435 0.51137 0.47054 0.0
C157 C 0.46212 0.01453 0.7838 0.0
C158 C 0.44686 0.95386 0.68238 0.0
C159 C 0.53378 0.98235 0.70611 0.0
Mg160 Mg 0.46483 0.00288 0.6537 0.0
O161 O 0.49381 0.01167 0.68469 0.0
Mg162 Mg 0.49637 0.99454 0.74932 0.0
Mg163 Mg 0.51353 0.008 0.63064 0.0
O164 O 0.53292 0.0041 0.57607 0.0
Mg165 Mg 0.56177 0.012 0.60489 0.0
Mg166 Mg 0.53045 0.02095 0.5107 0.0
C167 C 0.49407 0.03451 0.55568 0.0
C168 C 0.48158 0.97645 0.51883 0.0
O169 O 0.47586 0.00788 0.79879 0.0
O170 O 0.45592 0.01415 0.7307 0.0
O171 O 0.46364 0.96193 0.7194 0.0
O172 O 0.44433 0.96631 0.64717 0.0
O173 O 0.47538 0.02439 0.57998 0.0
O174 O 0.51066 0.03197 0.57079 0.0
C175 C 0.54462 0.04029 0.74305 0.0
O176 O 0.54283 0.0369 0.68756 0.0
O177 O 0.5293 0.02692 0.77446 0.0
O178 O 0.54943 0.00579 0.46005 0.0
O179 O 0.56903 0.99912 0.52818 0.0
O180 O 0.56419 0.05306 0.53832 0.0
C181 C 0.56249 0.99831 0.47518 0.0
O182 O 0.58317 0.04811 0.61016 0.0
O183 O 0.55214 0.99204 0.68048 0.0
C184 C 0.58116 0.06072 0.57464 0.0
O185 O 0.51691 0.98437 0.69056 0.0
O186 O 0.48401 0.97922 0.57434 0.0
O187 O 0.49672 0.98965 0.48686 0.0
C188 C 0.55015 0.56789 0.45875 0.0
C189 C 0.5729 0.52206 0.50734 0.0
C190 C 0.48602 0.45888 0.50047 0.0
Mg191 Mg 0.5551 0.54894 0.57404 0.0
O192 O 0.52533 0.52797 0.54893 0.0
Mg193 Mg 0.52018 0.51143 0.47122 0.0
Mg194 Mg 0.50901 0.50194 0.59634 0.0
O195 O 0.49296 0.4759 0.64433 0.0
Mg196 Mg 0.46351 0.45283 0.62345 0.0
Mg197 Mg 0.49957 0.49233 0.72264 0.0
C198 C 0.53214 0.54461 0.69419 0.0
C199 C 0.546 0.49829 0.67804 0.0
O200 O 0.53703 0.54763 0.43604 0.0
O201 O 0.55864 0.572 0.51109 0.0
O202 O 0.55452 0.51309 0.47592 0.0
O203 O 0.57646 0.53553 0.55171 0.0
O204 O 0.54893 0.55531 0.66332 0.0
O205 O 0.51508 0.52563 0.67561 0.0
C206 C 0.47251 0.5048 0.51013 0.0
O207 O 0.47676 0.50133 0.56194 0.0
O208 O 0.48644 0.50917 0.47092 0.0
O209 O 0.48505 0.45681 0.7582 0.0
O210 O 0.46331 0.43063 0.68651 0.0
O211 O 0.46512 0.49005 0.72113 0.0
C212 C 0.47302 0.43613 0.73771 0.0
O213 O 0.44162 0.46522 0.65045 0.0
O214 O 0.4697 0.44765 0.5325 0.0
C215 C 0.44607 0.47989 0.69268 0.0
O216 O 0.50295 0.47808 0.51842 0.0
O217 O 0.54118 0.50231 0.62776 0.0
O218 O 0.53309 0.49423 0.71945 0.0
C219 C 0.17519 0.50384 0.20127 0.0
C220 C 0.19329 0.50039 0.21317 0.0
C221 C 0.16061 0.5017 0.24372 0.0
C222 C 0.15318 0.50761 0.39353 0.0
H223 H 0.09089 0.46466 0.34929 0.0
C224 C 0.07826 0.50067 0.52151 0.0
C225 C 0.06192 0.50108 0.48454 0.0
C226 C 0.09525 0.49774 0.49825 0.0
C227 C 0.10821 0.47665 0.36259 0.0
H228 H 0.21071 0.4931 0.28084 0.0
H229 H 0.18533 0.49014 0.35614 0.0
H230 H 0.11981 0.46586 0.28996 0.0
H231 H 0.05044 0.49826 0.3943 0.0
H232 H 0.07958 0.49332 0.35461 0.0
H233 H 0.14135 0.51941 0.4642 0.0
C234 C 0.18246 0.49407 0.31307 0.0
C235 C 0.12474 0.47726 0.3287 0.0
C236 C 0.19697 0.49584 0.27 0.0
C237 C 0.06275 0.49816 0.42429 0.0
C238 C 0.0794 0.49507 0.40135 0.0
C239 C 0.13652 0.50715 0.42741 0.0
C240 C 0.1639 0.49655 0.29977 0.0
C241 C 0.14729 0.49324 0.34262 0.0
C242 C 0.09588 0.49482 0.43774 0.0
C243 C 0.11379 0.49224 0.41082 0.0
H244 H 0.17219 0.50821 0.1589 0.0
H245 H 0.14664 0.50409 0.23271 0.0
H246 H 0.1705 0.52012 0.40498 0.0
H247 H 0.07817 0.50304 0.56808 0.0
H248 H 0.10778 0.49767 0.52741 0.0
C249 C 0.7072 0.1966 0.28442 0.0
C250 C 0.72671 0.19582 0.27417 0.0
C251 C 0.69554 0.18781 0.33355 0.0
C252 C 0.68742 0.14535 0.43643 0.0
H253 H 0.64826 0.16417 0.50352 0.0
C254 C 0.62203 0.08932 0.58833 0.0
C255 C 0.60031 0.08354 0.56802 0.0
C256 C 0.64063 0.10804 0.5688 0.0
C257 C 0.65923 0.15881 0.48549 0.0
H258 H 0.75004 0.18652 0.31019 0.0
H259 H 0.73028 0.17211 0.39699 0.0
H260 H 0.67602 0.18826 0.43847 0.0
H261 H 0.58109 0.09437 0.51666 0.0
H262 H 0.61343 0.12698 0.48314 0.0
H263 H 0.6703 0.11569 0.48227 0.0
C264 C 0.72358 0.1789 0.36606 0.0
C265 C 0.67507 0.17253 0.44793 0.0
C266 C 0.73513 0.1875 0.31655 0.0
C267 C 0.59759 0.0982 0.53269 0.0
C268 C 0.61616 0.117 0.51364 0.0
C269 C 0.67177 0.13177 0.47435 0.0
C270 C 0.70321 0.17822 0.37425 0.0
C271 C 0.68891 0.16564 0.42143 0.0
C272 C 0.63788 0.1215 0.52924 0.0
C273 C 0.65704 0.138 0.49799 0.0
H274 H 0.70044 0.20329 0.25331 0.0
H275 H 0.6799 0.18751 0.33785 0.0
H276 H 0.69744 0.1392 0.41638 0.0
H277 H 0.62474 0.07849 0.61583 0.0
H278 H 0.65718 0.11131 0.5823 0.0
C279 C 0.53845 0.71239 0.20872 0.0
C280 C 0.55663 0.72677 0.17761 0.0
C281 C 0.54065 0.69872 0.24806 0.0
C282 C 0.56989 0.66799 0.25985 0.0
H283 H 0.54552 0.65374 0.41034 0.0
C284 C 0.54678 0.58485 0.36733 0.0
C285 C 0.55429 0.5875 0.42598 0.0
C286 C 0.54922 0.60343 0.33892 0.0
C287 C 0.55247 0.65763 0.36842 0.0
H288 H 0.59162 0.73929 0.1655 0.0
H289 H 0.59548 0.71527 0.23423 0.0
H290 H 0.54673 0.68545 0.36321 0.0
H291 H 0.57075 0.61199 0.50018 0.0
H292 H 0.57461 0.64398 0.45083 0.0
H293 H 0.57498 0.63973 0.26423 0.0
C294 C 0.5796 0.71467 0.2284 0.0
C295 C 0.55313 0.67571 0.34155 0.0
C296 C 0.57748 0.7286 0.18978 0.0
C297 C 0.56472 0.6092 0.45502 0.0
C298 C 0.56685 0.62759 0.42695 0.0
C299 C 0.56887 0.64967 0.28627 0.0
C300 C 0.56096 0.69896 0.25602 0.0
C301 C 0.56184 0.68105 0.28701 0.0
C302 C 0.5589 0.62487 0.36892 0.0
C303 C 0.56012 0.6443 0.34074 0.0
H304 H 0.52214 0.71047 0.19924 0.0
H305 H 0.52601 0.6867 0.26864 0.0
H306 H 0.57637 0.67154 0.21734 0.0
H307 H 0.53869 0.56841 0.34369 0.0
H308 H 0.54291 0.60092 0.29406 0.0
C309 C 0.83224 0.54822 0.24158 0.0
C310 C 0.82567 0.53119 0.19644 0.0
C311 C 0.84132 0.54669 0.29489 0.0
C312 C 0.85218 0.50821 0.38164 0.0
H313 H 0.90766 0.56312 0.42969 0.0
C314 C 0.93034 0.51034 0.47492 0.0
C315 C 0.94552 0.52824 0.51424 0.0
C316 C 0.91064 0.50918 0.45421 0.0
C317 C 0.89195 0.54776 0.41809 0.0
H318 H 0.82194 0.49843 0.17351 0.0
H319 H 0.83847 0.49612 0.26543 0.0
H320 H 0.88185 0.56403 0.35785 0.0
H321 H 0.95108 0.55794 0.56639 0.0
H322 H 0.91662 0.55609 0.52925 0.0
H323 H 0.86318 0.49174 0.43945 0.0
C324 C 0.83639 0.51055 0.26016 0.0
C325 C 0.87709 0.54826 0.37673 0.0
C326 C 0.8272 0.51202 0.20703 0.0
C327 C 0.93979 0.54405 0.53575 0.0
C328 C 0.92011 0.54302 0.51442 0.0
C329 C 0.86713 0.50769 0.42284 0.0
C330 C 0.84415 0.52817 0.30419 0.0
C331 C 0.85744 0.52833 0.35631 0.0
C332 C 0.90572 0.52598 0.47197 0.0
C333 C 0.88757 0.52731 0.43978 0.0
H334 H 0.83141 0.56328 0.2349 0.0
H335 H 0.84682 0.56041 0.32814 0.0
H336 H 0.83696 0.49265 0.36783 0.0
H337 H 0.93413 0.49774 0.45798 0.0
H338 H 0.90004 0.49594 0.42122 0.0
C339 C 0.32398 0.84167 0.19216 0.0
C340 C 0.31996 0.81952 0.19414 0.0
C341 C 0.33782 0.85837 0.23521 0.0
C342 C 0.36545 0.8714 0.38088 0.0
H343 H 0.41603 0.9183 0.3097 0.0
C344 C 0.44793 0.93748 0.51211 0.0
C345 C 0.46027 0.95864 0.48992 0.0
C346 C 0.42856 0.9204 0.48109 0.0
C347 C 0.40187 0.90573 0.33068 0.0
H348 H 0.32613 0.79732 0.24559 0.0
H349 H 0.34978 0.82647 0.32151 0.0
H350 H 0.3848 0.88904 0.24892 0.0
H351 H 0.46118 0.9793 0.42118 0.0
H352 H 0.42707 0.9503 0.36917 0.0
H353 H 0.38239 0.88837 0.46291 0.0
C354 C 0.34225 0.8308 0.2863 0.0
C355 C 0.384 0.88887 0.2956 0.0
C356 C 0.32864 0.81411 0.24278 0.0
C357 C 0.45229 0.96291 0.43839 0.0
C358 C 0.43276 0.94617 0.40838 0.0
C359 C 0.38323 0.88863 0.4163 0.0
C360 C 0.34763 0.85321 0.28163 0.0
C361 C 0.36566 0.87155 0.32024 0.0
C362 C 0.421 0.92444 0.4281 0.0
C363 C 0.40171 0.90605 0.39156 0.0
H364 H 0.31715 0.84632 0.15608 0.0
H365 H 0.34159 0.87555 0.23108 0.0
H366 H 0.35147 0.85808 0.40075 0.0
H367 H 0.4537 0.93389 0.55213 0.0
H368 H 0.42002 0.9039 0.49768 0.0
C369 C 0.52073 0.32427 0.24712 0.0
C370 C 0.50211 0.30611 0.21639 0.0
C371 C 0.51849 0.34083 0.2785 0.0
C372 C 0.48129 0.36484 0.27686 0.0
H373 H 0.51841 0.40053 0.41375 0.0
C374 C 0.46816 0.42735 0.4231 0.0
C375 C 0.48736 0.44686 0.44752 0.0
C376 C 0.47011 0.41181 0.38623 0.0
C377 C 0.50819 0.39089 0.37495 0.0
H378 H 0.46632 0.28971 0.19833 0.0
H379 H 0.46212 0.31805 0.2556 0.0
H380 H 0.52028 0.36774 0.37664 0.0
H381 H 0.52348 0.46667 0.44722 0.0
H382 H 0.52682 0.43943 0.38295 0.0
H383 H 0.46872 0.38773 0.27666 0.0
C384 C 0.4786 0.32002 0.25381 0.0
C385 C 0.50918 0.37205 0.35384 0.0
C386 C 0.4809 0.30362 0.22184 0.0
C387 C 0.50836 0.45177 0.42927 0.0
C388 C 0.51032 0.43609 0.39296 0.0
C389 C 0.48011 0.38353 0.29846 0.0
C390 C 0.49752 0.33937 0.28011 0.0
C391 C 0.49574 0.35878 0.30453 0.0
C392 C 0.49129 0.4155 0.37361 0.0
C393 C 0.4936 0.39675 0.34757 0.0
H394 H 0.5373 0.3267 0.24274 0.0
H395 H 0.53346 0.35553 0.29793 0.0
H396 H 0.47108 0.35534 0.23795 0.0
H397 H 0.45174 0.42324 0.43604 0.0
H398 H 0.45517 0.39609 0.37165 0.0
C399 C 0.54959 0.83598 0.92387 0.0
C400 C 0.53384 0.82253 0.96216 0.0
C401 C 0.54605 0.85078 0.89199 0.0
C402 C 0.50847 0.86891 0.83737 0.0
H403 H 0.55514 0.92875 0.8962 0.0
C404 C 0.51041 0.94914 0.7632 0.0
C405 C 0.53153 0.96619 0.74903 0.0
C406 C 0.50839 0.93119 0.79387 0.0
C407 C 0.54209 0.91222 0.87875 0.0
H408 H 0.50104 0.812 0.99224 0.0
H409 H 0.49455 0.83749 0.93476 0.0
H410 H 0.55536 0.89579 0.92922 0.0
H411 H 0.56714 0.97856 0.75958 0.0
H412 H 0.56366 0.94747 0.81147 0.0
H413 H 0.49569 0.88532 0.7849 0.0
C414 C 0.50968 0.83674 0.93013 0.0
C415 C 0.54224 0.89337 0.89775 0.0
C416 C 0.51335 0.82214 0.96273 0.0
C417 C 0.55059 0.96569 0.76948 0.0
C418 C 0.54858 0.94782 0.79973 0.0
C419 C 0.50854 0.88787 0.81735 0.0
C420 C 0.52656 0.85204 0.89717 0.0
C421 C 0.52567 0.87159 0.87658 0.0
C422 C 0.52745 0.93 0.81104 0.0
C423 C 0.52561 0.90979 0.83712 0.0
H424 H 0.56561 0.83683 0.92313 0.0
H425 H 0.55923 0.8624 0.86652 0.0
H426 H 0.49541 0.85221 0.82099 0.0
H427 H 0.49539 0.94901 0.74801 0.0
H428 H 0.49187 0.91797 0.80274 0.0
C429 C 0.71647 0.53408 0.92177 0.0
C430 C 0.71349 0.51821 0.96169 0.0
C431 C 0.70029 0.52865 0.87644 0.0
C432 C 0.64009 0.49216 0.852 0.0
H433 H 0.64827 0.51504 0.69953 0.0
C434 C 0.56439 0.47804 0.71461 0.0
C435 C 0.56626 0.49691 0.689 0.0
C436 C 0.58342 0.47773 0.73448 0.0
C437 C 0.64576 0.50859 0.74205 0.0
H438 H 0.69261 0.48367 0.98249 0.0
H439 H 0.66459 0.47397 0.9027 0.0
H440 H 0.68052 0.51947 0.75854 0.0
H441 H 0.58923 0.52979 0.66102 0.0
H442 H 0.62282 0.52978 0.6981 0.0
H443 H 0.6058 0.48219 0.83758 0.0
C444 C 0.67907 0.49079 0.90718 0.0
C445 C 0.66419 0.51108 0.77572 0.0
C446 C 0.6951 0.49627 0.95267 0.0
C447 C 0.58749 0.51501 0.6804 0.0
C448 C 0.60666 0.51493 0.70152 0.0
C449 C 0.62182 0.48979 0.81874 0.0
C450 C 0.68095 0.50722 0.87023 0.0
C451 C 0.66153 0.50298 0.83125 0.0
C452 C 0.60476 0.49661 0.73082 0.0
C453 C 0.62436 0.49804 0.76345 0.0
H454 H 0.73046 0.55116 0.92801 0.0
H455 H 0.70219 0.54172 0.84894 0.0
H456 H 0.63749 0.4863 0.89519 0.0
H457 H 0.54811 0.46378 0.72097 0.0
H458 H 0.58133 0.46305 0.75512 0.0
C459 C 0.18095 0.69568 0.98586 0.0
C460 C 0.19994 0.6947 0.0044 0.0
C461 C 0.16333 0.67742 0.95333 0.0
C462 C 0.14476 0.62384 0.86776 0.0
H463 H 0.08888 0.60624 0.93827 0.0
C464 C 0.06389 0.54679 0.77187 0.0
C465 C 0.04727 0.55223 0.75881 0.0
C466 C 0.08194 0.56086 0.81129 0.0
C467 C 0.10433 0.61091 0.91811 0.0
H468 H 0.21644 0.67501 -0.00132 0.0
H469 H 0.18571 0.64317 0.94053 0.0
H470 H 0.12301 0.63967 0.9784 0.0
H471 H 0.0349 0.57479 0.78177 0.0
H472 H 0.06611 0.59915 0.85038 0.0
H473 H 0.12595 0.59549 0.80624 0.0
C474 C 0.18441 0.65796 0.95165 0.0
C475 C 0.12384 0.63012 0.94081 0.0
C476 C 0.20206 0.67625 0.98447 0.0
C477 C 0.04759 0.57032 0.79072 0.0
C478 C 0.0655 0.58426 0.83023 0.0
C479 C 0.12517 0.60466 0.84471 0.0
C480 C 0.16445 0.65794 0.93856 0.0
C481 C 0.14413 0.63705 0.91507 0.0
C482 C 0.08346 0.58039 0.83856 0.0
C483 C 0.10466 0.59827 0.86893 0.0
H484 H 0.17902 0.70981 0.00047 0.0
H485 H 0.14831 0.67803 0.94248 0.0
H486 H 0.16022 0.62879 0.84734 0.0
H487 H 0.06404 0.53294 0.74784 0.0
H488 H 0.09534 0.55721 0.81776 0.0
C489 C 0.4612 0.16368 0.08223 0.0
C490 C 0.48153 0.18305 0.07276 0.0
C491 C 0.45331 0.14399 0.0459 0.0
C492 C 0.47975 0.11839 0.96525 0.0
H493 H 0.41966 0.06929 0.92245 0.0
C494 C 0.46736 0.03381 0.88255 0.0
C495 C 0.45568 0.02619 0.82783 0.0
C496 C 0.46559 0.0499 0.91768 0.0
C497 C 0.43651 0.08288 0.93441 0.0
H498 H 0.5077 0.19799 0.013 0.0
H499 H 0.49347 0.16397 0.94856 0.0
H500 H 0.42544 0.10576 0.96236 0.0
H501 H 0.43072 0.02719 0.77051 0.0
H502 H 0.42797 0.05543 0.83131 0.0
H503 H 0.49101 0.09598 0.93702 0.0
C504 C 0.48407 0.16375 0.98523 0.0
C505 C 0.4398 0.10369 0.95706 0.0
C506 C 0.49206 0.18335 0.02177 0.0
C507 C 0.44028 0.03303 0.812 0.0
C508 C 0.43855 0.04912 0.84706 0.0
C509 C 0.47648 0.0977 0.94307 0.0
C510 C 0.46555 0.14352 -0.00071 0.0
C511 C 0.46151 0.1217 0.97215 0.0
C512 C 0.45212 0.05862 0.89867 0.0
C513 C 0.45486 0.07971 0.9273 0.0
H514 H 0.45248 0.16314 0.12064 0.0
H515 H 0.43886 0.12871 0.05751 0.0
H516 H 0.49665 0.13174 0.9778 0.0
H517 H 0.47914 0.02868 0.89642 0.0
H518 H 0.47585 0.05657 0.95805 0.0
C519 C 0.30715 0.47581 0.00086 0.0
C520 C 0.3099 0.49651 0.02339 0.0
C521 C 0.31948 0.47502 0.955 0.0
C522 C 0.37363 0.50816 0.90003 0.0
H523 H 0.34991 0.46734 0.76112 0.0
C524 C 0.43384 0.50499 0.74052 0.0
C525 C 0.42831 0.48388 0.71377 0.0
C526 C 0.41792 0.50792 0.76921 0.0
C527 C 0.35692 0.47867 0.79996 0.0
H528 H 0.32736 0.53251 0.01497 0.0
H529 H 0.34933 0.53118 0.93569 0.0
H530 H 0.32438 0.4691 0.8287 0.0
H531 H 0.40157 0.44947 0.69425 0.0
H532 H 0.37407 0.45411 0.7466 0.0
H533 H 0.40603 0.51683 0.87443 0.0
C534 C 0.33739 0.51557 0.953 0.0
C535 C 0.34221 0.47975 0.83843 0.0
C536 C 0.32473 0.51631 0.99802 0.0
C537 C 0.40625 0.46599 0.71407 0.0
C538 C 0.39044 0.46874 0.74413 0.0
C539 C 0.38832 0.50675 0.86242 0.0
C540 C 0.33516 0.49497 0.93168 0.0
C541 C 0.35045 0.49449 0.88889 0.0
C542 C 0.39619 0.48962 0.77355 0.0
C543 C 0.38025 0.49193 0.81175 0.0
H544 H 0.29588 0.46033 0.0198 0.0
H545 H 0.31755 0.45894 0.93966 0.0
H546 H 0.38044 0.51942 0.93911 0.0
H547 H 0.45068 0.51916 0.74045 0.0
H548 H 0.42293 0.52448 0.78924 0.0
C549 C 0.85728 0.27741 0.00622 0.0
C550 C 0.83799 0.2792 0.00761 0.0
C551 C 0.87339 0.28919 0.96712 0.0
C552 C 0.88523 0.3223 0.83789 0.0
H553 H 0.94331 0.36083 0.91901 0.0
C554 C 0.95936 0.39 0.72386 0.0
C555 C 0.97058 0.41165 0.7532 0.0
C556 C 0.94446 0.37125 0.752 0.0
C557 C 0.92722 0.35014 0.89574 0.0
H558 H 0.81947 0.29312 0.96704 0.0
H559 H 0.84722 0.31321 0.89769 0.0
H560 H 0.91367 0.3307 0.96851 0.0
H561 H 0.97548 0.43028 0.83611 0.0
H562 H 0.94947 0.39745 0.88529 0.0
H563 H 0.89855 0.34225 0.7658 0.0
C564 C 0.85004 0.30282 0.9266 0.0
C565 C 0.91032 0.33271 0.9238 0.0
C566 C 0.8341 0.29128 0.96611 0.0
C567 C 0.96714 0.4139 0.81212 0.0
C568 C 0.9523 0.39506 0.8404 0.0
C569 C 0.90219 0.3396 0.80965 0.0
C570 C 0.8703 0.30273 0.92848 0.0
C571 C 0.889 0.31889 0.89557 0.0
C572 C 0.9405 0.37361 0.8103 0.0
C573 C 0.92323 0.354 0.83868 0.0
H574 H 0.86077 0.26847 0.03847 0.0
H575 H 0.88876 0.28866 0.96912 0.0
H576 H 0.86899 0.31191 0.81505 0.0
H577 H 0.96163 0.38753 0.67854 0.0
H578 H 0.93582 0.35489 0.72788 0.0
C579 C 0.8342 0.50803 0.97883 0.0
C580 C 0.8328 0.52778 0.98217 0.0
C581 C 0.84613 0.50436 0.93632 0.0
C582 C 0.89175 0.53561 0.83997 0.0
H583 H 0.87607 0.47519 0.78207 0.0
C584 C 0.94788 0.51732 0.69091 0.0
C585 C 0.95288 0.50133 0.71159 0.0
C586 C 0.93091 0.52016 0.71421 0.0
C587 C 0.88065 0.49218 0.79775 0.0
H588 H 0.84214 0.55873 0.94134 0.0
H589 H 0.86241 0.55202 0.86589 0.0
H590 H 0.85007 0.48083 0.83904 0.0
H591 H 0.94332 0.47514 0.7713 0.0
H592 H 0.91368 0.4798 0.811 0.0
H593 H 0.92245 0.54684 0.79873 0.0
C594 C 0.85466 0.53956 0.89711 0.0
C595 C 0.86579 0.49544 0.83071 0.0
C596 C 0.84276 0.54328 0.93995 0.0
C597 C 0.93999 0.48768 0.75447 0.0
C598 C 0.92287 0.49025 0.77701 0.0
C599 C 0.90652 0.53236 0.80641 0.0
C600 C 0.85689 0.52024 0.8954 0.0
C601 C 0.87138 0.51713 0.85375 0.0
C602 C 0.91834 0.50675 0.7579 0.0
C603 C 0.90139 0.51054 0.78625 0.0
H604 H 0.82649 0.49557 0.0101 0.0
H605 H 0.84759 0.4894 0.93712 0.0
H606 H 0.89683 0.55255 0.85732 0.0
H607 H 0.95759 0.52821 0.65842 0.0
H608 H 0.92776 0.53296 0.69845 0.0
C609 C 0.33354 0.80277 0.96205 0.0
C610 C 0.31436 0.80236 0.98107 0.0
C611 C 0.34381 0.81449 0.91403 0.0
C612 C 0.36087 0.83604 0.80168 0.0
H613 H 0.36312 0.89341 0.79496 0.0
C614 C 0.40614 0.92462 0.67686 0.0
C615 C 0.42855 0.9305 0.68814 0.0
C616 C 0.38888 0.90502 0.69756 0.0
C617 C 0.36233 0.87726 0.79527 0.0
H618 H 0.29026 0.81295 0.96423 0.0
H619 H 0.30749 0.83261 0.87865 0.0
H620 H 0.33895 0.86662 0.86079 0.0
H621 H 0.45026 0.91932 0.72469 0.0
H622 H 0.42025 0.88506 0.7596 0.0
H623 H 0.38542 0.84754 0.73837 0.0
C624 C 0.31504 0.82441 0.90132 0.0
C625 C 0.34838 0.86178 0.83313 0.0
C626 C 0.30496 0.81291 0.94983 0.0
C627 C 0.43317 0.9153 0.7155 0.0
C628 C 0.41593 0.89561 0.73542 0.0
C629 C 0.37504 0.85167 0.76425 0.0
C630 C 0.33504 0.82598 0.88377 0.0
C631 C 0.34778 0.84112 0.83791 0.0
C632 C 0.39368 0.89075 0.72903 0.0
C633 C 0.37626 0.87266 0.76148 0.0
H634 H 0.34128 0.79507 0.98627 0.0
H635 H 0.35932 0.81553 0.9028 0.0
H636 H 0.36056 0.82016 0.80306 0.0
H637 H 0.40203 0.936 0.65611 0.0
H638 H 0.37186 0.90158 0.69135 0.0
C639 C 0.48177 0.28566 0.98142 0.0
C640 C 0.50339 0.29464 0.00753 0.0
C641 C 0.47734 0.29726 0.9398 0.0
C642 C 0.50454 0.34919 0.85652 0.0
H643 H 0.44952 0.34932 0.88159 0.0
C644 C 0.4916 0.42354 0.80908 0.0
C645 C 0.47321 0.41826 0.77057 0.0
C646 C 0.49394 0.40643 0.83257 0.0
C647 C 0.46483 0.34929 0.87381 0.0
H648 H 0.53752 0.32193 0.00898 0.0
H649 H 0.52995 0.34253 0.93793 0.0
H650 H 0.45651 0.32191 0.9265 0.0
H651 H 0.4423 0.39093 0.72875 0.0
H652 H 0.44599 0.36098 0.7721 0.0
H653 H 0.51329 0.37765 0.8068 0.0
C654 C 0.51636 0.32629 0.94761 0.0
C655 C 0.46882 0.33343 0.89903 0.0
C656 C 0.52082 0.31445 0.98833 0.0
C657 C 0.45663 0.39552 0.7584 0.0
C658 C 0.45874 0.3784 0.78299 0.0
C659 C 0.50073 0.36532 0.83237 0.0
C660 C 0.49435 0.31839 0.92474 0.0
C661 C 0.48891 0.33335 0.89153 0.0
C662 C 0.47771 0.38372 0.81903 0.0
C663 C 0.48099 0.3657 0.84153 0.0
H664 H 0.46803 0.27053 0.9963 0.0
H665 H 0.46032 0.29025 0.922 0.0
H666 H 0.51996 0.34943 0.84852 0.0
H667 H 0.5048 0.44086 0.81888 0.0
H668 H 0.5086 0.41092 0.86077 0.0
C669 C 0.17996 0.47225 0.98762 0.0
C670 C 0.20147 0.49088 0.00118 0.0
C671 C 0.16855 0.46961 0.9342 0.0
C672 C 0.14708 0.4646 0.81439 0.0
H673 H 0.15445 0.52136 0.76907 0.0
C674 C 0.08118 0.46699 0.65989 0.0
C675 C 0.07408 0.48156 0.68267 0.0
C676 C 0.1011 0.46869 0.6823 0.0
C677 C 0.15222 0.50533 0.78086 0.0
H678 H 0.22853 0.52027 0.96656 0.0
H679 H 0.20915 0.51499 0.87258 0.0
H680 H 0.18084 0.52149 0.8407 0.0
H681 H 0.08324 0.51049 0.74313 0.0
H682 H 0.11741 0.51333 0.782 0.0
H683 H 0.11725 0.44857 0.75801 0.0
C684 C 0.20071 0.50285 0.90409 0.0
C685 C 0.16759 0.50537 0.82158 0.0
C686 C 0.21201 0.50568 0.95791 0.0
C687 C 0.08806 0.49884 0.72495 0.0
C688 C 0.10788 0.5006 0.74696 0.0
C689 C 0.13152 0.46458 0.7741 0.0
C690 C 0.17847 0.48534 0.89242 0.0
C691 C 0.16476 0.48502 0.8407 0.0
C692 C 0.11435 0.48515 0.72733 0.0
C693 C 0.1334 0.48499 0.75876 0.0
H694 H 0.1715 0.46018 0.01929 0.0
H695 H 0.15144 0.45595 0.92732 0.0
H696 H 0.14464 0.44858 0.82684 0.0
H697 H 0.07081 0.45357 0.62709 0.0
H698 H 0.10575 0.45669 0.66572 0.0
C699 C 0.69894 0.19283 0.05054 0.0
C700 C 0.71623 0.18799 0.05839 0.0
C701 C 0.68212 0.18122 0.00628 0.0
C702 C 0.6405 0.14181 0.94824 0.0
H703 H 0.64719 0.11645 0.80191 0.0
C704 C 0.56828 0.06163 0.83317 0.0
C705 C 0.56495 0.05983 0.77243 0.0
C706 C 0.58729 0.07976 0.86172 0.0
C707 C 0.64505 0.12364 0.84224 0.0
H708 H 0.73021 0.16808 0.02465 0.0
H709 H 0.70052 0.14726 0.94826 0.0
H710 H 0.68035 0.14529 0.86001 0.0
H711 H 0.57906 0.07596 0.69417 0.0
H712 H 0.6125 0.10778 0.74434 0.0
H713 H 0.60533 0.1203 0.93074 0.0
C714 C 0.70011 0.16035 0.97531 0.0
C715 C 0.66406 0.13999 0.87585 0.0
C716 C 0.71712 0.17223 0.01918 0.0
C717 C 0.58121 0.0767 0.7409 0.0
C718 C 0.60036 0.09493 0.76963 0.0
C719 C 0.6216 0.12561 0.91468 0.0
C720 C 0.682 0.16419 0.96951 0.0
C721 C 0.66202 0.14893 0.92989 0.0
C722 C 0.60352 0.0967 0.83047 0.0
C723 C 0.62364 0.11588 0.86207 0.0
H724 H 0.69805 0.20511 0.07992 0.0
H725 H 0.66877 0.18504 0.0022 0.0
H726 H 0.63817 0.14801 0.98983 0.0
H727 H 0.55625 0.0489 0.85897 0.0
H728 H 0.5894 0.08032 0.90849 0.0
C729 C 0.54695 0.70645 0.93511 0.0
C730 C 0.53157 0.70579 0.97402 0.0
C731 C 0.54337 0.68665 0.90531 0.0
C732 C 0.50578 0.62842 0.85624 0.0
H733 H 0.55448 0.6195 0.90827 0.0
C734 C 0.50995 0.5512 0.76775 0.0
C735 C 0.5308 0.55689 0.74674 0.0
C736 C 0.50784 0.56648 0.8055 0.0
C737 C 0.54079 0.62172 0.8931 0.0
H738 H 0.49922 0.68461 0.00707 0.0
H739 H 0.49269 0.64992 0.95327 0.0
H740 H 0.55399 0.65329 0.94326 0.0
H741 H 0.56612 0.58182 0.75406 0.0
H742 H 0.56248 0.60837 0.81879 0.0
H743 H 0.49312 0.59746 0.80363 0.0
C744 C 0.5076 0.66571 0.94675 0.0
C745 C 0.54055 0.64106 0.91309 0.0
C746 C 0.5113 0.68551 0.97721 0.0
C747 C 0.54978 0.57702 0.76896 0.0
C748 C 0.54768 0.59225 0.80648 0.0
C749 C 0.5062 0.60917 0.83534 0.0
C750 C 0.52422 0.66601 0.91328 0.0
C751 C 0.52334 0.6448 0.89381 0.0
C752 C 0.52655 0.58763 0.82305 0.0
C753 C 0.52402 0.60588 0.85252 0.0
H754 H 0.5628 0.72176 0.93223 0.0
H755 H 0.55629 0.68721 0.87915 0.0
H756 H 0.49227 0.63096 0.8413 0.0
H757 H 0.495 0.53577 0.75167 0.0
H758 H 0.4914 0.5622 0.81856 0.0
C759 C 0.49545 0.18496 0.30301 0.0
C760 C 0.51418 0.19901 0.27314 0.0
C761 C 0.4964 0.17041 0.34152 0.0
C762 C 0.52606 0.13924 0.3614 0.0
H763 H 0.49008 0.11874 0.49373 0.0
C764 C 0.51882 0.06699 0.49796 0.0
C765 C 0.49744 0.05209 0.51583 0.0
C766 C 0.52274 0.08606 0.46961 0.0
C767 C 0.50008 0.12418 0.45658 0.0
H768 H 0.54904 0.21013 0.26312 0.0
H769 H 0.55092 0.18498 0.33167 0.0
H770 H 0.49509 0.15233 0.44971 0.0
H771 H 0.46312 0.04488 0.51423 0.0
H772 H 0.46994 0.07786 0.46443 0.0
H773 H 0.5308 0.11086 0.36809 0.0
C774 C 0.53538 0.18497 0.32462 0.0
C775 C 0.50303 0.14349 0.4315 0.0
C776 C 0.53443 0.19963 0.28612 0.0
C777 C 0.47984 0.05603 0.50163 0.0
C778 C 0.48378 0.07508 0.47354 0.0
C779 C 0.52319 0.11996 0.38674 0.0
C780 C 0.51611 0.16953 0.35092 0.0
C781 C 0.51566 0.15101 0.3828 0.0
C782 C 0.50538 0.09066 0.45869 0.0
C783 C 0.50975 0.11193 0.4338 0.0
H784 H 0.4796 0.18406 0.29331 0.0
H785 H 0.48118 0.1587 0.36055 0.0
H786 H 0.53562 0.14433 0.32344 0.0
H787 H 0.53278 0.06455 0.50821 0.0
H788 H 0.53957 0.09772 0.45862 0.0
C789 C 0.30397 0.46716 0.23804 0.0
C790 C 0.30477 0.48791 0.23482 0.0
C791 C 0.31603 0.46411 0.28287 0.0
C792 C 0.35322 0.49198 0.41917 0.0
H793 H 0.38736 0.46723 0.35048 0.0
C794 C 0.44689 0.50686 0.43572 0.0
C795 C 0.45055 0.50235 0.49243 0.0
C796 C 0.42582 0.50215 0.41497 0.0
C797 C 0.37781 0.47398 0.37058 0.0
H798 H 0.31753 0.52118 0.27809 0.0
H799 H 0.33899 0.51614 0.35523 0.0
H800 H 0.35462 0.46288 0.29688 0.0
H801 H 0.43501 0.49065 0.57301 0.0
H802 H 0.39776 0.48254 0.53626 0.0
H803 H 0.37771 0.5043 0.49157 0.0
C804 C 0.32873 0.50199 0.32413 0.0
C805 C 0.35884 0.47128 0.34011 0.0
C806 C 0.31645 0.50493 0.27969 0.0
C807 C 0.43272 0.49412 0.529 0.0
C808 C 0.41144 0.48949 0.50807 0.0
C809 C 0.37233 0.49467 0.44984 0.0
C810 C 0.32946 0.48189 0.32486 0.0
C811 C 0.3467 0.48092 0.36299 0.0
C812 C 0.40775 0.49289 0.45024 0.0
C813 C 0.38525 0.48644 0.42464 0.0
H814 H 0.29485 0.45367 0.20437 0.0
H815 H 0.31575 0.44821 0.28286 0.0
H816 H 0.34408 0.49934 0.43845 0.0
H817 H 0.4602 0.51352 0.40638 0.0
H818 H 0.42357 0.50547 0.37068 0.0
C819 C 0.82717 0.32783 0.17188 0.0
C820 C 0.82533 0.30804 0.19233 0.0
C821 C 0.84013 0.34857 0.20371 0.0
C822 C 0.86993 0.37801 0.34255 0.0
H823 H 0.92088 0.41281 0.25253 0.0
C824 C 0.94919 0.45828 0.43916 0.0
C825 C 0.96673 0.45358 0.44398 0.0
C826 C 0.93031 0.44463 0.40182 0.0
C827 C 0.90658 0.4035 0.27771 0.0
H828 H 0.83329 0.29419 0.26566 0.0
H829 H 0.85511 0.33031 0.32218 0.0
H830 H 0.88724 0.38014 0.20558 0.0
H831 H 0.97925 0.43237 0.40995 0.0
H832 H 0.9466 0.40911 0.34265 0.0
H833 H 0.8896 0.40105 0.41507 0.0
C834 C 0.84687 0.32975 0.28095 0.0
C835 C 0.88735 0.38493 0.25099 0.0
C836 C 0.83425 0.30903 0.24863 0.0
C837 C 0.966 0.43637 0.40691 0.0
C838 C 0.94735 0.42309 0.36854 0.0
C839 C 0.88897 0.39693 0.36898 0.0
C840 C 0.85092 0.34978 0.25725 0.0
C841 C 0.86914 0.37165 0.28357 0.0
C842 C 0.929 0.42652 0.36762 0.0
C843 C 0.90766 0.40939 0.33708 0.0
H844 H 0.82005 0.32754 0.12919 0.0
H845 H 0.84283 0.36381 0.18495 0.0
H846 H 0.85613 0.36792 0.3685 0.0
H847 H 0.94919 0.47126 0.46773 0.0
H848 H 0.9163 0.44752 0.40169 0.0
C849 C 0.57995 0.85628 0.17578 0.0
C850 C 0.55882 0.8369 0.16618 0.0
C851 C 0.5829 0.87444 0.21258 0.0
C852 C 0.54872 0.89794 0.26826 0.0
H853 H 0.60462 0.9423 0.35026 0.0
C854 C 0.55765 0.97935 0.37556 0.0
C855 C 0.56806 0.98558 0.43188 0.0
C856 C 0.55952 0.96347 0.33949 0.0
C857 C 0.58881 0.93003 0.32792 0.0
H858 H 0.52469 0.82023 0.19057 0.0
H859 H 0.53008 0.85128 0.25817 0.0
H860 H 0.60114 0.90789 0.30512 0.0
H861 H 0.59024 0.98147 0.49242 0.0
H862 H 0.59278 0.95353 0.43112 0.0
H863 H 0.53595 0.91937 0.2937 0.0
C864 C 0.5442 0.85299 0.23556 0.0
C865 C 0.58689 0.91033 0.30148 0.0
C866 C 0.54117 0.83503 0.19782 0.0
C867 C 0.58174 0.97692 0.44954 0.0
C868 C 0.58338 0.96093 0.41396 0.0
C869 C 0.55052 0.91741 0.29549 0.0
C870 C 0.56479 0.87338 0.24101 0.0
C871 C 0.56677 0.89397 0.27148 0.0
C872 C 0.57167 0.95338 0.35926 0.0
C873 C 0.57055 0.93369 0.32592 0.0
H874 H 0.59366 0.8582 0.15083 0.0
H875 H 0.59895 0.88982 0.21522 0.0
H876 H 0.53313 0.88608 0.24427 0.0
H877 H 0.54715 0.98584 0.36037 0.0
H878 H 0.55077 0.95852 0.29693 0.0
C879 C 0.69849 0.50699 0.18461 0.0
C880 C 0.71854 0.52707 0.17757 0.0
C881 C 0.68557 0.50534 0.23123 0.0
C882 C 0.67624 0.54203 0.33664 0.0
H883 H 0.63523 0.4848 0.39574 0.0
C884 C 0.61376 0.53494 0.5047 0.0
C885 C 0.59142 0.51908 0.48674 0.0
C886 C 0.63133 0.53477 0.4769 0.0
C887 C 0.64664 0.50091 0.37976 0.0
H888 H 0.74132 0.56072 0.21685 0.0
H889 H 0.71939 0.55748 0.29965 0.0
H890 H 0.66308 0.48701 0.33047 0.0
H891 H 0.57014 0.48954 0.42846 0.0
H892 H 0.6008 0.489 0.38096 0.0
H893 H 0.65973 0.55585 0.3862 0.0
C894 C 0.71321 0.54321 0.26787 0.0
C895 C 0.66256 0.5022 0.34199 0.0
C896 C 0.72603 0.54495 0.22072 0.0
C897 C 0.58714 0.50207 0.44323 0.0
C898 C 0.60472 0.50171 0.41608 0.0
C899 C 0.66056 0.54079 0.37507 0.0
C900 C 0.69244 0.52361 0.27293 0.0
C901 C 0.67727 0.52268 0.31871 0.0
C902 C 0.62698 0.5185 0.43127 0.0
C903 C 0.64527 0.52013 0.39612 0.0
H904 H 0.69236 0.49267 0.15296 0.0
H905 H 0.66968 0.49 0.23288 0.0
H906 H 0.68688 0.55804 0.31916 0.0
H907 H 0.61769 0.54827 0.53804 0.0
H908 H 0.64833 0.54777 0.48995 0.0
C909 C 0.186 0.72004 0.21238 0.0
C910 C 0.20374 0.71564 0.21102 0.0
C911 C 0.16893 0.7091 0.24955 0.0
C912 C 0.15028 0.67277 0.37264 0.0
H913 H 0.09297 0.64326 0.28384 0.0
C914 C 0.0578 0.59016 0.38668 0.0
C915 C 0.05381 0.59332 0.44464 0.0
C916 C 0.07571 0.60745 0.36061 0.0
C917 C 0.10883 0.65139 0.30921 0.0
H918 H 0.21866 0.69809 0.25133 0.0
H919 H 0.189 0.67923 0.31726 0.0
H920 H 0.12631 0.67086 0.23969 0.0
H921 H 0.06517 0.61764 0.51971 0.0
H922 H 0.09626 0.64753 0.47423 0.0
H923 H 0.13277 0.65287 0.44178 0.0
C924 C 0.18824 0.69107 0.28942 0.0
C925 C 0.1279 0.66739 0.28422 0.0
C926 C 0.20534 0.70201 0.252 0.0
C927 C 0.06768 0.61448 0.47505 0.0
C928 C 0.08566 0.63163 0.4492 0.0
C929 C 0.13112 0.65692 0.3979 0.0
C930 C 0.16928 0.69359 0.2863 0.0
C931 C 0.14889 0.67813 0.31541 0.0
C932 C 0.09012 0.62819 0.39206 0.0
C933 C 0.11023 0.64587 0.36621 0.0
H934 H 0.18439 0.73048 0.18117 0.0
H935 H 0.15477 0.71175 0.24705 0.0
H936 H 0.16619 0.68073 0.39772 0.0
H937 H 0.04754 0.57412 0.36194 0.0
H938 H 0.07878 0.60427 0.31651 0.0
loop_
_geom_bond_atom_site_label_1
_geom_bond_atom_site_label_2
_geom_bond_distance
_geom_bond_site_symmetry_2
_ccdc_geom_bond_type
H0 C8 0.930 . S
H1 C11 0.930 . S
H2 C13 0.930 . S
H3 C14 0.970 . S
H4 C14 0.970 . S
H5 C16 0.930 . S
H6 C18 0.930 . S
H7 C20 0.930 . S
C8 H0 0.930 . S
C8 C9 1.382 . S
C8 C10 1.426 . S
C9 C8 1.382 . S
C9 C13 1.389 . S
C10 C8 1.426 . S
C10 C11 1.375 . S
C10 C14 1.532 . S
C11 H1 0.930 . S
C11 C10 1.375 . S
C11 C12 1.416 . S
C12 C11 1.416 . S
C12 C13 1.371 . S
C13 H2 0.930 . S
C13 C9 1.389 . S
C13 C12 1.371 . S
C14 H3 0.970 . S
C14 H4 0.970 . S
C14 C10 1.532 . S
C14 C15 1.499 . S
C15 C14 1.499 . S
C15 C16 1.370 . S
C15 C20 1.415 . S
C16 H5 0.930 . S
C16 C15 1.370 . S
C16 C17 1.407 . S
C17 C16 1.407 . S
C17 C18 1.365 . S
C18 H6 0.930 . S
C18 C17 1.365 . S
C18 C19 1.393 . S
C19 C18 1.393 . S
C19 C20 1.387 . S
C20 H7 0.930 . S
C20 C15 1.415 . S
C20 C19 1.387 . S
H21 C29 0.930 . S
H22 C32 0.930 . S
H23 C34 0.930 . S
H24 C35 0.970 . S
H25 C35 0.970 . S
H26 C37 0.930 . S
H27 C39 0.930 . S
H28 C41 0.930 . S
C29 H21 0.930 . S
C29 C30 1.382 . S
C29 C31 1.426 . S
C30 C29 1.382 . S
C30 C34 1.389 . S
C31 C29 1.426 . S
C31 C32 1.375 . S
C31 C35 1.532 . S
C32 H22 0.930 . S
C32 C31 1.375 . S
C32 C33 1.416 . S
C33 C32 1.416 . S
C33 C34 1.371 . S
C34 H23 0.930 . S
C34 C30 1.389 . S
C34 C33 1.371 . S
C35 H24 0.970 . S
C35 H25 0.970 . S
C35 C31 1.532 . S
C35 C36 1.499 . S
C36 C35 1.499 . S
C36 C37 1.370 . S
C36 C41 1.415 . S
C37 H26 0.930 . S
C37 C36 1.370 . S
C37 C38 1.407 . S
C38 C37 1.407 . S
C38 C39 1.365 . S
C39 H27 0.930 . S
C39 C38 1.365 . S
C39 C40 1.393 . S
C40 C39 1.393 . S
C40 C41 1.387 . S
C41 H28 0.930 . S
C41 C36 1.415 . S
C41 C40 1.387 . S
H42 C50 0.930 . S
H43 C53 0.930 . S
H44 C55 0.930 . S
H45 C56 0.970 1_556 S
H46 C56 0.970 . S
H47 C58 0.930 . S
H48 C60 0.930 . S
H49 C62 0.930 . S
C50 H42 0.930 . S
C50 C51 1.382 . S
C50 C52 1.426 1_556 S
C51 C50 1.382 . S
C51 C55 1.389 1_556 S
C52 C50 1.426 1_554 S
C52 C53 1.375 . S
C52 C56 1.532 . S
C53 H43 0.930 . S
C53 C52 1.375 . S
C53 C54 1.416 . S
C54 C53 1.416 . S
C54 C55 1.371 . S
C55 H44 0.930 . S
C55 C51 1.389 1_554 S
C55 C54 1.371 . S
C56 H45 0.970 1_554 S
C56 H46 0.970 . S
C56 C52 1.532 . S
C56 C57 1.499 . S
C57 C56 1.499 . S
C57 C58 1.370 1_554 S
C57 C62 1.415 . S
C58 H47 0.930 . S
C58 C57 1.370 1_556 S
C58 C59 1.407 . S
C59 C58 1.407 . S
C59 C60 1.365 1_556 S
C60 H48 0.930 . S
C60 C59 1.365 1_554 S
C60 C61 1.393 . S
C61 C60 1.393 . S
C61 C62 1.387 . S
C62 H49 0.930 . S
C62 C57 1.415 . S
C62 C61 1.387 . S
H63 C71 0.930 1_556 S
H64 C74 0.930 . S
H65 C76 0.930 . S
H66 C77 0.970 . S
H67 C77 0.970 . S
H68 C79 0.930 1_556 S
H69 C81 0.930 . S
H70 C83 0.930 . S
C71 H63 0.930 1_554 S
C71 C72 1.382 . S
C71 C73 1.426 . S
C72 C71 1.382 . S
C72 C76 1.389 . S
C73 C71 1.426 . S
C73 C74 1.375 . S
C73 C77 1.532 . S
C74 H64 0.930 . S
C74 C73 1.375 . S
C74 C75 1.416 . S
C75 C74 1.416 . S
C75 C76 1.371 . S
C76 H65 0.930 . S
C76 C72 1.389 . S
C76 C75 1.371 . S
C77 H66 0.970 . S
C77 H67 0.970 . S
C77 C73 1.532 . S
C77 C78 1.499 . S
C78 C77 1.499 . S
C78 C79 1.370 . S
C78 C83 1.415 . S
C79 H68 0.930 1_554 S
C79 C78 1.370 . S
C79 C80 1.407 . S
C80 C79 1.407 . S
C80 C81 1.365 . S
C81 H69 0.930 . S
C81 C80 1.365 . S
C81 C82 1.393 . S
C82 C81 1.393 . S
C82 C83 1.387 . S
C83 H70 0.930 . S
C83 C78 1.415 . S
C83 C82 1.387 . S
H84 C92 0.935 . S
H85 C95 0.930 . S
H86 C97 0.930 . S
H87 C98 0.970 . S
H88 C98 0.970 . S
H89 C100 0.930 . S
H90 C102 0.930 . S
H91 C104 0.930 . S
C92 H84 0.935 . S
C92 C93 1.382 . S
C92 C94 1.426 . S
C93 C92 1.382 . S
C93 C97 1.389 . S
C94 C92 1.426 . S
C94 C95 1.375 . S
C94 C98 1.532 . S
C95 H85 0.930 . S
C95 C94 1.375 . S
C95 C96 1.416 . S
C96 C95 1.416 . S
C96 C97 1.371 . S
C97 H86 0.930 . S
C97 C93 1.389 . S
C97 C96 1.371 . S
C98 H87 0.970 . S
C98 H88 0.970 . S
C98 C94 1.532 . S
C98 C99 1.499 . S
C99 C98 1.499 . S
C99 C100 1.370 . S
C99 C104 1.415 . S
C100 H89 0.930 . S
C100 C99 1.370 . S
C100 C101 1.407 . S
C101 C100 1.407 . S
C101 C102 1.365 . S
C102 H90 0.930 . S
C102 C101 1.365 . S
C102 C103 1.393 . S
C103 C102 1.393 . S
C103 C104 1.387 . S
C104 H91 0.930 . S
C104 C99 1.415 . S
C104 C103 1.387 . S
H105 C113 0.930 . S
H106 C116 0.930 . S
H107 C118 0.930 . S
H108 C119 0.970 . S
H109 C119 0.970 . S
H110 C121 0.930 . S
H111 C123 0.930 . S
H112 C125 0.930 . S
C113 H105 0.930 . S
C113 C114 1.382 . S
C113 C115 1.426 . S
C114 C113 1.382 . S
C114 C118 1.389 . S
C115 C113 1.426 . S
C115 C116 1.375 . S
C115 C119 1.532 . S
C116 H106 0.930 . S
C116 C115 1.375 . S
C116 C117 1.416 . S
C117 C116 1.416 . S
C117 C118 1.371 . S
C118 H107 0.930 . S
C118 C114 1.389 . S
C118 C117 1.371 . S
C119 H108 0.970 . S
C119 H109 0.970 . S
C119 C115 1.532 . S
C119 C120 1.499 . S
C120 C119 1.499 . S
C120 C121 1.370 . S
C120 C125 1.415 . S
C121 H110 0.930 . S
C121 C120 1.370 . S
C121 C122 1.407 . S
C122 C121 1.407 . S
C122 C123 1.365 . S
C123 H111 0.930 . S
C123 C122 1.365 . S
C123 C124 1.393 . S
C124 C123 1.393 . S
C124 C125 1.387 . S
C125 H112 0.930 . S
C125 C120 1.415 . S
C125 C124 1.387 . S
C126 O138 1.241 . S
C126 O139 1.280 . S
C127 O140 1.277 . S
C127 O141 1.245 . S
C128 O152 1.247 . S
C128 O154 1.289 . S
Mg129 O130 1.926 . S
Mg129 O139 1.984 1_455 S
Mg129 O141 1.988 . S
Mg129 O142 2.061 1_455 S
O130 Mg129 1.926 . S
O130 Mg131 1.986 . S
O130 Mg132 1.917 . S
Mg131 O130 1.986 . S
Mg131 O138 2.042 1_455 S
Mg131 O140 2.041 . S
Mg131 O146 2.038 1_455 S
Mg131 O154 2.238 . S
Mg132 O130 1.917 . S
Mg132 O133 1.917 . S
Mg132 O143 2.106 1_455 S
Mg132 O145 2.079 1_455 S
Mg132 O154 2.106 . S
Mg132 O155 2.079 . S
O133 Mg132 1.917 . S
O133 Mg134 1.926 . S
O133 Mg135 1.986 . S
Mg134 O133 1.926 . S
Mg134 O148 1.984 . S
Mg134 O151 1.988 1_455 S
Mg134 O152 2.061 . S
Mg135 O133 1.986 . S
Mg135 O143 2.238 1_455 S
Mg135 O147 2.042 . S
Mg135 O149 2.041 1_455 S
Mg135 O156 2.038 . S
C136 O142 1.247 . S
C136 O143 1.289 . S
C137 O155 1.245 . S
C137 O156 1.274 . S
O138 C126 1.241 . S
O138 Mg131 2.042 1_655 S
O139 C126 1.280 . S
O139 Mg129 1.984 1_655 S
O140 C127 1.277 . S
O140 Mg131 2.041 . S
O141 C127 1.245 . S
O141 Mg129 1.988 . S
O142 Mg129 2.061 1_655 S
O142 C136 1.247 . S
O143 Mg132 2.106 1_655 S
O143 Mg135 2.238 1_655 S
O143 C136 1.289 . S
C144 O145 1.245 . S
C144 O146 1.274 . S
O145 Mg132 2.079 1_655 S
O145 C144 1.245 . S
O146 Mg131 2.038 1_655 S
O146 C144 1.274 . S
O147 Mg135 2.042 . S
O147 C150 1.241 . S
O148 Mg134 1.984 . S
O148 C150 1.280 . S
O149 Mg135 2.041 1_655 S
O149 C153 1.277 . S
C150 O147 1.241 . S
C150 O148 1.280 . S
O151 Mg134 1.988 1_655 S
O151 C153 1.245 . S
O152 C128 1.247 . S
O152 Mg134 2.061 . S
C153 O149 1.277 . S
C153 O151 1.245 . S
O154 C128 1.289 . S
O154 Mg131 2.238 . S
O154 Mg132 2.106 . S
O155 Mg132 2.079 . S
O155 C137 1.245 . S
O156 Mg135 2.038 . S
O156 C137 1.274 . S
C157 O169 1.241 . S
C157 O170 1.280 . S
C158 O171 1.277 . S
C158 O172 1.245 . S
C159 O183 1.247 . S
C159 O185 1.289 . S
Mg160 O161 1.926 . S
Mg160 O170 1.984 . S
Mg160 O172 1.988 1_545 S
Mg160 O173 2.061 . S
O161 Mg160 1.926 . S
O161 Mg162 1.986 . S
O161 Mg163 1.917 . S
Mg162 O161 1.986 . S
Mg162 O169 2.042 . S
Mg162 O171 2.041 1_545 S
Mg162 O177 2.038 . S
Mg162 O185 2.238 1_545 S
Mg163 O161 1.917 . S
Mg163 O164 1.917 1_545 S
Mg163 O174 2.106 . S
Mg163 O176 2.079 . S
Mg163 O185 2.106 1_545 S
Mg163 O186 2.079 1_545 S
O164 Mg163 1.917 1_565 S
O164 Mg165 1.926 . S
O164 Mg166 1.986 1_565 S
Mg165 O164 1.926 . S
Mg165 O179 1.984 . S
Mg165 O182 1.988 1_565 S
Mg165 O183 2.061 . S
Mg166 O164 1.986 1_545 S
Mg166 O174 2.238 . S
Mg166 O178 2.042 1_545 S
Mg166 O180 2.041 . S
Mg166 O187 2.038 1_545 S
C167 O173 1.247 . S
C167 O174 1.289 . S
C168 O186 1.245 . S
C168 O187 1.274 . S
O169 C157 1.241 . S
O169 Mg162 2.042 . S
O170 C157 1.280 . S
O170 Mg160 1.984 . S
O171 C158 1.277 . S
O171 Mg162 2.041 1_565 S
O172 C158 1.245 . S
O172 Mg160 1.988 1_565 S
O173 Mg160 2.061 . S
O173 C167 1.247 . S
O174 Mg163 2.106 . S
O174 Mg166 2.238 . S
O174 C167 1.289 . S
C175 O176 1.245 . S
C175 O177 1.274 . S
O176 Mg163 2.079 . S
O176 C175 1.245 . S
O177 Mg162 2.038 . S
O177 C175 1.274 . S
O178 Mg166 2.042 1_565 S
O178 C181 1.241 . S
O179 Mg165 1.984 . S
O179 C181 1.280 . S
O180 Mg166 2.041 . S
O180 C184 1.277 . S
C181 O178 1.241 . S
C181 O179 1.280 . S
O182 Mg165 1.988 1_545 S
O182 C184 1.245 . S
O183 C159 1.247 . S
O183 Mg165 2.061 . S
C184 O180 1.277 . S
C184 O182 1.245 . S
O185 C159 1.289 . S
O185 Mg162 2.238 1_565 S
O185 Mg163 2.106 1_565 S
O186 Mg163 2.079 1_565 S
O186 C168 1.245 . S
O187 Mg166 2.038 1_565 S
O187 C168 1.274 . S
C188 O200 1.241 . S
C188 O201 1.280 . S
C189 O202 1.277 . S
C189 O203 1.245 . S
C190 O214 1.247 . S
C190 O216 1.289 . S
Mg191 O192 1.926 . S
Mg191 O201 1.984 . S
Mg191 O203 1.988 . S
Mg191 O204 2.061 . S
O192 Mg191 1.926 . S
O192 Mg193 1.986 . S
O192 Mg194 1.917 . S
Mg193 O192 1.986 . S
Mg193 O200 2.042 . S
Mg193 O202 2.041 . S
Mg193 O208 2.038 . S
Mg193 O216 2.238 . S
Mg194 O192 1.917 . S
Mg194 O195 1.917 . S
Mg194 O205 2.106 . S
Mg194 O207 2.079 . S
Mg194 O216 2.106 . S
Mg194 O217 2.079 . S
O195 Mg194 1.917 . S
O195 Mg196 1.926 . S
O195 Mg197 1.986 . S
Mg196 O195 1.926 . S
Mg196 O210 1.984 . S
Mg196 O213 1.988 . S
Mg196 O214 2.061 . S
Mg197 O195 1.986 . S
Mg197 O205 2.238 . S
Mg197 O209 2.042 . S
Mg197 O211 2.041 . S
Mg197 O218 2.038 . S
C198 O204 1.247 . S
C198 O205 1.289 . S
C199 O217 1.245 . S
C199 O218 1.274 . S
O200 C188 1.241 . S
O200 Mg193 2.042 . S
O201 C188 1.280 . S
O201 Mg191 1.984 . S
O202 C189 1.277 . S
O202 Mg193 2.041 . S
O203 C189 1.245 . S
O203 Mg191 1.988 . S
O204 Mg191 2.061 . S
O204 C198 1.247 . S
O205 Mg194 2.106 . S
O205 Mg197 2.238 . S
O205 C198 1.289 . S
C206 O207 1.245 . S
C206 O208 1.274 . S
O207 Mg194 2.079 . S
O207 C206 1.245 . S
O208 Mg193 2.038 . S
O208 C206 1.274 . S
O209 Mg197 2.042 . S
O209 C212 1.241 . S
O210 Mg196 1.984 . S
O210 C212 1.280 . S
O211 Mg197 2.041 . S
O211 C215 1.277 . S
C212 O209 1.241 . S
C212 O210 1.280 . S
O213 Mg196 1.988 . S
O213 C215 1.245 . S
O214 C190 1.247 . S
O214 Mg196 2.061 . S
C215 O211 1.277 . S
C215 O213 1.245 . S
O216 C190 1.289 . S
O216 Mg193 2.238 . S
O216 Mg194 2.106 . S
O217 Mg194 2.079 . S
O217 C199 1.245 . S
O218 Mg197 2.038 . S
O218 C199 1.274 . S
C219 C220 1.349 . S
C219 C221 1.327 . S
C219 H244 0.950 . S
C220 C219 1.349 . S
C220 C236 1.349 . S
C221 C219 1.327 . S
C221 C240 1.429 . S
C221 H245 0.950 . S
C222 C239 1.574 . S
C222 C241 1.368 . S
C222 H246 0.949 . S
H223 C227 0.949 . S
C224 C225 1.349 . S
C224 C226 1.327 . S
C224 H247 0.950 . S
C225 C224 1.349 . S
C225 C237 1.349 . S
C226 C224 1.327 . S
C226 C242 1.429 . S
C226 H248 0.950 . S
C227 H223 0.949 . S
C227 C235 1.574 . S
C227 C243 1.368 . S
H228 C236 0.950 . S
H229 C234 0.950 . S
H230 C235 0.949 . S
H231 C237 0.950 . S
H232 C238 0.950 . S
H233 C239 0.949 . S
C234 H229 0.950 . S
C234 C236 1.327 . S
C234 C240 1.429 . S
C235 C227 1.574 . S
C235 H230 0.949 . S
C235 C241 1.368 . S
C236 C220 1.349 . S
C236 H228 0.950 . S
C236 C234 1.327 . S
C237 C225 1.349 . S
C237 H231 0.950 . S
C237 C238 1.327 . S
C238 H232 0.950 . S
C238 C237 1.327 . S
C238 C242 1.429 . S
C239 C222 1.574 . S
C239 H233 0.949 . S
C239 C243 1.368 . S
C240 C221 1.429 . S
C240 C234 1.429 . S
C240 C241 1.523 . S
C241 C222 1.368 . S
C241 C235 1.368 . S
C241 C240 1.523 . S
C242 C226 1.429 . S
C242 C238 1.429 . S
C242 C243 1.523 . S
C243 C227 1.368 . S
C243 C239 1.368 . S
C243 C242 1.523 . S
H244 C219 0.950 . S
H245 C221 0.950 . S
H246 C222 0.949 . S
H247 C224 0.950 . S
H248 C226 0.950 . S
C249 C250 1.349 . S
C249 C251 1.327 . S
C249 H274 0.950 . S
C250 C249 1.349 . S
C250 C266 1.349 . S
C251 C249 1.327 . S
C251 C270 1.429 . S
C251 H275 0.950 . S
C252 C269 1.574 . S
C252 C271 1.368 . S
C252 H276 0.949 . S
H253 C257 0.949 . S
C254 C255 1.349 . S
C254 C256 1.327 . S
C254 H277 0.950 . S
C255 C254 1.349 . S
C255 C267 1.349 . S
C256 C254 1.327 . S
C256 C272 1.429 . S
C256 H278 0.950 . S
C257 H253 0.949 . S
C257 C265 1.574 . S
C257 C273 1.368 . S
H258 C266 0.950 . S
H259 C264 0.950 . S
H260 C265 0.949 . S
H261 C267 0.950 . S
H262 C268 0.950 . S
H263 C269 0.949 . S
C264 H259 0.950 . S
C264 C266 1.327 . S
C264 C270 1.429 . S
C265 C257 1.574 . S
C265 H260 0.949 . S
C265 C271 1.368 . S
C266 C250 1.349 . S
C266 H258 0.950 . S
C266 C264 1.327 . S
C267 C255 1.349 . S
C267 H261 0.950 . S
C267 C268 1.327 . S
C268 H262 0.950 . S
C268 C267 1.327 . S
C268 C272 1.429 . S
C269 C252 1.574 . S
C269 H263 0.949 . S
C269 C273 1.368 . S
C270 C251 1.429 . S
C270 C264 1.429 . S
C270 C271 1.523 . S
C271 C252 1.368 . S
C271 C265 1.368 . S
C271 C270 1.523 . S
C272 C256 1.429 . S
C272 C268 1.429 . S
C272 C273 1.523 . S
C273 C257 1.368 . S
C273 C269 1.368 . S
C273 C272 1.523 . S
H274 C249 0.950 . S
H275 C251 0.950 . S
H276 C252 0.949 . S
H277 C254 0.950 . S
H278 C256 0.950 . S
C279 C280 1.349 . S
C279 C281 1.327 . S
C279 H304 0.950 . S
C280 C279 1.349 . S
C280 C296 1.349 . S
C281 C279 1.327 . S
C281 C300 1.429 . S
C281 H305 0.950 . S
C282 C299 1.574 . S
C282 C301 1.368 . S
C282 H306 0.949 . S
H283 C287 0.949 . S
C284 C285 1.349 . S
C284 C286 1.327 . S
C284 H307 0.950 . S
C285 C284 1.349 . S
C285 C297 1.349 . S
C286 C284 1.327 . S
C286 C302 1.429 . S
C286 H308 0.950 . S
C287 H283 0.949 . S
C287 C295 1.574 . S
C287 C303 1.368 . S
H288 C296 0.950 . S
H289 C294 0.950 . S
H290 C295 0.949 . S
H291 C297 0.950 . S
H292 C298 0.950 . S
H293 C299 0.949 . S
C294 H289 0.950 . S
C294 C296 1.327 . S
C294 C300 1.429 . S
C295 C287 1.574 . S
C295 H290 0.949 . S
C295 C301 1.368 . S
C296 C280 1.349 . S
C296 H288 0.950 . S
C296 C294 1.327 . S
C297 C285 1.349 . S
C297 H291 0.950 . S
C297 C298 1.327 . S
C298 H292 0.950 . S
C298 C297 1.327 . S
C298 C302 1.429 . S
C299 C282 1.574 . S
C299 H293 0.949 . S
C299 C303 1.368 . S
C300 C281 1.429 . S
C300 C294 1.429 . S
C300 C301 1.523 . S
C301 C282 1.368 . S
C301 C295 1.368 . S
C301 C300 1.523 . S
C302 C286 1.429 . S
C302 C298 1.429 . S
C302 C303 1.523 . S
C303 C287 1.368 . S
C303 C299 1.368 . S
C303 C302 1.523 . S
H304 C279 0.950 . S
H305 C281 0.950 . S
H306 C282 0.949 . S
H307 C284 0.950 . S
H308 C286 0.950 . S
C309 C310 1.349 . S
C309 C311 1.327 . S
C309 H334 0.950 . S
C310 C309 1.349 . S
C310 C326 1.349 . S
C311 C309 1.327 . S
C311 C330 1.429 . S
C311 H335 0.950 . S
C312 C329 1.574 . S
C312 C331 1.368 . S
C312 H336 0.949 . S
H313 C317 0.949 . S
C314 C315 1.349 . S
C314 C316 1.327 . S
C314 H337 0.950 . S
C315 C314 1.349 . S
C315 C327 1.349 . S
C316 C314 1.327 . S
C316 C332 1.429 . S
C316 H338 0.950 . S
C317 H313 0.949 . S
C317 C325 1.574 . S
C317 C333 1.368 . S
H318 C326 0.950 . S
H319 C324 0.950 . S
H320 C325 0.949 . S
H321 C327 0.950 . S
H322 C328 0.950 . S
H323 C329 0.949 . S
C324 H319 0.950 . S
C324 C326 1.327 . S
C324 C330 1.429 . S
C325 C317 1.574 . S
C325 H320 0.949 . S
C325 C331 1.368 . S
C326 C310 1.349 . S
C326 H318 0.950 . S
C326 C324 1.327 . S
C327 C315 1.349 . S
C327 H321 0.950 . S
C327 C328 1.327 . S
C328 H322 0.950 . S
C328 C327 1.327 . S
C328 C332 1.429 . S
C329 C312 1.574 . S
C329 H323 0.949 . S
C329 C333 1.368 . S
C330 C311 1.429 . S
C330 C324 1.429 . S
C330 C331 1.523 . S
C331 C312 1.368 . S
C331 C325 1.368 . S
C331 C330 1.523 . S
C332 C316 1.429 . S
C332 C328 1.429 . S
C332 C333 1.523 . S
C333 C317 1.368 . S
C333 C329 1.368 . S
C333 C332 1.523 . S
H334 C309 0.950 . S
H335 C311 0.950 . S
H336 C312 0.949 . S
H337 C314 0.950 . S
H338 C316 0.950 . S
C339 C340 1.349 . S
C339 C341 1.327 . S
C339 H364 0.950 . S
C340 C339 1.349 . S
C340 C356 1.349 . S
C341 C339 1.327 . S
C341 C360 1.429 . S
C341 H365 0.950 . S
C342 C359 1.574 . S
C342 C361 1.368 . S
C342 H366 0.949 . S
H343 C347 0.949 . S
C344 C345 1.349 . S
C344 C346 1.327 . S
C344 H367 0.950 . S
C345 C344 1.349 . S
C345 C357 1.349 . S
C346 C344 1.327 . S
C346 C362 1.429 . S
C346 H368 0.950 . S
C347 H343 0.949 . S
C347 C355 1.574 . S
C347 C363 1.368 . S
H348 C356 0.950 . S
H349 C354 0.950 . S
H350 C355 0.949 . S
H351 C357 0.950 . S
H352 C358 0.950 . S
H353 C359 0.949 . S
C354 H349 0.950 . S
C354 C356 1.327 . S
C354 C360 1.429 . S
C355 C347 1.574 . S
C355 H350 0.949 . S
C355 C361 1.368 . S
C356 C340 1.349 . S
C356 H348 0.950 . S
C356 C354 1.327 . S
C357 C345 1.349 . S
C357 H351 0.950 . S
C357 C358 1.327 . S
C358 H352 0.950 . S
C358 C357 1.327 . S
C358 C362 1.429 . S
C359 C342 1.574 . S
C359 H353 0.949 . S
C359 C363 1.368 . S
C360 C341 1.429 . S
C360 C354 1.429 . S
C360 C361 1.523 . S
C361 C342 1.368 . S
C361 C355 1.368 . S
C361 C360 1.523 . S
C362 C346 1.429 . S
C362 C358 1.429 . S
C362 C363 1.523 . S
C363 C347 1.368 . S
C363 C359 1.368 . S
C363 C362 1.523 . S
H364 C339 0.950 . S
H365 C341 0.950 . S
H366 C342 0.949 . S
H367 C344 0.950 . S
H368 C346 0.950 . S
C369 C370 1.349 . S
C369 C371 1.327 . S
C369 H394 0.950 . S
C370 C369 1.349 . S
C370 C386 1.349 . S
C371 C369 1.327 . S
C371 C390 1.429 . S
C371 H395 0.950 . S
C372 C389 1.574 . S
C372 C391 1.368 . S
C372 H396 0.949 . S
H373 C377 0.949 . S
C374 C375 1.349 . S
C374 C376 1.327 . S
C374 H397 0.950 . S
C375 C374 1.349 . S
C375 C387 1.349 . S
C376 C374 1.327 . S
C376 C392 1.429 . S
C376 H398 0.950 . S
C377 H373 0.949 . S
C377 C385 1.574 . S
C377 C393 1.368 . S
H378 C386 0.950 . S
H379 C384 0.950 . S
H380 C385 0.949 . S
H381 C387 0.950 . S
H382 C388 0.950 . S
H383 C389 0.949 . S
C384 H379 0.950 . S
C384 C386 1.327 . S
C384 C390 1.429 . S
C385 C377 1.574 . S
C385 H380 0.949 . S
C385 C391 1.368 . S
C386 C370 1.349 . S
C386 H378 0.950 . S
C386 C384 1.327 . S
C387 C375 1.349 . S
C387 H381 0.950 . S
C387 C388 1.327 . S
C388 H382 0.950 . S
C388 C387 1.327 . S
C388 C392 1.429 . S
C389 C372 1.574 . S
C389 H383 0.949 . S
C389 C393 1.368 . S
C390 C371 1.429 . S
C390 C384 1.429 . S
C390 C391 1.523 . S
C391 C372 1.368 . S
C391 C385 1.368 . S
C391 C390 1.523 . S
C392 C376 1.429 . S
C392 C388 1.429 . S
C392 C393 1.523 . S
C393 C377 1.368 . S
C393 C389 1.368 . S
C393 C392 1.523 . S
H394 C369 0.950 . S
H395 C371 0.950 . S
H396 C372 0.949 . S
H397 C374 0.950 . S
H398 C376 0.950 . S
C399 C400 1.349 . S
C399 C401 1.327 . S
C399 H424 0.950 . S
C400 C399 1.349 . S
C400 C416 1.349 . S
C401 C399 1.327 . S
C401 C420 1.429 . S
C401 H425 0.950 . S
C402 C419 1.574 . S
C402 C421 1.368 . S
C402 H426 0.949 . S
H403 C407 0.949 . S
C404 C405 1.349 . S
C404 C406 1.327 . S
C404 H427 0.950 . S
C405 C404 1.349 . S
C405 C417 1.349 . S
C406 C404 1.327 . S
C406 C422 1.429 . S
C406 H428 0.950 . S
C407 H403 0.949 . S
C407 C415 1.574 . S
C407 C423 1.368 . S
H408 C416 0.950 . S
H409 C414 0.950 . S
H410 C415 0.949 . S
H411 C417 0.950 . S
H412 C418 0.950 . S
H413 C419 0.949 . S
C414 H409 0.950 . S
C414 C416 1.327 . S
C414 C420 1.429 . S
C415 C407 1.574 . S
C415 H410 0.949 . S
C415 C421 1.368 . S
C416 C400 1.349 . S
C416 H408 0.950 . S
C416 C414 1.327 . S
C417 C405 1.349 . S
C417 H411 0.950 . S
C417 C418 1.327 . S
C418 H412 0.950 . S
C418 C417 1.327 . S
C418 C422 1.429 . S
C419 C402 1.574 . S
C419 H413 0.949 . S
C419 C423 1.368 . S
C420 C401 1.429 . S
C420 C414 1.429 . S
C420 C421 1.523 . S
C421 C402 1.368 . S
C421 C415 1.368 . S
C421 C420 1.523 . S
C422 C406 1.429 . S
C422 C418 1.429 . S
C422 C423 1.523 . S
C423 C407 1.368 . S
C423 C419 1.368 . S
C423 C422 1.523 . S
H424 C399 0.950 . S
H425 C401 0.950 . S
H426 C402 0.949 . S
H427 C404 0.950 . S
H428 C406 0.950 . S
C429 C430 1.349 . S
C429 C431 1.327 . S
C429 H454 0.950 . S
C430 C429 1.349 . S
C430 C446 1.349 . S
C431 C429 1.327 . S
C431 C450 1.429 . S
C431 H455 0.950 . S
C432 C449 1.574 . S
C432 C451 1.368 . S
C432 H456 0.949 . S
H433 C437 0.949 . S
C434 C435 1.349 . S
C434 C436 1.327 . S
C434 H457 0.950 . S
C435 C434 1.349 . S
C435 C447 1.349 . S
C436 C434 1.327 . S
C436 C452 1.429 . S
C436 H458 0.950 . S
C437 H433 0.949 . S
C437 C445 1.574 . S
C437 C453 1.368 . S
H438 C446 0.950 1_554 S
H439 C444 0.950 . S
H440 C445 0.949 . S
H441 C447 0.950 . S
H442 C448 0.950 . S
H443 C449 0.949 . S
C444 H439 0.950 . S
C444 C446 1.327 . S
C444 C450 1.429 . S
C445 C437 1.574 . S
C445 H440 0.949 . S
C445 C451 1.368 . S
C446 C430 1.349 . S
C446 H438 0.950 1_556 S
C446 C444 1.327 . S
C447 C435 1.349 . S
C447 H441 0.950 . S
C447 C448 1.327 . S
C448 H442 0.950 . S
C448 C447 1.327 . S
C448 C452 1.429 . S
C449 C432 1.574 . S
C449 H443 0.949 . S
C449 C453 1.368 . S
C450 C431 1.429 . S
C450 C444 1.429 . S
C450 C451 1.523 . S
C451 C432 1.368 . S
C451 C445 1.368 . S
C451 C450 1.523 . S
C452 C436 1.429 . S
C452 C448 1.429 . S
C452 C453 1.523 . S
C453 C437 1.368 . S
C453 C449 1.368 . S
C453 C452 1.523 . S
H454 C429 0.950 . S
H455 C431 0.950 . S
H456 C432 0.949 . S
H457 C434 0.950 . S
H458 C436 0.950 . S
C459 C460 1.349 1_554 S
C459 C461 1.327 1_554 S
C459 H484 0.950 . S
C460 C459 1.349 1_556 S
C460 C476 1.349 . S
C461 C459 1.327 1_556 S
C461 C480 1.429 . S
C461 H485 0.950 . S
C462 C479 1.574 . S
C462 C481 1.368 . S
C462 H486 0.949 . S
H463 C467 0.949 . S
C464 C465 1.349 . S
C464 C466 1.327 . S
C464 H487 0.950 . S
C465 C464 1.349 . S
C465 C477 1.349 . S
C466 C464 1.327 . S
C466 C482 1.429 . S
C466 H488 0.950 . S
C467 H463 0.949 . S
C467 C475 1.574 . S
C467 C483 1.368 . S
H468 C476 0.950 . S
H469 C474 0.950 . S
H470 C475 0.949 . S
H471 C477 0.950 . S
H472 C478 0.950 . S
H473 C479 0.949 . S
C474 H469 0.950 . S
C474 C476 1.327 . S
C474 C480 1.429 . S
C475 C467 1.574 . S
C475 H470 0.949 . S
C475 C481 1.368 . S
C476 C460 1.349 . S
C476 H468 0.950 . S
C476 C474 1.327 . S
C477 C465 1.349 . S
C477 H471 0.950 . S
C477 C478 1.327 . S
C478 H472 0.950 . S
C478 C477 1.327 . S
C478 C482 1.429 . S
C479 C462 1.574 . S
C479 H473 0.949 . S
C479 C483 1.368 . S
C480 C461 1.429 . S
C480 C474 1.429 . S
C480 C481 1.523 . S
C481 C462 1.368 . S
C481 C475 1.368 . S
C481 C480 1.523 . S
C482 C466 1.429 . S
C482 C478 1.429 . S
C482 C483 1.523 . S
C483 C467 1.368 . S
C483 C479 1.368 . S
C483 C482 1.523 . S
H484 C459 0.950 . S
H485 C461 0.950 . S
H486 C462 0.949 . S
H487 C464 0.950 . S
H488 C466 0.950 . S
C489 C490 1.349 . S
C489 C491 1.327 . S
C489 H514 0.950 . S
C490 C489 1.349 . S
C490 C506 1.349 . S
C491 C489 1.327 . S
C491 C510 1.429 . S
C491 H515 0.950 1_554 S
C492 C509 1.574 1_554 S
C492 C511 1.368 1_554 S
C492 H516 0.949 . S
H493 C497 0.949 . S
C494 C495 1.349 . S
C494 C496 1.327 . S
C494 H517 0.950 . S
C495 C494 1.349 . S
C495 C507 1.349 . S
C496 C494 1.327 . S
C496 C512 1.429 . S
C496 H518 0.950 . S
C497 H493 0.949 . S
C497 C505 1.574 . S
C497 C513 1.368 . S
H498 C506 0.950 . S
H499 C504 0.950 . S
H500 C505 0.949 . S
H501 C507 0.950 . S
H502 C508 0.950 . S
H503 C509 0.949 . S
C504 H499 0.950 . S
C504 C506 1.327 . S
C504 C510 1.429 . S
C505 C497 1.574 . S
C505 H500 0.949 . S
C505 C511 1.368 . S
C506 C490 1.349 . S
C506 H498 0.950 . S
C506 C504 1.327 . S
C507 C495 1.349 . S
C507 H501 0.950 . S
C507 C508 1.327 . S
C508 H502 0.950 . S
C508 C507 1.327 . S
C508 C512 1.429 . S
C509 C492 1.574 1_556 S
C509 H503 0.949 . S
C509 C513 1.368 . S
C510 C491 1.429 . S
C510 C504 1.429 . S
C510 C511 1.523 1_554 S
C511 C492 1.368 1_556 S
C511 C505 1.368 . S
C511 C510 1.523 1_556 S
C512 C496 1.429 . S
C512 C508 1.429 . S
C512 C513 1.523 . S
C513 C497 1.368 . S
C513 C509 1.368 . S
C513 C512 1.523 . S
H514 C489 0.950 . S
H515 C491 0.950 1_556 S
H516 C492 0.949 . S
H517 C494 0.950 . S
H518 C496 0.950 . S
C519 C520 1.349 . S
C519 C521 1.327 1_554 S
C519 H544 0.950 . S
C520 C519 1.349 . S
C520 C536 1.349 . S
C521 C519 1.327 1_556 S
C521 C540 1.429 . S
C521 H545 0.950 . S
C522 C539 1.574 . S
C522 C541 1.368 . S
C522 H546 0.949 . S
H523 C527 0.949 . S
C524 C525 1.349 . S
C524 C526 1.327 . S
C524 H547 0.950 . S
C525 C524 1.349 . S
C525 C537 1.349 . S
C526 C524 1.327 . S
C526 C542 1.429 . S
C526 H548 0.950 . S
C527 H523 0.949 . S
C527 C535 1.574 . S
C527 C543 1.368 . S
H528 C536 0.950 . S
H529 C534 0.950 . S
H530 C535 0.949 . S
H531 C537 0.950 . S
H532 C538 0.950 . S
H533 C539 0.949 . S
C534 H529 0.950 . S
C534 C536 1.327 . S
C534 C540 1.429 1_554 S
C535 C527 1.574 . S
C535 H530 0.949 . S
C535 C541 1.368 . S
C536 C520 1.349 . S
C536 H528 0.950 . S
C536 C534 1.327 . S
C537 C525 1.349 . S
C537 H531 0.950 . S
C537 C538 1.327 . S
C538 H532 0.950 . S
C538 C537 1.327 . S
C538 C542 1.429 . S
C539 C522 1.574 . S
C539 H533 0.949 . S
C539 C543 1.368 . S
C540 C521 1.429 . S
C540 C534 1.429 1_556 S
C540 C541 1.523 . S
C541 C522 1.368 . S
C541 C535 1.368 . S
C541 C540 1.523 . S
C542 C526 1.429 . S
C542 C538 1.429 . S
C542 C543 1.523 . S
C543 C527 1.368 . S
C543 C539 1.368 . S
C543 C542 1.523 . S
H544 C519 0.950 . S
H545 C521 0.950 . S
H546 C522 0.949 . S
H547 C524 0.950 . S
H548 C526 0.950 . S
C549 C550 1.349 . S
C549 C551 1.327 . S
C549 H574 0.950 . S
C550 C549 1.349 . S
C550 C566 1.349 1_554 S
C551 C549 1.327 . S
C551 C570 1.429 1_554 S
C551 H575 0.950 . S
C552 C569 1.574 . S
C552 C571 1.368 . S
C552 H576 0.949 . S
H553 C557 0.949 . S
C554 C555 1.349 . S
C554 C556 1.327 . S
C554 H577 0.950 . S
C555 C554 1.349 . S
C555 C567 1.349 . S
C556 C554 1.327 . S
C556 C572 1.429 . S
C556 H578 0.950 . S
C557 H553 0.949 . S
C557 C565 1.574 . S
C557 C573 1.368 . S
H558 C566 0.950 . S
H559 C564 0.950 . S
H560 C565 0.949 . S
H561 C567 0.950 . S
H562 C568 0.950 . S
H563 C569 0.949 . S
C564 H559 0.950 . S
C564 C566 1.327 . S
C564 C570 1.429 . S
C565 C557 1.574 . S
C565 H560 0.949 . S
C565 C571 1.368 . S
C566 C550 1.349 1_556 S
C566 H558 0.950 . S
C566 C564 1.327 . S
C567 C555 1.349 . S
C567 H561 0.950 . S
C567 C568 1.327 . S
C568 H562 0.950 . S
C568 C567 1.327 . S
C568 C572 1.429 . S
C569 C552 1.574 . S
C569 H563 0.949 . S
C569 C573 1.368 . S
C570 C551 1.429 1_556 S
C570 C564 1.429 . S
C570 C571 1.523 . S
C571 C552 1.368 . S
C571 C565 1.368 . S
C571 C570 1.523 . S
C572 C556 1.429 . S
C572 C568 1.429 . S
C572 C573 1.523 . S
C573 C557 1.368 . S
C573 C569 1.368 . S
C573 C572 1.523 . S
H574 C549 0.950 . S
H575 C551 0.950 . S
H576 C552 0.949 . S
H577 C554 0.950 . S
H578 C556 0.950 . S
C579 C580 1.349 . S
C579 C581 1.327 . S
C579 H604 0.950 . S
C580 C579 1.349 . S
C580 C596 1.349 . S
C581 C579 1.327 . S
C581 C600 1.429 . S
C581 H605 0.950 . S
C582 C599 1.574 . S
C582 C601 1.368 . S
C582 H606 0.949 . S
H583 C587 0.949 . S
C584 C585 1.349 . S
C584 C586 1.327 . S
C584 H607 0.950 . S
C585 C584 1.349 . S
C585 C597 1.349 . S
C586 C584 1.327 . S
C586 C602 1.429 . S
C586 H608 0.950 . S
C587 H583 0.949 . S
C587 C595 1.574 . S
C587 C603 1.368 . S
H588 C596 0.950 . S
H589 C594 0.950 . S
H590 C595 0.949 . S
H591 C597 0.950 . S
H592 C598 0.950 . S
H593 C599 0.949 . S
C594 H589 0.950 . S
C594 C596 1.327 . S
C594 C600 1.429 . S
C595 C587 1.574 . S
C595 H590 0.949 . S
C595 C601 1.368 . S
C596 C580 1.349 . S
C596 H588 0.950 . S
C596 C594 1.327 . S
C597 C585 1.349 . S
C597 H591 0.950 . S
C597 C598 1.327 . S
C598 H592 0.950 . S
C598 C597 1.327 . S
C598 C602 1.429 . S
C599 C582 1.574 . S
C599 H593 0.949 . S
C599 C603 1.368 . S
C600 C581 1.429 . S
C600 C594 1.429 . S
C600 C601 1.523 . S
C601 C582 1.368 . S
C601 C595 1.368 . S
C601 C600 1.523 . S
C602 C586 1.429 . S
C602 C598 1.429 . S
C602 C603 1.523 . S
C603 C587 1.368 . S
C603 C599 1.368 . S
C603 C602 1.523 . S
H604 C579 0.950 . S
H605 C581 0.950 . S
H606 C582 0.949 . S
H607 C584 0.950 . S
H608 C586 0.950 . S
C609 C610 1.349 1_554 S
C609 C611 1.327 1_554 S
C609 H634 0.950 . S
C610 C609 1.349 1_556 S
C610 C626 1.349 . S
C611 C609 1.327 1_556 S
C611 C630 1.429 . S
C611 H635 0.950 1_556 S
C612 C629 1.574 . S
C612 C631 1.368 . S
C612 H636 0.949 . S
H613 C617 0.949 . S
C614 C615 1.349 . S
C614 C616 1.327 . S
C614 H637 0.950 . S
C615 C614 1.349 . S
C615 C627 1.349 . S
C616 C614 1.327 . S
C616 C632 1.429 . S
C616 H638 0.950 . S
C617 H613 0.949 . S
C617 C625 1.574 . S
C617 C633 1.368 . S
H618 C626 0.950 . S
H619 C624 0.950 . S
H620 C625 0.949 . S
H621 C627 0.950 . S
H622 C628 0.950 . S
H623 C629 0.949 . S
C624 H619 0.950 . S
C624 C626 1.327 . S
C624 C630 1.429 . S
C625 C617 1.574 . S
C625 H620 0.949 . S
C625 C631 1.368 . S
C626 C610 1.349 . S
C626 H618 0.950 . S
C626 C624 1.327 . S
C627 C615 1.349 . S
C627 H621 0.950 . S
C627 C628 1.327 . S
C628 H622 0.950 . S
C628 C627 1.327 . S
C628 C632 1.429 . S
C629 C612 1.574 . S
C629 H623 0.949 . S
C629 C633 1.368 . S
C630 C611 1.429 . S
C630 C624 1.429 . S
C630 C631 1.523 . S
C631 C612 1.368 . S
C631 C625 1.368 . S
C631 C630 1.523 . S
C632 C616 1.429 . S
C632 C628 1.429 . S
C632 C633 1.523 . S
C633 C617 1.368 . S
C633 C629 1.368 . S
C633 C632 1.523 . S
H634 C609 0.950 . S
H635 C611 0.950 1_554 S
H636 C612 0.949 . S
H637 C614 0.950 . S
H638 C616 0.950 . S
C639 C640 1.349 . S
C639 C641 1.327 . S
C639 H664 0.950 . S
C640 C639 1.349 . S
C640 C656 1.349 . S
C641 C639 1.327 . S
C641 C660 1.429 . S
C641 H665 0.950 . S
C642 C659 1.574 . S
C642 C661 1.368 . S
C642 H666 0.949 1_556 S
H643 C647 0.949 . S
C644 C645 1.349 . S
C644 C646 1.327 . S
C644 H667 0.950 . S
C645 C644 1.349 . S
C645 C657 1.349 . S
C646 C644 1.327 . S
C646 C662 1.429 . S
C646 H668 0.950 . S
C647 H643 0.949 . S
C647 C655 1.574 . S
C647 C663 1.368 . S
H648 C656 0.950 . S
H649 C654 0.950 . S
H650 C655 0.949 . S
H651 C657 0.950 . S
H652 C658 0.950 . S
H653 C659 0.949 . S
C654 H649 0.950 . S
C654 C656 1.327 . S
C654 C660 1.429 . S
C655 C647 1.574 . S
C655 H650 0.949 . S
C655 C661 1.368 . S
C656 C640 1.349 . S
C656 H648 0.950 . S
C656 C654 1.327 . S
C657 C645 1.349 . S
C657 H651 0.950 . S
C657 C658 1.327 . S
C658 H652 0.950 . S
C658 C657 1.327 . S
C658 C662 1.429 . S
C659 C642 1.574 . S
C659 H653 0.949 . S
C659 C663 1.368 . S
C660 C641 1.429 . S
C660 C654 1.429 . S
C660 C661 1.523 1_554 S
C661 C642 1.368 . S
C661 C655 1.368 . S
C661 C660 1.523 1_556 S
C662 C646 1.429 . S
C662 C658 1.429 . S
C662 C663 1.523 . S
C663 C647 1.368 . S
C663 C659 1.368 . S
C663 C662 1.523 . S
H664 C639 0.950 . S
H665 C641 0.950 . S
H666 C642 0.949 1_554 S
H667 C644 0.950 . S
H668 C646 0.950 . S
C669 C670 1.349 . S
C669 C671 1.327 . S
C669 H694 0.950 . S
C670 C669 1.349 . S
C670 C686 1.349 . S
C671 C669 1.327 . S
C671 C690 1.429 1_554 S
C671 H695 0.950 . S
C672 C689 1.574 . S
C672 C691 1.368 . S
C672 H696 0.949 . S
H673 C677 0.949 . S
C674 C675 1.349 . S
C674 C676 1.327 . S
C674 H697 0.950 . S
C675 C674 1.349 . S
C675 C687 1.349 . S
C676 C674 1.327 . S
C676 C692 1.429 . S
C676 H698 0.950 . S
C677 H673 0.949 . S
C677 C685 1.574 . S
C677 C693 1.368 . S
H678 C686 0.950 1_556 S
H679 C684 0.950 . S
H680 C685 0.949 . S
H681 C687 0.950 . S
H682 C688 0.950 . S
H683 C689 0.949 . S
C684 H679 0.950 . S
C684 C686 1.327 1_556 S
C684 C690 1.429 . S
C685 C677 1.574 . S
C685 H680 0.949 . S
C685 C691 1.368 . S
C686 C670 1.349 . S
C686 H678 0.950 1_554 S
C686 C684 1.327 1_554 S
C687 C675 1.349 . S
C687 H681 0.950 . S
C687 C688 1.327 . S
C688 H682 0.950 . S
C688 C687 1.327 . S
C688 C692 1.429 . S
C689 C672 1.574 . S
C689 H683 0.949 . S
C689 C693 1.368 . S
C690 C671 1.429 1_556 S
C690 C684 1.429 . S
C690 C691 1.523 . S
C691 C672 1.368 . S
C691 C685 1.368 . S
C691 C690 1.523 . S
C692 C676 1.429 . S
C692 C688 1.429 . S
C692 C693 1.523 . S
C693 C677 1.368 . S
C693 C689 1.368 . S
C693 C692 1.523 . S
H694 C669 0.950 . S
H695 C671 0.950 . S
H696 C672 0.949 . S
H697 C674 0.950 . S
H698 C676 0.950 . S
C699 C700 1.349 1_556 S
C699 C701 1.327 . S
C699 H724 0.950 . S
C700 C699 1.349 1_554 S
C700 C716 1.349 . S
C701 C699 1.327 . S
C701 C720 1.429 . S
C701 H725 0.950 . S
C702 C719 1.574 . S
C702 C721 1.368 . S
C702 H726 0.949 . S
H703 C707 0.949 . S
C704 C705 1.349 . S
C704 C706 1.327 . S
C704 H727 0.950 . S
C705 C704 1.349 . S
C705 C717 1.349 . S
C706 C704 1.327 . S
C706 C722 1.429 . S
C706 H728 0.950 . S
C707 H703 0.949 . S
C707 C715 1.574 . S
C707 C723 1.368 . S
H708 C716 0.950 . S
H709 C714 0.951 . S
H710 C715 0.949 . S
H711 C717 0.950 . S
H712 C718 0.950 . S
H713 C719 0.949 . S
C714 H709 0.951 . S
C714 C716 1.330 . S
C714 C720 1.424 1_554 S
C715 C707 1.574 . S
C715 H710 0.949 . S
C715 C721 1.368 . S
C716 C700 1.349 . S
C716 H708 0.950 . S
C716 C714 1.330 . S
C717 C705 1.349 . S
C717 H711 0.950 . S
C717 C718 1.327 . S
C718 H712 0.950 . S
C718 C717 1.327 . S
C718 C722 1.429 . S
C719 C702 1.574 . S
C719 H713 0.949 . S
C719 C723 1.368 . S
C720 C701 1.429 . S
C720 C714 1.424 1_556 S
C720 C721 1.523 . S
C721 C702 1.368 . S
C721 C715 1.368 . S
C721 C720 1.523 . S
C722 C706 1.429 . S
C722 C718 1.429 . S
C722 C723 1.523 . S
C723 C707 1.368 . S
C723 C719 1.368 . S
C723 C722 1.523 . S
H724 C699 0.950 . S
H725 C701 0.950 . S
H726 C702 0.949 . S
H727 C704 0.950 . S
H728 C706 0.950 . S
C729 C730 1.349 . S
C729 C731 1.327 . S
C729 H754 0.950 . S
C730 C729 1.349 . S
C730 C746 1.349 . S
C731 C729 1.327 . S
C731 C750 1.429 . S
C731 H755 0.950 . S
C732 C749 1.574 . S
C732 C751 1.368 . S
C732 H756 0.949 . S
H733 C737 0.949 . S
C734 C735 1.349 . S
C734 C736 1.327 . S
C734 H757 0.950 . S
C735 C734 1.349 . S
C735 C747 1.349 . S
C736 C734 1.327 . S
C736 C752 1.429 . S
C736 H758 0.950 . S
C737 H733 0.949 . S
C737 C745 1.574 . S
C737 C753 1.368 . S
H738 C746 0.950 . S
H739 C744 0.950 . S
H740 C745 0.949 . S
H741 C747 0.950 . S
H742 C748 0.950 . S
H743 C749 0.949 . S
C744 H739 0.950 . S
C744 C746 1.327 . S
C744 C750 1.429 . S
C745 C737 1.574 . S
C745 H740 0.949 . S
C745 C751 1.368 . S
C746 C730 1.349 . S
C746 H738 0.950 . S
C746 C744 1.327 . S
C747 C735 1.349 . S
C747 H741 0.950 . S
C747 C748 1.327 . S
C748 H742 0.950 . S
C748 C747 1.327 . S
C748 C752 1.429 . S
C749 C732 1.574 . S
C749 H743 0.949 . S
C749 C753 1.368 . S
C750 C731 1.429 . S
C750 C744 1.429 . S
C750 C751 1.523 . S
C751 C732 1.368 . S
C751 C745 1.368 . S
C751 C750 1.523 . S
C752 C736 1.429 . S
C752 C748 1.429 . S
C752 C753 1.523 . S
C753 C737 1.368 . S
C753 C749 1.368 . S
C753 C752 1.523 . S
H754 C729 0.950 . S
H755 C731 0.950 . S
H756 C732 0.949 . S
H757 C734 0.950 . S
H758 C736 0.950 . S
C759 C760 1.349 . S
C759 C761 1.327 . S
C759 H784 0.950 . S
C760 C759 1.349 . S
C760 C776 1.349 . S
C761 C759 1.327 . S
C761 C780 1.429 . S
C761 H785 0.950 . S
C762 C779 1.574 . S
C762 C781 1.368 . S
C762 H786 0.949 . S
H763 C767 0.949 . S
C764 C765 1.349 . S
C764 C766 1.327 . S
C764 H787 0.950 . S
C765 C764 1.349 . S
C765 C777 1.349 . S
C766 C764 1.327 . S
C766 C782 1.429 . S
C766 H788 0.950 . S
C767 H763 0.949 . S
C767 C775 1.574 . S
C767 C783 1.368 . S
H768 C776 0.950 . S
H769 C774 0.950 . S
H770 C775 0.949 . S
H771 C777 0.950 . S
H772 C778 0.950 . S
H773 C779 0.949 . S
C774 H769 0.950 . S
C774 C776 1.327 . S
C774 C780 1.429 . S
C775 C767 1.574 . S
C775 H770 0.949 . S
C775 C781 1.368 . S
C776 C760 1.349 . S
C776 H768 0.950 . S
C776 C774 1.327 . S
C777 C765 1.349 . S
C777 H771 0.950 . S
C777 C778 1.327 . S
C778 H772 0.950 . S
C778 C777 1.327 . S
C778 C782 1.429 . S
C779 C762 1.574 . S
C779 H773 0.949 . S
C779 C783 1.368 . S
C780 C761 1.429 . S
C780 C774 1.429 . S
C780 C781 1.523 . S
C781 C762 1.368 . S
C781 C775 1.368 . S
C781 C780 1.523 . S
C782 C766 1.429 . S
C782 C778 1.429 . S
C782 C783 1.523 . S
C783 C767 1.368 . S
C783 C779 1.368 . S
C783 C782 1.523 . S
H784 C759 0.950 . S
H785 C761 0.950 . S
H786 C762 0.949 . S
H787 C764 0.950 . S
H788 C766 0.950 . S
C789 C790 1.349 . S
C789 C791 1.327 . S
C789 H814 0.950 . S
C790 C789 1.349 . S
C790 C806 1.349 . S
C791 C789 1.327 . S
C791 C810 1.429 . S
C791 H815 0.950 . S
C792 C809 1.574 . S
C792 C811 1.368 . S
C792 H816 0.949 . S
H793 C797 0.949 . S
C794 C795 1.349 . S
C794 C796 1.327 . S
C794 H817 0.950 . S
C795 C794 1.349 . S
C795 C807 1.349 . S
C796 C794 1.327 . S
C796 C812 1.429 . S
C796 H818 0.950 . S
C797 H793 0.949 . S
C797 C805 1.574 . S
C797 C813 1.368 . S
H798 C806 0.950 . S
H799 C804 0.950 . S
H800 C805 0.949 . S
H801 C807 0.950 . S
H802 C808 0.950 . S
H803 C809 0.949 . S
C804 H799 0.950 . S
C804 C806 1.327 . S
C804 C810 1.429 . S
C805 C797 1.574 . S
C805 H800 0.949 . S
C805 C811 1.368 . S
C806 C790 1.349 . S
C806 H798 0.950 . S
C806 C804 1.327 . S
C807 C795 1.349 . S
C807 H801 0.950 . S
C807 C808 1.327 . S
C808 H802 0.950 . S
C808 C807 1.327 . S
C808 C812 1.429 . S
C809 C792 1.574 . S
C809 H803 0.949 . S
C809 C813 1.368 . S
C810 C791 1.429 . S
C810 C804 1.429 . S
C810 C811 1.523 . S
C811 C792 1.368 . S
C811 C805 1.368 . S
C811 C810 1.523 . S
C812 C796 1.429 . S
C812 C808 1.429 . S
C812 C813 1.523 . S
C813 C797 1.368 . S
C813 C809 1.368 . S
C813 C812 1.523 . S
H814 C789 0.950 . S
H815 C791 0.950 . S
H816 C792 0.949 . S
H817 C794 0.950 . S
H818 C796 0.950 . S
C819 C820 1.349 . S
C819 C821 1.327 . S
C819 H844 0.950 . S
C820 C819 1.349 . S
C820 C836 1.349 . S
C821 C819 1.327 . S
C821 C840 1.429 . S
C821 H845 0.950 . S
C822 C839 1.574 . S
C822 C841 1.368 . S
C822 H846 0.949 . S
H823 C827 0.949 . S
C824 C825 1.349 . S
C824 C826 1.327 . S
C824 H847 0.950 . S
C825 C824 1.349 . S
C825 C837 1.349 . S
C826 C824 1.327 . S
C826 C842 1.429 . S
C826 H848 0.950 . S
C827 H823 0.949 . S
C827 C835 1.574 . S
C827 C843 1.368 . S
H828 C836 0.950 . S
H829 C834 0.950 . S
H830 C835 0.949 . S
H831 C837 0.950 . S
H832 C838 0.950 . S
H833 C839 0.949 . S
C834 H829 0.950 . S
C834 C836 1.327 . S
C834 C840 1.429 . S
C835 C827 1.574 . S
C835 H830 0.949 . S
C835 C841 1.368 . S
C836 C820 1.349 . S
C836 H828 0.950 . S
C836 C834 1.327 . S
C837 C825 1.349 . S
C837 H831 0.950 . S
C837 C838 1.327 . S
C838 H832 0.950 . S
C838 C837 1.327 . S
C838 C842 1.429 . S
C839 C822 1.574 . S
C839 H833 0.949 . S
C839 C843 1.368 . S
C840 C821 1.429 . S
C840 C834 1.429 . S
C840 C841 1.523 . S
C841 C822 1.368 . S
C841 C835 1.368 . S
C841 C840 1.523 . S
C842 C826 1.429 . S
C842 C838 1.429 . S
C842 C843 1.523 . S
C843 C827 1.368 . S
C843 C839 1.368 . S
C843 C842 1.523 . S
H844 C819 0.950 . S
H845 C821 0.950 . S
H846 C822 0.949 . S
H847 C824 0.950 . S
H848 C826 0.950 . S
C849 C850 1.349 . S
C849 C851 1.327 . S
C849 H874 0.950 . S
C850 C849 1.349 . S
C850 C866 1.349 . S
C851 C849 1.327 . S
C851 C870 1.429 . S
C851 H875 0.950 . S
C852 C869 1.574 . S
C852 C871 1.368 . S
C852 H876 0.949 . S
H853 C857 0.949 . S
C854 C855 1.349 . S
C854 C856 1.327 . S
C854 H877 0.950 . S
C855 C854 1.349 . S
C855 C867 1.349 . S
C856 C854 1.327 . S
C856 C872 1.429 . S
C856 H878 0.950 . S
C857 H853 0.949 . S
C857 C865 1.574 . S
C857 C873 1.368 . S
H858 C866 0.950 . S
H859 C864 0.950 . S
H860 C865 0.949 . S
H861 C867 0.950 . S
H862 C868 0.950 . S
H863 C869 0.949 . S
C864 H859 0.950 . S
C864 C866 1.327 . S
C864 C870 1.429 . S
C865 C857 1.574 . S
C865 H860 0.949 . S
C865 C871 1.368 . S
C866 C850 1.349 . S
C866 H858 0.950 . S
C866 C864 1.327 . S
C867 C855 1.349 . S
C867 H861 0.950 . S
C867 C868 1.327 . S
C868 H862 0.950 . S
C868 C867 1.327 . S
C868 C872 1.429 . S
C869 C852 1.574 . S
C869 H863 0.949 . S
C869 C873 1.368 . S
C870 C851 1.429 . S
C870 C864 1.429 . S
C870 C871 1.523 . S
C871 C852 1.368 . S
C871 C865 1.368 . S
C871 C870 1.523 . S
C872 C856 1.429 . S
C872 C868 1.429 . S
C872 C873 1.523 . S
C873 C857 1.368 . S
C873 C869 1.368 . S
C873 C872 1.523 . S
H874 C849 0.950 . S
H875 C851 0.950 . S
H876 C852 0.949 . S
H877 C854 0.950 . S
H878 C856 0.950 . S
C879 C880 1.349 . S
C879 C881 1.327 . S
C879 H904 0.950 . S
C880 C879 1.349 . S
C880 C896 1.349 . S
C881 C879 1.327 . S
C881 C900 1.429 . S
C881 H905 0.950 . S
C882 C899 1.574 . S
C882 C901 1.368 . S
C882 H906 0.949 . S
H883 C887 0.949 . S
C884 C885 1.349 . S
C884 C886 1.327 . S
C884 H907 0.950 . S
C885 C884 1.349 . S
C885 C897 1.349 . S
C886 C884 1.327 . S
C886 C902 1.429 . S
C886 H908 0.950 . S
C887 H883 0.949 . S
C887 C895 1.574 . S
C887 C903 1.368 . S
H888 C896 0.950 . S
H889 C894 0.950 . S
H890 C895 0.949 . S
H891 C897 0.950 . S
H892 C898 0.950 . S
H893 C899 0.949 . S
C894 H889 0.950 . S
C894 C896 1.327 . S
C894 C900 1.429 . S
C895 C887 1.574 . S
C895 H890 0.949 . S
C895 C901 1.368 . S
C896 C880 1.349 . S
C896 H888 0.950 . S
C896 C894 1.327 . S
C897 C885 1.349 . S
C897 H891 0.950 . S
C897 C898 1.327 . S
C898 H892 0.950 . S
C898 C897 1.327 . S
C898 C902 1.429 . S
C899 C882 1.574 . S
C899 H893 0.949 . S
C899 C903 1.368 . S
C900 C881 1.429 . S
C900 C894 1.429 . S
C900 C901 1.523 . S
C901 C882 1.368 . S
C901 C895 1.368 . S
C901 C900 1.523 . S
C902 C886 1.429 . S
C902 C898 1.429 . S
C902 C903 1.523 . S
C903 C887 1.368 . S
C903 C899 1.368 . S
C903 C902 1.523 . S
H904 C879 0.950 . S
H905 C881 0.950 . S
H906 C882 0.949 . S
H907 C884 0.950 . S
H908 C886 0.950 . S
C909 C910 1.349 . S
C909 C911 1.327 . S
C909 H934 0.950 . S
C910 C909 1.349 . S
C910 C926 1.349 . S
C911 C909 1.327 . S
C911 C930 1.429 . S
C911 H935 0.950 . S
C912 C929 1.574 . S
C912 C931 1.368 . S
C912 H936 0.949 . S
H913 C917 0.949 . S
C914 C915 1.349 . S
C914 C916 1.327 . S
C914 H937 0.950 . S
C915 C914 1.349 . S
C915 C927 1.349 . S
C916 C914 1.327 . S
C916 C932 1.429 . S
C916 H938 0.950 . S
C917 H913 0.949 . S
C917 C925 1.574 . S
C917 C933 1.368 . S
H918 C926 0.950 . S
H919 C924 0.950 . S
H920 C925 0.949 . S
H921 C927 0.950 . S
H922 C928 0.950 . S
H923 C929 0.949 . S
C924 H919 0.950 . S
C924 C926 1.327 . S
C924 C930 1.429 . S
C925 C917 1.574 . S
C925 H920 0.949 . S
C925 C931 1.368 . S
C926 C910 1.349 . S
C926 H918 0.950 . S
C926 C924 1.327 . S
C927 C915 1.349 . S
C927 H921 0.950 . S
C927 C928 1.327 . S
C928 H922 0.950 . S
C928 C927 1.327 . S
C928 C932 1.429 . S
C929 C912 1.574 . S
C929 H923 0.949 . S
C929 C933 1.368 . S
C930 C911 1.429 . S
C930 C924 1.429 . S
C930 C931 1.523 . S
C931 C912 1.368 . S
C931 C925 1.368 . S
C931 C930 1.523 . S
C932 C916 1.429 . S
C932 C928 1.429 . S
C932 C933 1.523 . S
C933 C917 1.368 . S
C933 C929 1.368 . S
C933 C932 1.523 . S
H934 C909 0.950 . S
H935 C911 0.950 . S
H936 C912 0.949 . S
H937 C914 0.950 . S
H938 C916 0.950 . S
C220 C12 1.761 . S
C225 C137 1.865 . S
C250 C40 1.651 . S
C255 C184 1.676 . S
C285 C188 1.897 . S
C280 C61 1.918 . S
C315 C153 1.568 . S
C310 C82 1.569 . S
C340 C96 1.687 . S
C345 C168 1.760 . S
C375 C190 1.028 . S
C370 C117 0.973 . S
C405 C159 1.479 . S
C400 C51 1.467 . S
C430 C72 1.405 1_556 S
C435 C199 1.412 . S
C465 C128 1.346 . S
C460 C101 1.294 1_556 S
C490 C122 1.458 . S
C495 C157 1.507 . S
C520 C17 1.940 . S
C525 C215 2.006 . S
C555 C126 1.593 . S
C550 C30 1.581 . S
C585 C144 1.850 . S
C580 C80 1.838 1_556 S
C615 C158 1.674 . S
C610 C93 1.600 1_556 S
C645 C212 1.895 . S
C640 C114 1.859 . S
C675 C127 1.565 . S
C670 C9 1.518 . S
C705 C175 1.743 . S
C700 C38 1.761 . S
C730 C59 1.000 . S
C735 C198 1.019 . S
C765 C167 1.449 . S
C760 C124 1.405 . S
C795 C206 1.374 . S
C790 C19 1.328 . S
C825 C136 1.319 . S
C820 C33 1.321 . S
C855 C181 1.488 . S
C850 C54 1.475 . S
C880 C75 1.963 . S
C885 C189 1.985 . S
C910 C103 1.518 . S
C915 C150 1.564 . S
