# Generated by pormake.
# Topology nom, (4,4)-cn, num edge types: 1
# Building blocks:
#     Node 0, Type 0, BuildingBlock: NAHDIM_clean_linker_0, # of connection points: 4
#     Node 1, Type 0, BuildingBlock: NAHDIM_clean_linker_0, # of connection points: 4
#     Node 2, Type 0, BuildingBlock: NAHDIM_clean_linker_0, # of connection points: 4
#     Node 3, Type 0, BuildingBlock: NAHDIM_clean_linker_0, # of connection points: 4
#     Node 4, Type 0, BuildingBlock: NAHDIM_clean_linker_0, # of connection points: 4
#     Node 5, Type 0, BuildingBlock: NAHDIM_clean_linker_0, # of connection points: 4
#     Node 6, Type 1, BuildingBlock: UXUYUI_clean_sbu_0, # of connection points: 4
#     Node 7, Type 1, BuildingBlock: UXUYUI_clean_sbu_0, # of connection points: 4
#     Node 8, Type 1, BuildingBlock: UXUYUI_clean_sbu_0, # of connection points: 4
#     Node 9, Type 1, BuildingBlock: UXUYUI_clean_sbu_0, # of connection points: 4
#     Node 10, Type 1, BuildingBlock: UXUYUI_clean_sbu_0, # of connection points: 4
#     Node 11, Type 1, BuildingBlock: UXUYUI_clean_sbu_0, # of connection points: 4
#     Edge 12, Type (0, 1), None
#     Edge 13, Type (0, 1), None
#     Edge 14, Type (0, 1), None
#     Edge 15, Type (0, 1), None
#     Edge 16, Type (0, 1), None
#     Edge 17, Type (0, 1), None
#     Edge 18, Type (0, 1), None
#     Edge 19, Type (0, 1), None
#     Edge 20, Type (0, 1), None
#     Edge 21, Type (0, 1), None
#     Edge 22, Type (0, 1), None
#     Edge 23, Type (0, 1), None
#     Edge 24, Type (0, 1), None
#     Edge 25, Type (0, 1), None
#     Edge 26, Type (0, 1), None
#     Edge 27, Type (0, 1), None
#     Edge 28, Type (0, 1), None
#     Edge 29, Type (0, 1), None
#     Edge 30, Type (0, 1), None
#     Edge 31, Type (0, 1), None
#     Edge 32, Type (0, 1), None
#     Edge 33, Type (0, 1), None
#     Edge 34, Type (0, 1), None
#     Edge 35, Type (0, 1), None
# Relax obj value: 0.086
# Max RMSD: 0.157
# Mean RMSD: 0.138
data_MOF--net-nom--node1-UXUYUI_clean_sbu_0--node2-NAHDIM_clean_linker_0--edge1-none
_symmetry_space_group_name_H-M    P1
_symmetry_Int_Tables_number       1
_symmetry_cell_setting            triclinic
loop_
_symmetry_equiv_pos_as_xyz
'x, y, z'
_cell_length_a     44.541698
_cell_length_b     44.546194
_cell_length_c     54.349158
_cell_angle_alpha  90.129821
_cell_angle_beta   90.141037
_cell_angle_gamma 119.92133
loop_
_atom_site_label
_atom_site_type_symbol
_atom_site_fract_x
_atom_site_fract_y
_atom_site_fract_z
_atom_type_partial_charge
C0 C 0.21157 0.66668 0.30391 0.0
C1 C 0.20971 0.6726 0.27623 0.0
C2 C 0.16139 0.61473 0.26643 0.0
C3 C 0.15442 0.58106 0.26141 0.0
C4 C 0.12166 0.55237 0.26614 0.0
C5 C 0.09522 0.55779 0.27564 0.0
C6 C 0.10149 0.59193 0.27924 0.0
C7 C 0.13456 0.62004 0.27473 0.0
C8 C 0.11564 0.51631 0.26191 0.0
C9 C 0.07353 0.59876 0.28858 0.0
C10 C 0.88116 0.42531 0.15641 0.0
C11 C 0.90951 0.43574 0.17458 0.0
C12 C 0.92236 0.44155 0.21728 0.0
C13 C 0.92886 0.47217 0.229 0.0
C14 C 0.95512 0.48778 0.24677 0.0
C15 C 0.97478 0.4719 0.25314 0.0
C16 C 0.9678 0.44056 0.24158 0.0
C17 C 0.94166 0.42578 0.22361 0.0
C18 C 0.96201 0.52129 0.25865 0.0
C19 C 0.98796 0.42278 0.24825 0.0
C20 C 0.85998 0.4187 0.3808 0.0
C21 C 0.88092 0.45484 0.38076 0.0
C22 C 0.91706 0.47026 0.38106 0.0
C23 C 0.93232 0.44897 0.38151 0.0
C24 C 0.91122 0.41277 0.38439 0.0
C25 C 0.87508 0.39803 0.38413 0.0
C26 C 0.93885 0.50912 0.37893 0.0
C27 C 0.92678 0.38953 0.38552 0.0
C28 C 0.19156 0.57009 0.43355 0.0
C29 C 0.16816 0.55331 0.45591 0.0
C30 C 0.11196 0.54042 0.43805 0.0
C31 C 0.09047 0.55458 0.43471 0.0
C32 C 0.06332 0.54055 0.41748 0.0
C33 C 0.05699 0.51091 0.40376 0.0
C34 C 0.07764 0.49541 0.40789 0.0
C35 C 0.1052 0.51056 0.42479 0.0
C36 C 0.0419 0.55783 0.41366 0.0
C37 C 0.07095 0.46313 0.39418 0.0
C38 C 0.06163 0.52812 0.28339 0.0
C39 C 0.03552 0.51167 0.26571 0.0
C40 C 0.00173 0.48744 0.27259 0.0
C41 C 0.99353 0.47986 0.29773 0.0
C42 C 0.95934 0.45756 0.30535 0.0
C43 C 0.95119 0.45211 0.33018 0.0
C44 C 0.97709 0.46782 0.34836 0.0
C45 C 0.96879 0.46386 0.37365 0.0
C46 C 0.99517 0.47759 0.39131 0.0
C47 C 0.02994 0.49706 0.38428 0.0
C48 C 0.03847 0.50399 0.35905 0.0
C49 C 0.07272 0.52627 0.35138 0.0
C50 C 0.08048 0.53392 0.3266 0.0
C51 C 0.05441 0.51914 0.30848 0.0
C52 C 0.02005 0.4956 0.31571 0.0
C53 C 0.01194 0.48879 0.34105 0.0
C54 C 0.78994 0.38583 0.34104 0.0
C55 C 0.80916 0.41421 0.36033 0.0
O56 O 0.19437 0.64122 0.26365 0.0
O57 O 0.13883 0.55656 0.45412 0.0
O58 O 0.82537 0.40306 0.37682 0.0
O59 O 0.8989 0.42847 0.19878 0.0
H60 H 0.19452 0.6859 0.27316 0.0
H61 H 0.22608 0.65273 0.30718 0.0
H62 H 0.1852 0.6511 0.3117 0.0
H63 H 0.22468 0.69179 0.31396 0.0
H64 H 0.17519 0.57727 0.25469 0.0
H65 H 0.13929 0.64599 0.27804 0.0
H66 H 0.09381 0.50225 0.24879 0.0
H67 H 0.13893 0.51645 0.2545 0.0
H68 H 0.10823 0.50175 0.27949 0.0
H69 H 0.08097 0.62648 0.28696 0.0
H70 H 0.04903 0.58285 0.27825 0.0
H71 H 0.06844 0.59132 0.30825 0.0
H72 H 0.93016 0.42971 0.16938 0.0
H73 H 0.88932 0.47607 0.14196 0.0
H74 H 0.88263 0.4054 0.14439 0.0
H75 H 0.85653 0.40566 0.16582 0.0
H76 H 0.91386 0.48422 0.2238 0.0
H77 H 0.93637 0.4021 0.21427 0.0
H78 H 0.9581 0.51771 0.27883 0.0
H79 H 0.98937 0.54155 0.25556 0.0
H80 H 0.94484 0.53063 0.2513 0.0
H81 H 0.97953 0.39864 0.23745 0.0
H82 H 0.016 0.4406 0.24501 0.0
H83 H 0.98468 0.41627 0.26813 0.0
H84 H 0.82836 0.4377 0.35021 0.0
H85 H 0.86909 0.47094 0.37957 0.0
H86 H 0.85852 0.37015 0.38486 0.0
H87 H 0.94978 0.51591 0.36009 0.0
H88 H 0.92357 0.52219 0.38244 0.0
H89 H 0.96086 0.51926 0.39211 0.0
H90 H 0.90752 0.3628 0.39123 0.0
H91 H 0.93679 0.38832 0.36707 0.0
H92 H 0.94898 0.40028 0.39857 0.0
H93 H 0.16091 0.52556 0.45673 0.0
H94 H 0.21524 0.56781 0.43486 0.0
H95 H 0.17777 0.55701 0.41632 0.0
H96 H 0.19931 0.59795 0.4324 0.0
H97 H 0.0957 0.57741 0.44522 0.0
H98 H 0.12122 0.49892 0.42744 0.0
H99 H 0.04016 0.56241 0.39376 0.0
H100 H 0.0152 0.5405 0.42038 0.0
H101 H 0.05276 0.58293 0.42363 0.0
H102 H 0.08534 0.45112 0.40232 0.0
H103 H 0.04285 0.44377 0.39413 0.0
H104 H 0.0792 0.46979 0.37476 0.0
H105 H 0.04125 0.51873 0.24649 0.0
H106 H 0.93831 0.44474 0.29226 0.0
H107 H 0.92426 0.43533 0.33488 0.0
H108 H 0.98855 0.47389 0.41069 0.0
H109 H 0.09381 0.53866 0.36448 0.0
H110 H 0.10721 0.55162 0.3218 0.0
H111 H 0.77697 0.39416 0.32738 0.0
H112 H 0.8086 0.38055 0.33111 0.0
H113 H 0.77014 0.36148 0.34989 0.0
C114 C 0.37806 0.8349 0.51388 0.0
C115 C 0.37279 0.8364 0.54171 0.0
C116 C 0.43104 0.8844 0.55121 0.0
C117 C 0.46468 0.89121 0.55614 0.0
C118 C 0.49344 0.92396 0.55152 0.0
C119 C 0.48812 0.95055 0.54219 0.0
C120 C 0.45402 0.94442 0.53867 0.0
C121 C 0.42583 0.91138 0.54312 0.0
C122 C 0.52947 0.92983 0.55568 0.0
C123 C 0.44731 0.97252 0.52947 0.0
C124 C 0.62016 0.16429 0.66164 0.0
C125 C 0.60959 0.13593 0.64347 0.0
C126 C 0.60434 0.12319 0.60076 0.0
C127 C 0.57347 0.11639 0.58927 0.0
C128 C 0.55795 0.09024 0.57141 0.0
C129 C 0.5741 0.07093 0.56477 0.0
C130 C 0.60567 0.0782 0.57612 0.0
C131 C 0.62041 0.10428 0.59414 0.0
C132 C 0.52423 0.08308 0.55973 0.0
C133 C 0.62372 0.05839 0.56919 0.0
C134 C 0.62572 0.1855 0.43622 0.0
C135 C 0.58967 0.16393 0.43619 0.0
C136 C 0.57495 0.12788 0.43635 0.0
C137 C 0.59685 0.11331 0.43634 0.0
C138 C 0.63301 0.13498 0.43359 0.0
C139 C 0.64705 0.17104 0.43344 0.0
C140 C 0.53612 0.10548 0.4384 0.0
C141 C 0.65689 0.12014 0.43294 0.0
C142 C 0.47466 0.85425 0.38438 0.0
C143 C 0.49254 0.87739 0.3621 0.0
C144 C 0.50623 0.93395 0.37968 0.0
C145 C 0.49236 0.95573 0.38282 0.0
C146 C 0.5063 0.98273 0.40014 0.0
C147 C 0.5356 0.98869 0.41415 0.0
C148 C 0.55082 0.96774 0.41023 0.0
C149 C 0.53571 0.94027 0.39327 0.0
C150 C 0.48928 0.00444 0.40372 0.0
C151 C 0.58279 0.97404 0.42421 0.0
C152 C 0.51786 0.98412 0.53449 0.0
C153 C 0.53429 0.01022 0.55217 0.0
C154 C 0.55856 0.04401 0.54531 0.0
C155 C 0.56619 0.05221 0.52017 0.0
C156 C 0.58843 0.08641 0.51255 0.0
C157 C 0.59396 0.09456 0.48772 0.0
C158 C 0.57843 0.06863 0.46955 0.0
C159 C 0.58246 0.07692 0.44425 0.0
C160 C 0.56891 0.05051 0.4266 0.0
C161 C 0.54944 0.01575 0.43364 0.0
C162 C 0.54237 0.00724 0.45886 0.0
C163 C 0.51999 0.97301 0.46652 0.0
C164 C 0.51221 0.96526 0.49129 0.0
C165 C 0.52695 0.99134 0.50941 0.0
C166 C 0.55055 0.02569 0.50219 0.0
C167 C 0.55749 0.03378 0.47686 0.0
C168 C 0.65666 0.25139 0.47742 0.0
C169 C 0.62962 0.23584 0.45682 0.0
O170 O 0.40449 0.85141 0.55387 0.0
O171 O 0.49023 0.90728 0.36344 0.0
O172 O 0.64056 0.22014 0.43974 0.0
O173 O 0.61743 0.14656 0.6193 0.0
H174 H 0.35956 0.85159 0.54505 0.0
H175 H 0.39173 0.82025 0.51007 0.0
H176 H 0.39364 0.86135 0.50622 0.0
H177 H 0.35273 0.82212 0.50409 0.0
H178 H 0.4684 0.87033 0.5627 0.0
H179 H 0.39991 0.90676 0.53988 0.0
H180 H 0.54366 0.95166 0.56876 0.0
H181 H 0.52924 0.90649 0.56308 0.0
H182 H 0.54394 0.93715 0.53806 0.0
H183 H 0.41959 0.96511 0.53101 0.0
H184 H 0.46317 0.99689 0.53996 0.0
H185 H 0.45492 0.97786 0.50984 0.0
H186 H 0.6151 0.11497 0.6488 0.0
H187 H 0.56948 0.15694 0.67562 0.0
H188 H 0.63967 0.16241 0.67385 0.0
H189 H 0.64023 0.18881 0.65233 0.0
H190 H 0.5612 0.13109 0.59468 0.0
H191 H 0.64427 0.1098 0.6033 0.0
H192 H 0.52747 0.08664 0.53951 0.0
H193 H 0.50408 0.05576 0.5631 0.0
H194 H 0.51494 0.10031 0.56703 0.0
H195 H 0.64791 0.06689 0.57994 0.0
H196 H 0.60609 0.03028 0.57227 0.0
H197 H 0.6302 0.06197 0.54931 0.0
H198 H 0.60483 0.21688 0.46571 0.0
H199 H 0.57308 0.17525 0.43692 0.0
H200 H 0.67487 0.18806 0.43279 0.0
H201 H 0.52941 0.09435 0.45718 0.0
H202 H 0.52257 0.12031 0.43494 0.0
H203 H 0.52642 0.08361 0.42513 0.0
H204 H 0.68355 0.13972 0.42729 0.0
H205 H 0.65815 0.11053 0.45153 0.0
H206 H 0.64668 0.09779 0.42004 0.0
H207 H 0.52018 0.88421 0.36159 0.0
H208 H 0.47613 0.8301 0.38334 0.0
H209 H 0.48755 0.86787 0.40171 0.0
H210 H 0.447 0.84732 0.3851 0.0
H211 H 0.46983 0.95083 0.37205 0.0
H212 H 0.54713 0.92402 0.39076 0.0
H213 H 0.48497 0.00675 0.42359 0.0
H214 H 0.50663 0.03091 0.39661 0.0
H215 H 0.46405 0.99347 0.39389 0.0
H216 H 0.59481 0.95964 0.4161 0.0
H217 H 0.60229 0.0021 0.42451 0.0
H218 H 0.57575 0.96551 0.44354 0.0
H219 H 0.52718 0.00449 0.57138 0.0
H220 H 0.60113 0.10747 0.52565 0.0
H221 H 0.61067 0.1215 0.48301 0.0
H222 H 0.57266 0.05712 0.40723 0.0
H223 H 0.50763 0.95192 0.45342 0.0
H224 H 0.49444 0.93856 0.49608 0.0
H225 H 0.64866 0.26426 0.49139 0.0
H226 H 0.6592 0.23054 0.48665 0.0
H227 H 0.68236 0.27066 0.46994 0.0
C228 C 0.59876 0.40461 0.77375 0.0
C229 C 0.59536 0.39505 0.74634 0.0
C230 C 0.55805 0.41583 0.7288 0.0
C231 C 0.58302 0.45136 0.72945 0.0
C232 C 0.57527 0.4763 0.72061 0.0
C233 C 0.54177 0.46571 0.71129 0.0
C234 C 0.51651 0.43011 0.71077 0.0
C235 C 0.5251 0.40565 0.71942 0.0
C236 C 0.60284 0.51407 0.7214 0.0
C237 C 0.48039 0.41795 0.70122 0.0
C238 C 0.46837 0.6102 0.82915 0.0
C239 C 0.48433 0.59696 0.81156 0.0
C240 C 0.48583 0.58332 0.76925 0.0
C241 C 0.46015 0.55612 0.75545 0.0
C242 C 0.46886 0.53856 0.73794 0.0
C243 C 0.50419 0.54954 0.73359 0.0
C244 C 0.53028 0.57759 0.74724 0.0
C245 C 0.52074 0.59399 0.76511 0.0
C246 C 0.44032 0.50839 0.72407 0.0
C247 C 0.56819 0.59035 0.74283 0.0
C248 C 0.466 0.62734 0.60265 0.0
C249 C 0.44526 0.59117 0.6032 0.0
C250 C 0.46035 0.57016 0.60449 0.0
C251 C 0.49687 0.58578 0.60537 0.0
C252 C 0.51777 0.62203 0.60253 0.0
C253 C 0.50194 0.64243 0.60096 0.0
C254 C 0.43728 0.53144 0.60659 0.0
C255 C 0.55675 0.63935 0.60296 0.0
C256 C 0.61654 0.4501 0.54728 0.0
C257 C 0.61906 0.47662 0.52822 0.0
C258 C 0.57689 0.49073 0.54577 0.0
C259 C 0.54115 0.47625 0.5486 0.0
C260 C 0.52748 0.48779 0.56718 0.0
C261 C 0.55028 0.51527 0.58279 0.0
C262 C 0.58651 0.5309 0.57947 0.0
C263 C 0.59946 0.51821 0.56119 0.0
C264 C 0.48871 0.47045 0.57027 0.0
C265 C 0.61158 0.56117 0.59517 0.0
C266 C 0.53288 0.49199 0.70279 0.0
C267 C 0.52287 0.50807 0.72052 0.0
C268 C 0.51396 0.53292 0.71389 0.0
C269 C 0.51453 0.54176 0.68889 0.0
C270 C 0.50535 0.56639 0.68162 0.0
C271 C 0.50467 0.57398 0.65694 0.0
C272 C 0.51404 0.55793 0.63858 0.0
C273 C 0.51258 0.5649 0.61339 0.0
C274 C 0.52427 0.55046 0.59566 0.0
C275 C 0.53641 0.5281 0.60241 0.0
C276 C 0.53585 0.51894 0.62741 0.0
C277 C 0.54581 0.49487 0.63472 0.0
C278 C 0.54493 0.48599 0.65939 0.0
C279 C 0.53423 0.50099 0.67769 0.0
C280 C 0.52459 0.52566 0.67074 0.0
C281 C 0.52493 0.53424 0.64556 0.0
C282 C 0.43845 0.67383 0.6382 0.0
C283 C 0.42579 0.64232 0.62122 0.0
O284 O 0.56438 0.39065 0.73711 0.0
O285 O 0.58842 0.4776 0.52793 0.0
O286 O 0.4521 0.64819 0.60495 0.0
O287 O 0.47653 0.5983 0.78708 0.0
H288 H 0.61759 0.41624 0.73639 0.0
H289 H 0.57627 0.38481 0.7843 0.0
H290 H 0.59996 0.42992 0.77625 0.0
H291 H 0.62292 0.40684 0.78146 0.0
H292 H 0.60856 0.46009 0.73693 0.0
H293 H 0.50594 0.37831 0.71904 0.0
H294 H 0.59518 0.52797 0.73469 0.0
H295 H 0.62852 0.51789 0.727 0.0
H296 H 0.60532 0.52603 0.70306 0.0
H297 H 0.46326 0.38951 0.7031 0.0
H298 H 0.46869 0.43125 0.71135 0.0
H299 H 0.48156 0.42487 0.6815 0.0
H300 H 0.51192 0.60474 0.81524 0.0
H301 H 0.42987 0.56248 0.84933 0.0
H302 H 0.4909 0.63288 0.83859 0.0
H303 H 0.46085 0.62702 0.81821 0.0
H304 H 0.43324 0.5481 0.7589 0.0
H305 H 0.54048 0.61538 0.77574 0.0
H306 H 0.44017 0.51588 0.70463 0.0
H307 H 0.44491 0.48606 0.72409 0.0
H308 H 0.4144 0.50002 0.73206 0.0
H309 H 0.58526 0.61411 0.75362 0.0
H310 H 0.57419 0.56983 0.74806 0.0
H311 H 0.57424 0.5959 0.72299 0.0
H312 H 0.41947 0.61987 0.63344 0.0
H313 H 0.41732 0.57948 0.60346 0.0
H314 H 0.51763 0.67039 0.60002 0.0
H315 H 0.43796 0.52343 0.62582 0.0
H316 H 0.40996 0.52299 0.60166 0.0
H317 H 0.44677 0.51785 0.59447 0.0
H318 H 0.56929 0.66737 0.59856 0.0
H319 H 0.56549 0.63645 0.62151 0.0
H320 H 0.56558 0.62656 0.58955 0.0
H321 H 0.64143 0.50232 0.53309 0.0
H322 H 0.64086 0.44892 0.54784 0.0
H323 H 0.6123 0.45756 0.56591 0.0
H324 H 0.59457 0.42394 0.54276 0.0
H325 H 0.52395 0.45523 0.53651 0.0
H326 H 0.62717 0.53034 0.55887 0.0
H327 H 0.48165 0.46262 0.58974 0.0
H328 H 0.47987 0.48906 0.56562 0.0
H329 H 0.47468 0.44722 0.5583 0.0
H330 H 0.63865 0.57287 0.58847 0.0
H331 H 0.60403 0.58146 0.59546 0.0
H332 H 0.61071 0.5524 0.61438 0.0
H333 H 0.52208 0.50119 0.73975 0.0
H334 H 0.49811 0.57981 0.69487 0.0
H335 H 0.4969 0.59281 0.65251 0.0
H336 H 0.52377 0.55657 0.5764 0.0
H337 H 0.55412 0.4824 0.62143 0.0
H338 H 0.55274 0.46722 0.66395 0.0
H339 H 0.41769 0.67005 0.65126 0.0
H340 H 0.46115 0.67728 0.64902 0.0
H341 H 0.44637 0.69781 0.62744 0.0
C342 C 0.21329 0.59124 0.94961 0.0
C343 C 0.22308 0.59612 0.9223 0.0
C344 C 0.16785 0.56425 0.89964 0.0
C345 C 0.15758 0.58933 0.90224 0.0
C346 C 0.12615 0.58388 0.89221 0.0
C347 C 0.10393 0.5523 0.88002 0.0
C348 C 0.11387 0.52675 0.87779 0.0
C349 C 0.14594 0.53338 0.88729 0.0
C350 C 0.11659 0.61182 0.89487 0.0
C351 C 0.09042 0.49208 0.86582 0.0
C352 C 0.89153 0.4838 0.9982 0.0
C353 C 0.92088 0.49743 0.98071 0.0
C354 C 0.93418 0.50453 0.93783 0.0
C355 C 0.94201 0.47894 0.93079 0.0
C356 C 0.96638 0.48532 0.91232 0.0
C357 C 0.98313 0.51801 0.90068 0.0
C358 C 0.97475 0.54367 0.90744 0.0
C359 C 0.95006 0.53646 0.92588 0.0
C360 C 0.97424 0.4572 0.90521 0.0
C361 C 0.99212 0.57877 0.89534 0.0
C362 C 0.8673 0.43282 0.76243 0.0
C363 C 0.88903 0.41966 0.76866 0.0
C364 C 0.9242 0.442 0.77367 0.0
C365 C 0.93784 0.47824 0.77228 0.0
C366 C 0.9164 0.49153 0.76459 0.0
C367 C 0.88125 0.46849 0.75955 0.0
C368 C 0.94657 0.42687 0.78111 0.0
C369 C 0.93036 0.53 0.76264 0.0
C370 C 0.10593 0.52039 0.66105 0.0
C371 C 0.13558 0.55139 0.67457 0.0
C372 C 0.10437 0.56115 0.70815 0.0
C373 C 0.096 0.53084 0.72137 0.0
C374 C 0.07415 0.52128 0.7419 0.0
C375 C 0.06111 0.54287 0.74974 0.0
C376 C 0.07075 0.57414 0.73719 0.0
C377 C 0.0922 0.58279 0.71649 0.0
C378 C 0.06413 0.48759 0.75478 0.0
C379 C 0.05759 0.59793 0.74524 0.0
C380 C 0.06936 0.54493 0.87101 0.0
C381 C 0.04334 0.53659 0.88845 0.0
C382 C 0.00919 0.52531 0.88126 0.0
C383 C 0.00023 0.52051 0.85605 0.0
C384 C 0.96558 0.50582 0.84829 0.0
C385 C 0.95689 0.4997 0.82349 0.0
C386 C 0.98265 0.50916 0.80548 0.0
C387 C 0.97399 0.50184 0.78033 0.0
C388 C 0.00016 0.51365 0.76273 0.0
C389 C 0.03508 0.53138 0.76966 0.0
C390 C 0.04428 0.53661 0.79488 0.0
C391 C 0.07901 0.55206 0.80265 0.0
C392 C 0.08741 0.55497 0.8276 0.0
C393 C 0.06147 0.5436 0.84566 0.0
C394 C 0.02657 0.53019 0.83819 0.0
C395 C 0.01786 0.52563 0.81282 0.0
C396 C 0.79961 0.40492 0.79569 0.0
C397 C 0.81206 0.38751 0.77721 0.0
O398 O 0.1982 0.56836 0.90881 0.0
O399 O 0.1233 0.57019 0.68709 0.0
O400 O 0.83269 0.41159 0.75973 0.0
O401 O 0.91196 0.49895 0.95651 0.0
H402 H 0.22485 0.62067 0.91607 0.0
H403 H 0.20945 0.56609 0.95645 0.0
H404 H 0.23389 0.6126 0.96071 0.0
H405 H 0.1888 0.59165 0.95231 0.0
H406 H 0.17357 0.61318 0.91213 0.0
H407 H 0.15386 0.51408 0.88548 0.0
H408 H 0.0959 0.60381 0.90887 0.0
H409 H 0.13902 0.63695 0.90076 0.0
H410 H 0.10636 0.61563 0.87721 0.0
H411 H 0.09943 0.47324 0.86914 0.0
H412 H 0.06355 0.48093 0.87282 0.0
H413 H 0.08971 0.49553 0.84566 0.0
H414 H 0.9451 0.52087 0.987 0.0
H415 H 0.88635 0.43329 0.01055 0.0
H416 H 0.89791 0.506 0.01122 0.0
H417 H 0.86995 0.48575 0.98872 0.0
H418 H 0.92906 0.45394 0.93971 0.0
H419 H 0.94364 0.55595 0.93144 0.0
H420 H 0.96994 0.45191 0.88516 0.0
H421 H 0.00191 0.46602 0.90908 0.0
H422 H 0.95796 0.43271 0.91534 0.0
H423 H 0.98374 0.59636 0.90336 0.0
H424 H 0.02068 0.59102 0.89727 0.0
H425 H 0.98598 0.57571 0.87536 0.0
H426 H 0.82685 0.37773 0.78778 0.0
H427 H 0.87842 0.39191 0.76984 0.0
H428 H 0.86423 0.47828 0.75435 0.0
H429 H 0.95489 0.43377 0.80056 0.0
H430 H 0.93275 0.3982 0.77927 0.0
H431 H 0.97028 0.43797 0.76963 0.0
H432 H 0.91053 0.5362 0.75585 0.0
H433 H 0.93971 0.54228 0.78097 0.0
H434 H 0.95284 0.54155 0.74997 0.0
H435 H 0.14791 0.54176 0.68782 0.0
H436 H 0.11627 0.5064 0.65019 0.0
H437 H 0.08681 0.50179 0.67425 0.0
H438 H 0.09215 0.5291 0.64843 0.0
H439 H 0.10572 0.51406 0.71556 0.0
H440 H 0.09903 0.60627 0.70636 0.0
H441 H 0.07209 0.49266 0.7744 0.0
H442 H 0.03555 0.4706 0.75426 0.0
H443 H 0.07621 0.4735 0.74626 0.0
H444 H 0.07017 0.62285 0.7351 0.0
H445 H 0.0292 0.58499 0.74205 0.0
H446 H 0.06222 0.60339 0.76526 0.0
H447 H 0.04959 0.5383 0.9079 0.0
H448 H 0.94469 0.49807 0.86134 0.0
H449 H 0.92973 0.48764 0.81859 0.0
H450 H 0.99325 0.50811 0.74342 0.0
H451 H 0.09998 0.5612 0.78952 0.0
H452 H 0.11447 0.56629 0.83262 0.0
H453 H 0.78277 0.38602 0.80981 0.0
H454 H 0.8222 0.42648 0.80522 0.0
H455 H 0.78486 0.41562 0.78621 0.0
C456 C 0.45344 0.83222 0.86844 0.0
C457 C 0.44906 0.82257 0.89577 0.0
C458 C 0.48102 0.87784 0.91837 0.0
C459 C 0.45595 0.88813 0.91581 0.0
C460 C 0.46147 0.91959 0.92582 0.0
C461 C 0.4931 0.94181 0.93795 0.0
C462 C 0.51865 0.93186 0.94013 0.0
C463 C 0.51196 0.89976 0.93066 0.0
C464 C 0.43354 0.92917 0.9232 0.0
C465 C 0.55336 0.95531 0.95204 0.0
C466 C 0.56145 0.15418 0.81982 0.0
C467 C 0.54771 0.12484 0.83734 0.0
C468 C 0.54093 0.11162 0.88023 0.0
C469 C 0.56653 0.10379 0.88726 0.0
C470 C 0.56014 0.0794 0.90572 0.0
C471 C 0.52745 0.06264 0.91735 0.0
C472 C 0.50178 0.07102 0.91059 0.0
C473 C 0.50899 0.09571 0.89216 0.0
C474 C 0.58827 0.07154 0.91281 0.0
C475 C 0.46668 0.05363 0.92269 0.0
C476 C 0.61235 0.17828 0.05584 0.0
C477 C 0.62561 0.15665 0.04957 0.0
C478 C 0.60336 0.1215 0.04447 0.0
C479 C 0.5671 0.10777 0.0458 0.0
C480 C 0.55369 0.1291 0.05351 0.0
C481 C 0.57665 0.16424 0.05864 0.0
C482 C 0.61861 0.09924 0.037 0.0
C483 C 0.5152 0.11505 0.0554 0.0
C484 C 0.52555 0.93963 0.15683 0.0
C485 C 0.49447 0.90999 0.14336 0.0
C486 C 0.48459 0.94122 0.10984 0.0
C487 C 0.51485 0.94959 0.09656 0.0
C488 C 0.52433 0.97144 0.07603 0.0
C489 C 0.50272 0.98448 0.06826 0.0
C490 C 0.47148 0.97482 0.08087 0.0
C491 C 0.46291 0.95338 0.10156 0.0
C492 C 0.55799 0.98148 0.0631 0.0
C493 C 0.44765 0.98797 0.07288 0.0
C494 C 0.50051 0.97638 0.94698 0.0
C495 C 0.50885 0.00242 0.92955 0.0
C496 C 0.52015 0.03655 0.93676 0.0
C497 C 0.52495 0.04548 0.96198 0.0
C498 C 0.53963 0.08012 0.96976 0.0
C499 C 0.54574 0.08878 0.99457 0.0
C500 C 0.53629 0.063 0.01256 0.0
C501 C 0.54359 0.07162 0.03772 0.0
C502 C 0.53183 0.04544 0.0553 0.0
C503 C 0.51414 0.01053 0.04835 0.0
C504 C 0.50889 0.00136 0.02312 0.0
C505 C 0.49345 0.96664 0.01533 0.0
C506 C 0.49052 0.95828 0.99037 0.0
C507 C 0.50186 0.98424 0.97234 0.0
C508 C 0.51528 0.01913 0.97982 0.0
C509 C 0.51984 0.0278 0.0052 0.0
C510 C 0.64007 0.24656 0.02298 0.0
C511 C 0.65744 0.23373 0.0412 0.0
O512 O 0.47685 0.84746 0.90923 0.0
O513 O 0.47563 0.9223 0.13091 0.0
O514 O 0.63351 0.21287 0.05868 0.0
O515 O 0.54653 0.13387 0.86157 0.0
H516 H 0.42456 0.8208 0.90215 0.0
H517 H 0.47842 0.83589 0.86136 0.0
H518 H 0.43183 0.81162 0.85752 0.0
H519 H 0.45312 0.85677 0.86581 0.0
H520 H 0.43204 0.87212 0.90598 0.0
H521 H 0.53125 0.89183 0.93243 0.0
H522 H 0.44154 0.94989 0.90923 0.0
H523 H 0.40839 0.90677 0.91731 0.0
H524 H 0.42975 0.93937 0.94089 0.0
H525 H 0.57218 0.94628 0.9487 0.0
H526 H 0.56451 0.98216 0.94502 0.0
H527 H 0.54998 0.95606 0.97221 0.0
H528 H 0.52406 0.10075 0.83113 0.0
H529 H 0.61161 0.15877 0.80721 0.0
H530 H 0.53918 0.14799 0.80691 0.0
H531 H 0.55984 0.17591 0.82935 0.0
H532 H 0.59151 0.11673 0.87832 0.0
H533 H 0.4895 0.10214 0.8866 0.0
H534 H 0.59356 0.0758 0.93287 0.0
H535 H 0.57944 0.04387 0.90893 0.0
H536 H 0.61275 0.08782 0.90269 0.0
H537 H 0.44909 0.06202 0.91468 0.0
H538 H 0.45443 0.02508 0.92074 0.0
H539 H 0.46973 0.05973 0.94267 0.0
H540 H 0.66703 0.21888 0.0305 0.0
H541 H 0.65338 0.16735 0.04844 0.0
H542 H 0.56678 0.18118 0.06387 0.0
H543 H 0.61173 0.09095 0.01754 0.0
H544 H 0.64728 0.11314 0.03885 0.0
H545 H 0.60757 0.07552 0.04846 0.0
H546 H 0.5089 0.1348 0.06218 0.0
H547 H 0.50298 0.10571 0.03705 0.0
H548 H 0.50366 0.09253 0.06805 0.0
H549 H 0.50402 0.89765 0.13007 0.0
H550 H 0.53956 0.92927 0.16765 0.0
H551 H 0.54411 0.95872 0.14359 0.0
H552 H 0.51693 0.95345 0.16947 0.0
H553 H 0.53165 0.93987 0.10231 0.0
H554 H 0.43947 0.94655 0.11174 0.0
H555 H 0.55286 0.97348 0.04348 0.0
H556 H 0.57495 0.01006 0.06358 0.0
H557 H 0.57214 0.96945 0.07159 0.0
H558 H 0.42274 0.97535 0.08304 0.0
H559 H 0.46058 0.01635 0.07611 0.0
H560 H 0.44215 0.98339 0.05286 0.0
H561 H 0.50712 0.99618 0.9101 0.0
H562 H 0.54737 0.10103 0.95672 0.0
H563 H 0.55779 0.11593 -0.00052 0.0
H564 H 0.53736 0.05232 0.07461 0.0
H565 H 0.48433 0.94567 0.02845 0.0
H566 H 0.4792 0.93123 0.98534 0.0
H567 H 0.65893 0.26346 0.00888 0.0
H568 H 0.61835 0.22414 0.01343 0.0
H569 H 0.62961 0.26134 0.03271 0.0
C570 C 0.64066 0.44632 0.04443 0.0
C571 C 0.65029 0.44971 0.07183 0.0
C572 C 0.62937 0.48684 0.08945 0.0
C573 C 0.59386 0.4618 0.08883 0.0
C574 C 0.56886 0.46946 0.09769 0.0
C575 C 0.57936 0.50292 0.10701 0.0
C576 C 0.61495 0.52826 0.10751 0.0
C577 C 0.63947 0.51978 0.09884 0.0
C578 C 0.53111 0.44181 0.09691 0.0
C579 C 0.62702 0.56437 0.11704 0.0
C580 C 0.43645 0.57774 0.98897 0.0
C581 C 0.45012 0.5621 0.00653 0.0
C582 C 0.46217 0.5593 0.04893 0.0
C583 C 0.48957 0.58484 0.06266 0.0
C584 C 0.50693 0.57593 0.0802 0.0
C585 C 0.49559 0.54053 0.08461 0.0
C586 C 0.46738 0.51459 0.07099 0.0
C587 C 0.45116 0.52433 0.0531 0.0
C588 C 0.5373 0.6043 0.09403 0.0
C589 C 0.45427 0.47663 0.07546 0.0
C590 C 0.4179 0.57916 0.21524 0.0
C591 C 0.45407 0.59987 0.21473 0.0
C592 C 0.47508 0.58476 0.21354 0.0
C593 C 0.45945 0.54824 0.21275 0.0
C594 C 0.42318 0.52737 0.21556 0.0
C595 C 0.40279 0.54323 0.217 0.0
C596 C 0.51381 0.60781 0.21145 0.0
C597 C 0.40584 0.48839 0.2152 0.0
C598 C 0.6015 0.43553 0.27103 0.0
C599 C 0.57337 0.43001 0.28963 0.0
C600 C 0.55634 0.47029 0.27272 0.0
C601 C 0.57034 0.50592 0.26961 0.0
C602 C 0.55824 0.51899 0.25097 0.0
C603 C 0.53067 0.49568 0.23562 0.0
C604 C 0.51547 0.45956 0.23929 0.0
C605 C 0.52871 0.44721 0.25763 0.0
C606 C 0.57511 0.55766 0.24754 0.0
C607 C 0.48508 0.43396 0.22392 0.0
C608 C 0.55302 0.51174 0.11548 0.0
C609 C 0.53689 0.52165 0.09772 0.0
C610 C 0.51205 0.53059 0.10432 0.0
C611 C 0.50323 0.53009 0.12931 0.0
C612 C 0.47862 0.53931 0.13656 0.0
C613 C 0.47108 0.54009 0.16122 0.0
C614 C 0.48719 0.53084 0.17962 0.0
C615 C 0.48032 0.53248 0.20481 0.0
C616 C 0.49491 0.52103 0.22259 0.0
C617 C 0.51735 0.50894 0.2159 0.0
C618 C 0.52633 0.50924 0.19088 0.0
C619 C 0.55042 0.49928 0.18359 0.0
C620 C 0.55918 0.49997 0.15892 0.0
C621 C 0.54408 0.51051 0.14058 0.0
C622 C 0.51938 0.52013 0.1475 0.0
C623 C 0.51088 0.51995 0.17268 0.0
C624 C 0.37163 0.60739 0.17971 0.0
C625 C 0.40301 0.61954 0.19675 0.0
O626 O 0.6546 0.48062 0.08111 0.0
O627 O 0.56993 0.45928 0.29058 0.0
O628 O 0.39704 0.59306 0.21288 0.0
O629 O 0.44739 0.56872 0.03105 0.0
H630 H 0.62916 0.42742 0.08178 0.0
H631 H 0.66038 0.46887 0.03389 0.0
H632 H 0.61529 0.44501 0.04197 0.0
H633 H 0.63852 0.42222 0.03668 0.0
H634 H 0.58519 0.43628 0.08134 0.0
H635 H 0.66679 0.53899 0.0992 0.0
H636 H 0.51715 0.44943 0.08363 0.0
H637 H 0.52736 0.41616 0.09129 0.0
H638 H 0.51917 0.43929 0.11526 0.0
H639 H 0.65545 0.58157 0.11513 0.0
H640 H 0.61363 0.57599 0.10692 0.0
H641 H 0.62014 0.5632 0.13677 0.0
H642 H 0.44327 0.53488 0.00232 0.0
H643 H 0.48415 0.61831 0.96985 0.0
H644 H 0.41463 0.55507 0.97898 0.0
H645 H 0.4185 0.58387 -0.00021 0.0
H646 H 0.49789 0.6118 0.05915 0.0
H647 H 0.4297 0.50473 0.04243 0.0
H648 H 0.52999 0.60441 0.11352 0.0
H649 H 0.55951 0.59954 0.09383 0.0
H650 H 0.54576 0.63029 0.08612 0.0
H651 H 0.43059 0.4597 0.06454 0.0
H652 H 0.4747 0.47039 0.07046 0.0
H653 H 0.44843 0.47063 0.09528 0.0
H654 H 0.42546 0.62573 0.18456 0.0
H655 H 0.4658 0.62782 0.21442 0.0
H656 H 0.37482 0.52755 0.21792 0.0
H657 H 0.52184 0.60699 0.19226 0.0
H658 H 0.52227 0.63516 0.21626 0.0
H659 H 0.52737 0.5984 0.22367 0.0
H660 H 0.37783 0.4759 0.21964 0.0
H661 H 0.40865 0.47959 0.19665 0.0
H662 H 0.41867 0.4796 0.22859 0.0
H663 H 0.5485 0.40703 0.28405 0.0
H664 H 0.60473 0.41238 0.27016 0.0
H665 H 0.59416 0.43983 0.25238 0.0
H666 H 0.62666 0.45847 0.27627 0.0
H667 H 0.59144 0.5235 0.2815 0.0
H668 H 0.51686 0.41959 0.26032 0.0
H669 H 0.58253 0.56445 0.22799 0.0
H670 H 0.55634 0.56626 0.25227 0.0
H671 H 0.59852 0.57212 0.25928 0.0
H672 H 0.47376 0.40705 0.23088 0.0
H673 H 0.46457 0.44121 0.22364 0.0
H674 H 0.49359 0.43455 0.20467 0.0
H675 H 0.54377 0.52241 0.0785 0.0
H676 H 0.46519 0.54649 0.12328 0.0
H677 H 0.45225 0.54788 0.16562 0.0
H678 H 0.48894 0.52175 0.24185 0.0
H679 H 0.56299 0.49113 0.19692 0.0
H680 H 0.57796 0.49217 0.15439 0.0
H681 H 0.37575 0.62835 0.16673 0.0
H682 H 0.36792 0.58465 0.1688 0.0
H683 H 0.34769 0.59969 0.19045 0.0
Li684 Li 0.64504 0.42208 0.431 0.0
Li685 Li 0.6333 0.36573 0.41713 0.0
Li686 Li 0.6843 0.41684 0.40201 0.0
Li687 Li 0.628 0.40425 0.38717 0.0
C688 C 0.67476 0.39287 0.46032 0.0
N689 N 0.67747 0.37902 0.50953 0.0
C690 C 0.64433 0.37628 0.4741 0.0
C691 C 0.70658 0.40255 0.47156 0.0
C692 C 0.64623 0.36944 0.49895 0.0
C693 C 0.7074 0.3953 0.49647 0.0
C694 C 0.5687 0.35377 0.42001 0.0
C695 C 0.52456 0.29907 0.40343 0.0
N696 N 0.50574 0.29337 0.42432 0.0
C697 C 0.54902 0.34729 0.44138 0.0
C698 C 0.55647 0.32942 0.40093 0.0
C699 C 0.51722 0.31663 0.44318 0.0
C700 C 0.60759 0.44018 0.46294 0.0
N701 N 0.63968 0.44477 0.45881 0.0
C702 C 0.65961 0.47273 0.49776 0.0
C703 C 0.66573 0.46116 0.47549 0.0
C704 C 0.62628 0.4669 0.50309 0.0
C705 C 0.60013 0.45076 0.48516 0.0
H706 H 0.58742 0.42711 0.4493 0.0
H707 H 0.69086 0.46394 0.47202 0.0
C708 C 0.64764 0.31388 0.41823 0.0
N709 N 0.623 0.32081 0.4266 0.0
C710 C 0.64936 0.2855 0.42702 0.0
C711 C 0.59947 0.27099 0.45244 0.0
C712 C 0.59878 0.29989 0.44317 0.0
C713 C 0.62547 0.264 0.4447 0.0
H714 H 0.66716 0.33157 0.40562 0.0
H715 H 0.58026 0.30658 0.45026 0.0
C716 C 0.69641 0.48039 0.39777 0.0
N717 N 0.75808 0.54202 0.39291 0.0
C718 C 0.70333 0.49985 0.37624 0.0
C719 C 0.72094 0.49217 0.41673 0.0
C720 C 0.73463 0.53099 0.37418 0.0
C721 C 0.75195 0.52339 0.41395 0.0
C722 C 0.65081 0.36562 0.36022 0.0
C723 C 0.66908 0.38973 0.34183 0.0
C724 C 0.63242 0.33032 0.35446 0.0
C725 C 0.66882 0.37803 0.31791 0.0
C726 C 0.63276 0.31967 0.33032 0.0
N727 N 0.65082 0.34355 0.31271 0.0
C728 C 0.73811 0.40525 0.40316 0.0
C729 C 0.74741 0.44787 0.37339 0.0
C730 C 0.76543 0.40201 0.3939 0.0
N731 N 0.72919 0.42727 0.39252 0.0
C732 C 0.77527 0.44569 0.36363 0.0
C733 C 0.78398 0.4219 0.37357 0.0
H734 H 0.72233 0.38826 0.41771 0.0
H735 H 0.73892 0.46405 0.36456 0.0
C736 C 0.61039 0.44124 0.35466 0.0
N737 N 0.60565 0.40909 0.35878 0.0
C738 C 0.5996 0.44875 0.33254 0.0
C739 C 0.57718 0.38923 0.31994 0.0
C740 C 0.58891 0.38304 0.34214 0.0
C741 C 0.58283 0.42253 0.31476 0.0
H742 H 0.62359 0.46141 0.36827 0.0
H743 H 0.58569 0.35776 0.3456 0.0
O744 O 0.67375 0.40067 0.43612 0.0
O745 O 0.59991 0.3836 0.41784 0.0
O746 O 0.66593 0.44984 0.40025 0.0
O747 O 0.65037 0.37639 0.38371 0.0
H748 H 0.61958 0.36914 0.46576 0.0
H749 H 0.73041 0.4158 0.4612 0.0
H750 H 0.6229 0.35666 0.50985 0.0
H751 H 0.73186 0.40273 0.50543 0.0
H752 H 0.51482 0.27999 0.3888 0.0
H753 H 0.55825 0.36553 0.45653 0.0
H754 H 0.57172 0.33366 0.38455 0.0
H755 H 0.50173 0.31126 0.45961 0.0
H756 H 0.68038 0.48499 0.51114 0.0
H757 H 0.574 0.44556 0.4884 0.0
H758 H 0.67012 0.28132 0.42089 0.0
H759 H 0.58092 0.2552 0.46633 0.0
H760 H 0.68494 0.49094 0.36119 0.0
H761 H 0.71632 0.47706 0.43325 0.0
H762 H 0.74034 0.54632 0.35763 0.0
H763 H 0.77119 0.53275 0.42847 0.0
H764 H 0.68287 0.41717 0.34592 0.0
H765 H 0.61783 0.31137 0.36846 0.0
H766 H 0.6828 0.39638 0.30347 0.0
H767 H 0.61859 0.29244 0.32559 0.0
H768 H 0.77069 0.38275 0.40172 0.0
H769 H 0.78853 0.46084 0.34758 0.0
H770 H 0.60497 0.47493 0.32926 0.0
H771 H 0.56477 0.36849 0.30656 0.0
Li772 Li 0.24116 0.63223 0.59288 0.0
Li773 Li 0.29623 0.63525 0.57765 0.0
Li774 Li 0.28194 0.68291 0.5683 0.0
Li775 Li 0.24927 0.62649 0.55112 0.0
C776 C 0.30074 0.67873 0.62374 0.0
N777 N 0.32171 0.70177 0.67136 0.0
C778 C 0.30568 0.65793 0.6406 0.0
C779 C 0.30715 0.71156 0.63099 0.0
C780 C 0.31612 0.66996 0.66461 0.0
C781 C 0.31751 0.72264 0.65517 0.0
C782 C 0.22642 0.56344 0.57 0.0
C783 C 0.21548 0.50835 0.55405 0.0
N784 N 0.18112 0.49776 0.55255 0.0
C785 C 0.19098 0.55195 0.56855 0.0
C786 C 0.23881 0.54145 0.56291 0.0
C787 C 0.1685 0.51867 0.55959 0.0
C788 C 0.17889 0.61248 0.62071 0.0
N789 N 0.20959 0.61287 0.61962 0.0
C790 C 0.19426 0.57551 0.6545 0.0
C791 C 0.21748 0.59475 0.63596 0.0
C792 C 0.16248 0.57476 0.65617 0.0
C793 C 0.15503 0.59388 0.63915 0.0
H794 H 0.17211 0.62532 0.60678 0.0
H795 H 0.24116 0.59394 0.63389 0.0
C796 C 0.36586 0.65652 0.5791 0.0
N797 N 0.33447 0.63061 0.58653 0.0
C798 C 0.39613 0.6597 0.58916 0.0
C799 C 0.36109 0.60866 0.61363 0.0
C800 C 0.33145 0.60625 0.60289 0.0
C801 C 0.39386 0.63625 0.60727 0.0
H802 H 0.36727 0.6758 0.56636 0.0
H803 H 0.30603 0.58632 0.60872 0.0
C804 C 0.21719 0.67506 0.57412 0.0
N805 N 0.19276 0.71724 0.59167 0.0
C806 C 0.19489 0.68144 0.55972 0.0
C807 C 0.22701 0.69025 0.59743 0.0
C808 C 0.18286 0.70283 0.5689 0.0
C809 C 0.21435 0.71139 0.60601 0.0
C810 C 0.30349 0.65731 0.52203 0.0
C811 C 0.29281 0.67433 0.50568 0.0
C812 C 0.31777 0.6378 0.51301 0.0
C813 C 0.29616 0.67111 0.4804 0.0
C814 C 0.32077 0.63531 0.4876 0.0
N815 N 0.30994 0.65182 0.47196 0.0
C816 C 0.34105 0.74598 0.56748 0.0
C817 C 0.29228 0.74927 0.55351 0.0
C818 C 0.3632 0.7805 0.56133 0.0
N819 N 0.30646 0.73109 0.56326 0.0
C820 C 0.31344 0.78408 0.5474 0.0
C821 C 0.34946 0.79997 0.55094 0.0
H822 H 0.35151 0.73052 0.57482 0.0
H823 H 0.26485 0.73655 0.54964 0.0
C824 C 0.20192 0.61134 0.51287 0.0
N825 N 0.22525 0.60287 0.5217 0.0
C826 C 0.18315 0.59583 0.4915 0.0
C827 C 0.21247 0.56264 0.4887 0.0
C828 C 0.23113 0.5793 0.50996 0.0
C829 C 0.18802 0.57078 0.47923 0.0
H830 H 0.19804 0.63039 0.52234 0.0
H831 H 0.25036 0.5735 0.51702 0.0
O832 O 0.29046 0.66744 0.6001 0.0
O833 O 0.2489 0.59611 0.57829 0.0
O834 O 0.23031 0.65532 0.56484 0.0
O835 O 0.29982 0.65961 0.54679 0.0
H836 H 0.30142 0.63273 0.63526 0.0
H837 H 0.30405 0.72831 0.61809 0.0
H838 H 0.31981 0.654 0.67787 0.0
H839 H 0.32227 0.74786 0.66107 0.0
H840 H 0.22471 0.49112 0.54829 0.0
H841 H 0.18105 0.56873 0.57401 0.0
H842 H 0.26621 0.55005 0.56399 0.0
H843 H 0.14103 0.50948 0.55817 0.0
H844 H 0.20064 0.56053 0.66693 0.0
H845 H 0.13046 0.59334 0.63956 0.0
H846 H 0.42095 0.68128 0.58382 0.0
H847 H 0.35838 0.59012 0.62755 0.0
H848 H 0.18723 0.67042 0.54149 0.0
H849 H 0.24361 0.68524 0.609 0.0
H850 H 0.16575 0.70808 0.55788 0.0
H851 H 0.22166 0.72309 0.62409 0.0
H852 H 0.28168 0.68951 0.51246 0.0
H853 H 0.32615 0.62451 0.52551 0.0
H854 H 0.28775 0.68389 0.46749 0.0
H855 H 0.33162 0.62016 0.48031 0.0
H856 H 0.39081 0.79142 0.56402 0.0
H857 H 0.30203 0.79814 0.53908 0.0
H858 H 0.16508 0.60348 0.48476 0.0
H859 H 0.21729 0.54381 0.47958 0.0
Li860 Li 0.67102 0.27098 0.74359 0.0
Li861 Li 0.61791 0.22409 0.76517 0.0
Li862 Li 0.62276 0.22616 0.71869 0.0
Li863 Li 0.61853 0.26985 0.74117 0.0
C864 C 0.67224 0.20571 0.74781 0.0
N865 N 0.71237 0.17556 0.757 0.0
C866 C 0.68133 0.20273 0.77193 0.0
C867 C 0.68333 0.19307 0.72837 0.0
C868 C 0.70171 0.18751 0.7762 0.0
C869 C 0.70366 0.178 0.73338 0.0
C870 C 0.63841 0.29547 0.78562 0.0
C871 C 0.60222 0.3048 0.8139 0.0
N872 N 0.62385 0.33959 0.81214 0.0
C873 C 0.66049 0.33128 0.78428 0.0
C874 C 0.60915 0.28203 0.80065 0.0
C875 C 0.65258 0.35317 0.79775 0.0
C876 C 0.73137 0.33468 0.73811 0.0
N877 N 0.71873 0.30288 0.74846 0.0
C878 C 0.76826 0.32375 0.77466 0.0
C879 C 0.73666 0.29683 0.76613 0.0
C880 C 0.78121 0.35722 0.76513 0.0
C881 C 0.76283 0.36239 0.74616 0.0
H882 H 0.71586 0.33914 0.72489 0.0
H883 H 0.72538 0.27185 0.77486 0.0
C884 C 0.58134 0.15209 0.77916 0.0
N885 N 0.6026 0.19115 0.79063 0.0
C886 C 0.57069 0.11563 0.79791 0.0
C887 C 0.61195 0.17252 0.84113 0.0
C888 C 0.61872 0.20367 0.8182 0.0
C889 C 0.57925 0.12793 0.8309 0.0
H890 H 0.57414 0.14844 0.75993 0.0
H891 H 0.63445 0.23098 0.82232 0.0
C892 C 0.67028 0.28239 0.69302 0.0
N893 N 0.71126 0.29258 0.65228 0.0
C894 C 0.66768 0.29978 0.67248 0.0
C895 C 0.69387 0.27036 0.69288 0.0
C896 C 0.68858 0.30464 0.65205 0.0
C897 C 0.71432 0.27572 0.67211 0.0
C898 C 0.55332 0.21832 0.73474 0.0
C899 C 0.54845 0.22921 0.71174 0.0
C900 C 0.52693 0.20626 0.75222 0.0
C901 C 0.51718 0.22817 0.70668 0.0
C902 C 0.49601 0.20557 0.74643 0.0
N903 N 0.49184 0.21648 0.72398 0.0
C904 C 0.59773 0.15579 0.70275 0.0
C905 C 0.59981 0.20487 0.66552 0.0
C906 C 0.57761 0.11901 0.68317 0.0
N907 N 0.60764 0.19401 0.69244 0.0
C908 C 0.57983 0.17309 0.64195 0.0
C909 C 0.57776 0.13158 0.65064 0.0
H910 H 0.60329 0.1528 0.72164 0.0
H911 H 0.60614 0.23127 0.66212 0.0
C912 C 0.62772 0.33349 0.72893 0.0
N913 N 0.60399 0.3037 0.73999 0.0
C914 C 0.62461 0.36303 0.73009 0.0
C915 C 0.57156 0.33044 0.75299 0.0
C916 C 0.57593 0.30146 0.75163 0.0
C917 C 0.5967 0.36202 0.74272 0.0
H918 H 0.6502 0.33489 0.72027 0.0
H919 H 0.55791 0.2779 0.76093 0.0
O920 O 0.65163 0.21984 0.74327 0.0
O921 O 0.64511 0.27364 0.77204 0.0
O922 O 0.64938 0.27698 0.71291 0.0
O923 O 0.58373 0.21925 0.74008 0.0
H924 H 0.67313 0.21248 0.78719 0.0
H925 H 0.67628 0.19485 0.70959 0.0
H926 H 0.70908 0.18522 0.79479 0.0
H927 H 0.71247 0.16819 0.7185 0.0
H928 H 0.57953 0.29481 0.82547 0.0
H929 H 0.68322 0.34205 0.7727 0.0
H930 H 0.59175 0.25435 0.80178 0.0
H931 H 0.66922 0.38096 0.7967 0.0
H932 H 0.78144 0.31891 0.78959 0.0
H933 H 0.77167 0.38795 0.73867 0.0
H934 H 0.55313 0.08951 0.79165 0.0
H935 H 0.61902 0.17969 0.86019 0.0
H936 H 0.6495 0.30922 0.67229 0.0
H937 H 0.69664 0.25734 0.70867 0.0
H938 H 0.68674 0.31795 0.63599 0.0
H939 H 0.73266 0.26652 0.67178 0.0
H940 H 0.56874 0.23868 0.69806 0.0
H941 H 0.5304 0.19769 0.7701 0.0
H942 H 0.51307 0.2367 0.689 0.0
H943 H 0.47536 0.19642 0.75979 0.0
H944 H 0.5747 0.09433 0.68857 0.0
H945 H 0.57777 0.18003 0.62323 0.0
H946 H 0.64457 0.3868 0.72193 0.0
H947 H 0.54962 0.32862 0.76284 0.0
Li948 Li 0.42289 0.62831 0.93095 0.0
Li949 Li 0.4242 0.67434 0.90721 0.0
Li950 Li 0.37143 0.62129 0.91104 0.0
Li951 Li 0.41793 0.62306 0.88759 0.0
C952 C 0.38069 0.64248 0.9597 0.0
N953 N 0.34509 0.61975 0.00352 0.0
C954 C 0.37622 0.66538 0.97479 0.0
C955 C 0.367 0.60797 0.9669 0.0
C956 C 0.35813 0.65339 0.99686 0.0
C957 C 0.34912 0.59701 0.98913 0.0
C958 C 0.48808 0.68192 0.91832 0.0
C959 C 0.55026 0.71114 0.92256 0.0
N960 N 0.54831 0.7292 0.9421 0.0
C961 C 0.4867 0.70083 0.93843 0.0
C962 C 0.5201 0.68714 0.91029 0.0
C963 C 0.51743 0.72459 0.95021 0.0
C964 C 0.45084 0.58577 0.94602 0.0
N965 N 0.44335 0.6158 0.95644 0.0
C966 C 0.48048 0.62882 0.00396 0.0
C967 C 0.4564 0.63799 0.98204 0.0
C968 C 0.4804 0.58797 0.99604 0.0
C969 C 0.4742 0.57119 0.96409 0.0
H970 H 0.44167 0.57482 0.92795 0.0
H971 H 0.45075 0.65856 0.98557 0.0
C972 C 0.41202 0.72768 0.91199 0.0
N973 N 0.43782 0.72184 0.90478 0.0
C974 C 0.41554 0.76035 0.90954 0.0
C975 C 0.4729 0.78106 0.893 0.0
C976 C 0.46807 0.74763 0.89554 0.0
C977 C 0.44606 0.78751 0.89962 0.0
H978 H 0.38825 0.70659 0.9192 0.0
H979 H 0.48806 0.74214 0.88976 0.0
C980 C 0.36492 0.55762 0.90032 0.0
N981 N 0.31866 0.4969 0.87659 0.0
C982 C 0.34529 0.55837 0.88046 0.0
C983 C 0.36096 0.52599 0.90813 0.0
C984 C 0.32206 0.52739 0.86871 0.0
C985 C 0.33745 0.49557 0.89589 0.0
C986 C 0.40328 0.66455 0.85845 0.0
C987 C 0.38025 0.6685 0.84314 0.0
C988 C 0.43789 0.67856 0.8514 0.0
C989 C 0.39221 0.68641 0.821 0.0
C990 C 0.44882 0.69625 0.8291 0.0
N991 N 0.42595 0.69978 0.81449 0.0
C992 C 0.31792 0.63307 0.906 0.0
C993 C 0.29807 0.57712 0.9226 0.0
C994 C 0.28523 0.6295 0.90842 0.0
N995 N 0.32383 0.60735 0.91331 0.0
C996 C 0.26461 0.57224 0.92511 0.0
C997 C 0.25812 0.59904 0.91843 0.0
H998 H 0.33899 0.65682 0.89876 0.0
H999 H 0.30362 0.55719 0.92848 0.0
C1000 C 0.46242 0.59732 0.87235 0.0
N1001 N 0.43098 0.60284 0.86226 0.0
C1002 C 0.47777 0.57456 0.85435 0.0
C1003 C 0.41767 0.56431 0.81534 0.0
C1004 C 0.40797 0.58817 0.8371 0.0
C1005 C 0.45971 0.56655 0.82269 0.0
H1006 H 0.47383 0.60736 0.89019 0.0
H1007 H 0.38657 0.59262 0.83377 0.0
O1008 O 0.39831 0.6541 0.93803 0.0
O1009 O 0.45843 0.65824 0.90649 0.0
O1010 O 0.38815 0.58754 0.91209 0.0
O1011 O 0.39168 0.64705 0.88017 0.0
H1012 H 0.38662 0.69216 0.96946 0.0
H1013 H 0.37008 0.58974 0.95559 0.0
H1014 H 0.35448 0.67085 0.00871 0.0
H1015 H 0.33846 0.5704 0.99493 0.0
H1016 H 0.57522 0.7154 0.91654 0.0
H1017 H 0.46227 0.6973 0.94496 0.0
H1018 H 0.52163 0.67276 0.89472 0.0
H1019 H 0.51672 0.73934 0.96581 0.0
H1020 H 0.4862 0.64026 0.02215 0.0
H1021 H 0.47582 0.54855 0.95898 0.0
H1022 H 0.39431 0.76417 0.91501 0.0
H1023 H 0.49695 0.80144 0.88548 0.0
H1024 H 0.34792 0.58251 0.87408 0.0
H1025 H 0.37595 0.52497 0.92349 0.0
H1026 H 0.30676 0.52761 0.85329 0.0
H1027 H 0.33416 0.47091 0.90173 0.0
H1028 H 0.35339 0.65783 0.84835 0.0
H1029 H 0.45622 0.67588 0.86287 0.0
H1030 H 0.37465 0.68967 0.80898 0.0
H1031 H 0.4755 0.70716 0.82341 0.0
H1032 H 0.28138 0.65069 0.90289 0.0
H1033 H 0.24427 0.5482 0.93266 0.0
H1034 H 0.50115 0.57417 0.85918 0.0
H1035 H 0.40555 0.5575 0.79737 0.0
Li1036 Li 0.77575 0.42693 0.07682 0.0
Li1037 Li 0.81957 0.42281 0.09922 0.0
Li1038 Li 0.82138 0.42742 0.05274 0.0
Li1039 Li 0.77458 0.37444 0.0745 0.0
C1040 C 0.82726 0.49216 0.08295 0.0
N1041 N 0.82904 0.55369 0.0934 0.0
C1042 C 0.81644 0.49722 0.10592 0.0
C1043 C 0.83922 0.51839 0.06534 0.0
C1044 C 0.81745 0.52851 0.11082 0.0
C1045 C 0.83988 0.54933 0.07098 0.0
C1046 C 0.76354 0.37551 0.12511 0.0
C1047 C 0.77032 0.3316 0.14611 0.0
N1048 N 0.75369 0.33487 0.166 0.0
C1049 C 0.7464 0.37834 0.14572 0.0
C1050 C 0.7755 0.35187 0.12527 0.0
C1051 C 0.74171 0.35761 0.16622 0.0
C1052 C 0.71212 0.41765 0.08917 0.0
N1053 N 0.74184 0.4414 0.07804 0.0
C1054 C 0.71491 0.47366 0.06506 0.0
C1055 C 0.74395 0.46939 0.06638 0.0
C1056 C 0.68339 0.44848 0.0754 0.0
C1057 C 0.68252 0.42066 0.08804 0.0
H1058 H 0.71082 0.39523 0.09783 0.0
H1059 H 0.76746 0.48742 0.05703 0.0
C1060 C 0.88988 0.44713 0.11511 0.0
N1061 N 0.85185 0.43799 0.12537 0.0
C1062 C 0.92675 0.46707 0.13462 0.0
C1063 C 0.87322 0.46646 0.17566 0.0
C1064 C 0.8413 0.4465 0.15218 0.0
C1065 C 0.91438 0.46766 0.1671 0.0
H1066 H 0.8927 0.44119 0.09628 0.0
H1067 H 0.81502 0.44061 0.15554 0.0
C1068 C 0.74983 0.40676 0.03247 0.0
N1069 N 0.70541 0.42102 0.00604 0.0
C1070 C 0.71404 0.38458 0.0339 0.0
C1071 C 0.76309 0.43596 0.01739 0.0
C1072 C 0.692 0.39233 0.02047 0.0
C1073 C 0.74018 0.44274 0.00419 0.0
C1074 C 0.8396 0.37297 0.07003 0.0
C1075 C 0.8423 0.36381 0.04587 0.0
C1076 C 0.85226 0.36175 0.08938 0.0
C1077 C 0.85727 0.34324 0.04147 0.0
C1078 C 0.86707 0.34122 0.08424 0.0
N1079 N 0.86924 0.33245 0.06059 0.0
C1080 C 0.8933 0.4634 0.03876 0.0
C1081 C 0.84164 0.42677 -0.00039 0.0
C1082 C 0.9297 0.47386 0.01999 0.0
N1083 N 0.85425 0.44258 0.02725 0.0
C1084 C 0.87273 0.43342 0.97666 0.0
C1085 C 0.91743 0.46568 0.98698 0.0
H1086 H 0.89699 0.47043 0.05801 0.0
H1087 H 0.81431 0.41129 0.99546 0.0
C1088 C 0.71098 0.31404 0.08041 0.0
N1089 N 0.7426 0.32674 0.06975 0.0
C1090 C 0.68315 0.28259 0.07248 0.0
C1091 C 0.72127 0.27733 0.04338 0.0
C1092 C 0.74832 0.30892 0.05182 0.0
C1093 C 0.68801 0.26419 0.05337 0.0
H1094 H 0.70672 0.32952 0.09379 0.0
H1095 H 0.77309 0.3203 0.04279 0.0
O1096 O 0.82637 0.46174 0.07776 0.0
O1097 O 0.76881 0.39627 0.10516 0.0
O1098 O 0.7718 0.4002 0.046 0.0
O1099 O 0.82573 0.39378 0.07469 0.0
H1100 H 0.80704 0.47706 0.11968 0.0
H1101 H 0.84773 0.51477 0.04749 0.0
H1102 H 0.80898 0.53276 0.12847 0.0
H1103 H 0.84895 0.56986 0.05752 0.0
H1104 H 0.77947 0.31321 0.14645 0.0
H1105 H 0.73702 0.39657 0.1459 0.0
H1106 H 0.78834 0.34893 0.10944 0.0
H1107 H 0.72859 0.35962 0.18233 0.0
H1108 H 0.71663 0.49555 0.0552 0.0
H1109 H 0.6588 0.40067 0.09625 0.0
H1110 H 0.95124 0.46949 0.12929 0.0
H1111 H 0.86643 0.46896 0.19434 0.0
H1112 H 0.70341 0.36189 0.04552 0.0
H1113 H 0.79076 0.45343 0.01619 0.0
H1114 H 0.66422 0.37562 0.02159 0.0
H1115 H 0.75004 0.46538 0.99258 0.0
H1116 H 0.83254 0.37212 0.03068 0.0
H1117 H 0.85071 0.36885 0.10818 0.0
H1118 H 0.85934 0.33582 0.02286 0.0
H1119 H 0.87689 0.33231 0.09905 0.0
H1120 H 0.95587 0.49115 0.0263 0.0
H1121 H 0.86555 0.42656 0.95758 0.0
H1122 H 0.6577 0.27375 0.08019 0.0
H1123 H 0.72581 0.2643 0.02822 0.0
Li1124 Li 0.41953 0.79628 0.26686 0.0
Li1125 Li 0.36311 0.76357 0.24965 0.0
Li1126 Li 0.41083 0.74934 0.24033 0.0
Li1127 Li 0.4138 0.80441 0.2251 0.0
C1128 C 0.38839 0.74204 0.29597 0.0
N1129 N 0.39312 0.73546 0.34611 0.0
C1130 C 0.37127 0.75284 0.31213 0.0
C1131 C 0.40763 0.72759 0.30522 0.0
C1132 C 0.3741 0.74942 0.33744 0.0
C1133 C 0.40974 0.72452 0.33066 0.0
C1134 C 0.3709 0.82834 0.24392 0.0
C1135 C 0.33474 0.83145 0.21201 0.0
N1136 N 0.32863 0.85274 0.22649 0.0
C1137 C 0.36425 0.85033 0.25846 0.0
C1138 C 0.35593 0.81881 0.22052 0.0
C1139 C 0.34282 0.86234 0.24933 0.0
C1140 C 0.43484 0.84383 0.305 0.0
N1141 N 0.44313 0.82031 0.29629 0.0
C1142 C 0.48319 0.83297 0.3294 0.0
C1143 C 0.46649 0.81424 0.30818 0.0
C1144 C 0.47544 0.85781 0.33862 0.0
C1145 C 0.45038 0.86266 0.32633 0.0
H1146 H 0.41591 0.84782 0.29544 0.0
H1147 H 0.47207 0.79481 0.30126 0.0
C1148 C 0.30016 0.70437 0.25064 0.0
N1149 N 0.31493 0.73899 0.25467 0.0
C1150 C 0.26562 0.6822 0.25674 0.0
C1151 C 0.2618 0.73197 0.27027 0.0
C1152 C 0.29664 0.75316 0.26423 0.0
C1153 C 0.24595 0.69597 0.26672 0.0
H1154 H 0.31573 0.6939 0.24352 0.0
H1155 H 0.30928 0.78059 0.26803 0.0
C1156 C 0.48256 0.81905 0.24815 0.0
N1157 N 0.5481 0.86409 0.26597 0.0
C1158 C 0.49418 0.85451 0.24961 0.0
C1159 C 0.50436 0.8065 0.25541 0.0
C1160 C 0.52738 0.87686 0.25877 0.0
C1161 C 0.5374 0.8297 0.26446 0.0
C1162 C 0.36713 0.74494 0.19425 0.0
C1163 C 0.38769 0.73989 0.17725 0.0
C1164 C 0.33431 0.73876 0.18716 0.0
C1165 C 0.37547 0.72959 0.15326 0.0
C1166 C 0.32303 0.72853 0.16299 0.0
N1167 N 0.34369 0.72423 0.14667 0.0
C1168 C 0.38968 0.67975 0.23912 0.0
C1169 C 0.43949 0.71399 0.21487 0.0
C1170 C 0.38636 0.64941 0.22909 0.0
N1171 N 0.41543 0.71108 0.23146 0.0
C1172 C 0.43694 0.68427 0.20415 0.0
C1173 C 0.40957 0.65153 0.21083 0.0
H1174 H 0.37058 0.67842 0.252 0.0
H1175 H 0.45925 0.73936 0.20882 0.0
C1176 C 0.43368 0.86679 0.19738 0.0
N1177 N 0.43314 0.836 0.19837 0.0
C1178 C 0.45223 0.89064 0.17894 0.0
C1179 C 0.47026 0.85126 0.16336 0.0
C1180 C 0.45106 0.82804 0.18191 0.0
C1181 C 0.47116 0.88312 0.16179 0.0
H1182 H 0.421 0.87361 0.2114 0.0
H1183 H 0.45176 0.80429 0.1839 0.0
O1184 O 0.38645 0.74575 0.27118 0.0
O1185 O 0.39066 0.81519 0.25313 0.0
O1186 O 0.44995 0.79669 0.23968 0.0
O1187 O 0.37863 0.75511 0.21786 0.0
H1188 H 0.3563 0.76411 0.30517 0.0
H1189 H 0.421 0.71911 0.29288 0.0
H1190 H 0.36122 0.75791 0.35021 0.0
H1191 H 0.42466 0.71353 0.33813 0.0
H1192 H 0.32321 0.82436 0.19386 0.0
H1193 H 0.37508 0.85772 0.27675 0.0
H1194 H 0.36114 0.80244 0.20885 0.0
H1195 H 0.33736 0.8792 0.26047 0.0
H1196 H 0.50178 0.82795 0.33867 0.0
H1197 H 0.44282 0.88083 0.33302 0.0
H1198 H 0.25479 0.65457 0.25428 0.0
H1199 H 0.24768 0.74337 0.2785 0.0
H1200 H 0.47754 0.86456 0.24402 0.0
H1201 H 0.49567 0.77909 0.25433 0.0
H1202 H 0.53666 0.90434 0.2602 0.0
H1203 H 0.55448 0.82036 0.27036 0.0
H1204 H 0.41288 0.74397 0.18245 0.0
H1205 H 0.31773 0.74194 0.20017 0.0
H1206 H 0.39125 0.72582 0.13988 0.0
H1207 H 0.29782 0.72395 0.15722 0.0
H1208 H 0.36484 0.62463 0.23456 0.0
H1209 H 0.45517 0.68689 0.19001 0.0
H1210 H 0.45288 0.91526 0.1786 0.0
H1211 H 0.48509 0.84481 0.15083 0.0
loop_
_geom_bond_atom_site_label_1
_geom_bond_atom_site_label_2
_geom_bond_distance
_geom_bond_site_symmetry_2
_ccdc_geom_bond_type
C0 C1 1.560 . S
C0 H61 0.959 . S
C0 H62 0.959 . S
C0 H63 0.960 . S
C1 C0 1.560 . S
C1 O56 1.426 . S
C1 H60 0.980 . S
C2 C3 1.407 . S
C2 C7 1.418 . S
C2 O56 1.334 . S
C3 C2 1.407 . S
C3 C4 1.360 . S
C3 H64 0.929 . S
C4 C3 1.360 . S
C4 C5 1.401 . S
C4 C8 1.527 . S
C5 C4 1.401 . S
C5 C6 1.405 . S
C5 C38 1.587 . S
C6 C5 1.405 . S
C6 C7 1.332 . S
C6 C9 1.496 . S
C7 C2 1.418 . S
C7 C6 1.332 . S
C7 H65 0.929 . S
C8 C4 1.527 . S
C8 H66 0.959 . S
C8 H67 0.961 . S
C8 H68 0.961 . S
C9 C6 1.496 . S
C9 H69 0.960 . S
C9 H70 0.960 . S
C9 H71 0.961 . S
C10 C11 1.517 . S
C10 H73 0.961 . S
C10 H74 0.960 . S
C10 H75 0.959 . S
C11 C10 1.517 . S
C11 O59 1.468 . S
C11 H72 0.980 . S
C12 C13 1.349 . S
C12 C17 1.367 . S
C12 O59 1.408 . S
C13 C12 1.349 . S
C13 C14 1.407 . S
C13 H76 0.930 . S
C14 C13 1.407 . S
C14 C15 1.449 1_655 S
C14 C18 1.535 1_655 S
C15 C14 1.449 1_455 S
C15 C16 1.384 1_455 S
C15 C40 1.553 . S
C16 C15 1.384 1_655 S
C16 C17 1.364 . S
C16 C19 1.450 1_655 S
C17 C12 1.367 . S
C17 C16 1.364 . S
C17 H77 0.931 . S
C18 C14 1.535 1_455 S
C18 H78 0.959 . S
C18 H79 0.961 . S
C18 H80 0.959 1_455 S
C19 C16 1.450 1_455 S
C19 H81 0.960 1_455 S
C19 H82 0.960 . S
C19 H83 0.960 1_455 S
C20 C21 1.309 . S
C20 C25 1.304 . S
C20 O58 1.435 . S
C21 C20 1.309 . S
C21 C22 1.476 . S
C21 H85 0.930 . S
C22 C21 1.476 . S
C22 C23 1.400 . S
C22 C26 1.567 . S
C23 C22 1.400 . S
C23 C24 1.373 . S
C23 C45 1.432 . S
C24 C23 1.373 . S
C24 C25 1.339 . S
C24 C27 1.530 . S
C25 C20 1.304 . S
C25 C24 1.339 . S
C25 H86 0.930 . S
C26 C22 1.567 . S
C26 H87 0.961 . S
C26 H88 0.960 . S
C26 H89 0.958 . S
C27 C24 1.530 . S
C27 H90 0.961 . S
C27 H91 0.960 . S
C27 H92 0.960 . S
C28 C29 1.530 . S
C28 H94 0.961 . S
C28 H95 0.961 . S
C28 H96 0.959 . S
C29 C28 1.530 . S
C29 O57 1.412 . S
C29 H93 0.980 . S
C30 C31 1.288 . S
C30 C35 1.377 . S
C30 O57 1.393 . S
C31 C30 1.288 . S
C31 C32 1.369 . S
C31 H97 0.932 . S
C32 C31 1.369 . S
C32 C33 1.398 . S
C32 C36 1.527 . S
C33 C32 1.398 . S
C33 C34 1.380 . S
C33 C47 1.497 . S
C34 C33 1.380 . S
C34 C35 1.383 . S
C34 C37 1.603 . S
C35 C30 1.377 . S
C35 C34 1.383 . S
C35 H98 0.929 . S
C36 C32 1.527 . S
C36 H99 0.961 . S
C36 H100 0.959 . S
C36 H101 0.959 . S
C37 C34 1.603 . S
C37 H102 0.960 . S
C37 H103 0.962 . S
C37 H104 0.961 . S
C38 C5 1.587 . S
C38 C39 1.360 . S
C38 C51 1.412 . S
C39 C38 1.360 . S
C39 C40 1.365 . S
C39 H105 0.929 . S
C40 C15 1.553 . S
C40 C39 1.365 . S
C40 C41 1.404 . S
C41 C40 1.404 . S
C41 C42 1.395 1_455 S
C41 C52 1.451 . S
C42 C41 1.395 1_655 S
C42 C43 1.322 . S
C42 H106 0.930 . S
C43 C42 1.322 . S
C43 C44 1.459 . S
C43 H107 0.929 . S
C44 C43 1.459 . S
C44 C45 1.445 . S
C44 C53 1.395 1_655 S
C45 C23 1.432 . S
C45 C44 1.445 . S
C45 C46 1.370 . S
C46 C45 1.370 . S
C46 C47 1.438 1_655 S
C46 H108 0.930 . S
C47 C33 1.497 . S
C47 C46 1.438 1_455 S
C47 C48 1.360 . S
C48 C47 1.360 . S
C48 C49 1.401 . S
C48 C53 1.446 . S
C49 C48 1.401 . S
C49 C50 1.347 . S
C49 H109 0.929 . S
C50 C49 1.347 . S
C50 C51 1.455 . S
C50 H110 0.930 . S
C51 C38 1.412 . S
C51 C50 1.455 . S
C51 C52 1.331 . S
C52 C41 1.451 . S
C52 C51 1.331 . S
C52 C53 1.497 . S
C53 C44 1.395 1_455 S
C53 C48 1.446 . S
C53 C52 1.497 . S
C54 C55 1.582 . S
C54 H111 0.962 . S
C54 H112 0.959 . S
C54 H113 0.958 . S
C55 C54 1.582 . S
C55 O58 1.458 . S
C55 H84 0.980 . S
O56 C1 1.426 . S
O56 C2 1.334 . S
O57 C29 1.412 . S
O57 C30 1.393 . S
O58 C20 1.435 . S
O58 C55 1.458 . S
O59 C11 1.468 . S
O59 C12 1.408 . S
H60 C1 0.980 . S
H61 C0 0.959 . S
H62 C0 0.959 . S
H63 C0 0.960 . S
H64 C3 0.929 . S
H65 C7 0.929 . S
H66 C8 0.959 . S
H67 C8 0.961 . S
H68 C8 0.961 . S
H69 C9 0.960 . S
H70 C9 0.960 . S
H71 C9 0.961 . S
H72 C11 0.980 . S
H73 C10 0.961 . S
H74 C10 0.960 . S
H75 C10 0.959 . S
H76 C13 0.930 . S
H77 C17 0.931 . S
H78 C18 0.959 . S
H79 C18 0.961 . S
H80 C18 0.959 1_655 S
H81 C19 0.960 1_655 S
H82 C19 0.960 . S
H83 C19 0.960 1_655 S
H84 C55 0.980 . S
H85 C21 0.930 . S
H86 C25 0.930 . S
H87 C26 0.961 . S
H88 C26 0.960 . S
H89 C26 0.958 . S
H90 C27 0.961 . S
H91 C27 0.960 . S
H92 C27 0.960 . S
H93 C29 0.980 . S
H94 C28 0.961 . S
H95 C28 0.961 . S
H96 C28 0.959 . S
H97 C31 0.932 . S
H98 C35 0.929 . S
H99 C36 0.961 . S
H100 C36 0.959 . S
H101 C36 0.959 . S
H102 C37 0.960 . S
H103 C37 0.962 . S
H104 C37 0.961 . S
H105 C39 0.929 . S
H106 C42 0.930 . S
H107 C43 0.929 . S
H108 C46 0.930 . S
H109 C49 0.929 . S
H110 C50 0.930 . S
H111 C54 0.962 . S
H112 C54 0.959 . S
H113 C54 0.958 . S
C114 C115 1.560 . S
C114 H175 0.959 . S
C114 H176 0.959 . S
C114 H177 0.960 . S
C115 C114 1.560 . S
C115 O170 1.426 . S
C115 H174 0.980 . S
C116 C117 1.407 . S
C116 C121 1.418 . S
C116 O170 1.334 . S
C117 C116 1.407 . S
C117 C118 1.360 . S
C117 H178 0.929 . S
C118 C117 1.360 . S
C118 C119 1.401 . S
C118 C122 1.527 . S
C119 C118 1.401 . S
C119 C120 1.405 . S
C119 C152 1.587 . S
C120 C119 1.405 . S
C120 C121 1.332 . S
C120 C123 1.496 . S
C121 C116 1.418 . S
C121 C120 1.332 . S
C121 H179 0.929 . S
C122 C118 1.527 . S
C122 H180 0.959 . S
C122 H181 0.961 . S
C122 H182 0.961 . S
C123 C120 1.496 . S
C123 H183 0.960 . S
C123 H184 0.960 . S
C123 H185 0.961 . S
C124 C125 1.517 . S
C124 H187 0.961 . S
C124 H188 0.960 . S
C124 H189 0.959 . S
C125 C124 1.517 . S
C125 O173 1.468 . S
C125 H186 0.980 . S
C126 C127 1.349 . S
C126 C131 1.367 . S
C126 O173 1.408 . S
C127 C126 1.349 . S
C127 C128 1.407 . S
C127 H190 0.930 . S
C128 C127 1.407 . S
C128 C129 1.449 . S
C128 C132 1.535 . S
C129 C128 1.449 . S
C129 C130 1.384 . S
C129 C154 1.553 . S
C130 C129 1.384 . S
C130 C131 1.364 . S
C130 C133 1.450 . S
C131 C126 1.367 . S
C131 C130 1.364 . S
C131 H191 0.931 . S
C132 C128 1.535 . S
C132 H192 0.959 . S
C132 H193 0.961 . S
C132 H194 0.959 . S
C133 C130 1.450 . S
C133 H195 0.960 . S
C133 H196 0.960 . S
C133 H197 0.960 . S
C134 C135 1.309 . S
C134 C139 1.304 . S
C134 O172 1.435 . S
C135 C134 1.309 . S
C135 C136 1.476 . S
C135 H199 0.930 . S
C136 C135 1.476 . S
C136 C137 1.400 . S
C136 C140 1.567 . S
C137 C136 1.400 . S
C137 C138 1.373 . S
C137 C159 1.432 . S
C138 C137 1.373 . S
C138 C139 1.339 . S
C138 C141 1.530 . S
C139 C134 1.304 . S
C139 C138 1.339 . S
C139 H200 0.930 . S
C140 C136 1.567 . S
C140 H201 0.961 . S
C140 H202 0.960 . S
C140 H203 0.958 . S
C141 C138 1.530 . S
C141 H204 0.961 . S
C141 H205 0.960 . S
C141 H206 0.960 . S
C142 C143 1.530 . S
C142 H208 0.961 . S
C142 H209 0.961 . S
C142 H210 0.959 . S
C143 C142 1.530 . S
C143 O171 1.412 . S
C143 H207 0.980 . S
C144 C145 1.288 . S
C144 C149 1.377 . S
C144 O171 1.393 . S
C145 C144 1.288 . S
C145 C146 1.369 . S
C145 H211 0.932 . S
C146 C145 1.369 . S
C146 C147 1.398 . S
C146 C150 1.527 1_565 S
C147 C146 1.398 . S
C147 C148 1.380 . S
C147 C161 1.497 1_565 S
C148 C147 1.380 . S
C148 C149 1.383 . S
C148 C151 1.603 . S
C149 C144 1.377 . S
C149 C148 1.383 . S
C149 H212 0.929 . S
C150 C146 1.527 1_545 S
C150 H213 0.961 . S
C150 H214 0.959 . S
C150 H215 0.959 . S
C151 C148 1.603 . S
C151 H216 0.960 . S
C151 H217 0.943 1_565 S
C151 H218 0.961 . S
C152 C119 1.587 . S
C152 C153 1.360 . S
C152 C165 1.412 . S
C153 C152 1.360 . S
C153 C154 1.365 1_565 S
C153 H219 0.929 . S
C154 C129 1.553 . S
C154 C153 1.365 1_545 S
C154 C155 1.404 . S
C155 C154 1.404 . S
C155 C156 1.395 . S
C155 C166 1.451 . S
C156 C155 1.395 . S
C156 C157 1.322 . S
C156 H220 0.930 . S
C157 C156 1.322 . S
C157 C158 1.459 . S
C157 H221 0.929 . S
C158 C157 1.459 . S
C158 C159 1.445 . S
C158 C167 1.395 . S
C159 C137 1.432 . S
C159 C158 1.445 . S
C159 C160 1.370 . S
C160 C159 1.370 . S
C160 C161 1.438 . S
C160 H222 0.930 . S
C161 C147 1.497 1_545 S
C161 C160 1.438 . S
C161 C162 1.360 . S
C162 C161 1.360 . S
C162 C163 1.401 1_545 S
C162 C167 1.446 . S
C163 C162 1.401 1_565 S
C163 C164 1.347 . S
C163 H223 0.929 . S
C164 C163 1.347 . S
C164 C165 1.455 . S
C164 H224 0.930 . S
C165 C152 1.412 . S
C165 C164 1.455 . S
C165 C166 1.331 1_565 S
C166 C155 1.451 . S
C166 C165 1.331 1_545 S
C166 C167 1.497 . S
C167 C158 1.395 . S
C167 C162 1.446 . S
C167 C166 1.497 . S
C168 C169 1.582 . S
C168 H225 0.962 . S
C168 H226 0.959 . S
C168 H227 0.958 . S
C169 C168 1.582 . S
C169 O172 1.458 . S
C169 H198 0.980 . S
O170 C115 1.426 . S
O170 C116 1.334 . S
O171 C143 1.412 . S
O171 C144 1.393 . S
O172 C134 1.435 . S
O172 C169 1.458 . S
O173 C125 1.468 . S
O173 C126 1.408 . S
H174 C115 0.980 . S
H175 C114 0.959 . S
H176 C114 0.959 . S
H177 C114 0.960 . S
H178 C117 0.929 . S
H179 C121 0.929 . S
H180 C122 0.959 . S
H181 C122 0.961 . S
H182 C122 0.961 . S
H183 C123 0.960 . S
H184 C123 0.960 . S
H185 C123 0.961 . S
H186 C125 0.980 . S
H187 C124 0.961 . S
H188 C124 0.960 . S
H189 C124 0.959 . S
H190 C127 0.930 . S
H191 C131 0.931 . S
H192 C132 0.959 . S
H193 C132 0.961 . S
H194 C132 0.959 . S
H195 C133 0.960 . S
H196 C133 0.960 . S
H197 C133 0.960 . S
H198 C169 0.980 . S
H199 C135 0.930 . S
H200 C139 0.930 . S
H201 C140 0.961 . S
H202 C140 0.960 . S
H203 C140 0.958 . S
H204 C141 0.961 . S
H205 C141 0.960 . S
H206 C141 0.960 . S
H207 C143 0.980 . S
H208 C142 0.961 . S
H209 C142 0.961 . S
H210 C142 0.959 . S
H211 C145 0.932 . S
H212 C149 0.929 . S
H213 C150 0.961 . S
H214 C150 0.959 . S
H215 C150 0.959 . S
H216 C151 0.960 . S
H217 C151 0.943 1_545 S
H218 C151 0.961 . S
H219 C153 0.929 . S
H220 C156 0.930 . S
H221 C157 0.929 . S
H222 C160 0.930 . S
H223 C163 0.929 . S
H224 C164 0.930 . S
H225 C168 0.962 . S
H226 C168 0.959 . S
H227 C168 0.958 . S
C228 C229 1.560 . S
C228 H289 0.959 . S
C228 H290 0.959 . S
C228 H291 0.960 . S
C229 C228 1.560 . S
C229 O284 1.426 . S
C229 H288 0.980 . S
C230 C231 1.407 . S
C230 C235 1.418 . S
C230 O284 1.334 . S
C231 C230 1.407 . S
C231 C232 1.360 . S
C231 H292 0.929 . S
C232 C231 1.360 . S
C232 C233 1.401 . S
C232 C236 1.527 . S
C233 C232 1.401 . S
C233 C234 1.405 . S
C233 C266 1.587 . S
C234 C233 1.405 . S
C234 C235 1.332 . S
C234 C237 1.496 . S
C235 C230 1.418 . S
C235 C234 1.332 . S
C235 H293 0.929 . S
C236 C232 1.527 . S
C236 H294 0.959 . S
C236 H295 0.961 . S
C236 H296 0.961 . S
C237 C234 1.496 . S
C237 H297 0.960 . S
C237 H298 0.960 . S
C237 H299 0.961 . S
C238 C239 1.517 . S
C238 H301 0.961 . S
C238 H302 0.960 . S
C238 H303 0.959 . S
C239 C238 1.517 . S
C239 O287 1.468 . S
C239 H300 0.980 . S
C240 C241 1.349 . S
C240 C245 1.367 . S
C240 O287 1.408 . S
C241 C240 1.349 . S
C241 C242 1.407 . S
C241 H304 0.930 . S
C242 C241 1.407 . S
C242 C243 1.449 . S
C242 C246 1.535 . S
C243 C242 1.449 . S
C243 C244 1.384 . S
C243 C268 1.553 . S
C244 C243 1.384 . S
C244 C245 1.364 . S
C244 C247 1.450 . S
C245 C240 1.367 . S
C245 C244 1.364 . S
C245 H305 0.931 . S
C246 C242 1.535 . S
C246 H306 0.959 . S
C246 H307 0.961 . S
C246 H308 0.959 . S
C247 C244 1.450 . S
C247 H309 0.960 . S
C247 H310 0.960 . S
C247 H311 0.960 . S
C248 C249 1.309 . S
C248 C253 1.304 . S
C248 O286 1.435 . S
C249 C248 1.309 . S
C249 C250 1.476 . S
C249 H313 0.930 . S
C250 C249 1.476 . S
C250 C251 1.400 . S
C250 C254 1.567 . S
C251 C250 1.400 . S
C251 C252 1.373 . S
C251 C273 1.432 . S
C252 C251 1.373 . S
C252 C253 1.339 . S
C252 C255 1.530 . S
C253 C248 1.304 . S
C253 C252 1.339 . S
C253 H314 0.930 . S
C254 C250 1.567 . S
C254 H315 0.961 . S
C254 H316 0.960 . S
C254 H317 0.958 . S
C255 C252 1.530 . S
C255 H318 0.961 . S
C255 H319 0.960 . S
C255 H320 0.960 . S
C256 C257 1.530 . S
C256 H322 0.961 . S
C256 H323 0.961 . S
C256 H324 0.959 . S
C257 C256 1.530 . S
C257 O285 1.412 . S
C257 H321 0.980 . S
C258 C259 1.288 . S
C258 C263 1.377 . S
C258 O285 1.393 . S
C259 C258 1.288 . S
C259 C260 1.369 . S
C259 H325 0.932 . S
C260 C259 1.369 . S
C260 C261 1.398 . S
C260 C264 1.527 . S
C261 C260 1.398 . S
C261 C262 1.380 . S
C261 C275 1.497 . S
C262 C261 1.380 . S
C262 C263 1.383 . S
C262 C265 1.603 . S
C263 C258 1.377 . S
C263 C262 1.383 . S
C263 H326 0.929 . S
C264 C260 1.527 . S
C264 H327 0.961 . S
C264 H328 0.959 . S
C264 H329 0.959 . S
C265 C262 1.603 . S
C265 H330 0.960 . S
C265 H331 0.962 . S
C265 H332 0.961 . S
C266 C233 1.587 . S
C266 C267 1.360 . S
C266 C279 1.412 . S
C267 C266 1.360 . S
C267 C268 1.365 . S
C267 H333 0.929 . S
C268 C243 1.553 . S
C268 C267 1.365 . S
C268 C269 1.404 . S
C269 C268 1.404 . S
C269 C270 1.395 . S
C269 C280 1.451 . S
C270 C269 1.395 . S
C270 C271 1.322 . S
C270 H334 0.930 . S
C271 C270 1.322 . S
C271 C272 1.459 . S
C271 H335 0.929 . S
C272 C271 1.459 . S
C272 C273 1.445 . S
C272 C281 1.395 . S
C273 C251 1.432 . S
C273 C272 1.445 . S
C273 C274 1.370 . S
C274 C273 1.370 . S
C274 C275 1.438 . S
C274 H336 0.930 . S
C275 C261 1.497 . S
C275 C274 1.438 . S
C275 C276 1.360 . S
C276 C275 1.360 . S
C276 C277 1.401 . S
C276 C281 1.446 . S
C277 C276 1.401 . S
C277 C278 1.347 . S
C277 H337 0.929 . S
C278 C277 1.347 . S
C278 C279 1.455 . S
C278 H338 0.930 . S
C279 C266 1.412 . S
C279 C278 1.455 . S
C279 C280 1.331 . S
C280 C269 1.451 . S
C280 C279 1.331 . S
C280 C281 1.497 . S
C281 C272 1.395 . S
C281 C276 1.446 . S
C281 C280 1.497 . S
C282 C283 1.582 . S
C282 H339 0.962 . S
C282 H340 0.959 . S
C282 H341 0.958 . S
C283 C282 1.582 . S
C283 O286 1.458 . S
C283 H312 0.980 . S
O284 C229 1.426 . S
O284 C230 1.334 . S
O285 C257 1.412 . S
O285 C258 1.393 . S
O286 C248 1.435 . S
O286 C283 1.458 . S
O287 C239 1.468 . S
O287 C240 1.408 . S
H288 C229 0.980 . S
H289 C228 0.959 . S
H290 C228 0.959 . S
H291 C228 0.960 . S
H292 C231 0.929 . S
H293 C235 0.929 . S
H294 C236 0.959 . S
H295 C236 0.961 . S
H296 C236 0.961 . S
H297 C237 0.960 . S
H298 C237 0.960 . S
H299 C237 0.961 . S
H300 C239 0.980 . S
H301 C238 0.961 . S
H302 C238 0.960 . S
H303 C238 0.959 . S
H304 C241 0.930 . S
H305 C245 0.931 . S
H306 C246 0.959 . S
H307 C246 0.961 . S
H308 C246 0.959 . S
H309 C247 0.960 . S
H310 C247 0.960 . S
H311 C247 0.960 . S
H312 C283 0.980 . S
H313 C249 0.930 . S
H314 C253 0.930 . S
H315 C254 0.961 . S
H316 C254 0.960 . S
H317 C254 0.958 . S
H318 C255 0.961 . S
H319 C255 0.960 . S
H320 C255 0.960 . S
H321 C257 0.980 . S
H322 C256 0.961 . S
H323 C256 0.961 . S
H324 C256 0.959 . S
H325 C259 0.932 . S
H326 C263 0.929 . S
H327 C264 0.961 . S
H328 C264 0.959 . S
H329 C264 0.959 . S
H330 C265 0.960 . S
H331 C265 0.962 . S
H332 C265 0.961 . S
H333 C267 0.929 . S
H334 C270 0.930 . S
H335 C271 0.929 . S
H336 C274 0.930 . S
H337 C277 0.929 . S
H338 C278 0.930 . S
H339 C282 0.962 . S
H340 C282 0.959 . S
H341 C282 0.958 . S
C342 C343 1.560 . S
C342 H403 0.959 . S
C342 H404 0.959 . S
C342 H405 0.960 . S
C343 C342 1.560 . S
C343 O398 1.426 . S
C343 H402 0.980 . S
C344 C345 1.407 . S
C344 C349 1.418 . S
C344 O398 1.334 . S
C345 C344 1.407 . S
C345 C346 1.360 . S
C345 H406 0.929 . S
C346 C345 1.360 . S
C346 C347 1.401 . S
C346 C350 1.527 . S
C347 C346 1.401 . S
C347 C348 1.405 . S
C347 C380 1.587 . S
C348 C347 1.405 . S
C348 C349 1.332 . S
C348 C351 1.496 . S
C349 C344 1.418 . S
C349 C348 1.332 . S
C349 H407 0.929 . S
C350 C346 1.527 . S
C350 H408 0.959 . S
C350 H409 0.961 . S
C350 H410 0.961 . S
C351 C348 1.496 . S
C351 H411 0.960 . S
C351 H412 0.960 . S
C351 H413 0.961 . S
C352 C353 1.537 . S
C352 H415 0.944 1_556 S
C352 H416 0.949 1_556 S
C352 H417 0.969 . S
C353 C352 1.537 . S
C353 O401 1.468 . S
C353 H414 0.980 . S
C354 C355 1.349 . S
C354 C359 1.367 . S
C354 O401 1.408 . S
C355 C354 1.349 . S
C355 C356 1.407 . S
C355 H418 0.930 . S
C356 C355 1.407 . S
C356 C357 1.449 1_655 S
C356 C360 1.535 1_655 S
C357 C356 1.449 1_455 S
C357 C358 1.384 1_455 S
C357 C382 1.553 . S
C358 C357 1.384 1_655 S
C358 C359 1.364 . S
C358 C361 1.450 1_655 S
C359 C354 1.367 . S
C359 C358 1.364 . S
C359 H419 0.931 . S
C360 C356 1.535 1_455 S
C360 H420 0.959 . S
C360 H421 0.961 . S
C360 H422 0.959 1_455 S
C361 C358 1.450 1_455 S
C361 H423 0.960 1_455 S
C361 H424 0.960 . S
C361 H425 0.960 1_455 S
C362 C363 1.309 . S
C362 C367 1.304 . S
C362 O400 1.435 . S
C363 C362 1.309 . S
C363 C364 1.476 . S
C363 H427 0.930 . S
C364 C363 1.476 . S
C364 C365 1.400 . S
C364 C368 1.567 . S
C365 C364 1.400 . S
C365 C366 1.373 . S
C365 C387 1.432 . S
C366 C365 1.373 . S
C366 C367 1.339 . S
C366 C369 1.530 . S
C367 C362 1.304 . S
C367 C366 1.339 . S
C367 H428 0.930 . S
C368 C364 1.567 . S
C368 H429 0.961 . S
C368 H430 0.960 . S
C368 H431 0.958 . S
C369 C366 1.530 . S
C369 H432 0.961 . S
C369 H433 0.960 . S
C369 H434 0.960 . S
C370 C371 1.530 . S
C370 H436 0.961 . S
C370 H437 0.961 . S
C370 H438 0.959 . S
C371 C370 1.530 . S
C371 O399 1.412 . S
C371 H435 0.980 . S
C372 C373 1.288 . S
C372 C377 1.377 . S
C372 O399 1.393 . S
C373 C372 1.288 . S
C373 C374 1.369 . S
C373 H439 0.932 . S
C374 C373 1.369 . S
C374 C375 1.398 . S
C374 C378 1.527 . S
C375 C374 1.398 . S
C375 C376 1.380 . S
C375 C389 1.497 . S
C376 C375 1.380 . S
C376 C377 1.383 . S
C376 C379 1.603 . S
C377 C372 1.377 . S
C377 C376 1.383 . S
C377 H440 0.929 . S
C378 C374 1.527 . S
C378 H441 0.961 . S
C378 H442 0.959 . S
C378 H443 0.959 . S
C379 C376 1.603 . S
C379 H444 0.960 . S
C379 H445 0.962 . S
C379 H446 0.961 . S
C380 C347 1.587 . S
C380 C381 1.360 . S
C380 C393 1.412 . S
C381 C380 1.360 . S
C381 C382 1.365 . S
C381 H447 0.929 . S
C382 C357 1.553 . S
C382 C381 1.365 . S
C382 C383 1.404 . S
C383 C382 1.404 . S
C383 C384 1.395 1_455 S
C383 C394 1.451 . S
C384 C383 1.395 1_655 S
C384 C385 1.322 . S
C384 H448 0.930 . S
C385 C384 1.322 . S
C385 C386 1.459 . S
C385 H449 0.929 . S
C386 C385 1.459 . S
C386 C387 1.445 . S
C386 C395 1.395 1_655 S
C387 C365 1.432 . S
C387 C386 1.445 . S
C387 C388 1.370 . S
C388 C387 1.370 . S
C388 C389 1.438 1_655 S
C388 H450 0.930 . S
C389 C375 1.497 . S
C389 C388 1.438 1_455 S
C389 C390 1.360 . S
C390 C389 1.360 . S
C390 C391 1.401 . S
C390 C395 1.446 . S
C391 C390 1.401 . S
C391 C392 1.347 . S
C391 H451 0.929 . S
C392 C391 1.347 . S
C392 C393 1.455 . S
C392 H452 0.930 . S
C393 C380 1.412 . S
C393 C392 1.455 . S
C393 C394 1.331 . S
C394 C383 1.451 . S
C394 C393 1.331 . S
C394 C395 1.497 . S
C395 C386 1.395 1_455 S
C395 C390 1.446 . S
C395 C394 1.497 . S
C396 C397 1.582 . S
C396 H453 0.962 . S
C396 H454 0.959 . S
C396 H455 0.958 . S
C397 C396 1.582 . S
C397 O400 1.458 . S
C397 H426 0.980 . S
O398 C343 1.426 . S
O398 C344 1.334 . S
O399 C371 1.412 . S
O399 C372 1.393 . S
O400 C362 1.435 . S
O400 C397 1.458 . S
O401 C353 1.468 . S
O401 C354 1.408 . S
H402 C343 0.980 . S
H403 C342 0.959 . S
H404 C342 0.959 . S
H405 C342 0.960 . S
H406 C345 0.929 . S
H407 C349 0.929 . S
H408 C350 0.959 . S
H409 C350 0.961 . S
H410 C350 0.961 . S
H411 C351 0.960 . S
H412 C351 0.960 . S
H413 C351 0.961 . S
H414 C353 0.980 . S
H415 C352 0.944 1_554 S
H416 C352 0.949 1_554 S
H417 C352 0.969 . S
H418 C355 0.930 . S
H419 C359 0.931 . S
H420 C360 0.959 . S
H421 C360 0.961 . S
H422 C360 0.959 1_655 S
H423 C361 0.960 1_655 S
H424 C361 0.960 . S
H425 C361 0.960 1_655 S
H426 C397 0.980 . S
H427 C363 0.930 . S
H428 C367 0.930 . S
H429 C368 0.961 . S
H430 C368 0.960 . S
H431 C368 0.958 . S
H432 C369 0.961 . S
H433 C369 0.960 . S
H434 C369 0.960 . S
H435 C371 0.980 . S
H436 C370 0.961 . S
H437 C370 0.961 . S
H438 C370 0.959 . S
H439 C373 0.932 . S
H440 C377 0.929 . S
H441 C378 0.961 . S
H442 C378 0.959 . S
H443 C378 0.959 . S
H444 C379 0.960 . S
H445 C379 0.962 . S
H446 C379 0.961 . S
H447 C381 0.929 . S
H448 C384 0.930 . S
H449 C385 0.929 . S
H450 C388 0.930 . S
H451 C391 0.929 . S
H452 C392 0.930 . S
H453 C396 0.962 . S
H454 C396 0.959 . S
H455 C396 0.958 . S
C456 C457 1.560 . S
C456 H517 0.959 . S
C456 H518 0.959 . S
C456 H519 0.960 . S
C457 C456 1.560 . S
C457 O512 1.426 . S
C457 H516 0.980 . S
C458 C459 1.407 . S
C458 C463 1.418 . S
C458 O512 1.334 . S
C459 C458 1.407 . S
C459 C460 1.360 . S
C459 H520 0.929 . S
C460 C459 1.360 . S
C460 C461 1.401 . S
C460 C464 1.527 . S
C461 C460 1.401 . S
C461 C462 1.405 . S
C461 C494 1.587 . S
C462 C461 1.405 . S
C462 C463 1.332 . S
C462 C465 1.496 . S
C463 C458 1.418 . S
C463 C462 1.332 . S
C463 H521 0.929 . S
C464 C460 1.527 . S
C464 H522 0.959 . S
C464 H523 0.961 . S
C464 H524 0.961 . S
C465 C462 1.496 . S
C465 H525 0.960 . S
C465 H526 0.960 . S
C465 H527 0.961 . S
C466 C467 1.517 . S
C466 H529 0.961 . S
C466 H530 0.960 . S
C466 H531 0.959 . S
C467 C466 1.517 . S
C467 O515 1.468 . S
C467 H528 0.980 . S
C468 C469 1.349 . S
C468 C473 1.367 . S
C468 O515 1.408 . S
C469 C468 1.349 . S
C469 C470 1.407 . S
C469 H532 0.930 . S
C470 C469 1.407 . S
C470 C471 1.449 . S
C470 C474 1.535 . S
C471 C470 1.449 . S
C471 C472 1.384 . S
C471 C496 1.553 . S
C472 C471 1.384 . S
C472 C473 1.364 . S
C472 C475 1.450 . S
C473 C468 1.367 . S
C473 C472 1.364 . S
C473 H533 0.931 . S
C474 C470 1.535 . S
C474 H534 0.959 . S
C474 H535 0.961 . S
C474 H536 0.959 . S
C475 C472 1.450 . S
C475 H537 0.960 . S
C475 H538 0.960 . S
C475 H539 0.960 . S
C476 C477 1.309 . S
C476 C481 1.304 . S
C476 O514 1.435 . S
C477 C476 1.309 . S
C477 C478 1.476 . S
C477 H541 0.930 . S
C478 C477 1.476 . S
C478 C479 1.400 . S
C478 C482 1.567 . S
C479 C478 1.400 . S
C479 C480 1.373 . S
C479 C501 1.432 . S
C480 C479 1.373 . S
C480 C481 1.339 . S
C480 C483 1.530 . S
C481 C476 1.304 . S
C481 C480 1.339 . S
C481 H542 0.930 . S
C482 C478 1.567 . S
C482 H543 0.961 . S
C482 H544 0.960 . S
C482 H545 0.958 . S
C483 C480 1.530 . S
C483 H546 0.961 . S
C483 H547 0.960 . S
C483 H548 0.960 . S
C484 C485 1.530 . S
C484 H550 0.961 . S
C484 H551 0.961 . S
C484 H552 0.959 . S
C485 C484 1.530 . S
C485 O513 1.412 . S
C485 H549 0.980 . S
C486 C487 1.288 . S
C486 C491 1.377 . S
C486 O513 1.393 . S
C487 C486 1.288 . S
C487 C488 1.369 . S
C487 H553 0.932 . S
C488 C487 1.369 . S
C488 C489 1.398 . S
C488 C492 1.527 1_565 S
C489 C488 1.398 . S
C489 C490 1.380 . S
C489 C503 1.497 1_565 S
C490 C489 1.380 . S
C490 C491 1.383 . S
C490 C493 1.603 . S
C491 C486 1.377 . S
C491 C490 1.383 . S
C491 H554 0.929 . S
C492 C488 1.527 1_545 S
C492 H555 0.961 . S
C492 H556 0.959 . S
C492 H557 0.959 . S
C493 C490 1.603 . S
C493 H558 0.960 . S
C493 H559 0.962 1_565 S
C493 H560 0.961 . S
C494 C461 1.587 . S
C494 C495 1.360 . S
C494 C507 1.412 . S
C495 C494 1.360 . S
C495 C496 1.365 1_565 S
C495 H561 0.929 . S
C496 C471 1.553 . S
C496 C495 1.365 1_545 S
C496 C497 1.404 . S
C497 C496 1.404 . S
C497 C498 1.395 . S
C497 C508 1.451 . S
C498 C497 1.395 . S
C498 C499 1.322 . S
C498 H562 0.930 . S
C499 C498 1.322 . S
C499 C500 1.459 1_556 S
C499 H563 0.929 . S
C500 C499 1.459 1_554 S
C500 C501 1.445 . S
C500 C509 1.395 . S
C501 C479 1.432 . S
C501 C500 1.445 . S
C501 C502 1.370 . S
C502 C501 1.370 . S
C502 C503 1.438 . S
C502 H564 0.930 . S
C503 C489 1.497 1_545 S
C503 C502 1.438 . S
C503 C504 1.360 . S
C504 C503 1.360 . S
C504 C505 1.401 1_545 S
C504 C509 1.444 . S
C505 C504 1.401 1_565 S
C505 C506 1.347 1_554 S
C505 H565 0.929 . S
C506 C505 1.347 1_556 S
C506 C507 1.455 . S
C506 H566 0.930 . S
C507 C494 1.412 . S
C507 C506 1.455 . S
C507 C508 1.331 1_565 S
C508 C497 1.451 . S
C508 C507 1.331 1_545 S
C508 C509 1.498 1_556 S
C509 C500 1.395 . S
C509 C504 1.444 . S
C509 C508 1.498 1_554 S
C510 C511 1.582 . S
C510 H567 0.962 . S
C510 H568 0.959 . S
C510 H569 0.958 . S
C511 C510 1.582 . S
C511 O514 1.458 . S
C511 H540 0.980 . S
O512 C457 1.426 . S
O512 C458 1.334 . S
O513 C485 1.412 . S
O513 C486 1.393 . S
O514 C476 1.435 . S
O514 C511 1.458 . S
O515 C467 1.468 . S
O515 C468 1.408 . S
H516 C457 0.980 . S
H517 C456 0.959 . S
H518 C456 0.959 . S
H519 C456 0.960 . S
H520 C459 0.929 . S
H521 C463 0.929 . S
H522 C464 0.959 . S
H523 C464 0.961 . S
H524 C464 0.961 . S
H525 C465 0.960 . S
H526 C465 0.960 . S
H527 C465 0.961 . S
H528 C467 0.980 . S
H529 C466 0.961 . S
H530 C466 0.960 . S
H531 C466 0.959 . S
H532 C469 0.930 . S
H533 C473 0.931 . S
H534 C474 0.959 . S
H535 C474 0.961 . S
H536 C474 0.959 . S
H537 C475 0.960 . S
H538 C475 0.960 . S
H539 C475 0.960 . S
H540 C511 0.980 . S
H541 C477 0.930 . S
H542 C481 0.930 . S
H543 C482 0.961 . S
H544 C482 0.960 . S
H545 C482 0.958 . S
H546 C483 0.961 . S
H547 C483 0.960 . S
H548 C483 0.960 . S
H549 C485 0.980 . S
H550 C484 0.961 . S
H551 C484 0.961 . S
H552 C484 0.959 . S
H553 C487 0.932 . S
H554 C491 0.929 . S
H555 C492 0.961 . S
H556 C492 0.959 . S
H557 C492 0.959 . S
H558 C493 0.960 . S
H559 C493 0.962 1_545 S
H560 C493 0.961 . S
H561 C495 0.929 . S
H562 C498 0.930 . S
H563 C499 0.929 . S
H564 C502 0.930 . S
H565 C505 0.929 . S
H566 C506 0.930 . S
H567 C510 0.962 . S
H568 C510 0.959 . S
H569 C510 0.958 . S
C570 C571 1.560 . S
C570 H631 0.959 . S
C570 H632 0.959 . S
C570 H633 0.960 . S
C571 C570 1.560 . S
C571 O626 1.426 . S
C571 H630 0.980 . S
C572 C573 1.407 . S
C572 C577 1.418 . S
C572 O626 1.334 . S
C573 C572 1.407 . S
C573 C574 1.360 . S
C573 H634 0.929 . S
C574 C573 1.360 . S
C574 C575 1.401 . S
C574 C578 1.527 . S
C575 C574 1.401 . S
C575 C576 1.405 . S
C575 C608 1.587 . S
C576 C575 1.405 . S
C576 C577 1.332 . S
C576 C579 1.496 . S
C577 C572 1.418 . S
C577 C576 1.332 . S
C577 H635 0.929 . S
C578 C574 1.527 . S
C578 H636 0.959 . S
C578 H637 0.961 . S
C578 H638 0.961 . S
C579 C576 1.496 . S
C579 H639 0.960 . S
C579 H640 0.960 . S
C579 H641 0.961 . S
C580 C581 1.517 1_556 S
C580 H643 0.961 . S
C580 H644 0.960 . S
C580 H645 0.959 . S
C581 C580 1.517 1_554 S
C581 O629 1.468 . S
C581 H642 0.980 . S
C582 C583 1.349 . S
C582 C587 1.367 . S
C582 O629 1.408 . S
C583 C582 1.349 . S
C583 C584 1.407 . S
C583 H646 0.930 . S
C584 C583 1.407 . S
C584 C585 1.449 . S
C584 C588 1.535 . S
C585 C584 1.449 . S
C585 C586 1.384 . S
C585 C610 1.553 . S
C586 C585 1.384 . S
C586 C587 1.364 . S
C586 C589 1.450 . S
C587 C582 1.367 . S
C587 C586 1.364 . S
C587 H647 0.931 . S
C588 C584 1.535 . S
C588 H648 0.959 . S
C588 H649 0.961 . S
C588 H650 0.959 . S
C589 C586 1.450 . S
C589 H651 0.960 . S
C589 H652 0.960 . S
C589 H653 0.960 . S
C590 C591 1.309 . S
C590 C595 1.304 . S
C590 O628 1.435 . S
C591 C590 1.309 . S
C591 C592 1.476 . S
C591 H655 0.930 . S
C592 C591 1.476 . S
C592 C593 1.400 . S
C592 C596 1.567 . S
C593 C592 1.400 . S
C593 C594 1.373 . S
C593 C615 1.432 . S
C594 C593 1.373 . S
C594 C595 1.339 . S
C594 C597 1.530 . S
C595 C590 1.304 . S
C595 C594 1.339 . S
C595 H656 0.930 . S
C596 C592 1.567 . S
C596 H657 0.961 . S
C596 H658 0.960 . S
C596 H659 0.958 . S
C597 C594 1.530 . S
C597 H660 0.961 . S
C597 H661 0.960 . S
C597 H662 0.960 . S
C598 C599 1.530 . S
C598 H664 0.961 . S
C598 H665 0.961 . S
C598 H666 0.959 . S
C599 C598 1.530 . S
C599 O627 1.412 . S
C599 H663 0.980 . S
C600 C601 1.288 . S
C600 C605 1.377 . S
C600 O627 1.393 . S
C601 C600 1.288 . S
C601 C602 1.369 . S
C601 H667 0.932 . S
C602 C601 1.369 . S
C602 C603 1.398 . S
C602 C606 1.527 . S
C603 C602 1.398 . S
C603 C604 1.380 . S
C603 C617 1.497 . S
C604 C603 1.380 . S
C604 C605 1.383 . S
C604 C607 1.603 . S
C605 C600 1.377 . S
C605 C604 1.383 . S
C605 H668 0.929 . S
C606 C602 1.527 . S
C606 H669 0.961 . S
C606 H670 0.959 . S
C606 H671 0.959 . S
C607 C604 1.603 . S
C607 H672 0.960 . S
C607 H673 0.962 . S
C607 H674 0.961 . S
C608 C575 1.587 . S
C608 C609 1.360 . S
C608 C621 1.412 . S
C609 C608 1.360 . S
C609 C610 1.365 . S
C609 H675 0.929 . S
C610 C585 1.553 . S
C610 C609 1.365 . S
C610 C611 1.404 . S
C611 C610 1.404 . S
C611 C612 1.395 . S
C611 C622 1.451 . S
C612 C611 1.395 . S
C612 C613 1.322 . S
C612 H676 0.930 . S
C613 C612 1.322 . S
C613 C614 1.459 . S
C613 H677 0.929 . S
C614 C613 1.459 . S
C614 C615 1.445 . S
C614 C623 1.395 . S
C615 C593 1.432 . S
C615 C614 1.445 . S
C615 C616 1.370 . S
C616 C615 1.370 . S
C616 C617 1.438 . S
C616 H678 0.930 . S
C617 C603 1.497 . S
C617 C616 1.438 . S
C617 C618 1.360 . S
C618 C617 1.360 . S
C618 C619 1.401 . S
C618 C623 1.446 . S
C619 C618 1.401 . S
C619 C620 1.347 . S
C619 H679 0.929 . S
C620 C619 1.347 . S
C620 C621 1.455 . S
C620 H680 0.930 . S
C621 C608 1.412 . S
C621 C620 1.455 . S
C621 C622 1.331 . S
C622 C611 1.451 . S
C622 C621 1.331 . S
C622 C623 1.497 . S
C623 C614 1.395 . S
C623 C618 1.446 . S
C623 C622 1.497 . S
C624 C625 1.582 . S
C624 H681 0.962 . S
C624 H682 0.959 . S
C624 H683 0.958 . S
C625 C624 1.582 . S
C625 O628 1.458 . S
C625 H654 0.980 . S
O626 C571 1.426 . S
O626 C572 1.334 . S
O627 C599 1.412 . S
O627 C600 1.393 . S
O628 C590 1.435 . S
O628 C625 1.458 . S
O629 C581 1.468 . S
O629 C582 1.408 . S
H630 C571 0.980 . S
H631 C570 0.959 . S
H632 C570 0.959 . S
H633 C570 0.960 . S
H634 C573 0.929 . S
H635 C577 0.929 . S
H636 C578 0.959 . S
H637 C578 0.961 . S
H638 C578 0.961 . S
H639 C579 0.960 . S
H640 C579 0.960 . S
H641 C579 0.961 . S
H642 C581 0.980 . S
H643 C580 0.961 . S
H644 C580 0.960 . S
H645 C580 0.959 . S
H646 C583 0.930 . S
H647 C587 0.931 . S
H648 C588 0.959 . S
H649 C588 0.961 . S
H650 C588 0.959 . S
H651 C589 0.960 . S
H652 C589 0.960 . S
H653 C589 0.960 . S
H654 C625 0.980 . S
H655 C591 0.930 . S
H656 C595 0.930 . S
H657 C596 0.961 . S
H658 C596 0.960 . S
H659 C596 0.958 . S
H660 C597 0.961 . S
H661 C597 0.960 . S
H662 C597 0.960 . S
H663 C599 0.980 . S
H664 C598 0.961 . S
H665 C598 0.961 . S
H666 C598 0.959 . S
H667 C601 0.932 . S
H668 C605 0.929 . S
H669 C606 0.961 . S
H670 C606 0.959 . S
H671 C606 0.959 . S
H672 C607 0.960 . S
H673 C607 0.962 . S
H674 C607 0.961 . S
H675 C609 0.929 . S
H676 C612 0.930 . S
H677 C613 0.929 . S
H678 C616 0.930 . S
H679 C619 0.929 . S
H680 C620 0.930 . S
H681 C624 0.962 . S
H682 C624 0.959 . S
H683 C624 0.958 . S
Li684 N701 1.990 . S
Li684 O744 1.956 . S
Li684 O745 1.970 . S
Li684 O746 1.961 . S
Li685 N709 1.990 . S
Li685 O744 1.970 . S
Li685 O745 1.956 . S
Li685 O747 1.961 . S
Li686 N731 1.990 . S
Li686 O744 1.961 . S
Li686 O746 1.956 . S
Li686 O747 1.970 . S
Li687 N737 1.990 . S
Li687 O745 1.961 . S
Li687 O746 1.970 . S
Li687 O747 1.956 . S
C688 C690 1.348 . S
C688 C691 1.356 . S
C688 O744 1.325 . S
N689 C692 1.314 . S
N689 C693 1.279 . S
C690 C688 1.348 . S
C690 C692 1.353 . S
C690 H748 0.929 . S
C691 C688 1.356 . S
C691 C693 1.358 . S
C691 H749 0.930 . S
C692 N689 1.314 . S
C692 C690 1.353 . S
C692 H750 0.930 . S
C693 N689 1.279 . S
C693 C691 1.358 . S
C693 H751 0.930 . S
C694 C697 1.348 . S
C694 C698 1.356 . S
C694 O745 1.325 . S
C695 N696 1.279 . S
C695 C698 1.358 . S
C695 H752 0.930 . S
N696 C695 1.279 . S
N696 C699 1.314 . S
C697 C694 1.348 . S
C697 C699 1.353 . S
C697 H753 0.929 . S
C698 C694 1.356 . S
C698 C695 1.358 . S
C698 H754 0.930 . S
C699 N696 1.314 . S
C699 C697 1.353 . S
C699 H755 0.930 . S
C700 N701 1.314 . S
C700 C705 1.353 . S
C700 H706 0.930 . S
N701 Li684 1.990 . S
N701 C700 1.314 . S
N701 C703 1.279 . S
C702 C703 1.358 . S
C702 C704 1.356 . S
C702 H756 0.930 . S
C703 N701 1.279 . S
C703 C702 1.358 . S
C703 H707 0.930 . S
C704 C702 1.356 . S
C704 C705 1.348 . S
C705 C700 1.353 . S
C705 C704 1.348 . S
C705 H757 0.929 . S
H706 C700 0.930 . S
H707 C703 0.930 . S
C708 N709 1.314 . S
C708 C710 1.353 . S
C708 H714 0.930 . S
N709 Li685 1.990 . S
N709 C708 1.314 . S
N709 C712 1.279 . S
C710 C708 1.353 . S
C710 C713 1.348 . S
C710 H758 0.929 . S
C711 C712 1.358 . S
C711 C713 1.356 . S
C711 H759 0.930 . S
C712 N709 1.279 . S
C712 C711 1.358 . S
C712 H715 0.930 . S
C713 C710 1.348 . S
C713 C711 1.356 . S
H714 C708 0.930 . S
H715 C712 0.930 . S
C716 C718 1.348 . S
C716 C719 1.356 . S
C716 O746 1.325 . S
N717 C720 1.314 . S
N717 C721 1.279 . S
C718 C716 1.348 . S
C718 C720 1.353 . S
C718 H760 0.929 . S
C719 C716 1.356 . S
C719 C721 1.358 . S
C719 H761 0.930 . S
C720 N717 1.314 . S
C720 C718 1.353 . S
C720 H762 0.930 . S
C721 N717 1.279 . S
C721 C719 1.358 . S
C721 H763 0.930 . S
C722 C723 1.348 . S
C722 C724 1.356 . S
C722 O747 1.325 . S
C723 C722 1.348 . S
C723 C725 1.353 . S
C723 H764 0.929 . S
C724 C722 1.356 . S
C724 C726 1.358 . S
C724 H765 0.930 . S
C725 C723 1.353 . S
C725 N727 1.314 . S
C725 H766 0.930 . S
C726 C724 1.358 . S
C726 N727 1.279 . S
C726 H767 0.930 . S
N727 C725 1.314 . S
N727 C726 1.279 . S
C728 C730 1.353 . S
C728 N731 1.314 . S
C728 H734 0.930 . S
C729 N731 1.279 . S
C729 C732 1.358 . S
C729 H735 0.930 . S
C730 C728 1.353 . S
C730 C733 1.348 . S
C730 H768 0.929 . S
N731 Li686 1.990 . S
N731 C728 1.314 . S
N731 C729 1.279 . S
C732 C729 1.358 . S
C732 C733 1.356 . S
C732 H769 0.930 . S
C733 C730 1.348 . S
C733 C732 1.356 . S
H734 C728 0.930 . S
H735 C729 0.930 . S
C736 N737 1.314 . S
C736 C738 1.353 . S
C736 H742 0.930 . S
N737 Li687 1.990 . S
N737 C736 1.314 . S
N737 C740 1.279 . S
C738 C736 1.353 . S
C738 C741 1.348 . S
C738 H770 0.929 . S
C739 C740 1.358 . S
C739 C741 1.356 . S
C739 H771 0.930 . S
C740 N737 1.279 . S
C740 C739 1.358 . S
C740 H743 0.930 . S
C741 C738 1.348 . S
C741 C739 1.356 . S
H742 C736 0.930 . S
H743 C740 0.930 . S
O744 Li684 1.956 . S
O744 Li685 1.970 . S
O744 Li686 1.961 . S
O744 C688 1.325 . S
O745 Li684 1.970 . S
O745 Li685 1.956 . S
O745 Li687 1.961 . S
O745 C694 1.325 . S
O746 Li684 1.961 . S
O746 Li686 1.956 . S
O746 Li687 1.970 . S
O746 C716 1.325 . S
O747 Li685 1.961 . S
O747 Li686 1.970 . S
O747 Li687 1.956 . S
O747 C722 1.325 . S
H748 C690 0.929 . S
H749 C691 0.930 . S
H750 C692 0.930 . S
H751 C693 0.930 . S
H752 C695 0.930 . S
H753 C697 0.929 . S
H754 C698 0.930 . S
H755 C699 0.930 . S
H756 C702 0.930 . S
H757 C705 0.929 . S
H758 C710 0.929 . S
H759 C711 0.930 . S
H760 C718 0.929 . S
H761 C719 0.930 . S
H762 C720 0.930 . S
H763 C721 0.930 . S
H764 C723 0.929 . S
H765 C724 0.930 . S
H766 C725 0.930 . S
H767 C726 0.930 . S
H768 C730 0.929 . S
H769 C732 0.930 . S
H770 C738 0.929 . S
H771 C739 0.930 . S
Li772 N789 1.990 . S
Li772 O832 1.956 . S
Li772 O833 1.970 . S
Li772 O834 1.961 . S
Li773 N797 1.990 . S
Li773 O832 1.970 . S
Li773 O833 1.956 . S
Li773 O835 1.961 . S
Li774 N819 1.990 . S
Li774 O832 1.961 . S
Li774 O834 1.956 . S
Li774 O835 1.970 . S
Li775 N825 1.990 . S
Li775 O833 1.961 . S
Li775 O834 1.970 . S
Li775 O835 1.956 . S
C776 C778 1.348 . S
C776 C779 1.356 . S
C776 O832 1.325 . S
N777 C780 1.314 . S
N777 C781 1.279 . S
C778 C776 1.348 . S
C778 C780 1.353 . S
C778 H836 0.929 . S
C779 C776 1.356 . S
C779 C781 1.358 . S
C779 H837 0.930 . S
C780 N777 1.314 . S
C780 C778 1.353 . S
C780 H838 0.930 . S
C781 N777 1.279 . S
C781 C779 1.358 . S
C781 H839 0.930 . S
C782 C785 1.348 . S
C782 C786 1.356 . S
C782 O833 1.325 . S
C783 N784 1.279 . S
C783 C786 1.358 . S
C783 H840 0.930 . S
N784 C783 1.279 . S
N784 C787 1.314 . S
C785 C782 1.348 . S
C785 C787 1.353 . S
C785 H841 0.929 . S
C786 C782 1.356 . S
C786 C783 1.358 . S
C786 H842 0.930 . S
C787 N784 1.314 . S
C787 C785 1.353 . S
C787 H843 0.930 . S
C788 N789 1.314 . S
C788 C793 1.353 . S
C788 H794 0.930 . S
N789 Li772 1.990 . S
N789 C788 1.314 . S
N789 C791 1.279 . S
C790 C791 1.358 . S
C790 C792 1.356 . S
C790 H844 0.930 . S
C791 N789 1.279 . S
C791 C790 1.358 . S
C791 H795 0.930 . S
C792 C790 1.356 . S
C792 C793 1.348 . S
C793 C788 1.353 . S
C793 C792 1.348 . S
C793 H845 0.929 . S
H794 C788 0.930 . S
H795 C791 0.930 . S
C796 N797 1.314 . S
C796 C798 1.353 . S
C796 H802 0.930 . S
N797 Li773 1.990 . S
N797 C796 1.314 . S
N797 C800 1.279 . S
C798 C796 1.353 . S
C798 C801 1.348 . S
C798 H846 0.929 . S
C799 C800 1.358 . S
C799 C801 1.356 . S
C799 H847 0.930 . S
C800 N797 1.279 . S
C800 C799 1.358 . S
C800 H803 0.930 . S
C801 C798 1.348 . S
C801 C799 1.356 . S
H802 C796 0.930 . S
H803 C800 0.930 . S
C804 C806 1.348 . S
C804 C807 1.356 . S
C804 O834 1.325 . S
N805 C808 1.314 . S
N805 C809 1.279 . S
C806 C804 1.348 . S
C806 C808 1.353 . S
C806 H848 0.929 . S
C807 C804 1.356 . S
C807 C809 1.358 . S
C807 H849 0.930 . S
C808 N805 1.314 . S
C808 C806 1.353 . S
C808 H850 0.930 . S
C809 N805 1.279 . S
C809 C807 1.358 . S
C809 H851 0.930 . S
C810 C811 1.348 . S
C810 C812 1.356 . S
C810 O835 1.325 . S
C811 C810 1.348 . S
C811 C813 1.353 . S
C811 H852 0.929 . S
C812 C810 1.356 . S
C812 C814 1.358 . S
C812 H853 0.930 . S
C813 C811 1.353 . S
C813 N815 1.314 . S
C813 H854 0.930 . S
C814 C812 1.358 . S
C814 N815 1.279 . S
C814 H855 0.930 . S
N815 C813 1.314 . S
N815 C814 1.279 . S
C816 C818 1.353 . S
C816 N819 1.314 . S
C816 H822 0.930 . S
C817 N819 1.279 . S
C817 C820 1.358 . S
C817 H823 0.930 . S
C818 C816 1.353 . S
C818 C821 1.348 . S
C818 H856 0.929 . S
N819 Li774 1.990 . S
N819 C816 1.314 . S
N819 C817 1.279 . S
C820 C817 1.358 . S
C820 C821 1.356 . S
C820 H857 0.930 . S
C821 C818 1.348 . S
C821 C820 1.356 . S
H822 C816 0.930 . S
H823 C817 0.930 . S
C824 N825 1.314 . S
C824 C826 1.353 . S
C824 H830 0.930 . S
N825 Li775 1.990 . S
N825 C824 1.314 . S
N825 C828 1.279 . S
C826 C824 1.353 . S
C826 C829 1.348 . S
C826 H858 0.929 . S
C827 C828 1.358 . S
C827 C829 1.356 . S
C827 H859 0.930 . S
C828 N825 1.279 . S
C828 C827 1.358 . S
C828 H831 0.930 . S
C829 C826 1.348 . S
C829 C827 1.356 . S
H830 C824 0.930 . S
H831 C828 0.930 . S
O832 Li772 1.956 . S
O832 Li773 1.970 . S
O832 Li774 1.961 . S
O832 C776 1.325 . S
O833 Li772 1.970 . S
O833 Li773 1.956 . S
O833 Li775 1.961 . S
O833 C782 1.325 . S
O834 Li772 1.961 . S
O834 Li774 1.956 . S
O834 Li775 1.970 . S
O834 C804 1.325 . S
O835 Li773 1.961 . S
O835 Li774 1.970 . S
O835 Li775 1.956 . S
O835 C810 1.325 . S
H836 C778 0.929 . S
H837 C779 0.930 . S
H838 C780 0.930 . S
H839 C781 0.930 . S
H840 C783 0.930 . S
H841 C785 0.929 . S
H842 C786 0.930 . S
H843 C787 0.930 . S
H844 C790 0.930 . S
H845 C793 0.929 . S
H846 C798 0.929 . S
H847 C799 0.930 . S
H848 C806 0.929 . S
H849 C807 0.930 . S
H850 C808 0.930 . S
H851 C809 0.930 . S
H852 C811 0.929 . S
H853 C812 0.930 . S
H854 C813 0.930 . S
H855 C814 0.930 . S
H856 C818 0.929 . S
H857 C820 0.930 . S
H858 C826 0.929 . S
H859 C827 0.930 . S
Li860 N877 1.990 . S
Li860 O920 1.956 . S
Li860 O921 1.970 . S
Li860 O922 1.961 . S
Li861 N885 1.990 . S
Li861 O920 1.970 . S
Li861 O921 1.956 . S
Li861 O923 1.961 . S
Li862 N907 1.990 . S
Li862 O920 1.961 . S
Li862 O922 1.956 . S
Li862 O923 1.970 . S
Li863 N913 1.990 . S
Li863 O921 1.961 . S
Li863 O922 1.970 . S
Li863 O923 1.956 . S
C864 C866 1.348 . S
C864 C867 1.356 . S
C864 O920 1.325 . S
N865 C868 1.314 . S
N865 C869 1.279 . S
C866 C864 1.348 . S
C866 C868 1.353 . S
C866 H924 0.929 . S
C867 C864 1.356 . S
C867 C869 1.358 . S
C867 H925 0.930 . S
C868 N865 1.314 . S
C868 C866 1.353 . S
C868 H926 0.930 . S
C869 N865 1.279 . S
C869 C867 1.358 . S
C869 H927 0.930 . S
C870 C873 1.348 . S
C870 C874 1.356 . S
C870 O921 1.325 . S
C871 N872 1.279 . S
C871 C874 1.358 . S
C871 H928 0.930 . S
N872 C871 1.279 . S
N872 C875 1.314 . S
C873 C870 1.348 . S
C873 C875 1.353 . S
C873 H929 0.929 . S
C874 C870 1.356 . S
C874 C871 1.358 . S
C874 H930 0.930 . S
C875 N872 1.314 . S
C875 C873 1.353 . S
C875 H931 0.930 . S
C876 N877 1.314 . S
C876 C881 1.353 . S
C876 H882 0.930 . S
N877 Li860 1.990 . S
N877 C876 1.314 . S
N877 C879 1.279 . S
C878 C879 1.358 . S
C878 C880 1.356 . S
C878 H932 0.930 . S
C879 N877 1.279 . S
C879 C878 1.358 . S
C879 H883 0.930 . S
C880 C878 1.356 . S
C880 C881 1.348 . S
C881 C876 1.353 . S
C881 C880 1.348 . S
C881 H933 0.929 . S
H882 C876 0.930 . S
H883 C879 0.930 . S
C884 N885 1.314 . S
C884 C886 1.353 . S
C884 H890 0.930 . S
N885 Li861 1.990 . S
N885 C884 1.314 . S
N885 C888 1.279 . S
C886 C884 1.353 . S
C886 C889 1.348 . S
C886 H934 0.929 . S
C887 C888 1.358 . S
C887 C889 1.356 . S
C887 H935 0.930 . S
C888 N885 1.279 . S
C888 C887 1.358 . S
C888 H891 0.930 . S
C889 C886 1.348 . S
C889 C887 1.356 . S
H890 C884 0.930 . S
H891 C888 0.930 . S
C892 C894 1.348 . S
C892 C895 1.356 . S
C892 O922 1.325 . S
N893 C896 1.314 . S
N893 C897 1.279 . S
C894 C892 1.348 . S
C894 C896 1.353 . S
C894 H936 0.929 . S
C895 C892 1.356 . S
C895 C897 1.358 . S
C895 H937 0.930 . S
C896 N893 1.314 . S
C896 C894 1.353 . S
C896 H938 0.930 . S
C897 N893 1.279 . S
C897 C895 1.358 . S
C897 H939 0.930 . S
C898 C899 1.348 . S
C898 C900 1.356 . S
C898 O923 1.325 . S
C899 C898 1.348 . S
C899 C901 1.353 . S
C899 H940 0.929 . S
C900 C898 1.356 . S
C900 C902 1.358 . S
C900 H941 0.930 . S
C901 C899 1.353 . S
C901 N903 1.314 . S
C901 H942 0.930 . S
C902 C900 1.358 . S
C902 N903 1.279 . S
C902 H943 0.930 . S
N903 C901 1.314 . S
N903 C902 1.279 . S
C904 C906 1.353 . S
C904 N907 1.314 . S
C904 H910 0.930 . S
C905 N907 1.279 . S
C905 C908 1.358 . S
C905 H911 0.930 . S
C906 C904 1.353 . S
C906 C909 1.348 . S
C906 H944 0.929 . S
N907 Li862 1.990 . S
N907 C904 1.314 . S
N907 C905 1.279 . S
C908 C905 1.358 . S
C908 C909 1.356 . S
C908 H945 0.930 . S
C909 C906 1.348 . S
C909 C908 1.356 . S
H910 C904 0.930 . S
H911 C905 0.930 . S
C912 N913 1.314 . S
C912 C914 1.353 . S
C912 H918 0.930 . S
N913 Li863 1.990 . S
N913 C912 1.314 . S
N913 C916 1.279 . S
C914 C912 1.353 . S
C914 C917 1.348 . S
C914 H946 0.929 . S
C915 C916 1.358 . S
C915 C917 1.356 . S
C915 H947 0.930 . S
C916 N913 1.279 . S
C916 C915 1.358 . S
C916 H919 0.930 . S
C917 C914 1.348 . S
C917 C915 1.356 . S
H918 C912 0.930 . S
H919 C916 0.930 . S
O920 Li860 1.956 . S
O920 Li861 1.970 . S
O920 Li862 1.961 . S
O920 C864 1.325 . S
O921 Li860 1.970 . S
O921 Li861 1.956 . S
O921 Li863 1.961 . S
O921 C870 1.325 . S
O922 Li860 1.961 . S
O922 Li862 1.956 . S
O922 Li863 1.970 . S
O922 C892 1.325 . S
O923 Li861 1.961 . S
O923 Li862 1.970 . S
O923 Li863 1.956 . S
O923 C898 1.325 . S
H924 C866 0.929 . S
H925 C867 0.930 . S
H926 C868 0.930 . S
H927 C869 0.930 . S
H928 C871 0.930 . S
H929 C873 0.929 . S
H930 C874 0.930 . S
H931 C875 0.930 . S
H932 C878 0.930 . S
H933 C881 0.929 . S
H934 C886 0.929 . S
H935 C887 0.930 . S
H936 C894 0.929 . S
H937 C895 0.930 . S
H938 C896 0.930 . S
H939 C897 0.930 . S
H940 C899 0.929 . S
H941 C900 0.930 . S
H942 C901 0.930 . S
H943 C902 0.930 . S
H944 C906 0.929 . S
H945 C908 0.930 . S
H946 C914 0.929 . S
H947 C915 0.930 . S
Li948 N965 1.990 . S
Li948 O1008 1.956 . S
Li948 O1009 1.970 . S
Li948 O1010 1.961 . S
Li949 N973 1.990 . S
Li949 O1008 1.970 . S
Li949 O1009 1.956 . S
Li949 O1011 1.961 . S
Li950 N995 1.990 . S
Li950 O1008 1.961 . S
Li950 O1010 1.956 . S
Li950 O1011 1.970 . S
Li951 N1001 1.990 . S
Li951 O1009 1.961 . S
Li951 O1010 1.970 . S
Li951 O1011 1.956 . S
C952 C954 1.348 . S
C952 C955 1.356 . S
C952 O1008 1.325 . S
N953 C956 1.314 . S
N953 C957 1.279 . S
C954 C952 1.348 . S
C954 C956 1.353 . S
C954 H1012 0.929 . S
C955 C952 1.356 . S
C955 C957 1.358 . S
C955 H1013 0.930 . S
C956 N953 1.314 . S
C956 C954 1.353 . S
C956 H1014 0.930 . S
C957 N953 1.279 . S
C957 C955 1.358 . S
C957 H1015 0.930 . S
C958 C961 1.348 . S
C958 C962 1.356 . S
C958 O1009 1.325 . S
C959 N960 1.279 . S
C959 C962 1.358 . S
C959 H1016 0.930 . S
N960 C959 1.279 . S
N960 C963 1.314 . S
C961 C958 1.348 . S
C961 C963 1.353 . S
C961 H1017 0.929 . S
C962 C958 1.356 . S
C962 C959 1.358 . S
C962 H1018 0.930 . S
C963 N960 1.314 . S
C963 C961 1.353 . S
C963 H1019 0.930 . S
C964 N965 1.314 . S
C964 C969 1.353 . S
C964 H970 0.930 . S
N965 Li948 1.990 . S
N965 C964 1.314 . S
N965 C967 1.279 . S
C966 C967 1.358 1_554 S
C966 C968 1.356 . S
C966 H1020 0.930 . S
C967 N965 1.279 . S
C967 C966 1.358 1_556 S
C967 H971 0.930 . S
C968 C966 1.356 . S
C968 C969 1.348 1_554 S
C969 C964 1.353 . S
C969 C968 1.348 1_556 S
C969 H1021 0.929 . S
H970 C964 0.930 . S
H971 C967 0.930 . S
C972 N973 1.314 . S
C972 C974 1.353 . S
C972 H978 0.930 . S
N973 Li949 1.990 . S
N973 C972 1.314 . S
N973 C976 1.279 . S
C974 C972 1.353 . S
C974 C977 1.348 . S
C974 H1022 0.929 . S
C975 C976 1.358 . S
C975 C977 1.356 . S
C975 H1023 0.930 . S
C976 N973 1.279 . S
C976 C975 1.358 . S
C976 H979 0.930 . S
C977 C974 1.348 . S
C977 C975 1.356 . S
H978 C972 0.930 . S
H979 C976 0.930 . S
C980 C982 1.348 . S
C980 C983 1.356 . S
C980 O1010 1.325 . S
N981 C984 1.314 . S
N981 C985 1.279 . S
C982 C980 1.348 . S
C982 C984 1.353 . S
C982 H1024 0.929 . S
C983 C980 1.356 . S
C983 C985 1.358 . S
C983 H1025 0.930 . S
C984 N981 1.314 . S
C984 C982 1.353 . S
C984 H1026 0.930 . S
C985 N981 1.279 . S
C985 C983 1.358 . S
C985 H1027 0.930 . S
C986 C987 1.348 . S
C986 C988 1.356 . S
C986 O1011 1.325 . S
C987 C986 1.348 . S
C987 C989 1.353 . S
C987 H1028 0.929 . S
C988 C986 1.356 . S
C988 C990 1.358 . S
C988 H1029 0.930 . S
C989 C987 1.353 . S
C989 N991 1.314 . S
C989 H1030 0.930 . S
C990 C988 1.358 . S
C990 N991 1.279 . S
C990 H1031 0.930 . S
N991 C989 1.314 . S
N991 C990 1.279 . S
C992 C994 1.353 . S
C992 N995 1.314 . S
C992 H998 0.930 . S
C993 N995 1.279 . S
C993 C996 1.358 . S
C993 H999 0.930 . S
C994 C992 1.353 . S
C994 C997 1.348 . S
C994 H1032 0.929 . S
N995 Li950 1.990 . S
N995 C992 1.314 . S
N995 C993 1.279 . S
C996 C993 1.358 . S
C996 C997 1.356 . S
C996 H1033 0.930 . S
C997 C994 1.348 . S
C997 C996 1.356 . S
H998 C992 0.930 . S
H999 C993 0.930 . S
C1000 N1001 1.314 . S
C1000 C1002 1.353 . S
C1000 H1006 0.930 . S
N1001 Li951 1.990 . S
N1001 C1000 1.314 . S
N1001 C1004 1.279 . S
C1002 C1000 1.353 . S
C1002 C1005 1.348 . S
C1002 H1034 0.929 . S
C1003 C1004 1.358 . S
C1003 C1005 1.356 . S
C1003 H1035 0.930 . S
C1004 N1001 1.279 . S
C1004 C1003 1.358 . S
C1004 H1007 0.930 . S
C1005 C1002 1.348 . S
C1005 C1003 1.356 . S
H1006 C1000 0.930 . S
H1007 C1004 0.930 . S
O1008 Li948 1.956 . S
O1008 Li949 1.970 . S
O1008 Li950 1.961 . S
O1008 C952 1.325 . S
O1009 Li948 1.970 . S
O1009 Li949 1.956 . S
O1009 Li951 1.961 . S
O1009 C958 1.325 . S
O1010 Li948 1.961 . S
O1010 Li950 1.956 . S
O1010 Li951 1.970 . S
O1010 C980 1.325 . S
O1011 Li949 1.961 . S
O1011 Li950 1.970 . S
O1011 Li951 1.956 . S
O1011 C986 1.325 . S
H1012 C954 0.929 . S
H1013 C955 0.930 . S
H1014 C956 0.930 . S
H1015 C957 0.930 . S
H1016 C959 0.930 . S
H1017 C961 0.929 . S
H1018 C962 0.930 . S
H1019 C963 0.930 . S
H1020 C966 0.930 . S
H1021 C969 0.929 . S
H1022 C974 0.929 . S
H1023 C975 0.930 . S
H1024 C982 0.929 . S
H1025 C983 0.930 . S
H1026 C984 0.930 . S
H1027 C985 0.930 . S
H1028 C987 0.929 . S
H1029 C988 0.930 . S
H1030 C989 0.930 . S
H1031 C990 0.930 . S
H1032 C994 0.929 . S
H1033 C996 0.930 . S
H1034 C1002 0.929 . S
H1035 C1003 0.930 . S
Li1036 N1053 1.990 . S
Li1036 O1096 1.956 . S
Li1036 O1097 1.970 . S
Li1036 O1098 1.961 . S
Li1037 N1061 1.990 . S
Li1037 O1096 1.970 . S
Li1037 O1097 1.956 . S
Li1037 O1099 1.961 . S
Li1038 N1083 1.990 . S
Li1038 O1096 1.961 . S
Li1038 O1098 1.956 . S
Li1038 O1099 1.970 . S
Li1039 N1089 1.990 . S
Li1039 O1097 1.961 . S
Li1039 O1098 1.970 . S
Li1039 O1099 1.956 . S
C1040 C1042 1.348 . S
C1040 C1043 1.356 . S
C1040 O1096 1.325 . S
N1041 C1044 1.314 . S
N1041 C1045 1.279 . S
C1042 C1040 1.348 . S
C1042 C1044 1.353 . S
C1042 H1100 0.929 . S
C1043 C1040 1.356 . S
C1043 C1045 1.358 . S
C1043 H1101 0.930 . S
C1044 N1041 1.314 . S
C1044 C1042 1.353 . S
C1044 H1102 0.930 . S
C1045 N1041 1.279 . S
C1045 C1043 1.358 . S
C1045 H1103 0.930 . S
C1046 C1049 1.348 . S
C1046 C1050 1.356 . S
C1046 O1097 1.325 . S
C1047 N1048 1.279 . S
C1047 C1050 1.358 . S
C1047 H1104 0.930 . S
N1048 C1047 1.279 . S
N1048 C1051 1.314 . S
C1049 C1046 1.348 . S
C1049 C1051 1.353 . S
C1049 H1105 0.929 . S
C1050 C1046 1.356 . S
C1050 C1047 1.358 . S
C1050 H1106 0.930 . S
C1051 N1048 1.314 . S
C1051 C1049 1.353 . S
C1051 H1107 0.930 . S
C1052 N1053 1.314 . S
C1052 C1057 1.353 . S
C1052 H1058 0.930 . S
N1053 Li1036 1.990 . S
N1053 C1052 1.314 . S
N1053 C1055 1.279 . S
C1054 C1055 1.358 . S
C1054 C1056 1.356 . S
C1054 H1108 0.930 . S
C1055 N1053 1.279 . S
C1055 C1054 1.358 . S
C1055 H1059 0.930 . S
C1056 C1054 1.356 . S
C1056 C1057 1.348 . S
C1057 C1052 1.353 . S
C1057 C1056 1.348 . S
C1057 H1109 0.929 . S
H1058 C1052 0.930 . S
H1059 C1055 0.930 . S
C1060 N1061 1.314 . S
C1060 C1062 1.353 . S
C1060 H1066 0.930 . S
N1061 Li1037 1.990 . S
N1061 C1060 1.314 . S
N1061 C1064 1.279 . S
C1062 C1060 1.353 . S
C1062 C1065 1.348 . S
C1062 H1110 0.929 . S
C1063 C1064 1.358 . S
C1063 C1065 1.356 . S
C1063 H1111 0.930 . S
C1064 N1061 1.279 . S
C1064 C1063 1.358 . S
C1064 H1067 0.930 . S
C1065 C1062 1.348 . S
C1065 C1063 1.356 . S
H1066 C1060 0.930 . S
H1067 C1064 0.930 . S
C1068 C1070 1.348 . S
C1068 C1071 1.356 . S
C1068 O1098 1.325 . S
N1069 C1072 1.314 . S
N1069 C1073 1.300 . S
C1070 C1068 1.348 . S
C1070 C1072 1.353 1_554 S
C1070 H1112 0.929 . S
C1071 C1068 1.356 . S
C1071 C1073 1.326 1_554 S
C1071 H1113 0.930 . S
C1072 N1069 1.314 . S
C1072 C1070 1.353 1_556 S
C1072 H1114 0.930 . S
C1073 N1069 1.300 . S
C1073 C1071 1.326 1_556 S
C1073 H1115 0.944 . S
C1074 C1075 1.348 . S
C1074 C1076 1.356 . S
C1074 O1099 1.325 . S
C1075 C1074 1.348 . S
C1075 C1077 1.353 . S
C1075 H1116 0.929 . S
C1076 C1074 1.356 . S
C1076 C1078 1.358 . S
C1076 H1117 0.930 . S
C1077 C1075 1.353 . S
C1077 N1079 1.314 . S
C1077 H1118 0.930 . S
C1078 C1076 1.358 . S
C1078 N1079 1.279 . S
C1078 H1119 0.930 . S
N1079 C1077 1.314 . S
N1079 C1078 1.279 . S
C1080 C1082 1.353 . S
C1080 N1083 1.314 . S
C1080 H1086 0.930 . S
C1081 N1083 1.279 1_556 S
C1081 C1084 1.358 . S
C1081 H1087 0.930 . S
C1082 C1080 1.353 . S
C1082 C1085 1.348 1_554 S
C1082 H1120 0.929 . S
N1083 Li1038 1.990 . S
N1083 C1080 1.314 . S
N1083 C1081 1.279 1_554 S
C1084 C1081 1.358 . S
C1084 C1085 1.356 . S
C1084 H1121 0.930 . S
C1085 C1082 1.348 1_556 S
C1085 C1084 1.356 . S
H1086 C1080 0.930 . S
H1087 C1081 0.930 . S
C1088 N1089 1.314 . S
C1088 C1090 1.353 . S
C1088 H1094 0.930 . S
N1089 Li1039 1.990 . S
N1089 C1088 1.314 . S
N1089 C1092 1.279 . S
C1090 C1088 1.353 . S
C1090 C1093 1.348 . S
C1090 H1122 0.929 . S
C1091 C1092 1.358 . S
C1091 C1093 1.356 . S
C1091 H1123 0.930 . S
C1092 N1089 1.279 . S
C1092 C1091 1.358 . S
C1092 H1095 0.930 . S
C1093 C1090 1.348 . S
C1093 C1091 1.356 . S
H1094 C1088 0.930 . S
H1095 C1092 0.930 . S
O1096 Li1036 1.956 . S
O1096 Li1037 1.970 . S
O1096 Li1038 1.961 . S
O1096 C1040 1.325 . S
O1097 Li1036 1.970 . S
O1097 Li1037 1.956 . S
O1097 Li1039 1.961 . S
O1097 C1046 1.325 . S
O1098 Li1036 1.961 . S
O1098 Li1038 1.956 . S
O1098 Li1039 1.970 . S
O1098 C1068 1.325 . S
O1099 Li1037 1.961 . S
O1099 Li1038 1.970 . S
O1099 Li1039 1.956 . S
O1099 C1074 1.325 . S
H1100 C1042 0.929 . S
H1101 C1043 0.930 . S
H1102 C1044 0.930 . S
H1103 C1045 0.930 . S
H1104 C1047 0.930 . S
H1105 C1049 0.929 . S
H1106 C1050 0.930 . S
H1107 C1051 0.930 . S
H1108 C1054 0.930 . S
H1109 C1057 0.929 . S
H1110 C1062 0.929 . S
H1111 C1063 0.930 . S
H1112 C1070 0.929 . S
H1113 C1071 0.930 . S
H1114 C1072 0.930 . S
H1115 C1073 0.944 . S
H1116 C1075 0.929 . S
H1117 C1076 0.930 . S
H1118 C1077 0.930 . S
H1119 C1078 0.930 . S
H1120 C1082 0.929 . S
H1121 C1084 0.930 . S
H1122 C1090 0.929 . S
H1123 C1091 0.930 . S
Li1124 N1141 1.990 . S
Li1124 O1184 1.956 . S
Li1124 O1185 1.970 . S
Li1124 O1186 1.961 . S
Li1125 N1149 1.990 . S
Li1125 O1184 1.970 . S
Li1125 O1185 1.956 . S
Li1125 O1187 1.961 . S
Li1126 N1171 1.990 . S
Li1126 O1184 1.961 . S
Li1126 O1186 1.956 . S
Li1126 O1187 1.970 . S
Li1127 N1177 1.990 . S
Li1127 O1185 1.961 . S
Li1127 O1186 1.970 . S
Li1127 O1187 1.956 . S
C1128 C1130 1.348 . S
C1128 C1131 1.356 . S
C1128 O1184 1.325 . S
N1129 C1132 1.314 . S
N1129 C1133 1.279 . S
C1130 C1128 1.348 . S
C1130 C1132 1.353 . S
C1130 H1188 0.929 . S
C1131 C1128 1.356 . S
C1131 C1133 1.358 . S
C1131 H1189 0.930 . S
C1132 N1129 1.314 . S
C1132 C1130 1.353 . S
C1132 H1190 0.930 . S
C1133 N1129 1.279 . S
C1133 C1131 1.358 . S
C1133 H1191 0.930 . S
C1134 C1137 1.348 . S
C1134 C1138 1.356 . S
C1134 O1185 1.325 . S
C1135 N1136 1.279 . S
C1135 C1138 1.358 . S
C1135 H1192 0.930 . S
N1136 C1135 1.279 . S
N1136 C1139 1.314 . S
C1137 C1134 1.348 . S
C1137 C1139 1.353 . S
C1137 H1193 0.929 . S
C1138 C1134 1.356 . S
C1138 C1135 1.358 . S
C1138 H1194 0.930 . S
C1139 N1136 1.314 . S
C1139 C1137 1.353 . S
C1139 H1195 0.930 . S
C1140 N1141 1.314 . S
C1140 C1145 1.353 . S
C1140 H1146 0.930 . S
N1141 Li1124 1.990 . S
N1141 C1140 1.314 . S
N1141 C1143 1.279 . S
C1142 C1143 1.358 . S
C1142 C1144 1.356 . S
C1142 H1196 0.930 . S
C1143 N1141 1.279 . S
C1143 C1142 1.358 . S
C1143 H1147 0.930 . S
C1144 C1142 1.356 . S
C1144 C1145 1.348 . S
C1145 C1140 1.353 . S
C1145 C1144 1.348 . S
C1145 H1197 0.929 . S
H1146 C1140 0.930 . S
H1147 C1143 0.930 . S
C1148 N1149 1.314 . S
C1148 C1150 1.353 . S
C1148 H1154 0.930 . S
N1149 Li1125 1.990 . S
N1149 C1148 1.314 . S
N1149 C1152 1.279 . S
C1150 C1148 1.353 . S
C1150 C1153 1.348 . S
C1150 H1198 0.929 . S
C1151 C1152 1.358 . S
C1151 C1153 1.356 . S
C1151 H1199 0.930 . S
C1152 N1149 1.279 . S
C1152 C1151 1.358 . S
C1152 H1155 0.930 . S
C1153 C1150 1.348 . S
C1153 C1151 1.356 . S
H1154 C1148 0.930 . S
H1155 C1152 0.930 . S
C1156 C1158 1.348 . S
C1156 C1159 1.356 . S
C1156 O1186 1.325 . S
N1157 C1160 1.314 . S
N1157 C1161 1.279 . S
C1158 C1156 1.348 . S
C1158 C1160 1.353 . S
C1158 H1200 0.929 . S
C1159 C1156 1.356 . S
C1159 C1161 1.358 . S
C1159 H1201 0.930 . S
C1160 N1157 1.314 . S
C1160 C1158 1.353 . S
C1160 H1202 0.930 . S
C1161 N1157 1.279 . S
C1161 C1159 1.358 . S
C1161 H1203 0.930 . S
C1162 C1163 1.348 . S
C1162 C1164 1.356 . S
C1162 O1187 1.325 . S
C1163 C1162 1.348 . S
C1163 C1165 1.353 . S
C1163 H1204 0.929 . S
C1164 C1162 1.356 . S
C1164 C1166 1.358 . S
C1164 H1205 0.930 . S
C1165 C1163 1.353 . S
C1165 N1167 1.314 . S
C1165 H1206 0.930 . S
C1166 C1164 1.358 . S
C1166 N1167 1.279 . S
C1166 H1207 0.930 . S
N1167 C1165 1.314 . S
N1167 C1166 1.279 . S
C1168 C1170 1.353 . S
C1168 N1171 1.314 . S
C1168 H1174 0.930 . S
C1169 N1171 1.279 . S
C1169 C1172 1.358 . S
C1169 H1175 0.930 . S
C1170 C1168 1.353 . S
C1170 C1173 1.348 . S
C1170 H1208 0.929 . S
N1171 Li1126 1.990 . S
N1171 C1168 1.314 . S
N1171 C1169 1.279 . S
C1172 C1169 1.358 . S
C1172 C1173 1.356 . S
C1172 H1209 0.930 . S
C1173 C1170 1.348 . S
C1173 C1172 1.356 . S
H1174 C1168 0.930 . S
H1175 C1169 0.930 . S
C1176 N1177 1.314 . S
C1176 C1178 1.353 . S
C1176 H1182 0.930 . S
N1177 Li1127 1.990 . S
N1177 C1176 1.314 . S
N1177 C1180 1.279 . S
C1178 C1176 1.353 . S
C1178 C1181 1.348 . S
C1178 H1210 0.929 . S
C1179 C1180 1.358 . S
C1179 C1181 1.356 . S
C1179 H1211 0.930 . S
C1180 N1177 1.279 . S
C1180 C1179 1.358 . S
C1180 H1183 0.930 . S
C1181 C1178 1.348 . S
C1181 C1179 1.356 . S
H1182 C1176 0.930 . S
H1183 C1180 0.930 . S
O1184 Li1124 1.956 . S
O1184 Li1125 1.970 . S
O1184 Li1126 1.961 . S
O1184 C1128 1.325 . S
O1185 Li1124 1.970 . S
O1185 Li1125 1.956 . S
O1185 Li1127 1.961 . S
O1185 C1134 1.325 . S
O1186 Li1124 1.961 . S
O1186 Li1126 1.956 . S
O1186 Li1127 1.970 . S
O1186 C1156 1.325 . S
O1187 Li1125 1.961 . S
O1187 Li1126 1.970 . S
O1187 Li1127 1.956 . S
O1187 C1162 1.325 . S
H1188 C1130 0.929 . S
H1189 C1131 0.930 . S
H1190 C1132 0.930 . S
H1191 C1133 0.930 . S
H1192 C1135 0.930 . S
H1193 C1137 0.929 . S
H1194 C1138 0.930 . S
H1195 C1139 0.930 . S
H1196 C1142 0.930 . S
H1197 C1145 0.929 . S
H1198 C1150 0.929 . S
H1199 C1151 0.930 . S
H1200 C1158 0.929 . S
H1201 C1159 0.930 . S
H1202 C1160 0.930 . S
H1203 C1161 0.930 . S
H1204 C1163 0.929 . S
H1205 C1164 0.930 . S
H1206 C1165 0.930 . S
H1207 C1166 0.930 . S
H1208 C1170 0.929 . S
H1209 C1172 0.930 . S
H1210 C1178 0.929 . S
H1211 C1179 0.930 . S
C1153 C1 2.975 . S
C169 C713 4.021 . S
C283 C801 4.026 . S
C397 C880 3.878 . S
C977 C457 2.875 . S
C571 C1056 2.819 . S
C115 C821 2.975 . S
C229 C917 2.819 . S
C343 C997 2.875 . S
C1093 C511 3.878 . S
C1173 C625 4.027 . S
C733 C55 4.021 . S
C29 C829 1.373 . S
C125 C909 0.835 . S
C1005 C239 0.687 . S
C353 C1085 0.791 . S
C1181 C485 1.121 . S
C741 C599 1.315 . S
C1144 C143 1.373 . S
C257 C704 1.316 . S
C792 C371 1.122 . S
C467 C889 0.791 . S
C581 C968 0.686 . S
C11 C1065 0.836 . S
