# Generated by pormake.
# Topology tsx, (6,3)-cn, num edge types: 1
# Building blocks:
#     Node 0, Type 0, BuildingBlock: MIDCAF_clean_sbu_0, # of connection points: 6
#     Node 1, Type 0, BuildingBlock: MIDCAF_clean_sbu_0, # of connection points: 6
#     Node 2, Type 1, BuildingBlock: VETTIZ_charged_linker_0, # of connection points: 3
#     Node 3, Type 1, BuildingBlock: VETTIZ_charged_linker_0, # of connection points: 3
#     Node 4, Type 1, BuildingBlock: VETTIZ_charged_linker_0, # of connection points: 3
#     Node 5, Type 1, BuildingBlock: VETTIZ_charged_linker_0, # of connection points: 3
#     Edge 6, Type (0, 1), BuildingBlock: KIFKEQ_clean_linker_1, # of connection points: 2
#     Edge 7, Type (0, 1), BuildingBlock: KIFKEQ_clean_linker_1, # of connection points: 2
#     Edge 8, Type (0, 1), BuildingBlock: KIFKEQ_clean_linker_1, # of connection points: 2
#     Edge 9, Type (0, 1), BuildingBlock: KIFKEQ_clean_linker_1, # of connection points: 2
#     Edge 10, Type (0, 1), BuildingBlock: KIFKEQ_clean_linker_1, # of connection points: 2
#     Edge 11, Type (0, 1), BuildingBlock: KIFKEQ_clean_linker_1, # of connection points: 2
#     Edge 12, Type (0, 1), BuildingBlock: KIFKEQ_clean_linker_1, # of connection points: 2
#     Edge 13, Type (0, 1), BuildingBlock: KIFKEQ_clean_linker_1, # of connection points: 2
#     Edge 14, Type (0, 1), BuildingBlock: KIFKEQ_clean_linker_1, # of connection points: 2
#     Edge 15, Type (0, 1), BuildingBlock: KIFKEQ_clean_linker_1, # of connection points: 2
#     Edge 16, Type (0, 1), BuildingBlock: KIFKEQ_clean_linker_1, # of connection points: 2
#     Edge 17, Type (0, 1), BuildingBlock: KIFKEQ_clean_linker_1, # of connection points: 2
# Relax obj value: 0.121
# Max RMSD: 0.183
# Mean RMSD: 0.115
data_MOF--net-tsx--node1-MIDCAF_clean_sbu_0--node2-VETTIZ_charged_linker_0--edge1-KIFKEQ_clean_linker_1
_symmetry_space_group_name_H-M    P1
_symmetry_Int_Tables_number       1
_symmetry_cell_setting            triclinic
loop_
_symmetry_equiv_pos_as_xyz
'x, y, z'
_cell_length_a     23.852767
_cell_length_b     24.63055
_cell_length_c     47.357419
_cell_angle_alpha  90.449871
_cell_angle_beta   94.725077
_cell_angle_gamma 90.125502
loop_
_atom_site_label
_atom_site_type_symbol
_atom_site_fract_x
_atom_site_fract_y
_atom_site_fract_z
_atom_type_partial_charge
Zn0 Zn 0.95477 0.03515 0.97864 0.0
Zn1 Zn 0.12752 0.03405 0.05309 0.0
Zn2 Zn 0.04261 0.03474 0.01532 0.0
C3 C 0.10604 0.14256 0.04231 0.0
C4 C 0.16295 0.97658 0.00746 0.0
O5 O 0.97293 0.98671 0.03212 0.0
O6 O 0.90146 0.99334 0.99952 0.0
C7 C 0.97933 0.14326 0.99055 0.0
O8 O 0.06785 0.1209 0.02486 0.0
O9 O 0.13803 0.11295 0.0581 0.0
O10 O 0.18116 0.99366 0.03168 0.0
O11 O 0.11243 0.98834 0.9975 0.0
O12 O 0.94534 0.11435 0.97511 0.0
O13 O 0.0184 0.12097 0.00696 0.0
O14 O 0.0684 0.99542 0.97595 0.0
O15 O 0.98935 0.99656 0.94799 0.0
C16 C 0.04072 0.98447 0.95202 0.0
O17 O 0.01566 0.99563 0.05432 0.0
O18 O 0.09317 0.99518 0.08335 0.0
C19 C 0.92195 0.97456 0.02283 0.0
C20 C 0.0416 0.98422 0.07854 0.0
Zn21 Zn 0.62303 0.53667 0.55144 0.0
Zn22 Zn 0.45289 0.53362 0.47587 0.0
Zn23 Zn 0.53923 0.53552 0.51334 0.0
C24 C 0.54015 0.48187 0.45091 0.0
C25 C 0.47706 0.64254 0.48623 0.0
O26 O 0.51136 0.49648 0.55211 0.0
O27 O 0.58896 0.49593 0.58112 0.0
C28 C 0.66118 0.47869 0.50697 0.0
O29 O 0.56693 0.49485 0.47479 0.0
O30 O 0.48857 0.49273 0.44633 0.0
O31 O 0.44422 0.61259 0.47073 0.0
O32 O 0.51511 0.62136 0.50368 0.0
O33 O 0.679 0.4979 0.5308 0.0
O34 O 0.61036 0.48875 0.49681 0.0
O35 O 0.56339 0.62224 0.52248 0.0
O36 O 0.63146 0.61561 0.55691 0.0
C37 C 0.60016 0.64463 0.54046 0.0
O38 O 0.46855 0.48834 0.52998 0.0
O39 O 0.39799 0.49397 0.49681 0.0
C40 C 0.53755 0.48451 0.57616 0.0
C41 C 0.41765 0.47623 0.5205 0.0
C42 C 0.19728 0.97293 0.4472 0.0
C43 C 0.23524 0.93829 0.43467 0.0
C44 C 0.22357 0.92191 0.40623 0.0
C45 C 0.13686 0.97303 0.40319 0.0
C46 C 0.14866 0.99035 0.43092 0.0
C47 C 0.10481 0.02954 0.43996 0.0
H48 H 0.85842 0.16215 0.40705 0.0
C49 C 0.08279 0.99693 0.39221 0.0
C50 C 0.06363 0.03031 0.41359 0.0
H51 H 0.97263 0.18381 0.48185 0.0
H52 H 0.03366 0.11351 0.46526 0.0
H53 H 0.95027 0.16429 0.36597 0.0
H54 H 0.86766 0.0293 0.402 0.0
H55 H 0.87417 0.01293 0.36623 0.0
H56 H 0.83373 0.07162 0.37509 0.0
H57 H 0.88045 0.14342 0.35348 0.0
H58 H 0.94175 0.11499 0.33912 0.0
C59 C 0.13334 0.08554 0.44593 0.0
C60 C 0.07779 0.00551 0.4657 0.0
C61 C 1.00334 0.95419 0.29143 0.0
C62 C 0.95459 0.97135 0.27517 0.0
C63 C 0.9146 1.00263 0.28834 0.0
C64 C 0.92399 0.01839 0.31683 0.0
C65 C 0.97417 1.00315 0.33239 0.0
C66 C 0.01224 0.97057 0.31985 0.0
C67 C 0.06326 0.95849 0.33965 0.0
C68 C 0.05013 0.99036 0.3659 0.0
C69 C 0.99808 0.01654 0.36143 0.0
C70 C 0.11586 0.98117 0.32646 0.0
C71 C 0.06453 0.89648 0.34495 0.0
C72 C 0.8961 0.15099 0.42005 0.0
C73 C 0.91072 0.1778 0.44581 0.0
C74 C 0.96077 0.16342 0.46188 0.0
C75 C 0.9961 0.12289 0.45217 0.0
C76 C 0.9817 0.09749 0.42584 0.0
C77 C 0.93234 0.11183 0.41032 0.0
C78 C 0.92555 0.08422 0.38191 0.0
C79 C 0.97891 0.05087 0.38277 0.0
C80 C 0.01154 0.05814 0.40865 0.0
C81 C 0.92398 0.12864 0.35876 0.0
C82 C 0.87236 0.04779 0.38096 0.0
H83 H 0.16825 0.92441 0.36908 0.0
H84 H 0.20557 0.98647 0.46896 0.0
H85 H 0.06684 0.96202 0.46178 0.0
H86 H 0.03827 0.02594 0.47006 0.0
H87 H 0.10728 0.00799 0.48509 0.0
H88 H 0.1697 0.09124 0.43294 0.0
H89 H 0.14928 0.0898 0.46855 0.0
H90 H 0.105 0.11982 0.44008 0.0
H91 H 0.03527 0.93066 0.28191 0.0
H92 H 0.8764 0.01578 0.27641 0.0
H93 H 0.89235 0.04298 0.32542 0.0
H94 H 0.10538 0.0185 0.31405 0.0
H95 H 0.13306 0.95105 0.3119 0.0
H96 H 0.14959 0.99401 0.34252 0.0
H97 H 0.02119 0.88012 0.34588 0.0
H98 H 0.08674 0.88554 0.36548 0.0
H99 H 0.08402 0.87454 0.32768 0.0
H100 H 0.25192 0.89481 0.39628 0.0
C101 C 0.17468 0.93881 0.39052 0.0
C102 C 0.13928 0.15247 0.5842 0.0
C103 C 0.19051 0.17308 0.59689 0.0
C104 C 0.21267 0.15207 0.62297 0.0
C105 C 0.13175 0.09311 0.62444 0.0
C106 C 0.11099 0.11183 0.59819 0.0
C107 C 0.05714 0.08318 0.58765 0.0
H108 H 0.84516 0.91211 0.61613 0.0
C109 C 0.09153 0.05325 0.63416 0.0
C110 C 0.04781 0.04654 0.61264 0.0
H111 H 0.86714 0.99167 0.53687 0.0
H112 H 0.95463 0.03216 0.55719 0.0
H113 H 0.96864 0.87167 0.62558 0.0
H114 H 0.88811 0.01251 0.65806 0.0
H115 H 0.93017 0.98362 0.68622 0.0
H116 H 0.87326 0.9446 0.6688 0.0
H117 H 0.92301 0.86717 0.65376 0.0
H118 H 0.99731 0.8809 0.66062 0.0
C119 C 0.06813 0.05009 0.56071 0.0
C120 C 0.01023 0.12612 0.58286 0.0
C121 C 0.11947 0.98454 0.73523 0.0
C122 C 0.08712 0.951 0.7515 0.0
C123 C 0.03831 0.92606 0.73833 0.0
C124 C 0.02107 0.93583 0.7098 0.0
C125 C 0.05275 0.97108 0.69413 0.0
C126 C 0.10155 0.99399 0.70677 0.0
C127 C 0.12986 0.03047 0.68696 0.0
C128 C 0.08957 0.02626 0.66044 0.0
C129 C 0.04434 0.99178 0.66481 0.0
C130 C 0.18846 0.00631 0.68229 0.0
C131 C 0.13145 0.08856 0.69988 0.0
C132 C 0.86837 0.93898 0.60328 0.0
C133 C 0.84887 0.94972 0.5751 0.0
C134 C 0.88122 0.98332 0.55873 0.0
C135 C 0.93192 0.00659 0.57055 0.0
C136 C 0.9508 0.99539 0.59888 0.0
C137 C 0.9193 0.96149 0.61455 0.0
C138 C 0.94686 0.95116 0.64367 0.0
C139 C 1.00022 0.98446 0.64307 0.0
C140 C 1.00211 0.0111 0.61697 0.0
C141 C 0.95943 0.88957 0.64634 0.0
C142 C 0.90774 0.97368 0.66552 0.0
H143 H 0.20238 0.09874 0.65682 0.0
H144 H 0.12203 0.16738 0.56386 0.0
H145 H 0.01083 0.15445 0.6013 0.0
H146 H 0.96769 0.10821 0.58056 0.0
H147 H 0.01617 0.15051 0.56369 0.0
H148 H 0.11245 0.03579 0.56154 0.0
H149 H 0.06029 0.07495 0.54131 0.0
H150 H 0.04251 0.01264 0.55841 0.0
H151 H 0.1575 1.00384 0.74456 0.0
H152 H 0.01215 0.90055 0.75038 0.0
H153 H 0.983 0.91644 0.70124 0.0
H154 H 0.18947 0.96168 0.68575 0.0
H155 H 0.22189 0.02475 0.69708 0.0
H156 H 0.19981 0.01124 0.66025 0.0
H157 H 0.09114 0.09803 0.7091 0.0
H158 H 0.13647 0.12068 0.68421 0.0
H159 H 0.16581 0.09264 0.71709 0.0
H160 H 0.25208 0.16744 0.633 0.0
C161 C 0.1836 0.11235 0.63681 0.0
C162 C 0.69569 0.47026 0.9538 0.0
C163 C 0.73395 0.43392 0.94275 0.0
C164 C 0.72308 0.41393 0.91492 0.0
C165 C 0.63729 0.46618 0.90919 0.0
C166 C 0.64787 0.48635 0.93647 0.0
C167 C 0.60394 0.52713 0.94369 0.0
H168 H 0.36402 0.66436 0.90234 0.0
C169 C 0.58485 0.49073 0.89652 0.0
C170 C 0.56492 0.52673 0.91651 0.0
H171 H 0.46907 0.68425 0.9804 0.0
H172 H 0.53098 0.61276 0.96607 0.0
H173 H 0.46046 0.6642 0.86474 0.0
H174 H 0.37162 0.52959 0.8975 0.0
H175 H 0.37923 0.51666 0.86137 0.0
H176 H 0.34085 0.5757 0.87147 0.0
H177 H 0.39381 0.64184 0.84843 0.0
H178 H 0.45923 0.61357 0.83852 0.0
C179 C 0.63327 0.58287 0.94914 0.0
C180 C 0.57426 0.50556 0.96919 0.0
C181 C 0.51631 0.44369 0.79491 0.0
C182 C 0.47295 0.46444 0.77607 0.0
C183 C 0.43341 0.50003 0.7868 0.0
C184 C 0.43871 0.51667 0.8153 0.0
C185 C 0.48444 0.4982 0.83331 0.0
C186 C 0.52177 0.46168 0.82309 0.0
C187 C 0.56945 0.44846 0.84469 0.0
C188 C 0.55499 0.48365 0.86952 0.0
C189 C 0.50508 0.5124 0.86278 0.0
C190 C 0.62536 0.46639 0.83282 0.0
C191 C 0.56584 0.38718 0.85147 0.0
C192 C 0.39991 0.65259 0.91648 0.0
C193 C 0.41168 0.67918 0.94255 0.0
C194 C 0.45946 0.664 0.96019 0.0
C195 C 0.49526 0.6227 0.9518 0.0
C196 C 0.48369 0.59725 0.92525 0.0
C197 C 0.43663 0.61249 0.90812 0.0
C198 C 0.43279 0.58427 0.87983 0.0
C199 C 0.4848 0.54894 0.88284 0.0
C200 C 0.51447 0.55627 0.90954 0.0
C201 C 0.43633 0.62787 0.85652 0.0
C202 C 0.37817 0.54987 0.87711 0.0
H203 H 0.66926 0.41247 0.87728 0.0
H204 H 0.70331 0.48629 0.97514 0.0
H205 H 0.56415 0.46166 0.96627 0.0
H206 H 0.5338 0.52585 0.97179 0.0
H207 H 0.60165 0.51029 0.98921 0.0
H208 H 0.66937 0.58758 0.93589 0.0
H209 H 0.64975 0.58745 0.97167 0.0
H210 H 0.6054 0.61742 0.94325 0.0
H211 H 0.54698 0.41554 0.78768 0.0
H212 H 0.39981 0.51715 0.7729 0.0
H213 H 0.408 0.54473 0.82196 0.0
H214 H 0.61855 0.50075 0.81781 0.0
H215 H 0.64438 0.43262 0.82125 0.0
H216 H 0.65663 0.48212 0.84943 0.0
H217 H 0.52127 0.37419 0.85218 0.0
H218 H 0.58637 0.37679 0.87247 0.0
H219 H 0.58449 0.36218 0.83502 0.0
H220 H 0.75172 0.3854 0.9062 0.0
C221 C 0.67499 0.42951 0.8982 0.0
C222 C 0.64688 0.64747 0.08541 0.0
C223 C 0.69841 0.66753 0.09802 0.0
C224 C 0.72102 0.64561 0.1238 0.0
C225 C 0.6398 0.58704 0.12525 0.0
C226 C 0.61866 0.60656 0.09923 0.0
C227 C 0.56444 0.57852 0.08875 0.0
H228 H 0.35153 0.40877 0.11726 0.0
C229 C 0.59947 0.54726 0.13491 0.0
C230 C 0.55534 0.54133 0.11355 0.0
H231 H 0.3729 0.48957 0.03827 0.0
H232 H 0.46115 0.52882 0.0584 0.0
H233 H 0.47433 0.36688 0.12592 0.0
H234 H 0.39633 0.50807 0.15953 0.0
H235 H 0.4384 0.47817 0.18737 0.0
H236 H 0.38078 0.44012 0.16995 0.0
H237 H 0.42947 0.36243 0.15443 0.0
H238 H 0.50402 0.37529 0.16083 0.0
C239 C 0.57462 0.54603 0.0615 0.0
C240 C 0.51782 0.62189 0.08451 0.0
C241 C 0.62766 0.47742 0.23574 0.0
C242 C 0.59507 0.44407 0.252 0.0
C243 C 0.54617 0.41935 0.23881 0.0
C244 C 0.52896 0.42929 0.2103 0.0
C245 C 0.56076 0.46453 0.19468 0.0
C246 C 0.60976 0.48706 0.2073 0.0
C247 C 0.63819 0.52354 0.18754 0.0
C248 C 0.59765 0.51987 0.16109 0.0
C249 C 0.55222 0.48564 0.16546 0.0
C250 C 0.69655 0.49905 0.18267 0.0
C251 C 0.64034 0.5815 0.20063 0.0
C252 C 0.37475 0.43567 0.10444 0.0
C253 C 0.35487 0.44713 0.0764 0.0
C254 C 0.38727 0.4807 0.06004 0.0
C255 C 0.4384 0.50324 0.07174 0.0
C256 C 0.45765 0.49134 0.09994 0.0
C257 C 0.42609 0.45746 0.11559 0.0
C258 C 0.45402 0.44633 0.14454 0.0
C259 C 0.5077 0.47909 0.14387 0.0
C260 C 0.50941 0.5062 0.11789 0.0
C261 C 0.4659 0.38456 0.14684 0.0
C262 C 0.41556 0.46888 0.16669 0.0
H263 H 0.71111 0.59133 0.15729 0.0
H264 H 0.62928 0.66309 0.06529 0.0
H265 H 0.51895 0.64969 0.10317 0.0
H266 H 0.47513 0.6043 0.08225 0.0
H267 H 0.52361 0.64677 0.06549 0.0
H268 H 0.61886 0.53162 0.06194 0.0
H269 H 0.56635 0.57134 0.0423 0.0
H270 H 0.54885 0.50868 0.05914 0.0
H271 H 0.66576 0.49654 0.24511 0.0
H272 H 0.51984 0.39397 0.25085 0.0
H273 H 0.49078 0.41014 0.20173 0.0
H274 H 0.69739 0.45442 0.18617 0.0
H275 H 0.73028 0.51739 0.19731 0.0
H276 H 0.70756 0.50383 0.16056 0.0
H277 H 0.60004 0.59128 0.2098 0.0
H278 H 0.64592 0.61371 0.18509 0.0
H279 H 0.67461 0.58505 0.21792 0.0
H280 H 0.76067 0.66055 0.13376 0.0
C281 C 0.69202 0.60561 0.13748 0.0
H282 H 0.11346 0.21251 0.99802 0.0
H283 H 0.12614 0.20408 0.08922 0.0
H284 H 0.16003 0.30178 0.00105 0.0
H285 H 0.17196 0.29205 0.09244 0.0
H286 H 0.33862 0.38542 0.02822 0.0
H287 H 0.2596 0.32415 0.01556 0.0
H288 H 0.17298 0.38849 0.08507 0.0
H289 H 0.25276 0.44839 0.09809 0.0
C290 C 0.12415 0.23076 0.01865 0.0
C291 C 0.11664 0.20155 0.04341 0.0
C292 C 0.15131 0.2815 0.02042 0.0
C293 C 0.17034 0.30393 0.04698 0.0
C294 C 0.15757 0.27659 0.07162 0.0
C295 C 0.13137 0.22594 0.06983 0.0
C296 C 0.30186 0.38759 0.04018 0.0
C297 C 0.30207 0.42089 0.06439 0.0
C298 C 0.25641 0.35264 0.03289 0.0
C299 C 0.21028 0.35069 0.04962 0.0
C300 C 0.20831 0.38814 0.0721 0.0
C301 C 0.25388 0.42254 0.07953 0.0
H302 H 0.2763 0.96823 0.01559 0.0
H303 H 0.13237 0.89915 0.96682 0.0
H304 H 0.33561 0.89801 0.99848 0.0
H305 H 0.19288 0.83115 0.94732 0.0
H306 H 0.29941 0.67636 0.94889 0.0
H307 H 0.23919 0.75161 0.96097 0.0
H308 H 0.38236 0.86035 0.96294 0.0
H309 H 0.44256 0.784 0.9528 0.0
C310 C 0.25756 0.93891 0.00044 0.0
C311 C 0.19954 0.93971 0.99236 0.0
C312 C 0.29187 0.89866 0.99035 0.0
C313 C 0.26941 0.85835 0.97146 0.0
C314 C 0.21172 0.86081 0.96222 0.0
C315 C 0.17706 0.90068 0.97282 0.0
C316 C 0.31771 0.71644 0.95219 0.0
C317 C 0.37553 0.72452 0.95042 0.0
C318 C 0.28318 0.75982 0.95872 0.0
C319 C 0.30557 0.81252 0.96299 0.0
C320 C 0.36354 0.82039 0.96051 0.0
C321 C 0.39819 0.77675 0.95464 0.0
H322 H 0.80844 0.96104 0.0166 0.0
H323 H 0.95888 0.89563 0.06042 0.0
H324 H 0.75364 0.88722 0.0339 0.0
H325 H 0.90336 0.82437 0.08004 0.0
H326 H 0.80551 0.66731 0.08254 0.0
H327 H 0.85863 0.74371 0.06595 0.0
H328 H 0.71309 0.84686 0.07117 0.0
H329 H 0.65951 0.76914 0.08612 0.0
C330 C 0.82962 0.93171 0.03066 0.0
C331 C 0.88804 0.9348 0.03748 0.0
C332 C 0.798 0.88941 0.04079 0.0
C333 C 0.82381 0.84929 0.05835 0.0
C334 C 0.88198 0.85376 0.06613 0.0
C335 C 0.9138 0.89555 0.05549 0.0
C336 C 0.78492 0.70629 0.07968 0.0
C337 C 0.72848 0.71248 0.0853 0.0
C338 C 0.81549 0.75036 0.07059 0.0
C339 C 0.79063 0.80202 0.06751 0.0
C340 C 0.73366 0.80776 0.07287 0.0
C341 C 0.7028 0.76331 0.08143 0.0
H342 H 0.96062 0.21042 0.03492 0.0
H343 H 0.97376 0.20719 0.94472 0.0
H344 H 0.91396 0.29924 0.03073 0.0
H345 H 0.92825 0.29504 0.94034 0.0
H346 H 0.84276 0.44646 0.93136 0.0
H347 H 0.92228 0.39146 0.94999 0.0
H348 H 0.81727 0.31797 0.00933 0.0
H349 H 0.73839 0.37441 0.99111 0.0
C350 C 0.95584 0.22994 0.01445 0.0
C351 C 0.97055 0.20233 0.9901 0.0
C352 C 0.92867 0.2804 0.01197 0.0
C353 C 0.91681 0.3041 0.98517 0.0
C354 C 0.93707 0.27855 0.96136 0.0
C355 C 0.96318 0.22806 0.9638 0.0
C356 C 0.83755 0.42012 0.94918 0.0
C357 C 0.78457 0.41416 0.95969 0.0
C358 C 0.8829 0.38842 0.95975 0.0
C359 C 0.87587 0.34945 0.98074 0.0
C360 C 0.82434 0.34772 0.99328 0.0
C361 C 0.77902 0.37995 0.98284 0.0
H362 H 0.61742 0.70735 0.58711 0.0
H363 H 0.60995 0.71355 0.49592 0.0
H364 H 0.66372 0.79504 0.59042 0.0
H365 H 0.65685 0.80264 0.49903 0.0
H366 H 0.83407 0.88683 0.52727 0.0
H367 H 0.75538 0.82533 0.51434 0.0
H368 H 0.66664 0.89085 0.58284 0.0
H369 H 0.74617 0.95085 0.59619 0.0
C370 C 0.62383 0.7287 0.56771 0.0
C371 C 0.61045 0.7037 0.54131 0.0
C372 C 0.65034 0.77921 0.56954 0.0
C373 C 0.66475 0.80584 0.54498 0.0
C374 C 0.64694 0.78289 0.51836 0.0
C375 C 0.61954 0.73227 0.51654 0.0
C376 C 0.79696 0.88913 0.53896 0.0
C377 C 0.79647 0.92287 0.56298 0.0
C378 C 0.75168 0.85406 0.53151 0.0
C379 C 0.70497 0.85242 0.54786 0.0
C380 C 0.70242 0.89018 0.57017 0.0
C381 C 0.74784 0.92467 0.57778 0.0
H382 H 0.63168 0.39802 0.46801 0.0
H383 H 0.77467 0.47139 0.51562 0.0
H384 H 0.69278 0.32856 0.45035 0.0
H385 H 0.83462 0.39981 0.50036 0.0
H386 H 0.94201 0.28266 0.45585 0.0
H387 H 0.88195 0.35928 0.46573 0.0
H388 H 0.73929 0.25035 0.46594 0.0
H389 H 0.7993 0.17474 0.45422 0.0
C390 C 0.6763 0.40014 0.47414 0.0
C391 C 0.69832 0.44085 0.4928 0.0
C392 C 0.7113 0.35944 0.46462 0.0
C393 C 0.7689 0.3578 0.47412 0.0
C394 C 0.79095 0.39972 0.4921 0.0
C395 C 0.75628 0.44079 0.5011 0.0
C396 C 0.89785 0.27536 0.45825 0.0
C397 C 0.87523 0.22298 0.4546 0.0
C398 C 0.86325 0.31919 0.46393 0.0
C399 C 0.80537 0.31142 0.46669 0.0
C400 C 0.78317 0.25848 0.46336 0.0
C401 C 0.81761 0.21491 0.45706 0.0
H402 H 0.30397 0.46389 0.51396 0.0
H403 H 0.45304 0.39804 0.55877 0.0
H404 H 0.24809 0.39107 0.53153 0.0
H405 H 0.39653 0.32808 0.57875 0.0
H406 H 0.2978 0.17187 0.58174 0.0
H407 H 0.35158 0.24752 0.56487 0.0
H408 H 0.20638 0.35159 0.56876 0.0
H409 H 0.15213 0.27454 0.58403 0.0
C410 C 0.3246 0.43477 0.52834 0.0
C411 C 0.38298 0.43748 0.53539 0.0
C412 C 0.29237 0.39305 0.53862 0.0
C413 C 0.31752 0.35313 0.55654 0.0
C414 C 0.37562 0.35732 0.56458 0.0
C415 C 0.40803 0.39852 0.5538 0.0
C416 C 0.27742 0.21087 0.57853 0.0
C417 C 0.22089 0.21751 0.5839 0.0
C418 C 0.30837 0.25453 0.56928 0.0
C419 C 0.28383 0.30626 0.56577 0.0
C420 C 0.22674 0.31243 0.57082 0.0
C421 C 0.1955 0.26836 0.57956 0.0
H422 H 0.45952 0.71381 0.52918 0.0
H423 H 0.47033 0.70243 0.43894 0.0
H424 H 0.41382 0.80285 0.52316 0.0
H425 H 0.42565 0.79034 0.43275 0.0
H426 H 0.24002 0.88085 0.48382 0.0
H427 H 0.3174 0.82278 0.50219 0.0
H428 H 0.42178 0.88727 0.43998 0.0
H429 H 0.34373 0.94394 0.42121 0.0
C430 C 0.45434 0.7315 0.50826 0.0
C431 C 0.46817 0.70156 0.48447 0.0
C432 C 0.4277 0.78209 0.50475 0.0
C433 C 0.41548 0.80359 0.47744 0.0
C434 C 0.43473 0.7756 0.45411 0.0
C435 C 0.46035 0.72504 0.45759 0.0
C436 C 0.2802 0.88394 0.47481 0.0
C437 C 0.28577 0.91611 0.45086 0.0
C438 C 0.32469 0.8508 0.48536 0.0
C439 C 0.37554 0.84959 0.4722 0.0
C440 C 0.38283 0.8864 0.45023 0.0
C441 C 0.33828 0.91899 0.43954 0.0
H442 H 0.93429 0.00694 0.09161 0.0
H443 H 0.0829 0.91628 0.11961 0.0
H444 H 0.8961 0.99107 0.13732 0.0
H445 H 0.04607 0.90159 0.16514 0.0
H446 H 0.97568 0.8773 0.24651 0.0
H447 H 0.97986 0.86583 0.19543 0.0
H448 H 0.9251 0.03167 0.18287 0.0
H449 H 0.92022 0.04268 0.23358 0.0
C450 C 0.9579 0.98218 0.10719 0.0
C451 C 0.01173 0.96327 0.10227 0.0
C452 C 0.93636 0.97352 0.13345 0.0
C453 C 0.96839 0.94581 0.15512 0.0
C454 C 0.01992 0.92275 0.14902 0.0
C455 C 0.04134 0.93151 0.12294 0.0
C456 C 0.96366 0.91093 0.23272 0.0
C457 C 0.94828 0.96107 0.24411 0.0
C458 C 0.96594 0.90437 0.20347 0.0
C459 C 0.95336 0.94798 0.18501 0.0
C460 C 0.93431 0.99692 0.19631 0.0
C461 C 0.93174 1.00335 0.2255 0.0
H462 H 0.9978 0.90841 0.91514 0.0
H463 H 0.14304 0.01116 0.93361 0.0
H464 H 0.0268 0.88996 0.86812 0.0
H465 H 0.17298 0.99238 0.88612 0.0
H466 H 0.12217 0.03068 0.78938 0.0
H467 H 0.12971 0.02586 0.84077 0.0
H468 H 0.09088 0.85449 0.83562 0.0
H469 H 0.08304 0.85943 0.78394 0.0
C470 C 0.03715 0.92549 0.90938 0.0
C471 C 0.06792 0.96158 0.92778 0.0
C472 C 0.05403 0.91472 0.88244 0.0
C473 C 0.10185 0.94029 0.87315 0.0
C474 C 0.1355 0.97265 0.89254 0.0
C475 C 0.11874 0.98305 0.91977 0.0
C476 C 0.11689 0.99158 0.79914 0.0
C477 C 0.10114 0.9456 0.78254 0.0
C478 C 0.12147 0.98876 0.8287 0.0
C479 C 0.11042 0.93987 0.84237 0.0
C480 C 0.09879 0.89296 0.82574 0.0
C481 C 0.09407 0.89583 0.79615 0.0
H482 H 0.57101 0.39875 0.60815 0.0
H483 H 0.44104 0.51997 0.5974 0.0
H484 H 0.54352 0.37932 0.65547 0.0
H485 H 0.41455 0.5021 0.64544 0.0
H486 H 0.56384 0.4554 0.74506 0.0
H487 H 0.56561 0.44431 0.69452 0.0
H488 H 0.38403 0.44157 0.68484 0.0
H489 H 0.38194 0.45112 0.73635 0.0
C490 C 0.53525 0.41992 0.61566 0.0
C491 C 0.50855 0.46128 0.59949 0.0
C492 C 0.51974 0.4091 0.64277 0.0
C493 C 0.47807 0.44036 0.65446 0.0
C494 C 0.44694 0.47747 0.63703 0.0
C495 C 0.46203 0.48774 0.60956 0.0
C496 C 0.52407 0.45066 0.73251 0.0
C497 C 0.47274 0.45357 0.74504 0.0
C498 C 0.52512 0.44439 0.70334 0.0
C499 C 0.47493 0.44131 0.68566 0.0
C500 C 0.42337 0.44373 0.69798 0.0
C501 C 0.42227 0.44946 0.72744 0.0
H502 H 0.64358 0.50815 0.43373 0.0
H503 H 0.49936 0.40455 0.41416 0.0
H504 H 0.67629 0.48789 0.387 0.0
H505 H 0.53106 0.38473 0.36784 0.0
H506 H 0.59049 0.35288 0.28468 0.0
H507 H 0.59668 0.34877 0.33638 0.0
H508 H 0.6354 0.5202 0.34107 0.0
H509 H 0.62959 0.52416 0.28969 0.0
C510 C 0.62006 0.47957 0.41983 0.0
C511 C 0.56872 0.45831 0.42728 0.0
C512 C 0.63843 0.46831 0.39303 0.0
C513 C 0.60586 0.43534 0.37348 0.0
C514 C 0.5575 0.40996 0.38229 0.0
C515 C 0.53905 0.42155 0.40883 0.0
C516 C 0.60123 0.38944 0.29681 0.0
C517 C 0.60868 0.439 0.28307 0.0
C518 C 0.60499 0.38706 0.32641 0.0
C519 C 0.61596 0.43426 0.34289 0.0
C520 C 0.6276 0.48289 0.32912 0.0
C521 C 0.62402 0.48522 0.29956 0.0
loop_
_geom_bond_atom_site_label_1
_geom_bond_atom_site_label_2
_geom_bond_distance
_geom_bond_site_symmetry_2
_ccdc_geom_bond_type
Zn0 O6 1.915 1_546 S
Zn0 O12 1.898 . S
Zn0 O15 1.905 1_545 S
Zn1 O9 1.905 . S
Zn1 O10 1.898 1_545 S
Zn1 O18 1.920 1_545 S
Zn2 O5 2.080 1_445 S
Zn2 O8 2.114 . S
Zn2 O11 2.120 1_545 S
Zn2 O13 2.120 1_455 S
Zn2 O14 2.114 1_554 S
Zn2 O17 2.080 . S
C3 O8 1.166 . S
C3 O9 1.182 . S
C4 O10 1.167 . S
C4 O11 1.299 . S
O5 Zn2 2.080 1_665 S
O5 C19 1.305 . S
O6 Zn0 1.915 1_564 S
O6 C19 1.238 . S
C7 O12 1.186 . S
C7 O13 1.283 1_556 S
O8 Zn2 2.114 . S
O8 C3 1.166 . S
O9 Zn1 1.905 . S
O9 C3 1.182 . S
O10 Zn1 1.898 1_565 S
O10 C4 1.167 . S
O11 Zn2 2.120 1_565 S
O11 C4 1.299 . S
O12 Zn0 1.898 . S
O12 C7 1.186 . S
O13 Zn2 2.120 1_655 S
O13 C7 1.283 1_554 S
O14 Zn2 2.114 1_556 S
O14 C16 1.166 1_545 S
O15 Zn0 1.905 1_565 S
O15 C16 1.182 1_655 S
C16 O14 1.166 1_565 S
C16 O15 1.182 1_455 S
O17 Zn2 2.080 . S
O17 C20 1.305 1_545 S
O18 Zn1 1.920 1_565 S
O18 C20 1.234 . S
C19 O5 1.305 . S
C19 O6 1.238 . S
C20 O17 1.305 1_565 S
C20 O18 1.234 . S
Zn21 O27 1.920 . S
Zn21 O33 1.898 . S
Zn21 O36 1.905 . S
Zn22 O30 1.905 . S
Zn22 O31 1.898 . S
Zn22 O39 1.920 . S
Zn23 O26 2.080 . S
Zn23 O29 2.114 . S
Zn23 O32 2.120 . S
Zn23 O34 2.120 . S
Zn23 O35 2.114 . S
Zn23 O38 2.080 . S
C24 O29 1.166 . S
C24 O30 1.182 . S
C25 O31 1.167 . S
C25 O32 1.299 . S
O26 Zn23 2.080 . S
O26 C40 1.305 . S
O27 Zn21 1.920 . S
O27 C40 1.234 . S
C28 O33 1.167 . S
C28 O34 1.299 . S
O29 Zn23 2.114 . S
O29 C24 1.166 . S
O30 Zn22 1.905 . S
O30 C24 1.182 . S
O31 Zn22 1.898 . S
O31 C25 1.167 . S
O32 Zn23 2.120 . S
O32 C25 1.299 . S
O33 Zn21 1.898 . S
O33 C28 1.167 . S
O34 Zn23 2.120 . S
O34 C28 1.299 . S
O35 Zn23 2.114 . S
O35 C37 1.166 . S
O36 Zn21 1.905 . S
O36 C37 1.182 . S
C37 O35 1.166 . S
C37 O36 1.182 . S
O38 Zn23 2.080 . S
O38 C41 1.305 . S
O39 Zn22 1.920 . S
O39 C41 1.234 . S
C40 O26 1.305 . S
C40 O27 1.234 . S
C41 O38 1.305 . S
C41 O39 1.234 . S
C42 C43 1.391 . S
C42 C46 1.391 . S
C42 H84 0.948 . S
C43 C42 1.391 . S
C43 C44 1.391 . S
C44 C43 1.391 . S
C44 H100 0.947 . S
C44 C101 1.392 . S
C45 C46 1.391 . S
C45 C49 1.397 . S
C45 C101 1.419 . S
C46 C42 1.391 . S
C46 C45 1.391 . S
C46 C47 1.399 . S
C47 C46 1.399 . S
C47 C50 1.396 1_565 S
C47 C59 1.453 1_565 S
C47 C60 1.684 . S
H48 C72 0.948 . S
C49 C45 1.397 . S
C49 C50 1.394 1_565 S
C49 C68 1.723 1_565 S
C50 C47 1.396 1_545 S
C50 C49 1.394 1_545 S
C50 C80 1.723 . S
H51 C74 0.947 . S
H52 C75 0.948 . S
H53 C81 0.982 1_455 S
H54 C82 0.979 . S
H55 C82 0.980 . S
H56 C82 0.983 . S
H57 C81 0.979 . S
H58 C81 0.977 1_455 S
C59 C47 1.453 1_545 S
C59 H88 0.982 . S
C59 H89 0.979 . S
C59 H90 0.977 . S
C60 C47 1.684 . S
C60 H85 0.979 . S
C60 H86 0.980 1_565 S
C60 H87 0.983 . S
C61 C62 1.391 . S
C61 C66 1.391 . S
C61 H91 0.948 1_545 S
C62 C61 1.391 . S
C62 C63 1.391 . S
C63 C62 1.391 . S
C63 C64 1.392 . S
C63 H92 0.947 . S
C64 C63 1.392 . S
C64 C65 1.419 . S
C64 H93 0.948 1_455 S
C65 C64 1.419 . S
C65 C66 1.391 . S
C65 C69 1.397 . S
C66 C61 1.391 . S
C66 C65 1.391 . S
C66 C67 1.399 1_545 S
C67 C66 1.399 1_565 S
C67 C68 1.396 1_565 S
C67 C70 1.453 . S
C67 C71 1.684 . S
C68 C49 1.723 1_545 S
C68 C67 1.396 1_545 S
C68 C69 1.394 . S
C69 C65 1.397 . S
C69 C68 1.394 . S
C69 C79 1.723 . S
C70 C67 1.453 . S
C70 H94 0.982 1_565 S
C70 H95 0.979 . S
C70 H96 0.977 . S
C71 C67 1.684 . S
C71 H97 0.979 . S
C71 H98 0.980 . S
C71 H99 0.983 . S
C72 H48 0.948 . S
C72 C73 1.391 . S
C72 C77 1.391 . S
C73 C72 1.391 . S
C73 C74 1.391 . S
C74 H51 0.947 . S
C74 C73 1.391 . S
C74 C75 1.392 1_655 S
C75 H52 0.948 . S
C75 C74 1.392 1_455 S
C75 C76 1.419 . S
C76 C75 1.419 . S
C76 C77 1.391 1_455 S
C76 C80 1.397 . S
C77 C72 1.391 . S
C77 C76 1.391 1_655 S
C77 C78 1.399 . S
C78 C77 1.399 . S
C78 C79 1.396 1_655 S
C78 C81 1.453 . S
C78 C82 1.684 . S
C79 C69 1.723 . S
C79 C78 1.396 1_455 S
C79 C80 1.394 . S
C80 C50 1.723 . S
C80 C76 1.397 . S
C80 C79 1.394 . S
C81 H53 0.982 1_655 S
C81 H57 0.979 . S
C81 H58 0.977 1_655 S
C81 C78 1.453 . S
C82 H54 0.979 . S
C82 H55 0.980 . S
C82 H56 0.983 . S
C82 C78 1.684 . S
H83 C101 0.948 . S
H84 C42 0.948 . S
H85 C60 0.979 . S
H86 C60 0.980 1_545 S
H87 C60 0.983 . S
H88 C59 0.982 . S
H89 C59 0.979 . S
H90 C59 0.977 . S
H91 C61 0.948 1_565 S
H92 C63 0.947 . S
H93 C64 0.948 1_655 S
H94 C70 0.982 1_545 S
H95 C70 0.979 . S
H96 C70 0.977 . S
H97 C71 0.979 . S
H98 C71 0.980 . S
H99 C71 0.983 . S
H100 C44 0.947 . S
C101 C44 1.392 . S
C101 C45 1.419 . S
C101 H83 0.948 . S
C102 C103 1.391 . S
C102 C106 1.391 . S
C102 H144 0.948 . S
C103 C102 1.391 . S
C103 C104 1.391 . S
C104 C103 1.391 . S
C104 H160 0.947 . S
C104 C161 1.392 . S
C105 C106 1.391 . S
C105 C109 1.397 . S
C105 C161 1.419 . S
C106 C102 1.391 . S
C106 C105 1.391 . S
C106 C107 1.399 . S
C107 C106 1.399 . S
C107 C110 1.396 . S
C107 C119 1.453 . S
C107 C120 1.684 1_455 S
H108 C132 0.948 . S
C109 C105 1.397 . S
C109 C110 1.394 . S
C109 C128 1.723 . S
C110 C107 1.396 . S
C110 C109 1.394 . S
C110 C140 1.723 1_445 S
H111 C134 0.947 . S
H112 C135 0.948 . S
H113 C141 0.982 . S
H114 C142 0.979 . S
H115 C142 0.980 . S
H116 C142 0.983 . S
H117 C141 0.979 . S
H118 C141 0.977 . S
C119 C107 1.453 . S
C119 H148 0.982 . S
C119 H149 0.979 . S
C119 H150 0.977 1_545 S
C120 C107 1.684 1_655 S
C120 H145 0.979 . S
C120 H146 0.980 . S
C120 H147 0.983 1_655 S
C121 C122 1.391 1_455 S
C121 C126 1.391 . S
C121 H151 0.948 . S
C122 C121 1.391 1_655 S
C122 C123 1.391 1_545 S
C123 C122 1.391 1_565 S
C123 C124 1.392 . S
C123 H152 0.947 . S
C124 C123 1.392 . S
C124 C125 1.419 1_565 S
C124 H153 0.948 . S
C125 C124 1.419 1_545 S
C125 C126 1.391 1_655 S
C125 C129 1.397 . S
C126 C121 1.391 . S
C126 C125 1.391 1_455 S
C126 C127 1.399 . S
C127 C126 1.399 . S
C127 C128 1.396 . S
C127 C130 1.453 . S
C127 C131 1.684 . S
C128 C109 1.723 . S
C128 C127 1.396 . S
C128 C129 1.394 1_455 S
C129 C125 1.397 . S
C129 C128 1.394 1_655 S
C129 C139 1.723 1_545 S
C130 C127 1.453 . S
C130 H154 0.982 . S
C130 H155 0.979 . S
C130 H156 0.977 . S
C131 C127 1.684 . S
C131 H157 0.979 . S
C131 H158 0.980 . S
C131 H159 0.983 . S
C132 H108 0.948 . S
C132 C133 1.391 . S
C132 C137 1.391 . S
C133 C132 1.391 . S
C133 C134 1.391 . S
C134 H111 0.947 . S
C134 C133 1.391 . S
C134 C135 1.392 . S
C135 H112 0.948 . S
C135 C134 1.392 . S
C135 C136 1.419 . S
C136 C135 1.419 . S
C136 C137 1.391 . S
C136 C140 1.397 . S
C137 C132 1.391 . S
C137 C136 1.391 . S
C137 C138 1.399 . S
C138 C137 1.399 . S
C138 C139 1.396 . S
C138 C141 1.453 . S
C138 C142 1.684 . S
C139 C129 1.723 1_565 S
C139 C138 1.396 . S
C139 C140 1.394 . S
C140 C110 1.723 1_665 S
C140 C136 1.397 . S
C140 C139 1.394 . S
C141 H113 0.982 . S
C141 H117 0.979 . S
C141 H118 0.977 . S
C141 C138 1.453 . S
C142 H114 0.979 . S
C142 H115 0.980 . S
C142 H116 0.983 . S
C142 C138 1.684 . S
H143 C161 0.948 . S
H144 C102 0.948 . S
H145 C120 0.979 . S
H146 C120 0.980 . S
H147 C120 0.983 1_455 S
H148 C119 0.982 . S
H149 C119 0.979 . S
H150 C119 0.977 1_565 S
H151 C121 0.948 . S
H152 C123 0.947 . S
H153 C124 0.948 . S
H154 C130 0.982 . S
H155 C130 0.979 . S
H156 C130 0.977 . S
H157 C131 0.979 . S
H158 C131 0.980 . S
H159 C131 0.983 . S
H160 C104 0.947 . S
C161 C104 1.392 . S
C161 C105 1.419 . S
C161 H143 0.948 . S
C162 C163 1.391 . S
C162 C166 1.391 . S
C162 H204 0.948 . S
C163 C162 1.391 . S
C163 C164 1.391 . S
C164 C163 1.391 . S
C164 H220 0.947 . S
C164 C221 1.392 . S
C165 C166 1.391 . S
C165 C169 1.397 . S
C165 C221 1.419 . S
C166 C162 1.391 . S
C166 C165 1.391 . S
C166 C167 1.399 . S
C167 C166 1.399 . S
C167 C170 1.396 . S
C167 C179 1.453 . S
C167 C180 1.684 . S
H168 C192 0.948 . S
C169 C165 1.397 . S
C169 C170 1.394 . S
C169 C188 1.723 . S
C170 C167 1.396 . S
C170 C169 1.394 . S
C170 C200 1.723 . S
H171 C194 0.947 1_554 S
H172 C195 0.948 . S
H173 C201 0.982 . S
H174 C202 0.979 . S
H175 C202 0.980 . S
H176 C202 0.983 . S
H177 C201 0.979 . S
H178 C201 0.977 . S
C179 C167 1.453 . S
C179 H208 0.982 . S
C179 H209 0.979 . S
C179 H210 0.977 . S
C180 C167 1.684 . S
C180 H205 0.979 . S
C180 H206 0.980 . S
C180 H207 0.983 1_556 S
C181 C182 1.391 . S
C181 C186 1.391 . S
C181 H211 0.948 . S
C182 C181 1.391 . S
C182 C183 1.391 . S
C183 C182 1.391 . S
C183 C184 1.392 . S
C183 H212 0.947 . S
C184 C183 1.392 . S
C184 C185 1.419 . S
C184 H213 0.948 . S
C185 C184 1.419 . S
C185 C186 1.391 . S
C185 C189 1.397 . S
C186 C181 1.391 . S
C186 C185 1.391 . S
C186 C187 1.399 . S
C187 C186 1.399 . S
C187 C188 1.396 . S
C187 C190 1.453 . S
C187 C191 1.684 . S
C188 C169 1.723 . S
C188 C187 1.396 . S
C188 C189 1.394 . S
C189 C185 1.397 . S
C189 C188 1.394 . S
C189 C199 1.723 . S
C190 C187 1.453 . S
C190 H214 0.982 . S
C190 H215 0.979 . S
C190 H216 0.977 . S
C191 C187 1.684 . S
C191 H217 0.979 . S
C191 H218 0.980 . S
C191 H219 0.983 . S
C192 H168 0.948 . S
C192 C193 1.391 . S
C192 C197 1.391 . S
C193 C192 1.391 . S
C193 C194 1.391 . S
C194 H171 0.947 1_556 S
C194 C193 1.391 . S
C194 C195 1.392 . S
C195 H172 0.948 . S
C195 C194 1.392 . S
C195 C196 1.419 . S
C196 C195 1.419 . S
C196 C197 1.391 . S
C196 C200 1.397 . S
C197 C192 1.391 . S
C197 C196 1.391 . S
C197 C198 1.399 . S
C198 C197 1.399 . S
C198 C199 1.396 . S
C198 C201 1.453 . S
C198 C202 1.684 . S
C199 C189 1.723 . S
C199 C198 1.396 . S
C199 C200 1.394 . S
C200 C170 1.723 . S
C200 C196 1.397 . S
C200 C199 1.394 . S
C201 H173 0.982 . S
C201 H177 0.979 . S
C201 H178 0.977 . S
C201 C198 1.453 . S
C202 H174 0.979 . S
C202 H175 0.980 . S
C202 H176 0.983 . S
C202 C198 1.684 . S
H203 C221 0.948 . S
H204 C162 0.948 . S
H205 C180 0.979 . S
H206 C180 0.980 . S
H207 C180 0.983 1_554 S
H208 C179 0.982 . S
H209 C179 0.979 . S
H210 C179 0.977 . S
H211 C181 0.948 . S
H212 C183 0.947 . S
H213 C184 0.948 . S
H214 C190 0.982 . S
H215 C190 0.979 . S
H216 C190 0.977 . S
H217 C191 0.979 . S
H218 C191 0.980 . S
H219 C191 0.983 . S
H220 C164 0.947 . S
C221 C164 1.392 . S
C221 C165 1.419 . S
C221 H203 0.948 . S
C222 C223 1.391 . S
C222 C226 1.391 . S
C222 H264 0.948 . S
C223 C222 1.391 . S
C223 C224 1.391 . S
C224 C223 1.391 . S
C224 H280 0.947 . S
C224 C281 1.392 . S
C225 C226 1.391 . S
C225 C229 1.397 . S
C225 C281 1.419 . S
C226 C222 1.391 . S
C226 C225 1.391 . S
C226 C227 1.399 . S
C227 C226 1.399 . S
C227 C230 1.396 . S
C227 C239 1.453 . S
C227 C240 1.684 . S
H228 C252 0.948 . S
C229 C225 1.397 . S
C229 C230 1.394 . S
C229 C248 1.723 . S
C230 C227 1.396 . S
C230 C229 1.394 . S
C230 C260 1.723 . S
H231 C254 0.947 . S
H232 C255 0.948 . S
H233 C261 0.982 . S
H234 C262 0.979 . S
H235 C262 0.980 . S
H236 C262 0.983 . S
H237 C261 0.979 . S
H238 C261 0.977 . S
C239 C227 1.453 . S
C239 H268 0.982 . S
C239 H269 0.979 . S
C239 H270 0.977 . S
C240 C227 1.684 . S
C240 H265 0.979 . S
C240 H266 0.980 . S
C240 H267 0.983 . S
C241 C242 1.391 . S
C241 C246 1.391 . S
C241 H271 0.948 . S
C242 C241 1.391 . S
C242 C243 1.391 . S
C243 C242 1.391 . S
C243 C244 1.392 . S
C243 H272 0.947 . S
C244 C243 1.392 . S
C244 C245 1.419 . S
C244 H273 0.948 . S
C245 C244 1.419 . S
C245 C246 1.391 . S
C245 C249 1.397 . S
C246 C241 1.391 . S
C246 C245 1.391 . S
C246 C247 1.399 . S
C247 C246 1.399 . S
C247 C248 1.396 . S
C247 C250 1.453 . S
C247 C251 1.684 . S
C248 C229 1.723 . S
C248 C247 1.396 . S
C248 C249 1.394 . S
C249 C245 1.397 . S
C249 C248 1.394 . S
C249 C259 1.723 . S
C250 C247 1.453 . S
C250 H274 0.982 . S
C250 H275 0.979 . S
C250 H276 0.977 . S
C251 C247 1.684 . S
C251 H277 0.979 . S
C251 H278 0.980 . S
C251 H279 0.983 . S
C252 H228 0.948 . S
C252 C253 1.391 . S
C252 C257 1.391 . S
C253 C252 1.391 . S
C253 C254 1.391 . S
C254 H231 0.947 . S
C254 C253 1.391 . S
C254 C255 1.392 . S
C255 H232 0.948 . S
C255 C254 1.392 . S
C255 C256 1.419 . S
C256 C255 1.419 . S
C256 C257 1.391 . S
C256 C260 1.397 . S
C257 C252 1.391 . S
C257 C256 1.391 . S
C257 C258 1.399 . S
C258 C257 1.399 . S
C258 C259 1.396 . S
C258 C261 1.453 . S
C258 C262 1.684 . S
C259 C249 1.723 . S
C259 C258 1.396 . S
C259 C260 1.394 . S
C260 C230 1.723 . S
C260 C256 1.397 . S
C260 C259 1.394 . S
C261 H233 0.982 . S
C261 H237 0.979 . S
C261 H238 0.977 . S
C261 C258 1.453 . S
C262 H234 0.979 . S
C262 H235 0.980 . S
C262 H236 0.983 . S
C262 C258 1.684 . S
H263 C281 0.948 . S
H264 C222 0.948 . S
H265 C240 0.979 . S
H266 C240 0.980 . S
H267 C240 0.983 . S
H268 C239 0.982 . S
H269 C239 0.979 . S
H270 C239 0.977 . S
H271 C241 0.948 . S
H272 C243 0.947 . S
H273 C244 0.948 . S
H274 C250 0.982 . S
H275 C250 0.979 . S
H276 C250 0.977 . S
H277 C251 0.979 . S
H278 C251 0.980 . S
H279 C251 0.983 . S
H280 C224 0.947 . S
C281 C224 1.392 . S
C281 C225 1.419 . S
C281 H263 0.948 . S
H282 C290 0.950 1_556 S
H283 C295 0.950 . S
H284 C292 0.950 1_556 S
H285 C294 0.950 . S
H286 C296 0.950 . S
H287 C298 0.950 . S
H288 C300 0.950 . S
H289 C301 0.950 . S
C290 H282 0.950 1_554 S
C290 C291 1.386 . S
C290 C292 1.391 . S
C291 C290 1.386 . S
C291 C295 1.393 . S
C292 H284 0.950 1_554 S
C292 C290 1.391 . S
C292 C293 1.400 . S
C293 C292 1.400 . S
C293 C294 1.398 . S
C293 C299 1.491 . S
C294 H285 0.950 . S
C294 C293 1.398 . S
C294 C295 1.391 . S
C295 H283 0.950 . S
C295 C291 1.393 . S
C295 C294 1.391 . S
C296 H286 0.950 . S
C296 C297 1.386 . S
C296 C298 1.391 . S
C297 C296 1.386 . S
C297 C301 1.393 . S
C298 H287 0.950 . S
C298 C296 1.391 . S
C298 C299 1.400 . S
C299 C293 1.491 . S
C299 C298 1.400 . S
C299 C300 1.398 . S
C300 H288 0.950 . S
C300 C299 1.398 . S
C300 C301 1.391 . S
C301 H289 0.950 . S
C301 C297 1.393 . S
C301 C300 1.391 . S
H302 C310 0.950 . S
H303 C315 0.950 . S
H304 C312 0.950 . S
H305 C314 0.950 . S
H306 C316 0.950 . S
H307 C318 0.950 . S
H308 C320 0.950 . S
H309 C321 0.950 1_554 S
C310 H302 0.950 . S
C310 C311 1.386 1_554 S
C310 C312 1.391 . S
C311 C310 1.386 1_556 S
C311 C315 1.393 . S
C312 H304 0.950 . S
C312 C310 1.391 . S
C312 C313 1.400 1_554 S
C313 C312 1.400 1_556 S
C313 C314 1.398 . S
C313 C319 1.491 . S
C314 H305 0.950 . S
C314 C313 1.398 . S
C314 C315 1.391 . S
C315 H303 0.950 . S
C315 C311 1.393 . S
C315 C314 1.391 . S
C316 H306 0.950 . S
C316 C317 1.386 . S
C316 C318 1.391 . S
C317 C316 1.386 . S
C317 C321 1.393 . S
C318 H307 0.950 . S
C318 C316 1.391 . S
C318 C319 1.400 . S
C319 C313 1.491 . S
C319 C318 1.400 . S
C319 C320 1.398 1_556 S
C320 H308 0.950 . S
C320 C319 1.398 1_554 S
C320 C321 1.391 1_554 S
C321 H309 0.950 1_556 S
C321 C317 1.393 . S
C321 C320 1.391 1_556 S
H322 C330 0.950 1_556 S
H323 C335 0.950 . S
H324 C332 0.950 1_556 S
H325 C334 0.950 . S
H326 C336 0.950 . S
H327 C338 0.950 . S
H328 C340 0.950 . S
H329 C341 0.950 . S
C330 H322 0.950 1_554 S
C330 C331 1.386 . S
C330 C332 1.391 . S
C331 C330 1.386 . S
C331 C335 1.393 . S
C332 H324 0.950 1_554 S
C332 C330 1.391 . S
C332 C333 1.400 . S
C333 C332 1.400 . S
C333 C334 1.398 . S
C333 C339 1.491 . S
C334 H325 0.950 . S
C334 C333 1.398 . S
C334 C335 1.391 . S
C335 H323 0.950 . S
C335 C331 1.393 . S
C335 C334 1.391 . S
C336 H326 0.950 . S
C336 C337 1.386 . S
C336 C338 1.391 . S
C337 C336 1.386 . S
C337 C341 1.393 . S
C338 H327 0.950 . S
C338 C336 1.391 . S
C338 C339 1.400 . S
C339 C333 1.491 . S
C339 C338 1.400 . S
C339 C340 1.398 . S
C340 H328 0.950 . S
C340 C339 1.398 . S
C340 C341 1.391 . S
C341 H329 0.950 . S
C341 C337 1.393 . S
C341 C340 1.391 . S
H342 C350 0.950 . S
H343 C355 0.950 . S
H344 C352 0.950 . S
H345 C354 0.950 . S
H346 C356 0.950 . S
H347 C358 0.950 1_554 S
H348 C360 0.950 . S
H349 C361 0.950 . S
C350 H342 0.950 . S
C350 C351 1.386 1_556 S
C350 C352 1.391 . S
C351 C350 1.386 1_554 S
C351 C355 1.393 . S
C352 H344 0.950 . S
C352 C350 1.391 . S
C352 C353 1.400 . S
C353 C352 1.400 . S
C353 C354 1.398 1_556 S
C353 C359 1.491 . S
C354 H345 0.950 . S
C354 C353 1.398 1_554 S
C354 C355 1.391 . S
C355 H343 0.950 . S
C355 C351 1.393 . S
C355 C354 1.391 . S
C356 H346 0.950 . S
C356 C357 1.386 . S
C356 C358 1.391 . S
C357 C356 1.386 . S
C357 C361 1.393 . S
C358 H347 0.950 1_556 S
C358 C356 1.391 . S
C358 C359 1.400 . S
C359 C353 1.491 . S
C359 C358 1.400 . S
C359 C360 1.398 . S
C360 H348 0.950 . S
C360 C359 1.398 . S
C360 C361 1.391 . S
C361 H349 0.950 . S
C361 C357 1.393 . S
C361 C360 1.391 . S
H362 C370 0.950 . S
H363 C375 0.950 . S
H364 C372 0.950 . S
H365 C374 0.950 . S
H366 C376 0.950 . S
H367 C378 0.950 . S
H368 C380 0.950 . S
H369 C381 0.950 . S
C370 H362 0.950 . S
C370 C371 1.386 . S
C370 C372 1.391 . S
C371 C370 1.386 . S
C371 C375 1.393 . S
C372 H364 0.950 . S
C372 C370 1.391 . S
C372 C373 1.400 . S
C373 C372 1.400 . S
C373 C374 1.398 . S
C373 C379 1.491 . S
C374 H365 0.950 . S
C374 C373 1.398 . S
C374 C375 1.391 . S
C375 H363 0.950 . S
C375 C371 1.393 . S
C375 C374 1.391 . S
C376 H366 0.950 . S
C376 C377 1.386 . S
C376 C378 1.391 . S
C377 C376 1.386 . S
C377 C381 1.393 . S
C378 H367 0.950 . S
C378 C376 1.391 . S
C378 C379 1.400 . S
C379 C373 1.491 . S
C379 C378 1.400 . S
C379 C380 1.398 . S
C380 H368 0.950 . S
C380 C379 1.398 . S
C380 C381 1.391 . S
C381 H369 0.950 . S
C381 C377 1.393 . S
C381 C380 1.391 . S
H382 C390 0.950 . S
H383 C395 0.950 . S
H384 C392 0.950 . S
H385 C394 0.950 . S
H386 C396 0.950 . S
H387 C398 0.950 . S
H388 C400 0.950 . S
H389 C401 0.950 . S
C390 H382 0.950 . S
C390 C391 1.386 . S
C390 C392 1.391 . S
C391 C390 1.386 . S
C391 C395 1.393 . S
C392 H384 0.950 . S
C392 C390 1.391 . S
C392 C393 1.400 . S
C393 C392 1.400 . S
C393 C394 1.398 . S
C393 C399 1.491 . S
C394 H385 0.950 . S
C394 C393 1.398 . S
C394 C395 1.391 . S
C395 H383 0.950 . S
C395 C391 1.393 . S
C395 C394 1.391 . S
C396 H386 0.950 . S
C396 C397 1.386 . S
C396 C398 1.391 . S
C397 C396 1.386 . S
C397 C401 1.393 . S
C398 H387 0.950 . S
C398 C396 1.391 . S
C398 C399 1.400 . S
C399 C393 1.491 . S
C399 C398 1.400 . S
C399 C400 1.398 . S
C400 H388 0.950 . S
C400 C399 1.398 . S
C400 C401 1.391 . S
C401 H389 0.950 . S
C401 C397 1.393 . S
C401 C400 1.391 . S
H402 C410 0.950 . S
H403 C415 0.950 . S
H404 C412 0.950 . S
H405 C414 0.950 . S
H406 C416 0.950 . S
H407 C418 0.950 . S
H408 C420 0.950 . S
H409 C421 0.950 . S
C410 H402 0.950 . S
C410 C411 1.386 . S
C410 C412 1.391 . S
C411 C410 1.386 . S
C411 C415 1.393 . S
C412 H404 0.950 . S
C412 C410 1.391 . S
C412 C413 1.400 . S
C413 C412 1.400 . S
C413 C414 1.398 . S
C413 C419 1.491 . S
C414 H405 0.950 . S
C414 C413 1.398 . S
C414 C415 1.391 . S
C415 H403 0.950 . S
C415 C411 1.393 . S
C415 C414 1.391 . S
C416 H406 0.950 . S
C416 C417 1.386 . S
C416 C418 1.391 . S
C417 C416 1.386 . S
C417 C421 1.393 . S
C418 H407 0.950 . S
C418 C416 1.391 . S
C418 C419 1.400 . S
C419 C413 1.491 . S
C419 C418 1.400 . S
C419 C420 1.398 . S
C420 H408 0.950 . S
C420 C419 1.398 . S
C420 C421 1.391 . S
C421 H409 0.950 . S
C421 C417 1.393 . S
C421 C420 1.391 . S
H422 C430 0.950 . S
H423 C435 0.950 . S
H424 C432 0.950 . S
H425 C434 0.950 . S
H426 C436 0.950 . S
H427 C438 0.950 . S
H428 C440 0.950 . S
H429 C441 0.950 . S
C430 H422 0.950 . S
C430 C431 1.386 . S
C430 C432 1.391 . S
C431 C430 1.386 . S
C431 C435 1.393 . S
C432 H424 0.950 . S
C432 C430 1.391 . S
C432 C433 1.400 . S
C433 C432 1.400 . S
C433 C434 1.398 . S
C433 C439 1.491 . S
C434 H425 0.950 . S
C434 C433 1.398 . S
C434 C435 1.391 . S
C435 H423 0.950 . S
C435 C431 1.393 . S
C435 C434 1.391 . S
C436 H426 0.950 . S
C436 C437 1.386 . S
C436 C438 1.391 . S
C437 C436 1.386 . S
C437 C441 1.393 . S
C438 H427 0.950 . S
C438 C436 1.391 . S
C438 C439 1.400 . S
C439 C433 1.491 . S
C439 C438 1.400 . S
C439 C440 1.398 . S
C440 H428 0.950 . S
C440 C439 1.398 . S
C440 C441 1.391 . S
C441 H429 0.950 . S
C441 C437 1.393 . S
C441 C440 1.391 . S
H442 C450 0.950 . S
H443 C455 0.950 . S
H444 C452 0.950 . S
H445 C454 0.950 . S
H446 C456 0.950 . S
H447 C458 0.950 . S
H448 C460 0.950 . S
H449 C461 0.950 . S
C450 H442 0.950 . S
C450 C451 1.386 1_545 S
C450 C452 1.391 . S
C451 C450 1.386 1_565 S
C451 C455 1.393 . S
C452 H444 0.950 . S
C452 C450 1.391 . S
C452 C453 1.400 . S
C453 C452 1.400 . S
C453 C454 1.398 1_545 S
C453 C459 1.491 . S
C454 H445 0.950 . S
C454 C453 1.398 1_565 S
C454 C455 1.391 . S
C455 H443 0.950 . S
C455 C451 1.393 . S
C455 C454 1.391 . S
C456 H446 0.950 . S
C456 C457 1.386 1_565 S
C456 C458 1.391 . S
C457 C456 1.386 1_545 S
C457 C461 1.393 . S
C458 H447 0.950 . S
C458 C456 1.391 . S
C458 C459 1.400 1_565 S
C459 C453 1.491 . S
C459 C458 1.400 1_545 S
C459 C460 1.398 . S
C460 H448 0.950 . S
C460 C459 1.398 . S
C460 C461 1.391 . S
C461 H449 0.950 . S
C461 C457 1.393 . S
C461 C460 1.391 . S
H462 C470 0.950 . S
H463 C475 0.950 1_655 S
H464 C472 0.950 . S
H465 C474 0.950 . S
H466 C476 0.950 . S
H467 C478 0.950 . S
H468 C480 0.950 . S
H469 C481 0.950 . S
C470 H462 0.950 . S
C470 C471 1.386 . S
C470 C472 1.391 . S
C471 C470 1.386 . S
C471 C475 1.393 1_565 S
C472 H464 0.950 . S
C472 C470 1.391 . S
C472 C473 1.400 1_565 S
C473 C472 1.400 1_545 S
C473 C474 1.398 1_455 S
C473 C479 1.491 . S
C474 H465 0.950 . S
C474 C473 1.398 1_655 S
C474 C475 1.391 1_655 S
C475 H463 0.950 1_455 S
C475 C471 1.393 1_545 S
C475 C474 1.391 1_455 S
C476 H466 0.950 . S
C476 C477 1.386 1_655 S
C476 C478 1.391 . S
C477 C476 1.386 1_455 S
C477 C481 1.393 1_545 S
C478 H467 0.950 . S
C478 C476 1.391 . S
C478 C479 1.400 1_655 S
C479 C473 1.491 . S
C479 C478 1.400 1_455 S
C479 C480 1.398 1_545 S
C480 H468 0.950 . S
C480 C479 1.398 1_565 S
C480 C481 1.391 . S
C481 H469 0.950 . S
C481 C477 1.393 1_565 S
C481 C480 1.391 . S
H482 C490 0.950 . S
H483 C495 0.950 . S
H484 C492 0.950 . S
H485 C494 0.950 . S
H486 C496 0.950 . S
H487 C498 0.950 . S
H488 C500 0.950 . S
H489 C501 0.950 . S
C490 H482 0.950 . S
C490 C491 1.386 . S
C490 C492 1.391 . S
C491 C490 1.386 . S
C491 C495 1.393 . S
C492 H484 0.950 . S
C492 C490 1.391 . S
C492 C493 1.400 . S
C493 C492 1.400 . S
C493 C494 1.398 . S
C493 C499 1.491 . S
C494 H485 0.950 . S
C494 C493 1.398 . S
C494 C495 1.391 . S
C495 H483 0.950 . S
C495 C491 1.393 . S
C495 C494 1.391 . S
C496 H486 0.950 . S
C496 C497 1.386 . S
C496 C498 1.391 . S
C497 C496 1.386 . S
C497 C501 1.393 . S
C498 H487 0.950 . S
C498 C496 1.391 . S
C498 C499 1.400 . S
C499 C493 1.491 . S
C499 C498 1.400 . S
C499 C500 1.398 . S
C500 H488 0.950 . S
C500 C499 1.398 . S
C500 C501 1.391 . S
C501 H489 0.950 . S
C501 C497 1.393 . S
C501 C500 1.391 . S
H502 C510 0.950 . S
H503 C515 0.950 . S
H504 C512 0.950 . S
H505 C514 0.950 . S
H506 C516 0.950 . S
H507 C518 0.950 . S
H508 C520 0.950 . S
H509 C521 0.950 . S
C510 H502 0.950 . S
C510 C511 1.386 . S
C510 C512 1.391 . S
C511 C510 1.386 . S
C511 C515 1.393 . S
C512 H504 0.950 . S
C512 C510 1.391 . S
C512 C513 1.400 . S
C513 C512 1.400 . S
C513 C514 1.398 . S
C513 C519 1.491 . S
C514 H505 0.950 . S
C514 C513 1.398 . S
C514 C515 1.391 . S
C515 H503 0.950 . S
C515 C511 1.393 . S
C515 C514 1.391 . S
C516 H506 0.950 . S
C516 C517 1.386 . S
C516 C518 1.391 . S
C517 C516 1.386 . S
C517 C521 1.393 . S
C518 H507 0.950 . S
C518 C516 1.391 . S
C518 C519 1.400 . S
C519 C513 1.491 . S
C519 C518 1.400 . S
C519 C520 1.398 . S
C520 H508 0.950 . S
C520 C519 1.398 . S
C520 C521 1.391 . S
C521 H509 0.950 . S
C521 C517 1.393 . S
C521 C520 1.391 . S
C297 C253 1.246 . S
C291 C3 1.135 . S
C311 C4 1.509 1_556 S
C317 C193 1.621 . S
C331 C19 1.539 . S
C337 C223 1.563 . S
C351 C7 1.122 1_554 S
C357 C163 1.163 . S
C371 C37 1.097 . S
C377 C133 1.241 . S
C391 C28 1.496 . S
C397 C73 1.611 . S
C417 C103 1.556 . S
C411 C41 1.529 . S
C437 C43 1.186 . S
C431 C25 1.129 . S
C451 C20 1.317 . S
C457 C62 1.441 . S
C471 C16 1.327 . S
C477 C122 1.488 1_455 S
C497 C182 1.426 . S
C491 C40 1.289 . S
C511 C24 1.362 . S
C517 C242 1.472 . S
