# Generated by pormake.
# Topology tsx, (6,3)-cn, num edge types: 1
# Building blocks:
#     Node 0, Type 0, BuildingBlock: VOLQOD_clean_sbu_1, # of connection points: 6
#     Node 1, Type 0, BuildingBlock: VOLQOD_clean_sbu_1, # of connection points: 6
#     Node 2, Type 1, BuildingBlock: VETTIZ_charged_linker_0, # of connection points: 3
#     Node 3, Type 1, BuildingBlock: VETTIZ_charged_linker_0, # of connection points: 3
#     Node 4, Type 1, BuildingBlock: VETTIZ_charged_linker_0, # of connection points: 3
#     Node 5, Type 1, BuildingBlock: VETTIZ_charged_linker_0, # of connection points: 3
#     Edge 6, Type (0, 1), BuildingBlock: CIFDUS_clean_linker_0, # of connection points: 2
#     Edge 7, Type (0, 1), BuildingBlock: CIFDUS_clean_linker_0, # of connection points: 2
#     Edge 8, Type (0, 1), BuildingBlock: CIFDUS_clean_linker_0, # of connection points: 2
#     Edge 9, Type (0, 1), BuildingBlock: CIFDUS_clean_linker_0, # of connection points: 2
#     Edge 10, Type (0, 1), BuildingBlock: CIFDUS_clean_linker_0, # of connection points: 2
#     Edge 11, Type (0, 1), BuildingBlock: CIFDUS_clean_linker_0, # of connection points: 2
#     Edge 12, Type (0, 1), BuildingBlock: CIFDUS_clean_linker_0, # of connection points: 2
#     Edge 13, Type (0, 1), BuildingBlock: CIFDUS_clean_linker_0, # of connection points: 2
#     Edge 14, Type (0, 1), BuildingBlock: CIFDUS_clean_linker_0, # of connection points: 2
#     Edge 15, Type (0, 1), BuildingBlock: CIFDUS_clean_linker_0, # of connection points: 2
#     Edge 16, Type (0, 1), BuildingBlock: CIFDUS_clean_linker_0, # of connection points: 2
#     Edge 17, Type (0, 1), BuildingBlock: CIFDUS_clean_linker_0, # of connection points: 2
# Relax obj value: 0.078
# Max RMSD: 0.110
# Mean RMSD: 0.085
data_MOF--net-tsx--node1-VOLQOD_clean_sbu_1--node2-VETTIZ_charged_linker_0--edge1-CIFDUS_clean_linker_0
_symmetry_space_group_name_H-M    P1
_symmetry_Int_Tables_number       1
_symmetry_cell_setting            triclinic
loop_
_symmetry_equiv_pos_as_xyz
'x, y, z'
_cell_length_a     22.112756
_cell_length_b     22.959773
_cell_length_c     44.739056
_cell_angle_alpha  90.447489
_cell_angle_beta   89.876335
_cell_angle_gamma 89.66369
loop_
_atom_site_label
_atom_site_type_symbol
_atom_site_fract_x
_atom_site_fract_y
_atom_site_fract_z
_atom_type_partial_charge
O0 O 0.05109 0.99575 0.07234 0.0
Zn1 Zn 0.07706 0.99269 0.0291 0.0
O2 O 0.00905 0.00408 0.00236 0.0
Zn3 Zn 0.9938 0.93039 0.98158 0.0
Zn4 Zn 0.93945 0.02611 0.02637 0.0
Zn5 Zn 0.02487 0.06709 0.97414 0.0
O6 O 0.98764 0.94513 0.93729 0.0
O7 O 0.02558 0.0343 0.93193 0.0
O8 O 0.12084 0.91725 0.02124 0.0
O9 O 0.06276 0.87265 0.98793 0.0
O10 O 0.91668 0.89309 -0.0035 0.0
O11 O 0.87951 0.96191 0.02652 0.0
O12 O 0.89781 0.09748 0.01167 0.0
O13 O 0.13664 0.0563 0.02288 0.0
O14 O 0.95807 0.12886 0.97567 0.0
O15 O 0.10398 0.10744 0.98405 0.0
C16 C 0.0052 0.01985 0.08456 0.0
C17 C 0.00545 0.98682 0.92084 0.0
C18 C 0.87585 0.91184 0.01435 0.0
C19 C 0.10984 0.87377 0.00435 0.0
C20 C 0.91051 0.13442 0.99165 0.0
C21 C 0.14279 0.09797 0.00454 0.0
O22 O 0.96123 0.03898 0.06917 0.0
O23 O 0.57524 0.49436 0.57197 0.0
Zn24 Zn 0.60008 0.49466 0.52858 0.0
O25 O 0.52968 0.50621 0.5028 0.0
Zn26 Zn 0.51852 0.43695 0.47743 0.0
Zn27 Zn 0.45706 0.51719 0.52704 0.0
Zn28 Zn 0.54202 0.57628 0.47876 0.0
O29 O 0.51847 0.4605 0.43404 0.0
O30 O 0.54087 0.55488 0.4349 0.0
O31 O 0.64374 0.41919 0.51891 0.0
O32 O 0.5867 0.37932 0.48355 0.0
O33 O 0.43994 0.39463 0.48653 0.0
O34 O 0.39752 0.45349 0.5201 0.0
O35 O 0.41425 0.59244 0.51849 0.0
O36 O 0.65929 0.56022 0.52405 0.0
O37 O 0.4739 0.63415 0.48513 0.0
O38 O 0.62012 0.61789 0.48946 0.0
C39 C 0.52501 0.50429 0.5851 0.0
C40 C 0.52912 0.50809 0.42053 0.0
C41 C 0.3962 0.40766 0.50399 0.0
C42 C 0.63279 0.37781 0.5006 0.0
C43 C 0.42647 0.6347 0.50135 0.0
C44 C 0.66175 0.60592 0.50815 0.0
O45 O 0.47703 0.51498 0.57046 0.0
C46 C 0.16225 0.90547 0.45183 0.0
C47 C 0.21123 0.87711 0.43761 0.0
C48 C 0.21242 0.87296 0.40623 0.0
C49 C 0.11702 0.92429 0.4034 0.0
C50 C 0.11592 0.92946 0.43418 0.0
C51 C 0.06143 0.96373 0.44489 0.0
H52 H 0.80295 0.10953 0.40833 0.0
C53 C 0.06207 0.95203 0.3915 0.0
C54 C 0.02838 0.97472 0.41559 0.0
H55 H 0.87822 0.08842 0.49655 0.0
H56 H 0.95938 0.02851 0.47588 0.0
H57 H 0.92619 0.13395 0.37591 0.0
H58 H 0.82282 0.97726 0.38658 0.0
H59 H 0.85295 0.97486 0.35025 0.0
H60 H 0.8013 0.03284 0.36066 0.0
H61 H 0.85554 0.12176 0.35725 0.0
H62 H 0.92615 0.09753 0.34126 0.0
C63 C 0.08497 0.02088 0.45889 0.0
C64 C 0.02454 0.92569 0.46662 0.0
C65 C 0.03247 0.95626 0.27936 0.0
C66 C 0.98638 0.97808 0.26093 0.0
C67 C 0.93425 0.00268 0.27437 0.0
C68 C 0.92905 0.00691 0.30555 0.0
C69 C 0.9764 0.98624 0.32358 0.0
C70 C 0.02633 0.96041 0.31036 0.0
C71 C 0.07152 0.9394 0.33283 0.0
C72 C 0.04111 0.95804 0.36179 0.0
C73 C 0.98583 0.98586 0.35628 0.0
C74 C 0.13164 0.97241 0.3275 0.0
C75 C 0.0762 0.87209 0.32983 0.0
C76 C 0.83638 0.09136 0.42333 0.0
C77 C 0.83429 0.10361 0.45409 0.0
C78 C 0.87945 0.08004 0.47272 0.0
C79 C 0.92648 0.04549 0.46067 0.0
C80 C 0.92873 0.03506 0.42964 0.0
C81 C 0.88362 0.05756 0.41167 0.0
C82 C 0.89314 0.0437 0.37919 0.0
C83 C 0.95177 0.00957 0.38039 0.0
C84 C 0.97273 0.00428 0.40996 0.0
C85 C 0.9003 0.10197 0.36226 0.0
C86 C 0.83978 0.00552 0.36833 0.0
H87 H 0.16934 0.89077 0.36538 0.0
H88 H 0.16044 0.90924 0.47596 0.0
H89 H 0.02597 0.87913 0.45956 0.0
H90 H 0.9761 0.93745 0.46701 0.0
H91 H 0.04282 0.92862 0.48969 0.0
H92 H 0.11558 0.04342 0.44301 0.0
H93 H 0.11139 0.01145 0.47936 0.0
H94 H 0.0489 0.05234 0.46453 0.0
H95 H 0.07343 0.93757 0.26995 0.0
H96 H 0.89738 0.01876 0.26078 0.0
H97 H 0.88863 0.02665 0.31438 0.0
H98 H 0.12286 0.0175 0.31958 0.0
H99 H 0.15991 0.95001 0.31033 0.0
H100 H 0.15855 0.97828 0.34807 0.0
H101 H 0.0327 0.85299 0.32218 0.0
H102 H 0.0854 0.85045 0.35135 0.0
H103 H 0.11151 0.85905 0.31335 0.0
H104 H 0.2492 0.85051 0.39486 0.0
C105 C 0.16563 0.89603 0.38912 0.0
C106 C 0.09719 0.17623 0.55484 0.0
C107 C 0.12888 0.22077 0.56973 0.0
C108 C 0.1283 0.22288 0.60119 0.0
C109 C 0.06803 0.13542 0.60269 0.0
C110 C 0.06652 0.13433 0.57182 0.0
C111 C 0.02926 0.08434 0.56007 0.0
H112 H 0.87018 0.83893 0.58954 0.0
C113 C 0.03518 0.08415 0.61373 0.0
C114 C 0.01174 0.05405 0.58895 0.0
H115 H 0.89138 0.92373 0.50425 0.0
H116 H 0.95242 0.99855 0.52766 0.0
H117 H 0.00682 0.85424 0.61151 0.0
H118 H 0.84558 0.9562 0.62731 0.0
H119 H 0.88329 0.94715 0.66159 0.0
H120 H 0.85631 0.8841 0.64173 0.0
H121 H 0.94981 0.83172 0.63749 0.0
H122 H 0.01041 0.87965 0.64856 0.0
C123 C 0.07045 0.04554 0.54031 0.0
C124 C 0.97368 0.10965 0.54349 0.0
C125 C 0.03523 0.04264 0.72491 0.0
C126 C 0.01596 0.99515 0.74215 0.0
C127 C 0.98849 0.94755 0.72737 0.0
C128 C 0.97983 0.94773 0.69629 0.0
C129 C 0.99935 0.99567 0.67955 0.0
C130 C 0.02736 0.04155 0.69392 0.0
C131 C 0.04907 0.087 0.67253 0.0
C132 C 0.02818 0.06155 0.64294 0.0
C133 C 0.99843 0.00848 0.64716 0.0
C134 C 0.11909 0.08958 0.67474 0.0
C135 C 0.01605 0.14508 0.68004 0.0
C136 C 0.88879 0.87299 0.57572 0.0
C137 C 0.87649 0.8749 0.54491 0.0
C138 C 0.90022 0.92115 0.528 0.0
C139 C 0.93571 0.96448 0.5416 0.0
C140 C 0.94731 0.9619 0.57246 0.0
C141 C 0.92367 0.91674 0.58896 0.0
C142 C 0.93822 0.92202 0.62168 0.0
C143 C 0.97348 0.97843 0.62226 0.0
C144 C 0.97945 0.00135 0.59332 0.0
C145 C 0.97803 0.86914 0.63055 0.0
C146 C 0.87795 0.92733 0.63924 0.0
H147 H 0.10024 0.18438 0.64157 0.0
H148 H 0.09621 0.17429 0.53065 0.0
H149 H 0.96123 0.15368 0.55216 0.0
H150 H 0.93256 0.08326 0.54682 0.0
H151 H 0.98285 0.11379 0.51918 0.0
H152 H 0.11246 0.03369 0.55254 0.0
H153 H 0.08378 0.06935 0.51989 0.0
H154 H 0.04908 0.00427 0.53353 0.0
H155 H 0.05588 0.08041 0.73519 0.0
H156 H 0.9743 0.90963 0.73971 0.0
H157 H 0.95855 0.91033 0.68647 0.0
H158 H 0.13857 0.04636 0.68062 0.0
H159 H 0.13359 0.12116 0.6922 0.0
H160 H 0.14111 0.10056 0.65336 0.0
H161 H 0.96881 0.13699 0.68749 0.0
H162 H 0.01147 0.17392 0.6605 0.0
H163 H 0.03936 0.16904 0.69829 0.0
H164 H 0.15261 0.25668 0.61309 0.0
C165 C 0.09818 0.18058 0.6177 0.0
C166 C 0.65293 0.41218 0.94298 0.0
C167 C 0.69853 0.38245 0.92673 0.0
C168 C 0.69462 0.37955 0.89537 0.0
C169 C 0.60084 0.43403 0.89663 0.0
C170 C 0.60476 0.43833 0.92736 0.0
C171 C 0.5522 0.47256 0.94042 0.0
H172 H 0.28642 0.61642 0.91414 0.0
C173 C 0.54476 0.46314 0.88705 0.0
C174 C 0.51504 0.4854 0.91253 0.0
H175 H 0.37249 0.59298 -0.00024 0.0
H176 H 0.45335 0.53706 0.97587 0.0
H177 H 0.40042 0.65049 0.88098 0.0
H178 H 0.31092 0.48554 0.88796 0.0
H179 H 0.33129 0.49456 0.85026 0.0
H180 H 0.28057 0.54627 0.86776 0.0
H181 H 0.33532 0.63328 0.85886 0.0
H182 H 0.41103 0.61609 0.84626 0.0
C183 C 0.57777 0.52897 0.95434 0.0
C184 C 0.51829 0.43349 0.9628 0.0
C185 C 0.49797 0.47092 0.77637 0.0
C186 C 0.4523 0.49848 0.75977 0.0
C187 C 0.40499 0.52741 0.77515 0.0
C188 C 0.404 0.52979 0.80646 0.0
C189 C 0.45109 0.50344 0.82265 0.0
C190 C 0.49681 0.47454 0.80753 0.0
C191 C 0.54432 0.451 0.82812 0.0
C192 C 0.51975 0.47085 0.85822 0.0
C193 C 0.46512 0.50104 0.85491 0.0
C194 C 0.60524 0.4808 0.82036 0.0
C195 C 0.54464 0.38364 0.82497 0.0
C196 C 0.32213 0.59847 0.9279 0.0
C197 C 0.32266 0.6082 0.95884 0.0
C198 C 0.37111 0.58577 0.97581 0.0
C199 C 0.41805 0.55362 0.9619 0.0
C200 C 0.41703 0.54494 0.93068 0.0
C201 C 0.36932 0.56748 0.9144 0.0
C202 C 0.37571 0.55704 0.88149 0.0
C203 C 0.43469 0.5236 0.88039 0.0
C204 C 0.45918 0.51613 0.90918 0.0
C205 C 0.38049 0.61704 0.86586 0.0
C206 C 0.32179 0.51921 0.87104 0.0
H207 H 0.6458 0.39996 0.85651 0.0
H208 H 0.65481 0.41494 0.96714 0.0
H209 H 0.51605 0.38788 0.95432 0.0
H210 H 0.47087 0.44703 0.96625 0.0
H211 H 0.54169 0.43286 0.98472 0.0
H212 H 0.60439 0.55325 0.93744 0.0
H213 H 0.60864 0.51875 0.9731 0.0
H214 H 0.54249 0.55911 0.96257 0.0
H215 H 0.5345 0.44743 0.76541 0.0
H216 H 0.3695 0.54958 0.76299 0.0
H217 H 0.3671 0.55291 0.81679 0.0
H218 H 0.59786 0.52499 0.81094 0.0
H219 H 0.63123 0.45501 0.80356 0.0
H220 H 0.63396 0.48851 0.84019 0.0
H221 H 0.49821 0.36692 0.82089 0.0
H222 H 0.55965 0.36134 0.84547 0.0
H223 H 0.57347 0.36916 0.80593 0.0
H224 H 0.72841 0.35604 0.88241 0.0
C225 C 0.64614 0.40479 0.88033 0.0
C226 C 0.62387 0.62075 0.05719 0.0
C227 C 0.66195 0.6601 0.07205 0.0
C228 C 0.66221 0.66198 0.10352 0.0
C229 C 0.58681 0.58618 0.10498 0.0
C230 C 0.58631 0.58471 0.07409 0.0
C231 C 0.54055 0.54258 0.06201 0.0
H232 H 0.33398 0.33335 0.08781 0.0
C233 C 0.54191 0.54399 0.11577 0.0
C234 C 0.51368 0.5192 0.0907 0.0
H235 H 0.38826 0.40355 0.00262 0.0
H236 H 0.4542 0.47195 0.02771 0.0
H237 H 0.46644 0.33199 0.11778 0.0
H238 H 0.31972 0.45613 0.12102 0.0
H239 H 0.35202 0.45477 0.15683 0.0
H240 H 0.31789 0.3896 0.14178 0.0
H241 H 0.39623 0.31813 0.1366 0.0
H242 H 0.45734 0.35515 0.15509 0.0
C243 C 0.57516 0.49456 0.04451 0.0
C244 C 0.4937 0.57701 0.04327 0.0
C245 C 0.52481 0.50447 0.22693 0.0
C246 C 0.48827 0.46712 0.24389 0.0
C247 C 0.44558 0.43197 0.22894 0.0
C248 C 0.4398 0.43367 0.19774 0.0
C249 C 0.47707 0.47089 0.18116 0.0
C250 C 0.51826 0.50585 0.19584 0.0
C251 C 0.55315 0.54373 0.17476 0.0
C252 C 0.52653 0.52528 0.14494 0.0
C253 C 0.48235 0.48236 0.14878 0.0
C254 C 0.62094 0.52704 0.17723 0.0
C255 C 0.53866 0.60837 0.1824 0.0
C256 C 0.36032 0.36342 0.07461 0.0
C257 C 0.35687 0.36277 0.04326 0.0
C258 C 0.39053 0.40335 0.0268 0.0
C259 C 0.42882 0.44281 0.04145 0.0
C260 C 0.43294 0.44191 0.07286 0.0
C261 C 0.39823 0.40324 0.08889 0.0
C262 C 0.40714 0.40911 0.12209 0.0
C263 C 0.45357 0.45734 0.12344 0.0
C264 C 0.46884 0.47601 0.09456 0.0
C265 C 0.43278 0.35064 0.13378 0.0
C266 C 0.34616 0.42798 0.13642 0.0
H267 H 0.62722 0.62871 0.14395 0.0
H268 H 0.62219 0.6192 0.033 0.0
H269 H 0.48937 0.62288 0.05122 0.0
H270 H 0.44745 0.55936 0.04519 0.0
H271 H 0.50718 0.57818 0.01936 0.0
H272 H 0.61445 0.47858 0.05767 0.0
H273 H 0.59281 0.51179 0.02319 0.0
H274 H 0.54757 0.45582 0.03969 0.0
H275 H 0.55847 0.53171 0.23752 0.0
H276 H 0.41605 0.40353 0.2414 0.0
H277 H 0.40653 0.40588 0.18774 0.0
H278 H 0.62655 0.47892 0.17852 0.0
H279 H 0.64135 0.54638 0.19766 0.0
H280 H 0.6479 0.54022 0.15769 0.0
H281 H 0.4931 0.61324 0.19276 0.0
H282 H 0.53681 0.63614 0.16231 0.0
H283 H 0.57208 0.62663 0.19837 0.0
H284 H 0.69155 0.69192 0.11534 0.0
C285 C 0.62494 0.6252 0.12007 0.0
H286 H 0.15615 0.20834 0.98288 0.0
H287 H 0.24471 0.07779 0.03663 0.0
H288 H 0.32199 0.14741 0.051 0.0
H289 H 0.35859 0.24735 0.05262 0.0
H290 H 0.27067 0.37975 0.0003 0.0
H291 H 0.19952 0.30734 0.98063 0.0
C292 C 0.19296 0.19491 -0.0027 0.0
C293 C 0.19408 0.13816 0.009 0.0
C294 C 0.23706 0.23558 0.00593 0.0
C295 C 0.24219 0.1214 0.02763 0.0
C296 C 0.28648 0.16117 0.0359 0.0
C297 C 0.32406 0.26015 0.03672 0.0
C298 C 0.319 0.31863 0.02822 0.0
C299 C 0.28329 0.2187 0.02592 0.0
C300 C 0.27509 0.33479 0.00717 0.0
C301 C 0.23434 0.29351 -0.00391 0.0
H302 H 0.09355 0.76499 0.98096 0.0
H303 H 0.22653 0.8732 0.02438 0.0
H304 H 0.30286 0.797 0.01777 0.0
H305 H 0.3346 0.70347 0.99491 0.0
H306 H 0.20148 0.59587 0.95147 0.0
H307 H 0.12251 0.66726 0.96328 0.0
C308 C 0.13909 0.77176 0.98919 0.0
C309 C 0.15433 0.82513 0.00275 0.0
C310 C 0.18291 0.7277 0.98535 0.0
C311 C 0.21345 0.83271 0.0137 0.0
C312 C 0.25729 0.78913 0.00991 0.0
C313 C 0.288 0.69504 0.98881 0.0
C314 C 0.27391 0.64478 0.97216 0.0
C315 C 0.24291 0.7369 0.99519 0.0
C316 C 0.21342 0.63456 0.96411 0.0
C317 C 0.16832 0.67547 0.97072 0.0
H318 H 0.85754 0.79774 -0.00113 0.0
H319 H 0.78123 0.93978 0.05084 0.0
H320 H 0.70638 0.87474 0.07184 0.0
H321 H 0.66756 0.77641 0.07877 0.0
H322 H 0.74179 0.6336 0.02725 0.0
H323 H 0.8121 0.70011 0.00251 0.0
C324 C 0.82405 0.81462 0.01447 0.0
C325 C 0.82571 0.87345 0.02352 0.0
C326 C 0.78103 0.7768 0.02674 0.0
C327 C 0.7816 0.89462 0.04364 0.0
C328 C 0.7387 0.85745 0.05577 0.0
C329 C 0.69905 0.76005 0.06202 0.0
C330 C 0.70043 0.70043 0.05506 0.0
C331 C 0.73897 0.79831 0.04805 0.0
C332 C 0.74032 0.67954 0.03294 0.0
C333 C 0.78053 0.71745 0.01892 0.0
H334 H 0.92649 0.22988 0.95647 0.0
H335 H 0.79711 0.1483 0.01496 0.0
H336 H 0.72235 0.22287 0.00317 0.0
H337 H 0.68996 0.30549 0.97227 0.0
H338 H 0.81867 0.38659 0.91353 0.0
H339 H 0.89741 0.31884 0.92975 0.0
C340 C 0.88213 0.22865 0.96682 0.0
C341 C 0.86738 0.18296 0.98623 0.0
C342 C 0.83903 0.27174 0.95993 0.0
C343 C 0.80979 0.18262 -0.00025 0.0
C344 C 0.76682 0.22532 0.99303 0.0
C345 C 0.73568 0.30927 0.96369 0.0
C346 C 0.74843 0.35057 0.9416 0.0
C347 C 0.78046 0.26939 0.97267 0.0
C348 C 0.80773 0.3547 0.9304 0.0
C349 C 0.85268 0.31584 0.93955 0.0
H350 H 0.67165 0.71813 0.48833 0.0
H351 H 0.76489 0.58751 0.54006 0.0
H352 H 0.84194 0.65801 0.55383 0.0
H353 H 0.87906 0.75818 0.55442 0.0
H354 H 0.78493 0.8904 0.50444 0.0
H355 H 0.71307 0.81771 0.48627 0.0
C356 C 0.70924 0.70486 0.50228 0.0
C357 C 0.71194 0.64756 0.51333 0.0
C358 C 0.7533 0.746 0.51054 0.0
C359 C 0.76113 0.63131 0.53141 0.0
C360 C 0.80535 0.67165 0.53935 0.0
C361 C 0.84287 0.77111 0.53951 0.0
C362 C 0.83706 0.8298 0.53109 0.0
C363 C 0.80116 0.72937 0.52961 0.0
C364 C 0.7907 0.84552 0.51119 0.0
C365 C 0.74928 0.80401 0.50096 0.0
H366 H 0.61349 0.27325 0.47346 0.0
H367 H 0.74778 0.36953 0.52293 0.0
H368 H 0.8204 0.28997 0.51576 0.0
H369 H 0.8485 0.19665 0.49154 0.0
H370 H 0.71368 0.10129 0.44209 0.0
H371 H 0.63848 0.17654 0.45344 0.0
C372 C 0.65853 0.2768 0.48283 0.0
C373 C 0.6753 0.32769 0.49836 0.0
C374 C 0.70008 0.23097 0.47862 0.0
C375 C 0.73364 0.33102 0.51074 0.0
C376 C 0.7753 0.28554 0.50663 0.0
C377 C 0.8023 0.19178 0.48386 0.0
C378 C 0.78681 0.14379 0.46575 0.0
C379 C 0.75938 0.23573 0.49013 0.0
C380 C 0.72686 0.13824 0.45575 0.0
C381 C 0.68388 0.18128 0.46218 0.0
H382 H 0.28907 0.43089 0.53108 0.0
H383 H 0.38727 0.2936 0.48541 0.0
H384 H 0.30793 0.22425 0.49842 0.0
H385 H 0.21681 0.20057 0.52822 0.0
H386 H 0.12236 0.33828 0.57526 0.0
H387 H 0.19372 0.40967 0.55603 0.0
C388 C 0.29297 0.38594 0.52364 0.0
C389 C 0.34457 0.36734 0.50769 0.0
C390 C 0.24786 0.34629 0.53161 0.0
C391 C 0.34823 0.30909 0.49786 0.0
C392 C 0.30296 0.26933 0.5054 0.0
C393 C 0.21119 0.24644 0.53358 0.0
C394 C 0.1648 0.26429 0.55324 0.0
C395 C 0.25342 0.28711 0.52301 0.0
C396 C 0.15808 0.32367 0.56032 0.0
C397 C 0.19892 0.36439 0.54942 0.0
H398 H 0.44272 0.73807 0.4733 0.0
H399 H 0.31044 0.63989 0.52266 0.0
H400 H 0.2331 0.71254 0.51123 0.0
H401 H 0.20001 0.79657 0.48123 0.0
H402 H 0.332 0.89245 0.43083 0.0
H403 H 0.41258 0.82886 0.44907 0.0
C404 C 0.39718 0.73289 0.48191 0.0
C405 C 0.38225 0.68302 0.49832 0.0
C406 C 0.35273 0.77446 0.47499 0.0
C407 C 0.32319 0.67757 0.50972 0.0
C408 C 0.27878 0.71907 0.50315 0.0
C409 C 0.2467 0.80447 0.47506 0.0
C410 C 0.26024 0.8486 0.45459 0.0
C411 C 0.29257 0.7667 0.485 0.0
C412 C 0.32072 0.85833 0.44645 0.0
C413 C 0.36668 0.82183 0.45672 0.0
H414 H 0.04556 0.94005 0.12393 0.0
H415 H 0.95246 0.10512 0.11819 0.0
H416 H 0.93875 0.10706 0.17246 0.0
H417 H 0.95255 0.06134 0.22124 0.0
H418 H 0.03748 0.89181 0.22637 0.0
H419 H 0.05552 0.89234 0.17261 0.0
C420 C 0.02288 0.97667 0.13467 0.0
C421 C 1.00056 0.02263 0.11732 0.0
C422 C 0.01346 0.97655 0.16567 0.0
C423 C 0.97012 0.06935 0.13126 0.0
C424 C 0.96218 0.0704 0.16221 0.0
C425 C 0.97412 0.02403 0.21061 0.0
C426 C 0.99385 0.97679 0.22794 0.0
C427 C 0.98319 0.02397 0.17959 0.0
C428 C 0.02275 0.9293 0.21371 0.0
C429 C 0.03286 0.92938 0.18293 0.0
H430 H 0.08031 0.03168 0.87891 0.0
H431 H 0.92013 0.92755 0.88945 0.0
H432 H 0.90907 0.92071 0.83517 0.0
H433 H 0.94265 0.94772 0.78494 0.0
H434 H 0.10915 0.04324 0.77443 0.0
H435 H 0.11922 0.05082 0.82841 0.0
C436 C 0.04308 0.00745 0.86925 0.0
C437 C 1.00081 0.98061 0.88806 0.0
C438 C 0.03778 0.00256 0.83805 0.0
C439 C 0.95328 0.94854 0.87536 0.0
C440 C 0.94684 0.94476 0.84435 0.0
C441 C 0.98185 0.96927 0.79428 0.0
C442 C 0.02438 0.9957 0.77528 0.0
C443 C 0.98865 0.97189 0.82547 0.0
C444 C 0.07443 0.02399 0.78822 0.0
C445 C 0.08069 0.02794 0.81921 0.0
H446 H 0.42438 0.49559 0.61943 0.0
H447 H 0.61864 0.51092 0.6247 0.0
H448 H 0.61283 0.51144 0.67923 0.0
H449 H 0.55262 0.50932 0.72509 0.0
H450 H 0.35891 0.4884 0.7199 0.0
H451 H 0.36448 0.48976 0.66541 0.0
C452 C 0.46549 0.49915 0.63249 0.0
C453 C 0.52185 0.50345 0.61805 0.0
C454 C 0.4619 0.49886 0.66375 0.0
C455 C 0.57471 0.50741 0.63528 0.0
C456 C 0.57142 0.50787 0.66644 0.0
C457 C 0.51162 0.5041 0.71211 0.0
C458 C 0.45542 0.49864 0.72664 0.0
C459 C 0.51526 0.50365 0.68087 0.0
C460 C 0.40267 0.49345 0.70936 0.0
C461 C 0.40585 0.4938 0.6782 0.0
H462 H 0.51048 0.417 0.38223 0.0
H463 H 0.53868 0.60302 0.3843 0.0
H464 H 0.52797 0.60661 0.33013 0.0
H465 H 0.50813 0.55766 0.28235 0.0
H466 H 0.48323 0.3713 0.27992 0.0
H467 H 0.49381 0.36754 0.33415 0.0
C468 C 0.5145 0.45836 0.37088 0.0
C469 C 0.52531 0.50964 0.38744 0.0
C470 C 0.50827 0.46023 0.33966 0.0
C471 C 0.53048 0.56278 0.37222 0.0
C472 C 0.5242 0.56496 0.3412 0.0
C473 C 0.50576 0.51605 0.29358 0.0
C474 C 0.49476 0.46488 0.27696 0.0
C475 C 0.51283 0.51402 0.32472 0.0
C476 C 0.49067 0.41155 0.2921 0.0
C477 C 0.49721 0.40926 0.32313 0.0
loop_
_geom_bond_atom_site_label_1
_geom_bond_atom_site_label_2
_geom_bond_distance
_geom_bond_site_symmetry_2
_ccdc_geom_bond_type
O0 Zn1 1.953 . S
O0 C16 1.225 1_565 S
Zn1 O0 1.953 . S
Zn1 O2 1.949 1_565 S
Zn1 O8 1.919 . S
Zn1 O13 1.924 1_565 S
O2 Zn1 1.949 1_545 S
O2 Zn3 1.923 1_444 S
O2 Zn4 1.950 1_455 S
O2 Zn5 1.945 1_554 S
Zn3 O2 1.923 1_666 S
Zn3 O6 1.933 . S
Zn3 O9 1.941 1_655 S
Zn3 O10 1.965 . S
Zn4 O2 1.950 1_655 S
Zn4 O11 1.938 1_545 S
Zn4 O12 1.906 . S
Zn4 O22 1.953 . S
Zn5 O2 1.945 1_556 S
Zn5 O7 1.932 . S
Zn5 O14 1.977 1_455 S
Zn5 O15 1.910 . S
O6 Zn3 1.933 . S
O6 C17 1.226 1_665 S
O7 Zn5 1.932 . S
O7 C17 1.307 . S
O8 Zn1 1.919 . S
O8 C19 1.253 1_554 S
O9 Zn3 1.941 1_455 S
O9 C19 1.283 . S
O10 Zn3 1.965 . S
O10 C18 1.303 1_556 S
O11 Zn4 1.938 1_565 S
O11 C18 1.247 . S
O12 Zn4 1.906 . S
O12 C20 1.304 1_554 S
O13 Zn1 1.924 1_545 S
O13 C21 1.311 . S
O14 Zn5 1.977 1_655 S
O14 C20 1.272 . S
O15 Zn5 1.910 . S
O15 C21 1.231 1_556 S
C16 O0 1.225 1_545 S
C16 O22 1.298 1_455 S
C17 O6 1.226 1_445 S
C17 O7 1.307 . S
C18 O10 1.303 1_554 S
C18 O11 1.247 . S
C19 O8 1.253 1_556 S
C19 O9 1.283 . S
C20 O12 1.304 1_556 S
C20 O14 1.272 . S
C21 O13 1.311 . S
C21 O15 1.231 1_554 S
O22 Zn4 1.953 . S
O22 C16 1.298 1_655 S
O23 Zn24 1.953 . S
O23 C39 1.225 . S
Zn24 O23 1.953 . S
Zn24 O25 1.949 . S
Zn24 O31 1.919 . S
Zn24 O36 1.924 . S
O25 Zn24 1.949 . S
O25 Zn26 1.923 . S
O25 Zn27 1.950 . S
O25 Zn28 1.945 . S
Zn26 O25 1.923 . S
Zn26 O29 1.933 . S
Zn26 O32 1.941 . S
Zn26 O33 1.965 . S
Zn27 O25 1.950 . S
Zn27 O34 1.938 . S
Zn27 O35 1.906 . S
Zn27 O45 1.953 . S
Zn28 O25 1.945 . S
Zn28 O30 1.932 . S
Zn28 O37 1.977 . S
Zn28 O38 1.910 . S
O29 Zn26 1.933 . S
O29 C40 1.226 . S
O30 Zn28 1.932 . S
O30 C40 1.307 . S
O31 Zn24 1.919 . S
O31 C42 1.253 . S
O32 Zn26 1.941 . S
O32 C42 1.283 . S
O33 Zn26 1.965 . S
O33 C41 1.303 . S
O34 Zn27 1.938 . S
O34 C41 1.247 . S
O35 Zn27 1.906 . S
O35 C43 1.304 . S
O36 Zn24 1.924 . S
O36 C44 1.311 . S
O37 Zn28 1.977 . S
O37 C43 1.272 . S
O38 Zn28 1.910 . S
O38 C44 1.231 . S
C39 O23 1.225 . S
C39 O45 1.298 . S
C40 O29 1.226 . S
C40 O30 1.307 . S
C41 O33 1.303 . S
C41 O34 1.247 . S
C42 O31 1.253 . S
C42 O32 1.283 . S
C43 O35 1.304 . S
C43 O37 1.272 . S
C44 O36 1.311 . S
C44 O38 1.231 . S
O45 Zn27 1.953 . S
O45 C39 1.298 . S
C46 C47 1.391 . S
C46 C50 1.391 . S
C46 H88 0.948 . S
C47 C46 1.391 . S
C47 C48 1.391 . S
C48 C47 1.391 . S
C48 H104 0.947 . S
C48 C105 1.392 . S
C49 C50 1.391 . S
C49 C53 1.397 . S
C49 C105 1.419 . S
C50 C46 1.391 . S
C50 C49 1.391 . S
C50 C51 1.399 . S
C51 C50 1.399 . S
C51 C54 1.396 . S
C51 C63 1.453 1_565 S
C51 C64 1.684 1_455 S
H52 C76 0.948 . S
C53 C49 1.397 . S
C53 C54 1.394 . S
C53 C72 1.723 . S
C54 C51 1.396 . S
C54 C53 1.394 . S
C54 C84 1.723 1_465 S
H55 C78 0.947 . S
H56 C79 0.948 . S
H57 C85 0.982 . S
H58 C86 0.979 . S
H59 C86 0.980 . S
H60 C86 0.983 . S
H61 C85 0.979 . S
H62 C85 0.977 . S
C63 C51 1.453 1_545 S
C63 H92 0.982 . S
C63 H93 0.979 1_545 S
C63 H94 0.977 . S
C64 C51 1.684 1_655 S
C64 H89 0.979 . S
C64 H90 0.980 . S
C64 H91 0.983 1_655 S
C65 C66 1.391 1_465 S
C65 C70 1.391 . S
C65 H95 0.948 . S
C66 C65 1.391 1_645 S
C66 C67 1.391 . S
C67 C66 1.391 . S
C67 C68 1.392 . S
C67 H96 0.947 . S
C68 C67 1.392 . S
C68 C69 1.419 . S
C68 H97 0.948 . S
C69 C68 1.419 . S
C69 C70 1.391 1_645 S
C69 C73 1.397 . S
C70 C65 1.391 . S
C70 C69 1.391 1_465 S
C70 C71 1.399 . S
C71 C70 1.399 . S
C71 C72 1.396 . S
C71 C74 1.453 . S
C71 C75 1.684 . S
C72 C53 1.723 . S
C72 C71 1.396 . S
C72 C73 1.394 1_465 S
C73 C69 1.397 . S
C73 C72 1.394 1_645 S
C73 C83 1.723 . S
C74 C71 1.453 . S
C74 H98 0.982 . S
C74 H99 0.979 . S
C74 H100 0.977 . S
C75 C71 1.684 . S
C75 H101 0.979 . S
C75 H102 0.980 . S
C75 H103 0.983 . S
C76 H52 0.948 . S
C76 C77 1.391 . S
C76 C81 1.391 . S
C77 C76 1.391 . S
C77 C78 1.391 . S
C78 H55 0.947 . S
C78 C77 1.391 . S
C78 C79 1.392 . S
C79 H56 0.948 . S
C79 C78 1.392 . S
C79 C80 1.419 . S
C80 C79 1.419 . S
C80 C81 1.391 . S
C80 C84 1.397 . S
C81 C76 1.391 . S
C81 C80 1.391 . S
C81 C82 1.399 . S
C82 C81 1.399 . S
C82 C83 1.396 . S
C82 C85 1.453 . S
C82 C86 1.684 . S
C83 C73 1.723 . S
C83 C82 1.396 . S
C83 C84 1.394 . S
C84 C54 1.723 1_645 S
C84 C80 1.397 . S
C84 C83 1.394 . S
C85 H57 0.982 . S
C85 H61 0.979 . S
C85 H62 0.977 . S
C85 C82 1.453 . S
C86 H58 0.979 . S
C86 H59 0.980 . S
C86 H60 0.983 . S
C86 C82 1.684 . S
H87 C105 0.948 . S
H88 C46 0.948 . S
H89 C64 0.979 . S
H90 C64 0.980 . S
H91 C64 0.983 1_455 S
H92 C63 0.982 . S
H93 C63 0.979 1_565 S
H94 C63 0.977 . S
H95 C65 0.948 . S
H96 C67 0.947 . S
H97 C68 0.948 . S
H98 C74 0.982 . S
H99 C74 0.979 . S
H100 C74 0.977 . S
H101 C75 0.979 . S
H102 C75 0.980 . S
H103 C75 0.983 . S
H104 C48 0.947 . S
C105 C48 1.392 . S
C105 C49 1.419 . S
C105 H87 0.948 . S
C106 C107 1.391 . S
C106 C110 1.391 . S
C106 H148 0.948 . S
C107 C106 1.391 . S
C107 C108 1.391 . S
C108 C107 1.391 . S
C108 H164 0.947 . S
C108 C165 1.392 . S
C109 C110 1.391 . S
C109 C113 1.397 . S
C109 C165 1.419 . S
C110 C106 1.391 . S
C110 C109 1.391 . S
C110 C111 1.399 . S
C111 C110 1.399 . S
C111 C114 1.396 . S
C111 C123 1.446 1_545 S
C111 C124 1.684 1_455 S
H112 C136 0.948 . S
C113 C109 1.397 . S
C113 C114 1.394 . S
C113 C132 1.723 . S
C114 C111 1.396 . S
C114 C113 1.394 . S
C114 C144 1.723 1_445 S
H115 C138 0.947 . S
H116 C139 0.948 . S
H117 C145 0.982 . S
H118 C146 0.979 . S
H119 C146 0.980 . S
H120 C146 0.983 . S
H121 C145 0.979 . S
H122 C145 0.977 . S
C123 C111 1.446 1_565 S
C123 H152 0.987 . S
C123 H153 0.975 1_565 S
C123 H154 0.983 . S
C124 C111 1.684 1_655 S
C124 H149 0.979 . S
C124 H150 0.980 . S
C124 H151 0.983 1_655 S
C125 C126 1.400 . S
C125 C130 1.391 . S
C125 H155 0.948 . S
C126 C125 1.400 . S
C126 C127 1.382 1_445 S
C127 C126 1.382 1_665 S
C127 C128 1.392 . S
C127 H156 0.947 . S
C128 C127 1.392 . S
C128 C129 1.424 . S
C128 H157 0.948 . S
C129 C128 1.424 . S
C129 C130 1.387 1_665 S
C129 C133 1.396 1_655 S
C130 C125 1.391 . S
C130 C129 1.387 1_445 S
C130 C131 1.399 . S
C131 C130 1.399 . S
C131 C132 1.396 . S
C131 C134 1.453 . S
C131 C135 1.684 . S
C132 C113 1.723 . S
C132 C131 1.396 . S
C132 C133 1.394 1_545 S
C133 C129 1.396 1_455 S
C133 C132 1.394 1_565 S
C133 C143 1.723 1_455 S
C134 C131 1.453 . S
C134 H158 0.982 . S
C134 H159 0.979 . S
C134 H160 0.977 . S
C135 C131 1.684 . S
C135 H161 0.979 . S
C135 H162 0.980 . S
C135 H163 0.983 . S
C136 H112 0.948 . S
C136 C137 1.391 . S
C136 C141 1.391 . S
C137 C136 1.391 . S
C137 C138 1.391 . S
C138 H115 0.947 . S
C138 C137 1.391 . S
C138 C139 1.392 . S
C139 H116 0.948 . S
C139 C138 1.392 . S
C139 C140 1.419 . S
C140 C139 1.419 . S
C140 C141 1.391 . S
C140 C144 1.397 . S
C141 C136 1.391 . S
C141 C140 1.391 . S
C141 C142 1.399 . S
C142 C141 1.399 . S
C142 C143 1.396 . S
C142 C145 1.453 . S
C142 C146 1.684 . S
C143 C133 1.723 1_655 S
C143 C142 1.396 . S
C143 C144 1.394 . S
C144 C114 1.723 1_665 S
C144 C140 1.397 . S
C144 C143 1.394 . S
C145 H117 0.982 . S
C145 H121 0.979 . S
C145 H122 0.977 . S
C145 C142 1.453 . S
C146 H118 0.979 . S
C146 H119 0.980 . S
C146 H120 0.983 . S
C146 C142 1.684 . S
H147 C165 0.948 . S
H148 C106 0.948 . S
H149 C124 0.979 . S
H150 C124 0.980 . S
H151 C124 0.983 1_455 S
H152 C123 0.987 . S
H153 C123 0.975 1_545 S
H154 C123 0.983 . S
H155 C125 0.948 . S
H156 C127 0.947 . S
H157 C128 0.948 . S
H158 C134 0.982 . S
H159 C134 0.979 . S
H160 C134 0.977 . S
H161 C135 0.979 . S
H162 C135 0.980 . S
H163 C135 0.983 . S
H164 C108 0.947 . S
C165 C108 1.392 . S
C165 C109 1.419 . S
C165 H147 0.948 . S
C166 C167 1.391 . S
C166 C170 1.391 . S
C166 H208 0.948 . S
C167 C166 1.391 . S
C167 C168 1.391 . S
C168 C167 1.391 . S
C168 H224 0.947 . S
C168 C225 1.392 . S
C169 C170 1.391 . S
C169 C173 1.397 . S
C169 C225 1.419 . S
C170 C166 1.391 . S
C170 C169 1.391 . S
C170 C171 1.399 . S
C171 C170 1.399 . S
C171 C174 1.396 . S
C171 C183 1.453 . S
C171 C184 1.684 . S
H172 C196 0.948 . S
C173 C169 1.397 . S
C173 C174 1.394 . S
C173 C192 1.723 . S
C174 C171 1.396 . S
C174 C173 1.394 . S
C174 C204 1.723 . S
H175 C198 0.947 . S
H176 C199 0.948 . S
H177 C205 0.982 . S
H178 C206 0.979 . S
H179 C206 0.980 . S
H180 C206 0.983 . S
H181 C205 0.979 . S
H182 C205 0.977 . S
C183 C171 1.453 . S
C183 H212 0.982 . S
C183 H213 0.979 . S
C183 H214 0.977 . S
C184 C171 1.684 . S
C184 H209 0.979 . S
C184 H210 0.980 . S
C184 H211 0.991 . S
C185 C186 1.391 . S
C185 C190 1.391 . S
C185 H215 0.948 . S
C186 C185 1.391 . S
C186 C187 1.391 . S
C187 C186 1.391 . S
C187 C188 1.392 . S
C187 H216 0.947 . S
C188 C187 1.392 . S
C188 C189 1.419 . S
C188 H217 0.948 . S
C189 C188 1.419 . S
C189 C190 1.391 . S
C189 C193 1.397 . S
C190 C185 1.391 . S
C190 C189 1.391 . S
C190 C191 1.399 . S
C191 C190 1.399 . S
C191 C192 1.396 . S
C191 C194 1.453 . S
C191 C195 1.684 . S
C192 C173 1.723 . S
C192 C191 1.396 . S
C192 C193 1.394 . S
C193 C189 1.397 . S
C193 C192 1.394 . S
C193 C203 1.723 . S
C194 C191 1.453 . S
C194 H218 0.982 . S
C194 H219 0.979 . S
C194 H220 0.977 . S
C195 C191 1.684 . S
C195 H221 0.979 . S
C195 H222 0.980 . S
C195 H223 0.983 . S
C196 H172 0.948 . S
C196 C197 1.391 . S
C196 C201 1.391 . S
C197 C196 1.391 . S
C197 C198 1.391 . S
C198 H175 0.947 . S
C198 C197 1.391 . S
C198 C199 1.392 . S
C199 H176 0.948 . S
C199 C198 1.392 . S
C199 C200 1.419 . S
C200 C199 1.419 . S
C200 C201 1.391 . S
C200 C204 1.397 . S
C201 C196 1.391 . S
C201 C200 1.391 . S
C201 C202 1.399 . S
C202 C201 1.399 . S
C202 C203 1.396 . S
C202 C205 1.453 . S
C202 C206 1.684 . S
C203 C193 1.723 . S
C203 C202 1.396 . S
C203 C204 1.394 . S
C204 C174 1.723 . S
C204 C200 1.397 . S
C204 C203 1.394 . S
C205 H177 0.982 . S
C205 H181 0.979 . S
C205 H182 0.977 . S
C205 C202 1.453 . S
C206 H178 0.979 . S
C206 H179 0.980 . S
C206 H180 0.983 . S
C206 C202 1.684 . S
H207 C225 0.948 . S
H208 C166 0.948 . S
H209 C184 0.979 . S
H210 C184 0.980 . S
H211 C184 0.991 . S
H212 C183 0.982 . S
H213 C183 0.979 . S
H214 C183 0.977 . S
H215 C185 0.948 . S
H216 C187 0.947 . S
H217 C188 0.948 . S
H218 C194 0.982 . S
H219 C194 0.979 . S
H220 C194 0.977 . S
H221 C195 0.979 . S
H222 C195 0.980 . S
H223 C195 0.983 . S
H224 C168 0.947 . S
C225 C168 1.392 . S
C225 C169 1.419 . S
C225 H207 0.948 . S
C226 C227 1.391 . S
C226 C230 1.391 . S
C226 H268 0.948 . S
C227 C226 1.391 . S
C227 C228 1.391 . S
C228 C227 1.391 . S
C228 H284 0.947 . S
C228 C285 1.392 . S
C229 C230 1.391 . S
C229 C233 1.397 . S
C229 C285 1.419 . S
C230 C226 1.391 . S
C230 C229 1.391 . S
C230 C231 1.399 . S
C231 C230 1.399 . S
C231 C234 1.396 . S
C231 C243 1.453 . S
C231 C244 1.684 . S
H232 C256 0.948 . S
C233 C229 1.397 . S
C233 C234 1.394 . S
C233 C252 1.723 . S
C234 C231 1.396 . S
C234 C233 1.394 . S
C234 C264 1.723 . S
H235 C258 0.947 . S
H236 C259 0.948 . S
H237 C265 0.982 . S
H238 C266 0.979 . S
H239 C266 0.980 . S
H240 C266 0.983 . S
H241 C265 0.979 . S
H242 C265 0.977 . S
C243 C231 1.453 . S
C243 H272 0.982 . S
C243 H273 0.979 . S
C243 H274 0.977 . S
C244 C231 1.684 . S
C244 H269 0.979 . S
C244 H270 0.980 . S
C244 H271 0.983 . S
C245 C246 1.391 . S
C245 C250 1.391 . S
C245 H275 0.948 . S
C246 C245 1.391 . S
C246 C247 1.391 . S
C247 C246 1.391 . S
C247 C248 1.392 . S
C247 H276 0.947 . S
C248 C247 1.392 . S
C248 C249 1.419 . S
C248 H277 0.948 . S
C249 C248 1.419 . S
C249 C250 1.391 . S
C249 C253 1.397 . S
C250 C245 1.391 . S
C250 C249 1.391 . S
C250 C251 1.399 . S
C251 C250 1.399 . S
C251 C252 1.396 . S
C251 C254 1.453 . S
C251 C255 1.684 . S
C252 C233 1.723 . S
C252 C251 1.396 . S
C252 C253 1.394 . S
C253 C249 1.397 . S
C253 C252 1.394 . S
C253 C263 1.723 . S
C254 C251 1.453 . S
C254 H278 0.982 . S
C254 H279 0.979 . S
C254 H280 0.977 . S
C255 C251 1.684 . S
C255 H281 0.979 . S
C255 H282 0.980 . S
C255 H283 0.983 . S
C256 H232 0.948 . S
C256 C257 1.391 . S
C256 C261 1.391 . S
C257 C256 1.391 . S
C257 C258 1.391 . S
C258 H235 0.947 . S
C258 C257 1.391 . S
C258 C259 1.392 . S
C259 H236 0.948 . S
C259 C258 1.392 . S
C259 C260 1.419 . S
C260 C259 1.419 . S
C260 C261 1.391 . S
C260 C264 1.397 . S
C261 C256 1.391 . S
C261 C260 1.391 . S
C261 C262 1.399 . S
C262 C261 1.399 . S
C262 C263 1.396 . S
C262 C265 1.453 . S
C262 C266 1.684 . S
C263 C253 1.723 . S
C263 C262 1.396 . S
C263 C264 1.394 . S
C264 C234 1.723 . S
C264 C260 1.397 . S
C264 C263 1.394 . S
C265 H237 0.982 . S
C265 H241 0.979 . S
C265 H242 0.977 . S
C265 C262 1.453 . S
C266 H238 0.979 . S
C266 H239 0.980 . S
C266 H240 0.983 . S
C266 C262 1.684 . S
H267 C285 0.948 . S
H268 C226 0.948 . S
H269 C244 0.979 . S
H270 C244 0.980 . S
H271 C244 0.983 . S
H272 C243 0.982 . S
H273 C243 0.979 . S
H274 C243 0.977 . S
H275 C245 0.948 . S
H276 C247 0.947 . S
H277 C248 0.948 . S
H278 C254 0.982 . S
H279 C254 0.979 . S
H280 C254 0.977 . S
H281 C255 0.979 . S
H282 C255 0.980 . S
H283 C255 0.983 . S
H284 C228 0.947 . S
C285 C228 1.392 . S
C285 C229 1.419 . S
C285 H267 0.948 . S
H286 C292 0.930 . S
H287 C295 0.930 . S
H288 C296 0.930 . S
H289 C297 0.930 . S
H290 C300 0.930 . S
H291 C301 0.930 . S
C292 H286 0.930 . S
C292 C293 1.355 . S
C292 C294 1.415 . S
C293 C292 1.355 . S
C293 C295 1.419 . S
C294 C292 1.415 . S
C294 C299 1.425 . S
C294 C301 1.409 . S
C295 H287 0.930 . S
C295 C293 1.419 . S
C295 C296 1.362 . S
C296 H288 0.930 . S
C296 C295 1.362 . S
C296 C299 1.409 . S
C297 H289 0.930 . S
C297 C298 1.355 . S
C297 C299 1.415 . S
C298 C297 1.355 . S
C298 C300 1.419 . S
C299 C294 1.425 . S
C299 C296 1.409 . S
C299 C297 1.415 . S
C300 H290 0.930 . S
C300 C298 1.419 . S
C300 C301 1.362 . S
C301 H291 0.930 . S
C301 C294 1.409 . S
C301 C300 1.362 . S
H302 C308 0.930 1_554 S
H303 C311 0.930 . S
H304 C312 0.930 . S
H305 C313 0.930 . S
H306 C316 0.930 . S
H307 C317 0.930 . S
C308 H302 0.930 1_556 S
C308 C309 1.355 . S
C308 C310 1.415 . S
C309 C308 1.355 . S
C309 C311 1.419 . S
C310 C308 1.415 . S
C310 C315 1.425 . S
C310 C317 1.409 . S
C311 H303 0.930 . S
C311 C309 1.419 . S
C311 C312 1.362 . S
C312 H304 0.930 . S
C312 C311 1.362 . S
C312 C315 1.409 . S
C313 H305 0.930 . S
C313 C314 1.355 . S
C313 C315 1.415 . S
C314 C313 1.355 . S
C314 C316 1.419 . S
C315 C310 1.425 . S
C315 C312 1.409 . S
C315 C313 1.415 . S
C316 H306 0.930 . S
C316 C314 1.419 . S
C316 C317 1.362 . S
C317 H307 0.930 . S
C317 C310 1.409 . S
C317 C316 1.362 . S
H318 C324 0.930 . S
H319 C327 0.930 . S
H320 C328 0.930 . S
H321 C329 0.930 . S
H322 C332 0.930 . S
H323 C333 0.930 . S
C324 H318 0.930 . S
C324 C325 1.355 . S
C324 C326 1.415 . S
C325 C324 1.355 . S
C325 C327 1.419 . S
C326 C324 1.415 . S
C326 C331 1.425 . S
C326 C333 1.409 . S
C327 H319 0.930 . S
C327 C325 1.419 . S
C327 C328 1.362 . S
C328 H320 0.930 . S
C328 C327 1.362 . S
C328 C331 1.409 . S
C329 H321 0.930 . S
C329 C330 1.355 . S
C329 C331 1.415 . S
C330 C329 1.355 . S
C330 C332 1.419 . S
C331 C326 1.425 . S
C331 C328 1.409 . S
C331 C329 1.415 . S
C332 H322 0.930 . S
C332 C330 1.419 . S
C332 C333 1.362 . S
C333 H323 0.930 . S
C333 C326 1.409 . S
C333 C332 1.362 . S
H334 C340 0.925 1_554 S
H335 C343 0.930 . S
H336 C344 0.930 . S
H337 C345 0.930 . S
H338 C348 0.930 . S
H339 C349 0.930 . S
C340 H334 0.925 1_556 S
C340 C341 1.355 . S
C340 C342 1.415 . S
C341 C340 1.355 . S
C341 C343 1.419 . S
C342 C340 1.415 . S
C342 C347 1.425 . S
C342 C349 1.409 . S
C343 H335 0.930 . S
C343 C341 1.419 . S
C343 C344 1.362 . S
C344 H336 0.930 . S
C344 C343 1.362 . S
C344 C347 1.409 . S
C345 H337 0.930 . S
C345 C346 1.355 . S
C345 C347 1.415 . S
C346 C345 1.355 . S
C346 C348 1.419 . S
C347 C342 1.425 . S
C347 C344 1.409 . S
C347 C345 1.415 . S
C348 H338 0.930 . S
C348 C346 1.419 . S
C348 C349 1.362 . S
C349 H339 0.930 . S
C349 C342 1.409 . S
C349 C348 1.362 . S
H350 C356 0.930 . S
H351 C359 0.930 . S
H352 C360 0.930 . S
H353 C361 0.930 . S
H354 C364 0.930 . S
H355 C365 0.930 . S
C356 H350 0.930 . S
C356 C357 1.355 . S
C356 C358 1.415 . S
C357 C356 1.355 . S
C357 C359 1.419 . S
C358 C356 1.415 . S
C358 C363 1.425 . S
C358 C365 1.409 . S
C359 H351 0.930 . S
C359 C357 1.419 . S
C359 C360 1.362 . S
C360 H352 0.930 . S
C360 C359 1.362 . S
C360 C363 1.409 . S
C361 H353 0.930 . S
C361 C362 1.355 . S
C361 C363 1.415 . S
C362 C361 1.355 . S
C362 C364 1.419 . S
C363 C358 1.425 . S
C363 C360 1.409 . S
C363 C361 1.415 . S
C364 H354 0.930 . S
C364 C362 1.419 . S
C364 C365 1.362 . S
C365 H355 0.930 . S
C365 C358 1.409 . S
C365 C364 1.362 . S
H366 C372 0.930 . S
H367 C375 0.930 . S
H368 C376 0.930 . S
H369 C377 0.930 . S
H370 C380 0.930 . S
H371 C381 0.930 . S
C372 H366 0.930 . S
C372 C373 1.355 . S
C372 C374 1.415 . S
C373 C372 1.355 . S
C373 C375 1.419 . S
C374 C372 1.415 . S
C374 C379 1.425 . S
C374 C381 1.409 . S
C375 H367 0.930 . S
C375 C373 1.419 . S
C375 C376 1.362 . S
C376 H368 0.930 . S
C376 C375 1.362 . S
C376 C379 1.409 . S
C377 H369 0.930 . S
C377 C378 1.355 . S
C377 C379 1.415 . S
C378 C377 1.355 . S
C378 C380 1.419 . S
C379 C374 1.425 . S
C379 C376 1.409 . S
C379 C377 1.415 . S
C380 H370 0.930 . S
C380 C378 1.419 . S
C380 C381 1.362 . S
C381 H371 0.930 . S
C381 C374 1.409 . S
C381 C380 1.362 . S
H382 C388 0.930 . S
H383 C391 0.930 . S
H384 C392 0.930 . S
H385 C393 0.930 . S
H386 C396 0.930 . S
H387 C397 0.930 . S
C388 H382 0.930 . S
C388 C389 1.355 . S
C388 C390 1.415 . S
C389 C388 1.355 . S
C389 C391 1.419 . S
C390 C388 1.415 . S
C390 C395 1.425 . S
C390 C397 1.409 . S
C391 H383 0.930 . S
C391 C389 1.419 . S
C391 C392 1.362 . S
C392 H384 0.930 . S
C392 C391 1.362 . S
C392 C395 1.409 . S
C393 H385 0.930 . S
C393 C394 1.355 . S
C393 C395 1.415 . S
C394 C393 1.355 . S
C394 C396 1.419 . S
C395 C390 1.425 . S
C395 C392 1.409 . S
C395 C393 1.415 . S
C396 H386 0.930 . S
C396 C394 1.419 . S
C396 C397 1.362 . S
C397 H387 0.930 . S
C397 C390 1.409 . S
C397 C396 1.362 . S
H398 C404 0.930 . S
H399 C407 0.930 . S
H400 C408 0.930 . S
H401 C409 0.930 . S
H402 C412 0.930 . S
H403 C413 0.930 . S
C404 H398 0.930 . S
C404 C405 1.355 . S
C404 C406 1.415 . S
C405 C404 1.355 . S
C405 C407 1.419 . S
C406 C404 1.415 . S
C406 C411 1.425 . S
C406 C413 1.409 . S
C407 H399 0.930 . S
C407 C405 1.419 . S
C407 C408 1.362 . S
C408 H400 0.930 . S
C408 C407 1.362 . S
C408 C411 1.409 . S
C409 H401 0.930 . S
C409 C410 1.355 . S
C409 C411 1.415 . S
C410 C409 1.355 . S
C410 C412 1.419 . S
C411 C406 1.425 . S
C411 C408 1.409 . S
C411 C409 1.415 . S
C412 H402 0.930 . S
C412 C410 1.419 . S
C412 C413 1.362 . S
C413 H403 0.930 . S
C413 C406 1.409 . S
C413 C412 1.362 . S
H414 C420 0.930 . S
H415 C423 0.930 . S
H416 C424 0.930 . S
H417 C425 0.930 . S
H418 C428 0.930 . S
H419 C429 0.930 . S
C420 H414 0.930 . S
C420 C421 1.355 1_565 S
C420 C422 1.415 . S
C421 C420 1.355 1_545 S
C421 C423 1.419 1_455 S
C422 C420 1.415 . S
C422 C427 1.425 1_465 S
C422 C429 1.409 . S
C423 H415 0.930 . S
C423 C421 1.419 1_655 S
C423 C424 1.362 . S
C424 H416 0.930 . S
C424 C423 1.362 . S
C424 C427 1.409 . S
C425 H417 0.930 . S
C425 C426 1.355 1_645 S
C425 C427 1.415 . S
C426 C425 1.355 1_465 S
C426 C428 1.419 . S
C427 C422 1.425 1_645 S
C427 C424 1.409 . S
C427 C425 1.415 . S
C428 H418 0.930 . S
C428 C426 1.419 . S
C428 C429 1.362 . S
C429 H419 0.930 . S
C429 C422 1.409 . S
C429 C428 1.362 . S
H430 C436 0.930 . S
H431 C439 0.930 . S
H432 C440 0.930 . S
H433 C441 0.930 . S
H434 C444 0.930 . S
H435 C445 0.930 . S
C436 H430 0.930 . S
C436 C437 1.355 . S
C436 C438 1.415 . S
C437 C436 1.355 . S
C437 C439 1.419 1_445 S
C438 C436 1.415 . S
C438 C443 1.425 1_445 S
C438 C445 1.409 . S
C439 H431 0.930 . S
C439 C437 1.419 1_665 S
C439 C440 1.362 . S
C440 H432 0.930 . S
C440 C439 1.362 . S
C440 C443 1.409 . S
C441 H433 0.930 . S
C441 C442 1.355 1_665 S
C441 C443 1.415 . S
C442 C441 1.355 1_445 S
C442 C444 1.419 . S
C443 C438 1.425 1_665 S
C443 C440 1.409 . S
C443 C441 1.415 . S
C444 H434 0.930 . S
C444 C442 1.419 . S
C444 C445 1.362 . S
C445 H435 0.930 . S
C445 C438 1.409 . S
C445 C444 1.362 . S
H446 C452 0.930 . S
H447 C455 0.930 . S
H448 C456 0.930 . S
H449 C457 0.930 . S
H450 C460 0.930 . S
H451 C461 0.930 . S
C452 H446 0.930 . S
C452 C453 1.355 . S
C452 C454 1.415 . S
C453 C452 1.355 . S
C453 C455 1.419 . S
C454 C452 1.415 . S
C454 C459 1.425 . S
C454 C461 1.409 . S
C455 H447 0.930 . S
C455 C453 1.419 . S
C455 C456 1.362 . S
C456 H448 0.930 . S
C456 C455 1.362 . S
C456 C459 1.409 . S
C457 H449 0.930 . S
C457 C458 1.355 . S
C457 C459 1.415 . S
C458 C457 1.355 . S
C458 C460 1.419 . S
C459 C454 1.425 . S
C459 C456 1.409 . S
C459 C457 1.415 . S
C460 H450 0.930 . S
C460 C458 1.419 . S
C460 C461 1.362 . S
C461 H451 0.930 . S
C461 C454 1.409 . S
C461 C460 1.362 . S
H462 C468 0.930 . S
H463 C471 0.930 . S
H464 C472 0.930 . S
H465 C473 0.930 . S
H466 C476 0.930 . S
H467 C477 0.930 . S
C468 H462 0.930 . S
C468 C469 1.355 . S
C468 C470 1.415 . S
C469 C468 1.355 . S
C469 C471 1.419 . S
C470 C468 1.415 . S
C470 C475 1.425 . S
C470 C477 1.409 . S
C471 H463 0.930 . S
C471 C469 1.419 . S
C471 C472 1.362 . S
C472 H464 0.930 . S
C472 C471 1.362 . S
C472 C475 1.409 . S
C473 H465 0.930 . S
C473 C474 1.355 . S
C473 C475 1.415 . S
C474 C473 1.355 . S
C474 C476 1.419 . S
C475 C470 1.425 . S
C475 C472 1.409 . S
C475 C473 1.415 . S
C476 H466 0.930 . S
C476 C474 1.419 . S
C476 C477 1.362 . S
C477 H467 0.930 . S
C477 C470 1.409 . S
C477 C476 1.362 . S
C298 C257 1.456 . S
C293 C21 1.443 . S
C309 C19 1.466 . S
C314 C197 1.456 . S
C325 C18 1.403 . S
C330 C227 1.362 . S
C341 C20 1.461 . S
C346 C167 1.396 . S
C357 C44 1.442 . S
C362 C137 1.457 . S
C373 C42 1.457 . S
C378 C77 1.455 . S
C394 C107 1.325 . S
C389 C41 1.430 . S
C410 C47 1.338 . S
C405 C43 1.436 . S
C421 C16 1.490 . S
C426 C66 1.486 1_465 S
C437 C17 1.449 . S
C442 C126 1.456 . S
C458 C186 1.471 . S
C453 C39 1.489 . S
C469 C40 1.453 . S
C474 C246 1.437 . S
