# Generated by pormake.
# Topology anh, (6,3)-cn, num edge types: 1
# Building blocks:
#     Node 0, Type 0, BuildingBlock: INOVEN_clean_sbu_0, # of connection points: 6
#     Node 1, Type 0, BuildingBlock: INOVEN_clean_sbu_0, # of connection points: 6
#     Node 2, Type 0, BuildingBlock: INOVEN_clean_sbu_0, # of connection points: 6
#     Node 3, Type 1, BuildingBlock: ESEHIV_clean_linker_0, # of connection points: 3
#     Node 4, Type 1, BuildingBlock: ESEHIV_clean_linker_0, # of connection points: 3
#     Node 5, Type 1, BuildingBlock: ESEHIV_clean_linker_0, # of connection points: 3
#     Node 6, Type 1, BuildingBlock: ESEHIV_clean_linker_0, # of connection points: 3
#     Node 7, Type 1, BuildingBlock: ESEHIV_clean_linker_0, # of connection points: 3
#     Node 8, Type 1, BuildingBlock: ESEHIV_clean_linker_0, # of connection points: 3
#     Edge 9, Type (0, 1), BuildingBlock: EZIPEK_clean_linker_0, # of connection points: 2
#     Edge 10, Type (0, 1), BuildingBlock: EZIPEK_clean_linker_0, # of connection points: 2
#     Edge 11, Type (0, 1), BuildingBlock: EZIPEK_clean_linker_0, # of connection points: 2
#     Edge 12, Type (0, 1), BuildingBlock: EZIPEK_clean_linker_0, # of connection points: 2
#     Edge 13, Type (0, 1), BuildingBlock: EZIPEK_clean_linker_0, # of connection points: 2
#     Edge 14, Type (0, 1), BuildingBlock: EZIPEK_clean_linker_0, # of connection points: 2
#     Edge 15, Type (0, 1), BuildingBlock: EZIPEK_clean_linker_0, # of connection points: 2
#     Edge 16, Type (0, 1), BuildingBlock: EZIPEK_clean_linker_0, # of connection points: 2
#     Edge 17, Type (0, 1), BuildingBlock: EZIPEK_clean_linker_0, # of connection points: 2
#     Edge 18, Type (0, 1), BuildingBlock: EZIPEK_clean_linker_0, # of connection points: 2
#     Edge 19, Type (0, 1), BuildingBlock: EZIPEK_clean_linker_0, # of connection points: 2
#     Edge 20, Type (0, 1), BuildingBlock: EZIPEK_clean_linker_0, # of connection points: 2
#     Edge 21, Type (0, 1), BuildingBlock: EZIPEK_clean_linker_0, # of connection points: 2
#     Edge 22, Type (0, 1), BuildingBlock: EZIPEK_clean_linker_0, # of connection points: 2
#     Edge 23, Type (0, 1), BuildingBlock: EZIPEK_clean_linker_0, # of connection points: 2
#     Edge 24, Type (0, 1), BuildingBlock: EZIPEK_clean_linker_0, # of connection points: 2
#     Edge 25, Type (0, 1), BuildingBlock: EZIPEK_clean_linker_0, # of connection points: 2
#     Edge 26, Type (0, 1), BuildingBlock: EZIPEK_clean_linker_0, # of connection points: 2
# Relax obj value: 0.279
# Max RMSD: 0.264
# Mean RMSD: 0.183
data_MOF--net-anh--node1-INOVEN_clean_sbu_0--node2-ESEHIV_clean_linker_0--edge1-EZIPEK_clean_linker_0
_symmetry_space_group_name_H-M    P1
_symmetry_Int_Tables_number       1
_symmetry_cell_setting            triclinic
loop_
_symmetry_equiv_pos_as_xyz
'x, y, z'
_cell_length_a     22.141629
_cell_length_b     26.908873
_cell_length_c     37.497491
_cell_angle_alpha  92.397871
_cell_angle_beta   89.29754
_cell_angle_gamma 133.1099
loop_
_atom_site_label
_atom_site_type_symbol
_atom_site_fract_x
_atom_site_fract_y
_atom_site_fract_z
_atom_type_partial_charge
Gd0 Gd 0.14345 0.50688 0.15162 0.0
Gd1 Gd 1.03085 0.52763 0.16061 0.0
C2 C 0.22781 0.666 0.16149 0.0
C3 C 0.26344 0.51957 0.13091 0.0
C4 C 0.34348 0.58245 0.11841 0.0
C5 C 0.41538 0.61498 0.13888 0.0
C6 C 0.34724 0.61555 0.08925 0.0
C7 C 0.49558 0.7109 0.09958 0.0
C8 C 0.42221 0.67877 0.07997 0.0
C9 C 0.49015 0.67848 0.12989 0.0
C10 C 0.09206 0.49173 0.2194 0.0
C11 C 0.94753 0.37046 0.15474 0.0
C12 C 0.94563 0.55431 0.18485 0.0
C13 C 0.8602 0.52437 0.18894 0.0
C14 C 0.81577 0.51778 0.15982 0.0
C15 C 0.82665 0.51042 0.22324 0.0
C16 C 0.71406 0.49671 0.2001 0.0
C17 C 0.75356 0.4961 0.22875 0.0
C18 C 0.74338 0.50399 0.16538 0.0
C19 C 1.04968 0.50604 0.09117 0.0
O20 O 0.2401 0.6242 0.15748 0.0
O21 O 0.15116 0.64039 0.16274 0.0
O22 O 0.2504 0.52265 0.16468 0.0
O23 O 0.19825 0.49047 0.11031 0.0
O24 O 0.10136 0.4537 0.20347 0.0
O25 O 0.11306 0.53715 0.19891 0.0
O26 O 0.94065 0.41276 0.16819 0.0
O27 O 1.01908 0.39645 0.14053 0.0
O28 O 0.97675 0.56963 0.15283 0.0
O29 O 0.96785 0.5296 0.20419 0.0
O30 O 0.97921 0.48009 0.10445 0.0
O31 O 0.10537 0.54268 0.115 0.0
H32 H 0.41368 0.59132 0.16205 0.0
H33 H 0.29223 0.59298 0.0736 0.0
H34 H 0.42272 0.70153 0.05676 0.0
H35 H 0.54415 0.70003 0.14595 0.0
H36 H 0.8395 0.52766 0.13305 0.0
H37 H 0.85954 0.51464 0.24613 0.0
H38 H 0.73116 0.48906 0.25561 0.0
H39 H 0.71418 0.50478 0.14276 0.0
Gd40 Gd 0.68033 0.02836 0.46741 0.0
Gd41 Gd 0.57333 0.05411 0.46122 0.0
C42 C 0.47867 0.89506 0.45714 0.0
C43 C 0.7514 0.98988 0.49085 0.0
C44 C 0.72656 0.92641 0.50142 0.0
C45 C 0.6619 0.86359 0.48358 0.0
C46 C 0.76627 0.92868 0.5311 0.0
C47 C 0.67872 0.80639 0.52476 0.0
C48 C 0.74239 0.86905 0.54277 0.0
C49 C 0.63849 0.8038 0.49507 0.0
C50 C 0.66161 0.04566 0.39935 0.0
C51 C 0.77701 0.18665 0.46395 0.0
C52 C 0.50592 0.10019 0.44702 0.0
C53 C 0.52178 0.15874 0.46339 0.0
C54 C 0.5494 0.17913 0.49917 0.0
C55 C 0.51294 0.19625 0.44326 0.0
C56 C 0.55497 0.2717 0.4951 0.0
C57 C 0.5299 0.25285 0.45902 0.0
C58 C 0.56517 0.23488 0.51499 0.0
C59 C 0.59825 0.04231 0.52978 0.0
O60 O 0.55199 0.91836 0.46697 0.0
O61 O 0.47322 0.93967 0.44973 0.0
O62 O 0.74539 0.9957 0.4569 0.0
O63 O 0.72615 1.01249 0.51169 0.0
O64 O 0.72999 0.06708 0.41291 0.0
O65 O 0.60411 1.01193 0.4217 0.0
O66 O 0.7022 0.1628 0.45697 0.0
O67 O 0.78427 0.14374 0.47265 0.0
O68 O 0.47256 0.04963 0.4678 0.0
O69 O 0.5666 0.11512 0.42867 0.0
O70 O 0.52919 0.02025 0.51725 0.0
O71 O 0.65224 0.0735 0.50607 0.0
H72 H 0.62966 0.86077 0.46091 0.0
H73 H 0.81563 0.97665 0.54535 0.0
H74 H 0.77404 0.87175 0.56568 0.0
H75 H 0.58929 0.7557 0.48091 0.0
H76 H 0.55851 0.15178 0.51495 0.0
H77 H 0.49297 0.18178 0.41549 0.0
H78 H 0.5222 0.28121 0.44337 0.0
H79 H 0.58511 0.24926 0.54277 0.0
Gd80 Gd 0.68511 0.60007 0.85583 0.0
Gd81 Gd 0.5669 0.45759 0.85551 0.0
C82 C 0.47816 0.5229 0.86297 0.0
C83 C 0.7661 0.72641 0.84347 0.0
C84 C 0.74526 0.76327 0.82775 0.0
C85 C 0.67978 0.75623 0.84067 0.0
C86 C 0.79207 0.80693 0.79965 0.0
C87 C 0.70965 0.83657 0.79817 0.0
C88 C 0.7744 0.84308 0.78497 0.0
C89 C 0.66234 0.79258 0.82608 0.0
C90 C 0.66934 0.55169 0.92001 0.0
C91 C 0.77554 0.53595 0.8565 0.0
C92 C 0.48895 0.32985 0.86093 0.0
C93 C 0.50624 0.28889 0.84583 0.0
C94 C 0.559 0.3119 0.81671 0.0
C95 C 0.47013 0.22654 0.86013 0.0
C96 C 0.53842 0.2106 0.81605 0.0
C97 C 0.48606 0.18765 0.84535 0.0
C98 C 0.57498 0.27322 0.802 0.0
C99 C 0.58562 0.50289 0.78966 0.0
O100 O 0.55783 0.57844 0.85495 0.0
O101 O 0.46771 0.46771 0.86835 0.0
O102 O 0.73429 0.69953 0.87427 0.0
O103 O 0.76572 0.68688 0.8218 0.0
O104 O 0.73921 0.60397 0.9069 0.0
O105 O 0.61007 0.53056 0.89971 0.0
O106 O 0.69357 0.47833 0.85742 0.0
O107 O 0.78844 0.59279 0.85377 0.0
O108 O 0.46883 0.35153 0.8378 0.0
O109 O 0.54141 0.37711 0.8852 0.0
O110 O 0.51538 0.45454 0.80369 0.0
O111 O 0.64419 0.52627 0.81122 0.0
H112 H 0.64208 0.72285 0.86216 0.0
H113 H 0.84269 0.81331 0.78912 0.0
H114 H 0.81162 0.87654 0.76342 0.0
H115 H 0.61196 0.78653 0.83664 0.0
H116 H 0.58773 0.35986 0.80526 0.0
H117 H 0.42936 0.20778 0.88259 0.0
H118 H 0.45727 0.13953 0.85663 0.0
H119 H 0.61556 0.29196 0.77946 0.0
H120 H 0.50344 0.91976 0.24395 0.0
H121 H 0.72592 0.13 0.23906 0.0
H122 H 0.57805 0.0177 0.14289 0.0
C123 C 0.54624 0.96399 0.22799 0.0
C124 C 0.53003 0.95871 0.19113 0.0
C125 C 0.61513 0.02529 0.24521 0.0
C126 C 0.67243 0.08316 0.22532 0.0
C127 C 0.66159 0.0824 0.18838 0.0
C128 C 0.58874 0.01939 0.17118 0.0
H129 H 0.61258 0.60939 0.63635 0.0
H130 H 0.61164 0.44866 0.62543 0.0
H131 H 0.61064 0.53545 0.53216 0.0
C132 C 0.61267 0.57538 0.61985 0.0
C133 C 0.61602 0.57995 0.58263 0.0
C134 C 0.61164 0.52839 0.63577 0.0
C135 C 0.61258 0.48533 0.61369 0.0
C136 C 0.60879 0.48602 0.57646 0.0
C137 C 0.61141 0.53378 0.56098 0.0
H138 H 1.01637 0.52181 0.93272 0.0
H139 H 0.20551 0.51728 0.93816 0.0
H140 H 0.13292 0.53366 0.83486 0.0
C141 C 1.05973 0.523 0.91792 0.0
C142 C 1.0625 0.52909 0.88076 0.0
C143 C 0.1103 0.51919 0.93757 0.0
C144 C 0.16898 0.52004 0.92096 0.0
C145 C 0.18268 0.52424 0.8837 0.0
C146 C 0.12677 0.52953 0.86349 0.0
H147 H 1.01146 0.41953 0.38053 0.0
H148 H 0.22119 0.63329 0.37479 0.0
H149 H 0.127 0.54523 0.478 0.0
C150 C 1.05844 0.46884 0.39428 0.0
C151 C 1.06089 0.47376 0.43174 0.0
C152 C 0.11541 0.52591 0.37403 0.0
C153 C 0.17733 0.58987 0.39111 0.0
C154 C 0.18351 0.59922 0.42856 0.0
C155 C 0.12403 0.53999 0.44914 0.0
H156 H 0.60094 0.094 0.69185 0.0
H157 H 0.65863 0.9704 0.68244 0.0
H158 H 0.62455 0.0222 0.78631 0.0
C159 C 0.61368 0.06622 0.70428 0.0
C160 C 0.61158 0.06281 0.74164 0.0
C161 C 0.63018 0.03282 0.68276 0.0
C162 C 0.64611 0.99641 0.69896 0.0
C163 C 0.64444 0.99242 0.73636 0.0
C164 C 0.62675 0.02556 0.75755 0.0
H165 H 0.71223 0.6783 0.03249 0.0
H166 H 0.65371 0.52633 0.09984 0.0
H167 H 0.62031 0.65882 0.13787 0.0
C168 C 0.69235 0.65478 0.05811 0.0
C169 C 0.66639 0.67494 0.08415 0.0
C170 C 0.68005 0.59726 0.06279 0.0
C171 C 0.66014 0.56949 0.09627 0.0
C172 C 0.64335 0.59455 0.12431 0.0
C173 C 0.64101 0.64403 0.11736 0.0
C174 C 0.58423 0.7493 0.04941 0.0
C175 C 0.57801 0.7677 0.08374 0.0
C176 C 0.69071 0.77806 0.10227 0.0
C177 C 0.65917 0.72435 0.07645 0.0
N178 N 0.57482 0.66252 0.02153 0.0
N179 N 0.66362 0.84273 0.13344 0.0
C180 C 0.60847 0.71266 0.04756 0.0
C181 C 0.64806 0.80032 0.10605 0.0
N182 N 0.55762 0.75887 0.02039 0.0
N183 N 0.75684 0.80385 0.1236 0.0
H184 H 0.62778 0.85471 0.13628 0.0
H185 H 0.71001 0.86488 0.15279 0.0
H186 H 0.78829 0.78782 0.12014 0.0
H187 H 0.78305 0.84317 0.1428 0.0
H188 H 0.56238 0.74633 -0.00554 0.0
H189 H 0.53794 0.78475 0.02297 0.0
H190 H 0.53288 0.65152 0.00237 0.0
H191 H 0.58142 0.62786 0.02066 0.0
C192 C 0.92858 0.285 0.44544 0.0
C193 C 0.85454 0.26296 0.46084 0.0
C194 C 0.92233 0.3846 0.46345 0.0
C195 C 0.99718 0.40612 0.45003 0.0
N196 N 1.07702 0.37721 0.4383 0.0
N197 N 0.79298 0.29782 0.49347 0.0
C198 C 1.00188 0.35625 0.44478 0.0
C199 C 0.85505 0.31465 0.47251 0.0
N200 N 0.92803 0.23879 0.42844 0.0
N201 N 0.91395 0.43033 0.46638 0.0
H202 H 0.74552 0.24884 0.50229 0.0
H203 H 0.79373 0.3339 0.50542 0.0
H204 H 0.96227 0.48172 0.46126 0.0
H205 H 0.85788 0.41637 0.47172 0.0
H206 H 0.97758 0.25285 0.41375 0.0
H207 H 0.87527 0.18726 0.42498 0.0
H208 H 0.08652 0.34422 0.43752 0.0
H209 H 0.13128 0.4287 0.43762 0.0
C210 C 0.74825 0.94814 0.78958 0.0
C211 C 0.69197 0.87637 0.78296 0.0
C212 C 0.59983 0.88003 0.74974 0.0
C213 C 0.66011 0.95239 0.75319 0.0
N214 N 0.79731 0.05614 0.77189 0.0
N215 N 0.56979 0.77496 0.75225 0.0
C216 C 0.73587 0.98668 0.77195 0.0
C217 C 0.61913 0.84254 0.76184 0.0
N218 N 0.81213 0.97929 0.8137 0.0
N219 N 0.52305 0.84695 0.73583 0.0
H220 H 0.58188 0.74585 0.76042 0.0
H221 H 0.52094 0.7491 0.73376 0.0
H222 H 0.50653 0.87256 0.72687 0.0
H223 H 0.47354 0.79439 0.7361 0.0
H224 H 0.84989 0.03004 0.82262 0.0
H225 H 0.82297 0.9529 0.8273 0.0
H226 H 0.85715 0.08365 0.7816 0.0
H227 H 0.79067 0.08614 0.75941 0.0
C228 C 0.58255 0.46329 0.18435 0.0
C229 C 0.65544 0.50561 0.2057 0.0
C230 C 0.68706 0.60669 0.18807 0.0
C231 C 0.62683 0.56629 0.16009 0.0
N232 N 0.49579 0.45717 0.14137 0.0
N233 N 0.74011 0.60624 0.24425 0.0
C234 C 0.56565 0.49442 0.1623 0.0
C235 C 0.69348 0.57331 0.21373 0.0
N236 N 0.53682 0.395 0.18225 0.0
N237 N 0.74276 0.67614 0.18834 0.0
H238 H 0.74426 0.58112 0.26303 0.0
H239 H 0.76621 0.65501 0.2525 0.0
H240 H 0.7396 0.70292 0.17054 0.0
H241 H 0.79413 0.70728 0.20561 0.0
H242 H 0.48687 0.36078 0.16462 0.0
H243 H 0.55147 0.37365 0.19845 0.0
H244 H 0.44732 0.40456 0.14223 0.0
H245 H 0.4847 0.48083 0.12502 0.0
C246 C 0.33523 0.79318 0.42873 0.0
C247 C 0.40137 0.81769 0.45265 0.0
C248 C 0.32169 0.69536 0.46364 0.0
C249 C 0.25227 0.67303 0.44335 0.0
N250 N 0.18752 0.70675 0.41635 0.0
N251 N 0.44318 0.78638 0.49983 0.0
C252 C 0.25732 0.72424 0.42961 0.0
C253 C 0.39047 0.76716 0.4722 0.0
N254 N 0.34795 0.83305 0.40252 0.0
N255 N 0.32429 0.64868 0.4737 0.0
H256 H 0.49138 0.83664 0.50871 0.0
H257 H 0.43317 0.7516 0.51668 0.0
H258 H 0.27591 0.59649 0.46831 0.0
H259 H 0.37715 0.66243 0.48477 0.0
H260 H 0.30298 0.81527 0.3831 0.0
H261 H 0.40628 0.87912 0.39647 0.0
H262 H 0.18651 0.74288 0.40841 0.0
H263 H 0.12944 0.65722 0.41711 0.0
C264 C 0.49392 0.11119 0.77675 0.0
C265 C 0.5546 0.16906 0.79955 0.0
C266 C 0.65292 0.15703 0.785 0.0
C267 C 0.59086 0.09707 0.76368 0.0
N268 N 0.44729 1.00886 0.74551 0.0
N269 N 0.68523 0.23824 0.83141 0.0
C270 C 0.50976 0.07168 0.76148 0.0
C271 C 0.63213 0.18925 0.80551 0.0
N272 N 0.42233 0.09541 0.76855 0.0
N273 N 0.73273 0.18514 0.78442 0.0
H274 H 0.67247 0.26336 0.84668 0.0
H275 H 0.73815 0.24946 0.83997 0.0
H276 H 0.75059 0.16332 0.76978 0.0
H277 H 0.78236 0.23287 0.7961 0.0
H278 H 0.38002 0.05881 0.74892 0.0
H279 H 0.40805 0.12259 0.77938 0.0
H280 H 0.38527 0.98437 0.74622 0.0
H281 H 0.45639 0.97825 0.7344 0.0
C282 C 0.71662 0.73891 0.53221 0.0
C283 C 0.65763 0.74435 0.53649 0.0
C284 C 0.56531 0.63595 0.56626 0.0
C285 C 0.62914 0.63569 0.56621 0.0
N286 N 0.77105 0.69293 0.55459 0.0
N287 N 0.52964 0.70284 0.56113 0.0
C288 C 0.70631 0.6887 0.55056 0.0
C289 C 0.58262 0.69396 0.55433 0.0
N290 N 0.78168 0.78094 0.51001 0.0
N291 N 0.48784 0.58022 0.57691 0.0
H292 H 0.54005 0.74457 0.55273 0.0
H293 H 0.47861 0.67161 0.57742 0.0
H294 H 0.47309 0.53681 0.58572 0.0
H295 H 0.4367 0.57462 0.5741 0.0
H296 H 0.82192 0.7747 0.50307 0.0
H297 H 0.79058 0.81786 0.49567 0.0
H298 H 0.83108 0.73462 0.54702 0.0
H299 H 0.76692 0.65802 0.56855 0.0
C300 C 0.93475 0.59205 0.87628 0.0
C301 C 0.85296 0.53648 0.85971 0.0
C302 C 0.91402 0.4801 0.85097 0.0
C303 C 0.99583 0.53585 0.86678 0.0
N304 N 1.07585 0.64575 0.89621 0.0
N305 N 0.78167 0.43308 0.82377 0.0
C306 C 1.00266 0.59177 0.87935 0.0
C307 C 0.84831 0.48232 0.84539 0.0
N308 N 0.94903 0.64735 0.8896 0.0
N309 N 0.8965 0.4217 0.84212 0.0
H310 H 0.7367 0.43387 0.8175 0.0
H311 H 0.77558 0.3963 0.80889 0.0
H312 H 0.94095 0.41876 0.84419 0.0
H313 H 0.83751 0.37559 0.83511 0.0
H314 H 1.0067 0.69394 0.89738 0.0
H315 H 0.90244 0.64751 0.89242 0.0
H316 H 0.08699 0.68506 0.9108 0.0
H317 H 0.12661 0.65033 0.89637 0.0
C318 C 0.30645 0.78373 0.19343 0.0
C319 C 0.30215 0.74362 0.16557 0.0
C320 C 0.44569 0.84806 0.14959 0.0
C321 C 0.44854 0.88856 0.17667 0.0
N322 N 0.36677 0.89634 0.21487 0.0
N323 N 0.35923 0.74678 0.10975 0.0
C324 C 0.37383 0.85661 0.19534 0.0
C325 C 0.36938 0.77858 0.14148 0.0
N326 N 0.24901 0.75251 0.21961 0.0
N327 N 0.51618 0.8742 0.13241 0.0
H328 H 0.30427 0.69744 0.10246 0.0
H329 H 0.40138 0.77237 0.08923 0.0
H330 H 0.57299 0.92342 0.13781 0.0
H331 H 0.51907 0.84506 0.11466 0.0
H332 H 0.25403 0.77878 0.2424 0.0
H333 H 0.20144 0.69977 0.22065 0.0
H334 H 0.31175 0.877 0.22656 0.0
H335 H 0.41319 0.94948 0.21579 0.0
C336 C 0.65075 0.39282 0.51904 0.0
C337 C 0.56869 0.32898 0.51286 0.0
C338 C 0.51326 0.36904 0.54745 0.0
C339 C 0.59529 0.43291 0.55358 0.0
N340 N 0.74109 0.51033 0.54202 0.0
N341 N 0.42115 0.25748 0.51681 0.0
C342 C 0.66386 0.44625 0.53836 0.0
C343 C 0.49966 0.31754 0.5257 0.0
N344 N 0.71593 0.40151 0.50701 0.0
N345 N 0.44867 0.35735 0.56324 0.0
H346 H 0.40854 0.21718 0.5024 0.0
H347 H 0.36805 0.24837 0.52176 0.0
H348 H 0.45544 0.39509 0.57749 0.0
H349 H 0.38868 0.30977 0.56379 0.0
H350 H 0.7775 0.44347 0.51396 0.0
H351 H 0.70831 0.36489 0.49094 0.0
H352 H 0.79277 0.52587 0.52874 0.0
H353 H 0.75303 0.54994 0.55696 0.0
C354 C 0.32473 0.47444 0.8859 0.0
C355 C 0.40069 0.52278 0.86595 0.0
C356 C 0.33375 0.57348 0.85522 0.0
C357 C 0.25482 0.52103 0.8722 0.0
N358 N 0.17753 0.41078 0.896 0.0
N359 N 0.45934 0.61268 0.82518 0.0
C360 C 0.2524 0.46911 0.88509 0.0
C361 C 0.39916 0.57045 0.8491 0.0
N362 N 0.32177 0.4343 0.90837 0.0
N363 N 0.3489 0.62926 0.84544 0.0
H364 H 0.50419 0.61157 0.81859 0.0
H365 H 0.45942 0.64328 0.80904 0.0
H366 H 0.30469 0.63249 0.84824 0.0
H367 H 0.40658 0.67367 0.83739 0.0
H368 H 0.27507 0.40415 0.92676 0.0
H369 H 0.37094 0.43762 0.91201 0.0
H370 H 0.166 0.36743 0.90178 0.0
H371 H 0.1245 0.40302 0.89501 0.0
C372 C 0.79045 0.26286 0.15034 0.0
C373 C 0.87331 0.29267 0.15697 0.0
C374 C 0.81234 0.17619 0.17044 0.0
C375 C 0.73045 0.1498 0.17019 0.0
N376 N 0.64365 0.1725 0.1627 0.0
N377 N 0.95927 0.27475 0.17895 0.0
C378 C 0.72019 0.19437 0.16062 0.0
C379 C 0.88318 0.24823 0.16802 0.0
N380 N 0.77829 0.29903 0.13288 0.0
N381 N 0.82256 0.13187 0.17323 0.0
H382 H 1.01225 0.32643 0.17937 0.0
H383 H 0.96847 0.24621 0.19113 0.0
H384 H 0.77249 0.07946 0.17488 0.0
H385 H 0.8793 0.14595 0.17005 0.0
H386 H 0.72015 0.27837 0.12437 0.0
H387 H 0.82694 0.34699 0.12321 0.0
H388 H 0.63344 0.20474 0.16047 0.0
H389 H 0.59112 0.12293 0.16904 0.0
C390 C 0.12742 0.57287 0.03597 0.0
C391 C 1.06621 0.50886 0.05184 0.0
C392 C 1.03525 0.45087 0.99265 0.0
C393 C 0.1003 0.51462 0.97751 0.0
N394 N 0.21784 0.63516 0.98606 0.0
N395 N 0.97002 0.3863 0.04611 0.0
C396 C 0.14959 0.57514 -0.0003 0.0
C397 C 1.02224 0.44766 0.03034 0.0
N398 N 0.16033 0.6317 0.05465 0.0
N399 N 0.98466 0.39335 0.9708 0.0
H400 H 0.958 0.38166 0.07332 0.0
H401 H 0.94332 0.34031 0.03287 0.0
H402 H 0.99493 0.39311 0.94358 0.0
H403 H 0.92998 0.34675 0.97909 0.0
H404 H 0.1989 0.67922 0.04346 0.0
H405 H 0.14222 0.63262 0.08025 0.0
H406 H 0.26186 0.67945 0.00177 0.0
H407 H 0.23445 0.63928 0.95945 0.0
C408 C 0.64524 0.08402 0.34328 0.0
C409 C 0.64704 0.03885 0.36011 0.0
C410 C 0.63717 0.98963 0.30132 0.0
C411 C 0.62576 0.02947 0.2849 0.0
N412 N 0.59975 0.10313 0.29177 0.0
N413 N 0.63125 0.9408 0.35573 0.0
C414 C 0.62417 0.07337 0.30634 0.0
C415 C 0.63875 0.98912 0.33928 0.0
N416 N 0.66711 0.13895 0.36216 0.0
N417 N 0.65022 0.95468 0.28076 0.0
H418 H 0.63285 0.93915 0.38342 0.0
H419 H 0.61631 0.89901 0.34202 0.0
H420 H 0.65198 0.95539 0.25296 0.0
H421 H 0.66717 0.93041 0.29132 0.0
H422 H 0.67467 0.17726 0.35039 0.0
H423 H 0.68626 0.14987 0.38885 0.0
H424 H 0.58978 0.13015 0.30701 0.0
H425 H 0.58117 0.09499 0.26507 0.0
C426 C 0.5506 0.45098 0.72715 0.0
C427 C 0.59436 0.50979 0.75041 0.0
C428 C 0.65968 0.58097 0.69882 0.0
C429 C 0.60619 0.52224 0.67539 0.0
N430 N 0.48107 0.40215 0.66983 0.0
N431 N 0.66685 0.62873 0.75624 0.0
C432 C 0.5458 0.45725 0.69022 0.0
C433 C 0.64261 0.57451 0.73574 0.0
N434 N 0.51535 0.38947 0.73978 0.0
N435 N 0.72778 0.64233 0.68637 0.0
H436 H 0.64532 0.6229 0.78205 0.0
H437 H 0.69764 0.67612 0.74589 0.0
H438 H 0.74617 0.64838 0.65994 0.0
H439 H 0.77068 0.68497 0.70335 0.0
H440 H 0.48856 0.34676 0.72294 0.0
H441 H 0.52157 0.38318 0.76628 0.0
H442 H 0.43256 0.35525 0.68056 0.0
H443 H 0.47033 0.40555 0.64346 0.0
C444 C 0.55376 0.97676 0.58548 0.0
C445 C 0.61241 0.03951 0.56829 0.0
C446 C 0.6909 0.09405 0.62519 0.0
C447 C 0.62669 0.03372 0.643 0.0
N448 N 0.49091 0.92012 0.64091 0.0
N449 N 0.72995 0.16129 0.57367 0.0
C450 C 0.55661 0.97561 0.62333 0.0
C451 C 0.67977 0.09907 0.58853 0.0
N452 N 0.4964 0.91757 0.56553 0.0
N453 N 0.76303 0.14642 0.64329 0.0
H454 H 0.72244 0.16825 0.54757 0.0
H455 H 0.77412 0.20707 0.58829 0.0
H456 H 0.77292 0.14458 0.67015 0.0
H457 H 0.8155 0.18878 0.63093 0.0
H458 H 0.45832 0.86948 0.57607 0.0
H459 H 0.49207 0.91588 0.53781 0.0
H460 H 0.43417 0.87958 0.62847 0.0
H461 H 0.49042 0.91692 0.66855 0.0
C462 C 0.58707 0.49809 0.97566 0.0
C463 C 0.66195 0.53297 0.95751 0.0
C464 C 0.74 0.57795 0.01395 0.0
C465 C 0.66944 0.55866 0.03056 0.0
N466 N 0.52239 0.49223 0.02989 0.0
N467 N 0.79692 0.57169 0.96003 0.0
C468 C 0.59114 0.51425 0.01249 0.0
C469 C 0.7347 0.56172 0.97699 0.0
N470 N 0.51313 0.44891 0.95797 0.0
N471 N 0.8125 0.61523 0.03307 0.0
H472 H 0.79002 0.55468 0.93356 0.0
H473 H 0.85045 0.58947 0.97281 0.0
H474 H 0.81595 0.62506 0.06057 0.0
H475 H 0.86891 0.63751 0.0218 0.0
H476 H 0.45607 0.41864 0.97028 0.0
H477 H 0.50949 0.43237 0.9318 0.0
H478 H 0.4661 0.46774 0.01711 0.0
H479 H 0.52252 0.50102 0.05724 0.0
C480 C 0.17283 0.53073 0.27702 0.0
C481 C 0.09833 0.50174 0.25889 0.0
C482 C 1.03981 0.49767 0.31582 0.0
C483 C 0.11007 0.51842 0.33428 0.0
N484 N 0.23645 0.54169 0.33254 0.0
N485 N 0.95498 0.44534 0.26181 0.0
C486 C 0.17478 0.5314 0.3149 0.0
C487 C 1.03006 0.48176 0.27849 0.0
N488 N 0.24256 0.55944 0.25819 0.0
N489 N 0.98373 0.49526 0.33368 0.0
H490 H 0.94517 0.43126 0.23473 0.0
H491 H 0.90101 0.4236 0.27542 0.0
H492 H 0.98965 0.50805 0.36088 0.0
H493 H 0.93595 0.48713 0.32086 0.0
H494 H 0.30056 0.58741 0.27027 0.0
H495 H 0.24427 0.56125 0.23046 0.0
H496 H 0.28035 0.54433 0.31951 0.0
H497 H 0.2391 0.54088 0.36024 0.0
loop_
_geom_bond_atom_site_label_1
_geom_bond_atom_site_label_2
_geom_bond_distance
_geom_bond_site_symmetry_2
_ccdc_geom_bond_type
Gd0 C3 2.818 . S
Gd0 O20 2.377 . S
Gd0 O22 2.448 . S
Gd0 O23 2.506 . S
Gd0 O24 2.435 . S
Gd0 O25 2.717 . S
Gd0 O27 2.395 1_455 S
Gd0 O31 2.327 . S
Gd1 C12 2.818 . S
Gd1 O21 2.395 1_655 S
Gd1 O25 2.327 1_655 S
Gd1 O26 2.377 . S
Gd1 O28 2.448 . S
Gd1 O29 2.506 . S
Gd1 O30 2.435 1_655 S
Gd1 O31 2.717 1_655 S
C2 O20 1.240 . S
C2 O21 1.240 . S
C3 Gd0 2.818 . S
C3 C4 1.510 . S
C3 O22 1.249 . S
C3 O23 1.252 . S
C4 C3 1.510 . S
C4 C5 1.404 . S
C4 C6 1.352 . S
C5 C4 1.404 . S
C5 C9 1.389 . S
C5 H32 0.930 . S
C6 C4 1.352 . S
C6 C8 1.374 . S
C6 H33 0.931 . S
C7 C8 1.359 . S
C7 C9 1.364 . S
C8 C6 1.374 . S
C8 C7 1.359 . S
C8 H34 0.931 . S
C9 C5 1.389 . S
C9 C7 1.364 . S
C9 H35 0.931 . S
C10 O24 1.256 . S
C10 O25 1.257 . S
C11 O26 1.240 . S
C11 O27 1.240 . S
C12 Gd1 2.818 . S
C12 C13 1.510 . S
C12 O28 1.249 . S
C12 O29 1.252 . S
C13 C12 1.510 . S
C13 C14 1.404 . S
C13 C15 1.352 . S
C14 C13 1.404 . S
C14 C18 1.389 . S
C14 H36 0.930 . S
C15 C13 1.352 . S
C15 C17 1.374 . S
C15 H37 0.931 . S
C16 C17 1.359 . S
C16 C18 1.364 . S
C17 C15 1.374 . S
C17 C16 1.359 . S
C17 H38 0.931 . S
C18 C14 1.389 . S
C18 C16 1.364 . S
C18 H39 0.931 . S
C19 O30 1.256 . S
C19 O31 1.257 . S
O20 Gd0 2.377 . S
O20 C2 1.240 . S
O21 Gd1 2.395 1_455 S
O21 C2 1.240 . S
O22 Gd0 2.448 . S
O22 C3 1.249 . S
O23 Gd0 2.506 . S
O23 C3 1.252 . S
O24 Gd0 2.435 . S
O24 C10 1.256 . S
O25 Gd0 2.717 . S
O25 Gd1 2.327 1_455 S
O25 C10 1.257 . S
O26 Gd1 2.377 . S
O26 C11 1.240 . S
O27 Gd0 2.395 1_655 S
O27 C11 1.240 . S
O28 Gd1 2.448 . S
O28 C12 1.249 . S
O29 Gd1 2.506 . S
O29 C12 1.252 . S
O30 Gd1 2.435 1_455 S
O30 C19 1.256 . S
O31 Gd0 2.327 . S
O31 Gd1 2.717 1_455 S
O31 C19 1.257 . S
H32 C5 0.930 . S
H33 C6 0.931 . S
H34 C8 0.931 . S
H35 C9 0.931 . S
H36 C14 0.930 . S
H37 C15 0.931 . S
H38 C17 0.931 . S
H39 C18 0.931 . S
Gd40 C43 2.818 . S
Gd40 O60 2.377 . S
Gd40 O62 2.448 . S
Gd40 O63 2.506 . S
Gd40 O64 2.435 . S
Gd40 O65 2.717 1_565 S
Gd40 O67 2.395 1_565 S
Gd40 O71 2.327 1_565 S
Gd41 C52 2.818 . S
Gd41 O61 2.395 1_545 S
Gd41 O65 2.327 . S
Gd41 O66 2.377 . S
Gd41 O68 2.448 . S
Gd41 O69 2.506 . S
Gd41 O70 2.435 . S
Gd41 O71 2.717 . S
C42 O60 1.240 . S
C42 O61 1.240 . S
C43 Gd40 2.818 . S
C43 C44 1.510 . S
C43 O62 1.249 . S
C43 O63 1.252 . S
C44 C43 1.510 . S
C44 C45 1.404 . S
C44 C46 1.352 . S
C45 C44 1.404 . S
C45 C49 1.389 . S
C45 H72 0.930 . S
C46 C44 1.352 . S
C46 C48 1.374 . S
C46 H73 0.931 . S
C47 C48 1.359 . S
C47 C49 1.364 . S
C48 C46 1.374 . S
C48 C47 1.359 . S
C48 H74 0.931 . S
C49 C45 1.389 . S
C49 C47 1.364 . S
C49 H75 0.931 . S
C50 O64 1.256 1_545 S
C50 O65 1.257 . S
C51 O66 1.240 . S
C51 O67 1.240 . S
C52 Gd41 2.818 . S
C52 C53 1.510 . S
C52 O68 1.249 . S
C52 O69 1.252 . S
C53 C52 1.510 . S
C53 C54 1.404 . S
C53 C55 1.352 . S
C54 C53 1.404 . S
C54 C58 1.389 . S
C54 H76 0.930 . S
C55 C53 1.352 . S
C55 C57 1.374 . S
C55 H77 0.931 . S
C56 C57 1.359 . S
C56 C58 1.364 . S
C57 C55 1.374 . S
C57 C56 1.359 . S
C57 H78 0.931 . S
C58 C54 1.389 . S
C58 C56 1.364 . S
C58 H79 0.931 . S
C59 O70 1.256 . S
C59 O71 1.257 . S
O60 Gd40 2.377 . S
O60 C42 1.240 . S
O61 Gd41 2.395 1_565 S
O61 C42 1.240 . S
O62 Gd40 2.448 . S
O62 C43 1.249 . S
O63 Gd40 2.506 . S
O63 C43 1.252 . S
O64 Gd40 2.435 . S
O64 C50 1.256 1_565 S
O65 Gd40 2.717 1_545 S
O65 Gd41 2.327 . S
O65 C50 1.257 . S
O66 Gd41 2.377 . S
O66 C51 1.240 . S
O67 Gd40 2.395 1_545 S
O67 C51 1.240 . S
O68 Gd41 2.448 . S
O68 C52 1.249 . S
O69 Gd41 2.506 . S
O69 C52 1.252 . S
O70 Gd41 2.435 . S
O70 C59 1.256 . S
O71 Gd40 2.327 1_545 S
O71 Gd41 2.717 . S
O71 C59 1.257 . S
H72 C45 0.930 . S
H73 C46 0.931 . S
H74 C48 0.931 . S
H75 C49 0.931 . S
H76 C54 0.930 . S
H77 C55 0.931 . S
H78 C57 0.931 . S
H79 C58 0.931 . S
Gd80 C83 2.818 . S
Gd80 O100 2.377 . S
Gd80 O102 2.448 . S
Gd80 O103 2.506 . S
Gd80 O104 2.435 . S
Gd80 O105 2.717 . S
Gd80 O107 2.395 . S
Gd80 O111 2.327 . S
Gd81 C92 2.818 . S
Gd81 O101 2.395 . S
Gd81 O105 2.327 . S
Gd81 O106 2.377 . S
Gd81 O108 2.448 . S
Gd81 O109 2.506 . S
Gd81 O110 2.435 . S
Gd81 O111 2.717 . S
C82 O100 1.240 . S
C82 O101 1.240 . S
C83 Gd80 2.818 . S
C83 C84 1.510 . S
C83 O102 1.249 . S
C83 O103 1.252 . S
C84 C83 1.510 . S
C84 C85 1.404 . S
C84 C86 1.352 . S
C85 C84 1.404 . S
C85 C89 1.389 . S
C85 H112 0.930 . S
C86 C84 1.352 . S
C86 C88 1.374 . S
C86 H113 0.931 . S
C87 C88 1.359 . S
C87 C89 1.364 . S
C88 C86 1.374 . S
C88 C87 1.359 . S
C88 H114 0.931 . S
C89 C85 1.389 . S
C89 C87 1.364 . S
C89 H115 0.931 . S
C90 O104 1.256 . S
C90 O105 1.257 . S
C91 O106 1.240 . S
C91 O107 1.240 . S
C92 Gd81 2.818 . S
C92 C93 1.510 . S
C92 O108 1.249 . S
C92 O109 1.252 . S
C93 C92 1.510 . S
C93 C94 1.404 . S
C93 C95 1.352 . S
C94 C93 1.404 . S
C94 C98 1.389 . S
C94 H116 0.930 . S
C95 C93 1.352 . S
C95 C97 1.374 . S
C95 H117 0.931 . S
C96 C97 1.359 . S
C96 C98 1.364 . S
C97 C95 1.374 . S
C97 C96 1.359 . S
C97 H118 0.931 . S
C98 C94 1.389 . S
C98 C96 1.364 . S
C98 H119 0.931 . S
C99 O110 1.256 . S
C99 O111 1.257 . S
O100 Gd80 2.377 . S
O100 C82 1.240 . S
O101 Gd81 2.395 . S
O101 C82 1.240 . S
O102 Gd80 2.448 . S
O102 C83 1.249 . S
O103 Gd80 2.506 . S
O103 C83 1.252 . S
O104 Gd80 2.435 . S
O104 C90 1.256 . S
O105 Gd80 2.717 . S
O105 Gd81 2.327 . S
O105 C90 1.257 . S
O106 Gd81 2.377 . S
O106 C91 1.240 . S
O107 Gd80 2.395 . S
O107 C91 1.240 . S
O108 Gd81 2.448 . S
O108 C92 1.249 . S
O109 Gd81 2.506 . S
O109 C92 1.252 . S
O110 Gd81 2.435 . S
O110 C99 1.256 . S
O111 Gd80 2.327 . S
O111 Gd81 2.717 . S
O111 C99 1.257 . S
H112 C85 0.930 . S
H113 C86 0.931 . S
H114 C88 0.931 . S
H115 C89 0.931 . S
H116 C94 0.930 . S
H117 C95 0.931 . S
H118 C97 0.931 . S
H119 C98 0.931 . S
H120 C123 0.931 . S
H121 C126 0.928 . S
H122 C128 0.930 . S
C123 H120 0.931 . S
C123 C124 1.413 . S
C123 C125 1.360 1_565 S
C124 C123 1.413 . S
C124 C128 1.429 1_565 S
C125 C123 1.360 1_545 S
C125 C126 1.372 . S
C126 H121 0.928 . S
C126 C125 1.372 . S
C126 C127 1.404 . S
C127 C126 1.404 . S
C127 C128 1.391 . S
C128 H122 0.930 . S
C128 C124 1.429 1_545 S
C128 C127 1.391 . S
H129 C132 0.931 . S
H130 C135 0.928 . S
H131 C137 0.930 . S
C132 H129 0.931 . S
C132 C133 1.413 . S
C132 C134 1.360 . S
C133 C132 1.413 . S
C133 C137 1.429 . S
C134 C132 1.360 . S
C134 C135 1.372 . S
C135 H130 0.928 . S
C135 C134 1.372 . S
C135 C136 1.404 . S
C136 C135 1.404 . S
C136 C137 1.391 . S
C137 H131 0.930 . S
C137 C133 1.429 . S
C137 C136 1.391 . S
H138 C141 0.931 1_655 S
H139 C144 0.928 . S
H140 C146 0.930 . S
C141 H138 0.931 1_455 S
C141 C142 1.413 . S
C141 C143 1.360 . S
C142 C141 1.413 . S
C142 C146 1.429 . S
C143 C141 1.360 . S
C143 C144 1.372 . S
C144 H139 0.928 . S
C144 C143 1.372 . S
C144 C145 1.404 . S
C145 C144 1.404 . S
C145 C146 1.391 . S
C146 H140 0.930 . S
C146 C142 1.429 . S
C146 C145 1.391 . S
H147 C150 0.931 . S
H148 C153 0.928 . S
H149 C155 0.930 . S
C150 H147 0.931 . S
C150 C151 1.413 . S
C150 C152 1.358 1_655 S
C151 C150 1.413 . S
C151 C155 1.429 1_655 S
C152 C150 1.358 1_455 S
C152 C153 1.374 . S
C153 H148 0.928 . S
C153 C152 1.374 . S
C153 C154 1.404 . S
C154 C153 1.404 . S
C154 C155 1.391 . S
C155 H149 0.930 . S
C155 C151 1.429 1_455 S
C155 C154 1.391 . S
H156 C159 0.931 . S
H157 C162 0.928 . S
H158 C164 0.930 . S
C159 H156 0.931 . S
C159 C160 1.413 . S
C159 C161 1.360 1_545 S
C160 C159 1.413 . S
C160 C164 1.429 . S
C161 C159 1.360 1_565 S
C161 C162 1.372 . S
C162 H157 0.928 . S
C162 C161 1.372 . S
C162 C163 1.404 . S
C163 C162 1.404 . S
C163 C164 1.391 1_565 S
C164 H158 0.930 . S
C164 C160 1.429 . S
C164 C163 1.391 1_545 S
H165 C168 0.931 . S
H166 C171 0.928 . S
H167 C173 0.930 . S
C168 H165 0.931 . S
C168 C169 1.413 . S
C168 C170 1.360 . S
C169 C168 1.413 . S
C169 C173 1.429 . S
C170 C168 1.360 . S
C170 C171 1.372 . S
C171 H166 0.928 . S
C171 C170 1.372 . S
C171 C172 1.404 . S
C172 C171 1.404 . S
C172 C173 1.391 . S
C173 H167 0.930 . S
C173 C169 1.429 . S
C173 C172 1.391 . S
C174 C175 1.363 . S
C174 C180 1.379 . S
C174 N182 1.356 . S
C175 C174 1.363 . S
C175 C181 1.363 . S
C176 C177 1.363 . S
C176 C181 1.379 . S
C176 N183 1.356 . S
C177 C176 1.363 . S
C177 C180 1.363 . S
N178 C180 1.356 . S
N178 H190 0.984 . S
N178 H191 0.985 . S
N179 C181 1.356 . S
N179 H184 0.984 . S
N179 H185 0.985 . S
C180 C174 1.379 . S
C180 C177 1.363 . S
C180 N178 1.356 . S
C181 C175 1.363 . S
C181 C176 1.379 . S
C181 N179 1.356 . S
N182 C174 1.356 . S
N182 H188 0.984 . S
N182 H189 0.984 . S
N183 C176 1.356 . S
N183 H186 0.984 . S
N183 H187 0.985 . S
H184 N179 0.984 . S
H185 N179 0.985 . S
H186 N183 0.984 . S
H187 N183 0.985 . S
H188 N182 0.984 . S
H189 N182 0.984 . S
H190 N178 0.984 . S
H191 N178 0.985 . S
C192 C193 1.363 . S
C192 C198 1.379 . S
C192 N200 1.356 . S
C193 C192 1.363 . S
C193 C199 1.363 . S
C194 C195 1.363 . S
C194 C199 1.379 . S
C194 N201 1.356 . S
C195 C194 1.363 . S
C195 C198 1.363 . S
N196 C198 1.356 . S
N196 H208 0.984 . S
N196 H209 0.985 . S
N197 C199 1.356 . S
N197 H202 0.984 . S
N197 H203 0.985 . S
C198 C192 1.379 . S
C198 C195 1.363 . S
C198 N196 1.356 . S
C199 C193 1.363 . S
C199 C194 1.379 . S
C199 N197 1.356 . S
N200 C192 1.356 . S
N200 H206 0.984 . S
N200 H207 0.984 . S
N201 C194 1.356 . S
N201 H204 0.984 . S
N201 H205 0.985 . S
H202 N197 0.984 . S
H203 N197 0.985 . S
H204 N201 0.984 . S
H205 N201 0.985 . S
H206 N200 0.984 . S
H207 N200 0.984 . S
H208 N196 0.984 . S
H209 N196 0.985 . S
C210 C211 1.363 . S
C210 C216 1.379 . S
C210 N218 1.356 1_565 S
C211 C210 1.363 . S
C211 C217 1.363 . S
C212 C213 1.363 . S
C212 C217 1.379 . S
C212 N219 1.356 . S
C213 C212 1.363 . S
C213 C216 1.363 . S
N214 C216 1.356 1_545 S
N214 H226 0.984 . S
N214 H227 0.985 . S
N215 C217 1.356 . S
N215 H220 0.984 . S
N215 H221 0.985 . S
C216 C210 1.379 . S
C216 C213 1.363 . S
C216 N214 1.356 1_565 S
C217 C211 1.363 . S
C217 C212 1.379 . S
C217 N215 1.356 . S
N218 C210 1.356 1_545 S
N218 H224 0.984 . S
N218 H225 0.984 1_545 S
N219 C212 1.356 . S
N219 H222 0.984 . S
N219 H223 0.985 . S
H220 N215 0.984 . S
H221 N215 0.985 . S
H222 N219 0.984 . S
H223 N219 0.985 . S
H224 N218 0.984 . S
H225 N218 0.984 1_565 S
H226 N214 0.984 . S
H227 N214 0.985 . S
C228 C229 1.363 . S
C228 C234 1.379 . S
C228 N236 1.356 . S
C229 C228 1.363 . S
C229 C235 1.363 . S
C230 C231 1.363 . S
C230 C235 1.379 . S
C230 N237 1.356 . S
C231 C230 1.363 . S
C231 C234 1.363 . S
N232 C234 1.356 . S
N232 H244 0.984 . S
N232 H245 0.985 . S
N233 C235 1.356 . S
N233 H238 0.984 . S
N233 H239 0.985 . S
C234 C228 1.379 . S
C234 C231 1.363 . S
C234 N232 1.356 . S
C235 C229 1.363 . S
C235 C230 1.379 . S
C235 N233 1.356 . S
N236 C228 1.356 . S
N236 H242 0.984 . S
N236 H243 0.984 . S
N237 C230 1.356 . S
N237 H240 0.984 . S
N237 H241 0.985 . S
H238 N233 0.984 . S
H239 N233 0.985 . S
H240 N237 0.984 . S
H241 N237 0.985 . S
H242 N236 0.984 . S
H243 N236 0.984 . S
H244 N232 0.984 . S
H245 N232 0.985 . S
C246 C247 1.363 . S
C246 C252 1.379 . S
C246 N254 1.356 . S
C247 C246 1.363 . S
C247 C253 1.363 . S
C248 C249 1.363 . S
C248 C253 1.379 . S
C248 N255 1.356 . S
C249 C248 1.363 . S
C249 C252 1.363 . S
N250 C252 1.356 . S
N250 H262 0.984 . S
N250 H263 0.985 . S
N251 C253 1.356 . S
N251 H256 0.984 . S
N251 H257 0.985 . S
C252 C246 1.379 . S
C252 C249 1.363 . S
C252 N250 1.356 . S
C253 C247 1.363 . S
C253 C248 1.379 . S
C253 N251 1.356 . S
N254 C246 1.356 . S
N254 H260 0.984 . S
N254 H261 0.984 . S
N255 C248 1.356 . S
N255 H258 0.984 . S
N255 H259 0.985 . S
H256 N251 0.984 . S
H257 N251 0.985 . S
H258 N255 0.984 . S
H259 N255 0.985 . S
H260 N254 0.984 . S
H261 N254 0.984 . S
H262 N250 0.984 . S
H263 N250 0.985 . S
C264 C265 1.363 . S
C264 C270 1.379 . S
C264 N272 1.356 . S
C265 C264 1.363 . S
C265 C271 1.363 . S
C266 C267 1.363 . S
C266 C271 1.379 . S
C266 N273 1.356 . S
C267 C266 1.363 . S
C267 C270 1.363 . S
N268 C270 1.356 . S
N268 H280 0.984 . S
N268 H281 0.985 . S
N269 C271 1.356 . S
N269 H274 0.984 . S
N269 H275 0.985 . S
C270 C264 1.379 . S
C270 C267 1.363 . S
C270 N268 1.356 . S
C271 C265 1.363 . S
C271 C266 1.379 . S
C271 N269 1.356 . S
N272 C264 1.356 . S
N272 H278 0.984 . S
N272 H279 0.984 . S
N273 C266 1.356 . S
N273 H276 0.984 . S
N273 H277 0.985 . S
H274 N269 0.984 . S
H275 N269 0.985 . S
H276 N273 0.984 . S
H277 N273 0.985 . S
H278 N272 0.984 . S
H279 N272 0.984 . S
H280 N268 0.984 . S
H281 N268 0.985 . S
C282 C283 1.363 . S
C282 C288 1.379 . S
C282 N290 1.356 . S
C283 C282 1.363 . S
C283 C289 1.363 . S
C284 C285 1.363 . S
C284 C289 1.379 . S
C284 N291 1.356 . S
C285 C284 1.363 . S
C285 C288 1.363 . S
N286 C288 1.356 . S
N286 H298 0.984 . S
N286 H299 0.985 . S
N287 C289 1.356 . S
N287 H292 0.984 . S
N287 H293 0.985 . S
C288 C282 1.379 . S
C288 C285 1.363 . S
C288 N286 1.356 . S
C289 C283 1.363 . S
C289 C284 1.379 . S
C289 N287 1.356 . S
N290 C282 1.356 . S
N290 H296 0.984 . S
N290 H297 0.984 . S
N291 C284 1.356 . S
N291 H294 0.984 . S
N291 H295 0.985 . S
H292 N287 0.984 . S
H293 N287 0.985 . S
H294 N291 0.984 . S
H295 N291 0.985 . S
H296 N290 0.984 . S
H297 N290 0.984 . S
H298 N286 0.984 . S
H299 N286 0.985 . S
C300 C301 1.363 . S
C300 C306 1.379 . S
C300 N308 1.356 . S
C301 C300 1.363 . S
C301 C307 1.363 . S
C302 C303 1.363 . S
C302 C307 1.379 . S
C302 N309 1.356 . S
C303 C302 1.363 . S
C303 C306 1.363 . S
N304 C306 1.356 . S
N304 H316 0.984 1_655 S
N304 H317 0.985 1_655 S
N305 C307 1.356 . S
N305 H310 0.984 . S
N305 H311 0.985 . S
C306 C300 1.379 . S
C306 C303 1.363 . S
C306 N304 1.356 . S
C307 C301 1.363 . S
C307 C302 1.379 . S
C307 N305 1.356 . S
N308 C300 1.356 . S
N308 H314 0.984 . S
N308 H315 0.984 . S
N309 C302 1.356 . S
N309 H312 0.984 . S
N309 H313 0.985 . S
H310 N305 0.984 . S
H311 N305 0.985 . S
H312 N309 0.984 . S
H313 N309 0.985 . S
H314 N308 0.984 . S
H315 N308 0.984 . S
H316 N304 0.984 1_455 S
H317 N304 0.985 1_455 S
C318 C319 1.363 . S
C318 C324 1.379 . S
C318 N326 1.356 . S
C319 C318 1.363 . S
C319 C325 1.363 . S
C320 C321 1.363 . S
C320 C325 1.379 . S
C320 N327 1.356 . S
C321 C320 1.363 . S
C321 C324 1.363 . S
N322 C324 1.356 . S
N322 H334 0.984 . S
N322 H335 0.985 . S
N323 C325 1.356 . S
N323 H328 0.984 . S
N323 H329 0.985 . S
C324 C318 1.379 . S
C324 C321 1.363 . S
C324 N322 1.356 . S
C325 C319 1.363 . S
C325 C320 1.379 . S
C325 N323 1.356 . S
N326 C318 1.356 . S
N326 H332 0.984 . S
N326 H333 0.984 . S
N327 C320 1.356 . S
N327 H330 0.984 . S
N327 H331 0.985 . S
H328 N323 0.984 . S
H329 N323 0.985 . S
H330 N327 0.984 . S
H331 N327 0.985 . S
H332 N326 0.984 . S
H333 N326 0.984 . S
H334 N322 0.984 . S
H335 N322 0.985 . S
C336 C337 1.363 . S
C336 C342 1.379 . S
C336 N344 1.356 . S
C337 C336 1.363 . S
C337 C343 1.363 . S
C338 C339 1.363 . S
C338 C343 1.379 . S
C338 N345 1.356 . S
C339 C338 1.363 . S
C339 C342 1.363 . S
N340 C342 1.356 . S
N340 H352 0.984 . S
N340 H353 0.985 . S
N341 C343 1.356 . S
N341 H346 0.984 . S
N341 H347 0.985 . S
C342 C336 1.379 . S
C342 C339 1.363 . S
C342 N340 1.356 . S
C343 C337 1.363 . S
C343 C338 1.379 . S
C343 N341 1.356 . S
N344 C336 1.356 . S
N344 H350 0.984 . S
N344 H351 0.984 . S
N345 C338 1.356 . S
N345 H348 0.984 . S
N345 H349 0.985 . S
H346 N341 0.984 . S
H347 N341 0.985 . S
H348 N345 0.984 . S
H349 N345 0.985 . S
H350 N344 0.984 . S
H351 N344 0.984 . S
H352 N340 0.984 . S
H353 N340 0.985 . S
C354 C355 1.363 . S
C354 C360 1.379 . S
C354 N362 1.356 . S
C355 C354 1.363 . S
C355 C361 1.363 . S
C356 C357 1.363 . S
C356 C361 1.379 . S
C356 N363 1.356 . S
C357 C356 1.363 . S
C357 C360 1.363 . S
N358 C360 1.356 . S
N358 H370 0.984 . S
N358 H371 0.985 . S
N359 C361 1.356 . S
N359 H364 0.984 . S
N359 H365 0.985 . S
C360 C354 1.379 . S
C360 C357 1.363 . S
C360 N358 1.356 . S
C361 C355 1.363 . S
C361 C356 1.379 . S
C361 N359 1.356 . S
N362 C354 1.356 . S
N362 H368 0.984 . S
N362 H369 0.984 . S
N363 C356 1.356 . S
N363 H366 0.984 . S
N363 H367 0.985 . S
H364 N359 0.984 . S
H365 N359 0.985 . S
H366 N363 0.984 . S
H367 N363 0.985 . S
H368 N362 0.984 . S
H369 N362 0.984 . S
H370 N358 0.984 . S
H371 N358 0.985 . S
C372 C373 1.363 . S
C372 C378 1.379 . S
C372 N380 1.356 . S
C373 C372 1.363 . S
C373 C379 1.363 . S
C374 C375 1.363 . S
C374 C379 1.379 . S
C374 N381 1.356 . S
C375 C374 1.363 . S
C375 C378 1.363 . S
N376 C378 1.356 . S
N376 H388 0.984 . S
N376 H389 0.985 . S
N377 C379 1.356 . S
N377 H382 0.984 . S
N377 H383 0.985 . S
C378 C372 1.379 . S
C378 C375 1.363 . S
C378 N376 1.356 . S
C379 C373 1.363 . S
C379 C374 1.379 . S
C379 N377 1.356 . S
N380 C372 1.356 . S
N380 H386 0.984 . S
N380 H387 0.984 . S
N381 C374 1.356 . S
N381 H384 0.984 . S
N381 H385 0.985 . S
H382 N377 0.984 . S
H383 N377 0.985 . S
H384 N381 0.984 . S
H385 N381 0.985 . S
H386 N380 0.984 . S
H387 N380 0.984 . S
H388 N376 0.984 . S
H389 N376 0.985 . S
C390 C391 1.363 . S
C390 C396 1.379 . S
C390 N398 1.356 . S
C391 C390 1.363 . S
C391 C397 1.363 . S
C392 C393 1.363 1_554 S
C392 C397 1.379 . S
C392 N399 1.356 1_554 S
C393 C392 1.363 1_556 S
C393 C396 1.363 1_556 S
N394 C396 1.356 1_556 S
N394 H406 0.984 . S
N394 H407 0.985 . S
N395 C397 1.356 . S
N395 H400 0.984 . S
N395 H401 0.985 . S
C396 C390 1.379 . S
C396 C393 1.363 1_554 S
C396 N394 1.356 1_554 S
C397 C391 1.363 . S
C397 C392 1.379 . S
C397 N395 1.356 . S
N398 C390 1.356 . S
N398 H404 0.984 . S
N398 H405 0.984 . S
N399 C392 1.356 1_556 S
N399 H402 0.984 . S
N399 H403 0.985 . S
H400 N395 0.984 . S
H401 N395 0.985 . S
H402 N399 0.984 . S
H403 N399 0.985 . S
H404 N398 0.984 . S
H405 N398 0.984 . S
H406 N394 0.984 . S
H407 N394 0.985 . S
C408 C409 1.363 . S
C408 C414 1.379 . S
C408 N416 1.356 . S
C409 C408 1.363 . S
C409 C415 1.363 1_545 S
C410 C411 1.363 1_565 S
C410 C415 1.379 . S
C410 N417 1.356 . S
C411 C410 1.363 1_545 S
C411 C414 1.363 . S
N412 C414 1.356 . S
N412 H424 0.984 . S
N412 H425 0.985 . S
N413 C415 1.356 . S
N413 H418 0.984 . S
N413 H419 0.985 . S
C414 C408 1.379 . S
C414 C411 1.363 . S
C414 N412 1.356 . S
C415 C409 1.363 1_565 S
C415 C410 1.379 . S
C415 N413 1.356 . S
N416 C408 1.356 . S
N416 H422 0.984 . S
N416 H423 0.984 . S
N417 C410 1.356 . S
N417 H420 0.984 . S
N417 H421 0.985 . S
H418 N413 0.984 . S
H419 N413 0.985 . S
H420 N417 0.984 . S
H421 N417 0.985 . S
H422 N416 0.984 . S
H423 N416 0.984 . S
H424 N412 0.984 . S
H425 N412 0.985 . S
C426 C427 1.363 . S
C426 C432 1.379 . S
C426 N434 1.356 . S
C427 C426 1.363 . S
C427 C433 1.363 . S
C428 C429 1.363 . S
C428 C433 1.379 . S
C428 N435 1.356 . S
C429 C428 1.363 . S
C429 C432 1.363 . S
N430 C432 1.356 . S
N430 H442 0.984 . S
N430 H443 0.985 . S
N431 C433 1.356 . S
N431 H436 0.984 . S
N431 H437 0.985 . S
C432 C426 1.379 . S
C432 C429 1.363 . S
C432 N430 1.356 . S
C433 C427 1.363 . S
C433 C428 1.379 . S
C433 N431 1.356 . S
N434 C426 1.356 . S
N434 H440 0.984 . S
N434 H441 0.984 . S
N435 C428 1.356 . S
N435 H438 0.984 . S
N435 H439 0.985 . S
H436 N431 0.984 . S
H437 N431 0.985 . S
H438 N435 0.984 . S
H439 N435 0.985 . S
H440 N434 0.984 . S
H441 N434 0.984 . S
H442 N430 0.984 . S
H443 N430 0.985 . S
C444 C445 1.363 1_565 S
C444 C450 1.379 . S
C444 N452 1.356 . S
C445 C444 1.363 1_545 S
C445 C451 1.363 . S
C446 C447 1.363 1_545 S
C446 C451 1.379 . S
C446 N453 1.356 . S
C447 C446 1.363 1_565 S
C447 C450 1.363 . S
N448 C450 1.356 . S
N448 H460 0.984 . S
N448 H461 0.985 . S
N449 C451 1.356 . S
N449 H454 0.984 . S
N449 H455 0.985 . S
C450 C444 1.379 . S
C450 C447 1.363 . S
C450 N448 1.356 . S
C451 C445 1.363 . S
C451 C446 1.379 . S
C451 N449 1.356 . S
N452 C444 1.356 . S
N452 H458 0.984 . S
N452 H459 0.984 . S
N453 C446 1.356 . S
N453 H456 0.984 . S
N453 H457 0.985 . S
H454 N449 0.984 . S
H455 N449 0.985 . S
H456 N453 0.984 . S
H457 N453 0.985 . S
H458 N452 0.984 . S
H459 N452 0.984 . S
H460 N448 0.984 . S
H461 N448 0.985 . S
C462 C463 1.363 . S
C462 C468 1.379 . S
C462 N470 1.356 . S
C463 C462 1.363 . S
C463 C469 1.363 . S
C464 C465 1.363 1_556 S
C464 C469 1.379 . S
C464 N471 1.356 1_556 S
C465 C464 1.363 1_554 S
C465 C468 1.363 1_554 S
N466 C468 1.356 . S
N466 H478 0.984 . S
N466 H479 0.985 1_556 S
N467 C469 1.356 . S
N467 H472 0.984 . S
N467 H473 0.985 . S
C468 C462 1.379 . S
C468 C465 1.363 1_556 S
C468 N466 1.356 . S
C469 C463 1.363 . S
C469 C464 1.379 . S
C469 N467 1.356 . S
N470 C462 1.356 . S
N470 H476 0.984 . S
N470 H477 0.984 . S
N471 C464 1.356 1_554 S
N471 H474 0.984 . S
N471 H475 0.985 . S
H472 N467 0.984 . S
H473 N467 0.985 . S
H474 N471 0.984 . S
H475 N471 0.985 . S
H476 N470 0.984 . S
H477 N470 0.984 . S
H478 N466 0.984 . S
H479 N466 0.985 1_554 S
C480 C481 1.363 . S
C480 C486 1.379 . S
C480 N488 1.356 . S
C481 C480 1.363 . S
C481 C487 1.363 1_455 S
C482 C483 1.363 1_655 S
C482 C487 1.379 . S
C482 N489 1.356 . S
C483 C482 1.363 1_455 S
C483 C486 1.363 . S
N484 C486 1.356 . S
N484 H496 0.984 . S
N484 H497 0.985 . S
N485 C487 1.356 . S
N485 H490 0.984 . S
N485 H491 0.985 . S
C486 C480 1.379 . S
C486 C483 1.363 . S
C486 N484 1.356 . S
C487 C481 1.363 1_655 S
C487 C482 1.379 . S
C487 N485 1.356 . S
N488 C480 1.356 . S
N488 H494 0.984 . S
N488 H495 0.984 . S
N489 C482 1.356 . S
N489 H492 0.984 . S
N489 H493 0.985 . S
H490 N485 0.984 . S
H491 N485 0.985 . S
H492 N489 0.984 . S
H493 N489 0.985 . S
H494 N488 0.984 . S
H495 N488 0.984 . S
H496 N484 0.984 . S
H497 N484 0.985 . S
C175 C7 1.252 . S
C177 C169 1.462 . S
C193 C51 1.869 . S
C195 C151 1.842 . S
C211 C87 1.640 . S
C213 C163 1.791 . S
C229 C16 1.006 . S
C231 C172 1.158 . S
C249 C154 1.864 . S
C247 C42 1.904 . S
C267 C160 1.601 . S
C265 C96 1.520 . S
C283 C47 1.444 . S
C285 C133 1.550 . S
C301 C91 3.037 . S
C303 C142 2.997 1_655 S
C319 C2 1.947 . S
C321 C124 1.948 . S
C339 C136 1.683 . S
C337 C56 1.566 . S
C357 C145 2.972 . S
C355 C82 2.973 . S
C373 C11 1.869 . S
C375 C127 1.857 . S
C393 C143 1.808 . S
C391 C19 1.739 . S
C409 C50 1.294 . S
C411 C125 1.338 . S
C427 C99 1.435 . S
C429 C134 1.502 . S
C447 C161 1.462 . S
C445 C59 1.421 . S
C465 C170 1.038 . S
C463 C90 1.051 . S
C481 C10 1.280 . S
C483 C152 1.312 . S
