# Generated by pormake.
# Topology cml, (3,6)-cn, num edge types: 1
# Building blocks:
#     Node 0, Type 0, BuildingBlock: VETTIZ_charged_linker_0, # of connection points: 3
#     Node 1, Type 0, BuildingBlock: VETTIZ_charged_linker_0, # of connection points: 3
#     Node 2, Type 0, BuildingBlock: VETTIZ_charged_linker_0, # of connection points: 3
#     Node 3, Type 0, BuildingBlock: VETTIZ_charged_linker_0, # of connection points: 3
#     Node 4, Type 0, BuildingBlock: VETTIZ_charged_linker_0, # of connection points: 3
#     Node 5, Type 0, BuildingBlock: VETTIZ_charged_linker_0, # of connection points: 3
#     Node 6, Type 0, BuildingBlock: VETTIZ_charged_linker_0, # of connection points: 3
#     Node 7, Type 0, BuildingBlock: VETTIZ_charged_linker_0, # of connection points: 3
#     Node 8, Type 1, BuildingBlock: OJICUG_clean_sbu_0, # of connection points: 6
#     Node 9, Type 1, BuildingBlock: OJICUG_clean_sbu_0, # of connection points: 6
#     Node 10, Type 1, BuildingBlock: OJICUG_clean_sbu_0, # of connection points: 6
#     Node 11, Type 1, BuildingBlock: OJICUG_clean_sbu_0, # of connection points: 6
#     Edge 12, Type (0, 1), BuildingBlock: ZUJKAS_clean_linker_0, # of connection points: 2
#     Edge 13, Type (0, 1), BuildingBlock: ZUJKAS_clean_linker_0, # of connection points: 2
#     Edge 14, Type (0, 1), BuildingBlock: ZUJKAS_clean_linker_0, # of connection points: 2
#     Edge 15, Type (0, 1), BuildingBlock: ZUJKAS_clean_linker_0, # of connection points: 2
#     Edge 16, Type (0, 1), BuildingBlock: ZUJKAS_clean_linker_0, # of connection points: 2
#     Edge 17, Type (0, 1), BuildingBlock: ZUJKAS_clean_linker_0, # of connection points: 2
#     Edge 18, Type (0, 1), BuildingBlock: ZUJKAS_clean_linker_0, # of connection points: 2
#     Edge 19, Type (0, 1), BuildingBlock: ZUJKAS_clean_linker_0, # of connection points: 2
#     Edge 20, Type (0, 1), BuildingBlock: ZUJKAS_clean_linker_0, # of connection points: 2
#     Edge 21, Type (0, 1), BuildingBlock: ZUJKAS_clean_linker_0, # of connection points: 2
#     Edge 22, Type (0, 1), BuildingBlock: ZUJKAS_clean_linker_0, # of connection points: 2
#     Edge 23, Type (0, 1), BuildingBlock: ZUJKAS_clean_linker_0, # of connection points: 2
#     Edge 24, Type (0, 1), BuildingBlock: ZUJKAS_clean_linker_0, # of connection points: 2
#     Edge 25, Type (0, 1), BuildingBlock: ZUJKAS_clean_linker_0, # of connection points: 2
#     Edge 26, Type (0, 1), BuildingBlock: ZUJKAS_clean_linker_0, # of connection points: 2
#     Edge 27, Type (0, 1), BuildingBlock: ZUJKAS_clean_linker_0, # of connection points: 2
#     Edge 28, Type (0, 1), BuildingBlock: ZUJKAS_clean_linker_0, # of connection points: 2
#     Edge 29, Type (0, 1), BuildingBlock: ZUJKAS_clean_linker_0, # of connection points: 2
#     Edge 30, Type (0, 1), BuildingBlock: ZUJKAS_clean_linker_0, # of connection points: 2
#     Edge 31, Type (0, 1), BuildingBlock: ZUJKAS_clean_linker_0, # of connection points: 2
#     Edge 32, Type (0, 1), BuildingBlock: ZUJKAS_clean_linker_0, # of connection points: 2
#     Edge 33, Type (0, 1), BuildingBlock: ZUJKAS_clean_linker_0, # of connection points: 2
#     Edge 34, Type (0, 1), BuildingBlock: ZUJKAS_clean_linker_0, # of connection points: 2
#     Edge 35, Type (0, 1), BuildingBlock: ZUJKAS_clean_linker_0, # of connection points: 2
# Relax obj value: 0.076
# Max RMSD: 0.088
# Mean RMSD: 0.083
data_MOF--net-cml--node1-OJICUG_clean_sbu_0--node2-VETTIZ_charged_linker_0--edge1-ZUJKAS_clean_linker_0
_symmetry_space_group_name_H-M    P1
_symmetry_Int_Tables_number       1
_symmetry_cell_setting            triclinic
loop_
_symmetry_equiv_pos_as_xyz
'x, y, z'
_cell_length_a     58.325601
_cell_length_b     58.89738
_cell_length_c     55.784351
_cell_angle_alpha  90.02345
_cell_angle_beta   90.001254
_cell_angle_gamma 89.992921
loop_
_atom_site_label
_atom_site_type_symbol
_atom_site_fract_x
_atom_site_fract_y
_atom_site_fract_z
_atom_type_partial_charge
C0 C 0.28482 0.37595 0.09001 0.0
C1 C 0.30219 0.38716 0.10293 0.0
C2 C 0.31052 0.40811 0.09435 0.0
C3 C 0.2856 0.4056 0.05979 0.0
C4 C 0.27676 0.3855 0.06859 0.0
C5 C 0.25881 0.37561 0.05223 0.0
H6 H 0.20299 0.37904 0.94584 0.0
C7 C 0.27477 0.41017 0.03639 0.0
C8 C 0.25888 0.39279 0.03191 0.0
H9 H 0.19478 0.3303 0.00317 0.0
H10 H 0.22207 0.35091 0.02734 0.0
H11 H 0.20389 0.42356 0.97971 0.0
H12 H 0.2569 0.38188 0.94902 0.0
H13 H 0.2665 0.41003 0.94719 0.0
H14 H 0.24077 0.4018 0.93149 0.0
H15 H 0.21067 0.42389 0.94832 0.0
H16 H 0.22555 0.44187 0.9694 0.0
C17 C 0.23564 0.37534 0.06582 0.0
C18 C 0.2672 0.35194 0.04388 0.0
C19 C 0.30424 0.47503 0.98513 0.0
C20 C 0.29966 0.48188 0.96146 0.0
C21 C 0.2818 0.47111 0.94875 0.0
C22 C 0.26935 0.45329 0.95912 0.0
C23 C 0.2749 0.44597 0.98238 0.0
C24 C 0.29186 0.45704 0.9951 0.0
C25 C 0.29597 0.44656 0.01928 0.0
C26 C 0.2788 0.42721 0.0189 0.0
C27 C 0.26656 0.42694 0.99726 0.0
C28 C 0.29004 0.46443 0.03872 0.0
C29 C 0.32109 0.43789 0.01997 0.0
C30 C 0.20717 0.37273 0.96355 0.0
C31 C 0.1968 0.35296 0.97256 0.0
C32 C 0.2024 0.34559 0.99588 0.0
C33 C 0.21836 0.3575 0.00984 0.0
C34 C 0.2289 0.37698 0.00039 0.0
C35 C 0.22304 0.38443 0.97771 0.0
C36 C 0.23585 0.40549 0.97059 0.0
C37 C 0.25031 0.40953 0.99277 0.0
C38 C 0.24634 0.39267 0.01008 0.0
C39 C 0.21821 0.42479 0.96659 0.0
C40 C 0.25072 0.39975 0.94833 0.0
H41 H 0.30961 0.4332 0.06726 0.0
H42 H 0.27783 0.35999 0.09629 0.0
H43 H 0.28587 0.35232 0.03979 0.0
H44 H 0.25892 0.34612 0.0272 0.0
H45 H 0.26437 0.33897 0.05803 0.0
H46 H 0.23445 0.38977 0.07864 0.0
H47 H 0.23351 0.35941 0.07622 0.0
H48 H 0.22076 0.37754 0.05377 0.0
H49 H 0.31758 0.48315 0.99557 0.0
H50 H 0.27798 0.47588 0.93043 0.0
H51 H 0.25628 0.44552 0.94835 0.0
H52 H 0.27583 0.47568 0.03271 0.0
H53 H 0.30504 0.4754 0.04278 0.0
H54 H 0.28374 0.45669 0.05552 0.0
H55 H 0.32633 0.43106 0.00219 0.0
H56 H 0.32373 0.42366 0.0325 0.0
H57 H 0.33314 0.45181 0.02465 0.0
H58 H 0.32406 0.41701 0.10376 0.0
C59 C 0.30227 0.41741 0.07297 0.0
C60 C 0.79371 0.62534 0.46558 0.0
C61 C 0.80226 0.64589 0.47473 0.0
C62 C 0.79467 0.65351 0.49734 0.0
C63 C 0.76953 0.62092 0.50066 0.0
C64 C 0.7775 0.61315 0.47882 0.0
C65 C 0.7664 0.5912 0.47145 0.0
H66 H 0.68485 0.51201 0.49082 0.0
C67 C 0.75211 0.60471 0.50935 0.0
C68 C 0.75041 0.5871 0.49245 0.0
H69 H 0.73174 0.51683 0.431 0.0
H70 H 0.75048 0.54883 0.44967 0.0
H71 H 0.72241 0.52073 0.53203 0.0
H72 H 0.6751 0.56444 0.49512 0.0
H73 H 0.6739 0.57135 0.52572 0.0
H74 H 0.66632 0.54316 0.51625 0.0
H75 H 0.69262 0.52184 0.53989 0.0
H76 H 0.71332 0.5409 0.55317 0.0
C77 C 0.78526 0.57274 0.46973 0.0
C78 C 0.75313 0.59546 0.44779 0.0
C79 C 0.70547 0.6231 0.58388 0.0
C80 C 0.6874 0.61172 0.59549 0.0
C81 C 0.681 0.58993 0.58738 0.0
C82 C 0.69162 0.5801 0.56745 0.0
C83 C 0.70884 0.59214 0.55533 0.0
C84 C 0.71594 0.61298 0.56394 0.0
C85 C 0.73496 0.62295 0.54905 0.0
C86 C 0.73759 0.6049 0.52977 0.0
C87 C 0.72204 0.58706 0.53342 0.0
C88 C 0.75667 0.62489 0.56496 0.0
C89 C 0.72643 0.64582 0.53862 0.0
C90 C 0.69946 0.51964 0.48195 0.0
C91 C 0.70675 0.51194 0.45935 0.0
C92 C 0.7256 0.52264 0.44828 0.0
C93 C 0.73646 0.54121 0.45916 0.0
C94 C 0.72826 0.54934 0.48125 0.0
C95 C 0.71035 0.53829 0.49249 0.0
C96 C 0.70364 0.54946 0.51568 0.0
C97 C 0.72028 0.56925 0.51637 0.0
C98 C 0.73454 0.56918 0.4961 0.0
C99 C 0.70801 0.53243 0.53636 0.0
C100 C 0.67841 0.55747 0.51334 0.0
H101 H 0.77304 0.64795 0.52728 0.0
H102 H 0.79949 0.61887 0.44843 0.0
H103 H 0.7451 0.6126 0.44783 0.0
H104 H 0.73875 0.5836 0.44504 0.0
H105 H 0.76477 0.59454 0.43206 0.0
H106 H 0.79886 0.57556 0.4834 0.0
H107 H 0.79361 0.57288 0.45183 0.0
H108 H 0.77872 0.55549 0.47346 0.0
H109 H 0.71087 0.63982 0.58966 0.0
H110 H 0.66759 0.58049 0.59639 0.0
H111 H 0.68571 0.56365 0.56199 0.0
H112 H 0.75692 0.61152 0.57905 0.0
H113 H 0.75744 0.64161 0.57415 0.0
H114 H 0.77269 0.62221 0.55474 0.0
H115 H 0.70835 0.64431 0.53242 0.0
H116 H 0.73617 0.65141 0.52276 0.0
H117 H 0.72709 0.65946 0.55236 0.0
H118 H 0.80093 0.66936 0.5047 0.0
C119 C 0.77837 0.64112 0.51035 0.0
C120 C 0.71037 0.47463 0.96506 0.0
C121 C 0.69122 0.48671 0.97357 0.0
C122 C 0.68168 0.48073 0.99592 0.0
C123 C 0.70887 0.4499 -0.00019 0.0
C124 C 0.71887 0.45636 0.97843 0.0
C125 C 0.73834 0.44099 0.97141 0.0
H126 H 0.79596 0.34299 0.98845 0.0
C127 C 0.72062 0.42922 0.00831 0.0
C128 C 0.73809 0.42404 0.99193 0.0
H129 H 0.8063 0.39346 0.93312 0.0
H130 H 0.77803 0.41757 0.95153 0.0
H131 H 0.79478 0.37902 0.03173 0.0
H132 H 0.74059 0.34687 0.9916 0.0
H133 H 0.73446 0.34487 0.02247 0.0
H134 H 0.75989 0.33166 0.0109 0.0
H135 H 0.78618 0.35031 0.03762 0.0
H136 H 0.77209 0.37414 0.05177 0.0
C137 C 0.76073 0.45518 0.971 0.0
C138 C 0.7321 0.42976 0.94713 0.0
C139 C 0.68873 0.38695 0.08001 0.0
C140 C 0.69515 0.36689 0.09177 0.0
C141 C 0.71504 0.35531 0.08436 0.0
C142 C 0.72787 0.3632 0.06473 0.0
C143 C 0.72074 0.38293 0.05259 0.0
C144 C 0.70179 0.39473 0.06071 0.0
C145 C 0.69713 0.41576 0.04633 0.0
C146 C 0.71617 0.41451 0.0279 0.0
C147 C 0.72974 0.39508 0.03137 0.0
C148 C 0.69976 0.43666 0.06305 0.0
C149 C 0.67308 0.41323 0.03477 0.0
C150 C 0.79233 0.35933 0.98041 0.0
C151 C 0.80314 0.36609 0.959 0.0
C152 C 0.79783 0.38753 0.94922 0.0
C153 C 0.78147 0.40159 0.96001 0.0
C154 C 0.77016 0.39418 0.9808 0.0
C155 C 0.77604 0.37363 0.99101 0.0
C156 C 0.76268 0.36891 0.01355 0.0
C157 C 0.74741 0.38976 0.01478 0.0
C158 C 0.75172 0.40434 0.99537 0.0
C159 C 0.77969 0.36785 0.03486 0.0
C160 C 0.74869 0.34687 0.00966 0.0
H161 H 0.68211 0.45851 0.0257 0.0
H162 H 0.7183 0.47901 0.94813 0.0
H163 H 0.71369 0.42479 0.94682 0.0
H164 H 0.7416 0.41395 0.94359 0.0
H165 H 0.73506 0.44167 0.932 0.0
H166 H 0.7599 0.46955 0.98392 0.0
H167 H 0.76392 0.46246 0.95294 0.0
H168 H 0.77589 0.44525 0.97667 0.0
H169 H 0.67374 0.3964 0.08572 0.0
H170 H 0.72029 0.33986 0.09336 0.0
H171 H 0.74262 0.35348 0.05956 0.0
H172 H 0.71226 0.43327 0.07769 0.0
H173 H 0.68317 0.44124 0.07155 0.0
H174 H 0.70675 0.45167 0.05364 0.0
H175 H 0.6703 0.39551 0.02847 0.0
H176 H 0.67069 0.42386 0.0187 0.0
H177 H 0.65933 0.41728 0.04786 0.0
H178 H 0.66679 0.48957 0.00282 0.0
C179 C 0.69046 0.46249 0.0091 0.0
C180 C 0.20228 0.62359 0.46607 0.0
C181 C 0.19405 0.64437 0.47499 0.0
C182 C 0.20249 0.65254 0.49706 0.0
C183 C 0.22766 0.61998 0.50032 0.0
C184 C 0.219 0.61175 0.47896 0.0
C185 C 0.23022 0.5899 0.47147 0.0
H186 H 0.31385 0.51241 0.48867 0.0
C187 C 0.24553 0.60408 0.50865 0.0
C188 C 0.24699 0.58632 0.49191 0.0
H189 H 0.26527 0.51621 0.43025 0.0
H190 H 0.2464 0.54786 0.44941 0.0
H191 H 0.3228 0.56483 0.49262 0.0
H192 H 0.27688 0.52085 0.53109 0.0
H193 H 0.28664 0.54107 0.55186 0.0
H194 H 0.30693 0.52205 0.53783 0.0
H195 H 0.33241 0.54388 0.51372 0.0
H196 H 0.32455 0.57203 0.52312 0.0
C197 C 0.2426 0.59406 0.44725 0.0
C198 C 0.21163 0.57113 0.47073 0.0
C199 C 0.293 0.62324 0.58234 0.0
C200 C 0.31145 0.61221 0.59367 0.0
C201 C 0.31835 0.59067 0.58528 0.0
C202 C 0.3077 0.58069 0.56542 0.0
C203 C 0.28998 0.59234 0.55368 0.0
C204 C 0.28254 0.613 0.56248 0.0
C205 C 0.26317 0.62268 0.5479 0.0
C206 C 0.26054 0.6046 0.52867 0.0
C207 C 0.27646 0.58702 0.53202 0.0
C208 C 0.2712 0.64568 0.53734 0.0
C209 C 0.24168 0.62426 0.56416 0.0
C210 C 0.29885 0.51974 0.48023 0.0
C211 C 0.29111 0.51188 0.45785 0.0
C212 C 0.27175 0.52216 0.44733 0.0
C213 C 0.26082 0.54053 0.4585 0.0
C214 C 0.26945 0.54887 0.48032 0.0
C215 C 0.28787 0.5382 0.49105 0.0
C216 C 0.29499 0.54958 0.514 0.0
C217 C 0.27805 0.56912 0.51505 0.0
C218 C 0.26325 0.56868 0.49522 0.0
C219 C 0.32002 0.55797 0.51097 0.0
C220 C 0.29139 0.53258 0.53488 0.0
H221 H 0.22502 0.6476 0.52638 0.0
H222 H 0.19634 0.61698 0.44905 0.0
H223 H 0.19876 0.57368 0.4852 0.0
H224 H 0.21866 0.55397 0.47393 0.0
H225 H 0.20233 0.57124 0.45335 0.0
H226 H 0.24978 0.61156 0.44644 0.0
H227 H 0.23061 0.59208 0.43193 0.0
H228 H 0.25752 0.58285 0.44447 0.0
H229 H 0.28727 0.6398 0.58828 0.0
H230 H 0.33212 0.58153 0.59403 0.0
H231 H 0.31396 0.56443 0.55975 0.0
H232 H 0.28947 0.64473 0.53168 0.0
H233 H 0.26971 0.65949 0.55081 0.0
H234 H 0.26176 0.65068 0.52105 0.0
H235 H 0.24148 0.61034 0.57764 0.0
H236 H 0.22549 0.62219 0.5541 0.0
H237 H 0.24125 0.64061 0.57408 0.0
H238 H 0.19616 0.66834 0.50449 0.0
C239 C 0.21918 0.64042 0.5098 0.0
C240 C 0.78603 0.8756 0.08912 0.0
C241 C 0.80405 0.88622 0.10159 0.0
C242 C 0.81283 0.90694 0.09283 0.0
C243 C 0.787 0.9053 0.05895 0.0
C244 C 0.77778 0.88543 0.06793 0.0
C245 C 0.75925 0.87605 0.05196 0.0
H246 H 0.70189 0.88054 0.9466 0.0
C247 C 0.77578 0.91022 0.03583 0.0
C248 C 0.75936 0.89327 0.03168 0.0
H249 H 0.69364 0.83207 0.00418 0.0
H250 H 0.72149 0.85232 0.02793 0.0
H251 H 0.70404 0.92518 0.98053 0.0
H252 H 0.75587 0.88259 0.949 0.0
H253 H 0.76573 0.91064 0.94676 0.0
H254 H 0.73961 0.90259 0.93168 0.0
H255 H 0.71037 0.92547 0.94904 0.0
H256 H 0.7259 0.9431 0.96993 0.0
C257 C 0.73636 0.87634 0.06606 0.0
C258 C 0.76687 0.85218 0.04339 0.0
C259 C 0.80566 0.97461 0.98419 0.0
C260 C 0.80075 0.98167 0.96066 0.0
C261 C 0.7824 0.97135 0.9483 0.0
C262 C 0.76978 0.95375 0.95885 0.0
C263 C 0.77564 0.9462 0.98195 0.0
C264 C 0.79309 0.95684 0.99434 0.0
C265 C 0.79747 0.94616 0.01837 0.0
C266 C 0.77986 0.92721 0.0183 0.0
C267 C 0.76716 0.9273 0.99694 0.0
C268 C 0.79235 0.96407 0.03802 0.0
C269 C 0.8224 0.93693 0.01845 0.0
C270 C 0.70617 0.87423 0.96428 0.0
C271 C 0.69564 0.85462 0.97347 0.0
C272 C 0.70137 0.84723 0.99676 0.0
C273 C 0.71767 0.85893 0.01047 0.0
C274 C 0.72844 0.87819 0.00079 0.0
C275 C 0.72239 0.88571 0.9782 0.0
C276 C 0.73551 0.90653 0.97085 0.0
C277 C 0.75043 0.91028 0.99276 0.0
C278 C 0.74638 0.8935 0.01014 0.0
C279 C 0.71819 0.92617 0.96718 0.0
C280 C 0.74987 0.90052 0.94832 0.0
H281 H 0.81204 0.93212 0.06584 0.0
H282 H 0.77869 0.85985 0.09554 0.0
H283 H 0.78548 0.85207 0.03902 0.0
H284 H 0.75823 0.84665 0.02681 0.0
H285 H 0.76388 0.83924 0.05753 0.0
H286 H 0.73582 0.89075 0.07896 0.0
H287 H 0.73401 0.86043 0.07646 0.0
H288 H 0.7213 0.87898 0.05435 0.0
H289 H 0.81938 0.98239 0.99438 0.0
H290 H 0.77832 0.9763 0.93009 0.0
H291 H 0.75632 0.94631 0.94835 0.0
H292 H 0.77806 0.97544 0.03251 0.0
H293 H 0.80758 0.9749 0.04153 0.0
H294 H 0.78654 0.95639 0.05504 0.0
H295 H 0.82725 0.93036 0.00044 0.0
H296 H 0.82487 0.92237 0.03059 0.0
H297 H 0.83483 0.95048 0.02327 0.0
H298 H 0.82689 0.91538 0.10187 0.0
C299 C 0.80434 0.91655 0.07171 0.0
C300 C 0.29281 0.12647 0.46359 0.0
C301 C 0.30318 0.14614 0.47287 0.0
C302 C 0.29748 0.15334 0.49623 0.0
C303 C 0.27075 0.12208 0.50018 0.0
C304 C 0.27678 0.11474 0.47751 0.0
C305 C 0.2639 0.09378 0.47011 0.0
H306 H 0.18079 0.01706 0.4934 0.0
C307 C 0.25304 0.10651 0.50953 0.0
C308 C 0.24913 0.08976 0.49208 0.0
H309 H 0.22183 0.02367 0.42917 0.0
H310 H 0.2436 0.05376 0.44758 0.0
H311 H 0.22197 0.0239 0.53142 0.0
H312 H 0.17276 0.0694 0.50002 0.0
H313 H 0.17482 0.07649 0.53048 0.0
H314 H 0.16517 0.04856 0.52209 0.0
H315 H 0.19257 0.02459 0.54088 0.0
H316 H 0.2139 0.04298 0.5541 0.0
C317 C 0.28145 0.07437 0.46625 0.0
C318 C 0.24936 0.09971 0.44769 0.0
C319 C 0.21341 0.1238 0.58865 0.0
C320 C 0.19568 0.11287 0.60125 0.0
C321 C 0.1872 0.092 0.59256 0.0
C322 C 0.19568 0.08255 0.57133 0.0
C323 C 0.21273 0.09412 0.55844 0.0
C324 C 0.22169 0.11411 0.56739 0.0
C325 C 0.24004 0.12375 0.5514 0.0
C326 C 0.24012 0.10655 0.5311 0.0
C327 C 0.22392 0.08938 0.53525 0.0
C328 C 0.26298 0.12376 0.56543 0.0
C329 C 0.23208 0.14752 0.54288 0.0
C330 C 0.19445 0.02498 0.48326 0.0
C331 C 0.19943 0.01804 0.4597 0.0
C332 C 0.21771 0.02853 0.4474 0.0
C333 C 0.2302 0.04619 0.45804 0.0
C334 C 0.22427 0.05362 0.48117 0.0
C335 C 0.2069 0.04279 0.49352 0.0
C336 C 0.20251 0.05331 0.51764 0.0
C337 C 0.21997 0.07241 0.51765 0.0
C338 C 0.2326 0.07253 0.49624 0.0
C339 C 0.2078 0.03534 0.53716 0.0
C340 C 0.17752 0.06234 0.51784 0.0
H341 H 0.27755 0.14788 0.52746 0.0
H342 H 0.29708 0.12031 0.44584 0.0
H343 H 0.243 0.11751 0.4486 0.0
H344 H 0.23371 0.0893 0.44606 0.0
H345 H 0.25962 0.09801 0.43101 0.0
H346 H 0.29574 0.07557 0.47941 0.0
H347 H 0.28905 0.07515 0.44801 0.0
H348 H 0.274 0.05735 0.46911 0.0
H349 H 0.22052 0.13968 0.59505 0.0
H350 H 0.17341 0.08331 0.60176 0.0
H351 H 0.18823 0.06685 0.5655 0.0
H352 H 0.26365 0.10953 0.57853 0.0
H353 H 0.26528 0.13981 0.5756 0.0
H354 H 0.27802 0.12105 0.5537 0.0
H355 H 0.21349 0.14733 0.53839 0.0
H356 H 0.24074 0.15325 0.52639 0.0
H357 H 0.23477 0.16046 0.55709 0.0
H358 H 0.30511 0.16853 0.50372 0.0
C359 C 0.28136 0.1414 0.50993 0.0
C360 C 0.20306 0.97059 0.96994 0.0
C361 C 0.1838 0.98177 0.97946 0.0
C362 C 0.17565 0.97549 0.0023 0.0
C363 C 0.20425 0.94584 0.00472 0.0
C364 C 0.21295 0.95266 0.98283 0.0
C365 C 0.23262 0.93796 0.97479 0.0
H366 H 0.29496 0.8423 0.98957 0.0
C367 C 0.21703 0.92553 0.0125 0.0
C368 C 0.2338 0.92088 0.99518 0.0
H369 H 0.30152 0.89309 0.93394 0.0
H370 H 0.27236 0.91578 0.95297 0.0
H371 H 0.29226 0.87875 0.03342 0.0
H372 H 0.24054 0.84304 0.99311 0.0
H373 H 0.23282 0.84209 0.02355 0.0
H374 H 0.2592 0.82904 0.014 0.0
H375 H 0.28692 0.84899 0.0375 0.0
H376 H 0.27084 0.87024 0.05367 0.0
C377 C 0.25447 0.95289 0.97345 0.0
C378 C 0.22579 0.92664 0.95074 0.0
C379 C 0.19008 0.88265 0.08595 0.0
C380 C 0.19659 0.86195 0.09645 0.0
C381 C 0.21572 0.85024 0.08719 0.0
C382 C 0.22761 0.85864 0.06717 0.0
C383 C 0.22025 0.87894 0.05629 0.0
C384 C 0.202 0.89071 0.06599 0.0
C385 C 0.19619 0.91173 0.05204 0.0
C386 C 0.21393 0.91065 0.03222 0.0
C387 C 0.22791 0.89139 0.03469 0.0
C388 C 0.19992 0.93257 0.06857 0.0
C389 C 0.17138 0.90907 0.04234 0.0
C390 C 0.29036 0.85844 0.98162 0.0
C391 C 0.30044 0.86574 0.96003 0.0
C392 C 0.29372 0.8868 0.95025 0.0
C393 C 0.27686 0.90003 0.96141 0.0
C394 C 0.26648 0.89215 0.98255 0.0
C395 C 0.2736 0.8719 0.99257 0.0
C396 C 0.26097 0.86645 0.01536 0.0
C397 C 0.24497 0.88668 0.01723 0.0
C398 C 0.24809 0.90152 0.99778 0.0
C399 C 0.27854 0.86588 0.03618 0.0
C400 C 0.24774 0.84392 0.01156 0.0
H401 H 0.17855 0.95351 0.03209 0.0
H402 H 0.20969 0.97506 0.95243 0.0
H403 H 0.20761 0.92091 0.95129 0.0
H404 H 0.23582 0.91127 0.94661 0.0
H405 H 0.22757 0.93875 0.93559 0.0
H406 H 0.25376 0.96705 0.98663 0.0
H407 H 0.25654 0.9605 0.95537 0.0
H408 H 0.2702 0.9434 0.97816 0.0
H409 H 0.17573 0.89229 0.09291 0.0
H410 H 0.22106 0.83425 0.09497 0.0
H411 H 0.24177 0.84878 0.06064 0.0
H412 H 0.21441 0.92964 0.08117 0.0
H413 H 0.1844 0.93615 0.07949 0.0
H414 H 0.20476 0.94804 0.05856 0.0
H415 H 0.16759 0.89103 0.03792 0.0
H416 H 0.16838 0.91828 0.02542 0.0
H417 H 0.15857 0.9147 0.05582 0.0
H418 H 0.16112 0.98417 0.0102 0.0
C419 C 0.18583 0.95769 0.015 0.0
C420 C 0.70246 0.12463 0.46476 0.0
C421 C 0.69325 0.14474 0.47431 0.0
C422 C 0.70065 0.15218 0.49706 0.0
C423 C 0.72674 0.12027 0.49979 0.0
C424 C 0.7191 0.11275 0.47772 0.0
C425 C 0.73126 0.09161 0.46962 0.0
H426 H 0.81607 0.01532 0.48651 0.0
C427 C 0.74485 0.10457 0.50801 0.0
C428 C 0.74747 0.08767 0.49046 0.0
H429 H 0.76924 0.02028 0.42664 0.0
H430 H 0.74935 0.05107 0.4462 0.0
H431 H 0.82412 0.06739 0.4926 0.0
H432 H 0.77739 0.02195 0.52797 0.0
H433 H 0.78705 0.04112 0.54986 0.0
H434 H 0.80738 0.02269 0.53506 0.0
H435 H 0.83331 0.04665 0.51411 0.0
H436 H 0.82419 0.07459 0.52312 0.0
C437 C 0.74426 0.09718 0.44609 0.0
C438 C 0.71331 0.07233 0.46733 0.0
C439 C 0.78866 0.12123 0.58486 0.0
C440 C 0.80711 0.11028 0.59628 0.0
C441 C 0.81548 0.08975 0.5866 0.0
C442 C 0.80604 0.08057 0.56568 0.0
C443 C 0.78811 0.09206 0.55408 0.0
C444 C 0.77945 0.11183 0.56388 0.0
C445 C 0.7603 0.12162 0.54905 0.0
C446 C 0.75915 0.1046 0.52862 0.0
C447 C 0.7756 0.08745 0.5316 0.0
C448 C 0.76781 0.14548 0.54035 0.0
C449 C 0.73814 0.12146 0.56437 0.0
C450 C 0.80126 0.02273 0.4778 0.0
C451 C 0.79428 0.01542 0.45494 0.0
C452 C 0.77513 0.02581 0.4441 0.0
C453 C 0.76359 0.04367 0.45551 0.0
C454 C 0.77137 0.05137 0.47794 0.0
C455 C 0.78964 0.04066 0.48889 0.0
C456 C 0.79576 0.05131 0.51254 0.0
C457 C 0.77832 0.0704 0.51383 0.0
C458 C 0.76419 0.07041 0.49348 0.0
C459 C 0.82066 0.06039 0.51077 0.0
C460 C 0.79191 0.03342 0.53251 0.0
H461 H 0.72229 0.14663 0.52701 0.0
H462 H 0.69734 0.11859 0.44721 0.0
H463 H 0.69983 0.07394 0.48134 0.0
H464 H 0.72075 0.05528 0.47013 0.0
H465 H 0.70466 0.07282 0.4496 0.0
H466 H 0.75093 0.11488 0.44637 0.0
H467 H 0.73282 0.09554 0.43026 0.0
H468 H 0.75958 0.08651 0.4433 0.0
H469 H 0.78163 0.13686 0.59198 0.0
H470 H 0.82986 0.08108 0.59481 0.0
H471 H 0.81343 0.06511 0.55908 0.0
H472 H 0.78639 0.14564 0.5358 0.0
H473 H 0.76493 0.15847 0.55447 0.0
H474 H 0.75907 0.1509 0.52378 0.0
H475 H 0.7377 0.10642 0.57643 0.0
H476 H 0.72242 0.12005 0.55343 0.0
H477 H 0.73701 0.13688 0.57579 0.0
H478 H 0.69356 0.16745 0.50496 0.0
C479 C 0.71727 0.14002 0.50987 0.0
Sc480 Sc 0.99837 0.79858 0.31158 0.0
Sc481 Sc 0.00012 0.8585 0.31141 0.0
Sc482 Sc 0.9986 0.82901 0.36613 0.0
O483 O -0.00096 0.82866 0.3297 0.0
C484 C 0.96338 0.78903 0.35439 0.0
C485 C 0.96473 0.82954 0.28029 0.0
C486 C 0.96561 0.87057 0.35402 0.0
C487 C 0.03392 0.82734 0.2805 0.0
C488 C 0.0317 0.78709 0.35533 0.0
C489 C 0.03462 0.86834 0.35449 0.0
O490 O 0.97126 0.78498 0.33357 0.0
O491 O 0.97313 0.84818 0.28767 0.0
O492 O 0.97275 0.85493 0.36778 0.0
O493 O 0.02565 0.8086 0.28776 0.0
O494 O 0.02419 0.80295 0.36863 0.0
O495 O 0.02726 0.87192 0.33337 0.0
O496 O 0.02411 0.78343 0.3343 0.0
O497 O 0.02621 0.84649 0.28727 0.0
O498 O 0.02579 0.85367 0.36841 0.0
O499 O 0.9723 0.81027 0.28693 0.0
O500 O 0.97148 0.80439 0.36797 0.0
O501 O 0.97403 0.87407 0.33333 0.0
Sc502 Sc -0.00103 0.20083 0.80843 0.0
Sc503 Sc -0.00026 0.14089 0.81208 0.0
Sc504 Sc -0.00097 0.17349 0.86475 0.0
O505 O -0.00077 0.17178 0.82839 0.0
C506 C 0.03293 0.21401 0.85109 0.0
C507 C 0.03421 0.16949 0.77948 0.0
C508 C 0.03404 0.13285 0.85579 0.0
C509 C 0.96509 0.1688 0.77882 0.0
C510 C 0.96446 0.21336 0.85097 0.0
C511 C 0.96495 0.13206 0.85508 0.0
O512 O 0.02536 0.2167 0.82988 0.0
O513 O 0.02658 0.15097 0.78802 0.0
O514 O 0.02608 0.14904 0.86829 0.0
O515 O 0.97245 0.18834 0.7848 0.0
O516 O 0.97232 0.19848 0.86526 0.0
O517 O 0.97283 0.12765 0.83436 0.0
O518 O 0.97227 0.21622 0.82988 0.0
O519 O 0.97355 0.15051 0.78702 0.0
O520 O 0.97291 0.14782 0.86824 0.0
O521 O 0.02578 0.18877 0.78485 0.0
O522 O 0.02496 0.19923 0.8654 0.0
O523 O 0.02601 0.12753 0.83537 0.0
Sc524 Sc 0.499 0.30105 0.31086 0.0
Sc525 Sc 0.49985 0.36098 0.31305 0.0
Sc526 Sc 0.49851 0.32963 0.36654 0.0
O527 O 0.49914 0.33051 0.33013 0.0
C528 C 0.46397 0.28965 0.3533 0.0
C529 C 0.46512 0.33238 0.28049 0.0
C530 C 0.46485 0.37109 0.35561 0.0
C531 C 0.53417 0.33163 0.28106 0.0
C532 C 0.5323 0.28849 0.35419 0.0
C533 C 0.53395 0.3698 0.35687 0.0
O534 O 0.47249 0.28597 0.33267 0.0
O535 O 0.47372 0.35088 0.28806 0.0
O536 O 0.4727 0.35559 0.36914 0.0
O537 O 0.52554 0.31254 0.28672 0.0
O538 O 0.52396 0.30338 0.36818 0.0
O539 O 0.52608 0.37444 0.3362 0.0
O540 O 0.52542 0.28583 0.33272 0.0
O541 O 0.52684 0.35036 0.28937 0.0
O542 O 0.52581 0.35402 0.36987 0.0
O543 O 0.47236 0.31299 0.28712 0.0
O544 O 0.47131 0.30511 0.36721 0.0
O545 O 0.47285 0.375 0.33483 0.0
Sc546 Sc 0.498 0.70193 0.81019 0.0
Sc547 Sc 0.49784 0.64205 0.81312 0.0
Sc548 Sc 0.49782 0.67402 0.86626 0.0
O549 O 0.49788 0.67271 0.82984 0.0
C550 C 0.53232 0.71412 0.85295 0.0
C551 C 0.53241 0.67049 0.78045 0.0
C552 C 0.53218 0.63287 0.85652 0.0
C553 C 0.4635 0.67065 0.78036 0.0
C554 C 0.4639 0.71467 0.85291 0.0
C555 C 0.46313 0.63326 0.85635 0.0
O556 O 0.52445 0.7173 0.83194 0.0
O557 O 0.52425 0.65203 0.78856 0.0
O558 O 0.52412 0.64863 0.86958 0.0
O559 O 0.47138 0.68999 0.78631 0.0
O560 O 0.47181 0.69979 0.86718 0.0
O561 O 0.47119 0.62871 0.83574 0.0
O562 O 0.47143 0.71733 0.83169 0.0
O563 O 0.47144 0.65215 0.78861 0.0
O564 O 0.47103 0.64906 0.8695 0.0
O565 O 0.52476 0.68989 0.78654 0.0
O566 O 0.52447 0.69907 0.86705 0.0
O567 O 0.52441 0.62846 0.83575 0.0
H568 H 0.15602 0.33401 0.98608 0.0
H569 H 0.12965 0.31172 0.96132 0.0
H570 H 0.17409 0.32062 0.90027 0.0
H571 H 0.20082 0.34248 0.92501 0.0
H572 H 0.10716 0.32512 0.91733 0.0
H573 H 0.16514 0.25076 0.90618 0.0
H574 H 0.1695 0.27193 0.92915 0.0
H575 H 0.17695 0.27804 0.89861 0.0
C576 C 0.16026 0.33107 0.96744 0.0
C577 C 0.18053 0.33989 0.95751 0.0
C578 C 0.14512 0.3185 0.9533 0.0
C579 C 0.15008 0.31441 0.92907 0.0
C580 C 0.17012 0.32342 0.919 0.0
H581 H 0.05039 0.2526 0.83016 0.0
H582 H 0.07989 0.27795 0.8465 0.0
C583 C 0.18525 0.33605 0.93311 0.0
C584 C 0.13429 0.3005 0.91449 0.0
H585 H 0.12934 0.24911 0.8867 0.0
C586 C 0.112 0.30858 0.91043 0.0
C587 C 0.14076 0.27892 0.90569 0.0
C588 C 0.16432 0.26922 0.91021 0.0
C589 C 0.0958 0.29541 0.89808 0.0
C590 C 0.10222 0.27375 0.88946 0.0
C591 C 0.12462 0.26585 0.89317 0.0
C592 C 0.0853 0.25815 0.87867 0.0
C593 C 0.07172 0.30434 0.89514 0.0
C594 C 0.07907 0.23846 0.89112 0.0
C595 C 0.06234 0.22401 0.88192 0.0
C596 C 0.05154 0.22891 0.85996 0.0
C597 C 0.0583 0.24838 0.84715 0.0
C598 C 0.07506 0.26292 0.85648 0.0
H599 H 0.06865 0.31986 0.90601 0.0
H600 H 0.0687 0.30859 0.87602 0.0
H601 H 0.05902 0.29121 0.90041 0.0
H602 H 0.08688 0.23449 0.90825 0.0
H603 H 0.05774 0.20909 0.8922 0.0
H604 H 0.79989 0.65596 0.42707 0.0
H605 H 0.82652 0.67917 0.40358 0.0
H606 H 0.86763 0.69045 0.46672 0.0
H607 H 0.84125 0.66701 0.49029 0.0
H608 H 0.83876 0.7261 0.41356 0.0
H609 H 0.91338 0.66741 0.41425 0.0
H610 H 0.88449 0.65808 0.42055 0.0
H611 H 0.90068 0.67287 0.44306 0.0
C612 C 0.81476 0.66316 0.43587 0.0
C613 C 0.81858 0.65962 0.46048 0.0
C614 C 0.82984 0.67649 0.42248 0.0
C615 C 0.84909 0.68627 0.43342 0.0
C616 C 0.85298 0.68277 0.45795 0.0
H617 H 0.93773 0.79596 0.39476 0.0
H618 H 0.90857 0.77096 0.4117 0.0
C619 C 0.83783 0.66956 0.4714 0.0
C620 C 0.86476 0.70073 0.41934 0.0
H621 H 0.92005 0.70483 0.39991 0.0
C622 C 0.85649 0.72142 0.4104 0.0
C623 C 0.88775 0.69437 0.41508 0.0
C624 C 0.89714 0.67189 0.42353 0.0
C625 C 0.87092 0.73634 0.39791 0.0
C626 C 0.89415 0.73037 0.39446 0.0
C627 C 0.90222 0.70935 0.40273 0.0
C628 C 0.91065 0.74611 0.38323 0.0
C629 C 0.86128 0.75839 0.38856 0.0
C630 C 0.92149 0.7403 0.36165 0.0
C631 C 0.93819 0.75456 0.35186 0.0
C632 C 0.94452 0.77471 0.3637 0.0
C633 C 0.93333 0.78057 0.38518 0.0
C634 C 0.91655 0.76638 0.39484 0.0
H635 H 0.84226 0.75796 0.3875 0.0
H636 H 0.86625 0.77239 0.40083 0.0
H637 H 0.86827 0.76231 0.37051 0.0
H638 H 0.91719 0.72462 0.35254 0.0
H639 H 0.94651 0.74949 0.33535 0.0
H640 H 0.80737 0.35899 0.91069 0.0
H641 H 0.83362 0.33313 0.89013 0.0
H642 H 0.86117 0.31172 0.95815 0.0
H643 H 0.83553 0.33808 0.97895 0.0
H644 H 0.88574 0.33156 0.89679 0.0
H645 H 0.8385 0.2525 0.92012 0.0
H646 H 0.8249 0.28008 0.91975 0.0
H647 H 0.84356 0.27245 0.944 0.0
C648 C 0.81923 0.34906 0.92131 0.0
C649 C 0.81935 0.35064 0.9465 0.0
C650 C 0.83408 0.33419 0.90952 0.0
C651 C 0.84909 0.32047 0.92269 0.0
C652 C 0.84945 0.32205 0.94776 0.0
H653 H 0.9481 0.21665 0.89668 0.0
H654 H 0.91945 0.24291 0.91205 0.0
C655 C 0.83473 0.33703 0.95959 0.0
C656 C 0.86454 0.30455 0.91023 0.0
H657 H 0.87445 0.24816 0.90113 0.0
C658 C 0.88327 0.31332 0.89753 0.0
C659 C 0.86111 0.28085 0.91135 0.0
C660 C 0.84086 0.27078 0.92439 0.0
C661 C 0.89926 0.29887 0.88652 0.0
C662 C 0.89596 0.27509 0.8878 0.0
C663 C 0.8769 0.26639 0.90013 0.0
C664 C 0.91282 0.25885 0.87781 0.0
C665 C 0.91997 0.30918 0.87449 0.0
C666 C 0.91834 0.25882 0.85331 0.0
C667 C 0.93494 0.24389 0.84441 0.0
C668 C 0.94607 0.22853 0.85984 0.0
C669 C 0.93993 0.22822 0.88423 0.0
C670 C 0.92352 0.24323 0.8931 0.0
H671 H 0.92275 0.32706 0.88015 0.0
H672 H 0.93569 0.29928 0.87858 0.0
H673 H 0.91739 0.30905 0.85479 0.0
H674 H 0.90987 0.27039 0.84109 0.0
H675 H 0.9391 0.24444 0.82549 0.0
H676 H 0.15603 0.62897 0.45133 0.0
H677 H 0.12887 0.65122 0.42744 0.0
H678 H 0.16674 0.71223 0.44358 0.0
H679 H 0.19424 0.69009 0.46697 0.0
H680 H 0.10163 0.68754 0.44331 0.0
H681 H 0.16018 0.71395 0.37008 0.0
H682 H 0.16676 0.6909 0.39029 0.0
H683 H 0.171 0.71983 0.39958 0.0
C684 C 0.15868 0.64709 0.44957 0.0
C685 C 0.17727 0.6578 0.46098 0.0
C686 C 0.14314 0.65976 0.43601 0.0
C687 C 0.14606 0.68327 0.43347 0.0
C688 C 0.16447 0.69403 0.44498 0.0
H689 H 0.05108 0.78865 0.39991 0.0
H690 H 0.07858 0.76221 0.41726 0.0
C691 C 0.17997 0.6814 0.45858 0.0
C692 C 0.12929 0.69678 0.41968 0.0
H693 H 0.12443 0.73367 0.37278 0.0
C694 C 0.10654 0.69746 0.42775 0.0
C695 C 0.13574 0.70943 0.39922 0.0
C696 C 0.1597 0.70837 0.3891 0.0
C697 C 0.0902 0.71121 0.41642 0.0
C698 C 0.09693 0.72476 0.39674 0.0
C699 C 0.11945 0.7234 0.38805 0.0
C700 C 0.081 0.74113 0.38562 0.0
C701 C 0.06589 0.71126 0.4257 0.0
C702 C 0.07386 0.73836 0.3618 0.0
C703 C 0.05811 0.7535 0.35171 0.0
C704 C 0.04942 0.77173 0.36529 0.0
C705 C 0.05725 0.77475 0.38895 0.0
C706 C 0.0729 0.7596 0.39898 0.0
H707 H 0.06217 0.69591 0.4366 0.0
H708 H 0.06329 0.72639 0.43724 0.0
H709 H 0.05341 0.71213 0.41069 0.0
H710 H 0.08012 0.72425 0.3512 0.0
H711 H 0.05254 0.75073 0.33342 0.0
H712 H 0.65484 0.83595 0.98739 0.0
H713 H 0.62845 0.81326 0.96306 0.0
H714 H 0.67256 0.82161 0.90166 0.0
H715 H 0.69932 0.84387 0.92597 0.0
H716 H 0.60563 0.82571 0.91904 0.0
H717 H 0.66431 0.7518 0.90879 0.0
H718 H 0.66858 0.77338 0.93135 0.0
H719 H 0.67585 0.77904 0.90066 0.0
C720 C 0.65898 0.83283 0.96875 0.0
C721 C 0.67919 0.84158 0.95861 0.0
C722 C 0.64384 0.82002 0.95486 0.0
C723 C 0.64873 0.81563 0.93069 0.0
C724 C 0.66866 0.82464 0.92038 0.0
H725 H 0.54977 0.75275 0.83221 0.0
H726 H 0.57907 0.77816 0.84873 0.0
C727 C 0.68379 0.8375 0.93423 0.0
C728 C 0.63302 0.80135 0.91641 0.0
H729 H 0.62856 0.74964 0.88921 0.0
C730 C 0.61064 0.80915 0.91233 0.0
C731 C 0.63968 0.77973 0.90789 0.0
C732 C 0.66335 0.77031 0.91248 0.0
C733 C 0.59456 0.7957 0.90017 0.0
C734 C 0.6012 0.77404 0.89174 0.0
C735 C 0.62367 0.76637 0.89553 0.0
C736 C 0.5845 0.75828 0.88083 0.0
C737 C 0.57037 0.80436 0.89718 0.0
C738 C 0.57839 0.73848 0.89316 0.0
C739 C 0.56176 0.72397 0.88384 0.0
C740 C 0.55097 0.72892 0.86189 0.0
C741 C 0.55767 0.74847 0.84918 0.0
C742 C 0.57431 0.76306 0.85862 0.0
H743 H 0.56709 0.81978 0.90814 0.0
H744 H 0.56739 0.8087 0.87808 0.0
H745 H 0.5578 0.79106 0.9023 0.0
H746 H 0.58616 0.7345 0.91029 0.0
H747 H 0.55719 0.70899 0.89404 0.0
H748 H 0.2989 0.15754 0.42564 0.0
H749 H 0.3254 0.18006 0.40129 0.0
H750 H 0.37014 0.1878 0.46229 0.0
H751 H 0.34398 0.16491 0.48665 0.0
H752 H 0.33945 0.22536 0.4106 0.0
H753 H 0.41304 0.16566 0.40798 0.0
H754 H 0.3844 0.15686 0.41607 0.0
H755 H 0.40222 0.17119 0.43756 0.0
C756 C 0.31456 0.16376 0.43377 0.0
C757 C 0.31943 0.1594 0.45803 0.0
C758 C 0.32958 0.1767 0.41988 0.0
C759 C 0.34981 0.1853 0.42995 0.0
C760 C 0.35476 0.18097 0.45412 0.0
H761 H 0.43757 0.29547 0.3933 0.0
H762 H 0.40842 0.26989 0.40914 0.0
C763 C 0.33971 0.16811 0.46806 0.0
C764 C 0.36529 0.19965 0.41548 0.0
H765 H 0.42035 0.20367 0.39529 0.0
C766 C 0.35707 0.22055 0.40702 0.0
C767 C 0.38815 0.19314 0.41061 0.0
C768 C 0.39748 0.1704 0.41832 0.0
C769 C 0.37144 0.23558 0.3946 0.0
C770 C 0.39461 0.22955 0.3908 0.0
C771 C 0.40258 0.20827 0.3984 0.0
C772 C 0.41121 0.2456 0.38019 0.0
C773 C 0.3618 0.25783 0.38581 0.0
C774 C 0.42255 0.24027 0.35875 0.0
C775 C 0.4393 0.25487 0.3496 0.0
C776 C 0.44517 0.27488 0.36196 0.0
C777 C 0.43352 0.28022 0.38332 0.0
C778 C 0.41673 0.26569 0.39234 0.0
H779 H 0.34281 0.25724 0.38433 0.0
H780 H 0.36633 0.27145 0.39872 0.0
H781 H 0.36909 0.26242 0.36807 0.0
H782 H 0.41857 0.22473 0.34922 0.0
H783 H 0.44797 0.2502 0.33315 0.0
H784 H 0.30452 0.8584 0.91171 0.0
H785 H 0.33159 0.83329 0.89118 0.0
H786 H 0.36115 0.8144 0.95911 0.0
H787 H 0.3347 0.83999 0.97983 0.0
H788 H 0.38456 0.83318 0.89749 0.0
H789 H 0.33856 0.75382 0.92248 0.0
H790 H 0.32446 0.78113 0.92133 0.0
H791 H 0.3432 0.77444 0.94583 0.0
C792 C 0.31702 0.84921 0.92229 0.0
C793 C 0.3174 0.85118 0.94745 0.0
C794 C 0.33234 0.83478 0.91052 0.0
C795 C 0.34811 0.82194 0.92372 0.0
C796 C 0.34885 0.82406 0.94872 0.0
H797 H 0.44825 0.71874 0.89885 0.0
H798 H 0.41966 0.74516 0.91414 0.0
C799 C 0.33366 0.83859 0.9605 0.0
C800 C 0.36374 0.80609 0.91142 0.0
H801 H 0.37446 0.74971 0.90336 0.0
C802 C 0.38235 0.81492 0.89856 0.0
C803 C 0.36066 0.78237 0.91298 0.0
C804 C 0.34058 0.77223 0.92625 0.0
C805 C 0.39853 0.80051 0.88781 0.0
C806 C 0.39558 0.77671 0.88954 0.0
C807 C 0.37665 0.76795 0.90203 0.0
C808 C 0.41257 0.76053 0.8797 0.0
C809 C 0.41908 0.81089 0.87555 0.0
C810 C 0.41783 0.76015 0.85515 0.0
C811 C 0.43437 0.74513 0.8463 0.0
C812 C 0.4457 0.73003 0.86184 0.0
C813 C 0.4399 0.7301 0.88633 0.0
C814 C 0.42353 0.7452 0.89514 0.0
H815 H 0.42165 0.82889 0.88091 0.0
H816 H 0.43493 0.80124 0.87975 0.0
H817 H 0.41645 0.81044 0.85586 0.0
H818 H 0.40915 0.77148 0.84284 0.0
H819 H 0.43826 0.74539 0.82732 0.0
H820 H 0.65668 0.12922 0.44831 0.0
H821 H 0.62996 0.15158 0.42403 0.0
H822 H 0.66511 0.21298 0.44463 0.0
H823 H 0.69221 0.19075 0.46843 0.0
H824 H 0.60085 0.18641 0.43975 0.0
H825 H 0.66203 0.21736 0.37101 0.0
H826 H 0.66836 0.19376 0.39061 0.0
H827 H 0.67123 0.22244 0.40127 0.0
C828 C 0.65884 0.14746 0.44747 0.0
C829 C 0.67657 0.15824 0.46023 0.0
C830 C 0.64354 0.16019 0.43367 0.0
C831 C 0.64584 0.18385 0.43224 0.0
C832 C 0.66334 0.19468 0.44514 0.0
H833 H 0.55039 0.28839 0.39934 0.0
H834 H 0.57774 0.26163 0.41632 0.0
C835 C 0.67861 0.18199 0.45898 0.0
C836 C 0.62935 0.19739 0.41811 0.0
H837 H 0.62565 0.23608 0.37272 0.0
C838 C 0.60621 0.19709 0.42493 0.0
C839 C 0.63638 0.21103 0.39859 0.0
C840 C 0.66082 0.21106 0.38974 0.0
C841 C 0.59004 0.21086 0.41337 0.0
C842 C 0.59731 0.22542 0.39472 0.0
C843 C 0.62024 0.22502 0.38719 0.0
C844 C 0.58152 0.24203 0.38378 0.0
C845 C 0.56534 0.20992 0.42134 0.0
C846 C 0.57519 0.24023 0.3596 0.0
C847 C 0.5595 0.25557 0.34972 0.0
C848 C 0.55006 0.27303 0.36388 0.0
C849 C 0.55713 0.2751 0.38791 0.0
C850 C 0.5727 0.25977 0.39773 0.0
H851 H 0.56152 0.19403 0.43131 0.0
H852 H 0.56179 0.22448 0.43342 0.0
H853 H 0.55356 0.21113 0.40575 0.0
H854 H 0.58202 0.2267 0.34855 0.0
H855 H 0.55452 0.25352 0.33114 0.0
H856 H 0.28684 0.51587 0.93046 0.0
H857 H 0.31194 0.54263 0.90941 0.0
H858 H 0.3707 0.514 0.94531 0.0
H859 H 0.34607 0.48663 0.96544 0.0
H860 H 0.34126 0.57531 0.9267 0.0
H861 H 0.38948 0.51056 0.87544 0.0
H862 H 0.36315 0.50415 0.89101 0.0
H863 H 0.38992 0.50505 0.90706 0.0
C864 C 0.30513 0.51514 0.93368 0.0
C865 C 0.31443 0.49905 0.94958 0.0
C866 C 0.31941 0.53052 0.92176 0.0
C867 C 0.34319 0.52999 0.92548 0.0
C868 C 0.35243 0.51436 0.94179 0.0
H869 H 0.44695 0.63077 0.90233 0.0
H870 H 0.416 0.60683 0.91744 0.0
C871 C 0.33825 0.49894 0.95357 0.0
C872 C 0.35851 0.54586 0.9126 0.0
H873 H 0.40653 0.5475 0.87778 0.0
C874 C 0.35539 0.56929 0.91576 0.0
C875 C 0.37663 0.53795 0.89796 0.0
C876 C 0.37987 0.51306 0.89244 0.0
C877 C 0.37056 0.58502 0.9055 0.0
C878 C 0.38959 0.57702 0.89222 0.0
C879 C 0.39211 0.55362 0.88823 0.0
C880 C 0.40752 0.59245 0.88283 0.0
C881 C 0.36598 0.61003 0.90894 0.0
C882 C 0.41343 0.5919 0.85845 0.0
C883 C 0.4314 0.60526 0.84983 0.0
C884 C 0.44378 0.61947 0.86542 0.0
C885 C 0.43766 0.62015 0.8898 0.0
C886 C 0.41983 0.60661 0.89844 0.0
H887 H 0.34751 0.61333 0.91236 0.0
H888 H 0.37574 0.61618 0.92473 0.0
H889 H 0.37139 0.61999 0.89302 0.0
H890 H 0.40423 0.58099 0.84612 0.0
H891 H 0.43558 0.6044 0.83093 0.0
H892 H 0.68887 0.47268 0.47789 0.0
H893 H 0.66241 0.44639 0.45821 0.0
H894 H 0.66808 0.48462 0.39256 0.0
H895 H 0.69402 0.51135 0.41227 0.0
H896 H 0.62314 0.47803 0.40816 0.0
H897 H 0.6712 0.39669 0.40746 0.0
H898 H 0.67011 0.41041 0.4362 0.0
H899 H 0.68503 0.42382 0.41182 0.0
C900 C 0.68468 0.47533 0.45918 0.0
C901 C 0.69349 0.49412 0.44665 0.0
C902 C 0.66976 0.46017 0.4479 0.0
C903 C 0.66349 0.46346 0.42388 0.0
C904 C 0.67287 0.48172 0.41108 0.0
H905 H 0.558 0.40317 0.33368 0.0
H906 H 0.59 0.42552 0.34917 0.0
C907 C 0.6878 0.49688 0.42233 0.0
C908 C 0.64545 0.44924 0.41284 0.0
H909 H 0.63129 0.39469 0.39844 0.0
C910 C 0.62499 0.45984 0.4058 0.0
C911 C 0.6479 0.42552 0.41001 0.0
C912 C 0.66981 0.41342 0.41656 0.0
C913 C 0.60664 0.44726 0.39647 0.0
C914 C 0.60903 0.42352 0.3937 0.0
C915 C 0.62956 0.41291 0.4006 0.0
C916 C 0.59024 0.40939 0.384 0.0
C917 C 0.58462 0.45942 0.39032 0.0
C918 C 0.5802 0.3925 0.39825 0.0
C919 C 0.56197 0.37958 0.38945 0.0
C920 C 0.55348 0.38329 0.36615 0.0
C921 C 0.56391 0.39999 0.35178 0.0
C922 C 0.58217 0.41285 0.3606 0.0
H923 H 0.58363 0.47639 0.39897 0.0
H924 H 0.58369 0.4619 0.37063 0.0
H925 H 0.56948 0.44929 0.39593 0.0
H926 H 0.58628 0.38954 0.41634 0.0
H927 H 0.55444 0.36682 0.40099 0.0
H928 H 0.67355 0.52767 0.98776 0.0
H929 H 0.65025 0.55378 0.96386 0.0
H930 H 0.6605 0.51176 0.90146 0.0
H931 H 0.68318 0.48519 0.92534 0.0
H932 H 0.65886 0.57828 0.92012 0.0
H933 H 0.59022 0.51322 0.91088 0.0
H934 H 0.61327 0.51052 0.93226 0.0
H935 H 0.61827 0.50466 0.90109 0.0
C936 C 0.67092 0.52404 0.96893 0.0
C937 C 0.67998 0.50423 0.95851 0.0
C938 C 0.65776 0.53904 0.95528 0.0
C939 C 0.6534 0.53445 0.93104 0.0
C940 C 0.66344 0.51539 0.92025 0.0
H941 H 0.55436 0.59743 0.83456 0.0
H942 H 0.58568 0.57445 0.85065 0.0
C943 C 0.67658 0.50036 0.93387 0.0
C944 C 0.63714 0.54883 0.91756 0.0
H945 H 0.58401 0.54837 0.89197 0.0
C946 C 0.64254 0.57177 0.91383 0.0
C947 C 0.61589 0.5402 0.90943 0.0
C948 C 0.60888 0.51586 0.91373 0.0
C949 C 0.62713 0.58639 0.90221 0.0
C950 C 0.60567 0.57785 0.89455 0.0
C951 C 0.60051 0.55481 0.89783 0.0
C952 C 0.58778 0.59271 0.88423 0.0
C953 C 0.63397 0.61078 0.89815 0.0
C954 C 0.57849 0.61045 0.89789 0.0
C955 C 0.56058 0.62359 0.88882 0.0
C956 C 0.55147 0.61913 0.86593 0.0
C957 C 0.56091 0.60135 0.85224 0.0
C958 C 0.57885 0.58822 0.86137 0.0
H959 H 0.65289 0.61291 0.89852 0.0
H960 H 0.62738 0.61713 0.88071 0.0
H961 H 0.62661 0.62146 0.91262 0.0
H962 H 0.58478 0.61384 0.91581 0.0
H963 H 0.55373 0.63709 0.89989 0.0
H964 H 0.30269 0.51165 0.41045 0.0
H965 H 0.32863 0.48543 0.38996 0.0
H966 H 0.33662 0.44717 0.45533 0.0
H967 H 0.31019 0.47295 0.4758 0.0
H968 H 0.37404 0.47954 0.40421 0.0
H969 H 0.32742 0.39745 0.40472 0.0
H970 H 0.31324 0.42435 0.40952 0.0
H971 H 0.32885 0.41106 0.4335 0.0
C972 C 0.30943 0.49727 0.42029 0.0
C973 C 0.3044 0.49435 0.44475 0.0
C974 C 0.32436 0.48241 0.40859 0.0
C975 C 0.33436 0.46428 0.42108 0.0
C976 C 0.32877 0.46083 0.44526 0.0
H977 H 0.44425 0.36941 0.39968 0.0
H978 H 0.41213 0.39221 0.41407 0.0
C979 C 0.31386 0.47571 0.45699 0.0
C980 C 0.35237 0.45038 0.40955 0.0
H981 H 0.36739 0.39597 0.39557 0.0
C982 C 0.37251 0.4613 0.40204 0.0
C983 C 0.35031 0.42661 0.40691 0.0
C984 C 0.32871 0.41416 0.41388 0.0
C985 C 0.39099 0.44897 0.39262 0.0
C986 C 0.38906 0.42515 0.39027 0.0
C987 C 0.36878 0.41425 0.39743 0.0
C988 C 0.40822 0.41116 0.38112 0.0
C989 C 0.41271 0.46145 0.38609 0.0
C990 C 0.41648 0.41414 0.35772 0.0
C991 C 0.43495 0.40122 0.34943 0.0
C992 C 0.44536 0.38495 0.36437 0.0
C993 C 0.43674 0.38182 0.3877 0.0
C994 C 0.41833 0.39478 0.39596 0.0
H995 H 0.41332 0.47868 0.39419 0.0
H996 H 0.42808 0.45182 0.392 0.0
H997 H 0.4136 0.46339 0.36633 0.0
H998 H 0.40861 0.42643 0.34585 0.0
H999 H 0.44097 0.40395 0.33129 0.0
H1000 H 0.78803 0.01612 0.93017 0.0
H1001 H 0.81325 0.04264 0.90893 0.0
H1002 H 0.87208 0.0126 0.94339 0.0
H1003 H 0.84731 0.98547 0.96367 0.0
H1004 H 0.84327 0.07461 0.92607 0.0
H1005 H 0.88989 0.00984 0.87328 0.0
H1006 H 0.8637 0.00358 0.88919 0.0
H1007 H 0.89072 0.00392 0.9048 0.0
C1008 C 0.80636 0.01501 0.93301 0.0
C1009 C 0.81564 0.99862 0.94858 0.0
C1010 C 0.82071 0.03026 0.92099 0.0
C1011 C 0.84455 0.02928 0.92426 0.0
C1012 C 0.85378 0.01332 0.9402 0.0
H1013 H 0.94931 0.12906 0.90122 0.0
H1014 H 0.9183 0.10523 0.91637 0.0
C1015 C 0.83952 0.99803 0.95208 0.0
C1016 C 0.85992 0.04508 0.91136 0.0
H1017 H 0.90758 0.04648 0.876 0.0
C1018 C 0.85718 0.06852 0.91488 0.0
C1019 C 0.87776 0.0371 0.89639 0.0
C1020 C 0.88056 0.01224 0.89047 0.0
C1021 C 0.87247 0.08416 0.90466 0.0
C1022 C 0.89125 0.07605 0.89105 0.0
C1023 C 0.89337 0.05268 0.8867 0.0
C1024 C 0.9093 0.09135 0.88167 0.0
C1025 C 0.86828 0.10918 0.90848 0.0
C1026 C 0.91498 0.09101 0.85723 0.0
C1027 C 0.93299 0.1043 0.84858 0.0
C1028 C 0.94565 0.11824 0.86421 0.0
C1029 C 0.9398 0.11867 0.88867 0.0
C1030 C 0.92193 0.10519 0.89734 0.0
H1031 H 0.84989 0.1127 0.91212 0.0
H1032 H 0.87826 0.115 0.92426 0.0
H1033 H 0.87369 0.11927 0.89265 0.0
H1034 H 0.90554 0.08035 0.84486 0.0
H1035 H 0.93696 0.10365 0.82962 0.0
H1036 H 0.21239 0.98369 0.42919 0.0
H1037 H 0.18735 0.95716 0.40769 0.0
H1038 H 0.12825 0.98704 0.44183 0.0
H1039 H 0.15287 0.01412 0.46245 0.0
H1040 H 0.15704 0.92511 0.42475 0.0
H1041 H 0.11113 0.98991 0.37138 0.0
H1042 H 0.13726 0.99608 0.38744 0.0
H1043 H 0.11016 0.99593 0.40288 0.0
C1044 C 0.19404 0.98474 0.43192 0.0
C1045 C 0.18464 0.00107 0.44749 0.0
C1046 C 0.17979 0.9695 0.41974 0.0
C1047 C 0.15594 0.97044 0.42285 0.0
C1048 C 0.14658 0.98635 0.43879 0.0
H1049 H 0.05044 0.87186 0.40052 0.0
H1050 H 0.08185 0.89541 0.41519 0.0
C1051 C 0.16074 0.00161 0.45085 0.0
C1052 C 0.14066 0.95465 0.40979 0.0
H1053 H 0.09323 0.95334 0.37406 0.0
C1054 C 0.14325 0.93122 0.41342 0.0
C1055 C 0.12298 0.96266 0.39462 0.0
C1056 C 0.12034 0.98751 0.38863 0.0
C1057 C 0.12793 0.91562 0.40318 0.0
C1058 C 0.10927 0.92376 0.38941 0.0
C1059 C 0.10735 0.94712 0.38488 0.0
C1060 C 0.09104 0.90855 0.38025 0.0
C1061 C 0.13189 0.89059 0.40721 0.0
C1062 C 0.08536 0.90856 0.35581 0.0
C1063 C 0.06714 0.89539 0.34739 0.0
C1064 C 0.05424 0.88195 0.36329 0.0
C1065 C 0.06011 0.88186 0.38775 0.0
C1066 C 0.07821 0.89518 0.39616 0.0
H1067 H 0.15024 0.88695 0.41093 0.0
H1068 H 0.12182 0.88499 0.42302 0.0
H1069 H 0.12642 0.88042 0.39145 0.0
H1070 H 0.09496 0.91888 0.34325 0.0
H1071 H 0.06315 0.8958 0.32843 0.0
H1072 H 0.20148 0.01731 0.95358 0.0
H1073 H 0.17996 0.04608 0.93093 0.0
H1074 H 0.11656 0.01302 0.95007 0.0
H1075 H 0.13779 0.98456 0.97276 0.0
H1076 H 0.14965 0.04212 0.89264 0.0
H1077 H 0.10591 0.07799 0.9721 0.0
H1078 H 0.13026 0.05923 0.97451 0.0
H1079 H 0.10196 0.04787 0.96979 0.0
C1080 C 0.18295 0.01623 0.95288 0.0
C1081 C 0.17125 0.99896 0.96524 0.0
C1082 C 0.17071 0.03264 0.93999 0.0
C1083 C 0.14666 0.03193 0.9393 0.0
C1084 C 0.13507 0.01424 0.95096 0.0
H1085 H 0.04725 0.08969 0.84391 0.0
H1086 H 0.07727 0.06694 0.86284 0.0
C1087 C 0.14722 0.99801 0.96392 0.0
C1088 C 0.13342 0.04952 0.92643 0.0
H1089 H 0.08935 0.08683 0.93395 0.0
C1090 C 0.13665 0.05215 0.90166 0.0
C1091 C 0.11681 0.06289 0.93834 0.0
C1092 C 0.11368 0.06205 0.96519 0.0
C1093 C 0.12293 0.0671 0.88827 0.0
C1094 C 0.10522 0.07926 0.89996 0.0
C1095 C 0.10273 0.07732 0.92491 0.0
C1096 C 0.08856 0.09362 0.88683 0.0
C1097 C 0.12759 0.06971 0.86182 0.0
C1098 C 0.08464 0.11606 0.89426 0.0
C1099 C 0.06717 0.12889 0.88388 0.0
C1100 C 0.05334 0.11959 0.86571 0.0
C1101 C 0.05771 0.09736 0.85776 0.0
C1102 C 0.07501 0.0844 0.86842 0.0
H1103 H 0.14573 0.06566 0.85748 0.0
H1104 H 0.11658 0.05769 0.8517 0.0
H1105 H 0.12379 0.08721 0.85559 0.0
H1106 H 0.09484 0.12351 0.90846 0.0
H1107 H 0.06437 0.14604 0.89024 0.0
H1108 H 0.80716 0.01605 0.40789 0.0
H1109 H 0.83295 0.98967 0.3874 0.0
H1110 H 0.83904 0.95019 0.45219 0.0
H1111 H 0.81276 0.97613 0.47263 0.0
H1112 H 0.87803 0.982 0.40184 0.0
H1113 H 0.82852 0.90161 0.40073 0.0
H1114 H 0.81528 0.92891 0.40588 0.0
H1115 H 0.8302 0.91469 0.42976 0.0
C1116 C 0.8135 0.00141 0.4176 0.0
C1117 C 0.80791 0.99814 0.44188 0.0
C1118 C 0.82834 0.98646 0.40591 0.0
C1119 C 0.8377 0.96789 0.41821 0.0
C1120 C 0.83168 0.96421 0.44225 0.0
H1121 H 0.94427 0.86962 0.39769 0.0
H1122 H 0.91281 0.89355 0.41157 0.0
C1123 C 0.81686 0.97916 0.45397 0.0
C1124 C 0.85532 0.95354 0.40663 0.0
H1125 H 0.86855 0.89879 0.39217 0.0
C1126 C 0.87589 0.96384 0.39943 0.0
C1127 C 0.85243 0.92989 0.40364 0.0
C1128 C 0.83034 0.91811 0.4102 0.0
C1129 C 0.89402 0.95097 0.39006 0.0
C1130 C 0.89129 0.92725 0.38745 0.0
C1131 C 0.87056 0.917 0.39423 0.0
C1132 C 0.9101 0.91265 0.37858 0.0
C1133 C 0.91624 0.96275 0.38389 0.0
C1134 C 0.91883 0.91536 0.35533 0.0
C1135 C 0.93693 0.90177 0.34733 0.0
C1136 C 0.9465 0.88512 0.36241 0.0
C1137 C 0.93742 0.8823 0.3856 0.0
C1138 C 0.91938 0.89592 0.39357 0.0
H1139 H 0.9173 0.97995 0.392 0.0
H1140 H 0.93118 0.95262 0.39004 0.0
H1141 H 0.91748 0.96464 0.36414 0.0
H1142 H 0.9116 0.92793 0.34335 0.0
H1143 H 0.94334 0.90428 0.3293 0.0
H1144 H 0.31431 0.34269 0.10928 0.0
H1145 H 0.33647 0.32651 0.14239 0.0
H1146 H 0.33741 0.39187 0.17731 0.0
H1147 H 0.31457 0.40789 0.14484 0.0
H1148 H 0.37934 0.33988 0.15344 0.0
H1149 H 0.32439 0.35063 0.23326 0.0
H1150 H 0.31328 0.35265 0.20312 0.0
H1151 H 0.32706 0.3767 0.21693 0.0
C1152 C 0.31861 0.35343 0.12439 0.0
C1153 C 0.31277 0.3766 0.1244 0.0
C1154 C 0.33139 0.34419 0.14321 0.0
C1155 C 0.33838 0.35791 0.16245 0.0
C1156 C 0.3318 0.38082 0.16294 0.0
H1157 H 0.44145 0.37022 0.26674 0.0
H1158 H 0.40952 0.37263 0.23867 0.0
C1159 C 0.319 0.39004 0.14419 0.0
C1160 C 0.35476 0.34918 0.18055 0.0
H1161 H 0.36525 0.34782 0.24073 0.0
C1162 C 0.37609 0.3411 0.17254 0.0
C1163 C 0.35047 0.35077 0.20545 0.0
C1164 C 0.32745 0.35794 0.21518 0.0
C1165 C 0.39373 0.33594 0.18874 0.0
C1166 C 0.38982 0.33878 0.21355 0.0
C1167 C 0.36818 0.34579 0.22164 0.0
C1168 C 0.40862 0.33663 0.23114 0.0
C1169 C 0.41682 0.32871 0.17921 0.0
C1170 C 0.41855 0.3155 0.23629 0.0
C1171 C 0.43689 0.314 0.25239 0.0
C1172 C 0.44561 0.33366 0.26351 0.0
C1173 C 0.43535 0.35474 0.25841 0.0
C1174 C 0.417 0.35618 0.24246 0.0
H1175 H 0.41783 0.33 0.15937 0.0
H1176 H 0.4306 0.3393 0.18718 0.0
H1177 H 0.42012 0.31081 0.18437 0.0
H1178 H 0.41215 0.30022 0.22781 0.0
H1179 H 0.44431 0.2975 0.25596 0.0
H1180 H 0.70434 0.63759 0.63257 0.0
H1181 H 0.6826 0.65504 0.6654 0.0
H1182 H 0.61993 0.62766 0.63624 0.0
H1183 H 0.64124 0.61113 0.603 0.0
H1184 H 0.61545 0.67214 0.65098 0.0
H1185 H 0.6564 0.61897 0.72156 0.0
H1186 H 0.67535 0.63584 0.70345 0.0
H1187 H 0.65962 0.6129 0.69004 0.0
C1188 C 0.6859 0.63551 0.63304 0.0
C1189 C 0.67455 0.6227 0.61535 0.0
C1190 C 0.67354 0.64532 0.65191 0.0
C1191 C 0.64971 0.64234 0.65342 0.0
C1192 C 0.63834 0.63007 0.63547 0.0
H1193 H 0.55031 0.63224 0.76019 0.0
H1194 H 0.58094 0.62946 0.73081 0.0
C1195 C 0.65059 0.62039 0.61662 0.0
C1196 C 0.63632 0.65127 0.67391 0.0
H1197 H 0.6263 0.64277 0.7335 0.0
C1198 C 0.61799 0.66604 0.66913 0.0
C1199 C 0.63971 0.64315 0.69751 0.0
C1200 C 0.65871 0.62672 0.70356 0.0
C1201 C 0.6022 0.67198 0.68704 0.0
C1202 C 0.60515 0.66325 0.71045 0.0
C1203 C 0.62418 0.64947 0.71552 0.0
C1204 C 0.58719 0.66563 0.72903 0.0
C1205 C 0.58173 0.68635 0.68041 0.0
C1206 C 0.58062 0.68695 0.73796 0.0
C1207 C 0.56284 0.68867 0.75475 0.0
C1208 C 0.55152 0.66905 0.76299 0.0
C1209 C 0.55856 0.64774 0.75428 0.0
C1210 C 0.57616 0.64608 0.7375 0.0
H1211 H 0.57997 0.68841 0.6607 0.0
H1212 H 0.56569 0.67873 0.6875 0.0
H1213 H 0.58365 0.70347 0.68846 0.0
H1214 H 0.58919 0.70222 0.73193 0.0
H1215 H 0.558 0.70532 0.76123 0.0
H1216 H 0.70766 0.35692 0.13779 0.0
H1217 H 0.68205 0.34708 0.17115 0.0
H1218 H 0.62439 0.34698 0.12262 0.0
H1219 H 0.64978 0.3576 0.08962 0.0
H1220 H 0.61595 0.37254 0.1601 0.0
H1221 H 0.64987 0.28995 0.19184 0.0
H1222 H 0.67119 0.3119 0.1911 0.0
H1223 H 0.6583 0.30233 0.16359 0.0
C1224 C 0.68957 0.35435 0.13429 0.0
C1225 C 0.68058 0.35807 0.11129 0.0
C1226 C 0.67498 0.34862 0.15328 0.0
C1227 C 0.65131 0.34606 0.14936 0.0
C1228 C 0.64257 0.34887 0.12609 0.0
H1229 H 0.54654 0.29901 0.24846 0.0
H1230 H 0.57592 0.30198 0.21723 0.0
C1231 C 0.65704 0.35493 0.10727 0.0
C1232 C 0.63521 0.34266 0.16963 0.0
H1233 H 0.62257 0.30835 0.21719 0.0
C1234 C 0.61736 0.35841 0.17249 0.0
C1235 C 0.63693 0.32414 0.18568 0.0
C1236 C 0.65497 0.30598 0.1828 0.0
C1237 C 0.60121 0.35624 0.19092 0.0
C1238 C 0.6034 0.33823 0.20752 0.0
C1239 C 0.62112 0.32231 0.20461 0.0
C1240 C 0.58715 0.33556 0.22774 0.0
C1241 C 0.58165 0.37302 0.19202 0.0
C1242 C 0.58422 0.35315 0.24441 0.0
C1243 C 0.56728 0.35167 0.262 0.0
C1244 C 0.55322 0.33233 0.26355 0.0
C1245 C 0.55703 0.31417 0.24766 0.0
C1246 C 0.57382 0.31581 0.22984 0.0
H1247 H 0.57875 0.38139 0.17442 0.0
H1248 H 0.56546 0.36464 0.19762 0.0
H1249 H 0.58579 0.38648 0.20525 0.0
H1250 H 0.59475 0.36828 0.24352 0.0
H1251 H 0.56507 0.36578 0.27424 0.0
H1252 H 0.29384 0.63683 0.63126 0.0
H1253 H 0.31511 0.65484 0.66406 0.0
H1254 H 0.37857 0.62999 0.63423 0.0
H1255 H 0.35767 0.61285 0.60105 0.0
H1256 H 0.34145 0.63459 0.69755 0.0
H1257 H 0.39446 0.69554 0.64691 0.0
H1258 H 0.36981 0.68167 0.6339 0.0
H1259 H 0.39722 0.66755 0.63462 0.0
C1260 C 0.31236 0.63556 0.63149 0.0
C1261 C 0.32406 0.62336 0.61357 0.0
C1262 C 0.32446 0.64578 0.65027 0.0
C1263 C 0.34845 0.64414 0.65132 0.0
C1264 C 0.36012 0.63199 0.63346 0.0
H1265 H 0.44354 0.63242 0.76221 0.0
H1266 H 0.4128 0.6298 0.73299 0.0
C1267 C 0.34809 0.62185 0.61471 0.0
C1268 C 0.36138 0.65354 0.6719 0.0
H1269 H 0.40964 0.68363 0.68548 0.0
C1270 C 0.35608 0.64571 0.69499 0.0
C1271 C 0.38014 0.66848 0.6687 0.0
C1272 C 0.38556 0.67899 0.6447 0.0
C1273 C 0.3701 0.65099 0.71464 0.0
C1274 C 0.39018 0.664 0.71094 0.0
C1275 C 0.39446 0.67332 0.68824 0.0
C1276 C 0.40808 0.6661 0.72962 0.0
C1277 C 0.36356 0.64208 0.73906 0.0
C1278 C 0.41616 0.68745 0.73697 0.0
C1279 C 0.43407 0.68907 0.7536 0.0
C1280 C 0.44428 0.66932 0.76301 0.0
C1281 C 0.43607 0.64801 0.75552 0.0
C1282 C 0.41828 0.64644 0.73893 0.0
H1283 H 0.34469 0.63996 0.74061 0.0
H1284 H 0.37151 0.62515 0.74174 0.0
H1285 H 0.36952 0.65357 0.75356 0.0
H1286 H 0.40867 0.70284 0.72977 0.0
H1287 H 0.43998 0.70575 0.75895 0.0
H1288 H 0.81836 0.90651 0.14308 0.0
H1289 H 0.8412 0.88955 0.1751 0.0
H1290 H 0.83628 0.82417 0.14063 0.0
H1291 H 0.81421 0.84121 0.10794 0.0
H1292 H 0.83406 0.85402 0.20729 0.0
H1293 H 0.90537 0.83495 0.14396 0.0
H1294 H 0.88156 0.85291 0.13584 0.0
H1295 H 0.87806 0.82262 0.13676 0.0
C1296 C 0.8221 0.88851 0.14232 0.0
C1297 C 0.8148 0.87529 0.12277 0.0
C1298 C 0.83499 0.87881 0.16072 0.0
C1299 C 0.84079 0.85571 0.15997 0.0
C1300 C 0.83235 0.84213 0.14129 0.0
H1301 H 0.94601 0.79493 0.25358 0.0
H1302 H 0.9137 0.79741 0.22552 0.0
C1303 C 0.81952 0.85185 0.12277 0.0
C1304 C 0.85689 0.84647 0.17801 0.0
H1305 H 0.91182 0.82737 0.18465 0.0
C1306 C 0.85095 0.84789 0.20234 0.0
C1307 C 0.87892 0.83844 0.17147 0.0
C1308 C 0.88653 0.83725 0.14563 0.0
C1309 C 0.86674 0.84228 0.22035 0.0
C1310 C 0.88906 0.83529 0.21381 0.0
C1311 C 0.89463 0.8327 0.18952 0.0
C1312 C 0.90762 0.83317 0.2317 0.0
C1313 C 0.85963 0.84439 0.24625 0.0
C1314 C 0.91499 0.85251 0.24413 0.0
C1315 C 0.93347 0.85123 0.25991 0.0
C1316 C 0.94501 0.83054 0.26359 0.0
C1317 C 0.93748 0.8111 0.2512 0.0
C1318 C 0.91902 0.81246 0.23521 0.0
H1319 H 0.84071 0.84334 0.24828 0.0
H1320 H 0.8677 0.83095 0.25737 0.0
H1321 H 0.86526 0.86114 0.25324 0.0
H1322 H 0.90669 0.86874 0.24129 0.0
H1323 H 0.93871 0.86654 0.26918 0.0
H1324 H 0.18388 0.15745 0.60718 0.0
H1325 H 0.16194 0.17414 0.6402 0.0
H1326 H 0.16021 0.10906 0.67559 0.0
H1327 H 0.18273 0.09247 0.64313 0.0
H1328 H 0.11867 0.16094 0.65181 0.0
H1329 H 0.1748 0.15112 0.73092 0.0
H1330 H 0.18547 0.14893 0.70061 0.0
H1331 H 0.17187 0.12497 0.71473 0.0
C1332 C 0.17941 0.14686 0.62235 0.0
C1333 C 0.18498 0.12362 0.62254 0.0
C1334 C 0.16677 0.1564 0.64112 0.0
C1335 C 0.15968 0.14291 0.66048 0.0
C1336 C 0.16591 0.11991 0.6611 0.0
H1337 H 0.05925 0.13207 0.76722 0.0
H1338 H 0.09094 0.12967 0.73891 0.0
C1339 C 0.17853 0.11037 0.64237 0.0
C1340 C 0.14363 0.15204 0.67867 0.0
H1341 H 0.13416 0.15451 0.73898 0.0
C1342 C 0.12221 0.16005 0.67088 0.0
C1343 C 0.14833 0.15088 0.7035 0.0
C1344 C 0.17147 0.14373 0.71293 0.0
C1345 C 0.10484 0.16552 0.68728 0.0
C1346 C 0.10915 0.16312 0.71208 0.0
C1347 C 0.13092 0.15622 0.71991 0.0
C1348 C 0.0906 0.16539 0.72997 0.0
C1349 C 0.08159 0.17252 0.67798 0.0
C1350 C 0.08007 0.18638 0.73447 0.0
C1351 C 0.06182 0.18786 0.75069 0.0
C1352 C 0.05383 0.16834 0.76263 0.0
C1353 C 0.06478 0.14744 0.75827 0.0
C1354 C 0.083 0.14602 0.74217 0.0
H1355 H 0.08018 0.17052 0.65823 0.0
H1356 H 0.0679 0.1623 0.68664 0.0
H1357 H 0.07849 0.19062 0.68247 0.0
H1358 H 0.0859 0.20155 0.72536 0.0
H1359 H 0.05387 0.20423 0.7537 0.0
H1360 H 0.21176 0.84203 0.13807 0.0
H1361 H 0.18829 0.8285 0.17173 0.0
H1362 H 0.12698 0.84776 0.13354 0.0
H1363 H 0.15009 0.86049 0.0998 0.0
H1364 H 0.15949 0.85395 0.19912 0.0
H1365 H 0.11028 0.7849 0.15643 0.0
H1366 H 0.13584 0.7967 0.14307 0.0
H1367 H 0.10849 0.81042 0.13904 0.0
C1368 C 0.19325 0.84293 0.13672 0.0
C1369 C 0.18276 0.85244 0.11637 0.0
C1370 C 0.1799 0.83529 0.15596 0.0
C1371 C 0.15588 0.83679 0.15497 0.0
C1372 C 0.14544 0.84593 0.13449 0.0
H1373 H 0.05339 0.86338 0.25726 0.0
H1374 H 0.08537 0.86286 0.22921 0.0
C1375 C 0.1587 0.85352 0.11535 0.0
C1376 C 0.14154 0.83071 0.17592 0.0
H1377 H 0.09244 0.8027 0.191 0.0
C1378 C 0.1451 0.84238 0.19753 0.0
C1379 C 0.12304 0.81529 0.17402 0.0
C1380 C 0.11935 0.80094 0.15195 0.0
C1381 C 0.12968 0.84026 0.2167 0.0
C1382 C 0.10996 0.82651 0.21392 0.0
C1383 C 0.10733 0.81357 0.19297 0.0
C1384 C 0.09107 0.82662 0.23167 0.0
C1385 C 0.13445 0.85313 0.23956 0.0
C1386 C 0.08313 0.80629 0.24181 0.0
C1387 C 0.06455 0.80645 0.25767 0.0
C1388 C 0.05354 0.82698 0.2636 0.0
C1389 C 0.06153 0.84727 0.25328 0.0
C1390 C 0.07998 0.84706 0.23737 0.0
H1391 H 0.15313 0.85604 0.24198 0.0
H1392 H 0.126 0.86999 0.23865 0.0
H1393 H 0.12778 0.84393 0.25547 0.0
H1394 H 0.09131 0.79029 0.23745 0.0
H1395 H 0.05888 0.79051 0.26529 0.0
H1396 H 0.81743 0.1551 0.60383 0.0
H1397 H 0.83954 0.17137 0.63693 0.0
H1398 H 0.84542 0.10506 0.66909 0.0
H1399 H 0.8226 0.0888 0.63662 0.0
H1400 H 0.83697 0.13976 0.70237 0.0
H1401 H 0.90892 0.1616 0.64094 0.0
H1402 H 0.88149 0.17352 0.63345 0.0
H1403 H 0.88564 0.14333 0.63196 0.0
C1404 C 0.82302 0.14405 0.6182 0.0
C1405 C 0.81848 0.12059 0.61746 0.0
C1406 C 0.83587 0.15335 0.63695 0.0
C1407 C 0.84449 0.13933 0.65516 0.0
C1408 C 0.83906 0.11613 0.65508 0.0
H1409 H 0.94029 0.13095 0.76769 0.0
H1410 H 0.90911 0.12746 0.73892 0.0
C1411 C 0.82618 0.10684 0.63642 0.0
C1412 C 0.86015 0.14837 0.67374 0.0
H1413 H 0.91431 0.16899 0.6819 0.0
C1414 C 0.85378 0.1464 0.69791 0.0
C1415 C 0.88206 0.15708 0.66782 0.0
C1416 C 0.89011 0.1589 0.64217 0.0
C1417 C 0.869 0.15229 0.71636 0.0
C1418 C 0.89122 0.16006 0.71044 0.0
C1419 C 0.89723 0.16304 0.68631 0.0
C1420 C 0.90924 0.16292 0.72884 0.0
C1421 C 0.86135 0.14975 0.74205 0.0
C1422 C 0.91994 0.18399 0.73239 0.0
C1423 C 0.93793 0.18609 0.74886 0.0
C1424 C 0.9457 0.16704 0.76175 0.0
C1425 C 0.93484 0.14599 0.75807 0.0
C1426 C 0.91683 0.14397 0.74178 0.0
H1427 H 0.84236 0.15029 0.7436 0.0
H1428 H 0.86725 0.13309 0.749 0.0
H1429 H 0.86878 0.16329 0.75352 0.0
H1430 H 0.91443 0.19875 0.72234 0.0
H1431 H 0.94594 0.20252 0.75121 0.0
loop_
_geom_bond_atom_site_label_1
_geom_bond_atom_site_label_2
_geom_bond_distance
_geom_bond_site_symmetry_2
_ccdc_geom_bond_type
C0 C1 1.391 . S
C0 C4 1.391 . S
C0 H42 0.948 . S
C1 C0 1.391 . S
C1 C2 1.391 . S
C2 C1 1.391 . S
C2 H58 0.947 . S
C2 C59 1.392 . S
C3 C4 1.391 . S
C3 C7 1.397 . S
C3 C59 1.419 . S
C4 C0 1.391 . S
C4 C3 1.391 . S
C4 C5 1.399 . S
C5 C4 1.399 . S
C5 C8 1.396 . S
C5 C17 1.453 . S
C5 C18 1.684 . S
H6 C30 0.948 . S
C7 C3 1.397 . S
C7 C8 1.394 . S
C7 C26 1.723 . S
C8 C5 1.396 . S
C8 C7 1.394 . S
C8 C38 1.723 . S
H9 C32 0.947 1_554 S
H10 C33 0.948 . S
H11 C39 0.982 . S
H12 C40 0.979 . S
H13 C40 0.980 . S
H14 C40 0.983 . S
H15 C39 0.979 . S
H16 C39 0.977 . S
C17 C5 1.453 . S
C17 H46 0.982 . S
C17 H47 0.979 . S
C17 H48 0.977 . S
C18 C5 1.684 . S
C18 H43 0.979 . S
C18 H44 0.980 . S
C18 H45 0.983 . S
C19 C20 1.391 . S
C19 C24 1.391 . S
C19 H49 0.948 . S
C20 C19 1.391 . S
C20 C21 1.391 . S
C21 C20 1.391 . S
C21 C22 1.392 . S
C21 H50 0.947 . S
C22 C21 1.392 . S
C22 C23 1.419 . S
C22 H51 0.948 . S
C23 C22 1.419 . S
C23 C24 1.391 . S
C23 C27 1.397 . S
C24 C19 1.391 . S
C24 C23 1.391 . S
C24 C25 1.399 1_556 S
C25 C24 1.399 1_554 S
C25 C26 1.396 . S
C25 C28 1.453 . S
C25 C29 1.684 . S
C26 C7 1.723 . S
C26 C25 1.396 . S
C26 C27 1.394 1_554 S
C27 C23 1.397 . S
C27 C26 1.394 1_556 S
C27 C37 1.723 . S
C28 C25 1.453 . S
C28 H52 0.982 . S
C28 H53 0.979 . S
C28 H54 0.977 . S
C29 C25 1.684 . S
C29 H55 0.979 . S
C29 H56 0.980 . S
C29 H57 0.983 . S
C30 H6 0.948 . S
C30 C31 1.391 . S
C30 C35 1.391 . S
C31 C30 1.391 . S
C31 C32 1.391 . S
C32 H9 0.947 1_556 S
C32 C31 1.391 . S
C32 C33 1.392 1_556 S
C33 H10 0.948 . S
C33 C32 1.392 1_554 S
C33 C34 1.419 1_554 S
C34 C33 1.419 1_556 S
C34 C35 1.391 . S
C34 C38 1.397 1_556 S
C35 C30 1.391 . S
C35 C34 1.391 . S
C35 C36 1.399 . S
C36 C35 1.399 . S
C36 C37 1.396 . S
C36 C39 1.453 . S
C36 C40 1.684 . S
C37 C27 1.723 . S
C37 C36 1.396 . S
C37 C38 1.394 1_556 S
C38 C8 1.723 . S
C38 C34 1.397 1_554 S
C38 C37 1.394 1_554 S
C39 H11 0.982 . S
C39 H15 0.979 . S
C39 H16 0.977 . S
C39 C36 1.453 . S
C40 H12 0.979 . S
C40 H13 0.980 . S
C40 H14 0.983 . S
C40 C36 1.684 . S
H41 C59 0.948 . S
H42 C0 0.948 . S
H43 C18 0.979 . S
H44 C18 0.980 . S
H45 C18 0.983 . S
H46 C17 0.982 . S
H47 C17 0.979 . S
H48 C17 0.977 . S
H49 C19 0.948 . S
H50 C21 0.947 . S
H51 C22 0.948 . S
H52 C28 0.982 . S
H53 C28 0.979 . S
H54 C28 0.977 . S
H55 C29 0.979 . S
H56 C29 0.980 . S
H57 C29 0.983 . S
H58 C2 0.947 . S
C59 C2 1.392 . S
C59 C3 1.419 . S
C59 H41 0.948 . S
C60 C61 1.391 . S
C60 C64 1.391 . S
C60 H102 0.948 . S
C61 C60 1.391 . S
C61 C62 1.391 . S
C62 C61 1.391 . S
C62 H118 0.947 . S
C62 C119 1.392 . S
C63 C64 1.391 . S
C63 C67 1.397 . S
C63 C119 1.419 . S
C64 C60 1.391 . S
C64 C63 1.391 . S
C64 C65 1.399 . S
C65 C64 1.399 . S
C65 C68 1.396 . S
C65 C77 1.453 . S
C65 C78 1.684 . S
H66 C90 0.948 . S
C67 C63 1.397 . S
C67 C68 1.394 . S
C67 C86 1.723 . S
C68 C65 1.396 . S
C68 C67 1.394 . S
C68 C98 1.723 . S
H69 C92 0.947 . S
H70 C93 0.948 . S
H71 C99 0.982 . S
H72 C100 0.979 . S
H73 C100 0.980 . S
H74 C100 0.983 . S
H75 C99 0.979 . S
H76 C99 0.977 . S
C77 C65 1.453 . S
C77 H106 0.982 . S
C77 H107 0.979 . S
C77 H108 0.977 . S
C78 C65 1.684 . S
C78 H103 0.979 . S
C78 H104 0.980 . S
C78 H105 0.983 . S
C79 C80 1.391 . S
C79 C84 1.391 . S
C79 H109 0.948 . S
C80 C79 1.391 . S
C80 C81 1.391 . S
C81 C80 1.391 . S
C81 C82 1.392 . S
C81 H110 0.947 . S
C82 C81 1.392 . S
C82 C83 1.419 . S
C82 H111 0.948 . S
C83 C82 1.419 . S
C83 C84 1.391 . S
C83 C87 1.397 . S
C84 C79 1.391 . S
C84 C83 1.391 . S
C84 C85 1.399 . S
C85 C84 1.399 . S
C85 C86 1.396 . S
C85 C88 1.453 . S
C85 C89 1.684 . S
C86 C67 1.723 . S
C86 C85 1.396 . S
C86 C87 1.394 . S
C87 C83 1.397 . S
C87 C86 1.394 . S
C87 C97 1.723 . S
C88 C85 1.453 . S
C88 H112 0.982 . S
C88 H113 0.979 . S
C88 H114 0.977 . S
C89 C85 1.684 . S
C89 H115 0.979 . S
C89 H116 0.980 . S
C89 H117 0.983 . S
C90 H66 0.948 . S
C90 C91 1.391 . S
C90 C95 1.391 . S
C91 C90 1.391 . S
C91 C92 1.391 . S
C92 H69 0.947 . S
C92 C91 1.391 . S
C92 C93 1.392 . S
C93 H70 0.948 . S
C93 C92 1.392 . S
C93 C94 1.419 . S
C94 C93 1.419 . S
C94 C95 1.391 . S
C94 C98 1.397 . S
C95 C90 1.391 . S
C95 C94 1.391 . S
C95 C96 1.399 . S
C96 C95 1.399 . S
C96 C97 1.396 . S
C96 C99 1.453 . S
C96 C100 1.684 . S
C97 C87 1.723 . S
C97 C96 1.396 . S
C97 C98 1.394 . S
C98 C68 1.723 . S
C98 C94 1.397 . S
C98 C97 1.394 . S
C99 H71 0.982 . S
C99 H75 0.979 . S
C99 H76 0.977 . S
C99 C96 1.453 . S
C100 H72 0.979 . S
C100 H73 0.980 . S
C100 H74 0.983 . S
C100 C96 1.684 . S
H101 C119 0.948 . S
H102 C60 0.948 . S
H103 C78 0.979 . S
H104 C78 0.980 . S
H105 C78 0.983 . S
H106 C77 0.982 . S
H107 C77 0.979 . S
H108 C77 0.977 . S
H109 C79 0.948 . S
H110 C81 0.947 . S
H111 C82 0.948 . S
H112 C88 0.982 . S
H113 C88 0.979 . S
H114 C88 0.977 . S
H115 C89 0.979 . S
H116 C89 0.980 . S
H117 C89 0.983 . S
H118 C62 0.947 . S
C119 C62 1.392 . S
C119 C63 1.419 . S
C119 H101 0.948 . S
C120 C121 1.391 . S
C120 C124 1.391 . S
C120 H162 0.948 . S
C121 C120 1.391 . S
C121 C122 1.391 . S
C122 C121 1.391 . S
C122 H178 0.947 . S
C122 C179 1.392 . S
C123 C124 1.391 . S
C123 C127 1.382 1_556 S
C123 C179 1.419 . S
C124 C120 1.391 . S
C124 C123 1.391 . S
C124 C125 1.399 . S
C125 C124 1.399 . S
C125 C128 1.396 . S
C125 C137 1.453 . S
C125 C138 1.684 . S
H126 C150 0.934 1_554 S
C127 C123 1.382 1_554 S
C127 C128 1.373 1_554 S
C127 C146 1.754 . S
C128 C125 1.396 . S
C128 C127 1.373 1_556 S
C128 C158 1.723 . S
H129 C152 0.947 . S
H130 C153 0.948 . S
H131 C159 0.982 . S
H132 C160 0.979 . S
H133 C160 0.980 . S
H134 C160 0.983 . S
H135 C159 0.979 . S
H136 C159 0.977 . S
C137 C125 1.453 . S
C137 H166 0.982 . S
C137 H167 0.979 . S
C137 H168 0.977 . S
C138 C125 1.684 . S
C138 H163 0.979 . S
C138 H164 0.980 . S
C138 H165 0.983 . S
C139 C140 1.391 . S
C139 C144 1.391 . S
C139 H169 0.948 . S
C140 C139 1.391 . S
C140 C141 1.391 . S
C141 C140 1.391 . S
C141 C142 1.392 . S
C141 H170 0.947 . S
C142 C141 1.392 . S
C142 C143 1.419 . S
C142 H171 0.948 . S
C143 C142 1.419 . S
C143 C144 1.391 . S
C143 C147 1.397 . S
C144 C139 1.391 . S
C144 C143 1.391 . S
C144 C145 1.399 . S
C145 C144 1.399 . S
C145 C146 1.396 . S
C145 C148 1.453 . S
C145 C149 1.684 . S
C146 C127 1.754 . S
C146 C145 1.396 . S
C146 C147 1.394 . S
C147 C143 1.397 . S
C147 C146 1.394 . S
C147 C157 1.723 . S
C148 C145 1.453 . S
C148 H172 0.982 . S
C148 H173 0.979 . S
C148 H174 0.977 . S
C149 C145 1.684 . S
C149 H175 0.979 . S
C149 H176 0.980 . S
C149 H177 0.983 . S
C150 H126 0.934 1_556 S
C150 C151 1.391 . S
C150 C155 1.391 . S
C151 C150 1.391 . S
C151 C152 1.391 . S
C152 H129 0.947 . S
C152 C151 1.391 . S
C152 C153 1.392 . S
C153 H130 0.948 . S
C153 C152 1.392 . S
C153 C154 1.419 . S
C154 C153 1.419 . S
C154 C155 1.391 . S
C154 C158 1.397 . S
C155 C150 1.391 . S
C155 C154 1.391 . S
C155 C156 1.399 1_556 S
C156 C155 1.399 1_554 S
C156 C157 1.396 . S
C156 C159 1.453 . S
C156 C160 1.684 . S
C157 C147 1.723 . S
C157 C156 1.396 . S
C157 C158 1.394 1_554 S
C158 C128 1.723 . S
C158 C154 1.397 . S
C158 C157 1.394 1_556 S
C159 H131 0.982 . S
C159 H135 0.979 . S
C159 H136 0.977 . S
C159 C156 1.453 . S
C160 H132 0.979 . S
C160 H133 0.980 . S
C160 H134 0.983 . S
C160 C156 1.684 . S
H161 C179 0.948 1_554 S
H162 C120 0.948 . S
H163 C138 0.979 . S
H164 C138 0.980 . S
H165 C138 0.983 . S
H166 C137 0.982 . S
H167 C137 0.979 . S
H168 C137 0.977 . S
H169 C139 0.948 . S
H170 C141 0.947 . S
H171 C142 0.948 . S
H172 C148 0.982 . S
H173 C148 0.979 . S
H174 C148 0.977 . S
H175 C149 0.979 . S
H176 C149 0.980 . S
H177 C149 0.983 . S
H178 C122 0.947 . S
C179 C122 1.392 . S
C179 C123 1.419 . S
C179 H161 0.948 1_556 S
C180 C181 1.391 . S
C180 C184 1.391 . S
C180 H222 0.948 . S
C181 C180 1.391 . S
C181 C182 1.391 . S
C182 C181 1.391 . S
C182 H238 0.947 . S
C182 C239 1.392 . S
C183 C184 1.391 . S
C183 C187 1.397 . S
C183 C239 1.419 . S
C184 C180 1.391 . S
C184 C183 1.391 . S
C184 C185 1.399 . S
C185 C184 1.399 . S
C185 C188 1.396 . S
C185 C197 1.453 . S
C185 C198 1.684 . S
H186 C210 0.948 . S
C187 C183 1.397 . S
C187 C188 1.394 . S
C187 C206 1.723 . S
C188 C185 1.396 . S
C188 C187 1.394 . S
C188 C218 1.723 . S
H189 C212 0.947 . S
H190 C213 0.948 . S
H191 C219 0.982 . S
H192 C220 0.979 . S
H193 C220 0.980 . S
H194 C220 0.983 . S
H195 C219 0.979 . S
H196 C219 0.977 . S
C197 C185 1.453 . S
C197 H226 0.982 . S
C197 H227 0.979 . S
C197 H228 0.977 . S
C198 C185 1.684 . S
C198 H223 0.979 . S
C198 H224 0.980 . S
C198 H225 0.983 . S
C199 C200 1.391 . S
C199 C204 1.391 . S
C199 H229 0.948 . S
C200 C199 1.391 . S
C200 C201 1.391 . S
C201 C200 1.391 . S
C201 C202 1.392 . S
C201 H230 0.947 . S
C202 C201 1.392 . S
C202 C203 1.419 . S
C202 H231 0.948 . S
C203 C202 1.419 . S
C203 C204 1.391 . S
C203 C207 1.397 . S
C204 C199 1.391 . S
C204 C203 1.391 . S
C204 C205 1.399 . S
C205 C204 1.399 . S
C205 C206 1.396 . S
C205 C208 1.453 . S
C205 C209 1.684 . S
C206 C187 1.723 . S
C206 C205 1.396 . S
C206 C207 1.394 . S
C207 C203 1.397 . S
C207 C206 1.394 . S
C207 C217 1.723 . S
C208 C205 1.453 . S
C208 H232 0.982 . S
C208 H233 0.979 . S
C208 H234 0.977 . S
C209 C205 1.684 . S
C209 H235 0.979 . S
C209 H236 0.980 . S
C209 H237 0.983 . S
C210 H186 0.948 . S
C210 C211 1.391 . S
C210 C215 1.391 . S
C211 C210 1.391 . S
C211 C212 1.391 . S
C212 H189 0.947 . S
C212 C211 1.391 . S
C212 C213 1.392 . S
C213 H190 0.948 . S
C213 C212 1.392 . S
C213 C214 1.419 . S
C214 C213 1.419 . S
C214 C215 1.391 . S
C214 C218 1.397 . S
C215 C210 1.391 . S
C215 C214 1.391 . S
C215 C216 1.399 . S
C216 C215 1.399 . S
C216 C217 1.396 . S
C216 C219 1.453 . S
C216 C220 1.684 . S
C217 C207 1.723 . S
C217 C216 1.396 . S
C217 C218 1.394 . S
C218 C188 1.723 . S
C218 C214 1.397 . S
C218 C217 1.394 . S
C219 H191 0.982 . S
C219 H195 0.979 . S
C219 H196 0.977 . S
C219 C216 1.453 . S
C220 H192 0.979 . S
C220 H193 0.980 . S
C220 H194 0.983 . S
C220 C216 1.684 . S
H221 C239 0.948 . S
H222 C180 0.948 . S
H223 C198 0.979 . S
H224 C198 0.980 . S
H225 C198 0.983 . S
H226 C197 0.982 . S
H227 C197 0.979 . S
H228 C197 0.977 . S
H229 C199 0.948 . S
H230 C201 0.947 . S
H231 C202 0.948 . S
H232 C208 0.982 . S
H233 C208 0.979 . S
H234 C208 0.977 . S
H235 C209 0.979 . S
H236 C209 0.980 . S
H237 C209 0.983 . S
H238 C182 0.947 . S
C239 C182 1.392 . S
C239 C183 1.419 . S
C239 H221 0.948 . S
C240 C241 1.391 . S
C240 C244 1.391 . S
C240 H282 0.948 . S
C241 C240 1.391 . S
C241 C242 1.391 . S
C242 C241 1.391 . S
C242 H298 0.947 . S
C242 C299 1.392 . S
C243 C244 1.391 . S
C243 C247 1.397 . S
C243 C299 1.419 . S
C244 C240 1.391 . S
C244 C243 1.391 . S
C244 C245 1.399 . S
C245 C244 1.399 . S
C245 C248 1.396 . S
C245 C257 1.453 . S
C245 C258 1.684 . S
H246 C270 0.948 . S
C247 C243 1.397 . S
C247 C248 1.394 . S
C247 C266 1.723 . S
C248 C245 1.396 . S
C248 C247 1.394 . S
C248 C278 1.723 . S
H249 C272 0.947 1_554 S
H250 C273 0.948 . S
H251 C279 0.982 . S
H252 C280 0.979 . S
H253 C280 0.980 . S
H254 C280 0.983 . S
H255 C279 0.979 . S
H256 C279 0.977 . S
C257 C245 1.453 . S
C257 H286 0.982 . S
C257 H287 0.979 . S
C257 H288 0.977 . S
C258 C245 1.684 . S
C258 H283 0.979 . S
C258 H284 0.980 . S
C258 H285 0.983 . S
C259 C260 1.391 . S
C259 C264 1.391 . S
C259 H289 0.948 . S
C260 C259 1.391 . S
C260 C261 1.391 . S
C261 C260 1.391 . S
C261 C262 1.392 . S
C261 H290 0.947 . S
C262 C261 1.392 . S
C262 C263 1.419 . S
C262 H291 0.948 . S
C263 C262 1.419 . S
C263 C264 1.391 . S
C263 C267 1.397 . S
C264 C259 1.391 . S
C264 C263 1.391 . S
C264 C265 1.399 1_556 S
C265 C264 1.399 1_554 S
C265 C266 1.396 . S
C265 C268 1.453 . S
C265 C269 1.684 . S
C266 C247 1.723 . S
C266 C265 1.396 . S
C266 C267 1.394 1_554 S
C267 C263 1.397 . S
C267 C266 1.394 1_556 S
C267 C277 1.723 . S
C268 C265 1.453 . S
C268 H292 0.982 . S
C268 H293 0.979 . S
C268 H294 0.977 . S
C269 C265 1.684 . S
C269 H295 0.979 . S
C269 H296 0.980 . S
C269 H297 0.983 . S
C270 H246 0.948 . S
C270 C271 1.391 . S
C270 C275 1.391 . S
C271 C270 1.391 . S
C271 C272 1.391 . S
C272 H249 0.947 1_556 S
C272 C271 1.391 . S
C272 C273 1.392 1_556 S
C273 H250 0.948 . S
C273 C272 1.392 1_554 S
C273 C274 1.419 1_554 S
C274 C273 1.419 1_556 S
C274 C275 1.391 . S
C274 C278 1.397 1_556 S
C275 C270 1.391 . S
C275 C274 1.391 . S
C275 C276 1.399 . S
C276 C275 1.399 . S
C276 C277 1.396 . S
C276 C279 1.453 . S
C276 C280 1.684 . S
C277 C267 1.723 . S
C277 C276 1.396 . S
C277 C278 1.394 1_556 S
C278 C248 1.723 . S
C278 C274 1.397 1_554 S
C278 C277 1.394 1_554 S
C279 H251 0.982 . S
C279 H255 0.979 . S
C279 H256 0.977 . S
C279 C276 1.453 . S
C280 H252 0.979 . S
C280 H253 0.980 . S
C280 H254 0.983 . S
C280 C276 1.684 . S
H281 C299 0.948 . S
H282 C240 0.948 . S
H283 C258 0.979 . S
H284 C258 0.980 . S
H285 C258 0.983 . S
H286 C257 0.982 . S
H287 C257 0.979 . S
H288 C257 0.977 . S
H289 C259 0.948 . S
H290 C261 0.947 . S
H291 C262 0.948 . S
H292 C268 0.982 . S
H293 C268 0.979 . S
H294 C268 0.977 . S
H295 C269 0.979 . S
H296 C269 0.980 . S
H297 C269 0.983 . S
H298 C242 0.947 . S
C299 C242 1.392 . S
C299 C243 1.419 . S
C299 H281 0.948 . S
C300 C301 1.391 . S
C300 C304 1.391 . S
C300 H342 0.948 . S
C301 C300 1.391 . S
C301 C302 1.391 . S
C302 C301 1.391 . S
C302 H358 0.947 . S
C302 C359 1.392 . S
C303 C304 1.391 . S
C303 C307 1.397 . S
C303 C359 1.419 . S
C304 C300 1.391 . S
C304 C303 1.391 . S
C304 C305 1.399 . S
C305 C304 1.399 . S
C305 C308 1.396 . S
C305 C317 1.453 . S
C305 C318 1.684 . S
H306 C330 0.948 . S
C307 C303 1.397 . S
C307 C308 1.394 . S
C307 C326 1.723 . S
C308 C305 1.396 . S
C308 C307 1.394 . S
C308 C338 1.723 . S
H309 C332 0.947 . S
H310 C333 0.948 . S
H311 C339 0.982 . S
H312 C340 0.979 . S
H313 C340 0.980 . S
H314 C340 0.983 . S
H315 C339 0.979 . S
H316 C339 0.977 . S
C317 C305 1.453 . S
C317 H346 0.982 . S
C317 H347 0.979 . S
C317 H348 0.977 . S
C318 C305 1.684 . S
C318 H343 0.979 . S
C318 H344 0.980 . S
C318 H345 0.983 . S
C319 C320 1.391 . S
C319 C324 1.391 . S
C319 H349 0.948 . S
C320 C319 1.391 . S
C320 C321 1.391 . S
C321 C320 1.391 . S
C321 C322 1.392 . S
C321 H350 0.947 . S
C322 C321 1.392 . S
C322 C323 1.419 . S
C322 H351 0.948 . S
C323 C322 1.419 . S
C323 C324 1.391 . S
C323 C327 1.397 . S
C324 C319 1.391 . S
C324 C323 1.391 . S
C324 C325 1.399 . S
C325 C324 1.399 . S
C325 C326 1.396 . S
C325 C328 1.453 . S
C325 C329 1.684 . S
C326 C307 1.723 . S
C326 C325 1.396 . S
C326 C327 1.394 . S
C327 C323 1.397 . S
C327 C326 1.394 . S
C327 C337 1.723 . S
C328 C325 1.453 . S
C328 H352 0.982 . S
C328 H353 0.979 . S
C328 H354 0.977 . S
C329 C325 1.684 . S
C329 H355 0.979 . S
C329 H356 0.980 . S
C329 H357 0.983 . S
C330 H306 0.948 . S
C330 C331 1.391 . S
C330 C335 1.391 . S
C331 C330 1.391 . S
C331 C332 1.391 . S
C332 H309 0.947 . S
C332 C331 1.391 . S
C332 C333 1.392 . S
C333 H310 0.948 . S
C333 C332 1.392 . S
C333 C334 1.419 . S
C334 C333 1.419 . S
C334 C335 1.391 . S
C334 C338 1.397 . S
C335 C330 1.391 . S
C335 C334 1.391 . S
C335 C336 1.399 . S
C336 C335 1.399 . S
C336 C337 1.396 . S
C336 C339 1.453 . S
C336 C340 1.684 . S
C337 C327 1.723 . S
C337 C336 1.396 . S
C337 C338 1.394 . S
C338 C308 1.723 . S
C338 C334 1.397 . S
C338 C337 1.394 . S
C339 H311 0.982 . S
C339 H315 0.979 . S
C339 H316 0.977 . S
C339 C336 1.453 . S
C340 H312 0.979 . S
C340 H313 0.980 . S
C340 H314 0.983 . S
C340 C336 1.684 . S
H341 C359 0.948 . S
H342 C300 0.948 . S
H343 C318 0.979 . S
H344 C318 0.980 . S
H345 C318 0.983 . S
H346 C317 0.982 . S
H347 C317 0.979 . S
H348 C317 0.977 . S
H349 C319 0.948 . S
H350 C321 0.947 . S
H351 C322 0.948 . S
H352 C328 0.982 . S
H353 C328 0.979 . S
H354 C328 0.977 . S
H355 C329 0.979 . S
H356 C329 0.980 . S
H357 C329 0.983 . S
H358 C302 0.947 . S
C359 C302 1.392 . S
C359 C303 1.419 . S
C359 H341 0.948 . S
C360 C361 1.391 . S
C360 C364 1.391 . S
C360 H402 0.948 . S
C361 C360 1.391 . S
C361 C362 1.391 . S
C362 C361 1.391 . S
C362 H418 0.947 . S
C362 C419 1.392 . S
C363 C364 1.391 . S
C363 C367 1.382 1_556 S
C363 C419 1.419 . S
C364 C360 1.391 . S
C364 C363 1.391 . S
C364 C365 1.399 . S
C365 C364 1.399 . S
C365 C368 1.396 . S
C365 C377 1.453 . S
C365 C378 1.684 . S
H366 C390 0.934 1_554 S
C367 C363 1.382 1_554 S
C367 C368 1.373 1_554 S
C367 C386 1.755 . S
C368 C365 1.396 . S
C368 C367 1.373 1_556 S
C368 C398 1.723 . S
H369 C392 0.947 . S
H370 C393 0.948 . S
H371 C399 0.982 . S
H372 C400 0.979 . S
H373 C400 0.980 . S
H374 C400 0.983 . S
H375 C399 0.979 . S
H376 C399 0.977 . S
C377 C365 1.453 . S
C377 H406 0.982 . S
C377 H407 0.979 . S
C377 H408 0.977 . S
C378 C365 1.684 . S
C378 H403 0.979 . S
C378 H404 0.980 . S
C378 H405 0.983 . S
C379 C380 1.391 . S
C379 C384 1.391 . S
C379 H409 0.948 . S
C380 C379 1.391 . S
C380 C381 1.391 . S
C381 C380 1.391 . S
C381 C382 1.392 . S
C381 H410 0.947 . S
C382 C381 1.392 . S
C382 C383 1.419 . S
C382 H411 0.948 . S
C383 C382 1.419 . S
C383 C384 1.391 . S
C383 C387 1.397 . S
C384 C379 1.391 . S
C384 C383 1.391 . S
C384 C385 1.399 . S
C385 C384 1.399 . S
C385 C386 1.396 . S
C385 C388 1.453 . S
C385 C389 1.684 . S
C386 C367 1.755 . S
C386 C385 1.396 . S
C386 C387 1.394 . S
C387 C383 1.397 . S
C387 C386 1.394 . S
C387 C397 1.723 . S
C388 C385 1.453 . S
C388 H412 0.982 . S
C388 H413 0.979 . S
C388 H414 0.977 . S
C389 C385 1.684 . S
C389 H415 0.979 . S
C389 H416 0.980 . S
C389 H417 0.983 . S
C390 H366 0.934 1_556 S
C390 C391 1.391 . S
C390 C395 1.391 . S
C391 C390 1.391 . S
C391 C392 1.391 . S
C392 H369 0.947 . S
C392 C391 1.391 . S
C392 C393 1.392 . S
C393 H370 0.948 . S
C393 C392 1.392 . S
C393 C394 1.419 . S
C394 C393 1.419 . S
C394 C395 1.391 . S
C394 C398 1.397 . S
C395 C390 1.391 . S
C395 C394 1.391 . S
C395 C396 1.399 1_556 S
C396 C395 1.399 1_554 S
C396 C397 1.396 . S
C396 C399 1.453 . S
C396 C400 1.684 . S
C397 C387 1.723 . S
C397 C396 1.396 . S
C397 C398 1.394 1_554 S
C398 C368 1.723 . S
C398 C394 1.397 . S
C398 C397 1.394 1_556 S
C399 H371 0.982 . S
C399 H375 0.979 . S
C399 H376 0.977 . S
C399 C396 1.453 . S
C400 H372 0.979 . S
C400 H373 0.980 . S
C400 H374 0.983 . S
C400 C396 1.684 . S
H401 C419 0.948 1_554 S
H402 C360 0.948 . S
H403 C378 0.979 . S
H404 C378 0.980 . S
H405 C378 0.983 . S
H406 C377 0.982 . S
H407 C377 0.979 . S
H408 C377 0.977 . S
H409 C379 0.948 . S
H410 C381 0.947 . S
H411 C382 0.948 . S
H412 C388 0.982 . S
H413 C388 0.979 . S
H414 C388 0.977 . S
H415 C389 0.979 . S
H416 C389 0.980 . S
H417 C389 0.983 . S
H418 C362 0.947 . S
C419 C362 1.392 . S
C419 C363 1.419 . S
C419 H401 0.948 1_556 S
C420 C421 1.391 . S
C420 C424 1.391 . S
C420 H462 0.948 . S
C421 C420 1.391 . S
C421 C422 1.391 . S
C422 C421 1.391 . S
C422 H478 0.947 . S
C422 C479 1.392 . S
C423 C424 1.391 . S
C423 C427 1.397 . S
C423 C479 1.419 . S
C424 C420 1.391 . S
C424 C423 1.391 . S
C424 C425 1.399 . S
C425 C424 1.399 . S
C425 C428 1.396 . S
C425 C437 1.453 . S
C425 C438 1.684 . S
H426 C450 0.948 . S
C427 C423 1.397 . S
C427 C428 1.394 . S
C427 C446 1.723 . S
C428 C425 1.396 . S
C428 C427 1.394 . S
C428 C458 1.723 . S
H429 C452 0.947 . S
H430 C453 0.948 . S
H431 C459 0.982 . S
H432 C460 0.979 . S
H433 C460 0.980 . S
H434 C460 0.983 . S
H435 C459 0.979 . S
H436 C459 0.977 . S
C437 C425 1.453 . S
C437 H466 0.982 . S
C437 H467 0.979 . S
C437 H468 0.977 . S
C438 C425 1.684 . S
C438 H463 0.979 . S
C438 H464 0.980 . S
C438 H465 0.983 . S
C439 C440 1.391 . S
C439 C444 1.391 . S
C439 H469 0.948 . S
C440 C439 1.391 . S
C440 C441 1.391 . S
C441 C440 1.391 . S
C441 C442 1.392 . S
C441 H470 0.947 . S
C442 C441 1.392 . S
C442 C443 1.419 . S
C442 H471 0.948 . S
C443 C442 1.419 . S
C443 C444 1.391 . S
C443 C447 1.397 . S
C444 C439 1.391 . S
C444 C443 1.391 . S
C444 C445 1.399 . S
C445 C444 1.399 . S
C445 C446 1.396 . S
C445 C448 1.453 . S
C445 C449 1.684 . S
C446 C427 1.723 . S
C446 C445 1.396 . S
C446 C447 1.394 . S
C447 C443 1.397 . S
C447 C446 1.394 . S
C447 C457 1.723 . S
C448 C445 1.453 . S
C448 H472 0.982 . S
C448 H473 0.979 . S
C448 H474 0.977 . S
C449 C445 1.684 . S
C449 H475 0.979 . S
C449 H476 0.980 . S
C449 H477 0.983 . S
C450 H426 0.948 . S
C450 C451 1.391 . S
C450 C455 1.391 . S
C451 C450 1.391 . S
C451 C452 1.391 . S
C452 H429 0.947 . S
C452 C451 1.391 . S
C452 C453 1.392 . S
C453 H430 0.948 . S
C453 C452 1.392 . S
C453 C454 1.419 . S
C454 C453 1.419 . S
C454 C455 1.391 . S
C454 C458 1.397 . S
C455 C450 1.391 . S
C455 C454 1.391 . S
C455 C456 1.399 . S
C456 C455 1.399 . S
C456 C457 1.396 . S
C456 C459 1.453 . S
C456 C460 1.684 . S
C457 C447 1.723 . S
C457 C456 1.396 . S
C457 C458 1.394 . S
C458 C428 1.723 . S
C458 C454 1.397 . S
C458 C457 1.394 . S
C459 H431 0.982 . S
C459 H435 0.979 . S
C459 H436 0.977 . S
C459 C456 1.453 . S
C460 H432 0.979 . S
C460 H433 0.980 . S
C460 H434 0.983 . S
C460 C456 1.684 . S
H461 C479 0.948 . S
H462 C420 0.948 . S
H463 C438 0.979 . S
H464 C438 0.980 . S
H465 C438 0.983 . S
H466 C437 0.982 . S
H467 C437 0.979 . S
H468 C437 0.977 . S
H469 C439 0.948 . S
H470 C441 0.947 . S
H471 C442 0.948 . S
H472 C448 0.982 . S
H473 C448 0.979 . S
H474 C448 0.977 . S
H475 C449 0.979 . S
H476 C449 0.980 . S
H477 C449 0.983 . S
H478 C422 0.947 . S
C479 C422 1.392 . S
C479 C423 1.419 . S
C479 H461 0.948 . S
Sc480 O483 2.025 . S
Sc480 O490 2.105 1_455 S
Sc480 O493 2.105 . S
Sc480 O496 2.105 . S
Sc480 O499 2.105 1_455 S
Sc481 O483 2.025 . S
Sc481 O491 2.105 1_455 S
Sc481 O495 2.105 . S
Sc481 O497 2.105 . S
Sc481 O501 2.105 1_455 S
Sc482 O483 2.025 . S
Sc482 O492 2.105 1_455 S
Sc482 O494 2.105 . S
Sc482 O498 2.105 . S
Sc482 O500 2.105 1_455 S
O483 Sc480 2.025 . S
O483 Sc481 2.025 . S
O483 Sc482 2.025 . S
C484 O490 1.268 . S
C484 O500 1.268 . S
C485 O491 1.268 . S
C485 O499 1.268 . S
C486 O492 1.268 . S
C486 O501 1.268 . S
C487 O493 1.268 . S
C487 O497 1.268 . S
C488 O494 1.268 . S
C488 O496 1.268 . S
C489 O495 1.268 . S
C489 O498 1.268 . S
O490 Sc480 2.105 1_655 S
O490 C484 1.268 . S
O491 Sc481 2.105 1_655 S
O491 C485 1.268 . S
O492 Sc482 2.105 1_655 S
O492 C486 1.268 . S
O493 Sc480 2.105 . S
O493 C487 1.268 . S
O494 Sc482 2.105 . S
O494 C488 1.268 . S
O495 Sc481 2.105 . S
O495 C489 1.268 . S
O496 Sc480 2.105 . S
O496 C488 1.268 . S
O497 Sc481 2.105 . S
O497 C487 1.268 . S
O498 Sc482 2.105 . S
O498 C489 1.268 . S
O499 Sc480 2.105 1_655 S
O499 C485 1.268 . S
O500 Sc482 2.105 1_655 S
O500 C484 1.268 . S
O501 Sc481 2.105 1_655 S
O501 C486 1.268 . S
Sc502 O505 2.025 . S
Sc502 O512 2.105 . S
Sc502 O515 2.105 1_455 S
Sc502 O518 2.105 1_455 S
Sc502 O521 2.105 . S
Sc503 O505 2.025 . S
Sc503 O513 2.105 . S
Sc503 O517 2.105 1_455 S
Sc503 O519 2.105 1_455 S
Sc503 O523 2.105 . S
Sc504 O505 2.025 . S
Sc504 O514 2.105 . S
Sc504 O516 2.105 1_455 S
Sc504 O520 2.105 1_455 S
Sc504 O522 2.105 . S
O505 Sc502 2.025 . S
O505 Sc503 2.025 . S
O505 Sc504 2.025 . S
C506 O512 1.268 . S
C506 O522 1.268 . S
C507 O513 1.268 . S
C507 O521 1.268 . S
C508 O514 1.268 . S
C508 O523 1.268 . S
C509 O515 1.268 . S
C509 O519 1.268 . S
C510 O516 1.268 . S
C510 O518 1.268 . S
C511 O517 1.268 . S
C511 O520 1.268 . S
O512 Sc502 2.105 . S
O512 C506 1.268 . S
O513 Sc503 2.105 . S
O513 C507 1.268 . S
O514 Sc504 2.105 . S
O514 C508 1.268 . S
O515 Sc502 2.105 1_655 S
O515 C509 1.268 . S
O516 Sc504 2.105 1_655 S
O516 C510 1.268 . S
O517 Sc503 2.105 1_655 S
O517 C511 1.268 . S
O518 Sc502 2.105 1_655 S
O518 C510 1.268 . S
O519 Sc503 2.105 1_655 S
O519 C509 1.268 . S
O520 Sc504 2.105 1_655 S
O520 C511 1.268 . S
O521 Sc502 2.105 . S
O521 C507 1.268 . S
O522 Sc504 2.105 . S
O522 C506 1.268 . S
O523 Sc503 2.105 . S
O523 C508 1.268 . S
Sc524 O527 2.025 . S
Sc524 O534 2.105 . S
Sc524 O537 2.105 . S
Sc524 O540 2.105 . S
Sc524 O543 2.105 . S
Sc525 O527 2.025 . S
Sc525 O535 2.105 . S
Sc525 O539 2.105 . S
Sc525 O541 2.105 . S
Sc525 O545 2.105 . S
Sc526 O527 2.025 . S
Sc526 O536 2.105 . S
Sc526 O538 2.105 . S
Sc526 O542 2.105 . S
Sc526 O544 2.105 . S
O527 Sc524 2.025 . S
O527 Sc525 2.025 . S
O527 Sc526 2.025 . S
C528 O534 1.268 . S
C528 O544 1.268 . S
C529 O535 1.268 . S
C529 O543 1.268 . S
C530 O536 1.268 . S
C530 O545 1.268 . S
C531 O537 1.268 . S
C531 O541 1.268 . S
C532 O538 1.268 . S
C532 O540 1.268 . S
C533 O539 1.268 . S
C533 O542 1.268 . S
O534 Sc524 2.105 . S
O534 C528 1.268 . S
O535 Sc525 2.105 . S
O535 C529 1.268 . S
O536 Sc526 2.105 . S
O536 C530 1.268 . S
O537 Sc524 2.105 . S
O537 C531 1.268 . S
O538 Sc526 2.105 . S
O538 C532 1.268 . S
O539 Sc525 2.105 . S
O539 C533 1.268 . S
O540 Sc524 2.105 . S
O540 C532 1.268 . S
O541 Sc525 2.105 . S
O541 C531 1.268 . S
O542 Sc526 2.105 . S
O542 C533 1.268 . S
O543 Sc524 2.105 . S
O543 C529 1.268 . S
O544 Sc526 2.105 . S
O544 C528 1.268 . S
O545 Sc525 2.105 . S
O545 C530 1.268 . S
Sc546 O549 2.025 . S
Sc546 O556 2.105 . S
Sc546 O559 2.105 . S
Sc546 O562 2.105 . S
Sc546 O565 2.105 . S
Sc547 O549 2.025 . S
Sc547 O557 2.105 . S
Sc547 O561 2.105 . S
Sc547 O563 2.105 . S
Sc547 O567 2.105 . S
Sc548 O549 2.025 . S
Sc548 O558 2.105 . S
Sc548 O560 2.105 . S
Sc548 O564 2.105 . S
Sc548 O566 2.105 . S
O549 Sc546 2.025 . S
O549 Sc547 2.025 . S
O549 Sc548 2.025 . S
C550 O556 1.268 . S
C550 O566 1.268 . S
C551 O557 1.268 . S
C551 O565 1.268 . S
C552 O558 1.268 . S
C552 O567 1.268 . S
C553 O559 1.268 . S
C553 O563 1.268 . S
C554 O560 1.268 . S
C554 O562 1.268 . S
C555 O561 1.268 . S
C555 O564 1.268 . S
O556 Sc546 2.105 . S
O556 C550 1.268 . S
O557 Sc547 2.105 . S
O557 C551 1.268 . S
O558 Sc548 2.105 . S
O558 C552 1.268 . S
O559 Sc546 2.105 . S
O559 C553 1.268 . S
O560 Sc548 2.105 . S
O560 C554 1.268 . S
O561 Sc547 2.105 . S
O561 C555 1.268 . S
O562 Sc546 2.105 . S
O562 C554 1.268 . S
O563 Sc547 2.105 . S
O563 C553 1.268 . S
O564 Sc548 2.105 . S
O564 C555 1.268 . S
O565 Sc546 2.105 . S
O565 C551 1.268 . S
O566 Sc548 2.105 . S
O566 C550 1.268 . S
O567 Sc547 2.105 . S
O567 C552 1.268 . S
H568 C576 0.929 . S
H569 C578 0.930 . S
H570 C580 0.930 . S
H571 C583 0.929 . S
H572 C586 0.930 . S
H573 C588 0.960 . S
H574 C588 0.960 . S
H575 C588 0.960 . S
C576 H568 0.929 . S
C576 C577 1.377 . S
C576 C578 1.384 . S
C577 C576 1.377 . S
C577 C583 1.390 . S
C578 H569 0.930 . S
C578 C576 1.384 . S
C578 C579 1.372 . S
C579 C578 1.372 . S
C579 C580 1.400 . S
C579 C584 1.490 . S
C580 H570 0.930 . S
C580 C579 1.400 . S
C580 C583 1.386 . S
H581 C597 0.930 . S
H582 C598 0.931 . S
C583 H571 0.929 . S
C583 C577 1.390 . S
C583 C580 1.386 . S
C584 C579 1.490 . S
C584 C586 1.395 . S
C584 C587 1.403 . S
H585 C591 0.930 . S
C586 H572 0.930 . S
C586 C584 1.395 . S
C586 C589 1.403 . S
C587 C584 1.403 . S
C587 C588 1.524 . S
C587 C591 1.400 . S
C588 H573 0.960 . S
C588 H574 0.960 . S
C588 H575 0.960 . S
C588 C587 1.524 . S
C589 C586 1.403 . S
C589 C590 1.392 . S
C589 C593 1.495 . S
C590 C589 1.392 . S
C590 C591 1.385 . S
C590 C592 1.478 . S
C591 H585 0.930 . S
C591 C587 1.400 . S
C591 C590 1.385 . S
C592 C590 1.478 . S
C592 C594 1.381 . S
C592 C598 1.383 . S
C593 C589 1.495 . S
C593 H599 0.959 . S
C593 H600 0.961 . S
C593 H601 0.960 . S
C594 C592 1.381 . S
C594 C595 1.394 . S
C594 H602 0.930 . S
C595 C594 1.394 . S
C595 C596 1.383 . S
C595 H603 0.929 . S
C596 C595 1.383 . S
C596 C597 1.377 . S
C597 H581 0.930 . S
C597 C596 1.377 . S
C597 C598 1.379 . S
C598 H582 0.931 . S
C598 C592 1.383 . S
C598 C597 1.379 . S
H599 C593 0.959 . S
H600 C593 0.961 . S
H601 C593 0.960 . S
H602 C594 0.930 . S
H603 C595 0.929 . S
H604 C612 0.929 . S
H605 C614 0.930 . S
H606 C616 0.930 . S
H607 C619 0.929 . S
H608 C622 0.930 . S
H609 C624 0.960 . S
H610 C624 0.960 . S
H611 C624 0.960 . S
C612 H604 0.929 . S
C612 C613 1.377 . S
C612 C614 1.384 . S
C613 C612 1.377 . S
C613 C619 1.390 . S
C614 H605 0.930 . S
C614 C612 1.384 . S
C614 C615 1.372 . S
C615 C614 1.372 . S
C615 C616 1.400 . S
C615 C620 1.490 . S
C616 H606 0.930 . S
C616 C615 1.400 . S
C616 C619 1.386 . S
H617 C633 0.930 . S
H618 C634 0.931 . S
C619 H607 0.929 . S
C619 C613 1.390 . S
C619 C616 1.386 . S
C620 C615 1.490 . S
C620 C622 1.395 . S
C620 C623 1.403 . S
H621 C627 0.930 . S
C622 H608 0.930 . S
C622 C620 1.395 . S
C622 C625 1.403 . S
C623 C620 1.403 . S
C623 C624 1.524 . S
C623 C627 1.400 . S
C624 H609 0.960 . S
C624 H610 0.960 . S
C624 H611 0.960 . S
C624 C623 1.524 . S
C625 C622 1.403 . S
C625 C626 1.392 . S
C625 C629 1.495 . S
C626 C625 1.392 . S
C626 C627 1.385 . S
C626 C628 1.478 . S
C627 H621 0.930 . S
C627 C623 1.400 . S
C627 C626 1.385 . S
C628 C626 1.478 . S
C628 C630 1.381 . S
C628 C634 1.383 . S
C629 C625 1.495 . S
C629 H635 0.959 . S
C629 H636 0.961 . S
C629 H637 0.960 . S
C630 C628 1.381 . S
C630 C631 1.394 . S
C630 H638 0.930 . S
C631 C630 1.394 . S
C631 C632 1.383 . S
C631 H639 0.929 . S
C632 C631 1.383 . S
C632 C633 1.377 . S
C633 H617 0.930 . S
C633 C632 1.377 . S
C633 C634 1.379 . S
C634 H618 0.931 . S
C634 C628 1.383 . S
C634 C633 1.379 . S
H635 C629 0.959 . S
H636 C629 0.961 . S
H637 C629 0.960 . S
H638 C630 0.930 . S
H639 C631 0.929 . S
H640 C648 0.929 . S
H641 C650 0.930 . S
H642 C652 0.930 . S
H643 C655 0.929 . S
H644 C658 0.930 . S
H645 C660 0.960 . S
H646 C660 0.960 . S
H647 C660 0.960 . S
C648 H640 0.929 . S
C648 C649 1.377 . S
C648 C650 1.384 . S
C649 C648 1.377 . S
C649 C655 1.390 . S
C650 H641 0.930 . S
C650 C648 1.384 . S
C650 C651 1.372 . S
C651 C650 1.372 . S
C651 C652 1.400 . S
C651 C656 1.490 . S
C652 H642 0.930 . S
C652 C651 1.400 . S
C652 C655 1.386 . S
H653 C669 0.930 . S
H654 C670 0.931 . S
C655 H643 0.929 . S
C655 C649 1.390 . S
C655 C652 1.386 . S
C656 C651 1.490 . S
C656 C658 1.395 . S
C656 C659 1.403 . S
H657 C663 0.930 . S
C658 H644 0.930 . S
C658 C656 1.395 . S
C658 C661 1.403 . S
C659 C656 1.403 . S
C659 C660 1.524 . S
C659 C663 1.400 . S
C660 H645 0.960 . S
C660 H646 0.960 . S
C660 H647 0.960 . S
C660 C659 1.524 . S
C661 C658 1.403 . S
C661 C662 1.392 . S
C661 C665 1.495 . S
C662 C661 1.392 . S
C662 C663 1.385 . S
C662 C664 1.478 . S
C663 H657 0.930 . S
C663 C659 1.400 . S
C663 C662 1.385 . S
C664 C662 1.478 . S
C664 C666 1.381 . S
C664 C670 1.383 . S
C665 C661 1.495 . S
C665 H671 0.959 . S
C665 H672 0.961 . S
C665 H673 0.960 . S
C666 C664 1.381 . S
C666 C667 1.394 . S
C666 H674 0.930 . S
C667 C666 1.394 . S
C667 C668 1.383 . S
C667 H675 0.929 . S
C668 C667 1.383 . S
C668 C669 1.377 . S
C669 H653 0.930 . S
C669 C668 1.377 . S
C669 C670 1.379 . S
C670 H654 0.931 . S
C670 C664 1.383 . S
C670 C669 1.379 . S
H671 C665 0.959 . S
H672 C665 0.961 . S
H673 C665 0.960 . S
H674 C666 0.930 . S
H675 C667 0.929 . S
H676 C684 0.929 . S
H677 C686 0.930 . S
H678 C688 0.930 . S
H679 C691 0.929 . S
H680 C694 0.930 . S
H681 C696 0.960 . S
H682 C696 0.960 . S
H683 C696 0.960 . S
C684 H676 0.929 . S
C684 C685 1.377 . S
C684 C686 1.384 . S
C685 C684 1.377 . S
C685 C691 1.390 . S
C686 H677 0.930 . S
C686 C684 1.384 . S
C686 C687 1.372 . S
C687 C686 1.372 . S
C687 C688 1.400 . S
C687 C692 1.490 . S
C688 H678 0.930 . S
C688 C687 1.400 . S
C688 C691 1.386 . S
H689 C705 0.930 . S
H690 C706 0.931 . S
C691 H679 0.929 . S
C691 C685 1.390 . S
C691 C688 1.386 . S
C692 C687 1.490 . S
C692 C694 1.395 . S
C692 C695 1.403 . S
H693 C699 0.930 . S
C694 H680 0.930 . S
C694 C692 1.395 . S
C694 C697 1.403 . S
C695 C692 1.403 . S
C695 C696 1.524 . S
C695 C699 1.400 . S
C696 H681 0.960 . S
C696 H682 0.960 . S
C696 H683 0.960 . S
C696 C695 1.524 . S
C697 C694 1.403 . S
C697 C698 1.392 . S
C697 C701 1.495 . S
C698 C697 1.392 . S
C698 C699 1.385 . S
C698 C700 1.478 . S
C699 H693 0.930 . S
C699 C695 1.400 . S
C699 C698 1.385 . S
C700 C698 1.478 . S
C700 C702 1.381 . S
C700 C706 1.383 . S
C701 C697 1.495 . S
C701 H707 0.959 . S
C701 H708 0.961 . S
C701 H709 0.960 . S
C702 C700 1.381 . S
C702 C703 1.394 . S
C702 H710 0.930 . S
C703 C702 1.394 . S
C703 C704 1.383 . S
C703 H711 0.929 . S
C704 C703 1.383 . S
C704 C705 1.377 . S
C705 H689 0.930 . S
C705 C704 1.377 . S
C705 C706 1.379 . S
C706 H690 0.931 . S
C706 C700 1.383 . S
C706 C705 1.379 . S
H707 C701 0.959 . S
H708 C701 0.961 . S
H709 C701 0.960 . S
H710 C702 0.930 . S
H711 C703 0.929 . S
H712 C720 0.929 . S
H713 C722 0.930 . S
H714 C724 0.930 . S
H715 C727 0.929 . S
H716 C730 0.930 . S
H717 C732 0.960 . S
H718 C732 0.960 . S
H719 C732 0.960 . S
C720 H712 0.929 . S
C720 C721 1.377 . S
C720 C722 1.384 . S
C721 C720 1.377 . S
C721 C727 1.390 . S
C722 H713 0.930 . S
C722 C720 1.384 . S
C722 C723 1.372 . S
C723 C722 1.372 . S
C723 C724 1.400 . S
C723 C728 1.490 . S
C724 H714 0.930 . S
C724 C723 1.400 . S
C724 C727 1.386 . S
H725 C741 0.930 . S
H726 C742 0.931 . S
C727 H715 0.929 . S
C727 C721 1.390 . S
C727 C724 1.386 . S
C728 C723 1.490 . S
C728 C730 1.395 . S
C728 C731 1.403 . S
H729 C735 0.930 . S
C730 H716 0.930 . S
C730 C728 1.395 . S
C730 C733 1.403 . S
C731 C728 1.403 . S
C731 C732 1.524 . S
C731 C735 1.400 . S
C732 H717 0.960 . S
C732 H718 0.960 . S
C732 H719 0.960 . S
C732 C731 1.524 . S
C733 C730 1.403 . S
C733 C734 1.392 . S
C733 C737 1.495 . S
C734 C733 1.392 . S
C734 C735 1.385 . S
C734 C736 1.478 . S
C735 H729 0.930 . S
C735 C731 1.400 . S
C735 C734 1.385 . S
C736 C734 1.478 . S
C736 C738 1.381 . S
C736 C742 1.383 . S
C737 C733 1.495 . S
C737 H743 0.959 . S
C737 H744 0.961 . S
C737 H745 0.960 . S
C738 C736 1.381 . S
C738 C739 1.394 . S
C738 H746 0.930 . S
C739 C738 1.394 . S
C739 C740 1.383 . S
C739 H747 0.929 . S
C740 C739 1.383 . S
C740 C741 1.377 . S
C741 H725 0.930 . S
C741 C740 1.377 . S
C741 C742 1.379 . S
C742 H726 0.931 . S
C742 C736 1.383 . S
C742 C741 1.379 . S
H743 C737 0.959 . S
H744 C737 0.961 . S
H745 C737 0.960 . S
H746 C738 0.930 . S
H747 C739 0.929 . S
H748 C756 0.929 . S
H749 C758 0.930 . S
H750 C760 0.930 . S
H751 C763 0.929 . S
H752 C766 0.930 . S
H753 C768 0.960 . S
H754 C768 0.960 . S
H755 C768 0.960 . S
C756 H748 0.929 . S
C756 C757 1.377 . S
C756 C758 1.384 . S
C757 C756 1.377 . S
C757 C763 1.390 . S
C758 H749 0.930 . S
C758 C756 1.384 . S
C758 C759 1.372 . S
C759 C758 1.372 . S
C759 C760 1.400 . S
C759 C764 1.490 . S
C760 H750 0.930 . S
C760 C759 1.400 . S
C760 C763 1.386 . S
H761 C777 0.930 . S
H762 C778 0.931 . S
C763 H751 0.929 . S
C763 C757 1.390 . S
C763 C760 1.386 . S
C764 C759 1.490 . S
C764 C766 1.395 . S
C764 C767 1.403 . S
H765 C771 0.930 . S
C766 H752 0.930 . S
C766 C764 1.395 . S
C766 C769 1.403 . S
C767 C764 1.403 . S
C767 C768 1.524 . S
C767 C771 1.400 . S
C768 H753 0.960 . S
C768 H754 0.960 . S
C768 H755 0.960 . S
C768 C767 1.524 . S
C769 C766 1.403 . S
C769 C770 1.392 . S
C769 C773 1.495 . S
C770 C769 1.392 . S
C770 C771 1.385 . S
C770 C772 1.478 . S
C771 H765 0.930 . S
C771 C767 1.400 . S
C771 C770 1.385 . S
C772 C770 1.478 . S
C772 C774 1.381 . S
C772 C778 1.383 . S
C773 C769 1.495 . S
C773 H779 0.959 . S
C773 H780 0.961 . S
C773 H781 0.960 . S
C774 C772 1.381 . S
C774 C775 1.394 . S
C774 H782 0.930 . S
C775 C774 1.394 . S
C775 C776 1.383 . S
C775 H783 0.929 . S
C776 C775 1.383 . S
C776 C777 1.377 . S
C777 H761 0.930 . S
C777 C776 1.377 . S
C777 C778 1.379 . S
C778 H762 0.931 . S
C778 C772 1.383 . S
C778 C777 1.379 . S
H779 C773 0.959 . S
H780 C773 0.961 . S
H781 C773 0.960 . S
H782 C774 0.930 . S
H783 C775 0.929 . S
H784 C792 0.929 . S
H785 C794 0.930 . S
H786 C796 0.930 . S
H787 C799 0.929 . S
H788 C802 0.930 . S
H789 C804 0.960 . S
H790 C804 0.960 . S
H791 C804 0.960 . S
C792 H784 0.929 . S
C792 C793 1.377 . S
C792 C794 1.384 . S
C793 C792 1.377 . S
C793 C799 1.390 . S
C794 H785 0.930 . S
C794 C792 1.384 . S
C794 C795 1.372 . S
C795 C794 1.372 . S
C795 C796 1.400 . S
C795 C800 1.490 . S
C796 H786 0.930 . S
C796 C795 1.400 . S
C796 C799 1.386 . S
H797 C813 0.930 . S
H798 C814 0.931 . S
C799 H787 0.929 . S
C799 C793 1.390 . S
C799 C796 1.386 . S
C800 C795 1.490 . S
C800 C802 1.395 . S
C800 C803 1.403 . S
H801 C807 0.930 . S
C802 H788 0.930 . S
C802 C800 1.395 . S
C802 C805 1.403 . S
C803 C800 1.403 . S
C803 C804 1.524 . S
C803 C807 1.400 . S
C804 H789 0.960 . S
C804 H790 0.960 . S
C804 H791 0.960 . S
C804 C803 1.524 . S
C805 C802 1.403 . S
C805 C806 1.392 . S
C805 C809 1.495 . S
C806 C805 1.392 . S
C806 C807 1.385 . S
C806 C808 1.478 . S
C807 H801 0.930 . S
C807 C803 1.400 . S
C807 C806 1.385 . S
C808 C806 1.478 . S
C808 C810 1.381 . S
C808 C814 1.383 . S
C809 C805 1.495 . S
C809 H815 0.959 . S
C809 H816 0.961 . S
C809 H817 0.960 . S
C810 C808 1.381 . S
C810 C811 1.394 . S
C810 H818 0.930 . S
C811 C810 1.394 . S
C811 C812 1.383 . S
C811 H819 0.929 . S
C812 C811 1.383 . S
C812 C813 1.377 . S
C813 H797 0.930 . S
C813 C812 1.377 . S
C813 C814 1.379 . S
C814 H798 0.931 . S
C814 C808 1.383 . S
C814 C813 1.379 . S
H815 C809 0.959 . S
H816 C809 0.961 . S
H817 C809 0.960 . S
H818 C810 0.930 . S
H819 C811 0.929 . S
H820 C828 0.929 . S
H821 C830 0.930 . S
H822 C832 0.930 . S
H823 C835 0.929 . S
H824 C838 0.930 . S
H825 C840 0.960 . S
H826 C840 0.960 . S
H827 C840 0.960 . S
C828 H820 0.929 . S
C828 C829 1.377 . S
C828 C830 1.384 . S
C829 C828 1.377 . S
C829 C835 1.390 . S
C830 H821 0.930 . S
C830 C828 1.384 . S
C830 C831 1.372 . S
C831 C830 1.372 . S
C831 C832 1.400 . S
C831 C836 1.490 . S
C832 H822 0.930 . S
C832 C831 1.400 . S
C832 C835 1.386 . S
H833 C849 0.930 . S
H834 C850 0.931 . S
C835 H823 0.929 . S
C835 C829 1.390 . S
C835 C832 1.386 . S
C836 C831 1.490 . S
C836 C838 1.395 . S
C836 C839 1.403 . S
H837 C843 0.930 . S
C838 H824 0.930 . S
C838 C836 1.395 . S
C838 C841 1.403 . S
C839 C836 1.403 . S
C839 C840 1.524 . S
C839 C843 1.400 . S
C840 H825 0.960 . S
C840 H826 0.960 . S
C840 H827 0.960 . S
C840 C839 1.524 . S
C841 C838 1.403 . S
C841 C842 1.392 . S
C841 C845 1.495 . S
C842 C841 1.392 . S
C842 C843 1.385 . S
C842 C844 1.478 . S
C843 H837 0.930 . S
C843 C839 1.400 . S
C843 C842 1.385 . S
C844 C842 1.478 . S
C844 C846 1.381 . S
C844 C850 1.383 . S
C845 C841 1.495 . S
C845 H851 0.959 . S
C845 H852 0.961 . S
C845 H853 0.960 . S
C846 C844 1.381 . S
C846 C847 1.394 . S
C846 H854 0.930 . S
C847 C846 1.394 . S
C847 C848 1.383 . S
C847 H855 0.929 . S
C848 C847 1.383 . S
C848 C849 1.377 . S
C849 H833 0.930 . S
C849 C848 1.377 . S
C849 C850 1.379 . S
C850 H834 0.931 . S
C850 C844 1.383 . S
C850 C849 1.379 . S
H851 C845 0.959 . S
H852 C845 0.961 . S
H853 C845 0.960 . S
H854 C846 0.930 . S
H855 C847 0.929 . S
H856 C864 0.929 . S
H857 C866 0.930 . S
H858 C868 0.930 . S
H859 C871 0.929 . S
H860 C874 0.930 . S
H861 C876 0.960 . S
H862 C876 0.960 . S
H863 C876 0.960 . S
C864 H856 0.929 . S
C864 C865 1.377 . S
C864 C866 1.384 . S
C865 C864 1.377 . S
C865 C871 1.390 . S
C866 H857 0.930 . S
C866 C864 1.384 . S
C866 C867 1.372 . S
C867 C866 1.372 . S
C867 C868 1.400 . S
C867 C872 1.490 . S
C868 H858 0.930 . S
C868 C867 1.400 . S
C868 C871 1.386 . S
H869 C885 0.930 . S
H870 C886 0.931 . S
C871 H859 0.929 . S
C871 C865 1.390 . S
C871 C868 1.386 . S
C872 C867 1.490 . S
C872 C874 1.395 . S
C872 C875 1.403 . S
H873 C879 0.930 . S
C874 H860 0.930 . S
C874 C872 1.395 . S
C874 C877 1.403 . S
C875 C872 1.403 . S
C875 C876 1.524 . S
C875 C879 1.400 . S
C876 H861 0.960 . S
C876 H862 0.960 . S
C876 H863 0.960 . S
C876 C875 1.524 . S
C877 C874 1.403 . S
C877 C878 1.392 . S
C877 C881 1.495 . S
C878 C877 1.392 . S
C878 C879 1.385 . S
C878 C880 1.478 . S
C879 H873 0.930 . S
C879 C875 1.400 . S
C879 C878 1.385 . S
C880 C878 1.478 . S
C880 C882 1.381 . S
C880 C886 1.383 . S
C881 C877 1.495 . S
C881 H887 0.959 . S
C881 H888 0.961 . S
C881 H889 0.960 . S
C882 C880 1.381 . S
C882 C883 1.394 . S
C882 H890 0.930 . S
C883 C882 1.394 . S
C883 C884 1.383 . S
C883 H891 0.929 . S
C884 C883 1.383 . S
C884 C885 1.377 . S
C885 H869 0.930 . S
C885 C884 1.377 . S
C885 C886 1.379 . S
C886 H870 0.931 . S
C886 C880 1.383 . S
C886 C885 1.379 . S
H887 C881 0.959 . S
H888 C881 0.961 . S
H889 C881 0.960 . S
H890 C882 0.930 . S
H891 C883 0.929 . S
H892 C900 0.929 . S
H893 C902 0.930 . S
H894 C904 0.930 . S
H895 C907 0.929 . S
H896 C910 0.930 . S
H897 C912 0.960 . S
H898 C912 0.960 . S
H899 C912 0.960 . S
C900 H892 0.929 . S
C900 C901 1.377 . S
C900 C902 1.384 . S
C901 C900 1.377 . S
C901 C907 1.390 . S
C902 H893 0.930 . S
C902 C900 1.384 . S
C902 C903 1.372 . S
C903 C902 1.372 . S
C903 C904 1.400 . S
C903 C908 1.490 . S
C904 H894 0.930 . S
C904 C903 1.400 . S
C904 C907 1.386 . S
H905 C921 0.930 . S
H906 C922 0.931 . S
C907 H895 0.929 . S
C907 C901 1.390 . S
C907 C904 1.386 . S
C908 C903 1.490 . S
C908 C910 1.395 . S
C908 C911 1.403 . S
H909 C915 0.930 . S
C910 H896 0.930 . S
C910 C908 1.395 . S
C910 C913 1.403 . S
C911 C908 1.403 . S
C911 C912 1.524 . S
C911 C915 1.400 . S
C912 H897 0.960 . S
C912 H898 0.960 . S
C912 H899 0.960 . S
C912 C911 1.524 . S
C913 C910 1.403 . S
C913 C914 1.392 . S
C913 C917 1.495 . S
C914 C913 1.392 . S
C914 C915 1.385 . S
C914 C916 1.478 . S
C915 H909 0.930 . S
C915 C911 1.400 . S
C915 C914 1.385 . S
C916 C914 1.478 . S
C916 C918 1.381 . S
C916 C922 1.383 . S
C917 C913 1.495 . S
C917 H923 0.959 . S
C917 H924 0.961 . S
C917 H925 0.960 . S
C918 C916 1.381 . S
C918 C919 1.394 . S
C918 H926 0.930 . S
C919 C918 1.394 . S
C919 C920 1.383 . S
C919 H927 0.929 . S
C920 C919 1.383 . S
C920 C921 1.377 . S
C921 H905 0.930 . S
C921 C920 1.377 . S
C921 C922 1.379 . S
C922 H906 0.931 . S
C922 C916 1.383 . S
C922 C921 1.379 . S
H923 C917 0.959 . S
H924 C917 0.961 . S
H925 C917 0.960 . S
H926 C918 0.930 . S
H927 C919 0.929 . S
H928 C936 0.929 . S
H929 C938 0.930 . S
H930 C940 0.930 . S
H931 C943 0.929 . S
H932 C946 0.930 . S
H933 C948 0.960 . S
H934 C948 0.960 . S
H935 C948 0.960 . S
C936 H928 0.929 . S
C936 C937 1.377 . S
C936 C938 1.384 . S
C937 C936 1.377 . S
C937 C943 1.390 . S
C938 H929 0.930 . S
C938 C936 1.384 . S
C938 C939 1.372 . S
C939 C938 1.372 . S
C939 C940 1.400 . S
C939 C944 1.490 . S
C940 H930 0.930 . S
C940 C939 1.400 . S
C940 C943 1.386 . S
H941 C957 0.930 . S
H942 C958 0.931 . S
C943 H931 0.929 . S
C943 C937 1.390 . S
C943 C940 1.386 . S
C944 C939 1.490 . S
C944 C946 1.395 . S
C944 C947 1.403 . S
H945 C951 0.930 . S
C946 H932 0.930 . S
C946 C944 1.395 . S
C946 C949 1.403 . S
C947 C944 1.403 . S
C947 C948 1.524 . S
C947 C951 1.400 . S
C948 H933 0.960 . S
C948 H934 0.960 . S
C948 H935 0.960 . S
C948 C947 1.524 . S
C949 C946 1.403 . S
C949 C950 1.392 . S
C949 C953 1.495 . S
C950 C949 1.392 . S
C950 C951 1.385 . S
C950 C952 1.478 . S
C951 H945 0.930 . S
C951 C947 1.400 . S
C951 C950 1.385 . S
C952 C950 1.478 . S
C952 C954 1.381 . S
C952 C958 1.383 . S
C953 C949 1.495 . S
C953 H959 0.959 . S
C953 H960 0.961 . S
C953 H961 0.960 . S
C954 C952 1.381 . S
C954 C955 1.394 . S
C954 H962 0.930 . S
C955 C954 1.394 . S
C955 C956 1.383 . S
C955 H963 0.929 . S
C956 C955 1.383 . S
C956 C957 1.377 . S
C957 H941 0.930 . S
C957 C956 1.377 . S
C957 C958 1.379 . S
C958 H942 0.931 . S
C958 C952 1.383 . S
C958 C957 1.379 . S
H959 C953 0.959 . S
H960 C953 0.961 . S
H961 C953 0.960 . S
H962 C954 0.930 . S
H963 C955 0.929 . S
H964 C972 0.929 . S
H965 C974 0.930 . S
H966 C976 0.930 . S
H967 C979 0.929 . S
H968 C982 0.930 . S
H969 C984 0.960 . S
H970 C984 0.960 . S
H971 C984 0.960 . S
C972 H964 0.929 . S
C972 C973 1.377 . S
C972 C974 1.384 . S
C973 C972 1.377 . S
C973 C979 1.390 . S
C974 H965 0.930 . S
C974 C972 1.384 . S
C974 C975 1.372 . S
C975 C974 1.372 . S
C975 C976 1.400 . S
C975 C980 1.490 . S
C976 H966 0.930 . S
C976 C975 1.400 . S
C976 C979 1.386 . S
H977 C993 0.930 . S
H978 C994 0.931 . S
C979 H967 0.929 . S
C979 C973 1.390 . S
C979 C976 1.386 . S
C980 C975 1.490 . S
C980 C982 1.395 . S
C980 C983 1.403 . S
H981 C987 0.930 . S
C982 H968 0.930 . S
C982 C980 1.395 . S
C982 C985 1.403 . S
C983 C980 1.403 . S
C983 C984 1.524 . S
C983 C987 1.400 . S
C984 H969 0.960 . S
C984 H970 0.960 . S
C984 H971 0.960 . S
C984 C983 1.524 . S
C985 C982 1.403 . S
C985 C986 1.392 . S
C985 C989 1.495 . S
C986 C985 1.392 . S
C986 C987 1.385 . S
C986 C988 1.478 . S
C987 H981 0.930 . S
C987 C983 1.400 . S
C987 C986 1.385 . S
C988 C986 1.478 . S
C988 C990 1.381 . S
C988 C994 1.383 . S
C989 C985 1.495 . S
C989 H995 0.959 . S
C989 H996 0.961 . S
C989 H997 0.960 . S
C990 C988 1.381 . S
C990 C991 1.394 . S
C990 H998 0.930 . S
C991 C990 1.394 . S
C991 C992 1.383 . S
C991 H999 0.929 . S
C992 C991 1.383 . S
C992 C993 1.377 . S
C993 H977 0.930 . S
C993 C992 1.377 . S
C993 C994 1.379 . S
C994 H978 0.931 . S
C994 C988 1.383 . S
C994 C993 1.379 . S
H995 C989 0.959 . S
H996 C989 0.961 . S
H997 C989 0.960 . S
H998 C990 0.930 . S
H999 C991 0.929 . S
H1000 C1008 0.929 . S
H1001 C1010 0.930 . S
H1002 C1012 0.930 . S
H1003 C1015 0.929 . S
H1004 C1018 0.930 . S
H1005 C1020 0.960 . S
H1006 C1020 0.960 . S
H1007 C1020 0.960 . S
C1008 H1000 0.929 . S
C1008 C1009 1.377 1_545 S
C1008 C1010 1.384 . S
C1009 C1008 1.377 1_565 S
C1009 C1015 1.390 . S
C1010 H1001 0.930 . S
C1010 C1008 1.384 . S
C1010 C1011 1.372 . S
C1011 C1010 1.372 . S
C1011 C1012 1.400 . S
C1011 C1016 1.490 . S
C1012 H1002 0.930 . S
C1012 C1011 1.400 . S
C1012 C1015 1.386 1_545 S
H1013 C1029 0.930 . S
H1014 C1030 0.931 . S
C1015 H1003 0.929 . S
C1015 C1009 1.390 . S
C1015 C1012 1.386 1_565 S
C1016 C1011 1.490 . S
C1016 C1018 1.395 . S
C1016 C1019 1.403 . S
H1017 C1023 0.930 . S
C1018 H1004 0.930 . S
C1018 C1016 1.395 . S
C1018 C1021 1.403 . S
C1019 C1016 1.403 . S
C1019 C1020 1.524 . S
C1019 C1023 1.400 . S
C1020 H1005 0.960 . S
C1020 H1006 0.960 . S
C1020 H1007 0.960 . S
C1020 C1019 1.524 . S
C1021 C1018 1.403 . S
C1021 C1022 1.392 . S
C1021 C1025 1.495 . S
C1022 C1021 1.392 . S
C1022 C1023 1.385 . S
C1022 C1024 1.478 . S
C1023 H1017 0.930 . S
C1023 C1019 1.400 . S
C1023 C1022 1.385 . S
C1024 C1022 1.478 . S
C1024 C1026 1.381 . S
C1024 C1030 1.383 . S
C1025 C1021 1.495 . S
C1025 H1031 0.959 . S
C1025 H1032 0.961 . S
C1025 H1033 0.960 . S
C1026 C1024 1.381 . S
C1026 C1027 1.394 . S
C1026 H1034 0.930 . S
C1027 C1026 1.394 . S
C1027 C1028 1.383 . S
C1027 H1035 0.929 . S
C1028 C1027 1.383 . S
C1028 C1029 1.377 . S
C1029 H1013 0.930 . S
C1029 C1028 1.377 . S
C1029 C1030 1.379 . S
C1030 H1014 0.931 . S
C1030 C1024 1.383 . S
C1030 C1029 1.379 . S
H1031 C1025 0.959 . S
H1032 C1025 0.961 . S
H1033 C1025 0.960 . S
H1034 C1026 0.930 . S
H1035 C1027 0.929 . S
H1036 C1044 0.929 . S
H1037 C1046 0.930 . S
H1038 C1048 0.930 . S
H1039 C1051 0.929 . S
H1040 C1054 0.930 . S
H1041 C1056 0.960 . S
H1042 C1056 0.960 . S
H1043 C1056 0.960 . S
C1044 H1036 0.929 . S
C1044 C1045 1.377 1_565 S
C1044 C1046 1.384 . S
C1045 C1044 1.377 1_545 S
C1045 C1051 1.390 . S
C1046 H1037 0.930 . S
C1046 C1044 1.384 . S
C1046 C1047 1.372 . S
C1047 C1046 1.372 . S
C1047 C1048 1.400 . S
C1047 C1052 1.490 . S
C1048 H1038 0.930 . S
C1048 C1047 1.400 . S
C1048 C1051 1.386 1_565 S
H1049 C1065 0.930 . S
H1050 C1066 0.931 . S
C1051 H1039 0.929 . S
C1051 C1045 1.390 . S
C1051 C1048 1.386 1_545 S
C1052 C1047 1.490 . S
C1052 C1054 1.395 . S
C1052 C1055 1.403 . S
H1053 C1059 0.930 . S
C1054 H1040 0.930 . S
C1054 C1052 1.395 . S
C1054 C1057 1.403 . S
C1055 C1052 1.403 . S
C1055 C1056 1.524 . S
C1055 C1059 1.400 . S
C1056 H1041 0.960 . S
C1056 H1042 0.960 . S
C1056 H1043 0.960 . S
C1056 C1055 1.524 . S
C1057 C1054 1.403 . S
C1057 C1058 1.392 . S
C1057 C1061 1.495 . S
C1058 C1057 1.392 . S
C1058 C1059 1.385 . S
C1058 C1060 1.478 . S
C1059 H1053 0.930 . S
C1059 C1055 1.400 . S
C1059 C1058 1.385 . S
C1060 C1058 1.478 . S
C1060 C1062 1.381 . S
C1060 C1066 1.383 . S
C1061 C1057 1.495 . S
C1061 H1067 0.959 . S
C1061 H1068 0.961 . S
C1061 H1069 0.960 . S
C1062 C1060 1.381 . S
C1062 C1063 1.394 . S
C1062 H1070 0.930 . S
C1063 C1062 1.394 . S
C1063 C1064 1.383 . S
C1063 H1071 0.929 . S
C1064 C1063 1.383 . S
C1064 C1065 1.377 . S
C1065 H1049 0.930 . S
C1065 C1064 1.377 . S
C1065 C1066 1.379 . S
C1066 H1050 0.931 . S
C1066 C1060 1.383 . S
C1066 C1065 1.379 . S
H1067 C1061 0.959 . S
H1068 C1061 0.961 . S
H1069 C1061 0.960 . S
H1070 C1062 0.930 . S
H1071 C1063 0.929 . S
H1072 C1080 0.929 . S
H1073 C1082 0.930 . S
H1074 C1084 0.930 . S
H1075 C1087 0.929 . S
H1076 C1090 0.930 . S
H1077 C1092 0.960 . S
H1078 C1092 0.960 . S
H1079 C1092 0.960 . S
C1080 H1072 0.929 . S
C1080 C1081 1.377 1_545 S
C1080 C1082 1.384 . S
C1081 C1080 1.377 1_565 S
C1081 C1087 1.390 . S
C1082 H1073 0.930 . S
C1082 C1080 1.384 . S
C1082 C1083 1.372 . S
C1083 C1082 1.372 . S
C1083 C1084 1.400 . S
C1083 C1088 1.490 . S
C1084 H1074 0.930 . S
C1084 C1083 1.400 . S
C1084 C1087 1.386 1_545 S
H1085 C1101 0.930 . S
H1086 C1102 0.931 . S
C1087 H1075 0.929 . S
C1087 C1081 1.390 . S
C1087 C1084 1.386 1_565 S
C1088 C1083 1.490 . S
C1088 C1090 1.395 . S
C1088 C1091 1.403 . S
H1089 C1095 0.930 . S
C1090 H1076 0.930 . S
C1090 C1088 1.395 . S
C1090 C1093 1.403 . S
C1091 C1088 1.403 . S
C1091 C1092 1.524 . S
C1091 C1095 1.400 . S
C1092 H1077 0.960 . S
C1092 H1078 0.960 . S
C1092 H1079 0.960 . S
C1092 C1091 1.524 . S
C1093 C1090 1.403 . S
C1093 C1094 1.392 . S
C1093 C1097 1.495 . S
C1094 C1093 1.392 . S
C1094 C1095 1.385 . S
C1094 C1096 1.478 . S
C1095 H1089 0.930 . S
C1095 C1091 1.400 . S
C1095 C1094 1.385 . S
C1096 C1094 1.478 . S
C1096 C1098 1.381 . S
C1096 C1102 1.383 . S
C1097 C1093 1.495 . S
C1097 H1103 0.959 . S
C1097 H1104 0.961 . S
C1097 H1105 0.960 . S
C1098 C1096 1.381 . S
C1098 C1099 1.394 . S
C1098 H1106 0.930 . S
C1099 C1098 1.394 . S
C1099 C1100 1.383 . S
C1099 H1107 0.929 . S
C1100 C1099 1.383 . S
C1100 C1101 1.377 . S
C1101 H1085 0.930 . S
C1101 C1100 1.377 . S
C1101 C1102 1.379 . S
C1102 H1086 0.931 . S
C1102 C1096 1.383 . S
C1102 C1101 1.379 . S
H1103 C1097 0.959 . S
H1104 C1097 0.961 . S
H1105 C1097 0.960 . S
H1106 C1098 0.930 . S
H1107 C1099 0.929 . S
H1108 C1116 0.931 . S
H1109 C1118 0.930 . S
H1110 C1120 0.930 . S
H1111 C1123 0.929 . S
H1112 C1126 0.930 . S
H1113 C1128 0.960 . S
H1114 C1128 0.960 . S
H1115 C1128 0.960 . S
C1116 H1108 0.931 . S
C1116 C1117 1.378 . S
C1116 C1118 1.382 1_545 S
C1117 C1116 1.378 . S
C1117 C1123 1.390 1_545 S
C1118 H1109 0.930 . S
C1118 C1116 1.382 1_565 S
C1118 C1119 1.372 . S
C1119 C1118 1.372 . S
C1119 C1120 1.400 . S
C1119 C1124 1.490 . S
C1120 H1110 0.930 . S
C1120 C1119 1.400 . S
C1120 C1123 1.386 . S
H1121 C1137 0.930 . S
H1122 C1138 0.931 . S
C1123 H1111 0.929 . S
C1123 C1117 1.390 1_565 S
C1123 C1120 1.386 . S
C1124 C1119 1.490 . S
C1124 C1126 1.395 . S
C1124 C1127 1.403 . S
H1125 C1131 0.930 . S
C1126 H1112 0.930 . S
C1126 C1124 1.395 . S
C1126 C1129 1.403 . S
C1127 C1124 1.403 . S
C1127 C1128 1.524 . S
C1127 C1131 1.400 . S
C1128 H1113 0.960 . S
C1128 H1114 0.960 . S
C1128 H1115 0.960 . S
C1128 C1127 1.524 . S
C1129 C1126 1.403 . S
C1129 C1130 1.392 . S
C1129 C1133 1.495 . S
C1130 C1129 1.392 . S
C1130 C1131 1.385 . S
C1130 C1132 1.478 . S
C1131 H1125 0.930 . S
C1131 C1127 1.400 . S
C1131 C1130 1.385 . S
C1132 C1130 1.478 . S
C1132 C1134 1.381 . S
C1132 C1138 1.383 . S
C1133 C1129 1.495 . S
C1133 H1139 0.959 . S
C1133 H1140 0.961 . S
C1133 H1141 0.960 . S
C1134 C1132 1.381 . S
C1134 C1135 1.394 . S
C1134 H1142 0.930 . S
C1135 C1134 1.394 . S
C1135 C1136 1.383 . S
C1135 H1143 0.929 . S
C1136 C1135 1.383 . S
C1136 C1137 1.377 . S
C1137 H1121 0.930 . S
C1137 C1136 1.377 . S
C1137 C1138 1.379 . S
C1138 H1122 0.931 . S
C1138 C1132 1.383 . S
C1138 C1137 1.379 . S
H1139 C1133 0.959 . S
H1140 C1133 0.961 . S
H1141 C1133 0.960 . S
H1142 C1134 0.930 . S
H1143 C1135 0.929 . S
H1144 C1152 0.929 . S
H1145 C1154 0.930 . S
H1146 C1156 0.930 . S
H1147 C1159 0.929 . S
H1148 C1162 0.930 . S
H1149 C1164 0.960 . S
H1150 C1164 0.960 . S
H1151 C1164 0.960 . S
C1152 H1144 0.929 . S
C1152 C1153 1.377 . S
C1152 C1154 1.384 . S
C1153 C1152 1.377 . S
C1153 C1159 1.390 . S
C1154 H1145 0.930 . S
C1154 C1152 1.384 . S
C1154 C1155 1.372 . S
C1155 C1154 1.372 . S
C1155 C1156 1.400 . S
C1155 C1160 1.490 . S
C1156 H1146 0.930 . S
C1156 C1155 1.400 . S
C1156 C1159 1.386 . S
H1157 C1173 0.930 . S
H1158 C1174 0.931 . S
C1159 H1147 0.929 . S
C1159 C1153 1.390 . S
C1159 C1156 1.386 . S
C1160 C1155 1.490 . S
C1160 C1162 1.395 . S
C1160 C1163 1.403 . S
H1161 C1167 0.930 . S
C1162 H1148 0.930 . S
C1162 C1160 1.395 . S
C1162 C1165 1.403 . S
C1163 C1160 1.403 . S
C1163 C1164 1.524 . S
C1163 C1167 1.400 . S
C1164 H1149 0.960 . S
C1164 H1150 0.960 . S
C1164 H1151 0.960 . S
C1164 C1163 1.524 . S
C1165 C1162 1.403 . S
C1165 C1166 1.392 . S
C1165 C1169 1.495 . S
C1166 C1165 1.392 . S
C1166 C1167 1.385 . S
C1166 C1168 1.478 . S
C1167 H1161 0.930 . S
C1167 C1163 1.400 . S
C1167 C1166 1.385 . S
C1168 C1166 1.478 . S
C1168 C1170 1.381 . S
C1168 C1174 1.383 . S
C1169 C1165 1.495 . S
C1169 H1175 0.959 . S
C1169 H1176 0.961 . S
C1169 H1177 0.960 . S
C1170 C1168 1.381 . S
C1170 C1171 1.394 . S
C1170 H1178 0.930 . S
C1171 C1170 1.394 . S
C1171 C1172 1.383 . S
C1171 H1179 0.929 . S
C1172 C1171 1.383 . S
C1172 C1173 1.377 . S
C1173 H1157 0.930 . S
C1173 C1172 1.377 . S
C1173 C1174 1.379 . S
C1174 H1158 0.931 . S
C1174 C1168 1.383 . S
C1174 C1173 1.379 . S
H1175 C1169 0.959 . S
H1176 C1169 0.961 . S
H1177 C1169 0.960 . S
H1178 C1170 0.930 . S
H1179 C1171 0.929 . S
H1180 C1188 0.929 . S
H1181 C1190 0.930 . S
H1182 C1192 0.930 . S
H1183 C1195 0.929 . S
H1184 C1198 0.930 . S
H1185 C1200 0.960 . S
H1186 C1200 0.960 . S
H1187 C1200 0.960 . S
C1188 H1180 0.929 . S
C1188 C1189 1.377 . S
C1188 C1190 1.384 . S
C1189 C1188 1.377 . S
C1189 C1195 1.390 . S
C1190 H1181 0.930 . S
C1190 C1188 1.384 . S
C1190 C1191 1.372 . S
C1191 C1190 1.372 . S
C1191 C1192 1.400 . S
C1191 C1196 1.490 . S
C1192 H1182 0.930 . S
C1192 C1191 1.400 . S
C1192 C1195 1.386 . S
H1193 C1209 0.930 . S
H1194 C1210 0.931 . S
C1195 H1183 0.929 . S
C1195 C1189 1.390 . S
C1195 C1192 1.386 . S
C1196 C1191 1.490 . S
C1196 C1198 1.395 . S
C1196 C1199 1.403 . S
H1197 C1203 0.930 . S
C1198 H1184 0.930 . S
C1198 C1196 1.395 . S
C1198 C1201 1.403 . S
C1199 C1196 1.403 . S
C1199 C1200 1.524 . S
C1199 C1203 1.400 . S
C1200 H1185 0.960 . S
C1200 H1186 0.960 . S
C1200 H1187 0.960 . S
C1200 C1199 1.524 . S
C1201 C1198 1.403 . S
C1201 C1202 1.392 . S
C1201 C1205 1.495 . S
C1202 C1201 1.392 . S
C1202 C1203 1.385 . S
C1202 C1204 1.478 . S
C1203 H1197 0.930 . S
C1203 C1199 1.400 . S
C1203 C1202 1.385 . S
C1204 C1202 1.478 . S
C1204 C1206 1.381 . S
C1204 C1210 1.383 . S
C1205 C1201 1.495 . S
C1205 H1211 0.959 . S
C1205 H1212 0.961 . S
C1205 H1213 0.960 . S
C1206 C1204 1.381 . S
C1206 C1207 1.394 . S
C1206 H1214 0.930 . S
C1207 C1206 1.394 . S
C1207 C1208 1.383 . S
C1207 H1215 0.929 . S
C1208 C1207 1.383 . S
C1208 C1209 1.377 . S
C1209 H1193 0.930 . S
C1209 C1208 1.377 . S
C1209 C1210 1.379 . S
C1210 H1194 0.931 . S
C1210 C1204 1.383 . S
C1210 C1209 1.379 . S
H1211 C1205 0.959 . S
H1212 C1205 0.961 . S
H1213 C1205 0.960 . S
H1214 C1206 0.930 . S
H1215 C1207 0.929 . S
H1216 C1224 0.929 . S
H1217 C1226 0.930 . S
H1218 C1228 0.930 . S
H1219 C1231 0.929 . S
H1220 C1234 0.930 . S
H1221 C1236 0.960 . S
H1222 C1236 0.960 . S
H1223 C1236 0.960 . S
C1224 H1216 0.929 . S
C1224 C1225 1.377 . S
C1224 C1226 1.384 . S
C1225 C1224 1.377 . S
C1225 C1231 1.390 . S
C1226 H1217 0.930 . S
C1226 C1224 1.384 . S
C1226 C1227 1.372 . S
C1227 C1226 1.372 . S
C1227 C1228 1.400 . S
C1227 C1232 1.490 . S
C1228 H1218 0.930 . S
C1228 C1227 1.400 . S
C1228 C1231 1.386 . S
H1229 C1245 0.930 . S
H1230 C1246 0.931 . S
C1231 H1219 0.929 . S
C1231 C1225 1.390 . S
C1231 C1228 1.386 . S
C1232 C1227 1.490 . S
C1232 C1234 1.395 . S
C1232 C1235 1.403 . S
H1233 C1239 0.930 . S
C1234 H1220 0.930 . S
C1234 C1232 1.395 . S
C1234 C1237 1.403 . S
C1235 C1232 1.403 . S
C1235 C1236 1.524 . S
C1235 C1239 1.400 . S
C1236 H1221 0.960 . S
C1236 H1222 0.960 . S
C1236 H1223 0.960 . S
C1236 C1235 1.524 . S
C1237 C1234 1.403 . S
C1237 C1238 1.392 . S
C1237 C1241 1.495 . S
C1238 C1237 1.392 . S
C1238 C1239 1.385 . S
C1238 C1240 1.478 . S
C1239 H1233 0.930 . S
C1239 C1235 1.400 . S
C1239 C1238 1.385 . S
C1240 C1238 1.478 . S
C1240 C1242 1.381 . S
C1240 C1246 1.383 . S
C1241 C1237 1.495 . S
C1241 H1247 0.959 . S
C1241 H1248 0.961 . S
C1241 H1249 0.960 . S
C1242 C1240 1.381 . S
C1242 C1243 1.394 . S
C1242 H1250 0.930 . S
C1243 C1242 1.394 . S
C1243 C1244 1.383 . S
C1243 H1251 0.929 . S
C1244 C1243 1.383 . S
C1244 C1245 1.377 . S
C1245 H1229 0.930 . S
C1245 C1244 1.377 . S
C1245 C1246 1.379 . S
C1246 H1230 0.931 . S
C1246 C1240 1.383 . S
C1246 C1245 1.379 . S
H1247 C1241 0.959 . S
H1248 C1241 0.961 . S
H1249 C1241 0.960 . S
H1250 C1242 0.930 . S
H1251 C1243 0.929 . S
H1252 C1260 0.929 . S
H1253 C1262 0.930 . S
H1254 C1264 0.930 . S
H1255 C1267 0.929 . S
H1256 C1270 0.930 . S
H1257 C1272 0.960 . S
H1258 C1272 0.960 . S
H1259 C1272 0.960 . S
C1260 H1252 0.929 . S
C1260 C1261 1.377 . S
C1260 C1262 1.384 . S
C1261 C1260 1.377 . S
C1261 C1267 1.390 . S
C1262 H1253 0.930 . S
C1262 C1260 1.384 . S
C1262 C1263 1.372 . S
C1263 C1262 1.372 . S
C1263 C1264 1.400 . S
C1263 C1268 1.490 . S
C1264 H1254 0.930 . S
C1264 C1263 1.400 . S
C1264 C1267 1.386 . S
H1265 C1281 0.930 . S
H1266 C1282 0.931 . S
C1267 H1255 0.929 . S
C1267 C1261 1.390 . S
C1267 C1264 1.386 . S
C1268 C1263 1.490 . S
C1268 C1270 1.395 . S
C1268 C1271 1.403 . S
H1269 C1275 0.930 . S
C1270 H1256 0.930 . S
C1270 C1268 1.395 . S
C1270 C1273 1.403 . S
C1271 C1268 1.403 . S
C1271 C1272 1.524 . S
C1271 C1275 1.400 . S
C1272 H1257 0.960 . S
C1272 H1258 0.960 . S
C1272 H1259 0.960 . S
C1272 C1271 1.524 . S
C1273 C1270 1.403 . S
C1273 C1274 1.392 . S
C1273 C1277 1.495 . S
C1274 C1273 1.392 . S
C1274 C1275 1.385 . S
C1274 C1276 1.478 . S
C1275 H1269 0.930 . S
C1275 C1271 1.400 . S
C1275 C1274 1.385 . S
C1276 C1274 1.478 . S
C1276 C1278 1.381 . S
C1276 C1282 1.383 . S
C1277 C1273 1.495 . S
C1277 H1283 0.959 . S
C1277 H1284 0.961 . S
C1277 H1285 0.960 . S
C1278 C1276 1.381 . S
C1278 C1279 1.394 . S
C1278 H1286 0.930 . S
C1279 C1278 1.394 . S
C1279 C1280 1.383 . S
C1279 H1287 0.929 . S
C1280 C1279 1.383 . S
C1280 C1281 1.377 . S
C1281 H1265 0.930 . S
C1281 C1280 1.377 . S
C1281 C1282 1.379 . S
C1282 H1266 0.931 . S
C1282 C1276 1.383 . S
C1282 C1281 1.379 . S
H1283 C1277 0.959 . S
H1284 C1277 0.961 . S
H1285 C1277 0.960 . S
H1286 C1278 0.930 . S
H1287 C1279 0.929 . S
H1288 C1296 0.929 . S
H1289 C1298 0.930 . S
H1290 C1300 0.930 . S
H1291 C1303 0.929 . S
H1292 C1306 0.930 . S
H1293 C1308 0.960 . S
H1294 C1308 0.960 . S
H1295 C1308 0.960 . S
C1296 H1288 0.929 . S
C1296 C1297 1.377 . S
C1296 C1298 1.384 . S
C1297 C1296 1.377 . S
C1297 C1303 1.390 . S
C1298 H1289 0.930 . S
C1298 C1296 1.384 . S
C1298 C1299 1.372 . S
C1299 C1298 1.372 . S
C1299 C1300 1.400 . S
C1299 C1304 1.490 . S
C1300 H1290 0.930 . S
C1300 C1299 1.400 . S
C1300 C1303 1.386 . S
H1301 C1317 0.930 . S
H1302 C1318 0.931 . S
C1303 H1291 0.929 . S
C1303 C1297 1.390 . S
C1303 C1300 1.386 . S
C1304 C1299 1.490 . S
C1304 C1306 1.395 . S
C1304 C1307 1.403 . S
H1305 C1311 0.930 . S
C1306 H1292 0.930 . S
C1306 C1304 1.395 . S
C1306 C1309 1.403 . S
C1307 C1304 1.403 . S
C1307 C1308 1.524 . S
C1307 C1311 1.400 . S
C1308 H1293 0.960 . S
C1308 H1294 0.960 . S
C1308 H1295 0.960 . S
C1308 C1307 1.524 . S
C1309 C1306 1.403 . S
C1309 C1310 1.392 . S
C1309 C1313 1.495 . S
C1310 C1309 1.392 . S
C1310 C1311 1.385 . S
C1310 C1312 1.478 . S
C1311 H1305 0.930 . S
C1311 C1307 1.400 . S
C1311 C1310 1.385 . S
C1312 C1310 1.478 . S
C1312 C1314 1.381 . S
C1312 C1318 1.383 . S
C1313 C1309 1.495 . S
C1313 H1319 0.959 . S
C1313 H1320 0.961 . S
C1313 H1321 0.960 . S
C1314 C1312 1.381 . S
C1314 C1315 1.394 . S
C1314 H1322 0.930 . S
C1315 C1314 1.394 . S
C1315 C1316 1.383 . S
C1315 H1323 0.929 . S
C1316 C1315 1.383 . S
C1316 C1317 1.377 . S
C1317 H1301 0.930 . S
C1317 C1316 1.377 . S
C1317 C1318 1.379 . S
C1318 H1302 0.931 . S
C1318 C1312 1.383 . S
C1318 C1317 1.379 . S
H1319 C1313 0.959 . S
H1320 C1313 0.961 . S
H1321 C1313 0.960 . S
H1322 C1314 0.930 . S
H1323 C1315 0.929 . S
H1324 C1332 0.929 . S
H1325 C1334 0.930 . S
H1326 C1336 0.930 . S
H1327 C1339 0.929 . S
H1328 C1342 0.930 . S
H1329 C1344 0.960 . S
H1330 C1344 0.960 . S
H1331 C1344 0.960 . S
C1332 H1324 0.929 . S
C1332 C1333 1.377 . S
C1332 C1334 1.384 . S
C1333 C1332 1.377 . S
C1333 C1339 1.390 . S
C1334 H1325 0.930 . S
C1334 C1332 1.384 . S
C1334 C1335 1.372 . S
C1335 C1334 1.372 . S
C1335 C1336 1.400 . S
C1335 C1340 1.490 . S
C1336 H1326 0.930 . S
C1336 C1335 1.400 . S
C1336 C1339 1.386 . S
H1337 C1353 0.930 . S
H1338 C1354 0.931 . S
C1339 H1327 0.929 . S
C1339 C1333 1.390 . S
C1339 C1336 1.386 . S
C1340 C1335 1.490 . S
C1340 C1342 1.395 . S
C1340 C1343 1.403 . S
H1341 C1347 0.930 . S
C1342 H1328 0.930 . S
C1342 C1340 1.395 . S
C1342 C1345 1.403 . S
C1343 C1340 1.403 . S
C1343 C1344 1.524 . S
C1343 C1347 1.400 . S
C1344 H1329 0.960 . S
C1344 H1330 0.960 . S
C1344 H1331 0.960 . S
C1344 C1343 1.524 . S
C1345 C1342 1.403 . S
C1345 C1346 1.392 . S
C1345 C1349 1.495 . S
C1346 C1345 1.392 . S
C1346 C1347 1.385 . S
C1346 C1348 1.478 . S
C1347 H1341 0.930 . S
C1347 C1343 1.400 . S
C1347 C1346 1.385 . S
C1348 C1346 1.478 . S
C1348 C1350 1.381 . S
C1348 C1354 1.383 . S
C1349 C1345 1.495 . S
C1349 H1355 0.959 . S
C1349 H1356 0.961 . S
C1349 H1357 0.960 . S
C1350 C1348 1.381 . S
C1350 C1351 1.394 . S
C1350 H1358 0.930 . S
C1351 C1350 1.394 . S
C1351 C1352 1.383 . S
C1351 H1359 0.929 . S
C1352 C1351 1.383 . S
C1352 C1353 1.377 . S
C1353 H1337 0.930 . S
C1353 C1352 1.377 . S
C1353 C1354 1.379 . S
C1354 H1338 0.931 . S
C1354 C1348 1.383 . S
C1354 C1353 1.379 . S
H1355 C1349 0.959 . S
H1356 C1349 0.961 . S
H1357 C1349 0.960 . S
H1358 C1350 0.930 . S
H1359 C1351 0.929 . S
H1360 C1368 0.929 . S
H1361 C1370 0.930 . S
H1362 C1372 0.930 . S
H1363 C1375 0.929 . S
H1364 C1378 0.930 . S
H1365 C1380 0.960 . S
H1366 C1380 0.960 . S
H1367 C1380 0.960 . S
C1368 H1360 0.929 . S
C1368 C1369 1.377 . S
C1368 C1370 1.384 . S
C1369 C1368 1.377 . S
C1369 C1375 1.390 . S
C1370 H1361 0.930 . S
C1370 C1368 1.384 . S
C1370 C1371 1.372 . S
C1371 C1370 1.372 . S
C1371 C1372 1.400 . S
C1371 C1376 1.490 . S
C1372 H1362 0.930 . S
C1372 C1371 1.400 . S
C1372 C1375 1.386 . S
H1373 C1389 0.930 . S
H1374 C1390 0.931 . S
C1375 H1363 0.929 . S
C1375 C1369 1.390 . S
C1375 C1372 1.386 . S
C1376 C1371 1.490 . S
C1376 C1378 1.395 . S
C1376 C1379 1.403 . S
H1377 C1383 0.930 . S
C1378 H1364 0.930 . S
C1378 C1376 1.395 . S
C1378 C1381 1.403 . S
C1379 C1376 1.403 . S
C1379 C1380 1.524 . S
C1379 C1383 1.400 . S
C1380 H1365 0.960 . S
C1380 H1366 0.960 . S
C1380 H1367 0.960 . S
C1380 C1379 1.524 . S
C1381 C1378 1.403 . S
C1381 C1382 1.392 . S
C1381 C1385 1.495 . S
C1382 C1381 1.392 . S
C1382 C1383 1.385 . S
C1382 C1384 1.478 . S
C1383 H1377 0.930 . S
C1383 C1379 1.400 . S
C1383 C1382 1.385 . S
C1384 C1382 1.478 . S
C1384 C1386 1.381 . S
C1384 C1390 1.383 . S
C1385 C1381 1.495 . S
C1385 H1391 0.959 . S
C1385 H1392 0.961 . S
C1385 H1393 0.960 . S
C1386 C1384 1.381 . S
C1386 C1387 1.394 . S
C1386 H1394 0.930 . S
C1387 C1386 1.394 . S
C1387 C1388 1.383 . S
C1387 H1395 0.929 . S
C1388 C1387 1.383 . S
C1388 C1389 1.377 . S
C1389 H1373 0.930 . S
C1389 C1388 1.377 . S
C1389 C1390 1.379 . S
C1390 H1374 0.931 . S
C1390 C1384 1.383 . S
C1390 C1389 1.379 . S
H1391 C1385 0.959 . S
H1392 C1385 0.961 . S
H1393 C1385 0.960 . S
H1394 C1386 0.930 . S
H1395 C1387 0.929 . S
H1396 C1404 0.929 . S
H1397 C1406 0.930 . S
H1398 C1408 0.930 . S
H1399 C1411 0.929 . S
H1400 C1414 0.930 . S
H1401 C1416 0.960 . S
H1402 C1416 0.960 . S
H1403 C1416 0.960 . S
C1404 H1396 0.929 . S
C1404 C1405 1.377 . S
C1404 C1406 1.384 . S
C1405 C1404 1.377 . S
C1405 C1411 1.390 . S
C1406 H1397 0.930 . S
C1406 C1404 1.384 . S
C1406 C1407 1.372 . S
C1407 C1406 1.372 . S
C1407 C1408 1.400 . S
C1407 C1412 1.490 . S
C1408 H1398 0.930 . S
C1408 C1407 1.400 . S
C1408 C1411 1.386 . S
H1409 C1425 0.930 . S
H1410 C1426 0.931 . S
C1411 H1399 0.929 . S
C1411 C1405 1.390 . S
C1411 C1408 1.386 . S
C1412 C1407 1.490 . S
C1412 C1414 1.395 . S
C1412 C1415 1.403 . S
H1413 C1419 0.930 . S
C1414 H1400 0.930 . S
C1414 C1412 1.395 . S
C1414 C1417 1.403 . S
C1415 C1412 1.403 . S
C1415 C1416 1.524 . S
C1415 C1419 1.400 . S
C1416 H1401 0.960 . S
C1416 H1402 0.960 . S
C1416 H1403 0.960 . S
C1416 C1415 1.524 . S
C1417 C1414 1.403 . S
C1417 C1418 1.392 . S
C1417 C1421 1.495 . S
C1418 C1417 1.392 . S
C1418 C1419 1.385 . S
C1418 C1420 1.478 . S
C1419 H1413 0.930 . S
C1419 C1415 1.400 . S
C1419 C1418 1.385 . S
C1420 C1418 1.478 . S
C1420 C1422 1.381 . S
C1420 C1426 1.383 . S
C1421 C1417 1.495 . S
C1421 H1427 0.959 . S
C1421 H1428 0.961 . S
C1421 H1429 0.960 . S
C1422 C1420 1.381 . S
C1422 C1423 1.394 . S
C1422 H1430 0.930 . S
C1423 C1422 1.394 . S
C1423 C1424 1.383 . S
C1423 H1431 0.929 . S
C1424 C1423 1.383 . S
C1424 C1425 1.377 . S
C1425 H1409 0.930 . S
C1425 C1424 1.377 . S
C1425 C1426 1.379 . S
C1426 H1410 0.931 . S
C1426 C1420 1.383 . S
C1426 C1425 1.379 . S
H1427 C1421 0.959 . S
H1428 C1421 0.961 . S
H1429 C1421 0.960 . S
H1430 C1422 0.930 . S
H1431 C1423 0.929 . S
C577 C31 1.494 . S
C596 C506 1.492 . S
C632 C484 1.516 . S
C613 C61 1.500 . S
C668 C510 1.504 . S
C649 C151 1.483 . S
C704 C488 1.486 . S
C685 C181 1.528 . S
C740 C550 1.486 . S
C721 C271 1.491 . S
C776 C528 1.517 . S
C757 C301 1.497 . S
C793 C391 1.479 . S
C812 C554 1.497 . S
C848 C532 1.481 . S
C829 C421 1.530 . S
C865 C20 1.518 . S
C884 C555 1.538 . S
C920 C533 1.513 . S
C901 C91 1.523 . S
C937 C121 1.453 . S
C956 C552 1.542 . S
C973 C211 1.549 . S
C992 C530 1.512 . S
C1028 C511 1.532 . S
C1009 C260 1.521 . S
C1045 C331 1.518 . S
C1064 C489 1.535 . S
C1100 C508 1.537 . S
C1081 C361 1.459 . S
C1136 C486 1.516 . S
C1117 C451 1.552 . S
C1172 C529 1.473 . S
C1153 C1 1.427 . S
C1208 C551 1.487 . S
C1189 C80 1.429 . S
C1225 C140 1.477 . S
C1244 C531 1.481 . S
C1280 C553 1.499 . S
C1261 C200 1.461 . S
C1316 C485 1.500 . S
C1297 C241 1.418 . S
C1333 C320 1.423 . S
C1352 C507 1.467 . S
C1369 C380 1.474 . S
C1388 C487 1.489 . S
C1405 C440 1.460 . S
C1424 C509 1.504 . S
