# Generated by pormake.
# Topology rtl, (3,6)-cn, num edge types: 1
# Building blocks:
#     Node 0, Type 0, BuildingBlock: MIDCAF_clean_linker_0, # of connection points: 3
#     Node 1, Type 0, BuildingBlock: MIDCAF_clean_linker_0, # of connection points: 3
#     Node 2, Type 0, BuildingBlock: MIDCAF_clean_linker_0, # of connection points: 3
#     Node 3, Type 0, BuildingBlock: MIDCAF_clean_linker_0, # of connection points: 3
#     Node 4, Type 1, BuildingBlock: FUNLAD_clean_sbu_0, # of connection points: 6
#     Node 5, Type 1, BuildingBlock: FUNLAD_clean_sbu_0, # of connection points: 6
#     Edge 6, Type (0, 1), BuildingBlock: XIVTED_clean_linker_0, # of connection points: 2
#     Edge 7, Type (0, 1), BuildingBlock: XIVTED_clean_linker_0, # of connection points: 2
#     Edge 8, Type (0, 1), BuildingBlock: XIVTED_clean_linker_0, # of connection points: 2
#     Edge 9, Type (0, 1), BuildingBlock: XIVTED_clean_linker_0, # of connection points: 2
#     Edge 10, Type (0, 1), BuildingBlock: XIVTED_clean_linker_0, # of connection points: 2
#     Edge 11, Type (0, 1), BuildingBlock: XIVTED_clean_linker_0, # of connection points: 2
#     Edge 12, Type (0, 1), BuildingBlock: XIVTED_clean_linker_0, # of connection points: 2
#     Edge 13, Type (0, 1), BuildingBlock: XIVTED_clean_linker_0, # of connection points: 2
#     Edge 14, Type (0, 1), BuildingBlock: XIVTED_clean_linker_0, # of connection points: 2
#     Edge 15, Type (0, 1), BuildingBlock: XIVTED_clean_linker_0, # of connection points: 2
#     Edge 16, Type (0, 1), BuildingBlock: XIVTED_clean_linker_0, # of connection points: 2
#     Edge 17, Type (0, 1), BuildingBlock: XIVTED_clean_linker_0, # of connection points: 2
# Relax obj value: 0.028
# Max RMSD: 0.094
# Mean RMSD: 0.080
data_MOF--net-rtl--node1-FUNLAD_clean_sbu_0--node2-MIDCAF_clean_linker_0--edge1-XIVTED_clean_linker_0
_symmetry_space_group_name_H-M    P1
_symmetry_Int_Tables_number       1
_symmetry_cell_setting            triclinic
loop_
_symmetry_equiv_pos_as_xyz
'x, y, z'
_cell_length_a     48.965333
_cell_length_b     39.650285
_cell_length_c     28.350035
_cell_angle_alpha  89.742592
_cell_angle_beta   90.776104
_cell_angle_gamma 90.536931
loop_
_atom_site_label
_atom_site_type_symbol
_atom_site_fract_x
_atom_site_fract_y
_atom_site_fract_z
_atom_type_partial_charge
C0 C 0.07719 0.82337 0.12693 0.0
C1 C 0.08319 0.81017 0.17178 0.0
C2 C 0.096 0.77872 0.17567 0.0
C3 C 0.10352 0.76125 0.13503 0.0
H4 H 0.16767 0.70064 0.08259 0.0
H5 H 0.20974 0.66816 0.08123 0.0
H6 H 0.20195 0.65877 0.92995 0.0
H7 H 0.16026 0.69141 0.93094 0.0
H8 H 0.12595 0.74682 0.87521 0.0
H9 H 0.11036 0.77374 0.80216 0.0
H10 H 0.04258 0.81699 0.87591 0.0
H11 H 0.05786 0.79001 0.94862 0.0
H12 H 0.0795 0.81701 0.05253 0.0
H13 H 0.06716 0.84749 0.12314 0.0
H14 H 0.10083 0.76815 0.21005 0.0
H15 H 0.11389 0.73736 0.13884 0.0
N16 N 0.1273 0.73502 0.04742 0.0
N17 N 0.12518 0.73144 0.96474 0.0
N18 N 0.09534 0.76682 0.00441 0.0
C19 C 0.13666 0.7217 0.00654 0.0
C20 C 0.10438 0.75381 0.96343 0.0
C21 C 0.10657 0.75763 0.04649 0.0
C22 C 0.16065 0.69906 0.00683 0.0
C23 C 0.17475 0.6914 0.04906 0.0
C24 C 0.19883 0.67264 0.04835 0.0
C25 C 0.20933 0.66123 0.00541 0.0
C26 C 0.19466 0.66775 0.9635 0.0
C27 C 0.17063 0.68638 0.96417 0.0
C28 C 0.09331 0.76651 0.91791 0.0
C29 C 0.10748 0.76163 0.8757 0.0
C30 C 0.09867 0.7772 0.83391 0.0
C31 C 0.07536 0.79764 0.8334 0.0
C32 C 0.06049 0.80117 0.87507 0.0
C33 C 0.06939 0.78587 0.91686 0.0
C34 C 0.09778 0.77472 0.09001 0.0
C35 C 0.08418 0.80575 0.08654 0.0
C36 C 0.55663 0.70291 0.37722 0.0
C37 C 0.57089 0.70781 0.33503 0.0
C38 C 0.59303 0.73061 0.3345 0.0
C39 C 0.60143 0.7471 0.37572 0.0
H40 H 0.65966 0.81088 0.42713 0.0
H41 H 0.70292 0.84136 0.42544 0.0
H42 H 0.70657 0.8404 0.57773 0.0
H43 H 0.663 0.81025 0.57973 0.0
H44 H 0.62287 0.76115 0.63508 0.0
H45 H 0.60848 0.73287 0.70728 0.0
H46 H 0.53958 0.68894 0.63236 0.0
H47 H 0.55357 0.71745 0.56051 0.0
H48 H 0.55411 0.71406 0.45066 0.0
H49 H 0.53962 0.68531 0.37886 0.0
H50 H 0.60416 0.73528 0.30233 0.0
H51 H 0.61903 0.7638 0.37423 0.0
N52 N 0.62102 0.77602 0.46327 0.0
N53 N 0.622 0.77612 0.54599 0.0
N54 N 0.58847 0.74487 0.50515 0.0
C55 C 0.63261 0.78682 0.50438 0.0
C56 C 0.5998 0.75527 0.54664 0.0
C57 C 0.59889 0.75514 0.46331 0.0
C58 C 0.65786 0.80778 0.50359 0.0
C59 C 0.6695 0.81732 0.46038 0.0
C60 C 0.69441 0.83467 0.45933 0.0
C61 C 0.7083 0.84299 0.50142 0.0
C62 C 0.69628 0.83454 0.54468 0.0
C63 C 0.67134 0.81709 0.54578 0.0
C64 C 0.58955 0.74135 0.59176 0.0
C65 C 0.60443 0.74586 0.63409 0.0
C66 C 0.59629 0.72949 0.67545 0.0
C67 C 0.57302 0.70846 0.67544 0.0
C68 C 0.55748 0.70518 0.63367 0.0
C69 C 0.56566 0.72138 0.59233 0.0
C70 C 0.58797 0.74099 0.41849 0.0
C71 C 0.56508 0.71928 0.41849 0.0
C72 C 0.955 0.20396 0.87195 0.0
C73 C 0.93892 0.20524 0.83059 0.0
C74 C 0.91459 0.22379 0.8307 0.0
C75 C 0.90611 0.23986 0.87177 0.0
H76 H 0.84858 0.30578 0.92573 0.0
H77 H 0.80625 0.3376 0.92817 0.0
H78 H 0.81174 0.34003 0.08029 0.0
H79 H 0.85369 0.30791 0.07816 0.0
H80 H 0.89172 0.25668 0.13075 0.0
H81 H 0.90761 0.22887 0.20275 0.0
H82 H 0.97465 0.18588 0.12678 0.0
H83 H 0.95908 0.21385 0.05491 0.0
H84 H 0.95908 0.21749 0.94451 0.0
H85 H 0.97371 0.18962 0.87319 0.0
H86 H 0.90193 0.22553 0.79918 0.0
H87 H 0.88694 0.25327 0.87097 0.0
N88 N 0.88948 0.27178 0.95924 0.0
N89 N 0.89085 0.27181 0.04201 0.0
N90 N 0.92287 0.24085 0.00016 0.0
C91 C 0.87919 0.2825 0.00087 0.0
C92 C 0.91273 0.25106 0.04198 0.0
C93 C 0.91145 0.25106 0.95865 0.0
C94 C 0.85451 0.30394 0.00175 0.0
C95 C 0.84089 0.31326 0.95972 0.0
C96 C 0.81668 0.33167 0.96106 0.0
C97 C 0.80553 0.34111 0.00444 0.0
C98 C 0.81955 0.33263 0.04633 0.0
C99 C 0.84372 0.31431 0.04503 0.0
C100 C 0.92395 0.23728 0.08683 0.0
C101 C 0.91006 0.24168 0.12944 0.0
C102 C 0.91906 0.22559 0.17069 0.0
C103 C 0.94225 0.20499 0.17033 0.0
C104 C 0.95683 0.20179 0.12828 0.0
C105 C 0.94776 0.21768 0.08697 0.0
C106 C 0.92168 0.23741 0.91368 0.0
C107 C 0.94646 0.21978 0.913 0.0
C108 C 0.46455 0.29867 0.63195 0.0
C109 C 0.45022 0.29429 0.67417 0.0
C110 C 0.42787 0.27184 0.67499 0.0
C111 C 0.41917 0.25541 0.6339 0.0
H112 H 0.35822 0.19556 0.58316 0.0
H113 H 0.31469 0.16563 0.58515 0.0
H114 H 0.31076 0.16654 0.43286 0.0
H115 H 0.35455 0.19609 0.43057 0.0
H116 H 0.38853 0.26547 0.38516 0.0
H117 H 0.40355 0.29603 0.31568 0.0
H118 H 0.48681 0.29386 0.36896 0.0
H119 H 0.47118 0.26535 0.43999 0.0
H120 H 0.46674 0.28731 0.55849 0.0
H121 H 0.48177 0.31596 0.63012 0.0
H122 H 0.41669 0.26756 0.70721 0.0
H123 H 0.40133 0.23913 0.63558 0.0
N124 N 0.39812 0.2281 0.54652 0.0
N125 N 0.3959 0.22951 0.46389 0.0
N126 N 0.4312 0.25814 0.5042 0.0
C127 C 0.3856 0.21857 0.50558 0.0
C128 C 0.41882 0.24905 0.46298 0.0
C129 C 0.42094 0.24784 0.54619 0.0
C130 C 0.3599 0.1985 0.50668 0.0
C131 C 0.34824 0.18925 0.54999 0.0
C132 C 0.32317 0.17222 0.55121 0.0
C133 C 0.30919 0.16395 0.50919 0.0
C134 C 0.32114 0.17233 0.46586 0.0
C135 C 0.34621 0.18945 0.4646 0.0
C136 C 0.42866 0.2633 0.41808 0.0
C137 C 0.41008 0.27123 0.38168 0.0
C138 C 0.41881 0.28865 0.3416 0.0
C139 C 0.44647 0.29788 0.33648 0.0
C140 C 0.46524 0.28819 0.37202 0.0
C141 C 0.45637 0.27152 0.41262 0.0
C142 C 0.43256 0.26123 0.59098 0.0
C143 C 0.4558 0.28235 0.59079 0.0
C144 C 0.02456 0.95836 0.43577 0.0
N145 N 0.0685 0.03388 0.50692 0.0
C146 C 0.09013 0.01259 0.50629 0.0
C147 C 0.11679 0.02537 0.50683 0.0
C148 C 0.12124 0.06038 0.50823 0.0
C149 C 0.09853 0.08175 0.50903 0.0
C150 C 0.07222 0.06791 0.50826 0.0
Zn151 Zn 0.02982 0.01431 0.50531 0.0
C152 C 0.99424 0.04916 0.43534 0.0
N153 N 0.94925 0.97253 0.50175 0.0
C154 C 0.94549 0.9385 0.50104 0.0
C155 C 0.92763 0.99385 0.50201 0.0
C156 C 0.90096 0.98112 0.50181 0.0
C157 C 0.89647 0.94609 0.5011 0.0
C158 C 0.91917 0.92468 0.5006 0.0
Zn159 Zn 0.98796 0.99208 0.50329 0.0
O160 O 0.04115 0.98029 0.4522 0.0
C161 C 0.02354 0.95708 0.57301 0.0
O162 O 0.00025 0.95719 0.45096 0.0
H163 H 0.93107 0.02083 0.50242 0.0
H164 H 0.08671 0.98562 0.50538 0.0
H165 H 0.96296 0.92201 0.50107 0.0
O166 O 0.04082 0.97847 0.55774 0.0
O167 O -0.00074 0.95729 0.55663 0.0
H168 H 0.05474 0.08437 0.50855 0.0
O169 O 0.97639 0.02714 0.55559 0.0
O170 O 0.01791 0.04832 0.55842 0.0
O171 O 0.97718 0.02725 0.4499 0.0
O172 O 0.0183 0.04968 0.45271 0.0
C173 C 0.99344 0.04827 0.57276 0.0
H174 H 0.13372 0.00799 0.50673 0.0
H175 H 0.10105 0.10892 0.50954 0.0
H176 H 0.88404 0.99851 0.50163 0.0
H177 H 0.91662 0.89752 0.50062 0.0
C178 C 0.49425 0.45587 0.93584 0.0
N179 N 0.56856 0.4759 0.00581 0.0
C180 C 0.57214 0.44194 0.00768 0.0
C181 C 0.59834 0.42848 0.00824 0.0
C182 C 0.62118 0.45012 0.00668 0.0
C183 C 0.61692 0.48508 0.00443 0.0
C184 C 0.59029 0.49751 0.00419 0.0
Zn185 Zn 0.52953 0.49378 0.00501 0.0
C186 C 0.52164 0.54875 0.93522 0.0
N187 N 0.44733 0.52907 0.00279 0.0
C188 C 0.42567 0.50733 0.00424 0.0
C189 C 0.44362 0.56302 0.00142 0.0
C190 C 0.41736 0.57634 0.00123 0.0
C191 C 0.39461 0.55456 0.00275 0.0
C192 C 0.39899 0.51961 0.00444 0.0
Zn193 Zn 0.48641 0.51125 0.00344 0.0
O194 O 0.51838 0.45789 0.95275 0.0
C195 C 0.49447 0.45641 0.07339 0.0
O196 O 0.47611 0.47582 0.95057 0.0
H197 H 0.4611 0.57988 0.00065 0.0
H198 H 0.5546 0.42518 0.00861 0.0
H199 H 0.42907 0.48042 0.00523 0.0
O200 O 0.51885 0.45915 0.059 0.0
O201 O 0.47609 0.47525 0.05581 0.0
H202 H 0.58698 0.52443 0.00277 0.0
O203 O 0.49737 0.54646 0.05673 0.0
O204 O 0.54001 0.52988 0.05681 0.0
O205 O 0.49741 0.54687 0.95063 0.0
O206 O 0.53965 0.52886 0.95161 0.0
C207 C 0.52169 0.54915 0.0726 0.0
H208 H 0.60067 0.40135 0.00928 0.0
H209 H 0.63398 0.50265 0.00357 0.0
H210 H 0.41491 0.60346 0.00055 0.0
H211 H 0.38199 0.50195 0.00523 0.0
H212 H 0.26691 0.17869 0.56747 0.0
H213 H 0.16505 0.04034 0.45641 0.0
H214 H 0.28895 0.11249 0.45399 0.0
H215 H 0.14154 0.11268 0.56133 0.0
H216 H 0.21122 0.06438 0.45767 0.0
H217 H 0.22158 0.15265 0.56848 0.0
C218 C 0.26229 0.15846 0.54301 0.0
C219 C 0.28178 0.14771 0.51064 0.0
C220 C 0.19596 0.07499 0.48041 0.0
C221 C 0.22974 0.11801 0.51122 0.0
C222 C 0.16964 0.06116 0.47992 0.0
C223 C 0.14939 0.07456 0.50877 0.0
C224 C 0.20212 0.10234 0.51014 0.0
C225 C 0.1564 0.10183 0.53805 0.0
C226 C 0.23632 0.14376 0.54338 0.0
C227 C 0.27446 0.12179 0.47921 0.0
N228 N 0.18218 0.11478 0.53801 0.0
N229 N 0.24903 0.1078 0.48031 0.0
H230 H 0.25036 0.67188 0.94264 0.0
H231 H 0.35097 0.53484 0.0565 0.0
H232 H 0.22959 0.61204 0.06475 0.0
H233 H 0.37437 0.60584 0.94821 0.0
H234 H 0.30523 0.55942 0.05652 0.0
H235 H 0.2947 0.64455 0.94066 0.0
C236 C 0.25504 0.65274 0.96883 0.0
C237 C 0.23616 0.64414 0.00382 0.0
C238 C 0.32039 0.56958 0.03276 0.0
C239 C 0.28718 0.61294 0.00209 0.0
C240 C 0.34643 0.55544 0.03252 0.0
C241 C 0.36655 0.56841 0.00243 0.0
C242 C 0.31438 0.59671 0.00243 0.0
C243 C 0.35962 0.59535 0.97245 0.0
C244 C 0.28047 0.6373 0.96788 0.0
C245 C 0.2436 0.61961 0.03738 0.0
N246 N 0.33415 0.60856 0.97319 0.0
N247 N 0.26853 0.60481 0.03565 0.0
H248 H 0.75056 0.82799 0.44331 0.0
H249 H 0.85273 0.96664 0.55274 0.0
H250 H 0.72871 0.89442 0.55665 0.0
H251 H 0.87606 0.89336 0.44901 0.0
H252 H 0.80652 0.94266 0.55203 0.0
H253 H 0.79593 0.85386 0.44216 0.0
C254 C 0.75523 0.84824 0.46771 0.0
C255 C 0.73576 0.85913 0.50004 0.0
C256 C 0.82175 0.93183 0.52944 0.0
C257 C 0.78788 0.88863 0.49931 0.0
C258 C 0.84809 0.94563 0.52962 0.0
C259 C 0.86831 0.93195 0.50092 0.0
C260 C 0.81553 0.90424 0.50018 0.0
C261 C 0.86123 0.90443 0.47214 0.0
C262 C 0.78123 0.86285 0.46727 0.0
C263 C 0.74316 0.88505 0.53142 0.0
N264 N 0.83544 0.89153 0.47246 0.0
N265 N 0.76864 0.89895 0.53024 0.0
H266 H 0.76351 0.32886 0.06486 0.0
H267 H 0.66522 0.46959 0.95374 0.0
H268 H 0.78657 0.3927 0.948 0.0
H269 H 0.64089 0.39863 0.06148 0.0
H270 H 0.71077 0.44453 0.95417 0.0
H271 H 0.71947 0.35687 0.0671 0.0
C272 C 0.7594 0.349 0.0399 0.0
C273 C 0.77883 0.35851 0.00627 0.0
C274 C 0.69545 0.43449 0.97774 0.0
C275 C 0.72814 0.3905 0.00825 0.0
C276 C 0.66952 0.44891 0.97771 0.0
C277 C 0.64918 0.43607 0.00746 0.0
C278 C 0.70113 0.40717 0.00792 0.0
C279 C 0.6558 0.40901 0.03745 0.0
C280 C 0.73414 0.36485 0.04099 0.0
C281 C 0.77211 0.38435 0.97423 0.0
N282 N 0.68116 0.39549 0.03689 0.0
N283 N 0.74732 0.39948 0.97603 0.0
H284 H 0.09971 0.87411 0.19126 0.0
H285 H -0.00063 0.90002 0.40547 0.0
H286 H 0.05173 0.79184 0.24709 0.0
H287 H 0.07052 0.96286 0.38278 0.0
H288 H 0.01508 0.86181 0.34378 0.0
H289 H 0.0863 0.90904 0.25778 0.0
C290 C 0.08645 0.86342 0.21784 0.0
C291 C 0.07676 0.83018 0.21394 0.0
C292 C 0.02725 0.88389 0.3526 0.0
C293 C 0.06102 0.86999 0.28962 0.0
C294 C 0.01825 0.90578 0.38753 0.0
C295 C 0.03362 0.93472 0.39913 0.0
C296 C 0.05151 0.89137 0.32868 0.0
C297 C 0.05801 0.94086 0.375 0.0
C298 C 0.07885 0.88327 0.25577 0.0
C299 C 0.05969 0.81736 0.24919 0.0
N300 N 0.06608 0.91953 0.34068 0.0
N301 N 0.05207 0.83745 0.28545 0.0
H302 H 0.60757 0.67399 0.73455 0.0
H303 H 0.48774 0.59277 0.88873 0.0
H304 H 0.52224 0.69627 0.71222 0.0
H305 H 0.57211 0.56254 0.89913 0.0
H306 H 0.50028 0.63413 0.82839 0.0
H307 H 0.59528 0.63705 0.80016 0.0
C308 C 0.58626 0.67148 0.74386 0.0
C309 C 0.56589 0.68822 0.71777 0.0
C310 C 0.51604 0.61846 0.84393 0.0
C311 C 0.55163 0.64546 0.79245 0.0
C312 C 0.5089 0.59483 0.87837 0.0
C313 C 0.52888 0.57403 0.89886 0.0
C314 C 0.54338 0.62143 0.82999 0.0
C315 C 0.55599 0.57791 0.88415 0.0
C316 C 0.57924 0.65013 0.78108 0.0
C317 C 0.53858 0.68354 0.731 0.0
N318 N 0.56243 0.60111 0.85061 0.0
N319 N 0.53224 0.66253 0.76733 0.0
H320 H 0.99371 0.19486 0.20703 0.0
H321 H 0.94335 0.05917 0.39711 0.0
H322 H 0.90898 0.16945 0.22958 0.0
H323 H 0.02669 0.09514 0.38957 0.0
H324 H 0.93053 0.09921 0.33522 0.0
H325 H 0.00643 0.15838 0.27349 0.0
C326 C 0.97779 0.1817 0.22609 0.0
C327 C 0.95025 0.18516 0.21273 0.0
C328 C 0.95161 0.09844 0.3472 0.0
C329 C 0.96462 0.14335 0.28866 0.0
C330 C 0.95897 0.0755 0.38246 0.0
C331 C 0.98616 0.0737 0.39843 0.0
C332 C 0.97161 0.11963 0.32746 0.0
C333 C 0.00549 0.09562 0.37828 0.0
C334 C 0.98504 0.16098 0.26411 0.0
C335 C 0.93043 0.16781 0.23896 0.0
N336 N 0.99786 0.11757 0.34368 0.0
N337 N 0.93802 0.14749 0.27543 0.0
H338 H 0.5011 0.30958 0.7106 0.0
H339 H 0.44395 0.44068 0.89789 0.0
H340 H 0.41532 0.32686 0.73251 0.0
H341 H 0.52895 0.41335 0.89065 0.0
H342 H 0.43322 0.39929 0.83675 0.0
H343 H 0.51196 0.34761 0.77618 0.0
C344 C 0.48457 0.32127 0.72935 0.0
C345 C 0.45727 0.31504 0.71609 0.0
C346 C 0.45422 0.40225 0.84863 0.0
C347 C 0.46951 0.35859 0.79095 0.0
C348 C 0.46037 0.42597 0.88346 0.0
C349 C 0.48741 0.43058 0.8993 0.0
C350 C 0.47526 0.38312 0.82921 0.0
C351 C 0.50782 0.41067 0.87945 0.0
C352 C 0.49076 0.34286 0.76684 0.0
C353 C 0.43664 0.3306 0.74187 0.0
N354 N 0.50134 0.38792 0.84529 0.0
N355 N 0.44319 0.3518 0.77782 0.0
H356 H 0.60577 0.67661 0.27509 0.0
H357 H 0.48693 0.59095 0.11896 0.0
H358 H 0.51997 0.69222 0.2991 0.0
H359 H 0.57214 0.56503 0.10937 0.0
H360 H 0.49878 0.63193 0.18022 0.0
H361 H 0.59392 0.64 0.20882 0.0
C362 C 0.58442 0.67269 0.26604 0.0
C363 C 0.56382 0.6875 0.29271 0.0
C364 C 0.51487 0.6173 0.16465 0.0
C365 C 0.55009 0.64514 0.21725 0.0
C366 C 0.50814 0.5939 0.12966 0.0
C367 C 0.52857 0.5744 0.10916 0.0
C368 C 0.54224 0.62136 0.17911 0.0
C369 C 0.5557 0.57939 0.12435 0.0
C370 C 0.57766 0.65154 0.22843 0.0
C371 C 0.53649 0.68102 0.27981 0.0
N372 N 0.56174 0.60236 0.15841 0.0
N373 N 0.53041 0.66027 0.24304 0.0
H374 H 0.98984 0.19885 0.79258 0.0
H375 H 0.94217 0.05745 0.60766 0.0
H376 H 0.90609 0.16627 0.77349 0.0
H377 H 0.02501 0.09505 0.61962 0.0
H378 H 0.92844 0.0979 0.66734 0.0
H379 H 0.00298 0.16204 0.72795 0.0
C380 C 0.9742 0.18405 0.77465 0.0
C381 C 0.94684 0.18555 0.78859 0.0
C382 C 0.94961 0.09737 0.65684 0.0
C383 C 0.96173 0.14331 0.71459 0.0
C384 C 0.95749 0.0742 0.62283 0.0
C385 C 0.98482 0.07274 0.60874 0.0
C386 C 0.9692 0.1192 0.6771 0.0
C387 C 0.00374 0.0952 0.6295 0.0
C388 C 0.9817 0.1631 0.73766 0.0
C389 C 0.92738 0.16615 0.76367 0.0
N390 N 0.99559 0.11742 0.66273 0.0
N391 N 0.93523 0.14567 0.72813 0.0
H392 H 0.48735 0.34613 0.33439 0.0
H393 H 0.44481 0.42725 0.09094 0.0
H394 H 0.42579 0.29892 0.24522 0.0
H395 H 0.52866 0.42921 0.13987 0.0
H396 H 0.43404 0.38628 0.15327 0.0
H397 H 0.50006 0.38248 0.26867 0.0
C398 C 0.47668 0.34291 0.30102 0.0
C399 C 0.45537 0.31911 0.29576 0.0
C400 C 0.45479 0.39563 0.1501 0.0
C401 C 0.46931 0.36191 0.22085 0.0
C402 C 0.46091 0.41909 0.11485 0.0
C403 C 0.48765 0.4316 0.11039 0.0
C404 C 0.47541 0.38533 0.18169 0.0
C405 C 0.5078 0.42009 0.14207 0.0
C406 C 0.48388 0.36397 0.26361 0.0
C407 C 0.44192 0.31721 0.25162 0.0
N408 N 0.50121 0.39785 0.17678 0.0
N409 N 0.44891 0.33858 0.21605 0.0
H410 H 0.02415 0.80716 0.79556 0.0
H411 H 0.07461 0.94596 0.60999 0.0
H412 H 0.10888 0.83336 0.77475 0.0
H413 H 0.99104 0.91088 0.61813 0.0
H414 H 0.08754 0.90456 0.67005 0.0
H415 H 0.01156 0.84439 0.72992 0.0
C416 C 0.0401 0.82061 0.77697 0.0
C417 C 0.06759 0.81725 0.79071 0.0
C418 C 0.06639 0.90583 0.6586 0.0
C419 C 0.05336 0.85997 0.71574 0.0
C420 C 0.05897 0.92956 0.62441 0.0
C421 C 0.03167 0.93201 0.60915 0.0
C422 C 0.04636 0.88449 0.67793 0.0
C423 C 0.01231 0.90995 0.62892 0.0
C424 C 0.03292 0.84178 0.73945 0.0
C425 C 0.08746 0.83496 0.76507 0.0
N426 N 0.02001 0.88722 0.66244 0.0
N427 N 0.07994 0.85576 0.72909 0.0
loop_
_geom_bond_atom_site_label_1
_geom_bond_atom_site_label_2
_geom_bond_distance
_geom_bond_site_symmetry_2
_ccdc_geom_bond_type
C0 C1 1.384 . S
C0 H13 0.947 . S
C0 C35 1.382 . S
C1 C0 1.384 . S
C1 C2 1.378 . S
C2 C1 1.378 . S
C2 C3 1.378 . S
C2 H14 0.952 . S
C3 C2 1.378 . S
C3 H15 0.950 . S
C3 C34 1.383 . S
H4 C23 0.947 . S
H5 C24 0.946 . S
H6 C26 0.953 . S
H7 C27 0.945 . S
H8 C29 0.952 . S
H9 C30 0.949 . S
H10 C32 0.950 . S
H11 C33 0.948 . S
H12 C35 0.951 . S
H13 C0 0.947 . S
H14 C2 0.952 . S
H15 C3 0.950 . S
N16 C19 1.382 . S
N16 C21 1.363 . S
N17 C19 1.371 1_556 S
N17 C20 1.372 . S
N18 C20 1.361 1_554 S
N18 C21 1.377 . S
C19 N16 1.382 . S
C19 N17 1.371 1_554 S
C19 C22 1.480 . S
C20 N17 1.372 . S
C20 N18 1.361 1_556 S
C20 C28 1.457 . S
C21 N16 1.363 . S
C21 N18 1.377 . S
C21 C34 1.479 . S
C22 C19 1.480 . S
C22 C23 1.383 . S
C22 C27 1.385 1_554 S
C23 H4 0.947 . S
C23 C22 1.383 . S
C23 C24 1.388 . S
C24 H5 0.946 . S
C24 C23 1.388 . S
C24 C25 1.384 . S
C25 C24 1.384 . S
C25 C26 1.377 1_554 S
C26 H6 0.953 . S
C26 C25 1.377 1_556 S
C26 C27 1.369 . S
C27 H7 0.945 . S
C27 C22 1.385 1_556 S
C27 C26 1.369 . S
C28 C20 1.457 . S
C28 C29 1.372 . S
C28 C33 1.364 . S
C29 H8 0.952 . S
C29 C28 1.372 . S
C29 C30 1.389 . S
C30 H9 0.949 . S
C30 C29 1.389 . S
C30 C31 1.387 . S
C31 C30 1.387 . S
C31 C32 1.372 . S
C32 H10 0.950 . S
C32 C31 1.372 . S
C32 C33 1.379 . S
C33 H11 0.948 . S
C33 C28 1.364 . S
C33 C32 1.379 . S
C34 C3 1.383 . S
C34 C21 1.479 . S
C34 C35 1.398 . S
C35 C0 1.382 . S
C35 H12 0.951 . S
C35 C34 1.398 . S
C36 C37 1.384 . S
C36 H49 0.947 . S
C36 C71 1.382 . S
C37 C36 1.384 . S
C37 C38 1.378 . S
C38 C37 1.378 . S
C38 C39 1.378 . S
C38 H50 0.952 . S
C39 C38 1.378 . S
C39 H51 0.950 . S
C39 C70 1.383 . S
H40 C59 0.947 . S
H41 C60 0.946 . S
H42 C62 0.953 . S
H43 C63 0.945 . S
H44 C65 0.952 . S
H45 C66 0.949 . S
H46 C68 0.950 . S
H47 C69 0.948 . S
H48 C71 0.951 . S
H49 C36 0.947 . S
H50 C38 0.952 . S
H51 C39 0.950 . S
N52 C55 1.382 . S
N52 C57 1.363 . S
N53 C55 1.371 . S
N53 C56 1.372 . S
N54 C56 1.361 . S
N54 C57 1.377 . S
C55 N52 1.382 . S
C55 N53 1.371 . S
C55 C58 1.480 . S
C56 N53 1.372 . S
C56 N54 1.361 . S
C56 C64 1.457 . S
C57 N52 1.363 . S
C57 N54 1.377 . S
C57 C70 1.479 . S
C58 C55 1.480 . S
C58 C59 1.383 . S
C58 C63 1.385 . S
C59 H40 0.947 . S
C59 C58 1.383 . S
C59 C60 1.388 . S
C60 H41 0.946 . S
C60 C59 1.388 . S
C60 C61 1.384 . S
C61 C60 1.384 . S
C61 C62 1.377 . S
C62 H42 0.953 . S
C62 C61 1.377 . S
C62 C63 1.369 . S
C63 H43 0.945 . S
C63 C58 1.385 . S
C63 C62 1.369 . S
C64 C56 1.457 . S
C64 C65 1.372 . S
C64 C69 1.364 . S
C65 H44 0.952 . S
C65 C64 1.372 . S
C65 C66 1.389 . S
C66 H45 0.949 . S
C66 C65 1.389 . S
C66 C67 1.387 . S
C67 C66 1.387 . S
C67 C68 1.372 . S
C68 H46 0.950 . S
C68 C67 1.372 . S
C68 C69 1.379 . S
C69 H47 0.948 . S
C69 C64 1.364 . S
C69 C68 1.379 . S
C70 C39 1.383 . S
C70 C57 1.479 . S
C70 C71 1.398 . S
C71 C36 1.382 . S
C71 H48 0.951 . S
C71 C70 1.398 . S
C72 C73 1.384 . S
C72 H85 0.947 . S
C72 C107 1.382 . S
C73 C72 1.384 . S
C73 C74 1.378 . S
C74 C73 1.378 . S
C74 C75 1.378 . S
C74 H86 0.952 . S
C75 C74 1.378 . S
C75 H87 0.950 . S
C75 C106 1.383 . S
H76 C95 0.947 . S
H77 C96 0.946 . S
H78 C98 0.953 . S
H79 C99 0.945 . S
H80 C101 0.952 . S
H81 C102 0.949 . S
H82 C104 0.950 . S
H83 C105 0.948 . S
H84 C107 0.951 . S
H85 C72 0.947 . S
H86 C74 0.952 . S
H87 C75 0.950 . S
N88 C91 1.382 1_556 S
N88 C93 1.363 . S
N89 C91 1.371 . S
N89 C92 1.372 . S
N90 C92 1.361 . S
N90 C93 1.377 1_554 S
C91 N88 1.382 1_554 S
C91 N89 1.371 . S
C91 C94 1.480 . S
C92 N89 1.372 . S
C92 N90 1.361 . S
C92 C100 1.457 . S
C93 N88 1.363 . S
C93 N90 1.377 1_556 S
C93 C106 1.479 . S
C94 C91 1.480 . S
C94 C95 1.383 1_554 S
C94 C99 1.385 . S
C95 H76 0.947 . S
C95 C94 1.383 1_556 S
C95 C96 1.388 . S
C96 H77 0.946 . S
C96 C95 1.388 . S
C96 C97 1.384 1_556 S
C97 C96 1.384 1_554 S
C97 C98 1.377 . S
C98 H78 0.953 . S
C98 C97 1.377 . S
C98 C99 1.369 . S
C99 H79 0.945 . S
C99 C94 1.385 . S
C99 C98 1.369 . S
C100 C92 1.457 . S
C100 C101 1.372 . S
C100 C105 1.364 . S
C101 H80 0.952 . S
C101 C100 1.372 . S
C101 C102 1.389 . S
C102 H81 0.949 . S
C102 C101 1.389 . S
C102 C103 1.387 . S
C103 C102 1.387 . S
C103 C104 1.372 . S
C104 H82 0.950 . S
C104 C103 1.372 . S
C104 C105 1.379 . S
C105 H83 0.948 . S
C105 C100 1.364 . S
C105 C104 1.379 . S
C106 C75 1.383 . S
C106 C93 1.479 . S
C106 C107 1.398 . S
C107 C72 1.382 . S
C107 H84 0.951 . S
C107 C106 1.398 . S
C108 C109 1.384 . S
C108 H121 0.947 . S
C108 C143 1.382 . S
C109 C108 1.384 . S
C109 C110 1.378 . S
C110 C109 1.378 . S
C110 C111 1.378 . S
C110 H122 0.952 . S
C111 C110 1.378 . S
C111 H123 0.950 . S
C111 C142 1.383 . S
H112 C131 0.947 . S
H113 C132 0.946 . S
H114 C134 0.953 . S
H115 C135 0.945 . S
H116 C137 0.952 . S
H117 C138 0.949 . S
H118 C140 0.950 . S
H119 C141 0.948 . S
H120 C143 0.951 . S
H121 C108 0.947 . S
H122 C110 0.952 . S
H123 C111 0.950 . S
N124 C127 1.382 . S
N124 C129 1.363 . S
N125 C127 1.371 . S
N125 C128 1.372 . S
N126 C128 1.361 . S
N126 C129 1.377 . S
C127 N124 1.382 . S
C127 N125 1.371 . S
C127 C130 1.480 . S
C128 N125 1.372 . S
C128 N126 1.361 . S
C128 C136 1.457 . S
C129 N124 1.363 . S
C129 N126 1.377 . S
C129 C142 1.479 . S
C130 C127 1.480 . S
C130 C131 1.383 . S
C130 C135 1.385 . S
C131 H112 0.947 . S
C131 C130 1.383 . S
C131 C132 1.388 . S
C132 H113 0.946 . S
C132 C131 1.388 . S
C132 C133 1.384 . S
C133 C132 1.384 . S
C133 C134 1.377 . S
C134 H114 0.953 . S
C134 C133 1.377 . S
C134 C135 1.369 . S
C135 H115 0.945 . S
C135 C130 1.385 . S
C135 C134 1.369 . S
C136 C128 1.457 . S
C136 C137 1.372 . S
C136 C141 1.364 . S
C137 H116 0.952 . S
C137 C136 1.372 . S
C137 C138 1.389 . S
C138 H117 0.949 . S
C138 C137 1.389 . S
C138 C139 1.387 . S
C139 C138 1.387 . S
C139 C140 1.372 . S
C140 H118 0.950 . S
C140 C139 1.372 . S
C140 C141 1.379 . S
C141 H119 0.948 . S
C141 C136 1.364 . S
C141 C140 1.379 . S
C142 C111 1.383 . S
C142 C129 1.479 . S
C142 C143 1.398 . S
C143 C108 1.382 . S
C143 H120 0.951 . S
C143 C142 1.398 . S
C144 O160 1.251 . S
C144 O162 1.254 . S
N145 C146 1.333 . S
N145 C150 1.307 . S
N145 Zn151 2.020 . S
C146 N145 1.333 . S
C146 C147 1.379 . S
C146 H164 0.952 . S
C147 C146 1.379 . S
C147 C148 1.390 . S
C147 H174 0.949 . S
C148 C147 1.390 . S
C148 C149 1.357 . S
C149 C148 1.357 . S
C149 C150 1.370 . S
C149 H175 0.950 . S
C150 N145 1.307 . S
C150 C149 1.370 . S
C150 H168 0.948 . S
Zn151 N145 2.020 . S
Zn151 O160 2.039 1_545 S
Zn151 O166 2.034 1_545 S
Zn151 O170 2.025 . S
Zn151 O172 2.024 . S
C152 O171 1.246 . S
C152 O172 1.249 1_655 S
N153 C154 1.307 . S
N153 C155 1.333 . S
N153 Zn159 2.020 . S
C154 N153 1.307 . S
C154 C158 1.370 . S
C154 H165 0.948 . S
C155 N153 1.333 . S
C155 C156 1.379 . S
C155 H163 0.960 . S
C156 C155 1.379 . S
C156 C157 1.390 . S
C156 H176 0.949 . S
C157 C156 1.390 . S
C157 C158 1.357 . S
C158 C154 1.370 . S
C158 C157 1.357 . S
C158 H177 0.950 . S
Zn159 N153 2.020 . S
Zn159 O162 2.025 1_655 S
Zn159 O167 2.024 1_655 S
Zn159 O169 2.039 1_565 S
Zn159 O171 2.034 1_565 S
O160 C144 1.251 . S
O160 Zn151 2.039 1_565 S
C161 O166 1.246 . S
C161 O167 1.249 . S
O162 C144 1.254 . S
O162 Zn159 2.025 1_455 S
H163 C155 0.960 . S
H164 C146 0.952 . S
H165 C154 0.948 . S
O166 Zn151 2.034 1_565 S
O166 C161 1.246 . S
O167 Zn159 2.024 1_455 S
O167 C161 1.249 . S
H168 C150 0.948 . S
O169 Zn159 2.039 1_545 S
O169 C173 1.251 . S
O170 Zn151 2.025 . S
O170 C173 1.254 1_455 S
O171 C152 1.246 . S
O171 Zn159 2.034 1_545 S
O172 Zn151 2.024 . S
O172 C152 1.249 1_455 S
C173 O169 1.251 . S
C173 O170 1.254 1_655 S
H174 C147 0.949 . S
H175 C149 0.950 . S
H176 C156 0.949 . S
H177 C158 0.950 . S
C178 O194 1.251 . S
C178 O196 1.254 . S
N179 C180 1.333 1_554 S
N179 C184 1.307 . S
N179 Zn185 2.020 . S
C180 N179 1.333 1_556 S
C180 C181 1.379 . S
C180 H198 0.952 . S
C181 C180 1.379 . S
C181 C182 1.390 1_556 S
C181 H208 0.949 . S
C182 C181 1.390 1_554 S
C182 C183 1.357 . S
C183 C182 1.357 . S
C183 C184 1.370 . S
C183 H209 0.950 . S
C184 N179 1.307 . S
C184 C183 1.370 . S
C184 H202 0.948 . S
Zn185 N179 2.020 . S
Zn185 O194 2.039 1_554 S
Zn185 O200 2.034 . S
Zn185 O204 2.025 . S
Zn185 O206 2.024 1_554 S
C186 O205 1.246 . S
C186 O206 1.249 . S
N187 C188 1.307 1_554 S
N187 C189 1.333 . S
N187 Zn193 2.020 . S
C188 N187 1.307 1_556 S
C188 C192 1.370 . S
C188 H199 0.948 . S
C189 N187 1.333 . S
C189 C190 1.379 . S
C189 H197 0.952 . S
C190 C189 1.379 . S
C190 C191 1.390 . S
C190 H210 0.949 . S
C191 C190 1.390 . S
C191 C192 1.357 1_554 S
C192 C188 1.370 . S
C192 C191 1.357 1_556 S
C192 H211 0.950 . S
Zn193 N187 2.020 . S
Zn193 O196 2.025 1_554 S
Zn193 O201 2.024 . S
Zn193 O203 2.039 . S
Zn193 O205 2.034 1_554 S
O194 C178 1.251 . S
O194 Zn185 2.039 1_556 S
C195 O200 1.246 . S
C195 O201 1.249 . S
O196 C178 1.254 . S
O196 Zn193 2.025 1_556 S
H197 C189 0.952 . S
H198 C180 0.952 . S
H199 C188 0.948 . S
O200 Zn185 2.034 . S
O200 C195 1.246 . S
O201 Zn193 2.024 . S
O201 C195 1.249 . S
H202 C184 0.948 . S
O203 Zn193 2.039 . S
O203 C207 1.251 . S
O204 Zn185 2.025 . S
O204 C207 1.254 . S
O205 C186 1.246 . S
O205 Zn193 2.034 1_556 S
O206 Zn185 2.024 1_556 S
O206 C186 1.249 . S
C207 O203 1.251 . S
C207 O204 1.254 . S
H208 C181 0.949 . S
H209 C183 0.950 . S
H210 C190 0.949 . S
H211 C192 0.950 . S
H212 C218 0.930 . S
H213 C222 0.930 . S
H214 C227 0.929 . S
H215 C225 0.929 . S
H216 C220 0.929 . S
H217 C226 0.929 . S
C218 H212 0.930 . S
C218 C219 1.367 . S
C218 C226 1.378 . S
C219 C218 1.367 . S
C219 C227 1.433 . S
C220 H216 0.929 . S
C220 C222 1.378 . S
C220 C224 1.350 . S
C221 C224 1.463 . S
C221 C226 1.350 . S
C221 N229 1.427 . S
C222 H213 0.930 . S
C222 C220 1.378 . S
C222 C223 1.367 . S
C223 C222 1.367 . S
C223 C225 1.433 . S
C224 C220 1.350 . S
C224 C221 1.463 . S
C224 N228 1.427 . S
C225 H215 0.929 . S
C225 C223 1.433 . S
C225 N228 1.384 . S
C226 H217 0.929 . S
C226 C218 1.378 . S
C226 C221 1.350 . S
C227 H214 0.929 . S
C227 C219 1.433 . S
C227 N229 1.384 . S
N228 C224 1.427 . S
N228 C225 1.384 . S
N229 C221 1.427 . S
N229 C227 1.384 . S
H230 C236 0.930 . S
H231 C240 0.930 . S
H232 C245 0.929 . S
H233 C243 0.929 . S
H234 C238 0.929 . S
H235 C244 0.929 . S
C236 H230 0.930 . S
C236 C237 1.367 1_556 S
C236 C244 1.378 . S
C237 C236 1.367 1_554 S
C237 C245 1.433 . S
C238 H234 0.929 . S
C238 C240 1.378 . S
C238 C242 1.350 . S
C239 C242 1.463 . S
C239 C244 1.350 1_554 S
C239 N247 1.427 . S
C240 H231 0.930 . S
C240 C238 1.378 . S
C240 C241 1.367 . S
C241 C240 1.367 . S
C241 C243 1.433 1_554 S
C242 C238 1.350 . S
C242 C239 1.463 . S
C242 N246 1.427 1_554 S
C243 H233 0.929 . S
C243 C241 1.433 1_556 S
C243 N246 1.384 . S
C244 H235 0.929 . S
C244 C236 1.378 . S
C244 C239 1.350 1_556 S
C245 H232 0.929 . S
C245 C237 1.433 . S
C245 N247 1.384 . S
N246 C242 1.427 1_556 S
N246 C243 1.384 . S
N247 C239 1.427 . S
N247 C245 1.384 . S
H248 C254 0.930 . S
H249 C258 0.930 . S
H250 C263 0.929 . S
H251 C261 0.929 . S
H252 C256 0.929 . S
H253 C262 0.929 . S
C254 H248 0.930 . S
C254 C255 1.367 . S
C254 C262 1.378 . S
C255 C254 1.367 . S
C255 C263 1.433 . S
C256 H252 0.929 . S
C256 C258 1.378 . S
C256 C260 1.350 . S
C257 C260 1.463 . S
C257 C262 1.350 . S
C257 N265 1.427 . S
C258 H249 0.930 . S
C258 C256 1.378 . S
C258 C259 1.367 . S
C259 C258 1.367 . S
C259 C261 1.433 . S
C260 C256 1.350 . S
C260 C257 1.463 . S
C260 N264 1.427 . S
C261 H251 0.929 . S
C261 C259 1.433 . S
C261 N264 1.384 . S
C262 H253 0.929 . S
C262 C254 1.378 . S
C262 C257 1.350 . S
C263 H250 0.929 . S
C263 C255 1.433 . S
C263 N265 1.384 . S
N264 C260 1.427 . S
N264 C261 1.384 . S
N265 C257 1.427 . S
N265 C263 1.384 . S
H266 C272 0.930 . S
H267 C276 0.930 . S
H268 C281 0.929 . S
H269 C279 0.929 . S
H270 C274 0.929 . S
H271 C280 0.929 . S
C272 H266 0.930 . S
C272 C273 1.367 . S
C272 C280 1.378 . S
C273 C272 1.367 . S
C273 C281 1.433 1_554 S
C274 H270 0.929 . S
C274 C276 1.378 . S
C274 C278 1.350 1_556 S
C275 C278 1.463 . S
C275 C280 1.350 . S
C275 N283 1.427 1_554 S
C276 H267 0.930 . S
C276 C274 1.378 . S
C276 C277 1.367 1_556 S
C277 C276 1.367 1_554 S
C277 C279 1.433 . S
C278 C274 1.350 1_554 S
C278 C275 1.463 . S
C278 N282 1.427 . S
C279 H269 0.929 . S
C279 C277 1.433 . S
C279 N282 1.384 . S
C280 H271 0.929 . S
C280 C272 1.378 . S
C280 C275 1.350 . S
C281 H268 0.929 . S
C281 C273 1.433 1_556 S
C281 N283 1.384 . S
N282 C278 1.427 . S
N282 C279 1.384 . S
N283 C275 1.427 1_556 S
N283 C281 1.384 . S
H284 C290 0.930 . S
H285 C294 0.930 . S
H286 C299 0.929 . S
H287 C297 0.929 . S
H288 C292 0.929 . S
H289 C298 0.929 . S
C290 H284 0.930 . S
C290 C291 1.367 . S
C290 C298 1.378 . S
C291 C290 1.367 . S
C291 C299 1.433 . S
C292 H288 0.929 . S
C292 C294 1.378 . S
C292 C296 1.350 . S
C293 C296 1.463 . S
C293 C298 1.350 . S
C293 N301 1.427 . S
C294 H285 0.930 . S
C294 C292 1.378 . S
C294 C295 1.367 . S
C295 C294 1.367 . S
C295 C297 1.433 . S
C296 C292 1.350 . S
C296 C293 1.463 . S
C296 N300 1.427 . S
C297 H287 0.929 . S
C297 C295 1.433 . S
C297 N300 1.384 . S
C298 H289 0.929 . S
C298 C290 1.378 . S
C298 C293 1.350 . S
C299 H286 0.929 . S
C299 C291 1.433 . S
C299 N301 1.384 . S
N300 C296 1.427 . S
N300 C297 1.384 . S
N301 C293 1.427 . S
N301 C299 1.384 . S
H302 C308 0.930 . S
H303 C312 0.930 . S
H304 C317 0.929 . S
H305 C315 0.929 . S
H306 C310 0.929 . S
H307 C316 0.929 . S
C308 H302 0.930 . S
C308 C309 1.367 . S
C308 C316 1.378 . S
C309 C308 1.367 . S
C309 C317 1.433 . S
C310 H306 0.929 . S
C310 C312 1.378 . S
C310 C314 1.350 . S
C311 C314 1.463 . S
C311 C316 1.350 . S
C311 N319 1.427 . S
C312 H303 0.930 . S
C312 C310 1.378 . S
C312 C313 1.367 . S
C313 C312 1.367 . S
C313 C315 1.433 . S
C314 C310 1.350 . S
C314 C311 1.463 . S
C314 N318 1.427 . S
C315 H305 0.929 . S
C315 C313 1.433 . S
C315 N318 1.384 . S
C316 H307 0.929 . S
C316 C308 1.378 . S
C316 C311 1.350 . S
C317 H304 0.929 . S
C317 C309 1.433 . S
C317 N319 1.384 . S
N318 C314 1.427 . S
N318 C315 1.384 . S
N319 C311 1.427 . S
N319 C317 1.384 . S
H320 C326 0.930 . S
H321 C330 0.930 . S
H322 C335 0.929 . S
H323 C333 0.929 . S
H324 C328 0.929 . S
H325 C334 0.929 1_455 S
C326 H320 0.930 . S
C326 C327 1.367 . S
C326 C334 1.378 . S
C327 C326 1.367 . S
C327 C335 1.433 . S
C328 H324 0.929 . S
C328 C330 1.378 . S
C328 C332 1.350 . S
C329 C332 1.463 . S
C329 C334 1.350 . S
C329 N337 1.427 . S
C330 H321 0.930 . S
C330 C328 1.378 . S
C330 C331 1.367 . S
C331 C330 1.367 . S
C331 C333 1.433 1_655 S
C332 C328 1.350 . S
C332 C329 1.463 . S
C332 N336 1.427 . S
C333 H323 0.929 . S
C333 C331 1.433 1_455 S
C333 N336 1.384 1_455 S
C334 H325 0.929 1_655 S
C334 C326 1.378 . S
C334 C329 1.350 . S
C335 H322 0.929 . S
C335 C327 1.433 . S
C335 N337 1.384 . S
N336 C332 1.427 . S
N336 C333 1.384 1_655 S
N337 C329 1.427 . S
N337 C335 1.384 . S
H338 C344 0.930 . S
H339 C348 0.930 . S
H340 C353 0.929 . S
H341 C351 0.929 . S
H342 C346 0.929 . S
H343 C352 0.929 . S
C344 H338 0.930 . S
C344 C345 1.367 . S
C344 C352 1.378 . S
C345 C344 1.367 . S
C345 C353 1.433 . S
C346 H342 0.929 . S
C346 C348 1.378 . S
C346 C350 1.350 . S
C347 C350 1.463 . S
C347 C352 1.350 . S
C347 N355 1.427 . S
C348 H339 0.930 . S
C348 C346 1.378 . S
C348 C349 1.367 . S
C349 C348 1.367 . S
C349 C351 1.433 . S
C350 C346 1.350 . S
C350 C347 1.463 . S
C350 N354 1.427 . S
C351 H341 0.929 . S
C351 C349 1.433 . S
C351 N354 1.384 . S
C352 H343 0.929 . S
C352 C344 1.378 . S
C352 C347 1.350 . S
C353 H340 0.929 . S
C353 C345 1.433 . S
C353 N355 1.384 . S
N354 C350 1.427 . S
N354 C351 1.384 . S
N355 C347 1.427 . S
N355 C353 1.384 . S
H356 C362 0.930 . S
H357 C366 0.930 . S
H358 C371 0.929 . S
H359 C369 0.929 . S
H360 C364 0.929 . S
H361 C370 0.929 . S
C362 H356 0.930 . S
C362 C363 1.367 . S
C362 C370 1.378 . S
C363 C362 1.367 . S
C363 C371 1.433 . S
C364 H360 0.929 . S
C364 C366 1.378 . S
C364 C368 1.350 . S
C365 C368 1.463 . S
C365 C370 1.350 . S
C365 N373 1.427 . S
C366 H357 0.930 . S
C366 C364 1.378 . S
C366 C367 1.367 . S
C367 C366 1.367 . S
C367 C369 1.433 . S
C368 C364 1.350 . S
C368 C365 1.463 . S
C368 N372 1.427 . S
C369 H359 0.929 . S
C369 C367 1.433 . S
C369 N372 1.384 . S
C370 H361 0.929 . S
C370 C362 1.378 . S
C370 C365 1.350 . S
C371 H358 0.929 . S
C371 C363 1.433 . S
C371 N373 1.384 . S
N372 C368 1.427 . S
N372 C369 1.384 . S
N373 C365 1.427 . S
N373 C371 1.384 . S
H374 C380 0.930 . S
H375 C384 0.930 . S
H376 C389 0.929 . S
H377 C387 0.900 1_455 S
H378 C382 0.929 . S
H379 C388 0.929 . S
C380 H374 0.930 . S
C380 C381 1.367 . S
C380 C388 1.378 . S
C381 C380 1.367 . S
C381 C389 1.433 . S
C382 H378 0.929 . S
C382 C384 1.378 . S
C382 C386 1.350 . S
C383 C386 1.463 . S
C383 C388 1.350 . S
C383 N391 1.427 . S
C384 H375 0.930 . S
C384 C382 1.378 . S
C384 C385 1.367 . S
C385 C384 1.367 . S
C385 C387 1.455 . S
C386 C382 1.350 . S
C386 C383 1.463 . S
C386 N390 1.427 . S
C387 H377 0.900 1_655 S
C387 C385 1.455 . S
C387 N390 1.394 . S
C388 H379 0.929 . S
C388 C380 1.378 . S
C388 C383 1.350 . S
C389 H376 0.929 . S
C389 C381 1.433 . S
C389 N391 1.384 . S
N390 C386 1.427 . S
N390 C387 1.394 . S
N391 C383 1.427 . S
N391 C389 1.384 . S
H392 C398 0.930 . S
H393 C402 0.930 . S
H394 C407 0.929 . S
H395 C405 0.929 . S
H396 C400 0.929 . S
H397 C406 0.929 . S
C398 H392 0.930 . S
C398 C399 1.367 . S
C398 C406 1.378 . S
C399 C398 1.367 . S
C399 C407 1.433 . S
C400 H396 0.929 . S
C400 C402 1.378 . S
C400 C404 1.350 . S
C401 C404 1.463 . S
C401 C406 1.350 . S
C401 N409 1.427 . S
C402 H393 0.930 . S
C402 C400 1.378 . S
C402 C403 1.367 . S
C403 C402 1.367 . S
C403 C405 1.433 . S
C404 C400 1.350 . S
C404 C401 1.463 . S
C404 N408 1.427 . S
C405 H395 0.929 . S
C405 C403 1.433 . S
C405 N408 1.384 . S
C406 H397 0.929 . S
C406 C398 1.378 . S
C406 C401 1.350 . S
C407 H394 0.929 . S
C407 C399 1.433 . S
C407 N409 1.384 . S
N408 C404 1.427 . S
N408 C405 1.384 . S
N409 C401 1.427 . S
N409 C407 1.384 . S
H410 C416 0.930 . S
H411 C420 0.930 . S
H412 C425 0.929 . S
H413 C423 0.929 1_655 S
H414 C418 0.929 . S
H415 C424 0.929 . S
C416 H410 0.930 . S
C416 C417 1.367 . S
C416 C424 1.378 . S
C417 C416 1.367 . S
C417 C425 1.433 . S
C418 H414 0.929 . S
C418 C420 1.378 . S
C418 C422 1.350 . S
C419 C422 1.463 . S
C419 C424 1.350 . S
C419 N427 1.427 . S
C420 H411 0.930 . S
C420 C418 1.378 . S
C420 C421 1.367 . S
C421 C420 1.367 . S
C421 C423 1.433 . S
C422 C418 1.350 . S
C422 C419 1.463 . S
C422 N426 1.427 . S
C423 H413 0.929 1_455 S
C423 C421 1.433 . S
C423 N426 1.384 . S
C424 H415 0.929 . S
C424 C416 1.378 . S
C424 C419 1.350 . S
C425 H412 0.929 . S
C425 C417 1.433 . S
C425 N427 1.384 . S
N426 C422 1.427 . S
N426 C423 1.384 . S
N427 C419 1.427 . S
N427 C425 1.384 . S
C223 C148 1.649 . S
C219 C133 1.637 . S
C237 C25 1.534 . S
C241 C191 1.572 . S
C255 C61 1.594 . S
C259 C157 1.651 . S
C273 C97 1.572 . S
C277 C182 1.572 . S
C295 C144 1.635 . S
C291 C1 1.586 . S
C313 C186 1.729 . S
C309 C67 1.648 . S
C327 C103 1.615 . S
C331 C152 1.626 . S
C345 C109 1.705 . S
C349 C178 1.726 . S
C367 C207 1.724 . S
C363 C37 1.657 . S
C385 C173 1.639 . S
C381 C73 1.628 . S
C403 C195 1.729 . S
C399 C139 1.705 . S
C417 C31 1.579 . S
C421 C161 1.627 . S
