# Generated by pormake.
# Topology wbl, (4,4)-cn, num edge types: 1
# Building blocks:
#     Node 0, Type 0, BuildingBlock: MUDLON_clean_linker_0, # of connection points: 4
#     Node 1, Type 0, BuildingBlock: MUDLON_clean_linker_0, # of connection points: 4
#     Node 2, Type 0, BuildingBlock: MUDLON_clean_linker_0, # of connection points: 4
#     Node 3, Type 0, BuildingBlock: MUDLON_clean_linker_0, # of connection points: 4
#     Node 4, Type 0, BuildingBlock: MUDLON_clean_linker_0, # of connection points: 4
#     Node 5, Type 0, BuildingBlock: MUDLON_clean_linker_0, # of connection points: 4
#     Node 6, Type 0, BuildingBlock: MUDLON_clean_linker_0, # of connection points: 4
#     Node 7, Type 0, BuildingBlock: MUDLON_clean_linker_0, # of connection points: 4
#     Node 8, Type 1, BuildingBlock: TATPOV_clean_sbu_0, # of connection points: 4
#     Node 9, Type 1, BuildingBlock: TATPOV_clean_sbu_0, # of connection points: 4
#     Node 10, Type 1, BuildingBlock: TATPOV_clean_sbu_0, # of connection points: 4
#     Node 11, Type 1, BuildingBlock: TATPOV_clean_sbu_0, # of connection points: 4
#     Node 12, Type 1, BuildingBlock: TATPOV_clean_sbu_0, # of connection points: 4
#     Node 13, Type 1, BuildingBlock: TATPOV_clean_sbu_0, # of connection points: 4
#     Node 14, Type 1, BuildingBlock: TATPOV_clean_sbu_0, # of connection points: 4
#     Node 15, Type 1, BuildingBlock: TATPOV_clean_sbu_0, # of connection points: 4
#     Edge 16, Type (0, 1), BuildingBlock: CIFDUS_clean_linker_0, # of connection points: 2
#     Edge 17, Type (0, 1), BuildingBlock: CIFDUS_clean_linker_0, # of connection points: 2
#     Edge 18, Type (0, 1), BuildingBlock: CIFDUS_clean_linker_0, # of connection points: 2
#     Edge 19, Type (0, 1), BuildingBlock: CIFDUS_clean_linker_0, # of connection points: 2
#     Edge 20, Type (0, 1), BuildingBlock: CIFDUS_clean_linker_0, # of connection points: 2
#     Edge 21, Type (0, 1), BuildingBlock: CIFDUS_clean_linker_0, # of connection points: 2
#     Edge 22, Type (0, 1), BuildingBlock: CIFDUS_clean_linker_0, # of connection points: 2
#     Edge 23, Type (0, 1), BuildingBlock: CIFDUS_clean_linker_0, # of connection points: 2
#     Edge 24, Type (0, 1), BuildingBlock: CIFDUS_clean_linker_0, # of connection points: 2
#     Edge 25, Type (0, 1), BuildingBlock: CIFDUS_clean_linker_0, # of connection points: 2
#     Edge 26, Type (0, 1), BuildingBlock: CIFDUS_clean_linker_0, # of connection points: 2
#     Edge 27, Type (0, 1), BuildingBlock: CIFDUS_clean_linker_0, # of connection points: 2
#     Edge 28, Type (0, 1), BuildingBlock: CIFDUS_clean_linker_0, # of connection points: 2
#     Edge 29, Type (0, 1), BuildingBlock: CIFDUS_clean_linker_0, # of connection points: 2
#     Edge 30, Type (0, 1), BuildingBlock: CIFDUS_clean_linker_0, # of connection points: 2
#     Edge 31, Type (0, 1), BuildingBlock: CIFDUS_clean_linker_0, # of connection points: 2
#     Edge 32, Type (0, 1), BuildingBlock: CIFDUS_clean_linker_0, # of connection points: 2
#     Edge 33, Type (0, 1), BuildingBlock: CIFDUS_clean_linker_0, # of connection points: 2
#     Edge 34, Type (0, 1), BuildingBlock: CIFDUS_clean_linker_0, # of connection points: 2
#     Edge 35, Type (0, 1), BuildingBlock: CIFDUS_clean_linker_0, # of connection points: 2
#     Edge 36, Type (0, 1), BuildingBlock: CIFDUS_clean_linker_0, # of connection points: 2
#     Edge 37, Type (0, 1), BuildingBlock: CIFDUS_clean_linker_0, # of connection points: 2
#     Edge 38, Type (0, 1), BuildingBlock: CIFDUS_clean_linker_0, # of connection points: 2
#     Edge 39, Type (0, 1), BuildingBlock: CIFDUS_clean_linker_0, # of connection points: 2
#     Edge 40, Type (0, 1), BuildingBlock: CIFDUS_clean_linker_0, # of connection points: 2
#     Edge 41, Type (0, 1), BuildingBlock: CIFDUS_clean_linker_0, # of connection points: 2
#     Edge 42, Type (0, 1), BuildingBlock: CIFDUS_clean_linker_0, # of connection points: 2
#     Edge 43, Type (0, 1), BuildingBlock: CIFDUS_clean_linker_0, # of connection points: 2
#     Edge 44, Type (0, 1), BuildingBlock: CIFDUS_clean_linker_0, # of connection points: 2
#     Edge 45, Type (0, 1), BuildingBlock: CIFDUS_clean_linker_0, # of connection points: 2
#     Edge 46, Type (0, 1), BuildingBlock: CIFDUS_clean_linker_0, # of connection points: 2
#     Edge 47, Type (0, 1), BuildingBlock: CIFDUS_clean_linker_0, # of connection points: 2
# Relax obj value: 0.125
# Max RMSD: 0.127
# Mean RMSD: 0.119
data_MOF--net-wbl--node1-TATPOV_clean_sbu_0--node2-MUDLON_clean_linker_0--edge1-CIFDUS_clean_linker_0
_symmetry_space_group_name_H-M    P1
_symmetry_Int_Tables_number       1
_symmetry_cell_setting            triclinic
loop_
_symmetry_equiv_pos_as_xyz
'x, y, z'
_cell_length_a     48.766116
_cell_length_b     48.757383
_cell_length_c     68.27177
_cell_angle_alpha  91.486648
_cell_angle_beta   91.395627
_cell_angle_gamma 90.088609
loop_
_atom_site_label
_atom_site_type_symbol
_atom_site_fract_x
_atom_site_fract_y
_atom_site_fract_z
_atom_type_partial_charge
H0 H 0.18474 0.98573 0.33787 0.0
N1 N 0.13324 0.99526 0.32642 0.0
H2 H 0.20063 0.9619 0.36724 0.0
H3 H 0.10138 0.98002 0.35721 0.0
H4 H 0.1171 0.95672 0.38636 0.0
H5 H 0.11328 0.94263 0.32729 0.0
H6 H 0.12532 0.90607 0.30471 0.0
H7 H 0.14902 0.00192 0.28976 0.0
H8 H 0.15818 0.96571 0.26552 0.0
H9 H 0.14175 0.04881 0.32637 0.0
H10 H 0.0776 0.98809 0.32653 0.0
H11 H 0.10786 0.08529 0.3294 0.0
H12 H 0.0435 0.0242 0.33122 0.0
H13 H 0.99194 0.18838 0.37153 0.0
H14 H 0.96763 0.19162 0.40245 0.0
H15 H 0.9515 0.10447 0.39869 0.0
H16 H 0.97568 0.10145 0.36776 0.0
H17 H 0.94374 0.12465 0.34302 0.0
H18 H 0.90898 0.14031 0.32034 0.0
H19 H 0.96862 0.19278 0.29383 0.0
H20 H 0.003 0.17867 0.31826 0.0
H21 H 0.04839 0.14208 0.3592 0.0
H22 H 0.08094 0.10525 0.35299 0.0
H23 H 0.01849 0.06072 0.31905 0.0
N24 N 0.99625 0.14474 0.34777 0.0
H25 H 0.98563 0.09667 0.32666 0.0
C26 C 0.14199 0.98502 0.34526 0.0
C27 C 0.16998 0.97995 0.34863 0.0
C28 C 0.17896 0.96619 0.36529 0.0
C29 C 0.16006 0.95743 0.37903 0.0
C30 C 0.13215 0.96353 0.37613 0.0
C31 C 0.12314 0.97699 0.35936 0.0
C32 C 0.13165 0.97492 0.31069 0.0
C33 C 0.12292 0.94792 0.3138 0.0
C34 C 0.12957 0.92685 0.30052 0.0
C35 C 0.14408 0.93244 0.28343 0.0
C36 C 0.14855 0.96016 0.27897 0.0
C37 C 0.1429 0.98108 0.29266 0.0
C38 C 0.11223 0.01592 0.32658 0.0
C39 C 0.12024 0.04346 0.32714 0.0
C40 C 0.10081 0.06422 0.32913 0.0
C41 C 0.07285 0.05783 0.33107 0.0
C42 C 0.06474 0.03006 0.3297 0.0
C43 C 0.08423 0.0093 0.32721 0.0
C44 C 0.98562 0.14484 0.36733 0.0
C45 C 0.98368 0.16992 0.37765 0.0
C46 C 0.96985 0.17168 0.39529 0.0
C47 C 0.95753 0.1483 0.40292 0.0
C48 C 0.96056 0.12286 0.39305 0.0
C49 C 0.97458 0.12109 0.37545 0.0
C50 C 0.97599 0.1511 0.33276 0.0
C51 C 0.94946 0.13971 0.33253 0.0
C52 C 0.92952 0.14842 0.31914 0.0
C53 C 0.93573 0.168 0.3051 0.0
C54 C 0.96276 0.17821 0.30467 0.0
C55 C 0.98257 0.16998 0.31848 0.0
C56 C 0.01475 0.12251 0.34322 0.0
C57 C 0.0418 0.12432 0.35043 0.0
C58 C 0.06045 0.1033 0.34666 0.0
C59 C 0.05261 0.08003 0.33519 0.0
C60 C 0.02532 0.07814 0.32805 0.0
C61 C 0.00649 0.09897 0.33221 0.0
H62 H 0.97182 0.41233 0.60246 0.0
N63 N 0.95071 0.45396 0.58284 0.0
H64 H 0.96501 0.40154 0.63686 0.0
H65 H 0.92609 0.48723 0.61054 0.0
H66 H 0.91905 0.47654 0.64455 0.0
H67 H 0.89582 0.45003 0.59067 0.0
H68 H 0.86337 0.4192 0.57424 0.0
H69 H 0.9567 0.42892 0.54815 0.0
H70 H 0.92327 0.40015 0.53013 0.0
H71 H 0.0004 0.46282 0.56962 0.0
H72 H 0.92295 0.50232 0.57938 0.0
H73 H 0.01973 0.50592 0.55913 0.0
H74 H 0.94278 0.54641 0.5716 0.0
H75 H 0.08641 0.63137 0.56669 0.0
H76 H 0.11609 0.64072 0.59508 0.0
H77 H 0.04574 0.66428 0.62883 0.0
H78 H 0.01569 0.65477 0.6 0.0
H79 H 0.02302 0.69044 0.55626 0.0
H80 H 0.0493 0.71748 0.53395 0.0
H81 H 0.0866 0.64331 0.51097 0.0
H82 H 0.06085 0.61653 0.53407 0.0
H83 H 0.05802 0.5895 0.56956 0.0
H84 H 0.03754 0.54491 0.57126 0.0
H85 H 0.95951 0.57825 0.5518 0.0
N86 N 0.03053 0.63826 0.56421 0.0
H87 H 0.97999 0.62399 0.55238 0.0
C88 C 0.94966 0.45054 0.60378 0.0
C89 C 0.96081 0.42669 0.61172 0.0
C90 C 0.95672 0.4205 0.63131 0.0
C91 C 0.9413 0.4381 0.6434 0.0
C92 C 0.93129 0.4627 0.63571 0.0
C93 C 0.93535 0.46885 0.61611 0.0
C94 C 0.92919 0.44092 0.57108 0.0
C95 C 0.90207 0.43926 0.57749 0.0
C96 C 0.88322 0.42175 0.56778 0.0
C97 C 0.89072 0.4063 0.55102 0.0
C98 C 0.91696 0.41062 0.54344 0.0
C99 C 0.93607 0.42738 0.55355 0.0
C100 C 0.96075 0.47969 0.57608 0.0
C101 C 0.98778 0.48108 0.56984 0.0
C102 C -0.00117 0.50592 0.56406 0.0
C103 C 0.98332 0.53028 0.56508 0.0
C104 C 0.95563 0.5284 0.5705 0.0
C105 C 0.9443 0.50323 0.5755 0.0
C106 C 0.04863 0.6427 0.58111 0.0
C107 C 0.07718 0.6387 0.58006 0.0
C108 C 0.09424 0.64408 0.59635 0.0
C109 C 0.08326 0.65348 0.61409 0.0
C110 C 0.05472 0.65694 0.61533 0.0
C111 C 0.03759 0.65163 0.59892 0.0
C112 C 0.04004 0.65161 0.54701 0.0
C113 C 0.03614 0.67996 0.54592 0.0
C114 C 0.05127 0.69538 0.53308 0.0
C115 C 0.07052 0.68267 0.52081 0.0
C116 C 0.07245 0.65384 0.52054 0.0
C117 C 0.0574 0.63841 0.53356 0.0
C118 C 0.02029 0.61055 0.56151 0.0
C119 C 0.03649 0.5875 0.56574 0.0
C120 C 0.02463 0.56151 0.56637 0.0
C121 C 0.99649 0.55754 0.56199 0.0
C122 C 0.98094 0.58036 0.55602 0.0
C123 C 0.99268 0.60656 0.55604 0.0
H124 H 0.65215 0.4666 0.85339 0.0
N125 N 0.61536 0.45755 0.82452 0.0
H126 H 0.65487 0.44468 0.88529 0.0
H127 H 0.57983 0.41904 0.83799 0.0
H128 H 0.58209 0.3975 0.86982 0.0
H129 H 0.62022 0.40177 0.81742 0.0
H130 H 0.65246 0.37997 0.79601 0.0
H131 H 0.64218 0.481 0.79587 0.0
H132 H 0.67265 0.45893 0.77245 0.0
H133 H 0.59993 0.50767 0.83491 0.0
H134 H 0.57242 0.43486 0.80315 0.0
H135 H 0.55416 0.52736 0.83183 0.0
H136 H 0.52647 0.45464 0.79947 0.0
H137 H 0.42909 0.58968 0.82823 0.0
H138 H 0.42386 0.62202 0.85534 0.0
H139 H 0.4319 0.55562 0.89601 0.0
H140 H 0.43435 0.52299 0.86836 0.0
H141 H 0.37539 0.53147 0.83472 0.0
H142 H 0.34049 0.55413 0.81514 0.0
H143 H 0.4012 0.57279 0.77222 0.0
H144 H 0.43627 0.55203 0.79265 0.0
H145 H 0.47294 0.5633 0.81826 0.0
H146 H 0.51853 0.54543 0.81133 0.0
H147 H 0.48987 0.46327 0.8219 0.0
N148 N 0.42907 0.53356 0.83035 0.0
H149 H 0.4441 0.48137 0.82815 0.0
C150 C 0.61587 0.44462 0.84333 0.0
C151 C 0.63678 0.45161 0.85697 0.0
C152 C 0.63817 0.43919 0.87519 0.0
C153 C 0.61864 0.41939 0.88007 0.0
C154 C 0.59755 0.41251 0.86642 0.0
C155 C 0.59613 0.42501 0.84825 0.0
C156 C 0.62959 0.44336 0.80894 0.0
C157 C 0.6315 0.41458 0.80775 0.0
C158 C 0.64986 0.40192 0.79503 0.0
C159 C 0.66604 0.41757 0.78261 0.0
C160 C 0.66159 0.44612 0.78229 0.0
C161 C 0.64389 0.45884 0.79552 0.0
C162 C 0.58951 0.46993 0.81934 0.0
C163 C 0.58409 0.49631 0.82678 0.0
C164 C 0.55793 0.50754 0.82491 0.0
C165 C 0.53656 0.49253 0.81546 0.0
C166 C 0.54239 0.46658 0.80705 0.0
C167 C 0.56867 0.45532 0.809 0.0
C168 C 0.43114 0.55367 0.84626 0.0
C169 C 0.42974 0.58203 0.84297 0.0
C170 C 0.42711 0.60067 0.85866 0.0
C171 C 0.42682 0.59159 0.87807 0.0
C172 C 0.4309 0.56343 0.88132 0.0
C173 C 0.43268 0.54469 0.86555 0.0
C174 C 0.40859 0.54028 0.81555 0.0
C175 C 0.38101 0.53988 0.82084 0.0
C176 C 0.361 0.55286 0.8095 0.0
C177 C 0.36796 0.56592 0.79215 0.0
C178 C 0.39517 0.56386 0.78581 0.0
C179 C 0.41536 0.55153 0.79748 0.0
C180 C 0.45517 0.52354 0.82381 0.0
C181 C 0.47637 0.5414 0.81871 0.0
C182 C 0.50246 0.53115 0.81484 0.0
C183 C 0.50796 0.50293 0.81623 0.0
C184 C 0.48633 0.48505 0.82043 0.0
C185 C 0.4602 0.49532 0.82414 0.0
H186 H 0.46648 0.90838 0.10861 0.0
N187 N 0.45192 0.95502 0.08907 0.0
H188 H 0.45057 0.89484 0.1403 0.0
H189 H 0.42205 0.98451 0.11393 0.0
H190 H 0.40496 0.97048 0.14563 0.0
H191 H 0.40318 0.95458 0.07093 0.0
H192 H 0.3834 0.91803 0.04964 0.0
H193 H 0.47938 0.91001 0.07448 0.0
H194 H 0.45981 0.8736 0.05337 0.0
H195 H 0.50268 0.93618 0.10128 0.0
H196 H 0.46161 0.0005 0.06987 0.0
H197 H 0.54673 0.957 0.09519 0.0
H198 H 0.50607 0.02202 0.06403 0.0
H199 H 0.68312 0.03248 0.08706 0.0
H200 H 0.70371 0.05635 0.11611 0.0
H201 H 0.6327 0.1087 0.11956 0.0
H202 H 0.61168 0.08417 0.09134 0.0
H203 H 0.60284 0.08679 0.05812 0.0
H204 H 0.6176 0.12436 0.03816 0.0
H205 H 0.69084 0.07928 0.02354 0.0
H206 H 0.67625 0.04194 0.04423 0.0
H207 H 0.61671 0.01792 0.10118 0.0
H208 H 0.5725 0.99691 0.10563 0.0
H209 H 0.54886 0.0148 0.046 0.0
N210 N 0.63519 0.04335 0.06914 0.0
H211 H 0.5931 0.03645 0.04145 0.0
C212 C 0.44559 0.94772 0.10883 0.0
C213 C 0.45366 0.92248 0.11668 0.0
C214 C 0.44421 0.91453 0.1348 0.0
C215 C 0.42619 0.93139 0.14543 0.0
C216 C 0.419 0.95708 0.13793 0.0
C217 C 0.42866 0.96512 0.11981 0.0
C218 C 0.44263 0.93513 0.07436 0.0
C219 C 0.41578 0.93721 0.06678 0.0
C220 C 0.40456 0.91636 0.05465 0.0
C221 C 0.42003 0.89289 0.05001 0.0
C222 C 0.44734 0.89132 0.05693 0.0
C223 C 0.4586 0.91226 0.06893 0.0
C224 C 0.47857 0.96695 0.08617 0.0
C225 C 0.50297 0.9549 0.09319 0.0
C226 C 0.52833 0.96693 0.08973 0.0
C227 C 0.52994 0.99129 0.07922 0.0
C228 C 0.50557 0.00313 0.07202 0.0
C229 C 0.48018 0.99103 0.07548 0.0
C230 C 0.64612 0.05672 0.08684 0.0
C231 C 0.67194 0.0489 0.09424 0.0
C232 C 0.68361 0.06246 0.11073 0.0
C233 C 0.66973 0.08435 0.11979 0.0
C234 C 0.64377 0.09198 0.11261 0.0
C235 C 0.63189 0.07811 0.09642 0.0
C236 C 0.63871 0.06156 0.05296 0.0
C237 C 0.62172 0.08458 0.05025 0.0
C238 C 0.63011 0.10605 0.03862 0.0
C239 C 0.65566 0.10504 0.02949 0.0
C240 C 0.67126 0.08088 0.03064 0.0
C241 C 0.66285 0.05941 0.04229 0.0
C242 C 0.60813 0.03113 0.07144 0.0
C243 C 0.60195 0.01822 0.08909 0.0
C244 C 0.57665 0.00565 0.09158 0.0
C245 C 0.55692 0.0046 0.07629 0.0
C246 C 0.56332 0.01607 0.05828 0.0
C247 C 0.58876 0.02872 0.05575 0.0
H248 H 0.11373 0.57304 0.91912 0.0
N249 N 0.07614 0.58554 0.94521 0.0
H250 H 0.1194 0.59287 0.88698 0.0
H251 H 0.04043 0.62076 0.92729 0.0
H252 H 0.04545 0.64029 0.89492 0.0
H253 H 0.06699 0.63918 0.95612 0.0
H254 H 0.10067 0.66951 0.9725 0.0
H255 H 0.12022 0.57004 0.96531 0.0
H256 H 0.15434 0.6002 0.9813 0.0
H257 H 0.06403 0.53344 0.93852 0.0
H258 H 0.03165 0.60824 0.9636 0.0
H259 H 0.02024 0.51068 0.94273 0.0
H260 H 0.98791 0.58536 0.96876 0.0
H261 H 0.91424 0.43931 0.94033 0.0
H262 H 0.91624 0.41127 0.91029 0.0
H263 H 0.88843 0.48043 0.87682 0.0
H264 H 0.8876 0.50866 0.907 0.0
H265 H 0.84379 0.48522 0.93778 0.0
H266 H 0.81331 0.45666 0.95598 0.0
H267 H 0.8782 0.44374 -0.00089 0.0
H268 H 0.90903 0.47078 0.9801 0.0
H269 H 0.94461 0.4691 0.95743 0.0
H270 H 0.98814 0.49238 0.96354 0.0
H271 H 0.95004 0.56962 0.94925 0.0
N272 N 0.89707 0.49254 0.94345 0.0
H273 H 0.90603 0.54616 0.94439 0.0
C274 C 0.07675 0.59532 0.92552 0.0
C275 C 0.09856 0.58738 0.91373 0.0
C276 C 0.10164 0.59866 0.89535 0.0
C277 C 0.08283 0.61816 0.88834 0.0
C278 C 0.06044 0.62553 0.89997 0.0
C279 C 0.05743 0.61424 0.91843 0.0
C280 C 0.09121 0.60225 0.95945 0.0
C281 C 0.08546 0.63031 0.96231 0.0
C282 C 0.10491 0.64772 0.97151 0.0
C283 C 0.13042 0.6374 0.97792 0.0
C284 C 0.13487 0.6089 0.97671 0.0
C285 C 0.11541 0.59156 0.96756 0.0
C286 C 0.05118 0.57238 0.95074 0.0
C287 C 0.04759 0.54469 0.94545 0.0
C288 C 0.02253 0.53169 0.94803 0.0
C289 C 0.00039 0.54611 0.95617 0.0
C290 C 0.00437 0.5737 0.96224 0.0
C291 C 0.02951 0.5868 0.95944 0.0
C292 C 0.90079 0.47615 0.92583 0.0
C293 C 0.90925 0.44863 0.92649 0.0
C294 C 0.91008 0.43253 0.9093 0.0
C295 C 0.90226 0.44353 0.89116 0.0
C296 C 0.89487 0.47138 0.89049 0.0
C297 C 0.89421 0.4875 0.90769 0.0
C298 C 0.87892 0.48001 0.95713 0.0
C299 C 0.85133 0.47654 0.95132 0.0
C300 C 0.83382 0.46023 0.96191 0.0
C301 C 0.84318 0.44749 0.97908 0.0
C302 C 0.87038 0.45249 0.98568 0.0
C303 C 0.88815 0.46832 0.97476 0.0
C304 C 0.92183 0.50599 0.95062 0.0
C305 C 0.94532 0.49115 0.95626 0.0
C306 C 0.97041 0.50452 0.95951 0.0
C307 C 0.97284 0.53288 0.95658 0.0
C308 C 0.94902 0.54785 0.9519 0.0
C309 C 0.9238 0.53449 0.94904 0.0
H310 H 0.53016 0.33311 0.18696 0.0
N311 N 0.52848 0.38492 0.1999 0.0
H312 H 0.55109 0.31563 0.15686 0.0
H313 H 0.54371 0.416 0.16864 0.0
H314 H 0.56442 0.39877 0.13894 0.0
H315 H 0.58188 0.40147 0.19629 0.0
H316 H 0.62028 0.3827 0.21431 0.0
H317 H 0.52581 0.36418 0.23551 0.0
H318 H 0.56439 0.348 0.25543 0.0
H319 H 0.4748 0.38389 0.20424 0.0
H320 H 0.54313 0.4392 0.1999 0.0
H321 H 0.44315 0.4225 0.20403 0.0
H322 H 0.51166 0.47796 0.19779 0.0
H323 H 0.35173 0.5477 0.16555 0.0
H324 H 0.34625 0.5667 0.13287 0.0
H325 H 0.43438 0.5707 0.12827 0.0
H326 H 0.43962 0.55186 0.16104 0.0
H327 H 0.42953 0.58791 0.18641 0.0
H328 H 0.42 0.63022 0.20423 0.0
H329 H 0.35595 0.58927 0.23522 0.0
H330 H 0.36428 0.54735 0.21584 0.0
H331 H 0.39183 0.4886 0.17668 0.0
H332 H 0.42408 0.45139 0.18174 0.0
H333 H 0.48054 0.50822 0.21128 0.0
N334 N 0.39808 0.54117 0.18605 0.0
H335 H 0.44901 0.54562 0.20468 0.0
C336 C 0.5352 0.3758 0.18026 0.0
C337 C 0.53685 0.34751 0.17624 0.0
C338 C 0.54901 0.33758 0.15915 0.0
C339 C 0.55961 0.35586 0.14565 0.0
C340 C 0.55622 0.38418 0.14897 0.0
C341 C 0.54427 0.39409 0.16612 0.0
C342 C 0.55087 0.38299 0.21401 0.0
C343 C 0.57784 0.39009 0.2093 0.0
C344 C 0.60003 0.37946 0.21993 0.0
C345 C 0.59575 0.3625 0.23602 0.0
C346 C 0.56869 0.35953 0.24252 0.0
C347 C 0.54649 0.36922 0.23138 0.0
C348 C 0.51109 0.40862 0.20163 0.0
C349 C 0.48288 0.40449 0.20316 0.0
C350 C 0.46484 0.42663 0.20277 0.0
C351 C 0.47462 0.45349 0.20029 0.0
C352 C 0.5032 0.45771 0.19975 0.0
C353 C 0.5213 0.43551 0.20074 0.0
C354 C 0.39593 0.54843 0.16572 0.0
C355 C 0.3698 0.55214 0.15728 0.0
C356 C 0.36676 0.56292 0.13862 0.0
C357 C 0.3899 0.57032 0.12806 0.0
C358 C 0.41618 0.56546 0.13617 0.0
C359 C 0.4192 0.55453 0.15482 0.0
C360 C 0.39703 0.56456 0.19942 0.0
C361 C 0.41349 0.58792 0.19706 0.0
C362 C 0.40818 0.61219 0.20754 0.0
C363 C 0.38677 0.61354 0.22099 0.0
C364 C 0.37198 0.58938 0.22453 0.0
C365 C 0.37693 0.56525 0.2137 0.0
C366 C 0.41765 0.51985 0.19038 0.0
C367 C 0.41118 0.49296 0.18427 0.0
C368 C 0.42962 0.47163 0.18741 0.0
C369 C 0.45496 0.47652 0.19723 0.0
C370 C 0.46143 0.50358 0.2035 0.0
C371 C 0.44315 0.52509 0.1999 0.0
H372 H 0.40565 0.967 0.40977 0.0
N373 N 0.44023 0.95208 0.43828 0.0
H374 H 0.38797 0.93834 0.3821 0.0
H375 H 0.4577 0.9005 0.42801 0.0
H376 H 0.43945 0.87162 0.40097 0.0
H377 H 0.46968 0.91585 0.46027 0.0
H378 H 0.44941 0.8855 0.48421 0.0
H379 H 0.39458 0.96191 0.45722 0.0
H380 H 0.37438 0.93248 0.48122 0.0
H381 H 0.44182 0.00467 0.44877 0.0
H382 H 0.49145 0.93922 0.42534 0.0
H383 H 0.47771 0.03777 0.44193 0.0
H384 H 0.52685 0.97231 0.41724 0.0
H385 H 0.57557 0.13826 0.38552 0.0
H386 H 0.59341 0.14764 0.35319 0.0
H387 H 0.61547 0.06229 0.34582 0.0
H388 H 0.59712 0.05303 0.37814 0.0
H389 H 0.63239 0.07462 0.40277 0.0
H390 H 0.67008 0.08972 0.42417 0.0
H391 H 0.61304 0.13464 0.46045 0.0
H392 H 0.57566 0.12129 0.4377 0.0
H393 H 0.5247 0.0932 0.40328 0.0
H394 H 0.49285 0.05783 0.41317 0.0
H395 H 0.56133 0.00489 0.42708 0.0
N396 N 0.57888 0.09178 0.40456 0.0
H397 H 0.59294 0.04009 0.4161 0.0
C398 C 0.43263 0.93584 0.42107 0.0
C399 C 0.41343 0.94637 0.40767 0.0
C400 C 0.40341 0.93004 0.39196 0.0
C401 C 0.41224 0.90277 0.38962 0.0
C402 C 0.43217 0.89251 0.40264 0.0
C403 C 0.44254 0.90901 0.41812 0.0
C404 C 0.43321 0.9406 0.45668 0.0
C405 C 0.44921 0.92003 0.46532 0.0
C406 C 0.4376 0.90275 0.47899 0.0
C407 C 0.41011 0.90625 0.48439 0.0
C408 C 0.39563 0.92918 0.47755 0.0
C409 C 0.40709 0.94608 0.46377 0.0
C410 C 0.46376 0.96969 0.43731 0.0
C411 C 0.46068 0.99747 0.44235 0.0
C412 C 0.48105 0.01635 0.43813 0.0
C413 C 0.50487 0.00787 0.42844 0.0
C414 C 0.50878 0.97964 0.42463 0.0
C415 C 0.48847 0.96065 0.42918 0.0
C416 C 0.58513 0.09512 0.38424 0.0
C417 C 0.58365 0.1215 0.3767 0.0
C418 C 0.59404 0.12681 0.35833 0.0
C419 C 0.60624 0.10577 0.34712 0.0
C420 C 0.60612 0.07888 0.35411 0.0
C421 C 0.59566 0.07357 0.37257 0.0
C422 C 0.60119 0.09754 0.41833 0.0
C423 C 0.62794 0.0879 0.4152 0.0
C424 C 0.64957 0.0963 0.42773 0.0
C425 C 0.64487 0.11381 0.44403 0.0
C426 C 0.61774 0.12193 0.44775 0.0
C427 C 0.59623 0.11408 0.43491 0.0
C428 C 0.56103 0.06943 0.40914 0.0
C429 C 0.53273 0.07383 0.40828 0.0
C430 C 0.51464 0.05369 0.41421 0.0
C431 C 0.5245 0.02867 0.42141 0.0
C432 C 0.55298 0.02389 0.42165 0.0
C433 C 0.57112 0.04403 0.41545 0.0
H434 H 0.08507 0.86921 0.66151 0.0
N435 N 0.09121 0.91513 0.68309 0.0
H436 H 0.10285 0.8591 0.6289 0.0
H437 H 0.12041 0.95025 0.66054 0.0
H438 H 0.13667 0.94108 0.62774 0.0
H439 H 0.14771 0.90976 0.68344 0.0
H440 H 0.17482 0.88685 0.70784 0.0
H441 H 0.07646 0.90414 0.71942 0.0
H442 H 0.10445 0.88374 0.74521 0.0
H443 H 0.03729 0.91998 0.67904 0.0
H444 H 0.11071 0.96614 0.69339 0.0
H445 H 0.01041 0.96224 0.67958 0.0
H446 H 0.08453 0.00881 0.6927 0.0
H447 H 0.93893 0.07318 0.66671 0.0
H448 H 0.9066 0.08241 0.63971 0.0
H449 H 0.97102 0.12305 0.60914 0.0
H450 H 0.00318 0.11386 0.6363 0.0
H451 H 0.99661 0.14567 0.67551 0.0
H452 H 0.97132 0.17513 0.6978 0.0
H453 H 0.93738 0.10342 0.72452 0.0
H454 H 0.96129 0.07421 0.70094 0.0
H455 H 0.98195 0.04123 0.65186 0.0
H456 H 0.00505 -0.00108 0.65839 0.0
H457 H 0.05122 0.03832 0.70611 0.0
N458 N 0.99179 0.09191 0.67039 0.0
H459 H 0.02883 0.0817 0.69889 0.0
C460 C 0.10097 0.91049 0.66344 0.0
C461 C 0.09625 0.88495 0.65412 0.0
C462 C 0.10628 0.87933 0.63543 0.0
C463 C 0.12116 0.89931 0.62558 0.0
C464 C 0.12564 0.92504 0.63492 0.0
C465 C 0.11592 0.9305 0.65368 0.0
C466 C 0.10948 0.9078 0.69915 0.0
C467 C 0.13788 0.90433 0.69682 0.0
C468 C 0.15373 0.89145 0.71117 0.0
C469 C 0.14187 0.88247 0.72852 0.0
C470 C 0.11422 0.88913 0.73177 0.0
C471 C 0.09816 0.90116 0.71711 0.0
C472 C 0.07588 0.94006 0.68583 0.0
C473 C 0.0475 0.93934 0.6824 0.0
C474 C 0.0323 0.96353 0.68253 0.0
C475 C 0.04535 0.98907 0.68577 0.0
C476 C 0.0737 0.98958 0.69025 0.0
C477 C 0.0888 0.96524 0.69047 0.0
C478 C 0.97345 0.09313 0.65351 0.0
C479 C 0.94613 0.0838 0.6541 0.0
C480 C 0.9277 0.0891 0.6387 0.0
C481 C 0.93626 0.1036 0.62241 0.0
C482 C 0.96391 0.1116 0.62142 0.0
C483 C 0.98228 0.10644 0.63689 0.0
C484 C 0.98102 0.10786 0.68657 0.0
C485 C 0.98416 0.13637 0.68647 0.0
C486 C 0.96969 0.15317 0.69938 0.0
C487 C 0.9521 0.14179 0.71309 0.0
C488 C 0.95025 0.11301 0.71395 0.0
C489 C 0.96428 0.0962 0.70066 0.0
C490 C 0.00292 0.0652 0.67521 0.0
C491 C 0.99654 0.04119 0.66402 0.0
C492 C 0.00983 0.01654 0.66784 0.0
C493 C 0.02987 0.01499 0.68292 0.0
C494 C 0.03604 0.03875 0.69428 0.0
C495 C 0.02298 0.06355 0.6903 0.0
Zn496 Zn 0.32524 0.72352 0.97644 0.0
Zn497 Zn 0.34045 0.69102 0.00682 0.0
O498 O 0.29879 0.68831 0.00663 0.0
O499 O 0.28546 0.71298 0.98161 0.0
O500 O 0.35185 0.66701 0.02903 0.0
O501 O 0.34307 0.7559 0.99101 0.0
O502 O 0.35672 0.72866 0.01455 0.0
C503 C 0.2797 0.69761 0.99567 0.0
C504 C 0.35934 0.67748 0.96528 0.0
O505 O 0.35723 0.6717 0.98324 0.0
O506 O 0.34849 0.69907 0.95866 0.0
C507 C 0.34203 0.64289 0.02968 0.0
O508 O 0.32472 0.63432 0.01578 0.0
C509 C 0.35588 0.75236 0.00712 0.0
Zn510 Zn 0.29295 0.79302 0.28357 0.0
Zn511 Zn 0.32313 0.81553 0.25494 0.0
O512 O 0.28509 0.83274 0.25145 0.0
O513 O 0.25964 0.81389 0.27368 0.0
O514 O 0.34401 0.83036 0.23243 0.0
O515 O 0.30076 0.7549 0.27283 0.0
O516 O 0.32751 0.77379 0.25133 0.0
C517 C 0.26214 0.83033 0.25976 0.0
C518 C 0.3391 0.82784 0.29735 0.0
O519 O 0.34273 0.83123 0.27919 0.0
O520 O 0.32009 0.81223 0.30291 0.0
C521 C 0.35135 0.85535 0.23182 0.0
O522 O 0.34539 0.8722 0.24643 0.0
C523 C 0.31746 0.75257 0.25899 0.0
Zn524 Zn 0.24213 0.7975 0.47134 0.0
Zn525 Zn 0.21541 0.83145 0.4968 0.0
O526 O 0.25614 0.83457 0.50503 0.0
O527 O 0.27831 0.80629 0.48548 0.0
O528 O 0.19582 0.85174 0.51844 0.0
O529 O 0.21882 0.76473 0.47853 0.0
O530 O 0.19593 0.79431 0.49673 0.0
C531 C 0.27858 0.82399 0.49941 0.0
C532 C 0.21442 0.84596 0.4543 0.0
O533 O 0.20758 0.85189 0.47179 0.0
O534 O 0.2282 0.8244 0.45063 0.0
C535 C 0.20637 0.87154 0.5285 0.0
O536 O 0.23061 0.88088 0.52394 0.0
C537 C 0.19894 0.7702 0.48954 0.0
Zn538 Zn 0.21816 0.69933 0.73354 0.0
Zn539 Zn 0.18123 0.67729 0.75783 0.0
O540 O 0.17998 0.71874 0.76389 0.0
O541 O 0.2122 0.73679 0.74621 0.0
O542 O 0.15708 0.66006 0.77767 0.0
O543 O 0.24806 0.67412 0.74328 0.0
O544 O 0.21717 0.65635 0.76222 0.0
C545 C 0.1932 0.73965 0.75842 0.0
C546 C 0.16938 0.67403 0.7143 0.0
O547 O 0.16254 0.66837 0.73161 0.0
O548 O 0.19166 0.68666 0.71146 0.0
C549 C 0.14023 0.67278 0.78851 0.0
O550 O 0.13693 0.69933 0.78669 0.0
C551 C 0.24146 0.65676 0.75581 0.0
Zn552 Zn 0.78635 0.22099 0.54263 0.0
Zn553 Zn 0.82093 0.20011 0.5147 0.0
O554 O 0.83013 0.24097 0.51694 0.0
O555 O 0.80235 0.259 0.5387 0.0
O556 O 0.84701 0.18648 0.49428 0.0
O557 O 0.75438 0.20758 0.52523 0.0
O558 O 0.78286 0.18924 0.50396 0.0
C559 C 0.8216 0.26166 0.52675 0.0
C560 C 0.82525 0.17969 0.5564 0.0
O561 O 0.83289 0.17965 0.53874 0.0
O562 O 0.80575 0.19512 0.56182 0.0
C563 C 0.87234 0.19207 0.49685 0.0
O564 O 0.88032 0.20601 0.51272 0.0
C565 C 0.75855 0.1939 0.50956 0.0
Zn566 Zn 0.8293 0.29051 0.78498 0.0
Zn567 Zn 0.85472 0.32729 0.76245 0.0
O568 O 0.81354 0.33372 0.75768 0.0
O569 O 0.7923 0.30149 0.77351 0.0
O570 O 0.87226 0.34753 0.74067 0.0
O571 O 0.85001 0.25794 0.77391 0.0
O572 O 0.87168 0.28946 0.75777 0.0
C573 C 0.79141 0.32212 0.76261 0.0
C574 C 0.86124 0.3357 0.80558 0.0
O575 O 0.86692 0.34421 0.78866 0.0
O576 O 0.8466 0.31433 0.8073 0.0
C577 C 0.88261 0.37136 0.73966 0.0
O578 O 0.8827 0.38803 0.75509 0.0
C579 C 0.86873 0.26455 0.76243 0.0
Zn580 Zn 0.70393 0.30573 0.03822 0.0
Zn581 Zn 0.66761 0.32169 0.00991 0.0
O582 O 0.66984 0.27975 0.00572 0.0
O583 O 0.70197 0.26703 0.02679 0.0
O584 O 0.64602 0.33596 0.98676 0.0
O585 O 0.73316 0.33244 0.02982 0.0
O586 O 0.70234 0.34493 0.00779 0.0
C587 C 0.68452 0.26099 0.01329 0.0
C588 C 0.65129 0.32817 0.05201 0.0
O589 O 0.64558 0.33169 0.03396 0.0
O590 O 0.67412 0.31782 0.05723 0.0
C591 C 0.64005 0.32214 0.97119 0.0
O592 O 0.64566 0.29581 0.9703 0.0
C593 C 0.72601 0.34769 0.01588 0.0
Zn594 Zn 0.76575 0.23533 0.21845 0.0
Zn595 Zn 0.73493 0.20377 0.24249 0.0
O596 O 0.71996 0.24289 0.24459 0.0
O597 O 0.74553 0.2698 0.22718 0.0
O598 O 0.71331 0.18539 0.26324 0.0
O599 O 0.8003 0.22313 0.23323 0.0
O600 O 0.7745 0.19686 0.25109 0.0
C601 C 0.72554 0.26664 0.23842 0.0
C602 C 0.73269 0.19056 0.19924 0.0
O603 O 0.72555 0.18477 0.21646 0.0
O604 O 0.74861 0.21068 0.19648 0.0
C605 C 0.6974 0.1647 0.26191 0.0
O606 O 0.69377 0.15169 0.24495 0.0
C607 C 0.79802 0.20559 0.24647 0.0
H608 H 0.19201 0.9355 0.26329 0.0
H609 H 0.12936 0.87754 0.27878 0.0
H610 H 0.15993 0.83976 0.27061 0.0
H611 H 0.20723 0.82384 0.26467 0.0
H612 H 0.26779 0.88208 0.2467 0.0
H613 H 0.23446 0.91906 0.24941 0.0
C614 C 0.18422 0.91479 0.26423 0.0
C615 C 0.15856 0.90978 0.27262 0.0
C616 C 0.20166 0.89306 0.25914 0.0
C617 C 0.14945 0.88237 0.27342 0.0
C618 C 0.16688 0.8606 0.26859 0.0
C619 C 0.21285 0.84452 0.26083 0.0
C620 C 0.24007 0.85034 0.25593 0.0
C621 C 0.19355 0.86579 0.26241 0.0
C622 C 0.24701 0.87708 0.25063 0.0
C623 C 0.22801 0.89831 0.25233 0.0
H624 H 0.125 0.67256 0.51553 0.0
H625 H 0.06151 0.73172 0.50291 0.0
H626 H 0.0959 0.7639 0.49207 0.0
H627 H 0.14425 0.7767 0.48877 0.0
H628 H 0.20749 0.71666 0.49866 0.0
H629 H 0.17279 0.68304 0.50771 0.0
C630 C 0.11847 0.69213 0.50988 0.0
C631 C 0.09062 0.6998 0.51044 0.0
C632 C 0.13834 0.71049 0.50341 0.0
C633 C 0.08281 0.72547 0.50318 0.0
C634 C 0.10246 0.74391 0.49692 0.0
C635 C 0.15034 0.75616 0.4928 0.0
C636 C 0.17825 0.74915 0.49343 0.0
C637 C 0.13032 0.73692 0.49751 0.0
C638 C 0.18604 0.72242 0.49823 0.0
C639 C 0.16624 0.70329 0.50341 0.0
H640 H 0.31216 0.55936 0.78864 0.0
H641 H 0.37784 0.61369 0.77302 0.0
H642 H 0.34467 0.64541 0.75932 0.0
H643 H 0.29694 0.65965 0.75388 0.0
H644 H 0.23128 0.60793 0.77281 0.0
H645 H 0.26456 0.57389 0.78377 0.0
C646 C 0.31935 0.57822 0.78242 0.0
C647 C 0.34767 0.58387 0.78197 0.0
C648 C 0.3001 0.59719 0.77543 0.0
C649 C 0.35634 0.60822 0.77329 0.0
C650 C 0.33732 0.62671 0.76567 0.0
C651 C 0.28992 0.64089 0.76036 0.0
C652 C 0.26171 0.63636 0.76258 0.0
C653 C 0.30916 0.62164 0.76697 0.0
C654 C 0.25292 0.61203 0.77109 0.0
C655 C 0.27192 0.59249 0.77728 0.0
H656 H 0.42271 0.83929 0.05922 0.0
H657 H 0.388 0.89395 0.01663 0.0
H658 H 0.36517 0.8552 -0.00049 0.0
H659 H 0.35473 0.80597 0.99697 0.0
H660 H 0.38894 0.75147 0.04 0.0
H661 H 0.41246 0.79004 0.05659 0.0
C662 C 0.41042 0.84264 0.04604 0.0
C663 C 0.40716 0.86937 0.0391 0.0
C664 C 0.39721 0.82036 0.03643 0.0
C665 C 0.39072 0.87355 0.02226 0.0
C666 C 0.37772 0.85142 0.01248 0.0
C667 C 0.36736 0.80248 0.00995 0.0
C668 C 0.37004 0.77582 0.01721 0.0
C669 C 0.38072 0.82476 0.01949 0.0
C670 C 0.38644 0.77175 0.0341 0.0
C671 C 0.39995 0.79379 0.04359 0.0
H672 H 0.17013 0.63225 0.00656 0.0
H673 H 0.14378 0.68448 0.95962 0.0
H674 H 0.18655 0.71016 0.96274 0.0
H675 H 0.23386 0.71363 0.97548 0.0
H676 H 0.26126 0.66006 0.02136 0.0
H677 H 0.21584 0.63915 0.02189 0.0
C678 C 0.17362 0.64947 0.99718 0.0
C679 C 0.1538 0.6562 0.98278 0.0
C680 C 0.19869 0.6637 -0.00137 0.0
C681 C 0.15847 0.67892 0.97098 0.0
C682 C 0.18312 0.69347 0.97259 0.0
C683 C 0.22982 0.69766 0.98581 0.0
C684 C 0.25111 0.68817 0.99812 0.0
C685 C 0.20375 0.68541 0.98586 0.0
C686 C 0.24536 0.66766 0.01157 0.0
C687 C 0.21938 0.6556 0.01186 0.0
H688 H 0.3351 0.63076 0.22974 0.0
H689 H 0.41975 0.65736 0.23228 0.0
H690 H 0.4055 0.70306 0.24304 0.0
H691 H 0.36888 0.73589 0.25117 0.0
H692 H 0.28512 0.7078 0.25228 0.0
H693 H 0.29923 0.66199 0.24096 0.0
C694 C 0.35063 0.64621 0.23309 0.0
C695 C 0.37851 0.64044 0.22992 0.0
C696 C 0.34241 0.67229 0.23981 0.0
C697 C 0.39808 0.6612 0.23406 0.0
C698 C 0.38999 0.68738 0.24034 0.0
C699 C 0.35379 0.71968 0.24885 0.0
C700 C 0.32601 0.7251 0.25221 0.0
C701 C 0.36219 0.69325 0.24301 0.0
C702 C 0.30661 0.70396 0.24963 0.0
C703 C 0.31467 0.67785 0.2432 0.0
H704 H 0.37129 0.91 0.51257 0.0
H705 H 0.41311 0.85161 0.47534 0.0
H706 H 0.37773 0.81756 0.48064 0.0
H707 H 0.33009 0.80861 0.48915 0.0
H708 H 0.28672 0.86803 0.52463 0.0
H709 H 0.32746 0.89704 0.52691 0.0
C710 C 0.37302 0.88956 0.50608 0.0
C711 C 0.39451 0.88364 0.49323 0.0
C712 C 0.35194 0.87036 0.50851 0.0
C713 C 0.39684 0.85685 0.48528 0.0
C714 C 0.37635 0.8374 0.48809 0.0
C715 C 0.32973 0.82752 0.49786 0.0
C716 C 0.30505 0.83651 0.50613 0.0
C717 C 0.35302 0.84454 0.49865 0.0
C718 C 0.30522 0.8608 0.51774 0.0
C719 C 0.32852 0.87754 0.51898 0.0
H720 H 0.12018 0.84122 0.74991 0.0
H721 H 0.19776 0.87835 0.7362 0.0
H722 H 0.22178 0.83784 0.74766 0.0
H723 H 0.21956 0.78862 0.75513 0.0
H724 H 0.14199 0.75323 0.77036 0.0
H725 H 0.11945 0.79714 0.76574 0.0
C726 C 0.14239 0.8413 0.75007 0.0
C727 C 0.15687 0.86258 0.74122 0.0
C728 C 0.15618 0.81809 0.75692 0.0
C729 C 0.18577 0.86179 0.74191 0.0
C730 C 0.19964 0.83865 0.74862 0.0
C731 C 0.19789 0.79076 0.75805 0.0
C732 C 0.18235 0.76748 0.7625 0.0
C733 C 0.18489 0.81606 0.75509 0.0
C734 C 0.15443 0.77069 0.76669 0.0
C735 C 0.14142 0.79579 0.76386 0.0
H736 H 0.67102 0.36448 0.76817 0.0
H737 H 0.71533 0.44137 0.77381 0.0
H738 H 0.75675 0.41878 0.76331 0.0
H739 H 0.78263 0.37634 0.75897 0.0
H740 H 0.74057 0.29851 0.75917 0.0
H741 H 0.69644 0.32214 0.76125 0.0
C742 C 0.68967 0.37643 0.7672 0.0
C743 C 0.68971 0.40468 0.77227 0.0
C744 C 0.71417 0.36295 0.76246 0.0
C745 C 0.71408 0.41974 0.76995 0.0
C746 C 0.73813 0.40673 0.76417 0.0
C747 C 0.76374 0.36455 0.7589 0.0
C748 C 0.76481 0.33575 0.75899 0.0
C749 C 0.7387 0.37821 0.76128 0.0
C750 C 0.74021 0.32072 0.75915 0.0
C751 C 0.71502 0.33423 0.76046 0.0
H752 H 0.63061 0.14439 0.0074 0.0
H753 H 0.70799 0.12357 0.03524 0.0
H754 H 0.72552 0.16927 0.0295 0.0
H755 H 0.71636 0.21709 0.02171 0.0
H756 H 0.63861 0.23906 0.99504 0.0
H757 H 0.62396 0.1911 0.995 0.0
C758 C 0.65146 0.14975 0.01191 0.0
C759 C 0.66779 0.13059 0.02193 0.0
C760 C 0.66129 0.17644 0.00901 0.0
C761 C 0.69495 0.13771 0.02737 0.0
C762 C 0.70496 0.16402 0.02428 0.0
C763 C 0.69642 0.21132 0.01551 0.0
C764 C 0.67842 0.2317 0.00876 0.0
C765 C 0.68793 0.18384 0.01587 0.0
C766 C 0.65283 0.22382 0.00046 0.0
C767 C 0.64434 0.1964 0.00056 0.0
H768 H 0.89131 0.14006 0.28955 0.0
H769 H 0.93009 0.21989 0.29045 0.0
H770 H 0.89213 0.23784 0.27086 0.0
H771 H 0.84602 0.23191 0.25558 0.0
H772 H 0.805 0.1538 0.25897 0.0
H773 H 0.8453 0.13446 0.2754 0.0
C774 C 0.89145 0.16152 0.28579 0.0
C775 C 0.91368 0.1785 0.29174 0.0
C776 C 0.86887 0.17217 0.27546 0.0
C777 C 0.91363 0.20603 0.28594 0.0
C778 C 0.8917 0.21649 0.2749 0.0
C779 C 0.84606 0.21064 0.25987 0.0
C780 C 0.82268 0.19427 0.25614 0.0
C781 C 0.86898 0.19988 0.26989 0.0
C782 C 0.82275 0.16682 0.26187 0.0
C783 C 0.84579 0.15573 0.27117 0.0
H784 H 0.90638 0.35766 0.53389 0.0
H785 H 0.83403 0.4032 0.55016 0.0
H786 H 0.80583 0.36267 0.54315 0.0
H787 H 0.80248 0.31294 0.53551 0.0
H788 H 0.87452 0.26926 0.51668 0.0
H789 H 0.90185 0.31097 0.52087 0.0
C790 C 0.88437 0.35933 0.53533 0.0
C791 C 0.87267 0.38361 0.54304 0.0
C792 C 0.86813 0.33616 0.53085 0.0
C793 C 0.84397 0.38468 0.54494 0.0
C794 C 0.8277 0.36151 0.54079 0.0
C795 C 0.82407 0.31272 0.53204 0.0
C796 C 0.83654 0.28798 0.52608 0.0
C797 C 0.8397 0.33689 0.53432 0.0
C798 C 0.86442 0.28802 0.52133 0.0
C799 C 0.88012 0.31184 0.52383 0.0
H800 H 0.6497 0.16407 0.46251 0.0
H801 H 0.69313 0.08765 0.4538 0.0
H802 H 0.73259 0.1064 0.47215 0.0
H803 H 0.75491 0.14448 0.49081 0.0
H804 H 0.70949 0.21858 0.50272 0.0
H805 H 0.67034 0.20046 0.48332 0.0
C806 C 0.66746 0.15116 0.46491 0.0
C807 C 0.66827 0.12447 0.45652 0.0
C808 C 0.6898 0.16169 0.47606 0.0
C809 C 0.69195 0.10848 0.45959 0.0
C810 C 0.71455 0.1191 0.47025 0.0
C811 C 0.73643 0.15662 0.48906 0.0
C812 C 0.73505 0.18288 0.49793 0.0
C813 C 0.71376 0.14573 0.47844 0.0
C814 C 0.71092 0.19831 0.49595 0.0
C815 C 0.68859 0.18797 0.48487 0.0
H816 H 0.96413 0.19289 0.72829 0.0
H817 H 0.89953 0.13203 0.72504 0.0
H818 H 0.86888 0.16377 0.74172 0.0
H819 H 0.85896 0.21035 0.75463 0.0
H820 H 0.92188 0.27255 0.75358 0.0
H821 H 0.95426 0.23905 0.74056 0.0
C822 C 0.94328 0.18652 0.73099 0.0
C823 C 0.93431 0.16002 0.72519 0.0
C824 C 0.92523 0.20534 0.73958 0.0
C825 C 0.90738 0.15206 0.72953 0.0
C826 C 0.88961 0.17036 0.73886 0.0
C827 C 0.87981 0.21644 0.75163 0.0
C828 C 0.88805 0.24382 0.75496 0.0
C829 C 0.89812 0.19725 0.74357 0.0
C830 C 0.91503 0.2516 0.75093 0.0
C831 C 0.93358 0.23246 0.74357 0.0
H832 H 0.78736 0.44932 0.98242 0.0
H833 H 0.85809 0.40073 0.99844 0.0
H834 H 0.82831 0.36677 0.01256 0.0
H835 H 0.78188 0.34903 0.01836 0.0
H836 H 0.71149 0.39519 -0.00139 0.0
H837 H 0.74145 0.43134 0.98736 0.0
C838 C 0.79642 0.4312 0.98874 0.0
C839 C 0.82512 0.42781 0.98918 0.0
C840 C 0.77914 0.41099 0.99598 0.0
C841 C 0.83621 0.4044 0.9981 0.0
C842 C 0.81913 0.38468 0.006 0.0
C843 C 0.77316 0.36708 0.01166 0.0
C844 C 0.74454 0.36942 0.00929 0.0
C845 C 0.79055 0.38753 0.00474 0.0
C846 C 0.73348 0.3928 0.00046 0.0
C847 C 0.75058 0.41354 0.99409 0.0
H848 H 0.65172 0.37205 0.23711 0.0
H849 H 0.59122 0.31122 0.25161 0.0
H850 H 0.62708 0.27814 0.25718 0.0
H851 H 0.67419 0.26353 0.25234 0.0
H852 H 0.73409 0.32154 0.23306 0.0
H853 H 0.69987 0.35814 0.23444 0.0
C854 C 0.64618 0.35159 0.24142 0.0
C855 C 0.61834 0.34447 0.24353 0.0
C856 C 0.66689 0.33173 0.24337 0.0
C857 C 0.61215 0.31796 0.25 0.0
C858 C 0.63276 0.29862 0.25294 0.0
C859 C 0.67997 0.28427 0.24879 0.0
C860 C 0.70658 0.2897 0.2424 0.0
C861 C 0.65998 0.3049 0.24883 0.0
C862 C 0.71366 0.31673 0.23784 0.0
C863 C 0.69408 0.33766 0.2386 0.0
H864 H 0.19331 0.91307 0.37755 0.0
H865 H 0.14624 0.96293 0.41749 0.0
H866 H 0.15894 0.93287 0.44439 0.0
H867 H 0.18283 0.89199 0.45634 0.0
H868 H 0.22917 0.84174 0.41601 0.0
H869 H 0.2174 0.87246 0.3895 0.0
C870 C 0.18616 0.91755 0.39221 0.0
C871 C 0.16903 0.94025 0.39559 0.0
C872 C 0.19326 0.90003 0.40749 0.0
C873 C 0.15941 0.94551 0.41455 0.0
C874 C 0.16667 0.92835 0.42991 0.0
C875 C 0.19038 0.88774 0.44176 0.0
C876 C 0.20685 0.86453 0.43821 0.0
C877 C 0.18344 0.90544 0.42652 0.0
C878 C 0.21639 0.85937 0.41919 0.0
C879 C 0.20973 0.87696 0.404 0.0
H880 H 0.07707 0.63914 0.652 0.0
H881 H 0.13113 0.68219 0.61416 0.0
H882 H 0.1629 0.69152 0.64169 0.0
H883 H 0.17527 0.68761 0.67636 0.0
H884 H 0.1212 0.64514 0.71458 0.0
H885 H 0.08947 0.63547 0.68702 0.0
C886 C 0.09569 0.65077 0.64986 0.0
C887 C 0.1018 0.65989 0.6311 0.0
C888 C 0.11391 0.65606 0.66576 0.0
C889 C 0.12615 0.67466 0.62844 0.0
C890 C 0.14428 0.68008 0.64417 0.0
C891 C 0.15663 0.67611 0.67869 0.0
C892 C 0.15069 0.66708 0.69751 0.0
C893 C 0.13841 0.67079 0.66286 0.0
C894 C 0.12633 0.65233 0.70024 0.0
C895 C 0.10812 0.64682 0.6845 0.0
H896 H 0.39895 0.58033 0.91122 0.0
H897 H 0.43859 0.64691 0.88221 0.0
H898 H 0.42088 0.6794 0.90643 0.0
H899 H 0.39194 0.68927 0.93494 0.0
H900 H 0.35702 0.62205 0.96577 0.0
H901 H 0.37587 0.5893 0.94198 0.0
C902 C 0.40455 0.60176 0.91036 0.0
C903 C 0.41978 0.61096 0.89451 0.0
C904 C 0.39504 0.62031 0.92468 0.0
C905 C 0.42621 0.63911 0.89378 0.0
C906 C 0.41625 0.65779 0.90774 0.0
C907 C 0.38869 0.66742 0.93646 0.0
C908 C 0.3729 0.658 0.95186 0.0
C909 C 0.40016 0.64868 0.92302 0.0
C910 C 0.36912 0.62969 0.95398 0.0
C911 C 0.37982 0.611 0.94037 0.0
H912 H 0.40729 0.8801 0.15188 0.0
H913 H 0.41637 0.96025 0.17962 0.0
H914 H 0.39407 0.94383 0.20882 0.0
H915 H 0.37162 0.90671 0.22632 0.0
H916 H 0.36362 0.82646 0.19844 0.0
H917 H 0.38637 0.84288 0.16959 0.0
C918 C 0.40484 0.89391 0.16442 0.0
C919 C 0.41362 0.92136 0.16355 0.0
C920 C 0.39218 0.88432 0.18115 0.0
C921 C 0.4096 0.9391 0.1798 0.0
C922 C 0.39696 0.92969 0.19654 0.0
C923 C 0.3749 0.89279 0.21395 0.0
C924 C 0.36583 0.86539 0.21456 0.0
C925 C 0.38805 0.90236 0.19734 0.0
C926 C 0.37034 0.84764 0.19841 0.0
C927 C 0.38335 0.85701 0.18187 0.0
H928 H 0.10064 0.59487 0.8543 0.0
H929 H 0.0764 0.67248 0.88027 0.0
H930 H 0.08946 0.69594 0.85075 0.0
H931 H 0.11185 0.69498 0.81888 0.0
H932 H 0.13849 0.61756 0.79384 0.0
H933 H 0.12063 0.59357 0.82173 0.0
C934 C 0.09819 0.61692 0.8535 0.0
C935 C 0.08776 0.63188 0.86956 0.0
C936 C 0.10641 0.63038 0.8367 0.0
C937 C 0.08414 0.66038 0.86809 0.0
C938 C 0.09184 0.67387 0.85126 0.0
C939 C 0.11345 0.67283 0.8194 0.0
C940 C 0.12671 0.65814 0.80437 0.0
C941 C 0.10357 0.65916 0.83567 0.0
C942 C 0.12859 0.62942 0.80529 0.0
C943 C 0.11839 0.61565 0.82124 0.0
H944 H 0.35426 0.55829 0.09772 0.0
H945 H 0.41758 0.61562 0.11672 0.0
H946 H 0.40912 0.64255 0.08756 0.0
H947 H 0.38192 0.65134 0.0577 0.0
H948 H 0.31832 0.59423 0.03874 0.0
H949 H 0.32858 0.56585 0.06691 0.0
C950 C 0.36624 0.57665 0.09543 0.0
C951 C 0.38645 0.58497 0.10939 0.0
C952 C 0.36107 0.59221 0.07873 0.0
C953 C 0.4021 0.60858 0.1061 0.0
C954 C 0.39712 0.62414 0.08951 0.0
C955 C 0.37035 0.63264 0.05969 0.0
C956 C 0.34923 0.62506 0.04622 0.0
C957 C 0.37638 0.61638 0.07589 0.0
C958 C 0.33464 0.60061 0.04891 0.0
C959 C 0.34046 0.58436 0.06503 0.0
H960 H 0.4079 0.91166 0.35065 0.0
H961 H 0.38802 0.8534 0.39456 0.0
H962 H 0.36414 0.82444 0.36978 0.0
H963 H 0.3473 0.81678 0.33586 0.0
H964 H 0.36883 0.87418 0.29165 0.0
H965 H 0.39383 0.90228 0.31623 0.0
C966 C 0.3984 0.89255 0.35469 0.0
C967 C 0.3995 0.88463 0.37431 0.0
C968 C 0.38502 0.87591 0.34034 0.0
C969 C 0.38746 0.85974 0.37947 0.0
C970 C 0.37374 0.84328 0.36534 0.0
C971 C 0.35758 0.83537 0.33161 0.0
C972 C 0.35603 0.84348 0.31201 0.0
C973 C 0.37215 0.8513 0.34577 0.0
C974 C 0.36974 0.86745 0.30665 0.0
C975 C 0.38396 0.88361 0.3207 0.0
H976 H 0.17032 0.91569 0.61149 0.0
H977 H 0.09758 0.86898 0.59519 0.0
H978 H 0.11712 0.85704 0.56356 0.0
H979 H 0.15537 0.85876 0.54088 0.0
H980 H 0.22731 0.90686 0.55677 0.0
H981 H 0.20708 0.92005 0.58796 0.0
C982 C 0.15844 0.90331 0.60093 0.0
C983 C 0.13252 0.89314 0.60588 0.0
C984 C 0.16961 0.89685 0.58262 0.0
C985 C 0.11779 0.87669 0.59202 0.0
C986 C 0.12886 0.87 0.57383 0.0
C987 C 0.16656 0.8723 0.55109 0.0
C988 C 0.19291 0.88166 0.54651 0.0
C989 C 0.15485 0.87977 0.56905 0.0
C990 C 0.20701 0.89933 0.55988 0.0
C991 C 0.19551 0.90681 0.57778 0.0
H992 H 0.61235 0.365 0.88671 0.0
H993 H 0.62969 0.44264 0.91624 0.0
H994 H 0.63563 0.41954 0.94738 0.0
H995 H 0.63831 0.37716 0.96581 0.0
H996 H 0.62218 0.29929 0.93617 0.0
H997 H 0.6127 0.32273 0.90555 0.0
C998 C 0.61702 0.37691 0.90001 0.0
C999 C 0.6207 0.40549 0.89914 0.0
C1000 C 0.62057 0.36348 0.91784 0.0
C1001 C 0.62713 0.42058 0.91647 0.0
C1002 C 0.63039 0.4074 0.93429 0.0
C1003 C 0.63236 0.36529 0.95274 0.0
C1004 C 0.63104 0.33648 0.95329 0.0
C1005 C 0.62751 0.37883 0.9351 0.0
C1006 C 0.62343 0.32147 0.93615 0.0
C1007 C 0.61808 0.33486 0.91861 0.0
H1008 H 0.68669 0.13685 0.12002 0.0
H1009 H 0.68104 0.06637 0.15644 0.0
H1010 H 0.6998 0.09322 0.18461 0.0
H1011 H 0.71683 0.13717 0.19883 0.0
H1012 H 0.72514 0.20679 0.16166 0.0
H1013 H 0.70637 0.17992 0.13373 0.0
C1014 C 0.68974 0.12748 0.13415 0.0
C1015 C 0.68249 0.09991 0.13639 0.0
C1016 C 0.70089 0.14288 0.15005 0.0
C1017 C 0.68661 0.08764 0.15457 0.0
C1018 C 0.69721 0.10298 0.1706 0.0
C1019 C 0.71451 0.14642 0.18461 0.0
C1020 C 0.72213 0.17395 0.18231 0.0
C1021 C 0.70425 0.13068 0.16853 0.0
C1022 C 0.71942 0.18561 0.16376 0.0
C1023 C 0.70865 0.1703 0.14781 0.0
H1024 H 0.96806 0.17696 0.43701 0.0
H1025 H 0.90684 0.12601 0.40733 0.0
H1026 H 0.87545 0.13403 0.43419 0.0
H1027 H 0.86431 0.15786 0.4651 0.0
H1028 H 0.92551 0.20895 0.49478 0.0
H1029 H 0.95787 0.19864 0.46891 0.0
C1030 C 0.94787 0.16755 0.43649 0.0
C1031 C 0.93976 0.15101 0.42019 0.0
C1032 C 0.92983 0.17244 0.4519 0.0
C1033 C 0.91369 0.13861 0.41981 0.0
C1034 C 0.89564 0.14336 0.43509 0.0
C1035 C 0.88476 0.16665 0.46595 0.0
C1036 C 0.89237 0.18435 0.48176 0.0
C1037 C 0.90332 0.1606 0.45105 0.0
C1038 C 0.91906 0.19532 0.48275 0.0
C1039 C 0.9376 0.18948 0.46794 0.0
H1040 H 0.92411 0.38797 0.65405 0.0
H1041 H 0.94024 0.46964 0.67732 0.0
H1042 H 0.92396 0.45627 0.70936 0.0
H1043 H 0.9038 0.42146 0.7305 0.0
H1044 H 0.88778 0.34001 0.70642 0.0
H1045 H 0.90567 0.35319 0.67513 0.0
C1046 C 0.92457 0.40274 0.66621 0.0
C1047 C 0.93352 0.42971 0.6633 0.0
C1048 C 0.91505 0.39499 0.68448 0.0
C1049 C 0.93331 0.44877 0.67913 0.0
C1050 C 0.92405 0.44112 0.69747 0.0
C1051 C 0.90433 0.40659 0.71843 0.0
C1052 C 0.89431 0.37982 0.72088 0.0
C1053 C 0.9146 0.41432 0.70027 0.0
C1054 C 0.89519 0.36081 0.70503 0.0
C1055 C 0.90546 0.36829 0.68706 0.0
H1056 H 0.64163 0.14762 0.34297 0.0
H1057 H 0.60498 0.07871 0.31126 0.0
H1058 H 0.63024 0.09051 0.28198 0.0
H1059 H 0.66243 0.12108 0.26538 0.0
H1060 H 0.69873 0.18965 0.298 0.0
H1061 H 0.67372 0.17738 0.32685 0.0
C1062 C 0.63889 0.13534 0.32958 0.0
C1063 C 0.6212 0.11256 0.32919 0.0
C1064 C 0.65346 0.14218 0.31296 0.0
C1065 C 0.61848 0.09639 0.3119 0.0
C1066 C 0.63286 0.10317 0.29517 0.0
C1067 C 0.66488 0.1333 0.2788 0.0
C1068 C 0.68243 0.15631 0.27943 0.0
C1069 C 0.65039 0.1261 0.29552 0.0
C1070 C 0.68541 0.17185 0.29701 0.0
C1071 C 0.67107 0.16489 0.31357 0.0
H1072 H 0.88644 0.12652 0.6283 0.0
H1073 H 0.94129 0.10115 0.58265 0.0
H1074 H 0.91041 0.12069 0.55797 0.0
H1075 H 0.86983 0.14784 0.54977 0.0
H1076 H 0.81557 0.17459 0.59552 0.0
H1077 H 0.84407 0.15114 0.61977 0.0
C1078 C 0.89134 0.12477 0.61291 0.0
C1079 C 0.91611 0.11248 0.60728 0.0
C1080 C 0.87372 0.1364 0.59887 0.0
C1081 C 0.92244 0.11075 0.58733 0.0
C1082 C 0.9048 0.12188 0.57323 0.0
C1083 C 0.864 0.14834 0.56501 0.0
C1084 C 0.84068 0.16316 0.57082 0.0
C1085 C 0.88069 0.13524 0.5789 0.0
C1086 C 0.83347 0.16347 0.59064 0.0
C1087 C 0.84978 0.15011 0.60453 0.0
H1088 H 0.88169 0.39187 0.88863 0.0
H1089 H 0.91624 0.45497 0.8535 0.0
H1090 H 0.90781 0.4266 0.82387 0.0
H1091 H 0.88846 0.38476 0.80789 0.0
H1092 H 0.85416 0.32197 0.84356 0.0
H1093 H 0.86527 0.34918 0.87307 0.0
C1094 C 0.88795 0.39924 0.87457 0.0
C1095 C 0.89957 0.42553 0.87331 0.0
C1096 C 0.88302 0.3829 0.85766 0.0
C1097 C 0.90697 0.43493 0.85486 0.0
C1098 C 0.90224 0.41869 0.83793 0.0
C1099 C 0.88366 0.3769 0.82212 0.0
C1100 C 0.87031 0.35141 0.82344 0.0
C1101 C 0.88991 0.39278 0.83913 0.0
C1102 C 0.86428 0.34157 0.84204 0.0
C1103 C 0.8706 0.35712 0.85897 0.0
H1104 H 0.55839 0.3719 0.10764 0.0
H1105 H 0.60003 0.31761 0.14741 0.0
H1106 H 0.63182 0.30412 0.1219 0.0
H1107 H 0.6492 0.30932 0.0889 0.0
H1108 H 0.60755 0.36296 0.04868 0.0
H1109 H 0.57452 0.37534 0.07382 0.0
C1110 C 0.57436 0.35702 0.11064 0.0
C1111 C 0.57681 0.34575 0.12937 0.0
C1112 C 0.59273 0.34947 0.09593 0.0
C1113 C 0.59743 0.3263 0.13304 0.0
C1114 C 0.6158 0.31876 0.11852 0.0
C1115 C 0.63294 0.32378 0.08563 0.0
C1116 C 0.63101 0.33544 0.06703 0.0
C1117 C 0.61387 0.3305 0.10002 0.0
C1118 C 0.60953 0.35376 0.06292 0.0
C1119 C 0.59065 0.36085 0.07728 0.0
loop_
_geom_bond_atom_site_label_1
_geom_bond_atom_site_label_2
_geom_bond_distance
_geom_bond_site_symmetry_2
_ccdc_geom_bond_type
H0 C27 0.929 . S
N1 C26 1.433 . S
N1 C32 1.435 . S
N1 C38 1.423 . S
H2 C28 0.930 . S
H3 C31 0.931 . S
H4 C30 0.929 . S
H5 C33 0.930 . S
H6 C34 0.932 . S
H7 C37 0.929 . S
H8 C36 0.931 . S
H9 C39 0.928 . S
H10 C43 0.932 . S
H11 C40 0.931 . S
H12 C42 0.929 . S
H13 C45 0.929 . S
H14 C46 0.930 . S
H15 C48 0.929 . S
H16 C49 0.931 . S
H17 C51 0.930 . S
H18 C52 0.932 . S
H19 C54 0.931 . S
H20 C55 0.929 . S
H21 C57 0.929 . S
H22 C58 0.931 . S
H23 C60 0.929 . S
N24 C44 1.433 . S
N24 C50 1.435 . S
N24 C56 1.423 . S
H25 C61 0.932 . S
C26 N1 1.433 . S
C26 C27 1.363 . S
C26 C31 1.370 . S
C27 H0 0.929 . S
C27 C26 1.363 . S
C27 C28 1.385 . S
C28 H2 0.930 . S
C28 C27 1.385 . S
C28 C29 1.357 . S
C29 C28 1.357 . S
C29 C30 1.406 . S
C30 H4 0.929 . S
C30 C29 1.406 . S
C30 C31 1.391 . S
C31 H3 0.931 . S
C31 C26 1.370 . S
C31 C30 1.391 . S
C32 N1 1.435 . S
C32 C33 1.358 . S
C32 C37 1.371 . S
C33 H5 0.930 . S
C33 C32 1.358 . S
C33 C34 1.405 . S
C34 H6 0.932 . S
C34 C33 1.405 . S
C34 C35 1.383 . S
C35 C34 1.383 . S
C35 C36 1.393 . S
C36 H8 0.931 . S
C36 C35 1.393 . S
C36 C37 1.382 . S
C37 H7 0.929 . S
C37 C32 1.371 . S
C37 C36 1.382 . S
C38 N1 1.423 . S
C38 C39 1.365 1_565 S
C38 C43 1.388 . S
C39 H9 0.928 . S
C39 C38 1.365 1_545 S
C39 C40 1.374 . S
C40 H11 0.931 . S
C40 C39 1.374 . S
C40 C41 1.396 . S
C41 C40 1.396 . S
C41 C42 1.348 1_545 S
C41 C59 1.472 . S
C42 H12 0.929 . S
C42 C41 1.348 1_565 S
C42 C43 1.443 . S
C43 H10 0.932 . S
C43 C38 1.388 . S
C43 C42 1.443 . S
C44 N24 1.433 . S
C44 C45 1.363 . S
C44 C49 1.370 . S
C45 H13 0.929 . S
C45 C44 1.363 . S
C45 C46 1.385 . S
C46 H14 0.930 . S
C46 C45 1.385 . S
C46 C47 1.357 . S
C47 C46 1.357 . S
C47 C48 1.406 . S
C48 H15 0.929 . S
C48 C47 1.406 . S
C48 C49 1.391 . S
C49 H16 0.931 . S
C49 C44 1.370 . S
C49 C48 1.391 . S
C50 N24 1.435 . S
C50 C51 1.358 . S
C50 C55 1.371 . S
C51 H17 0.930 . S
C51 C50 1.358 . S
C51 C52 1.405 . S
C52 H18 0.932 . S
C52 C51 1.405 . S
C52 C53 1.383 . S
C53 C52 1.383 . S
C53 C54 1.393 . S
C54 H19 0.931 . S
C54 C53 1.393 . S
C54 C55 1.382 . S
C55 H20 0.929 . S
C55 C50 1.371 . S
C55 C54 1.382 . S
C56 N24 1.423 . S
C56 C57 1.362 1_655 S
C56 C61 1.388 . S
C57 H21 0.929 . S
C57 C56 1.362 1_455 S
C57 C58 1.376 . S
C58 H22 0.931 . S
C58 C57 1.376 . S
C58 C59 1.396 . S
C59 C41 1.472 . S
C59 C58 1.396 . S
C59 C60 1.348 . S
C60 H23 0.929 . S
C60 C59 1.348 . S
C60 C61 1.443 1_455 S
C61 H25 0.932 . S
C61 C56 1.388 . S
C61 C60 1.443 1_655 S
H62 C89 0.929 . S
N63 C88 1.433 . S
N63 C94 1.435 . S
N63 C100 1.423 . S
H64 C90 0.930 . S
H65 C93 0.931 . S
H66 C92 0.929 . S
H67 C95 0.930 . S
H68 C96 0.932 . S
H69 C99 0.929 . S
H70 C98 0.931 . S
H71 C101 0.929 1_455 S
H72 C105 0.932 . S
H73 C102 0.931 . S
H74 C104 0.929 . S
H75 C107 0.929 . S
H76 C108 0.930 . S
H77 C110 0.929 . S
H78 C111 0.931 . S
H79 C113 0.930 . S
H80 C114 0.932 . S
H81 C116 0.931 . S
H82 C117 0.929 . S
H83 C119 0.929 . S
H84 C120 0.931 . S
H85 C122 0.929 . S
N86 C106 1.433 . S
N86 C112 1.435 . S
N86 C118 1.423 . S
H87 C123 0.932 . S
C88 N63 1.433 . S
C88 C89 1.363 . S
C88 C93 1.370 . S
C89 H62 0.929 . S
C89 C88 1.363 . S
C89 C90 1.385 . S
C90 H64 0.930 . S
C90 C89 1.385 . S
C90 C91 1.357 . S
C91 C90 1.357 . S
C91 C92 1.406 . S
C92 H66 0.929 . S
C92 C91 1.406 . S
C92 C93 1.391 . S
C93 H65 0.931 . S
C93 C88 1.370 . S
C93 C92 1.391 . S
C94 N63 1.435 . S
C94 C95 1.358 . S
C94 C99 1.371 . S
C95 H67 0.930 . S
C95 C94 1.358 . S
C95 C96 1.405 . S
C96 H68 0.932 . S
C96 C95 1.405 . S
C96 C97 1.383 . S
C97 C96 1.383 . S
C97 C98 1.393 . S
C98 H70 0.931 . S
C98 C97 1.393 . S
C98 C99 1.382 . S
C99 H69 0.929 . S
C99 C94 1.371 . S
C99 C98 1.382 . S
C100 N63 1.423 . S
C100 C101 1.362 . S
C100 C105 1.388 . S
C101 H71 0.929 1_655 S
C101 C100 1.362 . S
C101 C102 1.376 1_655 S
C102 H73 0.931 . S
C102 C101 1.376 1_455 S
C102 C103 1.396 . S
C103 C102 1.396 . S
C103 C104 1.348 1_455 S
C103 C121 1.472 . S
C104 H74 0.929 . S
C104 C103 1.348 1_655 S
C104 C105 1.443 . S
C105 H72 0.932 . S
C105 C100 1.388 . S
C105 C104 1.443 . S
C106 N86 1.433 . S
C106 C107 1.363 . S
C106 C111 1.370 . S
C107 H75 0.929 . S
C107 C106 1.363 . S
C107 C108 1.385 . S
C108 H76 0.930 . S
C108 C107 1.385 . S
C108 C109 1.357 . S
C109 C108 1.357 . S
C109 C110 1.406 . S
C110 H77 0.929 . S
C110 C109 1.406 . S
C110 C111 1.391 . S
C111 H78 0.931 . S
C111 C106 1.370 . S
C111 C110 1.391 . S
C112 N86 1.435 . S
C112 C113 1.358 . S
C112 C117 1.371 . S
C113 H79 0.930 . S
C113 C112 1.358 . S
C113 C114 1.405 . S
C114 H80 0.932 . S
C114 C113 1.405 . S
C114 C115 1.383 . S
C115 C114 1.383 . S
C115 C116 1.393 . S
C116 H81 0.931 . S
C116 C115 1.393 . S
C116 C117 1.382 . S
C117 H82 0.929 . S
C117 C112 1.371 . S
C117 C116 1.382 . S
C118 N86 1.423 . S
C118 C119 1.362 . S
C118 C123 1.388 . S
C119 H83 0.929 . S
C119 C118 1.362 . S
C119 C120 1.376 . S
C120 H84 0.931 . S
C120 C119 1.376 . S
C120 C121 1.396 . S
C121 C103 1.472 . S
C121 C120 1.396 . S
C121 C122 1.348 . S
C122 H85 0.929 . S
C122 C121 1.348 . S
C122 C123 1.443 . S
C123 H87 0.932 . S
C123 C118 1.388 . S
C123 C122 1.443 . S
H124 C151 0.929 . S
N125 C150 1.433 . S
N125 C156 1.435 . S
N125 C162 1.423 . S
H126 C152 0.930 . S
H127 C155 0.931 . S
H128 C154 0.929 . S
H129 C157 0.930 . S
H130 C158 0.932 . S
H131 C161 0.929 . S
H132 C160 0.931 . S
H133 C163 0.929 . S
H134 C167 0.932 . S
H135 C164 0.931 . S
H136 C166 0.929 . S
H137 C169 0.929 . S
H138 C170 0.930 . S
H139 C172 0.929 . S
H140 C173 0.931 . S
H141 C175 0.930 . S
H142 C176 0.932 . S
H143 C178 0.931 . S
H144 C179 0.929 . S
H145 C181 0.929 . S
H146 C182 0.931 . S
H147 C184 0.929 . S
N148 C168 1.433 . S
N148 C174 1.435 . S
N148 C180 1.423 . S
H149 C185 0.932 . S
C150 N125 1.433 . S
C150 C151 1.363 . S
C150 C155 1.370 . S
C151 H124 0.929 . S
C151 C150 1.363 . S
C151 C152 1.385 . S
C152 H126 0.930 . S
C152 C151 1.385 . S
C152 C153 1.357 . S
C153 C152 1.357 . S
C153 C154 1.406 . S
C154 H128 0.929 . S
C154 C153 1.406 . S
C154 C155 1.391 . S
C155 H127 0.931 . S
C155 C150 1.370 . S
C155 C154 1.391 . S
C156 N125 1.435 . S
C156 C157 1.358 . S
C156 C161 1.371 . S
C157 H129 0.930 . S
C157 C156 1.358 . S
C157 C158 1.405 . S
C158 H130 0.932 . S
C158 C157 1.405 . S
C158 C159 1.383 . S
C159 C158 1.383 . S
C159 C160 1.393 . S
C160 H132 0.931 . S
C160 C159 1.393 . S
C160 C161 1.382 . S
C161 H131 0.929 . S
C161 C156 1.371 . S
C161 C160 1.382 . S
C162 N125 1.423 . S
C162 C163 1.362 . S
C162 C167 1.388 . S
C163 H133 0.929 . S
C163 C162 1.362 . S
C163 C164 1.376 . S
C164 H135 0.931 . S
C164 C163 1.376 . S
C164 C165 1.396 . S
C165 C164 1.396 . S
C165 C166 1.348 . S
C165 C183 1.472 . S
C166 H136 0.929 . S
C166 C165 1.348 . S
C166 C167 1.443 . S
C167 H134 0.932 . S
C167 C162 1.388 . S
C167 C166 1.443 . S
C168 N148 1.433 . S
C168 C169 1.363 . S
C168 C173 1.370 . S
C169 H137 0.929 . S
C169 C168 1.363 . S
C169 C170 1.385 . S
C170 H138 0.930 . S
C170 C169 1.385 . S
C170 C171 1.357 . S
C171 C170 1.357 . S
C171 C172 1.406 . S
C172 H139 0.929 . S
C172 C171 1.406 . S
C172 C173 1.391 . S
C173 H140 0.931 . S
C173 C168 1.370 . S
C173 C172 1.391 . S
C174 N148 1.435 . S
C174 C175 1.358 . S
C174 C179 1.371 . S
C175 H141 0.930 . S
C175 C174 1.358 . S
C175 C176 1.405 . S
C176 H142 0.932 . S
C176 C175 1.405 . S
C176 C177 1.383 . S
C177 C176 1.383 . S
C177 C178 1.393 . S
C178 H143 0.931 . S
C178 C177 1.393 . S
C178 C179 1.382 . S
C179 H144 0.929 . S
C179 C174 1.371 . S
C179 C178 1.382 . S
C180 N148 1.423 . S
C180 C181 1.362 . S
C180 C185 1.388 . S
C181 H145 0.929 . S
C181 C180 1.362 . S
C181 C182 1.376 . S
C182 H146 0.931 . S
C182 C181 1.376 . S
C182 C183 1.396 . S
C183 C165 1.472 . S
C183 C182 1.396 . S
C183 C184 1.348 . S
C184 H147 0.929 . S
C184 C183 1.348 . S
C184 C185 1.443 . S
C185 H149 0.932 . S
C185 C180 1.388 . S
C185 C184 1.443 . S
H186 C213 0.929 . S
N187 C212 1.433 . S
N187 C218 1.435 . S
N187 C224 1.423 . S
H188 C214 0.930 . S
H189 C217 0.931 . S
H190 C216 0.929 . S
H191 C219 0.930 . S
H192 C220 0.932 . S
H193 C223 0.929 . S
H194 C222 0.931 . S
H195 C225 0.929 . S
H196 C229 0.932 . S
H197 C226 0.931 . S
H198 C228 0.929 . S
H199 C231 0.929 . S
H200 C232 0.930 . S
H201 C234 0.929 . S
H202 C235 0.931 . S
H203 C237 0.930 . S
H204 C238 0.932 . S
H205 C240 0.931 . S
H206 C241 0.929 . S
H207 C243 0.929 . S
H208 C244 0.931 1_565 S
H209 C246 0.929 . S
N210 C230 1.433 . S
N210 C236 1.435 . S
N210 C242 1.423 . S
H211 C247 0.932 . S
C212 N187 1.433 . S
C212 C213 1.363 . S
C212 C217 1.370 . S
C213 H186 0.929 . S
C213 C212 1.363 . S
C213 C214 1.385 . S
C214 H188 0.930 . S
C214 C213 1.385 . S
C214 C215 1.357 . S
C215 C214 1.357 . S
C215 C216 1.406 . S
C216 H190 0.929 . S
C216 C215 1.406 . S
C216 C217 1.391 . S
C217 H189 0.931 . S
C217 C212 1.370 . S
C217 C216 1.391 . S
C218 N187 1.435 . S
C218 C219 1.358 . S
C218 C223 1.371 . S
C219 H191 0.930 . S
C219 C218 1.358 . S
C219 C220 1.405 . S
C220 H192 0.932 . S
C220 C219 1.405 . S
C220 C221 1.383 . S
C221 C220 1.383 . S
C221 C222 1.393 . S
C222 H194 0.931 . S
C222 C221 1.393 . S
C222 C223 1.382 . S
C223 H193 0.929 . S
C223 C218 1.371 . S
C223 C222 1.382 . S
C224 N187 1.423 . S
C224 C225 1.362 . S
C224 C229 1.388 . S
C225 H195 0.929 . S
C225 C224 1.362 . S
C225 C226 1.376 . S
C226 H197 0.931 . S
C226 C225 1.376 . S
C226 C227 1.396 . S
C227 C226 1.396 . S
C227 C228 1.348 . S
C227 C245 1.472 1_565 S
C228 H198 0.929 . S
C228 C227 1.348 . S
C228 C229 1.443 . S
C229 H196 0.932 . S
C229 C224 1.388 . S
C229 C228 1.443 . S
C230 N210 1.433 . S
C230 C231 1.363 . S
C230 C235 1.370 . S
C231 H199 0.929 . S
C231 C230 1.363 . S
C231 C232 1.385 . S
C232 H200 0.930 . S
C232 C231 1.385 . S
C232 C233 1.357 . S
C233 C232 1.357 . S
C233 C234 1.406 . S
C234 H201 0.929 . S
C234 C233 1.406 . S
C234 C235 1.391 . S
C235 H202 0.931 . S
C235 C230 1.370 . S
C235 C234 1.391 . S
C236 N210 1.435 . S
C236 C237 1.358 . S
C236 C241 1.371 . S
C237 H203 0.930 . S
C237 C236 1.358 . S
C237 C238 1.405 . S
C238 H204 0.932 . S
C238 C237 1.405 . S
C238 C239 1.383 . S
C239 C238 1.383 . S
C239 C240 1.393 . S
C240 H205 0.931 . S
C240 C239 1.393 . S
C240 C241 1.382 . S
C241 H206 0.929 . S
C241 C236 1.371 . S
C241 C240 1.382 . S
C242 N210 1.423 . S
C242 C243 1.362 . S
C242 C247 1.388 . S
C243 H207 0.929 . S
C243 C242 1.362 . S
C243 C244 1.376 . S
C244 H208 0.931 1_545 S
C244 C243 1.376 . S
C244 C245 1.396 . S
C245 C227 1.472 1_545 S
C245 C244 1.396 . S
C245 C246 1.348 . S
C246 H209 0.929 . S
C246 C245 1.348 . S
C246 C247 1.443 . S
C247 H211 0.932 . S
C247 C242 1.388 . S
C247 C246 1.443 . S
H248 C275 0.929 . S
N249 C274 1.433 . S
N249 C280 1.435 . S
N249 C286 1.423 . S
H250 C276 0.930 . S
H251 C279 0.931 . S
H252 C278 0.929 . S
H253 C281 0.930 . S
H254 C282 0.932 . S
H255 C285 0.929 . S
H256 C284 0.916 1_554 S
H257 C287 0.929 . S
H258 C291 0.932 . S
H259 C288 0.931 . S
H260 C290 0.929 . S
H261 C293 0.929 . S
H262 C294 0.930 . S
H263 C296 0.929 . S
H264 C297 0.931 . S
H265 C299 0.930 . S
H266 C300 0.932 . S
H267 C302 0.931 1_554 S
H268 C303 0.929 . S
H269 C305 0.929 . S
H270 C306 0.931 1_455 S
H271 C308 0.929 . S
N272 C292 1.433 . S
N272 C298 1.435 . S
N272 C304 1.423 . S
H273 C309 0.932 . S
C274 N249 1.433 . S
C274 C275 1.363 . S
C274 C279 1.370 . S
C275 H248 0.929 . S
C275 C274 1.363 . S
C275 C276 1.385 . S
C276 H250 0.930 . S
C276 C275 1.385 . S
C276 C277 1.357 . S
C277 C276 1.357 . S
C277 C278 1.406 . S
C278 H252 0.929 . S
C278 C277 1.406 . S
C278 C279 1.391 . S
C279 H251 0.931 . S
C279 C274 1.370 . S
C279 C278 1.391 . S
C280 N249 1.435 . S
C280 C281 1.358 . S
C280 C285 1.371 . S
C281 H253 0.930 . S
C281 C280 1.358 . S
C281 C282 1.405 . S
C282 H254 0.932 . S
C282 C281 1.405 . S
C282 C283 1.361 1_556 S
C283 C282 1.361 1_554 S
C283 C284 1.393 1_554 S
C284 H256 0.916 1_556 S
C284 C283 1.393 1_556 S
C284 C285 1.397 . S
C285 H255 0.929 . S
C285 C280 1.371 . S
C285 C284 1.397 . S
C286 N249 1.423 . S
C286 C287 1.362 . S
C286 C291 1.388 . S
C287 H257 0.929 . S
C287 C286 1.362 . S
C287 C288 1.376 . S
C288 H259 0.931 . S
C288 C287 1.376 . S
C288 C289 1.396 . S
C289 C288 1.396 . S
C289 C290 1.348 . S
C289 C307 1.472 . S
C290 H260 0.929 . S
C290 C289 1.348 . S
C290 C291 1.443 . S
C291 H258 0.932 . S
C291 C286 1.388 . S
C291 C290 1.443 . S
C292 N272 1.433 . S
C292 C293 1.363 . S
C292 C297 1.370 . S
C293 H261 0.929 . S
C293 C292 1.363 . S
C293 C294 1.385 . S
C294 H262 0.930 . S
C294 C293 1.385 . S
C294 C295 1.357 . S
C295 C294 1.357 . S
C295 C296 1.406 . S
C296 H263 0.929 . S
C296 C295 1.406 . S
C296 C297 1.391 . S
C297 H264 0.931 . S
C297 C292 1.370 . S
C297 C296 1.391 . S
C298 N272 1.435 . S
C298 C299 1.358 . S
C298 C303 1.371 . S
C299 H265 0.930 . S
C299 C298 1.358 . S
C299 C300 1.405 . S
C300 H266 0.932 . S
C300 C299 1.405 . S
C300 C301 1.383 . S
C301 C300 1.383 . S
C301 C302 1.393 . S
C302 H267 0.931 1_556 S
C302 C301 1.393 . S
C302 C303 1.382 . S
C303 H268 0.929 . S
C303 C298 1.371 . S
C303 C302 1.382 . S
C304 N272 1.423 . S
C304 C305 1.362 . S
C304 C309 1.388 . S
C305 H269 0.929 . S
C305 C304 1.362 . S
C305 C306 1.376 . S
C306 H270 0.931 1_655 S
C306 C305 1.376 . S
C306 C307 1.396 1_655 S
C307 C289 1.472 . S
C307 C306 1.396 1_455 S
C307 C308 1.348 1_455 S
C308 H271 0.929 . S
C308 C307 1.348 1_655 S
C308 C309 1.443 . S
C309 H273 0.932 . S
C309 C304 1.388 . S
C309 C308 1.443 . S
H310 C337 0.929 . S
N311 C336 1.433 . S
N311 C342 1.435 . S
N311 C348 1.423 . S
H312 C338 0.930 . S
H313 C341 0.931 . S
H314 C340 0.929 . S
H315 C343 0.930 . S
H316 C344 0.932 . S
H317 C347 0.929 . S
H318 C346 0.931 . S
H319 C349 0.929 . S
H320 C353 0.932 . S
H321 C350 0.931 . S
H322 C352 0.929 . S
H323 C355 0.929 . S
H324 C356 0.930 . S
H325 C358 0.929 . S
H326 C359 0.931 . S
H327 C361 0.930 . S
H328 C362 0.932 . S
H329 C364 0.931 . S
H330 C365 0.929 . S
H331 C367 0.929 . S
H332 C368 0.931 . S
H333 C370 0.929 . S
N334 C354 1.433 . S
N334 C360 1.435 . S
N334 C366 1.423 . S
H335 C371 0.932 . S
C336 N311 1.433 . S
C336 C337 1.363 . S
C336 C341 1.370 . S
C337 H310 0.929 . S
C337 C336 1.363 . S
C337 C338 1.385 . S
C338 H312 0.930 . S
C338 C337 1.385 . S
C338 C339 1.357 . S
C339 C338 1.357 . S
C339 C340 1.406 . S
C340 H314 0.929 . S
C340 C339 1.406 . S
C340 C341 1.391 . S
C341 H313 0.931 . S
C341 C336 1.370 . S
C341 C340 1.391 . S
C342 N311 1.435 . S
C342 C343 1.358 . S
C342 C347 1.371 . S
C343 H315 0.930 . S
C343 C342 1.358 . S
C343 C344 1.405 . S
C344 H316 0.932 . S
C344 C343 1.405 . S
C344 C345 1.383 . S
C345 C344 1.383 . S
C345 C346 1.393 . S
C346 H318 0.931 . S
C346 C345 1.393 . S
C346 C347 1.382 . S
C347 H317 0.929 . S
C347 C342 1.371 . S
C347 C346 1.382 . S
C348 N311 1.423 . S
C348 C349 1.362 . S
C348 C353 1.388 . S
C349 H319 0.929 . S
C349 C348 1.362 . S
C349 C350 1.376 . S
C350 H321 0.931 . S
C350 C349 1.376 . S
C350 C351 1.396 . S
C351 C350 1.396 . S
C351 C352 1.348 . S
C351 C369 1.472 . S
C352 H322 0.929 . S
C352 C351 1.348 . S
C352 C353 1.443 . S
C353 H320 0.932 . S
C353 C348 1.388 . S
C353 C352 1.443 . S
C354 N334 1.433 . S
C354 C355 1.363 . S
C354 C359 1.370 . S
C355 H323 0.929 . S
C355 C354 1.363 . S
C355 C356 1.385 . S
C356 H324 0.930 . S
C356 C355 1.385 . S
C356 C357 1.357 . S
C357 C356 1.357 . S
C357 C358 1.406 . S
C358 H325 0.929 . S
C358 C357 1.406 . S
C358 C359 1.391 . S
C359 H326 0.931 . S
C359 C354 1.370 . S
C359 C358 1.391 . S
C360 N334 1.435 . S
C360 C361 1.358 . S
C360 C365 1.371 . S
C361 H327 0.930 . S
C361 C360 1.358 . S
C361 C362 1.405 . S
C362 H328 0.932 . S
C362 C361 1.405 . S
C362 C363 1.383 . S
C363 C362 1.383 . S
C363 C364 1.393 . S
C364 H329 0.931 . S
C364 C363 1.393 . S
C364 C365 1.382 . S
C365 H330 0.929 . S
C365 C360 1.371 . S
C365 C364 1.382 . S
C366 N334 1.423 . S
C366 C367 1.362 . S
C366 C371 1.388 . S
C367 H331 0.929 . S
C367 C366 1.362 . S
C367 C368 1.376 . S
C368 H332 0.931 . S
C368 C367 1.376 . S
C368 C369 1.396 . S
C369 C351 1.472 . S
C369 C368 1.396 . S
C369 C370 1.348 . S
C370 H333 0.929 . S
C370 C369 1.348 . S
C370 C371 1.443 . S
C371 H335 0.932 . S
C371 C366 1.388 . S
C371 C370 1.443 . S
H372 C399 0.929 . S
N373 C398 1.433 . S
N373 C404 1.435 . S
N373 C410 1.423 . S
H374 C400 0.930 . S
H375 C403 0.931 . S
H376 C402 0.929 . S
H377 C405 0.930 . S
H378 C406 0.932 . S
H379 C409 0.929 . S
H380 C408 0.931 . S
H381 C411 0.928 1_545 S
H382 C415 0.932 . S
H383 C412 0.931 . S
H384 C414 0.929 . S
H385 C417 0.929 . S
H386 C418 0.930 . S
H387 C420 0.929 . S
H388 C421 0.931 . S
H389 C423 0.930 . S
H390 C424 0.932 . S
H391 C426 0.931 . S
H392 C427 0.929 . S
H393 C429 0.929 . S
H394 C430 0.931 . S
H395 C432 0.929 . S
N396 C416 1.433 . S
N396 C422 1.435 . S
N396 C428 1.423 . S
H397 C433 0.932 . S
C398 N373 1.433 . S
C398 C399 1.363 . S
C398 C403 1.370 . S
C399 H372 0.929 . S
C399 C398 1.363 . S
C399 C400 1.385 . S
C400 H374 0.930 . S
C400 C399 1.385 . S
C400 C401 1.357 . S
C401 C400 1.357 . S
C401 C402 1.406 . S
C402 H376 0.929 . S
C402 C401 1.406 . S
C402 C403 1.391 . S
C403 H375 0.931 . S
C403 C398 1.370 . S
C403 C402 1.391 . S
C404 N373 1.435 . S
C404 C405 1.358 . S
C404 C409 1.371 . S
C405 H377 0.930 . S
C405 C404 1.358 . S
C405 C406 1.405 . S
C406 H378 0.932 . S
C406 C405 1.405 . S
C406 C407 1.383 . S
C407 C406 1.383 . S
C407 C408 1.393 . S
C408 H380 0.931 . S
C408 C407 1.393 . S
C408 C409 1.382 . S
C409 H379 0.929 . S
C409 C404 1.371 . S
C409 C408 1.382 . S
C410 N373 1.423 . S
C410 C411 1.367 . S
C410 C415 1.388 . S
C411 H381 0.928 1_565 S
C411 C410 1.367 . S
C411 C412 1.372 1_565 S
C412 H383 0.931 . S
C412 C411 1.372 1_545 S
C412 C413 1.396 . S
C413 C412 1.396 . S
C413 C414 1.348 1_545 S
C413 C431 1.472 . S
C414 H384 0.929 . S
C414 C413 1.348 1_565 S
C414 C415 1.443 . S
C415 H382 0.932 . S
C415 C410 1.388 . S
C415 C414 1.443 . S
C416 N396 1.433 . S
C416 C417 1.363 . S
C416 C421 1.370 . S
C417 H385 0.929 . S
C417 C416 1.363 . S
C417 C418 1.385 . S
C418 H386 0.930 . S
C418 C417 1.385 . S
C418 C419 1.357 . S
C419 C418 1.357 . S
C419 C420 1.406 . S
C420 H387 0.929 . S
C420 C419 1.406 . S
C420 C421 1.391 . S
C421 H388 0.931 . S
C421 C416 1.370 . S
C421 C420 1.391 . S
C422 N396 1.435 . S
C422 C423 1.358 . S
C422 C427 1.371 . S
C423 H389 0.930 . S
C423 C422 1.358 . S
C423 C424 1.405 . S
C424 H390 0.932 . S
C424 C423 1.405 . S
C424 C425 1.383 . S
C425 C424 1.383 . S
C425 C426 1.393 . S
C426 H391 0.931 . S
C426 C425 1.393 . S
C426 C427 1.382 . S
C427 H392 0.929 . S
C427 C422 1.371 . S
C427 C426 1.382 . S
C428 N396 1.423 . S
C428 C429 1.362 . S
C428 C433 1.388 . S
C429 H393 0.929 . S
C429 C428 1.362 . S
C429 C430 1.376 . S
C430 H394 0.931 . S
C430 C429 1.376 . S
C430 C431 1.396 . S
C431 C413 1.472 . S
C431 C430 1.396 . S
C431 C432 1.348 . S
C432 H395 0.929 . S
C432 C431 1.348 . S
C432 C433 1.443 . S
C433 H397 0.932 . S
C433 C428 1.388 . S
C433 C432 1.443 . S
H434 C461 0.929 . S
N435 C460 1.433 . S
N435 C466 1.435 . S
N435 C472 1.423 . S
H436 C462 0.930 . S
H437 C465 0.931 . S
H438 C464 0.929 . S
H439 C467 0.930 . S
H440 C468 0.932 . S
H441 C471 0.929 . S
H442 C470 0.931 . S
H443 C473 0.929 . S
H444 C477 0.932 . S
H445 C474 0.931 1_655 S
H446 C476 0.929 . S
H447 C479 0.929 . S
H448 C480 0.930 . S
H449 C482 0.929 . S
H450 C483 0.931 . S
H451 C485 0.930 . S
H452 C486 0.932 . S
H453 C488 0.931 . S
H454 C489 0.929 . S
H455 C491 0.929 . S
H456 C492 0.931 . S
H457 C494 0.912 1_455 S
N458 C478 1.433 . S
N458 C484 1.435 . S
N458 C490 1.423 . S
H459 C495 0.932 . S
C460 N435 1.433 . S
C460 C461 1.363 . S
C460 C465 1.370 . S
C461 H434 0.929 . S
C461 C460 1.363 . S
C461 C462 1.385 . S
C462 H436 0.930 . S
C462 C461 1.385 . S
C462 C463 1.357 . S
C463 C462 1.357 . S
C463 C464 1.406 . S
C464 H438 0.929 . S
C464 C463 1.406 . S
C464 C465 1.391 . S
C465 H437 0.931 . S
C465 C460 1.370 . S
C465 C464 1.391 . S
C466 N435 1.435 . S
C466 C467 1.358 . S
C466 C471 1.371 . S
C467 H439 0.930 . S
C467 C466 1.358 . S
C467 C468 1.405 . S
C468 H440 0.932 . S
C468 C467 1.405 . S
C468 C469 1.383 . S
C469 C468 1.383 . S
C469 C470 1.393 . S
C470 H442 0.931 . S
C470 C469 1.393 . S
C470 C471 1.382 . S
C471 H441 0.929 . S
C471 C466 1.371 . S
C471 C470 1.382 . S
C472 N435 1.423 . S
C472 C473 1.362 . S
C472 C477 1.388 . S
C473 H443 0.929 . S
C473 C472 1.362 . S
C473 C474 1.376 . S
C474 H445 0.931 1_455 S
C474 C473 1.376 . S
C474 C475 1.396 1_565 S
C475 C474 1.396 1_545 S
C475 C476 1.348 . S
C475 C493 1.472 1_455 S
C476 H446 0.929 . S
C476 C475 1.348 . S
C476 C477 1.443 1_545 S
C477 H444 0.932 . S
C477 C472 1.388 . S
C477 C476 1.443 1_565 S
C478 N458 1.433 . S
C478 C479 1.363 . S
C478 C483 1.370 . S
C479 H447 0.929 . S
C479 C478 1.363 . S
C479 C480 1.385 . S
C480 H448 0.930 . S
C480 C479 1.385 . S
C480 C481 1.357 . S
C481 C480 1.357 . S
C481 C482 1.406 . S
C482 H449 0.929 . S
C482 C481 1.406 . S
C482 C483 1.391 . S
C483 H450 0.931 . S
C483 C478 1.370 . S
C483 C482 1.391 . S
C484 N458 1.435 . S
C484 C485 1.358 . S
C484 C489 1.371 . S
C485 H451 0.930 . S
C485 C484 1.358 . S
C485 C486 1.405 . S
C486 H452 0.932 . S
C486 C485 1.405 . S
C486 C487 1.383 . S
C487 C486 1.383 . S
C487 C488 1.393 . S
C488 H453 0.931 . S
C488 C487 1.393 . S
C488 C489 1.382 . S
C489 H454 0.929 . S
C489 C484 1.371 . S
C489 C488 1.382 . S
C490 N458 1.423 . S
C490 C491 1.362 . S
C490 C495 1.388 . S
C491 H455 0.929 . S
C491 C490 1.362 . S
C491 C492 1.376 . S
C492 H456 0.931 . S
C492 C491 1.376 . S
C492 C493 1.396 . S
C493 C475 1.472 1_655 S
C493 C492 1.396 . S
C493 C494 1.350 . S
C494 H457 0.912 1_655 S
C494 C493 1.350 . S
C494 C495 1.458 . S
C495 H459 0.932 . S
C495 C490 1.388 . S
C495 C494 1.458 . S
Zn496 O499 2.031 . S
Zn496 O501 2.049 . S
Zn496 O506 2.067 . S
Zn497 O498 1.962 . S
Zn497 O500 1.986 . S
Zn497 O502 1.996 . S
Zn497 O505 1.919 1_554 S
O498 Zn497 1.962 . S
O498 C503 1.254 . S
O499 Zn496 2.031 . S
O499 C503 1.269 1_556 S
O500 Zn497 1.986 . S
O500 C507 1.262 . S
O501 Zn496 2.049 . S
O501 C509 1.260 1_556 S
O502 Zn497 1.996 . S
O502 C509 1.257 . S
C503 O498 1.254 . S
C503 O499 1.269 1_554 S
C504 O505 1.278 . S
C504 O506 1.270 . S
O505 Zn497 1.919 1_556 S
O505 C504 1.278 . S
O506 Zn496 2.067 . S
O506 C504 1.270 . S
C507 O500 1.262 . S
C507 O508 1.232 . S
O508 C507 1.232 . S
C509 O501 1.260 1_554 S
C509 O502 1.257 . S
Zn510 O513 2.031 . S
Zn510 O515 2.049 . S
Zn510 O520 2.067 . S
Zn511 O512 1.962 . S
Zn511 O514 1.986 . S
Zn511 O516 1.996 . S
Zn511 O519 1.943 . S
O512 Zn511 1.962 . S
O512 C517 1.254 . S
O513 Zn510 2.031 . S
O513 C517 1.269 . S
O514 Zn511 1.986 . S
O514 C521 1.262 . S
O515 Zn510 2.049 . S
O515 C523 1.260 . S
O516 Zn511 1.996 . S
O516 C523 1.257 . S
C517 O512 1.254 . S
C517 O513 1.269 . S
C518 O519 1.249 . S
C518 O520 1.270 . S
O519 Zn511 1.943 . S
O519 C518 1.249 . S
O520 Zn510 2.067 . S
O520 C518 1.270 . S
C521 O514 1.262 . S
C521 O522 1.232 . S
O522 C521 1.232 . S
C523 O515 1.260 . S
C523 O516 1.257 . S
Zn524 O527 2.031 . S
Zn524 O529 2.049 . S
Zn524 O534 2.067 . S
Zn525 O526 1.962 . S
Zn525 O528 1.986 . S
Zn525 O530 1.996 . S
Zn525 O533 1.943 . S
O526 Zn525 1.962 . S
O526 C531 1.254 . S
O527 Zn524 2.031 . S
O527 C531 1.269 . S
O528 Zn525 1.986 . S
O528 C535 1.262 . S
O529 Zn524 2.049 . S
O529 C537 1.260 . S
O530 Zn525 1.996 . S
O530 C537 1.257 . S
C531 O526 1.254 . S
C531 O527 1.269 . S
C532 O533 1.249 . S
C532 O534 1.270 . S
O533 Zn525 1.943 . S
O533 C532 1.249 . S
O534 Zn524 2.067 . S
O534 C532 1.270 . S
C535 O528 1.262 . S
C535 O536 1.232 . S
O536 C535 1.232 . S
C537 O529 1.260 . S
C537 O530 1.257 . S
Zn538 O541 2.031 . S
Zn538 O543 2.049 . S
Zn538 O548 2.067 . S
Zn539 O540 1.962 . S
Zn539 O542 1.986 . S
Zn539 O544 1.996 . S
Zn539 O547 1.943 . S
O540 Zn539 1.962 . S
O540 C545 1.254 . S
O541 Zn538 2.031 . S
O541 C545 1.269 . S
O542 Zn539 1.986 . S
O542 C549 1.262 . S
O543 Zn538 2.049 . S
O543 C551 1.260 . S
O544 Zn539 1.996 . S
O544 C551 1.257 . S
C545 O540 1.254 . S
C545 O541 1.269 . S
C546 O547 1.249 . S
C546 O548 1.270 . S
O547 Zn539 1.943 . S
O547 C546 1.249 . S
O548 Zn538 2.067 . S
O548 C546 1.270 . S
C549 O542 1.262 . S
C549 O550 1.232 . S
O550 C549 1.232 . S
C551 O543 1.260 . S
C551 O544 1.257 . S
Zn552 O555 2.031 . S
Zn552 O557 2.049 . S
Zn552 O562 2.067 . S
Zn553 O554 1.962 . S
Zn553 O556 1.986 . S
Zn553 O558 1.996 . S
Zn553 O561 1.943 . S
O554 Zn553 1.962 . S
O554 C559 1.254 . S
O555 Zn552 2.031 . S
O555 C559 1.269 . S
O556 Zn553 1.986 . S
O556 C563 1.262 . S
O557 Zn552 2.049 . S
O557 C565 1.260 . S
O558 Zn553 1.996 . S
O558 C565 1.257 . S
C559 O554 1.254 . S
C559 O555 1.269 . S
C560 O561 1.249 . S
C560 O562 1.270 . S
O561 Zn553 1.943 . S
O561 C560 1.249 . S
O562 Zn552 2.067 . S
O562 C560 1.270 . S
C563 O556 1.262 . S
C563 O564 1.232 . S
O564 C563 1.232 . S
C565 O557 1.260 . S
C565 O558 1.257 . S
Zn566 O569 2.031 . S
Zn566 O571 2.049 . S
Zn566 O576 2.067 . S
Zn567 O568 1.962 . S
Zn567 O570 1.986 . S
Zn567 O572 1.996 . S
Zn567 O575 1.943 . S
O568 Zn567 1.962 . S
O568 C573 1.254 . S
O569 Zn566 2.031 . S
O569 C573 1.269 . S
O570 Zn567 1.986 . S
O570 C577 1.262 . S
O571 Zn566 2.049 . S
O571 C579 1.260 . S
O572 Zn567 1.996 . S
O572 C579 1.257 . S
C573 O568 1.254 . S
C573 O569 1.269 . S
C574 O575 1.249 . S
C574 O576 1.270 . S
O575 Zn567 1.943 . S
O575 C574 1.249 . S
O576 Zn566 2.067 . S
O576 C574 1.270 . S
C577 O570 1.262 . S
C577 O578 1.232 . S
O578 C577 1.232 . S
C579 O571 1.260 . S
C579 O572 1.257 . S
Zn580 O583 2.031 . S
Zn580 O585 2.049 . S
Zn580 O590 2.067 . S
Zn581 O582 1.962 . S
Zn581 O584 1.986 . S
Zn581 O586 1.996 . S
Zn581 O589 1.943 1_556 S
O582 Zn581 1.962 . S
O582 C587 1.254 1_556 S
O583 Zn580 2.031 . S
O583 C587 1.269 . S
O584 Zn581 1.986 . S
O584 C591 1.262 . S
O585 Zn580 2.049 . S
O585 C593 1.260 . S
O586 Zn581 1.996 . S
O586 C593 1.257 1_556 S
C587 O582 1.254 1_554 S
C587 O583 1.269 . S
C588 O589 1.249 . S
C588 O590 1.270 . S
O589 Zn581 1.943 1_554 S
O589 C588 1.249 . S
O590 Zn580 2.067 . S
O590 C588 1.270 . S
C591 O584 1.262 . S
C591 O592 1.232 . S
O592 C591 1.232 . S
C593 O585 1.260 . S
C593 O586 1.257 1_554 S
Zn594 O597 2.031 . S
Zn594 O599 2.049 . S
Zn594 O604 2.067 . S
Zn595 O596 1.962 . S
Zn595 O598 1.986 . S
Zn595 O600 1.996 . S
Zn595 O603 1.943 . S
O596 Zn595 1.962 . S
O596 C601 1.254 . S
O597 Zn594 2.031 . S
O597 C601 1.269 . S
O598 Zn595 1.986 . S
O598 C605 1.262 . S
O599 Zn594 2.049 . S
O599 C607 1.260 . S
O600 Zn595 1.996 . S
O600 C607 1.257 . S
C601 O596 1.254 . S
C601 O597 1.269 . S
C602 O603 1.249 . S
C602 O604 1.270 . S
O603 Zn595 1.943 . S
O603 C602 1.249 . S
O604 Zn594 2.067 . S
O604 C602 1.270 . S
C605 O598 1.262 . S
C605 O606 1.232 . S
O606 C605 1.232 . S
C607 O599 1.260 . S
C607 O600 1.257 . S
H608 C614 0.930 . S
H609 C617 0.930 . S
H610 C618 0.930 . S
H611 C619 0.930 . S
H612 C622 0.930 . S
H613 C623 0.930 . S
C614 H608 0.930 . S
C614 C615 1.355 . S
C614 C616 1.415 . S
C615 C614 1.355 . S
C615 C617 1.419 . S
C616 C614 1.415 . S
C616 C621 1.425 . S
C616 C623 1.409 . S
C617 H609 0.930 . S
C617 C615 1.419 . S
C617 C618 1.362 . S
C618 H610 0.930 . S
C618 C617 1.362 . S
C618 C621 1.409 . S
C619 H611 0.930 . S
C619 C620 1.355 . S
C619 C621 1.415 . S
C620 C619 1.355 . S
C620 C622 1.419 . S
C621 C616 1.425 . S
C621 C618 1.409 . S
C621 C619 1.415 . S
C622 H612 0.930 . S
C622 C620 1.419 . S
C622 C623 1.362 . S
C623 H613 0.930 . S
C623 C616 1.409 . S
C623 C622 1.362 . S
H624 C630 0.930 . S
H625 C633 0.930 . S
H626 C634 0.930 . S
H627 C635 0.930 . S
H628 C638 0.930 . S
H629 C639 0.930 . S
C630 H624 0.930 . S
C630 C631 1.355 . S
C630 C632 1.415 . S
C631 C630 1.355 . S
C631 C633 1.419 . S
C632 C630 1.415 . S
C632 C637 1.425 . S
C632 C639 1.409 . S
C633 H625 0.930 . S
C633 C631 1.419 . S
C633 C634 1.362 . S
C634 H626 0.930 . S
C634 C633 1.362 . S
C634 C637 1.409 . S
C635 H627 0.930 . S
C635 C636 1.355 . S
C635 C637 1.415 . S
C636 C635 1.355 . S
C636 C638 1.419 . S
C637 C632 1.425 . S
C637 C634 1.409 . S
C637 C635 1.415 . S
C638 H628 0.930 . S
C638 C636 1.419 . S
C638 C639 1.362 . S
C639 H629 0.930 . S
C639 C632 1.409 . S
C639 C638 1.362 . S
H640 C646 0.930 . S
H641 C649 0.930 . S
H642 C650 0.930 . S
H643 C651 0.930 . S
H644 C654 0.930 . S
H645 C655 0.930 . S
C646 H640 0.930 . S
C646 C647 1.355 . S
C646 C648 1.415 . S
C647 C646 1.355 . S
C647 C649 1.419 . S
C648 C646 1.415 . S
C648 C653 1.425 . S
C648 C655 1.409 . S
C649 H641 0.930 . S
C649 C647 1.419 . S
C649 C650 1.362 . S
C650 H642 0.930 . S
C650 C649 1.362 . S
C650 C653 1.409 . S
C651 H643 0.930 . S
C651 C652 1.355 . S
C651 C653 1.415 . S
C652 C651 1.355 . S
C652 C654 1.419 . S
C653 C648 1.425 . S
C653 C650 1.409 . S
C653 C651 1.415 . S
C654 H644 0.930 . S
C654 C652 1.419 . S
C654 C655 1.362 . S
C655 H645 0.930 . S
C655 C648 1.409 . S
C655 C654 1.362 . S
H656 C662 0.930 . S
H657 C665 0.930 . S
H658 C666 0.930 . S
H659 C667 0.930 . S
H660 C670 0.930 . S
H661 C671 0.930 . S
C662 H656 0.930 . S
C662 C663 1.355 . S
C662 C664 1.415 . S
C663 C662 1.355 . S
C663 C665 1.419 . S
C664 C662 1.415 . S
C664 C669 1.425 . S
C664 C671 1.409 . S
C665 H657 0.930 . S
C665 C663 1.419 . S
C665 C666 1.362 . S
C666 H658 0.930 . S
C666 C665 1.362 . S
C666 C669 1.409 . S
C667 H659 0.930 . S
C667 C668 1.355 . S
C667 C669 1.415 . S
C668 C667 1.355 . S
C668 C670 1.419 . S
C669 C664 1.425 . S
C669 C666 1.409 . S
C669 C667 1.415 . S
C670 H660 0.930 . S
C670 C668 1.419 . S
C670 C671 1.362 . S
C671 H661 0.930 . S
C671 C664 1.409 . S
C671 C670 1.362 . S
H672 C678 0.930 . S
H673 C681 0.930 . S
H674 C682 0.930 . S
H675 C683 0.930 . S
H676 C686 0.930 . S
H677 C687 0.930 . S
C678 H672 0.930 . S
C678 C679 1.355 . S
C678 C680 1.415 . S
C679 C678 1.355 . S
C679 C681 1.419 1_554 S
C680 C678 1.415 . S
C680 C685 1.425 1_554 S
C680 C687 1.409 . S
C681 H673 0.930 . S
C681 C679 1.419 1_556 S
C681 C682 1.362 . S
C682 H674 0.930 . S
C682 C681 1.362 . S
C682 C685 1.409 . S
C683 H675 0.930 . S
C683 C684 1.355 1_556 S
C683 C685 1.415 . S
C684 C683 1.355 1_554 S
C684 C686 1.419 . S
C685 C680 1.425 1_556 S
C685 C682 1.409 . S
C685 C683 1.415 . S
C686 H676 0.930 . S
C686 C684 1.419 . S
C686 C687 1.362 . S
C687 H677 0.930 . S
C687 C680 1.409 . S
C687 C686 1.362 . S
H688 C694 0.930 . S
H689 C697 0.930 . S
H690 C698 0.930 . S
H691 C699 0.930 . S
H692 C702 0.930 . S
H693 C703 0.930 . S
C694 H688 0.930 . S
C694 C695 1.355 . S
C694 C696 1.415 . S
C695 C694 1.355 . S
C695 C697 1.419 . S
C696 C694 1.415 . S
C696 C701 1.425 . S
C696 C703 1.409 . S
C697 H689 0.930 . S
C697 C695 1.419 . S
C697 C698 1.362 . S
C698 H690 0.930 . S
C698 C697 1.362 . S
C698 C701 1.409 . S
C699 H691 0.930 . S
C699 C700 1.355 . S
C699 C701 1.415 . S
C700 C699 1.355 . S
C700 C702 1.419 . S
C701 C696 1.425 . S
C701 C698 1.409 . S
C701 C699 1.415 . S
C702 H692 0.930 . S
C702 C700 1.419 . S
C702 C703 1.362 . S
C703 H693 0.930 . S
C703 C696 1.409 . S
C703 C702 1.362 . S
H704 C710 0.930 . S
H705 C713 0.930 . S
H706 C714 0.930 . S
H707 C715 0.930 . S
H708 C718 0.930 . S
H709 C719 0.930 . S
C710 H704 0.930 . S
C710 C711 1.355 . S
C710 C712 1.415 . S
C711 C710 1.355 . S
C711 C713 1.419 . S
C712 C710 1.415 . S
C712 C717 1.425 . S
C712 C719 1.409 . S
C713 H705 0.930 . S
C713 C711 1.419 . S
C713 C714 1.362 . S
C714 H706 0.930 . S
C714 C713 1.362 . S
C714 C717 1.409 . S
C715 H707 0.930 . S
C715 C716 1.355 . S
C715 C717 1.415 . S
C716 C715 1.355 . S
C716 C718 1.419 . S
C717 C712 1.425 . S
C717 C714 1.409 . S
C717 C715 1.415 . S
C718 H708 0.930 . S
C718 C716 1.419 . S
C718 C719 1.362 . S
C719 H709 0.930 . S
C719 C712 1.409 . S
C719 C718 1.362 . S
H720 C726 0.930 . S
H721 C729 0.930 . S
H722 C730 0.930 . S
H723 C731 0.930 . S
H724 C734 0.930 . S
H725 C735 0.930 . S
C726 H720 0.930 . S
C726 C727 1.355 . S
C726 C728 1.415 . S
C727 C726 1.355 . S
C727 C729 1.419 . S
C728 C726 1.415 . S
C728 C733 1.425 . S
C728 C735 1.409 . S
C729 H721 0.930 . S
C729 C727 1.419 . S
C729 C730 1.362 . S
C730 H722 0.930 . S
C730 C729 1.362 . S
C730 C733 1.409 . S
C731 H723 0.930 . S
C731 C732 1.355 . S
C731 C733 1.415 . S
C732 C731 1.355 . S
C732 C734 1.419 . S
C733 C728 1.425 . S
C733 C730 1.409 . S
C733 C731 1.415 . S
C734 H724 0.930 . S
C734 C732 1.419 . S
C734 C735 1.362 . S
C735 H725 0.930 . S
C735 C728 1.409 . S
C735 C734 1.362 . S
H736 C742 0.930 . S
H737 C745 0.930 . S
H738 C746 0.930 . S
H739 C747 0.930 . S
H740 C750 0.930 . S
H741 C751 0.930 . S
C742 H736 0.930 . S
C742 C743 1.355 . S
C742 C744 1.415 . S
C743 C742 1.355 . S
C743 C745 1.419 . S
C744 C742 1.415 . S
C744 C749 1.425 . S
C744 C751 1.409 . S
C745 H737 0.930 . S
C745 C743 1.419 . S
C745 C746 1.362 . S
C746 H738 0.930 . S
C746 C745 1.362 . S
C746 C749 1.409 . S
C747 H739 0.930 . S
C747 C748 1.355 . S
C747 C749 1.415 . S
C748 C747 1.355 . S
C748 C750 1.419 . S
C749 C744 1.425 . S
C749 C746 1.409 . S
C749 C747 1.415 . S
C750 H740 0.930 . S
C750 C748 1.419 . S
C750 C751 1.362 . S
C751 H741 0.930 . S
C751 C744 1.409 . S
C751 C750 1.362 . S
H752 C758 0.930 . S
H753 C761 0.932 1_556 S
H754 C762 0.930 . S
H755 C763 0.930 1_556 S
H756 C766 0.930 . S
H757 C767 0.930 . S
C758 H752 0.930 . S
C758 C759 1.355 . S
C758 C760 1.415 . S
C759 C758 1.355 . S
C759 C761 1.416 . S
C760 C758 1.415 . S
C760 C765 1.425 . S
C760 C767 1.409 . S
C761 H753 0.932 1_554 S
C761 C759 1.416 . S
C761 C762 1.363 1_554 S
C762 H754 0.930 . S
C762 C761 1.363 1_556 S
C762 C765 1.409 1_556 S
C763 H755 0.930 1_554 S
C763 C764 1.355 . S
C763 C765 1.415 . S
C764 C763 1.355 . S
C764 C766 1.419 . S
C765 C760 1.425 . S
C765 C762 1.409 1_554 S
C765 C763 1.415 . S
C766 H756 0.930 . S
C766 C764 1.419 . S
C766 C767 1.362 . S
C767 H757 0.930 . S
C767 C760 1.409 . S
C767 C766 1.362 . S
H768 C774 0.930 . S
H769 C777 0.930 . S
H770 C778 0.930 . S
H771 C779 0.930 . S
H772 C782 0.930 . S
H773 C783 0.930 . S
C774 H768 0.930 . S
C774 C775 1.355 . S
C774 C776 1.415 . S
C775 C774 1.355 . S
C775 C777 1.419 . S
C776 C774 1.415 . S
C776 C781 1.425 . S
C776 C783 1.409 . S
C777 H769 0.930 . S
C777 C775 1.419 . S
C777 C778 1.362 . S
C778 H770 0.930 . S
C778 C777 1.362 . S
C778 C781 1.409 . S
C779 H771 0.930 . S
C779 C780 1.355 . S
C779 C781 1.415 . S
C780 C779 1.355 . S
C780 C782 1.419 . S
C781 C776 1.425 . S
C781 C778 1.409 . S
C781 C779 1.415 . S
C782 H772 0.930 . S
C782 C780 1.419 . S
C782 C783 1.362 . S
C783 H773 0.930 . S
C783 C776 1.409 . S
C783 C782 1.362 . S
H784 C790 0.930 . S
H785 C793 0.930 . S
H786 C794 0.930 . S
H787 C795 0.930 . S
H788 C798 0.930 . S
H789 C799 0.930 . S
C790 H784 0.930 . S
C790 C791 1.355 . S
C790 C792 1.415 . S
C791 C790 1.355 . S
C791 C793 1.419 . S
C792 C790 1.415 . S
C792 C797 1.425 . S
C792 C799 1.409 . S
C793 H785 0.930 . S
C793 C791 1.419 . S
C793 C794 1.362 . S
C794 H786 0.930 . S
C794 C793 1.362 . S
C794 C797 1.409 . S
C795 H787 0.930 . S
C795 C796 1.355 . S
C795 C797 1.415 . S
C796 C795 1.355 . S
C796 C798 1.419 . S
C797 C792 1.425 . S
C797 C794 1.409 . S
C797 C795 1.415 . S
C798 H788 0.930 . S
C798 C796 1.419 . S
C798 C799 1.362 . S
C799 H789 0.930 . S
C799 C792 1.409 . S
C799 C798 1.362 . S
H800 C806 0.930 . S
H801 C809 0.930 . S
H802 C810 0.930 . S
H803 C811 0.930 . S
H804 C814 0.930 . S
H805 C815 0.930 . S
C806 H800 0.930 . S
C806 C807 1.355 . S
C806 C808 1.415 . S
C807 C806 1.355 . S
C807 C809 1.419 . S
C808 C806 1.415 . S
C808 C813 1.425 . S
C808 C815 1.409 . S
C809 H801 0.930 . S
C809 C807 1.419 . S
C809 C810 1.362 . S
C810 H802 0.930 . S
C810 C809 1.362 . S
C810 C813 1.409 . S
C811 H803 0.930 . S
C811 C812 1.355 . S
C811 C813 1.415 . S
C812 C811 1.355 . S
C812 C814 1.419 . S
C813 C808 1.425 . S
C813 C810 1.409 . S
C813 C811 1.415 . S
C814 H804 0.930 . S
C814 C812 1.419 . S
C814 C815 1.362 . S
C815 H805 0.930 . S
C815 C808 1.409 . S
C815 C814 1.362 . S
H816 C822 0.930 . S
H817 C825 0.930 . S
H818 C826 0.930 . S
H819 C827 0.930 . S
H820 C830 0.930 . S
H821 C831 0.930 . S
C822 H816 0.930 . S
C822 C823 1.355 . S
C822 C824 1.415 . S
C823 C822 1.355 . S
C823 C825 1.419 . S
C824 C822 1.415 . S
C824 C829 1.425 . S
C824 C831 1.409 . S
C825 H817 0.930 . S
C825 C823 1.419 . S
C825 C826 1.362 . S
C826 H818 0.930 . S
C826 C825 1.362 . S
C826 C829 1.409 . S
C827 H819 0.930 . S
C827 C828 1.355 . S
C827 C829 1.415 . S
C828 C827 1.355 . S
C828 C830 1.419 . S
C829 C824 1.425 . S
C829 C826 1.409 . S
C829 C827 1.415 . S
C830 H820 0.930 . S
C830 C828 1.419 . S
C830 C831 1.362 . S
C831 H821 0.930 . S
C831 C824 1.409 . S
C831 C830 1.362 . S
H832 C838 0.932 . S
H833 C841 0.930 . S
H834 C842 0.930 . S
H835 C843 0.930 . S
H836 C846 0.930 . S
H837 C847 0.932 . S
C838 H832 0.932 . S
C838 C839 1.353 . S
C838 C840 1.414 1_554 S
C839 C838 1.353 . S
C839 C841 1.420 1_554 S
C840 C838 1.414 1_556 S
C840 C845 1.425 . S
C840 C847 1.409 . S
C841 H833 0.930 . S
C841 C839 1.420 1_556 S
C841 C842 1.362 . S
C842 H834 0.930 . S
C842 C841 1.362 . S
C842 C845 1.409 . S
C843 H835 0.930 . S
C843 C844 1.355 . S
C843 C845 1.415 . S
C844 C843 1.355 . S
C844 C846 1.419 . S
C845 C840 1.425 . S
C845 C842 1.409 . S
C845 C843 1.415 . S
C846 H836 0.930 . S
C846 C844 1.419 . S
C846 C847 1.362 . S
C847 H837 0.932 . S
C847 C840 1.409 . S
C847 C846 1.362 . S
H848 C854 0.930 . S
H849 C857 0.930 . S
H850 C858 0.930 . S
H851 C859 0.930 . S
H852 C862 0.930 . S
H853 C863 0.930 . S
C854 H848 0.930 . S
C854 C855 1.355 . S
C854 C856 1.415 . S
C855 C854 1.355 . S
C855 C857 1.419 . S
C856 C854 1.415 . S
C856 C861 1.425 . S
C856 C863 1.409 . S
C857 H849 0.930 . S
C857 C855 1.419 . S
C857 C858 1.362 . S
C858 H850 0.930 . S
C858 C857 1.362 . S
C858 C861 1.409 . S
C859 H851 0.930 . S
C859 C860 1.355 . S
C859 C861 1.415 . S
C860 C859 1.355 . S
C860 C862 1.419 . S
C861 C856 1.425 . S
C861 C858 1.409 . S
C861 C859 1.415 . S
C862 H852 0.930 . S
C862 C860 1.419 . S
C862 C863 1.362 . S
C863 H853 0.930 . S
C863 C856 1.409 . S
C863 C862 1.362 . S
H864 C870 0.930 . S
H865 C873 0.930 . S
H866 C874 0.930 . S
H867 C875 0.930 . S
H868 C878 0.930 . S
H869 C879 0.930 . S
C870 H864 0.930 . S
C870 C871 1.355 . S
C870 C872 1.415 . S
C871 C870 1.355 . S
C871 C873 1.419 . S
C872 C870 1.415 . S
C872 C877 1.425 . S
C872 C879 1.409 . S
C873 H865 0.930 . S
C873 C871 1.419 . S
C873 C874 1.362 . S
C874 H866 0.930 . S
C874 C873 1.362 . S
C874 C877 1.409 . S
C875 H867 0.930 . S
C875 C876 1.355 . S
C875 C877 1.415 . S
C876 C875 1.355 . S
C876 C878 1.419 . S
C877 C872 1.425 . S
C877 C874 1.409 . S
C877 C875 1.415 . S
C878 H868 0.930 . S
C878 C876 1.419 . S
C878 C879 1.362 . S
C879 H869 0.930 . S
C879 C872 1.409 . S
C879 C878 1.362 . S
H880 C886 0.930 . S
H881 C889 0.930 . S
H882 C890 0.930 . S
H883 C891 0.930 . S
H884 C894 0.930 . S
H885 C895 0.930 . S
C886 H880 0.930 . S
C886 C887 1.355 . S
C886 C888 1.415 . S
C887 C886 1.355 . S
C887 C889 1.419 . S
C888 C886 1.415 . S
C888 C893 1.425 . S
C888 C895 1.409 . S
C889 H881 0.930 . S
C889 C887 1.419 . S
C889 C890 1.362 . S
C890 H882 0.930 . S
C890 C889 1.362 . S
C890 C893 1.409 . S
C891 H883 0.930 . S
C891 C892 1.355 . S
C891 C893 1.415 . S
C892 C891 1.355 . S
C892 C894 1.419 . S
C893 C888 1.425 . S
C893 C890 1.409 . S
C893 C891 1.415 . S
C894 H884 0.930 . S
C894 C892 1.419 . S
C894 C895 1.362 . S
C895 H885 0.930 . S
C895 C888 1.409 . S
C895 C894 1.362 . S
H896 C902 0.930 . S
H897 C905 0.930 . S
H898 C906 0.930 . S
H899 C907 0.930 . S
H900 C910 0.930 . S
H901 C911 0.930 . S
C902 H896 0.930 . S
C902 C903 1.355 . S
C902 C904 1.415 . S
C903 C902 1.355 . S
C903 C905 1.419 . S
C904 C902 1.415 . S
C904 C909 1.425 . S
C904 C911 1.409 . S
C905 H897 0.930 . S
C905 C903 1.419 . S
C905 C906 1.362 . S
C906 H898 0.930 . S
C906 C905 1.362 . S
C906 C909 1.409 . S
C907 H899 0.930 . S
C907 C908 1.355 . S
C907 C909 1.415 . S
C908 C907 1.355 . S
C908 C910 1.419 . S
C909 C904 1.425 . S
C909 C906 1.409 . S
C909 C907 1.415 . S
C910 H900 0.930 . S
C910 C908 1.419 . S
C910 C911 1.362 . S
C911 H901 0.930 . S
C911 C904 1.409 . S
C911 C910 1.362 . S
H912 C918 0.930 . S
H913 C921 0.930 . S
H914 C922 0.930 . S
H915 C923 0.930 . S
H916 C926 0.930 . S
H917 C927 0.930 . S
C918 H912 0.930 . S
C918 C919 1.355 . S
C918 C920 1.415 . S
C919 C918 1.355 . S
C919 C921 1.419 . S
C920 C918 1.415 . S
C920 C925 1.425 . S
C920 C927 1.409 . S
C921 H913 0.930 . S
C921 C919 1.419 . S
C921 C922 1.362 . S
C922 H914 0.930 . S
C922 C921 1.362 . S
C922 C925 1.409 . S
C923 H915 0.930 . S
C923 C924 1.355 . S
C923 C925 1.415 . S
C924 C923 1.355 . S
C924 C926 1.419 . S
C925 C920 1.425 . S
C925 C922 1.409 . S
C925 C923 1.415 . S
C926 H916 0.930 . S
C926 C924 1.419 . S
C926 C927 1.362 . S
C927 H917 0.930 . S
C927 C920 1.409 . S
C927 C926 1.362 . S
H928 C934 0.930 . S
H929 C937 0.930 . S
H930 C938 0.930 . S
H931 C939 0.930 . S
H932 C942 0.930 . S
H933 C943 0.930 . S
C934 H928 0.930 . S
C934 C935 1.355 . S
C934 C936 1.415 . S
C935 C934 1.355 . S
C935 C937 1.419 . S
C936 C934 1.415 . S
C936 C941 1.425 . S
C936 C943 1.409 . S
C937 H929 0.930 . S
C937 C935 1.419 . S
C937 C938 1.362 . S
C938 H930 0.930 . S
C938 C937 1.362 . S
C938 C941 1.409 . S
C939 H931 0.930 . S
C939 C940 1.355 . S
C939 C941 1.415 . S
C940 C939 1.355 . S
C940 C942 1.419 . S
C941 C936 1.425 . S
C941 C938 1.409 . S
C941 C939 1.415 . S
C942 H932 0.930 . S
C942 C940 1.419 . S
C942 C943 1.362 . S
C943 H933 0.930 . S
C943 C936 1.409 . S
C943 C942 1.362 . S
H944 C950 0.930 . S
H945 C953 0.930 . S
H946 C954 0.930 . S
H947 C955 0.930 . S
H948 C958 0.930 . S
H949 C959 0.930 . S
C950 H944 0.930 . S
C950 C951 1.355 . S
C950 C952 1.415 . S
C951 C950 1.355 . S
C951 C953 1.419 . S
C952 C950 1.415 . S
C952 C957 1.425 . S
C952 C959 1.409 . S
C953 H945 0.930 . S
C953 C951 1.419 . S
C953 C954 1.362 . S
C954 H946 0.930 . S
C954 C953 1.362 . S
C954 C957 1.409 . S
C955 H947 0.930 . S
C955 C956 1.355 . S
C955 C957 1.415 . S
C956 C955 1.355 . S
C956 C958 1.419 . S
C957 C952 1.425 . S
C957 C954 1.409 . S
C957 C955 1.415 . S
C958 H948 0.930 . S
C958 C956 1.419 . S
C958 C959 1.362 . S
C959 H949 0.930 . S
C959 C952 1.409 . S
C959 C958 1.362 . S
H960 C966 0.930 . S
H961 C969 0.930 . S
H962 C970 0.930 . S
H963 C971 0.930 . S
H964 C974 0.930 . S
H965 C975 0.930 . S
C966 H960 0.930 . S
C966 C967 1.355 . S
C966 C968 1.415 . S
C967 C966 1.355 . S
C967 C969 1.419 . S
C968 C966 1.415 . S
C968 C973 1.425 . S
C968 C975 1.409 . S
C969 H961 0.930 . S
C969 C967 1.419 . S
C969 C970 1.362 . S
C970 H962 0.930 . S
C970 C969 1.362 . S
C970 C973 1.409 . S
C971 H963 0.930 . S
C971 C972 1.355 . S
C971 C973 1.415 . S
C972 C971 1.355 . S
C972 C974 1.419 . S
C973 C968 1.425 . S
C973 C970 1.409 . S
C973 C971 1.415 . S
C974 H964 0.930 . S
C974 C972 1.419 . S
C974 C975 1.362 . S
C975 H965 0.930 . S
C975 C968 1.409 . S
C975 C974 1.362 . S
H976 C982 0.930 . S
H977 C985 0.930 . S
H978 C986 0.930 . S
H979 C987 0.930 . S
H980 C990 0.930 . S
H981 C991 0.930 . S
C982 H976 0.930 . S
C982 C983 1.355 . S
C982 C984 1.415 . S
C983 C982 1.355 . S
C983 C985 1.419 . S
C984 C982 1.415 . S
C984 C989 1.425 . S
C984 C991 1.409 . S
C985 H977 0.930 . S
C985 C983 1.419 . S
C985 C986 1.362 . S
C986 H978 0.930 . S
C986 C985 1.362 . S
C986 C989 1.409 . S
C987 H979 0.930 . S
C987 C988 1.355 . S
C987 C989 1.415 . S
C988 C987 1.355 . S
C988 C990 1.419 . S
C989 C984 1.425 . S
C989 C986 1.409 . S
C989 C987 1.415 . S
C990 H980 0.930 . S
C990 C988 1.419 . S
C990 C991 1.362 . S
C991 H981 0.930 . S
C991 C984 1.409 . S
C991 C990 1.362 . S
H992 C998 0.930 . S
H993 C1001 0.930 . S
H994 C1002 0.930 . S
H995 C1003 0.930 . S
H996 C1006 0.930 . S
H997 C1007 0.930 . S
C998 H992 0.930 . S
C998 C999 1.355 . S
C998 C1000 1.415 . S
C999 C998 1.355 . S
C999 C1001 1.419 . S
C1000 C998 1.415 . S
C1000 C1005 1.425 . S
C1000 C1007 1.409 . S
C1001 H993 0.930 . S
C1001 C999 1.419 . S
C1001 C1002 1.362 . S
C1002 H994 0.930 . S
C1002 C1001 1.362 . S
C1002 C1005 1.409 . S
C1003 H995 0.930 . S
C1003 C1004 1.355 . S
C1003 C1005 1.415 . S
C1004 C1003 1.355 . S
C1004 C1006 1.419 . S
C1005 C1000 1.425 . S
C1005 C1002 1.409 . S
C1005 C1003 1.415 . S
C1006 H996 0.930 . S
C1006 C1004 1.419 . S
C1006 C1007 1.362 . S
C1007 H997 0.930 . S
C1007 C1000 1.409 . S
C1007 C1006 1.362 . S
H1008 C1014 0.930 . S
H1009 C1017 0.930 . S
H1010 C1018 0.930 . S
H1011 C1019 0.930 . S
H1012 C1022 0.930 . S
H1013 C1023 0.930 . S
C1014 H1008 0.930 . S
C1014 C1015 1.355 . S
C1014 C1016 1.415 . S
C1015 C1014 1.355 . S
C1015 C1017 1.419 . S
C1016 C1014 1.415 . S
C1016 C1021 1.425 . S
C1016 C1023 1.409 . S
C1017 H1009 0.930 . S
C1017 C1015 1.419 . S
C1017 C1018 1.362 . S
C1018 H1010 0.930 . S
C1018 C1017 1.362 . S
C1018 C1021 1.409 . S
C1019 H1011 0.930 . S
C1019 C1020 1.355 . S
C1019 C1021 1.415 . S
C1020 C1019 1.355 . S
C1020 C1022 1.419 . S
C1021 C1016 1.425 . S
C1021 C1018 1.409 . S
C1021 C1019 1.415 . S
C1022 H1012 0.930 . S
C1022 C1020 1.419 . S
C1022 C1023 1.362 . S
C1023 H1013 0.930 . S
C1023 C1016 1.409 . S
C1023 C1022 1.362 . S
H1024 C1030 0.930 . S
H1025 C1033 0.930 . S
H1026 C1034 0.930 . S
H1027 C1035 0.930 . S
H1028 C1038 0.930 . S
H1029 C1039 0.930 . S
C1030 H1024 0.930 . S
C1030 C1031 1.355 . S
C1030 C1032 1.415 . S
C1031 C1030 1.355 . S
C1031 C1033 1.419 . S
C1032 C1030 1.415 . S
C1032 C1037 1.425 . S
C1032 C1039 1.409 . S
C1033 H1025 0.930 . S
C1033 C1031 1.419 . S
C1033 C1034 1.362 . S
C1034 H1026 0.930 . S
C1034 C1033 1.362 . S
C1034 C1037 1.409 . S
C1035 H1027 0.930 . S
C1035 C1036 1.355 . S
C1035 C1037 1.415 . S
C1036 C1035 1.355 . S
C1036 C1038 1.419 . S
C1037 C1032 1.425 . S
C1037 C1034 1.409 . S
C1037 C1035 1.415 . S
C1038 H1028 0.930 . S
C1038 C1036 1.419 . S
C1038 C1039 1.362 . S
C1039 H1029 0.930 . S
C1039 C1032 1.409 . S
C1039 C1038 1.362 . S
H1040 C1046 0.930 . S
H1041 C1049 0.930 . S
H1042 C1050 0.930 . S
H1043 C1051 0.930 . S
H1044 C1054 0.930 . S
H1045 C1055 0.930 . S
C1046 H1040 0.930 . S
C1046 C1047 1.355 . S
C1046 C1048 1.415 . S
C1047 C1046 1.355 . S
C1047 C1049 1.419 . S
C1048 C1046 1.415 . S
C1048 C1053 1.425 . S
C1048 C1055 1.409 . S
C1049 H1041 0.930 . S
C1049 C1047 1.419 . S
C1049 C1050 1.362 . S
C1050 H1042 0.930 . S
C1050 C1049 1.362 . S
C1050 C1053 1.409 . S
C1051 H1043 0.930 . S
C1051 C1052 1.355 . S
C1051 C1053 1.415 . S
C1052 C1051 1.355 . S
C1052 C1054 1.419 . S
C1053 C1048 1.425 . S
C1053 C1050 1.409 . S
C1053 C1051 1.415 . S
C1054 H1044 0.930 . S
C1054 C1052 1.419 . S
C1054 C1055 1.362 . S
C1055 H1045 0.930 . S
C1055 C1048 1.409 . S
C1055 C1054 1.362 . S
H1056 C1062 0.930 . S
H1057 C1065 0.930 . S
H1058 C1066 0.930 . S
H1059 C1067 0.930 . S
H1060 C1070 0.930 . S
H1061 C1071 0.930 . S
C1062 H1056 0.930 . S
C1062 C1063 1.355 . S
C1062 C1064 1.415 . S
C1063 C1062 1.355 . S
C1063 C1065 1.419 . S
C1064 C1062 1.415 . S
C1064 C1069 1.425 . S
C1064 C1071 1.409 . S
C1065 H1057 0.930 . S
C1065 C1063 1.419 . S
C1065 C1066 1.362 . S
C1066 H1058 0.930 . S
C1066 C1065 1.362 . S
C1066 C1069 1.409 . S
C1067 H1059 0.930 . S
C1067 C1068 1.355 . S
C1067 C1069 1.415 . S
C1068 C1067 1.355 . S
C1068 C1070 1.419 . S
C1069 C1064 1.425 . S
C1069 C1066 1.409 . S
C1069 C1067 1.415 . S
C1070 H1060 0.930 . S
C1070 C1068 1.419 . S
C1070 C1071 1.362 . S
C1071 H1061 0.930 . S
C1071 C1064 1.409 . S
C1071 C1070 1.362 . S
H1072 C1078 0.930 . S
H1073 C1081 0.930 . S
H1074 C1082 0.930 . S
H1075 C1083 0.930 . S
H1076 C1086 0.930 . S
H1077 C1087 0.930 . S
C1078 H1072 0.930 . S
C1078 C1079 1.355 . S
C1078 C1080 1.415 . S
C1079 C1078 1.355 . S
C1079 C1081 1.419 . S
C1080 C1078 1.415 . S
C1080 C1085 1.425 . S
C1080 C1087 1.409 . S
C1081 H1073 0.930 . S
C1081 C1079 1.419 . S
C1081 C1082 1.362 . S
C1082 H1074 0.930 . S
C1082 C1081 1.362 . S
C1082 C1085 1.409 . S
C1083 H1075 0.930 . S
C1083 C1084 1.355 . S
C1083 C1085 1.415 . S
C1084 C1083 1.355 . S
C1084 C1086 1.419 . S
C1085 C1080 1.425 . S
C1085 C1082 1.409 . S
C1085 C1083 1.415 . S
C1086 H1076 0.930 . S
C1086 C1084 1.419 . S
C1086 C1087 1.362 . S
C1087 H1077 0.930 . S
C1087 C1080 1.409 . S
C1087 C1086 1.362 . S
H1088 C1094 0.930 . S
H1089 C1097 0.930 . S
H1090 C1098 0.930 . S
H1091 C1099 0.930 . S
H1092 C1102 0.930 . S
H1093 C1103 0.930 . S
C1094 H1088 0.930 . S
C1094 C1095 1.355 . S
C1094 C1096 1.415 . S
C1095 C1094 1.355 . S
C1095 C1097 1.419 . S
C1096 C1094 1.415 . S
C1096 C1101 1.425 . S
C1096 C1103 1.409 . S
C1097 H1089 0.930 . S
C1097 C1095 1.419 . S
C1097 C1098 1.362 . S
C1098 H1090 0.930 . S
C1098 C1097 1.362 . S
C1098 C1101 1.409 . S
C1099 H1091 0.930 . S
C1099 C1100 1.355 . S
C1099 C1101 1.415 . S
C1100 C1099 1.355 . S
C1100 C1102 1.419 . S
C1101 C1096 1.425 . S
C1101 C1098 1.409 . S
C1101 C1099 1.415 . S
C1102 H1092 0.930 . S
C1102 C1100 1.419 . S
C1102 C1103 1.362 . S
C1103 H1093 0.930 . S
C1103 C1096 1.409 . S
C1103 C1102 1.362 . S
H1104 C1110 0.930 . S
H1105 C1113 0.930 . S
H1106 C1114 0.930 . S
H1107 C1115 0.930 . S
H1108 C1118 0.930 . S
H1109 C1119 0.930 . S
C1110 H1104 0.930 . S
C1110 C1111 1.355 . S
C1110 C1112 1.415 . S
C1111 C1110 1.355 . S
C1111 C1113 1.419 . S
C1112 C1110 1.415 . S
C1112 C1117 1.425 . S
C1112 C1119 1.409 . S
C1113 H1105 0.930 . S
C1113 C1111 1.419 . S
C1113 C1114 1.362 . S
C1114 H1106 0.930 . S
C1114 C1113 1.362 . S
C1114 C1117 1.409 . S
C1115 H1107 0.930 . S
C1115 C1116 1.355 . S
C1115 C1117 1.415 . S
C1116 C1115 1.355 . S
C1116 C1118 1.419 . S
C1117 C1112 1.425 . S
C1117 C1114 1.409 . S
C1117 C1115 1.415 . S
C1118 H1108 0.930 . S
C1118 C1116 1.419 . S
C1118 C1119 1.362 . S
C1119 H1109 0.930 . S
C1119 C1112 1.409 . S
C1119 C1118 1.362 . S
C620 C517 1.475 . S
C615 C35 1.353 . S
C636 C537 1.377 . S
C631 C115 1.297 . S
C652 C551 1.449 . S
C647 C177 1.357 . S
C663 C221 1.429 . S
C668 C509 1.531 . S
C679 C283 1.439 . S
C684 C503 1.692 . S
C695 C363 1.387 . S
C700 C523 1.496 . S
C716 C531 1.503 . S
C711 C407 1.289 . S
C732 C545 1.646 . S
C727 C469 1.485 . S
C743 C159 1.421 . S
C748 C573 1.643 . S
C764 C587 1.505 . S
C759 C239 1.396 . S
C775 C53 1.451 . S
C780 C607 1.560 . S
C796 C559 1.699 . S
C791 C97 1.491 . S
C807 C425 1.409 . S
C812 C565 1.492 . S
C823 C487 1.332 . S
C828 C579 1.430 . S
C844 C593 1.423 1_556 S
C839 C301 1.339 1_554 S
C855 C345 1.294 . S
C860 C601 1.487 . S
C876 C532 1.877 . S
C871 C29 1.898 . S
C892 C546 1.907 . S
C887 C109 1.808 . S
C903 C171 1.726 . S
C908 C504 1.834 . S
C919 C215 1.633 . S
C924 C521 1.642 . S
C935 C277 1.553 . S
C940 C549 1.571 . S
C956 C507 1.571 . S
C951 C357 1.541 . S
C972 C518 1.820 . S
C967 C401 1.793 . S
C988 C535 1.645 . S
C983 C463 1.642 . S
C1004 C591 1.648 . S
C999 C153 1.636 . S
C1020 C602 1.805 . S
C1015 C233 1.758 . S
C1031 C47 1.537 . S
C1036 C563 1.573 . S
C1052 C577 1.574 . S
C1047 C91 1.571 . S
C1068 C605 1.644 . S
C1063 C419 1.596 . S
C1079 C481 1.733 . S
C1084 C560 1.836 . S
C1100 C574 1.903 . S
C1095 C295 1.797 . S
C1116 C588 1.902 . S
C1111 C339 1.870 . S
