# Generated by pormake.
# Topology anh, (6,3)-cn, num edge types: 1
# Building blocks:
#     Node 0, Type 0, BuildingBlock: BETDEL_clean_sbu_0, # of connection points: 6
#     Node 1, Type 0, BuildingBlock: BETDEL_clean_sbu_0, # of connection points: 6
#     Node 2, Type 0, BuildingBlock: BETDEL_clean_sbu_0, # of connection points: 6
#     Node 3, Type 1, BuildingBlock: BETDIP_clean_linker_0, # of connection points: 3
#     Node 4, Type 1, BuildingBlock: BETDIP_clean_linker_0, # of connection points: 3
#     Node 5, Type 1, BuildingBlock: BETDIP_clean_linker_0, # of connection points: 3
#     Node 6, Type 1, BuildingBlock: BETDIP_clean_linker_0, # of connection points: 3
#     Node 7, Type 1, BuildingBlock: BETDIP_clean_linker_0, # of connection points: 3
#     Node 8, Type 1, BuildingBlock: BETDIP_clean_linker_0, # of connection points: 3
#     Edge 9, Type (0, 1), BuildingBlock: EZIPEK_clean_linker_0, # of connection points: 2
#     Edge 10, Type (0, 1), BuildingBlock: EZIPEK_clean_linker_0, # of connection points: 2
#     Edge 11, Type (0, 1), BuildingBlock: EZIPEK_clean_linker_0, # of connection points: 2
#     Edge 12, Type (0, 1), BuildingBlock: EZIPEK_clean_linker_0, # of connection points: 2
#     Edge 13, Type (0, 1), BuildingBlock: EZIPEK_clean_linker_0, # of connection points: 2
#     Edge 14, Type (0, 1), BuildingBlock: EZIPEK_clean_linker_0, # of connection points: 2
#     Edge 15, Type (0, 1), BuildingBlock: EZIPEK_clean_linker_0, # of connection points: 2
#     Edge 16, Type (0, 1), BuildingBlock: EZIPEK_clean_linker_0, # of connection points: 2
#     Edge 17, Type (0, 1), BuildingBlock: EZIPEK_clean_linker_0, # of connection points: 2
#     Edge 18, Type (0, 1), BuildingBlock: EZIPEK_clean_linker_0, # of connection points: 2
#     Edge 19, Type (0, 1), BuildingBlock: EZIPEK_clean_linker_0, # of connection points: 2
#     Edge 20, Type (0, 1), BuildingBlock: EZIPEK_clean_linker_0, # of connection points: 2
#     Edge 21, Type (0, 1), BuildingBlock: EZIPEK_clean_linker_0, # of connection points: 2
#     Edge 22, Type (0, 1), BuildingBlock: EZIPEK_clean_linker_0, # of connection points: 2
#     Edge 23, Type (0, 1), BuildingBlock: EZIPEK_clean_linker_0, # of connection points: 2
#     Edge 24, Type (0, 1), BuildingBlock: EZIPEK_clean_linker_0, # of connection points: 2
#     Edge 25, Type (0, 1), BuildingBlock: EZIPEK_clean_linker_0, # of connection points: 2
#     Edge 26, Type (0, 1), BuildingBlock: EZIPEK_clean_linker_0, # of connection points: 2
# Relax obj value: 0.124
# Max RMSD: 0.167
# Mean RMSD: 0.118
data_MOF--net-anh--node1-BETDEL_clean_sbu_0--node2-BETDIP_clean_linker_0--edge1-EZIPEK_clean_linker_0
_symmetry_space_group_name_H-M    P1
_symmetry_Int_Tables_number       1
_symmetry_cell_setting            triclinic
loop_
_symmetry_equiv_pos_as_xyz
'x, y, z'
_cell_length_a     22.118115
_cell_length_b     22.189632
_cell_length_c     34.932793
_cell_angle_alpha  92.74607
_cell_angle_beta   91.653917
_cell_angle_gamma 120.21714
loop_
_atom_site_label
_atom_site_type_symbol
_atom_site_fract_x
_atom_site_fract_y
_atom_site_fract_z
_atom_type_partial_charge
Dy0 Dy 0.08368 0.52051 0.1475 0.0
C1 C 0.92772 0.65158 0.18427 0.0
C2 C 0.17413 0.4787 0.12579 0.0
Dy3 Dy 1.00184 0.59269 0.15661 0.0
O4 O 0.17547 0.50667 0.15942 0.0
O5 O 0.12273 0.47263 0.10374 0.0
O6 O 0.04675 0.46922 0.20217 0.0
O7 O 0.06281 0.56968 0.19694 0.0
C8 C 0.04058 0.51951 0.21839 0.0
C9 C 1.00426 0.55016 0.08347 0.0
O10 O 0.10902 0.6898 0.1617 0.0
O11 O 0.17303 0.63347 0.15519 0.0
O12 O 0.95982 0.66569 0.15238 0.0
O13 O 0.93906 0.60709 0.20122 0.0
O14 O 0.95145 0.55225 0.09711 0.0
O15 O 0.05454 0.57616 0.10853 0.0
O16 O 0.97392 0.42719 0.13519 0.0
O17 O 0.91805 0.48073 0.16289 0.0
C18 C 0.17009 0.69179 0.16062 0.0
C19 C 0.91683 0.42349 0.14902 0.0
Dy20 Dy 0.49164 0.02715 0.48493 0.0
C21 C 0.77369 0.2153 0.51695 0.0
C22 C 0.35548 0.92678 0.4675 0.0
Dy23 Dy 0.64292 0.11034 0.49176 0.0
O24 O 0.37759 0.97113 0.49728 0.0
O25 O 0.40765 0.93899 0.44675 0.0
O26 O 0.49007 0.06211 0.54595 0.0
O27 O 0.56825 0.04104 0.53084 0.0
C28 C 0.54447 0.05951 0.55836 0.0
C29 C 0.59446 0.0735 0.41822 0.0
O30 O 0.63562 1.00579 0.49994 0.0
O31 O 0.51878 0.94086 0.47974 0.0
O32 O 0.7597 0.17306 0.48665 0.0
O33 O 0.71694 0.19781 0.53431 0.0
O34 O 0.65493 0.0842 0.43107 0.0
O35 O 0.56654 0.09118 0.44423 0.0
O36 O 0.49778 0.12957 0.47468 0.0
O37 O 0.611 0.19287 0.50046 0.0
C38 C 0.57861 0.94397 0.49006 0.0
C39 C 0.55204 0.19001 0.48852 0.0
Dy40 Dy 0.5847 0.57379 0.82231 0.0
C41 C 0.47148 0.28162 0.81772 0.0
C42 C 0.65154 0.71242 0.81157 0.0
Dy43 Dy 0.51124 0.41927 0.81449 0.0
O44 O 0.66647 0.68518 0.83983 0.0
O45 O 0.60202 0.66382 0.78856 0.0
O46 O 0.54381 0.57343 0.87981 0.0
O47 O 0.56647 0.49527 0.86339 0.0
C48 C 0.54186 0.51673 0.88933 0.0
C49 C 0.52004 0.47918 0.74792 0.0
O50 O 0.4196 0.43232 0.82972 0.0
O51 O 0.47096 0.54579 0.81216 0.0
O52 O 0.5 0.31929 0.78918 0.0
O53 O 0.46301 0.31877 0.84444 0.0
O54 O 0.46546 0.42179 0.75666 0.0
O55 O 0.5671 0.49997 0.77454 0.0
O56 O 0.68184 0.56397 0.82306 0.0
O57 O 0.62339 0.44286 0.82048 0.0
C58 C 0.41521 0.4881 0.82237 0.0
C59 C 0.68255 0.50438 0.82306 0.0
H60 H 0.47629 0.99928 0.14381 0.0
H61 H 0.61069 0.11408 0.24472 0.0
H62 H 0.41876 0.9233 0.25636 0.0
H63 H 0.635 0.20762 0.20682 0.0
C64 C 0.64886 0.18616 0.18226 0.0
C65 C 0.48742 1.00473 0.17458 0.0
C66 C 0.43869 0.95317 0.19798 0.0
C67 C 0.55012 0.06389 0.19117 0.0
C68 C 0.56289 0.07048 0.23127 0.0
C69 C 0.51553 0.0204 0.25454 0.0
C70 C 0.45466 0.96184 0.23791 0.0
N71 N 0.60093 0.11519 0.16783 0.0
H72 H 0.56125 0.50727 0.47372 0.0
H73 H 0.57179 0.61472 0.58259 0.0
H74 H 0.54325 0.40917 0.57977 0.0
H75 H 0.52071 0.66086 0.5486 0.0
C76 C 0.54858 0.67342 0.52243 0.0
C77 C 0.56016 0.50878 0.50471 0.0
C78 C 0.55359 0.45106 0.52442 0.0
C79 C 0.56428 0.56801 0.52532 0.0
C80 C 0.56475 0.56922 0.56573 0.0
C81 C 0.55546 0.51161 0.58517 0.0
C82 C 0.54989 0.45329 0.56442 0.0
N83 N 0.56872 0.6259 0.50573 0.0
H84 H 0.98982 0.495 0.80743 0.0
H85 H 0.10988 0.52415 0.91357 0.0
H86 H 0.92468 0.53864 0.9155 0.0
H87 H 0.2018 0.57596 0.87375 0.0
C88 C 0.18233 0.53515 0.85052 0.0
C89 C 0.99876 0.5073 0.83817 0.0
C90 C 0.94955 0.5172 0.85905 0.0
C91 C 0.05949 0.51312 0.85739 0.0
C92 C 0.06729 0.52441 0.89774 0.0
C93 C 1.01877 0.53334 0.91842 0.0
C94 C 0.96205 0.53213 0.89896 0.0
N95 N 0.11006 0.50367 0.83678 0.0
H96 H 0.10966 0.60462 0.49334 0.0
H97 H 1.00883 0.45747 0.39493 0.0
H98 H 0.13757 0.67655 0.37988 0.0
H99 H 0.0595 0.51404 0.52818 0.0
C100 C 1.02754 0.46622 0.51028 0.0
C101 C 0.097 0.59293 0.46279 0.0
C102 C 0.12753 0.64787 0.43841 0.0
C103 C 0.05435 0.52374 0.44704 0.0
C104 C 0.04096 0.51077 0.40722 0.0
C105 C 0.07 0.56584 0.38311 0.0
C106 C 0.1129 0.63425 0.39875 0.0
N107 N 1.02451 0.4653 0.46965 0.0
H108 H 0.57814 0.04993 0.83281 0.0
H109 H 0.63072 0.99435 0.72408 0.0
H110 H 0.52349 0.11013 0.72775 0.0
H111 H 0.73293 0.02029 0.76555 0.0
C112 C 0.70043 0.98457 0.78622 0.0
C113 C 0.57782 0.05063 0.8018 0.0
C114 C 0.54799 0.08472 0.78282 0.0
C115 C 0.61108 0.02126 0.781 0.0
C116 C 0.60862 0.02023 0.74071 0.0
C117 C 0.57587 0.05115 0.7216 0.0
C118 C 0.54715 0.08463 0.74269 0.0
N119 N 0.6445 0.99082 0.80094 0.0
H120 H 0.46368 0.50524 0.15417 0.0
H121 H 0.61277 0.51142 0.07532 0.0
H122 H 0.40897 0.46522 0.03297 0.0
H123 H 0.65834 0.4908 0.13036 0.0
C124 C 0.65578 0.52911 0.14975 0.0
C125 C 0.47664 0.49774 0.12531 0.0
C126 C 0.42787 0.48092 0.09435 0.0
C127 C 0.54315 0.50784 0.11899 0.0
C128 C 0.56067 0.5009 0.08117 0.0
C129 C 0.51279 0.48686 0.0501 0.0
C130 C 0.44588 0.47513 0.05694 0.0
N131 N 0.59385 0.53288 0.1504 0.0
C132 C 0.24259 0.41739 0.12399 0.0
C133 C 0.23341 0.47281 0.11256 0.0
C134 C 0.35236 0.53443 0.09083 0.0
C135 C 0.3605 0.47743 0.10045 0.0
N136 N 0.31099 0.35973 0.11981 0.0
N137 N 0.27299 0.57743 0.07872 0.0
C138 C 0.30481 0.41727 0.11515 0.0
C139 C 0.28611 0.52901 0.0937 0.0
N140 N 0.19247 0.36586 0.14398 0.0
N141 N 0.40889 0.59508 0.08081 0.0
H142 H 0.22565 0.57647 0.08109 0.0
H143 H 0.30667 0.61521 0.06109 0.0
H144 H 0.45875 0.60159 0.0787 0.0
H145 H 0.40815 0.64116 0.07783 0.0
H146 H 0.1995 0.32848 0.15708 0.0
H147 H 0.14474 0.36266 0.14918 0.0
H148 H 0.26974 0.31177 0.12674 0.0
H149 H 0.35623 0.35829 0.1139 0.0
C150 C 0.90421 0.27629 0.52357 0.0
C151 C 0.8421 0.27957 0.52656 0.0
C152 C 0.91318 0.40666 0.53937 0.0
C153 C 0.97183 0.40393 0.52691 0.0
N154 N 1.02691 0.33779 0.50937 0.0
N155 N 0.78737 0.35077 0.53394 0.0
C156 C 0.96871 0.33905 0.52023 0.0
C157 C 0.84627 0.34527 0.53461 0.0
N158 N 0.90139 0.21342 0.52433 0.0
N159 N 0.92106 0.46854 0.55405 0.0
H160 H 0.73675 0.30885 0.52845 0.0
H161 H 0.78897 0.39856 0.53508 0.0
H162 H 0.9698 0.5144 0.55734 0.0
H163 H 0.88096 0.47247 0.56669 0.0
H164 H 0.94572 0.20836 0.52523 0.0
H165 H 0.85497 0.16691 0.528 0.0
H166 H 1.02619 0.29238 0.49951 0.0
H167 H 0.07571 0.38332 0.50895 0.0
C168 C 0.70185 0.8144 0.77139 0.0
C169 C 0.68029 0.78784 0.8077 0.0
C170 C 0.69908 0.90146 0.83213 0.0
C171 C 0.70547 0.92226 0.7941 0.0
N172 N 0.71093 0.89769 0.72643 0.0
N173 N 0.65167 0.80448 0.8724 0.0
C174 C 0.70771 0.87921 0.76342 0.0
C175 C 0.67827 0.83117 0.83834 0.0
N176 N 0.71741 0.7779 0.74473 0.0
N177 N 0.71359 0.9492 0.86229 0.0
H178 H 0.63358 0.75284 0.87834 0.0
H179 H 0.64166 0.83221 0.89373 0.0
H180 H 0.73099 1.00172 0.85852 0.0
H181 H 0.71598 0.93854 0.89085 0.0
H182 H 0.73967 0.79765 0.71905 0.0
H183 H 0.7149 0.73084 0.7501 0.0
H184 H 0.70356 0.86394 0.70269 0.0
H185 H 0.71621 0.94492 0.719 0.0
C186 C 0.83982 0.68132 0.16064 0.0
C187 C 0.86427 0.65658 0.19024 0.0
C188 C 0.74467 0.57351 0.20502 0.0
C189 C 0.72182 0.58499 0.16926 0.0
N190 N 0.74213 0.65825 0.11674 0.0
N191 N 0.84269 0.60925 0.25182 0.0
C192 C 0.76744 0.64306 0.14873 0.0
C193 C 0.81712 0.61317 0.2166 0.0
N194 N 0.88651 0.74013 0.14395 0.0
N195 N 0.69791 0.52193 0.22626 0.0
H196 H 0.89593 0.64046 0.26023 0.0
H197 H 0.81144 0.58069 0.2734 0.0
H198 H 0.64423 0.49408 0.21863 0.0
H199 H 0.7121 0.50587 0.25074 0.0
H200 H 0.87271 0.76353 0.12299 0.0
H201 H 0.93912 0.76867 0.15402 0.0
H202 H 0.77349 0.6952 0.09811 0.0
H203 H 0.68876 0.63277 0.10866 0.0
C204 C 0.30192 0.80094 0.47716 0.0
C205 C 0.29277 0.85702 0.46714 0.0
C206 C 0.16877 0.7753 0.45018 0.0
C207 C 0.18169 0.71909 0.45322 0.0
N208 N 0.26386 0.67896 0.46442 0.0
N209 N 0.21884 0.90008 0.44452 0.0
C210 C 0.24893 0.73181 0.46576 0.0
C211 C 0.22627 0.84512 0.45417 0.0
N212 N 0.36093 0.81378 0.49806 0.0
N213 N 0.10165 0.76155 0.44366 0.0
H214 H 0.25983 0.95185 0.44842 0.0
H215 H 0.17351 0.89428 0.43093 0.0
H216 H 0.05868 0.71073 0.44096 0.0
H217 H 0.08792 0.80008 0.4442 0.0
H218 H 0.36754 0.7744 0.50892 0.0
H219 H 0.39956 0.86398 0.50838 0.0
H220 H 0.31448 0.6876 0.46896 0.0
H221 H 0.22733 0.62729 0.45538 0.0
C222 C 0.42835 0.15549 0.80151 0.0
C223 C 0.47472 0.21809 0.82352 0.0
C224 C 0.56359 0.18436 0.82788 0.0
C225 C 0.51883 0.1229 0.80403 0.0
N226 N 0.40146 0.03876 0.77933 0.0
N227 N 0.57188 0.27777 0.87049 0.0
C228 C 0.4483 0.10442 0.7949 0.0
C229 C 0.53696 0.22697 0.84151 0.0
N230 N 0.36708 0.14665 0.7856 0.0
N231 N 0.63302 0.20607 0.83454 0.0
H232 H 0.55332 0.30985 0.88097 0.0
H233 H 0.61425 0.2822 0.88686 0.0
H234 H 0.65647 0.17869 0.82393 0.0
H235 H 0.66898 0.25487 0.84787 0.0
H236 H 0.33447 0.10574 0.76557 0.0
H237 H 0.35049 0.1824 0.79172 0.0
H238 H 0.34818 0.02058 0.77437 0.0
H239 H 0.4152 1.00045 0.77476 0.0
C240 C 0.54317 0.81765 0.46748 0.0
C241 C 0.57799 0.8759 0.49547 0.0
C242 C 0.61026 0.80428 0.534 0.0
C243 C 0.56853 0.74429 0.50863 0.0
N244 N 0.48859 0.6919 0.45302 0.0
N245 N 0.62934 0.91566 0.5604 0.0
C246 C 0.53375 0.75065 0.47563 0.0
C247 C 0.60824 0.86711 0.52989 0.0
N248 N 0.5197 0.82613 0.43271 0.0
N249 N 0.65194 0.80106 0.5625 0.0
H250 H 0.62305 0.95907 0.56055 0.0
H251 H 0.64498 0.90847 0.58738 0.0
H252 H 0.65454 0.756 0.56627 0.0
H253 H 0.68901 0.84475 0.57962 0.0
H254 H 0.50176 0.78866 0.40962 0.0
H255 H 0.52294 0.87261 0.42573 0.0
H256 H 0.45413 0.69073 0.43165 0.0
H257 H 0.48243 0.64295 0.45731 0.0
C258 C 0.75723 0.46238 0.85584 0.0
C259 C 0.75125 0.50549 0.82891 0.0
C260 C 0.87708 0.554 0.8175 0.0
C261 C 0.88052 0.50623 0.842 0.0
N262 N 0.81629 0.40044 0.87435 0.0
N263 N 0.8031 0.58073 0.77733 0.0
C264 C 0.81779 0.45541 0.85752 0.0
C265 C 0.81053 0.54794 0.80767 0.0
N266 N 0.70786 0.43211 0.88213 0.0
N267 N 0.93736 0.60697 0.80483 0.0
H268 H 0.75522 0.57564 0.76848 0.0
H269 H 0.84265 0.607 0.75868 0.0
H270 H 0.98638 0.61251 0.81098 0.0
H271 H 0.93909 0.64791 0.79054 0.0
H272 H 0.71388 0.40628 0.90478 0.0
H273 H 0.66556 0.44023 0.88443 0.0
H274 H 0.77061 0.35918 0.88385 0.0
H275 H 0.85901 0.39257 0.87477 0.0
C276 C 0.29705 0.7773 0.14523 0.0
C277 C 0.23795 0.76163 0.1671 0.0
C278 C 0.3063 0.88055 0.19898 0.0
C279 C 0.3688 0.89089 0.1827 0.0
N280 N 0.42391 0.84135 0.14392 0.0
N281 N 0.19531 0.79603 0.22223 0.0
C282 C 0.36425 0.83723 0.15662 0.0
C283 C 0.24479 0.81285 0.19584 0.0
N284 N 0.28887 0.73677 0.11264 0.0
N285 N 0.3054 0.93572 0.21745 0.0
H286 H 0.15277 0.74575 0.22375 0.0
H287 H 0.20146 0.82991 0.24568 0.0
H288 H 0.34859 0.9864 0.21924 0.0
H289 H 0.25967 0.93242 0.227 0.0
H290 H 0.32878 0.74913 0.09398 0.0
H291 H 0.24018 0.69575 0.10187 0.0
H292 H 0.42391 0.80021 0.12821 0.0
H293 H 0.47385 0.88316 0.15196 0.0
C294 C 0.6054 0.32101 0.48109 0.0
C295 C 0.54787 0.25643 0.49131 0.0
C296 C 0.48641 0.32036 0.50843 0.0
C297 C 0.5485 0.38569 0.50524 0.0
N298 N 0.67058 0.44766 0.49175 0.0
N299 N 0.43701 0.19874 0.52128 0.0
C300 C 0.60881 0.38585 0.49208 0.0
C301 C 0.48874 0.25697 0.50622 0.0
N302 N 0.65603 0.3206 0.45978 0.0
N303 N 0.42499 0.31911 0.51415 0.0
H304 H 0.43801 0.15256 0.52294 0.0
H305 H 0.39676 0.19867 0.53609 0.0
H306 H 0.42181 0.36454 0.51574 0.0
H307 H 0.37658 0.27302 0.51321 0.0
H308 H 0.6957 0.36522 0.44859 0.0
H309 H 0.65405 0.27462 0.44968 0.0
H310 H 0.71827 0.45052 0.48715 0.0
H311 H 0.67495 0.49596 0.49871 0.0
C312 C 0.32437 0.48787 0.8659 0.0
C313 C 0.3476 0.48819 0.82829 0.0
C314 C 0.25382 0.5084 0.80311 0.0
C315 C 0.23057 0.50755 0.84071 0.0
N316 N 0.23157 0.47677 0.90571 0.0
N317 N 0.32025 0.47714 0.76033 0.0
C318 C 0.26222 0.49111 0.87135 0.0
C319 C 0.308 0.49204 0.79663 0.0
N320 N 0.3632 0.48744 0.89686 0.0
N321 N 0.22655 0.52779 0.77383 0.0
H322 H 0.3559 0.46043 0.7552 0.0
H323 H 0.28983 0.47342 0.73603 0.0
H324 H 0.18637 0.53881 0.77736 0.0
H325 H 0.24686 0.53732 0.74682 0.0
H326 H 0.35455 0.4965 0.92516 0.0
H327 H 0.40732 0.48279 0.89424 0.0
H328 H 0.24749 0.45756 0.9281 0.0
H329 H 0.18521 0.47676 0.91033 0.0
C330 C 0.84448 0.29571 0.16692 0.0
C331 C 0.84838 0.35439 0.14943 0.0
C332 C 0.71874 0.2947 0.14646 0.0
C333 C 0.71496 0.23644 0.16381 0.0
N334 N 0.77278 0.17441 0.18247 0.0
N335 N 0.78746 0.3985 0.11225 0.0
C336 C 0.77746 0.23454 0.17102 0.0
C337 C 0.78482 0.35027 0.13606 0.0
N338 N 0.90408 0.29977 0.18217 0.0
N339 N 0.65907 0.2979 0.14076 0.0
H340 H 0.83436 0.43774 0.10269 0.0
H341 H 0.74324 0.39513 0.09864 0.0
H342 H 0.60946 0.25651 0.14573 0.0
H343 H 0.65914 0.34273 0.1331 0.0
H344 H 0.90398 0.26296 0.19959 0.0
H345 H 0.95393 0.34233 0.1798 0.0
H346 H 0.81534 0.16655 0.18455 0.0
H347 H 0.72491 0.12978 0.18649 0.0
C348 C 0.05767 0.60627 0.0228 0.0
C349 C 1.01241 0.54519 0.04156 0.0
C350 C 0.97595 0.47542 0.97968 0.0
C351 C 1.02204 0.53624 0.96114 0.0
N352 N 0.11539 0.65628 0.96479 0.0
N353 N 0.93344 0.42062 0.03914 0.0
C354 C 0.06589 0.60059 0.98272 0.0
C355 C 0.9729 0.47947 0.0203 0.0
N356 N 0.08922 0.67036 0.04274 0.0
N357 N 0.93405 0.414 0.95814 0.0
H358 H 0.92668 0.422 0.06841 0.0
H359 H 0.91004 0.36994 0.02646 0.0
H360 H 0.93939 0.40737 0.92892 0.0
H361 H 0.89238 0.37007 0.96857 0.0
H362 H 0.11655 0.71751 0.02998 0.0
H363 H 0.0833 0.67738 0.07181 0.0
H364 H 0.15443 0.70226 0.97934 0.0
H365 H 0.12098 0.65467 0.93528 0.0
C366 C 0.57906 1.00673 0.35472 0.0
C367 C 0.57096 0.05799 0.37654 0.0
C368 C 0.51558 0.07501 0.31922 0.0
C369 C 0.53074 0.02979 0.29688 0.0
N370 N 0.58537 0.95962 0.29181 0.0
N371 N 0.54717 0.15329 0.37619 0.0
C372 C 0.56477 0.99752 0.31421 0.0
C373 C 0.54286 0.09518 0.35803 0.0
N374 N 0.59839 0.96508 0.37269 0.0
N375 N 0.47497 0.09876 0.30333 0.0
H376 H 0.57233 0.17423 0.40317 0.0
H377 H 0.53359 0.18597 0.36263 0.0
H378 H 0.45512 0.08603 0.27479 0.0
H379 H 0.45578 0.12565 0.31934 0.0
H380 H 0.59665 0.92146 0.35898 0.0
H381 H 0.61035 0.96983 0.40208 0.0
H382 H 0.61826 0.94228 0.30203 0.0
H383 H 0.57399 0.94987 0.2622 0.0
C384 C 0.58627 0.48527 0.68911 0.0
C385 C 0.53529 0.49567 0.70739 0.0
C386 C 0.49682 0.51639 0.64552 0.0
C387 C 0.55136 0.5115 0.62775 0.0
N388 N 0.66021 0.51159 0.63539 0.0
N389 N 0.45822 0.54266 0.70486 0.0
C390 C 0.60009 0.50249 0.65047 0.0
C391 C 0.49549 0.5179 0.68615 0.0
N392 N 0.61893 0.45553 0.7076 0.0
N393 N 0.44429 0.51607 0.62379 0.0
H394 H 0.46029 0.5487 0.73473 0.0
H395 H 0.43266 0.56486 0.69094 0.0
H396 H 0.44128 0.51205 0.59387 0.0
H397 H 0.39999 0.51273 0.63552 0.0
H398 H 0.65115 0.44065 0.69394 0.0
H399 H 0.60862 0.43902 0.73529 0.0
H400 H 0.70052 0.51202 0.65183 0.0
H401 H 0.67305 0.52621 0.60749 0.0
C402 C 0.62192 0.08078 0.61771 0.0
C403 C 0.55408 0.04621 0.59885 0.0
C404 C 0.50314 1.00018 0.65981 0.0
C405 C 0.56918 0.04659 0.67918 0.0
N406 N 0.69085 0.13564 0.67729 0.0
N407 N 0.43111 0.96034 0.6001 0.0
C408 C 0.62858 0.08789 0.65835 0.0
C409 C 0.49477 1.00211 0.61942 0.0
N410 N 0.67994 0.10361 0.59705 0.0
N411 N 0.44948 0.95278 0.67998 0.0
H412 H 0.42556 0.95019 0.57037 0.0
H413 H 0.38385 0.93503 0.61329 0.0
H414 H 0.45433 0.9495 0.70949 0.0
H415 H 0.4016 0.91335 0.66752 0.0
H416 H 0.73045 0.12452 0.60958 0.0
H417 H 0.67661 0.09202 0.56764 0.0
H418 H 0.73353 0.17262 0.66337 0.0
H419 H 0.69807 0.14235 0.70716 0.0
C420 C 0.59356 0.55899 0.95628 0.0
C421 C 0.54499 0.50331 0.93026 0.0
C422 C 0.49584 0.43036 0.98414 0.0
C423 C 0.5332 0.49052 0.00987 0.0
N424 N 0.61281 0.61554 0.01977 0.0
N425 N 0.44586 0.3864 0.91956 0.0
C426 C 0.5817 0.55575 -0.00406 0.0
C427 C 0.49574 0.43849 0.94412 0.0
N428 N 0.65125 0.61465 0.94312 0.0
N429 N 0.45991 0.36577 -0.00191 0.0
H430 H 0.44302 0.39188 0.89034 0.0
H431 H 0.40396 0.3408 0.92856 0.0
H432 H 0.45963 0.3586 0.02742 0.0
H433 H 0.43658 0.31941 0.9806 0.0
H434 H 0.69139 0.65384 0.96133 0.0
H435 H 0.66278 0.61731 0.91427 0.0
H436 H 0.64242 0.66517 0.00983 0.0
H437 H 0.60416 0.61664 0.04887 0.0
C438 C 0.11326 0.55438 0.28001 0.0
C439 C 0.04724 0.53123 0.2605 0.0
C440 C 0.9968 0.53481 0.32139 0.0
C441 C 0.06097 0.55172 0.34101 0.0
N442 N 0.17602 0.56474 0.34013 0.0
N443 N 0.9232 0.48781 0.26254 0.0
C444 C 0.11806 0.55783 0.32064 0.0
C445 C 0.98803 0.51809 0.28115 0.0
N446 N 0.17175 0.57467 0.2598 0.0
N447 N 0.94517 0.53677 0.34104 0.0
H448 H 0.9149 0.47428 0.23317 0.0
H449 H 0.87702 0.47056 0.27661 0.0
H450 H 0.94958 0.54815 0.37066 0.0
H451 H 0.90045 0.53269 0.32764 0.0
H452 H 0.22236 0.59964 0.27265 0.0
H453 H 0.1707 0.57208 0.2299 0.0
H454 H 0.21595 0.56175 0.3267 0.0
H455 H 0.18141 0.56706 0.37002 0.0
loop_
_geom_bond_atom_site_label_1
_geom_bond_atom_site_label_2
_geom_bond_distance
_geom_bond_site_symmetry_2
_ccdc_geom_bond_type
Dy0 O4 2.398 . S
Dy0 O5 2.491 . S
Dy0 O6 2.403 . S
Dy0 O7 2.664 . S
Dy0 O11 2.326 . S
Dy0 O15 2.310 . S
Dy0 O16 2.351 1_455 S
C1 O12 1.185 . S
C1 O13 1.355 . S
C2 O4 1.185 . S
C2 O5 1.355 . S
Dy3 O7 2.310 . S
Dy3 O10 2.351 . S
Dy3 O12 2.398 1_455 S
Dy3 O13 2.491 1_455 S
Dy3 O14 2.403 . S
Dy3 O15 2.664 . S
Dy3 O17 2.326 1_455 S
O4 Dy0 2.398 . S
O4 C2 1.185 . S
O5 Dy0 2.491 . S
O5 C2 1.355 . S
O6 Dy0 2.403 . S
O6 C8 1.254 . S
O7 Dy0 2.664 . S
O7 Dy3 2.310 . S
O7 C8 1.268 . S
C8 O6 1.254 . S
C8 O7 1.268 . S
C9 O14 1.254 . S
C9 O15 1.268 . S
O10 Dy3 2.351 . S
O10 C18 1.249 . S
O11 Dy0 2.326 . S
O11 C18 1.267 . S
O12 C1 1.185 . S
O12 Dy3 2.398 1_655 S
O13 C1 1.355 . S
O13 Dy3 2.491 1_655 S
O14 Dy3 2.403 . S
O14 C9 1.254 . S
O15 Dy0 2.310 . S
O15 Dy3 2.664 . S
O15 C9 1.268 . S
O16 Dy0 2.351 1_655 S
O16 C19 1.249 . S
O17 Dy3 2.326 1_655 S
O17 C19 1.267 . S
C18 O10 1.249 . S
C18 O11 1.267 . S
C19 O16 1.249 . S
C19 O17 1.267 . S
Dy20 O24 2.398 . S
Dy20 O25 2.491 . S
Dy20 O26 2.403 . S
Dy20 O27 2.664 1_565 S
Dy20 O31 2.326 . S
Dy20 O35 2.310 . S
Dy20 O36 2.351 1_565 S
C21 O32 1.185 . S
C21 O33 1.355 . S
C22 O24 1.185 . S
C22 O25 1.355 . S
Dy23 O27 2.310 . S
Dy23 O30 2.351 1_545 S
Dy23 O32 2.398 . S
Dy23 O33 2.491 . S
Dy23 O34 2.403 . S
Dy23 O35 2.664 1_545 S
Dy23 O37 2.326 . S
O24 Dy20 2.398 . S
O24 C22 1.185 . S
O25 Dy20 2.491 . S
O25 C22 1.355 . S
O26 Dy20 2.403 . S
O26 C28 1.254 1_565 S
O27 Dy20 2.664 1_545 S
O27 Dy23 2.310 . S
O27 C28 1.268 . S
C28 O26 1.254 1_545 S
C28 O27 1.268 . S
C29 O34 1.254 . S
C29 O35 1.268 1_545 S
O30 Dy23 2.351 1_565 S
O30 C38 1.249 . S
O31 Dy20 2.326 . S
O31 C38 1.267 . S
O32 C21 1.185 . S
O32 Dy23 2.398 . S
O33 C21 1.355 . S
O33 Dy23 2.491 . S
O34 Dy23 2.403 . S
O34 C29 1.254 . S
O35 Dy20 2.310 . S
O35 Dy23 2.664 1_565 S
O35 C29 1.268 1_565 S
O36 Dy20 2.351 1_545 S
O36 C39 1.249 . S
O37 Dy23 2.326 . S
O37 C39 1.267 . S
C38 O30 1.249 . S
C38 O31 1.267 . S
C39 O36 1.249 . S
C39 O37 1.267 . S
Dy40 O44 2.398 . S
Dy40 O45 2.491 . S
Dy40 O46 2.403 . S
Dy40 O47 2.664 . S
Dy40 O51 2.326 . S
Dy40 O55 2.310 . S
Dy40 O56 2.351 . S
C41 O52 1.185 . S
C41 O53 1.355 . S
C42 O44 1.185 . S
C42 O45 1.355 . S
Dy43 O47 2.310 . S
Dy43 O50 2.351 . S
Dy43 O52 2.398 . S
Dy43 O53 2.491 . S
Dy43 O54 2.403 . S
Dy43 O55 2.664 . S
Dy43 O57 2.326 . S
O44 Dy40 2.398 . S
O44 C42 1.185 . S
O45 Dy40 2.491 . S
O45 C42 1.355 . S
O46 Dy40 2.403 . S
O46 C48 1.254 . S
O47 Dy40 2.664 . S
O47 Dy43 2.310 . S
O47 C48 1.268 . S
C48 O46 1.254 . S
C48 O47 1.268 . S
C49 O54 1.254 . S
C49 O55 1.268 . S
O50 Dy43 2.351 . S
O50 C58 1.249 . S
O51 Dy40 2.326 . S
O51 C58 1.267 . S
O52 C41 1.185 . S
O52 Dy43 2.398 . S
O53 C41 1.355 . S
O53 Dy43 2.491 . S
O54 Dy43 2.403 . S
O54 C49 1.254 . S
O55 Dy40 2.310 . S
O55 Dy43 2.664 . S
O55 C49 1.268 . S
O56 Dy40 2.351 . S
O56 C59 1.249 . S
O57 Dy43 2.326 . S
O57 C59 1.267 . S
C58 O50 1.249 . S
C58 O51 1.267 . S
C59 O56 1.249 . S
C59 O57 1.267 . S
H60 C65 0.930 . S
H61 C68 0.930 . S
H62 C70 0.930 . S
H63 C64 1.016 . S
C64 H63 1.016 . S
C64 N71 1.286 . S
C65 H60 0.930 . S
C65 C66 1.397 . S
C65 C67 1.361 1_565 S
C66 C65 1.397 . S
C66 C70 1.390 . S
C67 C65 1.361 1_545 S
C67 C68 1.393 . S
C67 N71 1.413 . S
C68 H61 0.930 . S
C68 C67 1.393 . S
C68 C69 1.399 1_545 S
C69 C68 1.399 1_565 S
C69 C70 1.381 . S
C70 H62 0.930 . S
C70 C66 1.390 . S
C70 C69 1.381 . S
N71 C64 1.286 . S
N71 C67 1.413 . S
H72 C77 0.930 . S
H73 C80 0.930 . S
H74 C82 0.930 . S
H75 C76 1.016 . S
C76 H75 1.016 . S
C76 N83 1.286 . S
C77 H72 0.930 . S
C77 C78 1.397 . S
C77 C79 1.361 . S
C78 C77 1.397 . S
C78 C82 1.390 . S
C79 C77 1.361 . S
C79 C80 1.393 . S
C79 N83 1.413 . S
C80 H73 0.930 . S
C80 C79 1.393 . S
C80 C81 1.399 . S
C81 C80 1.399 . S
C81 C82 1.381 . S
C82 H74 0.930 . S
C82 C78 1.390 . S
C82 C81 1.381 . S
N83 C76 1.286 . S
N83 C79 1.413 . S
H84 C89 0.929 1_655 S
H85 C92 0.930 . S
H86 C94 0.930 . S
H87 C88 1.016 . S
C88 H87 1.016 . S
C88 N95 1.286 . S
C89 H84 0.929 1_455 S
C89 C90 1.392 1_455 S
C89 C91 1.367 . S
C90 C89 1.392 1_655 S
C90 C94 1.390 . S
C91 C89 1.367 . S
C91 C92 1.393 . S
C91 N95 1.413 . S
C92 H85 0.930 . S
C92 C91 1.393 . S
C92 C93 1.399 . S
C93 C92 1.399 . S
C93 C94 1.381 1_455 S
C94 H86 0.930 . S
C94 C90 1.390 . S
C94 C93 1.381 1_655 S
N95 C88 1.286 . S
N95 C91 1.413 . S
H96 C101 0.930 . S
H97 C104 0.930 . S
H98 C106 0.930 . S
H99 C100 1.016 . S
C100 H99 1.016 . S
C100 N107 1.286 . S
C101 H96 0.930 . S
C101 C102 1.397 . S
C101 C103 1.361 1_455 S
C102 C101 1.397 . S
C102 C106 1.390 . S
C103 C101 1.361 1_655 S
C103 C104 1.393 . S
C103 N107 1.413 . S
C104 H97 0.930 . S
C104 C103 1.393 . S
C104 C105 1.399 1_655 S
C105 C104 1.399 1_455 S
C105 C106 1.381 . S
C106 H98 0.930 . S
C106 C102 1.390 . S
C106 C105 1.381 . S
N107 C100 1.286 . S
N107 C103 1.413 . S
H108 C113 0.930 . S
H109 C116 0.930 1_565 S
H110 C118 0.930 . S
H111 C112 1.016 . S
C112 H111 1.016 . S
C112 N119 1.286 . S
C113 H108 0.930 . S
C113 C114 1.397 . S
C113 C115 1.361 . S
C114 C113 1.397 . S
C114 C118 1.390 . S
C115 C113 1.361 . S
C115 C116 1.393 . S
C115 N119 1.413 1_545 S
C116 H109 0.930 1_545 S
C116 C115 1.393 . S
C116 C117 1.399 . S
C117 C116 1.399 . S
C117 C118 1.381 . S
C118 H110 0.930 . S
C118 C114 1.390 . S
C118 C117 1.381 . S
N119 C112 1.286 . S
N119 C115 1.413 1_565 S
H120 C125 0.930 . S
H121 C128 0.930 . S
H122 C130 0.930 . S
H123 C124 1.016 . S
C124 H123 1.016 . S
C124 N131 1.286 . S
C125 H120 0.930 . S
C125 C126 1.397 . S
C125 C127 1.361 . S
C126 C125 1.397 . S
C126 C130 1.390 . S
C127 C125 1.361 . S
C127 C128 1.393 . S
C127 N131 1.413 . S
C128 H121 0.930 . S
C128 C127 1.393 . S
C128 C129 1.399 . S
C129 C128 1.399 . S
C129 C130 1.381 . S
C130 H122 0.930 . S
C130 C126 1.390 . S
C130 C129 1.381 . S
N131 C124 1.286 . S
N131 C127 1.413 . S
C132 C133 1.363 . S
C132 C138 1.379 . S
C132 N140 1.356 . S
C133 C132 1.363 . S
C133 C139 1.363 . S
C134 C135 1.363 . S
C134 C139 1.379 . S
C134 N141 1.356 . S
C135 C134 1.363 . S
C135 C138 1.363 . S
N136 C138 1.356 . S
N136 H148 0.984 . S
N136 H149 0.985 . S
N137 C139 1.356 . S
N137 H142 0.984 . S
N137 H143 0.985 . S
C138 C132 1.379 . S
C138 C135 1.363 . S
C138 N136 1.356 . S
C139 C133 1.363 . S
C139 C134 1.379 . S
C139 N137 1.356 . S
N140 C132 1.356 . S
N140 H146 0.984 . S
N140 H147 0.984 . S
N141 C134 1.356 . S
N141 H144 0.984 . S
N141 H145 0.985 . S
H142 N137 0.984 . S
H143 N137 0.985 . S
H144 N141 0.984 . S
H145 N141 0.985 . S
H146 N140 0.984 . S
H147 N140 0.984 . S
H148 N136 0.984 . S
H149 N136 0.985 . S
C150 C151 1.363 . S
C150 C156 1.379 . S
C150 N158 1.356 . S
C151 C150 1.363 . S
C151 C157 1.363 . S
C152 C153 1.363 . S
C152 C157 1.379 . S
C152 N159 1.356 . S
C153 C152 1.363 . S
C153 C156 1.363 . S
N154 C156 1.356 . S
N154 H166 0.984 . S
N154 H167 0.985 . S
N155 C157 1.356 . S
N155 H160 0.984 . S
N155 H161 0.985 . S
C156 C150 1.379 . S
C156 C153 1.363 . S
C156 N154 1.356 . S
C157 C151 1.363 . S
C157 C152 1.379 . S
C157 N155 1.356 . S
N158 C150 1.356 . S
N158 H164 0.984 . S
N158 H165 0.984 . S
N159 C152 1.356 . S
N159 H162 0.984 . S
N159 H163 0.985 . S
H160 N155 0.984 . S
H161 N155 0.985 . S
H162 N159 0.984 . S
H163 N159 0.985 . S
H164 N158 0.984 . S
H165 N158 0.984 . S
H166 N154 0.984 . S
H167 N154 0.985 . S
C168 C169 1.363 . S
C168 C174 1.379 . S
C168 N176 1.356 . S
C169 C168 1.363 . S
C169 C175 1.363 . S
C170 C171 1.363 . S
C170 C175 1.379 . S
C170 N177 1.356 . S
C171 C170 1.363 . S
C171 C174 1.363 . S
N172 C174 1.356 . S
N172 H184 0.984 . S
N172 H185 0.985 . S
N173 C175 1.356 . S
N173 H178 0.984 . S
N173 H179 0.985 . S
C174 C168 1.379 . S
C174 C171 1.363 . S
C174 N172 1.356 . S
C175 C169 1.363 . S
C175 C170 1.379 . S
C175 N173 1.356 . S
N176 C168 1.356 . S
N176 H182 0.984 . S
N176 H183 0.984 . S
N177 C170 1.356 . S
N177 H180 0.984 . S
N177 H181 0.985 . S
H178 N173 0.984 . S
H179 N173 0.985 . S
H180 N177 0.984 . S
H181 N177 0.985 . S
H182 N176 0.984 . S
H183 N176 0.984 . S
H184 N172 0.984 . S
H185 N172 0.985 . S
C186 C187 1.363 . S
C186 C192 1.379 . S
C186 N194 1.356 . S
C187 C186 1.363 . S
C187 C193 1.363 . S
C188 C189 1.363 . S
C188 C193 1.379 . S
C188 N195 1.356 . S
C189 C188 1.363 . S
C189 C192 1.363 . S
N190 C192 1.356 . S
N190 H202 0.984 . S
N190 H203 0.985 . S
N191 C193 1.356 . S
N191 H196 0.984 . S
N191 H197 0.985 . S
C192 C186 1.379 . S
C192 C189 1.363 . S
C192 N190 1.356 . S
C193 C187 1.363 . S
C193 C188 1.379 . S
C193 N191 1.356 . S
N194 C186 1.356 . S
N194 H200 0.984 . S
N194 H201 0.984 . S
N195 C188 1.356 . S
N195 H198 0.984 . S
N195 H199 0.985 . S
H196 N191 0.984 . S
H197 N191 0.985 . S
H198 N195 0.984 . S
H199 N195 0.985 . S
H200 N194 0.984 . S
H201 N194 0.984 . S
H202 N190 0.984 . S
H203 N190 0.985 . S
C204 C205 1.363 . S
C204 C210 1.379 . S
C204 N212 1.356 . S
C205 C204 1.363 . S
C205 C211 1.363 . S
C206 C207 1.363 . S
C206 C211 1.379 . S
C206 N213 1.356 . S
C207 C206 1.363 . S
C207 C210 1.363 . S
N208 C210 1.356 . S
N208 H220 0.984 . S
N208 H221 0.985 . S
N209 C211 1.356 . S
N209 H214 0.984 . S
N209 H215 0.985 . S
C210 C204 1.379 . S
C210 C207 1.363 . S
C210 N208 1.356 . S
C211 C205 1.363 . S
C211 C206 1.379 . S
C211 N209 1.356 . S
N212 C204 1.356 . S
N212 H218 0.984 . S
N212 H219 0.984 . S
N213 C206 1.356 . S
N213 H216 0.984 . S
N213 H217 0.985 . S
H214 N209 0.984 . S
H215 N209 0.985 . S
H216 N213 0.984 . S
H217 N213 0.985 . S
H218 N212 0.984 . S
H219 N212 0.984 . S
H220 N208 0.984 . S
H221 N208 0.985 . S
C222 C223 1.363 . S
C222 C228 1.379 . S
C222 N230 1.356 . S
C223 C222 1.363 . S
C223 C229 1.363 . S
C224 C225 1.363 . S
C224 C229 1.379 . S
C224 N231 1.356 . S
C225 C224 1.363 . S
C225 C228 1.363 . S
N226 C228 1.356 . S
N226 H238 0.984 . S
N226 H239 0.985 . S
N227 C229 1.356 . S
N227 H232 0.984 . S
N227 H233 0.985 . S
C228 C222 1.379 . S
C228 C225 1.363 . S
C228 N226 1.356 . S
C229 C223 1.363 . S
C229 C224 1.379 . S
C229 N227 1.356 . S
N230 C222 1.356 . S
N230 H236 0.984 . S
N230 H237 0.984 . S
N231 C224 1.356 . S
N231 H234 0.984 . S
N231 H235 0.985 . S
H232 N227 0.984 . S
H233 N227 0.985 . S
H234 N231 0.984 . S
H235 N231 0.985 . S
H236 N230 0.984 . S
H237 N230 0.984 . S
H238 N226 0.984 . S
H239 N226 0.985 . S
C240 C241 1.363 . S
C240 C246 1.379 . S
C240 N248 1.356 . S
C241 C240 1.363 . S
C241 C247 1.363 . S
C242 C243 1.363 . S
C242 C247 1.379 . S
C242 N249 1.356 . S
C243 C242 1.363 . S
C243 C246 1.363 . S
N244 C246 1.356 . S
N244 H256 0.984 . S
N244 H257 0.985 . S
N245 C247 1.356 . S
N245 H250 0.984 . S
N245 H251 0.985 . S
C246 C240 1.379 . S
C246 C243 1.363 . S
C246 N244 1.356 . S
C247 C241 1.363 . S
C247 C242 1.379 . S
C247 N245 1.356 . S
N248 C240 1.356 . S
N248 H254 0.984 . S
N248 H255 0.984 . S
N249 C242 1.356 . S
N249 H252 0.984 . S
N249 H253 0.985 . S
H250 N245 0.984 . S
H251 N245 0.985 . S
H252 N249 0.984 . S
H253 N249 0.985 . S
H254 N248 0.984 . S
H255 N248 0.984 . S
H256 N244 0.984 . S
H257 N244 0.985 . S
C258 C259 1.363 . S
C258 C264 1.379 . S
C258 N266 1.356 . S
C259 C258 1.363 . S
C259 C265 1.363 . S
C260 C261 1.363 . S
C260 C265 1.379 . S
C260 N267 1.356 . S
C261 C260 1.363 . S
C261 C264 1.363 . S
N262 C264 1.356 . S
N262 H274 0.984 . S
N262 H275 0.985 . S
N263 C265 1.356 . S
N263 H268 0.984 . S
N263 H269 0.985 . S
C264 C258 1.379 . S
C264 C261 1.363 . S
C264 N262 1.356 . S
C265 C259 1.363 . S
C265 C260 1.379 . S
C265 N263 1.356 . S
N266 C258 1.356 . S
N266 H272 0.984 . S
N266 H273 0.984 . S
N267 C260 1.356 . S
N267 H270 0.984 . S
N267 H271 0.985 . S
H268 N263 0.984 . S
H269 N263 0.985 . S
H270 N267 0.984 . S
H271 N267 0.985 . S
H272 N266 0.984 . S
H273 N266 0.984 . S
H274 N262 0.984 . S
H275 N262 0.985 . S
C276 C277 1.363 . S
C276 C282 1.379 . S
C276 N284 1.356 . S
C277 C276 1.363 . S
C277 C283 1.363 . S
C278 C279 1.363 . S
C278 C283 1.379 . S
C278 N285 1.356 . S
C279 C278 1.363 . S
C279 C282 1.363 . S
N280 C282 1.356 . S
N280 H292 0.984 . S
N280 H293 0.985 . S
N281 C283 1.356 . S
N281 H286 0.984 . S
N281 H287 0.985 . S
C282 C276 1.379 . S
C282 C279 1.363 . S
C282 N280 1.356 . S
C283 C277 1.363 . S
C283 C278 1.379 . S
C283 N281 1.356 . S
N284 C276 1.356 . S
N284 H290 0.984 . S
N284 H291 0.984 . S
N285 C278 1.356 . S
N285 H288 0.984 . S
N285 H289 0.985 . S
H286 N281 0.984 . S
H287 N281 0.985 . S
H288 N285 0.984 . S
H289 N285 0.985 . S
H290 N284 0.984 . S
H291 N284 0.984 . S
H292 N280 0.984 . S
H293 N280 0.985 . S
C294 C295 1.363 . S
C294 C300 1.379 . S
C294 N302 1.356 . S
C295 C294 1.363 . S
C295 C301 1.363 . S
C296 C297 1.363 . S
C296 C301 1.379 . S
C296 N303 1.356 . S
C297 C296 1.363 . S
C297 C300 1.363 . S
N298 C300 1.356 . S
N298 H310 0.984 . S
N298 H311 0.985 . S
N299 C301 1.356 . S
N299 H304 0.984 . S
N299 H305 0.985 . S
C300 C294 1.379 . S
C300 C297 1.363 . S
C300 N298 1.356 . S
C301 C295 1.363 . S
C301 C296 1.379 . S
C301 N299 1.356 . S
N302 C294 1.356 . S
N302 H308 0.984 . S
N302 H309 0.984 . S
N303 C296 1.356 . S
N303 H306 0.984 . S
N303 H307 0.985 . S
H304 N299 0.984 . S
H305 N299 0.985 . S
H306 N303 0.984 . S
H307 N303 0.985 . S
H308 N302 0.984 . S
H309 N302 0.984 . S
H310 N298 0.984 . S
H311 N298 0.985 . S
C312 C313 1.363 . S
C312 C318 1.379 . S
C312 N320 1.356 . S
C313 C312 1.363 . S
C313 C319 1.363 . S
C314 C315 1.363 . S
C314 C319 1.379 . S
C314 N321 1.356 . S
C315 C314 1.363 . S
C315 C318 1.363 . S
N316 C318 1.356 . S
N316 H328 0.984 . S
N316 H329 0.985 . S
N317 C319 1.356 . S
N317 H322 0.984 . S
N317 H323 0.985 . S
C318 C312 1.379 . S
C318 C315 1.363 . S
C318 N316 1.356 . S
C319 C313 1.363 . S
C319 C314 1.379 . S
C319 N317 1.356 . S
N320 C312 1.356 . S
N320 H326 0.984 . S
N320 H327 0.984 . S
N321 C314 1.356 . S
N321 H324 0.984 . S
N321 H325 0.985 . S
H322 N317 0.984 . S
H323 N317 0.985 . S
H324 N321 0.984 . S
H325 N321 0.985 . S
H326 N320 0.984 . S
H327 N320 0.984 . S
H328 N316 0.984 . S
H329 N316 0.985 . S
C330 C331 1.363 . S
C330 C336 1.379 . S
C330 N338 1.356 . S
C331 C330 1.363 . S
C331 C337 1.363 . S
C332 C333 1.363 . S
C332 C337 1.379 . S
C332 N339 1.356 . S
C333 C332 1.363 . S
C333 C336 1.363 . S
N334 C336 1.356 . S
N334 H346 0.984 . S
N334 H347 0.985 . S
N335 C337 1.356 . S
N335 H340 0.984 . S
N335 H341 0.985 . S
C336 C330 1.379 . S
C336 C333 1.363 . S
C336 N334 1.356 . S
C337 C331 1.363 . S
C337 C332 1.379 . S
C337 N335 1.356 . S
N338 C330 1.356 . S
N338 H344 0.984 . S
N338 H345 0.984 . S
N339 C332 1.356 . S
N339 H342 0.984 . S
N339 H343 0.985 . S
H340 N335 0.984 . S
H341 N335 0.985 . S
H342 N339 0.984 . S
H343 N339 0.985 . S
H344 N338 0.984 . S
H345 N338 0.984 . S
H346 N334 0.984 . S
H347 N334 0.985 . S
C348 C349 1.363 . S
C348 C354 1.379 1_554 S
C348 N356 1.356 . S
C349 C348 1.363 . S
C349 C355 1.363 . S
C350 C351 1.363 . S
C350 C355 1.379 1_556 S
C350 N357 1.356 . S
C351 C350 1.363 . S
C351 C354 1.363 . S
N352 C354 1.356 . S
N352 H364 0.984 . S
N352 H365 0.985 . S
N353 C355 1.356 . S
N353 H358 0.984 . S
N353 H359 0.985 . S
C354 C348 1.379 1_556 S
C354 C351 1.363 . S
C354 N352 1.356 . S
C355 C349 1.363 . S
C355 C350 1.379 1_554 S
C355 N353 1.356 . S
N356 C348 1.356 . S
N356 H362 0.984 . S
N356 H363 0.984 . S
N357 C350 1.356 . S
N357 H360 0.984 . S
N357 H361 0.985 . S
H358 N353 0.984 . S
H359 N353 0.985 . S
H360 N357 0.984 . S
H361 N357 0.985 . S
H362 N356 0.984 . S
H363 N356 0.984 . S
H364 N352 0.984 . S
H365 N352 0.985 . S
C366 C367 1.363 1_565 S
C366 C372 1.379 . S
C366 N374 1.356 . S
C367 C366 1.363 1_545 S
C367 C373 1.363 . S
C368 C369 1.363 . S
C368 C373 1.379 . S
C368 N375 1.356 . S
C369 C368 1.363 . S
C369 C372 1.363 1_545 S
N370 C372 1.356 . S
N370 H382 0.984 . S
N370 H383 0.985 . S
N371 C373 1.356 . S
N371 H376 0.984 . S
N371 H377 0.985 . S
C372 C366 1.379 . S
C372 C369 1.363 1_565 S
C372 N370 1.356 . S
C373 C367 1.363 . S
C373 C368 1.379 . S
C373 N371 1.356 . S
N374 C366 1.356 . S
N374 H380 0.984 . S
N374 H381 0.984 . S
N375 C368 1.356 . S
N375 H378 0.984 . S
N375 H379 0.985 . S
H376 N371 0.984 . S
H377 N371 0.985 . S
H378 N375 0.984 . S
H379 N375 0.985 . S
H380 N374 0.984 . S
H381 N374 0.984 . S
H382 N370 0.984 . S
H383 N370 0.985 . S
C384 C385 1.363 . S
C384 C390 1.379 . S
C384 N392 1.356 . S
C385 C384 1.363 . S
C385 C391 1.363 . S
C386 C387 1.363 . S
C386 C391 1.379 . S
C386 N393 1.356 . S
C387 C386 1.363 . S
C387 C390 1.363 . S
N388 C390 1.356 . S
N388 H400 0.984 . S
N388 H401 0.985 . S
N389 C391 1.356 . S
N389 H394 0.984 . S
N389 H395 0.985 . S
C390 C384 1.379 . S
C390 C387 1.363 . S
C390 N388 1.356 . S
C391 C385 1.363 . S
C391 C386 1.379 . S
C391 N389 1.356 . S
N392 C384 1.356 . S
N392 H398 0.984 . S
N392 H399 0.984 . S
N393 C386 1.356 . S
N393 H396 0.984 . S
N393 H397 0.985 . S
H394 N389 0.984 . S
H395 N389 0.985 . S
H396 N393 0.984 . S
H397 N393 0.985 . S
H398 N392 0.984 . S
H399 N392 0.984 . S
H400 N388 0.984 . S
H401 N388 0.985 . S
C402 C403 1.363 . S
C402 C408 1.379 . S
C402 N410 1.356 . S
C403 C402 1.363 . S
C403 C409 1.363 1_545 S
C404 C405 1.363 1_565 S
C404 C409 1.379 . S
C404 N411 1.356 . S
C405 C404 1.363 1_545 S
C405 C408 1.363 . S
N406 C408 1.356 . S
N406 H418 0.984 . S
N406 H419 0.985 . S
N407 C409 1.356 . S
N407 H412 0.984 . S
N407 H413 0.985 . S
C408 C402 1.379 . S
C408 C405 1.363 . S
C408 N406 1.356 . S
C409 C403 1.363 1_565 S
C409 C404 1.379 . S
C409 N407 1.356 . S
N410 C402 1.356 . S
N410 H416 0.984 . S
N410 H417 0.984 . S
N411 C404 1.356 . S
N411 H414 0.984 . S
N411 H415 0.985 . S
H412 N407 0.984 . S
H413 N407 0.985 . S
H414 N411 0.984 . S
H415 N411 0.985 . S
H416 N410 0.984 . S
H417 N410 0.984 . S
H418 N406 0.984 . S
H419 N406 0.985 . S
C420 C421 1.363 . S
C420 C426 1.379 1_556 S
C420 N428 1.356 . S
C421 C420 1.363 . S
C421 C427 1.363 . S
C422 C423 1.363 . S
C422 C427 1.379 1_554 S
C422 N429 1.356 . S
C423 C422 1.363 . S
C423 C426 1.363 . S
N424 C426 1.356 . S
N424 H436 0.984 . S
N424 H437 0.985 . S
N425 C427 1.356 . S
N425 H430 0.984 . S
N425 H431 0.985 . S
C426 C420 1.379 1_554 S
C426 C423 1.363 . S
C426 N424 1.356 . S
C427 C421 1.363 . S
C427 C422 1.379 1_556 S
C427 N425 1.356 . S
N428 C420 1.356 . S
N428 H434 0.984 . S
N428 H435 0.984 . S
N429 C422 1.356 . S
N429 H432 0.984 . S
N429 H433 0.985 . S
H430 N425 0.984 . S
H431 N425 0.985 . S
H432 N429 0.984 . S
H433 N429 0.985 . S
H434 N428 0.984 . S
H435 N428 0.984 . S
H436 N424 0.984 . S
H437 N424 0.985 . S
C438 C439 1.363 . S
C438 C444 1.379 . S
C438 N446 1.356 . S
C439 C438 1.363 . S
C439 C445 1.363 1_455 S
C440 C441 1.363 1_655 S
C440 C445 1.379 . S
C440 N447 1.356 . S
C441 C440 1.363 1_455 S
C441 C444 1.363 . S
N442 C444 1.356 . S
N442 H454 0.984 . S
N442 H455 0.985 . S
N443 C445 1.356 . S
N443 H448 0.984 . S
N443 H449 0.985 . S
C444 C438 1.379 . S
C444 C441 1.363 . S
C444 N442 1.356 . S
C445 C439 1.363 1_655 S
C445 C440 1.379 . S
C445 N443 1.356 . S
N446 C438 1.356 . S
N446 H452 0.984 . S
N446 H453 0.984 . S
N447 C440 1.356 . S
N447 H450 0.984 . S
N447 H451 0.985 . S
H448 N443 0.984 . S
H449 N443 0.985 . S
H450 N447 0.984 . S
H451 N447 0.985 . S
H452 N446 0.984 . S
H453 N446 0.984 . S
H454 N442 0.984 . S
H455 N442 0.985 . S
C133 C2 1.248 . S
C135 C126 1.270 . S
C151 C21 1.098 . S
C153 C100 1.099 . S
C169 C42 1.154 . S
C171 C112 1.137 . S
C187 C1 0.929 . S
C189 C124 0.901 . S
C207 C102 1.014 . S
C205 C22 1.023 . S
C225 C114 0.975 . S
C223 C41 0.976 . S
C241 C38 1.960 . S
C243 C76 1.898 . S
C259 C59 2.142 . S
C261 C90 2.123 . S
C277 C18 1.842 . S
C279 C66 1.818 . S
C297 C78 1.865 . S
C295 C39 1.899 . S
C315 C88 1.674 . S
C313 C58 1.787 . S
C331 C19 2.017 . S
C333 C64 1.936 . S
C351 C93 1.626 . S
C349 C9 1.537 . S
C367 C29 1.524 . S
C369 C69 1.628 1_545 S
C385 C49 1.539 . S
C387 C81 1.576 . S
C405 C117 1.495 . S
C403 C28 1.486 . S
C423 C129 1.479 . S
C421 C48 1.438 . S
C439 C8 1.405 . S
C441 C105 1.440 . S
