# Generated by pormake.
# Topology ana-f, (3,3)-cn, num edge types: 1
# Building blocks:
#     Node 0, Type 0, BuildingBlock: WUSLED_clean_sbu_0, # of connection points: 3
#     Node 1, Type 0, BuildingBlock: WUSLED_clean_sbu_0, # of connection points: 3
#     Node 2, Type 0, BuildingBlock: WUSLED_clean_sbu_0, # of connection points: 3
#     Node 3, Type 0, BuildingBlock: WUSLED_clean_sbu_0, # of connection points: 3
#     Node 4, Type 0, BuildingBlock: WUSLED_clean_sbu_0, # of connection points: 3
#     Node 5, Type 0, BuildingBlock: WUSLED_clean_sbu_0, # of connection points: 3
#     Node 6, Type 0, BuildingBlock: WUSLED_clean_sbu_0, # of connection points: 3
#     Node 7, Type 0, BuildingBlock: WUSLED_clean_sbu_0, # of connection points: 3
#     Node 8, Type 0, BuildingBlock: WUSLED_clean_sbu_0, # of connection points: 3
#     Node 9, Type 0, BuildingBlock: WUSLED_clean_sbu_0, # of connection points: 3
#     Node 10, Type 0, BuildingBlock: WUSLED_clean_sbu_0, # of connection points: 3
#     Node 11, Type 0, BuildingBlock: WUSLED_clean_sbu_0, # of connection points: 3
#     Node 12, Type 0, BuildingBlock: WUSLED_clean_sbu_0, # of connection points: 3
#     Node 13, Type 0, BuildingBlock: WUSLED_clean_sbu_0, # of connection points: 3
#     Node 14, Type 0, BuildingBlock: WUSLED_clean_sbu_0, # of connection points: 3
#     Node 15, Type 0, BuildingBlock: WUSLED_clean_sbu_0, # of connection points: 3
#     Node 16, Type 0, BuildingBlock: WUSLED_clean_sbu_0, # of connection points: 3
#     Node 17, Type 0, BuildingBlock: WUSLED_clean_sbu_0, # of connection points: 3
#     Node 18, Type 0, BuildingBlock: WUSLED_clean_sbu_0, # of connection points: 3
#     Node 19, Type 0, BuildingBlock: WUSLED_clean_sbu_0, # of connection points: 3
#     Node 20, Type 0, BuildingBlock: WUSLED_clean_sbu_0, # of connection points: 3
#     Node 21, Type 0, BuildingBlock: WUSLED_clean_sbu_0, # of connection points: 3
#     Node 22, Type 0, BuildingBlock: WUSLED_clean_sbu_0, # of connection points: 3
#     Node 23, Type 0, BuildingBlock: WUSLED_clean_sbu_0, # of connection points: 3
#     Node 24, Type 0, BuildingBlock: WUSLED_clean_sbu_0, # of connection points: 3
#     Node 25, Type 0, BuildingBlock: WUSLED_clean_sbu_0, # of connection points: 3
#     Node 26, Type 0, BuildingBlock: WUSLED_clean_sbu_0, # of connection points: 3
#     Node 27, Type 0, BuildingBlock: WUSLED_clean_sbu_0, # of connection points: 3
#     Node 28, Type 0, BuildingBlock: WUSLED_clean_sbu_0, # of connection points: 3
#     Node 29, Type 0, BuildingBlock: WUSLED_clean_sbu_0, # of connection points: 3
#     Node 30, Type 0, BuildingBlock: WUSLED_clean_sbu_0, # of connection points: 3
#     Node 31, Type 0, BuildingBlock: WUSLED_clean_sbu_0, # of connection points: 3
#     Node 32, Type 0, BuildingBlock: WUSLED_clean_sbu_0, # of connection points: 3
#     Node 33, Type 0, BuildingBlock: WUSLED_clean_sbu_0, # of connection points: 3
#     Node 34, Type 0, BuildingBlock: WUSLED_clean_sbu_0, # of connection points: 3
#     Node 35, Type 0, BuildingBlock: WUSLED_clean_sbu_0, # of connection points: 3
#     Node 36, Type 0, BuildingBlock: WUSLED_clean_sbu_0, # of connection points: 3
#     Node 37, Type 0, BuildingBlock: WUSLED_clean_sbu_0, # of connection points: 3
#     Node 38, Type 0, BuildingBlock: WUSLED_clean_sbu_0, # of connection points: 3
#     Node 39, Type 0, BuildingBlock: WUSLED_clean_sbu_0, # of connection points: 3
#     Node 40, Type 0, BuildingBlock: WUSLED_clean_sbu_0, # of connection points: 3
#     Node 41, Type 0, BuildingBlock: WUSLED_clean_sbu_0, # of connection points: 3
#     Node 42, Type 0, BuildingBlock: WUSLED_clean_sbu_0, # of connection points: 3
#     Node 43, Type 0, BuildingBlock: WUSLED_clean_sbu_0, # of connection points: 3
#     Node 44, Type 0, BuildingBlock: WUSLED_clean_sbu_0, # of connection points: 3
#     Node 45, Type 0, BuildingBlock: WUSLED_clean_sbu_0, # of connection points: 3
#     Node 46, Type 0, BuildingBlock: WUSLED_clean_sbu_0, # of connection points: 3
#     Node 47, Type 0, BuildingBlock: WUSLED_clean_sbu_0, # of connection points: 3
#     Node 48, Type 0, BuildingBlock: WUSLED_clean_sbu_0, # of connection points: 3
#     Node 49, Type 0, BuildingBlock: WUSLED_clean_sbu_0, # of connection points: 3
#     Node 50, Type 0, BuildingBlock: WUSLED_clean_sbu_0, # of connection points: 3
#     Node 51, Type 0, BuildingBlock: WUSLED_clean_sbu_0, # of connection points: 3
#     Node 52, Type 0, BuildingBlock: WUSLED_clean_sbu_0, # of connection points: 3
#     Node 53, Type 0, BuildingBlock: WUSLED_clean_sbu_0, # of connection points: 3
#     Node 54, Type 0, BuildingBlock: WUSLED_clean_sbu_0, # of connection points: 3
#     Node 55, Type 0, BuildingBlock: WUSLED_clean_sbu_0, # of connection points: 3
#     Node 56, Type 0, BuildingBlock: WUSLED_clean_sbu_0, # of connection points: 3
#     Node 57, Type 0, BuildingBlock: WUSLED_clean_sbu_0, # of connection points: 3
#     Node 58, Type 0, BuildingBlock: WUSLED_clean_sbu_0, # of connection points: 3
#     Node 59, Type 0, BuildingBlock: WUSLED_clean_sbu_0, # of connection points: 3
#     Node 60, Type 0, BuildingBlock: WUSLED_clean_sbu_0, # of connection points: 3
#     Node 61, Type 0, BuildingBlock: WUSLED_clean_sbu_0, # of connection points: 3
#     Node 62, Type 0, BuildingBlock: WUSLED_clean_sbu_0, # of connection points: 3
#     Node 63, Type 0, BuildingBlock: WUSLED_clean_sbu_0, # of connection points: 3
#     Node 64, Type 0, BuildingBlock: WUSLED_clean_sbu_0, # of connection points: 3
#     Node 65, Type 0, BuildingBlock: WUSLED_clean_sbu_0, # of connection points: 3
#     Node 66, Type 0, BuildingBlock: WUSLED_clean_sbu_0, # of connection points: 3
#     Node 67, Type 0, BuildingBlock: WUSLED_clean_sbu_0, # of connection points: 3
#     Node 68, Type 0, BuildingBlock: WUSLED_clean_sbu_0, # of connection points: 3
#     Node 69, Type 0, BuildingBlock: WUSLED_clean_sbu_0, # of connection points: 3
#     Node 70, Type 0, BuildingBlock: WUSLED_clean_sbu_0, # of connection points: 3
#     Node 71, Type 0, BuildingBlock: WUSLED_clean_sbu_0, # of connection points: 3
#     Node 72, Type 0, BuildingBlock: WUSLED_clean_sbu_0, # of connection points: 3
#     Node 73, Type 0, BuildingBlock: WUSLED_clean_sbu_0, # of connection points: 3
#     Node 74, Type 0, BuildingBlock: WUSLED_clean_sbu_0, # of connection points: 3
#     Node 75, Type 0, BuildingBlock: WUSLED_clean_sbu_0, # of connection points: 3
#     Node 76, Type 0, BuildingBlock: WUSLED_clean_sbu_0, # of connection points: 3
#     Node 77, Type 0, BuildingBlock: WUSLED_clean_sbu_0, # of connection points: 3
#     Node 78, Type 0, BuildingBlock: WUSLED_clean_sbu_0, # of connection points: 3
#     Node 79, Type 0, BuildingBlock: WUSLED_clean_sbu_0, # of connection points: 3
#     Node 80, Type 0, BuildingBlock: WUSLED_clean_sbu_0, # of connection points: 3
#     Node 81, Type 0, BuildingBlock: WUSLED_clean_sbu_0, # of connection points: 3
#     Node 82, Type 0, BuildingBlock: WUSLED_clean_sbu_0, # of connection points: 3
#     Node 83, Type 0, BuildingBlock: WUSLED_clean_sbu_0, # of connection points: 3
#     Node 84, Type 0, BuildingBlock: WUSLED_clean_sbu_0, # of connection points: 3
#     Node 85, Type 0, BuildingBlock: WUSLED_clean_sbu_0, # of connection points: 3
#     Node 86, Type 0, BuildingBlock: WUSLED_clean_sbu_0, # of connection points: 3
#     Node 87, Type 0, BuildingBlock: WUSLED_clean_sbu_0, # of connection points: 3
#     Node 88, Type 0, BuildingBlock: WUSLED_clean_sbu_0, # of connection points: 3
#     Node 89, Type 0, BuildingBlock: WUSLED_clean_sbu_0, # of connection points: 3
#     Node 90, Type 0, BuildingBlock: WUSLED_clean_sbu_0, # of connection points: 3
#     Node 91, Type 0, BuildingBlock: WUSLED_clean_sbu_0, # of connection points: 3
#     Node 92, Type 0, BuildingBlock: WUSLED_clean_sbu_0, # of connection points: 3
#     Node 93, Type 0, BuildingBlock: WUSLED_clean_sbu_0, # of connection points: 3
#     Node 94, Type 0, BuildingBlock: WUSLED_clean_sbu_0, # of connection points: 3
#     Node 95, Type 0, BuildingBlock: WUSLED_clean_sbu_0, # of connection points: 3
#     Node 96, Type 1, BuildingBlock: VETTIZ_charged_linker_0, # of connection points: 3
#     Node 97, Type 1, BuildingBlock: VETTIZ_charged_linker_0, # of connection points: 3
#     Node 98, Type 1, BuildingBlock: VETTIZ_charged_linker_0, # of connection points: 3
#     Node 99, Type 1, BuildingBlock: VETTIZ_charged_linker_0, # of connection points: 3
#     Node 100, Type 1, BuildingBlock: VETTIZ_charged_linker_0, # of connection points: 3
#     Node 101, Type 1, BuildingBlock: VETTIZ_charged_linker_0, # of connection points: 3
#     Node 102, Type 1, BuildingBlock: VETTIZ_charged_linker_0, # of connection points: 3
#     Node 103, Type 1, BuildingBlock: VETTIZ_charged_linker_0, # of connection points: 3
#     Node 104, Type 1, BuildingBlock: VETTIZ_charged_linker_0, # of connection points: 3
#     Node 105, Type 1, BuildingBlock: VETTIZ_charged_linker_0, # of connection points: 3
#     Node 106, Type 1, BuildingBlock: VETTIZ_charged_linker_0, # of connection points: 3
#     Node 107, Type 1, BuildingBlock: VETTIZ_charged_linker_0, # of connection points: 3
#     Node 108, Type 1, BuildingBlock: VETTIZ_charged_linker_0, # of connection points: 3
#     Node 109, Type 1, BuildingBlock: VETTIZ_charged_linker_0, # of connection points: 3
#     Node 110, Type 1, BuildingBlock: VETTIZ_charged_linker_0, # of connection points: 3
#     Node 111, Type 1, BuildingBlock: VETTIZ_charged_linker_0, # of connection points: 3
#     Node 112, Type 1, BuildingBlock: VETTIZ_charged_linker_0, # of connection points: 3
#     Node 113, Type 1, BuildingBlock: VETTIZ_charged_linker_0, # of connection points: 3
#     Node 114, Type 1, BuildingBlock: VETTIZ_charged_linker_0, # of connection points: 3
#     Node 115, Type 1, BuildingBlock: VETTIZ_charged_linker_0, # of connection points: 3
#     Node 116, Type 1, BuildingBlock: VETTIZ_charged_linker_0, # of connection points: 3
#     Node 117, Type 1, BuildingBlock: VETTIZ_charged_linker_0, # of connection points: 3
#     Node 118, Type 1, BuildingBlock: VETTIZ_charged_linker_0, # of connection points: 3
#     Node 119, Type 1, BuildingBlock: VETTIZ_charged_linker_0, # of connection points: 3
#     Node 120, Type 1, BuildingBlock: VETTIZ_charged_linker_0, # of connection points: 3
#     Node 121, Type 1, BuildingBlock: VETTIZ_charged_linker_0, # of connection points: 3
#     Node 122, Type 1, BuildingBlock: VETTIZ_charged_linker_0, # of connection points: 3
#     Node 123, Type 1, BuildingBlock: VETTIZ_charged_linker_0, # of connection points: 3
#     Node 124, Type 1, BuildingBlock: VETTIZ_charged_linker_0, # of connection points: 3
#     Node 125, Type 1, BuildingBlock: VETTIZ_charged_linker_0, # of connection points: 3
#     Node 126, Type 1, BuildingBlock: VETTIZ_charged_linker_0, # of connection points: 3
#     Node 127, Type 1, BuildingBlock: VETTIZ_charged_linker_0, # of connection points: 3
#     Node 128, Type 1, BuildingBlock: VETTIZ_charged_linker_0, # of connection points: 3
#     Node 129, Type 1, BuildingBlock: VETTIZ_charged_linker_0, # of connection points: 3
#     Node 130, Type 1, BuildingBlock: VETTIZ_charged_linker_0, # of connection points: 3
#     Node 131, Type 1, BuildingBlock: VETTIZ_charged_linker_0, # of connection points: 3
#     Node 132, Type 1, BuildingBlock: VETTIZ_charged_linker_0, # of connection points: 3
#     Node 133, Type 1, BuildingBlock: VETTIZ_charged_linker_0, # of connection points: 3
#     Node 134, Type 1, BuildingBlock: VETTIZ_charged_linker_0, # of connection points: 3
#     Node 135, Type 1, BuildingBlock: VETTIZ_charged_linker_0, # of connection points: 3
#     Node 136, Type 1, BuildingBlock: VETTIZ_charged_linker_0, # of connection points: 3
#     Node 137, Type 1, BuildingBlock: VETTIZ_charged_linker_0, # of connection points: 3
#     Node 138, Type 1, BuildingBlock: VETTIZ_charged_linker_0, # of connection points: 3
#     Node 139, Type 1, BuildingBlock: VETTIZ_charged_linker_0, # of connection points: 3
#     Node 140, Type 1, BuildingBlock: VETTIZ_charged_linker_0, # of connection points: 3
#     Node 141, Type 1, BuildingBlock: VETTIZ_charged_linker_0, # of connection points: 3
#     Node 142, Type 1, BuildingBlock: VETTIZ_charged_linker_0, # of connection points: 3
#     Node 143, Type 1, BuildingBlock: VETTIZ_charged_linker_0, # of connection points: 3
#     Node 144, Type 1, BuildingBlock: VETTIZ_charged_linker_0, # of connection points: 3
#     Node 145, Type 1, BuildingBlock: VETTIZ_charged_linker_0, # of connection points: 3
#     Node 146, Type 1, BuildingBlock: VETTIZ_charged_linker_0, # of connection points: 3
#     Node 147, Type 1, BuildingBlock: VETTIZ_charged_linker_0, # of connection points: 3
#     Node 148, Type 1, BuildingBlock: VETTIZ_charged_linker_0, # of connection points: 3
#     Node 149, Type 1, BuildingBlock: VETTIZ_charged_linker_0, # of connection points: 3
#     Node 150, Type 1, BuildingBlock: VETTIZ_charged_linker_0, # of connection points: 3
#     Node 151, Type 1, BuildingBlock: VETTIZ_charged_linker_0, # of connection points: 3
#     Node 152, Type 1, BuildingBlock: VETTIZ_charged_linker_0, # of connection points: 3
#     Node 153, Type 1, BuildingBlock: VETTIZ_charged_linker_0, # of connection points: 3
#     Node 154, Type 1, BuildingBlock: VETTIZ_charged_linker_0, # of connection points: 3
#     Node 155, Type 1, BuildingBlock: VETTIZ_charged_linker_0, # of connection points: 3
#     Node 156, Type 1, BuildingBlock: VETTIZ_charged_linker_0, # of connection points: 3
#     Node 157, Type 1, BuildingBlock: VETTIZ_charged_linker_0, # of connection points: 3
#     Node 158, Type 1, BuildingBlock: VETTIZ_charged_linker_0, # of connection points: 3
#     Node 159, Type 1, BuildingBlock: VETTIZ_charged_linker_0, # of connection points: 3
#     Node 160, Type 1, BuildingBlock: VETTIZ_charged_linker_0, # of connection points: 3
#     Node 161, Type 1, BuildingBlock: VETTIZ_charged_linker_0, # of connection points: 3
#     Node 162, Type 1, BuildingBlock: VETTIZ_charged_linker_0, # of connection points: 3
#     Node 163, Type 1, BuildingBlock: VETTIZ_charged_linker_0, # of connection points: 3
#     Node 164, Type 1, BuildingBlock: VETTIZ_charged_linker_0, # of connection points: 3
#     Node 165, Type 1, BuildingBlock: VETTIZ_charged_linker_0, # of connection points: 3
#     Node 166, Type 1, BuildingBlock: VETTIZ_charged_linker_0, # of connection points: 3
#     Node 167, Type 1, BuildingBlock: VETTIZ_charged_linker_0, # of connection points: 3
#     Node 168, Type 1, BuildingBlock: VETTIZ_charged_linker_0, # of connection points: 3
#     Node 169, Type 1, BuildingBlock: VETTIZ_charged_linker_0, # of connection points: 3
#     Node 170, Type 1, BuildingBlock: VETTIZ_charged_linker_0, # of connection points: 3
#     Node 171, Type 1, BuildingBlock: VETTIZ_charged_linker_0, # of connection points: 3
#     Node 172, Type 1, BuildingBlock: VETTIZ_charged_linker_0, # of connection points: 3
#     Node 173, Type 1, BuildingBlock: VETTIZ_charged_linker_0, # of connection points: 3
#     Node 174, Type 1, BuildingBlock: VETTIZ_charged_linker_0, # of connection points: 3
#     Node 175, Type 1, BuildingBlock: VETTIZ_charged_linker_0, # of connection points: 3
#     Node 176, Type 1, BuildingBlock: VETTIZ_charged_linker_0, # of connection points: 3
#     Node 177, Type 1, BuildingBlock: VETTIZ_charged_linker_0, # of connection points: 3
#     Node 178, Type 1, BuildingBlock: VETTIZ_charged_linker_0, # of connection points: 3
#     Node 179, Type 1, BuildingBlock: VETTIZ_charged_linker_0, # of connection points: 3
#     Node 180, Type 1, BuildingBlock: VETTIZ_charged_linker_0, # of connection points: 3
#     Node 181, Type 1, BuildingBlock: VETTIZ_charged_linker_0, # of connection points: 3
#     Node 182, Type 1, BuildingBlock: VETTIZ_charged_linker_0, # of connection points: 3
#     Node 183, Type 1, BuildingBlock: VETTIZ_charged_linker_0, # of connection points: 3
#     Node 184, Type 1, BuildingBlock: VETTIZ_charged_linker_0, # of connection points: 3
#     Node 185, Type 1, BuildingBlock: VETTIZ_charged_linker_0, # of connection points: 3
#     Node 186, Type 1, BuildingBlock: VETTIZ_charged_linker_0, # of connection points: 3
#     Node 187, Type 1, BuildingBlock: VETTIZ_charged_linker_0, # of connection points: 3
#     Node 188, Type 1, BuildingBlock: VETTIZ_charged_linker_0, # of connection points: 3
#     Node 189, Type 1, BuildingBlock: VETTIZ_charged_linker_0, # of connection points: 3
#     Node 190, Type 1, BuildingBlock: VETTIZ_charged_linker_0, # of connection points: 3
#     Node 191, Type 1, BuildingBlock: VETTIZ_charged_linker_0, # of connection points: 3
#     Edge 192, Type (0, 1), None
#     Edge 193, Type (0, 1), None
#     Edge 194, Type (0, 1), None
#     Edge 195, Type (0, 1), None
#     Edge 196, Type (0, 1), None
#     Edge 197, Type (0, 1), None
#     Edge 198, Type (0, 1), None
#     Edge 199, Type (0, 1), None
#     Edge 200, Type (0, 1), None
#     Edge 201, Type (0, 1), None
#     Edge 202, Type (0, 1), None
#     Edge 203, Type (0, 1), None
#     Edge 204, Type (0, 1), None
#     Edge 205, Type (0, 1), None
#     Edge 206, Type (0, 1), None
#     Edge 207, Type (0, 1), None
#     Edge 208, Type (0, 1), None
#     Edge 209, Type (0, 1), None
#     Edge 210, Type (0, 1), None
#     Edge 211, Type (0, 1), None
#     Edge 212, Type (0, 1), None
#     Edge 213, Type (0, 1), None
#     Edge 214, Type (0, 1), None
#     Edge 215, Type (0, 1), None
#     Edge 216, Type (0, 1), None
#     Edge 217, Type (0, 1), None
#     Edge 218, Type (0, 1), None
#     Edge 219, Type (0, 1), None
#     Edge 220, Type (0, 1), None
#     Edge 221, Type (0, 1), None
#     Edge 222, Type (0, 1), None
#     Edge 223, Type (0, 1), None
#     Edge 224, Type (0, 1), None
#     Edge 225, Type (0, 1), None
#     Edge 226, Type (0, 1), None
#     Edge 227, Type (0, 1), None
#     Edge 228, Type (0, 1), None
#     Edge 229, Type (0, 1), None
#     Edge 230, Type (0, 1), None
#     Edge 231, Type (0, 1), None
#     Edge 232, Type (0, 1), None
#     Edge 233, Type (0, 1), None
#     Edge 234, Type (0, 1), None
#     Edge 235, Type (0, 1), None
#     Edge 236, Type (0, 1), None
#     Edge 237, Type (0, 1), None
#     Edge 238, Type (0, 1), None
#     Edge 239, Type (0, 1), None
#     Edge 240, Type (0, 1), None
#     Edge 241, Type (0, 1), None
#     Edge 242, Type (0, 1), None
#     Edge 243, Type (0, 1), None
#     Edge 244, Type (0, 1), None
#     Edge 245, Type (0, 1), None
#     Edge 246, Type (0, 1), None
#     Edge 247, Type (0, 1), None
#     Edge 248, Type (0, 1), None
#     Edge 249, Type (0, 1), None
#     Edge 250, Type (0, 1), None
#     Edge 251, Type (0, 1), None
#     Edge 252, Type (0, 1), None
#     Edge 253, Type (0, 1), None
#     Edge 254, Type (0, 1), None
#     Edge 255, Type (0, 1), None
#     Edge 256, Type (0, 1), None
#     Edge 257, Type (0, 1), None
#     Edge 258, Type (0, 1), None
#     Edge 259, Type (0, 1), None
#     Edge 260, Type (0, 1), None
#     Edge 261, Type (0, 1), None
#     Edge 262, Type (0, 1), None
#     Edge 263, Type (0, 1), None
#     Edge 264, Type (0, 1), None
#     Edge 265, Type (0, 1), None
#     Edge 266, Type (0, 1), None
#     Edge 267, Type (0, 1), None
#     Edge 268, Type (0, 1), None
#     Edge 269, Type (0, 1), None
#     Edge 270, Type (0, 1), None
#     Edge 271, Type (0, 1), None
#     Edge 272, Type (0, 1), None
#     Edge 273, Type (0, 1), None
#     Edge 274, Type (0, 1), None
#     Edge 275, Type (0, 1), None
#     Edge 276, Type (0, 1), None
#     Edge 277, Type (0, 1), None
#     Edge 278, Type (0, 1), None
#     Edge 279, Type (0, 1), None
#     Edge 280, Type (0, 1), None
#     Edge 281, Type (0, 1), None
#     Edge 282, Type (0, 1), None
#     Edge 283, Type (0, 1), None
#     Edge 284, Type (0, 1), None
#     Edge 285, Type (0, 1), None
#     Edge 286, Type (0, 1), None
#     Edge 287, Type (0, 1), None
#     Edge 288, Type (0, 1), None
#     Edge 289, Type (0, 1), None
#     Edge 290, Type (0, 1), None
#     Edge 291, Type (0, 1), None
#     Edge 292, Type (0, 1), None
#     Edge 293, Type (0, 1), None
#     Edge 294, Type (0, 1), None
#     Edge 295, Type (0, 1), None
#     Edge 296, Type (0, 1), None
#     Edge 297, Type (0, 1), None
#     Edge 298, Type (0, 1), None
#     Edge 299, Type (0, 1), None
#     Edge 300, Type (0, 1), None
#     Edge 301, Type (0, 1), None
#     Edge 302, Type (0, 1), None
#     Edge 303, Type (0, 1), None
#     Edge 304, Type (0, 1), None
#     Edge 305, Type (0, 1), None
#     Edge 306, Type (0, 1), None
#     Edge 307, Type (0, 1), None
#     Edge 308, Type (0, 1), None
#     Edge 309, Type (0, 1), None
#     Edge 310, Type (0, 1), None
#     Edge 311, Type (0, 1), None
#     Edge 312, Type (0, 1), None
#     Edge 313, Type (0, 1), None
#     Edge 314, Type (0, 1), None
#     Edge 315, Type (0, 1), None
#     Edge 316, Type (0, 1), None
#     Edge 317, Type (0, 1), None
#     Edge 318, Type (0, 1), None
#     Edge 319, Type (0, 1), None
#     Edge 320, Type (0, 1), None
#     Edge 321, Type (0, 1), None
#     Edge 322, Type (0, 1), None
#     Edge 323, Type (0, 1), None
#     Edge 324, Type (0, 1), None
#     Edge 325, Type (0, 1), None
#     Edge 326, Type (0, 1), None
#     Edge 327, Type (0, 1), None
#     Edge 328, Type (0, 1), None
#     Edge 329, Type (0, 1), None
#     Edge 330, Type (0, 1), None
#     Edge 331, Type (0, 1), None
#     Edge 332, Type (0, 1), None
#     Edge 333, Type (0, 1), None
#     Edge 334, Type (0, 1), None
#     Edge 335, Type (0, 1), None
#     Edge 336, Type (0, 1), None
#     Edge 337, Type (0, 1), None
#     Edge 338, Type (0, 1), None
#     Edge 339, Type (0, 1), None
#     Edge 340, Type (0, 1), None
#     Edge 341, Type (0, 1), None
#     Edge 342, Type (0, 1), None
#     Edge 343, Type (0, 1), None
#     Edge 344, Type (0, 1), None
#     Edge 345, Type (0, 1), None
#     Edge 346, Type (0, 1), None
#     Edge 347, Type (0, 1), None
#     Edge 348, Type (0, 1), None
#     Edge 349, Type (0, 1), None
#     Edge 350, Type (0, 1), None
#     Edge 351, Type (0, 1), None
#     Edge 352, Type (0, 1), None
#     Edge 353, Type (0, 1), None
#     Edge 354, Type (0, 1), None
#     Edge 355, Type (0, 1), None
#     Edge 356, Type (0, 1), None
#     Edge 357, Type (0, 1), None
#     Edge 358, Type (0, 1), None
#     Edge 359, Type (0, 1), None
#     Edge 360, Type (0, 1), None
#     Edge 361, Type (0, 1), None
#     Edge 362, Type (0, 1), None
#     Edge 363, Type (0, 1), None
#     Edge 364, Type (0, 1), None
#     Edge 365, Type (0, 1), None
#     Edge 366, Type (0, 1), None
#     Edge 367, Type (0, 1), None
#     Edge 368, Type (0, 1), None
#     Edge 369, Type (0, 1), None
#     Edge 370, Type (0, 1), None
#     Edge 371, Type (0, 1), None
#     Edge 372, Type (0, 1), None
#     Edge 373, Type (0, 1), None
#     Edge 374, Type (0, 1), None
#     Edge 375, Type (0, 1), None
#     Edge 376, Type (0, 1), None
#     Edge 377, Type (0, 1), None
#     Edge 378, Type (0, 1), None
#     Edge 379, Type (0, 1), None
#     Edge 380, Type (0, 1), None
#     Edge 381, Type (0, 1), None
#     Edge 382, Type (0, 1), None
#     Edge 383, Type (0, 1), None
#     Edge 384, Type (0, 1), None
#     Edge 385, Type (0, 1), None
#     Edge 386, Type (0, 1), None
#     Edge 387, Type (0, 1), None
#     Edge 388, Type (0, 1), None
#     Edge 389, Type (0, 1), None
#     Edge 390, Type (0, 1), None
#     Edge 391, Type (0, 1), None
#     Edge 392, Type (0, 1), None
#     Edge 393, Type (0, 1), None
#     Edge 394, Type (0, 1), None
#     Edge 395, Type (0, 1), None
#     Edge 396, Type (0, 1), None
#     Edge 397, Type (0, 1), None
#     Edge 398, Type (0, 1), None
#     Edge 399, Type (0, 1), None
#     Edge 400, Type (0, 1), None
#     Edge 401, Type (0, 1), None
#     Edge 402, Type (0, 1), None
#     Edge 403, Type (0, 1), None
#     Edge 404, Type (0, 1), None
#     Edge 405, Type (0, 1), None
#     Edge 406, Type (0, 1), None
#     Edge 407, Type (0, 1), None
#     Edge 408, Type (0, 1), None
#     Edge 409, Type (0, 1), None
#     Edge 410, Type (0, 1), None
#     Edge 411, Type (0, 1), None
#     Edge 412, Type (0, 1), None
#     Edge 413, Type (0, 1), None
#     Edge 414, Type (0, 1), None
#     Edge 415, Type (0, 1), None
#     Edge 416, Type (0, 1), None
#     Edge 417, Type (0, 1), None
#     Edge 418, Type (0, 1), None
#     Edge 419, Type (0, 1), None
#     Edge 420, Type (0, 1), None
#     Edge 421, Type (0, 1), None
#     Edge 422, Type (0, 1), None
#     Edge 423, Type (0, 1), None
#     Edge 424, Type (0, 1), None
#     Edge 425, Type (0, 1), None
#     Edge 426, Type (0, 1), None
#     Edge 427, Type (0, 1), None
#     Edge 428, Type (0, 1), None
#     Edge 429, Type (0, 1), None
#     Edge 430, Type (0, 1), None
#     Edge 431, Type (0, 1), None
#     Edge 432, Type (0, 1), None
#     Edge 433, Type (0, 1), None
#     Edge 434, Type (0, 1), None
#     Edge 435, Type (0, 1), None
#     Edge 436, Type (0, 1), None
#     Edge 437, Type (0, 1), None
#     Edge 438, Type (0, 1), None
#     Edge 439, Type (0, 1), None
#     Edge 440, Type (0, 1), None
#     Edge 441, Type (0, 1), None
#     Edge 442, Type (0, 1), None
#     Edge 443, Type (0, 1), None
#     Edge 444, Type (0, 1), None
#     Edge 445, Type (0, 1), None
#     Edge 446, Type (0, 1), None
#     Edge 447, Type (0, 1), None
#     Edge 448, Type (0, 1), None
#     Edge 449, Type (0, 1), None
#     Edge 450, Type (0, 1), None
#     Edge 451, Type (0, 1), None
#     Edge 452, Type (0, 1), None
#     Edge 453, Type (0, 1), None
#     Edge 454, Type (0, 1), None
#     Edge 455, Type (0, 1), None
#     Edge 456, Type (0, 1), None
#     Edge 457, Type (0, 1), None
#     Edge 458, Type (0, 1), None
#     Edge 459, Type (0, 1), None
#     Edge 460, Type (0, 1), None
#     Edge 461, Type (0, 1), None
#     Edge 462, Type (0, 1), None
#     Edge 463, Type (0, 1), None
#     Edge 464, Type (0, 1), None
#     Edge 465, Type (0, 1), None
#     Edge 466, Type (0, 1), None
#     Edge 467, Type (0, 1), None
#     Edge 468, Type (0, 1), None
#     Edge 469, Type (0, 1), None
#     Edge 470, Type (0, 1), None
#     Edge 471, Type (0, 1), None
#     Edge 472, Type (0, 1), None
#     Edge 473, Type (0, 1), None
#     Edge 474, Type (0, 1), None
#     Edge 475, Type (0, 1), None
#     Edge 476, Type (0, 1), None
#     Edge 477, Type (0, 1), None
#     Edge 478, Type (0, 1), None
#     Edge 479, Type (0, 1), None
# Relax obj value: 0.124
# Max RMSD: 0.111
# Mean RMSD: 0.096
data_MOF--net-ana-f--node1-WUSLED_clean_sbu_0--node2-VETTIZ_charged_linker_0--edge1-none
_symmetry_space_group_name_H-M    P1
_symmetry_Int_Tables_number       1
_symmetry_cell_setting            triclinic
loop_
_symmetry_equiv_pos_as_xyz
'x, y, z'
_cell_length_a     132.51893
_cell_length_b     129.0055
_cell_length_c     128.97552
_cell_angle_alpha  90.029072
_cell_angle_beta   89.998094
_cell_angle_gamma 89.991138
loop_
_atom_site_label
_atom_site_type_symbol
_atom_site_fract_x
_atom_site_fract_y
_atom_site_fract_z
_atom_type_partial_charge
C0 C 0.07485 0.13698 0.42996 0.0
C1 C 0.08414 0.14218 0.43024 0.0
C2 C 0.09176 0.1278 0.43992 0.0
C3 C 0.09248 0.13766 0.4352 0.0
C4 C 0.08231 0.12286 0.43997 0.0
C5 C 0.07396 0.1274 0.43504 0.0
U6 U 0.06109 0.15761 0.41314 0.0
O7 O 0.05251 0.15541 0.39867 0.0
O8 O 0.04485 0.16147 0.41251 0.0
C9 C 0.044 0.15873 0.40272 0.0
C10 C 0.06618 0.141 0.42389 0.0
C11 C 0.03451 0.15379 0.39909 0.0
C12 C 0.01952 0.14294 0.40124 0.0
C13 C 0.02877 0.14683 0.40506 0.0
C14 C 0.02178 0.15281 0.38549 0.0
C15 C 0.01583 0.14596 0.3914 0.0
C16 C 0.0309 0.15668 0.3893 0.0
C17 C 0.07639 0.18336 0.40763 0.0
C18 C 0.077 0.19534 0.39298 0.0
C19 C 0.08774 0.19816 0.40789 0.0
C20 C 0.08361 0.18945 0.41271 0.0
C21 C 0.08468 0.20105 0.39788 0.0
C22 C 0.07286 0.18653 0.39783 0.0
C23 C 0.07401 0.1731 0.41217 0.0
O24 O 0.06116 0.14884 0.42786 0.0
O25 O 0.06769 0.14197 0.41387 0.0
O26 O 0.07418 0.1651 0.40587 0.0
O27 O 0.06687 0.17253 0.41922 0.0
H28 H 0.085 0.14961 0.42643 0.0
H29 H 0.09955 0.14187 0.4352 0.0
H30 H 0.08142 0.11527 0.44343 0.0
H31 H 0.06686 0.12325 0.43493 0.0
H32 H 0.01519 0.13776 0.40611 0.0
H33 H 0.03134 0.14451 0.41268 0.0
H34 H 0.01949 0.15517 0.3778 0.0
H35 H 0.03517 0.16204 0.38455 0.0
H36 H 0.07469 0.19728 0.38517 0.0
H37 H 0.0938 0.20229 0.41173 0.0
H38 H 0.08654 0.1871 0.4202 0.0
H39 H 0.06735 0.1819 0.39371 0.0
C40 C 0.14209 0.85035 0.65083 0.0
C41 C 0.14309 0.86007 0.64607 0.0
C42 C 0.14613 0.86825 0.66295 0.0
C43 C 0.14525 0.86888 0.65203 0.0
C44 C 0.14547 0.85836 0.66754 0.0
C45 C 0.14356 0.84955 0.66154 0.0
U46 U 0.12645 0.83721 0.6296 0.0
O47 O 0.12943 0.8236 0.6197 0.0
O48 O 0.1167 0.82346 0.63063 0.0
C49 C 0.1218 0.81833 0.62356 0.0
C50 C 0.13884 0.84105 0.64502 0.0
C51 C 0.12329 0.80717 0.62537 0.0
C52 C 0.13041 0.79249 0.63468 0.0
C53 C 0.12949 0.80326 0.63327 0.0
C54 C 0.11895 0.78956 0.62036 0.0
C55 C 0.12513 0.7855 0.62824 0.0
C56 C 0.11804 0.80024 0.61897 0.0
C57 C 0.10978 0.85533 0.61274 0.0
C58 C 0.09263 0.85337 0.60636 0.0
C59 C 0.10246 0.86845 0.60159 0.0
C60 C 0.11066 0.86459 0.60717 0.0
C61 C 0.09319 0.86315 0.60158 0.0
C62 C 0.10088 0.84948 0.6119 0.0
C63 C 0.11754 0.85294 0.62055 0.0
O64 O 0.12933 0.8385 0.64632 0.0
O65 O 0.14185 0.84022 0.63533 0.0
O66 O 0.12612 0.84905 0.61723 0.0
O67 O 0.11429 0.84867 0.62917 0.0
H68 H 0.14202 0.8609 0.63779 0.0
H69 H 0.14606 0.87618 0.64801 0.0
H70 H 0.1459 0.85735 0.67584 0.0
H71 H 0.1428 0.84212 0.66537 0.0
H72 H 0.13519 0.78966 0.64087 0.0
H73 H 0.13356 0.80849 0.63832 0.0
H74 H 0.11495 0.78449 0.61509 0.0
H75 H 0.11323 0.80312 0.61282 0.0
H76 H 0.08558 0.84911 0.60653 0.0
H77 H 0.10319 0.87592 0.59783 0.0
H78 H 0.11748 0.8692 0.60767 0.0
H79 H 0.10006 0.84226 0.61611 0.0
C80 C 0.44014 0.86446 0.94372 0.0
C81 C 0.43137 0.85904 0.94101 0.0
C82 C 0.42174 0.86887 0.95379 0.0
C83 C 0.42228 0.86118 0.94603 0.0
C84 C 0.43063 0.87402 0.95673 0.0
C85 C 0.43976 0.87184 0.9517 0.0
U86 U 0.45481 0.85226 0.92139 0.0
O87 O 0.46577 0.85928 0.91078 0.0
O88 O 0.47047 0.84647 0.9209 0.0
C89 C 0.47328 0.85356 0.91417 0.0
C90 C 0.44956 0.86285 0.93794 0.0
C91 C 0.48271 0.85917 0.91645 0.0
C92 C 0.4916 0.87459 0.92233 0.0
C93 C 0.48271 0.86874 0.92165 0.0
C94 C 0.50065 0.86108 0.91318 0.0
C95 C 0.50062 0.87092 0.91787 0.0
C96 C 0.49177 0.85529 0.91246 0.0
C97 C 0.43852 0.83432 0.90313 0.0
C98 C 0.43606 0.83212 0.88452 0.0
C99 C 0.42723 0.82099 0.8966 0.0
C100 C 0.43198 0.82596 0.90488 0.0
C101 C 0.42893 0.82429 0.88639 0.0
C102 C 0.44088 0.83709 0.89285 0.0
C103 C 0.44099 0.84105 0.91205 0.0
O104 O 0.45337 0.85345 0.93836 0.0
O105 O 0.44964 0.86678 0.92855 0.0
O106 O 0.44247 0.85094 0.91015 0.0
O107 O 0.44689 0.83731 0.91935 0.0
H108 H 0.43153 0.85329 0.93489 0.0
H109 H 0.41562 0.85689 0.94374 0.0
H110 H 0.43047 0.88 0.96263 0.0
H111 H 0.44648 0.8761 0.95388 0.0
H112 H 0.49136 0.88209 0.92609 0.0
H113 H 0.47578 0.87185 0.92483 0.0
H114 H 0.50741 0.85807 0.90955 0.0
H115 H 0.49191 0.84794 0.90839 0.0
H116 H 0.43729 0.83493 0.87672 0.0
H117 H 0.42156 0.81516 0.89823 0.0
H118 H 0.42994 0.82377 0.91272 0.0
H119 H 0.44584 0.84356 0.89128 0.0
C120 C 0.38296 0.17942 0.18568 0.0
C121 C 0.38444 0.16938 0.18195 0.0
C122 C 0.3676 0.1645 0.18776 0.0
C123 C 0.37688 0.16195 0.18307 0.0
C124 C 0.36625 0.17454 0.19176 0.0
C125 C 0.37391 0.18196 0.19073 0.0
U126 U 0.40384 0.20151 0.17899 0.0
O127 O 0.39686 0.21467 0.17101 0.0
O128 O 0.4019 0.21646 0.18717 0.0
C129 C 0.39741 0.22074 0.17916 0.0
C130 C 0.39042 0.18745 0.18332 0.0
C131 C 0.39873 0.23188 0.17722 0.0
C132 C 0.39079 0.24886 0.17735 0.0
C133 C 0.39098 0.23852 0.18049 0.0
C134 C 0.40643 0.24625 0.16801 0.0
C135 C 0.39835 0.25282 0.17083 0.0
C136 C 0.40659 0.23584 0.17114 0.0
C137 C 0.42896 0.18749 0.17117 0.0
C138 C 0.44218 0.18012 0.16033 0.0
C139 C 0.43514 0.17001 0.17437 0.0
C140 C 0.42872 0.17828 0.17696 0.0
C141 C 0.44186 0.17076 0.16591 0.0
C142 C 0.43583 0.18835 0.16295 0.0
C143 C 0.42232 0.19645 0.1734 0.0
O144 O 0.39613 0.19163 0.19054 0.0
O145 O 0.39224 0.19041 0.17377 0.0
O146 O 0.41966 0.19813 0.18309 0.0
O147 O 0.41495 0.19807 0.16677 0.0
H148 H 0.39138 0.16732 0.17801 0.0
H149 H 0.37828 0.15421 0.18013 0.0
H150 H 0.35919 0.17675 0.19536 0.0
H151 H 0.37262 0.18976 0.19354 0.0
H152 H 0.38457 0.2537 0.17986 0.0
H153 H 0.38482 0.23558 0.18516 0.0
H154 H 0.41236 0.24899 0.16293 0.0
H155 H 0.41259 0.2308 0.16846 0.0
H156 H 0.44707 0.18098 0.15366 0.0
H157 H 0.43476 0.16299 0.17895 0.0
H158 H 0.42355 0.17744 0.1834 0.0
H159 H 0.43617 0.19541 0.1584 0.0
C160 C 0.07483 0.86801 0.07538 0.0
C161 C 0.08412 0.86281 0.07511 0.0
C162 C 0.09175 0.87715 0.06539 0.0
C163 C 0.09246 0.8673 0.07014 0.0
C164 C 0.08229 0.8821 0.06533 0.0
C165 C 0.07395 0.87758 0.07028 0.0
U166 U 0.06106 0.84743 0.09224 0.0
O167 O 0.05245 0.84966 0.10669 0.0
O168 O 0.04481 0.84358 0.09285 0.0
C169 C 0.04395 0.84634 0.10263 0.0
C170 C 0.06616 0.86401 0.08146 0.0
C171 C 0.03446 0.85132 0.10622 0.0
C172 C 0.01954 0.86225 0.10402 0.0
C173 C 0.02878 0.85832 0.10024 0.0
C174 C 0.02168 0.85234 0.11976 0.0
C175 C 0.01578 0.85923 0.11384 0.0
C176 C 0.0308 0.84843 0.11598 0.0
C177 C 0.07644 0.8217 0.09772 0.0
C178 C 0.077 0.80956 0.11225 0.0
C179 C 0.08798 0.80704 0.09747 0.0
C180 C 0.08381 0.81575 0.09268 0.0
C181 C 0.08482 0.80401 0.1074 0.0
C182 C 0.07282 0.81838 0.10743 0.0
C183 C 0.07399 0.83195 0.09323 0.0
O184 O 0.06113 0.85617 0.0775 0.0
O185 O 0.06766 0.86306 0.09148 0.0
O186 O 0.07414 0.83994 0.09954 0.0
O187 O 0.06685 0.8325 0.08618 0.0
H188 H 0.08498 0.85538 0.07894 0.0
H189 H 0.09953 0.86308 0.07015 0.0
H190 H 0.08141 0.88968 0.06185 0.0
H191 H 0.06684 0.88173 0.07038 0.0
H192 H 0.01525 0.86746 0.09915 0.0
H193 H 0.03141 0.86065 0.09264 0.0
H194 H 0.01935 0.84998 0.12744 0.0
H195 H 0.03502 0.84304 0.12075 0.0
H196 H 0.0746 0.8075 0.12 0.0
H197 H 0.09413 0.80302 0.09367 0.0
H198 H 0.08681 0.81821 0.08526 0.0
H199 H 0.0672 0.8229 0.11152 0.0
C200 C 0.3806 0.82261 0.31912 0.0
C201 C 0.38323 0.83239 0.32295 0.0
C202 C 0.36698 0.8393 0.31721 0.0
C203 C 0.37649 0.8407 0.32196 0.0
C204 C 0.36455 0.82952 0.31316 0.0
C205 C 0.3713 0.82128 0.31411 0.0
U206 U 0.40331 0.80354 0.32622 0.0
O207 O 0.4003 0.78976 0.33588 0.0
O208 O 0.40483 0.78795 0.31933 0.0
C209 C 0.40232 0.78351 0.32813 0.0
C210 C 0.38669 0.81331 0.3211 0.0
C211 C 0.40141 0.77226 0.32909 0.0
C212 C 0.39105 0.75674 0.32931 0.0
C213 C 0.39229 0.76724 0.32687 0.0
C214 C 0.4081 0.75628 0.33606 0.0
C215 C 0.39888 0.75115 0.33416 0.0
C216 C 0.40935 0.76669 0.3335 0.0
C217 C 0.42765 0.82073 0.33322 0.0
C218 C 0.44135 0.82708 0.34403 0.0
C219 C 0.43536 0.83739 0.32959 0.0
C220 C 0.42831 0.82967 0.3271 0.0
C221 C 0.44183 0.83627 0.33823 0.0
C222 C 0.43434 0.81942 0.34153 0.0
C223 C 0.42051 0.81227 0.33111 0.0
O224 O 0.39346 0.81044 0.31422 0.0
O225 O 0.38928 0.81137 0.33074 0.0
O226 O 0.41803 0.80998 0.32149 0.0
O227 O 0.41334 0.81047 0.33791 0.0
H228 H 0.39036 0.83355 0.32689 0.0
H229 H 0.37868 0.84819 0.32499 0.0
H230 H 0.35729 0.82813 0.30957 0.0
H231 H 0.3691 0.81372 0.31121 0.0
H232 H 0.3839 0.75308 0.32755 0.0
H233 H 0.38605 0.77151 0.32353 0.0
H234 H 0.41426 0.75247 0.34002 0.0
H235 H 0.41639 0.77052 0.33541 0.0
H236 H 0.44606 0.82598 0.3508 0.0
H237 H 0.43563 0.84431 0.32486 0.0
H238 H 0.42333 0.83075 0.32053 0.0
H239 H 0.43405 0.81247 0.34625 0.0
C240 C 0.44015 0.14053 0.56149 0.0
C241 C 0.43138 0.14595 0.56421 0.0
C242 C 0.42175 0.13612 0.55144 0.0
C243 C 0.42229 0.14381 0.55919 0.0
C244 C 0.43064 0.13097 0.54849 0.0
C245 C 0.43977 0.13315 0.55351 0.0
U246 U 0.45483 0.15277 0.5838 0.0
O247 O 0.46581 0.14578 0.59441 0.0
O248 O 0.47048 0.15859 0.58427 0.0
C249 C 0.4733 0.15151 0.59101 0.0
C250 C 0.44958 0.14216 0.56726 0.0
C251 C 0.48274 0.14592 0.58875 0.0
C252 C 0.49167 0.13052 0.58286 0.0
C253 C 0.48277 0.13637 0.58351 0.0
C254 C 0.50067 0.14399 0.59211 0.0
C255 C 0.50066 0.13417 0.58738 0.0
C256 C 0.49179 0.14979 0.5928 0.0
C257 C 0.43853 0.17069 0.60208 0.0
C258 C 0.43606 0.17288 0.62068 0.0
C259 C 0.42726 0.18403 0.60861 0.0
C260 C 0.43201 0.17906 0.60032 0.0
C261 C 0.42894 0.18072 0.61882 0.0
C262 C 0.44088 0.16791 0.61235 0.0
C263 C 0.441 0.16396 0.59315 0.0
O264 O 0.45337 0.15156 0.56684 0.0
O265 O 0.44967 0.13824 0.57666 0.0
O266 O 0.4425 0.15407 0.59505 0.0
O267 O 0.44688 0.1677 0.58585 0.0
H268 H 0.43154 0.1517 0.57033 0.0
H269 H 0.41563 0.1481 0.5615 0.0
H270 H 0.43048 0.125 0.54259 0.0
H271 H 0.44649 0.1289 0.55133 0.0
H272 H 0.49145 0.12303 0.57907 0.0
H273 H 0.47586 0.13327 0.58028 0.0
H274 H 0.50741 0.14699 0.59579 0.0
H275 H 0.4919 0.15712 0.5969 0.0
H276 H 0.43728 0.17005 0.62849 0.0
H277 H 0.4216 0.18987 0.60698 0.0
H278 H 0.42997 0.18126 0.59249 0.0
H279 H 0.44583 0.16142 0.61392 0.0
C280 C 0.1421 0.15459 0.85437 0.0
C281 C 0.14312 0.14487 0.85912 0.0
C282 C 0.14615 0.13669 0.84224 0.0
C283 C 0.14529 0.13606 0.85316 0.0
C284 C 0.14548 0.14659 0.83765 0.0
C285 C 0.14356 0.15539 0.84365 0.0
U286 U 0.12645 0.16769 0.87561 0.0
O287 O 0.1294 0.1813 0.88551 0.0
O288 O 0.11667 0.18142 0.87459 0.0
C289 C 0.12177 0.18655 0.88165 0.0
C290 C 0.13884 0.16388 0.86018 0.0
C291 C 0.12324 0.19772 0.87983 0.0
C292 C 0.13035 0.21238 0.87048 0.0
C293 C 0.12943 0.20161 0.87191 0.0
C294 C 0.11891 0.21533 0.88481 0.0
C295 C 0.12508 0.21938 0.87693 0.0
C296 C 0.11801 0.20465 0.88622 0.0
C297 C 0.10981 0.14957 0.89248 0.0
C298 C 0.09266 0.15156 0.89887 0.0
C299 C 0.10249 0.13648 0.90366 0.0
C300 C 0.11069 0.14032 0.89807 0.0
C301 C 0.09321 0.14179 0.90366 0.0
C302 C 0.10091 0.15544 0.89331 0.0
C303 C 0.11757 0.15195 0.88467 0.0
O304 O 0.12933 0.16641 0.85888 0.0
O305 O 0.14186 0.16471 0.86987 0.0
O306 O 0.12615 0.15585 0.88798 0.0
O307 O 0.11432 0.1562 0.87604 0.0
H308 H 0.14205 0.14404 0.86741 0.0
H309 H 0.1461 0.12876 0.85718 0.0
H310 H 0.14589 0.1476 0.82935 0.0
H311 H 0.14279 0.16283 0.83983 0.0
H312 H 0.13513 0.2152 0.86428 0.0
H313 H 0.13349 0.19637 0.86685 0.0
H314 H 0.11492 0.22042 0.89008 0.0
H315 H 0.1132 0.20178 0.89238 0.0
H316 H 0.08562 0.15583 0.89869 0.0
H317 H 0.10321 0.12901 0.90742 0.0
H318 H 0.1175 0.1357 0.89756 0.0
H319 H 0.1001 0.16265 0.8891 0.0
C320 C 0.42859 0.06977 0.12855 0.0
C321 C 0.42482 0.07992 0.12911 0.0
C322 C 0.44192 0.08696 0.12742 0.0
C323 C 0.4314 0.08841 0.12849 0.0
C324 C 0.44558 0.07678 0.12642 0.0
C325 C 0.43897 0.06829 0.127 0.0
U326 U 0.40308 0.05762 0.13594 0.0
O327 O 0.39517 0.04373 0.12995 0.0
O328 O 0.39979 0.04456 0.14633 0.0
C329 C 0.39527 0.03915 0.13906 0.0
C330 C 0.42194 0.06069 0.13022 0.0
C331 C 0.39608 0.02773 0.13957 0.0
C332 C 0.40539 0.0117 0.14275 0.0
C333 C 0.40531 0.0224 0.14051 0.0
C334 C 0.38713 0.01162 0.14278 0.0
C335 C 0.39626 0.00632 0.14422 0.0
C336 C 0.38705 0.02216 0.14044 0.0
C337 C 0.38227 0.07858 0.14268 0.0
C338 C 0.36557 0.07777 0.15062 0.0
C339 C 0.37297 0.09433 0.14619 0.0
C340 C 0.38147 0.08935 0.14233 0.0
C341 C 0.36485 0.08869 0.15041 0.0
C342 C 0.37425 0.07273 0.14678 0.0
C343 C 0.39197 0.07414 0.13932 0.0
O344 O 0.41917 0.05911 0.13987 0.0
O345 O 0.41449 0.05944 0.1236 0.0
O346 O 0.39236 0.06944 0.13029 0.0
O347 O 0.39765 0.06982 0.14645 0.0
H348 H 0.41683 0.08127 0.13026 0.0
H349 H 0.42824 0.09613 0.12906 0.0
H350 H 0.45359 0.07532 0.12566 0.0
H351 H 0.44203 0.06051 0.12655 0.0
H352 H 0.41253 0.00778 0.1439 0.0
H353 H 0.41238 0.02657 0.13994 0.0
H354 H 0.38 0.00766 0.14388 0.0
H355 H 0.37986 0.02611 0.13981 0.0
H356 H 0.3595 0.07314 0.1538 0.0
H357 H 0.37304 0.10272 0.1462 0.0
H358 H 0.38761 0.09401 0.13932 0.0
H359 H 0.37478 0.06436 0.14717 0.0
C360 C 0.19017 0.19381 0.39047 0.0
C361 C 0.18142 0.191 0.39587 0.0
C362 C 0.1717 0.20373 0.38608 0.0
C363 C 0.17229 0.19595 0.39374 0.0
C364 C 0.18058 0.20675 0.38095 0.0
C365 C 0.18974 0.2018 0.38312 0.0
U366 U 0.20485 0.17156 0.40268 0.0
O367 O 0.21579 0.16088 0.39573 0.0
O368 O 0.22048 0.17102 0.40854 0.0
C369 C 0.22329 0.16426 0.40147 0.0
C370 C 0.19963 0.18809 0.39207 0.0
C371 C 0.23273 0.16648 0.39589 0.0
C372 C 0.24167 0.17236 0.38051 0.0
C373 C 0.23277 0.17172 0.38634 0.0
C374 C 0.25065 0.1631 0.39399 0.0
C375 C 0.25066 0.16783 0.38417 0.0
C376 C 0.24176 0.16242 0.39977 0.0
C377 C 0.18846 0.15338 0.42052 0.0
C378 C 0.18579 0.1348 0.42255 0.0
C379 C 0.17712 0.1469 0.4338 0.0
C380 C 0.18197 0.15516 0.42891 0.0
C381 C 0.17868 0.13671 0.43038 0.0
C382 C 0.19071 0.1431 0.41766 0.0
C383 C 0.19096 0.16229 0.41382 0.0
O384 O 0.20343 0.18852 0.40147 0.0
O385 O 0.19975 0.1787 0.38813 0.0
O386 O 0.19246 0.16039 0.40393 0.0
O387 O 0.19687 0.16956 0.4176 0.0
H388 H 0.18162 0.18486 0.4016 0.0
H389 H 0.16564 0.19358 0.39801 0.0
H390 H 0.18038 0.21267 0.375 0.0
H391 H 0.19645 0.20404 0.37888 0.0
H392 H 0.24147 0.17614 0.37302 0.0
H393 H 0.22587 0.17495 0.38323 0.0
H394 H 0.25739 0.15942 0.39699 0.0
H395 H 0.24187 0.15833 0.4071 0.0
H396 H 0.18692 0.127 0.41966 0.0
H397 H 0.17148 0.14855 0.43966 0.0
H398 H 0.18003 0.163 0.43117 0.0
H399 H 0.19565 0.14152 0.41116 0.0
C400 C 0.0539 0.95616 0.64215 0.0
C401 C 0.05766 0.94665 0.64568 0.0
C402 C 0.0504 0.93794 0.63068 0.0
C403 C 0.05589 0.93761 0.64002 0.0
C404 C 0.046 0.94733 0.62756 0.0
C405 C 0.04778 0.9564 0.63327 0.0
U406 U 0.07051 0.97053 0.6614 0.0
O407 O 0.08015 0.98414 0.65918 0.0
O408 O 0.06772 0.98479 0.67043 0.0
C409 C 0.075 0.98988 0.66572 0.0
C410 C 0.05727 0.9659 0.64696 0.0
C411 C 0.07275 1.00045 0.66213 0.0
C412 C 0.06648 0.01243 0.64909 0.0
C413 C 0.06702 1.00237 0.65319 0.0
C414 C 0.07705 0.0187 0.66305 0.0
C415 C 0.07181 0.02068 0.65376 0.0
C416 C 0.07747 0.00872 0.66719 0.0
C417 C 0.08766 0.95182 0.678 0.0
C418 C 0.10379 0.95414 0.6868 0.0
C419 C 0.09576 0.93727 0.6865 0.0
C420 C 0.08768 0.94139 0.68096 0.0
C421 C 0.10398 0.94353 0.68927 0.0
C422 C 0.09565 0.95828 0.68114 0.0
C423 C 0.07982 0.95509 0.6706 0.0
O424 O 0.05483 0.96722 0.65675 0.0
O425 O 0.0667 0.96832 0.64499 0.0
O426 O 0.08291 0.95927 0.66188 0.0
O427 O 0.07153 0.9593 0.67429 0.0
H428 H 0.0624 0.9463 0.65252 0.0
H429 H 0.05931 0.93044 0.64262 0.0
H430 H 0.04183 0.9478 0.62036 0.0
H431 H 0.04482 0.9637 0.63043 0.0
H432 H 0.06218 0.01364 0.64206 0.0
H433 H 0.0633 0.99606 0.64919 0.0
H434 H 0.08141 0.02469 0.66685 0.0
H435 H 0.08197 0.00737 0.67407 0.0
H436 H 0.11013 0.95905 0.68876 0.0
H437 H 0.09582 0.92905 0.68822 0.0
H438 H 0.08164 0.93626 0.67854 0.0
H439 H 0.0958 0.96636 0.67885 0.0
C440 C 0.32608 0.82317 0.8884 0.0
C441 C 0.33551 0.82318 0.8933 0.0
C442 C 0.34282 0.81352 0.87875 0.0
C443 C 0.34379 0.81832 0.88856 0.0
C444 C 0.33322 0.81318 0.87414 0.0
C445 C 0.32497 0.81795 0.87893 0.0
U446 U 0.31045 0.84156 0.90692 0.0
O447 O 0.30147 0.8546 0.90063 0.0
O448 O 0.29385 0.84155 0.90873 0.0
C449 C 0.29294 0.85025 0.90353 0.0
C450 C 0.31753 0.82943 0.89218 0.0
C451 C 0.28303 0.85517 0.90168 0.0
C452 C 0.27076 0.86246 0.88963 0.0
C453 C 0.28003 0.85757 0.89154 0.0
C454 C 0.26728 0.86247 0.90805 0.0
C455 C 0.26432 0.86518 0.89787 0.0
C456 C 0.27652 0.8575 0.90993 0.0
C457 C 0.32477 0.84922 0.93361 0.0
C458 C 0.32585 0.86306 0.9465 0.0
C459 C 0.33751 0.84864 0.94715 0.0
C460 C 0.33279 0.84418 0.93857 0.0
C461 C 0.33428 0.85823 0.95107 0.0
C462 C 0.32114 0.8586 0.93776 0.0
C463 C 0.32145 0.84494 0.92352 0.0
O464 O 0.31224 0.82593 0.90006 0.0
O465 O 0.31894 0.83949 0.89247 0.0
O466 O 0.32187 0.8508 0.91519 0.0
O467 O 0.31466 0.83752 0.92307 0.0
H468 H 0.33655 0.82717 0.90061 0.0
H469 H 0.351 0.81853 0.89249 0.0
H470 H 0.33216 0.80967 0.86659 0.0
H471 H 0.31774 0.81793 0.87499 0.0
H472 H 0.26885 0.86443 0.88172 0.0
H473 H 0.2849 0.85573 0.88506 0.0
H474 H 0.26246 0.8642 0.9146 0.0
H475 H 0.27863 0.85562 0.91782 0.0
H476 H 0.32333 0.87055 0.94928 0.0
H477 H 0.34406 0.84482 0.95043 0.0
H478 H 0.33578 0.837 0.93547 0.0
H479 H 0.31499 0.86266 0.93401 0.0
C480 C 0.4286 0.93549 0.37696 0.0
C481 C 0.42489 0.92532 0.3765 0.0
C482 C 0.44203 0.91841 0.37832 0.0
C483 C 0.43152 0.91688 0.37723 0.0
C484 C 0.44562 0.92862 0.37923 0.0
C485 C 0.43897 0.93706 0.37854 0.0
U486 U 0.40304 0.94744 0.36938 0.0
O487 O 0.39504 0.9613 0.37528 0.0
O488 O 0.39973 0.96044 0.35893 0.0
C489 C 0.39517 0.96587 0.36617 0.0
C490 C 0.4219 0.94452 0.3752 0.0
C491 C 0.39601 0.97727 0.36565 0.0
C492 C 0.40535 0.99327 0.36246 0.0
C493 C 0.40525 0.98257 0.36471 0.0
C494 C 0.38709 0.99341 0.36245 0.0
C495 C 0.39624 0.99868 0.361 0.0
C496 C 0.38699 0.98286 0.36479 0.0
C497 C 0.38234 0.92639 0.36264 0.0
C498 C 0.36563 0.92713 0.3547 0.0
C499 C 0.37311 0.9106 0.35913 0.0
C500 C 0.38158 0.91561 0.363 0.0
C501 C 0.36496 0.91621 0.35491 0.0
C502 C 0.3743 0.9322 0.35854 0.0
C503 C 0.39202 0.93086 0.36602 0.0
O504 O 0.41916 0.94601 0.36552 0.0
O505 O 0.41441 0.94575 0.38177 0.0
O506 O 0.39236 0.93559 0.37504 0.0
O507 O 0.39771 0.93517 0.3589 0.0
H508 H 0.41691 0.92391 0.37533 0.0
H509 H 0.42841 0.90914 0.37672 0.0
H510 H 0.45362 0.93012 0.37999 0.0
H511 H 0.44198 0.94486 0.37892 0.0
H512 H 0.4125 0.99717 0.3613 0.0
H513 H 0.41231 0.97839 0.36527 0.0
H514 H 0.37997 0.99739 0.36135 0.0
H515 H 0.37978 0.97894 0.36543 0.0
H516 H 0.35955 0.93174 0.35152 0.0
H517 H 0.37322 0.90221 0.35912 0.0
H518 H 0.38774 0.91098 0.36601 0.0
H519 H 0.37478 0.94057 0.35815 0.0
C520 C 0.32609 0.18184 0.61679 0.0
C521 C 0.33552 0.18183 0.61189 0.0
C522 C 0.34282 0.1915 0.62644 0.0
C523 C 0.34379 0.18669 0.61663 0.0
C524 C 0.33323 0.19184 0.63105 0.0
C525 C 0.32497 0.18707 0.62626 0.0
U526 U 0.31045 0.16342 0.59831 0.0
O527 O 0.30141 0.15045 0.60454 0.0
O528 O 0.29384 0.16352 0.59643 0.0
C529 C 0.2929 0.15475 0.60148 0.0
C530 C 0.31753 0.17559 0.61301 0.0
C531 C 0.28302 0.14985 0.60355 0.0
C532 C 0.27073 0.14262 0.61559 0.0
C533 C 0.28 0.14752 0.61371 0.0
C534 C 0.26728 0.14254 0.59717 0.0
C535 C 0.2643 0.13986 0.60734 0.0
C536 C 0.27651 0.14752 0.59532 0.0
C537 C 0.32475 0.15577 0.57159 0.0
C538 C 0.32584 0.14194 0.55869 0.0
C539 C 0.3375 0.15635 0.55806 0.0
C540 C 0.33278 0.16081 0.56664 0.0
C541 C 0.33427 0.14676 0.55413 0.0
C542 C 0.32112 0.1464 0.56743 0.0
C543 C 0.32143 0.16005 0.58168 0.0
O544 O 0.31224 0.17908 0.60513 0.0
O545 O 0.31894 0.16552 0.61274 0.0
O546 O 0.32185 0.15419 0.59 0.0
O547 O 0.31464 0.16748 0.58213 0.0
H548 H 0.33655 0.17783 0.60458 0.0
H549 H 0.35101 0.18647 0.6127 0.0
H550 H 0.33216 0.19535 0.63859 0.0
H551 H 0.31775 0.18709 0.6302 0.0
H552 H 0.26879 0.14066 0.6235 0.0
H553 H 0.28487 0.14937 0.62019 0.0
H554 H 0.26249 0.14079 0.5906 0.0
H555 H 0.27864 0.14936 0.58742 0.0
H556 H 0.32332 0.13446 0.55591 0.0
H557 H 0.34406 0.16016 0.55479 0.0
H558 H 0.33577 0.16799 0.56975 0.0
H559 H 0.31497 0.14234 0.57117 0.0
C560 C 0.0539 0.04883 0.86306 0.0
C561 C 0.05767 0.05834 0.85952 0.0
C562 C 0.05041 0.06704 0.87453 0.0
C563 C 0.05589 0.06737 0.86519 0.0
C564 C 0.04601 0.05766 0.87764 0.0
C565 C 0.04778 0.04858 0.87194 0.0
U566 U 0.07051 0.03445 0.84379 0.0
O567 O 0.08015 0.02084 0.84602 0.0
O568 O 0.06772 0.02019 0.83477 0.0
C569 C 0.075 0.0151 0.83948 0.0
C570 C 0.05727 0.03909 0.85824 0.0
C571 C 0.07275 0.00453 0.84306 0.0
C572 C 0.06648 0.99256 0.85611 0.0
C573 C 0.06702 0.00261 0.852 0.0
C574 C 0.07705 0.98628 0.84214 0.0
C575 C 0.07181 0.98431 0.85144 0.0
C576 C 0.07747 0.99626 0.83801 0.0
C577 C 0.08766 0.05316 0.82719 0.0
C578 C 0.10378 0.05084 0.81838 0.0
C579 C 0.09576 0.06771 0.81869 0.0
C580 C 0.08768 0.06359 0.82423 0.0
C581 C 0.10397 0.06145 0.81592 0.0
C582 C 0.09564 0.04669 0.82404 0.0
C583 C 0.07981 0.04989 0.8346 0.0
O584 O 0.05483 0.03776 0.84845 0.0
O585 O 0.0667 0.03666 0.86021 0.0
O586 O 0.08291 0.04571 0.84331 0.0
O587 O 0.07152 0.04568 0.83091 0.0
H588 H 0.06241 0.05868 0.85269 0.0
H589 H 0.05932 0.07454 0.86259 0.0
H590 H 0.04183 0.05718 0.88484 0.0
H591 H 0.04483 0.04128 0.87477 0.0
H592 H 0.06218 0.99135 0.86314 0.0
H593 H 0.0633 0.00893 0.85601 0.0
H594 H 0.08142 0.98029 0.83835 0.0
H595 H 0.08197 0.99761 0.83113 0.0
H596 H 0.11013 0.04592 0.81643 0.0
H597 H 0.09581 0.07593 0.81697 0.0
H598 H 0.08164 0.06872 0.82666 0.0
H599 H 0.0958 0.03862 0.82634 0.0
C600 C 0.19017 0.81085 0.11468 0.0
C601 C 0.1814 0.81361 0.10929 0.0
C602 C 0.17175 0.80086 0.11911 0.0
C603 C 0.1723 0.80862 0.11144 0.0
C604 C 0.18064 0.79787 0.12422 0.0
C605 C 0.18978 0.80285 0.12203 0.0
U606 U 0.20475 0.83324 0.10257 0.0
O607 O 0.21564 0.84393 0.10959 0.0
O608 O 0.22039 0.83387 0.09674 0.0
C609 C 0.22316 0.84062 0.10384 0.0
C610 C 0.1996 0.81663 0.1131 0.0
C611 C 0.23262 0.83842 0.10941 0.0
C612 C 0.24161 0.8326 0.12479 0.0
C613 C 0.23269 0.83321 0.11897 0.0
C614 C 0.25054 0.84184 0.11126 0.0
C615 C 0.25057 0.83713 0.12109 0.0
C616 C 0.24164 0.84249 0.1055 0.0
C617 C 0.18837 0.85147 0.08477 0.0
C618 C 0.18571 0.87005 0.08278 0.0
C619 C 0.1771 0.85799 0.07145 0.0
C620 C 0.18192 0.84971 0.07634 0.0
C621 C 0.17864 0.86817 0.0749 0.0
C622 C 0.1906 0.86173 0.08767 0.0
C623 C 0.19086 0.84252 0.09143 0.0
O624 O 0.2034 0.81627 0.10369 0.0
O625 O 0.19967 0.82601 0.11708 0.0
O626 O 0.19233 0.84438 0.10134 0.0
O627 O 0.19679 0.83528 0.08765 0.0
H628 H 0.18157 0.81975 0.10356 0.0
H629 H 0.16563 0.81097 0.10718 0.0
H630 H 0.18047 0.79196 0.13019 0.0
H631 H 0.19651 0.80065 0.12627 0.0
H632 H 0.24142 0.82884 0.13229 0.0
H633 H 0.2258 0.82997 0.1221 0.0
H634 H 0.25726 0.84552 0.10823 0.0
H635 H 0.24172 0.84656 0.09815 0.0
H636 H 0.18682 0.87784 0.0857 0.0
H637 H 0.17149 0.85636 0.06555 0.0
H638 H 0.17998 0.84188 0.07405 0.0
H639 H 0.19551 0.86329 0.0942 0.0
C640 C 0.12811 0.43484 0.06921 0.0
C641 C 0.13153 0.43135 0.0789 0.0
C642 C 0.11592 0.43732 0.08708 0.0
C643 C 0.12549 0.43257 0.08775 0.0
C644 C 0.11269 0.44105 0.07739 0.0
C645 C 0.11872 0.43981 0.06857 0.0
U646 U 0.1525 0.42843 0.05412 0.0
O647 O 0.15482 0.41764 0.04112 0.0
O648 O 0.15749 0.4343 0.03885 0.0
C649 C 0.15738 0.42502 0.03461 0.0
C650 C 0.13388 0.43293 0.05959 0.0
C651 C 0.15375 0.4239 0.0238 0.0
C652 C 0.14137 0.4258 0.00989 0.0
C653 C 0.14447 0.42775 0.02018 0.0
C654 C 0.15679 0.41626 0.00687 0.0
C655 C 0.14745 0.41987 0.00307 0.0
C656 C 0.15989 0.41833 0.01698 0.0
C657 C 0.17611 0.42434 0.07314 0.0
C658 C 0.18918 0.41167 0.07732 0.0
C659 C 0.18772 0.4274 0.08741 0.0
C660 C 0.1798 0.43071 0.08109 0.0
C661 C 0.19217 0.41762 0.08593 0.0
C662 C 0.18115 0.41497 0.071 0.0
C663 C 0.16592 0.4267 0.06903 0.0
O664 O 0.14056 0.44 0.057 0.0
O665 O 0.13717 0.42342 0.05824 0.0
O666 O 0.16433 0.43545 0.06405 0.0
O667 O 0.1603 0.41897 0.06577 0.0
H668 H 0.13879 0.42755 0.0796 0.0
H669 H 0.12832 0.42978 0.09511 0.0
H670 H 0.10536 0.44466 0.07654 0.0
H671 H 0.11594 0.44255 0.06116 0.0
H672 H 0.1342 0.42889 0.00735 0.0
H673 H 0.13959 0.43212 0.02531 0.0
H674 H 0.16167 0.4114 1.00224 0.0
H675 H 0.16707 0.41526 0.0196 0.0
H676 H 0.19242 0.40407 0.07604 0.0
H677 H 0.18989 0.43219 0.09394 0.0
H678 H 0.17602 0.43792 0.08296 0.0
H679 H 0.17843 0.40986 0.06495 0.0
C680 C 0.62756 0.07029 0.93632 0.0
C681 C 0.63105 0.07356 0.92658 0.0
C682 C 0.61532 0.06783 0.91852 0.0
C683 C 0.62498 0.07236 0.91777 0.0
C684 C 0.61201 0.06431 0.92826 0.0
C685 C 0.61807 0.06555 0.93706 0.0
U686 U 0.65223 0.07665 0.95069 0.0
O687 O 0.65498 0.08758 0.96346 0.0
O688 O 0.65773 0.07096 0.96582 0.0
C689 C 0.65771 0.08028 0.96997 0.0
C690 C 0.63345 0.07217 0.94585 0.0
C691 C 0.65414 0.08143 0.98077 0.0
C692 C 0.64163 0.07988 0.99456 0.0
C693 C 0.64472 0.07791 0.98429 0.0
C694 C 0.65734 0.08885 0.99776 0.0
C695 C 0.64784 0.08556 1.00146 0.0
C696 C 0.66044 0.08672 0.98765 0.0
C697 C 0.67568 0.08071 0.9319 0.0
C698 C 0.68847 0.09371 0.92788 0.0
C699 C 0.68823 0.07745 0.91855 0.0
C700 C 0.68009 0.0741 0.92454 0.0
C701 C 0.69217 0.08748 0.91979 0.0
C702 C 0.68023 0.09037 0.93388 0.0
C703 C 0.66533 0.07822 0.93547 0.0
O704 O 0.64018 0.06509 0.94829 0.0
O705 O 0.63679 0.08168 0.9471 0.0
O706 O 0.65962 0.08592 0.93863 0.0
O707 O 0.66378 0.06951 0.94053 0.0
H708 H 0.63838 0.07719 0.92582 0.0
H709 H 0.62786 0.07498 0.91037 0.0
H710 H 0.60461 0.06087 0.92914 0.0
H711 H 0.61525 0.06298 0.94451 0.0
H712 H 0.63435 0.077 0.99701 0.0
H713 H 0.63972 0.07376 0.97909 0.0
H714 H 0.66235 0.09351 1.00244 0.0
H715 H 0.66773 0.08954 0.9851 0.0
H716 H 0.6913 0.10152 0.92893 0.0
H717 H 0.69093 0.07249 0.91235 0.0
H718 H 0.67669 0.06666 0.92281 0.0
H719 H 0.67698 0.09566 0.93948 0.0
C720 C 0.17864 0.37818 0.18542 0.0
C721 C 0.17492 0.3787 0.17525 0.0
C722 C 0.19204 0.37691 0.16827 0.0
C723 C 0.18153 0.37801 0.16679 0.0
C724 C 0.19565 0.37594 0.17848 0.0
C725 C 0.18902 0.37659 0.18695 0.0
U726 U 0.15311 0.3857 0.19749 0.0
O727 O 0.14516 0.37978 0.21138 0.0
O728 O 0.14982 0.39614 0.21052 0.0
C729 C 0.14527 0.3889 0.21595 0.0
C730 C 0.17197 0.37992 0.19448 0.0
C731 C 0.14606 0.38944 0.22736 0.0
C732 C 0.15535 0.39262 0.24341 0.0
C733 C 0.15528 0.39036 0.23271 0.0
C734 C 0.13708 0.39269 0.24346 0.0
C735 C 0.14621 0.39412 0.24878 0.0
C736 C 0.13702 0.39034 0.23291 0.0
C737 C 0.13243 0.39239 0.17632 0.0
C738 C 0.11576 0.40045 0.17675 0.0
C739 C 0.12344 0.39583 0.16037 0.0
C740 C 0.1318 0.39193 0.16554 0.0
C741 C 0.11524 0.40017 0.16582 0.0
C742 C 0.12433 0.39659 0.18199 0.0
C743 C 0.14205 0.38904 0.18094 0.0
O744 O 0.16922 0.38958 0.19601 0.0
O745 O 0.1645 0.37333 0.19573 0.0
O746 O 0.1424 0.38003 0.18567 0.0
O747 O 0.14772 0.39619 0.18526 0.0
H748 H 0.16694 0.37988 0.17386 0.0
H749 H 0.1784 0.37857 0.15905 0.0
H750 H 0.20366 0.37515 0.17996 0.0
H751 H 0.19205 0.37616 0.19473 0.0
H752 H 0.16248 0.39376 0.24734 0.0
H753 H 0.16236 0.38977 0.22855 0.0
H754 H 0.12994 0.39382 0.2474 0.0
H755 H 0.12983 0.38972 0.22895 0.0
H756 H 0.10964 0.40371 0.18125 0.0
H757 H 0.12369 0.39578 0.15199 0.0
H758 H 0.13802 0.38885 0.16102 0.0
H759 H 0.12471 0.39706 0.19036 0.0
C760 C 0.89189 0.9005 0.40455 0.0
C761 C 0.89297 0.89578 0.39481 0.0
C762 C 0.89603 0.91269 0.38672 0.0
C763 C 0.89518 0.90178 0.38604 0.0
C764 C 0.8953 0.91724 0.39664 0.0
C765 C 0.89334 0.91121 0.40541 0.0
U766 U 0.87617 0.8793 0.41775 0.0
O767 O 0.87924 0.86941 0.43134 0.0
O768 O 0.86657 0.88041 0.43161 0.0
C769 C 0.87169 0.87332 0.43668 0.0
C770 C 0.88863 0.89465 0.41382 0.0
C771 C 0.87327 0.87511 0.44785 0.0
C772 C 0.88047 0.88443 0.4625 0.0
C773 C 0.8795 0.88301 0.45173 0.0
C774 C 0.869 0.87013 0.46547 0.0
C775 C 0.87519 0.87801 0.46951 0.0
C776 C 0.86806 0.86873 0.45479 0.0
C777 C 0.85918 0.8625 0.39982 0.0
C778 C 0.84201 0.8562 0.40198 0.0
C779 C 0.85167 0.85133 0.38682 0.0
C780 C 0.85993 0.85689 0.39056 0.0
C781 C 0.84244 0.85138 0.39221 0.0
C782 C 0.85033 0.86173 0.40577 0.0
C783 C 0.86702 0.87027 0.40213 0.0
O784 O 0.87914 0.896 0.41643 0.0
O785 O 0.89158 0.88493 0.41458 0.0
O786 O 0.87563 0.86691 0.40592 0.0
O787 O 0.86388 0.87892 0.40643 0.0
H788 H 0.89193 0.8875 0.39394 0.0
H789 H 0.89604 0.89778 0.37872 0.0
H790 H 0.89572 0.92554 0.39768 0.0
H791 H 0.89254 0.91501 0.41286 0.0
H792 H 0.88526 0.89062 0.46531 0.0
H793 H 0.88355 0.88806 0.44647 0.0
H794 H 0.86501 0.86487 0.47057 0.0
H795 H 0.86323 0.86258 0.45194 0.0
H796 H 0.83501 0.85643 0.40632 0.0
H797 H 0.85232 0.84753 0.37935 0.0
H798 H 0.86671 0.85735 0.38588 0.0
H799 H 0.8496 0.86596 0.41299 0.0
C800 C 0.80392 0.11319 0.20596 0.0
C801 C 0.80775 0.10979 0.19642 0.0
C802 C 0.80012 0.12465 0.18777 0.0
C803 C 0.80583 0.11545 0.18741 0.0
C804 C 0.79569 0.12762 0.1972 0.0
C805 C 0.79761 0.12193 0.20624 0.0
U806 U 0.82053 0.0939 0.22045 0.0
O807 O 0.83011 0.09617 0.23411 0.0
O808 O 0.81766 0.08495 0.23474 0.0
C809 C 0.82494 0.08964 0.23984 0.0
C810 C 0.80733 0.10836 0.21569 0.0
C811 C 0.82273 0.09319 0.25045 0.0
C812 C 0.81652 0.1062 0.26252 0.0
C813 C 0.817 0.10212 0.25244 0.0
C814 C 0.82712 0.09222 0.26869 0.0
C815 C 0.82191 0.10152 0.27072 0.0
C816 C 0.82749 0.08812 0.25869 0.0
C817 C 0.83769 0.07714 0.20183 0.0
C818 C 0.85374 0.0682 0.20419 0.0
C819 C 0.84578 0.0686 0.18729 0.0
C820 C 0.83773 0.07419 0.19139 0.0
C821 C 0.85395 0.06574 0.19357 0.0
C822 C 0.84563 0.07391 0.20832 0.0
C823 C 0.82987 0.08458 0.20509 0.0
O824 O 0.80487 0.09858 0.21704 0.0
O825 O 0.81677 0.11031 0.21811 0.0
O826 O 0.83299 0.0933 0.20926 0.0
O827 O 0.82155 0.08094 0.20928 0.0
H828 H 0.81263 0.10306 0.19603 0.0
H829 H 0.80931 0.11296 0.18022 0.0
H830 H 0.79134 0.13472 0.19771 0.0
H831 H 0.7946 0.12466 0.21356 0.0
H832 H 0.81222 0.11322 0.26377 0.0
H833 H 0.81325 0.10614 0.24616 0.0
H834 H 0.83152 0.08841 0.27464 0.0
H835 H 0.83198 0.08124 0.25728 0.0
H836 H 0.86006 0.06618 0.20912 0.0
H837 H 0.84585 0.06689 0.17906 0.0
H838 H 0.83173 0.07667 0.18624 0.0
H839 H 0.84577 0.07619 0.2164 0.0
C840 C 0.39191 0.60451 0.60067 0.0
C841 C 0.39298 0.60922 0.61041 0.0
C842 C 0.39605 0.59231 0.6185 0.0
C843 C 0.39519 0.60322 0.61918 0.0
C844 C 0.39533 0.58776 0.60858 0.0
C845 C 0.39337 0.59379 0.59981 0.0
U846 U 0.37619 0.6257 0.58747 0.0
O847 O 0.37926 0.63559 0.57389 0.0
O848 O 0.3666 0.6246 0.57361 0.0
C849 C 0.37171 0.63169 0.56854 0.0
C850 C 0.38865 0.61036 0.5914 0.0
C851 C 0.3733 0.62989 0.55737 0.0
C852 C 0.38051 0.62057 0.54273 0.0
C853 C 0.37954 0.62199 0.5535 0.0
C854 C 0.36904 0.63487 0.53975 0.0
C855 C 0.37524 0.62699 0.53571 0.0
C856 C 0.36809 0.63627 0.55042 0.0
C857 C 0.3592 0.6425 0.6054 0.0
C858 C 0.34203 0.64881 0.60323 0.0
C859 C 0.35169 0.65368 0.6184 0.0
C860 C 0.35995 0.64812 0.61465 0.0
C861 C 0.34246 0.65364 0.613 0.0
C862 C 0.35035 0.64328 0.59945 0.0
C863 C 0.36704 0.63474 0.60309 0.0
O864 O 0.37916 0.609 0.58879 0.0
O865 O 0.3916 0.62007 0.59064 0.0
O866 O 0.37565 0.63809 0.59931 0.0
O867 O 0.3639 0.62609 0.59879 0.0
H868 H 0.39193 0.6175 0.61128 0.0
H869 H 0.39605 0.60722 0.6265 0.0
H870 H 0.39575 0.57946 0.60754 0.0
H871 H 0.39257 0.59 0.59236 0.0
H872 H 0.38531 0.61438 0.53992 0.0
H873 H 0.38359 0.61695 0.55876 0.0
H874 H 0.36505 0.64012 0.53465 0.0
H875 H 0.36325 0.64242 0.55327 0.0
H876 H 0.33503 0.64859 0.59889 0.0
H877 H 0.35233 0.65748 0.62586 0.0
H878 H 0.36673 0.64766 0.61934 0.0
H879 H 0.34962 0.63905 0.59223 0.0
C880 C 0.17868 0.62678 0.31975 0.0
C881 C 0.17495 0.62627 0.32991 0.0
C882 C 0.19206 0.62805 0.3369 0.0
C883 C 0.18155 0.62695 0.33838 0.0
C884 C 0.19568 0.62903 0.32669 0.0
C885 C 0.18905 0.62838 0.31822 0.0
U886 U 0.15315 0.61928 0.30768 0.0
O887 O 0.14519 0.62519 0.2938 0.0
O888 O 0.14985 0.60883 0.29466 0.0
C889 C 0.1453 0.61607 0.28924 0.0
C890 C 0.17201 0.62505 0.31069 0.0
C891 C 0.14608 0.61552 0.27783 0.0
C892 C 0.15537 0.61252 0.26175 0.0
C893 C 0.15529 0.61475 0.27246 0.0
C894 C 0.1371 0.61218 0.26175 0.0
C895 C 0.14623 0.6109 0.2564 0.0
C896 C 0.13703 0.61451 0.2723 0.0
C897 C 0.13247 0.61259 0.32886 0.0
C898 C 0.1158 0.60455 0.32843 0.0
C899 C 0.12349 0.60915 0.34481 0.0
C900 C 0.13185 0.61304 0.33964 0.0
C901 C 0.11528 0.60482 0.33936 0.0
C902 C 0.12437 0.6084 0.32319 0.0
C903 C 0.1421 0.61594 0.32424 0.0
O904 O 0.16925 0.61539 0.30916 0.0
O905 O 0.16453 0.63164 0.30943 0.0
O906 O 0.14244 0.62495 0.31951 0.0
O907 O 0.14776 0.60879 0.31992 0.0
H908 H 0.16696 0.62509 0.33129 0.0
H909 H 0.17842 0.6264 0.34611 0.0
H910 H 0.20369 0.62981 0.32521 0.0
H911 H 0.19209 0.6288 0.31044 0.0
H912 H 0.16251 0.6115 0.25779 0.0
H913 H 0.16237 0.61544 0.2766 0.0
H914 H 0.12997 0.61097 0.25782 0.0
H915 H 0.12985 0.61502 0.27628 0.0
H916 H 0.10967 0.6013 0.32393 0.0
H917 H 0.12374 0.60919 0.3532 0.0
H918 H 0.13806 0.61612 0.34416 0.0
H919 H 0.12475 0.60794 0.31482 0.0
C920 C 0.30383 0.39177 0.79923 0.0
C921 C 0.30767 0.39518 0.80876 0.0
C922 C 0.30007 0.38032 0.81742 0.0
C923 C 0.30577 0.38953 0.81778 0.0
C924 C 0.29563 0.37733 0.80801 0.0
C925 C 0.29753 0.38302 0.79895 0.0
U926 U 0.32042 0.41106 0.78472 0.0
O927 O 0.33 0.4088 0.77105 0.0
O928 O 0.31754 0.42001 0.77043 0.0
C929 C 0.32482 0.41533 0.76533 0.0
C930 C 0.30723 0.3966 0.78949 0.0
C931 C 0.32262 0.41179 0.75472 0.0
C932 C 0.31642 0.39879 0.74263 0.0
C933 C 0.31689 0.40286 0.75271 0.0
C934 C 0.32703 0.41276 0.73648 0.0
C935 C 0.32182 0.40347 0.73444 0.0
C936 C 0.32739 0.41687 0.74649 0.0
C937 C 0.3376 0.42782 0.80331 0.0
C938 C 0.35373 0.43663 0.80098 0.0
C939 C 0.34566 0.43644 0.81783 0.0
C940 C 0.3376 0.43086 0.81372 0.0
C941 C 0.35389 0.43918 0.81157 0.0
C942 C 0.34561 0.43092 0.79685 0.0
C943 C 0.32978 0.42037 0.80007 0.0
O944 O 0.30476 0.40638 0.78814 0.0
O945 O 0.31666 0.39465 0.78706 0.0
O946 O 0.33289 0.41165 0.79591 0.0
O947 O 0.32145 0.42401 0.79589 0.0
H948 H 0.31254 0.40192 0.80914 0.0
H949 H 0.30924 0.39203 0.82496 0.0
H950 H 0.29129 0.37024 0.80751 0.0
H951 H 0.29452 0.38028 0.79164 0.0
H952 H 0.31213 0.39177 0.74137 0.0
H953 H 0.31313 0.39884 0.75899 0.0
H954 H 0.33144 0.41658 0.73054 0.0
H955 H 0.33188 0.42374 0.7479 0.0
H956 H 0.36009 0.43854 0.79607 0.0
H957 H 0.34569 0.43822 0.82604 0.0
H958 H 0.33155 0.42847 0.81885 0.0
H959 H 0.34578 0.42857 0.78879 0.0
C960 C 0.93986 0.86095 0.56041 0.0
C961 C 0.93099 0.8558 0.56327 0.0
C962 C 0.92145 0.8661 0.55074 0.0
C963 C 0.92187 0.85832 0.55843 0.0
C964 C 0.93045 0.87096 0.54769 0.0
C965 C 0.93956 0.8684 0.55251 0.0
U966 U 0.95754 0.84925 0.58157 0.0
O967 O 0.97355 0.84477 0.57976 0.0
O968 O 0.96921 0.85753 0.59018 0.0
C969 C 0.97658 0.85198 0.58626 0.0
C970 C 0.94948 0.85909 0.56577 0.0
C971 C 0.98586 0.85763 0.5839 0.0
C972 C 0.99449 0.87357 0.57924 0.0
C973 C 0.98577 0.86744 0.57918 0.0
C974 C 0.0035 0.85988 0.5882 0.0
C975 C 0.00336 0.86994 0.58401 0.0
C976 C 0.99483 0.8538 0.58812 0.0
C977 C 0.94033 0.83147 0.60045 0.0
C978 C 0.93618 0.82386 0.61714 0.0
C979 C 0.92355 0.82497 0.60359 0.0
C980 C 0.93056 0.82952 0.59694 0.0
C981 C 0.92618 0.82247 0.61389 0.0
C982 C 0.94321 0.82837 0.61045 0.0
C983 C 0.94736 0.83763 0.59428 0.0
O984 O 0.95029 0.86312 0.57509 0.0
O985 O 0.95333 0.84972 0.56505 0.0
O986 O 0.94798 0.84772 0.59548 0.0
O987 O 0.95139 0.83391 0.58573 0.0
H988 H 0.93109 0.84999 0.56933 0.0
H989 H 0.9151 0.85425 0.56081 0.0
H990 H 0.9304 0.877 0.54187 0.0
H991 H 0.94637 0.87244 0.55022 0.0
H992 H 0.99422 0.88126 0.57589 0.0
H993 H 0.97886 0.87054 0.57594 0.0
H994 H 0.01014 0.85691 0.59209 0.0
H995 H 0.99498 0.84632 0.59194 0.0
H996 H 0.93842 0.82202 0.62501 0.0
H997 H 0.91593 0.82377 0.6008 0.0
H998 H 0.92825 0.83185 0.58923 0.0
H999 H 0.95079 0.82986 0.61324 0.0
C1000 C 0.87937 0.18572 0.31721 0.0
C1001 C 0.88367 0.17628 0.32031 0.0
C1002 C 0.86768 0.1674 0.31726 0.0
C1003 C 0.87788 0.16721 0.32034 0.0
C1004 C 0.8636 0.17671 0.31352 0.0
C1005 C 0.86939 0.18581 0.31354 0.0
U1006 U 0.90337 0.20127 0.32327 0.0
O1007 O 0.90836 0.21664 0.31761 0.0
O1008 O 0.90552 0.21413 0.33424 0.0
C1009 C 0.90833 0.22066 0.32699 0.0
C1010 C 0.88481 0.19561 0.3187 0.0
C1011 C 0.90563 0.23171 0.32844 0.0
C1012 C 0.89424 0.24665 0.32814 0.0
C1013 C 0.89624 0.23612 0.32585 0.0
C1014 C 0.91093 0.24826 0.33555 0.0
C1015 C 0.90161 0.25288 0.33307 0.0
C1016 C 0.91291 0.23793 0.3332 0.0
C1017 C 0.92711 0.18269 0.32774 0.0
C1018 C 0.94157 0.18185 0.33944 0.0
C1019 C 0.93862 0.16804 0.32713 0.0
C1020 C 0.93022 0.17331 0.3233 0.0
C1021 C 0.94415 0.17198 0.33557 0.0
C1022 C 0.93306 0.18715 0.3356 0.0
C1023 C 0.91685 0.18641 0.32514 0.0
O1024 O 0.88799 0.19732 0.32819 0.0
O1025 O 0.89154 0.19809 0.31163 0.0
O1026 O 0.91108 0.18959 0.33278 0.0
O1027 O 0.91537 0.19144 0.3164 0.0
H1028 H 0.89138 0.17601 0.32311 0.0
H1029 H 0.88129 0.1601 0.32311 0.0
H1030 H 0.85578 0.1771 0.31111 0.0
H1031 H 0.86594 0.19302 0.3111 0.0
H1032 H 0.88698 0.24988 0.32607 0.0
H1033 H 0.89047 0.23143 0.32219 0.0
H1034 H 0.91673 0.25251 0.33965 0.0
H1035 H 0.92016 0.2347 0.33536 0.0
H1036 H 0.94564 0.18512 0.34594 0.0
H1037 H 0.94049 0.16057 0.3238 0.0
H1038 H 0.92575 0.1697 0.31725 0.0
H1039 H 0.9308 0.19439 0.33917 0.0
C1040 C 0.57381 0.13884 0.07354 0.0
C1041 C 0.58243 0.14504 0.07254 0.0
C1042 C 0.5918 0.13046 0.06516 0.0
C1043 C 0.59131 0.14092 0.06835 0.0
C1044 C 0.58297 0.12446 0.06555 0.0
C1045 C 0.57406 0.12862 0.06974 0.0
U1046 U 0.55999 0.15898 0.09044 0.0
O1047 O 0.54398 0.16386 0.09058 0.0
O1048 O 0.55066 0.15644 0.1043 0.0
C1049 C 0.54252 0.16044 0.10007 0.0
C1050 C 0.56485 0.14258 0.07927 0.0
C1051 C 0.53262 0.15571 0.10267 0.0
C1052 C 0.52233 0.14186 0.11019 0.0
C1053 C 0.5315 0.14532 0.10583 0.0
C1054 C 0.51523 0.15895 0.10781 0.0
C1055 C 0.51421 0.14877 0.11158 0.0
C1056 C 0.52428 0.16235 0.10343 0.0
C1057 C 0.57628 0.18404 0.09663 0.0
C1058 C 0.57688 0.19647 0.11091 0.0
C1059 C 0.58841 0.19816 0.09646 0.0
C1060 C 0.58404 0.18953 0.09172 0.0
C1061 C 0.58509 0.20155 0.10622 0.0
C1062 C 0.5725 0.18773 0.10614 0.0
C1063 C 0.57345 0.17389 0.09214 0.0
O1064 O 0.56594 0.14309 0.08938 0.0
O1065 O 0.56018 0.15071 0.07544 0.0
O1066 O 0.56658 0.17369 0.0848 0.0
O1067 O 0.573 0.1659 0.09844 0.0
H1068 H 0.58242 0.15295 0.07538 0.0
H1069 H 0.59796 0.14579 0.06804 0.0
H1070 H 0.58312 0.11639 0.06324 0.0
H1071 H 0.56747 0.12371 0.07043 0.0
H1072 H 0.52181 0.13398 0.11303 0.0
H1073 H 0.53783 0.14002 0.10538 0.0
H1074 H 0.5091 0.16445 0.10861 0.0
H1075 H 0.52493 0.1704 0.10111 0.0
H1076 H 0.57432 0.19884 0.11852 0.0
H1077 H 0.59483 0.20183 0.09276 0.0
H1078 H 0.58713 0.1868 0.08443 0.0
H1079 H 0.56654 0.18357 0.1101 0.0
C1080 C 0.63978 0.85153 0.85322 0.0
C1081 C 0.63314 0.85995 0.85224 0.0
C1082 C 0.64444 0.86819 0.83973 0.0
C1083 C 0.63543 0.86817 0.84555 0.0
C1084 C 0.65134 0.86003 0.84126 0.0
C1085 C 0.64901 0.85179 0.84792 0.0
U1086 U 0.62446 0.83736 0.87413 0.0
O1087 O 0.61536 0.82314 0.87289 0.0
O1088 O 0.62804 0.82378 0.88386 0.0
C1089 C 0.62062 0.81822 0.87998 0.0
C1090 C 0.6368 0.84202 0.85887 0.0
C1091 C 0.62233 0.80702 0.8784 0.0
C1092 C 0.6304 0.79223 0.87007 0.0
C1093 C 0.62925 0.80302 0.87119 0.0
C1094 C 0.61777 0.78943 0.88332 0.0
C1095 C 0.62466 0.78526 0.87614 0.0
C1096 C 0.61662 0.80013 0.88439 0.0
C1097 C 0.60723 0.85517 0.89117 0.0
C1098 C 0.59004 0.85361 0.89761 0.0
C1099 C 0.60024 0.8684 0.90246 0.0
C1100 C 0.60833 0.86438 0.89681 0.0
C1101 C 0.59085 0.86332 0.9025 0.0
C1102 C 0.59817 0.84956 0.89196 0.0
C1103 C 0.61496 0.85268 0.88332 0.0
O1104 O 0.63979 0.84122 0.86856 0.0
O1105 O 0.62741 0.83905 0.85749 0.0
O1106 O 0.61177 0.84823 0.87477 0.0
O1107 O 0.62367 0.84909 0.88661 0.0
H1108 H 0.62598 0.85996 0.85629 0.0
H1109 H 0.62985 0.87422 0.84455 0.0
H1110 H 0.65844 0.85986 0.83712 0.0
H1111 H 0.65428 0.84541 0.84862 0.0
H1112 H 0.63573 0.78936 0.86439 0.0
H1113 H 0.63371 0.80821 0.86644 0.0
H1114 H 0.61338 0.78443 0.88833 0.0
H1115 H 0.61126 0.80305 0.89003 0.0
H1116 H 0.5829 0.84953 0.89744 0.0
H1117 H 0.60116 0.87582 0.90628 0.0
H1118 H 0.61525 0.86882 0.89632 0.0
H1119 H 0.59716 0.84241 0.88768 0.0
C1120 C 0.93989 0.14405 0.94485 0.0
C1121 C 0.93101 0.14919 0.94199 0.0
C1122 C 0.92148 0.13891 0.95453 0.0
C1123 C 0.92189 0.14667 0.94683 0.0
C1124 C 0.93048 0.13405 0.95758 0.0
C1125 C 0.93959 0.1366 0.95276 0.0
U1126 U 0.95756 0.15573 0.92368 0.0
O1127 O 0.97357 0.16021 0.92548 0.0
O1128 O 0.96923 0.14746 0.91506 0.0
C1129 C 0.9766 0.15301 0.91898 0.0
C1130 C 0.9495 0.1459 0.93949 0.0
C1131 C 0.98588 0.14735 0.92134 0.0
C1132 C 0.99451 0.13142 0.926 0.0
C1133 C 0.98579 0.13755 0.92606 0.0
C1134 C 0.00351 0.1451 0.91704 0.0
C1135 C 0.00338 0.13505 0.92122 0.0
C1136 C 0.99484 0.15118 0.91712 0.0
C1137 C 0.94035 0.17351 0.90479 0.0
C1138 C 0.93621 0.18112 0.88809 0.0
C1139 C 0.92356 0.18002 0.90164 0.0
C1140 C 0.93057 0.17547 0.9083 0.0
C1141 C 0.92621 0.18251 0.89134 0.0
C1142 C 0.94323 0.1766 0.89479 0.0
C1143 C 0.94736 0.16735 0.91097 0.0
O1144 O 0.95031 0.14187 0.93017 0.0
O1145 O 0.95335 0.15527 0.9402 0.0
O1146 O 0.94799 0.15726 0.90978 0.0
O1147 O 0.9514 0.17107 0.91952 0.0
H1148 H 0.93111 0.155 0.93593 0.0
H1149 H 0.91513 0.15074 0.94445 0.0
H1150 H 0.93043 0.12801 0.9634 0.0
H1151 H 0.9464 0.13256 0.95505 0.0
H1152 H 0.99424 0.12373 0.92935 0.0
H1153 H 0.97887 0.13445 0.9293 0.0
H1154 H 0.01015 0.14808 0.91315 0.0
H1155 H 0.99499 0.15867 0.9133 0.0
H1156 H 0.93845 0.18295 0.88023 0.0
H1157 H 0.91594 0.18122 0.90442 0.0
H1158 H 0.92826 0.17314 0.91601 0.0
H1159 H 0.95081 0.17511 0.89201 0.0
C1160 C 0.63967 0.15413 0.65214 0.0
C1161 C 0.63311 0.14564 0.65305 0.0
C1162 C 0.64434 0.13756 0.66572 0.0
C1163 C 0.63539 0.13748 0.6598 0.0
C1164 C 0.65116 0.14581 0.66428 0.0
C1165 C 0.64882 0.15401 0.65758 0.0
U1166 U 0.62428 0.16774 0.631 0.0
O1167 O 0.61505 0.18187 0.63195 0.0
O1168 O 0.62772 0.18113 0.62098 0.0
C1169 C 0.62029 0.18672 0.6248 0.0
C1170 C 0.63667 0.16353 0.64635 0.0
C1171 C 0.62209 0.1979 0.62638 0.0
C1172 C 0.62962 0.21259 0.63536 0.0
C1173 C 0.62844 0.20181 0.63416 0.0
C1174 C 0.61812 0.21552 0.62108 0.0
C1175 C 0.62444 0.21959 0.62884 0.0
C1176 C 0.61697 0.20483 0.61989 0.0
C1177 C 0.60721 0.14961 0.61427 0.0
C1178 C 0.59006 0.15119 0.60773 0.0
C1179 C 0.60027 0.13638 0.60296 0.0
C1180 C 0.60833 0.14039 0.60865 0.0
C1181 C 0.59089 0.14147 0.60286 0.0
C1182 C 0.59817 0.15524 0.61341 0.0
C1183 C 0.61492 0.15217 0.6221 0.0
O1184 O 0.63965 0.16416 0.63664 0.0
O1185 O 0.62726 0.16646 0.64767 0.0
O1186 O 0.61171 0.15672 0.63059 0.0
O1187 O 0.62362 0.15576 0.61877 0.0
H1188 H 0.626 0.14554 0.6489 0.0
H1189 H 0.62986 0.13138 0.66073 0.0
H1190 H 0.65821 0.14607 0.66851 0.0
H1191 H 0.65402 0.16046 0.65693 0.0
H1192 H 0.63451 0.21543 0.64146 0.0
H1193 H 0.63242 0.19658 0.63929 0.0
H1194 H 0.61419 0.22059 0.61576 0.0
H1195 H 0.61205 0.20196 0.61383 0.0
H1196 H 0.58292 0.15528 0.60786 0.0
H1197 H 0.60121 0.12895 0.59915 0.0
H1198 H 0.61525 0.13595 0.60918 0.0
H1199 H 0.59714 0.1624 0.61766 0.0
C1200 C 0.57347 0.86589 0.43162 0.0
C1201 C 0.5821 0.85968 0.43262 0.0
C1202 C 0.59148 0.87431 0.43987 0.0
C1203 C 0.59098 0.86384 0.43676 0.0
C1204 C 0.58265 0.88031 0.43948 0.0
C1205 C 0.57373 0.87612 0.43536 0.0
U1206 U 0.55977 0.84567 0.41481 0.0
O1207 O 0.54378 0.84072 0.41464 0.0
O1208 O 0.55048 0.8481 0.4009 0.0
C1209 C 0.54233 0.84413 0.40514 0.0
C1210 C 0.56451 0.86212 0.42592 0.0
C1211 C 0.53247 0.84895 0.40259 0.0
C1212 C 0.52231 0.86294 0.39516 0.0
C1213 C 0.53145 0.85937 0.39948 0.0
C1214 C 0.51504 0.84591 0.3975 0.0
C1215 C 0.51413 0.85611 0.39377 0.0
C1216 C 0.52407 0.84239 0.40183 0.0
C1217 C 0.57612 0.82069 0.40864 0.0
C1218 C 0.57671 0.80833 0.39431 0.0
C1219 C 0.58827 0.80659 0.40873 0.0
C1220 C 0.5839 0.81519 0.41352 0.0
C1221 C 0.58493 0.80324 0.39896 0.0
C1222 C 0.57232 0.81704 0.39912 0.0
C1223 C 0.57331 0.83083 0.41316 0.0
O1224 O 0.5656 0.86159 0.41581 0.0
O1225 O 0.55989 0.85397 0.42978 0.0
O1226 O 0.56641 0.831 0.42048 0.0
O1227 O 0.57284 0.83882 0.40686 0.0
H1228 H 0.58208 0.85176 0.42983 0.0
H1229 H 0.59763 0.85896 0.43707 0.0
H1230 H 0.58281 0.88839 0.44174 0.0
H1231 H 0.56713 0.88103 0.43466 0.0
H1232 H 0.52186 0.87084 0.39235 0.0
H1233 H 0.53783 0.86459 0.39994 0.0
H1234 H 0.50886 0.84048 0.39668 0.0
H1235 H 0.52465 0.83433 0.40412 0.0
H1236 H 0.57414 0.806 0.38669 0.0
H1237 H 0.5947 0.80291 0.4124 0.0
H1238 H 0.587 0.81789 0.4208 0.0
H1239 H 0.56636 0.82122 0.39519 0.0
C1240 C 0.87938 0.81922 0.18807 0.0
C1241 C 0.88365 0.82865 0.18494 0.0
C1242 C 0.86765 0.83752 0.18804 0.0
C1243 C 0.87784 0.83771 0.18492 0.0
C1244 C 0.8636 0.8282 0.19181 0.0
C1245 C 0.86941 0.81911 0.19177 0.0
U1246 U 0.90336 0.8037 0.18186 0.0
O1247 O 0.9084 0.78833 0.18749 0.0
O1248 O 0.90546 0.79084 0.17088 0.0
C1249 C 0.90831 0.78431 0.17811 0.0
C1250 C 0.88482 0.80933 0.18655 0.0
C1251 C 0.90562 0.77325 0.17667 0.0
C1252 C 0.89423 0.75832 0.17694 0.0
C1253 C 0.89623 0.76885 0.17924 0.0
C1254 C 0.91094 0.7567 0.16958 0.0
C1255 C 0.9016 0.75208 0.17203 0.0
C1256 C 0.91291 0.76703 0.17194 0.0
C1257 C 0.92701 0.8224 0.17729 0.0
C1258 C 0.94149 0.82329 0.16562 0.0
C1259 C 0.93837 0.83719 0.1778 0.0
C1260 C 0.93 0.83186 0.18165 0.0
C1261 C 0.94396 0.83322 0.16942 0.0
C1262 C 0.93302 0.81794 0.16949 0.0
C1263 C 0.9168 0.81859 0.17993 0.0
O1264 O 0.88795 0.80763 0.17704 0.0
O1265 O 0.89159 0.80686 0.19358 0.0
O1266 O 0.91101 0.81539 0.17231 0.0
O1267 O 0.91538 0.81355 0.18867 0.0
H1268 H 0.89135 0.82893 0.18211 0.0
H1269 H 0.88122 0.84483 0.18212 0.0
H1270 H 0.85578 0.82781 0.19424 0.0
H1271 H 0.86598 0.8119 0.19423 0.0
H1272 H 0.88697 0.75509 0.179 0.0
H1273 H 0.89045 0.77354 0.18288 0.0
H1274 H 0.91674 0.75246 0.16548 0.0
H1275 H 0.92017 0.77026 0.16979 0.0
H1276 H 0.94562 0.82 0.15917 0.0
H1277 H 0.94015 0.8447 0.18108 0.0
H1278 H 0.92549 0.83547 0.18765 0.0
H1279 H 0.93085 0.81065 0.16598 0.0
C1280 C 0.55263 0.95671 0.86202 0.0
C1281 C 0.5564 0.94715 0.85863 0.0
C1282 C 0.5491 0.93865 0.87374 0.0
C1283 C 0.55462 0.93819 0.86441 0.0
C1284 C 0.54468 0.94808 0.87669 0.0
C1285 C 0.54647 0.95708 0.87087 0.0
U1286 U 0.56941 0.97096 0.84275 0.0
O1287 O 0.56703 0.98541 0.8339 0.0
O1288 O 0.57932 0.98432 0.84529 0.0
C1289 C 0.57444 0.99022 0.83868 0.0
C1290 C 0.55613 0.9664 0.8572 0.0
C1291 C 0.57271 1.00103 0.84194 0.0
C1292 C 0.56921 0.01404 0.85514 0.0
C1293 C 0.56918 0.00365 0.85186 0.0
C1294 C 0.57595 0.01921 0.83849 0.0
C1295 C 0.57286 0.02195 0.84857 0.0
C1296 C 0.57583 0.00891 0.83522 0.0
C1297 C 0.58645 0.95283 0.82567 0.0
C1298 C 0.60391 0.95418 0.81998 0.0
C1299 C 0.59401 0.9391 0.81535 0.0
C1300 C 0.58566 0.94333 0.82044 0.0
C1301 C 0.60331 0.9443 0.81544 0.0
C1302 C 0.59551 0.95847 0.82502 0.0
C1303 C 0.57844 0.95556 0.83314 0.0
O1304 O 0.56561 0.96866 0.85915 0.0
O1305 O 0.55367 0.96784 0.84742 0.0
O1306 O 0.57021 0.96 0.82957 0.0
O1307 O 0.58143 0.95932 0.8421 0.0
H1308 H 0.56118 0.9467 0.85182 0.0
H1309 H 0.55805 0.93099 0.86192 0.0
H1310 H 0.54047 0.94866 0.88386 0.0
H1311 H 0.54352 0.96441 0.8736 0.0
H1312 H 0.5666 0.01582 0.86289 0.0
H1313 H 0.56673 0.99766 0.85718 0.0
H1314 H 0.57901 0.02493 0.83322 0.0
H1315 H 0.57866 0.00703 0.82757 0.0
H1316 H 0.61107 0.95821 0.82031 0.0
H1317 H 0.59344 0.93136 0.81213 0.0
H1318 H 0.57879 0.93881 0.82094 0.0
H1319 H 0.59631 0.9658 0.82903 0.0
C1320 C 0.82281 0.82286 0.61608 0.0
C1321 C 0.83188 0.82194 0.61056 0.0
C1322 C 0.83964 0.81284 0.62518 0.0
C1323 C 0.84019 0.81694 0.61504 0.0
C1324 C 0.8304 0.81341 0.63048 0.0
C1325 C 0.82208 0.81839 0.62596 0.0
U1326 U 0.80982 0.84021 0.59556 0.0
O1327 O 0.79387 0.8406 0.59054 0.0
O1328 O 0.80065 0.85419 0.5981 0.0
C1329 C 0.79248 0.85006 0.59407 0.0
C1330 C 0.81424 0.82895 0.61199 0.0
C1331 C 0.78262 0.85258 0.59892 0.0
C1332 C 0.77245 0.85997 0.61294 0.0
C1333 C 0.78161 0.85571 0.60934 0.0
C1334 C 0.76515 0.85752 0.59593 0.0
C1335 C 0.76424 0.86129 0.60613 0.0
C1336 C 0.7742 0.85325 0.59239 0.0
C1337 C 0.82603 0.84634 0.57056 0.0
C1338 C 0.82646 0.86077 0.55831 0.0
C1339 C 0.83796 0.84634 0.55625 0.0
C1340 C 0.83371 0.8415 0.56488 0.0
C1341 C 0.83458 0.85614 0.55304 0.0
C1342 C 0.82219 0.8559 0.56705 0.0
C1343 C 0.82334 0.84175 0.58069 0.0
O1344 O 0.81569 0.83901 0.61146 0.0
O1345 O 0.80961 0.82521 0.60378 0.0
O1346 O 0.81639 0.83449 0.58087 0.0
O1347 O 0.82298 0.84801 0.58873 0.0
H1348 H 0.8326 0.82529 0.60289 0.0
H1349 H 0.84712 0.81645 0.61062 0.0
H1350 H 0.82969 0.81043 0.63829 0.0
H1351 H 0.81513 0.81902 0.63035 0.0
H1352 H 0.772 0.86281 0.62083 0.0
H1353 H 0.788 0.85531 0.61455 0.0
H1354 H 0.75894 0.85827 0.59052 0.0
H1355 H 0.77476 0.85094 0.58433 0.0
H1356 H 0.82387 0.86842 0.5561 0.0
H1357 H 0.84433 0.84271 0.55244 0.0
H1358 H 0.83685 0.83419 0.56748 0.0
H1359 H 0.81629 0.85981 0.57135 0.0
C1360 C 0.92888 0.06987 0.37413 0.0
C1361 C 0.92423 0.07963 0.37412 0.0
C1362 C 0.9407 0.08821 0.37357 0.0
C1363 C 0.93006 0.08868 0.37392 0.0
C1364 C 0.94535 0.07844 0.37419 0.0
C1365 C 0.93948 0.06935 0.37444 0.0
U1366 U 0.90403 0.05627 0.36755 0.0
O1367 O 0.90103 0.04301 0.35728 0.0
O1368 O 0.89673 0.04216 0.37375 0.0
C1369 C 0.89677 0.03752 0.36466 0.0
C1370 C 0.92283 0.06028 0.37293 0.0
C1371 C 0.89782 0.02613 0.3642 0.0
C1372 C 0.90735 0.00997 0.36495 0.0
C1373 C 0.90685 0.02081 0.36628 0.0
C1374 C 0.88984 0.0098 0.35965 0.0
C1375 C 0.89887 0.00437 0.36141 0.0
C1376 C 0.88934 0.02051 0.36101 0.0
C1377 C 0.88271 0.07656 0.36032 0.0
C1378 C 0.86561 0.07519 0.35342 0.0
C1379 C 0.87391 0.09187 0.35439 0.0
C1380 C 0.88233 0.08724 0.35879 0.0
C1381 C 0.86534 0.08599 0.35158 0.0
C1382 C 0.87427 0.07049 0.3577 0.0
C1383 C 0.89241 0.07235 0.36394 0.0
O1384 O 0.91552 0.05883 0.37969 0.0
O1385 O 0.92003 0.0582 0.36338 0.0
O1386 O 0.89832 0.06818 0.35691 0.0
O1387 O 0.8928 0.06771 0.373 0.0
H1388 H 0.91607 0.08026 0.37389 0.0
H1389 H 0.92621 0.09608 0.3736 0.0
H1390 H 0.95349 0.07778 0.37387 0.0
H1391 H 0.94322 0.06189 0.37444 0.0
H1392 H 0.91443 0.00602 0.3664 0.0
H1393 H 0.9135 0.02502 0.36874 0.0
H1394 H 0.88308 0.00577 0.3572 0.0
H1395 H 0.88229 0.02445 0.35941 0.0
H1396 H 0.85923 0.07035 0.35144 0.0
H1397 H 0.87446 0.10007 0.35277 0.0
H1398 H 0.8888 0.09205 0.36064 0.0
H1399 H 0.87445 0.06217 0.3588 0.0
C1400 C 0.69082 0.19507 0.11269 0.0
C1401 C 0.68212 0.19253 0.10708 0.0
C1402 C 0.67235 0.20496 0.1172 0.0
C1403 C 0.67299 0.19747 0.10927 0.0
C1404 C 0.68118 0.20779 0.12251 0.0
C1405 C 0.69035 0.20285 0.12028 0.0
U1406 U 0.70535 0.17269 0.10045 0.0
O1407 O 0.72102 0.17198 0.09469 0.0
O1408 O 0.71612 0.16184 0.1074 0.0
C1409 C 0.72369 0.16509 0.10168 0.0
C1410 C 0.70023 0.18924 0.11113 0.0
C1411 C 0.73323 0.16694 0.10724 0.0
C1412 C 0.74251 0.17281 0.12243 0.0
C1413 C 0.73358 0.17252 0.11659 0.0
C1414 C 0.75093 0.1625 0.10933 0.0
C1415 C 0.75121 0.16761 0.11896 0.0
C1416 C 0.74202 0.16215 0.10356 0.0
C1417 C 0.68832 0.15526 0.08222 0.0
C1418 C 0.68767 0.13693 0.07757 0.0
C1419 C 0.6756 0.14898 0.07026 0.0
C1420 C 0.68018 0.15711 0.07557 0.0
C1421 C 0.67908 0.13877 0.07145 0.0
C1422 C 0.69226 0.14515 0.083 0.0
C1423 C 0.69132 0.16381 0.08915 0.0
O1424 O 0.70021 0.17982 0.115 0.0
O1425 O 0.70412 0.18967 0.10177 0.0
O1426 O 0.69737 0.171 0.0855 0.0
O1427 O 0.69291 0.16156 0.09895 0.0
H1428 H 0.68234 0.18657 0.10116 0.0
H1429 H 0.66637 0.19527 0.10485 0.0
H1430 H 0.68095 0.21349 0.12867 0.0
H1431 H 0.69702 0.2049 0.12468 0.0
H1432 H 0.74254 0.17687 0.12978 0.0
H1433 H 0.72687 0.1763 0.11955 0.0
H1434 H 0.75746 0.15832 0.1065 0.0
H1435 H 0.74188 0.15777 0.09639 0.0
H1436 H 0.69043 0.1291 0.07865 0.0
H1437 H 0.66898 0.1506 0.06559 0.0
H1438 H 0.67698 0.16482 0.0749 0.0
H1439 H 0.69851 0.14355 0.08815 0.0
C1440 C 0.55258 0.04825 0.64325 0.0
C1441 C 0.55633 0.05783 0.64663 0.0
C1442 C 0.549 0.06629 0.63152 0.0
C1443 C 0.55451 0.06677 0.64084 0.0
C1444 C 0.5446 0.05684 0.62857 0.0
C1445 C 0.54642 0.04786 0.6344 0.0
U1446 U 0.56948 0.03408 0.66244 0.0
O1447 O 0.56716 0.01966 0.67138 0.0
O1448 O 0.57938 0.0207 0.6599 0.0
C1449 C 0.57453 0.01482 0.66656 0.0
C1450 C 0.55611 0.03857 0.64807 0.0
C1451 C 0.57276 0.00401 0.66334 0.0
C1452 C 0.56922 0.99098 0.65016 0.0
C1453 C 0.56922 1.00137 0.65341 0.0
C1454 C 0.57592 0.98582 0.66683 0.0
C1455 C 0.57284 0.98307 0.65675 0.0
C1456 C 0.57583 0.99613 0.67007 0.0
C1457 C 0.58658 0.05238 0.67933 0.0
C1458 C 0.60408 0.05122 0.68497 0.0
C1459 C 0.59406 0.06623 0.68954 0.0
C1460 C 0.58573 0.0619 0.6845 0.0
C1461 C 0.6034 0.06111 0.68947 0.0
C1462 C 0.5957 0.04683 0.67998 0.0
C1463 C 0.57856 0.04953 0.67192 0.0
O1464 O 0.56558 0.03631 0.64607 0.0
O1465 O 0.55372 0.03717 0.65787 0.0
O1466 O 0.57035 0.04511 0.67556 0.0
O1467 O 0.58152 0.04571 0.66298 0.0
H1468 H 0.56111 0.05829 0.65344 0.0
H1469 H 0.55794 0.07399 0.64332 0.0
H1470 H 0.5404 0.05625 0.6214 0.0
H1471 H 0.54349 0.04051 0.63167 0.0
H1472 H 0.56661 0.98919 0.64241 0.0
H1473 H 0.56679 0.00736 0.64808 0.0
H1474 H 0.57896 0.9801 0.67211 0.0
H1475 H 0.57866 0.99801 0.67773 0.0
H1476 H 0.61127 0.04724 0.68466 0.0
H1477 H 0.59343 0.07398 0.69273 0.0
H1478 H 0.57882 0.06636 0.684 0.0
H1479 H 0.59655 0.03948 0.676 0.0
C1480 C 0.69075 0.81006 0.39253 0.0
C1481 C 0.68203 0.81275 0.39804 0.0
C1482 C 0.67222 0.80027 0.388 0.0
C1483 C 0.67287 0.80787 0.39584 0.0
C1484 C 0.68108 0.79731 0.38279 0.0
C1485 C 0.69026 0.80219 0.38503 0.0
U1486 U 0.70564 0.83221 0.40481 0.0
O1487 O 0.72134 0.83261 0.41053 0.0
O1488 O 0.7166 0.84286 0.39784 0.0
C1489 C 0.72412 0.83946 0.40354 0.0
C1490 C 0.70023 0.81577 0.39412 0.0
C1491 C 0.73363 0.83745 0.39795 0.0
C1492 C 0.74276 0.83179 0.38257 0.0
C1493 C 0.73385 0.83213 0.38844 0.0
C1494 C 0.75143 0.84151 0.39593 0.0
C1495 C 0.75158 0.83669 0.38615 0.0
C1496 C 0.74254 0.8419 0.40174 0.0
C1497 C 0.68842 0.84971 0.42303 0.0
C1498 C 0.68785 0.86788 0.42828 0.0
C1499 C 0.67505 0.8559 0.43426 0.0
C1500 C 0.6798 0.84784 0.429 0.0
C1501 C 0.6788 0.86606 0.43369 0.0
C1502 C 0.69261 0.85973 0.42289 0.0
C1503 C 0.6917 0.84128 0.41608 0.0
O1504 O 0.70036 0.82519 0.39026 0.0
O1505 O 0.70412 0.81526 0.40349 0.0
O1506 O 0.6934 0.84359 0.40632 0.0
O1507 O 0.6977 0.83405 0.41978 0.0
H1508 H 0.68226 0.81878 0.40389 0.0
H1509 H 0.66625 0.81017 0.40019 0.0
H1510 H 0.68084 0.79153 0.37671 0.0
H1511 H 0.69695 0.80002 0.38071 0.0
H1512 H 0.74267 0.82794 0.3751 0.0
H1513 H 0.72705 0.82861 0.38538 0.0
H1514 H 0.75804 0.84546 0.39887 0.0
H1515 H 0.74252 0.84607 0.40903 0.0
H1516 H 0.69086 0.87566 0.42771 0.0
H1517 H 0.66812 0.85426 0.43842 0.0
H1518 H 0.67641 0.84019 0.42918 0.0
H1519 H 0.69925 0.86134 0.41827 0.0
C1520 C 0.92899 0.93552 0.13142 0.0
C1521 C 0.92437 0.92575 0.13111 0.0
C1522 C 0.94086 0.91723 0.13181 0.0
C1523 C 0.93024 0.91672 0.13123 0.0
C1524 C 0.94549 0.92702 0.13153 0.0
C1525 C 0.93959 0.93609 0.13136 0.0
U1526 U 0.90397 0.94873 0.13787 0.0
O1527 O 0.90067 0.96194 0.1481 0.0
O1528 O 0.89648 0.9627 0.13161 0.0
C1529 C 0.89642 0.96737 0.14067 0.0
C1530 C 0.92286 0.94505 0.13266 0.0
C1531 C 0.89759 0.97874 0.14104 0.0
C1532 C 0.90746 0.9947 0.14106 0.0
C1533 C 0.90687 0.98387 0.13976 0.0
C1534 C 0.88957 0.99526 0.14476 0.0
C1535 C 0.89882 1.00048 0.1438 0.0
C1536 C 0.88897 0.98456 0.14339 0.0
C1537 C 0.8827 0.92834 0.14462 0.0
C1538 C 0.86597 0.92978 0.15237 0.0
C1539 C 0.87346 0.91293 0.1495 0.0
C1540 C 0.88188 0.91758 0.14512 0.0
C1541 C 0.8653 0.91887 0.15333 0.0
C1542 C 0.87465 0.93449 0.14815 0.0
C1543 C 0.8925 0.93248 0.14123 0.0
O1544 O 0.91561 0.94649 0.12584 0.0
O1545 O 0.91994 0.94699 0.1422 0.0
O1546 O 0.89822 0.93672 0.14838 0.0
O1547 O 0.89305 0.93711 0.13217 0.0
H1548 H 0.91622 0.92509 0.13115 0.0
H1549 H 0.92642 0.9093 0.13132 0.0
H1550 H 0.95362 0.9277 0.13205 0.0
H1551 H 0.94331 0.94356 0.13161 0.0
H1552 H 0.9147 0.99851 0.14025 0.0
H1553 H 0.91363 0.9795 0.13796 0.0
H1554 H 0.88273 0.99946 0.14664 0.0
H1555 H 0.88174 0.98077 0.14438 0.0
H1556 H 0.85993 0.93475 0.15503 0.0
H1557 H 0.8738 0.90461 0.15033 0.0
H1558 H 0.88806 0.91271 0.14254 0.0
H1559 H 0.87517 0.94286 0.14784 0.0
C1560 C 0.82284 0.18211 0.88916 0.0
C1561 C 0.83191 0.18303 0.89467 0.0
C1562 C 0.83968 0.19213 0.88004 0.0
C1563 C 0.84022 0.18803 0.89018 0.0
C1564 C 0.83043 0.19154 0.87475 0.0
C1565 C 0.82211 0.18657 0.87927 0.0
U1566 U 0.80986 0.16476 0.90968 0.0
O1567 O 0.79391 0.16438 0.91472 0.0
O1568 O 0.80068 0.15078 0.90715 0.0
C1569 C 0.79252 0.15492 0.9112 0.0
C1570 C 0.81427 0.17602 0.89325 0.0
C1571 C 0.78265 0.1524 0.90637 0.0
C1572 C 0.77245 0.14491 0.89243 0.0
C1573 C 0.78162 0.14918 0.89598 0.0
C1574 C 0.76517 0.14753 0.90942 0.0
C1575 C 0.76424 0.14368 0.89926 0.0
C1576 C 0.77423 0.15181 0.91291 0.0
C1577 C 0.82607 0.15863 0.93469 0.0
C1578 C 0.82649 0.14421 0.94694 0.0
C1579 C 0.83799 0.15864 0.949 0.0
C1580 C 0.83374 0.16348 0.94037 0.0
C1581 C 0.83461 0.14884 0.95221 0.0
C1582 C 0.82223 0.14908 0.9382 0.0
C1583 C 0.82338 0.16322 0.92455 0.0
O1584 O 0.81572 0.16596 0.89378 0.0
O1585 O 0.80965 0.17976 0.90146 0.0
O1586 O 0.81643 0.17048 0.92437 0.0
O1587 O 0.82302 0.15696 0.91652 0.0
H1588 H 0.83264 0.17969 0.90234 0.0
H1589 H 0.84715 0.18852 0.89461 0.0
H1590 H 0.82972 0.19452 0.86693 0.0
H1591 H 0.81516 0.18594 0.87489 0.0
H1592 H 0.77198 0.14201 0.88457 0.0
H1593 H 0.78801 0.14952 0.89076 0.0
H1594 H 0.75896 0.14685 0.91485 0.0
H1595 H 0.77481 0.15419 0.92095 0.0
H1596 H 0.8239 0.13656 0.94916 0.0
H1597 H 0.84436 0.16228 0.95281 0.0
H1598 H 0.83688 0.17079 0.93777 0.0
H1599 H 0.81633 0.14517 0.9339 0.0
C1600 C 0.88971 0.60297 0.90422 0.0
C1601 C 0.88315 0.60205 0.89572 0.0
C1602 C 0.89439 0.58938 0.88765 0.0
C1603 C 0.88544 0.5953 0.88756 0.0
C1604 C 0.90121 0.59082 0.8959 0.0
C1605 C 0.89887 0.59752 0.9041 0.0
U1606 U 0.87432 0.62411 0.91779 0.0
O1607 O 0.8651 0.62318 0.93194 0.0
O1608 O 0.87776 0.63415 0.93118 0.0
C1609 C 0.87035 0.63033 0.93678 0.0
C1610 C 0.88671 0.60877 0.91361 0.0
C1611 C 0.87217 0.62874 0.94795 0.0
C1612 C 0.87976 0.61977 0.96261 0.0
C1613 C 0.87855 0.62097 0.95184 0.0
C1614 C 0.86823 0.63402 0.96559 0.0
C1615 C 0.87457 0.62627 0.96963 0.0
C1616 C 0.86706 0.63521 0.9549 0.0
C1617 C 0.85724 0.64083 0.89968 0.0
C1618 C 0.84009 0.64736 0.90127 0.0
C1619 C 0.8503 0.65215 0.88647 0.0
C1620 C 0.85836 0.64646 0.89047 0.0
C1621 C 0.84091 0.65224 0.89156 0.0
C1622 C 0.8482 0.64168 0.90531 0.0
C1623 C 0.86495 0.633 0.90222 0.0
O1624 O 0.88969 0.61847 0.91423 0.0
O1625 O 0.8773 0.60744 0.91654 0.0
O1626 O 0.86174 0.62451 0.90678 0.0
O1627 O 0.87365 0.63633 0.90581 0.0
H1628 H 0.87605 0.6062 0.89562 0.0
H1629 H 0.87991 0.59436 0.88145 0.0
H1630 H 0.90826 0.5866 0.89615 0.0
H1631 H 0.90407 0.59818 0.91055 0.0
H1632 H 0.88466 0.61368 0.96543 0.0
H1633 H 0.88253 0.61586 0.94658 0.0
H1634 H 0.86429 0.63933 0.97068 0.0
H1635 H 0.86211 0.64127 0.95205 0.0
H1636 H 0.83295 0.64724 0.90537 0.0
H1637 H 0.85123 0.65596 0.87905 0.0
H1638 H 0.86528 0.64593 0.88603 0.0
H1639 H 0.84717 0.63743 0.91247 0.0
C1640 C 0.38981 0.90186 0.10165 0.0
C1641 C 0.38318 0.90285 0.11008 0.0
C1642 C 0.39448 0.91537 0.1183 0.0
C1643 C 0.38547 0.90955 0.1183 0.0
C1644 C 0.40138 0.91383 0.11014 0.0
C1645 C 0.39904 0.90717 0.1019 0.0
U1646 U 0.37448 0.88095 0.08752 0.0
O1647 O 0.36539 0.88217 0.07329 0.0
O1648 O 0.37806 0.87119 0.07395 0.0
C1649 C 0.37065 0.87507 0.06837 0.0
C1650 C 0.38683 0.8962 0.09216 0.0
C1651 C 0.37239 0.87667 0.05718 0.0
C1652 C 0.3805 0.885 0.04242 0.0
C1653 C 0.37932 0.88387 0.05321 0.0
C1654 C 0.36787 0.87175 0.03957 0.0
C1655 C 0.37476 0.87894 0.03544 0.0
C1656 C 0.3667 0.87067 0.05027 0.0
C1657 C 0.35722 0.86394 0.1053 0.0
C1658 C 0.34003 0.85751 0.10371 0.0
C1659 C 0.35022 0.85263 0.1185 0.0
C1660 C 0.35831 0.85828 0.1145 0.0
C1661 C 0.34083 0.8526 0.11341 0.0
C1662 C 0.34817 0.86316 0.09968 0.0
C1663 C 0.36496 0.87178 0.10283 0.0
O1664 O 0.38981 0.88651 0.09137 0.0
O1665 O 0.37744 0.89759 0.08918 0.0
O1666 O 0.36178 0.88033 0.09837 0.0
O1667 O 0.37367 0.86849 0.09925 0.0
H1668 H 0.37602 0.8988 0.11009 0.0
H1669 H 0.37989 0.91057 0.12435 0.0
H1670 H 0.40848 0.91797 0.10997 0.0
H1671 H 0.40431 0.90645 0.09552 0.0
H1672 H 0.38583 0.89067 0.03957 0.0
H1673 H 0.38377 0.88861 0.05842 0.0
H1674 H 0.36349 0.86675 0.03456 0.0
H1675 H 0.36133 0.86504 0.05318 0.0
H1676 H 0.33289 0.85768 0.09962 0.0
H1677 H 0.35113 0.8488 0.12591 0.0
H1678 H 0.36523 0.85875 0.11895 0.0
H1679 H 0.34716 0.86745 0.09254 0.0
C1680 C 0.80253 0.61177 0.7984 0.0
C1681 C 0.80628 0.60841 0.80798 0.0
C1682 C 0.799 0.62357 0.8164 0.0
C1683 C 0.80449 0.61424 0.81691 0.0
C1684 C 0.7946 0.6265 0.80695 0.0
C1685 C 0.7964 0.62063 0.79799 0.0
U1686 U 0.81939 0.59248 0.78435 0.0
O1687 O 0.81704 0.5834 0.77003 0.0
O1688 O 0.82925 0.59489 0.77092 0.0
C1689 C 0.82439 0.58817 0.76512 0.0
C1690 C 0.80603 0.60689 0.78874 0.0
C1691 C 0.82257 0.59129 0.7543 0.0
C1692 C 0.81879 0.60428 0.74118 0.0
C1693 C 0.81889 0.60113 0.7516 0.0
C1694 C 0.82572 0.58767 0.73613 0.0
C1695 C 0.82246 0.59767 0.73331 0.0
C1696 C 0.82572 0.58453 0.74647 0.0
C1697 C 0.83654 0.57573 0.80266 0.0
C1698 C 0.85401 0.57005 0.80138 0.0
C1699 C 0.8441 0.56557 0.8165 0.0
C1700 C 0.83575 0.57061 0.81221 0.0
C1701 C 0.85339 0.5656 0.8113 0.0
C1702 C 0.84561 0.57504 0.79704 0.0
C1703 C 0.8285 0.58314 0.79984 0.0
O1704 O 0.81549 0.60887 0.78644 0.0
O1705 O 0.80363 0.59708 0.78742 0.0
O1706 O 0.82027 0.57947 0.79548 0.0
O1707 O 0.83145 0.59205 0.79595 0.0
H1708 H 0.81104 0.6016 0.80845 0.0
H1709 H 0.80792 0.61178 0.82413 0.0
H1710 H 0.79041 0.63368 0.80634 0.0
H1711 H 0.79346 0.62334 0.79063 0.0
H1712 H 0.81607 0.61197 0.73933 0.0
H1713 H 0.81641 0.60648 0.75756 0.0
H1714 H 0.8288 0.58238 0.73044 0.0
H1715 H 0.82867 0.57693 0.7484 0.0
H1716 H 0.86118 0.57033 0.79735 0.0
H1717 H 0.84352 0.56242 0.82426 0.0
H1718 H 0.82887 0.57114 0.81672 0.0
H1719 H 0.84641 0.57898 0.78967 0.0
C1720 C 0.13386 0.06658 0.57445 0.0
C1721 C 0.13671 0.06967 0.58441 0.0
C1722 C 0.11949 0.06704 0.59042 0.0
C1723 C 0.12958 0.06985 0.59236 0.0
C1724 C 0.11679 0.06336 0.58058 0.0
C1725 C 0.12396 0.06317 0.57262 0.0
U1726 U 0.15467 0.07251 0.55222 0.0
O1727 O 0.15294 0.06455 0.53707 0.0
O1728 O 0.14813 0.08077 0.53901 0.0
C1729 C 0.14865 0.07271 0.53283 0.0
C1730 C 0.14055 0.0683 0.5656 0.0
C1731 C 0.15008 0.07483 0.52174 0.0
C1732 C 0.14228 0.07497 0.50468 0.0
C1733 C 0.1425 0.07151 0.51493 0.0
C1734 C 0.1576 0.08474 0.50773 0.0
C1735 C 0.14968 0.08183 0.501 0.0
C1736 C 0.15776 0.08131 0.51805 0.0
C1737 C 0.17963 0.07986 0.5668 0.0
C1738 C 0.19298 0.09041 0.57432 0.0
C1739 C 0.18533 0.07674 0.58447 0.0
C1740 C 0.17903 0.07422 0.57609 0.0
C1741 C 0.19228 0.08502 0.58377 0.0
C1742 C 0.18675 0.08784 0.56597 0.0
C1743 C 0.17309 0.07776 0.55775 0.0
O1744 O 0.14275 0.0778 0.56276 0.0
O1745 O 0.14655 0.06103 0.56196 0.0
O1746 O 0.16585 0.08451 0.55604 0.0
O1747 O 0.17034 0.06812 0.55597 0.0
H1748 H 0.14431 0.07238 0.58591 0.0
H1749 H 0.13184 0.07262 0.59994 0.0
H1750 H 0.10906 0.06122 0.5789 0.0
H1751 H 0.12163 0.06086 0.5649 0.0
H1752 H 0.13618 0.07243 0.4997 0.0
H1753 H 0.13645 0.06657 0.51768 0.0
H1754 H 0.16339 0.09008 0.50519 0.0
H1755 H 0.1636 0.08407 0.52323 0.0
H1756 H 0.19805 0.09693 0.57346 0.0
H1757 H 0.18467 0.07227 0.59154 0.0
H1758 H 0.17365 0.06795 0.5769 0.0
H1759 H 0.18738 0.09226 0.55886 0.0
C1760 C 0.17933 0.882 0.81937 0.0
C1761 C 0.17531 0.88303 0.82939 0.0
C1762 C 0.19221 0.88155 0.83697 0.0
C1763 C 0.18167 0.88276 0.83808 0.0
C1764 C 0.19612 0.88017 0.82692 0.0
C1765 C 0.18974 0.88041 0.81823 0.0
U1766 U 0.15398 0.8882 0.80637 0.0
O1767 O 0.15061 0.89839 0.79315 0.0
O1768 O 0.14666 0.88184 0.79235 0.0
C1769 C 0.14649 0.89091 0.78769 0.0
C1770 C 0.17293 0.88321 0.81004 0.0
C1771 C 0.14762 0.89132 0.77631 0.0
C1772 C 0.15724 0.89041 0.7602 0.0
C1773 C 0.15668 0.88916 0.77106 0.0
C1774 C 0.13974 0.89577 0.75991 0.0
C1775 C 0.1488 0.89394 0.75454 0.0
C1776 C 0.13919 0.89449 0.77062 0.0
C1777 C 0.13265 0.89493 0.8267 0.0
C1778 C 0.11564 0.90195 0.82514 0.0
C1779 C 0.12353 0.90041 0.84198 0.0
C1780 C 0.13204 0.89609 0.83742 0.0
C1781 C 0.11513 0.90348 0.83598 0.0
C1782 C 0.12438 0.89778 0.82051 0.0
C1783 C 0.14246 0.89153 0.82258 0.0
O1784 O 0.16574 0.8763 0.80872 0.0
O1785 O 0.16989 0.89272 0.80815 0.0
O1786 O 0.14817 0.89869 0.81837 0.0
O1787 O 0.14303 0.88248 0.81795 0.0
H1788 H 0.16729 0.88424 0.83047 0.0
H1789 H 0.17831 0.88362 0.84569 0.0
H1790 H 0.20416 0.87932 0.8257 0.0
H1791 H 0.19301 0.87963 0.81057 0.0
H1792 H 0.16433 0.88891 0.75631 0.0
H1793 H 0.16329 0.8867 0.77532 0.0
H1794 H 0.13301 0.89822 0.75583 0.0
H1795 H 0.13212 0.89614 0.77451 0.0
H1796 H 0.10939 0.90411 0.82019 0.0
H1797 H 0.12392 0.90177 0.85024 0.0
H1798 H 0.13839 0.89406 0.84232 0.0
H1799 H 0.12476 0.89697 0.81217 0.0
C1800 C 0.63384 0.4384 0.43076 0.0
C1801 C 0.63671 0.4353 0.42081 0.0
C1802 C 0.61949 0.43794 0.41477 0.0
C1803 C 0.62959 0.43512 0.41285 0.0
C1804 C 0.61678 0.44163 0.4246 0.0
C1805 C 0.62393 0.44183 0.43257 0.0
U1806 U 0.65464 0.43245 0.45299 0.0
O1807 O 0.65293 0.44039 0.46814 0.0
O1808 O 0.64813 0.42417 0.46619 0.0
C1809 C 0.64864 0.43223 0.47238 0.0
C1810 C 0.6405 0.43668 0.43963 0.0
C1811 C 0.65008 0.43009 0.48347 0.0
C1812 C 0.64227 0.42993 0.50053 0.0
C1813 C 0.64249 0.43341 0.49029 0.0
C1814 C 0.6576 0.42018 0.49748 0.0
C1815 C 0.64968 0.42307 0.50421 0.0
C1816 C 0.65776 0.42361 0.48716 0.0
C1817 C 0.6796 0.42511 0.43837 0.0
C1818 C 0.69296 0.41457 0.43085 0.0
C1819 C 0.68531 0.42824 0.42071 0.0
C1820 C 0.679 0.43076 0.42909 0.0
C1821 C 0.69227 0.41997 0.42141 0.0
C1822 C 0.68674 0.41714 0.4392 0.0
C1823 C 0.67306 0.4272 0.44743 0.0
O1824 O 0.64271 0.42717 0.44246 0.0
O1825 O 0.64651 0.44394 0.44326 0.0
O1826 O 0.66582 0.42045 0.44913 0.0
O1827 O 0.67031 0.43685 0.44921 0.0
H1828 H 0.64431 0.43258 0.41933 0.0
H1829 H 0.63186 0.43235 0.40527 0.0
H1830 H 0.60905 0.44378 0.42626 0.0
H1831 H 0.62159 0.44413 0.44028 0.0
H1832 H 0.63617 0.43247 0.50552 0.0
H1833 H 0.63644 0.43834 0.48754 0.0
H1834 H 0.6634 0.41484 0.50001 0.0
H1835 H 0.66361 0.42086 0.48197 0.0
H1836 H 0.69804 0.40805 0.43172 0.0
H1837 H 0.68464 0.43272 0.41364 0.0
H1838 H 0.67361 0.43702 0.42828 0.0
H1839 H 0.68737 0.41271 0.44631 0.0
C1840 C 0.80257 0.39316 0.70673 0.0
C1841 C 0.80635 0.39652 0.69716 0.0
C1842 C 0.79908 0.38137 0.68871 0.0
C1843 C 0.80458 0.3907 0.68823 0.0
C1844 C 0.79466 0.37844 0.69815 0.0
C1845 C 0.79644 0.3843 0.70713 0.0
U1846 U 0.8193 0.41253 0.72086 0.0
O1847 O 0.81689 0.42154 0.73521 0.0
O1848 O 0.82918 0.41012 0.73428 0.0
C1849 C 0.82428 0.4168 0.7401 0.0
C1850 C 0.80604 0.39805 0.71641 0.0
C1851 C 0.8225 0.41367 0.75092 0.0
C1852 C 0.81876 0.40066 0.76404 0.0
C1853 C 0.81883 0.40382 0.75362 0.0
C1854 C 0.82568 0.41727 0.76909 0.0
C1855 C 0.82244 0.40727 0.7719 0.0
C1856 C 0.82566 0.42042 0.75875 0.0
C1857 C 0.83641 0.42945 0.70272 0.0
C1858 C 0.85385 0.43518 0.70418 0.0
C1859 C 0.84406 0.43971 0.689 0.0
C1860 C 0.83569 0.43463 0.69319 0.0
C1861 C 0.85331 0.43967 0.69428 0.0
C1862 C 0.84542 0.43016 0.70843 0.0
C1863 C 0.82839 0.422 0.70542 0.0
O1864 O 0.81551 0.39612 0.7187 0.0
O1865 O 0.80358 0.40784 0.71775 0.0
O1866 O 0.82013 0.42559 0.70978 0.0
O1867 O 0.83136 0.41307 0.70926 0.0
H1868 H 0.81111 0.40334 0.6967 0.0
H1869 H 0.80802 0.39317 0.68101 0.0
H1870 H 0.79047 0.37127 0.69875 0.0
H1871 H 0.79349 0.38159 0.71447 0.0
H1872 H 0.81605 0.39296 0.76588 0.0
H1873 H 0.81634 0.39847 0.74766 0.0
H1874 H 0.82877 0.42255 0.77478 0.0
H1875 H 0.82859 0.42802 0.75682 0.0
H1876 H 0.86098 0.4349 0.70828 0.0
H1877 H 0.84354 0.44289 0.68125 0.0
H1878 H 0.82885 0.43409 0.68861 0.0
H1879 H 0.84617 0.42618 0.71578 0.0
C1880 C 0.67936 0.62303 0.18577 0.0
C1881 C 0.67535 0.62202 0.17575 0.0
C1882 C 0.69225 0.62351 0.16818 0.0
C1883 C 0.68171 0.6223 0.16706 0.0
C1884 C 0.69615 0.62489 0.17824 0.0
C1885 C 0.68977 0.62464 0.18692 0.0
U1886 U 0.65401 0.61681 0.19878 0.0
O1887 O 0.65066 0.60661 0.212 0.0
O1888 O 0.64669 0.62316 0.21281 0.0
C1889 C 0.64653 0.61409 0.21746 0.0
C1890 C 0.67295 0.62181 0.1951 0.0
C1891 C 0.64765 0.61367 0.22884 0.0
C1892 C 0.65725 0.61458 0.24496 0.0
C1893 C 0.6567 0.61583 0.23411 0.0
C1894 C 0.63976 0.60922 0.24524 0.0
C1895 C 0.6488 0.61105 0.25062 0.0
C1896 C 0.63921 0.6105 0.23453 0.0
C1897 C 0.63267 0.61007 0.17846 0.0
C1898 C 0.61566 0.60304 0.18004 0.0
C1899 C 0.62354 0.60459 0.16319 0.0
C1900 C 0.63204 0.60891 0.16775 0.0
C1901 C 0.61515 0.60151 0.16919 0.0
C1902 C 0.6244 0.60722 0.18466 0.0
C1903 C 0.64248 0.61347 0.18258 0.0
O1904 O 0.66575 0.62871 0.19642 0.0
O1905 O 0.66993 0.6123 0.19699 0.0
O1906 O 0.6482 0.60631 0.18678 0.0
O1907 O 0.64305 0.62252 0.18722 0.0
H1908 H 0.66733 0.6208 0.17467 0.0
H1909 H 0.67835 0.62144 0.15946 0.0
H1910 H 0.70419 0.62575 0.17946 0.0
H1911 H 0.69303 0.62542 0.19458 0.0
H1912 H 0.66433 0.61609 0.24887 0.0
H1913 H 0.66332 0.6183 0.22985 0.0
H1914 H 0.63302 0.60677 0.24931 0.0
H1915 H 0.63215 0.60884 0.23063 0.0
H1916 H 0.60941 0.60087 0.18499 0.0
H1917 H 0.62392 0.60323 0.15493 0.0
H1918 H 0.63839 0.61095 0.16285 0.0
H1919 H 0.62478 0.60802 0.19301 0.0
C1920 C 0.57485 0.63698 0.92995 0.0
C1921 C 0.58414 0.64217 0.93022 0.0
C1922 C 0.59177 0.6278 0.9399 0.0
C1923 C 0.59249 0.63766 0.93518 0.0
C1924 C 0.58231 0.62285 0.93995 0.0
C1925 C 0.57397 0.6274 0.93502 0.0
U1926 U 0.5611 0.65761 0.91313 0.0
O1927 O 0.55252 0.65542 0.89865 0.0
O1928 O 0.54485 0.66147 0.9125 0.0
C1929 C 0.54401 0.65874 0.9027 0.0
C1930 C 0.56619 0.641 0.92387 0.0
C1931 C 0.53452 0.65379 0.89908 0.0
C1932 C 0.51953 0.64295 0.90122 0.0
C1933 C 0.52877 0.64684 0.90504 0.0
C1934 C 0.52179 0.65282 0.88548 0.0
C1935 C 0.51584 0.64597 0.89138 0.0
C1936 C 0.53091 0.65669 0.88929 0.0
C1937 C 0.5764 0.68335 0.90762 0.0
C1938 C 0.57702 0.69534 0.89297 0.0
C1939 C 0.58776 0.69815 0.90787 0.0
C1940 C 0.58363 0.68944 0.91269 0.0
C1941 C 0.5847 0.70104 0.89786 0.0
C1942 C 0.57287 0.68653 0.89782 0.0
C1943 C 0.57402 0.67309 0.91215 0.0
O1944 O 0.56116 0.64884 0.92785 0.0
O1945 O 0.56769 0.64197 0.91385 0.0
O1946 O 0.57419 0.66509 0.90585 0.0
O1947 O 0.56688 0.67253 0.91921 0.0
H1948 H 0.58501 0.64961 0.92642 0.0
H1949 H 0.59956 0.64187 0.93518 0.0
H1950 H 0.58143 0.61527 0.94342 0.0
H1951 H 0.56686 0.62325 0.93491 0.0
H1952 H 0.51519 0.63777 0.90609 0.0
H1953 H 0.53135 0.64451 0.91266 0.0
H1954 H 0.51949 0.65518 0.87778 0.0
H1955 H 0.53518 0.66205 0.88454 0.0
H1956 H 0.57471 0.69728 0.88515 0.0
H1957 H 0.59382 0.70228 0.91171 0.0
H1958 H 0.58655 0.68709 0.92018 0.0
H1959 H 0.56736 0.6819 0.8937 0.0
C1960 C 0.64208 0.35036 0.15079 0.0
C1961 C 0.64305 0.36009 0.14604 0.0
C1962 C 0.64613 0.36826 0.16292 0.0
C1963 C 0.64523 0.3689 0.152 0.0
C1964 C 0.6455 0.35836 0.1675 0.0
C1965 C 0.64358 0.34956 0.1615 0.0
U1966 U 0.62642 0.33725 0.12957 0.0
O1967 O 0.62936 0.32364 0.11968 0.0
O1968 O 0.61664 0.32353 0.13061 0.0
C1969 C 0.62173 0.31839 0.12353 0.0
C1970 C 0.63882 0.34107 0.14499 0.0
C1971 C 0.6232 0.30722 0.12536 0.0
C1972 C 0.63031 0.29256 0.13471 0.0
C1973 C 0.62938 0.30332 0.13328 0.0
C1974 C 0.61886 0.28961 0.12037 0.0
C1975 C 0.62503 0.28556 0.12826 0.0
C1976 C 0.61796 0.30029 0.11897 0.0
C1977 C 0.60978 0.35539 0.11271 0.0
C1978 C 0.59263 0.3534 0.10632 0.0
C1979 C 0.60245 0.3685 0.10155 0.0
C1980 C 0.61065 0.36465 0.10713 0.0
C1981 C 0.59318 0.36319 0.10154 0.0
C1982 C 0.60088 0.34952 0.11187 0.0
C1983 C 0.61754 0.353 0.12052 0.0
O1984 O 0.6293 0.33854 0.1463 0.0
O1985 O 0.64183 0.34023 0.1353 0.0
O1986 O 0.62611 0.34909 0.1172 0.0
O1987 O 0.61429 0.34875 0.12914 0.0
H1988 H 0.64196 0.36092 0.13776 0.0
H1989 H 0.64601 0.3762 0.14798 0.0
H1990 H 0.64595 0.35735 0.1758 0.0
H1991 H 0.64285 0.34212 0.16533 0.0
H1992 H 0.63508 0.28973 0.1409 0.0
H1993 H 0.63345 0.30856 0.13833 0.0
H1994 H 0.61487 0.28453 0.1151 0.0
H1995 H 0.61315 0.30317 0.11281 0.0
H1996 H 0.58559 0.34914 0.10649 0.0
H1997 H 0.60317 0.37597 0.0978 0.0
H1998 H 0.61747 0.36926 0.10764 0.0
H1999 H 0.60007 0.3423 0.11607 0.0
C2000 C 0.94011 0.36447 0.44371 0.0
C2001 C 0.93135 0.35905 0.441 0.0
C2002 C 0.92172 0.36887 0.45378 0.0
C2003 C 0.92226 0.36119 0.44602 0.0
C2004 C 0.9306 0.37403 0.45672 0.0
C2005 C 0.93973 0.37185 0.45169 0.0
U2006 U 0.9548 0.35227 0.42139 0.0
O2007 O 0.96575 0.35928 0.41077 0.0
O2008 O 0.97046 0.34647 0.4209 0.0
C2009 C 0.97327 0.35356 0.41417 0.0
C2010 C 0.94954 0.36286 0.43794 0.0
C2011 C 0.98269 0.35917 0.41643 0.0
C2012 C 0.9916 0.37458 0.42233 0.0
C2013 C 0.9827 0.36873 0.42166 0.0
C2014 C 1.00063 0.36109 0.41313 0.0
C2015 C 1.00061 0.37092 0.41785 0.0
C2016 C 0.99175 0.3553 0.41242 0.0
C2017 C 0.93852 0.33432 0.40312 0.0
C2018 C 0.93605 0.33212 0.38451 0.0
C2019 C 0.92726 0.32097 0.39659 0.0
C2020 C 0.93201 0.32594 0.40487 0.0
C2021 C 0.92894 0.32428 0.38637 0.0
C2022 C 0.94087 0.3371 0.39284 0.0
C2023 C 0.94098 0.34105 0.41204 0.0
O2024 O 0.95335 0.35346 0.43835 0.0
O2025 O 0.94962 0.36678 0.42854 0.0
O2026 O 0.94246 0.35094 0.41014 0.0
O2027 O 0.94688 0.33731 0.41934 0.0
H2028 H 0.93151 0.3533 0.43487 0.0
H2029 H 0.9156 0.35689 0.44372 0.0
H2030 H 0.93044 0.38 0.46262 0.0
H2031 H 0.94645 0.3761 0.45387 0.0
H2032 H 0.99137 0.38208 0.4261 0.0
H2033 H 0.97578 0.37184 0.42486 0.0
H2034 H 0.00739 0.35809 0.40948 0.0
H2035 H 0.99189 0.34796 0.40834 0.0
H2036 H 0.93727 0.33495 0.37671 0.0
H2037 H 0.9216 0.31512 0.39821 0.0
H2038 H 0.92997 0.32374 0.41271 0.0
H2039 H 0.94582 0.34359 0.39127 0.0
C2040 C 0.88291 0.67942 0.68568 0.0
C2041 C 0.8844 0.66937 0.68196 0.0
C2042 C 0.86756 0.66449 0.68775 0.0
C2043 C 0.87685 0.66194 0.68308 0.0
C2044 C 0.8662 0.67453 0.69175 0.0
C2045 C 0.87385 0.68195 0.69072 0.0
U2046 U 0.90379 0.7015 0.679 0.0
O2047 O 0.89683 0.71468 0.67103 0.0
O2048 O 0.90186 0.71645 0.68719 0.0
C2049 C 0.89737 0.72075 0.67918 0.0
C2050 C 0.89037 0.68745 0.68333 0.0
C2051 C 0.89871 0.73188 0.67725 0.0
C2052 C 0.8908 0.74888 0.67738 0.0
C2053 C 0.89099 0.73854 0.68053 0.0
C2054 C 0.90642 0.74624 0.66801 0.0
C2055 C 0.89836 0.75281 0.67084 0.0
C2056 C 0.90657 0.73582 0.67114 0.0
C2057 C 0.92889 0.68747 0.67119 0.0
C2058 C 0.94209 0.68006 0.66034 0.0
C2059 C 0.93509 0.66999 0.67443 0.0
C2060 C 0.92868 0.67828 0.67701 0.0
C2061 C 0.94179 0.67072 0.66595 0.0
C2062 C 0.93574 0.6883 0.66295 0.0
C2063 C 0.92227 0.69644 0.67342 0.0
O2064 O 0.89608 0.69162 0.69055 0.0
O2065 O 0.89219 0.69042 0.67378 0.0
O2066 O 0.91961 0.69811 0.68311 0.0
O2067 O 0.91491 0.69806 0.66679 0.0
H2068 H 0.89134 0.66732 0.67803 0.0
H2069 H 0.87825 0.65421 0.68015 0.0
H2070 H 0.85914 0.67673 0.69534 0.0
H2071 H 0.87256 0.68976 0.69352 0.0
H2072 H 0.8846 0.75373 0.6799 0.0
H2073 H 0.88483 0.73561 0.68522 0.0
H2074 H 0.91234 0.74896 0.66291 0.0
H2075 H 0.91256 0.73077 0.66845 0.0
H2076 H 0.94696 0.6809 0.65366 0.0
H2077 H 0.93471 0.66299 0.67903 0.0
H2078 H 0.92352 0.67745 0.68347 0.0
H2079 H 0.93607 0.69534 0.65838 0.0
C2080 C 0.57488 0.36792 0.57529 0.0
C2081 C 0.58418 0.36273 0.57501 0.0
C2082 C 0.59179 0.3771 0.56532 0.0
C2083 C 0.59252 0.36724 0.57005 0.0
C2084 C 0.58233 0.38204 0.56526 0.0
C2085 C 0.57399 0.3775 0.5702 0.0
U2086 U 0.56115 0.34731 0.59214 0.0
O2087 O 0.55256 0.34951 0.60661 0.0
O2088 O 0.54491 0.34343 0.59277 0.0
C2089 C 0.54406 0.34618 0.60256 0.0
C2090 C 0.56622 0.36391 0.58137 0.0
C2091 C 0.53456 0.35113 0.60616 0.0
C2092 C 0.51957 0.36198 0.60398 0.0
C2093 C 0.52882 0.35808 0.60018 0.0
C2094 C 0.52181 0.35212 0.61974 0.0
C2095 C 0.51587 0.35898 0.61382 0.0
C2096 C 0.53094 0.34825 0.61595 0.0
C2097 C 0.57653 0.3216 0.59763 0.0
C2098 C 0.57706 0.30951 0.61219 0.0
C2099 C 0.58802 0.30692 0.59742 0.0
C2100 C 0.58388 0.31563 0.59261 0.0
C2101 C 0.58486 0.30392 0.60736 0.0
C2102 C 0.5729 0.31832 0.60735 0.0
C2103 C 0.5741 0.33185 0.59311 0.0
O2104 O 0.5612 0.35606 0.5774 0.0
O2105 O 0.56772 0.36295 0.59139 0.0
O2106 O 0.57425 0.33985 0.59942 0.0
O2107 O 0.56695 0.3324 0.58606 0.0
H2108 H 0.58505 0.35531 0.57883 0.0
H2109 H 0.59959 0.36304 0.57005 0.0
H2110 H 0.58144 0.38962 0.56179 0.0
H2111 H 0.56688 0.38164 0.57031 0.0
H2112 H 0.51525 0.36715 0.59911 0.0
H2113 H 0.53141 0.3604 0.59256 0.0
H2114 H 0.51951 0.34978 0.62744 0.0
H2115 H 0.5352 0.34289 0.62072 0.0
H2116 H 0.57465 0.30748 0.61995 0.0
H2117 H 0.59417 0.30287 0.59363 0.0
H2118 H 0.58688 0.31805 0.58517 0.0
H2119 H 0.56728 0.32287 0.61142 0.0
C2120 C 0.88295 0.32553 0.81952 0.0
C2121 C 0.88443 0.33558 0.82325 0.0
C2122 C 0.86759 0.34046 0.81745 0.0
C2123 C 0.87688 0.34301 0.82213 0.0
C2124 C 0.86624 0.33043 0.81345 0.0
C2125 C 0.87389 0.323 0.81448 0.0
U2126 U 0.90383 0.30344 0.8262 0.0
O2127 O 0.89686 0.29027 0.83418 0.0
O2128 O 0.9019 0.28849 0.81801 0.0
C2129 C 0.8974 0.28421 0.82602 0.0
C2130 C 0.89041 0.3175 0.82188 0.0
C2131 C 0.89873 0.27307 0.82796 0.0
C2132 C 0.89082 0.25608 0.82783 0.0
C2133 C 0.89101 0.26642 0.82468 0.0
C2134 C 0.90645 0.25871 0.83719 0.0
C2135 C 0.89838 0.25214 0.83436 0.0
C2136 C 0.9066 0.26912 0.83405 0.0
C2137 C 0.92893 0.31746 0.83402 0.0
C2138 C 0.94214 0.32486 0.84486 0.0
C2139 C 0.93511 0.33495 0.8308 0.0
C2140 C 0.9287 0.32667 0.82822 0.0
C2141 C 0.94182 0.33421 0.83928 0.0
C2142 C 0.9358 0.31661 0.84225 0.0
C2143 C 0.9223 0.3085 0.83178 0.0
O2144 O 0.89612 0.31333 0.81465 0.0
O2145 O 0.89223 0.31454 0.83143 0.0
O2146 O 0.91965 0.30682 0.82209 0.0
O2147 O 0.91494 0.30688 0.83841 0.0
H2148 H 0.89138 0.33764 0.82718 0.0
H2149 H 0.87828 0.35075 0.82507 0.0
H2150 H 0.85918 0.32822 0.80985 0.0
H2151 H 0.8726 0.3152 0.81168 0.0
H2152 H 0.88461 0.25124 0.82532 0.0
H2153 H 0.88484 0.26936 0.82001 0.0
H2154 H 0.91237 0.25598 0.84228 0.0
H2155 H 0.91259 0.27417 0.83674 0.0
H2156 H 0.94703 0.324 0.85153 0.0
H2157 H 0.93472 0.34196 0.82622 0.0
H2158 H 0.92353 0.3275 0.82177 0.0
H2159 H 0.93614 0.30957 0.8468 0.0
C2160 C 0.94016 0.64059 0.06112 0.0
C2161 C 0.93138 0.646 0.0638 0.0
C2162 C 0.92181 0.63614 0.051 0.0
C2163 C 0.92231 0.64384 0.05874 0.0
C2164 C 0.93072 0.63101 0.04808 0.0
C2165 C 0.93983 0.63322 0.05314 0.0
U2166 U 0.95475 0.65273 0.08358 0.0
O2167 O 0.96568 0.64567 0.0942 0.0
O2168 O 0.97041 0.65852 0.08415 0.0
C2169 C 0.97319 0.65141 0.09086 0.0
C2170 C 0.94955 0.64221 0.06696 0.0
C2171 C 0.98265 0.64583 0.08863 0.0
C2172 C 0.99161 0.63043 0.08281 0.0
C2173 C 0.9827 0.63626 0.08343 0.0
C2174 C 1.00057 0.64396 0.09201 0.0
C2175 C 1.00059 0.63411 0.08732 0.0
C2176 C 0.99168 0.64973 0.09267 0.0
C2177 C 0.93845 0.67061 0.10189 0.0
C2178 C 0.936 0.67277 0.1205 0.0
C2179 C 0.92722 0.68398 0.10847 0.0
C2180 C 0.93195 0.67901 0.10016 0.0
C2181 C 0.92891 0.68065 0.11867 0.0
C2182 C 0.94079 0.6678 0.11216 0.0
C2183 C 0.94091 0.66391 0.09294 0.0
O2184 O 0.95335 0.65161 0.0666 0.0
O2185 O 0.9496 0.63824 0.07634 0.0
O2186 O 0.94238 0.65401 0.0948 0.0
O2187 O 0.94682 0.66767 0.08566 0.0
H2188 H 0.9315 0.65176 0.06992 0.0
H2189 H 0.91563 0.64812 0.06102 0.0
H2190 H 0.93059 0.62503 0.04219 0.0
H2191 H 0.94657 0.62897 0.051 0.0
H2192 H 0.99141 0.62292 0.07905 0.0
H2193 H 0.9758 0.63313 0.0802 0.0
H2194 H 0.00731 0.64698 0.09569 0.0
H2195 H 0.99178 0.65708 0.09674 0.0
H2196 H 0.93722 0.66992 0.1283 0.0
H2197 H 0.92159 0.68985 0.10686 0.0
H2198 H 0.92992 0.68124 0.09234 0.0
H2199 H 0.94573 0.66129 0.1137 0.0
C2200 C 0.6421 0.65462 0.35436 0.0
C2201 C 0.6431 0.64489 0.35911 0.0
C2202 C 0.64614 0.63671 0.34223 0.0
C2203 C 0.64526 0.63608 0.35315 0.0
C2204 C 0.64549 0.64661 0.33765 0.0
C2205 C 0.64358 0.65542 0.34365 0.0
U2206 U 0.62647 0.66775 0.3756 0.0
O2207 O 0.62945 0.68135 0.3855 0.0
O2208 O 0.61673 0.68151 0.37457 0.0
C2209 C 0.62183 0.68663 0.38165 0.0
C2210 C 0.63886 0.66391 0.36017 0.0
C2211 C 0.62331 0.6978 0.37984 0.0
C2212 C 0.63045 0.71247 0.37053 0.0
C2213 C 0.62952 0.7017 0.37194 0.0
C2214 C 0.61898 0.7154 0.38484 0.0
C2215 C 0.62516 0.71946 0.37697 0.0
C2216 C 0.61807 0.70472 0.38623 0.0
C2217 C 0.6098 0.64963 0.39245 0.0
C2218 C 0.59264 0.6516 0.39884 0.0
C2219 C 0.60247 0.63651 0.4036 0.0
C2220 C 0.61067 0.64037 0.39802 0.0
C2221 C 0.5932 0.64182 0.40361 0.0
C2222 C 0.6009 0.65549 0.39329 0.0
C2223 C 0.61756 0.65202 0.38464 0.0
O2224 O 0.62935 0.66646 0.35887 0.0
O2225 O 0.64187 0.66473 0.36986 0.0
O2226 O 0.62614 0.6559 0.38796 0.0
O2227 O 0.61431 0.65629 0.37603 0.0
H2228 H 0.64202 0.64406 0.36739 0.0
H2229 H 0.64606 0.62878 0.35717 0.0
H2230 H 0.64592 0.64762 0.32934 0.0
H2231 H 0.64283 0.66286 0.33982 0.0
H2232 H 0.63523 0.7153 0.36434 0.0
H2233 H 0.63359 0.69646 0.36688 0.0
H2234 H 0.61497 0.72048 0.39011 0.0
H2235 H 0.61325 0.70184 0.39238 0.0
H2236 H 0.5856 0.65586 0.39867 0.0
H2237 H 0.6032 0.62904 0.40736 0.0
H2238 H 0.61749 0.63576 0.39751 0.0
H2239 H 0.60008 0.66271 0.38909 0.0
C2240 C 0.92858 0.56973 0.62855 0.0
C2241 C 0.92481 0.57988 0.62911 0.0
C2242 C 0.94191 0.58693 0.62744 0.0
C2243 C 0.93139 0.58837 0.6285 0.0
C2244 C 0.94557 0.57674 0.62644 0.0
C2245 C 0.93897 0.56825 0.62701 0.0
U2246 U 0.90307 0.55759 0.63593 0.0
O2247 O 0.89516 0.5437 0.62994 0.0
O2248 O 0.89977 0.54454 0.64633 0.0
C2249 C 0.89526 0.53912 0.63905 0.0
C2250 C 0.92194 0.56064 0.63022 0.0
C2251 C 0.89608 0.5277 0.63957 0.0
C2252 C 0.9054 0.51168 0.64274 0.0
C2253 C 0.90531 0.52238 0.6405 0.0
C2254 C 0.88713 0.51158 0.64277 0.0
C2255 C 0.89627 0.50629 0.64421 0.0
C2256 C 0.88705 0.52213 0.64043 0.0
C2257 C 0.88228 0.57855 0.64268 0.0
C2258 C 0.86557 0.57774 0.65061 0.0
C2259 C 0.87298 0.59431 0.64619 0.0
C2260 C 0.88147 0.58932 0.64232 0.0
C2261 C 0.86485 0.58866 0.6504 0.0
C2262 C 0.87426 0.57271 0.64677 0.0
C2263 C 0.89198 0.57411 0.63931 0.0
O2264 O 0.91917 0.55906 0.63987 0.0
O2265 O 0.91449 0.5594 0.6236 0.0
O2266 O 0.89236 0.56941 0.63028 0.0
O2267 O 0.89765 0.56979 0.64644 0.0
H2268 H 0.91682 0.58122 0.63025 0.0
H2269 H 0.92822 0.59609 0.62906 0.0
H2270 H 0.95358 0.57529 0.62569 0.0
H2271 H 0.94203 0.56048 0.62656 0.0
H2272 H 0.91254 0.50777 0.64389 0.0
H2273 H 0.91238 0.52655 0.63992 0.0
H2274 H 0.88 0.50762 0.64388 0.0
H2275 H 0.87985 0.52607 0.63981 0.0
H2276 H 0.8595 0.57311 0.65378 0.0
H2277 H 0.87304 0.6027 0.6462 0.0
H2278 H 0.88762 0.59398 0.63932 0.0
H2279 H 0.87478 0.56434 0.64716 0.0
C2280 C 0.6902 0.69379 0.89045 0.0
C2281 C 0.68144 0.69098 0.89585 0.0
C2282 C 0.67173 0.70371 0.88606 0.0
C2283 C 0.67231 0.69593 0.89371 0.0
C2284 C 0.6806 0.70674 0.88093 0.0
C2285 C 0.68977 0.70179 0.88311 0.0
U2286 U 0.70488 0.67157 0.90268 0.0
O2287 O 0.71583 0.66088 0.89576 0.0
O2288 O 0.72051 0.67104 0.90857 0.0
C2289 C 0.72332 0.66427 0.90151 0.0
C2290 C 0.69966 0.68809 0.89206 0.0
C2291 C 0.73277 0.66648 0.89594 0.0
C2292 C 0.74173 0.67235 0.88057 0.0
C2293 C 0.73283 0.67173 0.8864 0.0
C2294 C 0.75068 0.66306 0.89404 0.0
C2295 C 0.7507 0.6678 0.88422 0.0
C2296 C 0.7418 0.6624 0.89982 0.0
C2297 C 0.68848 0.65337 0.9205 0.0
C2298 C 0.6858 0.63479 0.92253 0.0
C2299 C 0.67713 0.6469 0.93377 0.0
C2300 C 0.68198 0.65515 0.92889 0.0
C2301 C 0.67869 0.63671 0.93036 0.0
C2302 C 0.69072 0.64309 0.91764 0.0
C2303 C 0.69098 0.66228 0.91381 0.0
O2304 O 0.70346 0.68852 0.90147 0.0
O2305 O 0.6998 0.6787 0.88812 0.0
O2306 O 0.6925 0.66038 0.90392 0.0
O2307 O 0.69688 0.66956 0.91759 0.0
H2308 H 0.68164 0.68484 0.90157 0.0
H2309 H 0.66566 0.69356 0.89798 0.0
H2310 H 0.6804 0.71265 0.87498 0.0
H2311 H 0.69648 0.70403 0.87887 0.0
H2312 H 0.74153 0.67613 0.87308 0.0
H2313 H 0.72593 0.67498 0.88329 0.0
H2314 H 0.75742 0.65936 0.89704 0.0
H2315 H 0.74189 0.65831 0.90715 0.0
H2316 H 0.68693 0.62699 0.91964 0.0
H2317 H 0.67149 0.64855 0.93963 0.0
H2318 H 0.68004 0.663 0.93114 0.0
H2319 H 0.69567 0.64151 0.91115 0.0
C2320 C 0.55389 0.45617 0.14213 0.0
C2321 C 0.55765 0.44666 0.14567 0.0
C2322 C 0.55038 0.43795 0.13067 0.0
C2323 C 0.55587 0.43762 0.14001 0.0
C2324 C 0.54599 0.44734 0.12755 0.0
C2325 C 0.54777 0.45642 0.13325 0.0
U2326 U 0.57051 0.47054 0.16139 0.0
O2327 O 0.58016 0.48415 0.15916 0.0
O2328 O 0.56773 0.4848 0.17041 0.0
C2329 C 0.575 0.48989 0.1657 0.0
C2330 C 0.55726 0.46591 0.14695 0.0
C2331 C 0.57276 0.50046 0.16212 0.0
C2332 C 0.56649 0.51244 0.14907 0.0
C2333 C 0.56703 0.50239 0.15318 0.0
C2334 C 0.57706 0.51871 0.16304 0.0
C2335 C 0.57182 0.52069 0.15375 0.0
C2336 C 0.57748 0.50873 0.16717 0.0
C2337 C 0.58766 0.45183 0.17798 0.0
C2338 C 0.60379 0.45414 0.18679 0.0
C2339 C 0.59576 0.43727 0.18647 0.0
C2340 C 0.58769 0.44139 0.18093 0.0
C2341 C 0.60398 0.44353 0.18925 0.0
C2342 C 0.59565 0.45829 0.18113 0.0
C2343 C 0.57982 0.4551 0.17058 0.0
O2344 O 0.55483 0.46723 0.15674 0.0
O2345 O 0.5667 0.46833 0.14497 0.0
O2346 O 0.58292 0.45928 0.16186 0.0
O2347 O 0.57153 0.45931 0.17427 0.0
H2348 H 0.5624 0.44631 0.1525 0.0
H2349 H 0.5593 0.43045 0.14261 0.0
H2350 H 0.54181 0.44782 0.12035 0.0
H2351 H 0.54482 0.46372 0.13042 0.0
H2352 H 0.56218 0.51365 0.14205 0.0
H2353 H 0.56331 0.49607 0.14917 0.0
H2354 H 0.58142 0.5247 0.16684 0.0
H2355 H 0.58198 0.50738 0.17405 0.0
H2356 H 0.61013 0.45905 0.18875 0.0
H2357 H 0.59582 0.42905 0.18819 0.0
H2358 H 0.58165 0.43627 0.17851 0.0
H2359 H 0.5958 0.46636 0.17884 0.0
C2360 C 0.82609 0.32316 0.3884 0.0
C2361 C 0.83552 0.32316 0.3933 0.0
C2362 C 0.84283 0.3135 0.37875 0.0
C2363 C 0.84379 0.31831 0.38856 0.0
C2364 C 0.83323 0.31316 0.37414 0.0
C2365 C 0.82497 0.31793 0.37893 0.0
U2366 U 0.81043 0.34153 0.40691 0.0
O2367 O 0.80145 0.35456 0.40063 0.0
O2368 O 0.79384 0.34151 0.40873 0.0
C2369 C 0.79292 0.35022 0.40355 0.0
C2370 C 0.81753 0.32941 0.39218 0.0
C2371 C 0.78302 0.35514 0.40166 0.0
C2372 C 0.77074 0.36241 0.38961 0.0
C2373 C 0.78001 0.35752 0.39151 0.0
C2374 C 0.76728 0.36245 0.40803 0.0
C2375 C 0.76431 0.36514 0.39785 0.0
C2376 C 0.77651 0.35748 0.4099 0.0
C2377 C 0.82475 0.34921 0.43361 0.0
C2378 C 0.82583 0.36305 0.44651 0.0
C2379 C 0.83749 0.34863 0.44715 0.0
C2380 C 0.83277 0.34417 0.43857 0.0
C2381 C 0.83425 0.35822 0.45107 0.0
C2382 C 0.82111 0.35858 0.43777 0.0
C2383 C 0.82143 0.34493 0.42352 0.0
O2384 O 0.81224 0.32591 0.40005 0.0
O2385 O 0.81894 0.33947 0.39247 0.0
O2386 O 0.82184 0.35078 0.41519 0.0
O2387 O 0.81464 0.3375 0.42307 0.0
H2388 H 0.83655 0.32716 0.40061 0.0
H2389 H 0.85101 0.31852 0.39249 0.0
H2390 H 0.83217 0.30965 0.3666 0.0
H2391 H 0.81775 0.3179 0.37499 0.0
H2392 H 0.76882 0.36437 0.3817 0.0
H2393 H 0.78488 0.35567 0.38503 0.0
H2394 H 0.76247 0.36419 0.41458 0.0
H2395 H 0.77864 0.35561 0.4178 0.0
H2396 H 0.8233 0.37053 0.44928 0.0
H2397 H 0.84405 0.34482 0.45042 0.0
H2398 H 0.83576 0.337 0.43546 0.0
H2399 H 0.81496 0.36264 0.43402 0.0
C2400 C 0.92858 0.43523 0.87663 0.0
C2401 C 0.92481 0.42508 0.87608 0.0
C2402 C 0.9419 0.41802 0.87776 0.0
C2403 C 0.93138 0.41659 0.87669 0.0
C2404 C 0.94556 0.42821 0.87876 0.0
C2405 C 0.93897 0.4367 0.87818 0.0
U2406 U 0.90308 0.44737 0.86925 0.0
O2407 O 0.89516 0.46125 0.87523 0.0
O2408 O 0.89977 0.46041 0.85885 0.0
C2409 C 0.89525 0.46583 0.86612 0.0
C2410 C 0.92194 0.44431 0.87496 0.0
C2411 C 0.89606 0.47725 0.8656 0.0
C2412 C 0.90539 0.49329 0.86259 0.0
C2413 C 0.90529 0.48258 0.86481 0.0
C2414 C 0.88712 0.49335 0.8623 0.0
C2415 C 0.89627 0.49867 0.861 0.0
C2416 C 0.88703 0.4828 0.86462 0.0
C2417 C 0.88228 0.42641 0.8625 0.0
C2418 C 0.86558 0.42722 0.85457 0.0
C2419 C 0.87299 0.41065 0.85899 0.0
C2420 C 0.88148 0.41563 0.86286 0.0
C2421 C 0.86486 0.4163 0.85478 0.0
C2422 C 0.87426 0.43225 0.85841 0.0
C2423 C 0.89198 0.43084 0.86587 0.0
O2424 O 0.91917 0.44589 0.86531 0.0
O2425 O 0.91449 0.44556 0.88158 0.0
O2426 O 0.89237 0.43554 0.8749 0.0
O2427 O 0.89766 0.43516 0.85874 0.0
H2428 H 0.91682 0.42374 0.87493 0.0
H2429 H 0.92822 0.40887 0.87613 0.0
H2430 H 0.95358 0.42965 0.87952 0.0
H2431 H 0.94203 0.44447 0.87863 0.0
H2432 H 0.91253 0.49723 0.86156 0.0
H2433 H 0.91236 0.47843 0.86548 0.0
H2434 H 0.88 0.4973 0.86111 0.0
H2435 H 0.87984 0.47884 0.86514 0.0
H2436 H 0.85951 0.43185 0.8514 0.0
H2437 H 0.87305 0.40226 0.85899 0.0
H2438 H 0.88763 0.41098 0.86586 0.0
H2439 H 0.87478 0.44062 0.85802 0.0
C2440 C 0.82611 0.68177 0.11673 0.0
C2441 C 0.83554 0.68178 0.11182 0.0
C2442 C 0.84283 0.69144 0.12638 0.0
C2443 C 0.84381 0.68664 0.11657 0.0
C2444 C 0.83324 0.69176 0.131 0.0
C2445 C 0.82499 0.68699 0.12621 0.0
U2446 U 0.81054 0.66335 0.09822 0.0
O2447 O 0.80157 0.6503 0.10449 0.0
O2448 O 0.79396 0.66334 0.09636 0.0
C2449 C 0.79304 0.65464 0.10156 0.0
C2450 C 0.81757 0.6755 0.11295 0.0
C2451 C 0.78314 0.64972 0.10341 0.0
C2452 C 0.77088 0.64241 0.11545 0.0
C2453 C 0.78015 0.64727 0.11354 0.0
C2454 C 0.76734 0.64251 0.09705 0.0
C2455 C 0.7644 0.63977 0.10722 0.0
C2456 C 0.77659 0.64746 0.09517 0.0
C2457 C 0.82493 0.65572 0.07156 0.0
C2458 C 0.82597 0.64192 0.05861 0.0
C2459 C 0.83772 0.65626 0.05806 0.0
C2460 C 0.833 0.66071 0.06664 0.0
C2461 C 0.83444 0.64671 0.0541 0.0
C2462 C 0.82125 0.64638 0.06735 0.0
C2463 C 0.82159 0.66 0.08164 0.0
O2464 O 0.81229 0.67899 0.10506 0.0
O2465 O 0.81899 0.66544 0.11268 0.0
O2466 O 0.822 0.65414 0.08996 0.0
O2467 O 0.81478 0.6674 0.08206 0.0
H2468 H 0.83657 0.67779 0.10451 0.0
H2469 H 0.85102 0.68644 0.11263 0.0
H2470 H 0.83218 0.69526 0.13854 0.0
H2471 H 0.81777 0.68699 0.13015 0.0
H2472 H 0.76897 0.64041 0.12336 0.0
H2473 H 0.78505 0.64906 0.12002 0.0
H2474 H 0.7625 0.64083 0.09051 0.0
H2475 H 0.77869 0.64937 0.08728 0.0
H2476 H 0.8234 0.63446 0.05579 0.0
H2477 H 0.84431 0.66004 0.05482 0.0
H2478 H 0.83603 0.66786 0.06978 0.0
H2479 H 0.81506 0.64235 0.07107 0.0
C2480 C 0.55391 0.54883 0.36304 0.0
C2481 C 0.55767 0.55834 0.35951 0.0
C2482 C 0.55041 0.56705 0.37451 0.0
C2483 C 0.5559 0.56738 0.36517 0.0
C2484 C 0.54601 0.55766 0.37762 0.0
C2485 C 0.54779 0.54859 0.37192 0.0
U2486 U 0.57052 0.53446 0.34378 0.0
O2487 O 0.58016 0.52084 0.346 0.0
O2488 O 0.56773 0.5202 0.33475 0.0
C2489 C 0.575 0.51511 0.33946 0.0
C2490 C 0.55728 0.53909 0.35822 0.0
C2491 C 0.57276 0.50453 0.34304 0.0
C2492 C 0.56649 0.49256 0.35609 0.0
C2493 C 0.56702 0.50261 0.35198 0.0
C2494 C 0.57706 0.48628 0.34212 0.0
C2495 C 0.57182 0.48431 0.35142 0.0
C2496 C 0.57748 0.49626 0.33799 0.0
C2497 C 0.58767 0.55317 0.32718 0.0
C2498 C 0.60379 0.55085 0.31837 0.0
C2499 C 0.59576 0.56772 0.31868 0.0
C2500 C 0.58769 0.5636 0.32422 0.0
C2501 C 0.60398 0.56146 0.3159 0.0
C2502 C 0.59565 0.5467 0.32403 0.0
C2503 C 0.57982 0.5499 0.33458 0.0
O2504 O 0.55484 0.53777 0.34843 0.0
O2505 O 0.56671 0.53666 0.36019 0.0
O2506 O 0.58292 0.54571 0.3433 0.0
O2507 O 0.57153 0.54569 0.33089 0.0
H2508 H 0.56241 0.55869 0.35267 0.0
H2509 H 0.55932 0.57455 0.36257 0.0
H2510 H 0.54183 0.55719 0.38483 0.0
H2511 H 0.54483 0.54129 0.37475 0.0
H2512 H 0.56218 0.49135 0.36311 0.0
H2513 H 0.5633 0.50893 0.35599 0.0
H2514 H 0.58142 0.48029 0.33833 0.0
H2515 H 0.58198 0.49762 0.33111 0.0
H2516 H 0.61014 0.54593 0.31641 0.0
H2517 H 0.59582 0.57594 0.31696 0.0
H2518 H 0.58165 0.56873 0.32665 0.0
H2519 H 0.59581 0.53863 0.32632 0.0
C2520 C 0.69018 0.31085 0.61467 0.0
C2521 C 0.68141 0.3136 0.60928 0.0
C2522 C 0.67177 0.30085 0.61911 0.0
C2523 C 0.67231 0.30861 0.61144 0.0
C2524 C 0.68066 0.29785 0.62422 0.0
C2525 C 0.6898 0.30285 0.62203 0.0
U2526 U 0.70476 0.33324 0.60257 0.0
O2527 O 0.71564 0.34393 0.60959 0.0
O2528 O 0.7204 0.33388 0.59673 0.0
C2529 C 0.72316 0.34062 0.60384 0.0
C2530 C 0.69961 0.31663 0.61309 0.0
C2531 C 0.73262 0.33842 0.60941 0.0
C2532 C 0.7416 0.3326 0.6248 0.0
C2533 C 0.73268 0.33322 0.61898 0.0
C2534 C 0.75054 0.3418 0.61126 0.0
C2535 C 0.75057 0.33711 0.6211 0.0
C2536 C 0.74164 0.34246 0.6055 0.0
C2537 C 0.68837 0.35146 0.58476 0.0
C2538 C 0.68574 0.37005 0.58275 0.0
C2539 C 0.67708 0.35798 0.57145 0.0
C2540 C 0.68189 0.34971 0.57635 0.0
C2541 C 0.67865 0.36817 0.57489 0.0
C2542 C 0.69062 0.36173 0.58764 0.0
C2543 C 0.69086 0.34252 0.59143 0.0
O2544 O 0.70341 0.31627 0.60368 0.0
O2545 O 0.69967 0.32601 0.61707 0.0
O2546 O 0.69233 0.34438 0.60133 0.0
O2547 O 0.6968 0.33528 0.58764 0.0
H2548 H 0.68157 0.31974 0.60355 0.0
H2549 H 0.66564 0.31095 0.60718 0.0
H2550 H 0.6805 0.29195 0.63018 0.0
H2551 H 0.69653 0.30065 0.62626 0.0
H2552 H 0.74141 0.32885 0.6323 0.0
H2553 H 0.72578 0.32999 0.62212 0.0
H2554 H 0.75727 0.34547 0.60823 0.0
H2555 H 0.74173 0.34652 0.59814 0.0
H2556 H 0.68688 0.37784 0.58565 0.0
H2557 H 0.67145 0.35635 0.56557 0.0
H2558 H 0.67994 0.34187 0.57407 0.0
H2559 H 0.69555 0.36329 0.59416 0.0
C2560 C 0.62811 0.93486 0.56927 0.0
C2561 C 0.63153 0.93137 0.57896 0.0
C2562 C 0.61591 0.93732 0.58713 0.0
C2563 C 0.62549 0.93258 0.58781 0.0
C2564 C 0.61269 0.94106 0.57745 0.0
C2565 C 0.61873 0.93983 0.56863 0.0
U2566 U 0.6525 0.92847 0.55416 0.0
O2567 O 0.65481 0.91769 0.54116 0.0
O2568 O 0.65746 0.93435 0.53889 0.0
C2569 C 0.65734 0.92507 0.53465 0.0
C2570 C 0.63388 0.93296 0.55965 0.0
C2571 C 0.65367 0.92396 0.52385 0.0
C2572 C 0.64126 0.92587 0.50997 0.0
C2573 C 0.64439 0.92782 0.52026 0.0
C2574 C 0.65665 0.91629 0.50692 0.0
C2575 C 0.6473 0.91993 0.50314 0.0
C2576 C 0.65978 0.91837 0.51702 0.0
C2577 C 0.67613 0.92437 0.57317 0.0
C2578 C 0.68921 0.91171 0.57734 0.0
C2579 C 0.68773 0.92742 0.58746 0.0
C2580 C 0.6798 0.93073 0.58114 0.0
C2581 C 0.69219 0.91765 0.58597 0.0
C2582 C 0.68118 0.91501 0.57102 0.0
C2583 C 0.66594 0.92673 0.56905 0.0
O2584 O 0.64056 0.94003 0.55707 0.0
O2585 O 0.63717 0.92344 0.5583 0.0
O2586 O 0.66434 0.93548 0.56409 0.0
O2587 O 0.66032 0.919 0.5658 0.0
H2588 H 0.63879 0.92757 0.57966 0.0
H2589 H 0.62831 0.92979 0.59517 0.0
H2590 H 0.60536 0.94466 0.5766 0.0
H2591 H 0.61595 0.94256 0.56122 0.0
H2592 H 0.63409 0.92898 0.50745 0.0
H2593 H 0.63954 0.93221 0.5254 0.0
H2594 H 0.6615 0.91141 0.50228 0.0
H2595 H 0.66696 0.91528 0.51962 0.0
H2596 H 0.69246 0.90412 0.57604 0.0
H2597 H 0.68988 0.9322 0.59401 0.0
H2598 H 0.67601 0.93793 0.58302 0.0
H2599 H 0.67847 0.90992 0.56495 0.0
C2600 C 0.12813 0.57012 0.43596 0.0
C2601 C 0.13155 0.57361 0.42627 0.0
C2602 C 0.11593 0.56767 0.41809 0.0
C2603 C 0.12551 0.5724 0.41742 0.0
C2604 C 0.1127 0.56393 0.42778 0.0
C2605 C 0.11874 0.56516 0.4366 0.0
U2606 U 0.15251 0.5765 0.45106 0.0
O2607 O 0.15483 0.58727 0.46407 0.0
O2608 O 0.15748 0.57061 0.46634 0.0
C2609 C 0.15736 0.57988 0.47058 0.0
C2610 C 0.13389 0.57202 0.44558 0.0
C2611 C 0.15369 0.581 0.48138 0.0
C2612 C 0.14128 0.57909 0.49526 0.0
C2613 C 0.14441 0.57714 0.48497 0.0
C2614 C 0.15667 0.58866 0.49831 0.0
C2615 C 0.14732 0.58504 0.50209 0.0
C2616 C 0.1598 0.58659 0.48821 0.0
C2617 C 0.17614 0.58058 0.43205 0.0
C2618 C 0.18921 0.59324 0.42787 0.0
C2619 C 0.18773 0.57752 0.41775 0.0
C2620 C 0.17981 0.57422 0.42408 0.0
C2621 C 0.19218 0.58729 0.41924 0.0
C2622 C 0.18119 0.58994 0.4342 0.0
C2623 C 0.16595 0.57822 0.43617 0.0
O2624 O 0.14057 0.56494 0.44816 0.0
O2625 O 0.13719 0.58153 0.44694 0.0
O2626 O 0.16435 0.56947 0.44114 0.0
O2627 O 0.16033 0.58596 0.43943 0.0
H2628 H 0.13881 0.5774 0.42557 0.0
H2629 H 0.12834 0.57519 0.41006 0.0
H2630 H 0.10537 0.56033 0.42863 0.0
H2631 H 0.11595 0.56242 0.44401 0.0
H2632 H 0.1341 0.57599 0.49778 0.0
H2633 H 0.13956 0.57275 0.47983 0.0
H2634 H 0.16152 0.59354 0.50295 0.0
H2635 H 0.16698 0.58968 0.48561 0.0
H2636 H 0.19246 0.60083 0.42916 0.0
H2637 H 0.18988 0.57274 0.41121 0.0
H2638 H 0.17602 0.56701 0.4222 0.0
H2639 H 0.17849 0.59503 0.44027 0.0
C2640 C 0.67865 0.87817 0.68544 0.0
C2641 C 0.67493 0.87869 0.67527 0.0
C2642 C 0.69205 0.8769 0.6683 0.0
C2643 C 0.68154 0.878 0.66681 0.0
C2644 C 0.69566 0.87593 0.6785 0.0
C2645 C 0.68903 0.87658 0.68697 0.0
U2646 U 0.65312 0.88569 0.6975 0.0
O2647 O 0.64516 0.87977 0.71139 0.0
O2648 O 0.64982 0.89613 0.71053 0.0
C2649 C 0.64528 0.88889 0.71595 0.0
C2650 C 0.67198 0.87991 0.69449 0.0
C2651 C 0.64607 0.88943 0.72737 0.0
C2652 C 0.65535 0.89262 0.74341 0.0
C2653 C 0.65529 0.89037 0.73271 0.0
C2654 C 0.63709 0.89267 0.74347 0.0
C2655 C 0.64622 0.89411 0.74878 0.0
C2656 C 0.63703 0.89032 0.73292 0.0
C2657 C 0.63243 0.89238 0.67634 0.0
C2658 C 0.61576 0.90043 0.67678 0.0
C2659 C 0.62344 0.89582 0.66039 0.0
C2660 C 0.6318 0.89192 0.66556 0.0
C2661 C 0.61524 0.90015 0.66584 0.0
C2662 C 0.62434 0.89658 0.68201 0.0
C2663 C 0.64206 0.88903 0.68095 0.0
O2664 O 0.66922 0.88957 0.69602 0.0
O2665 O 0.6645 0.87332 0.69575 0.0
O2666 O 0.64241 0.88002 0.68568 0.0
O2667 O 0.64773 0.89617 0.68527 0.0
H2668 H 0.66695 0.87986 0.67388 0.0
H2669 H 0.67841 0.87855 0.65907 0.0
H2670 H 0.70367 0.87515 0.67999 0.0
H2671 H 0.69206 0.87616 0.69475 0.0
H2672 H 0.66249 0.89377 0.74734 0.0
H2673 H 0.66237 0.88978 0.72855 0.0
H2674 H 0.62995 0.89379 0.74742 0.0
H2675 H 0.62984 0.88969 0.72896 0.0
H2676 H 0.60964 0.90369 0.68128 0.0
H2677 H 0.62369 0.89577 0.65201 0.0
H2678 H 0.63802 0.88884 0.66103 0.0
H2679 H 0.62472 0.89704 0.69038 0.0
C2680 C 0.39177 0.40046 0.9045 0.0
C2681 C 0.39288 0.39575 0.89476 0.0
C2682 C 0.39595 0.41267 0.88669 0.0
C2683 C 0.39511 0.40175 0.886 0.0
C2684 C 0.3952 0.41721 0.8966 0.0
C2685 C 0.39321 0.41117 0.90537 0.0
U2686 U 0.37604 0.37928 0.91773 0.0
O2687 O 0.37912 0.36938 0.9313 0.0
O2688 O 0.36648 0.38041 0.93161 0.0
C2689 C 0.37159 0.3733 0.93667 0.0
C2690 C 0.38851 0.3946 0.91377 0.0
C2691 C 0.37319 0.37509 0.94783 0.0
C2692 C 0.38042 0.38441 0.96246 0.0
C2693 C 0.37943 0.38299 0.9517 0.0
C2694 C 0.36896 0.37011 0.96546 0.0
C2695 C 0.37515 0.37799 0.96949 0.0
C2696 C 0.368 0.3687 0.95479 0.0
C2697 C 0.35896 0.3625 0.89988 0.0
C2698 C 0.34176 0.35628 0.90209 0.0
C2699 C 0.3514 0.35129 0.88694 0.0
C2700 C 0.35968 0.35684 0.89065 0.0
C2701 C 0.34217 0.35141 0.89234 0.0
C2702 C 0.35011 0.36179 0.90584 0.0
C2703 C 0.36682 0.37026 0.90214 0.0
O2704 O 0.37903 0.39597 0.91639 0.0
O2705 O 0.39145 0.38487 0.91451 0.0
O2706 O 0.37544 0.36688 0.9059 0.0
O2707 O 0.36371 0.37892 0.90644 0.0
H2708 H 0.39185 0.38746 0.89388 0.0
H2709 H 0.39599 0.39776 0.87868 0.0
H2710 H 0.3956 0.42551 0.89765 0.0
H2711 H 0.3924 0.41496 0.91282 0.0
H2712 H 0.38522 0.3906 0.96527 0.0
H2713 H 0.38347 0.38804 0.94643 0.0
H2714 H 0.36498 0.36485 0.97056 0.0
H2715 H 0.36316 0.36256 0.95194 0.0
H2716 H 0.33477 0.35656 0.90643 0.0
H2717 H 0.35202 0.34745 0.8795 0.0
H2718 H 0.36646 0.35724 0.88596 0.0
H2719 H 0.3494 0.36606 0.91304 0.0
C2720 C 0.30385 0.61323 0.70601 0.0
C2721 C 0.30766 0.60979 0.69647 0.0
C2722 C 0.30013 0.6247 0.68781 0.0
C2723 C 0.30577 0.61545 0.68745 0.0
C2724 C 0.29573 0.62772 0.69723 0.0
C2725 C 0.29761 0.62203 0.70629 0.0
U2726 U 0.32044 0.59394 0.72052 0.0
O2727 O 0.33001 0.59619 0.73419 0.0
O2728 O 0.31755 0.58498 0.7348 0.0
C2729 C 0.32484 0.58966 0.73991 0.0
C2730 C 0.30725 0.6084 0.71575 0.0
C2731 C 0.32263 0.59321 0.75052 0.0
C2732 C 0.31643 0.60622 0.7626 0.0
C2733 C 0.3169 0.60214 0.75252 0.0
C2734 C 0.32704 0.59224 0.76875 0.0
C2735 C 0.32182 0.60154 0.7708 0.0
C2736 C 0.32739 0.58813 0.75875 0.0
C2737 C 0.33763 0.57719 0.70192 0.0
C2738 C 0.35375 0.56837 0.70424 0.0
C2739 C 0.34569 0.56859 0.68738 0.0
C2740 C 0.33763 0.57417 0.6915 0.0
C2741 C 0.35392 0.56584 0.69364 0.0
C2742 C 0.34563 0.57406 0.70838 0.0
C2743 C 0.3298 0.58463 0.70516 0.0
O2744 O 0.30478 0.59862 0.71709 0.0
O2745 O 0.31668 0.61035 0.71818 0.0
O2746 O 0.33291 0.59335 0.70934 0.0
O2747 O 0.32148 0.58099 0.70934 0.0
H2748 H 0.31249 0.60303 0.69609 0.0
H2749 H 0.30922 0.61292 0.68026 0.0
H2750 H 0.29143 0.63485 0.69774 0.0
H2751 H 0.29463 0.62479 0.7136 0.0
H2752 H 0.31214 0.61324 0.76385 0.0
H2753 H 0.31314 0.60616 0.74624 0.0
H2754 H 0.33144 0.58843 0.7747 0.0
H2755 H 0.33188 0.58125 0.75734 0.0
H2756 H 0.36011 0.56643 0.70915 0.0
H2757 H 0.34573 0.56683 0.67917 0.0
H2758 H 0.33159 0.57657 0.68637 0.0
H2759 H 0.3458 0.5764 0.71644 0.0
C2760 C 0.89175 0.10428 0.1007 0.0
C2761 C 0.89295 0.10898 0.11043 0.0
C2762 C 0.896 0.09205 0.11848 0.0
C2763 C 0.89521 0.10297 0.11918 0.0
C2764 C 0.89515 0.08751 0.10858 0.0
C2765 C 0.89313 0.09356 0.09983 0.0
U2766 U 0.87603 0.12552 0.08753 0.0
O2767 O 0.87914 0.13544 0.07397 0.0
O2768 O 0.86648 0.12444 0.07363 0.0
C2769 C 0.8716 0.13155 0.06859 0.0
C2770 C 0.88848 0.11017 0.09146 0.0
C2771 C 0.87321 0.12979 0.05743 0.0
C2772 C 0.88045 0.12051 0.04277 0.0
C2773 C 0.87946 0.12191 0.05354 0.0
C2774 C 0.86898 0.13481 0.03981 0.0
C2775 C 0.87519 0.12694 0.03576 0.0
C2776 C 0.86801 0.13619 0.05049 0.0
C2777 C 0.85896 0.14232 0.10536 0.0
C2778 C 0.84178 0.14859 0.10313 0.0
C2779 C 0.85142 0.15359 0.11827 0.0
C2780 C 0.85969 0.14801 0.11457 0.0
C2781 C 0.84219 0.15348 0.11287 0.0
C2782 C 0.85011 0.14305 0.09939 0.0
C2783 C 0.86681 0.13455 0.10312 0.0
O2784 O 0.87899 0.10882 0.08884 0.0
O2785 O 0.89142 0.11988 0.09073 0.0
O2786 O 0.87544 0.1379 0.09938 0.0
O2787 O 0.86369 0.1259 0.09881 0.0
H2788 H 0.89197 0.11727 0.11132 0.0
H2789 H 0.89616 0.10695 0.12649 0.0
H2790 H 0.89552 0.0792 0.10754 0.0
H2791 H 0.89224 0.08977 0.09239 0.0
H2792 H 0.88526 0.11434 0.03995 0.0
H2793 H 0.8835 0.11685 0.05879 0.0
H2794 H 0.86499 0.14008 0.03472 0.0
H2795 H 0.86317 0.14232 0.05334 0.0
H2796 H 0.83479 0.14832 0.09879 0.0
H2797 H 0.85205 0.15745 0.1257 0.0
H2798 H 0.86646 0.1476 0.11927 0.0
H2799 H 0.8494 0.13876 0.09221 0.0
C2800 C 0.67875 0.12651 0.82 0.0
C2801 C 0.67498 0.12593 0.83015 0.0
C2802 C 0.69206 0.12773 0.83722 0.0
C2803 C 0.68154 0.12659 0.83865 0.0
C2804 C 0.69572 0.12874 0.82704 0.0
C2805 C 0.68912 0.12812 0.81853 0.0
U2806 U 0.65324 0.11917 0.80779 0.0
O2807 O 0.64537 0.12517 0.79388 0.0
O2808 O 0.64994 0.10878 0.79472 0.0
C2809 C 0.64544 0.11606 0.78931 0.0
C2810 C 0.67211 0.12484 0.8109 0.0
C2811 C 0.64619 0.11551 0.77789 0.0
C2812 C 0.65543 0.11252 0.76178 0.0
C2813 C 0.65539 0.11474 0.77249 0.0
C2814 C 0.63717 0.11217 0.76183 0.0
C2815 C 0.64629 0.11089 0.75646 0.0
C2816 C 0.63713 0.11449 0.77239 0.0
C2817 C 0.6325 0.11254 0.82894 0.0
C2818 C 0.61584 0.10449 0.82857 0.0
C2819 C 0.62355 0.10914 0.84492 0.0
C2820 C 0.6319 0.11303 0.83972 0.0
C2821 C 0.61534 0.10478 0.8395 0.0
C2822 C 0.62439 0.10833 0.8233 0.0
C2823 C 0.64213 0.11585 0.8243 0.0
O2824 O 0.66932 0.11519 0.80932 0.0
O2825 O 0.66468 0.13147 0.80962 0.0
O2826 O 0.64252 0.12487 0.81959 0.0
O2827 O 0.64776 0.10868 0.81997 0.0
H2828 H 0.66699 0.12474 0.83149 0.0
H2829 H 0.67837 0.12601 0.84637 0.0
H2830 H 0.70372 0.12955 0.82559 0.0
H2831 H 0.69219 0.12859 0.81077 0.0
H2832 H 0.66256 0.11151 0.7578 0.0
H2833 H 0.66248 0.11544 0.77661 0.0
H2834 H 0.63003 0.11096 0.75792 0.0
H2835 H 0.62996 0.115 0.77639 0.0
H2836 H 0.60971 0.10121 0.82409 0.0
H2837 H 0.62383 0.10921 0.8533 0.0
H2838 H 0.63812 0.11613 0.84422 0.0
H2839 H 0.62476 0.10783 0.81493 0.0
C2840 C 0.80385 0.89179 0.2992 0.0
C2841 C 0.80765 0.89523 0.30874 0.0
C2842 C 0.80012 0.88032 0.3174 0.0
C2843 C 0.80577 0.88957 0.31776 0.0
C2844 C 0.79572 0.8773 0.30797 0.0
C2845 C 0.79761 0.883 0.29892 0.0
U2846 U 0.82043 0.9111 0.28471 0.0
O2847 O 0.83001 0.90886 0.27103 0.0
O2848 O 0.81754 0.92007 0.27043 0.0
C2849 C 0.82483 0.9154 0.26532 0.0
C2850 C 0.80724 0.89663 0.28946 0.0
C2851 C 0.82264 0.91186 0.2547 0.0
C2852 C 0.81642 0.89888 0.24261 0.0
C2853 C 0.81687 0.90297 0.25269 0.0
C2854 C 0.82711 0.9128 0.23648 0.0
C2855 C 0.82186 0.90353 0.23443 0.0
C2856 C 0.82745 0.91691 0.24649 0.0
C2857 C 0.83762 0.92783 0.30331 0.0
C2858 C 0.85374 0.93665 0.30098 0.0
C2859 C 0.84568 0.93643 0.31784 0.0
C2860 C 0.83762 0.93085 0.31373 0.0
C2861 C 0.85391 0.93918 0.31159 0.0
C2862 C 0.84561 0.93096 0.29685 0.0
C2863 C 0.82979 0.9204 0.30007 0.0
O2864 O 0.80477 0.90641 0.28813 0.0
O2865 O 0.81668 0.89469 0.28702 0.0
O2866 O 0.8329 0.91168 0.29589 0.0
O2867 O 0.82146 0.92404 0.29589 0.0
H2868 H 0.81248 0.90199 0.30912 0.0
H2869 H 0.80921 0.8921 0.32494 0.0
H2870 H 0.79143 0.87017 0.30747 0.0
H2871 H 0.79462 0.88024 0.2916 0.0
H2872 H 0.81209 0.89188 0.24134 0.0
H2873 H 0.81307 0.89896 0.25896 0.0
H2874 H 0.83154 0.91659 0.23055 0.0
H2875 H 0.83197 0.92377 0.24791 0.0
H2876 H 0.86009 0.93858 0.29607 0.0
H2877 H 0.84572 0.93819 0.32606 0.0
H2878 H 0.83158 0.92845 0.31886 0.0
H2879 H 0.84578 0.92862 0.28878 0.0
C2880 C 0.4399 0.36099 0.06036 0.0
C2881 C 0.43103 0.35584 0.06323 0.0
C2882 C 0.42147 0.36612 0.0507 0.0
C2883 C 0.4219 0.35835 0.05839 0.0
C2884 C 0.43046 0.37099 0.04764 0.0
C2885 C 0.43958 0.36844 0.05245 0.0
U2886 U 0.45751 0.34929 0.08154 0.0
O2887 O 0.47352 0.34477 0.0798 0.0
O2888 O 0.46917 0.35753 0.09021 0.0
C2889 C 0.47654 0.35197 0.08632 0.0
C2890 C 0.44952 0.35915 0.06571 0.0
C2891 C 0.48583 0.35762 0.08396 0.0
C2892 C 0.49448 0.37353 0.07924 0.0
C2893 C 0.48575 0.3674 0.07919 0.0
C2894 C 0.50345 0.35989 0.0883 0.0
C2895 C 0.50333 0.36992 0.08406 0.0
C2896 C 0.49479 0.35382 0.08824 0.0
C2897 C 0.44026 0.33148 0.10038 0.0
C2898 C 0.43618 0.32391 0.11711 0.0
C2899 C 0.42352 0.32488 0.10358 0.0
C2900 C 0.43049 0.32944 0.09689 0.0
C2901 C 0.42618 0.32245 0.11388 0.0
C2902 C 0.44318 0.32844 0.11039 0.0
C2903 C 0.44719 0.3377 0.09415 0.0
O2904 O 0.45032 0.36318 0.07503 0.0
O2905 O 0.45337 0.34977 0.06501 0.0
O2906 O 0.44785 0.34778 0.09539 0.0
O2907 O 0.45129 0.33397 0.08564 0.0
H2908 H 0.43114 0.35003 0.06929 0.0
H2909 H 0.41514 0.35428 0.06078 0.0
H2910 H 0.43041 0.37702 0.04181 0.0
H2911 H 0.44639 0.37248 0.05015 0.0
H2912 H 0.49421 0.3812 0.07585 0.0
H2913 H 0.47885 0.37048 0.07591 0.0
H2914 H 0.51009 0.35694 0.09222 0.0
H2915 H 0.49493 0.34635 0.09209 0.0
H2916 H 0.43843 0.32212 0.12498 0.0
H2917 H 0.4159 0.32363 0.10081 0.0
H2918 H 0.42816 0.33173 0.08918 0.0
H2919 H 0.45074 0.33 0.11316 0.0
C2920 C 0.37938 0.68574 0.8172 0.0
C2921 C 0.38369 0.67631 0.8203 0.0
C2922 C 0.36769 0.66742 0.81725 0.0
C2923 C 0.37789 0.66724 0.82033 0.0
C2924 C 0.36361 0.67673 0.81351 0.0
C2925 C 0.3694 0.68583 0.81353 0.0
U2926 U 0.40338 0.70129 0.82326 0.0
O2927 O 0.40837 0.71666 0.81761 0.0
O2928 O 0.40553 0.71415 0.83423 0.0
C2929 C 0.40833 0.72068 0.82698 0.0
C2930 C 0.38482 0.69563 0.81869 0.0
C2931 C 0.40564 0.73173 0.82844 0.0
C2932 C 0.39424 0.74667 0.82815 0.0
C2933 C 0.39624 0.73613 0.82585 0.0
C2934 C 0.41093 0.74828 0.83554 0.0
C2935 C 0.40161 0.7529 0.83307 0.0
C2936 C 0.41291 0.73796 0.83318 0.0
C2937 C 0.42712 0.68271 0.82773 0.0
C2938 C 0.44157 0.68187 0.83943 0.0
C2939 C 0.43863 0.66805 0.82712 0.0
C2940 C 0.43022 0.67333 0.82329 0.0
C2941 C 0.44415 0.672 0.83556 0.0
C2942 C 0.43306 0.68717 0.83559 0.0
C2943 C 0.41686 0.68643 0.82513 0.0
O2944 O 0.388 0.69734 0.82818 0.0
O2945 O 0.39154 0.69811 0.81162 0.0
O2946 O 0.41109 0.68961 0.83277 0.0
O2947 O 0.41538 0.69146 0.81639 0.0
H2948 H 0.39139 0.67603 0.82309 0.0
H2949 H 0.3813 0.66012 0.8231 0.0
H2950 H 0.35578 0.67711 0.81111 0.0
H2951 H 0.36595 0.69304 0.8111 0.0
H2952 H 0.38698 0.74989 0.82608 0.0
H2953 H 0.39047 0.73145 0.8222 0.0
H2954 H 0.41673 0.75253 0.83964 0.0
H2955 H 0.42017 0.73473 0.83535 0.0
H2956 H 0.44565 0.68514 0.84593 0.0
H2957 H 0.4405 0.66058 0.82379 0.0
H2958 H 0.42576 0.66972 0.81724 0.0
H2959 H 0.43081 0.6944 0.83916 0.0
C2960 C 0.07346 0.63905 0.57364 0.0
C2961 C 0.08208 0.64526 0.57264 0.0
C2962 C 0.09148 0.63065 0.56537 0.0
C2963 C 0.09096 0.64112 0.5685 0.0
C2964 C 0.08265 0.62464 0.56576 0.0
C2965 C 0.07372 0.62882 0.56989 0.0
U2966 U 0.05971 0.65924 0.59048 0.0
O2967 O 0.04372 0.66417 0.59065 0.0
O2968 O 0.05043 0.65677 0.60438 0.0
C2969 C 0.04228 0.66075 0.60015 0.0
C2970 C 0.06449 0.6428 0.57935 0.0
C2971 C 0.0324 0.65596 0.60273 0.0
C2972 C 0.02222 0.64203 0.61023 0.0
C2973 C 0.03136 0.64556 0.60588 0.0
C2974 C 0.01499 0.65907 0.60783 0.0
C2975 C 0.01405 0.64889 0.61162 0.0
C2976 C 0.02402 0.66254 0.60347 0.0
C2977 C 0.07607 0.68423 0.59663 0.0
C2978 C 0.07668 0.69662 0.61094 0.0
C2979 C 0.08824 0.69831 0.59651 0.0
C2980 C 0.08385 0.68972 0.59174 0.0
C2981 C 0.08491 0.70169 0.60627 0.0
C2982 C 0.07228 0.68791 0.60614 0.0
C2983 C 0.07324 0.6741 0.59213 0.0
O2984 O 0.06558 0.64332 0.58946 0.0
O2985 O 0.05985 0.65095 0.5755 0.0
O2986 O 0.06634 0.67392 0.58481 0.0
O2987 O 0.07278 0.66611 0.59843 0.0
H2988 H 0.08205 0.65318 0.57544 0.0
H2989 H 0.09761 0.646 0.56818 0.0
H2990 H 0.08281 0.61656 0.56349 0.0
H2991 H 0.06713 0.6239 0.57059 0.0
H2992 H 0.02175 0.63415 0.61308 0.0
H2993 H 0.03772 0.64031 0.60544 0.0
H2994 H 0.00882 0.66452 0.60863 0.0
H2995 H 0.02462 0.67059 0.60115 0.0
H2996 H 0.07411 0.69898 0.61855 0.0
H2997 H 0.09467 0.70198 0.59284 0.0
H2998 H 0.08695 0.68699 0.58446 0.0
H2999 H 0.06631 0.68375 0.61008 0.0
C3000 C 0.13978 0.35153 0.35322 0.0
C3001 C 0.13314 0.35996 0.35224 0.0
C3002 C 0.14444 0.36819 0.33972 0.0
C3003 C 0.13543 0.36818 0.34555 0.0
C3004 C 0.15134 0.36004 0.34126 0.0
C3005 C 0.14901 0.35179 0.34791 0.0
U3006 U 0.12446 0.33737 0.37412 0.0
O3007 O 0.11535 0.32315 0.37289 0.0
O3008 O 0.12803 0.32379 0.38386 0.0
C3009 C 0.12061 0.31823 0.37998 0.0
C3010 C 0.1368 0.34203 0.35887 0.0
C3011 C 0.12232 0.30703 0.3784 0.0
C3012 C 0.13038 0.29223 0.37007 0.0
C3013 C 0.12923 0.30303 0.37119 0.0
C3014 C 0.11776 0.28944 0.38333 0.0
C3015 C 0.12464 0.28527 0.37614 0.0
C3016 C 0.11661 0.30014 0.3844 0.0
C3017 C 0.10723 0.35519 0.39116 0.0
C3018 C 0.09003 0.35362 0.3976 0.0
C3019 C 0.10023 0.36841 0.40244 0.0
C3020 C 0.10832 0.36439 0.3968 0.0
C3021 C 0.09084 0.36333 0.40248 0.0
C3022 C 0.09817 0.34957 0.39195 0.0
C3023 C 0.11495 0.35269 0.38331 0.0
O3024 O 0.13979 0.34122 0.36856 0.0
O3025 O 0.12741 0.33905 0.35748 0.0
O3026 O 0.11177 0.34824 0.37476 0.0
O3027 O 0.12367 0.3491 0.3866 0.0
H3028 H 0.12598 0.35997 0.35629 0.0
H3029 H 0.12985 0.37423 0.34455 0.0
H3030 H 0.15844 0.35987 0.33711 0.0
H3031 H 0.15428 0.34541 0.34861 0.0
H3032 H 0.13571 0.28936 0.36439 0.0
H3033 H 0.13369 0.30822 0.36644 0.0
H3034 H 0.11337 0.28445 0.38834 0.0
H3035 H 0.11125 0.30307 0.39003 0.0
H3036 H 0.0829 0.34954 0.39743 0.0
H3037 H 0.10115 0.37584 0.40626 0.0
H3038 H 0.11524 0.36883 0.39631 0.0
H3039 H 0.09716 0.34242 0.38767 0.0
C3040 C 0.43984 0.64413 0.44471 0.0
C3041 C 0.43095 0.64926 0.44188 0.0
C3042 C 0.42146 0.63895 0.45444 0.0
C3043 C 0.42184 0.64673 0.44675 0.0
C3044 C 0.43047 0.6341 0.45746 0.0
C3045 C 0.43957 0.63667 0.45262 0.0
U3046 U 0.45755 0.65582 0.42354 0.0
O3047 O 0.47356 0.66024 0.4254 0.0
O3048 O 0.46922 0.64749 0.41497 0.0
C3049 C 0.47659 0.65303 0.4189 0.0
C3050 C 0.44943 0.64599 0.43933 0.0
C3051 C 0.48587 0.64737 0.42125 0.0
C3052 C 0.49451 0.63146 0.42595 0.0
C3053 C 0.48578 0.63759 0.42601 0.0
C3054 C 0.50349 0.6451 0.41691 0.0
C3055 C 0.50337 0.63507 0.42114 0.0
C3056 C 0.49483 0.65118 0.41698 0.0
C3057 C 0.44035 0.67359 0.40468 0.0
C3058 C 0.43598 0.68117 0.38802 0.0
C3059 C 0.42351 0.68006 0.40173 0.0
C3060 C 0.43061 0.67553 0.40831 0.0
C3061 C 0.42602 0.68254 0.39139 0.0
C3062 C 0.4431 0.67669 0.39464 0.0
C3063 C 0.44751 0.6675 0.41075 0.0
O3064 O 0.45022 0.64197 0.43 0.0
O3065 O 0.4533 0.65536 0.44005 0.0
O3066 O 0.44808 0.6574 0.40959 0.0
O3067 O 0.45147 0.67119 0.41935 0.0
H3068 H 0.43102 0.65507 0.43583 0.0
H3069 H 0.41507 0.65079 0.44439 0.0
H3070 H 0.43045 0.62806 0.46328 0.0
H3071 H 0.44639 0.63264 0.45488 0.0
H3072 H 0.49424 0.62378 0.42933 0.0
H3073 H 0.47888 0.63451 0.42928 0.0
H3074 H 0.51012 0.64805 0.41299 0.0
H3075 H 0.49497 0.65865 0.41313 0.0
H3076 H 0.43813 0.68298 0.38013 0.0
H3077 H 0.41592 0.68125 0.40461 0.0
H3078 H 0.4284 0.67321 0.41605 0.0
H3079 H 0.45065 0.67522 0.39176 0.0
C3080 C 0.13966 0.65415 0.15211 0.0
C3081 C 0.1331 0.64566 0.15302 0.0
C3082 C 0.14434 0.63758 0.16569 0.0
C3083 C 0.13539 0.63749 0.15977 0.0
C3084 C 0.15115 0.64583 0.16425 0.0
C3085 C 0.14881 0.65403 0.15756 0.0
U3086 U 0.12426 0.66776 0.13099 0.0
O3087 O 0.11503 0.6819 0.13194 0.0
O3088 O 0.12769 0.68116 0.12097 0.0
C3089 C 0.12027 0.68675 0.12479 0.0
C3090 C 0.13665 0.66355 0.14632 0.0
C3091 C 0.12206 0.69792 0.12637 0.0
C3092 C 0.12959 0.71262 0.13535 0.0
C3093 C 0.12841 0.70185 0.13415 0.0
C3094 C 0.11809 0.71554 0.12106 0.0
C3095 C 0.1244 0.71962 0.12882 0.0
C3096 C 0.11695 0.70485 0.11988 0.0
C3097 C 0.10718 0.64964 0.11425 0.0
C3098 C 0.09002 0.65122 0.10773 0.0
C3099 C 0.10024 0.6364 0.10295 0.0
C3100 C 0.1083 0.64042 0.10863 0.0
C3101 C 0.09085 0.6415 0.10285 0.0
C3102 C 0.09814 0.65526 0.1134 0.0
C3103 C 0.1149 0.65219 0.12208 0.0
O3104 O 0.13963 0.66418 0.13662 0.0
O3105 O 0.12724 0.66648 0.14766 0.0
O3106 O 0.11169 0.65675 0.13057 0.0
O3107 O 0.12359 0.65578 0.11874 0.0
H3108 H 0.12599 0.64555 0.14887 0.0
H3109 H 0.12986 0.63138 0.1607 0.0
H3110 H 0.1582 0.64608 0.16848 0.0
H3111 H 0.15401 0.66048 0.15691 0.0
H3112 H 0.13447 0.71547 0.14145 0.0
H3113 H 0.13239 0.69661 0.13928 0.0
H3114 H 0.11416 0.72061 0.11574 0.0
H3115 H 0.11202 0.70198 0.11381 0.0
H3116 H 0.08289 0.65531 0.10785 0.0
H3117 H 0.10117 0.62898 0.09914 0.0
H3118 H 0.11522 0.63598 0.10916 0.0
H3119 H 0.09711 0.66243 0.11765 0.0
C3120 C 0.07362 0.36596 0.93149 0.0
C3121 C 0.08222 0.35972 0.93247 0.0
C3122 C 0.09167 0.3743 0.93975 0.0
C3123 C 0.09112 0.36383 0.93661 0.0
C3124 C 0.08285 0.38033 0.93937 0.0
C3125 C 0.07391 0.37618 0.93524 0.0
U3126 U 0.05982 0.3458 0.91467 0.0
O3127 O 0.04383 0.34088 0.91453 0.0
O3128 O 0.0505 0.34828 0.90079 0.0
C3129 C 0.04236 0.3443 0.90503 0.0
C3130 C 0.06464 0.36223 0.9258 0.0
C3131 C 0.03248 0.34907 0.90247 0.0
C3132 C 0.02226 0.36298 0.89497 0.0
C3133 C 0.03141 0.35947 0.89931 0.0
C3134 C 0.01506 0.34593 0.89739 0.0
C3135 C 0.0141 0.35611 0.8936 0.0
C3136 C 0.02411 0.34248 0.90174 0.0
C3137 C 0.0762 0.3208 0.90852 0.0
C3138 C 0.07685 0.30837 0.89425 0.0
C3139 C 0.0884 0.30674 0.90869 0.0
C3140 C 0.08399 0.31534 0.91343 0.0
C3141 C 0.08508 0.30333 0.89894 0.0
C3142 C 0.07243 0.3171 0.89901 0.0
C3143 C 0.07334 0.33094 0.913 0.0
O3144 O 0.0657 0.36171 0.91568 0.0
O3145 O 0.05999 0.35409 0.92965 0.0
O3146 O 0.06645 0.33112 0.92032 0.0
O3147 O 0.07286 0.33892 0.90668 0.0
H3148 H 0.08217 0.3518 0.92967 0.0
H3149 H 0.09776 0.35893 0.93692 0.0
H3150 H 0.08303 0.38841 0.94165 0.0
H3151 H 0.06733 0.38112 0.93456 0.0
H3152 H 0.02177 0.37086 0.89212 0.0
H3153 H 0.03777 0.36473 0.89974 0.0
H3154 H 0.00891 0.34047 0.8966 0.0
H3155 H 0.02472 0.33443 0.90407 0.0
H3156 H 0.07429 0.30599 0.88664 0.0
H3157 H 0.09482 0.30309 0.91239 0.0
H3158 H 0.08707 0.31809 0.92071 0.0
H3159 H 0.06646 0.32123 0.89505 0.0
C3160 C 0.37937 0.31928 0.68799 0.0
C3161 C 0.38367 0.32871 0.68489 0.0
C3162 C 0.36768 0.33761 0.68794 0.0
C3163 C 0.37788 0.33778 0.68486 0.0
C3164 C 0.36359 0.32829 0.69169 0.0
C3165 C 0.36939 0.31919 0.69166 0.0
U3166 U 0.40337 0.30373 0.68192 0.0
O3167 O 0.40836 0.28836 0.68757 0.0
O3168 O 0.40551 0.29087 0.67095 0.0
C3169 C 0.40832 0.28433 0.67819 0.0
C3170 C 0.38481 0.30939 0.6865 0.0
C3171 C 0.40562 0.27329 0.67675 0.0
C3172 C 0.39423 0.25836 0.67703 0.0
C3173 C 0.39622 0.26889 0.67932 0.0
C3174 C 0.41093 0.25673 0.66966 0.0
C3175 C 0.4016 0.25212 0.67212 0.0
C3176 C 0.41291 0.26706 0.67202 0.0
C3177 C 0.4271 0.3223 0.67744 0.0
C3178 C 0.44155 0.32313 0.66573 0.0
C3179 C 0.43862 0.33695 0.67805 0.0
C3180 C 0.43021 0.33168 0.68188 0.0
C3181 C 0.44414 0.333 0.6696 0.0
C3182 C 0.43304 0.31784 0.66958 0.0
C3183 C 0.41684 0.31859 0.68005 0.0
O3184 O 0.38798 0.30768 0.677 0.0
O3185 O 0.39153 0.30691 0.69357 0.0
O3186 O 0.41107 0.31541 0.6724 0.0
O3187 O 0.41536 0.31356 0.68878 0.0
H3188 H 0.39137 0.32898 0.68208 0.0
H3189 H 0.38128 0.34489 0.68208 0.0
H3190 H 0.35577 0.32791 0.6941 0.0
H3191 H 0.36594 0.31198 0.69411 0.0
H3192 H 0.38696 0.25514 0.67908 0.0
H3193 H 0.39045 0.27358 0.68296 0.0
H3194 H 0.41674 0.25248 0.66558 0.0
H3195 H 0.42017 0.27028 0.66987 0.0
H3196 H 0.44562 0.31986 0.65923 0.0
H3197 H 0.44049 0.34442 0.68138 0.0
H3198 H 0.42575 0.33529 0.68793 0.0
H3199 H 0.43078 0.31061 0.666 0.0
C3200 C 0.05262 0.45673 0.36201 0.0
C3201 C 0.0564 0.44716 0.35862 0.0
C3202 C 0.0491 0.43867 0.37374 0.0
C3203 C 0.05461 0.43821 0.36441 0.0
C3204 C 0.04467 0.4481 0.37669 0.0
C3205 C 0.04646 0.45709 0.37086 0.0
U3206 U 0.06938 0.47096 0.34273 0.0
O3207 O 0.067 0.4854 0.33385 0.0
O3208 O 0.0793 0.48433 0.34524 0.0
C3209 C 0.07441 0.49022 0.33863 0.0
C3210 C 0.05611 0.46642 0.35718 0.0
C3211 C 0.07268 0.50103 0.34187 0.0
C3212 C 0.06916 0.51406 0.35505 0.0
C3213 C 0.06913 0.50367 0.35179 0.0
C3214 C 0.07591 0.51922 0.3384 0.0
C3215 C 0.07281 0.52196 0.34848 0.0
C3216 C 0.07579 0.50891 0.33515 0.0
C3217 C 0.08642 0.45281 0.32567 0.0
C3218 C 0.10387 0.45417 0.31993 0.0
C3219 C 0.09401 0.43904 0.31541 0.0
C3220 C 0.08565 0.44327 0.3205 0.0
C3221 C 0.10328 0.44427 0.31544 0.0
C3222 C 0.09546 0.45846 0.32496 0.0
C3223 C 0.07842 0.45555 0.33314 0.0
O3224 O 0.06559 0.46868 0.35913 0.0
O3225 O 0.05366 0.46784 0.34741 0.0
O3226 O 0.07019 0.45998 0.32956 0.0
O3227 O 0.08141 0.45933 0.34209 0.0
H3228 H 0.06117 0.44672 0.35182 0.0
H3229 H 0.05805 0.431 0.36192 0.0
H3230 H 0.04046 0.44868 0.38386 0.0
H3231 H 0.04351 0.46443 0.3736 0.0
H3232 H 0.06655 0.51585 0.3628 0.0
H3233 H 0.06669 0.49768 0.35711 0.0
H3234 H 0.07897 0.52493 0.33313 0.0
H3235 H 0.07863 0.50702 0.32749 0.0
H3236 H 0.11102 0.45823 0.32021 0.0
H3237 H 0.09345 0.43128 0.31223 0.0
H3238 H 0.07879 0.43873 0.32104 0.0
H3239 H 0.09625 0.46582 0.32894 0.0
C3240 C 0.32282 0.32288 0.11607 0.0
C3241 C 0.33189 0.32196 0.11055 0.0
C3242 C 0.33965 0.31286 0.12518 0.0
C3243 C 0.3402 0.31696 0.11504 0.0
C3244 C 0.3304 0.31344 0.13047 0.0
C3245 C 0.32208 0.31841 0.12595 0.0
U3246 U 0.30981 0.34022 0.09555 0.0
O3247 O 0.29387 0.3406 0.09053 0.0
O3248 O 0.30064 0.3542 0.09809 0.0
C3249 C 0.29247 0.35006 0.09405 0.0
C3250 C 0.31424 0.32896 0.11198 0.0
C3251 C 0.28261 0.35258 0.0989 0.0
C3252 C 0.27244 0.35997 0.11292 0.0
C3253 C 0.2816 0.35571 0.10932 0.0
C3254 C 0.26514 0.35752 0.09592 0.0
C3255 C 0.26423 0.36129 0.10611 0.0
C3256 C 0.27419 0.35325 0.09238 0.0
C3257 C 0.32603 0.34635 0.07054 0.0
C3258 C 0.32646 0.36078 0.05829 0.0
C3259 C 0.33796 0.34635 0.05624 0.0
C3260 C 0.33372 0.34151 0.06487 0.0
C3261 C 0.33459 0.35615 0.05303 0.0
C3262 C 0.32219 0.3559 0.06703 0.0
C3263 C 0.32334 0.34177 0.08068 0.0
O3264 O 0.31569 0.33902 0.11145 0.0
O3265 O 0.30962 0.32522 0.10377 0.0
O3266 O 0.31639 0.3345 0.08086 0.0
O3267 O 0.32298 0.34802 0.08871 0.0
H3268 H 0.33261 0.32531 0.10288 0.0
H3269 H 0.34713 0.31648 0.11061 0.0
H3270 H 0.3297 0.31045 0.13828 0.0
H3271 H 0.31514 0.31903 0.13034 0.0
H3272 H 0.272 0.36281 0.12081 0.0
H3273 H 0.288 0.35531 0.11454 0.0
H3274 H 0.25894 0.35827 0.0905 0.0
H3275 H 0.27476 0.35094 0.08432 0.0
H3276 H 0.32387 0.36843 0.05608 0.0
H3277 H 0.34434 0.34271 0.05243 0.0
H3278 H 0.33685 0.3342 0.06747 0.0
H3279 H 0.31629 0.35981 0.07133 0.0
C3280 C 0.42889 0.56988 0.87411 0.0
C3281 C 0.42424 0.57964 0.8741 0.0
C3282 C 0.44071 0.58822 0.87355 0.0
C3283 C 0.43007 0.58868 0.87391 0.0
C3284 C 0.44536 0.57844 0.87417 0.0
C3285 C 0.43949 0.56936 0.87442 0.0
U3286 U 0.40404 0.55627 0.86755 0.0
O3287 O 0.40104 0.54301 0.85727 0.0
O3288 O 0.39674 0.54216 0.87374 0.0
C3289 C 0.39678 0.53753 0.86465 0.0
C3290 C 0.42284 0.56028 0.87291 0.0
C3291 C 0.39783 0.52613 0.86419 0.0
C3292 C 0.40734 0.50996 0.86496 0.0
C3293 C 0.40685 0.5208 0.86628 0.0
C3294 C 0.38984 0.50981 0.85963 0.0
C3295 C 0.39886 0.50436 0.8614 0.0
C3296 C 0.38935 0.52051 0.86099 0.0
C3297 C 0.38271 0.57657 0.86034 0.0
C3298 C 0.36562 0.57521 0.85343 0.0
C3299 C 0.37391 0.59189 0.85443 0.0
C3300 C 0.38234 0.58725 0.85883 0.0
C3301 C 0.36535 0.58602 0.85161 0.0
C3302 C 0.37428 0.5705 0.85771 0.0
C3303 C 0.39242 0.57235 0.86394 0.0
O3304 O 0.41554 0.55883 0.87967 0.0
O3305 O 0.42003 0.55821 0.86337 0.0
O3306 O 0.39832 0.56819 0.85691 0.0
O3307 O 0.39281 0.56771 0.873 0.0
H3308 H 0.41608 0.58026 0.87388 0.0
H3309 H 0.42622 0.59609 0.87359 0.0
H3310 H 0.4535 0.57779 0.87384 0.0
H3311 H 0.44324 0.5619 0.87442 0.0
H3312 H 0.41441 0.50601 0.86642 0.0
H3313 H 0.4135 0.52501 0.86876 0.0
H3314 H 0.38308 0.50578 0.85716 0.0
H3315 H 0.3823 0.52446 0.85938 0.0
H3316 H 0.35924 0.57037 0.85144 0.0
H3317 H 0.37447 0.60009 0.85283 0.0
H3318 H 0.3888 0.59206 0.86069 0.0
H3319 H 0.37446 0.56218 0.85879 0.0
C3320 C 0.19074 0.69492 0.61268 0.0
C3321 C 0.18202 0.69222 0.60717 0.0
C3322 C 0.17221 0.7047 0.6172 0.0
C3323 C 0.17286 0.69711 0.60937 0.0
C3324 C 0.18106 0.70767 0.62241 0.0
C3325 C 0.19025 0.70279 0.62017 0.0
U3326 U 0.20564 0.67276 0.60041 0.0
O3327 O 0.22135 0.67237 0.59468 0.0
O3328 O 0.21661 0.66213 0.60738 0.0
C3329 C 0.22413 0.66553 0.60168 0.0
C3330 C 0.20023 0.68921 0.61109 0.0
C3331 C 0.23364 0.66756 0.60727 0.0
C3332 C 0.24275 0.6732 0.62266 0.0
C3333 C 0.23385 0.67285 0.61679 0.0
C3334 C 0.25145 0.66355 0.60926 0.0
C3335 C 0.2516 0.66833 0.61906 0.0
C3336 C 0.24256 0.66316 0.60345 0.0
C3337 C 0.18842 0.65525 0.58221 0.0
C3338 C 0.18785 0.63707 0.57696 0.0
C3339 C 0.17504 0.64906 0.57099 0.0
C3340 C 0.1798 0.65712 0.57624 0.0
C3341 C 0.1788 0.6389 0.57155 0.0
C3342 C 0.19262 0.64522 0.58235 0.0
C3343 C 0.19171 0.66368 0.58915 0.0
O3344 O 0.20036 0.6798 0.61495 0.0
O3345 O 0.20411 0.68971 0.60172 0.0
O3346 O 0.19342 0.66137 0.59891 0.0
O3347 O 0.1977 0.67091 0.58545 0.0
H3348 H 0.18226 0.6862 0.60132 0.0
H3349 H 0.16624 0.6948 0.60502 0.0
H3350 H 0.18083 0.71345 0.6285 0.0
H3351 H 0.19694 0.70496 0.62449 0.0
H3352 H 0.24266 0.67702 0.63014 0.0
H3353 H 0.22704 0.67634 0.61987 0.0
H3354 H 0.25808 0.65962 0.60631 0.0
H3355 H 0.24255 0.659 0.59615 0.0
H3356 H 0.19087 0.62929 0.57752 0.0
H3357 H 0.16812 0.6507 0.56683 0.0
H3358 H 0.17641 0.66476 0.57607 0.0
H3359 H 0.19926 0.64361 0.58696 0.0
C3360 C 0.05258 0.54824 0.14322 0.0
C3361 C 0.05633 0.55782 0.1466 0.0
C3362 C 0.04901 0.56628 0.13149 0.0
C3363 C 0.05452 0.56676 0.14081 0.0
C3364 C 0.04461 0.55684 0.12854 0.0
C3365 C 0.04642 0.54785 0.13437 0.0
U3366 U 0.06948 0.53408 0.16242 0.0
O3367 O 0.06715 0.51967 0.17136 0.0
O3368 O 0.07938 0.5207 0.15989 0.0
C3369 C 0.07453 0.51483 0.16654 0.0
C3370 C 0.05612 0.53856 0.14804 0.0
C3371 C 0.07276 0.50401 0.16332 0.0
C3372 C 0.06921 0.49098 0.15015 0.0
C3373 C 0.06921 0.50138 0.1534 0.0
C3374 C 0.07595 0.48582 0.1668 0.0
C3375 C 0.07285 0.48308 0.15672 0.0
C3376 C 0.07586 0.49614 0.17004 0.0
C3377 C 0.08656 0.55241 0.17929 0.0
C3378 C 0.10403 0.55122 0.18501 0.0
C3379 C 0.09406 0.56632 0.18943 0.0
C3380 C 0.08573 0.56198 0.18439 0.0
C3381 C 0.10337 0.56115 0.18943 0.0
C3382 C 0.09564 0.54683 0.18002 0.0
C3383 C 0.07854 0.54954 0.17189 0.0
O3384 O 0.06558 0.53631 0.14604 0.0
O3385 O 0.05372 0.53716 0.15784 0.0
O3386 O 0.07034 0.54512 0.17553 0.0
O3387 O 0.08151 0.54571 0.16295 0.0
H3388 H 0.06111 0.55828 0.1534 0.0
H3389 H 0.05795 0.57398 0.14328 0.0
H3390 H 0.0404 0.55624 0.12137 0.0
H3391 H 0.04349 0.54051 0.13164 0.0
H3392 H 0.0666 0.4892 0.1424 0.0
H3393 H 0.06677 0.50737 0.14808 0.0
H3394 H 0.079 0.4801 0.17207 0.0
H3395 H 0.0787 0.49802 0.1777 0.0
H3396 H 0.1112 0.54721 0.18476 0.0
H3397 H 0.09345 0.57409 0.19255 0.0
H3398 H 0.07884 0.56647 0.18383 0.0
H3399 H 0.09648 0.53945 0.1761 0.0
C3400 C 0.19085 0.30983 0.89249 0.0
C3401 C 0.18215 0.31238 0.89811 0.0
C3402 C 0.17238 0.29997 0.88797 0.0
C3403 C 0.17302 0.30745 0.89591 0.0
C3404 C 0.18121 0.29713 0.88266 0.0
C3405 C 0.19038 0.30206 0.8849 0.0
U3406 U 0.20537 0.33219 0.90476 0.0
O3407 O 0.22103 0.33291 0.91053 0.0
O3408 O 0.21613 0.34307 0.89783 0.0
C3409 C 0.2237 0.33982 0.90355 0.0
C3410 C 0.20027 0.31566 0.89406 0.0
C3411 C 0.23324 0.33797 0.89799 0.0
C3412 C 0.24251 0.33212 0.88278 0.0
C3413 C 0.23359 0.3324 0.88863 0.0
C3414 C 0.25093 0.34242 0.89588 0.0
C3415 C 0.25121 0.33732 0.88625 0.0
C3416 C 0.24202 0.34276 0.90166 0.0
C3417 C 0.18834 0.34962 0.92299 0.0
C3418 C 0.18762 0.36797 0.92753 0.0
C3419 C 0.17565 0.3559 0.93497 0.0
C3420 C 0.18025 0.34776 0.9297 0.0
C3421 C 0.17907 0.36612 0.9337 0.0
C3422 C 0.19222 0.35974 0.92213 0.0
C3423 C 0.19132 0.34106 0.91606 0.0
O3424 O 0.20025 0.32508 0.8902 0.0
O3425 O 0.20416 0.31521 0.90342 0.0
O3426 O 0.19738 0.33386 0.91971 0.0
O3427 O 0.19291 0.3433 0.90626 0.0
H3428 H 0.18238 0.31834 0.90403 0.0
H3429 H 0.16641 0.30965 0.90033 0.0
H3430 H 0.18097 0.29143 0.8765 0.0
H3431 H 0.19705 0.30001 0.88049 0.0
H3432 H 0.24253 0.32807 0.87542 0.0
H3433 H 0.22688 0.32862 0.88567 0.0
H3434 H 0.25746 0.3466 0.89871 0.0
H3435 H 0.24189 0.34714 0.90883 0.0
H3436 H 0.19033 0.3758 0.92637 0.0
H3437 H 0.16906 0.35428 0.93968 0.0
H3438 H 0.17709 0.34004 0.93043 0.0
H3439 H 0.19845 0.36135 0.91693 0.0
C3440 C 0.4289 0.43511 0.63106 0.0
C3441 C 0.42425 0.42535 0.63106 0.0
C3442 C 0.44073 0.41677 0.6316 0.0
C3443 C 0.43008 0.4163 0.63124 0.0
C3444 C 0.44537 0.42654 0.63099 0.0
C3445 C 0.43949 0.43562 0.63075 0.0
U3446 U 0.40405 0.44872 0.63765 0.0
O3447 O 0.40106 0.46198 0.64793 0.0
O3448 O 0.39675 0.46284 0.63146 0.0
C3449 C 0.3968 0.46747 0.64055 0.0
C3450 C 0.42284 0.4447 0.63227 0.0
C3451 C 0.39784 0.47886 0.64102 0.0
C3452 C 0.40736 0.49503 0.64026 0.0
C3453 C 0.40687 0.48419 0.63893 0.0
C3454 C 0.38985 0.49519 0.64558 0.0
C3455 C 0.39888 0.50063 0.64381 0.0
C3456 C 0.38937 0.48448 0.64422 0.0
C3457 C 0.38271 0.42844 0.64487 0.0
C3458 C 0.36562 0.42981 0.65179 0.0
C3459 C 0.37391 0.41313 0.65079 0.0
C3460 C 0.38233 0.41775 0.64639 0.0
C3461 C 0.36535 0.41901 0.65361 0.0
C3462 C 0.37429 0.43452 0.6475 0.0
C3463 C 0.39242 0.43264 0.64126 0.0
O3464 O 0.41554 0.44616 0.62551 0.0
O3465 O 0.42005 0.44677 0.64181 0.0
O3466 O 0.39833 0.4368 0.64829 0.0
O3467 O 0.39281 0.43729 0.6322 0.0
H3468 H 0.4161 0.42472 0.63129 0.0
H3469 H 0.42624 0.4089 0.63156 0.0
H3470 H 0.45351 0.4272 0.63131 0.0
H3471 H 0.44324 0.44308 0.63075 0.0
H3472 H 0.41443 0.49898 0.63879 0.0
H3473 H 0.41352 0.47998 0.63645 0.0
H3474 H 0.38309 0.49921 0.64805 0.0
H3475 H 0.38232 0.48054 0.64583 0.0
H3476 H 0.35925 0.43466 0.65378 0.0
H3477 H 0.37446 0.40493 0.6524 0.0
H3478 H 0.3888 0.41295 0.64453 0.0
H3479 H 0.37447 0.44284 0.64642 0.0
C3480 C 0.32251 0.68203 0.3893 0.0
C3481 C 0.33156 0.68297 0.39485 0.0
C3482 C 0.33934 0.69204 0.38024 0.0
C3483 C 0.33987 0.68798 0.39039 0.0
C3484 C 0.33012 0.69145 0.37491 0.0
C3485 C 0.32179 0.68648 0.37941 0.0
U3486 U 0.30966 0.66466 0.40982 0.0
O3487 O 0.29373 0.66422 0.41491 0.0
O3488 O 0.30053 0.65065 0.40732 0.0
C3489 C 0.29236 0.65477 0.41136 0.0
C3490 C 0.31395 0.67594 0.39337 0.0
C3491 C 0.28252 0.65229 0.40645 0.0
C3492 C 0.27241 0.64494 0.39237 0.0
C3493 C 0.28156 0.64918 0.39602 0.0
C3494 C 0.26502 0.64742 0.40934 0.0
C3495 C 0.26417 0.64365 0.39914 0.0
C3496 C 0.27406 0.65166 0.41293 0.0
C3497 C 0.32599 0.65859 0.43474 0.0
C3498 C 0.32645 0.64417 0.44699 0.0
C3499 C 0.33796 0.6586 0.44899 0.0
C3500 C 0.33369 0.66344 0.44038 0.0
C3501 C 0.33459 0.64881 0.45222 0.0
C3502 C 0.32216 0.64904 0.43826 0.0
C3503 C 0.32325 0.66318 0.42462 0.0
O3504 O 0.31543 0.66588 0.39389 0.0
O3505 O 0.30935 0.67966 0.4016 0.0
O3506 O 0.31627 0.67041 0.42447 0.0
O3507 O 0.32289 0.65692 0.41658 0.0
H3508 H 0.33226 0.67964 0.40253 0.0
H3509 H 0.34679 0.68848 0.39483 0.0
H3510 H 0.32944 0.69441 0.36709 0.0
H3511 H 0.31486 0.68583 0.375 0.0
H3512 H 0.272 0.64211 0.38448 0.0
H3513 H 0.28799 0.64956 0.39085 0.0
H3514 H 0.25879 0.64668 0.41472 0.0
H3515 H 0.27459 0.65396 0.42099 0.0
H3516 H 0.32387 0.63653 0.44922 0.0
H3517 H 0.34435 0.66224 0.45278 0.0
H3518 H 0.33682 0.67074 0.43776 0.0
H3519 H 0.31625 0.64513 0.43399 0.0
C3520 C 0.38983 0.10311 0.40357 0.0
C3521 C 0.3832 0.10212 0.39514 0.0
C3522 C 0.3945 0.0896 0.38691 0.0
C3523 C 0.38548 0.09542 0.38692 0.0
C3524 C 0.40139 0.09114 0.39507 0.0
C3525 C 0.39906 0.0978 0.40332 0.0
U3526 U 0.37451 0.12403 0.4177 0.0
O3527 O 0.36541 0.12281 0.43193 0.0
O3528 O 0.37808 0.13378 0.43127 0.0
C3529 C 0.37068 0.12991 0.43684 0.0
C3530 C 0.38685 0.10877 0.41307 0.0
C3531 C 0.37241 0.12831 0.44804 0.0
C3532 C 0.38052 0.11998 0.4628 0.0
C3533 C 0.37934 0.1211 0.45201 0.0
C3534 C 0.36789 0.13323 0.46565 0.0
C3535 C 0.37478 0.12604 0.46978 0.0
C3536 C 0.36672 0.13431 0.45495 0.0
C3537 C 0.35727 0.14104 0.3999 0.0
C3538 C 0.34007 0.14748 0.40149 0.0
C3539 C 0.35027 0.15234 0.3867 0.0
C3540 C 0.35836 0.14669 0.39071 0.0
C3541 C 0.34088 0.15238 0.39178 0.0
C3542 C 0.34821 0.14183 0.40552 0.0
C3543 C 0.36499 0.13319 0.40238 0.0
O3544 O 0.38984 0.11846 0.41386 0.0
O3545 O 0.37746 0.10739 0.41604 0.0
O3546 O 0.36181 0.12464 0.40684 0.0
O3547 O 0.37371 0.13648 0.40596 0.0
H3548 H 0.37603 0.10617 0.39513 0.0
H3549 H 0.37991 0.09442 0.38087 0.0
H3550 H 0.40849 0.087 0.39524 0.0
H3551 H 0.40433 0.09851 0.4097 0.0
H3552 H 0.38585 0.1143 0.46565 0.0
H3553 H 0.38379 0.11636 0.4468 0.0
H3554 H 0.36351 0.13823 0.47066 0.0
H3555 H 0.36135 0.13994 0.45204 0.0
H3556 H 0.33293 0.14731 0.40558 0.0
H3557 H 0.35119 0.15617 0.37929 0.0
H3558 H 0.36528 0.14621 0.38626 0.0
H3559 H 0.3472 0.13754 0.41267 0.0
C3560 C 0.88981 0.40184 0.60164 0.0
C3561 C 0.88318 0.40283 0.61007 0.0
C3562 C 0.89448 0.41535 0.61829 0.0
C3563 C 0.88547 0.40953 0.61829 0.0
C3564 C 0.90137 0.4138 0.61013 0.0
C3565 C 0.89904 0.40714 0.60189 0.0
U3566 U 0.87447 0.38093 0.58751 0.0
O3567 O 0.86538 0.38215 0.57328 0.0
O3568 O 0.87805 0.37118 0.57394 0.0
C3569 C 0.87064 0.37506 0.56837 0.0
C3570 C 0.88682 0.39618 0.59215 0.0
C3571 C 0.87238 0.37665 0.55717 0.0
C3572 C 0.88048 0.38498 0.54241 0.0
C3573 C 0.87931 0.38386 0.55321 0.0
C3574 C 0.86785 0.37174 0.53957 0.0
C3575 C 0.87475 0.37893 0.53543 0.0
C3576 C 0.86668 0.37066 0.55027 0.0
C3577 C 0.85722 0.36392 0.6053 0.0
C3578 C 0.84002 0.35749 0.6037 0.0
C3579 C 0.85022 0.35261 0.61849 0.0
C3580 C 0.85831 0.35825 0.61449 0.0
C3581 C 0.84083 0.35258 0.61341 0.0
C3582 C 0.84817 0.36314 0.59968 0.0
C3583 C 0.86495 0.37176 0.60283 0.0
O3584 O 0.88981 0.38649 0.59136 0.0
O3585 O 0.87743 0.39757 0.58918 0.0
O3586 O 0.86177 0.38031 0.59837 0.0
O3587 O 0.87367 0.36847 0.59925 0.0
H3588 H 0.87602 0.39878 0.61009 0.0
H3589 H 0.8799 0.41054 0.62434 0.0
H3590 H 0.90848 0.41795 0.60995 0.0
H3591 H 0.9043 0.40643 0.5955 0.0
H3592 H 0.88581 0.39066 0.53956 0.0
H3593 H 0.88376 0.3886 0.55842 0.0
H3594 H 0.86347 0.36674 0.53455 0.0
H3595 H 0.86132 0.36503 0.55317 0.0
H3596 H 0.83289 0.35766 0.59962 0.0
H3597 H 0.85113 0.34877 0.6259 0.0
H3598 H 0.86523 0.35873 0.61894 0.0
H3599 H 0.84716 0.36743 0.59253 0.0
C3600 C 0.30257 0.1118 0.29847 0.0
C3601 C 0.30635 0.10844 0.30804 0.0
C3602 C 0.2991 0.1236 0.3165 0.0
C3603 C 0.30459 0.11427 0.31698 0.0
C3604 C 0.29467 0.12653 0.30706 0.0
C3605 C 0.29644 0.12067 0.29808 0.0
U3606 U 0.3193 0.09244 0.28434 0.0
O3607 O 0.31689 0.08342 0.26999 0.0
O3608 O 0.32918 0.09484 0.27092 0.0
C3609 C 0.32428 0.08816 0.26511 0.0
C3610 C 0.30604 0.10692 0.2888 0.0
C3611 C 0.3225 0.0913 0.25428 0.0
C3612 C 0.31876 0.10431 0.24117 0.0
C3613 C 0.31883 0.10115 0.25159 0.0
C3614 C 0.32568 0.0877 0.23612 0.0
C3615 C 0.32244 0.0977 0.23331 0.0
C3616 C 0.32566 0.08455 0.24645 0.0
C3617 C 0.33641 0.07551 0.30249 0.0
C3618 C 0.35385 0.06977 0.30102 0.0
C3619 C 0.34405 0.06525 0.3162 0.0
C3620 C 0.33568 0.07033 0.31202 0.0
C3621 C 0.35331 0.06529 0.31093 0.0
C3622 C 0.34542 0.0748 0.29678 0.0
C3623 C 0.32838 0.08296 0.29978 0.0
O3624 O 0.31551 0.10885 0.2865 0.0
O3625 O 0.30358 0.09713 0.28745 0.0
O3626 O 0.32013 0.07937 0.29542 0.0
O3627 O 0.33136 0.09189 0.29595 0.0
H3628 H 0.31111 0.10162 0.3085 0.0
H3629 H 0.30803 0.11179 0.32419 0.0
H3630 H 0.29048 0.13371 0.30647 0.0
H3631 H 0.29349 0.12338 0.29074 0.0
H3632 H 0.31605 0.11201 0.23933 0.0
H3633 H 0.31635 0.10649 0.25755 0.0
H3634 H 0.32878 0.08241 0.23043 0.0
H3635 H 0.3286 0.07695 0.24839 0.0
H3636 H 0.36098 0.07006 0.29693 0.0
H3637 H 0.34354 0.06207 0.32396 0.0
H3638 H 0.32884 0.07087 0.3166 0.0
H3639 H 0.34617 0.07877 0.28942 0.0
C3640 C 0.63387 0.56659 0.07443 0.0
C3641 C 0.63672 0.56968 0.08439 0.0
C3642 C 0.6195 0.56705 0.0904 0.0
C3643 C 0.62959 0.56986 0.09234 0.0
C3644 C 0.6168 0.56337 0.08057 0.0
C3645 C 0.62396 0.56318 0.0726 0.0
U3646 U 0.65467 0.57252 0.05221 0.0
O3647 O 0.65296 0.56457 0.03706 0.0
O3648 O 0.64814 0.58078 0.039 0.0
C3649 C 0.64866 0.57272 0.03282 0.0
C3650 C 0.64055 0.56831 0.06558 0.0
C3651 C 0.65009 0.57484 0.02172 0.0
C3652 C 0.64229 0.57498 0.00467 0.0
C3653 C 0.64251 0.57152 0.01492 0.0
C3654 C 0.65761 0.58475 0.00771 0.0
C3655 C 0.64969 0.58185 1.00099 0.0
C3656 C 0.65778 0.58132 0.01803 0.0
C3657 C 0.67963 0.57988 0.0668 0.0
C3658 C 0.69299 0.59044 0.07431 0.0
C3659 C 0.68534 0.57677 0.08447 0.0
C3660 C 0.67903 0.57424 0.07608 0.0
C3661 C 0.6923 0.58504 0.08376 0.0
C3662 C 0.68676 0.58786 0.06596 0.0
C3663 C 0.67309 0.57778 0.05774 0.0
O3664 O 0.64275 0.57782 0.06274 0.0
O3665 O 0.64656 0.56105 0.06195 0.0
O3666 O 0.66585 0.58453 0.05604 0.0
O3667 O 0.67035 0.56814 0.05597 0.0
H3668 H 0.64432 0.57239 0.08589 0.0
H3669 H 0.63185 0.57263 0.09993 0.0
H3670 H 0.60907 0.56123 0.07889 0.0
H3671 H 0.62164 0.56088 0.06489 0.0
H3672 H 0.63619 0.57245 0.99969 0.0
H3673 H 0.63646 0.56658 0.01767 0.0
H3674 H 0.6634 0.59009 0.00517 0.0
H3675 H 0.66362 0.58409 0.02321 0.0
H3676 H 0.69806 0.59695 0.07344 0.0
H3677 H 0.68467 0.5723 0.09153 0.0
H3678 H 0.67365 0.56798 0.0769 0.0
H3679 H 0.68739 0.59228 0.05885 0.0
C3680 C 0.67933 0.38199 0.31935 0.0
C3681 C 0.67531 0.38301 0.32937 0.0
C3682 C 0.6922 0.38153 0.33695 0.0
C3683 C 0.68166 0.38274 0.33806 0.0
C3684 C 0.69611 0.38016 0.3269 0.0
C3685 C 0.68974 0.38039 0.31821 0.0
U3686 U 0.65398 0.38819 0.30635 0.0
O3687 O 0.65061 0.39838 0.29313 0.0
O3688 O 0.64666 0.38183 0.29233 0.0
C3689 C 0.64649 0.3909 0.28768 0.0
C3690 C 0.67292 0.3832 0.31002 0.0
C3691 C 0.64762 0.39131 0.2763 0.0
C3692 C 0.65723 0.3904 0.26018 0.0
C3693 C 0.65667 0.38915 0.27104 0.0
C3694 C 0.63974 0.39576 0.25989 0.0
C3695 C 0.64879 0.39393 0.25452 0.0
C3696 C 0.63918 0.39449 0.2706 0.0
C3697 C 0.63265 0.39492 0.32668 0.0
C3698 C 0.61564 0.40195 0.32512 0.0
C3699 C 0.62353 0.40041 0.34196 0.0
C3700 C 0.63204 0.39609 0.3374 0.0
C3701 C 0.61513 0.40348 0.33596 0.0
C3702 C 0.62438 0.39777 0.32049 0.0
C3703 C 0.64246 0.39152 0.32257 0.0
O3704 O 0.66573 0.37629 0.3087 0.0
O3705 O 0.66989 0.3927 0.30812 0.0
O3706 O 0.64818 0.39868 0.31835 0.0
O3707 O 0.64303 0.38247 0.31793 0.0
H3708 H 0.66728 0.38422 0.33045 0.0
H3709 H 0.6783 0.3836 0.34567 0.0
H3710 H 0.70415 0.3793 0.32568 0.0
H3711 H 0.693 0.37961 0.31055 0.0
H3712 H 0.66432 0.3889 0.25629 0.0
H3713 H 0.66329 0.38669 0.2753 0.0
H3714 H 0.633 0.39821 0.25581 0.0
H3715 H 0.63211 0.39614 0.27449 0.0
H3716 H 0.60939 0.4041 0.32017 0.0
H3717 H 0.62392 0.40178 0.35022 0.0
H3718 H 0.63839 0.39406 0.3423 0.0
H3719 H 0.62475 0.39695 0.31215 0.0
C3720 C 0.13383 0.93841 0.9308 0.0
C3721 C 0.1367 0.9353 0.92086 0.0
C3722 C 0.1195 0.93795 0.91479 0.0
C3723 C 0.12959 0.93512 0.91288 0.0
C3724 C 0.11678 0.94164 0.92462 0.0
C3725 C 0.12392 0.94184 0.9326 0.0
U3726 U 0.15463 0.93245 0.95302 0.0
O3727 O 0.15293 0.94038 0.96818 0.0
O3728 O 0.14812 0.92416 0.96622 0.0
C3729 C 0.14864 0.93222 0.97241 0.0
C3730 C 0.14048 0.93669 0.93968 0.0
C3731 C 0.15006 0.93008 0.98351 0.0
C3732 C 0.14223 0.92991 1.00056 0.0
C3733 C 0.14246 0.93339 0.99031 0.0
C3734 C 0.15758 0.92018 0.99752 0.0
C3735 C 0.14964 0.92306 0.00424 0.0
C3736 C 0.15775 0.92361 0.9872 0.0
C3737 C 0.17959 0.92512 0.93839 0.0
C3738 C 0.19296 0.91458 0.93087 0.0
C3739 C 0.1853 0.92825 0.92072 0.0
C3740 C 0.17899 0.93077 0.92911 0.0
C3741 C 0.19226 0.91998 0.92143 0.0
C3742 C 0.18673 0.91714 0.93922 0.0
C3743 C 0.17305 0.9272 0.94745 0.0
O3744 O 0.14269 0.92718 0.9425 0.0
O3745 O 0.1465 0.94394 0.94331 0.0
O3746 O 0.16581 0.92045 0.94914 0.0
O3747 O 0.1703 0.93685 0.94924 0.0
H3748 H 0.1443 0.93258 0.91937 0.0
H3749 H 0.13187 0.93234 0.90531 0.0
H3750 H 0.10904 0.9438 0.92627 0.0
H3751 H 0.12158 0.94415 0.94031 0.0
H3752 H 0.13613 0.93244 0.00553 0.0
H3753 H 0.13641 0.93832 0.98755 0.0
H3754 H 0.16337 0.91484 1.00006 0.0
H3755 H 0.1636 0.92086 0.98202 0.0
H3756 H 0.19803 0.90807 0.93174 0.0
H3757 H 0.18463 0.93273 0.91366 0.0
H3758 H 0.1736 0.93703 0.9283 0.0
H3759 H 0.18736 0.91272 0.94633 0.0
C3760 C 0.30259 0.89317 0.20676 0.0
C3761 C 0.30637 0.89653 0.19719 0.0
C3762 C 0.29909 0.88139 0.18873 0.0
C3763 C 0.3046 0.89071 0.18825 0.0
C3764 C 0.29467 0.87846 0.19816 0.0
C3765 C 0.29645 0.88431 0.20714 0.0
U3766 U 0.31931 0.91252 0.22092 0.0
O3767 O 0.31689 0.92151 0.23529 0.0
O3768 O 0.32917 0.9101 0.23435 0.0
C3769 C 0.32427 0.91677 0.24017 0.0
C3770 C 0.30605 0.89805 0.21644 0.0
C3771 C 0.3225 0.91363 0.251 0.0
C3772 C 0.31881 0.90061 0.26412 0.0
C3773 C 0.31886 0.90377 0.2537 0.0
C3774 C 0.32567 0.91724 0.26917 0.0
C3775 C 0.32247 0.90722 0.27198 0.0
C3776 C 0.32563 0.9204 0.25883 0.0
C3777 C 0.33643 0.92947 0.20279 0.0
C3778 C 0.35388 0.93517 0.20422 0.0
C3779 C 0.34405 0.93976 0.18908 0.0
C3780 C 0.33568 0.93467 0.19328 0.0
C3781 C 0.35332 0.93969 0.19433 0.0
C3782 C 0.34546 0.93014 0.20847 0.0
C3783 C 0.32841 0.92201 0.2055 0.0
O3784 O 0.31552 0.89611 0.21874 0.0
O3785 O 0.30359 0.90783 0.2178 0.0
O3786 O 0.32015 0.9256 0.20986 0.0
O3787 O 0.33138 0.91308 0.20933 0.0
H3788 H 0.31113 0.90334 0.19674 0.0
H3789 H 0.30803 0.89318 0.18104 0.0
H3790 H 0.29047 0.87128 0.19875 0.0
H3791 H 0.29349 0.8816 0.21449 0.0
H3792 H 0.31613 0.8929 0.26596 0.0
H3793 H 0.3164 0.89842 0.24774 0.0
H3794 H 0.32875 0.92254 0.27486 0.0
H3795 H 0.32854 0.92801 0.2569 0.0
H3796 H 0.36103 0.93485 0.20829 0.0
H3797 H 0.34351 0.94296 0.18134 0.0
H3798 H 0.32883 0.93416 0.18873 0.0
H3799 H 0.34623 0.92614 0.21581 0.0
C3800 C 0.1793 0.12301 0.68582 0.0
C3801 C 0.17529 0.12199 0.6758 0.0
C3802 C 0.19218 0.12347 0.66822 0.0
C3803 C 0.18164 0.12226 0.66711 0.0
C3804 C 0.19609 0.12484 0.67827 0.0
C3805 C 0.18972 0.1246 0.68696 0.0
U3806 U 0.15396 0.1168 0.69881 0.0
O3807 O 0.15059 0.1066 0.71203 0.0
O3808 O 0.14663 0.12316 0.71284 0.0
C3809 C 0.14647 0.11409 0.71749 0.0
C3810 C 0.1729 0.12179 0.69515 0.0
C3811 C 0.1476 0.11367 0.72887 0.0
C3812 C 0.15722 0.11457 0.74497 0.0
C3813 C 0.15665 0.11582 0.73412 0.0
C3814 C 0.13972 0.10922 0.74527 0.0
C3815 C 0.14878 0.11104 0.75064 0.0
C3816 C 0.13917 0.1105 0.73456 0.0
C3817 C 0.13263 0.11007 0.67848 0.0
C3818 C 0.11562 0.10303 0.68005 0.0
C3819 C 0.12351 0.10459 0.66321 0.0
C3820 C 0.13201 0.10891 0.66776 0.0
C3821 C 0.11512 0.10151 0.66921 0.0
C3822 C 0.12437 0.10721 0.68467 0.0
C3823 C 0.14244 0.11347 0.6826 0.0
O3824 O 0.16571 0.1287 0.69647 0.0
O3825 O 0.16987 0.11229 0.69704 0.0
O3826 O 0.14816 0.10631 0.68681 0.0
O3827 O 0.14301 0.12252 0.68724 0.0
H3828 H 0.16726 0.12077 0.67472 0.0
H3829 H 0.17828 0.1214 0.6595 0.0
H3830 H 0.20413 0.1257 0.67949 0.0
H3831 H 0.19298 0.12539 0.69462 0.0
H3832 H 0.16431 0.11607 0.74887 0.0
H3833 H 0.16327 0.11829 0.72986 0.0
H3834 H 0.13299 0.10677 0.74936 0.0
H3835 H 0.13209 0.10885 0.73068 0.0
H3836 H 0.10938 0.10087 0.685 0.0
H3837 H 0.1239 0.10323 0.65495 0.0
H3838 H 0.13836 0.11095 0.66287 0.0
H3839 H 0.12474 0.10802 0.69302 0.0
C3840 C 0.11784 0.26691 0.37707 0.0
C3841 C 0.12602 0.27375 0.37541 0.0
C3842 C 0.13567 0.26945 0.3737 0.0
C3843 C 0.12908 0.25206 0.37624 0.0
C3844 C 0.11953 0.25616 0.37746 0.0
C3845 C 0.1118 0.24789 0.37981 0.0
H3846 H 0.10285 0.19683 0.39032 0.0
C3847 C 0.12843 0.24071 0.37773 0.0
C3848 C 0.11825 0.23815 0.37969 0.0
H3849 H 0.08128 0.2217 0.39261 0.0
H3850 H 0.09367 0.23382 0.38547 0.0
H3851 H 0.11322 0.2044 0.36806 0.0
H3852 H 0.11854 0.20661 0.40058 0.0
H3853 H 0.13069 0.20754 0.39553 0.0
H3854 H 0.12339 0.19597 0.39319 0.0
H3855 H 0.11775 0.19396 0.37598 0.0
H3856 H 0.12629 0.2028 0.36955 0.0
C3857 C 0.10389 0.24779 0.37105 0.0
C3858 C 0.10735 0.25009 0.39066 0.0
C3859 C 0.16038 0.21881 0.38117 0.0
C3860 C 0.16174 0.20814 0.38319 0.0
C3861 C 0.15333 0.20151 0.38265 0.0
C3862 C 0.14369 0.20542 0.38096 0.0
C3863 C 0.14231 0.21614 0.37985 0.0
C3864 C 0.15057 0.22262 0.37947 0.0
C3865 C 0.14744 0.23373 0.37759 0.0
C3866 C 0.13597 0.23285 0.37792 0.0
C3867 C 0.13312 0.22251 0.3793 0.0
C3868 C 0.15122 0.23689 0.36669 0.0
C3869 C 0.15165 0.24044 0.38654 0.0
C3870 C 0.10073 0.20486 0.38911 0.0
C3871 C 0.09116 0.20834 0.392 0.0
C3872 C 0.08867 0.21886 0.39041 0.0
C3873 C 0.09591 0.22588 0.38643 0.0
C3874 C 0.10577 0.22234 0.38426 0.0
C3875 C 0.10786 0.21191 0.38545 0.0
C3876 C 0.11865 0.20932 0.3835 0.0
C3877 C 0.12292 0.2199 0.38114 0.0
C3878 C 0.11543 0.22761 0.38142 0.0
C3879 C 0.11908 0.20218 0.37383 0.0
C3880 C 0.1231 0.20456 0.39363 0.0
H3881 H 0.14477 0.25598 0.37288 0.0
H3882 H 0.11027 0.26985 0.3782 0.0
H3883 H 0.11338 0.25257 0.39612 0.0
H3884 H 0.10391 0.24321 0.39425 0.0
H3885 H 0.10163 0.25638 0.39029 0.0
H3886 H 0.10766 0.24774 0.36334 0.0
H3887 H 0.099 0.25478 0.37146 0.0
H3888 H 0.09904 0.24084 0.37128 0.0
H3889 H 0.16673 0.2241 0.3813 0.0
H3890 H 0.15418 0.19322 0.3837 0.0
H3891 H 0.13765 0.19992 0.38093 0.0
H3892 H 0.15095 0.2302 0.36125 0.0
H3893 H 0.15915 0.23967 0.36699 0.0
H3894 H 0.14644 0.24286 0.36303 0.0
H3895 H 0.15053 0.23648 0.39411 0.0
H3896 H 0.14783 0.24798 0.38733 0.0
H3897 H 0.15986 0.24184 0.38554 0.0
H3898 H 0.14215 0.27441 0.37248 0.0
C3899 C 0.13722 0.25869 0.37404 0.0
C3900 C 0.04244 0.92466 0.61858 0.0
C3901 C 0.05098 0.92902 0.62347 0.0
C3902 C 0.06057 0.92487 0.62138 0.0
C3903 C 0.05316 0.9116 0.61067 0.0
C3904 C 0.04373 0.91587 0.6122 0.0
C3905 C 0.03568 0.90977 0.60654 0.0
H3906 H 0.02324 0.86502 0.58176 0.0
C3907 C 0.05206 0.90212 0.60448 0.0
C3908 C 0.04187 0.90092 0.6019 0.0
H3909 H 0.0034 0.89024 0.59021 0.0
H3910 H 0.01772 0.90038 0.59585 0.0
H3911 H 0.04214 0.88022 0.57238 0.0
H3912 H 0.03558 0.86525 0.60153 0.0
H3913 H 0.0486 0.86422 0.59947 0.0
H3914 H 0.04003 0.85807 0.59051 0.0
H3915 H 0.04173 0.86638 0.57391 0.0
H3916 H 0.05301 0.87364 0.57675 0.0
C3917 C 0.03114 0.9168 0.59804 0.0
C3918 C 0.02794 0.90587 0.6146 0.0
C3919 C 0.08245 0.8789 0.60161 0.0
C3920 C 0.08384 0.86862 0.59838 0.0
C3921 C 0.07584 0.8635 0.5933 0.0
C3922 C 0.0665 0.86848 0.59181 0.0
C3923 C 0.0651 0.87859 0.59567 0.0
C3924 C 0.07309 0.88363 0.60029 0.0
C3925 C 0.07026 0.89399 0.60457 0.0
C3926 C 0.05918 0.89438 0.60191 0.0
C3927 C 0.05616 0.88543 0.59663 0.0
C3928 C 0.07629 0.90232 0.59851 0.0
C3929 C 0.07213 0.89378 0.61649 0.0
C3930 C 0.02199 0.87278 0.58472 0.0
C3931 C 0.01219 0.8768 0.58563 0.0
C3932 C 0.01089 0.88698 0.58938 0.0
C3933 C 0.0192 0.89281 0.59279 0.0
C3934 C 0.02887 0.88838 0.59249 0.0
C3935 C 0.03016 0.87865 0.58819 0.0
C3936 C 0.04091 0.87506 0.58859 0.0
C3937 C 0.04589 0.88419 0.59384 0.0
C3938 C 0.0388 0.89197 0.59626 0.0
C3939 C 0.0447 0.87366 0.57734 0.0
C3940 C 0.04139 0.8651 0.59529 0.0
H3941 H 0.06924 0.91352 0.61391 0.0
H3942 H 0.03498 0.92785 0.6199 0.0
H3943 H 0.03188 0.90255 0.62145 0.0
H3944 H 0.02305 0.89964 0.61164 0.0
H3945 H 0.02308 0.91233 0.61734 0.0
H3946 H 0.03708 0.92172 0.59445 0.0
H3947 H 0.02529 0.92203 0.60132 0.0
H3948 H 0.02787 0.91236 0.59154 0.0
H3949 H 0.0883 0.88301 0.6058 0.0
H3950 H 0.07675 0.85558 0.59068 0.0
H3951 H 0.06065 0.86415 0.58802 0.0
H3952 H 0.07742 0.89996 0.59029 0.0
H3953 H 0.08386 0.90355 0.60199 0.0
H3954 H 0.07229 0.90983 0.59802 0.0
H3955 H 0.072 0.88575 0.61962 0.0
H3956 H 0.06619 0.8978 0.62097 0.0
H3957 H 0.07958 0.89718 0.61849 0.0
H3958 H 0.06728 0.92829 0.62475 0.0
C3959 C 0.0617 0.91629 0.615 0.0
C3960 C 0.42221 0.81311 0.87177 0.0
C3961 C 0.42128 0.82168 0.8785 0.0
C3962 C 0.4122 0.82726 0.87878 0.0
C3963 C 0.40448 0.81479 0.86734 0.0
C3964 C 0.41366 0.8099 0.86608 0.0
C3965 C 0.4128 0.80096 0.85853 0.0
H3966 H 0.3837 0.76275 0.83924 0.0
C3967 C 0.39666 0.80853 0.86222 0.0
C3968 C 0.40138 0.80047 0.85687 0.0
H3969 H 0.41533 0.76879 0.83328 0.0
H3970 H 0.41399 0.78522 0.84183 0.0
H3971 H 0.38157 0.7716 0.8615 0.0
H3972 H 0.37747 0.78944 0.83333 0.0
H3973 H 0.36717 0.79088 0.84197 0.0
H3974 H 0.36974 0.77839 0.83635 0.0
H3975 H 0.37104 0.76932 0.85301 0.0
H3976 H 0.37084 0.77957 0.86248 0.0
C3977 C 0.41694 0.79107 0.86377 0.0
C3978 C 0.41843 0.80398 0.84843 0.0
C3979 C 0.361 0.81506 0.87388 0.0
C3980 C 0.35189 0.80962 0.87306 0.0
C3981 C 0.35162 0.80071 0.86664 0.0
C3982 C 0.36038 0.79716 0.8615 0.0
C3983 C 0.36956 0.80248 0.86288 0.0
C3984 C 0.36961 0.81135 0.86889 0.0
C3985 C 0.37983 0.81609 0.86982 0.0
C3986 C 0.38607 0.80853 0.86357 0.0
C3987 C 0.38011 0.80056 0.85937 0.0
C3988 C 0.38276 0.81625 0.88153 0.0
C3989 C 0.3795 0.82687 0.8645 0.0
C3990 C 0.39032 0.76765 0.83962 0.0
C3991 C 0.39981 0.76401 0.83611 0.0
C3992 C 0.40808 0.77094 0.83648 0.0
C3993 C 0.40732 0.78057 0.84139 0.0
C3994 C 0.39814 0.78356 0.8458 0.0
C3995 C 0.38964 0.77756 0.84426 0.0
C3996 C 0.38035 0.78275 0.84869 0.0
C3997 C 0.38485 0.79249 0.85356 0.0
C3998 C 0.39536 0.79273 0.85199 0.0
C3999 C 0.37561 0.77546 0.85682 0.0
C4000 C 0.37323 0.78549 0.83964 0.0
H4001 H 0.39703 0.82829 0.87412 0.0
H4002 H 0.42923 0.80886 0.87129 0.0
H4003 H 0.41954 0.81251 0.8478 0.0
H4004 H 0.41408 0.80187 0.8414 0.0
H4005 H 0.426 0.80032 0.84806 0.0
H4006 H 0.41321 0.78984 0.87139 0.0
H4007 H 0.4252 0.79173 0.86509 0.0
H4008 H 0.41567 0.78401 0.85915 0.0
H4009 H 0.36151 0.82211 0.8784 0.0
H4010 H 0.34469 0.79637 0.86573 0.0
H4011 H 0.35973 0.79034 0.85677 0.0
H4012 H 0.37795 0.81099 0.88625 0.0
H4013 H 0.38197 0.82413 0.88488 0.0
H4014 H 0.39049 0.81339 0.88298 0.0
H4015 H 0.37437 0.8268 0.85767 0.0
H4016 H 0.38691 0.82924 0.86132 0.0
H4017 H 0.37673 0.83292 0.86992 0.0
H4018 H 0.41143 0.83395 0.88382 0.0
C4019 C 0.40383 0.82391 0.87321 0.0
C4020 C 0.49962 0.13676 0.11658 0.0
C4021 C 0.50516 0.14603 0.11797 0.0
C4022 C 0.50193 0.15308 0.12563 0.0
C4023 C 0.48755 0.14228 0.12974 0.0
C4024 C 0.49081 0.13506 0.12256 0.0
C4025 C 0.48373 0.12584 0.12212 0.0
H4026 H 0.44021 0.10351 0.14027 0.0
C4027 C 0.47806 0.13856 0.13447 0.0
C4028 C 0.47577 0.12879 0.13017 0.0
H4029 H 0.45993 0.0908 0.11683 0.0
H4030 H 0.47117 0.10561 0.11873 0.0
H4031 H 0.45751 0.111 0.15555 0.0
H4032 H 0.43963 0.125 0.13177 0.0
H4033 H 0.4416 0.13507 0.14058 0.0
H4034 H 0.43501 0.12355 0.14474 0.0
H4035 H 0.44444 0.11426 0.15714 0.0
H4036 H 0.45435 0.12335 0.16027 0.0
C4037 C 0.48965 0.11607 0.12532 0.0
C4038 C 0.47923 0.12521 0.11111 0.0
C4039 C 0.45734 0.16273 0.15749 0.0
C4040 C 0.44777 0.16159 0.16221 0.0
C4041 C 0.44338 0.15165 0.16248 0.0
C4042 C 0.44798 0.14324 0.15756 0.0
C4043 C 0.45706 0.1447 0.15213 0.0
C4044 C 0.46183 0.15418 0.15252 0.0
C4045 C 0.47162 0.15406 0.14655 0.0
C4046 C 0.4714 0.14326 0.14176 0.0
C4047 C 0.46285 0.13789 0.1451 0.0
C4048 C 0.48037 0.15517 0.15443 0.0
C4049 C 0.47116 0.16272 0.13825 0.0
C4050 C 0.44685 0.10389 0.13539 0.0
C4051 C 0.44901 0.09598 0.12828 0.0
C4052 C 0.458 0.09678 0.12238 0.0
C4053 C 0.46451 0.10541 0.12346 0.0
C4054 C 0.46205 0.11335 0.13054 0.0
C4055 C 0.45333 0.11236 0.13633 0.0
C4056 C 0.45154 0.12135 0.14335 0.0
C4057 C 0.46056 0.12804 0.14091 0.0
C4058 C 0.46687 0.12342 0.13344 0.0
C4059 C 0.45189 0.11735 0.15469 0.0
C4060 C 0.44142 0.12652 0.14007 0.0
H4061 H 0.49127 0.15702 0.13711 0.0
H4062 H 0.50194 0.13112 0.11083 0.0
H4063 H 0.47663 0.13299 0.10852 0.0
H4064 H 0.47257 0.12012 0.11069 0.0
H4065 H 0.48495 0.12239 0.10548 0.0
H4066 H 0.49407 0.11758 0.1325 0.0
H4067 H 0.49501 0.11373 0.11913 0.0
H4068 H 0.48468 0.10946 0.12708 0.0
H4069 H 0.46111 0.17017 0.15738 0.0
H4070 H 0.43606 0.15043 0.166 0.0
H4071 H 0.44403 0.13601 0.15783 0.0
H4072 H 0.47838 0.1516 0.16202 0.0
H4073 H 0.48219 0.16345 0.15588 0.0
H4074 H 0.48728 0.15104 0.15198 0.0
H4075 H 0.46352 0.16305 0.13467 0.0
H4076 H 0.47637 0.16149 0.13171 0.0
H4077 H 0.47273 0.17042 0.14175 0.0
H4078 H 0.50616 0.16012 0.12711 0.0
C4079 C 0.49326 0.15125 0.13151 0.0
C4080 C 0.11766 0.73795 0.12789 0.0
C4081 C 0.12578 0.73109 0.12971 0.0
C4082 C 0.1354 0.73533 0.13171 0.0
C4083 C 0.12893 0.75274 0.12906 0.0
C4084 C 0.11939 0.74869 0.12764 0.0
C4085 C 0.11171 0.75701 0.1253 0.0
H4086 H 0.10301 0.80811 0.11498 0.0
C4087 C 0.12834 0.7641 0.12762 0.0
C4088 C 0.11819 0.76671 0.12557 0.0
H4089 H 0.08133 0.78336 0.11261 0.0
H4090 H 0.09366 0.77116 0.11971 0.0
H4091 H 0.11325 0.80047 0.13724 0.0
H4092 H 0.11867 0.79834 0.10476 0.0
H4093 H 0.1308 0.7972 0.10981 0.0
H4094 H 0.12366 0.80887 0.1122 0.0
H4095 H 0.11788 0.81089 0.12935 0.0
H4096 H 0.12634 0.80199 0.13582 0.0
C4097 C 0.10373 0.75705 0.13401 0.0
C4098 C 0.10732 0.75492 0.1144 0.0
C4099 C 0.1604 0.78582 0.12412 0.0
C4100 C 0.16179 0.79648 0.12208 0.0
C4101 C 0.15342 0.80316 0.12267 0.0
C4102 C 0.14377 0.79929 0.12442 0.0
C4103 C 0.14235 0.78859 0.12552 0.0
C4104 C 0.15057 0.78205 0.12587 0.0
C4105 C 0.1474 0.77098 0.1278 0.0
C4106 C 0.13592 0.77191 0.12747 0.0
C4107 C 0.13313 0.78227 0.12609 0.0
C4108 C 0.15117 0.76784 0.13871 0.0
C4109 C 0.15156 0.76419 0.11889 0.0
C4110 C 0.10084 0.80009 0.11617 0.0
C4111 C 0.09127 0.79667 0.11326 0.0
C4112 C 0.08872 0.78616 0.11482 0.0
C4113 C 0.09593 0.7791 0.11879 0.0
C4114 C 0.1058 0.78258 0.12098 0.0
C4115 C 0.10794 0.79301 0.11983 0.0
C4116 C 0.11874 0.79554 0.12183 0.0
C4117 C 0.12294 0.78493 0.1242 0.0
C4118 C 0.11543 0.77727 0.12385 0.0
C4119 C 0.11916 0.80266 0.1315 0.0
C4120 C 0.12325 0.80028 0.11172 0.0
H4121 H 0.14452 0.74877 0.13281 0.0
H4122 H 0.11012 0.73501 0.12652 0.0
H4123 H 0.11338 0.75246 0.10896 0.0
H4124 H 0.10394 0.76186 0.11084 0.0
H4125 H 0.10156 0.74867 0.11466 0.0
H4126 H 0.10745 0.75695 0.14174 0.0
H4127 H 0.09879 0.75011 0.13346 0.0
H4128 H 0.09894 0.76404 0.13385 0.0
H4129 H 0.16673 0.7805 0.12397 0.0
H4130 H 0.1543 0.81144 0.12163 0.0
H4131 H 0.13776 0.80482 0.12449 0.0
H4132 H 0.15105 0.77458 0.1441 0.0
H4133 H 0.15903 0.76489 0.1384 0.0
H4134 H 0.14627 0.76201 0.14245 0.0
H4135 H 0.15027 0.76803 0.11128 0.0
H4136 H 0.14788 0.75657 0.11829 0.0
H4137 H 0.15981 0.76294 0.11978 0.0
H4138 H 0.14181 0.73032 0.1331 0.0
C4139 C 0.13699 0.74608 0.13145 0.0
C4140 C 0.49965 0.86829 0.38887 0.0
C4141 C 0.50511 0.85898 0.3874 0.0
C4142 C 0.50183 0.85201 0.37968 0.0
C4143 C 0.4876 0.86302 0.3756 0.0
C4144 C 0.49088 0.87013 0.38288 0.0
C4145 C 0.48388 0.87941 0.3834 0.0
H4146 H 0.44047 0.90206 0.36531 0.0
C4147 C 0.4782 0.8669 0.37084 0.0
C4148 C 0.47596 0.87664 0.37526 0.0
H4149 H 0.46002 0.91455 0.38899 0.0
H4150 H 0.47134 0.89978 0.38696 0.0
H4151 H 0.45758 0.89546 0.35019 0.0
H4152 H 0.43996 0.88036 0.37339 0.0
H4153 H 0.44193 0.8706 0.36424 0.0
H4154 H 0.43536 0.88226 0.36047 0.0
H4155 H 0.4448 0.89138 0.3481 0.0
H4156 H 0.45539 0.88306 0.34511 0.0
C4157 C 0.48988 0.88917 0.38034 0.0
C4158 C 0.47932 0.87995 0.39438 0.0
C4159 C 0.45745 0.84354 0.34699 0.0
C4160 C 0.44804 0.84509 0.34204 0.0
C4161 C 0.44391 0.85513 0.34186 0.0
C4162 C 0.44858 0.86328 0.34707 0.0
C4163 C 0.45747 0.86144 0.35268 0.0
C4164 C 0.46204 0.85187 0.35221 0.0
C4165 C 0.47173 0.85168 0.3584 0.0
C4166 C 0.47162 0.86241 0.36336 0.0
C4167 C 0.46321 0.86797 0.35997 0.0
C4168 C 0.48061 0.85048 0.35068 0.0
C4169 C 0.47093 0.84291 0.36655 0.0
C4170 C 0.44706 0.90163 0.37025 0.0
C4171 C 0.44916 0.90944 0.37746 0.0
C4172 C 0.45813 0.90862 0.38338 0.0
C4173 C 0.46469 0.90001 0.38223 0.0
C4174 C 0.46227 0.89215 0.37506 0.0
C4175 C 0.45358 0.89321 0.36923 0.0
C4176 C 0.45189 0.88441 0.36198 0.0
C4177 C 0.46091 0.87772 0.36435 0.0
C4178 C 0.46713 0.88214 0.37199 0.0
C4179 C 0.45235 0.88873 0.35074 0.0
C4180 C 0.44177 0.87912 0.36505 0.0
H4181 H 0.49116 0.84828 0.36814 0.0
H4182 H 0.50201 0.87385 0.39467 0.0
H4183 H 0.4766 0.87218 0.39684 0.0
H4184 H 0.47275 0.88515 0.39483 0.0
H4185 H 0.48506 0.8826 0.40008 0.0
H4186 H 0.49425 0.88775 0.37312 0.0
H4187 H 0.49529 0.89134 0.38656 0.0
H4188 H 0.48495 0.89587 0.37875 0.0
H4189 H 0.46096 0.83597 0.34708 0.0
H4190 H 0.43669 0.85663 0.33823 0.0
H4191 H 0.44475 0.87057 0.3469 0.0
H4192 H 0.47879 0.85405 0.34305 0.0
H4193 H 0.48239 0.84218 0.34928 0.0
H4194 H 0.4875 0.85456 0.35327 0.0
H4195 H 0.46326 0.84279 0.37007 0.0
H4196 H 0.47615 0.84385 0.37313 0.0
H4197 H 0.47228 0.83521 0.36294 0.0
H4198 H 0.50599 0.84494 0.37817 0.0
C4199 C 0.49321 0.85399 0.3738 0.0
C4200 C 0.42221 0.1919 0.63343 0.0
C4201 C 0.42129 0.18333 0.6267 0.0
C4202 C 0.41221 0.17775 0.62642 0.0
C4203 C 0.40448 0.19022 0.63786 0.0
C4204 C 0.41366 0.19511 0.63912 0.0
C4205 C 0.4128 0.20405 0.64667 0.0
H4206 H 0.38369 0.24227 0.66593 0.0
C4207 C 0.39666 0.19648 0.64298 0.0
C4208 C 0.40138 0.20455 0.64832 0.0
H4209 H 0.41532 0.23622 0.67192 0.0
H4210 H 0.41399 0.21979 0.66337 0.0
H4211 H 0.38157 0.23342 0.64368 0.0
H4212 H 0.37746 0.21558 0.67186 0.0
H4213 H 0.36717 0.21414 0.66321 0.0
H4214 H 0.36973 0.22663 0.66883 0.0
H4215 H 0.37103 0.2357 0.65217 0.0
H4216 H 0.37084 0.22545 0.6427 0.0
C4217 C 0.41695 0.21394 0.64143 0.0
C4218 C 0.41842 0.20103 0.65677 0.0
C4219 C 0.36101 0.18996 0.63131 0.0
C4220 C 0.3519 0.1954 0.63213 0.0
C4221 C 0.35162 0.2043 0.63855 0.0
C4222 C 0.36038 0.20786 0.64368 0.0
C4223 C 0.36956 0.20254 0.64231 0.0
C4224 C 0.36962 0.19367 0.6363 0.0
C4225 C 0.37984 0.18893 0.63538 0.0
C4226 C 0.38607 0.19648 0.64162 0.0
C4227 C 0.38011 0.20446 0.64582 0.0
C4228 C 0.38277 0.18876 0.62367 0.0
C4229 C 0.37951 0.17815 0.64069 0.0
C4230 C 0.39031 0.23737 0.66557 0.0
C4231 C 0.3998 0.241 0.66908 0.0
C4232 C 0.40807 0.23407 0.66871 0.0
C4233 C 0.40731 0.22444 0.66381 0.0
C4234 C 0.39813 0.22145 0.65939 0.0
C4235 C 0.38964 0.22746 0.66093 0.0
C4236 C 0.38035 0.22226 0.6565 0.0
C4237 C 0.38485 0.21252 0.65163 0.0
C4238 C 0.39536 0.21228 0.65321 0.0
C4239 C 0.3756 0.22956 0.64836 0.0
C4240 C 0.37322 0.21953 0.66554 0.0
H4241 H 0.39704 0.17673 0.63107 0.0
H4242 H 0.42924 0.19615 0.63392 0.0
H4243 H 0.41952 0.1925 0.6574 0.0
H4244 H 0.41408 0.20314 0.6638 0.0
H4245 H 0.426 0.20468 0.65714 0.0
H4246 H 0.41322 0.21517 0.63381 0.0
H4247 H 0.4252 0.21328 0.64011 0.0
H4248 H 0.41567 0.221 0.64605 0.0
H4249 H 0.36152 0.1829 0.62678 0.0
H4250 H 0.34469 0.20865 0.63945 0.0
H4251 H 0.35973 0.21468 0.64841 0.0
H4252 H 0.37795 0.194 0.61894 0.0
H4253 H 0.38201 0.18087 0.62032 0.0
H4254 H 0.3905 0.19164 0.62221 0.0
H4255 H 0.37437 0.17822 0.64753 0.0
H4256 H 0.38691 0.17577 0.64387 0.0
H4257 H 0.37673 0.17209 0.63528 0.0
H4258 H 0.41144 0.17107 0.62138 0.0
C4259 C 0.40384 0.1811 0.63199 0.0
C4260 C 0.04244 0.08032 0.88663 0.0
C4261 C 0.05099 0.07596 0.88174 0.0
C4262 C 0.06058 0.08011 0.88383 0.0
C4263 C 0.05317 0.09337 0.89454 0.0
C4264 C 0.04374 0.0891 0.89301 0.0
C4265 C 0.03569 0.09521 0.89868 0.0
H4266 H 0.02326 0.13995 0.92347 0.0
C4267 C 0.05207 0.10285 0.90074 0.0
C4268 C 0.04189 0.10405 0.90332 0.0
H4269 H 0.00342 0.11474 0.91502 0.0
H4270 H 0.01773 0.1046 0.90937 0.0
H4271 H 0.04216 0.12475 0.93284 0.0
H4272 H 0.0356 0.13973 0.9037 0.0
H4273 H 0.04862 0.14075 0.90576 0.0
H4274 H 0.04005 0.14691 0.91471 0.0
H4275 H 0.04175 0.13859 0.93132 0.0
H4276 H 0.05303 0.13133 0.92847 0.0
C4277 C 0.03115 0.08818 0.90718 0.0
C4278 C 0.02795 0.09911 0.89062 0.0
C4279 C 0.08246 0.12605 0.90362 0.0
C4280 C 0.08386 0.13632 0.90686 0.0
C4281 C 0.07587 0.14146 0.91194 0.0
C4282 C 0.06652 0.13649 0.91342 0.0
C4283 C 0.06511 0.12638 0.90956 0.0
C4284 C 0.07311 0.12133 0.90493 0.0
C4285 C 0.07028 0.11097 0.90065 0.0
C4286 C 0.05919 0.11059 0.90331 0.0
C4287 C 0.05617 0.11954 0.90859 0.0
C4288 C 0.0763 0.10263 0.90671 0.0
C4289 C 0.07215 0.11119 0.88873 0.0
C4290 C 0.022 0.1322 0.92051 0.0
C4291 C 0.0122 0.12818 0.9196 0.0
C4292 C 0.01091 0.118 0.91585 0.0
C4293 C 0.01921 0.11218 0.91244 0.0
C4294 C 0.02889 0.1166 0.91273 0.0
C4295 C 0.03018 0.12633 0.91703 0.0
C4296 C 0.04093 0.12992 0.91664 0.0
C4297 C 0.04591 0.12078 0.91138 0.0
C4298 C 0.03881 0.11301 0.90896 0.0
C4299 C 0.04472 0.13131 0.92789 0.0
C4300 C 0.04141 0.13988 0.90994 0.0
H4301 H 0.06924 0.09145 0.8913 0.0
H4302 H 0.03499 0.07714 0.88532 0.0
H4303 H 0.03189 0.10243 0.88377 0.0
H4304 H 0.02305 0.10534 0.89358 0.0
H4305 H 0.02309 0.09266 0.88788 0.0
H4306 H 0.03709 0.08326 0.91076 0.0
H4307 H 0.0253 0.08295 0.90389 0.0
H4308 H 0.02788 0.09262 0.91368 0.0
H4309 H 0.08831 0.12194 0.89944 0.0
H4310 H 0.07677 0.14938 0.91455 0.0
H4311 H 0.06067 0.14082 0.9172 0.0
H4312 H 0.07744 0.10499 0.91493 0.0
H4313 H 0.08387 0.1014 0.90323 0.0
H4314 H 0.0723 0.09512 0.90719 0.0
H4315 H 0.07201 0.11922 0.8856 0.0
H4316 H 0.0662 0.10717 0.88425 0.0
H4317 H 0.07959 0.10778 0.88673 0.0
H4318 H 0.06729 0.07669 0.88046 0.0
C4319 C 0.06171 0.08869 0.89021 0.0
C4320 C 0.35136 0.09119 0.16432 0.0
C4321 C 0.35624 0.09453 0.15514 0.0
C4322 C 0.35377 0.10444 0.1512 0.0
C4323 C 0.34555 0.10871 0.16723 0.0
C4324 C 0.34571 0.09845 0.1701 0.0
C4325 C 0.33974 0.09687 0.17997 0.0
H4326 H 0.32738 0.11733 0.22648 0.0
C4327 C 0.34196 0.11489 0.176 0.0
C4328 C 0.33818 0.10807 0.1835 0.0
H4329 H 0.32068 0.08647 0.21521 0.0
H4330 H 0.32641 0.0913 0.19819 0.0
H4331 H 0.34664 0.12019 0.21752 0.0
H4332 H 0.31859 0.12968 0.2037 0.0
H4333 H 0.3274 0.14 0.20339 0.0
H4334 H 0.32359 0.13464 0.21567 0.0
H4335 H 0.34114 0.13253 0.22045 0.0
H4336 H 0.34963 0.13076 0.20965 0.0
C4337 C 0.3461 0.09043 0.18766 0.0
C4338 C 0.3296 0.09176 0.17695 0.0
C4339 C 0.35796 0.15009 0.17962 0.0
C4340 C 0.35939 0.15667 0.18814 0.0
C4341 C 0.35343 0.15518 0.19707 0.0
C4342 C 0.34681 0.14668 0.19777 0.0
C4343 C 0.34637 0.1395 0.18956 0.0
C4344 C 0.35166 0.14149 0.18056 0.0
C4345 C 0.35073 0.13296 0.17274 0.0
C4346 C 0.34426 0.12527 0.17867 0.0
C4347 C 0.34179 0.12908 0.18854 0.0
C4348 C 0.36153 0.12881 0.1706 0.0
C4349 C 0.3453 0.13724 0.16299 0.0
C4350 C 0.32683 0.11164 0.22034 0.0
C4351 C 0.32384 0.10137 0.22241 0.0
C4352 C 0.32332 0.09432 0.21403 0.0
C4353 C 0.32659 0.09713 0.20409 0.0
C4354 C 0.33036 0.10713 0.20241 0.0
C4355 C 0.32995 0.11436 0.2103 0.0
C4356 C 0.33411 0.12468 0.20701 0.0
C4357 C 0.33707 0.12244 0.19587 0.0
C4358 C 0.33503 0.11206 0.19327 0.0
C4359 C 0.34331 0.12728 0.214 0.0
C4360 C 0.32551 0.13275 0.2075 0.0
H4361 H 0.34735 0.11921 0.15422 0.0
H4362 H 0.35245 0.08342 0.16727 0.0
H4363 H 0.32689 0.09467 0.16932 0.0
H4364 H 0.32345 0.09364 0.1824 0.0
H4365 H 0.3304 0.08321 0.17634 0.0
H4366 H 0.35378 0.09381 0.18844 0.0
H4367 H 0.34689 0.08231 0.18491 0.0
H4368 H 0.34286 0.09016 0.1955 0.0
H4369 H 0.36207 0.15134 0.17248 0.0
H4370 H 0.35423 0.16026 0.2037 0.0
H4371 H 0.34263 0.14575 0.20483 0.0
H4372 H 0.36521 0.1264 0.17796 0.0
H4373 H 0.3663 0.13485 0.16692 0.0
H4374 H 0.36179 0.12213 0.16535 0.0
H4375 H 0.34191 0.14502 0.16435 0.0
H4376 H 0.33888 0.13224 0.16063 0.0
H4377 H 0.35059 0.13802 0.15636 0.0
H4378 H 0.35655 0.10698 0.14373 0.0
C4379 C 0.34846 0.11156 0.15724 0.0
C4380 C 0.13942 0.08956 0.4864 0.0
C4381 C 0.14885 0.08639 0.49042 0.0
C4382 C 0.15758 0.08805 0.4844 0.0
C4383 C 0.14768 0.09687 0.47131 0.0
C4384 C 0.13901 0.09471 0.47682 0.0
C4385 C 0.12972 0.09898 0.47155 0.0
H4386 H 0.11076 0.12824 0.43192 0.0
C4387 C 0.14486 0.103 0.46211 0.0
C4388 C 0.13428 0.10416 0.46205 0.0
H4389 H 0.09374 0.11492 0.45718 0.0
H4390 H 0.10896 0.10664 0.46369 0.0
H4391 H 0.12725 0.13644 0.44415 0.0
H4392 H 0.12426 0.10809 0.4275 0.0
H4393 H 0.13681 0.11191 0.42546 0.0
H4394 H 0.12665 0.12038 0.42148 0.0
H4395 H 0.13034 0.13559 0.43066 0.0
H4396 H 0.13968 0.13372 0.44066 0.0
C4397 C 0.12469 0.10687 0.47892 0.0
C4398 C 0.12284 0.08982 0.46854 0.0
C4399 C 0.1718 0.12225 0.44152 0.0
C4400 C 0.17095 0.12892 0.43294 0.0
C4401 C 0.16185 0.12935 0.42738 0.0
C4402 C 0.15339 0.12396 0.43081 0.0
C4403 C 0.154 0.11811 0.43994 0.0
C4404 C 0.16319 0.11674 0.44479 0.0
C4405 C 0.16226 0.10952 0.45395 0.0
C4406 C 0.15086 0.10795 0.45444 0.0
C4407 C 0.14614 0.11314 0.44627 0.0
C4408 C 0.16639 0.11514 0.46366 0.0
C4409 C 0.16782 0.0993 0.45126 0.0
C4410 C 0.11023 0.12371 0.43896 0.0
C4411 C 0.10098 0.12249 0.44411 0.0
C4412 C 0.10074 0.1161 0.45303 0.0
C4413 C 0.10962 0.11135 0.45687 0.0
C4414 C 0.11888 0.11304 0.45178 0.0
C4415 C 0.11894 0.11905 0.44291 0.0
C4416 C 0.12924 0.12029 0.43841 0.0
C4417 C 0.13551 0.11425 0.44609 0.0
C4418 C 0.12951 0.10988 0.45393 0.0
C4419 C 0.13182 0.13206 0.43837 0.0
C4420 C 0.1293 0.11499 0.42761 0.0
H4421 H 0.16396 0.09434 0.47075 0.0
H4422 H 0.13255 0.08841 0.49079 0.0
H4423 H 0.12729 0.08365 0.46462 0.0
H4424 H 0.11685 0.09209 0.46304 0.0
H4425 H 0.11926 0.08638 0.47552 0.0
H4426 H 0.13049 0.1118 0.48275 0.0
H4427 H 0.12035 0.10285 0.48509 0.0
H4428 H 0.11964 0.11231 0.47488 0.0
H4429 H 0.17881 0.12172 0.4458 0.0
H4430 H 0.16113 0.13439 0.4207 0.0
H4431 H 0.14657 0.12504 0.4265 0.0
H4432 H 0.16327 0.12313 0.46414 0.0
H4433 H 0.17475 0.11572 0.46334 0.0
H4434 H 0.16434 0.11134 0.471 0.0
H4435 H 0.16825 0.09804 0.44273 0.0
H4436 H 0.16382 0.09238 0.45423 0.0
H4437 H 0.17567 0.09933 0.45429 0.0
H4438 H 0.16488 0.08544 0.48713 0.0
C4439 C 0.15703 0.09319 0.47487 0.0
C4440 C 0.15026 0.87754 0.67992 0.0
C4441 C 0.14664 0.87784 0.66958 0.0
C4442 C 0.14251 0.88726 0.66595 0.0
C4443 C 0.14403 0.89493 0.68298 0.0
C4444 C 0.14875 0.8861 0.68649 0.0
C4445 C 0.15088 0.88667 0.69799 0.0
H4446 H 0.14056 0.91019 0.74399 0.0
C4447 C 0.14206 0.90174 0.69195 0.0
C4448 C 0.14602 0.89699 0.70085 0.0
H4449 H 0.15798 0.88229 0.73919 0.0
H4450 H 0.15683 0.88467 0.72058 0.0
H4451 H 0.15101 0.92384 0.7242 0.0
H4452 H 0.12413 0.90524 0.72784 0.0
H4453 H 0.12096 0.91617 0.7205 0.0
H4454 H 0.12523 0.91784 0.73366 0.0
H4455 H 0.14095 0.92731 0.73289 0.0
H4456 H 0.14047 0.93065 0.71933 0.0
C4457 C 0.16243 0.88699 0.69948 0.0
C4458 C 0.14565 0.87737 0.7033 0.0
C4459 C 0.11844 0.93187 0.68645 0.0
C4460 C 0.11317 0.93839 0.69321 0.0
C4461 C 0.11575 0.9385 0.7038 0.0
C4462 C 0.12317 0.93167 0.70766 0.0
C4463 C 0.12786 0.92458 0.70087 0.0
C4464 C 0.12563 0.92503 0.69042 0.0
C4465 C 0.13072 0.91667 0.68432 0.0
C4466 C 0.13627 0.91092 0.69279 0.0
C4467 C 0.13465 0.91554 0.70249 0.0
C4468 C 0.13817 0.92193 0.67671 0.0
C4469 C 0.12239 0.90993 0.67912 0.0
C4470 C 0.14413 0.90455 0.73896 0.0
C4471 C 0.1492 0.89592 0.74312 0.0
C4472 C 0.15398 0.88898 0.73623 0.0
C4473 C 0.15321 0.89032 0.72541 0.0
C4474 C 0.14752 0.89863 0.72142 0.0
C4475 C 0.14336 0.90573 0.7282 0.0
C4476 C 0.1375 0.91406 0.72273 0.0
C4477 C 0.13875 0.91084 0.71152 0.0
C4478 C 0.14456 0.90171 0.71074 0.0
C4479 C 0.14267 0.92457 0.72491 0.0
C4480 C 0.12638 0.91342 0.72636 0.0
H4481 H 0.13794 0.90254 0.66923 0.0
H4482 H 0.15385 0.87068 0.68301 0.0
H4483 H 0.13802 0.87608 0.69994 0.0
H4484 H 0.14437 0.87853 0.71165 0.0
H4485 H 0.1501 0.87015 0.70221 0.0
H4486 H 0.16596 0.89237 0.6938 0.0
H4487 H 0.16579 0.87919 0.6983 0.0
H4488 H 0.16467 0.88992 0.70718 0.0
H4489 H 0.11649 0.93158 0.6783 0.0
H4490 H 0.1117 0.94347 0.70913 0.0
H4491 H 0.12467 0.93189 0.71584 0.0
H4492 H 0.14186 0.92875 0.68039 0.0
H4493 H 0.1342 0.9247 0.66965 0.0
H4494 H 0.14447 0.9168 0.67441 0.0
H4495 H 0.11504 0.91055 0.68326 0.0
H4496 H 0.12406 0.90154 0.67933 0.0
H4497 H 0.12107 0.91233 0.67096 0.0
H4498 H 0.13954 0.88799 0.65818 0.0
C4499 C 0.14138 0.89579 0.6725 0.0
C4500 C 0.41047 0.87385 0.96892 0.0
C4501 C 0.41179 0.87178 0.95825 0.0
C4502 C 0.40336 0.87227 0.95164 0.0
C4503 C 0.39238 0.87513 0.96629 0.0
C4504 C 0.40065 0.87555 0.97275 0.0
C4505 C 0.39755 0.87746 0.98386 0.0
H4506 H 0.36038 0.87701 0.02002 0.0
C4507 C 0.3832 0.87572 0.97268 0.0
C4508 C 0.38607 0.87714 0.98301 0.0
H4509 H 0.39229 0.88254 0.02459 0.0
H4510 H 0.39491 0.88217 0.00614 0.0
H4511 H 0.35796 0.89201 0.99809 0.0
H4512 H 0.36327 0.8591 1.0025 0.0
H4513 H 0.35363 0.86127 0.99336 0.0
H4514 H 0.3517 0.8651 0.00662 0.0
H4515 H 0.34913 0.88393 0.00493 0.0
H4516 H 0.34932 0.88429 0.99099 0.0
C4517 C 0.40135 0.88835 0.987 0.0
C4518 C 0.40176 0.86852 0.99058 0.0
C4519 C 0.35069 0.86628 0.95503 0.0
C4520 C 0.34099 0.86377 0.95845 0.0
C4521 C 0.33849 0.86552 0.96894 0.0
C4522 C 0.34584 0.86925 0.976 0.0
C4523 C 0.35579 0.87108 0.97251 0.0
C4524 C 0.35788 0.86977 0.9621 0.0
C4525 C 0.3687 0.87156 0.95951 0.0
C4526 C 0.37298 0.87395 0.97008 0.0
C4527 C 0.36549 0.8738 0.97778 0.0
C4528 C 0.36924 0.88117 0.9523 0.0
C4529 C 0.37303 0.86135 0.95484 0.0
C4530 C 0.36796 0.87809 0.01708 0.0
C4531 C 0.37615 0.87969 0.02392 0.0
C4532 C 0.38581 0.88136 0.01962 0.0
C4533 C 0.38735 0.88103 0.00886 0.0
C4534 C 0.3792 0.87887 1.00223 0.0
C4535 C 0.36965 0.87771 0.00633 0.0
C4536 C 0.36189 0.87549 0.99806 0.0
C4537 C 0.36833 0.87554 0.98832 0.0
C4538 C 0.37854 0.8774 0.99087 0.0
C4539 C 0.35409 0.88436 0.998 0.0
C4540 C 0.35729 0.8647 1.00021 0.0
H4541 H 0.38768 0.87391 0.95009 0.0
H4542 H 0.41682 0.87375 0.97418 0.0
H4543 H 0.40065 0.86095 0.98662 0.0
H4544 H 0.39794 0.86774 0.99812 0.0
H4545 H 0.40997 0.86954 0.99198 0.0
H4546 H 0.40098 0.8938 0.98032 0.0
H4547 H 0.4093 0.88806 0.98967 0.0
H4548 H 0.39663 0.892 0.99304 0.0
H4549 H 0.35282 0.865 0.94701 0.0
H4550 H 0.33101 0.86365 0.97174 0.0
H4551 H 0.3436 0.87032 0.98393 0.0
H4552 H 0.36337 0.88698 0.9544 0.0
H4553 H 0.368 0.87896 0.94408 0.0
H4554 H 0.37645 0.88544 0.95298 0.0
H4555 H 0.36845 0.85446 0.95704 0.0
H4556 H 0.38065 0.85944 0.95775 0.0
H4557 H 0.37323 0.86166 0.94624 0.0
H4558 H 0.40418 0.87118 0.94335 0.0
C4559 C 0.39373 0.87394 0.95558 0.0
C4560 C 0.35148 0.91367 0.34099 0.0
C4561 C 0.35639 0.91032 0.35015 0.0
C4562 C 0.35402 0.90035 0.35401 0.0
C4563 C 0.34591 0.8961 0.33793 0.0
C4564 C 0.34593 0.90638 0.33516 0.0
C4565 C 0.33994 0.90796 0.3253 0.0
H4566 H 0.32749 0.8876 0.27875 0.0
C4567 C 0.34238 0.88994 0.32913 0.0
C4568 C 0.33848 0.89677 0.3217 0.0
H4569 H 0.32075 0.91842 0.29012 0.0
H4570 H 0.32656 0.91356 0.30711 0.0
H4571 H 0.34675 0.88475 0.28751 0.0
H4572 H 0.31882 0.87526 0.30155 0.0
H4573 H 0.32762 0.86494 0.30191 0.0
H4574 H 0.32379 0.87022 0.28959 0.0
H4575 H 0.34125 0.87239 0.28464 0.0
H4576 H 0.34985 0.87419 0.29534 0.0
C4577 C 0.34623 0.91451 0.31765 0.0
C4578 C 0.32975 0.91295 0.32835 0.0
C4579 C 0.35861 0.85476 0.32515 0.0
C4580 C 0.35957 0.84795 0.31673 0.0
C4581 C 0.3535 0.8496 0.30788 0.0
C4582 C 0.34711 0.85826 0.30722 0.0
C4583 C 0.34692 0.86546 0.3154 0.0
C4584 C 0.35239 0.86347 0.32428 0.0
C4585 C 0.35138 0.8719 0.33221 0.0
C4586 C 0.34479 0.8796 0.32638 0.0
C4587 C 0.34226 0.87583 0.31652 0.0
C4588 C 0.36212 0.87615 0.33439 0.0
C4589 C 0.346 0.86747 0.34192 0.0
C4590 C 0.32695 0.89327 0.28491 0.0
C4591 C 0.32393 0.90354 0.28288 0.0
C4592 C 0.32342 0.91058 0.29127 0.0
C4593 C 0.32674 0.90774 0.30119 0.0
C4594 C 0.33055 0.89775 0.30283 0.0
C4595 C 0.33013 0.89055 0.29492 0.0
C4596 C 0.33434 0.88023 0.29816 0.0
C4597 C 0.3374 0.88245 0.30927 0.0
C4598 C 0.3353 0.8928 0.31193 0.0
C4599 C 0.34347 0.87765 0.29107 0.0
C4600 C 0.32573 0.87216 0.29774 0.0
H4601 H 0.34782 0.88551 0.35086 0.0
H4602 H 0.35248 0.92147 0.33809 0.0
H4603 H 0.32706 0.90998 0.33597 0.0
H4604 H 0.32361 0.91103 0.32289 0.0
H4605 H 0.33045 0.92151 0.329 0.0
H4606 H 0.35395 0.91122 0.31686 0.0
H4607 H 0.34691 0.92262 0.32042 0.0
H4608 H 0.34299 0.91476 0.3098 0.0
H4609 H 0.36279 0.85344 0.33224 0.0
H4610 H 0.35395 0.8444 0.3013 0.0
H4611 H 0.3428 0.85921 0.30025 0.0
H4612 H 0.36569 0.8789 0.32709 0.0
H4613 H 0.36702 0.87005 0.33779 0.0
H4614 H 0.3623 0.88262 0.33991 0.0
H4615 H 0.34264 0.8597 0.34046 0.0
H4616 H 0.33958 0.87241 0.34438 0.0
H4617 H 0.35133 0.86662 0.34852 0.0
H4618 H 0.3568 0.8978 0.36148 0.0
C4619 C 0.34884 0.8932 0.3479 0.0
C4620 C 0.41047 0.13114 0.53631 0.0
C4621 C 0.4118 0.13321 0.54698 0.0
C4622 C 0.40337 0.13273 0.55359 0.0
C4623 C 0.39239 0.12987 0.53893 0.0
C4624 C 0.40066 0.12944 0.53247 0.0
C4625 C 0.39756 0.12753 0.52136 0.0
H4626 H 0.3604 0.12797 0.4852 0.0
C4627 C 0.38321 0.12927 0.53254 0.0
C4628 C 0.38608 0.12785 0.52221 0.0
H4629 H 0.39231 0.12244 0.48063 0.0
H4630 H 0.39492 0.12282 0.49908 0.0
H4631 H 0.35798 0.11298 0.50712 0.0
H4632 H 0.36328 0.14589 0.50272 0.0
H4633 H 0.35364 0.14372 0.51185 0.0
H4634 H 0.35171 0.13989 0.49859 0.0
H4635 H 0.34914 0.12106 0.50029 0.0
H4636 H 0.34933 0.12069 0.51423 0.0
C4637 C 0.40136 0.11663 0.51823 0.0
C4638 C 0.40177 0.13646 0.51464 0.0
C4639 C 0.35069 0.13872 0.55018 0.0
C4640 C 0.34099 0.14122 0.54676 0.0
C4641 C 0.3385 0.13947 0.53627 0.0
C4642 C 0.34585 0.13574 0.52921 0.0
C4643 C 0.35579 0.13391 0.5327 0.0
C4644 C 0.35789 0.13523 0.54312 0.0
C4645 C 0.3687 0.13343 0.5457 0.0
C4646 C 0.37299 0.13104 0.53514 0.0
C4647 C 0.3655 0.13119 0.52744 0.0
C4648 C 0.36924 0.12383 0.55291 0.0
C4649 C 0.37303 0.14365 0.55037 0.0
C4650 C 0.36798 0.12689 0.48814 0.0
C4651 C 0.37617 0.1253 0.4813 0.0
C4652 C 0.38582 0.12362 0.4856 0.0
C4653 C 0.38736 0.12396 0.49636 0.0
C4654 C 0.37921 0.12611 0.50299 0.0
C4655 C 0.36966 0.12728 0.49889 0.0
C4656 C 0.3619 0.1295 0.50716 0.0
C4657 C 0.36834 0.12945 0.5169 0.0
C4658 C 0.37855 0.12759 0.51435 0.0
C4659 C 0.3541 0.12063 0.50722 0.0
C4660 C 0.3573 0.14029 0.505 0.0
H4661 H 0.38768 0.1311 0.55513 0.0
H4662 H 0.41683 0.13124 0.53104 0.0
H4663 H 0.40066 0.14404 0.5186 0.0
H4664 H 0.39796 0.13724 0.5071 0.0
H4665 H 0.40998 0.13545 0.51324 0.0
H4666 H 0.40098 0.11119 0.52491 0.0
H4667 H 0.40932 0.11692 0.51556 0.0
H4668 H 0.39664 0.11299 0.51218 0.0
H4669 H 0.35281 0.14 0.5582 0.0
H4670 H 0.33101 0.14134 0.53347 0.0
H4671 H 0.34361 0.13467 0.52128 0.0
H4672 H 0.36338 0.11802 0.55081 0.0
H4673 H 0.36799 0.12604 0.56114 0.0
H4674 H 0.37646 0.11957 0.55224 0.0
H4675 H 0.36845 0.15054 0.54818 0.0
H4676 H 0.38065 0.14556 0.54746 0.0
H4677 H 0.37323 0.14334 0.55897 0.0
H4678 H 0.40418 0.13382 0.56187 0.0
C4679 C 0.39373 0.13106 0.54965 0.0
C4680 C 0.15027 0.12742 0.82527 0.0
C4681 C 0.14666 0.12711 0.83561 0.0
C4682 C 0.14253 0.11769 0.83924 0.0
C4683 C 0.14404 0.11002 0.8222 0.0
C4684 C 0.14876 0.11886 0.81869 0.0
C4685 C 0.15089 0.11829 0.80719 0.0
H4686 H 0.14055 0.09479 0.76119 0.0
C4687 C 0.14207 0.10323 0.81322 0.0
C4688 C 0.14603 0.10797 0.80433 0.0
H4689 H 0.15797 0.12268 0.76599 0.0
H4690 H 0.15683 0.12029 0.7846 0.0
H4691 H 0.151 0.08113 0.78097 0.0
H4692 H 0.12412 0.09974 0.77734 0.0
H4693 H 0.12095 0.08881 0.78468 0.0
H4694 H 0.12522 0.08715 0.77152 0.0
H4695 H 0.14094 0.07767 0.77229 0.0
H4696 H 0.14046 0.07432 0.78584 0.0
C4697 C 0.16244 0.11797 0.80569 0.0
C4698 C 0.14565 0.12759 0.80188 0.0
C4699 C 0.11844 0.0731 0.81873 0.0
C4700 C 0.11316 0.06658 0.81197 0.0
C4701 C 0.11575 0.06648 0.80138 0.0
C4702 C 0.12316 0.0733 0.79752 0.0
C4703 C 0.12785 0.08039 0.80431 0.0
C4704 C 0.12562 0.07994 0.81476 0.0
C4705 C 0.13072 0.0883 0.82086 0.0
C4706 C 0.13627 0.09404 0.81239 0.0
C4707 C 0.13464 0.08943 0.80269 0.0
C4708 C 0.13817 0.08303 0.82847 0.0
C4709 C 0.12239 0.09504 0.82607 0.0
C4710 C 0.14411 0.10043 0.76622 0.0
C4711 C 0.14919 0.10906 0.76206 0.0
C4712 C 0.15397 0.116 0.76895 0.0
C4713 C 0.1532 0.11465 0.77977 0.0
C4714 C 0.14752 0.10634 0.78376 0.0
C4715 C 0.14335 0.09924 0.77698 0.0
C4716 C 0.13749 0.09091 0.78245 0.0
C4717 C 0.13874 0.09413 0.79366 0.0
C4718 C 0.14456 0.10325 0.79444 0.0
C4719 C 0.14266 0.0804 0.78026 0.0
C4720 C 0.12637 0.09156 0.77882 0.0
H4721 H 0.13795 0.10241 0.83595 0.0
H4722 H 0.15387 0.13427 0.82217 0.0
H4723 H 0.13803 0.12888 0.80525 0.0
H4724 H 0.14437 0.12644 0.79353 0.0
H4725 H 0.1501 0.13481 0.80297 0.0
H4726 H 0.16597 0.11259 0.81137 0.0
H4727 H 0.16579 0.12577 0.80687 0.0
H4728 H 0.16467 0.11504 0.79799 0.0
H4729 H 0.11649 0.07339 0.82689 0.0
H4730 H 0.11169 0.06151 0.79605 0.0
H4731 H 0.12466 0.07309 0.78934 0.0
H4732 H 0.14186 0.07621 0.82478 0.0
H4733 H 0.13421 0.08026 0.83553 0.0
H4734 H 0.14447 0.08815 0.83077 0.0
H4735 H 0.11505 0.09443 0.82193 0.0
H4736 H 0.12407 0.10343 0.82585 0.0
H4737 H 0.12108 0.09264 0.83422 0.0
H4738 H 0.13956 0.11696 0.847 0.0
C4739 C 0.14139 0.10917 0.83268 0.0
C4740 C 0.13939 0.91533 0.01884 0.0
C4741 C 0.14882 0.91851 0.01482 0.0
C4742 C 0.15755 0.91685 0.02084 0.0
C4743 C 0.14766 0.90802 0.03394 0.0
C4744 C 0.13899 0.91018 0.02842 0.0
C4745 C 0.1297 0.90591 0.0337 0.0
H4746 H 0.11075 0.8767 0.07337 0.0
C4747 C 0.14484 0.90189 0.04314 0.0
C4748 C 0.13426 0.90074 0.0432 0.0
H4749 H 0.09372 0.88999 0.0481 0.0
H4750 H 0.10893 0.89825 0.04157 0.0
H4751 H 0.12723 0.86847 0.06116 0.0
H4752 H 0.12424 0.89685 0.07776 0.0
H4753 H 0.1368 0.89304 0.07979 0.0
H4754 H 0.12665 0.88457 0.08379 0.0
H4755 H 0.13035 0.86935 0.07463 0.0
H4756 H 0.13966 0.8712 0.06461 0.0
C4757 C 0.12467 0.89802 0.02633 0.0
C4758 C 0.12281 0.91507 0.03671 0.0
C4759 C 0.17177 0.88263 0.06373 0.0
C4760 C 0.17092 0.87597 0.07233 0.0
C4761 C 0.16183 0.87557 0.07789 0.0
C4762 C 0.15337 0.88097 0.07446 0.0
C4763 C 0.15398 0.8868 0.06532 0.0
C4764 C 0.16317 0.88815 0.06046 0.0
C4765 C 0.16224 0.89537 0.0513 0.0
C4766 C 0.15084 0.89695 0.05081 0.0
C4767 C 0.14612 0.89177 0.05898 0.0
C4768 C 0.16637 0.88975 0.04159 0.0
C4769 C 0.16781 0.90559 0.05398 0.0
C4770 C 0.11021 0.88122 0.06632 0.0
C4771 C 0.10097 0.88244 0.06118 0.0
C4772 C 0.10072 0.88881 0.05224 0.0
C4773 C 0.1096 0.89355 0.0484 0.0
C4774 C 0.11886 0.89187 0.05349 0.0
C4775 C 0.11892 0.88587 0.06236 0.0
C4776 C 0.12922 0.88464 0.06686 0.0
C4777 C 0.13549 0.89066 0.05917 0.0
C4778 C 0.12949 0.89502 0.05132 0.0
C4779 C 0.1318 0.87286 0.06692 0.0
C4780 C 0.12929 0.88995 0.07765 0.0
H4781 H 0.16393 0.91056 0.03449 0.0
H4782 H 0.13252 0.91648 0.01445 0.0
H4783 H 0.12726 0.92125 0.04063 0.0
H4784 H 0.11683 0.91281 0.0422 0.0
H4785 H 0.11923 0.91851 0.02972 0.0
H4786 H 0.13047 0.89308 0.02251 0.0
H4787 H 0.12032 0.90204 0.02016 0.0
H4788 H 0.11961 0.89259 0.03038 0.0
H4789 H 0.17878 0.88313 0.05945 0.0
H4790 H 0.1611 0.87054 0.08458 0.0
H4791 H 0.14655 0.8799 0.07877 0.0
H4792 H 0.16324 0.88177 0.0411 0.0
H4793 H 0.17473 0.88915 0.04191 0.0
H4794 H 0.16433 0.89356 0.03425 0.0
H4795 H 0.16824 0.90684 0.06251 0.0
H4796 H 0.1638 0.91251 0.05101 0.0
H4797 H 0.17565 0.90555 0.05096 0.0
H4798 H 0.16485 0.91946 0.01812 0.0
C4799 C 0.157 0.9117 0.03037 0.0
C4800 C 0.24971 0.36619 0.11825 0.0
C4801 C 0.2552 0.36764 0.10895 0.0
C4802 C 0.25193 0.37532 0.10195 0.0
C4803 C 0.2376 0.37934 0.11284 0.0
C4804 C 0.2409 0.37214 0.12002 0.0
C4805 C 0.23387 0.37166 0.12927 0.0
H4806 H 0.19046 0.38987 0.15186 0.0
C4807 C 0.22815 0.38406 0.11663 0.0
C4808 C 0.22591 0.37973 0.12641 0.0
H4809 H 0.21001 0.36623 0.1644 0.0
H4810 H 0.2213 0.36817 0.14959 0.0
H4811 H 0.2077 0.40495 0.14498 0.0
H4812 H 0.18993 0.38167 0.1301 0.0
H4813 H 0.19173 0.39091 0.12041 0.0
H4814 H 0.1853 0.39455 0.13218 0.0
H4815 H 0.19487 0.40704 0.14105 0.0
H4816 H 0.20536 0.40991 0.13256 0.0
C4817 C 0.23983 0.37479 0.13904 0.0
C4818 C 0.22936 0.36065 0.12986 0.0
C4819 C 0.2073 0.40756 0.09284 0.0
C4820 C 0.19814 0.4129 0.09449 0.0
C4821 C 0.19404 0.41317 0.10456 0.0
C4822 C 0.19856 0.40781 0.11269 0.0
C4823 C 0.20733 0.40202 0.11086 0.0
C4824 C 0.21186 0.40233 0.10124 0.0
C4825 C 0.22162 0.39625 0.10121 0.0
C4826 C 0.22151 0.39142 0.11201 0.0
C4827 C 0.21309 0.39485 0.11753 0.0
C4828 C 0.23042 0.40407 0.10001 0.0
C4829 C 0.22099 0.38801 0.09252 0.0
C4830 C 0.19706 0.38493 0.15143 0.0
C4831 C 0.19916 0.37776 0.15928 0.0
C4832 C 0.20812 0.37182 0.15845 0.0
C4833 C 0.21466 0.37292 0.14982 0.0
C4834 C 0.21224 0.38006 0.14193 0.0
C4835 C 0.20356 0.38591 0.14298 0.0
C4836 C 0.20185 0.39309 0.13412 0.0
C4837 C 0.21082 0.39062 0.12737 0.0
C4838 C 0.21707 0.38304 0.13188 0.0
C4839 C 0.20238 0.40435 0.13833 0.0
C4840 C 0.19168 0.39002 0.12892 0.0
H4841 H 0.24121 0.38677 0.09811 0.0
H4842 H 0.25207 0.36043 0.12384 0.0
H4843 H 0.22667 0.35813 0.12209 0.0
H4844 H 0.22276 0.36021 0.13504 0.0
H4845 H 0.2351 0.355 0.13256 0.0
H4846 H 0.24419 0.38202 0.13759 0.0
H4847 H 0.24525 0.36861 0.14126 0.0
H4848 H 0.23488 0.37642 0.14571 0.0
H4849 H 0.21073 0.40738 0.08523 0.0
H4850 H 0.187 0.41717 0.10607 0.0
H4851 H 0.19479 0.40812 0.12002 0.0
H4852 H 0.22847 0.41172 0.10347 0.0
H4853 H 0.23228 0.40539 0.09172 0.0
H4854 H 0.2373 0.40163 0.10421 0.0
H4855 H 0.21338 0.38437 0.09239 0.0
H4856 H 0.2263 0.38153 0.09355 0.0
H4857 H 0.22233 0.39156 0.0848 0.0
H4858 H 0.25612 0.37683 0.0949 0.0
C4859 C 0.24325 0.38115 0.10385 0.0
C4860 C 0.74969 0.13872 0.88718 0.0
C4861 C 0.75519 0.13733 0.89648 0.0
C4862 C 0.75189 0.12973 0.90356 0.0
C4863 C 0.73754 0.12567 0.89273 0.0
C4864 C 0.74086 0.13279 0.88548 0.0
C4865 C 0.73382 0.13322 0.87623 0.0
H4866 H 0.69041 0.11489 0.85376 0.0
C4867 C 0.72807 0.12095 0.88899 0.0
C4868 C 0.72584 0.1252 0.87917 0.0
H4869 H 0.71001 0.13842 0.84109 0.0
H4870 H 0.72126 0.13658 0.85592 0.0
H4871 H 0.7076 0.09987 0.86077 0.0
H4872 H 0.68988 0.12328 0.87552 0.0
H4873 H 0.69162 0.11404 0.88523 0.0
H4874 H 0.68522 0.11041 0.87344 0.0
H4875 H 0.69479 0.0978 0.86475 0.0
H4876 H 0.70531 0.095 0.87324 0.0
C4877 C 0.73976 0.12996 0.86648 0.0
C4878 C 0.72935 0.14423 0.87554 0.0
C4879 C 0.70725 0.09758 0.91291 0.0
C4880 C 0.69814 0.09216 0.91125 0.0
C4881 C 0.69404 0.09183 0.9012 0.0
C4882 C 0.69851 0.09721 0.89306 0.0
C4883 C 0.70725 0.10306 0.89488 0.0
C4884 C 0.71178 0.10281 0.9045 0.0
C4885 C 0.72153 0.10889 0.9045 0.0
C4886 C 0.72142 0.11365 0.89366 0.0
C4887 C 0.713 0.11019 0.88817 0.0
C4888 C 0.73034 0.10109 0.90578 0.0
C4889 C 0.72087 0.1172 0.91313 0.0
C4890 C 0.69701 0.11983 0.85416 0.0
C4891 C 0.69914 0.12694 0.84626 0.0
C4892 C 0.7081 0.13288 0.84707 0.0
C4893 C 0.71462 0.13184 0.85571 0.0
C4894 C 0.71218 0.12476 0.86365 0.0
C4895 C 0.70349 0.11892 0.86264 0.0
C4896 C 0.70177 0.11182 0.87156 0.0
C4897 C 0.71073 0.11434 0.8783 0.0
C4898 C 0.71699 0.12187 0.87374 0.0
C4899 C 0.7023 0.10052 0.86744 0.0
C4900 C 0.6916 0.11492 0.87672 0.0
H4901 H 0.74113 0.11837 0.90752 0.0
H4902 H 0.75207 0.14442 0.88153 0.0
H4903 H 0.72672 0.14686 0.8833 0.0
H4904 H 0.72272 0.14464 0.87041 0.0
H4905 H 0.7351 0.14983 0.87273 0.0
H4906 H 0.74411 0.12274 0.86801 0.0
H4907 H 0.74518 0.1361 0.86418 0.0
H4908 H 0.7348 0.12826 0.85984 0.0
H4909 H 0.71066 0.09782 0.92053 0.0
H4910 H 0.68704 0.08775 0.89971 0.0
H4911 H 0.69473 0.09687 0.88573 0.0
H4912 H 0.72838 0.09339 0.90246 0.0
H4913 H 0.73225 0.09992 0.91408 0.0
H4914 H 0.73719 0.10347 0.9015 0.0
H4915 H 0.71328 0.12088 0.91317 0.0
H4916 H 0.72624 0.12364 0.91209 0.0
H4917 H 0.72214 0.1137 0.92088 0.0
H4918 H 0.75608 0.12827 0.91062 0.0
C4919 C 0.74319 0.12392 0.90173 0.0
C4920 C 0.10185 0.41415 0.16304 0.0
C4921 C 0.10682 0.405 0.15975 0.0
C4922 C 0.10467 0.40122 0.14969 0.0
C4923 C 0.09669 0.41735 0.14534 0.0
C4924 C 0.09648 0.42004 0.15566 0.0
C4925 C 0.09045 0.42988 0.1572 0.0
H4926 H 0.078 0.47646 0.13706 0.0
C4927 C 0.0932 0.42617 0.13917 0.0
C4928 C 0.08918 0.43354 0.146 0.0
H4929 H 0.07112 0.46485 0.16775 0.0
H4930 H 0.07702 0.44792 0.16279 0.0
H4931 H 0.0976 0.46729 0.13416 0.0
H4932 H 0.06939 0.45368 0.12463 0.0
H4933 H 0.07814 0.45329 0.11428 0.0
H4934 H 0.07432 0.46562 0.11955 0.0
H4935 H 0.09157 0.47102 0.12229 0.0
H4936 H 0.10015 0.46018 0.12293 0.0
C4937 C 0.09663 0.43749 0.16391 0.0
C4938 C 0.08018 0.42678 0.162 0.0
C4939 C 0.10878 0.42993 0.10353 0.0
C4940 C 0.10926 0.43813 0.09639 0.0
C4941 C 0.10334 0.44705 0.09825 0.0
C4942 C 0.09742 0.44792 0.10726 0.0
C4943 C 0.09752 0.43987 0.1146 0.0
C4944 C 0.10296 0.43098 0.11254 0.0
C4945 C 0.10208 0.4231 0.12105 0.0
C4946 C 0.09559 0.42895 0.12883 0.0
C4947 C 0.09301 0.4388 0.12507 0.0
C4948 C 0.11286 0.42096 0.12517 0.0
C4949 C 0.09666 0.41335 0.11676 0.0
C4950 C 0.07747 0.47026 0.14268 0.0
C4951 C 0.07438 0.47222 0.15295 0.0
C4952 C 0.07385 0.46377 0.15991 0.0
C4953 C 0.07722 0.45388 0.15702 0.0
C4954 C 0.08111 0.45233 0.14704 0.0
C4955 C 0.08069 0.46028 0.13989 0.0
C4956 C 0.08491 0.45709 0.12954 0.0
C4957 C 0.08807 0.446 0.13172 0.0
C4958 C 0.08595 0.44329 0.14206 0.0
C4959 C 0.09398 0.46425 0.12699 0.0
C4960 C 0.07629 0.45748 0.1215 0.0
H4961 H 0.09887 0.40449 0.13472 0.0
H4962 H 0.10266 0.41699 0.17089 0.0
H4963 H 0.0776 0.41913 0.15901 0.0
H4964 H 0.07404 0.43218 0.15991 0.0
H4965 H 0.08071 0.42619 0.17057 0.0
H4966 H 0.10442 0.43823 0.16081 0.0
H4967 H 0.09712 0.4347 0.17204 0.0
H4968 H 0.09345 0.44536 0.1641 0.0
H4969 H 0.11289 0.42281 0.10215 0.0
H4970 H 0.10347 0.45348 0.09286 0.0
H4971 H 0.09317 0.45492 0.10828 0.0
H4972 H 0.11642 0.42827 0.12793 0.0
H4973 H 0.11772 0.41764 0.11899 0.0
H4974 H 0.1131 0.41541 0.13161 0.0
H4975 H 0.09318 0.41475 0.10903 0.0
H4976 H 0.09031 0.41091 0.12181 0.0
H4977 H 0.10198 0.40676 0.11586 0.0
H4978 H 0.10746 0.39375 0.14715 0.0
C4979 C 0.09971 0.4074 0.14245 0.0
C4980 C 0.79188 0.86842 0.33071 0.0
C4981 C 0.80053 0.8731 0.32633 0.0
C4982 C 0.81006 0.8708 0.33049 0.0
C4983 C 0.80241 0.86036 0.34384 0.0
C4984 C 0.79302 0.86207 0.33955 0.0
C4985 C 0.78486 0.85666 0.34573 0.0
H4986 H 0.77149 0.83416 0.39144 0.0
C4987 C 0.80117 0.85433 0.35342 0.0
C4988 C 0.79092 0.85204 0.35469 0.0
H4989 H 0.75214 0.84183 0.3656 0.0
H4990 H 0.76668 0.84642 0.35531 0.0
H4991 H 0.79025 0.82318 0.37588 0.0
H4992 H 0.78504 0.85277 0.3906 0.0
H4993 H 0.79795 0.85002 0.39153 0.0
H4994 H 0.789 0.84164 0.39789 0.0
H4995 H 0.78968 0.82482 0.3897 0.0
H4996 H 0.80119 0.82714 0.38264 0.0
C4997 C 0.78019 0.84813 0.33882 0.0
C4998 C 0.77724 0.86493 0.34945 0.0
C4999 C 0.83157 0.85128 0.37654 0.0
C5000 C 0.83301 0.84819 0.38685 0.0
C5001 C 0.82497 0.84327 0.39208 0.0
C5002 C 0.81556 0.84186 0.38719 0.0
C5003 C 0.81411 0.84565 0.37706 0.0
C5004 C 0.82216 0.85005 0.37191 0.0
C5005 C 0.81936 0.85421 0.36151 0.0
C5006 C 0.80823 0.85173 0.3612 0.0
C5007 C 0.80512 0.84669 0.37026 0.0
C5008 C 0.82528 0.84793 0.35323 0.0
C5009 C 0.82142 0.8661 0.36155 0.0
C5010 C 0.7704 0.83674 0.38353 0.0
C5011 C 0.76063 0.83778 0.37939 0.0
C5012 C 0.75956 0.84097 0.36899 0.0
C5013 C 0.76801 0.84376 0.36306 0.0
C5014 C 0.77766 0.84339 0.36755 0.0
C5015 C 0.77877 0.83949 0.37747 0.0
C5016 C 0.7896 0.83944 0.38093 0.0
C5017 C 0.79476 0.84426 0.37162 0.0
C5018 C 0.78771 0.84668 0.36379 0.0
C5019 C 0.79291 0.82806 0.38245 0.0
C5020 C 0.79053 0.84624 0.39078 0.0
H5021 H 0.81856 0.86321 0.34187 0.0
H5022 H 0.78446 0.86989 0.32752 0.0
H5023 H 0.78129 0.87173 0.35274 0.0
H5024 H 0.7722 0.86217 0.35564 0.0
H5025 H 0.77252 0.8677 0.34289 0.0
H5026 H 0.78611 0.84428 0.33406 0.0
H5027 H 0.7745 0.85144 0.33344 0.0
H5028 H 0.7767 0.84182 0.34335 0.0
H5029 H 0.83745 0.85532 0.37232 0.0
H5030 H 0.8259 0.84073 0.40002 0.0
H5031 H 0.80968 0.8382 0.39159 0.0
H5032 H 0.82641 0.83976 0.35575 0.0
H5033 H 0.83285 0.85134 0.35184 0.0
H5034 H 0.82119 0.84729 0.34578 0.0
H5035 H 0.82137 0.86935 0.36955 0.0
H5036 H 0.81553 0.87062 0.35751 0.0
H5037 H 0.82888 0.86793 0.35809 0.0
H5038 H 0.81685 0.874 0.32707 0.0
C5039 C 0.81105 0.86445 0.33911 0.0
C5040 C 0.9002 0.07504 0.12767 0.0
C5041 C 0.8966 0.08538 0.12803 0.0
C5042 C 0.89255 0.089 0.1375 0.0
C5043 C 0.89411 0.07195 0.14511 0.0
C5044 C 0.89877 0.06845 0.13624 0.0
C5045 C 0.90097 0.05696 0.13682 0.0
H5046 H 0.89023 0.01088 0.15991 0.0
C5047 C 0.89217 0.06297 0.15191 0.0
C5048 C 0.89613 0.05408 0.14715 0.0
H5049 H 0.90836 0.0158 0.13253 0.0
H5050 H 0.90718 0.03441 0.135 0.0
H5051 H 0.90085 0.03057 0.1739 0.0
H5052 H 0.87403 0.0272 0.15513 0.0
H5053 H 0.87086 0.0345 0.16611 0.0
H5054 H 0.87504 0.0213 0.16769 0.0
H5055 H 0.89075 0.02188 0.17722 0.0
H5056 H 0.89028 0.0354 0.18069 0.0
C5057 C 0.91253 0.05554 0.13713 0.0
C5058 C 0.89577 0.0516 0.12752 0.0
C5059 C 0.86847 0.06849 0.18198 0.0
C5060 C 0.86314 0.06175 0.18845 0.0
C5061 C 0.86566 0.05115 0.18852 0.0
C5062 C 0.87308 0.04726 0.1817 0.0
C5063 C 0.87783 0.05404 0.17466 0.0
C5064 C 0.87565 0.0645 0.17514 0.0
C5065 C 0.88079 0.0706 0.16682 0.0
C5066 C 0.88634 0.06212 0.16107 0.0
C5067 C 0.88466 0.05242 0.16564 0.0
C5068 C 0.88825 0.07817 0.17213 0.0
C5069 C 0.8725 0.07584 0.16006 0.0
C5070 C 0.89397 0.01596 0.15443 0.0
C5071 C 0.89923 0.01184 0.1459 0.0
C5072 C 0.9042 0.01874 0.13913 0.0
C5073 C 0.90343 0.02955 0.14052 0.0
C5074 C 0.89758 0.03352 0.14874 0.0
C5075 C 0.89326 0.02671 0.15571 0.0
C5076 C 0.8874 0.03217 0.16405 0.0
C5077 C 0.88874 0.04339 0.16092 0.0
C5078 C 0.89463 0.04419 0.15184 0.0
C5079 C 0.8925 0.02987 0.17457 0.0
C5080 C 0.87625 0.02861 0.16333 0.0
H5081 H 0.8881 0.0857 0.15281 0.0
H5082 H 0.90373 0.07196 0.12076 0.0
H5083 H 0.88805 0.05478 0.12636 0.0
H5084 H 0.89474 0.04321 0.12859 0.0
H5085 H 0.90011 0.05289 0.12026 0.0
H5086 H 0.91604 0.06133 0.14242 0.0
H5087 H 0.91587 0.05662 0.1293 0.0
H5088 H 0.91482 0.04791 0.14019 0.0
H5089 H 0.86657 0.07666 0.18171 0.0
H5090 H 0.86155 0.04582 0.19345 0.0
H5091 H 0.87452 0.03907 0.18188 0.0
H5092 H 0.89188 0.07448 0.17898 0.0
H5093 H 0.88431 0.08526 0.17486 0.0
H5094 H 0.89461 0.08041 0.16704 0.0
H5095 H 0.86512 0.07177 0.1607 0.0
H5096 H 0.87417 0.07556 0.15167 0.0
H5097 H 0.87126 0.08402 0.16242 0.0
H5098 H 0.88959 0.09676 0.13828 0.0
C5099 C 0.89148 0.08243 0.14602 0.0
C5100 C 0.29189 0.6366 0.6745 0.0
C5101 C 0.30054 0.63192 0.67888 0.0
C5102 C 0.31007 0.63422 0.67472 0.0
C5103 C 0.30242 0.64466 0.66137 0.0
C5104 C 0.29303 0.64296 0.66566 0.0
C5105 C 0.28487 0.64837 0.65947 0.0
H5106 H 0.27151 0.67087 0.61377 0.0
C5107 C 0.30118 0.65069 0.65179 0.0
C5108 C 0.29094 0.65299 0.65052 0.0
H5109 H 0.25215 0.66318 0.63961 0.0
H5110 H 0.2667 0.6586 0.6499 0.0
H5111 H 0.29027 0.68185 0.62933 0.0
H5112 H 0.28506 0.65225 0.61461 0.0
H5113 H 0.29797 0.655 0.61368 0.0
H5114 H 0.28902 0.66338 0.60732 0.0
H5115 H 0.28969 0.68021 0.61551 0.0
H5116 H 0.3012 0.67788 0.62256 0.0
C5117 C 0.2802 0.6569 0.66638 0.0
C5118 C 0.27726 0.64009 0.65576 0.0
C5119 C 0.33159 0.65374 0.62867 0.0
C5120 C 0.33303 0.65683 0.61837 0.0
C5121 C 0.32499 0.66175 0.61313 0.0
C5122 C 0.31558 0.66316 0.61802 0.0
C5123 C 0.31413 0.65938 0.62815 0.0
C5124 C 0.32218 0.65497 0.63331 0.0
C5125 C 0.31938 0.65081 0.64371 0.0
C5126 C 0.30825 0.65329 0.64401 0.0
C5127 C 0.30514 0.65833 0.63495 0.0
C5128 C 0.32529 0.65709 0.65198 0.0
C5129 C 0.32143 0.63892 0.64366 0.0
C5130 C 0.27041 0.66828 0.62168 0.0
C5131 C 0.26064 0.66724 0.62582 0.0
C5132 C 0.25958 0.66405 0.63622 0.0
C5133 C 0.26803 0.66126 0.64215 0.0
C5134 C 0.27767 0.66163 0.63766 0.0
C5135 C 0.27878 0.66553 0.62774 0.0
C5136 C 0.28961 0.66559 0.62428 0.0
C5137 C 0.29477 0.66076 0.63359 0.0
C5138 C 0.28773 0.65834 0.64142 0.0
C5139 C 0.29292 0.67697 0.62276 0.0
C5140 C 0.29054 0.65878 0.61443 0.0
H5141 H 0.31857 0.64181 0.66334 0.0
H5142 H 0.28447 0.63513 0.67769 0.0
H5143 H 0.28131 0.63329 0.65247 0.0
H5144 H 0.27222 0.64285 0.64956 0.0
H5145 H 0.27253 0.63733 0.66231 0.0
H5146 H 0.28612 0.66074 0.67115 0.0
H5147 H 0.27451 0.65358 0.67176 0.0
H5148 H 0.27672 0.66321 0.66185 0.0
H5149 H 0.33747 0.6497 0.63289 0.0
H5150 H 0.32592 0.66429 0.60519 0.0
H5151 H 0.3097 0.66682 0.61362 0.0
H5152 H 0.32642 0.66526 0.64946 0.0
H5153 H 0.33286 0.65368 0.65338 0.0
H5154 H 0.3212 0.65773 0.65943 0.0
H5155 H 0.32139 0.63567 0.63567 0.0
H5156 H 0.31554 0.6344 0.64771 0.0
H5157 H 0.32889 0.63709 0.64713 0.0
H5158 H 0.31686 0.63102 0.67815 0.0
C5159 C 0.31106 0.64057 0.6661 0.0
C5160 C 0.10188 0.59086 0.34214 0.0
C5161 C 0.10685 0.6 0.34543 0.0
C5162 C 0.10471 0.60379 0.35549 0.0
C5163 C 0.09672 0.58767 0.35984 0.0
C5164 C 0.0965 0.58497 0.34953 0.0
C5165 C 0.09046 0.57515 0.34799 0.0
H5166 H 0.07798 0.52857 0.36814 0.0
C5167 C 0.09322 0.57885 0.36601 0.0
C5168 C 0.08919 0.57149 0.35918 0.0
H5169 H 0.0711 0.54019 0.33745 0.0
H5170 H 0.07701 0.55711 0.34241 0.0
H5171 H 0.09757 0.53772 0.37103 0.0
H5172 H 0.06939 0.55136 0.38056 0.0
H5173 H 0.07814 0.55175 0.39091 0.0
H5174 H 0.07432 0.53942 0.38565 0.0
H5175 H 0.09156 0.53401 0.38292 0.0
H5176 H 0.10016 0.54484 0.38224 0.0
C5177 C 0.09663 0.56753 0.34127 0.0
C5178 C 0.08019 0.57825 0.34319 0.0
C5179 C 0.1088 0.57507 0.40165 0.0
C5180 C 0.10928 0.56687 0.40879 0.0
C5181 C 0.10335 0.55796 0.40693 0.0
C5182 C 0.09743 0.55709 0.39792 0.0
C5183 C 0.09753 0.56514 0.39058 0.0
C5184 C 0.10297 0.57403 0.39265 0.0
C5185 C 0.1021 0.58191 0.38414 0.0
C5186 C 0.09561 0.57607 0.37636 0.0
C5187 C 0.09302 0.56622 0.38011 0.0
C5188 C 0.11288 0.58404 0.38001 0.0
C5189 C 0.09669 0.59167 0.38843 0.0
C5190 C 0.07745 0.53477 0.36252 0.0
C5191 C 0.07435 0.53282 0.35225 0.0
C5192 C 0.07383 0.54127 0.34529 0.0
C5193 C 0.07721 0.55115 0.34818 0.0
C5194 C 0.08111 0.5527 0.35815 0.0
C5195 C 0.08069 0.54475 0.3653 0.0
C5196 C 0.08491 0.54793 0.37565 0.0
C5197 C 0.08808 0.55903 0.37347 0.0
C5198 C 0.08595 0.56174 0.36313 0.0
C5199 C 0.09398 0.54077 0.3782 0.0
C5200 C 0.07628 0.54756 0.38369 0.0
H5201 H 0.09891 0.60053 0.37046 0.0
H5202 H 0.10268 0.58802 0.3343 0.0
H5203 H 0.07762 0.58591 0.34618 0.0
H5204 H 0.07405 0.57286 0.34528 0.0
H5205 H 0.08073 0.57884 0.33462 0.0
H5206 H 0.10443 0.56678 0.34437 0.0
H5207 H 0.09713 0.57032 0.33314 0.0
H5208 H 0.09344 0.55966 0.34109 0.0
H5209 H 0.11291 0.58219 0.40303 0.0
H5210 H 0.10347 0.55152 0.41231 0.0
H5211 H 0.09317 0.5501 0.3969 0.0
H5212 H 0.11644 0.57673 0.37726 0.0
H5213 H 0.11773 0.58737 0.3862 0.0
H5214 H 0.11313 0.58959 0.37357 0.0
H5215 H 0.09319 0.59026 0.39615 0.0
H5216 H 0.09034 0.59412 0.38337 0.0
H5217 H 0.10202 0.59825 0.38934 0.0
H5218 H 0.10751 0.61125 0.35803 0.0
C5219 C 0.09974 0.59761 0.36273 0.0
C5220 C 0.40013 0.42968 0.87751 0.0
C5221 C 0.39652 0.41934 0.87714 0.0
C5222 C 0.39243 0.41574 0.86769 0.0
C5223 C 0.39397 0.43281 0.86009 0.0
C5224 C 0.39866 0.43629 0.86896 0.0
C5225 C 0.40081 0.44779 0.86843 0.0
H5226 H 0.39051 0.49389 0.84513 0.0
C5227 C 0.39201 0.44181 0.85333 0.0
C5228 C 0.39596 0.45069 0.85812 0.0
H5229 H 0.40801 0.48894 0.87295 0.0
H5230 H 0.40681 0.47034 0.87049 0.0
H5231 H 0.40092 0.47409 0.83135 0.0
H5232 H 0.37406 0.47769 0.85001 0.0
H5233 H 0.37089 0.47043 0.83901 0.0
H5234 H 0.37517 0.4836 0.83746 0.0
H5235 H 0.3909 0.48286 0.82797 0.0
H5236 H 0.39034 0.46934 0.82453 0.0
C5237 C 0.41237 0.44926 0.86812 0.0
C5238 C 0.39558 0.45308 0.87775 0.0
C5239 C 0.36838 0.43638 0.8232 0.0
C5240 C 0.36308 0.44314 0.81671 0.0
C5241 C 0.36564 0.45373 0.81665 0.0
C5242 C 0.37306 0.45759 0.82347 0.0
C5243 C 0.37777 0.45079 0.83054 0.0
C5244 C 0.37556 0.44033 0.83005 0.0
C5245 C 0.38066 0.43422 0.83838 0.0
C5246 C 0.38621 0.44268 0.84415 0.0
C5247 C 0.38457 0.45239 0.83958 0.0
C5248 C 0.38812 0.42664 0.83308 0.0
C5249 C 0.37234 0.42899 0.84511 0.0
C5250 C 0.39408 0.48883 0.85074 0.0
C5251 C 0.3992 0.49295 0.85937 0.0
C5252 C 0.40398 0.48602 0.86626 0.0
C5253 C 0.40318 0.47521 0.86487 0.0
C5254 C 0.39747 0.47126 0.85656 0.0
C5255 C 0.39329 0.47807 0.8495 0.0
C5256 C 0.38743 0.47263 0.84115 0.0
C5257 C 0.38867 0.46141 0.84432 0.0
C5258 C 0.3945 0.46059 0.85344 0.0
C5259 C 0.39258 0.47486 0.83064 0.0
C5260 C 0.37631 0.47627 0.84182 0.0
H5261 H 0.38792 0.41908 0.8524 0.0
H5262 H 0.40369 0.43275 0.8844 0.0
H5263 H 0.38794 0.44974 0.87902 0.0
H5264 H 0.39433 0.46144 0.87662 0.0
H5265 H 0.40002 0.45196 0.88497 0.0
H5266 H 0.41589 0.44357 0.86274 0.0
H5267 H 0.41571 0.44808 0.87593 0.0
H5268 H 0.41461 0.45695 0.86519 0.0
H5269 H 0.36644 0.42822 0.82346 0.0
H5270 H 0.36156 0.45907 0.8117 0.0
H5271 H 0.37454 0.46576 0.82329 0.0
H5272 H 0.39178 0.43033 0.82625 0.0
H5273 H 0.38417 0.41957 0.83031 0.0
H5274 H 0.39445 0.42436 0.83818 0.0
H5275 H 0.36499 0.43311 0.84451 0.0
H5276 H 0.37402 0.42919 0.8535 0.0
H5277 H 0.37105 0.42083 0.84269 0.0
H5278 H 0.38947 0.40798 0.8669 0.0
C5279 C 0.39133 0.42233 0.85918 0.0
C5280 C 0.88799 0.7674 0.66332 0.0
C5281 C 0.89747 0.76346 0.66642 0.0
C5282 C 0.90613 0.76958 0.66477 0.0
C5283 C 0.89609 0.78252 0.65587 0.0
C5284 C 0.88748 0.77696 0.65816 0.0
C5285 C 0.8781 0.78215 0.65402 0.0
H5286 H 0.85854 0.82072 0.62397 0.0
C5287 C 0.89315 0.79158 0.6496 0.0
C5288 C 0.88255 0.79155 0.64862 0.0
H5289 H 0.84176 0.79609 0.63868 0.0
H5290 H 0.85716 0.78983 0.64684 0.0
H5291 H 0.87232 0.82585 0.64371 0.0
H5292 H 0.87416 0.8092 0.61555 0.0
H5293 H 0.88699 0.81076 0.61823 0.0
H5294 H 0.87912 0.82203 0.61638 0.0
H5295 H 0.87434 0.83145 0.63115 0.0
H5296 H 0.88475 0.82788 0.63949 0.0
C5297 C 0.87141 0.78531 0.66328 0.0
C5298 C 0.87292 0.77465 0.64634 0.0
C5299 C 0.91939 0.8114 0.62857 0.0
C5300 C 0.91819 0.81952 0.62133 0.0
C5301 C 0.90902 0.82499 0.62104 0.0
C5302 C 0.90086 0.82184 0.62698 0.0
C5303 C 0.90176 0.81305 0.63325 0.0
C5304 C 0.911 0.80832 0.63453 0.0
C5305 C 0.91038 0.79956 0.64228 0.0
C5306 C 0.89902 0.79908 0.64424 0.0
C5307 C 0.89413 0.807 0.63884 0.0
C5308 C 0.91619 0.80288 0.65216 0.0
C5309 C 0.91449 0.78961 0.6371 0.0
C5310 C 0.8581 0.81386 0.62879 0.0
C5311 C 0.84891 0.80879 0.63042 0.0
C5312 C 0.84876 0.80013 0.63717 0.0
C5313 C 0.85773 0.79646 0.64185 0.0
C5314 C 0.86695 0.80145 0.63972 0.0
C5315 C 0.86689 0.81007 0.63337 0.0
C5316 C 0.87712 0.81456 0.63176 0.0
C5317 C 0.88351 0.80714 0.63798 0.0
C5318 C 0.87764 0.79946 0.64275 0.0
C5319 C 0.8772 0.82555 0.63668 0.0
C5320 C 0.87952 0.8142 0.61993 0.0
H5321 H 0.91235 0.78331 0.65843 0.0
H5322 H 0.88115 0.76297 0.66448 0.0
H5323 H 0.87862 0.77072 0.64138 0.0
H5324 H 0.86778 0.77862 0.64093 0.0
H5325 H 0.86861 0.76858 0.65056 0.0
H5326 H 0.87601 0.78922 0.66935 0.0
H5327 H 0.86782 0.77839 0.66685 0.0
H5328 H 0.86546 0.79087 0.6611 0.0
H5329 H 0.92649 0.80731 0.62923 0.0
H5330 H 0.90808 0.83162 0.61599 0.0
H5331 H 0.89405 0.82619 0.62611 0.0
H5332 H 0.91604 0.81144 0.65319 0.0
H5333 H 0.92422 0.80045 0.65177 0.0
H5334 H 0.91274 0.79978 0.65932 0.0
H5335 H 0.911 0.78854 0.62933 0.0
H5336 H 0.91286 0.7825 0.64148 0.0
H5337 H 0.92279 0.7901 0.63606 0.0
H5338 H 0.91346 0.76694 0.66736 0.0
C5339 C 0.90547 0.7791 0.65959 0.0
C5340 C 0.94876 0.15473 0.34286 0.0
C5341 C 0.95142 0.16511 0.34116 0.0
C5342 C 0.96059 0.16876 0.34539 0.0
C5343 C 0.96377 0.15189 0.35332 0.0
C5344 C 0.95492 0.14838 0.3489 0.0
C5345 C 0.95247 0.13749 0.35187 0.0
H5346 H 0.95906 0.09562 0.38183 0.0
C5347 C 0.96784 0.14332 0.35988 0.0
C5348 C 0.96113 0.13497 0.35905 0.0
H5349 H 0.93606 0.10214 0.3589 0.0
H5350 H 0.94425 0.1178 0.3544 0.0
H5351 H 0.97825 0.10454 0.36603 0.0
H5352 H 0.96204 0.11999 0.39085 0.0
H5353 H 0.9753 0.12087 0.3924 0.0
H5354 H 0.96929 0.10842 0.39313 0.0
H5355 H 0.97922 0.10018 0.37923 0.0
H5356 H 0.98657 0.11096 0.37456 0.0
C5357 C 0.95286 0.1308 0.34187 0.0
C5358 C 0.94214 0.1376 0.35761 0.0
C5359 C 1.00009 0.14844 0.38052 0.0
C5360 C 0.00588 0.14213 0.38719 0.0
C5361 C 1.00217 0.13209 0.38946 0.0
C5362 C 0.99307 0.12844 0.38509 0.0
C5363 C 0.98754 0.13481 0.3783 0.0
C5364 C 0.99115 0.14463 0.37612 0.0
C5365 C 0.98449 0.15039 0.36865 0.0
C5366 C 0.97636 0.14244 0.36653 0.0
C5367 C 0.97805 0.13326 0.37228 0.0
C5368 C 0.99069 0.15285 0.35879 0.0
C5369 C 0.98028 0.16006 0.37426 0.0
C5370 C 0.95582 0.10052 0.37588 0.0
C5371 C 0.94661 0.09775 0.37099 0.0
C5372 C 0.94285 0.1042 0.3631 0.0
C5373 C 0.94771 0.11334 0.36041 0.0
C5374 C 0.95651 0.11634 0.36564 0.0
C5375 C 0.96064 0.10993 0.37307 0.0
C5376 C 0.97041 0.11448 0.37726 0.0
C5377 C 0.97101 0.12485 0.3715 0.0
C5378 C 0.96275 0.12576 0.36478 0.0
C5379 C 0.97912 0.10717 0.3742 0.0
C5380 C 0.96928 0.11601 0.38906 0.0
H5381 H 0.97372 0.16539 0.35436 0.0
H5382 H 0.9417 0.15164 0.33996 0.0
H5383 H 0.94071 0.1452 0.36144 0.0
H5384 H 0.94171 0.13197 0.36405 0.0
H5385 H 0.9358 0.13616 0.35216 0.0
H5386 H 0.95847 0.1339 0.33624 0.0
H5387 H 0.94542 0.13065 0.33791 0.0
H5388 H 0.95539 0.12275 0.34333 0.0
H5389 H 1.00242 0.15627 0.37873 0.0
H5390 H 0.00641 0.12694 0.39444 0.0
H5391 H 0.99071 0.12075 0.38711 0.0
H5392 H 0.99544 0.1461 0.35656 0.0
H5393 H 0.99577 0.15957 0.3601 0.0
H5394 H 0.9859 0.15447 0.35199 0.0
H5395 H 0.97835 0.15821 0.38245 0.0
H5396 H 0.97319 0.16295 0.37084 0.0
H5397 H 0.98591 0.16643 0.37433 0.0
H5398 H 0.9629 0.17671 0.34413 0.0
C5399 C 0.96683 0.16218 0.35136 0.0
C5400 C 0.66088 0.21974 0.12274 0.0
C5401 C 0.66234 0.20918 0.12026 0.0
C5402 C 0.65399 0.20244 0.12055 0.0
C5403 C 0.64283 0.21681 0.12402 0.0
C5404 C 0.65102 0.22337 0.12463 0.0
C5405 C 0.64779 0.23436 0.12695 0.0
H5406 H 0.61061 0.2703 0.12593 0.0
C5407 C 0.63357 0.22306 0.12484 0.0
C5408 C 0.63632 0.23337 0.12657 0.0
H5409 H 0.64225 0.27474 0.13295 0.0
H5410 H 0.64483 0.25629 0.13271 0.0
H5411 H 0.61377 0.25289 0.10837 0.0
H5412 H 0.60785 0.24823 0.14113 0.0
H5413 H 0.59937 0.24114 0.13322 0.0
H5414 H 0.59915 0.25508 0.1329 0.0
H5415 H 0.60203 0.25683 0.11415 0.0
H5416 H 0.60418 0.24363 0.11024 0.0
C5417 C 0.65195 0.24145 0.11828 0.0
C5418 C 0.65151 0.23713 0.13798 0.0
C5419 C 0.60126 0.20537 0.11474 0.0
C5420 C 0.59162 0.20881 0.11208 0.0
C5421 C 0.58904 0.21926 0.11395 0.0
C5422 C 0.59629 0.22627 0.11796 0.0
C5423 C 0.60621 0.22278 0.11992 0.0
C5424 C 0.60838 0.2124 0.11846 0.0
C5425 C 0.6192 0.20986 0.12027 0.0
C5426 C 0.62339 0.22041 0.12293 0.0
C5427 C 0.61583 0.22805 0.12285 0.0
C5428 C 0.62364 0.20545 0.10998 0.0
C5429 C 0.61975 0.20245 0.12972 0.0
C5430 C 0.61811 0.2673 0.12739 0.0
C5431 C 0.62627 0.27409 0.12929 0.0
C5432 C 0.63582 0.26979 0.13147 0.0
C5433 C 0.63734 0.25904 0.13122 0.0
C5434 C 0.62929 0.25245 0.12862 0.0
C5435 C 0.61978 0.25655 0.12713 0.0
C5436 C 0.61209 0.24828 0.12469 0.0
C5437 C 0.61857 0.23856 0.12483 0.0
C5438 C 0.62871 0.24113 0.12696 0.0
C5439 C 0.60769 0.25049 0.11382 0.0
C5440 C 0.60412 0.24816 0.1334 0.0
H5441 H 0.63834 0.20061 0.1223 0.0
H5442 H 0.66717 0.22509 0.12282 0.0
H5443 H 0.65147 0.2302 0.14311 0.0
H5444 H 0.64654 0.24276 0.14193 0.0
H5445 H 0.65934 0.24019 0.13779 0.0
H5446 H 0.65076 0.23783 0.11055 0.0
H5447 H 0.66017 0.24277 0.11929 0.0
H5448 H 0.64819 0.24905 0.11787 0.0
H5449 H 0.60345 0.19739 0.11334 0.0
H5450 H 0.5816 0.22207 0.11195 0.0
H5451 H 0.594 0.23417 0.1191 0.0
H5452 H 0.61893 0.20746 0.10313 0.0
H5453 H 0.62421 0.19687 0.11024 0.0
H5454 H 0.63112 0.20872 0.10805 0.0
H5455 H 0.61399 0.20454 0.13564 0.0
H5456 H 0.62704 0.20291 0.13388 0.0
H5457 H 0.61834 0.1943 0.12734 0.0
H5458 H 0.65492 0.19421 0.11917 0.0
C5459 C 0.64432 0.20617 0.12245 0.0
C5460 C 0.54102 0.9256 0.88599 0.0
C5461 C 0.54961 0.92981 0.88106 0.0
C5462 C 0.55915 0.92559 0.88323 0.0
C5463 C 0.55159 0.9125 0.89405 0.0
C5464 C 0.54221 0.91686 0.89245 0.0
C5465 C 0.53407 0.91084 0.89806 0.0
H5466 H 0.52044 0.86555 0.92087 0.0
C5467 C 0.55035 0.90302 0.90025 0.0
C5468 C 0.54013 0.90191 0.90272 0.0
H5469 H 0.50134 0.89153 0.91295 0.0
H5470 H 0.51599 0.90171 0.90859 0.0
H5471 H 0.53372 0.86597 0.90252 0.0
H5472 H 0.53954 0.8811 0.93178 0.0
H5473 H 0.5503 0.87403 0.9278 0.0
H5474 H 0.53866 0.86728 0.93034 0.0
H5475 H 0.53802 0.85885 0.91363 0.0
H5476 H 0.5467 0.86512 0.90488 0.0
C5477 C 0.52634 0.90707 0.88991 0.0
C5478 C 0.52955 0.91791 0.90655 0.0
C5479 C 0.58039 0.87929 0.90279 0.0
C5480 C 0.58165 0.86897 0.90591 0.0
C5481 C 0.57364 0.86398 0.91112 0.0
C5482 C 0.5644 0.86913 0.91278 0.0
C5483 C 0.56308 0.87925 0.90893 0.0
C5484 C 0.57113 0.88418 0.90426 0.0
C5485 C 0.56843 0.89462 0.90009 0.0
C5486 C 0.55736 0.89516 0.90281 0.0
C5487 C 0.5542 0.88621 0.90802 0.0
C5488 C 0.57026 0.89449 0.88815 0.0
C5489 C 0.57461 0.90281 0.90619 0.0
C5490 C 0.51942 0.87347 0.91829 0.0
C5491 C 0.50969 0.87766 0.91709 0.0
C5492 C 0.50873 0.88808 0.91393 0.0
C5493 C 0.51724 0.89395 0.91125 0.0
C5494 C 0.52683 0.88935 0.91165 0.0
C5495 C 0.52785 0.87944 0.91559 0.0
C5496 C 0.53863 0.87584 0.91559 0.0
C5497 C 0.54386 0.88503 0.91064 0.0
C5498 C 0.5369 0.89294 0.90825 0.0
C5499 C 0.53939 0.8659 0.90889 0.0
C5500 C 0.54201 0.87441 0.92696 0.0
H5501 H 0.56769 0.91424 0.89085 0.0
H5502 H 0.5336 0.92883 0.88461 0.0
H5503 H 0.53551 0.92283 0.91012 0.0
H5504 H 0.52629 0.91349 0.91306 0.0
H5505 H 0.52371 0.92314 0.90327 0.0
H5506 H 0.5303 0.90371 0.88308 0.0
H5507 H 0.52159 0.9136 0.88715 0.0
H5508 H 0.52133 0.9009 0.89277 0.0
H5509 H 0.58627 0.88332 0.89857 0.0
H5510 H 0.57445 0.85604 0.91369 0.0
H5511 H 0.55853 0.86492 0.91666 0.0
H5512 H 0.5702 0.88648 0.88496 0.0
H5513 H 0.57765 0.89799 0.88614 0.0
H5514 H 0.56425 0.89847 0.88374 0.0
H5515 H 0.57566 0.90041 0.91441 0.0
H5516 H 0.57077 0.91041 0.90668 0.0
H5517 H 0.58222 0.90387 0.90275 0.0
H5518 H 0.5659 0.9289 0.87984 0.0
C5519 C 0.56019 0.91707 0.88971 0.0
C5520 C 0.88801 0.23755 0.84189 0.0
C5521 C 0.89749 0.24149 0.83878 0.0
C5522 C 0.90615 0.23537 0.84043 0.0
C5523 C 0.89611 0.22243 0.84933 0.0
C5524 C 0.8875 0.22799 0.84704 0.0
C5525 C 0.87813 0.2228 0.85119 0.0
H5526 H 0.85857 0.18424 0.88125 0.0
C5527 C 0.89318 0.21337 0.85561 0.0
C5528 C 0.88257 0.2134 0.85659 0.0
H5529 H 0.84178 0.20887 0.86653 0.0
H5530 H 0.85719 0.21512 0.85837 0.0
H5531 H 0.87235 0.1791 0.86151 0.0
H5532 H 0.87419 0.19576 0.88966 0.0
H5533 H 0.88702 0.1942 0.88698 0.0
H5534 H 0.87916 0.18293 0.88884 0.0
H5535 H 0.87437 0.17351 0.87407 0.0
H5536 H 0.88479 0.17707 0.86573 0.0
C5537 C 0.87144 0.21964 0.84192 0.0
C5538 C 0.87293 0.2303 0.85886 0.0
C5539 C 0.91941 0.19357 0.87665 0.0
C5540 C 0.91822 0.18545 0.88389 0.0
C5541 C 0.90906 0.17998 0.88418 0.0
C5542 C 0.90089 0.18313 0.87824 0.0
C5543 C 0.90179 0.19191 0.87196 0.0
C5544 C 0.91103 0.19664 0.87069 0.0
C5545 C 0.9104 0.20539 0.86293 0.0
C5546 C 0.89904 0.20587 0.86097 0.0
C5547 C 0.89416 0.19795 0.86637 0.0
C5548 C 0.91622 0.20208 0.85306 0.0
C5549 C 0.91451 0.21535 0.86811 0.0
C5550 C 0.85814 0.1911 0.87643 0.0
C5551 C 0.84894 0.19617 0.87479 0.0
C5552 C 0.84879 0.20482 0.86805 0.0
C5553 C 0.85775 0.2085 0.86336 0.0
C5554 C 0.86698 0.2035 0.86549 0.0
C5555 C 0.86692 0.19489 0.87184 0.0
C5556 C 0.87715 0.19039 0.87345 0.0
C5557 C 0.88354 0.19781 0.86723 0.0
C5558 C 0.87766 0.2055 0.86245 0.0
C5559 C 0.87723 0.17941 0.86854 0.0
C5560 C 0.87955 0.19076 0.88529 0.0
H5561 H 0.91237 0.22163 0.84677 0.0
H5562 H 0.88117 0.24198 0.84073 0.0
H5563 H 0.87863 0.23424 0.86382 0.0
H5564 H 0.8678 0.22634 0.86428 0.0
H5565 H 0.86863 0.23637 0.85464 0.0
H5566 H 0.87604 0.21573 0.83586 0.0
H5567 H 0.86784 0.22655 0.83836 0.0
H5568 H 0.86549 0.21408 0.84411 0.0
H5569 H 0.92651 0.19766 0.87599 0.0
H5570 H 0.90811 0.17334 0.88924 0.0
H5571 H 0.89409 0.17878 0.87911 0.0
H5572 H 0.91608 0.19351 0.85203 0.0
H5573 H 0.92425 0.20451 0.85345 0.0
H5574 H 0.91277 0.20517 0.84589 0.0
H5575 H 0.91102 0.21643 0.87587 0.0
H5576 H 0.91288 0.22246 0.86372 0.0
H5577 H 0.92282 0.21486 0.86915 0.0
H5578 H 0.91348 0.23801 0.83783 0.0
C5579 C 0.90549 0.22585 0.84561 0.0
C5580 C 0.54093 0.07935 0.61927 0.0
C5581 C 0.54952 0.07511 0.62418 0.0
C5582 C 0.55908 0.07927 0.62197 0.0
C5583 C 0.55153 0.09239 0.61116 0.0
C5584 C 0.54214 0.08808 0.61279 0.0
C5585 C 0.53401 0.09413 0.6072 0.0
H5586 H 0.5205 0.13953 0.5845 0.0
C5587 C 0.55032 0.10188 0.60498 0.0
C5588 C 0.5401 0.10304 0.60253 0.0
H5589 H 0.50134 0.11355 0.59226 0.0
H5590 H 0.51596 0.10333 0.59664 0.0
H5591 H 0.53378 0.139 0.60288 0.0
H5592 H 0.53953 0.124 0.57355 0.0
H5593 H 0.55033 0.13097 0.57755 0.0
H5594 H 0.53873 0.13782 0.57507 0.0
H5595 H 0.53814 0.14615 0.59182 0.0
H5596 H 0.54676 0.13978 0.60056 0.0
C5597 C 0.5263 0.09792 0.61535 0.0
C5598 C 0.52947 0.08708 0.59871 0.0
C5599 C 0.58043 0.1255 0.60245 0.0
C5600 C 0.5817 0.13585 0.59939 0.0
C5601 C 0.57369 0.14088 0.59423 0.0
C5602 C 0.56444 0.13577 0.59256 0.0
C5603 C 0.56311 0.12563 0.59636 0.0
C5604 C 0.57115 0.12065 0.60097 0.0
C5605 C 0.56843 0.1102 0.60511 0.0
C5606 C 0.55735 0.10972 0.60243 0.0
C5607 C 0.55421 0.1187 0.59726 0.0
C5608 C 0.57029 0.11027 0.61704 0.0
C5609 C 0.57456 0.10202 0.59896 0.0
C5610 C 0.51946 0.1316 0.58706 0.0
C5611 C 0.50973 0.12742 0.58821 0.0
C5612 C 0.50873 0.117 0.59133 0.0
C5613 C 0.51723 0.1111 0.59402 0.0
C5614 C 0.52683 0.11568 0.59365 0.0
C5615 C 0.52787 0.1256 0.58975 0.0
C5616 C 0.53867 0.12916 0.58977 0.0
C5617 C 0.54387 0.11993 0.59467 0.0
C5618 C 0.53688 0.11204 0.59704 0.0
C5619 C 0.53946 0.13907 0.59652 0.0
C5620 C 0.54205 0.13065 0.5784 0.0
H5621 H 0.56764 0.09057 0.61429 0.0
H5622 H 0.5335 0.07615 0.62068 0.0
H5623 H 0.5354 0.08213 0.59514 0.0
H5624 H 0.52622 0.09151 0.59219 0.0
H5625 H 0.52361 0.08187 0.60199 0.0
H5626 H 0.53027 0.1013 0.62216 0.0
H5627 H 0.52156 0.0914 0.61814 0.0
H5628 H 0.52127 0.10407 0.61248 0.0
H5629 H 0.5863 0.12143 0.60665 0.0
H5630 H 0.5745 0.14884 0.5917 0.0
H5631 H 0.55856 0.14002 0.58873 0.0
H5632 H 0.57034 0.11827 0.62027 0.0
H5633 H 0.57766 0.10668 0.61902 0.0
H5634 H 0.56425 0.10635 0.62147 0.0
H5635 H 0.57557 0.10443 0.59074 0.0
H5636 H 0.5707 0.09443 0.59847 0.0
H5637 H 0.58218 0.10093 0.60236 0.0
H5638 H 0.56582 0.07593 0.62534 0.0
C5639 C 0.56013 0.08778 0.61547 0.0
C5640 C 0.66079 0.78544 0.38253 0.0
C5641 C 0.66221 0.79601 0.38497 0.0
C5642 C 0.65384 0.80272 0.38465 0.0
C5643 C 0.64274 0.7883 0.38119 0.0
C5644 C 0.65095 0.78177 0.38063 0.0
C5645 C 0.64777 0.77077 0.37831 0.0
H5646 H 0.61071 0.73469 0.37927 0.0
C5647 C 0.6335 0.78201 0.38034 0.0
C5648 C 0.6363 0.77171 0.37864 0.0
H5649 H 0.64237 0.73032 0.37231 0.0
H5650 H 0.6449 0.74878 0.37255 0.0
H5651 H 0.61381 0.75204 0.39682 0.0
H5652 H 0.60788 0.75668 0.36407 0.0
H5653 H 0.59939 0.76379 0.37195 0.0
H5654 H 0.5992 0.74985 0.37233 0.0
H5655 H 0.60205 0.74817 0.39107 0.0
H5656 H 0.60427 0.76135 0.395 0.0
C5657 C 0.65193 0.76369 0.38699 0.0
C5658 C 0.65154 0.768 0.3673 0.0
C5659 C 0.60107 0.79954 0.39034 0.0
C5660 C 0.59147 0.79603 0.39304 0.0
C5661 C 0.58896 0.78556 0.39122 0.0
C5662 C 0.59624 0.7786 0.38721 0.0
C5663 C 0.60612 0.78216 0.38521 0.0
C5664 C 0.60823 0.79256 0.38662 0.0
C5665 C 0.61905 0.79515 0.38482 0.0
C5666 C 0.6233 0.78462 0.38222 0.0
C5667 C 0.61578 0.77694 0.3823 0.0
C5668 C 0.62344 0.79965 0.39509 0.0
C5669 C 0.61958 0.80252 0.37535 0.0
C5670 C 0.61821 0.7377 0.37783 0.0
C5671 C 0.62638 0.73093 0.37594 0.0
C5672 C 0.63592 0.73526 0.37377 0.0
C5673 C 0.63741 0.74602 0.37403 0.0
C5674 C 0.62934 0.75258 0.37661 0.0
C5675 C 0.61984 0.74845 0.37809 0.0
C5676 C 0.61212 0.7567 0.38052 0.0
C5677 C 0.61856 0.76644 0.38036 0.0
C5678 C 0.62872 0.76391 0.37825 0.0
C5679 C 0.60774 0.75448 0.3914 0.0
C5680 C 0.60415 0.75677 0.3718 0.0
H5681 H 0.63818 0.80449 0.38284 0.0
H5682 H 0.66709 0.7801 0.38248 0.0
H5683 H 0.65145 0.77492 0.36215 0.0
H5684 H 0.64663 0.76231 0.36335 0.0
H5685 H 0.65939 0.765 0.36751 0.0
H5686 H 0.65066 0.7673 0.39472 0.0
H5687 H 0.66017 0.76244 0.38604 0.0
H5688 H 0.64823 0.75607 0.38738 0.0
H5689 H 0.60321 0.80754 0.39171 0.0
H5690 H 0.58155 0.78271 0.39328 0.0
H5691 H 0.594 0.77068 0.38612 0.0
H5692 H 0.6187 0.79769 0.40194 0.0
H5693 H 0.62401 0.80823 0.39478 0.0
H5694 H 0.63091 0.79638 0.39709 0.0
H5695 H 0.61389 0.80033 0.36939 0.0
H5696 H 0.6269 0.80215 0.37125 0.0
H5697 H 0.61804 0.81066 0.37767 0.0
H5698 H 0.65473 0.81096 0.386 0.0
C5699 C 0.64418 0.79895 0.38274 0.0
C5700 C 0.94854 0.85048 0.16209 0.0
C5701 C 0.95122 0.8401 0.16382 0.0
C5702 C 0.96042 0.83647 0.15964 0.0
C5703 C 0.96361 0.85335 0.15172 0.0
C5704 C 0.95474 0.85684 0.15609 0.0
C5705 C 0.95231 0.86775 0.15315 0.0
H5706 H 0.95922 0.90984 0.12359 0.0
C5707 C 0.96771 0.86193 0.14521 0.0
C5708 C 0.96102 0.87029 0.14603 0.0
H5709 H 0.93608 0.90322 0.14632 0.0
H5710 H 0.94417 0.88747 0.15071 0.0
H5711 H 0.97836 0.90062 0.13933 0.0
H5712 H 0.96205 0.88552 0.11435 0.0
H5713 H 0.9753 0.88454 0.11282 0.0
H5714 H 0.9694 0.89705 0.11217 0.0
H5715 H 0.97929 0.90515 0.12618 0.0
H5716 H 0.98662 0.89429 0.13068 0.0
C5717 C 0.95265 0.87439 0.1632 0.0
C5718 C 0.94202 0.86768 0.14735 0.0
C5719 C 1.0 0.85679 0.12464 0.0
C5720 C 0.00583 0.86309 0.11801 0.0
C5721 C 1.00215 0.87314 0.11575 0.0
C5722 C 0.99305 0.87682 0.1201 0.0
C5723 C 0.98749 0.87045 0.12687 0.0
C5724 C 0.99106 0.86061 0.12903 0.0
C5725 C 0.98438 0.85485 0.13647 0.0
C5726 C 0.97626 0.86282 0.13858 0.0
C5727 C 0.97799 0.87201 0.13288 0.0
C5728 C 0.99055 0.85237 0.14634 0.0
C5729 C 0.98016 0.8452 0.13084 0.0
C5730 C 0.95594 0.9049 0.12947 0.0
C5731 C 0.94672 0.90766 0.13435 0.0
C5732 C 0.94289 0.90116 0.14215 0.0
C5733 C 0.94769 0.89196 0.14478 0.0
C5734 C 0.9565 0.88898 0.13956 0.0
C5735 C 0.9607 0.89544 0.13221 0.0
C5736 C 0.97045 0.89086 0.128 0.0
C5737 C 0.97098 0.88044 0.13368 0.0
C5738 C 0.96269 0.87952 0.14036 0.0
C5739 C 0.97919 0.8981 0.13112 0.0
C5740 C 0.96932 0.88943 0.11618 0.0
H5741 H 0.97359 0.83986 0.15073 0.0
H5742 H 0.94147 0.85356 0.16496 0.0
H5743 H 0.94064 0.86013 0.14342 0.0
H5744 H 0.94161 0.87339 0.14099 0.0
H5745 H 0.93565 0.86903 0.15278 0.0
H5746 H 0.95818 0.87122 0.16887 0.0
H5747 H 0.94517 0.87459 0.16707 0.0
H5748 H 0.95526 0.88242 0.1618 0.0
H5749 H 1.0023 0.84894 0.12642 0.0
H5750 H 0.00642 0.87829 0.11078 0.0
H5751 H 0.99072 0.88451 0.11809 0.0
H5752 H 0.99533 0.85911 0.14858 0.0
H5753 H 0.99561 0.84563 0.14505 0.0
H5754 H 0.98574 0.8508 0.15315 0.0
H5755 H 0.97827 0.84706 0.12265 0.0
H5756 H 0.97306 0.84233 0.13423 0.0
H5757 H 0.98578 0.83881 0.13078 0.0
H5758 H 0.96275 0.82853 0.16092 0.0
C5759 C 0.96668 0.84306 0.15369 0.0
C5760 C 0.64905 0.89279 0.76817 0.0
C5761 C 0.64587 0.89847 0.75944 0.0
C5762 C 0.64119 0.90816 0.76092 0.0
C5763 C 0.64186 0.90597 0.77953 0.0
C5764 C 0.64697 0.89671 0.77816 0.0
C5765 C 0.649 0.89142 0.78839 0.0
H5766 H 0.63931 0.88886 0.83999 0.0
C5767 C 0.63996 0.90746 0.79072 0.0
C5768 C 0.6442 0.89897 0.796 0.0
H5769 H 0.6534 0.86564 0.82059 0.0
H5770 H 0.65368 0.87764 0.80625 0.0
H5771 H 0.65243 0.90904 0.82952 0.0
H5772 H 0.62363 0.8945 0.82687 0.0
H5773 H 0.62113 0.90728 0.82331 0.0
H5774 H 0.62587 0.9046 0.83612 0.0
H5775 H 0.64243 0.91048 0.83879 0.0
H5776 H 0.64371 0.91916 0.82786 0.0
C5777 C 0.66053 0.89083 0.78998 0.0
C5778 C 0.64366 0.88073 0.78835 0.0
C5779 C 0.61572 0.93551 0.80342 0.0
C5780 C 0.61257 0.93825 0.81348 0.0
C5781 C 0.61754 0.93398 0.8221 0.0
C5782 C 0.62502 0.92649 0.82081 0.0
C5783 C 0.6276 0.92321 0.81079 0.0
C5784 C 0.62347 0.9281 0.80228 0.0
C5785 C 0.62791 0.924 0.79231 0.0
C5786 C 0.6345 0.91516 0.79629 0.0
C5787 C 0.63409 0.9147 0.80713 0.0
C5788 C 0.63436 0.93272 0.78741 0.0
C5789 C 0.61917 0.92009 0.78537 0.0
C5790 C 0.64249 0.88631 0.83268 0.0
C5791 C 0.64613 0.87614 0.83146 0.0
C5792 C 0.65049 0.87337 0.82184 0.0
C5793 C 0.65052 0.88031 0.81344 0.0
C5794 C 0.646 0.89008 0.81455 0.0
C5795 C 0.6424 0.89305 0.82416 0.0
C5796 C 0.63761 0.90358 0.82392 0.0
C5797 C 0.6383 0.90614 0.81248 0.0
C5798 C 0.64335 0.89831 0.80699 0.0
C5799 C 0.6443 0.911 0.83041 0.0
C5800 C 0.62653 0.90255 0.82779 0.0
H5801 H 0.63543 0.91926 0.77142 0.0
H5802 H 0.65258 0.88527 0.76726 0.0
H5803 H 0.63704 0.88069 0.78304 0.0
H5804 H 0.64047 0.87864 0.79598 0.0
H5805 H 0.64886 0.87449 0.78576 0.0
H5806 H 0.66409 0.89845 0.78825 0.0
H5807 H 0.66394 0.88496 0.78473 0.0
H5808 H 0.66262 0.88894 0.79805 0.0
H5809 H 0.61205 0.93879 0.79667 0.0
H5810 H 0.6152 0.93602 0.82989 0.0
H5811 H 0.62815 0.92317 0.82771 0.0
H5812 H 0.63784 0.93769 0.79349 0.0
H5813 H 0.6297 0.93781 0.78238 0.0
H5814 H 0.64083 0.92971 0.78292 0.0
H5815 H 0.61355 0.91576 0.79008 0.0
H5816 H 0.62161 0.91462 0.77931 0.0
H5817 H 0.61522 0.92668 0.7816 0.0
H5818 H 0.63875 0.91267 0.7543 0.0
C5819 C 0.63924 0.91196 0.77087 0.0
C5820 C 0.86816 0.87727 0.48771 0.0
C5821 C 0.87637 0.8791 0.48098 0.0
C5822 C 0.8859 0.88126 0.48536 0.0
C5823 C 0.87922 0.87847 0.50266 0.0
C5824 C 0.86974 0.87702 0.49847 0.0
C5825 C 0.86197 0.87462 0.50667 0.0
H5826 H 0.8527 0.86365 0.55748 0.0
C5827 C 0.87853 0.87687 0.51399 0.0
C5828 C 0.86834 0.87482 0.51645 0.0
H5829 H 0.83127 0.86173 0.53245 0.0
H5830 H 0.84375 0.86899 0.5205 0.0
H5831 H 0.86813 0.8534 0.54795 0.0
H5832 H 0.86336 0.88592 0.55032 0.0
H5833 H 0.87638 0.88413 0.55213 0.0
H5834 H 0.86757 0.8777 0.56068 0.0
H5835 H 0.87364 0.86064 0.55832 0.0
H5836 H 0.88035 0.85811 0.54641 0.0
C5837 C 0.85761 0.86374 0.50444 0.0
C5838 C 0.85399 0.88333 0.50667 0.0
C5839 C 0.91031 0.87192 0.5358 0.0
C5840 C 0.91157 0.86944 0.5464 0.0
C5841 C 0.90318 0.87011 0.55305 0.0
C5842 C 0.89363 0.87236 0.54919 0.0
C5843 C 0.89231 0.87387 0.53852 0.0
C5844 C 0.90058 0.87417 0.53205 0.0
C5845 C 0.89753 0.87657 0.52102 0.0
C5846 C 0.88605 0.87645 0.52185 0.0
C5847 C 0.88315 0.87486 0.53215 0.0
C5848 C 0.90162 0.86786 0.51393 0.0
C5849 C 0.90151 0.88752 0.51833 0.0
C5850 C 0.85062 0.86498 0.54946 0.0
C5851 C 0.84108 0.86215 0.54587 0.0
C5852 C 0.83864 0.86388 0.53537 0.0
C5853 C 0.84594 0.86794 0.52845 0.0
C5854 C 0.85578 0.87004 0.53208 0.0
C5855 C 0.8578 0.86869 0.54251 0.0
C5856 C 0.8686 0.87049 0.54519 0.0
C5857 C 0.87292 0.87304 0.53468 0.0
C5858 C 0.86547 0.87292 0.52694 0.0
C5859 C 0.87295 0.86022 0.54975 0.0
C5860 C 0.86908 0.88 0.55253 0.0
H5861 H 0.89481 0.88249 0.49894 0.0
H5862 H 0.86068 0.87584 0.48467 0.0
H5863 H 0.85772 0.89106 0.50662 0.0
H5864 H 0.84916 0.88317 0.51363 0.0
H5865 H 0.8491 0.8828 0.49969 0.0
H5866 H 0.8637 0.85832 0.502 0.0
H5867 H 0.85192 0.86405 0.49813 0.0
H5868 H 0.85415 0.86012 0.51131 0.0
H5869 H 0.91665 0.87174 0.53052 0.0
H5870 H 0.90398 0.86877 0.5613 0.0
H5871 H 0.88759 0.87253 0.55469 0.0
H5872 H 0.90013 0.86014 0.51745 0.0
H5873 H 0.90989 0.86864 0.51283 0.0
H5874 H 0.89804 0.86764 0.50624 0.0
H5875 H 0.90132 0.89268 0.52525 0.0
H5876 H 0.89679 0.89153 0.51252 0.0
H5877 H 0.90943 0.88719 0.51554 0.0
H5878 H 0.89237 0.88269 0.48044 0.0
C5879 C 0.88734 0.88102 0.49613 0.0
C5880 C 0.85457 0.15429 0.31133 0.0
C5881 C 0.86121 0.15813 0.31898 0.0
C5882 C 0.86175 0.153 0.32859 0.0
C5883 C 0.85059 0.13957 0.32235 0.0
C5884 C 0.84934 0.14495 0.3132 0.0
C5885 C 0.84248 0.13919 0.30584 0.0
H5886 H 0.82446 0.09285 0.29022 0.0
C5887 C 0.8456 0.12941 0.32134 0.0
C5888 C 0.84083 0.12904 0.31167 0.0
H5889 H 0.82262 0.12249 0.27454 0.0
H5890 H 0.82845 0.13106 0.28989 0.0
H5891 H 0.84451 0.09501 0.29786 0.0
H5892 H 0.81783 0.10253 0.31548 0.0
H5893 H 0.82603 0.09413 0.32245 0.0
H5894 H 0.82071 0.08991 0.31034 0.0
H5895 H 0.83786 0.08529 0.30506 0.0
H5896 H 0.84758 0.09319 0.31091 0.0
C5897 C 0.8482 0.13763 0.29549 0.0
C5898 C 0.83254 0.1454 0.30485 0.0
C5899 C 0.85545 0.102 0.34717 0.0
C5900 C 0.8568 0.09125 0.34599 0.0
C5901 C 0.85104 0.08616 0.33827 0.0
C5902 C 0.84508 0.09187 0.33123 0.0
C5903 C 0.84534 0.10277 0.33152 0.0
C5904 C 0.85041 0.1076 0.33952 0.0
C5905 C 0.85167 0.11901 0.33779 0.0
C5906 C 0.84633 0.12036 0.32752 0.0
C5907 C 0.84239 0.11091 0.32395 0.0
C5908 C 0.86319 0.12142 0.33706 0.0
C5909 C 0.84605 0.12479 0.34656 0.0
C5910 C 0.82525 0.1012 0.29005 0.0
C5911 C 0.82328 0.10688 0.28092 0.0
C5912 C 0.82407 0.1178 0.28133 0.0
C5913 C 0.82764 0.12281 0.29023 0.0
C5914 C 0.83072 0.11689 0.29877 0.0
C5915 C 0.82901 0.10633 0.29884 0.0
C5916 C 0.83292 0.10129 0.30857 0.0
C5917 C 0.83734 0.11055 0.31424 0.0
C5918 C 0.8362 0.11966 0.30835 0.0
C5919 C 0.84109 0.09322 0.30553 0.0
C5920 C 0.82392 0.09665 0.31457 0.0
H5921 H 0.85716 0.14038 0.33783 0.0
H5922 H 0.8538 0.15822 0.30396 0.0
H5923 H 0.83062 0.14931 0.31229 0.0
H5924 H 0.82596 0.14041 0.30317 0.0
H5925 H 0.83317 0.15148 0.29879 0.0
H5926 H 0.85609 0.13511 0.29699 0.0
H5927 H 0.84848 0.14497 0.29101 0.0
H5928 H 0.84493 0.1316 0.29049 0.0
H5929 H 0.85922 0.10626 0.35327 0.0
H5930 H 0.85161 0.07786 0.3372 0.0
H5931 H 0.84103 0.08762 0.3254 0.0
H5932 H 0.86787 0.11432 0.33622 0.0
H5933 H 0.86592 0.12552 0.34409 0.0
H5934 H 0.86516 0.12601 0.33011 0.0
H5935 H 0.83865 0.12105 0.34819 0.0
H5936 H 0.84426 0.13291 0.34451 0.0
H5937 H 0.85053 0.1247 0.35384 0.0
H5938 H 0.86644 0.15603 0.33477 0.0
C5939 C 0.85638 0.14388 0.33036 0.0
C5940 C 0.60386 0.11908 0.05451 0.0
C5941 C 0.60183 0.12564 0.06309 0.0
C5942 C 0.60966 0.12777 0.07012 0.0
C5943 C 0.62152 0.11832 0.05953 0.0
C5944 C 0.61384 0.11547 0.0529 0.0
C5945 C 0.61787 0.10888 0.04406 0.0
H5946 H 0.65945 0.09035 0.0187 0.0
C5947 C 0.63116 0.11453 0.05532 0.0
C5948 C 0.62922 0.10886 0.04628 0.0
H5949 H 0.62822 0.08801 0.009 0.0
H5950 H 0.62295 0.09549 0.02522 0.0
H5951 H 0.65783 0.11256 0.02369 0.0
H5952 H 0.65625 0.08686 0.04502 0.0
H5953 H 0.66515 0.09623 0.04926 0.0
H5954 H 0.66701 0.08977 0.03704 0.0
H5955 H 0.66903 0.10645 0.02854 0.0
H5956 H 0.66289 0.11689 0.03543 0.0
C5957 C 0.61531 0.11433 0.03374 0.0
C5958 C 0.61333 0.09792 0.04508 0.0
C5959 C 0.66263 0.12991 0.07066 0.0
C5960 C 0.6727 0.13023 0.06746 0.0
C5961 C 0.67599 0.12327 0.05974 0.0
C5962 C 0.66904 0.11664 0.05474 0.0
C5963 C 0.65872 0.11716 0.05741 0.0
C5964 C 0.65582 0.12351 0.06549 0.0
C5965 C 0.64468 0.12357 0.06719 0.0
C5966 C 0.64118 0.11669 0.05843 0.0
C5967 C 0.64936 0.11278 0.05278 0.0
C5968 C 0.64087 0.13495 0.06606 0.0
C5969 C 0.64265 0.11845 0.07787 0.0
C5970 C 0.65145 0.09151 0.01984 0.0
C5971 C 0.64436 0.08874 0.01215 0.0
C5972 C 0.634 0.09003 0.01455 0.0
C5973 C 0.6309 0.09459 0.02396 0.0
C5974 C 0.63818 0.09824 0.03099 0.0
C5975 C 0.64827 0.09648 0.02893 0.0
C5976 C 0.6551 0.10164 0.03666 0.0
C5977 C 0.6475 0.10662 0.04385 0.0
C5978 C 0.63751 0.10459 0.0406 0.0
C5979 C 0.66163 0.10977 0.03086 0.0
C5980 C 0.66128 0.09321 0.0423 0.0
H5981 H 0.62492 0.12632 0.07404 0.0
H5982 H 0.59794 0.1171 0.04907 0.0
H5983 H 0.6138 0.09519 0.05325 0.0
H5984 H 0.61742 0.0921 0.04042 0.0
H5985 H 0.60526 0.09789 0.04275 0.0
H5986 H 0.61674 0.1228 0.03436 0.0
H5987 H 0.60724 0.11321 0.03171 0.0
H5988 H 0.61999 0.11166 0.02721 0.0
H5989 H 0.65993 0.1351 0.07666 0.0
H5990 H 0.68379 0.12334 0.05724 0.0
H5991 H 0.67186 0.11164 0.04875 0.0
H5992 H 0.64619 0.1398 0.06149 0.0
H5993 H 0.63993 0.13871 0.07374 0.0
H5994 H 0.63372 0.13558 0.0617 0.0
H5995 H 0.64829 0.11228 0.07957 0.0
H5996 H 0.63529 0.1144 0.07821 0.0
H5997 H 0.64308 0.12423 0.08424 0.0
H5998 H 0.60828 0.1324 0.07699 0.0
C5999 C 0.61938 0.12412 0.06844 0.0
C6000 C 0.6491 0.11238 0.73708 0.0
C6001 C 0.64594 0.10662 0.74577 0.0
C6002 C 0.64128 0.09693 0.74421 0.0
C6003 C 0.6419 0.09929 0.72562 0.0
C6004 C 0.647 0.10855 0.72706 0.0
C6005 C 0.64899 0.11394 0.71688 0.0
H6006 H 0.63932 0.11689 0.66532 0.0
C6007 C 0.63997 0.09791 0.71442 0.0
C6008 C 0.64417 0.10645 0.70921 0.0
H6009 H 0.65325 0.14004 0.68492 0.0
H6010 H 0.65355 0.12793 0.69916 0.0
H6011 H 0.65227 0.09666 0.67549 0.0
H6012 H 0.62353 0.11129 0.67866 0.0
H6013 H 0.62103 0.09842 0.68183 0.0
H6014 H 0.62573 0.10149 0.66909 0.0
H6015 H 0.64219 0.09531 0.66631 0.0
H6016 H 0.64355 0.08655 0.67717 0.0
C6017 C 0.66052 0.11455 0.71525 0.0
C6018 C 0.64364 0.12463 0.71704 0.0
C6019 C 0.61582 0.06986 0.70152 0.0
C6020 C 0.61261 0.06724 0.69144 0.0
C6021 C 0.61746 0.07168 0.68285 0.0
C6022 C 0.62491 0.0792 0.68417 0.0
C6023 C 0.62756 0.08234 0.69422 0.0
C6024 C 0.62352 0.0773 0.7027 0.0
C6025 C 0.62799 0.08132 0.71269 0.0
C6026 C 0.6345 0.09025 0.70879 0.0
C6027 C 0.63404 0.09083 0.69796 0.0
C6028 C 0.63452 0.07258 0.71744 0.0
C6029 C 0.61926 0.08509 0.71972 0.0
C6030 C 0.64246 0.11941 0.67265 0.0
C6031 C 0.64605 0.12958 0.67395 0.0
C6032 C 0.65038 0.1323 0.6836 0.0
C6033 C 0.65041 0.1253 0.69195 0.0
C6034 C 0.64593 0.11552 0.69075 0.0
C6035 C 0.64235 0.11262 0.68111 0.0
C6036 C 0.63751 0.10212 0.68127 0.0
C6037 C 0.63823 0.09945 0.69269 0.0
C6038 C 0.64328 0.10723 0.69823 0.0
C6039 C 0.64412 0.09473 0.67467 0.0
C6040 C 0.62642 0.10327 0.67748 0.0
H6041 H 0.63552 0.08592 0.73362 0.0
H6042 H 0.65262 0.11989 0.73805 0.0
H6043 H 0.6371 0.12465 0.72244 0.0
H6044 H 0.64035 0.12673 0.70946 0.0
H6045 H 0.64888 0.13086 0.71956 0.0
H6046 H 0.66408 0.10691 0.71686 0.0
H6047 H 0.66394 0.12035 0.72056 0.0
H6048 H 0.66258 0.11654 0.7072 0.0
H6049 H 0.61223 0.06645 0.70824 0.0
H6050 H 0.61507 0.06973 0.67505 0.0
H6051 H 0.62795 0.08264 0.6773 0.0
H6052 H 0.63809 0.06779 0.71128 0.0
H6053 H 0.62989 0.06733 0.72234 0.0
H6054 H 0.64093 0.07557 0.72204 0.0
H6055 H 0.61354 0.08937 0.71508 0.0
H6056 H 0.62169 0.09056 0.72578 0.0
H6057 H 0.61542 0.07843 0.7235 0.0
H6058 H 0.63886 0.09236 0.75079 0.0
C6059 C 0.63932 0.09322 0.73422 0.0
C6060 C 0.60351 0.88581 0.45039 0.0
C6061 C 0.60151 0.87914 0.44189 0.0
C6062 C 0.60935 0.87694 0.4349 0.0
C6063 C 0.62117 0.88654 0.44539 0.0
C6064 C 0.61348 0.88945 0.45197 0.0
C6065 C 0.61747 0.89617 0.46073 0.0
H6066 H 0.65893 0.91515 0.48596 0.0
C6067 C 0.6308 0.8904 0.44957 0.0
C6068 C 0.62882 0.8962 0.45853 0.0
H6069 H 0.6277 0.91759 0.49557 0.0
H6070 H 0.62245 0.90988 0.4794 0.0
H6071 H 0.65728 0.89288 0.48131 0.0
H6072 H 0.65585 0.91816 0.45944 0.0
H6073 H 0.66484 0.90872 0.45555 0.0
H6074 H 0.66653 0.91547 0.46762 0.0
H6075 H 0.66851 0.89891 0.47644 0.0
H6076 H 0.66242 0.88836 0.46968 0.0
C6077 C 0.61492 0.89086 0.47112 0.0
C6078 C 0.6129 0.90711 0.45956 0.0
C6079 C 0.66234 0.87498 0.43441 0.0
C6080 C 0.67239 0.87461 0.43768 0.0
C6081 C 0.67565 0.88158 0.44541 0.0
C6082 C 0.66868 0.88825 0.45035 0.0
C6083 C 0.65837 0.88776 0.44761 0.0
C6084 C 0.6555 0.88138 0.43954 0.0
C6085 C 0.64437 0.88129 0.43781 0.0
C6086 C 0.64083 0.88823 0.44652 0.0
C6087 C 0.64898 0.89219 0.45217 0.0
C6088 C 0.64059 0.86991 0.43901 0.0
C6089 C 0.64235 0.88633 0.42709 0.0
C6090 C 0.65093 0.91398 0.48479 0.0
C6091 C 0.64382 0.91681 0.49244 0.0
C6092 C 0.63347 0.9155 0.49003 0.0
C6093 C 0.6304 0.91082 0.48066 0.0
C6094 C 0.6377 0.90708 0.47369 0.0
C6095 C 0.64778 0.9089 0.47575 0.0
C6096 C 0.65464 0.90359 0.46814 0.0
C6097 C 0.64708 0.89849 0.461 0.0
C6098 C 0.63708 0.90056 0.46418 0.0
C6099 C 0.66113 0.89556 0.47412 0.0
C6100 C 0.66087 0.9119 0.46237 0.0
H6101 H 0.62462 0.87838 0.43097 0.0
H6102 H 0.59758 0.88785 0.4558 0.0
H6103 H 0.61331 0.9097 0.45134 0.0
H6104 H 0.61701 0.91301 0.46409 0.0
H6105 H 0.60485 0.90715 0.46193 0.0
H6106 H 0.61637 0.88238 0.47062 0.0
H6107 H 0.60684 0.89198 0.47312 0.0
H6108 H 0.61958 0.89364 0.47761 0.0
H6109 H 0.65965 0.86981 0.42838 0.0
H6110 H 0.68343 0.8815 0.44797 0.0
H6111 H 0.67148 0.89327 0.45634 0.0
H6112 H 0.64594 0.86508 0.44358 0.0
H6113 H 0.63963 0.86611 0.43135 0.0
H6114 H 0.63346 0.86929 0.4434 0.0
H6115 H 0.64793 0.89256 0.42542 0.0
H6116 H 0.63495 0.89028 0.42668 0.0
H6117 H 0.64291 0.88052 0.42076 0.0
H6118 H 0.60799 0.87222 0.42808 0.0
C6119 C 0.61906 0.88062 0.43655 0.0
C6120 C 0.85454 0.85063 0.19396 0.0
C6121 C 0.86115 0.84676 0.18629 0.0
C6122 C 0.86164 0.85184 0.17665 0.0
C6123 C 0.85052 0.86529 0.18289 0.0
C6124 C 0.8493 0.85995 0.19207 0.0
C6125 C 0.84244 0.86574 0.19942 0.0
H6126 H 0.82455 0.91217 0.21495 0.0
C6127 C 0.84555 0.87547 0.18387 0.0
C6128 C 0.8408 0.87587 0.19356 0.0
H6129 H 0.82251 0.88255 0.23064 0.0
H6130 H 0.82836 0.87393 0.21532 0.0
H6131 H 0.84461 0.9099 0.20738 0.0
H6132 H 0.81794 0.90253 0.1897 0.0
H6133 H 0.8262 0.91086 0.18273 0.0
H6134 H 0.8209 0.91514 0.19483 0.0
H6135 H 0.83807 0.91964 0.20011 0.0
H6136 H 0.84776 0.91163 0.19434 0.0
C6137 C 0.84817 0.86733 0.20976 0.0
C6138 C 0.8325 0.85954 0.20044 0.0
C6139 C 0.85544 0.90282 0.15797 0.0
C6140 C 0.85687 0.91357 0.15912 0.0
C6141 C 0.8512 0.91867 0.16693 0.0
C6142 C 0.84525 0.91299 0.17401 0.0
C6143 C 0.84544 0.90209 0.1737 0.0
C6144 C 0.85044 0.89724 0.16568 0.0
C6145 C 0.85162 0.88582 0.16739 0.0
C6146 C 0.84631 0.88451 0.17769 0.0
C6147 C 0.84245 0.89398 0.18126 0.0
C6148 C 0.86313 0.88332 0.16806 0.0
C6149 C 0.84594 0.88008 0.15864 0.0
C6150 C 0.8253 0.90381 0.21512 0.0
C6151 C 0.82326 0.89815 0.22425 0.0
C6152 C 0.82401 0.88723 0.22386 0.0
C6153 C 0.8276 0.88219 0.21497 0.0
C6154 C 0.83073 0.88809 0.20644 0.0
C6155 C 0.82907 0.89865 0.20636 0.0
C6156 C 0.83303 0.90367 0.19663 0.0
C6157 C 0.8374 0.89438 0.19097 0.0
C6158 C 0.83621 0.88528 0.19687 0.0
C6159 C 0.84124 0.91168 0.19969 0.0
C6160 C 0.82406 0.90836 0.19062 0.0
H6161 H 0.85698 0.8644 0.16737 0.0
H6162 H 0.8538 0.84673 0.20135 0.0
H6163 H 0.8306 0.85556 0.19303 0.0
H6164 H 0.82592 0.86455 0.20206 0.0
H6165 H 0.83312 0.85351 0.20655 0.0
H6166 H 0.85603 0.86993 0.20824 0.0
H6167 H 0.84853 0.85998 0.21422 0.0
H6168 H 0.84485 0.87331 0.21478 0.0
H6169 H 0.85898 0.89849 0.15179 0.0
H6170 H 0.85176 0.92695 0.16805 0.0
H6171 H 0.84126 0.91726 0.17985 0.0
H6172 H 0.86788 0.89039 0.16875 0.0
H6173 H 0.86578 0.87908 0.16108 0.0
H6174 H 0.86511 0.87881 0.17507 0.0
H6175 H 0.83855 0.88386 0.15705 0.0
H6176 H 0.84412 0.87197 0.16069 0.0
H6177 H 0.85038 0.88015 0.15134 0.0
H6178 H 0.8663 0.84878 0.17046 0.0
C6179 C 0.85625 0.86095 0.17487 0.0
C6180 C 0.86821 0.12774 0.01755 0.0
C6181 C 0.87641 0.12589 0.02429 0.0
C6182 C 0.88595 0.12376 0.01993 0.0
C6183 C 0.87931 0.12668 0.00263 0.0
C6184 C 0.86982 0.12806 0.0068 0.0
C6185 C 0.86203 0.13041 0.99861 0.0
H6186 H 0.85273 0.14133 0.94779 0.0
C6187 C 0.87859 0.12822 0.99129 0.0
C6188 C 0.8684 0.13022 0.98883 0.0
H6189 H 0.8313 0.14327 0.97281 0.0
H6190 H 0.84378 0.13601 0.98476 0.0
H6191 H 0.86815 0.15159 0.9573 0.0
H6192 H 0.86339 0.11907 0.95496 0.0
H6193 H 0.87642 0.12086 0.95315 0.0
H6194 H 0.8676 0.12728 0.9446 0.0
H6195 H 0.87367 0.14434 0.94694 0.0
H6196 H 0.88038 0.14689 0.95886 0.0
C6197 C 0.85763 0.14128 1.00082 0.0
C6198 C 0.85407 0.12168 0.99862 0.0
C6199 C 0.91034 0.13309 0.96946 0.0
C6200 C 0.9116 0.13557 0.95887 0.0
C6201 C 0.90321 0.13488 0.95222 0.0
C6202 C 0.89366 0.13263 0.95608 0.0
C6203 C 0.89234 0.13113 0.96675 0.0
C6204 C 0.90061 0.13084 0.97322 0.0
C6205 C 0.89757 0.12845 0.98425 0.0
C6206 C 0.88609 0.12859 0.98342 0.0
C6207 C 0.88318 0.13015 0.97312 0.0
C6208 C 0.90166 0.13717 0.99133 0.0
C6209 C 0.90153 0.1175 0.98695 0.0
C6210 C 0.85065 0.14001 0.95581 0.0
C6211 C 0.8411 0.14284 0.95939 0.0
C6212 C 0.83867 0.14111 0.9699 0.0
C6213 C 0.84596 0.13705 0.97682 0.0
C6214 C 0.85581 0.13496 0.97319 0.0
C6215 C 0.85783 0.1363 0.96276 0.0
C6216 C 0.86863 0.1345 0.96008 0.0
C6217 C 0.87296 0.13195 0.97059 0.0
C6218 C 0.86551 0.13208 0.97833 0.0
C6219 C 0.87298 0.14476 0.95551 0.0
C6220 C 0.86911 0.12499 0.95275 0.0
H6221 H 0.89489 0.12259 0.00636 0.0
H6222 H 0.86071 0.12911 0.02059 0.0
H6223 H 0.85782 0.11396 0.99867 0.0
H6224 H 0.84924 0.12183 0.99166 0.0
H6225 H 0.84919 0.1222 0.0056 0.0
H6226 H 0.8637 0.14673 0.00325 0.0
H6227 H 0.85194 0.14096 0.00713 0.0
H6228 H 0.85417 0.14488 0.99394 0.0
H6229 H 0.91668 0.13328 0.97475 0.0
H6230 H 0.90401 0.13622 0.94397 0.0
H6231 H 0.88762 0.13246 0.95058 0.0
H6232 H 0.90017 0.14489 0.98781 0.0
H6233 H 0.90994 0.13639 0.99243 0.0
H6234 H 0.89809 0.13741 0.99902 0.0
H6235 H 0.90133 0.11233 0.98004 0.0
H6236 H 0.89682 0.11352 0.99278 0.0
H6237 H 0.90946 0.11782 0.98973 0.0
H6238 H 0.8924 0.12227 0.02485 0.0
C6239 C 0.88741 0.12408 0.00916 0.0
C6240 C 0.79095 0.63584 0.82945 0.0
C6241 C 0.79953 0.63093 0.8252 0.0
C6242 C 0.80909 0.63314 0.82936 0.0
C6243 C 0.80156 0.64396 0.84248 0.0
C6244 C 0.79216 0.64233 0.83817 0.0
C6245 C 0.78404 0.64792 0.84422 0.0
H6246 H 0.77053 0.67065 0.88961 0.0
C6247 C 0.80035 0.65014 0.85197 0.0
C6248 C 0.79013 0.65259 0.85313 0.0
H6249 H 0.75138 0.66289 0.86361 0.0
H6250 H 0.766 0.65848 0.8534 0.0
H6251 H 0.7838 0.65224 0.88907 0.0
H6252 H 0.78957 0.68157 0.87411 0.0
H6253 H 0.80036 0.67756 0.88108 0.0
H6254 H 0.78877 0.68004 0.88793 0.0
H6255 H 0.78815 0.6633 0.89624 0.0
H6256 H 0.79678 0.65456 0.88987 0.0
C6257 C 0.77633 0.63977 0.84802 0.0
C6258 C 0.77949 0.65641 0.83717 0.0
C6259 C 0.83046 0.65266 0.87559 0.0
C6260 C 0.83172 0.65571 0.88594 0.0
C6261 C 0.82372 0.66088 0.89098 0.0
C6262 C 0.81446 0.66254 0.88587 0.0
C6263 C 0.81314 0.65875 0.87572 0.0
C6264 C 0.82118 0.65414 0.87074 0.0
C6265 C 0.81846 0.65 0.86029 0.0
C6266 C 0.80738 0.65269 0.85981 0.0
C6267 C 0.80424 0.65785 0.86879 0.0
C6268 C 0.82032 0.63807 0.86035 0.0
C6269 C 0.82459 0.65615 0.85211 0.0
C6270 C 0.7695 0.66809 0.88168 0.0
C6271 C 0.75977 0.66695 0.87749 0.0
C6272 C 0.75877 0.66381 0.86706 0.0
C6273 C 0.76727 0.66111 0.86117 0.0
C6274 C 0.77687 0.66147 0.86576 0.0
C6275 C 0.77791 0.66537 0.87568 0.0
C6276 C 0.7887 0.66535 0.87926 0.0
C6277 C 0.7939 0.66045 0.87002 0.0
C6278 C 0.78692 0.65808 0.86213 0.0
C6279 C 0.78948 0.65859 0.88916 0.0
C6280 C 0.79208 0.67672 0.88076 0.0
H6281 H 0.81766 0.64082 0.84065 0.0
H6282 H 0.78352 0.63443 0.82625 0.0
H6283 H 0.78543 0.65996 0.83221 0.0
H6284 H 0.77627 0.66294 0.8416 0.0
H6285 H 0.77362 0.65313 0.83198 0.0
H6286 H 0.7803 0.63296 0.85138 0.0
H6287 H 0.77158 0.63699 0.84149 0.0
H6288 H 0.77131 0.64264 0.85418 0.0
H6289 H 0.83633 0.64846 0.87152 0.0
H6290 H 0.82453 0.6634 0.89894 0.0
H6291 H 0.80859 0.66638 0.89013 0.0
H6292 H 0.82036 0.63485 0.86836 0.0
H6293 H 0.82769 0.63608 0.85676 0.0
H6294 H 0.81428 0.63365 0.85643 0.0
H6295 H 0.82561 0.66436 0.85453 0.0
H6296 H 0.82073 0.65664 0.84452 0.0
H6297 H 0.83221 0.65275 0.85102 0.0
H6298 H 0.81584 0.62976 0.82601 0.0
C6299 C 0.81015 0.63965 0.83787 0.0
C6300 C 0.29101 0.86913 0.17569 0.0
C6301 C 0.2996 0.87405 0.1799 0.0
C6302 C 0.30914 0.87187 0.17569 0.0
C6303 C 0.30157 0.86105 0.16259 0.0
C6304 C 0.29219 0.86266 0.16695 0.0
C6305 C 0.28405 0.85706 0.16093 0.0
H6306 H 0.27039 0.83422 0.11565 0.0
C6307 C 0.30033 0.85486 0.15311 0.0
C6308 C 0.29011 0.85239 0.152 0.0
H6309 H 0.25132 0.8421 0.14168 0.0
H6310 H 0.26598 0.84652 0.15183 0.0
H6311 H 0.28368 0.85262 0.11609 0.0
H6312 H 0.28952 0.82336 0.13116 0.0
H6313 H 0.30026 0.82734 0.12407 0.0
H6314 H 0.28862 0.8248 0.11733 0.0
H6315 H 0.28794 0.84152 0.10893 0.0
H6316 H 0.29664 0.85025 0.11519 0.0
C6317 C 0.27632 0.8652 0.15717 0.0
C6318 C 0.27954 0.84857 0.168 0.0
C6319 C 0.33037 0.8523 0.12938 0.0
C6320 C 0.33162 0.8492 0.11905 0.0
C6321 C 0.32361 0.84401 0.11405 0.0
C6322 C 0.31437 0.84235 0.11919 0.0
C6323 C 0.31305 0.8462 0.12932 0.0
C6324 C 0.3211 0.85085 0.13426 0.0
C6325 C 0.31841 0.85501 0.14471 0.0
C6326 C 0.30734 0.85231 0.14525 0.0
C6327 C 0.30417 0.8471 0.13629 0.0
C6328 C 0.32024 0.86694 0.14459 0.0
C6329 C 0.32458 0.8489 0.15289 0.0
C6330 C 0.26938 0.83681 0.12357 0.0
C6331 C 0.25966 0.83798 0.12779 0.0
C6332 C 0.25871 0.84115 0.13822 0.0
C6333 C 0.26723 0.84386 0.14407 0.0
C6334 C 0.27681 0.84347 0.13945 0.0
C6335 C 0.27782 0.83953 0.12953 0.0
C6336 C 0.2886 0.83954 0.12592 0.0
C6337 C 0.29383 0.84449 0.13511 0.0
C6338 C 0.28687 0.84688 0.14302 0.0
C6339 C 0.28933 0.84625 0.11598 0.0
C6340 C 0.29198 0.82817 0.12446 0.0
H6341 H 0.31768 0.86424 0.16433 0.0
H6342 H 0.28359 0.87052 0.17892 0.0
H6343 H 0.28549 0.84502 0.17294 0.0
H6344 H 0.2763 0.84204 0.16358 0.0
H6345 H 0.27368 0.85185 0.17322 0.0
H6346 H 0.28028 0.87203 0.15381 0.0
H6347 H 0.27157 0.86797 0.1637 0.0
H6348 H 0.27131 0.86234 0.151 0.0
H6349 H 0.33625 0.85652 0.13342 0.0
H6350 H 0.32441 0.84145 0.1061 0.0
H6351 H 0.30849 0.83848 0.11497 0.0
H6352 H 0.32018 0.87014 0.13658 0.0
H6353 H 0.32764 0.86895 0.14809 0.0
H6354 H 0.31424 0.87137 0.14858 0.0
H6355 H 0.32563 0.84069 0.15048 0.0
H6356 H 0.32074 0.84841 0.16049 0.0
H6357 H 0.33219 0.85234 0.15396 0.0
H6358 H 0.3159 0.87526 0.179 0.0
C6359 C 0.31018 0.86539 0.16716 0.0
C6360 C 0.86587 0.55357 0.81997 0.0
C6361 C 0.86264 0.56364 0.81736 0.0
C6362 C 0.86751 0.57224 0.82178 0.0
C6363 C 0.87764 0.56088 0.83242 0.0
C6364 C 0.87359 0.55239 0.8274 0.0
C6365 C 0.87806 0.5424 0.83141 0.0
H6366 H 0.90262 0.51706 0.87 0.0
C6367 C 0.88412 0.55714 0.84091 0.0
C6368 C 0.88458 0.54632 0.84032 0.0
H6369 H 0.88891 0.50432 0.84243 0.0
H6370 H 0.8856 0.52149 0.83598 0.0
H6371 H 0.91414 0.53822 0.85702 0.0
H6372 H 0.88714 0.53269 0.87473 0.0
H6373 H 0.89039 0.54567 0.87682 0.0
H6374 H 0.89891 0.53556 0.88096 0.0
H6375 H 0.91398 0.53454 0.87046 0.0
H6376 H 0.91264 0.5479 0.86664 0.0
C6377 C 0.88457 0.53764 0.82266 0.0
C6378 C 0.86934 0.53538 0.83519 0.0
C6379 C 0.89252 0.58245 0.86949 0.0
C6380 C 0.89611 0.58116 0.87967 0.0
C6381 C 0.90043 0.57151 0.88239 0.0
C6382 C 0.90047 0.56315 0.87539 0.0
C6383 C 0.896 0.56436 0.8656 0.0
C6384 C 0.89242 0.57399 0.8627 0.0
C6385 C 0.88758 0.57383 0.8522 0.0
C6386 C 0.88831 0.56242 0.84952 0.0
C6387 C 0.89336 0.55687 0.85731 0.0
C6388 C 0.89419 0.58043 0.84482 0.0
C6389 C 0.87649 0.57762 0.85335 0.0
C6390 C 0.89912 0.51804 0.86248 0.0
C6391 C 0.89596 0.50935 0.85671 0.0
C6392 C 0.89133 0.5109 0.84701 0.0
C6393 C 0.88939 0.52088 0.84329 0.0
C6394 C 0.89197 0.52949 0.84937 0.0
C6395 C 0.89705 0.52805 0.85864 0.0
C6396 C 0.89904 0.53823 0.86403 0.0
C6397 C 0.89424 0.54589 0.85654 0.0
C6398 C 0.89004 0.54069 0.84799 0.0
C6399 C 0.91057 0.53985 0.86465 0.0
C6400 C 0.89368 0.53808 0.87472 0.0
H6401 H 0.87803 0.57779 0.83272 0.0
H6402 H 0.86226 0.54684 0.81658 0.0
H6403 H 0.86363 0.54002 0.83948 0.0
H6404 H 0.87177 0.52932 0.84065 0.0
H6405 H 0.86548 0.53161 0.82854 0.0
H6406 H 0.88812 0.5438 0.81784 0.0
H6407 H 0.87995 0.53272 0.81743 0.0
H6408 H 0.891 0.53307 0.82565 0.0
H6409 H 0.88939 0.58978 0.86698 0.0
H6410 H 0.90329 0.57019 0.89014 0.0
H6411 H 0.90361 0.55595 0.87801 0.0
H6412 H 0.90234 0.57962 0.84675 0.0
H6413 H 0.89225 0.58879 0.8454 0.0
H6414 H 0.89363 0.57793 0.83664 0.0
H6415 H 0.8736 0.57645 0.86137 0.0
H6416 H 0.8711 0.57326 0.8485 0.0
H6417 H 0.87579 0.586 0.85155 0.0
H6418 H 0.86511 0.58003 0.81985 0.0
C6419 C 0.87498 0.57092 0.82928 0.0
C6420 C 0.24892 0.13517 0.61826 0.0
C6421 C 0.25484 0.13376 0.60923 0.0
C6422 C 0.25183 0.12609 0.60206 0.0
C6423 C 0.2372 0.12184 0.61252 0.0
C6424 C 0.2402 0.12909 0.61977 0.0
C6425 C 0.23315 0.12933 0.62898 0.0
H6426 H 0.1902 0.11058 0.65159 0.0
C6427 C 0.22779 0.1169 0.61621 0.0
C6428 C 0.2254 0.12114 0.62598 0.0
H6429 H 0.20993 0.13419 0.664 0.0
H6430 H 0.22093 0.13242 0.64905 0.0
H6431 H 0.18957 0.11928 0.62974 0.0
H6432 H 0.20744 0.0954 0.64368 0.0
H6433 H 0.20419 0.09077 0.63132 0.0
H6434 H 0.19434 0.09382 0.64051 0.0
H6435 H 0.18481 0.10641 0.63156 0.0
H6436 H 0.19128 0.11021 0.61984 0.0
C6437 C 0.22842 0.14024 0.62968 0.0
C6438 C 0.23916 0.12615 0.63872 0.0
C6439 C 0.20763 0.09347 0.59202 0.0
C6440 C 0.19805 0.08873 0.59303 0.0
C6441 C 0.19352 0.0885 0.60292 0.0
C6442 C 0.198 0.09347 0.61138 0.0
C6443 C 0.20707 0.09893 0.61001 0.0
C6444 C 0.21196 0.09853 0.60059 0.0
C6445 C 0.22166 0.10466 0.60076 0.0
C6446 C 0.22127 0.10949 0.61152 0.0
C6447 C 0.21272 0.10604 0.61686 0.0
C6448 C 0.22115 0.1129 0.59206 0.0
C6449 C 0.23054 0.09692 0.59976 0.0
C6450 C 0.1968 0.11551 0.65112 0.0
C6451 C 0.19905 0.12262 0.65902 0.0
C6452 C 0.20796 0.12861 0.65807 0.0
C6453 C 0.21434 0.1276 0.64935 0.0
C6454 C 0.21183 0.12052 0.64145 0.0
C6455 C 0.20317 0.11464 0.64253 0.0
C6456 C 0.20137 0.10766 0.63348 0.0
C6457 C 0.21035 0.11018 0.62673 0.0
C6458 C 0.21657 0.11771 0.63134 0.0
C6459 C 0.19123 0.11093 0.62838 0.0
C6460 C 0.20176 0.0963 0.63738 0.0
H6461 H 0.24133 0.11449 0.59788 0.0
H6462 H 0.25096 0.14092 0.624 0.0
H6463 H 0.24401 0.11931 0.63703 0.0
H6464 H 0.23427 0.12382 0.64522 0.0
H6465 H 0.24414 0.13257 0.64134 0.0
H6466 H 0.22608 0.14298 0.62186 0.0
H6467 H 0.23391 0.14591 0.63286 0.0
H6468 H 0.22153 0.14043 0.63446 0.0
H6469 H 0.21152 0.09355 0.58465 0.0
H6470 H 0.18619 0.08499 0.60406 0.0
H6471 H 0.19396 0.09323 0.61857 0.0
H6472 H 0.2135 0.11644 0.59172 0.0
H6473 H 0.22274 0.10937 0.58437 0.0
H6474 H 0.22634 0.11945 0.59323 0.0
H6475 H 0.22869 0.08938 0.60349 0.0
H6476 H 0.23742 0.09959 0.6038 0.0
H6477 H 0.23234 0.09534 0.5915 0.0
H6478 H 0.25632 0.1245 0.59524 0.0
C6479 C 0.24312 0.12016 0.60366 0.0
C6480 C 0.10508 0.94363 0.90333 0.0
C6481 C 0.11178 0.9359 0.9068 0.0
C6482 C 0.11148 0.92603 0.90221 0.0
C6483 C 0.09977 0.93228 0.88938 0.0
C6484 C 0.0991 0.94162 0.89454 0.0
C6485 C 0.09223 0.94907 0.88892 0.0
H6486 H 0.0742 0.96482 0.84274 0.0
C6487 C 0.09469 0.93333 0.87931 0.0
C6488 C 0.09021 0.94314 0.87891 0.0
H6489 H 0.07251 0.98049 0.87242 0.0
H6490 H 0.07818 0.96508 0.88096 0.0
H6491 H 0.0942 0.95715 0.84496 0.0
H6492 H 0.06744 0.93957 0.85218 0.0
H6493 H 0.07569 0.93264 0.84377 0.0
H6494 H 0.07044 0.94482 0.83964 0.0
H6495 H 0.08773 0.94983 0.83519 0.0
H6496 H 0.09736 0.9441 0.84331 0.0
C6497 C 0.09807 0.95931 0.88713 0.0
C6498 C 0.08249 0.95028 0.89542 0.0
C6499 C 0.10499 0.90777 0.85186 0.0
C6500 C 0.10653 0.90905 0.84115 0.0
C6501 C 0.10086 0.91683 0.83604 0.0
C6502 C 0.0948 0.92381 0.84172 0.0
C6503 C 0.09487 0.9234 0.85262 0.0
C6504 C 0.09987 0.91537 0.85745 0.0
C6505 C 0.1009 0.91697 0.86889 0.0
C6506 C 0.09549 0.9272 0.87024 0.0
C6507 C 0.09176 0.93089 0.86076 0.0
C6508 C 0.11239 0.91769 0.87155 0.0
C6509 C 0.0952 0.9081 0.87445 0.0
C6510 C 0.07499 0.96497 0.85109 0.0
C6511 C 0.0731 0.97411 0.8568 0.0
C6512 C 0.07389 0.9737 0.86771 0.0
C6513 C 0.07736 0.96475 0.8727 0.0
C6514 C 0.08036 0.95619 0.86676 0.0
C6515 C 0.07868 0.95616 0.8562 0.0
C6516 C 0.08257 0.94642 0.85114 0.0
C6517 C 0.08683 0.94066 0.8604 0.0
C6518 C 0.0857 0.94654 0.86951 0.0
C6519 C 0.09084 0.94945 0.84318 0.0
C6520 C 0.07357 0.94051 0.84637 0.0
H6521 H 0.10564 0.91652 0.89037 0.0
H6522 H 0.10497 0.9512 0.90698 0.0
H6523 H 0.08054 0.94292 0.89944 0.0
H6524 H 0.0758 0.95204 0.8906 0.0
H6525 H 0.08338 0.95637 0.90143 0.0
H6526 H 0.10587 0.95765 0.88441 0.0
H6527 H 0.0986 0.96386 0.89442 0.0
H6528 H 0.09473 0.96432 0.88116 0.0
H6529 H 0.10864 0.90161 0.85613 0.0
H6530 H 0.10156 0.918 0.82778 0.0
H6531 H 0.0908 0.92967 0.83746 0.0
H6532 H 0.11726 0.91818 0.86454 0.0
H6533 H 0.11499 0.91084 0.876 0.0
H6534 H 0.11432 0.92483 0.87589 0.0
H6535 H 0.08803 0.90626 0.87035 0.0
H6536 H 0.09294 0.91017 0.88244 0.0
H6537 H 0.09984 0.90093 0.87465 0.0
H6538 H 0.11624 0.91983 0.90507 0.0
C6539 C 0.10538 0.92414 0.89363 0.0
C6540 C 0.74894 0.36984 0.38692 0.0
C6541 C 0.75485 0.37125 0.39595 0.0
C6542 C 0.75183 0.37891 0.40312 0.0
C6543 C 0.73721 0.38316 0.39266 0.0
C6544 C 0.74022 0.37591 0.38541 0.0
C6545 C 0.73316 0.37567 0.3762 0.0
H6546 H 0.69022 0.39442 0.35358 0.0
C6547 C 0.7278 0.3881 0.38897 0.0
C6548 C 0.72541 0.38386 0.3792 0.0
H6549 H 0.70995 0.37081 0.34117 0.0
H6550 H 0.72095 0.37258 0.35612 0.0
H6551 H 0.68958 0.38571 0.37543 0.0
H6552 H 0.70745 0.4096 0.3615 0.0
H6553 H 0.70419 0.41423 0.37386 0.0
H6554 H 0.69435 0.41118 0.36466 0.0
H6555 H 0.68482 0.39859 0.37361 0.0
H6556 H 0.69128 0.39478 0.38533 0.0
C6557 C 0.72843 0.36476 0.3755 0.0
C6558 C 0.73918 0.37885 0.36646 0.0
C6559 C 0.70762 0.41153 0.41316 0.0
C6560 C 0.69804 0.41627 0.41214 0.0
C6561 C 0.69352 0.41649 0.40226 0.0
C6562 C 0.698 0.41152 0.3938 0.0
C6563 C 0.70706 0.40606 0.39516 0.0
C6564 C 0.71195 0.40647 0.40458 0.0
C6565 C 0.72166 0.40034 0.40442 0.0
C6566 C 0.72127 0.39551 0.39365 0.0
C6567 C 0.71273 0.39896 0.38831 0.0
C6568 C 0.72115 0.3921 0.41312 0.0
C6569 C 0.73054 0.40808 0.40542 0.0
C6570 C 0.69681 0.38949 0.35405 0.0
C6571 C 0.69907 0.38239 0.34615 0.0
C6572 C 0.70798 0.37639 0.3471 0.0
C6573 C 0.71436 0.3774 0.35582 0.0
C6574 C 0.71184 0.38448 0.36372 0.0
C6575 C 0.70319 0.39036 0.36265 0.0
C6576 C 0.70138 0.39734 0.3717 0.0
C6577 C 0.71036 0.39482 0.37844 0.0
C6578 C 0.71658 0.38729 0.37383 0.0
C6579 C 0.69124 0.39406 0.37679 0.0
C6580 C 0.70177 0.4087 0.36779 0.0
H6581 H 0.74132 0.3905 0.40731 0.0
H6582 H 0.75098 0.36409 0.38118 0.0
H6583 H 0.74402 0.3857 0.36815 0.0
H6584 H 0.73428 0.38118 0.35996 0.0
H6585 H 0.74416 0.37244 0.36384 0.0
H6586 H 0.7261 0.36202 0.38332 0.0
H6587 H 0.73393 0.35909 0.37231 0.0
H6588 H 0.72155 0.36458 0.37072 0.0
H6589 H 0.71151 0.41145 0.42053 0.0
H6590 H 0.68619 0.42 0.40111 0.0
H6591 H 0.69396 0.41177 0.3866 0.0
H6592 H 0.7135 0.38856 0.41346 0.0
H6593 H 0.72274 0.39563 0.42081 0.0
H6594 H 0.72634 0.38554 0.41194 0.0
H6595 H 0.72868 0.41562 0.40169 0.0
H6596 H 0.73742 0.40541 0.40138 0.0
H6597 H 0.73233 0.40966 0.41368 0.0
H6598 H 0.75632 0.3805 0.40996 0.0
C6599 C 0.74312 0.38484 0.40152 0.0
C6600 C 0.86577 0.45169 0.68557 0.0
C6601 C 0.86261 0.44163 0.6883 0.0
C6602 C 0.8676 0.43301 0.68405 0.0
C6603 C 0.87769 0.4443 0.67331 0.0
C6604 C 0.87354 0.45282 0.67819 0.0
C6605 C 0.87799 0.46279 0.67409 0.0
H6606 H 0.90264 0.48781 0.63536 0.0
C6607 C 0.88419 0.44796 0.66481 0.0
C6608 C 0.88459 0.4588 0.66527 0.0
H6609 H 0.88883 0.50078 0.66279 0.0
H6610 H 0.88552 0.48366 0.66937 0.0
H6611 H 0.91416 0.46683 0.64853 0.0
H6612 H 0.8871 0.47203 0.63079 0.0
H6613 H 0.89053 0.45909 0.62874 0.0
H6614 H 0.89892 0.4693 0.62458 0.0
H6615 H 0.914 0.47034 0.63505 0.0
H6616 H 0.9127 0.45703 0.63902 0.0
C6617 C 0.88442 0.46769 0.68283 0.0
C6618 C 0.86926 0.46972 0.67017 0.0
C6619 C 0.89256 0.4224 0.63641 0.0
C6620 C 0.89618 0.42361 0.62624 0.0
C6621 C 0.90054 0.43323 0.62346 0.0
C6622 C 0.90058 0.44164 0.6304 0.0
C6623 C 0.89607 0.44052 0.64018 0.0
C6624 C 0.89248 0.43092 0.64315 0.0
C6625 C 0.88769 0.43116 0.65368 0.0
C6626 C 0.88839 0.44261 0.65625 0.0
C6627 C 0.89343 0.44809 0.64841 0.0
C6628 C 0.89437 0.42467 0.6611 0.0
C6629 C 0.87661 0.42731 0.65265 0.0
C6630 C 0.89911 0.4869 0.64288 0.0
C6631 C 0.89594 0.49564 0.64857 0.0
C6632 C 0.89127 0.49416 0.65827 0.0
C6633 C 0.88933 0.48421 0.66206 0.0
C6634 C 0.89194 0.47555 0.65607 0.0
C6635 C 0.89704 0.47692 0.6468 0.0
C6636 C 0.89907 0.46669 0.64151 0.0
C6637 C 0.89428 0.45908 0.64907 0.0
C6638 C 0.89004 0.46436 0.65755 0.0
C6639 C 0.9106 0.4651 0.64091 0.0
C6640 C 0.89372 0.46672 0.63082 0.0
H6641 H 0.87824 0.42739 0.67327 0.0
H6642 H 0.86209 0.45843 0.68884 0.0
H6643 H 0.86364 0.465 0.66583 0.0
H6644 H 0.87171 0.47578 0.66471 0.0
H6645 H 0.86529 0.47349 0.67675 0.0
H6646 H 0.88789 0.46162 0.68781 0.0
H6647 H 0.87976 0.47274 0.6879 0.0
H6648 H 0.89091 0.47217 0.67982 0.0
H6649 H 0.88939 0.4151 0.63896 0.0
H6650 H 0.90344 0.43448 0.61572 0.0
H6651 H 0.90374 0.44881 0.62773 0.0
H6652 H 0.90251 0.42555 0.65913 0.0
H6653 H 0.8925 0.4163 0.66058 0.0
H6654 H 0.8938 0.42723 0.66926 0.0
H6655 H 0.87371 0.42821 0.64461 0.0
H6656 H 0.87121 0.4318 0.65737 0.0
H6657 H 0.87594 0.41898 0.65471 0.0
H6658 H 0.86525 0.42522 0.68608 0.0
C6659 C 0.87511 0.43428 0.67659 0.0
C6660 C 0.60507 0.56136 0.10185 0.0
C6661 C 0.61176 0.5691 0.09838 0.0
C6662 C 0.61146 0.57898 0.10297 0.0
C6663 C 0.59975 0.57272 0.1158 0.0
C6664 C 0.59909 0.56337 0.11064 0.0
C6665 C 0.59223 0.55593 0.11626 0.0
H6666 H 0.57421 0.54017 0.16245 0.0
C6667 C 0.59468 0.57167 0.12587 0.0
C6668 C 0.59021 0.56186 0.12628 0.0
H6669 H 0.57251 0.52451 0.13277 0.0
H6670 H 0.57819 0.53992 0.12423 0.0
H6671 H 0.59421 0.54785 0.16022 0.0
H6672 H 0.56744 0.56543 0.15301 0.0
H6673 H 0.57569 0.57235 0.16142 0.0
H6674 H 0.57045 0.56018 0.16555 0.0
H6675 H 0.58774 0.55516 0.16999 0.0
H6676 H 0.59736 0.5609 0.16188 0.0
C6677 C 0.59807 0.54569 0.11806 0.0
C6678 C 0.58248 0.55471 0.10977 0.0
C6679 C 0.605 0.59723 0.15332 0.0
C6680 C 0.60654 0.59594 0.16403 0.0
C6681 C 0.60088 0.58816 0.16914 0.0
C6682 C 0.59481 0.58119 0.16347 0.0
C6683 C 0.59488 0.58159 0.15257 0.0
C6684 C 0.59987 0.58962 0.14773 0.0
C6685 C 0.6009 0.58803 0.13629 0.0
C6686 C 0.59549 0.5778 0.13494 0.0
C6687 C 0.59177 0.57411 0.14443 0.0
C6688 C 0.61238 0.5873 0.13363 0.0
C6689 C 0.59519 0.5969 0.13074 0.0
C6690 C 0.57499 0.54003 0.15409 0.0
C6691 C 0.5731 0.53089 0.14839 0.0
C6692 C 0.57389 0.5313 0.13748 0.0
C6693 C 0.57736 0.54025 0.13248 0.0
C6694 C 0.58037 0.54881 0.13843 0.0
C6695 C 0.57868 0.54884 0.14898 0.0
C6696 C 0.58257 0.55858 0.15405 0.0
C6697 C 0.58683 0.56434 0.14479 0.0
C6698 C 0.5857 0.55845 0.13567 0.0
C6699 C 0.59085 0.55555 0.162 0.0
C6700 C 0.57358 0.56448 0.15883 0.0
H6701 H 0.60562 0.58848 0.11481 0.0
H6702 H 0.60497 0.5538 0.09821 0.0
H6703 H 0.58054 0.56208 0.10575 0.0
H6704 H 0.5758 0.55296 0.11459 0.0
H6705 H 0.58337 0.54862 0.10376 0.0
H6706 H 0.60587 0.54735 0.12078 0.0
H6707 H 0.59861 0.54114 0.11077 0.0
H6708 H 0.59473 0.54068 0.12403 0.0
H6709 H 0.60864 0.60339 0.14905 0.0
H6710 H 0.60158 0.58699 0.17741 0.0
H6711 H 0.59081 0.57533 0.16772 0.0
H6712 H 0.61726 0.58682 0.14063 0.0
H6713 H 0.61498 0.59416 0.12917 0.0
H6714 H 0.61431 0.58017 0.12929 0.0
H6715 H 0.58803 0.59875 0.13484 0.0
H6716 H 0.59292 0.59483 0.12275 0.0
H6717 H 0.59983 0.60407 0.13054 0.0
H6718 H 0.61622 0.58517 0.1001 0.0
C6719 C 0.60537 0.58086 0.11155 0.0
C6720 C 0.61786 0.7669 0.87706 0.0
C6721 C 0.62604 0.77374 0.87541 0.0
C6722 C 0.63569 0.76944 0.8737 0.0
C6723 C 0.6291 0.75205 0.87624 0.0
C6724 C 0.61956 0.75615 0.87745 0.0
C6725 C 0.61183 0.74788 0.8798 0.0
H6726 H 0.60287 0.69682 0.89031 0.0
C6727 C 0.62846 0.7407 0.87773 0.0
C6728 C 0.61828 0.73814 0.87968 0.0
H6729 H 0.5813 0.72169 0.89259 0.0
H6730 H 0.5937 0.73381 0.88545 0.0
H6731 H 0.61324 0.70439 0.86805 0.0
H6732 H 0.61856 0.7066 0.90057 0.0
H6733 H 0.63071 0.70753 0.89552 0.0
H6734 H 0.6234 0.69596 0.89318 0.0
H6735 H 0.61777 0.69395 0.87597 0.0
H6736 H 0.62631 0.70279 0.86954 0.0
C6737 C 0.60391 0.74778 0.87104 0.0
C6738 C 0.60737 0.75008 0.89064 0.0
C6739 C 0.66041 0.7188 0.88115 0.0
C6740 C 0.66176 0.70813 0.88317 0.0
C6741 C 0.65335 0.7015 0.88264 0.0
C6742 C 0.64371 0.70541 0.88095 0.0
C6743 C 0.64234 0.71612 0.87984 0.0
C6744 C 0.65059 0.72261 0.87946 0.0
C6745 C 0.64747 0.73371 0.87758 0.0
C6746 C 0.636 0.73284 0.87792 0.0
C6747 C 0.63314 0.7225 0.87929 0.0
C6748 C 0.65125 0.73688 0.86669 0.0
C6749 C 0.65167 0.74043 0.88653 0.0
C6750 C 0.60075 0.70485 0.8891 0.0
C6751 C 0.59118 0.70833 0.89198 0.0
C6752 C 0.58869 0.71885 0.8904 0.0
C6753 C 0.59594 0.72587 0.88641 0.0
C6754 C 0.6058 0.72233 0.88425 0.0
C6755 C 0.60788 0.7119 0.88544 0.0
C6756 C 0.61868 0.70931 0.88349 0.0
C6757 C 0.62294 0.71989 0.88113 0.0
C6758 C 0.61546 0.72759 0.88141 0.0
C6759 C 0.6191 0.70217 0.87382 0.0
C6760 C 0.62312 0.70455 0.89362 0.0
H6761 H 0.6448 0.75597 0.87288 0.0
H6762 H 0.61029 0.76984 0.87819 0.0
H6763 H 0.6134 0.75256 0.89611 0.0
H6764 H 0.60393 0.74319 0.89424 0.0
H6765 H 0.60164 0.75636 0.89028 0.0
H6766 H 0.60769 0.74773 0.86333 0.0
H6767 H 0.59902 0.75476 0.87145 0.0
H6768 H 0.59907 0.74083 0.87127 0.0
H6769 H 0.66675 0.72408 0.88128 0.0
H6770 H 0.6542 0.69321 0.88368 0.0
H6771 H 0.63767 0.69991 0.88092 0.0
H6772 H 0.65096 0.73019 0.86124 0.0
H6773 H 0.65918 0.73965 0.86698 0.0
H6774 H 0.64646 0.74286 0.86303 0.0
H6775 H 0.65056 0.73646 0.8941 0.0
H6776 H 0.64786 0.74797 0.88732 0.0
H6777 H 0.65988 0.74183 0.88553 0.0
H6778 H 0.64217 0.7744 0.87248 0.0
C6779 C 0.63724 0.75869 0.87404 0.0
C6780 C 0.54241 0.42468 0.11857 0.0
C6781 C 0.55096 0.42903 0.12346 0.0
C6782 C 0.56055 0.42488 0.12137 0.0
C6783 C 0.55314 0.41162 0.11066 0.0
C6784 C 0.5437 0.41589 0.11219 0.0
C6785 C 0.53566 0.40978 0.10653 0.0
H6786 H 0.52321 0.36501 0.0818 0.0
C6787 C 0.55204 0.40214 0.10447 0.0
C6788 C 0.54185 0.40093 0.10189 0.0
H6789 H 0.50338 0.39024 0.09021 0.0
H6790 H 0.51769 0.40039 0.09584 0.0
H6791 H 0.5421 0.38021 0.07238 0.0
H6792 H 0.53558 0.36526 0.10154 0.0
H6793 H 0.54859 0.36423 0.09947 0.0
H6794 H 0.54001 0.35807 0.09053 0.0
H6795 H 0.5417 0.36638 0.07391 0.0
H6796 H 0.55298 0.37365 0.07675 0.0
C6797 C 0.53111 0.41681 0.09803 0.0
C6798 C 0.52792 0.40589 0.11459 0.0
C6799 C 0.58243 0.37893 0.10159 0.0
C6800 C 0.58383 0.36865 0.09835 0.0
C6801 C 0.57583 0.36352 0.09327 0.0
C6802 C 0.56648 0.36849 0.09179 0.0
C6803 C 0.56508 0.37861 0.09565 0.0
C6804 C 0.57307 0.38365 0.10027 0.0
C6805 C 0.57024 0.39401 0.10455 0.0
C6806 C 0.55916 0.39439 0.10189 0.0
C6807 C 0.55613 0.38544 0.09662 0.0
C6808 C 0.57627 0.40234 0.09849 0.0
C6809 C 0.57211 0.3938 0.11647 0.0
C6810 C 0.52196 0.37277 0.08474 0.0
C6811 C 0.51216 0.37679 0.08565 0.0
C6812 C 0.51086 0.38698 0.08939 0.0
C6813 C 0.51917 0.39281 0.09278 0.0
C6814 C 0.52885 0.38838 0.09249 0.0
C6815 C 0.53013 0.37865 0.0882 0.0
C6816 C 0.54088 0.37506 0.08859 0.0
C6817 C 0.54587 0.3842 0.09384 0.0
C6818 C 0.53878 0.39198 0.09626 0.0
C6819 C 0.54467 0.37367 0.07734 0.0
C6820 C 0.54137 0.3651 0.0953 0.0
H6821 H 0.56921 0.41354 0.11389 0.0
H6822 H 0.53496 0.42786 0.11989 0.0
H6823 H 0.53186 0.40256 0.12144 0.0
H6824 H 0.52302 0.39966 0.11163 0.0
H6825 H 0.52306 0.41235 0.11734 0.0
H6826 H 0.53705 0.42173 0.09444 0.0
H6827 H 0.52527 0.42204 0.10132 0.0
H6828 H 0.52784 0.41237 0.09153 0.0
H6829 H 0.58828 0.38304 0.10577 0.0
H6830 H 0.57674 0.3556 0.09066 0.0
H6831 H 0.56063 0.36416 0.08801 0.0
H6832 H 0.5774 0.39998 0.09027 0.0
H6833 H 0.58384 0.40357 0.10197 0.0
H6834 H 0.57226 0.40985 0.098 0.0
H6835 H 0.57198 0.38577 0.1196 0.0
H6836 H 0.56617 0.39782 0.12095 0.0
H6837 H 0.57956 0.3972 0.11847 0.0
H6838 H 0.56727 0.4283 0.12473 0.0
C6839 C 0.56168 0.4163 0.11498 0.0
C6840 C 0.92222 0.3131 0.37176 0.0
C6841 C 0.92129 0.32166 0.37849 0.0
C6842 C 0.91221 0.32725 0.37878 0.0
C6843 C 0.90449 0.31478 0.36734 0.0
C6844 C 0.91367 0.30989 0.36607 0.0
C6845 C 0.91281 0.30095 0.35852 0.0
H6846 H 0.8837 0.26274 0.33924 0.0
C6847 C 0.89666 0.30852 0.36221 0.0
C6848 C 0.90139 0.30045 0.35687 0.0
H6849 H 0.91533 0.26877 0.33328 0.0
H6850 H 0.914 0.2852 0.34183 0.0
H6851 H 0.88158 0.27158 0.36149 0.0
H6852 H 0.87748 0.28943 0.33333 0.0
H6853 H 0.86718 0.29087 0.34197 0.0
H6854 H 0.86974 0.27838 0.33635 0.0
H6855 H 0.87104 0.26931 0.35301 0.0
H6856 H 0.87085 0.27955 0.36248 0.0
C6857 C 0.91695 0.29106 0.36376 0.0
C6858 C 0.91843 0.30396 0.34843 0.0
C6859 C 0.86101 0.31504 0.37388 0.0
C6860 C 0.8519 0.3096 0.37306 0.0
C6861 C 0.85163 0.3007 0.36664 0.0
C6862 C 0.86039 0.29714 0.3615 0.0
C6863 C 0.86956 0.30247 0.36288 0.0
C6864 C 0.86962 0.31134 0.36889 0.0
C6865 C 0.87984 0.31607 0.36981 0.0
C6866 C 0.88608 0.30852 0.36356 0.0
C6867 C 0.88011 0.30054 0.35937 0.0
C6868 C 0.88277 0.31623 0.38152 0.0
C6869 C 0.87951 0.32685 0.3645 0.0
C6870 C 0.89032 0.26763 0.33961 0.0
C6871 C 0.89981 0.264 0.33611 0.0
C6872 C 0.90808 0.27092 0.33648 0.0
C6873 C 0.90732 0.28055 0.34138 0.0
C6874 C 0.89814 0.28355 0.3458 0.0
C6875 C 0.88965 0.27754 0.34425 0.0
C6876 C 0.88036 0.28274 0.34868 0.0
C6877 C 0.88485 0.29248 0.35355 0.0
C6878 C 0.89537 0.29272 0.35198 0.0
C6879 C 0.87561 0.27544 0.35682 0.0
C6880 C 0.87323 0.28548 0.33964 0.0
H6881 H 0.89704 0.32827 0.37412 0.0
H6882 H 0.92924 0.30885 0.37128 0.0
H6883 H 0.91953 0.31249 0.34779 0.0
H6884 H 0.91409 0.30185 0.34139 0.0
H6885 H 0.92601 0.30031 0.34806 0.0
H6886 H 0.91323 0.28983 0.37139 0.0
H6887 H 0.92521 0.29171 0.36508 0.0
H6888 H 0.91568 0.284 0.35914 0.0
H6889 H 0.86152 0.3221 0.3784 0.0
H6890 H 0.8447 0.29635 0.36573 0.0
H6891 H 0.85974 0.29033 0.35677 0.0
H6892 H 0.87795 0.31098 0.38625 0.0
H6893 H 0.88199 0.32412 0.38488 0.0
H6894 H 0.8905 0.31337 0.38298 0.0
H6895 H 0.87438 0.32678 0.35767 0.0
H6896 H 0.88691 0.32923 0.36132 0.0
H6897 H 0.87674 0.33291 0.36992 0.0
H6898 H 0.91144 0.33393 0.38381 0.0
C6899 C 0.90384 0.3239 0.3732 0.0
C6900 C 0.99952 0.63681 0.61662 0.0
C6901 C 0.00504 0.64609 0.61803 0.0
C6902 C 1.00183 0.65311 0.62572 0.0
C6903 C 0.98748 0.64228 0.62983 0.0
C6904 C 0.99073 0.63508 0.62262 0.0
C6905 C 0.98367 0.62585 0.62217 0.0
H6906 H 0.94018 0.60346 0.64031 0.0
C6907 C 0.978 0.63854 0.63455 0.0
C6908 C 0.97572 0.62877 0.63024 0.0
H6909 H 0.95991 0.59079 0.61687 0.0
H6910 H 0.97115 0.60561 0.61879 0.0
H6911 H 0.95747 0.61095 0.6556 0.0
H6912 H 0.93959 0.62497 0.63183 0.0
H6913 H 0.94154 0.63502 0.64066 0.0
H6914 H 0.93496 0.62349 0.64479 0.0
H6915 H 0.94439 0.6142 0.65718 0.0
H6916 H 0.95429 0.6233 0.66033 0.0
C6917 C 0.98961 0.61609 0.62536 0.0
C6918 C 0.97916 0.62522 0.61117 0.0
C6919 C 0.95726 0.66269 0.65755 0.0
C6920 C 0.94769 0.66155 0.66227 0.0
C6921 C 0.94331 0.65161 0.66255 0.0
C6922 C 0.94792 0.64319 0.65764 0.0
C6923 C 0.95699 0.64466 0.65221 0.0
C6924 C 0.96176 0.65414 0.6526 0.0
C6925 C 0.97155 0.65402 0.64662 0.0
C6926 C 0.97134 0.64322 0.64184 0.0
C6927 C 0.96279 0.63785 0.64518 0.0
C6928 C 0.9803 0.65515 0.65451 0.0
C6929 C 0.97108 0.66268 0.63832 0.0
C6930 C 0.94681 0.60385 0.63543 0.0
C6931 C 0.94898 0.59595 0.62831 0.0
C6932 C 0.95798 0.59676 0.62242 0.0
C6933 C 0.96449 0.60539 0.62352 0.0
C6934 C 0.96202 0.61332 0.63059 0.0
C6935 C 0.95329 0.61232 0.63639 0.0
C6936 C 0.95149 0.62131 0.64341 0.0
C6937 C 0.96051 0.628 0.64098 0.0
C6938 C 0.96682 0.62339 0.6335 0.0
C6939 C 0.95183 0.6173 0.65474 0.0
C6940 C 0.94137 0.62647 0.64012 0.0
H6941 H 0.99119 0.657 0.63724 0.0
H6942 H 1.00184 0.63119 0.61085 0.0
H6943 H 0.97655 0.633 0.60859 0.0
H6944 H 0.97251 0.62012 0.61075 0.0
H6945 H 0.98488 0.62242 0.60553 0.0
H6946 H 0.99403 0.6176 0.63254 0.0
H6947 H 0.99498 0.61377 0.61916 0.0
H6948 H 0.98466 0.60946 0.62712 0.0
H6949 H 0.96103 0.67013 0.65744 0.0
H6950 H 0.93599 0.65039 0.66606 0.0
H6951 H 0.94397 0.63596 0.6579 0.0
H6952 H 0.97829 0.65165 0.66212 0.0
H6953 H 0.98216 0.66343 0.6559 0.0
H6954 H 0.98719 0.65096 0.65209 0.0
H6955 H 0.96345 0.663 0.63474 0.0
H6956 H 0.9763 0.66147 0.63179 0.0
H6957 H 0.97264 0.67039 0.64182 0.0
H6958 H 0.00604 0.66015 0.6272 0.0
C6959 C 0.99318 0.65125 0.63161 0.0
C6960 C 0.6177 0.23791 0.62792 0.0
C6961 C 0.62582 0.23106 0.62973 0.0
C6962 C 0.63544 0.2353 0.63173 0.0
C6963 C 0.62896 0.25271 0.62909 0.0
C6964 C 0.61942 0.24866 0.62767 0.0
C6965 C 0.61174 0.25697 0.62533 0.0
H6966 H 0.60303 0.30806 0.61498 0.0
C6967 C 0.62838 0.26407 0.62764 0.0
C6968 C 0.61823 0.26668 0.6256 0.0
H6969 H 0.58137 0.28329 0.61259 0.0
H6970 H 0.5937 0.2711 0.61972 0.0
H6971 H 0.61327 0.30044 0.63725 0.0
H6972 H 0.61869 0.2983 0.60477 0.0
H6973 H 0.63083 0.29717 0.60983 0.0
H6974 H 0.62367 0.30883 0.61221 0.0
H6975 H 0.6179 0.31086 0.62937 0.0
H6976 H 0.62636 0.30196 0.63583 0.0
C6977 C 0.60377 0.25701 0.63403 0.0
C6978 C 0.60736 0.25488 0.61443 0.0
C6979 C 0.66043 0.2858 0.62412 0.0
C6980 C 0.66182 0.29646 0.62208 0.0
C6981 C 0.65344 0.30313 0.62268 0.0
C6982 C 0.64379 0.29926 0.62443 0.0
C6983 C 0.64238 0.28856 0.62554 0.0
C6984 C 0.6506 0.28203 0.62588 0.0
C6985 C 0.64743 0.27095 0.62781 0.0
C6986 C 0.63596 0.27188 0.62749 0.0
C6987 C 0.63316 0.28223 0.62611 0.0
C6988 C 0.65121 0.26781 0.63872 0.0
C6989 C 0.65159 0.26417 0.61889 0.0
C6990 C 0.60087 0.30004 0.61617 0.0
C6991 C 0.5913 0.2966 0.61325 0.0
C6992 C 0.58876 0.28609 0.61481 0.0
C6993 C 0.59597 0.27904 0.6188 0.0
C6994 C 0.60583 0.28253 0.621 0.0
C6995 C 0.60796 0.29296 0.61984 0.0
C6996 C 0.61876 0.2955 0.62184 0.0
C6997 C 0.62297 0.2849 0.62422 0.0
C6998 C 0.61546 0.27723 0.62388 0.0
C6999 C 0.61917 0.30263 0.63152 0.0
C7000 C 0.62327 0.30024 0.61174 0.0
H7001 H 0.64456 0.24874 0.63282 0.0
H7002 H 0.61016 0.23498 0.62656 0.0
H7003 H 0.61341 0.25239 0.60899 0.0
H7004 H 0.604 0.26182 0.61085 0.0
H7005 H 0.60158 0.24865 0.6147 0.0
H7006 H 0.60749 0.25692 0.64177 0.0
H7007 H 0.59883 0.25008 0.63349 0.0
H7008 H 0.59898 0.26401 0.63388 0.0
H7009 H 0.66676 0.28049 0.62396 0.0
H7010 H 0.65431 0.31141 0.62164 0.0
H7011 H 0.63778 0.30479 0.62451 0.0
H7012 H 0.65109 0.27455 0.64411 0.0
H7013 H 0.65908 0.26487 0.6384 0.0
H7014 H 0.64632 0.26197 0.64246 0.0
H7015 H 0.65029 0.26801 0.61129 0.0
H7016 H 0.64791 0.25654 0.6183 0.0
H7017 H 0.65984 0.26292 0.61978 0.0
H7018 H 0.64185 0.23029 0.63311 0.0
C7019 C 0.63703 0.24605 0.63146 0.0
C7020 C 0.99954 0.36817 0.8886 0.0
C7021 C 0.00508 0.35889 0.8872 0.0
C7022 C 1.00186 0.35186 0.87952 0.0
C7023 C 0.98749 0.36268 0.87542 0.0
C7024 C 0.99075 0.36989 0.88262 0.0
C7025 C 0.98367 0.37911 0.88306 0.0
H7026 H 0.94018 0.40148 0.8649 0.0
C7027 C 0.97801 0.36641 0.87069 0.0
C7028 C 0.97572 0.37618 0.875 0.0
H7029 H 0.9599 0.41417 0.88834 0.0
H7030 H 0.97114 0.39935 0.88644 0.0
H7031 H 0.95747 0.39397 0.84962 0.0
H7032 H 0.9396 0.37998 0.87341 0.0
H7033 H 0.94155 0.36992 0.86459 0.0
H7034 H 0.93496 0.38144 0.86045 0.0
H7035 H 0.94439 0.39072 0.84804 0.0
H7036 H 0.95429 0.38162 0.84491 0.0
C7037 C 0.98961 0.38887 0.87986 0.0
C7038 C 0.97917 0.37974 0.89406 0.0
C7039 C 0.95729 0.34224 0.84768 0.0
C7040 C 0.94772 0.34338 0.84296 0.0
C7041 C 0.94332 0.35332 0.84269 0.0
C7042 C 0.94793 0.36173 0.84761 0.0
C7043 C 0.957 0.36027 0.85304 0.0
C7044 C 0.96178 0.3508 0.85264 0.0
C7045 C 0.97157 0.35092 0.85862 0.0
C7046 C 0.97135 0.36172 0.86341 0.0
C7047 C 0.9628 0.36709 0.86006 0.0
C7048 C 0.98032 0.3498 0.85073 0.0
C7049 C 0.9711 0.34226 0.86692 0.0
C7050 C 0.94681 0.4011 0.86979 0.0
C7051 C 0.94898 0.409 0.8769 0.0
C7052 C 0.95797 0.4082 0.88279 0.0
C7053 C 0.96448 0.39956 0.88171 0.0
C7054 C 0.96201 0.39162 0.87464 0.0
C7055 C 0.95329 0.39262 0.86884 0.0
C7056 C 0.95149 0.38363 0.86183 0.0
C7057 C 0.96051 0.37694 0.86426 0.0
C7058 C 0.96682 0.38155 0.87173 0.0
C7059 C 0.95183 0.38763 0.85049 0.0
C7060 C 0.94138 0.37846 0.86512 0.0
H7061 H 0.9912 0.34795 0.86802 0.0
H7062 H 1.00186 0.37379 0.89436 0.0
H7063 H 0.97657 0.37196 0.89665 0.0
H7064 H 0.97252 0.38484 0.89448 0.0
H7065 H 0.98489 0.38256 0.8997 0.0
H7066 H 0.99403 0.38736 0.87268 0.0
H7067 H 0.99497 0.3912 0.88606 0.0
H7068 H 0.98465 0.3955 0.8781 0.0
H7069 H 0.96107 0.3348 0.84779 0.0
H7070 H 0.936 0.35454 0.83918 0.0
H7071 H 0.94397 0.36897 0.84735 0.0
H7072 H 0.97832 0.35333 0.84313 0.0
H7073 H 0.98217 0.34152 0.84932 0.0
H7074 H 0.98722 0.35397 0.85317 0.0
H7075 H 0.96347 0.34193 0.87049 0.0
H7076 H 0.97631 0.34348 0.87346 0.0
H7077 H 0.97269 0.33455 0.86342 0.0
H7078 H 0.00608 0.34482 0.87804 0.0
C7079 C 0.9932 0.35371 0.87364 0.0
C7080 C 0.92221 0.69185 0.13329 0.0
C7081 C 0.92128 0.68328 0.12657 0.0
C7082 C 0.9122 0.67768 0.12632 0.0
C7083 C 0.90449 0.69018 0.13775 0.0
C7084 C 0.91367 0.69507 0.13899 0.0
C7085 C 0.91282 0.70401 0.14654 0.0
H7086 H 0.8837 0.74223 0.16585 0.0
C7087 C 0.89667 0.69644 0.14288 0.0
C7088 C 0.9014 0.70451 0.14821 0.0
H7089 H 0.91534 0.73619 0.1718 0.0
H7090 H 0.91401 0.71977 0.16324 0.0
H7091 H 0.88157 0.73338 0.14359 0.0
H7092 H 0.87749 0.71554 0.17177 0.0
H7093 H 0.86719 0.71409 0.16313 0.0
H7094 H 0.86975 0.72659 0.16874 0.0
H7095 H 0.87104 0.73566 0.15208 0.0
H7096 H 0.87084 0.7254 0.14262 0.0
C7097 C 0.91695 0.7139 0.14129 0.0
C7098 C 0.91845 0.701 0.15663 0.0
C7099 C 0.86102 0.6899 0.13125 0.0
C7100 C 0.85191 0.69534 0.13207 0.0
C7101 C 0.85163 0.70425 0.13848 0.0
C7102 C 0.8604 0.70781 0.14361 0.0
C7103 C 0.86957 0.70249 0.14223 0.0
C7104 C 0.86963 0.69361 0.13623 0.0
C7105 C 0.87984 0.68887 0.1353 0.0
C7106 C 0.88608 0.69643 0.14154 0.0
C7107 C 0.88012 0.70441 0.14573 0.0
C7108 C 0.88277 0.68869 0.12359 0.0
C7109 C 0.87952 0.6781 0.14064 0.0
C7110 C 0.89032 0.73733 0.16547 0.0
C7111 C 0.89981 0.74097 0.16898 0.0
C7112 C 0.90808 0.73404 0.1686 0.0
C7113 C 0.90733 0.72442 0.16369 0.0
C7114 C 0.89815 0.72143 0.15928 0.0
C7115 C 0.88965 0.72743 0.16083 0.0
C7116 C 0.88037 0.72222 0.1564 0.0
C7117 C 0.88486 0.71249 0.15154 0.0
C7118 C 0.89538 0.71225 0.15309 0.0
C7119 C 0.87561 0.72952 0.14827 0.0
C7120 C 0.87324 0.71948 0.16545 0.0
H7121 H 0.89704 0.67666 0.131 0.0
H7122 H 0.92923 0.69611 0.13375 0.0
H7123 H 0.91954 0.69247 0.15727 0.0
H7124 H 0.91412 0.70313 0.16367 0.0
H7125 H 0.92603 0.70464 0.15699 0.0
H7126 H 0.91322 0.71513 0.13367 0.0
H7127 H 0.92521 0.71324 0.13996 0.0
H7128 H 0.91568 0.72096 0.14592 0.0
H7129 H 0.86153 0.68284 0.12673 0.0
H7130 H 0.8447 0.70859 0.13939 0.0
H7131 H 0.85974 0.71463 0.14833 0.0
H7132 H 0.87793 0.69392 0.11886 0.0
H7133 H 0.88202 0.6808 0.12026 0.0
H7134 H 0.89049 0.69158 0.12212 0.0
H7135 H 0.87439 0.67818 0.14747 0.0
H7136 H 0.88692 0.67573 0.14381 0.0
H7137 H 0.87675 0.67203 0.13523 0.0
H7138 H 0.91142 0.67099 0.12129 0.0
C7139 C 0.90384 0.68104 0.1319 0.0
C7140 C 0.54244 0.58032 0.38661 0.0
C7141 C 0.55099 0.57597 0.38172 0.0
C7142 C 0.56058 0.58011 0.38381 0.0
C7143 C 0.55316 0.59338 0.39452 0.0
C7144 C 0.54373 0.58911 0.39299 0.0
C7145 C 0.53569 0.59522 0.39866 0.0
H7146 H 0.52324 0.63998 0.4234 0.0
C7147 C 0.55207 0.60286 0.40072 0.0
C7148 C 0.54188 0.60406 0.40329 0.0
H7149 H 0.50341 0.61475 0.41497 0.0
H7150 H 0.51773 0.60461 0.40935 0.0
H7151 H 0.54213 0.62478 0.4328 0.0
H7152 H 0.5356 0.63974 0.40365 0.0
H7153 H 0.54862 0.64076 0.40572 0.0
H7154 H 0.54003 0.64692 0.41466 0.0
H7155 H 0.54172 0.63862 0.43127 0.0
H7156 H 0.55301 0.63135 0.42844 0.0
C7157 C 0.53114 0.58819 0.40715 0.0
C7158 C 0.52795 0.59912 0.39059 0.0
C7159 C 0.58245 0.62607 0.40358 0.0
C7160 C 0.58385 0.63635 0.40681 0.0
C7161 C 0.57585 0.64148 0.4119 0.0
C7162 C 0.56651 0.6365 0.41338 0.0
C7163 C 0.5651 0.62639 0.40953 0.0
C7164 C 0.5731 0.62135 0.4049 0.0
C7165 C 0.57027 0.61099 0.40062 0.0
C7166 C 0.55919 0.6106 0.40328 0.0
C7167 C 0.55616 0.61955 0.40856 0.0
C7168 C 0.5763 0.60265 0.40669 0.0
C7169 C 0.57214 0.61119 0.3887 0.0
C7170 C 0.52198 0.63222 0.42045 0.0
C7171 C 0.51219 0.6282 0.41954 0.0
C7172 C 0.51089 0.61801 0.4158 0.0
C7173 C 0.5192 0.61219 0.4124 0.0
C7174 C 0.52888 0.61661 0.41269 0.0
C7175 C 0.53016 0.62635 0.41698 0.0
C7176 C 0.54091 0.62993 0.4166 0.0
C7177 C 0.5459 0.6208 0.41135 0.0
C7178 C 0.53881 0.61302 0.40893 0.0
C7179 C 0.5447 0.63133 0.42785 0.0
C7180 C 0.5414 0.63989 0.40989 0.0
H7181 H 0.56924 0.59145 0.39129 0.0
H7182 H 0.53499 0.57714 0.3853 0.0
H7183 H 0.53189 0.60244 0.38375 0.0
H7184 H 0.52305 0.60535 0.39355 0.0
H7185 H 0.52309 0.59266 0.38785 0.0
H7186 H 0.53708 0.58326 0.41074 0.0
H7187 H 0.5253 0.58296 0.40387 0.0
H7188 H 0.52787 0.59263 0.41366 0.0
H7189 H 0.5883 0.62196 0.39939 0.0
H7190 H 0.57676 0.6494 0.41451 0.0
H7191 H 0.56066 0.64084 0.41717 0.0
H7192 H 0.57743 0.60502 0.41491 0.0
H7193 H 0.58387 0.60143 0.40321 0.0
H7194 H 0.5723 0.59514 0.40718 0.0
H7195 H 0.57201 0.61923 0.38557 0.0
H7196 H 0.5662 0.60717 0.38423 0.0
H7197 H 0.57959 0.60779 0.38671 0.0
H7198 H 0.56729 0.57669 0.38045 0.0
C7199 C 0.56171 0.58869 0.3902 0.0
C7200 C 0.85136 0.59116 0.66432 0.0
C7201 C 0.85624 0.59451 0.65514 0.0
C7202 C 0.85377 0.60441 0.6512 0.0
C7203 C 0.84555 0.60868 0.66723 0.0
C7204 C 0.84571 0.59842 0.67009 0.0
C7205 C 0.83975 0.59683 0.67997 0.0
H7206 H 0.82738 0.6173 0.72648 0.0
C7207 C 0.84195 0.61486 0.676 0.0
C7208 C 0.83818 0.60804 0.68349 0.0
H7209 H 0.8207 0.58642 0.71522 0.0
H7210 H 0.82642 0.59126 0.69819 0.0
H7211 H 0.84663 0.62017 0.71751 0.0
H7212 H 0.81857 0.62963 0.70369 0.0
H7213 H 0.82737 0.63996 0.70337 0.0
H7214 H 0.82357 0.6346 0.71566 0.0
H7215 H 0.84111 0.63251 0.72044 0.0
H7216 H 0.84962 0.63073 0.70964 0.0
C7217 C 0.84611 0.5904 0.68765 0.0
C7218 C 0.82961 0.59172 0.67695 0.0
C7219 C 0.85794 0.65007 0.67962 0.0
C7220 C 0.85936 0.65665 0.68813 0.0
C7221 C 0.85339 0.65515 0.69706 0.0
C7222 C 0.84678 0.64665 0.69776 0.0
C7223 C 0.84634 0.63947 0.68955 0.0
C7224 C 0.85164 0.64146 0.68056 0.0
C7225 C 0.85072 0.63294 0.67273 0.0
C7226 C 0.84424 0.62524 0.67866 0.0
C7227 C 0.84177 0.62905 0.68853 0.0
C7228 C 0.86152 0.62879 0.6706 0.0
C7229 C 0.84529 0.63721 0.66298 0.0
C7230 C 0.82683 0.61161 0.72033 0.0
C7231 C 0.82385 0.60133 0.72241 0.0
C7232 C 0.82334 0.59427 0.71404 0.0
C7233 C 0.82659 0.59709 0.70409 0.0
C7234 C 0.83036 0.60709 0.70241 0.0
C7235 C 0.82994 0.61432 0.71029 0.0
C7236 C 0.8341 0.62465 0.707 0.0
C7237 C 0.83706 0.62241 0.69586 0.0
C7238 C 0.83503 0.61203 0.69326 0.0
C7239 C 0.84329 0.62725 0.71399 0.0
C7240 C 0.82549 0.63271 0.70749 0.0
H7241 H 0.84735 0.61918 0.65422 0.0
H7242 H 0.85245 0.58339 0.66726 0.0
H7243 H 0.82689 0.59464 0.66932 0.0
H7244 H 0.82346 0.59359 0.6824 0.0
H7245 H 0.83041 0.58317 0.67632 0.0
H7246 H 0.85379 0.59378 0.68843 0.0
H7247 H 0.84689 0.58228 0.68491 0.0
H7248 H 0.84287 0.59013 0.69549 0.0
H7249 H 0.86205 0.65132 0.67247 0.0
H7250 H 0.85419 0.66025 0.70369 0.0
H7251 H 0.84259 0.64573 0.70482 0.0
H7252 H 0.8652 0.62637 0.67796 0.0
H7253 H 0.86629 0.63483 0.66693 0.0
H7254 H 0.86178 0.62211 0.66535 0.0
H7255 H 0.8419 0.64499 0.66433 0.0
H7256 H 0.83887 0.63221 0.66062 0.0
H7257 H 0.85058 0.63798 0.65635 0.0
H7258 H 0.85655 0.60695 0.64373 0.0
C7259 C 0.84846 0.61153 0.65724 0.0
C7260 C 0.63943 0.58957 0.98639 0.0
C7261 C 0.64886 0.5864 0.9904 0.0
C7262 C 0.65759 0.58805 0.98439 0.0
C7263 C 0.64769 0.59687 0.97129 0.0
C7264 C 0.63902 0.59472 0.97681 0.0
C7265 C 0.62973 0.59898 0.97153 0.0
H7266 H 0.61076 0.62824 0.9319 0.0
C7267 C 0.64487 0.603 0.96209 0.0
C7268 C 0.63428 0.60416 0.96203 0.0
H7269 H 0.59374 0.61492 0.95716 0.0
H7270 H 0.60896 0.60664 0.96367 0.0
H7271 H 0.62726 0.63644 0.94413 0.0
H7272 H 0.62427 0.60809 0.92748 0.0
H7273 H 0.63682 0.61191 0.92544 0.0
H7274 H 0.62665 0.62037 0.92146 0.0
H7275 H 0.63035 0.63558 0.93064 0.0
H7276 H 0.63968 0.63372 0.94064 0.0
C7277 C 0.6247 0.60688 0.97891 0.0
C7278 C 0.62284 0.58982 0.96852 0.0
C7279 C 0.67181 0.62225 0.9415 0.0
C7280 C 0.67096 0.62892 0.93291 0.0
C7281 C 0.66186 0.62935 0.92736 0.0
C7282 C 0.6534 0.62396 0.93079 0.0
C7283 C 0.654 0.61811 0.93992 0.0
C7284 C 0.66319 0.61674 0.94477 0.0
C7285 C 0.66227 0.60952 0.95393 0.0
C7286 C 0.65086 0.60795 0.95442 0.0
C7287 C 0.64614 0.61314 0.94625 0.0
C7288 C 0.6664 0.61514 0.96363 0.0
C7289 C 0.66783 0.59929 0.95124 0.0
C7290 C 0.61023 0.6237 0.93895 0.0
C7291 C 0.60099 0.62249 0.94409 0.0
C7292 C 0.60075 0.6161 0.95302 0.0
C7293 C 0.60962 0.61135 0.95685 0.0
C7294 C 0.61888 0.61304 0.95176 0.0
C7295 C 0.61894 0.61905 0.94289 0.0
C7296 C 0.62924 0.62029 0.93839 0.0
C7297 C 0.63552 0.61425 0.94607 0.0
C7298 C 0.62952 0.60988 0.95392 0.0
C7299 C 0.63182 0.63206 0.93835 0.0
C7300 C 0.62931 0.61499 0.92759 0.0
H7301 H 0.66397 0.59435 0.97074 0.0
H7302 H 0.63256 0.58842 0.99078 0.0
H7303 H 0.6273 0.58365 0.9646 0.0
H7304 H 0.61686 0.59209 0.96303 0.0
H7305 H 0.61927 0.58638 0.97551 0.0
H7306 H 0.6305 0.61181 0.98273 0.0
H7307 H 0.62035 0.60285 0.98507 0.0
H7308 H 0.61964 0.61231 0.97486 0.0
H7309 H 0.67881 0.62172 0.94578 0.0
H7310 H 0.66113 0.63439 0.92068 0.0
H7311 H 0.64657 0.62504 0.92648 0.0
H7312 H 0.66328 0.62313 0.96411 0.0
H7313 H 0.67476 0.61572 0.96332 0.0
H7314 H 0.66435 0.61134 0.97098 0.0
H7315 H 0.66825 0.59804 0.94271 0.0
H7316 H 0.66382 0.59238 0.95422 0.0
H7317 H 0.67568 0.59933 0.95426 0.0
H7318 H 0.66489 0.58545 0.98711 0.0
C7319 C 0.65704 0.5932 0.97485 0.0
C7320 C 0.65026 0.37754 0.17989 0.0
C7321 C 0.64664 0.37785 0.16955 0.0
C7322 C 0.64251 0.38727 0.16592 0.0
C7323 C 0.64403 0.39494 0.18297 0.0
C7324 C 0.64875 0.3861 0.18647 0.0
C7325 C 0.65088 0.38667 0.19797 0.0
H7326 H 0.64056 0.41018 0.24397 0.0
C7327 C 0.64206 0.40174 0.19194 0.0
C7328 C 0.64602 0.39699 0.20083 0.0
H7329 H 0.65797 0.38228 0.23917 0.0
H7330 H 0.65682 0.38466 0.22056 0.0
H7331 H 0.65101 0.42384 0.22418 0.0
H7332 H 0.62413 0.40524 0.22783 0.0
H7333 H 0.62096 0.41617 0.22048 0.0
H7334 H 0.62523 0.41783 0.23365 0.0
H7335 H 0.64095 0.4273 0.23287 0.0
H7336 H 0.64047 0.43065 0.21932 0.0
C7337 C 0.66243 0.38698 0.19947 0.0
C7338 C 0.64564 0.37737 0.20328 0.0
C7339 C 0.61845 0.43187 0.18644 0.0
C7340 C 0.61317 0.4384 0.19319 0.0
C7341 C 0.61575 0.4385 0.20378 0.0
C7342 C 0.62317 0.43167 0.20764 0.0
C7343 C 0.62786 0.42458 0.20085 0.0
C7344 C 0.62563 0.42503 0.1904 0.0
C7345 C 0.63072 0.41667 0.1843 0.0
C7346 C 0.63627 0.41092 0.19277 0.0
C7347 C 0.63465 0.41554 0.20247 0.0
C7348 C 0.63817 0.42193 0.17669 0.0
C7349 C 0.62239 0.40993 0.1791 0.0
C7350 C 0.64412 0.40454 0.23894 0.0
C7351 C 0.64919 0.39591 0.2431 0.0
C7352 C 0.65397 0.38897 0.23621 0.0
C7353 C 0.6532 0.39031 0.2254 0.0
C7354 C 0.64752 0.39863 0.2214 0.0
C7355 C 0.64335 0.40572 0.22818 0.0
C7356 C 0.6375 0.41406 0.22271 0.0
C7357 C 0.63874 0.41083 0.2115 0.0
C7358 C 0.64456 0.40171 0.21072 0.0
C7359 C 0.64267 0.42457 0.22489 0.0
C7360 C 0.62637 0.41341 0.22635 0.0
H7361 H 0.63795 0.40255 0.16921 0.0
H7362 H 0.65385 0.37069 0.18299 0.0
H7363 H 0.63801 0.37609 0.19992 0.0
H7364 H 0.64436 0.37853 0.21163 0.0
H7365 H 0.65008 0.37015 0.20218 0.0
H7366 H 0.66596 0.39236 0.19378 0.0
H7367 H 0.66578 0.37917 0.19829 0.0
H7368 H 0.66466 0.38991 0.20717 0.0
H7369 H 0.61649 0.43158 0.17828 0.0
H7370 H 0.6117 0.44346 0.20911 0.0
H7371 H 0.62466 0.43188 0.21582 0.0
H7372 H 0.64186 0.42876 0.18037 0.0
H7373 H 0.63421 0.4247 0.16963 0.0
H7374 H 0.64448 0.41681 0.1744 0.0
H7375 H 0.61505 0.41055 0.18325 0.0
H7376 H 0.62407 0.40155 0.17931 0.0
H7377 H 0.62107 0.41234 0.17094 0.0
H7378 H 0.63954 0.38801 0.15816 0.0
C7379 C 0.64138 0.39579 0.17248 0.0
C7380 C 0.91044 0.37385 0.46891 0.0
C7381 C 0.91177 0.37178 0.45823 0.0
C7382 C 0.90334 0.37227 0.45163 0.0
C7383 C 0.89236 0.37513 0.46628 0.0
C7384 C 0.90063 0.37555 0.47274 0.0
C7385 C 0.89752 0.37746 0.48385 0.0
H7386 H 0.86037 0.377 0.52002 0.0
C7387 C 0.88317 0.37572 0.47267 0.0
C7388 C 0.88605 0.37714 0.483 0.0
H7389 H 0.89227 0.38254 0.52458 0.0
H7390 H 0.89489 0.38216 0.50613 0.0
H7391 H 0.85794 0.392 0.49809 0.0
H7392 H 0.86325 0.35909 0.50249 0.0
H7393 H 0.85361 0.36126 0.49335 0.0
H7394 H 0.85168 0.36509 0.50662 0.0
H7395 H 0.8491 0.38391 0.50493 0.0
H7396 H 0.84929 0.38428 0.49099 0.0
C7397 C 0.90132 0.38836 0.48699 0.0
C7398 C 0.90174 0.36853 0.49057 0.0
C7399 C 0.85066 0.36627 0.45503 0.0
C7400 C 0.84097 0.36376 0.45844 0.0
C7401 C 0.83847 0.36551 0.46894 0.0
C7402 C 0.84582 0.36924 0.476 0.0
C7403 C 0.85576 0.37108 0.47251 0.0
C7404 C 0.85786 0.36976 0.46209 0.0
C7405 C 0.86867 0.37156 0.45951 0.0
C7406 C 0.87296 0.37395 0.47007 0.0
C7407 C 0.86546 0.3738 0.47777 0.0
C7408 C 0.86921 0.38117 0.4523 0.0
C7409 C 0.87301 0.36135 0.45483 0.0
C7410 C 0.86794 0.37808 0.51708 0.0
C7411 C 0.87613 0.37968 0.52392 0.0
C7412 C 0.88579 0.38135 0.51962 0.0
C7413 C 0.88733 0.38102 0.50885 0.0
C7414 C 0.87918 0.37887 0.50222 0.0
C7415 C 0.86963 0.3777 0.50633 0.0
C7416 C 0.86186 0.37548 0.49805 0.0
C7417 C 0.86831 0.37554 0.48831 0.0
C7418 C 0.87851 0.3774 0.49086 0.0
C7419 C 0.85406 0.38435 0.49799 0.0
C7420 C 0.85727 0.36469 0.50021 0.0
H7421 H 0.88765 0.37391 0.45008 0.0
H7422 H 0.9168 0.37375 0.47417 0.0
H7423 H 0.90063 0.36095 0.48661 0.0
H7424 H 0.89792 0.36774 0.49811 0.0
H7425 H 0.90995 0.36954 0.49197 0.0
H7426 H 0.90095 0.3938 0.48031 0.0
H7427 H 0.90928 0.38807 0.48966 0.0
H7428 H 0.8966 0.392 0.49303 0.0
H7429 H 0.85279 0.365 0.44701 0.0
H7430 H 0.83099 0.36364 0.47174 0.0
H7431 H 0.84358 0.37031 0.48393 0.0
H7432 H 0.86334 0.38698 0.4544 0.0
H7433 H 0.86796 0.37896 0.44408 0.0
H7434 H 0.87642 0.38543 0.45298 0.0
H7435 H 0.86842 0.35446 0.45702 0.0
H7436 H 0.88063 0.35944 0.45775 0.0
H7437 H 0.8732 0.36166 0.44623 0.0
H7438 H 0.90416 0.37118 0.44334 0.0
C7439 C 0.8937 0.37394 0.45557 0.0
C7440 C 0.85136 0.4138 0.84087 0.0
C7441 C 0.85625 0.41045 0.85005 0.0
C7442 C 0.85378 0.40054 0.85399 0.0
C7443 C 0.84556 0.39628 0.83797 0.0
C7444 C 0.84572 0.40653 0.8351 0.0
C7445 C 0.83975 0.40811 0.82523 0.0
H7446 H 0.82737 0.38764 0.77873 0.0
C7447 C 0.84197 0.39009 0.8292 0.0
C7448 C 0.83819 0.39691 0.8217 0.0
H7449 H 0.82068 0.41851 0.78999 0.0
H7450 H 0.82641 0.41368 0.80702 0.0
H7451 H 0.84664 0.38478 0.78769 0.0
H7452 H 0.81859 0.3753 0.80152 0.0
H7453 H 0.8274 0.36498 0.80184 0.0
H7454 H 0.82359 0.37033 0.78955 0.0
H7455 H 0.84113 0.37243 0.78476 0.0
H7456 H 0.84963 0.37421 0.79556 0.0
C7457 C 0.8461 0.41455 0.81754 0.0
C7458 C 0.82961 0.41322 0.82825 0.0
C7459 C 0.85796 0.35488 0.82558 0.0
C7460 C 0.85939 0.3483 0.81707 0.0
C7461 C 0.85343 0.34979 0.80814 0.0
C7462 C 0.84681 0.35829 0.80744 0.0
C7463 C 0.84637 0.36547 0.81565 0.0
C7464 C 0.85166 0.36349 0.82465 0.0
C7465 C 0.85074 0.37201 0.83247 0.0
C7466 C 0.84426 0.37971 0.82654 0.0
C7467 C 0.84179 0.3759 0.81667 0.0
C7468 C 0.86154 0.37616 0.83461 0.0
C7469 C 0.8453 0.36774 0.84222 0.0
C7470 C 0.82683 0.39333 0.78487 0.0
C7471 C 0.82384 0.4036 0.7828 0.0
C7472 C 0.82332 0.41066 0.79117 0.0
C7473 C 0.82659 0.40784 0.80111 0.0
C7474 C 0.83036 0.39784 0.8028 0.0
C7475 C 0.82995 0.39062 0.79491 0.0
C7476 C 0.83411 0.38029 0.7982 0.0
C7477 C 0.83708 0.38253 0.80934 0.0
C7478 C 0.83504 0.39291 0.81194 0.0
C7479 C 0.84331 0.37769 0.79121 0.0
C7480 C 0.82551 0.37222 0.79772 0.0
H7481 H 0.84737 0.38577 0.85098 0.0
H7482 H 0.85245 0.42156 0.83792 0.0
H7483 H 0.82689 0.41031 0.83588 0.0
H7484 H 0.82345 0.41134 0.82281 0.0
H7485 H 0.8304 0.42177 0.82887 0.0
H7486 H 0.85379 0.41117 0.81676 0.0
H7487 H 0.84688 0.42267 0.82028 0.0
H7488 H 0.84286 0.41481 0.8097 0.0
H7489 H 0.86208 0.35363 0.83273 0.0
H7490 H 0.85422 0.3447 0.80152 0.0
H7491 H 0.84262 0.35922 0.80038 0.0
H7492 H 0.86523 0.37856 0.82724 0.0
H7493 H 0.8663 0.37012 0.83829 0.0
H7494 H 0.8618 0.38285 0.83984 0.0
H7495 H 0.8419 0.35997 0.84086 0.0
H7496 H 0.8389 0.37276 0.84459 0.0
H7497 H 0.8506 0.36695 0.84885 0.0
H7498 H 0.85657 0.39801 0.86146 0.0
C7499 C 0.84848 0.39342 0.84796 0.0
C7500 C 0.91051 0.63107 0.03591 0.0
C7501 C 0.91187 0.63316 0.04657 0.0
C7502 C 0.90347 0.6326 0.05322 0.0
C7503 C 0.89245 0.62969 0.03862 0.0
C7504 C 0.90069 0.62931 0.03211 0.0
C7505 C 0.89754 0.62735 0.02103 0.0
H7506 H 0.86028 0.62842 0.98501 0.0
C7507 C 0.88324 0.62907 0.03228 0.0
C7508 C 0.88606 0.62765 0.02194 0.0
H7509 H 0.89201 0.62208 0.98032 0.0
H7510 H 0.89471 0.62234 0.99878 0.0
H7511 H 0.85779 0.61309 0.00677 0.0
H7512 H 0.86331 0.64599 0.00265 0.0
H7513 H 0.85374 0.64385 0.01187 0.0
H7514 H 0.85165 0.64012 0.99861 0.0
H7515 H 0.84896 0.62133 1.00012 0.0
H7516 H 0.84926 0.62076 0.01405 0.0
C7517 C 0.90134 0.61644 0.01792 0.0
C7518 C 0.90171 0.63625 0.01424 0.0
C7519 C 0.85081 0.63861 0.05007 0.0
C7520 C 0.84112 0.64116 0.04669 0.0
C7521 C 0.83858 0.63946 0.0362 0.0
C7522 C 0.8459 0.63573 0.02911 0.0
C7523 C 0.85585 0.63385 0.03256 0.0
C7524 C 0.85798 0.63512 0.04298 0.0
C7525 C 0.8688 0.63327 0.04552 0.0
C7526 C 0.87304 0.63088 0.03493 0.0
C7527 C 0.86552 0.63109 0.02726 0.0
C7528 C 0.86933 0.62365 0.05271 0.0
C7529 C 0.87319 0.64347 0.05019 0.0
C7530 C 0.86783 0.62712 0.98795 0.0
C7531 C 0.87596 0.62537 0.9811 0.0
C7532 C 0.88559 0.62341 0.98534 0.0
C7533 C 0.88717 0.62368 0.99609 0.0
C7534 C 0.87909 0.626 0.00275 0.0
C7535 C 0.86954 0.62737 0.99869 0.0
C7536 C 0.86183 0.62958 0.00701 0.0
C7537 C 0.86831 0.62938 0.01671 0.0
C7538 C 0.87849 0.62743 0.01412 0.0
C7539 C 0.85397 0.62077 0.00701 0.0
C7540 C 0.8573 0.64043 0.00496 0.0
H7541 H 0.88781 0.63085 0.05484 0.0
H7542 H 0.91685 0.63119 0.03062 0.0
H7543 H 0.90041 0.64386 0.01808 0.0
H7544 H 0.89802 0.63684 0.00662 0.0
H7545 H 0.90995 0.63535 0.013 0.0
H7546 H 0.90113 0.61105 0.02465 0.0
H7547 H 0.90925 0.61675 0.01508 0.0
H7548 H 0.89653 0.61272 0.012 0.0
H7549 H 0.85297 0.63985 0.05809 0.0
H7550 H 0.8311 0.64138 0.03343 0.0
H7551 H 0.84364 0.63472 0.02118 0.0
H7552 H 0.86344 0.61787 0.05061 0.0
H7553 H 0.86812 0.62585 0.06094 0.0
H7554 H 0.87653 0.61937 0.05199 0.0
H7555 H 0.86858 0.65037 0.0481 0.0
H7556 H 0.88077 0.64539 0.04718 0.0
H7557 H 0.87349 0.64311 0.05878 0.0
H7558 H 0.90432 0.63369 0.0615 0.0
C7559 C 0.89383 0.63087 0.04932 0.0
C7560 C 0.65027 0.62744 0.32525 0.0
C7561 C 0.64665 0.62713 0.3356 0.0
C7562 C 0.64252 0.61771 0.33922 0.0
C7563 C 0.64404 0.61004 0.32218 0.0
C7564 C 0.64875 0.61888 0.31867 0.0
C7565 C 0.65088 0.61831 0.30717 0.0
H7566 H 0.64056 0.59481 0.26117 0.0
C7567 C 0.64207 0.60324 0.31321 0.0
C7568 C 0.64602 0.60799 0.30431 0.0
H7569 H 0.65798 0.6227 0.26597 0.0
H7570 H 0.65683 0.62031 0.28459 0.0
H7571 H 0.651 0.58115 0.28096 0.0
H7572 H 0.62412 0.59976 0.27733 0.0
H7573 H 0.62095 0.58882 0.28467 0.0
H7574 H 0.62522 0.58716 0.2715 0.0
H7575 H 0.64095 0.57769 0.27227 0.0
H7576 H 0.64046 0.57434 0.28582 0.0
C7577 C 0.66244 0.61799 0.30568 0.0
C7578 C 0.64565 0.62761 0.30187 0.0
C7579 C 0.61845 0.57311 0.31871 0.0
C7580 C 0.61317 0.56659 0.31196 0.0
C7581 C 0.61575 0.56649 0.30137 0.0
C7582 C 0.62317 0.57331 0.2975 0.0
C7583 C 0.62786 0.58041 0.3043 0.0
C7584 C 0.62563 0.57996 0.31475 0.0
C7585 C 0.63072 0.58831 0.32084 0.0
C7586 C 0.63627 0.59406 0.31237 0.0
C7587 C 0.63465 0.58945 0.30268 0.0
C7588 C 0.63818 0.58305 0.32845 0.0
C7589 C 0.62239 0.59505 0.32605 0.0
C7590 C 0.64412 0.60045 0.2662 0.0
C7591 C 0.6492 0.60907 0.26204 0.0
C7592 C 0.65398 0.61601 0.26893 0.0
C7593 C 0.6532 0.61467 0.27975 0.0
C7594 C 0.64752 0.60636 0.28375 0.0
C7595 C 0.64335 0.59926 0.27696 0.0
C7596 C 0.6375 0.59093 0.28243 0.0
C7597 C 0.63874 0.59415 0.29364 0.0
C7598 C 0.64456 0.60327 0.29443 0.0
C7599 C 0.64266 0.58042 0.28025 0.0
C7600 C 0.62637 0.59158 0.2788 0.0
H7601 H 0.63795 0.60243 0.33594 0.0
H7602 H 0.65386 0.63429 0.32216 0.0
H7603 H 0.63802 0.6289 0.30523 0.0
H7604 H 0.64437 0.62646 0.29352 0.0
H7605 H 0.65009 0.63483 0.30296 0.0
H7606 H 0.66596 0.61261 0.31136 0.0
H7607 H 0.66579 0.62579 0.30686 0.0
H7608 H 0.66466 0.61506 0.29798 0.0
H7609 H 0.6165 0.5734 0.32687 0.0
H7610 H 0.6117 0.56153 0.29604 0.0
H7611 H 0.62466 0.57311 0.28933 0.0
H7612 H 0.64187 0.57622 0.32476 0.0
H7613 H 0.63422 0.58027 0.33551 0.0
H7614 H 0.64448 0.58817 0.33075 0.0
H7615 H 0.61505 0.59444 0.32191 0.0
H7616 H 0.62407 0.60344 0.32584 0.0
H7617 H 0.62108 0.59265 0.33421 0.0
H7618 H 0.63955 0.61697 0.34699 0.0
C7619 C 0.64139 0.60919 0.33266 0.0
C7620 C 0.63943 0.41534 0.51881 0.0
C7621 C 0.64886 0.41851 0.51479 0.0
C7622 C 0.65759 0.41685 0.5208 0.0
C7623 C 0.6477 0.40803 0.5339 0.0
C7624 C 0.63903 0.41019 0.52839 0.0
C7625 C 0.62974 0.40592 0.53367 0.0
H7626 H 0.61079 0.37668 0.57332 0.0
C7627 C 0.64488 0.4019 0.54311 0.0
C7628 C 0.63429 0.40075 0.54317 0.0
H7629 H 0.59376 0.38996 0.54804 0.0
H7630 H 0.60897 0.39825 0.54153 0.0
H7631 H 0.62727 0.36848 0.56115 0.0
H7632 H 0.62425 0.39687 0.57771 0.0
H7633 H 0.63681 0.39307 0.57976 0.0
H7634 H 0.62666 0.3846 0.58376 0.0
H7635 H 0.6304 0.36938 0.57462 0.0
H7636 H 0.63971 0.37122 0.56459 0.0
C7637 C 0.62471 0.39803 0.52629 0.0
C7638 C 0.62285 0.41508 0.53668 0.0
C7639 C 0.6718 0.38263 0.56371 0.0
C7640 C 0.67095 0.37598 0.57232 0.0
C7641 C 0.66185 0.3756 0.57788 0.0
C7642 C 0.6534 0.381 0.57445 0.0
C7643 C 0.65401 0.38682 0.5653 0.0
C7644 C 0.6632 0.38816 0.56044 0.0
C7645 C 0.66228 0.39537 0.55127 0.0
C7646 C 0.65087 0.39696 0.55078 0.0
C7647 C 0.64615 0.39179 0.55896 0.0
C7648 C 0.6664 0.38974 0.54156 0.0
C7649 C 0.66785 0.40559 0.55395 0.0
C7650 C 0.61025 0.38121 0.56627 0.0
C7651 C 0.60101 0.38241 0.56112 0.0
C7652 C 0.60076 0.38879 0.55219 0.0
C7653 C 0.60963 0.39354 0.54835 0.0
C7654 C 0.61889 0.39187 0.55344 0.0
C7655 C 0.61895 0.38587 0.56232 0.0
C7656 C 0.62926 0.38465 0.56683 0.0
C7657 C 0.63553 0.39068 0.55914 0.0
C7658 C 0.62953 0.39503 0.55129 0.0
C7659 C 0.63185 0.37288 0.5669 0.0
C7660 C 0.62931 0.38998 0.57762 0.0
H7661 H 0.66397 0.41055 0.53444 0.0
H7662 H 0.63256 0.41649 0.51443 0.0
H7663 H 0.6273 0.42125 0.5406 0.0
H7664 H 0.61686 0.41281 0.54216 0.0
H7665 H 0.61927 0.41852 0.52969 0.0
H7666 H 0.63051 0.3931 0.52247 0.0
H7667 H 0.62036 0.40205 0.52013 0.0
H7668 H 0.61966 0.39259 0.53034 0.0
H7669 H 0.67881 0.38312 0.55942 0.0
H7670 H 0.66112 0.37058 0.58457 0.0
H7671 H 0.64658 0.37995 0.57876 0.0
H7672 H 0.66326 0.38176 0.54108 0.0
H7673 H 0.67476 0.38913 0.54188 0.0
H7674 H 0.66437 0.39355 0.53422 0.0
H7675 H 0.66827 0.40685 0.56247 0.0
H7676 H 0.66385 0.41251 0.55096 0.0
H7677 H 0.6757 0.40554 0.55093 0.0
H7678 H 0.66489 0.41945 0.51807 0.0
C7679 C 0.65704 0.4117 0.53033 0.0
C7680 C 0.74972 0.86619 0.61827 0.0
C7681 C 0.75521 0.86764 0.60897 0.0
C7682 C 0.75194 0.87532 0.60197 0.0
C7683 C 0.73761 0.87935 0.61286 0.0
C7684 C 0.74091 0.87214 0.62004 0.0
C7685 C 0.73388 0.87166 0.62929 0.0
H7686 H 0.69047 0.88987 0.65188 0.0
C7687 C 0.72816 0.88407 0.61665 0.0
C7688 C 0.72592 0.87973 0.62643 0.0
H7689 H 0.71003 0.86623 0.66442 0.0
H7690 H 0.72132 0.86817 0.64962 0.0
H7691 H 0.7077 0.90495 0.645 0.0
H7692 H 0.68993 0.88166 0.63013 0.0
H7693 H 0.69174 0.8909 0.62043 0.0
H7694 H 0.68531 0.89455 0.6322 0.0
H7695 H 0.69488 0.90703 0.64108 0.0
H7696 H 0.70536 0.90991 0.63258 0.0
C7697 C 0.73984 0.87479 0.63906 0.0
C7698 C 0.72937 0.86066 0.62988 0.0
C7699 C 0.70731 0.90758 0.59287 0.0
C7700 C 0.69815 0.91292 0.59452 0.0
C7701 C 0.69405 0.91317 0.60459 0.0
C7702 C 0.69857 0.90781 0.61272 0.0
C7703 C 0.70734 0.90202 0.61089 0.0
C7704 C 0.71188 0.90234 0.60127 0.0
C7705 C 0.72163 0.89626 0.60123 0.0
C7706 C 0.72152 0.89142 0.61204 0.0
C7707 C 0.7131 0.89485 0.61755 0.0
C7708 C 0.73043 0.90408 0.60004 0.0
C7709 C 0.721 0.88802 0.59254 0.0
C7710 C 0.69707 0.88493 0.65146 0.0
C7711 C 0.69917 0.87775 0.6593 0.0
C7712 C 0.70813 0.87182 0.65847 0.0
C7713 C 0.71467 0.87292 0.64984 0.0
C7714 C 0.71226 0.88006 0.64195 0.0
C7715 C 0.70357 0.8859 0.643 0.0
C7716 C 0.70186 0.89308 0.63414 0.0
C7717 C 0.71083 0.89062 0.62739 0.0
C7718 C 0.71708 0.88303 0.6319 0.0
C7719 C 0.70238 0.90435 0.63835 0.0
C7720 C 0.69169 0.89002 0.62894 0.0
H7721 H 0.74122 0.88678 0.59813 0.0
H7722 H 0.75208 0.86043 0.62386 0.0
H7723 H 0.72668 0.85813 0.62211 0.0
H7724 H 0.72277 0.86021 0.63506 0.0
H7725 H 0.73511 0.855 0.63258 0.0
H7726 H 0.7442 0.88202 0.63761 0.0
H7727 H 0.74526 0.86861 0.64128 0.0
H7728 H 0.73489 0.87642 0.64573 0.0
H7729 H 0.71075 0.9074 0.58526 0.0
H7730 H 0.68701 0.91717 0.60611 0.0
H7731 H 0.69479 0.90811 0.62005 0.0
H7732 H 0.72849 0.91173 0.60352 0.0
H7733 H 0.73228 0.90541 0.59176 0.0
H7734 H 0.73731 0.90163 0.60423 0.0
H7735 H 0.71339 0.88439 0.59241 0.0
H7736 H 0.72631 0.88154 0.59357 0.0
H7737 H 0.72234 0.89158 0.58482 0.0
H7738 H 0.75612 0.87683 0.59492 0.0
C7739 C 0.74326 0.88116 0.60387 0.0
C7740 C 0.24968 0.63875 0.38696 0.0
C7741 C 0.25516 0.63729 0.39626 0.0
C7742 C 0.2519 0.62959 0.40324 0.0
C7743 C 0.23759 0.62558 0.39234 0.0
C7744 C 0.24088 0.63279 0.38517 0.0
C7745 C 0.23386 0.63329 0.37592 0.0
H7746 H 0.19047 0.61508 0.35331 0.0
C7747 C 0.22814 0.62086 0.38854 0.0
C7748 C 0.22591 0.6252 0.37877 0.0
H7749 H 0.21003 0.63872 0.34079 0.0
H7750 H 0.22131 0.63677 0.35559 0.0
H7751 H 0.20769 0.6 0.36019 0.0
H7752 H 0.18993 0.62329 0.37507 0.0
H7753 H 0.19173 0.61405 0.38476 0.0
H7754 H 0.1853 0.61041 0.37299 0.0
H7755 H 0.19486 0.59792 0.36411 0.0
H7756 H 0.20534 0.59503 0.37261 0.0
C7757 C 0.23983 0.63016 0.36615 0.0
C7758 C 0.22935 0.64429 0.37533 0.0
C7759 C 0.20731 0.59736 0.41232 0.0
C7760 C 0.19814 0.59203 0.41068 0.0
C7761 C 0.19403 0.59177 0.40061 0.0
C7762 C 0.19855 0.59714 0.39248 0.0
C7763 C 0.20732 0.60292 0.39431 0.0
C7764 C 0.21186 0.6026 0.40393 0.0
C7765 C 0.22162 0.60867 0.40396 0.0
C7766 C 0.2215 0.61351 0.39316 0.0
C7767 C 0.21308 0.61009 0.38764 0.0
C7768 C 0.23042 0.60085 0.40514 0.0
C7769 C 0.22098 0.61691 0.41266 0.0
C7770 C 0.19706 0.62002 0.35374 0.0
C7771 C 0.19917 0.6272 0.3459 0.0
C7772 C 0.20813 0.63313 0.34673 0.0
C7773 C 0.21466 0.63203 0.35536 0.0
C7774 C 0.21225 0.62488 0.36324 0.0
C7775 C 0.20356 0.61904 0.36219 0.0
C7776 C 0.20184 0.61187 0.37106 0.0
C7777 C 0.21081 0.61433 0.37781 0.0
C7778 C 0.21706 0.62191 0.3733 0.0
C7779 C 0.20237 0.6006 0.36685 0.0
C7780 C 0.19168 0.61494 0.37625 0.0
H7781 H 0.2412 0.61812 0.40705 0.0
H7782 H 0.25204 0.64453 0.38138 0.0
H7783 H 0.22665 0.64681 0.3831 0.0
H7784 H 0.22276 0.64474 0.37015 0.0
H7785 H 0.23509 0.64995 0.37264 0.0
H7786 H 0.24419 0.62293 0.3676 0.0
H7787 H 0.24525 0.63634 0.36393 0.0
H7788 H 0.23489 0.62853 0.35947 0.0
H7789 H 0.21075 0.59753 0.41993 0.0
H7790 H 0.18699 0.58778 0.3991 0.0
H7791 H 0.19477 0.59684 0.38515 0.0
H7792 H 0.22846 0.59319 0.40171 0.0
H7793 H 0.2323 0.59955 0.41343 0.0
H7794 H 0.23729 0.60327 0.40092 0.0
H7795 H 0.21337 0.62054 0.41279 0.0
H7796 H 0.2263 0.62339 0.41162 0.0
H7797 H 0.22233 0.61335 0.42037 0.0
H7798 H 0.25608 0.62807 0.4103 0.0
C7799 C 0.24324 0.62375 0.40133 0.0
C7800 C 0.60185 0.91413 0.66308 0.0
C7801 C 0.60681 0.90498 0.65978 0.0
C7802 C 0.60466 0.9012 0.64973 0.0
C7803 C 0.59668 0.91733 0.64538 0.0
C7804 C 0.59647 0.92002 0.65569 0.0
C7805 C 0.59044 0.92986 0.65724 0.0
H7806 H 0.578 0.97645 0.63709 0.0
C7807 C 0.59318 0.92615 0.63921 0.0
C7808 C 0.58916 0.93352 0.64604 0.0
H7809 H 0.57111 0.96484 0.66778 0.0
H7810 H 0.577 0.94791 0.66283 0.0
H7811 H 0.59757 0.96729 0.63419 0.0
H7812 H 0.56938 0.95367 0.62467 0.0
H7813 H 0.57813 0.95327 0.61432 0.0
H7814 H 0.57432 0.9656 0.61959 0.0
H7815 H 0.59157 0.97098 0.6223 0.0
H7816 H 0.60016 0.96015 0.62299 0.0
C7817 C 0.59662 0.93747 0.66395 0.0
C7818 C 0.58017 0.92676 0.66204 0.0
C7819 C 0.60877 0.92992 0.60357 0.0
C7820 C 0.60925 0.93812 0.59644 0.0
C7821 C 0.60333 0.94704 0.5983 0.0
C7822 C 0.59741 0.94791 0.60731 0.0
C7823 C 0.59751 0.93986 0.61465 0.0
C7824 C 0.60294 0.93096 0.61258 0.0
C7825 C 0.60207 0.92309 0.62109 0.0
C7826 C 0.59557 0.92893 0.62887 0.0
C7827 C 0.593 0.93878 0.62511 0.0
C7828 C 0.61285 0.92094 0.62521 0.0
C7829 C 0.59665 0.91333 0.61679 0.0
C7830 C 0.57747 0.97025 0.64271 0.0
C7831 C 0.57437 0.97221 0.65298 0.0
C7832 C 0.57384 0.96376 0.65994 0.0
C7833 C 0.57721 0.95387 0.65706 0.0
C7834 C 0.5811 0.95231 0.64708 0.0
C7835 C 0.58069 0.96026 0.63993 0.0
C7836 C 0.58491 0.95708 0.62958 0.0
C7837 C 0.58806 0.94598 0.63176 0.0
C7838 C 0.58593 0.94327 0.6421 0.0
C7839 C 0.59398 0.96423 0.62702 0.0
C7840 C 0.57628 0.95746 0.62154 0.0
H7841 H 0.59885 0.90447 0.63476 0.0
H7842 H 0.60266 0.91697 0.67092 0.0
H7843 H 0.57759 0.91912 0.65904 0.0
H7844 H 0.57404 0.93217 0.65997 0.0
H7845 H 0.58071 0.92615 0.67061 0.0
H7846 H 0.60441 0.93822 0.66084 0.0
H7847 H 0.59712 0.93468 0.67208 0.0
H7848 H 0.59343 0.94533 0.66414 0.0
H7849 H 0.61288 0.9228 0.60219 0.0
H7850 H 0.60346 0.95348 0.59292 0.0
H7851 H 0.59316 0.95491 0.60833 0.0
H7852 H 0.6164 0.92825 0.62798 0.0
H7853 H 0.6177 0.91762 0.61903 0.0
H7854 H 0.61309 0.91538 0.63165 0.0
H7855 H 0.59317 0.91473 0.60907 0.0
H7856 H 0.59029 0.9109 0.62184 0.0
H7857 H 0.60197 0.90674 0.6159 0.0
H7858 H 0.60745 0.89373 0.64718 0.0
C7859 C 0.59969 0.90738 0.64248 0.0
C7860 C 0.29174 0.36851 0.83076 0.0
C7861 C 0.30043 0.3731 0.82636 0.0
C7862 C 0.30995 0.37072 0.83051 0.0
C7863 C 0.30222 0.3604 0.8439 0.0
C7864 C 0.29284 0.36218 0.83962 0.0
C7865 C 0.28464 0.35686 0.84582 0.0
H7866 H 0.27106 0.33483 0.89166 0.0
C7867 C 0.30093 0.35443 0.85352 0.0
C7868 C 0.29067 0.35224 0.8548 0.0
H7869 H 0.25181 0.34231 0.86569 0.0
H7870 H 0.26641 0.34679 0.8554 0.0
H7871 H 0.28972 0.32355 0.87626 0.0
H7872 H 0.28483 0.35339 0.89062 0.0
H7873 H 0.29768 0.35042 0.89169 0.0
H7874 H 0.28853 0.34227 0.89806 0.0
H7875 H 0.28919 0.32535 0.89007 0.0
H7876 H 0.3007 0.32748 0.88296 0.0
C7877 C 0.27991 0.34834 0.83895 0.0
C7878 C 0.27708 0.36521 0.8495 0.0
C7879 C 0.33131 0.35128 0.87666 0.0
C7880 C 0.33272 0.34824 0.88699 0.0
C7881 C 0.32464 0.34343 0.89226 0.0
C7882 C 0.31521 0.34208 0.88738 0.0
C7883 C 0.3138 0.3458 0.87722 0.0
C7884 C 0.32189 0.35009 0.87204 0.0
C7885 C 0.31912 0.35421 0.86161 0.0
C7886 C 0.30798 0.35183 0.86132 0.0
C7887 C 0.30482 0.34688 0.87042 0.0
C7888 C 0.32499 0.34782 0.85338 0.0
C7889 C 0.32128 0.36608 0.86157 0.0
C7890 C 0.27001 0.33734 0.88372 0.0
C7891 C 0.26027 0.33836 0.87953 0.0
C7892 C 0.25923 0.34147 0.86911 0.0
C7893 C 0.26771 0.34419 0.86318 0.0
C7894 C 0.27733 0.34381 0.8677 0.0
C7895 C 0.2784 0.33999 0.87766 0.0
C7896 C 0.28923 0.33987 0.88113 0.0
C7897 C 0.29443 0.34456 0.87179 0.0
C7898 C 0.28742 0.34698 0.86394 0.0
C7899 C 0.29243 0.32848 0.88278 0.0
C7900 C 0.2902 0.34677 0.89092 0.0
H7901 H 0.31839 0.36308 0.8419 0.0
H7902 H 0.28433 0.37005 0.82757 0.0
H7903 H 0.28118 0.372 0.85276 0.0
H7904 H 0.27202 0.36252 0.85569 0.0
H7905 H 0.27238 0.36799 0.84293 0.0
H7906 H 0.28579 0.34446 0.83417 0.0
H7907 H 0.2742 0.35166 0.8336 0.0
H7908 H 0.27644 0.34204 0.84352 0.0
H7909 H 0.33721 0.35524 0.87242 0.0
H7910 H 0.32554 0.34094 0.90022 0.0
H7911 H 0.3093 0.3385 0.89181 0.0
H7912 H 0.32604 0.33966 0.85595 0.0
H7913 H 0.33259 0.35115 0.85196 0.0
H7914 H 0.32089 0.34717 0.84593 0.0
H7915 H 0.32126 0.36938 0.86954 0.0
H7916 H 0.31543 0.37063 0.85749 0.0
H7917 H 0.32876 0.36782 0.8581 0.0
H7918 H 0.31676 0.37385 0.82706 0.0
C7919 C 0.31089 0.36438 0.83915 0.0
C7920 C 0.40021 0.5753 0.6277 0.0
C7921 C 0.39659 0.58564 0.62805 0.0
C7922 C 0.39248 0.58924 0.6375 0.0
C7923 C 0.39401 0.57218 0.6451 0.0
C7924 C 0.39871 0.56869 0.63625 0.0
C7925 C 0.40086 0.55719 0.63678 0.0
H7926 H 0.39052 0.51111 0.66008 0.0
C7927 C 0.39204 0.56318 0.65187 0.0
C7928 C 0.396 0.5543 0.64709 0.0
H7929 H 0.40804 0.51605 0.63226 0.0
H7930 H 0.40684 0.53464 0.63473 0.0
H7931 H 0.40095 0.5309 0.67386 0.0
H7932 H 0.37408 0.52732 0.65521 0.0
H7933 H 0.37091 0.53457 0.66622 0.0
H7934 H 0.37519 0.5214 0.66775 0.0
H7935 H 0.39092 0.52214 0.67725 0.0
H7936 H 0.39037 0.53567 0.68068 0.0
C7937 C 0.41241 0.55571 0.6371 0.0
C7938 C 0.39563 0.5519 0.62746 0.0
C7939 C 0.3684 0.56863 0.682 0.0
C7940 C 0.36311 0.56188 0.68849 0.0
C7941 C 0.36567 0.55129 0.68856 0.0
C7942 C 0.37309 0.54742 0.68174 0.0
C7943 C 0.3778 0.55422 0.67467 0.0
C7944 C 0.37558 0.56467 0.67514 0.0
C7945 C 0.38069 0.57078 0.66681 0.0
C7946 C 0.38624 0.56232 0.66104 0.0
C7947 C 0.3846 0.55261 0.66562 0.0
C7948 C 0.38814 0.57837 0.67211 0.0
C7949 C 0.37237 0.57601 0.66008 0.0
C7950 C 0.3941 0.51617 0.65447 0.0
C7951 C 0.39922 0.51204 0.64584 0.0
C7952 C 0.404 0.51897 0.63895 0.0
C7953 C 0.40321 0.52978 0.64034 0.0
C7954 C 0.39749 0.53373 0.64866 0.0
C7955 C 0.39331 0.52692 0.65571 0.0
C7956 C 0.38745 0.53237 0.66406 0.0
C7957 C 0.3887 0.54359 0.66089 0.0
C7958 C 0.39453 0.5444 0.65177 0.0
C7959 C 0.39261 0.53014 0.67457 0.0
C7960 C 0.37633 0.52873 0.6634 0.0
H7961 H 0.38794 0.58591 0.65278 0.0
H7962 H 0.40378 0.57222 0.62082 0.0
H7963 H 0.388 0.55526 0.62618 0.0
H7964 H 0.39436 0.54355 0.62859 0.0
H7965 H 0.40008 0.55301 0.62024 0.0
H7966 H 0.41594 0.56141 0.64248 0.0
H7967 H 0.41577 0.55688 0.6293 0.0
H7968 H 0.41465 0.54802 0.64004 0.0
H7969 H 0.36646 0.57679 0.68173 0.0
H7970 H 0.3616 0.54595 0.69351 0.0
H7971 H 0.37458 0.53925 0.68193 0.0
H7972 H 0.39181 0.57467 0.67894 0.0
H7973 H 0.38419 0.58543 0.67488 0.0
H7974 H 0.39447 0.58065 0.66701 0.0
H7975 H 0.36502 0.57188 0.66068 0.0
H7976 H 0.37405 0.5758 0.65169 0.0
H7977 H 0.37107 0.58416 0.66249 0.0
H7978 H 0.38952 0.597 0.63827 0.0
C7979 C 0.39137 0.58266 0.646 0.0
C7980 C 0.79178 0.13645 0.17445 0.0
C7981 C 0.80047 0.13188 0.17885 0.0
C7982 C 0.80999 0.13428 0.17471 0.0
C7983 C 0.80225 0.1446 0.16131 0.0
C7984 C 0.79287 0.1428 0.16559 0.0
C7985 C 0.78466 0.14811 0.15938 0.0
H7986 H 0.77107 0.1701 0.11353 0.0
C7987 C 0.80096 0.15056 0.1517 0.0
C7988 C 0.79069 0.15274 0.15041 0.0
H7989 H 0.75183 0.16265 0.13953 0.0
H7990 H 0.76643 0.15818 0.14981 0.0
H7991 H 0.78975 0.1814 0.12893 0.0
H7992 H 0.78485 0.15155 0.11459 0.0
H7993 H 0.7977 0.15453 0.11351 0.0
H7994 H 0.78854 0.16267 0.10714 0.0
H7995 H 0.78918 0.1796 0.11512 0.0
H7996 H 0.80071 0.17747 0.1222 0.0
C7997 C 0.77993 0.15663 0.16626 0.0
C7998 C 0.77711 0.13975 0.15571 0.0
C7999 C 0.83133 0.15368 0.12855 0.0
C8000 C 0.83274 0.15668 0.11821 0.0
C8001 C 0.82466 0.16148 0.11293 0.0
C8002 C 0.81524 0.16286 0.11781 0.0
C8003 C 0.81382 0.15915 0.12798 0.0
C8004 C 0.82191 0.15487 0.13317 0.0
C8005 C 0.81915 0.15078 0.14361 0.0
C8006 C 0.808 0.15316 0.14389 0.0
C8007 C 0.80484 0.15808 0.13479 0.0
C8008 C 0.825 0.15719 0.15183 0.0
C8009 C 0.82131 0.13891 0.14367 0.0
C8010 C 0.77002 0.1676 0.12148 0.0
C8011 C 0.76027 0.16659 0.12567 0.0
C8012 C 0.75925 0.16349 0.1361 0.0
C8013 C 0.76772 0.16077 0.14203 0.0
C8014 C 0.77735 0.16115 0.1375 0.0
C8015 C 0.77841 0.16496 0.12754 0.0
C8016 C 0.78924 0.16508 0.12406 0.0
C8017 C 0.79445 0.1604 0.13341 0.0
C8018 C 0.78744 0.15799 0.14127 0.0
C8019 C 0.79244 0.17647 0.12241 0.0
C8020 C 0.79021 0.15818 0.11428 0.0
H8021 H 0.81842 0.14195 0.16333 0.0
H8022 H 0.78437 0.13491 0.17762 0.0
H8023 H 0.78122 0.13298 0.15244 0.0
H8024 H 0.77204 0.14245 0.14952 0.0
H8025 H 0.77242 0.13697 0.16228 0.0
H8026 H 0.78581 0.16051 0.17104 0.0
H8027 H 0.77422 0.1533 0.17161 0.0
H8028 H 0.77645 0.16292 0.1617 0.0
H8029 H 0.83724 0.14972 0.13281 0.0
H8030 H 0.82557 0.16395 0.10497 0.0
H8031 H 0.80933 0.16642 0.11338 0.0
H8032 H 0.82606 0.16535 0.14924 0.0
H8033 H 0.8326 0.15386 0.15326 0.0
H8034 H 0.8209 0.15786 0.15927 0.0
H8035 H 0.82131 0.13559 0.1357 0.0
H8036 H 0.81545 0.13437 0.14774 0.0
H8037 H 0.82878 0.13717 0.14717 0.0
H8038 H 0.8168 0.13116 0.17816 0.0
C8039 C 0.81092 0.14063 0.16608 0.0
C8040 C 0.60195 0.09081 0.84231 0.0
C8041 C 0.60694 0.09995 0.8456 0.0
C8042 C 0.60483 0.10373 0.85567 0.0
C8043 C 0.59678 0.08763 0.86001 0.0
C8044 C 0.59657 0.08493 0.8497 0.0
C8045 C 0.59052 0.07512 0.84815 0.0
H8046 H 0.57794 0.02856 0.86826 0.0
C8047 C 0.59322 0.07883 0.86618 0.0
C8048 C 0.58921 0.07146 0.85934 0.0
H8049 H 0.57119 0.04018 0.83754 0.0
H8050 H 0.57709 0.0571 0.84252 0.0
H8051 H 0.59761 0.03793 0.87131 0.0
H8052 H 0.56918 0.05128 0.88054 0.0
H8053 H 0.57781 0.05185 0.89097 0.0
H8054 H 0.57416 0.03943 0.88579 0.0
H8055 H 0.59135 0.03393 0.88297 0.0
H8056 H 0.59988 0.04482 0.88274 0.0
C8057 C 0.59671 0.06749 0.84146 0.0
C8058 C 0.58027 0.07823 0.84332 0.0
C8059 C 0.60832 0.07518 0.90203 0.0
C8060 C 0.60869 0.06702 0.90921 0.0
C8061 C 0.60276 0.05812 0.90735 0.0
C8062 C 0.59696 0.05721 0.89826 0.0
C8063 C 0.5972 0.06521 0.89086 0.0
C8064 C 0.60262 0.0741 0.89295 0.0
C8065 C 0.60191 0.08193 0.88439 0.0
C8066 C 0.59549 0.07607 0.87656 0.0
C8067 C 0.59284 0.06625 0.88032 0.0
C8068 C 0.61275 0.08398 0.8804 0.0
C8069 C 0.59649 0.09174 0.88856 0.0
C8070 C 0.57745 0.03476 0.86263 0.0
C8071 C 0.57439 0.03281 0.85235 0.0
C8072 C 0.5739 0.04126 0.84539 0.0
C8073 C 0.57726 0.05114 0.84829 0.0
C8074 C 0.58112 0.05269 0.85829 0.0
C8075 C 0.58065 0.04474 0.86544 0.0
C8076 C 0.58478 0.04795 0.87582 0.0
C8077 C 0.58795 0.05904 0.87365 0.0
C8078 C 0.58592 0.06174 0.86329 0.0
C8079 C 0.59383 0.0408 0.87846 0.0
C8080 C 0.57608 0.04757 0.88378 0.0
H8081 H 0.59903 0.10048 0.87064 0.0
H8082 H 0.60274 0.08797 0.83447 0.0
H8083 H 0.5777 0.08589 0.84631 0.0
H8084 H 0.57412 0.07285 0.84539 0.0
H8085 H 0.58083 0.07883 0.83475 0.0
H8086 H 0.6045 0.06675 0.84456 0.0
H8087 H 0.5972 0.07026 0.83332 0.0
H8088 H 0.59353 0.05962 0.84129 0.0
H8089 H 0.61245 0.08229 0.90342 0.0
H8090 H 0.6028 0.05173 0.91278 0.0
H8091 H 0.59271 0.05021 0.89721 0.0
H8092 H 0.61632 0.07663 0.87778 0.0
H8093 H 0.61753 0.08736 0.88661 0.0
H8094 H 0.6131 0.08944 0.87389 0.0
H8095 H 0.59292 0.09041 0.89625 0.0
H8096 H 0.5902 0.09417 0.88343 0.0
H8097 H 0.60183 0.09831 0.88947 0.0
H8098 H 0.60763 0.11119 0.85821 0.0
C8099 C 0.59985 0.09756 0.86291 0.0
C8100 C 0.90019 0.9297 0.37752 0.0
C8101 C 0.89658 0.91936 0.37717 0.0
C8102 C 0.89247 0.91576 0.36772 0.0
C8103 C 0.894 0.93282 0.36012 0.0
C8104 C 0.8987 0.9363 0.36897 0.0
C8105 C 0.90085 0.9478 0.36843 0.0
H8106 H 0.89051 0.99389 0.34514 0.0
C8107 C 0.89203 0.94181 0.35335 0.0
C8108 C 0.89599 0.95069 0.35812 0.0
H8109 H 0.90804 0.98895 0.37295 0.0
H8110 H 0.90684 0.97035 0.37048 0.0
H8111 H 0.90094 0.9741 0.33135 0.0
H8112 H 0.87407 0.97768 0.35001 0.0
H8113 H 0.87091 0.97043 0.339 0.0
H8114 H 0.87519 0.98361 0.33747 0.0
H8115 H 0.89091 0.98285 0.32797 0.0
H8116 H 0.89036 0.96933 0.32453 0.0
C8117 C 0.91241 0.94928 0.36811 0.0
C8118 C 0.89563 0.9531 0.37776 0.0
C8119 C 0.86839 0.93637 0.32322 0.0
C8120 C 0.8631 0.94313 0.31673 0.0
C8121 C 0.86567 0.95372 0.31665 0.0
C8122 C 0.87309 0.95758 0.32348 0.0
C8123 C 0.87779 0.95078 0.33055 0.0
C8124 C 0.87557 0.94033 0.33008 0.0
C8125 C 0.88068 0.93422 0.33841 0.0
C8126 C 0.88623 0.94268 0.34417 0.0
C8127 C 0.88459 0.95239 0.33959 0.0
C8128 C 0.88813 0.92663 0.33311 0.0
C8129 C 0.87236 0.929 0.34514 0.0
C8130 C 0.89409 0.98883 0.35075 0.0
C8131 C 0.89921 0.99295 0.35938 0.0
C8132 C 0.904 0.98603 0.36626 0.0
C8133 C 0.90321 0.97522 0.36487 0.0
C8134 C 0.89749 0.97126 0.35656 0.0
C8135 C 0.89331 0.97808 0.34951 0.0
C8136 C 0.88745 0.97263 0.34115 0.0
C8137 C 0.8887 0.96141 0.34432 0.0
C8138 C 0.89452 0.96059 0.35344 0.0
C8139 C 0.8926 0.97486 0.33064 0.0
C8140 C 0.87632 0.97627 0.34182 0.0
H8141 H 0.88792 0.91909 0.35244 0.0
H8142 H 0.90376 0.93277 0.3844 0.0
H8143 H 0.888 0.94974 0.37904 0.0
H8144 H 0.89436 0.96145 0.37662 0.0
H8145 H 0.90008 0.95199 0.38497 0.0
H8146 H 0.91593 0.94358 0.36274 0.0
H8147 H 0.91576 0.94811 0.37592 0.0
H8148 H 0.91464 0.95697 0.36517 0.0
H8149 H 0.86645 0.92821 0.32349 0.0
H8150 H 0.8616 0.95906 0.3117 0.0
H8151 H 0.87458 0.96576 0.32329 0.0
H8152 H 0.8918 0.93032 0.32628 0.0
H8153 H 0.88417 0.91957 0.33034 0.0
H8154 H 0.89445 0.92434 0.33821 0.0
H8155 H 0.865 0.93313 0.34454 0.0
H8156 H 0.87403 0.92921 0.35353 0.0
H8157 H 0.87106 0.92084 0.34273 0.0
H8158 H 0.8895 0.908 0.36695 0.0
C8159 C 0.89135 0.92234 0.35922 0.0
C8160 C 0.38799 0.26741 0.16331 0.0
C8161 C 0.39746 0.26346 0.16642 0.0
C8162 C 0.40612 0.26959 0.16477 0.0
C8163 C 0.39609 0.28253 0.15588 0.0
C8164 C 0.38747 0.27697 0.15816 0.0
C8165 C 0.3781 0.28216 0.15401 0.0
H8166 H 0.35855 0.32074 0.12397 0.0
C8167 C 0.39315 0.2916 0.14961 0.0
C8168 C 0.38254 0.29157 0.14862 0.0
H8169 H 0.34176 0.29611 0.13867 0.0
H8170 H 0.35716 0.28985 0.14683 0.0
H8171 H 0.37233 0.32587 0.14371 0.0
H8172 H 0.37418 0.30922 0.11555 0.0
H8173 H 0.387 0.31078 0.11824 0.0
H8174 H 0.37914 0.32205 0.11638 0.0
H8175 H 0.37435 0.33147 0.13115 0.0
H8176 H 0.38476 0.3279 0.13949 0.0
C8177 C 0.37141 0.28532 0.16328 0.0
C8178 C 0.37291 0.27467 0.14634 0.0
C8179 C 0.4194 0.3114 0.12858 0.0
C8180 C 0.41821 0.31953 0.12135 0.0
C8181 C 0.40904 0.325 0.12105 0.0
C8182 C 0.40087 0.32185 0.12699 0.0
C8183 C 0.40177 0.31306 0.13327 0.0
C8184 C 0.41101 0.30833 0.13454 0.0
C8185 C 0.41038 0.29957 0.1423 0.0
C8186 C 0.39902 0.29909 0.14425 0.0
C8187 C 0.39414 0.30702 0.13885 0.0
C8188 C 0.41619 0.30289 0.15217 0.0
C8189 C 0.41449 0.28962 0.13712 0.0
C8190 C 0.35811 0.31388 0.12878 0.0
C8191 C 0.34891 0.30881 0.13042 0.0
C8192 C 0.34877 0.30015 0.13716 0.0
C8193 C 0.35773 0.29648 0.14184 0.0
C8194 C 0.36695 0.30147 0.13972 0.0
C8195 C 0.36689 0.31009 0.13337 0.0
C8196 C 0.37713 0.31458 0.13176 0.0
C8197 C 0.38351 0.30716 0.13799 0.0
C8198 C 0.37764 0.29947 0.14275 0.0
C8199 C 0.3772 0.32557 0.13668 0.0
C8200 C 0.37953 0.31422 0.11993 0.0
H8201 H 0.41234 0.28333 0.15845 0.0
H8202 H 0.38114 0.26298 0.16446 0.0
H8203 H 0.37861 0.27074 0.14137 0.0
H8204 H 0.36778 0.27864 0.14092 0.0
H8205 H 0.36861 0.2686 0.15054 0.0
H8206 H 0.37601 0.28923 0.16935 0.0
H8207 H 0.36781 0.2784 0.16684 0.0
H8208 H 0.36546 0.29088 0.16109 0.0
H8209 H 0.4265 0.30731 0.12924 0.0
H8210 H 0.4081 0.33163 0.116 0.0
H8211 H 0.39407 0.3262 0.12612 0.0
H8212 H 0.41605 0.31145 0.15321 0.0
H8213 H 0.42422 0.30045 0.15178 0.0
H8214 H 0.41273 0.2998 0.15934 0.0
H8215 H 0.411 0.28854 0.12935 0.0
H8216 H 0.41286 0.28251 0.1415 0.0
H8217 H 0.4228 0.29011 0.13607 0.0
H8218 H 0.41345 0.26695 0.16738 0.0
C8219 C 0.40546 0.27911 0.1596 0.0
C8220 C 0.44876 0.65475 0.84285 0.0
C8221 C 0.45142 0.66513 0.84115 0.0
C8222 C 0.4606 0.66878 0.84538 0.0
C8223 C 0.46377 0.6519 0.85331 0.0
C8224 C 0.45492 0.6484 0.84889 0.0
C8225 C 0.45247 0.6375 0.85186 0.0
H8226 H 0.45906 0.59563 0.88181 0.0
C8227 C 0.46784 0.64333 0.85986 0.0
C8228 C 0.46114 0.63498 0.85904 0.0
H8229 H 0.43607 0.60215 0.85889 0.0
H8230 H 0.44425 0.61782 0.85439 0.0
H8231 H 0.47825 0.60456 0.86601 0.0
H8232 H 0.46205 0.62 0.89084 0.0
H8233 H 0.4753 0.62088 0.89238 0.0
H8234 H 0.4693 0.60843 0.89312 0.0
H8235 H 0.47922 0.60019 0.87921 0.0
H8236 H 0.48657 0.61097 0.87454 0.0
C8237 C 0.45286 0.63081 0.84186 0.0
C8238 C 0.44214 0.63762 0.8576 0.0
C8239 C 0.5001 0.64845 0.88051 0.0
C8240 C 0.50589 0.64214 0.88717 0.0
C8241 C 0.50218 0.6321 0.88944 0.0
C8242 C 0.49308 0.62845 0.88507 0.0
C8243 C 0.48754 0.63483 0.87828 0.0
C8244 C 0.49116 0.64464 0.8761 0.0
C8245 C 0.4845 0.6504 0.86864 0.0
C8246 C 0.47636 0.64245 0.86652 0.0
C8247 C 0.47805 0.63327 0.87226 0.0
C8248 C 0.49069 0.65287 0.85878 0.0
C8249 C 0.48028 0.66007 0.87425 0.0
C8250 C 0.45583 0.60053 0.87587 0.0
C8251 C 0.44661 0.59776 0.87098 0.0
C8252 C 0.44285 0.60421 0.86309 0.0
C8253 C 0.44772 0.61336 0.8604 0.0
C8254 C 0.45651 0.61635 0.86563 0.0
C8255 C 0.46065 0.60994 0.87305 0.0
C8256 C 0.47041 0.6145 0.87725 0.0
C8257 C 0.47102 0.62487 0.87149 0.0
C8258 C 0.46275 0.62577 0.86477 0.0
C8259 C 0.47913 0.60718 0.87418 0.0
C8260 C 0.46929 0.61602 0.88905 0.0
H8261 H 0.47372 0.6654 0.85434 0.0
H8262 H 0.4417 0.65166 0.83995 0.0
H8263 H 0.44072 0.64521 0.86143 0.0
H8264 H 0.44172 0.63199 0.86404 0.0
H8265 H 0.4358 0.63618 0.85215 0.0
H8266 H 0.45847 0.63391 0.83623 0.0
H8267 H 0.44542 0.63067 0.8379 0.0
H8268 H 0.45538 0.62277 0.84332 0.0
H8269 H 0.50243 0.65628 0.87871 0.0
H8270 H 0.50642 0.62695 0.89442 0.0
H8271 H 0.49072 0.62076 0.88709 0.0
H8272 H 0.49544 0.64611 0.85655 0.0
H8273 H 0.49578 0.65958 0.86009 0.0
H8274 H 0.4859 0.65448 0.85197 0.0
H8275 H 0.47836 0.65822 0.88244 0.0
H8276 H 0.4732 0.66296 0.87083 0.0
H8277 H 0.48592 0.66645 0.87432 0.0
H8278 H 0.46291 0.67672 0.84412 0.0
C8279 C 0.46684 0.66219 0.85135 0.0
C8280 C 0.16077 0.71953 0.62267 0.0
C8281 C 0.1622 0.70895 0.62023 0.0
C8282 C 0.15383 0.70225 0.62056 0.0
C8283 C 0.14272 0.71667 0.62402 0.0
C8284 C 0.15093 0.7232 0.62458 0.0
C8285 C 0.14774 0.7342 0.6269 0.0
H8286 H 0.11068 0.77027 0.62593 0.0
C8287 C 0.13348 0.72295 0.62486 0.0
C8288 C 0.13627 0.73325 0.62657 0.0
H8289 H 0.14233 0.77464 0.63291 0.0
H8290 H 0.14487 0.75618 0.63266 0.0
H8291 H 0.11379 0.7529 0.60838 0.0
H8292 H 0.10785 0.74827 0.64113 0.0
H8293 H 0.09936 0.74117 0.63325 0.0
H8294 H 0.09917 0.75511 0.63288 0.0
H8295 H 0.10202 0.7568 0.61414 0.0
H8296 H 0.10423 0.74361 0.61021 0.0
C8297 C 0.1519 0.74127 0.61822 0.0
C8298 C 0.15151 0.73697 0.63791 0.0
C8299 C 0.10106 0.7054 0.61487 0.0
C8300 C 0.09145 0.70891 0.61217 0.0
C8301 C 0.08894 0.71938 0.614 0.0
C8302 C 0.09621 0.72635 0.618 0.0
C8303 C 0.1061 0.7228 0.62 0.0
C8304 C 0.10822 0.7124 0.61859 0.0
C8305 C 0.11903 0.70981 0.62038 0.0
C8306 C 0.12328 0.72034 0.62299 0.0
C8307 C 0.11576 0.72801 0.6229 0.0
C8308 C 0.12343 0.70531 0.61011 0.0
C8309 C 0.11956 0.70243 0.62986 0.0
C8310 C 0.11817 0.76726 0.62738 0.0
C8311 C 0.12635 0.77403 0.62927 0.0
C8312 C 0.13588 0.7697 0.63144 0.0
C8313 C 0.13738 0.75894 0.63118 0.0
C8314 C 0.12931 0.75238 0.6286 0.0
C8315 C 0.11981 0.75651 0.62712 0.0
C8316 C 0.11209 0.74826 0.62469 0.0
C8317 C 0.11854 0.73852 0.62485 0.0
C8318 C 0.12869 0.74105 0.62696 0.0
C8319 C 0.10771 0.75047 0.61381 0.0
C8320 C 0.10412 0.74818 0.6334 0.0
H8321 H 0.13817 0.70048 0.62236 0.0
H8322 H 0.16707 0.72487 0.62273 0.0
H8323 H 0.15143 0.73004 0.64306 0.0
H8324 H 0.14659 0.74264 0.64187 0.0
H8325 H 0.15936 0.73997 0.6377 0.0
H8326 H 0.15064 0.73766 0.61049 0.0
H8327 H 0.16014 0.74253 0.61917 0.0
H8328 H 0.1482 0.7489 0.61784 0.0
H8329 H 0.1032 0.69741 0.6135 0.0
H8330 H 0.08152 0.72223 0.61195 0.0
H8331 H 0.09397 0.73427 0.6191 0.0
H8332 H 0.11869 0.70726 0.60327 0.0
H8333 H 0.12401 0.69673 0.61043 0.0
H8334 H 0.1309 0.70858 0.60812 0.0
H8335 H 0.11387 0.70463 0.63582 0.0
H8336 H 0.12689 0.70281 0.63395 0.0
H8337 H 0.11803 0.6943 0.62753 0.0
H8338 H 0.15473 0.69401 0.6192 0.0
C8339 C 0.14417 0.70602 0.62247 0.0
C8340 C 0.04101 0.42561 0.38598 0.0
C8341 C 0.0496 0.42983 0.38106 0.0
C8342 C 0.05915 0.42561 0.38323 0.0
C8343 C 0.05158 0.41251 0.39405 0.0
C8344 C 0.0422 0.41687 0.39245 0.0
C8345 C 0.03406 0.41085 0.39804 0.0
H8346 H 0.02043 0.36554 0.42084 0.0
C8347 C 0.05034 0.40303 0.40024 0.0
C8348 C 0.04012 0.40192 0.40271 0.0
H8349 H 1.00133 0.39153 0.41294 0.0
H8350 H 0.01598 0.40172 0.40857 0.0
H8351 H 0.03372 0.36598 0.4025 0.0
H8352 H 0.03953 0.3811 0.43176 0.0
H8353 H 0.05028 0.37403 0.42778 0.0
H8354 H 0.03865 0.36727 0.43031 0.0
H8355 H 0.03802 0.35885 0.4136 0.0
H8356 H 0.04669 0.36513 0.40485 0.0
C8357 C 0.02633 0.40708 0.3899 0.0
C8358 C 0.02954 0.41791 0.40654 0.0
C8359 C 0.08039 0.37931 0.40278 0.0
C8360 C 0.08164 0.36898 0.40589 0.0
C8361 C 0.07363 0.36399 0.4111 0.0
C8362 C 0.06439 0.36914 0.41276 0.0
C8363 C 0.06307 0.37926 0.40891 0.0
C8364 C 0.07112 0.38419 0.40425 0.0
C8365 C 0.06842 0.39463 0.40008 0.0
C8366 C 0.05735 0.39517 0.4028 0.0
C8367 C 0.05419 0.38622 0.408 0.0
C8368 C 0.07025 0.39451 0.38815 0.0
C8369 C 0.0746 0.40282 0.40619 0.0
C8370 C 0.01941 0.37346 0.41826 0.0
C8371 C 0.00968 0.37766 0.41706 0.0
C8372 C 0.00871 0.38808 0.41391 0.0
C8373 C 0.01723 0.39395 0.41123 0.0
C8374 C 0.02682 0.38935 0.41163 0.0
C8375 C 0.02784 0.37944 0.41557 0.0
C8376 C 0.03863 0.37585 0.41557 0.0
C8377 C 0.04385 0.38504 0.41062 0.0
C8378 C 0.03689 0.39294 0.40823 0.0
C8379 C 0.03938 0.3659 0.40886 0.0
C8380 C 0.042 0.3744 0.42694 0.0
H8381 H 0.06768 0.41426 0.39085 0.0
H8382 H 0.03359 0.42885 0.3846 0.0
H8383 H 0.0355 0.42283 0.41011 0.0
H8384 H 0.02627 0.41349 0.41305 0.0
H8385 H 0.0237 0.42315 0.40326 0.0
H8386 H 0.03029 0.40372 0.38307 0.0
H8387 H 0.02158 0.41361 0.38714 0.0
H8388 H 0.02132 0.40091 0.39276 0.0
H8389 H 0.08626 0.38334 0.39856 0.0
H8390 H 0.07444 0.35605 0.41367 0.0
H8391 H 0.05852 0.36493 0.41664 0.0
H8392 H 0.07019 0.3865 0.38495 0.0
H8393 H 0.07765 0.39801 0.38614 0.0
H8394 H 0.06425 0.3985 0.38373 0.0
H8395 H 0.07565 0.40042 0.41441 0.0
H8396 H 0.07075 0.41042 0.40668 0.0
H8397 H 0.08221 0.40389 0.40275 0.0
H8398 H 0.0659 0.42892 0.37984 0.0
C8399 C 0.06018 0.41708 0.38971 0.0
C8400 C 0.38789 0.73688 0.3416 0.0
C8401 C 0.39738 0.74033 0.33799 0.0
C8402 C 0.40573 0.73357 0.3389 0.0
C8403 C 0.39567 0.72142 0.34867 0.0
C8404 C 0.38719 0.72731 0.34673 0.0
C8405 C 0.3778 0.72235 0.3511 0.0
H8406 H 0.35819 0.68408 0.38148 0.0
C8407 C 0.39274 0.71256 0.35515 0.0
C8408 C 0.38218 0.71285 0.35642 0.0
H8409 H 0.34151 0.7088 0.36679 0.0
H8410 H 0.35692 0.71498 0.35861 0.0
H8411 H 0.372 0.67873 0.36182 0.0
H8412 H 0.37383 0.69555 0.38985 0.0
H8413 H 0.38667 0.69424 0.38707 0.0
H8414 H 0.37904 0.68283 0.38908 0.0
H8415 H 0.37385 0.67328 0.37447 0.0
H8416 H 0.38438 0.67663 0.36619 0.0
C8417 C 0.37089 0.71932 0.34196 0.0
C8418 C 0.37291 0.72996 0.35886 0.0
C8419 C 0.41908 0.69339 0.37661 0.0
C8420 C 0.41794 0.68542 0.38402 0.0
C8421 C 0.40877 0.67995 0.38448 0.0
C8422 C 0.40057 0.68297 0.37851 0.0
C8423 C 0.40143 0.69162 0.37205 0.0
C8424 C 0.41066 0.69634 0.37064 0.0
C8425 C 0.41002 0.70477 0.36253 0.0
C8426 C 0.39864 0.70518 0.36061 0.0
C8427 C 0.39378 0.69746 0.3663 0.0
C8428 C 0.41583 0.70108 0.35277 0.0
C8429 C 0.41414 0.71494 0.36724 0.0
C8430 C 0.35778 0.69093 0.37665 0.0
C8431 C 0.34861 0.69605 0.37501 0.0
C8432 C 0.34849 0.70471 0.36828 0.0
C8433 C 0.35746 0.70832 0.36357 0.0
C8434 C 0.36664 0.70324 0.36564 0.0
C8435 C 0.36657 0.69465 0.37203 0.0
C8436 C 0.37679 0.69013 0.37365 0.0
C8437 C 0.38317 0.69743 0.36729 0.0
C8438 C 0.3773 0.7051 0.36249 0.0
C8439 C 0.37681 0.67908 0.36888 0.0
C8440 C 0.37925 0.69063 0.38547 0.0
H8441 H 0.41161 0.7196 0.34503 0.0
H8442 H 0.38122 0.74167 0.34091 0.0
H8443 H 0.37878 0.73372 0.36375 0.0
H8444 H 0.36774 0.72612 0.36432 0.0
H8445 H 0.36871 0.73616 0.35472 0.0
H8446 H 0.37531 0.71537 0.33578 0.0
H8447 H 0.36731 0.7263 0.33851 0.0
H8448 H 0.36491 0.71383 0.34424 0.0
H8449 H 0.42619 0.69744 0.37578 0.0
H8450 H 0.40787 0.6734 0.38964 0.0
H8451 H 0.39379 0.67859 0.37945 0.0
H8452 H 0.41659 0.69249 0.35255 0.0
H8453 H 0.42355 0.7044 0.3525 0.0
H8454 H 0.4118 0.70304 0.3455 0.0
H8455 H 0.41027 0.71668 0.37469 0.0
H8456 H 0.41304 0.72172 0.36219 0.0
H8457 H 0.42236 0.7143 0.36879 0.0
H8458 H 0.413 0.73561 0.33569 0.0
C8459 C 0.40493 0.72421 0.34427 0.0
C8460 C 0.04093 0.57934 0.11925 0.0
C8461 C 0.04952 0.5751 0.12414 0.0
C8462 C 0.05907 0.57928 0.12194 0.0
C8463 C 0.05152 0.5924 0.11114 0.0
C8464 C 0.04213 0.58808 0.11277 0.0
C8465 C 0.03399 0.59413 0.10718 0.0
H8466 H 0.02044 0.63951 0.08449 0.0
C8467 C 0.0503 0.60189 0.10497 0.0
C8468 C 0.04007 0.60304 0.10252 0.0
H8469 H 1.00131 0.61351 0.09224 0.0
H8470 H 0.01594 0.60331 0.09663 0.0
H8471 H 0.03372 0.63898 0.10289 0.0
H8472 H 0.03949 0.62401 0.07355 0.0
H8473 H 0.05028 0.63101 0.07756 0.0
H8474 H 0.03867 0.63784 0.07508 0.0
H8475 H 0.03805 0.64615 0.09183 0.0
H8476 H 0.0467 0.6398 0.10055 0.0
C8477 C 0.02628 0.59791 0.11534 0.0
C8478 C 0.02946 0.58708 0.09869 0.0
C8479 C 0.08039 0.62553 0.10243 0.0
C8480 C 0.08166 0.63587 0.09939 0.0
C8481 C 0.07364 0.64091 0.09423 0.0
C8482 C 0.06439 0.63579 0.09257 0.0
C8483 C 0.06307 0.62565 0.09635 0.0
C8484 C 0.07112 0.62067 0.10096 0.0
C8485 C 0.0684 0.61022 0.1051 0.0
C8486 C 0.05732 0.60973 0.10241 0.0
C8487 C 0.05417 0.61871 0.09726 0.0
C8488 C 0.07027 0.61028 0.11702 0.0
C8489 C 0.07453 0.60204 0.09893 0.0
C8490 C 0.01941 0.63158 0.08705 0.0
C8491 C 0.00967 0.62739 0.08818 0.0
C8492 C 0.0087 0.61696 0.09131 0.0
C8493 C 0.0172 0.61108 0.09401 0.0
C8494 C 0.02679 0.61567 0.09365 0.0
C8495 C 0.02783 0.62559 0.08975 0.0
C8496 C 0.03862 0.62917 0.08977 0.0
C8497 C 0.04383 0.61994 0.09467 0.0
C8498 C 0.03685 0.61204 0.09704 0.0
C8499 C 0.03939 0.63907 0.09653 0.0
C8500 C 0.042 0.63067 0.0784 0.0
H8501 H 0.06762 0.59058 0.11427 0.0
H8502 H 0.0335 0.57614 0.12065 0.0
H8503 H 0.0354 0.58213 0.09512 0.0
H8504 H 0.02622 0.59151 0.09217 0.0
H8505 H 0.02359 0.58187 0.10196 0.0
H8506 H 0.03025 0.60128 0.12215 0.0
H8507 H 0.02154 0.59137 0.11812 0.0
H8508 H 0.02125 0.60406 0.11247 0.0
H8509 H 0.08627 0.62146 0.10663 0.0
H8510 H 0.07446 0.64887 0.09171 0.0
H8511 H 0.05851 0.64005 0.08874 0.0
H8512 H 0.07032 0.61828 0.12025 0.0
H8513 H 0.07764 0.60669 0.119 0.0
H8514 H 0.06423 0.60636 0.12145 0.0
H8515 H 0.07554 0.60447 0.09071 0.0
H8516 H 0.07068 0.59445 0.09844 0.0
H8517 H 0.08216 0.60096 0.10232 0.0
H8518 H 0.06582 0.57594 0.1253 0.0
C8519 C 0.06012 0.58779 0.11544 0.0
C8520 C 0.16091 0.2852 0.88244 0.0
C8521 C 0.16236 0.29576 0.88492 0.0
C8522 C 0.15402 0.30249 0.88464 0.0
C8523 C 0.14286 0.28812 0.88117 0.0
C8524 C 0.15105 0.28157 0.88055 0.0
C8525 C 0.14782 0.27058 0.87823 0.0
H8526 H 0.11066 0.23464 0.87924 0.0
C8527 C 0.1336 0.28188 0.88034 0.0
C8528 C 0.13636 0.27157 0.8786 0.0
H8529 H 0.1423 0.23019 0.87223 0.0
H8530 H 0.14488 0.24864 0.87247 0.0
H8531 H 0.1138 0.25203 0.89679 0.0
H8532 H 0.1079 0.25667 0.86403 0.0
H8533 H 0.09943 0.2638 0.87192 0.0
H8534 H 0.09919 0.24986 0.87227 0.0
H8535 H 0.10206 0.2481 0.89101 0.0
H8536 H 0.10422 0.2613 0.89493 0.0
C8537 C 0.15199 0.26348 0.8869 0.0
C8538 C 0.15155 0.26781 0.8672 0.0
C8539 C 0.10127 0.29953 0.89044 0.0
C8540 C 0.09163 0.29608 0.89308 0.0
C8541 C 0.08906 0.28563 0.89119 0.0
C8542 C 0.09632 0.27864 0.88719 0.0
C8543 C 0.10624 0.28213 0.88524 0.0
C8544 C 0.1084 0.29251 0.88671 0.0
C8545 C 0.11922 0.29506 0.88491 0.0
C8546 C 0.12341 0.28452 0.88225 0.0
C8547 C 0.11587 0.27688 0.88232 0.0
C8548 C 0.12365 0.29947 0.89521 0.0
C8549 C 0.11977 0.30248 0.87548 0.0
C8550 C 0.11816 0.23763 0.87778 0.0
C8551 C 0.12632 0.23084 0.87589 0.0
C8552 C 0.13587 0.23515 0.87371 0.0
C8553 C 0.13739 0.2459 0.87396 0.0
C8554 C 0.12933 0.25248 0.87655 0.0
C8555 C 0.11982 0.24838 0.87804 0.0
C8556 C 0.11213 0.25665 0.88048 0.0
C8557 C 0.1186 0.26637 0.88034 0.0
C8558 C 0.12875 0.2638 0.87821 0.0
C8559 C 0.10773 0.25444 0.89135 0.0
C8560 C 0.10417 0.25677 0.87176 0.0
H8561 H 0.13836 0.30432 0.88291 0.0
H8562 H 0.1672 0.27985 0.88235 0.0
H8563 H 0.1515 0.27474 0.86207 0.0
H8564 H 0.14659 0.26217 0.86325 0.0
H8565 H 0.15938 0.26476 0.86739 0.0
H8566 H 0.1508 0.26711 0.89463 0.0
H8567 H 0.16021 0.26217 0.88589 0.0
H8568 H 0.14823 0.25589 0.88731 0.0
H8569 H 0.10345 0.30751 0.89185 0.0
H8570 H 0.08162 0.28282 0.89318 0.0
H8571 H 0.09404 0.27073 0.88604 0.0
H8572 H 0.11894 0.29745 0.90205 0.0
H8573 H 0.12421 0.30806 0.89496 0.0
H8574 H 0.13113 0.29621 0.89714 0.0
H8575 H 0.11402 0.3004 0.86954 0.0
H8576 H 0.12706 0.30204 0.87132 0.0
H8577 H 0.11835 0.31063 0.87786 0.0
H8578 H 0.15494 0.31072 0.88603 0.0
C8579 C 0.14434 0.29876 0.88275 0.0
C8580 C 0.44876 0.35025 0.66231 0.0
C8581 C 0.45141 0.33987 0.66401 0.0
C8582 C 0.46058 0.33621 0.65978 0.0
C8583 C 0.46377 0.35308 0.65185 0.0
C8584 C 0.45492 0.35659 0.65626 0.0
C8585 C 0.45248 0.36749 0.65329 0.0
H8586 H 0.45908 0.40935 0.62333 0.0
C8587 C 0.46784 0.36165 0.64529 0.0
C8588 C 0.46114 0.37 0.64611 0.0
H8589 H 0.43609 0.40285 0.64627 0.0
H8590 H 0.44427 0.38718 0.65077 0.0
H8591 H 0.47828 0.40041 0.63913 0.0
H8592 H 0.46207 0.38496 0.61431 0.0
H8593 H 0.47532 0.38409 0.61277 0.0
H8594 H 0.46931 0.39654 0.61203 0.0
H8595 H 0.47923 0.40478 0.62594 0.0
H8596 H 0.48659 0.394 0.63059 0.0
C8597 C 0.45287 0.37418 0.6633 0.0
C8598 C 0.44214 0.36738 0.64756 0.0
C8599 C 0.50012 0.35651 0.62468 0.0
C8600 C 0.50591 0.36281 0.61801 0.0
C8601 C 0.50221 0.37284 0.61573 0.0
C8602 C 0.4931 0.3765 0.62009 0.0
C8603 C 0.48756 0.37014 0.62688 0.0
C8604 C 0.49117 0.36032 0.62907 0.0
C8605 C 0.4845 0.35456 0.63653 0.0
C8606 C 0.47637 0.36252 0.63864 0.0
C8607 C 0.47806 0.3717 0.63289 0.0
C8608 C 0.49069 0.3521 0.64639 0.0
C8609 C 0.48029 0.3449 0.63091 0.0
C8610 C 0.45584 0.40445 0.62928 0.0
C8611 C 0.44663 0.40723 0.63417 0.0
C8612 C 0.44287 0.40078 0.64207 0.0
C8613 C 0.44773 0.39163 0.64476 0.0
C8614 C 0.45652 0.38863 0.63952 0.0
C8615 C 0.46066 0.39504 0.63209 0.0
C8616 C 0.47043 0.39048 0.6279 0.0
C8617 C 0.47103 0.38011 0.63366 0.0
C8618 C 0.46276 0.37921 0.64038 0.0
C8619 C 0.47914 0.39779 0.63096 0.0
C8620 C 0.4693 0.38895 0.6161 0.0
H8621 H 0.47371 0.33957 0.65081 0.0
H8622 H 0.4417 0.35334 0.66521 0.0
H8623 H 0.44072 0.35979 0.64373 0.0
H8624 H 0.44172 0.37301 0.64112 0.0
H8625 H 0.43581 0.36883 0.653 0.0
H8626 H 0.45848 0.37108 0.66892 0.0
H8627 H 0.44543 0.37434 0.66726 0.0
H8628 H 0.4554 0.38222 0.66183 0.0
H8629 H 0.50244 0.34867 0.62648 0.0
H8630 H 0.50645 0.37799 0.61075 0.0
H8631 H 0.49074 0.38419 0.61806 0.0
H8632 H 0.49544 0.35886 0.64863 0.0
H8633 H 0.49577 0.34538 0.64509 0.0
H8634 H 0.48589 0.3505 0.6532 0.0
H8635 H 0.47838 0.34675 0.62272 0.0
H8636 H 0.4732 0.34202 0.63432 0.0
H8637 H 0.48592 0.33852 0.63086 0.0
H8638 H 0.46289 0.32826 0.66104 0.0
C8639 C 0.46683 0.34279 0.65381 0.0
C8640 C 0.14904 0.39279 0.26817 0.0
C8641 C 0.14586 0.39847 0.25943 0.0
C8642 C 0.14118 0.40816 0.26092 0.0
C8643 C 0.14185 0.40597 0.27953 0.0
C8644 C 0.14696 0.39671 0.27816 0.0
C8645 C 0.14899 0.39142 0.28838 0.0
H8646 H 0.13932 0.38887 0.33998 0.0
C8647 C 0.13995 0.40746 0.29072 0.0
C8648 C 0.14419 0.39898 0.296 0.0
H8649 H 0.15339 0.36564 0.32058 0.0
H8650 H 0.15367 0.37764 0.30625 0.0
H8651 H 0.15243 0.40905 0.32951 0.0
H8652 H 0.12364 0.39451 0.32687 0.0
H8653 H 0.12114 0.40728 0.3233 0.0
H8654 H 0.12587 0.40461 0.33612 0.0
H8655 H 0.14244 0.41049 0.33878 0.0
H8656 H 0.14372 0.41917 0.32785 0.0
C8657 C 0.16052 0.39083 0.28997 0.0
C8658 C 0.14365 0.38073 0.28834 0.0
C8659 C 0.11571 0.4355 0.30342 0.0
C8660 C 0.11255 0.43824 0.31348 0.0
C8661 C 0.11753 0.43397 0.3221 0.0
C8662 C 0.12502 0.42649 0.32081 0.0
C8663 C 0.12759 0.42322 0.31079 0.0
C8664 C 0.12346 0.42811 0.30227 0.0
C8665 C 0.12791 0.424 0.2923 0.0
C8666 C 0.1345 0.41517 0.29629 0.0
C8667 C 0.13409 0.41471 0.30712 0.0
C8668 C 0.13435 0.43273 0.28741 0.0
C8669 C 0.11917 0.42009 0.28537 0.0
C8670 C 0.14249 0.38632 0.33268 0.0
C8671 C 0.14613 0.37615 0.33146 0.0
C8672 C 0.15049 0.37338 0.32184 0.0
C8673 C 0.15051 0.38031 0.31343 0.0
C8674 C 0.146 0.39009 0.31455 0.0
C8675 C 0.14241 0.39306 0.32416 0.0
C8676 C 0.13761 0.40358 0.32392 0.0
C8677 C 0.1383 0.40615 0.31247 0.0
C8678 C 0.14335 0.39831 0.30699 0.0
C8679 C 0.1443 0.411 0.33041 0.0
C8680 C 0.12653 0.40255 0.32779 0.0
H8681 H 0.13542 0.41926 0.27142 0.0
H8682 H 0.15257 0.38528 0.26725 0.0
H8683 H 0.13703 0.38069 0.28303 0.0
H8684 H 0.14046 0.37865 0.29597 0.0
H8685 H 0.14885 0.37449 0.28576 0.0
H8686 H 0.16408 0.39845 0.28825 0.0
H8687 H 0.16393 0.38497 0.28472 0.0
H8688 H 0.16262 0.38895 0.29804 0.0
H8689 H 0.11204 0.43878 0.29668 0.0
H8690 H 0.11519 0.43601 0.32989 0.0
H8691 H 0.12815 0.42317 0.32771 0.0
H8692 H 0.13783 0.4377 0.29349 0.0
H8693 H 0.12968 0.43781 0.28237 0.0
H8694 H 0.14082 0.42972 0.28291 0.0
H8695 H 0.11354 0.41576 0.29009 0.0
H8696 H 0.12161 0.41463 0.27931 0.0
H8697 H 0.11521 0.42667 0.2816 0.0
H8698 H 0.13874 0.41268 0.2543 0.0
C8699 C 0.13923 0.41196 0.27087 0.0
C8700 C 0.36814 0.37726 0.98769 0.0
C8701 C 0.37635 0.37909 0.98096 0.0
C8702 C 0.38588 0.38124 0.98532 0.0
C8703 C 0.37921 0.37847 0.00263 0.0
C8704 C 0.36973 0.37702 0.99845 0.0
C8705 C 0.36196 0.37462 0.00665 0.0
H8706 H 0.35271 0.36365 0.05747 0.0
C8707 C 0.37852 0.37687 0.01396 0.0
C8708 C 0.36834 0.37481 0.01643 0.0
H8709 H 0.33127 0.36174 0.03244 0.0
H8710 H 0.34375 0.36899 0.02049 0.0
H8711 H 0.36813 0.3534 0.04793 0.0
H8712 H 0.36337 0.38592 0.05029 0.0
H8713 H 0.37639 0.38413 0.05211 0.0
H8714 H 0.36757 0.37771 0.06065 0.0
H8715 H 0.37365 0.36065 0.0583 0.0
H8716 H 0.38036 0.35811 0.04639 0.0
C8717 C 0.3576 0.36374 0.00443 0.0
C8718 C 0.35399 0.38333 0.00666 0.0
C8719 C 0.41032 0.37193 0.03577 0.0
C8720 C 0.41159 0.36945 0.04636 0.0
C8721 C 0.4032 0.37012 0.05301 0.0
C8722 C 0.39364 0.37237 0.04916 0.0
C8723 C 0.39232 0.37387 0.03849 0.0
C8724 C 0.40058 0.37417 0.03201 0.0
C8725 C 0.39753 0.37657 0.02098 0.0
C8726 C 0.38605 0.37644 0.02183 0.0
C8727 C 0.38315 0.37485 0.03212 0.0
C8728 C 0.40162 0.36786 0.0139 0.0
C8729 C 0.4015 0.38752 0.01829 0.0
C8730 C 0.35062 0.36498 0.04944 0.0
C8731 C 0.34108 0.36215 0.04586 0.0
C8732 C 0.33864 0.36389 0.03536 0.0
C8733 C 0.34594 0.36795 0.02844 0.0
C8734 C 0.35578 0.37004 0.03207 0.0
C8735 C 0.35781 0.3687 0.04249 0.0
C8736 C 0.3686 0.37049 0.04516 0.0
C8737 C 0.37293 0.37304 0.03466 0.0
C8738 C 0.36547 0.37292 0.02692 0.0
C8739 C 0.37296 0.36023 0.04973 0.0
C8740 C 0.36909 0.38 0.0525 0.0
H8741 H 0.3948 0.38247 0.9989 0.0
H8742 H 0.36065 0.37583 0.98466 0.0
H8743 H 0.35771 0.39106 0.0066 0.0
H8744 H 0.34916 0.38317 0.01362 0.0
H8745 H 0.34909 0.3828 0.99968 0.0
H8746 H 0.36368 0.35832 1.00198 0.0
H8747 H 0.3519 0.36405 0.99812 0.0
H8748 H 0.35415 0.36012 0.0113 0.0
H8749 H 0.41666 0.37175 0.03048 0.0
H8750 H 0.40399 0.36878 0.06126 0.0
H8751 H 0.38761 0.37253 0.05466 0.0
H8752 H 0.40014 0.36014 0.01742 0.0
H8753 H 0.40989 0.36864 0.01279 0.0
H8754 H 0.39804 0.36763 0.00621 0.0
H8755 H 0.4013 0.39268 0.02521 0.0
H8756 H 0.39679 0.39152 0.01247 0.0
H8757 H 0.40943 0.3872 0.01552 0.0
H8758 H 0.39235 0.38267 0.9804 0.0
C8759 C 0.38733 0.38101 0.9961 0.0
C8760 C 0.35458 0.65431 0.81134 0.0
C8761 C 0.36122 0.65816 0.81899 0.0
C8762 C 0.36177 0.65302 0.8286 0.0
C8763 C 0.3506 0.6396 0.82237 0.0
C8764 C 0.34935 0.64497 0.81321 0.0
C8765 C 0.34247 0.63921 0.80586 0.0
H8766 H 0.3244 0.59288 0.79029 0.0
C8767 C 0.34561 0.62944 0.82137 0.0
C8768 C 0.34082 0.62907 0.8117 0.0
H8769 H 0.32257 0.62251 0.7746 0.0
H8770 H 0.32842 0.63109 0.78993 0.0
H8771 H 0.34447 0.59503 0.7979 0.0
H8772 H 0.31781 0.60257 0.81556 0.0
H8773 H 0.32602 0.59417 0.82252 0.0
H8774 H 0.32068 0.58995 0.81042 0.0
H8775 H 0.33782 0.58532 0.80512 0.0
H8776 H 0.34755 0.59322 0.81095 0.0
C8777 C 0.34818 0.63765 0.79551 0.0
C8778 C 0.33254 0.64543 0.80488 0.0
C8779 C 0.35547 0.60203 0.84719 0.0
C8780 C 0.35681 0.59127 0.84602 0.0
C8781 C 0.35104 0.58619 0.83831 0.0
C8782 C 0.34508 0.5919 0.83127 0.0
C8783 C 0.34535 0.6028 0.83156 0.0
C8784 C 0.35043 0.60763 0.83955 0.0
C8785 C 0.35168 0.61904 0.83781 0.0
C8786 C 0.34633 0.62038 0.82755 0.0
C8787 C 0.34239 0.61094 0.82399 0.0
C8788 C 0.3632 0.62145 0.83708 0.0
C8789 C 0.34608 0.62483 0.84659 0.0
C8790 C 0.3252 0.60123 0.79012 0.0
C8791 C 0.32322 0.60691 0.78099 0.0
C8792 C 0.32402 0.61782 0.78138 0.0
C8793 C 0.32761 0.62283 0.79028 0.0
C8794 C 0.3307 0.61691 0.79882 0.0
C8795 C 0.32897 0.60636 0.79889 0.0
C8796 C 0.3329 0.60132 0.80863 0.0
C8797 C 0.33732 0.61058 0.81429 0.0
C8798 C 0.33618 0.61968 0.80839 0.0
C8799 C 0.34105 0.59325 0.80557 0.0
C8800 C 0.3239 0.59669 0.81464 0.0
H8801 H 0.35718 0.64041 0.83784 0.0
H8802 H 0.3538 0.65824 0.80397 0.0
H8803 H 0.33062 0.64934 0.81232 0.0
H8804 H 0.32596 0.64044 0.80321 0.0
H8805 H 0.33316 0.6515 0.79882 0.0
H8806 H 0.35607 0.63512 0.79701 0.0
H8807 H 0.34847 0.64499 0.79103 0.0
H8808 H 0.34491 0.63162 0.79052 0.0
H8809 H 0.35924 0.60629 0.85329 0.0
H8810 H 0.3516 0.57789 0.83723 0.0
H8811 H 0.34102 0.58765 0.82545 0.0
H8812 H 0.36788 0.61434 0.83624 0.0
H8813 H 0.36595 0.62555 0.8441 0.0
H8814 H 0.36517 0.62604 0.83012 0.0
H8815 H 0.33868 0.62109 0.84823 0.0
H8816 H 0.34429 0.63294 0.84454 0.0
H8817 H 0.35056 0.62474 0.85386 0.0
H8818 H 0.36646 0.65605 0.83477 0.0
C8819 C 0.3564 0.6439 0.83037 0.0
C8820 C 0.10351 0.61916 0.55484 0.0
C8821 C 0.10151 0.62582 0.56334 0.0
C8822 C 0.10935 0.62803 0.57033 0.0
C8823 C 0.12118 0.61843 0.55984 0.0
C8824 C 0.11348 0.61552 0.55326 0.0
C8825 C 0.11748 0.60879 0.5445 0.0
H8826 H 0.15894 0.58982 0.51927 0.0
C8827 C 0.1308 0.61457 0.55566 0.0
C8828 C 0.12883 0.60877 0.5467 0.0
H8829 H 0.12771 0.58737 0.50966 0.0
H8830 H 0.12246 0.59509 0.52582 0.0
H8831 H 0.15729 0.61209 0.52393 0.0
H8832 H 0.15586 0.5868 0.54578 0.0
H8833 H 0.16484 0.59624 0.54968 0.0
H8834 H 0.16654 0.58949 0.53761 0.0
H8835 H 0.16852 0.60605 0.52878 0.0
H8836 H 0.16243 0.6166 0.53556 0.0
C8837 C 0.11492 0.61411 0.53411 0.0
C8838 C 0.11291 0.59786 0.54567 0.0
C8839 C 0.16234 0.62998 0.57082 0.0
C8840 C 0.1724 0.63034 0.56756 0.0
C8841 C 0.17565 0.62338 0.55982 0.0
C8842 C 0.16868 0.61671 0.55488 0.0
C8843 C 0.15838 0.6172 0.55762 0.0
C8844 C 0.15551 0.62358 0.56569 0.0
C8845 C 0.14437 0.62367 0.56742 0.0
C8846 C 0.14083 0.61674 0.5587 0.0
C8847 C 0.14899 0.61278 0.55306 0.0
C8848 C 0.14059 0.63506 0.56622 0.0
C8849 C 0.14235 0.61863 0.57814 0.0
C8850 C 0.15094 0.59099 0.52044 0.0
C8851 C 0.14384 0.58816 0.51279 0.0
C8852 C 0.13349 0.58946 0.5152 0.0
C8853 C 0.13041 0.59415 0.52457 0.0
C8854 C 0.13771 0.59789 0.53154 0.0
C8855 C 0.14779 0.59606 0.52948 0.0
C8856 C 0.15465 0.60138 0.53709 0.0
C8857 C 0.14709 0.60648 0.54423 0.0
C8858 C 0.13709 0.6044 0.54104 0.0
C8859 C 0.16114 0.60941 0.53111 0.0
C8860 C 0.16088 0.59307 0.54286 0.0
H8861 H 0.12462 0.6266 0.57425 0.0
H8862 H 0.09758 0.61712 0.54944 0.0
H8863 H 0.11332 0.59527 0.55389 0.0
H8864 H 0.11702 0.59196 0.54114 0.0
H8865 H 0.10486 0.59782 0.5433 0.0
H8866 H 0.11637 0.62259 0.53461 0.0
H8867 H 0.10684 0.61299 0.53211 0.0
H8868 H 0.11958 0.61133 0.52761 0.0
H8869 H 0.15965 0.63514 0.57686 0.0
H8870 H 0.18343 0.62345 0.55727 0.0
H8871 H 0.17149 0.6117 0.54889 0.0
H8872 H 0.14594 0.63988 0.56164 0.0
H8873 H 0.13965 0.63886 0.57388 0.0
H8874 H 0.13346 0.63569 0.56183 0.0
H8875 H 0.14793 0.6124 0.57981 0.0
H8876 H 0.13495 0.61469 0.57855 0.0
H8877 H 0.1429 0.62444 0.58447 0.0
H8878 H 0.10799 0.63275 0.57715 0.0
C8879 C 0.11907 0.62435 0.56868 0.0
C8880 C 0.14907 0.61238 0.23703 0.0
C8881 C 0.14592 0.60662 0.24572 0.0
C8882 C 0.14128 0.59692 0.24416 0.0
C8883 C 0.14191 0.59928 0.22557 0.0
C8884 C 0.14699 0.60854 0.22701 0.0
C8885 C 0.14898 0.61394 0.21683 0.0
H8886 H 0.13932 0.6169 0.16528 0.0
C8887 C 0.13998 0.5979 0.21437 0.0
C8888 C 0.14417 0.60645 0.20917 0.0
H8889 H 0.15324 0.64005 0.18489 0.0
H8890 H 0.15355 0.62793 0.19913 0.0
H8891 H 0.15227 0.59666 0.17546 0.0
H8892 H 0.12354 0.61129 0.17861 0.0
H8893 H 0.12104 0.59842 0.18179 0.0
H8894 H 0.12573 0.60147 0.16905 0.0
H8895 H 0.1422 0.59533 0.16627 0.0
H8896 H 0.14355 0.58656 0.17712 0.0
C8897 C 0.16051 0.61456 0.21521 0.0
C8898 C 0.14363 0.62463 0.217 0.0
C8899 C 0.11582 0.56987 0.20147 0.0
C8900 C 0.11259 0.56725 0.1914 0.0
C8901 C 0.11745 0.57169 0.1828 0.0
C8902 C 0.12491 0.5792 0.18413 0.0
C8903 C 0.12756 0.58234 0.19417 0.0
C8904 C 0.12352 0.57731 0.20265 0.0
C8905 C 0.128 0.58132 0.21265 0.0
C8906 C 0.13451 0.59024 0.20874 0.0
C8907 C 0.13405 0.59083 0.19791 0.0
C8908 C 0.13452 0.57257 0.2174 0.0
C8909 C 0.11927 0.58509 0.21968 0.0
C8910 C 0.14246 0.61942 0.17261 0.0
C8911 C 0.14605 0.62959 0.17391 0.0
C8912 C 0.15037 0.63231 0.18357 0.0
C8913 C 0.15041 0.62531 0.19192 0.0
C8914 C 0.14593 0.61552 0.19071 0.0
C8915 C 0.14235 0.61263 0.18107 0.0
C8916 C 0.13752 0.60213 0.18123 0.0
C8917 C 0.13823 0.59945 0.19264 0.0
C8918 C 0.14329 0.60723 0.19819 0.0
C8919 C 0.14413 0.59474 0.17462 0.0
C8920 C 0.12642 0.60328 0.17743 0.0
H8921 H 0.13553 0.5859 0.23356 0.0
H8922 H 0.15258 0.6199 0.23801 0.0
H8923 H 0.13709 0.62464 0.2224 0.0
H8924 H 0.14034 0.62673 0.20941 0.0
H8925 H 0.14886 0.63086 0.21952 0.0
H8926 H 0.16408 0.60692 0.21683 0.0
H8927 H 0.16393 0.62036 0.22053 0.0
H8928 H 0.16258 0.61655 0.20716 0.0
H8929 H 0.11223 0.56646 0.2082 0.0
H8930 H 0.11505 0.56975 0.175 0.0
H8931 H 0.12795 0.58264 0.17725 0.0
H8932 H 0.13807 0.56777 0.21123 0.0
H8933 H 0.1299 0.56734 0.22231 0.0
H8934 H 0.14094 0.57557 0.22197 0.0
H8935 H 0.11356 0.58938 0.21504 0.0
H8936 H 0.1217 0.59055 0.22574 0.0
H8937 H 0.11542 0.57844 0.22344 0.0
H8938 H 0.13885 0.59234 0.25074 0.0
C8939 C 0.13933 0.59321 0.23417 0.0
C8940 C 0.10371 0.38577 0.95028 0.0
C8941 C 0.10171 0.37909 0.94179 0.0
C8942 C 0.10956 0.37685 0.93482 0.0
C8943 C 0.12138 0.38646 0.9453 0.0
C8944 C 0.11368 0.38939 0.95187 0.0
C8945 C 0.11768 0.39613 0.96062 0.0
H8946 H 0.1591 0.41509 0.9859 0.0
C8947 C 0.131 0.39034 0.94947 0.0
C8948 C 0.12903 0.39615 0.95842 0.0
H8949 H 0.12786 0.41752 0.99546 0.0
H8950 H 0.12263 0.40983 0.97928 0.0
H8951 H 0.15742 0.39276 0.98111 0.0
H8952 H 0.15602 0.41824 0.95946 0.0
H8953 H 0.16495 0.40881 0.9554 0.0
H8954 H 0.16675 0.41544 0.96753 0.0
H8955 H 0.16865 0.39895 0.97644 0.0
H8956 H 0.16274 0.38842 0.96949 0.0
C8957 C 0.11513 0.39081 0.97101 0.0
C8958 C 0.1131 0.40706 0.95945 0.0
C8959 C 0.16257 0.37491 0.93439 0.0
C8960 C 0.17263 0.37466 0.93761 0.0
C8961 C 0.17588 0.3817 0.94528 0.0
C8962 C 0.16889 0.38836 0.95019 0.0
C8963 C 0.15858 0.38778 0.94749 0.0
C8964 C 0.15572 0.38133 0.93948 0.0
C8965 C 0.14459 0.38121 0.93775 0.0
C8966 C 0.14104 0.38818 0.94643 0.0
C8967 C 0.14919 0.39219 0.95205 0.0
C8968 C 0.14082 0.36983 0.939 0.0
C8969 C 0.14256 0.38619 0.927 0.0
C8970 C 0.1511 0.41392 0.98471 0.0
C8971 C 0.14399 0.41674 0.99236 0.0
C8972 C 0.13364 0.41544 0.98993 0.0
C8973 C 0.13058 0.41077 0.98055 0.0
C8974 C 0.13789 0.40704 0.97358 0.0
C8975 C 0.14797 0.40886 0.97566 0.0
C8976 C 0.15484 0.40359 0.96804 0.0
C8977 C 0.14728 0.39849 0.96088 0.0
C8978 C 0.13728 0.40054 0.96407 0.0
C8979 C 0.16133 0.39555 0.974 0.0
C8980 C 0.16104 0.41193 0.96229 0.0
H8981 H 0.12483 0.37824 0.93092 0.0
H8982 H 0.09778 0.38783 0.95567 0.0
H8983 H 0.11347 0.40964 0.95122 0.0
H8984 H 0.11722 0.41296 0.96395 0.0
H8985 H 0.10505 0.40711 0.96186 0.0
H8986 H 0.11657 0.38233 0.97051 0.0
H8987 H 0.10705 0.39194 0.97303 0.0
H8988 H 0.1198 0.39358 0.9775 0.0
H8989 H 0.1599 0.36965 0.92843 0.0
H8990 H 0.18367 0.38169 0.9478 0.0
H8991 H 0.17168 0.39344 0.95614 0.0
H8992 H 0.14617 0.36503 0.94361 0.0
H8993 H 0.13989 0.36598 0.93136 0.0
H8994 H 0.13368 0.36921 0.94338 0.0
H8995 H 0.14814 0.39242 0.92529 0.0
H8996 H 0.13516 0.39013 0.92657 0.0
H8997 H 0.14312 0.38035 0.9207 0.0
H8998 H 0.1082 0.37212 0.92801 0.0
C8999 C 0.11928 0.38051 0.93648 0.0
C9000 C 0.35457 0.35071 0.69386 0.0
C9001 C 0.36121 0.34687 0.68621 0.0
C9002 C 0.36175 0.352 0.6766 0.0
C9003 C 0.35059 0.36543 0.68284 0.0
C9004 C 0.34934 0.36005 0.692 0.0
C9005 C 0.34246 0.36582 0.69935 0.0
H9006 H 0.32441 0.41214 0.71495 0.0
C9007 C 0.3456 0.37559 0.68385 0.0
C9008 C 0.34081 0.37596 0.69351 0.0
H9009 H 0.32255 0.3825 0.73062 0.0
H9010 H 0.32841 0.37393 0.71528 0.0
H9011 H 0.34448 0.40998 0.70733 0.0
H9012 H 0.31782 0.40247 0.68967 0.0
H9013 H 0.32602 0.41088 0.68272 0.0
H9014 H 0.32069 0.41509 0.69483 0.0
H9015 H 0.33782 0.41971 0.70014 0.0
H9016 H 0.34755 0.41181 0.69429 0.0
C9017 C 0.34817 0.36737 0.7097 0.0
C9018 C 0.33253 0.3596 0.70033 0.0
C9019 C 0.35546 0.40301 0.65802 0.0
C9020 C 0.3568 0.41376 0.6592 0.0
C9021 C 0.35104 0.41885 0.66692 0.0
C9022 C 0.34508 0.41314 0.67396 0.0
C9023 C 0.34534 0.40223 0.67367 0.0
C9024 C 0.35041 0.3974 0.66567 0.0
C9025 C 0.35167 0.386 0.66741 0.0
C9026 C 0.34632 0.38465 0.67767 0.0
C9027 C 0.34238 0.3941 0.68123 0.0
C9028 C 0.36319 0.38358 0.66813 0.0
C9029 C 0.34606 0.38021 0.65863 0.0
C9030 C 0.3252 0.40379 0.71511 0.0
C9031 C 0.32321 0.39811 0.72424 0.0
C9032 C 0.32401 0.3872 0.72384 0.0
C9033 C 0.3276 0.38219 0.71494 0.0
C9034 C 0.33069 0.38811 0.7064 0.0
C9035 C 0.32897 0.39866 0.70634 0.0
C9036 C 0.3329 0.40371 0.69661 0.0
C9037 C 0.33732 0.39445 0.69094 0.0
C9038 C 0.33618 0.38534 0.69683 0.0
C9039 C 0.34106 0.41177 0.69966 0.0
C9040 C 0.3239 0.40835 0.6906 0.0
H9041 H 0.35716 0.36462 0.66736 0.0
H9042 H 0.35379 0.34678 0.70124 0.0
H9043 H 0.33062 0.35568 0.6929 0.0
H9044 H 0.32594 0.36459 0.70199 0.0
H9045 H 0.33315 0.35353 0.7064 0.0
H9046 H 0.35606 0.3699 0.7082 0.0
H9047 H 0.34846 0.36003 0.71418 0.0
H9048 H 0.34489 0.3734 0.7147 0.0
H9049 H 0.35922 0.39874 0.65192 0.0
H9050 H 0.35161 0.42714 0.668 0.0
H9051 H 0.34103 0.41738 0.67979 0.0
H9052 H 0.36787 0.39068 0.66897 0.0
H9053 H 0.36593 0.37947 0.66111 0.0
H9054 H 0.36516 0.37899 0.67509 0.0
H9055 H 0.33866 0.38395 0.65699 0.0
H9056 H 0.34427 0.37209 0.66067 0.0
H9057 H 0.35054 0.3803 0.65135 0.0
H9058 H 0.36644 0.34897 0.67043 0.0
C9059 C 0.35638 0.36113 0.67484 0.0
C9060 C 0.36822 0.62772 0.51751 0.0
C9061 C 0.37643 0.6259 0.52424 0.0
C9062 C 0.38595 0.62375 0.51987 0.0
C9063 C 0.37928 0.62652 0.50257 0.0
C9064 C 0.3698 0.62796 0.50675 0.0
C9065 C 0.36202 0.63036 0.49856 0.0
H9066 H 0.35272 0.64132 0.44776 0.0
C9067 C 0.37858 0.62812 0.49124 0.0
C9068 C 0.36839 0.63017 0.48878 0.0
H9069 H 0.3313 0.64321 0.47281 0.0
H9070 H 0.3438 0.63597 0.48475 0.0
H9071 H 0.36814 0.65158 0.45728 0.0
H9072 H 0.36339 0.61906 0.45491 0.0
H9073 H 0.37642 0.62085 0.4531 0.0
H9074 H 0.3676 0.62728 0.44455 0.0
H9075 H 0.37366 0.64434 0.44691 0.0
H9076 H 0.38038 0.64688 0.45882 0.0
C9077 C 0.35765 0.64124 0.50078 0.0
C9078 C 0.35405 0.62164 0.49856 0.0
C9079 C 0.41035 0.63311 0.46939 0.0
C9080 C 0.4116 0.63559 0.45879 0.0
C9081 C 0.4032 0.63489 0.45216 0.0
C9082 C 0.39365 0.63263 0.45602 0.0
C9083 C 0.39235 0.63112 0.4667 0.0
C9084 C 0.40062 0.63084 0.47316 0.0
C9085 C 0.39758 0.62843 0.4842 0.0
C9086 C 0.3861 0.62855 0.48337 0.0
C9087 C 0.38319 0.63013 0.47307 0.0
C9088 C 0.40166 0.63715 0.49128 0.0
C9089 C 0.40157 0.61749 0.48688 0.0
C9090 C 0.35064 0.63999 0.45579 0.0
C9091 C 0.3411 0.64281 0.45938 0.0
C9092 C 0.33867 0.64107 0.46988 0.0
C9093 C 0.34598 0.63701 0.4768 0.0
C9094 C 0.35582 0.63493 0.47315 0.0
C9095 C 0.35784 0.63628 0.46273 0.0
C9096 C 0.36863 0.63449 0.46004 0.0
C9097 C 0.37296 0.63194 0.47055 0.0
C9098 C 0.36552 0.63205 0.47829 0.0
C9099 C 0.37297 0.64476 0.45548 0.0
C9100 C 0.36912 0.62498 0.4527 0.0
H9101 H 0.39487 0.62252 0.50628 0.0
H9102 H 0.36073 0.62915 0.52056 0.0
H9103 H 0.35778 0.61392 0.49863 0.0
H9104 H 0.34923 0.62179 0.49159 0.0
H9105 H 0.34916 0.62218 0.50553 0.0
H9106 H 0.36373 0.64666 0.50323 0.0
H9107 H 0.35195 0.64093 0.50709 0.0
H9108 H 0.3542 0.64486 0.49391 0.0
H9109 H 0.41669 0.6333 0.47467 0.0
H9110 H 0.40398 0.63623 0.4439 0.0
H9111 H 0.38762 0.63245 0.45053 0.0
H9112 H 0.40016 0.64487 0.48777 0.0
H9113 H 0.40994 0.63638 0.49237 0.0
H9114 H 0.3981 0.63736 0.49898 0.0
H9115 H 0.40137 0.61233 0.47996 0.0
H9116 H 0.39686 0.61349 0.4927 0.0
H9117 H 0.4095 0.61782 0.48965 0.0
H9118 H 0.39243 0.62231 0.52478 0.0
C9119 C 0.3874 0.62398 0.5091 0.0
C9120 C 0.29103 0.13587 0.32953 0.0
C9121 C 0.29962 0.13094 0.32532 0.0
C9122 C 0.30917 0.13311 0.32952 0.0
C9123 C 0.30161 0.14394 0.34262 0.0
C9124 C 0.29223 0.14234 0.33827 0.0
C9125 C 0.28409 0.14795 0.34429 0.0
H9126 H 0.27047 0.17078 0.38958 0.0
C9127 C 0.30038 0.15014 0.3521 0.0
C9128 C 0.29016 0.15262 0.35321 0.0
H9129 H 0.25138 0.16289 0.36357 0.0
H9130 H 0.26603 0.15849 0.3534 0.0
H9131 H 0.28374 0.15241 0.38914 0.0
H9132 H 0.28959 0.18166 0.37405 0.0
H9133 H 0.30033 0.17767 0.38112 0.0
H9134 H 0.2887 0.18022 0.38788 0.0
H9135 H 0.28804 0.16351 0.39628 0.0
H9136 H 0.29672 0.15476 0.39 0.0
C9137 C 0.27636 0.13981 0.34806 0.0
C9138 C 0.27958 0.15644 0.33722 0.0
C9139 C 0.33042 0.15268 0.37582 0.0
C9140 C 0.33168 0.15579 0.38615 0.0
C9141 C 0.32367 0.16099 0.39114 0.0
C9142 C 0.31443 0.16265 0.386 0.0
C9143 C 0.31311 0.15881 0.37587 0.0
C9144 C 0.32116 0.15414 0.37093 0.0
C9145 C 0.31846 0.14997 0.36049 0.0
C9146 C 0.30739 0.15269 0.35995 0.0
C9147 C 0.30423 0.1579 0.36891 0.0
C9148 C 0.32028 0.13804 0.36061 0.0
C9149 C 0.32463 0.15608 0.3523 0.0
C9150 C 0.26946 0.1682 0.38166 0.0
C9151 C 0.25973 0.16702 0.37745 0.0
C9152 C 0.25877 0.16385 0.36703 0.0
C9153 C 0.26728 0.16116 0.36116 0.0
C9154 C 0.27687 0.16155 0.36577 0.0
C9155 C 0.27788 0.16549 0.37568 0.0
C9156 C 0.28867 0.16548 0.37929 0.0
C9157 C 0.29389 0.16052 0.3701 0.0
C9158 C 0.28693 0.15814 0.36219 0.0
C9159 C 0.28941 0.15877 0.38923 0.0
C9160 C 0.29205 0.17685 0.38074 0.0
H9161 H 0.31771 0.14074 0.34087 0.0
H9162 H 0.28361 0.13449 0.32631 0.0
H9163 H 0.28553 0.15998 0.33228 0.0
H9164 H 0.27634 0.16297 0.34164 0.0
H9165 H 0.27372 0.15316 0.332 0.0
H9166 H 0.28032 0.13298 0.35141 0.0
H9167 H 0.27161 0.13705 0.34153 0.0
H9168 H 0.27136 0.14267 0.35424 0.0
H9169 H 0.3363 0.14845 0.37178 0.0
H9170 H 0.32448 0.16356 0.39909 0.0
H9171 H 0.30855 0.16653 0.39022 0.0
H9172 H 0.32022 0.13485 0.36862 0.0
H9173 H 0.32768 0.13603 0.35711 0.0
H9174 H 0.31428 0.13362 0.35663 0.0
H9175 H 0.32569 0.16429 0.35471 0.0
H9176 H 0.32079 0.15657 0.34471 0.0
H9177 H 0.33224 0.15263 0.35123 0.0
H9178 H 0.31592 0.12971 0.3262 0.0
C9179 C 0.31021 0.1396 0.33804 0.0
C9180 C 0.791 0.3691 0.67568 0.0
C9181 C 0.7996 0.37403 0.67989 0.0
C9182 C 0.80914 0.37185 0.67568 0.0
C9183 C 0.80157 0.36103 0.66259 0.0
C9184 C 0.79219 0.36263 0.66695 0.0
C9185 C 0.78405 0.35703 0.66093 0.0
H9186 H 0.77038 0.33419 0.61565 0.0
C9187 C 0.80033 0.35484 0.65311 0.0
C9188 C 0.79011 0.35236 0.652 0.0
H9189 H 0.75132 0.34208 0.64169 0.0
H9190 H 0.76599 0.34649 0.65184 0.0
H9191 H 0.78367 0.35259 0.61609 0.0
H9192 H 0.78953 0.32333 0.63116 0.0
H9193 H 0.80026 0.32731 0.62407 0.0
H9194 H 0.78861 0.32477 0.61733 0.0
H9195 H 0.78793 0.34149 0.60893 0.0
H9196 H 0.79664 0.35021 0.61519 0.0
C9197 C 0.77632 0.36517 0.65716 0.0
C9198 C 0.77954 0.34854 0.668 0.0
C9199 C 0.83037 0.35228 0.62937 0.0
C9200 C 0.83162 0.34917 0.61904 0.0
C9201 C 0.8236 0.34398 0.61404 0.0
C9202 C 0.81436 0.34233 0.61919 0.0
C9203 C 0.81305 0.34617 0.62932 0.0
C9204 C 0.8211 0.35082 0.63426 0.0
C9205 C 0.81841 0.35499 0.6447 0.0
C9206 C 0.80734 0.35228 0.64524 0.0
C9207 C 0.80417 0.34708 0.63628 0.0
C9208 C 0.82024 0.36692 0.64459 0.0
C9209 C 0.82458 0.34888 0.65288 0.0
C9210 C 0.76938 0.33678 0.62358 0.0
C9211 C 0.75966 0.33795 0.6278 0.0
C9212 C 0.75871 0.34112 0.63822 0.0
C9213 C 0.76723 0.34383 0.64407 0.0
C9214 C 0.77681 0.34344 0.63945 0.0
C9215 C 0.77781 0.3395 0.62954 0.0
C9216 C 0.78859 0.33951 0.62592 0.0
C9217 C 0.79383 0.34446 0.63511 0.0
C9218 C 0.78687 0.34685 0.64302 0.0
C9219 C 0.78933 0.34622 0.61598 0.0
C9220 C 0.79198 0.32814 0.62446 0.0
H9221 H 0.81768 0.36422 0.66433 0.0
H9222 H 0.78358 0.37049 0.67892 0.0
H9223 H 0.7855 0.345 0.67294 0.0
H9224 H 0.77631 0.34201 0.66358 0.0
H9225 H 0.77368 0.35182 0.67322 0.0
H9226 H 0.78028 0.372 0.65382 0.0
H9227 H 0.77157 0.36793 0.6637 0.0
H9228 H 0.77131 0.36231 0.65099 0.0
H9229 H 0.83624 0.3565 0.63342 0.0
H9230 H 0.82441 0.34142 0.60609 0.0
H9231 H 0.80849 0.33846 0.61497 0.0
H9232 H 0.82018 0.37012 0.63657 0.0
H9233 H 0.82764 0.36893 0.64808 0.0
H9234 H 0.81423 0.37134 0.64857 0.0
H9235 H 0.82563 0.34067 0.65047 0.0
H9236 H 0.82074 0.34839 0.66048 0.0
H9237 H 0.83219 0.35232 0.65395 0.0
H9238 H 0.81589 0.37525 0.67899 0.0
C9239 C 0.81018 0.36536 0.66715 0.0
C9240 C 0.36577 0.05328 0.31964 0.0
C9241 C 0.3626 0.06334 0.31691 0.0
C9242 C 0.36759 0.07195 0.32116 0.0
C9243 C 0.37768 0.06066 0.33189 0.0
C9244 C 0.37354 0.05214 0.32701 0.0
C9245 C 0.37798 0.04218 0.33111 0.0
H9246 H 0.40262 0.01715 0.36984 0.0
C9247 C 0.38418 0.057 0.34039 0.0
C9248 C 0.38459 0.04617 0.33994 0.0
H9249 H 0.38882 0.00418 0.34242 0.0
H9250 H 0.38552 0.0213 0.33583 0.0
H9251 H 0.41416 0.03812 0.35667 0.0
H9252 H 0.3871 0.03293 0.37441 0.0
H9253 H 0.39052 0.04587 0.37646 0.0
H9254 H 0.39891 0.03566 0.38062 0.0
H9255 H 0.414 0.03461 0.37015 0.0
H9256 H 0.41269 0.04792 0.36617 0.0
C9257 C 0.38442 0.03727 0.32237 0.0
C9258 C 0.36925 0.03525 0.33504 0.0
C9259 C 0.39256 0.08256 0.36879 0.0
C9260 C 0.39619 0.08134 0.37896 0.0
C9261 C 0.40055 0.07172 0.38173 0.0
C9262 C 0.40058 0.06332 0.3748 0.0
C9263 C 0.39607 0.06443 0.36502 0.0
C9264 C 0.39248 0.07404 0.36205 0.0
C9265 C 0.38769 0.0738 0.35152 0.0
C9266 C 0.38839 0.06235 0.34896 0.0
C9267 C 0.39343 0.05687 0.35679 0.0
C9268 C 0.39437 0.08029 0.34411 0.0
C9269 C 0.3766 0.07766 0.35256 0.0
C9270 C 0.3991 0.01806 0.36232 0.0
C9271 C 0.39592 0.00933 0.35663 0.0
C9272 C 0.39126 0.01081 0.34694 0.0
C9273 C 0.38932 0.02076 0.34313 0.0
C9274 C 0.39193 0.02941 0.34913 0.0
C9275 C 0.39703 0.02805 0.3584 0.0
C9276 C 0.39906 0.03827 0.36369 0.0
C9277 C 0.39427 0.04588 0.35613 0.0
C9278 C 0.39004 0.0406 0.34765 0.0
C9279 C 0.41059 0.03985 0.36429 0.0
C9280 C 0.39371 0.03824 0.37438 0.0
H9281 H 0.37823 0.07757 0.33193 0.0
H9282 H 0.36208 0.04653 0.31637 0.0
H9283 H 0.36363 0.03996 0.33938 0.0
H9284 H 0.3717 0.02919 0.34049 0.0
H9285 H 0.36529 0.03148 0.32846 0.0
H9286 H 0.38788 0.04334 0.31738 0.0
H9287 H 0.37976 0.03222 0.31731 0.0
H9288 H 0.39091 0.0328 0.32538 0.0
H9289 H 0.38939 0.08986 0.36624 0.0
H9290 H 0.40345 0.07047 0.38948 0.0
H9291 H 0.40374 0.05614 0.37746 0.0
H9292 H 0.40251 0.07941 0.34607 0.0
H9293 H 0.3925 0.08866 0.34463 0.0
H9294 H 0.3938 0.07773 0.33594 0.0
H9295 H 0.37371 0.07675 0.3606 0.0
H9296 H 0.37121 0.07317 0.34783 0.0
H9297 H 0.37593 0.08599 0.3505 0.0
H9298 H 0.36524 0.07974 0.31913 0.0
C9299 C 0.3751 0.07068 0.32862 0.0
C9300 C 0.74903 0.63513 0.11817 0.0
C9301 C 0.75492 0.6337 0.10913 0.0
C9302 C 0.75187 0.62606 0.10195 0.0
C9303 C 0.73725 0.62184 0.11244 0.0
C9304 C 0.74029 0.62908 0.11969 0.0
C9305 C 0.73324 0.62934 0.12891 0.0
H9306 H 0.69028 0.61063 0.15155 0.0
C9307 C 0.72784 0.61692 0.11615 0.0
C9308 C 0.72547 0.62117 0.12592 0.0
H9309 H 0.71001 0.63423 0.16396 0.0
H9310 H 0.72101 0.63245 0.14901 0.0
H9311 H 0.68963 0.61933 0.12972 0.0
H9312 H 0.7075 0.59545 0.14364 0.0
H9313 H 0.70424 0.59081 0.13129 0.0
H9314 H 0.6944 0.59387 0.14049 0.0
H9315 H 0.68488 0.60646 0.13153 0.0
H9316 H 0.69134 0.61027 0.11981 0.0
C9317 C 0.72853 0.64026 0.1296 0.0
C9318 C 0.73926 0.62616 0.13865 0.0
C9319 C 0.70765 0.59349 0.09199 0.0
C9320 C 0.69807 0.58875 0.09301 0.0
C9321 C 0.69355 0.58854 0.1029 0.0
C9322 C 0.69804 0.59351 0.11136 0.0
C9323 C 0.7071 0.59897 0.10998 0.0
C9324 C 0.71199 0.59855 0.10056 0.0
C9325 C 0.72169 0.60468 0.10071 0.0
C9326 C 0.72131 0.60951 0.11147 0.0
C9327 C 0.71277 0.60608 0.11682 0.0
C9328 C 0.72117 0.61292 0.092 0.0
C9329 C 0.73057 0.59694 0.0997 0.0
C9330 C 0.69687 0.61556 0.15108 0.0
C9331 C 0.69913 0.62266 0.15898 0.0
C9332 C 0.70803 0.62865 0.15803 0.0
C9333 C 0.71441 0.62764 0.14931 0.0
C9334 C 0.7119 0.62056 0.14141 0.0
C9335 C 0.70325 0.61468 0.14249 0.0
C9336 C 0.70143 0.6077 0.13344 0.0
C9337 C 0.71041 0.61022 0.12669 0.0
C9338 C 0.71664 0.61775 0.1313 0.0
C9339 C 0.69129 0.61098 0.12835 0.0
C9340 C 0.70182 0.59634 0.13735 0.0
H9341 H 0.74133 0.6145 0.09778 0.0
H9342 H 0.7511 0.64086 0.12391 0.0
H9343 H 0.74406 0.61928 0.13697 0.0
H9344 H 0.73436 0.62387 0.14516 0.0
H9345 H 0.74427 0.63256 0.14123 0.0
H9346 H 0.72616 0.64298 0.12179 0.0
H9347 H 0.73405 0.64593 0.13275 0.0
H9348 H 0.72167 0.64047 0.13443 0.0
H9349 H 0.71154 0.59356 0.08462 0.0
H9350 H 0.68622 0.58503 0.10405 0.0
H9351 H 0.694 0.59328 0.11855 0.0
H9352 H 0.71351 0.61643 0.09165 0.0
H9353 H 0.72278 0.60939 0.08432 0.0
H9354 H 0.72634 0.61949 0.09319 0.0
H9355 H 0.72871 0.58939 0.10343 0.0
H9356 H 0.73745 0.5996 0.10375 0.0
H9357 H 0.73237 0.59537 0.09144 0.0
H9358 H 0.75634 0.62447 0.09511 0.0
C9359 C 0.74315 0.62016 0.10356 0.0
C9360 C 0.60507 0.44363 0.40331 0.0
C9361 C 0.61177 0.43589 0.40678 0.0
C9362 C 0.61147 0.42602 0.40219 0.0
C9363 C 0.59976 0.43228 0.38936 0.0
C9364 C 0.59909 0.44162 0.39452 0.0
C9365 C 0.59223 0.44907 0.3889 0.0
H9366 H 0.57421 0.46482 0.34272 0.0
C9367 C 0.59469 0.43332 0.37929 0.0
C9368 C 0.59021 0.44314 0.37888 0.0
H9369 H 0.57251 0.48049 0.37239 0.0
H9370 H 0.57818 0.46507 0.38094 0.0
H9371 H 0.59421 0.45714 0.34494 0.0
H9372 H 0.56744 0.43957 0.35216 0.0
H9373 H 0.57569 0.43264 0.34375 0.0
H9374 H 0.57044 0.44482 0.33961 0.0
H9375 H 0.58774 0.44983 0.33517 0.0
H9376 H 0.59736 0.44409 0.34328 0.0
C9377 C 0.59807 0.4593 0.3871 0.0
C9378 C 0.58248 0.45028 0.39539 0.0
C9379 C 0.60499 0.40776 0.35184 0.0
C9380 C 0.60653 0.40905 0.34113 0.0
C9381 C 0.60086 0.41683 0.33602 0.0
C9382 C 0.5948 0.42381 0.34169 0.0
C9383 C 0.59487 0.4234 0.35259 0.0
C9384 C 0.59987 0.41537 0.35743 0.0
C9385 C 0.6009 0.41696 0.36887 0.0
C9386 C 0.59549 0.4272 0.37022 0.0
C9387 C 0.59176 0.43088 0.36074 0.0
C9388 C 0.61238 0.41769 0.37153 0.0
C9389 C 0.5952 0.40809 0.37442 0.0
C9390 C 0.57499 0.46497 0.35107 0.0
C9391 C 0.5731 0.47411 0.35677 0.0
C9392 C 0.57389 0.47369 0.36769 0.0
C9393 C 0.57736 0.46475 0.37268 0.0
C9394 C 0.58036 0.45619 0.36674 0.0
C9395 C 0.57868 0.45616 0.35618 0.0
C9396 C 0.58257 0.44642 0.35111 0.0
C9397 C 0.58683 0.44066 0.36038 0.0
C9398 C 0.5857 0.44654 0.36949 0.0
C9399 C 0.59085 0.44944 0.34316 0.0
C9400 C 0.57357 0.44051 0.34634 0.0
H9401 H 0.60563 0.41652 0.39035 0.0
H9402 H 0.60497 0.45119 0.40696 0.0
H9403 H 0.58054 0.44292 0.39941 0.0
H9404 H 0.5758 0.45204 0.39058 0.0
H9405 H 0.58338 0.45637 0.40141 0.0
H9406 H 0.60587 0.45765 0.38439 0.0
H9407 H 0.5986 0.46385 0.3944 0.0
H9408 H 0.59473 0.46431 0.38113 0.0
H9409 H 0.60864 0.4016 0.35611 0.0
H9410 H 0.60157 0.418 0.32776 0.0
H9411 H 0.5908 0.42966 0.33744 0.0
H9412 H 0.61726 0.41817 0.36452 0.0
H9413 H 0.61499 0.41083 0.37599 0.0
H9414 H 0.61432 0.42482 0.37587 0.0
H9415 H 0.58803 0.40625 0.37033 0.0
H9416 H 0.59293 0.41017 0.38241 0.0
H9417 H 0.59983 0.40092 0.37463 0.0
H9418 H 0.61623 0.41982 0.40505 0.0
C9419 C 0.60538 0.42413 0.39361 0.0
C9420 C 0.24895 0.86987 0.88694 0.0
C9421 C 0.25486 0.87128 0.89597 0.0
C9422 C 0.25184 0.87893 0.90315 0.0
C9423 C 0.23721 0.88318 0.89268 0.0
C9424 C 0.24022 0.87594 0.88543 0.0
C9425 C 0.23317 0.8757 0.87622 0.0
H9426 H 0.19022 0.89444 0.8536 0.0
C9427 C 0.2278 0.88812 0.88899 0.0
C9428 C 0.22541 0.88388 0.87922 0.0
H9429 H 0.20996 0.87083 0.84119 0.0
H9430 H 0.22096 0.87261 0.85614 0.0
H9431 H 0.18959 0.88573 0.87545 0.0
H9432 H 0.20745 0.90962 0.86152 0.0
H9433 H 0.20419 0.91425 0.87388 0.0
H9434 H 0.19435 0.9112 0.86468 0.0
H9435 H 0.18483 0.89861 0.87363 0.0
H9436 H 0.19129 0.8948 0.88534 0.0
C9437 C 0.22845 0.86479 0.87552 0.0
C9438 C 0.23919 0.87888 0.86648 0.0
C9439 C 0.20761 0.91154 0.91318 0.0
C9440 C 0.19804 0.91628 0.91216 0.0
C9441 C 0.19351 0.91651 0.90227 0.0
C9442 C 0.198 0.91154 0.89381 0.0
C9443 C 0.20707 0.90608 0.89518 0.0
C9444 C 0.21195 0.90648 0.90461 0.0
C9445 C 0.22166 0.90036 0.90444 0.0
C9446 C 0.22128 0.89553 0.89368 0.0
C9447 C 0.21273 0.89897 0.88833 0.0
C9448 C 0.22115 0.89212 0.91314 0.0
C9449 C 0.23053 0.9081 0.90544 0.0
C9450 C 0.19682 0.88951 0.85407 0.0
C9451 C 0.19908 0.8824 0.84617 0.0
C9452 C 0.20799 0.87641 0.84712 0.0
C9453 C 0.21436 0.87742 0.85584 0.0
C9454 C 0.21185 0.8845 0.86374 0.0
C9455 C 0.20319 0.89038 0.86267 0.0
C9456 C 0.20138 0.89736 0.87172 0.0
C9457 C 0.21036 0.89484 0.87846 0.0
C9458 C 0.21659 0.88731 0.87385 0.0
C9459 C 0.19124 0.89408 0.87681 0.0
C9460 C 0.20177 0.90872 0.86781 0.0
H9461 H 0.24132 0.89052 0.90734 0.0
H9462 H 0.251 0.86412 0.88119 0.0
H9463 H 0.24402 0.88573 0.86817 0.0
H9464 H 0.23429 0.88121 0.85998 0.0
H9465 H 0.24417 0.87247 0.86387 0.0
H9466 H 0.22611 0.86205 0.88334 0.0
H9467 H 0.23395 0.85912 0.87233 0.0
H9468 H 0.22156 0.8646 0.87073 0.0
H9469 H 0.21151 0.91146 0.92055 0.0
H9470 H 0.18618 0.92002 0.90113 0.0
H9471 H 0.19396 0.91179 0.88662 0.0
H9472 H 0.2135 0.88858 0.91348 0.0
H9473 H 0.22275 0.89564 0.92083 0.0
H9474 H 0.22633 0.88555 0.91196 0.0
H9475 H 0.22868 0.91564 0.90171 0.0
H9476 H 0.23742 0.90543 0.90141 0.0
H9477 H 0.23233 0.90968 0.9137 0.0
H9478 H 0.25632 0.88052 0.90998 0.0
C9479 C 0.24313 0.88486 0.90155 0.0
C9480 C 0.36576 0.95171 0.18559 0.0
C9481 C 0.3626 0.94164 0.18832 0.0
C9482 C 0.36759 0.93303 0.18407 0.0
C9483 C 0.37767 0.94432 0.17332 0.0
C9484 C 0.37352 0.95284 0.17821 0.0
C9485 C 0.37797 0.96281 0.1741 0.0
H9486 H 0.40263 0.98784 0.13537 0.0
C9487 C 0.38417 0.94799 0.16482 0.0
C9488 C 0.38457 0.95882 0.16527 0.0
H9489 H 0.38881 1.00081 0.16279 0.0
H9490 H 0.38549 0.98369 0.16937 0.0
H9491 H 0.41415 0.96685 0.14855 0.0
H9492 H 0.38709 0.97206 0.13079 0.0
H9493 H 0.39052 0.95911 0.12875 0.0
H9494 H 0.39891 0.96932 0.12459 0.0
H9495 H 0.41399 0.97036 0.13506 0.0
H9496 H 0.41268 0.95705 0.13904 0.0
C9497 C 0.38441 0.96771 0.18284 0.0
C9498 C 0.36924 0.96974 0.17018 0.0
C9499 C 0.39255 0.92242 0.13642 0.0
C9500 C 0.39618 0.92364 0.12625 0.0
C9501 C 0.40054 0.93325 0.12348 0.0
C9502 C 0.40057 0.94166 0.13041 0.0
C9503 C 0.39606 0.94055 0.14019 0.0
C9504 C 0.39247 0.93094 0.14316 0.0
C9505 C 0.38768 0.93119 0.15369 0.0
C9506 C 0.38838 0.94263 0.15626 0.0
C9507 C 0.39342 0.94811 0.14842 0.0
C9508 C 0.39436 0.92469 0.16111 0.0
C9509 C 0.37659 0.92733 0.15266 0.0
C9510 C 0.3991 0.98692 0.14289 0.0
C9511 C 0.39592 0.99566 0.14858 0.0
C9512 C 0.39126 0.99418 0.15827 0.0
C9513 C 0.38931 0.98423 0.16207 0.0
C9514 C 0.39192 0.97558 0.15607 0.0
C9515 C 0.39703 0.97694 0.14681 0.0
C9516 C 0.39905 0.96671 0.14152 0.0
C9517 C 0.39426 0.9591 0.14908 0.0
C9518 C 0.39002 0.96439 0.15756 0.0
C9519 C 0.41059 0.96512 0.14093 0.0
C9520 C 0.39371 0.96675 0.13083 0.0
H9521 H 0.37822 0.92741 0.17328 0.0
H9522 H 0.36208 0.95845 0.18886 0.0
H9523 H 0.36362 0.96502 0.16584 0.0
H9524 H 0.37168 0.97579 0.16472 0.0
H9525 H 0.36527 0.97351 0.17677 0.0
H9526 H 0.38788 0.96164 0.18781 0.0
H9527 H 0.37974 0.97275 0.18791 0.0
H9528 H 0.39088 0.9722 0.17983 0.0
H9529 H 0.38938 0.91512 0.13897 0.0
H9530 H 0.40344 0.9345 0.11573 0.0
H9531 H 0.40373 0.94884 0.12775 0.0
H9532 H 0.40249 0.92557 0.15914 0.0
H9533 H 0.39249 0.91632 0.16059 0.0
H9534 H 0.39379 0.92726 0.16927 0.0
H9535 H 0.3737 0.92824 0.14461 0.0
H9536 H 0.3712 0.93182 0.15738 0.0
H9537 H 0.37592 0.919 0.15471 0.0
H9538 H 0.36525 0.92524 0.1861 0.0
C9539 C 0.37509 0.9343 0.17659 0.0
C9540 C 0.10506 0.06135 0.60186 0.0
C9541 C 0.11175 0.06909 0.59839 0.0
C9542 C 0.11145 0.07897 0.60298 0.0
C9543 C 0.09974 0.07271 0.61581 0.0
C9544 C 0.09908 0.06336 0.61065 0.0
C9545 C 0.09222 0.05591 0.61627 0.0
H9546 H 0.0742 0.04016 0.66246 0.0
C9547 C 0.09467 0.07166 0.62588 0.0
C9548 C 0.0902 0.06184 0.62629 0.0
H9549 H 0.0725 0.02449 0.63278 0.0
H9550 H 0.07818 0.03991 0.62424 0.0
H9551 H 0.0942 0.04784 0.66023 0.0
H9552 H 0.06743 0.06542 0.65302 0.0
H9553 H 0.07567 0.07234 0.66143 0.0
H9554 H 0.07043 0.06017 0.66556 0.0
H9555 H 0.08773 0.05515 0.67 0.0
H9556 H 0.09735 0.06089 0.66189 0.0
C9557 C 0.09806 0.04568 0.61807 0.0
C9558 C 0.08247 0.0547 0.60978 0.0
C9559 C 0.10497 0.09722 0.65333 0.0
C9560 C 0.10651 0.09594 0.66404 0.0
C9561 C 0.10085 0.08816 0.66915 0.0
C9562 C 0.09478 0.08118 0.66348 0.0
C9563 C 0.09486 0.08158 0.65258 0.0
C9564 C 0.09985 0.08961 0.64774 0.0
C9565 C 0.10088 0.08802 0.6363 0.0
C9566 C 0.09547 0.07779 0.63495 0.0
C9567 C 0.09175 0.0741 0.64443 0.0
C9568 C 0.11237 0.08729 0.63364 0.0
C9569 C 0.09518 0.09689 0.63075 0.0
C9570 C 0.07498 0.04001 0.6541 0.0
C9571 C 0.07309 0.03087 0.6484 0.0
C9572 C 0.07388 0.03129 0.63749 0.0
C9573 C 0.07735 0.04024 0.63249 0.0
C9574 C 0.08036 0.0488 0.63844 0.0
C9575 C 0.07867 0.04883 0.64899 0.0
C9576 C 0.08256 0.05856 0.65406 0.0
C9577 C 0.08682 0.06433 0.6448 0.0
C9578 C 0.08569 0.05844 0.63568 0.0
C9579 C 0.09084 0.05554 0.66201 0.0
C9580 C 0.07356 0.06447 0.65883 0.0
H9581 H 0.1056 0.08847 0.61482 0.0
H9582 H 0.10496 0.05379 0.59822 0.0
H9583 H 0.08052 0.06206 0.60576 0.0
H9584 H 0.07579 0.05294 0.6146 0.0
H9585 H 0.08337 0.04861 0.60377 0.0
H9586 H 0.10586 0.04734 0.62078 0.0
H9587 H 0.0986 0.04113 0.61078 0.0
H9588 H 0.09473 0.04067 0.62404 0.0
H9589 H 0.10862 0.10338 0.64906 0.0
H9590 H 0.10155 0.08698 0.67741 0.0
H9591 H 0.09079 0.07532 0.66773 0.0
H9592 H 0.11724 0.08681 0.64064 0.0
H9593 H 0.11496 0.09415 0.62918 0.0
H9594 H 0.1143 0.08016 0.6293 0.0
H9595 H 0.08801 0.09873 0.63485 0.0
H9596 H 0.09291 0.09482 0.62276 0.0
H9597 H 0.09981 0.10406 0.63054 0.0
H9598 H 0.1162 0.08517 0.60011 0.0
C9599 C 0.10535 0.08085 0.61156 0.0
loop_
_geom_bond_atom_site_label_1
_geom_bond_atom_site_label_2
_geom_bond_distance
_geom_bond_site_symmetry_2
_ccdc_geom_bond_type
C0 C1 1.264 . S
C0 C5 1.479 . S
C0 C10 1.465 . S
C1 C0 1.264 . S
C1 C3 1.339 . S
C1 H28 0.931 . S
C2 C3 1.395 . S
C2 C4 1.320 . S
C3 C1 1.339 . S
C3 C2 1.395 . S
C3 H29 0.929 . S
C4 C2 1.320 . S
C4 C5 1.405 . S
C4 H30 0.930 . S
C5 C0 1.479 . S
C5 C4 1.405 . S
C5 H31 0.931 . S
U6 O7 2.454 . S
U6 O8 2.458 . S
U6 C9 2.984 . S
U6 C10 2.847 . S
U6 C23 2.882 . S
U6 O24 2.441 . S
U6 O25 2.420 . S
U6 O26 2.455 . S
U6 O27 2.449 . S
O7 U6 2.454 . S
O7 C9 1.353 . S
O8 U6 2.458 . S
O8 C9 1.286 . S
C9 U6 2.984 . S
C9 O7 1.353 . S
C9 O8 1.286 . S
C9 C11 1.363 . S
C10 C0 1.465 . S
C10 U6 2.847 . S
C10 O24 1.249 . S
C10 O25 1.202 . S
C11 C9 1.363 . S
C11 C13 1.408 . S
C11 C16 1.342 . S
C12 C13 1.310 . S
C12 C15 1.461 . S
C12 H32 0.932 . S
C13 C11 1.408 . S
C13 C12 1.310 . S
C13 H33 0.930 . S
C14 C15 1.474 . S
C14 C16 1.285 . S
C14 H34 0.929 . S
C15 C12 1.461 . S
C15 C14 1.474 . S
C16 C11 1.342 . S
C16 C14 1.285 . S
C16 H35 0.930 . S
C17 C20 1.424 . S
C17 C22 1.245 . S
C17 C23 1.428 . S
C18 C21 1.260 . S
C18 C22 1.477 . S
C18 H36 0.932 . S
C19 C20 1.384 . S
C19 C21 1.479 . S
C19 H37 0.929 . S
C20 C17 1.424 . S
C20 C19 1.384 . S
C20 H38 0.928 . S
C21 C18 1.260 . S
C21 C19 1.479 . S
C22 C17 1.245 . S
C22 C18 1.477 . S
C22 H39 0.932 . S
C23 U6 2.882 . S
C23 C17 1.428 . S
C23 O26 1.301 . S
C23 O27 1.282 . S
O24 U6 2.441 . S
O24 C10 1.249 . S
O25 U6 2.420 . S
O25 C10 1.202 . S
O26 U6 2.455 . S
O26 C23 1.301 . S
O27 U6 2.449 . S
O27 C23 1.282 . S
H28 C1 0.931 . S
H29 C3 0.929 . S
H30 C4 0.930 . S
H31 C5 0.931 . S
H32 C12 0.932 . S
H33 C13 0.930 . S
H34 C14 0.929 . S
H35 C16 0.930 . S
H36 C18 0.932 . S
H37 C19 0.929 . S
H38 C20 0.928 . S
H39 C22 0.932 . S
C40 C41 1.264 . S
C40 C45 1.479 . S
C40 C50 1.465 . S
C41 C40 1.264 . S
C41 C43 1.339 . S
C41 H68 0.931 . S
C42 C43 1.395 . S
C42 C44 1.320 . S
C43 C41 1.339 . S
C43 C42 1.395 . S
C43 H69 0.929 . S
C44 C42 1.320 . S
C44 C45 1.405 . S
C44 H70 0.930 . S
C45 C40 1.479 . S
C45 C44 1.405 . S
C45 H71 0.931 . S
U46 O47 2.454 . S
U46 O48 2.458 . S
U46 C49 2.984 . S
U46 C50 2.847 . S
U46 C63 2.882 . S
U46 O64 2.441 . S
U46 O65 2.420 . S
U46 O66 2.455 . S
U46 O67 2.449 . S
O47 U46 2.454 . S
O47 C49 1.353 . S
O48 U46 2.458 . S
O48 C49 1.286 . S
C49 U46 2.984 . S
C49 O47 1.353 . S
C49 O48 1.286 . S
C49 C51 1.363 . S
C50 C40 1.465 . S
C50 U46 2.847 . S
C50 O64 1.249 . S
C50 O65 1.202 . S
C51 C49 1.363 . S
C51 C53 1.408 . S
C51 C56 1.342 . S
C52 C53 1.310 . S
C52 C55 1.461 . S
C52 H72 0.932 . S
C53 C51 1.408 . S
C53 C52 1.310 . S
C53 H73 0.930 . S
C54 C55 1.474 . S
C54 C56 1.285 . S
C54 H74 0.929 . S
C55 C52 1.461 . S
C55 C54 1.474 . S
C56 C51 1.342 . S
C56 C54 1.285 . S
C56 H75 0.930 . S
C57 C60 1.424 . S
C57 C62 1.245 . S
C57 C63 1.428 . S
C58 C61 1.260 . S
C58 C62 1.477 . S
C58 H76 0.932 . S
C59 C60 1.384 . S
C59 C61 1.479 . S
C59 H77 0.929 . S
C60 C57 1.424 . S
C60 C59 1.384 . S
C60 H78 0.928 . S
C61 C58 1.260 . S
C61 C59 1.479 . S
C62 C57 1.245 . S
C62 C58 1.477 . S
C62 H79 0.932 . S
C63 U46 2.882 . S
C63 C57 1.428 . S
C63 O66 1.301 . S
C63 O67 1.282 . S
O64 U46 2.441 . S
O64 C50 1.249 . S
O65 U46 2.420 . S
O65 C50 1.202 . S
O66 U46 2.455 . S
O66 C63 1.301 . S
O67 U46 2.449 . S
O67 C63 1.282 . S
H68 C41 0.931 . S
H69 C43 0.929 . S
H70 C44 0.930 . S
H71 C45 0.931 . S
H72 C52 0.932 . S
H73 C53 0.930 . S
H74 C54 0.929 . S
H75 C56 0.930 . S
H76 C58 0.932 . S
H77 C59 0.929 . S
H78 C60 0.928 . S
H79 C62 0.932 . S
C80 C81 1.264 . S
C80 C85 1.479 . S
C80 C90 1.465 . S
C81 C80 1.264 . S
C81 C83 1.339 . S
C81 H108 0.931 . S
C82 C83 1.395 . S
C82 C84 1.320 . S
C83 C81 1.339 . S
C83 C82 1.395 . S
C83 H109 0.929 . S
C84 C82 1.320 . S
C84 C85 1.405 . S
C84 H110 0.930 . S
C85 C80 1.479 . S
C85 C84 1.405 . S
C85 H111 0.931 . S
U86 O87 2.454 . S
U86 O88 2.458 . S
U86 C89 2.984 . S
U86 C90 2.847 . S
U86 C103 2.882 . S
U86 O104 2.441 . S
U86 O105 2.420 . S
U86 O106 2.455 . S
U86 O107 2.449 . S
O87 U86 2.454 . S
O87 C89 1.353 . S
O88 U86 2.458 . S
O88 C89 1.286 . S
C89 U86 2.984 . S
C89 O87 1.353 . S
C89 O88 1.286 . S
C89 C91 1.363 . S
C90 C80 1.465 . S
C90 U86 2.847 . S
C90 O104 1.249 . S
C90 O105 1.202 . S
C91 C89 1.363 . S
C91 C93 1.408 . S
C91 C96 1.342 . S
C92 C93 1.310 . S
C92 C95 1.461 . S
C92 H112 0.932 . S
C93 C91 1.408 . S
C93 C92 1.310 . S
C93 H113 0.930 . S
C94 C95 1.474 . S
C94 C96 1.285 . S
C94 H114 0.929 . S
C95 C92 1.461 . S
C95 C94 1.474 . S
C96 C91 1.342 . S
C96 C94 1.285 . S
C96 H115 0.930 . S
C97 C100 1.424 . S
C97 C102 1.245 . S
C97 C103 1.428 . S
C98 C101 1.260 . S
C98 C102 1.477 . S
C98 H116 0.932 . S
C99 C100 1.384 . S
C99 C101 1.479 . S
C99 H117 0.929 . S
C100 C97 1.424 . S
C100 C99 1.384 . S
C100 H118 0.928 . S
C101 C98 1.260 . S
C101 C99 1.479 . S
C102 C97 1.245 . S
C102 C98 1.477 . S
C102 H119 0.932 . S
C103 U86 2.882 . S
C103 C97 1.428 . S
C103 O106 1.301 . S
C103 O107 1.282 . S
O104 U86 2.441 . S
O104 C90 1.249 . S
O105 U86 2.420 . S
O105 C90 1.202 . S
O106 U86 2.455 . S
O106 C103 1.301 . S
O107 U86 2.449 . S
O107 C103 1.282 . S
H108 C81 0.931 . S
H109 C83 0.929 . S
H110 C84 0.930 . S
H111 C85 0.931 . S
H112 C92 0.932 . S
H113 C93 0.930 . S
H114 C94 0.929 . S
H115 C96 0.930 . S
H116 C98 0.932 . S
H117 C99 0.929 . S
H118 C100 0.928 . S
H119 C102 0.932 . S
C120 C121 1.264 . S
C120 C125 1.479 . S
C120 C130 1.465 . S
C121 C120 1.264 . S
C121 C123 1.339 . S
C121 H148 0.931 . S
C122 C123 1.395 . S
C122 C124 1.320 . S
C123 C121 1.339 . S
C123 C122 1.395 . S
C123 H149 0.929 . S
C124 C122 1.320 . S
C124 C125 1.405 . S
C124 H150 0.930 . S
C125 C120 1.479 . S
C125 C124 1.405 . S
C125 H151 0.931 . S
U126 O127 2.454 . S
U126 O128 2.458 . S
U126 C129 2.984 . S
U126 C130 2.847 . S
U126 C143 2.882 . S
U126 O144 2.441 . S
U126 O145 2.420 . S
U126 O146 2.455 . S
U126 O147 2.449 . S
O127 U126 2.454 . S
O127 C129 1.353 . S
O128 U126 2.458 . S
O128 C129 1.286 . S
C129 U126 2.984 . S
C129 O127 1.353 . S
C129 O128 1.286 . S
C129 C131 1.363 . S
C130 C120 1.465 . S
C130 U126 2.847 . S
C130 O144 1.249 . S
C130 O145 1.202 . S
C131 C129 1.363 . S
C131 C133 1.408 . S
C131 C136 1.342 . S
C132 C133 1.310 . S
C132 C135 1.461 . S
C132 H152 0.932 . S
C133 C131 1.408 . S
C133 C132 1.310 . S
C133 H153 0.930 . S
C134 C135 1.474 . S
C134 C136 1.285 . S
C134 H154 0.929 . S
C135 C132 1.461 . S
C135 C134 1.474 . S
C136 C131 1.342 . S
C136 C134 1.285 . S
C136 H155 0.930 . S
C137 C140 1.424 . S
C137 C142 1.245 . S
C137 C143 1.428 . S
C138 C141 1.260 . S
C138 C142 1.477 . S
C138 H156 0.932 . S
C139 C140 1.384 . S
C139 C141 1.479 . S
C139 H157 0.929 . S
C140 C137 1.424 . S
C140 C139 1.384 . S
C140 H158 0.928 . S
C141 C138 1.260 . S
C141 C139 1.479 . S
C142 C137 1.245 . S
C142 C138 1.477 . S
C142 H159 0.932 . S
C143 U126 2.882 . S
C143 C137 1.428 . S
C143 O146 1.301 . S
C143 O147 1.282 . S
O144 U126 2.441 . S
O144 C130 1.249 . S
O145 U126 2.420 . S
O145 C130 1.202 . S
O146 U126 2.455 . S
O146 C143 1.301 . S
O147 U126 2.449 . S
O147 C143 1.282 . S
H148 C121 0.931 . S
H149 C123 0.929 . S
H150 C124 0.930 . S
H151 C125 0.931 . S
H152 C132 0.932 . S
H153 C133 0.930 . S
H154 C134 0.929 . S
H155 C136 0.930 . S
H156 C138 0.932 . S
H157 C139 0.929 . S
H158 C140 0.928 . S
H159 C142 0.932 . S
C160 C161 1.264 . S
C160 C165 1.479 . S
C160 C170 1.465 . S
C161 C160 1.264 . S
C161 C163 1.339 . S
C161 H188 0.931 . S
C162 C163 1.395 . S
C162 C164 1.320 . S
C163 C161 1.339 . S
C163 C162 1.395 . S
C163 H189 0.929 . S
C164 C162 1.320 . S
C164 C165 1.405 . S
C164 H190 0.930 . S
C165 C160 1.479 . S
C165 C164 1.405 . S
C165 H191 0.931 . S
U166 O167 2.454 . S
U166 O168 2.458 . S
U166 C169 2.984 . S
U166 C170 2.847 . S
U166 C183 2.882 . S
U166 O184 2.441 . S
U166 O185 2.420 . S
U166 O186 2.455 . S
U166 O187 2.449 . S
O167 U166 2.454 . S
O167 C169 1.353 . S
O168 U166 2.458 . S
O168 C169 1.286 . S
C169 U166 2.984 . S
C169 O167 1.353 . S
C169 O168 1.286 . S
C169 C171 1.363 . S
C170 C160 1.465 . S
C170 U166 2.847 . S
C170 O184 1.249 . S
C170 O185 1.202 . S
C171 C169 1.363 . S
C171 C173 1.408 . S
C171 C176 1.342 . S
C172 C173 1.310 . S
C172 C175 1.461 . S
C172 H192 0.932 . S
C173 C171 1.408 . S
C173 C172 1.310 . S
C173 H193 0.930 . S
C174 C175 1.474 . S
C174 C176 1.285 . S
C174 H194 0.929 . S
C175 C172 1.461 . S
C175 C174 1.474 . S
C176 C171 1.342 . S
C176 C174 1.285 . S
C176 H195 0.930 . S
C177 C180 1.424 . S
C177 C182 1.245 . S
C177 C183 1.428 . S
C178 C181 1.260 . S
C178 C182 1.477 . S
C178 H196 0.932 . S
C179 C180 1.384 . S
C179 C181 1.479 . S
C179 H197 0.929 . S
C180 C177 1.424 . S
C180 C179 1.384 . S
C180 H198 0.928 . S
C181 C178 1.260 . S
C181 C179 1.479 . S
C182 C177 1.245 . S
C182 C178 1.477 . S
C182 H199 0.932 . S
C183 U166 2.882 . S
C183 C177 1.428 . S
C183 O186 1.301 . S
C183 O187 1.282 . S
O184 U166 2.441 . S
O184 C170 1.249 . S
O185 U166 2.420 . S
O185 C170 1.202 . S
O186 U166 2.455 . S
O186 C183 1.301 . S
O187 U166 2.449 . S
O187 C183 1.282 . S
H188 C161 0.931 . S
H189 C163 0.929 . S
H190 C164 0.930 . S
H191 C165 0.931 . S
H192 C172 0.932 . S
H193 C173 0.930 . S
H194 C174 0.929 . S
H195 C176 0.930 . S
H196 C178 0.932 . S
H197 C179 0.929 . S
H198 C180 0.928 . S
H199 C182 0.932 . S
C200 C201 1.264 . S
C200 C205 1.479 . S
C200 C210 1.465 . S
C201 C200 1.264 . S
C201 C203 1.339 . S
C201 H228 0.931 . S
C202 C203 1.395 . S
C202 C204 1.320 . S
C203 C201 1.339 . S
C203 C202 1.395 . S
C203 H229 0.929 . S
C204 C202 1.320 . S
C204 C205 1.405 . S
C204 H230 0.930 . S
C205 C200 1.479 . S
C205 C204 1.405 . S
C205 H231 0.931 . S
U206 O207 2.454 . S
U206 O208 2.458 . S
U206 C209 2.984 . S
U206 C210 2.847 . S
U206 C223 2.882 . S
U206 O224 2.441 . S
U206 O225 2.420 . S
U206 O226 2.455 . S
U206 O227 2.449 . S
O207 U206 2.454 . S
O207 C209 1.353 . S
O208 U206 2.458 . S
O208 C209 1.286 . S
C209 U206 2.984 . S
C209 O207 1.353 . S
C209 O208 1.286 . S
C209 C211 1.363 . S
C210 C200 1.465 . S
C210 U206 2.847 . S
C210 O224 1.249 . S
C210 O225 1.202 . S
C211 C209 1.363 . S
C211 C213 1.408 . S
C211 C216 1.342 . S
C212 C213 1.310 . S
C212 C215 1.461 . S
C212 H232 0.932 . S
C213 C211 1.408 . S
C213 C212 1.310 . S
C213 H233 0.930 . S
C214 C215 1.474 . S
C214 C216 1.285 . S
C214 H234 0.929 . S
C215 C212 1.461 . S
C215 C214 1.474 . S
C216 C211 1.342 . S
C216 C214 1.285 . S
C216 H235 0.930 . S
C217 C220 1.424 . S
C217 C222 1.245 . S
C217 C223 1.428 . S
C218 C221 1.260 . S
C218 C222 1.477 . S
C218 H236 0.932 . S
C219 C220 1.384 . S
C219 C221 1.479 . S
C219 H237 0.929 . S
C220 C217 1.424 . S
C220 C219 1.384 . S
C220 H238 0.928 . S
C221 C218 1.260 . S
C221 C219 1.479 . S
C222 C217 1.245 . S
C222 C218 1.477 . S
C222 H239 0.932 . S
C223 U206 2.882 . S
C223 C217 1.428 . S
C223 O226 1.301 . S
C223 O227 1.282 . S
O224 U206 2.441 . S
O224 C210 1.249 . S
O225 U206 2.420 . S
O225 C210 1.202 . S
O226 U206 2.455 . S
O226 C223 1.301 . S
O227 U206 2.449 . S
O227 C223 1.282 . S
H228 C201 0.931 . S
H229 C203 0.929 . S
H230 C204 0.930 . S
H231 C205 0.931 . S
H232 C212 0.932 . S
H233 C213 0.930 . S
H234 C214 0.929 . S
H235 C216 0.930 . S
H236 C218 0.932 . S
H237 C219 0.929 . S
H238 C220 0.928 . S
H239 C222 0.932 . S
C240 C241 1.264 . S
C240 C245 1.479 . S
C240 C250 1.465 . S
C241 C240 1.264 . S
C241 C243 1.339 . S
C241 H268 0.931 . S
C242 C243 1.395 . S
C242 C244 1.320 . S
C243 C241 1.339 . S
C243 C242 1.395 . S
C243 H269 0.929 . S
C244 C242 1.320 . S
C244 C245 1.405 . S
C244 H270 0.930 . S
C245 C240 1.479 . S
C245 C244 1.405 . S
C245 H271 0.931 . S
U246 O247 2.454 . S
U246 O248 2.458 . S
U246 C249 2.984 . S
U246 C250 2.847 . S
U246 C263 2.882 . S
U246 O264 2.441 . S
U246 O265 2.420 . S
U246 O266 2.455 . S
U246 O267 2.449 . S
O247 U246 2.454 . S
O247 C249 1.353 . S
O248 U246 2.458 . S
O248 C249 1.286 . S
C249 U246 2.984 . S
C249 O247 1.353 . S
C249 O248 1.286 . S
C249 C251 1.363 . S
C250 C240 1.465 . S
C250 U246 2.847 . S
C250 O264 1.249 . S
C250 O265 1.202 . S
C251 C249 1.363 . S
C251 C253 1.408 . S
C251 C256 1.342 . S
C252 C253 1.310 . S
C252 C255 1.461 . S
C252 H272 0.932 . S
C253 C251 1.408 . S
C253 C252 1.310 . S
C253 H273 0.930 . S
C254 C255 1.474 . S
C254 C256 1.285 . S
C254 H274 0.929 . S
C255 C252 1.461 . S
C255 C254 1.474 . S
C256 C251 1.342 . S
C256 C254 1.285 . S
C256 H275 0.930 . S
C257 C260 1.424 . S
C257 C262 1.245 . S
C257 C263 1.428 . S
C258 C261 1.260 . S
C258 C262 1.477 . S
C258 H276 0.932 . S
C259 C260 1.384 . S
C259 C261 1.479 . S
C259 H277 0.929 . S
C260 C257 1.424 . S
C260 C259 1.384 . S
C260 H278 0.928 . S
C261 C258 1.260 . S
C261 C259 1.479 . S
C262 C257 1.245 . S
C262 C258 1.477 . S
C262 H279 0.932 . S
C263 U246 2.882 . S
C263 C257 1.428 . S
C263 O266 1.301 . S
C263 O267 1.282 . S
O264 U246 2.441 . S
O264 C250 1.249 . S
O265 U246 2.420 . S
O265 C250 1.202 . S
O266 U246 2.455 . S
O266 C263 1.301 . S
O267 U246 2.449 . S
O267 C263 1.282 . S
H268 C241 0.931 . S
H269 C243 0.929 . S
H270 C244 0.930 . S
H271 C245 0.931 . S
H272 C252 0.932 . S
H273 C253 0.930 . S
H274 C254 0.929 . S
H275 C256 0.930 . S
H276 C258 0.932 . S
H277 C259 0.929 . S
H278 C260 0.928 . S
H279 C262 0.932 . S
C280 C281 1.264 . S
C280 C285 1.479 . S
C280 C290 1.465 . S
C281 C280 1.264 . S
C281 C283 1.339 . S
C281 H308 0.931 . S
C282 C283 1.395 . S
C282 C284 1.320 . S
C283 C281 1.339 . S
C283 C282 1.395 . S
C283 H309 0.929 . S
C284 C282 1.320 . S
C284 C285 1.405 . S
C284 H310 0.930 . S
C285 C280 1.479 . S
C285 C284 1.405 . S
C285 H311 0.931 . S
U286 O287 2.454 . S
U286 O288 2.458 . S
U286 C289 2.984 . S
U286 C290 2.847 . S
U286 C303 2.882 . S
U286 O304 2.441 . S
U286 O305 2.420 . S
U286 O306 2.455 . S
U286 O307 2.449 . S
O287 U286 2.454 . S
O287 C289 1.353 . S
O288 U286 2.458 . S
O288 C289 1.286 . S
C289 U286 2.984 . S
C289 O287 1.353 . S
C289 O288 1.286 . S
C289 C291 1.363 . S
C290 C280 1.465 . S
C290 U286 2.847 . S
C290 O304 1.249 . S
C290 O305 1.202 . S
C291 C289 1.363 . S
C291 C293 1.408 . S
C291 C296 1.342 . S
C292 C293 1.310 . S
C292 C295 1.461 . S
C292 H312 0.932 . S
C293 C291 1.408 . S
C293 C292 1.310 . S
C293 H313 0.930 . S
C294 C295 1.474 . S
C294 C296 1.285 . S
C294 H314 0.929 . S
C295 C292 1.461 . S
C295 C294 1.474 . S
C296 C291 1.342 . S
C296 C294 1.285 . S
C296 H315 0.930 . S
C297 C300 1.424 . S
C297 C302 1.245 . S
C297 C303 1.428 . S
C298 C301 1.260 . S
C298 C302 1.477 . S
C298 H316 0.932 . S
C299 C300 1.384 . S
C299 C301 1.479 . S
C299 H317 0.929 . S
C300 C297 1.424 . S
C300 C299 1.384 . S
C300 H318 0.928 . S
C301 C298 1.260 . S
C301 C299 1.479 . S
C302 C297 1.245 . S
C302 C298 1.477 . S
C302 H319 0.932 . S
C303 U286 2.882 . S
C303 C297 1.428 . S
C303 O306 1.301 . S
C303 O307 1.282 . S
O304 U286 2.441 . S
O304 C290 1.249 . S
O305 U286 2.420 . S
O305 C290 1.202 . S
O306 U286 2.455 . S
O306 C303 1.301 . S
O307 U286 2.449 . S
O307 C303 1.282 . S
H308 C281 0.931 . S
H309 C283 0.929 . S
H310 C284 0.930 . S
H311 C285 0.931 . S
H312 C292 0.932 . S
H313 C293 0.930 . S
H314 C294 0.929 . S
H315 C296 0.930 . S
H316 C298 0.932 . S
H317 C299 0.929 . S
H318 C300 0.928 . S
H319 C302 0.932 . S
C320 C321 1.264 . S
C320 C325 1.479 . S
C320 C330 1.465 . S
C321 C320 1.264 . S
C321 C323 1.339 . S
C321 H348 0.931 . S
C322 C323 1.395 . S
C322 C324 1.320 . S
C323 C321 1.339 . S
C323 C322 1.395 . S
C323 H349 0.929 . S
C324 C322 1.320 . S
C324 C325 1.405 . S
C324 H350 0.930 . S
C325 C320 1.479 . S
C325 C324 1.405 . S
C325 H351 0.931 . S
U326 O327 2.454 . S
U326 O328 2.458 . S
U326 C329 2.984 . S
U326 C330 2.847 . S
U326 C343 2.882 . S
U326 O344 2.441 . S
U326 O345 2.420 . S
U326 O346 2.455 . S
U326 O347 2.449 . S
O327 U326 2.454 . S
O327 C329 1.353 . S
O328 U326 2.458 . S
O328 C329 1.286 . S
C329 U326 2.984 . S
C329 O327 1.353 . S
C329 O328 1.286 . S
C329 C331 1.363 . S
C330 C320 1.465 . S
C330 U326 2.847 . S
C330 O344 1.249 . S
C330 O345 1.202 . S
C331 C329 1.363 . S
C331 C333 1.408 . S
C331 C336 1.342 . S
C332 C333 1.310 . S
C332 C335 1.493 . S
C332 H352 0.932 . S
C333 C331 1.408 . S
C333 C332 1.310 . S
C333 H353 0.930 . S
C334 C335 1.513 . S
C334 C336 1.285 . S
C334 H354 0.929 . S
C335 C332 1.493 . S
C335 C334 1.513 . S
C336 C331 1.342 . S
C336 C334 1.285 . S
C336 H355 0.930 . S
C337 C340 1.424 . S
C337 C342 1.245 . S
C337 C343 1.428 . S
C338 C341 1.260 . S
C338 C342 1.477 . S
C338 H356 0.932 . S
C339 C340 1.384 . S
C339 C341 1.479 . S
C339 H357 0.929 . S
C340 C337 1.424 . S
C340 C339 1.384 . S
C340 H358 0.928 . S
C341 C338 1.260 . S
C341 C339 1.479 . S
C342 C337 1.245 . S
C342 C338 1.477 . S
C342 H359 0.932 . S
C343 U326 2.882 . S
C343 C337 1.428 . S
C343 O346 1.301 . S
C343 O347 1.282 . S
O344 U326 2.441 . S
O344 C330 1.249 . S
O345 U326 2.420 . S
O345 C330 1.202 . S
O346 U326 2.455 . S
O346 C343 1.301 . S
O347 U326 2.449 . S
O347 C343 1.282 . S
H348 C321 0.931 . S
H349 C323 0.929 . S
H350 C324 0.930 . S
H351 C325 0.931 . S
H352 C332 0.932 . S
H353 C333 0.930 . S
H354 C334 0.929 . S
H355 C336 0.930 . S
H356 C338 0.932 . S
H357 C339 0.929 . S
H358 C340 0.928 . S
H359 C342 0.932 . S
C360 C361 1.264 . S
C360 C365 1.479 . S
C360 C370 1.465 . S
C361 C360 1.264 . S
C361 C363 1.339 . S
C361 H388 0.931 . S
C362 C363 1.395 . S
C362 C364 1.320 . S
C363 C361 1.339 . S
C363 C362 1.395 . S
C363 H389 0.929 . S
C364 C362 1.320 . S
C364 C365 1.405 . S
C364 H390 0.930 . S
C365 C360 1.479 . S
C365 C364 1.405 . S
C365 H391 0.931 . S
U366 O367 2.454 . S
U366 O368 2.458 . S
U366 C369 2.984 . S
U366 C370 2.847 . S
U366 C383 2.882 . S
U366 O384 2.441 . S
U366 O385 2.420 . S
U366 O386 2.455 . S
U366 O387 2.449 . S
O367 U366 2.454 . S
O367 C369 1.353 . S
O368 U366 2.458 . S
O368 C369 1.286 . S
C369 U366 2.984 . S
C369 O367 1.353 . S
C369 O368 1.286 . S
C369 C371 1.363 . S
C370 C360 1.465 . S
C370 U366 2.847 . S
C370 O384 1.249 . S
C370 O385 1.202 . S
C371 C369 1.363 . S
C371 C373 1.408 . S
C371 C376 1.342 . S
C372 C373 1.310 . S
C372 C375 1.461 . S
C372 H392 0.932 . S
C373 C371 1.408 . S
C373 C372 1.310 . S
C373 H393 0.930 . S
C374 C375 1.474 . S
C374 C376 1.285 . S
C374 H394 0.929 . S
C375 C372 1.461 . S
C375 C374 1.474 . S
C376 C371 1.342 . S
C376 C374 1.285 . S
C376 H395 0.930 . S
C377 C380 1.424 . S
C377 C382 1.245 . S
C377 C383 1.428 . S
C378 C381 1.260 . S
C378 C382 1.477 . S
C378 H396 0.932 . S
C379 C380 1.384 . S
C379 C381 1.479 . S
C379 H397 0.929 . S
C380 C377 1.424 . S
C380 C379 1.384 . S
C380 H398 0.928 . S
C381 C378 1.260 . S
C381 C379 1.479 . S
C382 C377 1.245 . S
C382 C378 1.477 . S
C382 H399 0.932 . S
C383 U366 2.882 . S
C383 C377 1.428 . S
C383 O386 1.301 . S
C383 O387 1.282 . S
O384 U366 2.441 . S
O384 C370 1.249 . S
O385 U366 2.420 . S
O385 C370 1.202 . S
O386 U366 2.455 . S
O386 C383 1.301 . S
O387 U366 2.449 . S
O387 C383 1.282 . S
H388 C361 0.931 . S
H389 C363 0.929 . S
H390 C364 0.930 . S
H391 C365 0.931 . S
H392 C372 0.932 . S
H393 C373 0.930 . S
H394 C374 0.929 . S
H395 C376 0.930 . S
H396 C378 0.932 . S
H397 C379 0.929 . S
H398 C380 0.928 . S
H399 C382 0.932 . S
C400 C401 1.264 . S
C400 C405 1.479 . S
C400 C410 1.465 . S
C401 C400 1.264 . S
C401 C403 1.339 . S
C401 H428 0.931 . S
C402 C403 1.395 . S
C402 C404 1.320 . S
C403 C401 1.339 . S
C403 C402 1.395 . S
C403 H429 0.929 . S
C404 C402 1.320 . S
C404 C405 1.405 . S
C404 H430 0.930 . S
C405 C400 1.479 . S
C405 C404 1.405 . S
C405 H431 0.931 . S
U406 O407 2.454 . S
U406 O408 2.458 . S
U406 C409 2.984 . S
U406 C410 2.847 . S
U406 C423 2.882 . S
U406 O424 2.441 . S
U406 O425 2.420 . S
U406 O426 2.455 . S
U406 O427 2.449 . S
O407 U406 2.454 . S
O407 C409 1.353 . S
O408 U406 2.458 . S
O408 C409 1.286 . S
C409 U406 2.984 . S
C409 O407 1.353 . S
C409 O408 1.286 . S
C409 C411 1.352 1_565 S
C410 C400 1.465 . S
C410 U406 2.847 . S
C410 O424 1.249 . S
C410 O425 1.202 . S
C411 C409 1.352 1_545 S
C411 C413 1.412 . S
C411 C416 1.348 . S
C412 C413 1.310 . S
C412 C415 1.461 . S
C412 H432 0.932 . S
C413 C411 1.412 . S
C413 C412 1.310 . S
C413 H433 0.973 . S
C414 C415 1.474 . S
C414 C416 1.285 . S
C414 H434 0.929 . S
C415 C412 1.461 . S
C415 C414 1.474 . S
C416 C411 1.348 . S
C416 C414 1.285 . S
C416 H435 0.930 . S
C417 C420 1.424 . S
C417 C422 1.245 . S
C417 C423 1.428 . S
C418 C421 1.260 . S
C418 C422 1.477 . S
C418 H436 0.932 . S
C419 C420 1.384 . S
C419 C421 1.479 . S
C419 H437 0.929 . S
C420 C417 1.424 . S
C420 C419 1.384 . S
C420 H438 0.928 . S
C421 C418 1.260 . S
C421 C419 1.479 . S
C422 C417 1.245 . S
C422 C418 1.477 . S
C422 H439 0.932 . S
C423 U406 2.882 . S
C423 C417 1.428 . S
C423 O426 1.301 . S
C423 O427 1.282 . S
O424 U406 2.441 . S
O424 C410 1.249 . S
O425 U406 2.420 . S
O425 C410 1.202 . S
O426 U406 2.455 . S
O426 C423 1.301 . S
O427 U406 2.449 . S
O427 C423 1.282 . S
H428 C401 0.931 . S
H429 C403 0.929 . S
H430 C404 0.930 . S
H431 C405 0.931 . S
H432 C412 0.932 . S
H433 C413 0.973 . S
H434 C414 0.929 . S
H435 C416 0.930 . S
H436 C418 0.932 . S
H437 C419 0.929 . S
H438 C420 0.928 . S
H439 C422 0.932 . S
C440 C441 1.264 . S
C440 C445 1.479 . S
C440 C450 1.465 . S
C441 C440 1.264 . S
C441 C443 1.339 . S
C441 H468 0.931 . S
C442 C443 1.395 . S
C442 C444 1.320 . S
C443 C441 1.339 . S
C443 C442 1.395 . S
C443 H469 0.929 . S
C444 C442 1.320 . S
C444 C445 1.405 . S
C444 H470 0.930 . S
C445 C440 1.479 . S
C445 C444 1.405 . S
C445 H471 0.931 . S
U446 O447 2.454 . S
U446 O448 2.458 . S
U446 C449 2.984 . S
U446 C450 2.847 . S
U446 C463 2.882 . S
U446 O464 2.441 . S
U446 O465 2.420 . S
U446 O466 2.455 . S
U446 O467 2.449 . S
O447 U446 2.454 . S
O447 C449 1.353 . S
O448 U446 2.458 . S
O448 C449 1.286 . S
C449 U446 2.984 . S
C449 O447 1.353 . S
C449 O448 1.286 . S
C449 C451 1.363 . S
C450 C440 1.465 . S
C450 U446 2.847 . S
C450 O464 1.249 . S
C450 O465 1.202 . S
C451 C449 1.363 . S
C451 C453 1.408 . S
C451 C456 1.342 . S
C452 C453 1.310 . S
C452 C455 1.461 . S
C452 H472 0.932 . S
C453 C451 1.408 . S
C453 C452 1.310 . S
C453 H473 0.930 . S
C454 C455 1.474 . S
C454 C456 1.285 . S
C454 H474 0.929 . S
C455 C452 1.461 . S
C455 C454 1.474 . S
C456 C451 1.342 . S
C456 C454 1.285 . S
C456 H475 0.930 . S
C457 C460 1.424 . S
C457 C462 1.245 . S
C457 C463 1.428 . S
C458 C461 1.260 . S
C458 C462 1.477 . S
C458 H476 0.932 . S
C459 C460 1.384 . S
C459 C461 1.479 . S
C459 H477 0.929 . S
C460 C457 1.424 . S
C460 C459 1.384 . S
C460 H478 0.928 . S
C461 C458 1.260 . S
C461 C459 1.479 . S
C462 C457 1.245 . S
C462 C458 1.477 . S
C462 H479 0.932 . S
C463 U446 2.882 . S
C463 C457 1.428 . S
C463 O466 1.301 . S
C463 O467 1.282 . S
O464 U446 2.441 . S
O464 C450 1.249 . S
O465 U446 2.420 . S
O465 C450 1.202 . S
O466 U446 2.455 . S
O466 C463 1.301 . S
O467 U446 2.449 . S
O467 C463 1.282 . S
H468 C441 0.931 . S
H469 C443 0.929 . S
H470 C444 0.930 . S
H471 C445 0.931 . S
H472 C452 0.932 . S
H473 C453 0.930 . S
H474 C454 0.929 . S
H475 C456 0.930 . S
H476 C458 0.932 . S
H477 C459 0.929 . S
H478 C460 0.928 . S
H479 C462 0.932 . S
C480 C481 1.264 . S
C480 C485 1.479 . S
C480 C490 1.465 . S
C481 C480 1.264 . S
C481 C483 1.339 . S
C481 H508 0.931 . S
C482 C483 1.395 . S
C482 C484 1.320 . S
C483 C481 1.339 . S
C483 C482 1.395 . S
C483 H509 0.929 . S
C484 C482 1.320 . S
C484 C485 1.405 . S
C484 H510 0.930 . S
C485 C480 1.479 . S
C485 C484 1.405 . S
C485 H511 0.931 . S
U486 O487 2.454 . S
U486 O488 2.458 . S
U486 C489 2.984 . S
U486 C490 2.847 . S
U486 C503 2.882 . S
U486 O504 2.441 . S
U486 O505 2.420 . S
U486 O506 2.455 . S
U486 O507 2.449 . S
O487 U486 2.454 . S
O487 C489 1.353 . S
O488 U486 2.458 . S
O488 C489 1.286 . S
C489 U486 2.984 . S
C489 O487 1.353 . S
C489 O488 1.286 . S
C489 C491 1.363 . S
C490 C480 1.465 . S
C490 U486 2.847 . S
C490 O504 1.249 . S
C490 O505 1.202 . S
C491 C489 1.363 . S
C491 C493 1.408 . S
C491 C496 1.342 . S
C492 C493 1.310 . S
C492 C495 1.494 . S
C492 H512 0.932 . S
C493 C491 1.408 . S
C493 C492 1.310 . S
C493 H513 0.930 . S
C494 C495 1.515 . S
C494 C496 1.285 . S
C494 H514 0.929 . S
C495 C492 1.494 . S
C495 C494 1.515 . S
C496 C491 1.342 . S
C496 C494 1.285 . S
C496 H515 0.930 . S
C497 C500 1.424 . S
C497 C502 1.245 . S
C497 C503 1.428 . S
C498 C501 1.260 . S
C498 C502 1.477 . S
C498 H516 0.932 . S
C499 C500 1.384 . S
C499 C501 1.479 . S
C499 H517 0.929 . S
C500 C497 1.424 . S
C500 C499 1.384 . S
C500 H518 0.928 . S
C501 C498 1.260 . S
C501 C499 1.479 . S
C502 C497 1.245 . S
C502 C498 1.477 . S
C502 H519 0.932 . S
C503 U486 2.882 . S
C503 C497 1.428 . S
C503 O506 1.301 . S
C503 O507 1.282 . S
O504 U486 2.441 . S
O504 C490 1.249 . S
O505 U486 2.420 . S
O505 C490 1.202 . S
O506 U486 2.455 . S
O506 C503 1.301 . S
O507 U486 2.449 . S
O507 C503 1.282 . S
H508 C481 0.931 . S
H509 C483 0.929 . S
H510 C484 0.930 . S
H511 C485 0.931 . S
H512 C492 0.932 . S
H513 C493 0.930 . S
H514 C494 0.929 . S
H515 C496 0.930 . S
H516 C498 0.932 . S
H517 C499 0.929 . S
H518 C500 0.928 . S
H519 C502 0.932 . S
C520 C521 1.264 . S
C520 C525 1.479 . S
C520 C530 1.465 . S
C521 C520 1.264 . S
C521 C523 1.339 . S
C521 H548 0.931 . S
C522 C523 1.395 . S
C522 C524 1.320 . S
C523 C521 1.339 . S
C523 C522 1.395 . S
C523 H549 0.929 . S
C524 C522 1.320 . S
C524 C525 1.405 . S
C524 H550 0.930 . S
C525 C520 1.479 . S
C525 C524 1.405 . S
C525 H551 0.931 . S
U526 O527 2.454 . S
U526 O528 2.458 . S
U526 C529 2.984 . S
U526 C530 2.847 . S
U526 C543 2.882 . S
U526 O544 2.441 . S
U526 O545 2.420 . S
U526 O546 2.455 . S
U526 O547 2.449 . S
O527 U526 2.454 . S
O527 C529 1.353 . S
O528 U526 2.458 . S
O528 C529 1.286 . S
C529 U526 2.984 . S
C529 O527 1.353 . S
C529 O528 1.286 . S
C529 C531 1.363 . S
C530 C520 1.465 . S
C530 U526 2.847 . S
C530 O544 1.249 . S
C530 O545 1.202 . S
C531 C529 1.363 . S
C531 C533 1.408 . S
C531 C536 1.342 . S
C532 C533 1.310 . S
C532 C535 1.461 . S
C532 H552 0.932 . S
C533 C531 1.408 . S
C533 C532 1.310 . S
C533 H553 0.930 . S
C534 C535 1.474 . S
C534 C536 1.285 . S
C534 H554 0.929 . S
C535 C532 1.461 . S
C535 C534 1.474 . S
C536 C531 1.342 . S
C536 C534 1.285 . S
C536 H555 0.930 . S
C537 C540 1.424 . S
C537 C542 1.245 . S
C537 C543 1.428 . S
C538 C541 1.260 . S
C538 C542 1.477 . S
C538 H556 0.932 . S
C539 C540 1.384 . S
C539 C541 1.479 . S
C539 H557 0.929 . S
C540 C537 1.424 . S
C540 C539 1.384 . S
C540 H558 0.928 . S
C541 C538 1.260 . S
C541 C539 1.479 . S
C542 C537 1.245 . S
C542 C538 1.477 . S
C542 H559 0.932 . S
C543 U526 2.882 . S
C543 C537 1.428 . S
C543 O546 1.301 . S
C543 O547 1.282 . S
O544 U526 2.441 . S
O544 C530 1.249 . S
O545 U526 2.420 . S
O545 C530 1.202 . S
O546 U526 2.455 . S
O546 C543 1.301 . S
O547 U526 2.449 . S
O547 C543 1.282 . S
H548 C521 0.931 . S
H549 C523 0.929 . S
H550 C524 0.930 . S
H551 C525 0.931 . S
H552 C532 0.932 . S
H553 C533 0.930 . S
H554 C534 0.929 . S
H555 C536 0.930 . S
H556 C538 0.932 . S
H557 C539 0.929 . S
H558 C540 0.928 . S
H559 C542 0.932 . S
C560 C561 1.264 . S
C560 C565 1.479 . S
C560 C570 1.465 . S
C561 C560 1.264 . S
C561 C563 1.339 . S
C561 H588 0.931 . S
C562 C563 1.395 . S
C562 C564 1.320 . S
C563 C561 1.339 . S
C563 C562 1.395 . S
C563 H589 0.929 . S
C564 C562 1.320 . S
C564 C565 1.405 . S
C564 H590 0.930 . S
C565 C560 1.479 . S
C565 C564 1.405 . S
C565 H591 0.931 . S
U566 O567 2.454 . S
U566 O568 2.458 . S
U566 C569 2.984 . S
U566 C570 2.847 . S
U566 C583 2.882 . S
U566 O584 2.441 . S
U566 O585 2.420 . S
U566 O586 2.455 . S
U566 O587 2.449 . S
O567 U566 2.454 . S
O567 C569 1.353 . S
O568 U566 2.458 . S
O568 C569 1.286 . S
C569 U566 2.984 . S
C569 O567 1.353 . S
C569 O568 1.286 . S
C569 C571 1.352 1_545 S
C570 C560 1.465 . S
C570 U566 2.847 . S
C570 O584 1.249 . S
C570 O585 1.202 . S
C571 C569 1.352 1_565 S
C571 C573 1.412 . S
C571 C576 1.348 . S
C572 C573 1.310 . S
C572 C575 1.461 . S
C572 H592 0.932 . S
C573 C571 1.412 . S
C573 C572 1.310 . S
C573 H593 0.973 . S
C574 C575 1.474 . S
C574 C576 1.285 . S
C574 H594 0.929 . S
C575 C572 1.461 . S
C575 C574 1.474 . S
C576 C571 1.348 . S
C576 C574 1.285 . S
C576 H595 0.930 . S
C577 C580 1.424 . S
C577 C582 1.245 . S
C577 C583 1.428 . S
C578 C581 1.260 . S
C578 C582 1.477 . S
C578 H596 0.932 . S
C579 C580 1.384 . S
C579 C581 1.479 . S
C579 H597 0.929 . S
C580 C577 1.424 . S
C580 C579 1.384 . S
C580 H598 0.928 . S
C581 C578 1.260 . S
C581 C579 1.479 . S
C582 C577 1.245 . S
C582 C578 1.477 . S
C582 H599 0.932 . S
C583 U566 2.882 . S
C583 C577 1.428 . S
C583 O586 1.301 . S
C583 O587 1.282 . S
O584 U566 2.441 . S
O584 C570 1.249 . S
O585 U566 2.420 . S
O585 C570 1.202 . S
O586 U566 2.455 . S
O586 C583 1.301 . S
O587 U566 2.449 . S
O587 C583 1.282 . S
H588 C561 0.931 . S
H589 C563 0.929 . S
H590 C564 0.930 . S
H591 C565 0.931 . S
H592 C572 0.932 . S
H593 C573 0.973 . S
H594 C574 0.929 . S
H595 C576 0.930 . S
H596 C578 0.932 . S
H597 C579 0.929 . S
H598 C580 0.928 . S
H599 C582 0.932 . S
C600 C601 1.264 . S
C600 C605 1.479 . S
C600 C610 1.465 . S
C601 C600 1.264 . S
C601 C603 1.339 . S
C601 H628 0.931 . S
C602 C603 1.395 . S
C602 C604 1.320 . S
C603 C601 1.339 . S
C603 C602 1.395 . S
C603 H629 0.929 . S
C604 C602 1.320 . S
C604 C605 1.405 . S
C604 H630 0.930 . S
C605 C600 1.479 . S
C605 C604 1.405 . S
C605 H631 0.931 . S
U606 O607 2.454 . S
U606 O608 2.458 . S
U606 C609 2.984 . S
U606 C610 2.847 . S
U606 C623 2.882 . S
U606 O624 2.441 . S
U606 O625 2.420 . S
U606 O626 2.455 . S
U606 O627 2.449 . S
O607 U606 2.454 . S
O607 C609 1.353 . S
O608 U606 2.458 . S
O608 C609 1.286 . S
C609 U606 2.984 . S
C609 O607 1.353 . S
C609 O608 1.286 . S
C609 C611 1.363 . S
C610 C600 1.465 . S
C610 U606 2.847 . S
C610 O624 1.249 . S
C610 O625 1.202 . S
C611 C609 1.363 . S
C611 C613 1.408 . S
C611 C616 1.342 . S
C612 C613 1.310 . S
C612 C615 1.461 . S
C612 H632 0.932 . S
C613 C611 1.408 . S
C613 C612 1.310 . S
C613 H633 0.930 . S
C614 C615 1.474 . S
C614 C616 1.285 . S
C614 H634 0.929 . S
C615 C612 1.461 . S
C615 C614 1.474 . S
C616 C611 1.342 . S
C616 C614 1.285 . S
C616 H635 0.930 . S
C617 C620 1.424 . S
C617 C622 1.245 . S
C617 C623 1.428 . S
C618 C621 1.260 . S
C618 C622 1.477 . S
C618 H636 0.932 . S
C619 C620 1.384 . S
C619 C621 1.479 . S
C619 H637 0.929 . S
C620 C617 1.424 . S
C620 C619 1.384 . S
C620 H638 0.928 . S
C621 C618 1.260 . S
C621 C619 1.479 . S
C622 C617 1.245 . S
C622 C618 1.477 . S
C622 H639 0.932 . S
C623 U606 2.882 . S
C623 C617 1.428 . S
C623 O626 1.301 . S
C623 O627 1.282 . S
O624 U606 2.441 . S
O624 C610 1.249 . S
O625 U606 2.420 . S
O625 C610 1.202 . S
O626 U606 2.455 . S
O626 C623 1.301 . S
O627 U606 2.449 . S
O627 C623 1.282 . S
H628 C601 0.931 . S
H629 C603 0.929 . S
H630 C604 0.930 . S
H631 C605 0.931 . S
H632 C612 0.932 . S
H633 C613 0.930 . S
H634 C614 0.929 . S
H635 C616 0.930 . S
H636 C618 0.932 . S
H637 C619 0.929 . S
H638 C620 0.928 . S
H639 C622 0.932 . S
C640 C641 1.264 . S
C640 C645 1.479 . S
C640 C650 1.465 . S
C641 C640 1.264 . S
C641 C643 1.339 . S
C641 H668 0.931 . S
C642 C643 1.395 . S
C642 C644 1.320 . S
C643 C641 1.339 . S
C643 C642 1.395 . S
C643 H669 0.929 . S
C644 C642 1.320 . S
C644 C645 1.405 . S
C644 H670 0.930 . S
C645 C640 1.479 . S
C645 C644 1.405 . S
C645 H671 0.931 . S
U646 O647 2.454 . S
U646 O648 2.458 . S
U646 C649 2.984 . S
U646 C650 2.847 . S
U646 C663 2.882 . S
U646 O664 2.441 . S
U646 O665 2.420 . S
U646 O666 2.455 . S
U646 O667 2.449 . S
O647 U646 2.454 . S
O647 C649 1.353 . S
O648 U646 2.458 . S
O648 C649 1.286 . S
C649 U646 2.984 . S
C649 O647 1.353 . S
C649 O648 1.286 . S
C649 C651 1.363 . S
C650 C640 1.465 . S
C650 U646 2.847 . S
C650 O664 1.249 . S
C650 O665 1.202 . S
C651 C649 1.363 . S
C651 C653 1.408 . S
C651 C656 1.342 . S
C652 C653 1.310 . S
C652 C655 1.461 1_554 S
C652 H672 0.945 . S
C653 C651 1.408 . S
C653 C652 1.310 . S
C653 H673 0.930 . S
C654 C655 1.474 1_554 S
C654 C656 1.285 . S
C654 H674 0.942 . S
C655 C652 1.461 1_556 S
C655 C654 1.474 1_556 S
C656 C651 1.342 . S
C656 C654 1.285 . S
C656 H675 0.930 . S
C657 C660 1.424 . S
C657 C662 1.245 . S
C657 C663 1.428 . S
C658 C661 1.260 . S
C658 C662 1.477 . S
C658 H676 0.932 . S
C659 C660 1.384 . S
C659 C661 1.479 . S
C659 H677 0.929 . S
C660 C657 1.424 . S
C660 C659 1.384 . S
C660 H678 0.928 . S
C661 C658 1.260 . S
C661 C659 1.479 . S
C662 C657 1.245 . S
C662 C658 1.477 . S
C662 H679 0.932 . S
C663 U646 2.882 . S
C663 C657 1.428 . S
C663 O666 1.301 . S
C663 O667 1.282 . S
O664 U646 2.441 . S
O664 C650 1.249 . S
O665 U646 2.420 . S
O665 C650 1.202 . S
O666 U646 2.455 . S
O666 C663 1.301 . S
O667 U646 2.449 . S
O667 C663 1.282 . S
H668 C641 0.931 . S
H669 C643 0.929 . S
H670 C644 0.930 . S
H671 C645 0.931 . S
H672 C652 0.945 . S
H673 C653 0.930 . S
H674 C654 0.942 . S
H675 C656 0.930 . S
H676 C658 0.932 . S
H677 C659 0.929 . S
H678 C660 0.928 . S
H679 C662 0.932 . S
C680 C681 1.264 . S
C680 C685 1.479 . S
C680 C690 1.465 . S
C681 C680 1.264 . S
C681 C683 1.339 . S
C681 H708 0.931 . S
C682 C683 1.395 . S
C682 C684 1.320 . S
C683 C681 1.339 . S
C683 C682 1.395 . S
C683 H709 0.929 . S
C684 C682 1.320 . S
C684 C685 1.405 . S
C684 H710 0.930 . S
C685 C680 1.479 . S
C685 C684 1.405 . S
C685 H711 0.931 . S
U686 O687 2.454 . S
U686 O688 2.458 . S
U686 C689 2.984 . S
U686 C690 2.847 . S
U686 C703 2.882 . S
U686 O704 2.441 . S
U686 O705 2.420 . S
U686 O706 2.455 . S
U686 O707 2.449 . S
O687 U686 2.454 . S
O687 C689 1.353 . S
O688 U686 2.458 . S
O688 C689 1.286 . S
C689 U686 2.984 . S
C689 O687 1.353 . S
C689 O688 1.286 . S
C689 C691 1.363 . S
C690 C680 1.465 . S
C690 U686 2.847 . S
C690 O704 1.249 . S
C690 O705 1.202 . S
C691 C689 1.363 . S
C691 C693 1.408 . S
C691 C696 1.342 . S
C692 C693 1.310 . S
C692 C695 1.461 1_556 S
C692 H712 0.944 . S
C693 C691 1.408 . S
C693 C692 1.310 . S
C693 H713 0.930 . S
C694 C695 1.474 1_556 S
C694 C696 1.285 . S
C694 H714 0.941 . S
C695 C692 1.461 1_554 S
C695 C694 1.474 1_554 S
C696 C691 1.342 . S
C696 C694 1.285 . S
C696 H715 0.930 . S
C697 C700 1.424 . S
C697 C702 1.245 . S
C697 C703 1.428 . S
C698 C701 1.260 . S
C698 C702 1.477 . S
C698 H716 0.932 . S
C699 C700 1.384 . S
C699 C701 1.479 . S
C699 H717 0.929 . S
C700 C697 1.424 . S
C700 C699 1.384 . S
C700 H718 0.928 . S
C701 C698 1.260 . S
C701 C699 1.479 . S
C702 C697 1.245 . S
C702 C698 1.477 . S
C702 H719 0.932 . S
C703 U686 2.882 . S
C703 C697 1.428 . S
C703 O706 1.301 . S
C703 O707 1.282 . S
O704 U686 2.441 . S
O704 C690 1.249 . S
O705 U686 2.420 . S
O705 C690 1.202 . S
O706 U686 2.455 . S
O706 C703 1.301 . S
O707 U686 2.449 . S
O707 C703 1.282 . S
H708 C681 0.931 . S
H709 C683 0.929 . S
H710 C684 0.930 . S
H711 C685 0.931 . S
H712 C692 0.944 . S
H713 C693 0.930 . S
H714 C694 0.941 . S
H715 C696 0.930 . S
H716 C698 0.932 . S
H717 C699 0.929 . S
H718 C700 0.928 . S
H719 C702 0.932 . S
C720 C721 1.264 . S
C720 C725 1.479 . S
C720 C730 1.465 . S
C721 C720 1.264 . S
C721 C723 1.339 . S
C721 H748 0.931 . S
C722 C723 1.395 . S
C722 C724 1.320 . S
C723 C721 1.339 . S
C723 C722 1.395 . S
C723 H749 0.929 . S
C724 C722 1.320 . S
C724 C725 1.405 . S
C724 H750 0.930 . S
C725 C720 1.479 . S
C725 C724 1.405 . S
C725 H751 0.931 . S
U726 O727 2.454 . S
U726 O728 2.458 . S
U726 C729 2.984 . S
U726 C730 2.847 . S
U726 C743 2.882 . S
U726 O744 2.441 . S
U726 O745 2.420 . S
U726 O746 2.455 . S
U726 O747 2.449 . S
O727 U726 2.454 . S
O727 C729 1.353 . S
O728 U726 2.458 . S
O728 C729 1.286 . S
C729 U726 2.984 . S
C729 O727 1.353 . S
C729 O728 1.286 . S
C729 C731 1.363 . S
C730 C720 1.465 . S
C730 U726 2.847 . S
C730 O744 1.249 . S
C730 O745 1.202 . S
C731 C729 1.363 . S
C731 C733 1.408 . S
C731 C736 1.342 . S
C732 C733 1.310 . S
C732 C735 1.461 . S
C732 H752 0.932 . S
C733 C731 1.408 . S
C733 C732 1.310 . S
C733 H753 0.930 . S
C734 C735 1.474 . S
C734 C736 1.285 . S
C734 H754 0.929 . S
C735 C732 1.461 . S
C735 C734 1.474 . S
C736 C731 1.342 . S
C736 C734 1.285 . S
C736 H755 0.930 . S
C737 C740 1.424 . S
C737 C742 1.245 . S
C737 C743 1.428 . S
C738 C741 1.260 . S
C738 C742 1.477 . S
C738 H756 0.932 . S
C739 C740 1.384 . S
C739 C741 1.479 . S
C739 H757 0.929 . S
C740 C737 1.424 . S
C740 C739 1.384 . S
C740 H758 0.928 . S
C741 C738 1.260 . S
C741 C739 1.479 . S
C742 C737 1.245 . S
C742 C738 1.477 . S
C742 H759 0.932 . S
C743 U726 2.882 . S
C743 C737 1.428 . S
C743 O746 1.301 . S
C743 O747 1.282 . S
O744 U726 2.441 . S
O744 C730 1.249 . S
O745 U726 2.420 . S
O745 C730 1.202 . S
O746 U726 2.455 . S
O746 C743 1.301 . S
O747 U726 2.449 . S
O747 C743 1.282 . S
H748 C721 0.931 . S
H749 C723 0.929 . S
H750 C724 0.930 . S
H751 C725 0.931 . S
H752 C732 0.932 . S
H753 C733 0.930 . S
H754 C734 0.929 . S
H755 C736 0.930 . S
H756 C738 0.932 . S
H757 C739 0.929 . S
H758 C740 0.928 . S
H759 C742 0.932 . S
C760 C761 1.264 . S
C760 C765 1.479 . S
C760 C770 1.465 . S
C761 C760 1.264 . S
C761 C763 1.339 . S
C761 H788 0.931 . S
C762 C763 1.395 . S
C762 C764 1.320 . S
C763 C761 1.339 . S
C763 C762 1.395 . S
C763 H789 0.929 . S
C764 C762 1.320 . S
C764 C765 1.405 . S
C764 H790 0.930 . S
C765 C760 1.479 . S
C765 C764 1.405 . S
C765 H791 0.931 . S
U766 O767 2.454 . S
U766 O768 2.458 . S
U766 C769 2.984 . S
U766 C770 2.847 . S
U766 C783 2.882 . S
U766 O784 2.441 . S
U766 O785 2.420 . S
U766 O786 2.455 . S
U766 O787 2.449 . S
O767 U766 2.454 . S
O767 C769 1.353 . S
O768 U766 2.458 . S
O768 C769 1.286 . S
C769 U766 2.984 . S
C769 O767 1.353 . S
C769 O768 1.286 . S
C769 C771 1.363 . S
C770 C760 1.465 . S
C770 U766 2.847 . S
C770 O784 1.249 . S
C770 O785 1.202 . S
C771 C769 1.363 . S
C771 C773 1.408 . S
C771 C776 1.342 . S
C772 C773 1.310 . S
C772 C775 1.461 . S
C772 H792 0.932 . S
C773 C771 1.408 . S
C773 C772 1.310 . S
C773 H793 0.930 . S
C774 C775 1.474 . S
C774 C776 1.285 . S
C774 H794 0.929 . S
C775 C772 1.461 . S
C775 C774 1.474 . S
C776 C771 1.342 . S
C776 C774 1.285 . S
C776 H795 0.930 . S
C777 C780 1.424 . S
C777 C782 1.245 . S
C777 C783 1.428 . S
C778 C781 1.260 . S
C778 C782 1.477 . S
C778 H796 0.932 . S
C779 C780 1.384 . S
C779 C781 1.479 . S
C779 H797 0.929 . S
C780 C777 1.424 . S
C780 C779 1.384 . S
C780 H798 0.928 . S
C781 C778 1.260 . S
C781 C779 1.479 . S
C782 C777 1.245 . S
C782 C778 1.477 . S
C782 H799 0.932 . S
C783 U766 2.882 . S
C783 C777 1.428 . S
C783 O786 1.301 . S
C783 O787 1.282 . S
O784 U766 2.441 . S
O784 C770 1.249 . S
O785 U766 2.420 . S
O785 C770 1.202 . S
O786 U766 2.455 . S
O786 C783 1.301 . S
O787 U766 2.449 . S
O787 C783 1.282 . S
H788 C761 0.931 . S
H789 C763 0.929 . S
H790 C764 0.930 . S
H791 C765 0.931 . S
H792 C772 0.932 . S
H793 C773 0.930 . S
H794 C774 0.929 . S
H795 C776 0.930 . S
H796 C778 0.932 . S
H797 C779 0.929 . S
H798 C780 0.928 . S
H799 C782 0.932 . S
C800 C801 1.264 . S
C800 C805 1.479 . S
C800 C810 1.465 . S
C801 C800 1.264 . S
C801 C803 1.339 . S
C801 H828 0.931 . S
C802 C803 1.395 . S
C802 C804 1.320 . S
C803 C801 1.339 . S
C803 C802 1.395 . S
C803 H829 0.929 . S
C804 C802 1.320 . S
C804 C805 1.405 . S
C804 H830 0.930 . S
C805 C800 1.479 . S
C805 C804 1.405 . S
C805 H831 0.931 . S
U806 O807 2.454 . S
U806 O808 2.458 . S
U806 C809 2.984 . S
U806 C810 2.847 . S
U806 C823 2.882 . S
U806 O824 2.441 . S
U806 O825 2.420 . S
U806 O826 2.455 . S
U806 O827 2.449 . S
O807 U806 2.454 . S
O807 C809 1.353 . S
O808 U806 2.458 . S
O808 C809 1.286 . S
C809 U806 2.984 . S
C809 O807 1.353 . S
C809 O808 1.286 . S
C809 C811 1.363 . S
C810 C800 1.465 . S
C810 U806 2.847 . S
C810 O824 1.249 . S
C810 O825 1.202 . S
C811 C809 1.363 . S
C811 C813 1.408 . S
C811 C816 1.342 . S
C812 C813 1.310 . S
C812 C815 1.461 . S
C812 H832 0.932 . S
C813 C811 1.408 . S
C813 C812 1.310 . S
C813 H833 0.930 . S
C814 C815 1.474 . S
C814 C816 1.285 . S
C814 H834 0.929 . S
C815 C812 1.461 . S
C815 C814 1.474 . S
C816 C811 1.342 . S
C816 C814 1.285 . S
C816 H835 0.930 . S
C817 C820 1.424 . S
C817 C822 1.245 . S
C817 C823 1.428 . S
C818 C821 1.260 . S
C818 C822 1.477 . S
C818 H836 0.932 . S
C819 C820 1.384 . S
C819 C821 1.479 . S
C819 H837 0.929 . S
C820 C817 1.424 . S
C820 C819 1.384 . S
C820 H838 0.928 . S
C821 C818 1.260 . S
C821 C819 1.479 . S
C822 C817 1.245 . S
C822 C818 1.477 . S
C822 H839 0.932 . S
C823 U806 2.882 . S
C823 C817 1.428 . S
C823 O826 1.301 . S
C823 O827 1.282 . S
O824 U806 2.441 . S
O824 C810 1.249 . S
O825 U806 2.420 . S
O825 C810 1.202 . S
O826 U806 2.455 . S
O826 C823 1.301 . S
O827 U806 2.449 . S
O827 C823 1.282 . S
H828 C801 0.931 . S
H829 C803 0.929 . S
H830 C804 0.930 . S
H831 C805 0.931 . S
H832 C812 0.932 . S
H833 C813 0.930 . S
H834 C814 0.929 . S
H835 C816 0.930 . S
H836 C818 0.932 . S
H837 C819 0.929 . S
H838 C820 0.928 . S
H839 C822 0.932 . S
C840 C841 1.264 . S
C840 C845 1.479 . S
C840 C850 1.465 . S
C841 C840 1.264 . S
C841 C843 1.339 . S
C841 H868 0.931 . S
C842 C843 1.395 . S
C842 C844 1.320 . S
C843 C841 1.339 . S
C843 C842 1.395 . S
C843 H869 0.929 . S
C844 C842 1.320 . S
C844 C845 1.405 . S
C844 H870 0.930 . S
C845 C840 1.479 . S
C845 C844 1.405 . S
C845 H871 0.931 . S
U846 O847 2.454 . S
U846 O848 2.458 . S
U846 C849 2.984 . S
U846 C850 2.847 . S
U846 C863 2.882 . S
U846 O864 2.441 . S
U846 O865 2.420 . S
U846 O866 2.455 . S
U846 O867 2.449 . S
O847 U846 2.454 . S
O847 C849 1.353 . S
O848 U846 2.458 . S
O848 C849 1.286 . S
C849 U846 2.984 . S
C849 O847 1.353 . S
C849 O848 1.286 . S
C849 C851 1.363 . S
C850 C840 1.465 . S
C850 U846 2.847 . S
C850 O864 1.249 . S
C850 O865 1.202 . S
C851 C849 1.363 . S
C851 C853 1.408 . S
C851 C856 1.342 . S
C852 C853 1.310 . S
C852 C855 1.461 . S
C852 H872 0.932 . S
C853 C851 1.408 . S
C853 C852 1.310 . S
C853 H873 0.930 . S
C854 C855 1.474 . S
C854 C856 1.285 . S
C854 H874 0.929 . S
C855 C852 1.461 . S
C855 C854 1.474 . S
C856 C851 1.342 . S
C856 C854 1.285 . S
C856 H875 0.930 . S
C857 C860 1.424 . S
C857 C862 1.245 . S
C857 C863 1.428 . S
C858 C861 1.260 . S
C858 C862 1.477 . S
C858 H876 0.932 . S
C859 C860 1.384 . S
C859 C861 1.479 . S
C859 H877 0.929 . S
C860 C857 1.424 . S
C860 C859 1.384 . S
C860 H878 0.928 . S
C861 C858 1.260 . S
C861 C859 1.479 . S
C862 C857 1.245 . S
C862 C858 1.477 . S
C862 H879 0.932 . S
C863 U846 2.882 . S
C863 C857 1.428 . S
C863 O866 1.301 . S
C863 O867 1.282 . S
O864 U846 2.441 . S
O864 C850 1.249 . S
O865 U846 2.420 . S
O865 C850 1.202 . S
O866 U846 2.455 . S
O866 C863 1.301 . S
O867 U846 2.449 . S
O867 C863 1.282 . S
H868 C841 0.931 . S
H869 C843 0.929 . S
H870 C844 0.930 . S
H871 C845 0.931 . S
H872 C852 0.932 . S
H873 C853 0.930 . S
H874 C854 0.929 . S
H875 C856 0.930 . S
H876 C858 0.932 . S
H877 C859 0.929 . S
H878 C860 0.928 . S
H879 C862 0.932 . S
C880 C881 1.264 . S
C880 C885 1.479 . S
C880 C890 1.465 . S
C881 C880 1.264 . S
C881 C883 1.339 . S
C881 H908 0.931 . S
C882 C883 1.395 . S
C882 C884 1.320 . S
C883 C881 1.339 . S
C883 C882 1.395 . S
C883 H909 0.929 . S
C884 C882 1.320 . S
C884 C885 1.405 . S
C884 H910 0.930 . S
C885 C880 1.479 . S
C885 C884 1.405 . S
C885 H911 0.931 . S
U886 O887 2.454 . S
U886 O888 2.458 . S
U886 C889 2.984 . S
U886 C890 2.847 . S
U886 C903 2.882 . S
U886 O904 2.441 . S
U886 O905 2.420 . S
U886 O906 2.455 . S
U886 O907 2.449 . S
O887 U886 2.454 . S
O887 C889 1.353 . S
O888 U886 2.458 . S
O888 C889 1.286 . S
C889 U886 2.984 . S
C889 O887 1.353 . S
C889 O888 1.286 . S
C889 C891 1.363 . S
C890 C880 1.465 . S
C890 U886 2.847 . S
C890 O904 1.249 . S
C890 O905 1.202 . S
C891 C889 1.363 . S
C891 C893 1.408 . S
C891 C896 1.342 . S
C892 C893 1.310 . S
C892 C895 1.461 . S
C892 H912 0.932 . S
C893 C891 1.408 . S
C893 C892 1.310 . S
C893 H913 0.930 . S
C894 C895 1.474 . S
C894 C896 1.285 . S
C894 H914 0.929 . S
C895 C892 1.461 . S
C895 C894 1.474 . S
C896 C891 1.342 . S
C896 C894 1.285 . S
C896 H915 0.930 . S
C897 C900 1.424 . S
C897 C902 1.245 . S
C897 C903 1.428 . S
C898 C901 1.260 . S
C898 C902 1.477 . S
C898 H916 0.932 . S
C899 C900 1.384 . S
C899 C901 1.479 . S
C899 H917 0.929 . S
C900 C897 1.424 . S
C900 C899 1.384 . S
C900 H918 0.928 . S
C901 C898 1.260 . S
C901 C899 1.479 . S
C902 C897 1.245 . S
C902 C898 1.477 . S
C902 H919 0.932 . S
C903 U886 2.882 . S
C903 C897 1.428 . S
C903 O906 1.301 . S
C903 O907 1.282 . S
O904 U886 2.441 . S
O904 C890 1.249 . S
O905 U886 2.420 . S
O905 C890 1.202 . S
O906 U886 2.455 . S
O906 C903 1.301 . S
O907 U886 2.449 . S
O907 C903 1.282 . S
H908 C881 0.931 . S
H909 C883 0.929 . S
H910 C884 0.930 . S
H911 C885 0.931 . S
H912 C892 0.932 . S
H913 C893 0.930 . S
H914 C894 0.929 . S
H915 C896 0.930 . S
H916 C898 0.932 . S
H917 C899 0.929 . S
H918 C900 0.928 . S
H919 C902 0.932 . S
C920 C921 1.264 . S
C920 C925 1.479 . S
C920 C930 1.465 . S
C921 C920 1.264 . S
C921 C923 1.339 . S
C921 H948 0.931 . S
C922 C923 1.395 . S
C922 C924 1.320 . S
C923 C921 1.339 . S
C923 C922 1.395 . S
C923 H949 0.929 . S
C924 C922 1.320 . S
C924 C925 1.405 . S
C924 H950 0.930 . S
C925 C920 1.479 . S
C925 C924 1.405 . S
C925 H951 0.931 . S
U926 O927 2.454 . S
U926 O928 2.458 . S
U926 C929 2.984 . S
U926 C930 2.847 . S
U926 C943 2.882 . S
U926 O944 2.441 . S
U926 O945 2.420 . S
U926 O946 2.455 . S
U926 O947 2.449 . S
O927 U926 2.454 . S
O927 C929 1.353 . S
O928 U926 2.458 . S
O928 C929 1.286 . S
C929 U926 2.984 . S
C929 O927 1.353 . S
C929 O928 1.286 . S
C929 C931 1.363 . S
C930 C920 1.465 . S
C930 U926 2.847 . S
C930 O944 1.249 . S
C930 O945 1.202 . S
C931 C929 1.363 . S
C931 C933 1.408 . S
C931 C936 1.342 . S
C932 C933 1.310 . S
C932 C935 1.461 . S
C932 H952 0.932 . S
C933 C931 1.408 . S
C933 C932 1.310 . S
C933 H953 0.930 . S
C934 C935 1.474 . S
C934 C936 1.285 . S
C934 H954 0.929 . S
C935 C932 1.461 . S
C935 C934 1.474 . S
C936 C931 1.342 . S
C936 C934 1.285 . S
C936 H955 0.930 . S
C937 C940 1.424 . S
C937 C942 1.245 . S
C937 C943 1.428 . S
C938 C941 1.260 . S
C938 C942 1.477 . S
C938 H956 0.932 . S
C939 C940 1.384 . S
C939 C941 1.479 . S
C939 H957 0.929 . S
C940 C937 1.424 . S
C940 C939 1.384 . S
C940 H958 0.928 . S
C941 C938 1.260 . S
C941 C939 1.479 . S
C942 C937 1.245 . S
C942 C938 1.477 . S
C942 H959 0.932 . S
C943 U926 2.882 . S
C943 C937 1.428 . S
C943 O946 1.301 . S
C943 O947 1.282 . S
O944 U926 2.441 . S
O944 C930 1.249 . S
O945 U926 2.420 . S
O945 C930 1.202 . S
O946 U926 2.455 . S
O946 C943 1.301 . S
O947 U926 2.449 . S
O947 C943 1.282 . S
H948 C921 0.931 . S
H949 C923 0.929 . S
H950 C924 0.930 . S
H951 C925 0.931 . S
H952 C932 0.932 . S
H953 C933 0.930 . S
H954 C934 0.929 . S
H955 C936 0.930 . S
H956 C938 0.932 . S
H957 C939 0.929 . S
H958 C940 0.928 . S
H959 C942 0.932 . S
C960 C961 1.264 . S
C960 C965 1.479 . S
C960 C970 1.465 . S
C961 C960 1.264 . S
C961 C963 1.339 . S
C961 H988 0.931 . S
C962 C963 1.395 . S
C962 C964 1.320 . S
C963 C961 1.339 . S
C963 C962 1.395 . S
C963 H989 0.929 . S
C964 C962 1.320 . S
C964 C965 1.405 . S
C964 H990 0.930 . S
C965 C960 1.479 . S
C965 C964 1.405 . S
C965 H991 0.931 . S
U966 O967 2.454 . S
U966 O968 2.458 . S
U966 C969 2.984 . S
U966 C970 2.847 . S
U966 C983 2.882 . S
U966 O984 2.441 . S
U966 O985 2.420 . S
U966 O986 2.455 . S
U966 O987 2.449 . S
O967 U966 2.454 . S
O967 C969 1.353 . S
O968 U966 2.458 . S
O968 C969 1.286 . S
C969 U966 2.984 . S
C969 O967 1.353 . S
C969 O968 1.286 . S
C969 C971 1.363 . S
C970 C960 1.465 . S
C970 U966 2.847 . S
C970 O984 1.249 . S
C970 O985 1.202 . S
C971 C969 1.363 . S
C971 C973 1.408 . S
C971 C976 1.342 . S
C972 C973 1.310 . S
C972 C975 1.461 1_655 S
C972 H992 0.906 1_655 S
C973 C971 1.408 . S
C973 C972 1.310 . S
C973 H993 0.930 . S
C974 C975 1.474 1_655 S
C974 C976 1.285 . S
C974 H994 0.929 1_655 S
C975 C972 1.461 1_455 S
C975 C974 1.474 1_455 S
C976 C971 1.342 . S
C976 C974 1.285 . S
C976 H995 0.930 . S
C977 C980 1.424 . S
C977 C982 1.245 . S
C977 C983 1.428 . S
C978 C981 1.260 . S
C978 C982 1.477 . S
C978 H996 0.932 . S
C979 C980 1.384 . S
C979 C981 1.479 . S
C979 H997 0.929 . S
C980 C977 1.424 . S
C980 C979 1.384 . S
C980 H998 0.928 . S
C981 C978 1.260 . S
C981 C979 1.479 . S
C982 C977 1.245 . S
C982 C978 1.477 . S
C982 H999 0.932 . S
C983 U966 2.882 . S
C983 C977 1.428 . S
C983 O986 1.301 . S
C983 O987 1.282 . S
O984 U966 2.441 . S
O984 C970 1.249 . S
O985 U966 2.420 . S
O985 C970 1.202 . S
O986 U966 2.455 . S
O986 C983 1.301 . S
O987 U966 2.449 . S
O987 C983 1.282 . S
H988 C961 0.931 . S
H989 C963 0.929 . S
H990 C964 0.930 . S
H991 C965 0.931 . S
H992 C972 0.906 1_455 S
H993 C973 0.930 . S
H994 C974 0.929 1_455 S
H995 C976 0.930 . S
H996 C978 0.932 . S
H997 C979 0.929 . S
H998 C980 0.928 . S
H999 C982 0.932 . S
C1000 C1001 1.264 . S
C1000 C1005 1.479 . S
C1000 C1010 1.465 . S
C1001 C1000 1.264 . S
C1001 C1003 1.339 . S
C1001 H1028 0.931 . S
C1002 C1003 1.395 . S
C1002 C1004 1.320 . S
C1003 C1001 1.339 . S
C1003 C1002 1.395 . S
C1003 H1029 0.929 . S
C1004 C1002 1.320 . S
C1004 C1005 1.405 . S
C1004 H1030 0.930 . S
C1005 C1000 1.479 . S
C1005 C1004 1.405 . S
C1005 H1031 0.931 . S
U1006 O1007 2.454 . S
U1006 O1008 2.458 . S
U1006 C1009 2.984 . S
U1006 C1010 2.847 . S
U1006 C1023 2.882 . S
U1006 O1024 2.441 . S
U1006 O1025 2.420 . S
U1006 O1026 2.455 . S
U1006 O1027 2.449 . S
O1007 U1006 2.454 . S
O1007 C1009 1.353 . S
O1008 U1006 2.458 . S
O1008 C1009 1.286 . S
C1009 U1006 2.984 . S
C1009 O1007 1.353 . S
C1009 O1008 1.286 . S
C1009 C1011 1.363 . S
C1010 C1000 1.465 . S
C1010 U1006 2.847 . S
C1010 O1024 1.249 . S
C1010 O1025 1.202 . S
C1011 C1009 1.363 . S
C1011 C1013 1.408 . S
C1011 C1016 1.342 . S
C1012 C1013 1.310 . S
C1012 C1015 1.461 . S
C1012 H1032 0.932 . S
C1013 C1011 1.408 . S
C1013 C1012 1.310 . S
C1013 H1033 0.930 . S
C1014 C1015 1.474 . S
C1014 C1016 1.285 . S
C1014 H1034 0.929 . S
C1015 C1012 1.461 . S
C1015 C1014 1.474 . S
C1016 C1011 1.342 . S
C1016 C1014 1.285 . S
C1016 H1035 0.930 . S
C1017 C1020 1.424 . S
C1017 C1022 1.245 . S
C1017 C1023 1.428 . S
C1018 C1021 1.260 . S
C1018 C1022 1.477 . S
C1018 H1036 0.932 . S
C1019 C1020 1.384 . S
C1019 C1021 1.479 . S
C1019 H1037 0.929 . S
C1020 C1017 1.424 . S
C1020 C1019 1.384 . S
C1020 H1038 0.928 . S
C1021 C1018 1.260 . S
C1021 C1019 1.479 . S
C1022 C1017 1.245 . S
C1022 C1018 1.477 . S
C1022 H1039 0.932 . S
C1023 U1006 2.882 . S
C1023 C1017 1.428 . S
C1023 O1026 1.301 . S
C1023 O1027 1.282 . S
O1024 U1006 2.441 . S
O1024 C1010 1.249 . S
O1025 U1006 2.420 . S
O1025 C1010 1.202 . S
O1026 U1006 2.455 . S
O1026 C1023 1.301 . S
O1027 U1006 2.449 . S
O1027 C1023 1.282 . S
H1028 C1001 0.931 . S
H1029 C1003 0.929 . S
H1030 C1004 0.930 . S
H1031 C1005 0.931 . S
H1032 C1012 0.932 . S
H1033 C1013 0.930 . S
H1034 C1014 0.929 . S
H1035 C1016 0.930 . S
H1036 C1018 0.932 . S
H1037 C1019 0.929 . S
H1038 C1020 0.928 . S
H1039 C1022 0.932 . S
C1040 C1041 1.264 . S
C1040 C1045 1.479 . S
C1040 C1050 1.465 . S
C1041 C1040 1.264 . S
C1041 C1043 1.339 . S
C1041 H1068 0.931 . S
C1042 C1043 1.395 . S
C1042 C1044 1.320 . S
C1043 C1041 1.339 . S
C1043 C1042 1.395 . S
C1043 H1069 0.929 . S
C1044 C1042 1.320 . S
C1044 C1045 1.405 . S
C1044 H1070 0.930 . S
C1045 C1040 1.479 . S
C1045 C1044 1.405 . S
C1045 H1071 0.931 . S
U1046 O1047 2.454 . S
U1046 O1048 2.458 . S
U1046 C1049 2.984 . S
U1046 C1050 2.847 . S
U1046 C1063 2.882 . S
U1046 O1064 2.441 . S
U1046 O1065 2.420 . S
U1046 O1066 2.455 . S
U1046 O1067 2.449 . S
O1047 U1046 2.454 . S
O1047 C1049 1.353 . S
O1048 U1046 2.458 . S
O1048 C1049 1.286 . S
C1049 U1046 2.984 . S
C1049 O1047 1.353 . S
C1049 O1048 1.286 . S
C1049 C1051 1.363 . S
C1050 C1040 1.465 . S
C1050 U1046 2.847 . S
C1050 O1064 1.249 . S
C1050 O1065 1.202 . S
C1051 C1049 1.363 . S
C1051 C1053 1.408 . S
C1051 C1056 1.342 . S
C1052 C1053 1.310 . S
C1052 C1055 1.461 . S
C1052 H1072 0.932 . S
C1053 C1051 1.408 . S
C1053 C1052 1.310 . S
C1053 H1073 0.930 . S
C1054 C1055 1.474 . S
C1054 C1056 1.285 . S
C1054 H1074 0.929 . S
C1055 C1052 1.461 . S
C1055 C1054 1.474 . S
C1056 C1051 1.342 . S
C1056 C1054 1.285 . S
C1056 H1075 0.930 . S
C1057 C1060 1.424 . S
C1057 C1062 1.245 . S
C1057 C1063 1.428 . S
C1058 C1061 1.260 . S
C1058 C1062 1.477 . S
C1058 H1076 0.932 . S
C1059 C1060 1.384 . S
C1059 C1061 1.479 . S
C1059 H1077 0.929 . S
C1060 C1057 1.424 . S
C1060 C1059 1.384 . S
C1060 H1078 0.928 . S
C1061 C1058 1.260 . S
C1061 C1059 1.479 . S
C1062 C1057 1.245 . S
C1062 C1058 1.477 . S
C1062 H1079 0.932 . S
C1063 U1046 2.882 . S
C1063 C1057 1.428 . S
C1063 O1066 1.301 . S
C1063 O1067 1.282 . S
O1064 U1046 2.441 . S
O1064 C1050 1.249 . S
O1065 U1046 2.420 . S
O1065 C1050 1.202 . S
O1066 U1046 2.455 . S
O1066 C1063 1.301 . S
O1067 U1046 2.449 . S
O1067 C1063 1.282 . S
H1068 C1041 0.931 . S
H1069 C1043 0.929 . S
H1070 C1044 0.930 . S
H1071 C1045 0.931 . S
H1072 C1052 0.932 . S
H1073 C1053 0.930 . S
H1074 C1054 0.929 . S
H1075 C1056 0.930 . S
H1076 C1058 0.932 . S
H1077 C1059 0.929 . S
H1078 C1060 0.928 . S
H1079 C1062 0.932 . S
C1080 C1081 1.264 . S
C1080 C1085 1.479 . S
C1080 C1090 1.465 . S
C1081 C1080 1.264 . S
C1081 C1083 1.339 . S
C1081 H1108 0.931 . S
C1082 C1083 1.395 . S
C1082 C1084 1.320 . S
C1083 C1081 1.339 . S
C1083 C1082 1.395 . S
C1083 H1109 0.929 . S
C1084 C1082 1.320 . S
C1084 C1085 1.405 . S
C1084 H1110 0.930 . S
C1085 C1080 1.479 . S
C1085 C1084 1.405 . S
C1085 H1111 0.931 . S
U1086 O1087 2.454 . S
U1086 O1088 2.458 . S
U1086 C1089 2.984 . S
U1086 C1090 2.847 . S
U1086 C1103 2.882 . S
U1086 O1104 2.441 . S
U1086 O1105 2.420 . S
U1086 O1106 2.455 . S
U1086 O1107 2.449 . S
O1087 U1086 2.454 . S
O1087 C1089 1.353 . S
O1088 U1086 2.458 . S
O1088 C1089 1.286 . S
C1089 U1086 2.984 . S
C1089 O1087 1.353 . S
C1089 O1088 1.286 . S
C1089 C1091 1.363 . S
C1090 C1080 1.465 . S
C1090 U1086 2.847 . S
C1090 O1104 1.249 . S
C1090 O1105 1.202 . S
C1091 C1089 1.363 . S
C1091 C1093 1.408 . S
C1091 C1096 1.342 . S
C1092 C1093 1.310 . S
C1092 C1095 1.461 . S
C1092 H1112 0.932 . S
C1093 C1091 1.408 . S
C1093 C1092 1.310 . S
C1093 H1113 0.930 . S
C1094 C1095 1.474 . S
C1094 C1096 1.285 . S
C1094 H1114 0.929 . S
C1095 C1092 1.461 . S
C1095 C1094 1.474 . S
C1096 C1091 1.342 . S
C1096 C1094 1.285 . S
C1096 H1115 0.930 . S
C1097 C1100 1.424 . S
C1097 C1102 1.245 . S
C1097 C1103 1.428 . S
C1098 C1101 1.260 . S
C1098 C1102 1.477 . S
C1098 H1116 0.932 . S
C1099 C1100 1.384 . S
C1099 C1101 1.479 . S
C1099 H1117 0.929 . S
C1100 C1097 1.424 . S
C1100 C1099 1.384 . S
C1100 H1118 0.928 . S
C1101 C1098 1.260 . S
C1101 C1099 1.479 . S
C1102 C1097 1.245 . S
C1102 C1098 1.477 . S
C1102 H1119 0.932 . S
C1103 U1086 2.882 . S
C1103 C1097 1.428 . S
C1103 O1106 1.301 . S
C1103 O1107 1.282 . S
O1104 U1086 2.441 . S
O1104 C1090 1.249 . S
O1105 U1086 2.420 . S
O1105 C1090 1.202 . S
O1106 U1086 2.455 . S
O1106 C1103 1.301 . S
O1107 U1086 2.449 . S
O1107 C1103 1.282 . S
H1108 C1081 0.931 . S
H1109 C1083 0.929 . S
H1110 C1084 0.930 . S
H1111 C1085 0.931 . S
H1112 C1092 0.932 . S
H1113 C1093 0.930 . S
H1114 C1094 0.929 . S
H1115 C1096 0.930 . S
H1116 C1098 0.932 . S
H1117 C1099 0.929 . S
H1118 C1100 0.928 . S
H1119 C1102 0.932 . S
C1120 C1121 1.264 . S
C1120 C1125 1.479 . S
C1120 C1130 1.465 . S
C1121 C1120 1.264 . S
C1121 C1123 1.339 . S
C1121 H1148 0.931 . S
C1122 C1123 1.395 . S
C1122 C1124 1.320 . S
C1123 C1121 1.339 . S
C1123 C1122 1.395 . S
C1123 H1149 0.929 . S
C1124 C1122 1.320 . S
C1124 C1125 1.405 . S
C1124 H1150 0.930 . S
C1125 C1120 1.479 . S
C1125 C1124 1.405 . S
C1125 H1151 0.931 . S
U1126 O1127 2.454 . S
U1126 O1128 2.458 . S
U1126 C1129 2.984 . S
U1126 C1130 2.847 . S
U1126 C1143 2.882 . S
U1126 O1144 2.441 . S
U1126 O1145 2.420 . S
U1126 O1146 2.455 . S
U1126 O1147 2.449 . S
O1127 U1126 2.454 . S
O1127 C1129 1.353 . S
O1128 U1126 2.458 . S
O1128 C1129 1.286 . S
C1129 U1126 2.984 . S
C1129 O1127 1.353 . S
C1129 O1128 1.286 . S
C1129 C1131 1.363 . S
C1130 C1120 1.465 . S
C1130 U1126 2.847 . S
C1130 O1144 1.249 . S
C1130 O1145 1.202 . S
C1131 C1129 1.363 . S
C1131 C1133 1.408 . S
C1131 C1136 1.342 . S
C1132 C1133 1.310 . S
C1132 C1135 1.461 1_655 S
C1132 H1152 0.904 1_655 S
C1133 C1131 1.408 . S
C1133 C1132 1.310 . S
C1133 H1153 0.930 . S
C1134 C1135 1.474 1_655 S
C1134 C1136 1.285 . S
C1134 H1154 0.929 1_655 S
C1135 C1132 1.461 1_455 S
C1135 C1134 1.474 1_455 S
C1136 C1131 1.342 . S
C1136 C1134 1.285 . S
C1136 H1155 0.930 . S
C1137 C1140 1.424 . S
C1137 C1142 1.245 . S
C1137 C1143 1.428 . S
C1138 C1141 1.260 . S
C1138 C1142 1.477 . S
C1138 H1156 0.932 . S
C1139 C1140 1.384 . S
C1139 C1141 1.479 . S
C1139 H1157 0.929 . S
C1140 C1137 1.424 . S
C1140 C1139 1.384 . S
C1140 H1158 0.928 . S
C1141 C1138 1.260 . S
C1141 C1139 1.479 . S
C1142 C1137 1.245 . S
C1142 C1138 1.477 . S
C1142 H1159 0.932 . S
C1143 U1126 2.882 . S
C1143 C1137 1.428 . S
C1143 O1146 1.301 . S
C1143 O1147 1.282 . S
O1144 U1126 2.441 . S
O1144 C1130 1.249 . S
O1145 U1126 2.420 . S
O1145 C1130 1.202 . S
O1146 U1126 2.455 . S
O1146 C1143 1.301 . S
O1147 U1126 2.449 . S
O1147 C1143 1.282 . S
H1148 C1121 0.931 . S
H1149 C1123 0.929 . S
H1150 C1124 0.930 . S
H1151 C1125 0.931 . S
H1152 C1132 0.904 1_455 S
H1153 C1133 0.930 . S
H1154 C1134 0.929 1_455 S
H1155 C1136 0.930 . S
H1156 C1138 0.932 . S
H1157 C1139 0.929 . S
H1158 C1140 0.928 . S
H1159 C1142 0.932 . S
C1160 C1161 1.264 . S
C1160 C1165 1.479 . S
C1160 C1170 1.465 . S
C1161 C1160 1.264 . S
C1161 C1163 1.339 . S
C1161 H1188 0.931 . S
C1162 C1163 1.395 . S
C1162 C1164 1.320 . S
C1163 C1161 1.339 . S
C1163 C1162 1.395 . S
C1163 H1189 0.929 . S
C1164 C1162 1.320 . S
C1164 C1165 1.405 . S
C1164 H1190 0.930 . S
C1165 C1160 1.479 . S
C1165 C1164 1.405 . S
C1165 H1191 0.931 . S
U1166 O1167 2.454 . S
U1166 O1168 2.458 . S
U1166 C1169 2.984 . S
U1166 C1170 2.847 . S
U1166 C1183 2.882 . S
U1166 O1184 2.441 . S
U1166 O1185 2.420 . S
U1166 O1186 2.455 . S
U1166 O1187 2.449 . S
O1167 U1166 2.454 . S
O1167 C1169 1.353 . S
O1168 U1166 2.458 . S
O1168 C1169 1.286 . S
C1169 U1166 2.984 . S
C1169 O1167 1.353 . S
C1169 O1168 1.286 . S
C1169 C1171 1.363 . S
C1170 C1160 1.465 . S
C1170 U1166 2.847 . S
C1170 O1184 1.249 . S
C1170 O1185 1.202 . S
C1171 C1169 1.363 . S
C1171 C1173 1.408 . S
C1171 C1176 1.342 . S
C1172 C1173 1.310 . S
C1172 C1175 1.461 . S
C1172 H1192 0.932 . S
C1173 C1171 1.408 . S
C1173 C1172 1.310 . S
C1173 H1193 0.930 . S
C1174 C1175 1.474 . S
C1174 C1176 1.285 . S
C1174 H1194 0.929 . S
C1175 C1172 1.461 . S
C1175 C1174 1.474 . S
C1176 C1171 1.342 . S
C1176 C1174 1.285 . S
C1176 H1195 0.930 . S
C1177 C1180 1.424 . S
C1177 C1182 1.245 . S
C1177 C1183 1.428 . S
C1178 C1181 1.260 . S
C1178 C1182 1.477 . S
C1178 H1196 0.932 . S
C1179 C1180 1.384 . S
C1179 C1181 1.479 . S
C1179 H1197 0.929 . S
C1180 C1177 1.424 . S
C1180 C1179 1.384 . S
C1180 H1198 0.928 . S
C1181 C1178 1.260 . S
C1181 C1179 1.479 . S
C1182 C1177 1.245 . S
C1182 C1178 1.477 . S
C1182 H1199 0.932 . S
C1183 U1166 2.882 . S
C1183 C1177 1.428 . S
C1183 O1186 1.301 . S
C1183 O1187 1.282 . S
O1184 U1166 2.441 . S
O1184 C1170 1.249 . S
O1185 U1166 2.420 . S
O1185 C1170 1.202 . S
O1186 U1166 2.455 . S
O1186 C1183 1.301 . S
O1187 U1166 2.449 . S
O1187 C1183 1.282 . S
H1188 C1161 0.931 . S
H1189 C1163 0.929 . S
H1190 C1164 0.930 . S
H1191 C1165 0.931 . S
H1192 C1172 0.932 . S
H1193 C1173 0.930 . S
H1194 C1174 0.929 . S
H1195 C1176 0.930 . S
H1196 C1178 0.932 . S
H1197 C1179 0.929 . S
H1198 C1180 0.928 . S
H1199 C1182 0.932 . S
C1200 C1201 1.264 . S
C1200 C1205 1.479 . S
C1200 C1210 1.465 . S
C1201 C1200 1.264 . S
C1201 C1203 1.339 . S
C1201 H1228 0.931 . S
C1202 C1203 1.395 . S
C1202 C1204 1.320 . S
C1203 C1201 1.339 . S
C1203 C1202 1.395 . S
C1203 H1229 0.929 . S
C1204 C1202 1.320 . S
C1204 C1205 1.405 . S
C1204 H1230 0.930 . S
C1205 C1200 1.479 . S
C1205 C1204 1.405 . S
C1205 H1231 0.931 . S
U1206 O1207 2.454 . S
U1206 O1208 2.458 . S
U1206 C1209 2.984 . S
U1206 C1210 2.847 . S
U1206 C1223 2.882 . S
U1206 O1224 2.441 . S
U1206 O1225 2.420 . S
U1206 O1226 2.455 . S
U1206 O1227 2.449 . S
O1207 U1206 2.454 . S
O1207 C1209 1.353 . S
O1208 U1206 2.458 . S
O1208 C1209 1.286 . S
C1209 U1206 2.984 . S
C1209 O1207 1.353 . S
C1209 O1208 1.286 . S
C1209 C1211 1.363 . S
C1210 C1200 1.465 . S
C1210 U1206 2.847 . S
C1210 O1224 1.249 . S
C1210 O1225 1.202 . S
C1211 C1209 1.363 . S
C1211 C1213 1.408 . S
C1211 C1216 1.342 . S
C1212 C1213 1.310 . S
C1212 C1215 1.461 . S
C1212 H1232 0.932 . S
C1213 C1211 1.408 . S
C1213 C1212 1.310 . S
C1213 H1233 0.930 . S
C1214 C1215 1.474 . S
C1214 C1216 1.285 . S
C1214 H1234 0.929 . S
C1215 C1212 1.461 . S
C1215 C1214 1.474 . S
C1216 C1211 1.342 . S
C1216 C1214 1.285 . S
C1216 H1235 0.930 . S
C1217 C1220 1.424 . S
C1217 C1222 1.245 . S
C1217 C1223 1.428 . S
C1218 C1221 1.260 . S
C1218 C1222 1.477 . S
C1218 H1236 0.932 . S
C1219 C1220 1.384 . S
C1219 C1221 1.479 . S
C1219 H1237 0.929 . S
C1220 C1217 1.424 . S
C1220 C1219 1.384 . S
C1220 H1238 0.928 . S
C1221 C1218 1.260 . S
C1221 C1219 1.479 . S
C1222 C1217 1.245 . S
C1222 C1218 1.477 . S
C1222 H1239 0.932 . S
C1223 U1206 2.882 . S
C1223 C1217 1.428 . S
C1223 O1226 1.301 . S
C1223 O1227 1.282 . S
O1224 U1206 2.441 . S
O1224 C1210 1.249 . S
O1225 U1206 2.420 . S
O1225 C1210 1.202 . S
O1226 U1206 2.455 . S
O1226 C1223 1.301 . S
O1227 U1206 2.449 . S
O1227 C1223 1.282 . S
H1228 C1201 0.931 . S
H1229 C1203 0.929 . S
H1230 C1204 0.930 . S
H1231 C1205 0.931 . S
H1232 C1212 0.932 . S
H1233 C1213 0.930 . S
H1234 C1214 0.929 . S
H1235 C1216 0.930 . S
H1236 C1218 0.932 . S
H1237 C1219 0.929 . S
H1238 C1220 0.928 . S
H1239 C1222 0.932 . S
C1240 C1241 1.264 . S
C1240 C1245 1.479 . S
C1240 C1250 1.465 . S
C1241 C1240 1.264 . S
C1241 C1243 1.339 . S
C1241 H1268 0.931 . S
C1242 C1243 1.395 . S
C1242 C1244 1.320 . S
C1243 C1241 1.339 . S
C1243 C1242 1.395 . S
C1243 H1269 0.929 . S
C1244 C1242 1.320 . S
C1244 C1245 1.405 . S
C1244 H1270 0.930 . S
C1245 C1240 1.479 . S
C1245 C1244 1.405 . S
C1245 H1271 0.931 . S
U1246 O1247 2.454 . S
U1246 O1248 2.458 . S
U1246 C1249 2.984 . S
U1246 C1250 2.847 . S
U1246 C1263 2.882 . S
U1246 O1264 2.441 . S
U1246 O1265 2.420 . S
U1246 O1266 2.455 . S
U1246 O1267 2.449 . S
O1247 U1246 2.454 . S
O1247 C1249 1.353 . S
O1248 U1246 2.458 . S
O1248 C1249 1.286 . S
C1249 U1246 2.984 . S
C1249 O1247 1.353 . S
C1249 O1248 1.286 . S
C1249 C1251 1.363 . S
C1250 C1240 1.465 . S
C1250 U1246 2.847 . S
C1250 O1264 1.249 . S
C1250 O1265 1.202 . S
C1251 C1249 1.363 . S
C1251 C1253 1.408 . S
C1251 C1256 1.342 . S
C1252 C1253 1.310 . S
C1252 C1255 1.461 . S
C1252 H1272 0.932 . S
C1253 C1251 1.408 . S
C1253 C1252 1.310 . S
C1253 H1273 0.930 . S
C1254 C1255 1.474 . S
C1254 C1256 1.285 . S
C1254 H1274 0.929 . S
C1255 C1252 1.461 . S
C1255 C1254 1.474 . S
C1256 C1251 1.342 . S
C1256 C1254 1.285 . S
C1256 H1275 0.930 . S
C1257 C1260 1.424 . S
C1257 C1262 1.245 . S
C1257 C1263 1.428 . S
C1258 C1261 1.260 . S
C1258 C1262 1.477 . S
C1258 H1276 0.932 . S
C1259 C1260 1.384 . S
C1259 C1261 1.479 . S
C1259 H1277 0.929 . S
C1260 C1257 1.424 . S
C1260 C1259 1.384 . S
C1260 H1278 0.928 . S
C1261 C1258 1.260 . S
C1261 C1259 1.479 . S
C1262 C1257 1.245 . S
C1262 C1258 1.477 . S
C1262 H1279 0.932 . S
C1263 U1246 2.882 . S
C1263 C1257 1.428 . S
C1263 O1266 1.301 . S
C1263 O1267 1.282 . S
O1264 U1246 2.441 . S
O1264 C1250 1.249 . S
O1265 U1246 2.420 . S
O1265 C1250 1.202 . S
O1266 U1246 2.455 . S
O1266 C1263 1.301 . S
O1267 U1246 2.449 . S
O1267 C1263 1.282 . S
H1268 C1241 0.931 . S
H1269 C1243 0.929 . S
H1270 C1244 0.930 . S
H1271 C1245 0.931 . S
H1272 C1252 0.932 . S
H1273 C1253 0.930 . S
H1274 C1254 0.929 . S
H1275 C1256 0.930 . S
H1276 C1258 0.932 . S
H1277 C1259 0.929 . S
H1278 C1260 0.928 . S
H1279 C1262 0.932 . S
C1280 C1281 1.264 . S
C1280 C1285 1.479 . S
C1280 C1290 1.465 . S
C1281 C1280 1.264 . S
C1281 C1283 1.339 . S
C1281 H1308 0.931 . S
C1282 C1283 1.395 . S
C1282 C1284 1.320 . S
C1283 C1281 1.339 . S
C1283 C1282 1.395 . S
C1283 H1309 0.929 . S
C1284 C1282 1.320 . S
C1284 C1285 1.405 . S
C1284 H1310 0.930 . S
C1285 C1280 1.479 . S
C1285 C1284 1.405 . S
C1285 H1311 0.931 . S
U1286 O1287 2.454 . S
U1286 O1288 2.458 . S
U1286 C1289 2.984 . S
U1286 C1290 2.847 . S
U1286 C1303 2.882 . S
U1286 O1304 2.441 . S
U1286 O1305 2.420 . S
U1286 O1306 2.455 . S
U1286 O1307 2.449 . S
O1287 U1286 2.454 . S
O1287 C1289 1.353 . S
O1288 U1286 2.458 . S
O1288 C1289 1.286 . S
C1289 U1286 2.984 . S
C1289 O1287 1.353 . S
C1289 O1288 1.286 . S
C1289 C1291 1.344 1_565 S
C1290 C1280 1.465 . S
C1290 U1286 2.847 . S
C1290 O1304 1.249 . S
C1290 O1305 1.202 . S
C1291 C1289 1.344 1_545 S
C1291 C1293 1.416 . S
C1291 C1296 1.352 . S
C1292 C1293 1.310 . S
C1292 C1295 1.461 . S
C1292 H1312 0.932 . S
C1293 C1291 1.416 . S
C1293 C1292 1.310 . S
C1293 H1313 0.979 . S
C1294 C1295 1.474 . S
C1294 C1296 1.285 . S
C1294 H1314 0.929 . S
C1295 C1292 1.461 . S
C1295 C1294 1.474 . S
C1296 C1291 1.352 . S
C1296 C1294 1.285 . S
C1296 H1315 0.930 . S
C1297 C1300 1.424 . S
C1297 C1302 1.245 . S
C1297 C1303 1.428 . S
C1298 C1301 1.260 . S
C1298 C1302 1.477 . S
C1298 H1316 0.932 . S
C1299 C1300 1.384 . S
C1299 C1301 1.479 . S
C1299 H1317 0.929 . S
C1300 C1297 1.424 . S
C1300 C1299 1.384 . S
C1300 H1318 0.928 . S
C1301 C1298 1.260 . S
C1301 C1299 1.479 . S
C1302 C1297 1.245 . S
C1302 C1298 1.477 . S
C1302 H1319 0.932 . S
C1303 U1286 2.882 . S
C1303 C1297 1.428 . S
C1303 O1306 1.301 . S
C1303 O1307 1.282 . S
O1304 U1286 2.441 . S
O1304 C1290 1.249 . S
O1305 U1286 2.420 . S
O1305 C1290 1.202 . S
O1306 U1286 2.455 . S
O1306 C1303 1.301 . S
O1307 U1286 2.449 . S
O1307 C1303 1.282 . S
H1308 C1281 0.931 . S
H1309 C1283 0.929 . S
H1310 C1284 0.930 . S
H1311 C1285 0.931 . S
H1312 C1292 0.932 . S
H1313 C1293 0.979 . S
H1314 C1294 0.929 . S
H1315 C1296 0.930 . S
H1316 C1298 0.932 . S
H1317 C1299 0.929 . S
H1318 C1300 0.928 . S
H1319 C1302 0.932 . S
C1320 C1321 1.264 . S
C1320 C1325 1.479 . S
C1320 C1330 1.465 . S
C1321 C1320 1.264 . S
C1321 C1323 1.339 . S
C1321 H1348 0.931 . S
C1322 C1323 1.395 . S
C1322 C1324 1.320 . S
C1323 C1321 1.339 . S
C1323 C1322 1.395 . S
C1323 H1349 0.929 . S
C1324 C1322 1.320 . S
C1324 C1325 1.405 . S
C1324 H1350 0.930 . S
C1325 C1320 1.479 . S
C1325 C1324 1.405 . S
C1325 H1351 0.931 . S
U1326 O1327 2.454 . S
U1326 O1328 2.458 . S
U1326 C1329 2.984 . S
U1326 C1330 2.847 . S
U1326 C1343 2.882 . S
U1326 O1344 2.441 . S
U1326 O1345 2.420 . S
U1326 O1346 2.455 . S
U1326 O1347 2.449 . S
O1327 U1326 2.454 . S
O1327 C1329 1.353 . S
O1328 U1326 2.458 . S
O1328 C1329 1.286 . S
C1329 U1326 2.984 . S
C1329 O1327 1.353 . S
C1329 O1328 1.286 . S
C1329 C1331 1.363 . S
C1330 C1320 1.465 . S
C1330 U1326 2.847 . S
C1330 O1344 1.249 . S
C1330 O1345 1.202 . S
C1331 C1329 1.363 . S
C1331 C1333 1.408 . S
C1331 C1336 1.342 . S
C1332 C1333 1.310 . S
C1332 C1335 1.461 . S
C1332 H1352 0.932 . S
C1333 C1331 1.408 . S
C1333 C1332 1.310 . S
C1333 H1353 0.930 . S
C1334 C1335 1.474 . S
C1334 C1336 1.285 . S
C1334 H1354 0.929 . S
C1335 C1332 1.461 . S
C1335 C1334 1.474 . S
C1336 C1331 1.342 . S
C1336 C1334 1.285 . S
C1336 H1355 0.930 . S
C1337 C1340 1.424 . S
C1337 C1342 1.245 . S
C1337 C1343 1.428 . S
C1338 C1341 1.260 . S
C1338 C1342 1.477 . S
C1338 H1356 0.932 . S
C1339 C1340 1.384 . S
C1339 C1341 1.479 . S
C1339 H1357 0.929 . S
C1340 C1337 1.424 . S
C1340 C1339 1.384 . S
C1340 H1358 0.928 . S
C1341 C1338 1.260 . S
C1341 C1339 1.479 . S
C1342 C1337 1.245 . S
C1342 C1338 1.477 . S
C1342 H1359 0.932 . S
C1343 U1326 2.882 . S
C1343 C1337 1.428 . S
C1343 O1346 1.301 . S
C1343 O1347 1.282 . S
O1344 U1326 2.441 . S
O1344 C1330 1.249 . S
O1345 U1326 2.420 . S
O1345 C1330 1.202 . S
O1346 U1326 2.455 . S
O1346 C1343 1.301 . S
O1347 U1326 2.449 . S
O1347 C1343 1.282 . S
H1348 C1321 0.931 . S
H1349 C1323 0.929 . S
H1350 C1324 0.930 . S
H1351 C1325 0.931 . S
H1352 C1332 0.932 . S
H1353 C1333 0.930 . S
H1354 C1334 0.929 . S
H1355 C1336 0.930 . S
H1356 C1338 0.932 . S
H1357 C1339 0.929 . S
H1358 C1340 0.928 . S
H1359 C1342 0.932 . S
C1360 C1361 1.264 . S
C1360 C1365 1.479 . S
C1360 C1370 1.465 . S
C1361 C1360 1.264 . S
C1361 C1363 1.339 . S
C1361 H1388 0.931 . S
C1362 C1363 1.395 . S
C1362 C1364 1.320 . S
C1363 C1361 1.339 . S
C1363 C1362 1.395 . S
C1363 H1389 0.929 . S
C1364 C1362 1.320 . S
C1364 C1365 1.405 . S
C1364 H1390 0.930 . S
C1365 C1360 1.479 . S
C1365 C1364 1.405 . S
C1365 H1391 0.931 . S
U1366 O1367 2.454 . S
U1366 O1368 2.458 . S
U1366 C1369 2.984 . S
U1366 C1370 2.847 . S
U1366 C1383 2.882 . S
U1366 O1384 2.441 . S
U1366 O1385 2.420 . S
U1366 O1386 2.455 . S
U1366 O1387 2.449 . S
O1367 U1366 2.454 . S
O1367 C1369 1.353 . S
O1368 U1366 2.458 . S
O1368 C1369 1.286 . S
C1369 U1366 2.984 . S
C1369 O1367 1.353 . S
C1369 O1368 1.286 . S
C1369 C1371 1.363 . S
C1370 C1360 1.465 . S
C1370 U1366 2.847 . S
C1370 O1384 1.249 . S
C1370 O1385 1.202 . S
C1371 C1369 1.363 . S
C1371 C1373 1.408 . S
C1371 C1376 1.342 . S
C1372 C1373 1.310 . S
C1372 C1375 1.494 . S
C1372 H1392 0.932 . S
C1373 C1371 1.408 . S
C1373 C1372 1.310 . S
C1373 H1393 0.930 . S
C1374 C1375 1.514 . S
C1374 C1376 1.285 . S
C1374 H1394 0.929 . S
C1375 C1372 1.494 . S
C1375 C1374 1.514 . S
C1376 C1371 1.342 . S
C1376 C1374 1.285 . S
C1376 H1395 0.930 . S
C1377 C1380 1.424 . S
C1377 C1382 1.245 . S
C1377 C1383 1.428 . S
C1378 C1381 1.260 . S
C1378 C1382 1.477 . S
C1378 H1396 0.932 . S
C1379 C1380 1.384 . S
C1379 C1381 1.479 . S
C1379 H1397 0.929 . S
C1380 C1377 1.424 . S
C1380 C1379 1.384 . S
C1380 H1398 0.928 . S
C1381 C1378 1.260 . S
C1381 C1379 1.479 . S
C1382 C1377 1.245 . S
C1382 C1378 1.477 . S
C1382 H1399 0.932 . S
C1383 U1366 2.882 . S
C1383 C1377 1.428 . S
C1383 O1386 1.301 . S
C1383 O1387 1.282 . S
O1384 U1366 2.441 . S
O1384 C1370 1.249 . S
O1385 U1366 2.420 . S
O1385 C1370 1.202 . S
O1386 U1366 2.455 . S
O1386 C1383 1.301 . S
O1387 U1366 2.449 . S
O1387 C1383 1.282 . S
H1388 C1361 0.931 . S
H1389 C1363 0.929 . S
H1390 C1364 0.930 . S
H1391 C1365 0.931 . S
H1392 C1372 0.932 . S
H1393 C1373 0.930 . S
H1394 C1374 0.929 . S
H1395 C1376 0.930 . S
H1396 C1378 0.932 . S
H1397 C1379 0.929 . S
H1398 C1380 0.928 . S
H1399 C1382 0.932 . S
C1400 C1401 1.264 . S
C1400 C1405 1.479 . S
C1400 C1410 1.465 . S
C1401 C1400 1.264 . S
C1401 C1403 1.339 . S
C1401 H1428 0.931 . S
C1402 C1403 1.395 . S
C1402 C1404 1.320 . S
C1403 C1401 1.339 . S
C1403 C1402 1.395 . S
C1403 H1429 0.929 . S
C1404 C1402 1.320 . S
C1404 C1405 1.405 . S
C1404 H1430 0.930 . S
C1405 C1400 1.479 . S
C1405 C1404 1.405 . S
C1405 H1431 0.931 . S
U1406 O1407 2.454 . S
U1406 O1408 2.458 . S
U1406 C1409 2.984 . S
U1406 C1410 2.847 . S
U1406 C1423 2.882 . S
U1406 O1424 2.441 . S
U1406 O1425 2.420 . S
U1406 O1426 2.455 . S
U1406 O1427 2.449 . S
O1407 U1406 2.454 . S
O1407 C1409 1.353 . S
O1408 U1406 2.458 . S
O1408 C1409 1.286 . S
C1409 U1406 2.984 . S
C1409 O1407 1.353 . S
C1409 O1408 1.286 . S
C1409 C1411 1.363 . S
C1410 C1400 1.465 . S
C1410 U1406 2.847 . S
C1410 O1424 1.249 . S
C1410 O1425 1.202 . S
C1411 C1409 1.363 . S
C1411 C1413 1.408 . S
C1411 C1416 1.342 . S
C1412 C1413 1.310 . S
C1412 C1415 1.461 . S
C1412 H1432 0.932 . S
C1413 C1411 1.408 . S
C1413 C1412 1.310 . S
C1413 H1433 0.930 . S
C1414 C1415 1.474 . S
C1414 C1416 1.285 . S
C1414 H1434 0.929 . S
C1415 C1412 1.461 . S
C1415 C1414 1.474 . S
C1416 C1411 1.342 . S
C1416 C1414 1.285 . S
C1416 H1435 0.930 . S
C1417 C1420 1.424 . S
C1417 C1422 1.245 . S
C1417 C1423 1.428 . S
C1418 C1421 1.260 . S
C1418 C1422 1.477 . S
C1418 H1436 0.932 . S
C1419 C1420 1.384 . S
C1419 C1421 1.479 . S
C1419 H1437 0.929 . S
C1420 C1417 1.424 . S
C1420 C1419 1.384 . S
C1420 H1438 0.928 . S
C1421 C1418 1.260 . S
C1421 C1419 1.479 . S
C1422 C1417 1.245 . S
C1422 C1418 1.477 . S
C1422 H1439 0.932 . S
C1423 U1406 2.882 . S
C1423 C1417 1.428 . S
C1423 O1426 1.301 . S
C1423 O1427 1.282 . S
O1424 U1406 2.441 . S
O1424 C1410 1.249 . S
O1425 U1406 2.420 . S
O1425 C1410 1.202 . S
O1426 U1406 2.455 . S
O1426 C1423 1.301 . S
O1427 U1406 2.449 . S
O1427 C1423 1.282 . S
H1428 C1401 0.931 . S
H1429 C1403 0.929 . S
H1430 C1404 0.930 . S
H1431 C1405 0.931 . S
H1432 C1412 0.932 . S
H1433 C1413 0.930 . S
H1434 C1414 0.929 . S
H1435 C1416 0.930 . S
H1436 C1418 0.932 . S
H1437 C1419 0.929 . S
H1438 C1420 0.928 . S
H1439 C1422 0.932 . S
C1440 C1441 1.264 . S
C1440 C1445 1.479 . S
C1440 C1450 1.465 . S
C1441 C1440 1.264 . S
C1441 C1443 1.339 . S
C1441 H1468 0.931 . S
C1442 C1443 1.395 . S
C1442 C1444 1.320 . S
C1443 C1441 1.339 . S
C1443 C1442 1.395 . S
C1443 H1469 0.929 . S
C1444 C1442 1.320 . S
C1444 C1445 1.405 . S
C1444 H1470 0.930 . S
C1445 C1440 1.479 . S
C1445 C1444 1.405 . S
C1445 H1471 0.931 . S
U1446 O1447 2.454 . S
U1446 O1448 2.458 . S
U1446 C1449 2.984 . S
U1446 C1450 2.847 . S
U1446 C1463 2.882 . S
U1446 O1464 2.441 . S
U1446 O1465 2.420 . S
U1446 O1466 2.455 . S
U1446 O1467 2.449 . S
O1447 U1446 2.454 . S
O1447 C1449 1.353 . S
O1448 U1446 2.458 . S
O1448 C1449 1.286 . S
C1449 U1446 2.984 . S
C1449 O1447 1.353 . S
C1449 O1448 1.286 . S
C1449 C1451 1.347 1_545 S
C1450 C1440 1.465 . S
C1450 U1446 2.847 . S
C1450 O1464 1.249 . S
C1450 O1465 1.202 . S
C1451 C1449 1.347 1_565 S
C1451 C1453 1.415 . S
C1451 C1456 1.351 . S
C1452 C1453 1.310 . S
C1452 C1455 1.461 . S
C1452 H1472 0.932 . S
C1453 C1451 1.415 . S
C1453 C1452 1.310 . S
C1453 H1473 0.977 . S
C1454 C1455 1.474 . S
C1454 C1456 1.285 . S
C1454 H1474 0.929 . S
C1455 C1452 1.461 . S
C1455 C1454 1.474 . S
C1456 C1451 1.351 . S
C1456 C1454 1.285 . S
C1456 H1475 0.930 . S
C1457 C1460 1.424 . S
C1457 C1462 1.245 . S
C1457 C1463 1.428 . S
C1458 C1461 1.260 . S
C1458 C1462 1.477 . S
C1458 H1476 0.932 . S
C1459 C1460 1.384 . S
C1459 C1461 1.479 . S
C1459 H1477 0.929 . S
C1460 C1457 1.424 . S
C1460 C1459 1.384 . S
C1460 H1478 0.928 . S
C1461 C1458 1.260 . S
C1461 C1459 1.479 . S
C1462 C1457 1.245 . S
C1462 C1458 1.477 . S
C1462 H1479 0.932 . S
C1463 U1446 2.882 . S
C1463 C1457 1.428 . S
C1463 O1466 1.301 . S
C1463 O1467 1.282 . S
O1464 U1446 2.441 . S
O1464 C1450 1.249 . S
O1465 U1446 2.420 . S
O1465 C1450 1.202 . S
O1466 U1446 2.455 . S
O1466 C1463 1.301 . S
O1467 U1446 2.449 . S
O1467 C1463 1.282 . S
H1468 C1441 0.931 . S
H1469 C1443 0.929 . S
H1470 C1444 0.930 . S
H1471 C1445 0.931 . S
H1472 C1452 0.932 . S
H1473 C1453 0.977 . S
H1474 C1454 0.929 . S
H1475 C1456 0.930 . S
H1476 C1458 0.932 . S
H1477 C1459 0.929 . S
H1478 C1460 0.928 . S
H1479 C1462 0.932 . S
C1480 C1481 1.264 . S
C1480 C1485 1.479 . S
C1480 C1490 1.465 . S
C1481 C1480 1.264 . S
C1481 C1483 1.339 . S
C1481 H1508 0.931 . S
C1482 C1483 1.395 . S
C1482 C1484 1.320 . S
C1483 C1481 1.339 . S
C1483 C1482 1.395 . S
C1483 H1509 0.929 . S
C1484 C1482 1.320 . S
C1484 C1485 1.405 . S
C1484 H1510 0.930 . S
C1485 C1480 1.479 . S
C1485 C1484 1.405 . S
C1485 H1511 0.931 . S
U1486 O1487 2.454 . S
U1486 O1488 2.458 . S
U1486 C1489 2.984 . S
U1486 C1490 2.847 . S
U1486 C1503 2.882 . S
U1486 O1504 2.441 . S
U1486 O1505 2.420 . S
U1486 O1506 2.455 . S
U1486 O1507 2.449 . S
O1487 U1486 2.454 . S
O1487 C1489 1.353 . S
O1488 U1486 2.458 . S
O1488 C1489 1.286 . S
C1489 U1486 2.984 . S
C1489 O1487 1.353 . S
C1489 O1488 1.286 . S
C1489 C1491 1.363 . S
C1490 C1480 1.465 . S
C1490 U1486 2.847 . S
C1490 O1504 1.249 . S
C1490 O1505 1.202 . S
C1491 C1489 1.363 . S
C1491 C1493 1.408 . S
C1491 C1496 1.342 . S
C1492 C1493 1.310 . S
C1492 C1495 1.461 . S
C1492 H1512 0.932 . S
C1493 C1491 1.408 . S
C1493 C1492 1.310 . S
C1493 H1513 0.930 . S
C1494 C1495 1.474 . S
C1494 C1496 1.285 . S
C1494 H1514 0.929 . S
C1495 C1492 1.461 . S
C1495 C1494 1.474 . S
C1496 C1491 1.342 . S
C1496 C1494 1.285 . S
C1496 H1515 0.930 . S
C1497 C1500 1.424 . S
C1497 C1502 1.245 . S
C1497 C1503 1.428 . S
C1498 C1501 1.260 . S
C1498 C1502 1.477 . S
C1498 H1516 0.932 . S
C1499 C1500 1.384 . S
C1499 C1501 1.479 . S
C1499 H1517 0.929 . S
C1500 C1497 1.424 . S
C1500 C1499 1.384 . S
C1500 H1518 0.928 . S
C1501 C1498 1.260 . S
C1501 C1499 1.479 . S
C1502 C1497 1.245 . S
C1502 C1498 1.477 . S
C1502 H1519 0.932 . S
C1503 U1486 2.882 . S
C1503 C1497 1.428 . S
C1503 O1506 1.301 . S
C1503 O1507 1.282 . S
O1504 U1486 2.441 . S
O1504 C1490 1.249 . S
O1505 U1486 2.420 . S
O1505 C1490 1.202 . S
O1506 U1486 2.455 . S
O1506 C1503 1.301 . S
O1507 U1486 2.449 . S
O1507 C1503 1.282 . S
H1508 C1481 0.931 . S
H1509 C1483 0.929 . S
H1510 C1484 0.930 . S
H1511 C1485 0.931 . S
H1512 C1492 0.932 . S
H1513 C1493 0.930 . S
H1514 C1494 0.929 . S
H1515 C1496 0.930 . S
H1516 C1498 0.932 . S
H1517 C1499 0.929 . S
H1518 C1500 0.928 . S
H1519 C1502 0.932 . S
C1520 C1521 1.264 . S
C1520 C1525 1.479 . S
C1520 C1530 1.465 . S
C1521 C1520 1.264 . S
C1521 C1523 1.339 . S
C1521 H1548 0.931 . S
C1522 C1523 1.395 . S
C1522 C1524 1.320 . S
C1523 C1521 1.339 . S
C1523 C1522 1.395 . S
C1523 H1549 0.929 . S
C1524 C1522 1.320 . S
C1524 C1525 1.405 . S
C1524 H1550 0.930 . S
C1525 C1520 1.479 . S
C1525 C1524 1.405 . S
C1525 H1551 0.931 . S
U1526 O1527 2.454 . S
U1526 O1528 2.458 . S
U1526 C1529 2.984 . S
U1526 C1530 2.847 . S
U1526 C1543 2.882 . S
U1526 O1544 2.441 . S
U1526 O1545 2.420 . S
U1526 O1546 2.455 . S
U1526 O1547 2.449 . S
O1527 U1526 2.454 . S
O1527 C1529 1.353 . S
O1528 U1526 2.458 . S
O1528 C1529 1.286 . S
C1529 U1526 2.984 . S
C1529 O1527 1.353 . S
C1529 O1528 1.286 . S
C1529 C1531 1.363 . S
C1530 C1520 1.465 . S
C1530 U1526 2.847 . S
C1530 O1544 1.249 . S
C1530 O1545 1.202 . S
C1531 C1529 1.363 . S
C1531 C1533 1.408 . S
C1531 C1536 1.342 . S
C1532 C1533 1.310 . S
C1532 C1535 1.493 . S
C1532 H1552 0.932 . S
C1533 C1531 1.408 . S
C1533 C1532 1.310 . S
C1533 H1553 0.930 . S
C1534 C1535 1.513 . S
C1534 C1536 1.285 . S
C1534 H1554 0.929 . S
C1535 C1532 1.493 . S
C1535 C1534 1.513 . S
C1536 C1531 1.342 . S
C1536 C1534 1.285 . S
C1536 H1555 0.930 . S
C1537 C1540 1.424 . S
C1537 C1542 1.245 . S
C1537 C1543 1.428 . S
C1538 C1541 1.260 . S
C1538 C1542 1.477 . S
C1538 H1556 0.932 . S
C1539 C1540 1.384 . S
C1539 C1541 1.479 . S
C1539 H1557 0.929 . S
C1540 C1537 1.424 . S
C1540 C1539 1.384 . S
C1540 H1558 0.928 . S
C1541 C1538 1.260 . S
C1541 C1539 1.479 . S
C1542 C1537 1.245 . S
C1542 C1538 1.477 . S
C1542 H1559 0.932 . S
C1543 U1526 2.882 . S
C1543 C1537 1.428 . S
C1543 O1546 1.301 . S
C1543 O1547 1.282 . S
O1544 U1526 2.441 . S
O1544 C1530 1.249 . S
O1545 U1526 2.420 . S
O1545 C1530 1.202 . S
O1546 U1526 2.455 . S
O1546 C1543 1.301 . S
O1547 U1526 2.449 . S
O1547 C1543 1.282 . S
H1548 C1521 0.931 . S
H1549 C1523 0.929 . S
H1550 C1524 0.930 . S
H1551 C1525 0.931 . S
H1552 C1532 0.932 . S
H1553 C1533 0.930 . S
H1554 C1534 0.929 . S
H1555 C1536 0.930 . S
H1556 C1538 0.932 . S
H1557 C1539 0.929 . S
H1558 C1540 0.928 . S
H1559 C1542 0.932 . S
C1560 C1561 1.264 . S
C1560 C1565 1.479 . S
C1560 C1570 1.465 . S
C1561 C1560 1.264 . S
C1561 C1563 1.339 . S
C1561 H1588 0.931 . S
C1562 C1563 1.395 . S
C1562 C1564 1.320 . S
C1563 C1561 1.339 . S
C1563 C1562 1.395 . S
C1563 H1589 0.929 . S
C1564 C1562 1.320 . S
C1564 C1565 1.405 . S
C1564 H1590 0.930 . S
C1565 C1560 1.479 . S
C1565 C1564 1.405 . S
C1565 H1591 0.931 . S
U1566 O1567 2.454 . S
U1566 O1568 2.458 . S
U1566 C1569 2.984 . S
U1566 C1570 2.847 . S
U1566 C1583 2.882 . S
U1566 O1584 2.441 . S
U1566 O1585 2.420 . S
U1566 O1586 2.455 . S
U1566 O1587 2.449 . S
O1567 U1566 2.454 . S
O1567 C1569 1.353 . S
O1568 U1566 2.458 . S
O1568 C1569 1.286 . S
C1569 U1566 2.984 . S
C1569 O1567 1.353 . S
C1569 O1568 1.286 . S
C1569 C1571 1.363 . S
C1570 C1560 1.465 . S
C1570 U1566 2.847 . S
C1570 O1584 1.249 . S
C1570 O1585 1.202 . S
C1571 C1569 1.363 . S
C1571 C1573 1.408 . S
C1571 C1576 1.342 . S
C1572 C1573 1.310 . S
C1572 C1575 1.461 . S
C1572 H1592 0.932 . S
C1573 C1571 1.408 . S
C1573 C1572 1.310 . S
C1573 H1593 0.930 . S
C1574 C1575 1.474 . S
C1574 C1576 1.285 . S
C1574 H1594 0.929 . S
C1575 C1572 1.461 . S
C1575 C1574 1.474 . S
C1576 C1571 1.342 . S
C1576 C1574 1.285 . S
C1576 H1595 0.930 . S
C1577 C1580 1.424 . S
C1577 C1582 1.245 . S
C1577 C1583 1.428 . S
C1578 C1581 1.260 . S
C1578 C1582 1.477 . S
C1578 H1596 0.932 . S
C1579 C1580 1.384 . S
C1579 C1581 1.479 . S
C1579 H1597 0.929 . S
C1580 C1577 1.424 . S
C1580 C1579 1.384 . S
C1580 H1598 0.928 . S
C1581 C1578 1.260 . S
C1581 C1579 1.479 . S
C1582 C1577 1.245 . S
C1582 C1578 1.477 . S
C1582 H1599 0.932 . S
C1583 U1566 2.882 . S
C1583 C1577 1.428 . S
C1583 O1586 1.301 . S
C1583 O1587 1.282 . S
O1584 U1566 2.441 . S
O1584 C1570 1.249 . S
O1585 U1566 2.420 . S
O1585 C1570 1.202 . S
O1586 U1566 2.455 . S
O1586 C1583 1.301 . S
O1587 U1566 2.449 . S
O1587 C1583 1.282 . S
H1588 C1561 0.931 . S
H1589 C1563 0.929 . S
H1590 C1564 0.930 . S
H1591 C1565 0.931 . S
H1592 C1572 0.932 . S
H1593 C1573 0.930 . S
H1594 C1574 0.929 . S
H1595 C1576 0.930 . S
H1596 C1578 0.932 . S
H1597 C1579 0.929 . S
H1598 C1580 0.928 . S
H1599 C1582 0.932 . S
C1600 C1601 1.264 . S
C1600 C1605 1.479 . S
C1600 C1610 1.465 . S
C1601 C1600 1.264 . S
C1601 C1603 1.339 . S
C1601 H1628 0.931 . S
C1602 C1603 1.395 . S
C1602 C1604 1.320 . S
C1603 C1601 1.339 . S
C1603 C1602 1.395 . S
C1603 H1629 0.929 . S
C1604 C1602 1.320 . S
C1604 C1605 1.405 . S
C1604 H1630 0.930 . S
C1605 C1600 1.479 . S
C1605 C1604 1.405 . S
C1605 H1631 0.931 . S
U1606 O1607 2.454 . S
U1606 O1608 2.458 . S
U1606 C1609 2.984 . S
U1606 C1610 2.847 . S
U1606 C1623 2.882 . S
U1606 O1624 2.441 . S
U1606 O1625 2.420 . S
U1606 O1626 2.455 . S
U1606 O1627 2.449 . S
O1607 U1606 2.454 . S
O1607 C1609 1.353 . S
O1608 U1606 2.458 . S
O1608 C1609 1.286 . S
C1609 U1606 2.984 . S
C1609 O1607 1.353 . S
C1609 O1608 1.286 . S
C1609 C1611 1.363 . S
C1610 C1600 1.465 . S
C1610 U1606 2.847 . S
C1610 O1624 1.249 . S
C1610 O1625 1.202 . S
C1611 C1609 1.363 . S
C1611 C1613 1.408 . S
C1611 C1616 1.342 . S
C1612 C1613 1.310 . S
C1612 C1615 1.461 . S
C1612 H1632 0.932 . S
C1613 C1611 1.408 . S
C1613 C1612 1.310 . S
C1613 H1633 0.930 . S
C1614 C1615 1.474 . S
C1614 C1616 1.285 . S
C1614 H1634 0.929 . S
C1615 C1612 1.461 . S
C1615 C1614 1.474 . S
C1616 C1611 1.342 . S
C1616 C1614 1.285 . S
C1616 H1635 0.930 . S
C1617 C1620 1.424 . S
C1617 C1622 1.245 . S
C1617 C1623 1.428 . S
C1618 C1621 1.260 . S
C1618 C1622 1.477 . S
C1618 H1636 0.932 . S
C1619 C1620 1.384 . S
C1619 C1621 1.479 . S
C1619 H1637 0.929 . S
C1620 C1617 1.424 . S
C1620 C1619 1.384 . S
C1620 H1638 0.928 . S
C1621 C1618 1.260 . S
C1621 C1619 1.479 . S
C1622 C1617 1.245 . S
C1622 C1618 1.477 . S
C1622 H1639 0.932 . S
C1623 U1606 2.882 . S
C1623 C1617 1.428 . S
C1623 O1626 1.301 . S
C1623 O1627 1.282 . S
O1624 U1606 2.441 . S
O1624 C1610 1.249 . S
O1625 U1606 2.420 . S
O1625 C1610 1.202 . S
O1626 U1606 2.455 . S
O1626 C1623 1.301 . S
O1627 U1606 2.449 . S
O1627 C1623 1.282 . S
H1628 C1601 0.931 . S
H1629 C1603 0.929 . S
H1630 C1604 0.930 . S
H1631 C1605 0.931 . S
H1632 C1612 0.932 . S
H1633 C1613 0.930 . S
H1634 C1614 0.929 . S
H1635 C1616 0.930 . S
H1636 C1618 0.932 . S
H1637 C1619 0.929 . S
H1638 C1620 0.928 . S
H1639 C1622 0.932 . S
C1640 C1641 1.264 . S
C1640 C1645 1.479 . S
C1640 C1650 1.465 . S
C1641 C1640 1.264 . S
C1641 C1643 1.339 . S
C1641 H1668 0.931 . S
C1642 C1643 1.395 . S
C1642 C1644 1.320 . S
C1643 C1641 1.339 . S
C1643 C1642 1.395 . S
C1643 H1669 0.929 . S
C1644 C1642 1.320 . S
C1644 C1645 1.405 . S
C1644 H1670 0.930 . S
C1645 C1640 1.479 . S
C1645 C1644 1.405 . S
C1645 H1671 0.931 . S
U1646 O1647 2.454 . S
U1646 O1648 2.458 . S
U1646 C1649 2.984 . S
U1646 C1650 2.847 . S
U1646 C1663 2.882 . S
U1646 O1664 2.441 . S
U1646 O1665 2.420 . S
U1646 O1666 2.455 . S
U1646 O1667 2.449 . S
O1647 U1646 2.454 . S
O1647 C1649 1.353 . S
O1648 U1646 2.458 . S
O1648 C1649 1.286 . S
C1649 U1646 2.984 . S
C1649 O1647 1.353 . S
C1649 O1648 1.286 . S
C1649 C1651 1.363 . S
C1650 C1640 1.465 . S
C1650 U1646 2.847 . S
C1650 O1664 1.249 . S
C1650 O1665 1.202 . S
C1651 C1649 1.363 . S
C1651 C1653 1.408 . S
C1651 C1656 1.342 . S
C1652 C1653 1.310 . S
C1652 C1655 1.461 . S
C1652 H1672 0.932 . S
C1653 C1651 1.408 . S
C1653 C1652 1.310 . S
C1653 H1673 0.930 . S
C1654 C1655 1.474 . S
C1654 C1656 1.285 . S
C1654 H1674 0.929 . S
C1655 C1652 1.461 . S
C1655 C1654 1.474 . S
C1656 C1651 1.342 . S
C1656 C1654 1.285 . S
C1656 H1675 0.930 . S
C1657 C1660 1.424 . S
C1657 C1662 1.245 . S
C1657 C1663 1.428 . S
C1658 C1661 1.260 . S
C1658 C1662 1.477 . S
C1658 H1676 0.932 . S
C1659 C1660 1.384 . S
C1659 C1661 1.479 . S
C1659 H1677 0.929 . S
C1660 C1657 1.424 . S
C1660 C1659 1.384 . S
C1660 H1678 0.928 . S
C1661 C1658 1.260 . S
C1661 C1659 1.479 . S
C1662 C1657 1.245 . S
C1662 C1658 1.477 . S
C1662 H1679 0.932 . S
C1663 U1646 2.882 . S
C1663 C1657 1.428 . S
C1663 O1666 1.301 . S
C1663 O1667 1.282 . S
O1664 U1646 2.441 . S
O1664 C1650 1.249 . S
O1665 U1646 2.420 . S
O1665 C1650 1.202 . S
O1666 U1646 2.455 . S
O1666 C1663 1.301 . S
O1667 U1646 2.449 . S
O1667 C1663 1.282 . S
H1668 C1641 0.931 . S
H1669 C1643 0.929 . S
H1670 C1644 0.930 . S
H1671 C1645 0.931 . S
H1672 C1652 0.932 . S
H1673 C1653 0.930 . S
H1674 C1654 0.929 . S
H1675 C1656 0.930 . S
H1676 C1658 0.932 . S
H1677 C1659 0.929 . S
H1678 C1660 0.928 . S
H1679 C1662 0.932 . S
C1680 C1681 1.264 . S
C1680 C1685 1.479 . S
C1680 C1690 1.465 . S
C1681 C1680 1.264 . S
C1681 C1683 1.339 . S
C1681 H1708 0.931 . S
C1682 C1683 1.395 . S
C1682 C1684 1.320 . S
C1683 C1681 1.339 . S
C1683 C1682 1.395 . S
C1683 H1709 0.929 . S
C1684 C1682 1.320 . S
C1684 C1685 1.405 . S
C1684 H1710 0.930 . S
C1685 C1680 1.479 . S
C1685 C1684 1.405 . S
C1685 H1711 0.931 . S
U1686 O1687 2.454 . S
U1686 O1688 2.458 . S
U1686 C1689 2.984 . S
U1686 C1690 2.847 . S
U1686 C1703 2.882 . S
U1686 O1704 2.441 . S
U1686 O1705 2.420 . S
U1686 O1706 2.455 . S
U1686 O1707 2.449 . S
O1687 U1686 2.454 . S
O1687 C1689 1.353 . S
O1688 U1686 2.458 . S
O1688 C1689 1.286 . S
C1689 U1686 2.984 . S
C1689 O1687 1.353 . S
C1689 O1688 1.286 . S
C1689 C1691 1.363 . S
C1690 C1680 1.465 . S
C1690 U1686 2.847 . S
C1690 O1704 1.249 . S
C1690 O1705 1.202 . S
C1691 C1689 1.363 . S
C1691 C1693 1.408 . S
C1691 C1696 1.342 . S
C1692 C1693 1.310 . S
C1692 C1695 1.461 . S
C1692 H1712 0.932 . S
C1693 C1691 1.408 . S
C1693 C1692 1.310 . S
C1693 H1713 0.930 . S
C1694 C1695 1.474 . S
C1694 C1696 1.285 . S
C1694 H1714 0.929 . S
C1695 C1692 1.461 . S
C1695 C1694 1.474 . S
C1696 C1691 1.342 . S
C1696 C1694 1.285 . S
C1696 H1715 0.930 . S
C1697 C1700 1.424 . S
C1697 C1702 1.245 . S
C1697 C1703 1.428 . S
C1698 C1701 1.260 . S
C1698 C1702 1.477 . S
C1698 H1716 0.932 . S
C1699 C1700 1.384 . S
C1699 C1701 1.479 . S
C1699 H1717 0.929 . S
C1700 C1697 1.424 . S
C1700 C1699 1.384 . S
C1700 H1718 0.928 . S
C1701 C1698 1.260 . S
C1701 C1699 1.479 . S
C1702 C1697 1.245 . S
C1702 C1698 1.477 . S
C1702 H1719 0.932 . S
C1703 U1686 2.882 . S
C1703 C1697 1.428 . S
C1703 O1706 1.301 . S
C1703 O1707 1.282 . S
O1704 U1686 2.441 . S
O1704 C1690 1.249 . S
O1705 U1686 2.420 . S
O1705 C1690 1.202 . S
O1706 U1686 2.455 . S
O1706 C1703 1.301 . S
O1707 U1686 2.449 . S
O1707 C1703 1.282 . S
H1708 C1681 0.931 . S
H1709 C1683 0.929 . S
H1710 C1684 0.930 . S
H1711 C1685 0.931 . S
H1712 C1692 0.932 . S
H1713 C1693 0.930 . S
H1714 C1694 0.929 . S
H1715 C1696 0.930 . S
H1716 C1698 0.932 . S
H1717 C1699 0.929 . S
H1718 C1700 0.928 . S
H1719 C1702 0.932 . S
C1720 C1721 1.264 . S
C1720 C1725 1.479 . S
C1720 C1730 1.465 . S
C1721 C1720 1.264 . S
C1721 C1723 1.339 . S
C1721 H1748 0.931 . S
C1722 C1723 1.395 . S
C1722 C1724 1.320 . S
C1723 C1721 1.339 . S
C1723 C1722 1.395 . S
C1723 H1749 0.929 . S
C1724 C1722 1.320 . S
C1724 C1725 1.405 . S
C1724 H1750 0.930 . S
C1725 C1720 1.479 . S
C1725 C1724 1.405 . S
C1725 H1751 0.931 . S
U1726 O1727 2.454 . S
U1726 O1728 2.458 . S
U1726 C1729 2.984 . S
U1726 C1730 2.847 . S
U1726 C1743 2.882 . S
U1726 O1744 2.441 . S
U1726 O1745 2.420 . S
U1726 O1746 2.455 . S
U1726 O1747 2.449 . S
O1727 U1726 2.454 . S
O1727 C1729 1.353 . S
O1728 U1726 2.458 . S
O1728 C1729 1.286 . S
C1729 U1726 2.984 . S
C1729 O1727 1.353 . S
C1729 O1728 1.286 . S
C1729 C1731 1.363 . S
C1730 C1720 1.465 . S
C1730 U1726 2.847 . S
C1730 O1744 1.249 . S
C1730 O1745 1.202 . S
C1731 C1729 1.363 . S
C1731 C1733 1.408 . S
C1731 C1736 1.342 . S
C1732 C1733 1.310 . S
C1732 C1735 1.461 . S
C1732 H1752 0.932 . S
C1733 C1731 1.408 . S
C1733 C1732 1.310 . S
C1733 H1753 0.930 . S
C1734 C1735 1.474 . S
C1734 C1736 1.285 . S
C1734 H1754 0.929 . S
C1735 C1732 1.461 . S
C1735 C1734 1.474 . S
C1736 C1731 1.342 . S
C1736 C1734 1.285 . S
C1736 H1755 0.930 . S
C1737 C1740 1.424 . S
C1737 C1742 1.245 . S
C1737 C1743 1.428 . S
C1738 C1741 1.260 . S
C1738 C1742 1.477 . S
C1738 H1756 0.932 . S
C1739 C1740 1.384 . S
C1739 C1741 1.479 . S
C1739 H1757 0.929 . S
C1740 C1737 1.424 . S
C1740 C1739 1.384 . S
C1740 H1758 0.928 . S
C1741 C1738 1.260 . S
C1741 C1739 1.479 . S
C1742 C1737 1.245 . S
C1742 C1738 1.477 . S
C1742 H1759 0.932 . S
C1743 U1726 2.882 . S
C1743 C1737 1.428 . S
C1743 O1746 1.301 . S
C1743 O1747 1.282 . S
O1744 U1726 2.441 . S
O1744 C1730 1.249 . S
O1745 U1726 2.420 . S
O1745 C1730 1.202 . S
O1746 U1726 2.455 . S
O1746 C1743 1.301 . S
O1747 U1726 2.449 . S
O1747 C1743 1.282 . S
H1748 C1721 0.931 . S
H1749 C1723 0.929 . S
H1750 C1724 0.930 . S
H1751 C1725 0.931 . S
H1752 C1732 0.932 . S
H1753 C1733 0.930 . S
H1754 C1734 0.929 . S
H1755 C1736 0.930 . S
H1756 C1738 0.932 . S
H1757 C1739 0.929 . S
H1758 C1740 0.928 . S
H1759 C1742 0.932 . S
C1760 C1761 1.264 . S
C1760 C1765 1.479 . S
C1760 C1770 1.465 . S
C1761 C1760 1.264 . S
C1761 C1763 1.339 . S
C1761 H1788 0.931 . S
C1762 C1763 1.395 . S
C1762 C1764 1.320 . S
C1763 C1761 1.339 . S
C1763 C1762 1.395 . S
C1763 H1789 0.929 . S
C1764 C1762 1.320 . S
C1764 C1765 1.405 . S
C1764 H1790 0.930 . S
C1765 C1760 1.479 . S
C1765 C1764 1.405 . S
C1765 H1791 0.931 . S
U1766 O1767 2.454 . S
U1766 O1768 2.458 . S
U1766 C1769 2.984 . S
U1766 C1770 2.847 . S
U1766 C1783 2.882 . S
U1766 O1784 2.441 . S
U1766 O1785 2.420 . S
U1766 O1786 2.455 . S
U1766 O1787 2.449 . S
O1767 U1766 2.454 . S
O1767 C1769 1.353 . S
O1768 U1766 2.458 . S
O1768 C1769 1.286 . S
C1769 U1766 2.984 . S
C1769 O1767 1.353 . S
C1769 O1768 1.286 . S
C1769 C1771 1.363 . S
C1770 C1760 1.465 . S
C1770 U1766 2.847 . S
C1770 O1784 1.249 . S
C1770 O1785 1.202 . S
C1771 C1769 1.363 . S
C1771 C1773 1.408 . S
C1771 C1776 1.342 . S
C1772 C1773 1.310 . S
C1772 C1775 1.461 . S
C1772 H1792 0.932 . S
C1773 C1771 1.408 . S
C1773 C1772 1.310 . S
C1773 H1793 0.930 . S
C1774 C1775 1.474 . S
C1774 C1776 1.285 . S
C1774 H1794 0.929 . S
C1775 C1772 1.461 . S
C1775 C1774 1.474 . S
C1776 C1771 1.342 . S
C1776 C1774 1.285 . S
C1776 H1795 0.930 . S
C1777 C1780 1.424 . S
C1777 C1782 1.245 . S
C1777 C1783 1.428 . S
C1778 C1781 1.260 . S
C1778 C1782 1.477 . S
C1778 H1796 0.932 . S
C1779 C1780 1.384 . S
C1779 C1781 1.479 . S
C1779 H1797 0.929 . S
C1780 C1777 1.424 . S
C1780 C1779 1.384 . S
C1780 H1798 0.928 . S
C1781 C1778 1.260 . S
C1781 C1779 1.479 . S
C1782 C1777 1.245 . S
C1782 C1778 1.477 . S
C1782 H1799 0.932 . S
C1783 U1766 2.882 . S
C1783 C1777 1.428 . S
C1783 O1786 1.301 . S
C1783 O1787 1.282 . S
O1784 U1766 2.441 . S
O1784 C1770 1.249 . S
O1785 U1766 2.420 . S
O1785 C1770 1.202 . S
O1786 U1766 2.455 . S
O1786 C1783 1.301 . S
O1787 U1766 2.449 . S
O1787 C1783 1.282 . S
H1788 C1761 0.931 . S
H1789 C1763 0.929 . S
H1790 C1764 0.930 . S
H1791 C1765 0.931 . S
H1792 C1772 0.932 . S
H1793 C1773 0.930 . S
H1794 C1774 0.929 . S
H1795 C1776 0.930 . S
H1796 C1778 0.932 . S
H1797 C1779 0.929 . S
H1798 C1780 0.928 . S
H1799 C1782 0.932 . S
C1800 C1801 1.264 . S
C1800 C1805 1.479 . S
C1800 C1810 1.465 . S
C1801 C1800 1.264 . S
C1801 C1803 1.339 . S
C1801 H1828 0.931 . S
C1802 C1803 1.395 . S
C1802 C1804 1.320 . S
C1803 C1801 1.339 . S
C1803 C1802 1.395 . S
C1803 H1829 0.929 . S
C1804 C1802 1.320 . S
C1804 C1805 1.405 . S
C1804 H1830 0.930 . S
C1805 C1800 1.479 . S
C1805 C1804 1.405 . S
C1805 H1831 0.931 . S
U1806 O1807 2.454 . S
U1806 O1808 2.458 . S
U1806 C1809 2.984 . S
U1806 C1810 2.847 . S
U1806 C1823 2.882 . S
U1806 O1824 2.441 . S
U1806 O1825 2.420 . S
U1806 O1826 2.455 . S
U1806 O1827 2.449 . S
O1807 U1806 2.454 . S
O1807 C1809 1.353 . S
O1808 U1806 2.458 . S
O1808 C1809 1.286 . S
C1809 U1806 2.984 . S
C1809 O1807 1.353 . S
C1809 O1808 1.286 . S
C1809 C1811 1.363 . S
C1810 C1800 1.465 . S
C1810 U1806 2.847 . S
C1810 O1824 1.249 . S
C1810 O1825 1.202 . S
C1811 C1809 1.363 . S
C1811 C1813 1.408 . S
C1811 C1816 1.342 . S
C1812 C1813 1.310 . S
C1812 C1815 1.461 . S
C1812 H1832 0.932 . S
C1813 C1811 1.408 . S
C1813 C1812 1.310 . S
C1813 H1833 0.930 . S
C1814 C1815 1.474 . S
C1814 C1816 1.285 . S
C1814 H1834 0.929 . S
C1815 C1812 1.461 . S
C1815 C1814 1.474 . S
C1816 C1811 1.342 . S
C1816 C1814 1.285 . S
C1816 H1835 0.930 . S
C1817 C1820 1.424 . S
C1817 C1822 1.245 . S
C1817 C1823 1.428 . S
C1818 C1821 1.260 . S
C1818 C1822 1.477 . S
C1818 H1836 0.932 . S
C1819 C1820 1.384 . S
C1819 C1821 1.479 . S
C1819 H1837 0.929 . S
C1820 C1817 1.424 . S
C1820 C1819 1.384 . S
C1820 H1838 0.928 . S
C1821 C1818 1.260 . S
C1821 C1819 1.479 . S
C1822 C1817 1.245 . S
C1822 C1818 1.477 . S
C1822 H1839 0.932 . S
C1823 U1806 2.882 . S
C1823 C1817 1.428 . S
C1823 O1826 1.301 . S
C1823 O1827 1.282 . S
O1824 U1806 2.441 . S
O1824 C1810 1.249 . S
O1825 U1806 2.420 . S
O1825 C1810 1.202 . S
O1826 U1806 2.455 . S
O1826 C1823 1.301 . S
O1827 U1806 2.449 . S
O1827 C1823 1.282 . S
H1828 C1801 0.931 . S
H1829 C1803 0.929 . S
H1830 C1804 0.930 . S
H1831 C1805 0.931 . S
H1832 C1812 0.932 . S
H1833 C1813 0.930 . S
H1834 C1814 0.929 . S
H1835 C1816 0.930 . S
H1836 C1818 0.932 . S
H1837 C1819 0.929 . S
H1838 C1820 0.928 . S
H1839 C1822 0.932 . S
C1840 C1841 1.264 . S
C1840 C1845 1.479 . S
C1840 C1850 1.465 . S
C1841 C1840 1.264 . S
C1841 C1843 1.339 . S
C1841 H1868 0.931 . S
C1842 C1843 1.395 . S
C1842 C1844 1.320 . S
C1843 C1841 1.339 . S
C1843 C1842 1.395 . S
C1843 H1869 0.929 . S
C1844 C1842 1.320 . S
C1844 C1845 1.405 . S
C1844 H1870 0.930 . S
C1845 C1840 1.479 . S
C1845 C1844 1.405 . S
C1845 H1871 0.931 . S
U1846 O1847 2.454 . S
U1846 O1848 2.458 . S
U1846 C1849 2.984 . S
U1846 C1850 2.847 . S
U1846 C1863 2.882 . S
U1846 O1864 2.441 . S
U1846 O1865 2.420 . S
U1846 O1866 2.455 . S
U1846 O1867 2.449 . S
O1847 U1846 2.454 . S
O1847 C1849 1.353 . S
O1848 U1846 2.458 . S
O1848 C1849 1.286 . S
C1849 U1846 2.984 . S
C1849 O1847 1.353 . S
C1849 O1848 1.286 . S
C1849 C1851 1.363 . S
C1850 C1840 1.465 . S
C1850 U1846 2.847 . S
C1850 O1864 1.249 . S
C1850 O1865 1.202 . S
C1851 C1849 1.363 . S
C1851 C1853 1.408 . S
C1851 C1856 1.342 . S
C1852 C1853 1.310 . S
C1852 C1855 1.461 . S
C1852 H1872 0.932 . S
C1853 C1851 1.408 . S
C1853 C1852 1.310 . S
C1853 H1873 0.930 . S
C1854 C1855 1.474 . S
C1854 C1856 1.285 . S
C1854 H1874 0.929 . S
C1855 C1852 1.461 . S
C1855 C1854 1.474 . S
C1856 C1851 1.342 . S
C1856 C1854 1.285 . S
C1856 H1875 0.930 . S
C1857 C1860 1.424 . S
C1857 C1862 1.245 . S
C1857 C1863 1.428 . S
C1858 C1861 1.260 . S
C1858 C1862 1.477 . S
C1858 H1876 0.932 . S
C1859 C1860 1.384 . S
C1859 C1861 1.479 . S
C1859 H1877 0.929 . S
C1860 C1857 1.424 . S
C1860 C1859 1.384 . S
C1860 H1878 0.928 . S
C1861 C1858 1.260 . S
C1861 C1859 1.479 . S
C1862 C1857 1.245 . S
C1862 C1858 1.477 . S
C1862 H1879 0.932 . S
C1863 U1846 2.882 . S
C1863 C1857 1.428 . S
C1863 O1866 1.301 . S
C1863 O1867 1.282 . S
O1864 U1846 2.441 . S
O1864 C1850 1.249 . S
O1865 U1846 2.420 . S
O1865 C1850 1.202 . S
O1866 U1846 2.455 . S
O1866 C1863 1.301 . S
O1867 U1846 2.449 . S
O1867 C1863 1.282 . S
H1868 C1841 0.931 . S
H1869 C1843 0.929 . S
H1870 C1844 0.930 . S
H1871 C1845 0.931 . S
H1872 C1852 0.932 . S
H1873 C1853 0.930 . S
H1874 C1854 0.929 . S
H1875 C1856 0.930 . S
H1876 C1858 0.932 . S
H1877 C1859 0.929 . S
H1878 C1860 0.928 . S
H1879 C1862 0.932 . S
C1880 C1881 1.264 . S
C1880 C1885 1.479 . S
C1880 C1890 1.465 . S
C1881 C1880 1.264 . S
C1881 C1883 1.339 . S
C1881 H1908 0.931 . S
C1882 C1883 1.395 . S
C1882 C1884 1.320 . S
C1883 C1881 1.339 . S
C1883 C1882 1.395 . S
C1883 H1909 0.929 . S
C1884 C1882 1.320 . S
C1884 C1885 1.405 . S
C1884 H1910 0.930 . S
C1885 C1880 1.479 . S
C1885 C1884 1.405 . S
C1885 H1911 0.931 . S
U1886 O1887 2.454 . S
U1886 O1888 2.458 . S
U1886 C1889 2.984 . S
U1886 C1890 2.847 . S
U1886 C1903 2.882 . S
U1886 O1904 2.441 . S
U1886 O1905 2.420 . S
U1886 O1906 2.455 . S
U1886 O1907 2.449 . S
O1887 U1886 2.454 . S
O1887 C1889 1.353 . S
O1888 U1886 2.458 . S
O1888 C1889 1.286 . S
C1889 U1886 2.984 . S
C1889 O1887 1.353 . S
C1889 O1888 1.286 . S
C1889 C1891 1.363 . S
C1890 C1880 1.465 . S
C1890 U1886 2.847 . S
C1890 O1904 1.249 . S
C1890 O1905 1.202 . S
C1891 C1889 1.363 . S
C1891 C1893 1.408 . S
C1891 C1896 1.342 . S
C1892 C1893 1.310 . S
C1892 C1895 1.461 . S
C1892 H1912 0.932 . S
C1893 C1891 1.408 . S
C1893 C1892 1.310 . S
C1893 H1913 0.930 . S
C1894 C1895 1.474 . S
C1894 C1896 1.285 . S
C1894 H1914 0.929 . S
C1895 C1892 1.461 . S
C1895 C1894 1.474 . S
C1896 C1891 1.342 . S
C1896 C1894 1.285 . S
C1896 H1915 0.930 . S
C1897 C1900 1.424 . S
C1897 C1902 1.245 . S
C1897 C1903 1.428 . S
C1898 C1901 1.260 . S
C1898 C1902 1.477 . S
C1898 H1916 0.932 . S
C1899 C1900 1.384 . S
C1899 C1901 1.479 . S
C1899 H1917 0.929 . S
C1900 C1897 1.424 . S
C1900 C1899 1.384 . S
C1900 H1918 0.928 . S
C1901 C1898 1.260 . S
C1901 C1899 1.479 . S
C1902 C1897 1.245 . S
C1902 C1898 1.477 . S
C1902 H1919 0.932 . S
C1903 U1886 2.882 . S
C1903 C1897 1.428 . S
C1903 O1906 1.301 . S
C1903 O1907 1.282 . S
O1904 U1886 2.441 . S
O1904 C1890 1.249 . S
O1905 U1886 2.420 . S
O1905 C1890 1.202 . S
O1906 U1886 2.455 . S
O1906 C1903 1.301 . S
O1907 U1886 2.449 . S
O1907 C1903 1.282 . S
H1908 C1881 0.931 . S
H1909 C1883 0.929 . S
H1910 C1884 0.930 . S
H1911 C1885 0.931 . S
H1912 C1892 0.932 . S
H1913 C1893 0.930 . S
H1914 C1894 0.929 . S
H1915 C1896 0.930 . S
H1916 C1898 0.932 . S
H1917 C1899 0.929 . S
H1918 C1900 0.928 . S
H1919 C1902 0.932 . S
C1920 C1921 1.264 . S
C1920 C1925 1.479 . S
C1920 C1930 1.465 . S
C1921 C1920 1.264 . S
C1921 C1923 1.339 . S
C1921 H1948 0.931 . S
C1922 C1923 1.395 . S
C1922 C1924 1.320 . S
C1923 C1921 1.339 . S
C1923 C1922 1.395 . S
C1923 H1949 0.929 . S
C1924 C1922 1.320 . S
C1924 C1925 1.405 . S
C1924 H1950 0.930 . S
C1925 C1920 1.479 . S
C1925 C1924 1.405 . S
C1925 H1951 0.931 . S
U1926 O1927 2.454 . S
U1926 O1928 2.458 . S
U1926 C1929 2.984 . S
U1926 C1930 2.847 . S
U1926 C1943 2.882 . S
U1926 O1944 2.441 . S
U1926 O1945 2.420 . S
U1926 O1946 2.455 . S
U1926 O1947 2.449 . S
O1927 U1926 2.454 . S
O1927 C1929 1.353 . S
O1928 U1926 2.458 . S
O1928 C1929 1.286 . S
C1929 U1926 2.984 . S
C1929 O1927 1.353 . S
C1929 O1928 1.286 . S
C1929 C1931 1.363 . S
C1930 C1920 1.465 . S
C1930 U1926 2.847 . S
C1930 O1944 1.249 . S
C1930 O1945 1.202 . S
C1931 C1929 1.363 . S
C1931 C1933 1.408 . S
C1931 C1936 1.342 . S
C1932 C1933 1.310 . S
C1932 C1935 1.461 . S
C1932 H1952 0.932 . S
C1933 C1931 1.408 . S
C1933 C1932 1.310 . S
C1933 H1953 0.930 . S
C1934 C1935 1.474 . S
C1934 C1936 1.285 . S
C1934 H1954 0.929 . S
C1935 C1932 1.461 . S
C1935 C1934 1.474 . S
C1936 C1931 1.342 . S
C1936 C1934 1.285 . S
C1936 H1955 0.930 . S
C1937 C1940 1.424 . S
C1937 C1942 1.245 . S
C1937 C1943 1.428 . S
C1938 C1941 1.260 . S
C1938 C1942 1.477 . S
C1938 H1956 0.932 . S
C1939 C1940 1.384 . S
C1939 C1941 1.479 . S
C1939 H1957 0.929 . S
C1940 C1937 1.424 . S
C1940 C1939 1.384 . S
C1940 H1958 0.928 . S
C1941 C1938 1.260 . S
C1941 C1939 1.479 . S
C1942 C1937 1.245 . S
C1942 C1938 1.477 . S
C1942 H1959 0.932 . S
C1943 U1926 2.882 . S
C1943 C1937 1.428 . S
C1943 O1946 1.301 . S
C1943 O1947 1.282 . S
O1944 U1926 2.441 . S
O1944 C1930 1.249 . S
O1945 U1926 2.420 . S
O1945 C1930 1.202 . S
O1946 U1926 2.455 . S
O1946 C1943 1.301 . S
O1947 U1926 2.449 . S
O1947 C1943 1.282 . S
H1948 C1921 0.931 . S
H1949 C1923 0.929 . S
H1950 C1924 0.930 . S
H1951 C1925 0.931 . S
H1952 C1932 0.932 . S
H1953 C1933 0.930 . S
H1954 C1934 0.929 . S
H1955 C1936 0.930 . S
H1956 C1938 0.932 . S
H1957 C1939 0.929 . S
H1958 C1940 0.928 . S
H1959 C1942 0.932 . S
C1960 C1961 1.264 . S
C1960 C1965 1.479 . S
C1960 C1970 1.465 . S
C1961 C1960 1.264 . S
C1961 C1963 1.339 . S
C1961 H1988 0.931 . S
C1962 C1963 1.395 . S
C1962 C1964 1.320 . S
C1963 C1961 1.339 . S
C1963 C1962 1.395 . S
C1963 H1989 0.929 . S
C1964 C1962 1.320 . S
C1964 C1965 1.405 . S
C1964 H1990 0.930 . S
C1965 C1960 1.479 . S
C1965 C1964 1.405 . S
C1965 H1991 0.931 . S
U1966 O1967 2.454 . S
U1966 O1968 2.458 . S
U1966 C1969 2.984 . S
U1966 C1970 2.847 . S
U1966 C1983 2.882 . S
U1966 O1984 2.441 . S
U1966 O1985 2.420 . S
U1966 O1986 2.455 . S
U1966 O1987 2.449 . S
O1967 U1966 2.454 . S
O1967 C1969 1.353 . S
O1968 U1966 2.458 . S
O1968 C1969 1.286 . S
C1969 U1966 2.984 . S
C1969 O1967 1.353 . S
C1969 O1968 1.286 . S
C1969 C1971 1.363 . S
C1970 C1960 1.465 . S
C1970 U1966 2.847 . S
C1970 O1984 1.249 . S
C1970 O1985 1.202 . S
C1971 C1969 1.363 . S
C1971 C1973 1.408 . S
C1971 C1976 1.342 . S
C1972 C1973 1.310 . S
C1972 C1975 1.461 . S
C1972 H1992 0.932 . S
C1973 C1971 1.408 . S
C1973 C1972 1.310 . S
C1973 H1993 0.930 . S
C1974 C1975 1.474 . S
C1974 C1976 1.285 . S
C1974 H1994 0.929 . S
C1975 C1972 1.461 . S
C1975 C1974 1.474 . S
C1976 C1971 1.342 . S
C1976 C1974 1.285 . S
C1976 H1995 0.930 . S
C1977 C1980 1.424 . S
C1977 C1982 1.245 . S
C1977 C1983 1.428 . S
C1978 C1981 1.260 . S
C1978 C1982 1.477 . S
C1978 H1996 0.932 . S
C1979 C1980 1.384 . S
C1979 C1981 1.479 . S
C1979 H1997 0.929 . S
C1980 C1977 1.424 . S
C1980 C1979 1.384 . S
C1980 H1998 0.928 . S
C1981 C1978 1.260 . S
C1981 C1979 1.479 . S
C1982 C1977 1.245 . S
C1982 C1978 1.477 . S
C1982 H1999 0.932 . S
C1983 U1966 2.882 . S
C1983 C1977 1.428 . S
C1983 O1986 1.301 . S
C1983 O1987 1.282 . S
O1984 U1966 2.441 . S
O1984 C1970 1.249 . S
O1985 U1966 2.420 . S
O1985 C1970 1.202 . S
O1986 U1966 2.455 . S
O1986 C1983 1.301 . S
O1987 U1966 2.449 . S
O1987 C1983 1.282 . S
H1988 C1961 0.931 . S
H1989 C1963 0.929 . S
H1990 C1964 0.930 . S
H1991 C1965 0.931 . S
H1992 C1972 0.932 . S
H1993 C1973 0.930 . S
H1994 C1974 0.929 . S
H1995 C1976 0.930 . S
H1996 C1978 0.932 . S
H1997 C1979 0.929 . S
H1998 C1980 0.928 . S
H1999 C1982 0.932 . S
C2000 C2001 1.264 . S
C2000 C2005 1.479 . S
C2000 C2010 1.465 . S
C2001 C2000 1.264 . S
C2001 C2003 1.339 . S
C2001 H2028 0.931 . S
C2002 C2003 1.395 . S
C2002 C2004 1.320 . S
C2003 C2001 1.339 . S
C2003 C2002 1.395 . S
C2003 H2029 0.929 . S
C2004 C2002 1.320 . S
C2004 C2005 1.405 . S
C2004 H2030 0.930 . S
C2005 C2000 1.479 . S
C2005 C2004 1.405 . S
C2005 H2031 0.931 . S
U2006 O2007 2.454 . S
U2006 O2008 2.458 . S
U2006 C2009 2.984 . S
U2006 C2010 2.847 . S
U2006 C2023 2.882 . S
U2006 O2024 2.441 . S
U2006 O2025 2.420 . S
U2006 O2026 2.455 . S
U2006 O2027 2.449 . S
O2007 U2006 2.454 . S
O2007 C2009 1.353 . S
O2008 U2006 2.458 . S
O2008 C2009 1.286 . S
C2009 U2006 2.984 . S
C2009 O2007 1.353 . S
C2009 O2008 1.286 . S
C2009 C2011 1.363 . S
C2010 C2000 1.465 . S
C2010 U2006 2.847 . S
C2010 O2024 1.249 . S
C2010 O2025 1.202 . S
C2011 C2009 1.363 . S
C2011 C2013 1.408 . S
C2011 C2016 1.342 . S
C2012 C2013 1.310 . S
C2012 C2015 1.461 1_655 S
C2012 H2032 0.921 1_655 S
C2013 C2011 1.408 . S
C2013 C2012 1.310 . S
C2013 H2033 0.930 . S
C2014 C2015 1.474 1_655 S
C2014 C2016 1.285 . S
C2014 H2034 0.929 1_655 S
C2015 C2012 1.461 1_455 S
C2015 C2014 1.474 1_455 S
C2016 C2011 1.342 . S
C2016 C2014 1.285 . S
C2016 H2035 0.930 . S
C2017 C2020 1.424 . S
C2017 C2022 1.245 . S
C2017 C2023 1.428 . S
C2018 C2021 1.260 . S
C2018 C2022 1.477 . S
C2018 H2036 0.932 . S
C2019 C2020 1.384 . S
C2019 C2021 1.479 . S
C2019 H2037 0.929 . S
C2020 C2017 1.424 . S
C2020 C2019 1.384 . S
C2020 H2038 0.928 . S
C2021 C2018 1.260 . S
C2021 C2019 1.479 . S
C2022 C2017 1.245 . S
C2022 C2018 1.477 . S
C2022 H2039 0.932 . S
C2023 U2006 2.882 . S
C2023 C2017 1.428 . S
C2023 O2026 1.301 . S
C2023 O2027 1.282 . S
O2024 U2006 2.441 . S
O2024 C2010 1.249 . S
O2025 U2006 2.420 . S
O2025 C2010 1.202 . S
O2026 U2006 2.455 . S
O2026 C2023 1.301 . S
O2027 U2006 2.449 . S
O2027 C2023 1.282 . S
H2028 C2001 0.931 . S
H2029 C2003 0.929 . S
H2030 C2004 0.930 . S
H2031 C2005 0.931 . S
H2032 C2012 0.921 1_455 S
H2033 C2013 0.930 . S
H2034 C2014 0.929 1_455 S
H2035 C2016 0.930 . S
H2036 C2018 0.932 . S
H2037 C2019 0.929 . S
H2038 C2020 0.928 . S
H2039 C2022 0.932 . S
C2040 C2041 1.264 . S
C2040 C2045 1.479 . S
C2040 C2050 1.465 . S
C2041 C2040 1.264 . S
C2041 C2043 1.339 . S
C2041 H2068 0.931 . S
C2042 C2043 1.395 . S
C2042 C2044 1.320 . S
C2043 C2041 1.339 . S
C2043 C2042 1.395 . S
C2043 H2069 0.929 . S
C2044 C2042 1.320 . S
C2044 C2045 1.405 . S
C2044 H2070 0.930 . S
C2045 C2040 1.479 . S
C2045 C2044 1.405 . S
C2045 H2071 0.931 . S
U2046 O2047 2.454 . S
U2046 O2048 2.458 . S
U2046 C2049 2.984 . S
U2046 C2050 2.847 . S
U2046 C2063 2.882 . S
U2046 O2064 2.441 . S
U2046 O2065 2.420 . S
U2046 O2066 2.455 . S
U2046 O2067 2.449 . S
O2047 U2046 2.454 . S
O2047 C2049 1.353 . S
O2048 U2046 2.458 . S
O2048 C2049 1.286 . S
C2049 U2046 2.984 . S
C2049 O2047 1.353 . S
C2049 O2048 1.286 . S
C2049 C2051 1.363 . S
C2050 C2040 1.465 . S
C2050 U2046 2.847 . S
C2050 O2064 1.249 . S
C2050 O2065 1.202 . S
C2051 C2049 1.363 . S
C2051 C2053 1.408 . S
C2051 C2056 1.342 . S
C2052 C2053 1.310 . S
C2052 C2055 1.461 . S
C2052 H2072 0.932 . S
C2053 C2051 1.408 . S
C2053 C2052 1.310 . S
C2053 H2073 0.930 . S
C2054 C2055 1.474 . S
C2054 C2056 1.285 . S
C2054 H2074 0.929 . S
C2055 C2052 1.461 . S
C2055 C2054 1.474 . S
C2056 C2051 1.342 . S
C2056 C2054 1.285 . S
C2056 H2075 0.930 . S
C2057 C2060 1.424 . S
C2057 C2062 1.245 . S
C2057 C2063 1.428 . S
C2058 C2061 1.260 . S
C2058 C2062 1.477 . S
C2058 H2076 0.932 . S
C2059 C2060 1.384 . S
C2059 C2061 1.479 . S
C2059 H2077 0.929 . S
C2060 C2057 1.424 . S
C2060 C2059 1.384 . S
C2060 H2078 0.928 . S
C2061 C2058 1.260 . S
C2061 C2059 1.479 . S
C2062 C2057 1.245 . S
C2062 C2058 1.477 . S
C2062 H2079 0.932 . S
C2063 U2046 2.882 . S
C2063 C2057 1.428 . S
C2063 O2066 1.301 . S
C2063 O2067 1.282 . S
O2064 U2046 2.441 . S
O2064 C2050 1.249 . S
O2065 U2046 2.420 . S
O2065 C2050 1.202 . S
O2066 U2046 2.455 . S
O2066 C2063 1.301 . S
O2067 U2046 2.449 . S
O2067 C2063 1.282 . S
H2068 C2041 0.931 . S
H2069 C2043 0.929 . S
H2070 C2044 0.930 . S
H2071 C2045 0.931 . S
H2072 C2052 0.932 . S
H2073 C2053 0.930 . S
H2074 C2054 0.929 . S
H2075 C2056 0.930 . S
H2076 C2058 0.932 . S
H2077 C2059 0.929 . S
H2078 C2060 0.928 . S
H2079 C2062 0.932 . S
C2080 C2081 1.264 . S
C2080 C2085 1.479 . S
C2080 C2090 1.465 . S
C2081 C2080 1.264 . S
C2081 C2083 1.339 . S
C2081 H2108 0.931 . S
C2082 C2083 1.395 . S
C2082 C2084 1.320 . S
C2083 C2081 1.339 . S
C2083 C2082 1.395 . S
C2083 H2109 0.929 . S
C2084 C2082 1.320 . S
C2084 C2085 1.405 . S
C2084 H2110 0.930 . S
C2085 C2080 1.479 . S
C2085 C2084 1.405 . S
C2085 H2111 0.931 . S
U2086 O2087 2.454 . S
U2086 O2088 2.458 . S
U2086 C2089 2.984 . S
U2086 C2090 2.847 . S
U2086 C2103 2.882 . S
U2086 O2104 2.441 . S
U2086 O2105 2.420 . S
U2086 O2106 2.455 . S
U2086 O2107 2.449 . S
O2087 U2086 2.454 . S
O2087 C2089 1.353 . S
O2088 U2086 2.458 . S
O2088 C2089 1.286 . S
C2089 U2086 2.984 . S
C2089 O2087 1.353 . S
C2089 O2088 1.286 . S
C2089 C2091 1.363 . S
C2090 C2080 1.465 . S
C2090 U2086 2.847 . S
C2090 O2104 1.249 . S
C2090 O2105 1.202 . S
C2091 C2089 1.363 . S
C2091 C2093 1.408 . S
C2091 C2096 1.342 . S
C2092 C2093 1.310 . S
C2092 C2095 1.461 . S
C2092 H2112 0.932 . S
C2093 C2091 1.408 . S
C2093 C2092 1.310 . S
C2093 H2113 0.930 . S
C2094 C2095 1.474 . S
C2094 C2096 1.285 . S
C2094 H2114 0.929 . S
C2095 C2092 1.461 . S
C2095 C2094 1.474 . S
C2096 C2091 1.342 . S
C2096 C2094 1.285 . S
C2096 H2115 0.930 . S
C2097 C2100 1.424 . S
C2097 C2102 1.245 . S
C2097 C2103 1.428 . S
C2098 C2101 1.260 . S
C2098 C2102 1.477 . S
C2098 H2116 0.932 . S
C2099 C2100 1.384 . S
C2099 C2101 1.479 . S
C2099 H2117 0.929 . S
C2100 C2097 1.424 . S
C2100 C2099 1.384 . S
C2100 H2118 0.928 . S
C2101 C2098 1.260 . S
C2101 C2099 1.479 . S
C2102 C2097 1.245 . S
C2102 C2098 1.477 . S
C2102 H2119 0.932 . S
C2103 U2086 2.882 . S
C2103 C2097 1.428 . S
C2103 O2106 1.301 . S
C2103 O2107 1.282 . S
O2104 U2086 2.441 . S
O2104 C2090 1.249 . S
O2105 U2086 2.420 . S
O2105 C2090 1.202 . S
O2106 U2086 2.455 . S
O2106 C2103 1.301 . S
O2107 U2086 2.449 . S
O2107 C2103 1.282 . S
H2108 C2081 0.931 . S
H2109 C2083 0.929 . S
H2110 C2084 0.930 . S
H2111 C2085 0.931 . S
H2112 C2092 0.932 . S
H2113 C2093 0.930 . S
H2114 C2094 0.929 . S
H2115 C2096 0.930 . S
H2116 C2098 0.932 . S
H2117 C2099 0.929 . S
H2118 C2100 0.928 . S
H2119 C2102 0.932 . S
C2120 C2121 1.264 . S
C2120 C2125 1.479 . S
C2120 C2130 1.465 . S
C2121 C2120 1.264 . S
C2121 C2123 1.339 . S
C2121 H2148 0.931 . S
C2122 C2123 1.395 . S
C2122 C2124 1.320 . S
C2123 C2121 1.339 . S
C2123 C2122 1.395 . S
C2123 H2149 0.929 . S
C2124 C2122 1.320 . S
C2124 C2125 1.405 . S
C2124 H2150 0.930 . S
C2125 C2120 1.479 . S
C2125 C2124 1.405 . S
C2125 H2151 0.931 . S
U2126 O2127 2.454 . S
U2126 O2128 2.458 . S
U2126 C2129 2.984 . S
U2126 C2130 2.847 . S
U2126 C2143 2.882 . S
U2126 O2144 2.441 . S
U2126 O2145 2.420 . S
U2126 O2146 2.455 . S
U2126 O2147 2.449 . S
O2127 U2126 2.454 . S
O2127 C2129 1.353 . S
O2128 U2126 2.458 . S
O2128 C2129 1.286 . S
C2129 U2126 2.984 . S
C2129 O2127 1.353 . S
C2129 O2128 1.286 . S
C2129 C2131 1.363 . S
C2130 C2120 1.465 . S
C2130 U2126 2.847 . S
C2130 O2144 1.249 . S
C2130 O2145 1.202 . S
C2131 C2129 1.363 . S
C2131 C2133 1.408 . S
C2131 C2136 1.342 . S
C2132 C2133 1.310 . S
C2132 C2135 1.461 . S
C2132 H2152 0.932 . S
C2133 C2131 1.408 . S
C2133 C2132 1.310 . S
C2133 H2153 0.930 . S
C2134 C2135 1.474 . S
C2134 C2136 1.285 . S
C2134 H2154 0.929 . S
C2135 C2132 1.461 . S
C2135 C2134 1.474 . S
C2136 C2131 1.342 . S
C2136 C2134 1.285 . S
C2136 H2155 0.930 . S
C2137 C2140 1.424 . S
C2137 C2142 1.245 . S
C2137 C2143 1.428 . S
C2138 C2141 1.260 . S
C2138 C2142 1.477 . S
C2138 H2156 0.932 . S
C2139 C2140 1.384 . S
C2139 C2141 1.479 . S
C2139 H2157 0.929 . S
C2140 C2137 1.424 . S
C2140 C2139 1.384 . S
C2140 H2158 0.928 . S
C2141 C2138 1.260 . S
C2141 C2139 1.479 . S
C2142 C2137 1.245 . S
C2142 C2138 1.477 . S
C2142 H2159 0.932 . S
C2143 U2126 2.882 . S
C2143 C2137 1.428 . S
C2143 O2146 1.301 . S
C2143 O2147 1.282 . S
O2144 U2126 2.441 . S
O2144 C2130 1.249 . S
O2145 U2126 2.420 . S
O2145 C2130 1.202 . S
O2146 U2126 2.455 . S
O2146 C2143 1.301 . S
O2147 U2126 2.449 . S
O2147 C2143 1.282 . S
H2148 C2121 0.931 . S
H2149 C2123 0.929 . S
H2150 C2124 0.930 . S
H2151 C2125 0.931 . S
H2152 C2132 0.932 . S
H2153 C2133 0.930 . S
H2154 C2134 0.929 . S
H2155 C2136 0.930 . S
H2156 C2138 0.932 . S
H2157 C2139 0.929 . S
H2158 C2140 0.928 . S
H2159 C2142 0.932 . S
C2160 C2161 1.264 . S
C2160 C2165 1.479 . S
C2160 C2170 1.465 . S
C2161 C2160 1.264 . S
C2161 C2163 1.339 . S
C2161 H2188 0.931 . S
C2162 C2163 1.395 . S
C2162 C2164 1.320 . S
C2163 C2161 1.339 . S
C2163 C2162 1.395 . S
C2163 H2189 0.929 . S
C2164 C2162 1.320 . S
C2164 C2165 1.405 . S
C2164 H2190 0.930 . S
C2165 C2160 1.479 . S
C2165 C2164 1.405 . S
C2165 H2191 0.931 . S
U2166 O2167 2.454 . S
U2166 O2168 2.458 . S
U2166 C2169 2.984 . S
U2166 C2170 2.847 . S
U2166 C2183 2.882 . S
U2166 O2184 2.441 . S
U2166 O2185 2.420 . S
U2166 O2186 2.455 . S
U2166 O2187 2.449 . S
O2167 U2166 2.454 . S
O2167 C2169 1.353 . S
O2168 U2166 2.458 . S
O2168 C2169 1.286 . S
C2169 U2166 2.984 . S
C2169 O2167 1.353 . S
C2169 O2168 1.286 . S
C2169 C2171 1.363 . S
C2170 C2160 1.465 . S
C2170 U2166 2.847 . S
C2170 O2184 1.249 . S
C2170 O2185 1.202 . S
C2171 C2169 1.363 . S
C2171 C2173 1.408 . S
C2171 C2176 1.342 . S
C2172 C2173 1.310 . S
C2172 C2175 1.461 1_655 S
C2172 H2192 0.919 1_655 S
C2173 C2171 1.408 . S
C2173 C2172 1.310 . S
C2173 H2193 0.930 . S
C2174 C2175 1.474 1_655 S
C2174 C2176 1.285 . S
C2174 H2194 0.929 1_655 S
C2175 C2172 1.461 1_455 S
C2175 C2174 1.474 1_455 S
C2176 C2171 1.342 . S
C2176 C2174 1.285 . S
C2176 H2195 0.930 . S
C2177 C2180 1.424 . S
C2177 C2182 1.245 . S
C2177 C2183 1.428 . S
C2178 C2181 1.260 . S
C2178 C2182 1.477 . S
C2178 H2196 0.932 . S
C2179 C2180 1.384 . S
C2179 C2181 1.479 . S
C2179 H2197 0.929 . S
C2180 C2177 1.424 . S
C2180 C2179 1.384 . S
C2180 H2198 0.928 . S
C2181 C2178 1.260 . S
C2181 C2179 1.479 . S
C2182 C2177 1.245 . S
C2182 C2178 1.477 . S
C2182 H2199 0.932 . S
C2183 U2166 2.882 . S
C2183 C2177 1.428 . S
C2183 O2186 1.301 . S
C2183 O2187 1.282 . S
O2184 U2166 2.441 . S
O2184 C2170 1.249 . S
O2185 U2166 2.420 . S
O2185 C2170 1.202 . S
O2186 U2166 2.455 . S
O2186 C2183 1.301 . S
O2187 U2166 2.449 . S
O2187 C2183 1.282 . S
H2188 C2161 0.931 . S
H2189 C2163 0.929 . S
H2190 C2164 0.930 . S
H2191 C2165 0.931 . S
H2192 C2172 0.919 1_455 S
H2193 C2173 0.930 . S
H2194 C2174 0.929 1_455 S
H2195 C2176 0.930 . S
H2196 C2178 0.932 . S
H2197 C2179 0.929 . S
H2198 C2180 0.928 . S
H2199 C2182 0.932 . S
C2200 C2201 1.264 . S
C2200 C2205 1.479 . S
C2200 C2210 1.465 . S
C2201 C2200 1.264 . S
C2201 C2203 1.339 . S
C2201 H2228 0.931 . S
C2202 C2203 1.395 . S
C2202 C2204 1.320 . S
C2203 C2201 1.339 . S
C2203 C2202 1.395 . S
C2203 H2229 0.929 . S
C2204 C2202 1.320 . S
C2204 C2205 1.405 . S
C2204 H2230 0.930 . S
C2205 C2200 1.479 . S
C2205 C2204 1.405 . S
C2205 H2231 0.931 . S
U2206 O2207 2.454 . S
U2206 O2208 2.458 . S
U2206 C2209 2.984 . S
U2206 C2210 2.847 . S
U2206 C2223 2.882 . S
U2206 O2224 2.441 . S
U2206 O2225 2.420 . S
U2206 O2226 2.455 . S
U2206 O2227 2.449 . S
O2207 U2206 2.454 . S
O2207 C2209 1.353 . S
O2208 U2206 2.458 . S
O2208 C2209 1.286 . S
C2209 U2206 2.984 . S
C2209 O2207 1.353 . S
C2209 O2208 1.286 . S
C2209 C2211 1.363 . S
C2210 C2200 1.465 . S
C2210 U2206 2.847 . S
C2210 O2224 1.249 . S
C2210 O2225 1.202 . S
C2211 C2209 1.363 . S
C2211 C2213 1.408 . S
C2211 C2216 1.342 . S
C2212 C2213 1.310 . S
C2212 C2215 1.461 . S
C2212 H2232 0.932 . S
C2213 C2211 1.408 . S
C2213 C2212 1.310 . S
C2213 H2233 0.930 . S
C2214 C2215 1.474 . S
C2214 C2216 1.285 . S
C2214 H2234 0.929 . S
C2215 C2212 1.461 . S
C2215 C2214 1.474 . S
C2216 C2211 1.342 . S
C2216 C2214 1.285 . S
C2216 H2235 0.930 . S
C2217 C2220 1.424 . S
C2217 C2222 1.245 . S
C2217 C2223 1.428 . S
C2218 C2221 1.260 . S
C2218 C2222 1.477 . S
C2218 H2236 0.932 . S
C2219 C2220 1.384 . S
C2219 C2221 1.479 . S
C2219 H2237 0.929 . S
C2220 C2217 1.424 . S
C2220 C2219 1.384 . S
C2220 H2238 0.928 . S
C2221 C2218 1.260 . S
C2221 C2219 1.479 . S
C2222 C2217 1.245 . S
C2222 C2218 1.477 . S
C2222 H2239 0.932 . S
C2223 U2206 2.882 . S
C2223 C2217 1.428 . S
C2223 O2226 1.301 . S
C2223 O2227 1.282 . S
O2224 U2206 2.441 . S
O2224 C2210 1.249 . S
O2225 U2206 2.420 . S
O2225 C2210 1.202 . S
O2226 U2206 2.455 . S
O2226 C2223 1.301 . S
O2227 U2206 2.449 . S
O2227 C2223 1.282 . S
H2228 C2201 0.931 . S
H2229 C2203 0.929 . S
H2230 C2204 0.930 . S
H2231 C2205 0.931 . S
H2232 C2212 0.932 . S
H2233 C2213 0.930 . S
H2234 C2214 0.929 . S
H2235 C2216 0.930 . S
H2236 C2218 0.932 . S
H2237 C2219 0.929 . S
H2238 C2220 0.928 . S
H2239 C2222 0.932 . S
C2240 C2241 1.264 . S
C2240 C2245 1.479 . S
C2240 C2250 1.465 . S
C2241 C2240 1.264 . S
C2241 C2243 1.339 . S
C2241 H2268 0.931 . S
C2242 C2243 1.395 . S
C2242 C2244 1.320 . S
C2243 C2241 1.339 . S
C2243 C2242 1.395 . S
C2243 H2269 0.929 . S
C2244 C2242 1.320 . S
C2244 C2245 1.405 . S
C2244 H2270 0.930 . S
C2245 C2240 1.479 . S
C2245 C2244 1.405 . S
C2245 H2271 0.931 . S
U2246 O2247 2.454 . S
U2246 O2248 2.458 . S
U2246 C2249 2.984 . S
U2246 C2250 2.847 . S
U2246 C2263 2.882 . S
U2246 O2264 2.441 . S
U2246 O2265 2.420 . S
U2246 O2266 2.455 . S
U2246 O2267 2.449 . S
O2247 U2246 2.454 . S
O2247 C2249 1.353 . S
O2248 U2246 2.458 . S
O2248 C2249 1.286 . S
C2249 U2246 2.984 . S
C2249 O2247 1.353 . S
C2249 O2248 1.286 . S
C2249 C2251 1.363 . S
C2250 C2240 1.465 . S
C2250 U2246 2.847 . S
C2250 O2264 1.249 . S
C2250 O2265 1.202 . S
C2251 C2249 1.363 . S
C2251 C2253 1.408 . S
C2251 C2256 1.342 . S
C2252 C2253 1.310 . S
C2252 C2255 1.461 . S
C2252 H2272 0.932 . S
C2253 C2251 1.408 . S
C2253 C2252 1.310 . S
C2253 H2273 0.930 . S
C2254 C2255 1.474 . S
C2254 C2256 1.285 . S
C2254 H2274 0.929 . S
C2255 C2252 1.461 . S
C2255 C2254 1.474 . S
C2256 C2251 1.342 . S
C2256 C2254 1.285 . S
C2256 H2275 0.930 . S
C2257 C2260 1.424 . S
C2257 C2262 1.245 . S
C2257 C2263 1.428 . S
C2258 C2261 1.260 . S
C2258 C2262 1.477 . S
C2258 H2276 0.932 . S
C2259 C2260 1.384 . S
C2259 C2261 1.479 . S
C2259 H2277 0.929 . S
C2260 C2257 1.424 . S
C2260 C2259 1.384 . S
C2260 H2278 0.928 . S
C2261 C2258 1.260 . S
C2261 C2259 1.479 . S
C2262 C2257 1.245 . S
C2262 C2258 1.477 . S
C2262 H2279 0.932 . S
C2263 U2246 2.882 . S
C2263 C2257 1.428 . S
C2263 O2266 1.301 . S
C2263 O2267 1.282 . S
O2264 U2246 2.441 . S
O2264 C2250 1.249 . S
O2265 U2246 2.420 . S
O2265 C2250 1.202 . S
O2266 U2246 2.455 . S
O2266 C2263 1.301 . S
O2267 U2246 2.449 . S
O2267 C2263 1.282 . S
H2268 C2241 0.931 . S
H2269 C2243 0.929 . S
H2270 C2244 0.930 . S
H2271 C2245 0.931 . S
H2272 C2252 0.932 . S
H2273 C2253 0.930 . S
H2274 C2254 0.929 . S
H2275 C2256 0.930 . S
H2276 C2258 0.932 . S
H2277 C2259 0.929 . S
H2278 C2260 0.928 . S
H2279 C2262 0.932 . S
C2280 C2281 1.264 . S
C2280 C2285 1.479 . S
C2280 C2290 1.465 . S
C2281 C2280 1.264 . S
C2281 C2283 1.339 . S
C2281 H2308 0.931 . S
C2282 C2283 1.395 . S
C2282 C2284 1.320 . S
C2283 C2281 1.339 . S
C2283 C2282 1.395 . S
C2283 H2309 0.929 . S
C2284 C2282 1.320 . S
C2284 C2285 1.405 . S
C2284 H2310 0.930 . S
C2285 C2280 1.479 . S
C2285 C2284 1.405 . S
C2285 H2311 0.931 . S
U2286 O2287 2.454 . S
U2286 O2288 2.458 . S
U2286 C2289 2.984 . S
U2286 C2290 2.847 . S
U2286 C2303 2.882 . S
U2286 O2304 2.441 . S
U2286 O2305 2.420 . S
U2286 O2306 2.455 . S
U2286 O2307 2.449 . S
O2287 U2286 2.454 . S
O2287 C2289 1.353 . S
O2288 U2286 2.458 . S
O2288 C2289 1.286 . S
C2289 U2286 2.984 . S
C2289 O2287 1.353 . S
C2289 O2288 1.286 . S
C2289 C2291 1.363 . S
C2290 C2280 1.465 . S
C2290 U2286 2.847 . S
C2290 O2304 1.249 . S
C2290 O2305 1.202 . S
C2291 C2289 1.363 . S
C2291 C2293 1.408 . S
C2291 C2296 1.342 . S
C2292 C2293 1.310 . S
C2292 C2295 1.461 . S
C2292 H2312 0.932 . S
C2293 C2291 1.408 . S
C2293 C2292 1.310 . S
C2293 H2313 0.930 . S
C2294 C2295 1.474 . S
C2294 C2296 1.285 . S
C2294 H2314 0.929 . S
C2295 C2292 1.461 . S
C2295 C2294 1.474 . S
C2296 C2291 1.342 . S
C2296 C2294 1.285 . S
C2296 H2315 0.930 . S
C2297 C2300 1.424 . S
C2297 C2302 1.245 . S
C2297 C2303 1.428 . S
C2298 C2301 1.260 . S
C2298 C2302 1.477 . S
C2298 H2316 0.932 . S
C2299 C2300 1.384 . S
C2299 C2301 1.479 . S
C2299 H2317 0.929 . S
C2300 C2297 1.424 . S
C2300 C2299 1.384 . S
C2300 H2318 0.928 . S
C2301 C2298 1.260 . S
C2301 C2299 1.479 . S
C2302 C2297 1.245 . S
C2302 C2298 1.477 . S
C2302 H2319 0.932 . S
C2303 U2286 2.882 . S
C2303 C2297 1.428 . S
C2303 O2306 1.301 . S
C2303 O2307 1.282 . S
O2304 U2286 2.441 . S
O2304 C2290 1.249 . S
O2305 U2286 2.420 . S
O2305 C2290 1.202 . S
O2306 U2286 2.455 . S
O2306 C2303 1.301 . S
O2307 U2286 2.449 . S
O2307 C2303 1.282 . S
H2308 C2281 0.931 . S
H2309 C2283 0.929 . S
H2310 C2284 0.930 . S
H2311 C2285 0.931 . S
H2312 C2292 0.932 . S
H2313 C2293 0.930 . S
H2314 C2294 0.929 . S
H2315 C2296 0.930 . S
H2316 C2298 0.932 . S
H2317 C2299 0.929 . S
H2318 C2300 0.928 . S
H2319 C2302 0.932 . S
C2320 C2321 1.264 . S
C2320 C2325 1.479 . S
C2320 C2330 1.465 . S
C2321 C2320 1.264 . S
C2321 C2323 1.339 . S
C2321 H2348 0.931 . S
C2322 C2323 1.395 . S
C2322 C2324 1.320 . S
C2323 C2321 1.339 . S
C2323 C2322 1.395 . S
C2323 H2349 0.929 . S
C2324 C2322 1.320 . S
C2324 C2325 1.405 . S
C2324 H2350 0.930 . S
C2325 C2320 1.479 . S
C2325 C2324 1.405 . S
C2325 H2351 0.931 . S
U2326 O2327 2.454 . S
U2326 O2328 2.458 . S
U2326 C2329 2.984 . S
U2326 C2330 2.847 . S
U2326 C2343 2.882 . S
U2326 O2344 2.441 . S
U2326 O2345 2.420 . S
U2326 O2346 2.455 . S
U2326 O2347 2.449 . S
O2327 U2326 2.454 . S
O2327 C2329 1.353 . S
O2328 U2326 2.458 . S
O2328 C2329 1.286 . S
C2329 U2326 2.984 . S
C2329 O2327 1.353 . S
C2329 O2328 1.286 . S
C2329 C2331 1.363 . S
C2330 C2320 1.465 . S
C2330 U2326 2.847 . S
C2330 O2344 1.249 . S
C2330 O2345 1.202 . S
C2331 C2329 1.363 . S
C2331 C2333 1.408 . S
C2331 C2336 1.342 . S
C2332 C2333 1.310 . S
C2332 C2335 1.461 . S
C2332 H2352 0.932 . S
C2333 C2331 1.408 . S
C2333 C2332 1.310 . S
C2333 H2353 0.930 . S
C2334 C2335 1.474 . S
C2334 C2336 1.285 . S
C2334 H2354 0.929 . S
C2335 C2332 1.461 . S
C2335 C2334 1.474 . S
C2336 C2331 1.342 . S
C2336 C2334 1.285 . S
C2336 H2355 0.930 . S
C2337 C2340 1.424 . S
C2337 C2342 1.245 . S
C2337 C2343 1.428 . S
C2338 C2341 1.260 . S
C2338 C2342 1.477 . S
C2338 H2356 0.932 . S
C2339 C2340 1.384 . S
C2339 C2341 1.479 . S
C2339 H2357 0.929 . S
C2340 C2337 1.424 . S
C2340 C2339 1.384 . S
C2340 H2358 0.928 . S
C2341 C2338 1.260 . S
C2341 C2339 1.479 . S
C2342 C2337 1.245 . S
C2342 C2338 1.477 . S
C2342 H2359 0.932 . S
C2343 U2326 2.882 . S
C2343 C2337 1.428 . S
C2343 O2346 1.301 . S
C2343 O2347 1.282 . S
O2344 U2326 2.441 . S
O2344 C2330 1.249 . S
O2345 U2326 2.420 . S
O2345 C2330 1.202 . S
O2346 U2326 2.455 . S
O2346 C2343 1.301 . S
O2347 U2326 2.449 . S
O2347 C2343 1.282 . S
H2348 C2321 0.931 . S
H2349 C2323 0.929 . S
H2350 C2324 0.930 . S
H2351 C2325 0.931 . S
H2352 C2332 0.932 . S
H2353 C2333 0.930 . S
H2354 C2334 0.929 . S
H2355 C2336 0.930 . S
H2356 C2338 0.932 . S
H2357 C2339 0.929 . S
H2358 C2340 0.928 . S
H2359 C2342 0.932 . S
C2360 C2361 1.264 . S
C2360 C2365 1.479 . S
C2360 C2370 1.465 . S
C2361 C2360 1.264 . S
C2361 C2363 1.339 . S
C2361 H2388 0.931 . S
C2362 C2363 1.395 . S
C2362 C2364 1.320 . S
C2363 C2361 1.339 . S
C2363 C2362 1.395 . S
C2363 H2389 0.929 . S
C2364 C2362 1.320 . S
C2364 C2365 1.405 . S
C2364 H2390 0.930 . S
C2365 C2360 1.479 . S
C2365 C2364 1.405 . S
C2365 H2391 0.931 . S
U2366 O2367 2.454 . S
U2366 O2368 2.458 . S
U2366 C2369 2.984 . S
U2366 C2370 2.847 . S
U2366 C2383 2.882 . S
U2366 O2384 2.441 . S
U2366 O2385 2.420 . S
U2366 O2386 2.455 . S
U2366 O2387 2.449 . S
O2367 U2366 2.454 . S
O2367 C2369 1.353 . S
O2368 U2366 2.458 . S
O2368 C2369 1.286 . S
C2369 U2366 2.984 . S
C2369 O2367 1.353 . S
C2369 O2368 1.286 . S
C2369 C2371 1.363 . S
C2370 C2360 1.465 . S
C2370 U2366 2.847 . S
C2370 O2384 1.249 . S
C2370 O2385 1.202 . S
C2371 C2369 1.363 . S
C2371 C2373 1.408 . S
C2371 C2376 1.342 . S
C2372 C2373 1.310 . S
C2372 C2375 1.461 . S
C2372 H2392 0.932 . S
C2373 C2371 1.408 . S
C2373 C2372 1.310 . S
C2373 H2393 0.930 . S
C2374 C2375 1.474 . S
C2374 C2376 1.285 . S
C2374 H2394 0.929 . S
C2375 C2372 1.461 . S
C2375 C2374 1.474 . S
C2376 C2371 1.342 . S
C2376 C2374 1.285 . S
C2376 H2395 0.930 . S
C2377 C2380 1.424 . S
C2377 C2382 1.245 . S
C2377 C2383 1.428 . S
C2378 C2381 1.260 . S
C2378 C2382 1.477 . S
C2378 H2396 0.932 . S
C2379 C2380 1.384 . S
C2379 C2381 1.479 . S
C2379 H2397 0.929 . S
C2380 C2377 1.424 . S
C2380 C2379 1.384 . S
C2380 H2398 0.928 . S
C2381 C2378 1.260 . S
C2381 C2379 1.479 . S
C2382 C2377 1.245 . S
C2382 C2378 1.477 . S
C2382 H2399 0.932 . S
C2383 U2366 2.882 . S
C2383 C2377 1.428 . S
C2383 O2386 1.301 . S
C2383 O2387 1.282 . S
O2384 U2366 2.441 . S
O2384 C2370 1.249 . S
O2385 U2366 2.420 . S
O2385 C2370 1.202 . S
O2386 U2366 2.455 . S
O2386 C2383 1.301 . S
O2387 U2366 2.449 . S
O2387 C2383 1.282 . S
H2388 C2361 0.931 . S
H2389 C2363 0.929 . S
H2390 C2364 0.930 . S
H2391 C2365 0.931 . S
H2392 C2372 0.932 . S
H2393 C2373 0.930 . S
H2394 C2374 0.929 . S
H2395 C2376 0.930 . S
H2396 C2378 0.932 . S
H2397 C2379 0.929 . S
H2398 C2380 0.928 . S
H2399 C2382 0.932 . S
C2400 C2401 1.264 . S
C2400 C2405 1.479 . S
C2400 C2410 1.465 . S
C2401 C2400 1.264 . S
C2401 C2403 1.339 . S
C2401 H2428 0.931 . S
C2402 C2403 1.395 . S
C2402 C2404 1.320 . S
C2403 C2401 1.339 . S
C2403 C2402 1.395 . S
C2403 H2429 0.929 . S
C2404 C2402 1.320 . S
C2404 C2405 1.405 . S
C2404 H2430 0.930 . S
C2405 C2400 1.479 . S
C2405 C2404 1.405 . S
C2405 H2431 0.931 . S
U2406 O2407 2.454 . S
U2406 O2408 2.458 . S
U2406 C2409 2.984 . S
U2406 C2410 2.847 . S
U2406 C2423 2.882 . S
U2406 O2424 2.441 . S
U2406 O2425 2.420 . S
U2406 O2426 2.455 . S
U2406 O2427 2.449 . S
O2407 U2406 2.454 . S
O2407 C2409 1.353 . S
O2408 U2406 2.458 . S
O2408 C2409 1.286 . S
C2409 U2406 2.984 . S
C2409 O2407 1.353 . S
C2409 O2408 1.286 . S
C2409 C2411 1.363 . S
C2410 C2400 1.465 . S
C2410 U2406 2.847 . S
C2410 O2424 1.249 . S
C2410 O2425 1.202 . S
C2411 C2409 1.363 . S
C2411 C2413 1.408 . S
C2411 C2416 1.342 . S
C2412 C2413 1.310 . S
C2412 C2415 1.461 . S
C2412 H2432 0.932 . S
C2413 C2411 1.408 . S
C2413 C2412 1.310 . S
C2413 H2433 0.930 . S
C2414 C2415 1.474 . S
C2414 C2416 1.285 . S
C2414 H2434 0.929 . S
C2415 C2412 1.461 . S
C2415 C2414 1.474 . S
C2416 C2411 1.342 . S
C2416 C2414 1.285 . S
C2416 H2435 0.930 . S
C2417 C2420 1.424 . S
C2417 C2422 1.245 . S
C2417 C2423 1.428 . S
C2418 C2421 1.260 . S
C2418 C2422 1.477 . S
C2418 H2436 0.932 . S
C2419 C2420 1.384 . S
C2419 C2421 1.479 . S
C2419 H2437 0.929 . S
C2420 C2417 1.424 . S
C2420 C2419 1.384 . S
C2420 H2438 0.928 . S
C2421 C2418 1.260 . S
C2421 C2419 1.479 . S
C2422 C2417 1.245 . S
C2422 C2418 1.477 . S
C2422 H2439 0.932 . S
C2423 U2406 2.882 . S
C2423 C2417 1.428 . S
C2423 O2426 1.301 . S
C2423 O2427 1.282 . S
O2424 U2406 2.441 . S
O2424 C2410 1.249 . S
O2425 U2406 2.420 . S
O2425 C2410 1.202 . S
O2426 U2406 2.455 . S
O2426 C2423 1.301 . S
O2427 U2406 2.449 . S
O2427 C2423 1.282 . S
H2428 C2401 0.931 . S
H2429 C2403 0.929 . S
H2430 C2404 0.930 . S
H2431 C2405 0.931 . S
H2432 C2412 0.932 . S
H2433 C2413 0.930 . S
H2434 C2414 0.929 . S
H2435 C2416 0.930 . S
H2436 C2418 0.932 . S
H2437 C2419 0.929 . S
H2438 C2420 0.928 . S
H2439 C2422 0.932 . S
C2440 C2441 1.264 . S
C2440 C2445 1.479 . S
C2440 C2450 1.465 . S
C2441 C2440 1.264 . S
C2441 C2443 1.339 . S
C2441 H2468 0.931 . S
C2442 C2443 1.395 . S
C2442 C2444 1.320 . S
C2443 C2441 1.339 . S
C2443 C2442 1.395 . S
C2443 H2469 0.929 . S
C2444 C2442 1.320 . S
C2444 C2445 1.405 . S
C2444 H2470 0.930 . S
C2445 C2440 1.479 . S
C2445 C2444 1.405 . S
C2445 H2471 0.931 . S
U2446 O2447 2.454 . S
U2446 O2448 2.458 . S
U2446 C2449 2.984 . S
U2446 C2450 2.847 . S
U2446 C2463 2.882 . S
U2446 O2464 2.441 . S
U2446 O2465 2.420 . S
U2446 O2466 2.455 . S
U2446 O2467 2.449 . S
O2447 U2446 2.454 . S
O2447 C2449 1.353 . S
O2448 U2446 2.458 . S
O2448 C2449 1.286 . S
C2449 U2446 2.984 . S
C2449 O2447 1.353 . S
C2449 O2448 1.286 . S
C2449 C2451 1.363 . S
C2450 C2440 1.465 . S
C2450 U2446 2.847 . S
C2450 O2464 1.249 . S
C2450 O2465 1.202 . S
C2451 C2449 1.363 . S
C2451 C2453 1.408 . S
C2451 C2456 1.342 . S
C2452 C2453 1.310 . S
C2452 C2455 1.461 . S
C2452 H2472 0.932 . S
C2453 C2451 1.408 . S
C2453 C2452 1.310 . S
C2453 H2473 0.930 . S
C2454 C2455 1.474 . S
C2454 C2456 1.285 . S
C2454 H2474 0.929 . S
C2455 C2452 1.461 . S
C2455 C2454 1.474 . S
C2456 C2451 1.342 . S
C2456 C2454 1.285 . S
C2456 H2475 0.930 . S
C2457 C2460 1.424 . S
C2457 C2462 1.245 . S
C2457 C2463 1.428 . S
C2458 C2461 1.260 . S
C2458 C2462 1.477 . S
C2458 H2476 0.932 . S
C2459 C2460 1.384 . S
C2459 C2461 1.479 . S
C2459 H2477 0.929 . S
C2460 C2457 1.424 . S
C2460 C2459 1.384 . S
C2460 H2478 0.928 . S
C2461 C2458 1.260 . S
C2461 C2459 1.479 . S
C2462 C2457 1.245 . S
C2462 C2458 1.477 . S
C2462 H2479 0.932 . S
C2463 U2446 2.882 . S
C2463 C2457 1.428 . S
C2463 O2466 1.301 . S
C2463 O2467 1.282 . S
O2464 U2446 2.441 . S
O2464 C2450 1.249 . S
O2465 U2446 2.420 . S
O2465 C2450 1.202 . S
O2466 U2446 2.455 . S
O2466 C2463 1.301 . S
O2467 U2446 2.449 . S
O2467 C2463 1.282 . S
H2468 C2441 0.931 . S
H2469 C2443 0.929 . S
H2470 C2444 0.930 . S
H2471 C2445 0.931 . S
H2472 C2452 0.932 . S
H2473 C2453 0.930 . S
H2474 C2454 0.929 . S
H2475 C2456 0.930 . S
H2476 C2458 0.932 . S
H2477 C2459 0.929 . S
H2478 C2460 0.928 . S
H2479 C2462 0.932 . S
C2480 C2481 1.264 . S
C2480 C2485 1.479 . S
C2480 C2490 1.465 . S
C2481 C2480 1.264 . S
C2481 C2483 1.339 . S
C2481 H2508 0.931 . S
C2482 C2483 1.395 . S
C2482 C2484 1.320 . S
C2483 C2481 1.339 . S
C2483 C2482 1.395 . S
C2483 H2509 0.929 . S
C2484 C2482 1.320 . S
C2484 C2485 1.405 . S
C2484 H2510 0.930 . S
C2485 C2480 1.479 . S
C2485 C2484 1.405 . S
C2485 H2511 0.931 . S
U2486 O2487 2.454 . S
U2486 O2488 2.458 . S
U2486 C2489 2.984 . S
U2486 C2490 2.847 . S
U2486 C2503 2.882 . S
U2486 O2504 2.441 . S
U2486 O2505 2.420 . S
U2486 O2506 2.455 . S
U2486 O2507 2.449 . S
O2487 U2486 2.454 . S
O2487 C2489 1.353 . S
O2488 U2486 2.458 . S
O2488 C2489 1.286 . S
C2489 U2486 2.984 . S
C2489 O2487 1.353 . S
C2489 O2488 1.286 . S
C2489 C2491 1.363 . S
C2490 C2480 1.465 . S
C2490 U2486 2.847 . S
C2490 O2504 1.249 . S
C2490 O2505 1.202 . S
C2491 C2489 1.363 . S
C2491 C2493 1.408 . S
C2491 C2496 1.342 . S
C2492 C2493 1.310 . S
C2492 C2495 1.461 . S
C2492 H2512 0.932 . S
C2493 C2491 1.408 . S
C2493 C2492 1.310 . S
C2493 H2513 0.930 . S
C2494 C2495 1.474 . S
C2494 C2496 1.285 . S
C2494 H2514 0.929 . S
C2495 C2492 1.461 . S
C2495 C2494 1.474 . S
C2496 C2491 1.342 . S
C2496 C2494 1.285 . S
C2496 H2515 0.930 . S
C2497 C2500 1.424 . S
C2497 C2502 1.245 . S
C2497 C2503 1.428 . S
C2498 C2501 1.260 . S
C2498 C2502 1.477 . S
C2498 H2516 0.932 . S
C2499 C2500 1.384 . S
C2499 C2501 1.479 . S
C2499 H2517 0.929 . S
C2500 C2497 1.424 . S
C2500 C2499 1.384 . S
C2500 H2518 0.928 . S
C2501 C2498 1.260 . S
C2501 C2499 1.479 . S
C2502 C2497 1.245 . S
C2502 C2498 1.477 . S
C2502 H2519 0.932 . S
C2503 U2486 2.882 . S
C2503 C2497 1.428 . S
C2503 O2506 1.301 . S
C2503 O2507 1.282 . S
O2504 U2486 2.441 . S
O2504 C2490 1.249 . S
O2505 U2486 2.420 . S
O2505 C2490 1.202 . S
O2506 U2486 2.455 . S
O2506 C2503 1.301 . S
O2507 U2486 2.449 . S
O2507 C2503 1.282 . S
H2508 C2481 0.931 . S
H2509 C2483 0.929 . S
H2510 C2484 0.930 . S
H2511 C2485 0.931 . S
H2512 C2492 0.932 . S
H2513 C2493 0.930 . S
H2514 C2494 0.929 . S
H2515 C2496 0.930 . S
H2516 C2498 0.932 . S
H2517 C2499 0.929 . S
H2518 C2500 0.928 . S
H2519 C2502 0.932 . S
C2520 C2521 1.264 . S
C2520 C2525 1.479 . S
C2520 C2530 1.465 . S
C2521 C2520 1.264 . S
C2521 C2523 1.339 . S
C2521 H2548 0.931 . S
C2522 C2523 1.395 . S
C2522 C2524 1.320 . S
C2523 C2521 1.339 . S
C2523 C2522 1.395 . S
C2523 H2549 0.929 . S
C2524 C2522 1.320 . S
C2524 C2525 1.405 . S
C2524 H2550 0.930 . S
C2525 C2520 1.479 . S
C2525 C2524 1.405 . S
C2525 H2551 0.931 . S
U2526 O2527 2.454 . S
U2526 O2528 2.458 . S
U2526 C2529 2.984 . S
U2526 C2530 2.847 . S
U2526 C2543 2.882 . S
U2526 O2544 2.441 . S
U2526 O2545 2.420 . S
U2526 O2546 2.455 . S
U2526 O2547 2.449 . S
O2527 U2526 2.454 . S
O2527 C2529 1.353 . S
O2528 U2526 2.458 . S
O2528 C2529 1.286 . S
C2529 U2526 2.984 . S
C2529 O2527 1.353 . S
C2529 O2528 1.286 . S
C2529 C2531 1.363 . S
C2530 C2520 1.465 . S
C2530 U2526 2.847 . S
C2530 O2544 1.249 . S
C2530 O2545 1.202 . S
C2531 C2529 1.363 . S
C2531 C2533 1.408 . S
C2531 C2536 1.342 . S
C2532 C2533 1.310 . S
C2532 C2535 1.461 . S
C2532 H2552 0.932 . S
C2533 C2531 1.408 . S
C2533 C2532 1.310 . S
C2533 H2553 0.930 . S
C2534 C2535 1.474 . S
C2534 C2536 1.285 . S
C2534 H2554 0.929 . S
C2535 C2532 1.461 . S
C2535 C2534 1.474 . S
C2536 C2531 1.342 . S
C2536 C2534 1.285 . S
C2536 H2555 0.930 . S
C2537 C2540 1.424 . S
C2537 C2542 1.245 . S
C2537 C2543 1.428 . S
C2538 C2541 1.260 . S
C2538 C2542 1.477 . S
C2538 H2556 0.932 . S
C2539 C2540 1.384 . S
C2539 C2541 1.479 . S
C2539 H2557 0.929 . S
C2540 C2537 1.424 . S
C2540 C2539 1.384 . S
C2540 H2558 0.928 . S
C2541 C2538 1.260 . S
C2541 C2539 1.479 . S
C2542 C2537 1.245 . S
C2542 C2538 1.477 . S
C2542 H2559 0.932 . S
C2543 U2526 2.882 . S
C2543 C2537 1.428 . S
C2543 O2546 1.301 . S
C2543 O2547 1.282 . S
O2544 U2526 2.441 . S
O2544 C2530 1.249 . S
O2545 U2526 2.420 . S
O2545 C2530 1.202 . S
O2546 U2526 2.455 . S
O2546 C2543 1.301 . S
O2547 U2526 2.449 . S
O2547 C2543 1.282 . S
H2548 C2521 0.931 . S
H2549 C2523 0.929 . S
H2550 C2524 0.930 . S
H2551 C2525 0.931 . S
H2552 C2532 0.932 . S
H2553 C2533 0.930 . S
H2554 C2534 0.929 . S
H2555 C2536 0.930 . S
H2556 C2538 0.932 . S
H2557 C2539 0.929 . S
H2558 C2540 0.928 . S
H2559 C2542 0.932 . S
C2560 C2561 1.264 . S
C2560 C2565 1.479 . S
C2560 C2570 1.465 . S
C2561 C2560 1.264 . S
C2561 C2563 1.339 . S
C2561 H2588 0.931 . S
C2562 C2563 1.395 . S
C2562 C2564 1.320 . S
C2563 C2561 1.339 . S
C2563 C2562 1.395 . S
C2563 H2589 0.929 . S
C2564 C2562 1.320 . S
C2564 C2565 1.405 . S
C2564 H2590 0.930 . S
C2565 C2560 1.479 . S
C2565 C2564 1.405 . S
C2565 H2591 0.931 . S
U2566 O2567 2.454 . S
U2566 O2568 2.458 . S
U2566 C2569 2.984 . S
U2566 C2570 2.847 . S
U2566 C2583 2.882 . S
U2566 O2584 2.441 . S
U2566 O2585 2.420 . S
U2566 O2586 2.455 . S
U2566 O2587 2.449 . S
O2567 U2566 2.454 . S
O2567 C2569 1.353 . S
O2568 U2566 2.458 . S
O2568 C2569 1.286 . S
C2569 U2566 2.984 . S
C2569 O2567 1.353 . S
C2569 O2568 1.286 . S
C2569 C2571 1.363 . S
C2570 C2560 1.465 . S
C2570 U2566 2.847 . S
C2570 O2584 1.249 . S
C2570 O2585 1.202 . S
C2571 C2569 1.363 . S
C2571 C2573 1.408 . S
C2571 C2576 1.342 . S
C2572 C2573 1.310 . S
C2572 C2575 1.461 . S
C2572 H2592 0.932 . S
C2573 C2571 1.408 . S
C2573 C2572 1.310 . S
C2573 H2593 0.930 . S
C2574 C2575 1.474 . S
C2574 C2576 1.285 . S
C2574 H2594 0.929 . S
C2575 C2572 1.461 . S
C2575 C2574 1.474 . S
C2576 C2571 1.342 . S
C2576 C2574 1.285 . S
C2576 H2595 0.930 . S
C2577 C2580 1.424 . S
C2577 C2582 1.245 . S
C2577 C2583 1.428 . S
C2578 C2581 1.260 . S
C2578 C2582 1.477 . S
C2578 H2596 0.932 . S
C2579 C2580 1.384 . S
C2579 C2581 1.479 . S
C2579 H2597 0.929 . S
C2580 C2577 1.424 . S
C2580 C2579 1.384 . S
C2580 H2598 0.928 . S
C2581 C2578 1.260 . S
C2581 C2579 1.479 . S
C2582 C2577 1.245 . S
C2582 C2578 1.477 . S
C2582 H2599 0.932 . S
C2583 U2566 2.882 . S
C2583 C2577 1.428 . S
C2583 O2586 1.301 . S
C2583 O2587 1.282 . S
O2584 U2566 2.441 . S
O2584 C2570 1.249 . S
O2585 U2566 2.420 . S
O2585 C2570 1.202 . S
O2586 U2566 2.455 . S
O2586 C2583 1.301 . S
O2587 U2566 2.449 . S
O2587 C2583 1.282 . S
H2588 C2561 0.931 . S
H2589 C2563 0.929 . S
H2590 C2564 0.930 . S
H2591 C2565 0.931 . S
H2592 C2572 0.932 . S
H2593 C2573 0.930 . S
H2594 C2574 0.929 . S
H2595 C2576 0.930 . S
H2596 C2578 0.932 . S
H2597 C2579 0.929 . S
H2598 C2580 0.928 . S
H2599 C2582 0.932 . S
C2600 C2601 1.264 . S
C2600 C2605 1.479 . S
C2600 C2610 1.465 . S
C2601 C2600 1.264 . S
C2601 C2603 1.339 . S
C2601 H2628 0.931 . S
C2602 C2603 1.395 . S
C2602 C2604 1.320 . S
C2603 C2601 1.339 . S
C2603 C2602 1.395 . S
C2603 H2629 0.929 . S
C2604 C2602 1.320 . S
C2604 C2605 1.405 . S
C2604 H2630 0.930 . S
C2605 C2600 1.479 . S
C2605 C2604 1.405 . S
C2605 H2631 0.931 . S
U2606 O2607 2.454 . S
U2606 O2608 2.458 . S
U2606 C2609 2.984 . S
U2606 C2610 2.847 . S
U2606 C2623 2.882 . S
U2606 O2624 2.441 . S
U2606 O2625 2.420 . S
U2606 O2626 2.455 . S
U2606 O2627 2.449 . S
O2607 U2606 2.454 . S
O2607 C2609 1.353 . S
O2608 U2606 2.458 . S
O2608 C2609 1.286 . S
C2609 U2606 2.984 . S
C2609 O2607 1.353 . S
C2609 O2608 1.286 . S
C2609 C2611 1.363 . S
C2610 C2600 1.465 . S
C2610 U2606 2.847 . S
C2610 O2624 1.249 . S
C2610 O2625 1.202 . S
C2611 C2609 1.363 . S
C2611 C2613 1.408 . S
C2611 C2616 1.342 . S
C2612 C2613 1.310 . S
C2612 C2615 1.461 . S
C2612 H2632 0.932 . S
C2613 C2611 1.408 . S
C2613 C2612 1.310 . S
C2613 H2633 0.930 . S
C2614 C2615 1.474 . S
C2614 C2616 1.285 . S
C2614 H2634 0.929 . S
C2615 C2612 1.461 . S
C2615 C2614 1.474 . S
C2616 C2611 1.342 . S
C2616 C2614 1.285 . S
C2616 H2635 0.930 . S
C2617 C2620 1.424 . S
C2617 C2622 1.245 . S
C2617 C2623 1.428 . S
C2618 C2621 1.260 . S
C2618 C2622 1.477 . S
C2618 H2636 0.932 . S
C2619 C2620 1.384 . S
C2619 C2621 1.479 . S
C2619 H2637 0.929 . S
C2620 C2617 1.424 . S
C2620 C2619 1.384 . S
C2620 H2638 0.928 . S
C2621 C2618 1.260 . S
C2621 C2619 1.479 . S
C2622 C2617 1.245 . S
C2622 C2618 1.477 . S
C2622 H2639 0.932 . S
C2623 U2606 2.882 . S
C2623 C2617 1.428 . S
C2623 O2626 1.301 . S
C2623 O2627 1.282 . S
O2624 U2606 2.441 . S
O2624 C2610 1.249 . S
O2625 U2606 2.420 . S
O2625 C2610 1.202 . S
O2626 U2606 2.455 . S
O2626 C2623 1.301 . S
O2627 U2606 2.449 . S
O2627 C2623 1.282 . S
H2628 C2601 0.931 . S
H2629 C2603 0.929 . S
H2630 C2604 0.930 . S
H2631 C2605 0.931 . S
H2632 C2612 0.932 . S
H2633 C2613 0.930 . S
H2634 C2614 0.929 . S
H2635 C2616 0.930 . S
H2636 C2618 0.932 . S
H2637 C2619 0.929 . S
H2638 C2620 0.928 . S
H2639 C2622 0.932 . S
C2640 C2641 1.264 . S
C2640 C2645 1.479 . S
C2640 C2650 1.465 . S
C2641 C2640 1.264 . S
C2641 C2643 1.339 . S
C2641 H2668 0.931 . S
C2642 C2643 1.395 . S
C2642 C2644 1.320 . S
C2643 C2641 1.339 . S
C2643 C2642 1.395 . S
C2643 H2669 0.929 . S
C2644 C2642 1.320 . S
C2644 C2645 1.405 . S
C2644 H2670 0.930 . S
C2645 C2640 1.479 . S
C2645 C2644 1.405 . S
C2645 H2671 0.931 . S
U2646 O2647 2.454 . S
U2646 O2648 2.458 . S
U2646 C2649 2.984 . S
U2646 C2650 2.847 . S
U2646 C2663 2.882 . S
U2646 O2664 2.441 . S
U2646 O2665 2.420 . S
U2646 O2666 2.455 . S
U2646 O2667 2.449 . S
O2647 U2646 2.454 . S
O2647 C2649 1.353 . S
O2648 U2646 2.458 . S
O2648 C2649 1.286 . S
C2649 U2646 2.984 . S
C2649 O2647 1.353 . S
C2649 O2648 1.286 . S
C2649 C2651 1.363 . S
C2650 C2640 1.465 . S
C2650 U2646 2.847 . S
C2650 O2664 1.249 . S
C2650 O2665 1.202 . S
C2651 C2649 1.363 . S
C2651 C2653 1.408 . S
C2651 C2656 1.342 . S
C2652 C2653 1.310 . S
C2652 C2655 1.461 . S
C2652 H2672 0.932 . S
C2653 C2651 1.408 . S
C2653 C2652 1.310 . S
C2653 H2673 0.930 . S
C2654 C2655 1.474 . S
C2654 C2656 1.285 . S
C2654 H2674 0.929 . S
C2655 C2652 1.461 . S
C2655 C2654 1.474 . S
C2656 C2651 1.342 . S
C2656 C2654 1.285 . S
C2656 H2675 0.930 . S
C2657 C2660 1.424 . S
C2657 C2662 1.245 . S
C2657 C2663 1.428 . S
C2658 C2661 1.260 . S
C2658 C2662 1.477 . S
C2658 H2676 0.932 . S
C2659 C2660 1.384 . S
C2659 C2661 1.479 . S
C2659 H2677 0.929 . S
C2660 C2657 1.424 . S
C2660 C2659 1.384 . S
C2660 H2678 0.928 . S
C2661 C2658 1.260 . S
C2661 C2659 1.479 . S
C2662 C2657 1.245 . S
C2662 C2658 1.477 . S
C2662 H2679 0.932 . S
C2663 U2646 2.882 . S
C2663 C2657 1.428 . S
C2663 O2666 1.301 . S
C2663 O2667 1.282 . S
O2664 U2646 2.441 . S
O2664 C2650 1.249 . S
O2665 U2646 2.420 . S
O2665 C2650 1.202 . S
O2666 U2646 2.455 . S
O2666 C2663 1.301 . S
O2667 U2646 2.449 . S
O2667 C2663 1.282 . S
H2668 C2641 0.931 . S
H2669 C2643 0.929 . S
H2670 C2644 0.930 . S
H2671 C2645 0.931 . S
H2672 C2652 0.932 . S
H2673 C2653 0.930 . S
H2674 C2654 0.929 . S
H2675 C2656 0.930 . S
H2676 C2658 0.932 . S
H2677 C2659 0.929 . S
H2678 C2660 0.928 . S
H2679 C2662 0.932 . S
C2680 C2681 1.264 . S
C2680 C2685 1.479 . S
C2680 C2690 1.465 . S
C2681 C2680 1.264 . S
C2681 C2683 1.339 . S
C2681 H2708 0.931 . S
C2682 C2683 1.395 . S
C2682 C2684 1.320 . S
C2683 C2681 1.339 . S
C2683 C2682 1.395 . S
C2683 H2709 0.929 . S
C2684 C2682 1.320 . S
C2684 C2685 1.405 . S
C2684 H2710 0.930 . S
C2685 C2680 1.479 . S
C2685 C2684 1.405 . S
C2685 H2711 0.931 . S
U2686 O2687 2.454 . S
U2686 O2688 2.458 . S
U2686 C2689 2.984 . S
U2686 C2690 2.847 . S
U2686 C2703 2.882 . S
U2686 O2704 2.441 . S
U2686 O2705 2.420 . S
U2686 O2706 2.455 . S
U2686 O2707 2.449 . S
O2687 U2686 2.454 . S
O2687 C2689 1.353 . S
O2688 U2686 2.458 . S
O2688 C2689 1.286 . S
C2689 U2686 2.984 . S
C2689 O2687 1.353 . S
C2689 O2688 1.286 . S
C2689 C2691 1.363 . S
C2690 C2680 1.465 . S
C2690 U2686 2.847 . S
C2690 O2704 1.249 . S
C2690 O2705 1.202 . S
C2691 C2689 1.363 . S
C2691 C2693 1.408 . S
C2691 C2696 1.342 . S
C2692 C2693 1.310 . S
C2692 C2695 1.461 . S
C2692 H2712 0.932 . S
C2693 C2691 1.408 . S
C2693 C2692 1.310 . S
C2693 H2713 0.930 . S
C2694 C2695 1.474 . S
C2694 C2696 1.285 . S
C2694 H2714 0.929 . S
C2695 C2692 1.461 . S
C2695 C2694 1.474 . S
C2696 C2691 1.342 . S
C2696 C2694 1.285 . S
C2696 H2715 0.930 . S
C2697 C2700 1.424 . S
C2697 C2702 1.245 . S
C2697 C2703 1.428 . S
C2698 C2701 1.260 . S
C2698 C2702 1.477 . S
C2698 H2716 0.932 . S
C2699 C2700 1.384 . S
C2699 C2701 1.479 . S
C2699 H2717 0.929 . S
C2700 C2697 1.424 . S
C2700 C2699 1.384 . S
C2700 H2718 0.928 . S
C2701 C2698 1.260 . S
C2701 C2699 1.479 . S
C2702 C2697 1.245 . S
C2702 C2698 1.477 . S
C2702 H2719 0.932 . S
C2703 U2686 2.882 . S
C2703 C2697 1.428 . S
C2703 O2706 1.301 . S
C2703 O2707 1.282 . S
O2704 U2686 2.441 . S
O2704 C2690 1.249 . S
O2705 U2686 2.420 . S
O2705 C2690 1.202 . S
O2706 U2686 2.455 . S
O2706 C2703 1.301 . S
O2707 U2686 2.449 . S
O2707 C2703 1.282 . S
H2708 C2681 0.931 . S
H2709 C2683 0.929 . S
H2710 C2684 0.930 . S
H2711 C2685 0.931 . S
H2712 C2692 0.932 . S
H2713 C2693 0.930 . S
H2714 C2694 0.929 . S
H2715 C2696 0.930 . S
H2716 C2698 0.932 . S
H2717 C2699 0.929 . S
H2718 C2700 0.928 . S
H2719 C2702 0.932 . S
C2720 C2721 1.264 . S
C2720 C2725 1.479 . S
C2720 C2730 1.465 . S
C2721 C2720 1.264 . S
C2721 C2723 1.339 . S
C2721 H2748 0.931 . S
C2722 C2723 1.395 . S
C2722 C2724 1.320 . S
C2723 C2721 1.339 . S
C2723 C2722 1.395 . S
C2723 H2749 0.929 . S
C2724 C2722 1.320 . S
C2724 C2725 1.405 . S
C2724 H2750 0.930 . S
C2725 C2720 1.479 . S
C2725 C2724 1.405 . S
C2725 H2751 0.931 . S
U2726 O2727 2.454 . S
U2726 O2728 2.458 . S
U2726 C2729 2.984 . S
U2726 C2730 2.847 . S
U2726 C2743 2.882 . S
U2726 O2744 2.441 . S
U2726 O2745 2.420 . S
U2726 O2746 2.455 . S
U2726 O2747 2.449 . S
O2727 U2726 2.454 . S
O2727 C2729 1.353 . S
O2728 U2726 2.458 . S
O2728 C2729 1.286 . S
C2729 U2726 2.984 . S
C2729 O2727 1.353 . S
C2729 O2728 1.286 . S
C2729 C2731 1.363 . S
C2730 C2720 1.465 . S
C2730 U2726 2.847 . S
C2730 O2744 1.249 . S
C2730 O2745 1.202 . S
C2731 C2729 1.363 . S
C2731 C2733 1.408 . S
C2731 C2736 1.342 . S
C2732 C2733 1.310 . S
C2732 C2735 1.461 . S
C2732 H2752 0.932 . S
C2733 C2731 1.408 . S
C2733 C2732 1.310 . S
C2733 H2753 0.930 . S
C2734 C2735 1.474 . S
C2734 C2736 1.285 . S
C2734 H2754 0.929 . S
C2735 C2732 1.461 . S
C2735 C2734 1.474 . S
C2736 C2731 1.342 . S
C2736 C2734 1.285 . S
C2736 H2755 0.930 . S
C2737 C2740 1.424 . S
C2737 C2742 1.245 . S
C2737 C2743 1.428 . S
C2738 C2741 1.260 . S
C2738 C2742 1.477 . S
C2738 H2756 0.932 . S
C2739 C2740 1.384 . S
C2739 C2741 1.479 . S
C2739 H2757 0.929 . S
C2740 C2737 1.424 . S
C2740 C2739 1.384 . S
C2740 H2758 0.928 . S
C2741 C2738 1.260 . S
C2741 C2739 1.479 . S
C2742 C2737 1.245 . S
C2742 C2738 1.477 . S
C2742 H2759 0.932 . S
C2743 U2726 2.882 . S
C2743 C2737 1.428 . S
C2743 O2746 1.301 . S
C2743 O2747 1.282 . S
O2744 U2726 2.441 . S
O2744 C2730 1.249 . S
O2745 U2726 2.420 . S
O2745 C2730 1.202 . S
O2746 U2726 2.455 . S
O2746 C2743 1.301 . S
O2747 U2726 2.449 . S
O2747 C2743 1.282 . S
H2748 C2721 0.931 . S
H2749 C2723 0.929 . S
H2750 C2724 0.930 . S
H2751 C2725 0.931 . S
H2752 C2732 0.932 . S
H2753 C2733 0.930 . S
H2754 C2734 0.929 . S
H2755 C2736 0.930 . S
H2756 C2738 0.932 . S
H2757 C2739 0.929 . S
H2758 C2740 0.928 . S
H2759 C2742 0.932 . S
C2760 C2761 1.264 . S
C2760 C2765 1.479 . S
C2760 C2770 1.465 . S
C2761 C2760 1.264 . S
C2761 C2763 1.339 . S
C2761 H2788 0.931 . S
C2762 C2763 1.395 . S
C2762 C2764 1.320 . S
C2763 C2761 1.339 . S
C2763 C2762 1.395 . S
C2763 H2789 0.929 . S
C2764 C2762 1.320 . S
C2764 C2765 1.405 . S
C2764 H2790 0.930 . S
C2765 C2760 1.479 . S
C2765 C2764 1.405 . S
C2765 H2791 0.931 . S
U2766 O2767 2.454 . S
U2766 O2768 2.458 . S
U2766 C2769 2.984 . S
U2766 C2770 2.847 . S
U2766 C2783 2.882 . S
U2766 O2784 2.441 . S
U2766 O2785 2.420 . S
U2766 O2786 2.455 . S
U2766 O2787 2.449 . S
O2767 U2766 2.454 . S
O2767 C2769 1.353 . S
O2768 U2766 2.458 . S
O2768 C2769 1.286 . S
C2769 U2766 2.984 . S
C2769 O2767 1.353 . S
C2769 O2768 1.286 . S
C2769 C2771 1.363 . S
C2770 C2760 1.465 . S
C2770 U2766 2.847 . S
C2770 O2784 1.249 . S
C2770 O2785 1.202 . S
C2771 C2769 1.363 . S
C2771 C2773 1.408 . S
C2771 C2776 1.342 . S
C2772 C2773 1.310 . S
C2772 C2775 1.461 . S
C2772 H2792 0.932 . S
C2773 C2771 1.408 . S
C2773 C2772 1.310 . S
C2773 H2793 0.930 . S
C2774 C2775 1.474 . S
C2774 C2776 1.285 . S
C2774 H2794 0.929 . S
C2775 C2772 1.461 . S
C2775 C2774 1.474 . S
C2776 C2771 1.342 . S
C2776 C2774 1.285 . S
C2776 H2795 0.930 . S
C2777 C2780 1.424 . S
C2777 C2782 1.245 . S
C2777 C2783 1.428 . S
C2778 C2781 1.260 . S
C2778 C2782 1.477 . S
C2778 H2796 0.932 . S
C2779 C2780 1.384 . S
C2779 C2781 1.479 . S
C2779 H2797 0.929 . S
C2780 C2777 1.424 . S
C2780 C2779 1.384 . S
C2780 H2798 0.928 . S
C2781 C2778 1.260 . S
C2781 C2779 1.479 . S
C2782 C2777 1.245 . S
C2782 C2778 1.477 . S
C2782 H2799 0.932 . S
C2783 U2766 2.882 . S
C2783 C2777 1.428 . S
C2783 O2786 1.301 . S
C2783 O2787 1.282 . S
O2784 U2766 2.441 . S
O2784 C2770 1.249 . S
O2785 U2766 2.420 . S
O2785 C2770 1.202 . S
O2786 U2766 2.455 . S
O2786 C2783 1.301 . S
O2787 U2766 2.449 . S
O2787 C2783 1.282 . S
H2788 C2761 0.931 . S
H2789 C2763 0.929 . S
H2790 C2764 0.930 . S
H2791 C2765 0.931 . S
H2792 C2772 0.932 . S
H2793 C2773 0.930 . S
H2794 C2774 0.929 . S
H2795 C2776 0.930 . S
H2796 C2778 0.932 . S
H2797 C2779 0.929 . S
H2798 C2780 0.928 . S
H2799 C2782 0.932 . S
C2800 C2801 1.264 . S
C2800 C2805 1.479 . S
C2800 C2810 1.465 . S
C2801 C2800 1.264 . S
C2801 C2803 1.339 . S
C2801 H2828 0.931 . S
C2802 C2803 1.395 . S
C2802 C2804 1.320 . S
C2803 C2801 1.339 . S
C2803 C2802 1.395 . S
C2803 H2829 0.929 . S
C2804 C2802 1.320 . S
C2804 C2805 1.405 . S
C2804 H2830 0.930 . S
C2805 C2800 1.479 . S
C2805 C2804 1.405 . S
C2805 H2831 0.931 . S
U2806 O2807 2.454 . S
U2806 O2808 2.458 . S
U2806 C2809 2.984 . S
U2806 C2810 2.847 . S
U2806 C2823 2.882 . S
U2806 O2824 2.441 . S
U2806 O2825 2.420 . S
U2806 O2826 2.455 . S
U2806 O2827 2.449 . S
O2807 U2806 2.454 . S
O2807 C2809 1.353 . S
O2808 U2806 2.458 . S
O2808 C2809 1.286 . S
C2809 U2806 2.984 . S
C2809 O2807 1.353 . S
C2809 O2808 1.286 . S
C2809 C2811 1.363 . S
C2810 C2800 1.465 . S
C2810 U2806 2.847 . S
C2810 O2824 1.249 . S
C2810 O2825 1.202 . S
C2811 C2809 1.363 . S
C2811 C2813 1.408 . S
C2811 C2816 1.342 . S
C2812 C2813 1.310 . S
C2812 C2815 1.461 . S
C2812 H2832 0.932 . S
C2813 C2811 1.408 . S
C2813 C2812 1.310 . S
C2813 H2833 0.930 . S
C2814 C2815 1.474 . S
C2814 C2816 1.285 . S
C2814 H2834 0.929 . S
C2815 C2812 1.461 . S
C2815 C2814 1.474 . S
C2816 C2811 1.342 . S
C2816 C2814 1.285 . S
C2816 H2835 0.930 . S
C2817 C2820 1.424 . S
C2817 C2822 1.245 . S
C2817 C2823 1.428 . S
C2818 C2821 1.260 . S
C2818 C2822 1.477 . S
C2818 H2836 0.932 . S
C2819 C2820 1.384 . S
C2819 C2821 1.479 . S
C2819 H2837 0.929 . S
C2820 C2817 1.424 . S
C2820 C2819 1.384 . S
C2820 H2838 0.928 . S
C2821 C2818 1.260 . S
C2821 C2819 1.479 . S
C2822 C2817 1.245 . S
C2822 C2818 1.477 . S
C2822 H2839 0.932 . S
C2823 U2806 2.882 . S
C2823 C2817 1.428 . S
C2823 O2826 1.301 . S
C2823 O2827 1.282 . S
O2824 U2806 2.441 . S
O2824 C2810 1.249 . S
O2825 U2806 2.420 . S
O2825 C2810 1.202 . S
O2826 U2806 2.455 . S
O2826 C2823 1.301 . S
O2827 U2806 2.449 . S
O2827 C2823 1.282 . S
H2828 C2801 0.931 . S
H2829 C2803 0.929 . S
H2830 C2804 0.930 . S
H2831 C2805 0.931 . S
H2832 C2812 0.932 . S
H2833 C2813 0.930 . S
H2834 C2814 0.929 . S
H2835 C2816 0.930 . S
H2836 C2818 0.932 . S
H2837 C2819 0.929 . S
H2838 C2820 0.928 . S
H2839 C2822 0.932 . S
C2840 C2841 1.264 . S
C2840 C2845 1.479 . S
C2840 C2850 1.465 . S
C2841 C2840 1.264 . S
C2841 C2843 1.339 . S
C2841 H2868 0.931 . S
C2842 C2843 1.395 . S
C2842 C2844 1.320 . S
C2843 C2841 1.339 . S
C2843 C2842 1.395 . S
C2843 H2869 0.929 . S
C2844 C2842 1.320 . S
C2844 C2845 1.405 . S
C2844 H2870 0.930 . S
C2845 C2840 1.479 . S
C2845 C2844 1.405 . S
C2845 H2871 0.931 . S
U2846 O2847 2.454 . S
U2846 O2848 2.458 . S
U2846 C2849 2.984 . S
U2846 C2850 2.847 . S
U2846 C2863 2.882 . S
U2846 O2864 2.441 . S
U2846 O2865 2.420 . S
U2846 O2866 2.455 . S
U2846 O2867 2.449 . S
O2847 U2846 2.454 . S
O2847 C2849 1.353 . S
O2848 U2846 2.458 . S
O2848 C2849 1.286 . S
C2849 U2846 2.984 . S
C2849 O2847 1.353 . S
C2849 O2848 1.286 . S
C2849 C2851 1.363 . S
C2850 C2840 1.465 . S
C2850 U2846 2.847 . S
C2850 O2864 1.249 . S
C2850 O2865 1.202 . S
C2851 C2849 1.363 . S
C2851 C2853 1.408 . S
C2851 C2856 1.342 . S
C2852 C2853 1.310 . S
C2852 C2855 1.461 . S
C2852 H2872 0.932 . S
C2853 C2851 1.408 . S
C2853 C2852 1.310 . S
C2853 H2873 0.930 . S
C2854 C2855 1.474 . S
C2854 C2856 1.285 . S
C2854 H2874 0.929 . S
C2855 C2852 1.461 . S
C2855 C2854 1.474 . S
C2856 C2851 1.342 . S
C2856 C2854 1.285 . S
C2856 H2875 0.930 . S
C2857 C2860 1.424 . S
C2857 C2862 1.245 . S
C2857 C2863 1.428 . S
C2858 C2861 1.260 . S
C2858 C2862 1.477 . S
C2858 H2876 0.932 . S
C2859 C2860 1.384 . S
C2859 C2861 1.479 . S
C2859 H2877 0.929 . S
C2860 C2857 1.424 . S
C2860 C2859 1.384 . S
C2860 H2878 0.928 . S
C2861 C2858 1.260 . S
C2861 C2859 1.479 . S
C2862 C2857 1.245 . S
C2862 C2858 1.477 . S
C2862 H2879 0.932 . S
C2863 U2846 2.882 . S
C2863 C2857 1.428 . S
C2863 O2866 1.301 . S
C2863 O2867 1.282 . S
O2864 U2846 2.441 . S
O2864 C2850 1.249 . S
O2865 U2846 2.420 . S
O2865 C2850 1.202 . S
O2866 U2846 2.455 . S
O2866 C2863 1.301 . S
O2867 U2846 2.449 . S
O2867 C2863 1.282 . S
H2868 C2841 0.931 . S
H2869 C2843 0.929 . S
H2870 C2844 0.930 . S
H2871 C2845 0.931 . S
H2872 C2852 0.932 . S
H2873 C2853 0.930 . S
H2874 C2854 0.929 . S
H2875 C2856 0.930 . S
H2876 C2858 0.932 . S
H2877 C2859 0.929 . S
H2878 C2860 0.928 . S
H2879 C2862 0.932 . S
C2880 C2881 1.264 . S
C2880 C2885 1.479 . S
C2880 C2890 1.465 . S
C2881 C2880 1.264 . S
C2881 C2883 1.339 . S
C2881 H2908 0.931 . S
C2882 C2883 1.395 . S
C2882 C2884 1.320 . S
C2883 C2881 1.339 . S
C2883 C2882 1.395 . S
C2883 H2909 0.929 . S
C2884 C2882 1.320 . S
C2884 C2885 1.405 . S
C2884 H2910 0.930 . S
C2885 C2880 1.479 . S
C2885 C2884 1.405 . S
C2885 H2911 0.931 . S
U2886 O2887 2.454 . S
U2886 O2888 2.458 . S
U2886 C2889 2.984 . S
U2886 C2890 2.847 . S
U2886 C2903 2.882 . S
U2886 O2904 2.441 . S
U2886 O2905 2.420 . S
U2886 O2906 2.455 . S
U2886 O2907 2.449 . S
O2887 U2886 2.454 . S
O2887 C2889 1.353 . S
O2888 U2886 2.458 . S
O2888 C2889 1.286 . S
C2889 U2886 2.984 . S
C2889 O2887 1.353 . S
C2889 O2888 1.286 . S
C2889 C2891 1.363 . S
C2890 C2880 1.465 . S
C2890 U2886 2.847 . S
C2890 O2904 1.249 . S
C2890 O2905 1.202 . S
C2891 C2889 1.363 . S
C2891 C2893 1.408 . S
C2891 C2896 1.342 . S
C2892 C2893 1.310 . S
C2892 C2895 1.461 . S
C2892 H2912 0.932 . S
C2893 C2891 1.408 . S
C2893 C2892 1.310 . S
C2893 H2913 0.930 . S
C2894 C2895 1.474 . S
C2894 C2896 1.285 . S
C2894 H2914 0.929 . S
C2895 C2892 1.461 . S
C2895 C2894 1.474 . S
C2896 C2891 1.342 . S
C2896 C2894 1.285 . S
C2896 H2915 0.930 . S
C2897 C2900 1.424 . S
C2897 C2902 1.245 . S
C2897 C2903 1.428 . S
C2898 C2901 1.260 . S
C2898 C2902 1.477 . S
C2898 H2916 0.932 . S
C2899 C2900 1.384 . S
C2899 C2901 1.479 . S
C2899 H2917 0.929 . S
C2900 C2897 1.424 . S
C2900 C2899 1.384 . S
C2900 H2918 0.928 . S
C2901 C2898 1.260 . S
C2901 C2899 1.479 . S
C2902 C2897 1.245 . S
C2902 C2898 1.477 . S
C2902 H2919 0.932 . S
C2903 U2886 2.882 . S
C2903 C2897 1.428 . S
C2903 O2906 1.301 . S
C2903 O2907 1.282 . S
O2904 U2886 2.441 . S
O2904 C2890 1.249 . S
O2905 U2886 2.420 . S
O2905 C2890 1.202 . S
O2906 U2886 2.455 . S
O2906 C2903 1.301 . S
O2907 U2886 2.449 . S
O2907 C2903 1.282 . S
H2908 C2881 0.931 . S
H2909 C2883 0.929 . S
H2910 C2884 0.930 . S
H2911 C2885 0.931 . S
H2912 C2892 0.932 . S
H2913 C2893 0.930 . S
H2914 C2894 0.929 . S
H2915 C2896 0.930 . S
H2916 C2898 0.932 . S
H2917 C2899 0.929 . S
H2918 C2900 0.928 . S
H2919 C2902 0.932 . S
C2920 C2921 1.264 . S
C2920 C2925 1.479 . S
C2920 C2930 1.465 . S
C2921 C2920 1.264 . S
C2921 C2923 1.339 . S
C2921 H2948 0.931 . S
C2922 C2923 1.395 . S
C2922 C2924 1.320 . S
C2923 C2921 1.339 . S
C2923 C2922 1.395 . S
C2923 H2949 0.929 . S
C2924 C2922 1.320 . S
C2924 C2925 1.405 . S
C2924 H2950 0.930 . S
C2925 C2920 1.479 . S
C2925 C2924 1.405 . S
C2925 H2951 0.931 . S
U2926 O2927 2.454 . S
U2926 O2928 2.458 . S
U2926 C2929 2.984 . S
U2926 C2930 2.847 . S
U2926 C2943 2.882 . S
U2926 O2944 2.441 . S
U2926 O2945 2.420 . S
U2926 O2946 2.455 . S
U2926 O2947 2.449 . S
O2927 U2926 2.454 . S
O2927 C2929 1.353 . S
O2928 U2926 2.458 . S
O2928 C2929 1.286 . S
C2929 U2926 2.984 . S
C2929 O2927 1.353 . S
C2929 O2928 1.286 . S
C2929 C2931 1.363 . S
C2930 C2920 1.465 . S
C2930 U2926 2.847 . S
C2930 O2944 1.249 . S
C2930 O2945 1.202 . S
C2931 C2929 1.363 . S
C2931 C2933 1.408 . S
C2931 C2936 1.342 . S
C2932 C2933 1.310 . S
C2932 C2935 1.461 . S
C2932 H2952 0.932 . S
C2933 C2931 1.408 . S
C2933 C2932 1.310 . S
C2933 H2953 0.930 . S
C2934 C2935 1.474 . S
C2934 C2936 1.285 . S
C2934 H2954 0.929 . S
C2935 C2932 1.461 . S
C2935 C2934 1.474 . S
C2936 C2931 1.342 . S
C2936 C2934 1.285 . S
C2936 H2955 0.930 . S
C2937 C2940 1.424 . S
C2937 C2942 1.245 . S
C2937 C2943 1.428 . S
C2938 C2941 1.260 . S
C2938 C2942 1.477 . S
C2938 H2956 0.932 . S
C2939 C2940 1.384 . S
C2939 C2941 1.479 . S
C2939 H2957 0.929 . S
C2940 C2937 1.424 . S
C2940 C2939 1.384 . S
C2940 H2958 0.928 . S
C2941 C2938 1.260 . S
C2941 C2939 1.479 . S
C2942 C2937 1.245 . S
C2942 C2938 1.477 . S
C2942 H2959 0.932 . S
C2943 U2926 2.882 . S
C2943 C2937 1.428 . S
C2943 O2946 1.301 . S
C2943 O2947 1.282 . S
O2944 U2926 2.441 . S
O2944 C2930 1.249 . S
O2945 U2926 2.420 . S
O2945 C2930 1.202 . S
O2946 U2926 2.455 . S
O2946 C2943 1.301 . S
O2947 U2926 2.449 . S
O2947 C2943 1.282 . S
H2948 C2921 0.931 . S
H2949 C2923 0.929 . S
H2950 C2924 0.930 . S
H2951 C2925 0.931 . S
H2952 C2932 0.932 . S
H2953 C2933 0.930 . S
H2954 C2934 0.929 . S
H2955 C2936 0.930 . S
H2956 C2938 0.932 . S
H2957 C2939 0.929 . S
H2958 C2940 0.928 . S
H2959 C2942 0.932 . S
C2960 C2961 1.264 . S
C2960 C2965 1.479 . S
C2960 C2970 1.465 . S
C2961 C2960 1.264 . S
C2961 C2963 1.339 . S
C2961 H2988 0.931 . S
C2962 C2963 1.395 . S
C2962 C2964 1.320 . S
C2963 C2961 1.339 . S
C2963 C2962 1.395 . S
C2963 H2989 0.929 . S
C2964 C2962 1.320 . S
C2964 C2965 1.405 . S
C2964 H2990 0.930 . S
C2965 C2960 1.479 . S
C2965 C2964 1.405 . S
C2965 H2991 0.931 . S
U2966 O2967 2.454 . S
U2966 O2968 2.458 . S
U2966 C2969 2.984 . S
U2966 C2970 2.847 . S
U2966 C2983 2.882 . S
U2966 O2984 2.441 . S
U2966 O2985 2.420 . S
U2966 O2986 2.455 . S
U2966 O2987 2.449 . S
O2967 U2966 2.454 . S
O2967 C2969 1.353 . S
O2968 U2966 2.458 . S
O2968 C2969 1.286 . S
C2969 U2966 2.984 . S
C2969 O2967 1.353 . S
C2969 O2968 1.286 . S
C2969 C2971 1.363 . S
C2970 C2960 1.465 . S
C2970 U2966 2.847 . S
C2970 O2984 1.249 . S
C2970 O2985 1.202 . S
C2971 C2969 1.363 . S
C2971 C2973 1.408 . S
C2971 C2976 1.342 . S
C2972 C2973 1.310 . S
C2972 C2975 1.461 . S
C2972 H2992 0.932 . S
C2973 C2971 1.408 . S
C2973 C2972 1.310 . S
C2973 H2993 0.930 . S
C2974 C2975 1.474 . S
C2974 C2976 1.285 . S
C2974 H2994 0.929 . S
C2975 C2972 1.461 . S
C2975 C2974 1.474 . S
C2976 C2971 1.342 . S
C2976 C2974 1.285 . S
C2976 H2995 0.930 . S
C2977 C2980 1.424 . S
C2977 C2982 1.245 . S
C2977 C2983 1.428 . S
C2978 C2981 1.260 . S
C2978 C2982 1.477 . S
C2978 H2996 0.932 . S
C2979 C2980 1.384 . S
C2979 C2981 1.479 . S
C2979 H2997 0.929 . S
C2980 C2977 1.424 . S
C2980 C2979 1.384 . S
C2980 H2998 0.928 . S
C2981 C2978 1.260 . S
C2981 C2979 1.479 . S
C2982 C2977 1.245 . S
C2982 C2978 1.477 . S
C2982 H2999 0.932 . S
C2983 U2966 2.882 . S
C2983 C2977 1.428 . S
C2983 O2986 1.301 . S
C2983 O2987 1.282 . S
O2984 U2966 2.441 . S
O2984 C2970 1.249 . S
O2985 U2966 2.420 . S
O2985 C2970 1.202 . S
O2986 U2966 2.455 . S
O2986 C2983 1.301 . S
O2987 U2966 2.449 . S
O2987 C2983 1.282 . S
H2988 C2961 0.931 . S
H2989 C2963 0.929 . S
H2990 C2964 0.930 . S
H2991 C2965 0.931 . S
H2992 C2972 0.932 . S
H2993 C2973 0.930 . S
H2994 C2974 0.929 . S
H2995 C2976 0.930 . S
H2996 C2978 0.932 . S
H2997 C2979 0.929 . S
H2998 C2980 0.928 . S
H2999 C2982 0.932 . S
C3000 C3001 1.264 . S
C3000 C3005 1.479 . S
C3000 C3010 1.465 . S
C3001 C3000 1.264 . S
C3001 C3003 1.339 . S
C3001 H3028 0.931 . S
C3002 C3003 1.395 . S
C3002 C3004 1.320 . S
C3003 C3001 1.339 . S
C3003 C3002 1.395 . S
C3003 H3029 0.929 . S
C3004 C3002 1.320 . S
C3004 C3005 1.405 . S
C3004 H3030 0.930 . S
C3005 C3000 1.479 . S
C3005 C3004 1.405 . S
C3005 H3031 0.931 . S
U3006 O3007 2.454 . S
U3006 O3008 2.458 . S
U3006 C3009 2.984 . S
U3006 C3010 2.847 . S
U3006 C3023 2.882 . S
U3006 O3024 2.441 . S
U3006 O3025 2.420 . S
U3006 O3026 2.455 . S
U3006 O3027 2.449 . S
O3007 U3006 2.454 . S
O3007 C3009 1.353 . S
O3008 U3006 2.458 . S
O3008 C3009 1.286 . S
C3009 U3006 2.984 . S
C3009 O3007 1.353 . S
C3009 O3008 1.286 . S
C3009 C3011 1.363 . S
C3010 C3000 1.465 . S
C3010 U3006 2.847 . S
C3010 O3024 1.249 . S
C3010 O3025 1.202 . S
C3011 C3009 1.363 . S
C3011 C3013 1.408 . S
C3011 C3016 1.342 . S
C3012 C3013 1.310 . S
C3012 C3015 1.461 . S
C3012 H3032 0.932 . S
C3013 C3011 1.408 . S
C3013 C3012 1.310 . S
C3013 H3033 0.930 . S
C3014 C3015 1.474 . S
C3014 C3016 1.285 . S
C3014 H3034 0.929 . S
C3015 C3012 1.461 . S
C3015 C3014 1.474 . S
C3016 C3011 1.342 . S
C3016 C3014 1.285 . S
C3016 H3035 0.930 . S
C3017 C3020 1.424 . S
C3017 C3022 1.245 . S
C3017 C3023 1.428 . S
C3018 C3021 1.260 . S
C3018 C3022 1.477 . S
C3018 H3036 0.932 . S
C3019 C3020 1.384 . S
C3019 C3021 1.479 . S
C3019 H3037 0.929 . S
C3020 C3017 1.424 . S
C3020 C3019 1.384 . S
C3020 H3038 0.928 . S
C3021 C3018 1.260 . S
C3021 C3019 1.479 . S
C3022 C3017 1.245 . S
C3022 C3018 1.477 . S
C3022 H3039 0.932 . S
C3023 U3006 2.882 . S
C3023 C3017 1.428 . S
C3023 O3026 1.301 . S
C3023 O3027 1.282 . S
O3024 U3006 2.441 . S
O3024 C3010 1.249 . S
O3025 U3006 2.420 . S
O3025 C3010 1.202 . S
O3026 U3006 2.455 . S
O3026 C3023 1.301 . S
O3027 U3006 2.449 . S
O3027 C3023 1.282 . S
H3028 C3001 0.931 . S
H3029 C3003 0.929 . S
H3030 C3004 0.930 . S
H3031 C3005 0.931 . S
H3032 C3012 0.932 . S
H3033 C3013 0.930 . S
H3034 C3014 0.929 . S
H3035 C3016 0.930 . S
H3036 C3018 0.932 . S
H3037 C3019 0.929 . S
H3038 C3020 0.928 . S
H3039 C3022 0.932 . S
C3040 C3041 1.264 . S
C3040 C3045 1.479 . S
C3040 C3050 1.465 . S
C3041 C3040 1.264 . S
C3041 C3043 1.339 . S
C3041 H3068 0.931 . S
C3042 C3043 1.395 . S
C3042 C3044 1.320 . S
C3043 C3041 1.339 . S
C3043 C3042 1.395 . S
C3043 H3069 0.929 . S
C3044 C3042 1.320 . S
C3044 C3045 1.405 . S
C3044 H3070 0.930 . S
C3045 C3040 1.479 . S
C3045 C3044 1.405 . S
C3045 H3071 0.931 . S
U3046 O3047 2.454 . S
U3046 O3048 2.458 . S
U3046 C3049 2.984 . S
U3046 C3050 2.847 . S
U3046 C3063 2.882 . S
U3046 O3064 2.441 . S
U3046 O3065 2.420 . S
U3046 O3066 2.455 . S
U3046 O3067 2.449 . S
O3047 U3046 2.454 . S
O3047 C3049 1.353 . S
O3048 U3046 2.458 . S
O3048 C3049 1.286 . S
C3049 U3046 2.984 . S
C3049 O3047 1.353 . S
C3049 O3048 1.286 . S
C3049 C3051 1.363 . S
C3050 C3040 1.465 . S
C3050 U3046 2.847 . S
C3050 O3064 1.249 . S
C3050 O3065 1.202 . S
C3051 C3049 1.363 . S
C3051 C3053 1.408 . S
C3051 C3056 1.342 . S
C3052 C3053 1.310 . S
C3052 C3055 1.461 . S
C3052 H3072 0.932 . S
C3053 C3051 1.408 . S
C3053 C3052 1.310 . S
C3053 H3073 0.930 . S
C3054 C3055 1.474 . S
C3054 C3056 1.285 . S
C3054 H3074 0.929 . S
C3055 C3052 1.461 . S
C3055 C3054 1.474 . S
C3056 C3051 1.342 . S
C3056 C3054 1.285 . S
C3056 H3075 0.930 . S
C3057 C3060 1.424 . S
C3057 C3062 1.245 . S
C3057 C3063 1.428 . S
C3058 C3061 1.260 . S
C3058 C3062 1.477 . S
C3058 H3076 0.932 . S
C3059 C3060 1.384 . S
C3059 C3061 1.479 . S
C3059 H3077 0.929 . S
C3060 C3057 1.424 . S
C3060 C3059 1.384 . S
C3060 H3078 0.928 . S
C3061 C3058 1.260 . S
C3061 C3059 1.479 . S
C3062 C3057 1.245 . S
C3062 C3058 1.477 . S
C3062 H3079 0.932 . S
C3063 U3046 2.882 . S
C3063 C3057 1.428 . S
C3063 O3066 1.301 . S
C3063 O3067 1.282 . S
O3064 U3046 2.441 . S
O3064 C3050 1.249 . S
O3065 U3046 2.420 . S
O3065 C3050 1.202 . S
O3066 U3046 2.455 . S
O3066 C3063 1.301 . S
O3067 U3046 2.449 . S
O3067 C3063 1.282 . S
H3068 C3041 0.931 . S
H3069 C3043 0.929 . S
H3070 C3044 0.930 . S
H3071 C3045 0.931 . S
H3072 C3052 0.932 . S
H3073 C3053 0.930 . S
H3074 C3054 0.929 . S
H3075 C3056 0.930 . S
H3076 C3058 0.932 . S
H3077 C3059 0.929 . S
H3078 C3060 0.928 . S
H3079 C3062 0.932 . S
C3080 C3081 1.264 . S
C3080 C3085 1.479 . S
C3080 C3090 1.465 . S
C3081 C3080 1.264 . S
C3081 C3083 1.339 . S
C3081 H3108 0.931 . S
C3082 C3083 1.395 . S
C3082 C3084 1.320 . S
C3083 C3081 1.339 . S
C3083 C3082 1.395 . S
C3083 H3109 0.929 . S
C3084 C3082 1.320 . S
C3084 C3085 1.405 . S
C3084 H3110 0.930 . S
C3085 C3080 1.479 . S
C3085 C3084 1.405 . S
C3085 H3111 0.931 . S
U3086 O3087 2.454 . S
U3086 O3088 2.458 . S
U3086 C3089 2.984 . S
U3086 C3090 2.847 . S
U3086 C3103 2.882 . S
U3086 O3104 2.441 . S
U3086 O3105 2.420 . S
U3086 O3106 2.455 . S
U3086 O3107 2.449 . S
O3087 U3086 2.454 . S
O3087 C3089 1.353 . S
O3088 U3086 2.458 . S
O3088 C3089 1.286 . S
C3089 U3086 2.984 . S
C3089 O3087 1.353 . S
C3089 O3088 1.286 . S
C3089 C3091 1.363 . S
C3090 C3080 1.465 . S
C3090 U3086 2.847 . S
C3090 O3104 1.249 . S
C3090 O3105 1.202 . S
C3091 C3089 1.363 . S
C3091 C3093 1.408 . S
C3091 C3096 1.342 . S
C3092 C3093 1.310 . S
C3092 C3095 1.461 . S
C3092 H3112 0.932 . S
C3093 C3091 1.408 . S
C3093 C3092 1.310 . S
C3093 H3113 0.930 . S
C3094 C3095 1.474 . S
C3094 C3096 1.285 . S
C3094 H3114 0.929 . S
C3095 C3092 1.461 . S
C3095 C3094 1.474 . S
C3096 C3091 1.342 . S
C3096 C3094 1.285 . S
C3096 H3115 0.930 . S
C3097 C3100 1.424 . S
C3097 C3102 1.245 . S
C3097 C3103 1.428 . S
C3098 C3101 1.260 . S
C3098 C3102 1.477 . S
C3098 H3116 0.932 . S
C3099 C3100 1.384 . S
C3099 C3101 1.479 . S
C3099 H3117 0.929 . S
C3100 C3097 1.424 . S
C3100 C3099 1.384 . S
C3100 H3118 0.928 . S
C3101 C3098 1.260 . S
C3101 C3099 1.479 . S
C3102 C3097 1.245 . S
C3102 C3098 1.477 . S
C3102 H3119 0.932 . S
C3103 U3086 2.882 . S
C3103 C3097 1.428 . S
C3103 O3106 1.301 . S
C3103 O3107 1.282 . S
O3104 U3086 2.441 . S
O3104 C3090 1.249 . S
O3105 U3086 2.420 . S
O3105 C3090 1.202 . S
O3106 U3086 2.455 . S
O3106 C3103 1.301 . S
O3107 U3086 2.449 . S
O3107 C3103 1.282 . S
H3108 C3081 0.931 . S
H3109 C3083 0.929 . S
H3110 C3084 0.930 . S
H3111 C3085 0.931 . S
H3112 C3092 0.932 . S
H3113 C3093 0.930 . S
H3114 C3094 0.929 . S
H3115 C3096 0.930 . S
H3116 C3098 0.932 . S
H3117 C3099 0.929 . S
H3118 C3100 0.928 . S
H3119 C3102 0.932 . S
C3120 C3121 1.264 . S
C3120 C3125 1.479 . S
C3120 C3130 1.465 . S
C3121 C3120 1.264 . S
C3121 C3123 1.339 . S
C3121 H3148 0.931 . S
C3122 C3123 1.395 . S
C3122 C3124 1.320 . S
C3123 C3121 1.339 . S
C3123 C3122 1.395 . S
C3123 H3149 0.929 . S
C3124 C3122 1.320 . S
C3124 C3125 1.405 . S
C3124 H3150 0.930 . S
C3125 C3120 1.479 . S
C3125 C3124 1.405 . S
C3125 H3151 0.931 . S
U3126 O3127 2.454 . S
U3126 O3128 2.458 . S
U3126 C3129 2.984 . S
U3126 C3130 2.847 . S
U3126 C3143 2.882 . S
U3126 O3144 2.441 . S
U3126 O3145 2.420 . S
U3126 O3146 2.455 . S
U3126 O3147 2.449 . S
O3127 U3126 2.454 . S
O3127 C3129 1.353 . S
O3128 U3126 2.458 . S
O3128 C3129 1.286 . S
C3129 U3126 2.984 . S
C3129 O3127 1.353 . S
C3129 O3128 1.286 . S
C3129 C3131 1.363 . S
C3130 C3120 1.465 . S
C3130 U3126 2.847 . S
C3130 O3144 1.249 . S
C3130 O3145 1.202 . S
C3131 C3129 1.363 . S
C3131 C3133 1.408 . S
C3131 C3136 1.342 . S
C3132 C3133 1.310 . S
C3132 C3135 1.461 . S
C3132 H3152 0.932 . S
C3133 C3131 1.408 . S
C3133 C3132 1.310 . S
C3133 H3153 0.930 . S
C3134 C3135 1.474 . S
C3134 C3136 1.285 . S
C3134 H3154 0.929 . S
C3135 C3132 1.461 . S
C3135 C3134 1.474 . S
C3136 C3131 1.342 . S
C3136 C3134 1.285 . S
C3136 H3155 0.930 . S
C3137 C3140 1.424 . S
C3137 C3142 1.245 . S
C3137 C3143 1.428 . S
C3138 C3141 1.260 . S
C3138 C3142 1.477 . S
C3138 H3156 0.932 . S
C3139 C3140 1.384 . S
C3139 C3141 1.479 . S
C3139 H3157 0.929 . S
C3140 C3137 1.424 . S
C3140 C3139 1.384 . S
C3140 H3158 0.928 . S
C3141 C3138 1.260 . S
C3141 C3139 1.479 . S
C3142 C3137 1.245 . S
C3142 C3138 1.477 . S
C3142 H3159 0.932 . S
C3143 U3126 2.882 . S
C3143 C3137 1.428 . S
C3143 O3146 1.301 . S
C3143 O3147 1.282 . S
O3144 U3126 2.441 . S
O3144 C3130 1.249 . S
O3145 U3126 2.420 . S
O3145 C3130 1.202 . S
O3146 U3126 2.455 . S
O3146 C3143 1.301 . S
O3147 U3126 2.449 . S
O3147 C3143 1.282 . S
H3148 C3121 0.931 . S
H3149 C3123 0.929 . S
H3150 C3124 0.930 . S
H3151 C3125 0.931 . S
H3152 C3132 0.932 . S
H3153 C3133 0.930 . S
H3154 C3134 0.929 . S
H3155 C3136 0.930 . S
H3156 C3138 0.932 . S
H3157 C3139 0.929 . S
H3158 C3140 0.928 . S
H3159 C3142 0.932 . S
C3160 C3161 1.264 . S
C3160 C3165 1.479 . S
C3160 C3170 1.465 . S
C3161 C3160 1.264 . S
C3161 C3163 1.339 . S
C3161 H3188 0.931 . S
C3162 C3163 1.395 . S
C3162 C3164 1.320 . S
C3163 C3161 1.339 . S
C3163 C3162 1.395 . S
C3163 H3189 0.929 . S
C3164 C3162 1.320 . S
C3164 C3165 1.405 . S
C3164 H3190 0.930 . S
C3165 C3160 1.479 . S
C3165 C3164 1.405 . S
C3165 H3191 0.931 . S
U3166 O3167 2.454 . S
U3166 O3168 2.458 . S
U3166 C3169 2.984 . S
U3166 C3170 2.847 . S
U3166 C3183 2.882 . S
U3166 O3184 2.441 . S
U3166 O3185 2.420 . S
U3166 O3186 2.455 . S
U3166 O3187 2.449 . S
O3167 U3166 2.454 . S
O3167 C3169 1.353 . S
O3168 U3166 2.458 . S
O3168 C3169 1.286 . S
C3169 U3166 2.984 . S
C3169 O3167 1.353 . S
C3169 O3168 1.286 . S
C3169 C3171 1.363 . S
C3170 C3160 1.465 . S
C3170 U3166 2.847 . S
C3170 O3184 1.249 . S
C3170 O3185 1.202 . S
C3171 C3169 1.363 . S
C3171 C3173 1.408 . S
C3171 C3176 1.342 . S
C3172 C3173 1.310 . S
C3172 C3175 1.461 . S
C3172 H3192 0.932 . S
C3173 C3171 1.408 . S
C3173 C3172 1.310 . S
C3173 H3193 0.930 . S
C3174 C3175 1.474 . S
C3174 C3176 1.285 . S
C3174 H3194 0.929 . S
C3175 C3172 1.461 . S
C3175 C3174 1.474 . S
C3176 C3171 1.342 . S
C3176 C3174 1.285 . S
C3176 H3195 0.930 . S
C3177 C3180 1.424 . S
C3177 C3182 1.245 . S
C3177 C3183 1.428 . S
C3178 C3181 1.260 . S
C3178 C3182 1.477 . S
C3178 H3196 0.932 . S
C3179 C3180 1.384 . S
C3179 C3181 1.479 . S
C3179 H3197 0.929 . S
C3180 C3177 1.424 . S
C3180 C3179 1.384 . S
C3180 H3198 0.928 . S
C3181 C3178 1.260 . S
C3181 C3179 1.479 . S
C3182 C3177 1.245 . S
C3182 C3178 1.477 . S
C3182 H3199 0.932 . S
C3183 U3166 2.882 . S
C3183 C3177 1.428 . S
C3183 O3186 1.301 . S
C3183 O3187 1.282 . S
O3184 U3166 2.441 . S
O3184 C3170 1.249 . S
O3185 U3166 2.420 . S
O3185 C3170 1.202 . S
O3186 U3166 2.455 . S
O3186 C3183 1.301 . S
O3187 U3166 2.449 . S
O3187 C3183 1.282 . S
H3188 C3161 0.931 . S
H3189 C3163 0.929 . S
H3190 C3164 0.930 . S
H3191 C3165 0.931 . S
H3192 C3172 0.932 . S
H3193 C3173 0.930 . S
H3194 C3174 0.929 . S
H3195 C3176 0.930 . S
H3196 C3178 0.932 . S
H3197 C3179 0.929 . S
H3198 C3180 0.928 . S
H3199 C3182 0.932 . S
C3200 C3201 1.264 . S
C3200 C3205 1.479 . S
C3200 C3210 1.465 . S
C3201 C3200 1.264 . S
C3201 C3203 1.339 . S
C3201 H3228 0.931 . S
C3202 C3203 1.395 . S
C3202 C3204 1.320 . S
C3203 C3201 1.339 . S
C3203 C3202 1.395 . S
C3203 H3229 0.929 . S
C3204 C3202 1.320 . S
C3204 C3205 1.405 . S
C3204 H3230 0.930 . S
C3205 C3200 1.479 . S
C3205 C3204 1.405 . S
C3205 H3231 0.931 . S
U3206 O3207 2.454 . S
U3206 O3208 2.458 . S
U3206 C3209 2.984 . S
U3206 C3210 2.847 . S
U3206 C3223 2.882 . S
U3206 O3224 2.441 . S
U3206 O3225 2.420 . S
U3206 O3226 2.455 . S
U3206 O3227 2.449 . S
O3207 U3206 2.454 . S
O3207 C3209 1.353 . S
O3208 U3206 2.458 . S
O3208 C3209 1.286 . S
C3209 U3206 2.984 . S
C3209 O3207 1.353 . S
C3209 O3208 1.286 . S
C3209 C3211 1.363 . S
C3210 C3200 1.465 . S
C3210 U3206 2.847 . S
C3210 O3224 1.249 . S
C3210 O3225 1.202 . S
C3211 C3209 1.363 . S
C3211 C3213 1.408 . S
C3211 C3216 1.342 . S
C3212 C3213 1.310 . S
C3212 C3215 1.461 . S
C3212 H3232 0.932 . S
C3213 C3211 1.408 . S
C3213 C3212 1.310 . S
C3213 H3233 0.930 . S
C3214 C3215 1.474 . S
C3214 C3216 1.285 . S
C3214 H3234 0.929 . S
C3215 C3212 1.461 . S
C3215 C3214 1.474 . S
C3216 C3211 1.342 . S
C3216 C3214 1.285 . S
C3216 H3235 0.930 . S
C3217 C3220 1.424 . S
C3217 C3222 1.245 . S
C3217 C3223 1.428 . S
C3218 C3221 1.260 . S
C3218 C3222 1.477 . S
C3218 H3236 0.932 . S
C3219 C3220 1.384 . S
C3219 C3221 1.479 . S
C3219 H3237 0.929 . S
C3220 C3217 1.424 . S
C3220 C3219 1.384 . S
C3220 H3238 0.928 . S
C3221 C3218 1.260 . S
C3221 C3219 1.479 . S
C3222 C3217 1.245 . S
C3222 C3218 1.477 . S
C3222 H3239 0.932 . S
C3223 U3206 2.882 . S
C3223 C3217 1.428 . S
C3223 O3226 1.301 . S
C3223 O3227 1.282 . S
O3224 U3206 2.441 . S
O3224 C3210 1.249 . S
O3225 U3206 2.420 . S
O3225 C3210 1.202 . S
O3226 U3206 2.455 . S
O3226 C3223 1.301 . S
O3227 U3206 2.449 . S
O3227 C3223 1.282 . S
H3228 C3201 0.931 . S
H3229 C3203 0.929 . S
H3230 C3204 0.930 . S
H3231 C3205 0.931 . S
H3232 C3212 0.932 . S
H3233 C3213 0.930 . S
H3234 C3214 0.929 . S
H3235 C3216 0.930 . S
H3236 C3218 0.932 . S
H3237 C3219 0.929 . S
H3238 C3220 0.928 . S
H3239 C3222 0.932 . S
C3240 C3241 1.264 . S
C3240 C3245 1.479 . S
C3240 C3250 1.465 . S
C3241 C3240 1.264 . S
C3241 C3243 1.339 . S
C3241 H3268 0.931 . S
C3242 C3243 1.395 . S
C3242 C3244 1.320 . S
C3243 C3241 1.339 . S
C3243 C3242 1.395 . S
C3243 H3269 0.929 . S
C3244 C3242 1.320 . S
C3244 C3245 1.405 . S
C3244 H3270 0.930 . S
C3245 C3240 1.479 . S
C3245 C3244 1.405 . S
C3245 H3271 0.931 . S
U3246 O3247 2.454 . S
U3246 O3248 2.458 . S
U3246 C3249 2.984 . S
U3246 C3250 2.847 . S
U3246 C3263 2.882 . S
U3246 O3264 2.441 . S
U3246 O3265 2.420 . S
U3246 O3266 2.455 . S
U3246 O3267 2.449 . S
O3247 U3246 2.454 . S
O3247 C3249 1.353 . S
O3248 U3246 2.458 . S
O3248 C3249 1.286 . S
C3249 U3246 2.984 . S
C3249 O3247 1.353 . S
C3249 O3248 1.286 . S
C3249 C3251 1.363 . S
C3250 C3240 1.465 . S
C3250 U3246 2.847 . S
C3250 O3264 1.249 . S
C3250 O3265 1.202 . S
C3251 C3249 1.363 . S
C3251 C3253 1.408 . S
C3251 C3256 1.342 . S
C3252 C3253 1.310 . S
C3252 C3255 1.461 . S
C3252 H3272 0.932 . S
C3253 C3251 1.408 . S
C3253 C3252 1.310 . S
C3253 H3273 0.930 . S
C3254 C3255 1.474 . S
C3254 C3256 1.285 . S
C3254 H3274 0.929 . S
C3255 C3252 1.461 . S
C3255 C3254 1.474 . S
C3256 C3251 1.342 . S
C3256 C3254 1.285 . S
C3256 H3275 0.930 . S
C3257 C3260 1.424 . S
C3257 C3262 1.245 . S
C3257 C3263 1.428 . S
C3258 C3261 1.260 . S
C3258 C3262 1.477 . S
C3258 H3276 0.932 . S
C3259 C3260 1.384 . S
C3259 C3261 1.479 . S
C3259 H3277 0.929 . S
C3260 C3257 1.424 . S
C3260 C3259 1.384 . S
C3260 H3278 0.928 . S
C3261 C3258 1.260 . S
C3261 C3259 1.479 . S
C3262 C3257 1.245 . S
C3262 C3258 1.477 . S
C3262 H3279 0.932 . S
C3263 U3246 2.882 . S
C3263 C3257 1.428 . S
C3263 O3266 1.301 . S
C3263 O3267 1.282 . S
O3264 U3246 2.441 . S
O3264 C3250 1.249 . S
O3265 U3246 2.420 . S
O3265 C3250 1.202 . S
O3266 U3246 2.455 . S
O3266 C3263 1.301 . S
O3267 U3246 2.449 . S
O3267 C3263 1.282 . S
H3268 C3241 0.931 . S
H3269 C3243 0.929 . S
H3270 C3244 0.930 . S
H3271 C3245 0.931 . S
H3272 C3252 0.932 . S
H3273 C3253 0.930 . S
H3274 C3254 0.929 . S
H3275 C3256 0.930 . S
H3276 C3258 0.932 . S
H3277 C3259 0.929 . S
H3278 C3260 0.928 . S
H3279 C3262 0.932 . S
C3280 C3281 1.264 . S
C3280 C3285 1.479 . S
C3280 C3290 1.465 . S
C3281 C3280 1.264 . S
C3281 C3283 1.339 . S
C3281 H3308 0.931 . S
C3282 C3283 1.395 . S
C3282 C3284 1.320 . S
C3283 C3281 1.339 . S
C3283 C3282 1.395 . S
C3283 H3309 0.929 . S
C3284 C3282 1.320 . S
C3284 C3285 1.405 . S
C3284 H3310 0.930 . S
C3285 C3280 1.479 . S
C3285 C3284 1.405 . S
C3285 H3311 0.931 . S
U3286 O3287 2.454 . S
U3286 O3288 2.458 . S
U3286 C3289 2.984 . S
U3286 C3290 2.847 . S
U3286 C3303 2.882 . S
U3286 O3304 2.441 . S
U3286 O3305 2.420 . S
U3286 O3306 2.455 . S
U3286 O3307 2.449 . S
O3287 U3286 2.454 . S
O3287 C3289 1.353 . S
O3288 U3286 2.458 . S
O3288 C3289 1.286 . S
C3289 U3286 2.984 . S
C3289 O3287 1.353 . S
C3289 O3288 1.286 . S
C3289 C3291 1.363 . S
C3290 C3280 1.465 . S
C3290 U3286 2.847 . S
C3290 O3304 1.249 . S
C3290 O3305 1.202 . S
C3291 C3289 1.363 . S
C3291 C3293 1.408 . S
C3291 C3296 1.342 . S
C3292 C3293 1.310 . S
C3292 C3295 1.461 . S
C3292 H3312 0.932 . S
C3293 C3291 1.408 . S
C3293 C3292 1.310 . S
C3293 H3313 0.930 . S
C3294 C3295 1.474 . S
C3294 C3296 1.285 . S
C3294 H3314 0.929 . S
C3295 C3292 1.461 . S
C3295 C3294 1.474 . S
C3296 C3291 1.342 . S
C3296 C3294 1.285 . S
C3296 H3315 0.930 . S
C3297 C3300 1.424 . S
C3297 C3302 1.245 . S
C3297 C3303 1.428 . S
C3298 C3301 1.260 . S
C3298 C3302 1.477 . S
C3298 H3316 0.932 . S
C3299 C3300 1.384 . S
C3299 C3301 1.479 . S
C3299 H3317 0.929 . S
C3300 C3297 1.424 . S
C3300 C3299 1.384 . S
C3300 H3318 0.928 . S
C3301 C3298 1.260 . S
C3301 C3299 1.479 . S
C3302 C3297 1.245 . S
C3302 C3298 1.477 . S
C3302 H3319 0.932 . S
C3303 U3286 2.882 . S
C3303 C3297 1.428 . S
C3303 O3306 1.301 . S
C3303 O3307 1.282 . S
O3304 U3286 2.441 . S
O3304 C3290 1.249 . S
O3305 U3286 2.420 . S
O3305 C3290 1.202 . S
O3306 U3286 2.455 . S
O3306 C3303 1.301 . S
O3307 U3286 2.449 . S
O3307 C3303 1.282 . S
H3308 C3281 0.931 . S
H3309 C3283 0.929 . S
H3310 C3284 0.930 . S
H3311 C3285 0.931 . S
H3312 C3292 0.932 . S
H3313 C3293 0.930 . S
H3314 C3294 0.929 . S
H3315 C3296 0.930 . S
H3316 C3298 0.932 . S
H3317 C3299 0.929 . S
H3318 C3300 0.928 . S
H3319 C3302 0.932 . S
C3320 C3321 1.264 . S
C3320 C3325 1.479 . S
C3320 C3330 1.465 . S
C3321 C3320 1.264 . S
C3321 C3323 1.339 . S
C3321 H3348 0.931 . S
C3322 C3323 1.395 . S
C3322 C3324 1.320 . S
C3323 C3321 1.339 . S
C3323 C3322 1.395 . S
C3323 H3349 0.929 . S
C3324 C3322 1.320 . S
C3324 C3325 1.405 . S
C3324 H3350 0.930 . S
C3325 C3320 1.479 . S
C3325 C3324 1.405 . S
C3325 H3351 0.931 . S
U3326 O3327 2.454 . S
U3326 O3328 2.458 . S
U3326 C3329 2.984 . S
U3326 C3330 2.847 . S
U3326 C3343 2.882 . S
U3326 O3344 2.441 . S
U3326 O3345 2.420 . S
U3326 O3346 2.455 . S
U3326 O3347 2.449 . S
O3327 U3326 2.454 . S
O3327 C3329 1.353 . S
O3328 U3326 2.458 . S
O3328 C3329 1.286 . S
C3329 U3326 2.984 . S
C3329 O3327 1.353 . S
C3329 O3328 1.286 . S
C3329 C3331 1.363 . S
C3330 C3320 1.465 . S
C3330 U3326 2.847 . S
C3330 O3344 1.249 . S
C3330 O3345 1.202 . S
C3331 C3329 1.363 . S
C3331 C3333 1.408 . S
C3331 C3336 1.342 . S
C3332 C3333 1.310 . S
C3332 C3335 1.461 . S
C3332 H3352 0.932 . S
C3333 C3331 1.408 . S
C3333 C3332 1.310 . S
C3333 H3353 0.930 . S
C3334 C3335 1.474 . S
C3334 C3336 1.285 . S
C3334 H3354 0.929 . S
C3335 C3332 1.461 . S
C3335 C3334 1.474 . S
C3336 C3331 1.342 . S
C3336 C3334 1.285 . S
C3336 H3355 0.930 . S
C3337 C3340 1.424 . S
C3337 C3342 1.245 . S
C3337 C3343 1.428 . S
C3338 C3341 1.260 . S
C3338 C3342 1.477 . S
C3338 H3356 0.932 . S
C3339 C3340 1.384 . S
C3339 C3341 1.479 . S
C3339 H3357 0.929 . S
C3340 C3337 1.424 . S
C3340 C3339 1.384 . S
C3340 H3358 0.928 . S
C3341 C3338 1.260 . S
C3341 C3339 1.479 . S
C3342 C3337 1.245 . S
C3342 C3338 1.477 . S
C3342 H3359 0.932 . S
C3343 U3326 2.882 . S
C3343 C3337 1.428 . S
C3343 O3346 1.301 . S
C3343 O3347 1.282 . S
O3344 U3326 2.441 . S
O3344 C3330 1.249 . S
O3345 U3326 2.420 . S
O3345 C3330 1.202 . S
O3346 U3326 2.455 . S
O3346 C3343 1.301 . S
O3347 U3326 2.449 . S
O3347 C3343 1.282 . S
H3348 C3321 0.931 . S
H3349 C3323 0.929 . S
H3350 C3324 0.930 . S
H3351 C3325 0.931 . S
H3352 C3332 0.932 . S
H3353 C3333 0.930 . S
H3354 C3334 0.929 . S
H3355 C3336 0.930 . S
H3356 C3338 0.932 . S
H3357 C3339 0.929 . S
H3358 C3340 0.928 . S
H3359 C3342 0.932 . S
C3360 C3361 1.264 . S
C3360 C3365 1.479 . S
C3360 C3370 1.465 . S
C3361 C3360 1.264 . S
C3361 C3363 1.339 . S
C3361 H3388 0.931 . S
C3362 C3363 1.395 . S
C3362 C3364 1.320 . S
C3363 C3361 1.339 . S
C3363 C3362 1.395 . S
C3363 H3389 0.929 . S
C3364 C3362 1.320 . S
C3364 C3365 1.405 . S
C3364 H3390 0.930 . S
C3365 C3360 1.479 . S
C3365 C3364 1.405 . S
C3365 H3391 0.931 . S
U3366 O3367 2.454 . S
U3366 O3368 2.458 . S
U3366 C3369 2.984 . S
U3366 C3370 2.847 . S
U3366 C3383 2.882 . S
U3366 O3384 2.441 . S
U3366 O3385 2.420 . S
U3366 O3386 2.455 . S
U3366 O3387 2.449 . S
O3367 U3366 2.454 . S
O3367 C3369 1.353 . S
O3368 U3366 2.458 . S
O3368 C3369 1.286 . S
C3369 U3366 2.984 . S
C3369 O3367 1.353 . S
C3369 O3368 1.286 . S
C3369 C3371 1.363 . S
C3370 C3360 1.465 . S
C3370 U3366 2.847 . S
C3370 O3384 1.249 . S
C3370 O3385 1.202 . S
C3371 C3369 1.363 . S
C3371 C3373 1.408 . S
C3371 C3376 1.342 . S
C3372 C3373 1.310 . S
C3372 C3375 1.461 . S
C3372 H3392 0.932 . S
C3373 C3371 1.408 . S
C3373 C3372 1.310 . S
C3373 H3393 0.930 . S
C3374 C3375 1.474 . S
C3374 C3376 1.285 . S
C3374 H3394 0.929 . S
C3375 C3372 1.461 . S
C3375 C3374 1.474 . S
C3376 C3371 1.342 . S
C3376 C3374 1.285 . S
C3376 H3395 0.930 . S
C3377 C3380 1.424 . S
C3377 C3382 1.245 . S
C3377 C3383 1.428 . S
C3378 C3381 1.260 . S
C3378 C3382 1.477 . S
C3378 H3396 0.932 . S
C3379 C3380 1.384 . S
C3379 C3381 1.479 . S
C3379 H3397 0.929 . S
C3380 C3377 1.424 . S
C3380 C3379 1.384 . S
C3380 H3398 0.928 . S
C3381 C3378 1.260 . S
C3381 C3379 1.479 . S
C3382 C3377 1.245 . S
C3382 C3378 1.477 . S
C3382 H3399 0.932 . S
C3383 U3366 2.882 . S
C3383 C3377 1.428 . S
C3383 O3386 1.301 . S
C3383 O3387 1.282 . S
O3384 U3366 2.441 . S
O3384 C3370 1.249 . S
O3385 U3366 2.420 . S
O3385 C3370 1.202 . S
O3386 U3366 2.455 . S
O3386 C3383 1.301 . S
O3387 U3366 2.449 . S
O3387 C3383 1.282 . S
H3388 C3361 0.931 . S
H3389 C3363 0.929 . S
H3390 C3364 0.930 . S
H3391 C3365 0.931 . S
H3392 C3372 0.932 . S
H3393 C3373 0.930 . S
H3394 C3374 0.929 . S
H3395 C3376 0.930 . S
H3396 C3378 0.932 . S
H3397 C3379 0.929 . S
H3398 C3380 0.928 . S
H3399 C3382 0.932 . S
C3400 C3401 1.264 . S
C3400 C3405 1.479 . S
C3400 C3410 1.465 . S
C3401 C3400 1.264 . S
C3401 C3403 1.339 . S
C3401 H3428 0.931 . S
C3402 C3403 1.395 . S
C3402 C3404 1.320 . S
C3403 C3401 1.339 . S
C3403 C3402 1.395 . S
C3403 H3429 0.929 . S
C3404 C3402 1.320 . S
C3404 C3405 1.405 . S
C3404 H3430 0.930 . S
C3405 C3400 1.479 . S
C3405 C3404 1.405 . S
C3405 H3431 0.931 . S
U3406 O3407 2.454 . S
U3406 O3408 2.458 . S
U3406 C3409 2.984 . S
U3406 C3410 2.847 . S
U3406 C3423 2.882 . S
U3406 O3424 2.441 . S
U3406 O3425 2.420 . S
U3406 O3426 2.455 . S
U3406 O3427 2.449 . S
O3407 U3406 2.454 . S
O3407 C3409 1.353 . S
O3408 U3406 2.458 . S
O3408 C3409 1.286 . S
C3409 U3406 2.984 . S
C3409 O3407 1.353 . S
C3409 O3408 1.286 . S
C3409 C3411 1.363 . S
C3410 C3400 1.465 . S
C3410 U3406 2.847 . S
C3410 O3424 1.249 . S
C3410 O3425 1.202 . S
C3411 C3409 1.363 . S
C3411 C3413 1.408 . S
C3411 C3416 1.342 . S
C3412 C3413 1.310 . S
C3412 C3415 1.461 . S
C3412 H3432 0.932 . S
C3413 C3411 1.408 . S
C3413 C3412 1.310 . S
C3413 H3433 0.930 . S
C3414 C3415 1.474 . S
C3414 C3416 1.285 . S
C3414 H3434 0.929 . S
C3415 C3412 1.461 . S
C3415 C3414 1.474 . S
C3416 C3411 1.342 . S
C3416 C3414 1.285 . S
C3416 H3435 0.930 . S
C3417 C3420 1.424 . S
C3417 C3422 1.245 . S
C3417 C3423 1.428 . S
C3418 C3421 1.260 . S
C3418 C3422 1.477 . S
C3418 H3436 0.932 . S
C3419 C3420 1.384 . S
C3419 C3421 1.479 . S
C3419 H3437 0.929 . S
C3420 C3417 1.424 . S
C3420 C3419 1.384 . S
C3420 H3438 0.928 . S
C3421 C3418 1.260 . S
C3421 C3419 1.479 . S
C3422 C3417 1.245 . S
C3422 C3418 1.477 . S
C3422 H3439 0.932 . S
C3423 U3406 2.882 . S
C3423 C3417 1.428 . S
C3423 O3426 1.301 . S
C3423 O3427 1.282 . S
O3424 U3406 2.441 . S
O3424 C3410 1.249 . S
O3425 U3406 2.420 . S
O3425 C3410 1.202 . S
O3426 U3406 2.455 . S
O3426 C3423 1.301 . S
O3427 U3406 2.449 . S
O3427 C3423 1.282 . S
H3428 C3401 0.931 . S
H3429 C3403 0.929 . S
H3430 C3404 0.930 . S
H3431 C3405 0.931 . S
H3432 C3412 0.932 . S
H3433 C3413 0.930 . S
H3434 C3414 0.929 . S
H3435 C3416 0.930 . S
H3436 C3418 0.932 . S
H3437 C3419 0.929 . S
H3438 C3420 0.928 . S
H3439 C3422 0.932 . S
C3440 C3441 1.264 . S
C3440 C3445 1.479 . S
C3440 C3450 1.465 . S
C3441 C3440 1.264 . S
C3441 C3443 1.339 . S
C3441 H3468 0.931 . S
C3442 C3443 1.395 . S
C3442 C3444 1.320 . S
C3443 C3441 1.339 . S
C3443 C3442 1.395 . S
C3443 H3469 0.929 . S
C3444 C3442 1.320 . S
C3444 C3445 1.405 . S
C3444 H3470 0.930 . S
C3445 C3440 1.479 . S
C3445 C3444 1.405 . S
C3445 H3471 0.931 . S
U3446 O3447 2.454 . S
U3446 O3448 2.458 . S
U3446 C3449 2.984 . S
U3446 C3450 2.847 . S
U3446 C3463 2.882 . S
U3446 O3464 2.441 . S
U3446 O3465 2.420 . S
U3446 O3466 2.455 . S
U3446 O3467 2.449 . S
O3447 U3446 2.454 . S
O3447 C3449 1.353 . S
O3448 U3446 2.458 . S
O3448 C3449 1.286 . S
C3449 U3446 2.984 . S
C3449 O3447 1.353 . S
C3449 O3448 1.286 . S
C3449 C3451 1.363 . S
C3450 C3440 1.465 . S
C3450 U3446 2.847 . S
C3450 O3464 1.249 . S
C3450 O3465 1.202 . S
C3451 C3449 1.363 . S
C3451 C3453 1.408 . S
C3451 C3456 1.342 . S
C3452 C3453 1.310 . S
C3452 C3455 1.461 . S
C3452 H3472 0.932 . S
C3453 C3451 1.408 . S
C3453 C3452 1.310 . S
C3453 H3473 0.930 . S
C3454 C3455 1.474 . S
C3454 C3456 1.285 . S
C3454 H3474 0.929 . S
C3455 C3452 1.461 . S
C3455 C3454 1.474 . S
C3456 C3451 1.342 . S
C3456 C3454 1.285 . S
C3456 H3475 0.930 . S
C3457 C3460 1.424 . S
C3457 C3462 1.245 . S
C3457 C3463 1.428 . S
C3458 C3461 1.260 . S
C3458 C3462 1.477 . S
C3458 H3476 0.932 . S
C3459 C3460 1.384 . S
C3459 C3461 1.479 . S
C3459 H3477 0.929 . S
C3460 C3457 1.424 . S
C3460 C3459 1.384 . S
C3460 H3478 0.928 . S
C3461 C3458 1.260 . S
C3461 C3459 1.479 . S
C3462 C3457 1.245 . S
C3462 C3458 1.477 . S
C3462 H3479 0.932 . S
C3463 U3446 2.882 . S
C3463 C3457 1.428 . S
C3463 O3466 1.301 . S
C3463 O3467 1.282 . S
O3464 U3446 2.441 . S
O3464 C3450 1.249 . S
O3465 U3446 2.420 . S
O3465 C3450 1.202 . S
O3466 U3446 2.455 . S
O3466 C3463 1.301 . S
O3467 U3446 2.449 . S
O3467 C3463 1.282 . S
H3468 C3441 0.931 . S
H3469 C3443 0.929 . S
H3470 C3444 0.930 . S
H3471 C3445 0.931 . S
H3472 C3452 0.932 . S
H3473 C3453 0.930 . S
H3474 C3454 0.929 . S
H3475 C3456 0.930 . S
H3476 C3458 0.932 . S
H3477 C3459 0.929 . S
H3478 C3460 0.928 . S
H3479 C3462 0.932 . S
C3480 C3481 1.264 . S
C3480 C3485 1.479 . S
C3480 C3490 1.465 . S
C3481 C3480 1.264 . S
C3481 C3483 1.339 . S
C3481 H3508 0.931 . S
C3482 C3483 1.395 . S
C3482 C3484 1.320 . S
C3483 C3481 1.339 . S
C3483 C3482 1.395 . S
C3483 H3509 0.929 . S
C3484 C3482 1.320 . S
C3484 C3485 1.405 . S
C3484 H3510 0.930 . S
C3485 C3480 1.479 . S
C3485 C3484 1.405 . S
C3485 H3511 0.931 . S
U3486 O3487 2.454 . S
U3486 O3488 2.458 . S
U3486 C3489 2.984 . S
U3486 C3490 2.847 . S
U3486 C3503 2.882 . S
U3486 O3504 2.441 . S
U3486 O3505 2.420 . S
U3486 O3506 2.455 . S
U3486 O3507 2.449 . S
O3487 U3486 2.454 . S
O3487 C3489 1.353 . S
O3488 U3486 2.458 . S
O3488 C3489 1.286 . S
C3489 U3486 2.984 . S
C3489 O3487 1.353 . S
C3489 O3488 1.286 . S
C3489 C3491 1.363 . S
C3490 C3480 1.465 . S
C3490 U3486 2.847 . S
C3490 O3504 1.249 . S
C3490 O3505 1.202 . S
C3491 C3489 1.363 . S
C3491 C3493 1.408 . S
C3491 C3496 1.342 . S
C3492 C3493 1.310 . S
C3492 C3495 1.461 . S
C3492 H3512 0.932 . S
C3493 C3491 1.408 . S
C3493 C3492 1.310 . S
C3493 H3513 0.930 . S
C3494 C3495 1.474 . S
C3494 C3496 1.285 . S
C3494 H3514 0.929 . S
C3495 C3492 1.461 . S
C3495 C3494 1.474 . S
C3496 C3491 1.342 . S
C3496 C3494 1.285 . S
C3496 H3515 0.930 . S
C3497 C3500 1.424 . S
C3497 C3502 1.245 . S
C3497 C3503 1.428 . S
C3498 C3501 1.260 . S
C3498 C3502 1.477 . S
C3498 H3516 0.932 . S
C3499 C3500 1.384 . S
C3499 C3501 1.479 . S
C3499 H3517 0.929 . S
C3500 C3497 1.424 . S
C3500 C3499 1.384 . S
C3500 H3518 0.928 . S
C3501 C3498 1.260 . S
C3501 C3499 1.479 . S
C3502 C3497 1.245 . S
C3502 C3498 1.477 . S
C3502 H3519 0.932 . S
C3503 U3486 2.882 . S
C3503 C3497 1.428 . S
C3503 O3506 1.301 . S
C3503 O3507 1.282 . S
O3504 U3486 2.441 . S
O3504 C3490 1.249 . S
O3505 U3486 2.420 . S
O3505 C3490 1.202 . S
O3506 U3486 2.455 . S
O3506 C3503 1.301 . S
O3507 U3486 2.449 . S
O3507 C3503 1.282 . S
H3508 C3481 0.931 . S
H3509 C3483 0.929 . S
H3510 C3484 0.930 . S
H3511 C3485 0.931 . S
H3512 C3492 0.932 . S
H3513 C3493 0.930 . S
H3514 C3494 0.929 . S
H3515 C3496 0.930 . S
H3516 C3498 0.932 . S
H3517 C3499 0.929 . S
H3518 C3500 0.928 . S
H3519 C3502 0.932 . S
C3520 C3521 1.264 . S
C3520 C3525 1.479 . S
C3520 C3530 1.465 . S
C3521 C3520 1.264 . S
C3521 C3523 1.339 . S
C3521 H3548 0.931 . S
C3522 C3523 1.395 . S
C3522 C3524 1.320 . S
C3523 C3521 1.339 . S
C3523 C3522 1.395 . S
C3523 H3549 0.929 . S
C3524 C3522 1.320 . S
C3524 C3525 1.405 . S
C3524 H3550 0.930 . S
C3525 C3520 1.479 . S
C3525 C3524 1.405 . S
C3525 H3551 0.931 . S
U3526 O3527 2.454 . S
U3526 O3528 2.458 . S
U3526 C3529 2.984 . S
U3526 C3530 2.847 . S
U3526 C3543 2.882 . S
U3526 O3544 2.441 . S
U3526 O3545 2.420 . S
U3526 O3546 2.455 . S
U3526 O3547 2.449 . S
O3527 U3526 2.454 . S
O3527 C3529 1.353 . S
O3528 U3526 2.458 . S
O3528 C3529 1.286 . S
C3529 U3526 2.984 . S
C3529 O3527 1.353 . S
C3529 O3528 1.286 . S
C3529 C3531 1.363 . S
C3530 C3520 1.465 . S
C3530 U3526 2.847 . S
C3530 O3544 1.249 . S
C3530 O3545 1.202 . S
C3531 C3529 1.363 . S
C3531 C3533 1.408 . S
C3531 C3536 1.342 . S
C3532 C3533 1.310 . S
C3532 C3535 1.461 . S
C3532 H3552 0.932 . S
C3533 C3531 1.408 . S
C3533 C3532 1.310 . S
C3533 H3553 0.930 . S
C3534 C3535 1.474 . S
C3534 C3536 1.285 . S
C3534 H3554 0.929 . S
C3535 C3532 1.461 . S
C3535 C3534 1.474 . S
C3536 C3531 1.342 . S
C3536 C3534 1.285 . S
C3536 H3555 0.930 . S
C3537 C3540 1.424 . S
C3537 C3542 1.245 . S
C3537 C3543 1.428 . S
C3538 C3541 1.260 . S
C3538 C3542 1.477 . S
C3538 H3556 0.932 . S
C3539 C3540 1.384 . S
C3539 C3541 1.479 . S
C3539 H3557 0.929 . S
C3540 C3537 1.424 . S
C3540 C3539 1.384 . S
C3540 H3558 0.928 . S
C3541 C3538 1.260 . S
C3541 C3539 1.479 . S
C3542 C3537 1.245 . S
C3542 C3538 1.477 . S
C3542 H3559 0.932 . S
C3543 U3526 2.882 . S
C3543 C3537 1.428 . S
C3543 O3546 1.301 . S
C3543 O3547 1.282 . S
O3544 U3526 2.441 . S
O3544 C3530 1.249 . S
O3545 U3526 2.420 . S
O3545 C3530 1.202 . S
O3546 U3526 2.455 . S
O3546 C3543 1.301 . S
O3547 U3526 2.449 . S
O3547 C3543 1.282 . S
H3548 C3521 0.931 . S
H3549 C3523 0.929 . S
H3550 C3524 0.930 . S
H3551 C3525 0.931 . S
H3552 C3532 0.932 . S
H3553 C3533 0.930 . S
H3554 C3534 0.929 . S
H3555 C3536 0.930 . S
H3556 C3538 0.932 . S
H3557 C3539 0.929 . S
H3558 C3540 0.928 . S
H3559 C3542 0.932 . S
C3560 C3561 1.264 . S
C3560 C3565 1.479 . S
C3560 C3570 1.465 . S
C3561 C3560 1.264 . S
C3561 C3563 1.339 . S
C3561 H3588 0.931 . S
C3562 C3563 1.395 . S
C3562 C3564 1.320 . S
C3563 C3561 1.339 . S
C3563 C3562 1.395 . S
C3563 H3589 0.929 . S
C3564 C3562 1.320 . S
C3564 C3565 1.405 . S
C3564 H3590 0.930 . S
C3565 C3560 1.479 . S
C3565 C3564 1.405 . S
C3565 H3591 0.931 . S
U3566 O3567 2.454 . S
U3566 O3568 2.458 . S
U3566 C3569 2.984 . S
U3566 C3570 2.847 . S
U3566 C3583 2.882 . S
U3566 O3584 2.441 . S
U3566 O3585 2.420 . S
U3566 O3586 2.455 . S
U3566 O3587 2.449 . S
O3567 U3566 2.454 . S
O3567 C3569 1.353 . S
O3568 U3566 2.458 . S
O3568 C3569 1.286 . S
C3569 U3566 2.984 . S
C3569 O3567 1.353 . S
C3569 O3568 1.286 . S
C3569 C3571 1.363 . S
C3570 C3560 1.465 . S
C3570 U3566 2.847 . S
C3570 O3584 1.249 . S
C3570 O3585 1.202 . S
C3571 C3569 1.363 . S
C3571 C3573 1.408 . S
C3571 C3576 1.342 . S
C3572 C3573 1.310 . S
C3572 C3575 1.461 . S
C3572 H3592 0.932 . S
C3573 C3571 1.408 . S
C3573 C3572 1.310 . S
C3573 H3593 0.930 . S
C3574 C3575 1.474 . S
C3574 C3576 1.285 . S
C3574 H3594 0.929 . S
C3575 C3572 1.461 . S
C3575 C3574 1.474 . S
C3576 C3571 1.342 . S
C3576 C3574 1.285 . S
C3576 H3595 0.930 . S
C3577 C3580 1.424 . S
C3577 C3582 1.245 . S
C3577 C3583 1.428 . S
C3578 C3581 1.260 . S
C3578 C3582 1.477 . S
C3578 H3596 0.932 . S
C3579 C3580 1.384 . S
C3579 C3581 1.479 . S
C3579 H3597 0.929 . S
C3580 C3577 1.424 . S
C3580 C3579 1.384 . S
C3580 H3598 0.928 . S
C3581 C3578 1.260 . S
C3581 C3579 1.479 . S
C3582 C3577 1.245 . S
C3582 C3578 1.477 . S
C3582 H3599 0.932 . S
C3583 U3566 2.882 . S
C3583 C3577 1.428 . S
C3583 O3586 1.301 . S
C3583 O3587 1.282 . S
O3584 U3566 2.441 . S
O3584 C3570 1.249 . S
O3585 U3566 2.420 . S
O3585 C3570 1.202 . S
O3586 U3566 2.455 . S
O3586 C3583 1.301 . S
O3587 U3566 2.449 . S
O3587 C3583 1.282 . S
H3588 C3561 0.931 . S
H3589 C3563 0.929 . S
H3590 C3564 0.930 . S
H3591 C3565 0.931 . S
H3592 C3572 0.932 . S
H3593 C3573 0.930 . S
H3594 C3574 0.929 . S
H3595 C3576 0.930 . S
H3596 C3578 0.932 . S
H3597 C3579 0.929 . S
H3598 C3580 0.928 . S
H3599 C3582 0.932 . S
C3600 C3601 1.264 . S
C3600 C3605 1.479 . S
C3600 C3610 1.465 . S
C3601 C3600 1.264 . S
C3601 C3603 1.339 . S
C3601 H3628 0.931 . S
C3602 C3603 1.395 . S
C3602 C3604 1.320 . S
C3603 C3601 1.339 . S
C3603 C3602 1.395 . S
C3603 H3629 0.929 . S
C3604 C3602 1.320 . S
C3604 C3605 1.405 . S
C3604 H3630 0.930 . S
C3605 C3600 1.479 . S
C3605 C3604 1.405 . S
C3605 H3631 0.931 . S
U3606 O3607 2.454 . S
U3606 O3608 2.458 . S
U3606 C3609 2.984 . S
U3606 C3610 2.847 . S
U3606 C3623 2.882 . S
U3606 O3624 2.441 . S
U3606 O3625 2.420 . S
U3606 O3626 2.455 . S
U3606 O3627 2.449 . S
O3607 U3606 2.454 . S
O3607 C3609 1.353 . S
O3608 U3606 2.458 . S
O3608 C3609 1.286 . S
C3609 U3606 2.984 . S
C3609 O3607 1.353 . S
C3609 O3608 1.286 . S
C3609 C3611 1.363 . S
C3610 C3600 1.465 . S
C3610 U3606 2.847 . S
C3610 O3624 1.249 . S
C3610 O3625 1.202 . S
C3611 C3609 1.363 . S
C3611 C3613 1.408 . S
C3611 C3616 1.342 . S
C3612 C3613 1.310 . S
C3612 C3615 1.461 . S
C3612 H3632 0.932 . S
C3613 C3611 1.408 . S
C3613 C3612 1.310 . S
C3613 H3633 0.930 . S
C3614 C3615 1.474 . S
C3614 C3616 1.285 . S
C3614 H3634 0.929 . S
C3615 C3612 1.461 . S
C3615 C3614 1.474 . S
C3616 C3611 1.342 . S
C3616 C3614 1.285 . S
C3616 H3635 0.930 . S
C3617 C3620 1.424 . S
C3617 C3622 1.245 . S
C3617 C3623 1.428 . S
C3618 C3621 1.260 . S
C3618 C3622 1.477 . S
C3618 H3636 0.932 . S
C3619 C3620 1.384 . S
C3619 C3621 1.479 . S
C3619 H3637 0.929 . S
C3620 C3617 1.424 . S
C3620 C3619 1.384 . S
C3620 H3638 0.928 . S
C3621 C3618 1.260 . S
C3621 C3619 1.479 . S
C3622 C3617 1.245 . S
C3622 C3618 1.477 . S
C3622 H3639 0.932 . S
C3623 U3606 2.882 . S
C3623 C3617 1.428 . S
C3623 O3626 1.301 . S
C3623 O3627 1.282 . S
O3624 U3606 2.441 . S
O3624 C3610 1.249 . S
O3625 U3606 2.420 . S
O3625 C3610 1.202 . S
O3626 U3606 2.455 . S
O3626 C3623 1.301 . S
O3627 U3606 2.449 . S
O3627 C3623 1.282 . S
H3628 C3601 0.931 . S
H3629 C3603 0.929 . S
H3630 C3604 0.930 . S
H3631 C3605 0.931 . S
H3632 C3612 0.932 . S
H3633 C3613 0.930 . S
H3634 C3614 0.929 . S
H3635 C3616 0.930 . S
H3636 C3618 0.932 . S
H3637 C3619 0.929 . S
H3638 C3620 0.928 . S
H3639 C3622 0.932 . S
C3640 C3641 1.264 . S
C3640 C3645 1.479 . S
C3640 C3650 1.465 . S
C3641 C3640 1.264 . S
C3641 C3643 1.339 . S
C3641 H3668 0.931 . S
C3642 C3643 1.395 . S
C3642 C3644 1.320 . S
C3643 C3641 1.339 . S
C3643 C3642 1.395 . S
C3643 H3669 0.929 . S
C3644 C3642 1.320 . S
C3644 C3645 1.405 . S
C3644 H3670 0.930 . S
C3645 C3640 1.479 . S
C3645 C3644 1.405 . S
C3645 H3671 0.931 . S
U3646 O3647 2.454 . S
U3646 O3648 2.458 . S
U3646 C3649 2.984 . S
U3646 C3650 2.847 . S
U3646 C3663 2.882 . S
U3646 O3664 2.441 . S
U3646 O3665 2.420 . S
U3646 O3666 2.455 . S
U3646 O3667 2.449 . S
O3647 U3646 2.454 . S
O3647 C3649 1.353 . S
O3648 U3646 2.458 . S
O3648 C3649 1.286 . S
C3649 U3646 2.984 . S
C3649 O3647 1.353 . S
C3649 O3648 1.286 . S
C3649 C3651 1.363 . S
C3650 C3640 1.465 . S
C3650 U3646 2.847 . S
C3650 O3664 1.249 . S
C3650 O3665 1.202 . S
C3651 C3649 1.363 . S
C3651 C3653 1.408 . S
C3651 C3656 1.342 . S
C3652 C3653 1.310 . S
C3652 C3655 1.461 1_554 S
C3652 H3672 0.936 . S
C3653 C3651 1.408 . S
C3653 C3652 1.310 . S
C3653 H3673 0.930 . S
C3654 C3655 1.474 1_554 S
C3654 C3656 1.285 . S
C3654 H3674 0.948 . S
C3655 C3652 1.461 1_556 S
C3655 C3654 1.474 1_556 S
C3656 C3651 1.342 . S
C3656 C3654 1.285 . S
C3656 H3675 0.930 . S
C3657 C3660 1.424 . S
C3657 C3662 1.245 . S
C3657 C3663 1.428 . S
C3658 C3661 1.260 . S
C3658 C3662 1.477 . S
C3658 H3676 0.932 . S
C3659 C3660 1.384 . S
C3659 C3661 1.479 . S
C3659 H3677 0.929 . S
C3660 C3657 1.424 . S
C3660 C3659 1.384 . S
C3660 H3678 0.928 . S
C3661 C3658 1.260 . S
C3661 C3659 1.479 . S
C3662 C3657 1.245 . S
C3662 C3658 1.477 . S
C3662 H3679 0.932 . S
C3663 U3646 2.882 . S
C3663 C3657 1.428 . S
C3663 O3666 1.301 . S
C3663 O3667 1.282 . S
O3664 U3646 2.441 . S
O3664 C3650 1.249 . S
O3665 U3646 2.420 . S
O3665 C3650 1.202 . S
O3666 U3646 2.455 . S
O3666 C3663 1.301 . S
O3667 U3646 2.449 . S
O3667 C3663 1.282 . S
H3668 C3641 0.931 . S
H3669 C3643 0.929 . S
H3670 C3644 0.930 . S
H3671 C3645 0.931 . S
H3672 C3652 0.936 . S
H3673 C3653 0.930 . S
H3674 C3654 0.948 . S
H3675 C3656 0.930 . S
H3676 C3658 0.932 . S
H3677 C3659 0.929 . S
H3678 C3660 0.928 . S
H3679 C3662 0.932 . S
C3680 C3681 1.264 . S
C3680 C3685 1.479 . S
C3680 C3690 1.465 . S
C3681 C3680 1.264 . S
C3681 C3683 1.339 . S
C3681 H3708 0.931 . S
C3682 C3683 1.395 . S
C3682 C3684 1.320 . S
C3683 C3681 1.339 . S
C3683 C3682 1.395 . S
C3683 H3709 0.929 . S
C3684 C3682 1.320 . S
C3684 C3685 1.405 . S
C3684 H3710 0.930 . S
C3685 C3680 1.479 . S
C3685 C3684 1.405 . S
C3685 H3711 0.931 . S
U3686 O3687 2.454 . S
U3686 O3688 2.458 . S
U3686 C3689 2.984 . S
U3686 C3690 2.847 . S
U3686 C3703 2.882 . S
U3686 O3704 2.441 . S
U3686 O3705 2.420 . S
U3686 O3706 2.455 . S
U3686 O3707 2.449 . S
O3687 U3686 2.454 . S
O3687 C3689 1.353 . S
O3688 U3686 2.458 . S
O3688 C3689 1.286 . S
C3689 U3686 2.984 . S
C3689 O3687 1.353 . S
C3689 O3688 1.286 . S
C3689 C3691 1.363 . S
C3690 C3680 1.465 . S
C3690 U3686 2.847 . S
C3690 O3704 1.249 . S
C3690 O3705 1.202 . S
C3691 C3689 1.363 . S
C3691 C3693 1.408 . S
C3691 C3696 1.342 . S
C3692 C3693 1.310 . S
C3692 C3695 1.461 . S
C3692 H3712 0.932 . S
C3693 C3691 1.408 . S
C3693 C3692 1.310 . S
C3693 H3713 0.930 . S
C3694 C3695 1.474 . S
C3694 C3696 1.285 . S
C3694 H3714 0.929 . S
C3695 C3692 1.461 . S
C3695 C3694 1.474 . S
C3696 C3691 1.342 . S
C3696 C3694 1.285 . S
C3696 H3715 0.930 . S
C3697 C3700 1.424 . S
C3697 C3702 1.245 . S
C3697 C3703 1.428 . S
C3698 C3701 1.260 . S
C3698 C3702 1.477 . S
C3698 H3716 0.932 . S
C3699 C3700 1.384 . S
C3699 C3701 1.479 . S
C3699 H3717 0.929 . S
C3700 C3697 1.424 . S
C3700 C3699 1.384 . S
C3700 H3718 0.928 . S
C3701 C3698 1.260 . S
C3701 C3699 1.479 . S
C3702 C3697 1.245 . S
C3702 C3698 1.477 . S
C3702 H3719 0.932 . S
C3703 U3686 2.882 . S
C3703 C3697 1.428 . S
C3703 O3706 1.301 . S
C3703 O3707 1.282 . S
O3704 U3686 2.441 . S
O3704 C3690 1.249 . S
O3705 U3686 2.420 . S
O3705 C3690 1.202 . S
O3706 U3686 2.455 . S
O3706 C3703 1.301 . S
O3707 U3686 2.449 . S
O3707 C3703 1.282 . S
H3708 C3681 0.931 . S
H3709 C3683 0.929 . S
H3710 C3684 0.930 . S
H3711 C3685 0.931 . S
H3712 C3692 0.932 . S
H3713 C3693 0.930 . S
H3714 C3694 0.929 . S
H3715 C3696 0.930 . S
H3716 C3698 0.932 . S
H3717 C3699 0.929 . S
H3718 C3700 0.928 . S
H3719 C3702 0.932 . S
C3720 C3721 1.264 . S
C3720 C3725 1.479 . S
C3720 C3730 1.465 . S
C3721 C3720 1.264 . S
C3721 C3723 1.339 . S
C3721 H3748 0.931 . S
C3722 C3723 1.395 . S
C3722 C3724 1.320 . S
C3723 C3721 1.339 . S
C3723 C3722 1.395 . S
C3723 H3749 0.929 . S
C3724 C3722 1.320 . S
C3724 C3725 1.405 . S
C3724 H3750 0.930 . S
C3725 C3720 1.479 . S
C3725 C3724 1.405 . S
C3725 H3751 0.931 . S
U3726 O3727 2.454 . S
U3726 O3728 2.458 . S
U3726 C3729 2.984 . S
U3726 C3730 2.847 . S
U3726 C3743 2.882 . S
U3726 O3744 2.441 . S
U3726 O3745 2.420 . S
U3726 O3746 2.455 . S
U3726 O3747 2.449 . S
O3727 U3726 2.454 . S
O3727 C3729 1.353 . S
O3728 U3726 2.458 . S
O3728 C3729 1.286 . S
C3729 U3726 2.984 . S
C3729 O3727 1.353 . S
C3729 O3728 1.286 . S
C3729 C3731 1.363 . S
C3730 C3720 1.465 . S
C3730 U3726 2.847 . S
C3730 O3744 1.249 . S
C3730 O3745 1.202 . S
C3731 C3729 1.363 . S
C3731 C3733 1.408 . S
C3731 C3736 1.342 . S
C3732 C3733 1.310 . S
C3732 C3735 1.461 1_556 S
C3732 H3752 0.938 . S
C3733 C3731 1.408 . S
C3733 C3732 1.310 . S
C3733 H3753 0.930 . S
C3734 C3735 1.474 1_556 S
C3734 C3736 1.285 . S
C3734 H3754 0.951 . S
C3735 C3732 1.461 1_554 S
C3735 C3734 1.474 1_554 S
C3736 C3731 1.342 . S
C3736 C3734 1.285 . S
C3736 H3755 0.930 . S
C3737 C3740 1.424 . S
C3737 C3742 1.245 . S
C3737 C3743 1.428 . S
C3738 C3741 1.260 . S
C3738 C3742 1.477 . S
C3738 H3756 0.932 . S
C3739 C3740 1.384 . S
C3739 C3741 1.479 . S
C3739 H3757 0.929 . S
C3740 C3737 1.424 . S
C3740 C3739 1.384 . S
C3740 H3758 0.928 . S
C3741 C3738 1.260 . S
C3741 C3739 1.479 . S
C3742 C3737 1.245 . S
C3742 C3738 1.477 . S
C3742 H3759 0.932 . S
C3743 U3726 2.882 . S
C3743 C3737 1.428 . S
C3743 O3746 1.301 . S
C3743 O3747 1.282 . S
O3744 U3726 2.441 . S
O3744 C3730 1.249 . S
O3745 U3726 2.420 . S
O3745 C3730 1.202 . S
O3746 U3726 2.455 . S
O3746 C3743 1.301 . S
O3747 U3726 2.449 . S
O3747 C3743 1.282 . S
H3748 C3721 0.931 . S
H3749 C3723 0.929 . S
H3750 C3724 0.930 . S
H3751 C3725 0.931 . S
H3752 C3732 0.938 . S
H3753 C3733 0.930 . S
H3754 C3734 0.951 . S
H3755 C3736 0.930 . S
H3756 C3738 0.932 . S
H3757 C3739 0.929 . S
H3758 C3740 0.928 . S
H3759 C3742 0.932 . S
C3760 C3761 1.264 . S
C3760 C3765 1.479 . S
C3760 C3770 1.465 . S
C3761 C3760 1.264 . S
C3761 C3763 1.339 . S
C3761 H3788 0.931 . S
C3762 C3763 1.395 . S
C3762 C3764 1.320 . S
C3763 C3761 1.339 . S
C3763 C3762 1.395 . S
C3763 H3789 0.929 . S
C3764 C3762 1.320 . S
C3764 C3765 1.405 . S
C3764 H3790 0.930 . S
C3765 C3760 1.479 . S
C3765 C3764 1.405 . S
C3765 H3791 0.931 . S
U3766 O3767 2.454 . S
U3766 O3768 2.458 . S
U3766 C3769 2.984 . S
U3766 C3770 2.847 . S
U3766 C3783 2.882 . S
U3766 O3784 2.441 . S
U3766 O3785 2.420 . S
U3766 O3786 2.455 . S
U3766 O3787 2.449 . S
O3767 U3766 2.454 . S
O3767 C3769 1.353 . S
O3768 U3766 2.458 . S
O3768 C3769 1.286 . S
C3769 U3766 2.984 . S
C3769 O3767 1.353 . S
C3769 O3768 1.286 . S
C3769 C3771 1.363 . S
C3770 C3760 1.465 . S
C3770 U3766 2.847 . S
C3770 O3784 1.249 . S
C3770 O3785 1.202 . S
C3771 C3769 1.363 . S
C3771 C3773 1.408 . S
C3771 C3776 1.342 . S
C3772 C3773 1.310 . S
C3772 C3775 1.461 . S
C3772 H3792 0.932 . S
C3773 C3771 1.408 . S
C3773 C3772 1.310 . S
C3773 H3793 0.930 . S
C3774 C3775 1.474 . S
C3774 C3776 1.285 . S
C3774 H3794 0.929 . S
C3775 C3772 1.461 . S
C3775 C3774 1.474 . S
C3776 C3771 1.342 . S
C3776 C3774 1.285 . S
C3776 H3795 0.930 . S
C3777 C3780 1.424 . S
C3777 C3782 1.245 . S
C3777 C3783 1.428 . S
C3778 C3781 1.260 . S
C3778 C3782 1.477 . S
C3778 H3796 0.932 . S
C3779 C3780 1.384 . S
C3779 C3781 1.479 . S
C3779 H3797 0.929 . S
C3780 C3777 1.424 . S
C3780 C3779 1.384 . S
C3780 H3798 0.928 . S
C3781 C3778 1.260 . S
C3781 C3779 1.479 . S
C3782 C3777 1.245 . S
C3782 C3778 1.477 . S
C3782 H3799 0.932 . S
C3783 U3766 2.882 . S
C3783 C3777 1.428 . S
C3783 O3786 1.301 . S
C3783 O3787 1.282 . S
O3784 U3766 2.441 . S
O3784 C3770 1.249 . S
O3785 U3766 2.420 . S
O3785 C3770 1.202 . S
O3786 U3766 2.455 . S
O3786 C3783 1.301 . S
O3787 U3766 2.449 . S
O3787 C3783 1.282 . S
H3788 C3761 0.931 . S
H3789 C3763 0.929 . S
H3790 C3764 0.930 . S
H3791 C3765 0.931 . S
H3792 C3772 0.932 . S
H3793 C3773 0.930 . S
H3794 C3774 0.929 . S
H3795 C3776 0.930 . S
H3796 C3778 0.932 . S
H3797 C3779 0.929 . S
H3798 C3780 0.928 . S
H3799 C3782 0.932 . S
C3800 C3801 1.264 . S
C3800 C3805 1.479 . S
C3800 C3810 1.465 . S
C3801 C3800 1.264 . S
C3801 C3803 1.339 . S
C3801 H3828 0.931 . S
C3802 C3803 1.395 . S
C3802 C3804 1.320 . S
C3803 C3801 1.339 . S
C3803 C3802 1.395 . S
C3803 H3829 0.929 . S
C3804 C3802 1.320 . S
C3804 C3805 1.405 . S
C3804 H3830 0.930 . S
C3805 C3800 1.479 . S
C3805 C3804 1.405 . S
C3805 H3831 0.931 . S
U3806 O3807 2.454 . S
U3806 O3808 2.458 . S
U3806 C3809 2.984 . S
U3806 C3810 2.847 . S
U3806 C3823 2.882 . S
U3806 O3824 2.441 . S
U3806 O3825 2.420 . S
U3806 O3826 2.455 . S
U3806 O3827 2.449 . S
O3807 U3806 2.454 . S
O3807 C3809 1.353 . S
O3808 U3806 2.458 . S
O3808 C3809 1.286 . S
C3809 U3806 2.984 . S
C3809 O3807 1.353 . S
C3809 O3808 1.286 . S
C3809 C3811 1.363 . S
C3810 C3800 1.465 . S
C3810 U3806 2.847 . S
C3810 O3824 1.249 . S
C3810 O3825 1.202 . S
C3811 C3809 1.363 . S
C3811 C3813 1.408 . S
C3811 C3816 1.342 . S
C3812 C3813 1.310 . S
C3812 C3815 1.461 . S
C3812 H3832 0.932 . S
C3813 C3811 1.408 . S
C3813 C3812 1.310 . S
C3813 H3833 0.930 . S
C3814 C3815 1.474 . S
C3814 C3816 1.285 . S
C3814 H3834 0.929 . S
C3815 C3812 1.461 . S
C3815 C3814 1.474 . S
C3816 C3811 1.342 . S
C3816 C3814 1.285 . S
C3816 H3835 0.930 . S
C3817 C3820 1.424 . S
C3817 C3822 1.245 . S
C3817 C3823 1.428 . S
C3818 C3821 1.260 . S
C3818 C3822 1.477 . S
C3818 H3836 0.932 . S
C3819 C3820 1.384 . S
C3819 C3821 1.479 . S
C3819 H3837 0.929 . S
C3820 C3817 1.424 . S
C3820 C3819 1.384 . S
C3820 H3838 0.928 . S
C3821 C3818 1.260 . S
C3821 C3819 1.479 . S
C3822 C3817 1.245 . S
C3822 C3818 1.477 . S
C3822 H3839 0.932 . S
C3823 U3806 2.882 . S
C3823 C3817 1.428 . S
C3823 O3826 1.301 . S
C3823 O3827 1.282 . S
O3824 U3806 2.441 . S
O3824 C3810 1.249 . S
O3825 U3806 2.420 . S
O3825 C3810 1.202 . S
O3826 U3806 2.455 . S
O3826 C3823 1.301 . S
O3827 U3806 2.449 . S
O3827 C3823 1.282 . S
H3828 C3801 0.931 . S
H3829 C3803 0.929 . S
H3830 C3804 0.930 . S
H3831 C3805 0.931 . S
H3832 C3812 0.932 . S
H3833 C3813 0.930 . S
H3834 C3814 0.929 . S
H3835 C3816 0.930 . S
H3836 C3818 0.932 . S
H3837 C3819 0.929 . S
H3838 C3820 0.928 . S
H3839 C3822 0.932 . S
C3840 C3841 1.391 . S
C3840 C3844 1.391 . S
C3840 H3882 0.948 . S
C3841 C3840 1.391 . S
C3841 C3842 1.391 . S
C3842 C3841 1.391 . S
C3842 H3898 0.947 . S
C3842 C3899 1.392 . S
C3843 C3844 1.391 . S
C3843 C3847 1.397 . S
C3843 C3899 1.419 . S
C3844 C3840 1.391 . S
C3844 C3843 1.391 . S
C3844 C3845 1.399 . S
C3845 C3844 1.399 . S
C3845 C3848 1.396 . S
C3845 C3857 1.453 . S
C3845 C3858 1.684 . S
H3846 C3870 0.948 . S
C3847 C3843 1.397 . S
C3847 C3848 1.394 . S
C3847 C3866 1.723 . S
C3848 C3845 1.396 . S
C3848 C3847 1.394 . S
C3848 C3878 1.723 . S
H3849 C3872 0.947 . S
H3850 C3873 0.948 . S
H3851 C3879 0.982 . S
H3852 C3880 0.979 . S
H3853 C3880 0.980 . S
H3854 C3880 0.983 . S
H3855 C3879 0.979 . S
H3856 C3879 0.977 . S
C3857 C3845 1.453 . S
C3857 H3886 0.982 . S
C3857 H3887 0.979 . S
C3857 H3888 0.977 . S
C3858 C3845 1.684 . S
C3858 H3883 0.979 . S
C3858 H3884 0.980 . S
C3858 H3885 0.983 . S
C3859 C3860 1.391 . S
C3859 C3864 1.391 . S
C3859 H3889 0.948 . S
C3860 C3859 1.391 . S
C3860 C3861 1.391 . S
C3861 C3860 1.391 . S
C3861 C3862 1.392 . S
C3861 H3890 0.947 . S
C3862 C3861 1.392 . S
C3862 C3863 1.419 . S
C3862 H3891 0.948 . S
C3863 C3862 1.419 . S
C3863 C3864 1.391 . S
C3863 C3867 1.397 . S
C3864 C3859 1.391 . S
C3864 C3863 1.391 . S
C3864 C3865 1.399 . S
C3865 C3864 1.399 . S
C3865 C3866 1.396 . S
C3865 C3868 1.453 . S
C3865 C3869 1.684 . S
C3866 C3847 1.723 . S
C3866 C3865 1.396 . S
C3866 C3867 1.394 . S
C3867 C3863 1.397 . S
C3867 C3866 1.394 . S
C3867 C3877 1.723 . S
C3868 C3865 1.453 . S
C3868 H3892 0.982 . S
C3868 H3893 0.979 . S
C3868 H3894 0.977 . S
C3869 C3865 1.684 . S
C3869 H3895 0.979 . S
C3869 H3896 0.980 . S
C3869 H3897 0.983 . S
C3870 H3846 0.948 . S
C3870 C3871 1.391 . S
C3870 C3875 1.391 . S
C3871 C3870 1.391 . S
C3871 C3872 1.391 . S
C3872 H3849 0.947 . S
C3872 C3871 1.391 . S
C3872 C3873 1.392 . S
C3873 H3850 0.948 . S
C3873 C3872 1.392 . S
C3873 C3874 1.419 . S
C3874 C3873 1.419 . S
C3874 C3875 1.391 . S
C3874 C3878 1.397 . S
C3875 C3870 1.391 . S
C3875 C3874 1.391 . S
C3875 C3876 1.399 . S
C3876 C3875 1.399 . S
C3876 C3877 1.396 . S
C3876 C3879 1.453 . S
C3876 C3880 1.684 . S
C3877 C3867 1.723 . S
C3877 C3876 1.396 . S
C3877 C3878 1.394 . S
C3878 C3848 1.723 . S
C3878 C3874 1.397 . S
C3878 C3877 1.394 . S
C3879 H3851 0.982 . S
C3879 H3855 0.979 . S
C3879 H3856 0.977 . S
C3879 C3876 1.453 . S
C3880 H3852 0.979 . S
C3880 H3853 0.980 . S
C3880 H3854 0.983 . S
C3880 C3876 1.684 . S
H3881 C3899 0.948 . S
H3882 C3840 0.948 . S
H3883 C3858 0.979 . S
H3884 C3858 0.980 . S
H3885 C3858 0.983 . S
H3886 C3857 0.982 . S
H3887 C3857 0.979 . S
H3888 C3857 0.977 . S
H3889 C3859 0.948 . S
H3890 C3861 0.947 . S
H3891 C3862 0.948 . S
H3892 C3868 0.982 . S
H3893 C3868 0.979 . S
H3894 C3868 0.977 . S
H3895 C3869 0.979 . S
H3896 C3869 0.980 . S
H3897 C3869 0.983 . S
H3898 C3842 0.947 . S
C3899 C3842 1.392 . S
C3899 C3843 1.419 . S
C3899 H3881 0.948 . S
C3900 C3901 1.391 . S
C3900 C3904 1.391 . S
C3900 H3942 0.948 . S
C3901 C3900 1.391 . S
C3901 C3902 1.391 . S
C3902 C3901 1.391 . S
C3902 H3958 0.947 . S
C3902 C3959 1.392 . S
C3903 C3904 1.391 . S
C3903 C3907 1.397 . S
C3903 C3959 1.419 . S
C3904 C3900 1.391 . S
C3904 C3903 1.391 . S
C3904 C3905 1.399 . S
C3905 C3904 1.399 . S
C3905 C3908 1.396 . S
C3905 C3917 1.453 . S
C3905 C3918 1.684 . S
H3906 C3930 0.948 . S
C3907 C3903 1.397 . S
C3907 C3908 1.394 . S
C3907 C3926 1.723 . S
C3908 C3905 1.396 . S
C3908 C3907 1.394 . S
C3908 C3938 1.723 . S
H3909 C3932 0.884 1_655 S
H3910 C3933 0.948 . S
H3911 C3939 0.982 . S
H3912 C3940 0.979 . S
H3913 C3940 0.980 . S
H3914 C3940 0.983 . S
H3915 C3939 0.979 . S
H3916 C3939 0.977 . S
C3917 C3905 1.453 . S
C3917 H3946 0.982 . S
C3917 H3947 0.979 . S
C3917 H3948 0.977 . S
C3918 C3905 1.684 . S
C3918 H3943 0.979 . S
C3918 H3944 0.980 . S
C3918 H3945 0.983 . S
C3919 C3920 1.391 . S
C3919 C3924 1.391 . S
C3919 H3949 0.948 . S
C3920 C3919 1.391 . S
C3920 C3921 1.391 . S
C3921 C3920 1.391 . S
C3921 C3922 1.392 . S
C3921 H3950 0.947 . S
C3922 C3921 1.392 . S
C3922 C3923 1.419 . S
C3922 H3951 0.948 . S
C3923 C3922 1.419 . S
C3923 C3924 1.391 . S
C3923 C3927 1.397 . S
C3924 C3919 1.391 . S
C3924 C3923 1.391 . S
C3924 C3925 1.399 . S
C3925 C3924 1.399 . S
C3925 C3926 1.396 . S
C3925 C3928 1.453 . S
C3925 C3929 1.684 . S
C3926 C3907 1.723 . S
C3926 C3925 1.396 . S
C3926 C3927 1.394 . S
C3927 C3923 1.397 . S
C3927 C3926 1.394 . S
C3927 C3937 1.723 . S
C3928 C3925 1.453 . S
C3928 H3952 0.982 . S
C3928 H3953 0.979 . S
C3928 H3954 0.977 . S
C3929 C3925 1.684 . S
C3929 H3955 0.979 . S
C3929 H3956 0.980 . S
C3929 H3957 0.983 . S
C3930 H3906 0.948 . S
C3930 C3931 1.391 . S
C3930 C3935 1.391 . S
C3931 C3930 1.391 . S
C3931 C3932 1.391 . S
C3932 H3909 0.884 1_455 S
C3932 C3931 1.391 . S
C3932 C3933 1.392 . S
C3933 H3910 0.948 . S
C3933 C3932 1.392 . S
C3933 C3934 1.419 . S
C3934 C3933 1.419 . S
C3934 C3935 1.391 . S
C3934 C3938 1.397 . S
C3935 C3930 1.391 . S
C3935 C3934 1.391 . S
C3935 C3936 1.399 . S
C3936 C3935 1.399 . S
C3936 C3937 1.396 . S
C3936 C3939 1.453 . S
C3936 C3940 1.684 . S
C3937 C3927 1.723 . S
C3937 C3936 1.396 . S
C3937 C3938 1.394 . S
C3938 C3908 1.723 . S
C3938 C3934 1.397 . S
C3938 C3937 1.394 . S
C3939 H3911 0.982 . S
C3939 H3915 0.979 . S
C3939 H3916 0.977 . S
C3939 C3936 1.453 . S
C3940 H3912 0.979 . S
C3940 H3913 0.980 . S
C3940 H3914 0.983 . S
C3940 C3936 1.684 . S
H3941 C3959 0.948 . S
H3942 C3900 0.948 . S
H3943 C3918 0.979 . S
H3944 C3918 0.980 . S
H3945 C3918 0.983 . S
H3946 C3917 0.982 . S
H3947 C3917 0.979 . S
H3948 C3917 0.977 . S
H3949 C3919 0.948 . S
H3950 C3921 0.947 . S
H3951 C3922 0.948 . S
H3952 C3928 0.982 . S
H3953 C3928 0.979 . S
H3954 C3928 0.977 . S
H3955 C3929 0.979 . S
H3956 C3929 0.980 . S
H3957 C3929 0.983 . S
H3958 C3902 0.947 . S
C3959 C3902 1.392 . S
C3959 C3903 1.419 . S
C3959 H3941 0.948 . S
C3960 C3961 1.391 . S
C3960 C3964 1.391 . S
C3960 H4002 0.948 . S
C3961 C3960 1.391 . S
C3961 C3962 1.391 . S
C3962 C3961 1.391 . S
C3962 H4018 0.947 . S
C3962 C4019 1.392 . S
C3963 C3964 1.391 . S
C3963 C3967 1.397 . S
C3963 C4019 1.419 . S
C3964 C3960 1.391 . S
C3964 C3963 1.391 . S
C3964 C3965 1.399 . S
C3965 C3964 1.399 . S
C3965 C3968 1.396 . S
C3965 C3977 1.453 . S
C3965 C3978 1.684 . S
H3966 C3990 0.948 . S
C3967 C3963 1.397 . S
C3967 C3968 1.394 . S
C3967 C3986 1.723 . S
C3968 C3965 1.396 . S
C3968 C3967 1.394 . S
C3968 C3998 1.723 . S
H3969 C3992 0.947 . S
H3970 C3993 0.948 . S
H3971 C3999 0.982 . S
H3972 C4000 0.979 . S
H3973 C4000 0.980 . S
H3974 C4000 0.983 . S
H3975 C3999 0.979 . S
H3976 C3999 0.977 . S
C3977 C3965 1.453 . S
C3977 H4006 0.982 . S
C3977 H4007 0.979 . S
C3977 H4008 0.977 . S
C3978 C3965 1.684 . S
C3978 H4003 0.979 . S
C3978 H4004 0.980 . S
C3978 H4005 0.983 . S
C3979 C3980 1.391 . S
C3979 C3984 1.391 . S
C3979 H4009 0.948 . S
C3980 C3979 1.391 . S
C3980 C3981 1.391 . S
C3981 C3980 1.391 . S
C3981 C3982 1.392 . S
C3981 H4010 0.947 . S
C3982 C3981 1.392 . S
C3982 C3983 1.419 . S
C3982 H4011 0.948 . S
C3983 C3982 1.419 . S
C3983 C3984 1.391 . S
C3983 C3987 1.397 . S
C3984 C3979 1.391 . S
C3984 C3983 1.391 . S
C3984 C3985 1.399 . S
C3985 C3984 1.399 . S
C3985 C3986 1.396 . S
C3985 C3988 1.453 . S
C3985 C3989 1.684 . S
C3986 C3967 1.723 . S
C3986 C3985 1.396 . S
C3986 C3987 1.394 . S
C3987 C3983 1.397 . S
C3987 C3986 1.394 . S
C3987 C3997 1.723 . S
C3988 C3985 1.453 . S
C3988 H4012 0.982 . S
C3988 H4013 0.979 . S
C3988 H4014 0.977 . S
C3989 C3985 1.684 . S
C3989 H4015 0.979 . S
C3989 H4016 0.980 . S
C3989 H4017 0.983 . S
C3990 H3966 0.948 . S
C3990 C3991 1.391 . S
C3990 C3995 1.391 . S
C3991 C3990 1.391 . S
C3991 C3992 1.391 . S
C3992 H3969 0.947 . S
C3992 C3991 1.391 . S
C3992 C3993 1.392 . S
C3993 H3970 0.948 . S
C3993 C3992 1.392 . S
C3993 C3994 1.419 . S
C3994 C3993 1.419 . S
C3994 C3995 1.391 . S
C3994 C3998 1.397 . S
C3995 C3990 1.391 . S
C3995 C3994 1.391 . S
C3995 C3996 1.399 . S
C3996 C3995 1.399 . S
C3996 C3997 1.396 . S
C3996 C3999 1.453 . S
C3996 C4000 1.684 . S
C3997 C3987 1.723 . S
C3997 C3996 1.396 . S
C3997 C3998 1.394 . S
C3998 C3968 1.723 . S
C3998 C3994 1.397 . S
C3998 C3997 1.394 . S
C3999 H3971 0.982 . S
C3999 H3975 0.979 . S
C3999 H3976 0.977 . S
C3999 C3996 1.453 . S
C4000 H3972 0.979 . S
C4000 H3973 0.980 . S
C4000 H3974 0.983 . S
C4000 C3996 1.684 . S
H4001 C4019 0.948 . S
H4002 C3960 0.948 . S
H4003 C3978 0.979 . S
H4004 C3978 0.980 . S
H4005 C3978 0.983 . S
H4006 C3977 0.982 . S
H4007 C3977 0.979 . S
H4008 C3977 0.977 . S
H4009 C3979 0.948 . S
H4010 C3981 0.947 . S
H4011 C3982 0.948 . S
H4012 C3988 0.982 . S
H4013 C3988 0.979 . S
H4014 C3988 0.977 . S
H4015 C3989 0.979 . S
H4016 C3989 0.980 . S
H4017 C3989 0.983 . S
H4018 C3962 0.947 . S
C4019 C3962 1.392 . S
C4019 C3963 1.419 . S
C4019 H4001 0.948 . S
C4020 C4021 1.391 . S
C4020 C4024 1.391 . S
C4020 H4062 0.948 . S
C4021 C4020 1.391 . S
C4021 C4022 1.391 . S
C4022 C4021 1.391 . S
C4022 H4078 0.947 . S
C4022 C4079 1.392 . S
C4023 C4024 1.391 . S
C4023 C4027 1.397 . S
C4023 C4079 1.419 . S
C4024 C4020 1.391 . S
C4024 C4023 1.391 . S
C4024 C4025 1.399 . S
C4025 C4024 1.399 . S
C4025 C4028 1.396 . S
C4025 C4037 1.453 . S
C4025 C4038 1.684 . S
H4026 C4050 0.948 . S
C4027 C4023 1.397 . S
C4027 C4028 1.394 . S
C4027 C4046 1.723 . S
C4028 C4025 1.396 . S
C4028 C4027 1.394 . S
C4028 C4058 1.723 . S
H4029 C4052 0.947 . S
H4030 C4053 0.948 . S
H4031 C4059 0.982 . S
H4032 C4060 0.979 . S
H4033 C4060 0.980 . S
H4034 C4060 0.983 . S
H4035 C4059 0.979 . S
H4036 C4059 0.977 . S
C4037 C4025 1.453 . S
C4037 H4066 0.982 . S
C4037 H4067 0.979 . S
C4037 H4068 0.977 . S
C4038 C4025 1.684 . S
C4038 H4063 0.979 . S
C4038 H4064 0.980 . S
C4038 H4065 0.983 . S
C4039 C4040 1.391 . S
C4039 C4044 1.391 . S
C4039 H4069 0.948 . S
C4040 C4039 1.391 . S
C4040 C4041 1.391 . S
C4041 C4040 1.391 . S
C4041 C4042 1.392 . S
C4041 H4070 0.947 . S
C4042 C4041 1.392 . S
C4042 C4043 1.419 . S
C4042 H4071 0.948 . S
C4043 C4042 1.419 . S
C4043 C4044 1.391 . S
C4043 C4047 1.397 . S
C4044 C4039 1.391 . S
C4044 C4043 1.391 . S
C4044 C4045 1.399 . S
C4045 C4044 1.399 . S
C4045 C4046 1.396 . S
C4045 C4048 1.453 . S
C4045 C4049 1.684 . S
C4046 C4027 1.723 . S
C4046 C4045 1.396 . S
C4046 C4047 1.394 . S
C4047 C4043 1.397 . S
C4047 C4046 1.394 . S
C4047 C4057 1.723 . S
C4048 C4045 1.453 . S
C4048 H4072 0.982 . S
C4048 H4073 0.979 . S
C4048 H4074 0.977 . S
C4049 C4045 1.684 . S
C4049 H4075 0.979 . S
C4049 H4076 0.980 . S
C4049 H4077 0.983 . S
C4050 H4026 0.948 . S
C4050 C4051 1.391 . S
C4050 C4055 1.391 . S
C4051 C4050 1.391 . S
C4051 C4052 1.391 . S
C4052 H4029 0.947 . S
C4052 C4051 1.391 . S
C4052 C4053 1.392 . S
C4053 H4030 0.948 . S
C4053 C4052 1.392 . S
C4053 C4054 1.419 . S
C4054 C4053 1.419 . S
C4054 C4055 1.391 . S
C4054 C4058 1.397 . S
C4055 C4050 1.391 . S
C4055 C4054 1.391 . S
C4055 C4056 1.399 . S
C4056 C4055 1.399 . S
C4056 C4057 1.396 . S
C4056 C4059 1.453 . S
C4056 C4060 1.684 . S
C4057 C4047 1.723 . S
C4057 C4056 1.396 . S
C4057 C4058 1.394 . S
C4058 C4028 1.723 . S
C4058 C4054 1.397 . S
C4058 C4057 1.394 . S
C4059 H4031 0.982 . S
C4059 H4035 0.979 . S
C4059 H4036 0.977 . S
C4059 C4056 1.453 . S
C4060 H4032 0.979 . S
C4060 H4033 0.980 . S
C4060 H4034 0.983 . S
C4060 C4056 1.684 . S
H4061 C4079 0.948 . S
H4062 C4020 0.948 . S
H4063 C4038 0.979 . S
H4064 C4038 0.980 . S
H4065 C4038 0.983 . S
H4066 C4037 0.982 . S
H4067 C4037 0.979 . S
H4068 C4037 0.977 . S
H4069 C4039 0.948 . S
H4070 C4041 0.947 . S
H4071 C4042 0.948 . S
H4072 C4048 0.982 . S
H4073 C4048 0.979 . S
H4074 C4048 0.977 . S
H4075 C4049 0.979 . S
H4076 C4049 0.980 . S
H4077 C4049 0.983 . S
H4078 C4022 0.947 . S
C4079 C4022 1.392 . S
C4079 C4023 1.419 . S
C4079 H4061 0.948 . S
C4080 C4081 1.391 . S
C4080 C4084 1.391 . S
C4080 H4122 0.948 . S
C4081 C4080 1.391 . S
C4081 C4082 1.391 . S
C4082 C4081 1.391 . S
C4082 H4138 0.947 . S
C4082 C4139 1.392 . S
C4083 C4084 1.391 . S
C4083 C4087 1.397 . S
C4083 C4139 1.419 . S
C4084 C4080 1.391 . S
C4084 C4083 1.391 . S
C4084 C4085 1.399 . S
C4085 C4084 1.399 . S
C4085 C4088 1.396 . S
C4085 C4097 1.453 . S
C4085 C4098 1.684 . S
H4086 C4110 0.948 . S
C4087 C4083 1.397 . S
C4087 C4088 1.394 . S
C4087 C4106 1.723 . S
C4088 C4085 1.396 . S
C4088 C4087 1.394 . S
C4088 C4118 1.723 . S
H4089 C4112 0.947 . S
H4090 C4113 0.948 . S
H4091 C4119 0.982 . S
H4092 C4120 0.979 . S
H4093 C4120 0.980 . S
H4094 C4120 0.983 . S
H4095 C4119 0.979 . S
H4096 C4119 0.977 . S
C4097 C4085 1.453 . S
C4097 H4126 0.982 . S
C4097 H4127 0.979 . S
C4097 H4128 0.977 . S
C4098 C4085 1.684 . S
C4098 H4123 0.979 . S
C4098 H4124 0.980 . S
C4098 H4125 0.983 . S
C4099 C4100 1.391 . S
C4099 C4104 1.391 . S
C4099 H4129 0.948 . S
C4100 C4099 1.391 . S
C4100 C4101 1.391 . S
C4101 C4100 1.391 . S
C4101 C4102 1.392 . S
C4101 H4130 0.947 . S
C4102 C4101 1.392 . S
C4102 C4103 1.419 . S
C4102 H4131 0.948 . S
C4103 C4102 1.419 . S
C4103 C4104 1.391 . S
C4103 C4107 1.397 . S
C4104 C4099 1.391 . S
C4104 C4103 1.391 . S
C4104 C4105 1.399 . S
C4105 C4104 1.399 . S
C4105 C4106 1.396 . S
C4105 C4108 1.453 . S
C4105 C4109 1.684 . S
C4106 C4087 1.723 . S
C4106 C4105 1.396 . S
C4106 C4107 1.394 . S
C4107 C4103 1.397 . S
C4107 C4106 1.394 . S
C4107 C4117 1.723 . S
C4108 C4105 1.453 . S
C4108 H4132 0.982 . S
C4108 H4133 0.979 . S
C4108 H4134 0.977 . S
C4109 C4105 1.684 . S
C4109 H4135 0.979 . S
C4109 H4136 0.980 . S
C4109 H4137 0.983 . S
C4110 H4086 0.948 . S
C4110 C4111 1.391 . S
C4110 C4115 1.391 . S
C4111 C4110 1.391 . S
C4111 C4112 1.391 . S
C4112 H4089 0.947 . S
C4112 C4111 1.391 . S
C4112 C4113 1.392 . S
C4113 H4090 0.948 . S
C4113 C4112 1.392 . S
C4113 C4114 1.419 . S
C4114 C4113 1.419 . S
C4114 C4115 1.391 . S
C4114 C4118 1.397 . S
C4115 C4110 1.391 . S
C4115 C4114 1.391 . S
C4115 C4116 1.399 . S
C4116 C4115 1.399 . S
C4116 C4117 1.396 . S
C4116 C4119 1.453 . S
C4116 C4120 1.684 . S
C4117 C4107 1.723 . S
C4117 C4116 1.396 . S
C4117 C4118 1.394 . S
C4118 C4088 1.723 . S
C4118 C4114 1.397 . S
C4118 C4117 1.394 . S
C4119 H4091 0.982 . S
C4119 H4095 0.979 . S
C4119 H4096 0.977 . S
C4119 C4116 1.453 . S
C4120 H4092 0.979 . S
C4120 H4093 0.980 . S
C4120 H4094 0.983 . S
C4120 C4116 1.684 . S
H4121 C4139 0.948 . S
H4122 C4080 0.948 . S
H4123 C4098 0.979 . S
H4124 C4098 0.980 . S
H4125 C4098 0.983 . S
H4126 C4097 0.982 . S
H4127 C4097 0.979 . S
H4128 C4097 0.977 . S
H4129 C4099 0.948 . S
H4130 C4101 0.947 . S
H4131 C4102 0.948 . S
H4132 C4108 0.982 . S
H4133 C4108 0.979 . S
H4134 C4108 0.977 . S
H4135 C4109 0.979 . S
H4136 C4109 0.980 . S
H4137 C4109 0.983 . S
H4138 C4082 0.947 . S
C4139 C4082 1.392 . S
C4139 C4083 1.419 . S
C4139 H4121 0.948 . S
C4140 C4141 1.391 . S
C4140 C4144 1.391 . S
C4140 H4182 0.948 . S
C4141 C4140 1.391 . S
C4141 C4142 1.391 . S
C4142 C4141 1.391 . S
C4142 H4198 0.947 . S
C4142 C4199 1.392 . S
C4143 C4144 1.391 . S
C4143 C4147 1.397 . S
C4143 C4199 1.419 . S
C4144 C4140 1.391 . S
C4144 C4143 1.391 . S
C4144 C4145 1.399 . S
C4145 C4144 1.399 . S
C4145 C4148 1.396 . S
C4145 C4157 1.453 . S
C4145 C4158 1.684 . S
H4146 C4170 0.948 . S
C4147 C4143 1.397 . S
C4147 C4148 1.394 . S
C4147 C4166 1.723 . S
C4148 C4145 1.396 . S
C4148 C4147 1.394 . S
C4148 C4178 1.723 . S
H4149 C4172 0.947 . S
H4150 C4173 0.948 . S
H4151 C4179 0.982 . S
H4152 C4180 0.979 . S
H4153 C4180 0.980 . S
H4154 C4180 0.983 . S
H4155 C4179 0.979 . S
H4156 C4179 0.977 . S
C4157 C4145 1.453 . S
C4157 H4186 0.982 . S
C4157 H4187 0.979 . S
C4157 H4188 0.977 . S
C4158 C4145 1.684 . S
C4158 H4183 0.979 . S
C4158 H4184 0.980 . S
C4158 H4185 0.983 . S
C4159 C4160 1.391 . S
C4159 C4164 1.391 . S
C4159 H4189 0.948 . S
C4160 C4159 1.391 . S
C4160 C4161 1.391 . S
C4161 C4160 1.391 . S
C4161 C4162 1.392 . S
C4161 H4190 0.947 . S
C4162 C4161 1.392 . S
C4162 C4163 1.419 . S
C4162 H4191 0.948 . S
C4163 C4162 1.419 . S
C4163 C4164 1.391 . S
C4163 C4167 1.397 . S
C4164 C4159 1.391 . S
C4164 C4163 1.391 . S
C4164 C4165 1.399 . S
C4165 C4164 1.399 . S
C4165 C4166 1.396 . S
C4165 C4168 1.453 . S
C4165 C4169 1.684 . S
C4166 C4147 1.723 . S
C4166 C4165 1.396 . S
C4166 C4167 1.394 . S
C4167 C4163 1.397 . S
C4167 C4166 1.394 . S
C4167 C4177 1.723 . S
C4168 C4165 1.453 . S
C4168 H4192 0.982 . S
C4168 H4193 0.979 . S
C4168 H4194 0.977 . S
C4169 C4165 1.684 . S
C4169 H4195 0.979 . S
C4169 H4196 0.980 . S
C4169 H4197 0.983 . S
C4170 H4146 0.948 . S
C4170 C4171 1.391 . S
C4170 C4175 1.391 . S
C4171 C4170 1.391 . S
C4171 C4172 1.391 . S
C4172 H4149 0.947 . S
C4172 C4171 1.391 . S
C4172 C4173 1.392 . S
C4173 H4150 0.948 . S
C4173 C4172 1.392 . S
C4173 C4174 1.419 . S
C4174 C4173 1.419 . S
C4174 C4175 1.391 . S
C4174 C4178 1.397 . S
C4175 C4170 1.391 . S
C4175 C4174 1.391 . S
C4175 C4176 1.399 . S
C4176 C4175 1.399 . S
C4176 C4177 1.396 . S
C4176 C4179 1.453 . S
C4176 C4180 1.684 . S
C4177 C4167 1.723 . S
C4177 C4176 1.396 . S
C4177 C4178 1.394 . S
C4178 C4148 1.723 . S
C4178 C4174 1.397 . S
C4178 C4177 1.394 . S
C4179 H4151 0.982 . S
C4179 H4155 0.979 . S
C4179 H4156 0.977 . S
C4179 C4176 1.453 . S
C4180 H4152 0.979 . S
C4180 H4153 0.980 . S
C4180 H4154 0.983 . S
C4180 C4176 1.684 . S
H4181 C4199 0.948 . S
H4182 C4140 0.948 . S
H4183 C4158 0.979 . S
H4184 C4158 0.980 . S
H4185 C4158 0.983 . S
H4186 C4157 0.982 . S
H4187 C4157 0.979 . S
H4188 C4157 0.977 . S
H4189 C4159 0.948 . S
H4190 C4161 0.947 . S
H4191 C4162 0.948 . S
H4192 C4168 0.982 . S
H4193 C4168 0.979 . S
H4194 C4168 0.977 . S
H4195 C4169 0.979 . S
H4196 C4169 0.980 . S
H4197 C4169 0.983 . S
H4198 C4142 0.947 . S
C4199 C4142 1.392 . S
C4199 C4143 1.419 . S
C4199 H4181 0.948 . S
C4200 C4201 1.391 . S
C4200 C4204 1.391 . S
C4200 H4242 0.948 . S
C4201 C4200 1.391 . S
C4201 C4202 1.391 . S
C4202 C4201 1.391 . S
C4202 H4258 0.947 . S
C4202 C4259 1.392 . S
C4203 C4204 1.391 . S
C4203 C4207 1.397 . S
C4203 C4259 1.419 . S
C4204 C4200 1.391 . S
C4204 C4203 1.391 . S
C4204 C4205 1.399 . S
C4205 C4204 1.399 . S
C4205 C4208 1.396 . S
C4205 C4217 1.453 . S
C4205 C4218 1.684 . S
H4206 C4230 0.948 . S
C4207 C4203 1.397 . S
C4207 C4208 1.394 . S
C4207 C4226 1.723 . S
C4208 C4205 1.396 . S
C4208 C4207 1.394 . S
C4208 C4238 1.723 . S
H4209 C4232 0.947 . S
H4210 C4233 0.948 . S
H4211 C4239 0.982 . S
H4212 C4240 0.979 . S
H4213 C4240 0.980 . S
H4214 C4240 0.983 . S
H4215 C4239 0.979 . S
H4216 C4239 0.977 . S
C4217 C4205 1.453 . S
C4217 H4246 0.982 . S
C4217 H4247 0.979 . S
C4217 H4248 0.977 . S
C4218 C4205 1.684 . S
C4218 H4243 0.979 . S
C4218 H4244 0.980 . S
C4218 H4245 0.983 . S
C4219 C4220 1.391 . S
C4219 C4224 1.391 . S
C4219 H4249 0.948 . S
C4220 C4219 1.391 . S
C4220 C4221 1.391 . S
C4221 C4220 1.391 . S
C4221 C4222 1.392 . S
C4221 H4250 0.947 . S
C4222 C4221 1.392 . S
C4222 C4223 1.419 . S
C4222 H4251 0.948 . S
C4223 C4222 1.419 . S
C4223 C4224 1.391 . S
C4223 C4227 1.397 . S
C4224 C4219 1.391 . S
C4224 C4223 1.391 . S
C4224 C4225 1.399 . S
C4225 C4224 1.399 . S
C4225 C4226 1.396 . S
C4225 C4228 1.453 . S
C4225 C4229 1.684 . S
C4226 C4207 1.723 . S
C4226 C4225 1.396 . S
C4226 C4227 1.394 . S
C4227 C4223 1.397 . S
C4227 C4226 1.394 . S
C4227 C4237 1.723 . S
C4228 C4225 1.453 . S
C4228 H4252 0.982 . S
C4228 H4253 0.979 . S
C4228 H4254 0.977 . S
C4229 C4225 1.684 . S
C4229 H4255 0.979 . S
C4229 H4256 0.980 . S
C4229 H4257 0.983 . S
C4230 H4206 0.948 . S
C4230 C4231 1.391 . S
C4230 C4235 1.391 . S
C4231 C4230 1.391 . S
C4231 C4232 1.391 . S
C4232 H4209 0.947 . S
C4232 C4231 1.391 . S
C4232 C4233 1.392 . S
C4233 H4210 0.948 . S
C4233 C4232 1.392 . S
C4233 C4234 1.419 . S
C4234 C4233 1.419 . S
C4234 C4235 1.391 . S
C4234 C4238 1.397 . S
C4235 C4230 1.391 . S
C4235 C4234 1.391 . S
C4235 C4236 1.399 . S
C4236 C4235 1.399 . S
C4236 C4237 1.396 . S
C4236 C4239 1.453 . S
C4236 C4240 1.684 . S
C4237 C4227 1.723 . S
C4237 C4236 1.396 . S
C4237 C4238 1.394 . S
C4238 C4208 1.723 . S
C4238 C4234 1.397 . S
C4238 C4237 1.394 . S
C4239 H4211 0.982 . S
C4239 H4215 0.979 . S
C4239 H4216 0.977 . S
C4239 C4236 1.453 . S
C4240 H4212 0.979 . S
C4240 H4213 0.980 . S
C4240 H4214 0.983 . S
C4240 C4236 1.684 . S
H4241 C4259 0.948 . S
H4242 C4200 0.948 . S
H4243 C4218 0.979 . S
H4244 C4218 0.980 . S
H4245 C4218 0.983 . S
H4246 C4217 0.982 . S
H4247 C4217 0.979 . S
H4248 C4217 0.977 . S
H4249 C4219 0.948 . S
H4250 C4221 0.947 . S
H4251 C4222 0.948 . S
H4252 C4228 0.982 . S
H4253 C4228 0.979 . S
H4254 C4228 0.977 . S
H4255 C4229 0.979 . S
H4256 C4229 0.980 . S
H4257 C4229 0.983 . S
H4258 C4202 0.947 . S
C4259 C4202 1.392 . S
C4259 C4203 1.419 . S
C4259 H4241 0.948 . S
C4260 C4261 1.391 . S
C4260 C4264 1.391 . S
C4260 H4302 0.948 . S
C4261 C4260 1.391 . S
C4261 C4262 1.391 . S
C4262 C4261 1.391 . S
C4262 H4318 0.947 . S
C4262 C4319 1.392 . S
C4263 C4264 1.391 . S
C4263 C4267 1.397 . S
C4263 C4319 1.419 . S
C4264 C4260 1.391 . S
C4264 C4263 1.391 . S
C4264 C4265 1.399 . S
C4265 C4264 1.399 . S
C4265 C4268 1.396 . S
C4265 C4277 1.453 . S
C4265 C4278 1.684 . S
H4266 C4290 0.948 . S
C4267 C4263 1.397 . S
C4267 C4268 1.394 . S
C4267 C4286 1.723 . S
C4268 C4265 1.396 . S
C4268 C4267 1.394 . S
C4268 C4298 1.723 . S
H4269 C4292 0.887 1_655 S
H4270 C4293 0.948 . S
H4271 C4299 0.982 . S
H4272 C4300 0.979 . S
H4273 C4300 0.980 . S
H4274 C4300 0.983 . S
H4275 C4299 0.979 . S
H4276 C4299 0.977 . S
C4277 C4265 1.453 . S
C4277 H4306 0.982 . S
C4277 H4307 0.979 . S
C4277 H4308 0.977 . S
C4278 C4265 1.684 . S
C4278 H4303 0.979 . S
C4278 H4304 0.980 . S
C4278 H4305 0.983 . S
C4279 C4280 1.391 . S
C4279 C4284 1.391 . S
C4279 H4309 0.948 . S
C4280 C4279 1.391 . S
C4280 C4281 1.391 . S
C4281 C4280 1.391 . S
C4281 C4282 1.392 . S
C4281 H4310 0.947 . S
C4282 C4281 1.392 . S
C4282 C4283 1.419 . S
C4282 H4311 0.948 . S
C4283 C4282 1.419 . S
C4283 C4284 1.391 . S
C4283 C4287 1.397 . S
C4284 C4279 1.391 . S
C4284 C4283 1.391 . S
C4284 C4285 1.399 . S
C4285 C4284 1.399 . S
C4285 C4286 1.396 . S
C4285 C4288 1.453 . S
C4285 C4289 1.684 . S
C4286 C4267 1.723 . S
C4286 C4285 1.396 . S
C4286 C4287 1.394 . S
C4287 C4283 1.397 . S
C4287 C4286 1.394 . S
C4287 C4297 1.723 . S
C4288 C4285 1.453 . S
C4288 H4312 0.982 . S
C4288 H4313 0.979 . S
C4288 H4314 0.977 . S
C4289 C4285 1.684 . S
C4289 H4315 0.979 . S
C4289 H4316 0.980 . S
C4289 H4317 0.983 . S
C4290 H4266 0.948 . S
C4290 C4291 1.391 . S
C4290 C4295 1.391 . S
C4291 C4290 1.391 . S
C4291 C4292 1.391 . S
C4292 H4269 0.887 1_455 S
C4292 C4291 1.391 . S
C4292 C4293 1.392 . S
C4293 H4270 0.948 . S
C4293 C4292 1.392 . S
C4293 C4294 1.419 . S
C4294 C4293 1.419 . S
C4294 C4295 1.391 . S
C4294 C4298 1.397 . S
C4295 C4290 1.391 . S
C4295 C4294 1.391 . S
C4295 C4296 1.399 . S
C4296 C4295 1.399 . S
C4296 C4297 1.396 . S
C4296 C4299 1.453 . S
C4296 C4300 1.684 . S
C4297 C4287 1.723 . S
C4297 C4296 1.396 . S
C4297 C4298 1.394 . S
C4298 C4268 1.723 . S
C4298 C4294 1.397 . S
C4298 C4297 1.394 . S
C4299 H4271 0.982 . S
C4299 H4275 0.979 . S
C4299 H4276 0.977 . S
C4299 C4296 1.453 . S
C4300 H4272 0.979 . S
C4300 H4273 0.980 . S
C4300 H4274 0.983 . S
C4300 C4296 1.684 . S
H4301 C4319 0.948 . S
H4302 C4260 0.948 . S
H4303 C4278 0.979 . S
H4304 C4278 0.980 . S
H4305 C4278 0.983 . S
H4306 C4277 0.982 . S
H4307 C4277 0.979 . S
H4308 C4277 0.977 . S
H4309 C4279 0.948 . S
H4310 C4281 0.947 . S
H4311 C4282 0.948 . S
H4312 C4288 0.982 . S
H4313 C4288 0.979 . S
H4314 C4288 0.977 . S
H4315 C4289 0.979 . S
H4316 C4289 0.980 . S
H4317 C4289 0.983 . S
H4318 C4262 0.947 . S
C4319 C4262 1.392 . S
C4319 C4263 1.419 . S
C4319 H4301 0.948 . S
C4320 C4321 1.391 . S
C4320 C4324 1.391 . S
C4320 H4362 0.948 . S
C4321 C4320 1.391 . S
C4321 C4322 1.391 . S
C4322 C4321 1.391 . S
C4322 H4378 0.947 . S
C4322 C4379 1.392 . S
C4323 C4324 1.391 . S
C4323 C4327 1.397 . S
C4323 C4379 1.419 . S
C4324 C4320 1.391 . S
C4324 C4323 1.391 . S
C4324 C4325 1.399 . S
C4325 C4324 1.399 . S
C4325 C4328 1.396 . S
C4325 C4337 1.453 . S
C4325 C4338 1.684 . S
H4326 C4350 0.948 . S
C4327 C4323 1.397 . S
C4327 C4328 1.394 . S
C4327 C4346 1.723 . S
C4328 C4325 1.396 . S
C4328 C4327 1.394 . S
C4328 C4358 1.723 . S
H4329 C4352 0.947 . S
H4330 C4353 0.948 . S
H4331 C4359 0.982 . S
H4332 C4360 0.979 . S
H4333 C4360 0.980 . S
H4334 C4360 0.983 . S
H4335 C4359 0.979 . S
H4336 C4359 0.977 . S
C4337 C4325 1.453 . S
C4337 H4366 0.982 . S
C4337 H4367 0.979 . S
C4337 H4368 0.977 . S
C4338 C4325 1.684 . S
C4338 H4363 0.979 . S
C4338 H4364 0.980 . S
C4338 H4365 0.983 . S
C4339 C4340 1.391 . S
C4339 C4344 1.391 . S
C4339 H4369 0.948 . S
C4340 C4339 1.391 . S
C4340 C4341 1.391 . S
C4341 C4340 1.391 . S
C4341 C4342 1.392 . S
C4341 H4370 0.947 . S
C4342 C4341 1.392 . S
C4342 C4343 1.419 . S
C4342 H4371 0.948 . S
C4343 C4342 1.419 . S
C4343 C4344 1.391 . S
C4343 C4347 1.397 . S
C4344 C4339 1.391 . S
C4344 C4343 1.391 . S
C4344 C4345 1.399 . S
C4345 C4344 1.399 . S
C4345 C4346 1.396 . S
C4345 C4348 1.453 . S
C4345 C4349 1.684 . S
C4346 C4327 1.723 . S
C4346 C4345 1.396 . S
C4346 C4347 1.394 . S
C4347 C4343 1.397 . S
C4347 C4346 1.394 . S
C4347 C4357 1.723 . S
C4348 C4345 1.453 . S
C4348 H4372 0.982 . S
C4348 H4373 0.979 . S
C4348 H4374 0.977 . S
C4349 C4345 1.684 . S
C4349 H4375 0.979 . S
C4349 H4376 0.980 . S
C4349 H4377 0.983 . S
C4350 H4326 0.948 . S
C4350 C4351 1.391 . S
C4350 C4355 1.391 . S
C4351 C4350 1.391 . S
C4351 C4352 1.391 . S
C4352 H4329 0.947 . S
C4352 C4351 1.391 . S
C4352 C4353 1.392 . S
C4353 H4330 0.948 . S
C4353 C4352 1.392 . S
C4353 C4354 1.419 . S
C4354 C4353 1.419 . S
C4354 C4355 1.391 . S
C4354 C4358 1.397 . S
C4355 C4350 1.391 . S
C4355 C4354 1.391 . S
C4355 C4356 1.399 . S
C4356 C4355 1.399 . S
C4356 C4357 1.396 . S
C4356 C4359 1.453 . S
C4356 C4360 1.684 . S
C4357 C4347 1.723 . S
C4357 C4356 1.396 . S
C4357 C4358 1.394 . S
C4358 C4328 1.723 . S
C4358 C4354 1.397 . S
C4358 C4357 1.394 . S
C4359 H4331 0.982 . S
C4359 H4335 0.979 . S
C4359 H4336 0.977 . S
C4359 C4356 1.453 . S
C4360 H4332 0.979 . S
C4360 H4333 0.980 . S
C4360 H4334 0.983 . S
C4360 C4356 1.684 . S
H4361 C4379 0.948 . S
H4362 C4320 0.948 . S
H4363 C4338 0.979 . S
H4364 C4338 0.980 . S
H4365 C4338 0.983 . S
H4366 C4337 0.982 . S
H4367 C4337 0.979 . S
H4368 C4337 0.977 . S
H4369 C4339 0.948 . S
H4370 C4341 0.947 . S
H4371 C4342 0.948 . S
H4372 C4348 0.982 . S
H4373 C4348 0.979 . S
H4374 C4348 0.977 . S
H4375 C4349 0.979 . S
H4376 C4349 0.980 . S
H4377 C4349 0.983 . S
H4378 C4322 0.947 . S
C4379 C4322 1.392 . S
C4379 C4323 1.419 . S
C4379 H4361 0.948 . S
C4380 C4381 1.391 . S
C4380 C4384 1.391 . S
C4380 H4422 0.948 . S
C4381 C4380 1.391 . S
C4381 C4382 1.391 . S
C4382 C4381 1.391 . S
C4382 H4438 0.947 . S
C4382 C4439 1.392 . S
C4383 C4384 1.391 . S
C4383 C4387 1.397 . S
C4383 C4439 1.419 . S
C4384 C4380 1.391 . S
C4384 C4383 1.391 . S
C4384 C4385 1.399 . S
C4385 C4384 1.399 . S
C4385 C4388 1.396 . S
C4385 C4397 1.453 . S
C4385 C4398 1.684 . S
H4386 C4410 0.948 . S
C4387 C4383 1.397 . S
C4387 C4388 1.394 . S
C4387 C4406 1.723 . S
C4388 C4385 1.396 . S
C4388 C4387 1.394 . S
C4388 C4418 1.723 . S
H4389 C4412 0.947 . S
H4390 C4413 0.948 . S
H4391 C4419 0.982 . S
H4392 C4420 0.979 . S
H4393 C4420 0.980 . S
H4394 C4420 0.983 . S
H4395 C4419 0.979 . S
H4396 C4419 0.977 . S
C4397 C4385 1.453 . S
C4397 H4426 0.982 . S
C4397 H4427 0.979 . S
C4397 H4428 0.977 . S
C4398 C4385 1.684 . S
C4398 H4423 0.979 . S
C4398 H4424 0.980 . S
C4398 H4425 0.983 . S
C4399 C4400 1.391 . S
C4399 C4404 1.391 . S
C4399 H4429 0.948 . S
C4400 C4399 1.391 . S
C4400 C4401 1.391 . S
C4401 C4400 1.391 . S
C4401 C4402 1.392 . S
C4401 H4430 0.947 . S
C4402 C4401 1.392 . S
C4402 C4403 1.419 . S
C4402 H4431 0.948 . S
C4403 C4402 1.419 . S
C4403 C4404 1.391 . S
C4403 C4407 1.397 . S
C4404 C4399 1.391 . S
C4404 C4403 1.391 . S
C4404 C4405 1.399 . S
C4405 C4404 1.399 . S
C4405 C4406 1.396 . S
C4405 C4408 1.453 . S
C4405 C4409 1.684 . S
C4406 C4387 1.723 . S
C4406 C4405 1.396 . S
C4406 C4407 1.394 . S
C4407 C4403 1.397 . S
C4407 C4406 1.394 . S
C4407 C4417 1.723 . S
C4408 C4405 1.453 . S
C4408 H4432 0.982 . S
C4408 H4433 0.979 . S
C4408 H4434 0.977 . S
C4409 C4405 1.684 . S
C4409 H4435 0.979 . S
C4409 H4436 0.980 . S
C4409 H4437 0.983 . S
C4410 H4386 0.948 . S
C4410 C4411 1.391 . S
C4410 C4415 1.391 . S
C4411 C4410 1.391 . S
C4411 C4412 1.391 . S
C4412 H4389 0.947 . S
C4412 C4411 1.391 . S
C4412 C4413 1.392 . S
C4413 H4390 0.948 . S
C4413 C4412 1.392 . S
C4413 C4414 1.419 . S
C4414 C4413 1.419 . S
C4414 C4415 1.391 . S
C4414 C4418 1.397 . S
C4415 C4410 1.391 . S
C4415 C4414 1.391 . S
C4415 C4416 1.399 . S
C4416 C4415 1.399 . S
C4416 C4417 1.396 . S
C4416 C4419 1.453 . S
C4416 C4420 1.684 . S
C4417 C4407 1.723 . S
C4417 C4416 1.396 . S
C4417 C4418 1.394 . S
C4418 C4388 1.723 . S
C4418 C4414 1.397 . S
C4418 C4417 1.394 . S
C4419 H4391 0.982 . S
C4419 H4395 0.979 . S
C4419 H4396 0.977 . S
C4419 C4416 1.453 . S
C4420 H4392 0.979 . S
C4420 H4393 0.980 . S
C4420 H4394 0.983 . S
C4420 C4416 1.684 . S
H4421 C4439 0.948 . S
H4422 C4380 0.948 . S
H4423 C4398 0.979 . S
H4424 C4398 0.980 . S
H4425 C4398 0.983 . S
H4426 C4397 0.982 . S
H4427 C4397 0.979 . S
H4428 C4397 0.977 . S
H4429 C4399 0.948 . S
H4430 C4401 0.947 . S
H4431 C4402 0.948 . S
H4432 C4408 0.982 . S
H4433 C4408 0.979 . S
H4434 C4408 0.977 . S
H4435 C4409 0.979 . S
H4436 C4409 0.980 . S
H4437 C4409 0.983 . S
H4438 C4382 0.947 . S
C4439 C4382 1.392 . S
C4439 C4383 1.419 . S
C4439 H4421 0.948 . S
C4440 C4441 1.391 . S
C4440 C4444 1.391 . S
C4440 H4482 0.948 . S
C4441 C4440 1.391 . S
C4441 C4442 1.391 . S
C4442 C4441 1.391 . S
C4442 H4498 0.947 . S
C4442 C4499 1.392 . S
C4443 C4444 1.391 . S
C4443 C4447 1.397 . S
C4443 C4499 1.419 . S
C4444 C4440 1.391 . S
C4444 C4443 1.391 . S
C4444 C4445 1.399 . S
C4445 C4444 1.399 . S
C4445 C4448 1.396 . S
C4445 C4457 1.453 . S
C4445 C4458 1.684 . S
H4446 C4470 0.948 . S
C4447 C4443 1.397 . S
C4447 C4448 1.394 . S
C4447 C4466 1.723 . S
C4448 C4445 1.396 . S
C4448 C4447 1.394 . S
C4448 C4478 1.723 . S
H4449 C4472 0.947 . S
H4450 C4473 0.948 . S
H4451 C4479 0.982 . S
H4452 C4480 0.979 . S
H4453 C4480 0.980 . S
H4454 C4480 0.983 . S
H4455 C4479 0.979 . S
H4456 C4479 0.977 . S
C4457 C4445 1.453 . S
C4457 H4486 0.982 . S
C4457 H4487 0.979 . S
C4457 H4488 0.977 . S
C4458 C4445 1.684 . S
C4458 H4483 0.979 . S
C4458 H4484 0.980 . S
C4458 H4485 0.983 . S
C4459 C4460 1.391 . S
C4459 C4464 1.391 . S
C4459 H4489 0.948 . S
C4460 C4459 1.391 . S
C4460 C4461 1.391 . S
C4461 C4460 1.391 . S
C4461 C4462 1.392 . S
C4461 H4490 0.947 . S
C4462 C4461 1.392 . S
C4462 C4463 1.419 . S
C4462 H4491 0.948 . S
C4463 C4462 1.419 . S
C4463 C4464 1.391 . S
C4463 C4467 1.397 . S
C4464 C4459 1.391 . S
C4464 C4463 1.391 . S
C4464 C4465 1.399 . S
C4465 C4464 1.399 . S
C4465 C4466 1.396 . S
C4465 C4468 1.453 . S
C4465 C4469 1.684 . S
C4466 C4447 1.723 . S
C4466 C4465 1.396 . S
C4466 C4467 1.394 . S
C4467 C4463 1.397 . S
C4467 C4466 1.394 . S
C4467 C4477 1.723 . S
C4468 C4465 1.453 . S
C4468 H4492 0.982 . S
C4468 H4493 0.979 . S
C4468 H4494 0.977 . S
C4469 C4465 1.684 . S
C4469 H4495 0.979 . S
C4469 H4496 0.980 . S
C4469 H4497 0.983 . S
C4470 H4446 0.948 . S
C4470 C4471 1.391 . S
C4470 C4475 1.391 . S
C4471 C4470 1.391 . S
C4471 C4472 1.391 . S
C4472 H4449 0.947 . S
C4472 C4471 1.391 . S
C4472 C4473 1.392 . S
C4473 H4450 0.948 . S
C4473 C4472 1.392 . S
C4473 C4474 1.419 . S
C4474 C4473 1.419 . S
C4474 C4475 1.391 . S
C4474 C4478 1.397 . S
C4475 C4470 1.391 . S
C4475 C4474 1.391 . S
C4475 C4476 1.399 . S
C4476 C4475 1.399 . S
C4476 C4477 1.396 . S
C4476 C4479 1.453 . S
C4476 C4480 1.684 . S
C4477 C4467 1.723 . S
C4477 C4476 1.396 . S
C4477 C4478 1.394 . S
C4478 C4448 1.723 . S
C4478 C4474 1.397 . S
C4478 C4477 1.394 . S
C4479 H4451 0.982 . S
C4479 H4455 0.979 . S
C4479 H4456 0.977 . S
C4479 C4476 1.453 . S
C4480 H4452 0.979 . S
C4480 H4453 0.980 . S
C4480 H4454 0.983 . S
C4480 C4476 1.684 . S
H4481 C4499 0.948 . S
H4482 C4440 0.948 . S
H4483 C4458 0.979 . S
H4484 C4458 0.980 . S
H4485 C4458 0.983 . S
H4486 C4457 0.982 . S
H4487 C4457 0.979 . S
H4488 C4457 0.977 . S
H4489 C4459 0.948 . S
H4490 C4461 0.947 . S
H4491 C4462 0.948 . S
H4492 C4468 0.982 . S
H4493 C4468 0.979 . S
H4494 C4468 0.977 . S
H4495 C4469 0.979 . S
H4496 C4469 0.980 . S
H4497 C4469 0.983 . S
H4498 C4442 0.947 . S
C4499 C4442 1.392 . S
C4499 C4443 1.419 . S
C4499 H4481 0.948 . S
C4500 C4501 1.391 . S
C4500 C4504 1.391 . S
C4500 H4542 0.948 . S
C4501 C4500 1.391 . S
C4501 C4502 1.391 . S
C4502 C4501 1.391 . S
C4502 H4558 0.947 . S
C4502 C4559 1.392 . S
C4503 C4504 1.391 . S
C4503 C4507 1.397 . S
C4503 C4559 1.419 . S
C4504 C4500 1.391 . S
C4504 C4503 1.391 . S
C4504 C4505 1.399 . S
C4505 C4504 1.399 . S
C4505 C4508 1.396 . S
C4505 C4517 1.453 . S
C4505 C4518 1.684 . S
H4506 C4530 0.948 . S
C4507 C4503 1.397 . S
C4507 C4508 1.394 . S
C4507 C4526 1.723 . S
C4508 C4505 1.396 . S
C4508 C4507 1.394 . S
C4508 C4538 1.723 . S
H4509 C4532 0.947 . S
H4510 C4533 0.948 . S
H4511 C4539 0.982 . S
H4512 C4540 0.975 1_554 S
H4513 C4540 0.995 . S
H4514 C4540 0.967 1_554 S
H4515 C4539 0.979 1_554 S
H4516 C4539 0.977 . S
C4517 C4505 1.453 . S
C4517 H4546 0.982 . S
C4517 H4547 0.979 . S
C4517 H4548 0.977 . S
C4518 C4505 1.684 . S
C4518 H4543 0.979 . S
C4518 H4544 0.980 . S
C4518 H4545 0.983 . S
C4519 C4520 1.391 . S
C4519 C4524 1.391 . S
C4519 H4549 0.948 . S
C4520 C4519 1.391 . S
C4520 C4521 1.391 . S
C4521 C4520 1.391 . S
C4521 C4522 1.392 . S
C4521 H4550 0.947 . S
C4522 C4521 1.392 . S
C4522 C4523 1.419 . S
C4522 H4551 0.948 . S
C4523 C4522 1.419 . S
C4523 C4524 1.391 . S
C4523 C4527 1.397 . S
C4524 C4519 1.391 . S
C4524 C4523 1.391 . S
C4524 C4525 1.399 . S
C4525 C4524 1.399 . S
C4525 C4526 1.396 . S
C4525 C4528 1.453 . S
C4525 C4529 1.684 . S
C4526 C4507 1.723 . S
C4526 C4525 1.396 . S
C4526 C4527 1.394 . S
C4527 C4523 1.397 . S
C4527 C4526 1.394 . S
C4527 C4537 1.723 . S
C4528 C4525 1.453 . S
C4528 H4552 0.982 . S
C4528 H4553 0.979 . S
C4528 H4554 0.977 . S
C4529 C4525 1.684 . S
C4529 H4555 0.979 . S
C4529 H4556 0.980 . S
C4529 H4557 0.983 . S
C4530 H4506 0.948 . S
C4530 C4531 1.391 . S
C4530 C4535 1.391 . S
C4531 C4530 1.391 . S
C4531 C4532 1.391 . S
C4532 H4509 0.947 . S
C4532 C4531 1.391 . S
C4532 C4533 1.392 . S
C4533 H4510 0.948 . S
C4533 C4532 1.392 . S
C4533 C4534 1.442 . S
C4534 C4533 1.442 . S
C4534 C4535 1.409 . S
C4534 C4538 1.358 1_554 S
C4535 C4530 1.391 . S
C4535 C4534 1.409 . S
C4535 C4536 1.399 1_554 S
C4536 C4535 1.399 1_556 S
C4536 C4537 1.396 . S
C4536 C4539 1.453 . S
C4536 C4540 1.688 . S
C4537 C4527 1.723 . S
C4537 C4536 1.396 . S
C4537 C4538 1.394 . S
C4538 C4508 1.723 . S
C4538 C4534 1.358 1_556 S
C4538 C4537 1.394 . S
C4539 H4511 0.982 . S
C4539 H4515 0.979 1_556 S
C4539 H4516 0.977 . S
C4539 C4536 1.453 . S
C4540 H4512 0.975 1_556 S
C4540 H4513 0.995 . S
C4540 H4514 0.967 1_556 S
C4540 C4536 1.688 . S
H4541 C4559 0.948 . S
H4542 C4500 0.948 . S
H4543 C4518 0.979 . S
H4544 C4518 0.980 . S
H4545 C4518 0.983 . S
H4546 C4517 0.982 . S
H4547 C4517 0.979 . S
H4548 C4517 0.977 . S
H4549 C4519 0.948 . S
H4550 C4521 0.947 . S
H4551 C4522 0.948 . S
H4552 C4528 0.982 . S
H4553 C4528 0.979 . S
H4554 C4528 0.977 . S
H4555 C4529 0.979 . S
H4556 C4529 0.980 . S
H4557 C4529 0.983 . S
H4558 C4502 0.947 . S
C4559 C4502 1.392 . S
C4559 C4503 1.419 . S
C4559 H4541 0.948 . S
C4560 C4561 1.391 . S
C4560 C4564 1.391 . S
C4560 H4602 0.948 . S
C4561 C4560 1.391 . S
C4561 C4562 1.391 . S
C4562 C4561 1.391 . S
C4562 H4618 0.947 . S
C4562 C4619 1.392 . S
C4563 C4564 1.391 . S
C4563 C4567 1.397 . S
C4563 C4619 1.419 . S
C4564 C4560 1.391 . S
C4564 C4563 1.391 . S
C4564 C4565 1.399 . S
C4565 C4564 1.399 . S
C4565 C4568 1.396 . S
C4565 C4577 1.453 . S
C4565 C4578 1.684 . S
H4566 C4590 0.948 . S
C4567 C4563 1.397 . S
C4567 C4568 1.394 . S
C4567 C4586 1.723 . S
C4568 C4565 1.396 . S
C4568 C4567 1.394 . S
C4568 C4598 1.723 . S
H4569 C4592 0.947 . S
H4570 C4593 0.948 . S
H4571 C4599 0.982 . S
H4572 C4600 0.979 . S
H4573 C4600 0.980 . S
H4574 C4600 0.983 . S
H4575 C4599 0.979 . S
H4576 C4599 0.977 . S
C4577 C4565 1.453 . S
C4577 H4606 0.982 . S
C4577 H4607 0.979 . S
C4577 H4608 0.977 . S
C4578 C4565 1.684 . S
C4578 H4603 0.979 . S
C4578 H4604 0.980 . S
C4578 H4605 0.983 . S
C4579 C4580 1.391 . S
C4579 C4584 1.391 . S
C4579 H4609 0.948 . S
C4580 C4579 1.391 . S
C4580 C4581 1.391 . S
C4581 C4580 1.391 . S
C4581 C4582 1.392 . S
C4581 H4610 0.947 . S
C4582 C4581 1.392 . S
C4582 C4583 1.419 . S
C4582 H4611 0.948 . S
C4583 C4582 1.419 . S
C4583 C4584 1.391 . S
C4583 C4587 1.397 . S
C4584 C4579 1.391 . S
C4584 C4583 1.391 . S
C4584 C4585 1.399 . S
C4585 C4584 1.399 . S
C4585 C4586 1.396 . S
C4585 C4588 1.453 . S
C4585 C4589 1.684 . S
C4586 C4567 1.723 . S
C4586 C4585 1.396 . S
C4586 C4587 1.394 . S
C4587 C4583 1.397 . S
C4587 C4586 1.394 . S
C4587 C4597 1.723 . S
C4588 C4585 1.453 . S
C4588 H4612 0.982 . S
C4588 H4613 0.979 . S
C4588 H4614 0.977 . S
C4589 C4585 1.684 . S
C4589 H4615 0.979 . S
C4589 H4616 0.980 . S
C4589 H4617 0.983 . S
C4590 H4566 0.948 . S
C4590 C4591 1.391 . S
C4590 C4595 1.391 . S
C4591 C4590 1.391 . S
C4591 C4592 1.391 . S
C4592 H4569 0.947 . S
C4592 C4591 1.391 . S
C4592 C4593 1.392 . S
C4593 H4570 0.948 . S
C4593 C4592 1.392 . S
C4593 C4594 1.419 . S
C4594 C4593 1.419 . S
C4594 C4595 1.391 . S
C4594 C4598 1.397 . S
C4595 C4590 1.391 . S
C4595 C4594 1.391 . S
C4595 C4596 1.399 . S
C4596 C4595 1.399 . S
C4596 C4597 1.396 . S
C4596 C4599 1.453 . S
C4596 C4600 1.684 . S
C4597 C4587 1.723 . S
C4597 C4596 1.396 . S
C4597 C4598 1.394 . S
C4598 C4568 1.723 . S
C4598 C4594 1.397 . S
C4598 C4597 1.394 . S
C4599 H4571 0.982 . S
C4599 H4575 0.979 . S
C4599 H4576 0.977 . S
C4599 C4596 1.453 . S
C4600 H4572 0.979 . S
C4600 H4573 0.980 . S
C4600 H4574 0.983 . S
C4600 C4596 1.684 . S
H4601 C4619 0.948 . S
H4602 C4560 0.948 . S
H4603 C4578 0.979 . S
H4604 C4578 0.980 . S
H4605 C4578 0.983 . S
H4606 C4577 0.982 . S
H4607 C4577 0.979 . S
H4608 C4577 0.977 . S
H4609 C4579 0.948 . S
H4610 C4581 0.947 . S
H4611 C4582 0.948 . S
H4612 C4588 0.982 . S
H4613 C4588 0.979 . S
H4614 C4588 0.977 . S
H4615 C4589 0.979 . S
H4616 C4589 0.980 . S
H4617 C4589 0.983 . S
H4618 C4562 0.947 . S
C4619 C4562 1.392 . S
C4619 C4563 1.419 . S
C4619 H4601 0.948 . S
C4620 C4621 1.391 . S
C4620 C4624 1.391 . S
C4620 H4662 0.948 . S
C4621 C4620 1.391 . S
C4621 C4622 1.391 . S
C4622 C4621 1.391 . S
C4622 H4678 0.947 . S
C4622 C4679 1.392 . S
C4623 C4624 1.391 . S
C4623 C4627 1.397 . S
C4623 C4679 1.419 . S
C4624 C4620 1.391 . S
C4624 C4623 1.391 . S
C4624 C4625 1.399 . S
C4625 C4624 1.399 . S
C4625 C4628 1.396 . S
C4625 C4637 1.453 . S
C4625 C4638 1.684 . S
H4626 C4650 0.948 . S
C4627 C4623 1.397 . S
C4627 C4628 1.394 . S
C4627 C4646 1.723 . S
C4628 C4625 1.396 . S
C4628 C4627 1.394 . S
C4628 C4658 1.723 . S
H4629 C4652 0.947 . S
H4630 C4653 0.948 . S
H4631 C4659 0.982 . S
H4632 C4660 0.979 . S
H4633 C4660 0.980 . S
H4634 C4660 0.983 . S
H4635 C4659 0.979 . S
H4636 C4659 0.977 . S
C4637 C4625 1.453 . S
C4637 H4666 0.982 . S
C4637 H4667 0.979 . S
C4637 H4668 0.977 . S
C4638 C4625 1.684 . S
C4638 H4663 0.979 . S
C4638 H4664 0.980 . S
C4638 H4665 0.983 . S
C4639 C4640 1.391 . S
C4639 C4644 1.391 . S
C4639 H4669 0.948 . S
C4640 C4639 1.391 . S
C4640 C4641 1.391 . S
C4641 C4640 1.391 . S
C4641 C4642 1.392 . S
C4641 H4670 0.947 . S
C4642 C4641 1.392 . S
C4642 C4643 1.419 . S
C4642 H4671 0.948 . S
C4643 C4642 1.419 . S
C4643 C4644 1.391 . S
C4643 C4647 1.397 . S
C4644 C4639 1.391 . S
C4644 C4643 1.391 . S
C4644 C4645 1.399 . S
C4645 C4644 1.399 . S
C4645 C4646 1.396 . S
C4645 C4648 1.453 . S
C4645 C4649 1.684 . S
C4646 C4627 1.723 . S
C4646 C4645 1.396 . S
C4646 C4647 1.394 . S
C4647 C4643 1.397 . S
C4647 C4646 1.394 . S
C4647 C4657 1.723 . S
C4648 C4645 1.453 . S
C4648 H4672 0.982 . S
C4648 H4673 0.979 . S
C4648 H4674 0.977 . S
C4649 C4645 1.684 . S
C4649 H4675 0.979 . S
C4649 H4676 0.980 . S
C4649 H4677 0.983 . S
C4650 H4626 0.948 . S
C4650 C4651 1.391 . S
C4650 C4655 1.391 . S
C4651 C4650 1.391 . S
C4651 C4652 1.391 . S
C4652 H4629 0.947 . S
C4652 C4651 1.391 . S
C4652 C4653 1.392 . S
C4653 H4630 0.948 . S
C4653 C4652 1.392 . S
C4653 C4654 1.419 . S
C4654 C4653 1.419 . S
C4654 C4655 1.391 . S
C4654 C4658 1.397 . S
C4655 C4650 1.391 . S
C4655 C4654 1.391 . S
C4655 C4656 1.399 . S
C4656 C4655 1.399 . S
C4656 C4657 1.396 . S
C4656 C4659 1.453 . S
C4656 C4660 1.684 . S
C4657 C4647 1.723 . S
C4657 C4656 1.396 . S
C4657 C4658 1.394 . S
C4658 C4628 1.723 . S
C4658 C4654 1.397 . S
C4658 C4657 1.394 . S
C4659 H4631 0.982 . S
C4659 H4635 0.979 . S
C4659 H4636 0.977 . S
C4659 C4656 1.453 . S
C4660 H4632 0.979 . S
C4660 H4633 0.980 . S
C4660 H4634 0.983 . S
C4660 C4656 1.684 . S
H4661 C4679 0.948 . S
H4662 C4620 0.948 . S
H4663 C4638 0.979 . S
H4664 C4638 0.980 . S
H4665 C4638 0.983 . S
H4666 C4637 0.982 . S
H4667 C4637 0.979 . S
H4668 C4637 0.977 . S
H4669 C4639 0.948 . S
H4670 C4641 0.947 . S
H4671 C4642 0.948 . S
H4672 C4648 0.982 . S
H4673 C4648 0.979 . S
H4674 C4648 0.977 . S
H4675 C4649 0.979 . S
H4676 C4649 0.980 . S
H4677 C4649 0.983 . S
H4678 C4622 0.947 . S
C4679 C4622 1.392 . S
C4679 C4623 1.419 . S
C4679 H4661 0.948 . S
C4680 C4681 1.391 . S
C4680 C4684 1.391 . S
C4680 H4722 0.948 . S
C4681 C4680 1.391 . S
C4681 C4682 1.391 . S
C4682 C4681 1.391 . S
C4682 H4738 0.947 . S
C4682 C4739 1.392 . S
C4683 C4684 1.391 . S
C4683 C4687 1.397 . S
C4683 C4739 1.419 . S
C4684 C4680 1.391 . S
C4684 C4683 1.391 . S
C4684 C4685 1.399 . S
C4685 C4684 1.399 . S
C4685 C4688 1.396 . S
C4685 C4697 1.453 . S
C4685 C4698 1.684 . S
H4686 C4710 0.948 . S
C4687 C4683 1.397 . S
C4687 C4688 1.394 . S
C4687 C4706 1.723 . S
C4688 C4685 1.396 . S
C4688 C4687 1.394 . S
C4688 C4718 1.723 . S
H4689 C4712 0.947 . S
H4690 C4713 0.948 . S
H4691 C4719 0.982 . S
H4692 C4720 0.979 . S
H4693 C4720 0.980 . S
H4694 C4720 0.983 . S
H4695 C4719 0.979 . S
H4696 C4719 0.977 . S
C4697 C4685 1.453 . S
C4697 H4726 0.982 . S
C4697 H4727 0.979 . S
C4697 H4728 0.977 . S
C4698 C4685 1.684 . S
C4698 H4723 0.979 . S
C4698 H4724 0.980 . S
C4698 H4725 0.983 . S
C4699 C4700 1.391 . S
C4699 C4704 1.391 . S
C4699 H4729 0.948 . S
C4700 C4699 1.391 . S
C4700 C4701 1.391 . S
C4701 C4700 1.391 . S
C4701 C4702 1.392 . S
C4701 H4730 0.947 . S
C4702 C4701 1.392 . S
C4702 C4703 1.419 . S
C4702 H4731 0.948 . S
C4703 C4702 1.419 . S
C4703 C4704 1.391 . S
C4703 C4707 1.397 . S
C4704 C4699 1.391 . S
C4704 C4703 1.391 . S
C4704 C4705 1.399 . S
C4705 C4704 1.399 . S
C4705 C4706 1.396 . S
C4705 C4708 1.453 . S
C4705 C4709 1.684 . S
C4706 C4687 1.723 . S
C4706 C4705 1.396 . S
C4706 C4707 1.394 . S
C4707 C4703 1.397 . S
C4707 C4706 1.394 . S
C4707 C4717 1.723 . S
C4708 C4705 1.453 . S
C4708 H4732 0.982 . S
C4708 H4733 0.979 . S
C4708 H4734 0.977 . S
C4709 C4705 1.684 . S
C4709 H4735 0.979 . S
C4709 H4736 0.980 . S
C4709 H4737 0.983 . S
C4710 H4686 0.948 . S
C4710 C4711 1.391 . S
C4710 C4715 1.391 . S
C4711 C4710 1.391 . S
C4711 C4712 1.391 . S
C4712 H4689 0.947 . S
C4712 C4711 1.391 . S
C4712 C4713 1.392 . S
C4713 H4690 0.948 . S
C4713 C4712 1.392 . S
C4713 C4714 1.419 . S
C4714 C4713 1.419 . S
C4714 C4715 1.391 . S
C4714 C4718 1.397 . S
C4715 C4710 1.391 . S
C4715 C4714 1.391 . S
C4715 C4716 1.399 . S
C4716 C4715 1.399 . S
C4716 C4717 1.396 . S
C4716 C4719 1.453 . S
C4716 C4720 1.684 . S
C4717 C4707 1.723 . S
C4717 C4716 1.396 . S
C4717 C4718 1.394 . S
C4718 C4688 1.723 . S
C4718 C4714 1.397 . S
C4718 C4717 1.394 . S
C4719 H4691 0.982 . S
C4719 H4695 0.979 . S
C4719 H4696 0.977 . S
C4719 C4716 1.453 . S
C4720 H4692 0.979 . S
C4720 H4693 0.980 . S
C4720 H4694 0.983 . S
C4720 C4716 1.684 . S
H4721 C4739 0.948 . S
H4722 C4680 0.948 . S
H4723 C4698 0.979 . S
H4724 C4698 0.980 . S
H4725 C4698 0.983 . S
H4726 C4697 0.982 . S
H4727 C4697 0.979 . S
H4728 C4697 0.977 . S
H4729 C4699 0.948 . S
H4730 C4701 0.947 . S
H4731 C4702 0.948 . S
H4732 C4708 0.982 . S
H4733 C4708 0.979 . S
H4734 C4708 0.977 . S
H4735 C4709 0.979 . S
H4736 C4709 0.980 . S
H4737 C4709 0.983 . S
H4738 C4682 0.947 . S
C4739 C4682 1.392 . S
C4739 C4683 1.419 . S
C4739 H4721 0.948 . S
C4740 C4741 1.391 . S
C4740 C4744 1.391 . S
C4740 H4782 0.948 . S
C4741 C4740 1.391 . S
C4741 C4742 1.391 . S
C4742 C4741 1.391 . S
C4742 H4798 0.947 . S
C4742 C4799 1.392 . S
C4743 C4744 1.391 . S
C4743 C4747 1.397 . S
C4743 C4799 1.419 . S
C4744 C4740 1.391 . S
C4744 C4743 1.391 . S
C4744 C4745 1.399 . S
C4745 C4744 1.399 . S
C4745 C4748 1.396 . S
C4745 C4757 1.453 . S
C4745 C4758 1.684 . S
H4746 C4770 0.948 . S
C4747 C4743 1.397 . S
C4747 C4748 1.394 . S
C4747 C4766 1.723 . S
C4748 C4745 1.396 . S
C4748 C4747 1.394 . S
C4748 C4778 1.723 . S
H4749 C4772 0.947 . S
H4750 C4773 0.948 . S
H4751 C4779 0.982 . S
H4752 C4780 0.979 . S
H4753 C4780 0.980 . S
H4754 C4780 0.983 . S
H4755 C4779 0.979 . S
H4756 C4779 0.977 . S
C4757 C4745 1.453 . S
C4757 H4786 0.982 . S
C4757 H4787 0.979 . S
C4757 H4788 0.977 . S
C4758 C4745 1.684 . S
C4758 H4783 0.979 . S
C4758 H4784 0.980 . S
C4758 H4785 0.983 . S
C4759 C4760 1.391 . S
C4759 C4764 1.391 . S
C4759 H4789 0.948 . S
C4760 C4759 1.391 . S
C4760 C4761 1.391 . S
C4761 C4760 1.391 . S
C4761 C4762 1.392 . S
C4761 H4790 0.947 . S
C4762 C4761 1.392 . S
C4762 C4763 1.419 . S
C4762 H4791 0.948 . S
C4763 C4762 1.419 . S
C4763 C4764 1.391 . S
C4763 C4767 1.397 . S
C4764 C4759 1.391 . S
C4764 C4763 1.391 . S
C4764 C4765 1.399 . S
C4765 C4764 1.399 . S
C4765 C4766 1.396 . S
C4765 C4768 1.453 . S
C4765 C4769 1.684 . S
C4766 C4747 1.723 . S
C4766 C4765 1.396 . S
C4766 C4767 1.394 . S
C4767 C4763 1.397 . S
C4767 C4766 1.394 . S
C4767 C4777 1.723 . S
C4768 C4765 1.453 . S
C4768 H4792 0.982 . S
C4768 H4793 0.979 . S
C4768 H4794 0.977 . S
C4769 C4765 1.684 . S
C4769 H4795 0.979 . S
C4769 H4796 0.980 . S
C4769 H4797 0.983 . S
C4770 H4746 0.948 . S
C4770 C4771 1.391 . S
C4770 C4775 1.391 . S
C4771 C4770 1.391 . S
C4771 C4772 1.391 . S
C4772 H4749 0.947 . S
C4772 C4771 1.391 . S
C4772 C4773 1.392 . S
C4773 H4750 0.948 . S
C4773 C4772 1.392 . S
C4773 C4774 1.419 . S
C4774 C4773 1.419 . S
C4774 C4775 1.391 . S
C4774 C4778 1.397 . S
C4775 C4770 1.391 . S
C4775 C4774 1.391 . S
C4775 C4776 1.399 . S
C4776 C4775 1.399 . S
C4776 C4777 1.396 . S
C4776 C4779 1.453 . S
C4776 C4780 1.684 . S
C4777 C4767 1.723 . S
C4777 C4776 1.396 . S
C4777 C4778 1.394 . S
C4778 C4748 1.723 . S
C4778 C4774 1.397 . S
C4778 C4777 1.394 . S
C4779 H4751 0.982 . S
C4779 H4755 0.979 . S
C4779 H4756 0.977 . S
C4779 C4776 1.453 . S
C4780 H4752 0.979 . S
C4780 H4753 0.980 . S
C4780 H4754 0.983 . S
C4780 C4776 1.684 . S
H4781 C4799 0.948 . S
H4782 C4740 0.948 . S
H4783 C4758 0.979 . S
H4784 C4758 0.980 . S
H4785 C4758 0.983 . S
H4786 C4757 0.982 . S
H4787 C4757 0.979 . S
H4788 C4757 0.977 . S
H4789 C4759 0.948 . S
H4790 C4761 0.947 . S
H4791 C4762 0.948 . S
H4792 C4768 0.982 . S
H4793 C4768 0.979 . S
H4794 C4768 0.977 . S
H4795 C4769 0.979 . S
H4796 C4769 0.980 . S
H4797 C4769 0.983 . S
H4798 C4742 0.947 . S
C4799 C4742 1.392 . S
C4799 C4743 1.419 . S
C4799 H4781 0.948 . S
C4800 C4801 1.391 . S
C4800 C4804 1.391 . S
C4800 H4842 0.948 . S
C4801 C4800 1.391 . S
C4801 C4802 1.391 . S
C4802 C4801 1.391 . S
C4802 H4858 0.947 . S
C4802 C4859 1.392 . S
C4803 C4804 1.391 . S
C4803 C4807 1.397 . S
C4803 C4859 1.419 . S
C4804 C4800 1.391 . S
C4804 C4803 1.391 . S
C4804 C4805 1.399 . S
C4805 C4804 1.399 . S
C4805 C4808 1.396 . S
C4805 C4817 1.453 . S
C4805 C4818 1.684 . S
H4806 C4830 0.948 . S
C4807 C4803 1.397 . S
C4807 C4808 1.394 . S
C4807 C4826 1.723 . S
C4808 C4805 1.396 . S
C4808 C4807 1.394 . S
C4808 C4838 1.723 . S
H4809 C4832 0.947 . S
H4810 C4833 0.948 . S
H4811 C4839 0.982 . S
H4812 C4840 0.979 . S
H4813 C4840 0.980 . S
H4814 C4840 0.983 . S
H4815 C4839 0.979 . S
H4816 C4839 0.977 . S
C4817 C4805 1.453 . S
C4817 H4846 0.982 . S
C4817 H4847 0.979 . S
C4817 H4848 0.977 . S
C4818 C4805 1.684 . S
C4818 H4843 0.979 . S
C4818 H4844 0.980 . S
C4818 H4845 0.983 . S
C4819 C4820 1.391 . S
C4819 C4824 1.391 . S
C4819 H4849 0.948 . S
C4820 C4819 1.391 . S
C4820 C4821 1.391 . S
C4821 C4820 1.391 . S
C4821 C4822 1.392 . S
C4821 H4850 0.947 . S
C4822 C4821 1.392 . S
C4822 C4823 1.419 . S
C4822 H4851 0.948 . S
C4823 C4822 1.419 . S
C4823 C4824 1.391 . S
C4823 C4827 1.397 . S
C4824 C4819 1.391 . S
C4824 C4823 1.391 . S
C4824 C4825 1.399 . S
C4825 C4824 1.399 . S
C4825 C4826 1.396 . S
C4825 C4828 1.453 . S
C4825 C4829 1.684 . S
C4826 C4807 1.723 . S
C4826 C4825 1.396 . S
C4826 C4827 1.394 . S
C4827 C4823 1.397 . S
C4827 C4826 1.394 . S
C4827 C4837 1.723 . S
C4828 C4825 1.453 . S
C4828 H4852 0.982 . S
C4828 H4853 0.979 . S
C4828 H4854 0.977 . S
C4829 C4825 1.684 . S
C4829 H4855 0.979 . S
C4829 H4856 0.980 . S
C4829 H4857 0.983 . S
C4830 H4806 0.948 . S
C4830 C4831 1.391 . S
C4830 C4835 1.391 . S
C4831 C4830 1.391 . S
C4831 C4832 1.391 . S
C4832 H4809 0.947 . S
C4832 C4831 1.391 . S
C4832 C4833 1.392 . S
C4833 H4810 0.948 . S
C4833 C4832 1.392 . S
C4833 C4834 1.419 . S
C4834 C4833 1.419 . S
C4834 C4835 1.391 . S
C4834 C4838 1.397 . S
C4835 C4830 1.391 . S
C4835 C4834 1.391 . S
C4835 C4836 1.399 . S
C4836 C4835 1.399 . S
C4836 C4837 1.396 . S
C4836 C4839 1.453 . S
C4836 C4840 1.684 . S
C4837 C4827 1.723 . S
C4837 C4836 1.396 . S
C4837 C4838 1.394 . S
C4838 C4808 1.723 . S
C4838 C4834 1.397 . S
C4838 C4837 1.394 . S
C4839 H4811 0.982 . S
C4839 H4815 0.979 . S
C4839 H4816 0.977 . S
C4839 C4836 1.453 . S
C4840 H4812 0.979 . S
C4840 H4813 0.980 . S
C4840 H4814 0.983 . S
C4840 C4836 1.684 . S
H4841 C4859 0.948 . S
H4842 C4800 0.948 . S
H4843 C4818 0.979 . S
H4844 C4818 0.980 . S
H4845 C4818 0.983 . S
H4846 C4817 0.982 . S
H4847 C4817 0.979 . S
H4848 C4817 0.977 . S
H4849 C4819 0.948 . S
H4850 C4821 0.947 . S
H4851 C4822 0.948 . S
H4852 C4828 0.982 . S
H4853 C4828 0.979 . S
H4854 C4828 0.977 . S
H4855 C4829 0.979 . S
H4856 C4829 0.980 . S
H4857 C4829 0.983 . S
H4858 C4802 0.947 . S
C4859 C4802 1.392 . S
C4859 C4803 1.419 . S
C4859 H4841 0.948 . S
C4860 C4861 1.391 . S
C4860 C4864 1.391 . S
C4860 H4902 0.948 . S
C4861 C4860 1.391 . S
C4861 C4862 1.391 . S
C4862 C4861 1.391 . S
C4862 H4918 0.947 . S
C4862 C4919 1.392 . S
C4863 C4864 1.391 . S
C4863 C4867 1.397 . S
C4863 C4919 1.419 . S
C4864 C4860 1.391 . S
C4864 C4863 1.391 . S
C4864 C4865 1.399 . S
C4865 C4864 1.399 . S
C4865 C4868 1.396 . S
C4865 C4877 1.453 . S
C4865 C4878 1.684 . S
H4866 C4890 0.948 . S
C4867 C4863 1.397 . S
C4867 C4868 1.394 . S
C4867 C4886 1.723 . S
C4868 C4865 1.396 . S
C4868 C4867 1.394 . S
C4868 C4898 1.723 . S
H4869 C4892 0.947 . S
H4870 C4893 0.948 . S
H4871 C4899 0.982 . S
H4872 C4900 0.979 . S
H4873 C4900 0.980 . S
H4874 C4900 0.983 . S
H4875 C4899 0.979 . S
H4876 C4899 0.977 . S
C4877 C4865 1.453 . S
C4877 H4906 0.982 . S
C4877 H4907 0.979 . S
C4877 H4908 0.977 . S
C4878 C4865 1.684 . S
C4878 H4903 0.979 . S
C4878 H4904 0.980 . S
C4878 H4905 0.983 . S
C4879 C4880 1.391 . S
C4879 C4884 1.391 . S
C4879 H4909 0.948 . S
C4880 C4879 1.391 . S
C4880 C4881 1.391 . S
C4881 C4880 1.391 . S
C4881 C4882 1.392 . S
C4881 H4910 0.947 . S
C4882 C4881 1.392 . S
C4882 C4883 1.419 . S
C4882 H4911 0.948 . S
C4883 C4882 1.419 . S
C4883 C4884 1.391 . S
C4883 C4887 1.397 . S
C4884 C4879 1.391 . S
C4884 C4883 1.391 . S
C4884 C4885 1.399 . S
C4885 C4884 1.399 . S
C4885 C4886 1.396 . S
C4885 C4888 1.453 . S
C4885 C4889 1.684 . S
C4886 C4867 1.723 . S
C4886 C4885 1.396 . S
C4886 C4887 1.394 . S
C4887 C4883 1.397 . S
C4887 C4886 1.394 . S
C4887 C4897 1.723 . S
C4888 C4885 1.453 . S
C4888 H4912 0.982 . S
C4888 H4913 0.979 . S
C4888 H4914 0.977 . S
C4889 C4885 1.684 . S
C4889 H4915 0.979 . S
C4889 H4916 0.980 . S
C4889 H4917 0.983 . S
C4890 H4866 0.948 . S
C4890 C4891 1.391 . S
C4890 C4895 1.391 . S
C4891 C4890 1.391 . S
C4891 C4892 1.391 . S
C4892 H4869 0.947 . S
C4892 C4891 1.391 . S
C4892 C4893 1.392 . S
C4893 H4870 0.948 . S
C4893 C4892 1.392 . S
C4893 C4894 1.419 . S
C4894 C4893 1.419 . S
C4894 C4895 1.391 . S
C4894 C4898 1.397 . S
C4895 C4890 1.391 . S
C4895 C4894 1.391 . S
C4895 C4896 1.399 . S
C4896 C4895 1.399 . S
C4896 C4897 1.396 . S
C4896 C4899 1.453 . S
C4896 C4900 1.684 . S
C4897 C4887 1.723 . S
C4897 C4896 1.396 . S
C4897 C4898 1.394 . S
C4898 C4868 1.723 . S
C4898 C4894 1.397 . S
C4898 C4897 1.394 . S
C4899 H4871 0.982 . S
C4899 H4875 0.979 . S
C4899 H4876 0.977 . S
C4899 C4896 1.453 . S
C4900 H4872 0.979 . S
C4900 H4873 0.980 . S
C4900 H4874 0.983 . S
C4900 C4896 1.684 . S
H4901 C4919 0.948 . S
H4902 C4860 0.948 . S
H4903 C4878 0.979 . S
H4904 C4878 0.980 . S
H4905 C4878 0.983 . S
H4906 C4877 0.982 . S
H4907 C4877 0.979 . S
H4908 C4877 0.977 . S
H4909 C4879 0.948 . S
H4910 C4881 0.947 . S
H4911 C4882 0.948 . S
H4912 C4888 0.982 . S
H4913 C4888 0.979 . S
H4914 C4888 0.977 . S
H4915 C4889 0.979 . S
H4916 C4889 0.980 . S
H4917 C4889 0.983 . S
H4918 C4862 0.947 . S
C4919 C4862 1.392 . S
C4919 C4863 1.419 . S
C4919 H4901 0.948 . S
C4920 C4921 1.391 . S
C4920 C4924 1.391 . S
C4920 H4962 0.948 . S
C4921 C4920 1.391 . S
C4921 C4922 1.391 . S
C4922 C4921 1.391 . S
C4922 H4978 0.947 . S
C4922 C4979 1.392 . S
C4923 C4924 1.391 . S
C4923 C4927 1.397 . S
C4923 C4979 1.419 . S
C4924 C4920 1.391 . S
C4924 C4923 1.391 . S
C4924 C4925 1.399 . S
C4925 C4924 1.399 . S
C4925 C4928 1.396 . S
C4925 C4937 1.453 . S
C4925 C4938 1.684 . S
H4926 C4950 0.948 . S
C4927 C4923 1.397 . S
C4927 C4928 1.394 . S
C4927 C4946 1.723 . S
C4928 C4925 1.396 . S
C4928 C4927 1.394 . S
C4928 C4958 1.723 . S
H4929 C4952 0.947 . S
H4930 C4953 0.948 . S
H4931 C4959 0.982 . S
H4932 C4960 0.979 . S
H4933 C4960 0.980 . S
H4934 C4960 0.983 . S
H4935 C4959 0.979 . S
H4936 C4959 0.977 . S
C4937 C4925 1.453 . S
C4937 H4966 0.982 . S
C4937 H4967 0.979 . S
C4937 H4968 0.977 . S
C4938 C4925 1.684 . S
C4938 H4963 0.979 . S
C4938 H4964 0.980 . S
C4938 H4965 0.983 . S
C4939 C4940 1.391 . S
C4939 C4944 1.391 . S
C4939 H4969 0.948 . S
C4940 C4939 1.391 . S
C4940 C4941 1.391 . S
C4941 C4940 1.391 . S
C4941 C4942 1.392 . S
C4941 H4970 0.947 . S
C4942 C4941 1.392 . S
C4942 C4943 1.419 . S
C4942 H4971 0.948 . S
C4943 C4942 1.419 . S
C4943 C4944 1.391 . S
C4943 C4947 1.397 . S
C4944 C4939 1.391 . S
C4944 C4943 1.391 . S
C4944 C4945 1.399 . S
C4945 C4944 1.399 . S
C4945 C4946 1.396 . S
C4945 C4948 1.453 . S
C4945 C4949 1.684 . S
C4946 C4927 1.723 . S
C4946 C4945 1.396 . S
C4946 C4947 1.394 . S
C4947 C4943 1.397 . S
C4947 C4946 1.394 . S
C4947 C4957 1.723 . S
C4948 C4945 1.453 . S
C4948 H4972 0.982 . S
C4948 H4973 0.979 . S
C4948 H4974 0.977 . S
C4949 C4945 1.684 . S
C4949 H4975 0.979 . S
C4949 H4976 0.980 . S
C4949 H4977 0.983 . S
C4950 H4926 0.948 . S
C4950 C4951 1.391 . S
C4950 C4955 1.391 . S
C4951 C4950 1.391 . S
C4951 C4952 1.391 . S
C4952 H4929 0.947 . S
C4952 C4951 1.391 . S
C4952 C4953 1.392 . S
C4953 H4930 0.948 . S
C4953 C4952 1.392 . S
C4953 C4954 1.419 . S
C4954 C4953 1.419 . S
C4954 C4955 1.391 . S
C4954 C4958 1.397 . S
C4955 C4950 1.391 . S
C4955 C4954 1.391 . S
C4955 C4956 1.399 . S
C4956 C4955 1.399 . S
C4956 C4957 1.396 . S
C4956 C4959 1.453 . S
C4956 C4960 1.684 . S
C4957 C4947 1.723 . S
C4957 C4956 1.396 . S
C4957 C4958 1.394 . S
C4958 C4928 1.723 . S
C4958 C4954 1.397 . S
C4958 C4957 1.394 . S
C4959 H4931 0.982 . S
C4959 H4935 0.979 . S
C4959 H4936 0.977 . S
C4959 C4956 1.453 . S
C4960 H4932 0.979 . S
C4960 H4933 0.980 . S
C4960 H4934 0.983 . S
C4960 C4956 1.684 . S
H4961 C4979 0.948 . S
H4962 C4920 0.948 . S
H4963 C4938 0.979 . S
H4964 C4938 0.980 . S
H4965 C4938 0.983 . S
H4966 C4937 0.982 . S
H4967 C4937 0.979 . S
H4968 C4937 0.977 . S
H4969 C4939 0.948 . S
H4970 C4941 0.947 . S
H4971 C4942 0.948 . S
H4972 C4948 0.982 . S
H4973 C4948 0.979 . S
H4974 C4948 0.977 . S
H4975 C4949 0.979 . S
H4976 C4949 0.980 . S
H4977 C4949 0.983 . S
H4978 C4922 0.947 . S
C4979 C4922 1.392 . S
C4979 C4923 1.419 . S
C4979 H4961 0.948 . S
C4980 C4981 1.391 . S
C4980 C4984 1.391 . S
C4980 H5022 0.948 . S
C4981 C4980 1.391 . S
C4981 C4982 1.391 . S
C4982 C4981 1.391 . S
C4982 H5038 0.947 . S
C4982 C5039 1.392 . S
C4983 C4984 1.391 . S
C4983 C4987 1.397 . S
C4983 C5039 1.419 . S
C4984 C4980 1.391 . S
C4984 C4983 1.391 . S
C4984 C4985 1.399 . S
C4985 C4984 1.399 . S
C4985 C4988 1.396 . S
C4985 C4997 1.453 . S
C4985 C4998 1.684 . S
H4986 C5010 0.948 . S
C4987 C4983 1.397 . S
C4987 C4988 1.394 . S
C4987 C5006 1.723 . S
C4988 C4985 1.396 . S
C4988 C4987 1.394 . S
C4988 C5018 1.723 . S
H4989 C5012 0.947 . S
H4990 C5013 0.948 . S
H4991 C5019 0.982 . S
H4992 C5020 0.979 . S
H4993 C5020 0.980 . S
H4994 C5020 0.983 . S
H4995 C5019 0.979 . S
H4996 C5019 0.977 . S
C4997 C4985 1.453 . S
C4997 H5026 0.982 . S
C4997 H5027 0.979 . S
C4997 H5028 0.977 . S
C4998 C4985 1.684 . S
C4998 H5023 0.979 . S
C4998 H5024 0.980 . S
C4998 H5025 0.983 . S
C4999 C5000 1.391 . S
C4999 C5004 1.391 . S
C4999 H5029 0.948 . S
C5000 C4999 1.391 . S
C5000 C5001 1.391 . S
C5001 C5000 1.391 . S
C5001 C5002 1.392 . S
C5001 H5030 0.947 . S
C5002 C5001 1.392 . S
C5002 C5003 1.419 . S
C5002 H5031 0.948 . S
C5003 C5002 1.419 . S
C5003 C5004 1.391 . S
C5003 C5007 1.397 . S
C5004 C4999 1.391 . S
C5004 C5003 1.391 . S
C5004 C5005 1.399 . S
C5005 C5004 1.399 . S
C5005 C5006 1.396 . S
C5005 C5008 1.453 . S
C5005 C5009 1.684 . S
C5006 C4987 1.723 . S
C5006 C5005 1.396 . S
C5006 C5007 1.394 . S
C5007 C5003 1.397 . S
C5007 C5006 1.394 . S
C5007 C5017 1.723 . S
C5008 C5005 1.453 . S
C5008 H5032 0.982 . S
C5008 H5033 0.979 . S
C5008 H5034 0.977 . S
C5009 C5005 1.684 . S
C5009 H5035 0.979 . S
C5009 H5036 0.980 . S
C5009 H5037 0.983 . S
C5010 H4986 0.948 . S
C5010 C5011 1.391 . S
C5010 C5015 1.391 . S
C5011 C5010 1.391 . S
C5011 C5012 1.391 . S
C5012 H4989 0.947 . S
C5012 C5011 1.391 . S
C5012 C5013 1.392 . S
C5013 H4990 0.948 . S
C5013 C5012 1.392 . S
C5013 C5014 1.419 . S
C5014 C5013 1.419 . S
C5014 C5015 1.391 . S
C5014 C5018 1.397 . S
C5015 C5010 1.391 . S
C5015 C5014 1.391 . S
C5015 C5016 1.399 . S
C5016 C5015 1.399 . S
C5016 C5017 1.396 . S
C5016 C5019 1.453 . S
C5016 C5020 1.684 . S
C5017 C5007 1.723 . S
C5017 C5016 1.396 . S
C5017 C5018 1.394 . S
C5018 C4988 1.723 . S
C5018 C5014 1.397 . S
C5018 C5017 1.394 . S
C5019 H4991 0.982 . S
C5019 H4995 0.979 . S
C5019 H4996 0.977 . S
C5019 C5016 1.453 . S
C5020 H4992 0.979 . S
C5020 H4993 0.980 . S
C5020 H4994 0.983 . S
C5020 C5016 1.684 . S
H5021 C5039 0.948 . S
H5022 C4980 0.948 . S
H5023 C4998 0.979 . S
H5024 C4998 0.980 . S
H5025 C4998 0.983 . S
H5026 C4997 0.982 . S
H5027 C4997 0.979 . S
H5028 C4997 0.977 . S
H5029 C4999 0.948 . S
H5030 C5001 0.947 . S
H5031 C5002 0.948 . S
H5032 C5008 0.982 . S
H5033 C5008 0.979 . S
H5034 C5008 0.977 . S
H5035 C5009 0.979 . S
H5036 C5009 0.980 . S
H5037 C5009 0.983 . S
H5038 C4982 0.947 . S
C5039 C4982 1.392 . S
C5039 C4983 1.419 . S
C5039 H5021 0.948 . S
C5040 C5041 1.391 . S
C5040 C5044 1.391 . S
C5040 H5082 0.948 . S
C5041 C5040 1.391 . S
C5041 C5042 1.391 . S
C5042 C5041 1.391 . S
C5042 H5098 0.947 . S
C5042 C5099 1.392 . S
C5043 C5044 1.391 . S
C5043 C5047 1.397 . S
C5043 C5099 1.419 . S
C5044 C5040 1.391 . S
C5044 C5043 1.391 . S
C5044 C5045 1.399 . S
C5045 C5044 1.399 . S
C5045 C5048 1.396 . S
C5045 C5057 1.453 . S
C5045 C5058 1.684 . S
H5046 C5070 0.948 . S
C5047 C5043 1.397 . S
C5047 C5048 1.394 . S
C5047 C5066 1.723 . S
C5048 C5045 1.396 . S
C5048 C5047 1.394 . S
C5048 C5078 1.723 . S
H5049 C5072 0.947 . S
H5050 C5073 0.948 . S
H5051 C5079 0.982 . S
H5052 C5080 0.979 . S
H5053 C5080 0.980 . S
H5054 C5080 0.983 . S
H5055 C5079 0.979 . S
H5056 C5079 0.977 . S
C5057 C5045 1.453 . S
C5057 H5086 0.982 . S
C5057 H5087 0.979 . S
C5057 H5088 0.977 . S
C5058 C5045 1.684 . S
C5058 H5083 0.979 . S
C5058 H5084 0.980 . S
C5058 H5085 0.983 . S
C5059 C5060 1.391 . S
C5059 C5064 1.391 . S
C5059 H5089 0.948 . S
C5060 C5059 1.391 . S
C5060 C5061 1.391 . S
C5061 C5060 1.391 . S
C5061 C5062 1.392 . S
C5061 H5090 0.947 . S
C5062 C5061 1.392 . S
C5062 C5063 1.419 . S
C5062 H5091 0.948 . S
C5063 C5062 1.419 . S
C5063 C5064 1.391 . S
C5063 C5067 1.397 . S
C5064 C5059 1.391 . S
C5064 C5063 1.391 . S
C5064 C5065 1.399 . S
C5065 C5064 1.399 . S
C5065 C5066 1.396 . S
C5065 C5068 1.453 . S
C5065 C5069 1.684 . S
C5066 C5047 1.723 . S
C5066 C5065 1.396 . S
C5066 C5067 1.394 . S
C5067 C5063 1.397 . S
C5067 C5066 1.394 . S
C5067 C5077 1.723 . S
C5068 C5065 1.453 . S
C5068 H5092 0.982 . S
C5068 H5093 0.979 . S
C5068 H5094 0.977 . S
C5069 C5065 1.684 . S
C5069 H5095 0.979 . S
C5069 H5096 0.980 . S
C5069 H5097 0.983 . S
C5070 H5046 0.948 . S
C5070 C5071 1.391 . S
C5070 C5075 1.391 . S
C5071 C5070 1.391 . S
C5071 C5072 1.391 . S
C5072 H5049 0.947 . S
C5072 C5071 1.391 . S
C5072 C5073 1.392 . S
C5073 H5050 0.948 . S
C5073 C5072 1.392 . S
C5073 C5074 1.419 . S
C5074 C5073 1.419 . S
C5074 C5075 1.391 . S
C5074 C5078 1.397 . S
C5075 C5070 1.391 . S
C5075 C5074 1.391 . S
C5075 C5076 1.399 . S
C5076 C5075 1.399 . S
C5076 C5077 1.396 . S
C5076 C5079 1.453 . S
C5076 C5080 1.684 . S
C5077 C5067 1.723 . S
C5077 C5076 1.396 . S
C5077 C5078 1.394 . S
C5078 C5048 1.723 . S
C5078 C5074 1.397 . S
C5078 C5077 1.394 . S
C5079 H5051 0.982 . S
C5079 H5055 0.979 . S
C5079 H5056 0.977 . S
C5079 C5076 1.453 . S
C5080 H5052 0.979 . S
C5080 H5053 0.980 . S
C5080 H5054 0.983 . S
C5080 C5076 1.684 . S
H5081 C5099 0.948 . S
H5082 C5040 0.948 . S
H5083 C5058 0.979 . S
H5084 C5058 0.980 . S
H5085 C5058 0.983 . S
H5086 C5057 0.982 . S
H5087 C5057 0.979 . S
H5088 C5057 0.977 . S
H5089 C5059 0.948 . S
H5090 C5061 0.947 . S
H5091 C5062 0.948 . S
H5092 C5068 0.982 . S
H5093 C5068 0.979 . S
H5094 C5068 0.977 . S
H5095 C5069 0.979 . S
H5096 C5069 0.980 . S
H5097 C5069 0.983 . S
H5098 C5042 0.947 . S
C5099 C5042 1.392 . S
C5099 C5043 1.419 . S
C5099 H5081 0.948 . S
C5100 C5101 1.391 . S
C5100 C5104 1.391 . S
C5100 H5142 0.948 . S
C5101 C5100 1.391 . S
C5101 C5102 1.391 . S
C5102 C5101 1.391 . S
C5102 H5158 0.947 . S
C5102 C5159 1.392 . S
C5103 C5104 1.391 . S
C5103 C5107 1.397 . S
C5103 C5159 1.419 . S
C5104 C5100 1.391 . S
C5104 C5103 1.391 . S
C5104 C5105 1.399 . S
C5105 C5104 1.399 . S
C5105 C5108 1.396 . S
C5105 C5117 1.453 . S
C5105 C5118 1.684 . S
H5106 C5130 0.948 . S
C5107 C5103 1.397 . S
C5107 C5108 1.394 . S
C5107 C5126 1.723 . S
C5108 C5105 1.396 . S
C5108 C5107 1.394 . S
C5108 C5138 1.723 . S
H5109 C5132 0.947 . S
H5110 C5133 0.948 . S
H5111 C5139 0.982 . S
H5112 C5140 0.979 . S
H5113 C5140 0.980 . S
H5114 C5140 0.983 . S
H5115 C5139 0.979 . S
H5116 C5139 0.977 . S
C5117 C5105 1.453 . S
C5117 H5146 0.982 . S
C5117 H5147 0.979 . S
C5117 H5148 0.977 . S
C5118 C5105 1.684 . S
C5118 H5143 0.979 . S
C5118 H5144 0.980 . S
C5118 H5145 0.983 . S
C5119 C5120 1.391 . S
C5119 C5124 1.391 . S
C5119 H5149 0.948 . S
C5120 C5119 1.391 . S
C5120 C5121 1.391 . S
C5121 C5120 1.391 . S
C5121 C5122 1.392 . S
C5121 H5150 0.947 . S
C5122 C5121 1.392 . S
C5122 C5123 1.419 . S
C5122 H5151 0.948 . S
C5123 C5122 1.419 . S
C5123 C5124 1.391 . S
C5123 C5127 1.397 . S
C5124 C5119 1.391 . S
C5124 C5123 1.391 . S
C5124 C5125 1.399 . S
C5125 C5124 1.399 . S
C5125 C5126 1.396 . S
C5125 C5128 1.453 . S
C5125 C5129 1.684 . S
C5126 C5107 1.723 . S
C5126 C5125 1.396 . S
C5126 C5127 1.394 . S
C5127 C5123 1.397 . S
C5127 C5126 1.394 . S
C5127 C5137 1.723 . S
C5128 C5125 1.453 . S
C5128 H5152 0.982 . S
C5128 H5153 0.979 . S
C5128 H5154 0.977 . S
C5129 C5125 1.684 . S
C5129 H5155 0.979 . S
C5129 H5156 0.980 . S
C5129 H5157 0.983 . S
C5130 H5106 0.948 . S
C5130 C5131 1.391 . S
C5130 C5135 1.391 . S
C5131 C5130 1.391 . S
C5131 C5132 1.391 . S
C5132 H5109 0.947 . S
C5132 C5131 1.391 . S
C5132 C5133 1.392 . S
C5133 H5110 0.948 . S
C5133 C5132 1.392 . S
C5133 C5134 1.419 . S
C5134 C5133 1.419 . S
C5134 C5135 1.391 . S
C5134 C5138 1.397 . S
C5135 C5130 1.391 . S
C5135 C5134 1.391 . S
C5135 C5136 1.399 . S
C5136 C5135 1.399 . S
C5136 C5137 1.396 . S
C5136 C5139 1.453 . S
C5136 C5140 1.684 . S
C5137 C5127 1.723 . S
C5137 C5136 1.396 . S
C5137 C5138 1.394 . S
C5138 C5108 1.723 . S
C5138 C5134 1.397 . S
C5138 C5137 1.394 . S
C5139 H5111 0.982 . S
C5139 H5115 0.979 . S
C5139 H5116 0.977 . S
C5139 C5136 1.453 . S
C5140 H5112 0.979 . S
C5140 H5113 0.980 . S
C5140 H5114 0.983 . S
C5140 C5136 1.684 . S
H5141 C5159 0.948 . S
H5142 C5100 0.948 . S
H5143 C5118 0.979 . S
H5144 C5118 0.980 . S
H5145 C5118 0.983 . S
H5146 C5117 0.982 . S
H5147 C5117 0.979 . S
H5148 C5117 0.977 . S
H5149 C5119 0.948 . S
H5150 C5121 0.947 . S
H5151 C5122 0.948 . S
H5152 C5128 0.982 . S
H5153 C5128 0.979 . S
H5154 C5128 0.977 . S
H5155 C5129 0.979 . S
H5156 C5129 0.980 . S
H5157 C5129 0.983 . S
H5158 C5102 0.947 . S
C5159 C5102 1.392 . S
C5159 C5103 1.419 . S
C5159 H5141 0.948 . S
C5160 C5161 1.391 . S
C5160 C5164 1.391 . S
C5160 H5202 0.948 . S
C5161 C5160 1.391 . S
C5161 C5162 1.391 . S
C5162 C5161 1.391 . S
C5162 H5218 0.947 . S
C5162 C5219 1.392 . S
C5163 C5164 1.391 . S
C5163 C5167 1.397 . S
C5163 C5219 1.419 . S
C5164 C5160 1.391 . S
C5164 C5163 1.391 . S
C5164 C5165 1.399 . S
C5165 C5164 1.399 . S
C5165 C5168 1.396 . S
C5165 C5177 1.453 . S
C5165 C5178 1.684 . S
H5166 C5190 0.948 . S
C5167 C5163 1.397 . S
C5167 C5168 1.394 . S
C5167 C5186 1.723 . S
C5168 C5165 1.396 . S
C5168 C5167 1.394 . S
C5168 C5198 1.723 . S
H5169 C5192 0.947 . S
H5170 C5193 0.948 . S
H5171 C5199 0.982 . S
H5172 C5200 0.979 . S
H5173 C5200 0.980 . S
H5174 C5200 0.983 . S
H5175 C5199 0.979 . S
H5176 C5199 0.977 . S
C5177 C5165 1.453 . S
C5177 H5206 0.982 . S
C5177 H5207 0.979 . S
C5177 H5208 0.977 . S
C5178 C5165 1.684 . S
C5178 H5203 0.979 . S
C5178 H5204 0.980 . S
C5178 H5205 0.983 . S
C5179 C5180 1.391 . S
C5179 C5184 1.391 . S
C5179 H5209 0.948 . S
C5180 C5179 1.391 . S
C5180 C5181 1.391 . S
C5181 C5180 1.391 . S
C5181 C5182 1.392 . S
C5181 H5210 0.947 . S
C5182 C5181 1.392 . S
C5182 C5183 1.419 . S
C5182 H5211 0.948 . S
C5183 C5182 1.419 . S
C5183 C5184 1.391 . S
C5183 C5187 1.397 . S
C5184 C5179 1.391 . S
C5184 C5183 1.391 . S
C5184 C5185 1.399 . S
C5185 C5184 1.399 . S
C5185 C5186 1.396 . S
C5185 C5188 1.453 . S
C5185 C5189 1.684 . S
C5186 C5167 1.723 . S
C5186 C5185 1.396 . S
C5186 C5187 1.394 . S
C5187 C5183 1.397 . S
C5187 C5186 1.394 . S
C5187 C5197 1.723 . S
C5188 C5185 1.453 . S
C5188 H5212 0.982 . S
C5188 H5213 0.979 . S
C5188 H5214 0.977 . S
C5189 C5185 1.684 . S
C5189 H5215 0.979 . S
C5189 H5216 0.980 . S
C5189 H5217 0.983 . S
C5190 H5166 0.948 . S
C5190 C5191 1.391 . S
C5190 C5195 1.391 . S
C5191 C5190 1.391 . S
C5191 C5192 1.391 . S
C5192 H5169 0.947 . S
C5192 C5191 1.391 . S
C5192 C5193 1.392 . S
C5193 H5170 0.948 . S
C5193 C5192 1.392 . S
C5193 C5194 1.419 . S
C5194 C5193 1.419 . S
C5194 C5195 1.391 . S
C5194 C5198 1.397 . S
C5195 C5190 1.391 . S
C5195 C5194 1.391 . S
C5195 C5196 1.399 . S
C5196 C5195 1.399 . S
C5196 C5197 1.396 . S
C5196 C5199 1.453 . S
C5196 C5200 1.684 . S
C5197 C5187 1.723 . S
C5197 C5196 1.396 . S
C5197 C5198 1.394 . S
C5198 C5168 1.723 . S
C5198 C5194 1.397 . S
C5198 C5197 1.394 . S
C5199 H5171 0.982 . S
C5199 H5175 0.979 . S
C5199 H5176 0.977 . S
C5199 C5196 1.453 . S
C5200 H5172 0.979 . S
C5200 H5173 0.980 . S
C5200 H5174 0.983 . S
C5200 C5196 1.684 . S
H5201 C5219 0.948 . S
H5202 C5160 0.948 . S
H5203 C5178 0.979 . S
H5204 C5178 0.980 . S
H5205 C5178 0.983 . S
H5206 C5177 0.982 . S
H5207 C5177 0.979 . S
H5208 C5177 0.977 . S
H5209 C5179 0.948 . S
H5210 C5181 0.947 . S
H5211 C5182 0.948 . S
H5212 C5188 0.982 . S
H5213 C5188 0.979 . S
H5214 C5188 0.977 . S
H5215 C5189 0.979 . S
H5216 C5189 0.980 . S
H5217 C5189 0.983 . S
H5218 C5162 0.947 . S
C5219 C5162 1.392 . S
C5219 C5163 1.419 . S
C5219 H5201 0.948 . S
C5220 C5221 1.391 . S
C5220 C5224 1.391 . S
C5220 H5262 0.948 . S
C5221 C5220 1.391 . S
C5221 C5222 1.391 . S
C5222 C5221 1.391 . S
C5222 H5278 0.947 . S
C5222 C5279 1.392 . S
C5223 C5224 1.391 . S
C5223 C5227 1.397 . S
C5223 C5279 1.419 . S
C5224 C5220 1.391 . S
C5224 C5223 1.391 . S
C5224 C5225 1.399 . S
C5225 C5224 1.399 . S
C5225 C5228 1.396 . S
C5225 C5237 1.453 . S
C5225 C5238 1.684 . S
H5226 C5250 0.948 . S
C5227 C5223 1.397 . S
C5227 C5228 1.394 . S
C5227 C5246 1.723 . S
C5228 C5225 1.396 . S
C5228 C5227 1.394 . S
C5228 C5258 1.723 . S
H5229 C5252 0.947 . S
H5230 C5253 0.948 . S
H5231 C5259 0.982 . S
H5232 C5260 0.979 . S
H5233 C5260 0.980 . S
H5234 C5260 0.983 . S
H5235 C5259 0.979 . S
H5236 C5259 0.977 . S
C5237 C5225 1.453 . S
C5237 H5266 0.982 . S
C5237 H5267 0.979 . S
C5237 H5268 0.977 . S
C5238 C5225 1.684 . S
C5238 H5263 0.979 . S
C5238 H5264 0.980 . S
C5238 H5265 0.983 . S
C5239 C5240 1.391 . S
C5239 C5244 1.391 . S
C5239 H5269 0.948 . S
C5240 C5239 1.391 . S
C5240 C5241 1.391 . S
C5241 C5240 1.391 . S
C5241 C5242 1.392 . S
C5241 H5270 0.947 . S
C5242 C5241 1.392 . S
C5242 C5243 1.419 . S
C5242 H5271 0.948 . S
C5243 C5242 1.419 . S
C5243 C5244 1.391 . S
C5243 C5247 1.397 . S
C5244 C5239 1.391 . S
C5244 C5243 1.391 . S
C5244 C5245 1.399 . S
C5245 C5244 1.399 . S
C5245 C5246 1.396 . S
C5245 C5248 1.453 . S
C5245 C5249 1.684 . S
C5246 C5227 1.723 . S
C5246 C5245 1.396 . S
C5246 C5247 1.394 . S
C5247 C5243 1.397 . S
C5247 C5246 1.394 . S
C5247 C5257 1.723 . S
C5248 C5245 1.453 . S
C5248 H5272 0.982 . S
C5248 H5273 0.979 . S
C5248 H5274 0.977 . S
C5249 C5245 1.684 . S
C5249 H5275 0.979 . S
C5249 H5276 0.980 . S
C5249 H5277 0.983 . S
C5250 H5226 0.948 . S
C5250 C5251 1.391 . S
C5250 C5255 1.391 . S
C5251 C5250 1.391 . S
C5251 C5252 1.391 . S
C5252 H5229 0.947 . S
C5252 C5251 1.391 . S
C5252 C5253 1.392 . S
C5253 H5230 0.948 . S
C5253 C5252 1.392 . S
C5253 C5254 1.419 . S
C5254 C5253 1.419 . S
C5254 C5255 1.391 . S
C5254 C5258 1.397 . S
C5255 C5250 1.391 . S
C5255 C5254 1.391 . S
C5255 C5256 1.399 . S
C5256 C5255 1.399 . S
C5256 C5257 1.396 . S
C5256 C5259 1.453 . S
C5256 C5260 1.684 . S
C5257 C5247 1.723 . S
C5257 C5256 1.396 . S
C5257 C5258 1.394 . S
C5258 C5228 1.723 . S
C5258 C5254 1.397 . S
C5258 C5257 1.394 . S
C5259 H5231 0.982 . S
C5259 H5235 0.979 . S
C5259 H5236 0.977 . S
C5259 C5256 1.453 . S
C5260 H5232 0.979 . S
C5260 H5233 0.980 . S
C5260 H5234 0.983 . S
C5260 C5256 1.684 . S
H5261 C5279 0.948 . S
H5262 C5220 0.948 . S
H5263 C5238 0.979 . S
H5264 C5238 0.980 . S
H5265 C5238 0.983 . S
H5266 C5237 0.982 . S
H5267 C5237 0.979 . S
H5268 C5237 0.977 . S
H5269 C5239 0.948 . S
H5270 C5241 0.947 . S
H5271 C5242 0.948 . S
H5272 C5248 0.982 . S
H5273 C5248 0.979 . S
H5274 C5248 0.977 . S
H5275 C5249 0.979 . S
H5276 C5249 0.980 . S
H5277 C5249 0.983 . S
H5278 C5222 0.947 . S
C5279 C5222 1.392 . S
C5279 C5223 1.419 . S
C5279 H5261 0.948 . S
C5280 C5281 1.391 . S
C5280 C5284 1.391 . S
C5280 H5322 0.948 . S
C5281 C5280 1.391 . S
C5281 C5282 1.391 . S
C5282 C5281 1.391 . S
C5282 H5338 0.947 . S
C5282 C5339 1.392 . S
C5283 C5284 1.391 . S
C5283 C5287 1.397 . S
C5283 C5339 1.419 . S
C5284 C5280 1.391 . S
C5284 C5283 1.391 . S
C5284 C5285 1.399 . S
C5285 C5284 1.399 . S
C5285 C5288 1.396 . S
C5285 C5297 1.453 . S
C5285 C5298 1.684 . S
H5286 C5310 0.948 . S
C5287 C5283 1.397 . S
C5287 C5288 1.394 . S
C5287 C5306 1.723 . S
C5288 C5285 1.396 . S
C5288 C5287 1.394 . S
C5288 C5318 1.723 . S
H5289 C5312 0.947 . S
H5290 C5313 0.948 . S
H5291 C5319 0.982 . S
H5292 C5320 0.979 . S
H5293 C5320 0.980 . S
H5294 C5320 0.983 . S
H5295 C5319 0.979 . S
H5296 C5319 0.977 . S
C5297 C5285 1.453 . S
C5297 H5326 0.982 . S
C5297 H5327 0.979 . S
C5297 H5328 0.977 . S
C5298 C5285 1.684 . S
C5298 H5323 0.979 . S
C5298 H5324 0.980 . S
C5298 H5325 0.983 . S
C5299 C5300 1.391 . S
C5299 C5304 1.391 . S
C5299 H5329 0.948 . S
C5300 C5299 1.391 . S
C5300 C5301 1.391 . S
C5301 C5300 1.391 . S
C5301 C5302 1.392 . S
C5301 H5330 0.947 . S
C5302 C5301 1.392 . S
C5302 C5303 1.419 . S
C5302 H5331 0.948 . S
C5303 C5302 1.419 . S
C5303 C5304 1.391 . S
C5303 C5307 1.397 . S
C5304 C5299 1.391 . S
C5304 C5303 1.391 . S
C5304 C5305 1.399 . S
C5305 C5304 1.399 . S
C5305 C5306 1.396 . S
C5305 C5308 1.453 . S
C5305 C5309 1.684 . S
C5306 C5287 1.723 . S
C5306 C5305 1.396 . S
C5306 C5307 1.394 . S
C5307 C5303 1.397 . S
C5307 C5306 1.394 . S
C5307 C5317 1.723 . S
C5308 C5305 1.453 . S
C5308 H5332 0.982 . S
C5308 H5333 0.979 . S
C5308 H5334 0.977 . S
C5309 C5305 1.684 . S
C5309 H5335 0.979 . S
C5309 H5336 0.980 . S
C5309 H5337 0.983 . S
C5310 H5286 0.948 . S
C5310 C5311 1.391 . S
C5310 C5315 1.391 . S
C5311 C5310 1.391 . S
C5311 C5312 1.391 . S
C5312 H5289 0.947 . S
C5312 C5311 1.391 . S
C5312 C5313 1.392 . S
C5313 H5290 0.948 . S
C5313 C5312 1.392 . S
C5313 C5314 1.419 . S
C5314 C5313 1.419 . S
C5314 C5315 1.391 . S
C5314 C5318 1.397 . S
C5315 C5310 1.391 . S
C5315 C5314 1.391 . S
C5315 C5316 1.399 . S
C5316 C5315 1.399 . S
C5316 C5317 1.396 . S
C5316 C5319 1.453 . S
C5316 C5320 1.684 . S
C5317 C5307 1.723 . S
C5317 C5316 1.396 . S
C5317 C5318 1.394 . S
C5318 C5288 1.723 . S
C5318 C5314 1.397 . S
C5318 C5317 1.394 . S
C5319 H5291 0.982 . S
C5319 H5295 0.979 . S
C5319 H5296 0.977 . S
C5319 C5316 1.453 . S
C5320 H5292 0.979 . S
C5320 H5293 0.980 . S
C5320 H5294 0.983 . S
C5320 C5316 1.684 . S
H5321 C5339 0.948 . S
H5322 C5280 0.948 . S
H5323 C5298 0.979 . S
H5324 C5298 0.980 . S
H5325 C5298 0.983 . S
H5326 C5297 0.982 . S
H5327 C5297 0.979 . S
H5328 C5297 0.977 . S
H5329 C5299 0.948 . S
H5330 C5301 0.947 . S
H5331 C5302 0.948 . S
H5332 C5308 0.982 . S
H5333 C5308 0.979 . S
H5334 C5308 0.977 . S
H5335 C5309 0.979 . S
H5336 C5309 0.980 . S
H5337 C5309 0.983 . S
H5338 C5282 0.947 . S
C5339 C5282 1.392 . S
C5339 C5283 1.419 . S
C5339 H5321 0.948 . S
C5340 C5341 1.391 . S
C5340 C5344 1.391 . S
C5340 H5382 0.948 . S
C5341 C5340 1.391 . S
C5341 C5342 1.391 . S
C5342 C5341 1.391 . S
C5342 H5398 0.947 . S
C5342 C5399 1.392 . S
C5343 C5344 1.391 . S
C5343 C5347 1.397 . S
C5343 C5399 1.419 . S
C5344 C5340 1.391 . S
C5344 C5343 1.391 . S
C5344 C5345 1.399 . S
C5345 C5344 1.399 . S
C5345 C5348 1.396 . S
C5345 C5357 1.453 . S
C5345 C5358 1.684 . S
H5346 C5370 0.948 . S
C5347 C5343 1.397 . S
C5347 C5348 1.394 . S
C5347 C5366 1.723 . S
C5348 C5345 1.396 . S
C5348 C5347 1.394 . S
C5348 C5378 1.723 . S
H5349 C5372 0.947 . S
H5350 C5373 0.948 . S
H5351 C5379 0.982 . S
H5352 C5380 0.979 . S
H5353 C5380 0.980 . S
H5354 C5380 0.983 . S
H5355 C5379 0.979 . S
H5356 C5379 0.977 . S
C5357 C5345 1.453 . S
C5357 H5386 0.982 . S
C5357 H5387 0.979 . S
C5357 H5388 0.977 . S
C5358 C5345 1.684 . S
C5358 H5383 0.979 . S
C5358 H5384 0.980 . S
C5358 H5385 0.983 . S
C5359 C5360 1.391 . S
C5359 C5364 1.391 1_455 S
C5359 H5389 0.948 . S
C5360 C5359 1.391 . S
C5360 C5361 1.391 . S
C5361 C5360 1.391 . S
C5361 C5362 1.392 1_455 S
C5361 H5390 0.947 . S
C5362 C5361 1.392 1_655 S
C5362 C5363 1.419 . S
C5362 H5391 0.948 . S
C5363 C5362 1.419 . S
C5363 C5364 1.391 . S
C5363 C5367 1.397 . S
C5364 C5359 1.391 1_655 S
C5364 C5363 1.391 . S
C5364 C5365 1.399 . S
C5365 C5364 1.399 . S
C5365 C5366 1.396 . S
C5365 C5368 1.453 . S
C5365 C5369 1.684 . S
C5366 C5347 1.723 . S
C5366 C5365 1.396 . S
C5366 C5367 1.394 . S
C5367 C5363 1.397 . S
C5367 C5366 1.394 . S
C5367 C5377 1.723 . S
C5368 C5365 1.453 . S
C5368 H5392 0.982 . S
C5368 H5393 0.979 . S
C5368 H5394 0.977 . S
C5369 C5365 1.684 . S
C5369 H5395 0.979 . S
C5369 H5396 0.980 . S
C5369 H5397 0.983 . S
C5370 H5346 0.948 . S
C5370 C5371 1.391 . S
C5370 C5375 1.391 . S
C5371 C5370 1.391 . S
C5371 C5372 1.391 . S
C5372 H5349 0.947 . S
C5372 C5371 1.391 . S
C5372 C5373 1.392 . S
C5373 H5350 0.948 . S
C5373 C5372 1.392 . S
C5373 C5374 1.419 . S
C5374 C5373 1.419 . S
C5374 C5375 1.391 . S
C5374 C5378 1.397 . S
C5375 C5370 1.391 . S
C5375 C5374 1.391 . S
C5375 C5376 1.399 . S
C5376 C5375 1.399 . S
C5376 C5377 1.396 . S
C5376 C5379 1.453 . S
C5376 C5380 1.684 . S
C5377 C5367 1.723 . S
C5377 C5376 1.396 . S
C5377 C5378 1.394 . S
C5378 C5348 1.723 . S
C5378 C5374 1.397 . S
C5378 C5377 1.394 . S
C5379 H5351 0.982 . S
C5379 H5355 0.979 . S
C5379 H5356 0.977 . S
C5379 C5376 1.453 . S
C5380 H5352 0.979 . S
C5380 H5353 0.980 . S
C5380 H5354 0.983 . S
C5380 C5376 1.684 . S
H5381 C5399 0.948 . S
H5382 C5340 0.948 . S
H5383 C5358 0.979 . S
H5384 C5358 0.980 . S
H5385 C5358 0.983 . S
H5386 C5357 0.982 . S
H5387 C5357 0.979 . S
H5388 C5357 0.977 . S
H5389 C5359 0.948 . S
H5390 C5361 0.947 . S
H5391 C5362 0.948 . S
H5392 C5368 0.982 . S
H5393 C5368 0.979 . S
H5394 C5368 0.977 . S
H5395 C5369 0.979 . S
H5396 C5369 0.980 . S
H5397 C5369 0.983 . S
H5398 C5342 0.947 . S
C5399 C5342 1.392 . S
C5399 C5343 1.419 . S
C5399 H5381 0.948 . S
C5400 C5401 1.391 . S
C5400 C5404 1.391 . S
C5400 H5442 0.948 . S
C5401 C5400 1.391 . S
C5401 C5402 1.391 . S
C5402 C5401 1.391 . S
C5402 H5458 0.947 . S
C5402 C5459 1.392 . S
C5403 C5404 1.391 . S
C5403 C5407 1.397 . S
C5403 C5459 1.419 . S
C5404 C5400 1.391 . S
C5404 C5403 1.391 . S
C5404 C5405 1.399 . S
C5405 C5404 1.399 . S
C5405 C5408 1.396 . S
C5405 C5417 1.453 . S
C5405 C5418 1.684 . S
H5406 C5430 0.948 . S
C5407 C5403 1.397 . S
C5407 C5408 1.394 . S
C5407 C5426 1.723 . S
C5408 C5405 1.396 . S
C5408 C5407 1.394 . S
C5408 C5438 1.723 . S
H5409 C5432 0.947 . S
H5410 C5433 0.948 . S
H5411 C5439 0.982 . S
H5412 C5440 0.979 . S
H5413 C5440 0.980 . S
H5414 C5440 0.983 . S
H5415 C5439 0.979 . S
H5416 C5439 0.977 . S
C5417 C5405 1.453 . S
C5417 H5446 0.982 . S
C5417 H5447 0.979 . S
C5417 H5448 0.977 . S
C5418 C5405 1.684 . S
C5418 H5443 0.979 . S
C5418 H5444 0.980 . S
C5418 H5445 0.983 . S
C5419 C5420 1.391 . S
C5419 C5424 1.391 . S
C5419 H5449 0.948 . S
C5420 C5419 1.391 . S
C5420 C5421 1.391 . S
C5421 C5420 1.391 . S
C5421 C5422 1.392 . S
C5421 H5450 0.947 . S
C5422 C5421 1.392 . S
C5422 C5423 1.419 . S
C5422 H5451 0.948 . S
C5423 C5422 1.419 . S
C5423 C5424 1.391 . S
C5423 C5427 1.397 . S
C5424 C5419 1.391 . S
C5424 C5423 1.391 . S
C5424 C5425 1.399 . S
C5425 C5424 1.399 . S
C5425 C5426 1.396 . S
C5425 C5428 1.453 . S
C5425 C5429 1.684 . S
C5426 C5407 1.723 . S
C5426 C5425 1.396 . S
C5426 C5427 1.394 . S
C5427 C5423 1.397 . S
C5427 C5426 1.394 . S
C5427 C5437 1.723 . S
C5428 C5425 1.453 . S
C5428 H5452 0.982 . S
C5428 H5453 0.979 . S
C5428 H5454 0.977 . S
C5429 C5425 1.684 . S
C5429 H5455 0.979 . S
C5429 H5456 0.980 . S
C5429 H5457 0.983 . S
C5430 H5406 0.948 . S
C5430 C5431 1.391 . S
C5430 C5435 1.391 . S
C5431 C5430 1.391 . S
C5431 C5432 1.391 . S
C5432 H5409 0.947 . S
C5432 C5431 1.391 . S
C5432 C5433 1.392 . S
C5433 H5410 0.948 . S
C5433 C5432 1.392 . S
C5433 C5434 1.419 . S
C5434 C5433 1.419 . S
C5434 C5435 1.391 . S
C5434 C5438 1.397 . S
C5435 C5430 1.391 . S
C5435 C5434 1.391 . S
C5435 C5436 1.399 . S
C5436 C5435 1.399 . S
C5436 C5437 1.396 . S
C5436 C5439 1.453 . S
C5436 C5440 1.684 . S
C5437 C5427 1.723 . S
C5437 C5436 1.396 . S
C5437 C5438 1.394 . S
C5438 C5408 1.723 . S
C5438 C5434 1.397 . S
C5438 C5437 1.394 . S
C5439 H5411 0.982 . S
C5439 H5415 0.979 . S
C5439 H5416 0.977 . S
C5439 C5436 1.453 . S
C5440 H5412 0.979 . S
C5440 H5413 0.980 . S
C5440 H5414 0.983 . S
C5440 C5436 1.684 . S
H5441 C5459 0.948 . S
H5442 C5400 0.948 . S
H5443 C5418 0.979 . S
H5444 C5418 0.980 . S
H5445 C5418 0.983 . S
H5446 C5417 0.982 . S
H5447 C5417 0.979 . S
H5448 C5417 0.977 . S
H5449 C5419 0.948 . S
H5450 C5421 0.947 . S
H5451 C5422 0.948 . S
H5452 C5428 0.982 . S
H5453 C5428 0.979 . S
H5454 C5428 0.977 . S
H5455 C5429 0.979 . S
H5456 C5429 0.980 . S
H5457 C5429 0.983 . S
H5458 C5402 0.947 . S
C5459 C5402 1.392 . S
C5459 C5403 1.419 . S
C5459 H5441 0.948 . S
C5460 C5461 1.391 . S
C5460 C5464 1.391 . S
C5460 H5502 0.948 . S
C5461 C5460 1.391 . S
C5461 C5462 1.391 . S
C5462 C5461 1.391 . S
C5462 H5518 0.947 . S
C5462 C5519 1.392 . S
C5463 C5464 1.391 . S
C5463 C5467 1.397 . S
C5463 C5519 1.419 . S
C5464 C5460 1.391 . S
C5464 C5463 1.391 . S
C5464 C5465 1.399 . S
C5465 C5464 1.399 . S
C5465 C5468 1.396 . S
C5465 C5477 1.453 . S
C5465 C5478 1.684 . S
H5466 C5490 0.948 . S
C5467 C5463 1.397 . S
C5467 C5468 1.394 . S
C5467 C5486 1.723 . S
C5468 C5465 1.396 . S
C5468 C5467 1.394 . S
C5468 C5498 1.723 . S
H5469 C5492 0.947 . S
H5470 C5493 0.948 . S
H5471 C5499 0.982 . S
H5472 C5500 0.979 . S
H5473 C5500 0.980 . S
H5474 C5500 0.983 . S
H5475 C5499 0.979 . S
H5476 C5499 0.977 . S
C5477 C5465 1.453 . S
C5477 H5506 0.982 . S
C5477 H5507 0.979 . S
C5477 H5508 0.977 . S
C5478 C5465 1.684 . S
C5478 H5503 0.979 . S
C5478 H5504 0.980 . S
C5478 H5505 0.983 . S
C5479 C5480 1.391 . S
C5479 C5484 1.391 . S
C5479 H5509 0.948 . S
C5480 C5479 1.391 . S
C5480 C5481 1.391 . S
C5481 C5480 1.391 . S
C5481 C5482 1.392 . S
C5481 H5510 0.947 . S
C5482 C5481 1.392 . S
C5482 C5483 1.419 . S
C5482 H5511 0.948 . S
C5483 C5482 1.419 . S
C5483 C5484 1.391 . S
C5483 C5487 1.397 . S
C5484 C5479 1.391 . S
C5484 C5483 1.391 . S
C5484 C5485 1.399 . S
C5485 C5484 1.399 . S
C5485 C5486 1.396 . S
C5485 C5488 1.453 . S
C5485 C5489 1.684 . S
C5486 C5467 1.723 . S
C5486 C5485 1.396 . S
C5486 C5487 1.394 . S
C5487 C5483 1.397 . S
C5487 C5486 1.394 . S
C5487 C5497 1.723 . S
C5488 C5485 1.453 . S
C5488 H5512 0.982 . S
C5488 H5513 0.979 . S
C5488 H5514 0.977 . S
C5489 C5485 1.684 . S
C5489 H5515 0.979 . S
C5489 H5516 0.980 . S
C5489 H5517 0.983 . S
C5490 H5466 0.948 . S
C5490 C5491 1.391 . S
C5490 C5495 1.391 . S
C5491 C5490 1.391 . S
C5491 C5492 1.391 . S
C5492 H5469 0.947 . S
C5492 C5491 1.391 . S
C5492 C5493 1.392 . S
C5493 H5470 0.948 . S
C5493 C5492 1.392 . S
C5493 C5494 1.419 . S
C5494 C5493 1.419 . S
C5494 C5495 1.391 . S
C5494 C5498 1.397 . S
C5495 C5490 1.391 . S
C5495 C5494 1.391 . S
C5495 C5496 1.399 . S
C5496 C5495 1.399 . S
C5496 C5497 1.396 . S
C5496 C5499 1.453 . S
C5496 C5500 1.684 . S
C5497 C5487 1.723 . S
C5497 C5496 1.396 . S
C5497 C5498 1.394 . S
C5498 C5468 1.723 . S
C5498 C5494 1.397 . S
C5498 C5497 1.394 . S
C5499 H5471 0.982 . S
C5499 H5475 0.979 . S
C5499 H5476 0.977 . S
C5499 C5496 1.453 . S
C5500 H5472 0.979 . S
C5500 H5473 0.980 . S
C5500 H5474 0.983 . S
C5500 C5496 1.684 . S
H5501 C5519 0.948 . S
H5502 C5460 0.948 . S
H5503 C5478 0.979 . S
H5504 C5478 0.980 . S
H5505 C5478 0.983 . S
H5506 C5477 0.982 . S
H5507 C5477 0.979 . S
H5508 C5477 0.977 . S
H5509 C5479 0.948 . S
H5510 C5481 0.947 . S
H5511 C5482 0.948 . S
H5512 C5488 0.982 . S
H5513 C5488 0.979 . S
H5514 C5488 0.977 . S
H5515 C5489 0.979 . S
H5516 C5489 0.980 . S
H5517 C5489 0.983 . S
H5518 C5462 0.947 . S
C5519 C5462 1.392 . S
C5519 C5463 1.419 . S
C5519 H5501 0.948 . S
C5520 C5521 1.391 . S
C5520 C5524 1.391 . S
C5520 H5562 0.948 . S
C5521 C5520 1.391 . S
C5521 C5522 1.391 . S
C5522 C5521 1.391 . S
C5522 H5578 0.947 . S
C5522 C5579 1.392 . S
C5523 C5524 1.391 . S
C5523 C5527 1.397 . S
C5523 C5579 1.419 . S
C5524 C5520 1.391 . S
C5524 C5523 1.391 . S
C5524 C5525 1.399 . S
C5525 C5524 1.399 . S
C5525 C5528 1.396 . S
C5525 C5537 1.453 . S
C5525 C5538 1.684 . S
H5526 C5550 0.948 . S
C5527 C5523 1.397 . S
C5527 C5528 1.394 . S
C5527 C5546 1.723 . S
C5528 C5525 1.396 . S
C5528 C5527 1.394 . S
C5528 C5558 1.723 . S
H5529 C5552 0.947 . S
H5530 C5553 0.948 . S
H5531 C5559 0.982 . S
H5532 C5560 0.979 . S
H5533 C5560 0.980 . S
H5534 C5560 0.983 . S
H5535 C5559 0.979 . S
H5536 C5559 0.977 . S
C5537 C5525 1.453 . S
C5537 H5566 0.982 . S
C5537 H5567 0.979 . S
C5537 H5568 0.977 . S
C5538 C5525 1.684 . S
C5538 H5563 0.979 . S
C5538 H5564 0.980 . S
C5538 H5565 0.983 . S
C5539 C5540 1.391 . S
C5539 C5544 1.391 . S
C5539 H5569 0.948 . S
C5540 C5539 1.391 . S
C5540 C5541 1.391 . S
C5541 C5540 1.391 . S
C5541 C5542 1.392 . S
C5541 H5570 0.947 . S
C5542 C5541 1.392 . S
C5542 C5543 1.419 . S
C5542 H5571 0.948 . S
C5543 C5542 1.419 . S
C5543 C5544 1.391 . S
C5543 C5547 1.397 . S
C5544 C5539 1.391 . S
C5544 C5543 1.391 . S
C5544 C5545 1.399 . S
C5545 C5544 1.399 . S
C5545 C5546 1.396 . S
C5545 C5548 1.453 . S
C5545 C5549 1.684 . S
C5546 C5527 1.723 . S
C5546 C5545 1.396 . S
C5546 C5547 1.394 . S
C5547 C5543 1.397 . S
C5547 C5546 1.394 . S
C5547 C5557 1.723 . S
C5548 C5545 1.453 . S
C5548 H5572 0.982 . S
C5548 H5573 0.979 . S
C5548 H5574 0.977 . S
C5549 C5545 1.684 . S
C5549 H5575 0.979 . S
C5549 H5576 0.980 . S
C5549 H5577 0.983 . S
C5550 H5526 0.948 . S
C5550 C5551 1.391 . S
C5550 C5555 1.391 . S
C5551 C5550 1.391 . S
C5551 C5552 1.391 . S
C5552 H5529 0.947 . S
C5552 C5551 1.391 . S
C5552 C5553 1.392 . S
C5553 H5530 0.948 . S
C5553 C5552 1.392 . S
C5553 C5554 1.419 . S
C5554 C5553 1.419 . S
C5554 C5555 1.391 . S
C5554 C5558 1.397 . S
C5555 C5550 1.391 . S
C5555 C5554 1.391 . S
C5555 C5556 1.399 . S
C5556 C5555 1.399 . S
C5556 C5557 1.396 . S
C5556 C5559 1.453 . S
C5556 C5560 1.684 . S
C5557 C5547 1.723 . S
C5557 C5556 1.396 . S
C5557 C5558 1.394 . S
C5558 C5528 1.723 . S
C5558 C5554 1.397 . S
C5558 C5557 1.394 . S
C5559 H5531 0.982 . S
C5559 H5535 0.979 . S
C5559 H5536 0.977 . S
C5559 C5556 1.453 . S
C5560 H5532 0.979 . S
C5560 H5533 0.980 . S
C5560 H5534 0.983 . S
C5560 C5556 1.684 . S
H5561 C5579 0.948 . S
H5562 C5520 0.948 . S
H5563 C5538 0.979 . S
H5564 C5538 0.980 . S
H5565 C5538 0.983 . S
H5566 C5537 0.982 . S
H5567 C5537 0.979 . S
H5568 C5537 0.977 . S
H5569 C5539 0.948 . S
H5570 C5541 0.947 . S
H5571 C5542 0.948 . S
H5572 C5548 0.982 . S
H5573 C5548 0.979 . S
H5574 C5548 0.977 . S
H5575 C5549 0.979 . S
H5576 C5549 0.980 . S
H5577 C5549 0.983 . S
H5578 C5522 0.947 . S
C5579 C5522 1.392 . S
C5579 C5523 1.419 . S
C5579 H5561 0.948 . S
C5580 C5581 1.391 . S
C5580 C5584 1.391 . S
C5580 H5622 0.948 . S
C5581 C5580 1.391 . S
C5581 C5582 1.391 . S
C5582 C5581 1.391 . S
C5582 H5638 0.947 . S
C5582 C5639 1.392 . S
C5583 C5584 1.391 . S
C5583 C5587 1.397 . S
C5583 C5639 1.419 . S
C5584 C5580 1.391 . S
C5584 C5583 1.391 . S
C5584 C5585 1.399 . S
C5585 C5584 1.399 . S
C5585 C5588 1.396 . S
C5585 C5597 1.453 . S
C5585 C5598 1.684 . S
H5586 C5610 0.948 . S
C5587 C5583 1.397 . S
C5587 C5588 1.394 . S
C5587 C5606 1.723 . S
C5588 C5585 1.396 . S
C5588 C5587 1.394 . S
C5588 C5618 1.723 . S
H5589 C5612 0.947 . S
H5590 C5613 0.948 . S
H5591 C5619 0.982 . S
H5592 C5620 0.979 . S
H5593 C5620 0.980 . S
H5594 C5620 0.983 . S
H5595 C5619 0.979 . S
H5596 C5619 0.977 . S
C5597 C5585 1.453 . S
C5597 H5626 0.982 . S
C5597 H5627 0.979 . S
C5597 H5628 0.977 . S
C5598 C5585 1.684 . S
C5598 H5623 0.979 . S
C5598 H5624 0.980 . S
C5598 H5625 0.983 . S
C5599 C5600 1.391 . S
C5599 C5604 1.391 . S
C5599 H5629 0.948 . S
C5600 C5599 1.391 . S
C5600 C5601 1.391 . S
C5601 C5600 1.391 . S
C5601 C5602 1.392 . S
C5601 H5630 0.947 . S
C5602 C5601 1.392 . S
C5602 C5603 1.419 . S
C5602 H5631 0.948 . S
C5603 C5602 1.419 . S
C5603 C5604 1.391 . S
C5603 C5607 1.397 . S
C5604 C5599 1.391 . S
C5604 C5603 1.391 . S
C5604 C5605 1.399 . S
C5605 C5604 1.399 . S
C5605 C5606 1.396 . S
C5605 C5608 1.453 . S
C5605 C5609 1.684 . S
C5606 C5587 1.723 . S
C5606 C5605 1.396 . S
C5606 C5607 1.394 . S
C5607 C5603 1.397 . S
C5607 C5606 1.394 . S
C5607 C5617 1.723 . S
C5608 C5605 1.453 . S
C5608 H5632 0.982 . S
C5608 H5633 0.979 . S
C5608 H5634 0.977 . S
C5609 C5605 1.684 . S
C5609 H5635 0.979 . S
C5609 H5636 0.980 . S
C5609 H5637 0.983 . S
C5610 H5586 0.948 . S
C5610 C5611 1.391 . S
C5610 C5615 1.391 . S
C5611 C5610 1.391 . S
C5611 C5612 1.391 . S
C5612 H5589 0.947 . S
C5612 C5611 1.391 . S
C5612 C5613 1.392 . S
C5613 H5590 0.948 . S
C5613 C5612 1.392 . S
C5613 C5614 1.419 . S
C5614 C5613 1.419 . S
C5614 C5615 1.391 . S
C5614 C5618 1.397 . S
C5615 C5610 1.391 . S
C5615 C5614 1.391 . S
C5615 C5616 1.399 . S
C5616 C5615 1.399 . S
C5616 C5617 1.396 . S
C5616 C5619 1.453 . S
C5616 C5620 1.684 . S
C5617 C5607 1.723 . S
C5617 C5616 1.396 . S
C5617 C5618 1.394 . S
C5618 C5588 1.723 . S
C5618 C5614 1.397 . S
C5618 C5617 1.394 . S
C5619 H5591 0.982 . S
C5619 H5595 0.979 . S
C5619 H5596 0.977 . S
C5619 C5616 1.453 . S
C5620 H5592 0.979 . S
C5620 H5593 0.980 . S
C5620 H5594 0.983 . S
C5620 C5616 1.684 . S
H5621 C5639 0.948 . S
H5622 C5580 0.948 . S
H5623 C5598 0.979 . S
H5624 C5598 0.980 . S
H5625 C5598 0.983 . S
H5626 C5597 0.982 . S
H5627 C5597 0.979 . S
H5628 C5597 0.977 . S
H5629 C5599 0.948 . S
H5630 C5601 0.947 . S
H5631 C5602 0.948 . S
H5632 C5608 0.982 . S
H5633 C5608 0.979 . S
H5634 C5608 0.977 . S
H5635 C5609 0.979 . S
H5636 C5609 0.980 . S
H5637 C5609 0.983 . S
H5638 C5582 0.947 . S
C5639 C5582 1.392 . S
C5639 C5583 1.419 . S
C5639 H5621 0.948 . S
C5640 C5641 1.391 . S
C5640 C5644 1.391 . S
C5640 H5682 0.948 . S
C5641 C5640 1.391 . S
C5641 C5642 1.391 . S
C5642 C5641 1.391 . S
C5642 H5698 0.947 . S
C5642 C5699 1.392 . S
C5643 C5644 1.391 . S
C5643 C5647 1.397 . S
C5643 C5699 1.419 . S
C5644 C5640 1.391 . S
C5644 C5643 1.391 . S
C5644 C5645 1.399 . S
C5645 C5644 1.399 . S
C5645 C5648 1.396 . S
C5645 C5657 1.453 . S
C5645 C5658 1.684 . S
H5646 C5670 0.948 . S
C5647 C5643 1.397 . S
C5647 C5648 1.394 . S
C5647 C5666 1.723 . S
C5648 C5645 1.396 . S
C5648 C5647 1.394 . S
C5648 C5678 1.723 . S
H5649 C5672 0.947 . S
H5650 C5673 0.948 . S
H5651 C5679 0.982 . S
H5652 C5680 0.979 . S
H5653 C5680 0.980 . S
H5654 C5680 0.983 . S
H5655 C5679 0.979 . S
H5656 C5679 0.977 . S
C5657 C5645 1.453 . S
C5657 H5686 0.982 . S
C5657 H5687 0.979 . S
C5657 H5688 0.977 . S
C5658 C5645 1.684 . S
C5658 H5683 0.979 . S
C5658 H5684 0.980 . S
C5658 H5685 0.983 . S
C5659 C5660 1.391 . S
C5659 C5664 1.391 . S
C5659 H5689 0.948 . S
C5660 C5659 1.391 . S
C5660 C5661 1.391 . S
C5661 C5660 1.391 . S
C5661 C5662 1.392 . S
C5661 H5690 0.947 . S
C5662 C5661 1.392 . S
C5662 C5663 1.419 . S
C5662 H5691 0.948 . S
C5663 C5662 1.419 . S
C5663 C5664 1.391 . S
C5663 C5667 1.397 . S
C5664 C5659 1.391 . S
C5664 C5663 1.391 . S
C5664 C5665 1.399 . S
C5665 C5664 1.399 . S
C5665 C5666 1.396 . S
C5665 C5668 1.453 . S
C5665 C5669 1.684 . S
C5666 C5647 1.723 . S
C5666 C5665 1.396 . S
C5666 C5667 1.394 . S
C5667 C5663 1.397 . S
C5667 C5666 1.394 . S
C5667 C5677 1.723 . S
C5668 C5665 1.453 . S
C5668 H5692 0.982 . S
C5668 H5693 0.979 . S
C5668 H5694 0.977 . S
C5669 C5665 1.684 . S
C5669 H5695 0.979 . S
C5669 H5696 0.980 . S
C5669 H5697 0.983 . S
C5670 H5646 0.948 . S
C5670 C5671 1.391 . S
C5670 C5675 1.391 . S
C5671 C5670 1.391 . S
C5671 C5672 1.391 . S
C5672 H5649 0.947 . S
C5672 C5671 1.391 . S
C5672 C5673 1.392 . S
C5673 H5650 0.948 . S
C5673 C5672 1.392 . S
C5673 C5674 1.419 . S
C5674 C5673 1.419 . S
C5674 C5675 1.391 . S
C5674 C5678 1.397 . S
C5675 C5670 1.391 . S
C5675 C5674 1.391 . S
C5675 C5676 1.399 . S
C5676 C5675 1.399 . S
C5676 C5677 1.396 . S
C5676 C5679 1.453 . S
C5676 C5680 1.684 . S
C5677 C5667 1.723 . S
C5677 C5676 1.396 . S
C5677 C5678 1.394 . S
C5678 C5648 1.723 . S
C5678 C5674 1.397 . S
C5678 C5677 1.394 . S
C5679 H5651 0.982 . S
C5679 H5655 0.979 . S
C5679 H5656 0.977 . S
C5679 C5676 1.453 . S
C5680 H5652 0.979 . S
C5680 H5653 0.980 . S
C5680 H5654 0.983 . S
C5680 C5676 1.684 . S
H5681 C5699 0.948 . S
H5682 C5640 0.948 . S
H5683 C5658 0.979 . S
H5684 C5658 0.980 . S
H5685 C5658 0.983 . S
H5686 C5657 0.982 . S
H5687 C5657 0.979 . S
H5688 C5657 0.977 . S
H5689 C5659 0.948 . S
H5690 C5661 0.947 . S
H5691 C5662 0.948 . S
H5692 C5668 0.982 . S
H5693 C5668 0.979 . S
H5694 C5668 0.977 . S
H5695 C5669 0.979 . S
H5696 C5669 0.980 . S
H5697 C5669 0.983 . S
H5698 C5642 0.947 . S
C5699 C5642 1.392 . S
C5699 C5643 1.419 . S
C5699 H5681 0.948 . S
C5700 C5701 1.391 . S
C5700 C5704 1.391 . S
C5700 H5742 0.948 . S
C5701 C5700 1.391 . S
C5701 C5702 1.391 . S
C5702 C5701 1.391 . S
C5702 H5758 0.947 . S
C5702 C5759 1.392 . S
C5703 C5704 1.391 . S
C5703 C5707 1.397 . S
C5703 C5759 1.419 . S
C5704 C5700 1.391 . S
C5704 C5703 1.391 . S
C5704 C5705 1.399 . S
C5705 C5704 1.399 . S
C5705 C5708 1.396 . S
C5705 C5717 1.453 . S
C5705 C5718 1.684 . S
H5706 C5730 0.948 . S
C5707 C5703 1.397 . S
C5707 C5708 1.394 . S
C5707 C5726 1.723 . S
C5708 C5705 1.396 . S
C5708 C5707 1.394 . S
C5708 C5738 1.723 . S
H5709 C5732 0.947 . S
H5710 C5733 0.948 . S
H5711 C5739 0.982 . S
H5712 C5740 0.979 . S
H5713 C5740 0.980 . S
H5714 C5740 0.983 . S
H5715 C5739 0.979 . S
H5716 C5739 0.977 . S
C5717 C5705 1.453 . S
C5717 H5746 0.982 . S
C5717 H5747 0.979 . S
C5717 H5748 0.977 . S
C5718 C5705 1.684 . S
C5718 H5743 0.979 . S
C5718 H5744 0.980 . S
C5718 H5745 0.983 . S
C5719 C5720 1.391 . S
C5719 C5724 1.391 1_455 S
C5719 H5749 0.948 . S
C5720 C5719 1.391 . S
C5720 C5721 1.391 . S
C5721 C5720 1.391 . S
C5721 C5722 1.392 1_455 S
C5721 H5750 0.947 . S
C5722 C5721 1.392 1_655 S
C5722 C5723 1.419 . S
C5722 H5751 0.948 . S
C5723 C5722 1.419 . S
C5723 C5724 1.391 . S
C5723 C5727 1.397 . S
C5724 C5719 1.391 1_655 S
C5724 C5723 1.391 . S
C5724 C5725 1.399 . S
C5725 C5724 1.399 . S
C5725 C5726 1.396 . S
C5725 C5728 1.453 . S
C5725 C5729 1.684 . S
C5726 C5707 1.723 . S
C5726 C5725 1.396 . S
C5726 C5727 1.394 . S
C5727 C5723 1.397 . S
C5727 C5726 1.394 . S
C5727 C5737 1.723 . S
C5728 C5725 1.453 . S
C5728 H5752 0.982 . S
C5728 H5753 0.979 . S
C5728 H5754 0.977 . S
C5729 C5725 1.684 . S
C5729 H5755 0.979 . S
C5729 H5756 0.980 . S
C5729 H5757 0.983 . S
C5730 H5706 0.948 . S
C5730 C5731 1.391 . S
C5730 C5735 1.391 . S
C5731 C5730 1.391 . S
C5731 C5732 1.391 . S
C5732 H5709 0.947 . S
C5732 C5731 1.391 . S
C5732 C5733 1.392 . S
C5733 H5710 0.948 . S
C5733 C5732 1.392 . S
C5733 C5734 1.419 . S
C5734 C5733 1.419 . S
C5734 C5735 1.391 . S
C5734 C5738 1.397 . S
C5735 C5730 1.391 . S
C5735 C5734 1.391 . S
C5735 C5736 1.399 . S
C5736 C5735 1.399 . S
C5736 C5737 1.396 . S
C5736 C5739 1.453 . S
C5736 C5740 1.684 . S
C5737 C5727 1.723 . S
C5737 C5736 1.396 . S
C5737 C5738 1.394 . S
C5738 C5708 1.723 . S
C5738 C5734 1.397 . S
C5738 C5737 1.394 . S
C5739 H5711 0.982 . S
C5739 H5715 0.979 . S
C5739 H5716 0.977 . S
C5739 C5736 1.453 . S
C5740 H5712 0.979 . S
C5740 H5713 0.980 . S
C5740 H5714 0.983 . S
C5740 C5736 1.684 . S
H5741 C5759 0.948 . S
H5742 C5700 0.948 . S
H5743 C5718 0.979 . S
H5744 C5718 0.980 . S
H5745 C5718 0.983 . S
H5746 C5717 0.982 . S
H5747 C5717 0.979 . S
H5748 C5717 0.977 . S
H5749 C5719 0.948 . S
H5750 C5721 0.947 . S
H5751 C5722 0.948 . S
H5752 C5728 0.982 . S
H5753 C5728 0.979 . S
H5754 C5728 0.977 . S
H5755 C5729 0.979 . S
H5756 C5729 0.980 . S
H5757 C5729 0.983 . S
H5758 C5702 0.947 . S
C5759 C5702 1.392 . S
C5759 C5703 1.419 . S
C5759 H5741 0.948 . S
C5760 C5761 1.391 . S
C5760 C5764 1.391 . S
C5760 H5802 0.948 . S
C5761 C5760 1.391 . S
C5761 C5762 1.391 . S
C5762 C5761 1.391 . S
C5762 H5818 0.947 . S
C5762 C5819 1.392 . S
C5763 C5764 1.391 . S
C5763 C5767 1.397 . S
C5763 C5819 1.419 . S
C5764 C5760 1.391 . S
C5764 C5763 1.391 . S
C5764 C5765 1.399 . S
C5765 C5764 1.399 . S
C5765 C5768 1.396 . S
C5765 C5777 1.453 . S
C5765 C5778 1.684 . S
H5766 C5790 0.948 . S
C5767 C5763 1.397 . S
C5767 C5768 1.394 . S
C5767 C5786 1.723 . S
C5768 C5765 1.396 . S
C5768 C5767 1.394 . S
C5768 C5798 1.723 . S
H5769 C5792 0.947 . S
H5770 C5793 0.948 . S
H5771 C5799 0.982 . S
H5772 C5800 0.979 . S
H5773 C5800 0.980 . S
H5774 C5800 0.983 . S
H5775 C5799 0.979 . S
H5776 C5799 0.977 . S
C5777 C5765 1.453 . S
C5777 H5806 0.982 . S
C5777 H5807 0.979 . S
C5777 H5808 0.977 . S
C5778 C5765 1.684 . S
C5778 H5803 0.979 . S
C5778 H5804 0.980 . S
C5778 H5805 0.983 . S
C5779 C5780 1.391 . S
C5779 C5784 1.391 . S
C5779 H5809 0.948 . S
C5780 C5779 1.391 . S
C5780 C5781 1.391 . S
C5781 C5780 1.391 . S
C5781 C5782 1.392 . S
C5781 H5810 0.947 . S
C5782 C5781 1.392 . S
C5782 C5783 1.419 . S
C5782 H5811 0.948 . S
C5783 C5782 1.419 . S
C5783 C5784 1.391 . S
C5783 C5787 1.397 . S
C5784 C5779 1.391 . S
C5784 C5783 1.391 . S
C5784 C5785 1.399 . S
C5785 C5784 1.399 . S
C5785 C5786 1.396 . S
C5785 C5788 1.453 . S
C5785 C5789 1.684 . S
C5786 C5767 1.723 . S
C5786 C5785 1.396 . S
C5786 C5787 1.394 . S
C5787 C5783 1.397 . S
C5787 C5786 1.394 . S
C5787 C5797 1.723 . S
C5788 C5785 1.453 . S
C5788 H5812 0.982 . S
C5788 H5813 0.979 . S
C5788 H5814 0.977 . S
C5789 C5785 1.684 . S
C5789 H5815 0.979 . S
C5789 H5816 0.980 . S
C5789 H5817 0.983 . S
C5790 H5766 0.948 . S
C5790 C5791 1.391 . S
C5790 C5795 1.391 . S
C5791 C5790 1.391 . S
C5791 C5792 1.391 . S
C5792 H5769 0.947 . S
C5792 C5791 1.391 . S
C5792 C5793 1.392 . S
C5793 H5770 0.948 . S
C5793 C5792 1.392 . S
C5793 C5794 1.419 . S
C5794 C5793 1.419 . S
C5794 C5795 1.391 . S
C5794 C5798 1.397 . S
C5795 C5790 1.391 . S
C5795 C5794 1.391 . S
C5795 C5796 1.399 . S
C5796 C5795 1.399 . S
C5796 C5797 1.396 . S
C5796 C5799 1.453 . S
C5796 C5800 1.684 . S
C5797 C5787 1.723 . S
C5797 C5796 1.396 . S
C5797 C5798 1.394 . S
C5798 C5768 1.723 . S
C5798 C5794 1.397 . S
C5798 C5797 1.394 . S
C5799 H5771 0.982 . S
C5799 H5775 0.979 . S
C5799 H5776 0.977 . S
C5799 C5796 1.453 . S
C5800 H5772 0.979 . S
C5800 H5773 0.980 . S
C5800 H5774 0.983 . S
C5800 C5796 1.684 . S
H5801 C5819 0.948 . S
H5802 C5760 0.948 . S
H5803 C5778 0.979 . S
H5804 C5778 0.980 . S
H5805 C5778 0.983 . S
H5806 C5777 0.982 . S
H5807 C5777 0.979 . S
H5808 C5777 0.977 . S
H5809 C5779 0.948 . S
H5810 C5781 0.947 . S
H5811 C5782 0.948 . S
H5812 C5788 0.982 . S
H5813 C5788 0.979 . S
H5814 C5788 0.977 . S
H5815 C5789 0.979 . S
H5816 C5789 0.980 . S
H5817 C5789 0.983 . S
H5818 C5762 0.947 . S
C5819 C5762 1.392 . S
C5819 C5763 1.419 . S
C5819 H5801 0.948 . S
C5820 C5821 1.391 . S
C5820 C5824 1.391 . S
C5820 H5862 0.948 . S
C5821 C5820 1.391 . S
C5821 C5822 1.391 . S
C5822 C5821 1.391 . S
C5822 H5878 0.947 . S
C5822 C5879 1.392 . S
C5823 C5824 1.391 . S
C5823 C5827 1.397 . S
C5823 C5879 1.419 . S
C5824 C5820 1.391 . S
C5824 C5823 1.391 . S
C5824 C5825 1.399 . S
C5825 C5824 1.399 . S
C5825 C5828 1.396 . S
C5825 C5837 1.453 . S
C5825 C5838 1.684 . S
H5826 C5850 0.948 . S
C5827 C5823 1.397 . S
C5827 C5828 1.394 . S
C5827 C5846 1.723 . S
C5828 C5825 1.396 . S
C5828 C5827 1.394 . S
C5828 C5858 1.723 . S
H5829 C5852 0.947 . S
H5830 C5853 0.948 . S
H5831 C5859 0.982 . S
H5832 C5860 0.979 . S
H5833 C5860 0.980 . S
H5834 C5860 0.983 . S
H5835 C5859 0.979 . S
H5836 C5859 0.977 . S
C5837 C5825 1.453 . S
C5837 H5866 0.982 . S
C5837 H5867 0.979 . S
C5837 H5868 0.977 . S
C5838 C5825 1.684 . S
C5838 H5863 0.979 . S
C5838 H5864 0.980 . S
C5838 H5865 0.983 . S
C5839 C5840 1.391 . S
C5839 C5844 1.391 . S
C5839 H5869 0.948 . S
C5840 C5839 1.391 . S
C5840 C5841 1.391 . S
C5841 C5840 1.391 . S
C5841 C5842 1.392 . S
C5841 H5870 0.947 . S
C5842 C5841 1.392 . S
C5842 C5843 1.419 . S
C5842 H5871 0.948 . S
C5843 C5842 1.419 . S
C5843 C5844 1.391 . S
C5843 C5847 1.397 . S
C5844 C5839 1.391 . S
C5844 C5843 1.391 . S
C5844 C5845 1.399 . S
C5845 C5844 1.399 . S
C5845 C5846 1.396 . S
C5845 C5848 1.453 . S
C5845 C5849 1.684 . S
C5846 C5827 1.723 . S
C5846 C5845 1.396 . S
C5846 C5847 1.394 . S
C5847 C5843 1.397 . S
C5847 C5846 1.394 . S
C5847 C5857 1.723 . S
C5848 C5845 1.453 . S
C5848 H5872 0.982 . S
C5848 H5873 0.979 . S
C5848 H5874 0.977 . S
C5849 C5845 1.684 . S
C5849 H5875 0.979 . S
C5849 H5876 0.980 . S
C5849 H5877 0.983 . S
C5850 H5826 0.948 . S
C5850 C5851 1.391 . S
C5850 C5855 1.391 . S
C5851 C5850 1.391 . S
C5851 C5852 1.391 . S
C5852 H5829 0.947 . S
C5852 C5851 1.391 . S
C5852 C5853 1.392 . S
C5853 H5830 0.948 . S
C5853 C5852 1.392 . S
C5853 C5854 1.419 . S
C5854 C5853 1.419 . S
C5854 C5855 1.391 . S
C5854 C5858 1.397 . S
C5855 C5850 1.391 . S
C5855 C5854 1.391 . S
C5855 C5856 1.399 . S
C5856 C5855 1.399 . S
C5856 C5857 1.396 . S
C5856 C5859 1.453 . S
C5856 C5860 1.684 . S
C5857 C5847 1.723 . S
C5857 C5856 1.396 . S
C5857 C5858 1.394 . S
C5858 C5828 1.723 . S
C5858 C5854 1.397 . S
C5858 C5857 1.394 . S
C5859 H5831 0.982 . S
C5859 H5835 0.979 . S
C5859 H5836 0.977 . S
C5859 C5856 1.453 . S
C5860 H5832 0.979 . S
C5860 H5833 0.980 . S
C5860 H5834 0.983 . S
C5860 C5856 1.684 . S
H5861 C5879 0.948 . S
H5862 C5820 0.948 . S
H5863 C5838 0.979 . S
H5864 C5838 0.980 . S
H5865 C5838 0.983 . S
H5866 C5837 0.982 . S
H5867 C5837 0.979 . S
H5868 C5837 0.977 . S
H5869 C5839 0.948 . S
H5870 C5841 0.947 . S
H5871 C5842 0.948 . S
H5872 C5848 0.982 . S
H5873 C5848 0.979 . S
H5874 C5848 0.977 . S
H5875 C5849 0.979 . S
H5876 C5849 0.980 . S
H5877 C5849 0.983 . S
H5878 C5822 0.947 . S
C5879 C5822 1.392 . S
C5879 C5823 1.419 . S
C5879 H5861 0.948 . S
C5880 C5881 1.391 . S
C5880 C5884 1.391 . S
C5880 H5922 0.948 . S
C5881 C5880 1.391 . S
C5881 C5882 1.391 . S
C5882 C5881 1.391 . S
C5882 H5938 0.947 . S
C5882 C5939 1.392 . S
C5883 C5884 1.391 . S
C5883 C5887 1.397 . S
C5883 C5939 1.419 . S
C5884 C5880 1.391 . S
C5884 C5883 1.391 . S
C5884 C5885 1.399 . S
C5885 C5884 1.399 . S
C5885 C5888 1.396 . S
C5885 C5897 1.453 . S
C5885 C5898 1.684 . S
H5886 C5910 0.948 . S
C5887 C5883 1.397 . S
C5887 C5888 1.394 . S
C5887 C5906 1.723 . S
C5888 C5885 1.396 . S
C5888 C5887 1.394 . S
C5888 C5918 1.723 . S
H5889 C5912 0.947 . S
H5890 C5913 0.948 . S
H5891 C5919 0.982 . S
H5892 C5920 0.979 . S
H5893 C5920 0.980 . S
H5894 C5920 0.983 . S
H5895 C5919 0.979 . S
H5896 C5919 0.977 . S
C5897 C5885 1.453 . S
C5897 H5926 0.982 . S
C5897 H5927 0.979 . S
C5897 H5928 0.977 . S
C5898 C5885 1.684 . S
C5898 H5923 0.979 . S
C5898 H5924 0.980 . S
C5898 H5925 0.983 . S
C5899 C5900 1.391 . S
C5899 C5904 1.391 . S
C5899 H5929 0.948 . S
C5900 C5899 1.391 . S
C5900 C5901 1.391 . S
C5901 C5900 1.391 . S
C5901 C5902 1.392 . S
C5901 H5930 0.947 . S
C5902 C5901 1.392 . S
C5902 C5903 1.419 . S
C5902 H5931 0.948 . S
C5903 C5902 1.419 . S
C5903 C5904 1.391 . S
C5903 C5907 1.397 . S
C5904 C5899 1.391 . S
C5904 C5903 1.391 . S
C5904 C5905 1.399 . S
C5905 C5904 1.399 . S
C5905 C5906 1.396 . S
C5905 C5908 1.453 . S
C5905 C5909 1.684 . S
C5906 C5887 1.723 . S
C5906 C5905 1.396 . S
C5906 C5907 1.394 . S
C5907 C5903 1.397 . S
C5907 C5906 1.394 . S
C5907 C5917 1.723 . S
C5908 C5905 1.453 . S
C5908 H5932 0.982 . S
C5908 H5933 0.979 . S
C5908 H5934 0.977 . S
C5909 C5905 1.684 . S
C5909 H5935 0.979 . S
C5909 H5936 0.980 . S
C5909 H5937 0.983 . S
C5910 H5886 0.948 . S
C5910 C5911 1.391 . S
C5910 C5915 1.391 . S
C5911 C5910 1.391 . S
C5911 C5912 1.391 . S
C5912 H5889 0.947 . S
C5912 C5911 1.391 . S
C5912 C5913 1.392 . S
C5913 H5890 0.948 . S
C5913 C5912 1.392 . S
C5913 C5914 1.419 . S
C5914 C5913 1.419 . S
C5914 C5915 1.391 . S
C5914 C5918 1.397 . S
C5915 C5910 1.391 . S
C5915 C5914 1.391 . S
C5915 C5916 1.399 . S
C5916 C5915 1.399 . S
C5916 C5917 1.396 . S
C5916 C5919 1.453 . S
C5916 C5920 1.684 . S
C5917 C5907 1.723 . S
C5917 C5916 1.396 . S
C5917 C5918 1.394 . S
C5918 C5888 1.723 . S
C5918 C5914 1.397 . S
C5918 C5917 1.394 . S
C5919 H5891 0.982 . S
C5919 H5895 0.979 . S
C5919 H5896 0.977 . S
C5919 C5916 1.453 . S
C5920 H5892 0.979 . S
C5920 H5893 0.980 . S
C5920 H5894 0.983 . S
C5920 C5916 1.684 . S
H5921 C5939 0.948 . S
H5922 C5880 0.948 . S
H5923 C5898 0.979 . S
H5924 C5898 0.980 . S
H5925 C5898 0.983 . S
H5926 C5897 0.982 . S
H5927 C5897 0.979 . S
H5928 C5897 0.977 . S
H5929 C5899 0.948 . S
H5930 C5901 0.947 . S
H5931 C5902 0.948 . S
H5932 C5908 0.982 . S
H5933 C5908 0.979 . S
H5934 C5908 0.977 . S
H5935 C5909 0.979 . S
H5936 C5909 0.980 . S
H5937 C5909 0.983 . S
H5938 C5882 0.947 . S
C5939 C5882 1.392 . S
C5939 C5883 1.419 . S
C5939 H5921 0.948 . S
C5940 C5941 1.391 . S
C5940 C5944 1.391 . S
C5940 H5982 0.948 . S
C5941 C5940 1.391 . S
C5941 C5942 1.391 . S
C5942 C5941 1.391 . S
C5942 H5998 0.947 . S
C5942 C5999 1.392 . S
C5943 C5944 1.391 . S
C5943 C5947 1.397 . S
C5943 C5999 1.419 . S
C5944 C5940 1.391 . S
C5944 C5943 1.391 . S
C5944 C5945 1.399 . S
C5945 C5944 1.399 . S
C5945 C5948 1.396 . S
C5945 C5957 1.453 . S
C5945 C5958 1.684 . S
H5946 C5970 0.948 . S
C5947 C5943 1.397 . S
C5947 C5948 1.394 . S
C5947 C5966 1.723 . S
C5948 C5945 1.396 . S
C5948 C5947 1.394 . S
C5948 C5978 1.723 . S
H5949 C5972 0.947 . S
H5950 C5973 0.948 . S
H5951 C5979 0.982 . S
H5952 C5980 0.979 . S
H5953 C5980 0.980 . S
H5954 C5980 0.983 . S
H5955 C5979 0.979 . S
H5956 C5979 0.977 . S
C5957 C5945 1.453 . S
C5957 H5986 0.982 . S
C5957 H5987 0.979 . S
C5957 H5988 0.977 . S
C5958 C5945 1.684 . S
C5958 H5983 0.979 . S
C5958 H5984 0.980 . S
C5958 H5985 0.983 . S
C5959 C5960 1.391 . S
C5959 C5964 1.391 . S
C5959 H5989 0.948 . S
C5960 C5959 1.391 . S
C5960 C5961 1.391 . S
C5961 C5960 1.391 . S
C5961 C5962 1.392 . S
C5961 H5990 0.947 . S
C5962 C5961 1.392 . S
C5962 C5963 1.419 . S
C5962 H5991 0.948 . S
C5963 C5962 1.419 . S
C5963 C5964 1.391 . S
C5963 C5967 1.397 . S
C5964 C5959 1.391 . S
C5964 C5963 1.391 . S
C5964 C5965 1.399 . S
C5965 C5964 1.399 . S
C5965 C5966 1.396 . S
C5965 C5968 1.453 . S
C5965 C5969 1.684 . S
C5966 C5947 1.723 . S
C5966 C5965 1.396 . S
C5966 C5967 1.394 . S
C5967 C5963 1.397 . S
C5967 C5966 1.394 . S
C5967 C5977 1.723 . S
C5968 C5965 1.453 . S
C5968 H5992 0.982 . S
C5968 H5993 0.979 . S
C5968 H5994 0.977 . S
C5969 C5965 1.684 . S
C5969 H5995 0.979 . S
C5969 H5996 0.980 . S
C5969 H5997 0.983 . S
C5970 H5946 0.948 . S
C5970 C5971 1.391 . S
C5970 C5975 1.391 . S
C5971 C5970 1.391 . S
C5971 C5972 1.391 . S
C5972 H5949 0.947 . S
C5972 C5971 1.391 . S
C5972 C5973 1.392 . S
C5973 H5950 0.948 . S
C5973 C5972 1.392 . S
C5973 C5974 1.419 . S
C5974 C5973 1.419 . S
C5974 C5975 1.391 . S
C5974 C5978 1.397 . S
C5975 C5970 1.391 . S
C5975 C5974 1.391 . S
C5975 C5976 1.399 . S
C5976 C5975 1.399 . S
C5976 C5977 1.396 . S
C5976 C5979 1.453 . S
C5976 C5980 1.684 . S
C5977 C5967 1.723 . S
C5977 C5976 1.396 . S
C5977 C5978 1.394 . S
C5978 C5948 1.723 . S
C5978 C5974 1.397 . S
C5978 C5977 1.394 . S
C5979 H5951 0.982 . S
C5979 H5955 0.979 . S
C5979 H5956 0.977 . S
C5979 C5976 1.453 . S
C5980 H5952 0.979 . S
C5980 H5953 0.980 . S
C5980 H5954 0.983 . S
C5980 C5976 1.684 . S
H5981 C5999 0.948 . S
H5982 C5940 0.948 . S
H5983 C5958 0.979 . S
H5984 C5958 0.980 . S
H5985 C5958 0.983 . S
H5986 C5957 0.982 . S
H5987 C5957 0.979 . S
H5988 C5957 0.977 . S
H5989 C5959 0.948 . S
H5990 C5961 0.947 . S
H5991 C5962 0.948 . S
H5992 C5968 0.982 . S
H5993 C5968 0.979 . S
H5994 C5968 0.977 . S
H5995 C5969 0.979 . S
H5996 C5969 0.980 . S
H5997 C5969 0.983 . S
H5998 C5942 0.947 . S
C5999 C5942 1.392 . S
C5999 C5943 1.419 . S
C5999 H5981 0.948 . S
C6000 C6001 1.391 . S
C6000 C6004 1.391 . S
C6000 H6042 0.948 . S
C6001 C6000 1.391 . S
C6001 C6002 1.391 . S
C6002 C6001 1.391 . S
C6002 H6058 0.947 . S
C6002 C6059 1.392 . S
C6003 C6004 1.391 . S
C6003 C6007 1.397 . S
C6003 C6059 1.419 . S
C6004 C6000 1.391 . S
C6004 C6003 1.391 . S
C6004 C6005 1.399 . S
C6005 C6004 1.399 . S
C6005 C6008 1.396 . S
C6005 C6017 1.453 . S
C6005 C6018 1.684 . S
H6006 C6030 0.948 . S
C6007 C6003 1.397 . S
C6007 C6008 1.394 . S
C6007 C6026 1.723 . S
C6008 C6005 1.396 . S
C6008 C6007 1.394 . S
C6008 C6038 1.723 . S
H6009 C6032 0.947 . S
H6010 C6033 0.948 . S
H6011 C6039 0.982 . S
H6012 C6040 0.979 . S
H6013 C6040 0.980 . S
H6014 C6040 0.983 . S
H6015 C6039 0.979 . S
H6016 C6039 0.977 . S
C6017 C6005 1.453 . S
C6017 H6046 0.982 . S
C6017 H6047 0.979 . S
C6017 H6048 0.977 . S
C6018 C6005 1.684 . S
C6018 H6043 0.979 . S
C6018 H6044 0.980 . S
C6018 H6045 0.983 . S
C6019 C6020 1.391 . S
C6019 C6024 1.391 . S
C6019 H6049 0.948 . S
C6020 C6019 1.391 . S
C6020 C6021 1.391 . S
C6021 C6020 1.391 . S
C6021 C6022 1.392 . S
C6021 H6050 0.947 . S
C6022 C6021 1.392 . S
C6022 C6023 1.419 . S
C6022 H6051 0.948 . S
C6023 C6022 1.419 . S
C6023 C6024 1.391 . S
C6023 C6027 1.397 . S
C6024 C6019 1.391 . S
C6024 C6023 1.391 . S
C6024 C6025 1.399 . S
C6025 C6024 1.399 . S
C6025 C6026 1.396 . S
C6025 C6028 1.453 . S
C6025 C6029 1.684 . S
C6026 C6007 1.723 . S
C6026 C6025 1.396 . S
C6026 C6027 1.394 . S
C6027 C6023 1.397 . S
C6027 C6026 1.394 . S
C6027 C6037 1.723 . S
C6028 C6025 1.453 . S
C6028 H6052 0.982 . S
C6028 H6053 0.979 . S
C6028 H6054 0.977 . S
C6029 C6025 1.684 . S
C6029 H6055 0.979 . S
C6029 H6056 0.980 . S
C6029 H6057 0.983 . S
C6030 H6006 0.948 . S
C6030 C6031 1.391 . S
C6030 C6035 1.391 . S
C6031 C6030 1.391 . S
C6031 C6032 1.391 . S
C6032 H6009 0.947 . S
C6032 C6031 1.391 . S
C6032 C6033 1.392 . S
C6033 H6010 0.948 . S
C6033 C6032 1.392 . S
C6033 C6034 1.419 . S
C6034 C6033 1.419 . S
C6034 C6035 1.391 . S
C6034 C6038 1.397 . S
C6035 C6030 1.391 . S
C6035 C6034 1.391 . S
C6035 C6036 1.399 . S
C6036 C6035 1.399 . S
C6036 C6037 1.396 . S
C6036 C6039 1.453 . S
C6036 C6040 1.684 . S
C6037 C6027 1.723 . S
C6037 C6036 1.396 . S
C6037 C6038 1.394 . S
C6038 C6008 1.723 . S
C6038 C6034 1.397 . S
C6038 C6037 1.394 . S
C6039 H6011 0.982 . S
C6039 H6015 0.979 . S
C6039 H6016 0.977 . S
C6039 C6036 1.453 . S
C6040 H6012 0.979 . S
C6040 H6013 0.980 . S
C6040 H6014 0.983 . S
C6040 C6036 1.684 . S
H6041 C6059 0.948 . S
H6042 C6000 0.948 . S
H6043 C6018 0.979 . S
H6044 C6018 0.980 . S
H6045 C6018 0.983 . S
H6046 C6017 0.982 . S
H6047 C6017 0.979 . S
H6048 C6017 0.977 . S
H6049 C6019 0.948 . S
H6050 C6021 0.947 . S
H6051 C6022 0.948 . S
H6052 C6028 0.982 . S
H6053 C6028 0.979 . S
H6054 C6028 0.977 . S
H6055 C6029 0.979 . S
H6056 C6029 0.980 . S
H6057 C6029 0.983 . S
H6058 C6002 0.947 . S
C6059 C6002 1.392 . S
C6059 C6003 1.419 . S
C6059 H6041 0.948 . S
C6060 C6061 1.391 . S
C6060 C6064 1.391 . S
C6060 H6102 0.948 . S
C6061 C6060 1.391 . S
C6061 C6062 1.391 . S
C6062 C6061 1.391 . S
C6062 H6118 0.947 . S
C6062 C6119 1.392 . S
C6063 C6064 1.391 . S
C6063 C6067 1.397 . S
C6063 C6119 1.419 . S
C6064 C6060 1.391 . S
C6064 C6063 1.391 . S
C6064 C6065 1.399 . S
C6065 C6064 1.399 . S
C6065 C6068 1.396 . S
C6065 C6077 1.453 . S
C6065 C6078 1.684 . S
H6066 C6090 0.948 . S
C6067 C6063 1.397 . S
C6067 C6068 1.394 . S
C6067 C6086 1.723 . S
C6068 C6065 1.396 . S
C6068 C6067 1.394 . S
C6068 C6098 1.723 . S
H6069 C6092 0.947 . S
H6070 C6093 0.948 . S
H6071 C6099 0.982 . S
H6072 C6100 0.979 . S
H6073 C6100 0.980 . S
H6074 C6100 0.983 . S
H6075 C6099 0.979 . S
H6076 C6099 0.977 . S
C6077 C6065 1.453 . S
C6077 H6106 0.982 . S
C6077 H6107 0.979 . S
C6077 H6108 0.977 . S
C6078 C6065 1.684 . S
C6078 H6103 0.979 . S
C6078 H6104 0.980 . S
C6078 H6105 0.983 . S
C6079 C6080 1.391 . S
C6079 C6084 1.391 . S
C6079 H6109 0.948 . S
C6080 C6079 1.391 . S
C6080 C6081 1.391 . S
C6081 C6080 1.391 . S
C6081 C6082 1.392 . S
C6081 H6110 0.947 . S
C6082 C6081 1.392 . S
C6082 C6083 1.419 . S
C6082 H6111 0.948 . S
C6083 C6082 1.419 . S
C6083 C6084 1.391 . S
C6083 C6087 1.397 . S
C6084 C6079 1.391 . S
C6084 C6083 1.391 . S
C6084 C6085 1.399 . S
C6085 C6084 1.399 . S
C6085 C6086 1.396 . S
C6085 C6088 1.453 . S
C6085 C6089 1.684 . S
C6086 C6067 1.723 . S
C6086 C6085 1.396 . S
C6086 C6087 1.394 . S
C6087 C6083 1.397 . S
C6087 C6086 1.394 . S
C6087 C6097 1.723 . S
C6088 C6085 1.453 . S
C6088 H6112 0.982 . S
C6088 H6113 0.979 . S
C6088 H6114 0.977 . S
C6089 C6085 1.684 . S
C6089 H6115 0.979 . S
C6089 H6116 0.980 . S
C6089 H6117 0.983 . S
C6090 H6066 0.948 . S
C6090 C6091 1.391 . S
C6090 C6095 1.391 . S
C6091 C6090 1.391 . S
C6091 C6092 1.391 . S
C6092 H6069 0.947 . S
C6092 C6091 1.391 . S
C6092 C6093 1.392 . S
C6093 H6070 0.948 . S
C6093 C6092 1.392 . S
C6093 C6094 1.419 . S
C6094 C6093 1.419 . S
C6094 C6095 1.391 . S
C6094 C6098 1.397 . S
C6095 C6090 1.391 . S
C6095 C6094 1.391 . S
C6095 C6096 1.399 . S
C6096 C6095 1.399 . S
C6096 C6097 1.396 . S
C6096 C6099 1.453 . S
C6096 C6100 1.684 . S
C6097 C6087 1.723 . S
C6097 C6096 1.396 . S
C6097 C6098 1.394 . S
C6098 C6068 1.723 . S
C6098 C6094 1.397 . S
C6098 C6097 1.394 . S
C6099 H6071 0.982 . S
C6099 H6075 0.979 . S
C6099 H6076 0.977 . S
C6099 C6096 1.453 . S
C6100 H6072 0.979 . S
C6100 H6073 0.980 . S
C6100 H6074 0.983 . S
C6100 C6096 1.684 . S
H6101 C6119 0.948 . S
H6102 C6060 0.948 . S
H6103 C6078 0.979 . S
H6104 C6078 0.980 . S
H6105 C6078 0.983 . S
H6106 C6077 0.982 . S
H6107 C6077 0.979 . S
H6108 C6077 0.977 . S
H6109 C6079 0.948 . S
H6110 C6081 0.947 . S
H6111 C6082 0.948 . S
H6112 C6088 0.982 . S
H6113 C6088 0.979 . S
H6114 C6088 0.977 . S
H6115 C6089 0.979 . S
H6116 C6089 0.980 . S
H6117 C6089 0.983 . S
H6118 C6062 0.947 . S
C6119 C6062 1.392 . S
C6119 C6063 1.419 . S
C6119 H6101 0.948 . S
C6120 C6121 1.391 . S
C6120 C6124 1.391 . S
C6120 H6162 0.948 . S
C6121 C6120 1.391 . S
C6121 C6122 1.391 . S
C6122 C6121 1.391 . S
C6122 H6178 0.947 . S
C6122 C6179 1.392 . S
C6123 C6124 1.391 . S
C6123 C6127 1.397 . S
C6123 C6179 1.419 . S
C6124 C6120 1.391 . S
C6124 C6123 1.391 . S
C6124 C6125 1.399 . S
C6125 C6124 1.399 . S
C6125 C6128 1.396 . S
C6125 C6137 1.453 . S
C6125 C6138 1.684 . S
H6126 C6150 0.948 . S
C6127 C6123 1.397 . S
C6127 C6128 1.394 . S
C6127 C6146 1.723 . S
C6128 C6125 1.396 . S
C6128 C6127 1.394 . S
C6128 C6158 1.723 . S
H6129 C6152 0.947 . S
H6130 C6153 0.948 . S
H6131 C6159 0.982 . S
H6132 C6160 0.979 . S
H6133 C6160 0.980 . S
H6134 C6160 0.983 . S
H6135 C6159 0.979 . S
H6136 C6159 0.977 . S
C6137 C6125 1.453 . S
C6137 H6166 0.982 . S
C6137 H6167 0.979 . S
C6137 H6168 0.977 . S
C6138 C6125 1.684 . S
C6138 H6163 0.979 . S
C6138 H6164 0.980 . S
C6138 H6165 0.983 . S
C6139 C6140 1.391 . S
C6139 C6144 1.391 . S
C6139 H6169 0.948 . S
C6140 C6139 1.391 . S
C6140 C6141 1.391 . S
C6141 C6140 1.391 . S
C6141 C6142 1.392 . S
C6141 H6170 0.947 . S
C6142 C6141 1.392 . S
C6142 C6143 1.419 . S
C6142 H6171 0.948 . S
C6143 C6142 1.419 . S
C6143 C6144 1.391 . S
C6143 C6147 1.397 . S
C6144 C6139 1.391 . S
C6144 C6143 1.391 . S
C6144 C6145 1.399 . S
C6145 C6144 1.399 . S
C6145 C6146 1.396 . S
C6145 C6148 1.453 . S
C6145 C6149 1.684 . S
C6146 C6127 1.723 . S
C6146 C6145 1.396 . S
C6146 C6147 1.394 . S
C6147 C6143 1.397 . S
C6147 C6146 1.394 . S
C6147 C6157 1.723 . S
C6148 C6145 1.453 . S
C6148 H6172 0.982 . S
C6148 H6173 0.979 . S
C6148 H6174 0.977 . S
C6149 C6145 1.684 . S
C6149 H6175 0.979 . S
C6149 H6176 0.980 . S
C6149 H6177 0.983 . S
C6150 H6126 0.948 . S
C6150 C6151 1.391 . S
C6150 C6155 1.391 . S
C6151 C6150 1.391 . S
C6151 C6152 1.391 . S
C6152 H6129 0.947 . S
C6152 C6151 1.391 . S
C6152 C6153 1.392 . S
C6153 H6130 0.948 . S
C6153 C6152 1.392 . S
C6153 C6154 1.419 . S
C6154 C6153 1.419 . S
C6154 C6155 1.391 . S
C6154 C6158 1.397 . S
C6155 C6150 1.391 . S
C6155 C6154 1.391 . S
C6155 C6156 1.399 . S
C6156 C6155 1.399 . S
C6156 C6157 1.396 . S
C6156 C6159 1.453 . S
C6156 C6160 1.684 . S
C6157 C6147 1.723 . S
C6157 C6156 1.396 . S
C6157 C6158 1.394 . S
C6158 C6128 1.723 . S
C6158 C6154 1.397 . S
C6158 C6157 1.394 . S
C6159 H6131 0.982 . S
C6159 H6135 0.979 . S
C6159 H6136 0.977 . S
C6159 C6156 1.453 . S
C6160 H6132 0.979 . S
C6160 H6133 0.980 . S
C6160 H6134 0.983 . S
C6160 C6156 1.684 . S
H6161 C6179 0.948 . S
H6162 C6120 0.948 . S
H6163 C6138 0.979 . S
H6164 C6138 0.980 . S
H6165 C6138 0.983 . S
H6166 C6137 0.982 . S
H6167 C6137 0.979 . S
H6168 C6137 0.977 . S
H6169 C6139 0.948 . S
H6170 C6141 0.947 . S
H6171 C6142 0.948 . S
H6172 C6148 0.982 . S
H6173 C6148 0.979 . S
H6174 C6148 0.977 . S
H6175 C6149 0.979 . S
H6176 C6149 0.980 . S
H6177 C6149 0.983 . S
H6178 C6122 0.947 . S
C6179 C6122 1.392 . S
C6179 C6123 1.419 . S
C6179 H6161 0.948 . S
C6180 C6181 1.391 . S
C6180 C6184 1.391 . S
C6180 H6222 0.948 . S
C6181 C6180 1.391 . S
C6181 C6182 1.391 . S
C6182 C6181 1.391 . S
C6182 H6238 0.947 . S
C6182 C6239 1.392 . S
C6183 C6184 1.398 . S
C6183 C6187 1.381 1_554 S
C6183 C6239 1.428 . S
C6184 C6180 1.391 . S
C6184 C6183 1.398 . S
C6184 C6185 1.399 1_554 S
C6185 C6184 1.399 1_556 S
C6185 C6188 1.396 . S
C6185 C6197 1.453 . S
C6185 C6198 1.684 . S
H6186 C6210 0.948 . S
C6187 C6183 1.381 1_556 S
C6187 C6188 1.394 . S
C6187 C6206 1.723 . S
C6188 C6185 1.396 . S
C6188 C6187 1.394 . S
C6188 C6218 1.723 . S
H6189 C6212 0.947 . S
H6190 C6213 0.948 . S
H6191 C6219 0.982 . S
H6192 C6220 0.979 . S
H6193 C6220 0.980 . S
H6194 C6220 0.983 . S
H6195 C6219 0.979 . S
H6196 C6219 0.977 . S
C6197 C6185 1.453 . S
C6197 H6226 0.994 . S
C6197 H6227 0.979 1_556 S
C6197 H6228 0.977 . S
C6198 C6185 1.684 . S
C6198 H6223 0.979 . S
C6198 H6224 0.980 . S
C6198 H6225 0.983 1_556 S
C6199 C6200 1.391 . S
C6199 C6204 1.391 . S
C6199 H6229 0.948 . S
C6200 C6199 1.391 . S
C6200 C6201 1.391 . S
C6201 C6200 1.391 . S
C6201 C6202 1.392 . S
C6201 H6230 0.947 . S
C6202 C6201 1.392 . S
C6202 C6203 1.419 . S
C6202 H6231 0.948 . S
C6203 C6202 1.419 . S
C6203 C6204 1.391 . S
C6203 C6207 1.397 . S
C6204 C6199 1.391 . S
C6204 C6203 1.391 . S
C6204 C6205 1.399 . S
C6205 C6204 1.399 . S
C6205 C6206 1.396 . S
C6205 C6208 1.453 . S
C6205 C6209 1.684 . S
C6206 C6187 1.723 . S
C6206 C6205 1.396 . S
C6206 C6207 1.394 . S
C6207 C6203 1.397 . S
C6207 C6206 1.394 . S
C6207 C6217 1.723 . S
C6208 C6205 1.453 . S
C6208 H6232 0.982 . S
C6208 H6233 0.979 . S
C6208 H6234 0.977 . S
C6209 C6205 1.684 . S
C6209 H6235 0.979 . S
C6209 H6236 0.980 . S
C6209 H6237 0.983 . S
C6210 H6186 0.948 . S
C6210 C6211 1.391 . S
C6210 C6215 1.391 . S
C6211 C6210 1.391 . S
C6211 C6212 1.391 . S
C6212 H6189 0.947 . S
C6212 C6211 1.391 . S
C6212 C6213 1.392 . S
C6213 H6190 0.948 . S
C6213 C6212 1.392 . S
C6213 C6214 1.419 . S
C6214 C6213 1.419 . S
C6214 C6215 1.391 . S
C6214 C6218 1.397 . S
C6215 C6210 1.391 . S
C6215 C6214 1.391 . S
C6215 C6216 1.399 . S
C6216 C6215 1.399 . S
C6216 C6217 1.396 . S
C6216 C6219 1.453 . S
C6216 C6220 1.684 . S
C6217 C6207 1.723 . S
C6217 C6216 1.396 . S
C6217 C6218 1.394 . S
C6218 C6188 1.723 . S
C6218 C6214 1.397 . S
C6218 C6217 1.394 . S
C6219 H6191 0.982 . S
C6219 H6195 0.979 . S
C6219 H6196 0.977 . S
C6219 C6216 1.453 . S
C6220 H6192 0.979 . S
C6220 H6193 0.980 . S
C6220 H6194 0.983 . S
C6220 C6216 1.684 . S
H6221 C6239 0.948 . S
H6222 C6180 0.948 . S
H6223 C6198 0.979 . S
H6224 C6198 0.980 . S
H6225 C6198 0.983 1_554 S
H6226 C6197 0.994 . S
H6227 C6197 0.979 1_554 S
H6228 C6197 0.977 . S
H6229 C6199 0.948 . S
H6230 C6201 0.947 . S
H6231 C6202 0.948 . S
H6232 C6208 0.982 . S
H6233 C6208 0.979 . S
H6234 C6208 0.977 . S
H6235 C6209 0.979 . S
H6236 C6209 0.980 . S
H6237 C6209 0.983 . S
H6238 C6182 0.947 . S
C6239 C6182 1.392 . S
C6239 C6183 1.428 . S
C6239 H6221 0.948 . S
C6240 C6241 1.391 . S
C6240 C6244 1.391 . S
C6240 H6282 0.948 . S
C6241 C6240 1.391 . S
C6241 C6242 1.391 . S
C6242 C6241 1.391 . S
C6242 H6298 0.947 . S
C6242 C6299 1.392 . S
C6243 C6244 1.391 . S
C6243 C6247 1.397 . S
C6243 C6299 1.419 . S
C6244 C6240 1.391 . S
C6244 C6243 1.391 . S
C6244 C6245 1.399 . S
C6245 C6244 1.399 . S
C6245 C6248 1.396 . S
C6245 C6257 1.453 . S
C6245 C6258 1.684 . S
H6246 C6270 0.948 . S
C6247 C6243 1.397 . S
C6247 C6248 1.394 . S
C6247 C6266 1.723 . S
C6248 C6245 1.396 . S
C6248 C6247 1.394 . S
C6248 C6278 1.723 . S
H6249 C6272 0.947 . S
H6250 C6273 0.948 . S
H6251 C6279 0.982 . S
H6252 C6280 0.979 . S
H6253 C6280 0.980 . S
H6254 C6280 0.983 . S
H6255 C6279 0.979 . S
H6256 C6279 0.977 . S
C6257 C6245 1.453 . S
C6257 H6286 0.982 . S
C6257 H6287 0.979 . S
C6257 H6288 0.977 . S
C6258 C6245 1.684 . S
C6258 H6283 0.979 . S
C6258 H6284 0.980 . S
C6258 H6285 0.983 . S
C6259 C6260 1.391 . S
C6259 C6264 1.391 . S
C6259 H6289 0.948 . S
C6260 C6259 1.391 . S
C6260 C6261 1.391 . S
C6261 C6260 1.391 . S
C6261 C6262 1.392 . S
C6261 H6290 0.947 . S
C6262 C6261 1.392 . S
C6262 C6263 1.419 . S
C6262 H6291 0.948 . S
C6263 C6262 1.419 . S
C6263 C6264 1.391 . S
C6263 C6267 1.397 . S
C6264 C6259 1.391 . S
C6264 C6263 1.391 . S
C6264 C6265 1.399 . S
C6265 C6264 1.399 . S
C6265 C6266 1.396 . S
C6265 C6268 1.453 . S
C6265 C6269 1.684 . S
C6266 C6247 1.723 . S
C6266 C6265 1.396 . S
C6266 C6267 1.394 . S
C6267 C6263 1.397 . S
C6267 C6266 1.394 . S
C6267 C6277 1.723 . S
C6268 C6265 1.453 . S
C6268 H6292 0.982 . S
C6268 H6293 0.979 . S
C6268 H6294 0.977 . S
C6269 C6265 1.684 . S
C6269 H6295 0.979 . S
C6269 H6296 0.980 . S
C6269 H6297 0.983 . S
C6270 H6246 0.948 . S
C6270 C6271 1.391 . S
C6270 C6275 1.391 . S
C6271 C6270 1.391 . S
C6271 C6272 1.391 . S
C6272 H6249 0.947 . S
C6272 C6271 1.391 . S
C6272 C6273 1.392 . S
C6273 H6250 0.948 . S
C6273 C6272 1.392 . S
C6273 C6274 1.419 . S
C6274 C6273 1.419 . S
C6274 C6275 1.391 . S
C6274 C6278 1.397 . S
C6275 C6270 1.391 . S
C6275 C6274 1.391 . S
C6275 C6276 1.399 . S
C6276 C6275 1.399 . S
C6276 C6277 1.396 . S
C6276 C6279 1.453 . S
C6276 C6280 1.684 . S
C6277 C6267 1.723 . S
C6277 C6276 1.396 . S
C6277 C6278 1.394 . S
C6278 C6248 1.723 . S
C6278 C6274 1.397 . S
C6278 C6277 1.394 . S
C6279 H6251 0.982 . S
C6279 H6255 0.979 . S
C6279 H6256 0.977 . S
C6279 C6276 1.453 . S
C6280 H6252 0.979 . S
C6280 H6253 0.980 . S
C6280 H6254 0.983 . S
C6280 C6276 1.684 . S
H6281 C6299 0.948 . S
H6282 C6240 0.948 . S
H6283 C6258 0.979 . S
H6284 C6258 0.980 . S
H6285 C6258 0.983 . S
H6286 C6257 0.982 . S
H6287 C6257 0.979 . S
H6288 C6257 0.977 . S
H6289 C6259 0.948 . S
H6290 C6261 0.947 . S
H6291 C6262 0.948 . S
H6292 C6268 0.982 . S
H6293 C6268 0.979 . S
H6294 C6268 0.977 . S
H6295 C6269 0.979 . S
H6296 C6269 0.980 . S
H6297 C6269 0.983 . S
H6298 C6242 0.947 . S
C6299 C6242 1.392 . S
C6299 C6243 1.419 . S
C6299 H6281 0.948 . S
C6300 C6301 1.391 . S
C6300 C6304 1.391 . S
C6300 H6342 0.948 . S
C6301 C6300 1.391 . S
C6301 C6302 1.391 . S
C6302 C6301 1.391 . S
C6302 H6358 0.947 . S
C6302 C6359 1.392 . S
C6303 C6304 1.391 . S
C6303 C6307 1.397 . S
C6303 C6359 1.419 . S
C6304 C6300 1.391 . S
C6304 C6303 1.391 . S
C6304 C6305 1.399 . S
C6305 C6304 1.399 . S
C6305 C6308 1.396 . S
C6305 C6317 1.453 . S
C6305 C6318 1.684 . S
H6306 C6330 0.948 . S
C6307 C6303 1.397 . S
C6307 C6308 1.394 . S
C6307 C6326 1.723 . S
C6308 C6305 1.396 . S
C6308 C6307 1.394 . S
C6308 C6338 1.723 . S
H6309 C6332 0.947 . S
H6310 C6333 0.948 . S
H6311 C6339 0.982 . S
H6312 C6340 0.979 . S
H6313 C6340 0.980 . S
H6314 C6340 0.983 . S
H6315 C6339 0.979 . S
H6316 C6339 0.977 . S
C6317 C6305 1.453 . S
C6317 H6346 0.982 . S
C6317 H6347 0.979 . S
C6317 H6348 0.977 . S
C6318 C6305 1.684 . S
C6318 H6343 0.979 . S
C6318 H6344 0.980 . S
C6318 H6345 0.983 . S
C6319 C6320 1.391 . S
C6319 C6324 1.391 . S
C6319 H6349 0.948 . S
C6320 C6319 1.391 . S
C6320 C6321 1.391 . S
C6321 C6320 1.391 . S
C6321 C6322 1.392 . S
C6321 H6350 0.947 . S
C6322 C6321 1.392 . S
C6322 C6323 1.419 . S
C6322 H6351 0.948 . S
C6323 C6322 1.419 . S
C6323 C6324 1.391 . S
C6323 C6327 1.397 . S
C6324 C6319 1.391 . S
C6324 C6323 1.391 . S
C6324 C6325 1.399 . S
C6325 C6324 1.399 . S
C6325 C6326 1.396 . S
C6325 C6328 1.453 . S
C6325 C6329 1.684 . S
C6326 C6307 1.723 . S
C6326 C6325 1.396 . S
C6326 C6327 1.394 . S
C6327 C6323 1.397 . S
C6327 C6326 1.394 . S
C6327 C6337 1.723 . S
C6328 C6325 1.453 . S
C6328 H6352 0.982 . S
C6328 H6353 0.979 . S
C6328 H6354 0.977 . S
C6329 C6325 1.684 . S
C6329 H6355 0.979 . S
C6329 H6356 0.980 . S
C6329 H6357 0.983 . S
C6330 H6306 0.948 . S
C6330 C6331 1.391 . S
C6330 C6335 1.391 . S
C6331 C6330 1.391 . S
C6331 C6332 1.391 . S
C6332 H6309 0.947 . S
C6332 C6331 1.391 . S
C6332 C6333 1.392 . S
C6333 H6310 0.948 . S
C6333 C6332 1.392 . S
C6333 C6334 1.419 . S
C6334 C6333 1.419 . S
C6334 C6335 1.391 . S
C6334 C6338 1.397 . S
C6335 C6330 1.391 . S
C6335 C6334 1.391 . S
C6335 C6336 1.399 . S
C6336 C6335 1.399 . S
C6336 C6337 1.396 . S
C6336 C6339 1.453 . S
C6336 C6340 1.684 . S
C6337 C6327 1.723 . S
C6337 C6336 1.396 . S
C6337 C6338 1.394 . S
C6338 C6308 1.723 . S
C6338 C6334 1.397 . S
C6338 C6337 1.394 . S
C6339 H6311 0.982 . S
C6339 H6315 0.979 . S
C6339 H6316 0.977 . S
C6339 C6336 1.453 . S
C6340 H6312 0.979 . S
C6340 H6313 0.980 . S
C6340 H6314 0.983 . S
C6340 C6336 1.684 . S
H6341 C6359 0.948 . S
H6342 C6300 0.948 . S
H6343 C6318 0.979 . S
H6344 C6318 0.980 . S
H6345 C6318 0.983 . S
H6346 C6317 0.982 . S
H6347 C6317 0.979 . S
H6348 C6317 0.977 . S
H6349 C6319 0.948 . S
H6350 C6321 0.947 . S
H6351 C6322 0.948 . S
H6352 C6328 0.982 . S
H6353 C6328 0.979 . S
H6354 C6328 0.977 . S
H6355 C6329 0.979 . S
H6356 C6329 0.980 . S
H6357 C6329 0.983 . S
H6358 C6302 0.947 . S
C6359 C6302 1.392 . S
C6359 C6303 1.419 . S
C6359 H6341 0.948 . S
C6360 C6361 1.391 . S
C6360 C6364 1.391 . S
C6360 H6402 0.948 . S
C6361 C6360 1.391 . S
C6361 C6362 1.391 . S
C6362 C6361 1.391 . S
C6362 H6418 0.947 . S
C6362 C6419 1.392 . S
C6363 C6364 1.391 . S
C6363 C6367 1.397 . S
C6363 C6419 1.419 . S
C6364 C6360 1.391 . S
C6364 C6363 1.391 . S
C6364 C6365 1.399 . S
C6365 C6364 1.399 . S
C6365 C6368 1.396 . S
C6365 C6377 1.453 . S
C6365 C6378 1.684 . S
H6366 C6390 0.948 . S
C6367 C6363 1.397 . S
C6367 C6368 1.394 . S
C6367 C6386 1.723 . S
C6368 C6365 1.396 . S
C6368 C6367 1.394 . S
C6368 C6398 1.723 . S
H6369 C6392 0.947 . S
H6370 C6393 0.948 . S
H6371 C6399 0.982 . S
H6372 C6400 0.979 . S
H6373 C6400 0.980 . S
H6374 C6400 0.983 . S
H6375 C6399 0.979 . S
H6376 C6399 0.977 . S
C6377 C6365 1.453 . S
C6377 H6406 0.982 . S
C6377 H6407 0.979 . S
C6377 H6408 0.977 . S
C6378 C6365 1.684 . S
C6378 H6403 0.979 . S
C6378 H6404 0.980 . S
C6378 H6405 0.983 . S
C6379 C6380 1.391 . S
C6379 C6384 1.391 . S
C6379 H6409 0.948 . S
C6380 C6379 1.391 . S
C6380 C6381 1.391 . S
C6381 C6380 1.391 . S
C6381 C6382 1.392 . S
C6381 H6410 0.947 . S
C6382 C6381 1.392 . S
C6382 C6383 1.419 . S
C6382 H6411 0.948 . S
C6383 C6382 1.419 . S
C6383 C6384 1.391 . S
C6383 C6387 1.397 . S
C6384 C6379 1.391 . S
C6384 C6383 1.391 . S
C6384 C6385 1.399 . S
C6385 C6384 1.399 . S
C6385 C6386 1.396 . S
C6385 C6388 1.453 . S
C6385 C6389 1.684 . S
C6386 C6367 1.723 . S
C6386 C6385 1.396 . S
C6386 C6387 1.394 . S
C6387 C6383 1.397 . S
C6387 C6386 1.394 . S
C6387 C6397 1.723 . S
C6388 C6385 1.453 . S
C6388 H6412 0.982 . S
C6388 H6413 0.979 . S
C6388 H6414 0.977 . S
C6389 C6385 1.684 . S
C6389 H6415 0.979 . S
C6389 H6416 0.980 . S
C6389 H6417 0.983 . S
C6390 H6366 0.948 . S
C6390 C6391 1.391 . S
C6390 C6395 1.391 . S
C6391 C6390 1.391 . S
C6391 C6392 1.391 . S
C6392 H6369 0.947 . S
C6392 C6391 1.391 . S
C6392 C6393 1.392 . S
C6393 H6370 0.948 . S
C6393 C6392 1.392 . S
C6393 C6394 1.419 . S
C6394 C6393 1.419 . S
C6394 C6395 1.391 . S
C6394 C6398 1.397 . S
C6395 C6390 1.391 . S
C6395 C6394 1.391 . S
C6395 C6396 1.399 . S
C6396 C6395 1.399 . S
C6396 C6397 1.396 . S
C6396 C6399 1.453 . S
C6396 C6400 1.684 . S
C6397 C6387 1.723 . S
C6397 C6396 1.396 . S
C6397 C6398 1.394 . S
C6398 C6368 1.723 . S
C6398 C6394 1.397 . S
C6398 C6397 1.394 . S
C6399 H6371 0.982 . S
C6399 H6375 0.979 . S
C6399 H6376 0.977 . S
C6399 C6396 1.453 . S
C6400 H6372 0.979 . S
C6400 H6373 0.980 . S
C6400 H6374 0.983 . S
C6400 C6396 1.684 . S
H6401 C6419 0.948 . S
H6402 C6360 0.948 . S
H6403 C6378 0.979 . S
H6404 C6378 0.980 . S
H6405 C6378 0.983 . S
H6406 C6377 0.982 . S
H6407 C6377 0.979 . S
H6408 C6377 0.977 . S
H6409 C6379 0.948 . S
H6410 C6381 0.947 . S
H6411 C6382 0.948 . S
H6412 C6388 0.982 . S
H6413 C6388 0.979 . S
H6414 C6388 0.977 . S
H6415 C6389 0.979 . S
H6416 C6389 0.980 . S
H6417 C6389 0.983 . S
H6418 C6362 0.947 . S
C6419 C6362 1.392 . S
C6419 C6363 1.419 . S
C6419 H6401 0.948 . S
C6420 C6421 1.391 . S
C6420 C6424 1.391 . S
C6420 H6462 0.948 . S
C6421 C6420 1.391 . S
C6421 C6422 1.391 . S
C6422 C6421 1.391 . S
C6422 H6478 0.947 . S
C6422 C6479 1.392 . S
C6423 C6424 1.391 . S
C6423 C6427 1.397 . S
C6423 C6479 1.419 . S
C6424 C6420 1.391 . S
C6424 C6423 1.391 . S
C6424 C6425 1.399 . S
C6425 C6424 1.399 . S
C6425 C6428 1.396 . S
C6425 C6437 1.453 . S
C6425 C6438 1.684 . S
H6426 C6450 0.948 . S
C6427 C6423 1.397 . S
C6427 C6428 1.394 . S
C6427 C6446 1.723 . S
C6428 C6425 1.396 . S
C6428 C6427 1.394 . S
C6428 C6458 1.723 . S
H6429 C6452 0.947 . S
H6430 C6453 0.948 . S
H6431 C6459 0.982 . S
H6432 C6460 0.979 . S
H6433 C6460 0.980 . S
H6434 C6460 0.983 . S
H6435 C6459 0.979 . S
H6436 C6459 0.977 . S
C6437 C6425 1.453 . S
C6437 H6466 0.982 . S
C6437 H6467 0.979 . S
C6437 H6468 0.977 . S
C6438 C6425 1.684 . S
C6438 H6463 0.979 . S
C6438 H6464 0.980 . S
C6438 H6465 0.983 . S
C6439 C6440 1.391 . S
C6439 C6444 1.391 . S
C6439 H6469 0.948 . S
C6440 C6439 1.391 . S
C6440 C6441 1.391 . S
C6441 C6440 1.391 . S
C6441 C6442 1.392 . S
C6441 H6470 0.947 . S
C6442 C6441 1.392 . S
C6442 C6443 1.419 . S
C6442 H6471 0.948 . S
C6443 C6442 1.419 . S
C6443 C6444 1.391 . S
C6443 C6447 1.397 . S
C6444 C6439 1.391 . S
C6444 C6443 1.391 . S
C6444 C6445 1.399 . S
C6445 C6444 1.399 . S
C6445 C6446 1.396 . S
C6445 C6448 1.453 . S
C6445 C6449 1.684 . S
C6446 C6427 1.723 . S
C6446 C6445 1.396 . S
C6446 C6447 1.394 . S
C6447 C6443 1.397 . S
C6447 C6446 1.394 . S
C6447 C6457 1.723 . S
C6448 C6445 1.453 . S
C6448 H6472 0.982 . S
C6448 H6473 0.979 . S
C6448 H6474 0.977 . S
C6449 C6445 1.684 . S
C6449 H6475 0.979 . S
C6449 H6476 0.980 . S
C6449 H6477 0.983 . S
C6450 H6426 0.948 . S
C6450 C6451 1.391 . S
C6450 C6455 1.391 . S
C6451 C6450 1.391 . S
C6451 C6452 1.391 . S
C6452 H6429 0.947 . S
C6452 C6451 1.391 . S
C6452 C6453 1.392 . S
C6453 H6430 0.948 . S
C6453 C6452 1.392 . S
C6453 C6454 1.419 . S
C6454 C6453 1.419 . S
C6454 C6455 1.391 . S
C6454 C6458 1.397 . S
C6455 C6450 1.391 . S
C6455 C6454 1.391 . S
C6455 C6456 1.399 . S
C6456 C6455 1.399 . S
C6456 C6457 1.396 . S
C6456 C6459 1.453 . S
C6456 C6460 1.684 . S
C6457 C6447 1.723 . S
C6457 C6456 1.396 . S
C6457 C6458 1.394 . S
C6458 C6428 1.723 . S
C6458 C6454 1.397 . S
C6458 C6457 1.394 . S
C6459 H6431 0.982 . S
C6459 H6435 0.979 . S
C6459 H6436 0.977 . S
C6459 C6456 1.453 . S
C6460 H6432 0.979 . S
C6460 H6433 0.980 . S
C6460 H6434 0.983 . S
C6460 C6456 1.684 . S
H6461 C6479 0.948 . S
H6462 C6420 0.948 . S
H6463 C6438 0.979 . S
H6464 C6438 0.980 . S
H6465 C6438 0.983 . S
H6466 C6437 0.982 . S
H6467 C6437 0.979 . S
H6468 C6437 0.977 . S
H6469 C6439 0.948 . S
H6470 C6441 0.947 . S
H6471 C6442 0.948 . S
H6472 C6448 0.982 . S
H6473 C6448 0.979 . S
H6474 C6448 0.977 . S
H6475 C6449 0.979 . S
H6476 C6449 0.980 . S
H6477 C6449 0.983 . S
H6478 C6422 0.947 . S
C6479 C6422 1.392 . S
C6479 C6423 1.419 . S
C6479 H6461 0.948 . S
C6480 C6481 1.391 . S
C6480 C6484 1.391 . S
C6480 H6522 0.948 . S
C6481 C6480 1.391 . S
C6481 C6482 1.391 . S
C6482 C6481 1.391 . S
C6482 H6538 0.947 . S
C6482 C6539 1.392 . S
C6483 C6484 1.391 . S
C6483 C6487 1.397 . S
C6483 C6539 1.419 . S
C6484 C6480 1.391 . S
C6484 C6483 1.391 . S
C6484 C6485 1.399 . S
C6485 C6484 1.399 . S
C6485 C6488 1.396 . S
C6485 C6497 1.453 . S
C6485 C6498 1.684 . S
H6486 C6510 0.948 . S
C6487 C6483 1.397 . S
C6487 C6488 1.394 . S
C6487 C6506 1.723 . S
C6488 C6485 1.396 . S
C6488 C6487 1.394 . S
C6488 C6518 1.723 . S
H6489 C6512 0.947 . S
H6490 C6513 0.948 . S
H6491 C6519 0.982 . S
H6492 C6520 0.979 . S
H6493 C6520 0.980 . S
H6494 C6520 0.983 . S
H6495 C6519 0.979 . S
H6496 C6519 0.977 . S
C6497 C6485 1.453 . S
C6497 H6526 0.982 . S
C6497 H6527 0.979 . S
C6497 H6528 0.977 . S
C6498 C6485 1.684 . S
C6498 H6523 0.979 . S
C6498 H6524 0.980 . S
C6498 H6525 0.983 . S
C6499 C6500 1.391 . S
C6499 C6504 1.391 . S
C6499 H6529 0.948 . S
C6500 C6499 1.391 . S
C6500 C6501 1.391 . S
C6501 C6500 1.391 . S
C6501 C6502 1.392 . S
C6501 H6530 0.947 . S
C6502 C6501 1.392 . S
C6502 C6503 1.419 . S
C6502 H6531 0.948 . S
C6503 C6502 1.419 . S
C6503 C6504 1.391 . S
C6503 C6507 1.397 . S
C6504 C6499 1.391 . S
C6504 C6503 1.391 . S
C6504 C6505 1.399 . S
C6505 C6504 1.399 . S
C6505 C6506 1.396 . S
C6505 C6508 1.453 . S
C6505 C6509 1.684 . S
C6506 C6487 1.723 . S
C6506 C6505 1.396 . S
C6506 C6507 1.394 . S
C6507 C6503 1.397 . S
C6507 C6506 1.394 . S
C6507 C6517 1.723 . S
C6508 C6505 1.453 . S
C6508 H6532 0.982 . S
C6508 H6533 0.979 . S
C6508 H6534 0.977 . S
C6509 C6505 1.684 . S
C6509 H6535 0.979 . S
C6509 H6536 0.980 . S
C6509 H6537 0.983 . S
C6510 H6486 0.948 . S
C6510 C6511 1.391 . S
C6510 C6515 1.391 . S
C6511 C6510 1.391 . S
C6511 C6512 1.391 . S
C6512 H6489 0.947 . S
C6512 C6511 1.391 . S
C6512 C6513 1.392 . S
C6513 H6490 0.948 . S
C6513 C6512 1.392 . S
C6513 C6514 1.419 . S
C6514 C6513 1.419 . S
C6514 C6515 1.391 . S
C6514 C6518 1.397 . S
C6515 C6510 1.391 . S
C6515 C6514 1.391 . S
C6515 C6516 1.399 . S
C6516 C6515 1.399 . S
C6516 C6517 1.396 . S
C6516 C6519 1.453 . S
C6516 C6520 1.684 . S
C6517 C6507 1.723 . S
C6517 C6516 1.396 . S
C6517 C6518 1.394 . S
C6518 C6488 1.723 . S
C6518 C6514 1.397 . S
C6518 C6517 1.394 . S
C6519 H6491 0.982 . S
C6519 H6495 0.979 . S
C6519 H6496 0.977 . S
C6519 C6516 1.453 . S
C6520 H6492 0.979 . S
C6520 H6493 0.980 . S
C6520 H6494 0.983 . S
C6520 C6516 1.684 . S
H6521 C6539 0.948 . S
H6522 C6480 0.948 . S
H6523 C6498 0.979 . S
H6524 C6498 0.980 . S
H6525 C6498 0.983 . S
H6526 C6497 0.982 . S
H6527 C6497 0.979 . S
H6528 C6497 0.977 . S
H6529 C6499 0.948 . S
H6530 C6501 0.947 . S
H6531 C6502 0.948 . S
H6532 C6508 0.982 . S
H6533 C6508 0.979 . S
H6534 C6508 0.977 . S
H6535 C6509 0.979 . S
H6536 C6509 0.980 . S
H6537 C6509 0.983 . S
H6538 C6482 0.947 . S
C6539 C6482 1.392 . S
C6539 C6483 1.419 . S
C6539 H6521 0.948 . S
C6540 C6541 1.391 . S
C6540 C6544 1.391 . S
C6540 H6582 0.948 . S
C6541 C6540 1.391 . S
C6541 C6542 1.391 . S
C6542 C6541 1.391 . S
C6542 H6598 0.947 . S
C6542 C6599 1.392 . S
C6543 C6544 1.391 . S
C6543 C6547 1.397 . S
C6543 C6599 1.419 . S
C6544 C6540 1.391 . S
C6544 C6543 1.391 . S
C6544 C6545 1.399 . S
C6545 C6544 1.399 . S
C6545 C6548 1.396 . S
C6545 C6557 1.453 . S
C6545 C6558 1.684 . S
H6546 C6570 0.948 . S
C6547 C6543 1.397 . S
C6547 C6548 1.394 . S
C6547 C6566 1.723 . S
C6548 C6545 1.396 . S
C6548 C6547 1.394 . S
C6548 C6578 1.723 . S
H6549 C6572 0.947 . S
H6550 C6573 0.948 . S
H6551 C6579 0.982 . S
H6552 C6580 0.979 . S
H6553 C6580 0.980 . S
H6554 C6580 0.983 . S
H6555 C6579 0.979 . S
H6556 C6579 0.977 . S
C6557 C6545 1.453 . S
C6557 H6586 0.982 . S
C6557 H6587 0.979 . S
C6557 H6588 0.977 . S
C6558 C6545 1.684 . S
C6558 H6583 0.979 . S
C6558 H6584 0.980 . S
C6558 H6585 0.983 . S
C6559 C6560 1.391 . S
C6559 C6564 1.391 . S
C6559 H6589 0.948 . S
C6560 C6559 1.391 . S
C6560 C6561 1.391 . S
C6561 C6560 1.391 . S
C6561 C6562 1.392 . S
C6561 H6590 0.947 . S
C6562 C6561 1.392 . S
C6562 C6563 1.419 . S
C6562 H6591 0.948 . S
C6563 C6562 1.419 . S
C6563 C6564 1.391 . S
C6563 C6567 1.397 . S
C6564 C6559 1.391 . S
C6564 C6563 1.391 . S
C6564 C6565 1.399 . S
C6565 C6564 1.399 . S
C6565 C6566 1.396 . S
C6565 C6568 1.453 . S
C6565 C6569 1.684 . S
C6566 C6547 1.723 . S
C6566 C6565 1.396 . S
C6566 C6567 1.394 . S
C6567 C6563 1.397 . S
C6567 C6566 1.394 . S
C6567 C6577 1.723 . S
C6568 C6565 1.453 . S
C6568 H6592 0.982 . S
C6568 H6593 0.979 . S
C6568 H6594 0.977 . S
C6569 C6565 1.684 . S
C6569 H6595 0.979 . S
C6569 H6596 0.980 . S
C6569 H6597 0.983 . S
C6570 H6546 0.948 . S
C6570 C6571 1.391 . S
C6570 C6575 1.391 . S
C6571 C6570 1.391 . S
C6571 C6572 1.391 . S
C6572 H6549 0.947 . S
C6572 C6571 1.391 . S
C6572 C6573 1.392 . S
C6573 H6550 0.948 . S
C6573 C6572 1.392 . S
C6573 C6574 1.419 . S
C6574 C6573 1.419 . S
C6574 C6575 1.391 . S
C6574 C6578 1.397 . S
C6575 C6570 1.391 . S
C6575 C6574 1.391 . S
C6575 C6576 1.399 . S
C6576 C6575 1.399 . S
C6576 C6577 1.396 . S
C6576 C6579 1.453 . S
C6576 C6580 1.684 . S
C6577 C6567 1.723 . S
C6577 C6576 1.396 . S
C6577 C6578 1.394 . S
C6578 C6548 1.723 . S
C6578 C6574 1.397 . S
C6578 C6577 1.394 . S
C6579 H6551 0.982 . S
C6579 H6555 0.979 . S
C6579 H6556 0.977 . S
C6579 C6576 1.453 . S
C6580 H6552 0.979 . S
C6580 H6553 0.980 . S
C6580 H6554 0.983 . S
C6580 C6576 1.684 . S
H6581 C6599 0.948 . S
H6582 C6540 0.948 . S
H6583 C6558 0.979 . S
H6584 C6558 0.980 . S
H6585 C6558 0.983 . S
H6586 C6557 0.982 . S
H6587 C6557 0.979 . S
H6588 C6557 0.977 . S
H6589 C6559 0.948 . S
H6590 C6561 0.947 . S
H6591 C6562 0.948 . S
H6592 C6568 0.982 . S
H6593 C6568 0.979 . S
H6594 C6568 0.977 . S
H6595 C6569 0.979 . S
H6596 C6569 0.980 . S
H6597 C6569 0.983 . S
H6598 C6542 0.947 . S
C6599 C6542 1.392 . S
C6599 C6543 1.419 . S
C6599 H6581 0.948 . S
C6600 C6601 1.391 . S
C6600 C6604 1.391 . S
C6600 H6642 0.948 . S
C6601 C6600 1.391 . S
C6601 C6602 1.391 . S
C6602 C6601 1.391 . S
C6602 H6658 0.947 . S
C6602 C6659 1.392 . S
C6603 C6604 1.391 . S
C6603 C6607 1.397 . S
C6603 C6659 1.419 . S
C6604 C6600 1.391 . S
C6604 C6603 1.391 . S
C6604 C6605 1.399 . S
C6605 C6604 1.399 . S
C6605 C6608 1.396 . S
C6605 C6617 1.453 . S
C6605 C6618 1.684 . S
H6606 C6630 0.948 . S
C6607 C6603 1.397 . S
C6607 C6608 1.394 . S
C6607 C6626 1.723 . S
C6608 C6605 1.396 . S
C6608 C6607 1.394 . S
C6608 C6638 1.723 . S
H6609 C6632 0.947 . S
H6610 C6633 0.948 . S
H6611 C6639 0.982 . S
H6612 C6640 0.979 . S
H6613 C6640 0.980 . S
H6614 C6640 0.983 . S
H6615 C6639 0.979 . S
H6616 C6639 0.977 . S
C6617 C6605 1.453 . S
C6617 H6646 0.982 . S
C6617 H6647 0.979 . S
C6617 H6648 0.977 . S
C6618 C6605 1.684 . S
C6618 H6643 0.979 . S
C6618 H6644 0.980 . S
C6618 H6645 0.983 . S
C6619 C6620 1.391 . S
C6619 C6624 1.391 . S
C6619 H6649 0.948 . S
C6620 C6619 1.391 . S
C6620 C6621 1.391 . S
C6621 C6620 1.391 . S
C6621 C6622 1.392 . S
C6621 H6650 0.947 . S
C6622 C6621 1.392 . S
C6622 C6623 1.419 . S
C6622 H6651 0.948 . S
C6623 C6622 1.419 . S
C6623 C6624 1.391 . S
C6623 C6627 1.397 . S
C6624 C6619 1.391 . S
C6624 C6623 1.391 . S
C6624 C6625 1.399 . S
C6625 C6624 1.399 . S
C6625 C6626 1.396 . S
C6625 C6628 1.453 . S
C6625 C6629 1.684 . S
C6626 C6607 1.723 . S
C6626 C6625 1.396 . S
C6626 C6627 1.394 . S
C6627 C6623 1.397 . S
C6627 C6626 1.394 . S
C6627 C6637 1.723 . S
C6628 C6625 1.453 . S
C6628 H6652 0.982 . S
C6628 H6653 0.979 . S
C6628 H6654 0.977 . S
C6629 C6625 1.684 . S
C6629 H6655 0.979 . S
C6629 H6656 0.980 . S
C6629 H6657 0.983 . S
C6630 H6606 0.948 . S
C6630 C6631 1.391 . S
C6630 C6635 1.391 . S
C6631 C6630 1.391 . S
C6631 C6632 1.391 . S
C6632 H6609 0.947 . S
C6632 C6631 1.391 . S
C6632 C6633 1.392 . S
C6633 H6610 0.948 . S
C6633 C6632 1.392 . S
C6633 C6634 1.419 . S
C6634 C6633 1.419 . S
C6634 C6635 1.391 . S
C6634 C6638 1.397 . S
C6635 C6630 1.391 . S
C6635 C6634 1.391 . S
C6635 C6636 1.399 . S
C6636 C6635 1.399 . S
C6636 C6637 1.396 . S
C6636 C6639 1.453 . S
C6636 C6640 1.684 . S
C6637 C6627 1.723 . S
C6637 C6636 1.396 . S
C6637 C6638 1.394 . S
C6638 C6608 1.723 . S
C6638 C6634 1.397 . S
C6638 C6637 1.394 . S
C6639 H6611 0.982 . S
C6639 H6615 0.979 . S
C6639 H6616 0.977 . S
C6639 C6636 1.453 . S
C6640 H6612 0.979 . S
C6640 H6613 0.980 . S
C6640 H6614 0.983 . S
C6640 C6636 1.684 . S
H6641 C6659 0.948 . S
H6642 C6600 0.948 . S
H6643 C6618 0.979 . S
H6644 C6618 0.980 . S
H6645 C6618 0.983 . S
H6646 C6617 0.982 . S
H6647 C6617 0.979 . S
H6648 C6617 0.977 . S
H6649 C6619 0.948 . S
H6650 C6621 0.947 . S
H6651 C6622 0.948 . S
H6652 C6628 0.982 . S
H6653 C6628 0.979 . S
H6654 C6628 0.977 . S
H6655 C6629 0.979 . S
H6656 C6629 0.980 . S
H6657 C6629 0.983 . S
H6658 C6602 0.947 . S
C6659 C6602 1.392 . S
C6659 C6603 1.419 . S
C6659 H6641 0.948 . S
C6660 C6661 1.391 . S
C6660 C6664 1.391 . S
C6660 H6702 0.948 . S
C6661 C6660 1.391 . S
C6661 C6662 1.391 . S
C6662 C6661 1.391 . S
C6662 H6718 0.947 . S
C6662 C6719 1.392 . S
C6663 C6664 1.391 . S
C6663 C6667 1.397 . S
C6663 C6719 1.419 . S
C6664 C6660 1.391 . S
C6664 C6663 1.391 . S
C6664 C6665 1.399 . S
C6665 C6664 1.399 . S
C6665 C6668 1.396 . S
C6665 C6677 1.453 . S
C6665 C6678 1.684 . S
H6666 C6690 0.948 . S
C6667 C6663 1.397 . S
C6667 C6668 1.394 . S
C6667 C6686 1.723 . S
C6668 C6665 1.396 . S
C6668 C6667 1.394 . S
C6668 C6698 1.723 . S
H6669 C6692 0.947 . S
H6670 C6693 0.948 . S
H6671 C6699 0.982 . S
H6672 C6700 0.979 . S
H6673 C6700 0.980 . S
H6674 C6700 0.983 . S
H6675 C6699 0.979 . S
H6676 C6699 0.977 . S
C6677 C6665 1.453 . S
C6677 H6706 0.982 . S
C6677 H6707 0.979 . S
C6677 H6708 0.977 . S
C6678 C6665 1.684 . S
C6678 H6703 0.979 . S
C6678 H6704 0.980 . S
C6678 H6705 0.983 . S
C6679 C6680 1.391 . S
C6679 C6684 1.391 . S
C6679 H6709 0.948 . S
C6680 C6679 1.391 . S
C6680 C6681 1.391 . S
C6681 C6680 1.391 . S
C6681 C6682 1.392 . S
C6681 H6710 0.947 . S
C6682 C6681 1.392 . S
C6682 C6683 1.419 . S
C6682 H6711 0.948 . S
C6683 C6682 1.419 . S
C6683 C6684 1.391 . S
C6683 C6687 1.397 . S
C6684 C6679 1.391 . S
C6684 C6683 1.391 . S
C6684 C6685 1.399 . S
C6685 C6684 1.399 . S
C6685 C6686 1.396 . S
C6685 C6688 1.453 . S
C6685 C6689 1.684 . S
C6686 C6667 1.723 . S
C6686 C6685 1.396 . S
C6686 C6687 1.394 . S
C6687 C6683 1.397 . S
C6687 C6686 1.394 . S
C6687 C6697 1.723 . S
C6688 C6685 1.453 . S
C6688 H6712 0.982 . S
C6688 H6713 0.979 . S
C6688 H6714 0.977 . S
C6689 C6685 1.684 . S
C6689 H6715 0.979 . S
C6689 H6716 0.980 . S
C6689 H6717 0.983 . S
C6690 H6666 0.948 . S
C6690 C6691 1.391 . S
C6690 C6695 1.391 . S
C6691 C6690 1.391 . S
C6691 C6692 1.391 . S
C6692 H6669 0.947 . S
C6692 C6691 1.391 . S
C6692 C6693 1.392 . S
C6693 H6670 0.948 . S
C6693 C6692 1.392 . S
C6693 C6694 1.419 . S
C6694 C6693 1.419 . S
C6694 C6695 1.391 . S
C6694 C6698 1.397 . S
C6695 C6690 1.391 . S
C6695 C6694 1.391 . S
C6695 C6696 1.399 . S
C6696 C6695 1.399 . S
C6696 C6697 1.396 . S
C6696 C6699 1.453 . S
C6696 C6700 1.684 . S
C6697 C6687 1.723 . S
C6697 C6696 1.396 . S
C6697 C6698 1.394 . S
C6698 C6668 1.723 . S
C6698 C6694 1.397 . S
C6698 C6697 1.394 . S
C6699 H6671 0.982 . S
C6699 H6675 0.979 . S
C6699 H6676 0.977 . S
C6699 C6696 1.453 . S
C6700 H6672 0.979 . S
C6700 H6673 0.980 . S
C6700 H6674 0.983 . S
C6700 C6696 1.684 . S
H6701 C6719 0.948 . S
H6702 C6660 0.948 . S
H6703 C6678 0.979 . S
H6704 C6678 0.980 . S
H6705 C6678 0.983 . S
H6706 C6677 0.982 . S
H6707 C6677 0.979 . S
H6708 C6677 0.977 . S
H6709 C6679 0.948 . S
H6710 C6681 0.947 . S
H6711 C6682 0.948 . S
H6712 C6688 0.982 . S
H6713 C6688 0.979 . S
H6714 C6688 0.977 . S
H6715 C6689 0.979 . S
H6716 C6689 0.980 . S
H6717 C6689 0.983 . S
H6718 C6662 0.947 . S
C6719 C6662 1.392 . S
C6719 C6663 1.419 . S
C6719 H6701 0.948 . S
C6720 C6721 1.391 . S
C6720 C6724 1.391 . S
C6720 H6762 0.948 . S
C6721 C6720 1.391 . S
C6721 C6722 1.391 . S
C6722 C6721 1.391 . S
C6722 H6778 0.947 . S
C6722 C6779 1.392 . S
C6723 C6724 1.391 . S
C6723 C6727 1.397 . S
C6723 C6779 1.419 . S
C6724 C6720 1.391 . S
C6724 C6723 1.391 . S
C6724 C6725 1.399 . S
C6725 C6724 1.399 . S
C6725 C6728 1.396 . S
C6725 C6737 1.453 . S
C6725 C6738 1.684 . S
H6726 C6750 0.948 . S
C6727 C6723 1.397 . S
C6727 C6728 1.394 . S
C6727 C6746 1.723 . S
C6728 C6725 1.396 . S
C6728 C6727 1.394 . S
C6728 C6758 1.723 . S
H6729 C6752 0.947 . S
H6730 C6753 0.948 . S
H6731 C6759 0.982 . S
H6732 C6760 0.979 . S
H6733 C6760 0.980 . S
H6734 C6760 0.983 . S
H6735 C6759 0.979 . S
H6736 C6759 0.977 . S
C6737 C6725 1.453 . S
C6737 H6766 0.982 . S
C6737 H6767 0.979 . S
C6737 H6768 0.977 . S
C6738 C6725 1.684 . S
C6738 H6763 0.979 . S
C6738 H6764 0.980 . S
C6738 H6765 0.983 . S
C6739 C6740 1.391 . S
C6739 C6744 1.391 . S
C6739 H6769 0.948 . S
C6740 C6739 1.391 . S
C6740 C6741 1.391 . S
C6741 C6740 1.391 . S
C6741 C6742 1.392 . S
C6741 H6770 0.947 . S
C6742 C6741 1.392 . S
C6742 C6743 1.419 . S
C6742 H6771 0.948 . S
C6743 C6742 1.419 . S
C6743 C6744 1.391 . S
C6743 C6747 1.397 . S
C6744 C6739 1.391 . S
C6744 C6743 1.391 . S
C6744 C6745 1.399 . S
C6745 C6744 1.399 . S
C6745 C6746 1.396 . S
C6745 C6748 1.453 . S
C6745 C6749 1.684 . S
C6746 C6727 1.723 . S
C6746 C6745 1.396 . S
C6746 C6747 1.394 . S
C6747 C6743 1.397 . S
C6747 C6746 1.394 . S
C6747 C6757 1.723 . S
C6748 C6745 1.453 . S
C6748 H6772 0.982 . S
C6748 H6773 0.979 . S
C6748 H6774 0.977 . S
C6749 C6745 1.684 . S
C6749 H6775 0.979 . S
C6749 H6776 0.980 . S
C6749 H6777 0.983 . S
C6750 H6726 0.948 . S
C6750 C6751 1.391 . S
C6750 C6755 1.391 . S
C6751 C6750 1.391 . S
C6751 C6752 1.391 . S
C6752 H6729 0.947 . S
C6752 C6751 1.391 . S
C6752 C6753 1.392 . S
C6753 H6730 0.948 . S
C6753 C6752 1.392 . S
C6753 C6754 1.419 . S
C6754 C6753 1.419 . S
C6754 C6755 1.391 . S
C6754 C6758 1.397 . S
C6755 C6750 1.391 . S
C6755 C6754 1.391 . S
C6755 C6756 1.399 . S
C6756 C6755 1.399 . S
C6756 C6757 1.396 . S
C6756 C6759 1.453 . S
C6756 C6760 1.684 . S
C6757 C6747 1.723 . S
C6757 C6756 1.396 . S
C6757 C6758 1.394 . S
C6758 C6728 1.723 . S
C6758 C6754 1.397 . S
C6758 C6757 1.394 . S
C6759 H6731 0.982 . S
C6759 H6735 0.979 . S
C6759 H6736 0.977 . S
C6759 C6756 1.453 . S
C6760 H6732 0.979 . S
C6760 H6733 0.980 . S
C6760 H6734 0.983 . S
C6760 C6756 1.684 . S
H6761 C6779 0.948 . S
H6762 C6720 0.948 . S
H6763 C6738 0.979 . S
H6764 C6738 0.980 . S
H6765 C6738 0.983 . S
H6766 C6737 0.982 . S
H6767 C6737 0.979 . S
H6768 C6737 0.977 . S
H6769 C6739 0.948 . S
H6770 C6741 0.947 . S
H6771 C6742 0.948 . S
H6772 C6748 0.982 . S
H6773 C6748 0.979 . S
H6774 C6748 0.977 . S
H6775 C6749 0.979 . S
H6776 C6749 0.980 . S
H6777 C6749 0.983 . S
H6778 C6722 0.947 . S
C6779 C6722 1.392 . S
C6779 C6723 1.419 . S
C6779 H6761 0.948 . S
C6780 C6781 1.391 . S
C6780 C6784 1.391 . S
C6780 H6822 0.948 . S
C6781 C6780 1.391 . S
C6781 C6782 1.391 . S
C6782 C6781 1.391 . S
C6782 H6838 0.947 . S
C6782 C6839 1.392 . S
C6783 C6784 1.391 . S
C6783 C6787 1.397 . S
C6783 C6839 1.419 . S
C6784 C6780 1.391 . S
C6784 C6783 1.391 . S
C6784 C6785 1.399 . S
C6785 C6784 1.399 . S
C6785 C6788 1.396 . S
C6785 C6797 1.453 . S
C6785 C6798 1.684 . S
H6786 C6810 0.948 . S
C6787 C6783 1.397 . S
C6787 C6788 1.394 . S
C6787 C6806 1.723 . S
C6788 C6785 1.396 . S
C6788 C6787 1.394 . S
C6788 C6818 1.723 . S
H6789 C6812 0.947 . S
H6790 C6813 0.948 . S
H6791 C6819 0.982 . S
H6792 C6820 0.979 . S
H6793 C6820 0.980 . S
H6794 C6820 0.983 . S
H6795 C6819 0.979 . S
H6796 C6819 0.977 . S
C6797 C6785 1.453 . S
C6797 H6826 0.982 . S
C6797 H6827 0.979 . S
C6797 H6828 0.977 . S
C6798 C6785 1.684 . S
C6798 H6823 0.979 . S
C6798 H6824 0.980 . S
C6798 H6825 0.983 . S
C6799 C6800 1.391 . S
C6799 C6804 1.391 . S
C6799 H6829 0.948 . S
C6800 C6799 1.391 . S
C6800 C6801 1.391 . S
C6801 C6800 1.391 . S
C6801 C6802 1.392 . S
C6801 H6830 0.947 . S
C6802 C6801 1.392 . S
C6802 C6803 1.419 . S
C6802 H6831 0.948 . S
C6803 C6802 1.419 . S
C6803 C6804 1.391 . S
C6803 C6807 1.397 . S
C6804 C6799 1.391 . S
C6804 C6803 1.391 . S
C6804 C6805 1.399 . S
C6805 C6804 1.399 . S
C6805 C6806 1.396 . S
C6805 C6808 1.453 . S
C6805 C6809 1.684 . S
C6806 C6787 1.723 . S
C6806 C6805 1.396 . S
C6806 C6807 1.394 . S
C6807 C6803 1.397 . S
C6807 C6806 1.394 . S
C6807 C6817 1.723 . S
C6808 C6805 1.453 . S
C6808 H6832 0.982 . S
C6808 H6833 0.979 . S
C6808 H6834 0.977 . S
C6809 C6805 1.684 . S
C6809 H6835 0.979 . S
C6809 H6836 0.980 . S
C6809 H6837 0.983 . S
C6810 H6786 0.948 . S
C6810 C6811 1.391 . S
C6810 C6815 1.391 . S
C6811 C6810 1.391 . S
C6811 C6812 1.391 . S
C6812 H6789 0.947 . S
C6812 C6811 1.391 . S
C6812 C6813 1.392 . S
C6813 H6790 0.948 . S
C6813 C6812 1.392 . S
C6813 C6814 1.419 . S
C6814 C6813 1.419 . S
C6814 C6815 1.391 . S
C6814 C6818 1.397 . S
C6815 C6810 1.391 . S
C6815 C6814 1.391 . S
C6815 C6816 1.399 . S
C6816 C6815 1.399 . S
C6816 C6817 1.396 . S
C6816 C6819 1.453 . S
C6816 C6820 1.684 . S
C6817 C6807 1.723 . S
C6817 C6816 1.396 . S
C6817 C6818 1.394 . S
C6818 C6788 1.723 . S
C6818 C6814 1.397 . S
C6818 C6817 1.394 . S
C6819 H6791 0.982 . S
C6819 H6795 0.979 . S
C6819 H6796 0.977 . S
C6819 C6816 1.453 . S
C6820 H6792 0.979 . S
C6820 H6793 0.980 . S
C6820 H6794 0.983 . S
C6820 C6816 1.684 . S
H6821 C6839 0.948 . S
H6822 C6780 0.948 . S
H6823 C6798 0.979 . S
H6824 C6798 0.980 . S
H6825 C6798 0.983 . S
H6826 C6797 0.982 . S
H6827 C6797 0.979 . S
H6828 C6797 0.977 . S
H6829 C6799 0.948 . S
H6830 C6801 0.947 . S
H6831 C6802 0.948 . S
H6832 C6808 0.982 . S
H6833 C6808 0.979 . S
H6834 C6808 0.977 . S
H6835 C6809 0.979 . S
H6836 C6809 0.980 . S
H6837 C6809 0.983 . S
H6838 C6782 0.947 . S
C6839 C6782 1.392 . S
C6839 C6783 1.419 . S
C6839 H6821 0.948 . S
C6840 C6841 1.391 . S
C6840 C6844 1.391 . S
C6840 H6882 0.948 . S
C6841 C6840 1.391 . S
C6841 C6842 1.391 . S
C6842 C6841 1.391 . S
C6842 H6898 0.947 . S
C6842 C6899 1.392 . S
C6843 C6844 1.391 . S
C6843 C6847 1.397 . S
C6843 C6899 1.419 . S
C6844 C6840 1.391 . S
C6844 C6843 1.391 . S
C6844 C6845 1.399 . S
C6845 C6844 1.399 . S
C6845 C6848 1.396 . S
C6845 C6857 1.453 . S
C6845 C6858 1.684 . S
H6846 C6870 0.948 . S
C6847 C6843 1.397 . S
C6847 C6848 1.394 . S
C6847 C6866 1.723 . S
C6848 C6845 1.396 . S
C6848 C6847 1.394 . S
C6848 C6878 1.723 . S
H6849 C6872 0.947 . S
H6850 C6873 0.948 . S
H6851 C6879 0.982 . S
H6852 C6880 0.979 . S
H6853 C6880 0.980 . S
H6854 C6880 0.983 . S
H6855 C6879 0.979 . S
H6856 C6879 0.977 . S
C6857 C6845 1.453 . S
C6857 H6886 0.982 . S
C6857 H6887 0.979 . S
C6857 H6888 0.977 . S
C6858 C6845 1.684 . S
C6858 H6883 0.979 . S
C6858 H6884 0.980 . S
C6858 H6885 0.983 . S
C6859 C6860 1.391 . S
C6859 C6864 1.391 . S
C6859 H6889 0.948 . S
C6860 C6859 1.391 . S
C6860 C6861 1.391 . S
C6861 C6860 1.391 . S
C6861 C6862 1.392 . S
C6861 H6890 0.947 . S
C6862 C6861 1.392 . S
C6862 C6863 1.419 . S
C6862 H6891 0.948 . S
C6863 C6862 1.419 . S
C6863 C6864 1.391 . S
C6863 C6867 1.397 . S
C6864 C6859 1.391 . S
C6864 C6863 1.391 . S
C6864 C6865 1.399 . S
C6865 C6864 1.399 . S
C6865 C6866 1.396 . S
C6865 C6868 1.453 . S
C6865 C6869 1.684 . S
C6866 C6847 1.723 . S
C6866 C6865 1.396 . S
C6866 C6867 1.394 . S
C6867 C6863 1.397 . S
C6867 C6866 1.394 . S
C6867 C6877 1.723 . S
C6868 C6865 1.453 . S
C6868 H6892 0.982 . S
C6868 H6893 0.979 . S
C6868 H6894 0.977 . S
C6869 C6865 1.684 . S
C6869 H6895 0.979 . S
C6869 H6896 0.980 . S
C6869 H6897 0.983 . S
C6870 H6846 0.948 . S
C6870 C6871 1.391 . S
C6870 C6875 1.391 . S
C6871 C6870 1.391 . S
C6871 C6872 1.391 . S
C6872 H6849 0.947 . S
C6872 C6871 1.391 . S
C6872 C6873 1.392 . S
C6873 H6850 0.948 . S
C6873 C6872 1.392 . S
C6873 C6874 1.419 . S
C6874 C6873 1.419 . S
C6874 C6875 1.391 . S
C6874 C6878 1.397 . S
C6875 C6870 1.391 . S
C6875 C6874 1.391 . S
C6875 C6876 1.399 . S
C6876 C6875 1.399 . S
C6876 C6877 1.396 . S
C6876 C6879 1.453 . S
C6876 C6880 1.684 . S
C6877 C6867 1.723 . S
C6877 C6876 1.396 . S
C6877 C6878 1.394 . S
C6878 C6848 1.723 . S
C6878 C6874 1.397 . S
C6878 C6877 1.394 . S
C6879 H6851 0.982 . S
C6879 H6855 0.979 . S
C6879 H6856 0.977 . S
C6879 C6876 1.453 . S
C6880 H6852 0.979 . S
C6880 H6853 0.980 . S
C6880 H6854 0.983 . S
C6880 C6876 1.684 . S
H6881 C6899 0.948 . S
H6882 C6840 0.948 . S
H6883 C6858 0.979 . S
H6884 C6858 0.980 . S
H6885 C6858 0.983 . S
H6886 C6857 0.982 . S
H6887 C6857 0.979 . S
H6888 C6857 0.977 . S
H6889 C6859 0.948 . S
H6890 C6861 0.947 . S
H6891 C6862 0.948 . S
H6892 C6868 0.982 . S
H6893 C6868 0.979 . S
H6894 C6868 0.977 . S
H6895 C6869 0.979 . S
H6896 C6869 0.980 . S
H6897 C6869 0.983 . S
H6898 C6842 0.947 . S
C6899 C6842 1.392 . S
C6899 C6843 1.419 . S
C6899 H6881 0.948 . S
C6900 C6901 1.391 . S
C6900 C6904 1.391 1_455 S
C6900 H6942 0.948 . S
C6901 C6900 1.391 . S
C6901 C6902 1.391 . S
C6902 C6901 1.391 . S
C6902 H6958 0.947 . S
C6902 C6959 1.392 1_455 S
C6903 C6904 1.391 . S
C6903 C6907 1.397 . S
C6903 C6959 1.419 . S
C6904 C6900 1.391 1_655 S
C6904 C6903 1.391 . S
C6904 C6905 1.399 . S
C6905 C6904 1.399 . S
C6905 C6908 1.396 . S
C6905 C6917 1.453 . S
C6905 C6918 1.684 . S
H6906 C6930 0.948 . S
C6907 C6903 1.397 . S
C6907 C6908 1.394 . S
C6907 C6926 1.723 . S
C6908 C6905 1.396 . S
C6908 C6907 1.394 . S
C6908 C6938 1.723 . S
H6909 C6932 0.947 . S
H6910 C6933 0.948 . S
H6911 C6939 0.982 . S
H6912 C6940 0.979 . S
H6913 C6940 0.980 . S
H6914 C6940 0.983 . S
H6915 C6939 0.979 . S
H6916 C6939 0.977 . S
C6917 C6905 1.453 . S
C6917 H6946 0.982 . S
C6917 H6947 0.979 . S
C6917 H6948 0.977 . S
C6918 C6905 1.684 . S
C6918 H6943 0.979 . S
C6918 H6944 0.980 . S
C6918 H6945 0.983 . S
C6919 C6920 1.391 . S
C6919 C6924 1.391 . S
C6919 H6949 0.948 . S
C6920 C6919 1.391 . S
C6920 C6921 1.391 . S
C6921 C6920 1.391 . S
C6921 C6922 1.392 . S
C6921 H6950 0.947 . S
C6922 C6921 1.392 . S
C6922 C6923 1.419 . S
C6922 H6951 0.948 . S
C6923 C6922 1.419 . S
C6923 C6924 1.391 . S
C6923 C6927 1.397 . S
C6924 C6919 1.391 . S
C6924 C6923 1.391 . S
C6924 C6925 1.399 . S
C6925 C6924 1.399 . S
C6925 C6926 1.396 . S
C6925 C6928 1.453 . S
C6925 C6929 1.684 . S
C6926 C6907 1.723 . S
C6926 C6925 1.396 . S
C6926 C6927 1.394 . S
C6927 C6923 1.397 . S
C6927 C6926 1.394 . S
C6927 C6937 1.723 . S
C6928 C6925 1.453 . S
C6928 H6952 0.982 . S
C6928 H6953 0.979 . S
C6928 H6954 0.977 . S
C6929 C6925 1.684 . S
C6929 H6955 0.979 . S
C6929 H6956 0.980 . S
C6929 H6957 0.983 . S
C6930 H6906 0.948 . S
C6930 C6931 1.391 . S
C6930 C6935 1.391 . S
C6931 C6930 1.391 . S
C6931 C6932 1.391 . S
C6932 H6909 0.947 . S
C6932 C6931 1.391 . S
C6932 C6933 1.392 . S
C6933 H6910 0.948 . S
C6933 C6932 1.392 . S
C6933 C6934 1.419 . S
C6934 C6933 1.419 . S
C6934 C6935 1.391 . S
C6934 C6938 1.397 . S
C6935 C6930 1.391 . S
C6935 C6934 1.391 . S
C6935 C6936 1.399 . S
C6936 C6935 1.399 . S
C6936 C6937 1.396 . S
C6936 C6939 1.453 . S
C6936 C6940 1.684 . S
C6937 C6927 1.723 . S
C6937 C6936 1.396 . S
C6937 C6938 1.394 . S
C6938 C6908 1.723 . S
C6938 C6934 1.397 . S
C6938 C6937 1.394 . S
C6939 H6911 0.982 . S
C6939 H6915 0.979 . S
C6939 H6916 0.977 . S
C6939 C6936 1.453 . S
C6940 H6912 0.979 . S
C6940 H6913 0.980 . S
C6940 H6914 0.983 . S
C6940 C6936 1.684 . S
H6941 C6959 0.948 . S
H6942 C6900 0.948 . S
H6943 C6918 0.979 . S
H6944 C6918 0.980 . S
H6945 C6918 0.983 . S
H6946 C6917 0.982 . S
H6947 C6917 0.979 . S
H6948 C6917 0.977 . S
H6949 C6919 0.948 . S
H6950 C6921 0.947 . S
H6951 C6922 0.948 . S
H6952 C6928 0.982 . S
H6953 C6928 0.979 . S
H6954 C6928 0.977 . S
H6955 C6929 0.979 . S
H6956 C6929 0.980 . S
H6957 C6929 0.983 . S
H6958 C6902 0.947 . S
C6959 C6902 1.392 1_655 S
C6959 C6903 1.419 . S
C6959 H6941 0.948 . S
C6960 C6961 1.391 . S
C6960 C6964 1.391 . S
C6960 H7002 0.948 . S
C6961 C6960 1.391 . S
C6961 C6962 1.391 . S
C6962 C6961 1.391 . S
C6962 H7018 0.947 . S
C6962 C7019 1.392 . S
C6963 C6964 1.391 . S
C6963 C6967 1.397 . S
C6963 C7019 1.419 . S
C6964 C6960 1.391 . S
C6964 C6963 1.391 . S
C6964 C6965 1.399 . S
C6965 C6964 1.399 . S
C6965 C6968 1.396 . S
C6965 C6977 1.453 . S
C6965 C6978 1.684 . S
H6966 C6990 0.948 . S
C6967 C6963 1.397 . S
C6967 C6968 1.394 . S
C6967 C6986 1.723 . S
C6968 C6965 1.396 . S
C6968 C6967 1.394 . S
C6968 C6998 1.723 . S
H6969 C6992 0.947 . S
H6970 C6993 0.948 . S
H6971 C6999 0.982 . S
H6972 C7000 0.979 . S
H6973 C7000 0.980 . S
H6974 C7000 0.983 . S
H6975 C6999 0.979 . S
H6976 C6999 0.977 . S
C6977 C6965 1.453 . S
C6977 H7006 0.982 . S
C6977 H7007 0.979 . S
C6977 H7008 0.977 . S
C6978 C6965 1.684 . S
C6978 H7003 0.979 . S
C6978 H7004 0.980 . S
C6978 H7005 0.983 . S
C6979 C6980 1.391 . S
C6979 C6984 1.391 . S
C6979 H7009 0.948 . S
C6980 C6979 1.391 . S
C6980 C6981 1.391 . S
C6981 C6980 1.391 . S
C6981 C6982 1.392 . S
C6981 H7010 0.947 . S
C6982 C6981 1.392 . S
C6982 C6983 1.419 . S
C6982 H7011 0.948 . S
C6983 C6982 1.419 . S
C6983 C6984 1.391 . S
C6983 C6987 1.397 . S
C6984 C6979 1.391 . S
C6984 C6983 1.391 . S
C6984 C6985 1.399 . S
C6985 C6984 1.399 . S
C6985 C6986 1.396 . S
C6985 C6988 1.453 . S
C6985 C6989 1.684 . S
C6986 C6967 1.723 . S
C6986 C6985 1.396 . S
C6986 C6987 1.394 . S
C6987 C6983 1.397 . S
C6987 C6986 1.394 . S
C6987 C6997 1.723 . S
C6988 C6985 1.453 . S
C6988 H7012 0.982 . S
C6988 H7013 0.979 . S
C6988 H7014 0.977 . S
C6989 C6985 1.684 . S
C6989 H7015 0.979 . S
C6989 H7016 0.980 . S
C6989 H7017 0.983 . S
C6990 H6966 0.948 . S
C6990 C6991 1.391 . S
C6990 C6995 1.391 . S
C6991 C6990 1.391 . S
C6991 C6992 1.391 . S
C6992 H6969 0.947 . S
C6992 C6991 1.391 . S
C6992 C6993 1.392 . S
C6993 H6970 0.948 . S
C6993 C6992 1.392 . S
C6993 C6994 1.419 . S
C6994 C6993 1.419 . S
C6994 C6995 1.391 . S
C6994 C6998 1.397 . S
C6995 C6990 1.391 . S
C6995 C6994 1.391 . S
C6995 C6996 1.399 . S
C6996 C6995 1.399 . S
C6996 C6997 1.396 . S
C6996 C6999 1.453 . S
C6996 C7000 1.684 . S
C6997 C6987 1.723 . S
C6997 C6996 1.396 . S
C6997 C6998 1.394 . S
C6998 C6968 1.723 . S
C6998 C6994 1.397 . S
C6998 C6997 1.394 . S
C6999 H6971 0.982 . S
C6999 H6975 0.979 . S
C6999 H6976 0.977 . S
C6999 C6996 1.453 . S
C7000 H6972 0.979 . S
C7000 H6973 0.980 . S
C7000 H6974 0.983 . S
C7000 C6996 1.684 . S
H7001 C7019 0.948 . S
H7002 C6960 0.948 . S
H7003 C6978 0.979 . S
H7004 C6978 0.980 . S
H7005 C6978 0.983 . S
H7006 C6977 0.982 . S
H7007 C6977 0.979 . S
H7008 C6977 0.977 . S
H7009 C6979 0.948 . S
H7010 C6981 0.947 . S
H7011 C6982 0.948 . S
H7012 C6988 0.982 . S
H7013 C6988 0.979 . S
H7014 C6988 0.977 . S
H7015 C6989 0.979 . S
H7016 C6989 0.980 . S
H7017 C6989 0.983 . S
H7018 C6962 0.947 . S
C7019 C6962 1.392 . S
C7019 C6963 1.419 . S
C7019 H7001 0.948 . S
C7020 C7021 1.391 . S
C7020 C7024 1.391 1_455 S
C7020 H7062 0.948 . S
C7021 C7020 1.391 . S
C7021 C7022 1.391 . S
C7022 C7021 1.391 . S
C7022 H7078 0.947 . S
C7022 C7079 1.392 1_455 S
C7023 C7024 1.391 . S
C7023 C7027 1.397 . S
C7023 C7079 1.419 . S
C7024 C7020 1.391 1_655 S
C7024 C7023 1.391 . S
C7024 C7025 1.399 . S
C7025 C7024 1.399 . S
C7025 C7028 1.396 . S
C7025 C7037 1.453 . S
C7025 C7038 1.684 . S
H7026 C7050 0.948 . S
C7027 C7023 1.397 . S
C7027 C7028 1.394 . S
C7027 C7046 1.723 . S
C7028 C7025 1.396 . S
C7028 C7027 1.394 . S
C7028 C7058 1.723 . S
H7029 C7052 0.947 . S
H7030 C7053 0.948 . S
H7031 C7059 0.982 . S
H7032 C7060 0.979 . S
H7033 C7060 0.980 . S
H7034 C7060 0.983 . S
H7035 C7059 0.979 . S
H7036 C7059 0.977 . S
C7037 C7025 1.453 . S
C7037 H7066 0.982 . S
C7037 H7067 0.979 . S
C7037 H7068 0.977 . S
C7038 C7025 1.684 . S
C7038 H7063 0.979 . S
C7038 H7064 0.980 . S
C7038 H7065 0.983 . S
C7039 C7040 1.391 . S
C7039 C7044 1.391 . S
C7039 H7069 0.948 . S
C7040 C7039 1.391 . S
C7040 C7041 1.391 . S
C7041 C7040 1.391 . S
C7041 C7042 1.392 . S
C7041 H7070 0.947 . S
C7042 C7041 1.392 . S
C7042 C7043 1.419 . S
C7042 H7071 0.948 . S
C7043 C7042 1.419 . S
C7043 C7044 1.391 . S
C7043 C7047 1.397 . S
C7044 C7039 1.391 . S
C7044 C7043 1.391 . S
C7044 C7045 1.399 . S
C7045 C7044 1.399 . S
C7045 C7046 1.396 . S
C7045 C7048 1.453 . S
C7045 C7049 1.684 . S
C7046 C7027 1.723 . S
C7046 C7045 1.396 . S
C7046 C7047 1.394 . S
C7047 C7043 1.397 . S
C7047 C7046 1.394 . S
C7047 C7057 1.723 . S
C7048 C7045 1.453 . S
C7048 H7072 0.982 . S
C7048 H7073 0.979 . S
C7048 H7074 0.977 . S
C7049 C7045 1.684 . S
C7049 H7075 0.979 . S
C7049 H7076 0.980 . S
C7049 H7077 0.983 . S
C7050 H7026 0.948 . S
C7050 C7051 1.391 . S
C7050 C7055 1.391 . S
C7051 C7050 1.391 . S
C7051 C7052 1.391 . S
C7052 H7029 0.947 . S
C7052 C7051 1.391 . S
C7052 C7053 1.392 . S
C7053 H7030 0.948 . S
C7053 C7052 1.392 . S
C7053 C7054 1.419 . S
C7054 C7053 1.419 . S
C7054 C7055 1.391 . S
C7054 C7058 1.397 . S
C7055 C7050 1.391 . S
C7055 C7054 1.391 . S
C7055 C7056 1.399 . S
C7056 C7055 1.399 . S
C7056 C7057 1.396 . S
C7056 C7059 1.453 . S
C7056 C7060 1.684 . S
C7057 C7047 1.723 . S
C7057 C7056 1.396 . S
C7057 C7058 1.394 . S
C7058 C7028 1.723 . S
C7058 C7054 1.397 . S
C7058 C7057 1.394 . S
C7059 H7031 0.982 . S
C7059 H7035 0.979 . S
C7059 H7036 0.977 . S
C7059 C7056 1.453 . S
C7060 H7032 0.979 . S
C7060 H7033 0.980 . S
C7060 H7034 0.983 . S
C7060 C7056 1.684 . S
H7061 C7079 0.948 . S
H7062 C7020 0.948 . S
H7063 C7038 0.979 . S
H7064 C7038 0.980 . S
H7065 C7038 0.983 . S
H7066 C7037 0.982 . S
H7067 C7037 0.979 . S
H7068 C7037 0.977 . S
H7069 C7039 0.948 . S
H7070 C7041 0.947 . S
H7071 C7042 0.948 . S
H7072 C7048 0.982 . S
H7073 C7048 0.979 . S
H7074 C7048 0.977 . S
H7075 C7049 0.979 . S
H7076 C7049 0.980 . S
H7077 C7049 0.983 . S
H7078 C7022 0.947 . S
C7079 C7022 1.392 1_655 S
C7079 C7023 1.419 . S
C7079 H7061 0.948 . S
C7080 C7081 1.391 . S
C7080 C7084 1.391 . S
C7080 H7122 0.948 . S
C7081 C7080 1.391 . S
C7081 C7082 1.391 . S
C7082 C7081 1.391 . S
C7082 H7138 0.947 . S
C7082 C7139 1.392 . S
C7083 C7084 1.391 . S
C7083 C7087 1.397 . S
C7083 C7139 1.419 . S
C7084 C7080 1.391 . S
C7084 C7083 1.391 . S
C7084 C7085 1.399 . S
C7085 C7084 1.399 . S
C7085 C7088 1.396 . S
C7085 C7097 1.453 . S
C7085 C7098 1.684 . S
H7086 C7110 0.948 . S
C7087 C7083 1.397 . S
C7087 C7088 1.394 . S
C7087 C7106 1.723 . S
C7088 C7085 1.396 . S
C7088 C7087 1.394 . S
C7088 C7118 1.723 . S
H7089 C7112 0.947 . S
H7090 C7113 0.948 . S
H7091 C7119 0.982 . S
H7092 C7120 0.979 . S
H7093 C7120 0.980 . S
H7094 C7120 0.983 . S
H7095 C7119 0.979 . S
H7096 C7119 0.977 . S
C7097 C7085 1.453 . S
C7097 H7126 0.982 . S
C7097 H7127 0.979 . S
C7097 H7128 0.977 . S
C7098 C7085 1.684 . S
C7098 H7123 0.979 . S
C7098 H7124 0.980 . S
C7098 H7125 0.983 . S
C7099 C7100 1.391 . S
C7099 C7104 1.391 . S
C7099 H7129 0.948 . S
C7100 C7099 1.391 . S
C7100 C7101 1.391 . S
C7101 C7100 1.391 . S
C7101 C7102 1.392 . S
C7101 H7130 0.947 . S
C7102 C7101 1.392 . S
C7102 C7103 1.419 . S
C7102 H7131 0.948 . S
C7103 C7102 1.419 . S
C7103 C7104 1.391 . S
C7103 C7107 1.397 . S
C7104 C7099 1.391 . S
C7104 C7103 1.391 . S
C7104 C7105 1.399 . S
C7105 C7104 1.399 . S
C7105 C7106 1.396 . S
C7105 C7108 1.453 . S
C7105 C7109 1.684 . S
C7106 C7087 1.723 . S
C7106 C7105 1.396 . S
C7106 C7107 1.394 . S
C7107 C7103 1.397 . S
C7107 C7106 1.394 . S
C7107 C7117 1.723 . S
C7108 C7105 1.453 . S
C7108 H7132 0.982 . S
C7108 H7133 0.979 . S
C7108 H7134 0.977 . S
C7109 C7105 1.684 . S
C7109 H7135 0.979 . S
C7109 H7136 0.980 . S
C7109 H7137 0.983 . S
C7110 H7086 0.948 . S
C7110 C7111 1.391 . S
C7110 C7115 1.391 . S
C7111 C7110 1.391 . S
C7111 C7112 1.391 . S
C7112 H7089 0.947 . S
C7112 C7111 1.391 . S
C7112 C7113 1.392 . S
C7113 H7090 0.948 . S
C7113 C7112 1.392 . S
C7113 C7114 1.419 . S
C7114 C7113 1.419 . S
C7114 C7115 1.391 . S
C7114 C7118 1.397 . S
C7115 C7110 1.391 . S
C7115 C7114 1.391 . S
C7115 C7116 1.399 . S
C7116 C7115 1.399 . S
C7116 C7117 1.396 . S
C7116 C7119 1.453 . S
C7116 C7120 1.684 . S
C7117 C7107 1.723 . S
C7117 C7116 1.396 . S
C7117 C7118 1.394 . S
C7118 C7088 1.723 . S
C7118 C7114 1.397 . S
C7118 C7117 1.394 . S
C7119 H7091 0.982 . S
C7119 H7095 0.979 . S
C7119 H7096 0.977 . S
C7119 C7116 1.453 . S
C7120 H7092 0.979 . S
C7120 H7093 0.980 . S
C7120 H7094 0.983 . S
C7120 C7116 1.684 . S
H7121 C7139 0.948 . S
H7122 C7080 0.948 . S
H7123 C7098 0.979 . S
H7124 C7098 0.980 . S
H7125 C7098 0.983 . S
H7126 C7097 0.982 . S
H7127 C7097 0.979 . S
H7128 C7097 0.977 . S
H7129 C7099 0.948 . S
H7130 C7101 0.947 . S
H7131 C7102 0.948 . S
H7132 C7108 0.982 . S
H7133 C7108 0.979 . S
H7134 C7108 0.977 . S
H7135 C7109 0.979 . S
H7136 C7109 0.980 . S
H7137 C7109 0.983 . S
H7138 C7082 0.947 . S
C7139 C7082 1.392 . S
C7139 C7083 1.419 . S
C7139 H7121 0.948 . S
C7140 C7141 1.391 . S
C7140 C7144 1.391 . S
C7140 H7182 0.948 . S
C7141 C7140 1.391 . S
C7141 C7142 1.391 . S
C7142 C7141 1.391 . S
C7142 H7198 0.947 . S
C7142 C7199 1.392 . S
C7143 C7144 1.391 . S
C7143 C7147 1.397 . S
C7143 C7199 1.419 . S
C7144 C7140 1.391 . S
C7144 C7143 1.391 . S
C7144 C7145 1.399 . S
C7145 C7144 1.399 . S
C7145 C7148 1.396 . S
C7145 C7157 1.453 . S
C7145 C7158 1.684 . S
H7146 C7170 0.948 . S
C7147 C7143 1.397 . S
C7147 C7148 1.394 . S
C7147 C7166 1.723 . S
C7148 C7145 1.396 . S
C7148 C7147 1.394 . S
C7148 C7178 1.723 . S
H7149 C7172 0.947 . S
H7150 C7173 0.948 . S
H7151 C7179 0.982 . S
H7152 C7180 0.979 . S
H7153 C7180 0.980 . S
H7154 C7180 0.983 . S
H7155 C7179 0.979 . S
H7156 C7179 0.977 . S
C7157 C7145 1.453 . S
C7157 H7186 0.982 . S
C7157 H7187 0.979 . S
C7157 H7188 0.977 . S
C7158 C7145 1.684 . S
C7158 H7183 0.979 . S
C7158 H7184 0.980 . S
C7158 H7185 0.983 . S
C7159 C7160 1.391 . S
C7159 C7164 1.391 . S
C7159 H7189 0.948 . S
C7160 C7159 1.391 . S
C7160 C7161 1.391 . S
C7161 C7160 1.391 . S
C7161 C7162 1.392 . S
C7161 H7190 0.947 . S
C7162 C7161 1.392 . S
C7162 C7163 1.419 . S
C7162 H7191 0.948 . S
C7163 C7162 1.419 . S
C7163 C7164 1.391 . S
C7163 C7167 1.397 . S
C7164 C7159 1.391 . S
C7164 C7163 1.391 . S
C7164 C7165 1.399 . S
C7165 C7164 1.399 . S
C7165 C7166 1.396 . S
C7165 C7168 1.453 . S
C7165 C7169 1.684 . S
C7166 C7147 1.723 . S
C7166 C7165 1.396 . S
C7166 C7167 1.394 . S
C7167 C7163 1.397 . S
C7167 C7166 1.394 . S
C7167 C7177 1.723 . S
C7168 C7165 1.453 . S
C7168 H7192 0.982 . S
C7168 H7193 0.979 . S
C7168 H7194 0.977 . S
C7169 C7165 1.684 . S
C7169 H7195 0.979 . S
C7169 H7196 0.980 . S
C7169 H7197 0.983 . S
C7170 H7146 0.948 . S
C7170 C7171 1.391 . S
C7170 C7175 1.391 . S
C7171 C7170 1.391 . S
C7171 C7172 1.391 . S
C7172 H7149 0.947 . S
C7172 C7171 1.391 . S
C7172 C7173 1.392 . S
C7173 H7150 0.948 . S
C7173 C7172 1.392 . S
C7173 C7174 1.419 . S
C7174 C7173 1.419 . S
C7174 C7175 1.391 . S
C7174 C7178 1.397 . S
C7175 C7170 1.391 . S
C7175 C7174 1.391 . S
C7175 C7176 1.399 . S
C7176 C7175 1.399 . S
C7176 C7177 1.396 . S
C7176 C7179 1.453 . S
C7176 C7180 1.684 . S
C7177 C7167 1.723 . S
C7177 C7176 1.396 . S
C7177 C7178 1.394 . S
C7178 C7148 1.723 . S
C7178 C7174 1.397 . S
C7178 C7177 1.394 . S
C7179 H7151 0.982 . S
C7179 H7155 0.979 . S
C7179 H7156 0.977 . S
C7179 C7176 1.453 . S
C7180 H7152 0.979 . S
C7180 H7153 0.980 . S
C7180 H7154 0.983 . S
C7180 C7176 1.684 . S
H7181 C7199 0.948 . S
H7182 C7140 0.948 . S
H7183 C7158 0.979 . S
H7184 C7158 0.980 . S
H7185 C7158 0.983 . S
H7186 C7157 0.982 . S
H7187 C7157 0.979 . S
H7188 C7157 0.977 . S
H7189 C7159 0.948 . S
H7190 C7161 0.947 . S
H7191 C7162 0.948 . S
H7192 C7168 0.982 . S
H7193 C7168 0.979 . S
H7194 C7168 0.977 . S
H7195 C7169 0.979 . S
H7196 C7169 0.980 . S
H7197 C7169 0.983 . S
H7198 C7142 0.947 . S
C7199 C7142 1.392 . S
C7199 C7143 1.419 . S
C7199 H7181 0.948 . S
C7200 C7201 1.391 . S
C7200 C7204 1.391 . S
C7200 H7242 0.948 . S
C7201 C7200 1.391 . S
C7201 C7202 1.391 . S
C7202 C7201 1.391 . S
C7202 H7258 0.947 . S
C7202 C7259 1.392 . S
C7203 C7204 1.391 . S
C7203 C7207 1.397 . S
C7203 C7259 1.419 . S
C7204 C7200 1.391 . S
C7204 C7203 1.391 . S
C7204 C7205 1.399 . S
C7205 C7204 1.399 . S
C7205 C7208 1.396 . S
C7205 C7217 1.453 . S
C7205 C7218 1.684 . S
H7206 C7230 0.948 . S
C7207 C7203 1.397 . S
C7207 C7208 1.394 . S
C7207 C7226 1.723 . S
C7208 C7205 1.396 . S
C7208 C7207 1.394 . S
C7208 C7238 1.723 . S
H7209 C7232 0.947 . S
H7210 C7233 0.948 . S
H7211 C7239 0.982 . S
H7212 C7240 0.979 . S
H7213 C7240 0.980 . S
H7214 C7240 0.983 . S
H7215 C7239 0.979 . S
H7216 C7239 0.977 . S
C7217 C7205 1.453 . S
C7217 H7246 0.982 . S
C7217 H7247 0.979 . S
C7217 H7248 0.977 . S
C7218 C7205 1.684 . S
C7218 H7243 0.979 . S
C7218 H7244 0.980 . S
C7218 H7245 0.983 . S
C7219 C7220 1.391 . S
C7219 C7224 1.391 . S
C7219 H7249 0.948 . S
C7220 C7219 1.391 . S
C7220 C7221 1.391 . S
C7221 C7220 1.391 . S
C7221 C7222 1.392 . S
C7221 H7250 0.947 . S
C7222 C7221 1.392 . S
C7222 C7223 1.419 . S
C7222 H7251 0.948 . S
C7223 C7222 1.419 . S
C7223 C7224 1.391 . S
C7223 C7227 1.397 . S
C7224 C7219 1.391 . S
C7224 C7223 1.391 . S
C7224 C7225 1.399 . S
C7225 C7224 1.399 . S
C7225 C7226 1.396 . S
C7225 C7228 1.453 . S
C7225 C7229 1.684 . S
C7226 C7207 1.723 . S
C7226 C7225 1.396 . S
C7226 C7227 1.394 . S
C7227 C7223 1.397 . S
C7227 C7226 1.394 . S
C7227 C7237 1.723 . S
C7228 C7225 1.453 . S
C7228 H7252 0.982 . S
C7228 H7253 0.979 . S
C7228 H7254 0.977 . S
C7229 C7225 1.684 . S
C7229 H7255 0.979 . S
C7229 H7256 0.980 . S
C7229 H7257 0.983 . S
C7230 H7206 0.948 . S
C7230 C7231 1.391 . S
C7230 C7235 1.391 . S
C7231 C7230 1.391 . S
C7231 C7232 1.391 . S
C7232 H7209 0.947 . S
C7232 C7231 1.391 . S
C7232 C7233 1.392 . S
C7233 H7210 0.948 . S
C7233 C7232 1.392 . S
C7233 C7234 1.419 . S
C7234 C7233 1.419 . S
C7234 C7235 1.391 . S
C7234 C7238 1.397 . S
C7235 C7230 1.391 . S
C7235 C7234 1.391 . S
C7235 C7236 1.399 . S
C7236 C7235 1.399 . S
C7236 C7237 1.396 . S
C7236 C7239 1.453 . S
C7236 C7240 1.684 . S
C7237 C7227 1.723 . S
C7237 C7236 1.396 . S
C7237 C7238 1.394 . S
C7238 C7208 1.723 . S
C7238 C7234 1.397 . S
C7238 C7237 1.394 . S
C7239 H7211 0.982 . S
C7239 H7215 0.979 . S
C7239 H7216 0.977 . S
C7239 C7236 1.453 . S
C7240 H7212 0.979 . S
C7240 H7213 0.980 . S
C7240 H7214 0.983 . S
C7240 C7236 1.684 . S
H7241 C7259 0.948 . S
H7242 C7200 0.948 . S
H7243 C7218 0.979 . S
H7244 C7218 0.980 . S
H7245 C7218 0.983 . S
H7246 C7217 0.982 . S
H7247 C7217 0.979 . S
H7248 C7217 0.977 . S
H7249 C7219 0.948 . S
H7250 C7221 0.947 . S
H7251 C7222 0.948 . S
H7252 C7228 0.982 . S
H7253 C7228 0.979 . S
H7254 C7228 0.977 . S
H7255 C7229 0.979 . S
H7256 C7229 0.980 . S
H7257 C7229 0.983 . S
H7258 C7202 0.947 . S
C7259 C7202 1.392 . S
C7259 C7203 1.419 . S
C7259 H7241 0.948 . S
C7260 C7261 1.391 . S
C7260 C7264 1.391 . S
C7260 H7302 0.948 . S
C7261 C7260 1.391 . S
C7261 C7262 1.391 . S
C7262 C7261 1.391 . S
C7262 H7318 0.947 . S
C7262 C7319 1.392 . S
C7263 C7264 1.391 . S
C7263 C7267 1.397 . S
C7263 C7319 1.419 . S
C7264 C7260 1.391 . S
C7264 C7263 1.391 . S
C7264 C7265 1.399 . S
C7265 C7264 1.399 . S
C7265 C7268 1.396 . S
C7265 C7277 1.453 . S
C7265 C7278 1.684 . S
H7266 C7290 0.948 . S
C7267 C7263 1.397 . S
C7267 C7268 1.394 . S
C7267 C7286 1.723 . S
C7268 C7265 1.396 . S
C7268 C7267 1.394 . S
C7268 C7298 1.723 . S
H7269 C7292 0.947 . S
H7270 C7293 0.948 . S
H7271 C7299 0.982 . S
H7272 C7300 0.979 . S
H7273 C7300 0.980 . S
H7274 C7300 0.983 . S
H7275 C7299 0.979 . S
H7276 C7299 0.977 . S
C7277 C7265 1.453 . S
C7277 H7306 0.982 . S
C7277 H7307 0.979 . S
C7277 H7308 0.977 . S
C7278 C7265 1.684 . S
C7278 H7303 0.979 . S
C7278 H7304 0.980 . S
C7278 H7305 0.983 . S
C7279 C7280 1.391 . S
C7279 C7284 1.391 . S
C7279 H7309 0.948 . S
C7280 C7279 1.391 . S
C7280 C7281 1.391 . S
C7281 C7280 1.391 . S
C7281 C7282 1.392 . S
C7281 H7310 0.947 . S
C7282 C7281 1.392 . S
C7282 C7283 1.419 . S
C7282 H7311 0.948 . S
C7283 C7282 1.419 . S
C7283 C7284 1.391 . S
C7283 C7287 1.397 . S
C7284 C7279 1.391 . S
C7284 C7283 1.391 . S
C7284 C7285 1.399 . S
C7285 C7284 1.399 . S
C7285 C7286 1.396 . S
C7285 C7288 1.453 . S
C7285 C7289 1.684 . S
C7286 C7267 1.723 . S
C7286 C7285 1.396 . S
C7286 C7287 1.394 . S
C7287 C7283 1.397 . S
C7287 C7286 1.394 . S
C7287 C7297 1.723 . S
C7288 C7285 1.453 . S
C7288 H7312 0.982 . S
C7288 H7313 0.979 . S
C7288 H7314 0.977 . S
C7289 C7285 1.684 . S
C7289 H7315 0.979 . S
C7289 H7316 0.980 . S
C7289 H7317 0.983 . S
C7290 H7266 0.948 . S
C7290 C7291 1.391 . S
C7290 C7295 1.391 . S
C7291 C7290 1.391 . S
C7291 C7292 1.391 . S
C7292 H7269 0.947 . S
C7292 C7291 1.391 . S
C7292 C7293 1.392 . S
C7293 H7270 0.948 . S
C7293 C7292 1.392 . S
C7293 C7294 1.419 . S
C7294 C7293 1.419 . S
C7294 C7295 1.391 . S
C7294 C7298 1.397 . S
C7295 C7290 1.391 . S
C7295 C7294 1.391 . S
C7295 C7296 1.399 . S
C7296 C7295 1.399 . S
C7296 C7297 1.396 . S
C7296 C7299 1.453 . S
C7296 C7300 1.684 . S
C7297 C7287 1.723 . S
C7297 C7296 1.396 . S
C7297 C7298 1.394 . S
C7298 C7268 1.723 . S
C7298 C7294 1.397 . S
C7298 C7297 1.394 . S
C7299 H7271 0.982 . S
C7299 H7275 0.979 . S
C7299 H7276 0.977 . S
C7299 C7296 1.453 . S
C7300 H7272 0.979 . S
C7300 H7273 0.980 . S
C7300 H7274 0.983 . S
C7300 C7296 1.684 . S
H7301 C7319 0.948 . S
H7302 C7260 0.948 . S
H7303 C7278 0.979 . S
H7304 C7278 0.980 . S
H7305 C7278 0.983 . S
H7306 C7277 0.982 . S
H7307 C7277 0.979 . S
H7308 C7277 0.977 . S
H7309 C7279 0.948 . S
H7310 C7281 0.947 . S
H7311 C7282 0.948 . S
H7312 C7288 0.982 . S
H7313 C7288 0.979 . S
H7314 C7288 0.977 . S
H7315 C7289 0.979 . S
H7316 C7289 0.980 . S
H7317 C7289 0.983 . S
H7318 C7262 0.947 . S
C7319 C7262 1.392 . S
C7319 C7263 1.419 . S
C7319 H7301 0.948 . S
C7320 C7321 1.391 . S
C7320 C7324 1.391 . S
C7320 H7362 0.948 . S
C7321 C7320 1.391 . S
C7321 C7322 1.391 . S
C7322 C7321 1.391 . S
C7322 H7378 0.947 . S
C7322 C7379 1.392 . S
C7323 C7324 1.391 . S
C7323 C7327 1.397 . S
C7323 C7379 1.419 . S
C7324 C7320 1.391 . S
C7324 C7323 1.391 . S
C7324 C7325 1.399 . S
C7325 C7324 1.399 . S
C7325 C7328 1.396 . S
C7325 C7337 1.453 . S
C7325 C7338 1.684 . S
H7326 C7350 0.948 . S
C7327 C7323 1.397 . S
C7327 C7328 1.394 . S
C7327 C7346 1.723 . S
C7328 C7325 1.396 . S
C7328 C7327 1.394 . S
C7328 C7358 1.723 . S
H7329 C7352 0.947 . S
H7330 C7353 0.948 . S
H7331 C7359 0.982 . S
H7332 C7360 0.979 . S
H7333 C7360 0.980 . S
H7334 C7360 0.983 . S
H7335 C7359 0.979 . S
H7336 C7359 0.977 . S
C7337 C7325 1.453 . S
C7337 H7366 0.982 . S
C7337 H7367 0.979 . S
C7337 H7368 0.977 . S
C7338 C7325 1.684 . S
C7338 H7363 0.979 . S
C7338 H7364 0.980 . S
C7338 H7365 0.983 . S
C7339 C7340 1.391 . S
C7339 C7344 1.391 . S
C7339 H7369 0.948 . S
C7340 C7339 1.391 . S
C7340 C7341 1.391 . S
C7341 C7340 1.391 . S
C7341 C7342 1.392 . S
C7341 H7370 0.947 . S
C7342 C7341 1.392 . S
C7342 C7343 1.419 . S
C7342 H7371 0.948 . S
C7343 C7342 1.419 . S
C7343 C7344 1.391 . S
C7343 C7347 1.397 . S
C7344 C7339 1.391 . S
C7344 C7343 1.391 . S
C7344 C7345 1.399 . S
C7345 C7344 1.399 . S
C7345 C7346 1.396 . S
C7345 C7348 1.453 . S
C7345 C7349 1.684 . S
C7346 C7327 1.723 . S
C7346 C7345 1.396 . S
C7346 C7347 1.394 . S
C7347 C7343 1.397 . S
C7347 C7346 1.394 . S
C7347 C7357 1.723 . S
C7348 C7345 1.453 . S
C7348 H7372 0.982 . S
C7348 H7373 0.979 . S
C7348 H7374 0.977 . S
C7349 C7345 1.684 . S
C7349 H7375 0.979 . S
C7349 H7376 0.980 . S
C7349 H7377 0.983 . S
C7350 H7326 0.948 . S
C7350 C7351 1.391 . S
C7350 C7355 1.391 . S
C7351 C7350 1.391 . S
C7351 C7352 1.391 . S
C7352 H7329 0.947 . S
C7352 C7351 1.391 . S
C7352 C7353 1.392 . S
C7353 H7330 0.948 . S
C7353 C7352 1.392 . S
C7353 C7354 1.419 . S
C7354 C7353 1.419 . S
C7354 C7355 1.391 . S
C7354 C7358 1.397 . S
C7355 C7350 1.391 . S
C7355 C7354 1.391 . S
C7355 C7356 1.399 . S
C7356 C7355 1.399 . S
C7356 C7357 1.396 . S
C7356 C7359 1.453 . S
C7356 C7360 1.684 . S
C7357 C7347 1.723 . S
C7357 C7356 1.396 . S
C7357 C7358 1.394 . S
C7358 C7328 1.723 . S
C7358 C7354 1.397 . S
C7358 C7357 1.394 . S
C7359 H7331 0.982 . S
C7359 H7335 0.979 . S
C7359 H7336 0.977 . S
C7359 C7356 1.453 . S
C7360 H7332 0.979 . S
C7360 H7333 0.980 . S
C7360 H7334 0.983 . S
C7360 C7356 1.684 . S
H7361 C7379 0.948 . S
H7362 C7320 0.948 . S
H7363 C7338 0.979 . S
H7364 C7338 0.980 . S
H7365 C7338 0.983 . S
H7366 C7337 0.982 . S
H7367 C7337 0.979 . S
H7368 C7337 0.977 . S
H7369 C7339 0.948 . S
H7370 C7341 0.947 . S
H7371 C7342 0.948 . S
H7372 C7348 0.982 . S
H7373 C7348 0.979 . S
H7374 C7348 0.977 . S
H7375 C7349 0.979 . S
H7376 C7349 0.980 . S
H7377 C7349 0.983 . S
H7378 C7322 0.947 . S
C7379 C7322 1.392 . S
C7379 C7323 1.419 . S
C7379 H7361 0.948 . S
C7380 C7381 1.391 . S
C7380 C7384 1.391 . S
C7380 H7422 0.948 . S
C7381 C7380 1.391 . S
C7381 C7382 1.391 . S
C7382 C7381 1.391 . S
C7382 H7438 0.947 . S
C7382 C7439 1.392 . S
C7383 C7384 1.391 . S
C7383 C7387 1.397 . S
C7383 C7439 1.419 . S
C7384 C7380 1.391 . S
C7384 C7383 1.391 . S
C7384 C7385 1.399 . S
C7385 C7384 1.399 . S
C7385 C7388 1.396 . S
C7385 C7397 1.453 . S
C7385 C7398 1.684 . S
H7386 C7410 0.948 . S
C7387 C7383 1.397 . S
C7387 C7388 1.394 . S
C7387 C7406 1.723 . S
C7388 C7385 1.396 . S
C7388 C7387 1.394 . S
C7388 C7418 1.723 . S
H7389 C7412 0.947 . S
H7390 C7413 0.948 . S
H7391 C7419 0.982 . S
H7392 C7420 0.979 . S
H7393 C7420 0.980 . S
H7394 C7420 0.983 . S
H7395 C7419 0.979 . S
H7396 C7419 0.977 . S
C7397 C7385 1.453 . S
C7397 H7426 0.982 . S
C7397 H7427 0.979 . S
C7397 H7428 0.977 . S
C7398 C7385 1.684 . S
C7398 H7423 0.979 . S
C7398 H7424 0.980 . S
C7398 H7425 0.983 . S
C7399 C7400 1.391 . S
C7399 C7404 1.391 . S
C7399 H7429 0.948 . S
C7400 C7399 1.391 . S
C7400 C7401 1.391 . S
C7401 C7400 1.391 . S
C7401 C7402 1.392 . S
C7401 H7430 0.947 . S
C7402 C7401 1.392 . S
C7402 C7403 1.419 . S
C7402 H7431 0.948 . S
C7403 C7402 1.419 . S
C7403 C7404 1.391 . S
C7403 C7407 1.397 . S
C7404 C7399 1.391 . S
C7404 C7403 1.391 . S
C7404 C7405 1.399 . S
C7405 C7404 1.399 . S
C7405 C7406 1.396 . S
C7405 C7408 1.453 . S
C7405 C7409 1.684 . S
C7406 C7387 1.723 . S
C7406 C7405 1.396 . S
C7406 C7407 1.394 . S
C7407 C7403 1.397 . S
C7407 C7406 1.394 . S
C7407 C7417 1.723 . S
C7408 C7405 1.453 . S
C7408 H7432 0.982 . S
C7408 H7433 0.979 . S
C7408 H7434 0.977 . S
C7409 C7405 1.684 . S
C7409 H7435 0.979 . S
C7409 H7436 0.980 . S
C7409 H7437 0.983 . S
C7410 H7386 0.948 . S
C7410 C7411 1.391 . S
C7410 C7415 1.391 . S
C7411 C7410 1.391 . S
C7411 C7412 1.391 . S
C7412 H7389 0.947 . S
C7412 C7411 1.391 . S
C7412 C7413 1.392 . S
C7413 H7390 0.948 . S
C7413 C7412 1.392 . S
C7413 C7414 1.419 . S
C7414 C7413 1.419 . S
C7414 C7415 1.391 . S
C7414 C7418 1.397 . S
C7415 C7410 1.391 . S
C7415 C7414 1.391 . S
C7415 C7416 1.399 . S
C7416 C7415 1.399 . S
C7416 C7417 1.396 . S
C7416 C7419 1.453 . S
C7416 C7420 1.684 . S
C7417 C7407 1.723 . S
C7417 C7416 1.396 . S
C7417 C7418 1.394 . S
C7418 C7388 1.723 . S
C7418 C7414 1.397 . S
C7418 C7417 1.394 . S
C7419 H7391 0.982 . S
C7419 H7395 0.979 . S
C7419 H7396 0.977 . S
C7419 C7416 1.453 . S
C7420 H7392 0.979 . S
C7420 H7393 0.980 . S
C7420 H7394 0.983 . S
C7420 C7416 1.684 . S
H7421 C7439 0.948 . S
H7422 C7380 0.948 . S
H7423 C7398 0.979 . S
H7424 C7398 0.980 . S
H7425 C7398 0.983 . S
H7426 C7397 0.982 . S
H7427 C7397 0.979 . S
H7428 C7397 0.977 . S
H7429 C7399 0.948 . S
H7430 C7401 0.947 . S
H7431 C7402 0.948 . S
H7432 C7408 0.982 . S
H7433 C7408 0.979 . S
H7434 C7408 0.977 . S
H7435 C7409 0.979 . S
H7436 C7409 0.980 . S
H7437 C7409 0.983 . S
H7438 C7382 0.947 . S
C7439 C7382 1.392 . S
C7439 C7383 1.419 . S
C7439 H7421 0.948 . S
C7440 C7441 1.391 . S
C7440 C7444 1.391 . S
C7440 H7482 0.948 . S
C7441 C7440 1.391 . S
C7441 C7442 1.391 . S
C7442 C7441 1.391 . S
C7442 H7498 0.947 . S
C7442 C7499 1.392 . S
C7443 C7444 1.391 . S
C7443 C7447 1.397 . S
C7443 C7499 1.419 . S
C7444 C7440 1.391 . S
C7444 C7443 1.391 . S
C7444 C7445 1.399 . S
C7445 C7444 1.399 . S
C7445 C7448 1.396 . S
C7445 C7457 1.453 . S
C7445 C7458 1.684 . S
H7446 C7470 0.948 . S
C7447 C7443 1.397 . S
C7447 C7448 1.394 . S
C7447 C7466 1.723 . S
C7448 C7445 1.396 . S
C7448 C7447 1.394 . S
C7448 C7478 1.723 . S
H7449 C7472 0.947 . S
H7450 C7473 0.948 . S
H7451 C7479 0.982 . S
H7452 C7480 0.979 . S
H7453 C7480 0.980 . S
H7454 C7480 0.983 . S
H7455 C7479 0.979 . S
H7456 C7479 0.977 . S
C7457 C7445 1.453 . S
C7457 H7486 0.982 . S
C7457 H7487 0.979 . S
C7457 H7488 0.977 . S
C7458 C7445 1.684 . S
C7458 H7483 0.979 . S
C7458 H7484 0.980 . S
C7458 H7485 0.983 . S
C7459 C7460 1.391 . S
C7459 C7464 1.391 . S
C7459 H7489 0.948 . S
C7460 C7459 1.391 . S
C7460 C7461 1.391 . S
C7461 C7460 1.391 . S
C7461 C7462 1.392 . S
C7461 H7490 0.947 . S
C7462 C7461 1.392 . S
C7462 C7463 1.419 . S
C7462 H7491 0.948 . S
C7463 C7462 1.419 . S
C7463 C7464 1.391 . S
C7463 C7467 1.397 . S
C7464 C7459 1.391 . S
C7464 C7463 1.391 . S
C7464 C7465 1.399 . S
C7465 C7464 1.399 . S
C7465 C7466 1.396 . S
C7465 C7468 1.453 . S
C7465 C7469 1.684 . S
C7466 C7447 1.723 . S
C7466 C7465 1.396 . S
C7466 C7467 1.394 . S
C7467 C7463 1.397 . S
C7467 C7466 1.394 . S
C7467 C7477 1.723 . S
C7468 C7465 1.453 . S
C7468 H7492 0.982 . S
C7468 H7493 0.979 . S
C7468 H7494 0.977 . S
C7469 C7465 1.684 . S
C7469 H7495 0.979 . S
C7469 H7496 0.980 . S
C7469 H7497 0.983 . S
C7470 H7446 0.948 . S
C7470 C7471 1.391 . S
C7470 C7475 1.391 . S
C7471 C7470 1.391 . S
C7471 C7472 1.391 . S
C7472 H7449 0.947 . S
C7472 C7471 1.391 . S
C7472 C7473 1.392 . S
C7473 H7450 0.948 . S
C7473 C7472 1.392 . S
C7473 C7474 1.419 . S
C7474 C7473 1.419 . S
C7474 C7475 1.391 . S
C7474 C7478 1.397 . S
C7475 C7470 1.391 . S
C7475 C7474 1.391 . S
C7475 C7476 1.399 . S
C7476 C7475 1.399 . S
C7476 C7477 1.396 . S
C7476 C7479 1.453 . S
C7476 C7480 1.684 . S
C7477 C7467 1.723 . S
C7477 C7476 1.396 . S
C7477 C7478 1.394 . S
C7478 C7448 1.723 . S
C7478 C7474 1.397 . S
C7478 C7477 1.394 . S
C7479 H7451 0.982 . S
C7479 H7455 0.979 . S
C7479 H7456 0.977 . S
C7479 C7476 1.453 . S
C7480 H7452 0.979 . S
C7480 H7453 0.980 . S
C7480 H7454 0.983 . S
C7480 C7476 1.684 . S
H7481 C7499 0.948 . S
H7482 C7440 0.948 . S
H7483 C7458 0.979 . S
H7484 C7458 0.980 . S
H7485 C7458 0.983 . S
H7486 C7457 0.982 . S
H7487 C7457 0.979 . S
H7488 C7457 0.977 . S
H7489 C7459 0.948 . S
H7490 C7461 0.947 . S
H7491 C7462 0.948 . S
H7492 C7468 0.982 . S
H7493 C7468 0.979 . S
H7494 C7468 0.977 . S
H7495 C7469 0.979 . S
H7496 C7469 0.980 . S
H7497 C7469 0.983 . S
H7498 C7442 0.947 . S
C7499 C7442 1.392 . S
C7499 C7443 1.419 . S
C7499 H7481 0.948 . S
C7500 C7501 1.391 . S
C7500 C7504 1.391 . S
C7500 H7542 0.948 . S
C7501 C7500 1.391 . S
C7501 C7502 1.391 . S
C7502 C7501 1.391 . S
C7502 H7558 0.947 . S
C7502 C7559 1.392 . S
C7503 C7504 1.391 . S
C7503 C7507 1.397 . S
C7503 C7559 1.419 . S
C7504 C7500 1.391 . S
C7504 C7503 1.391 . S
C7504 C7505 1.399 . S
C7505 C7504 1.399 . S
C7505 C7508 1.396 . S
C7505 C7517 1.453 . S
C7505 C7518 1.684 . S
H7506 C7530 0.948 . S
C7507 C7503 1.397 . S
C7507 C7508 1.394 . S
C7507 C7526 1.723 . S
C7508 C7505 1.396 . S
C7508 C7507 1.394 . S
C7508 C7538 1.723 . S
H7509 C7532 0.947 . S
H7510 C7533 0.948 . S
H7511 C7539 0.982 . S
H7512 C7540 0.976 1_556 S
H7513 C7540 0.993 . S
H7514 C7540 0.969 1_556 S
H7515 C7539 0.979 1_556 S
H7516 C7539 0.977 . S
C7517 C7505 1.453 . S
C7517 H7546 0.982 . S
C7517 H7547 0.979 . S
C7517 H7548 0.977 . S
C7518 C7505 1.684 . S
C7518 H7543 0.979 . S
C7518 H7544 0.980 . S
C7518 H7545 0.983 . S
C7519 C7520 1.391 . S
C7519 C7524 1.391 . S
C7519 H7549 0.948 . S
C7520 C7519 1.391 . S
C7520 C7521 1.391 . S
C7521 C7520 1.391 . S
C7521 C7522 1.392 . S
C7521 H7550 0.947 . S
C7522 C7521 1.392 . S
C7522 C7523 1.419 . S
C7522 H7551 0.948 . S
C7523 C7522 1.419 . S
C7523 C7524 1.391 . S
C7523 C7527 1.397 . S
C7524 C7519 1.391 . S
C7524 C7523 1.391 . S
C7524 C7525 1.399 . S
C7525 C7524 1.399 . S
C7525 C7526 1.396 . S
C7525 C7528 1.453 . S
C7525 C7529 1.684 . S
C7526 C7507 1.723 . S
C7526 C7525 1.396 . S
C7526 C7527 1.394 . S
C7527 C7523 1.397 . S
C7527 C7526 1.394 . S
C7527 C7537 1.723 . S
C7528 C7525 1.453 . S
C7528 H7552 0.982 . S
C7528 H7553 0.979 . S
C7528 H7554 0.977 . S
C7529 C7525 1.684 . S
C7529 H7555 0.979 . S
C7529 H7556 0.980 . S
C7529 H7557 0.983 . S
C7530 H7506 0.948 . S
C7530 C7531 1.391 . S
C7530 C7535 1.391 . S
C7531 C7530 1.391 . S
C7531 C7532 1.391 . S
C7532 H7509 0.947 . S
C7532 C7531 1.391 . S
C7532 C7533 1.392 . S
C7533 H7510 0.948 . S
C7533 C7532 1.392 . S
C7533 C7534 1.444 . S
C7534 C7533 1.444 . S
C7534 C7535 1.410 . S
C7534 C7538 1.355 1_556 S
C7535 C7530 1.391 . S
C7535 C7534 1.410 . S
C7535 C7536 1.399 1_556 S
C7536 C7535 1.399 1_554 S
C7536 C7537 1.396 . S
C7536 C7539 1.453 . S
C7536 C7540 1.687 . S
C7537 C7527 1.723 . S
C7537 C7536 1.396 . S
C7537 C7538 1.394 . S
C7538 C7508 1.723 . S
C7538 C7534 1.355 1_554 S
C7538 C7537 1.394 . S
C7539 H7511 0.982 . S
C7539 H7515 0.979 1_554 S
C7539 H7516 0.977 . S
C7539 C7536 1.453 . S
C7540 H7512 0.976 1_554 S
C7540 H7513 0.993 . S
C7540 H7514 0.969 1_554 S
C7540 C7536 1.687 . S
H7541 C7559 0.948 . S
H7542 C7500 0.948 . S
H7543 C7518 0.979 . S
H7544 C7518 0.980 . S
H7545 C7518 0.983 . S
H7546 C7517 0.982 . S
H7547 C7517 0.979 . S
H7548 C7517 0.977 . S
H7549 C7519 0.948 . S
H7550 C7521 0.947 . S
H7551 C7522 0.948 . S
H7552 C7528 0.982 . S
H7553 C7528 0.979 . S
H7554 C7528 0.977 . S
H7555 C7529 0.979 . S
H7556 C7529 0.980 . S
H7557 C7529 0.983 . S
H7558 C7502 0.947 . S
C7559 C7502 1.392 . S
C7559 C7503 1.419 . S
C7559 H7541 0.948 . S
C7560 C7561 1.391 . S
C7560 C7564 1.391 . S
C7560 H7602 0.948 . S
C7561 C7560 1.391 . S
C7561 C7562 1.391 . S
C7562 C7561 1.391 . S
C7562 H7618 0.947 . S
C7562 C7619 1.392 . S
C7563 C7564 1.391 . S
C7563 C7567 1.397 . S
C7563 C7619 1.419 . S
C7564 C7560 1.391 . S
C7564 C7563 1.391 . S
C7564 C7565 1.399 . S
C7565 C7564 1.399 . S
C7565 C7568 1.396 . S
C7565 C7577 1.453 . S
C7565 C7578 1.684 . S
H7566 C7590 0.948 . S
C7567 C7563 1.397 . S
C7567 C7568 1.394 . S
C7567 C7586 1.723 . S
C7568 C7565 1.396 . S
C7568 C7567 1.394 . S
C7568 C7598 1.723 . S
H7569 C7592 0.947 . S
H7570 C7593 0.948 . S
H7571 C7599 0.982 . S
H7572 C7600 0.979 . S
H7573 C7600 0.980 . S
H7574 C7600 0.983 . S
H7575 C7599 0.979 . S
H7576 C7599 0.977 . S
C7577 C7565 1.453 . S
C7577 H7606 0.982 . S
C7577 H7607 0.979 . S
C7577 H7608 0.977 . S
C7578 C7565 1.684 . S
C7578 H7603 0.979 . S
C7578 H7604 0.980 . S
C7578 H7605 0.983 . S
C7579 C7580 1.391 . S
C7579 C7584 1.391 . S
C7579 H7609 0.948 . S
C7580 C7579 1.391 . S
C7580 C7581 1.391 . S
C7581 C7580 1.391 . S
C7581 C7582 1.392 . S
C7581 H7610 0.947 . S
C7582 C7581 1.392 . S
C7582 C7583 1.419 . S
C7582 H7611 0.948 . S
C7583 C7582 1.419 . S
C7583 C7584 1.391 . S
C7583 C7587 1.397 . S
C7584 C7579 1.391 . S
C7584 C7583 1.391 . S
C7584 C7585 1.399 . S
C7585 C7584 1.399 . S
C7585 C7586 1.396 . S
C7585 C7588 1.453 . S
C7585 C7589 1.684 . S
C7586 C7567 1.723 . S
C7586 C7585 1.396 . S
C7586 C7587 1.394 . S
C7587 C7583 1.397 . S
C7587 C7586 1.394 . S
C7587 C7597 1.723 . S
C7588 C7585 1.453 . S
C7588 H7612 0.982 . S
C7588 H7613 0.979 . S
C7588 H7614 0.977 . S
C7589 C7585 1.684 . S
C7589 H7615 0.979 . S
C7589 H7616 0.980 . S
C7589 H7617 0.983 . S
C7590 H7566 0.948 . S
C7590 C7591 1.391 . S
C7590 C7595 1.391 . S
C7591 C7590 1.391 . S
C7591 C7592 1.391 . S
C7592 H7569 0.947 . S
C7592 C7591 1.391 . S
C7592 C7593 1.392 . S
C7593 H7570 0.948 . S
C7593 C7592 1.392 . S
C7593 C7594 1.419 . S
C7594 C7593 1.419 . S
C7594 C7595 1.391 . S
C7594 C7598 1.397 . S
C7595 C7590 1.391 . S
C7595 C7594 1.391 . S
C7595 C7596 1.399 . S
C7596 C7595 1.399 . S
C7596 C7597 1.396 . S
C7596 C7599 1.453 . S
C7596 C7600 1.684 . S
C7597 C7587 1.723 . S
C7597 C7596 1.396 . S
C7597 C7598 1.394 . S
C7598 C7568 1.723 . S
C7598 C7594 1.397 . S
C7598 C7597 1.394 . S
C7599 H7571 0.982 . S
C7599 H7575 0.979 . S
C7599 H7576 0.977 . S
C7599 C7596 1.453 . S
C7600 H7572 0.979 . S
C7600 H7573 0.980 . S
C7600 H7574 0.983 . S
C7600 C7596 1.684 . S
H7601 C7619 0.948 . S
H7602 C7560 0.948 . S
H7603 C7578 0.979 . S
H7604 C7578 0.980 . S
H7605 C7578 0.983 . S
H7606 C7577 0.982 . S
H7607 C7577 0.979 . S
H7608 C7577 0.977 . S
H7609 C7579 0.948 . S
H7610 C7581 0.947 . S
H7611 C7582 0.948 . S
H7612 C7588 0.982 . S
H7613 C7588 0.979 . S
H7614 C7588 0.977 . S
H7615 C7589 0.979 . S
H7616 C7589 0.980 . S
H7617 C7589 0.983 . S
H7618 C7562 0.947 . S
C7619 C7562 1.392 . S
C7619 C7563 1.419 . S
C7619 H7601 0.948 . S
C7620 C7621 1.391 . S
C7620 C7624 1.391 . S
C7620 H7662 0.948 . S
C7621 C7620 1.391 . S
C7621 C7622 1.391 . S
C7622 C7621 1.391 . S
C7622 H7678 0.947 . S
C7622 C7679 1.392 . S
C7623 C7624 1.391 . S
C7623 C7627 1.397 . S
C7623 C7679 1.419 . S
C7624 C7620 1.391 . S
C7624 C7623 1.391 . S
C7624 C7625 1.399 . S
C7625 C7624 1.399 . S
C7625 C7628 1.396 . S
C7625 C7637 1.453 . S
C7625 C7638 1.684 . S
H7626 C7650 0.948 . S
C7627 C7623 1.397 . S
C7627 C7628 1.394 . S
C7627 C7646 1.723 . S
C7628 C7625 1.396 . S
C7628 C7627 1.394 . S
C7628 C7658 1.723 . S
H7629 C7652 0.947 . S
H7630 C7653 0.948 . S
H7631 C7659 0.982 . S
H7632 C7660 0.979 . S
H7633 C7660 0.980 . S
H7634 C7660 0.983 . S
H7635 C7659 0.979 . S
H7636 C7659 0.977 . S
C7637 C7625 1.453 . S
C7637 H7666 0.982 . S
C7637 H7667 0.979 . S
C7637 H7668 0.977 . S
C7638 C7625 1.684 . S
C7638 H7663 0.979 . S
C7638 H7664 0.980 . S
C7638 H7665 0.983 . S
C7639 C7640 1.391 . S
C7639 C7644 1.391 . S
C7639 H7669 0.948 . S
C7640 C7639 1.391 . S
C7640 C7641 1.391 . S
C7641 C7640 1.391 . S
C7641 C7642 1.392 . S
C7641 H7670 0.947 . S
C7642 C7641 1.392 . S
C7642 C7643 1.419 . S
C7642 H7671 0.948 . S
C7643 C7642 1.419 . S
C7643 C7644 1.391 . S
C7643 C7647 1.397 . S
C7644 C7639 1.391 . S
C7644 C7643 1.391 . S
C7644 C7645 1.399 . S
C7645 C7644 1.399 . S
C7645 C7646 1.396 . S
C7645 C7648 1.453 . S
C7645 C7649 1.684 . S
C7646 C7627 1.723 . S
C7646 C7645 1.396 . S
C7646 C7647 1.394 . S
C7647 C7643 1.397 . S
C7647 C7646 1.394 . S
C7647 C7657 1.723 . S
C7648 C7645 1.453 . S
C7648 H7672 0.982 . S
C7648 H7673 0.979 . S
C7648 H7674 0.977 . S
C7649 C7645 1.684 . S
C7649 H7675 0.979 . S
C7649 H7676 0.980 . S
C7649 H7677 0.983 . S
C7650 H7626 0.948 . S
C7650 C7651 1.391 . S
C7650 C7655 1.391 . S
C7651 C7650 1.391 . S
C7651 C7652 1.391 . S
C7652 H7629 0.947 . S
C7652 C7651 1.391 . S
C7652 C7653 1.392 . S
C7653 H7630 0.948 . S
C7653 C7652 1.392 . S
C7653 C7654 1.419 . S
C7654 C7653 1.419 . S
C7654 C7655 1.391 . S
C7654 C7658 1.397 . S
C7655 C7650 1.391 . S
C7655 C7654 1.391 . S
C7655 C7656 1.399 . S
C7656 C7655 1.399 . S
C7656 C7657 1.396 . S
C7656 C7659 1.453 . S
C7656 C7660 1.684 . S
C7657 C7647 1.723 . S
C7657 C7656 1.396 . S
C7657 C7658 1.394 . S
C7658 C7628 1.723 . S
C7658 C7654 1.397 . S
C7658 C7657 1.394 . S
C7659 H7631 0.982 . S
C7659 H7635 0.979 . S
C7659 H7636 0.977 . S
C7659 C7656 1.453 . S
C7660 H7632 0.979 . S
C7660 H7633 0.980 . S
C7660 H7634 0.983 . S
C7660 C7656 1.684 . S
H7661 C7679 0.948 . S
H7662 C7620 0.948 . S
H7663 C7638 0.979 . S
H7664 C7638 0.980 . S
H7665 C7638 0.983 . S
H7666 C7637 0.982 . S
H7667 C7637 0.979 . S
H7668 C7637 0.977 . S
H7669 C7639 0.948 . S
H7670 C7641 0.947 . S
H7671 C7642 0.948 . S
H7672 C7648 0.982 . S
H7673 C7648 0.979 . S
H7674 C7648 0.977 . S
H7675 C7649 0.979 . S
H7676 C7649 0.980 . S
H7677 C7649 0.983 . S
H7678 C7622 0.947 . S
C7679 C7622 1.392 . S
C7679 C7623 1.419 . S
C7679 H7661 0.948 . S
C7680 C7681 1.391 . S
C7680 C7684 1.391 . S
C7680 H7722 0.948 . S
C7681 C7680 1.391 . S
C7681 C7682 1.391 . S
C7682 C7681 1.391 . S
C7682 H7738 0.947 . S
C7682 C7739 1.392 . S
C7683 C7684 1.391 . S
C7683 C7687 1.397 . S
C7683 C7739 1.419 . S
C7684 C7680 1.391 . S
C7684 C7683 1.391 . S
C7684 C7685 1.399 . S
C7685 C7684 1.399 . S
C7685 C7688 1.396 . S
C7685 C7697 1.453 . S
C7685 C7698 1.684 . S
H7686 C7710 0.948 . S
C7687 C7683 1.397 . S
C7687 C7688 1.394 . S
C7687 C7706 1.723 . S
C7688 C7685 1.396 . S
C7688 C7687 1.394 . S
C7688 C7718 1.723 . S
H7689 C7712 0.947 . S
H7690 C7713 0.948 . S
H7691 C7719 0.982 . S
H7692 C7720 0.979 . S
H7693 C7720 0.980 . S
H7694 C7720 0.983 . S
H7695 C7719 0.979 . S
H7696 C7719 0.977 . S
C7697 C7685 1.453 . S
C7697 H7726 0.982 . S
C7697 H7727 0.979 . S
C7697 H7728 0.977 . S
C7698 C7685 1.684 . S
C7698 H7723 0.979 . S
C7698 H7724 0.980 . S
C7698 H7725 0.983 . S
C7699 C7700 1.391 . S
C7699 C7704 1.391 . S
C7699 H7729 0.948 . S
C7700 C7699 1.391 . S
C7700 C7701 1.391 . S
C7701 C7700 1.391 . S
C7701 C7702 1.392 . S
C7701 H7730 0.947 . S
C7702 C7701 1.392 . S
C7702 C7703 1.419 . S
C7702 H7731 0.948 . S
C7703 C7702 1.419 . S
C7703 C7704 1.391 . S
C7703 C7707 1.397 . S
C7704 C7699 1.391 . S
C7704 C7703 1.391 . S
C7704 C7705 1.399 . S
C7705 C7704 1.399 . S
C7705 C7706 1.396 . S
C7705 C7708 1.453 . S
C7705 C7709 1.684 . S
C7706 C7687 1.723 . S
C7706 C7705 1.396 . S
C7706 C7707 1.394 . S
C7707 C7703 1.397 . S
C7707 C7706 1.394 . S
C7707 C7717 1.723 . S
C7708 C7705 1.453 . S
C7708 H7732 0.982 . S
C7708 H7733 0.979 . S
C7708 H7734 0.977 . S
C7709 C7705 1.684 . S
C7709 H7735 0.979 . S
C7709 H7736 0.980 . S
C7709 H7737 0.983 . S
C7710 H7686 0.948 . S
C7710 C7711 1.391 . S
C7710 C7715 1.391 . S
C7711 C7710 1.391 . S
C7711 C7712 1.391 . S
C7712 H7689 0.947 . S
C7712 C7711 1.391 . S
C7712 C7713 1.392 . S
C7713 H7690 0.948 . S
C7713 C7712 1.392 . S
C7713 C7714 1.419 . S
C7714 C7713 1.419 . S
C7714 C7715 1.391 . S
C7714 C7718 1.397 . S
C7715 C7710 1.391 . S
C7715 C7714 1.391 . S
C7715 C7716 1.399 . S
C7716 C7715 1.399 . S
C7716 C7717 1.396 . S
C7716 C7719 1.453 . S
C7716 C7720 1.684 . S
C7717 C7707 1.723 . S
C7717 C7716 1.396 . S
C7717 C7718 1.394 . S
C7718 C7688 1.723 . S
C7718 C7714 1.397 . S
C7718 C7717 1.394 . S
C7719 H7691 0.982 . S
C7719 H7695 0.979 . S
C7719 H7696 0.977 . S
C7719 C7716 1.453 . S
C7720 H7692 0.979 . S
C7720 H7693 0.980 . S
C7720 H7694 0.983 . S
C7720 C7716 1.684 . S
H7721 C7739 0.948 . S
H7722 C7680 0.948 . S
H7723 C7698 0.979 . S
H7724 C7698 0.980 . S
H7725 C7698 0.983 . S
H7726 C7697 0.982 . S
H7727 C7697 0.979 . S
H7728 C7697 0.977 . S
H7729 C7699 0.948 . S
H7730 C7701 0.947 . S
H7731 C7702 0.948 . S
H7732 C7708 0.982 . S
H7733 C7708 0.979 . S
H7734 C7708 0.977 . S
H7735 C7709 0.979 . S
H7736 C7709 0.980 . S
H7737 C7709 0.983 . S
H7738 C7682 0.947 . S
C7739 C7682 1.392 . S
C7739 C7683 1.419 . S
C7739 H7721 0.948 . S
C7740 C7741 1.391 . S
C7740 C7744 1.391 . S
C7740 H7782 0.948 . S
C7741 C7740 1.391 . S
C7741 C7742 1.391 . S
C7742 C7741 1.391 . S
C7742 H7798 0.947 . S
C7742 C7799 1.392 . S
C7743 C7744 1.391 . S
C7743 C7747 1.397 . S
C7743 C7799 1.419 . S
C7744 C7740 1.391 . S
C7744 C7743 1.391 . S
C7744 C7745 1.399 . S
C7745 C7744 1.399 . S
C7745 C7748 1.396 . S
C7745 C7757 1.453 . S
C7745 C7758 1.684 . S
H7746 C7770 0.948 . S
C7747 C7743 1.397 . S
C7747 C7748 1.394 . S
C7747 C7766 1.723 . S
C7748 C7745 1.396 . S
C7748 C7747 1.394 . S
C7748 C7778 1.723 . S
H7749 C7772 0.947 . S
H7750 C7773 0.948 . S
H7751 C7779 0.982 . S
H7752 C7780 0.979 . S
H7753 C7780 0.980 . S
H7754 C7780 0.983 . S
H7755 C7779 0.979 . S
H7756 C7779 0.977 . S
C7757 C7745 1.453 . S
C7757 H7786 0.982 . S
C7757 H7787 0.979 . S
C7757 H7788 0.977 . S
C7758 C7745 1.684 . S
C7758 H7783 0.979 . S
C7758 H7784 0.980 . S
C7758 H7785 0.983 . S
C7759 C7760 1.391 . S
C7759 C7764 1.391 . S
C7759 H7789 0.948 . S
C7760 C7759 1.391 . S
C7760 C7761 1.391 . S
C7761 C7760 1.391 . S
C7761 C7762 1.392 . S
C7761 H7790 0.947 . S
C7762 C7761 1.392 . S
C7762 C7763 1.419 . S
C7762 H7791 0.948 . S
C7763 C7762 1.419 . S
C7763 C7764 1.391 . S
C7763 C7767 1.397 . S
C7764 C7759 1.391 . S
C7764 C7763 1.391 . S
C7764 C7765 1.399 . S
C7765 C7764 1.399 . S
C7765 C7766 1.396 . S
C7765 C7768 1.453 . S
C7765 C7769 1.684 . S
C7766 C7747 1.723 . S
C7766 C7765 1.396 . S
C7766 C7767 1.394 . S
C7767 C7763 1.397 . S
C7767 C7766 1.394 . S
C7767 C7777 1.723 . S
C7768 C7765 1.453 . S
C7768 H7792 0.982 . S
C7768 H7793 0.979 . S
C7768 H7794 0.977 . S
C7769 C7765 1.684 . S
C7769 H7795 0.979 . S
C7769 H7796 0.980 . S
C7769 H7797 0.983 . S
C7770 H7746 0.948 . S
C7770 C7771 1.391 . S
C7770 C7775 1.391 . S
C7771 C7770 1.391 . S
C7771 C7772 1.391 . S
C7772 H7749 0.947 . S
C7772 C7771 1.391 . S
C7772 C7773 1.392 . S
C7773 H7750 0.948 . S
C7773 C7772 1.392 . S
C7773 C7774 1.419 . S
C7774 C7773 1.419 . S
C7774 C7775 1.391 . S
C7774 C7778 1.397 . S
C7775 C7770 1.391 . S
C7775 C7774 1.391 . S
C7775 C7776 1.399 . S
C7776 C7775 1.399 . S
C7776 C7777 1.396 . S
C7776 C7779 1.453 . S
C7776 C7780 1.684 . S
C7777 C7767 1.723 . S
C7777 C7776 1.396 . S
C7777 C7778 1.394 . S
C7778 C7748 1.723 . S
C7778 C7774 1.397 . S
C7778 C7777 1.394 . S
C7779 H7751 0.982 . S
C7779 H7755 0.979 . S
C7779 H7756 0.977 . S
C7779 C7776 1.453 . S
C7780 H7752 0.979 . S
C7780 H7753 0.980 . S
C7780 H7754 0.983 . S
C7780 C7776 1.684 . S
H7781 C7799 0.948 . S
H7782 C7740 0.948 . S
H7783 C7758 0.979 . S
H7784 C7758 0.980 . S
H7785 C7758 0.983 . S
H7786 C7757 0.982 . S
H7787 C7757 0.979 . S
H7788 C7757 0.977 . S
H7789 C7759 0.948 . S
H7790 C7761 0.947 . S
H7791 C7762 0.948 . S
H7792 C7768 0.982 . S
H7793 C7768 0.979 . S
H7794 C7768 0.977 . S
H7795 C7769 0.979 . S
H7796 C7769 0.980 . S
H7797 C7769 0.983 . S
H7798 C7742 0.947 . S
C7799 C7742 1.392 . S
C7799 C7743 1.419 . S
C7799 H7781 0.948 . S
C7800 C7801 1.391 . S
C7800 C7804 1.391 . S
C7800 H7842 0.948 . S
C7801 C7800 1.391 . S
C7801 C7802 1.391 . S
C7802 C7801 1.391 . S
C7802 H7858 0.947 . S
C7802 C7859 1.392 . S
C7803 C7804 1.391 . S
C7803 C7807 1.397 . S
C7803 C7859 1.419 . S
C7804 C7800 1.391 . S
C7804 C7803 1.391 . S
C7804 C7805 1.399 . S
C7805 C7804 1.399 . S
C7805 C7808 1.396 . S
C7805 C7817 1.453 . S
C7805 C7818 1.684 . S
H7806 C7830 0.948 . S
C7807 C7803 1.397 . S
C7807 C7808 1.394 . S
C7807 C7826 1.723 . S
C7808 C7805 1.396 . S
C7808 C7807 1.394 . S
C7808 C7838 1.723 . S
H7809 C7832 0.947 . S
H7810 C7833 0.948 . S
H7811 C7839 0.982 . S
H7812 C7840 0.979 . S
H7813 C7840 0.980 . S
H7814 C7840 0.983 . S
H7815 C7839 0.979 . S
H7816 C7839 0.977 . S
C7817 C7805 1.453 . S
C7817 H7846 0.982 . S
C7817 H7847 0.979 . S
C7817 H7848 0.977 . S
C7818 C7805 1.684 . S
C7818 H7843 0.979 . S
C7818 H7844 0.980 . S
C7818 H7845 0.983 . S
C7819 C7820 1.391 . S
C7819 C7824 1.391 . S
C7819 H7849 0.948 . S
C7820 C7819 1.391 . S
C7820 C7821 1.391 . S
C7821 C7820 1.391 . S
C7821 C7822 1.392 . S
C7821 H7850 0.947 . S
C7822 C7821 1.392 . S
C7822 C7823 1.419 . S
C7822 H7851 0.948 . S
C7823 C7822 1.419 . S
C7823 C7824 1.391 . S
C7823 C7827 1.397 . S
C7824 C7819 1.391 . S
C7824 C7823 1.391 . S
C7824 C7825 1.399 . S
C7825 C7824 1.399 . S
C7825 C7826 1.396 . S
C7825 C7828 1.453 . S
C7825 C7829 1.684 . S
C7826 C7807 1.723 . S
C7826 C7825 1.396 . S
C7826 C7827 1.394 . S
C7827 C7823 1.397 . S
C7827 C7826 1.394 . S
C7827 C7837 1.723 . S
C7828 C7825 1.453 . S
C7828 H7852 0.982 . S
C7828 H7853 0.979 . S
C7828 H7854 0.977 . S
C7829 C7825 1.684 . S
C7829 H7855 0.979 . S
C7829 H7856 0.980 . S
C7829 H7857 0.983 . S
C7830 H7806 0.948 . S
C7830 C7831 1.391 . S
C7830 C7835 1.391 . S
C7831 C7830 1.391 . S
C7831 C7832 1.391 . S
C7832 H7809 0.947 . S
C7832 C7831 1.391 . S
C7832 C7833 1.392 . S
C7833 H7810 0.948 . S
C7833 C7832 1.392 . S
C7833 C7834 1.419 . S
C7834 C7833 1.419 . S
C7834 C7835 1.391 . S
C7834 C7838 1.397 . S
C7835 C7830 1.391 . S
C7835 C7834 1.391 . S
C7835 C7836 1.399 . S
C7836 C7835 1.399 . S
C7836 C7837 1.396 . S
C7836 C7839 1.453 . S
C7836 C7840 1.684 . S
C7837 C7827 1.723 . S
C7837 C7836 1.396 . S
C7837 C7838 1.394 . S
C7838 C7808 1.723 . S
C7838 C7834 1.397 . S
C7838 C7837 1.394 . S
C7839 H7811 0.982 . S
C7839 H7815 0.979 . S
C7839 H7816 0.977 . S
C7839 C7836 1.453 . S
C7840 H7812 0.979 . S
C7840 H7813 0.980 . S
C7840 H7814 0.983 . S
C7840 C7836 1.684 . S
H7841 C7859 0.948 . S
H7842 C7800 0.948 . S
H7843 C7818 0.979 . S
H7844 C7818 0.980 . S
H7845 C7818 0.983 . S
H7846 C7817 0.982 . S
H7847 C7817 0.979 . S
H7848 C7817 0.977 . S
H7849 C7819 0.948 . S
H7850 C7821 0.947 . S
H7851 C7822 0.948 . S
H7852 C7828 0.982 . S
H7853 C7828 0.979 . S
H7854 C7828 0.977 . S
H7855 C7829 0.979 . S
H7856 C7829 0.980 . S
H7857 C7829 0.983 . S
H7858 C7802 0.947 . S
C7859 C7802 1.392 . S
C7859 C7803 1.419 . S
C7859 H7841 0.948 . S
C7860 C7861 1.391 . S
C7860 C7864 1.391 . S
C7860 H7902 0.948 . S
C7861 C7860 1.391 . S
C7861 C7862 1.391 . S
C7862 C7861 1.391 . S
C7862 H7918 0.947 . S
C7862 C7919 1.392 . S
C7863 C7864 1.391 . S
C7863 C7867 1.397 . S
C7863 C7919 1.419 . S
C7864 C7860 1.391 . S
C7864 C7863 1.391 . S
C7864 C7865 1.399 . S
C7865 C7864 1.399 . S
C7865 C7868 1.396 . S
C7865 C7877 1.453 . S
C7865 C7878 1.684 . S
H7866 C7890 0.948 . S
C7867 C7863 1.397 . S
C7867 C7868 1.394 . S
C7867 C7886 1.723 . S
C7868 C7865 1.396 . S
C7868 C7867 1.394 . S
C7868 C7898 1.723 . S
H7869 C7892 0.947 . S
H7870 C7893 0.948 . S
H7871 C7899 0.982 . S
H7872 C7900 0.979 . S
H7873 C7900 0.980 . S
H7874 C7900 0.983 . S
H7875 C7899 0.979 . S
H7876 C7899 0.977 . S
C7877 C7865 1.453 . S
C7877 H7906 0.982 . S
C7877 H7907 0.979 . S
C7877 H7908 0.977 . S
C7878 C7865 1.684 . S
C7878 H7903 0.979 . S
C7878 H7904 0.980 . S
C7878 H7905 0.983 . S
C7879 C7880 1.391 . S
C7879 C7884 1.391 . S
C7879 H7909 0.948 . S
C7880 C7879 1.391 . S
C7880 C7881 1.391 . S
C7881 C7880 1.391 . S
C7881 C7882 1.392 . S
C7881 H7910 0.947 . S
C7882 C7881 1.392 . S
C7882 C7883 1.419 . S
C7882 H7911 0.948 . S
C7883 C7882 1.419 . S
C7883 C7884 1.391 . S
C7883 C7887 1.397 . S
C7884 C7879 1.391 . S
C7884 C7883 1.391 . S
C7884 C7885 1.399 . S
C7885 C7884 1.399 . S
C7885 C7886 1.396 . S
C7885 C7888 1.453 . S
C7885 C7889 1.684 . S
C7886 C7867 1.723 . S
C7886 C7885 1.396 . S
C7886 C7887 1.394 . S
C7887 C7883 1.397 . S
C7887 C7886 1.394 . S
C7887 C7897 1.723 . S
C7888 C7885 1.453 . S
C7888 H7912 0.982 . S
C7888 H7913 0.979 . S
C7888 H7914 0.977 . S
C7889 C7885 1.684 . S
C7889 H7915 0.979 . S
C7889 H7916 0.980 . S
C7889 H7917 0.983 . S
C7890 H7866 0.948 . S
C7890 C7891 1.391 . S
C7890 C7895 1.391 . S
C7891 C7890 1.391 . S
C7891 C7892 1.391 . S
C7892 H7869 0.947 . S
C7892 C7891 1.391 . S
C7892 C7893 1.392 . S
C7893 H7870 0.948 . S
C7893 C7892 1.392 . S
C7893 C7894 1.419 . S
C7894 C7893 1.419 . S
C7894 C7895 1.391 . S
C7894 C7898 1.397 . S
C7895 C7890 1.391 . S
C7895 C7894 1.391 . S
C7895 C7896 1.399 . S
C7896 C7895 1.399 . S
C7896 C7897 1.396 . S
C7896 C7899 1.453 . S
C7896 C7900 1.684 . S
C7897 C7887 1.723 . S
C7897 C7896 1.396 . S
C7897 C7898 1.394 . S
C7898 C7868 1.723 . S
C7898 C7894 1.397 . S
C7898 C7897 1.394 . S
C7899 H7871 0.982 . S
C7899 H7875 0.979 . S
C7899 H7876 0.977 . S
C7899 C7896 1.453 . S
C7900 H7872 0.979 . S
C7900 H7873 0.980 . S
C7900 H7874 0.983 . S
C7900 C7896 1.684 . S
H7901 C7919 0.948 . S
H7902 C7860 0.948 . S
H7903 C7878 0.979 . S
H7904 C7878 0.980 . S
H7905 C7878 0.983 . S
H7906 C7877 0.982 . S
H7907 C7877 0.979 . S
H7908 C7877 0.977 . S
H7909 C7879 0.948 . S
H7910 C7881 0.947 . S
H7911 C7882 0.948 . S
H7912 C7888 0.982 . S
H7913 C7888 0.979 . S
H7914 C7888 0.977 . S
H7915 C7889 0.979 . S
H7916 C7889 0.980 . S
H7917 C7889 0.983 . S
H7918 C7862 0.947 . S
C7919 C7862 1.392 . S
C7919 C7863 1.419 . S
C7919 H7901 0.948 . S
C7920 C7921 1.391 . S
C7920 C7924 1.391 . S
C7920 H7962 0.948 . S
C7921 C7920 1.391 . S
C7921 C7922 1.391 . S
C7922 C7921 1.391 . S
C7922 H7978 0.947 . S
C7922 C7979 1.392 . S
C7923 C7924 1.391 . S
C7923 C7927 1.397 . S
C7923 C7979 1.419 . S
C7924 C7920 1.391 . S
C7924 C7923 1.391 . S
C7924 C7925 1.399 . S
C7925 C7924 1.399 . S
C7925 C7928 1.396 . S
C7925 C7937 1.453 . S
C7925 C7938 1.684 . S
H7926 C7950 0.948 . S
C7927 C7923 1.397 . S
C7927 C7928 1.394 . S
C7927 C7946 1.723 . S
C7928 C7925 1.396 . S
C7928 C7927 1.394 . S
C7928 C7958 1.723 . S
H7929 C7952 0.947 . S
H7930 C7953 0.948 . S
H7931 C7959 0.982 . S
H7932 C7960 0.979 . S
H7933 C7960 0.980 . S
H7934 C7960 0.983 . S
H7935 C7959 0.979 . S
H7936 C7959 0.977 . S
C7937 C7925 1.453 . S
C7937 H7966 0.982 . S
C7937 H7967 0.979 . S
C7937 H7968 0.977 . S
C7938 C7925 1.684 . S
C7938 H7963 0.979 . S
C7938 H7964 0.980 . S
C7938 H7965 0.983 . S
C7939 C7940 1.391 . S
C7939 C7944 1.391 . S
C7939 H7969 0.948 . S
C7940 C7939 1.391 . S
C7940 C7941 1.391 . S
C7941 C7940 1.391 . S
C7941 C7942 1.392 . S
C7941 H7970 0.947 . S
C7942 C7941 1.392 . S
C7942 C7943 1.419 . S
C7942 H7971 0.948 . S
C7943 C7942 1.419 . S
C7943 C7944 1.391 . S
C7943 C7947 1.397 . S
C7944 C7939 1.391 . S
C7944 C7943 1.391 . S
C7944 C7945 1.399 . S
C7945 C7944 1.399 . S
C7945 C7946 1.396 . S
C7945 C7948 1.453 . S
C7945 C7949 1.684 . S
C7946 C7927 1.723 . S
C7946 C7945 1.396 . S
C7946 C7947 1.394 . S
C7947 C7943 1.397 . S
C7947 C7946 1.394 . S
C7947 C7957 1.723 . S
C7948 C7945 1.453 . S
C7948 H7972 0.982 . S
C7948 H7973 0.979 . S
C7948 H7974 0.977 . S
C7949 C7945 1.684 . S
C7949 H7975 0.979 . S
C7949 H7976 0.980 . S
C7949 H7977 0.983 . S
C7950 H7926 0.948 . S
C7950 C7951 1.391 . S
C7950 C7955 1.391 . S
C7951 C7950 1.391 . S
C7951 C7952 1.391 . S
C7952 H7929 0.947 . S
C7952 C7951 1.391 . S
C7952 C7953 1.392 . S
C7953 H7930 0.948 . S
C7953 C7952 1.392 . S
C7953 C7954 1.419 . S
C7954 C7953 1.419 . S
C7954 C7955 1.391 . S
C7954 C7958 1.397 . S
C7955 C7950 1.391 . S
C7955 C7954 1.391 . S
C7955 C7956 1.399 . S
C7956 C7955 1.399 . S
C7956 C7957 1.396 . S
C7956 C7959 1.453 . S
C7956 C7960 1.684 . S
C7957 C7947 1.723 . S
C7957 C7956 1.396 . S
C7957 C7958 1.394 . S
C7958 C7928 1.723 . S
C7958 C7954 1.397 . S
C7958 C7957 1.394 . S
C7959 H7931 0.982 . S
C7959 H7935 0.979 . S
C7959 H7936 0.977 . S
C7959 C7956 1.453 . S
C7960 H7932 0.979 . S
C7960 H7933 0.980 . S
C7960 H7934 0.983 . S
C7960 C7956 1.684 . S
H7961 C7979 0.948 . S
H7962 C7920 0.948 . S
H7963 C7938 0.979 . S
H7964 C7938 0.980 . S
H7965 C7938 0.983 . S
H7966 C7937 0.982 . S
H7967 C7937 0.979 . S
H7968 C7937 0.977 . S
H7969 C7939 0.948 . S
H7970 C7941 0.947 . S
H7971 C7942 0.948 . S
H7972 C7948 0.982 . S
H7973 C7948 0.979 . S
H7974 C7948 0.977 . S
H7975 C7949 0.979 . S
H7976 C7949 0.980 . S
H7977 C7949 0.983 . S
H7978 C7922 0.947 . S
C7979 C7922 1.392 . S
C7979 C7923 1.419 . S
C7979 H7961 0.948 . S
C7980 C7981 1.391 . S
C7980 C7984 1.391 . S
C7980 H8022 0.948 . S
C7981 C7980 1.391 . S
C7981 C7982 1.391 . S
C7982 C7981 1.391 . S
C7982 H8038 0.947 . S
C7982 C8039 1.392 . S
C7983 C7984 1.391 . S
C7983 C7987 1.397 . S
C7983 C8039 1.419 . S
C7984 C7980 1.391 . S
C7984 C7983 1.391 . S
C7984 C7985 1.399 . S
C7985 C7984 1.399 . S
C7985 C7988 1.396 . S
C7985 C7997 1.453 . S
C7985 C7998 1.684 . S
H7986 C8010 0.948 . S
C7987 C7983 1.397 . S
C7987 C7988 1.394 . S
C7987 C8006 1.723 . S
C7988 C7985 1.396 . S
C7988 C7987 1.394 . S
C7988 C8018 1.723 . S
H7989 C8012 0.947 . S
H7990 C8013 0.948 . S
H7991 C8019 0.982 . S
H7992 C8020 0.979 . S
H7993 C8020 0.980 . S
H7994 C8020 0.983 . S
H7995 C8019 0.979 . S
H7996 C8019 0.977 . S
C7997 C7985 1.453 . S
C7997 H8026 0.982 . S
C7997 H8027 0.979 . S
C7997 H8028 0.977 . S
C7998 C7985 1.684 . S
C7998 H8023 0.979 . S
C7998 H8024 0.980 . S
C7998 H8025 0.983 . S
C7999 C8000 1.391 . S
C7999 C8004 1.391 . S
C7999 H8029 0.948 . S
C8000 C7999 1.391 . S
C8000 C8001 1.391 . S
C8001 C8000 1.391 . S
C8001 C8002 1.392 . S
C8001 H8030 0.947 . S
C8002 C8001 1.392 . S
C8002 C8003 1.419 . S
C8002 H8031 0.948 . S
C8003 C8002 1.419 . S
C8003 C8004 1.391 . S
C8003 C8007 1.397 . S
C8004 C7999 1.391 . S
C8004 C8003 1.391 . S
C8004 C8005 1.399 . S
C8005 C8004 1.399 . S
C8005 C8006 1.396 . S
C8005 C8008 1.453 . S
C8005 C8009 1.684 . S
C8006 C7987 1.723 . S
C8006 C8005 1.396 . S
C8006 C8007 1.394 . S
C8007 C8003 1.397 . S
C8007 C8006 1.394 . S
C8007 C8017 1.723 . S
C8008 C8005 1.453 . S
C8008 H8032 0.982 . S
C8008 H8033 0.979 . S
C8008 H8034 0.977 . S
C8009 C8005 1.684 . S
C8009 H8035 0.979 . S
C8009 H8036 0.980 . S
C8009 H8037 0.983 . S
C8010 H7986 0.948 . S
C8010 C8011 1.391 . S
C8010 C8015 1.391 . S
C8011 C8010 1.391 . S
C8011 C8012 1.391 . S
C8012 H7989 0.947 . S
C8012 C8011 1.391 . S
C8012 C8013 1.392 . S
C8013 H7990 0.948 . S
C8013 C8012 1.392 . S
C8013 C8014 1.419 . S
C8014 C8013 1.419 . S
C8014 C8015 1.391 . S
C8014 C8018 1.397 . S
C8015 C8010 1.391 . S
C8015 C8014 1.391 . S
C8015 C8016 1.399 . S
C8016 C8015 1.399 . S
C8016 C8017 1.396 . S
C8016 C8019 1.453 . S
C8016 C8020 1.684 . S
C8017 C8007 1.723 . S
C8017 C8016 1.396 . S
C8017 C8018 1.394 . S
C8018 C7988 1.723 . S
C8018 C8014 1.397 . S
C8018 C8017 1.394 . S
C8019 H7991 0.982 . S
C8019 H7995 0.979 . S
C8019 H7996 0.977 . S
C8019 C8016 1.453 . S
C8020 H7992 0.979 . S
C8020 H7993 0.980 . S
C8020 H7994 0.983 . S
C8020 C8016 1.684 . S
H8021 C8039 0.948 . S
H8022 C7980 0.948 . S
H8023 C7998 0.979 . S
H8024 C7998 0.980 . S
H8025 C7998 0.983 . S
H8026 C7997 0.982 . S
H8027 C7997 0.979 . S
H8028 C7997 0.977 . S
H8029 C7999 0.948 . S
H8030 C8001 0.947 . S
H8031 C8002 0.948 . S
H8032 C8008 0.982 . S
H8033 C8008 0.979 . S
H8034 C8008 0.977 . S
H8035 C8009 0.979 . S
H8036 C8009 0.980 . S
H8037 C8009 0.983 . S
H8038 C7982 0.947 . S
C8039 C7982 1.392 . S
C8039 C7983 1.419 . S
C8039 H8021 0.948 . S
C8040 C8041 1.391 . S
C8040 C8044 1.391 . S
C8040 H8082 0.948 . S
C8041 C8040 1.391 . S
C8041 C8042 1.391 . S
C8042 C8041 1.391 . S
C8042 H8098 0.947 . S
C8042 C8099 1.392 . S
C8043 C8044 1.391 . S
C8043 C8047 1.397 . S
C8043 C8099 1.419 . S
C8044 C8040 1.391 . S
C8044 C8043 1.391 . S
C8044 C8045 1.399 . S
C8045 C8044 1.399 . S
C8045 C8048 1.396 . S
C8045 C8057 1.453 . S
C8045 C8058 1.684 . S
H8046 C8070 0.948 . S
C8047 C8043 1.397 . S
C8047 C8048 1.394 . S
C8047 C8066 1.723 . S
C8048 C8045 1.396 . S
C8048 C8047 1.394 . S
C8048 C8078 1.723 . S
H8049 C8072 0.947 . S
H8050 C8073 0.948 . S
H8051 C8079 0.982 . S
H8052 C8080 0.979 . S
H8053 C8080 0.980 . S
H8054 C8080 0.983 . S
H8055 C8079 0.979 . S
H8056 C8079 0.977 . S
C8057 C8045 1.453 . S
C8057 H8086 0.982 . S
C8057 H8087 0.979 . S
C8057 H8088 0.977 . S
C8058 C8045 1.684 . S
C8058 H8083 0.979 . S
C8058 H8084 0.980 . S
C8058 H8085 0.983 . S
C8059 C8060 1.391 . S
C8059 C8064 1.391 . S
C8059 H8089 0.948 . S
C8060 C8059 1.391 . S
C8060 C8061 1.391 . S
C8061 C8060 1.391 . S
C8061 C8062 1.392 . S
C8061 H8090 0.947 . S
C8062 C8061 1.392 . S
C8062 C8063 1.419 . S
C8062 H8091 0.948 . S
C8063 C8062 1.419 . S
C8063 C8064 1.391 . S
C8063 C8067 1.397 . S
C8064 C8059 1.391 . S
C8064 C8063 1.391 . S
C8064 C8065 1.399 . S
C8065 C8064 1.399 . S
C8065 C8066 1.396 . S
C8065 C8068 1.453 . S
C8065 C8069 1.684 . S
C8066 C8047 1.723 . S
C8066 C8065 1.396 . S
C8066 C8067 1.394 . S
C8067 C8063 1.397 . S
C8067 C8066 1.394 . S
C8067 C8077 1.723 . S
C8068 C8065 1.453 . S
C8068 H8092 0.982 . S
C8068 H8093 0.979 . S
C8068 H8094 0.977 . S
C8069 C8065 1.684 . S
C8069 H8095 0.979 . S
C8069 H8096 0.980 . S
C8069 H8097 0.983 . S
C8070 H8046 0.948 . S
C8070 C8071 1.391 . S
C8070 C8075 1.391 . S
C8071 C8070 1.391 . S
C8071 C8072 1.391 . S
C8072 H8049 0.947 . S
C8072 C8071 1.391 . S
C8072 C8073 1.392 . S
C8073 H8050 0.948 . S
C8073 C8072 1.392 . S
C8073 C8074 1.419 . S
C8074 C8073 1.419 . S
C8074 C8075 1.391 . S
C8074 C8078 1.397 . S
C8075 C8070 1.391 . S
C8075 C8074 1.391 . S
C8075 C8076 1.399 . S
C8076 C8075 1.399 . S
C8076 C8077 1.396 . S
C8076 C8079 1.453 . S
C8076 C8080 1.684 . S
C8077 C8067 1.723 . S
C8077 C8076 1.396 . S
C8077 C8078 1.394 . S
C8078 C8048 1.723 . S
C8078 C8074 1.397 . S
C8078 C8077 1.394 . S
C8079 H8051 0.982 . S
C8079 H8055 0.979 . S
C8079 H8056 0.977 . S
C8079 C8076 1.453 . S
C8080 H8052 0.979 . S
C8080 H8053 0.980 . S
C8080 H8054 0.983 . S
C8080 C8076 1.684 . S
H8081 C8099 0.948 . S
H8082 C8040 0.948 . S
H8083 C8058 0.979 . S
H8084 C8058 0.980 . S
H8085 C8058 0.983 . S
H8086 C8057 0.982 . S
H8087 C8057 0.979 . S
H8088 C8057 0.977 . S
H8089 C8059 0.948 . S
H8090 C8061 0.947 . S
H8091 C8062 0.948 . S
H8092 C8068 0.982 . S
H8093 C8068 0.979 . S
H8094 C8068 0.977 . S
H8095 C8069 0.979 . S
H8096 C8069 0.980 . S
H8097 C8069 0.983 . S
H8098 C8042 0.947 . S
C8099 C8042 1.392 . S
C8099 C8043 1.419 . S
C8099 H8081 0.948 . S
C8100 C8101 1.391 . S
C8100 C8104 1.391 . S
C8100 H8142 0.948 . S
C8101 C8100 1.391 . S
C8101 C8102 1.391 . S
C8102 C8101 1.391 . S
C8102 H8158 0.947 . S
C8102 C8159 1.392 . S
C8103 C8104 1.391 . S
C8103 C8107 1.397 . S
C8103 C8159 1.419 . S
C8104 C8100 1.391 . S
C8104 C8103 1.391 . S
C8104 C8105 1.399 . S
C8105 C8104 1.399 . S
C8105 C8108 1.396 . S
C8105 C8117 1.453 . S
C8105 C8118 1.684 . S
H8106 C8130 0.948 . S
C8107 C8103 1.397 . S
C8107 C8108 1.394 . S
C8107 C8126 1.723 . S
C8108 C8105 1.396 . S
C8108 C8107 1.394 . S
C8108 C8138 1.723 . S
H8109 C8132 0.947 . S
H8110 C8133 0.948 . S
H8111 C8139 0.982 . S
H8112 C8140 0.979 . S
H8113 C8140 0.980 . S
H8114 C8140 0.983 . S
H8115 C8139 0.979 . S
H8116 C8139 0.977 . S
C8117 C8105 1.453 . S
C8117 H8146 0.982 . S
C8117 H8147 0.979 . S
C8117 H8148 0.977 . S
C8118 C8105 1.684 . S
C8118 H8143 0.979 . S
C8118 H8144 0.980 . S
C8118 H8145 0.983 . S
C8119 C8120 1.391 . S
C8119 C8124 1.391 . S
C8119 H8149 0.948 . S
C8120 C8119 1.391 . S
C8120 C8121 1.391 . S
C8121 C8120 1.391 . S
C8121 C8122 1.392 . S
C8121 H8150 0.947 . S
C8122 C8121 1.392 . S
C8122 C8123 1.419 . S
C8122 H8151 0.948 . S
C8123 C8122 1.419 . S
C8123 C8124 1.391 . S
C8123 C8127 1.397 . S
C8124 C8119 1.391 . S
C8124 C8123 1.391 . S
C8124 C8125 1.399 . S
C8125 C8124 1.399 . S
C8125 C8126 1.396 . S
C8125 C8128 1.453 . S
C8125 C8129 1.684 . S
C8126 C8107 1.723 . S
C8126 C8125 1.396 . S
C8126 C8127 1.394 . S
C8127 C8123 1.397 . S
C8127 C8126 1.394 . S
C8127 C8137 1.723 . S
C8128 C8125 1.453 . S
C8128 H8152 0.982 . S
C8128 H8153 0.979 . S
C8128 H8154 0.977 . S
C8129 C8125 1.684 . S
C8129 H8155 0.979 . S
C8129 H8156 0.980 . S
C8129 H8157 0.983 . S
C8130 H8106 0.948 . S
C8130 C8131 1.391 . S
C8130 C8135 1.391 . S
C8131 C8130 1.391 . S
C8131 C8132 1.391 . S
C8132 H8109 0.947 . S
C8132 C8131 1.391 . S
C8132 C8133 1.392 . S
C8133 H8110 0.948 . S
C8133 C8132 1.392 . S
C8133 C8134 1.419 . S
C8134 C8133 1.419 . S
C8134 C8135 1.391 . S
C8134 C8138 1.397 . S
C8135 C8130 1.391 . S
C8135 C8134 1.391 . S
C8135 C8136 1.399 . S
C8136 C8135 1.399 . S
C8136 C8137 1.396 . S
C8136 C8139 1.453 . S
C8136 C8140 1.684 . S
C8137 C8127 1.723 . S
C8137 C8136 1.396 . S
C8137 C8138 1.394 . S
C8138 C8108 1.723 . S
C8138 C8134 1.397 . S
C8138 C8137 1.394 . S
C8139 H8111 0.982 . S
C8139 H8115 0.979 . S
C8139 H8116 0.977 . S
C8139 C8136 1.453 . S
C8140 H8112 0.979 . S
C8140 H8113 0.980 . S
C8140 H8114 0.983 . S
C8140 C8136 1.684 . S
H8141 C8159 0.948 . S
H8142 C8100 0.948 . S
H8143 C8118 0.979 . S
H8144 C8118 0.980 . S
H8145 C8118 0.983 . S
H8146 C8117 0.982 . S
H8147 C8117 0.979 . S
H8148 C8117 0.977 . S
H8149 C8119 0.948 . S
H8150 C8121 0.947 . S
H8151 C8122 0.948 . S
H8152 C8128 0.982 . S
H8153 C8128 0.979 . S
H8154 C8128 0.977 . S
H8155 C8129 0.979 . S
H8156 C8129 0.980 . S
H8157 C8129 0.983 . S
H8158 C8102 0.947 . S
C8159 C8102 1.392 . S
C8159 C8103 1.419 . S
C8159 H8141 0.948 . S
C8160 C8161 1.391 . S
C8160 C8164 1.391 . S
C8160 H8202 0.948 . S
C8161 C8160 1.391 . S
C8161 C8162 1.391 . S
C8162 C8161 1.391 . S
C8162 H8218 0.947 . S
C8162 C8219 1.392 . S
C8163 C8164 1.391 . S
C8163 C8167 1.397 . S
C8163 C8219 1.419 . S
C8164 C8160 1.391 . S
C8164 C8163 1.391 . S
C8164 C8165 1.399 . S
C8165 C8164 1.399 . S
C8165 C8168 1.396 . S
C8165 C8177 1.453 . S
C8165 C8178 1.684 . S
H8166 C8190 0.948 . S
C8167 C8163 1.397 . S
C8167 C8168 1.394 . S
C8167 C8186 1.723 . S
C8168 C8165 1.396 . S
C8168 C8167 1.394 . S
C8168 C8198 1.723 . S
H8169 C8192 0.947 . S
H8170 C8193 0.948 . S
H8171 C8199 0.982 . S
H8172 C8200 0.979 . S
H8173 C8200 0.980 . S
H8174 C8200 0.983 . S
H8175 C8199 0.979 . S
H8176 C8199 0.977 . S
C8177 C8165 1.453 . S
C8177 H8206 0.982 . S
C8177 H8207 0.979 . S
C8177 H8208 0.977 . S
C8178 C8165 1.684 . S
C8178 H8203 0.979 . S
C8178 H8204 0.980 . S
C8178 H8205 0.983 . S
C8179 C8180 1.391 . S
C8179 C8184 1.391 . S
C8179 H8209 0.948 . S
C8180 C8179 1.391 . S
C8180 C8181 1.391 . S
C8181 C8180 1.391 . S
C8181 C8182 1.392 . S
C8181 H8210 0.947 . S
C8182 C8181 1.392 . S
C8182 C8183 1.419 . S
C8182 H8211 0.948 . S
C8183 C8182 1.419 . S
C8183 C8184 1.391 . S
C8183 C8187 1.397 . S
C8184 C8179 1.391 . S
C8184 C8183 1.391 . S
C8184 C8185 1.399 . S
C8185 C8184 1.399 . S
C8185 C8186 1.396 . S
C8185 C8188 1.453 . S
C8185 C8189 1.684 . S
C8186 C8167 1.723 . S
C8186 C8185 1.396 . S
C8186 C8187 1.394 . S
C8187 C8183 1.397 . S
C8187 C8186 1.394 . S
C8187 C8197 1.723 . S
C8188 C8185 1.453 . S
C8188 H8212 0.982 . S
C8188 H8213 0.979 . S
C8188 H8214 0.977 . S
C8189 C8185 1.684 . S
C8189 H8215 0.979 . S
C8189 H8216 0.980 . S
C8189 H8217 0.983 . S
C8190 H8166 0.948 . S
C8190 C8191 1.391 . S
C8190 C8195 1.391 . S
C8191 C8190 1.391 . S
C8191 C8192 1.391 . S
C8192 H8169 0.947 . S
C8192 C8191 1.391 . S
C8192 C8193 1.392 . S
C8193 H8170 0.948 . S
C8193 C8192 1.392 . S
C8193 C8194 1.419 . S
C8194 C8193 1.419 . S
C8194 C8195 1.391 . S
C8194 C8198 1.397 . S
C8195 C8190 1.391 . S
C8195 C8194 1.391 . S
C8195 C8196 1.399 . S
C8196 C8195 1.399 . S
C8196 C8197 1.396 . S
C8196 C8199 1.453 . S
C8196 C8200 1.684 . S
C8197 C8187 1.723 . S
C8197 C8196 1.396 . S
C8197 C8198 1.394 . S
C8198 C8168 1.723 . S
C8198 C8194 1.397 . S
C8198 C8197 1.394 . S
C8199 H8171 0.982 . S
C8199 H8175 0.979 . S
C8199 H8176 0.977 . S
C8199 C8196 1.453 . S
C8200 H8172 0.979 . S
C8200 H8173 0.980 . S
C8200 H8174 0.983 . S
C8200 C8196 1.684 . S
H8201 C8219 0.948 . S
H8202 C8160 0.948 . S
H8203 C8178 0.979 . S
H8204 C8178 0.980 . S
H8205 C8178 0.983 . S
H8206 C8177 0.982 . S
H8207 C8177 0.979 . S
H8208 C8177 0.977 . S
H8209 C8179 0.948 . S
H8210 C8181 0.947 . S
H8211 C8182 0.948 . S
H8212 C8188 0.982 . S
H8213 C8188 0.979 . S
H8214 C8188 0.977 . S
H8215 C8189 0.979 . S
H8216 C8189 0.980 . S
H8217 C8189 0.983 . S
H8218 C8162 0.947 . S
C8219 C8162 1.392 . S
C8219 C8163 1.419 . S
C8219 H8201 0.948 . S
C8220 C8221 1.391 . S
C8220 C8224 1.391 . S
C8220 H8262 0.948 . S
C8221 C8220 1.391 . S
C8221 C8222 1.391 . S
C8222 C8221 1.391 . S
C8222 H8278 0.947 . S
C8222 C8279 1.392 . S
C8223 C8224 1.391 . S
C8223 C8227 1.397 . S
C8223 C8279 1.419 . S
C8224 C8220 1.391 . S
C8224 C8223 1.391 . S
C8224 C8225 1.399 . S
C8225 C8224 1.399 . S
C8225 C8228 1.396 . S
C8225 C8237 1.453 . S
C8225 C8238 1.684 . S
H8226 C8250 0.948 . S
C8227 C8223 1.397 . S
C8227 C8228 1.394 . S
C8227 C8246 1.723 . S
C8228 C8225 1.396 . S
C8228 C8227 1.394 . S
C8228 C8258 1.723 . S
H8229 C8252 0.947 . S
H8230 C8253 0.948 . S
H8231 C8259 0.982 . S
H8232 C8260 0.979 . S
H8233 C8260 0.980 . S
H8234 C8260 0.983 . S
H8235 C8259 0.979 . S
H8236 C8259 0.977 . S
C8237 C8225 1.453 . S
C8237 H8266 0.982 . S
C8237 H8267 0.979 . S
C8237 H8268 0.977 . S
C8238 C8225 1.684 . S
C8238 H8263 0.979 . S
C8238 H8264 0.980 . S
C8238 H8265 0.983 . S
C8239 C8240 1.391 . S
C8239 C8244 1.391 . S
C8239 H8269 0.948 . S
C8240 C8239 1.391 . S
C8240 C8241 1.391 . S
C8241 C8240 1.391 . S
C8241 C8242 1.392 . S
C8241 H8270 0.947 . S
C8242 C8241 1.392 . S
C8242 C8243 1.419 . S
C8242 H8271 0.948 . S
C8243 C8242 1.419 . S
C8243 C8244 1.391 . S
C8243 C8247 1.397 . S
C8244 C8239 1.391 . S
C8244 C8243 1.391 . S
C8244 C8245 1.399 . S
C8245 C8244 1.399 . S
C8245 C8246 1.396 . S
C8245 C8248 1.453 . S
C8245 C8249 1.684 . S
C8246 C8227 1.723 . S
C8246 C8245 1.396 . S
C8246 C8247 1.394 . S
C8247 C8243 1.397 . S
C8247 C8246 1.394 . S
C8247 C8257 1.723 . S
C8248 C8245 1.453 . S
C8248 H8272 0.982 . S
C8248 H8273 0.979 . S
C8248 H8274 0.977 . S
C8249 C8245 1.684 . S
C8249 H8275 0.979 . S
C8249 H8276 0.980 . S
C8249 H8277 0.983 . S
C8250 H8226 0.948 . S
C8250 C8251 1.391 . S
C8250 C8255 1.391 . S
C8251 C8250 1.391 . S
C8251 C8252 1.391 . S
C8252 H8229 0.947 . S
C8252 C8251 1.391 . S
C8252 C8253 1.392 . S
C8253 H8230 0.948 . S
C8253 C8252 1.392 . S
C8253 C8254 1.419 . S
C8254 C8253 1.419 . S
C8254 C8255 1.391 . S
C8254 C8258 1.397 . S
C8255 C8250 1.391 . S
C8255 C8254 1.391 . S
C8255 C8256 1.399 . S
C8256 C8255 1.399 . S
C8256 C8257 1.396 . S
C8256 C8259 1.453 . S
C8256 C8260 1.684 . S
C8257 C8247 1.723 . S
C8257 C8256 1.396 . S
C8257 C8258 1.394 . S
C8258 C8228 1.723 . S
C8258 C8254 1.397 . S
C8258 C8257 1.394 . S
C8259 H8231 0.982 . S
C8259 H8235 0.979 . S
C8259 H8236 0.977 . S
C8259 C8256 1.453 . S
C8260 H8232 0.979 . S
C8260 H8233 0.980 . S
C8260 H8234 0.983 . S
C8260 C8256 1.684 . S
H8261 C8279 0.948 . S
H8262 C8220 0.948 . S
H8263 C8238 0.979 . S
H8264 C8238 0.980 . S
H8265 C8238 0.983 . S
H8266 C8237 0.982 . S
H8267 C8237 0.979 . S
H8268 C8237 0.977 . S
H8269 C8239 0.948 . S
H8270 C8241 0.947 . S
H8271 C8242 0.948 . S
H8272 C8248 0.982 . S
H8273 C8248 0.979 . S
H8274 C8248 0.977 . S
H8275 C8249 0.979 . S
H8276 C8249 0.980 . S
H8277 C8249 0.983 . S
H8278 C8222 0.947 . S
C8279 C8222 1.392 . S
C8279 C8223 1.419 . S
C8279 H8261 0.948 . S
C8280 C8281 1.391 . S
C8280 C8284 1.391 . S
C8280 H8322 0.948 . S
C8281 C8280 1.391 . S
C8281 C8282 1.391 . S
C8282 C8281 1.391 . S
C8282 H8338 0.947 . S
C8282 C8339 1.392 . S
C8283 C8284 1.391 . S
C8283 C8287 1.397 . S
C8283 C8339 1.419 . S
C8284 C8280 1.391 . S
C8284 C8283 1.391 . S
C8284 C8285 1.399 . S
C8285 C8284 1.399 . S
C8285 C8288 1.396 . S
C8285 C8297 1.453 . S
C8285 C8298 1.684 . S
H8286 C8310 0.948 . S
C8287 C8283 1.397 . S
C8287 C8288 1.394 . S
C8287 C8306 1.723 . S
C8288 C8285 1.396 . S
C8288 C8287 1.394 . S
C8288 C8318 1.723 . S
H8289 C8312 0.947 . S
H8290 C8313 0.948 . S
H8291 C8319 0.982 . S
H8292 C8320 0.979 . S
H8293 C8320 0.980 . S
H8294 C8320 0.983 . S
H8295 C8319 0.979 . S
H8296 C8319 0.977 . S
C8297 C8285 1.453 . S
C8297 H8326 0.982 . S
C8297 H8327 0.979 . S
C8297 H8328 0.977 . S
C8298 C8285 1.684 . S
C8298 H8323 0.979 . S
C8298 H8324 0.980 . S
C8298 H8325 0.983 . S
C8299 C8300 1.391 . S
C8299 C8304 1.391 . S
C8299 H8329 0.948 . S
C8300 C8299 1.391 . S
C8300 C8301 1.391 . S
C8301 C8300 1.391 . S
C8301 C8302 1.392 . S
C8301 H8330 0.947 . S
C8302 C8301 1.392 . S
C8302 C8303 1.419 . S
C8302 H8331 0.948 . S
C8303 C8302 1.419 . S
C8303 C8304 1.391 . S
C8303 C8307 1.397 . S
C8304 C8299 1.391 . S
C8304 C8303 1.391 . S
C8304 C8305 1.399 . S
C8305 C8304 1.399 . S
C8305 C8306 1.396 . S
C8305 C8308 1.453 . S
C8305 C8309 1.684 . S
C8306 C8287 1.723 . S
C8306 C8305 1.396 . S
C8306 C8307 1.394 . S
C8307 C8303 1.397 . S
C8307 C8306 1.394 . S
C8307 C8317 1.723 . S
C8308 C8305 1.453 . S
C8308 H8332 0.982 . S
C8308 H8333 0.979 . S
C8308 H8334 0.977 . S
C8309 C8305 1.684 . S
C8309 H8335 0.979 . S
C8309 H8336 0.980 . S
C8309 H8337 0.983 . S
C8310 H8286 0.948 . S
C8310 C8311 1.391 . S
C8310 C8315 1.391 . S
C8311 C8310 1.391 . S
C8311 C8312 1.391 . S
C8312 H8289 0.947 . S
C8312 C8311 1.391 . S
C8312 C8313 1.392 . S
C8313 H8290 0.948 . S
C8313 C8312 1.392 . S
C8313 C8314 1.419 . S
C8314 C8313 1.419 . S
C8314 C8315 1.391 . S
C8314 C8318 1.397 . S
C8315 C8310 1.391 . S
C8315 C8314 1.391 . S
C8315 C8316 1.399 . S
C8316 C8315 1.399 . S
C8316 C8317 1.396 . S
C8316 C8319 1.453 . S
C8316 C8320 1.684 . S
C8317 C8307 1.723 . S
C8317 C8316 1.396 . S
C8317 C8318 1.394 . S
C8318 C8288 1.723 . S
C8318 C8314 1.397 . S
C8318 C8317 1.394 . S
C8319 H8291 0.982 . S
C8319 H8295 0.979 . S
C8319 H8296 0.977 . S
C8319 C8316 1.453 . S
C8320 H8292 0.979 . S
C8320 H8293 0.980 . S
C8320 H8294 0.983 . S
C8320 C8316 1.684 . S
H8321 C8339 0.948 . S
H8322 C8280 0.948 . S
H8323 C8298 0.979 . S
H8324 C8298 0.980 . S
H8325 C8298 0.983 . S
H8326 C8297 0.982 . S
H8327 C8297 0.979 . S
H8328 C8297 0.977 . S
H8329 C8299 0.948 . S
H8330 C8301 0.947 . S
H8331 C8302 0.948 . S
H8332 C8308 0.982 . S
H8333 C8308 0.979 . S
H8334 C8308 0.977 . S
H8335 C8309 0.979 . S
H8336 C8309 0.980 . S
H8337 C8309 0.983 . S
H8338 C8282 0.947 . S
C8339 C8282 1.392 . S
C8339 C8283 1.419 . S
C8339 H8321 0.948 . S
C8340 C8341 1.391 . S
C8340 C8344 1.391 . S
C8340 H8382 0.948 . S
C8341 C8340 1.391 . S
C8341 C8342 1.391 . S
C8342 C8341 1.391 . S
C8342 H8398 0.947 . S
C8342 C8399 1.392 . S
C8343 C8344 1.391 . S
C8343 C8347 1.397 . S
C8343 C8399 1.419 . S
C8344 C8340 1.391 . S
C8344 C8343 1.391 . S
C8344 C8345 1.399 . S
C8345 C8344 1.399 . S
C8345 C8348 1.396 . S
C8345 C8357 1.453 . S
C8345 C8358 1.684 . S
H8346 C8370 0.948 . S
C8347 C8343 1.397 . S
C8347 C8348 1.394 . S
C8347 C8366 1.723 . S
C8348 C8345 1.396 . S
C8348 C8347 1.394 . S
C8348 C8378 1.723 . S
H8349 C8372 0.926 1_655 S
H8350 C8373 0.948 . S
H8351 C8379 0.982 . S
H8352 C8380 0.979 . S
H8353 C8380 0.980 . S
H8354 C8380 0.983 . S
H8355 C8379 0.979 . S
H8356 C8379 0.977 . S
C8357 C8345 1.453 . S
C8357 H8386 0.982 . S
C8357 H8387 0.979 . S
C8357 H8388 0.977 . S
C8358 C8345 1.684 . S
C8358 H8383 0.979 . S
C8358 H8384 0.980 . S
C8358 H8385 0.983 . S
C8359 C8360 1.391 . S
C8359 C8364 1.391 . S
C8359 H8389 0.948 . S
C8360 C8359 1.391 . S
C8360 C8361 1.391 . S
C8361 C8360 1.391 . S
C8361 C8362 1.392 . S
C8361 H8390 0.947 . S
C8362 C8361 1.392 . S
C8362 C8363 1.419 . S
C8362 H8391 0.948 . S
C8363 C8362 1.419 . S
C8363 C8364 1.391 . S
C8363 C8367 1.397 . S
C8364 C8359 1.391 . S
C8364 C8363 1.391 . S
C8364 C8365 1.399 . S
C8365 C8364 1.399 . S
C8365 C8366 1.396 . S
C8365 C8368 1.453 . S
C8365 C8369 1.684 . S
C8366 C8347 1.723 . S
C8366 C8365 1.396 . S
C8366 C8367 1.394 . S
C8367 C8363 1.397 . S
C8367 C8366 1.394 . S
C8367 C8377 1.723 . S
C8368 C8365 1.453 . S
C8368 H8392 0.982 . S
C8368 H8393 0.979 . S
C8368 H8394 0.977 . S
C8369 C8365 1.684 . S
C8369 H8395 0.979 . S
C8369 H8396 0.980 . S
C8369 H8397 0.983 . S
C8370 H8346 0.948 . S
C8370 C8371 1.391 . S
C8370 C8375 1.391 . S
C8371 C8370 1.391 . S
C8371 C8372 1.391 . S
C8372 H8349 0.926 1_455 S
C8372 C8371 1.391 . S
C8372 C8373 1.392 . S
C8373 H8350 0.948 . S
C8373 C8372 1.392 . S
C8373 C8374 1.419 . S
C8374 C8373 1.419 . S
C8374 C8375 1.391 . S
C8374 C8378 1.397 . S
C8375 C8370 1.391 . S
C8375 C8374 1.391 . S
C8375 C8376 1.399 . S
C8376 C8375 1.399 . S
C8376 C8377 1.396 . S
C8376 C8379 1.453 . S
C8376 C8380 1.684 . S
C8377 C8367 1.723 . S
C8377 C8376 1.396 . S
C8377 C8378 1.394 . S
C8378 C8348 1.723 . S
C8378 C8374 1.397 . S
C8378 C8377 1.394 . S
C8379 H8351 0.982 . S
C8379 H8355 0.979 . S
C8379 H8356 0.977 . S
C8379 C8376 1.453 . S
C8380 H8352 0.979 . S
C8380 H8353 0.980 . S
C8380 H8354 0.983 . S
C8380 C8376 1.684 . S
H8381 C8399 0.948 . S
H8382 C8340 0.948 . S
H8383 C8358 0.979 . S
H8384 C8358 0.980 . S
H8385 C8358 0.983 . S
H8386 C8357 0.982 . S
H8387 C8357 0.979 . S
H8388 C8357 0.977 . S
H8389 C8359 0.948 . S
H8390 C8361 0.947 . S
H8391 C8362 0.948 . S
H8392 C8368 0.982 . S
H8393 C8368 0.979 . S
H8394 C8368 0.977 . S
H8395 C8369 0.979 . S
H8396 C8369 0.980 . S
H8397 C8369 0.983 . S
H8398 C8342 0.947 . S
C8399 C8342 1.392 . S
C8399 C8343 1.419 . S
C8399 H8381 0.948 . S
C8400 C8401 1.391 . S
C8400 C8404 1.391 . S
C8400 H8442 0.948 . S
C8401 C8400 1.391 . S
C8401 C8402 1.391 . S
C8402 C8401 1.391 . S
C8402 H8458 0.947 . S
C8402 C8459 1.392 . S
C8403 C8404 1.391 . S
C8403 C8407 1.397 . S
C8403 C8459 1.419 . S
C8404 C8400 1.391 . S
C8404 C8403 1.391 . S
C8404 C8405 1.399 . S
C8405 C8404 1.399 . S
C8405 C8408 1.396 . S
C8405 C8417 1.453 . S
C8405 C8418 1.684 . S
H8406 C8430 0.948 . S
C8407 C8403 1.397 . S
C8407 C8408 1.394 . S
C8407 C8426 1.723 . S
C8408 C8405 1.396 . S
C8408 C8407 1.394 . S
C8408 C8438 1.723 . S
H8409 C8432 0.947 . S
H8410 C8433 0.948 . S
H8411 C8439 0.982 . S
H8412 C8440 0.979 . S
H8413 C8440 0.980 . S
H8414 C8440 0.983 . S
H8415 C8439 0.979 . S
H8416 C8439 0.977 . S
C8417 C8405 1.453 . S
C8417 H8446 0.982 . S
C8417 H8447 0.979 . S
C8417 H8448 0.977 . S
C8418 C8405 1.684 . S
C8418 H8443 0.979 . S
C8418 H8444 0.980 . S
C8418 H8445 0.983 . S
C8419 C8420 1.391 . S
C8419 C8424 1.391 . S
C8419 H8449 0.948 . S
C8420 C8419 1.391 . S
C8420 C8421 1.391 . S
C8421 C8420 1.391 . S
C8421 C8422 1.392 . S
C8421 H8450 0.947 . S
C8422 C8421 1.392 . S
C8422 C8423 1.419 . S
C8422 H8451 0.948 . S
C8423 C8422 1.419 . S
C8423 C8424 1.391 . S
C8423 C8427 1.397 . S
C8424 C8419 1.391 . S
C8424 C8423 1.391 . S
C8424 C8425 1.399 . S
C8425 C8424 1.399 . S
C8425 C8426 1.396 . S
C8425 C8428 1.453 . S
C8425 C8429 1.684 . S
C8426 C8407 1.723 . S
C8426 C8425 1.396 . S
C8426 C8427 1.394 . S
C8427 C8423 1.397 . S
C8427 C8426 1.394 . S
C8427 C8437 1.723 . S
C8428 C8425 1.453 . S
C8428 H8452 0.982 . S
C8428 H8453 0.979 . S
C8428 H8454 0.977 . S
C8429 C8425 1.684 . S
C8429 H8455 0.979 . S
C8429 H8456 0.980 . S
C8429 H8457 0.983 . S
C8430 H8406 0.948 . S
C8430 C8431 1.391 . S
C8430 C8435 1.391 . S
C8431 C8430 1.391 . S
C8431 C8432 1.391 . S
C8432 H8409 0.947 . S
C8432 C8431 1.391 . S
C8432 C8433 1.392 . S
C8433 H8410 0.948 . S
C8433 C8432 1.392 . S
C8433 C8434 1.419 . S
C8434 C8433 1.419 . S
C8434 C8435 1.391 . S
C8434 C8438 1.397 . S
C8435 C8430 1.391 . S
C8435 C8434 1.391 . S
C8435 C8436 1.399 . S
C8436 C8435 1.399 . S
C8436 C8437 1.396 . S
C8436 C8439 1.453 . S
C8436 C8440 1.684 . S
C8437 C8427 1.723 . S
C8437 C8436 1.396 . S
C8437 C8438 1.394 . S
C8438 C8408 1.723 . S
C8438 C8434 1.397 . S
C8438 C8437 1.394 . S
C8439 H8411 0.982 . S
C8439 H8415 0.979 . S
C8439 H8416 0.977 . S
C8439 C8436 1.453 . S
C8440 H8412 0.979 . S
C8440 H8413 0.980 . S
C8440 H8414 0.983 . S
C8440 C8436 1.684 . S
H8441 C8459 0.948 . S
H8442 C8400 0.948 . S
H8443 C8418 0.979 . S
H8444 C8418 0.980 . S
H8445 C8418 0.983 . S
H8446 C8417 0.982 . S
H8447 C8417 0.979 . S
H8448 C8417 0.977 . S
H8449 C8419 0.948 . S
H8450 C8421 0.947 . S
H8451 C8422 0.948 . S
H8452 C8428 0.982 . S
H8453 C8428 0.979 . S
H8454 C8428 0.977 . S
H8455 C8429 0.979 . S
H8456 C8429 0.980 . S
H8457 C8429 0.983 . S
H8458 C8402 0.947 . S
C8459 C8402 1.392 . S
C8459 C8403 1.419 . S
C8459 H8441 0.948 . S
C8460 C8461 1.391 . S
C8460 C8464 1.391 . S
C8460 H8502 0.948 . S
C8461 C8460 1.391 . S
C8461 C8462 1.391 . S
C8462 C8461 1.391 . S
C8462 H8518 0.947 . S
C8462 C8519 1.392 . S
C8463 C8464 1.391 . S
C8463 C8467 1.397 . S
C8463 C8519 1.419 . S
C8464 C8460 1.391 . S
C8464 C8463 1.391 . S
C8464 C8465 1.399 . S
C8465 C8464 1.399 . S
C8465 C8468 1.396 . S
C8465 C8477 1.453 . S
C8465 C8478 1.684 . S
H8466 C8490 0.948 . S
C8467 C8463 1.397 . S
C8467 C8468 1.394 . S
C8467 C8486 1.723 . S
C8468 C8465 1.396 . S
C8468 C8467 1.394 . S
C8468 C8498 1.723 . S
H8469 C8492 0.930 1_655 S
H8470 C8493 0.948 . S
H8471 C8499 0.982 . S
H8472 C8500 0.979 . S
H8473 C8500 0.980 . S
H8474 C8500 0.983 . S
H8475 C8499 0.979 . S
H8476 C8499 0.977 . S
C8477 C8465 1.453 . S
C8477 H8506 0.982 . S
C8477 H8507 0.979 . S
C8477 H8508 0.977 . S
C8478 C8465 1.684 . S
C8478 H8503 0.979 . S
C8478 H8504 0.980 . S
C8478 H8505 0.983 . S
C8479 C8480 1.391 . S
C8479 C8484 1.391 . S
C8479 H8509 0.948 . S
C8480 C8479 1.391 . S
C8480 C8481 1.391 . S
C8481 C8480 1.391 . S
C8481 C8482 1.392 . S
C8481 H8510 0.947 . S
C8482 C8481 1.392 . S
C8482 C8483 1.419 . S
C8482 H8511 0.948 . S
C8483 C8482 1.419 . S
C8483 C8484 1.391 . S
C8483 C8487 1.397 . S
C8484 C8479 1.391 . S
C8484 C8483 1.391 . S
C8484 C8485 1.399 . S
C8485 C8484 1.399 . S
C8485 C8486 1.396 . S
C8485 C8488 1.453 . S
C8485 C8489 1.684 . S
C8486 C8467 1.723 . S
C8486 C8485 1.396 . S
C8486 C8487 1.394 . S
C8487 C8483 1.397 . S
C8487 C8486 1.394 . S
C8487 C8497 1.723 . S
C8488 C8485 1.453 . S
C8488 H8512 0.982 . S
C8488 H8513 0.979 . S
C8488 H8514 0.977 . S
C8489 C8485 1.684 . S
C8489 H8515 0.979 . S
C8489 H8516 0.980 . S
C8489 H8517 0.983 . S
C8490 H8466 0.948 . S
C8490 C8491 1.391 . S
C8490 C8495 1.391 . S
C8491 C8490 1.391 . S
C8491 C8492 1.391 . S
C8492 H8469 0.930 1_455 S
C8492 C8491 1.391 . S
C8492 C8493 1.392 . S
C8493 H8470 0.948 . S
C8493 C8492 1.392 . S
C8493 C8494 1.419 . S
C8494 C8493 1.419 . S
C8494 C8495 1.391 . S
C8494 C8498 1.397 . S
C8495 C8490 1.391 . S
C8495 C8494 1.391 . S
C8495 C8496 1.399 . S
C8496 C8495 1.399 . S
C8496 C8497 1.396 . S
C8496 C8499 1.453 . S
C8496 C8500 1.684 . S
C8497 C8487 1.723 . S
C8497 C8496 1.396 . S
C8497 C8498 1.394 . S
C8498 C8468 1.723 . S
C8498 C8494 1.397 . S
C8498 C8497 1.394 . S
C8499 H8471 0.982 . S
C8499 H8475 0.979 . S
C8499 H8476 0.977 . S
C8499 C8496 1.453 . S
C8500 H8472 0.979 . S
C8500 H8473 0.980 . S
C8500 H8474 0.983 . S
C8500 C8496 1.684 . S
H8501 C8519 0.948 . S
H8502 C8460 0.948 . S
H8503 C8478 0.979 . S
H8504 C8478 0.980 . S
H8505 C8478 0.983 . S
H8506 C8477 0.982 . S
H8507 C8477 0.979 . S
H8508 C8477 0.977 . S
H8509 C8479 0.948 . S
H8510 C8481 0.947 . S
H8511 C8482 0.948 . S
H8512 C8488 0.982 . S
H8513 C8488 0.979 . S
H8514 C8488 0.977 . S
H8515 C8489 0.979 . S
H8516 C8489 0.980 . S
H8517 C8489 0.983 . S
H8518 C8462 0.947 . S
C8519 C8462 1.392 . S
C8519 C8463 1.419 . S
C8519 H8501 0.948 . S
C8520 C8521 1.391 . S
C8520 C8524 1.391 . S
C8520 H8562 0.948 . S
C8521 C8520 1.391 . S
C8521 C8522 1.391 . S
C8522 C8521 1.391 . S
C8522 H8578 0.947 . S
C8522 C8579 1.392 . S
C8523 C8524 1.391 . S
C8523 C8527 1.397 . S
C8523 C8579 1.419 . S
C8524 C8520 1.391 . S
C8524 C8523 1.391 . S
C8524 C8525 1.399 . S
C8525 C8524 1.399 . S
C8525 C8528 1.396 . S
C8525 C8537 1.453 . S
C8525 C8538 1.684 . S
H8526 C8550 0.948 . S
C8527 C8523 1.397 . S
C8527 C8528 1.394 . S
C8527 C8546 1.723 . S
C8528 C8525 1.396 . S
C8528 C8527 1.394 . S
C8528 C8558 1.723 . S
H8529 C8552 0.947 . S
H8530 C8553 0.948 . S
H8531 C8559 0.982 . S
H8532 C8560 0.979 . S
H8533 C8560 0.980 . S
H8534 C8560 0.983 . S
H8535 C8559 0.979 . S
H8536 C8559 0.977 . S
C8537 C8525 1.453 . S
C8537 H8566 0.982 . S
C8537 H8567 0.979 . S
C8537 H8568 0.977 . S
C8538 C8525 1.684 . S
C8538 H8563 0.979 . S
C8538 H8564 0.980 . S
C8538 H8565 0.983 . S
C8539 C8540 1.391 . S
C8539 C8544 1.391 . S
C8539 H8569 0.948 . S
C8540 C8539 1.391 . S
C8540 C8541 1.391 . S
C8541 C8540 1.391 . S
C8541 C8542 1.392 . S
C8541 H8570 0.947 . S
C8542 C8541 1.392 . S
C8542 C8543 1.419 . S
C8542 H8571 0.948 . S
C8543 C8542 1.419 . S
C8543 C8544 1.391 . S
C8543 C8547 1.397 . S
C8544 C8539 1.391 . S
C8544 C8543 1.391 . S
C8544 C8545 1.399 . S
C8545 C8544 1.399 . S
C8545 C8546 1.396 . S
C8545 C8548 1.453 . S
C8545 C8549 1.684 . S
C8546 C8527 1.723 . S
C8546 C8545 1.396 . S
C8546 C8547 1.394 . S
C8547 C8543 1.397 . S
C8547 C8546 1.394 . S
C8547 C8557 1.723 . S
C8548 C8545 1.453 . S
C8548 H8572 0.982 . S
C8548 H8573 0.979 . S
C8548 H8574 0.977 . S
C8549 C8545 1.684 . S
C8549 H8575 0.979 . S
C8549 H8576 0.980 . S
C8549 H8577 0.983 . S
C8550 H8526 0.948 . S
C8550 C8551 1.391 . S
C8550 C8555 1.391 . S
C8551 C8550 1.391 . S
C8551 C8552 1.391 . S
C8552 H8529 0.947 . S
C8552 C8551 1.391 . S
C8552 C8553 1.392 . S
C8553 H8530 0.948 . S
C8553 C8552 1.392 . S
C8553 C8554 1.419 . S
C8554 C8553 1.419 . S
C8554 C8555 1.391 . S
C8554 C8558 1.397 . S
C8555 C8550 1.391 . S
C8555 C8554 1.391 . S
C8555 C8556 1.399 . S
C8556 C8555 1.399 . S
C8556 C8557 1.396 . S
C8556 C8559 1.453 . S
C8556 C8560 1.684 . S
C8557 C8547 1.723 . S
C8557 C8556 1.396 . S
C8557 C8558 1.394 . S
C8558 C8528 1.723 . S
C8558 C8554 1.397 . S
C8558 C8557 1.394 . S
C8559 H8531 0.982 . S
C8559 H8535 0.979 . S
C8559 H8536 0.977 . S
C8559 C8556 1.453 . S
C8560 H8532 0.979 . S
C8560 H8533 0.980 . S
C8560 H8534 0.983 . S
C8560 C8556 1.684 . S
H8561 C8579 0.948 . S
H8562 C8520 0.948 . S
H8563 C8538 0.979 . S
H8564 C8538 0.980 . S
H8565 C8538 0.983 . S
H8566 C8537 0.982 . S
H8567 C8537 0.979 . S
H8568 C8537 0.977 . S
H8569 C8539 0.948 . S
H8570 C8541 0.947 . S
H8571 C8542 0.948 . S
H8572 C8548 0.982 . S
H8573 C8548 0.979 . S
H8574 C8548 0.977 . S
H8575 C8549 0.979 . S
H8576 C8549 0.980 . S
H8577 C8549 0.983 . S
H8578 C8522 0.947 . S
C8579 C8522 1.392 . S
C8579 C8523 1.419 . S
C8579 H8561 0.948 . S
C8580 C8581 1.391 . S
C8580 C8584 1.391 . S
C8580 H8622 0.948 . S
C8581 C8580 1.391 . S
C8581 C8582 1.391 . S
C8582 C8581 1.391 . S
C8582 H8638 0.947 . S
C8582 C8639 1.392 . S
C8583 C8584 1.391 . S
C8583 C8587 1.397 . S
C8583 C8639 1.419 . S
C8584 C8580 1.391 . S
C8584 C8583 1.391 . S
C8584 C8585 1.399 . S
C8585 C8584 1.399 . S
C8585 C8588 1.396 . S
C8585 C8597 1.453 . S
C8585 C8598 1.684 . S
H8586 C8610 0.948 . S
C8587 C8583 1.397 . S
C8587 C8588 1.394 . S
C8587 C8606 1.723 . S
C8588 C8585 1.396 . S
C8588 C8587 1.394 . S
C8588 C8618 1.723 . S
H8589 C8612 0.947 . S
H8590 C8613 0.948 . S
H8591 C8619 0.982 . S
H8592 C8620 0.979 . S
H8593 C8620 0.980 . S
H8594 C8620 0.983 . S
H8595 C8619 0.979 . S
H8596 C8619 0.977 . S
C8597 C8585 1.453 . S
C8597 H8626 0.982 . S
C8597 H8627 0.979 . S
C8597 H8628 0.977 . S
C8598 C8585 1.684 . S
C8598 H8623 0.979 . S
C8598 H8624 0.980 . S
C8598 H8625 0.983 . S
C8599 C8600 1.391 . S
C8599 C8604 1.391 . S
C8599 H8629 0.948 . S
C8600 C8599 1.391 . S
C8600 C8601 1.391 . S
C8601 C8600 1.391 . S
C8601 C8602 1.392 . S
C8601 H8630 0.947 . S
C8602 C8601 1.392 . S
C8602 C8603 1.419 . S
C8602 H8631 0.948 . S
C8603 C8602 1.419 . S
C8603 C8604 1.391 . S
C8603 C8607 1.397 . S
C8604 C8599 1.391 . S
C8604 C8603 1.391 . S
C8604 C8605 1.399 . S
C8605 C8604 1.399 . S
C8605 C8606 1.396 . S
C8605 C8608 1.453 . S
C8605 C8609 1.684 . S
C8606 C8587 1.723 . S
C8606 C8605 1.396 . S
C8606 C8607 1.394 . S
C8607 C8603 1.397 . S
C8607 C8606 1.394 . S
C8607 C8617 1.723 . S
C8608 C8605 1.453 . S
C8608 H8632 0.982 . S
C8608 H8633 0.979 . S
C8608 H8634 0.977 . S
C8609 C8605 1.684 . S
C8609 H8635 0.979 . S
C8609 H8636 0.980 . S
C8609 H8637 0.983 . S
C8610 H8586 0.948 . S
C8610 C8611 1.391 . S
C8610 C8615 1.391 . S
C8611 C8610 1.391 . S
C8611 C8612 1.391 . S
C8612 H8589 0.947 . S
C8612 C8611 1.391 . S
C8612 C8613 1.392 . S
C8613 H8590 0.948 . S
C8613 C8612 1.392 . S
C8613 C8614 1.419 . S
C8614 C8613 1.419 . S
C8614 C8615 1.391 . S
C8614 C8618 1.397 . S
C8615 C8610 1.391 . S
C8615 C8614 1.391 . S
C8615 C8616 1.399 . S
C8616 C8615 1.399 . S
C8616 C8617 1.396 . S
C8616 C8619 1.453 . S
C8616 C8620 1.684 . S
C8617 C8607 1.723 . S
C8617 C8616 1.396 . S
C8617 C8618 1.394 . S
C8618 C8588 1.723 . S
C8618 C8614 1.397 . S
C8618 C8617 1.394 . S
C8619 H8591 0.982 . S
C8619 H8595 0.979 . S
C8619 H8596 0.977 . S
C8619 C8616 1.453 . S
C8620 H8592 0.979 . S
C8620 H8593 0.980 . S
C8620 H8594 0.983 . S
C8620 C8616 1.684 . S
H8621 C8639 0.948 . S
H8622 C8580 0.948 . S
H8623 C8598 0.979 . S
H8624 C8598 0.980 . S
H8625 C8598 0.983 . S
H8626 C8597 0.982 . S
H8627 C8597 0.979 . S
H8628 C8597 0.977 . S
H8629 C8599 0.948 . S
H8630 C8601 0.947 . S
H8631 C8602 0.948 . S
H8632 C8608 0.982 . S
H8633 C8608 0.979 . S
H8634 C8608 0.977 . S
H8635 C8609 0.979 . S
H8636 C8609 0.980 . S
H8637 C8609 0.983 . S
H8638 C8582 0.947 . S
C8639 C8582 1.392 . S
C8639 C8583 1.419 . S
C8639 H8621 0.948 . S
C8640 C8641 1.391 . S
C8640 C8644 1.391 . S
C8640 H8682 0.948 . S
C8641 C8640 1.391 . S
C8641 C8642 1.391 . S
C8642 C8641 1.391 . S
C8642 H8698 0.947 . S
C8642 C8699 1.392 . S
C8643 C8644 1.391 . S
C8643 C8647 1.397 . S
C8643 C8699 1.419 . S
C8644 C8640 1.391 . S
C8644 C8643 1.391 . S
C8644 C8645 1.399 . S
C8645 C8644 1.399 . S
C8645 C8648 1.396 . S
C8645 C8657 1.453 . S
C8645 C8658 1.684 . S
H8646 C8670 0.948 . S
C8647 C8643 1.397 . S
C8647 C8648 1.394 . S
C8647 C8666 1.723 . S
C8648 C8645 1.396 . S
C8648 C8647 1.394 . S
C8648 C8678 1.723 . S
H8649 C8672 0.947 . S
H8650 C8673 0.948 . S
H8651 C8679 0.982 . S
H8652 C8680 0.979 . S
H8653 C8680 0.980 . S
H8654 C8680 0.983 . S
H8655 C8679 0.979 . S
H8656 C8679 0.977 . S
C8657 C8645 1.453 . S
C8657 H8686 0.982 . S
C8657 H8687 0.979 . S
C8657 H8688 0.977 . S
C8658 C8645 1.684 . S
C8658 H8683 0.979 . S
C8658 H8684 0.980 . S
C8658 H8685 0.983 . S
C8659 C8660 1.391 . S
C8659 C8664 1.391 . S
C8659 H8689 0.948 . S
C8660 C8659 1.391 . S
C8660 C8661 1.391 . S
C8661 C8660 1.391 . S
C8661 C8662 1.392 . S
C8661 H8690 0.947 . S
C8662 C8661 1.392 . S
C8662 C8663 1.419 . S
C8662 H8691 0.948 . S
C8663 C8662 1.419 . S
C8663 C8664 1.391 . S
C8663 C8667 1.397 . S
C8664 C8659 1.391 . S
C8664 C8663 1.391 . S
C8664 C8665 1.399 . S
C8665 C8664 1.399 . S
C8665 C8666 1.396 . S
C8665 C8668 1.453 . S
C8665 C8669 1.684 . S
C8666 C8647 1.723 . S
C8666 C8665 1.396 . S
C8666 C8667 1.394 . S
C8667 C8663 1.397 . S
C8667 C8666 1.394 . S
C8667 C8677 1.723 . S
C8668 C8665 1.453 . S
C8668 H8692 0.982 . S
C8668 H8693 0.979 . S
C8668 H8694 0.977 . S
C8669 C8665 1.684 . S
C8669 H8695 0.979 . S
C8669 H8696 0.980 . S
C8669 H8697 0.983 . S
C8670 H8646 0.948 . S
C8670 C8671 1.391 . S
C8670 C8675 1.391 . S
C8671 C8670 1.391 . S
C8671 C8672 1.391 . S
C8672 H8649 0.947 . S
C8672 C8671 1.391 . S
C8672 C8673 1.392 . S
C8673 H8650 0.948 . S
C8673 C8672 1.392 . S
C8673 C8674 1.419 . S
C8674 C8673 1.419 . S
C8674 C8675 1.391 . S
C8674 C8678 1.397 . S
C8675 C8670 1.391 . S
C8675 C8674 1.391 . S
C8675 C8676 1.399 . S
C8676 C8675 1.399 . S
C8676 C8677 1.396 . S
C8676 C8679 1.453 . S
C8676 C8680 1.684 . S
C8677 C8667 1.723 . S
C8677 C8676 1.396 . S
C8677 C8678 1.394 . S
C8678 C8648 1.723 . S
C8678 C8674 1.397 . S
C8678 C8677 1.394 . S
C8679 H8651 0.982 . S
C8679 H8655 0.979 . S
C8679 H8656 0.977 . S
C8679 C8676 1.453 . S
C8680 H8652 0.979 . S
C8680 H8653 0.980 . S
C8680 H8654 0.983 . S
C8680 C8676 1.684 . S
H8681 C8699 0.948 . S
H8682 C8640 0.948 . S
H8683 C8658 0.979 . S
H8684 C8658 0.980 . S
H8685 C8658 0.983 . S
H8686 C8657 0.982 . S
H8687 C8657 0.979 . S
H8688 C8657 0.977 . S
H8689 C8659 0.948 . S
H8690 C8661 0.947 . S
H8691 C8662 0.948 . S
H8692 C8668 0.982 . S
H8693 C8668 0.979 . S
H8694 C8668 0.977 . S
H8695 C8669 0.979 . S
H8696 C8669 0.980 . S
H8697 C8669 0.983 . S
H8698 C8642 0.947 . S
C8699 C8642 1.392 . S
C8699 C8643 1.419 . S
C8699 H8681 0.948 . S
C8700 C8701 1.391 . S
C8700 C8704 1.391 . S
C8700 H8742 0.948 . S
C8701 C8700 1.391 . S
C8701 C8702 1.391 . S
C8702 C8701 1.391 . S
C8702 H8758 0.947 . S
C8702 C8759 1.392 . S
C8703 C8704 1.397 . S
C8703 C8707 1.383 1_556 S
C8703 C8759 1.427 . S
C8704 C8700 1.391 . S
C8704 C8703 1.397 . S
C8704 C8705 1.399 1_556 S
C8705 C8704 1.399 1_554 S
C8705 C8708 1.396 . S
C8705 C8717 1.453 . S
C8705 C8718 1.684 . S
H8706 C8730 0.948 . S
C8707 C8703 1.383 1_554 S
C8707 C8708 1.394 . S
C8707 C8726 1.723 . S
C8708 C8705 1.396 . S
C8708 C8707 1.394 . S
C8708 C8738 1.723 . S
H8709 C8732 0.947 . S
H8710 C8733 0.948 . S
H8711 C8739 0.982 . S
H8712 C8740 0.979 . S
H8713 C8740 0.980 . S
H8714 C8740 0.983 . S
H8715 C8739 0.979 . S
H8716 C8739 0.977 . S
C8717 C8705 1.453 . S
C8717 H8746 0.994 . S
C8717 H8747 0.979 1_554 S
C8717 H8748 0.977 . S
C8718 C8705 1.684 . S
C8718 H8743 0.979 . S
C8718 H8744 0.980 . S
C8718 H8745 0.983 1_554 S
C8719 C8720 1.391 . S
C8719 C8724 1.391 . S
C8719 H8749 0.948 . S
C8720 C8719 1.391 . S
C8720 C8721 1.391 . S
C8721 C8720 1.391 . S
C8721 C8722 1.392 . S
C8721 H8750 0.947 . S
C8722 C8721 1.392 . S
C8722 C8723 1.419 . S
C8722 H8751 0.948 . S
C8723 C8722 1.419 . S
C8723 C8724 1.391 . S
C8723 C8727 1.397 . S
C8724 C8719 1.391 . S
C8724 C8723 1.391 . S
C8724 C8725 1.399 . S
C8725 C8724 1.399 . S
C8725 C8726 1.396 . S
C8725 C8728 1.453 . S
C8725 C8729 1.684 . S
C8726 C8707 1.723 . S
C8726 C8725 1.396 . S
C8726 C8727 1.394 . S
C8727 C8723 1.397 . S
C8727 C8726 1.394 . S
C8727 C8737 1.723 . S
C8728 C8725 1.453 . S
C8728 H8752 0.982 . S
C8728 H8753 0.979 . S
C8728 H8754 0.977 . S
C8729 C8725 1.684 . S
C8729 H8755 0.979 . S
C8729 H8756 0.980 . S
C8729 H8757 0.983 . S
C8730 H8706 0.948 . S
C8730 C8731 1.391 . S
C8730 C8735 1.391 . S
C8731 C8730 1.391 . S
C8731 C8732 1.391 . S
C8732 H8709 0.947 . S
C8732 C8731 1.391 . S
C8732 C8733 1.392 . S
C8733 H8710 0.948 . S
C8733 C8732 1.392 . S
C8733 C8734 1.419 . S
C8734 C8733 1.419 . S
C8734 C8735 1.391 . S
C8734 C8738 1.397 . S
C8735 C8730 1.391 . S
C8735 C8734 1.391 . S
C8735 C8736 1.399 . S
C8736 C8735 1.399 . S
C8736 C8737 1.396 . S
C8736 C8739 1.453 . S
C8736 C8740 1.684 . S
C8737 C8727 1.723 . S
C8737 C8736 1.396 . S
C8737 C8738 1.394 . S
C8738 C8708 1.723 . S
C8738 C8734 1.397 . S
C8738 C8737 1.394 . S
C8739 H8711 0.982 . S
C8739 H8715 0.979 . S
C8739 H8716 0.977 . S
C8739 C8736 1.453 . S
C8740 H8712 0.979 . S
C8740 H8713 0.980 . S
C8740 H8714 0.983 . S
C8740 C8736 1.684 . S
H8741 C8759 0.948 . S
H8742 C8700 0.948 . S
H8743 C8718 0.979 . S
H8744 C8718 0.980 . S
H8745 C8718 0.983 1_556 S
H8746 C8717 0.994 . S
H8747 C8717 0.979 1_556 S
H8748 C8717 0.977 . S
H8749 C8719 0.948 . S
H8750 C8721 0.947 . S
H8751 C8722 0.948 . S
H8752 C8728 0.982 . S
H8753 C8728 0.979 . S
H8754 C8728 0.977 . S
H8755 C8729 0.979 . S
H8756 C8729 0.980 . S
H8757 C8729 0.983 . S
H8758 C8702 0.947 . S
C8759 C8702 1.392 . S
C8759 C8703 1.427 . S
C8759 H8741 0.948 . S
C8760 C8761 1.391 . S
C8760 C8764 1.391 . S
C8760 H8802 0.948 . S
C8761 C8760 1.391 . S
C8761 C8762 1.391 . S
C8762 C8761 1.391 . S
C8762 H8818 0.947 . S
C8762 C8819 1.392 . S
C8763 C8764 1.391 . S
C8763 C8767 1.397 . S
C8763 C8819 1.419 . S
C8764 C8760 1.391 . S
C8764 C8763 1.391 . S
C8764 C8765 1.399 . S
C8765 C8764 1.399 . S
C8765 C8768 1.396 . S
C8765 C8777 1.453 . S
C8765 C8778 1.684 . S
H8766 C8790 0.948 . S
C8767 C8763 1.397 . S
C8767 C8768 1.394 . S
C8767 C8786 1.723 . S
C8768 C8765 1.396 . S
C8768 C8767 1.394 . S
C8768 C8798 1.723 . S
H8769 C8792 0.947 . S
H8770 C8793 0.948 . S
H8771 C8799 0.982 . S
H8772 C8800 0.979 . S
H8773 C8800 0.980 . S
H8774 C8800 0.983 . S
H8775 C8799 0.979 . S
H8776 C8799 0.977 . S
C8777 C8765 1.453 . S
C8777 H8806 0.982 . S
C8777 H8807 0.979 . S
C8777 H8808 0.977 . S
C8778 C8765 1.684 . S
C8778 H8803 0.979 . S
C8778 H8804 0.980 . S
C8778 H8805 0.983 . S
C8779 C8780 1.391 . S
C8779 C8784 1.391 . S
C8779 H8809 0.948 . S
C8780 C8779 1.391 . S
C8780 C8781 1.391 . S
C8781 C8780 1.391 . S
C8781 C8782 1.392 . S
C8781 H8810 0.947 . S
C8782 C8781 1.392 . S
C8782 C8783 1.419 . S
C8782 H8811 0.948 . S
C8783 C8782 1.419 . S
C8783 C8784 1.391 . S
C8783 C8787 1.397 . S
C8784 C8779 1.391 . S
C8784 C8783 1.391 . S
C8784 C8785 1.399 . S
C8785 C8784 1.399 . S
C8785 C8786 1.396 . S
C8785 C8788 1.453 . S
C8785 C8789 1.684 . S
C8786 C8767 1.723 . S
C8786 C8785 1.396 . S
C8786 C8787 1.394 . S
C8787 C8783 1.397 . S
C8787 C8786 1.394 . S
C8787 C8797 1.723 . S
C8788 C8785 1.453 . S
C8788 H8812 0.982 . S
C8788 H8813 0.979 . S
C8788 H8814 0.977 . S
C8789 C8785 1.684 . S
C8789 H8815 0.979 . S
C8789 H8816 0.980 . S
C8789 H8817 0.983 . S
C8790 H8766 0.948 . S
C8790 C8791 1.391 . S
C8790 C8795 1.391 . S
C8791 C8790 1.391 . S
C8791 C8792 1.391 . S
C8792 H8769 0.947 . S
C8792 C8791 1.391 . S
C8792 C8793 1.392 . S
C8793 H8770 0.948 . S
C8793 C8792 1.392 . S
C8793 C8794 1.419 . S
C8794 C8793 1.419 . S
C8794 C8795 1.391 . S
C8794 C8798 1.397 . S
C8795 C8790 1.391 . S
C8795 C8794 1.391 . S
C8795 C8796 1.399 . S
C8796 C8795 1.399 . S
C8796 C8797 1.396 . S
C8796 C8799 1.453 . S
C8796 C8800 1.684 . S
C8797 C8787 1.723 . S
C8797 C8796 1.396 . S
C8797 C8798 1.394 . S
C8798 C8768 1.723 . S
C8798 C8794 1.397 . S
C8798 C8797 1.394 . S
C8799 H8771 0.982 . S
C8799 H8775 0.979 . S
C8799 H8776 0.977 . S
C8799 C8796 1.453 . S
C8800 H8772 0.979 . S
C8800 H8773 0.980 . S
C8800 H8774 0.983 . S
C8800 C8796 1.684 . S
H8801 C8819 0.948 . S
H8802 C8760 0.948 . S
H8803 C8778 0.979 . S
H8804 C8778 0.980 . S
H8805 C8778 0.983 . S
H8806 C8777 0.982 . S
H8807 C8777 0.979 . S
H8808 C8777 0.977 . S
H8809 C8779 0.948 . S
H8810 C8781 0.947 . S
H8811 C8782 0.948 . S
H8812 C8788 0.982 . S
H8813 C8788 0.979 . S
H8814 C8788 0.977 . S
H8815 C8789 0.979 . S
H8816 C8789 0.980 . S
H8817 C8789 0.983 . S
H8818 C8762 0.947 . S
C8819 C8762 1.392 . S
C8819 C8763 1.419 . S
C8819 H8801 0.948 . S
C8820 C8821 1.391 . S
C8820 C8824 1.391 . S
C8820 H8862 0.948 . S
C8821 C8820 1.391 . S
C8821 C8822 1.391 . S
C8822 C8821 1.391 . S
C8822 H8878 0.947 . S
C8822 C8879 1.392 . S
C8823 C8824 1.391 . S
C8823 C8827 1.397 . S
C8823 C8879 1.419 . S
C8824 C8820 1.391 . S
C8824 C8823 1.391 . S
C8824 C8825 1.399 . S
C8825 C8824 1.399 . S
C8825 C8828 1.396 . S
C8825 C8837 1.453 . S
C8825 C8838 1.684 . S
H8826 C8850 0.948 . S
C8827 C8823 1.397 . S
C8827 C8828 1.394 . S
C8827 C8846 1.723 . S
C8828 C8825 1.396 . S
C8828 C8827 1.394 . S
C8828 C8858 1.723 . S
H8829 C8852 0.947 . S
H8830 C8853 0.948 . S
H8831 C8859 0.982 . S
H8832 C8860 0.979 . S
H8833 C8860 0.980 . S
H8834 C8860 0.983 . S
H8835 C8859 0.979 . S
H8836 C8859 0.977 . S
C8837 C8825 1.453 . S
C8837 H8866 0.982 . S
C8837 H8867 0.979 . S
C8837 H8868 0.977 . S
C8838 C8825 1.684 . S
C8838 H8863 0.979 . S
C8838 H8864 0.980 . S
C8838 H8865 0.983 . S
C8839 C8840 1.391 . S
C8839 C8844 1.391 . S
C8839 H8869 0.948 . S
C8840 C8839 1.391 . S
C8840 C8841 1.391 . S
C8841 C8840 1.391 . S
C8841 C8842 1.392 . S
C8841 H8870 0.947 . S
C8842 C8841 1.392 . S
C8842 C8843 1.419 . S
C8842 H8871 0.948 . S
C8843 C8842 1.419 . S
C8843 C8844 1.391 . S
C8843 C8847 1.397 . S
C8844 C8839 1.391 . S
C8844 C8843 1.391 . S
C8844 C8845 1.399 . S
C8845 C8844 1.399 . S
C8845 C8846 1.396 . S
C8845 C8848 1.453 . S
C8845 C8849 1.684 . S
C8846 C8827 1.723 . S
C8846 C8845 1.396 . S
C8846 C8847 1.394 . S
C8847 C8843 1.397 . S
C8847 C8846 1.394 . S
C8847 C8857 1.723 . S
C8848 C8845 1.453 . S
C8848 H8872 0.982 . S
C8848 H8873 0.979 . S
C8848 H8874 0.977 . S
C8849 C8845 1.684 . S
C8849 H8875 0.979 . S
C8849 H8876 0.980 . S
C8849 H8877 0.983 . S
C8850 H8826 0.948 . S
C8850 C8851 1.391 . S
C8850 C8855 1.391 . S
C8851 C8850 1.391 . S
C8851 C8852 1.391 . S
C8852 H8829 0.947 . S
C8852 C8851 1.391 . S
C8852 C8853 1.392 . S
C8853 H8830 0.948 . S
C8853 C8852 1.392 . S
C8853 C8854 1.419 . S
C8854 C8853 1.419 . S
C8854 C8855 1.391 . S
C8854 C8858 1.397 . S
C8855 C8850 1.391 . S
C8855 C8854 1.391 . S
C8855 C8856 1.399 . S
C8856 C8855 1.399 . S
C8856 C8857 1.396 . S
C8856 C8859 1.453 . S
C8856 C8860 1.684 . S
C8857 C8847 1.723 . S
C8857 C8856 1.396 . S
C8857 C8858 1.394 . S
C8858 C8828 1.723 . S
C8858 C8854 1.397 . S
C8858 C8857 1.394 . S
C8859 H8831 0.982 . S
C8859 H8835 0.979 . S
C8859 H8836 0.977 . S
C8859 C8856 1.453 . S
C8860 H8832 0.979 . S
C8860 H8833 0.980 . S
C8860 H8834 0.983 . S
C8860 C8856 1.684 . S
H8861 C8879 0.948 . S
H8862 C8820 0.948 . S
H8863 C8838 0.979 . S
H8864 C8838 0.980 . S
H8865 C8838 0.983 . S
H8866 C8837 0.982 . S
H8867 C8837 0.979 . S
H8868 C8837 0.977 . S
H8869 C8839 0.948 . S
H8870 C8841 0.947 . S
H8871 C8842 0.948 . S
H8872 C8848 0.982 . S
H8873 C8848 0.979 . S
H8874 C8848 0.977 . S
H8875 C8849 0.979 . S
H8876 C8849 0.980 . S
H8877 C8849 0.983 . S
H8878 C8822 0.947 . S
C8879 C8822 1.392 . S
C8879 C8823 1.419 . S
C8879 H8861 0.948 . S
C8880 C8881 1.391 . S
C8880 C8884 1.391 . S
C8880 H8922 0.948 . S
C8881 C8880 1.391 . S
C8881 C8882 1.391 . S
C8882 C8881 1.391 . S
C8882 H8938 0.947 . S
C8882 C8939 1.392 . S
C8883 C8884 1.391 . S
C8883 C8887 1.397 . S
C8883 C8939 1.419 . S
C8884 C8880 1.391 . S
C8884 C8883 1.391 . S
C8884 C8885 1.399 . S
C8885 C8884 1.399 . S
C8885 C8888 1.396 . S
C8885 C8897 1.453 . S
C8885 C8898 1.684 . S
H8886 C8910 0.948 . S
C8887 C8883 1.397 . S
C8887 C8888 1.394 . S
C8887 C8906 1.723 . S
C8888 C8885 1.396 . S
C8888 C8887 1.394 . S
C8888 C8918 1.723 . S
H8889 C8912 0.947 . S
H8890 C8913 0.948 . S
H8891 C8919 0.982 . S
H8892 C8920 0.979 . S
H8893 C8920 0.980 . S
H8894 C8920 0.983 . S
H8895 C8919 0.979 . S
H8896 C8919 0.977 . S
C8897 C8885 1.453 . S
C8897 H8926 0.982 . S
C8897 H8927 0.979 . S
C8897 H8928 0.977 . S
C8898 C8885 1.684 . S
C8898 H8923 0.979 . S
C8898 H8924 0.980 . S
C8898 H8925 0.983 . S
C8899 C8900 1.391 . S
C8899 C8904 1.391 . S
C8899 H8929 0.948 . S
C8900 C8899 1.391 . S
C8900 C8901 1.391 . S
C8901 C8900 1.391 . S
C8901 C8902 1.392 . S
C8901 H8930 0.947 . S
C8902 C8901 1.392 . S
C8902 C8903 1.419 . S
C8902 H8931 0.948 . S
C8903 C8902 1.419 . S
C8903 C8904 1.391 . S
C8903 C8907 1.397 . S
C8904 C8899 1.391 . S
C8904 C8903 1.391 . S
C8904 C8905 1.399 . S
C8905 C8904 1.399 . S
C8905 C8906 1.396 . S
C8905 C8908 1.453 . S
C8905 C8909 1.684 . S
C8906 C8887 1.723 . S
C8906 C8905 1.396 . S
C8906 C8907 1.394 . S
C8907 C8903 1.397 . S
C8907 C8906 1.394 . S
C8907 C8917 1.723 . S
C8908 C8905 1.453 . S
C8908 H8932 0.982 . S
C8908 H8933 0.979 . S
C8908 H8934 0.977 . S
C8909 C8905 1.684 . S
C8909 H8935 0.979 . S
C8909 H8936 0.980 . S
C8909 H8937 0.983 . S
C8910 H8886 0.948 . S
C8910 C8911 1.391 . S
C8910 C8915 1.391 . S
C8911 C8910 1.391 . S
C8911 C8912 1.391 . S
C8912 H8889 0.947 . S
C8912 C8911 1.391 . S
C8912 C8913 1.392 . S
C8913 H8890 0.948 . S
C8913 C8912 1.392 . S
C8913 C8914 1.419 . S
C8914 C8913 1.419 . S
C8914 C8915 1.391 . S
C8914 C8918 1.397 . S
C8915 C8910 1.391 . S
C8915 C8914 1.391 . S
C8915 C8916 1.399 . S
C8916 C8915 1.399 . S
C8916 C8917 1.396 . S
C8916 C8919 1.453 . S
C8916 C8920 1.684 . S
C8917 C8907 1.723 . S
C8917 C8916 1.396 . S
C8917 C8918 1.394 . S
C8918 C8888 1.723 . S
C8918 C8914 1.397 . S
C8918 C8917 1.394 . S
C8919 H8891 0.982 . S
C8919 H8895 0.979 . S
C8919 H8896 0.977 . S
C8919 C8916 1.453 . S
C8920 H8892 0.979 . S
C8920 H8893 0.980 . S
C8920 H8894 0.983 . S
C8920 C8916 1.684 . S
H8921 C8939 0.948 . S
H8922 C8880 0.948 . S
H8923 C8898 0.979 . S
H8924 C8898 0.980 . S
H8925 C8898 0.983 . S
H8926 C8897 0.982 . S
H8927 C8897 0.979 . S
H8928 C8897 0.977 . S
H8929 C8899 0.948 . S
H8930 C8901 0.947 . S
H8931 C8902 0.948 . S
H8932 C8908 0.982 . S
H8933 C8908 0.979 . S
H8934 C8908 0.977 . S
H8935 C8909 0.979 . S
H8936 C8909 0.980 . S
H8937 C8909 0.983 . S
H8938 C8882 0.947 . S
C8939 C8882 1.392 . S
C8939 C8883 1.419 . S
C8939 H8921 0.948 . S
C8940 C8941 1.391 . S
C8940 C8944 1.391 . S
C8940 H8982 0.948 . S
C8941 C8940 1.391 . S
C8941 C8942 1.391 . S
C8942 C8941 1.391 . S
C8942 H8998 0.947 . S
C8942 C8999 1.392 . S
C8943 C8944 1.391 . S
C8943 C8947 1.397 . S
C8943 C8999 1.419 . S
C8944 C8940 1.391 . S
C8944 C8943 1.391 . S
C8944 C8945 1.399 . S
C8945 C8944 1.399 . S
C8945 C8948 1.396 . S
C8945 C8957 1.453 . S
C8945 C8958 1.684 . S
H8946 C8970 0.948 . S
C8947 C8943 1.397 . S
C8947 C8948 1.394 . S
C8947 C8966 1.723 . S
C8948 C8945 1.396 . S
C8948 C8947 1.394 . S
C8948 C8978 1.723 . S
H8949 C8972 0.947 . S
H8950 C8973 0.948 . S
H8951 C8979 0.982 . S
H8952 C8980 0.979 . S
H8953 C8980 0.980 . S
H8954 C8980 0.983 . S
H8955 C8979 0.979 . S
H8956 C8979 0.977 . S
C8957 C8945 1.453 . S
C8957 H8986 0.982 . S
C8957 H8987 0.979 . S
C8957 H8988 0.977 . S
C8958 C8945 1.684 . S
C8958 H8983 0.979 . S
C8958 H8984 0.980 . S
C8958 H8985 0.983 . S
C8959 C8960 1.391 . S
C8959 C8964 1.391 . S
C8959 H8989 0.948 . S
C8960 C8959 1.391 . S
C8960 C8961 1.391 . S
C8961 C8960 1.391 . S
C8961 C8962 1.392 . S
C8961 H8990 0.947 . S
C8962 C8961 1.392 . S
C8962 C8963 1.419 . S
C8962 H8991 0.948 . S
C8963 C8962 1.419 . S
C8963 C8964 1.391 . S
C8963 C8967 1.397 . S
C8964 C8959 1.391 . S
C8964 C8963 1.391 . S
C8964 C8965 1.399 . S
C8965 C8964 1.399 . S
C8965 C8966 1.396 . S
C8965 C8968 1.453 . S
C8965 C8969 1.684 . S
C8966 C8947 1.723 . S
C8966 C8965 1.396 . S
C8966 C8967 1.394 . S
C8967 C8963 1.397 . S
C8967 C8966 1.394 . S
C8967 C8977 1.723 . S
C8968 C8965 1.453 . S
C8968 H8992 0.982 . S
C8968 H8993 0.979 . S
C8968 H8994 0.977 . S
C8969 C8965 1.684 . S
C8969 H8995 0.979 . S
C8969 H8996 0.980 . S
C8969 H8997 0.983 . S
C8970 H8946 0.948 . S
C8970 C8971 1.391 . S
C8970 C8975 1.391 . S
C8971 C8970 1.391 . S
C8971 C8972 1.391 . S
C8972 H8949 0.947 . S
C8972 C8971 1.391 . S
C8972 C8973 1.392 . S
C8973 H8950 0.948 . S
C8973 C8972 1.392 . S
C8973 C8974 1.419 . S
C8974 C8973 1.419 . S
C8974 C8975 1.391 . S
C8974 C8978 1.397 . S
C8975 C8970 1.391 . S
C8975 C8974 1.391 . S
C8975 C8976 1.399 . S
C8976 C8975 1.399 . S
C8976 C8977 1.396 . S
C8976 C8979 1.453 . S
C8976 C8980 1.684 . S
C8977 C8967 1.723 . S
C8977 C8976 1.396 . S
C8977 C8978 1.394 . S
C8978 C8948 1.723 . S
C8978 C8974 1.397 . S
C8978 C8977 1.394 . S
C8979 H8951 0.982 . S
C8979 H8955 0.979 . S
C8979 H8956 0.977 . S
C8979 C8976 1.453 . S
C8980 H8952 0.979 . S
C8980 H8953 0.980 . S
C8980 H8954 0.983 . S
C8980 C8976 1.684 . S
H8981 C8999 0.948 . S
H8982 C8940 0.948 . S
H8983 C8958 0.979 . S
H8984 C8958 0.980 . S
H8985 C8958 0.983 . S
H8986 C8957 0.982 . S
H8987 C8957 0.979 . S
H8988 C8957 0.977 . S
H8989 C8959 0.948 . S
H8990 C8961 0.947 . S
H8991 C8962 0.948 . S
H8992 C8968 0.982 . S
H8993 C8968 0.979 . S
H8994 C8968 0.977 . S
H8995 C8969 0.979 . S
H8996 C8969 0.980 . S
H8997 C8969 0.983 . S
H8998 C8942 0.947 . S
C8999 C8942 1.392 . S
C8999 C8943 1.419 . S
C8999 H8981 0.948 . S
C9000 C9001 1.391 . S
C9000 C9004 1.391 . S
C9000 H9042 0.948 . S
C9001 C9000 1.391 . S
C9001 C9002 1.391 . S
C9002 C9001 1.391 . S
C9002 H9058 0.947 . S
C9002 C9059 1.392 . S
C9003 C9004 1.391 . S
C9003 C9007 1.397 . S
C9003 C9059 1.419 . S
C9004 C9000 1.391 . S
C9004 C9003 1.391 . S
C9004 C9005 1.399 . S
C9005 C9004 1.399 . S
C9005 C9008 1.396 . S
C9005 C9017 1.453 . S
C9005 C9018 1.684 . S
H9006 C9030 0.948 . S
C9007 C9003 1.397 . S
C9007 C9008 1.394 . S
C9007 C9026 1.723 . S
C9008 C9005 1.396 . S
C9008 C9007 1.394 . S
C9008 C9038 1.723 . S
H9009 C9032 0.947 . S
H9010 C9033 0.948 . S
H9011 C9039 0.982 . S
H9012 C9040 0.979 . S
H9013 C9040 0.980 . S
H9014 C9040 0.983 . S
H9015 C9039 0.979 . S
H9016 C9039 0.977 . S
C9017 C9005 1.453 . S
C9017 H9046 0.982 . S
C9017 H9047 0.979 . S
C9017 H9048 0.977 . S
C9018 C9005 1.684 . S
C9018 H9043 0.979 . S
C9018 H9044 0.980 . S
C9018 H9045 0.983 . S
C9019 C9020 1.391 . S
C9019 C9024 1.391 . S
C9019 H9049 0.948 . S
C9020 C9019 1.391 . S
C9020 C9021 1.391 . S
C9021 C9020 1.391 . S
C9021 C9022 1.392 . S
C9021 H9050 0.947 . S
C9022 C9021 1.392 . S
C9022 C9023 1.419 . S
C9022 H9051 0.948 . S
C9023 C9022 1.419 . S
C9023 C9024 1.391 . S
C9023 C9027 1.397 . S
C9024 C9019 1.391 . S
C9024 C9023 1.391 . S
C9024 C9025 1.399 . S
C9025 C9024 1.399 . S
C9025 C9026 1.396 . S
C9025 C9028 1.453 . S
C9025 C9029 1.684 . S
C9026 C9007 1.723 . S
C9026 C9025 1.396 . S
C9026 C9027 1.394 . S
C9027 C9023 1.397 . S
C9027 C9026 1.394 . S
C9027 C9037 1.723 . S
C9028 C9025 1.453 . S
C9028 H9052 0.982 . S
C9028 H9053 0.979 . S
C9028 H9054 0.977 . S
C9029 C9025 1.684 . S
C9029 H9055 0.979 . S
C9029 H9056 0.980 . S
C9029 H9057 0.983 . S
C9030 H9006 0.948 . S
C9030 C9031 1.391 . S
C9030 C9035 1.391 . S
C9031 C9030 1.391 . S
C9031 C9032 1.391 . S
C9032 H9009 0.947 . S
C9032 C9031 1.391 . S
C9032 C9033 1.392 . S
C9033 H9010 0.948 . S
C9033 C9032 1.392 . S
C9033 C9034 1.419 . S
C9034 C9033 1.419 . S
C9034 C9035 1.391 . S
C9034 C9038 1.397 . S
C9035 C9030 1.391 . S
C9035 C9034 1.391 . S
C9035 C9036 1.399 . S
C9036 C9035 1.399 . S
C9036 C9037 1.396 . S
C9036 C9039 1.453 . S
C9036 C9040 1.684 . S
C9037 C9027 1.723 . S
C9037 C9036 1.396 . S
C9037 C9038 1.394 . S
C9038 C9008 1.723 . S
C9038 C9034 1.397 . S
C9038 C9037 1.394 . S
C9039 H9011 0.982 . S
C9039 H9015 0.979 . S
C9039 H9016 0.977 . S
C9039 C9036 1.453 . S
C9040 H9012 0.979 . S
C9040 H9013 0.980 . S
C9040 H9014 0.983 . S
C9040 C9036 1.684 . S
H9041 C9059 0.948 . S
H9042 C9000 0.948 . S
H9043 C9018 0.979 . S
H9044 C9018 0.980 . S
H9045 C9018 0.983 . S
H9046 C9017 0.982 . S
H9047 C9017 0.979 . S
H9048 C9017 0.977 . S
H9049 C9019 0.948 . S
H9050 C9021 0.947 . S
H9051 C9022 0.948 . S
H9052 C9028 0.982 . S
H9053 C9028 0.979 . S
H9054 C9028 0.977 . S
H9055 C9029 0.979 . S
H9056 C9029 0.980 . S
H9057 C9029 0.983 . S
H9058 C9002 0.947 . S
C9059 C9002 1.392 . S
C9059 C9003 1.419 . S
C9059 H9041 0.948 . S
C9060 C9061 1.391 . S
C9060 C9064 1.391 . S
C9060 H9102 0.948 . S
C9061 C9060 1.391 . S
C9061 C9062 1.391 . S
C9062 C9061 1.391 . S
C9062 H9118 0.947 . S
C9062 C9119 1.392 . S
C9063 C9064 1.391 . S
C9063 C9067 1.397 . S
C9063 C9119 1.419 . S
C9064 C9060 1.391 . S
C9064 C9063 1.391 . S
C9064 C9065 1.399 . S
C9065 C9064 1.399 . S
C9065 C9068 1.396 . S
C9065 C9077 1.453 . S
C9065 C9078 1.684 . S
H9066 C9090 0.948 . S
C9067 C9063 1.397 . S
C9067 C9068 1.394 . S
C9067 C9086 1.723 . S
C9068 C9065 1.396 . S
C9068 C9067 1.394 . S
C9068 C9098 1.723 . S
H9069 C9092 0.947 . S
H9070 C9093 0.948 . S
H9071 C9099 0.982 . S
H9072 C9100 0.979 . S
H9073 C9100 0.980 . S
H9074 C9100 0.983 . S
H9075 C9099 0.979 . S
H9076 C9099 0.977 . S
C9077 C9065 1.453 . S
C9077 H9106 0.982 . S
C9077 H9107 0.979 . S
C9077 H9108 0.977 . S
C9078 C9065 1.684 . S
C9078 H9103 0.979 . S
C9078 H9104 0.980 . S
C9078 H9105 0.983 . S
C9079 C9080 1.391 . S
C9079 C9084 1.391 . S
C9079 H9109 0.948 . S
C9080 C9079 1.391 . S
C9080 C9081 1.391 . S
C9081 C9080 1.391 . S
C9081 C9082 1.392 . S
C9081 H9110 0.947 . S
C9082 C9081 1.392 . S
C9082 C9083 1.419 . S
C9082 H9111 0.948 . S
C9083 C9082 1.419 . S
C9083 C9084 1.391 . S
C9083 C9087 1.397 . S
C9084 C9079 1.391 . S
C9084 C9083 1.391 . S
C9084 C9085 1.399 . S
C9085 C9084 1.399 . S
C9085 C9086 1.396 . S
C9085 C9088 1.453 . S
C9085 C9089 1.684 . S
C9086 C9067 1.723 . S
C9086 C9085 1.396 . S
C9086 C9087 1.394 . S
C9087 C9083 1.397 . S
C9087 C9086 1.394 . S
C9087 C9097 1.723 . S
C9088 C9085 1.453 . S
C9088 H9112 0.982 . S
C9088 H9113 0.979 . S
C9088 H9114 0.977 . S
C9089 C9085 1.684 . S
C9089 H9115 0.979 . S
C9089 H9116 0.980 . S
C9089 H9117 0.983 . S
C9090 H9066 0.948 . S
C9090 C9091 1.391 . S
C9090 C9095 1.391 . S
C9091 C9090 1.391 . S
C9091 C9092 1.391 . S
C9092 H9069 0.947 . S
C9092 C9091 1.391 . S
C9092 C9093 1.392 . S
C9093 H9070 0.948 . S
C9093 C9092 1.392 . S
C9093 C9094 1.419 . S
C9094 C9093 1.419 . S
C9094 C9095 1.391 . S
C9094 C9098 1.397 . S
C9095 C9090 1.391 . S
C9095 C9094 1.391 . S
C9095 C9096 1.399 . S
C9096 C9095 1.399 . S
C9096 C9097 1.396 . S
C9096 C9099 1.453 . S
C9096 C9100 1.684 . S
C9097 C9087 1.723 . S
C9097 C9096 1.396 . S
C9097 C9098 1.394 . S
C9098 C9068 1.723 . S
C9098 C9094 1.397 . S
C9098 C9097 1.394 . S
C9099 H9071 0.982 . S
C9099 H9075 0.979 . S
C9099 H9076 0.977 . S
C9099 C9096 1.453 . S
C9100 H9072 0.979 . S
C9100 H9073 0.980 . S
C9100 H9074 0.983 . S
C9100 C9096 1.684 . S
H9101 C9119 0.948 . S
H9102 C9060 0.948 . S
H9103 C9078 0.979 . S
H9104 C9078 0.980 . S
H9105 C9078 0.983 . S
H9106 C9077 0.982 . S
H9107 C9077 0.979 . S
H9108 C9077 0.977 . S
H9109 C9079 0.948 . S
H9110 C9081 0.947 . S
H9111 C9082 0.948 . S
H9112 C9088 0.982 . S
H9113 C9088 0.979 . S
H9114 C9088 0.977 . S
H9115 C9089 0.979 . S
H9116 C9089 0.980 . S
H9117 C9089 0.983 . S
H9118 C9062 0.947 . S
C9119 C9062 1.392 . S
C9119 C9063 1.419 . S
C9119 H9101 0.948 . S
C9120 C9121 1.391 . S
C9120 C9124 1.391 . S
C9120 H9162 0.948 . S
C9121 C9120 1.391 . S
C9121 C9122 1.391 . S
C9122 C9121 1.391 . S
C9122 H9178 0.947 . S
C9122 C9179 1.392 . S
C9123 C9124 1.391 . S
C9123 C9127 1.397 . S
C9123 C9179 1.419 . S
C9124 C9120 1.391 . S
C9124 C9123 1.391 . S
C9124 C9125 1.399 . S
C9125 C9124 1.399 . S
C9125 C9128 1.396 . S
C9125 C9137 1.453 . S
C9125 C9138 1.684 . S
H9126 C9150 0.948 . S
C9127 C9123 1.397 . S
C9127 C9128 1.394 . S
C9127 C9146 1.723 . S
C9128 C9125 1.396 . S
C9128 C9127 1.394 . S
C9128 C9158 1.723 . S
H9129 C9152 0.947 . S
H9130 C9153 0.948 . S
H9131 C9159 0.982 . S
H9132 C9160 0.979 . S
H9133 C9160 0.980 . S
H9134 C9160 0.983 . S
H9135 C9159 0.979 . S
H9136 C9159 0.977 . S
C9137 C9125 1.453 . S
C9137 H9166 0.982 . S
C9137 H9167 0.979 . S
C9137 H9168 0.977 . S
C9138 C9125 1.684 . S
C9138 H9163 0.979 . S
C9138 H9164 0.980 . S
C9138 H9165 0.983 . S
C9139 C9140 1.391 . S
C9139 C9144 1.391 . S
C9139 H9169 0.948 . S
C9140 C9139 1.391 . S
C9140 C9141 1.391 . S
C9141 C9140 1.391 . S
C9141 C9142 1.392 . S
C9141 H9170 0.947 . S
C9142 C9141 1.392 . S
C9142 C9143 1.419 . S
C9142 H9171 0.948 . S
C9143 C9142 1.419 . S
C9143 C9144 1.391 . S
C9143 C9147 1.397 . S
C9144 C9139 1.391 . S
C9144 C9143 1.391 . S
C9144 C9145 1.399 . S
C9145 C9144 1.399 . S
C9145 C9146 1.396 . S
C9145 C9148 1.453 . S
C9145 C9149 1.684 . S
C9146 C9127 1.723 . S
C9146 C9145 1.396 . S
C9146 C9147 1.394 . S
C9147 C9143 1.397 . S
C9147 C9146 1.394 . S
C9147 C9157 1.723 . S
C9148 C9145 1.453 . S
C9148 H9172 0.982 . S
C9148 H9173 0.979 . S
C9148 H9174 0.977 . S
C9149 C9145 1.684 . S
C9149 H9175 0.979 . S
C9149 H9176 0.980 . S
C9149 H9177 0.983 . S
C9150 H9126 0.948 . S
C9150 C9151 1.391 . S
C9150 C9155 1.391 . S
C9151 C9150 1.391 . S
C9151 C9152 1.391 . S
C9152 H9129 0.947 . S
C9152 C9151 1.391 . S
C9152 C9153 1.392 . S
C9153 H9130 0.948 . S
C9153 C9152 1.392 . S
C9153 C9154 1.419 . S
C9154 C9153 1.419 . S
C9154 C9155 1.391 . S
C9154 C9158 1.397 . S
C9155 C9150 1.391 . S
C9155 C9154 1.391 . S
C9155 C9156 1.399 . S
C9156 C9155 1.399 . S
C9156 C9157 1.396 . S
C9156 C9159 1.453 . S
C9156 C9160 1.684 . S
C9157 C9147 1.723 . S
C9157 C9156 1.396 . S
C9157 C9158 1.394 . S
C9158 C9128 1.723 . S
C9158 C9154 1.397 . S
C9158 C9157 1.394 . S
C9159 H9131 0.982 . S
C9159 H9135 0.979 . S
C9159 H9136 0.977 . S
C9159 C9156 1.453 . S
C9160 H9132 0.979 . S
C9160 H9133 0.980 . S
C9160 H9134 0.983 . S
C9160 C9156 1.684 . S
H9161 C9179 0.948 . S
H9162 C9120 0.948 . S
H9163 C9138 0.979 . S
H9164 C9138 0.980 . S
H9165 C9138 0.983 . S
H9166 C9137 0.982 . S
H9167 C9137 0.979 . S
H9168 C9137 0.977 . S
H9169 C9139 0.948 . S
H9170 C9141 0.947 . S
H9171 C9142 0.948 . S
H9172 C9148 0.982 . S
H9173 C9148 0.979 . S
H9174 C9148 0.977 . S
H9175 C9149 0.979 . S
H9176 C9149 0.980 . S
H9177 C9149 0.983 . S
H9178 C9122 0.947 . S
C9179 C9122 1.392 . S
C9179 C9123 1.419 . S
C9179 H9161 0.948 . S
C9180 C9181 1.391 . S
C9180 C9184 1.391 . S
C9180 H9222 0.948 . S
C9181 C9180 1.391 . S
C9181 C9182 1.391 . S
C9182 C9181 1.391 . S
C9182 H9238 0.947 . S
C9182 C9239 1.392 . S
C9183 C9184 1.391 . S
C9183 C9187 1.397 . S
C9183 C9239 1.419 . S
C9184 C9180 1.391 . S
C9184 C9183 1.391 . S
C9184 C9185 1.399 . S
C9185 C9184 1.399 . S
C9185 C9188 1.396 . S
C9185 C9197 1.453 . S
C9185 C9198 1.684 . S
H9186 C9210 0.948 . S
C9187 C9183 1.397 . S
C9187 C9188 1.394 . S
C9187 C9206 1.723 . S
C9188 C9185 1.396 . S
C9188 C9187 1.394 . S
C9188 C9218 1.723 . S
H9189 C9212 0.947 . S
H9190 C9213 0.948 . S
H9191 C9219 0.982 . S
H9192 C9220 0.979 . S
H9193 C9220 0.980 . S
H9194 C9220 0.983 . S
H9195 C9219 0.979 . S
H9196 C9219 0.977 . S
C9197 C9185 1.453 . S
C9197 H9226 0.982 . S
C9197 H9227 0.979 . S
C9197 H9228 0.977 . S
C9198 C9185 1.684 . S
C9198 H9223 0.979 . S
C9198 H9224 0.980 . S
C9198 H9225 0.983 . S
C9199 C9200 1.391 . S
C9199 C9204 1.391 . S
C9199 H9229 0.948 . S
C9200 C9199 1.391 . S
C9200 C9201 1.391 . S
C9201 C9200 1.391 . S
C9201 C9202 1.392 . S
C9201 H9230 0.947 . S
C9202 C9201 1.392 . S
C9202 C9203 1.419 . S
C9202 H9231 0.948 . S
C9203 C9202 1.419 . S
C9203 C9204 1.391 . S
C9203 C9207 1.397 . S
C9204 C9199 1.391 . S
C9204 C9203 1.391 . S
C9204 C9205 1.399 . S
C9205 C9204 1.399 . S
C9205 C9206 1.396 . S
C9205 C9208 1.453 . S
C9205 C9209 1.684 . S
C9206 C9187 1.723 . S
C9206 C9205 1.396 . S
C9206 C9207 1.394 . S
C9207 C9203 1.397 . S
C9207 C9206 1.394 . S
C9207 C9217 1.723 . S
C9208 C9205 1.453 . S
C9208 H9232 0.982 . S
C9208 H9233 0.979 . S
C9208 H9234 0.977 . S
C9209 C9205 1.684 . S
C9209 H9235 0.979 . S
C9209 H9236 0.980 . S
C9209 H9237 0.983 . S
C9210 H9186 0.948 . S
C9210 C9211 1.391 . S
C9210 C9215 1.391 . S
C9211 C9210 1.391 . S
C9211 C9212 1.391 . S
C9212 H9189 0.947 . S
C9212 C9211 1.391 . S
C9212 C9213 1.392 . S
C9213 H9190 0.948 . S
C9213 C9212 1.392 . S
C9213 C9214 1.419 . S
C9214 C9213 1.419 . S
C9214 C9215 1.391 . S
C9214 C9218 1.397 . S
C9215 C9210 1.391 . S
C9215 C9214 1.391 . S
C9215 C9216 1.399 . S
C9216 C9215 1.399 . S
C9216 C9217 1.396 . S
C9216 C9219 1.453 . S
C9216 C9220 1.684 . S
C9217 C9207 1.723 . S
C9217 C9216 1.396 . S
C9217 C9218 1.394 . S
C9218 C9188 1.723 . S
C9218 C9214 1.397 . S
C9218 C9217 1.394 . S
C9219 H9191 0.982 . S
C9219 H9195 0.979 . S
C9219 H9196 0.977 . S
C9219 C9216 1.453 . S
C9220 H9192 0.979 . S
C9220 H9193 0.980 . S
C9220 H9194 0.983 . S
C9220 C9216 1.684 . S
H9221 C9239 0.948 . S
H9222 C9180 0.948 . S
H9223 C9198 0.979 . S
H9224 C9198 0.980 . S
H9225 C9198 0.983 . S
H9226 C9197 0.982 . S
H9227 C9197 0.979 . S
H9228 C9197 0.977 . S
H9229 C9199 0.948 . S
H9230 C9201 0.947 . S
H9231 C9202 0.948 . S
H9232 C9208 0.982 . S
H9233 C9208 0.979 . S
H9234 C9208 0.977 . S
H9235 C9209 0.979 . S
H9236 C9209 0.980 . S
H9237 C9209 0.983 . S
H9238 C9182 0.947 . S
C9239 C9182 1.392 . S
C9239 C9183 1.419 . S
C9239 H9221 0.948 . S
C9240 C9241 1.391 . S
C9240 C9244 1.391 . S
C9240 H9282 0.948 . S
C9241 C9240 1.391 . S
C9241 C9242 1.391 . S
C9242 C9241 1.391 . S
C9242 H9298 0.947 . S
C9242 C9299 1.392 . S
C9243 C9244 1.391 . S
C9243 C9247 1.397 . S
C9243 C9299 1.419 . S
C9244 C9240 1.391 . S
C9244 C9243 1.391 . S
C9244 C9245 1.399 . S
C9245 C9244 1.399 . S
C9245 C9248 1.396 . S
C9245 C9257 1.453 . S
C9245 C9258 1.684 . S
H9246 C9270 0.948 . S
C9247 C9243 1.397 . S
C9247 C9248 1.394 . S
C9247 C9266 1.723 . S
C9248 C9245 1.396 . S
C9248 C9247 1.394 . S
C9248 C9278 1.723 . S
H9249 C9272 0.947 . S
H9250 C9273 0.948 . S
H9251 C9279 0.982 . S
H9252 C9280 0.979 . S
H9253 C9280 0.980 . S
H9254 C9280 0.983 . S
H9255 C9279 0.979 . S
H9256 C9279 0.977 . S
C9257 C9245 1.453 . S
C9257 H9286 0.982 . S
C9257 H9287 0.979 . S
C9257 H9288 0.977 . S
C9258 C9245 1.684 . S
C9258 H9283 0.979 . S
C9258 H9284 0.980 . S
C9258 H9285 0.983 . S
C9259 C9260 1.391 . S
C9259 C9264 1.391 . S
C9259 H9289 0.948 . S
C9260 C9259 1.391 . S
C9260 C9261 1.391 . S
C9261 C9260 1.391 . S
C9261 C9262 1.392 . S
C9261 H9290 0.947 . S
C9262 C9261 1.392 . S
C9262 C9263 1.419 . S
C9262 H9291 0.948 . S
C9263 C9262 1.419 . S
C9263 C9264 1.391 . S
C9263 C9267 1.397 . S
C9264 C9259 1.391 . S
C9264 C9263 1.391 . S
C9264 C9265 1.399 . S
C9265 C9264 1.399 . S
C9265 C9266 1.396 . S
C9265 C9268 1.453 . S
C9265 C9269 1.684 . S
C9266 C9247 1.723 . S
C9266 C9265 1.396 . S
C9266 C9267 1.394 . S
C9267 C9263 1.397 . S
C9267 C9266 1.394 . S
C9267 C9277 1.723 . S
C9268 C9265 1.453 . S
C9268 H9292 0.982 . S
C9268 H9293 0.979 . S
C9268 H9294 0.977 . S
C9269 C9265 1.684 . S
C9269 H9295 0.979 . S
C9269 H9296 0.980 . S
C9269 H9297 0.983 . S
C9270 H9246 0.948 . S
C9270 C9271 1.391 . S
C9270 C9275 1.391 . S
C9271 C9270 1.391 . S
C9271 C9272 1.391 . S
C9272 H9249 0.947 . S
C9272 C9271 1.391 . S
C9272 C9273 1.392 . S
C9273 H9250 0.948 . S
C9273 C9272 1.392 . S
C9273 C9274 1.419 . S
C9274 C9273 1.419 . S
C9274 C9275 1.391 . S
C9274 C9278 1.397 . S
C9275 C9270 1.391 . S
C9275 C9274 1.391 . S
C9275 C9276 1.399 . S
C9276 C9275 1.399 . S
C9276 C9277 1.396 . S
C9276 C9279 1.453 . S
C9276 C9280 1.684 . S
C9277 C9267 1.723 . S
C9277 C9276 1.396 . S
C9277 C9278 1.394 . S
C9278 C9248 1.723 . S
C9278 C9274 1.397 . S
C9278 C9277 1.394 . S
C9279 H9251 0.982 . S
C9279 H9255 0.979 . S
C9279 H9256 0.977 . S
C9279 C9276 1.453 . S
C9280 H9252 0.979 . S
C9280 H9253 0.980 . S
C9280 H9254 0.983 . S
C9280 C9276 1.684 . S
H9281 C9299 0.948 . S
H9282 C9240 0.948 . S
H9283 C9258 0.979 . S
H9284 C9258 0.980 . S
H9285 C9258 0.983 . S
H9286 C9257 0.982 . S
H9287 C9257 0.979 . S
H9288 C9257 0.977 . S
H9289 C9259 0.948 . S
H9290 C9261 0.947 . S
H9291 C9262 0.948 . S
H9292 C9268 0.982 . S
H9293 C9268 0.979 . S
H9294 C9268 0.977 . S
H9295 C9269 0.979 . S
H9296 C9269 0.980 . S
H9297 C9269 0.983 . S
H9298 C9242 0.947 . S
C9299 C9242 1.392 . S
C9299 C9243 1.419 . S
C9299 H9281 0.948 . S
C9300 C9301 1.391 . S
C9300 C9304 1.391 . S
C9300 H9342 0.948 . S
C9301 C9300 1.391 . S
C9301 C9302 1.391 . S
C9302 C9301 1.391 . S
C9302 H9358 0.947 . S
C9302 C9359 1.392 . S
C9303 C9304 1.391 . S
C9303 C9307 1.397 . S
C9303 C9359 1.419 . S
C9304 C9300 1.391 . S
C9304 C9303 1.391 . S
C9304 C9305 1.399 . S
C9305 C9304 1.399 . S
C9305 C9308 1.396 . S
C9305 C9317 1.453 . S
C9305 C9318 1.684 . S
H9306 C9330 0.948 . S
C9307 C9303 1.397 . S
C9307 C9308 1.394 . S
C9307 C9326 1.723 . S
C9308 C9305 1.396 . S
C9308 C9307 1.394 . S
C9308 C9338 1.723 . S
H9309 C9332 0.947 . S
H9310 C9333 0.948 . S
H9311 C9339 0.982 . S
H9312 C9340 0.979 . S
H9313 C9340 0.980 . S
H9314 C9340 0.983 . S
H9315 C9339 0.979 . S
H9316 C9339 0.977 . S
C9317 C9305 1.453 . S
C9317 H9346 0.982 . S
C9317 H9347 0.979 . S
C9317 H9348 0.977 . S
C9318 C9305 1.684 . S
C9318 H9343 0.979 . S
C9318 H9344 0.980 . S
C9318 H9345 0.983 . S
C9319 C9320 1.391 . S
C9319 C9324 1.391 . S
C9319 H9349 0.948 . S
C9320 C9319 1.391 . S
C9320 C9321 1.391 . S
C9321 C9320 1.391 . S
C9321 C9322 1.392 . S
C9321 H9350 0.947 . S
C9322 C9321 1.392 . S
C9322 C9323 1.419 . S
C9322 H9351 0.948 . S
C9323 C9322 1.419 . S
C9323 C9324 1.391 . S
C9323 C9327 1.397 . S
C9324 C9319 1.391 . S
C9324 C9323 1.391 . S
C9324 C9325 1.399 . S
C9325 C9324 1.399 . S
C9325 C9326 1.396 . S
C9325 C9328 1.453 . S
C9325 C9329 1.684 . S
C9326 C9307 1.723 . S
C9326 C9325 1.396 . S
C9326 C9327 1.394 . S
C9327 C9323 1.397 . S
C9327 C9326 1.394 . S
C9327 C9337 1.723 . S
C9328 C9325 1.453 . S
C9328 H9352 0.982 . S
C9328 H9353 0.979 . S
C9328 H9354 0.977 . S
C9329 C9325 1.684 . S
C9329 H9355 0.979 . S
C9329 H9356 0.980 . S
C9329 H9357 0.983 . S
C9330 H9306 0.948 . S
C9330 C9331 1.391 . S
C9330 C9335 1.391 . S
C9331 C9330 1.391 . S
C9331 C9332 1.391 . S
C9332 H9309 0.947 . S
C9332 C9331 1.391 . S
C9332 C9333 1.392 . S
C9333 H9310 0.948 . S
C9333 C9332 1.392 . S
C9333 C9334 1.419 . S
C9334 C9333 1.419 . S
C9334 C9335 1.391 . S
C9334 C9338 1.397 . S
C9335 C9330 1.391 . S
C9335 C9334 1.391 . S
C9335 C9336 1.399 . S
C9336 C9335 1.399 . S
C9336 C9337 1.396 . S
C9336 C9339 1.453 . S
C9336 C9340 1.684 . S
C9337 C9327 1.723 . S
C9337 C9336 1.396 . S
C9337 C9338 1.394 . S
C9338 C9308 1.723 . S
C9338 C9334 1.397 . S
C9338 C9337 1.394 . S
C9339 H9311 0.982 . S
C9339 H9315 0.979 . S
C9339 H9316 0.977 . S
C9339 C9336 1.453 . S
C9340 H9312 0.979 . S
C9340 H9313 0.980 . S
C9340 H9314 0.983 . S
C9340 C9336 1.684 . S
H9341 C9359 0.948 . S
H9342 C9300 0.948 . S
H9343 C9318 0.979 . S
H9344 C9318 0.980 . S
H9345 C9318 0.983 . S
H9346 C9317 0.982 . S
H9347 C9317 0.979 . S
H9348 C9317 0.977 . S
H9349 C9319 0.948 . S
H9350 C9321 0.947 . S
H9351 C9322 0.948 . S
H9352 C9328 0.982 . S
H9353 C9328 0.979 . S
H9354 C9328 0.977 . S
H9355 C9329 0.979 . S
H9356 C9329 0.980 . S
H9357 C9329 0.983 . S
H9358 C9302 0.947 . S
C9359 C9302 1.392 . S
C9359 C9303 1.419 . S
C9359 H9341 0.948 . S
C9360 C9361 1.391 . S
C9360 C9364 1.391 . S
C9360 H9402 0.948 . S
C9361 C9360 1.391 . S
C9361 C9362 1.391 . S
C9362 C9361 1.391 . S
C9362 H9418 0.947 . S
C9362 C9419 1.392 . S
C9363 C9364 1.391 . S
C9363 C9367 1.397 . S
C9363 C9419 1.419 . S
C9364 C9360 1.391 . S
C9364 C9363 1.391 . S
C9364 C9365 1.399 . S
C9365 C9364 1.399 . S
C9365 C9368 1.396 . S
C9365 C9377 1.453 . S
C9365 C9378 1.684 . S
H9366 C9390 0.948 . S
C9367 C9363 1.397 . S
C9367 C9368 1.394 . S
C9367 C9386 1.723 . S
C9368 C9365 1.396 . S
C9368 C9367 1.394 . S
C9368 C9398 1.723 . S
H9369 C9392 0.947 . S
H9370 C9393 0.948 . S
H9371 C9399 0.982 . S
H9372 C9400 0.979 . S
H9373 C9400 0.980 . S
H9374 C9400 0.983 . S
H9375 C9399 0.979 . S
H9376 C9399 0.977 . S
C9377 C9365 1.453 . S
C9377 H9406 0.982 . S
C9377 H9407 0.979 . S
C9377 H9408 0.977 . S
C9378 C9365 1.684 . S
C9378 H9403 0.979 . S
C9378 H9404 0.980 . S
C9378 H9405 0.983 . S
C9379 C9380 1.391 . S
C9379 C9384 1.391 . S
C9379 H9409 0.948 . S
C9380 C9379 1.391 . S
C9380 C9381 1.391 . S
C9381 C9380 1.391 . S
C9381 C9382 1.392 . S
C9381 H9410 0.947 . S
C9382 C9381 1.392 . S
C9382 C9383 1.419 . S
C9382 H9411 0.948 . S
C9383 C9382 1.419 . S
C9383 C9384 1.391 . S
C9383 C9387 1.397 . S
C9384 C9379 1.391 . S
C9384 C9383 1.391 . S
C9384 C9385 1.399 . S
C9385 C9384 1.399 . S
C9385 C9386 1.396 . S
C9385 C9388 1.453 . S
C9385 C9389 1.684 . S
C9386 C9367 1.723 . S
C9386 C9385 1.396 . S
C9386 C9387 1.394 . S
C9387 C9383 1.397 . S
C9387 C9386 1.394 . S
C9387 C9397 1.723 . S
C9388 C9385 1.453 . S
C9388 H9412 0.982 . S
C9388 H9413 0.979 . S
C9388 H9414 0.977 . S
C9389 C9385 1.684 . S
C9389 H9415 0.979 . S
C9389 H9416 0.980 . S
C9389 H9417 0.983 . S
C9390 H9366 0.948 . S
C9390 C9391 1.391 . S
C9390 C9395 1.391 . S
C9391 C9390 1.391 . S
C9391 C9392 1.391 . S
C9392 H9369 0.947 . S
C9392 C9391 1.391 . S
C9392 C9393 1.392 . S
C9393 H9370 0.948 . S
C9393 C9392 1.392 . S
C9393 C9394 1.419 . S
C9394 C9393 1.419 . S
C9394 C9395 1.391 . S
C9394 C9398 1.397 . S
C9395 C9390 1.391 . S
C9395 C9394 1.391 . S
C9395 C9396 1.399 . S
C9396 C9395 1.399 . S
C9396 C9397 1.396 . S
C9396 C9399 1.453 . S
C9396 C9400 1.684 . S
C9397 C9387 1.723 . S
C9397 C9396 1.396 . S
C9397 C9398 1.394 . S
C9398 C9368 1.723 . S
C9398 C9394 1.397 . S
C9398 C9397 1.394 . S
C9399 H9371 0.982 . S
C9399 H9375 0.979 . S
C9399 H9376 0.977 . S
C9399 C9396 1.453 . S
C9400 H9372 0.979 . S
C9400 H9373 0.980 . S
C9400 H9374 0.983 . S
C9400 C9396 1.684 . S
H9401 C9419 0.948 . S
H9402 C9360 0.948 . S
H9403 C9378 0.979 . S
H9404 C9378 0.980 . S
H9405 C9378 0.983 . S
H9406 C9377 0.982 . S
H9407 C9377 0.979 . S
H9408 C9377 0.977 . S
H9409 C9379 0.948 . S
H9410 C9381 0.947 . S
H9411 C9382 0.948 . S
H9412 C9388 0.982 . S
H9413 C9388 0.979 . S
H9414 C9388 0.977 . S
H9415 C9389 0.979 . S
H9416 C9389 0.980 . S
H9417 C9389 0.983 . S
H9418 C9362 0.947 . S
C9419 C9362 1.392 . S
C9419 C9363 1.419 . S
C9419 H9401 0.948 . S
C9420 C9421 1.391 . S
C9420 C9424 1.391 . S
C9420 H9462 0.948 . S
C9421 C9420 1.391 . S
C9421 C9422 1.391 . S
C9422 C9421 1.391 . S
C9422 H9478 0.947 . S
C9422 C9479 1.392 . S
C9423 C9424 1.391 . S
C9423 C9427 1.397 . S
C9423 C9479 1.419 . S
C9424 C9420 1.391 . S
C9424 C9423 1.391 . S
C9424 C9425 1.399 . S
C9425 C9424 1.399 . S
C9425 C9428 1.396 . S
C9425 C9437 1.453 . S
C9425 C9438 1.684 . S
H9426 C9450 0.948 . S
C9427 C9423 1.397 . S
C9427 C9428 1.394 . S
C9427 C9446 1.723 . S
C9428 C9425 1.396 . S
C9428 C9427 1.394 . S
C9428 C9458 1.723 . S
H9429 C9452 0.947 . S
H9430 C9453 0.948 . S
H9431 C9459 0.982 . S
H9432 C9460 0.979 . S
H9433 C9460 0.980 . S
H9434 C9460 0.983 . S
H9435 C9459 0.979 . S
H9436 C9459 0.977 . S
C9437 C9425 1.453 . S
C9437 H9466 0.982 . S
C9437 H9467 0.979 . S
C9437 H9468 0.977 . S
C9438 C9425 1.684 . S
C9438 H9463 0.979 . S
C9438 H9464 0.980 . S
C9438 H9465 0.983 . S
C9439 C9440 1.391 . S
C9439 C9444 1.391 . S
C9439 H9469 0.948 . S
C9440 C9439 1.391 . S
C9440 C9441 1.391 . S
C9441 C9440 1.391 . S
C9441 C9442 1.392 . S
C9441 H9470 0.947 . S
C9442 C9441 1.392 . S
C9442 C9443 1.419 . S
C9442 H9471 0.948 . S
C9443 C9442 1.419 . S
C9443 C9444 1.391 . S
C9443 C9447 1.397 . S
C9444 C9439 1.391 . S
C9444 C9443 1.391 . S
C9444 C9445 1.399 . S
C9445 C9444 1.399 . S
C9445 C9446 1.396 . S
C9445 C9448 1.453 . S
C9445 C9449 1.684 . S
C9446 C9427 1.723 . S
C9446 C9445 1.396 . S
C9446 C9447 1.394 . S
C9447 C9443 1.397 . S
C9447 C9446 1.394 . S
C9447 C9457 1.723 . S
C9448 C9445 1.453 . S
C9448 H9472 0.982 . S
C9448 H9473 0.979 . S
C9448 H9474 0.977 . S
C9449 C9445 1.684 . S
C9449 H9475 0.979 . S
C9449 H9476 0.980 . S
C9449 H9477 0.983 . S
C9450 H9426 0.948 . S
C9450 C9451 1.391 . S
C9450 C9455 1.391 . S
C9451 C9450 1.391 . S
C9451 C9452 1.391 . S
C9452 H9429 0.947 . S
C9452 C9451 1.391 . S
C9452 C9453 1.392 . S
C9453 H9430 0.948 . S
C9453 C9452 1.392 . S
C9453 C9454 1.419 . S
C9454 C9453 1.419 . S
C9454 C9455 1.391 . S
C9454 C9458 1.397 . S
C9455 C9450 1.391 . S
C9455 C9454 1.391 . S
C9455 C9456 1.399 . S
C9456 C9455 1.399 . S
C9456 C9457 1.396 . S
C9456 C9459 1.453 . S
C9456 C9460 1.684 . S
C9457 C9447 1.723 . S
C9457 C9456 1.396 . S
C9457 C9458 1.394 . S
C9458 C9428 1.723 . S
C9458 C9454 1.397 . S
C9458 C9457 1.394 . S
C9459 H9431 0.982 . S
C9459 H9435 0.979 . S
C9459 H9436 0.977 . S
C9459 C9456 1.453 . S
C9460 H9432 0.979 . S
C9460 H9433 0.980 . S
C9460 H9434 0.983 . S
C9460 C9456 1.684 . S
H9461 C9479 0.948 . S
H9462 C9420 0.948 . S
H9463 C9438 0.979 . S
H9464 C9438 0.980 . S
H9465 C9438 0.983 . S
H9466 C9437 0.982 . S
H9467 C9437 0.979 . S
H9468 C9437 0.977 . S
H9469 C9439 0.948 . S
H9470 C9441 0.947 . S
H9471 C9442 0.948 . S
H9472 C9448 0.982 . S
H9473 C9448 0.979 . S
H9474 C9448 0.977 . S
H9475 C9449 0.979 . S
H9476 C9449 0.980 . S
H9477 C9449 0.983 . S
H9478 C9422 0.947 . S
C9479 C9422 1.392 . S
C9479 C9423 1.419 . S
C9479 H9461 0.948 . S
C9480 C9481 1.391 . S
C9480 C9484 1.391 . S
C9480 H9522 0.948 . S
C9481 C9480 1.391 . S
C9481 C9482 1.391 . S
C9482 C9481 1.391 . S
C9482 H9538 0.947 . S
C9482 C9539 1.392 . S
C9483 C9484 1.391 . S
C9483 C9487 1.397 . S
C9483 C9539 1.419 . S
C9484 C9480 1.391 . S
C9484 C9483 1.391 . S
C9484 C9485 1.399 . S
C9485 C9484 1.399 . S
C9485 C9488 1.396 . S
C9485 C9497 1.453 . S
C9485 C9498 1.684 . S
H9486 C9510 0.948 . S
C9487 C9483 1.397 . S
C9487 C9488 1.394 . S
C9487 C9506 1.723 . S
C9488 C9485 1.396 . S
C9488 C9487 1.394 . S
C9488 C9518 1.723 . S
H9489 C9512 0.947 . S
H9490 C9513 0.948 . S
H9491 C9519 0.982 . S
H9492 C9520 0.979 . S
H9493 C9520 0.980 . S
H9494 C9520 0.983 . S
H9495 C9519 0.979 . S
H9496 C9519 0.977 . S
C9497 C9485 1.453 . S
C9497 H9526 0.982 . S
C9497 H9527 0.979 . S
C9497 H9528 0.977 . S
C9498 C9485 1.684 . S
C9498 H9523 0.979 . S
C9498 H9524 0.980 . S
C9498 H9525 0.983 . S
C9499 C9500 1.391 . S
C9499 C9504 1.391 . S
C9499 H9529 0.948 . S
C9500 C9499 1.391 . S
C9500 C9501 1.391 . S
C9501 C9500 1.391 . S
C9501 C9502 1.392 . S
C9501 H9530 0.947 . S
C9502 C9501 1.392 . S
C9502 C9503 1.419 . S
C9502 H9531 0.948 . S
C9503 C9502 1.419 . S
C9503 C9504 1.391 . S
C9503 C9507 1.397 . S
C9504 C9499 1.391 . S
C9504 C9503 1.391 . S
C9504 C9505 1.399 . S
C9505 C9504 1.399 . S
C9505 C9506 1.396 . S
C9505 C9508 1.453 . S
C9505 C9509 1.684 . S
C9506 C9487 1.723 . S
C9506 C9505 1.396 . S
C9506 C9507 1.394 . S
C9507 C9503 1.397 . S
C9507 C9506 1.394 . S
C9507 C9517 1.723 . S
C9508 C9505 1.453 . S
C9508 H9532 0.982 . S
C9508 H9533 0.979 . S
C9508 H9534 0.977 . S
C9509 C9505 1.684 . S
C9509 H9535 0.979 . S
C9509 H9536 0.980 . S
C9509 H9537 0.983 . S
C9510 H9486 0.948 . S
C9510 C9511 1.391 . S
C9510 C9515 1.391 . S
C9511 C9510 1.391 . S
C9511 C9512 1.391 . S
C9512 H9489 0.947 . S
C9512 C9511 1.391 . S
C9512 C9513 1.392 . S
C9513 H9490 0.948 . S
C9513 C9512 1.392 . S
C9513 C9514 1.419 . S
C9514 C9513 1.419 . S
C9514 C9515 1.391 . S
C9514 C9518 1.397 . S
C9515 C9510 1.391 . S
C9515 C9514 1.391 . S
C9515 C9516 1.399 . S
C9516 C9515 1.399 . S
C9516 C9517 1.396 . S
C9516 C9519 1.453 . S
C9516 C9520 1.684 . S
C9517 C9507 1.723 . S
C9517 C9516 1.396 . S
C9517 C9518 1.394 . S
C9518 C9488 1.723 . S
C9518 C9514 1.397 . S
C9518 C9517 1.394 . S
C9519 H9491 0.982 . S
C9519 H9495 0.979 . S
C9519 H9496 0.977 . S
C9519 C9516 1.453 . S
C9520 H9492 0.979 . S
C9520 H9493 0.980 . S
C9520 H9494 0.983 . S
C9520 C9516 1.684 . S
H9521 C9539 0.948 . S
H9522 C9480 0.948 . S
H9523 C9498 0.979 . S
H9524 C9498 0.980 . S
H9525 C9498 0.983 . S
H9526 C9497 0.982 . S
H9527 C9497 0.979 . S
H9528 C9497 0.977 . S
H9529 C9499 0.948 . S
H9530 C9501 0.947 . S
H9531 C9502 0.948 . S
H9532 C9508 0.982 . S
H9533 C9508 0.979 . S
H9534 C9508 0.977 . S
H9535 C9509 0.979 . S
H9536 C9509 0.980 . S
H9537 C9509 0.983 . S
H9538 C9482 0.947 . S
C9539 C9482 1.392 . S
C9539 C9483 1.419 . S
C9539 H9521 0.948 . S
C9540 C9541 1.391 . S
C9540 C9544 1.391 . S
C9540 H9582 0.948 . S
C9541 C9540 1.391 . S
C9541 C9542 1.391 . S
C9542 C9541 1.391 . S
C9542 H9598 0.947 . S
C9542 C9599 1.392 . S
C9543 C9544 1.391 . S
C9543 C9547 1.397 . S
C9543 C9599 1.419 . S
C9544 C9540 1.391 . S
C9544 C9543 1.391 . S
C9544 C9545 1.399 . S
C9545 C9544 1.399 . S
C9545 C9548 1.396 . S
C9545 C9557 1.453 . S
C9545 C9558 1.684 . S
H9546 C9570 0.948 . S
C9547 C9543 1.397 . S
C9547 C9548 1.394 . S
C9547 C9566 1.723 . S
C9548 C9545 1.396 . S
C9548 C9547 1.394 . S
C9548 C9578 1.723 . S
H9549 C9572 0.947 . S
H9550 C9573 0.948 . S
H9551 C9579 0.982 . S
H9552 C9580 0.979 . S
H9553 C9580 0.980 . S
H9554 C9580 0.983 . S
H9555 C9579 0.979 . S
H9556 C9579 0.977 . S
C9557 C9545 1.453 . S
C9557 H9586 0.982 . S
C9557 H9587 0.979 . S
C9557 H9588 0.977 . S
C9558 C9545 1.684 . S
C9558 H9583 0.979 . S
C9558 H9584 0.980 . S
C9558 H9585 0.983 . S
C9559 C9560 1.391 . S
C9559 C9564 1.391 . S
C9559 H9589 0.948 . S
C9560 C9559 1.391 . S
C9560 C9561 1.391 . S
C9561 C9560 1.391 . S
C9561 C9562 1.392 . S
C9561 H9590 0.947 . S
C9562 C9561 1.392 . S
C9562 C9563 1.419 . S
C9562 H9591 0.948 . S
C9563 C9562 1.419 . S
C9563 C9564 1.391 . S
C9563 C9567 1.397 . S
C9564 C9559 1.391 . S
C9564 C9563 1.391 . S
C9564 C9565 1.399 . S
C9565 C9564 1.399 . S
C9565 C9566 1.396 . S
C9565 C9568 1.453 . S
C9565 C9569 1.684 . S
C9566 C9547 1.723 . S
C9566 C9565 1.396 . S
C9566 C9567 1.394 . S
C9567 C9563 1.397 . S
C9567 C9566 1.394 . S
C9567 C9577 1.723 . S
C9568 C9565 1.453 . S
C9568 H9592 0.982 . S
C9568 H9593 0.979 . S
C9568 H9594 0.977 . S
C9569 C9565 1.684 . S
C9569 H9595 0.979 . S
C9569 H9596 0.980 . S
C9569 H9597 0.983 . S
C9570 H9546 0.948 . S
C9570 C9571 1.391 . S
C9570 C9575 1.391 . S
C9571 C9570 1.391 . S
C9571 C9572 1.391 . S
C9572 H9549 0.947 . S
C9572 C9571 1.391 . S
C9572 C9573 1.392 . S
C9573 H9550 0.948 . S
C9573 C9572 1.392 . S
C9573 C9574 1.419 . S
C9574 C9573 1.419 . S
C9574 C9575 1.391 . S
C9574 C9578 1.397 . S
C9575 C9570 1.391 . S
C9575 C9574 1.391 . S
C9575 C9576 1.399 . S
C9576 C9575 1.399 . S
C9576 C9577 1.396 . S
C9576 C9579 1.453 . S
C9576 C9580 1.684 . S
C9577 C9567 1.723 . S
C9577 C9576 1.396 . S
C9577 C9578 1.394 . S
C9578 C9548 1.723 . S
C9578 C9574 1.397 . S
C9578 C9577 1.394 . S
C9579 H9551 0.982 . S
C9579 H9555 0.979 . S
C9579 H9556 0.977 . S
C9579 C9576 1.453 . S
C9580 H9552 0.979 . S
C9580 H9553 0.980 . S
C9580 H9554 0.983 . S
C9580 C9576 1.684 . S
H9581 C9599 0.948 . S
H9582 C9540 0.948 . S
H9583 C9558 0.979 . S
H9584 C9558 0.980 . S
H9585 C9558 0.983 . S
H9586 C9557 0.982 . S
H9587 C9557 0.979 . S
H9588 C9557 0.977 . S
H9589 C9559 0.948 . S
H9590 C9561 0.947 . S
H9591 C9562 0.948 . S
H9592 C9568 0.982 . S
H9593 C9568 0.979 . S
H9594 C9568 0.977 . S
H9595 C9569 0.979 . S
H9596 C9569 0.980 . S
H9597 C9569 0.983 . S
H9598 C9542 0.947 . S
C9599 C9542 1.392 . S
C9599 C9543 1.419 . S
C9599 H9581 0.948 . S
C5360 C15 3.721 . S
C8311 C55 3.937 . S
C5491 C95 2.927 . S
C8161 C135 1.991 . S
C5720 C175 3.720 . S
C215 C8401 1.991 . S
C5611 C255 2.926 . S
C8551 C295 3.937 . S
C9511 C335 4.077 1_565 S
C375 C9151 2.926 . S
C9571 C415 3.395 . S
C455 C9421 3.949 . S
C9271 C495 4.077 1_545 S
C6421 C535 3.948 . S
C6511 C575 3.395 . S
C615 C6331 2.926 . S
C655 C8971 2.198 . S
C5971 C695 2.198 . S
C8641 C735 4.095 . S
C5821 C775 3.936 . S
C815 C5911 3.395 . S
C9061 C855 3.936 . S
C8881 C895 4.095 . S
C935 C9031 3.395 . S
C975 C3931 2.768 . S
C1015 C6871 2.041 . S
C4021 C1055 3.720 . S
C1095 C6721 3.667 . S
C4291 C1135 2.770 . S
C1175 C6961 3.667 . S
C4141 C1215 3.721 . S
C7111 C1255 2.042 . S
C1295 C8071 3.161 . S
C7681 C1335 3.718 . S
C1375 C8131 3.824 1_545 S
C8011 C1415 2.769 . S
C7831 C1455 3.161 . S
C1495 C5011 2.769 . S
C1535 C5071 3.825 1_565 S
C4861 C1575 3.719 . S
C1615 C7531 3.668 . S
C4531 C1655 3.668 . S
C1695 C7231 3.161 . S
C4381 C1735 2.042 . S
C1775 C4471 3.846 . S
C7621 C1815 2.042 . S
C7471 C1855 3.161 . S
C7591 C1895 3.847 . S
C1935 C8240 3.721 . S
C5431 C1975 3.937 . S
C8371 C2015 2.927 . S
C5281 C2055 1.990 . S
C2095 C8600 3.720 . S
C5521 C2135 1.991 . S
C8491 C2175 2.926 . S
C5671 C2215 3.937 . S
C2255 C6631 4.094 . S
C6271 C2295 2.926 . S
C6691 C2335 3.395 . S
C2375 C6541 3.949 . S
C2415 C6391 4.095 . S
C2455 C9301 3.948 . S
C2495 C9391 3.395 . S
C9211 C2535 2.926 . S
C2575 C6091 2.198 . S
C8851 C2615 2.198 . S
C5761 C2655 4.095 . S
C8701 C2695 3.936 . S
C2735 C8791 3.395 . S
C2775 C6181 3.936 . S
C6001 C2815 4.095 . S
C2855 C6151 3.395 . S
C2895 C6811 2.769 . S
C3991 C2935 2.041 . S
C6901 C2975 3.721 . S
C3015 C3841 3.667 . S
C7171 C3055 2.770 . S
C4081 C3095 3.667 . S
C3135 C7021 3.721 . S
C3175 C4231 2.042 . S
C5191 C3215 3.161 . S
C3255 C4801 3.718 . S
C5251 C3295 3.845 . S
C5131 C3335 2.769 . S
C3375 C4951 3.161 . S
C3415 C7891 2.769 . S
C7951 C3455 3.846 . S
C3495 C7741 3.719 . S
C4651 C3535 3.668 . S
C7411 C3575 3.669 . S
C3615 C4351 3.161 . S
C3655 C7261 2.042 . S
C3695 C7351 3.846 . S
C3735 C4741 2.042 . S
C3775 C4591 3.161 . S
C4711 C3815 3.847 . S
C4411 C2 3.615 . S
C4441 C42 2.336 . S
C82 C4501 2.854 . S
C122 C4340 3.484 . S
C162 C4771 3.615 . S
C4580 C202 3.485 . S
C4621 C242 2.854 . S
C282 C4681 2.337 . S
C322 C4051 3.401 . S
C362 C3860 2.854 . S
C402 C3901 3.545 . S
C3980 C442 3.615 . S
C482 C4171 3.401 . S
C522 C4220 3.615 . S
C562 C4261 3.546 . S
C602 C4100 2.853 . S
C4940 C642 3.484 . S
C682 C8060 3.485 . S
C4831 C722 3.400 . S
C8101 C762 2.337 . S
C802 C7981 3.546 . S
C842 C7921 2.336 . S
C7771 C882 3.401 . S
C7861 C922 3.546 . S
C5840 C962 3.401 . S
C5881 C1002 3.962 . S
C5941 C1042 4.038 . S
C1082 C5791 2.243 . S
C1122 C6200 3.402 . S
C6031 C1162 2.244 . S
C1202 C6061 4.037 . S
C6121 C1242 3.962 . S
C1282 C5461 4.088 . S
C5311 C1322 3.694 . S
C1362 C5371 3.184 . S
C5401 C1402 3.401 . S
C5581 C1442 4.088 . S
C1482 C5641 3.401 . S
C5731 C1522 3.183 . S
C5551 C1562 3.694 . S
C6380 C1602 2.244 . S
C9500 C1642 2.244 . S
C6241 C1682 4.088 . S
C1722 C9541 3.962 . S
C1762 C9451 3.311 . S
C9361 C1802 3.962 . S
C9181 C1842 4.087 . S
C9331 C1882 3.310 . S
C1922 C7291 3.615 . S
C7321 C1962 2.336 . S
C2002 C7381 2.854 . S
C7220 C2042 3.484 . S
C2082 C7651 3.615 . S
C2122 C7460 3.485 . S
C2162 C7501 2.854 . S
C2202 C7561 2.337 . S
C2242 C6931 3.401 . S
C6740 C2282 2.854 . S
C6781 C2322 3.545 . S
C2362 C6860 3.616 . S
C2402 C7051 3.401 . S
C2442 C7100 3.615 . S
C2482 C7141 3.546 . S
C2522 C6980 2.854 . S
C7820 C2562 3.484 . S
C5180 C2602 3.485 . S
C7711 C2642 3.400 . S
C5221 C2682 2.337 . S
C5101 C2722 3.546 . S
C5041 C2762 2.336 . S
C2802 C4891 3.401 . S
C4981 C2842 3.546 . S
C2882 C8720 3.401 . S
C2922 C8761 3.962 . S
C8821 C2962 4.038 . S
C3002 C8671 2.243 . S
C9080 C3042 3.402 . S
C3082 C8911 2.244 . S
C3122 C8941 4.037 . S
C9001 C3162 3.962 . S
C8341 C3202 4.088 . S
C8191 C3242 3.694 . S
C8251 C3282 3.184 . S
C8281 C3322 3.401 . S
C3362 C8461 4.088 . S
C8521 C3402 3.401 . S
C3442 C8611 3.183 . S
C3482 C8431 3.694 . S
C3522 C9260 2.244 . S
C3562 C6620 2.244 . S
C3602 C9121 4.088 . S
C6661 C3642 3.962 . S
C3682 C6571 3.310 . S
C3722 C6481 3.962 . S
C3762 C6301 4.087 . S
C6451 C3802 3.310 . S
C21 C3871 3.420 . S
C61 C3920 2.168 . S
C101 C3961 3.106 . S
C4040 C141 2.214 . S
C4111 C181 3.420 . S
C221 C4160 2.214 . S
C261 C4201 3.106 . S
C301 C4280 2.169 . S
C4321 C341 2.558 . S
C4400 C381 3.107 . S
C421 C4460 3.708 . S
C4520 C461 3.420 . S
C501 C4561 2.558 . S
C541 C4640 3.420 . S
C581 C4700 3.708 . S
C621 C4760 3.106 . S
C661 C4820 2.213 . S
C701 C4880 2.214 . S
C4921 C741 2.558 . S
C5000 C781 2.168 . S
C5060 C821 3.708 . S
C5120 C861 2.168 . S
C901 C5161 2.559 . S
C5240 C941 3.708 . S
C981 C5300 3.205 . S
C1021 C5341 2.326 . S
C1061 C5420 3.986 . S
C5480 C1101 2.018 . S
C1141 C5540 3.207 . S
C5600 C1181 2.018 . S
C1221 C5660 3.986 . S
C1261 C5701 2.326 . S
C5780 C1301 4.192 . S
C1341 C5851 3.986 . S
C5900 C1381 2.582 . S
C1421 C5960 3.331 . S
C6020 C1461 4.191 . S
C6080 C1501 3.331 . S
C6140 C1541 2.582 . S
C1581 C6211 3.986 . S
C1621 C6260 2.018 . S
C1661 C6320 2.018 . S
C1701 C6361 4.192 . S
C1741 C6440 2.396 . S
C1781 C6500 2.582 . S
C6560 C1821 2.396 . S
C1861 C6601 4.192 . S
C6680 C1901 2.582 . S
C1941 C6751 3.420 . S
C6800 C1981 2.168 . S
C6841 C2021 3.105 . S
C6920 C2061 2.214 . S
C2101 C6991 3.420 . S
C2141 C7040 2.214 . S
C7081 C2181 3.106 . S
C7160 C2221 2.169 . S
C2261 C7201 2.558 . S
C2301 C7280 3.106 . S
C2341 C7340 3.708 . S
C2381 C7400 3.420 . S
C2421 C7441 2.558 . S
C7520 C2461 3.420 . S
C7580 C2501 3.708 . S
C7640 C2541 3.106 . S
C7700 C2581 2.213 . S
C2621 C7760 2.213 . S
C2661 C7801 2.558 . S
C7880 C2701 2.168 . S
C2741 C7940 3.708 . S
C8000 C2781 2.168 . S
C8041 C2821 2.559 . S
C8120 C2861 3.708 . S
C2901 C8180 3.205 . S
C2941 C8221 2.326 . S
C2981 C8300 3.986 . S
C3021 C8360 2.018 . S
C8420 C3061 3.207 . S
C8480 C3101 2.018 . S
C8540 C3141 3.986 . S
C3181 C8581 2.326 . S
C3221 C8660 4.191 . S
C8731 C3261 3.986 . S
C8780 C3301 2.582 . S
C8840 C3341 3.332 . S
C8900 C3381 4.191 . S
C8960 C3421 3.331 . S
C9020 C3461 2.582 . S
C9091 C3501 3.986 . S
C9140 C3541 2.018 . S
C9200 C3581 2.018 . S
C9241 C3621 4.192 . S
C3661 C9320 2.396 . S
C9380 C3701 2.582 . S
C3741 C9440 2.396 . S
C9481 C3781 4.192 . S
C9560 C3821 2.582 . S
