# Generated by pormake.
# Topology pth, (4,4)-cn, num edge types: 1
# Building blocks:
#     Node 0, Type 0, BuildingBlock: CEKHIL_clean_sbu_0, # of connection points: 4
#     Node 1, Type 0, BuildingBlock: CEKHIL_clean_sbu_0, # of connection points: 4
#     Node 2, Type 0, BuildingBlock: CEKHIL_clean_sbu_0, # of connection points: 4
#     Node 3, Type 1, BuildingBlock: NAHDIM_clean_linker_0, # of connection points: 4
#     Node 4, Type 1, BuildingBlock: NAHDIM_clean_linker_0, # of connection points: 4
#     Node 5, Type 1, BuildingBlock: NAHDIM_clean_linker_0, # of connection points: 4
#     Edge 6, Type (0, 1), BuildingBlock: ZUJKAS_clean_linker_0, # of connection points: 2
#     Edge 7, Type (0, 1), BuildingBlock: ZUJKAS_clean_linker_0, # of connection points: 2
#     Edge 8, Type (0, 1), BuildingBlock: ZUJKAS_clean_linker_0, # of connection points: 2
#     Edge 9, Type (0, 1), BuildingBlock: ZUJKAS_clean_linker_0, # of connection points: 2
#     Edge 10, Type (0, 1), BuildingBlock: ZUJKAS_clean_linker_0, # of connection points: 2
#     Edge 11, Type (0, 1), BuildingBlock: ZUJKAS_clean_linker_0, # of connection points: 2
#     Edge 12, Type (0, 1), BuildingBlock: ZUJKAS_clean_linker_0, # of connection points: 2
#     Edge 13, Type (0, 1), BuildingBlock: ZUJKAS_clean_linker_0, # of connection points: 2
#     Edge 14, Type (0, 1), BuildingBlock: ZUJKAS_clean_linker_0, # of connection points: 2
#     Edge 15, Type (0, 1), BuildingBlock: ZUJKAS_clean_linker_0, # of connection points: 2
#     Edge 16, Type (0, 1), BuildingBlock: ZUJKAS_clean_linker_0, # of connection points: 2
#     Edge 17, Type (0, 1), BuildingBlock: ZUJKAS_clean_linker_0, # of connection points: 2
# Relax obj value: 0.006
# Max RMSD: 0.047
# Mean RMSD: 0.045
data_MOF--net-pth--node1-CEKHIL_clean_sbu_0--node2-NAHDIM_clean_linker_0--edge1-ZUJKAS_clean_linker_0
_symmetry_space_group_name_H-M    P1
_symmetry_Int_Tables_number       1
_symmetry_cell_setting            triclinic
loop_
_symmetry_equiv_pos_as_xyz
'x, y, z'
_cell_length_a     38.206705
_cell_length_b     38.291504
_cell_length_c     99.455248
_cell_angle_alpha  90.693781
_cell_angle_beta   90.506283
_cell_angle_gamma 120.29477
loop_
_atom_site_label
_atom_site_type_symbol
_atom_site_fract_x
_atom_site_fract_y
_atom_site_fract_z
_atom_type_partial_charge
Co0 Co 0.01938 0.04944 0.08719 0.0
O1 O 0.99799 0.01045 0.10113 0.0
O2 O 0.04695 0.01852 0.0875 0.0
C3 C 0.02572 0.10164 0.09981 0.0
O4 O 0.04997 0.08793 0.07208 0.0
Co5 Co 0.96894 0.08747 0.07735 0.0
O6 O 0.01651 0.11985 0.0659 0.0
C7 C 0.94351 0.00394 0.06956 0.0
C8 C 0.02376 -0.00034 0.09757 0.0
C9 C 0.04629 0.11377 0.06495 0.0
O10 O 0.97755 0.00928 0.07406 0.0
O11 O 0.93213 0.0299 0.07123 0.0
O12 O 0.05354 0.09165 0.10023 0.0
O13 O 0.99352 0.07756 0.09284 0.0
Co14 Co 0.0453 0.07049 0.40805 0.0
O15 O 0.01713 0.08746 0.39618 0.0
O16 O 0.07299 0.12891 0.40786 0.0
C17 C 0.04487 0.02398 0.39388 0.0
O18 O 0.08336 0.06405 0.42084 0.0
Co19 Co 0.00319 0.98216 0.41815 0.0
O20 O 0.05874 0.99794 0.42456 0.0
C21 C 0.97941 0.03908 0.4289 0.0
C22 C 0.0452 0.12425 0.39918 0.0
C23 C 0.08678 0.03489 0.42568 0.0
O24 O 0.01041 0.06872 0.42343 0.0
O25 O 0.96893 0.00194 0.42688 0.0
O26 O 0.07216 0.06192 0.3928 0.0
O27 O 0.01706 0.01609 0.40257 0.0
Co28 Co 0.02883 0.04467 0.74379 0.0
O29 O 0.07454 0.0713 0.73214 0.0
O30 O 0.05952 0.01712 0.74404 0.0
C31 C 0.98345 0.04374 0.72896 0.0
O32 O 0.98367 0.00768 0.75638 0.0
Co33 Co 0.98054 0.08537 0.75318 0.0
O34 O 0.9409 0.03097 0.75964 0.0
C35 C 0.06041 0.10974 0.76573 0.0
C36 C 0.08297 0.04359 0.73537 0.0
C37 C 0.9506 0.0039 0.76105 0.0
O38 O 0.06219 0.08145 0.75922 0.0
O39 O 0.03179 0.11755 0.76407 0.0
O40 O 0.99364 0.01613 0.72839 0.0
O41 O 0.00281 0.07235 0.73781 0.0
C42 C 0.9325 0.6465 0.32624 0.0
C43 C 0.97395 0.67326 0.32001 0.0
C44 C 0.9845 0.65349 0.29797 0.0
C45 C 0.02605 0.66705 0.29797 0.0
C46 C 0.04126 0.64739 0.29 0.0
C47 C 0.01407 0.61303 0.28212 0.0
C48 C 0.97208 0.59978 0.28198 0.0
C49 C 0.95799 0.6209 0.28971 0.0
C50 C 0.08622 0.66276 0.29025 0.0
C51 C 0.94189 0.56254 0.27407 0.0
C52 C 0.03279 0.36333 0.32374 0.0
C53 C 0.02222 0.38539 0.31384 0.0
C54 C 0.05145 0.45054 0.3028 0.0
C55 C 0.01731 0.43944 0.29448 0.0
C56 C 0.01604 0.46735 0.2858 0.0
C57 C 0.04991 0.50695 0.28519 0.0
C58 C 0.08474 0.51794 0.29326 0.0
C59 C 0.08497 0.48955 0.30202 0.0
C60 C 0.97815 0.45465 0.27744 0.0
C61 C 0.12149 0.55979 0.29273 0.0
C62 C 0.0946 0.45253 0.20366 0.0
C63 C 0.05357 0.44062 0.2052 0.0
C64 C 0.04241 0.46819 0.20998 0.0
C65 C 0.07288 0.50849 0.2131 0.0
C66 C 0.11397 0.5212 0.21067 0.0
C67 C 0.12427 0.49298 0.2059 0.0
C68 C 0.99819 0.454 0.21211 0.0
C69 C 0.14709 0.56414 0.21364 0.0
C70 C 0.95101 0.70355 0.19643 0.0
C71 C 0.99082 0.70928 0.19093 0.0
C72 C -0.00013 0.65153 0.19435 0.0
C73 C 0.97385 0.61064 0.19685 0.0
C74 C 0.98691 0.58878 0.20454 0.0
C75 C 0.02741 0.60823 0.20947 0.0
C76 C 0.05449 0.64915 0.20636 0.0
C77 C 0.04032 0.67051 0.19887 0.0
C78 C 0.95724 0.54512 0.20759 0.0
C79 C 0.09815 0.67036 0.21111 0.0
C80 C 0.02901 0.58901 0.27496 0.0
C81 C 0.0361 0.56276 0.28261 0.0
C82 C 0.0478 0.53721 0.27659 0.0
C83 C 0.05338 0.53819 0.26255 0.0
C84 C 0.06576 0.51331 0.25621 0.0
C85 C 0.06923 0.51303 0.24231 0.0
C86 C 0.06033 0.53754 0.23421 0.0
C87 C 0.06213 0.53621 0.22003 0.0
C88 C 0.05233 0.56032 0.21225 0.0
C89 C 0.04076 0.58603 0.21829 0.0
C90 C 0.03945 0.58834 0.23247 0.0
C91 C 0.02839 0.61424 0.23888 0.0
C92 C 0.02608 0.6154 0.25282 0.0
C93 C 0.03367 0.58993 0.26086 0.0
C94 C 0.04566 0.5642 0.25463 0.0
C95 C 0.04883 0.56363 0.24044 0.0
C96 C 0.11694 0.37636 0.21063 0.0
C97 C 0.08724 0.38522 0.20313 0.0
O98 O 0.96932 0.67094 0.30613 0.0
O99 O 0.98526 0.6717 0.18735 0.0
O100 O 0.10676 0.426 0.20015 0.0
O101 O 0.053 0.42476 0.31175 0.0
H102 H 0.99409 0.66154 0.32326 0.0
H103 H 0.91967 0.61477 0.32258 0.0
H104 H 0.91118 0.65703 0.32342 0.0
H105 H 0.93535 0.64701 0.33738 0.0
H106 H 0.04639 0.69283 0.30429 0.0
H107 H 0.92593 0.61095 0.28981 0.0
H108 H 0.09219 0.64132 0.29583 0.0
H109 H 0.10376 0.69308 0.29519 0.0
H110 H 0.0973 0.66447 0.27985 0.0
H111 H 0.91005 0.55351 0.27638 0.0
H112 H 0.94656 0.53679 0.27624 0.0
H113 H 0.94642 0.56845 0.26315 0.0
H114 H 0.99213 0.38283 0.31544 0.0
H115 H 0.01151 0.35703 0.33233 0.0
H116 H 0.0604 0.38687 0.32951 0.0
H117 H 0.03264 0.31713 0.31215 0.0
H118 H 0.9913 0.4092 0.29479 0.0
H119 H 0.11128 0.4978 0.30838 0.0
H120 H 0.98516 0.45534 0.26661 0.0
H121 H 0.96713 0.47618 0.27913 0.0
H122 H 0.95338 0.42371 0.2798 0.0
H123 H 0.14749 0.56247 0.29869 0.0
H124 H 0.11371 0.58218 0.29673 0.0
H125 H 0.13087 0.56765 0.28214 0.0
H126 H 0.06162 0.37698 0.21006 0.0
H127 H 0.03024 0.40981 0.20279 0.0
H128 H 0.15577 0.50203 0.20439 0.0
H129 H 0.99301 0.4566 0.22295 0.0
H130 H 0.97805 0.42213 0.2087 0.0
H131 H 0.98961 0.47362 0.20656 0.0
H132 H 0.17722 0.56996 0.21032 0.0
H133 H 0.14871 0.57041 0.22463 0.0
H134 H 0.13999 0.58557 0.20857 0.0
H135 H 0.01431 0.72399 0.19904 0.0
H136 H 0.95468 0.73307 0.19972 0.0
H137 H 0.94183 0.68347 0.20525 0.0
H138 H 0.92651 0.68954 0.18863 0.0
H139 H 0.94285 0.59624 0.19309 0.0
H140 H 0.06083 0.70186 0.19647 0.0
H141 H 0.956 0.5405 0.21861 0.0
H142 H 0.96763 0.52554 0.20292 0.0
H143 H 0.92617 0.53526 0.20374 0.0
H144 H 0.11619 0.70103 0.20685 0.0
H145 H 0.11224 0.65214 0.20827 0.0
H146 H 0.09952 0.6733 0.22225 0.0
H147 H 0.03118 0.56127 0.29337 0.0
H148 H 0.07262 0.49355 0.26193 0.0
H149 H 0.07853 0.49295 0.238 0.0
H150 H 0.05299 0.55849 0.20137 0.0
H151 H 0.02131 0.63389 0.2332 0.0
H152 H 0.01754 0.63599 0.25721 0.0
H153 H 0.102 0.34378 0.21313 0.0
H154 H 0.12716 0.39441 0.22016 0.0
H155 H 0.14399 0.3844 0.20445 0.0
C156 C 0.38163 0.97296 0.66165 0.0
C157 C 0.38074 0.01057 0.65711 0.0
C158 C 0.40214 0.02086 0.63411 0.0
C159 C 0.43147 0.0619 0.63341 0.0
C160 C 0.4641 0.075 0.62462 0.0
C161 C 0.46759 0.04623 0.61654 0.0
C162 C 0.43707 0.00484 0.61693 0.0
C163 C 0.40423 0.99281 0.62557 0.0
C164 C 0.49555 0.11939 0.62429 0.0
C165 C 0.43999 0.97306 0.60868 0.0
C166 C 0.72962 0.03867 0.65376 0.0
C167 C 0.6947 0.03117 0.64503 0.0
C168 C 0.66425 0.06663 0.63434 0.0
C169 C 0.6365 0.03301 0.62645 0.0
C170 C 0.60771 0.03496 0.61819 0.0
C171 C 0.60683 0.0714 0.61766 0.0
C172 C 0.63515 0.10557 0.62534 0.0
C173 C 0.66358 0.10271 0.6336 0.0
C174 C 0.57775 0.99778 0.61019 0.0
C175 C 0.63504 0.14486 0.6249 0.0
C176 C 0.68911 0.10708 0.53202 0.0
C177 C 0.6628 0.06829 0.53682 0.0
C178 C 0.627 0.0598 0.54336 0.0
C179 C 0.6178 0.091 0.54528 0.0
C180 C 0.64385 0.12987 0.54011 0.0
C181 C 0.67896 0.13721 0.53336 0.0
C182 C 0.59909 0.01754 0.54824 0.0
C183 C 0.63489 0.16376 0.54188 0.0
C184 C 0.30156 0.01036 0.53981 0.0
C185 C 0.33706 0.03872 0.53102 0.0
C186 C 0.39786 0.03301 0.53241 0.0
C187 C 0.40797 0.00359 0.53532 0.0
C188 C 0.44573 0.0143 0.54112 0.0
C189 C 0.47406 0.05556 0.54389 0.0
C190 C 0.46518 0.08569 0.54001 0.0
C191 C 0.42714 0.0741 0.53422 0.0
C192 C 0.45468 0.98147 0.54484 0.0
C193 C 0.49529 0.12997 0.54246 0.0
C194 C 0.50517 0.05872 0.60887 0.0
C195 C 0.53899 0.06367 0.61607 0.0
C196 C 0.57474 0.07266 0.60958 0.0
C197 C 0.57747 0.07777 0.59551 0.0
C198 C 0.61332 0.08763 0.58872 0.0
C199 C 0.61499 0.09039 0.57478 0.0
C200 C 0.58068 0.08279 0.56709 0.0
C201 C 0.58128 0.08317 0.55286 0.0
C202 C 0.5464 0.07493 0.54555 0.0
C203 C 0.51088 0.06665 0.5521 0.0
C204 C 0.50988 0.06681 0.56631 0.0
C205 C 0.47472 0.0592 0.57319 0.0
C206 C 0.47342 0.05759 0.58716 0.0
C207 C 0.50697 0.0629 0.59475 0.0
C208 C 0.54318 0.07207 0.58804 0.0
C209 C 0.54469 0.07422 0.57381 0.0
C210 C 0.78398 0.14494 0.53922 0.0
C211 C 0.75327 0.10833 0.53076 0.0
O212 O 0.37264 0.00769 0.64339 0.0
O213 O 0.35965 0.02061 0.52794 0.0
O214 O 0.72386 0.11593 0.5257 0.0
O215 O 0.69168 0.06523 0.64279 0.0
H216 H 0.41114 0.03741 0.65943 0.0
H217 H 0.40619 0.97097 0.65645 0.0
H218 H 0.35232 0.94506 0.65923 0.0
H219 H 0.38761 0.97466 0.67267 0.0
H220 H 0.4291 0.08348 0.63992 0.0
H221 H 0.38113 0.96117 0.6262 0.0
H222 H 0.52382 0.12448 0.62934 0.0
H223 H 0.48527 0.13842 0.62948 0.0
H224 H 0.50293 0.12936 0.61374 0.0
H225 H 0.41567 0.94192 0.61106 0.0
H226 H 0.46984 0.97542 0.61048 0.0
H227 H 0.43762 0.97806 0.59783 0.0
H228 H 0.66521 0.00427 0.64778 0.0
H229 H 0.71571 0.02049 0.66303 0.0
H230 H 0.74055 0.0688 0.65898 0.0
H231 H 0.76618 0.02737 0.64085 0.0
H232 H 0.63682 0.00494 0.62677 0.0
H233 H 0.68518 0.12856 0.63964 0.0
H234 H 0.58171 0.0042 0.59928 0.0
H235 H 0.54631 0.9897 0.61269 0.0
H236 H 0.58142 0.97129 0.61214 0.0
H237 H 0.66082 0.16949 0.63072 0.0
H238 H 0.60626 0.14044 0.62909 0.0
H239 H 0.6365 0.15435 0.61431 0.0
H240 H 0.7395 0.08154 0.53736 0.0
H241 H 0.6699 0.04451 0.53528 0.0
H242 H 0.69924 0.16687 0.52939 0.0
H243 H 0.59968 0.0177 0.5594 0.0
H244 H 0.60798 0.99568 0.54454 0.0
H245 H 0.56741 0.00693 0.54491 0.0
H246 H 0.65953 0.19291 0.53804 0.0
H247 H 0.6305 0.16782 0.55269 0.0
H248 H 0.60628 0.15587 0.53643 0.0
H249 H 0.35516 0.0671 0.53704 0.0
H250 H 0.28262 0.02401 0.54222 0.0
H251 H 0.3133 0.00525 0.54939 0.0
H252 H 0.28231 0.9806 0.53466 0.0
H253 H 0.38548 0.97202 0.53356 0.0
H254 H 0.42029 0.09714 0.53124 0.0
H255 H 0.45663 0.98033 0.55596 0.0
H256 H 0.48444 0.98835 0.54079 0.0
H257 H 0.43098 0.95121 0.54098 0.0
H258 H 0.48489 0.1498 0.53807 0.0
H259 H 0.52494 0.13774 0.53808 0.0
H260 H 0.5002 0.13629 0.55345 0.0
H261 H 0.53695 0.05898 0.62684 0.0
H262 H 0.64041 0.09306 0.59411 0.0
H263 H 0.64334 0.09788 0.57009 0.0
H264 H 0.54675 0.07443 0.53465 0.0
H265 H 0.44766 0.05411 0.56787 0.0
H266 H 0.44554 0.05142 0.59192 0.0
H267 H 0.79898 0.17238 0.53295 0.0
H268 H 0.80746 0.13934 0.54365 0.0
H269 H 0.76832 0.15063 0.54758 0.0
C270 C 0.666 0.62626 0.83258 0.0
C271 C 0.66739 0.66447 0.83808 0.0
C272 C 0.64539 0.65118 0.86095 0.0
C273 C 0.61985 0.66685 0.86323 0.0
C274 C 0.58755 0.64809 0.87217 0.0
C275 C 0.58045 0.61251 0.87874 0.0
C276 C 0.60673 0.59701 0.87653 0.0
C277 C 0.63944 0.61711 0.86783 0.0
C278 C 0.56058 0.66579 0.87439 0.0
C279 C 0.5996 0.55856 0.88302 0.0
C280 C 0.31879 0.47463 0.8345 0.0
C281 C 0.33722 0.45134 0.84092 0.0
C282 C 0.36439 0.4712 0.86334 0.0
C283 C 0.3916 0.45749 0.86548 0.0
C284 C 0.42607 0.47964 0.87374 0.0
C285 C 0.43356 0.51659 0.87972 0.0
C286 C 0.40563 0.53014 0.87769 0.0
C287 C 0.37092 0.50682 0.86963 0.0
C288 C 0.45481 0.46396 0.87589 0.0
C289 C 0.41302 0.56969 0.88371 0.0
C290 C 0.37345 0.45395 0.9657 0.0
C291 C 0.39928 0.44151 0.96031 0.0
C292 C 0.43457 0.46892 0.95362 0.0
C293 C 0.44417 0.50959 0.95235 0.0
C294 C 0.41893 0.52252 0.95822 0.0
C295 C 0.38401 0.4945 0.96497 0.0
C296 C 0.46134 0.45434 0.94775 0.0
C297 C 0.42836 0.56565 0.95707 0.0
C298 C 0.77473 0.70615 0.95868 0.0
C299 C 0.73875 0.70818 0.9644 0.0
C300 C 0.66998 0.64999 0.96273 0.0
C301 C 0.65118 0.6085 0.9601 0.0
C302 C 0.6122 0.58726 0.9543 0.0
C303 C 0.59119 0.60804 0.95146 0.0
C304 C 0.60904 0.64958 0.95496 0.0
C305 C 0.64849 0.67027 0.96051 0.0
C306 C 0.59393 0.54284 0.95091 0.0
C307 C 0.58681 0.67222 0.95254 0.0
C308 C 0.544 0.58995 0.88713 0.0
C309 C 0.50684 0.56596 0.88048 0.0
C310 C 0.4715 0.54189 0.88759 0.0
C311 C 0.47301 0.54143 0.90178 0.0
C312 C 0.43819 0.51677 0.90923 0.0
C313 C 0.44015 0.51602 0.92318 0.0
C314 C 0.47707 0.53968 0.93023 0.0
C315 C 0.47964 0.53799 0.94438 0.0
C316 C 0.51683 0.56169 0.95107 0.0
C317 C 0.55193 0.58684 0.94397 0.0
C318 C 0.54998 0.58895 0.92981 0.0
C319 C 0.58478 0.61372 0.92234 0.0
C320 C 0.58277 0.61475 0.90839 0.0
C321 C 0.54604 0.59053 0.90134 0.0
C322 C 0.51044 0.5659 0.90868 0.0
C323 C 0.51243 0.56513 0.92293 0.0
C324 C 0.27801 0.39321 0.95869 0.0
C325 C 0.31002 0.38972 0.96697 0.0
O326 O 0.67518 0.66805 0.85181 0.0
O327 O 0.70873 0.6693 0.96749 0.0
O328 O 0.33865 0.42776 0.9719 0.0
O329 O 0.33262 0.45111 0.85472 0.0
H330 H 0.63731 0.66164 0.836 0.0
H331 H 0.64122 0.59913 0.83741 0.0
H332 H 0.69516 0.62734 0.83468 0.0
H333 H 0.66003 0.62316 0.82155 0.0
H334 H 0.6251 0.69354 0.85789 0.0
H335 H 0.65958 0.60545 0.86594 0.0
H336 H 0.53057 0.64582 0.8695 0.0
H337 H 0.57355 0.6965 0.87014 0.0
H338 H 0.55558 0.6675 0.8853 0.0
H339 H 0.6198 0.54803 0.879 0.0
H340 H 0.5676 0.53415 0.88142 0.0
H341 H 0.6052 0.56377 0.89403 0.0
H342 H 0.37005 0.46733 0.83837 0.0
H343 H 0.32233 0.4754 0.82341 0.0
H344 H 0.33455 0.50626 0.83847 0.0
H345 H 0.28604 0.46032 0.83682 0.0
H346 H 0.38593 0.42967 0.86055 0.0
H347 H 0.34949 0.51698 0.86781 0.0
H348 H 0.46155 0.46425 0.88679 0.0
H349 H 0.48388 0.48409 0.87087 0.0
H350 H 0.44238 0.43273 0.87178 0.0
H351 H 0.38949 0.57696 0.88055 0.0
H352 H 0.44317 0.59466 0.88068 0.0
H353 H 0.4133 0.5683 0.89485 0.0
H354 H 0.32416 0.37705 0.96025 0.0
H355 H 0.39216 0.41053 0.96142 0.0
H356 H 0.36413 0.50387 0.96937 0.0
H357 H 0.46181 0.457 0.93664 0.0
H358 H 0.45086 0.42237 0.95023 0.0
H359 H 0.49291 0.47363 0.95157 0.0
H360 H 0.40582 0.571 0.96227 0.0
H361 H 0.4289 0.57317 0.94629 0.0
H362 H 0.45893 0.58653 0.96144 0.0
H363 H 0.72805 0.72103 0.95645 0.0
H364 H 0.79899 0.73663 0.95563 0.0
H365 H 0.76474 0.68586 0.94965 0.0
H366 H 0.78733 0.69416 0.96625 0.0
H367 H 0.66784 0.59308 0.96214 0.0
H368 H 0.66244 0.70214 0.96309 0.0
H369 H 0.58454 0.53696 0.94014 0.0
H370 H 0.56641 0.5251 0.95698 0.0
H371 H 0.61532 0.53182 0.95295 0.0
H372 H 0.60266 0.7029 0.95729 0.0
H373 H 0.55563 0.65498 0.95653 0.0
H374 H 0.58408 0.67535 0.94156 0.0
H375 H 0.50549 0.56552 0.86957 0.0
H376 H 0.40905 0.4976 0.90434 0.0
H377 H 0.41235 0.49639 0.92836 0.0
H378 H 0.51871 0.55964 0.9619 0.0
H379 H 0.61407 0.63254 0.92717 0.0
H380 H 0.61048 0.63444 0.90317 0.0
H381 H 0.26264 0.40544 0.96501 0.0
H382 H 0.25494 0.36313 0.95449 0.0
H383 H 0.2926 0.41388 0.95017 0.0
H384 H 0.08874 0.15361 0.11609 0.0
H385 H 0.09075 0.20403 0.13186 0.0
H386 H 0.97181 0.17614 0.11823 0.0
H387 H 0.96952 0.12549 0.10231 0.0
H388 H 0.0333 0.26355 0.12278 0.0
H389 H 0.01543 0.16452 0.16562 0.0
H390 H 0.05522 0.17272 0.15432 0.0
H391 H 0.0034 0.14589 0.14845 0.0
C392 C 0.06318 0.1585 0.11632 0.0
C393 C 0.02877 0.13531 0.10809 0.0
C394 C 0.06437 0.18723 0.12535 0.0
C395 C 0.03118 0.19324 0.12631 0.0
C396 C 0.9976 0.17169 0.11764 0.0
H397 H 0.01475 0.31519 0.19863 0.0
H398 H 0.99398 0.26937 0.17899 0.0
C399 C 0.99635 0.1428 0.10859 0.0
C400 C 0.03097 0.22037 0.13694 0.0
H401 H 0.03551 0.23286 0.17102 0.0
C402 C 0.03332 0.25678 0.13334 0.0
C403 C 0.03014 0.21092 0.15067 0.0
C404 C 0.02553 0.17122 0.15504 0.0
C405 C 0.03699 0.28507 0.14321 0.0
C406 C 0.03881 0.27671 0.15693 0.0
C407 C 0.03437 0.23936 0.16049 0.0
C408 C 0.04826 0.30712 0.1678 0.0
C409 C 0.0392 0.32371 0.13885 0.0
C410 C 0.08545 0.34364 0.16795 0.0
C411 C 0.09729 0.36979 0.17912 0.0
C412 C 0.07215 0.35984 0.19035 0.0
C413 C 0.03445 0.32378 0.19004 0.0
C414 C 0.0226 0.29764 0.17885 0.0
H415 H 0.02461 0.31995 0.12881 0.0
H416 H 0.0244 0.33395 0.14621 0.0
H417 H 0.07148 0.34775 0.13812 0.0
H418 H 0.10622 0.35103 0.1597 0.0
H419 H 0.1268 0.39705 0.1792 0.0
H420 H 0.00746 0.10038 0.44753 0.0
H421 H 0.96822 0.11147 0.46465 0.0
H422 H 0.85802 0.01074 0.44813 0.0
H423 H 0.89758 0.99792 0.43166 0.0
H424 H 0.91364 0.13091 0.46446 0.0
H425 H 0.84364 0.97806 0.48593 0.0
H426 H 0.88301 0.99508 0.47364 0.0
H427 H 0.83096 0.97555 0.46844 0.0
C428 C 0.97484 0.08065 0.4476 0.0
C429 C 0.9555 0.04804 0.43841 0.0
C430 C 0.95242 0.08695 0.45738 0.0
C431 C 0.91017 0.06125 0.45796 0.0
C432 C 0.89067 0.02997 0.44829 0.0
H433 H 0.75819 0.12826 0.50371 0.0
H434 H 0.79483 0.11598 0.48606 0.0
C435 C 0.91322 0.02291 0.43878 0.0
C436 C 0.88664 0.06745 0.46863 0.0
H437 H 0.81579 0.01878 0.4927 0.0
C438 C 0.89245 0.1064 0.47069 0.0
C439 C 0.85947 0.0357 0.47697 0.0
C440 C 0.85425 0.99391 0.47624 0.0
C441 C 0.87178 0.11445 0.48075 0.0
C442 C 0.843 0.08225 0.48858 0.0
C443 C 0.83739 0.04337 0.48659 0.0
C444 C 0.8192 0.08831 0.49915 0.0
C445 C 0.8821 0.15766 0.48312 0.0
C446 C 0.81902 0.07516 0.51229 0.0
C447 C 0.79693 0.08089 0.52231 0.0
C448 C 0.77462 0.10003 0.51945 0.0
C449 C 0.77468 0.11306 0.50627 0.0
C450 C 0.79617 0.10659 0.49618 0.0
H451 H 0.91298 0.17942 0.47955 0.0
H452 H 0.86026 0.16311 0.47742 0.0
H453 H 0.88056 0.16409 0.49394 0.0
H454 H 0.83645 0.06089 0.51484 0.0
H455 H 0.79771 0.0709 0.5324 0.0
H456 H 0.87927 0.98625 0.77286 0.0
H457 H 0.83599 0.92836 0.78662 0.0
H458 H 0.9166 0.88152 0.78111 0.0
H459 H 0.96032 0.93943 0.76718 0.0
H460 H 0.83298 0.8234 0.77736 0.0
H461 H 0.86229 0.91003 0.82531 0.0
H462 H 0.84702 0.92986 0.81163 0.0
H463 H 0.89428 0.9304 0.81086 0.0
C464 C 0.88797 0.96374 0.77453 0.0
C465 C 0.92351 0.96772 0.76895 0.0
C466 C 0.86325 0.93077 0.78249 0.0
C467 C 0.87354 0.90113 0.78509 0.0
C468 C 0.90839 0.90434 0.77931 0.0
H469 H 0.74973 0.70915 0.84367 0.0
H470 H 0.80192 0.7661 0.83106 0.0
C471 C 0.93328 0.93744 0.77134 0.0
C472 C 0.8472 0.86641 0.79361 0.0
H473 H 0.8061 0.84234 0.82485 0.0
C474 C 0.82738 0.82744 0.78778 0.0
C475 C 0.84038 0.87177 0.80724 0.0
C476 C 0.86239 0.91272 0.81419 0.0
C477 C 0.7996 0.79383 0.79509 0.0
C478 C 0.79127 0.79952 0.80851 0.0
C479 C 0.81229 0.83822 0.81451 0.0
C480 C 0.75983 0.76582 0.81631 0.0
C481 C 0.7792 0.7525 0.7884 0.0
C482 C 0.71897 0.74741 0.81229 0.0
C483 C 0.68918 0.7153 0.81952 0.0
C484 C 0.69967 0.70126 0.83099 0.0
C485 C 0.74069 0.71987 0.83503 0.0
C486 C 0.77049 0.75219 0.82782 0.0
H487 H 0.79592 0.75173 0.77943 0.0
H488 H 0.77662 0.72924 0.79553 0.0
H489 H 0.74814 0.74435 0.78509 0.0
H490 H 0.71014 0.75783 0.80351 0.0
H491 H 0.65791 0.70112 0.81608 0.0
H492 H 0.98332 0.96282 0.12007 0.0
H493 H 0.98632 0.91053 0.13269 0.0
H494 H 0.07204 0.91085 0.10468 0.0
H495 H 0.06983 0.9645 0.09196 0.0
H496 H 0.96583 0.83442 0.12371 0.0
H497 H 0.12668 0.9212 0.14154 0.0
H498 H 0.10098 0.94559 0.13448 0.0
H499 H 0.11754 0.91905 0.12369 0.0
C500 C 0.00296 0.95198 0.11654 0.0
C501 C 0.02634 0.9678 0.10499 0.0
C502 C 0.0046 0.922 0.12379 0.0
C503 C 0.02954 0.90694 0.11968 0.0
C504 C 0.05301 0.92249 0.10813 0.0
H505 H 0.97985 0.68906 0.16363 0.0
H506 H 0.99502 0.73446 0.14475 0.0
C507 C 0.05156 0.95292 0.10084 0.0
C508 C 0.02955 0.87439 0.12757 0.0
H509 H 0.08656 0.85548 0.14969 0.0
C510 C 0.99234 0.83867 0.12926 0.0
C511 C 0.06417 0.88032 0.13483 0.0
C512 C 0.10464 0.91866 0.13367 0.0
C513 C 0.98815 0.80967 0.13856 0.0
C514 C 0.02258 0.81589 0.14605 0.0
C515 C 0.0603 0.85072 0.14388 0.0
C516 C 0.01906 0.78882 0.15715 0.0
C517 C 0.94631 0.77404 0.14086 0.0
C518 C 0.02962 0.80454 0.17033 0.0
C519 C 0.02202 0.77881 0.18111 0.0
C520 C 0.00364 0.73683 0.17894 0.0
C521 C 0.99432 0.72126 0.16567 0.0
C522 C 0.00262 0.74715 0.15486 0.0
H523 H 0.92212 0.77888 0.13662 0.0
H524 H 0.94358 0.74667 0.13588 0.0
H525 H 0.94081 0.76808 0.15176 0.0
H526 H 0.04228 0.8366 0.17234 0.0
H527 H 0.02917 0.79152 0.19123 0.0
H528 H 0.1434 0.10828 0.43661 0.0
H529 H 0.19941 0.12204 0.45205 0.0
H530 H 0.16896 0.99747 0.44843 0.0
H531 H 0.11302 0.98333 0.43305 0.0
H532 H 0.18475 0.07976 0.47671 0.0
H533 H 0.29421 0.06218 0.44535 0.0
H534 H 0.25673 0.07267 0.43834 0.0
H535 H 0.24264 0.02206 0.44297 0.0
C536 C 0.14911 0.08398 0.43888 0.0
C537 C 0.12356 0.04461 0.43368 0.0
C538 C 0.18112 0.09194 0.4477 0.0
C539 C 0.18852 0.06088 0.45123 0.0
C540 C 0.16416 0.02202 0.44562 0.0
H541 H 0.29785 0.98739 0.50958 0.0
H542 H 0.26756 -0.00022 0.48975 0.0
C543 C 0.13197 0.01392 0.43693 0.0
C544 C 0.21822 0.06739 0.462 0.0
H545 H 0.29914 0.0557 0.46919 0.0
C546 C 0.21033 0.07538 0.47508 0.0
C547 C 0.25136 0.0615 0.45977 0.0
C548 C 0.26206 0.05449 0.44582 0.0
C549 C 0.23313 0.07503 0.48614 0.0
C550 C 0.26529 0.06744 0.48398 0.0
C551 C 0.27442 0.06142 0.47081 0.0
C552 C 0.28716 0.06186 0.49534 0.0
C553 C 0.22097 0.08029 0.50009 0.0
C554 C 0.30899 0.09297 0.50487 0.0
C555 C 0.32592 0.08579 0.51627 0.0
C556 C 0.32178 0.04759 0.5182 0.0
C557 C 0.30139 0.01706 0.50834 0.0
C558 C 0.28425 0.02416 0.49701 0.0
H559 H 0.19054 0.07742 0.50012 0.0
H560 H 0.22067 0.05756 0.507 0.0
H561 H 0.24326 0.11083 0.50412 0.0
H562 H 0.31221 0.1225 0.50363 0.0
H563 H 0.34165 0.10987 0.52369 0.0
H564 H 0.13794 0.12253 0.76704 0.0
H565 H 0.1943 0.17268 0.78132 0.0
H566 H 0.11352 0.20514 0.80036 0.0
H567 H 0.05743 0.15573 0.78623 0.0
H568 H 0.19175 0.26819 0.78433 0.0
H569 H 0.212 0.18428 0.82624 0.0
H570 H 0.2001 0.16344 0.80931 0.0
H571 H 0.1623 0.16661 0.81888 0.0
C572 C 0.13207 0.1398 0.77446 0.0
C573 C 0.09338 0.1356 0.77539 0.0
C574 C 0.16422 0.16828 0.78261 0.0
C575 C 0.1578 0.19233 0.79186 0.0
C576 C 0.11886 0.18665 0.79328 0.0
H577 H 0.2644 0.38545 0.84803 0.0
H578 H 0.2272 0.31961 0.83636 0.0
C579 C 0.08694 0.15858 0.78514 0.0
C580 C 0.19202 0.22715 0.79883 0.0
H581 H 0.24842 0.25584 0.82792 0.0
C582 C 0.20483 0.2656 0.79372 0.0
C583 C 0.20847 0.22327 0.81109 0.0
C584 C 0.19525 0.18225 0.8168 0.0
C585 C 0.23258 0.30063 0.80087 0.0
C586 C 0.24823 0.29695 0.81337 0.0
C587 C 0.23645 0.2584 0.81829 0.0
C588 C 0.27399 0.33312 0.82185 0.0
C589 C 0.24337 0.34136 0.79534 0.0
C590 C 0.31295 0.36188 0.81772 0.0
C591 C 0.33418 0.39943 0.82434 0.0
C592 C 0.31691 0.40864 0.83526 0.0
C593 C 0.27862 0.37896 0.83976 0.0
C594 C 0.25744 0.34139 0.83313 0.0
H595 H 0.22395 0.33868 0.78655 0.0
H596 H 0.24032 0.36043 0.80322 0.0
H597 H 0.2754 0.35721 0.79211 0.0
H598 H 0.32609 0.35597 0.809 0.0
H599 H 0.36344 0.4219 0.8206 0.0
H600 H 0.95805 0.09879 0.72779 0.0
H601 H 0.91105 0.10071 0.71124 0.0
H602 H 0.89434 0.9912 0.69245 0.0
H603 H 0.94111 0.98886 0.70891 0.0
H604 H 0.92063 0.07557 0.67613 0.0
H605 H 0.77968 0.00337 0.70629 0.0
H606 H 0.82801 0.0385 0.71408 0.0
H607 H 0.81811 0.98958 0.70859 0.0
C608 C 0.94412 0.07495 0.72019 0.0
C609 C 0.95326 0.04368 0.71961 0.0
C610 C 0.9174 0.07617 0.71077 0.0
C611 C 0.89952 0.04615 0.70069 0.0
C612 C 0.90805 0.01461 0.70019 0.0
H613 H 0.68667 0.94943 0.64136 0.0
H614 H 0.7482 0.96424 0.66135 0.0
C615 C 0.93465 0.0133 0.70961 0.0
C616 C 0.87256 0.04789 0.69039 0.0
H617 H 0.77351 0.0175 0.68371 0.0
C618 C 0.88853 0.06341 0.67778 0.0
C619 C 0.83087 0.03174 0.69267 0.0
C620 C 0.81279 0.01476 0.70612 0.0
C621 C 0.86343 0.06212 0.66717 0.0
C622 C 0.8215 0.04531 0.66939 0.0
C623 C 0.80575 0.03053 0.6821 0.0
C624 C 0.79271 0.03953 0.65849 0.0
C625 C 0.88181 0.07689 0.65357 0.0
C626 C 0.80054 0.08168 0.64835 0.0
C627 C 0.76479 0.07489 0.6352 0.0
C628 C 0.71697 0.02484 0.63514 0.0
C629 C 0.71362 0.97893 0.6425 0.0
C630 C 0.75097 0.98888 0.65536 0.0
H631 H 0.91115 0.07768 0.6526 0.0
H632 H 0.86108 0.05745 0.64532 0.0
H633 H 0.88776 0.10815 0.65226 0.0
H634 H 0.82639 0.11143 0.65032 0.0
H635 H 0.76725 0.10042 0.62984 0.0
H636 H 0.96863 0.96535 0.05252 0.0
H637 H 0.92737 0.9113 0.03628 0.0
H638 H 0.81928 0.90567 0.05159 0.0
H639 H 0.86091 0.96172 0.06727 0.0
H640 H 0.87107 0.83695 0.03732 0.0
H641 H 0.80482 0.92067 0.01311 0.0
H642 H 0.84481 0.94382 0.02563 0.0
H643 H 0.79295 0.91205 0.03058 0.0
C644 C 0.93603 0.95241 0.05246 0.0
C645 C 0.91794 0.96796 0.06102 0.0
C646 C 0.91245 0.92152 0.04317 0.0
C647 C 0.87024 0.90508 0.04243 0.0
C648 C 0.85188 0.91888 0.05159 0.0
H649 H 0.72891 0.68815 0.99149 0.0
H650 H 0.75599 0.73405 0.01095 0.0
C651 C 0.87561 0.9506 0.06064 0.0
C652 C 0.846 0.87422 0.03186 0.0
H653 H 0.77975 0.8533 0.00558 0.0
C654 C 0.85109 0.84054 0.03038 0.0
C655 C 0.82032 0.87916 0.02267 0.0
C656 C 0.81568 0.91607 0.02297 0.0
C657 C 0.832 0.81216 0.01985 0.0
C658 C 0.80547 0.81652 0.0109 0.0
C659 C 0.79974 0.84975 0.01253 0.0
C660 C 0.7855 0.78854 0.99924 0.0
C661 C 0.84206 0.77898 0.0181 0.0
C662 C 0.79104 0.80396 0.9862 0.0
C663 C 0.77442 0.77786 0.97507 0.0
C664 C 0.75213 0.73578 0.97673 0.0
C665 C 0.74574 0.7204 0.98982 0.0
C666 C 0.76169 0.74661 0.00098 0.0
H667 H 0.87114 0.78681 0.02323 0.0
H668 H 0.81784 0.75085 0.02261 0.0
H669 H 0.84428 0.77278 0.00731 0.0
H670 H 0.80917 0.83621 0.9846 0.0
H671 H 0.77998 0.79047 0.9651 0.0
H672 H 0.09234 0.03279 0.37229 0.0
H673 H 0.08796 0.97899 0.35745 0.0
H674 H 0.99405 0.8893 0.3821 0.0
H675 H 0.99753 0.94266 0.39672 0.0
H676 H 0.09734 0.9128 0.3618 0.0
H677 H 0.94053 0.86369 0.34497 0.0
H678 H 0.97179 0.91067 0.35407 0.0
H679 H 0.9451 0.86383 0.36294 0.0
C680 C 0.07088 0.00156 0.37455 0.0
C681 C 0.04488 0.99188 0.38554 0.0
C682 C 0.06845 0.97093 0.36608 0.0
C683 C 0.04003 0.93028 0.36852 0.0
C684 C 0.01542 0.92056 0.37985 0.0
H685 H 0.01772 0.70653 0.34311 0.0
H686 H 0.03898 0.77287 0.35323 0.0
C687 C 0.01759 0.95107 0.38823 0.0
C688 C 0.03524 0.89779 0.35914 0.0
H689 H 0.96386 0.81726 0.34067 0.0
C690 C 0.06833 0.89214 0.35702 0.0
C691 C 0.99767 0.87156 0.35264 0.0
C692 C 0.96189 0.87797 0.35364 0.0
C693 C 0.06421 0.85956 0.34912 0.0
C694 C 0.02574 0.83151 0.34349 0.0
C695 C 0.99327 0.83845 0.34509 0.0
C696 C 0.01748 0.79345 0.3366 0.0
C697 C 0.10108 0.8556 0.34692 0.0
C698 C 0.99764 0.78253 0.32399 0.0
C699 C 0.98467 0.74427 0.31833 0.0
C700 C 0.99191 0.71641 0.3251 0.0
C701 C 0.01259 0.72776 0.33756 0.0
C702 C 0.02504 0.76579 0.3433 0.0
H703 H 0.12934 0.8856 0.34752 0.0
H704 H 0.103 0.83667 0.35492 0.0
H705 H 0.09958 0.84123 0.33701 0.0
H706 H 0.99105 0.8032 0.31871 0.0
H707 H 0.96807 0.73616 0.30885 0.0
H708 H 0.14401 0.10129 0.72062 0.0
H709 H 0.19433 0.09459 0.70761 0.0
H710 H 0.1454 0.97244 0.72133 0.0
H711 H 0.09568 0.97941 0.73473 0.0
H712 H 0.22697 0.01231 0.72132 0.0
H713 H 0.16992 0.03291 0.6724 0.0
H714 H 0.18424 0.07466 0.68385 0.0
H715 H 0.14264 0.02542 0.68781 0.0
C716 C 0.14416 0.07309 0.72095 0.0
C717 C 0.11575 0.04076 0.72862 0.0
C718 C 0.1727 0.06919 0.71341 0.0
C719 C 0.17289 0.03263 0.71319 0.0
C720 C 0.14554 0.00081 0.72125 0.0
H721 H 0.29768 0.96762 0.65351 0.0
H722 H 0.24646 0.97147 0.66715 0.0
C723 C 0.11724 0.00486 0.72893 0.0
C724 C 0.20159 0.02765 0.70455 0.0
H725 H 0.23341 0.03503 0.67217 0.0
C726 C 0.22823 0.01707 0.71056 0.0
C727 C 0.2027 0.03309 0.69046 0.0
C728 C 0.17306 0.04172 0.68322 0.0
C729 C 0.25669 0.01287 0.70294 0.0
C730 C 0.25917 0.02037 0.68899 0.0
C731 C 0.23182 0.02985 0.6829 0.0
C732 C 0.29009 0.01872 0.68054 0.0
C733 C 0.28347 -8e-05 0.70988 0.0
C734 C 0.3315 0.04455 0.68339 0.0
C735 C 0.36067 0.0424 0.67564 0.0
C736 C 0.349 0.01482 0.66475 0.0
C737 C 0.30749 0.98946 0.66175 0.0
C738 C 0.27828 0.99156 0.66955 0.0
H739 H 0.27017 0.98436 0.71945 0.0
H740 H 0.28861 0.97932 0.70332 0.0
H741 H 0.31331 0.02704 0.71232 0.0
H742 H 0.34128 0.06629 0.69166 0.0
H743 H 0.39242 0.06207 0.67823 0.0
H744 H 0.03326 0.13032 0.03971 0.0
H745 H 0.08365 0.17356 0.0235 0.0
H746 H 0.17948 0.19583 0.05177 0.0
H747 H 0.12875 0.15031 0.06774 0.0
H748 H 0.13193 0.2499 0.02624 0.0
H749 H 0.22649 0.17959 0.01837 0.0
H750 H 0.17881 0.15411 0.02696 0.0
H751 H 0.22406 0.19154 0.0357 0.0
C752 C 0.06513 0.14392 0.04235 0.0
C753 C 0.07725 0.13719 0.05494 0.0
C754 C 0.09391 0.16863 0.0331 0.0
C755 C 0.13548 0.1879 0.03634 0.0
C756 C 0.14772 0.18059 0.04886 0.0
H757 H 0.29819 0.40674 0.99315 0.0
H758 H 0.26051 0.35876 0.01075 0.0
C759 C 0.11877 0.15486 0.05803 0.0
C760 C 0.16513 0.21818 0.027 0.0
H761 H 0.2512 0.24518 0.00936 0.0
C762 C 0.1579 0.24867 0.02252 0.0
C763 C 0.19898 0.21658 0.02209 0.0
C764 C 0.20738 0.18347 0.02592 0.0
C765 C 0.18296 0.27709 0.01315 0.0
C766 C 0.21746 0.27628 0.00853 0.0
C767 C 0.22502 0.24605 0.01305 0.0
C768 C 0.24478 0.30551 0.99853 0.0
C769 C 0.17123 0.30674 0.00793 0.0
C770 C 0.25017 0.29158 0.98604 0.0
C771 C 0.27254 0.319 0.97606 0.0
C772 C 0.29008 0.36085 0.9784 0.0
C773 C 0.28552 0.37475 0.99106 0.0
C774 C 0.26364 0.34733 0.00109 0.0
H775 H 0.13861 0.296 0.00951 0.0
H776 H 0.18914 0.33609 0.01341 0.0
H777 H 0.17738 0.31194 0.99703 0.0
H778 H 0.23585 0.25944 0.98384 0.0
H779 H 0.27518 0.30749 0.96635 0.0
H780 H 0.11055 0.20032 0.3963 0.0
H781 H 0.11481 0.25306 0.38141 0.0
H782 H 0.98808 0.17763 0.37097 0.0
H783 H 0.98366 0.12499 0.38564 0.0
H784 H 0.09431 0.23601 0.35283 0.0
H785 H 0.00276 0.29155 0.37832 0.0
H786 H 0.02561 0.26689 0.38718 0.0
H787 H 0.97923 0.23739 0.37769 0.0
C788 C 0.08343 0.19548 0.39106 0.0
C789 C 0.04679 0.15858 0.39208 0.0
C790 C 0.08595 0.22551 0.38256 0.0
C791 C 0.05167 0.21929 0.37522 0.0
C792 C 0.0147 0.18323 0.37672 0.0
H793 H 0.94828 0.30329 0.30938 0.0
H794 H 0.96725 0.26678 0.33141 0.0
C795 C 0.01229 0.15312 0.38505 0.0
C796 C 0.05487 0.24803 0.36485 0.0
H797 H 0.0119 0.30276 0.35462 0.0
C798 C 0.07711 0.25148 0.3533 0.0
C799 C 0.03208 0.26772 0.36551 0.0
C800 C 0.00883 0.26608 0.37789 0.0
C801 C 0.07505 0.272 0.34199 0.0
C802 C 0.05097 0.29041 0.34248 0.0
C803 C 0.03027 0.28853 0.35427 0.0
C804 C 0.0436 0.30858 0.33062 0.0
C805 C 0.09639 0.27118 0.32939 0.0
C806 C 0.08552 0.34628 0.3211 0.0
C807 C 0.07651 0.36926 0.30678 0.0
C808 C 0.02305 0.35752 0.30475 0.0
C809 C 0.97927 0.31147 0.31164 0.0
C810 C 0.99146 0.29042 0.32574 0.0
H811 H 0.10295 0.24602 0.32942 0.0
H812 H 0.07806 0.26787 0.32023 0.0
H813 H 0.12577 0.29991 0.32881 0.0
H814 H 0.11634 0.35586 0.32413 0.0
H815 H 0.10129 0.39418 0.30171 0.0
loop_
_geom_bond_atom_site_label_1
_geom_bond_atom_site_label_2
_geom_bond_distance
_geom_bond_site_symmetry_2
_ccdc_geom_bond_type
Co0 O1 2.217 1_545 S
Co0 O2 2.091 . S
Co0 O4 2.004 . S
Co0 O10 2.021 . S
Co0 O12 2.137 . S
Co0 O13 2.244 . S
O1 Co0 2.217 1_565 S
O1 C8 1.250 . S
O2 Co0 2.091 . S
O2 C8 1.261 1_545 S
C3 O12 1.247 . S
C3 O13 1.272 . S
O4 Co0 2.004 . S
O4 C9 1.259 . S
Co5 O6 2.061 1_655 S
Co5 O11 2.052 . S
Co5 O13 2.135 1_655 S
O6 Co5 2.061 1_455 S
O6 C9 1.235 . S
C7 O10 1.238 1_655 S
C7 O11 1.241 . S
C8 O1 1.250 . S
C8 O2 1.261 1_565 S
C9 O4 1.259 . S
C9 O6 1.235 . S
O10 Co0 2.021 . S
O10 C7 1.238 1_455 S
O11 Co5 2.052 . S
O11 C7 1.241 . S
O12 Co0 2.137 . S
O12 C3 1.247 . S
O13 Co0 2.244 . S
O13 C3 1.272 . S
O13 Co5 2.135 1_455 S
Co14 O15 2.216 . S
Co14 O16 2.091 . S
Co14 O18 2.004 . S
Co14 O24 2.021 . S
Co14 O26 2.137 . S
Co14 O27 2.244 . S
O15 Co14 2.216 . S
O15 C22 1.247 . S
O16 Co14 2.091 . S
O16 C22 1.261 . S
C17 O26 1.247 . S
C17 O27 1.272 . S
O18 Co14 2.004 . S
O18 C23 1.259 . S
Co19 O20 2.061 1_565 S
Co19 O25 2.052 1_465 S
Co19 O27 2.135 1_565 S
O20 Co19 2.061 1_545 S
O20 C23 1.235 . S
C21 O24 1.238 1_655 S
C21 O25 1.241 . S
C22 O15 1.247 . S
C22 O16 1.261 . S
C23 O18 1.259 . S
C23 O20 1.235 . S
O24 Co14 2.021 . S
O24 C21 1.238 1_455 S
O25 Co19 2.052 1_645 S
O25 C21 1.241 . S
O26 Co14 2.137 . S
O26 C17 1.247 . S
O27 Co14 2.244 . S
O27 C17 1.272 . S
O27 Co19 2.135 1_545 S
Co28 O29 2.216 . S
Co28 O30 2.091 . S
Co28 O32 2.004 1_445 S
Co28 O38 2.021 . S
Co28 O40 2.137 1_455 S
Co28 O41 2.244 1_455 S
O29 Co28 2.216 . S
O29 C36 1.247 . S
O30 Co28 2.091 . S
O30 C36 1.261 . S
C31 O40 1.247 . S
C31 O41 1.272 . S
O32 Co28 2.004 1_665 S
O32 C37 1.259 . S
Co33 O34 2.061 . S
Co33 O39 2.052 1_655 S
Co33 O41 2.135 . S
O34 Co33 2.061 . S
O34 C37 1.235 1_545 S
C35 O38 1.238 . S
C35 O39 1.241 . S
C36 O29 1.247 . S
C36 O30 1.261 . S
C37 O32 1.259 . S
C37 O34 1.235 1_565 S
O38 Co28 2.021 . S
O38 C35 1.238 . S
O39 Co33 2.052 1_455 S
O39 C35 1.241 . S
O40 Co28 2.137 1_655 S
O40 C31 1.247 . S
O41 Co28 2.244 1_655 S
O41 C31 1.272 . S
O41 Co33 2.135 . S
C42 C43 1.560 1_655 S
C42 H103 0.959 . S
C42 H104 0.959 . S
C42 H105 0.960 . S
C43 C42 1.560 1_455 S
C43 O98 1.426 1_455 S
C43 H102 0.980 . S
C44 C45 1.407 . S
C44 C49 1.418 1_455 S
C44 O98 1.334 1_455 S
C45 C44 1.407 . S
C45 C46 1.360 . S
C45 H106 0.929 . S
C46 C45 1.360 . S
C46 C47 1.401 . S
C46 C50 1.527 . S
C47 C46 1.401 . S
C47 C48 1.405 1_455 S
C47 C80 1.587 . S
C48 C47 1.405 1_655 S
C48 C49 1.332 . S
C48 C51 1.496 . S
C49 C44 1.418 1_655 S
C49 C48 1.332 . S
C49 H107 0.929 . S
C50 C46 1.527 . S
C50 H108 0.959 . S
C50 H109 0.961 . S
C50 H110 0.961 . S
C51 C48 1.496 . S
C51 H111 0.960 . S
C51 H112 0.960 . S
C51 H113 0.961 . S
C52 C53 1.517 . S
C52 H115 0.961 . S
C52 H116 0.960 . S
C52 H117 0.959 . S
C53 C52 1.517 . S
C53 O101 1.468 . S
C53 H114 0.980 . S
C54 C55 1.349 . S
C54 C59 1.367 . S
C54 O101 1.408 . S
C55 C54 1.349 . S
C55 C56 1.407 . S
C55 H118 0.930 . S
C56 C55 1.407 . S
C56 C57 1.449 . S
C56 C60 1.535 1_455 S
C57 C56 1.449 . S
C57 C58 1.384 . S
C57 C82 1.553 . S
C58 C57 1.384 . S
C58 C59 1.364 . S
C58 C61 1.450 . S
C59 C54 1.367 . S
C59 C58 1.364 . S
C59 H119 0.931 . S
C60 C56 1.535 1_655 S
C60 H120 0.959 . S
C60 H121 0.961 . S
C60 H122 0.959 . S
C61 C58 1.450 . S
C61 H123 0.960 . S
C61 H124 0.960 . S
C61 H125 0.960 . S
C62 C63 1.309 . S
C62 C67 1.304 . S
C62 O100 1.435 . S
C63 C62 1.309 . S
C63 C64 1.476 . S
C63 H127 0.930 1_455 S
C64 C63 1.476 . S
C64 C65 1.400 . S
C64 C68 1.567 1_455 S
C65 C64 1.400 . S
C65 C66 1.373 . S
C65 C87 1.432 . S
C66 C65 1.373 . S
C66 C67 1.339 . S
C66 C69 1.530 . S
C67 C62 1.304 . S
C67 C66 1.339 . S
C67 H128 0.930 . S
C68 C64 1.567 1_655 S
C68 H129 0.961 . S
C68 H130 0.960 . S
C68 H131 0.958 . S
C69 C66 1.530 . S
C69 H132 0.961 . S
C69 H133 0.960 . S
C69 H134 0.960 . S
C70 C71 1.530 1_655 S
C70 H136 0.962 . S
C70 H137 0.961 . S
C70 H138 0.959 . S
C71 C70 1.530 1_455 S
C71 O99 1.412 1_455 S
C71 H135 0.980 . S
C72 C73 1.288 . S
C72 C77 1.377 1_655 S
C72 O99 1.393 . S
C73 C72 1.288 . S
C73 C74 1.369 . S
C73 H139 0.932 . S
C74 C73 1.369 . S
C74 C75 1.398 1_655 S
C74 C78 1.527 . S
C75 C74 1.398 1_455 S
C75 C76 1.380 . S
C75 C89 1.497 . S
C76 C75 1.380 . S
C76 C77 1.383 . S
C76 C79 1.603 . S
C77 C72 1.377 1_455 S
C77 C76 1.383 . S
C77 H140 0.929 . S
C78 C74 1.527 . S
C78 H141 0.961 . S
C78 H142 0.959 . S
C78 H143 0.959 . S
C79 C76 1.603 . S
C79 H144 0.960 . S
C79 H145 0.962 . S
C79 H146 0.961 . S
C80 C47 1.587 . S
C80 C81 1.360 . S
C80 C93 1.412 . S
C81 C80 1.360 . S
C81 C82 1.365 . S
C81 H147 0.929 . S
C82 C57 1.553 . S
C82 C81 1.365 . S
C82 C83 1.404 . S
C83 C82 1.404 . S
C83 C84 1.395 . S
C83 C94 1.451 . S
C84 C83 1.395 . S
C84 C85 1.322 . S
C84 H148 0.930 . S
C85 C84 1.322 . S
C85 C86 1.459 . S
C85 H149 0.929 . S
C86 C85 1.459 . S
C86 C87 1.445 . S
C86 C95 1.395 . S
C87 C65 1.432 . S
C87 C86 1.445 . S
C87 C88 1.370 . S
C88 C87 1.370 . S
C88 C89 1.438 . S
C88 H150 0.930 . S
C89 C75 1.497 . S
C89 C88 1.438 . S
C89 C90 1.360 . S
C90 C89 1.360 . S
C90 C91 1.401 . S
C90 C95 1.446 . S
C91 C90 1.401 . S
C91 C92 1.347 . S
C91 H151 0.929 . S
C92 C91 1.347 . S
C92 C93 1.455 . S
C92 H152 0.930 . S
C93 C80 1.412 . S
C93 C92 1.455 . S
C93 C94 1.331 . S
C94 C83 1.451 . S
C94 C93 1.331 . S
C94 C95 1.497 . S
C95 C86 1.395 . S
C95 C90 1.446 . S
C95 C94 1.497 . S
C96 C97 1.582 . S
C96 H153 0.962 . S
C96 H154 0.959 . S
C96 H155 0.958 . S
C97 C96 1.582 . S
C97 O100 1.458 . S
C97 H126 0.980 . S
O98 C43 1.426 1_655 S
O98 C44 1.334 1_655 S
O99 C71 1.412 1_655 S
O99 C72 1.393 . S
O100 C62 1.435 . S
O100 C97 1.458 . S
O101 C53 1.468 . S
O101 C54 1.408 . S
H102 C43 0.980 . S
H103 C42 0.959 . S
H104 C42 0.959 . S
H105 C42 0.960 . S
H106 C45 0.929 . S
H107 C49 0.929 . S
H108 C50 0.959 . S
H109 C50 0.961 . S
H110 C50 0.961 . S
H111 C51 0.960 . S
H112 C51 0.960 . S
H113 C51 0.961 . S
H114 C53 0.980 . S
H115 C52 0.961 . S
H116 C52 0.960 . S
H117 C52 0.959 . S
H118 C55 0.930 . S
H119 C59 0.931 . S
H120 C60 0.959 . S
H121 C60 0.961 . S
H122 C60 0.959 . S
H123 C61 0.960 . S
H124 C61 0.960 . S
H125 C61 0.960 . S
H126 C97 0.980 . S
H127 C63 0.930 1_655 S
H128 C67 0.930 . S
H129 C68 0.961 . S
H130 C68 0.960 . S
H131 C68 0.958 . S
H132 C69 0.961 . S
H133 C69 0.960 . S
H134 C69 0.960 . S
H135 C71 0.980 . S
H136 C70 0.962 . S
H137 C70 0.961 . S
H138 C70 0.959 . S
H139 C73 0.932 . S
H140 C77 0.929 . S
H141 C78 0.961 . S
H142 C78 0.959 . S
H143 C78 0.959 . S
H144 C79 0.960 . S
H145 C79 0.962 . S
H146 C79 0.961 . S
H147 C81 0.929 . S
H148 C84 0.930 . S
H149 C85 0.929 . S
H150 C88 0.930 . S
H151 C91 0.929 . S
H152 C92 0.930 . S
H153 C96 0.962 . S
H154 C96 0.959 . S
H155 C96 0.958 . S
C156 C157 1.560 1_565 S
C156 H217 0.959 . S
C156 H218 0.959 . S
C156 H219 0.960 1_565 S
C157 C156 1.560 1_545 S
C157 O212 1.426 . S
C157 H216 0.980 . S
C158 C159 1.407 . S
C158 C163 1.418 1_545 S
C158 O212 1.334 . S
C159 C158 1.407 . S
C159 C160 1.360 . S
C159 H220 0.929 . S
C160 C159 1.360 . S
C160 C161 1.401 . S
C160 C164 1.527 . S
C161 C160 1.401 . S
C161 C162 1.405 . S
C161 C194 1.587 . S
C162 C161 1.405 . S
C162 C163 1.332 1_545 S
C162 C165 1.496 1_545 S
C163 C158 1.418 1_565 S
C163 C162 1.332 1_565 S
C163 H221 0.929 . S
C164 C160 1.527 . S
C164 H222 0.959 . S
C164 H223 0.961 . S
C164 H224 0.961 . S
C165 C162 1.496 1_565 S
C165 H225 0.960 . S
C165 H226 0.960 . S
C165 H227 0.961 . S
C166 C167 1.517 . S
C166 H229 0.961 . S
C166 H230 0.960 . S
C166 H231 0.959 . S
C167 C166 1.517 . S
C167 O215 1.468 . S
C167 H228 0.980 . S
C168 C169 1.349 . S
C168 C173 1.367 . S
C168 O215 1.408 . S
C169 C168 1.349 . S
C169 C170 1.407 . S
C169 H232 0.930 . S
C170 C169 1.407 . S
C170 C171 1.449 . S
C170 C174 1.535 . S
C171 C170 1.449 . S
C171 C172 1.384 . S
C171 C196 1.553 . S
C172 C171 1.384 . S
C172 C173 1.364 . S
C172 C175 1.450 . S
C173 C168 1.367 . S
C173 C172 1.364 . S
C173 H233 0.931 . S
C174 C170 1.535 . S
C174 H234 0.959 . S
C174 H235 0.961 1_545 S
C174 H236 0.959 1_545 S
C175 C172 1.450 . S
C175 H237 0.960 . S
C175 H238 0.960 . S
C175 H239 0.960 . S
C176 C177 1.309 . S
C176 C181 1.304 . S
C176 O214 1.435 . S
C177 C176 1.309 . S
C177 C178 1.476 . S
C177 H241 0.930 . S
C178 C177 1.476 . S
C178 C179 1.400 . S
C178 C182 1.567 . S
C179 C178 1.400 . S
C179 C180 1.373 . S
C179 C201 1.432 . S
C180 C179 1.373 . S
C180 C181 1.339 . S
C180 C183 1.530 . S
C181 C176 1.304 . S
C181 C180 1.339 . S
C181 H242 0.930 . S
C182 C178 1.567 . S
C182 H243 0.961 . S
C182 H244 0.960 1_545 S
C182 H245 0.958 1_545 S
C183 C180 1.530 . S
C183 H246 0.961 . S
C183 H247 0.960 . S
C183 H248 0.960 . S
C184 C185 1.530 . S
C184 H250 0.961 . S
C184 H251 0.961 . S
C184 H252 0.959 . S
C185 C184 1.530 . S
C185 O213 1.412 . S
C185 H249 0.980 . S
C186 C187 1.288 . S
C186 C191 1.377 . S
C186 O213 1.393 . S
C187 C186 1.288 . S
C187 C188 1.369 . S
C187 H253 0.932 1_545 S
C188 C187 1.369 . S
C188 C189 1.398 . S
C188 C192 1.527 1_545 S
C189 C188 1.398 . S
C189 C190 1.380 . S
C189 C203 1.497 . S
C190 C189 1.380 . S
C190 C191 1.383 . S
C190 C193 1.603 . S
C191 C186 1.377 . S
C191 C190 1.383 . S
C191 H254 0.929 . S
C192 C188 1.527 1_565 S
C192 H255 0.961 . S
C192 H256 0.959 . S
C192 H257 0.959 . S
C193 C190 1.603 . S
C193 H258 0.960 . S
C193 H259 0.962 . S
C193 H260 0.961 . S
C194 C161 1.587 . S
C194 C195 1.360 . S
C194 C207 1.412 . S
C195 C194 1.360 . S
C195 C196 1.365 . S
C195 H261 0.929 . S
C196 C171 1.553 . S
C196 C195 1.365 . S
C196 C197 1.404 . S
C197 C196 1.404 . S
C197 C198 1.395 . S
C197 C208 1.451 . S
C198 C197 1.395 . S
C198 C199 1.322 . S
C198 H262 0.930 . S
C199 C198 1.322 . S
C199 C200 1.459 . S
C199 H263 0.929 . S
C200 C199 1.459 . S
C200 C201 1.445 . S
C200 C209 1.395 . S
C201 C179 1.432 . S
C201 C200 1.445 . S
C201 C202 1.370 . S
C202 C201 1.370 . S
C202 C203 1.438 . S
C202 H264 0.930 . S
C203 C189 1.497 . S
C203 C202 1.438 . S
C203 C204 1.360 . S
C204 C203 1.360 . S
C204 C205 1.401 . S
C204 C209 1.446 . S
C205 C204 1.401 . S
C205 C206 1.347 . S
C205 H265 0.929 . S
C206 C205 1.347 . S
C206 C207 1.455 . S
C206 H266 0.930 . S
C207 C194 1.412 . S
C207 C206 1.455 . S
C207 C208 1.331 . S
C208 C197 1.451 . S
C208 C207 1.331 . S
C208 C209 1.497 . S
C209 C200 1.395 . S
C209 C204 1.446 . S
C209 C208 1.497 . S
C210 C211 1.582 . S
C210 H267 0.962 . S
C210 H268 0.959 . S
C210 H269 0.958 . S
C211 C210 1.582 . S
C211 O214 1.458 . S
C211 H240 0.980 . S
O212 C157 1.426 . S
O212 C158 1.334 . S
O213 C185 1.412 . S
O213 C186 1.393 . S
O214 C176 1.435 . S
O214 C211 1.458 . S
O215 C167 1.468 . S
O215 C168 1.408 . S
H216 C157 0.980 . S
H217 C156 0.959 . S
H218 C156 0.959 . S
H219 C156 0.960 1_545 S
H220 C159 0.929 . S
H221 C163 0.929 . S
H222 C164 0.959 . S
H223 C164 0.961 . S
H224 C164 0.961 . S
H225 C165 0.960 . S
H226 C165 0.960 . S
H227 C165 0.961 . S
H228 C167 0.980 . S
H229 C166 0.961 . S
H230 C166 0.960 . S
H231 C166 0.959 . S
H232 C169 0.930 . S
H233 C173 0.931 . S
H234 C174 0.959 . S
H235 C174 0.961 1_565 S
H236 C174 0.959 1_565 S
H237 C175 0.960 . S
H238 C175 0.960 . S
H239 C175 0.960 . S
H240 C211 0.980 . S
H241 C177 0.930 . S
H242 C181 0.930 . S
H243 C182 0.961 . S
H244 C182 0.960 1_565 S
H245 C182 0.958 1_565 S
H246 C183 0.961 . S
H247 C183 0.960 . S
H248 C183 0.960 . S
H249 C185 0.980 . S
H250 C184 0.961 . S
H251 C184 0.961 . S
H252 C184 0.959 . S
H253 C187 0.932 1_565 S
H254 C191 0.929 . S
H255 C192 0.961 . S
H256 C192 0.959 . S
H257 C192 0.959 . S
H258 C193 0.960 . S
H259 C193 0.962 . S
H260 C193 0.961 . S
H261 C195 0.929 . S
H262 C198 0.930 . S
H263 C199 0.929 . S
H264 C202 0.930 . S
H265 C205 0.929 . S
H266 C206 0.930 . S
H267 C210 0.962 . S
H268 C210 0.959 . S
H269 C210 0.958 . S
C270 C271 1.560 . S
C270 H331 0.959 . S
C270 H332 0.959 . S
C270 H333 0.960 . S
C271 C270 1.560 . S
C271 O326 1.426 . S
C271 H330 0.980 . S
C272 C273 1.407 . S
C272 C277 1.418 . S
C272 O326 1.334 . S
C273 C272 1.407 . S
C273 C274 1.360 . S
C273 H334 0.929 . S
C274 C273 1.360 . S
C274 C275 1.401 . S
C274 C278 1.527 . S
C275 C274 1.401 . S
C275 C276 1.405 . S
C275 C308 1.587 . S
C276 C275 1.405 . S
C276 C277 1.332 . S
C276 C279 1.496 . S
C277 C272 1.418 . S
C277 C276 1.332 . S
C277 H335 0.929 . S
C278 C274 1.527 . S
C278 H336 0.959 . S
C278 H337 0.961 . S
C278 H338 0.961 . S
C279 C276 1.496 . S
C279 H339 0.960 . S
C279 H340 0.960 . S
C279 H341 0.961 . S
C280 C281 1.517 . S
C280 H343 0.961 . S
C280 H344 0.960 . S
C280 H345 0.959 . S
C281 C280 1.517 . S
C281 O329 1.468 . S
C281 H342 0.980 . S
C282 C283 1.349 . S
C282 C287 1.367 . S
C282 O329 1.408 . S
C283 C282 1.349 . S
C283 C284 1.407 . S
C283 H346 0.930 . S
C284 C283 1.407 . S
C284 C285 1.449 . S
C284 C288 1.535 . S
C285 C284 1.449 . S
C285 C286 1.384 . S
C285 C310 1.553 . S
C286 C285 1.384 . S
C286 C287 1.364 . S
C286 C289 1.450 . S
C287 C282 1.367 . S
C287 C286 1.364 . S
C287 H347 0.931 . S
C288 C284 1.535 . S
C288 H348 0.959 . S
C288 H349 0.961 . S
C288 H350 0.959 . S
C289 C286 1.450 . S
C289 H351 0.960 . S
C289 H352 0.960 . S
C289 H353 0.960 . S
C290 C291 1.309 . S
C290 C295 1.304 . S
C290 O328 1.435 . S
C291 C290 1.309 . S
C291 C292 1.476 . S
C291 H355 0.930 . S
C292 C291 1.476 . S
C292 C293 1.400 . S
C292 C296 1.567 . S
C293 C292 1.400 . S
C293 C294 1.373 . S
C293 C315 1.432 . S
C294 C293 1.373 . S
C294 C295 1.339 . S
C294 C297 1.530 . S
C295 C290 1.304 . S
C295 C294 1.339 . S
C295 H356 0.930 . S
C296 C292 1.567 . S
C296 H357 0.961 . S
C296 H358 0.960 . S
C296 H359 0.958 . S
C297 C294 1.530 . S
C297 H360 0.961 . S
C297 H361 0.960 . S
C297 H362 0.960 . S
C298 C299 1.530 . S
C298 H364 0.961 . S
C298 H365 0.961 . S
C298 H366 0.959 . S
C299 C298 1.530 . S
C299 O327 1.412 . S
C299 H363 0.980 . S
C300 C301 1.288 . S
C300 C305 1.377 . S
C300 O327 1.393 . S
C301 C300 1.288 . S
C301 C302 1.369 . S
C301 H367 0.932 . S
C302 C301 1.369 . S
C302 C303 1.398 . S
C302 C306 1.527 . S
C303 C302 1.398 . S
C303 C304 1.380 . S
C303 C317 1.497 . S
C304 C303 1.380 . S
C304 C305 1.383 . S
C304 C307 1.603 . S
C305 C300 1.377 . S
C305 C304 1.383 . S
C305 H368 0.929 . S
C306 C302 1.527 . S
C306 H369 0.961 . S
C306 H370 0.959 . S
C306 H371 0.959 . S
C307 C304 1.603 . S
C307 H372 0.960 . S
C307 H373 0.962 . S
C307 H374 0.961 . S
C308 C275 1.587 . S
C308 C309 1.360 . S
C308 C321 1.412 . S
C309 C308 1.360 . S
C309 C310 1.365 . S
C309 H375 0.929 . S
C310 C285 1.553 . S
C310 C309 1.365 . S
C310 C311 1.404 . S
C311 C310 1.404 . S
C311 C312 1.395 . S
C311 C322 1.451 . S
C312 C311 1.395 . S
C312 C313 1.322 . S
C312 H376 0.930 . S
C313 C312 1.322 . S
C313 C314 1.459 . S
C313 H377 0.929 . S
C314 C313 1.459 . S
C314 C315 1.445 . S
C314 C323 1.395 . S
C315 C293 1.432 . S
C315 C314 1.445 . S
C315 C316 1.370 . S
C316 C315 1.370 . S
C316 C317 1.438 . S
C316 H378 0.930 . S
C317 C303 1.497 . S
C317 C316 1.438 . S
C317 C318 1.360 . S
C318 C317 1.360 . S
C318 C319 1.401 . S
C318 C323 1.446 . S
C319 C318 1.401 . S
C319 C320 1.347 . S
C319 H379 0.929 . S
C320 C319 1.347 . S
C320 C321 1.455 . S
C320 H380 0.930 . S
C321 C308 1.412 . S
C321 C320 1.455 . S
C321 C322 1.331 . S
C322 C311 1.451 . S
C322 C321 1.331 . S
C322 C323 1.497 . S
C323 C314 1.395 . S
C323 C318 1.446 . S
C323 C322 1.497 . S
C324 C325 1.582 . S
C324 H381 0.962 . S
C324 H382 0.959 . S
C324 H383 0.958 . S
C325 C324 1.582 . S
C325 O328 1.458 . S
C325 H354 0.980 . S
O326 C271 1.426 . S
O326 C272 1.334 . S
O327 C299 1.412 . S
O327 C300 1.393 . S
O328 C290 1.435 . S
O328 C325 1.458 . S
O329 C281 1.468 . S
O329 C282 1.408 . S
H330 C271 0.980 . S
H331 C270 0.959 . S
H332 C270 0.959 . S
H333 C270 0.960 . S
H334 C273 0.929 . S
H335 C277 0.929 . S
H336 C278 0.959 . S
H337 C278 0.961 . S
H338 C278 0.961 . S
H339 C279 0.960 . S
H340 C279 0.960 . S
H341 C279 0.961 . S
H342 C281 0.980 . S
H343 C280 0.961 . S
H344 C280 0.960 . S
H345 C280 0.959 . S
H346 C283 0.930 . S
H347 C287 0.931 . S
H348 C288 0.959 . S
H349 C288 0.961 . S
H350 C288 0.959 . S
H351 C289 0.960 . S
H352 C289 0.960 . S
H353 C289 0.960 . S
H354 C325 0.980 . S
H355 C291 0.930 . S
H356 C295 0.930 . S
H357 C296 0.961 . S
H358 C296 0.960 . S
H359 C296 0.958 . S
H360 C297 0.961 . S
H361 C297 0.960 . S
H362 C297 0.960 . S
H363 C299 0.980 . S
H364 C298 0.961 . S
H365 C298 0.961 . S
H366 C298 0.959 . S
H367 C301 0.932 . S
H368 C305 0.929 . S
H369 C306 0.961 . S
H370 C306 0.959 . S
H371 C306 0.959 . S
H372 C307 0.960 . S
H373 C307 0.962 . S
H374 C307 0.961 . S
H375 C309 0.929 . S
H376 C312 0.930 . S
H377 C313 0.929 . S
H378 C316 0.930 . S
H379 C319 0.929 . S
H380 C320 0.930 . S
H381 C324 0.962 . S
H382 C324 0.959 . S
H383 C324 0.958 . S
H384 C392 0.929 . S
H385 C394 0.930 . S
H386 C396 0.930 . S
H387 C399 0.929 . S
H388 C402 0.930 . S
H389 C404 0.960 . S
H390 C404 0.960 . S
H391 C404 0.960 . S
C392 H384 0.929 . S
C392 C393 1.377 . S
C392 C394 1.384 . S
C393 C392 1.377 . S
C393 C399 1.390 1_455 S
C394 H385 0.930 . S
C394 C392 1.384 . S
C394 C395 1.372 . S
C395 C394 1.372 . S
C395 C396 1.400 1_455 S
C395 C400 1.490 . S
C396 H386 0.930 . S
C396 C395 1.400 1_655 S
C396 C399 1.386 . S
H397 C413 0.930 . S
H398 C414 0.931 . S
C399 H387 0.929 . S
C399 C393 1.390 1_655 S
C399 C396 1.386 . S
C400 C395 1.490 . S
C400 C402 1.395 . S
C400 C403 1.403 . S
H401 C407 0.930 . S
C402 H388 0.930 . S
C402 C400 1.395 . S
C402 C405 1.403 . S
C403 C400 1.403 . S
C403 C404 1.524 . S
C403 C407 1.400 . S
C404 H389 0.960 . S
C404 H390 0.960 . S
C404 H391 0.960 . S
C404 C403 1.524 . S
C405 C402 1.403 . S
C405 C406 1.392 . S
C405 C409 1.475 1_455 S
C406 C405 1.392 . S
C406 C407 1.385 . S
C406 C408 1.478 . S
C407 H401 0.930 . S
C407 C403 1.400 . S
C407 C406 1.385 . S
C408 C406 1.478 . S
C408 C410 1.381 . S
C408 C414 1.383 1_455 S
C409 C405 1.475 1_655 S
C409 H415 0.961 . S
C409 H416 0.991 . S
C409 H417 0.950 1_655 S
C410 C408 1.381 . S
C410 C411 1.394 . S
C410 H418 0.930 . S
C411 C410 1.394 . S
C411 C412 1.383 . S
C411 H419 0.929 . S
C412 C411 1.383 . S
C412 C413 1.377 1_455 S
C413 H397 0.930 . S
C413 C412 1.377 1_655 S
C413 C414 1.379 . S
C414 H398 0.931 . S
C414 C408 1.383 1_655 S
C414 C413 1.379 . S
H415 C409 0.961 . S
H416 C409 0.991 . S
H417 C409 0.950 1_455 S
H418 C410 0.930 . S
H419 C411 0.929 . S
H420 C428 0.929 . S
H421 C430 0.930 . S
H422 C432 0.930 . S
H423 C435 0.929 . S
H424 C438 0.930 . S
H425 C440 0.960 . S
H426 C440 0.960 . S
H427 C440 0.960 . S
C428 H420 0.929 . S
C428 C429 1.377 . S
C428 C430 1.384 . S
C429 C428 1.377 . S
C429 C435 1.390 . S
C430 H421 0.930 . S
C430 C428 1.384 . S
C430 C431 1.372 . S
C431 C430 1.372 . S
C431 C432 1.400 . S
C431 C436 1.490 . S
C432 H422 0.930 . S
C432 C431 1.400 . S
C432 C435 1.386 . S
H433 C449 0.930 . S
H434 C450 0.931 . S
C435 H423 0.929 . S
C435 C429 1.390 . S
C435 C432 1.386 . S
C436 C431 1.490 . S
C436 C438 1.395 . S
C436 C439 1.403 . S
H437 C443 0.946 . S
C438 H424 0.930 . S
C438 C436 1.395 . S
C438 C441 1.403 . S
C439 C436 1.403 . S
C439 C440 1.524 1_545 S
C439 C443 1.400 . S
C440 H425 0.960 . S
C440 H426 0.960 . S
C440 H427 0.960 . S
C440 C439 1.524 1_565 S
C441 C438 1.403 . S
C441 C442 1.392 . S
C441 C445 1.495 . S
C442 C441 1.392 . S
C442 C443 1.385 . S
C442 C444 1.478 . S
C443 H437 0.946 . S
C443 C439 1.400 . S
C443 C442 1.385 . S
C444 C442 1.478 . S
C444 C446 1.381 . S
C444 C450 1.383 . S
C445 C441 1.495 . S
C445 H451 0.959 . S
C445 H452 0.961 . S
C445 H453 0.960 . S
C446 C444 1.381 . S
C446 C447 1.394 . S
C446 H454 0.930 . S
C447 C446 1.394 . S
C447 C448 1.383 . S
C447 H455 0.929 . S
C448 C447 1.383 . S
C448 C449 1.377 . S
C449 H433 0.930 . S
C449 C448 1.377 . S
C449 C450 1.379 . S
C450 H434 0.931 . S
C450 C444 1.383 . S
C450 C449 1.379 . S
H451 C445 0.959 . S
H452 C445 0.961 . S
H453 C445 0.960 . S
H454 C446 0.930 . S
H455 C447 0.929 . S
H456 C464 0.929 . S
H457 C466 0.930 . S
H458 C468 0.930 . S
H459 C471 0.929 . S
H460 C474 0.930 . S
H461 C476 0.960 . S
H462 C476 0.960 . S
H463 C476 0.960 . S
C464 H456 0.929 . S
C464 C465 1.377 . S
C464 C466 1.384 . S
C465 C464 1.377 . S
C465 C471 1.390 . S
C466 H457 0.930 . S
C466 C464 1.384 . S
C466 C467 1.372 . S
C467 C466 1.372 . S
C467 C468 1.400 . S
C467 C472 1.490 . S
C468 H458 0.930 . S
C468 C467 1.400 . S
C468 C471 1.386 . S
H469 C485 0.930 . S
H470 C486 0.931 . S
C471 H459 0.929 . S
C471 C465 1.390 . S
C471 C468 1.386 . S
C472 C467 1.490 . S
C472 C474 1.395 . S
C472 C475 1.403 . S
H473 C479 0.930 . S
C474 H460 0.930 . S
C474 C472 1.395 . S
C474 C477 1.403 . S
C475 C472 1.403 . S
C475 C476 1.524 . S
C475 C479 1.400 . S
C476 H461 0.960 . S
C476 H462 0.960 . S
C476 H463 0.960 . S
C476 C475 1.524 . S
C477 C474 1.403 . S
C477 C478 1.392 . S
C477 C481 1.495 . S
C478 C477 1.392 . S
C478 C479 1.385 . S
C478 C480 1.478 . S
C479 H473 0.930 . S
C479 C475 1.400 . S
C479 C478 1.385 . S
C480 C478 1.478 . S
C480 C482 1.381 . S
C480 C486 1.383 . S
C481 C477 1.495 . S
C481 H487 0.959 . S
C481 H488 0.961 . S
C481 H489 0.960 . S
C482 C480 1.381 . S
C482 C483 1.394 . S
C482 H490 0.930 . S
C483 C482 1.394 . S
C483 C484 1.383 . S
C483 H491 0.929 . S
C484 C483 1.383 . S
C484 C485 1.377 . S
C485 H469 0.930 . S
C485 C484 1.377 . S
C485 C486 1.379 . S
C486 H470 0.931 . S
C486 C480 1.383 . S
C486 C485 1.379 . S
H487 C481 0.959 . S
H488 C481 0.961 . S
H489 C481 0.960 . S
H490 C482 0.930 . S
H491 C483 0.929 . S
H492 C500 0.929 1_655 S
H493 C502 0.930 1_655 S
H494 C504 0.930 . S
H495 C507 0.929 . S
H496 C510 0.930 . S
H497 C512 0.960 . S
H498 C512 0.960 . S
H499 C512 0.960 . S
C500 H492 0.929 1_455 S
C500 C501 1.377 . S
C500 C502 1.384 . S
C501 C500 1.377 . S
C501 C507 1.390 . S
C502 H493 0.930 1_455 S
C502 C500 1.384 . S
C502 C503 1.372 . S
C503 C502 1.372 . S
C503 C504 1.400 . S
C503 C508 1.490 . S
C504 H494 0.930 . S
C504 C503 1.400 . S
C504 C507 1.386 . S
H505 C521 0.930 . S
H506 C522 0.931 . S
C507 H495 0.929 . S
C507 C501 1.390 . S
C507 C504 1.386 . S
C508 C503 1.490 . S
C508 C510 1.395 1_455 S
C508 C511 1.403 . S
H509 C515 0.930 . S
C510 H496 0.930 . S
C510 C508 1.395 1_655 S
C510 C513 1.403 . S
C511 C508 1.403 . S
C511 C512 1.524 . S
C511 C515 1.400 . S
C512 H497 0.960 . S
C512 H498 0.960 . S
C512 H499 0.960 . S
C512 C511 1.524 . S
C513 C510 1.403 . S
C513 C514 1.392 1_655 S
C513 C517 1.495 . S
C514 C513 1.392 1_455 S
C514 C515 1.385 . S
C514 C516 1.478 . S
C515 H509 0.930 . S
C515 C511 1.400 . S
C515 C514 1.385 . S
C516 C514 1.478 . S
C516 C518 1.381 1_455 S
C516 C522 1.383 . S
C517 C513 1.495 . S
C517 H523 0.959 . S
C517 H524 0.961 . S
C517 H525 0.960 . S
C518 C516 1.381 1_655 S
C518 C519 1.391 1_655 S
C518 H526 0.930 . S
C519 C518 1.391 1_455 S
C519 C520 1.391 . S
C519 H527 0.925 1_455 S
C520 C519 1.391 . S
C520 C521 1.377 . S
C521 H505 0.930 . S
C521 C520 1.377 . S
C521 C522 1.379 . S
C522 H506 0.931 . S
C522 C516 1.383 . S
C522 C521 1.379 . S
H523 C517 0.959 . S
H524 C517 0.961 . S
H525 C517 0.960 . S
H526 C518 0.930 . S
H527 C519 0.925 1_655 S
H528 C536 0.929 . S
H529 C538 0.930 . S
H530 C540 0.930 . S
H531 C543 0.929 . S
H532 C546 0.930 . S
H533 C548 0.960 . S
H534 C548 0.960 . S
H535 C548 0.960 . S
C536 H528 0.929 . S
C536 C537 1.377 . S
C536 C538 1.384 . S
C537 C536 1.377 . S
C537 C543 1.390 . S
C538 H529 0.930 . S
C538 C536 1.384 . S
C538 C539 1.372 . S
C539 C538 1.372 . S
C539 C540 1.400 . S
C539 C544 1.490 . S
C540 H530 0.930 . S
C540 C539 1.400 . S
C540 C543 1.386 . S
H541 C557 0.930 . S
H542 C558 0.931 . S
C543 H531 0.929 . S
C543 C537 1.390 . S
C543 C540 1.386 . S
C544 C539 1.490 . S
C544 C546 1.395 . S
C544 C547 1.403 . S
H545 C551 0.930 . S
C546 H532 0.930 . S
C546 C544 1.395 . S
C546 C549 1.403 . S
C547 C544 1.403 . S
C547 C548 1.524 . S
C547 C551 1.400 . S
C548 H533 0.960 . S
C548 H534 0.960 . S
C548 H535 0.960 . S
C548 C547 1.524 . S
C549 C546 1.403 . S
C549 C550 1.392 . S
C549 C553 1.495 . S
C550 C549 1.392 . S
C550 C551 1.385 . S
C550 C552 1.478 . S
C551 H545 0.930 . S
C551 C547 1.400 . S
C551 C550 1.385 . S
C552 C550 1.478 . S
C552 C554 1.381 . S
C552 C558 1.383 . S
C553 C549 1.495 . S
C553 H559 0.959 . S
C553 H560 0.961 . S
C553 H561 0.960 . S
C554 C552 1.381 . S
C554 C555 1.394 . S
C554 H562 0.930 . S
C555 C554 1.394 . S
C555 C556 1.383 . S
C555 H563 0.929 . S
C556 C555 1.383 . S
C556 C557 1.377 . S
C557 H541 0.930 . S
C557 C556 1.377 . S
C557 C558 1.379 . S
C558 H542 0.931 . S
C558 C552 1.383 . S
C558 C557 1.379 . S
H559 C553 0.959 . S
H560 C553 0.961 . S
H561 C553 0.960 . S
H562 C554 0.930 . S
H563 C555 0.929 . S
H564 C572 0.929 . S
H565 C574 0.930 . S
H566 C576 0.930 . S
H567 C579 0.929 . S
H568 C582 0.930 . S
H569 C584 0.960 . S
H570 C584 0.960 . S
H571 C584 0.960 . S
C572 H564 0.929 . S
C572 C573 1.377 . S
C572 C574 1.384 . S
C573 C572 1.377 . S
C573 C579 1.390 . S
C574 H565 0.930 . S
C574 C572 1.384 . S
C574 C575 1.372 . S
C575 C574 1.372 . S
C575 C576 1.400 . S
C575 C580 1.490 . S
C576 H566 0.930 . S
C576 C575 1.400 . S
C576 C579 1.386 . S
H577 C593 0.930 . S
H578 C594 0.931 . S
C579 H567 0.929 . S
C579 C573 1.390 . S
C579 C576 1.386 . S
C580 C575 1.490 . S
C580 C582 1.395 . S
C580 C583 1.403 . S
H581 C587 0.930 . S
C582 H568 0.930 . S
C582 C580 1.395 . S
C582 C585 1.403 . S
C583 C580 1.403 . S
C583 C584 1.524 . S
C583 C587 1.400 . S
C584 H569 0.960 . S
C584 H570 0.960 . S
C584 H571 0.960 . S
C584 C583 1.524 . S
C585 C582 1.403 . S
C585 C586 1.392 . S
C585 C589 1.495 . S
C586 C585 1.392 . S
C586 C587 1.385 . S
C586 C588 1.478 . S
C587 H581 0.930 . S
C587 C583 1.400 . S
C587 C586 1.385 . S
C588 C586 1.478 . S
C588 C590 1.381 . S
C588 C594 1.383 . S
C589 C585 1.495 . S
C589 H595 0.959 . S
C589 H596 0.961 . S
C589 H597 0.960 . S
C590 C588 1.381 . S
C590 C591 1.394 . S
C590 H598 0.930 . S
C591 C590 1.394 . S
C591 C592 1.383 . S
C591 H599 0.929 . S
C592 C591 1.383 . S
C592 C593 1.377 . S
C593 H577 0.930 . S
C593 C592 1.377 . S
C593 C594 1.379 . S
C594 H578 0.931 . S
C594 C588 1.383 . S
C594 C593 1.379 . S
H595 C589 0.959 . S
H596 C589 0.961 . S
H597 C589 0.960 . S
H598 C590 0.930 . S
H599 C591 0.929 . S
H600 C608 0.929 . S
H601 C610 0.930 . S
H602 C612 0.930 1_565 S
H603 C615 0.929 1_565 S
H604 C618 0.930 . S
H605 C620 0.960 . S
H606 C620 0.960 . S
H607 C620 0.960 . S
C608 H600 0.929 . S
C608 C609 1.377 . S
C608 C610 1.384 . S
C609 C608 1.377 . S
C609 C615 1.390 . S
C610 H601 0.930 . S
C610 C608 1.384 . S
C610 C611 1.372 . S
C611 C610 1.372 . S
C611 C612 1.400 . S
C611 C616 1.490 . S
C612 H602 0.930 1_545 S
C612 C611 1.400 . S
C612 C615 1.386 . S
H613 C629 0.930 1_565 S
H614 C630 0.931 1_565 S
C615 H603 0.929 1_545 S
C615 C609 1.390 . S
C615 C612 1.386 . S
C616 C611 1.490 . S
C616 C618 1.395 . S
C616 C619 1.403 . S
H617 C623 0.930 . S
C618 H604 0.930 . S
C618 C616 1.395 . S
C618 C621 1.403 . S
C619 C616 1.403 . S
C619 C620 1.524 . S
C619 C623 1.400 . S
C620 H605 0.960 . S
C620 H606 0.960 . S
C620 H607 0.960 . S
C620 C619 1.524 . S
C621 C618 1.403 . S
C621 C622 1.392 . S
C621 C625 1.495 . S
C622 C621 1.392 . S
C622 C623 1.385 . S
C622 C624 1.478 . S
C623 H617 0.930 . S
C623 C619 1.400 . S
C623 C622 1.385 . S
C624 C622 1.478 . S
C624 C626 1.381 . S
C624 C630 1.383 . S
C625 C621 1.495 . S
C625 H631 0.959 . S
C625 H632 0.961 . S
C625 H633 0.960 . S
C626 C624 1.381 . S
C626 C627 1.394 . S
C626 H634 0.930 . S
C627 C626 1.394 . S
C627 C628 1.383 . S
C627 H635 0.929 . S
C628 C627 1.383 . S
C628 C629 1.377 . S
C629 H613 0.930 1_545 S
C629 C628 1.377 . S
C629 C630 1.379 . S
C630 H614 0.931 1_545 S
C630 C624 1.383 . S
C630 C629 1.379 . S
H631 C625 0.959 . S
H632 C625 0.961 . S
H633 C625 0.960 . S
H634 C626 0.930 . S
H635 C627 0.929 . S
H636 C644 0.929 . S
H637 C646 0.930 . S
H638 C648 0.930 . S
H639 C651 0.929 . S
H640 C654 0.930 . S
H641 C656 0.960 . S
H642 C656 0.960 . S
H643 C656 0.960 . S
C644 H636 0.929 . S
C644 C645 1.377 . S
C644 C646 1.384 . S
C645 C644 1.377 . S
C645 C651 1.390 . S
C646 H637 0.930 . S
C646 C644 1.384 . S
C646 C647 1.372 . S
C647 C646 1.372 . S
C647 C648 1.400 . S
C647 C652 1.490 . S
C648 H638 0.930 . S
C648 C647 1.400 . S
C648 C651 1.386 . S
H649 C665 0.900 1_554 S
H650 C666 0.931 . S
C651 H639 0.929 . S
C651 C645 1.390 . S
C651 C648 1.386 . S
C652 C647 1.490 . S
C652 C654 1.395 . S
C652 C655 1.403 . S
H653 C659 0.930 . S
C654 H640 0.930 . S
C654 C652 1.395 . S
C654 C657 1.403 . S
C655 C652 1.403 . S
C655 C656 1.524 . S
C655 C659 1.400 . S
C656 H641 0.960 . S
C656 H642 0.960 . S
C656 H643 0.960 . S
C656 C655 1.524 . S
C657 C654 1.403 . S
C657 C658 1.392 . S
C657 C661 1.495 . S
C658 C657 1.392 . S
C658 C659 1.385 . S
C658 C660 1.478 . S
C659 H653 0.930 . S
C659 C655 1.400 . S
C659 C658 1.385 . S
C660 C658 1.478 . S
C660 C662 1.381 1_554 S
C660 C666 1.383 . S
C661 C657 1.495 . S
C661 H667 0.959 . S
C661 H668 0.961 . S
C661 H669 0.960 1_554 S
C662 C660 1.381 1_556 S
C662 C663 1.394 . S
C662 H670 0.930 . S
C663 C662 1.394 . S
C663 C664 1.383 . S
C663 H671 0.929 . S
C664 C663 1.383 . S
C664 C665 1.377 . S
C665 H649 0.900 1_556 S
C665 C664 1.377 . S
C665 C666 1.379 1_556 S
C666 H650 0.931 . S
C666 C660 1.383 . S
C666 C665 1.379 1_554 S
H667 C661 0.959 . S
H668 C661 0.961 . S
H669 C661 0.960 1_556 S
H670 C662 0.930 . S
H671 C663 0.929 . S
H672 C680 0.929 1_545 S
H673 C682 0.930 . S
H674 C684 0.930 . S
H675 C687 0.929 . S
H676 C690 0.930 . S
H677 C692 0.960 . S
H678 C692 0.960 . S
H679 C692 0.960 . S
C680 H672 0.929 1_565 S
C680 C681 1.377 . S
C680 C682 1.384 . S
C681 C680 1.377 . S
C681 C687 1.390 . S
C682 H673 0.930 . S
C682 C680 1.384 . S
C682 C683 1.372 . S
C683 C682 1.372 . S
C683 C684 1.400 . S
C683 C688 1.490 . S
C684 H674 0.930 . S
C684 C683 1.400 . S
C684 C687 1.386 . S
H685 C701 0.930 . S
H686 C702 0.931 . S
C687 H675 0.929 . S
C687 C681 1.390 . S
C687 C684 1.386 . S
C688 C683 1.490 . S
C688 C690 1.395 . S
C688 C691 1.403 1_455 S
H689 C695 0.930 . S
C690 H676 0.930 . S
C690 C688 1.395 . S
C690 C693 1.403 . S
C691 C688 1.403 1_655 S
C691 C692 1.524 . S
C691 C695 1.400 . S
C692 H677 0.960 . S
C692 H678 0.960 . S
C692 H679 0.960 . S
C692 C691 1.524 . S
C693 C690 1.403 . S
C693 C694 1.392 . S
C693 C697 1.495 . S
C694 C693 1.392 . S
C694 C695 1.385 1_455 S
C694 C696 1.478 . S
C695 H689 0.930 . S
C695 C691 1.400 . S
C695 C694 1.385 1_655 S
C696 C694 1.478 . S
C696 C698 1.381 . S
C696 C702 1.383 . S
C697 C693 1.495 . S
C697 H703 0.959 . S
C697 H704 0.961 . S
C697 H705 0.960 . S
C698 C696 1.381 . S
C698 C699 1.394 . S
C698 H706 0.930 . S
C699 C698 1.394 . S
C699 C700 1.383 . S
C699 H707 0.929 . S
C700 C699 1.383 . S
C700 C701 1.377 . S
C701 H685 0.930 . S
C701 C700 1.377 . S
C701 C702 1.379 . S
C702 H686 0.931 . S
C702 C696 1.383 . S
C702 C701 1.379 . S
H703 C697 0.959 . S
H704 C697 0.961 . S
H705 C697 0.960 . S
H706 C698 0.930 . S
H707 C699 0.929 . S
H708 C716 0.929 . S
H709 C718 0.930 . S
H710 C720 0.930 . S
H711 C723 0.929 . S
H712 C726 0.930 . S
H713 C728 0.960 . S
H714 C728 0.960 . S
H715 C728 0.960 . S
C716 H708 0.929 . S
C716 C717 1.377 . S
C716 C718 1.384 . S
C717 C716 1.377 . S
C717 C723 1.390 . S
C718 H709 0.930 . S
C718 C716 1.384 . S
C718 C719 1.372 . S
C719 C718 1.372 . S
C719 C720 1.400 . S
C719 C724 1.490 . S
C720 H710 0.930 . S
C720 C719 1.400 . S
C720 C723 1.386 . S
H721 C737 0.930 1_565 S
H722 C738 0.931 1_565 S
C723 H711 0.929 . S
C723 C717 1.390 . S
C723 C720 1.386 . S
C724 C719 1.490 . S
C724 C726 1.395 . S
C724 C727 1.403 . S
H725 C731 0.930 . S
C726 H712 0.930 . S
C726 C724 1.395 . S
C726 C729 1.403 . S
C727 C724 1.403 . S
C727 C728 1.524 . S
C727 C731 1.400 . S
C728 H713 0.960 . S
C728 H714 0.960 . S
C728 H715 0.960 . S
C728 C727 1.524 . S
C729 C726 1.403 . S
C729 C730 1.392 . S
C729 C733 1.495 . S
C730 C729 1.392 . S
C730 C731 1.385 . S
C730 C732 1.478 . S
C731 H725 0.930 . S
C731 C727 1.400 . S
C731 C730 1.385 . S
C732 C730 1.478 . S
C732 C734 1.381 . S
C732 C738 1.383 . S
C733 C729 1.495 . S
C733 H739 0.959 1_545 S
C733 H740 0.961 1_545 S
C733 H741 0.960 . S
C734 C732 1.381 . S
C734 C735 1.394 . S
C734 H742 0.930 . S
C735 C734 1.394 . S
C735 C736 1.383 . S
C735 H743 0.929 . S
C736 C735 1.383 . S
C736 C737 1.377 . S
C737 H721 0.930 1_545 S
C737 C736 1.377 . S
C737 C738 1.379 . S
C738 H722 0.931 1_545 S
C738 C732 1.383 . S
C738 C737 1.379 . S
H739 C733 0.959 1_565 S
H740 C733 0.961 1_565 S
H741 C733 0.960 . S
H742 C734 0.930 . S
H743 C735 0.929 . S
H744 C752 0.929 . S
H745 C754 0.930 . S
H746 C756 0.930 . S
H747 C759 0.929 . S
H748 C762 0.930 . S
H749 C764 0.960 . S
H750 C764 0.960 . S
H751 C764 0.960 . S
C752 H744 0.929 . S
C752 C753 1.377 . S
C752 C754 1.384 . S
C753 C752 1.377 . S
C753 C759 1.390 . S
C754 H745 0.930 . S
C754 C752 1.384 . S
C754 C755 1.372 . S
C755 C754 1.372 . S
C755 C756 1.400 . S
C755 C760 1.490 . S
C756 H746 0.930 . S
C756 C755 1.400 . S
C756 C759 1.386 . S
H757 C773 0.930 . S
H758 C774 0.931 . S
C759 H747 0.929 . S
C759 C753 1.390 . S
C759 C756 1.386 . S
C760 C755 1.490 . S
C760 C762 1.395 . S
C760 C763 1.403 . S
H761 C767 0.930 . S
C762 H748 0.930 . S
C762 C760 1.395 . S
C762 C765 1.403 . S
C763 C760 1.403 . S
C763 C764 1.524 . S
C763 C767 1.400 . S
C764 H749 0.960 . S
C764 H750 0.960 . S
C764 H751 0.960 . S
C764 C763 1.524 . S
C765 C762 1.403 . S
C765 C766 1.392 . S
C765 C769 1.521 . S
C766 C765 1.392 . S
C766 C767 1.385 . S
C766 C768 1.478 1_554 S
C767 H761 0.930 . S
C767 C763 1.400 . S
C767 C766 1.385 . S
C768 C766 1.478 1_556 S
C768 C770 1.381 . S
C768 C774 1.383 1_556 S
C769 C765 1.521 . S
C769 H775 0.975 . S
C769 H776 0.972 . S
C769 H777 0.910 1_554 S
C770 C768 1.381 . S
C770 C771 1.394 . S
C770 H778 0.930 . S
C771 C770 1.394 . S
C771 C772 1.383 . S
C771 H779 0.929 . S
C772 C771 1.383 . S
C772 C773 1.377 . S
C773 H757 0.930 . S
C773 C772 1.377 . S
C773 C774 1.379 1_556 S
C774 H758 0.931 . S
C774 C768 1.383 1_554 S
C774 C773 1.379 1_554 S
H775 C769 0.975 . S
H776 C769 0.972 . S
H777 C769 0.910 1_556 S
H778 C770 0.930 . S
H779 C771 0.929 . S
H780 C788 0.929 . S
H781 C790 0.930 . S
H782 C792 0.930 1_655 S
H783 C795 0.929 1_655 S
H784 C798 0.930 . S
H785 C800 0.960 . S
H786 C800 0.960 . S
H787 C800 0.960 1_655 S
C788 H780 0.929 . S
C788 C789 1.377 . S
C788 C790 1.384 . S
C789 C788 1.377 . S
C789 C795 1.390 . S
C790 H781 0.930 . S
C790 C788 1.384 . S
C790 C791 1.372 . S
C791 C790 1.372 . S
C791 C792 1.400 . S
C791 C796 1.490 . S
C792 H782 0.930 1_455 S
C792 C791 1.400 . S
C792 C795 1.386 . S
H793 C809 0.930 1_655 S
H794 C810 0.931 1_655 S
C795 H783 0.929 1_455 S
C795 C789 1.390 . S
C795 C792 1.386 . S
C796 C791 1.490 . S
C796 C798 1.395 . S
C796 C799 1.403 . S
H797 C803 0.930 . S
C798 H784 0.930 . S
C798 C796 1.395 . S
C798 C801 1.403 . S
C799 C796 1.403 . S
C799 C800 1.524 . S
C799 C803 1.400 . S
C800 H785 0.960 . S
C800 H786 0.960 . S
C800 H787 0.960 1_455 S
C800 C799 1.524 . S
C801 C798 1.403 . S
C801 C802 1.392 . S
C801 C805 1.495 . S
C802 C801 1.392 . S
C802 C803 1.385 . S
C802 C804 1.478 . S
C803 H797 0.930 . S
C803 C799 1.400 . S
C803 C802 1.385 . S
C804 C802 1.478 . S
C804 C806 1.381 . S
C804 C810 1.383 . S
C805 C801 1.495 . S
C805 H811 0.959 . S
C805 H812 0.961 . S
C805 H813 0.960 . S
C806 C804 1.381 . S
C806 C807 1.394 . S
C806 H814 0.930 . S
C807 C806 1.394 . S
C807 C808 1.383 . S
C807 H815 0.929 . S
C808 C807 1.383 . S
C808 C809 1.377 . S
C809 H793 0.930 1_455 S
C809 C808 1.377 . S
C809 C810 1.379 . S
C810 H794 0.931 1_455 S
C810 C804 1.383 . S
C810 C809 1.379 . S
H811 C805 0.959 . S
H812 C805 0.961 . S
H813 C805 0.960 . S
H814 C806 0.930 . S
H815 C807 0.929 . S
C412 C97 1.208 . S
C393 C3 1.581 . S
C429 C21 1.599 . S
C448 C211 1.147 . S
C465 C37 1.310 . S
C484 C271 0.961 . S
C501 C8 1.402 . S
C520 C71 1.112 . S
C556 C185 1.103 . S
C537 C23 1.412 . S
C573 C35 1.493 . S
C592 C281 0.880 . S
C628 C167 0.962 . S
C609 C31 1.495 . S
C645 C7 1.400 1_565 S
C664 C299 1.080 . S
C700 C43 1.084 . S
C681 C17 1.320 1_565 S
C736 C157 0.949 . S
C717 C36 1.290 . S
C772 C325 1.138 . S
C753 C9 1.572 . S
C789 C22 1.489 . S
C808 C53 0.940 . S
