# Generated by pormake.
# Topology sqc, (4,8)-cn, num edge types: 1
# Building blocks:
#     Node 0, Type 0, BuildingBlock: KUFVIS_clean_linker_0, # of connection points: 4
#     Node 1, Type 0, BuildingBlock: KUFVIS_clean_linker_0, # of connection points: 4
#     Node 2, Type 0, BuildingBlock: KUFVIS_clean_linker_0, # of connection points: 4
#     Node 3, Type 0, BuildingBlock: KUFVIS_clean_linker_0, # of connection points: 4
#     Node 4, Type 0, BuildingBlock: KUFVIS_clean_linker_0, # of connection points: 4
#     Node 5, Type 0, BuildingBlock: KUFVIS_clean_linker_0, # of connection points: 4
#     Node 6, Type 0, BuildingBlock: KUFVIS_clean_linker_0, # of connection points: 4
#     Node 7, Type 0, BuildingBlock: KUFVIS_clean_linker_0, # of connection points: 4
#     Node 8, Type 1, BuildingBlock: TAGTUT_clean_sbu_3, # of connection points: 8
#     Node 9, Type 1, BuildingBlock: TAGTUT_clean_sbu_3, # of connection points: 8
#     Node 10, Type 1, BuildingBlock: TAGTUT_clean_sbu_3, # of connection points: 8
#     Node 11, Type 1, BuildingBlock: TAGTUT_clean_sbu_3, # of connection points: 8
#     Edge 12, Type (0, 1), BuildingBlock: XUDNAN_clean_linker_2, # of connection points: 2
#     Edge 13, Type (0, 1), BuildingBlock: XUDNAN_clean_linker_2, # of connection points: 2
#     Edge 14, Type (0, 1), BuildingBlock: XUDNAN_clean_linker_2, # of connection points: 2
#     Edge 15, Type (0, 1), BuildingBlock: XUDNAN_clean_linker_2, # of connection points: 2
#     Edge 16, Type (0, 1), BuildingBlock: XUDNAN_clean_linker_2, # of connection points: 2
#     Edge 17, Type (0, 1), BuildingBlock: XUDNAN_clean_linker_2, # of connection points: 2
#     Edge 18, Type (0, 1), BuildingBlock: XUDNAN_clean_linker_2, # of connection points: 2
#     Edge 19, Type (0, 1), BuildingBlock: XUDNAN_clean_linker_2, # of connection points: 2
#     Edge 20, Type (0, 1), BuildingBlock: XUDNAN_clean_linker_2, # of connection points: 2
#     Edge 21, Type (0, 1), BuildingBlock: XUDNAN_clean_linker_2, # of connection points: 2
#     Edge 22, Type (0, 1), BuildingBlock: XUDNAN_clean_linker_2, # of connection points: 2
#     Edge 23, Type (0, 1), BuildingBlock: XUDNAN_clean_linker_2, # of connection points: 2
#     Edge 24, Type (0, 1), BuildingBlock: XUDNAN_clean_linker_2, # of connection points: 2
#     Edge 25, Type (0, 1), BuildingBlock: XUDNAN_clean_linker_2, # of connection points: 2
#     Edge 26, Type (0, 1), BuildingBlock: XUDNAN_clean_linker_2, # of connection points: 2
#     Edge 27, Type (0, 1), BuildingBlock: XUDNAN_clean_linker_2, # of connection points: 2
#     Edge 28, Type (0, 1), BuildingBlock: XUDNAN_clean_linker_2, # of connection points: 2
#     Edge 29, Type (0, 1), BuildingBlock: XUDNAN_clean_linker_2, # of connection points: 2
#     Edge 30, Type (0, 1), BuildingBlock: XUDNAN_clean_linker_2, # of connection points: 2
#     Edge 31, Type (0, 1), BuildingBlock: XUDNAN_clean_linker_2, # of connection points: 2
#     Edge 32, Type (0, 1), BuildingBlock: XUDNAN_clean_linker_2, # of connection points: 2
#     Edge 33, Type (0, 1), BuildingBlock: XUDNAN_clean_linker_2, # of connection points: 2
#     Edge 34, Type (0, 1), BuildingBlock: XUDNAN_clean_linker_2, # of connection points: 2
#     Edge 35, Type (0, 1), BuildingBlock: XUDNAN_clean_linker_2, # of connection points: 2
#     Edge 36, Type (0, 1), BuildingBlock: XUDNAN_clean_linker_2, # of connection points: 2
#     Edge 37, Type (0, 1), BuildingBlock: XUDNAN_clean_linker_2, # of connection points: 2
#     Edge 38, Type (0, 1), BuildingBlock: XUDNAN_clean_linker_2, # of connection points: 2
#     Edge 39, Type (0, 1), BuildingBlock: XUDNAN_clean_linker_2, # of connection points: 2
#     Edge 40, Type (0, 1), BuildingBlock: XUDNAN_clean_linker_2, # of connection points: 2
#     Edge 41, Type (0, 1), BuildingBlock: XUDNAN_clean_linker_2, # of connection points: 2
#     Edge 42, Type (0, 1), BuildingBlock: XUDNAN_clean_linker_2, # of connection points: 2
#     Edge 43, Type (0, 1), BuildingBlock: XUDNAN_clean_linker_2, # of connection points: 2
# Relax obj value: 0.176
# Max RMSD: 0.271
# Mean RMSD: 0.222
data_MOF--net-sqc--node1-TAGTUT_clean_sbu_3--node2-KUFVIS_clean_linker_0--edge1-XUDNAN_clean_linker_2
_symmetry_space_group_name_H-M    P1
_symmetry_Int_Tables_number       1
_symmetry_cell_setting            triclinic
loop_
_symmetry_equiv_pos_as_xyz
'x, y, z'
_cell_length_a     24.67315
_cell_length_b     24.728807
_cell_length_c     70.596217
_cell_angle_alpha  90.776697
_cell_angle_beta   90.001777
_cell_angle_gamma 90.31532
loop_
_atom_site_label
_atom_site_type_symbol
_atom_site_fract_x
_atom_site_fract_y
_atom_site_fract_z
_atom_type_partial_charge
H0 H 0.86314 0.0032 0.4913 0.0
H1 H 0.01177 0.0456 0.51924 0.0
H2 H 0.0127 0.98433 0.46128 0.0
H3 H 0.09386 0.95111 0.47071 0.0
H4 H 0.23948 0.02791 0.49072 0.0
H5 H 0.08655 0.09136 0.50822 0.0
C6 C 0.90706 0.00651 0.49103 0.0
C7 C 0.93499 0.99143 0.47469 0.0
C8 C 0.93436 0.02611 0.50696 0.0
C9 C 0.99118 0.0309 0.50663 0.0
C10 C 0.02096 0.01536 0.49024 0.0
C11 C 0.99182 0.99554 0.47422 0.0
C12 C 0.08188 0.01971 0.48989 0.0
C13 C 0.1134 0.98286 0.47895 0.0
C14 C 0.17042 0.98693 0.47856 0.0
C15 C 0.1956 0.02647 0.48985 0.0
C16 C 0.16597 0.06475 0.50009 0.0
C17 C 0.10913 0.06118 0.50032 0.0
H18 H 0.33134 0.89484 0.73886 0.0
H19 H 0.31175 0.75424 0.7732 0.0
H20 H 0.38931 0.7427 0.71834 0.0
H21 H 0.43256 0.6766 0.73156 0.0
H22 H 0.36447 0.52312 0.74608 0.0
H23 H 0.28789 0.66728 0.76618 0.0
C24 C 0.33843 0.8522 0.74115 0.0
C25 C 0.36539 0.82184 0.72725 0.0
C26 C 0.31878 0.82824 0.75765 0.0
C27 C 0.32588 0.7723 0.76021 0.0
C28 C 0.35186 0.74032 0.7462 0.0
C29 C 0.37056 0.76595 0.72961 0.0
C30 C 0.35873 0.68035 0.7483 0.0
C31 C 0.40125 0.65362 0.73861 0.0
C32 C 0.40285 0.59705 0.73717 0.0
C33 C 0.36467 0.56687 0.74719 0.0
C34 C 0.32468 0.59192 0.7581 0.0
C35 C 0.32112 0.64865 0.75856 0.0
H36 H 0.82044 0.98462 -0.00843 0.0
H37 H 0.67513 0.93669 0.02043 0.0
H38 H 0.67168 0.06425 0.97913 0.0
H39 H 0.5942 0.02085 0.97182 0.0
H40 H 0.44878 0.02251 0.00464 0.0
H41 H 0.59941 0.97832 0.03072 0.0
C42 C 0.77718 0.9888 -0.00614 0.0
C43 C 0.74859 0.0269 0.9835 0.0
C44 C 0.7514 0.95806 0.00778 0.0
C45 C 0.69509 0.96206 0.01016 0.0
C46 C 0.66507 0.99933 -0.00041 0.0
C47 C 0.69301 0.03327 0.9868 0.0
C48 C 0.60479 0.00248 0.00137 0.0
C49 C 0.5744 0.01647 0.98541 0.0
C50 C 0.51855 0.02444 0.98655 0.0
C51 C 0.49183 0.01462 0.00364 0.0
C52 C 0.52001 0.99531 0.01947 0.0
C53 C 0.57702 0.99098 0.01841 0.0
H54 H 0.30212 0.46628 0.25799 0.0
H55 H 0.35616 0.31555 0.27907 0.0
H56 H 0.26982 0.3209 0.22558 0.0
H57 H 0.24364 0.23334 0.2373 0.0
H58 H 0.33043 0.09453 0.2568 0.0
H59 H 0.40184 0.25147 0.26296 0.0
C60 C 0.30567 0.42278 0.25611 0.0
C61 C 0.28177 0.39715 0.24041 0.0
C62 C 0.33287 0.39336 0.26973 0.0
C63 C 0.33731 0.33757 0.26768 0.0
C64 C 0.31581 0.31028 0.2516 0.0
C65 C 0.2876 0.34071 0.23788 0.0
C66 C 0.32187 0.25015 0.25024 0.0
C67 C 0.27985 0.21607 0.24336 0.0
C68 C 0.2832 0.15949 0.24546 0.0
C69 C 0.3286 0.1377 0.25457 0.0
C70 C 0.37058 0.17075 0.26147 0.0
C71 C 0.36822 0.22634 0.25826 0.0
H72 H 0.86139 0.36822 0.23495 0.0
H73 H 0.81014 0.24144 0.27188 0.0
H74 H 0.90134 0.20593 0.22059 0.0
H75 H 0.85306 0.13474 0.21865 0.0
H76 H 0.83023 0.99817 0.25361 0.0
H77 H 0.83194 0.15632 0.27944 0.0
C78 C 0.85937 0.32553 0.23829 0.0
C79 C 0.88125 0.28805 0.22561 0.0
C80 C 0.83634 0.30936 0.25542 0.0
C81 C 0.83081 0.25365 0.25912 0.0
C82 C 0.85261 0.21462 0.24628 0.0
C83 C 0.88073 0.23342 0.23015 0.0
C84 C 0.84541 0.15466 0.24885 0.0
C85 C 0.84859 0.11953 0.23285 0.0
C86 C 0.8447 0.06365 0.23471 0.0
C87 C 0.83414 0.04174 0.25232 0.0
C88 C 0.82828 0.07502 0.2683 0.0
C89 C 0.83503 0.13142 0.26678 0.0
H90 H 0.84005 0.99307 0.73645 0.0
H91 H 0.87669 0.84641 0.76449 0.0
H92 H 0.81441 0.84177 0.70706 0.0
H93 H 0.78523 0.75774 0.71611 0.0
H94 H 0.85331 0.61884 0.74226 0.0
H95 H 0.91986 0.7749 0.7552 0.0
C96 C 0.83992 0.94917 0.73643 0.0
C97 C 0.82207 0.92039 0.72039 0.0
C98 C 0.86143 0.92223 0.75186 0.0
C99 C 0.86239 0.86586 0.75181 0.0
C100 C 0.84606 0.83537 0.73573 0.0
C101 C 0.82618 0.86349 0.71984 0.0
C102 C 0.85102 0.77489 0.73591 0.0
C103 C 0.81562 0.74086 0.72534 0.0
C104 C 0.819 0.68434 0.72694 0.0
C105 C 0.85489 0.66208 0.73995 0.0
C106 C 0.89023 0.69462 0.75061 0.0
C107 C 0.89 0.75055 0.74775 0.0
H108 H 0.74239 0.54121 0.98836 0.0
H109 H 0.59179 0.47747 0.96764 0.0
H110 H 0.59611 0.60766 0.00976 0.0
H111 H 0.51975 0.57706 0.01877 0.0
H112 H 0.36513 0.5363 -0.0039 0.0
H113 H 0.50644 0.49207 0.96458 0.0
C114 C 0.69844 0.54244 0.98791 0.0
C115 C 0.67197 0.57798 5e-05 0.0
C116 C 0.66992 0.50782 0.97566 0.0
C117 C 0.61289 0.50626 0.97662 0.0
C118 C 0.58414 0.54127 0.98913 0.0
C119 C 0.61512 0.57831 0.0005 0.0
C120 C 0.52279 0.53864 0.99072 0.0
C121 C 0.49685 0.56087 0.00694 0.0
C122 C 0.44036 0.56147 0.00848 0.0
C123 C 0.40887 0.53724 -0.0056 0.0
C124 C 0.43251 0.50925 0.97928 0.0
C125 C 0.48932 0.512 0.97687 0.0
H126 H 0.31062 0.49415 0.49147 0.0
H127 H 0.16364 0.44415 0.51838 0.0
H128 H 0.15883 0.51345 0.46257 0.0
H129 H 0.08372 0.45728 0.46073 0.0
H130 H 0.93574 0.47583 0.49202 0.0
H131 H 0.08738 0.49562 0.52073 0.0
C132 C 0.2669 0.4894 0.491 0.0
C133 C 0.23787 0.50471 0.4749 0.0
C134 C 0.23988 0.46807 0.50661 0.0
C135 C 0.1837 0.46128 0.50618 0.0
C136 C 0.1536 0.47774 0.49036 0.0
C137 C 0.18125 0.49911 0.47468 0.0
C138 C 0.09343 0.4757 0.49073 0.0
C139 C 0.06338 0.4654 0.47406 0.0
C140 C 0.00661 0.46519 0.47456 0.0
C141 C 0.97971 0.4754 0.49165 0.0
C142 C 0.00897 0.48597 0.50821 0.0
C143 C 0.06552 0.48602 0.50779 0.0
C144 C 0.15794 0.65815 0.14898 0.0
C145 C 0.99337 0.54458 0.13404 0.0
C146 C 0.96944 0.64668 0.08595 0.0
Mg147 Mg 0.19732 0.77954 0.13822 0.0
Mg148 Mg 0.12188 0.87534 0.11897 0.0
O149 O 0.13561 0.80234 0.12206 0.0
Mg150 Mg 0.08525 0.74048 0.12544 0.0
O151 O 0.04244 0.67273 0.12855 0.0
Mg152 Mg 0.08454 0.62329 0.1114 0.0
Mg153 Mg 0.96791 0.66464 0.1291 0.0
C154 C 0.02053 0.82481 0.09696 0.0
O155 O 0.02784 0.7837 0.1471 0.0
O156 O 0.25132 0.8458 0.12408 0.0
O157 O 0.94943 0.7362 0.14543 0.0
O158 O 0.1708 0.84273 0.16166 0.0
O159 O 0.1978 0.89788 0.10622 0.0
O160 O 0.12025 0.90559 0.14739 0.0
O161 O 0.13636 0.69622 0.10301 0.0
O162 O 0.21776 0.72177 0.11433 0.0
C163 C 0.18835 0.69431 0.10275 0.0
C164 C 0.24475 0.88273 0.11168 0.0
O165 O 0.02977 0.77681 0.10286 0.0
O166 O 0.03546 0.55149 0.12366 0.0
O167 O 0.04873 0.86629 0.10213 0.0
O168 O 0.0194 0.63178 0.08647 0.0
O169 O 0.96249 0.58368 0.13905 0.0
O170 O 0.94374 0.66176 0.10068 0.0
O171 O 0.14183 0.7078 0.14858 0.0
O172 O 0.142 0.62251 0.13673 0.0
C173 C 0.1435 0.88694 0.16207 0.0
C174 C 0.97744 0.77692 0.15134 0.0
C175 C 0.67959 0.77818 0.40049 0.0
C176 C 0.73581 0.57567 0.38718 0.0
C177 C 0.67737 0.59943 0.33224 0.0
Mg178 Mg 0.58263 0.84993 0.38223 0.0
Mg179 Mg 0.47802 0.79913 0.35935 0.0
O180 O 0.55138 0.79471 0.36407 0.0
Mg181 Mg 0.59309 0.72852 0.37046 0.0
O182 O 0.64084 0.6669 0.37716 0.0
Mg183 Mg 0.71023 0.6939 0.36593 0.0
Mg184 Mg 0.62154 0.5956 0.37047 0.0
C185 C 0.49852 0.68257 0.34118 0.0
O186 O 0.52618 0.68817 0.38842 0.0
O187 O 0.54029 0.91702 0.36454 0.0
O188 O 0.53904 0.59947 0.38116 0.0
O189 O 0.50637 0.84515 0.40255 0.0
O190 O 0.47937 0.87533 0.34555 0.0
O191 O 0.43975 0.80461 0.38611 0.0
O192 O 0.66219 0.76391 0.3521 0.0
O193 O 0.65285 0.85032 0.36193 0.0
C194 C 0.67747 0.81382 0.35228 0.0
C195 C 0.50639 0.91732 0.35071 0.0
O196 O 0.54877 0.68001 0.34613 0.0
O197 O 0.7504 0.62229 0.38109 0.0
O198 O 0.46843 0.72314 0.34521 0.0
O199 O 0.70492 0.63854 0.33944 0.0
O200 O 0.68725 0.55748 0.38531 0.0
O201 O 0.63689 0.57945 0.34097 0.0
O202 O 0.62944 0.77837 0.39543 0.0
O203 O 0.71417 0.74761 0.39218 0.0
C204 C 0.45787 0.82613 0.40131 0.0
C205 C 0.51115 0.63818 0.38853 0.0
C206 C 0.6651 0.17368 0.63378 0.0
C207 C 0.48175 0.08733 0.63467 0.0
C208 C 0.44524 0.18408 0.5858 0.0
Mg209 Mg 0.70776 0.29237 0.62228 0.0
Mg210 Mg 0.62794 0.39385 0.61451 0.0
O211 O 0.64346 0.3221 0.60844 0.0
Mg212 Mg 0.58971 0.26518 0.61528 0.0
O213 O 0.54143 0.20457 0.62228 0.0
Mg214 Mg 0.56739 0.14799 0.60393 0.0
Mg215 Mg 0.4679 0.20929 0.6282 0.0
C216 C 0.51643 0.36158 0.59551 0.0
O217 O 0.5543 0.3146 0.63969 0.0
O218 O 0.75664 0.36142 0.60842 0.0
O219 O 0.46926 0.28428 0.64505 0.0
O220 O 0.6989 0.3488 0.6492 0.0
O221 O 0.69958 0.43005 0.60294 0.0
O222 O 0.62969 0.40427 0.64416 0.0
O223 O 0.62318 0.21404 0.59054 0.0
O224 O 0.71021 0.23852 0.59599 0.0
C225 C 0.67433 0.21131 0.58665 0.0
C226 C 0.74692 0.40907 0.60228 0.0
O227 O 0.5251 0.31047 0.59716 0.0
O228 O 0.51587 0.08544 0.62091 0.0
O229 O 0.54957 0.39778 0.6017 0.0
O230 O 0.49281 0.16364 0.58408 0.0
O231 O 0.46092 0.13152 0.64082 0.0
O232 O 0.42818 0.20491 0.60132 0.0
O233 O 0.65344 0.22439 0.634 0.0
O234 O 0.63754 0.13886 0.62419 0.0
C235 C 0.66638 0.3859 0.65488 0.0
C236 C 0.50835 0.31783 0.64804 0.0
C237 C 0.17949 0.3248 0.8935 0.0
C238 C 0.2556 0.1361 0.89182 0.0
C239 C 0.16897 0.11091 0.84051 0.0
Mg240 Mg 0.07157 0.37748 0.87681 0.0
Mg241 Mg 0.96926 0.31383 0.85495 0.0
O242 O 0.04243 0.31687 0.86088 0.0
Mg243 Mg 0.09036 0.2583 0.86934 0.0
O244 O 0.14503 0.20555 0.8777 0.0
Mg245 Mg 0.20768 0.22984 0.86195 0.0
Mg246 Mg 0.13457 0.13217 0.88173 0.0
C247 C 0.00345 0.20021 0.83828 0.0
O248 O 0.03053 0.22188 0.89155 0.0
O249 O 0.02166 0.43656 0.85876 0.0
O250 O 0.05723 0.13581 0.89617 0.0
O251 O 0.99686 0.36859 0.89748 0.0
O252 O 0.96347 0.38937 0.84035 0.0
O253 O 0.93301 0.32021 0.88193 0.0
O254 O 0.15063 0.29048 0.84709 0.0
O255 O 0.13864 0.37818 0.85502 0.0
C256 C 0.16249 0.34106 0.84534 0.0
C257 C 0.98674 0.43371 0.84535 0.0
O258 O 0.04934 0.20227 0.84694 0.0
O259 O 0.2607 0.17424 0.87983 0.0
O260 O 0.96726 0.23692 0.84011 0.0
O261 O 0.19538 0.15603 0.84042 0.0
O262 O 0.20956 0.11499 0.89585 0.0
O263 O 0.13964 0.09688 0.85449 0.0
O264 O 0.12804 0.31624 0.89169 0.0
O265 O 0.21463 0.29752 0.88406 0.0
C266 C 0.94993 0.3455 0.89665 0.0
C267 C 0.02415 0.17499 0.89901 0.0
H268 H 0.26278 0.01626 0.45969 0.0
H269 H 0.15867 0.87752 0.46996 0.0
H270 H 0.2241 0.81908 0.45272 0.0
H271 H 0.31309 0.97835 0.41428 0.0
H272 H 0.38046 0.00351 0.41912 0.0
H273 H 0.3231 0.03365 0.43084 0.0
H274 H 0.36768 0.01533 0.46337 0.0
H275 H 0.42479 0.9842 0.45175 0.0
H276 H 0.38689 0.94734 0.46923 0.0
H277 H 0.30057 0.77767 0.43314 0.0
H278 H 0.38168 0.75536 0.41392 0.0
H279 H 0.44009 0.91989 0.42094 0.0
C280 C 0.25359 0.97347 0.45858 0.0
C281 C 0.20557 0.95152 0.46647 0.0
C282 C 0.19478 0.89554 0.46397 0.0
C283 C 0.23206 0.86197 0.45438 0.0
C284 C 0.28013 0.88491 0.44764 0.0
C285 C 0.29087 0.93943 0.44972 0.0
C286 C 0.3459 0.95441 0.4418 0.0
C287 C 0.34028 0.99485 0.42554 0.0
C288 C 0.38352 0.97663 0.45747 0.0
C289 C 0.36465 0.89976 0.43466 0.0
C290 C 0.32595 0.86024 0.43798 0.0
C291 C 0.33197 0.80767 0.43104 0.0
C292 C 0.37815 0.79541 0.42021 0.0
C293 C 0.41797 0.83547 0.41655 0.0
C294 C 0.41159 0.88792 0.42426 0.0
H295 H 0.41608 0.92016 0.72645 0.0
H296 H 0.36561 0.78652 0.68991 0.0
H297 H 0.39841 0.8366 0.66202 0.0
H298 H 0.36809 0.02144 0.69737 0.0
H299 H 0.4221 0.06862 0.70271 0.0
H300 H 0.4028 0.01886 0.71982 0.0
H301 H 0.50181 0.98409 0.72091 0.0
H302 H 0.52145 0.034 0.70382 0.0
H303 H 0.53484 0.96349 0.69923 0.0
H304 H 0.43248 0.90484 0.63785 0.0
H305 H 0.4587 0.98664 0.61984 0.0
H306 H 0.47723 0.07646 0.67259 0.0
C307 C 0.41197 0.90114 0.71261 0.0
C308 C 0.38817 0.84938 0.7104 0.0
C309 C 0.3844 0.8258 0.69203 0.0
C310 C 0.40277 0.85402 0.67609 0.0
C311 C 0.42469 0.90566 0.6788 0.0
C312 C 0.42919 0.92891 0.69665 0.0
C313 C 0.44961 0.9865 0.69582 0.0
C314 C 0.40817 0.02617 0.70443 0.0
C315 C 0.50522 0.99233 0.70552 0.0
C316 C 0.45432 0.99279 0.67466 0.0
C317 C 0.44121 0.94547 0.66502 0.0
C318 C 0.44283 0.94205 0.64527 0.0
C319 C 0.45768 0.98848 0.63518 0.0
C320 C 0.46913 0.03756 0.64492 0.0
C321 C 0.46786 0.03944 0.66485 0.0
H322 H 0.41689 0.99335 0.97452 0.0
H323 H 0.5518 0.09971 0.96091 0.0
H324 H 0.50234 0.13166 0.933 0.0
H325 H 0.37502 0.96083 0.92605 0.0
H326 H 0.30382 0.96319 0.9317 0.0
H327 H 0.3521 0.94364 0.94947 0.0
H328 H 0.31677 0.01919 0.97202 0.0
H329 H 0.26823 0.03869 0.9544 0.0
H330 H 0.31524 0.08802 0.96394 0.0
H331 H 0.43759 0.15587 0.9079 0.0
H332 H 0.35832 0.1765 0.88828 0.0
H333 H 0.26304 0.05823 0.9191 0.0
C334 C 0.43609 0.02334 0.96568 0.0
C335 C 0.48851 0.04351 0.96978 0.0
C336 C 0.51222 0.08264 0.9578 0.0
C337 C 0.48444 0.10118 0.94194 0.0
C338 C 0.43291 0.08047 0.93833 0.0
C339 C 0.4087 0.04279 0.94991 0.0
C340 C 0.35122 0.03044 0.9437 0.0
C341 C 0.34521 0.97099 0.93735 0.0
C342 C 0.31048 0.04498 0.95945 0.0
C343 C 0.3466 0.06811 0.92709 0.0
C344 C 0.39454 0.0958 0.92406 0.0
C345 C 0.39985 0.13427 0.91001 0.0
C346 C 0.35449 0.14568 0.89895 0.0
C347 C 0.30433 0.11909 0.90219 0.0
C348 C 0.3008 0.07909 0.91622 0.0
H349 H 0.23009 0.1595 0.2112 0.0
H350 H 0.24019 0.07253 0.26399 0.0
H351 H 0.19168 0.99538 0.24945 0.0
H352 H 0.08929 0.09851 0.19744 0.0
H353 H 0.10801 0.09816 0.17277 0.0
H354 H 0.13294 0.15091 0.18843 0.0
H355 H 0.23135 0.12776 0.17857 0.0
H356 H 0.20707 0.0747 0.16314 0.0
H357 H 0.25558 0.05966 0.1814 0.0
H358 H 0.16737 0.92001 0.22698 0.0
H359 H 0.15204 0.85817 0.19953 0.0
H360 H 0.14541 0.99635 0.16251 0.0
C361 C 0.21969 0.12535 0.21994 0.0
C362 C 0.24013 0.12158 0.23856 0.0
C363 C 0.22622 0.07581 0.24951 0.0
C364 C 0.19826 0.03183 0.24143 0.0
C365 C 0.18226 0.035 0.22259 0.0
C366 C 0.19041 0.08146 0.21219 0.0
C367 C 0.17278 0.07277 0.19182 0.0
C368 C 0.12278 0.10714 0.18736 0.0
C369 C 0.21949 0.08438 0.17793 0.0
C370 C 0.15827 0.01315 0.19206 0.0
C371 C 0.16349 0.99205 0.20997 0.0
C372 C 0.16075 0.93635 0.21303 0.0
C373 C 0.15248 0.90145 0.19739 0.0
C374 C 0.14604 0.92257 0.17903 0.0
C375 C 0.148 0.97917 0.17651 0.0
H376 H 0.16983 0.08621 0.53833 0.0
H377 H 0.23687 0.13496 0.48446 0.0
H378 H 0.31435 0.17795 0.50088 0.0
H379 H 0.22209 0.2134 0.56574 0.0
H380 H 0.23347 0.1736 0.58655 0.0
H381 H 0.17815 0.15691 0.57079 0.0
H382 H 0.21518 0.05935 0.56768 0.0
H383 H 0.27161 0.07609 0.58279 0.0
H384 H 0.28348 0.049 0.55933 0.0
H385 H 0.39487 0.19231 0.52203 0.0
H386 H 0.46264 0.20081 0.54793 0.0
H387 H 0.34029 0.15227 0.58842 0.0
C388 C 0.19914 0.1088 0.53015 0.0
C389 C 0.19749 0.10742 0.51018 0.0
C390 C 0.23739 0.13601 0.49981 0.0
C391 C 0.28179 0.16013 0.50899 0.0
C392 C 0.28475 0.15694 0.52861 0.0
C393 C 0.24331 0.13434 0.53919 0.0
C394 C 0.25809 0.13392 0.56003 0.0
C395 C 0.22073 0.17172 0.57145 0.0
C396 C 0.25703 0.07616 0.5679 0.0
C397 C 0.31534 0.15627 0.55927 0.0
C398 C 0.33019 0.16895 0.541 0.0
C399 C 0.38319 0.18436 0.53651 0.0
C400 C 0.42149 0.18867 0.55121 0.0
C401 C 0.40614 0.17853 0.57011 0.0
C402 C 0.35249 0.16194 0.57411 0.0
H403 H 0.34724 0.92934 0.77077 0.0
H404 H 0.22276 0.80554 0.77544 0.0
H405 H 0.16767 0.86801 0.7951 0.0
H406 H 0.33403 0.98455 0.81806 0.0
H407 H 0.34572 0.0532 0.81076 0.0
H408 H 0.37527 0.998 0.79755 0.0
H409 H 0.3298 0.03291 0.76699 0.0
H410 H 0.29923 0.08765 0.7802 0.0
H411 H 0.25736 0.04188 0.76644 0.0
H412 H 0.12613 0.94372 0.81363 0.0
H413 H 0.10444 0.02375 0.83304 0.0
H414 H 0.25445 0.10073 0.8154 0.0
C415 C 0.30844 0.91528 0.77599 0.0
C416 C 0.28913 0.86258 0.77156 0.0
C417 C 0.23855 0.84546 0.77885 0.0
C418 C 0.20676 0.88089 0.7898 0.0
C419 C 0.22624 0.93316 0.79331 0.0
C420 C 0.27618 0.95012 0.78685 0.0
C421 C 0.2881 0.00807 0.79289 0.0
C422 C 0.33877 0.01111 0.80557 0.0
C423 C 0.29396 0.04479 0.7756 0.0
C424 C 0.23711 0.02106 0.80397 0.0
C425 C 0.20188 0.9773 0.80385 0.0
C426 C 0.15325 0.97828 0.81374 0.0
C427 C 0.14122 0.02423 0.82466 0.0
C428 C 0.1773 0.06913 0.82554 0.0
C429 C 0.22531 0.06787 0.81463 0.0
H430 H 0.41908 0.94837 0.0206 0.0
H431 H 0.54935 0.00474 0.05741 0.0
H432 H 0.49441 0.98003 0.08534 0.0
H433 H 0.31274 0.00479 0.04831 0.0
H434 H 0.26615 0.95012 0.04318 0.0
H435 H 0.31791 0.96735 0.02629 0.0
H436 H 0.3529 0.86863 0.02654 0.0
H437 H 0.30111 0.85108 0.04337 0.0
H438 H 0.37128 0.83853 0.04874 0.0
H439 H 0.42336 0.94744 0.10944 0.0
H440 H 0.34189 0.91605 0.12695 0.0
H441 H 0.25647 0.89339 0.0738 0.0
C442 C 0.43626 0.95636 0.03448 0.0
C443 C 0.48877 0.97901 0.03665 0.0
C444 C 0.50966 0.9869 0.05522 0.0
C445 C 0.47854 0.9733 0.07121 0.0
C446 C 0.42644 0.95234 0.06842 0.0
C447 C 0.4055 0.94435 0.05046 0.0
C448 C 0.34768 0.92385 0.05104 0.0
C449 C 0.30885 0.96393 0.04165 0.0
C450 C 0.34301 0.86717 0.04189 0.0
C451 C 0.3389 0.92188 0.07219 0.0
C452 C 0.38498 0.93739 0.08206 0.0
C453 C 0.38693 0.93593 0.10182 0.0
C454 C 0.34063 0.91816 0.11164 0.0
C455 C 0.29284 0.90358 0.10169 0.0
C456 C 0.29211 0.90573 0.08175 0.0
H457 H 0.42078 0.07184 0.25891 0.0
H458 H 0.41114 0.21667 0.29413 0.0
H459 H 0.46114 0.17083 0.31934 0.0
H460 H 0.3843 0.987 0.29281 0.0
H461 H 0.42704 0.93108 0.28606 0.0
H462 H 0.40644 0.97889 0.2686 0.0
H463 H 0.50677 0.99796 0.26016 0.0
H464 H 0.5283 0.94994 0.27759 0.0
H465 H 0.55363 0.01839 0.27852 0.0
H466 H 0.496 0.10448 0.34301 0.0
H467 H 0.51168 0.02349 0.3626 0.0
H468 H 0.49012 0.92099 0.31286 0.0
C469 C 0.43057 0.09449 0.2717 0.0
C470 C 0.41199 0.14794 0.27443 0.0
C471 C 0.42578 0.1761 0.29142 0.0
C472 C 0.45405 0.15024 0.30593 0.0
C473 C 0.4685 0.09631 0.30325 0.0
C474 C 0.45774 0.06892 0.28643 0.0
C475 C 0.46949 0.0092 0.28807 0.0
C476 C 0.4188 0.97456 0.28364 0.0
C477 C 0.5174 0.99292 0.27533 0.0
C478 C 0.48478 0.0067 0.30876 0.0
C479 C 0.48596 0.05748 0.31716 0.0
C480 C 0.49605 0.06461 0.3365 0.0
C481 C 0.50461 0.01854 0.34754 0.0
C482 C 0.5013 0.96629 0.33923 0.0
C483 C 0.49223 0.96059 0.31958 0.0
H484 H 0.91347 0.129 0.51861 0.0
H485 H 0.87483 0.96156 0.52988 0.0
H486 H 0.79733 0.99027 0.54985 0.0
H487 H 0.87399 0.18465 0.56569 0.0
H488 H 0.84713 0.24512 0.55536 0.0
H489 H 0.90252 0.21032 0.54406 0.0
H490 H 0.84617 0.20472 0.5131 0.0
H491 H 0.78978 0.23751 0.52455 0.0
H492 H 0.78057 0.17224 0.5133 0.0
H493 H 0.71947 0.03807 0.56674 0.0
H494 H 0.65747 0.10185 0.58332 0.0
H495 H 0.74571 0.2367 0.55953 0.0
C496 C 0.89009 0.09867 0.52601 0.0
C497 C 0.90074 0.04324 0.52323 0.0
C498 C 0.86794 0.0043 0.53237 0.0
C499 C 0.82347 0.02022 0.54347 0.0
C500 C 0.81225 0.07523 0.54517 0.0
C501 C 0.84535 0.1139 0.53702 0.0
C502 C 0.82365 0.17023 0.54047 0.0
C503 C 0.86422 0.20458 0.55209 0.0
C504 C 0.80919 0.19776 0.52173 0.0
C505 C 0.77325 0.15725 0.55178 0.0
C506 C 0.76692 0.10229 0.55427 0.0
C507 C 0.7239 0.0812 0.56481 0.0
C508 C 0.68825 0.11751 0.57389 0.0
C509 C 0.69626 0.17389 0.5723 0.0
C510 C 0.73803 0.19364 0.56056 0.0
H511 H 0.73053 0.0333 0.27644 0.0
H512 H 0.89407 0.0497 0.29793 0.0
H513 H 0.87613 0.97627 0.32079 0.0
H514 H 0.66338 0.99563 0.32193 0.0
H515 H 0.61844 0.94973 0.30949 0.0
H516 H 0.64341 0.00927 0.29792 0.0
H517 H 0.67849 0.94724 0.27064 0.0
H518 H 0.65684 0.88749 0.28286 0.0
H519 H 0.7267 0.89491 0.27582 0.0
H520 H 0.84063 0.89624 0.33982 0.0
H521 H 0.78667 0.82594 0.35621 0.0
H522 H 0.65082 0.85747 0.31934 0.0
C523 C 0.76154 0.02317 0.28665 0.0
C524 C 0.81305 0.04796 0.28597 0.0
C525 C 0.8538 0.03225 0.29881 0.0
C526 C 0.84418 0.99003 0.31155 0.0
C527 C 0.79382 0.96398 0.31103 0.0
C528 C 0.75283 0.98082 0.29916 0.0
C529 C 0.7034 0.94467 0.30044 0.0
C530 C 0.65428 0.9767 0.3079 0.0
C531 C 0.69067 0.91695 0.2813 0.0
C532 C 0.72306 0.90431 0.31474 0.0
C533 C 0.77517 0.91604 0.3208 0.0
C534 C 0.80014 0.88623 0.33498 0.0
C535 C 0.76978 0.84562 0.34395 0.0
C536 C 0.71572 0.83486 0.33838 0.0
C537 C 0.69306 0.86314 0.32314 0.0
H538 H 0.84604 0.98938 0.02401 0.0
H539 H 0.7317 0.85544 0.02142 0.0
H540 H 0.78903 0.80484 0.04393 0.0
H541 H 0.96688 0.90798 0.02522 0.0
H542 H 1.00159 0.9548 0.04087 0.0
H543 H 0.95134 0.97909 0.02461 0.0
H544 H 0.89898 0.02328 0.05263 0.0
H545 H 0.94884 0.9989 0.06899 0.0
H546 H 0.8783 0.98219 0.07229 0.0
H547 H 0.85811 0.77177 0.06791 0.0
H548 H 0.9339 0.75759 0.09012 0.0
H549 H 0.00358 0.91195 0.07456 0.0
C550 C 0.83331 0.949 0.02786 0.0
C551 C 0.78477 0.92603 0.02085 0.0
C552 C 0.76875 0.87378 0.02672 0.0
C553 C 0.8011 0.84477 0.03939 0.0
C554 C 0.84901 0.86883 0.04591 0.0
C555 C 0.86503 0.91966 0.04021 0.0
C556 C 0.91786 0.93714 0.04917 0.0
C557 C 0.96202 0.9452 0.03407 0.0
C558 C 0.91051 0.98839 0.0615 0.0
C559 C 0.92908 0.88841 0.06107 0.0
C560 C 0.88905 0.84938 0.05908 0.0
C561 C 0.8901 0.80169 0.06931 0.0
C562 C 0.93348 0.79373 0.08177 0.0
C563 C 0.97518 0.83297 0.08375 0.0
C564 C 0.97259 0.88092 0.07327 0.0
H565 H 0.82007 0.00171 0.77495 0.0
H566 H 0.96705 0.91407 0.76138 0.0
H567 H 0.0194 0.97506 0.78262 0.0
H568 H 0.87614 0.1318 0.77676 0.0
H569 H 0.83722 0.15558 0.79678 0.0
H570 H 0.8103 0.10307 0.78152 0.0
H571 H 0.79799 0.04019 0.81031 0.0
H572 H 0.82422 0.0928 0.82572 0.0
H573 H 0.85508 0.0269 0.82545 0.0
H574 H 0.05663 0.05281 0.80099 0.0
H575 H 0.07604 0.13222 0.82155 0.0
H576 H 0.90401 0.16522 0.82547 0.0
C577 C 0.86306 0.99491 0.77684 0.0
C578 C 0.88983 0.95339 0.76674 0.0
C579 C 0.94607 0.94545 0.76927 0.0
C580 C 0.97605 0.98002 0.78116 0.0
C581 C 0.94878 0.02151 0.79058 0.0
C582 C 0.89341 0.02834 0.78898 0.0
C583 C 0.87431 0.07623 0.80073 0.0
C584 C 0.84795 0.1192 0.78819 0.0
C585 C 0.83562 0.05792 0.81649 0.0
C586 C 0.92784 0.09597 0.80877 0.0
C587 C 0.97021 0.06411 0.80256 0.0
C588 C 0.02385 0.07659 0.80682 0.0
C589 C 0.03446 0.1216 0.81849 0.0
C590 C 0.99163 0.15354 0.82569 0.0
C591 C 0.93765 0.1409 0.8205 0.0
H592 H 0.92104 0.88626 0.46429 0.0
H593 H 0.8703 0.04893 0.45144 0.0
H594 H 0.79386 0.01227 0.43238 0.0
H595 H 0.88249 0.82294 0.41808 0.0
H596 H 0.8606 0.76163 0.42937 0.0
H597 H 0.91421 0.80185 0.43975 0.0
H598 H 0.85975 0.8061 0.47115 0.0
H599 H 0.80496 0.76792 0.46058 0.0
H600 H 0.79213 0.83338 0.47114 0.0
H601 H 0.71775 0.95698 0.41715 0.0
H602 H 0.65793 0.8873 0.40247 0.0
H603 H 0.75785 0.76174 0.42632 0.0
C604 C 0.89528 0.9139 0.45669 0.0
C605 C 0.90223 0.97024 0.45876 0.0
C606 C 0.86632 0.00557 0.44944 0.0
C607 C 0.82243 0.98511 0.43886 0.0
C608 C 0.815 0.92924 0.43785 0.0
C609 C 0.85116 0.89412 0.44617 0.0
C610 C 0.8331 0.83595 0.44357 0.0
C611 C 0.87508 0.8037 0.432 0.0
C612 C 0.82183 0.8093 0.46275 0.0
C613 C 0.7812 0.84381 0.43255 0.0
C614 C 0.77098 0.89783 0.42951 0.0
C615 C 0.72542 0.91452 0.41942 0.0
C616 C 0.69108 0.87475 0.41139 0.0
C617 C 0.70292 0.81926 0.41348 0.0
C618 C 0.74747 0.80396 0.42474 0.0
H619 H 0.93906 0.04167 0.21635 0.0
H620 H 0.76823 1.00058 0.21792 0.0
H621 H 0.78362 0.92653 0.19468 0.0
H622 H 0.96392 0.00537 0.16538 0.0
H623 H 0.02915 0.9764 0.1703 0.0
H624 H 0.00454 0.03188 0.18464 0.0
H625 H 0.01823 0.97583 0.21448 0.0
H626 H 0.0406 0.9181 0.20089 0.0
H627 H 0.98404 0.91154 0.21677 0.0
H628 H 0.81822 0.85174 0.17506 0.0
H629 H 0.86886 0.78129 0.15815 0.0
H630 H 0.01943 0.86836 0.16931 0.0
C631 C 0.9048 0.01826 0.21114 0.0
C632 C 0.85228 0.02699 0.21841 0.0
C633 C 0.80842 0.99463 0.21209 0.0
C634 C 0.81686 0.95264 0.19898 0.0
C635 C 0.86943 0.94373 0.19248 0.0
C636 C 0.91269 0.97582 0.19815 0.0
C637 C 0.96576 0.95395 0.19044 0.0
C638 C 0.9924 0.99432 0.17689 0.0
C639 C 0.00441 0.93902 0.20663 0.0
C640 C 0.94557 0.90396 0.17991 0.0
C641 C 0.88986 0.89927 0.18124 0.0
C642 C 0.86176 0.8553 0.17364 0.0
C643 C 0.89118 0.81522 0.16417 0.0
C644 C 0.94836 0.81913 0.16232 0.0
C645 C 0.97583 0.86427 0.17035 0.0
H646 H 0.81355 0.99189 0.95478 0.0
H647 H 0.7522 0.13752 0.9818 0.0
H648 H 0.81328 0.19295 0.96187 0.0
H649 H 0.94875 0.03093 0.95255 0.0
H650 H 0.96208 1.00035 0.92972 0.0
H651 H 0.9098 0.97303 0.94461 0.0
H652 H 0.83929 0.9842 0.91774 0.0
H653 H 0.89154 0.01099 0.90264 0.0
H654 H 0.83084 0.0494 0.90704 0.0
H655 H 0.89002 0.23056 0.94186 0.0
H656 H 0.96766 0.2487 0.9205 0.0
H657 H 0.97568 0.0779 0.90621 0.0
C658 C 0.81229 0.03554 0.95621 0.0
C659 C 0.7783 0.06065 0.96974 0.0
C660 C 0.77765 0.11775 0.97134 0.0
C661 C 0.81238 0.14939 0.96017 0.0
C662 C 0.84677 0.12316 0.94736 0.0
C663 C 0.84616 0.06754 0.9451 0.0
C664 C 0.88805 0.04888 0.93083 0.0
C665 C 0.92962 0.01109 0.93998 0.0
C666 C 0.86079 0.02178 0.91354 0.0
C667 C 0.91343 0.10253 0.92574 0.0
C668 C 0.8892 0.14495 0.93539 0.0
C669 C 0.90818 0.1979 0.93377 0.0
C670 C 0.95215 0.20785 0.92161 0.0
C671 C 0.97687 0.16499 0.9114 0.0
C672 C 0.95723 0.11169 0.91364 0.0
H673 H 0.7424 0.99581 0.72034 0.0
H674 H 0.86165 0.91835 0.68417 0.0
H675 H 0.84252 0.98479 0.65903 0.0
H676 H 0.64628 0.02648 0.68292 0.0
H677 H 0.6268 0.08953 0.69398 0.0
H678 H 0.64973 0.03457 0.70831 0.0
H679 H 0.72277 0.09832 0.72305 0.0
H680 H 0.70129 0.15286 0.70819 0.0
H681 H 0.77097 0.13131 0.70781 0.0
H682 H 0.81105 0.06082 0.63826 0.0
H683 H 0.75884 0.13039 0.62137 0.0
H684 H 0.66234 0.15947 0.67161 0.0
C685 C 0.76375 0.99237 0.70697 0.0
C686 C 0.80325 0.95199 0.70405 0.0
C687 C 0.83068 0.94859 0.68649 0.0
C688 C 0.82062 0.98659 0.6723 0.0
C689 C 0.78301 0.0274 0.67597 0.0
C690 C 0.75413 0.02972 0.69272 0.0
C691 C 0.71465 0.07635 0.693 0.0
C692 C 0.65591 0.05549 0.69463 0.0
C693 C 0.72826 0.11711 0.70896 0.0
C694 C 0.72568 0.10015 0.67373 0.0
C695 C 0.76569 0.07169 0.66421 0.0
C696 C 0.78029 0.08385 0.64567 0.0
C697 C 0.75112 0.12397 0.63629 0.0
C698 C 0.70827 0.15152 0.64551 0.0
C699 C 0.69674 0.14081 0.66463 0.0
H700 H 0.76115 0.53655 0.95646 0.0
H701 H 0.65224 0.40065 0.9653 0.0
H702 H 0.71512 0.34153 0.94721 0.0
H703 H 0.812 0.50116 0.91081 0.0
H704 H 0.87997 0.52318 0.9164 0.0
H705 H 0.82317 0.55444 0.92808 0.0
H706 H 0.86523 0.53124 0.96064 0.0
H707 H 0.92162 0.49879 0.94904 0.0
H708 H 0.88118 0.46194 0.96582 0.0
H709 H 0.78984 0.29926 0.92716 0.0
H710 H 0.86886 0.27724 0.90716 0.0
H711 H 0.93561 0.43725 0.91765 0.0
C712 C 0.75029 0.49428 0.95473 0.0
C713 C 0.70188 0.47316 0.96249 0.0
C714 C 0.68875 0.41794 0.95934 0.0
C715 C 0.72457 0.38397 0.94931 0.0
C716 C 0.77347 0.40583 0.94291 0.0
C717 C 0.78626 0.45973 0.94558 0.0
C718 C 0.84216 0.47331 0.93824 0.0
C719 C 0.83911 0.51549 0.92244 0.0
C720 C 0.87975 0.49244 0.9544 0.0
C721 C 0.85889 0.41864 0.93061 0.0
C722 C 0.81852 0.38032 0.93324 0.0
C723 C 0.8223 0.32845 0.92553 0.0
C724 C 0.86767 0.31609 0.91439 0.0
C725 C 0.9096 0.35467 0.91168 0.0
C726 C 0.90558 0.40613 0.92029 0.0
H727 H 0.83147 0.35395 0.201 0.0
H728 H 0.98087 0.26665 0.20983 0.0
H729 H 0.02154 0.31206 0.1821 0.0
H730 H 0.84051 0.36408 0.14762 0.0
H731 H 0.8131 0.43149 0.14853 0.0
H732 H 0.79214 0.38233 0.16572 0.0
H733 H 0.82063 0.44829 0.19285 0.0
H734 H 0.8419 0.49728 0.17585 0.0
H735 H 0.88902 0.47432 0.19348 0.0
H736 H 0.05039 0.37912 0.1575 0.0
H737 H 0.06558 0.46213 0.1391 0.0
H738 H 0.89738 0.50664 0.14742 0.0
C739 C 0.87225 0.34329 0.19672 0.0
C740 C 0.90321 0.30706 0.20741 0.0
C741 C 0.95646 0.29401 0.2016 0.0
C742 C 0.97972 0.31953 0.18589 0.0
C743 C 0.94875 0.35716 0.17612 0.0
C744 C 0.89587 0.36849 0.18125 0.0
C745 C 0.87347 0.41565 0.17044 0.0
C746 C 0.82706 0.39727 0.15729 0.0
C747 C 0.85525 0.46156 0.18396 0.0
C748 C 0.92301 0.43144 0.15924 0.0
C749 C 0.96561 0.39642 0.16223 0.0
C750 C 0.01697 0.40603 0.15471 0.0
C751 C 0.02521 0.45329 0.14428 0.0
C752 C 0.98254 0.49066 0.14187 0.0
C753 C 0.9306 0.47859 0.14897 0.0
H754 H 0.00493 0.5336 0.44511 0.0
H755 H 0.93193 0.38706 0.46644 0.0
H756 H 0.86083 0.39147 0.44183 0.0
H757 H 0.88966 0.60084 0.44057 0.0
H758 H 0.90574 0.63719 0.41932 0.0
H759 H 0.95928 0.61487 0.4345 0.0
H760 H 0.00362 0.56249 0.40656 0.0
H761 H 0.95066 0.5856 0.39108 0.0
H762 H 0.96393 0.51428 0.39302 0.0
H763 H 0.78876 0.42176 0.41994 0.0
H764 H 0.7224 0.47383 0.40161 0.0
H765 H 0.84112 0.60264 0.39517 0.0
C766 C 0.9756 0.50099 0.44383 0.0
C767 C 0.97418 0.4593 0.45719 0.0
C768 C 0.93392 0.41855 0.45594 0.0
C769 C 0.89351 0.42083 0.44205 0.0
C770 C 0.89417 0.46415 0.42962 0.0
C771 C 0.9346 0.50323 0.43022 0.0
C772 C 0.92149 0.54998 0.41742 0.0
C773 C 0.91887 0.60384 0.42863 0.0
C774 C 0.96235 0.55325 0.40104 0.0
C775 C 0.86614 0.53256 0.41039 0.0
C776 C 0.85157 0.48247 0.41723 0.0
C777 C 0.80019 0.46042 0.4141 0.0
C778 C 0.76262 0.49051 0.40379 0.0
C779 C 0.77651 0.54234 0.39693 0.0
C780 C 0.82932 0.56295 0.40004 0.0
H781 H 0.85332 0.60159 0.70473 0.0
H782 H 0.70782 0.67958 0.72557 0.0
H783 H 0.65248 0.60319 0.71273 0.0
H784 H 0.79609 0.54666 0.66134 0.0
H785 H 0.83574 0.48581 0.66258 0.0
H786 H 0.86131 0.54781 0.67287 0.0
H787 H 0.87294 0.49891 0.7049 0.0
H788 H 0.84534 0.43731 0.69485 0.0
H789 H 0.81505 0.46705 0.71574 0.0
H790 H 0.61428 0.51696 0.69807 0.0
H791 H 0.59484 0.43636 0.67813 0.0
H792 H 0.7662 0.41413 0.6682 0.0
C793 C 0.80964 0.60299 0.70625 0.0
C794 C 0.7845 0.64635 0.71595 0.0
C795 C 0.72748 0.64697 0.71788 0.0
C796 C 0.69604 0.60344 0.71091 0.0
C797 C 0.72254 0.55997 0.70218 0.0
C798 C 0.77798 0.56003 0.69953 0.0
C799 C 0.79685 0.50929 0.68937 0.0
C800 C 0.82407 0.52323 0.67042 0.0
C801 C 0.83479 0.4762 0.70197 0.0
C802 C 0.7432 0.48062 0.68642 0.0
C803 C 0.70087 0.51015 0.69414 0.0
C804 C 0.64719 0.49346 0.69212 0.0
C805 C 0.63642 0.44737 0.68096 0.0
C806 C 0.67886 0.41874 0.6719 0.0
C807 C 0.73304 0.43413 0.67545 0.0
H808 H 0.69709 0.55486 0.03624 0.0
H809 H 0.73095 0.66781 -0.0085 0.0
H810 H 0.81413 0.69832 0.00829 0.0
H811 H 0.75544 0.63826 0.07653 0.0
H812 H 0.78118 0.57834 0.08758 0.0
H813 H 0.71995 0.57473 0.07371 0.0
H814 H 0.76303 0.49804 0.05347 0.0
H815 H 0.82529 0.50314 0.06664 0.0
H816 H 0.82599 0.51052 0.04127 0.0
H817 H 0.9009 0.70732 0.02847 0.0
H818 H 0.97485 0.7027 0.05241 0.0
H819 H 0.88444 0.58013 0.08236 0.0
C820 C 0.72038 0.58824 0.0306 0.0
C821 C 0.70673 0.61048 0.01298 0.0
C822 C 0.73981 0.65187 0.00537 0.0
C823 C 0.78755 0.66874 0.01467 0.0
C824 C 0.80175 0.6435 0.03149 0.0
C825 C 0.76835 0.60497 0.03958 0.0
C826 C 0.7943 0.58084 0.05691 0.0
C827 C 0.76074 0.59385 0.07474 0.0
C828 C 0.80263 0.51951 0.0544 0.0
C829 C 0.8479 0.61078 0.0571 0.0
C830 C 0.85179 0.64694 0.04243 0.0
C831 C 0.89817 0.67901 0.03999 0.0
C832 C 0.94041 0.67554 0.0534 0.0
C833 C 0.93577 0.64003 0.06885 0.0
C834 C 0.88947 0.60665 0.07038 0.0
H835 H 0.73725 0.32732 0.27333 0.0
H836 H 0.9007 0.39088 0.26764 0.0
H837 H 0.87294 0.47596 0.28307 0.0
H838 H 0.66564 0.44977 0.2659 0.0
H839 H 0.61537 0.43982 0.28405 0.0
H840 H 0.64644 0.38223 0.27262 0.0
H841 H 0.67751 0.34564 0.30506 0.0
H842 H 0.64469 0.40208 0.31655 0.0
H843 H 0.71541 0.38926 0.32094 0.0
H844 H 0.8271 0.55683 0.29561 0.0
H845 H 0.77249 0.62133 0.31403 0.0
H846 H 0.64015 0.505 0.31521 0.0
C847 C 0.76731 0.35868 0.27582 0.0
C848 C 0.82094 0.35294 0.26901 0.0
C849 C 0.85924 0.39485 0.27252 0.0
C850 C 0.8438 0.4435 0.2811 0.0
C851 C 0.7901 0.44937 0.28658 0.0
C852 C 0.75279 0.40764 0.28485 0.0
C853 C 0.69854 0.42444 0.29322 0.0
C854 C 0.65387 0.42402 0.27803 0.0
C855 C 0.68315 0.38822 0.30994 0.0
C856 C 0.71167 0.48186 0.2998 0.0
C857 C 0.76428 0.49562 0.29527 0.0
C858 C 0.786 0.54637 0.29954 0.0
C859 C 0.75432 0.58299 0.30989 0.0
C860 C 0.70191 0.56822 0.31634 0.0
C861 C 0.67969 0.51772 0.31048 0.0
H862 H 0.00574 0.41983 0.53826 0.0
H863 H 0.94316 0.57032 0.51693 0.0
H864 H 0.87963 0.57624 0.54398 0.0
H865 H 0.88526 0.36541 0.54798 0.0
H866 H 0.90408 0.33001 0.56912 0.0
H867 H 0.95453 0.34519 0.55167 0.0
H868 H 0.01231 0.39536 0.57716 0.0
H869 H 0.96182 0.37991 0.59478 0.0
H870 H 0.98242 0.44903 0.59111 0.0
H871 H 0.81216 0.55672 0.56876 0.0
H872 H 0.74402 0.51259 0.5889 0.0
H873 H 0.84855 0.37272 0.59373 0.0
C874 C 0.98034 0.45517 0.53992 0.0
C875 C 0.97961 0.49526 0.52599 0.0
C876 C 0.94449 0.53991 0.52782 0.0
C877 C 0.90861 0.54361 0.54313 0.0
C878 C 0.90853 0.5022 0.55634 0.0
C879 C 0.94373 0.45889 0.55495 0.0
C880 C 0.92934 0.4153 0.56894 0.0
C881 C 0.91758 0.36084 0.55881 0.0
C882 C 0.97414 0.40959 0.58389 0.0
C883 C 0.87862 0.43928 0.57754 0.0
C884 C 0.86818 0.49006 0.5705 0.0
C885 C 0.8205 0.51758 0.57474 0.0
C886 C 0.78188 0.492 0.58611 0.0
C887 C 0.79094 0.43915 0.59288 0.0
C888 C 0.84071 0.4134 0.589 0.0
H889 H 0.93904 0.59501 0.75089 0.0
H890 H 0.9104 0.73745 0.78605 0.0
H891 H 0.94274 0.68835 0.81394 0.0
H892 H 0.87987 0.50815 0.78126 0.0
H893 H 0.9244 0.45178 0.77691 0.0
H894 H 0.91427 0.50117 0.75883 0.0
H895 H 0.0177 0.51945 0.75711 0.0
H896 H 0.02844 0.46905 0.77491 0.0
H897 H 0.05445 0.53669 0.77844 0.0
H898 H 0.96569 0.61991 0.83877 0.0
H899 H 0.97757 0.53796 0.85817 0.0
H900 H 0.97819 0.43862 0.80711 0.0
C901 C 0.94065 0.61642 0.76436 0.0
C902 C 0.92198 0.67016 0.7662 0.0
C903 C 0.92535 0.69667 0.78411 0.0
C904 C 0.94331 0.66893 0.80011 0.0
C905 C 0.95758 0.61475 0.79798 0.0
C906 C 0.95681 0.5889 0.78049 0.0
C907 C 0.96649 0.52883 0.78226 0.0
C908 C 0.91839 0.49557 0.77435 0.0
C909 C 0.01996 0.51256 0.77261 0.0
C910 C 0.97047 0.52452 0.80353 0.0
C911 C 0.96685 0.57463 0.81234 0.0
C912 C 0.96889 0.58052 0.832 0.0
C913 C 0.97525 0.53392 0.8429 0.0
C914 C 0.97775 0.48231 0.83407 0.0
C915 C 0.97531 0.47767 0.81418 0.0
H916 H 0.35976 0.6359 0.01078 0.0
H917 H 0.45605 0.52717 0.04451 0.0
H918 H 0.39486 0.54284 0.07182 0.0
H919 H 0.32841 0.73201 0.04945 0.0
H920 H 0.26135 0.7443 0.04042 0.0
H921 H 0.31529 0.72659 0.02438 0.0
H922 H 0.25638 0.64694 0.0115 0.0
H923 H 0.20316 0.66321 0.02805 0.0
H924 H 0.232 0.59639 0.02762 0.0
H925 H 0.32078 0.5664 0.09459 0.0
H926 H 0.24784 0.60919 0.11342 0.0
H927 H 0.19883 0.70126 0.06464 0.0
C928 C 0.3686 0.61659 0.0241 0.0
C929 C 0.41261 0.58077 0.02574 0.0
C930 C 0.42297 0.55551 0.0432 0.0
C931 C 0.38804 0.56355 0.05863 0.0
C932 C 0.34339 0.59711 0.05626 0.0
C933 C 0.33435 0.62432 0.03961 0.0
C934 C 0.28384 0.65865 0.0408 0.0
C935 C 0.29808 0.71894 0.03865 0.0
C936 C 0.24135 0.64016 0.02612 0.0
C937 C 0.26553 0.64619 0.06072 0.0
C938 C 0.30021 0.61018 0.06931 0.0
C939 C 0.29316 0.59431 0.08799 0.0
C940 C 0.25132 0.61816 0.09849 0.0
C941 C 0.21719 0.65702 0.0902 0.0
C942 C 0.22321 0.66999 0.07097 0.0
H943 H 0.31443 0.58239 0.79636 0.0
H944 H 0.25513 0.51798 0.74284 0.0
H945 H 0.21508 0.43969 0.75931 0.0
H946 H 0.35274 0.45962 0.81597 0.0
H947 H 0.33095 0.475 0.8398 0.0
H948 H 0.35092 0.52883 0.8243 0.0
H949 H 0.25812 0.57601 0.82896 0.0
H950 H 0.23902 0.52362 0.84515 0.0
H951 H 0.19657 0.53782 0.82505 0.0
H952 H 0.18868 0.36445 0.7813 0.0
H953 H 0.15929 0.30835 0.80829 0.0
H954 H 0.23631 0.42184 0.84722 0.0
C955 C 0.29109 0.55288 0.78828 0.0
C956 C 0.28708 0.55629 0.76843 0.0
C957 C 0.25771 0.51619 0.75814 0.0
C958 C 0.23561 0.4713 0.76732 0.0
C959 C 0.24307 0.46734 0.78679 0.0
C960 C 0.26867 0.50779 0.79724 0.0
C961 C 0.27103 0.49374 0.81801 0.0
C962 C 0.32992 0.48903 0.82491 0.0
C963 C 0.23927 0.53524 0.83 0.0
C964 C 0.24308 0.43908 0.81757 0.0
C965 C 0.22793 0.4241 0.7994 0.0
C966 C 0.2003 0.37572 0.7956 0.0
C967 C 0.18464 0.34355 0.81094 0.0
C968 C 0.19628 0.36054 0.82971 0.0
C969 C 0.22787 0.40756 0.83293 0.0
H970 H 0.2854 0.37295 0.51722 0.0
H971 H 0.26393 0.54036 0.53425 0.0
H972 H 0.32368 0.52674 0.56191 0.0
H973 H 0.29222 0.32125 0.56641 0.0
H974 H 0.34427 0.27264 0.56188 0.0
H975 H 0.29573 0.28787 0.54359 0.0
H976 H 0.3681 0.31418 0.51985 0.0
H977 H 0.42109 0.29746 0.5362 0.0
H978 H 0.41906 0.36382 0.52615 0.0
H979 H 0.39342 0.49897 0.58459 0.0
H980 H 0.47068 0.45981 0.60125 0.0
H981 H 0.44856 0.30875 0.56998 0.0
C982 C 0.2924 0.40607 0.52714 0.0
C983 C 0.27021 0.45749 0.52398 0.0
C984 C 0.28054 0.50064 0.53678 0.0
C985 C 0.31412 0.49317 0.55248 0.0
C986 C 0.33644 0.4422 0.55511 0.0
C987 C 0.32578 0.39923 0.54292 0.0
C988 C 0.35826 0.34996 0.54825 0.0
C989 C 0.32032 0.30523 0.5554 0.0
C990 C 0.39368 0.33018 0.53162 0.0
C991 C 0.39217 0.37318 0.56431 0.0
C992 C 0.37754 0.42599 0.56835 0.0
C993 C 0.4048 0.45744 0.58176 0.0
C994 C 0.44898 0.43481 0.59102 0.0
C995 C 0.46601 0.38129 0.58677 0.0
C996 C 0.43625 0.34957 0.57359 0.0
H997 H 0.4379 0.41752 0.2791 0.0
H998 H 0.27136 0.43666 0.2973 0.0
H999 H 0.30018 0.50425 0.32124 0.0
H1000 H 0.49614 0.44348 0.32909 0.0
H1001 H 0.55399 0.48036 0.32082 0.0
H1002 H 0.52725 0.42466 0.30687 0.0
H1003 H 0.51323 0.4829 0.27758 0.0
H1004 H 0.54376 0.53914 0.29001 0.0
H1005 H 0.47721 0.54596 0.27974 0.0
H1006 H 0.34056 0.58171 0.33656 0.0
H1007 H 0.39275 0.66062 0.34669 0.0
H1008 H 0.53764 0.59352 0.32054 0.0
C1009 C 0.40827 0.43432 0.28881 0.0
C1010 C 0.35265 0.42194 0.28673 0.0
C1011 C 0.31417 0.44545 0.29906 0.0
C1012 C 0.3302 0.48376 0.31263 0.0
C1013 C 0.38493 0.49742 0.31377 0.0
C1014 C 0.4238 0.47269 0.30259 0.0
C1015 C 0.47908 0.49873 0.3058 0.0
C1016 C 0.51635 0.45944 0.31623 0.0
C1017 C 0.50477 0.51783 0.28717 0.0
C1018 C 0.46365 0.54599 0.31861 0.0
C1019 C 0.40934 0.54299 0.32338 0.0
C1020 C 0.38341 0.58391 0.33336 0.0
C1021 C 0.41353 0.62919 0.33875 0.0
C1022 C 0.46948 0.63369 0.33427 0.0
C1023 C 0.49517 0.591 0.32429 0.0
H1024 H 0.4161 0.50308 0.94009 0.0
H1025 H 0.36522 0.4336 -0.00662 0.0
H1026 H 0.28832 0.38874 0.97747 0.0
H1027 H 0.28585 0.52571 0.92042 0.0
H1028 H 0.30215 0.50375 0.89666 0.0
H1029 H 0.35445 0.53131 0.91183 0.0
H1030 H 0.41183 0.44463 0.90728 0.0
H1031 H 0.36048 0.41776 0.8916 0.0
H1032 H 0.38151 0.3796 0.91187 0.0
H1033 H 0.21166 0.35896 0.95694 0.0
H1034 H 0.1543 0.32288 0.93089 0.0
H1035 H 0.25809 0.40192 0.89006 0.0
C1036 C 0.38949 0.47738 0.94824 0.0
C1037 C 0.396 0.47283 0.96806 0.0
C1038 C 0.36041 0.43848 0.97824 0.0
C1039 C 0.3163 0.41313 0.96938 0.0
C1040 C 0.30888 0.42099 0.95013 0.0
C1041 C 0.34553 0.45028 0.93946 0.0
C1042 C 0.32937 0.44873 0.91869 0.0
C1043 C 0.31724 0.50578 0.91148 0.0
C1044 C 0.3734 0.42101 0.90665 0.0
C1045 C 0.27798 0.41455 0.91955 0.0
C1046 C 0.26621 0.40032 0.93793 0.0
C1047 C 0.22056 0.36943 0.94243 0.0
C1048 C 0.18768 0.34983 0.92761 0.0
C1049 C 0.20142 0.36028 0.90859 0.0
C1050 C 0.24629 0.39423 0.90456 0.0
H1051 H 0.45034 0.49674 0.73991 0.0
H1052 H 0.43225 0.63235 0.70193 0.0
H1053 H 0.46727 0.57659 0.6757 0.0
H1054 H 0.56712 0.42856 0.71576 0.0
H1055 H 0.5382 0.36244 0.71937 0.0
H1056 H 0.52621 0.4161 0.73638 0.0
H1057 H 0.42296 0.40186 0.73278 0.0
H1058 H 0.4338 0.34873 0.71558 0.0
H1059 H 0.39242 0.40592 0.70965 0.0
H1060 H 0.48884 0.50354 0.65263 0.0
H1061 H 0.50129 0.4184 0.63452 0.0
H1062 H 0.49418 0.32734 0.68645 0.0
C1063 C 0.45487 0.51525 0.72619 0.0
C1064 C 0.43808 0.56904 0.72307 0.0
C1065 C 0.44556 0.5917 0.70491 0.0
C1066 C 0.46497 0.56009 0.6898 0.0
C1067 C 0.47642 0.50595 0.69306 0.0
C1068 C 0.47235 0.48376 0.71085 0.0
C1069 C 0.47982 0.42296 0.7101 0.0
C1070 C 0.53089 0.40655 0.72104 0.0
C1071 C 0.42923 0.39315 0.71746 0.0
C1072 C 0.4868 0.41424 0.68901 0.0
C1073 C 0.4856 0.46283 0.67951 0.0
C1074 C 0.49025 0.46535 0.65991 0.0
C1075 C 0.49709 0.41696 0.64975 0.0
C1076 C 0.4983 0.36696 0.65919 0.0
C1077 C 0.49287 0.36535 0.67902 0.0
H1078 H 0.31757 0.58196 0.47519 0.0
H1079 H 0.22415 0.47701 0.43764 0.0
H1080 H 0.27803 0.50874 0.41039 0.0
H1081 H 0.33473 0.69261 0.4422 0.0
H1082 H 0.40338 0.70793 0.44942 0.0
H1083 H 0.35571 0.68066 0.46618 0.0
H1084 H 0.41855 0.60057 0.47325 0.0
H1085 H 0.46804 0.62767 0.4572 0.0
H1086 H 0.44368 0.55931 0.45396 0.0
H1087 H 0.35068 0.53992 0.38865 0.0
H1088 H 0.43345 0.57415 0.37314 0.0
H1089 H 0.47524 0.6654 0.42391 0.0
C1090 C 0.30814 0.56613 0.46119 0.0
C1091 C 0.26686 0.52706 0.45844 0.0
C1092 C 0.25533 0.5074 0.43995 0.0
C1093 C 0.28574 0.52508 0.42444 0.0
C1094 C 0.32689 0.5629 0.4277 0.0
C1095 C 0.3378 0.58358 0.44557 0.0
C1096 C 0.386 0.62168 0.4454 0.0
C1097 C 0.36899 0.67921 0.45114 0.0
C1098 C 0.43176 0.60105 0.45821 0.0
C1099 C 0.40146 0.61815 0.42468 0.0
C1100 C 0.3669 0.58377 0.41475 0.0
C1101 C 0.37693 0.56833 0.39605 0.0
C1102 C 0.42385 0.58797 0.38735 0.0
C1103 C 0.45926 0.62362 0.39719 0.0
C1104 C 0.44746 0.63977 0.41594 0.0
H1105 H 0.2985 0.41661 0.20247 0.0
H1106 H 0.19611 0.45886 0.25026 0.0
H1107 H 0.16137 0.5375 0.23302 0.0
H1108 H 0.33487 0.54756 0.18928 0.0
H1109 H 0.33054 0.5366 0.16402 0.0
H1110 H 0.34561 0.48094 0.17932 0.0
H1111 H 0.26364 0.42632 0.16607 0.0
H1112 H 0.24988 0.48088 0.15016 0.0
H1113 H 0.19755 0.45707 0.16584 0.0
H1114 H 0.14569 0.61719 0.2123 0.0
H1115 H 0.12958 0.67876 0.18558 0.0
H1116 H 0.23748 0.5828 0.15043 0.0
C1117 C 0.26726 0.44128 0.20894 0.0
C1118 C 0.2499 0.43182 0.22766 0.0
C1119 C 0.20966 0.46549 0.23587 0.0
C1120 C 0.19025 0.51061 0.22631 0.0
C1121 C 0.21071 0.52102 0.20837 0.0
C1122 C 0.24664 0.48628 0.19942 0.0
C1123 C 0.26061 0.50623 0.1798 0.0
C1124 C 0.32153 0.51855 0.17802 0.0
C1125 C 0.24177 0.4652 0.16457 0.0
C1126 C 0.22751 0.55773 0.1793 0.0
C1127 C 0.19995 0.56609 0.19609 0.0
C1128 C 0.16674 0.61095 0.19901 0.0
C1129 C 0.15858 0.64631 0.1839 0.0
C1130 C 0.18281 0.63582 0.16609 0.0
C1131 C 0.21927 0.59218 0.16404 0.0
loop_
_geom_bond_atom_site_label_1
_geom_bond_atom_site_label_2
_geom_bond_distance
_geom_bond_site_symmetry_2
_ccdc_geom_bond_type
H0 C6 0.930 . S
H1 C9 0.931 . S
H2 C11 0.931 . S
H3 C13 0.930 . S
H4 C15 0.930 . S
H5 C17 0.931 . S
C6 H0 0.930 . S
C6 C7 1.380 1_545 S
C6 C8 1.394 . S
C7 C6 1.380 1_565 S
C7 C11 1.382 . S
C8 C6 1.394 . S
C8 C9 1.400 . S
C9 H1 0.931 . S
C9 C8 1.400 . S
C9 C10 1.375 1_545 S
C10 C9 1.375 1_565 S
C10 C11 1.415 . S
C10 C12 1.501 1_655 S
C11 H2 0.931 . S
C11 C7 1.382 . S
C11 C10 1.415 . S
C12 C10 1.501 1_455 S
C12 C13 1.384 . S
C12 C17 1.408 1_565 S
C13 H3 0.930 . S
C13 C12 1.384 . S
C13 C14 1.389 . S
C14 C13 1.389 . S
C14 C15 1.405 . S
C15 H4 0.930 . S
C15 C14 1.405 . S
C15 C16 1.364 1_565 S
C16 C15 1.364 1_545 S
C16 C17 1.400 . S
C17 H5 0.931 . S
C17 C12 1.408 1_545 S
C17 C16 1.400 . S
H18 C24 0.930 . S
H19 C27 0.931 . S
H20 C29 0.931 . S
H21 C31 0.930 . S
H22 C33 0.930 . S
H23 C35 0.931 . S
C24 H18 0.930 . S
C24 C25 1.380 . S
C24 C26 1.394 . S
C25 C24 1.380 . S
C25 C29 1.382 . S
C26 C24 1.394 . S
C26 C27 1.400 . S
C27 H19 0.931 . S
C27 C26 1.400 . S
C27 C28 1.375 . S
C28 C27 1.375 . S
C28 C29 1.415 . S
C28 C30 1.501 . S
C29 H20 0.931 . S
C29 C25 1.382 . S
C29 C28 1.415 . S
C30 C28 1.501 . S
C30 C31 1.384 . S
C30 C35 1.408 . S
C31 H21 0.930 . S
C31 C30 1.384 . S
C31 C32 1.389 . S
C32 C31 1.389 . S
C32 C33 1.405 . S
C33 H22 0.930 . S
C33 C32 1.405 . S
C33 C34 1.364 . S
C34 C33 1.364 . S
C34 C35 1.400 . S
C35 H23 0.931 . S
C35 C30 1.408 . S
C35 C34 1.400 . S
H36 C42 0.930 . S
H37 C45 0.931 . S
H38 C47 0.931 . S
H39 C49 0.930 . S
H40 C51 0.930 . S
H41 C53 0.931 . S
C42 H36 0.930 . S
C42 C43 1.380 1_564 S
C42 C44 1.394 . S
C43 C42 1.380 1_546 S
C43 C47 1.382 . S
C44 C42 1.394 . S
C44 C45 1.400 . S
C45 H37 0.931 . S
C45 C44 1.400 . S
C45 C46 1.375 1_565 S
C46 C45 1.375 1_545 S
C46 C47 1.415 1_554 S
C46 C48 1.501 . S
C47 H38 0.931 . S
C47 C43 1.382 . S
C47 C46 1.415 1_556 S
C48 C46 1.501 . S
C48 C49 1.384 1_554 S
C48 C53 1.408 1_545 S
C49 H39 0.930 . S
C49 C48 1.384 1_556 S
C49 C50 1.389 . S
C50 C49 1.389 . S
C50 C51 1.405 1_556 S
C51 H40 0.930 . S
C51 C50 1.405 1_554 S
C51 C52 1.364 1_545 S
C52 C51 1.364 1_565 S
C52 C53 1.400 . S
C53 H41 0.931 . S
C53 C48 1.408 1_565 S
C53 C52 1.400 . S
H54 C60 0.930 . S
H55 C63 0.931 . S
H56 C65 0.931 . S
H57 C67 0.930 . S
H58 C69 0.930 . S
H59 C71 0.931 . S
C60 H54 0.930 . S
C60 C61 1.380 . S
C60 C62 1.394 . S
C61 C60 1.380 . S
C61 C65 1.382 . S
C62 C60 1.394 . S
C62 C63 1.400 . S
C63 H55 0.931 . S
C63 C62 1.400 . S
C63 C64 1.375 . S
C64 C63 1.375 . S
C64 C65 1.415 . S
C64 C66 1.501 . S
C65 H56 0.931 . S
C65 C61 1.382 . S
C65 C64 1.415 . S
C66 C64 1.501 . S
C66 C67 1.384 . S
C66 C71 1.408 . S
C67 H57 0.930 . S
C67 C66 1.384 . S
C67 C68 1.389 . S
C68 C67 1.389 . S
C68 C69 1.405 . S
C69 H58 0.930 . S
C69 C68 1.405 . S
C69 C70 1.364 . S
C70 C69 1.364 . S
C70 C71 1.400 . S
C71 H59 0.931 . S
C71 C66 1.408 . S
C71 C70 1.400 . S
H72 C78 0.930 . S
H73 C81 0.931 . S
H74 C83 0.931 . S
H75 C85 0.930 . S
H76 C87 0.930 . S
H77 C89 0.931 . S
C78 H72 0.930 . S
C78 C79 1.380 . S
C78 C80 1.394 . S
C79 C78 1.380 . S
C79 C83 1.382 . S
C80 C78 1.394 . S
C80 C81 1.400 . S
C81 H73 0.931 . S
C81 C80 1.400 . S
C81 C82 1.375 . S
C82 C81 1.375 . S
C82 C83 1.415 . S
C82 C84 1.501 . S
C83 H74 0.931 . S
C83 C79 1.382 . S
C83 C82 1.415 . S
C84 C82 1.501 . S
C84 C85 1.384 . S
C84 C89 1.408 . S
C85 H75 0.930 . S
C85 C84 1.384 . S
C85 C86 1.389 . S
C86 C85 1.389 . S
C86 C87 1.405 . S
C87 H76 0.930 . S
C87 C86 1.405 . S
C87 C88 1.364 . S
C88 C87 1.364 . S
C88 C89 1.400 . S
C89 H77 0.931 . S
C89 C84 1.408 . S
C89 C88 1.400 . S
H90 C96 0.930 . S
H91 C99 0.931 . S
H92 C101 0.931 . S
H93 C103 0.930 . S
H94 C105 0.930 . S
H95 C107 0.931 . S
C96 H90 0.930 . S
C96 C97 1.380 . S
C96 C98 1.394 . S
C97 C96 1.380 . S
C97 C101 1.382 . S
C98 C96 1.394 . S
C98 C99 1.400 . S
C99 H91 0.931 . S
C99 C98 1.400 . S
C99 C100 1.375 . S
C100 C99 1.375 . S
C100 C101 1.415 . S
C100 C102 1.501 . S
C101 H92 0.931 . S
C101 C97 1.382 . S
C101 C100 1.415 . S
C102 C100 1.501 . S
C102 C103 1.384 . S
C102 C107 1.408 . S
C103 H93 0.930 . S
C103 C102 1.384 . S
C103 C104 1.389 . S
C104 C103 1.389 . S
C104 C105 1.405 . S
C105 H94 0.930 . S
C105 C104 1.405 . S
C105 C106 1.364 . S
C106 C105 1.364 . S
C106 C107 1.400 . S
C107 H95 0.931 . S
C107 C102 1.408 . S
C107 C106 1.400 . S
H108 C114 0.930 . S
H109 C117 0.931 . S
H110 C119 0.931 . S
H111 C121 0.930 . S
H112 C123 0.930 . S
H113 C125 0.931 . S
C114 H108 0.930 . S
C114 C115 1.380 . S
C114 C116 1.394 1_554 S
C115 C114 1.380 . S
C115 C119 1.382 . S
C116 C114 1.394 1_556 S
C116 C117 1.400 . S
C117 H109 0.931 . S
C117 C116 1.400 . S
C117 C118 1.375 1_556 S
C118 C117 1.375 1_554 S
C118 C119 1.415 . S
C118 C120 1.501 . S
C119 H110 0.931 . S
C119 C115 1.382 . S
C119 C118 1.415 . S
C120 C118 1.501 . S
C120 C121 1.384 . S
C120 C125 1.408 1_554 S
C121 H111 0.930 . S
C121 C120 1.384 . S
C121 C122 1.389 . S
C122 C121 1.389 . S
C122 C123 1.405 . S
C123 H112 0.930 . S
C123 C122 1.405 . S
C123 C124 1.364 1_554 S
C124 C123 1.364 1_556 S
C124 C125 1.400 . S
C125 H113 0.931 . S
C125 C120 1.408 1_556 S
C125 C124 1.400 . S
H126 C132 0.930 . S
H127 C135 0.931 . S
H128 C137 0.931 . S
H129 C139 0.930 . S
H130 C141 0.930 1_655 S
H131 C143 0.931 . S
C132 H126 0.930 . S
C132 C133 1.380 . S
C132 C134 1.394 . S
C133 C132 1.380 . S
C133 C137 1.382 . S
C134 C132 1.394 . S
C134 C135 1.400 . S
C135 H127 0.931 . S
C135 C134 1.400 . S
C135 C136 1.375 . S
C136 C135 1.375 . S
C136 C137 1.415 . S
C136 C138 1.501 . S
C137 H128 0.931 . S
C137 C133 1.382 . S
C137 C136 1.415 . S
C138 C136 1.501 . S
C138 C139 1.384 . S
C138 C143 1.408 . S
C139 H129 0.930 . S
C139 C138 1.384 . S
C139 C140 1.389 . S
C140 C139 1.389 . S
C140 C141 1.405 . S
C141 H130 0.930 1_455 S
C141 C140 1.405 . S
C141 C142 1.364 . S
C142 C141 1.364 . S
C142 C143 1.400 . S
C143 H131 0.931 . S
C143 C138 1.408 . S
C143 C142 1.400 . S
C144 O171 1.312 . S
C144 O172 1.208 . S
C145 O166 1.331 1_655 S
C145 O169 1.244 . S
C146 O168 1.264 1_655 S
C146 O170 1.273 . S
Mg147 O149 1.936 . S
Mg147 O156 2.081 . S
Mg147 O158 2.023 . S
Mg147 O162 2.031 . S
Mg147 O171 2.291 . S
Mg148 O149 1.963 . S
Mg148 O159 1.942 . S
Mg148 O160 1.955 . S
Mg148 O167 1.986 . S
O149 Mg147 1.936 . S
O149 Mg148 1.963 . S
O149 Mg150 1.915 . S
Mg150 O149 1.915 . S
Mg150 O151 1.915 . S
Mg150 O155 2.013 . S
Mg150 O161 2.114 . S
Mg150 O165 2.013 . S
Mg150 O171 2.114 . S
O151 Mg150 1.915 . S
O151 Mg152 1.936 . S
O151 Mg153 1.963 1_455 S
Mg152 O151 1.936 . S
Mg152 O161 2.291 . S
Mg152 O166 2.081 . S
Mg152 O168 2.023 . S
Mg152 O172 2.031 . S
Mg153 O151 1.963 1_655 S
Mg153 O157 1.986 . S
Mg153 O169 1.942 . S
Mg153 O170 1.955 . S
C154 O165 1.191 . S
C154 O167 1.307 . S
O155 Mg150 2.013 . S
O155 C174 1.191 . S
O156 Mg147 2.081 . S
O156 C164 1.331 . S
O157 Mg153 1.986 . S
O157 C174 1.307 1_655 S
O158 Mg147 2.023 . S
O158 C173 1.264 . S
O159 Mg148 1.942 . S
O159 C164 1.244 . S
O160 Mg148 1.955 . S
O160 C173 1.273 . S
O161 Mg150 2.114 . S
O161 Mg152 2.291 . S
O161 C163 1.312 . S
O162 Mg147 2.031 . S
O162 C163 1.208 . S
C163 O161 1.312 . S
C163 O162 1.208 . S
C164 O156 1.331 . S
C164 O159 1.244 . S
O165 Mg150 2.013 . S
O165 C154 1.191 . S
O166 C145 1.331 1_455 S
O166 Mg152 2.081 . S
O167 Mg148 1.986 . S
O167 C154 1.307 . S
O168 C146 1.264 1_455 S
O168 Mg152 2.023 . S
O169 C145 1.244 . S
O169 Mg153 1.942 . S
O170 C146 1.273 . S
O170 Mg153 1.955 . S
O171 C144 1.312 . S
O171 Mg147 2.291 . S
O171 Mg150 2.114 . S
O172 C144 1.208 . S
O172 Mg152 2.031 . S
C173 O158 1.264 . S
C173 O160 1.273 . S
C174 O155 1.191 . S
C174 O157 1.307 1_455 S
C175 O202 1.312 . S
C175 O203 1.208 . S
C176 O197 1.331 . S
C176 O200 1.244 . S
C177 O199 1.264 . S
C177 O201 1.273 . S
Mg178 O180 1.936 . S
Mg178 O187 2.081 . S
Mg178 O189 2.023 . S
Mg178 O193 2.031 . S
Mg178 O202 2.291 . S
Mg179 O180 1.963 . S
Mg179 O190 1.942 . S
Mg179 O191 1.955 . S
Mg179 O198 1.986 . S
O180 Mg178 1.936 . S
O180 Mg179 1.963 . S
O180 Mg181 1.915 . S
Mg181 O180 1.915 . S
Mg181 O182 1.915 . S
Mg181 O186 2.013 . S
Mg181 O192 2.114 . S
Mg181 O196 2.013 . S
Mg181 O202 2.114 . S
O182 Mg181 1.915 . S
O182 Mg183 1.936 . S
O182 Mg184 1.963 . S
Mg183 O182 1.936 . S
Mg183 O192 2.291 . S
Mg183 O197 2.081 . S
Mg183 O199 2.023 . S
Mg183 O203 2.031 . S
Mg184 O182 1.963 . S
Mg184 O188 1.986 . S
Mg184 O200 1.942 . S
Mg184 O201 1.955 . S
C185 O196 1.191 . S
C185 O198 1.307 . S
O186 Mg181 2.013 . S
O186 C205 1.191 . S
O187 Mg178 2.081 . S
O187 C195 1.331 . S
O188 Mg184 1.986 . S
O188 C205 1.307 . S
O189 Mg178 2.023 . S
O189 C204 1.264 . S
O190 Mg179 1.942 . S
O190 C195 1.244 . S
O191 Mg179 1.955 . S
O191 C204 1.273 . S
O192 Mg181 2.114 . S
O192 Mg183 2.291 . S
O192 C194 1.312 . S
O193 Mg178 2.031 . S
O193 C194 1.208 . S
C194 O192 1.312 . S
C194 O193 1.208 . S
C195 O187 1.331 . S
C195 O190 1.244 . S
O196 Mg181 2.013 . S
O196 C185 1.191 . S
O197 C176 1.331 . S
O197 Mg183 2.081 . S
O198 Mg179 1.986 . S
O198 C185 1.307 . S
O199 C177 1.264 . S
O199 Mg183 2.023 . S
O200 C176 1.244 . S
O200 Mg184 1.942 . S
O201 C177 1.273 . S
O201 Mg184 1.955 . S
O202 C175 1.312 . S
O202 Mg178 2.291 . S
O202 Mg181 2.114 . S
O203 C175 1.208 . S
O203 Mg183 2.031 . S
C204 O189 1.264 . S
C204 O191 1.273 . S
C205 O186 1.191 . S
C205 O188 1.307 . S
C206 O233 1.312 . S
C206 O234 1.208 . S
C207 O228 1.331 . S
C207 O231 1.244 . S
C208 O230 1.264 . S
C208 O232 1.273 . S
Mg209 O211 1.936 . S
Mg209 O218 2.081 . S
Mg209 O220 2.023 . S
Mg209 O224 2.031 . S
Mg209 O233 2.291 . S
Mg210 O211 1.963 . S
Mg210 O221 1.942 . S
Mg210 O222 1.955 . S
Mg210 O229 1.986 . S
O211 Mg209 1.936 . S
O211 Mg210 1.963 . S
O211 Mg212 1.915 . S
Mg212 O211 1.915 . S
Mg212 O213 1.915 . S
Mg212 O217 2.013 . S
Mg212 O223 2.114 . S
Mg212 O227 2.013 . S
Mg212 O233 2.114 . S
O213 Mg212 1.915 . S
O213 Mg214 1.936 . S
O213 Mg215 1.963 . S
Mg214 O213 1.936 . S
Mg214 O223 2.291 . S
Mg214 O228 2.081 . S
Mg214 O230 2.023 . S
Mg214 O234 2.031 . S
Mg215 O213 1.963 . S
Mg215 O219 1.986 . S
Mg215 O231 1.942 . S
Mg215 O232 1.955 . S
C216 O227 1.191 . S
C216 O229 1.307 . S
O217 Mg212 2.013 . S
O217 C236 1.191 . S
O218 Mg209 2.081 . S
O218 C226 1.331 . S
O219 Mg215 1.986 . S
O219 C236 1.307 . S
O220 Mg209 2.023 . S
O220 C235 1.264 . S
O221 Mg210 1.942 . S
O221 C226 1.244 . S
O222 Mg210 1.955 . S
O222 C235 1.273 . S
O223 Mg212 2.114 . S
O223 Mg214 2.291 . S
O223 C225 1.312 . S
O224 Mg209 2.031 . S
O224 C225 1.208 . S
C225 O223 1.312 . S
C225 O224 1.208 . S
C226 O218 1.331 . S
C226 O221 1.244 . S
O227 Mg212 2.013 . S
O227 C216 1.191 . S
O228 C207 1.331 . S
O228 Mg214 2.081 . S
O229 Mg210 1.986 . S
O229 C216 1.307 . S
O230 C208 1.264 . S
O230 Mg214 2.023 . S
O231 C207 1.244 . S
O231 Mg215 1.942 . S
O232 C208 1.273 . S
O232 Mg215 1.955 . S
O233 C206 1.312 . S
O233 Mg209 2.291 . S
O233 Mg212 2.114 . S
O234 C206 1.208 . S
O234 Mg214 2.031 . S
C235 O220 1.264 . S
C235 O222 1.273 . S
C236 O217 1.191 . S
C236 O219 1.307 . S
C237 O264 1.312 . S
C237 O265 1.208 . S
C238 O259 1.331 . S
C238 O262 1.244 . S
C239 O261 1.264 . S
C239 O263 1.273 . S
Mg240 O242 1.936 . S
Mg240 O249 2.081 . S
Mg240 O251 2.023 . S
Mg240 O255 2.031 . S
Mg240 O264 2.291 . S
Mg241 O242 1.963 1_655 S
Mg241 O252 1.942 . S
Mg241 O253 1.955 . S
Mg241 O260 1.986 . S
O242 Mg240 1.936 . S
O242 Mg241 1.963 1_455 S
O242 Mg243 1.915 . S
Mg243 O242 1.915 . S
Mg243 O244 1.915 . S
Mg243 O248 2.013 . S
Mg243 O254 2.114 . S
Mg243 O258 2.013 . S
Mg243 O264 2.114 . S
O244 Mg243 1.915 . S
O244 Mg245 1.936 . S
O244 Mg246 1.963 . S
Mg245 O244 1.936 . S
Mg245 O254 2.291 . S
Mg245 O259 2.081 . S
Mg245 O261 2.023 . S
Mg245 O265 2.031 . S
Mg246 O244 1.963 . S
Mg246 O250 1.986 . S
Mg246 O262 1.942 . S
Mg246 O263 1.955 . S
C247 O258 1.191 . S
C247 O260 1.307 1_455 S
O248 Mg243 2.013 . S
O248 C267 1.191 . S
O249 Mg240 2.081 . S
O249 C257 1.331 1_455 S
O250 Mg246 1.986 . S
O250 C267 1.307 . S
O251 Mg240 2.023 . S
O251 C266 1.264 1_455 S
O252 Mg241 1.942 . S
O252 C257 1.244 . S
O253 Mg241 1.955 . S
O253 C266 1.273 . S
O254 Mg243 2.114 . S
O254 Mg245 2.291 . S
O254 C256 1.312 . S
O255 Mg240 2.031 . S
O255 C256 1.208 . S
C256 O254 1.312 . S
C256 O255 1.208 . S
C257 O249 1.331 1_655 S
C257 O252 1.244 . S
O258 Mg243 2.013 . S
O258 C247 1.191 . S
O259 C238 1.331 . S
O259 Mg245 2.081 . S
O260 Mg241 1.986 . S
O260 C247 1.307 1_655 S
O261 C239 1.264 . S
O261 Mg245 2.023 . S
O262 C238 1.244 . S
O262 Mg246 1.942 . S
O263 C239 1.273 . S
O263 Mg246 1.955 . S
O264 C237 1.312 . S
O264 Mg240 2.291 . S
O264 Mg243 2.114 . S
O265 C237 1.208 . S
O265 Mg245 2.031 . S
C266 O251 1.264 1_655 S
C266 O253 1.273 . S
C267 O248 1.191 . S
C267 O250 1.307 . S
H268 C280 0.930 1_545 S
H269 C282 0.930 . S
H270 C283 0.930 . S
H271 C287 0.959 1_565 S
H272 C287 0.959 . S
H273 C287 0.961 . S
H274 C288 0.960 . S
H275 C288 0.961 . S
H276 C288 0.959 1_565 S
H277 C291 0.929 . S
H278 C292 0.931 . S
H279 C294 0.930 . S
C280 H268 0.930 1_565 S
C280 C281 1.399 . S
C280 C285 1.399 . S
C281 C280 1.399 . S
C281 C282 1.376 . S
C282 H269 0.930 . S
C282 C281 1.376 . S
C282 C283 1.388 . S
C283 H270 0.930 . S
C283 C282 1.388 . S
C283 C284 1.390 . S
C284 C283 1.390 . S
C284 C285 1.394 . S
C284 C290 1.465 . S
C285 C280 1.399 . S
C285 C284 1.394 . S
C285 C286 1.516 . S
C286 C285 1.516 . S
C286 C287 1.502 1_565 S
C286 C288 1.561 1_565 S
C286 C289 1.526 . S
C287 H271 0.959 1_545 S
C287 H272 0.959 . S
C287 H273 0.961 . S
C287 C286 1.502 1_545 S
C288 H274 0.960 . S
C288 H275 0.961 . S
C288 H276 0.959 1_545 S
C288 C286 1.561 1_545 S
C289 C286 1.526 . S
C289 C290 1.396 . S
C289 C294 1.390 . S
C290 C284 1.465 . S
C290 C289 1.396 . S
C290 C291 1.399 . S
C291 H277 0.929 . S
C291 C290 1.399 . S
C291 C292 1.385 . S
C292 H278 0.931 . S
C292 C291 1.385 . S
C292 C293 1.389 . S
C293 C292 1.389 . S
C293 C294 1.387 . S
C294 H279 0.930 . S
C294 C289 1.390 . S
C294 C293 1.387 . S
H295 C307 0.930 . S
H296 C309 0.930 . S
H297 C310 0.930 . S
H298 C314 0.959 . S
H299 C314 0.959 . S
H300 C314 0.961 . S
H301 C315 0.960 1_565 S
H302 C315 0.961 . S
H303 C315 0.959 1_565 S
H304 C318 0.929 . S
H305 C319 0.931 . S
H306 C321 0.930 . S
C307 H295 0.930 . S
C307 C308 1.399 . S
C307 C312 1.399 . S
C308 C307 1.399 . S
C308 C309 1.376 . S
C309 H296 0.930 . S
C309 C308 1.376 . S
C309 C310 1.388 . S
C310 H297 0.930 . S
C310 C309 1.388 . S
C310 C311 1.390 . S
C311 C310 1.390 . S
C311 C312 1.394 . S
C311 C317 1.465 . S
C312 C307 1.399 . S
C312 C311 1.394 . S
C312 C313 1.516 . S
C313 C312 1.516 . S
C313 C314 1.502 1_565 S
C313 C315 1.561 1_565 S
C313 C316 1.526 1_565 S
C314 H298 0.959 . S
C314 H299 0.959 . S
C314 H300 0.961 . S
C314 C313 1.502 1_545 S
C315 H301 0.960 1_545 S
C315 H302 0.961 . S
C315 H303 0.959 1_545 S
C315 C313 1.561 1_545 S
C316 C313 1.526 1_545 S
C316 C317 1.396 1_545 S
C316 C321 1.390 . S
C317 C311 1.465 . S
C317 C316 1.396 1_565 S
C317 C318 1.399 . S
C318 H304 0.929 . S
C318 C317 1.399 . S
C318 C319 1.385 1_565 S
C319 H305 0.931 . S
C319 C318 1.385 1_545 S
C319 C320 1.389 . S
C320 C319 1.389 . S
C320 C321 1.387 . S
C321 H306 0.930 . S
C321 C316 1.390 . S
C321 C320 1.387 . S
H322 C334 0.930 . S
H323 C336 0.930 1_554 S
H324 C337 0.930 . S
H325 C341 0.959 . S
H326 C341 0.959 . S
H327 C341 0.961 . S
H328 C342 0.960 . S
H329 C342 0.961 . S
H330 C342 0.959 . S
H331 C345 0.929 . S
H332 C346 0.931 . S
H333 C348 0.930 . S
C334 H322 0.930 . S
C334 C335 1.399 . S
C334 C339 1.399 . S
C335 C334 1.399 . S
C335 C336 1.376 . S
C336 H323 0.930 1_556 S
C336 C335 1.376 . S
C336 C337 1.388 . S
C337 H324 0.930 . S
C337 C336 1.388 . S
C337 C338 1.390 . S
C338 C337 1.390 . S
C338 C339 1.394 . S
C338 C344 1.465 . S
C339 C334 1.399 . S
C339 C338 1.394 . S
C339 C340 1.516 . S
C340 C339 1.516 . S
C340 C341 1.502 . S
C340 C342 1.561 1_545 S
C340 C343 1.526 . S
C341 H325 0.959 . S
C341 H326 0.959 . S
C341 H327 0.961 . S
C341 C340 1.502 . S
C342 H328 0.960 . S
C342 H329 0.961 . S
C342 H330 0.959 . S
C342 C340 1.561 1_565 S
C343 C340 1.526 . S
C343 C344 1.396 . S
C343 C348 1.390 . S
C344 C338 1.465 . S
C344 C343 1.396 . S
C344 C345 1.399 . S
C345 H331 0.929 . S
C345 C344 1.399 . S
C345 C346 1.385 . S
C346 H332 0.931 . S
C346 C345 1.385 . S
C346 C347 1.389 . S
C347 C346 1.389 . S
C347 C348 1.387 . S
C348 H333 0.930 . S
C348 C343 1.390 . S
C348 C347 1.387 . S
H349 C361 0.930 . S
H350 C363 0.930 . S
H351 C364 0.930 . S
H352 C368 0.959 . S
H353 C368 0.959 . S
H354 C368 0.961 . S
H355 C369 0.960 . S
H356 C369 0.961 . S
H357 C369 0.959 . S
H358 C372 0.929 . S
H359 C373 0.931 . S
H360 C375 0.930 . S
C361 H349 0.930 . S
C361 C362 1.399 . S
C361 C366 1.399 . S
C362 C361 1.399 . S
C362 C363 1.376 . S
C363 H350 0.930 . S
C363 C362 1.376 . S
C363 C364 1.388 . S
C364 H351 0.930 . S
C364 C363 1.388 . S
C364 C365 1.390 . S
C365 C364 1.390 . S
C365 C366 1.394 . S
C365 C371 1.465 1_545 S
C366 C361 1.399 . S
C366 C365 1.394 . S
C366 C367 1.516 . S
C367 C366 1.516 . S
C367 C368 1.502 . S
C367 C369 1.561 . S
C367 C370 1.526 . S
C368 H352 0.959 . S
C368 H353 0.959 . S
C368 H354 0.961 . S
C368 C367 1.502 . S
C369 H355 0.960 . S
C369 H356 0.961 . S
C369 H357 0.959 . S
C369 C367 1.561 . S
C370 C367 1.526 . S
C370 C371 1.396 1_545 S
C370 C375 1.390 1_545 S
C371 C365 1.465 1_565 S
C371 C370 1.396 1_565 S
C371 C372 1.399 . S
C372 H358 0.929 . S
C372 C371 1.399 . S
C372 C373 1.385 . S
C373 H359 0.931 . S
C373 C372 1.385 . S
C373 C374 1.389 . S
C374 C373 1.389 . S
C374 C375 1.387 . S
C375 H360 0.930 . S
C375 C370 1.390 1_565 S
C375 C374 1.387 . S
H376 C388 0.930 . S
H377 C390 0.930 . S
H378 C391 0.930 . S
H379 C395 0.959 . S
H380 C395 0.959 . S
H381 C395 0.961 . S
H382 C396 0.960 1_565 S
H383 C396 0.961 . S
H384 C396 0.959 1_565 S
H385 C399 0.929 . S
H386 C400 0.931 . S
H387 C402 0.930 . S
C388 H376 0.930 . S
C388 C389 1.399 . S
C388 C393 1.399 . S
C389 C388 1.399 . S
C389 C390 1.376 . S
C390 H377 0.930 . S
C390 C389 1.376 . S
C390 C391 1.388 . S
C391 H378 0.930 . S
C391 C390 1.388 . S
C391 C392 1.390 . S
C392 C391 1.390 . S
C392 C393 1.394 . S
C392 C398 1.465 . S
C393 C388 1.399 . S
C393 C392 1.394 . S
C393 C394 1.516 . S
C394 C393 1.516 . S
C394 C395 1.502 . S
C394 C396 1.561 . S
C394 C397 1.526 . S
C395 H379 0.959 . S
C395 H380 0.959 . S
C395 H381 0.961 . S
C395 C394 1.502 . S
C396 H382 0.960 1_545 S
C396 H383 0.961 . S
C396 H384 0.959 1_545 S
C396 C394 1.561 . S
C397 C394 1.526 . S
C397 C398 1.396 . S
C397 C402 1.390 . S
C398 C392 1.465 . S
C398 C397 1.396 . S
C398 C399 1.399 . S
C399 H385 0.929 . S
C399 C398 1.399 . S
C399 C400 1.385 . S
C400 H386 0.931 . S
C400 C399 1.385 . S
C400 C401 1.389 . S
C401 C400 1.389 . S
C401 C402 1.387 . S
C402 H387 0.930 . S
C402 C397 1.390 . S
C402 C401 1.387 . S
H403 C415 0.930 . S
H404 C417 0.930 . S
H405 C418 0.930 . S
H406 C422 0.959 . S
H407 C422 0.959 1_545 S
H408 C422 0.961 . S
H409 C423 0.965 . S
H410 C423 0.961 . S
H411 C423 0.959 . S
H412 C426 0.929 1_565 S
H413 C427 0.931 . S
H414 C429 0.930 . S
C415 H403 0.930 . S
C415 C416 1.399 . S
C415 C420 1.399 . S
C416 C415 1.399 . S
C416 C417 1.376 . S
C417 H404 0.930 . S
C417 C416 1.376 . S
C417 C418 1.388 . S
C418 H405 0.930 . S
C418 C417 1.388 . S
C418 C419 1.390 . S
C419 C418 1.390 . S
C419 C420 1.394 . S
C419 C425 1.465 . S
C420 C415 1.399 . S
C420 C419 1.394 . S
C420 C421 1.516 . S
C421 C420 1.516 . S
C421 C422 1.502 . S
C421 C423 1.561 1_565 S
C421 C424 1.526 1_565 S
C422 H406 0.959 . S
C422 H407 0.959 1_565 S
C422 H408 0.961 . S
C422 C421 1.502 . S
C423 H409 0.965 . S
C423 H410 0.961 . S
C423 H411 0.959 . S
C423 C421 1.561 1_545 S
C424 C421 1.526 1_545 S
C424 C425 1.396 1_545 S
C424 C429 1.390 . S
C425 C419 1.465 . S
C425 C424 1.396 1_565 S
C425 C426 1.399 1_565 S
C426 H412 0.929 1_545 S
C426 C425 1.399 1_545 S
C426 C427 1.385 . S
C427 H413 0.931 . S
C427 C426 1.385 . S
C427 C428 1.389 . S
C428 C427 1.389 . S
C428 C429 1.387 . S
C429 H414 0.930 . S
C429 C424 1.390 . S
C429 C428 1.387 . S
H430 C442 0.930 . S
H431 C444 0.930 1_545 S
H432 C445 0.930 1_545 S
H433 C449 0.959 . S
H434 C449 0.959 . S
H435 C449 0.961 . S
H436 C450 0.960 . S
H437 C450 0.961 . S
H438 C450 0.959 . S
H439 C453 0.929 . S
H440 C454 0.931 . S
H441 C456 0.930 . S
C442 H430 0.930 . S
C442 C443 1.399 . S
C442 C447 1.399 . S
C443 C442 1.399 . S
C443 C444 1.376 . S
C444 H431 0.930 1_565 S
C444 C443 1.376 . S
C444 C445 1.388 . S
C445 H432 0.930 1_565 S
C445 C444 1.388 . S
C445 C446 1.390 . S
C446 C445 1.390 . S
C446 C447 1.394 . S
C446 C452 1.465 . S
C447 C442 1.399 . S
C447 C446 1.394 . S
C447 C448 1.516 . S
C448 C447 1.516 . S
C448 C449 1.502 . S
C448 C450 1.561 . S
C448 C451 1.526 . S
C449 H433 0.959 . S
C449 H434 0.959 . S
C449 H435 0.961 . S
C449 C448 1.502 . S
C450 H436 0.960 . S
C450 H437 0.961 . S
C450 H438 0.959 . S
C450 C448 1.561 . S
C451 C448 1.526 . S
C451 C452 1.396 . S
C451 C456 1.390 . S
C452 C446 1.465 . S
C452 C451 1.396 . S
C452 C453 1.399 . S
C453 H439 0.929 . S
C453 C452 1.399 . S
C453 C454 1.385 . S
C454 H440 0.931 . S
C454 C453 1.385 . S
C454 C455 1.389 . S
C455 C454 1.389 . S
C455 C456 1.387 . S
C456 H441 0.930 . S
C456 C451 1.390 . S
C456 C455 1.387 . S
H457 C469 0.930 . S
H458 C471 0.930 . S
H459 C472 0.930 . S
H460 C476 0.959 . S
H461 C476 0.959 . S
H462 C476 0.961 . S
H463 C477 0.960 1_545 S
H464 C477 0.961 . S
H465 C477 0.959 1_545 S
H466 C480 0.929 . S
H467 C481 0.931 . S
H468 C483 0.930 . S
C469 H457 0.930 . S
C469 C470 1.399 . S
C469 C474 1.399 . S
C470 C469 1.399 . S
C470 C471 1.376 . S
C471 H458 0.930 . S
C471 C470 1.376 . S
C471 C472 1.388 . S
C472 H459 0.930 . S
C472 C471 1.388 . S
C472 C473 1.390 . S
C473 C472 1.390 . S
C473 C474 1.394 . S
C473 C479 1.465 . S
C474 C469 1.399 . S
C474 C473 1.394 . S
C474 C475 1.516 . S
C475 C474 1.516 . S
C475 C476 1.502 1_545 S
C475 C477 1.561 1_545 S
C475 C478 1.526 1_545 S
C476 H460 0.959 . S
C476 H461 0.959 . S
C476 H462 0.961 . S
C476 C475 1.502 1_565 S
C477 H463 0.960 1_565 S
C477 H464 0.961 . S
C477 H465 0.959 1_565 S
C477 C475 1.561 1_565 S
C478 C475 1.526 1_565 S
C478 C479 1.396 1_565 S
C478 C483 1.390 . S
C479 C473 1.465 . S
C479 C478 1.396 1_545 S
C479 C480 1.399 . S
C480 H466 0.929 . S
C480 C479 1.399 . S
C480 C481 1.385 1_545 S
C481 H467 0.931 . S
C481 C480 1.385 1_565 S
C481 C482 1.389 . S
C482 C481 1.389 . S
C482 C483 1.387 . S
C483 H468 0.930 . S
C483 C478 1.390 . S
C483 C482 1.387 . S
H484 C496 0.930 . S
H485 C498 0.930 1_565 S
H486 C499 0.930 1_565 S
H487 C503 0.959 . S
H488 C503 0.959 . S
H489 C503 0.961 . S
H490 C504 0.960 . S
H491 C504 0.961 . S
H492 C504 0.959 . S
H493 C507 0.929 . S
H494 C508 0.931 . S
H495 C510 0.930 . S
C496 H484 0.930 . S
C496 C497 1.399 . S
C496 C501 1.399 . S
C497 C496 1.399 . S
C497 C498 1.376 . S
C498 H485 0.930 1_545 S
C498 C497 1.376 . S
C498 C499 1.388 . S
C499 H486 0.930 1_545 S
C499 C498 1.388 . S
C499 C500 1.390 . S
C500 C499 1.390 . S
C500 C501 1.394 . S
C500 C506 1.465 . S
C501 C496 1.399 . S
C501 C500 1.394 . S
C501 C502 1.516 . S
C502 C501 1.516 . S
C502 C503 1.502 . S
C502 C504 1.561 . S
C502 C505 1.526 . S
C503 H487 0.959 . S
C503 H488 0.959 . S
C503 H489 0.961 . S
C503 C502 1.502 . S
C504 H490 0.960 . S
C504 H491 0.961 . S
C504 H492 0.959 . S
C504 C502 1.561 . S
C505 C502 1.526 . S
C505 C506 1.396 . S
C505 C510 1.390 . S
C506 C500 1.465 . S
C506 C505 1.396 . S
C506 C507 1.399 . S
C507 H493 0.929 . S
C507 C506 1.399 . S
C507 C508 1.385 . S
C508 H494 0.931 . S
C508 C507 1.385 . S
C508 C509 1.389 . S
C509 C508 1.389 . S
C509 C510 1.387 . S
C510 H495 0.930 . S
C510 C505 1.390 . S
C510 C509 1.387 . S
H511 C523 0.930 . S
H512 C525 0.930 1_545 S
H513 C526 0.930 . S
H514 C530 0.962 . S
H515 C530 0.955 1_565 S
H516 C530 0.970 . S
H517 C531 0.960 . S
H518 C531 0.961 . S
H519 C531 0.959 . S
H520 C534 0.929 . S
H521 C535 0.931 . S
H522 C537 0.930 . S
C523 H511 0.930 . S
C523 C524 1.399 . S
C523 C528 1.399 1_545 S
C524 C523 1.399 . S
C524 C525 1.376 1_545 S
C525 H512 0.930 1_565 S
C525 C524 1.376 1_565 S
C525 C526 1.388 . S
C526 H513 0.930 . S
C526 C525 1.388 . S
C526 C527 1.390 . S
C527 C526 1.390 . S
C527 C528 1.394 . S
C527 C533 1.465 . S
C528 C523 1.399 1_565 S
C528 C527 1.394 . S
C528 C529 1.516 . S
C529 C528 1.516 . S
C529 C530 1.494 1_565 S
C529 C531 1.561 . S
C529 C532 1.526 . S
C530 H514 0.962 . S
C530 H515 0.955 1_545 S
C530 H516 0.970 . S
C530 C529 1.494 1_545 S
C531 H517 0.960 . S
C531 H518 0.961 . S
C531 H519 0.959 . S
C531 C529 1.561 . S
C532 C529 1.526 . S
C532 C533 1.396 . S
C532 C537 1.390 . S
C533 C527 1.465 . S
C533 C532 1.396 . S
C533 C534 1.399 . S
C534 H520 0.929 . S
C534 C533 1.399 . S
C534 C535 1.385 . S
C535 H521 0.931 . S
C535 C534 1.385 . S
C535 C536 1.389 . S
C536 C535 1.389 . S
C536 C537 1.387 . S
C537 H522 0.930 . S
C537 C532 1.390 . S
C537 C536 1.387 . S
H538 C550 0.930 1_545 S
H539 C552 0.930 . S
H540 C553 0.930 . S
H541 C557 0.959 . S
H542 C557 0.959 1_455 S
H543 C557 0.961 1_545 S
H544 C558 0.960 1_545 S
H545 C558 0.961 1_545 S
H546 C558 0.959 . S
H547 C561 0.929 . S
H548 C562 0.931 . S
H549 C564 0.930 1_455 S
C550 H538 0.930 1_565 S
C550 C551 1.399 . S
C550 C555 1.399 . S
C551 C550 1.399 . S
C551 C552 1.376 . S
C552 H539 0.930 . S
C552 C551 1.376 . S
C552 C553 1.388 . S
C553 H540 0.930 . S
C553 C552 1.388 . S
C553 C554 1.390 . S
C554 C553 1.390 . S
C554 C555 1.394 . S
C554 C560 1.465 . S
C555 C550 1.399 . S
C555 C554 1.394 . S
C555 C556 1.516 . S
C556 C555 1.516 . S
C556 C557 1.502 . S
C556 C558 1.561 . S
C556 C559 1.526 . S
C557 H541 0.959 . S
C557 H542 0.959 1_655 S
C557 H543 0.961 1_565 S
C557 C556 1.502 . S
C558 H544 0.960 1_565 S
C558 H545 0.961 1_565 S
C558 H546 0.959 . S
C558 C556 1.561 . S
C559 C556 1.526 . S
C559 C560 1.396 . S
C559 C564 1.390 . S
C560 C554 1.465 . S
C560 C559 1.396 . S
C560 C561 1.399 . S
C561 H547 0.929 . S
C561 C560 1.399 . S
C561 C562 1.385 . S
C562 H548 0.931 . S
C562 C561 1.385 . S
C562 C563 1.389 . S
C563 C562 1.389 . S
C563 C564 1.387 . S
C564 H549 0.930 1_655 S
C564 C559 1.390 . S
C564 C563 1.387 . S
H565 C577 0.930 . S
H566 C579 0.930 . S
H567 C580 0.930 1_455 S
H568 C584 0.959 . S
H569 C584 0.959 . S
H570 C584 0.961 . S
H571 C585 0.960 . S
H572 C585 0.961 . S
H573 C585 0.959 . S
H574 C588 0.929 . S
H575 C589 0.931 . S
H576 C591 0.930 . S
C577 H565 0.930 . S
C577 C578 1.399 . S
C577 C582 1.399 1_565 S
C578 C577 1.399 . S
C578 C579 1.376 . S
C579 H566 0.930 . S
C579 C578 1.376 . S
C579 C580 1.388 1_565 S
C580 H567 0.930 1_655 S
C580 C579 1.388 1_545 S
C580 C581 1.390 . S
C581 C580 1.390 . S
C581 C582 1.394 . S
C581 C587 1.465 . S
C582 C577 1.399 1_545 S
C582 C581 1.394 . S
C582 C583 1.516 . S
C583 C582 1.516 . S
C583 C584 1.502 . S
C583 C585 1.561 . S
C583 C586 1.526 . S
C584 H568 0.959 . S
C584 H569 0.959 . S
C584 H570 0.961 . S
C584 C583 1.502 . S
C585 H571 0.960 . S
C585 H572 0.961 . S
C585 H573 0.959 . S
C585 C583 1.561 . S
C586 C583 1.526 . S
C586 C587 1.396 . S
C586 C591 1.390 . S
C587 C581 1.465 . S
C587 C586 1.396 . S
C587 C588 1.399 1_655 S
C588 H574 0.929 . S
C588 C587 1.399 1_455 S
C588 C589 1.385 . S
C589 H575 0.931 . S
C589 C588 1.385 . S
C589 C590 1.389 . S
C590 C589 1.389 . S
C590 C591 1.387 1_455 S
C591 H576 0.930 . S
C591 C586 1.390 . S
C591 C590 1.387 1_655 S
H592 C604 0.930 . S
H593 C606 0.930 . S
H594 C607 0.930 . S
H595 C611 0.959 . S
H596 C611 0.959 . S
H597 C611 0.961 . S
H598 C612 0.960 . S
H599 C612 0.961 . S
H600 C612 0.959 . S
H601 C615 0.929 . S
H602 C616 0.931 . S
H603 C618 0.930 . S
C604 H592 0.930 . S
C604 C605 1.399 . S
C604 C609 1.399 . S
C605 C604 1.399 . S
C605 C606 1.376 . S
C606 H593 0.930 . S
C606 C605 1.376 . S
C606 C607 1.388 . S
C607 H594 0.930 . S
C607 C606 1.388 . S
C607 C608 1.390 . S
C608 C607 1.390 . S
C608 C609 1.394 . S
C608 C614 1.465 . S
C609 C604 1.399 . S
C609 C608 1.394 . S
C609 C610 1.516 . S
C610 C609 1.516 . S
C610 C611 1.502 . S
C610 C612 1.561 . S
C610 C613 1.526 . S
C611 H595 0.959 . S
C611 H596 0.959 . S
C611 H597 0.961 . S
C611 C610 1.502 . S
C612 H598 0.960 . S
C612 H599 0.961 . S
C612 H600 0.959 . S
C612 C610 1.561 . S
C613 C610 1.526 . S
C613 C614 1.396 . S
C613 C618 1.390 . S
C614 C608 1.465 . S
C614 C613 1.396 . S
C614 C615 1.399 . S
C615 H601 0.929 . S
C615 C614 1.399 . S
C615 C616 1.385 . S
C616 H602 0.931 . S
C616 C615 1.385 . S
C616 C617 1.389 . S
C617 C616 1.389 . S
C617 C618 1.387 . S
C618 H603 0.930 . S
C618 C613 1.390 . S
C618 C617 1.387 . S
H619 C631 0.930 . S
H620 C633 0.930 . S
H621 C634 0.930 . S
H622 C638 0.959 1_455 S
H623 C638 0.959 1_455 S
H624 C638 0.961 . S
H625 C639 0.960 . S
H626 C639 0.961 . S
H627 C639 0.959 . S
H628 C642 0.929 . S
H629 C643 0.931 . S
H630 C645 0.930 1_455 S
C631 H619 0.930 . S
C631 C632 1.399 1_565 S
C631 C636 1.399 . S
C632 C631 1.399 1_545 S
C632 C633 1.376 . S
C633 H620 0.930 . S
C633 C632 1.376 . S
C633 C634 1.388 . S
C634 H621 0.930 . S
C634 C633 1.388 . S
C634 C635 1.390 1_545 S
C635 C634 1.390 1_565 S
C635 C636 1.394 . S
C635 C641 1.465 . S
C636 C631 1.399 . S
C636 C635 1.394 . S
C636 C637 1.516 . S
C637 C636 1.516 . S
C637 C638 1.502 . S
C637 C639 1.561 . S
C637 C640 1.526 . S
C638 H622 0.959 1_655 S
C638 H623 0.959 1_655 S
C638 H624 0.961 . S
C638 C637 1.502 . S
C639 H625 0.960 . S
C639 H626 0.961 . S
C639 H627 0.959 . S
C639 C637 1.561 . S
C640 C637 1.526 . S
C640 C641 1.396 . S
C640 C645 1.390 . S
C641 C635 1.465 . S
C641 C640 1.396 . S
C641 C642 1.399 . S
C642 H628 0.929 . S
C642 C641 1.399 . S
C642 C643 1.385 . S
C643 H629 0.931 . S
C643 C642 1.385 . S
C643 C644 1.386 1_655 S
C644 C643 1.386 1_455 S
C644 C645 1.385 1_455 S
C645 H630 0.930 1_655 S
C645 C640 1.390 . S
C645 C644 1.385 1_655 S
H646 C658 0.930 1_565 S
H647 C660 0.930 . S
H648 C661 0.930 . S
H649 C665 0.959 . S
H650 C665 0.959 1_565 S
H651 C665 0.961 1_565 S
H652 C666 0.960 1_565 S
H653 C666 0.961 . S
H654 C666 0.959 . S
H655 C669 0.929 . S
H656 C670 0.931 . S
H657 C672 0.930 1_455 S
C658 H646 0.930 1_545 S
C658 C659 1.399 . S
C658 C663 1.399 . S
C659 C658 1.399 . S
C659 C660 1.376 . S
C660 H647 0.930 . S
C660 C659 1.376 . S
C660 C661 1.388 . S
C661 H648 0.930 . S
C661 C660 1.388 . S
C661 C662 1.390 . S
C662 C661 1.390 . S
C662 C663 1.394 . S
C662 C668 1.465 . S
C663 C658 1.399 . S
C663 C662 1.394 . S
C663 C664 1.516 . S
C664 C663 1.516 . S
C664 C665 1.502 . S
C664 C666 1.561 . S
C664 C667 1.526 . S
C665 H649 0.959 . S
C665 H650 0.959 1_545 S
C665 H651 0.961 1_545 S
C665 C664 1.502 . S
C666 H652 0.960 1_545 S
C666 H653 0.961 . S
C666 H654 0.959 . S
C666 C664 1.561 . S
C667 C664 1.526 . S
C667 C668 1.396 . S
C667 C672 1.390 . S
C668 C662 1.465 . S
C668 C667 1.396 . S
C668 C669 1.399 . S
C669 H655 0.929 . S
C669 C668 1.399 . S
C669 C670 1.385 . S
C670 H656 0.931 . S
C670 C669 1.385 . S
C670 C671 1.390 1_655 S
C671 C670 1.390 1_455 S
C671 C672 1.387 1_455 S
C672 H657 0.930 1_655 S
C672 C667 1.390 . S
C672 C671 1.387 1_655 S
H673 C685 0.930 . S
H674 C687 0.930 . S
H675 C688 0.930 . S
H676 C692 0.959 . S
H677 C692 0.959 . S
H678 C692 0.961 . S
H679 C693 0.960 . S
H680 C693 0.961 . S
H681 C693 0.959 . S
H682 C696 0.929 . S
H683 C697 0.931 . S
H684 C699 0.930 . S
C685 H673 0.930 . S
C685 C686 1.399 1_545 S
C685 C690 1.399 . S
C686 C685 1.399 1_565 S
C686 C687 1.376 . S
C687 H674 0.930 . S
C687 C686 1.376 . S
C687 C688 1.388 . S
C688 H675 0.930 . S
C688 C687 1.388 . S
C688 C689 1.390 1_565 S
C689 C688 1.390 1_545 S
C689 C690 1.394 . S
C689 C695 1.465 . S
C690 C685 1.399 . S
C690 C689 1.394 . S
C690 C691 1.516 . S
C691 C690 1.516 . S
C691 C692 1.502 . S
C691 C693 1.561 . S
C691 C694 1.526 . S
C692 H676 0.959 . S
C692 H677 0.959 . S
C692 H678 0.961 . S
C692 C691 1.502 . S
C693 H679 0.960 . S
C693 H680 0.961 . S
C693 H681 0.959 . S
C693 C691 1.561 . S
C694 C691 1.526 . S
C694 C695 1.396 . S
C694 C699 1.390 . S
C695 C689 1.465 . S
C695 C694 1.396 . S
C695 C696 1.399 . S
C696 H682 0.929 . S
C696 C695 1.399 . S
C696 C697 1.385 . S
C697 H683 0.931 . S
C697 C696 1.385 . S
C697 C698 1.389 . S
C698 C697 1.389 . S
C698 C699 1.387 . S
C699 H684 0.930 . S
C699 C694 1.390 . S
C699 C698 1.387 . S
H700 C712 0.930 . S
H701 C714 0.930 . S
H702 C715 0.930 . S
H703 C719 0.959 . S
H704 C719 0.959 . S
H705 C719 0.961 . S
H706 C720 0.960 . S
H707 C720 0.961 . S
H708 C720 0.959 . S
H709 C723 0.929 . S
H710 C724 0.931 . S
H711 C726 0.930 . S
C712 H700 0.930 . S
C712 C713 1.399 . S
C712 C717 1.399 . S
C713 C712 1.399 . S
C713 C714 1.376 . S
C714 H701 0.930 . S
C714 C713 1.376 . S
C714 C715 1.388 . S
C715 H702 0.930 . S
C715 C714 1.388 . S
C715 C716 1.390 . S
C716 C715 1.390 . S
C716 C717 1.394 . S
C716 C722 1.465 . S
C717 C712 1.399 . S
C717 C716 1.394 . S
C717 C718 1.516 . S
C718 C717 1.516 . S
C718 C719 1.502 . S
C718 C720 1.561 . S
C718 C721 1.526 . S
C719 H703 0.959 . S
C719 H704 0.959 . S
C719 H705 0.961 . S
C719 C718 1.502 . S
C720 H706 0.960 . S
C720 H707 0.961 . S
C720 H708 0.959 . S
C720 C718 1.561 . S
C721 C718 1.526 . S
C721 C722 1.396 . S
C721 C726 1.390 . S
C722 C716 1.465 . S
C722 C721 1.396 . S
C722 C723 1.399 . S
C723 H709 0.929 . S
C723 C722 1.399 . S
C723 C724 1.385 . S
C724 H710 0.931 . S
C724 C723 1.385 . S
C724 C725 1.389 . S
C725 C724 1.389 . S
C725 C726 1.387 . S
C726 H711 0.930 . S
C726 C721 1.390 . S
C726 C725 1.387 . S
H727 C739 0.930 . S
H728 C741 0.930 . S
H729 C742 0.930 . S
H730 C746 0.958 1_455 S
H731 C746 0.958 1_455 S
H732 C746 0.960 1_455 S
H733 C747 0.960 . S
H734 C747 0.961 . S
H735 C747 0.959 . S
H736 C750 0.929 . S
H737 C751 0.931 . S
H738 C753 0.930 . S
C739 H727 0.930 . S
C739 C740 1.399 . S
C739 C744 1.399 . S
C740 C739 1.399 . S
C740 C741 1.376 . S
C741 H728 0.930 . S
C741 C740 1.376 . S
C741 C742 1.388 . S
C742 H729 0.930 . S
C742 C741 1.388 . S
C742 C743 1.390 . S
C743 C742 1.390 . S
C743 C744 1.394 . S
C743 C749 1.465 . S
C744 C739 1.399 . S
C744 C743 1.394 . S
C744 C745 1.516 . S
C745 C744 1.516 . S
C745 C746 1.505 . S
C745 C747 1.561 . S
C745 C748 1.526 . S
C746 H730 0.958 1_655 S
C746 H731 0.958 1_655 S
C746 H732 0.960 1_655 S
C746 C745 1.505 . S
C747 H733 0.960 . S
C747 H734 0.961 . S
C747 H735 0.959 . S
C747 C745 1.561 . S
C748 C745 1.526 . S
C748 C749 1.396 . S
C748 C753 1.390 . S
C749 C743 1.465 . S
C749 C748 1.396 . S
C749 C750 1.399 . S
C750 H736 0.929 . S
C750 C749 1.399 . S
C750 C751 1.385 . S
C751 H737 0.931 . S
C751 C750 1.385 . S
C751 C752 1.389 . S
C752 C751 1.389 . S
C752 C753 1.387 . S
C753 H738 0.930 . S
C753 C748 1.390 . S
C753 C752 1.387 . S
H754 C766 0.930 . S
H755 C768 0.930 1_455 S
H756 C769 0.930 . S
H757 C773 0.959 . S
H758 C773 0.959 . S
H759 C773 0.961 . S
H760 C774 0.960 . S
H761 C774 0.961 . S
H762 C774 0.959 . S
H763 C777 0.929 . S
H764 C778 0.931 . S
H765 C780 0.930 . S
C766 H754 0.930 . S
C766 C767 1.394 1_655 S
C766 C771 1.399 . S
C767 C766 1.394 1_455 S
C767 C768 1.374 1_455 S
C768 H755 0.930 1_655 S
C768 C767 1.374 1_655 S
C768 C769 1.388 . S
C769 H756 0.930 . S
C769 C768 1.388 . S
C769 C770 1.390 . S
C770 C769 1.390 . S
C770 C771 1.394 . S
C770 C776 1.465 . S
C771 C766 1.399 . S
C771 C770 1.394 . S
C771 C772 1.516 . S
C772 C771 1.516 . S
C772 C773 1.502 . S
C772 C774 1.561 . S
C772 C775 1.526 . S
C773 H757 0.959 . S
C773 H758 0.959 . S
C773 H759 0.961 . S
C773 C772 1.502 . S
C774 H760 0.960 . S
C774 H761 0.961 . S
C774 H762 0.959 . S
C774 C772 1.561 . S
C775 C772 1.526 . S
C775 C776 1.396 . S
C775 C780 1.390 . S
C776 C770 1.465 . S
C776 C775 1.396 . S
C776 C777 1.399 . S
C777 H763 0.929 . S
C777 C776 1.399 . S
C777 C778 1.385 . S
C778 H764 0.931 . S
C778 C777 1.385 . S
C778 C779 1.389 . S
C779 C778 1.389 . S
C779 C780 1.387 . S
C780 H765 0.930 . S
C780 C775 1.390 . S
C780 C779 1.387 . S
H781 C793 0.930 . S
H782 C795 0.930 . S
H783 C796 0.930 . S
H784 C800 0.959 . S
H785 C800 0.959 . S
H786 C800 0.961 . S
H787 C801 0.960 . S
H788 C801 0.961 . S
H789 C801 0.959 . S
H790 C804 0.929 . S
H791 C805 0.931 . S
H792 C807 0.930 . S
C793 H781 0.930 . S
C793 C794 1.399 . S
C793 C798 1.399 . S
C794 C793 1.399 . S
C794 C795 1.376 . S
C795 H782 0.930 . S
C795 C794 1.376 . S
C795 C796 1.388 . S
C796 H783 0.930 . S
C796 C795 1.388 . S
C796 C797 1.390 . S
C797 C796 1.390 . S
C797 C798 1.394 . S
C797 C803 1.465 . S
C798 C793 1.399 . S
C798 C797 1.394 . S
C798 C799 1.516 . S
C799 C798 1.516 . S
C799 C800 1.502 . S
C799 C801 1.561 . S
C799 C802 1.526 . S
C800 H784 0.959 . S
C800 H785 0.959 . S
C800 H786 0.961 . S
C800 C799 1.502 . S
C801 H787 0.960 . S
C801 H788 0.961 . S
C801 H789 0.959 . S
C801 C799 1.561 . S
C802 C799 1.526 . S
C802 C803 1.396 . S
C802 C807 1.390 . S
C803 C797 1.465 . S
C803 C802 1.396 . S
C803 C804 1.399 . S
C804 H790 0.929 . S
C804 C803 1.399 . S
C804 C805 1.385 . S
C805 H791 0.931 . S
C805 C804 1.385 . S
C805 C806 1.389 . S
C806 C805 1.389 . S
C806 C807 1.387 . S
C807 H792 0.930 . S
C807 C802 1.390 . S
C807 C806 1.387 . S
H808 C820 0.930 . S
H809 C822 0.930 . S
H810 C823 0.930 . S
H811 C827 0.959 . S
H812 C827 0.959 . S
H813 C827 0.961 . S
H814 C828 0.960 . S
H815 C828 0.961 . S
H816 C828 0.959 . S
H817 C831 0.929 . S
H818 C832 0.931 . S
H819 C834 0.930 . S
C820 H808 0.930 . S
C820 C821 1.399 . S
C820 C825 1.399 . S
C821 C820 1.399 . S
C821 C822 1.376 . S
C822 H809 0.930 . S
C822 C821 1.376 . S
C822 C823 1.388 . S
C823 H810 0.930 . S
C823 C822 1.388 . S
C823 C824 1.390 . S
C824 C823 1.390 . S
C824 C825 1.394 . S
C824 C830 1.465 . S
C825 C820 1.399 . S
C825 C824 1.394 . S
C825 C826 1.516 . S
C826 C825 1.516 . S
C826 C827 1.502 . S
C826 C828 1.561 . S
C826 C829 1.526 . S
C827 H811 0.959 . S
C827 H812 0.959 . S
C827 H813 0.961 . S
C827 C826 1.502 . S
C828 H814 0.960 . S
C828 H815 0.961 . S
C828 H816 0.959 . S
C828 C826 1.561 . S
C829 C826 1.526 . S
C829 C830 1.396 . S
C829 C834 1.390 . S
C830 C824 1.465 . S
C830 C829 1.396 . S
C830 C831 1.399 . S
C831 H817 0.929 . S
C831 C830 1.399 . S
C831 C832 1.385 . S
C832 H818 0.931 . S
C832 C831 1.385 . S
C832 C833 1.389 . S
C833 C832 1.389 . S
C833 C834 1.387 . S
C834 H819 0.930 . S
C834 C829 1.390 . S
C834 C833 1.387 . S
H835 C847 0.930 . S
H836 C849 0.930 . S
H837 C850 0.930 . S
H838 C854 0.959 . S
H839 C854 0.959 . S
H840 C854 0.961 . S
H841 C855 0.960 . S
H842 C855 0.961 . S
H843 C855 0.959 . S
H844 C858 0.929 . S
H845 C859 0.931 . S
H846 C861 0.930 . S
C847 H835 0.930 . S
C847 C848 1.399 . S
C847 C852 1.399 . S
C848 C847 1.399 . S
C848 C849 1.376 . S
C849 H836 0.930 . S
C849 C848 1.376 . S
C849 C850 1.388 . S
C850 H837 0.930 . S
C850 C849 1.388 . S
C850 C851 1.390 . S
C851 C850 1.390 . S
C851 C852 1.394 . S
C851 C857 1.465 . S
C852 C847 1.399 . S
C852 C851 1.394 . S
C852 C853 1.516 . S
C853 C852 1.516 . S
C853 C854 1.502 . S
C853 C855 1.561 . S
C853 C856 1.526 . S
C854 H838 0.959 . S
C854 H839 0.959 . S
C854 H840 0.961 . S
C854 C853 1.502 . S
C855 H841 0.960 . S
C855 H842 0.961 . S
C855 H843 0.959 . S
C855 C853 1.561 . S
C856 C853 1.526 . S
C856 C857 1.396 . S
C856 C861 1.390 . S
C857 C851 1.465 . S
C857 C856 1.396 . S
C857 C858 1.399 . S
C858 H844 0.929 . S
C858 C857 1.399 . S
C858 C859 1.385 . S
C859 H845 0.931 . S
C859 C858 1.385 . S
C859 C860 1.389 . S
C860 C859 1.389 . S
C860 C861 1.387 . S
C861 H846 0.930 . S
C861 C856 1.390 . S
C861 C860 1.387 . S
H862 C874 0.930 1_455 S
H863 C876 0.930 . S
H864 C877 0.930 . S
H865 C881 0.959 . S
H866 C881 0.959 . S
H867 C881 0.961 . S
H868 C882 0.960 . S
H869 C882 0.961 . S
H870 C882 0.959 . S
H871 C885 0.929 . S
H872 C886 0.931 . S
H873 C888 0.930 . S
C874 H862 0.930 1_655 S
C874 C875 1.399 . S
C874 C879 1.399 . S
C875 C874 1.399 . S
C875 C876 1.376 . S
C876 H863 0.930 . S
C876 C875 1.376 . S
C876 C877 1.388 . S
C877 H864 0.930 . S
C877 C876 1.388 . S
C877 C878 1.390 . S
C878 C877 1.390 . S
C878 C879 1.394 . S
C878 C884 1.465 . S
C879 C874 1.399 . S
C879 C878 1.394 . S
C879 C880 1.516 . S
C880 C879 1.516 . S
C880 C881 1.502 . S
C880 C882 1.561 . S
C880 C883 1.526 . S
C881 H865 0.959 . S
C881 H866 0.959 . S
C881 H867 0.961 . S
C881 C880 1.502 . S
C882 H868 0.960 . S
C882 H869 0.961 . S
C882 H870 0.959 . S
C882 C880 1.561 . S
C883 C880 1.526 . S
C883 C884 1.396 . S
C883 C888 1.390 . S
C884 C878 1.465 . S
C884 C883 1.396 . S
C884 C885 1.399 . S
C885 H871 0.929 . S
C885 C884 1.399 . S
C885 C886 1.385 . S
C886 H872 0.931 . S
C886 C885 1.385 . S
C886 C887 1.389 . S
C887 C886 1.389 . S
C887 C888 1.387 . S
C888 H873 0.930 . S
C888 C883 1.390 . S
C888 C887 1.387 . S
H889 C901 0.930 . S
H890 C903 0.930 . S
H891 C904 0.930 . S
H892 C908 0.959 . S
H893 C908 0.959 . S
H894 C908 0.961 . S
H895 C909 0.960 . S
H896 C909 0.961 . S
H897 C909 0.959 1_455 S
H898 C912 0.929 . S
H899 C913 0.931 . S
H900 C915 0.930 . S
C901 H889 0.930 . S
C901 C902 1.399 . S
C901 C906 1.399 . S
C902 C901 1.399 . S
C902 C903 1.376 . S
C903 H890 0.930 . S
C903 C902 1.376 . S
C903 C904 1.388 . S
C904 H891 0.930 . S
C904 C903 1.388 . S
C904 C905 1.390 . S
C905 C904 1.390 . S
C905 C906 1.394 . S
C905 C911 1.465 . S
C906 C901 1.399 . S
C906 C905 1.394 . S
C906 C907 1.516 . S
C907 C906 1.516 . S
C907 C908 1.502 . S
C907 C909 1.561 . S
C907 C910 1.526 . S
C908 H892 0.959 . S
C908 H893 0.959 . S
C908 H894 0.961 . S
C908 C907 1.502 . S
C909 H895 0.960 . S
C909 H896 0.961 . S
C909 H897 0.959 1_655 S
C909 C907 1.561 . S
C910 C907 1.526 . S
C910 C911 1.396 . S
C910 C915 1.390 . S
C911 C905 1.465 . S
C911 C910 1.396 . S
C911 C912 1.399 . S
C912 H898 0.929 . S
C912 C911 1.399 . S
C912 C913 1.385 . S
C913 H899 0.931 . S
C913 C912 1.385 . S
C913 C914 1.389 . S
C914 C913 1.389 . S
C914 C915 1.387 . S
C915 H900 0.930 . S
C915 C910 1.390 . S
C915 C914 1.387 . S
H916 C928 0.930 . S
H917 C930 0.930 . S
H918 C931 0.930 . S
H919 C935 0.959 . S
H920 C935 0.959 . S
H921 C935 0.961 . S
H922 C936 0.960 . S
H923 C936 0.961 . S
H924 C936 0.959 . S
H925 C939 0.929 . S
H926 C940 0.931 . S
H927 C942 0.930 . S
C928 H916 0.930 . S
C928 C929 1.399 . S
C928 C933 1.399 . S
C929 C928 1.399 . S
C929 C930 1.376 . S
C930 H917 0.930 . S
C930 C929 1.376 . S
C930 C931 1.388 . S
C931 H918 0.930 . S
C931 C930 1.388 . S
C931 C932 1.390 . S
C932 C931 1.390 . S
C932 C933 1.394 . S
C932 C938 1.465 . S
C933 C928 1.399 . S
C933 C932 1.394 . S
C933 C934 1.516 . S
C934 C933 1.516 . S
C934 C935 1.502 . S
C934 C936 1.561 . S
C934 C937 1.526 . S
C935 H919 0.959 . S
C935 H920 0.959 . S
C935 H921 0.961 . S
C935 C934 1.502 . S
C936 H922 0.960 . S
C936 H923 0.961 . S
C936 H924 0.959 . S
C936 C934 1.561 . S
C937 C934 1.526 . S
C937 C938 1.396 . S
C937 C942 1.390 . S
C938 C932 1.465 . S
C938 C937 1.396 . S
C938 C939 1.399 . S
C939 H925 0.929 . S
C939 C938 1.399 . S
C939 C940 1.385 . S
C940 H926 0.931 . S
C940 C939 1.385 . S
C940 C941 1.389 . S
C941 C940 1.389 . S
C941 C942 1.387 . S
C942 H927 0.930 . S
C942 C937 1.390 . S
C942 C941 1.387 . S
H943 C955 0.930 . S
H944 C957 0.930 . S
H945 C958 0.930 . S
H946 C962 0.959 . S
H947 C962 0.959 . S
H948 C962 0.961 . S
H949 C963 0.960 . S
H950 C963 0.961 . S
H951 C963 0.959 . S
H952 C966 0.929 . S
H953 C967 0.931 . S
H954 C969 0.930 . S
C955 H943 0.930 . S
C955 C956 1.399 . S
C955 C960 1.399 . S
C956 C955 1.399 . S
C956 C957 1.376 . S
C957 H944 0.930 . S
C957 C956 1.376 . S
C957 C958 1.388 . S
C958 H945 0.930 . S
C958 C957 1.388 . S
C958 C959 1.390 . S
C959 C958 1.390 . S
C959 C960 1.394 . S
C959 C965 1.465 . S
C960 C955 1.399 . S
C960 C959 1.394 . S
C960 C961 1.516 . S
C961 C960 1.516 . S
C961 C962 1.502 . S
C961 C963 1.561 . S
C961 C964 1.526 . S
C962 H946 0.959 . S
C962 H947 0.959 . S
C962 H948 0.961 . S
C962 C961 1.502 . S
C963 H949 0.960 . S
C963 H950 0.961 . S
C963 H951 0.959 . S
C963 C961 1.561 . S
C964 C961 1.526 . S
C964 C965 1.396 . S
C964 C969 1.390 . S
C965 C959 1.465 . S
C965 C964 1.396 . S
C965 C966 1.399 . S
C966 H952 0.929 . S
C966 C965 1.399 . S
C966 C967 1.385 . S
C967 H953 0.931 . S
C967 C966 1.385 . S
C967 C968 1.389 . S
C968 C967 1.389 . S
C968 C969 1.387 . S
C969 H954 0.930 . S
C969 C964 1.390 . S
C969 C968 1.387 . S
H970 C982 0.930 . S
H971 C984 0.930 . S
H972 C985 0.930 . S
H973 C989 0.959 . S
H974 C989 0.959 . S
H975 C989 0.961 . S
H976 C990 0.960 . S
H977 C990 0.961 . S
H978 C990 0.959 . S
H979 C993 0.929 . S
H980 C994 0.931 . S
H981 C996 0.930 . S
C982 H970 0.930 . S
C982 C983 1.399 . S
C982 C987 1.399 . S
C983 C982 1.399 . S
C983 C984 1.376 . S
C984 H971 0.930 . S
C984 C983 1.376 . S
C984 C985 1.388 . S
C985 H972 0.930 . S
C985 C984 1.388 . S
C985 C986 1.390 . S
C986 C985 1.390 . S
C986 C987 1.394 . S
C986 C992 1.465 . S
C987 C982 1.399 . S
C987 C986 1.394 . S
C987 C988 1.516 . S
C988 C987 1.516 . S
C988 C989 1.502 . S
C988 C990 1.561 . S
C988 C991 1.526 . S
C989 H973 0.959 . S
C989 H974 0.959 . S
C989 H975 0.961 . S
C989 C988 1.502 . S
C990 H976 0.960 . S
C990 H977 0.961 . S
C990 H978 0.959 . S
C990 C988 1.561 . S
C991 C988 1.526 . S
C991 C992 1.396 . S
C991 C996 1.390 . S
C992 C986 1.465 . S
C992 C991 1.396 . S
C992 C993 1.399 . S
C993 H979 0.929 . S
C993 C992 1.399 . S
C993 C994 1.385 . S
C994 H980 0.931 . S
C994 C993 1.385 . S
C994 C995 1.389 . S
C995 C994 1.389 . S
C995 C996 1.387 . S
C996 H981 0.930 . S
C996 C991 1.390 . S
C996 C995 1.387 . S
H997 C1009 0.930 . S
H998 C1011 0.930 . S
H999 C1012 0.930 . S
H1000 C1016 0.959 . S
H1001 C1016 0.959 . S
H1002 C1016 0.961 . S
H1003 C1017 0.960 . S
H1004 C1017 0.961 . S
H1005 C1017 0.959 . S
H1006 C1020 0.929 . S
H1007 C1021 0.931 . S
H1008 C1023 0.930 . S
C1009 H997 0.930 . S
C1009 C1010 1.399 . S
C1009 C1014 1.399 . S
C1010 C1009 1.399 . S
C1010 C1011 1.376 . S
C1011 H998 0.930 . S
C1011 C1010 1.376 . S
C1011 C1012 1.388 . S
C1012 H999 0.930 . S
C1012 C1011 1.388 . S
C1012 C1013 1.390 . S
C1013 C1012 1.390 . S
C1013 C1014 1.394 . S
C1013 C1019 1.465 . S
C1014 C1009 1.399 . S
C1014 C1013 1.394 . S
C1014 C1015 1.516 . S
C1015 C1014 1.516 . S
C1015 C1016 1.502 . S
C1015 C1017 1.561 . S
C1015 C1018 1.526 . S
C1016 H1000 0.959 . S
C1016 H1001 0.959 . S
C1016 H1002 0.961 . S
C1016 C1015 1.502 . S
C1017 H1003 0.960 . S
C1017 H1004 0.961 . S
C1017 H1005 0.959 . S
C1017 C1015 1.561 . S
C1018 C1015 1.526 . S
C1018 C1019 1.396 . S
C1018 C1023 1.390 . S
C1019 C1013 1.465 . S
C1019 C1018 1.396 . S
C1019 C1020 1.399 . S
C1020 H1006 0.929 . S
C1020 C1019 1.399 . S
C1020 C1021 1.385 . S
C1021 H1007 0.931 . S
C1021 C1020 1.385 . S
C1021 C1022 1.389 . S
C1022 C1021 1.389 . S
C1022 C1023 1.387 . S
C1023 H1008 0.930 . S
C1023 C1018 1.390 . S
C1023 C1022 1.387 . S
H1024 C1036 0.930 . S
H1025 C1038 0.933 . S
H1026 C1039 0.930 . S
H1027 C1043 0.959 . S
H1028 C1043 0.959 . S
H1029 C1043 0.961 . S
H1030 C1044 0.960 . S
H1031 C1044 0.961 . S
H1032 C1044 0.959 . S
H1033 C1047 0.929 . S
H1034 C1048 0.931 . S
H1035 C1050 0.930 . S
C1036 H1024 0.930 . S
C1036 C1037 1.399 . S
C1036 C1041 1.399 . S
C1037 C1036 1.399 . S
C1037 C1038 1.376 . S
C1038 H1025 0.933 . S
C1038 C1037 1.376 . S
C1038 C1039 1.388 . S
C1039 H1026 0.930 . S
C1039 C1038 1.388 . S
C1039 C1040 1.390 . S
C1040 C1039 1.390 . S
C1040 C1041 1.394 . S
C1040 C1046 1.465 . S
C1041 C1036 1.399 . S
C1041 C1040 1.394 . S
C1041 C1042 1.516 . S
C1042 C1041 1.516 . S
C1042 C1043 1.502 . S
C1042 C1044 1.561 . S
C1042 C1045 1.526 . S
C1043 H1027 0.959 . S
C1043 H1028 0.959 . S
C1043 H1029 0.961 . S
C1043 C1042 1.502 . S
C1044 H1030 0.960 . S
C1044 H1031 0.961 . S
C1044 H1032 0.959 . S
C1044 C1042 1.561 . S
C1045 C1042 1.526 . S
C1045 C1046 1.396 . S
C1045 C1050 1.390 . S
C1046 C1040 1.465 . S
C1046 C1045 1.396 . S
C1046 C1047 1.399 . S
C1047 H1033 0.929 . S
C1047 C1046 1.399 . S
C1047 C1048 1.385 . S
C1048 H1034 0.931 . S
C1048 C1047 1.385 . S
C1048 C1049 1.389 . S
C1049 C1048 1.389 . S
C1049 C1050 1.387 . S
C1050 H1035 0.930 . S
C1050 C1045 1.390 . S
C1050 C1049 1.387 . S
H1051 C1063 0.930 . S
H1052 C1065 0.930 . S
H1053 C1066 0.930 . S
H1054 C1070 0.959 . S
H1055 C1070 0.959 . S
H1056 C1070 0.961 . S
H1057 C1071 0.960 . S
H1058 C1071 0.961 . S
H1059 C1071 0.959 . S
H1060 C1074 0.929 . S
H1061 C1075 0.931 . S
H1062 C1077 0.930 . S
C1063 H1051 0.930 . S
C1063 C1064 1.399 . S
C1063 C1068 1.399 . S
C1064 C1063 1.399 . S
C1064 C1065 1.376 . S
C1065 H1052 0.930 . S
C1065 C1064 1.376 . S
C1065 C1066 1.388 . S
C1066 H1053 0.930 . S
C1066 C1065 1.388 . S
C1066 C1067 1.390 . S
C1067 C1066 1.390 . S
C1067 C1068 1.394 . S
C1067 C1073 1.465 . S
C1068 C1063 1.399 . S
C1068 C1067 1.394 . S
C1068 C1069 1.516 . S
C1069 C1068 1.516 . S
C1069 C1070 1.502 . S
C1069 C1071 1.561 . S
C1069 C1072 1.526 . S
C1070 H1054 0.959 . S
C1070 H1055 0.959 . S
C1070 H1056 0.961 . S
C1070 C1069 1.502 . S
C1071 H1057 0.960 . S
C1071 H1058 0.961 . S
C1071 H1059 0.959 . S
C1071 C1069 1.561 . S
C1072 C1069 1.526 . S
C1072 C1073 1.396 . S
C1072 C1077 1.390 . S
C1073 C1067 1.465 . S
C1073 C1072 1.396 . S
C1073 C1074 1.399 . S
C1074 H1060 0.929 . S
C1074 C1073 1.399 . S
C1074 C1075 1.385 . S
C1075 H1061 0.931 . S
C1075 C1074 1.385 . S
C1075 C1076 1.389 . S
C1076 C1075 1.389 . S
C1076 C1077 1.387 . S
C1077 H1062 0.930 . S
C1077 C1072 1.390 . S
C1077 C1076 1.387 . S
H1078 C1090 0.930 . S
H1079 C1092 0.930 . S
H1080 C1093 0.930 . S
H1081 C1097 0.959 . S
H1082 C1097 0.959 . S
H1083 C1097 0.961 . S
H1084 C1098 0.960 . S
H1085 C1098 0.961 . S
H1086 C1098 0.959 . S
H1087 C1101 0.929 . S
H1088 C1102 0.931 . S
H1089 C1104 0.930 . S
C1090 H1078 0.930 . S
C1090 C1091 1.399 . S
C1090 C1095 1.399 . S
C1091 C1090 1.399 . S
C1091 C1092 1.376 . S
C1092 H1079 0.930 . S
C1092 C1091 1.376 . S
C1092 C1093 1.388 . S
C1093 H1080 0.930 . S
C1093 C1092 1.388 . S
C1093 C1094 1.390 . S
C1094 C1093 1.390 . S
C1094 C1095 1.394 . S
C1094 C1100 1.465 . S
C1095 C1090 1.399 . S
C1095 C1094 1.394 . S
C1095 C1096 1.516 . S
C1096 C1095 1.516 . S
C1096 C1097 1.502 . S
C1096 C1098 1.561 . S
C1096 C1099 1.526 . S
C1097 H1081 0.959 . S
C1097 H1082 0.959 . S
C1097 H1083 0.961 . S
C1097 C1096 1.502 . S
C1098 H1084 0.960 . S
C1098 H1085 0.961 . S
C1098 H1086 0.959 . S
C1098 C1096 1.561 . S
C1099 C1096 1.526 . S
C1099 C1100 1.396 . S
C1099 C1104 1.390 . S
C1100 C1094 1.465 . S
C1100 C1099 1.396 . S
C1100 C1101 1.399 . S
C1101 H1087 0.929 . S
C1101 C1100 1.399 . S
C1101 C1102 1.385 . S
C1102 H1088 0.931 . S
C1102 C1101 1.385 . S
C1102 C1103 1.389 . S
C1103 C1102 1.389 . S
C1103 C1104 1.387 . S
C1104 H1089 0.930 . S
C1104 C1099 1.390 . S
C1104 C1103 1.387 . S
H1105 C1117 0.930 . S
H1106 C1119 0.930 . S
H1107 C1120 0.930 . S
H1108 C1124 0.959 . S
H1109 C1124 0.959 . S
H1110 C1124 0.961 . S
H1111 C1125 0.960 . S
H1112 C1125 0.961 . S
H1113 C1125 0.959 . S
H1114 C1128 0.929 . S
H1115 C1129 0.931 . S
H1116 C1131 0.930 . S
C1117 H1105 0.930 . S
C1117 C1118 1.399 . S
C1117 C1122 1.399 . S
C1118 C1117 1.399 . S
C1118 C1119 1.376 . S
C1119 H1106 0.930 . S
C1119 C1118 1.376 . S
C1119 C1120 1.388 . S
C1120 H1107 0.930 . S
C1120 C1119 1.388 . S
C1120 C1121 1.390 . S
C1121 C1120 1.390 . S
C1121 C1122 1.394 . S
C1121 C1127 1.465 . S
C1122 C1117 1.399 . S
C1122 C1121 1.394 . S
C1122 C1123 1.516 . S
C1123 C1122 1.516 . S
C1123 C1124 1.502 . S
C1123 C1125 1.561 . S
C1123 C1126 1.526 . S
C1124 H1108 0.959 . S
C1124 H1109 0.959 . S
C1124 H1110 0.961 . S
C1124 C1123 1.502 . S
C1125 H1111 0.960 . S
C1125 H1112 0.961 . S
C1125 H1113 0.959 . S
C1125 C1123 1.561 . S
C1126 C1123 1.526 . S
C1126 C1127 1.396 . S
C1126 C1131 1.390 . S
C1127 C1121 1.465 . S
C1127 C1126 1.396 . S
C1127 C1128 1.399 . S
C1128 H1114 0.929 . S
C1128 C1127 1.399 . S
C1128 C1129 1.385 . S
C1129 H1115 0.931 . S
C1129 C1128 1.385 . S
C1129 C1130 1.389 . S
C1130 C1129 1.389 . S
C1130 C1131 1.387 . S
C1131 H1116 0.930 . S
C1131 C1126 1.390 . S
C1131 C1130 1.387 . S
C293 C204 1.761 . S
C281 C14 1.790 . S
C308 C25 1.725 . S
C320 C207 1.675 . S
C335 C50 1.664 . S
C347 C238 1.710 . S
C374 C173 1.777 . S
C362 C68 1.733 . S
C401 C208 1.793 . S
C389 C16 1.750 . S
C428 C239 1.733 . S
C416 C26 1.770 . S
C455 C164 1.672 . S
C443 C52 1.667 . S
C482 C195 1.674 . S
C470 C70 1.720 . S
C497 C8 1.359 . S
C509 C225 1.312 . S
C524 C88 1.341 . S
C536 C194 1.304 . S
C551 C44 1.298 . S
C563 C154 1.274 1_655 S
C590 C247 1.313 . S
C578 C98 1.308 . S
C617 C175 1.246 . S
C605 C7 1.398 . S
C632 C86 1.320 . S
C644 C174 1.267 . S
C659 C43 1.294 . S
C671 C267 1.295 . S
C698 C206 1.223 . S
C686 C97 1.380 . S
C713 C116 1.777 . S
C725 C266 1.764 . S
C740 C79 1.663 . S
C752 C145 1.730 . S
C767 C140 1.690 . S
C779 C176 1.676 . S
C794 C104 1.790 . S
C806 C235 1.716 . S
C833 C146 1.783 . S
C821 C115 1.770 . S
C848 C80 1.740 . S
C860 C177 1.749 . S
C875 C142 1.638 1_655 S
C887 C226 1.708 . S
C914 C257 1.673 . S
C902 C106 1.719 . S
C929 C122 1.394 . S
C941 C163 1.240 . S
C956 C34 1.329 . S
C968 C256 1.329 . S
C983 C134 1.264 . S
C995 C216 1.241 . S
C1022 C185 1.268 . S
C1010 C62 1.283 . S
C1049 C237 1.350 . S
C1037 C124 1.352 . S
C1076 C236 1.260 . S
C1064 C32 1.309 . S
C1103 C205 1.238 . S
C1091 C133 1.290 . S
C1130 C144 1.296 . S
C1118 C61 1.355 . S
