# Generated by pormake.
# Topology the, (3,8)-cn, num edge types: 1
# Building blocks:
#     Node 0, Type 0, BuildingBlock: CUQRIR_clean_linker_1, # of connection points: 3
#     Node 1, Type 0, BuildingBlock: CUQRIR_clean_linker_1, # of connection points: 3
#     Node 2, Type 0, BuildingBlock: CUQRIR_clean_linker_1, # of connection points: 3
#     Node 3, Type 0, BuildingBlock: CUQRIR_clean_linker_1, # of connection points: 3
#     Node 4, Type 0, BuildingBlock: CUQRIR_clean_linker_1, # of connection points: 3
#     Node 5, Type 0, BuildingBlock: CUQRIR_clean_linker_1, # of connection points: 3
#     Node 6, Type 0, BuildingBlock: CUQRIR_clean_linker_1, # of connection points: 3
#     Node 7, Type 0, BuildingBlock: CUQRIR_clean_linker_1, # of connection points: 3
#     Node 8, Type 1, BuildingBlock: GIZVER_clean_sbu_0, # of connection points: 8
#     Node 9, Type 1, BuildingBlock: GIZVER_clean_sbu_0, # of connection points: 8
#     Node 10, Type 1, BuildingBlock: GIZVER_clean_sbu_0, # of connection points: 8
#     Edge 11, Type (0, 1), BuildingBlock: EZIPEK_clean_linker_0, # of connection points: 2
#     Edge 12, Type (0, 1), BuildingBlock: EZIPEK_clean_linker_0, # of connection points: 2
#     Edge 13, Type (0, 1), BuildingBlock: EZIPEK_clean_linker_0, # of connection points: 2
#     Edge 14, Type (0, 1), BuildingBlock: EZIPEK_clean_linker_0, # of connection points: 2
#     Edge 15, Type (0, 1), BuildingBlock: EZIPEK_clean_linker_0, # of connection points: 2
#     Edge 16, Type (0, 1), BuildingBlock: EZIPEK_clean_linker_0, # of connection points: 2
#     Edge 17, Type (0, 1), BuildingBlock: EZIPEK_clean_linker_0, # of connection points: 2
#     Edge 18, Type (0, 1), BuildingBlock: EZIPEK_clean_linker_0, # of connection points: 2
#     Edge 19, Type (0, 1), BuildingBlock: EZIPEK_clean_linker_0, # of connection points: 2
#     Edge 20, Type (0, 1), BuildingBlock: EZIPEK_clean_linker_0, # of connection points: 2
#     Edge 21, Type (0, 1), BuildingBlock: EZIPEK_clean_linker_0, # of connection points: 2
#     Edge 22, Type (0, 1), BuildingBlock: EZIPEK_clean_linker_0, # of connection points: 2
#     Edge 23, Type (0, 1), BuildingBlock: EZIPEK_clean_linker_0, # of connection points: 2
#     Edge 24, Type (0, 1), BuildingBlock: EZIPEK_clean_linker_0, # of connection points: 2
#     Edge 25, Type (0, 1), BuildingBlock: EZIPEK_clean_linker_0, # of connection points: 2
#     Edge 26, Type (0, 1), BuildingBlock: EZIPEK_clean_linker_0, # of connection points: 2
#     Edge 27, Type (0, 1), BuildingBlock: EZIPEK_clean_linker_0, # of connection points: 2
#     Edge 28, Type (0, 1), BuildingBlock: EZIPEK_clean_linker_0, # of connection points: 2
#     Edge 29, Type (0, 1), BuildingBlock: EZIPEK_clean_linker_0, # of connection points: 2
#     Edge 30, Type (0, 1), BuildingBlock: EZIPEK_clean_linker_0, # of connection points: 2
#     Edge 31, Type (0, 1), BuildingBlock: EZIPEK_clean_linker_0, # of connection points: 2
#     Edge 32, Type (0, 1), BuildingBlock: EZIPEK_clean_linker_0, # of connection points: 2
#     Edge 33, Type (0, 1), BuildingBlock: EZIPEK_clean_linker_0, # of connection points: 2
#     Edge 34, Type (0, 1), BuildingBlock: EZIPEK_clean_linker_0, # of connection points: 2
# Relax obj value: 0.079
# Max RMSD: 0.239
# Mean RMSD: 0.148
data_MOF--net-the--node1-GIZVER_clean_sbu_0--node2-CUQRIR_clean_linker_1--edge1-EZIPEK_clean_linker_0
_symmetry_space_group_name_H-M    P1
_symmetry_Int_Tables_number       1
_symmetry_cell_setting            triclinic
loop_
_symmetry_equiv_pos_as_xyz
'x, y, z'
_cell_length_a     27.97541
_cell_length_b     26.228528
_cell_length_c     23.763548
_cell_angle_alpha  84.006044
_cell_angle_beta   99.946044
_cell_angle_gamma 112.19134
loop_
_atom_site_label
_atom_site_type_symbol
_atom_site_fract_x
_atom_site_fract_y
_atom_site_fract_z
_atom_type_partial_charge
C0 C 0.33789 0.30001 0.40234 0.0
N1 N 0.3818 0.30957 0.37948 0.0
N2 N 0.33015 0.34761 0.40557 0.0
C3 C 0.30229 0.24351 0.41981 0.0
C4 C 0.3708 0.38621 0.38313 0.0
N5 N 0.4009 0.36313 0.3649 0.0
C6 C 0.38172 0.44721 0.37827 0.0
H7 H 0.2628 0.24266 0.42242 0.0
H8 H 0.31917 0.23058 0.46204 0.0
H9 H 0.29934 0.21337 0.38863 0.0
H10 H 0.42438 0.47069 0.38149 0.0
H11 H 0.36338 0.45806 0.3359 0.0
H12 H 0.36607 0.45967 0.41215 0.0
C13 C 0.71163 0.3127 0.241 0.0
N14 N 0.73947 0.30163 0.29021 0.0
N15 N 0.73708 0.36317 0.21822 0.0
C16 C 0.65652 0.27701 0.21826 0.0
C17 C 0.78347 0.38118 0.25284 0.0
N18 N 0.78516 0.34431 0.29714 0.0
C19 C 0.82453 0.4379 0.24726 0.0
H20 H 0.64597 0.23423 0.23675 0.0
H21 H 0.65198 0.27605 0.17103 0.0
H22 H 0.6291 0.29503 0.22837 0.0
H23 H 0.80916 0.46572 0.21796 0.0
H24 H 0.85749 0.43473 0.22969 0.0
H25 H 0.83984 0.45611 0.28985 0.0
C26 C 0.83238 0.7988 0.3462 0.0
N27 N 0.83367 0.75837 0.31559 0.0
N28 N 0.79074 0.81306 0.32532 0.0
C29 C 0.86896 0.82077 0.39978 0.0
C30 C 0.76735 0.78149 0.27992 0.0
N31 N 0.79313 0.74837 0.27348 0.0
C32 C 0.71658 0.77993 0.24442 0.0
H33 H 0.85219 0.79629 0.43737 0.0
H34 H 0.8742 0.86431 0.40435 0.0
H35 H 0.90737 0.81769 0.39929 0.0
H36 H 0.72514 0.80905 0.20687 0.0
H37 H 0.69292 0.79271 0.26886 0.0
H38 H 0.69326 0.73798 0.22888 0.0
C39 C 0.35722 0.64375 0.33283 0.0
N40 N 0.40377 0.68448 0.3254 0.0
N41 N 0.32419 0.66399 0.34968 0.0
C42 C 0.34404 0.58391 0.32299 0.0
C43 C 0.35236 0.71883 0.35202 0.0
N44 N 0.40126 0.73179 0.33899 0.0
C45 C 0.33282 0.76023 0.36931 0.0
H46 H 0.33369 0.57728 0.2764 0.0
H47 H 0.31075 0.55693 0.34479 0.0
H48 H 0.37833 0.57214 0.33868 0.0
H49 H 0.3443 0.76594 0.41597 0.0
H50 H 0.28968 0.74602 0.35943 0.0
H51 H 0.35057 0.80071 0.34693 0.0
C52 C 0.37646 0.69591 0.76908 0.0
N53 N 0.42756 0.72633 0.76542 0.0
N54 N 0.34626 0.69155 0.71715 0.0
C55 C 0.35631 0.67227 0.82459 0.0
C56 C 0.38055 0.72434 0.68237 0.0
N57 N 0.42931 0.74624 0.71162 0.0
C58 C 0.36729 0.73411 0.61917 0.0
H59 H 0.36973 0.63817 0.84157 0.0
H60 H 0.31308 0.6569 0.81924 0.0
H61 H 0.37279 0.70456 0.85674 0.0
H62 H 0.36028 0.77333 0.61141 0.0
H63 H 0.33202 0.70014 0.60073 0.0
H64 H 0.40044 0.73789 0.59722 0.0
C65 C 0.34989 0.26199 0.70016 0.0
N66 N 0.35878 0.31074 0.72311 0.0
N67 N 0.3916 0.24511 0.71564 0.0
C68 C 0.30079 0.23402 0.6599 0.0
C69 C 0.42656 0.28821 0.74761 0.0
N70 N 0.40616 0.32652 0.75347 0.0
C71 C 0.48382 0.29882 0.7659 0.0
H72 H 0.27599 0.19601 0.68106 0.0
H73 H 0.31021 0.22602 0.61915 0.0
H74 H 0.27617 0.25915 0.6488 0.0
H75 H 0.49988 0.2826 0.73547 0.0
H76 H 0.48991 0.28055 0.80947 0.0
H77 H 0.50687 0.34353 0.76825 0.0
C78 C 0.74649 0.29202 0.77454 0.0
N79 N 0.77534 0.28982 0.73511 0.0
N80 N 0.77013 0.33893 0.80381 0.0
C81 C 0.69227 0.25121 0.78002 0.0
C82 C 0.81612 0.36361 0.78335 0.0
N83 N 0.81905 0.33481 0.74052 0.0
C84 C 0.85499 0.41975 0.80024 0.0
H85 H 0.66646 0.24987 0.73864 0.0
H86 H 0.67558 0.26154 0.81432 0.0
H87 H 0.69323 0.20938 0.79019 0.0
H88 H 0.86636 0.42006 0.84726 0.0
H89 H 0.83659 0.45089 0.78818 0.0
H90 H 0.89074 0.43182 0.77993 0.0
C91 C 0.78787 0.74794 0.65685 0.0
N92 N 0.81048 0.70993 0.66684 0.0
N93 N 0.81833 0.794 0.63048 0.0
C94 C 0.73692 0.74105 0.67595 0.0
C95 C 0.86019 0.78263 0.62349 0.0
N96 N 0.85527 0.73112 0.6449 0.0
C97 C 0.90656 0.82226 0.59709 0.0
H98 H 0.719 0.7692 0.65119 0.0
H99 H 0.74398 0.74958 0.72203 0.0
H100 H 0.70857 0.69833 0.6707 0.0
H101 H 0.90174 0.86128 0.5806 0.0
H102 H 0.91381 0.80244 0.56208 0.0
H103 H 0.94181 0.83378 0.62962 0.0
Co104 Co 0.16637 0.45812 0.58168 0.0
Co105 Co 0.11467 0.43108 0.47895 0.0
Co106 Co 0.06254 0.49759 0.52565 0.0
O107 O 0.09252 0.43811 0.54598 0.0
H108 H 0.06858 0.40375 0.56021 0.0
O109 O 0.0384 0.56087 0.5074 0.0
Co110 Co 0.97621 0.56071 0.46032 0.0
Co111 Co 1.00867 0.56536 0.5679 0.0
H112 H 0.06703 0.59522 0.50235 0.0
O113 O 0.12381 0.36832 0.46736 0.0
O114 O 0.18433 0.44642 0.50713 0.0
O115 O 0.11465 0.48358 0.41427 0.0
O116 O 0.11721 0.54205 0.47496 0.0
O117 O 1.01332 0.45558 0.45885 0.0
O118 O 0.92061 0.56467 0.41405 0.0
O119 O 0.99446 0.63505 0.44323 0.0
O120 O 0.9484 0.48221 0.46839 0.0
O121 O 1.00561 0.45084 0.57429 0.0
O122 O 0.99333 0.50844 0.62633 0.0
O123 O 0.94867 0.57357 0.5308 0.0
O124 O 1.01713 0.62977 0.59046 0.0
C125 C 0.21541 0.41896 0.62493 0.0
C126 C 0.15901 0.55589 0.59452 0.0
C127 C 0.12895 0.53294 0.42842 0.0
C128 C 0.17199 0.39876 0.48456 0.0
C129 C 0.94705 0.6173 0.41487 0.0
C130 C 0.96482 0.44922 0.4488 0.0
C131 C 0.9856 0.45988 0.61498 0.0
C132 C 0.96902 0.61534 0.56539 0.0
O133 O 0.23207 0.47184 0.6151 0.0
O134 O 0.16617 0.38966 0.60776 0.0
O135 O 0.1097 0.53916 0.59273 0.0
O136 O 0.17801 0.53326 0.56399 0.0
Co137 Co 0.64639 0.95028 0.47262 0.0
Co138 Co 0.6734 0.98621 0.57462 0.0
Co139 Co 0.58901 0.02939 0.5145 0.0
O140 O 0.65163 1.0141 0.50618 0.0
H141 H 0.68005 0.0463 0.49507 0.0
O142 O 0.52756 0.05017 0.52101 0.0
Co143 Co 0.53463 0.11287 0.56389 0.0
Co144 Co 0.5114 0.09145 0.45649 0.0
H145 H 0.49727 1.01809 0.52796 0.0
O146 O 0.74225 1.00283 0.59504 0.0
O147 O 0.68231 0.92817 0.54755 0.0
O148 O 0.62597 0.95422 0.6298 0.0
O149 O 0.55901 0.9645 0.57063 0.0
O150 O 0.63344 0.07573 0.57959 0.0
O151 O 0.53469 0.1656 0.60622 0.0
O152 O 0.46681 0.08971 0.576 0.0
O153 O 0.6075 0.14603 0.55994 0.0
O154 O 0.6208 0.09425 0.4605 0.0
O155 O 0.55972 0.115 0.40116 0.0
O156 O 0.52015 0.15536 0.49158 0.0
O157 O 0.44851 0.10263 0.4362 0.0
C158 C 0.68996 0.92483 0.4302 0.0
C159 C 0.54531 0.92719 0.45498 0.0
C160 C 0.57733 0.9415 0.61496 0.0
C161 C 0.72928 0.95458 0.57462 0.0
C162 C 0.48577 0.13444 0.60528 0.0
C163 C 0.64096 0.12598 0.58473 0.0
C164 C 0.60698 0.12009 0.41621 0.0
C165 C 0.47692 0.15022 0.4575 0.0
O166 O 0.64359 0.8928 0.4395 0.0
O167 O 0.70894 0.97556 0.44699 0.0
O168 O 0.54585 0.97694 0.45062 0.0
O169 O 0.57938 0.9158 0.49132 0.0
Co170 Co 0.55474 0.59254 0.12659 0.0
Co171 Co 0.52184 0.49315 0.09243 0.0
Co172 Co 0.59588 0.56518 1.00474 0.0
O173 O 0.54049 0.56026 0.05174 0.0
H174 H 0.51019 0.56426 0.02819 0.0
O175 O 0.65343 0.57044 0.9627 0.0
Co176 Co 0.63917 0.51594 0.91021 0.0
Co177 Co 0.66615 0.61688 0.90131 0.0
H178 H 0.68564 0.57562 0.98824 0.0
O179 O 0.45897 0.46007 0.11593 0.0
O180 O 0.53368 0.51661 0.1665 0.0
O181 O 0.55882 0.44485 0.08893 0.0
O182 O 0.62436 0.51435 0.058 0.0
O183 O 0.54212 0.50085 0.958 0.0
O184 O 0.62892 0.46286 0.86599 0.0
O185 O 0.69673 0.49867 0.93374 0.0
O186 O 0.57785 0.52558 0.87983 0.0
O187 O 0.56927 0.6179 0.951 0.0
O188 O 0.6144 0.65084 0.87707 0.0
O189 O 0.67343 0.5712 0.85076 0.0
O190 O 0.73407 0.64888 0.88827 0.0
C191 C 0.51326 0.61757 0.1772 0.0
C192 C 0.66081 0.62715 0.10237 0.0
C193 C 0.60595 0.46608 0.08096 0.0
C194 C 0.4869 0.47811 0.1646 0.0
C195 C 0.67139 0.46071 0.89656 0.0
C196 C 0.53791 0.49924 0.90339 0.0
C197 C 0.57751 0.64705 0.90416 0.0
C198 C 0.72064 0.60831 0.85432 0.0
O199 O 0.56195 0.6238 0.19325 0.0
O200 O 0.48958 0.59354 0.12898 0.0
O201 O 0.64852 0.62856 0.04832 0.0
O202 O 0.62689 0.60006 0.1349 0.0
C203 C 0.27444 0.33778 0.48023 0.0
C204 C 0.28761 0.35627 0.42481 0.0
C205 C 0.22935 0.40739 0.41242 0.0
C206 C 0.2126 0.38474 0.46548 0.0
N207 N 0.20718 0.31423 0.54069 0.0
N208 N 0.26169 0.39108 0.33147 0.0
C209 C 0.23109 0.34512 0.49653 0.0
C210 C 0.26029 0.38591 0.3888 0.0
N211 N 0.30441 0.31552 0.51807 0.0
N212 N 0.21571 0.44907 0.3842 0.0
H213 H 0.28054 0.37158 0.31262 0.0
H214 H 0.23905 0.40857 0.30256 0.0
H215 H 0.19314 0.46626 0.40018 0.0
H216 H 0.23094 0.46981 0.34763 0.0
H217 H 0.29712 0.30322 0.55968 0.0
H218 H 0.33959 0.31499 0.50985 0.0
H219 H 0.2168 0.2817 0.5616 0.0
H220 H 0.17417 0.31739 0.55223 0.0
C221 C 0.72343 0.20903 0.33852 0.0
C222 C 0.71559 0.25984 0.33269 0.0
C223 C 0.6469 0.22097 0.39368 0.0
C224 C 0.64793 0.16783 0.39105 0.0
N225 N 0.68771 0.11008 0.3614 0.0
N226 N 0.66082 0.30922 0.34641 0.0
C227 C 0.687 0.16152 0.36434 0.0
C228 C 0.67495 0.26441 0.3582 0.0
N229 N 0.76468 0.20612 0.31756 0.0
N230 N 0.62081 0.23087 0.4322 0.0
H231 H 0.68085 0.34337 0.32224 0.0
H232 H 0.62687 0.31065 0.35748 0.0
H233 H 0.6041 0.20118 0.46274 0.0
H234 H 0.62266 0.27016 0.43937 0.0
H235 H 0.77561 0.17195 0.32376 0.0
H236 H 0.79023 0.23998 0.29706 0.0
H237 H 0.71201 0.10154 0.33832 0.0
H238 H 0.66158 0.075 0.37971 0.0
C239 C 0.90696 0.72564 0.31608 0.0
C240 C 0.86143 0.72162 0.33768 0.0
C241 C 0.87194 0.64932 0.40768 0.0
C242 C 0.91966 0.65552 0.38924 0.0
N243 N 0.98439 0.70155 0.3272 0.0
N244 N 0.8066 0.68689 0.41162 0.0
C245 C 0.9379 0.69459 0.3439 0.0
C246 C 0.84621 0.68592 0.38589 0.0
N247 N 0.92023 0.75919 0.26888 0.0
N248 N 0.84936 0.60701 0.4448 0.0
H249 H 0.78228 0.70764 0.39384 0.0
H250 H 0.79925 0.6689 0.45187 0.0
H251 H 0.86751 0.58151 0.46695 0.0
H252 H 0.81048 0.59463 0.4508 0.0
H253 H 0.95028 0.76153 0.24716 0.0
H254 H 0.89886 0.78307 0.24959 0.0
H255 H 1.00252 0.73224 0.29806 0.0
H256 H 1.00636 0.67772 0.34452 0.0
C257 C 0.46505 0.82938 0.33254 0.0
C258 C 0.44466 0.77902 0.36469 0.0
C259 C 0.4795 0.83076 0.45291 0.0
C260 C 0.50488 0.87993 0.42165 0.0
N261 N 0.52818 0.92364 0.33077 0.0
N262 N 0.4428 0.73126 0.45689 0.0
C263 C 0.49943 0.87866 0.36104 0.0
C264 C 0.45592 0.77974 0.42531 0.0
N265 N 0.45018 0.83051 0.2749 0.0
N266 N 0.47536 0.83331 0.50886 0.0
H267 H 0.42426 0.69324 0.43822 0.0
H268 H 0.45447 0.72866 0.50084 0.0
H269 H 0.48846 0.87061 0.52896 0.0
H270 H 0.45346 0.79979 0.53285 0.0
H271 H 0.45884 0.86673 0.2494 0.0
H272 H 0.42631 0.79505 0.25345 0.0
H273 H 0.53013 0.9233 0.28744 0.0
H274 H 0.55287 0.96022 0.34995 0.0
C275 C 0.25708 0.68232 0.67004 0.0
C276 C 0.29159 0.65739 0.70045 0.0
C277 C 0.22193 0.56685 0.6835 0.0
C278 C 0.19501 0.59123 0.64068 0.0
N279 N 0.18109 0.67251 0.59809 0.0
N280 N 0.30509 0.57262 0.73515 0.0
C281 C 0.21032 0.64927 0.63603 0.0
C282 C 0.27316 0.59874 0.70819 0.0
N283 N 0.26954 0.73751 0.67385 0.0
N284 N 0.19823 0.51298 0.70047 0.0
H285 H 0.34235 0.5932 0.75511 0.0
H286 H 0.29541 0.53018 0.73457 0.0
H287 H 0.16028 0.48926 0.68283 0.0
H288 H 0.21409 0.49394 0.73533 0.0
H289 H 0.24486 0.75811 0.65586 0.0
H290 H 0.30308 0.7616 0.69966 0.0
H291 H 0.19294 0.71459 0.58771 0.0
H292 H 0.14526 0.64878 0.5757 0.0
C293 C 0.44058 0.17992 0.7288 0.0
C294 C 0.40154 0.19787 0.69765 0.0
C295 C 0.40543 0.15549 0.61298 0.0
C296 C 0.45309 0.15007 0.63897 0.0
N297 N 0.51156 0.1485 0.72659 0.0
N298 N 0.3241 0.13894 0.64262 0.0
C299 C 0.46911 0.15908 0.69876 0.0
C300 C 0.37589 0.16976 0.64693 0.0
N301 N 0.44635 0.17793 0.78699 0.0
N302 N 0.38657 0.14529 0.55686 0.0
H303 H 0.3046 0.13212 0.67795 0.0
H304 H 0.30415 0.11323 0.60867 0.0
H305 H 0.40562 0.13322 0.52995 0.0
H306 H 0.35279 0.1518 0.53731 0.0
H307 H 0.47085 0.1609 0.81325 0.0
H308 H 0.42222 0.18903 0.80826 0.0
H309 H 0.52867 0.16053 0.768 0.0
H310 H 0.53059 0.12896 0.70758 0.0
C311 C 0.90188 0.34216 0.70824 0.0
C312 C 0.85692 0.35666 0.701 0.0
C313 C 0.89128 0.42191 0.62409 0.0
C314 C 0.9401 0.41585 0.63768 0.0
N315 N 0.99264 0.36896 0.69299 0.0
N316 N 0.81974 0.42533 0.66312 0.0
C317 C 0.94553 0.37485 0.6794 0.0
C318 C 0.85427 0.40021 0.66167 0.0
N319 N 0.90345 0.2988 0.74444 0.0
N320 N 0.87971 0.44881 0.57487 0.0
H321 H 0.79323 0.41419 0.69207 0.0
H322 H 0.82078 0.46096 0.63848 0.0
H323 H 0.90687 0.46867 0.54766 0.0
H324 H 0.84163 0.44625 0.55929 0.0
H325 H 0.93291 0.28294 0.74881 0.0
H326 H 0.87324 0.27687 0.7679 0.0
H327 H 1.00113 0.34362 0.72672 0.0
H328 H 1.02411 0.39157 0.67134 0.0
C329 C 0.80577 0.86799 0.5625 0.0
C330 C 0.80926 0.84476 0.6188 0.0
C331 C 0.76968 0.90312 0.64977 0.0
C332 C 0.76484 0.92487 0.5929 0.0
N333 N 0.80412 0.95012 0.50685 0.0
N334 N 0.81638 0.85769 0.71903 0.0
C335 C 0.79146 0.91468 0.55275 0.0
C336 C 0.79892 0.86871 0.66367 0.0
N337 N 0.81306 0.84403 0.51817 0.0
N338 N 0.74464 0.91289 0.68955 0.0
H339 H 0.83911 0.83341 0.72943 0.0
H340 H 0.8128 0.87697 0.75341 0.0
H341 H 0.72282 0.93814 0.68104 0.0
H342 H 0.74286 0.8929 0.72985 0.0
H343 H 0.8123 0.86084 0.47658 0.0
H344 H 0.81646 0.80556 0.52251 0.0
H345 H 0.82714 0.94645 0.47853 0.0
H346 H 0.79698 0.98672 0.50194 0.0
C347 C 0.41332 0.23821 0.35783 0.0
C348 C 0.41386 0.27654 0.39566 0.0
C349 C 0.46994 0.24351 0.46996 0.0
C350 C 0.46332 0.19987 0.43471 0.0
N351 N 0.45018 0.17332 0.33736 0.0
N352 N 0.44075 0.31529 0.48863 0.0
C353 C 0.441 0.2022 0.37626 0.0
C354 C 0.442 0.27927 0.45181 0.0
N355 N 0.38429 0.2347 0.30498 0.0
N356 N 0.5058 0.2541 0.51837 0.0
H357 H 0.42543 0.34586 0.47577 0.0
H358 H 0.45221 0.31299 0.53261 0.0
H359 H 0.53316 0.23567 0.52883 0.0
H360 H 0.51463 0.28749 0.5436 0.0
H361 H 0.3766 0.20325 0.27748 0.0
H362 H 0.36493 0.26157 0.29026 0.0
H363 H 0.43897 0.17667 0.29346 0.0
H364 H 0.47502 0.15142 0.34815 0.0
C365 C 0.82934 0.36055 0.39859 0.0
C366 C 0.83038 0.35172 0.3411 0.0
C367 C 0.92655 0.39285 0.3589 0.0
C368 C 0.92435 0.40191 0.41615 0.0
N369 N 0.87579 0.36707 0.49478 0.0
N370 N 0.88069 0.3427 0.27299 0.0
C371 C 0.87635 0.3757 0.43743 0.0
C372 C 0.87948 0.36149 0.32389 0.0
N373 N 0.78558 0.3616 0.41496 0.0
N374 N 0.97213 0.41687 0.33659 0.0
H375 H 0.84656 0.32057 0.24669 0.0
H376 H 0.91504 0.34488 0.25971 0.0
H377 H 1.00739 0.43886 0.36091 0.0
H378 H 0.97428 0.41703 0.29323 0.0
H379 H 0.78437 0.37135 0.45602 0.0
H380 H 0.7538 0.36122 0.38515 0.0
H381 H 0.8416 0.34542 0.51234 0.0
H382 H 0.91049 0.37616 0.52327 0.0
C383 C 0.7817 0.90025 0.34227 0.0
C384 C 0.76813 0.84284 0.35319 0.0
C385 C 0.71413 0.84394 0.42256 0.0
C386 C 0.72115 0.89975 0.40601 0.0
N387 N 0.75573 0.97862 0.34207 0.0
N388 N 0.70938 0.75776 0.39138 0.0
C389 C 0.75377 0.92772 0.36394 0.0
C390 C 0.73065 0.81394 0.3895 0.0
N391 N 0.82062 0.92804 0.3104 0.0
N392 N 0.69445 0.8201 0.47179 0.0
H393 H 0.71752 0.73406 0.36473 0.0
H394 H 0.67854 0.73528 0.4139 0.0
H395 H 0.68664 0.84179 0.50108 0.0
H396 H 0.69318 0.78108 0.48762 0.0
H397 H 0.83595 0.97085 0.30531 0.0
H398 H 0.84009 0.90809 0.2926 0.0
H399 H 0.77512 0.99839 0.30765 0.0
H400 H 0.734 0.99903 0.35446 0.0
C401 C 0.22988 0.60435 0.32569 0.0
C402 C 0.27261 0.63407 0.3662 0.0
C403 C 0.21194 0.61789 0.43477 0.0
C404 C 0.17228 0.57695 0.40062 0.0
N405 N 0.1413 0.53706 0.30805 0.0
N406 N 0.30442 0.65847 0.46435 0.0
C407 C 0.18065 0.57187 0.34422 0.0
C408 C 0.26362 0.63768 0.42221 0.0
N409 N 0.23592 0.60894 0.26939 0.0
N410 N 0.20038 0.64088 0.47694 0.0
H411 H 0.34289 0.67064 0.45748 0.0
H412 H 0.29949 0.65745 0.50702 0.0
H413 H 0.16217 0.63517 0.48085 0.0
H414 H 0.22843 0.67288 0.50072 0.0
H415 H 0.20542 0.59224 0.2367 0.0
H416 H 0.27094 0.63368 0.25494 0.0
H417 H 0.14669 0.52572 0.2696 0.0
H418 H 0.10309 0.5192 0.31712 0.0
C419 C 0.46597 0.84808 0.69578 0.0
C420 C 0.46984 0.79585 0.69312 0.0
C421 C 0.54402 0.83901 0.63993 0.0
C422 C 0.54132 0.89182 0.6439 0.0
N423 N 0.50483 0.9479 0.68244 0.0
N424 N 0.51554 0.74195 0.6696 0.0
C425 C 0.50357 0.89667 0.6737 0.0
C426 C 0.51008 0.79167 0.6676 0.0
N427 N 0.42545 0.85078 0.71862 0.0
N428 N 0.57659 0.83331 0.60637 0.0
H429 H 0.48912 0.7062 0.68615 0.0
H430 H 0.54774 0.73664 0.65859 0.0
H431 H 0.60182 0.86628 0.58497 0.0
H432 H 0.57583 0.79553 0.59564 0.0
H433 H 0.416 0.8858 0.71585 0.0
H434 H 0.39953 0.8168 0.73854 0.0
H435 H 0.48195 0.95515 0.70849 0.0
H436 H 0.53178 0.98406 0.6668 0.0
C437 C 0.28279 0.33599 0.73002 0.0
C438 C 0.32785 0.34506 0.70465 0.0
C439 C 0.30062 0.4046 0.62901 0.0
C440 C 0.25395 0.3933 0.65275 0.0
N441 N 0.20632 0.3584 0.73257 0.0
N442 N 0.37368 0.37801 0.62364 0.0
C443 C 0.24654 0.36161 0.70512 0.0
C444 C 0.3358 0.37784 0.65317 0.0
N445 N 0.27315 0.29968 0.77597 0.0
N446 N 0.31097 0.43988 0.58218 0.0
H447 H 0.39466 0.35226 0.63526 0.0
H448 H 0.38042 0.39805 0.58403 0.0
H449 H 0.2839 0.45441 0.55745 0.0
H450 H 0.34747 0.45683 0.56871 0.0
H451 H 0.23848 0.2855 0.79329 0.0
H452 H 0.2991 0.28078 0.79472 0.0
H453 H 0.20148 0.34101 0.77358 0.0
H454 H 0.17963 0.37713 0.71619 0.0
C455 C 0.74627 0.19243 0.71002 0.0
C456 C 0.75686 0.24846 0.69195 0.0
C457 C 0.71285 0.21767 0.59647 0.0
C458 C 0.68976 0.16329 0.6186 0.0
N459 N 0.68517 0.09833 0.69988 0.0
N460 N 0.73661 0.31141 0.6191 0.0
C461 C 0.70764 0.14986 0.67599 0.0
C462 C 0.73782 0.26066 0.6349 0.0
N463 N 0.77078 0.18032 0.76145 0.0
N464 N 0.709 0.22848 0.53887 0.0
H465 H 0.74386 0.33982 0.64943 0.0
H466 H 0.71999 0.32117 0.57869 0.0
H467 H 0.69259 0.19677 0.51021 0.0
H468 H 0.72767 0.26754 0.52075 0.0
H469 H 0.7685 0.14049 0.77502 0.0
H470 H 0.79646 0.211 0.78847 0.0
H471 H 0.69253 0.08867 0.74335 0.0
H472 H 0.65652 0.06586 0.67758 0.0
C473 C 0.85605 0.65466 0.59274 0.0
C474 C 0.88294 0.69955 0.6284 0.0
C475 C 0.96406 0.69801 0.60623 0.0
C476 C 0.93743 0.6452 0.58225 0.0
N477 N 0.85483 0.56686 0.57299 0.0
N478 N 0.96547 0.75474 0.68042 0.0
C479 C 0.88236 0.62119 0.58151 0.0
C480 C 0.93795 0.71802 0.63935 0.0
N481 N 0.80709 0.64653 0.5654 0.0
N482 N 1.0126 0.73104 0.59454 0.0
H483 H 0.94727 0.76974 0.7057 0.0
H484 H 1.00575 0.76627 0.69183 0.0
H485 H 0.03022 0.72204 0.56362 0.0
H486 H 0.0314 0.77089 0.60925 0.0
H487 H 0.78626 0.61384 0.53863 0.0
H488 H 0.79125 0.67699 0.56317 0.0
H489 H 0.81499 0.54869 0.57567 0.0
H490 H 0.8727 0.53954 0.56996 0.0
C491 C 0.39121 0.39027 0.26242 0.0
C492 C 0.42395 0.38468 0.31336 0.0
C493 C 0.49884 0.43256 0.26363 0.0
C494 C 0.46658 0.44899 0.21795 0.0
N495 N 0.38125 0.45246 0.18336 0.0
N496 N 0.51059 0.40693 0.36466 0.0
C497 C 0.41241 0.43052 0.22009 0.0
C498 C 0.47847 0.40828 0.31493 0.0
N499 N 0.34005 0.35659 0.25401 0.0
N500 N 0.5464 0.43412 0.25596 0.0
H501 H 0.49613 0.3886 0.4024 0.0
H502 H 0.55095 0.42747 0.3687 0.0
H503 H 0.5569 0.44019 0.21529 0.0
H504 H 0.57019 0.41987 0.287 0.0
H505 H 0.31563 0.35688 0.21557 0.0
H506 H 0.32401 0.32461 0.28312 0.0
H507 H 0.342 0.44237 0.18673 0.0
H508 H 0.39597 0.48534 0.15453 0.0
C509 C 0.46451 0.655 0.79979 0.0
C510 C 0.46891 0.71057 0.79888 0.0
C511 C 0.54892 0.72812 0.86854 0.0
C512 C 0.53786 0.67033 0.87544 0.0
N513 N 0.47003 0.58014 0.86375 0.0
N514 N 0.51308 0.79994 0.83819 0.0
C515 C 0.49099 0.63408 0.84624 0.0
C516 C 0.51069 0.74747 0.835 0.0
N517 N 0.43634 0.62228 0.75561 0.0
N518 N 0.59512 0.76404 0.89422 0.0
H519 H 0.48501 0.8139 0.8146 0.0
H520 H 0.54033 0.82769 0.86703 0.0
H521 H 0.62224 0.75064 0.92091 0.0
H522 H 0.60729 0.80658 0.88668 0.0
H523 H 0.43508 0.58218 0.75385 0.0
H524 H 0.41886 0.63717 0.71867 0.0
H525 H 0.43409 0.55349 0.84424 0.0
H526 H 0.48499 0.56451 0.90174 0.0
C527 C 0.4262 0.36671 0.84946 0.0
C528 C 0.43053 0.37365 0.7901 0.0
C529 C 0.48898 0.46975 0.80486 0.0
C530 C 0.4911 0.46093 0.86546 0.0
N531 N 0.44377 0.40857 0.94129 0.0
N532 N 0.47688 0.42819 0.71517 0.0
C533 C 0.45431 0.41157 0.88679 0.0
C534 C 0.464 0.42455 0.76862 0.0
N535 N 0.39802 0.31576 0.87074 0.0
N536 N 0.51002 0.52177 0.78135 0.0
H537 H 0.46505 0.39395 0.69051 0.0
H538 H 0.50527 0.46266 0.69903 0.0
H539 H 0.52721 0.55672 0.80551 0.0
H540 H 0.50465 0.53093 0.73751 0.0
H541 H 0.3977 0.3053 0.91417 0.0
H542 H 0.37809 0.28229 0.84476 0.0
H543 H 0.415 0.37528 0.95835 0.0
H544 H 0.45838 0.44244 0.96699 0.0
C545 C 0.76186 0.38129 0.88913 0.0
C546 C 0.74459 0.3662 0.83144 0.0
C547 C 0.66887 0.38961 0.83238 0.0
C548 C 0.69248 0.41906 0.88291 0.0
N549 N 0.75989 0.43453 0.96566 0.0
N550 N 0.68695 0.37017 0.744 0.0
C551 C 0.7388 0.4127 0.91338 0.0
C552 C 0.69995 0.37506 0.80165 0.0
N553 N 0.79845 0.36352 0.92112 0.0
N554 N 0.61627 0.37152 0.81557 0.0
H555 H 0.71034 0.36257 0.71899 0.0
H556 H 0.65594 0.37984 0.72096 0.0
H557 H 0.59051 0.37189 0.84231 0.0
H558 H 0.59841 0.34766 0.77988 0.0
H559 H 0.80945 0.36854 0.96495 0.0
H560 H 0.81458 0.33955 0.90421 0.0
H561 H 0.79715 0.43793 0.98547 0.0
H562 H 0.73986 0.44826 0.98987 0.0
C563 C 0.75364 0.62076 0.70763 0.0
C564 C 0.79942 0.66946 0.71398 0.0
C565 C 0.80639 0.65257 0.81814 0.0
C566 C 0.75538 0.61281 0.81101 0.0
N567 N 0.69789 0.53764 0.75325 0.0
N568 N 0.86677 0.73433 0.77752 0.0
C569 C 0.73459 0.5896 0.75704 0.0
C570 C 0.82647 0.68487 0.76987 0.0
N571 N 0.72469 0.60804 0.65514 0.0
N572 N 0.83495 0.65957 0.87136 0.0
H573 H 0.87914 0.76244 0.74405 0.0
H574 H 0.88412 0.75023 0.81754 0.0
H575 H 0.82049 0.6346 0.90649 0.0
H576 H 0.8742 0.68495 0.87905 0.0
H577 H 0.68835 0.57627 0.64862 0.0
H578 H 0.73376 0.63361 0.61911 0.0
H579 H 0.68401 0.51672 0.71534 0.0
H580 H 0.68747 0.51282 0.78959 0.0
C581 C 0.77791 0.74456 0.1688 0.0
C582 C 0.78177 0.71674 0.2231 0.0
C583 C 0.73713 0.63095 0.17459 0.0
C584 C 0.71517 0.65813 0.12964 0.0
N585 N 0.72182 0.74469 0.07867 0.0
N586 N 0.75622 0.62916 0.27642 0.0
C587 C 0.73881 0.71629 0.12389 0.0
C588 C 0.76075 0.65843 0.22576 0.0
N589 N 0.80847 0.79875 0.16233 0.0
N590 N 0.73485 0.57927 0.16837 0.0
H591 H 0.76229 0.64826 0.31436 0.0
H592 H 0.73887 0.58625 0.27888 0.0
H593 H 0.71922 0.56029 0.12933 0.0
H594 H 0.75346 0.55923 0.19963 0.0
H595 H 0.8095 0.82063 0.12307 0.0
H596 H 0.83585 0.81989 0.19589 0.0
H597 H 0.73366 0.78749 0.0764 0.0
H598 H 0.69462 0.7253 0.04432 0.0
C599 C 0.47463 0.65328 0.31188 0.0
C600 C 0.43811 0.67821 0.28879 0.0
C601 C 0.45459 0.66877 0.19201 0.0
C602 C 0.48571 0.63718 0.21498 0.0
N603 N 0.51415 0.5886 0.29794 0.0
N604 N 0.3847 0.69777 0.20493 0.0
C605 C 0.49298 0.62679 0.27536 0.0
C606 C 0.42586 0.68282 0.22823 0.0
N607 N 0.49132 0.65421 0.3692 0.0
N608 N 0.45367 0.68734 0.13612 0.0
H609 H 0.36262 0.70813 0.22967 0.0
H610 H 0.37009 0.69564 0.16146 0.0
H611 H 0.47541 0.68003 0.10861 0.0
H612 H 0.43561 0.71486 0.11887 0.0
H613 H 0.52135 0.64111 0.38847 0.0
H614 H 0.4788 0.67373 0.39622 0.0
H615 H 0.51557 0.57534 0.34086 0.0
H616 H 0.52456 0.56524 0.27285 0.0
C617 C 0.69244 0.42973 0.20757 0.0
C618 C 0.71146 0.39598 0.18205 0.0
C619 C 0.66196 0.40862 0.08894 0.0
C620 C 0.64303 0.44226 0.1147 0.0
N621 N 0.64589 0.49183 0.19583 0.0
N622 N 0.72134 0.35885 0.0989 0.0
C623 C 0.65974 0.45448 0.17332 0.0
C624 C 0.69841 0.38739 0.12258 0.0
N625 N 0.7043 0.43686 0.26517 0.0
N626 N 0.64378 0.3958 0.03302 0.0
H627 H 0.74813 0.34346 0.12333 0.0
H628 H 0.71659 0.35311 0.05535 0.0
H629 H 0.61781 0.41157 1.0075 0.0
H630 H 0.65227 0.36785 1.01238 0.0
H631 H 0.68452 0.4521 0.28818 0.0
H632 H 0.73258 0.42536 0.29142 0.0
H633 H 0.66088 0.50773 0.23617 0.0
H634 H 0.62128 0.51009 0.17252 0.0
loop_
_geom_bond_atom_site_label_1
_geom_bond_atom_site_label_2
_geom_bond_distance
_geom_bond_site_symmetry_2
_ccdc_geom_bond_type
C0 N1 1.317 . S
C0 N2 1.348 . S
C0 C3 1.485 . S
N1 C0 1.317 . S
N1 N5 1.370 . S
N2 C0 1.348 . S
N2 C4 1.346 . S
C3 C0 1.485 . S
C3 H7 0.960 . S
C3 H8 0.961 . S
C3 H9 0.960 . S
C4 N2 1.346 . S
C4 N5 1.307 . S
C4 C6 1.486 . S
N5 N1 1.370 . S
N5 C4 1.307 . S
C6 C4 1.486 . S
C6 H10 0.960 . S
C6 H11 0.960 . S
C6 H12 0.959 . S
H7 C3 0.960 . S
H8 C3 0.961 . S
H9 C3 0.960 . S
H10 C6 0.960 . S
H11 C6 0.960 . S
H12 C6 0.959 . S
C13 N14 1.317 . S
C13 N15 1.348 . S
C13 C16 1.485 . S
N14 C13 1.317 . S
N14 N18 1.370 . S
N15 C13 1.348 . S
N15 C17 1.346 . S
C16 C13 1.485 . S
C16 H20 0.960 . S
C16 H21 0.961 . S
C16 H22 0.960 . S
C17 N15 1.346 . S
C17 N18 1.307 . S
C17 C19 1.486 . S
N18 N14 1.370 . S
N18 C17 1.307 . S
C19 C17 1.486 . S
C19 H23 0.960 . S
C19 H24 0.960 . S
C19 H25 0.959 . S
H20 C16 0.960 . S
H21 C16 0.961 . S
H22 C16 0.960 . S
H23 C19 0.960 . S
H24 C19 0.960 . S
H25 C19 0.959 . S
C26 N27 1.317 . S
C26 N28 1.348 . S
C26 C29 1.485 . S
N27 C26 1.317 . S
N27 N31 1.370 . S
N28 C26 1.348 . S
N28 C30 1.346 . S
C29 C26 1.485 . S
C29 H33 0.960 . S
C29 H34 0.961 . S
C29 H35 0.960 . S
C30 N28 1.346 . S
C30 N31 1.307 . S
C30 C32 1.486 . S
N31 N27 1.370 . S
N31 C30 1.307 . S
C32 C30 1.486 . S
C32 H36 0.960 . S
C32 H37 0.960 . S
C32 H38 0.959 . S
H33 C29 0.960 . S
H34 C29 0.961 . S
H35 C29 0.960 . S
H36 C32 0.960 . S
H37 C32 0.960 . S
H38 C32 0.959 . S
C39 N40 1.317 . S
C39 N41 1.348 . S
C39 C42 1.485 . S
N40 C39 1.317 . S
N40 N44 1.370 . S
N41 C39 1.348 . S
N41 C43 1.346 . S
C42 C39 1.485 . S
C42 H46 0.960 . S
C42 H47 0.961 . S
C42 H48 0.960 . S
C43 N41 1.346 . S
C43 N44 1.307 . S
C43 C45 1.486 . S
N44 N40 1.370 . S
N44 C43 1.307 . S
C45 C43 1.486 . S
C45 H49 0.960 . S
C45 H50 0.960 . S
C45 H51 0.959 . S
H46 C42 0.960 . S
H47 C42 0.961 . S
H48 C42 0.960 . S
H49 C45 0.960 . S
H50 C45 0.960 . S
H51 C45 0.959 . S
C52 N53 1.317 . S
C52 N54 1.348 . S
C52 C55 1.485 . S
N53 C52 1.317 . S
N53 N57 1.370 . S
N54 C52 1.348 . S
N54 C56 1.346 . S
C55 C52 1.485 . S
C55 H59 0.960 . S
C55 H60 0.961 . S
C55 H61 0.960 . S
C56 N54 1.346 . S
C56 N57 1.307 . S
C56 C58 1.486 . S
N57 N53 1.370 . S
N57 C56 1.307 . S
C58 C56 1.486 . S
C58 H62 0.960 . S
C58 H63 0.960 . S
C58 H64 0.959 . S
H59 C55 0.960 . S
H60 C55 0.961 . S
H61 C55 0.960 . S
H62 C58 0.960 . S
H63 C58 0.960 . S
H64 C58 0.959 . S
C65 N66 1.317 . S
C65 N67 1.348 . S
C65 C68 1.485 . S
N66 C65 1.317 . S
N66 N70 1.370 . S
N67 C65 1.348 . S
N67 C69 1.346 . S
C68 C65 1.485 . S
C68 H72 0.960 . S
C68 H73 0.961 . S
C68 H74 0.960 . S
C69 N67 1.346 . S
C69 N70 1.307 . S
C69 C71 1.486 . S
N70 N66 1.370 . S
N70 C69 1.307 . S
C71 C69 1.486 . S
C71 H75 0.960 . S
C71 H76 0.960 . S
C71 H77 0.959 . S
H72 C68 0.960 . S
H73 C68 0.961 . S
H74 C68 0.960 . S
H75 C71 0.960 . S
H76 C71 0.960 . S
H77 C71 0.959 . S
C78 N79 1.317 . S
C78 N80 1.348 . S
C78 C81 1.485 . S
N79 C78 1.317 . S
N79 N83 1.370 . S
N80 C78 1.348 . S
N80 C82 1.346 . S
C81 C78 1.485 . S
C81 H85 0.960 . S
C81 H86 0.961 . S
C81 H87 0.960 . S
C82 N80 1.346 . S
C82 N83 1.307 . S
C82 C84 1.486 . S
N83 N79 1.370 . S
N83 C82 1.307 . S
C84 C82 1.486 . S
C84 H88 0.960 . S
C84 H89 0.960 . S
C84 H90 0.959 . S
H85 C81 0.960 . S
H86 C81 0.961 . S
H87 C81 0.960 . S
H88 C84 0.960 . S
H89 C84 0.960 . S
H90 C84 0.959 . S
C91 N92 1.317 . S
C91 N93 1.348 . S
C91 C94 1.485 . S
N92 C91 1.317 . S
N92 N96 1.370 . S
N93 C91 1.348 . S
N93 C95 1.346 . S
C94 C91 1.485 . S
C94 H98 0.960 . S
C94 H99 0.961 . S
C94 H100 0.960 . S
C95 N93 1.346 . S
C95 N96 1.307 . S
C95 C97 1.486 . S
N96 N92 1.370 . S
N96 C95 1.307 . S
C97 C95 1.486 . S
C97 H101 0.960 . S
C97 H102 0.960 . S
C97 H103 0.959 . S
H98 C94 0.960 . S
H99 C94 0.961 . S
H100 C94 0.960 . S
H101 C97 0.960 . S
H102 C97 0.960 . S
H103 C97 0.959 . S
Co104 O107 2.042 . S
Co104 O114 2.264 . S
Co104 O133 2.286 . S
Co104 O134 2.069 . S
Co104 O136 2.015 . S
Co105 O107 2.122 . S
Co105 O113 2.073 . S
Co105 O114 2.327 . S
Co105 O115 1.976 . S
Co106 O107 2.087 . S
Co106 O109 2.087 . S
Co106 O116 2.111 . S
Co106 O117 2.143 1_455 S
Co106 O121 2.104 1_455 S
Co106 O135 2.143 . S
O107 Co104 2.042 . S
O107 Co105 2.122 . S
O107 Co106 2.087 . S
O107 H108 0.980 . S
H108 O107 0.980 . S
O109 Co106 2.087 . S
O109 Co110 2.042 1_455 S
O109 Co111 2.122 1_455 S
O109 H112 0.980 . S
Co110 O109 2.042 1_655 S
Co110 O118 2.286 . S
Co110 O119 2.069 . S
Co110 O120 2.015 . S
Co110 O123 2.264 . S
Co111 O109 2.122 1_655 S
Co111 O122 1.976 . S
Co111 O123 2.327 . S
Co111 O124 2.073 . S
H112 O109 0.980 . S
O113 Co105 2.073 . S
O113 C128 1.245 . S
O114 Co104 2.264 . S
O114 Co105 2.327 . S
O114 C128 1.257 . S
O115 Co105 1.976 . S
O115 C127 1.251 . S
O116 Co106 2.111 . S
O116 C127 1.274 . S
O117 Co106 2.143 1_655 S
O117 C130 1.246 . S
O118 Co110 2.286 . S
O118 C129 1.259 . S
O119 Co110 2.069 . S
O119 C129 1.289 . S
O120 Co110 2.015 . S
O120 C130 1.257 . S
O121 Co106 2.104 1_655 S
O121 C131 1.291 . S
O122 Co111 1.976 . S
O122 C131 1.251 . S
O123 Co110 2.264 . S
O123 Co111 2.327 . S
O123 C132 1.257 . S
O124 Co111 2.073 . S
O124 C132 1.245 . S
C125 O133 1.259 . S
C125 O134 1.289 . S
C126 O135 1.246 . S
C126 O136 1.257 . S
C127 O115 1.251 . S
C127 O116 1.274 . S
C128 O113 1.245 . S
C128 O114 1.257 . S
C129 O118 1.259 . S
C129 O119 1.289 . S
C130 O117 1.246 . S
C130 O120 1.257 . S
C131 O121 1.291 . S
C131 O122 1.251 . S
C132 O123 1.257 . S
C132 O124 1.245 . S
O133 Co104 2.286 . S
O133 C125 1.259 . S
O134 Co104 2.069 . S
O134 C125 1.289 . S
O135 Co106 2.143 . S
O135 C126 1.246 . S
O136 Co104 2.015 . S
O136 C126 1.257 . S
Co137 O140 2.042 . S
Co137 O147 2.264 . S
Co137 O166 2.286 . S
Co137 O167 2.069 . S
Co137 O169 2.015 . S
Co138 O140 2.122 . S
Co138 O146 2.073 . S
Co138 O147 2.327 . S
Co138 O148 1.976 . S
Co139 O140 2.087 1_545 S
Co139 O142 2.087 . S
Co139 O149 2.111 1_545 S
Co139 O150 2.143 . S
Co139 O154 2.111 . S
Co139 O168 2.143 1_545 S
O140 Co137 2.042 . S
O140 Co138 2.122 . S
O140 Co139 2.087 1_565 S
O140 H141 0.980 1_565 S
H141 O140 0.980 1_545 S
O142 Co139 2.087 . S
O142 Co143 2.042 . S
O142 Co144 2.122 . S
O142 H145 0.980 . S
Co143 O142 2.042 . S
Co143 O151 2.286 . S
Co143 O152 2.069 . S
Co143 O153 2.015 . S
Co143 O156 2.264 . S
Co144 O142 2.122 . S
Co144 O155 1.976 . S
Co144 O156 2.327 . S
Co144 O157 2.073 . S
H145 O142 0.980 . S
O146 Co138 2.073 . S
O146 C161 1.245 . S
O147 Co137 2.264 . S
O147 Co138 2.327 . S
O147 C161 1.257 . S
O148 Co138 1.976 . S
O148 C160 1.251 . S
O149 Co139 2.111 1_565 S
O149 C160 1.274 . S
O150 Co139 2.143 . S
O150 C163 1.246 . S
O151 Co143 2.286 . S
O151 C162 1.259 . S
O152 Co143 2.069 . S
O152 C162 1.289 . S
O153 Co143 2.015 . S
O153 C163 1.257 . S
O154 Co139 2.111 . S
O154 C164 1.274 . S
O155 Co144 1.976 . S
O155 C164 1.251 . S
O156 Co143 2.264 . S
O156 Co144 2.327 . S
O156 C165 1.257 . S
O157 Co144 2.073 . S
O157 C165 1.245 . S
C158 O166 1.259 . S
C158 O167 1.289 . S
C159 O168 1.246 . S
C159 O169 1.257 . S
C160 O148 1.251 . S
C160 O149 1.274 . S
C161 O146 1.245 . S
C161 O147 1.257 . S
C162 O151 1.259 . S
C162 O152 1.289 . S
C163 O150 1.246 . S
C163 O153 1.257 . S
C164 O154 1.274 . S
C164 O155 1.251 . S
C165 O156 1.257 . S
C165 O157 1.245 . S
O166 Co137 2.286 . S
O166 C158 1.259 . S
O167 Co137 2.069 . S
O167 C158 1.289 . S
O168 Co139 2.143 1_565 S
O168 C159 1.246 . S
O169 Co137 2.015 . S
O169 C159 1.257 . S
Co170 O173 2.042 . S
Co170 O180 2.264 . S
Co170 O199 2.286 . S
Co170 O200 2.069 . S
Co170 O202 2.015 . S
Co171 O173 2.122 . S
Co171 O179 2.073 . S
Co171 O180 2.327 . S
Co171 O181 1.976 . S
Co172 O173 2.087 . S
Co172 O175 2.087 1_554 S
Co172 O182 2.111 . S
Co172 O183 2.143 1_554 S
Co172 O187 2.111 1_554 S
Co172 O201 2.143 . S
O173 Co170 2.042 . S
O173 Co171 2.122 . S
O173 Co172 2.087 . S
O173 H174 0.980 . S
H174 O173 0.980 . S
O175 Co172 2.087 1_556 S
O175 Co176 2.042 . S
O175 Co177 2.122 . S
O175 H178 0.980 . S
Co176 O175 2.042 . S
Co176 O184 2.286 . S
Co176 O185 2.069 . S
Co176 O186 2.015 . S
Co176 O189 2.264 . S
Co177 O175 2.122 . S
Co177 O188 1.976 . S
Co177 O189 2.327 . S
Co177 O190 2.073 . S
H178 O175 0.980 . S
O179 Co171 2.073 . S
O179 C194 1.245 . S
O180 Co170 2.264 . S
O180 Co171 2.327 . S
O180 C194 1.257 . S
O181 Co171 1.976 . S
O181 C193 1.251 . S
O182 Co172 2.111 . S
O182 C193 1.274 . S
O183 Co172 2.143 1_556 S
O183 C196 1.246 . S
O184 Co176 2.286 . S
O184 C195 1.259 . S
O185 Co176 2.069 . S
O185 C195 1.289 . S
O186 Co176 2.015 . S
O186 C196 1.257 . S
O187 Co172 2.111 1_556 S
O187 C197 1.274 . S
O188 Co177 1.976 . S
O188 C197 1.251 . S
O189 Co176 2.264 . S
O189 Co177 2.327 . S
O189 C198 1.257 . S
O190 Co177 2.073 . S
O190 C198 1.245 . S
C191 O199 1.259 . S
C191 O200 1.289 . S
C192 O201 1.246 . S
C192 O202 1.257 . S
C193 O181 1.251 . S
C193 O182 1.274 . S
C194 O179 1.245 . S
C194 O180 1.257 . S
C195 O184 1.259 . S
C195 O185 1.289 . S
C196 O183 1.246 . S
C196 O186 1.257 . S
C197 O187 1.274 . S
C197 O188 1.251 . S
C198 O189 1.257 . S
C198 O190 1.245 . S
O199 Co170 2.286 . S
O199 C191 1.259 . S
O200 Co170 2.069 . S
O200 C191 1.289 . S
O201 Co172 2.143 . S
O201 C192 1.246 . S
O202 Co170 2.015 . S
O202 C192 1.257 . S
C203 C204 1.363 . S
C203 C209 1.379 . S
C203 N211 1.356 . S
C204 C203 1.363 . S
C204 C210 1.363 . S
C205 C206 1.363 . S
C205 C210 1.379 . S
C205 N212 1.356 . S
C206 C205 1.363 . S
C206 C209 1.363 . S
N207 C209 1.356 . S
N207 H219 0.984 . S
N207 H220 0.985 . S
N208 C210 1.356 . S
N208 H213 0.984 . S
N208 H214 0.985 . S
C209 C203 1.379 . S
C209 C206 1.363 . S
C209 N207 1.356 . S
C210 C204 1.363 . S
C210 C205 1.379 . S
C210 N208 1.356 . S
N211 C203 1.356 . S
N211 H217 0.984 . S
N211 H218 0.984 . S
N212 C205 1.356 . S
N212 H215 0.984 . S
N212 H216 0.985 . S
H213 N208 0.984 . S
H214 N208 0.985 . S
H215 N212 0.984 . S
H216 N212 0.985 . S
H217 N211 0.984 . S
H218 N211 0.984 . S
H219 N207 0.984 . S
H220 N207 0.985 . S
C221 C222 1.363 . S
C221 C227 1.379 . S
C221 N229 1.356 . S
C222 C221 1.363 . S
C222 C228 1.363 . S
C223 C224 1.363 . S
C223 C228 1.379 . S
C223 N230 1.356 . S
C224 C223 1.363 . S
C224 C227 1.363 . S
N225 C227 1.356 . S
N225 H237 0.984 . S
N225 H238 0.985 . S
N226 C228 1.356 . S
N226 H231 0.984 . S
N226 H232 0.985 . S
C227 C221 1.379 . S
C227 C224 1.363 . S
C227 N225 1.356 . S
C228 C222 1.363 . S
C228 C223 1.379 . S
C228 N226 1.356 . S
N229 C221 1.356 . S
N229 H235 0.984 . S
N229 H236 0.984 . S
N230 C223 1.356 . S
N230 H233 0.984 . S
N230 H234 0.985 . S
H231 N226 0.984 . S
H232 N226 0.985 . S
H233 N230 0.984 . S
H234 N230 0.985 . S
H235 N229 0.984 . S
H236 N229 0.984 . S
H237 N225 0.984 . S
H238 N225 0.985 . S
C239 C240 1.363 . S
C239 C245 1.379 . S
C239 N247 1.356 . S
C240 C239 1.363 . S
C240 C246 1.363 . S
C241 C242 1.363 . S
C241 C246 1.379 . S
C241 N248 1.356 . S
C242 C241 1.363 . S
C242 C245 1.363 . S
N243 C245 1.356 . S
N243 H255 0.984 . S
N243 H256 0.985 . S
N244 C246 1.356 . S
N244 H249 0.984 . S
N244 H250 0.985 . S
C245 C239 1.379 . S
C245 C242 1.363 . S
C245 N243 1.356 . S
C246 C240 1.363 . S
C246 C241 1.379 . S
C246 N244 1.356 . S
N247 C239 1.356 . S
N247 H253 0.984 . S
N247 H254 0.984 . S
N248 C241 1.356 . S
N248 H251 0.984 . S
N248 H252 0.985 . S
H249 N244 0.984 . S
H250 N244 0.985 . S
H251 N248 0.984 . S
H252 N248 0.985 . S
H253 N247 0.984 . S
H254 N247 0.984 . S
H255 N243 0.984 . S
H256 N243 0.985 . S
C257 C258 1.363 . S
C257 C263 1.379 . S
C257 N265 1.356 . S
C258 C257 1.363 . S
C258 C264 1.363 . S
C259 C260 1.363 . S
C259 C264 1.379 . S
C259 N266 1.356 . S
C260 C259 1.363 . S
C260 C263 1.363 . S
N261 C263 1.356 . S
N261 H273 0.984 . S
N261 H274 0.985 . S
N262 C264 1.356 . S
N262 H267 0.984 . S
N262 H268 0.985 . S
C263 C257 1.379 . S
C263 C260 1.363 . S
C263 N261 1.356 . S
C264 C258 1.363 . S
C264 C259 1.379 . S
C264 N262 1.356 . S
N265 C257 1.356 . S
N265 H271 0.984 . S
N265 H272 0.984 . S
N266 C259 1.356 . S
N266 H269 0.984 . S
N266 H270 0.985 . S
H267 N262 0.984 . S
H268 N262 0.985 . S
H269 N266 0.984 . S
H270 N266 0.985 . S
H271 N265 0.984 . S
H272 N265 0.984 . S
H273 N261 0.984 . S
H274 N261 0.985 . S
C275 C276 1.363 . S
C275 C281 1.379 . S
C275 N283 1.356 . S
C276 C275 1.363 . S
C276 C282 1.363 . S
C277 C278 1.363 . S
C277 C282 1.379 . S
C277 N284 1.356 . S
C278 C277 1.363 . S
C278 C281 1.363 . S
N279 C281 1.356 . S
N279 H291 0.984 . S
N279 H292 0.985 . S
N280 C282 1.356 . S
N280 H285 0.984 . S
N280 H286 0.985 . S
C281 C275 1.379 . S
C281 C278 1.363 . S
C281 N279 1.356 . S
C282 C276 1.363 . S
C282 C277 1.379 . S
C282 N280 1.356 . S
N283 C275 1.356 . S
N283 H289 0.984 . S
N283 H290 0.984 . S
N284 C277 1.356 . S
N284 H287 0.984 . S
N284 H288 0.985 . S
H285 N280 0.984 . S
H286 N280 0.985 . S
H287 N284 0.984 . S
H288 N284 0.985 . S
H289 N283 0.984 . S
H290 N283 0.984 . S
H291 N279 0.984 . S
H292 N279 0.985 . S
C293 C294 1.363 . S
C293 C299 1.379 . S
C293 N301 1.356 . S
C294 C293 1.363 . S
C294 C300 1.363 . S
C295 C296 1.363 . S
C295 C300 1.379 . S
C295 N302 1.356 . S
C296 C295 1.363 . S
C296 C299 1.363 . S
N297 C299 1.356 . S
N297 H309 0.984 . S
N297 H310 0.985 . S
N298 C300 1.356 . S
N298 H303 0.984 . S
N298 H304 0.985 . S
C299 C293 1.379 . S
C299 C296 1.363 . S
C299 N297 1.356 . S
C300 C294 1.363 . S
C300 C295 1.379 . S
C300 N298 1.356 . S
N301 C293 1.356 . S
N301 H307 0.984 . S
N301 H308 0.984 . S
N302 C295 1.356 . S
N302 H305 0.984 . S
N302 H306 0.985 . S
H303 N298 0.984 . S
H304 N298 0.985 . S
H305 N302 0.984 . S
H306 N302 0.985 . S
H307 N301 0.984 . S
H308 N301 0.984 . S
H309 N297 0.984 . S
H310 N297 0.985 . S
C311 C312 1.363 . S
C311 C317 1.379 . S
C311 N319 1.356 . S
C312 C311 1.363 . S
C312 C318 1.363 . S
C313 C314 1.363 . S
C313 C318 1.379 . S
C313 N320 1.356 . S
C314 C313 1.363 . S
C314 C317 1.363 . S
N315 C317 1.356 . S
N315 H327 0.984 . S
N315 H328 0.985 . S
N316 C318 1.356 . S
N316 H321 0.984 . S
N316 H322 0.985 . S
C317 C311 1.379 . S
C317 C314 1.363 . S
C317 N315 1.356 . S
C318 C312 1.363 . S
C318 C313 1.379 . S
C318 N316 1.356 . S
N319 C311 1.356 . S
N319 H325 0.984 . S
N319 H326 0.984 . S
N320 C313 1.356 . S
N320 H323 0.984 . S
N320 H324 0.985 . S
H321 N316 0.984 . S
H322 N316 0.985 . S
H323 N320 0.984 . S
H324 N320 0.985 . S
H325 N319 0.984 . S
H326 N319 0.984 . S
H327 N315 0.984 . S
H328 N315 0.985 . S
C329 C330 1.363 . S
C329 C335 1.379 . S
C329 N337 1.356 . S
C330 C329 1.363 . S
C330 C336 1.363 . S
C331 C332 1.363 . S
C331 C336 1.379 . S
C331 N338 1.356 . S
C332 C331 1.363 . S
C332 C335 1.363 . S
N333 C335 1.356 . S
N333 H345 0.984 . S
N333 H346 0.985 . S
N334 C336 1.356 . S
N334 H339 0.984 . S
N334 H340 0.985 . S
C335 C329 1.379 . S
C335 C332 1.363 . S
C335 N333 1.356 . S
C336 C330 1.363 . S
C336 C331 1.379 . S
C336 N334 1.356 . S
N337 C329 1.356 . S
N337 H343 0.984 . S
N337 H344 0.984 . S
N338 C331 1.356 . S
N338 H341 0.984 . S
N338 H342 0.985 . S
H339 N334 0.984 . S
H340 N334 0.985 . S
H341 N338 0.984 . S
H342 N338 0.985 . S
H343 N337 0.984 . S
H344 N337 0.984 . S
H345 N333 0.984 . S
H346 N333 0.985 . S
C347 C348 1.363 . S
C347 C353 1.379 . S
C347 N355 1.356 . S
C348 C347 1.363 . S
C348 C354 1.363 . S
C349 C350 1.363 . S
C349 C354 1.379 . S
C349 N356 1.356 . S
C350 C349 1.363 . S
C350 C353 1.363 . S
N351 C353 1.356 . S
N351 H363 0.984 . S
N351 H364 0.985 . S
N352 C354 1.356 . S
N352 H357 0.984 . S
N352 H358 0.985 . S
C353 C347 1.379 . S
C353 C350 1.363 . S
C353 N351 1.356 . S
C354 C348 1.363 . S
C354 C349 1.379 . S
C354 N352 1.356 . S
N355 C347 1.356 . S
N355 H361 0.984 . S
N355 H362 0.984 . S
N356 C349 1.356 . S
N356 H359 0.984 . S
N356 H360 0.985 . S
H357 N352 0.984 . S
H358 N352 0.985 . S
H359 N356 0.984 . S
H360 N356 0.985 . S
H361 N355 0.984 . S
H362 N355 0.984 . S
H363 N351 0.984 . S
H364 N351 0.985 . S
C365 C366 1.363 . S
C365 C371 1.379 . S
C365 N373 1.356 . S
C366 C365 1.363 . S
C366 C372 1.363 . S
C367 C368 1.363 . S
C367 C372 1.379 . S
C367 N374 1.356 . S
C368 C367 1.363 . S
C368 C371 1.363 . S
N369 C371 1.356 . S
N369 H381 0.984 . S
N369 H382 0.985 . S
N370 C372 1.356 . S
N370 H375 0.984 . S
N370 H376 0.985 . S
C371 C365 1.379 . S
C371 C368 1.363 . S
C371 N369 1.356 . S
C372 C366 1.363 . S
C372 C367 1.379 . S
C372 N370 1.356 . S
N373 C365 1.356 . S
N373 H379 0.984 . S
N373 H380 0.984 . S
N374 C367 1.356 . S
N374 H377 0.984 . S
N374 H378 0.985 . S
H375 N370 0.984 . S
H376 N370 0.985 . S
H377 N374 0.984 . S
H378 N374 0.985 . S
H379 N373 0.984 . S
H380 N373 0.984 . S
H381 N369 0.984 . S
H382 N369 0.985 . S
C383 C384 1.363 . S
C383 C389 1.379 . S
C383 N391 1.356 . S
C384 C383 1.363 . S
C384 C390 1.363 . S
C385 C386 1.363 . S
C385 C390 1.379 . S
C385 N392 1.356 . S
C386 C385 1.363 . S
C386 C389 1.363 . S
N387 C389 1.356 . S
N387 H399 0.984 . S
N387 H400 0.985 . S
N388 C390 1.356 . S
N388 H393 0.984 . S
N388 H394 0.985 . S
C389 C383 1.379 . S
C389 C386 1.363 . S
C389 N387 1.356 . S
C390 C384 1.363 . S
C390 C385 1.379 . S
C390 N388 1.356 . S
N391 C383 1.356 . S
N391 H397 0.984 . S
N391 H398 0.984 . S
N392 C385 1.356 . S
N392 H395 0.984 . S
N392 H396 0.985 . S
H393 N388 0.984 . S
H394 N388 0.985 . S
H395 N392 0.984 . S
H396 N392 0.985 . S
H397 N391 0.984 . S
H398 N391 0.984 . S
H399 N387 0.984 . S
H400 N387 0.985 . S
C401 C402 1.363 . S
C401 C407 1.379 . S
C401 N409 1.356 . S
C402 C401 1.363 . S
C402 C408 1.363 . S
C403 C404 1.363 . S
C403 C408 1.379 . S
C403 N410 1.356 . S
C404 C403 1.363 . S
C404 C407 1.363 . S
N405 C407 1.356 . S
N405 H417 0.984 . S
N405 H418 0.985 . S
N406 C408 1.356 . S
N406 H411 0.984 . S
N406 H412 0.985 . S
C407 C401 1.379 . S
C407 C404 1.363 . S
C407 N405 1.356 . S
C408 C402 1.363 . S
C408 C403 1.379 . S
C408 N406 1.356 . S
N409 C401 1.356 . S
N409 H415 0.984 . S
N409 H416 0.984 . S
N410 C403 1.356 . S
N410 H413 0.984 . S
N410 H414 0.985 . S
H411 N406 0.984 . S
H412 N406 0.985 . S
H413 N410 0.984 . S
H414 N410 0.985 . S
H415 N409 0.984 . S
H416 N409 0.984 . S
H417 N405 0.984 . S
H418 N405 0.985 . S
C419 C420 1.363 . S
C419 C425 1.379 . S
C419 N427 1.356 . S
C420 C419 1.363 . S
C420 C426 1.363 . S
C421 C422 1.363 . S
C421 C426 1.379 . S
C421 N428 1.356 . S
C422 C421 1.363 . S
C422 C425 1.363 . S
N423 C425 1.356 . S
N423 H435 0.984 . S
N423 H436 0.985 . S
N424 C426 1.356 . S
N424 H429 0.984 . S
N424 H430 0.985 . S
C425 C419 1.379 . S
C425 C422 1.363 . S
C425 N423 1.356 . S
C426 C420 1.363 . S
C426 C421 1.379 . S
C426 N424 1.356 . S
N427 C419 1.356 . S
N427 H433 0.984 . S
N427 H434 0.984 . S
N428 C421 1.356 . S
N428 H431 0.984 . S
N428 H432 0.985 . S
H429 N424 0.984 . S
H430 N424 0.985 . S
H431 N428 0.984 . S
H432 N428 0.985 . S
H433 N427 0.984 . S
H434 N427 0.984 . S
H435 N423 0.984 . S
H436 N423 0.985 . S
C437 C438 1.363 . S
C437 C443 1.379 . S
C437 N445 1.356 . S
C438 C437 1.363 . S
C438 C444 1.363 . S
C439 C440 1.363 . S
C439 C444 1.379 . S
C439 N446 1.356 . S
C440 C439 1.363 . S
C440 C443 1.363 . S
N441 C443 1.356 . S
N441 H453 0.984 . S
N441 H454 0.985 . S
N442 C444 1.356 . S
N442 H447 0.984 . S
N442 H448 0.985 . S
C443 C437 1.379 . S
C443 C440 1.363 . S
C443 N441 1.356 . S
C444 C438 1.363 . S
C444 C439 1.379 . S
C444 N442 1.356 . S
N445 C437 1.356 . S
N445 H451 0.984 . S
N445 H452 0.984 . S
N446 C439 1.356 . S
N446 H449 0.984 . S
N446 H450 0.985 . S
H447 N442 0.984 . S
H448 N442 0.985 . S
H449 N446 0.984 . S
H450 N446 0.985 . S
H451 N445 0.984 . S
H452 N445 0.984 . S
H453 N441 0.984 . S
H454 N441 0.985 . S
C455 C456 1.363 . S
C455 C461 1.379 . S
C455 N463 1.356 . S
C456 C455 1.363 . S
C456 C462 1.363 . S
C457 C458 1.363 . S
C457 C462 1.379 . S
C457 N464 1.356 . S
C458 C457 1.363 . S
C458 C461 1.363 . S
N459 C461 1.356 . S
N459 H471 0.984 . S
N459 H472 0.985 . S
N460 C462 1.356 . S
N460 H465 0.984 . S
N460 H466 0.985 . S
C461 C455 1.379 . S
C461 C458 1.363 . S
C461 N459 1.356 . S
C462 C456 1.363 . S
C462 C457 1.379 . S
C462 N460 1.356 . S
N463 C455 1.356 . S
N463 H469 0.984 . S
N463 H470 0.984 . S
N464 C457 1.356 . S
N464 H467 0.984 . S
N464 H468 0.985 . S
H465 N460 0.984 . S
H466 N460 0.985 . S
H467 N464 0.984 . S
H468 N464 0.985 . S
H469 N463 0.984 . S
H470 N463 0.984 . S
H471 N459 0.984 . S
H472 N459 0.985 . S
C473 C474 1.363 . S
C473 C479 1.379 . S
C473 N481 1.356 . S
C474 C473 1.363 . S
C474 C480 1.363 . S
C475 C476 1.363 . S
C475 C480 1.379 . S
C475 N482 1.356 . S
C476 C475 1.363 . S
C476 C479 1.363 . S
N477 C479 1.356 . S
N477 H489 0.984 . S
N477 H490 0.985 . S
N478 C480 1.356 . S
N478 H483 0.984 . S
N478 H484 0.985 . S
C479 C473 1.379 . S
C479 C476 1.363 . S
C479 N477 1.356 . S
C480 C474 1.363 . S
C480 C475 1.379 . S
C480 N478 1.356 . S
N481 C473 1.356 . S
N481 H487 0.984 . S
N481 H488 0.984 . S
N482 C475 1.356 . S
N482 H485 0.984 . S
N482 H486 0.985 . S
H483 N478 0.984 . S
H484 N478 0.985 . S
H485 N482 0.984 . S
H486 N482 0.985 . S
H487 N481 0.984 . S
H488 N481 0.984 . S
H489 N477 0.984 . S
H490 N477 0.985 . S
C491 C492 1.363 . S
C491 C497 1.379 . S
C491 N499 1.356 . S
C492 C491 1.363 . S
C492 C498 1.363 . S
C493 C494 1.363 . S
C493 C498 1.379 . S
C493 N500 1.356 . S
C494 C493 1.363 . S
C494 C497 1.363 . S
N495 C497 1.356 . S
N495 H507 0.984 . S
N495 H508 0.985 . S
N496 C498 1.356 . S
N496 H501 0.984 . S
N496 H502 0.985 . S
C497 C491 1.379 . S
C497 C494 1.363 . S
C497 N495 1.356 . S
C498 C492 1.363 . S
C498 C493 1.379 . S
C498 N496 1.356 . S
N499 C491 1.356 . S
N499 H505 0.984 . S
N499 H506 0.984 . S
N500 C493 1.356 . S
N500 H503 0.984 . S
N500 H504 0.985 . S
H501 N496 0.984 . S
H502 N496 0.985 . S
H503 N500 0.984 . S
H504 N500 0.985 . S
H505 N499 0.984 . S
H506 N499 0.984 . S
H507 N495 0.984 . S
H508 N495 0.985 . S
C509 C510 1.363 . S
C509 C515 1.379 . S
C509 N517 1.356 . S
C510 C509 1.363 . S
C510 C516 1.363 . S
C511 C512 1.363 . S
C511 C516 1.379 . S
C511 N518 1.356 . S
C512 C511 1.363 . S
C512 C515 1.363 . S
N513 C515 1.356 . S
N513 H525 0.984 . S
N513 H526 0.985 . S
N514 C516 1.356 . S
N514 H519 0.984 . S
N514 H520 0.985 . S
C515 C509 1.379 . S
C515 C512 1.363 . S
C515 N513 1.356 . S
C516 C510 1.363 . S
C516 C511 1.379 . S
C516 N514 1.356 . S
N517 C509 1.356 . S
N517 H523 0.984 . S
N517 H524 0.984 . S
N518 C511 1.356 . S
N518 H521 0.984 . S
N518 H522 0.985 . S
H519 N514 0.984 . S
H520 N514 0.985 . S
H521 N518 0.984 . S
H522 N518 0.985 . S
H523 N517 0.984 . S
H524 N517 0.984 . S
H525 N513 0.984 . S
H526 N513 0.985 . S
C527 C528 1.363 . S
C527 C533 1.379 . S
C527 N535 1.356 . S
C528 C527 1.363 . S
C528 C534 1.363 . S
C529 C530 1.363 . S
C529 C534 1.379 . S
C529 N536 1.356 . S
C530 C529 1.363 . S
C530 C533 1.363 . S
N531 C533 1.356 . S
N531 H543 0.984 . S
N531 H544 0.985 . S
N532 C534 1.356 . S
N532 H537 0.984 . S
N532 H538 0.985 . S
C533 C527 1.379 . S
C533 C530 1.363 . S
C533 N531 1.356 . S
C534 C528 1.363 . S
C534 C529 1.379 . S
C534 N532 1.356 . S
N535 C527 1.356 . S
N535 H541 0.984 . S
N535 H542 0.984 . S
N536 C529 1.356 . S
N536 H539 0.984 . S
N536 H540 0.985 . S
H537 N532 0.984 . S
H538 N532 0.985 . S
H539 N536 0.984 . S
H540 N536 0.985 . S
H541 N535 0.984 . S
H542 N535 0.984 . S
H543 N531 0.984 . S
H544 N531 0.985 . S
C545 C546 1.363 . S
C545 C551 1.379 . S
C545 N553 1.356 . S
C546 C545 1.363 . S
C546 C552 1.363 . S
C547 C548 1.363 . S
C547 C552 1.379 . S
C547 N554 1.356 . S
C548 C547 1.363 . S
C548 C551 1.363 . S
N549 C551 1.356 . S
N549 H561 0.984 . S
N549 H562 0.985 . S
N550 C552 1.356 . S
N550 H555 0.984 . S
N550 H556 0.985 . S
C551 C545 1.379 . S
C551 C548 1.363 . S
C551 N549 1.356 . S
C552 C546 1.363 . S
C552 C547 1.379 . S
C552 N550 1.356 . S
N553 C545 1.356 . S
N553 H559 0.984 . S
N553 H560 0.984 . S
N554 C547 1.356 . S
N554 H557 0.984 . S
N554 H558 0.985 . S
H555 N550 0.984 . S
H556 N550 0.985 . S
H557 N554 0.984 . S
H558 N554 0.985 . S
H559 N553 0.984 . S
H560 N553 0.984 . S
H561 N549 0.984 . S
H562 N549 0.985 . S
C563 C564 1.363 . S
C563 C569 1.379 . S
C563 N571 1.356 . S
C564 C563 1.363 . S
C564 C570 1.363 . S
C565 C566 1.363 . S
C565 C570 1.379 . S
C565 N572 1.356 . S
C566 C565 1.363 . S
C566 C569 1.363 . S
N567 C569 1.356 . S
N567 H579 0.984 . S
N567 H580 0.985 . S
N568 C570 1.356 . S
N568 H573 0.984 . S
N568 H574 0.985 . S
C569 C563 1.379 . S
C569 C566 1.363 . S
C569 N567 1.356 . S
C570 C564 1.363 . S
C570 C565 1.379 . S
C570 N568 1.356 . S
N571 C563 1.356 . S
N571 H577 0.984 . S
N571 H578 0.984 . S
N572 C565 1.356 . S
N572 H575 0.984 . S
N572 H576 0.985 . S
H573 N568 0.984 . S
H574 N568 0.985 . S
H575 N572 0.984 . S
H576 N572 0.985 . S
H577 N571 0.984 . S
H578 N571 0.984 . S
H579 N567 0.984 . S
H580 N567 0.985 . S
C581 C582 1.363 . S
C581 C587 1.379 . S
C581 N589 1.356 . S
C582 C581 1.363 . S
C582 C588 1.363 . S
C583 C584 1.363 . S
C583 C588 1.379 . S
C583 N590 1.356 . S
C584 C583 1.363 . S
C584 C587 1.363 . S
N585 C587 1.356 . S
N585 H597 0.984 . S
N585 H598 0.985 . S
N586 C588 1.356 . S
N586 H591 0.984 . S
N586 H592 0.985 . S
C587 C581 1.379 . S
C587 C584 1.363 . S
C587 N585 1.356 . S
C588 C582 1.363 . S
C588 C583 1.379 . S
C588 N586 1.356 . S
N589 C581 1.356 . S
N589 H595 0.984 . S
N589 H596 0.984 . S
N590 C583 1.356 . S
N590 H593 0.984 . S
N590 H594 0.985 . S
H591 N586 0.984 . S
H592 N586 0.985 . S
H593 N590 0.984 . S
H594 N590 0.985 . S
H595 N589 0.984 . S
H596 N589 0.984 . S
H597 N585 0.984 . S
H598 N585 0.985 . S
C599 C600 1.363 . S
C599 C605 1.379 . S
C599 N607 1.356 . S
C600 C599 1.363 . S
C600 C606 1.363 . S
C601 C602 1.363 . S
C601 C606 1.379 . S
C601 N608 1.356 . S
C602 C601 1.363 . S
C602 C605 1.363 . S
N603 C605 1.356 . S
N603 H615 0.984 . S
N603 H616 0.985 . S
N604 C606 1.356 . S
N604 H609 0.984 . S
N604 H610 0.985 . S
C605 C599 1.379 . S
C605 C602 1.363 . S
C605 N603 1.356 . S
C606 C600 1.363 . S
C606 C601 1.379 . S
C606 N604 1.356 . S
N607 C599 1.356 . S
N607 H613 0.984 . S
N607 H614 0.984 . S
N608 C601 1.356 . S
N608 H611 0.984 . S
N608 H612 0.985 . S
H609 N604 0.984 . S
H610 N604 0.985 . S
H611 N608 0.984 . S
H612 N608 0.985 . S
H613 N607 0.984 . S
H614 N607 0.984 . S
H615 N603 0.984 . S
H616 N603 0.985 . S
C617 C618 1.363 . S
C617 C623 1.379 . S
C617 N625 1.356 . S
C618 C617 1.363 . S
C618 C624 1.363 . S
C619 C620 1.363 . S
C619 C624 1.379 . S
C619 N626 1.356 . S
C620 C619 1.363 . S
C620 C623 1.363 . S
N621 C623 1.356 . S
N621 H633 0.984 . S
N621 H634 0.985 . S
N622 C624 1.356 . S
N622 H627 0.984 . S
N622 H628 0.985 . S
C623 C617 1.379 . S
C623 C620 1.363 . S
C623 N621 1.356 . S
C624 C618 1.363 . S
C624 C619 1.379 . S
C624 N622 1.356 . S
N625 C617 1.356 . S
N625 H631 0.984 . S
N625 H632 0.984 . S
N626 C619 1.356 . S
N626 H629 0.984 . S
N626 H630 0.985 . S
H627 N622 0.984 . S
H628 N622 0.985 . S
H629 N626 0.984 . S
H630 N626 0.985 . S
H631 N625 0.984 . S
H632 N625 0.984 . S
H633 N621 0.984 . S
H634 N621 0.985 . S
C206 C128 1.324 . S
C204 N2 1.460 . S
C224 C164 1.316 . S
C222 N14 1.381 . S
C242 C129 1.516 . S
C240 N27 1.503 . S
C260 C159 1.665 . S
C258 N44 1.704 . S
C278 C126 1.230 . S
C276 N54 1.282 . S
C294 N67 1.556 . S
C296 C162 1.579 . S
C312 N83 1.023 . S
C314 C131 0.938 . S
C332 C161 1.289 . S
C330 N93 1.317 . S
C350 C165 1.602 . S
C348 N1 1.641 . S
C368 C130 1.198 . S
C366 N18 1.277 . S
C386 C158 1.353 . S
C384 N28 1.352 . S
C404 C127 1.261 . S
C402 N41 1.407 . S
C422 C160 1.747 . S
C420 N57 1.846 . S
C438 N66 1.511 . S
C440 C125 1.470 . S
C456 N79 1.500 . S
C458 C163 1.451 . S
C476 C132 1.476 . S
C474 N96 1.529 . S
C494 C194 1.686 . S
C492 N5 1.791 . S
C510 N53 1.937 . S
C512 C197 1.811 . S
C530 C196 1.794 . S
C528 N70 1.817 . S
C546 N80 1.684 . S
C548 C195 1.648 . S
C566 C198 1.642 . S
C564 N92 1.722 . S
C582 N31 1.615 . S
C584 C192 1.594 . S
C602 C191 2.051 . S
C600 N40 2.006 . S
C618 N15 1.438 . S
C620 C193 1.307 . S
