# Generated by pormake.
# Topology ctn, (3,4)-cn, num edge types: 1
# Building blocks:
#     Node 0, Type 0, BuildingBlock: BETDAH_clean_linker_0, # of connection points: 3
#     Node 1, Type 0, BuildingBlock: BETDAH_clean_linker_0, # of connection points: 3
#     Node 2, Type 0, BuildingBlock: BETDAH_clean_linker_0, # of connection points: 3
#     Node 3, Type 0, BuildingBlock: BETDAH_clean_linker_0, # of connection points: 3
#     Node 4, Type 0, BuildingBlock: BETDAH_clean_linker_0, # of connection points: 3
#     Node 5, Type 0, BuildingBlock: BETDAH_clean_linker_0, # of connection points: 3
#     Node 6, Type 0, BuildingBlock: BETDAH_clean_linker_0, # of connection points: 3
#     Node 7, Type 0, BuildingBlock: BETDAH_clean_linker_0, # of connection points: 3
#     Node 8, Type 0, BuildingBlock: BETDAH_clean_linker_0, # of connection points: 3
#     Node 9, Type 0, BuildingBlock: BETDAH_clean_linker_0, # of connection points: 3
#     Node 10, Type 0, BuildingBlock: BETDAH_clean_linker_0, # of connection points: 3
#     Node 11, Type 0, BuildingBlock: BETDAH_clean_linker_0, # of connection points: 3
#     Node 12, Type 0, BuildingBlock: BETDAH_clean_linker_0, # of connection points: 3
#     Node 13, Type 0, BuildingBlock: BETDAH_clean_linker_0, # of connection points: 3
#     Node 14, Type 0, BuildingBlock: BETDAH_clean_linker_0, # of connection points: 3
#     Node 15, Type 0, BuildingBlock: BETDAH_clean_linker_0, # of connection points: 3
#     Node 16, Type 1, BuildingBlock: QUQFOY_clean_sbu_1, # of connection points: 4
#     Node 17, Type 1, BuildingBlock: QUQFOY_clean_sbu_1, # of connection points: 4
#     Node 18, Type 1, BuildingBlock: QUQFOY_clean_sbu_1, # of connection points: 4
#     Node 19, Type 1, BuildingBlock: QUQFOY_clean_sbu_1, # of connection points: 4
#     Node 20, Type 1, BuildingBlock: QUQFOY_clean_sbu_1, # of connection points: 4
#     Node 21, Type 1, BuildingBlock: QUQFOY_clean_sbu_1, # of connection points: 4
#     Node 22, Type 1, BuildingBlock: QUQFOY_clean_sbu_1, # of connection points: 4
#     Node 23, Type 1, BuildingBlock: QUQFOY_clean_sbu_1, # of connection points: 4
#     Node 24, Type 1, BuildingBlock: QUQFOY_clean_sbu_1, # of connection points: 4
#     Node 25, Type 1, BuildingBlock: QUQFOY_clean_sbu_1, # of connection points: 4
#     Node 26, Type 1, BuildingBlock: QUQFOY_clean_sbu_1, # of connection points: 4
#     Node 27, Type 1, BuildingBlock: QUQFOY_clean_sbu_1, # of connection points: 4
#     Edge 28, Type (0, 1), BuildingBlock: KIFKEQ_clean_linker_1, # of connection points: 2
#     Edge 29, Type (0, 1), BuildingBlock: KIFKEQ_clean_linker_1, # of connection points: 2
#     Edge 30, Type (0, 1), BuildingBlock: KIFKEQ_clean_linker_1, # of connection points: 2
#     Edge 31, Type (0, 1), BuildingBlock: KIFKEQ_clean_linker_1, # of connection points: 2
#     Edge 32, Type (0, 1), BuildingBlock: KIFKEQ_clean_linker_1, # of connection points: 2
#     Edge 33, Type (0, 1), BuildingBlock: KIFKEQ_clean_linker_1, # of connection points: 2
#     Edge 34, Type (0, 1), BuildingBlock: KIFKEQ_clean_linker_1, # of connection points: 2
#     Edge 35, Type (0, 1), BuildingBlock: KIFKEQ_clean_linker_1, # of connection points: 2
#     Edge 36, Type (0, 1), BuildingBlock: KIFKEQ_clean_linker_1, # of connection points: 2
#     Edge 37, Type (0, 1), BuildingBlock: KIFKEQ_clean_linker_1, # of connection points: 2
#     Edge 38, Type (0, 1), BuildingBlock: KIFKEQ_clean_linker_1, # of connection points: 2
#     Edge 39, Type (0, 1), BuildingBlock: KIFKEQ_clean_linker_1, # of connection points: 2
#     Edge 40, Type (0, 1), BuildingBlock: KIFKEQ_clean_linker_1, # of connection points: 2
#     Edge 41, Type (0, 1), BuildingBlock: KIFKEQ_clean_linker_1, # of connection points: 2
#     Edge 42, Type (0, 1), BuildingBlock: KIFKEQ_clean_linker_1, # of connection points: 2
#     Edge 43, Type (0, 1), BuildingBlock: KIFKEQ_clean_linker_1, # of connection points: 2
#     Edge 44, Type (0, 1), BuildingBlock: KIFKEQ_clean_linker_1, # of connection points: 2
#     Edge 45, Type (0, 1), BuildingBlock: KIFKEQ_clean_linker_1, # of connection points: 2
#     Edge 46, Type (0, 1), BuildingBlock: KIFKEQ_clean_linker_1, # of connection points: 2
#     Edge 47, Type (0, 1), BuildingBlock: KIFKEQ_clean_linker_1, # of connection points: 2
#     Edge 48, Type (0, 1), BuildingBlock: KIFKEQ_clean_linker_1, # of connection points: 2
#     Edge 49, Type (0, 1), BuildingBlock: KIFKEQ_clean_linker_1, # of connection points: 2
#     Edge 50, Type (0, 1), BuildingBlock: KIFKEQ_clean_linker_1, # of connection points: 2
#     Edge 51, Type (0, 1), BuildingBlock: KIFKEQ_clean_linker_1, # of connection points: 2
#     Edge 52, Type (0, 1), BuildingBlock: KIFKEQ_clean_linker_1, # of connection points: 2
#     Edge 53, Type (0, 1), BuildingBlock: KIFKEQ_clean_linker_1, # of connection points: 2
#     Edge 54, Type (0, 1), BuildingBlock: KIFKEQ_clean_linker_1, # of connection points: 2
#     Edge 55, Type (0, 1), BuildingBlock: KIFKEQ_clean_linker_1, # of connection points: 2
#     Edge 56, Type (0, 1), BuildingBlock: KIFKEQ_clean_linker_1, # of connection points: 2
#     Edge 57, Type (0, 1), BuildingBlock: KIFKEQ_clean_linker_1, # of connection points: 2
#     Edge 58, Type (0, 1), BuildingBlock: KIFKEQ_clean_linker_1, # of connection points: 2
#     Edge 59, Type (0, 1), BuildingBlock: KIFKEQ_clean_linker_1, # of connection points: 2
#     Edge 60, Type (0, 1), BuildingBlock: KIFKEQ_clean_linker_1, # of connection points: 2
#     Edge 61, Type (0, 1), BuildingBlock: KIFKEQ_clean_linker_1, # of connection points: 2
#     Edge 62, Type (0, 1), BuildingBlock: KIFKEQ_clean_linker_1, # of connection points: 2
#     Edge 63, Type (0, 1), BuildingBlock: KIFKEQ_clean_linker_1, # of connection points: 2
#     Edge 64, Type (0, 1), BuildingBlock: KIFKEQ_clean_linker_1, # of connection points: 2
#     Edge 65, Type (0, 1), BuildingBlock: KIFKEQ_clean_linker_1, # of connection points: 2
#     Edge 66, Type (0, 1), BuildingBlock: KIFKEQ_clean_linker_1, # of connection points: 2
#     Edge 67, Type (0, 1), BuildingBlock: KIFKEQ_clean_linker_1, # of connection points: 2
#     Edge 68, Type (0, 1), BuildingBlock: KIFKEQ_clean_linker_1, # of connection points: 2
#     Edge 69, Type (0, 1), BuildingBlock: KIFKEQ_clean_linker_1, # of connection points: 2
#     Edge 70, Type (0, 1), BuildingBlock: KIFKEQ_clean_linker_1, # of connection points: 2
#     Edge 71, Type (0, 1), BuildingBlock: KIFKEQ_clean_linker_1, # of connection points: 2
#     Edge 72, Type (0, 1), BuildingBlock: KIFKEQ_clean_linker_1, # of connection points: 2
#     Edge 73, Type (0, 1), BuildingBlock: KIFKEQ_clean_linker_1, # of connection points: 2
#     Edge 74, Type (0, 1), BuildingBlock: KIFKEQ_clean_linker_1, # of connection points: 2
#     Edge 75, Type (0, 1), BuildingBlock: KIFKEQ_clean_linker_1, # of connection points: 2
# Relax obj value: 0.075
# Max RMSD: 0.181
# Mean RMSD: 0.121
data_MOF--net-ctn--node1-QUQFOY_clean_sbu_1--node2-BETDAH_clean_linker_0--edge1-KIFKEQ_clean_linker_1
_symmetry_space_group_name_H-M    P1
_symmetry_Int_Tables_number       1
_symmetry_cell_setting            triclinic
loop_
_symmetry_equiv_pos_as_xyz
'x, y, z'
_cell_length_a     54.963505
_cell_length_b     54.741226
_cell_length_c     56.034149
_cell_angle_alpha  101.85879
_cell_angle_beta   90.052818
_cell_angle_gamma 99.63795
loop_
_atom_site_label
_atom_site_type_symbol
_atom_site_fract_x
_atom_site_fract_y
_atom_site_fract_z
_atom_type_partial_charge
H0 H 0.05334 0.05593 0.08732 0.0
H1 H 0.08655 0.10808 0.04361 0.0
H2 H 0.0298 0.12779 0.09268 0.0
C3 C 0.0542 0.07347 0.08102 0.0
C4 C 0.03873 0.09054 0.09132 0.0
C5 C 0.07175 0.0795 0.06391 0.0
C6 C 0.07319 0.1029 0.05669 0.0
C7 C 0.05809 0.12024 0.06717 0.0
C8 C 0.04119 0.11413 0.08458 0.0
N9 N 0.06148 0.14498 0.06243 0.0
C10 C 0.05751 0.14993 0.03952 0.0
H11 H 0.329 0.71628 0.26021 0.0
H12 H 0.35208 0.76398 0.20916 0.0
H13 H 0.29117 0.70223 0.19036 0.0
C14 C 0.32664 0.72149 0.2428 0.0
C15 C 0.30796 0.70713 0.22625 0.0
C16 C 0.34264 0.74208 0.23695 0.0
C17 C 0.3396 0.74846 0.21417 0.0
C18 C 0.32079 0.73417 0.19752 0.0
C19 C 0.3052 0.71353 0.20356 0.0
N20 N 0.31875 0.73865 0.17369 0.0
C21 C 0.31294 0.76098 0.16904 0.0
H22 H 0.0112 0.44935 0.09204 0.0
H23 H 0.97467 0.50514 0.1365 0.0
H24 H 0.95461 0.47964 0.06025 0.0
C25 C 0.99788 0.46209 0.09388 0.0
C26 C 0.98348 0.46286 0.07339 0.0
C27 C 0.99491 0.47718 0.11679 0.0
C28 C 0.97698 0.49295 0.11908 0.0
C29 C 0.96252 0.49406 0.09892 0.0
C30 C 0.96571 0.4789 0.07599 0.0
N31 N 0.94511 0.5108 0.10259 0.0
C32 C 0.93297 0.518 0.0841 0.0
H33 H 0.78646 0.80551 0.19847 0.0
H34 H 0.74057 0.74099 0.21724 0.0
H35 H 0.75018 0.81332 0.26697 0.0
C36 C 0.77454 0.79721 0.21116 0.0
C37 C 0.76983 0.81243 0.2335 0.0
C38 C 0.76394 0.77148 0.20491 0.0
C39 C 0.74898 0.76082 0.22171 0.0
C40 C 0.74363 0.77578 0.24387 0.0
C41 C 0.75388 0.80174 0.24967 0.0
N42 N 0.72817 0.76393 0.25995 0.0
C43 C 0.71372 0.77644 0.27703 0.0
H44 H 0.06913 0.01668 0.43246 0.0
H45 H 0.073 0.97232 0.48701 0.0
H46 H 0.00462 0.96653 0.44746 0.0
C47 C 0.06034 0.0026 0.44221 0.0
C48 C 0.03514 0.99264 0.4377 0.0
C49 C 0.07423 0.99517 0.4597 0.0
C50 C 0.06245 0.97813 0.47347 0.0
C51 C 0.03722 0.96795 0.46904 0.0
C52 C 0.02391 0.97497 0.45101 0.0
N53 N 0.02458 0.95021 0.48191 0.0
C54 C 0.03273 0.94609 0.50398 0.0
H55 H 0.28242 0.76194 0.84179 0.0
H56 H 0.2424 0.80469 0.80432 0.0
H57 H 0.27848 0.74702 0.7631 0.0
C58 C 0.2758 0.76556 0.82485 0.0
C59 C 0.28219 0.75163 0.80239 0.0
C60 C 0.26134 0.78463 0.82574 0.0
C61 C 0.25356 0.79007 0.80381 0.0
C62 C 0.26014 0.77668 0.78127 0.0
C63 C 0.27436 0.75767 0.78071 0.0
N64 N 0.2526 0.78173 0.75879 0.0
C65 C 0.2323 0.79315 0.75619 0.0
H66 H 0.93813 0.59585 0.54501 0.0
H67 H 0.00386 0.59677 0.50318 0.0
H68 H 0.94342 0.53451 0.48465 0.0
C69 C 0.94855 0.58693 0.53029 0.0
C70 C 0.93785 0.56383 0.51534 0.0
C71 C 0.97231 0.59898 0.526 0.0
C72 C 0.98549 0.58762 0.50647 0.0
C73 C 0.97496 0.5642 0.49162 0.0
C74 C 0.95124 0.55265 0.49608 0.0
N75 N 0.98751 0.55131 0.47219 0.0
C76 C 0.01136 0.55942 0.46562 0.0
H77 H 0.83767 0.7609 0.81776 0.0
H78 H 0.80072 0.80931 0.78402 0.0
H79 H 0.76132 0.76548 0.83125 0.0
C80 C 0.82127 0.76863 0.81491 0.0
C81 C 0.79951 0.76088 0.8265 0.0
C82 C 0.82202 0.78605 0.79947 0.0
C83 C 0.80067 0.79624 0.79615 0.0
C84 C 0.77878 0.7885 0.8075 0.0
C85 C 0.77829 0.77082 0.82235 0.0
N86 N 0.75662 0.79744 0.80373 0.0
C87 C 0.75587 0.82179 0.80053 0.0
H88 H 0.34063 0.27298 0.31056 0.0
H89 H 0.29993 0.31262 0.26963 0.0
H90 H 0.26283 0.27122 0.32021 0.0
C91 C 0.32352 0.27872 0.3061 0.0
C92 C 0.30196 0.27078 0.31777 0.0
C93 C 0.32304 0.29384 0.28866 0.0
C94 C 0.30063 0.30103 0.28306 0.0
C95 C 0.27893 0.29278 0.29445 0.0
C96 C 0.27968 0.2776 0.31157 0.0
N97 N 0.25594 0.29872 0.28834 0.0
C98 C 0.25273 0.32327 0.28809 0.0
H99 H 0.51943 0.97383 0.59715 0.0
H100 H 0.48305 0.03082 0.63986 0.0
H101 H 0.46079 0.00078 0.56464 0.0
C102 C 0.50567 0.98607 0.59861 0.0
C103 C 0.49033 0.98519 0.57822 0.0
C104 C 0.50339 0.00264 0.62086 0.0
C105 C 0.48533 0.01819 0.62269 0.0
C106 C 0.47013 0.01784 0.60259 0.0
C107 C 0.47259 0.00126 0.58028 0.0
N108 N 0.45253 0.03435 0.60572 0.0
C109 C 0.44031 0.04074 0.58681 0.0
H110 H 0.28967 0.32318 0.69245 0.0
H111 H 0.25826 0.25448 0.71494 0.0
H112 H 0.25829 0.32637 0.76319 0.0
C113 C 0.28018 0.31372 0.70585 0.0
C114 C 0.27457 0.32813 0.72833 0.0
C115 C 0.27414 0.28716 0.70059 0.0
C116 C 0.26325 0.27494 0.71862 0.0
C117 C 0.25736 0.28891 0.74104 0.0
C118 C 0.26289 0.31554 0.74585 0.0
N119 N 0.24584 0.27557 0.75834 0.0
C120 C 0.22925 0.28507 0.77495 0.0
H121 H 0.83071 0.22083 0.76447 0.0
H122 H 0.83037 0.29226 0.74337 0.0
H123 H 0.7621 0.24263 0.74825 0.0
C124 C 0.82082 0.23413 0.75841 0.0
C125 C 0.795 0.22861 0.75615 0.0
C126 C 0.83389 0.25705 0.75395 0.0
C127 C 0.82068 0.27433 0.74649 0.0
C128 C 0.79473 0.26891 0.74427 0.0
C129 C 0.78212 0.24625 0.7493 0.0
N130 N 0.7806 0.28674 0.73919 0.0
C131 C 0.78582 0.3005 0.72105 0.0
H132 H 0.5478 0.55306 0.58378 0.0
H133 H 0.60126 0.60002 0.54914 0.0
H134 H 0.53727 0.62823 0.57926 0.0
C135 C 0.55393 0.57058 0.57775 0.0
C136 C 0.53998 0.59025 0.58328 0.0
C137 C 0.57604 0.57363 0.56525 0.0
C138 C 0.58388 0.59674 0.55803 0.0
C139 C 0.56963 0.61602 0.56234 0.0
C140 C 0.54774 0.61286 0.57509 0.0
N141 N 0.57884 0.63922 0.55545 0.0
C142 C 0.56543 0.65019 0.54079 0.0
H143 H 0.55915 0.51994 0.93019 0.0
H144 H 0.55451 0.47551 0.98555 0.0
H145 H 0.48868 0.48115 0.94726 0.0
C146 C 0.54824 0.50736 0.94026 0.0
C147 C 0.52252 0.50152 0.93616 0.0
C148 C 0.55999 0.49795 0.95789 0.0
C149 C 0.54562 0.48278 0.97189 0.0
C150 C 0.5198 0.477 0.96815 0.0
C151 C 0.50852 0.48626 0.95027 0.0
N152 N 0.50444 0.46207 0.98199 0.0
C153 C 0.51284 0.44996 0.99905 0.0
H154 H 0.78091 0.24333 0.34718 0.0
H155 H 0.73946 0.2858 0.31076 0.0
H156 H 0.77335 0.22677 0.26867 0.0
C157 C 0.77383 0.24695 0.33043 0.0
C158 C 0.77906 0.23242 0.30783 0.0
C159 C 0.75933 0.26604 0.33172 0.0
C160 C 0.75023 0.27082 0.30998 0.0
C161 C 0.75573 0.25685 0.28725 0.0
C162 C 0.77002 0.23783 0.28635 0.0
N163 N 0.74734 0.26146 0.26489 0.0
C164 C 0.72806 0.27445 0.26278 0.0
H165 H 0.4549 0.081 0.05298 0.0
H166 H 0.52823 0.07274 0.02929 0.0
H167 H 0.47087 0.00742 0.02086 0.0
C168 C 0.46792 0.06922 0.0447 0.0
C169 C 0.4599 0.04312 0.03684 0.0
C170 C 0.49252 0.08018 0.04206 0.0
C171 C 0.5092 0.06457 0.03139 0.0
C172 C 0.50134 0.03828 0.02383 0.0
C173 C 0.47681 0.0277 0.02672 0.0
N174 N 0.51782 0.02195 0.0137 0.0
C175 C 0.5354 0.02817 0.99721 0.0
O176 O 0.2462 0.88489 0.00869 0.0
Cd177 Cd 0.25625 0.90495 0.04381 0.0
Cd178 Cd 0.23173 0.94161 0.02045 0.0
O179 O 0.22815 0.91075 0.99177 0.0
O180 O 0.27797 0.88242 0.05318 0.0
O181 O 0.24517 0.89054 0.07367 0.0
C182 C 0.2642 0.8794 0.07119 0.0
C183 C 0.19923 0.9649 0.0266 0.0
C184 C 0.23558 0.88974 0.99043 0.0
C185 C 0.28443 0.95761 0.04052 0.0
O186 O 0.26671 0.96234 0.02863 0.0
O187 O 0.2826 0.9372 0.04831 0.0
O188 O 0.21377 0.96602 0.00872 0.0
O189 O 0.20283 0.95011 0.04101 0.0
O190 O 0.20375 0.55923 0.30344 0.0
Cd191 Cd 0.1838 0.53084 0.3181 0.0
Cd192 Cd 0.14553 0.53779 0.28912 0.0
O193 O 0.17405 0.56199 0.27812 0.0
O194 O 0.20753 0.51069 0.32792 0.0
O195 O 0.17867 0.49521 0.29855 0.0
C196 C 0.19707 0.49192 0.31124 0.0
C197 C 0.11494 0.51867 0.25888 0.0
C198 C 0.19616 0.56871 0.28653 0.0
C199 C 0.14069 0.5471 0.34452 0.0
O200 O 0.13212 0.54726 0.3235 0.0
O201 O 0.16149 0.54049 0.3469 0.0
O202 O 0.1172 0.54218 0.26937 0.0
O203 O 0.1303 0.50562 0.26542 0.0
O204 O 0.77524 0.65544 0.96829 0.0
Cd205 Cd 0.76691 0.63814 0.99741 0.0
Cd206 Cd 0.78769 0.60171 0.96814 0.0
O207 O 0.79461 0.62735 0.94552 0.0
O208 O 0.75373 0.66486 0.02081 0.0
O209 O 0.78644 0.64943 0.02959 0.0
C210 C 0.77095 0.66462 0.03627 0.0
C211 C 0.81949 0.58928 0.98742 0.0
C212 C 0.78679 0.64835 0.94916 0.0
C213 C 0.7352 0.58669 0.9795 0.0
O214 O 0.75291 0.57993 0.96666 0.0
O215 O 0.73771 0.60859 0.99321 0.0
O216 O 0.81294 0.57917 0.96493 0.0
O217 O 0.80824 0.60699 0.99875 0.0
O218 O 0.9324 0.02576 0.28736 0.0
Cd219 Cd 0.91042 0.02454 0.2571 0.0
Cd220 Cd 0.8806 0.04305 0.29255 0.0
O221 O 0.90939 0.04306 0.31608 0.0
O222 O 0.93274 0.01667 0.22963 0.0
O223 O 0.91714 0.05198 0.23745 0.0
C224 C 0.93099 0.03808 0.22425 0.0
C225 C 0.86379 0.07975 0.29509 0.0
C226 C 0.92887 0.03413 0.30975 0.0
C227 C 0.86162 0.99177 0.26157 0.0
O228 O 0.85804 0.00864 0.27985 0.0
O229 O 0.88088 0.99506 0.24928 0.0
O230 O 0.85853 0.06523 0.31048 0.0
O231 O 0.87896 0.07355 0.27819 0.0
O232 O 0.27973 0.16947 0.46361 0.0
Cd233 Cd 0.27278 0.15257 0.49319 0.0
Cd234 Cd 0.2953 0.11734 0.46461 0.0
O235 O 0.30107 0.14272 0.44166 0.0
O236 O 0.2593 0.17875 0.51699 0.0
O237 O 0.29343 0.16499 0.52459 0.0
C238 C 0.27743 0.17946 0.5318 0.0
C239 C 0.32768 0.10685 0.48472 0.0
C240 C 0.2919 0.16293 0.44476 0.0
C241 C 0.24342 0.09984 0.47639 0.0
O242 O 0.26137 0.0941 0.46337 0.0
O243 O 0.24493 0.12175 0.48991 0.0
O244 O 0.32172 0.09623 0.46221 0.0
O245 O 0.31559 0.12408 0.49551 0.0
O246 O 0.43129 0.54086 0.78162 0.0
Cd247 Cd 0.40939 0.53975 0.7512 0.0
Cd248 Cd 0.37998 0.55976 0.78643 0.0
O249 O 0.40858 0.55933 0.80997 0.0
O250 O 0.43104 0.5307 0.72343 0.0
O251 O 0.41637 0.56654 0.73076 0.0
C252 C 0.42947 0.55187 0.71744 0.0
C253 C 0.36391 0.59693 0.78918 0.0
C254 C 0.42776 0.54974 0.80392 0.0
C255 C 0.35995 0.50836 0.7562 0.0
O256 O 0.35673 0.52568 0.77423 0.0
O257 O 0.37926 0.51089 0.74386 0.0
O258 O 0.35842 0.58244 0.80454 0.0
O259 O 0.37886 0.59043 0.77216 0.0
O260 O 0.74835 0.37445 0.51239 0.0
Cd261 Cd 0.75725 0.3994 0.54545 0.0
Cd262 Cd 0.72631 0.42692 0.52205 0.0
O263 O 0.72337 0.39426 0.49541 0.0
O264 O 0.77816 0.38089 0.56201 0.0
O265 O 0.74359 0.39173 0.57719 0.0
C266 C 0.76265 0.38125 0.57919 0.0
C267 C 0.69162 0.44643 0.53058 0.0
C268 C 0.73449 0.37553 0.49458 0.0
C269 C 0.77924 0.45109 0.53577 0.0
O270 O 0.75913 0.45193 0.52502 0.0
O271 O 0.78142 0.4325 0.54547 0.0
O272 O 0.70232 0.44563 0.51008 0.0
O273 O 0.70015 0.43538 0.54625 0.0
O274 O 0.70539 0.05912 0.8125 0.0
Cd275 Cd 0.6872 0.02752 0.82386 0.0
Cd276 Cd 0.64612 0.03866 0.80017 0.0
O277 O 0.67285 0.06804 0.79517 0.0
O278 O 0.7132 0.00872 0.83145 0.0
O279 O 0.68445 0.99299 0.80209 0.0
C280 C 0.70353 0.99023 0.81414 0.0
C281 C 0.61648 0.0253 0.76807 0.0
C282 C 0.69572 0.0731 0.80108 0.0
C283 C 0.64316 0.03619 0.85388 0.0
O284 O 0.63283 0.03868 0.83444 0.0
O285 O 0.66522 0.03198 0.85389 0.0
O286 O 0.61715 0.04623 0.78367 0.0
O287 O 0.63263 0.01137 0.77076 0.0
O288 O 0.00315 0.31123 0.92367 0.0
Cd289 Cd 0.00875 0.27944 0.8985 0.0
Cd290 Cd 0.03628 0.31491 0.87839 0.0
O291 O 0.03021 0.33929 0.91016 0.0
O292 O 0.99671 0.25046 0.91446 0.0
O293 O 0.03586 0.26111 0.90612 0.0
C294 C 0.01919 0.24675 0.91558 0.0
C295 C 0.07626 0.31281 0.86547 0.0
C296 C 0.01454 0.33383 0.92572 0.0
C297 C 0.99106 0.28559 0.84971 0.0
O298 O 0.00809 0.30483 0.85212 0.0
O299 O 0.98924 0.27157 0.86537 0.0
O300 O 0.06557 0.33155 0.86334 0.0
O301 O 0.06429 0.29534 0.87547 0.0
O302 O 0.49806 0.82237 0.43696 0.0
Cd303 Cd 0.50003 0.78847 0.41348 0.0
Cd304 Cd 0.52862 0.82003 0.38885 0.0
O305 O 0.52444 0.84741 0.41925 0.0
O306 O 0.48845 0.76214 0.43282 0.0
O307 O 0.52646 0.76889 0.41982 0.0
C308 C 0.51045 0.7568 0.43201 0.0
C309 C 0.5679 0.81623 0.37441 0.0
C310 C 0.51 0.84424 0.43648 0.0
C311 C 0.48098 0.79077 0.36386 0.0
O312 O 0.49949 0.80806 0.36355 0.0
O313 O 0.47835 0.77953 0.38168 0.0
O314 O 0.55707 0.83451 0.37114 0.0
O315 O 0.55654 0.80026 0.38648 0.0
O316 O 0.99458 0.80821 0.71045 0.0
Cd317 Cd 0.02471 0.80195 0.6896 0.0
Cd318 Cd 0.9993 0.82139 0.65744 0.0
O319 O 0.97455 0.82457 0.68523 0.0
O320 O 0.04737 0.79255 0.7125 0.0
O321 O 0.05767 0.82538 0.69511 0.0
C322 C 0.06368 0.81127 0.70923 0.0
C323 C 0.01071 0.85526 0.63816 0.0
C324 C 0.97601 0.81748 0.70532 0.0
C325 C 0.00909 0.76837 0.64039 0.0
O326 O 0.99902 0.7861 0.63547 0.0
O327 O 0.02026 0.77112 0.66087 0.0
O328 O 0.98885 0.84193 0.6352 0.0
O329 O 0.0262 0.84982 0.65278 0.0
O330 O 0.49751 0.30392 0.20357 0.0
Cd331 Cd 0.52892 0.29514 0.18616 0.0
Cd332 Cd 0.50482 0.31157 0.14743 0.0
O333 O 0.47857 0.31528 0.17384 0.0
O334 O 0.54839 0.28652 0.21226 0.0
O335 O 0.56254 0.31725 0.19322 0.0
C336 C 0.56618 0.30392 0.20901 0.0
C337 C 0.50963 0.34109 0.12212 0.0
C338 C 0.47903 0.31129 0.1954 0.0
C339 C 0.51783 0.25867 0.13752 0.0
O340 O 0.50928 0.27575 0.12955 0.0
O341 O 0.52582 0.26263 0.15948 0.0
O342 O 0.49035 0.3238 0.12049 0.0
O343 O 0.52626 0.34221 0.13878 0.0
H344 H 0.24504 0.7658 0.86558 0.0
H345 H 0.26203 0.83564 0.83982 0.0
H346 H 0.23487 0.78933 0.90515 0.0
H347 H 0.2521 0.8592 0.87936 0.0
H348 H 0.21598 0.89403 0.94674 0.0
H349 H 0.21901 0.86722 0.90671 0.0
H350 H 0.25624 0.81838 0.93993 0.0
H351 H 0.25269 0.84472 0.97992 0.0
C352 C 0.24669 0.78619 0.86841 0.0
C353 C 0.25445 0.79887 0.8496 0.0
C354 C 0.24084 0.79968 0.89107 0.0
C355 C 0.24266 0.82617 0.89546 0.0
C356 C 0.25005 0.83877 0.87649 0.0
C357 C 0.25583 0.82528 0.85383 0.0
C358 C 0.22446 0.87735 0.94557 0.0
C359 C 0.23428 0.87168 0.96658 0.0
C360 C 0.22637 0.86208 0.92257 0.0
C361 C 0.23814 0.84082 0.92005 0.0
C362 C 0.24689 0.83449 0.94118 0.0
C363 C 0.24494 0.8497 0.96416 0.0
H364 H 0.02982 0.5985 0.44482 0.0
H365 H 0.04527 0.5291 0.46154 0.0
H366 H 0.06591 0.60068 0.41919 0.0
H367 H 0.08094 0.53072 0.43558 0.0
H368 H 0.14882 0.54287 0.39184 0.0
H369 H 0.12172 0.55129 0.42612 0.0
H370 H 0.07152 0.57504 0.37963 0.0
H371 H 0.09852 0.56716 0.34582 0.0
C372 C 0.0414 0.58412 0.44345 0.0
C373 C 0.03508 0.56369 0.45499 0.0
C374 C 0.06189 0.5852 0.42868 0.0
C375 C 0.07614 0.5657 0.42511 0.0
C376 C 0.07057 0.54617 0.43811 0.0
C377 C 0.05013 0.54516 0.4529 0.0
C378 C 0.13217 0.55023 0.38909 0.0
C379 C 0.12572 0.55409 0.36602 0.0
C380 C 0.11663 0.55499 0.40869 0.0
C381 C 0.09446 0.56384 0.40562 0.0
C382 C 0.08861 0.56863 0.3828 0.0
C383 C 0.10402 0.56382 0.36327 0.0
H384 H 0.83623 0.75676 0.85822 0.0
H385 H 0.76139 0.72341 0.83248 0.0
H386 H 0.83433 0.72799 0.88646 0.0
H387 H 0.75927 0.69587 0.86177 0.0
H388 H 0.7589 0.68305 0.94235 0.0
H389 H 0.76289 0.70876 0.91134 0.0
H390 H 0.82587 0.67597 0.88328 0.0
H391 H 0.82158 0.64953 0.91409 0.0
C392 C 0.81949 0.74319 0.8583 0.0
C393 C 0.79889 0.74264 0.84307 0.0
C394 C 0.81842 0.72681 0.87458 0.0
C395 C 0.79663 0.7099 0.87629 0.0
C396 C 0.77621 0.70896 0.86089 0.0
C397 C 0.7774 0.72493 0.84429 0.0
C398 C 0.77364 0.6813 0.92963 0.0
C399 C 0.78994 0.66427 0.93065 0.0
C400 C 0.77581 0.69592 0.91182 0.0
C401 C 0.79461 0.69421 0.89497 0.0
C402 C 0.81124 0.67756 0.89616 0.0
C403 C 0.80873 0.66245 0.91368 0.0
H404 H 0.98747 0.00148 0.44025 0.0
H405 H 0.04985 0.00237 0.39331 0.0
H406 H 0.96323 0.01332 0.40951 0.0
H407 H 0.02617 0.01597 0.36332 0.0
H408 H 0.96706 0.00768 0.30325 0.0
H409 H 0.99334 -0.00071 0.33437 0.0
H410 H 0.95773 0.04672 0.39006 0.0
H411 H 0.93065 0.0543 0.35885 0.0
C412 C 0.99606 0.00426 0.4234 0.0
C413 C 0.02059 0.00077 0.41923 0.0
C414 C 0.98226 0.0115 0.40592 0.0
C415 C 0.99271 0.01568 0.3839 0.0
C416 C 0.01739 0.01261 0.37991 0.0
C417 C 0.0311 0.00512 0.39729 0.0
C418 C 0.96497 0.01655 0.3221 0.0
C419 C 0.94663 0.03153 0.32857 0.0
C420 C 0.98017 0.01183 0.33999 0.0
C421 C 0.97762 0.02221 0.3648 0.0
C422 C 0.95988 0.038 0.37119 0.0
C423 C 0.94448 0.04251 0.35328 0.0
H424 H 0.26664 0.29966 0.65676 0.0
H425 H 0.28993 0.24119 0.68824 0.0
H426 H 0.27047 0.27493 0.61614 0.0
H427 H 0.29252 0.21574 0.64733 0.0
H428 H 0.31292 0.18561 0.56816 0.0
H429 H 0.31468 0.21266 0.60902 0.0
H430 H 0.24716 0.23702 0.59173 0.0
H431 H 0.24571 0.21071 0.55112 0.0
C432 C 0.27283 0.28163 0.65505 0.0
C433 C 0.27793 0.27242 0.67583 0.0
C434 C 0.27471 0.26728 0.6317 0.0
C435 C 0.28152 0.24322 0.62847 0.0
C436 C 0.28735 0.23426 0.64919 0.0
C437 C 0.28556 0.24871 0.67263 0.0
C438 C 0.29857 0.19689 0.57311 0.0
C439 C 0.27922 0.19606 0.55639 0.0
C440 C 0.2995 0.21226 0.59653 0.0
C441 C 0.28113 0.22711 0.6036 0.0
C442 C 0.26187 0.22623 0.58677 0.0
C443 C 0.26096 0.21097 0.56348 0.0
H444 H 0.53005 0.62404 0.62372 0.0
H445 H 0.50228 0.55008 0.57967 0.0
H446 H 0.50014 0.61605 0.65465 0.0
H447 H 0.4722 0.54217 0.61035 0.0
H448 H 0.45482 0.52263 0.6849 0.0
H449 H 0.4777 0.5337 0.65058 0.0
H450 H 0.45673 0.60781 0.66659 0.0
H451 H 0.43385 0.59673 0.70152 0.0
C452 C 0.51706 0.60638 0.62033 0.0
C453 C 0.51869 0.58755 0.59943 0.0
C454 C 0.49992 0.60178 0.63806 0.0
C455 C 0.48407 0.57828 0.63519 0.0
C456 C 0.48454 0.56023 0.61341 0.0
C457 C 0.50169 0.56479 0.59578 0.0
C458 C 0.45491 0.54127 0.68111 0.0
C459 C 0.44253 0.55881 0.69602 0.0
C460 C 0.46789 0.54754 0.66123 0.0
C461 C 0.4689 0.57158 0.65566 0.0
C462 C 0.45638 0.58916 0.67045 0.0
C463 C 0.44322 0.5828 0.69039 0.0
H464 H 0.77449 0.3468 0.72371 0.0
H465 H 0.79731 0.28395 0.67447 0.0
H466 H 0.76991 0.36756 0.68957 0.0
H467 H 0.79241 0.3043 0.64012 0.0
H468 H 0.80125 0.35827 0.58746 0.0
H469 H 0.80909 0.34032 0.62241 0.0
H470 H 0.74182 0.36085 0.65407 0.0
H471 H 0.73416 0.37928 0.61917 0.0
C472 C 0.77889 0.33769 0.70555 0.0
C473 C 0.78649 0.31406 0.70153 0.0
C474 C 0.776 0.34937 0.686 0.0
C475 C 0.78062 0.33751 0.66208 0.0
C476 C 0.78894 0.31408 0.65832 0.0
C477 C 0.79178 0.30242 0.67791 0.0
C478 C 0.7881 0.35899 0.60186 0.0
C479 C 0.76703 0.37018 0.60049 0.0
C480 C 0.79257 0.34859 0.62187 0.0
C481 C 0.7761 0.34913 0.64105 0.0
C482 C 0.75506 0.36042 0.63975 0.0
C483 C 0.75056 0.37082 0.61968 0.0
H484 H 0.51781 0.96364 0.63819 0.0
H485 H 0.52699 0.04528 0.65138 0.0
H486 H 0.54445 0.96681 0.67415 0.0
H487 H 0.55349 0.04844 0.68701 0.0
H488 H 0.5764 0.04695 0.76297 0.0
H489 H 0.54866 0.0395 0.72754 0.0
H490 H 0.58777 0.9814 0.69029 0.0
H491 H 0.61548 0.98854 0.72628 0.0
C492 C 0.52567 0.98223 0.64865 0.0
C493 C 0.52011 0.00422 0.64214 0.0
C494 C 0.54091 0.98404 0.66921 0.0
C495 C 0.55082 0.00786 0.68359 0.0
C496 C 0.54565 0.02978 0.67668 0.0
C497 C 0.53048 0.02798 0.65624 0.0
C498 C 0.57902 0.03242 0.74733 0.0
C499 C 0.59831 0.01852 0.74731 0.0
C500 C 0.56318 0.02826 0.72695 0.0
C501 C 0.5663 0.0102 0.70594 0.0
C502 C 0.5849 0.99543 0.70624 0.0
C503 C 0.60078 -0.00045 0.7268 0.0
H504 H 0.86876 0.22656 0.74286 0.0
H505 H 0.85985 0.30194 0.77933 0.0
H506 H 0.91022 0.23354 0.76141 0.0
H507 H 0.90145 0.30903 0.79753 0.0
H508 H 0.98211 0.31752 0.82024 0.0
H509 H 0.9473 0.31172 0.7913 0.0
H510 H 0.92181 0.23728 0.80558 0.0
H511 H 0.95646 0.24301 0.83451 0.0
C512 C 0.87586 0.24481 0.75442 0.0
C513 C 0.86086 0.26355 0.75995 0.0
C514 C 0.89957 0.24878 0.76504 0.0
C515 C 0.90891 0.27167 0.78122 0.0
C516 C 0.89479 0.29122 0.78506 0.0
C517 C 0.87096 0.28719 0.77455 0.0
C518 C 0.96932 0.29973 0.8169 0.0
C519 C 0.97196 0.28077 0.82983 0.0
C520 C 0.94934 0.29649 0.8004 0.0
C521 C 0.93181 0.27409 0.79621 0.0
C522 C 0.93516 0.25466 0.80822 0.0
C523 C 0.95493 0.258 0.82492 0.0
H524 H 0.53267 0.9755 0.55551 0.0
H525 H 0.45333 0.95364 0.54888 0.0
H526 H 0.53688 0.94244 0.51999 0.0
H527 H 0.4575 0.92093 0.51292 0.0
H528 H 0.47817 0.84467 0.47391 0.0
H529 H 0.47285 0.88033 0.50625 0.0
H530 H 0.52863 0.92914 0.47555 0.0
H531 H 0.53423 0.89333 0.4432 0.0
C532 C 0.51612 0.96375 0.5463 0.0
C533 C 0.49268 0.96699 0.55509 0.0
C534 C 0.51852 0.94498 0.52583 0.0
C535 C 0.49753 0.92897 0.51375 0.0
C536 C 0.47403 0.93278 0.52204 0.0
C537 C 0.47163 0.95166 0.54246 0.0
C538 C 0.48931 0.86299 0.47398 0.0
C539 C 0.50671 0.8661 0.45599 0.0
C540 C 0.48609 0.88349 0.49243 0.0
C541 C 0.50025 0.90757 0.4934 0.0
C542 C 0.51758 0.91076 0.47537 0.0
C543 C 0.52073 0.89025 0.45682 0.0
H544 H 0.22023 0.27474 0.8194 0.0
H545 H 0.19477 0.3115 0.76549 0.0
H546 H 0.18491 0.28372 0.84439 0.0
H547 H 0.15914 0.32006 0.78992 0.0
H548 H 0.10678 0.34809 0.84645 0.0
H549 H 0.14601 0.34395 0.82724 0.0
H550 H 0.14073 0.26897 0.84231 0.0
H551 H 0.10173 0.27338 0.8621 0.0
C552 C 0.20714 0.28502 0.81313 0.0
C553 C 0.21003 0.29263 0.79078 0.0
C554 C 0.18685 0.28997 0.82726 0.0
C555 C 0.16912 0.30253 0.81914 0.0
C556 C 0.17258 0.31068 0.79693 0.0
C557 C 0.19288 0.30574 0.78287 0.0
C558 C 0.11409 0.33081 0.84589 0.0
C559 C 0.10104 0.31098 0.85566 0.0
C560 C 0.13654 0.32839 0.83475 0.0
C561 C 0.14645 0.30605 0.83302 0.0
C562 C 0.13378 0.28655 0.84353 0.0
C563 C 0.11134 0.28901 0.85476 0.0
H564 H 0.5321 0.68181 0.55031 0.0
H565 H 0.57596 0.64705 0.49368 0.0
H566 H 0.51771 0.70604 0.52249 0.0
H567 H 0.56144 0.67084 0.46561 0.0
H568 H 0.5555 0.74233 0.43543 0.0
H569 H 0.56734 0.71474 0.46092 0.0
H570 H 0.49266 0.70206 0.48539 0.0
H571 H 0.48091 0.7299 0.46022 0.0
C572 C 0.5383 0.67913 0.53175 0.0
C573 C 0.55496 0.66265 0.52394 0.0
C574 C 0.53006 0.6929 0.51579 0.0
C575 C 0.5385 0.69046 0.4918 0.0
C576 C 0.55484 0.67343 0.48401 0.0
C577 C 0.56299 0.65967 0.49996 0.0
C578 C 0.54156 0.73348 0.44608 0.0
C579 C 0.51728 0.7384 0.44582 0.0
C580 C 0.54831 0.71757 0.46063 0.0
C581 C 0.53096 0.70625 0.4753 0.0
C582 C 0.50656 0.71074 0.4746 0.0
C583 C 0.4998 0.72659 0.46002 0.0
H584 H 0.85361 0.75478 0.77871 0.0
H585 H 0.84221 0.83253 0.78998 0.0
H586 H 0.89166 0.76565 0.75834 0.0
H587 H 0.88017 0.84316 0.76868 0.0
H588 H 0.93351 0.83678 0.7013 0.0
H589 H 0.8966 0.83144 0.72535 0.0
H590 H 0.93369 0.79275 0.77034 0.0
H591 H 0.9705 0.79802 0.74651 0.0
C592 C 0.85931 0.77427 0.7771 0.0
C593 C 0.84493 0.79284 0.78633 0.0
C594 C 0.88112 0.78046 0.76533 0.0
C595 C 0.889 0.8053 0.76217 0.0
C596 C 0.87447 0.82384 0.77085 0.0
C597 C 0.8527 0.81771 0.78295 0.0
C598 C 0.93393 0.82748 0.71655 0.0
C599 C 0.9549 0.8176 0.7218 0.0
C600 C 0.91281 0.82451 0.73035 0.0
C601 C 0.91221 0.81141 0.74949 0.0
C602 C 0.93354 0.80261 0.75544 0.0
C603 C 0.95467 0.80576 0.74184 0.0
H604 H 0.0587 0.9112 0.51329 0.0
H605 H 0.01437 0.9661 0.5464 0.0
H606 H 0.05754 0.89433 0.55065 0.0
H607 H 0.01323 0.94948 0.58384 0.0
H608 H 0.98021 0.88007 0.61783 0.0
H609 H 0.99055 0.90753 0.58899 0.0
H610 H 0.06756 0.90197 0.59629 0.0
H611 H 0.05713 0.87436 0.62553 0.0
C612 C 0.04941 0.92012 0.52891 0.0
C613 C 0.03663 0.93983 0.52725 0.0
C614 C 0.04878 0.91057 0.55028 0.0
C615 C 0.03512 0.92048 0.57009 0.0
C616 C 0.0237 0.94135 0.56879 0.0
C617 C 0.02444 0.95093 0.54749 0.0
C618 C 0.99942 0.88509 0.61367 0.0
C619 C 0.01785 0.87498 0.62381 0.0
C620 C 0.00538 0.90097 0.59726 0.0
C621 C 0.02988 0.90689 0.59036 0.0
C622 C 0.04852 0.89763 0.60124 0.0
C623 C 0.04257 0.88198 0.61804 0.0
H624 H 0.21683 0.80361 0.71452 0.0
H625 H 0.19764 0.8031 0.78901 0.0
H626 H 0.17641 0.8137 0.70605 0.0
H627 H 0.15731 0.81376 0.78091 0.0
H628 H 0.0791 0.78806 0.74351 0.0
H629 H 0.12115 0.78916 0.75742 0.0
H630 H 0.14767 0.844 0.7138 0.0
H631 H 0.10526 0.84257 0.69944 0.0
C632 C 0.20407 0.80629 0.72919 0.0
C633 C 0.21004 0.80262 0.75233 0.0
C634 C 0.18102 0.81221 0.72443 0.0
C635 C 0.16357 0.81443 0.74278 0.0
C636 C 0.17022 0.81189 0.76632 0.0
C637 C 0.19327 0.80594 0.77102 0.0
C638 C 0.09382 0.80065 0.73712 0.0
C639 C 0.08888 0.81503 0.72017 0.0
C640 C 0.11797 0.80144 0.74527 0.0
C641 C 0.13781 0.81659 0.73665 0.0
C642 C 0.13279 0.83192 0.72056 0.0
C643 C 0.10851 0.83121 0.71245 0.0
H644 H 0.99342 0.64286 0.51263 0.0
H645 H 0.97446 0.61039 0.57554 0.0
H646 H 0.00601 0.6846 0.53946 0.0
H647 H 0.98663 0.65187 0.60222 0.0
H648 H 0.02683 0.72596 0.6457 0.0
H649 H 0.0223 0.68533 0.61704 0.0
H650 H 0.98308 0.71509 0.56575 0.0
H651 H 0.98782 0.75592 0.59428 0.0
C652 C 0.99236 0.64461 0.5322 0.0
C653 C 0.98286 0.62351 0.54205 0.0
C654 C 0.99933 0.66847 0.54751 0.0
C655 C 0.99718 0.67151 0.57293 0.0
C656 C 0.98871 0.65013 0.58275 0.0
C657 C 0.98157 0.62641 0.56748 0.0
C658 C 0.01739 0.72395 0.62825 0.0
C659 C 0.00747 0.74414 0.6224 0.0
C660 C 0.01477 0.70063 0.61186 0.0
C661 C 0.00225 0.69699 0.5892 0.0
C662 C 0.99304 0.71741 0.58298 0.0
C663 C 0.99558 0.74073 0.59942 0.0
H664 H 0.749 0.85448 0.25133 0.0
H665 H 0.81824 0.83109 0.22929 0.0
H666 H 0.76891 0.89899 0.25731 0.0
H667 H 0.8381 0.87517 0.23545 0.0
H668 H 0.86155 0.953 0.22212 0.0
H669 H 0.83763 0.91044 0.21577 0.0
H670 H 0.79999 0.93153 0.28257 0.0
H671 H 0.82354 0.97443 0.28867 0.0
C672 C 0.76851 0.85887 0.24809 0.0
C673 C 0.78202 0.83937 0.23957 0.0
C674 C 0.7799 0.88431 0.25145 0.0
C675 C 0.80499 0.89062 0.2464 0.0
C676 C 0.81859 0.87101 0.2388 0.0
C677 C 0.80725 0.84574 0.23541 0.0
C678 C 0.84795 0.94871 0.23531 0.0
C679 C 0.84466 0.96708 0.25603 0.0
C680 C 0.83436 0.92423 0.23177 0.0
C681 C 0.81724 0.91744 0.24892 0.0
C682 C 0.813 0.93615 0.269 0.0
C683 C 0.82655 0.96073 0.2725 0.0
H684 H 0.81142 0.21576 0.27306 0.0
H685 H 0.77888 0.20045 0.33986 0.0
H686 H 0.83157 0.17909 0.26949 0.0
H687 H 0.80116 0.16564 0.33772 0.0
H688 H 0.82021 0.08776 0.31515 0.0
H689 H 0.80055 0.12467 0.31789 0.0
H690 H 0.86256 0.16096 0.28296 0.0
H691 H 0.88133 0.12298 0.27876 0.0
C692 C 0.80863 0.20474 0.28711 0.0
C693 C 0.7932 0.21115 0.30663 0.0
C694 C 0.82064 0.18386 0.28529 0.0
C695 C 0.818 0.16908 0.30322 0.0
C696 C 0.80326 0.17605 0.32317 0.0
C697 C 0.79081 0.19652 0.32469 0.0
C698 C 0.8296 0.10364 0.30802 0.0
C699 C 0.85229 0.10253 0.29676 0.0
C700 C 0.81844 0.125 0.30979 0.0
C701 C 0.82997 0.14616 0.30091 0.0
C702 C 0.85283 0.145 0.28969 0.0
C703 C 0.86372 0.1233 0.2874 0.0
H704 H 0.42889 0.01322 0.0007 0.0
H705 H 0.43199 0.04864 0.0772 0.0
H706 H 0.38518 0.99588 0.00343 0.0
H707 H 0.38825 0.03101 0.08001 0.0
H708 H 0.32164 0.9614 0.07401 0.0
H709 H 0.36377 0.9845 0.0744 0.0
H710 H 0.34433 0.01448 0.01288 0.0
H711 H 0.30204 0.99169 0.01262 0.0
C712 C 0.42019 0.01715 0.0181 0.0
C713 C 0.4337 0.03214 0.03876 0.0
C714 C 0.39521 0.00749 0.0196 0.0
C715 C 0.38341 0.0123 0.04189 0.0
C716 C 0.39698 0.02709 0.06263 0.0
C717 C 0.42188 0.03715 0.06102 0.0
C718 C 0.32623 0.9733 0.06086 0.0
C719 C 0.30859 0.97464 0.0432 0.0
C720 C 0.3503 0.98654 0.06114 0.0
C721 C 0.35725 0.00102 0.04353 0.0
C722 C 0.3394 0.00323 0.02651 0.0
C723 C 0.3152 0.99035 0.02649 0.0
H724 H 0.23891 0.34445 0.25184 0.0
H725 H 0.25332 0.35797 0.32947 0.0
H726 H 0.22637 0.3861 0.25648 0.0
H727 H 0.24032 0.39921 0.33444 0.0
H728 H 0.23704 0.48084 0.33303 0.0
H729 H 0.2522 0.4408 0.32616 0.0
H730 H 0.1927 0.40732 0.27296 0.0
H731 H 0.17784 0.44773 0.2794 0.0
C732 C 0.23954 0.35653 0.26984 0.0
C733 C 0.24718 0.34841 0.29031 0.0
C734 C 0.23217 0.3802 0.27257 0.0
C735 C 0.2323 0.39601 0.29585 0.0
C736 C 0.24034 0.38775 0.31622 0.0
C737 C 0.24771 0.36415 0.31345 0.0
C738 C 0.22718 0.46497 0.31982 0.0
C739 C 0.20616 0.46745 0.30683 0.0
C740 C 0.23584 0.44196 0.31596 0.0
C741 C 0.22363 0.42078 0.29908 0.0
C742 C 0.20273 0.42333 0.28588 0.0
C743 C 0.19409 0.44643 0.2897 0.0
H744 H 0.1006 0.01423 0.50294 0.0
H745 H 0.10814 -0.00011 0.42482 0.0
H746 H 0.14349 0.03601 0.50857 0.0
H747 H 0.15059 0.02225 0.43035 0.0
H748 H 0.23157 0.05213 0.44761 0.0
H749 H 0.19243 0.02285 0.44529 0.0
H750 H 0.16396 0.07668 0.50106 0.0
H751 H 0.20296 0.1056 0.50372 0.0
C752 C 0.11153 0.01541 0.48701 0.0
C753 C 0.10096 0.00567 0.46344 0.0
C754 C 0.136 0.02806 0.49021 0.0
C755 C 0.15037 0.03108 0.4699 0.0
C756 C 0.14013 0.02012 0.44639 0.0
C757 C 0.11571 0.00756 0.44321 0.0
C758 C 0.21703 0.05759 0.45953 0.0
C759 C 0.22034 0.0813 0.47569 0.0
C760 C 0.19459 0.04085 0.45815 0.0
C761 C 0.17508 0.04745 0.47298 0.0
C762 C 0.17871 0.07083 0.48964 0.0
C763 C 0.20104 0.08754 0.49097 0.0
H764 H 0.80258 0.20828 0.7956 0.0
H765 H 0.75673 0.1957 0.73014 0.0
H766 H 0.77929 0.17018 0.80611 0.0
H767 H 0.73364 0.15735 0.74037 0.0
H768 H 0.67989 0.10914 0.78081 0.0
H769 H 0.70451 0.14598 0.76972 0.0
H770 H 0.77085 0.12447 0.79434 0.0
H771 H 0.74603 0.08777 0.80613 0.0
C772 C 0.78772 0.19714 0.78329 0.0
C773 C 0.78141 0.20496 0.76207 0.0
C774 C 0.77441 0.17529 0.78928 0.0
C775 C 0.75455 0.16074 0.77413 0.0
C776 C 0.74854 0.16837 0.75268 0.0
C777 C 0.76177 0.19029 0.74677 0.0
C778 C 0.69973 0.1122 0.78389 0.0
C779 C 0.71099 0.09548 0.79439 0.0
C780 C 0.71388 0.13327 0.77734 0.0
C781 C 0.73967 0.13812 0.781 0.0
C782 C 0.75098 0.12142 0.79152 0.0
C783 C 0.73678 0.10034 0.79818 0.0
H784 H 0.40766 0.01344 0.55121 0.0
H785 H 0.44282 0.08936 0.58429 0.0
H786 H 0.38208 0.03038 0.52481 0.0
H787 H 0.41768 0.10647 0.55781 0.0
H788 H 0.34479 0.12583 0.53179 0.0
H789 H 0.37403 0.10993 0.55484 0.0
H790 H 0.38342 0.05319 0.49106 0.0
H791 H 0.35388 0.06887 0.46804 0.0
C792 C 0.41011 0.03373 0.55247 0.0
C793 C 0.42702 0.05022 0.56956 0.0
C794 C 0.3956 0.04345 0.53737 0.0
C795 C 0.39778 0.0698 0.53931 0.0
C796 C 0.41533 0.08613 0.5561 0.0
C797 C 0.42981 0.07639 0.5711 0.0
C798 C 0.35324 0.11011 0.52261 0.0
C799 C 0.34695 0.09857 0.49811 0.0
C800 C 0.3701 0.10107 0.53579 0.0
C801 C 0.38101 0.08025 0.52479 0.0
C802 C 0.37511 0.06906 0.50013 0.0
C803 C 0.3583 0.07816 0.48691 0.0
H804 H 0.60291 0.5601 0.5249 0.0
H805 H 0.58379 0.54033 0.59416 0.0
H806 H 0.6291 0.5281 0.51739 0.0
H807 H 0.60831 0.50671 0.58563 0.0
H808 H 0.67791 0.46942 0.57537 0.0
H809 H 0.64879 0.49893 0.58389 0.0
H810 H 0.62981 0.48514 0.50677 0.0
H811 H 0.65997 0.45695 0.49836 0.0
C812 C 0.60415 0.54886 0.53852 0.0
C813 C 0.59121 0.55303 0.56021 0.0
C814 C 0.61889 0.53007 0.53399 0.0
C815 C 0.62081 0.51451 0.55079 0.0
C816 C 0.60759 0.51842 0.57235 0.0
C817 C 0.59314 0.53752 0.57707 0.0
C818 C 0.66725 0.47252 0.56033 0.0
C819 C 0.67134 0.46109 0.53621 0.0
C820 C 0.65045 0.4894 0.56518 0.0
C821 C 0.63707 0.49484 0.54601 0.0
C822 C 0.64026 0.48214 0.52199 0.0
C823 C 0.65737 0.46573 0.51714 0.0
H824 H 0.71528 0.28007 0.34677 0.0
H825 H 0.79101 0.28583 0.37116 0.0
H826 H 0.70635 0.30411 0.38665 0.0
H827 H 0.78212 0.30975 0.41084 0.0
H828 H 0.75552 0.33279 0.48618 0.0
H829 H 0.75937 0.30469 0.44713 0.0
H830 H 0.71618 0.34692 0.4116 0.0
H831 H 0.71187 0.37475 0.45074 0.0
C832 C 0.73005 0.28659 0.36059 0.0
C833 C 0.75384 0.28095 0.35582 0.0
C834 C 0.72491 0.30031 0.38344 0.0
C835 C 0.74346 0.30866 0.40201 0.0
C836 C 0.76725 0.3031 0.39715 0.0
C837 C 0.77238 0.28943 0.37436 0.0
C838 C 0.7465 0.33588 0.47013 0.0
C839 C 0.73359 0.35621 0.4716 0.0
C840 C 0.74888 0.31987 0.44769 0.0
C841 C 0.73843 0.32381 0.42617 0.0
C842 C 0.72438 0.34328 0.42783 0.0
C843 C 0.72196 0.3593 0.45029 0.0
H844 H 0.52253 0.01917 0.94991 0.0
H845 H 0.58472 0.04535 0.00096 0.0
H846 H 0.54979 0.02287 0.91603 0.0
H847 H 0.61232 0.04975 0.96705 0.0
H848 H 0.65462 0.02322 0.89686 0.0
H849 H 0.62922 0.02334 0.93267 0.0
H850 H 0.57456 0.0539 0.89773 0.0
H851 H 0.59944 0.05312 0.8619 0.0
C852 C 0.54209 0.02605 0.95377 0.0
C853 C 0.5517 0.0321 0.97777 0.0
C854 C 0.55771 0.0283 0.93445 0.0
C855 C 0.58326 0.03673 0.93882 0.0
C856 C 0.59278 0.043 0.96306 0.0
C857 C 0.57706 0.04068 0.98243 0.0
C858 C 0.63724 0.0301 0.89693 0.0
C859 C 0.62893 0.03786 0.87641 0.0
C860 C 0.62275 0.0303 0.91749 0.0
C861 C 0.59973 0.03839 0.91796 0.0
C862 C 0.59193 0.04702 0.89777 0.0
C863 C 0.60627 0.04666 0.87724 0.0
H864 H 0.31694 0.22504 0.31325 0.0
H865 H 0.28832 0.28245 0.36461 0.0
H866 H 0.31522 0.19876 0.34381 0.0
H867 H 0.28793 0.25721 0.39571 0.0
H868 H 0.26252 0.19603 0.43713 0.0
H869 H 0.26585 0.22165 0.40641 0.0
H870 H 0.33145 0.19231 0.38017 0.0
H871 H 0.32711 0.16543 0.41026 0.0
C872 C 0.31065 0.23212 0.33127 0.0
C873 C 0.30255 0.25556 0.33663 0.0
C874 C 0.30978 0.21719 0.34886 0.0
C875 C 0.30121 0.22565 0.3723 0.0
C876 C 0.29396 0.24963 0.37773 0.0
C877 C 0.29435 0.26425 0.36002 0.0
C878 C 0.27769 0.19506 0.42482 0.0
C879 C 0.29459 0.17876 0.42616 0.0
C880 C 0.27974 0.20995 0.40726 0.0
C881 C 0.29909 0.20939 0.39083 0.0
C882 C 0.3161 0.19306 0.39224 0.0
C883 C 0.31374 0.17775 0.40958 0.0
H884 H 0.53953 0.50741 0.89129 0.0
H885 H 0.47788 0.51794 0.9379 0.0
H886 H 0.51954 0.52301 0.86018 0.0
H887 H 0.45702 0.53161 0.90605 0.0
H888 H 0.43106 0.57279 0.85232 0.0
H889 H 0.45604 0.56408 0.88453 0.0
H890 H 0.48681 0.50969 0.83116 0.0
H891 H 0.46276 0.51929 0.79899 0.0
C892 C 0.52175 0.51312 0.89498 0.0
C893 C 0.51034 0.51131 0.91717 0.0
C894 C 0.51009 0.52175 0.87694 0.0
C895 C 0.48655 0.52849 0.88044 0.0
C896 C 0.47527 0.52695 0.90275 0.0
C897 C 0.48707 0.51864 0.92091 0.0
C898 C 0.44345 0.55925 0.84746 0.0
C899 C 0.44484 0.54666 0.82311 0.0
C900 C 0.45763 0.55408 0.86595 0.0
C901 C 0.47329 0.53594 0.86057 0.0
C902 C 0.47526 0.52402 0.83605 0.0
C903 C 0.46134 0.52944 0.81755 0.0
H904 H 0.76336 0.78595 0.16119 0.0
H905 H 0.77258 0.72246 0.1931 0.0
H906 H 0.76789 0.76094 0.12078 0.0
H907 H 0.77615 0.69699 0.15231 0.0
H908 H 0.8023 0.66634 0.07508 0.0
H909 H 0.80273 0.69268 0.1162 0.0
H910 H 0.74226 0.72535 0.09417 0.0
H911 H 0.74206 0.69961 0.05338 0.0
C912 C 0.76659 0.76671 0.15961 0.0
C913 C 0.76761 0.75621 0.1804 0.0
C914 C 0.76891 0.75228 0.1364 0.0
C915 C 0.77219 0.72692 0.13332 0.0
C916 C 0.77379 0.71653 0.15411 0.0
C917 C 0.77146 0.73101 0.17742 0.0
C918 C 0.78924 0.67929 0.07905 0.0
C919 C 0.77219 0.68092 0.06097 0.0
C920 C 0.78939 0.69424 0.1026 0.0
C921 C 0.77259 0.71116 0.1084 0.0
C922 C 0.75571 0.71282 0.09021 0.0
C923 C 0.75551 0.69792 0.06683 0.0
H924 H 0.02863 0.12052 0.13452 0.0
H925 H 0.008 0.04552 0.08969 0.0
H926 H 0.00088 0.10848 0.16576 0.0
H927 H 0.98019 0.03353 0.12075 0.0
H928 H 0.96039 0.01182 0.19359 0.0
H929 H 0.98471 0.02528 0.16103 0.0
H930 H 0.95764 0.09639 0.1757 0.0
H931 H 0.93345 0.083 0.20888 0.0
C932 C 0.01789 0.10159 0.13117 0.0
C933 C 0.02068 0.0839 0.10971 0.0
C934 C 0.00196 0.09469 0.14906 0.0
C935 C 0.98845 0.06997 0.14586 0.0
C936 C 0.99069 0.05257 0.12404 0.0
C937 C 0.00662 0.05944 0.10622 0.0
C938 C 0.95948 0.0303 0.18987 0.0
C939 C 0.94495 0.04633 0.20386 0.0
C940 C 0.97334 0.03797 0.17104 0.0
C941 C 0.97305 0.06187 0.16562 0.0
C942 C 0.95842 0.07793 0.17953 0.0
C943 C 0.94446 0.07021 0.19843 0.0
H944 H 0.26656 0.76529 0.15776 0.0
H945 H 0.34236 0.80256 0.16029 0.0
H946 H 0.25409 0.79655 0.13677 0.0
H947 H 0.33005 0.83424 0.13974 0.0
H948 H 0.30481 0.85713 0.07074 0.0
H949 H 0.31614 0.83149 0.09803 0.0
H950 H 0.2502 0.84114 0.13826 0.0
H951 H 0.23855 0.86685 0.11045 0.0
C952 C 0.28041 0.78063 0.15433 0.0
C953 C 0.30533 0.78175 0.16052 0.0
C954 C 0.27331 0.79855 0.1424 0.0
C955 C 0.2911 0.81776 0.13637 0.0
C956 C 0.31595 0.81945 0.14378 0.0
C957 C 0.323 0.80152 0.15569 0.0
C958 C 0.29267 0.85391 0.08542 0.0
C959 C 0.2707 0.864 0.08835 0.0
C960 C 0.29933 0.83937 0.10125 0.0
C961 C 0.28422 0.83444 0.1205 0.0
C962 C 0.26221 0.84454 0.12355 0.0
C963 C 0.25555 0.85928 0.10767 0.0
H964 H 0.98222 0.47925 0.16439 0.0
H965 H 0.04447 0.47568 0.11746 0.0
H966 H 0.00987 0.48465 0.1999 0.0
H967 H 0.07189 0.48048 0.15293 0.0
H968 H 0.11289 0.47601 0.22272 0.0
H969 H 0.08226 0.46092 0.18869 0.0
H970 H 0.04281 0.52169 0.21809 0.0
H971 H 0.07319 0.53674 0.25169 0.0
C972 C 0.00174 0.47942 0.16161 0.0
C973 C 0.01116 0.47737 0.13809 0.0
C974 C 0.01752 0.48235 0.18193 0.0
C975 C 0.04301 0.48308 0.17915 0.0
C976 C 0.05228 0.47968 0.15558 0.0
C977 C 0.03653 0.47694 0.13526 0.0
C978 C 0.09746 0.48586 0.22201 0.0
C979 C 0.09549 0.50764 0.2397 0.0
C980 C 0.08004 0.47731 0.20255 0.0
C981 C 0.06018 0.49014 0.2008 0.0
C982 C 0.05775 0.51125 0.2191 0.0
C983 C 0.07527 0.51998 0.23824 0.0
H984 H 0.39173 0.75293 0.22767 0.0
H985 H 0.34015 0.76021 0.2857 0.0
H986 H 0.42619 0.76639 0.25786 0.0
H987 H 0.37439 0.77366 0.31576 0.0
H988 H 0.43703 0.75824 0.36072 0.0
H989 H 0.40428 0.74996 0.32941 0.0
H990 H 0.44808 0.80134 0.29073 0.0
H991 H 0.48113 0.80954 0.32204 0.0
C992 C 0.38779 0.75809 0.24682 0.0
C993 C 0.3633 0.75529 0.25439 0.0
C994 C 0.40749 0.76568 0.2641 0.0
C995 C 0.40297 0.77055 0.2892 0.0
C996 C 0.37845 0.76941 0.29658 0.0
C997 C 0.35886 0.76188 0.27938 0.0
C998 C 0.4398 0.76772 0.34552 0.0
C999 C 0.4617 0.78464 0.34399 0.0
C1000 C 0.42091 0.76313 0.32766 0.0
C1001 C 0.42346 0.77527 0.30776 0.0
C1002 C 0.44559 0.7917 0.30584 0.0
C1003 C 0.46448 0.79642 0.32382 0.0
H1004 H 0.94826 0.4324 0.04099 0.0
H1005 H 0.0271 0.45645 0.05206 0.0
H1006 H 0.9549 0.40244 0.00363 0.0
H1007 H 0.03377 0.42626 0.01519 0.0
H1008 H 0.03663 0.38366 0.93691 0.0
H1009 H 0.02793 0.41664 0.97062 0.0
H1010 H 0.97183 0.36252 0.99451 0.0
H1011 H 0.98026 0.32958 0.96067 0.0
C1012 C 0.96697 0.4315 0.03525 0.0
C1013 C 0.98717 0.44659 0.04949 0.0
C1014 C 0.97079 0.4142 0.01403 0.0
C1015 C 0.99487 0.41186 0.00657 0.0
C1016 C 0.015 0.42771 0.02034 0.0
C1017 C 0.01119 0.44485 0.04156 0.0
C1018 C 0.0224 0.37878 0.94931 0.0
C1019 C 0.00923 0.35392 0.94614 0.0
C1020 C 0.01745 0.39768 0.96865 0.0
C1021 C 0.99918 0.39219 0.98521 0.0
C1022 C 0.98579 0.36743 0.98187 0.0
C1023 C 0.99079 0.3485 0.96259 0.0
H1024 H 0.70818 0.77154 0.32368 0.0
H1025 H 0.67925 0.80277 0.26725 0.0
H1026 H 0.67494 0.78386 0.35023 0.0
H1027 H 0.64567 0.81463 0.29332 0.0
H1028 H 0.59708 0.84844 0.35081 0.0
H1029 H 0.63496 0.84188 0.32981 0.0
H1030 H 0.63085 0.77009 0.35165 0.0
H1031 H 0.59323 0.77696 0.37318 0.0
C1032 C 0.69483 0.7814 0.31719 0.0
C1033 C 0.69614 0.78646 0.29368 0.0
C1034 C 0.6757 0.78823 0.33223 0.0
C1035 C 0.65754 0.80014 0.32389 0.0
C1036 C 0.65949 0.80583 0.30049 0.0
C1037 C 0.67863 0.79901 0.28551 0.0
C1038 C 0.60439 0.83137 0.35136 0.0
C1039 C 0.59204 0.81313 0.36354 0.0
C1040 C 0.62606 0.82755 0.3392 0.0
C1041 C 0.63587 0.80537 0.33884 0.0
C1042 C 0.62397 0.78753 0.35175 0.0
C1043 C 0.60231 0.79139 0.36399 0.0
H1044 H 0.0158 0.16605 0.03086 0.0
H1045 H 0.0862 0.15489 0.00079 0.0
H1046 H 0.00689 0.18632 0.99777 0.0
H1047 H 0.07716 0.17457 0.96688 0.0
H1048 H 0.06484 0.24271 0.93255 0.0
H1049 H 0.07409 0.21575 0.95989 0.0
H1050 H 0.99723 0.18072 0.95573 0.0
H1051 H 0.98793 0.2083 0.92926 0.0
C1052 C 0.02911 0.16749 0.01673 0.0
C1053 C 0.05154 0.15889 0.01811 0.0
C1054 C 0.02401 0.17898 0.99767 0.0
C1055 C 0.04126 0.18207 0.97948 0.0
C1056 C 0.06356 0.17276 0.98065 0.0
C1057 C 0.06867 0.16131 -0.00012 0.0
C1058 C 0.05001 0.22898 0.93721 0.0
C1059 C 0.02561 0.22786 0.92898 0.0
C1060 C 0.05532 0.21342 0.95283 0.0
C1061 C 0.03636 0.19624 0.96037 0.0
C1062 C 0.01221 0.19414 0.95086 0.0
C1063 C 0.00689 0.20985 0.93552 0.0
H1064 H 0.36938 0.31325 0.30852 0.0
H1065 H 0.32812 0.29073 0.23971 0.0
H1066 H 0.40749 0.32169 0.2871 0.0
H1067 H 0.36622 0.29848 0.21814 0.0
H1068 H 0.43694 0.32875 0.18544 0.0
H1069 H 0.39958 0.32868 0.20889 0.0
H1070 H 0.43379 0.29752 0.26261 0.0
H1071 H 0.47125 0.29837 0.2397 0.0
C1072 C 0.3685 0.31015 0.28879 0.0
C1073 C 0.34582 0.30119 0.27577 0.0
C1074 C 0.39033 0.3149 0.27649 0.0
C1075 C 0.39004 0.31055 0.25084 0.0
C1076 C 0.36717 0.30238 0.23789 0.0
C1077 C 0.34531 0.29786 0.25023 0.0
C1078 C 0.43658 0.32218 0.20242 0.0
C1079 C 0.4571 0.31347 0.21061 0.0
C1080 C 0.41508 0.32199 0.21579 0.0
C1081 C 0.41354 0.31296 0.23761 0.0
C1082 C 0.43435 0.30496 0.24611 0.0
C1083 C 0.45586 0.3053 0.23285 0.0
H1084 H 0.52461 0.46729 0.0471 0.0
H1085 H 0.51187 0.39988 0.99014 0.0
H1086 H 0.52685 0.44123 0.07765 0.0
H1087 H 0.51425 0.3738 0.0204 0.0
H1088 H 0.48021 0.33813 0.08235 0.0
H1089 H 0.48488 0.36503 0.05266 0.0
H1090 H 0.55031 0.40988 0.0921 0.0
H1091 H 0.54565 0.38268 0.12221 0.0
C1092 C 0.52287 0.44692 0.04117 0.0
C1093 C 0.51808 0.43538 0.0165 0.0
C1094 C 0.52419 0.43205 0.05856 0.0
C1095 C 0.52047 0.40548 0.05142 0.0
C1096 C 0.51686 0.3942 0.02646 0.0
C1097 C 0.51565 0.40906 0.00915 0.0
C1098 C 0.49563 0.35371 0.08481 0.0
C1099 C 0.51259 0.35824 0.10466 0.0
C1100 C 0.4984 0.36901 0.06764 0.0
C1101 C 0.51812 0.38938 0.06989 0.0
C1102 C 0.53494 0.39428 0.08993 0.0
C1103 C 0.5323 0.37871 0.1071 0.0
H1104 H 0.71565 0.28639 0.2209 0.0
H1105 H 0.69307 0.28681 0.2946 0.0
H1106 H 0.67714 0.29956 0.21119 0.0
H1107 H 0.65459 0.30063 0.28527 0.0
H1108 H 0.57737 0.28077 0.24515 0.0
H1109 H 0.61802 0.27927 0.26107 0.0
H1110 H 0.65099 0.33177 0.21744 0.0
H1111 H 0.61004 0.33284 0.20098 0.0
C1112 C 0.70258 0.28994 0.23515 0.0
C1113 C 0.70703 0.28564 0.2584 0.0
C1114 C 0.68061 0.29764 0.22968 0.0
C1115 C 0.66269 0.30109 0.24743 0.0
C1116 C 0.66786 0.29786 0.27112 0.0
C1117 C 0.68986 0.29011 0.27653 0.0
C1118 C 0.59322 0.29235 0.23921 0.0
C1119 C 0.59049 0.30669 0.22156 0.0
C1120 C 0.61658 0.29164 0.24852 0.0
C1121 C 0.63783 0.30526 0.24042 0.0
C1122 C 0.63501 0.32077 0.22379 0.0
C1123 C 0.61155 0.32152 0.21448 0.0
H1124 H 0.53449 0.104 0.06911 0.0
H1125 H 0.46856 0.11859 0.03655 0.0
H1126 H 0.54448 0.14859 0.08952 0.0
H1127 H 0.47787 0.16271 0.05768 0.0
H1128 H 0.50614 0.24469 0.08856 0.0
H1129 H 0.50434 0.20297 0.06225 0.0
H1130 H 0.5275 0.17437 0.1234 0.0
H1131 H 0.52999 0.21616 0.1495 0.0
C1132 C 0.52236 0.11682 0.06599 0.0
C1133 C 0.50059 0.10775 0.05148 0.0
C1134 C 0.52792 0.14228 0.07791 0.0
C1135 C 0.51181 0.15917 0.07551 0.0
C1136 C 0.49079 0.15033 0.05985 0.0
C1137 C 0.48529 0.12495 0.04794 0.0
C1138 C 0.51105 0.22955 0.09635 0.0
C1139 C 0.51799 0.23372 0.1212 0.0
C1140 C 0.50996 0.20561 0.08126 0.0
C1141 C 0.51566 0.18527 0.09071 0.0
C1142 C 0.52332 0.18967 0.11541 0.0
C1143 C 0.52453 0.21361 0.13045 0.0
H1144 H 0.27093 0.36008 0.69725 0.0
H1145 H 0.2944 0.3598 0.77081 0.0
H1146 H 0.28773 0.40518 0.70362 0.0
H1147 H 0.3107 0.40506 0.77728 0.0
H1148 H 0.32423 0.49082 0.78548 0.0
H1149 H 0.29936 0.44844 0.77915 0.0
H1150 H 0.33156 0.42844 0.70909 0.0
H1151 H 0.35644 0.47065 0.71535 0.0
C1152 C 0.27952 0.36966 0.71484 0.0
C1153 C 0.28167 0.35621 0.7334 0.0
C1154 C 0.28905 0.3955 0.71848 0.0
C1155 C 0.3007 0.40857 0.74086 0.0
C1156 C 0.30163 0.39551 0.75989 0.0
C1157 C 0.29227 0.36958 0.75619 0.0
C1158 C 0.32569 0.47753 0.76854 0.0
C1159 C 0.34242 0.48407 0.75096 0.0
C1160 C 0.31156 0.45323 0.76502 0.0
C1161 C 0.31361 0.43513 0.7437 0.0
C1162 C 0.32944 0.44206 0.72562 0.0
C1163 C 0.34378 0.46622 0.72926 0.0
H1164 H 0.28049 0.71897 0.83394 0.0
H1165 H 0.3158 0.73548 0.76874 0.0
H1166 H 0.30215 0.68373 0.83192 0.0
H1167 H 0.33525 0.6984 0.76515 0.0
H1168 H 0.38284 0.64045 0.77398 0.0
H1169 H 0.36503 0.67905 0.77863 0.0
H1170 H 0.30146 0.64299 0.81171 0.0
H1171 H 0.32022 0.60546 0.80861 0.0
C1172 C 0.29289 0.71522 0.81915 0.0
C1173 C 0.29618 0.73028 0.80147 0.0
C1174 C 0.305 0.6945 0.81768 0.0
C1175 C 0.32026 0.6877 0.79812 0.0
C1176 C 0.32388 0.70298 0.78064 0.0
C1177 C 0.31225 0.72412 0.78245 0.0
C1178 C 0.3651 0.64096 0.78231 0.0
C1179 C 0.35296 0.62007 0.79105 0.0
C1180 C 0.35475 0.66302 0.78486 0.0
C1181 C 0.33173 0.66443 0.79568 0.0
C1182 C 0.31949 0.64315 0.80395 0.0
C1183 C 0.33013 0.62142 0.80196 0.0
H1184 H 0.90015 0.54185 0.48215 0.0
H1185 H 0.91942 0.55677 0.55914 0.0
H1186 H 0.86042 0.51757 0.48933 0.0
H1187 H 0.87936 0.53295 0.56644 0.0
H1188 H 0.82399 0.45705 0.55944 0.0
H1189 H 0.86092 0.48747 0.55621 0.0
H1190 H 0.82057 0.52127 0.50918 0.0
H1191 H 0.78355 0.49062 0.51214 0.0
C1192 C 0.89578 0.54009 0.50063 0.0
C1193 C 0.91293 0.55099 0.52006 0.0
C1194 C 0.87293 0.52644 0.50479 0.0
C1195 C 0.86682 0.52333 0.52845 0.0
C1196 C 0.88368 0.53488 0.54799 0.0
C1197 C 0.9065 0.54865 0.54384 0.0
C1198 C 0.82287 0.47111 0.5486 0.0
C1199 C 0.80087 0.47123 0.53584 0.0
C1200 C 0.84402 0.48867 0.5469 0.0
C1201 C 0.84365 0.50666 0.53235 0.0
C1202 C 0.82144 0.50741 0.5203 0.0
C1203 C 0.80023 0.48992 0.52209 0.0
H1204 H 0.74018 0.83851 0.76202 0.0
H1205 H 0.76279 0.8615 0.83812 0.0
H1206 H 0.72982 0.88056 0.76275 0.0
H1207 H 0.75193 0.90316 0.8393 0.0
H1208 H 0.74687 0.9818 0.8318 0.0
H1209 H 0.76253 0.94205 0.8259 0.0
H1210 H 0.69858 0.90468 0.77954 0.0
H1211 H 0.68328 0.94477 0.78487 0.0
C1212 C 0.7432 0.85278 0.77878 0.0
C1213 C 0.7524 0.84716 0.79997 0.0
C1214 C 0.73707 0.87671 0.77931 0.0
C1215 C 0.73998 0.89527 0.8011 0.0
C1216 C 0.74983 0.88955 0.8221 0.0
C1217 C 0.75598 0.86571 0.82151 0.0
C1218 C 0.73624 0.96515 0.82017 0.0
C1219 C 0.71372 0.96638 0.80897 0.0
C1220 C 0.74517 0.94232 0.81687 0.0
C1221 C 0.73172 0.92006 0.80245 0.0
C1222 C 0.70957 0.92148 0.79057 0.0
C1223 C 0.7007 0.94443 0.79374 0.0
H1224 H 0.58612 0.5127 0.00157 0.0
H1225 H 0.59529 0.49936 0.92367 0.0
H1226 H 0.63014 0.52953 0.0083 0.0
H1227 H 0.63901 0.51715 0.93035 0.0
H1228 H 0.72054 0.54007 0.94928 0.0
H1229 H 0.67954 0.51376 0.94554 0.0
H1230 H 0.65446 0.56883 0.00268 0.0
H1231 H 0.69519 0.59466 0.00677 0.0
C1232 C 0.5976 0.51298 0.98589 0.0
C1233 C 0.58717 0.50503 0.96209 0.0
C1234 C 0.62277 0.52285 0.98974 0.0
C1235 C 0.63803 0.525 0.96986 0.0
C1236 C 0.62785 0.51566 0.94607 0.0
C1237 C 0.60272 0.50575 0.94224 0.0
C1238 C 0.70633 0.54637 0.96122 0.0
C1239 C 0.7111 0.56957 0.97817 0.0
C1240 C 0.68283 0.53135 0.95902 0.0
C1241 C 0.66371 0.5392 0.97379 0.0
C1242 C 0.66881 0.56198 0.99126 0.0
C1243 C 0.69217 0.57695 0.99343 0.0
H1244 H 0.25768 0.69629 0.22287 0.0
H1245 H 0.32174 0.66882 0.24438 0.0
H1246 H 0.23083 0.66208 0.2367 0.0
H1247 H 0.29507 0.63411 0.25751 0.0
H1248 H 0.24121 0.59484 0.30537 0.0
H1249 H 0.26816 0.62741 0.28955 0.0
H1250 H 0.21652 0.61766 0.2287 0.0
H1251 H 0.18918 0.58582 0.24503 0.0
C1252 C 0.26596 0.68265 0.2302 0.0
C1253 C 0.29171 0.68524 0.23275 0.0
C1254 C 0.25063 0.663 0.23807 0.0
C1255 C 0.26078 0.6454 0.24839 0.0
C1256 C 0.28661 0.64763 0.25018 0.0
C1257 C 0.3019 0.66741 0.24256 0.0
C1258 C 0.23565 0.59962 0.28859 0.0
C1259 C 0.21301 0.58784 0.27653 0.0
C1260 C 0.25117 0.61819 0.27941 0.0
C1261 C 0.24453 0.6252 0.25782 0.0
C1262 C 0.22203 0.61308 0.24558 0.0
C1263 C 0.20641 0.59471 0.25489 0.0
H1264 H 0.89938 0.49193 0.04886 0.0
H1265 H 0.93605 0.56702 0.08277 0.0
H1266 H 0.87343 0.51004 0.02387 0.0
H1267 H 0.91053 0.5853 0.05767 0.0
H1268 H 0.83769 0.60684 0.03435 0.0
H1269 H 0.86707 0.5897 0.05605 0.0
H1270 H 0.87404 0.53368 0.99093 0.0
H1271 H 0.84437 0.5506 0.96927 0.0
C1272 C 0.90208 0.5123 0.05058 0.0
C1273 C 0.91955 0.52821 0.06751 0.0
C1274 C 0.88735 0.52268 0.03629 0.0
C1275 C 0.88983 0.54914 0.03889 0.0
C1276 C 0.90793 0.5649 0.05548 0.0
C1277 C 0.92264 0.55449 0.06968 0.0
C1278 C 0.84562 0.59099 0.02459 0.0
C1279 C 0.83863 0.58004 0.00011 0.0
C1280 C 0.86257 0.58124 0.037 0.0
C1281 C 0.87287 0.56029 0.02522 0.0
C1282 C 0.86622 0.54964 0.00059 0.0
C1283 C 0.84932 0.55944 0.98816 0.0
H1284 H 0.12113 0.09204 0.05593 0.0
H1285 H 0.06307 0.02739 0.05266 0.0
H1286 H 0.15103 0.06366 0.04552 0.0
H1287 H 0.09325 0.99913 0.04302 0.0
H1288 H 0.16137 0.96273 0.05843 0.0
H1289 H 0.12979 0.98985 0.06547 0.0
H1290 H 0.16125 0.02995 0.01095 0.0
H1291 H 0.19267 0.00292 0.00383 0.0
C1292 C 0.11461 0.0718 0.05261 0.0
C1293 C 0.08961 0.06209 0.05525 0.0
C1294 C 0.13182 0.05553 0.04678 0.0
C1295 C 0.12451 0.02917 0.04366 0.0
C1296 C 0.09949 0.01938 0.04572 0.0
C1297 C 0.08222 0.03562 0.05127 0.0
C1298 C 0.16147 0.97726 0.04789 0.0
C1299 C 0.17955 0.98067 0.0306 0.0
C1300 C 0.14332 0.9927 0.05183 0.0
C1301 C 0.14308 0.01205 0.03878 0.0
C1302 C 0.16109 0.01535 0.02143 0.0
C1303 C 0.17901 -0.00024 0.01728 0.0
loop_
_geom_bond_atom_site_label_1
_geom_bond_atom_site_label_2
_geom_bond_distance
_geom_bond_site_symmetry_2
_ccdc_geom_bond_type
H0 C3 0.929 . S
H1 C6 0.929 . S
H2 C8 0.930 . S
C3 H0 0.929 . S
C3 C4 1.398 . S
C3 C5 1.396 . S
C4 C3 1.398 . S
C4 C8 1.407 . S
C5 C3 1.396 . S
C5 C6 1.394 . S
C6 H1 0.929 . S
C6 C5 1.394 . S
C6 C7 1.382 . S
C7 C6 1.382 . S
C7 C8 1.392 . S
C7 N9 1.420 . S
C8 H2 0.930 . S
C8 C4 1.407 . S
C8 C7 1.392 . S
N9 C7 1.420 . S
N9 C10 1.244 . S
C10 N9 1.244 . S
H11 C14 0.929 . S
H12 C17 0.929 . S
H13 C19 0.930 . S
C14 H11 0.929 . S
C14 C15 1.398 . S
C14 C16 1.396 . S
C15 C14 1.398 . S
C15 C19 1.407 . S
C16 C14 1.396 . S
C16 C17 1.394 . S
C17 H12 0.929 . S
C17 C16 1.394 . S
C17 C18 1.382 . S
C18 C17 1.382 . S
C18 C19 1.392 . S
C18 N20 1.420 . S
C19 H13 0.930 . S
C19 C15 1.407 . S
C19 C18 1.392 . S
N20 C18 1.420 . S
N20 C21 1.244 . S
C21 N20 1.244 . S
H22 C25 0.929 . S
H23 C28 0.929 . S
H24 C30 0.930 . S
C25 H22 0.929 . S
C25 C26 1.398 . S
C25 C27 1.396 . S
C26 C25 1.398 . S
C26 C30 1.407 . S
C27 C25 1.396 . S
C27 C28 1.394 . S
C28 H23 0.929 . S
C28 C27 1.394 . S
C28 C29 1.382 . S
C29 C28 1.382 . S
C29 C30 1.392 . S
C29 N31 1.420 . S
C30 H24 0.930 . S
C30 C26 1.407 . S
C30 C29 1.392 . S
N31 C29 1.420 . S
N31 C32 1.244 . S
C32 N31 1.244 . S
H33 C36 0.929 . S
H34 C39 0.929 . S
H35 C41 0.930 . S
C36 H33 0.929 . S
C36 C37 1.398 . S
C36 C38 1.396 . S
C37 C36 1.398 . S
C37 C41 1.407 . S
C38 C36 1.396 . S
C38 C39 1.394 . S
C39 H34 0.929 . S
C39 C38 1.394 . S
C39 C40 1.382 . S
C40 C39 1.382 . S
C40 C41 1.392 . S
C40 N42 1.420 . S
C41 H35 0.930 . S
C41 C37 1.407 . S
C41 C40 1.392 . S
N42 C40 1.420 . S
N42 C43 1.244 . S
C43 N42 1.244 . S
H44 C47 0.929 . S
H45 C50 0.929 . S
H46 C52 0.930 . S
C47 H44 0.929 . S
C47 C48 1.398 . S
C47 C49 1.396 . S
C48 C47 1.398 . S
C48 C52 1.407 . S
C49 C47 1.396 . S
C49 C50 1.394 . S
C50 H45 0.929 . S
C50 C49 1.394 . S
C50 C51 1.382 . S
C51 C50 1.382 . S
C51 C52 1.392 . S
C51 N53 1.420 . S
C52 H46 0.930 . S
C52 C48 1.407 . S
C52 C51 1.392 . S
N53 C51 1.420 . S
N53 C54 1.244 . S
C54 N53 1.244 . S
H55 C58 0.929 . S
H56 C61 0.929 . S
H57 C63 0.930 . S
C58 H55 0.929 . S
C58 C59 1.398 . S
C58 C60 1.396 . S
C59 C58 1.398 . S
C59 C63 1.407 . S
C60 C58 1.396 . S
C60 C61 1.394 . S
C61 H56 0.929 . S
C61 C60 1.394 . S
C61 C62 1.382 . S
C62 C61 1.382 . S
C62 C63 1.392 . S
C62 N64 1.420 . S
C63 H57 0.930 . S
C63 C59 1.407 . S
C63 C62 1.392 . S
N64 C62 1.420 . S
N64 C65 1.244 . S
C65 N64 1.244 . S
H66 C69 0.929 . S
H67 C72 0.929 . S
H68 C74 0.930 . S
C69 H66 0.929 . S
C69 C70 1.398 . S
C69 C71 1.396 . S
C70 C69 1.398 . S
C70 C74 1.407 . S
C71 C69 1.396 . S
C71 C72 1.394 . S
C72 H67 0.929 . S
C72 C71 1.394 . S
C72 C73 1.382 . S
C73 C72 1.382 . S
C73 C74 1.392 . S
C73 N75 1.420 . S
C74 H68 0.930 . S
C74 C70 1.407 . S
C74 C73 1.392 . S
N75 C73 1.420 . S
N75 C76 1.244 . S
C76 N75 1.244 . S
H77 C80 0.929 . S
H78 C83 0.929 . S
H79 C85 0.930 . S
C80 H77 0.929 . S
C80 C81 1.398 . S
C80 C82 1.396 . S
C81 C80 1.398 . S
C81 C85 1.407 . S
C82 C80 1.396 . S
C82 C83 1.394 . S
C83 H78 0.929 . S
C83 C82 1.394 . S
C83 C84 1.382 . S
C84 C83 1.382 . S
C84 C85 1.392 . S
C84 N86 1.420 . S
C85 H79 0.930 . S
C85 C81 1.407 . S
C85 C84 1.392 . S
N86 C84 1.420 . S
N86 C87 1.244 . S
C87 N86 1.244 . S
H88 C91 0.929 . S
H89 C94 0.929 . S
H90 C96 0.930 . S
C91 H88 0.929 . S
C91 C92 1.398 . S
C91 C93 1.396 . S
C92 C91 1.398 . S
C92 C96 1.407 . S
C93 C91 1.396 . S
C93 C94 1.394 . S
C94 H89 0.929 . S
C94 C93 1.394 . S
C94 C95 1.382 . S
C95 C94 1.382 . S
C95 C96 1.392 . S
C95 N97 1.420 . S
C96 H90 0.930 . S
C96 C92 1.407 . S
C96 C95 1.392 . S
N97 C95 1.420 . S
N97 C98 1.244 . S
C98 N97 1.244 . S
H99 C102 0.929 . S
H100 C105 0.929 . S
H101 C107 0.930 . S
C102 H99 0.929 . S
C102 C103 1.398 . S
C102 C104 1.396 . S
C103 C102 1.398 . S
C103 C107 1.407 . S
C104 C102 1.396 . S
C104 C105 1.394 . S
C105 H100 0.929 . S
C105 C104 1.394 . S
C105 C106 1.382 . S
C106 C105 1.382 . S
C106 C107 1.392 . S
C106 N108 1.420 . S
C107 H101 0.930 . S
C107 C103 1.407 . S
C107 C106 1.392 . S
N108 C106 1.420 . S
N108 C109 1.244 . S
C109 N108 1.244 . S
H110 C113 0.929 . S
H111 C116 0.929 . S
H112 C118 0.930 . S
C113 H110 0.929 . S
C113 C114 1.398 . S
C113 C115 1.396 . S
C114 C113 1.398 . S
C114 C118 1.407 . S
C115 C113 1.396 . S
C115 C116 1.394 . S
C116 H111 0.929 . S
C116 C115 1.394 . S
C116 C117 1.382 . S
C117 C116 1.382 . S
C117 C118 1.392 . S
C117 N119 1.420 . S
C118 H112 0.930 . S
C118 C114 1.407 . S
C118 C117 1.392 . S
N119 C117 1.420 . S
N119 C120 1.244 . S
C120 N119 1.244 . S
H121 C124 0.929 . S
H122 C127 0.929 . S
H123 C129 0.930 . S
C124 H121 0.929 . S
C124 C125 1.398 . S
C124 C126 1.396 . S
C125 C124 1.398 . S
C125 C129 1.407 . S
C126 C124 1.396 . S
C126 C127 1.394 . S
C127 H122 0.929 . S
C127 C126 1.394 . S
C127 C128 1.382 . S
C128 C127 1.382 . S
C128 C129 1.392 . S
C128 N130 1.420 . S
C129 H123 0.930 . S
C129 C125 1.407 . S
C129 C128 1.392 . S
N130 C128 1.420 . S
N130 C131 1.244 . S
C131 N130 1.244 . S
H132 C135 0.929 . S
H133 C138 0.929 . S
H134 C140 0.930 . S
C135 H132 0.929 . S
C135 C136 1.398 . S
C135 C137 1.396 . S
C136 C135 1.398 . S
C136 C140 1.407 . S
C137 C135 1.396 . S
C137 C138 1.394 . S
C138 H133 0.929 . S
C138 C137 1.394 . S
C138 C139 1.382 . S
C139 C138 1.382 . S
C139 C140 1.392 . S
C139 N141 1.420 . S
C140 H134 0.930 . S
C140 C136 1.407 . S
C140 C139 1.392 . S
N141 C139 1.420 . S
N141 C142 1.244 . S
C142 N141 1.244 . S
H143 C146 0.929 . S
H144 C149 0.929 . S
H145 C151 0.930 . S
C146 H143 0.929 . S
C146 C147 1.398 . S
C146 C148 1.396 . S
C147 C146 1.398 . S
C147 C151 1.407 . S
C148 C146 1.396 . S
C148 C149 1.394 . S
C149 H144 0.929 . S
C149 C148 1.394 . S
C149 C150 1.382 . S
C150 C149 1.382 . S
C150 C151 1.392 . S
C150 N152 1.420 . S
C151 H145 0.930 . S
C151 C147 1.407 . S
C151 C150 1.392 . S
N152 C150 1.420 . S
N152 C153 1.244 . S
C153 N152 1.244 . S
H154 C157 0.929 . S
H155 C160 0.929 . S
H156 C162 0.930 . S
C157 H154 0.929 . S
C157 C158 1.398 . S
C157 C159 1.396 . S
C158 C157 1.398 . S
C158 C162 1.407 . S
C159 C157 1.396 . S
C159 C160 1.394 . S
C160 H155 0.929 . S
C160 C159 1.394 . S
C160 C161 1.382 . S
C161 C160 1.382 . S
C161 C162 1.392 . S
C161 N163 1.420 . S
C162 H156 0.930 . S
C162 C158 1.407 . S
C162 C161 1.392 . S
N163 C161 1.420 . S
N163 C164 1.244 . S
C164 N163 1.244 . S
H165 C168 0.929 . S
H166 C171 0.929 . S
H167 C173 0.930 . S
C168 H165 0.929 . S
C168 C169 1.398 . S
C168 C170 1.396 . S
C169 C168 1.398 . S
C169 C173 1.407 . S
C170 C168 1.396 . S
C170 C171 1.394 . S
C171 H166 0.929 . S
C171 C170 1.394 . S
C171 C172 1.382 . S
C172 C171 1.382 . S
C172 C173 1.392 . S
C172 N174 1.420 . S
C173 H167 0.930 . S
C173 C169 1.407 . S
C173 C172 1.392 . S
N174 C172 1.420 . S
N174 C175 1.244 . S
C175 N174 1.244 . S
O176 Cd177 2.223 . S
O176 C184 1.315 . S
Cd177 O176 2.223 . S
Cd177 O180 2.297 . S
Cd177 O181 2.439 . S
Cd177 O187 2.240 . S
Cd178 O179 2.240 . S
Cd178 O186 2.223 . S
Cd178 O188 2.297 . S
Cd178 O189 2.439 . S
O179 Cd178 2.240 . S
O179 C184 1.279 . S
O180 Cd177 2.297 . S
O180 C182 1.247 . S
O181 Cd177 2.439 . S
O181 C182 1.208 . S
C182 O180 1.247 . S
C182 O181 1.208 . S
C183 O188 1.247 . S
C183 O189 1.208 . S
C184 O176 1.315 . S
C184 O179 1.279 . S
C185 O186 1.315 . S
C185 O187 1.279 . S
O186 Cd178 2.223 . S
O186 C185 1.315 . S
O187 Cd177 2.240 . S
O187 C185 1.279 . S
O188 Cd178 2.297 . S
O188 C183 1.247 . S
O189 Cd178 2.439 . S
O189 C183 1.208 . S
O190 Cd191 2.223 . S
O190 C198 1.315 . S
Cd191 O190 2.223 . S
Cd191 O194 2.297 . S
Cd191 O195 2.439 . S
Cd191 O201 2.240 . S
Cd192 O193 2.240 . S
Cd192 O200 2.223 . S
Cd192 O202 2.297 . S
Cd192 O203 2.439 . S
O193 Cd192 2.240 . S
O193 C198 1.279 . S
O194 Cd191 2.297 . S
O194 C196 1.247 . S
O195 Cd191 2.439 . S
O195 C196 1.208 . S
C196 O194 1.247 . S
C196 O195 1.208 . S
C197 O202 1.247 . S
C197 O203 1.208 . S
C198 O190 1.315 . S
C198 O193 1.279 . S
C199 O200 1.315 . S
C199 O201 1.279 . S
O200 Cd192 2.223 . S
O200 C199 1.315 . S
O201 Cd191 2.240 . S
O201 C199 1.279 . S
O202 Cd192 2.297 . S
O202 C197 1.247 . S
O203 Cd192 2.439 . S
O203 C197 1.208 . S
O204 Cd205 2.223 1_556 S
O204 C212 1.315 . S
Cd205 O204 2.223 1_554 S
Cd205 O208 2.297 . S
Cd205 O209 2.439 . S
Cd205 O215 2.240 1_554 S
Cd206 O207 2.240 . S
Cd206 O214 2.223 . S
Cd206 O216 2.297 . S
Cd206 O217 2.439 1_556 S
O207 Cd206 2.240 . S
O207 C212 1.279 . S
O208 Cd205 2.297 . S
O208 C210 1.247 . S
O209 Cd205 2.439 . S
O209 C210 1.208 . S
C210 O208 1.247 . S
C210 O209 1.208 . S
C211 O216 1.247 1_554 S
C211 O217 1.208 . S
C212 O204 1.315 . S
C212 O207 1.279 . S
C213 O214 1.315 . S
C213 O215 1.279 . S
O214 Cd206 2.223 . S
O214 C213 1.315 . S
O215 Cd205 2.240 1_556 S
O215 C213 1.279 . S
O216 Cd206 2.297 . S
O216 C211 1.247 1_556 S
O217 Cd206 2.439 1_554 S
O217 C211 1.208 . S
O218 Cd219 2.223 . S
O218 C226 1.315 . S
Cd219 O218 2.223 . S
Cd219 O222 2.297 . S
Cd219 O223 2.439 . S
Cd219 O229 2.240 . S
Cd220 O221 2.240 . S
Cd220 O228 2.223 . S
Cd220 O230 2.297 . S
Cd220 O231 2.439 . S
O221 Cd220 2.240 . S
O221 C226 1.279 . S
O222 Cd219 2.297 . S
O222 C224 1.247 . S
O223 Cd219 2.439 . S
O223 C224 1.208 . S
C224 O222 1.247 . S
C224 O223 1.208 . S
C225 O230 1.247 . S
C225 O231 1.208 . S
C226 O218 1.315 . S
C226 O221 1.279 . S
C227 O228 1.315 . S
C227 O229 1.279 . S
O228 Cd220 2.223 . S
O228 C227 1.315 . S
O229 Cd219 2.240 . S
O229 C227 1.279 . S
O230 Cd220 2.297 . S
O230 C225 1.247 . S
O231 Cd220 2.439 . S
O231 C225 1.208 . S
O232 Cd233 2.223 . S
O232 C240 1.315 . S
Cd233 O232 2.223 . S
Cd233 O236 2.297 . S
Cd233 O237 2.439 . S
Cd233 O243 2.240 . S
Cd234 O235 2.240 . S
Cd234 O242 2.223 . S
Cd234 O244 2.297 . S
Cd234 O245 2.439 . S
O235 Cd234 2.240 . S
O235 C240 1.279 . S
O236 Cd233 2.297 . S
O236 C238 1.247 . S
O237 Cd233 2.439 . S
O237 C238 1.208 . S
C238 O236 1.247 . S
C238 O237 1.208 . S
C239 O244 1.247 . S
C239 O245 1.208 . S
C240 O232 1.315 . S
C240 O235 1.279 . S
C241 O242 1.315 . S
C241 O243 1.279 . S
O242 Cd234 2.223 . S
O242 C241 1.315 . S
O243 Cd233 2.240 . S
O243 C241 1.279 . S
O244 Cd234 2.297 . S
O244 C239 1.247 . S
O245 Cd234 2.439 . S
O245 C239 1.208 . S
O246 Cd247 2.223 . S
O246 C254 1.315 . S
Cd247 O246 2.223 . S
Cd247 O250 2.297 . S
Cd247 O251 2.439 . S
Cd247 O257 2.240 . S
Cd248 O249 2.240 . S
Cd248 O256 2.223 . S
Cd248 O258 2.297 . S
Cd248 O259 2.439 . S
O249 Cd248 2.240 . S
O249 C254 1.279 . S
O250 Cd247 2.297 . S
O250 C252 1.247 . S
O251 Cd247 2.439 . S
O251 C252 1.208 . S
C252 O250 1.247 . S
C252 O251 1.208 . S
C253 O258 1.247 . S
C253 O259 1.208 . S
C254 O246 1.315 . S
C254 O249 1.279 . S
C255 O256 1.315 . S
C255 O257 1.279 . S
O256 Cd248 2.223 . S
O256 C255 1.315 . S
O257 Cd247 2.240 . S
O257 C255 1.279 . S
O258 Cd248 2.297 . S
O258 C253 1.247 . S
O259 Cd248 2.439 . S
O259 C253 1.208 . S
O260 Cd261 2.223 . S
O260 C268 1.315 . S
Cd261 O260 2.223 . S
Cd261 O264 2.297 . S
Cd261 O265 2.439 . S
Cd261 O271 2.240 . S
Cd262 O263 2.240 . S
Cd262 O270 2.223 . S
Cd262 O272 2.297 . S
Cd262 O273 2.439 . S
O263 Cd262 2.240 . S
O263 C268 1.279 . S
O264 Cd261 2.297 . S
O264 C266 1.247 . S
O265 Cd261 2.439 . S
O265 C266 1.208 . S
C266 O264 1.247 . S
C266 O265 1.208 . S
C267 O272 1.247 . S
C267 O273 1.208 . S
C268 O260 1.315 . S
C268 O263 1.279 . S
C269 O270 1.315 . S
C269 O271 1.279 . S
O270 Cd262 2.223 . S
O270 C269 1.315 . S
O271 Cd261 2.240 . S
O271 C269 1.279 . S
O272 Cd262 2.297 . S
O272 C267 1.247 . S
O273 Cd262 2.439 . S
O273 C267 1.208 . S
O274 Cd275 2.223 1_545 S
O274 C282 1.315 . S
Cd275 O274 2.223 1_565 S
Cd275 O278 2.297 . S
Cd275 O279 2.439 . S
Cd275 O285 2.240 1_565 S
Cd276 O277 2.240 . S
Cd276 O284 2.223 . S
Cd276 O286 2.297 . S
Cd276 O287 2.439 1_545 S
O277 Cd276 2.240 . S
O277 C282 1.279 . S
O278 Cd275 2.297 . S
O278 C280 1.247 . S
O279 Cd275 2.439 . S
O279 C280 1.208 . S
C280 O278 1.247 . S
C280 O279 1.208 . S
C281 O286 1.247 1_565 S
C281 O287 1.208 . S
C282 O274 1.315 . S
C282 O277 1.279 . S
C283 O284 1.315 . S
C283 O285 1.279 . S
O284 Cd276 2.223 . S
O284 C283 1.315 . S
O285 Cd275 2.240 1_545 S
O285 C283 1.279 . S
O286 Cd276 2.297 . S
O286 C281 1.247 1_545 S
O287 Cd276 2.439 1_565 S
O287 C281 1.208 . S
O288 Cd289 2.223 . S
O288 C296 1.315 . S
Cd289 O288 2.223 . S
Cd289 O292 2.297 1_655 S
Cd289 O293 2.439 1_655 S
Cd289 O299 2.240 . S
Cd290 O291 2.240 . S
Cd290 O298 2.223 1_455 S
Cd290 O300 2.297 . S
Cd290 O301 2.439 . S
O291 Cd290 2.240 . S
O291 C296 1.279 1_455 S
O292 Cd289 2.297 1_455 S
O292 C294 1.247 . S
O293 Cd289 2.439 1_455 S
O293 C294 1.208 . S
C294 O292 1.247 . S
C294 O293 1.208 . S
C295 O300 1.247 . S
C295 O301 1.208 . S
C296 O288 1.315 . S
C296 O291 1.279 1_655 S
C297 O298 1.315 . S
C297 O299 1.279 . S
O298 Cd290 2.223 1_655 S
O298 C297 1.315 . S
O299 Cd289 2.240 . S
O299 C297 1.279 . S
O300 Cd290 2.297 . S
O300 C295 1.247 . S
O301 Cd290 2.439 . S
O301 C295 1.208 . S
O302 Cd303 2.223 . S
O302 C310 1.315 . S
Cd303 O302 2.223 . S
Cd303 O306 2.297 . S
Cd303 O307 2.439 . S
Cd303 O313 2.240 . S
Cd304 O305 2.240 . S
Cd304 O312 2.223 . S
Cd304 O314 2.297 . S
Cd304 O315 2.439 . S
O305 Cd304 2.240 . S
O305 C310 1.279 . S
O306 Cd303 2.297 . S
O306 C308 1.247 . S
O307 Cd303 2.439 . S
O307 C308 1.208 . S
C308 O306 1.247 . S
C308 O307 1.208 . S
C309 O314 1.247 . S
C309 O315 1.208 . S
C310 O302 1.315 . S
C310 O305 1.279 . S
C311 O312 1.315 . S
C311 O313 1.279 . S
O312 Cd304 2.223 . S
O312 C311 1.315 . S
O313 Cd303 2.240 . S
O313 C311 1.279 . S
O314 Cd304 2.297 . S
O314 C309 1.247 . S
O315 Cd304 2.439 . S
O315 C309 1.208 . S
O316 Cd317 2.223 1_655 S
O316 C324 1.315 . S
Cd317 O316 2.223 1_455 S
Cd317 O320 2.297 . S
Cd317 O321 2.439 . S
Cd317 O327 2.240 . S
Cd318 O319 2.240 . S
Cd318 O326 2.223 . S
Cd318 O328 2.297 1_655 S
Cd318 O329 2.439 1_655 S
O319 Cd318 2.240 . S
O319 C324 1.279 . S
O320 Cd317 2.297 . S
O320 C322 1.247 . S
O321 Cd317 2.439 . S
O321 C322 1.208 . S
C322 O320 1.247 . S
C322 O321 1.208 . S
C323 O328 1.247 . S
C323 O329 1.208 . S
C324 O316 1.315 . S
C324 O319 1.279 . S
C325 O326 1.315 . S
C325 O327 1.279 1_655 S
O326 Cd318 2.223 . S
O326 C325 1.315 . S
O327 Cd317 2.240 . S
O327 C325 1.279 1_455 S
O328 Cd318 2.297 1_455 S
O328 C323 1.247 . S
O329 Cd318 2.439 1_455 S
O329 C323 1.208 . S
O330 Cd331 2.223 . S
O330 C338 1.315 . S
Cd331 O330 2.223 . S
Cd331 O334 2.297 . S
Cd331 O335 2.439 . S
Cd331 O341 2.240 . S
Cd332 O333 2.240 . S
Cd332 O340 2.223 . S
Cd332 O342 2.297 . S
Cd332 O343 2.439 . S
O333 Cd332 2.240 . S
O333 C338 1.279 . S
O334 Cd331 2.297 . S
O334 C336 1.247 . S
O335 Cd331 2.439 . S
O335 C336 1.208 . S
C336 O334 1.247 . S
C336 O335 1.208 . S
C337 O342 1.247 . S
C337 O343 1.208 . S
C338 O330 1.315 . S
C338 O333 1.279 . S
C339 O340 1.315 . S
C339 O341 1.279 . S
O340 Cd332 2.223 . S
O340 C339 1.315 . S
O341 Cd331 2.240 . S
O341 C339 1.279 . S
O342 Cd332 2.297 . S
O342 C337 1.247 . S
O343 Cd332 2.439 . S
O343 C337 1.208 . S
H344 C352 0.950 . S
H345 C357 0.950 . S
H346 C354 0.950 . S
H347 C356 0.950 . S
H348 C358 0.950 . S
H349 C360 0.950 . S
H350 C362 0.950 . S
H351 C363 0.950 . S
C352 H344 0.950 . S
C352 C353 1.386 . S
C352 C354 1.391 . S
C353 C352 1.386 . S
C353 C357 1.393 . S
C354 H346 0.950 . S
C354 C352 1.391 . S
C354 C355 1.400 . S
C355 C354 1.400 . S
C355 C356 1.398 . S
C355 C361 1.491 . S
C356 H347 0.950 . S
C356 C355 1.398 . S
C356 C357 1.391 . S
C357 H345 0.950 . S
C357 C353 1.393 . S
C357 C356 1.391 . S
C358 H348 0.950 . S
C358 C359 1.386 1_556 S
C358 C360 1.391 . S
C359 C358 1.386 1_554 S
C359 C363 1.393 . S
C360 H349 0.950 . S
C360 C358 1.391 . S
C360 C361 1.400 . S
C361 C355 1.491 . S
C361 C360 1.400 . S
C361 C362 1.398 . S
C362 H350 0.950 . S
C362 C361 1.398 . S
C362 C363 1.391 1_556 S
C363 H351 0.950 . S
C363 C359 1.393 . S
C363 C362 1.391 1_554 S
H364 C372 0.950 . S
H365 C377 0.950 . S
H366 C374 0.950 . S
H367 C376 0.950 . S
H368 C378 0.950 . S
H369 C380 0.950 . S
H370 C382 0.950 . S
H371 C383 0.950 . S
C372 H364 0.950 . S
C372 C373 1.386 . S
C372 C374 1.391 . S
C373 C372 1.386 . S
C373 C377 1.393 1_655 S
C374 H366 0.950 . S
C374 C372 1.391 . S
C374 C375 1.400 1_655 S
C375 C374 1.400 1_455 S
C375 C376 1.398 . S
C375 C381 1.491 . S
C376 H367 0.950 . S
C376 C375 1.398 . S
C376 C377 1.391 . S
C377 H365 0.950 . S
C377 C373 1.393 1_455 S
C377 C376 1.391 . S
C378 H368 0.950 . S
C378 C379 1.386 . S
C378 C380 1.391 . S
C379 C378 1.386 . S
C379 C383 1.393 . S
C380 H369 0.950 . S
C380 C378 1.391 . S
C380 C381 1.400 . S
C381 C375 1.491 . S
C381 C380 1.400 . S
C381 C382 1.398 . S
C382 H370 0.950 . S
C382 C381 1.398 . S
C382 C383 1.391 . S
C383 H371 0.950 . S
C383 C379 1.393 . S
C383 C382 1.391 . S
H384 C392 0.950 . S
H385 C397 0.950 . S
H386 C394 0.950 . S
H387 C396 0.950 . S
H388 C398 0.950 . S
H389 C400 0.950 . S
H390 C402 0.950 . S
H391 C403 0.950 . S
C392 H384 0.950 . S
C392 C393 1.386 . S
C392 C394 1.391 . S
C393 C392 1.386 . S
C393 C397 1.393 . S
C394 H386 0.950 . S
C394 C392 1.391 . S
C394 C395 1.400 . S
C395 C394 1.400 . S
C395 C396 1.398 . S
C395 C401 1.491 . S
C396 H387 0.950 . S
C396 C395 1.398 . S
C396 C397 1.391 . S
C397 H385 0.950 . S
C397 C393 1.393 . S
C397 C396 1.391 . S
C398 H388 0.950 . S
C398 C399 1.386 . S
C398 C400 1.391 . S
C399 C398 1.386 . S
C399 C403 1.393 . S
C400 H389 0.950 . S
C400 C398 1.391 . S
C400 C401 1.400 . S
C401 C395 1.491 . S
C401 C400 1.400 . S
C401 C402 1.398 . S
C402 H390 0.950 . S
C402 C401 1.398 . S
C402 C403 1.391 . S
C403 H391 0.950 . S
C403 C399 1.393 . S
C403 C402 1.391 . S
H404 C412 0.950 . S
H405 C417 0.950 . S
H406 C414 0.950 . S
H407 C416 0.950 . S
H408 C418 0.950 . S
H409 C420 0.950 . S
H410 C422 0.950 1_565 S
H411 C423 0.950 . S
C412 H404 0.950 . S
C412 C413 1.386 . S
C412 C414 1.391 . S
C413 C412 1.386 . S
C413 C417 1.393 1_565 S
C414 H406 0.950 . S
C414 C412 1.391 . S
C414 C415 1.400 1_565 S
C415 C414 1.400 1_545 S
C415 C416 1.398 . S
C415 C421 1.491 . S
C416 H407 0.950 . S
C416 C415 1.398 . S
C416 C417 1.391 . S
C417 H405 0.950 . S
C417 C413 1.393 1_545 S
C417 C416 1.391 . S
C418 H408 0.950 . S
C418 C419 1.386 1_455 S
C418 C420 1.391 . S
C419 C418 1.386 1_655 S
C419 C423 1.393 . S
C420 H409 0.950 . S
C420 C418 1.391 . S
C420 C421 1.400 . S
C421 C415 1.491 . S
C421 C420 1.400 . S
C421 C422 1.398 1_455 S
C422 H410 0.950 1_545 S
C422 C421 1.398 1_655 S
C422 C423 1.391 . S
C423 H411 0.950 . S
C423 C419 1.393 . S
C423 C422 1.391 . S
H424 C432 0.950 . S
H425 C437 0.950 . S
H426 C434 0.950 . S
H427 C436 0.950 . S
H428 C438 0.950 . S
H429 C440 0.950 . S
H430 C442 0.950 . S
H431 C443 0.950 . S
C432 H424 0.950 . S
C432 C433 1.386 . S
C432 C434 1.391 . S
C433 C432 1.386 . S
C433 C437 1.393 . S
C434 H426 0.950 . S
C434 C432 1.391 . S
C434 C435 1.400 . S
C435 C434 1.400 . S
C435 C436 1.398 . S
C435 C441 1.491 . S
C436 H427 0.950 . S
C436 C435 1.398 . S
C436 C437 1.391 . S
C437 H425 0.950 . S
C437 C433 1.393 . S
C437 C436 1.391 . S
C438 H428 0.950 . S
C438 C439 1.386 . S
C438 C440 1.391 . S
C439 C438 1.386 . S
C439 C443 1.393 . S
C440 H429 0.950 . S
C440 C438 1.391 . S
C440 C441 1.400 . S
C441 C435 1.491 . S
C441 C440 1.400 . S
C441 C442 1.398 . S
C442 H430 0.950 . S
C442 C441 1.398 . S
C442 C443 1.391 . S
C443 H431 0.950 . S
C443 C439 1.393 . S
C443 C442 1.391 . S
H444 C452 0.950 . S
H445 C457 0.950 . S
H446 C454 0.950 . S
H447 C456 0.950 . S
H448 C458 0.950 . S
H449 C460 0.950 . S
H450 C462 0.950 . S
H451 C463 0.950 . S
C452 H444 0.950 . S
C452 C453 1.386 . S
C452 C454 1.391 . S
C453 C452 1.386 . S
C453 C457 1.393 . S
C454 H446 0.950 . S
C454 C452 1.391 . S
C454 C455 1.400 . S
C455 C454 1.400 . S
C455 C456 1.398 . S
C455 C461 1.491 . S
C456 H447 0.950 . S
C456 C455 1.398 . S
C456 C457 1.391 . S
C457 H445 0.950 . S
C457 C453 1.393 . S
C457 C456 1.391 . S
C458 H448 0.950 . S
C458 C459 1.386 . S
C458 C460 1.391 . S
C459 C458 1.386 . S
C459 C463 1.393 . S
C460 H449 0.950 . S
C460 C458 1.391 . S
C460 C461 1.400 . S
C461 C455 1.491 . S
C461 C460 1.400 . S
C461 C462 1.398 . S
C462 H450 0.950 . S
C462 C461 1.398 . S
C462 C463 1.391 . S
C463 H451 0.950 . S
C463 C459 1.393 . S
C463 C462 1.391 . S
H464 C472 0.950 . S
H465 C477 0.950 . S
H466 C474 0.950 . S
H467 C476 0.950 . S
H468 C478 0.950 . S
H469 C480 0.950 . S
H470 C482 0.950 . S
H471 C483 0.950 . S
C472 H464 0.950 . S
C472 C473 1.386 . S
C472 C474 1.391 . S
C473 C472 1.386 . S
C473 C477 1.393 . S
C474 H466 0.950 . S
C474 C472 1.391 . S
C474 C475 1.400 . S
C475 C474 1.400 . S
C475 C476 1.398 . S
C475 C481 1.491 . S
C476 H467 0.950 . S
C476 C475 1.398 . S
C476 C477 1.391 . S
C477 H465 0.950 . S
C477 C473 1.393 . S
C477 C476 1.391 . S
C478 H468 0.950 . S
C478 C479 1.386 . S
C478 C480 1.391 . S
C479 C478 1.386 . S
C479 C483 1.393 . S
C480 H469 0.950 . S
C480 C478 1.391 . S
C480 C481 1.400 . S
C481 C475 1.491 . S
C481 C480 1.400 . S
C481 C482 1.398 . S
C482 H470 0.950 . S
C482 C481 1.398 . S
C482 C483 1.391 . S
C483 H471 0.950 . S
C483 C479 1.393 . S
C483 C482 1.391 . S
H484 C492 0.950 . S
H485 C497 0.950 . S
H486 C494 0.950 . S
H487 C496 0.950 . S
H488 C498 0.950 1_545 S
H489 C500 0.950 . S
H490 C502 0.950 . S
H491 C503 0.950 . S
C492 H484 0.950 . S
C492 C493 1.386 . S
C492 C494 1.391 . S
C493 C492 1.386 . S
C493 C497 1.393 . S
C494 H486 0.950 . S
C494 C492 1.391 . S
C494 C495 1.400 . S
C495 C494 1.400 . S
C495 C496 1.398 . S
C495 C501 1.491 . S
C496 H487 0.950 . S
C496 C495 1.398 . S
C496 C497 1.391 . S
C497 H485 0.950 . S
C497 C493 1.393 . S
C497 C496 1.391 . S
C498 H488 0.950 1_565 S
C498 C499 1.386 . S
C498 C500 1.391 . S
C499 C498 1.386 . S
C499 C503 1.393 . S
C500 H489 0.950 . S
C500 C498 1.391 . S
C500 C501 1.400 . S
C501 C495 1.491 . S
C501 C500 1.400 . S
C501 C502 1.398 . S
C502 H490 0.950 . S
C502 C501 1.398 . S
C502 C503 1.391 . S
C503 H491 0.950 . S
C503 C499 1.393 . S
C503 C502 1.391 . S
H504 C512 0.950 . S
H505 C517 0.950 . S
H506 C514 0.950 . S
H507 C516 0.950 . S
H508 C518 0.950 . S
H509 C520 0.950 . S
H510 C522 0.950 . S
H511 C523 0.950 . S
C512 H504 0.950 . S
C512 C513 1.386 . S
C512 C514 1.391 . S
C513 C512 1.386 . S
C513 C517 1.393 . S
C514 H506 0.950 . S
C514 C512 1.391 . S
C514 C515 1.400 . S
C515 C514 1.400 . S
C515 C516 1.398 . S
C515 C521 1.491 . S
C516 H507 0.950 . S
C516 C515 1.398 . S
C516 C517 1.391 . S
C517 H505 0.950 . S
C517 C513 1.393 . S
C517 C516 1.391 . S
C518 H508 0.950 . S
C518 C519 1.386 . S
C518 C520 1.391 . S
C519 C518 1.386 . S
C519 C523 1.393 . S
C520 H509 0.950 . S
C520 C518 1.391 . S
C520 C521 1.400 . S
C521 C515 1.491 . S
C521 C520 1.400 . S
C521 C522 1.398 . S
C522 H510 0.950 . S
C522 C521 1.398 . S
C522 C523 1.391 . S
C523 H511 0.950 . S
C523 C519 1.393 . S
C523 C522 1.391 . S
H524 C532 0.950 . S
H525 C537 0.950 . S
H526 C534 0.950 . S
H527 C536 0.950 . S
H528 C538 0.950 . S
H529 C540 0.950 . S
H530 C542 0.950 . S
H531 C543 0.950 . S
C532 H524 0.950 . S
C532 C533 1.386 . S
C532 C534 1.391 . S
C533 C532 1.386 . S
C533 C537 1.393 . S
C534 H526 0.950 . S
C534 C532 1.391 . S
C534 C535 1.400 . S
C535 C534 1.400 . S
C535 C536 1.398 . S
C535 C541 1.491 . S
C536 H527 0.950 . S
C536 C535 1.398 . S
C536 C537 1.391 . S
C537 H525 0.950 . S
C537 C533 1.393 . S
C537 C536 1.391 . S
C538 H528 0.950 . S
C538 C539 1.386 . S
C538 C540 1.391 . S
C539 C538 1.386 . S
C539 C543 1.393 . S
C540 H529 0.950 . S
C540 C538 1.391 . S
C540 C541 1.400 . S
C541 C535 1.491 . S
C541 C540 1.400 . S
C541 C542 1.398 . S
C542 H530 0.950 . S
C542 C541 1.398 . S
C542 C543 1.391 . S
C543 H531 0.950 . S
C543 C539 1.393 . S
C543 C542 1.391 . S
H544 C552 0.950 . S
H545 C557 0.950 . S
H546 C554 0.950 . S
H547 C556 0.950 . S
H548 C558 0.950 . S
H549 C560 0.950 . S
H550 C562 0.950 . S
H551 C563 0.950 . S
C552 H544 0.950 . S
C552 C553 1.386 . S
C552 C554 1.391 . S
C553 C552 1.386 . S
C553 C557 1.393 . S
C554 H546 0.950 . S
C554 C552 1.391 . S
C554 C555 1.400 . S
C555 C554 1.400 . S
C555 C556 1.398 . S
C555 C561 1.491 . S
C556 H547 0.950 . S
C556 C555 1.398 . S
C556 C557 1.391 . S
C557 H545 0.950 . S
C557 C553 1.393 . S
C557 C556 1.391 . S
C558 H548 0.950 . S
C558 C559 1.386 . S
C558 C560 1.391 . S
C559 C558 1.386 . S
C559 C563 1.393 . S
C560 H549 0.950 . S
C560 C558 1.391 . S
C560 C561 1.400 . S
C561 C555 1.491 . S
C561 C560 1.400 . S
C561 C562 1.398 . S
C562 H550 0.950 . S
C562 C561 1.398 . S
C562 C563 1.391 . S
C563 H551 0.950 . S
C563 C559 1.393 . S
C563 C562 1.391 . S
H564 C572 0.950 . S
H565 C577 0.950 . S
H566 C574 0.950 . S
H567 C576 0.950 . S
H568 C578 0.950 . S
H569 C580 0.950 . S
H570 C582 0.950 . S
H571 C583 0.950 . S
C572 H564 0.950 . S
C572 C573 1.386 . S
C572 C574 1.391 . S
C573 C572 1.386 . S
C573 C577 1.393 . S
C574 H566 0.950 . S
C574 C572 1.391 . S
C574 C575 1.400 . S
C575 C574 1.400 . S
C575 C576 1.398 . S
C575 C581 1.491 . S
C576 H567 0.950 . S
C576 C575 1.398 . S
C576 C577 1.391 . S
C577 H565 0.950 . S
C577 C573 1.393 . S
C577 C576 1.391 . S
C578 H568 0.950 . S
C578 C579 1.386 . S
C578 C580 1.391 . S
C579 C578 1.386 . S
C579 C583 1.393 . S
C580 H569 0.950 . S
C580 C578 1.391 . S
C580 C581 1.400 . S
C581 C575 1.491 . S
C581 C580 1.400 . S
C581 C582 1.398 . S
C582 H570 0.950 . S
C582 C581 1.398 . S
C582 C583 1.391 . S
C583 H571 0.950 . S
C583 C579 1.393 . S
C583 C582 1.391 . S
H584 C592 0.950 . S
H585 C597 0.950 . S
H586 C594 0.950 . S
H587 C596 0.950 . S
H588 C598 0.950 . S
H589 C600 0.950 . S
H590 C602 0.950 . S
H591 C603 0.950 . S
C592 H584 0.950 . S
C592 C593 1.386 . S
C592 C594 1.391 . S
C593 C592 1.386 . S
C593 C597 1.393 . S
C594 H586 0.950 . S
C594 C592 1.391 . S
C594 C595 1.400 . S
C595 C594 1.400 . S
C595 C596 1.398 . S
C595 C601 1.491 . S
C596 H587 0.950 . S
C596 C595 1.398 . S
C596 C597 1.391 . S
C597 H585 0.950 . S
C597 C593 1.393 . S
C597 C596 1.391 . S
C598 H588 0.950 . S
C598 C599 1.386 . S
C598 C600 1.391 . S
C599 C598 1.386 . S
C599 C603 1.393 . S
C600 H589 0.950 . S
C600 C598 1.391 . S
C600 C601 1.400 . S
C601 C595 1.491 . S
C601 C600 1.400 . S
C601 C602 1.398 . S
C602 H590 0.950 . S
C602 C601 1.398 . S
C602 C603 1.391 . S
C603 H591 0.950 . S
C603 C599 1.393 . S
C603 C602 1.391 . S
H604 C612 0.950 . S
H605 C617 0.950 . S
H606 C614 0.950 . S
H607 C616 0.950 . S
H608 C618 0.950 . S
H609 C620 0.950 . S
H610 C622 0.950 . S
H611 C623 0.950 . S
C612 H604 0.950 . S
C612 C613 1.386 . S
C612 C614 1.391 . S
C613 C612 1.386 . S
C613 C617 1.393 . S
C614 H606 0.950 . S
C614 C612 1.391 . S
C614 C615 1.400 . S
C615 C614 1.400 . S
C615 C616 1.398 . S
C615 C621 1.491 . S
C616 H607 0.950 . S
C616 C615 1.398 . S
C616 C617 1.391 . S
C617 H605 0.950 . S
C617 C613 1.393 . S
C617 C616 1.391 . S
C618 H608 0.950 . S
C618 C619 1.386 . S
C618 C620 1.391 . S
C619 C618 1.386 . S
C619 C623 1.393 . S
C620 H609 0.950 . S
C620 C618 1.391 . S
C620 C621 1.400 . S
C621 C615 1.491 . S
C621 C620 1.400 . S
C621 C622 1.398 . S
C622 H610 0.950 . S
C622 C621 1.398 . S
C622 C623 1.391 . S
C623 H611 0.950 . S
C623 C619 1.393 . S
C623 C622 1.391 . S
H624 C632 0.950 . S
H625 C637 0.950 . S
H626 C634 0.950 . S
H627 C636 0.950 . S
H628 C638 0.950 . S
H629 C640 0.950 . S
H630 C642 0.950 . S
H631 C643 0.950 . S
C632 H624 0.950 . S
C632 C633 1.386 . S
C632 C634 1.391 . S
C633 C632 1.386 . S
C633 C637 1.393 . S
C634 H626 0.950 . S
C634 C632 1.391 . S
C634 C635 1.400 . S
C635 C634 1.400 . S
C635 C636 1.398 . S
C635 C641 1.491 . S
C636 H627 0.950 . S
C636 C635 1.398 . S
C636 C637 1.391 . S
C637 H625 0.950 . S
C637 C633 1.393 . S
C637 C636 1.391 . S
C638 H628 0.950 . S
C638 C639 1.386 . S
C638 C640 1.391 . S
C639 C638 1.386 . S
C639 C643 1.393 . S
C640 H629 0.950 . S
C640 C638 1.391 . S
C640 C641 1.400 . S
C641 C635 1.491 . S
C641 C640 1.400 . S
C641 C642 1.398 . S
C642 H630 0.950 . S
C642 C641 1.398 . S
C642 C643 1.391 . S
C643 H631 0.950 . S
C643 C639 1.393 . S
C643 C642 1.391 . S
H644 C652 0.950 . S
H645 C657 0.950 . S
H646 C654 0.950 . S
H647 C656 0.950 . S
H648 C658 0.950 1_455 S
H649 C660 0.950 1_455 S
H650 C662 0.950 . S
H651 C663 0.950 . S
C652 H644 0.950 . S
C652 C653 1.386 . S
C652 C654 1.391 . S
C653 C652 1.386 . S
C653 C657 1.393 . S
C654 H646 0.950 . S
C654 C652 1.391 . S
C654 C655 1.400 . S
C655 C654 1.400 . S
C655 C656 1.398 . S
C655 C661 1.491 . S
C656 H647 0.950 . S
C656 C655 1.398 . S
C656 C657 1.391 . S
C657 H645 0.950 . S
C657 C653 1.393 . S
C657 C656 1.391 . S
C658 H648 0.950 1_655 S
C658 C659 1.386 . S
C658 C660 1.391 . S
C659 C658 1.386 . S
C659 C663 1.393 . S
C660 H649 0.950 1_655 S
C660 C658 1.391 . S
C660 C661 1.400 . S
C661 C655 1.491 . S
C661 C660 1.400 . S
C661 C662 1.398 . S
C662 H650 0.950 . S
C662 C661 1.398 . S
C662 C663 1.391 . S
C663 H651 0.950 . S
C663 C659 1.393 . S
C663 C662 1.391 . S
H664 C672 0.950 . S
H665 C677 0.950 . S
H666 C674 0.950 . S
H667 C676 0.950 . S
H668 C678 0.950 . S
H669 C680 0.950 . S
H670 C682 0.950 . S
H671 C683 0.950 . S
C672 H664 0.950 . S
C672 C673 1.386 . S
C672 C674 1.391 . S
C673 C672 1.386 . S
C673 C677 1.393 . S
C674 H666 0.950 . S
C674 C672 1.391 . S
C674 C675 1.400 . S
C675 C674 1.400 . S
C675 C676 1.398 . S
C675 C681 1.491 . S
C676 H667 0.950 . S
C676 C675 1.398 . S
C676 C677 1.391 . S
C677 H665 0.950 . S
C677 C673 1.393 . S
C677 C676 1.391 . S
C678 H668 0.950 . S
C678 C679 1.386 1_565 S
C678 C680 1.391 . S
C679 C678 1.386 1_545 S
C679 C683 1.393 . S
C680 H669 0.950 . S
C680 C678 1.391 . S
C680 C681 1.400 . S
C681 C675 1.491 . S
C681 C680 1.400 . S
C681 C682 1.398 . S
C682 H670 0.950 . S
C682 C681 1.398 . S
C682 C683 1.391 1_565 S
C683 H671 0.950 . S
C683 C679 1.393 . S
C683 C682 1.391 1_545 S
H684 C692 0.950 . S
H685 C697 0.950 . S
H686 C694 0.950 . S
H687 C696 0.950 . S
H688 C698 0.950 . S
H689 C700 0.950 . S
H690 C702 0.950 . S
H691 C703 0.950 . S
C692 H684 0.950 . S
C692 C693 1.386 . S
C692 C694 1.391 . S
C693 C692 1.386 . S
C693 C697 1.393 . S
C694 H686 0.950 . S
C694 C692 1.391 . S
C694 C695 1.400 . S
C695 C694 1.400 . S
C695 C696 1.398 . S
C695 C701 1.491 . S
C696 H687 0.950 . S
C696 C695 1.398 . S
C696 C697 1.391 . S
C697 H685 0.950 . S
C697 C693 1.393 . S
C697 C696 1.391 . S
C698 H688 0.950 . S
C698 C699 1.386 . S
C698 C700 1.391 . S
C699 C698 1.386 . S
C699 C703 1.393 . S
C700 H689 0.950 . S
C700 C698 1.391 . S
C700 C701 1.400 . S
C701 C695 1.491 . S
C701 C700 1.400 . S
C701 C702 1.398 . S
C702 H690 0.950 . S
C702 C701 1.398 . S
C702 C703 1.391 . S
C703 H691 0.950 . S
C703 C699 1.393 . S
C703 C702 1.391 . S
H704 C712 0.950 . S
H705 C717 0.950 . S
H706 C714 0.948 . S
H707 C716 0.950 . S
H708 C718 0.950 . S
H709 C720 0.950 . S
H710 C722 0.950 . S
H711 C723 0.950 . S
C712 H704 0.950 . S
C712 C713 1.386 . S
C712 C714 1.391 . S
C713 C712 1.386 . S
C713 C717 1.393 . S
C714 H706 0.948 . S
C714 C712 1.391 . S
C714 C715 1.400 . S
C715 C714 1.400 . S
C715 C716 1.398 . S
C715 C721 1.491 1_556 S
C716 H707 0.950 . S
C716 C715 1.398 . S
C716 C717 1.391 . S
C717 H705 0.950 . S
C717 C713 1.393 . S
C717 C716 1.391 . S
C718 H708 0.950 . S
C718 C719 1.386 . S
C718 C720 1.391 . S
C719 C718 1.386 . S
C719 C723 1.393 1_565 S
C720 H709 0.950 . S
C720 C718 1.391 . S
C720 C721 1.400 1_565 S
C721 C715 1.491 1_554 S
C721 C720 1.400 1_545 S
C721 C722 1.398 . S
C722 H710 0.950 . S
C722 C721 1.398 . S
C722 C723 1.391 . S
C723 H711 0.950 . S
C723 C719 1.393 1_545 S
C723 C722 1.391 . S
H724 C732 0.950 . S
H725 C737 0.950 . S
H726 C734 0.950 . S
H727 C736 0.950 . S
H728 C738 0.950 . S
H729 C740 0.950 . S
H730 C742 0.950 . S
H731 C743 0.950 . S
C732 H724 0.950 . S
C732 C733 1.386 . S
C732 C734 1.391 . S
C733 C732 1.386 . S
C733 C737 1.393 . S
C734 H726 0.950 . S
C734 C732 1.391 . S
C734 C735 1.400 . S
C735 C734 1.400 . S
C735 C736 1.398 . S
C735 C741 1.491 . S
C736 H727 0.950 . S
C736 C735 1.398 . S
C736 C737 1.391 . S
C737 H725 0.950 . S
C737 C733 1.393 . S
C737 C736 1.391 . S
C738 H728 0.950 . S
C738 C739 1.386 . S
C738 C740 1.391 . S
C739 C738 1.386 . S
C739 C743 1.393 . S
C740 H729 0.950 . S
C740 C738 1.391 . S
C740 C741 1.400 . S
C741 C735 1.491 . S
C741 C740 1.400 . S
C741 C742 1.398 . S
C742 H730 0.950 . S
C742 C741 1.398 . S
C742 C743 1.391 . S
C743 H731 0.950 . S
C743 C739 1.393 . S
C743 C742 1.391 . S
H744 C752 0.950 . S
H745 C757 0.928 1_565 S
H746 C754 0.950 . S
H747 C756 0.950 . S
H748 C758 0.950 . S
H749 C760 0.950 . S
H750 C762 0.950 . S
H751 C763 0.950 . S
C752 H744 0.950 . S
C752 C753 1.384 1_545 S
C752 C754 1.391 . S
C753 C752 1.384 1_565 S
C753 C757 1.393 1_565 S
C754 H746 0.950 . S
C754 C752 1.391 . S
C754 C755 1.400 . S
C755 C754 1.400 . S
C755 C756 1.398 . S
C755 C761 1.491 . S
C756 H747 0.950 . S
C756 C755 1.398 . S
C756 C757 1.413 . S
C757 H745 0.928 1_545 S
C757 C753 1.393 1_545 S
C757 C756 1.413 . S
C758 H748 0.950 . S
C758 C759 1.386 . S
C758 C760 1.391 . S
C759 C758 1.386 . S
C759 C763 1.393 . S
C760 H749 0.950 . S
C760 C758 1.391 . S
C760 C761 1.400 . S
C761 C755 1.491 . S
C761 C760 1.400 . S
C761 C762 1.398 . S
C762 H750 0.950 . S
C762 C761 1.398 . S
C762 C763 1.391 . S
C763 H751 0.950 . S
C763 C759 1.393 . S
C763 C762 1.391 . S
H764 C772 0.950 . S
H765 C777 0.950 . S
H766 C774 0.950 . S
H767 C776 0.950 . S
H768 C778 0.950 . S
H769 C780 0.950 . S
H770 C782 0.950 . S
H771 C783 0.950 . S
C772 H764 0.950 . S
C772 C773 1.386 . S
C772 C774 1.391 . S
C773 C772 1.386 . S
C773 C777 1.393 . S
C774 H766 0.950 . S
C774 C772 1.391 . S
C774 C775 1.400 . S
C775 C774 1.400 . S
C775 C776 1.398 . S
C775 C781 1.491 . S
C776 H767 0.950 . S
C776 C775 1.398 . S
C776 C777 1.391 . S
C777 H765 0.950 . S
C777 C773 1.393 . S
C777 C776 1.391 . S
C778 H768 0.950 . S
C778 C779 1.386 . S
C778 C780 1.391 . S
C779 C778 1.386 . S
C779 C783 1.393 . S
C780 H769 0.950 . S
C780 C778 1.391 . S
C780 C781 1.400 . S
C781 C775 1.491 . S
C781 C780 1.400 . S
C781 C782 1.398 . S
C782 H770 0.950 . S
C782 C781 1.398 . S
C782 C783 1.391 . S
C783 H771 0.950 . S
C783 C779 1.393 . S
C783 C782 1.391 . S
H784 C792 0.950 . S
H785 C797 0.950 . S
H786 C794 0.950 . S
H787 C796 0.950 . S
H788 C798 0.950 . S
H789 C800 0.950 . S
H790 C802 0.950 . S
H791 C803 0.950 . S
C792 H784 0.950 . S
C792 C793 1.386 . S
C792 C794 1.391 1_565 S
C793 C792 1.386 . S
C793 C797 1.393 1_565 S
C794 H786 0.950 . S
C794 C792 1.391 1_545 S
C794 C795 1.400 . S
C795 C794 1.400 . S
C795 C796 1.398 . S
C795 C801 1.491 . S
C796 H787 0.950 . S
C796 C795 1.398 . S
C796 C797 1.391 . S
C797 H785 0.950 . S
C797 C793 1.393 1_545 S
C797 C796 1.391 . S
C798 H788 0.950 . S
C798 C799 1.386 . S
C798 C800 1.391 . S
C799 C798 1.386 . S
C799 C803 1.393 . S
C800 H789 0.950 . S
C800 C798 1.391 . S
C800 C801 1.400 . S
C801 C795 1.491 . S
C801 C800 1.400 . S
C801 C802 1.398 . S
C802 H790 0.950 . S
C802 C801 1.398 . S
C802 C803 1.391 . S
C803 H791 0.950 . S
C803 C799 1.393 . S
C803 C802 1.391 . S
H804 C812 0.950 . S
H805 C817 0.950 . S
H806 C814 0.950 . S
H807 C816 0.950 . S
H808 C818 0.950 . S
H809 C820 0.950 . S
H810 C822 0.950 . S
H811 C823 0.950 . S
C812 H804 0.950 . S
C812 C813 1.386 . S
C812 C814 1.391 . S
C813 C812 1.386 . S
C813 C817 1.393 . S
C814 H806 0.950 . S
C814 C812 1.391 . S
C814 C815 1.400 . S
C815 C814 1.400 . S
C815 C816 1.398 . S
C815 C821 1.491 . S
C816 H807 0.950 . S
C816 C815 1.398 . S
C816 C817 1.391 . S
C817 H805 0.950 . S
C817 C813 1.393 . S
C817 C816 1.391 . S
C818 H808 0.950 . S
C818 C819 1.386 . S
C818 C820 1.391 . S
C819 C818 1.386 . S
C819 C823 1.393 . S
C820 H809 0.950 . S
C820 C818 1.391 . S
C820 C821 1.400 . S
C821 C815 1.491 . S
C821 C820 1.400 . S
C821 C822 1.398 . S
C822 H810 0.950 . S
C822 C821 1.398 . S
C822 C823 1.391 . S
C823 H811 0.950 . S
C823 C819 1.393 . S
C823 C822 1.391 . S
H824 C832 0.950 . S
H825 C837 0.950 . S
H826 C834 0.950 . S
H827 C836 0.950 . S
H828 C838 0.950 . S
H829 C840 0.950 . S
H830 C842 0.950 . S
H831 C843 0.950 . S
C832 H824 0.950 . S
C832 C833 1.386 . S
C832 C834 1.391 . S
C833 C832 1.386 . S
C833 C837 1.393 . S
C834 H826 0.950 . S
C834 C832 1.391 . S
C834 C835 1.400 . S
C835 C834 1.400 . S
C835 C836 1.398 . S
C835 C841 1.491 . S
C836 H827 0.950 . S
C836 C835 1.398 . S
C836 C837 1.391 . S
C837 H825 0.950 . S
C837 C833 1.393 . S
C837 C836 1.391 . S
C838 H828 0.950 . S
C838 C839 1.386 . S
C838 C840 1.391 . S
C839 C838 1.386 . S
C839 C843 1.393 . S
C840 H829 0.950 . S
C840 C838 1.391 . S
C840 C841 1.400 . S
C841 C835 1.491 . S
C841 C840 1.400 . S
C841 C842 1.398 . S
C842 H830 0.950 . S
C842 C841 1.398 . S
C842 C843 1.391 . S
C843 H831 0.950 . S
C843 C839 1.393 . S
C843 C842 1.391 . S
H844 C852 0.950 . S
H845 C857 0.950 . S
H846 C854 0.950 . S
H847 C856 0.950 . S
H848 C858 0.950 . S
H849 C860 0.950 . S
H850 C862 0.950 . S
H851 C863 0.950 . S
C852 H844 0.950 . S
C852 C853 1.386 . S
C852 C854 1.391 . S
C853 C852 1.386 . S
C853 C857 1.393 . S
C854 H846 0.950 . S
C854 C852 1.391 . S
C854 C855 1.400 . S
C855 C854 1.400 . S
C855 C856 1.398 . S
C855 C861 1.491 . S
C856 H847 0.950 . S
C856 C855 1.398 . S
C856 C857 1.391 . S
C857 H845 0.950 . S
C857 C853 1.393 . S
C857 C856 1.391 . S
C858 H848 0.950 . S
C858 C859 1.386 . S
C858 C860 1.391 . S
C859 C858 1.386 . S
C859 C863 1.393 . S
C860 H849 0.950 . S
C860 C858 1.391 . S
C860 C861 1.400 . S
C861 C855 1.491 . S
C861 C860 1.400 . S
C861 C862 1.398 . S
C862 H850 0.950 . S
C862 C861 1.398 . S
C862 C863 1.391 . S
C863 H851 0.950 . S
C863 C859 1.393 . S
C863 C862 1.391 . S
H864 C872 0.950 . S
H865 C877 0.950 . S
H866 C874 0.950 . S
H867 C876 0.950 . S
H868 C878 0.950 . S
H869 C880 0.950 . S
H870 C882 0.950 . S
H871 C883 0.950 . S
C872 H864 0.950 . S
C872 C873 1.386 . S
C872 C874 1.391 . S
C873 C872 1.386 . S
C873 C877 1.393 . S
C874 H866 0.950 . S
C874 C872 1.391 . S
C874 C875 1.400 . S
C875 C874 1.400 . S
C875 C876 1.398 . S
C875 C881 1.491 . S
C876 H867 0.950 . S
C876 C875 1.398 . S
C876 C877 1.391 . S
C877 H865 0.950 . S
C877 C873 1.393 . S
C877 C876 1.391 . S
C878 H868 0.950 . S
C878 C879 1.386 . S
C878 C880 1.391 . S
C879 C878 1.386 . S
C879 C883 1.393 . S
C880 H869 0.950 . S
C880 C878 1.391 . S
C880 C881 1.400 . S
C881 C875 1.491 . S
C881 C880 1.400 . S
C881 C882 1.398 . S
C882 H870 0.950 . S
C882 C881 1.398 . S
C882 C883 1.391 . S
C883 H871 0.950 . S
C883 C879 1.393 . S
C883 C882 1.391 . S
H884 C892 0.950 . S
H885 C897 0.950 . S
H886 C894 0.950 . S
H887 C896 0.950 . S
H888 C898 0.950 . S
H889 C900 0.950 . S
H890 C902 0.950 . S
H891 C903 0.950 . S
C892 H884 0.950 . S
C892 C893 1.386 . S
C892 C894 1.391 . S
C893 C892 1.386 . S
C893 C897 1.393 . S
C894 H886 0.950 . S
C894 C892 1.391 . S
C894 C895 1.400 . S
C895 C894 1.400 . S
C895 C896 1.398 . S
C895 C901 1.491 . S
C896 H887 0.950 . S
C896 C895 1.398 . S
C896 C897 1.391 . S
C897 H885 0.950 . S
C897 C893 1.393 . S
C897 C896 1.391 . S
C898 H888 0.950 . S
C898 C899 1.386 . S
C898 C900 1.391 . S
C899 C898 1.386 . S
C899 C903 1.393 . S
C900 H889 0.950 . S
C900 C898 1.391 . S
C900 C901 1.400 . S
C901 C895 1.491 . S
C901 C900 1.400 . S
C901 C902 1.398 . S
C902 H890 0.950 . S
C902 C901 1.398 . S
C902 C903 1.391 . S
C903 H891 0.950 . S
C903 C899 1.393 . S
C903 C902 1.391 . S
H904 C912 0.950 . S
H905 C917 0.950 . S
H906 C914 0.950 . S
H907 C916 0.950 . S
H908 C918 0.950 . S
H909 C920 0.950 . S
H910 C922 0.950 . S
H911 C923 0.950 . S
C912 H904 0.950 . S
C912 C913 1.386 . S
C912 C914 1.391 . S
C913 C912 1.386 . S
C913 C917 1.393 . S
C914 H906 0.950 . S
C914 C912 1.391 . S
C914 C915 1.400 . S
C915 C914 1.400 . S
C915 C916 1.398 . S
C915 C921 1.491 . S
C916 H907 0.950 . S
C916 C915 1.398 . S
C916 C917 1.391 . S
C917 H905 0.950 . S
C917 C913 1.393 . S
C917 C916 1.391 . S
C918 H908 0.950 . S
C918 C919 1.386 . S
C918 C920 1.391 . S
C919 C918 1.386 . S
C919 C923 1.393 . S
C920 H909 0.950 . S
C920 C918 1.391 . S
C920 C921 1.400 . S
C921 C915 1.491 . S
C921 C920 1.400 . S
C921 C922 1.398 . S
C922 H910 0.950 . S
C922 C921 1.398 . S
C922 C923 1.391 . S
C923 H911 0.950 . S
C923 C919 1.393 . S
C923 C922 1.391 . S
H924 C932 0.950 . S
H925 C937 0.950 . S
H926 C934 0.950 . S
H927 C936 0.950 . S
H928 C938 0.950 . S
H929 C940 0.950 . S
H930 C942 0.950 . S
H931 C943 0.950 . S
C932 H924 0.950 . S
C932 C933 1.386 . S
C932 C934 1.391 . S
C933 C932 1.386 . S
C933 C937 1.393 . S
C934 H926 0.950 . S
C934 C932 1.391 . S
C934 C935 1.400 . S
C935 C934 1.400 . S
C935 C936 1.398 . S
C935 C941 1.491 . S
C936 H927 0.950 . S
C936 C935 1.398 . S
C936 C937 1.391 . S
C937 H925 0.950 . S
C937 C933 1.393 . S
C937 C936 1.391 . S
C938 H928 0.950 . S
C938 C939 1.386 . S
C938 C940 1.391 . S
C939 C938 1.386 . S
C939 C943 1.393 . S
C940 H929 0.950 . S
C940 C938 1.391 . S
C940 C941 1.400 . S
C941 C935 1.491 . S
C941 C940 1.400 . S
C941 C942 1.398 . S
C942 H930 0.950 . S
C942 C941 1.398 . S
C942 C943 1.391 . S
C943 H931 0.950 . S
C943 C939 1.393 . S
C943 C942 1.391 . S
H944 C952 0.950 . S
H945 C957 0.950 . S
H946 C954 0.950 . S
H947 C956 0.950 . S
H948 C958 0.950 . S
H949 C960 0.950 . S
H950 C962 0.950 . S
H951 C963 0.950 . S
C952 H944 0.950 . S
C952 C953 1.386 . S
C952 C954 1.391 . S
C953 C952 1.386 . S
C953 C957 1.393 . S
C954 H946 0.950 . S
C954 C952 1.391 . S
C954 C955 1.400 . S
C955 C954 1.400 . S
C955 C956 1.398 . S
C955 C961 1.491 . S
C956 H947 0.950 . S
C956 C955 1.398 . S
C956 C957 1.391 . S
C957 H945 0.950 . S
C957 C953 1.393 . S
C957 C956 1.391 . S
C958 H948 0.950 . S
C958 C959 1.386 . S
C958 C960 1.391 . S
C959 C958 1.386 . S
C959 C963 1.393 . S
C960 H949 0.950 . S
C960 C958 1.391 . S
C960 C961 1.400 . S
C961 C955 1.491 . S
C961 C960 1.400 . S
C961 C962 1.398 . S
C962 H950 0.950 . S
C962 C961 1.398 . S
C962 C963 1.391 . S
C963 H951 0.950 . S
C963 C959 1.393 . S
C963 C962 1.391 . S
H964 C972 0.950 . S
H965 C977 0.950 . S
H966 C974 0.950 . S
H967 C976 0.950 1_455 S
H968 C978 0.950 . S
H969 C980 0.950 . S
H970 C982 0.950 1_655 S
H971 C983 0.950 . S
C972 H964 0.950 . S
C972 C973 1.386 . S
C972 C974 1.391 . S
C973 C972 1.386 . S
C973 C977 1.393 . S
C974 H966 0.950 . S
C974 C972 1.391 . S
C974 C975 1.400 . S
C975 C974 1.400 . S
C975 C976 1.398 . S
C975 C981 1.491 1_655 S
C976 H967 0.950 1_655 S
C976 C975 1.398 . S
C976 C977 1.391 . S
C977 H965 0.950 . S
C977 C973 1.393 . S
C977 C976 1.391 . S
C978 H968 0.950 . S
C978 C979 1.386 . S
C978 C980 1.391 . S
C979 C978 1.386 . S
C979 C983 1.393 . S
C980 H969 0.950 . S
C980 C978 1.391 . S
C980 C981 1.400 . S
C981 C975 1.491 1_455 S
C981 C980 1.400 . S
C981 C982 1.398 . S
C982 H970 0.950 1_455 S
C982 C981 1.398 . S
C982 C983 1.391 . S
C983 H971 0.950 . S
C983 C979 1.393 . S
C983 C982 1.391 . S
H984 C992 0.950 . S
H985 C997 0.950 . S
H986 C994 0.950 . S
H987 C996 0.950 . S
H988 C998 0.950 . S
H989 C1000 0.950 . S
H990 C1002 0.950 . S
H991 C1003 0.950 . S
C992 H984 0.950 . S
C992 C993 1.386 . S
C992 C994 1.391 . S
C993 C992 1.386 . S
C993 C997 1.393 . S
C994 H986 0.950 . S
C994 C992 1.391 . S
C994 C995 1.400 . S
C995 C994 1.400 . S
C995 C996 1.398 . S
C995 C1001 1.491 . S
C996 H987 0.950 . S
C996 C995 1.398 . S
C996 C997 1.391 . S
C997 H985 0.950 . S
C997 C993 1.393 . S
C997 C996 1.391 . S
C998 H988 0.950 . S
C998 C999 1.386 . S
C998 C1000 1.391 . S
C999 C998 1.386 . S
C999 C1003 1.393 . S
C1000 H989 0.950 . S
C1000 C998 1.391 . S
C1000 C1001 1.400 . S
C1001 C995 1.491 . S
C1001 C1000 1.400 . S
C1001 C1002 1.398 . S
C1002 H990 0.950 . S
C1002 C1001 1.398 . S
C1002 C1003 1.391 . S
C1003 H991 0.950 . S
C1003 C999 1.393 . S
C1003 C1002 1.391 . S
H1004 C1012 0.950 . S
H1005 C1017 0.950 . S
H1006 C1014 0.950 1_556 S
H1007 C1016 0.950 . S
H1008 C1018 0.950 1_455 S
H1009 C1020 0.950 . S
H1010 C1022 0.950 . S
H1011 C1023 0.950 . S
C1012 H1004 0.950 . S
C1012 C1013 1.386 . S
C1012 C1014 1.391 . S
C1013 C1012 1.386 . S
C1013 C1017 1.393 . S
C1014 H1006 0.950 1_554 S
C1014 C1012 1.391 . S
C1014 C1015 1.400 . S
C1015 C1014 1.400 . S
C1015 C1016 1.398 . S
C1015 C1021 1.491 1_554 S
C1016 H1007 0.950 . S
C1016 C1015 1.398 . S
C1016 C1017 1.391 . S
C1017 H1005 0.950 . S
C1017 C1013 1.393 . S
C1017 C1016 1.391 . S
C1018 H1008 0.950 1_655 S
C1018 C1019 1.386 . S
C1018 C1020 1.391 . S
C1019 C1018 1.386 . S
C1019 C1023 1.393 . S
C1020 H1009 0.950 . S
C1020 C1018 1.391 . S
C1020 C1021 1.400 . S
C1021 C1015 1.491 1_556 S
C1021 C1020 1.400 . S
C1021 C1022 1.398 . S
C1022 H1010 0.950 . S
C1022 C1021 1.398 . S
C1022 C1023 1.391 . S
C1023 H1011 0.950 . S
C1023 C1019 1.393 . S
C1023 C1022 1.391 . S
H1024 C1032 0.950 . S
H1025 C1037 0.950 . S
H1026 C1034 0.950 . S
H1027 C1036 0.950 . S
H1028 C1038 0.950 . S
H1029 C1040 0.950 . S
H1030 C1042 0.950 . S
H1031 C1043 0.950 . S
C1032 H1024 0.950 . S
C1032 C1033 1.386 . S
C1032 C1034 1.391 . S
C1033 C1032 1.386 . S
C1033 C1037 1.393 . S
C1034 H1026 0.950 . S
C1034 C1032 1.391 . S
C1034 C1035 1.400 . S
C1035 C1034 1.400 . S
C1035 C1036 1.398 . S
C1035 C1041 1.491 . S
C1036 H1027 0.950 . S
C1036 C1035 1.398 . S
C1036 C1037 1.391 . S
C1037 H1025 0.950 . S
C1037 C1033 1.393 . S
C1037 C1036 1.391 . S
C1038 H1028 0.950 . S
C1038 C1039 1.386 . S
C1038 C1040 1.391 . S
C1039 C1038 1.386 . S
C1039 C1043 1.393 . S
C1040 H1029 0.950 . S
C1040 C1038 1.391 . S
C1040 C1041 1.400 . S
C1041 C1035 1.491 . S
C1041 C1040 1.400 . S
C1041 C1042 1.398 . S
C1042 H1030 0.950 . S
C1042 C1041 1.398 . S
C1042 C1043 1.391 . S
C1043 H1031 0.950 . S
C1043 C1039 1.393 . S
C1043 C1042 1.391 . S
H1044 C1052 0.950 . S
H1045 C1057 0.950 . S
H1046 C1054 0.950 . S
H1047 C1056 0.950 . S
H1048 C1058 0.950 . S
H1049 C1060 0.950 . S
H1050 C1062 0.950 . S
H1051 C1063 0.950 . S
C1052 H1044 0.950 . S
C1052 C1053 1.386 . S
C1052 C1054 1.391 . S
C1053 C1052 1.386 . S
C1053 C1057 1.393 . S
C1054 H1046 0.950 . S
C1054 C1052 1.391 . S
C1054 C1055 1.400 . S
C1055 C1054 1.400 . S
C1055 C1056 1.398 . S
C1055 C1061 1.491 . S
C1056 H1047 0.950 . S
C1056 C1055 1.398 . S
C1056 C1057 1.391 . S
C1057 H1045 0.950 . S
C1057 C1053 1.393 . S
C1057 C1056 1.391 . S
C1058 H1048 0.950 . S
C1058 C1059 1.386 . S
C1058 C1060 1.391 . S
C1059 C1058 1.386 . S
C1059 C1063 1.393 . S
C1060 H1049 0.950 . S
C1060 C1058 1.391 . S
C1060 C1061 1.400 1_556 S
C1061 C1055 1.491 . S
C1061 C1060 1.400 1_554 S
C1061 C1062 1.398 . S
C1062 H1050 0.950 . S
C1062 C1061 1.398 . S
C1062 C1063 1.391 1_554 S
C1063 H1051 0.950 . S
C1063 C1059 1.393 . S
C1063 C1062 1.391 1_556 S
H1064 C1072 0.950 . S
H1065 C1077 0.950 . S
H1066 C1074 0.950 . S
H1067 C1076 0.950 . S
H1068 C1078 0.950 . S
H1069 C1080 0.950 . S
H1070 C1082 0.950 . S
H1071 C1083 0.950 . S
C1072 H1064 0.950 . S
C1072 C1073 1.386 . S
C1072 C1074 1.391 . S
C1073 C1072 1.386 . S
C1073 C1077 1.393 . S
C1074 H1066 0.950 . S
C1074 C1072 1.391 . S
C1074 C1075 1.400 . S
C1075 C1074 1.400 . S
C1075 C1076 1.398 . S
C1075 C1081 1.491 . S
C1076 H1067 0.950 . S
C1076 C1075 1.398 . S
C1076 C1077 1.391 . S
C1077 H1065 0.950 . S
C1077 C1073 1.393 . S
C1077 C1076 1.391 . S
C1078 H1068 0.950 . S
C1078 C1079 1.386 . S
C1078 C1080 1.391 . S
C1079 C1078 1.386 . S
C1079 C1083 1.393 . S
C1080 H1069 0.950 . S
C1080 C1078 1.391 . S
C1080 C1081 1.400 . S
C1081 C1075 1.491 . S
C1081 C1080 1.400 . S
C1081 C1082 1.398 . S
C1082 H1070 0.950 . S
C1082 C1081 1.398 . S
C1082 C1083 1.391 . S
C1083 H1071 0.950 . S
C1083 C1079 1.393 . S
C1083 C1082 1.391 . S
H1084 C1092 0.950 . S
H1085 C1097 0.950 . S
H1086 C1094 0.950 . S
H1087 C1096 0.950 . S
H1088 C1098 0.950 . S
H1089 C1100 0.950 . S
H1090 C1102 0.950 . S
H1091 C1103 0.950 . S
C1092 H1084 0.950 . S
C1092 C1093 1.386 1_554 S
C1092 C1094 1.391 . S
C1093 C1092 1.386 1_556 S
C1093 C1097 1.393 . S
C1094 H1086 0.950 . S
C1094 C1092 1.391 . S
C1094 C1095 1.400 . S
C1095 C1094 1.400 . S
C1095 C1096 1.398 1_554 S
C1095 C1101 1.491 . S
C1096 H1087 0.950 . S
C1096 C1095 1.398 1_556 S
C1096 C1097 1.391 . S
C1097 H1085 0.950 . S
C1097 C1093 1.393 . S
C1097 C1096 1.391 . S
C1098 H1088 0.950 . S
C1098 C1099 1.386 . S
C1098 C1100 1.391 . S
C1099 C1098 1.386 . S
C1099 C1103 1.393 . S
C1100 H1089 0.950 . S
C1100 C1098 1.391 . S
C1100 C1101 1.400 . S
C1101 C1095 1.491 . S
C1101 C1100 1.400 . S
C1101 C1102 1.398 . S
C1102 H1090 0.950 . S
C1102 C1101 1.398 . S
C1102 C1103 1.391 . S
C1103 H1091 0.950 . S
C1103 C1099 1.393 . S
C1103 C1102 1.391 . S
H1104 C1112 0.950 . S
H1105 C1117 0.950 . S
H1106 C1114 0.950 . S
H1107 C1116 0.950 . S
H1108 C1118 0.950 . S
H1109 C1120 0.950 . S
H1110 C1122 0.950 . S
H1111 C1123 0.950 . S
C1112 H1104 0.950 . S
C1112 C1113 1.386 . S
C1112 C1114 1.391 . S
C1113 C1112 1.386 . S
C1113 C1117 1.393 . S
C1114 H1106 0.950 . S
C1114 C1112 1.391 . S
C1114 C1115 1.400 . S
C1115 C1114 1.400 . S
C1115 C1116 1.398 . S
C1115 C1121 1.491 . S
C1116 H1107 0.950 . S
C1116 C1115 1.398 . S
C1116 C1117 1.391 . S
C1117 H1105 0.950 . S
C1117 C1113 1.393 . S
C1117 C1116 1.391 . S
C1118 H1108 0.950 . S
C1118 C1119 1.386 . S
C1118 C1120 1.391 . S
C1119 C1118 1.386 . S
C1119 C1123 1.393 . S
C1120 H1109 0.950 . S
C1120 C1118 1.391 . S
C1120 C1121 1.400 . S
C1121 C1115 1.491 . S
C1121 C1120 1.400 . S
C1121 C1122 1.398 . S
C1122 H1110 0.950 . S
C1122 C1121 1.398 . S
C1122 C1123 1.391 . S
C1123 H1111 0.950 . S
C1123 C1119 1.393 . S
C1123 C1122 1.391 . S
H1124 C1132 0.950 . S
H1125 C1137 0.950 . S
H1126 C1134 0.950 . S
H1127 C1136 0.950 . S
H1128 C1138 0.950 . S
H1129 C1140 0.950 . S
H1130 C1142 0.950 . S
H1131 C1143 0.950 . S
C1132 H1124 0.950 . S
C1132 C1133 1.386 . S
C1132 C1134 1.391 1_556 S
C1133 C1132 1.386 . S
C1133 C1137 1.393 . S
C1134 H1126 0.950 . S
C1134 C1132 1.391 1_554 S
C1134 C1135 1.400 . S
C1135 C1134 1.400 . S
C1135 C1136 1.398 . S
C1135 C1141 1.491 . S
C1136 H1127 0.950 . S
C1136 C1135 1.398 . S
C1136 C1137 1.391 1_554 S
C1137 H1125 0.950 . S
C1137 C1133 1.393 . S
C1137 C1136 1.391 1_556 S
C1138 H1128 0.950 . S
C1138 C1139 1.386 . S
C1138 C1140 1.391 . S
C1139 C1138 1.386 . S
C1139 C1143 1.393 . S
C1140 H1129 0.950 . S
C1140 C1138 1.391 . S
C1140 C1141 1.400 . S
C1141 C1135 1.491 . S
C1141 C1140 1.400 . S
C1141 C1142 1.398 . S
C1142 H1130 0.950 . S
C1142 C1141 1.398 . S
C1142 C1143 1.391 . S
C1143 H1131 0.950 . S
C1143 C1139 1.393 . S
C1143 C1142 1.391 . S
H1144 C1152 0.950 . S
H1145 C1157 0.950 . S
H1146 C1154 0.950 . S
H1147 C1156 0.950 . S
H1148 C1158 0.950 . S
H1149 C1160 0.950 . S
H1150 C1162 0.950 . S
H1151 C1163 0.950 . S
C1152 H1144 0.950 . S
C1152 C1153 1.386 . S
C1152 C1154 1.391 . S
C1153 C1152 1.386 . S
C1153 C1157 1.393 . S
C1154 H1146 0.950 . S
C1154 C1152 1.391 . S
C1154 C1155 1.400 . S
C1155 C1154 1.400 . S
C1155 C1156 1.398 . S
C1155 C1161 1.491 . S
C1156 H1147 0.950 . S
C1156 C1155 1.398 . S
C1156 C1157 1.391 . S
C1157 H1145 0.950 . S
C1157 C1153 1.393 . S
C1157 C1156 1.391 . S
C1158 H1148 0.950 . S
C1158 C1159 1.386 . S
C1158 C1160 1.391 . S
C1159 C1158 1.386 . S
C1159 C1163 1.393 . S
C1160 H1149 0.950 . S
C1160 C1158 1.391 . S
C1160 C1161 1.400 . S
C1161 C1155 1.491 . S
C1161 C1160 1.400 . S
C1161 C1162 1.398 . S
C1162 H1150 0.950 . S
C1162 C1161 1.398 . S
C1162 C1163 1.391 . S
C1163 H1151 0.950 . S
C1163 C1159 1.393 . S
C1163 C1162 1.391 . S
H1164 C1172 0.950 . S
H1165 C1177 0.950 . S
H1166 C1174 0.950 . S
H1167 C1176 0.950 . S
H1168 C1178 0.950 . S
H1169 C1180 0.950 . S
H1170 C1182 0.950 . S
H1171 C1183 0.950 . S
C1172 H1164 0.950 . S
C1172 C1173 1.386 . S
C1172 C1174 1.391 . S
C1173 C1172 1.386 . S
C1173 C1177 1.393 . S
C1174 H1166 0.950 . S
C1174 C1172 1.391 . S
C1174 C1175 1.400 . S
C1175 C1174 1.400 . S
C1175 C1176 1.398 . S
C1175 C1181 1.491 . S
C1176 H1167 0.950 . S
C1176 C1175 1.398 . S
C1176 C1177 1.391 . S
C1177 H1165 0.950 . S
C1177 C1173 1.393 . S
C1177 C1176 1.391 . S
C1178 H1168 0.950 . S
C1178 C1179 1.386 . S
C1178 C1180 1.391 . S
C1179 C1178 1.386 . S
C1179 C1183 1.393 . S
C1180 H1169 0.950 . S
C1180 C1178 1.391 . S
C1180 C1181 1.400 . S
C1181 C1175 1.491 . S
C1181 C1180 1.400 . S
C1181 C1182 1.398 . S
C1182 H1170 0.950 . S
C1182 C1181 1.398 . S
C1182 C1183 1.391 . S
C1183 H1171 0.950 . S
C1183 C1179 1.393 . S
C1183 C1182 1.391 . S
H1184 C1192 0.950 . S
H1185 C1197 0.950 . S
H1186 C1194 0.950 . S
H1187 C1196 0.950 . S
H1188 C1198 0.950 . S
H1189 C1200 0.950 . S
H1190 C1202 0.950 . S
H1191 C1203 0.950 . S
C1192 H1184 0.950 . S
C1192 C1193 1.386 . S
C1192 C1194 1.391 . S
C1193 C1192 1.386 . S
C1193 C1197 1.393 . S
C1194 H1186 0.950 . S
C1194 C1192 1.391 . S
C1194 C1195 1.400 . S
C1195 C1194 1.400 . S
C1195 C1196 1.398 . S
C1195 C1201 1.491 . S
C1196 H1187 0.950 . S
C1196 C1195 1.398 . S
C1196 C1197 1.391 . S
C1197 H1185 0.950 . S
C1197 C1193 1.393 . S
C1197 C1196 1.391 . S
C1198 H1188 0.950 . S
C1198 C1199 1.386 . S
C1198 C1200 1.391 . S
C1199 C1198 1.386 . S
C1199 C1203 1.393 . S
C1200 H1189 0.950 . S
C1200 C1198 1.391 . S
C1200 C1201 1.400 . S
C1201 C1195 1.491 . S
C1201 C1200 1.400 . S
C1201 C1202 1.398 . S
C1202 H1190 0.950 . S
C1202 C1201 1.398 . S
C1202 C1203 1.391 . S
C1203 H1191 0.950 . S
C1203 C1199 1.393 . S
C1203 C1202 1.391 . S
H1204 C1212 0.950 . S
H1205 C1217 0.950 . S
H1206 C1214 0.950 . S
H1207 C1216 0.950 . S
H1208 C1218 0.950 . S
H1209 C1220 0.950 . S
H1210 C1222 0.950 . S
H1211 C1223 0.950 . S
C1212 H1204 0.950 . S
C1212 C1213 1.386 . S
C1212 C1214 1.391 . S
C1213 C1212 1.386 . S
C1213 C1217 1.393 . S
C1214 H1206 0.950 . S
C1214 C1212 1.391 . S
C1214 C1215 1.400 . S
C1215 C1214 1.400 . S
C1215 C1216 1.398 . S
C1215 C1221 1.491 . S
C1216 H1207 0.950 . S
C1216 C1215 1.398 . S
C1216 C1217 1.391 . S
C1217 H1205 0.950 . S
C1217 C1213 1.393 . S
C1217 C1216 1.391 . S
C1218 H1208 0.950 . S
C1218 C1219 1.386 . S
C1218 C1220 1.391 . S
C1219 C1218 1.386 . S
C1219 C1223 1.393 . S
C1220 H1209 0.950 . S
C1220 C1218 1.391 . S
C1220 C1221 1.400 . S
C1221 C1215 1.491 . S
C1221 C1220 1.400 . S
C1221 C1222 1.398 . S
C1222 H1210 0.950 . S
C1222 C1221 1.398 . S
C1222 C1223 1.391 . S
C1223 H1211 0.950 . S
C1223 C1219 1.393 . S
C1223 C1222 1.391 . S
H1224 C1232 0.950 . S
H1225 C1237 0.950 . S
H1226 C1234 0.950 . S
H1227 C1236 0.950 . S
H1228 C1238 0.950 . S
H1229 C1240 0.950 . S
H1230 C1242 0.950 . S
H1231 C1243 0.950 . S
C1232 H1224 0.950 . S
C1232 C1233 1.386 . S
C1232 C1234 1.391 . S
C1233 C1232 1.386 . S
C1233 C1237 1.393 . S
C1234 H1226 0.950 . S
C1234 C1232 1.391 . S
C1234 C1235 1.400 . S
C1235 C1234 1.400 . S
C1235 C1236 1.398 . S
C1235 C1241 1.491 . S
C1236 H1227 0.950 . S
C1236 C1235 1.398 . S
C1236 C1237 1.391 . S
C1237 H1225 0.950 . S
C1237 C1233 1.393 . S
C1237 C1236 1.391 . S
C1238 H1228 0.950 . S
C1238 C1239 1.386 . S
C1238 C1240 1.391 . S
C1239 C1238 1.386 . S
C1239 C1243 1.393 . S
C1240 H1229 0.950 . S
C1240 C1238 1.391 . S
C1240 C1241 1.400 . S
C1241 C1235 1.491 . S
C1241 C1240 1.400 . S
C1241 C1242 1.398 . S
C1242 H1230 0.950 . S
C1242 C1241 1.398 . S
C1242 C1243 1.391 . S
C1243 H1231 0.950 . S
C1243 C1239 1.393 . S
C1243 C1242 1.391 . S
H1244 C1252 0.950 . S
H1245 C1257 0.950 . S
H1246 C1254 0.950 . S
H1247 C1256 0.950 . S
H1248 C1258 0.950 . S
H1249 C1260 0.950 . S
H1250 C1262 0.950 . S
H1251 C1263 0.950 . S
C1252 H1244 0.950 . S
C1252 C1253 1.386 . S
C1252 C1254 1.391 . S
C1253 C1252 1.386 . S
C1253 C1257 1.393 . S
C1254 H1246 0.950 . S
C1254 C1252 1.391 . S
C1254 C1255 1.400 . S
C1255 C1254 1.400 . S
C1255 C1256 1.398 . S
C1255 C1261 1.491 . S
C1256 H1247 0.950 . S
C1256 C1255 1.398 . S
C1256 C1257 1.391 . S
C1257 H1245 0.950 . S
C1257 C1253 1.393 . S
C1257 C1256 1.391 . S
C1258 H1248 0.950 . S
C1258 C1259 1.386 . S
C1258 C1260 1.391 . S
C1259 C1258 1.386 . S
C1259 C1263 1.393 . S
C1260 H1249 0.950 . S
C1260 C1258 1.391 . S
C1260 C1261 1.400 . S
C1261 C1255 1.491 . S
C1261 C1260 1.400 . S
C1261 C1262 1.398 . S
C1262 H1250 0.950 . S
C1262 C1261 1.398 . S
C1262 C1263 1.391 . S
C1263 H1251 0.950 . S
C1263 C1259 1.393 . S
C1263 C1262 1.391 . S
H1264 C1272 0.950 . S
H1265 C1277 0.950 . S
H1266 C1274 0.950 . S
H1267 C1276 0.950 . S
H1268 C1278 0.950 . S
H1269 C1280 0.950 . S
H1270 C1282 0.950 . S
H1271 C1283 0.950 . S
C1272 H1264 0.950 . S
C1272 C1273 1.386 . S
C1272 C1274 1.391 . S
C1273 C1272 1.386 . S
C1273 C1277 1.393 . S
C1274 H1266 0.950 . S
C1274 C1272 1.391 . S
C1274 C1275 1.400 . S
C1275 C1274 1.400 . S
C1275 C1276 1.398 . S
C1275 C1281 1.491 . S
C1276 H1267 0.950 . S
C1276 C1275 1.398 . S
C1276 C1277 1.391 . S
C1277 H1265 0.950 . S
C1277 C1273 1.393 . S
C1277 C1276 1.391 . S
C1278 H1268 0.950 . S
C1278 C1279 1.386 . S
C1278 C1280 1.391 . S
C1279 C1278 1.386 . S
C1279 C1283 1.393 . S
C1280 H1269 0.950 . S
C1280 C1278 1.391 . S
C1280 C1281 1.400 . S
C1281 C1275 1.491 . S
C1281 C1280 1.400 . S
C1281 C1282 1.398 . S
C1282 H1270 0.950 . S
C1282 C1281 1.398 . S
C1282 C1283 1.391 . S
C1283 H1271 0.950 . S
C1283 C1279 1.393 . S
C1283 C1282 1.391 . S
H1284 C1292 0.950 . S
H1285 C1297 0.950 . S
H1286 C1294 0.950 . S
H1287 C1296 0.950 . S
H1288 C1298 0.950 . S
H1289 C1300 0.950 . S
H1290 C1302 0.950 . S
H1291 C1303 0.950 . S
C1292 H1284 0.950 . S
C1292 C1293 1.386 . S
C1292 C1294 1.391 . S
C1293 C1292 1.386 . S
C1293 C1297 1.393 . S
C1294 H1286 0.950 . S
C1294 C1292 1.391 . S
C1294 C1295 1.400 . S
C1295 C1294 1.400 . S
C1295 C1296 1.398 . S
C1295 C1301 1.491 . S
C1296 H1287 0.950 . S
C1296 C1295 1.398 . S
C1296 C1297 1.391 . S
C1297 H1285 0.950 . S
C1297 C1293 1.393 . S
C1297 C1296 1.391 . S
C1298 H1288 0.950 . S
C1298 C1299 1.386 . S
C1298 C1300 1.391 . S
C1299 C1298 1.386 . S
C1299 C1303 1.393 . S
C1300 H1289 0.950 . S
C1300 C1298 1.391 . S
C1300 C1301 1.400 . S
C1301 C1295 1.491 . S
C1301 C1300 1.400 . S
C1301 C1302 1.398 . S
C1302 H1290 0.950 . S
C1302 C1301 1.398 . S
C1302 C1303 1.391 . S
C1303 H1291 0.950 . S
C1303 C1299 1.393 . S
C1303 C1302 1.391 . S
C359 C184 1.740 . S
C353 C60 1.737 . S
C379 C199 1.561 . S
C373 C76 1.577 . S
C393 C81 1.819 . S
C399 C212 1.811 . S
C419 C226 1.538 . S
C413 C48 1.556 . S
C439 C238 1.665 . S
C433 C115 1.765 . S
C459 C252 1.378 . S
C453 C136 1.404 . S
C473 C131 1.567 . S
C479 C266 1.547 . S
C499 C281 1.387 . S
C493 C104 1.393 . S
C513 C126 1.614 . S
C519 C297 1.585 . S
C539 C310 1.391 . S
C533 C103 1.376 . S
C553 C120 1.532 . S
C559 C295 1.482 . S
C579 C308 1.533 . S
C573 C142 1.521 . S
C593 C82 1.867 . S
C599 C324 1.856 . S
C613 C54 1.781 . S
C619 C323 1.751 . S
C633 C65 1.640 . S
C639 C322 1.596 . S
C653 C71 1.296 . S
C659 C325 1.302 . S
C673 C37 1.727 . S
C679 C227 1.724 . S
C693 C158 1.829 . S
C699 C225 1.810 . S
C719 C185 1.399 . S
C713 C169 1.415 . S
C739 C196 1.513 . S
C733 C98 1.547 . S
C753 C49 1.703 . S
C759 C241 1.701 . S
C779 C282 1.881 . S
C773 C125 1.886 . S
C799 C239 1.493 . S
C793 C109 1.498 . S
C819 C267 1.666 . S
C813 C137 1.698 . S
C839 C268 1.740 . S
C833 C159 1.741 . S
C853 C175 1.570 . S
C859 C283 1.553 . S
C873 C92 1.821 . S
C879 C240 1.802 . S
C899 C254 1.548 . S
C893 C147 1.571 . S
C913 C38 1.770 . S
C919 C210 1.676 . S
C939 C224 1.389 1_455 S
C933 C4 1.396 . S
C959 C182 1.541 . S
C953 C21 1.568 . S
C979 C197 1.373 . S
C973 C27 1.398 . S
C993 C16 1.622 . S
C999 C311 1.593 . S
C1013 C26 1.364 . S
C1019 C296 1.374 . S
C1033 C43 1.530 . S
C1039 C309 1.479 . S
C1053 C10 1.518 . S
C1059 C294 1.528 . S
C1079 C338 1.860 . S
C1073 C93 1.865 . S
C1099 C337 1.765 . S
C1093 C153 1.790 . S
C1119 C336 1.593 . S
C1113 C164 1.637 . S
C1133 C170 1.323 . S
C1139 C339 1.327 . S
C1153 C114 1.736 . S
C1159 C255 1.731 . S
C1179 C253 1.810 . S
C1173 C59 1.833 . S
C1199 C269 1.396 . S
C1193 C70 1.413 . S
C1219 C280 1.502 . S
C1213 C87 1.544 . S
C1233 C148 1.693 . S
C1239 C213 1.694 . S
C1259 C198 1.884 . S
C1253 C15 1.881 . S
C1273 C32 1.492 . S
C1279 C211 1.485 . S
C1299 C183 1.650 1_545 S
C1293 C5 1.692 . S
