# Generated by pormake.
# Topology ssa, (4,4)-cn, num edge types: 1
# Building blocks:
#     Node 0, Type 0, BuildingBlock: ESEHIV_clean_sbu_0, # of connection points: 4
#     Node 1, Type 0, BuildingBlock: ESEHIV_clean_sbu_0, # of connection points: 4
#     Node 2, Type 0, BuildingBlock: ESEHIV_clean_sbu_0, # of connection points: 4
#     Node 3, Type 0, BuildingBlock: ESEHIV_clean_sbu_0, # of connection points: 4
#     Node 4, Type 0, BuildingBlock: ESEHIV_clean_sbu_0, # of connection points: 4
#     Node 5, Type 0, BuildingBlock: ESEHIV_clean_sbu_0, # of connection points: 4
#     Node 6, Type 1, BuildingBlock: NAHDIM_clean_linker_0, # of connection points: 4
#     Node 7, Type 1, BuildingBlock: NAHDIM_clean_linker_0, # of connection points: 4
#     Node 8, Type 1, BuildingBlock: NAHDIM_clean_linker_0, # of connection points: 4
#     Node 9, Type 1, BuildingBlock: NAHDIM_clean_linker_0, # of connection points: 4
#     Node 10, Type 1, BuildingBlock: NAHDIM_clean_linker_0, # of connection points: 4
#     Node 11, Type 1, BuildingBlock: NAHDIM_clean_linker_0, # of connection points: 4
#     Edge 12, Type (0, 1), BuildingBlock: EZIPEK_clean_linker_0, # of connection points: 2
#     Edge 13, Type (0, 1), BuildingBlock: EZIPEK_clean_linker_0, # of connection points: 2
#     Edge 14, Type (0, 1), BuildingBlock: EZIPEK_clean_linker_0, # of connection points: 2
#     Edge 15, Type (0, 1), BuildingBlock: EZIPEK_clean_linker_0, # of connection points: 2
#     Edge 16, Type (0, 1), BuildingBlock: EZIPEK_clean_linker_0, # of connection points: 2
#     Edge 17, Type (0, 1), BuildingBlock: EZIPEK_clean_linker_0, # of connection points: 2
#     Edge 18, Type (0, 1), BuildingBlock: EZIPEK_clean_linker_0, # of connection points: 2
#     Edge 19, Type (0, 1), BuildingBlock: EZIPEK_clean_linker_0, # of connection points: 2
#     Edge 20, Type (0, 1), BuildingBlock: EZIPEK_clean_linker_0, # of connection points: 2
#     Edge 21, Type (0, 1), BuildingBlock: EZIPEK_clean_linker_0, # of connection points: 2
#     Edge 22, Type (0, 1), BuildingBlock: EZIPEK_clean_linker_0, # of connection points: 2
#     Edge 23, Type (0, 1), BuildingBlock: EZIPEK_clean_linker_0, # of connection points: 2
#     Edge 24, Type (0, 1), BuildingBlock: EZIPEK_clean_linker_0, # of connection points: 2
#     Edge 25, Type (0, 1), BuildingBlock: EZIPEK_clean_linker_0, # of connection points: 2
#     Edge 26, Type (0, 1), BuildingBlock: EZIPEK_clean_linker_0, # of connection points: 2
#     Edge 27, Type (0, 1), BuildingBlock: EZIPEK_clean_linker_0, # of connection points: 2
#     Edge 28, Type (0, 1), BuildingBlock: EZIPEK_clean_linker_0, # of connection points: 2
#     Edge 29, Type (0, 1), BuildingBlock: EZIPEK_clean_linker_0, # of connection points: 2
#     Edge 30, Type (0, 1), BuildingBlock: EZIPEK_clean_linker_0, # of connection points: 2
#     Edge 31, Type (0, 1), BuildingBlock: EZIPEK_clean_linker_0, # of connection points: 2
#     Edge 32, Type (0, 1), BuildingBlock: EZIPEK_clean_linker_0, # of connection points: 2
#     Edge 33, Type (0, 1), BuildingBlock: EZIPEK_clean_linker_0, # of connection points: 2
#     Edge 34, Type (0, 1), BuildingBlock: EZIPEK_clean_linker_0, # of connection points: 2
#     Edge 35, Type (0, 1), BuildingBlock: EZIPEK_clean_linker_0, # of connection points: 2
# Relax obj value: 0.019
# Max RMSD: 0.108
# Mean RMSD: 0.071
data_MOF--net-ssa--node1-ESEHIV_clean_sbu_0--node2-NAHDIM_clean_linker_0--edge1-EZIPEK_clean_linker_0
_symmetry_space_group_name_H-M    P1
_symmetry_Int_Tables_number       1
_symmetry_cell_setting            triclinic
loop_
_symmetry_equiv_pos_as_xyz
'x, y, z'
_cell_length_a     49.946988
_cell_length_b     53.376594
_cell_length_c     44.610416
_cell_angle_alpha  88.250597
_cell_angle_beta   91.415857
_cell_angle_gamma 122.2538
loop_
_atom_site_label
_atom_site_type_symbol
_atom_site_fract_x
_atom_site_fract_y
_atom_site_fract_z
_atom_type_partial_charge
Cu0 Cu 0.02859 0.5293 0.01327 0.0
N1 N 0.99539 0.49032 0.00759 0.0
N2 N 0.968 0.44605 0.98659 0.0
C3 C 0.99157 0.47455 0.98314 0.0
C4 C 0.95603 0.44365 0.01401 0.0
C5 C 0.97294 0.47123 0.02693 0.0
O6 O 0.03205 0.55001 0.9754 0.0
C7 C 0.07255 0.51043 0.01931 0.0
O8 O 0.05792 0.49363 0.99621 0.0
H9 H 0.00688 0.48339 0.96383 0.0
H10 H 0.9702 0.47661 0.04937 0.0
N11 N 0.01899 0.54639 0.04372 0.0
N12 N 0.02724 0.577 0.08069 0.0
C13 C 0.03962 0.56468 0.06458 0.0
C14 C 0.99256 0.54691 0.04702 0.0
C15 C 0.99766 0.56595 0.06981 0.0
C16 C 0.03432 0.57493 0.97483 0.0
O17 O 0.04328 0.59079 0.9991 0.0
H18 H 0.06372 0.57001 0.06694 0.0
H19 H 0.97159 0.53523 0.03307 0.0
O20 O 0.06556 0.52887 0.02744 0.0
H21 H 0.93751 0.42323 0.02437 0.0
H22 H 0.98132 0.57184 0.07735 0.0
Cu23 Cu 0.51212 0.0205 0.504 0.0
N24 N 0.50878 0.9845 0.4983 0.0
N25 N 0.51977 0.95201 0.48168 0.0
C26 C 0.52373 0.97889 0.47735 0.0
C27 C 0.50172 0.94021 0.50631 0.0
C28 C 0.49498 0.96038 0.51655 0.0
O29 O 0.5235 0.0437 0.4668 0.0
C30 C 0.57162 0.04443 0.5336 0.0
O31 O 0.57865 0.03334 0.51149 0.0
H32 H 0.53852 0.99472 0.46016 0.0
H33 H 0.48192 0.95811 0.5365 0.0
N34 N 0.47495 0.01499 0.51937 0.0
N35 N 0.4432 0.02397 0.54487 0.0
C36 C 0.47323 0.03414 0.53692 0.0
C37 C 0.44503 0.99168 0.51651 0.0
C38 C 0.42526 0.99727 0.53211 0.0
C39 C 0.50681 0.03774 0.44292 0.0
O40 O 0.51824 0.05626 0.41988 0.0
H41 H 0.49361 0.05503 0.54396 0.0
H42 H 0.43821 0.97205 0.50405 0.0
O43 O 0.54488 0.04201 0.53389 0.0
H44 H 0.49449 0.91883 0.51638 0.0
H45 H 0.39987 0.98275 0.53438 0.0
Cu46 Cu 0.54207 0.51242 0.02619 0.0
N47 N 0.53551 0.47523 0.01923 0.0
N48 N 0.51637 0.43284 0.99505 0.0
C49 C 0.52837 0.4622 0.99235 0.0
C50 C 0.51592 0.4271 0.02472 0.0
C51 C 0.52781 0.4533 0.03958 0.0
O52 O 0.55935 0.53702 0.99032 0.0
C53 C 0.49629 0.5185 0.05733 0.0
O54 O 0.51938 0.54522 0.06434 0.0
H55 H 0.52909 0.4734 0.9715 0.0
H56 H 0.52836 0.45562 0.06359 0.0
N57 N 0.57135 0.53207 0.05718 0.0
N58 N 0.59951 0.56789 0.08997 0.0
C59 C 0.58307 0.56051 0.064 0.0
C60 C 0.58185 0.52141 0.07911 0.0
C61 C 0.59931 0.54357 0.09949 0.0
C62 C 0.58555 0.54072 0.98237 0.0
O63 O 0.59699 0.52689 0.99745 0.0
H64 H 0.57786 0.57501 0.05125 0.0
H65 H 0.5759 0.49878 0.08107 0.0
O66 O 0.50079 0.50381 0.03835 0.0
H67 H 0.506 0.40526 0.0349 0.0
H68 H 0.60917 0.54145 0.12059 0.0
Cu69 Cu 1.00209 0.49717 0.50136 0.0
N70 N 0.99871 0.4738 0.46951 0.0
N71 N 0.01409 0.4513 0.43936 0.0
C72 C 0.02308 0.4761 0.45458 0.0
C73 C 0.9827 0.43324 0.44389 0.0
C74 C 0.97324 0.44722 0.46246 0.0
O75 O 0.03606 0.53771 0.49404 0.0
C76 C 0.00638 0.45671 0.54118 0.0
O77 O 0.01237 0.44748 0.51691 0.0
H78 H 0.04735 0.4944 0.45687 0.0
H79 H 0.95002 0.43778 0.47204 0.0
N80 N 0.96706 0.50043 0.50349 0.0
N81 N 0.94443 0.5194 0.5292 0.0
C82 C 0.95573 0.50141 0.53016 0.0
C83 C 0.96143 0.51734 0.48465 0.0
C84 C 0.94751 0.52918 0.50053 0.0
C85 C 0.06592 0.55009 0.49394 0.0
O86 O 0.07912 0.53509 0.5015 0.0
H87 H 0.96092 0.49365 0.55088 0.0
H88 H 0.97132 0.52442 0.46245 0.0
O89 O 0.00395 0.47927 0.5397 0.0
H90 H 0.96806 0.41096 0.43556 0.0
H91 H 0.94369 0.54642 0.49263 0.0
Cu92 Cu 0.51256 0.00251 0.01624 0.0
N93 N 0.48248 0.99733 0.98731 0.0
N94 N 0.4539 0.00762 0.95634 0.0
C95 C 0.47718 0.01832 0.97716 0.0
C96 C 0.44403 0.97894 0.95319 0.0
C97 C 0.46175 0.97259 0.97242 0.0
O98 O 0.55307 0.03718 0.00464 0.0
C99 C 0.46886 0.98621 0.06154 0.0
O100 O 0.44962 0.96989 0.03994 0.0
H101 H 0.48991 0.04086 0.98501 0.0
H102 H 0.45926 0.95131 0.97572 0.0
N103 N 0.51856 0.97088 0.0174 0.0
N104 N 0.53862 0.94423 0.03352 0.0
C105 C 0.53155 0.96436 0.04075 0.0
C106 C 0.51724 0.95412 0.99473 0.0
C107 C 0.52967 0.93763 0.00465 0.0
C108 C 0.56137 0.03605 0.97819 0.0
O109 O 0.54132 0.01407 0.9611 0.0
H110 H 0.53782 0.97571 0.06189 0.0
H111 H 0.50978 0.95521 0.97204 0.0
O112 O 0.49814 0.00393 0.05593 0.0
H113 H 0.42507 0.9637 0.93843 0.0
H114 H 0.53353 0.92324 0.99133 0.0
Cu115 Cu 0.51395 0.48958 0.51237 0.0
N116 N 0.53862 0.5282 0.49697 0.0
N117 N 0.56374 0.57573 0.48256 0.0
C118 C 0.53883 0.55359 0.49793 0.0
C119 C 0.57924 0.56378 0.47161 0.0
C120 C 0.5635 0.53463 0.48005 0.0
O121 O 0.47968 0.46615 0.48401 0.0
C122 C 0.56638 0.49643 0.53817 0.0
O123 O 0.5642 0.51799 0.5487 0.0
H124 H 0.52122 0.55577 0.50912 0.0
H125 H 0.56952 0.51878 0.47398 0.0
N126 N 0.4951 0.48305 0.54992 0.0
N127 N 0.46909 0.44934 0.58632 0.0
C128 C 0.49231 0.46023 0.56615 0.0
C129 C 0.47296 0.4874 0.56083 0.0
C130 C 0.4567 0.46637 0.5834 0.0
C131 C 0.46107 0.47547 0.48023 0.0
O132 O 0.46782 0.49944 0.49415 0.0
H133 H 0.5037 0.44873 0.56001 0.0
H134 H 0.46654 0.50228 0.55106 0.0
O135 O 0.54523 0.47855 0.51972 0.0
H136 H 0.59997 0.57525 0.45753 0.0
H137 H 0.4356 0.46213 0.59452 0.0
C138 C 0.04528 0.3664 0.37939 0.0
C139 C 0.07393 0.39771 0.3856 0.0
C140 C 0.12061 0.41133 0.35658 0.0
C141 C 0.14748 0.4386 0.34889 0.0
C142 C 0.17538 0.44058 0.34036 0.0
C143 C 0.17573 0.41435 0.33815 0.0
C144 C 0.14911 0.38686 0.34749 0.0
C145 C 0.12179 0.38568 0.35685 0.0
C146 C 0.20371 0.47048 0.33175 0.0
C147 C 0.14876 0.35853 0.34553 0.0
C148 C 0.39789 0.43829 0.41882 0.0
C149 C 0.36708 0.42161 0.40217 0.0
C150 C 0.3358 0.43371 0.36809 0.0
C151 C 0.30831 0.40519 0.36724 0.0
C152 C 0.28077 0.40034 0.35237 0.0
C153 C 0.28062 0.42458 0.33867 0.0
C154 C 0.30798 0.45348 0.34067 0.0
C155 C 0.33536 0.45748 0.35476 0.0
C156 C 0.25202 0.3693 0.35085 0.0
C157 C 0.30855 0.48021 0.32767 0.0
C158 C 0.33927 0.4575 0.1443 0.0
C159 C 0.31727 0.42762 0.15148 0.0
C160 C 0.28981 0.4194 0.16747 0.0
C161 C 0.28486 0.44165 0.17702 0.0
C162 C 0.30687 0.47174 0.16934 0.0
C163 C 0.33349 0.47915 0.15251 0.0
C164 C 0.26618 0.38703 0.1742 0.0
C165 C 0.30244 0.49617 0.17898 0.0
C166 C 0.11412 0.48769 0.14499 0.0
C167 C 0.13183 0.48528 0.11851 0.0
C168 C 0.14938 0.45311 0.14015 0.0
C169 C 0.14378 0.42451 0.13998 0.0
C170 C 0.1611 0.41643 0.15869 0.0
C171 C 0.18475 0.43762 0.17797 0.0
C172 C 0.19011 0.46647 0.17879 0.0
C173 C 0.1724 0.47392 0.15989 0.0
C174 C 0.15455 0.38543 0.15749 0.0
C175 C 0.21508 0.4897 0.19916 0.0
C176 C 0.20129 0.41516 0.32099 0.0
C177 C 0.22681 0.41665 0.33649 0.0
C178 C 0.25259 0.41983 0.32104 0.0
C179 C 0.25279 0.42137 0.28926 0.0
C180 C 0.27825 0.42462 0.27293 0.0
C181 C 0.27942 0.42842 0.24188 0.0
C182 C 0.25487 0.42851 0.22586 0.0
C183 C 0.25643 0.43367 0.19448 0.0
C184 C 0.23211 0.43456 0.17943 0.0
C185 C 0.20626 0.43091 0.19485 0.0
C186 C 0.2037 0.42476 0.22604 0.0
C187 C 0.17744 0.41988 0.24202 0.0
C188 C 0.17609 0.41571 0.27299 0.0
C189 C 0.20126 0.41682 0.28926 0.0
C190 C 0.2273 0.42038 0.27341 0.0
C191 C 0.22839 0.42408 0.2417 0.0
C192 C 0.39472 0.45674 0.16898 0.0
C193 C 0.38611 0.45551 0.1354 0.0
O194 O 0.09317 0.41006 0.36085 0.0
O195 O 0.13225 0.45952 0.12077 0.0
O196 O 0.36662 0.46633 0.12995 0.0
O197 O 0.36319 0.43949 0.38158 0.0
H198 H 0.08689 0.39405 0.40411 0.0
H199 H 0.0523 0.34991 0.38158 0.0
H200 H 0.03528 0.36445 0.35653 0.0
H201 H 0.02639 0.35997 0.39607 0.0
H202 H 0.14629 0.45829 0.34893 0.0
H203 H 0.10088 0.36452 0.36256 0.0
H204 H 0.2259 0.47264 0.34033 0.0
H205 H 0.20208 0.48888 0.34052 0.0
H206 H 0.20518 0.47278 0.30693 0.0
H207 H 0.12717 0.33927 0.3556 0.0
H208 H 0.16994 0.36098 0.35712 0.0
H209 H 0.14985 0.35391 0.32163 0.0
H210 H 0.36162 0.40037 0.39241 0.0
H211 H 0.41139 0.42792 0.41219 0.0
H212 H 0.38455 0.43702 0.4619 0.0
H213 H 0.41336 0.45966 0.40598 0.0
H214 H 0.30843 0.38665 0.3776 0.0
H215 H 0.35659 0.47944 0.35585 0.0
H216 H 0.23214 0.3681 0.36283 0.0
H217 H 0.2565 0.35259 0.36103 0.0
H218 H 0.24446 0.36353 0.32712 0.0
H219 H 0.32886 0.50125 0.33644 0.0
H220 H 0.28628 0.47909 0.33277 0.0
H221 H 0.31064 0.48074 0.30292 0.0
H222 H 0.37249 0.43217 0.1282 0.0
H223 H 0.32138 0.41072 0.14448 0.0
H224 H 0.35055 0.5021 0.14654 0.0
H225 H 0.2661 0.38262 0.19867 0.0
H226 H 0.27171 0.37235 0.16234 0.0
H227 H 0.24196 0.38124 0.16762 0.0
H228 H 0.32413 0.51847 0.1756 0.0
H229 H 0.29583 0.49323 0.203 0.0
H230 H 0.28292 0.49525 0.16559 0.0
H231 H 0.15624 0.5049 0.12028 0.0
H232 H 0.11142 0.50693 0.14131 0.0
H233 H 0.12764 0.49126 0.1662 0.0
H234 H 0.09038 0.46744 0.14825 0.0
H235 H 0.1259 0.40852 0.12483 0.0
H236 H 0.17718 0.49616 0.16047 0.0
H237 H 0.15179 0.37593 0.18054 0.0
H238 H 0.17498 0.38616 0.14721 0.0
H239 H 0.1329 0.37054 0.14416 0.0
H240 H 0.21765 0.51159 0.19584 0.0
H241 H 0.23833 0.49238 0.19521 0.0
H242 H 0.20878 0.48249 0.22291 0.0
H243 H 0.22708 0.41631 0.36082 0.0
H244 H 0.29788 0.42479 0.28401 0.0
H245 H 0.3 0.43158 0.23064 0.0
H246 H 0.23416 0.43972 0.15555 0.0
H247 H 0.15775 0.41946 0.23074 0.0
H248 H 0.15525 0.41217 0.28403 0.0
H249 H 0.41195 0.44985 0.17288 0.0
H250 H 0.37336 0.44146 0.18233 0.0
H251 H 0.40531 0.47947 0.17754 0.0
C252 C 0.92031 0.3202 0.9435 0.0
C253 C 0.9297 0.34308 0.91751 0.0
C254 C 0.88707 0.31434 0.88061 0.0
C255 C 0.89699 0.29525 0.87256 0.0
C256 C 0.87922 0.27247 0.85215 0.0
C257 C 0.85126 0.26892 0.83933 0.0
C258 C 0.84192 0.28879 0.84648 0.0
C259 C 0.85995 0.31119 0.86712 0.0
C260 C 0.88979 0.25164 0.84487 0.0
C261 C 0.81243 0.28586 0.83289 0.0
C262 C 0.67579 0.0623 0.89717 0.0
C263 C 0.67731 0.08925 0.91063 0.0
C264 C 0.70484 0.12804 0.87129 0.0
C265 C 0.70129 0.14629 0.85069 0.0
C266 C 0.72656 0.16719 0.8328 0.0
C267 C 0.75596 0.16911 0.83488 0.0
C268 C 0.75955 0.15019 0.85518 0.0
C269 C 0.73417 0.13022 0.87356 0.0
C270 C 0.72198 0.18774 0.81238 0.0
C271 C 0.79041 0.15142 0.8579 0.0
C272 C 0.71663 0.12776 0.63909 0.0
C273 C 0.71214 0.14777 0.65441 0.0
C274 C 0.73682 0.17056 0.67116 0.0
C275 C 0.76648 0.17299 0.67319 0.0
C276 C 0.77125 0.15317 0.65726 0.0
C277 C 0.74633 0.13105 0.63999 0.0
C278 C 0.73105 0.19202 0.68664 0.0
C279 C 0.80252 0.15514 0.65876 0.0
C280 C 0.95087 0.39975 0.66783 0.0
C281 C 0.9525 0.37918 0.64547 0.0
C282 C 0.90211 0.33118 0.65099 0.0
C283 C 0.87013 0.32108 0.65383 0.0
C284 C 0.84894 0.29346 0.66725 0.0
C285 C 0.85996 0.27507 0.67726 0.0
C286 C 0.89202 0.28445 0.67291 0.0
C287 C 0.91289 0.31257 0.66 0.0
C288 C 0.81487 0.28416 0.67111 0.0
C289 C 0.90423 0.26488 0.68218 0.0
C290 C 0.83036 0.24306 0.82041 0.0
C291 C 0.80561 0.21793 0.8346 0.0
C292 C 0.78376 0.1931 0.81835 0.0
C293 C 0.78717 0.19286 0.787 0.0
C294 C 0.7664 0.16785 0.77004 0.0
C295 C 0.76861 0.16865 0.73893 0.0
C296 C 0.79158 0.19454 0.72362 0.0
C297 C 0.79233 0.19642 0.69189 0.0
C298 C 0.81586 0.22236 0.67746 0.0
C299 C 0.83826 0.24695 0.69384 0.0
C300 C 0.83746 0.24565 0.72556 0.0
C301 C 0.85901 0.27024 0.74273 0.0
C302 C 0.85718 0.26924 0.77384 0.0
C303 C 0.83346 0.24376 0.78896 0.0
C304 C 0.81175 0.21854 0.77218 0.0
C305 C 0.8139 0.21942 0.74044 0.0
C306 C 0.65985 0.05753 0.6418 0.0
C307 C 0.66218 0.08661 0.63243 0.0
O308 O 0.90223 0.33552 0.90171 0.0
O309 O 0.92128 0.35828 0.63797 0.0
O310 O 0.69297 0.10569 0.62259 0.0
O311 O 0.67941 0.10895 0.88842 0.0
H312 H 0.94673 0.34257 0.90239 0.0
H313 H 0.90611 0.29727 0.93508 0.0
H314 H 0.90569 0.32282 0.96 0.0
H315 H 0.94113 0.32228 0.95531 0.0
H316 H 0.91804 0.29741 0.88257 0.0
H317 H 0.85262 0.32613 0.87326 0.0
H318 H 0.87149 0.22875 0.8522 0.0
H319 H 0.91265 0.25788 0.85593 0.0
H320 H 0.89236 0.25144 0.82024 0.0
H321 H 0.80988 0.30456 0.83876 0.0
H322 H 0.79129 0.26486 0.841 0.0
H323 H 0.81285 0.28485 0.80809 0.0
H324 H 0.69907 0.10181 0.92437 0.0
H325 H 0.67702 0.04826 0.91537 0.0
H326 H 0.69576 0.06914 0.88182 0.0
H327 H 0.65346 0.04847 0.88436 0.0
H328 H 0.67866 0.14455 0.84916 0.0
H329 H 0.73766 0.11664 0.88965 0.0
H330 H 0.72194 0.18201 0.78868 0.0
H331 H 0.74172 0.21106 0.81533 0.0
H332 H 0.6993 0.18617 0.81661 0.0
H333 H 0.78768 0.13184 0.87034 0.0
H334 H 0.80801 0.17165 0.87006 0.0
H335 H 0.80003 0.15268 0.83533 0.0
H336 H 0.65764 0.09557 0.65248 0.0
H337 H 0.68952 0.14599 0.6528 0.0
H338 H 0.74968 0.11574 0.62769 0.0
H339 H 0.72882 0.18712 0.71112 0.0
H340 H 0.70902 0.19045 0.67846 0.0
H341 H 0.75124 0.21515 0.68315 0.0
H342 H 0.80156 0.13649 0.64727 0.0
H343 H 0.80973 0.1552 0.68253 0.0
H344 H 0.82105 0.17627 0.64804 0.0
H345 H 0.96439 0.36869 0.65645 0.0
H346 H 0.97405 0.41593 0.67797 0.0
H347 H 0.94102 0.41204 0.65661 0.0
H348 H 0.93503 0.38631 0.68665 0.0
H349 H 0.86194 0.33534 0.64607 0.0
H350 H 0.93728 0.31955 0.65642 0.0
H351 H 0.80777 0.27772 0.69487 0.0
H352 H 0.79934 0.2645 0.65725 0.0
H353 H 0.8107 0.30202 0.66432 0.0
H354 H 0.92852 0.27366 0.67387 0.0
H355 H 0.88819 0.24219 0.67358 0.0
H356 H 0.90461 0.2631 0.70702 0.0
H357 H 0.80271 0.21808 0.85862 0.0
H358 H 0.74794 0.14755 0.78067 0.0
H359 H 0.75173 0.14887 0.72697 0.0
H360 H 0.81585 0.22394 0.65315 0.0
H361 H 0.87742 0.2907 0.73235 0.0
H362 H 0.87426 0.28889 0.78587 0.0
H363 H 0.66247 0.04699 0.62191 0.0
H364 H 0.63721 0.04146 0.65288 0.0
H365 H 0.67913 0.06222 0.65806 0.0
C366 C 0.66041 0.71393 0.45283 0.0
C367 C 0.62479 0.69849 0.4462 0.0
C368 C 0.61897 0.72211 0.40087 0.0
C369 C 0.59035 0.71656 0.38874 0.0
C370 C 0.58947 0.73705 0.36906 0.0
C371 C 0.61809 0.76351 0.36116 0.0
C372 C 0.64715 0.76931 0.37357 0.0
C373 C 0.64729 0.74828 0.39312 0.0
C374 C 0.55808 0.7301 0.35613 0.0
C375 C 0.67806 0.79719 0.36533 0.0
C376 C 0.59738 0.89594 0.44818 0.0
C377 C 0.57328 0.89356 0.42441 0.0
C378 C 0.59185 0.88433 0.37889 0.0
C379 C 0.62243 0.89429 0.36925 0.0
C380 C 0.62858 0.87573 0.35308 0.0
C381 C 0.60329 0.8469 0.34581 0.0
C382 C 0.57204 0.83745 0.35405 0.0
C383 C 0.56669 0.85624 0.37063 0.0
C384 C 0.66215 0.88649 0.3446 0.0
C385 C 0.54438 0.80716 0.34607 0.0
C386 C 0.59305 0.86998 0.14834 0.0
C387 C 0.62419 0.87955 0.15756 0.0
C388 C 0.63047 0.86118 0.17553 0.0
C389 C 0.60514 0.83289 0.18473 0.0
C390 C 0.5739 0.82301 0.17512 0.0
C391 C 0.56831 0.84174 0.15703 0.0
C392 C 0.66407 0.87227 0.18535 0.0
C393 C 0.54636 0.7929 0.18448 0.0
C394 C 0.67688 0.68462 0.16706 0.0
C395 C 0.64145 0.67172 0.16085 0.0
C396 C 0.63285 0.7117 0.16763 0.0
C397 C 0.65911 0.73947 0.17476 0.0
C398 C 0.65558 0.75976 0.19082 0.0
C399 C 0.62499 0.75207 0.19959 0.0
C400 C 0.59843 0.72377 0.19264 0.0
C401 C 0.60269 0.70396 0.17653 0.0
C402 C 0.68438 0.78974 0.19768 0.0
C403 C 0.56548 0.71485 0.2015 0.0
C404 C 0.61748 0.78478 0.33952 0.0
C405 C 0.61323 0.80649 0.35087 0.0
C406 C 0.60966 0.82574 0.33177 0.0
C407 C 0.61049 0.82343 0.30036 0.0
C408 C 0.60618 0.84194 0.2805 0.0
C409 C 0.60639 0.83908 0.24963 0.0
C410 C 0.61108 0.8177 0.23744 0.0
C411 C 0.61097 0.81446 0.20611 0.0
C412 C 0.61578 0.7931 0.19466 0.0
C413 C 0.62047 0.77444 0.21372 0.0
C414 C 0.62034 0.77713 0.2452 0.0
C415 C 0.62448 0.75853 0.26512 0.0
C416 C 0.62367 0.76102 0.29604 0.0
C417 C 0.61899 0.78242 0.3082 0.0
C418 C 0.61528 0.80173 0.28855 0.0
C419 C 0.61571 0.79893 0.25704 0.0
C420 C 0.61399 0.93802 0.14216 0.0
C421 C 0.60623 0.91464 0.11837 0.0
O422 O 0.61926 0.69992 0.41583 0.0
O423 O 0.6363 0.6934 0.15 0.0
O424 O 0.5856 0.88717 0.13151 0.0
O425 O 0.58716 0.902 0.39636 0.0
H426 H 0.61516 0.71006 0.45791 0.0
H427 H 0.67196 0.73829 0.45035 0.0
H428 H 0.67174 0.70644 0.43738 0.0
H429 H 0.66481 0.7092 0.47622 0.0
H430 H 0.56877 0.69573 0.39424 0.0
H431 H 0.66956 0.75172 0.40128 0.0
H432 H 0.55392 0.7478 0.36194 0.0
H433 H 0.53798 0.70851 0.36455 0.0
H434 H 0.55851 0.72956 0.33129 0.0
H435 H 0.69856 0.79879 0.37754 0.0
H436 H 0.67704 0.81691 0.37042 0.0
H437 H 0.68193 0.79778 0.34085 0.0
H438 H 0.55482 0.86959 0.42503 0.0
H439 H 0.6033 0.87903 0.44407 0.0
H440 H 0.58715 0.89172 0.47098 0.0
H441 H 0.61985 0.91785 0.44762 0.0
H442 H 0.64164 0.9162 0.37546 0.0
H443 H 0.54288 0.84892 0.37726 0.0
H444 H 0.66357 0.88488 0.32001 0.0
H445 H 0.66947 0.87211 0.35565 0.0
H446 H 0.67908 0.90977 0.35121 0.0
H447 H 0.52128 0.80456 0.35079 0.0
H448 H 0.54601 0.79008 0.35932 0.0
H449 H 0.54507 0.80296 0.32196 0.0
H450 H 0.62801 0.91578 0.11133 0.0
H451 H 0.6437 0.90143 0.1514 0.0
H452 H 0.54441 0.83451 0.14978 0.0
H453 H 0.66623 0.87509 0.21002 0.0
H454 H 0.68145 0.89379 0.17439 0.0
H455 H 0.67021 0.85573 0.18008 0.0
H456 H 0.52351 0.78838 0.17485 0.0
H457 H 0.54464 0.79132 0.20932 0.0
H458 H 0.55035 0.77546 0.17717 0.0
H459 H 0.63074 0.66383 0.18338 0.0
H460 H 0.68105 0.66651 0.17247 0.0
H461 H 0.6847 0.69931 0.18672 0.0
H462 H 0.69203 0.69803 0.14799 0.0
H463 H 0.68228 0.74541 0.16722 0.0
H464 H 0.58243 0.68266 0.17024 0.0
H465 H 0.68555 0.79395 0.22204 0.0
H466 H 0.68249 0.80722 0.18555 0.0
H467 H 0.7067 0.79165 0.19103 0.0
H468 H 0.54748 0.6916 0.19563 0.0
H469 H 0.55909 0.72974 0.19002 0.0
H470 H 0.56473 0.71736 0.22602 0.0
H471 H 0.61187 0.80792 0.37495 0.0
H472 H 0.60243 0.85874 0.28861 0.0
H473 H 0.60276 0.85386 0.23546 0.0
H474 H 0.61563 0.79081 0.17056 0.0
H475 H 0.62815 0.74168 0.257 0.0
H476 H 0.62677 0.74597 0.31032 0.0
H477 H 0.62266 0.93288 0.16317 0.0
H478 H 0.63265 0.96067 0.13485 0.0
H479 H 0.59238 0.93802 0.14752 0.0
C480 C 0.71604 0.63089 0.94173 0.0
C481 C 0.69414 0.61277 0.91542 0.0
C482 C 0.72531 0.59483 0.89223 0.0
C483 C 0.74864 0.62203 0.87925 0.0
C484 C 0.77309 0.62406 0.86228 0.0
C485 C 0.77416 0.59843 0.85811 0.0
C486 C 0.75095 0.57114 0.87147 0.0
C487 C 0.72683 0.56975 0.88833 0.0
C488 C 0.79765 0.65355 0.84852 0.0
C489 C 0.75136 0.54338 0.86749 0.0
C490 C 0.99949 0.65965 0.91452 0.0
C491 C 0.97537 0.62645 0.90954 0.0
C492 C 0.93674 0.61836 0.87101 0.0
C493 C 0.91185 0.59079 0.86159 0.0
C494 C 0.8833 0.58712 0.85096 0.0
C495 C 0.88014 0.61199 0.84862 0.0
C496 C 0.9053 0.63994 0.85836 0.0
C497 C 0.93335 0.64278 0.86958 0.0
C498 C 0.85679 0.55673 0.84163 0.0
C499 C 0.90294 0.66694 0.85596 0.0
C500 C 0.89406 0.58786 0.64609 0.0
C501 C 0.88214 0.56734 0.67012 0.0
C502 C 0.86214 0.56789 0.69122 0.0
C503 C 0.85522 0.59041 0.689 0.0
C504 C 0.86838 0.61191 0.66547 0.0
C505 C 0.88703 0.60988 0.64387 0.0
C506 C 0.84751 0.54363 0.71505 0.0
C507 C 0.86206 0.63656 0.66261 0.0
C508 C 0.62586 0.53036 0.64656 0.0
C509 C 0.65023 0.52929 0.6272 0.0
C510 C 0.69019 0.5321 0.663 0.0
C511 C 0.70044 0.51534 0.67804 0.0
C512 C 0.72722 0.52866 0.69687 0.0
C513 C 0.7446 0.55975 0.70032 0.0
C514 C 0.7337 0.57681 0.68625 0.0
C515 C 0.70634 0.5628 0.66808 0.0
C516 C 0.73779 0.50963 0.71198 0.0
C517 C 0.7518 0.61003 0.68936 0.0
C518 C 0.79857 0.5999 0.83844 0.0
C519 C 0.82742 0.60639 0.85133 0.0
C520 C 0.8516 0.60898 0.83365 0.0
C521 C 0.84742 0.60629 0.80217 0.0
C522 C 0.87215 0.61135 0.78343 0.0
C523 C 0.86731 0.60692 0.75272 0.0
C524 C 0.83731 0.59641 0.73975 0.0
C525 C 0.8314 0.58943 0.70905 0.0
C526 C 0.80123 0.5787 0.69701 0.0
C527 C 0.77644 0.5745 0.71468 0.0
C528 C 0.78194 0.58188 0.74533 0.0
C529 C 0.75779 0.57859 0.76371 0.0
C530 C 0.76339 0.58529 0.79405 0.0
C531 C 0.79304 0.59448 0.80735 0.0
C532 C 0.81769 0.59796 0.78916 0.0
C533 C 0.81239 0.59238 0.758 0.0
C534 C 0.96583 0.61356 0.62359 0.0
C535 C 0.93609 0.5823 0.62793 0.0
O536 O 0.70115 0.59162 0.90888 0.0
O537 O 0.66525 0.51772 0.64358 0.0
O538 O 0.91062 0.5857 0.62374 0.0
O539 O 0.96436 0.62131 0.88018 0.0
H540 H 0.69824 0.62744 0.89556 0.0
H541 H 0.74072 0.63711 0.93773 0.0
H542 H 0.70812 0.61764 0.96299 0.0
H543 H 0.71713 0.65193 0.9446 0.0
H544 H 0.74802 0.64174 0.88224 0.0
H545 H 0.70879 0.54889 0.89849 0.0
H546 H 0.82166 0.65949 0.85608 0.0
H547 H 0.79411 0.67163 0.85452 0.0
H548 H 0.79673 0.65189 0.82372 0.0
H549 H 0.73241 0.52417 0.88041 0.0
H550 H 0.77465 0.54722 0.87479 0.0
H551 H 0.74818 0.53775 0.84338 0.0
H552 H 0.95579 0.62122 0.92499 0.0
H553 H 0.01333 0.66288 0.93551 0.0
H554 H 0.98692 0.67144 0.91702 0.0
H555 H 0.01595 0.67038 0.89548 0.0
H556 H 0.91483 0.57211 0.86269 0.0
H557 H 0.95298 0.66423 0.87629 0.0
H558 H 0.85526 0.5559 0.81679 0.0
H559 H 0.83375 0.55197 0.85004 0.0
H560 H 0.86062 0.53906 0.85006 0.0
H561 H 0.92497 0.68728 0.86359 0.0
H562 H 0.88295 0.6634 0.86974 0.0
H563 H 0.89791 0.67045 0.83234 0.0
H564 H 0.93658 0.57434 0.65112 0.0
H565 H 0.88709 0.5499 0.67157 0.0
H566 H 0.89631 0.62555 0.62516 0.0
H567 H 0.85931 0.55266 0.73693 0.0
H568 H 0.85014 0.52482 0.70994 0.0
H569 H 0.82192 0.53502 0.71749 0.0
H570 H 0.87887 0.65455 0.64708 0.0
H571 H 0.86379 0.64611 0.68487 0.0
H572 H 0.83768 0.62752 0.65379 0.0
H573 H 0.66746 0.55267 0.62073 0.0
H574 H 0.61303 0.53853 0.63291 0.0
H575 H 0.63808 0.54586 0.6653 0.0
H576 H 0.6084 0.50837 0.65644 0.0
H577 H 0.68768 0.49168 0.67444 0.0
H578 H 0.69846 0.57627 0.65752 0.0
H579 H 0.74399 0.51571 0.73586 0.0
H580 H 0.75934 0.51351 0.70079 0.0
H581 H 0.71927 0.48565 0.71089 0.0
H582 H 0.73953 0.6201 0.67815 0.0
H583 H 0.77562 0.62001 0.67937 0.0
H584 H 0.75528 0.61577 0.71344 0.0
H585 H 0.83088 0.60898 0.8754 0.0
H586 H 0.89555 0.61877 0.7923 0.0
H587 H 0.88717 0.61116 0.73936 0.0
H588 H 0.79664 0.57248 0.67362 0.0
H589 H 0.73435 0.57091 0.75477 0.0
H590 H 0.74393 0.58246 0.80708 0.0
H591 H 0.96778 0.62101 0.59976 0.0
H592 H 0.98798 0.6149 0.63045 0.0
H593 H 0.96415 0.62952 0.6376 0.0
C594 C 0.15116 0.692 0.47836 0.0
C595 C 0.13109 0.67322 0.45154 0.0
C596 C 0.16683 0.70238 0.40969 0.0
C597 C 0.15876 0.72394 0.40708 0.0
C598 C 0.17522 0.74852 0.38749 0.0
C599 C 0.20075 0.75209 0.3707 0.0
C600 C 0.20879 0.73036 0.37316 0.0
C601 C 0.19132 0.70557 0.39223 0.0
C602 C 0.16566 0.771 0.38516 0.0
C603 C 0.2364 0.73365 0.35634 0.0
C604 C 0.36806 0.92814 0.4729 0.0
C605 C 0.38052 0.9306 0.4411 0.0
C606 C 0.33618 0.90421 0.40471 0.0
C607 C 0.33954 0.8805 0.39785 0.0
C608 C 0.31642 0.85675 0.3808 0.0
C609 C 0.28912 0.85642 0.37076 0.0
C610 C 0.28548 0.88006 0.37787 0.0
C611 C 0.30934 0.90387 0.39434 0.0
C612 C 0.32132 0.8321 0.37321 0.0
C613 C 0.25646 0.88022 0.368 0.0
C614 C 0.34493 0.90458 0.1764 0.0
C615 C 0.35049 0.88865 0.19854 0.0
C616 C 0.32527 0.86444 0.21377 0.0
C617 C 0.29387 0.85761 0.20874 0.0
C618 C 0.28839 0.87436 0.18695 0.0
C619 C 0.31391 0.89694 0.17039 0.0
C620 C 0.33265 0.84608 0.23477 0.0
C621 C 0.25569 0.86858 0.18098 0.0
C622 C 0.1067 0.63814 0.19551 0.0
C623 C 0.10156 0.6584 0.17398 0.0
C624 C 0.15264 0.70484 0.17669 0.0
C625 C 0.18351 0.71145 0.18105 0.0
C626 C 0.20603 0.73669 0.19677 0.0
C627 C 0.1976 0.75625 0.20751 0.0
C628 C 0.1668 0.75045 0.20166 0.0
C629 C 0.14454 0.72465 0.18652 0.0
C630 C 0.23862 0.74213 0.20242 0.0
C631 C 0.15733 0.77141 0.2116 0.0
C632 C 0.22072 0.77969 0.35264 0.0
C633 C 0.24301 0.80505 0.36807 0.0
C634 C 0.26454 0.83127 0.35279 0.0
C635 C 0.26391 0.83245 0.32108 0.0
C636 C 0.28541 0.85836 0.30495 0.0
C637 C 0.28561 0.85888 0.27377 0.0
C638 C 0.26486 0.83332 0.25747 0.0
C639 C 0.267 0.83282 0.2259 0.0
C640 C 0.24465 0.80745 0.21038 0.0
C641 C 0.22067 0.7823 0.2255 0.0
C642 C 0.21954 0.78186 0.25721 0.0
C643 C 0.19708 0.75634 0.27336 0.0
C644 C 0.197 0.75573 0.3046 0.0
C645 C 0.21943 0.78057 0.32091 0.0
C646 C 0.24148 0.80691 0.30509 0.0
C647 C 0.24178 0.80744 0.27321 0.0
C648 C 0.38857 0.97426 0.17593 0.0
C649 C 0.39654 0.95058 0.16997 0.0
O650 O 0.15222 0.67853 0.42892 0.0
O651 O 0.1312 0.67938 0.16274 0.0
O652 O 0.36871 0.92611 0.15926 0.0
O653 O 0.35853 0.92839 0.41996 0.0
H654 H 0.11436 0.67976 0.4438 0.0
H655 H 0.16692 0.71552 0.47114 0.0
H656 H 0.16625 0.68389 0.48724 0.0
H657 H 0.1368 0.69186 0.49691 0.0
H658 H 0.13993 0.72208 0.42029 0.0
H659 H 0.19737 0.68887 0.39429 0.0
H660 H 0.18388 0.79161 0.3964 0.0
H661 H 0.14247 0.76283 0.39584 0.0
H662 H 0.16427 0.77675 0.36127 0.0
H663 H 0.2419 0.71675 0.36354 0.0
H664 H 0.25785 0.75601 0.35973 0.0
H665 H 0.23086 0.73127 0.33197 0.0
H666 H 0.3829 0.91124 0.44071 0.0
H667 H 0.38557 0.92974 0.48982 0.0
H668 H 0.34578 0.90622 0.47606 0.0
H669 H 0.36282 0.94536 0.47745 0.0
H670 H 0.36032 0.88048 0.40491 0.0
H671 H 0.307 0.92232 0.39949 0.0
H672 H 0.31869 0.82851 0.34865 0.0
H673 H 0.30295 0.81117 0.38437 0.0
H674 H 0.34499 0.83682 0.38046 0.0
H675 H 0.25595 0.89897 0.37749 0.0
H676 H 0.23475 0.8591 0.37494 0.0
H677 H 0.25589 0.88195 0.34316 0.0
H678 H 0.40416 0.94503 0.19146 0.0
H679 H 0.37439 0.89428 0.2033 0.0
H680 H 0.30982 0.90927 0.15308 0.0
H681 H 0.33719 0.85518 0.25765 0.0
H682 H 0.35432 0.84694 0.22775 0.0
H683 H 0.31287 0.82252 0.23581 0.0
H684 H 0.2566 0.88761 0.16908 0.0
H685 H 0.24258 0.86403 0.20224 0.0
H686 H 0.24217 0.84886 0.1667 0.0
H687 H 0.09178 0.66926 0.18673 0.0
H688 H 0.08535 0.62234 0.20846 0.0
H689 H 0.1255 0.65175 0.2122 0.0
H690 H 0.11436 0.62547 0.1828 0.0
H691 H 0.18961 0.6962 0.17294 0.0
H692 H 0.12095 0.72011 0.18209 0.0
H693 H 0.24451 0.74531 0.22673 0.0
H694 H 0.25643 0.76274 0.19041 0.0
H695 H 0.24061 0.72358 0.19476 0.0
H696 H 0.13401 0.76574 0.20211 0.0
H697 H 0.17547 0.79452 0.20473 0.0
H698 H 0.15592 0.77059 0.23643 0.0
H699 H 0.24422 0.80411 0.39237 0.0
H700 H 0.30256 0.87849 0.31625 0.0
H701 H 0.30265 0.8795 0.26259 0.0
H702 H 0.24628 0.80703 0.18622 0.0
H703 H 0.1796 0.73635 0.26206 0.0
H704 H 0.17936 0.73542 0.31585 0.0
H705 H 0.38873 0.9859 0.15478 0.0
H706 H 0.40465 0.99047 0.19272 0.0
H707 H 0.36454 0.96374 0.18565 0.0
C708 C 0.35644 0.04887 0.62577 0.0
C709 C 0.39033 0.0745 0.61786 0.0
C710 C 0.40822 0.11339 0.65549 0.0
C711 C 0.43516 0.13297 0.67206 0.0
C712 C 0.43746 0.15696 0.68663 0.0
C713 C 0.41129 0.16054 0.68599 0.0
C714 C 0.38396 0.14092 0.66896 0.0
C715 C 0.38293 0.11785 0.65345 0.0
C716 C 0.4678 0.17812 0.70311 0.0
C717 C 0.35552 0.14384 0.66775 0.0
C718 C 0.42942 0.37501 0.63007 0.0
C719 C 0.41748 0.34316 0.63692 0.0
C720 C 0.42922 0.31257 0.66945 0.0
C721 C 0.40032 0.28533 0.66694 0.0
C722 C 0.39737 0.25891 0.6776 0.0
C723 C 0.42417 0.25964 0.69 0.0
C724 C 0.45387 0.28681 0.69032 0.0
C725 C 0.45563 0.31305 0.6813 0.0
C726 C 0.36533 0.23042 0.67665 0.0
C727 C 0.4836 0.28857 0.70146 0.0
C728 C 0.47101 0.3122 0.87892 0.0
C729 C 0.43794 0.29285 0.87716 0.0
C730 C 0.42445 0.26555 0.86281 0.0
C731 C 0.44442 0.25739 0.85033 0.0
C732 C 0.47767 0.27625 0.85332 0.0
C733 C 0.49048 0.30332 0.8678 0.0
C734 C 0.38891 0.2456 0.8605 0.0
C735 C 0.49968 0.26803 0.8407 0.0
C736 C 0.35383 0.02403 0.88988 0.0
C737 C 0.38721 0.05205 0.88982 0.0
C738 C 0.39328 0.10014 0.88242 0.0
C739 C 0.37081 0.10794 0.87869 0.0
C740 C 0.37756 0.13314 0.86167 0.0
C741 C 0.40784 0.15123 0.84872 0.0
C742 C 0.43099 0.14382 0.85318 0.0
C743 C 0.42339 0.11823 0.87003 0.0
C744 C 0.3524 0.1405 0.85763 0.0
C745 C 0.4638 0.16312 0.84048 0.0
C746 C 0.41216 0.18383 0.70436 0.0
C747 C 0.41655 0.20945 0.68988 0.0
C748 C 0.42027 0.23311 0.7063 0.0
C749 C 0.42093 0.23174 0.73805 0.0
C750 C 0.42598 0.25555 0.75537 0.0
C751 C 0.42955 0.25515 0.78631 0.0
C752 C 0.42628 0.23021 0.8014 0.0
C753 C 0.43088 0.22996 0.83274 0.0
C754 C 0.42498 0.20403 0.84741 0.0
C755 C 0.41539 0.17837 0.8314 0.0
C756 C 0.41287 0.17886 0.79974 0.0
C757 C 0.40501 0.15405 0.78272 0.0
C758 C 0.40434 0.15544 0.75149 0.0
C759 C 0.41089 0.18153 0.7361 0.0
C760 C 0.41658 0.20602 0.75292 0.0
C761 C 0.41839 0.20495 0.78472 0.0
C762 C 0.49465 0.38307 0.86917 0.0
C763 C 0.47451 0.3583 0.89215 0.0
O764 O 0.40724 0.08997 0.64303 0.0
O765 O 0.38583 0.0758 0.89928 0.0
O766 O 0.48514 0.33904 0.89212 0.0
O767 O 0.4323 0.33876 0.66141 0.0
H768 H 0.38668 0.08921 0.60246 0.0
H769 H 0.33944 0.05612 0.62267 0.0
H770 H 0.35463 0.04124 0.64946 0.0
H771 H 0.34824 0.02977 0.61081 0.0
H772 H 0.45465 0.12948 0.67336 0.0
H773 H 0.36196 0.10292 0.64065 0.0
H774 H 0.47391 0.20132 0.70011 0.0
H775 H 0.48794 0.17677 0.69531 0.0
H776 H 0.46477 0.17248 0.72743 0.0
H777 H 0.33474 0.1247 0.65677 0.0
H778 H 0.36155 0.16432 0.65495 0.0
H779 H 0.34883 0.14578 0.69073 0.0
H780 H 0.39119 0.32844 0.63736 0.0
H781 H 0.40854 0.37727 0.6333 0.0
H782 H 0.45078 0.38227 0.58917 0.0
H783 H 0.44257 0.38766 0.65069 0.0
H784 H 0.37966 0.28473 0.658 0.0
H785 H 0.47787 0.33412 0.68324 0.0
H786 H 0.36636 0.21456 0.66195 0.0
H787 H 0.34647 0.23388 0.668 0.0
H788 H 0.35877 0.22012 0.69944 0.0
H789 H 0.50503 0.30792 0.69127 0.0
H790 H 0.48318 0.26813 0.69635 0.0
H791 H 0.48565 0.29129 0.72613 0.0
H792 H 0.4495 0.34686 0.88463 0.0
H793 H 0.42254 0.29864 0.88724 0.0
H794 H 0.51593 0.31807 0.86995 0.0
H795 H 0.38151 0.24305 0.83654 0.0
H796 H 0.37656 0.2544 0.87261 0.0
H797 H 0.38122 0.22322 0.86976 0.0
H798 H 0.52497 0.28486 0.84545 0.0
H799 H 0.49617 0.26557 0.81604 0.0
H800 H 0.49405 0.24635 0.85038 0.0
H801 H 0.39329 0.05514 0.86578 0.0
H802 H 0.35468 0.00476 0.88252 0.0
H803 H 0.33831 0.02715 0.87398 0.0
H804 H 0.34279 0.01879 0.9123 0.0
H805 H 0.3478 0.09398 0.8889 0.0
H806 H 0.44113 0.11277 0.87426 0.0
H807 H 0.34887 0.14343 0.8334 0.0
H808 H 0.36027 0.16176 0.86865 0.0
H809 H 0.32938 0.12305 0.86733 0.0
H810 H 0.47955 0.15508 0.84721 0.0
H811 H 0.47462 0.18621 0.84815 0.0
H812 H 0.46235 0.16366 0.81563 0.0
H813 H 0.41751 0.21117 0.66559 0.0
H814 H 0.42806 0.27518 0.74527 0.0
H815 H 0.4346 0.27458 0.79827 0.0
H816 H 0.42808 0.20386 0.87156 0.0
H817 H 0.40001 0.13349 0.79332 0.0
H818 H 0.39871 0.13582 0.73955 0.0
H819 H 0.48692 0.39898 0.86622 0.0
H820 H 0.49268 0.37331 0.84696 0.0
H821 H 0.51996 0.39545 0.87626 0.0
C822 C 0.12177 0.51647 0.04328 0.0
C823 C 0.08831 0.50109 0.04145 0.0
C824 C 0.08405 0.468 0.08299 0.0
C825 C 0.11716 0.48656 0.08826 0.0
N826 N 0.16782 0.5181 0.06473 0.0
N827 N 0.03717 0.46361 0.06096 0.0
C828 C 0.13626 0.50786 0.06579 0.0
C829 C 0.06934 0.47692 0.06136 0.0
N830 N 0.13961 0.53992 0.0242 0.0
N831 N 0.06686 0.44116 0.09752 0.0
H832 H 0.0253 0.46948 0.04565 0.0
H833 H 0.02244 0.44854 0.0774 0.0
H834 H 0.07688 0.43296 0.1124 0.0
H835 H 0.04338 0.42543 0.09215 0.0
H836 H 0.16396 0.55439 0.02656 0.0
H837 H 0.12965 0.54601 0.00686 0.0
H838 H 0.18275 0.53202 0.04777 0.0
H839 H 0.17829 0.50954 0.07862 0.0
C840 C 0.58392 0.04522 0.58854 0.0
C841 C 0.59377 0.05784 0.55936 0.0
C842 C 0.64498 0.09659 0.58007 0.0
C843 C 0.63701 0.08104 0.60816 0.0
N844 N 0.59345 0.05185 0.64192 0.0
N845 N 0.63376 0.09557 0.52681 0.0
C846 C 0.60471 0.0588 0.61331 0.0
C847 C 0.62435 0.08354 0.55496 0.0
N848 N 0.5556 0.01904 0.59245 0.0
N849 N 0.66978 0.12533 0.57832 0.0
H850 H 0.61863 0.08826 0.50819 0.0
H851 H 0.65712 0.11173 0.52164 0.0
H852 H 0.68103 0.13752 0.59739 0.0
H853 H 0.67557 0.13856 0.55898 0.0
H854 H 0.54902 0.00709 0.61268 0.0
H855 H 0.53991 0.00764 0.5749 0.0
H856 H 0.56949 0.03805 0.64688 0.0
H857 H 0.60747 0.06261 0.6606 0.0
C858 C 0.5901 0.59225 0.13109 0.0
C859 C 0.60868 0.59404 0.10663 0.0
C860 C 0.64192 0.64792 0.11146 0.0
C861 C 0.62703 0.64563 0.13914 0.0
N862 N 0.57833 0.61823 0.16698 0.0
N863 N 0.65262 0.62265 0.07374 0.0
C864 C 0.59858 0.61844 0.14673 0.0
C865 C 0.63452 0.62169 0.09674 0.0
N866 N 0.56424 0.5654 0.13919 0.0
N867 N 0.66122 0.67501 0.09806 0.0
H868 H 0.64757 0.60373 0.06247 0.0
H869 H 0.67394 0.64165 0.06749 0.0
H870 H 0.66478 0.69454 0.10652 0.0
H871 H 0.6704 0.67783 0.07666 0.0
H872 H 0.552 0.56135 0.15908 0.0
H873 H 0.55551 0.54651 0.1264 0.0
H874 H 0.55627 0.59976 0.17224 0.0
H875 H 0.58166 0.63744 0.17606 0.0
C876 C 0.9113 0.52878 0.56151 0.0
C877 C 0.94111 0.53325 0.55484 0.0
C878 C 0.96278 0.55939 0.60181 0.0
C879 C 0.93516 0.56016 0.60573 0.0
N880 N 0.87833 0.53086 0.59891 0.0
N881 N 0.997 0.55777 0.56594 0.0
C882 C 0.90779 0.54078 0.58819 0.0
C883 C 0.9673 0.5497 0.57438 0.0
N884 N 0.88647 0.51313 0.54219 0.0
N885 N 0.98371 0.56602 0.62501 0.0
H886 H 1.0018 0.55313 0.54492 0.0
H887 H 0.01723 0.57205 0.5784 0.0
H888 H 0.9795 0.57045 0.64641 0.0
H889 H 1.00287 0.56333 0.62397 0.0
H890 H 0.86507 0.51199 0.54355 0.0
H891 H 0.88805 0.50271 0.52351 0.0
H892 H 0.85737 0.51551 0.58814 0.0
H893 H 0.87479 0.53422 0.62091 0.0
C894 C 0.45984 1.0001 0.11234 0.0
C895 C 0.45743 0.97857 0.09282 0.0
C896 C 0.4248 0.9393 0.12959 0.0
C897 C 0.42328 0.96053 0.14685 0.0
N898 N 0.45789 0.01034 0.16427 0.0
N899 N 0.44878 0.92993 0.08808 0.0
C900 C 0.44646 0.99092 0.14131 0.0
C901 C 0.44326 0.94872 0.10304 0.0
N902 N 0.474 0.02904 0.10322 0.0
N903 N 0.40925 0.91038 0.13896 0.0
H904 H 0.46362 0.93675 0.06955 0.0
H905 H 0.4413 0.9085 0.0954 0.0
H906 H 0.40114 0.904 0.16077 0.0
H907 H 0.40496 0.89297 0.12555 0.0
H908 H 0.4735 0.04484 0.11597 0.0
H909 H 0.48419 0.03668 0.08215 0.0
H910 H 0.47613 0.03247 0.1616 0.0
H911 H 0.4528 0.0029 0.18652 0.0
C912 C 0.41773 0.39062 0.58215 0.0
C913 C 0.45541 0.41977 0.5981 0.0
C914 C 0.47388 0.37377 0.61877 0.0
C915 C 0.43201 0.34468 0.60965 0.0
N916 N 0.37921 0.32979 0.57306 0.0
N917 N 0.51179 0.4341 0.62513 0.0
C918 C 0.4063 0.35212 0.58503 0.0
C919 C 0.48341 0.4116 0.61545 0.0
N920 N 0.39962 0.39777 0.56564 0.0
N921 N 0.49512 0.36686 0.62801 0.0
H922 H 0.51751 0.45594 0.62325 0.0
H923 H 0.52803 0.43005 0.63564 0.0
H924 H 0.48871 0.34479 0.62872 0.0
H925 H 0.51834 0.38331 0.63338 0.0
H926 H 0.37866 0.38144 0.55554 0.0
H927 H 0.4061 0.41967 0.56227 0.0
H928 H 0.36414 0.33381 0.5602 0.0
H929 H 0.37315 0.30795 0.57651 0.0
C930 C 0.56606 0.95311 0.46143 0.0
C931 C 0.53286 0.93892 0.46407 0.0
C932 C 0.52526 0.89811 0.43346 0.0
C933 C 0.55879 0.91169 0.43242 0.0
N934 N 0.60888 0.95865 0.43204 0.0
N935 N 0.48081 0.90231 0.44661 0.0
C936 C 0.57856 0.94136 0.44207 0.0
C937 C 0.51239 0.91261 0.44832 0.0
N938 N 0.58577 0.97688 0.4787 0.0
N939 N 0.50574 0.87167 0.41987 0.0
H940 H 0.47105 0.91298 0.4567 0.0
H941 H 0.4646 0.88474 0.4334 0.0
H942 H 0.51369 0.86338 0.40387 0.0
H943 H 0.48159 0.85817 0.42398 0.0
H944 H 0.61021 0.98639 0.47961 0.0
H945 H 0.57739 0.98498 0.4945 0.0
H946 H 0.62325 0.98116 0.43654 0.0
H947 H 0.61823 0.95149 0.41622 0.0
C948 C 0.61029 0.54892 0.93227 0.0
C949 C 0.60433 0.5609 0.95735 0.0
C950 C 0.64747 0.61039 0.94204 0.0
C951 C 0.65885 0.597 0.92357 0.0
N952 N 0.64063 0.55901 0.88685 0.0
N953 N 0.61451 0.60381 0.98419 0.0
C954 C 0.63685 0.56781 0.91399 0.0
C955 C 0.62151 0.59202 0.96118 0.0
N956 N 0.59141 0.51933 0.92689 0.0
N957 N 0.66025 0.64019 0.93986 0.0
H958 H 0.59499 0.59112 0.99795 0.0
H959 H 0.62886 0.6259 0.99028 0.0
H960 H 0.67692 0.65316 0.92348 0.0
H961 H 0.65152 0.65105 0.95129 0.0
H962 H 0.59663 0.50848 0.91127 0.0
H963 H 0.57073 0.50552 0.93889 0.0
H964 H 0.62433 0.53864 0.87755 0.0
H965 H 0.65835 0.57377 0.87209 0.0
C966 C 0.08197 0.60257 0.5 0.0
C967 C 0.08491 0.58162 0.48403 0.0
C968 C 0.10967 0.61767 0.44247 0.0
C969 C 0.11085 0.63992 0.46032 0.0
N970 N 0.08098 0.64728 0.49689 0.0
N971 N 0.10347 0.56952 0.44067 0.0
C972 C 0.09203 0.63063 0.48657 0.0
C973 C 0.09957 0.58933 0.45555 0.0
N974 N 0.0704 0.59593 0.52852 0.0
N975 N 0.11349 0.62195 0.41214 0.0
H976 H 0.0952 0.5481 0.44875 0.0
H977 H 0.11722 0.57519 0.4215 0.0
H978 H 0.11403 0.63965 0.40095 0.0
H979 H 0.11059 0.60576 0.3976 0.0
H980 H 0.0707 0.61144 0.5424 0.0
H981 H 0.06346 0.57578 0.53935 0.0
H982 H 0.06465 0.64023 0.51414 0.0
H983 H 0.08485 0.66632 0.48562 0.0
C984 C 0.45259 0.03691 0.9134 0.0
C985 C 0.44088 0.0231 0.94157 0.0
C986 C 0.40303 0.03883 0.94046 0.0
C987 C 0.41015 0.04753 0.90956 0.0
N988 N 0.44589 0.05881 0.86798 0.0
N989 N 0.40493 0.0096 0.98221 0.0
C990 C 0.43643 0.04808 0.89652 0.0
C991 C 0.41635 0.02402 0.9553 0.0
N992 N 0.47972 0.03979 0.90321 0.0
N993 N 0.38412 0.04512 0.956 0.0
H994 H 0.4149 0.99929 0.99401 0.0
H995 H 0.38431 0.00599 0.99177 0.0
H996 H 0.37343 0.05579 0.94677 0.0
H997 H 0.38138 0.04231 0.97916 0.0
H998 H 0.49197 0.05243 0.88443 0.0
H999 H 0.49144 0.03119 0.91506 0.0
H1000 H 0.46044 0.05468 0.85555 0.0
H1001 H 0.43974 0.07225 0.85641 0.0
C1002 C 0.40842 0.41794 0.46412 0.0
C1003 C 0.43035 0.45859 0.4642 0.0
C1004 C 0.37119 0.45919 0.43775 0.0
C1005 C 0.3536 0.41917 0.43048 0.0
N1006 N 0.35053 0.36701 0.44934 0.0
N1007 N 0.428 0.5089 0.45234 0.0
C1008 C 0.3679 0.39688 0.44968 0.0
C1009 C 0.41164 0.47896 0.45196 0.0
N1010 N 0.42125 0.40319 0.47643 0.0
N1011 N 0.35556 0.47279 0.43047 0.0
H1012 H 0.4521 0.5215 0.45728 0.0
H1013 H 0.41736 0.52042 0.4454 0.0
H1014 H 0.33244 0.46048 0.42209 0.0
H1015 H 0.36571 0.49535 0.43383 0.0
H1016 H 0.40862 0.38011 0.47694 0.0
H1017 H 0.44375 0.41412 0.48609 0.0
H1018 H 0.35897 0.35445 0.45891 0.0
H1019 H 0.32804 0.35609 0.43944 0.0
C1020 C 0.94003 0.41594 0.94252 0.0
C1021 C 0.96116 0.42246 0.96692 0.0
C1022 C 0.9713 0.38487 0.95069 0.0
C1023 C 0.94576 0.37468 0.92983 0.0
N1024 N 0.92286 0.39313 0.89412 0.0
N1025 N 0.99828 0.41468 0.99419 0.0
C1026 C 0.93477 0.39378 0.92215 0.0
C1027 C 0.97755 0.40762 0.97074 0.0
N1028 N 0.92462 0.43063 0.9392 0.0
N1029 N 0.99073 0.37416 0.94986 0.0
H1030 H 0.00388 0.43179 0.00867 0.0
H1031 H 0.00836 0.40251 1.00044 0.0
H1032 H 0.98807 0.35914 0.93385 0.0
H1033 H 0.01137 0.38243 0.96264 0.0
H1034 H 0.90632 0.42466 0.92372 0.0
H1035 H 0.92869 0.44746 0.95352 0.0
H1036 H 0.9164 0.40788 0.88662 0.0
H1037 H 0.9243 0.38111 0.87691 0.0
C1038 C 0.03581 0.6056 0.93038 0.0
C1039 C 0.01797 0.58186 0.9509 0.0
C1040 C 0.96945 0.58003 0.93514 0.0
C1041 C 0.98838 0.60676 0.91829 0.0
N1042 N 0.03417 0.63274 0.88661 0.0
N1043 N 0.96692 0.54089 0.96684 0.0
C1044 C 0.01998 0.61576 0.91161 0.0
C1045 C 0.98437 0.56707 0.95115 0.0
N1046 N 0.06792 0.61892 0.92937 0.0
N1047 N 0.93737 0.56731 0.93581 0.0
H1048 H 0.97697 0.53079 0.97874 0.0
H1049 H 0.94235 0.52791 0.9669 0.0
H1050 H 0.92552 0.57385 0.92117 0.0
H1051 H 0.92218 0.55001 0.95019 0.0
H1052 H 0.08254 0.63853 0.91735 0.0
H1053 H 0.07998 0.611 0.9418 0.0
H1054 H 0.05644 0.63833 0.87948 0.0
H1055 H 0.0218 0.63778 0.87093 0.0
C1056 C 0.44805 0.01243 0.44734 0.0
C1057 C 0.4746 0.01082 0.44052 0.0
C1058 C 0.4394 0.95892 0.42611 0.0
C1059 C 0.4128 0.95962 0.43596 0.0
N1060 N 0.39168 0.99087 0.44169 0.0
N1061 N 0.4956 0.98618 0.41465 0.0
C1062 C 0.41701 0.98757 0.4422 0.0
C1063 C 0.47031 0.98506 0.42738 0.0
N1064 N 0.45243 0.03765 0.45931 0.0
N1065 N 0.43511 0.93358 0.41461 0.0
H1066 H 0.51839 0.00507 0.41487 0.0
H1067 H 0.49404 0.96932 0.40215 0.0
H1068 H 0.41334 0.91651 0.40666 0.0
H1069 H 0.45324 0.92976 0.41186 0.0
H1070 H 0.43403 0.03906 0.46768 0.0
H1071 H 0.47476 0.05654 0.463 0.0
H1072 H 0.39379 0.01131 0.44281 0.0
H1073 H 0.36868 0.97388 0.43663 0.0
C1074 C 0.47732 0.40922 0.9536 0.0
C1075 C 0.5022 0.41133 0.97162 0.0
C1076 C 0.4952 0.36812 0.9469 0.0
C1077 C 0.47764 0.37154 0.92331 0.0
N1078 N 0.44789 0.39363 0.90689 0.0
N1079 N 0.5371 0.39402 0.98327 0.0
C1080 C 0.4672 0.39143 0.92759 0.0
C1081 C 0.51181 0.39112 0.96766 0.0
N1082 N 0.46239 0.42305 0.96215 0.0
N1083 N 0.49336 0.34188 0.95169 0.0
H1084 H 0.55069 0.41134 0.99791 0.0
H1085 H 0.54623 0.38085 0.97923 0.0
H1086 H 0.47613 0.32249 0.94128 0.0
H1087 H 0.50463 0.33826 0.96974 0.0
H1088 H 0.44224 0.42026 0.95144 0.0
H1089 H 0.46799 0.43467 0.98205 0.0
H1090 H 0.44353 0.41066 0.90668 0.0
H1091 H 0.43718 0.37924 0.88909 0.0
C1092 C 0.05863 0.44289 0.43873 0.0
C1093 C 0.03381 0.44387 0.42365 0.0
C1094 C 0.04152 0.42259 0.37912 0.0
C1095 C 0.06402 0.41885 0.39565 0.0
N1096 N 0.10549 0.441 0.43311 0.0
N1097 N 0.00844 0.4435 0.37721 0.0
C1098 C 0.07629 0.43395 0.42294 0.0
C1099 C 0.02735 0.43638 0.39302 0.0
N1100 N 0.06446 0.44888 0.4685 0.0
N1101 N 0.03407 0.41337 0.35022 0.0
H1102 H 0.99894 0.45462 0.38687 0.0
H1103 H 0.00419 0.44077 0.35425 0.0
H1104 H 0.04756 0.40799 0.3377 0.0
H1105 H 0.01476 0.41127 0.33844 0.0
H1106 H 0.07979 0.44498 0.4811 0.0
H1107 H 0.05228 0.45543 0.48124 0.0
H1108 H 0.1166 0.45418 0.4517 0.0
H1109 H 0.12043 0.43738 0.42055 0.0
C1110 C 0.62064 0.05964 0.97894 0.0
C1111 C 0.59331 0.05752 0.96602 0.0
C1112 C 0.61937 0.07443 0.91752 0.0
C1113 C 0.64797 0.07847 0.93024 0.0
N1114 N 0.67563 0.07537 0.97457 0.0
N1115 N 0.5708 0.07257 0.92686 0.0
C1116 C 0.64866 0.07158 0.96149 0.0
C1117 C 0.59439 0.06853 0.93668 0.0
N1118 N 0.61925 0.04831 0.00716 0.0
N1119 N 0.61449 0.07356 0.88715 0.0
H1120 H 0.55224 0.06843 0.94072 0.0
H1121 H 0.57168 0.08304 0.90646 0.0
H1122 H 0.62985 0.07404 0.87152 0.0
H1123 H 0.59288 0.06813 0.87746 0.0
H1124 H 0.63661 0.04518 0.01638 0.0
H1125 H 0.60005 0.04084 0.02128 0.0
H1126 H 0.67942 0.07633 0.99767 0.0
H1127 H 0.69465 0.07788 0.96279 0.0
C1128 C 0.57596 0.61364 0.44445 0.0
C1129 C 0.57175 0.60534 0.47501 0.0
C1130 C 0.59895 0.65785 0.48778 0.0
C1131 C 0.6075 0.66594 0.45697 0.0
N1132 N 0.61484 0.64836 0.40992 0.0
N1133 N 0.58305 0.61965 0.52657 0.0
C1134 C 0.599 0.64301 0.43621 0.0
C1135 C 0.58392 0.62745 0.49702 0.0
N1136 N 0.55929 0.59284 0.42325 0.0
N1137 N 0.60572 0.67892 0.5084 0.0
H1138 H 0.57218 0.59768 0.53398 0.0
H1139 H 0.59499 0.63499 0.54342 0.0
H1140 H 0.61945 0.70162 0.50393 0.0
H1141 H 0.59643 0.67368 0.52996 0.0
H1142 H 0.5604 0.59827 0.40045 0.0
H1143 H 0.54204 0.57097 0.42907 0.0
H1144 H 0.61006 0.63149 0.39536 0.0
H1145 H 0.63572 0.66835 0.40493 0.0
C1146 C 0.43462 0.06439 0.55512 0.0
C1147 C 0.43289 0.03804 0.5646 0.0
C1148 C 0.41068 0.03917 0.61272 0.0
C1149 C 0.40943 0.06397 0.60176 0.0
N1150 N 0.43538 0.10792 0.56999 0.0
N1151 N 0.4262 0.00371 0.60406 0.0
C1152 C 0.42597 0.07898 0.57514 0.0
C1153 C 0.42282 0.02633 0.59396 0.0
N1154 N 0.4438 0.0751 0.5266 0.0
N1155 N 0.40129 0.02868 0.6413 0.0
H1156 H 0.43615 0.99487 0.59104 0.0
H1157 H 0.42084 0.99447 0.62558 0.0
H1158 H 0.39819 0.0407 0.65727 0.0
H1159 H 0.39751 0.00869 0.64975 0.0
H1160 H 0.44192 0.0922 0.51715 0.0
H1161 H 0.45114 0.06541 0.51166 0.0
H1162 H 0.44978 0.12068 0.55218 0.0
H1163 H 0.43268 0.12044 0.58573 0.0
C1164 C 0.45124 0.51575 0.08436 0.0
C1165 C 0.46852 0.50271 0.07732 0.0
C1166 C 0.4331 0.45928 0.1087 0.0
C1167 C 0.41642 0.47295 0.11686 0.0
N1168 N 0.42118 0.52038 0.12266 0.0
N1169 N 0.48317 0.46777 0.09277 0.0
C1170 C 0.42884 0.50307 0.1078 0.0
C1171 C 0.46149 0.47599 0.09216 0.0
N1172 N 0.45588 0.54008 0.0686 0.0
N1173 N 0.42259 0.43065 0.11711 0.0
H1174 H 0.50571 0.48095 0.08374 0.0
H1175 H 0.48051 0.44999 0.10569 0.0
H1176 H 0.40441 0.41809 0.13225 0.0
H1177 H 0.43147 0.41883 0.1079 0.0
H1178 H 0.44161 0.54867 0.07125 0.0
H1179 H 0.47181 0.54977 0.05094 0.0
H1180 H 0.43162 0.54294 0.11791 0.0
H1181 H 0.40823 0.51359 0.1424 0.0
C1182 C 0.96687 0.40785 0.56456 0.0
C1183 C 0.99456 0.43649 0.56767 0.0
C1184 C 1.0012 0.4235 0.61922 0.0
C1185 C 0.97127 0.39642 0.61719 0.0
N1186 N 0.93996 0.35717 0.58245 0.0
N1187 N 0.0403 0.47064 0.5972 0.0
C1188 C 0.95814 0.38671 0.58819 0.0
C1189 C 0.01236 0.44403 0.59474 0.0
N1190 N 0.9481 0.40099 0.53952 0.0
N1191 N 0.02069 0.42937 0.64336 0.0
H1192 H 0.04963 0.4863 0.57968 0.0
H1193 H 0.05381 0.47694 0.61694 0.0
H1194 H 0.01593 0.41411 0.6608 0.0
H1195 H 0.01593 0.41411 0.6608 0.0
H1196 H 0.92614 0.38125 0.5377 0.0
H1197 H 0.95285 0.41611 0.52199 0.0
H1198 H 0.93178 0.34899 0.56102 0.0
H1199 H 0.93754 0.34118 0.59811 0.0
C1200 C 0.54286 0.90623 0.06209 0.0
C1201 C 0.55712 0.93566 0.05108 0.0
C1202 C 0.60736 0.94837 0.07536 0.0
C1203 C 0.59148 0.92006 0.09005 0.0
N1204 N 0.55242 0.86866 0.08014 0.0
N1205 N 0.60344 0.98421 0.04372 0.0
C1206 C 0.56148 0.89773 0.07854 0.0
C1207 C 0.5897 0.95652 0.05646 0.0
N1208 N 0.51126 0.88659 0.05759 0.0
N1209 N 0.63954 0.96641 0.07786 0.0
H1210 H 0.59188 0.98966 0.02753 0.0
H1211 H 0.62574 1.00193 0.04965 0.0
H1212 H 0.65334 0.95999 0.08953 0.0
H1213 H 0.65309 0.98645 0.06626 0.0
H1214 H 0.499 0.86564 0.06783 0.0
H1215 H 0.49693 0.89224 0.04564 0.0
H1216 H 0.53163 0.85177 0.0703 0.0
H1217 H 0.56811 0.86221 0.08666 0.0
C1218 C 0.62371 0.5189 0.54641 0.0
C1219 C 0.59274 0.49379 0.54982 0.0
C1220 C 0.6072 0.48287 0.59881 0.0
C1221 C 0.6351 0.51182 0.59844 0.0
N1222 N 0.67726 0.54765 0.5665 0.0
N1223 N 0.55979 0.44594 0.5731 0.0
C1224 C 0.64593 0.52666 0.57028 0.0
C1225 C 0.5864 0.47359 0.57374 0.0
N1226 N 0.63089 0.53627 0.52116 0.0
N1227 N 0.59957 0.4639 0.62268 0.0
H1228 H 0.54467 0.43858 0.55444 0.0
H1229 H 0.5544 0.43019 0.59018 0.0
H1230 H 0.61404 0.46847 0.64159 0.0
H1231 H 0.61404 0.46847 0.64159 0.0
H1232 H 0.65162 0.557 0.51864 0.0
H1233 H 0.6152 0.52972 0.50297 0.0
H1234 H 0.68691 0.55814 0.54601 0.0
H1235 H 0.69408 0.55188 0.58322 0.0
C1236 C 0.03318 0.5919 0.13348 0.0
C1237 C 0.04311 0.59912 0.10335 0.0
C1238 C 0.08392 0.64965 0.118 0.0
C1239 C 0.07776 0.64049 0.14865 0.0
N1240 N 0.03459 0.61064 0.18251 0.0
N1241 N 0.07637 0.63525 0.06593 0.0
C1242 C 0.04863 0.61389 0.15559 0.0
C1243 C 0.068 0.6282 0.0953 0.0
N1244 N 0.0101 0.56357 0.14126 0.0
N1245 N 0.10181 0.67913 0.11064 0.0
H1246 H 0.06336 0.62093 0.04862 0.0
H1247 H 0.09689 0.65466 0.05892 0.0
H1248 H 0.10875 0.69546 0.12656 0.0
H1249 H 0.1056 0.68747 0.08871 0.0
H1250 H 0.00429 0.55627 0.16345 0.0
H1251 H 0.99871 0.54675 0.12565 0.0
H1252 H 0.01202 0.59283 0.18776 0.0
H1253 H 0.0439 0.62763 0.19799 0.0
loop_
_geom_bond_atom_site_label_1
_geom_bond_atom_site_label_2
_geom_bond_distance
_geom_bond_site_symmetry_2
_ccdc_geom_bond_type
Cu0 N1 1.999 1_554 S
Cu0 O6 1.974 1_554 S
Cu0 N11 1.985 . S
Cu0 O20 1.959 . S
N1 Cu0 1.999 1_556 S
N1 C3 1.263 1_455 S
N1 C5 1.389 1_456 S
N2 C3 1.358 . S
N2 C4 1.400 . S
C3 N1 1.263 1_655 S
C3 N2 1.358 . S
C3 H9 0.930 1_655 S
C4 N2 1.400 . S
C4 C5 1.351 1_556 S
C4 H21 0.930 . S
C5 N1 1.389 1_654 S
C5 C4 1.351 1_554 S
C5 H10 0.930 . S
O6 Cu0 1.974 1_556 S
O6 C16 1.282 . S
C7 O8 1.261 . S
C7 O20 1.251 . S
O8 C7 1.261 . S
H9 C3 0.930 1_455 S
H10 C5 0.930 . S
N11 Cu0 1.985 . S
N11 C13 1.335 . S
N11 C14 1.390 . S
N12 C13 1.345 . S
N12 C15 1.336 . S
C13 N11 1.335 . S
C13 N12 1.345 . S
C13 H18 0.930 . S
C14 N11 1.390 . S
C14 C15 1.346 . S
C14 H19 0.930 1_554 S
C15 N12 1.336 . S
C15 C14 1.346 . S
C15 H22 0.929 . S
C16 O6 1.282 . S
C16 O17 1.216 . S
O17 C16 1.216 . S
H18 C13 0.930 . S
H19 C14 0.930 1_556 S
O20 Cu0 1.959 . S
O20 C7 1.251 . S
H21 C4 0.930 . S
H22 C15 0.929 . S
Cu23 N24 1.999 . S
Cu23 O29 1.974 . S
Cu23 N34 1.985 1_565 S
Cu23 O43 1.959 1_565 S
N24 Cu23 1.999 . S
N24 C26 1.263 . S
N24 C28 1.389 . S
N25 C26 1.358 . S
N25 C27 1.400 . S
C26 N24 1.263 . S
C26 N25 1.358 . S
C26 H32 0.930 . S
C27 N25 1.400 . S
C27 C28 1.351 . S
C27 H44 0.930 . S
C28 N24 1.389 . S
C28 C27 1.351 . S
C28 H33 0.930 . S
O29 Cu23 1.974 . S
O29 C39 1.282 . S
C30 O31 1.261 . S
C30 O43 1.251 . S
O31 C30 1.261 . S
H32 C26 0.930 . S
H33 C28 0.930 . S
N34 Cu23 1.985 1_545 S
N34 C36 1.335 . S
N34 C37 1.390 . S
N35 C36 1.345 . S
N35 C38 1.336 . S
C36 N34 1.335 . S
C36 N35 1.345 . S
C36 H41 0.930 . S
C37 N34 1.390 . S
C37 C38 1.346 . S
C37 H42 0.930 . S
C38 N35 1.336 . S
C38 C37 1.346 . S
C38 H45 0.929 . S
C39 O29 1.282 . S
C39 O40 1.216 1_565 S
O40 C39 1.216 1_545 S
H41 C36 0.930 . S
H42 C37 0.930 . S
O43 Cu23 1.959 1_545 S
O43 C30 1.251 . S
H44 C27 0.930 . S
H45 C38 0.929 . S
Cu46 N47 1.999 1_554 S
Cu46 O52 1.974 1_554 S
Cu46 N57 1.985 . S
Cu46 O66 1.959 . S
N47 Cu46 1.999 1_556 S
N47 C49 1.263 . S
N47 C51 1.389 . S
N48 C49 1.358 . S
N48 C50 1.400 . S
C49 N47 1.263 . S
C49 N48 1.358 . S
C49 H55 0.930 . S
C50 N48 1.400 . S
C50 C51 1.351 . S
C50 H67 0.930 . S
C51 N47 1.389 . S
C51 C50 1.351 . S
C51 H56 0.930 . S
O52 Cu46 1.974 1_556 S
O52 C62 1.282 . S
C53 O54 1.261 . S
C53 O66 1.251 . S
O54 C53 1.261 . S
H55 C49 0.930 . S
H56 C51 0.930 . S
N57 Cu46 1.985 . S
N57 C59 1.335 . S
N57 C60 1.390 . S
N58 C59 1.345 . S
N58 C61 1.336 . S
C59 N57 1.335 . S
C59 N58 1.345 . S
C59 H64 0.930 . S
C60 N57 1.390 . S
C60 C61 1.346 . S
C60 H65 0.930 . S
C61 N58 1.336 . S
C61 C60 1.346 . S
C61 H68 0.929 . S
C62 O52 1.282 . S
C62 O63 1.216 1_556 S
O63 C62 1.216 1_554 S
H64 C59 0.930 . S
H65 C60 0.930 . S
O66 Cu46 1.959 . S
O66 C53 1.251 . S
H67 C50 0.930 . S
H68 C61 0.929 . S
Cu69 N70 1.999 1_655 S
Cu69 O75 1.974 1_655 S
Cu69 N80 1.985 . S
Cu69 O89 1.959 . S
N70 Cu69 1.999 1_455 S
N70 C72 1.263 . S
N70 C74 1.389 1_455 S
N71 C72 1.358 . S
N71 C73 1.400 . S
C72 N70 1.263 . S
C72 N71 1.358 . S
C72 H78 0.930 . S
C73 N71 1.400 . S
C73 C74 1.351 1_455 S
C73 H90 0.930 1_455 S
C74 N70 1.389 1_655 S
C74 C73 1.351 1_655 S
C74 H79 0.930 . S
O75 Cu69 1.974 1_455 S
O75 C85 1.282 . S
C76 O77 1.261 1_655 S
C76 O89 1.251 . S
O77 C76 1.261 1_455 S
H78 C72 0.930 . S
H79 C74 0.930 . S
N80 Cu69 1.985 . S
N80 C82 1.335 . S
N80 C83 1.390 . S
N81 C82 1.345 . S
N81 C84 1.336 . S
C82 N80 1.335 . S
C82 N81 1.345 . S
C82 H87 0.930 . S
C83 N80 1.390 . S
C83 C84 1.346 . S
C83 H88 0.930 1_655 S
C84 N81 1.336 . S
C84 C83 1.346 . S
C84 H91 0.929 . S
C85 O75 1.282 . S
C85 O86 1.216 . S
O86 C85 1.216 . S
H87 C82 0.930 . S
H88 C83 0.930 1_455 S
O89 Cu69 1.959 . S
O89 C76 1.251 . S
H90 C73 0.930 1_655 S
H91 C84 0.929 . S
Cu92 N93 1.999 . S
Cu92 O98 1.974 . S
Cu92 N103 1.972 1_545 S
Cu92 O112 1.959 . S
N93 Cu92 1.999 . S
N93 C95 1.263 1_554 S
N93 C97 1.389 . S
N94 C95 1.358 . S
N94 C96 1.400 1_556 S
C95 N93 1.263 1_556 S
C95 N94 1.358 . S
C95 H101 0.930 . S
C96 N94 1.400 1_554 S
C96 C97 1.351 . S
C96 H113 0.930 . S
C97 N93 1.389 . S
C97 C96 1.351 . S
C97 H102 0.930 . S
O98 Cu92 1.974 . S
O98 C108 1.282 1_554 S
C99 O100 1.261 . S
C99 O112 1.251 1_565 S
O100 C99 1.261 . S
H101 C95 0.930 . S
H102 C97 0.930 . S
N103 Cu92 1.972 1_565 S
N103 C105 1.341 . S
N103 C106 1.399 . S
N104 C105 1.345 . S
N104 C107 1.336 . S
C105 N103 1.341 . S
C105 N104 1.345 . S
C105 H110 0.930 . S
C106 N103 1.399 . S
C106 C107 1.346 . S
C106 H111 0.930 1_565 S
C107 N104 1.336 . S
C107 C106 1.346 . S
C107 H114 0.929 . S
C108 O98 1.282 1_556 S
C108 O109 1.216 . S
O109 C108 1.216 . S
H110 C105 0.930 . S
H111 C106 0.930 1_545 S
O112 Cu92 1.959 . S
O112 C99 1.251 1_545 S
H113 C96 0.930 . S
H114 C107 0.929 . S
Cu115 N116 1.999 . S
Cu115 O121 1.974 . S
Cu115 N126 1.985 . S
Cu115 O135 1.959 . S
N116 Cu115 1.999 . S
N116 C118 1.263 . S
N116 C120 1.389 . S
N117 C118 1.358 . S
N117 C119 1.400 . S
C118 N116 1.263 . S
C118 N117 1.358 . S
C118 H124 0.930 . S
C119 N117 1.400 . S
C119 C120 1.351 . S
C119 H136 0.930 . S
C120 N116 1.389 . S
C120 C119 1.351 . S
C120 H125 0.930 . S
O121 Cu115 1.974 . S
O121 C131 1.282 . S
C122 O123 1.261 . S
C122 O135 1.251 . S
O123 C122 1.261 . S
H124 C118 0.930 . S
H125 C120 0.930 . S
N126 Cu115 1.985 . S
N126 C128 1.335 . S
N126 C129 1.390 . S
N127 C128 1.345 . S
N127 C130 1.336 . S
C128 N126 1.335 . S
C128 N127 1.345 . S
C128 H133 0.930 . S
C129 N126 1.390 . S
C129 C130 1.346 . S
C129 H134 0.930 . S
C130 N127 1.336 . S
C130 C129 1.346 . S
C130 H137 0.929 . S
C131 O121 1.282 . S
C131 O132 1.216 . S
O132 C131 1.216 . S
H133 C128 0.930 . S
H134 C129 0.930 . S
O135 Cu115 1.959 . S
O135 C122 1.251 . S
H136 C119 0.930 . S
H137 C130 0.929 . S
C138 C139 1.560 . S
C138 H199 0.959 . S
C138 H200 0.959 . S
C138 H201 0.960 . S
C139 C138 1.560 . S
C139 O194 1.426 . S
C139 H198 0.980 . S
C140 C141 1.407 . S
C140 C145 1.418 . S
C140 O194 1.334 . S
C141 C140 1.407 . S
C141 C142 1.360 . S
C141 H202 0.929 . S
C142 C141 1.360 . S
C142 C143 1.401 . S
C142 C146 1.527 . S
C143 C142 1.401 . S
C143 C144 1.405 . S
C143 C176 1.587 . S
C144 C143 1.405 . S
C144 C145 1.332 . S
C144 C147 1.496 . S
C145 C140 1.418 . S
C145 C144 1.332 . S
C145 H203 0.929 . S
C146 C142 1.527 . S
C146 H204 0.959 . S
C146 H205 0.961 . S
C146 H206 0.961 . S
C147 C144 1.496 . S
C147 H207 0.960 . S
C147 H208 0.960 . S
C147 H209 0.961 . S
C148 C149 1.517 . S
C148 H211 0.961 . S
C148 H212 0.960 . S
C148 H213 0.959 . S
C149 C148 1.517 . S
C149 O197 1.468 . S
C149 H210 0.980 . S
C150 C151 1.349 . S
C150 C155 1.367 . S
C150 O197 1.408 . S
C151 C150 1.349 . S
C151 C152 1.407 . S
C151 H214 0.930 . S
C152 C151 1.407 . S
C152 C153 1.449 . S
C152 C156 1.535 . S
C153 C152 1.449 . S
C153 C154 1.384 . S
C153 C178 1.553 . S
C154 C153 1.384 . S
C154 C155 1.364 . S
C154 C157 1.450 . S
C155 C150 1.367 . S
C155 C154 1.364 . S
C155 H215 0.931 . S
C156 C152 1.535 . S
C156 H216 0.959 . S
C156 H217 0.961 . S
C156 H218 0.959 . S
C157 C154 1.450 . S
C157 H219 0.960 . S
C157 H220 0.960 . S
C157 H221 0.960 . S
C158 C159 1.309 . S
C158 C163 1.304 . S
C158 O196 1.435 . S
C159 C158 1.309 . S
C159 C160 1.476 . S
C159 H223 0.930 . S
C160 C159 1.476 . S
C160 C161 1.400 . S
C160 C164 1.567 . S
C161 C160 1.400 . S
C161 C162 1.373 . S
C161 C183 1.432 . S
C162 C161 1.373 . S
C162 C163 1.339 . S
C162 C165 1.530 . S
C163 C158 1.304 . S
C163 C162 1.339 . S
C163 H224 0.930 . S
C164 C160 1.567 . S
C164 H225 0.961 . S
C164 H226 0.960 . S
C164 H227 0.958 . S
C165 C162 1.530 . S
C165 H228 0.961 . S
C165 H229 0.960 . S
C165 H230 0.960 . S
C166 C167 1.530 . S
C166 H232 0.961 . S
C166 H233 0.961 . S
C166 H234 0.959 . S
C167 C166 1.530 . S
C167 O195 1.412 . S
C167 H231 0.980 . S
C168 C169 1.288 . S
C168 C173 1.377 . S
C168 O195 1.393 . S
C169 C168 1.288 . S
C169 C170 1.369 . S
C169 H235 0.932 . S
C170 C169 1.369 . S
C170 C171 1.398 . S
C170 C174 1.527 . S
C171 C170 1.398 . S
C171 C172 1.380 . S
C171 C185 1.497 . S
C172 C171 1.380 . S
C172 C173 1.383 . S
C172 C175 1.603 . S
C173 C168 1.377 . S
C173 C172 1.383 . S
C173 H236 0.929 . S
C174 C170 1.527 . S
C174 H237 0.961 . S
C174 H238 0.959 . S
C174 H239 0.959 . S
C175 C172 1.603 . S
C175 H240 0.960 . S
C175 H241 0.962 . S
C175 H242 0.961 . S
C176 C143 1.587 . S
C176 C177 1.360 . S
C176 C189 1.412 . S
C177 C176 1.360 . S
C177 C178 1.365 . S
C177 H243 0.929 . S
C178 C153 1.553 . S
C178 C177 1.365 . S
C178 C179 1.404 . S
C179 C178 1.404 . S
C179 C180 1.395 . S
C179 C190 1.451 . S
C180 C179 1.395 . S
C180 C181 1.322 . S
C180 H244 0.930 . S
C181 C180 1.322 . S
C181 C182 1.459 . S
C181 H245 0.929 . S
C182 C181 1.459 . S
C182 C183 1.445 . S
C182 C191 1.395 . S
C183 C161 1.432 . S
C183 C182 1.445 . S
C183 C184 1.370 . S
C184 C183 1.370 . S
C184 C185 1.438 . S
C184 H246 0.930 . S
C185 C171 1.497 . S
C185 C184 1.438 . S
C185 C186 1.360 . S
C186 C185 1.360 . S
C186 C187 1.401 . S
C186 C191 1.446 . S
C187 C186 1.401 . S
C187 C188 1.347 . S
C187 H247 0.929 . S
C188 C187 1.347 . S
C188 C189 1.455 . S
C188 H248 0.930 . S
C189 C176 1.412 . S
C189 C188 1.455 . S
C189 C190 1.331 . S
C190 C179 1.451 . S
C190 C189 1.331 . S
C190 C191 1.497 . S
C191 C182 1.395 . S
C191 C186 1.446 . S
C191 C190 1.497 . S
C192 C193 1.582 . S
C192 H249 0.962 . S
C192 H250 0.959 . S
C192 H251 0.958 . S
C193 C192 1.582 . S
C193 O196 1.458 . S
C193 H222 0.980 . S
O194 C139 1.426 . S
O194 C140 1.334 . S
O195 C167 1.412 . S
O195 C168 1.393 . S
O196 C158 1.435 . S
O196 C193 1.458 . S
O197 C149 1.468 . S
O197 C150 1.408 . S
H198 C139 0.980 . S
H199 C138 0.959 . S
H200 C138 0.959 . S
H201 C138 0.960 . S
H202 C141 0.929 . S
H203 C145 0.929 . S
H204 C146 0.959 . S
H205 C146 0.961 . S
H206 C146 0.961 . S
H207 C147 0.960 . S
H208 C147 0.960 . S
H209 C147 0.961 . S
H210 C149 0.980 . S
H211 C148 0.961 . S
H212 C148 0.960 . S
H213 C148 0.959 . S
H214 C151 0.930 . S
H215 C155 0.931 . S
H216 C156 0.959 . S
H217 C156 0.961 . S
H218 C156 0.959 . S
H219 C157 0.960 . S
H220 C157 0.960 . S
H221 C157 0.960 . S
H222 C193 0.980 . S
H223 C159 0.930 . S
H224 C163 0.930 . S
H225 C164 0.961 . S
H226 C164 0.960 . S
H227 C164 0.958 . S
H228 C165 0.961 . S
H229 C165 0.960 . S
H230 C165 0.960 . S
H231 C167 0.980 . S
H232 C166 0.961 . S
H233 C166 0.961 . S
H234 C166 0.959 . S
H235 C169 0.932 . S
H236 C173 0.929 . S
H237 C174 0.961 . S
H238 C174 0.959 . S
H239 C174 0.959 . S
H240 C175 0.960 . S
H241 C175 0.962 . S
H242 C175 0.961 . S
H243 C177 0.929 . S
H244 C180 0.930 . S
H245 C181 0.929 . S
H246 C184 0.930 . S
H247 C187 0.929 . S
H248 C188 0.930 . S
H249 C192 0.962 . S
H250 C192 0.959 . S
H251 C192 0.958 . S
C252 C253 1.560 . S
C252 H313 0.959 . S
C252 H314 0.959 . S
C252 H315 0.960 . S
C253 C252 1.560 . S
C253 O308 1.426 . S
C253 H312 0.980 . S
C254 C255 1.407 . S
C254 C259 1.418 . S
C254 O308 1.334 . S
C255 C254 1.407 . S
C255 C256 1.360 . S
C255 H316 0.929 . S
C256 C255 1.360 . S
C256 C257 1.401 . S
C256 C260 1.527 . S
C257 C256 1.401 . S
C257 C258 1.405 . S
C257 C290 1.587 . S
C258 C257 1.405 . S
C258 C259 1.332 . S
C258 C261 1.496 . S
C259 C254 1.418 . S
C259 C258 1.332 . S
C259 H317 0.929 . S
C260 C256 1.527 . S
C260 H318 0.959 . S
C260 H319 0.961 . S
C260 H320 0.961 . S
C261 C258 1.496 . S
C261 H321 0.960 . S
C261 H322 0.960 . S
C261 H323 0.961 . S
C262 C263 1.517 . S
C262 H325 0.961 . S
C262 H326 0.960 . S
C262 H327 0.959 . S
C263 C262 1.517 . S
C263 O311 1.468 . S
C263 H324 0.980 . S
C264 C265 1.349 . S
C264 C269 1.367 . S
C264 O311 1.408 . S
C265 C264 1.349 . S
C265 C266 1.407 . S
C265 H328 0.930 . S
C266 C265 1.407 . S
C266 C267 1.449 . S
C266 C270 1.535 . S
C267 C266 1.449 . S
C267 C268 1.384 . S
C267 C292 1.553 . S
C268 C267 1.384 . S
C268 C269 1.364 . S
C268 C271 1.450 . S
C269 C264 1.367 . S
C269 C268 1.364 . S
C269 H329 0.931 . S
C270 C266 1.535 . S
C270 H330 0.959 . S
C270 H331 0.961 . S
C270 H332 0.959 . S
C271 C268 1.450 . S
C271 H333 0.960 . S
C271 H334 0.960 . S
C271 H335 0.960 . S
C272 C273 1.309 . S
C272 C277 1.304 . S
C272 O310 1.435 . S
C273 C272 1.309 . S
C273 C274 1.476 . S
C273 H337 0.930 . S
C274 C273 1.476 . S
C274 C275 1.400 . S
C274 C278 1.567 . S
C275 C274 1.400 . S
C275 C276 1.373 . S
C275 C297 1.432 . S
C276 C275 1.373 . S
C276 C277 1.339 . S
C276 C279 1.530 . S
C277 C272 1.304 . S
C277 C276 1.339 . S
C277 H338 0.930 . S
C278 C274 1.567 . S
C278 H339 0.961 . S
C278 H340 0.960 . S
C278 H341 0.958 . S
C279 C276 1.530 . S
C279 H342 0.961 . S
C279 H343 0.960 . S
C279 H344 0.960 . S
C280 C281 1.530 . S
C280 H346 0.961 . S
C280 H347 0.961 . S
C280 H348 0.959 . S
C281 C280 1.530 . S
C281 O309 1.412 . S
C281 H345 0.980 . S
C282 C283 1.288 . S
C282 C287 1.377 . S
C282 O309 1.393 . S
C283 C282 1.288 . S
C283 C284 1.369 . S
C283 H349 0.932 . S
C284 C283 1.369 . S
C284 C285 1.398 . S
C284 C288 1.527 . S
C285 C284 1.398 . S
C285 C286 1.380 . S
C285 C299 1.497 . S
C286 C285 1.380 . S
C286 C287 1.383 . S
C286 C289 1.603 . S
C287 C282 1.377 . S
C287 C286 1.383 . S
C287 H350 0.929 . S
C288 C284 1.527 . S
C288 H351 0.961 . S
C288 H352 0.959 . S
C288 H353 0.959 . S
C289 C286 1.603 . S
C289 H354 0.960 . S
C289 H355 0.962 . S
C289 H356 0.961 . S
C290 C257 1.587 . S
C290 C291 1.360 . S
C290 C303 1.412 . S
C291 C290 1.360 . S
C291 C292 1.365 . S
C291 H357 0.929 . S
C292 C267 1.553 . S
C292 C291 1.365 . S
C292 C293 1.404 . S
C293 C292 1.404 . S
C293 C294 1.395 . S
C293 C304 1.451 . S
C294 C293 1.395 . S
C294 C295 1.322 . S
C294 H358 0.930 . S
C295 C294 1.322 . S
C295 C296 1.459 . S
C295 H359 0.929 . S
C296 C295 1.459 . S
C296 C297 1.445 . S
C296 C305 1.395 . S
C297 C275 1.432 . S
C297 C296 1.445 . S
C297 C298 1.370 . S
C298 C297 1.370 . S
C298 C299 1.438 . S
C298 H360 0.930 . S
C299 C285 1.497 . S
C299 C298 1.438 . S
C299 C300 1.360 . S
C300 C299 1.360 . S
C300 C301 1.401 . S
C300 C305 1.446 . S
C301 C300 1.401 . S
C301 C302 1.347 . S
C301 H361 0.929 . S
C302 C301 1.347 . S
C302 C303 1.455 . S
C302 H362 0.930 . S
C303 C290 1.412 . S
C303 C302 1.455 . S
C303 C304 1.331 . S
C304 C293 1.451 . S
C304 C303 1.331 . S
C304 C305 1.497 . S
C305 C296 1.395 . S
C305 C300 1.446 . S
C305 C304 1.497 . S
C306 C307 1.582 . S
C306 H363 0.962 . S
C306 H364 0.959 . S
C306 H365 0.958 . S
C307 C306 1.582 . S
C307 O310 1.458 . S
C307 H336 0.980 . S
O308 C253 1.426 . S
O308 C254 1.334 . S
O309 C281 1.412 . S
O309 C282 1.393 . S
O310 C272 1.435 . S
O310 C307 1.458 . S
O311 C263 1.468 . S
O311 C264 1.408 . S
H312 C253 0.980 . S
H313 C252 0.959 . S
H314 C252 0.959 . S
H315 C252 0.960 . S
H316 C255 0.929 . S
H317 C259 0.929 . S
H318 C260 0.959 . S
H319 C260 0.961 . S
H320 C260 0.961 . S
H321 C261 0.960 . S
H322 C261 0.960 . S
H323 C261 0.961 . S
H324 C263 0.980 . S
H325 C262 0.961 . S
H326 C262 0.960 . S
H327 C262 0.959 . S
H328 C265 0.930 . S
H329 C269 0.931 . S
H330 C270 0.959 . S
H331 C270 0.961 . S
H332 C270 0.959 . S
H333 C271 0.960 . S
H334 C271 0.960 . S
H335 C271 0.960 . S
H336 C307 0.980 . S
H337 C273 0.930 . S
H338 C277 0.930 . S
H339 C278 0.961 . S
H340 C278 0.960 . S
H341 C278 0.958 . S
H342 C279 0.961 . S
H343 C279 0.960 . S
H344 C279 0.960 . S
H345 C281 0.980 . S
H346 C280 0.961 . S
H347 C280 0.961 . S
H348 C280 0.959 . S
H349 C283 0.932 . S
H350 C287 0.929 . S
H351 C288 0.961 . S
H352 C288 0.959 . S
H353 C288 0.959 . S
H354 C289 0.960 . S
H355 C289 0.962 . S
H356 C289 0.961 . S
H357 C291 0.929 . S
H358 C294 0.930 . S
H359 C295 0.929 . S
H360 C298 0.930 . S
H361 C301 0.929 . S
H362 C302 0.930 . S
H363 C306 0.962 . S
H364 C306 0.959 . S
H365 C306 0.958 . S
C366 C367 1.560 . S
C366 H427 0.959 . S
C366 H428 0.959 . S
C366 H429 0.960 . S
C367 C366 1.560 . S
C367 O422 1.426 . S
C367 H426 0.980 . S
C368 C369 1.407 . S
C368 C373 1.418 . S
C368 O422 1.334 . S
C369 C368 1.407 . S
C369 C370 1.360 . S
C369 H430 0.929 . S
C370 C369 1.360 . S
C370 C371 1.401 . S
C370 C374 1.527 . S
C371 C370 1.401 . S
C371 C372 1.405 . S
C371 C404 1.587 . S
C372 C371 1.405 . S
C372 C373 1.332 . S
C372 C375 1.496 . S
C373 C368 1.418 . S
C373 C372 1.332 . S
C373 H431 0.929 . S
C374 C370 1.527 . S
C374 H432 0.959 . S
C374 H433 0.961 . S
C374 H434 0.961 . S
C375 C372 1.496 . S
C375 H435 0.960 . S
C375 H436 0.960 . S
C375 H437 0.961 . S
C376 C377 1.517 . S
C376 H439 0.961 . S
C376 H440 0.960 . S
C376 H441 0.959 . S
C377 C376 1.517 . S
C377 O425 1.468 . S
C377 H438 0.980 . S
C378 C379 1.349 . S
C378 C383 1.367 . S
C378 O425 1.408 . S
C379 C378 1.349 . S
C379 C380 1.407 . S
C379 H442 0.930 . S
C380 C379 1.407 . S
C380 C381 1.449 . S
C380 C384 1.535 . S
C381 C380 1.449 . S
C381 C382 1.384 . S
C381 C406 1.553 . S
C382 C381 1.384 . S
C382 C383 1.364 . S
C382 C385 1.450 . S
C383 C378 1.367 . S
C383 C382 1.364 . S
C383 H443 0.931 . S
C384 C380 1.535 . S
C384 H444 0.959 . S
C384 H445 0.961 . S
C384 H446 0.959 . S
C385 C382 1.450 . S
C385 H447 0.960 . S
C385 H448 0.960 . S
C385 H449 0.960 . S
C386 C387 1.309 . S
C386 C391 1.304 . S
C386 O424 1.435 . S
C387 C386 1.309 . S
C387 C388 1.476 . S
C387 H451 0.930 . S
C388 C387 1.476 . S
C388 C389 1.400 . S
C388 C392 1.567 . S
C389 C388 1.400 . S
C389 C390 1.373 . S
C389 C411 1.432 . S
C390 C389 1.373 . S
C390 C391 1.339 . S
C390 C393 1.530 . S
C391 C386 1.304 . S
C391 C390 1.339 . S
C391 H452 0.930 . S
C392 C388 1.567 . S
C392 H453 0.961 . S
C392 H454 0.960 . S
C392 H455 0.958 . S
C393 C390 1.530 . S
C393 H456 0.961 . S
C393 H457 0.960 . S
C393 H458 0.960 . S
C394 C395 1.530 . S
C394 H460 0.961 . S
C394 H461 0.961 . S
C394 H462 0.959 . S
C395 C394 1.530 . S
C395 O423 1.412 . S
C395 H459 0.980 . S
C396 C397 1.288 . S
C396 C401 1.377 . S
C396 O423 1.393 . S
C397 C396 1.288 . S
C397 C398 1.369 . S
C397 H463 0.932 . S
C398 C397 1.369 . S
C398 C399 1.398 . S
C398 C402 1.527 . S
C399 C398 1.398 . S
C399 C400 1.380 . S
C399 C413 1.497 . S
C400 C399 1.380 . S
C400 C401 1.383 . S
C400 C403 1.603 . S
C401 C396 1.377 . S
C401 C400 1.383 . S
C401 H464 0.929 . S
C402 C398 1.527 . S
C402 H465 0.961 . S
C402 H466 0.959 . S
C402 H467 0.959 . S
C403 C400 1.603 . S
C403 H468 0.960 . S
C403 H469 0.962 . S
C403 H470 0.961 . S
C404 C371 1.587 . S
C404 C405 1.360 . S
C404 C417 1.412 . S
C405 C404 1.360 . S
C405 C406 1.365 . S
C405 H471 0.929 . S
C406 C381 1.553 . S
C406 C405 1.365 . S
C406 C407 1.404 . S
C407 C406 1.404 . S
C407 C408 1.395 . S
C407 C418 1.451 . S
C408 C407 1.395 . S
C408 C409 1.322 . S
C408 H472 0.930 . S
C409 C408 1.322 . S
C409 C410 1.459 . S
C409 H473 0.929 . S
C410 C409 1.459 . S
C410 C411 1.445 . S
C410 C419 1.395 . S
C411 C389 1.432 . S
C411 C410 1.445 . S
C411 C412 1.370 . S
C412 C411 1.370 . S
C412 C413 1.438 . S
C412 H474 0.930 . S
C413 C399 1.497 . S
C413 C412 1.438 . S
C413 C414 1.360 . S
C414 C413 1.360 . S
C414 C415 1.401 . S
C414 C419 1.446 . S
C415 C414 1.401 . S
C415 C416 1.347 . S
C415 H475 0.929 . S
C416 C415 1.347 . S
C416 C417 1.455 . S
C416 H476 0.930 . S
C417 C404 1.412 . S
C417 C416 1.455 . S
C417 C418 1.331 . S
C418 C407 1.451 . S
C418 C417 1.331 . S
C418 C419 1.497 . S
C419 C410 1.395 . S
C419 C414 1.446 . S
C419 C418 1.497 . S
C420 C421 1.582 . S
C420 H477 0.962 . S
C420 H478 0.959 . S
C420 H479 0.958 . S
C421 C420 1.582 . S
C421 O424 1.458 . S
C421 H450 0.980 . S
O422 C367 1.426 . S
O422 C368 1.334 . S
O423 C395 1.412 . S
O423 C396 1.393 . S
O424 C386 1.435 . S
O424 C421 1.458 . S
O425 C377 1.468 . S
O425 C378 1.408 . S
H426 C367 0.980 . S
H427 C366 0.959 . S
H428 C366 0.959 . S
H429 C366 0.960 . S
H430 C369 0.929 . S
H431 C373 0.929 . S
H432 C374 0.959 . S
H433 C374 0.961 . S
H434 C374 0.961 . S
H435 C375 0.960 . S
H436 C375 0.960 . S
H437 C375 0.961 . S
H438 C377 0.980 . S
H439 C376 0.961 . S
H440 C376 0.960 . S
H441 C376 0.959 . S
H442 C379 0.930 . S
H443 C383 0.931 . S
H444 C384 0.959 . S
H445 C384 0.961 . S
H446 C384 0.959 . S
H447 C385 0.960 . S
H448 C385 0.960 . S
H449 C385 0.960 . S
H450 C421 0.980 . S
H451 C387 0.930 . S
H452 C391 0.930 . S
H453 C392 0.961 . S
H454 C392 0.960 . S
H455 C392 0.958 . S
H456 C393 0.961 . S
H457 C393 0.960 . S
H458 C393 0.960 . S
H459 C395 0.980 . S
H460 C394 0.961 . S
H461 C394 0.961 . S
H462 C394 0.959 . S
H463 C397 0.932 . S
H464 C401 0.929 . S
H465 C402 0.961 . S
H466 C402 0.959 . S
H467 C402 0.959 . S
H468 C403 0.960 . S
H469 C403 0.962 . S
H470 C403 0.961 . S
H471 C405 0.929 . S
H472 C408 0.930 . S
H473 C409 0.929 . S
H474 C412 0.930 . S
H475 C415 0.929 . S
H476 C416 0.930 . S
H477 C420 0.962 . S
H478 C420 0.959 . S
H479 C420 0.958 . S
C480 C481 1.560 . S
C480 H541 0.959 . S
C480 H542 0.959 . S
C480 H543 0.960 . S
C481 C480 1.560 . S
C481 O536 1.426 . S
C481 H540 0.980 . S
C482 C483 1.407 . S
C482 C487 1.418 . S
C482 O536 1.334 . S
C483 C482 1.407 . S
C483 C484 1.360 . S
C483 H544 0.929 . S
C484 C483 1.360 . S
C484 C485 1.401 . S
C484 C488 1.527 . S
C485 C484 1.401 . S
C485 C486 1.405 . S
C485 C518 1.587 . S
C486 C485 1.405 . S
C486 C487 1.332 . S
C486 C489 1.496 . S
C487 C482 1.418 . S
C487 C486 1.332 . S
C487 H545 0.929 . S
C488 C484 1.527 . S
C488 H546 0.959 . S
C488 H547 0.961 . S
C488 H548 0.961 . S
C489 C486 1.496 . S
C489 H549 0.960 . S
C489 H550 0.960 . S
C489 H551 0.961 . S
C490 C491 1.517 . S
C490 H553 0.961 . S
C490 H554 0.960 . S
C490 H555 0.959 1_655 S
C491 C490 1.517 . S
C491 O539 1.468 . S
C491 H552 0.980 . S
C492 C493 1.349 . S
C492 C497 1.367 . S
C492 O539 1.408 . S
C493 C492 1.349 . S
C493 C494 1.407 . S
C493 H556 0.930 . S
C494 C493 1.407 . S
C494 C495 1.449 . S
C494 C498 1.535 . S
C495 C494 1.449 . S
C495 C496 1.384 . S
C495 C520 1.553 . S
C496 C495 1.384 . S
C496 C497 1.364 . S
C496 C499 1.450 . S
C497 C492 1.367 . S
C497 C496 1.364 . S
C497 H557 0.931 . S
C498 C494 1.535 . S
C498 H558 0.959 . S
C498 H559 0.961 . S
C498 H560 0.959 . S
C499 C496 1.450 . S
C499 H561 0.960 . S
C499 H562 0.960 . S
C499 H563 0.960 . S
C500 C501 1.309 . S
C500 C505 1.304 . S
C500 O538 1.435 . S
C501 C500 1.309 . S
C501 C502 1.476 . S
C501 H565 0.930 . S
C502 C501 1.476 . S
C502 C503 1.400 . S
C502 C506 1.567 . S
C503 C502 1.400 . S
C503 C504 1.373 . S
C503 C525 1.432 . S
C504 C503 1.373 . S
C504 C505 1.339 . S
C504 C507 1.530 . S
C505 C500 1.304 . S
C505 C504 1.339 . S
C505 H566 0.930 . S
C506 C502 1.567 . S
C506 H567 0.961 . S
C506 H568 0.960 . S
C506 H569 0.958 . S
C507 C504 1.530 . S
C507 H570 0.961 . S
C507 H571 0.960 . S
C507 H572 0.960 . S
C508 C509 1.530 . S
C508 H574 0.961 . S
C508 H575 0.961 . S
C508 H576 0.959 . S
C509 C508 1.530 . S
C509 O537 1.412 . S
C509 H573 0.980 . S
C510 C511 1.288 . S
C510 C515 1.377 . S
C510 O537 1.393 . S
C511 C510 1.288 . S
C511 C512 1.369 . S
C511 H577 0.932 . S
C512 C511 1.369 . S
C512 C513 1.398 . S
C512 C516 1.527 . S
C513 C512 1.398 . S
C513 C514 1.380 . S
C513 C527 1.497 . S
C514 C513 1.380 . S
C514 C515 1.383 . S
C514 C517 1.603 . S
C515 C510 1.377 . S
C515 C514 1.383 . S
C515 H578 0.929 . S
C516 C512 1.527 . S
C516 H579 0.961 . S
C516 H580 0.959 . S
C516 H581 0.959 . S
C517 C514 1.603 . S
C517 H582 0.960 . S
C517 H583 0.962 . S
C517 H584 0.961 . S
C518 C485 1.587 . S
C518 C519 1.360 . S
C518 C531 1.412 . S
C519 C518 1.360 . S
C519 C520 1.365 . S
C519 H585 0.929 . S
C520 C495 1.553 . S
C520 C519 1.365 . S
C520 C521 1.404 . S
C521 C520 1.404 . S
C521 C522 1.395 . S
C521 C532 1.451 . S
C522 C521 1.395 . S
C522 C523 1.322 . S
C522 H586 0.930 . S
C523 C522 1.322 . S
C523 C524 1.459 . S
C523 H587 0.929 . S
C524 C523 1.459 . S
C524 C525 1.445 . S
C524 C533 1.395 . S
C525 C503 1.432 . S
C525 C524 1.445 . S
C525 C526 1.370 . S
C526 C525 1.370 . S
C526 C527 1.438 . S
C526 H588 0.930 . S
C527 C513 1.497 . S
C527 C526 1.438 . S
C527 C528 1.360 . S
C528 C527 1.360 . S
C528 C529 1.401 . S
C528 C533 1.446 . S
C529 C528 1.401 . S
C529 C530 1.347 . S
C529 H589 0.929 . S
C530 C529 1.347 . S
C530 C531 1.455 . S
C530 H590 0.930 . S
C531 C518 1.412 . S
C531 C530 1.455 . S
C531 C532 1.331 . S
C532 C521 1.451 . S
C532 C531 1.331 . S
C532 C533 1.497 . S
C533 C524 1.395 . S
C533 C528 1.446 . S
C533 C532 1.497 . S
C534 C535 1.582 . S
C534 H591 0.962 . S
C534 H592 0.959 . S
C534 H593 0.958 . S
C535 C534 1.582 . S
C535 O538 1.458 . S
C535 H564 0.980 . S
O536 C481 1.426 . S
O536 C482 1.334 . S
O537 C509 1.412 . S
O537 C510 1.393 . S
O538 C500 1.435 . S
O538 C535 1.458 . S
O539 C491 1.468 . S
O539 C492 1.408 . S
H540 C481 0.980 . S
H541 C480 0.959 . S
H542 C480 0.959 . S
H543 C480 0.960 . S
H544 C483 0.929 . S
H545 C487 0.929 . S
H546 C488 0.959 . S
H547 C488 0.961 . S
H548 C488 0.961 . S
H549 C489 0.960 . S
H550 C489 0.960 . S
H551 C489 0.961 . S
H552 C491 0.980 . S
H553 C490 0.961 . S
H554 C490 0.960 . S
H555 C490 0.959 1_455 S
H556 C493 0.930 . S
H557 C497 0.931 . S
H558 C498 0.959 . S
H559 C498 0.961 . S
H560 C498 0.959 . S
H561 C499 0.960 . S
H562 C499 0.960 . S
H563 C499 0.960 . S
H564 C535 0.980 . S
H565 C501 0.930 . S
H566 C505 0.930 . S
H567 C506 0.961 . S
H568 C506 0.960 . S
H569 C506 0.958 . S
H570 C507 0.961 . S
H571 C507 0.960 . S
H572 C507 0.960 . S
H573 C509 0.980 . S
H574 C508 0.961 . S
H575 C508 0.961 . S
H576 C508 0.959 . S
H577 C511 0.932 . S
H578 C515 0.929 . S
H579 C516 0.961 . S
H580 C516 0.959 . S
H581 C516 0.959 . S
H582 C517 0.960 . S
H583 C517 0.962 . S
H584 C517 0.961 . S
H585 C519 0.929 . S
H586 C522 0.930 . S
H587 C523 0.929 . S
H588 C526 0.930 . S
H589 C529 0.929 . S
H590 C530 0.930 . S
H591 C534 0.962 . S
H592 C534 0.959 . S
H593 C534 0.958 . S
C594 C595 1.560 . S
C594 H655 0.959 . S
C594 H656 0.959 . S
C594 H657 0.960 . S
C595 C594 1.560 . S
C595 O650 1.426 . S
C595 H654 0.980 . S
C596 C597 1.407 . S
C596 C601 1.418 . S
C596 O650 1.334 . S
C597 C596 1.407 . S
C597 C598 1.360 . S
C597 H658 0.929 . S
C598 C597 1.360 . S
C598 C599 1.401 . S
C598 C602 1.527 . S
C599 C598 1.401 . S
C599 C600 1.405 . S
C599 C632 1.587 . S
C600 C599 1.405 . S
C600 C601 1.332 . S
C600 C603 1.496 . S
C601 C596 1.418 . S
C601 C600 1.332 . S
C601 H659 0.929 . S
C602 C598 1.527 . S
C602 H660 0.959 . S
C602 H661 0.961 . S
C602 H662 0.961 . S
C603 C600 1.496 . S
C603 H663 0.960 . S
C603 H664 0.960 . S
C603 H665 0.961 . S
C604 C605 1.517 . S
C604 H667 0.961 . S
C604 H668 0.960 . S
C604 H669 0.959 . S
C605 C604 1.517 . S
C605 O653 1.468 . S
C605 H666 0.980 . S
C606 C607 1.349 . S
C606 C611 1.367 . S
C606 O653 1.408 . S
C607 C606 1.349 . S
C607 C608 1.407 . S
C607 H670 0.930 . S
C608 C607 1.407 . S
C608 C609 1.449 . S
C608 C612 1.535 . S
C609 C608 1.449 . S
C609 C610 1.384 . S
C609 C634 1.553 . S
C610 C609 1.384 . S
C610 C611 1.364 . S
C610 C613 1.450 . S
C611 C606 1.367 . S
C611 C610 1.364 . S
C611 H671 0.931 . S
C612 C608 1.535 . S
C612 H672 0.959 . S
C612 H673 0.961 . S
C612 H674 0.959 . S
C613 C610 1.450 . S
C613 H675 0.960 . S
C613 H676 0.960 . S
C613 H677 0.960 . S
C614 C615 1.309 . S
C614 C619 1.304 . S
C614 O652 1.435 . S
C615 C614 1.309 . S
C615 C616 1.476 . S
C615 H679 0.930 . S
C616 C615 1.476 . S
C616 C617 1.400 . S
C616 C620 1.567 . S
C617 C616 1.400 . S
C617 C618 1.373 . S
C617 C639 1.432 . S
C618 C617 1.373 . S
C618 C619 1.339 . S
C618 C621 1.530 . S
C619 C614 1.304 . S
C619 C618 1.339 . S
C619 H680 0.930 . S
C620 C616 1.567 . S
C620 H681 0.961 . S
C620 H682 0.960 . S
C620 H683 0.958 . S
C621 C618 1.530 . S
C621 H684 0.961 . S
C621 H685 0.960 . S
C621 H686 0.960 . S
C622 C623 1.530 . S
C622 H688 0.961 . S
C622 H689 0.961 . S
C622 H690 0.959 . S
C623 C622 1.530 . S
C623 O651 1.412 . S
C623 H687 0.980 . S
C624 C625 1.288 . S
C624 C629 1.377 . S
C624 O651 1.393 . S
C625 C624 1.288 . S
C625 C626 1.369 . S
C625 H691 0.932 . S
C626 C625 1.369 . S
C626 C627 1.398 . S
C626 C630 1.527 . S
C627 C626 1.398 . S
C627 C628 1.380 . S
C627 C641 1.497 . S
C628 C627 1.380 . S
C628 C629 1.383 . S
C628 C631 1.603 . S
C629 C624 1.377 . S
C629 C628 1.383 . S
C629 H692 0.929 . S
C630 C626 1.527 . S
C630 H693 0.961 . S
C630 H694 0.959 . S
C630 H695 0.959 . S
C631 C628 1.603 . S
C631 H696 0.960 . S
C631 H697 0.962 . S
C631 H698 0.961 . S
C632 C599 1.587 . S
C632 C633 1.360 . S
C632 C645 1.412 . S
C633 C632 1.360 . S
C633 C634 1.365 . S
C633 H699 0.929 . S
C634 C609 1.553 . S
C634 C633 1.365 . S
C634 C635 1.404 . S
C635 C634 1.404 . S
C635 C636 1.395 . S
C635 C646 1.451 . S
C636 C635 1.395 . S
C636 C637 1.322 . S
C636 H700 0.930 . S
C637 C636 1.322 . S
C637 C638 1.459 . S
C637 H701 0.929 . S
C638 C637 1.459 . S
C638 C639 1.445 . S
C638 C647 1.395 . S
C639 C617 1.432 . S
C639 C638 1.445 . S
C639 C640 1.370 . S
C640 C639 1.370 . S
C640 C641 1.438 . S
C640 H702 0.930 . S
C641 C627 1.497 . S
C641 C640 1.438 . S
C641 C642 1.360 . S
C642 C641 1.360 . S
C642 C643 1.401 . S
C642 C647 1.446 . S
C643 C642 1.401 . S
C643 C644 1.347 . S
C643 H703 0.929 . S
C644 C643 1.347 . S
C644 C645 1.455 . S
C644 H704 0.930 . S
C645 C632 1.412 . S
C645 C644 1.455 . S
C645 C646 1.331 . S
C646 C635 1.451 . S
C646 C645 1.331 . S
C646 C647 1.497 . S
C647 C638 1.395 . S
C647 C642 1.446 . S
C647 C646 1.497 . S
C648 C649 1.582 . S
C648 H705 0.962 . S
C648 H706 0.959 . S
C648 H707 0.958 . S
C649 C648 1.582 . S
C649 O652 1.458 . S
C649 H678 0.980 . S
O650 C595 1.426 . S
O650 C596 1.334 . S
O651 C623 1.412 . S
O651 C624 1.393 . S
O652 C614 1.435 . S
O652 C649 1.458 . S
O653 C605 1.468 . S
O653 C606 1.408 . S
H654 C595 0.980 . S
H655 C594 0.959 . S
H656 C594 0.959 . S
H657 C594 0.960 . S
H658 C597 0.929 . S
H659 C601 0.929 . S
H660 C602 0.959 . S
H661 C602 0.961 . S
H662 C602 0.961 . S
H663 C603 0.960 . S
H664 C603 0.960 . S
H665 C603 0.961 . S
H666 C605 0.980 . S
H667 C604 0.961 . S
H668 C604 0.960 . S
H669 C604 0.959 . S
H670 C607 0.930 . S
H671 C611 0.931 . S
H672 C612 0.959 . S
H673 C612 0.961 . S
H674 C612 0.959 . S
H675 C613 0.960 . S
H676 C613 0.960 . S
H677 C613 0.960 . S
H678 C649 0.980 . S
H679 C615 0.930 . S
H680 C619 0.930 . S
H681 C620 0.961 . S
H682 C620 0.960 . S
H683 C620 0.958 . S
H684 C621 0.961 . S
H685 C621 0.960 . S
H686 C621 0.960 . S
H687 C623 0.980 . S
H688 C622 0.961 . S
H689 C622 0.961 . S
H690 C622 0.959 . S
H691 C625 0.932 . S
H692 C629 0.929 . S
H693 C630 0.961 . S
H694 C630 0.959 . S
H695 C630 0.959 . S
H696 C631 0.960 . S
H697 C631 0.962 . S
H698 C631 0.961 . S
H699 C633 0.929 . S
H700 C636 0.930 . S
H701 C637 0.929 . S
H702 C640 0.930 . S
H703 C643 0.929 . S
H704 C644 0.930 . S
H705 C648 0.962 . S
H706 C648 0.959 . S
H707 C648 0.958 . S
C708 C709 1.560 . S
C708 H769 0.959 . S
C708 H770 0.959 . S
C708 H771 0.960 . S
C709 C708 1.560 . S
C709 O764 1.426 . S
C709 H768 0.980 . S
C710 C711 1.407 . S
C710 C715 1.418 . S
C710 O764 1.334 . S
C711 C710 1.407 . S
C711 C712 1.360 . S
C711 H772 0.929 . S
C712 C711 1.360 . S
C712 C713 1.401 . S
C712 C716 1.527 . S
C713 C712 1.401 . S
C713 C714 1.405 . S
C713 C746 1.587 . S
C714 C713 1.405 . S
C714 C715 1.332 . S
C714 C717 1.496 . S
C715 C710 1.418 . S
C715 C714 1.332 . S
C715 H773 0.929 . S
C716 C712 1.527 . S
C716 H774 0.959 . S
C716 H775 0.961 . S
C716 H776 0.961 . S
C717 C714 1.496 . S
C717 H777 0.960 . S
C717 H778 0.960 . S
C717 H779 0.961 . S
C718 C719 1.517 . S
C718 H781 0.961 . S
C718 H782 0.960 . S
C718 H783 0.959 . S
C719 C718 1.517 . S
C719 O767 1.468 . S
C719 H780 0.980 . S
C720 C721 1.349 . S
C720 C725 1.367 . S
C720 O767 1.408 . S
C721 C720 1.349 . S
C721 C722 1.407 . S
C721 H784 0.930 . S
C722 C721 1.407 . S
C722 C723 1.449 . S
C722 C726 1.535 . S
C723 C722 1.449 . S
C723 C724 1.384 . S
C723 C748 1.553 . S
C724 C723 1.384 . S
C724 C725 1.364 . S
C724 C727 1.450 . S
C725 C720 1.367 . S
C725 C724 1.364 . S
C725 H785 0.931 . S
C726 C722 1.535 . S
C726 H786 0.959 . S
C726 H787 0.961 . S
C726 H788 0.959 . S
C727 C724 1.450 . S
C727 H789 0.960 . S
C727 H790 0.960 . S
C727 H791 0.960 . S
C728 C729 1.309 . S
C728 C733 1.304 . S
C728 O766 1.435 . S
C729 C728 1.309 . S
C729 C730 1.476 . S
C729 H793 0.930 . S
C730 C729 1.476 . S
C730 C731 1.400 . S
C730 C734 1.567 . S
C731 C730 1.400 . S
C731 C732 1.373 . S
C731 C753 1.432 . S
C732 C731 1.373 . S
C732 C733 1.339 . S
C732 C735 1.530 . S
C733 C728 1.304 . S
C733 C732 1.339 . S
C733 H794 0.930 . S
C734 C730 1.567 . S
C734 H795 0.961 . S
C734 H796 0.960 . S
C734 H797 0.958 . S
C735 C732 1.530 . S
C735 H798 0.961 . S
C735 H799 0.960 . S
C735 H800 0.960 . S
C736 C737 1.530 . S
C736 H802 0.961 . S
C736 H803 0.961 . S
C736 H804 0.959 . S
C737 C736 1.530 . S
C737 O765 1.412 . S
C737 H801 0.980 . S
C738 C739 1.288 . S
C738 C743 1.377 . S
C738 O765 1.393 . S
C739 C738 1.288 . S
C739 C740 1.369 . S
C739 H805 0.932 . S
C740 C739 1.369 . S
C740 C741 1.398 . S
C740 C744 1.527 . S
C741 C740 1.398 . S
C741 C742 1.380 . S
C741 C755 1.497 . S
C742 C741 1.380 . S
C742 C743 1.383 . S
C742 C745 1.603 . S
C743 C738 1.377 . S
C743 C742 1.383 . S
C743 H806 0.929 . S
C744 C740 1.527 . S
C744 H807 0.961 . S
C744 H808 0.959 . S
C744 H809 0.959 . S
C745 C742 1.603 . S
C745 H810 0.960 . S
C745 H811 0.962 . S
C745 H812 0.961 . S
C746 C713 1.587 . S
C746 C747 1.360 . S
C746 C759 1.412 . S
C747 C746 1.360 . S
C747 C748 1.365 . S
C747 H813 0.929 . S
C748 C723 1.553 . S
C748 C747 1.365 . S
C748 C749 1.404 . S
C749 C748 1.404 . S
C749 C750 1.395 . S
C749 C760 1.451 . S
C750 C749 1.395 . S
C750 C751 1.322 . S
C750 H814 0.930 . S
C751 C750 1.322 . S
C751 C752 1.459 . S
C751 H815 0.929 . S
C752 C751 1.459 . S
C752 C753 1.445 . S
C752 C761 1.395 . S
C753 C731 1.432 . S
C753 C752 1.445 . S
C753 C754 1.370 . S
C754 C753 1.370 . S
C754 C755 1.438 . S
C754 H816 0.930 . S
C755 C741 1.497 . S
C755 C754 1.438 . S
C755 C756 1.360 . S
C756 C755 1.360 . S
C756 C757 1.401 . S
C756 C761 1.446 . S
C757 C756 1.401 . S
C757 C758 1.347 . S
C757 H817 0.929 . S
C758 C757 1.347 . S
C758 C759 1.455 . S
C758 H818 0.930 . S
C759 C746 1.412 . S
C759 C758 1.455 . S
C759 C760 1.331 . S
C760 C749 1.451 . S
C760 C759 1.331 . S
C760 C761 1.497 . S
C761 C752 1.395 . S
C761 C756 1.446 . S
C761 C760 1.497 . S
C762 C763 1.582 . S
C762 H819 0.962 . S
C762 H820 0.959 . S
C762 H821 0.958 . S
C763 C762 1.582 . S
C763 O766 1.458 . S
C763 H792 0.980 . S
O764 C709 1.426 . S
O764 C710 1.334 . S
O765 C737 1.412 . S
O765 C738 1.393 . S
O766 C728 1.435 . S
O766 C763 1.458 . S
O767 C719 1.468 . S
O767 C720 1.408 . S
H768 C709 0.980 . S
H769 C708 0.959 . S
H770 C708 0.959 . S
H771 C708 0.960 . S
H772 C711 0.929 . S
H773 C715 0.929 . S
H774 C716 0.959 . S
H775 C716 0.961 . S
H776 C716 0.961 . S
H777 C717 0.960 . S
H778 C717 0.960 . S
H779 C717 0.961 . S
H780 C719 0.980 . S
H781 C718 0.961 . S
H782 C718 0.960 . S
H783 C718 0.959 . S
H784 C721 0.930 . S
H785 C725 0.931 . S
H786 C726 0.959 . S
H787 C726 0.961 . S
H788 C726 0.959 . S
H789 C727 0.960 . S
H790 C727 0.960 . S
H791 C727 0.960 . S
H792 C763 0.980 . S
H793 C729 0.930 . S
H794 C733 0.930 . S
H795 C734 0.961 . S
H796 C734 0.960 . S
H797 C734 0.958 . S
H798 C735 0.961 . S
H799 C735 0.960 . S
H800 C735 0.960 . S
H801 C737 0.980 . S
H802 C736 0.961 . S
H803 C736 0.961 . S
H804 C736 0.959 . S
H805 C739 0.932 . S
H806 C743 0.929 . S
H807 C744 0.961 . S
H808 C744 0.959 . S
H809 C744 0.959 . S
H810 C745 0.960 . S
H811 C745 0.962 . S
H812 C745 0.961 . S
H813 C747 0.929 . S
H814 C750 0.930 . S
H815 C751 0.929 . S
H816 C754 0.930 . S
H817 C757 0.929 . S
H818 C758 0.930 . S
H819 C762 0.962 . S
H820 C762 0.959 . S
H821 C762 0.958 . S
C822 C823 1.363 . S
C822 C828 1.379 . S
C822 N830 1.356 . S
C823 C822 1.363 . S
C823 C829 1.363 . S
C824 C825 1.363 . S
C824 C829 1.379 . S
C824 N831 1.356 . S
C825 C824 1.363 . S
C825 C828 1.363 . S
N826 C828 1.356 . S
N826 H838 0.984 . S
N826 H839 0.985 . S
N827 C829 1.356 . S
N827 H832 0.984 . S
N827 H833 0.985 . S
C828 C822 1.379 . S
C828 C825 1.363 . S
C828 N826 1.356 . S
C829 C823 1.363 . S
C829 C824 1.379 . S
C829 N827 1.356 . S
N830 C822 1.356 . S
N830 H836 0.984 . S
N830 H837 0.984 . S
N831 C824 1.356 . S
N831 H834 0.984 . S
N831 H835 0.985 . S
H832 N827 0.984 . S
H833 N827 0.985 . S
H834 N831 0.984 . S
H835 N831 0.985 . S
H836 N830 0.984 . S
H837 N830 0.984 . S
H838 N826 0.984 . S
H839 N826 0.985 . S
C840 C841 1.363 . S
C840 C846 1.379 . S
C840 N848 1.356 . S
C841 C840 1.363 . S
C841 C847 1.363 . S
C842 C843 1.363 . S
C842 C847 1.379 . S
C842 N849 1.356 . S
C843 C842 1.363 . S
C843 C846 1.363 . S
N844 C846 1.356 . S
N844 H856 0.984 . S
N844 H857 0.985 . S
N845 C847 1.356 . S
N845 H850 0.984 . S
N845 H851 0.985 . S
C846 C840 1.379 . S
C846 C843 1.363 . S
C846 N844 1.356 . S
C847 C841 1.363 . S
C847 C842 1.379 . S
C847 N845 1.356 . S
N848 C840 1.356 . S
N848 H854 0.984 1_545 S
N848 H855 0.984 . S
N849 C842 1.356 . S
N849 H852 0.984 . S
N849 H853 0.985 . S
H850 N845 0.984 . S
H851 N845 0.985 . S
H852 N849 0.984 . S
H853 N849 0.985 . S
H854 N848 0.984 1_565 S
H855 N848 0.984 . S
H856 N844 0.984 . S
H857 N844 0.985 . S
C858 C859 1.363 . S
C858 C864 1.379 . S
C858 N866 1.356 . S
C859 C858 1.363 . S
C859 C865 1.363 . S
C860 C861 1.363 . S
C860 C865 1.379 . S
C860 N867 1.356 . S
C861 C860 1.363 . S
C861 C864 1.363 . S
N862 C864 1.356 . S
N862 H874 0.984 . S
N862 H875 0.985 . S
N863 C865 1.356 . S
N863 H868 0.984 . S
N863 H869 0.985 . S
C864 C858 1.379 . S
C864 C861 1.363 . S
C864 N862 1.356 . S
C865 C859 1.363 . S
C865 C860 1.379 . S
C865 N863 1.356 . S
N866 C858 1.356 . S
N866 H872 0.984 . S
N866 H873 0.984 . S
N867 C860 1.356 . S
N867 H870 0.984 . S
N867 H871 0.985 . S
H868 N863 0.984 . S
H869 N863 0.985 . S
H870 N867 0.984 . S
H871 N867 0.985 . S
H872 N866 0.984 . S
H873 N866 0.984 . S
H874 N862 0.984 . S
H875 N862 0.985 . S
C876 C877 1.363 . S
C876 C882 1.379 . S
C876 N884 1.356 . S
C877 C876 1.363 . S
C877 C883 1.363 . S
C878 C879 1.363 . S
C878 C883 1.379 . S
C878 N885 1.356 . S
C879 C878 1.363 . S
C879 C882 1.363 . S
N880 C882 1.356 . S
N880 H892 0.984 . S
N880 H893 0.985 . S
N881 C883 1.356 . S
N881 H886 0.984 . S
N881 H887 0.985 1_655 S
C882 C876 1.379 . S
C882 C879 1.363 . S
C882 N880 1.356 . S
C883 C877 1.363 . S
C883 C878 1.379 . S
C883 N881 1.356 . S
N884 C876 1.356 . S
N884 H890 0.984 . S
N884 H891 0.984 . S
N885 C878 1.356 . S
N885 H888 0.984 . S
N885 H889 0.985 1_655 S
H886 N881 0.984 . S
H887 N881 0.985 1_455 S
H888 N885 0.984 . S
H889 N885 0.985 1_455 S
H890 N884 0.984 . S
H891 N884 0.984 . S
H892 N880 0.984 . S
H893 N880 0.985 . S
C894 C895 1.363 . S
C894 C900 1.379 . S
C894 N902 1.356 1_565 S
C895 C894 1.363 . S
C895 C901 1.363 . S
C896 C897 1.363 . S
C896 C901 1.379 . S
C896 N903 1.356 . S
C897 C896 1.363 . S
C897 C900 1.363 . S
N898 C900 1.356 . S
N898 H910 0.984 1_565 S
N898 H911 0.985 . S
N899 C901 1.356 . S
N899 H904 0.984 . S
N899 H905 0.985 . S
C900 C894 1.379 . S
C900 C897 1.363 . S
C900 N898 1.356 . S
C901 C895 1.363 . S
C901 C896 1.379 . S
C901 N899 1.356 . S
N902 C894 1.356 1_545 S
N902 H908 0.984 . S
N902 H909 0.984 . S
N903 C896 1.356 . S
N903 H906 0.984 . S
N903 H907 0.985 . S
H904 N899 0.984 . S
H905 N899 0.985 . S
H906 N903 0.984 . S
H907 N903 0.985 . S
H908 N902 0.984 . S
H909 N902 0.984 . S
H910 N898 0.984 1_545 S
H911 N898 0.985 . S
C912 C913 1.363 . S
C912 C918 1.379 . S
C912 N920 1.356 . S
C913 C912 1.363 . S
C913 C919 1.363 . S
C914 C915 1.363 . S
C914 C919 1.379 . S
C914 N921 1.356 . S
C915 C914 1.363 . S
C915 C918 1.363 . S
N916 C918 1.356 . S
N916 H928 0.984 . S
N916 H929 0.985 . S
N917 C919 1.356 . S
N917 H922 0.984 . S
N917 H923 0.985 . S
C918 C912 1.379 . S
C918 C915 1.363 . S
C918 N916 1.356 . S
C919 C913 1.363 . S
C919 C914 1.379 . S
C919 N917 1.356 . S
N920 C912 1.356 . S
N920 H926 0.984 . S
N920 H927 0.984 . S
N921 C914 1.356 . S
N921 H924 0.984 . S
N921 H925 0.985 . S
H922 N917 0.984 . S
H923 N917 0.985 . S
H924 N921 0.984 . S
H925 N921 0.985 . S
H926 N920 0.984 . S
H927 N920 0.984 . S
H928 N916 0.984 . S
H929 N916 0.985 . S
C930 C931 1.363 . S
C930 C936 1.379 . S
C930 N938 1.356 . S
C931 C930 1.363 . S
C931 C937 1.363 . S
C932 C933 1.363 . S
C932 C937 1.379 . S
C932 N939 1.356 . S
C933 C932 1.363 . S
C933 C936 1.363 . S
N934 C936 1.356 . S
N934 H946 0.984 . S
N934 H947 0.985 . S
N935 C937 1.356 . S
N935 H940 0.984 . S
N935 H941 0.985 . S
C936 C930 1.379 . S
C936 C933 1.363 . S
C936 N934 1.356 . S
C937 C931 1.363 . S
C937 C932 1.379 . S
C937 N935 1.356 . S
N938 C930 1.356 . S
N938 H944 0.984 1_565 S
N938 H945 0.984 . S
N939 C932 1.356 . S
N939 H942 0.984 . S
N939 H943 0.985 . S
H940 N935 0.984 . S
H941 N935 0.985 . S
H942 N939 0.984 . S
H943 N939 0.985 . S
H944 N938 0.984 1_545 S
H945 N938 0.984 . S
H946 N934 0.984 . S
H947 N934 0.985 . S
C948 C949 1.363 . S
C948 C954 1.379 . S
C948 N956 1.356 . S
C949 C948 1.363 . S
C949 C955 1.363 . S
C950 C951 1.363 . S
C950 C955 1.379 . S
C950 N957 1.356 . S
C951 C950 1.363 . S
C951 C954 1.363 . S
N952 C954 1.356 . S
N952 H964 0.984 . S
N952 H965 0.985 . S
N953 C955 1.356 . S
N953 H958 0.990 . S
N953 H959 0.985 . S
C954 C948 1.379 . S
C954 C951 1.363 . S
C954 N952 1.356 . S
C955 C949 1.363 . S
C955 C950 1.379 . S
C955 N953 1.356 . S
N956 C948 1.356 . S
N956 H962 0.984 . S
N956 H963 0.984 . S
N957 C950 1.356 . S
N957 H960 0.984 . S
N957 H961 0.985 . S
H958 N953 0.990 . S
H959 N953 0.985 . S
H960 N957 0.984 . S
H961 N957 0.985 . S
H962 N956 0.984 . S
H963 N956 0.984 . S
H964 N952 0.984 . S
H965 N952 0.985 . S
C966 C967 1.363 . S
C966 C972 1.379 . S
C966 N974 1.356 . S
C967 C966 1.363 . S
C967 C973 1.363 . S
C968 C969 1.363 . S
C968 C973 1.379 . S
C968 N975 1.356 . S
C969 C968 1.363 . S
C969 C972 1.363 . S
N970 C972 1.356 . S
N970 H982 0.984 . S
N970 H983 0.985 . S
N971 C973 1.356 . S
N971 H976 0.984 . S
N971 H977 0.985 . S
C972 C966 1.379 . S
C972 C969 1.363 . S
C972 N970 1.356 . S
C973 C967 1.363 . S
C973 C968 1.379 . S
C973 N971 1.356 . S
N974 C966 1.356 . S
N974 H980 0.984 . S
N974 H981 0.984 . S
N975 C968 1.356 . S
N975 H978 0.984 . S
N975 H979 0.985 . S
H976 N971 0.984 . S
H977 N971 0.985 . S
H978 N975 0.984 . S
H979 N975 0.985 . S
H980 N974 0.984 . S
H981 N974 0.984 . S
H982 N970 0.984 . S
H983 N970 0.985 . S
C984 C985 1.363 . S
C984 C990 1.379 . S
C984 N992 1.356 . S
C985 C984 1.363 . S
C985 C991 1.363 . S
C986 C987 1.363 . S
C986 C991 1.379 . S
C986 N993 1.356 . S
C987 C986 1.363 . S
C987 C990 1.363 . S
N988 C990 1.356 . S
N988 H1000 0.984 . S
N988 H1001 0.985 . S
N989 C991 1.356 . S
N989 H994 0.984 . S
N989 H995 0.985 . S
C990 C984 1.379 . S
C990 C987 1.363 . S
C990 N988 1.356 . S
C991 C985 1.363 . S
C991 C986 1.379 . S
C991 N989 1.356 . S
N992 C984 1.356 . S
N992 H998 0.984 . S
N992 H999 0.984 . S
N993 C986 1.356 . S
N993 H996 0.984 . S
N993 H997 0.985 . S
H994 N989 0.984 . S
H995 N989 0.985 . S
H996 N993 0.984 . S
H997 N993 0.985 . S
H998 N992 0.984 . S
H999 N992 0.984 . S
H1000 N988 0.984 . S
H1001 N988 0.985 . S
C1002 C1003 1.363 . S
C1002 C1008 1.379 . S
C1002 N1010 1.356 . S
C1003 C1002 1.363 . S
C1003 C1009 1.363 . S
C1004 C1005 1.363 . S
C1004 C1009 1.379 . S
C1004 N1011 1.356 . S
C1005 C1004 1.363 . S
C1005 C1008 1.363 . S
N1006 C1008 1.356 . S
N1006 H1018 0.984 . S
N1006 H1019 0.985 . S
N1007 C1009 1.356 . S
N1007 H1012 0.984 . S
N1007 H1013 0.985 . S
C1008 C1002 1.379 . S
C1008 C1005 1.363 . S
C1008 N1006 1.356 . S
C1009 C1003 1.363 . S
C1009 C1004 1.379 . S
C1009 N1007 1.356 . S
N1010 C1002 1.356 . S
N1010 H1016 0.984 . S
N1010 H1017 0.984 . S
N1011 C1004 1.356 . S
N1011 H1014 0.984 . S
N1011 H1015 0.985 . S
H1012 N1007 0.984 . S
H1013 N1007 0.985 . S
H1014 N1011 0.984 . S
H1015 N1011 0.985 . S
H1016 N1010 0.984 . S
H1017 N1010 0.984 . S
H1018 N1006 0.984 . S
H1019 N1006 0.985 . S
C1020 C1021 1.363 . S
C1020 C1026 1.379 . S
C1020 N1028 1.356 . S
C1021 C1020 1.363 . S
C1021 C1027 1.363 . S
C1022 C1023 1.363 . S
C1022 C1027 1.379 . S
C1022 N1029 1.356 . S
C1023 C1022 1.363 . S
C1023 C1026 1.363 . S
N1024 C1026 1.356 . S
N1024 H1036 0.984 . S
N1024 H1037 0.985 . S
N1025 C1027 1.356 1_455 S
N1025 H1030 0.984 . S
N1025 H1031 0.985 . S
C1026 C1020 1.379 . S
C1026 C1023 1.363 . S
C1026 N1024 1.356 . S
C1027 C1021 1.363 . S
C1027 C1022 1.379 . S
C1027 N1025 1.356 1_655 S
N1028 C1020 1.356 . S
N1028 H1034 0.984 . S
N1028 H1035 0.984 . S
N1029 C1022 1.356 . S
N1029 H1032 0.984 . S
N1029 H1033 0.985 1_655 S
H1030 N1025 0.984 . S
H1031 N1025 0.985 . S
H1032 N1029 0.984 . S
H1033 N1029 0.985 1_455 S
H1034 N1028 0.984 . S
H1035 N1028 0.984 . S
H1036 N1024 0.984 . S
H1037 N1024 0.985 . S
C1038 C1039 1.363 1_455 S
C1038 C1044 1.379 1_455 S
C1038 N1046 1.356 . S
C1039 C1038 1.363 1_655 S
C1039 C1045 1.363 . S
C1040 C1041 1.363 . S
C1040 C1045 1.379 . S
C1040 N1047 1.356 . S
C1041 C1040 1.363 . S
C1041 C1044 1.363 . S
N1042 C1044 1.353 . S
N1042 H1054 0.967 1_655 S
N1042 H1055 1.005 . S
N1043 C1045 1.356 . S
N1043 H1048 0.984 . S
N1043 H1049 0.985 . S
C1044 C1038 1.379 1_655 S
C1044 C1041 1.363 . S
C1044 N1042 1.353 . S
C1045 C1039 1.363 . S
C1045 C1040 1.379 . S
C1045 N1043 1.356 . S
N1046 C1038 1.356 . S
N1046 H1052 0.984 . S
N1046 H1053 0.984 . S
N1047 C1040 1.356 . S
N1047 H1050 0.984 . S
N1047 H1051 0.985 . S
H1048 N1043 0.984 . S
H1049 N1043 0.985 . S
H1050 N1047 0.984 . S
H1051 N1047 0.985 . S
H1052 N1046 0.984 . S
H1053 N1046 0.984 . S
H1054 N1042 0.967 1_455 S
H1055 N1042 1.005 . S
C1056 C1057 1.363 . S
C1056 C1062 1.379 . S
C1056 N1064 1.356 1_565 S
C1057 C1056 1.363 . S
C1057 C1063 1.363 . S
C1058 C1059 1.363 . S
C1058 C1063 1.379 . S
C1058 N1065 1.356 . S
C1059 C1058 1.363 . S
C1059 C1062 1.363 . S
N1060 C1062 1.356 . S
N1060 H1072 0.984 1_565 S
N1060 H1073 0.985 . S
N1061 C1063 1.356 . S
N1061 H1066 0.984 . S
N1061 H1067 0.985 . S
C1062 C1056 1.379 . S
C1062 C1059 1.363 . S
C1062 N1060 1.356 . S
C1063 C1057 1.363 . S
C1063 C1058 1.379 . S
C1063 N1061 1.356 . S
N1064 C1056 1.356 1_545 S
N1064 H1070 0.984 . S
N1064 H1071 0.984 . S
N1065 C1058 1.356 . S
N1065 H1068 0.984 . S
N1065 H1069 0.985 . S
H1066 N1061 0.984 . S
H1067 N1061 0.985 . S
H1068 N1065 0.984 . S
H1069 N1065 0.985 . S
H1070 N1064 0.984 . S
H1071 N1064 0.984 . S
H1072 N1060 0.984 1_545 S
H1073 N1060 0.985 . S
C1074 C1075 1.363 . S
C1074 C1080 1.379 . S
C1074 N1082 1.356 . S
C1075 C1074 1.363 . S
C1075 C1081 1.363 . S
C1076 C1077 1.363 . S
C1076 C1081 1.379 . S
C1076 N1083 1.356 . S
C1077 C1076 1.363 . S
C1077 C1080 1.363 . S
N1078 C1080 1.356 . S
N1078 H1090 0.984 . S
N1078 H1091 0.985 . S
N1079 C1081 1.356 . S
N1079 H1084 0.984 . S
N1079 H1085 0.985 . S
C1080 C1074 1.379 . S
C1080 C1077 1.363 . S
C1080 N1078 1.356 . S
C1081 C1075 1.363 . S
C1081 C1076 1.379 . S
C1081 N1079 1.356 . S
N1082 C1074 1.356 . S
N1082 H1088 0.984 . S
N1082 H1089 0.984 . S
N1083 C1076 1.356 . S
N1083 H1086 0.984 . S
N1083 H1087 0.985 . S
H1084 N1079 0.984 . S
H1085 N1079 0.985 . S
H1086 N1083 0.984 . S
H1087 N1083 0.985 . S
H1088 N1082 0.984 . S
H1089 N1082 0.984 . S
H1090 N1078 0.984 . S
H1091 N1078 0.985 . S
C1092 C1093 1.363 . S
C1092 C1098 1.379 . S
C1092 N1100 1.356 . S
C1093 C1092 1.363 . S
C1093 C1099 1.363 . S
C1094 C1095 1.363 . S
C1094 C1099 1.379 . S
C1094 N1101 1.356 . S
C1095 C1094 1.363 . S
C1095 C1098 1.363 . S
N1096 C1098 1.356 . S
N1096 H1108 0.984 . S
N1096 H1109 0.985 . S
N1097 C1099 1.356 . S
N1097 H1102 0.984 . S
N1097 H1103 0.985 1_455 S
C1098 C1092 1.379 . S
C1098 C1095 1.363 . S
C1098 N1096 1.356 . S
C1099 C1093 1.363 . S
C1099 C1094 1.379 . S
C1099 N1097 1.356 . S
N1100 C1092 1.356 . S
N1100 H1106 0.984 . S
N1100 H1107 0.984 . S
N1101 C1094 1.356 . S
N1101 H1104 0.984 . S
N1101 H1105 0.985 . S
H1102 N1097 0.984 . S
H1103 N1097 0.985 1_655 S
H1104 N1101 0.984 . S
H1105 N1101 0.985 . S
H1106 N1100 0.984 . S
H1107 N1100 0.984 . S
H1108 N1096 0.984 . S
H1109 N1096 0.985 . S
C1110 C1111 1.363 . S
C1110 C1116 1.379 . S
C1110 N1118 1.356 . S
C1111 C1110 1.363 . S
C1111 C1117 1.363 . S
C1112 C1113 1.363 . S
C1112 C1117 1.379 . S
C1112 N1119 1.356 . S
C1113 C1112 1.363 . S
C1113 C1116 1.363 . S
N1114 C1116 1.356 . S
N1114 H1126 0.984 . S
N1114 H1127 0.985 . S
N1115 C1117 1.356 . S
N1115 H1120 0.984 . S
N1115 H1121 0.985 . S
C1116 C1110 1.379 . S
C1116 C1113 1.363 . S
C1116 N1114 1.356 . S
C1117 C1111 1.363 . S
C1117 C1112 1.379 . S
C1117 N1115 1.356 . S
N1118 C1110 1.356 . S
N1118 H1124 0.984 . S
N1118 H1125 0.984 . S
N1119 C1112 1.356 . S
N1119 H1122 0.984 . S
N1119 H1123 0.985 . S
H1120 N1115 0.984 . S
H1121 N1115 0.985 . S
H1122 N1119 0.984 . S
H1123 N1119 0.985 . S
H1124 N1118 0.984 . S
H1125 N1118 0.984 . S
H1126 N1114 0.984 . S
H1127 N1114 0.985 . S
C1128 C1129 1.363 . S
C1128 C1134 1.379 . S
C1128 N1136 1.356 . S
C1129 C1128 1.363 . S
C1129 C1135 1.363 . S
C1130 C1131 1.363 . S
C1130 C1135 1.379 . S
C1130 N1137 1.356 . S
C1131 C1130 1.363 . S
C1131 C1134 1.363 . S
N1132 C1134 1.356 . S
N1132 H1144 0.984 . S
N1132 H1145 0.985 . S
N1133 C1135 1.356 . S
N1133 H1138 0.984 . S
N1133 H1139 0.985 . S
C1134 C1128 1.379 . S
C1134 C1131 1.363 . S
C1134 N1132 1.356 . S
C1135 C1129 1.363 . S
C1135 C1130 1.379 . S
C1135 N1133 1.356 . S
N1136 C1128 1.356 . S
N1136 H1142 0.984 . S
N1136 H1143 0.984 . S
N1137 C1130 1.356 . S
N1137 H1140 0.984 . S
N1137 H1141 0.985 . S
H1138 N1133 0.984 . S
H1139 N1133 0.985 . S
H1140 N1137 0.984 . S
H1141 N1137 0.985 . S
H1142 N1136 0.984 . S
H1143 N1136 0.984 . S
H1144 N1132 0.984 . S
H1145 N1132 0.985 . S
C1146 C1147 1.363 . S
C1146 C1152 1.379 . S
C1146 N1154 1.356 . S
C1147 C1146 1.363 . S
C1147 C1153 1.363 . S
C1148 C1149 1.363 . S
C1148 C1153 1.379 . S
C1148 N1155 1.356 . S
C1149 C1148 1.363 . S
C1149 C1152 1.363 . S
N1150 C1152 1.356 . S
N1150 H1162 0.984 . S
N1150 H1163 0.985 . S
N1151 C1153 1.356 . S
N1151 H1156 0.984 . S
N1151 H1157 0.985 1_545 S
C1152 C1146 1.379 . S
C1152 C1149 1.363 . S
C1152 N1150 1.356 . S
C1153 C1147 1.363 . S
C1153 C1148 1.379 . S
C1153 N1151 1.356 . S
N1154 C1146 1.356 . S
N1154 H1160 0.984 . S
N1154 H1161 0.984 . S
N1155 C1148 1.356 . S
N1155 H1158 0.984 . S
N1155 H1159 0.985 1_545 S
H1156 N1151 0.984 . S
H1157 N1151 0.985 1_565 S
H1158 N1155 0.984 . S
H1159 N1155 0.985 1_565 S
H1160 N1154 0.984 . S
H1161 N1154 0.984 . S
H1162 N1150 0.984 . S
H1163 N1150 0.985 . S
C1164 C1165 1.363 . S
C1164 C1170 1.379 . S
C1164 N1172 1.356 . S
C1165 C1164 1.363 . S
C1165 C1171 1.363 . S
C1166 C1167 1.363 . S
C1166 C1171 1.379 . S
C1166 N1173 1.356 . S
C1167 C1166 1.363 . S
C1167 C1170 1.363 . S
N1168 C1170 1.356 . S
N1168 H1180 0.984 . S
N1168 H1181 0.985 . S
N1169 C1171 1.356 . S
N1169 H1174 0.984 . S
N1169 H1175 0.985 . S
C1170 C1164 1.379 . S
C1170 C1167 1.363 . S
C1170 N1168 1.356 . S
C1171 C1165 1.363 . S
C1171 C1166 1.379 . S
C1171 N1169 1.356 . S
N1172 C1164 1.356 . S
N1172 H1178 0.984 . S
N1172 H1179 0.984 . S
N1173 C1166 1.356 . S
N1173 H1176 0.984 . S
N1173 H1177 0.985 . S
H1174 N1169 0.984 . S
H1175 N1169 0.985 . S
H1176 N1173 0.984 . S
H1177 N1173 0.985 . S
H1178 N1172 0.984 . S
H1179 N1172 0.984 . S
H1180 N1168 0.984 . S
H1181 N1168 0.985 . S
C1182 C1183 1.363 . S
C1182 C1188 1.379 . S
C1182 N1190 1.356 . S
C1183 C1182 1.363 . S
C1183 C1189 1.363 . S
C1184 C1185 1.363 . S
C1184 C1189 1.379 . S
C1184 N1191 1.356 . S
C1185 C1184 1.363 . S
C1185 C1188 1.363 . S
N1186 C1188 1.356 . S
N1186 H1198 0.984 . S
N1186 H1199 0.985 . S
N1187 C1189 1.356 . S
N1187 H1192 0.984 . S
N1187 H1193 0.985 . S
C1188 C1182 1.379 . S
C1188 C1185 1.363 . S
C1188 N1186 1.356 . S
C1189 C1183 1.363 . S
C1189 C1184 1.379 . S
C1189 N1187 1.356 . S
N1190 C1182 1.356 . S
N1190 H1196 0.984 . S
N1190 H1197 0.984 . S
N1191 C1184 1.356 . S
N1191 H1194 0.984 . S
N1191 H1195 0.985 . S
H1192 N1187 0.984 . S
H1193 N1187 0.985 . S
H1194 N1191 0.984 . S
H1195 N1191 0.985 . S
H1196 N1190 0.984 . S
H1197 N1190 0.984 . S
H1198 N1186 0.984 . S
H1199 N1186 0.985 . S
C1200 C1201 1.363 . S
C1200 C1206 1.379 . S
C1200 N1208 1.356 . S
C1201 C1200 1.363 . S
C1201 C1207 1.363 . S
C1202 C1203 1.363 . S
C1202 C1207 1.379 . S
C1202 N1209 1.356 . S
C1203 C1202 1.363 . S
C1203 C1206 1.363 . S
N1204 C1206 1.356 . S
N1204 H1216 0.984 . S
N1204 H1217 0.985 . S
N1205 C1207 1.356 1_545 S
N1205 H1210 0.984 . S
N1205 H1211 0.985 . S
C1206 C1200 1.379 . S
C1206 C1203 1.363 . S
C1206 N1204 1.356 . S
C1207 C1201 1.363 . S
C1207 C1202 1.379 . S
C1207 N1205 1.356 1_565 S
N1208 C1200 1.356 . S
N1208 H1214 0.984 . S
N1208 H1215 0.984 . S
N1209 C1202 1.356 . S
N1209 H1212 0.984 . S
N1209 H1213 0.985 1_565 S
H1210 N1205 0.984 . S
H1211 N1205 0.985 . S
H1212 N1209 0.984 . S
H1213 N1209 0.985 1_545 S
H1214 N1208 0.984 . S
H1215 N1208 0.984 . S
H1216 N1204 0.984 . S
H1217 N1204 0.985 . S
C1218 C1219 1.363 . S
C1218 C1224 1.379 . S
C1218 N1226 1.356 . S
C1219 C1218 1.363 . S
C1219 C1225 1.363 . S
C1220 C1221 1.363 . S
C1220 C1225 1.379 . S
C1220 N1227 1.356 . S
C1221 C1220 1.363 . S
C1221 C1224 1.363 . S
N1222 C1224 1.356 . S
N1222 H1234 0.984 . S
N1222 H1235 0.985 . S
N1223 C1225 1.356 . S
N1223 H1228 0.984 . S
N1223 H1229 0.985 . S
C1224 C1218 1.379 . S
C1224 C1221 1.363 . S
C1224 N1222 1.356 . S
C1225 C1219 1.363 . S
C1225 C1220 1.379 . S
C1225 N1223 1.356 . S
N1226 C1218 1.356 . S
N1226 H1232 0.984 . S
N1226 H1233 0.984 . S
N1227 C1220 1.356 . S
N1227 H1230 0.984 . S
N1227 H1231 0.985 . S
H1228 N1223 0.984 . S
H1229 N1223 0.985 . S
H1230 N1227 0.984 . S
H1231 N1227 0.985 . S
H1232 N1226 0.984 . S
H1233 N1226 0.984 . S
H1234 N1222 0.984 . S
H1235 N1222 0.985 . S
C1236 C1237 1.363 . S
C1236 C1242 1.379 . S
C1236 N1244 1.356 . S
C1237 C1236 1.363 . S
C1237 C1243 1.363 . S
C1238 C1239 1.363 . S
C1238 C1243 1.379 . S
C1238 N1245 1.356 . S
C1239 C1238 1.363 . S
C1239 C1242 1.363 . S
N1240 C1242 1.356 . S
N1240 H1252 0.984 . S
N1240 H1253 0.985 . S
N1241 C1243 1.356 . S
N1241 H1246 0.984 . S
N1241 H1247 0.985 . S
C1242 C1236 1.379 . S
C1242 C1239 1.363 . S
C1242 N1240 1.356 . S
C1243 C1237 1.363 . S
C1243 C1238 1.379 . S
C1243 N1241 1.356 . S
N1244 C1236 1.356 . S
N1244 H1250 0.984 . S
N1244 H1251 0.984 . S
N1245 C1238 1.356 . S
N1245 H1248 0.984 . S
N1245 H1249 0.985 . S
H1246 N1241 0.984 . S
H1247 N1241 0.985 . S
H1248 N1245 0.984 . S
H1249 N1245 0.985 . S
H1250 N1244 0.984 . S
H1251 N1244 0.984 . S
H1252 N1240 0.984 . S
H1253 N1240 0.985 . S
C823 C7 2.089 . S
C825 C167 1.993 . S
C841 C30 1.882 . S
C843 C307 1.760 . S
C861 C395 1.816 . S
C859 N58 1.839 . S
C879 C535 1.663 . S
C877 N81 1.644 . S
C897 C649 1.852 . S
C895 C99 1.999 . S
C915 C719 0.842 . S
C913 N127 1.689 . S
C931 N25 1.933 . S
C933 C377 1.017 . S
C949 C62 1.764 . S
C951 C481 1.180 . S
C969 C595 1.399 . S
C967 C85 1.932 . S
C987 C737 1.684 . S
C985 N94 1.705 . S
C1003 C131 2.169 . S
C1005 C149 1.066 . S
C1023 C253 1.088 . S
C1021 N2 1.501 . S
C1041 C491 1.750 . S
C1039 C16 2.084 1_655 S
C1057 C39 1.914 . S
C1059 C605 1.606 . S
C1077 C763 1.250 . S
C1075 N48 2.033 . S
C1093 N71 1.618 . S
C1095 C139 1.570 . S
C1111 C108 2.200 . S
C1113 C263 1.773 . S
C1129 N117 1.698 . S
C1131 C367 1.738 . S
C1147 N35 1.927 . S
C1149 C709 1.904 . S
C1167 C193 1.158 . S
C1165 C53 1.954 . S
C1183 C76 2.145 . S
C1185 C281 1.420 . S
C1201 N104 1.802 . S
C1203 C421 0.997 . S
C1219 C122 1.993 . S
C1221 C509 1.390 . S
C1237 N12 1.682 . S
C1239 C623 1.179 . S
