# Generated by pormake.
# Topology sit, (3,6)-cn, num edge types: 1
# Building blocks:
#     Node 0, Type 0, BuildingBlock: BETDAH_clean_linker_0, # of connection points: 3
#     Node 1, Type 0, BuildingBlock: BETDAH_clean_linker_0, # of connection points: 3
#     Node 2, Type 0, BuildingBlock: BETDAH_clean_linker_0, # of connection points: 3
#     Node 3, Type 0, BuildingBlock: BETDAH_clean_linker_0, # of connection points: 3
#     Node 4, Type 1, BuildingBlock: MIDCAF_clean_sbu_0, # of connection points: 6
#     Node 5, Type 1, BuildingBlock: MIDCAF_clean_sbu_0, # of connection points: 6
#     Edge 6, Type (0, 1), BuildingBlock: UVAHIK_clean_linker_0, # of connection points: 2
#     Edge 7, Type (0, 1), BuildingBlock: UVAHIK_clean_linker_0, # of connection points: 2
#     Edge 8, Type (0, 1), BuildingBlock: UVAHIK_clean_linker_0, # of connection points: 2
#     Edge 9, Type (0, 1), BuildingBlock: UVAHIK_clean_linker_0, # of connection points: 2
#     Edge 10, Type (0, 1), BuildingBlock: UVAHIK_clean_linker_0, # of connection points: 2
#     Edge 11, Type (0, 1), BuildingBlock: UVAHIK_clean_linker_0, # of connection points: 2
#     Edge 12, Type (0, 1), BuildingBlock: UVAHIK_clean_linker_0, # of connection points: 2
#     Edge 13, Type (0, 1), BuildingBlock: UVAHIK_clean_linker_0, # of connection points: 2
#     Edge 14, Type (0, 1), BuildingBlock: UVAHIK_clean_linker_0, # of connection points: 2
#     Edge 15, Type (0, 1), BuildingBlock: UVAHIK_clean_linker_0, # of connection points: 2
#     Edge 16, Type (0, 1), BuildingBlock: UVAHIK_clean_linker_0, # of connection points: 2
#     Edge 17, Type (0, 1), BuildingBlock: UVAHIK_clean_linker_0, # of connection points: 2
# Relax obj value: 0.072
# Max RMSD: 0.181
# Mean RMSD: 0.111
data_MOF--net-sit--node1-MIDCAF_clean_sbu_0--node2-BETDAH_clean_linker_0--edge1-UVAHIK_clean_linker_0
_symmetry_space_group_name_H-M    P1
_symmetry_Int_Tables_number       1
_symmetry_cell_setting            triclinic
loop_
_symmetry_equiv_pos_as_xyz
'x, y, z'
_cell_length_a     27.57732
_cell_length_b     42.613613
_cell_length_c     47.746706
_cell_angle_alpha  90.819974
_cell_angle_beta   86.486348
_cell_angle_gamma 83.728742
loop_
_atom_site_label
_atom_site_type_symbol
_atom_site_fract_x
_atom_site_fract_y
_atom_site_fract_z
_atom_type_partial_charge
H0 H 0.08179 0.37848 0.00543 0.0
H1 H 0.12872 0.31799 0.0722 0.0
H2 H 0.97553 0.34634 0.06489 0.0
C3 C 0.07287 0.36453 0.02347 0.0
C4 C 0.02391 0.36405 0.03301 0.0
C5 C 0.11078 0.34806 0.03739 0.0
C6 C 0.09961 0.33059 0.06121 0.0
C7 C 0.05053 0.33007 0.07104 0.0
C8 C 0.01316 0.34719 0.05722 0.0
N9 N 0.03744 0.31336 0.09526 0.0
C10 C 0.05897 0.28345 0.10131 0.0
H11 H 0.01171 0.66184 0.03484 0.0
H12 H 0.0333 0.75436 0.06538 0.0
H13 H 0.88824 0.73149 0.05163 0.0
C14 C -0.00338 0.68499 0.04295 0.0
C15 C 0.9462 0.69367 0.04287 0.0
C16 C 0.0283 0.7067 0.05088 0.0
C17 C 0.00886 0.73742 0.05967 0.0
C18 C 0.95803 0.74626 0.06029 0.0
C19 C 0.92719 0.72437 0.0517 0.0
N20 N 0.93653 0.77715 0.06831 0.0
C21 C 0.96113 0.80061 0.07971 0.0
H22 H 0.57458 0.83813 0.4971 0.0
H23 H 0.67459 0.75341 0.48925 0.0
H24 H 0.52432 0.74841 0.51691 0.0
C25 C 0.58202 0.81289 0.49992 0.0
C26 C 0.54368 0.79519 0.50799 0.0
C27 C 0.62917 0.79807 0.49307 0.0
C28 C 0.63828 0.76514 0.49468 0.0
C29 C 0.60105 0.74731 0.50418 0.0
C30 C 0.55362 0.76235 0.5107 0.0
N31 N 0.61183 0.71424 0.50664 0.0
C32 C 0.59463 0.69868 0.52991 0.0
H33 H 0.55295 0.17871 0.4944 0.0
H34 H 0.60155 0.26061 0.5329 0.0
H35 H 0.44954 0.25888 0.51863 0.0
C36 C 0.54452 0.20181 0.5044 0.0
C37 C 0.49618 0.21627 0.50597 0.0
C38 C 0.58274 0.21744 0.51408 0.0
C39 C 0.57227 0.24813 0.52573 0.0
C40 C 0.52401 0.263 0.52724 0.0
C41 C 0.48651 0.24713 0.51717 0.0
N42 N 0.51215 0.29448 0.5374 0.0
C43 C 0.53339 0.30734 0.55991 0.0
Zn44 Zn 0.06888 0.10427 0.36037 0.0
Zn45 Zn 0.10215 0.94864 0.33617 0.0
Zn46 Zn 0.08457 1.00594 0.35053 0.0
C47 C 0.09674 0.983 0.28684 0.0
C48 C 0.01079 0.95688 0.36765 0.0
O49 O 0.14358 0.01704 0.37569 0.0
O50 O 0.10063 0.06106 0.36954 0.0
C51 C 0.08748 0.0689 0.30381 0.0
O52 O 0.08769 1.00623 0.30453 0.0
O53 O 0.10535 0.95515 0.29529 0.0
O54 O 0.04109 0.93592 0.35544 0.0
O55 O 0.01936 0.98593 0.36778 0.0
O56 O 0.08177 0.09466 0.31852 0.0
O57 O 0.0877 0.04071 0.31423 0.0
O58 O 0.01561 0.01768 0.37548 0.0
O59 O 0.04401 0.06199 0.36877 0.0
C60 C 0.01014 0.04748 0.3796 0.0
O61 O 0.15015 0.98466 0.37195 0.0
O62 O 0.163 0.93598 0.3545 0.0
C63 C 0.13842 0.0469 0.37924 0.0
C64 C 0.17464 0.95703 0.37086 0.0
Zn65 Zn 0.54769 0.59206 0.86297 0.0
Zn66 Zn 0.53704 0.43675 0.85526 0.0
Zn67 Zn 0.53279 0.53467 0.85773 0.0
C68 C 0.53114 0.49179 0.81243 0.0
C69 C 0.46751 0.49471 0.88041 0.0
O70 O 0.60005 0.533 0.87902 0.0
O71 O 0.60658 0.58385 0.88486 0.0
C72 C 0.54614 0.58081 0.80547 0.0
O73 O 0.53075 0.52171 0.8132 0.0
O74 O 0.52829 0.47908 0.83616 0.0
O75 O 0.50107 0.48043 0.8642 0.0
O76 O 0.46567 0.52472 0.88089 0.0
O77 O 0.5554 0.60183 0.82266 0.0
O78 O 0.53573 0.5538 0.81446 0.0
O79 O 0.46942 0.55702 0.88451 0.0
O80 O 0.48473 0.60686 0.88399 0.0
C81 C 0.45759 0.58619 0.89185 0.0
O82 O 0.59187 0.49872 0.87433 0.0
O83 O 0.59911 0.44469 0.87378 0.0
C84 C 0.62235 0.55537 0.88851 0.0
C85 C 0.61441 0.47119 0.87988 0.0
C86 C 0.11253 0.24496 0.12664 0.0
C87 C 0.0729 0.25165 0.10992 0.0
C88 C 0.12054 0.2154 0.13899 0.0
C89 C 0.04881 0.15471 0.16623 0.0
H90 H 0.17504 0.11127 0.18153 0.0
C91 C 0.06063 0.06682 0.25498 0.0
C92 C 0.09632 0.0726 0.27346 0.0
C93 C 0.06307 0.0784 0.22767 0.0
C94 C 0.13945 0.12305 0.17742 0.0
H95 H 0.01182 0.23306 0.09167 0.0
H96 H 0.02568 0.18129 0.11319 0.0
H97 H 0.17004 0.15273 0.14665 0.0
H98 H 0.1635 0.09342 0.27802 0.0
H99 H 0.16752 0.11421 0.23096 0.0
H100 H 0.01828 0.12693 0.19814 0.0
C101 C 0.05056 0.19868 0.11688 0.0
C102 C 0.13665 0.14677 0.15742 0.0
C103 C 0.04277 0.22816 0.10448 0.0
C104 C 0.13597 0.08832 0.26386 0.0
C105 C 0.13829 0.1001 0.23678 0.0
C106 C 0.05163 0.13129 0.18639 0.0
C107 C 0.08865 0.1923 0.13496 0.0
C108 C 0.09143 0.16353 0.15227 0.0
C109 C 0.10073 0.09653 0.21871 0.0
C110 C 0.09715 0.11592 0.193 0.0
H111 H 0.13587 0.26302 0.13123 0.0
H112 H 0.14984 0.21137 0.15306 0.0
H113 H 0.01343 0.16738 0.163 0.0
H114 H 0.02905 0.0555 0.26228 0.0
H115 H 0.03388 0.07478 0.21421 0.0
C116 C 0.03099 0.82909 0.0915 0.0
C117 C 0.98066 0.82672 0.09294 0.0
C118 C 0.0493 0.85399 0.10548 0.0
C119 C 0.0118 0.93215 0.14158 0.0
H120 H 0.122 0.90761 0.18606 0.0
C121 C 0.04368 0.98956 0.24718 0.0
C122 C 0.09104 0.98661 0.25667 0.0
C123 C 0.03564 0.97909 0.22013 0.0
C124 C 0.09201 0.91532 0.17328 0.0
H125 H 0.90967 0.84815 0.1092 0.0
H126 H 0.94132 0.89128 0.13403 0.0
H127 H 0.0976 0.87033 0.15231 0.0
H128 H 0.16751 0.97333 0.24488 0.0
H129 H 0.15394 0.95616 0.19722 0.0
H130 H 0.00501 0.97676 0.16366 0.0
C131 C 0.96687 0.87453 0.12184 0.0
C132 C 0.07789 0.89377 0.15389 0.0
C133 C 0.94871 0.8497 0.10788 0.0
C134 C 0.13072 0.97627 0.23781 0.0
C135 C 0.1228 0.96599 0.2107 0.0
C136 C 0.02594 0.95377 0.16104 0.0
C137 C 0.01746 0.87684 0.12111 0.0
C138 C 0.03672 0.90154 0.1384 0.0
C139 C 0.07493 0.96529 0.20222 0.0
C140 C 0.0654 0.94528 0.17772 0.0
H141 H 0.05614 0.81156 0.0799 0.0
H142 H 0.08839 0.8552 0.10425 0.0
H143 H 0.98046 0.93914 0.12958 0.0
H144 H 0.01244 0.99668 0.26163 0.0
H145 H -0.00173 0.97883 0.21446 0.0
C146 C 0.55718 0.6577 0.55731 0.0
C147 C 0.58109 0.68507 0.55623 0.0
C148 C 0.54592 0.64437 0.58325 0.0
C149 C 0.53266 0.66406 0.65945 0.0
H150 H 0.56204 0.57391 0.6694 0.0
C151 C 0.57289 0.61306 0.76566 0.0
C152 C 0.54716 0.58823 0.77531 0.0
C153 C 0.57125 0.6225 0.73794 0.0
C154 C 0.55297 0.59904 0.66677 0.0
H155 H 0.61233 0.72016 0.58044 0.0
H156 H 0.59348 0.69692 0.62564 0.0
H157 H 0.56878 0.5957 0.62222 0.0
H158 H 0.49959 0.55372 0.76336 0.0
H159 H 0.49807 0.56976 0.7141 0.0
H160 H 0.51898 0.66762 0.704 0.0
C161 C 0.58237 0.6859 0.60684 0.0
C162 C 0.55672 0.61152 0.63983 0.0
C163 C 0.59348 0.69912 0.58103 0.0
C164 C 0.52063 0.57247 0.75635 0.0
C165 C 0.51944 0.58176 0.7283 0.0
C166 C 0.52931 0.65166 0.68624 0.0
C167 C 0.55842 0.65838 0.60832 0.0
C168 C 0.54801 0.64432 0.63603 0.0
C169 C 0.544 0.60731 0.7191 0.0
C170 C 0.54076 0.6192 0.69025 0.0
H171 H 0.5475 0.64659 0.53819 0.0
H172 H 0.52727 0.62328 0.58371 0.0
H173 H 0.52446 0.6893 0.65717 0.0
H174 H 0.59395 0.62558 0.77966 0.0
H175 H 0.59114 0.64193 0.73124 0.0
C176 C 0.55965 0.35396 0.58325 0.0
C177 C 0.5468 0.32309 0.58472 0.0
C178 C 0.5644 0.3713 0.60787 0.0
C179 C 0.51674 0.37604 0.68135 0.0
H180 H 0.61507 0.43294 0.69155 0.0
C181 C 0.52714 0.441 0.78655 0.0
C182 C 0.53714 0.4726 0.78611 0.0
C183 C 0.53185 0.42256 0.76194 0.0
C184 C 0.58703 0.41743 0.68889 0.0
H185 H 0.53023 0.28544 0.61236 0.0
H186 H 0.53904 0.31548 0.65553 0.0
H187 H 0.61916 0.40029 0.64872 0.0
H188 H 0.56218 0.5092 0.75971 0.0
H189 H 0.56857 0.47742 0.71631 0.0
H190 H 0.4839 0.3934 0.72101 0.0
C191 C 0.54514 0.32651 0.63551 0.0
C192 C 0.58951 0.39864 0.6644 0.0
C193 C 0.54055 0.30921 0.61089 0.0
C194 C 0.5529 0.48523 0.76056 0.0
C195 C 0.55735 0.4668 0.73579 0.0
C196 C 0.51411 0.39487 0.70566 0.0
C197 C 0.55586 0.35804 0.6343 0.0
C198 C 0.55448 0.37762 0.66044 0.0
C199 C 0.54645 0.43528 0.73616 0.0
C200 C 0.54932 0.4157 0.70987 0.0
H201 H 0.56398 0.36514 0.56314 0.0
H202 H 0.57229 0.39557 0.60622 0.0
H203 H 0.4885 0.36067 0.67867 0.0
H204 H 0.51514 0.43047 0.80591 0.0
H205 H 0.52415 0.39822 0.7632 0.0
C206 C 0.17568 0.34442 0.99868 0.0
C207 C 0.16156 0.35112 0.02706 0.0
C208 C 0.21789 0.35514 0.98649 0.0
C209 C 0.28889 0.42163 0.99447 0.0
H210 H 0.36819 0.38029 0.93187 0.0
C211 C 0.39097 0.49078 0.91067 0.0
C212 C 0.43706 0.47728 0.89981 0.0
C213 C 0.36257 0.47383 0.92901 0.0
C214 C 0.34688 0.39211 0.94953 0.0
H215 H 0.18183 0.37223 0.0655 0.0
H216 H 0.25646 0.3908 0.04424 0.0
H217 H 0.31397 0.35032 0.96032 0.0
H218 H 0.49016 0.43583 0.90002 0.0
H219 H 0.44098 0.40639 0.93195 0.0
H220 H 0.32159 0.46348 0.98355 0.0
C221 C 0.23458 0.37751 0.03136 0.0
C222 C 0.31553 0.37495 0.96571 0.0
C223 C 0.19232 0.36657 0.04362 0.0
C224 C 0.45441 0.44668 0.90771 0.0
C225 C 0.42622 0.42979 0.92605 0.0
C226 C 0.32029 0.43879 0.97828 0.0
C227 C 0.24673 0.37297 0.00241 0.0
C228 C 0.28543 0.38967 0.98801 0.0
C229 C 0.37982 0.44305 0.93681 0.0
C230 C 0.34897 0.42438 0.9553 0.0
H231 H 0.15225 0.33269 0.98551 0.0
H232 H 0.22586 0.35141 0.96412 0.0
H233 H 0.26579 0.43381 0.01128 0.0
H234 H 0.37643 0.51412 0.90451 0.0
H235 H 0.32663 0.48455 0.93654 0.0
C236 C 0.92053 0.63925 0.03707 0.0
C237 C 0.9148 0.67154 0.03069 0.0
C238 C 0.89531 0.61779 0.02287 0.0
C239 C 0.81453 0.5824 0.99863 0.0
H240 H 0.80811 0.5945 0.91854 0.0
C241 C 0.65592 0.55522 0.93508 0.0
C242 C 0.66365 0.54901 0.90618 0.0
C243 C 0.69538 0.55822 0.95145 0.0
C244 C 0.81042 0.59014 0.94074 0.0
H245 H 0.87739 0.70671 0.0049 0.0
H246 H 0.833 0.66941 0.9804 0.0
H247 H 0.85858 0.62569 0.94522 0.0
H248 H 0.71794 0.53855 0.87178 0.0
H249 H 0.78766 0.54373 0.90046 0.0
H250 H 0.76482 0.54753 0.99418 0.0
C251 C 0.85736 0.66063 0.99617 0.0
C252 C 0.83874 0.60844 0.95611 0.0
C253 C 0.88221 0.68206 0.01049 0.0
C254 C 0.71145 0.54323 0.89414 0.0
C255 C 0.75112 0.54635 0.91051 0.0
C256 C 0.78588 0.56412 0.98323 0.0
C257 C 0.86434 0.62821 0.00183 0.0
C258 C 0.83967 0.6056 0.98533 0.0
C259 C 0.74324 0.55558 0.93902 0.0
C260 C 0.78219 0.5686 0.95426 0.0
H261 H 0.94528 0.63052 0.05267 0.0
H262 H 0.90123 0.59296 0.02771 0.0
H263 H 0.81484 0.57958 0.02113 0.0
H264 H 0.61911 0.55998 0.94463 0.0
H265 H 0.68787 0.56555 0.97324 0.0
C266 C 0.94283 0.39722 0.03094 0.0
C267 C -0.01559 0.38047 0.01707 0.0
C268 C 0.9055 0.41202 0.01559 0.0
C269 C 0.85442 0.40646 0.94667 0.0
H270 H 0.7831 0.4879 0.96723 0.0
C271 C 0.70431 0.45971 0.8794 0.0
C272 C 0.6599 0.46987 0.8942 0.0
C273 C 0.74702 0.45435 0.89362 0.0
C274 C 0.80273 0.46512 0.96133 0.0
H275 H 0.01936 0.36625 0.97619 0.0
H276 H 0.95522 0.39263 0.9496 0.0
H277 H 0.852 0.46722 0.9942 0.0
H278 H 0.62441 0.48341 0.93488 0.0
H279 H 0.69925 0.47363 0.96008 0.0
H280 H 0.80511 0.4039 0.91423 0.0
C281 C 0.95108 0.39408 0.9723 0.0
C282 C 0.84199 0.45325 0.97678 0.0
C283 C -0.01186 0.37924 0.98758 0.0
C284 C 0.65867 0.47572 0.92319 0.0
C285 C 0.70142 0.47029 0.93749 0.0
C286 C 0.81547 0.41829 0.93128 0.0
C287 C 0.90904 0.41028 0.9861 0.0
C288 C 0.86812 0.42371 0.96962 0.0
C289 C 0.74574 0.45864 0.92293 0.0
C290 C 0.78907 0.44765 0.93846 0.0
H291 H 0.93914 0.39892 0.05364 0.0
H292 H 0.87336 0.42411 0.02683 0.0
H293 H 0.87303 0.38334 0.94097 0.0
H294 H 0.70568 0.45508 0.85697 0.0
H295 H 0.7808 0.44583 0.88181 0.0
C296 C 0.10996 0.71628 0.02922 0.0
C297 C 0.08162 0.69771 0.04619 0.0
C298 C 0.15651 0.70402 0.01834 0.0
C299 C 0.22095 0.62686 0.99732 0.0
H300 H 0.32889 0.67548 0.9788 0.0
C301 C 0.3967 0.57594 0.93098 0.0
C302 C 0.41399 0.59619 0.91065 0.0
C303 C 0.35878 0.58707 0.9507 0.0
C304 C 0.29892 0.66164 0.98373 0.0
H305 H 0.08135 0.65317 0.06748 0.0
H306 H 0.163 0.63193 0.0489 0.0
H307 H 0.26066 0.69842 0.0102 0.0
H308 H 0.40468 0.64365 0.89455 0.0
H309 H 0.33843 0.66288 0.92853 0.0
H310 H 0.25863 0.59039 0.97029 0.0
C311 C 0.14888 0.6556 0.04338 0.0
C312 C 0.25994 0.67476 0.00176 0.0
C313 C 0.10235 0.66783 0.05418 0.0
C314 C 0.39216 0.62751 0.91004 0.0
C315 C 0.3545 0.63861 0.92966 0.0
C316 C 0.25996 0.61373 0.9793 0.0
C317 C 0.17555 0.67301 0.02434 0.0
C318 C 0.22002 0.65777 0.00832 0.0
C319 C 0.33787 0.61871 0.9505 0.0
C320 C 0.29882 0.63126 0.97179 0.0
H321 H 0.09469 0.73926 0.02252 0.0
H322 H 0.17596 0.71802 0.00363 0.0
H323 H 0.19043 0.61328 0.00157 0.0
H324 H 0.41389 0.552 0.93244 0.0
H325 H 0.34694 0.57122 0.96662 0.0
C326 C 0.69345 0.80997 0.45685 0.0
C327 C 0.66779 0.81724 0.48282 0.0
C328 C 0.72691 0.82973 0.44605 0.0
C329 C 0.80942 0.88517 0.46607 0.0
H330 H 0.80388 0.91289 0.38911 0.0
C331 C 0.97312 0.91839 0.39795 0.0
C332 C 0.96799 0.94695 0.38359 0.0
C333 C 0.93313 0.90781 0.41264 0.0
C334 C 0.80532 0.90571 0.41075 0.0
H335 H 0.65741 0.85018 0.51822 0.0
H336 H 0.71726 0.88431 0.49965 0.0
H337 H 0.74002 0.88277 0.40949 0.0
H338 H 0.91745 0.987 0.37324 0.0
H339 H 0.84619 0.96768 0.39843 0.0
H340 H 0.87607 0.90668 0.46684 0.0
C341 C 0.71096 0.8636 0.48755 0.0
C342 C 0.76923 0.88828 0.42228 0.0
C343 C 0.67688 0.84415 0.49813 0.0
C344 C 0.92215 0.96497 0.38431 0.0
C345 C 0.88163 0.95395 0.39858 0.0
C346 C 0.84595 0.9021 0.45438 0.0
C347 C 0.73576 0.85676 0.46127 0.0
C348 C 0.7715 0.87741 0.44986 0.0
C349 C 0.88699 0.92526 0.41282 0.0
C350 C 0.84459 0.91202 0.4265 0.0
H351 H 0.68664 0.7895 0.44459 0.0
H352 H 0.74608 0.82381 0.42586 0.0
H353 H 0.81196 0.87697 0.48736 0.0
H354 H 0.00821 0.90418 0.39783 0.0
H355 H 0.93797 0.88546 0.42323 0.0
C356 C 0.45736 0.1664 0.49812 0.0
C357 C 0.45653 0.19928 0.4951 0.0
C358 C 0.42222 0.15 0.48634 0.0
C359 C 0.29859 0.15781 0.463 0.0
H360 H 0.34442 0.08622 0.41365 0.0
C361 C 0.16634 0.09696 0.39705 0.0
C362 C 0.17511 0.06416 0.39241 0.0
C363 C 0.20055 0.11337 0.40976 0.0
C364 C 0.33081 0.10577 0.42774 0.0
H365 H 0.41701 0.24064 0.47769 0.0
H366 H 0.35455 0.21196 0.45806 0.0
H367 H 0.4033 0.11484 0.43661 0.0
H368 H 0.22729 0.023 0.39682 0.0
H369 H 0.28574 0.05113 0.42046 0.0
H370 H 0.22615 0.14838 0.45501 0.0
C371 C 0.38288 0.19904 0.46941 0.0
C372 C 0.36465 0.12225 0.44075 0.0
C373 C 0.41853 0.21544 0.4808 0.0
C374 C 0.219 0.04814 0.4006 0.0
C375 C 0.25292 0.06444 0.41376 0.0
C376 C 0.26466 0.14101 0.45039 0.0
C377 C 0.38488 0.16613 0.47173 0.0
C378 C 0.34884 0.14849 0.45837 0.0
C379 C 0.24416 0.09732 0.41853 0.0
C380 C 0.28031 0.11486 0.43243 0.0
H381 H 0.4853 0.15323 0.50956 0.0
H382 H 0.4241 0.12465 0.48873 0.0
H383 H 0.28553 0.1778 0.47674 0.0
H384 H 0.133 0.1101 0.39092 0.0
H385 H 0.19286 0.13873 0.41244 0.0
C386 C 0.48147 0.84093 0.52202 0.0
C387 C 0.49292 0.81087 0.50928 0.0
C388 C 0.43814 0.85943 0.51663 0.0
C389 C 0.32232 0.85894 0.4796 0.0
H390 H 0.35138 0.94207 0.45611 0.0
C391 C 0.24557 0.92091 0.38485 0.0
C392 C 0.2125 0.94803 0.39071 0.0
C393 C 0.27516 0.90822 0.40539 0.0
C394 C 0.34245 0.9192 0.46312 0.0
H395 H 0.46627 0.77555 0.48291 0.0
H396 H 0.39132 0.80764 0.47324 0.0
H397 H 0.40853 0.91021 0.48416 0.0
H398 H 0.18554 0.9836 0.42253 0.0
H399 H 0.23957 0.96191 0.45828 0.0
H400 H 0.25823 0.86718 0.45637 0.0
C401 C 0.41513 0.81703 0.48769 0.0
C402 C 0.37493 0.90094 0.47931 0.0
C403 C 0.45824 0.7985 0.49323 0.0
C404 C 0.2115 0.96314 0.41718 0.0
C405 C 0.24184 0.9506 0.4377 0.0
C406 C 0.2903 0.87702 0.46312 0.0
C407 C 0.40563 0.84826 0.49826 0.0
C408 C 0.36616 0.87008 0.48683 0.0
C409 C 0.2727 0.92254 0.4321 0.0
C410 C 0.30101 0.9068 0.45405 0.0
H411 H 0.50741 0.85085 0.53477 0.0
H412 H 0.43141 0.88309 0.52563 0.0
H413 H 0.31392 0.83559 0.48549 0.0
H414 H 0.24717 0.9087 0.36469 0.0
H415 H 0.29917 0.88668 0.40066 0.0
C416 C 0.64406 0.16987 0.51584 0.0
C417 C 0.63352 0.20194 0.50963 0.0
C418 C 0.68847 0.15315 0.50628 0.0
C419 C 0.81278 0.16059 0.47451 0.0
H420 H 0.79601 0.08112 0.43764 0.0
C421 C 0.95971 0.0974 0.39588 0.0
C422 C 0.96775 0.06428 0.39606 0.0
C423 C 0.92081 0.11363 0.41211 0.0
C424 C 0.80161 0.10297 0.4482 0.0
H425 H 0.6624 0.24216 0.49016 0.0
H426 H 0.74028 0.21294 0.47343 0.0
H427 H 0.72672 0.11083 0.46347 0.0
H428 H 0.94187 0.0222 0.41379 0.0
H429 H 0.87381 0.05049 0.44224 0.0
H430 H 0.88766 0.15284 0.45892 0.0
C431 C 0.71426 0.20074 0.48581 0.0
C432 C 0.76184 0.12003 0.46306 0.0
C433 C 0.66973 0.21753 0.49544 0.0
C434 C 0.93606 0.04768 0.41284 0.0
C435 C 0.89713 0.06393 0.42917 0.0
C436 C 0.85267 0.14345 0.4597 0.0
C437 C 0.72334 0.1681 0.49025 0.0
C438 C 0.76681 0.14917 0.47619 0.0
C439 C 0.88911 0.09714 0.42906 0.0
C440 C 0.84743 0.11459 0.4461 0.0
H441 H 0.61697 0.15738 0.52705 0.0
H442 H 0.69481 0.1282 0.51062 0.0
H443 H 0.81791 0.18279 0.48463 0.0
H444 H -0.01661 0.11089 0.38311 0.0
H445 H 0.91525 0.13913 0.41108 0.0
loop_
_geom_bond_atom_site_label_1
_geom_bond_atom_site_label_2
_geom_bond_distance
_geom_bond_site_symmetry_2
_ccdc_geom_bond_type
H0 C3 0.929 . S
H1 C6 0.929 . S
H2 C8 0.930 . S
C3 H0 0.929 . S
C3 C4 1.398 1_556 S
C3 C5 1.396 1_556 S
C4 C3 1.398 1_554 S
C4 C8 1.407 . S
C5 C3 1.396 1_554 S
C5 C6 1.394 . S
C6 H1 0.929 . S
C6 C5 1.394 . S
C6 C7 1.382 . S
C7 C6 1.382 . S
C7 C8 1.392 . S
C7 N9 1.420 . S
C8 H2 0.930 . S
C8 C4 1.407 . S
C8 C7 1.392 . S
N9 C7 1.420 . S
N9 C10 1.244 . S
C10 N9 1.244 . S
H11 C14 0.918 1_556 S
H12 C17 0.929 . S
H13 C19 0.930 . S
C14 H11 0.918 1_554 S
C14 C15 1.403 1_455 S
C14 C16 1.403 . S
C15 C14 1.403 1_655 S
C15 C19 1.407 . S
C16 C14 1.403 . S
C16 C17 1.394 . S
C17 H12 0.929 . S
C17 C16 1.394 . S
C17 C18 1.382 1_455 S
C18 C17 1.382 1_655 S
C18 C19 1.392 . S
C18 N20 1.420 . S
C19 H13 0.930 . S
C19 C15 1.407 . S
C19 C18 1.392 . S
N20 C18 1.420 . S
N20 C21 1.244 1_655 S
C21 N20 1.244 1_455 S
H22 C25 0.929 . S
H23 C28 0.929 . S
H24 C30 0.930 . S
C25 H22 0.929 . S
C25 C26 1.398 . S
C25 C27 1.396 . S
C26 C25 1.398 . S
C26 C30 1.407 . S
C27 C25 1.396 . S
C27 C28 1.394 . S
C28 H23 0.929 . S
C28 C27 1.394 . S
C28 C29 1.382 . S
C29 C28 1.382 . S
C29 C30 1.392 . S
C29 N31 1.420 . S
C30 H24 0.930 . S
C30 C26 1.407 . S
C30 C29 1.392 . S
N31 C29 1.420 . S
N31 C32 1.244 . S
C32 N31 1.244 . S
H33 C36 0.929 . S
H34 C39 0.929 . S
H35 C41 0.930 . S
C36 H33 0.929 . S
C36 C37 1.398 . S
C36 C38 1.396 . S
C37 C36 1.398 . S
C37 C41 1.407 . S
C38 C36 1.396 . S
C38 C39 1.394 . S
C39 H34 0.929 . S
C39 C38 1.394 . S
C39 C40 1.382 . S
C40 C39 1.382 . S
C40 C41 1.392 . S
C40 N42 1.420 . S
C41 H35 0.930 . S
C41 C37 1.407 . S
C41 C40 1.392 . S
N42 C40 1.420 . S
N42 C43 1.244 . S
C43 N42 1.244 . S
Zn44 O50 1.920 . S
Zn44 O56 1.898 . S
Zn44 O59 1.905 1_455 S
Zn45 O53 1.905 . S
Zn45 O54 1.898 . S
Zn45 O62 1.920 . S
Zn46 O49 2.080 . S
Zn46 O52 2.114 1_545 S
Zn46 O55 2.120 1_545 S
Zn46 O57 2.120 . S
Zn46 O58 2.114 . S
Zn46 O61 2.080 1_545 S
C47 O52 1.166 . S
C47 O53 1.182 . S
C48 O54 1.167 . S
C48 O55 1.299 . S
O49 Zn46 2.080 . S
O49 C63 1.305 . S
O50 Zn44 1.920 . S
O50 C63 1.234 . S
C51 O56 1.167 . S
C51 O57 1.299 . S
O52 Zn46 2.114 1_565 S
O52 C47 1.166 . S
O53 Zn45 1.905 . S
O53 C47 1.182 . S
O54 Zn45 1.898 . S
O54 C48 1.167 . S
O55 Zn46 2.120 1_565 S
O55 C48 1.299 . S
O56 Zn44 1.898 . S
O56 C51 1.167 . S
O57 Zn46 2.120 . S
O57 C51 1.299 . S
O58 Zn46 2.114 . S
O58 C60 1.166 1_455 S
O59 Zn44 1.905 1_655 S
O59 C60 1.182 . S
C60 O58 1.166 1_655 S
C60 O59 1.182 . S
O61 Zn46 2.080 1_565 S
O61 C64 1.305 . S
O62 Zn45 1.920 . S
O62 C64 1.234 . S
C63 O49 1.305 . S
C63 O50 1.234 . S
C64 O61 1.305 . S
C64 O62 1.234 . S
Zn65 O71 1.920 . S
Zn65 O77 1.898 . S
Zn65 O80 1.905 . S
Zn66 O74 1.905 . S
Zn66 O75 1.898 . S
Zn66 O83 1.920 . S
Zn67 O70 2.080 . S
Zn67 O73 2.114 . S
Zn67 O76 2.120 . S
Zn67 O78 2.120 . S
Zn67 O79 2.114 . S
Zn67 O82 2.080 . S
C68 O73 1.166 . S
C68 O74 1.182 . S
C69 O75 1.167 . S
C69 O76 1.299 . S
O70 Zn67 2.080 . S
O70 C84 1.305 . S
O71 Zn65 1.920 . S
O71 C84 1.234 . S
C72 O77 1.167 . S
C72 O78 1.299 . S
O73 Zn67 2.114 . S
O73 C68 1.166 . S
O74 Zn66 1.905 . S
O74 C68 1.182 . S
O75 Zn66 1.898 . S
O75 C69 1.167 . S
O76 Zn67 2.120 . S
O76 C69 1.299 . S
O77 Zn65 1.898 . S
O77 C72 1.167 . S
O78 Zn67 2.120 . S
O78 C72 1.299 . S
O79 Zn67 2.114 . S
O79 C81 1.166 . S
O80 Zn65 1.905 . S
O80 C81 1.182 . S
C81 O79 1.166 . S
C81 O80 1.182 . S
O82 Zn67 2.080 . S
O82 C85 1.305 . S
O83 Zn66 1.920 . S
O83 C85 1.234 . S
C84 O70 1.305 . S
C84 O71 1.234 . S
C85 O82 1.305 . S
C85 O83 1.234 . S
C86 C87 1.349 . S
C86 C88 1.327 . S
C86 H111 0.950 . S
C87 C86 1.349 . S
C87 C103 1.349 . S
C88 C86 1.327 . S
C88 C107 1.429 . S
C88 H112 0.950 . S
C89 C106 1.574 . S
C89 C108 1.368 . S
C89 H113 0.949 . S
H90 C94 0.949 . S
C91 C92 1.349 . S
C91 C93 1.327 . S
C91 H114 0.950 . S
C92 C91 1.349 . S
C92 C104 1.349 . S
C93 C91 1.327 . S
C93 C109 1.429 . S
C93 H115 0.950 . S
C94 H90 0.949 . S
C94 C102 1.574 . S
C94 C110 1.368 . S
H95 C103 0.950 . S
H96 C101 0.950 . S
H97 C102 0.949 . S
H98 C104 0.950 . S
H99 C105 0.950 . S
H100 C106 0.949 . S
C101 H96 0.950 . S
C101 C103 1.327 . S
C101 C107 1.429 . S
C102 C94 1.574 . S
C102 H97 0.949 . S
C102 C108 1.368 . S
C103 C87 1.349 . S
C103 H95 0.950 . S
C103 C101 1.327 . S
C104 C92 1.349 . S
C104 H98 0.950 . S
C104 C105 1.327 . S
C105 H99 0.950 . S
C105 C104 1.327 . S
C105 C109 1.429 . S
C106 C89 1.574 . S
C106 H100 0.949 . S
C106 C110 1.368 . S
C107 C88 1.429 . S
C107 C101 1.429 . S
C107 C108 1.523 . S
C108 C89 1.368 . S
C108 C102 1.368 . S
C108 C107 1.523 . S
C109 C93 1.429 . S
C109 C105 1.429 . S
C109 C110 1.523 . S
C110 C94 1.368 . S
C110 C106 1.368 . S
C110 C109 1.523 . S
H111 C86 0.950 . S
H112 C88 0.950 . S
H113 C89 0.949 . S
H114 C91 0.950 . S
H115 C93 0.950 . S
C116 C117 1.349 . S
C116 C118 1.327 . S
C116 H141 0.950 . S
C117 C116 1.349 . S
C117 C133 1.349 1_455 S
C118 C116 1.327 . S
C118 C137 1.429 . S
C118 H142 0.950 . S
C119 C136 1.574 1_655 S
C119 C138 1.368 1_655 S
C119 H143 0.949 . S
H120 C124 0.949 . S
C121 C122 1.349 . S
C121 C123 1.327 . S
C121 H144 0.950 . S
C122 C121 1.349 . S
C122 C134 1.349 . S
C123 C121 1.327 . S
C123 C139 1.429 . S
C123 H145 0.950 1_455 S
C124 H120 0.949 . S
C124 C132 1.574 . S
C124 C140 1.368 . S
H125 C133 0.950 . S
H126 C131 0.950 . S
H127 C132 0.949 . S
H128 C134 0.950 . S
H129 C135 0.950 . S
H130 C136 0.949 1_655 S
C131 H126 0.950 . S
C131 C133 1.327 . S
C131 C137 1.429 1_655 S
C132 C124 1.574 . S
C132 H127 0.949 . S
C132 C138 1.368 . S
C133 C117 1.349 1_655 S
C133 H125 0.950 . S
C133 C131 1.327 . S
C134 C122 1.349 . S
C134 H128 0.950 . S
C134 C135 1.327 . S
C135 H129 0.950 . S
C135 C134 1.327 . S
C135 C139 1.429 . S
C136 C119 1.574 1_455 S
C136 H130 0.949 1_455 S
C136 C140 1.368 . S
C137 C118 1.429 . S
C137 C131 1.429 1_455 S
C137 C138 1.523 . S
C138 C119 1.368 1_455 S
C138 C132 1.368 . S
C138 C137 1.523 . S
C139 C123 1.429 . S
C139 C135 1.429 . S
C139 C140 1.523 . S
C140 C124 1.368 . S
C140 C136 1.368 . S
C140 C139 1.523 . S
H141 C116 0.950 . S
H142 C118 0.950 . S
H143 C119 0.949 . S
H144 C121 0.950 . S
H145 C123 0.950 1_655 S
C146 C147 1.349 . S
C146 C148 1.327 . S
C146 H171 0.950 . S
C147 C146 1.349 . S
C147 C163 1.349 . S
C148 C146 1.327 . S
C148 C167 1.429 . S
C148 H172 0.950 . S
C149 C166 1.574 . S
C149 C168 1.368 . S
C149 H173 0.949 . S
H150 C154 0.949 . S
C151 C152 1.349 . S
C151 C153 1.327 . S
C151 H174 0.950 . S
C152 C151 1.349 . S
C152 C164 1.349 . S
C153 C151 1.327 . S
C153 C169 1.429 . S
C153 H175 0.950 . S
C154 H150 0.949 . S
C154 C162 1.574 . S
C154 C170 1.368 . S
H155 C163 0.950 . S
H156 C161 0.950 . S
H157 C162 0.949 . S
H158 C164 0.950 . S
H159 C165 0.950 . S
H160 C166 0.949 . S
C161 H156 0.950 . S
C161 C163 1.327 . S
C161 C167 1.429 . S
C162 C154 1.574 . S
C162 H157 0.949 . S
C162 C168 1.368 . S
C163 C147 1.349 . S
C163 H155 0.950 . S
C163 C161 1.327 . S
C164 C152 1.349 . S
C164 H158 0.950 . S
C164 C165 1.327 . S
C165 H159 0.950 . S
C165 C164 1.327 . S
C165 C169 1.429 . S
C166 C149 1.574 . S
C166 H160 0.949 . S
C166 C170 1.368 . S
C167 C148 1.429 . S
C167 C161 1.429 . S
C167 C168 1.523 . S
C168 C149 1.368 . S
C168 C162 1.368 . S
C168 C167 1.523 . S
C169 C153 1.429 . S
C169 C165 1.429 . S
C169 C170 1.523 . S
C170 C154 1.368 . S
C170 C166 1.368 . S
C170 C169 1.523 . S
H171 C146 0.950 . S
H172 C148 0.950 . S
H173 C149 0.949 . S
H174 C151 0.950 . S
H175 C153 0.950 . S
C176 C177 1.349 . S
C176 C178 1.327 . S
C176 H201 0.950 . S
C177 C176 1.349 . S
C177 C193 1.349 . S
C178 C176 1.327 . S
C178 C197 1.429 . S
C178 H202 0.950 . S
C179 C196 1.574 . S
C179 C198 1.368 . S
C179 H203 0.949 . S
H180 C184 0.949 . S
C181 C182 1.349 . S
C181 C183 1.327 . S
C181 H204 0.950 . S
C182 C181 1.349 . S
C182 C194 1.349 . S
C183 C181 1.327 . S
C183 C199 1.429 . S
C183 H205 0.950 . S
C184 H180 0.949 . S
C184 C192 1.574 . S
C184 C200 1.368 . S
H185 C193 0.950 . S
H186 C191 0.950 . S
H187 C192 0.949 . S
H188 C194 0.950 . S
H189 C195 0.950 . S
H190 C196 0.949 . S
C191 H186 0.950 . S
C191 C193 1.327 . S
C191 C197 1.429 . S
C192 C184 1.574 . S
C192 H187 0.949 . S
C192 C198 1.368 . S
C193 C177 1.349 . S
C193 H185 0.950 . S
C193 C191 1.327 . S
C194 C182 1.349 . S
C194 H188 0.950 . S
C194 C195 1.327 . S
C195 H189 0.950 . S
C195 C194 1.327 . S
C195 C199 1.429 . S
C196 C179 1.574 . S
C196 H190 0.949 . S
C196 C200 1.368 . S
C197 C178 1.429 . S
C197 C191 1.429 . S
C197 C198 1.523 . S
C198 C179 1.368 . S
C198 C192 1.368 . S
C198 C197 1.523 . S
C199 C183 1.429 . S
C199 C195 1.429 . S
C199 C200 1.523 . S
C200 C184 1.368 . S
C200 C196 1.368 . S
C200 C199 1.523 . S
H201 C176 0.950 . S
H202 C178 0.950 . S
H203 C179 0.949 . S
H204 C181 0.950 . S
H205 C183 0.950 . S
C206 C207 1.349 . S
C206 C208 1.327 . S
C206 H231 0.950 . S
C207 C206 1.349 . S
C207 C223 1.349 1_556 S
C208 C206 1.327 . S
C208 C227 1.429 . S
C208 H232 0.950 . S
C209 C226 1.574 . S
C209 C228 1.368 . S
C209 H233 0.949 . S
H210 C214 0.949 . S
C211 C212 1.349 . S
C211 C213 1.327 . S
C211 H234 0.950 . S
C212 C211 1.349 . S
C212 C224 1.349 . S
C213 C211 1.327 . S
C213 C229 1.429 . S
C213 H235 0.950 . S
C214 H210 0.949 . S
C214 C222 1.574 . S
C214 C230 1.368 . S
H215 C223 0.950 . S
H216 C221 0.950 . S
H217 C222 0.949 . S
H218 C224 0.950 . S
H219 C225 0.950 . S
H220 C226 0.949 . S
C221 H216 0.950 . S
C221 C223 1.327 1_556 S
C221 C227 1.429 . S
C222 C214 1.574 . S
C222 H217 0.949 . S
C222 C228 1.368 . S
C223 C207 1.349 1_554 S
C223 H215 0.950 . S
C223 C221 1.327 1_554 S
C224 C212 1.349 . S
C224 H218 0.950 . S
C224 C225 1.327 . S
C225 H219 0.950 . S
C225 C224 1.327 . S
C225 C229 1.429 . S
C226 C209 1.574 . S
C226 H220 0.949 . S
C226 C230 1.368 . S
C227 C208 1.429 . S
C227 C221 1.429 . S
C227 C228 1.523 . S
C228 C209 1.368 . S
C228 C222 1.368 . S
C228 C227 1.523 . S
C229 C213 1.429 . S
C229 C225 1.429 . S
C229 C230 1.523 . S
C230 C214 1.368 . S
C230 C226 1.368 . S
C230 C229 1.523 . S
H231 C206 0.950 . S
H232 C208 0.950 . S
H233 C209 0.949 . S
H234 C211 0.950 . S
H235 C213 0.950 . S
C236 C237 1.351 . S
C236 C238 1.327 . S
C236 H261 0.950 . S
C237 C236 1.351 . S
C237 C253 1.347 . S
C238 C236 1.327 . S
C238 C257 1.429 . S
C238 H262 0.950 . S
C239 C256 1.574 . S
C239 C258 1.368 . S
C239 H263 0.949 . S
H240 C244 0.949 . S
C241 C242 1.349 . S
C241 C243 1.327 . S
C241 H264 0.950 . S
C242 C241 1.349 . S
C242 C254 1.349 . S
C243 C241 1.327 . S
C243 C259 1.429 . S
C243 H265 0.950 . S
C244 H240 0.949 . S
C244 C252 1.574 . S
C244 C260 1.368 . S
H245 C253 0.940 1_554 S
H246 C251 0.950 . S
H247 C252 0.949 . S
H248 C254 0.950 . S
H249 C255 0.950 . S
H250 C256 0.949 . S
C251 H246 0.950 . S
C251 C253 1.340 . S
C251 C257 1.429 . S
C252 C244 1.574 . S
C252 H247 0.949 . S
C252 C258 1.368 . S
C253 C237 1.347 . S
C253 H245 0.940 1_556 S
C253 C251 1.340 . S
C254 C242 1.349 . S
C254 H248 0.950 . S
C254 C255 1.327 . S
C255 H249 0.950 . S
C255 C254 1.327 . S
C255 C259 1.429 . S
C256 C239 1.574 . S
C256 H250 0.949 . S
C256 C260 1.368 . S
C257 C238 1.429 . S
C257 C251 1.429 . S
C257 C258 1.523 . S
C258 C239 1.368 . S
C258 C252 1.368 . S
C258 C257 1.523 . S
C259 C243 1.429 . S
C259 C255 1.429 . S
C259 C260 1.523 . S
C260 C244 1.368 . S
C260 C256 1.368 . S
C260 C259 1.523 . S
H261 C236 0.950 . S
H262 C238 0.950 . S
H263 C239 0.949 . S
H264 C241 0.950 . S
H265 C243 0.950 . S
C266 C267 1.366 . S
C266 C268 1.344 1_455 S
C266 H291 0.916 1_556 S
C267 C266 1.366 . S
C267 C283 1.349 . S
C268 C266 1.344 1_655 S
C268 C287 1.429 . S
C268 H292 0.950 . S
C269 C286 1.574 . S
C269 C288 1.368 . S
C269 H293 0.949 . S
H270 C274 0.949 . S
C271 C272 1.349 . S
C271 C273 1.327 . S
C271 H294 0.950 . S
C272 C271 1.349 . S
C272 C284 1.349 . S
C273 C271 1.327 . S
C273 C289 1.429 . S
C273 H295 0.950 . S
C274 H270 0.949 . S
C274 C282 1.574 . S
C274 C290 1.368 . S
H275 C283 0.950 . S
H276 C281 0.950 . S
H277 C282 0.949 . S
H278 C284 0.950 . S
H279 C285 0.950 . S
H280 C286 0.949 . S
C281 H276 0.950 . S
C281 C283 1.327 1_655 S
C281 C287 1.429 . S
C282 C274 1.574 . S
C282 H277 0.949 . S
C282 C288 1.368 . S
C283 C267 1.349 . S
C283 H275 0.950 . S
C283 C281 1.327 1_455 S
C284 C272 1.349 . S
C284 H278 0.950 . S
C284 C285 1.327 . S
C285 H279 0.950 . S
C285 C284 1.327 . S
C285 C289 1.429 . S
C286 C269 1.574 . S
C286 H280 0.949 . S
C286 C290 1.368 . S
C287 C268 1.429 . S
C287 C281 1.429 . S
C287 C288 1.523 . S
C288 C269 1.368 . S
C288 C282 1.368 . S
C288 C287 1.523 . S
C289 C273 1.429 . S
C289 C285 1.429 . S
C289 C290 1.523 . S
C290 C274 1.368 . S
C290 C286 1.368 . S
C290 C289 1.523 . S
H291 C266 0.916 1_554 S
H292 C268 0.950 . S
H293 C269 0.949 . S
H294 C271 0.950 . S
H295 C273 0.950 . S
C296 C297 1.349 . S
C296 C298 1.327 . S
C296 H321 0.950 . S
C297 C296 1.349 . S
C297 C313 1.345 1_556 S
C298 C296 1.327 . S
C298 C317 1.429 . S
C298 H322 0.950 . S
C299 C316 1.574 . S
C299 C318 1.368 . S
C299 H323 0.949 . S
H300 C304 0.949 . S
C301 C302 1.349 . S
C301 C303 1.327 . S
C301 H324 0.950 . S
C302 C301 1.349 . S
C302 C314 1.349 . S
C303 C301 1.327 . S
C303 C319 1.429 . S
C303 H325 0.950 . S
C304 H300 0.949 . S
C304 C312 1.574 . S
C304 C320 1.368 . S
H305 C313 0.961 . S
H306 C311 0.950 . S
H307 C312 0.949 . S
H308 C314 0.950 . S
H309 C315 0.950 . S
H310 C316 0.949 . S
C311 H306 0.950 . S
C311 C313 1.320 1_556 S
C311 C317 1.429 . S
C312 C304 1.574 . S
C312 H307 0.949 . S
C312 C318 1.368 . S
C313 C297 1.345 1_554 S
C313 H305 0.961 . S
C313 C311 1.320 1_554 S
C314 C302 1.349 . S
C314 H308 0.950 . S
C314 C315 1.327 . S
C315 H309 0.950 . S
C315 C314 1.327 . S
C315 C319 1.429 . S
C316 C299 1.574 . S
C316 H310 0.949 . S
C316 C320 1.368 . S
C317 C298 1.429 . S
C317 C311 1.429 . S
C317 C318 1.523 . S
C318 C299 1.368 . S
C318 C312 1.368 . S
C318 C317 1.523 . S
C319 C303 1.429 . S
C319 C315 1.429 . S
C319 C320 1.523 . S
C320 C304 1.368 . S
C320 C316 1.368 . S
C320 C319 1.523 . S
H321 C296 0.950 . S
H322 C298 0.950 . S
H323 C299 0.949 . S
H324 C301 0.950 . S
H325 C303 0.950 . S
C326 C327 1.349 . S
C326 C328 1.327 . S
C326 H351 0.950 . S
C327 C326 1.349 . S
C327 C343 1.349 . S
C328 C326 1.327 . S
C328 C347 1.429 . S
C328 H352 0.950 . S
C329 C346 1.574 . S
C329 C348 1.368 . S
C329 H353 0.949 . S
H330 C334 0.949 . S
C331 C332 1.351 . S
C331 C333 1.336 . S
C331 H354 0.939 1_655 S
C332 C331 1.351 . S
C332 C344 1.349 . S
C333 C331 1.336 . S
C333 C349 1.429 . S
C333 H355 0.950 . S
C334 H330 0.949 . S
C334 C342 1.574 . S
C334 C350 1.368 . S
H335 C343 0.950 . S
H336 C341 0.950 . S
H337 C342 0.949 . S
H338 C344 0.950 . S
H339 C345 0.950 . S
H340 C346 0.949 . S
C341 H336 0.950 . S
C341 C343 1.327 . S
C341 C347 1.429 . S
C342 C334 1.574 . S
C342 H337 0.949 . S
C342 C348 1.368 . S
C343 C327 1.349 . S
C343 H335 0.950 . S
C343 C341 1.327 . S
C344 C332 1.349 . S
C344 H338 0.950 . S
C344 C345 1.327 . S
C345 H339 0.950 . S
C345 C344 1.327 . S
C345 C349 1.429 . S
C346 C329 1.574 . S
C346 H340 0.949 . S
C346 C350 1.368 . S
C347 C328 1.429 . S
C347 C341 1.429 . S
C347 C348 1.523 . S
C348 C329 1.368 . S
C348 C342 1.368 . S
C348 C347 1.523 . S
C349 C333 1.429 . S
C349 C345 1.429 . S
C349 C350 1.523 . S
C350 C334 1.368 . S
C350 C346 1.368 . S
C350 C349 1.523 . S
H351 C326 0.950 . S
H352 C328 0.950 . S
H353 C329 0.949 . S
H354 C331 0.939 1_455 S
H355 C333 0.950 . S
C356 C357 1.349 . S
C356 C358 1.327 . S
C356 H381 0.950 . S
C357 C356 1.349 . S
C357 C373 1.349 . S
C358 C356 1.327 . S
C358 C377 1.429 . S
C358 H382 0.950 . S
C359 C376 1.574 . S
C359 C378 1.368 . S
C359 H383 0.949 . S
H360 C364 0.949 . S
C361 C362 1.349 . S
C361 C363 1.327 . S
C361 H384 0.950 . S
C362 C361 1.349 . S
C362 C374 1.349 . S
C363 C361 1.327 . S
C363 C379 1.429 . S
C363 H385 0.950 . S
C364 H360 0.949 . S
C364 C372 1.574 . S
C364 C380 1.368 . S
H365 C373 0.950 . S
H366 C371 0.950 . S
H367 C372 0.949 . S
H368 C374 0.950 . S
H369 C375 0.950 . S
H370 C376 0.949 . S
C371 H366 0.950 . S
C371 C373 1.327 . S
C371 C377 1.429 . S
C372 C364 1.574 . S
C372 H367 0.949 . S
C372 C378 1.368 . S
C373 C357 1.349 . S
C373 H365 0.950 . S
C373 C371 1.327 . S
C374 C362 1.349 . S
C374 H368 0.950 . S
C374 C375 1.327 . S
C375 H369 0.950 . S
C375 C374 1.327 . S
C375 C379 1.429 . S
C376 C359 1.574 . S
C376 H370 0.949 . S
C376 C380 1.368 . S
C377 C358 1.429 . S
C377 C371 1.429 . S
C377 C378 1.523 . S
C378 C359 1.368 . S
C378 C372 1.368 . S
C378 C377 1.523 . S
C379 C363 1.429 . S
C379 C375 1.429 . S
C379 C380 1.523 . S
C380 C364 1.368 . S
C380 C376 1.368 . S
C380 C379 1.523 . S
H381 C356 0.950 . S
H382 C358 0.950 . S
H383 C359 0.949 . S
H384 C361 0.950 . S
H385 C363 0.950 . S
C386 C387 1.349 . S
C386 C388 1.327 . S
C386 H411 0.950 . S
C387 C386 1.349 . S
C387 C403 1.349 . S
C388 C386 1.327 . S
C388 C407 1.429 . S
C388 H412 0.950 . S
C389 C406 1.574 . S
C389 C408 1.368 . S
C389 H413 0.949 . S
H390 C394 0.949 . S
C391 C392 1.349 . S
C391 C393 1.327 . S
C391 H414 0.950 . S
C392 C391 1.349 . S
C392 C404 1.349 . S
C393 C391 1.327 . S
C393 C409 1.429 . S
C393 H415 0.950 . S
C394 H390 0.949 . S
C394 C402 1.574 . S
C394 C410 1.368 . S
H395 C403 0.950 . S
H396 C401 0.950 . S
H397 C402 0.949 . S
H398 C404 0.950 . S
H399 C405 0.950 . S
H400 C406 0.949 . S
C401 H396 0.950 . S
C401 C403 1.327 . S
C401 C407 1.429 . S
C402 C394 1.574 . S
C402 H397 0.949 . S
C402 C408 1.368 . S
C403 C387 1.349 . S
C403 H395 0.950 . S
C403 C401 1.327 . S
C404 C392 1.349 . S
C404 H398 0.950 . S
C404 C405 1.327 . S
C405 H399 0.950 . S
C405 C404 1.327 . S
C405 C409 1.429 . S
C406 C389 1.574 . S
C406 H400 0.949 . S
C406 C410 1.368 . S
C407 C388 1.429 . S
C407 C401 1.429 . S
C407 C408 1.523 . S
C408 C389 1.368 . S
C408 C402 1.368 . S
C408 C407 1.523 . S
C409 C393 1.429 . S
C409 C405 1.429 . S
C409 C410 1.523 . S
C410 C394 1.368 . S
C410 C406 1.368 . S
C410 C409 1.523 . S
H411 C386 0.950 . S
H412 C388 0.950 . S
H413 C389 0.949 . S
H414 C391 0.950 . S
H415 C393 0.950 . S
C416 C417 1.349 . S
C416 C418 1.327 . S
C416 H441 0.950 . S
C417 C416 1.349 . S
C417 C433 1.349 . S
C418 C416 1.327 . S
C418 C437 1.429 . S
C418 H442 0.950 . S
C419 C436 1.574 . S
C419 C438 1.368 . S
C419 H443 0.949 . S
H420 C424 0.949 . S
C421 C422 1.349 . S
C421 C423 1.327 . S
C421 H444 0.950 . S
C422 C421 1.349 . S
C422 C434 1.349 . S
C423 C421 1.327 . S
C423 C439 1.429 . S
C423 H445 0.950 . S
C424 H420 0.949 . S
C424 C432 1.574 . S
C424 C440 1.368 . S
H425 C433 0.950 . S
H426 C431 0.950 . S
H427 C432 0.949 . S
H428 C434 0.950 . S
H429 C435 0.950 . S
H430 C436 0.949 . S
C431 H426 0.950 . S
C431 C433 1.327 . S
C431 C437 1.429 . S
C432 C424 1.574 . S
C432 H427 0.949 . S
C432 C438 1.368 . S
C433 C417 1.349 . S
C433 H425 0.950 . S
C433 C431 1.327 . S
C434 C422 1.349 . S
C434 H428 0.950 . S
C434 C435 1.327 . S
C435 H429 0.950 . S
C435 C434 1.327 . S
C435 C439 1.429 . S
C436 C419 1.574 . S
C436 H430 0.949 . S
C436 C440 1.368 . S
C437 C418 1.429 . S
C437 C431 1.429 . S
C437 C438 1.523 . S
C438 C419 1.368 . S
C438 C432 1.368 . S
C438 C437 1.523 . S
C439 C423 1.429 . S
C439 C435 1.429 . S
C439 C440 1.523 . S
C440 C424 1.368 . S
C440 C436 1.368 . S
C440 C439 1.523 . S
H441 C416 0.950 . S
H442 C418 0.950 . S
H443 C419 0.949 . S
H444 C421 0.950 . S
H445 C423 0.950 . S
C92 C51 1.401 . S
C87 C10 1.530 . S
C122 C47 1.397 . S
C117 C21 1.502 . S
C152 C72 1.401 . S
C147 C32 1.530 . S
C177 C43 1.502 . S
C182 C68 1.397 . S
C207 C5 1.159 1_556 S
C212 C69 1.056 . S
C242 C84 1.065 . S
C237 C15 1.175 1_556 S
C267 C4 1.777 1_556 S
C272 C85 1.634 . S
C302 C81 1.672 . S
C297 C16 1.802 1_556 S
C332 C48 1.056 1_655 S
C327 C27 1.159 . S
C357 C37 1.177 . S
C362 C63 1.065 . S
C392 C64 1.634 . S
C387 C26 1.777 . S
C422 C60 1.672 . S
C417 C38 1.802 . S
