# Generated by pormake.
# Topology zzz, (3,6)-cn, num edge types: 1
# Building blocks:
#     Node 0, Type 0, BuildingBlock: BETDIP_clean_linker_0, # of connection points: 3
#     Node 1, Type 0, BuildingBlock: BETDIP_clean_linker_0, # of connection points: 3
#     Node 2, Type 0, BuildingBlock: BETDIP_clean_linker_0, # of connection points: 3
#     Node 3, Type 0, BuildingBlock: BETDIP_clean_linker_0, # of connection points: 3
#     Node 4, Type 0, BuildingBlock: BETDIP_clean_linker_0, # of connection points: 3
#     Node 5, Type 0, BuildingBlock: BETDIP_clean_linker_0, # of connection points: 3
#     Node 6, Type 0, BuildingBlock: BETDIP_clean_linker_0, # of connection points: 3
#     Node 7, Type 0, BuildingBlock: BETDIP_clean_linker_0, # of connection points: 3
#     Node 8, Type 1, BuildingBlock: BETDIP_clean_sbu_0, # of connection points: 6
#     Node 9, Type 1, BuildingBlock: BETDIP_clean_sbu_0, # of connection points: 6
#     Node 10, Type 1, BuildingBlock: BETDIP_clean_sbu_0, # of connection points: 6
#     Node 11, Type 1, BuildingBlock: BETDIP_clean_sbu_0, # of connection points: 6
#     Edge 12, Type (0, 1), BuildingBlock: CIFDUS_clean_linker_0, # of connection points: 2
#     Edge 13, Type (0, 1), BuildingBlock: CIFDUS_clean_linker_0, # of connection points: 2
#     Edge 14, Type (0, 1), BuildingBlock: CIFDUS_clean_linker_0, # of connection points: 2
#     Edge 15, Type (0, 1), BuildingBlock: CIFDUS_clean_linker_0, # of connection points: 2
#     Edge 16, Type (0, 1), BuildingBlock: CIFDUS_clean_linker_0, # of connection points: 2
#     Edge 17, Type (0, 1), BuildingBlock: CIFDUS_clean_linker_0, # of connection points: 2
#     Edge 18, Type (0, 1), BuildingBlock: CIFDUS_clean_linker_0, # of connection points: 2
#     Edge 19, Type (0, 1), BuildingBlock: CIFDUS_clean_linker_0, # of connection points: 2
#     Edge 20, Type (0, 1), BuildingBlock: CIFDUS_clean_linker_0, # of connection points: 2
#     Edge 21, Type (0, 1), BuildingBlock: CIFDUS_clean_linker_0, # of connection points: 2
#     Edge 22, Type (0, 1), BuildingBlock: CIFDUS_clean_linker_0, # of connection points: 2
#     Edge 23, Type (0, 1), BuildingBlock: CIFDUS_clean_linker_0, # of connection points: 2
#     Edge 24, Type (0, 1), BuildingBlock: CIFDUS_clean_linker_0, # of connection points: 2
#     Edge 25, Type (0, 1), BuildingBlock: CIFDUS_clean_linker_0, # of connection points: 2
#     Edge 26, Type (0, 1), BuildingBlock: CIFDUS_clean_linker_0, # of connection points: 2
#     Edge 27, Type (0, 1), BuildingBlock: CIFDUS_clean_linker_0, # of connection points: 2
#     Edge 28, Type (0, 1), BuildingBlock: CIFDUS_clean_linker_0, # of connection points: 2
#     Edge 29, Type (0, 1), BuildingBlock: CIFDUS_clean_linker_0, # of connection points: 2
#     Edge 30, Type (0, 1), BuildingBlock: CIFDUS_clean_linker_0, # of connection points: 2
#     Edge 31, Type (0, 1), BuildingBlock: CIFDUS_clean_linker_0, # of connection points: 2
#     Edge 32, Type (0, 1), BuildingBlock: CIFDUS_clean_linker_0, # of connection points: 2
#     Edge 33, Type (0, 1), BuildingBlock: CIFDUS_clean_linker_0, # of connection points: 2
#     Edge 34, Type (0, 1), BuildingBlock: CIFDUS_clean_linker_0, # of connection points: 2
#     Edge 35, Type (0, 1), BuildingBlock: CIFDUS_clean_linker_0, # of connection points: 2
# Relax obj value: 0.302
# Max RMSD: 0.176
# Mean RMSD: 0.148
data_MOF--net-zzz--node1-BETDIP_clean_sbu_0--node2-BETDIP_clean_linker_0--edge1-CIFDUS_clean_linker_0
_symmetry_space_group_name_H-M    P1
_symmetry_Int_Tables_number       1
_symmetry_cell_setting            triclinic
loop_
_symmetry_equiv_pos_as_xyz
'x, y, z'
_cell_length_a     45.357864
_cell_length_b     45.396129
_cell_length_c     11.895516
_cell_angle_alpha  89.963028
_cell_angle_beta   89.750378
_cell_angle_gamma 89.739773
loop_
_atom_site_label
_atom_site_type_symbol
_atom_site_fract_x
_atom_site_fract_y
_atom_site_fract_z
_atom_type_partial_charge
H0 H 0.79303 0.55127 0.42608 0.0
H1 H 0.76471 0.47337 0.25002 0.0
H2 H 0.845 0.47201 0.43869 0.0
H3 H 0.71672 0.49518 0.34065 0.0
C4 C 0.72104 0.51435 0.28833 0.0
C5 C 0.7959 0.52816 0.40612 0.0
C6 C 0.82106 0.51273 0.44584 0.0
C7 C 0.77437 0.51343 0.34076 0.0
C8 C 0.77953 0.484 0.30841 0.0
C9 C 0.80502 0.46906 0.34297 0.0
C10 C 0.82469 0.48315 0.41559 0.0
N11 N 0.74893 0.52867 0.29929 0.0
H12 H 0.0617 0.77328 0.45177 0.0
H13 H 0.97881 0.74091 0.32661 0.0
H14 H 0.98321 0.82515 0.49012 0.0
H15 H 1.00648 0.69535 0.44059 0.0
C16 C 1.02198 0.69783 0.37126 0.0
C17 C 0.03804 0.77559 0.44329 0.0
C18 C 0.02377 0.80159 0.48133 0.0
C19 C 1.02136 0.7525 0.39435 0.0
C20 C 0.99101 0.75695 0.37501 0.0
C21 C 0.97711 0.78335 0.40696 0.0
C22 C 0.99339 0.80435 0.46686 0.0
N23 N 0.03525 0.72605 0.35475 0.0
H24 H 0.78512 1.00672 0.50382 0.0
H25 H 0.80684 0.06127 0.21783 0.0
H26 H 0.72251 0.07018 0.37947 0.0
H27 H 0.82663 0.99661 0.19962 0.0
C28 C 0.84094 1.00925 0.25428 0.0
C29 C 0.77934 0.02421 0.4459 0.0
C30 C 0.75112 0.03773 0.45268 0.0
C31 C 0.79981 0.03302 0.36163 0.0
C32 C 0.79164 0.05487 0.28395 0.0
C33 C 0.76418 0.06882 0.29242 0.0
C34 C 0.74438 0.06037 0.37721 0.0
N35 N 0.82889 1.0209 0.35625 0.0
H36 H 0.56192 0.77236 0.47437 0.0
H37 H 0.48361 0.80241 0.30326 0.0
H38 H 0.48282 0.72087 0.4849 0.0
H39 H 0.50396 0.84933 0.38478 0.0
C40 C 0.5244 0.84539 0.33891 0.0
C41 C 0.53877 0.76981 0.45497 0.0
C42 C 0.52349 0.74443 0.49237 0.0
C43 C 0.52386 0.79197 0.39241 0.0
C44 C 0.49439 0.78718 0.36014 0.0
C45 C 0.47955 0.76157 0.3931 0.0
C46 C 0.49385 0.74128 0.46322 0.0
N47 N 0.53906 0.81766 0.35363 0.0
H48 H 0.28858 0.51178 0.12579 0.0
H49 H 0.31526 0.59281 0.28505 0.0
H50 H 0.23379 0.58899 0.10497 0.0
H51 H 0.36143 0.57357 0.19338 0.0
C52 C 0.35991 0.55414 0.24665 0.0
C53 C 0.28494 0.53494 0.14281 0.0
C54 C 0.25904 0.54909 0.10287 0.0
C55 C 0.30635 0.55119 0.20361 0.0
C56 C 0.30036 0.58085 0.23088 0.0
C57 C 0.27428 0.5946 0.19578 0.0
C58 C 0.25458 0.57886 0.12845 0.0
N59 N 0.33306 0.53771 0.24293 0.0
H60 H 0.06305 0.27411 0.09452 0.0
H61 H 0.98978 0.2952 0.3143 0.0
H62 H 0.99223 0.21283 0.138 0.0
H63 H 1.00067 0.34351 0.23173 0.0
C64 C 1.02339 0.34232 0.26022 0.0
C65 C 0.04168 0.26875 0.1297 0.0
C66 C 0.02853 0.24124 0.10476 0.0
C67 C 0.02705 0.28919 0.20192 0.0
C68 C 1.00009 0.28097 0.25241 0.0
C69 C 0.98736 0.25354 0.22963 0.0
C70 C 1.00132 0.23454 0.15316 0.0
N71 N 0.04044 0.31671 0.23125 0.0
H72 H 0.2853 0.04146 0.16666 0.0
H73 H 0.25515 0.96129 0.32336 0.0
H74 H 0.33604 0.96187 0.13488 0.0
H75 H 0.20739 0.98922 0.21792 0.0
C76 C 0.21199 1.0048 0.28495 0.0
C77 C 0.28777 1.01803 0.18107 0.0
C78 C 0.31266 1.00284 0.13693 0.0
C79 C 0.26591 1.00258 0.24321 0.0
C80 C 0.2704 0.97256 0.26784 0.0
C81 C 0.29585 0.95781 0.23038 0.0
C82 C 0.3158 0.9728 0.16066 0.0
N83 N 0.24077 1.01748 0.28953 0.0
H84 H 0.54953 0.26805 0.06425 0.0
H85 H 0.47453 0.24399 0.26955 0.0
H86 H 0.47468 0.32565 0.09033 0.0
H87 H 0.51199 0.2262 0.37421 0.0
C88 C 0.5232 0.21288 0.3112 0.0
C89 C 0.52718 0.2721 0.09286 0.0
C90 C 0.51262 0.29871 0.06279 0.0
C91 C 0.51318 0.25148 0.16536 0.0
C92 C 0.48505 0.25845 0.20932 0.0
C93 C 0.4718 0.28578 0.18764 0.0
C94 C 0.48444 0.30418 0.10607 0.0
N95 N 0.52817 0.22519 0.20174 0.0
Tb96 Tb 0.05587 1.00647 0.95224 0.0
Tb97 Tb 0.02809 0.02788 0.733 0.0
C98 C 0.05385 0.98637 0.14628 0.0
C99 C 0.03441 0.9621 0.18382 0.0
C100 C 1.00371 0.96645 0.19566 0.0
C101 C 0.98454 0.94234 0.1982 0.0
C102 C 0.99579 0.91367 0.18773 0.0
C103 C 0.02649 0.90931 0.18663 0.0
C104 C 0.04559 0.93323 0.18561 0.0
C105 C 0.09845 1.01747 0.80215 0.0
C106 C 0.04284 0.95948 0.76572 0.0
C107 C 1.00804 0.03953 0.54192 0.0
C108 C 0.98656 0.06157 0.50325 0.0
C109 C 0.98567 0.06967 0.38982 0.0
C110 C 0.96796 0.09328 0.35561 0.0
C111 C 0.95089 0.1091 0.43458 0.0
C112 C 0.95038 0.09955 0.54682 0.0
C113 C 0.96813 0.07604 0.58087 0.0
C114 C 0.99246 1.023 0.91121 0.0
C115 C 0.04981 0.0758 0.90649 0.0
O116 O 0.04056 1.01107 0.11797 0.0
O117 O 0.07442 0.9787 0.0736 0.0
O118 O 0.07097 1.02015 0.79159 0.0
O119 O 0.1031 1.00909 0.90513 0.0
O120 O 0.04519 0.96458 0.87459 0.0
O121 O 0.04009 0.98152 0.69273 0.0
O122 O 0.03303 0.05013 0.57943 0.0
O123 O 0.99731 1.01895 0.60731 0.0
O124 O 1.01275 1.0057 0.88087 0.0
O125 O 0.99098 0.04373 0.8371 0.0
O126 O 0.04288 0.07062 0.79969 0.0
O127 O 0.05314 0.05408 0.98036 0.0
H128 H 0.99432 0.98842 0.19631 0.0
H129 H 0.96098 0.94613 0.20251 0.0
H130 H 0.03574 0.88727 0.18306 0.0
H131 H 0.06907 0.92909 0.1784 0.0
H132 H 0.99966 0.05866 0.3287 0.0
H133 H 0.96924 0.10037 0.26877 0.0
H134 H 0.93743 0.11125 0.60932 0.0
H135 H 0.96832 0.06998 0.66873 0.0
Tb136 Tb 0.53358 0.04777 0.87593 0.0
Tb137 Tb 0.529 1.00292 0.71432 0.0
C138 C 0.54879 0.08222 0.03013 0.0
C139 C 0.57398 0.10202 0.04133 0.0
C140 C 0.5841 0.10931 0.14839 0.0
C141 C 0.61101 0.12365 0.16077 0.0
C142 C 0.62838 0.1306 0.06591 0.0
C143 C 0.61693 0.12535 0.9582 0.0
C144 C 0.58991 0.1111 0.946 0.0
C145 C 0.51692 0.06851 0.67785 0.0
C146 C 0.59186 0.02779 0.73793 0.0
C147 C 0.51153 0.96933 0.56019 0.0
C148 C 0.48236 0.95623 0.53929 0.0
C149 C 0.45702 0.97405 0.53937 0.0
C150 C 0.42921 0.96144 0.5332 0.0
C151 C 0.42598 0.93074 0.52631 0.0
C152 C 0.45124 0.91281 0.52157 0.0
C153 C 0.4793 0.92551 0.5294 0.0
C154 C 0.5433 0.9819 0.91622 0.0
C155 C 0.47126 1.02273 0.85509 0.0
O156 O 0.55536 0.05412 0.02921 0.0
O157 O 0.52994 0.08921 0.95199 0.0
O158 O 0.537 0.04948 0.694 0.0
O159 O 0.50572 0.07583 0.77364 0.0
O160 O 0.58047 0.04197 0.82555 0.0
O161 O 0.57471 1.01221 0.67179 0.0
O162 O 0.51353 0.99794 0.54939 0.0
O163 O 0.52471 0.95999 0.65064 0.0
O164 O 0.5246 1.00181 0.89477 0.0
O165 O 0.55519 0.97379 0.82208 0.0
O166 O 0.482 1.01152 0.76017 0.0
O167 O 0.48941 0.03493 0.92722 0.0
H168 H 0.57211 0.10223 0.22249 0.0
H169 H 0.61933 0.12686 0.24506 0.0
H170 H 0.62977 0.13047 0.88375 0.0
H171 H 0.5823 0.10567 0.86235 0.0
H172 H 0.45852 0.99777 0.547 0.0
H173 H 0.41007 0.97582 0.53377 0.0
H174 H 0.44923 0.88913 0.51402 0.0
H175 H 0.49859 0.91134 0.52977 0.0
Tb176 Tb 0.51534 0.5267 0.89615 0.0
Tb177 Tb 0.54853 0.51794 0.69313 0.0
C178 C 0.49386 0.54606 0.07568 0.0
C179 C 0.47555 0.57245 0.09204 0.0
C180 C 0.47653 0.58767 0.19392 0.0
C181 C 0.46265 0.61506 0.20417 0.0
C182 C 0.44771 0.62769 0.11238 0.0
C183 C 0.44596 0.61191 0.0113 0.0
C184 C 0.45975 0.58445 1.00125 0.0
C185 C 0.48142 0.51647 0.71891 0.0
C186 C 0.53663 0.58326 0.74874 0.0
C187 C 0.56012 0.49592 0.50678 0.0
C188 C 0.54414 0.47012 0.46318 0.0
C189 C 0.51305 0.47019 0.46278 0.0
C190 C 0.49744 0.44385 0.45694 0.0
C191 C 0.51257 0.41691 0.45065 0.0
C192 C 0.54356 0.41702 0.44188 0.0
C193 C 0.5592 0.44338 0.44833 0.0
C194 C 0.58276 0.52737 0.8705 0.0
C195 C 0.52888 0.46281 0.84028 0.0
O196 O 0.52099 0.55129 0.04374 0.0
O197 O 0.48173 0.52499 0.01733 0.0
O198 O 0.50413 0.53244 0.72201 0.0
O199 O 0.47667 0.50634 0.81874 0.0
O200 O 0.52412 0.57265 0.8415 0.0
O201 O 0.54755 0.56538 0.67174 0.0
O202 O 0.54448 0.52006 0.51763 0.0
O203 O 0.57614 0.49063 0.59589 0.0
O204 O 0.55947 0.51229 0.86736 0.0
O205 O 0.5888 0.53601 0.7689 0.0
O206 O 0.53056 0.47393 0.73756 0.0
O207 O 0.52807 0.48096 0.92667 0.0
H208 H 0.48905 0.57898 0.26397 0.0
H209 H 0.4651 0.62716 0.28204 0.0
H210 H 0.43509 0.62141 0.93881 0.0
H211 H 0.45923 0.57321 0.92093 0.0
H212 H 0.50066 0.49039 0.47457 0.0
H213 H 0.47361 0.44453 0.46315 0.0
H214 H 0.5558 0.3966 0.43321 0.0
H215 H 0.58308 0.44268 0.44901 0.0
Tb216 Tb 0.0368 0.50811 0.86093 0.0
Tb217 Tb 0.04354 0.54999 0.68993 0.0
C218 C 1.01909 0.47695 0.02194 0.0
C219 C 0.9934 0.45765 0.0325 0.0
C220 C 0.98052 0.45337 0.138 0.0
C221 C 0.9533 0.43936 0.14734 0.0
C222 C 0.93835 0.4296 0.05065 0.0
C223 C 0.95243 0.43212 0.94552 0.0
C224 C 0.97969 0.44616 0.93645 0.0
C225 C 0.04727 0.48285 0.6615 0.0
C226 C 0.97938 0.52989 0.72407 0.0
C227 C 0.06161 0.58072 0.52786 0.0
C228 C 0.09039 0.59484 0.50802 0.0
C229 C 0.11639 0.57808 0.51319 0.0
C230 C 0.14371 0.59175 0.50894 0.0
C231 C 0.1458 0.62249 0.49883 0.0
C232 C 0.11992 0.63933 0.48882 0.0
C233 C 0.09232 0.62558 0.49451 0.0
C234 C 0.03069 0.57522 0.88651 0.0
C235 C 0.10055 0.52882 0.82945 0.0
O236 O 1.01295 0.505 0.01205 0.0
O237 O 0.03927 0.46841 0.95046 0.0
O238 O 0.03068 0.50466 0.68158 0.0
O239 O 0.05915 0.47516 0.75544 0.0
O240 O 0.99008 0.5177 0.81691 0.0
O241 O 0.99758 0.54156 0.65001 0.0
O242 O 0.06119 0.55188 0.52677 0.0
O243 O 0.04653 0.59142 0.61207 0.0
O244 O 0.04853 0.55399 0.8707 0.0
O245 O 1.01929 0.58186 0.79043 0.0
O246 O 0.09008 0.5395 0.73365 0.0
O247 O 0.08209 0.51837 0.90498 0.0
H248 H 0.99068 0.46254 0.21223 0.0
H249 H 0.94297 0.43843 0.22949 0.0
H250 H 0.94158 0.42482 0.8696 0.0
H251 H 0.98929 0.44944 0.85381 0.0
H252 H 0.11579 0.55437 0.52319 0.0
H253 H 0.16336 0.57812 0.51286 0.0
H254 H 0.12107 0.663 0.47826 0.0
H255 H 0.07252 0.63896 0.49057 0.0
H256 H 0.2153 1.02212 0.50715 0.0
H257 H 0.1536 1.00144 0.24486 0.0
H258 H 0.11245 1.00644 0.37711 0.0
H259 H 0.09392 1.01286 0.57212 0.0
H260 H 0.15615 0.02899 0.83739 0.0
H261 H 0.19663 0.02985 0.70114 0.0
C262 C 0.19281 1.01929 0.47871 0.0
C263 C 0.18756 1.01175 0.36571 0.0
C264 C 0.16915 1.02116 0.55672 0.0
C265 C 0.15827 1.00745 0.33109 0.0
C266 C 0.13467 1.01021 0.40692 0.0
C267 C 0.11629 1.01705 0.59956 0.0
C268 C 0.12192 1.02106 0.71493 0.0
C269 C 0.13979 1.01652 0.52064 0.0
C270 C 0.15115 0.0259 0.74921 0.0
C271 C 0.17439 0.02634 0.67119 0.0
H272 H 0.48101 0.17581 0.37812 0.0
H273 H 0.57451 0.18009 0.31965 0.0
H274 H 0.58123 0.1328 0.41806 0.0
H275 H 0.5605 0.09333 0.5433 0.0
H276 H 0.46659 0.09112 0.60006 0.0
H277 H 0.45988 0.1336 0.47735 0.0
C278 C 0.50275 0.16583 0.3835 0.0
C279 C 0.52716 0.18122 0.3406 0.0
C280 C 0.50633 0.13885 0.44047 0.0
C281 C 0.5553 0.16841 0.35008 0.0
C282 C 0.55913 0.14148 0.40753 0.0
C283 C 0.53855 0.10158 0.52541 0.0
C284 C 0.51397 0.08891 0.58045 0.0
C285 C 0.53485 0.12681 0.45595 0.0
C286 C 0.48576 0.10032 0.55838 0.0
C287 C 0.48192 0.12479 0.48875 0.0
H288 H 0.36976 0.50768 0.39722 0.0
H289 H 0.40556 0.59005 0.27995 0.0
H290 H 0.44635 0.58563 0.41174 0.0
H291 H 0.47291 0.55856 0.55805 0.0
H292 H 0.43705 0.4773 0.68429 0.0
H293 H 0.39646 0.48043 0.5491 0.0
C294 C 0.38668 0.52445 0.39972 0.0
C295 C 0.38462 0.54909 0.32764 0.0
C296 C 0.41064 0.5217 0.47568 0.0
C297 C 0.40669 0.57071 0.33319 0.0
C298 C 0.43019 0.56819 0.40819 0.0
C299 C 0.45634 0.54141 0.5553 0.0
C300 C 0.4581 0.51769 0.631 0.0
C301 C 0.43261 0.54375 0.47921 0.0
C302 C 0.43622 0.49583 0.62697 0.0
C303 C 0.41293 0.49764 0.54966 0.0
H304 H 0.99535 0.39361 0.30433 0.0
H305 H 0.07585 0.3468 0.37782 0.0
H306 H 0.091 0.38669 0.50423 0.0
H307 H 0.08006 0.43421 0.60159 0.0
H308 H 0.9996 0.48072 0.52305 0.0
H309 H 0.98544 0.44144 0.39467 0.0
C310 C 1.01636 0.39222 0.34735 0.0
C311 C 0.03442 0.36715 0.33134 0.0
C312 C 0.02488 0.41525 0.41983 0.0
C313 C 0.06155 0.36578 0.38788 0.0
C314 C 0.07017 0.38862 0.46057 0.0
C315 C 0.05972 0.43601 0.55444 0.0
C316 C 0.04103 0.46063 0.57195 0.0
C317 C 0.0519 0.4134 0.47808 0.0
C318 C 1.01464 0.4624 0.51066 0.0
C319 C 1.00651 0.43986 0.4368 0.0
H320 H 0.87581 0.9729 0.13115 0.0
H321 H 0.87496 0.05839 0.28796 0.0
H322 H 0.92229 0.07011 0.19801 0.0
H323 H 0.96231 0.05725 0.06213 0.0
H324 H 0.96498 0.97 0.91992 0.0
H325 H 0.91896 0.95763 0.01701 0.0
C326 C 0.8863 0.9939 0.14723 0.0
C327 C 0.87183 1.01477 0.21595 0.0
C328 C 0.91383 1.00022 0.09703 0.0
C329 C 0.8857 0.04185 0.23632 0.0
C330 C 0.91272 0.04862 0.18423 0.0
C331 C 0.95295 0.03543 0.05384 0.0
C332 C 0.96687 1.01464 0.98296 0.0
C333 C 0.92675 0.02819 0.11259 0.0
C334 C 0.95469 0.98637 0.97371 0.0
C335 C 0.92828 0.97934 0.02891 0.0
H336 H 0.50283 0.90062 0.32029 0.0
H337 H 0.56874 0.84282 0.17857 0.0
H338 H 0.5818 0.88073 0.04 0.0
H339 H 0.57225 0.92948 0.95172 0.0
H340 H 0.50673 0.98722 0.09789 0.0
H341 H 0.49626 0.95059 0.24328 0.0
C342 C 0.52039 0.89649 0.26021 0.0
C343 C 0.53479 0.86889 0.26015 0.0
C344 C 0.52784 0.91847 0.18133 0.0
C345 C 0.55734 0.86382 0.18104 0.0
C346 C 0.56476 0.88552 0.10149 0.0
C347 C 0.55596 0.93421 0.01627 0.0
C348 C 0.54017 0.96112 0.01306 0.0
C349 C 0.54988 0.91282 0.09977 0.0
C350 C 0.51918 0.96679 0.09778 0.0
C351 C 0.51307 0.94575 0.18082 0.0
H352 H 0.6645 0.49651 0.28518 0.0
H353 H 0.7256 0.55161 0.10459 0.0
H354 H 0.688 0.56139 0.96107 0.0
H355 H 0.63809 0.552 0.88156 0.0
H356 H 0.57725 0.49771 0.06811 0.0
H357 H 0.61409 0.49013 0.21423 0.0
C358 C 0.6695 0.51092 0.21493 0.0
C359 C 0.69788 0.52326 0.20573 0.0
C360 C 0.64774 0.51648 0.1332 0.0
C361 C 0.70396 0.54193 0.11427 0.0
C362 C 0.68245 0.5474 0.03183 0.0
C363 C 0.63286 0.5387 0.95463 0.0
C364 C 0.6049 0.52521 0.96288 0.0
C365 C 0.65432 0.53448 0.03951 0.0
C366 C 0.59851 0.50822 0.05876 0.0
C367 C 0.61964 0.50383 0.14259 0.0
H368 H 0.04342 0.69535 0.15329 0.0
H369 H 1.0119 0.64097 0.42487 0.0
H370 H 1.0146 0.59738 0.30469 0.0
H371 H 1.02163 0.57499 0.11568 0.0
H372 H 0.05029 0.63014 0.84178 0.0
H373 H 0.0531 0.67252 0.96768 0.0
C374 C 0.03763 0.67389 0.18653 0.0
C375 C 0.02755 0.6715 0.2983 0.0
C376 C 0.03842 0.64883 0.11545 0.0
C377 C 1.01971 0.64349 0.3392 0.0
C378 C 1.02118 0.61847 0.27029 0.0
C379 C 0.02897 0.59618 0.08437 0.0
C380 C 0.03577 0.59932 0.96939 0.0
C381 C 0.02986 0.62088 0.1573 0.0
C382 C 0.04488 0.62709 0.92984 0.0
C383 C 0.04645 0.65142 1.00188 0.0
H384 H 0.93896 0.22287 0.16441 0.0
H385 H 0.98385 0.25459 0.45853 0.0
H386 H 0.96678 0.21225 0.56548 0.0
H387 H 0.95622 0.15968 0.55178 0.0
H388 H 0.91932 0.12444 0.24687 0.0
H389 H 0.91636 0.17398 0.16727 0.0
C390 C 0.94376 0.22111 0.25348 0.0
C391 C 0.96385 0.24089 0.30194 0.0
C392 C 0.93652 0.19513 0.31083 0.0
C393 C 0.96904 0.23926 0.41816 0.0
C394 C 0.9598 0.21462 0.4789 0.0
C395 C 0.94624 0.16294 0.46998 0.0
C396 C 0.9388 0.1384 0.40383 0.0
C397 C 0.94617 0.19121 0.42269 0.0
C398 C 0.92589 0.14298 0.29807 0.0
C399 C 0.92424 0.17131 0.25259 0.0
H400 H 0.29673 0.94672 0.45347 0.0
H401 H 0.32082 0.90824 0.13524 0.0
H402 H 0.36509 0.88694 0.21859 0.0
H403 H 0.40402 0.89713 0.35817 0.0
H404 H 0.38045 0.93847 0.67177 0.0
H405 H 0.32882 0.94025 0.61582 0.0
C406 C 0.31063 0.93215 0.40386 0.0
C407 C 0.30673 0.93068 0.28686 0.0
C408 C 0.33687 0.92149 0.45107 0.0
C409 C 0.32417 0.91067 0.22489 0.0
C410 C 0.34983 0.89894 0.27211 0.0
C411 C 0.38729 0.905 0.41645 0.0
C412 C 0.39588 0.91874 0.51674 0.0
C413 C 0.35777 0.90693 0.3817 0.0
C414 C 0.37417 0.92855 0.5927 0.0
C415 C 0.34469 0.92971 0.5604 0.0
H416 H 0.48223 0.2855 0.41083 0.0
H417 H 0.42149 0.32083 0.16882 0.0
H418 H 0.42571 0.36957 0.2536 0.0
H419 H 0.46134 0.40316 0.34346 0.0
H420 H 0.52707 0.36728 0.56704 0.0
H421 H 0.50732 0.31802 0.54014 0.0
C422 C 0.46867 0.30351 0.38003 0.0
C423 C 0.454 0.30052 0.27677 0.0
C424 C 0.47393 0.33185 0.42138 0.0
C425 C 0.43446 0.32315 0.24454 0.0
C426 C 0.43764 0.35129 0.29081 0.0
C427 C 0.47072 0.38471 0.3891 0.0
C428 C 0.49638 0.38863 0.45347 0.0
C429 C 0.45979 0.35626 0.37062 0.0
C430 C 0.50805 0.36458 0.51327 0.0
C431 C 0.49659 0.33644 0.4989 0.0
H432 H 0.2741 0.60704 0.41777 0.0
H433 H 0.2482 0.64302 0.09791 0.0
H434 H 0.20466 0.66536 0.18404 0.0
H435 H 0.16659 0.6562 0.32859 0.0
H436 H 0.19163 0.61682 0.6437 0.0
H437 H 0.24301 0.61503 0.58316 0.0
C438 C 0.25997 0.6213 0.36816 0.0
C439 C 0.26314 0.62185 0.25064 0.0
C440 C 0.23412 0.63256 0.41725 0.0
C441 C 0.24539 0.64134 0.1882 0.0
C442 C 0.22018 0.65372 0.23716 0.0
C443 C 0.18358 0.64885 0.3862 0.0
C444 C 0.17546 0.63551 0.48814 0.0
C445 C 0.2129 0.64669 0.34862 0.0
C446 C 0.19753 0.62644 0.56334 0.0
C447 C 0.22687 0.62519 0.52833 0.0
H448 H 0.96711 0.78419 0.18271 0.0
H449 H 0.92535 0.8088 0.4926 0.0
H450 H 0.9212 0.85971 0.42879 0.0
H451 H 0.95046 0.89749 0.3256 0.0
H452 H 0.99753 0.87196 0.02536 0.0
H453 H 0.97961 0.82166 0.04405 0.0
C454 C 0.95551 0.80037 0.23364 0.0
C455 C 0.95035 0.79422 0.34775 0.0
C456 C 0.95628 0.82999 0.20014 0.0
C457 C 0.93197 0.81393 0.40724 0.0
C458 C 0.9305 0.84339 0.37223 0.0
C459 C 0.95561 0.8812 0.26172 0.0
C460 C 0.97629 0.88781 0.1772 0.0
C461 C 0.94599 0.852 0.27522 0.0
C462 C 0.98245 0.86684 0.09339 0.0
C463 C 0.97214 0.83811 0.10387 0.0
H464 H 0.74319 0.124 0.32237 0.0
H465 H 0.75958 0.05823 0.0688 0.0
H466 H 0.72123 0.07971 0.95051 0.0
H467 H 0.67388 0.10552 0.95309 0.0
H468 H 0.6544 0.16794 0.21679 0.0
H469 H 0.70336 0.16011 0.29613 0.0
C470 C 0.73927 0.11541 0.23866 0.0
C471 C 0.75339 0.08923 0.20509 0.0
C472 C 0.71601 0.12678 0.17465 0.0
C473 C 0.74868 0.07826 0.09643 0.0
C474 C 0.72643 0.09029 0.02961 0.0
C475 C 0.68081 0.11858 0.02451 0.0
C476 C 0.66022 0.13646 0.08165 0.0
C477 C 0.7084 0.11288 0.07253 0.0
C478 C 0.66966 0.1534 0.17345 0.0
C479 C 0.69759 0.14879 0.21916 0.0
H480 H 0.47283 0.75713 0.1691 0.0
H481 H 0.42784 0.74054 0.48198 0.0
H482 H 0.4054 0.6965 0.40284 0.0
H483 H 0.41457 0.65518 0.2724 0.0
H484 H 0.46274 0.67071 0.96532 0.0
H485 H 0.46748 0.72268 0.01245 0.0
C486 C 0.45664 0.74494 0.21762 0.0
C487 C 0.45313 0.75101 0.33272 0.0
C488 C 0.44539 0.71866 0.17357 0.0
C489 C 0.43147 0.73567 0.39383 0.0
C490 C 0.41913 0.7101 0.34924 0.0
C491 C 0.42492 0.6703 0.21378 0.0
C492 C 0.43921 0.65915 0.11771 0.0
C493 C 0.4284 0.69999 0.24343 0.0
C494 C 0.452 0.67882 0.04068 0.0
C495 C 0.45492 0.70853 0.06812 0.0
H496 H 0.81025 0.46271 0.11916 0.0
H497 H 0.8264 0.41739 0.4311 0.0
H498 H 0.86878 0.39216 0.34755 0.0
H499 H 0.90933 0.39745 0.21091 0.0
H500 H 0.89499 0.44784 0.90829 0.0
H501 H 0.84378 0.4556 0.96026 0.0
C502 C 0.82197 0.44599 0.1668 0.0
C503 C 0.8161 0.44275 0.28218 0.0
C504 C 0.84744 0.4332 0.1204 0.0
C505 C 0.83104 0.42066 0.34255 0.0
C506 C 0.85561 0.40664 0.29528 0.0
C507 C 0.89468 0.40925 0.15464 0.0
C508 C 0.90631 0.42311 0.05842 0.0
C509 C 0.8655 0.41499 0.18807 0.0
C510 C 0.88688 0.43736 0.98397 0.0
C511 C 0.85751 0.4421 0.01426 0.0
H512 H 0.05813 0.19431 0.1863 0.0
H513 H 0.02604 0.23172 0.8779 0.0
H514 H 0.03132 0.18377 0.78426 0.0
H515 H 0.03867 0.12925 0.79834 0.0
H516 H 0.06869 0.09278 0.11355 0.0
H517 H 0.07047 0.14168 0.19495 0.0
C518 C 0.05364 0.19226 0.09713 0.0
C519 C 0.04261 0.21692 0.03845 0.0
C520 C 0.05544 0.16428 0.04554 0.0
C521 C 0.03558 0.21348 0.92413 0.0
C522 C 0.03803 0.18581 0.8712 0.0
C523 C 0.046 0.13201 0.88429 0.0
C524 C 0.0532 0.10684 0.94927 0.0
C525 C 0.0469 0.16071 0.9322 0.0
C526 C 0.06265 0.11128 0.06079 0.0
C527 C 0.06381 0.13945 0.10798 0.0
H528 H 0.33777 0.9874 0.93745 0.0
H529 H 0.34642 0.04898 0.21037 0.0
H530 H 0.39614 0.06175 0.14468 0.0
H531 H 0.43951 0.05082 0.02221 0.0
H532 H 0.43038 0.98792 0.75322 0.0
H533 H 0.37887 0.9803 0.80461 0.0
C534 C 0.3502 1.0043 0.98059 0.0
C535 C 0.33816 1.01735 0.0785 0.0
C536 C 0.37912 1.01079 0.94433 0.0
C537 C 0.35477 0.03896 0.1339 0.0
C538 C 0.38348 0.04589 0.09727 0.0
C539 C 0.42621 0.03559 0.97421 0.0
C540 C 0.43915 1.01985 0.88367 0.0
C541 C 0.3963 0.03118 1.0048 0.0
C542 C 0.42128 1.00043 0.82245 0.0
C543 C 0.39171 0.99597 0.85218 0.0
H544 H 0.498 0.3269 0.86808 0.0
H545 H 0.55762 0.33096 0.1481 0.0
H546 H 0.56818 0.38264 0.10509 0.0
H547 H 0.5556 0.42864 1.00121 0.0
H548 H 0.49754 0.42375 0.71607 0.0
H549 H 0.49068 0.37096 0.74898 0.0
C550 C 0.51432 0.33873 0.9165 0.0
C551 C 0.52746 0.32472 1.00998 0.0
C552 C 0.51978 0.36875 0.89251 0.0
C553 C 0.54788 0.34076 0.07387 0.0
C554 C 0.55344 0.37059 0.05058 0.0
C555 C 0.54171 0.4159 0.94565 0.0
C556 C 0.52673 0.43028 0.85723 0.0
C557 C 0.53872 0.38514 0.96254 0.0
C558 C 0.50921 0.41334 0.78489 0.0
C559 C 0.50538 0.38308 0.80339 0.0
H560 H 0.23456 0.56285 0.90168 0.0
H561 H 0.22548 0.50331 0.18131 0.0
H562 H 0.17566 0.49041 0.11876 0.0
H563 H 0.1322 0.50108 0.9974 0.0
H564 H 0.14188 0.562 0.72167 0.0
H565 H 0.1935 0.56931 0.76935 0.0
C566 C 0.22205 0.54624 0.94666 0.0
C567 C 0.234 0.53382 0.04553 0.0
C568 C 0.19306 0.53974 0.91219 0.0
C569 C 0.21723 0.51274 0.10386 0.0
C570 C 0.18846 0.50578 0.06904 0.0
C571 C 0.14567 0.51573 0.94702 0.0
C572 C 0.13283 0.53104 0.85559 0.0
C573 C 0.1757 0.51996 0.97558 0.0
C574 C 0.15091 0.54977 0.79145 0.0
C575 C 0.18056 0.55406 0.81914 0.0
H576 H 0.02553 0.82199 0.69522 0.0
H577 H 0.05192 0.84351 0.3575 0.0
H578 H 0.06018 0.89486 0.41311 0.0
H579 H 0.05494 0.93511 0.55553 0.0
H580 H 0.02853 0.91207 0.89348 0.0
H581 H 0.02524 0.86052 0.84032 0.0
C582 C 0.03438 0.83764 0.6351 0.0
C583 C 0.03908 0.82855 0.52319 0.0
C584 C 0.03826 0.86735 0.6672 0.0
C585 C 0.04926 0.84953 0.44509 0.0
C586 C 0.05337 0.87912 0.47651 0.0
C587 C 0.04858 0.91879 0.61754 0.0
C588 C 0.04179 0.92787 0.72849 0.0
C589 C 0.04709 0.88856 0.58679 0.0
C590 C 0.0339 0.90611 0.80759 0.0
C591 C 0.03201 0.87641 0.77738 0.0
H592 H 0.72204 0.06824 0.61713 0.0
H593 H 0.72296 0.98487 0.44492 0.0
H594 H 0.67377 0.97376 0.51967 0.0
H595 H 0.62797 0.99044 0.61678 0.0
H596 H 0.62826 0.07307 0.79535 0.0
H597 H 0.67913 0.0817 0.73626 0.0
C598 C 0.7119 0.04716 0.59941 0.0
C599 C 0.72646 0.02722 0.52657 0.0
C600 C 0.68338 0.04111 0.64186 0.0
C601 C 0.71267 1.00029 0.50259 0.0
C602 C 0.68426 0.99417 0.54398 0.0
C603 C 0.63924 1.01022 0.64355 0.0
C604 C 0.62391 0.03129 0.70933 0.0
C605 C 0.66896 1.01483 0.61073 0.0
C606 C 0.63922 0.05653 0.7445 0.0
C607 C 0.66843 0.06151 0.71052 0.0
H608 H 0.50842 0.71927 0.69163 0.0
H609 H 0.56809 0.70951 0.41162 0.0
H610 H 0.5789 0.6587 0.46922 0.0
H611 H 0.56613 0.61492 0.58534 0.0
H612 H 0.50586 0.62545 0.8646 0.0
H613 H 0.50065 0.67772 0.82116 0.0
C614 C 0.52464 0.70635 0.64567 0.0
C615 C 0.53769 0.71841 0.54802 0.0
C616 C 0.53004 0.67686 0.67755 0.0
C617 C 0.55822 0.70113 0.48825 0.0
C618 C 0.56398 0.67183 0.5202 0.0
C619 C 0.55208 0.62868 0.63756 0.0
C620 C 0.53615 0.61585 0.72759 0.0
C621 C 0.54917 0.65908 0.61234 0.0
C622 C 0.51832 0.63434 0.7946 0.0
C623 C 0.51527 0.66438 0.76979 0.0
H624 H 0.84565 0.49612 0.64428 0.0
H625 H 0.85493 0.55904 0.37563 0.0
H626 H 0.90465 0.57119 0.44102 0.0
H627 H 0.94785 0.55921 0.56089 0.0
H628 H 0.93791 0.4959 0.82922 0.0
H629 H 0.88638 0.48872 0.77773 0.0
C630 C 0.8582 0.51322 0.60232 0.0
C631 C 0.84637 0.52683 0.50554 0.0
C632 C 0.88708 0.51949 0.63882 0.0
C633 C 0.86314 0.54863 0.45132 0.0
C634 C 0.89183 0.55521 0.48776 0.0
C635 C 0.93437 0.54403 0.60889 0.0
C636 C 0.94712 0.52787 0.69828 0.0
C637 C 0.90445 0.54001 0.57907 0.0
C638 C 0.92901 0.50857 0.75992 0.0
C639 C 0.89943 0.50439 0.73043 0.0
loop_
_geom_bond_atom_site_label_1
_geom_bond_atom_site_label_2
_geom_bond_distance
_geom_bond_site_symmetry_2
_ccdc_geom_bond_type
H0 C5 0.930 . S
H1 C8 0.930 . S
H2 C10 0.930 . S
H3 C4 1.016 . S
C4 H3 1.016 . S
C4 N11 1.286 . S
C5 H0 0.930 . S
C5 C6 1.397 . S
C5 C7 1.361 . S
C6 C5 1.397 . S
C6 C10 1.390 . S
C7 C5 1.361 . S
C7 C8 1.393 . S
C7 N11 1.413 . S
C8 H1 0.930 . S
C8 C7 1.393 . S
C8 C9 1.399 . S
C9 C8 1.399 . S
C9 C10 1.381 . S
C10 H2 0.930 . S
C10 C6 1.390 . S
C10 C9 1.381 . S
N11 C4 1.286 . S
N11 C7 1.413 . S
H12 C17 0.930 . S
H13 C20 0.930 . S
H14 C22 0.930 . S
H15 C16 1.029 . S
C16 H15 1.029 . S
C16 N23 1.268 1_655 S
C17 H12 0.930 . S
C17 C18 1.397 . S
C17 C19 1.361 . S
C18 C17 1.397 . S
C18 C22 1.390 1_455 S
C19 C17 1.361 . S
C19 C20 1.393 . S
C19 N23 1.413 . S
C20 H13 0.930 . S
C20 C19 1.393 . S
C20 C21 1.402 . S
C21 C20 1.402 . S
C21 C22 1.379 1_455 S
C22 H14 0.930 . S
C22 C18 1.390 1_655 S
C22 C21 1.379 1_655 S
N23 C16 1.268 1_455 S
N23 C19 1.413 . S
H24 C29 0.930 . S
H25 C32 0.930 . S
H26 C34 0.930 . S
H27 C28 1.030 . S
C28 H27 1.030 . S
C28 N35 1.268 1_565 S
C29 H24 0.930 . S
C29 C30 1.397 . S
C29 C31 1.361 . S
C30 C29 1.397 . S
C30 C34 1.390 1_545 S
C31 C29 1.361 . S
C31 C32 1.393 . S
C31 N35 1.413 . S
C32 H25 0.930 . S
C32 C31 1.393 . S
C32 C33 1.402 . S
C33 C32 1.402 . S
C33 C34 1.379 1_545 S
C34 H26 0.930 . S
C34 C30 1.390 1_565 S
C34 C33 1.379 1_565 S
N35 C28 1.268 1_545 S
N35 C31 1.413 . S
H36 C41 0.930 . S
H37 C44 0.930 . S
H38 C46 0.930 . S
H39 C40 1.016 . S
C40 H39 1.016 . S
C40 N47 1.286 . S
C41 H36 0.930 . S
C41 C42 1.397 . S
C41 C43 1.361 . S
C42 C41 1.397 . S
C42 C46 1.390 . S
C43 C41 1.361 . S
C43 C44 1.393 . S
C43 N47 1.413 . S
C44 H37 0.930 . S
C44 C43 1.393 . S
C44 C45 1.399 . S
C45 C44 1.399 . S
C45 C46 1.381 . S
C46 H38 0.930 . S
C46 C42 1.390 . S
C46 C45 1.381 . S
N47 C40 1.286 . S
N47 C43 1.413 . S
H48 C53 0.930 . S
H49 C56 0.930 . S
H50 C58 0.930 . S
H51 C52 1.016 . S
C52 H51 1.016 . S
C52 N59 1.286 . S
C53 H48 0.930 . S
C53 C54 1.397 . S
C53 C55 1.361 1_556 S
C54 C53 1.397 . S
C54 C58 1.390 1_556 S
C55 C53 1.361 1_554 S
C55 C56 1.393 . S
C55 N59 1.413 . S
C56 H49 0.930 . S
C56 C55 1.393 . S
C56 C57 1.399 . S
C57 C56 1.399 . S
C57 C58 1.381 . S
C58 H50 0.930 . S
C58 C54 1.390 1_554 S
C58 C57 1.381 . S
N59 C52 1.286 . S
N59 C55 1.413 . S
H60 C65 0.930 . S
H61 C68 0.930 . S
H62 C70 0.930 . S
H63 C64 1.026 . S
C64 H63 1.026 . S
C64 N71 1.272 1_655 S
C65 H60 0.930 . S
C65 C66 1.397 . S
C65 C67 1.361 1_556 S
C66 C65 1.397 . S
C66 C70 1.390 1_456 S
C67 C65 1.361 1_554 S
C67 C68 1.393 . S
C67 N71 1.413 . S
C68 H61 0.930 . S
C68 C67 1.393 . S
C68 C69 1.404 . S
C69 C68 1.404 . S
C69 C70 1.378 1_455 S
C70 H62 0.930 . S
C70 C66 1.390 1_654 S
C70 C69 1.378 1_655 S
N71 C64 1.272 1_455 S
N71 C67 1.413 . S
H72 C77 0.930 . S
H73 C80 0.930 . S
H74 C82 0.930 . S
H75 C76 1.026 . S
C76 H75 1.026 . S
C76 N83 1.272 1_565 S
C77 H72 0.930 . S
C77 C78 1.397 . S
C77 C79 1.361 1_556 S
C78 C77 1.397 . S
C78 C82 1.390 1_546 S
C79 C77 1.361 1_554 S
C79 C80 1.393 . S
C79 N83 1.413 . S
C80 H73 0.930 . S
C80 C79 1.393 . S
C80 C81 1.404 . S
C81 C80 1.404 . S
C81 C82 1.378 1_545 S
C82 H74 0.930 . S
C82 C78 1.390 1_564 S
C82 C81 1.378 1_565 S
N83 C76 1.272 1_545 S
N83 C79 1.413 . S
H84 C89 0.930 . S
H85 C92 0.930 . S
H86 C94 0.930 . S
H87 C88 1.016 . S
C88 H87 1.016 . S
C88 N95 1.286 . S
C89 H84 0.930 . S
C89 C90 1.397 . S
C89 C91 1.361 1_556 S
C90 C89 1.397 . S
C90 C94 1.390 1_556 S
C91 C89 1.361 1_554 S
C91 C92 1.393 . S
C91 N95 1.413 . S
C92 H85 0.930 . S
C92 C91 1.393 . S
C92 C93 1.399 . S
C93 C92 1.399 . S
C93 C94 1.381 . S
C94 H86 0.930 . S
C94 C90 1.390 1_554 S
C94 C93 1.381 . S
N95 C88 1.286 . S
N95 C91 1.413 . S
Tb96 C98 2.809 1_556 S
Tb96 O116 2.484 1_556 S
Tb96 O117 2.440 . S
Tb96 O118 2.658 1_565 S
Tb96 O119 2.409 . S
Tb96 O120 2.378 . S
Tb96 O124 2.325 1_455 S
Tb96 O127 2.341 1_565 S
Tb97 C107 2.809 . S
Tb97 O118 2.325 1_655 S
Tb97 O121 2.341 1_545 S
Tb97 O122 2.484 . S
Tb97 O123 2.440 . S
Tb97 O124 2.658 1_545 S
Tb97 O125 2.409 . S
Tb97 O126 2.378 . S
C98 Tb96 2.809 1_554 S
C98 C99 1.514 . S
C98 O116 1.248 . S
C98 O117 1.266 1_554 S
C99 C98 1.514 . S
C99 C100 1.359 . S
C99 C104 1.348 . S
C100 C99 1.359 . S
C100 C101 1.380 . S
C100 H128 0.929 1_455 S
C101 C100 1.380 . S
C101 C102 1.347 . S
C101 H129 0.931 1_455 S
C102 C101 1.347 . S
C102 C103 1.369 . S
C103 C102 1.369 . S
C103 C104 1.408 . S
C103 H130 0.930 . S
C104 C99 1.348 . S
C104 C103 1.408 . S
C104 H131 0.930 . S
C105 O118 1.281 1_565 S
C105 O119 1.254 . S
C106 O120 1.236 1_655 S
C106 O121 1.266 . S
C107 Tb97 2.809 . S
C107 C108 1.514 . S
C107 O122 1.248 . S
C107 O123 1.266 . S
C108 C107 1.514 . S
C108 C109 1.359 . S
C108 C113 1.348 . S
C109 C108 1.359 . S
C109 C110 1.380 . S
C109 H132 0.929 1_655 S
C110 C109 1.380 . S
C110 C111 1.347 . S
C110 H133 0.931 1_655 S
C111 C110 1.347 . S
C111 C112 1.369 . S
C112 C111 1.369 . S
C112 C113 1.408 . S
C112 H134 0.930 . S
C113 C108 1.348 . S
C113 C112 1.408 . S
C113 H135 0.930 . S
C114 O124 1.281 1_545 S
C114 O125 1.254 . S
C115 O126 1.236 1_455 S
C115 O127 1.266 . S
O116 Tb96 2.484 1_554 S
O116 C98 1.248 . S
O117 Tb96 2.440 . S
O117 C98 1.266 1_556 S
O118 Tb96 2.658 1_545 S
O118 Tb97 2.325 1_455 S
O118 C105 1.281 1_545 S
O119 Tb96 2.409 . S
O119 C105 1.254 . S
O120 Tb96 2.378 . S
O120 C106 1.236 1_455 S
O121 Tb97 2.341 1_565 S
O121 C106 1.266 . S
O122 Tb97 2.484 . S
O122 C107 1.248 . S
O123 Tb97 2.440 . S
O123 C107 1.266 . S
O124 Tb96 2.325 1_655 S
O124 Tb97 2.658 1_565 S
O124 C114 1.281 1_565 S
O125 Tb97 2.409 . S
O125 C114 1.254 . S
O126 Tb97 2.378 . S
O126 C115 1.236 1_655 S
O127 Tb96 2.341 1_545 S
O127 C115 1.266 . S
H128 C100 0.929 1_655 S
H129 C101 0.931 1_655 S
H130 C103 0.930 . S
H131 C104 0.930 . S
H132 C109 0.929 1_455 S
H133 C110 0.931 1_455 S
H134 C112 0.930 . S
H135 C113 0.930 . S
Tb136 C138 2.809 1_556 S
Tb136 O156 2.484 1_556 S
Tb136 O157 2.440 . S
Tb136 O158 2.658 . S
Tb136 O159 2.409 . S
Tb136 O160 2.378 . S
Tb136 O164 2.325 1_545 S
Tb136 O167 2.341 . S
Tb137 C147 2.809 . S
Tb137 O158 2.325 1_565 S
Tb137 O161 2.341 . S
Tb137 O162 2.484 . S
Tb137 O163 2.440 . S
Tb137 O164 2.658 . S
Tb137 O165 2.409 . S
Tb137 O166 2.378 . S
C138 Tb136 2.809 1_554 S
C138 C139 1.514 . S
C138 O156 1.248 . S
C138 O157 1.266 1_554 S
C139 C138 1.514 . S
C139 C140 1.359 . S
C139 C144 1.348 . S
C140 C139 1.359 . S
C140 C141 1.380 . S
C140 H168 0.929 1_545 S
C141 C140 1.380 . S
C141 C142 1.347 . S
C141 H169 0.931 1_545 S
C142 C141 1.347 . S
C142 C143 1.369 . S
C143 C142 1.369 . S
C143 C144 1.408 . S
C143 H170 0.930 . S
C144 C139 1.348 . S
C144 C143 1.408 . S
C144 H171 0.930 . S
C145 O158 1.281 . S
C145 O159 1.254 . S
C146 O160 1.236 1_565 S
C146 O161 1.266 . S
C147 Tb137 2.809 . S
C147 C148 1.514 . S
C147 O162 1.248 . S
C147 O163 1.266 . S
C148 C147 1.514 . S
C148 C149 1.359 . S
C148 C153 1.348 . S
C149 C148 1.359 . S
C149 C150 1.380 . S
C149 H172 0.929 1_565 S
C150 C149 1.380 . S
C150 C151 1.347 . S
C150 H173 0.931 1_565 S
C151 C150 1.347 . S
C151 C152 1.369 . S
C152 C151 1.369 . S
C152 C153 1.408 . S
C152 H174 0.930 . S
C153 C148 1.348 . S
C153 C152 1.408 . S
C153 H175 0.930 . S
C154 O164 1.281 . S
C154 O165 1.254 . S
C155 O166 1.236 1_545 S
C155 O167 1.266 . S
O156 Tb136 2.484 1_554 S
O156 C138 1.248 . S
O157 Tb136 2.440 . S
O157 C138 1.266 1_556 S
O158 Tb136 2.658 . S
O158 Tb137 2.325 1_545 S
O158 C145 1.281 . S
O159 Tb136 2.409 . S
O159 C145 1.254 . S
O160 Tb136 2.378 . S
O160 C146 1.236 1_545 S
O161 Tb137 2.341 . S
O161 C146 1.266 . S
O162 Tb137 2.484 . S
O162 C147 1.248 . S
O163 Tb137 2.440 . S
O163 C147 1.266 . S
O164 Tb136 2.325 1_565 S
O164 Tb137 2.658 . S
O164 C154 1.281 . S
O165 Tb137 2.409 . S
O165 C154 1.254 . S
O166 Tb137 2.378 . S
O166 C155 1.236 1_565 S
O167 Tb136 2.341 . S
O167 C155 1.266 . S
H168 C140 0.929 1_565 S
H169 C141 0.931 1_565 S
H170 C143 0.930 . S
H171 C144 0.930 . S
H172 C149 0.929 1_545 S
H173 C150 0.931 1_545 S
H174 C152 0.930 . S
H175 C153 0.930 . S
Tb176 C178 2.809 1_556 S
Tb176 O196 2.484 1_556 S
Tb176 O197 2.440 . S
Tb176 O198 2.658 . S
Tb176 O199 2.409 . S
Tb176 O200 2.378 . S
Tb176 O204 2.325 . S
Tb176 O207 2.341 . S
Tb177 C187 2.809 . S
Tb177 O198 2.325 . S
Tb177 O201 2.341 . S
Tb177 O202 2.484 . S
Tb177 O203 2.440 . S
Tb177 O204 2.658 . S
Tb177 O205 2.409 . S
Tb177 O206 2.378 . S
C178 Tb176 2.809 1_554 S
C178 C179 1.514 . S
C178 O196 1.248 . S
C178 O197 1.266 1_554 S
C179 C178 1.514 . S
C179 C180 1.359 . S
C179 C184 1.348 . S
C180 C179 1.359 . S
C180 C181 1.380 . S
C180 H208 0.929 . S
C181 C180 1.380 . S
C181 C182 1.347 . S
C181 H209 0.931 . S
C182 C181 1.347 . S
C182 C183 1.369 . S
C183 C182 1.369 . S
C183 C184 1.408 . S
C183 H210 0.930 . S
C184 C179 1.348 . S
C184 C183 1.408 . S
C184 H211 0.930 . S
C185 O198 1.281 . S
C185 O199 1.254 . S
C186 O200 1.236 . S
C186 O201 1.266 . S
C187 Tb177 2.809 . S
C187 C188 1.514 . S
C187 O202 1.248 . S
C187 O203 1.266 . S
C188 C187 1.514 . S
C188 C189 1.359 . S
C188 C193 1.348 . S
C189 C188 1.359 . S
C189 C190 1.380 . S
C189 H212 0.929 . S
C190 C189 1.380 . S
C190 C191 1.347 . S
C190 H213 0.931 . S
C191 C190 1.347 . S
C191 C192 1.369 . S
C192 C191 1.369 . S
C192 C193 1.408 . S
C192 H214 0.930 . S
C193 C188 1.348 . S
C193 C192 1.408 . S
C193 H215 0.930 . S
C194 O204 1.281 . S
C194 O205 1.254 . S
C195 O206 1.236 . S
C195 O207 1.266 . S
O196 Tb176 2.484 1_554 S
O196 C178 1.248 . S
O197 Tb176 2.440 . S
O197 C178 1.266 1_556 S
O198 Tb176 2.658 . S
O198 Tb177 2.325 . S
O198 C185 1.281 . S
O199 Tb176 2.409 . S
O199 C185 1.254 . S
O200 Tb176 2.378 . S
O200 C186 1.236 . S
O201 Tb177 2.341 . S
O201 C186 1.266 . S
O202 Tb177 2.484 . S
O202 C187 1.248 . S
O203 Tb177 2.440 . S
O203 C187 1.266 . S
O204 Tb176 2.325 . S
O204 Tb177 2.658 . S
O204 C194 1.281 . S
O205 Tb177 2.409 . S
O205 C194 1.254 . S
O206 Tb177 2.378 . S
O206 C195 1.236 . S
O207 Tb176 2.341 . S
O207 C195 1.266 . S
H208 C180 0.929 . S
H209 C181 0.931 . S
H210 C183 0.930 . S
H211 C184 0.930 . S
H212 C189 0.929 . S
H213 C190 0.931 . S
H214 C192 0.930 . S
H215 C193 0.930 . S
Tb216 C218 2.809 1_556 S
Tb216 O236 2.484 1_556 S
Tb216 O237 2.440 . S
Tb216 O238 2.658 1_655 S
Tb216 O239 2.409 . S
Tb216 O240 2.378 . S
Tb216 O244 2.325 . S
Tb216 O247 2.341 1_655 S
Tb217 C227 2.809 . S
Tb217 O238 2.325 . S
Tb217 O241 2.341 1_455 S
Tb217 O242 2.484 . S
Tb217 O243 2.440 . S
Tb217 O244 2.658 1_455 S
Tb217 O245 2.409 . S
Tb217 O246 2.378 . S
C218 Tb216 2.809 1_554 S
C218 C219 1.514 . S
C218 O236 1.248 . S
C218 O237 1.266 1_554 S
C219 C218 1.514 . S
C219 C220 1.359 . S
C219 C224 1.348 . S
C220 C219 1.359 . S
C220 C221 1.380 . S
C220 H248 0.929 . S
C221 C220 1.380 . S
C221 C222 1.347 . S
C221 H249 0.931 . S
C222 C221 1.347 . S
C222 C223 1.369 . S
C223 C222 1.369 . S
C223 C224 1.408 . S
C223 H250 0.930 . S
C224 C219 1.348 . S
C224 C223 1.408 . S
C224 H251 0.930 . S
C225 O238 1.275 1_655 S
C225 O239 1.261 . S
C226 O240 1.236 . S
C226 O241 1.266 . S
C227 Tb217 2.809 . S
C227 C228 1.514 . S
C227 O242 1.248 . S
C227 O243 1.266 . S
C228 C227 1.514 . S
C228 C229 1.359 . S
C228 C233 1.348 . S
C229 C228 1.359 . S
C229 C230 1.380 . S
C229 H252 0.929 . S
C230 C229 1.380 . S
C230 C231 1.347 . S
C230 H253 0.931 . S
C231 C230 1.347 . S
C231 C232 1.369 . S
C232 C231 1.369 . S
C232 C233 1.408 . S
C232 H254 0.930 . S
C233 C228 1.348 . S
C233 C232 1.408 . S
C233 H255 0.930 . S
C234 O244 1.272 1_455 S
C234 O245 1.265 . S
C235 O246 1.236 . S
C235 O247 1.266 . S
O236 Tb216 2.484 1_554 S
O236 C218 1.248 . S
O237 Tb216 2.440 . S
O237 C218 1.266 1_556 S
O238 Tb216 2.658 1_455 S
O238 Tb217 2.325 . S
O238 C225 1.275 1_455 S
O239 Tb216 2.409 . S
O239 C225 1.261 . S
O240 Tb216 2.378 . S
O240 C226 1.236 . S
O241 Tb217 2.341 1_655 S
O241 C226 1.266 . S
O242 Tb217 2.484 . S
O242 C227 1.248 . S
O243 Tb217 2.440 . S
O243 C227 1.266 . S
O244 Tb216 2.325 . S
O244 Tb217 2.658 1_655 S
O244 C234 1.272 1_655 S
O245 Tb217 2.409 . S
O245 C234 1.265 . S
O246 Tb217 2.378 . S
O246 C235 1.236 . S
O247 Tb216 2.341 1_455 S
O247 C235 1.266 . S
H248 C220 0.929 . S
H249 C221 0.931 . S
H250 C223 0.930 . S
H251 C224 0.930 . S
H252 C229 0.929 . S
H253 C230 0.931 . S
H254 C232 0.930 . S
H255 C233 0.930 . S
H256 C262 0.930 . S
H257 C265 0.930 1_545 S
H258 C266 0.930 . S
H259 C267 0.930 . S
H260 C270 0.930 1_565 S
H261 C271 0.930 . S
C262 H256 0.930 . S
C262 C263 1.355 . S
C262 C264 1.415 . S
C263 C262 1.355 . S
C263 C265 1.419 . S
C264 C262 1.415 . S
C264 C269 1.425 1_565 S
C264 C271 1.409 1_565 S
C265 H257 0.930 1_565 S
C265 C263 1.419 . S
C265 C266 1.362 . S
C266 H258 0.930 . S
C266 C265 1.362 . S
C266 C269 1.409 1_565 S
C267 H259 0.930 . S
C267 C268 1.355 . S
C267 C269 1.415 . S
C268 C267 1.355 . S
C268 C270 1.419 . S
C269 C264 1.425 1_545 S
C269 C266 1.409 1_545 S
C269 C267 1.415 . S
C270 H260 0.930 1_545 S
C270 C268 1.419 . S
C270 C271 1.362 . S
C271 H261 0.930 . S
C271 C264 1.409 1_545 S
C271 C270 1.362 . S
H272 C278 0.930 . S
H273 C281 0.930 . S
H274 C282 0.930 . S
H275 C283 0.930 . S
H276 C286 0.930 . S
H277 C287 0.930 . S
C278 H272 0.930 . S
C278 C279 1.355 . S
C278 C280 1.415 . S
C279 C278 1.355 . S
C279 C281 1.419 . S
C280 C278 1.415 . S
C280 C285 1.425 . S
C280 C287 1.409 . S
C281 H273 0.930 . S
C281 C279 1.419 . S
C281 C282 1.362 . S
C282 H274 0.930 . S
C282 C281 1.362 . S
C282 C285 1.409 . S
C283 H275 0.930 . S
C283 C284 1.355 . S
C283 C285 1.415 . S
C284 C283 1.355 . S
C284 C286 1.419 . S
C285 C280 1.425 . S
C285 C282 1.409 . S
C285 C283 1.415 . S
C286 H276 0.930 . S
C286 C284 1.419 . S
C286 C287 1.362 . S
C287 H277 0.930 . S
C287 C280 1.409 . S
C287 C286 1.362 . S
H288 C294 0.930 . S
H289 C297 0.930 . S
H290 C298 0.930 . S
H291 C299 0.930 . S
H292 C302 0.930 . S
H293 C303 0.930 . S
C294 H288 0.930 . S
C294 C295 1.355 . S
C294 C296 1.415 . S
C295 C294 1.355 . S
C295 C297 1.419 . S
C296 C294 1.415 . S
C296 C301 1.425 . S
C296 C303 1.409 . S
C297 H289 0.930 . S
C297 C295 1.419 . S
C297 C298 1.362 . S
C298 H290 0.930 . S
C298 C297 1.362 . S
C298 C301 1.409 . S
C299 H291 0.930 . S
C299 C300 1.355 . S
C299 C301 1.415 . S
C300 C299 1.355 . S
C300 C302 1.419 . S
C301 C296 1.425 . S
C301 C298 1.409 . S
C301 C299 1.415 . S
C302 H292 0.930 . S
C302 C300 1.419 . S
C302 C303 1.362 . S
C303 H293 0.930 . S
C303 C296 1.409 . S
C303 C302 1.362 . S
H304 C310 0.930 . S
H305 C313 0.930 . S
H306 C314 0.930 . S
H307 C315 0.930 . S
H308 C318 0.930 . S
H309 C319 0.930 . S
C310 H304 0.930 . S
C310 C311 1.355 1_655 S
C310 C312 1.415 . S
C311 C310 1.355 1_455 S
C311 C313 1.419 . S
C312 C310 1.415 . S
C312 C317 1.425 1_655 S
C312 C319 1.409 . S
C313 H305 0.930 . S
C313 C311 1.419 . S
C313 C314 1.362 . S
C314 H306 0.930 . S
C314 C313 1.362 . S
C314 C317 1.409 . S
C315 H307 0.930 . S
C315 C316 1.355 1_455 S
C315 C317 1.415 . S
C316 C315 1.355 1_655 S
C316 C318 1.419 . S
C317 C312 1.425 1_455 S
C317 C314 1.409 . S
C317 C315 1.415 . S
C318 H308 0.930 . S
C318 C316 1.419 . S
C318 C319 1.362 . S
C319 H309 0.930 . S
C319 C312 1.409 . S
C319 C318 1.362 . S
H320 C326 0.930 . S
H321 C329 0.930 . S
H322 C330 0.930 . S
H323 C331 0.930 . S
H324 C334 0.930 . S
H325 C335 0.930 . S
C326 H320 0.930 . S
C326 C327 1.354 . S
C326 C328 1.415 . S
C327 C326 1.354 . S
C327 C329 1.420 1_565 S
C328 C326 1.415 . S
C328 C333 1.425 1_565 S
C328 C335 1.409 . S
C329 H321 0.930 . S
C329 C327 1.420 1_545 S
C329 C330 1.362 . S
C330 H322 0.930 . S
C330 C329 1.362 . S
C330 C333 1.409 . S
C331 H323 0.930 . S
C331 C332 1.360 1_554 S
C331 C333 1.415 . S
C332 C331 1.360 1_556 S
C332 C334 1.414 1_545 S
C333 C328 1.425 1_545 S
C333 C330 1.409 . S
C333 C331 1.415 . S
C334 H324 0.930 . S
C334 C332 1.414 1_565 S
C334 C335 1.362 1_556 S
C335 H325 0.930 . S
C335 C328 1.409 . S
C335 C334 1.362 1_554 S
H336 C342 0.930 . S
H337 C345 0.930 . S
H338 C346 0.930 . S
H339 C347 0.930 1_556 S
H340 C350 0.930 . S
H341 C351 0.930 . S
C342 H336 0.930 . S
C342 C343 1.355 . S
C342 C344 1.415 . S
C343 C342 1.355 . S
C343 C345 1.419 . S
C344 C342 1.415 . S
C344 C349 1.425 . S
C344 C351 1.409 . S
C345 H337 0.930 . S
C345 C343 1.419 . S
C345 C346 1.362 . S
C346 H338 0.930 . S
C346 C345 1.362 . S
C346 C349 1.409 . S
C347 H339 0.930 1_554 S
C347 C348 1.355 . S
C347 C349 1.415 . S
C348 C347 1.355 . S
C348 C350 1.419 . S
C349 C344 1.425 . S
C349 C346 1.409 . S
C349 C347 1.415 . S
C350 H340 0.930 . S
C350 C348 1.419 . S
C350 C351 1.362 . S
C351 H341 0.930 . S
C351 C344 1.409 . S
C351 C350 1.362 . S
H352 C358 0.930 . S
H353 C361 0.930 . S
H354 C362 0.930 . S
H355 C363 0.930 . S
H356 C366 0.930 . S
H357 C367 0.930 . S
C358 H352 0.930 . S
C358 C359 1.355 . S
C358 C360 1.415 . S
C359 C358 1.355 . S
C359 C361 1.419 . S
C360 C358 1.415 . S
C360 C365 1.425 . S
C360 C367 1.409 . S
C361 H353 0.930 . S
C361 C359 1.419 . S
C361 C362 1.362 . S
C362 H354 0.930 . S
C362 C361 1.362 . S
C362 C365 1.409 . S
C363 H355 0.930 . S
C363 C364 1.355 . S
C363 C365 1.415 . S
C364 C363 1.355 . S
C364 C366 1.419 . S
C365 C360 1.425 . S
C365 C362 1.409 . S
C365 C363 1.415 . S
C366 H356 0.930 . S
C366 C364 1.419 . S
C366 C367 1.362 . S
C367 H357 0.930 . S
C367 C360 1.409 . S
C367 C366 1.362 . S
H368 C374 0.930 . S
H369 C377 0.930 . S
H370 C378 0.930 . S
H371 C379 0.930 . S
H372 C382 0.930 . S
H373 C383 0.930 . S
C374 H368 0.930 . S
C374 C375 1.355 1_455 S
C374 C376 1.415 . S
C375 C374 1.355 1_655 S
C375 C377 1.419 . S
C376 C374 1.415 . S
C376 C381 1.425 1_455 S
C376 C383 1.409 . S
C377 H369 0.930 . S
C377 C375 1.419 . S
C377 C378 1.362 . S
C378 H370 0.930 . S
C378 C377 1.362 . S
C378 C381 1.409 . S
C379 H371 0.930 . S
C379 C380 1.347 1_654 S
C379 C381 1.415 . S
C380 C379 1.347 1_456 S
C380 C382 1.431 . S
C381 C376 1.425 1_655 S
C381 C378 1.409 . S
C381 C379 1.415 . S
C382 H372 0.930 . S
C382 C380 1.431 . S
C382 C383 1.362 1_556 S
C383 H373 0.930 . S
C383 C376 1.409 . S
C383 C382 1.362 1_554 S
H384 C390 0.930 . S
H385 C393 0.930 . S
H386 C394 0.930 . S
H387 C395 0.959 . S
H388 C398 0.930 . S
H389 C399 0.930 . S
C390 H384 0.930 . S
C390 C391 1.355 1_655 S
C390 C392 1.415 . S
C391 C390 1.355 1_455 S
C391 C393 1.419 . S
C392 C390 1.415 . S
C392 C397 1.425 . S
C392 C399 1.409 . S
C393 H385 0.930 . S
C393 C391 1.419 . S
C393 C394 1.362 . S
C394 H386 0.930 . S
C394 C393 1.362 . S
C394 C397 1.409 1_455 S
C395 H387 0.959 . S
C395 C396 1.355 . S
C395 C397 1.415 . S
C396 C395 1.355 . S
C396 C398 1.419 . S
C397 C392 1.425 . S
C397 C394 1.409 1_655 S
C397 C395 1.415 . S
C398 H388 0.930 . S
C398 C396 1.419 . S
C398 C399 1.362 . S
C399 H389 0.930 . S
C399 C392 1.409 . S
C399 C398 1.362 . S
H400 C406 0.930 . S
H401 C409 0.930 . S
H402 C410 0.930 . S
H403 C411 0.930 . S
H404 C414 0.930 . S
H405 C415 0.930 1_545 S
C406 H400 0.930 . S
C406 C407 1.352 1_545 S
C406 C408 1.415 1_545 S
C407 C406 1.352 1_565 S
C407 C409 1.431 . S
C408 C406 1.415 1_565 S
C408 C413 1.425 . S
C408 C415 1.409 . S
C409 H401 0.930 . S
C409 C407 1.431 . S
C409 C410 1.362 . S
C410 H402 0.930 . S
C410 C409 1.362 . S
C410 C413 1.409 . S
C411 H403 0.930 . S
C411 C412 1.355 . S
C411 C413 1.415 . S
C412 C411 1.355 . S
C412 C414 1.419 . S
C413 C408 1.425 . S
C413 C410 1.409 . S
C413 C411 1.415 . S
C414 H404 0.930 . S
C414 C412 1.419 . S
C414 C415 1.362 . S
C415 H405 0.930 1_565 S
C415 C408 1.409 . S
C415 C414 1.362 . S
H416 C422 0.930 . S
H417 C425 0.930 . S
H418 C426 0.930 . S
H419 C427 0.930 . S
H420 C430 0.930 . S
H421 C431 0.930 . S
C422 H416 0.930 . S
C422 C423 1.355 . S
C422 C424 1.415 . S
C423 C422 1.355 . S
C423 C425 1.419 . S
C424 C422 1.415 . S
C424 C429 1.425 . S
C424 C431 1.409 . S
C425 H417 0.930 . S
C425 C423 1.419 . S
C425 C426 1.362 . S
C426 H418 0.930 . S
C426 C425 1.362 . S
C426 C429 1.409 . S
C427 H419 0.930 . S
C427 C428 1.355 . S
C427 C429 1.415 . S
C428 C427 1.355 . S
C428 C430 1.419 . S
C429 C424 1.425 . S
C429 C426 1.409 . S
C429 C427 1.415 . S
C430 H420 0.930 . S
C430 C428 1.419 . S
C430 C431 1.362 . S
C431 H421 0.930 . S
C431 C424 1.409 . S
C431 C430 1.362 . S
H432 C438 0.930 . S
H433 C441 0.930 . S
H434 C442 0.930 . S
H435 C443 0.930 . S
H436 C446 0.930 . S
H437 C447 0.930 . S
C438 H432 0.930 . S
C438 C439 1.355 . S
C438 C440 1.415 . S
C439 C438 1.355 . S
C439 C441 1.419 . S
C440 C438 1.415 . S
C440 C445 1.425 . S
C440 C447 1.409 . S
C441 H433 0.930 . S
C441 C439 1.419 . S
C441 C442 1.362 . S
C442 H434 0.930 . S
C442 C441 1.362 . S
C442 C445 1.409 . S
C443 H435 0.930 . S
C443 C444 1.355 . S
C443 C445 1.415 . S
C444 C443 1.355 . S
C444 C446 1.419 . S
C445 C440 1.425 . S
C445 C442 1.409 . S
C445 C443 1.415 . S
C446 H436 0.930 . S
C446 C444 1.419 . S
C446 C447 1.362 . S
C447 H437 0.930 . S
C447 C440 1.409 . S
C447 C446 1.362 . S
H448 C454 0.930 . S
H449 C457 0.930 . S
H450 C458 0.930 . S
H451 C459 0.930 . S
H452 C462 0.930 . S
H453 C463 0.930 . S
C454 H448 0.930 . S
C454 C455 1.355 1_455 S
C454 C456 1.415 . S
C455 C454 1.355 1_655 S
C455 C457 1.419 . S
C456 C454 1.415 . S
C456 C461 1.425 . S
C456 C463 1.409 . S
C457 H449 0.930 . S
C457 C455 1.419 . S
C457 C458 1.362 . S
C458 H450 0.930 . S
C458 C457 1.362 . S
C458 C461 1.409 1_655 S
C459 H451 0.930 . S
C459 C460 1.355 . S
C459 C461 1.415 . S
C460 C459 1.355 . S
C460 C462 1.419 . S
C461 C456 1.425 . S
C461 C458 1.409 1_455 S
C461 C459 1.415 . S
C462 H452 0.930 . S
C462 C460 1.419 . S
C462 C463 1.362 . S
C463 H453 0.930 . S
C463 C456 1.409 . S
C463 C462 1.362 . S
H464 C470 0.930 . S
H465 C473 0.930 . S
H466 C474 0.936 . S
H467 C475 0.930 . S
H468 C478 0.930 . S
H469 C479 0.930 . S
C470 H464 0.930 . S
C470 C471 1.355 1_545 S
C470 C472 1.415 . S
C471 C470 1.355 1_565 S
C471 C473 1.419 . S
C472 C470 1.415 . S
C472 C477 1.425 . S
C472 C479 1.409 . S
C473 H465 0.930 . S
C473 C471 1.419 . S
C473 C474 1.362 1_565 S
C474 H466 0.936 . S
C474 C473 1.362 1_545 S
C474 C477 1.409 . S
C475 H467 0.930 . S
C475 C476 1.355 . S
C475 C477 1.415 . S
C476 C475 1.355 . S
C476 C478 1.419 . S
C477 C472 1.425 . S
C477 C474 1.409 . S
C477 C475 1.415 . S
C478 H468 0.930 . S
C478 C476 1.419 . S
C478 C479 1.362 . S
C479 H469 0.930 . S
C479 C472 1.409 . S
C479 C478 1.362 . S
H480 C486 0.930 . S
H481 C489 0.930 . S
H482 C490 0.930 . S
H483 C491 0.930 . S
H484 C494 0.930 . S
H485 C495 0.930 . S
C486 H480 0.930 . S
C486 C487 1.355 . S
C486 C488 1.415 . S
C487 C486 1.355 . S
C487 C489 1.419 . S
C488 C486 1.415 . S
C488 C493 1.425 . S
C488 C495 1.409 . S
C489 H481 0.930 . S
C489 C487 1.419 . S
C489 C490 1.362 . S
C490 H482 0.930 . S
C490 C489 1.362 . S
C490 C493 1.409 . S
C491 H483 0.930 . S
C491 C492 1.355 . S
C491 C493 1.415 . S
C492 C491 1.355 . S
C492 C494 1.419 . S
C493 C488 1.425 . S
C493 C490 1.409 . S
C493 C491 1.415 . S
C494 H484 0.930 . S
C494 C492 1.419 . S
C494 C495 1.362 . S
C495 H485 0.930 . S
C495 C488 1.409 . S
C495 C494 1.362 . S
H496 C502 0.930 . S
H497 C505 0.930 . S
H498 C506 0.930 . S
H499 C507 0.930 . S
H500 C510 0.930 . S
H501 C511 0.930 . S
C502 H496 0.930 . S
C502 C503 1.355 . S
C502 C504 1.415 . S
C503 C502 1.355 . S
C503 C505 1.419 . S
C504 C502 1.415 . S
C504 C509 1.425 . S
C504 C511 1.409 . S
C505 H497 0.930 . S
C505 C503 1.419 . S
C505 C506 1.362 . S
C506 H498 0.930 . S
C506 C505 1.362 . S
C506 C509 1.409 . S
C507 H499 0.930 . S
C507 C508 1.355 . S
C507 C509 1.415 . S
C508 C507 1.355 . S
C508 C510 1.419 . S
C509 C504 1.425 . S
C509 C506 1.409 . S
C509 C507 1.415 . S
C510 H500 0.930 . S
C510 C508 1.419 . S
C510 C511 1.362 . S
C511 H501 0.930 . S
C511 C504 1.409 . S
C511 C510 1.362 . S
H512 C518 0.930 . S
H513 C521 0.930 . S
H514 C522 0.930 . S
H515 C523 0.930 . S
H516 C526 0.930 1_554 S
H517 C527 0.930 1_554 S
C518 H512 0.930 . S
C518 C519 1.355 . S
C518 C520 1.415 . S
C519 C518 1.355 . S
C519 C521 1.419 1_455 S
C520 C518 1.415 . S
C520 C525 1.425 1_455 S
C520 C527 1.409 . S
C521 H513 0.930 . S
C521 C519 1.419 1_655 S
C521 C522 1.362 . S
C522 H514 0.930 . S
C522 C521 1.362 . S
C522 C525 1.409 . S
C523 H515 0.930 . S
C523 C524 1.355 1_655 S
C523 C525 1.415 . S
C524 C523 1.355 1_455 S
C524 C526 1.419 . S
C525 C520 1.425 1_655 S
C525 C522 1.409 . S
C525 C523 1.415 . S
C526 H516 0.930 1_556 S
C526 C524 1.419 . S
C526 C527 1.362 . S
C527 H517 0.930 1_556 S
C527 C520 1.409 . S
C527 C526 1.362 . S
H528 C534 0.930 . S
H529 C537 0.930 . S
H530 C538 0.930 . S
H531 C539 0.930 . S
H532 C542 0.930 . S
H533 C543 0.930 1_554 S
C534 H528 0.930 . S
C534 C535 1.355 1_565 S
C534 C536 1.415 . S
C535 C534 1.355 1_545 S
C535 C537 1.419 . S
C536 C534 1.415 . S
C536 C541 1.425 1_565 S
C536 C543 1.409 . S
C537 H529 0.930 . S
C537 C535 1.419 . S
C537 C538 1.362 . S
C538 H530 0.930 . S
C538 C537 1.362 . S
C538 C541 1.409 . S
C539 H531 0.930 . S
C539 C540 1.355 . S
C539 C541 1.415 . S
C540 C539 1.355 . S
C540 C542 1.419 1_545 S
C541 C536 1.425 1_545 S
C541 C538 1.409 . S
C541 C539 1.415 . S
C542 H532 0.930 . S
C542 C540 1.419 1_565 S
C542 C543 1.362 . S
C543 H533 0.930 1_556 S
C543 C536 1.409 . S
C543 C542 1.362 . S
H544 C550 0.930 . S
H545 C553 0.930 . S
H546 C554 0.930 1_554 S
H547 C555 0.930 . S
H548 C558 0.930 . S
H549 C559 0.930 . S
C550 H544 0.930 . S
C550 C551 1.355 . S
C550 C552 1.415 . S
C551 C550 1.355 . S
C551 C553 1.419 . S
C552 C550 1.415 . S
C552 C557 1.425 . S
C552 C559 1.409 . S
C553 H545 0.930 . S
C553 C551 1.419 . S
C553 C554 1.362 . S
C554 H546 0.930 1_556 S
C554 C553 1.362 . S
C554 C557 1.409 . S
C555 H547 0.930 . S
C555 C556 1.355 . S
C555 C557 1.415 . S
C556 C555 1.355 . S
C556 C558 1.419 . S
C557 C552 1.425 . S
C557 C554 1.409 . S
C557 C555 1.415 . S
C558 H548 0.930 . S
C558 C556 1.419 . S
C558 C559 1.362 . S
C559 H549 0.930 . S
C559 C552 1.409 . S
C559 C558 1.362 . S
H560 C566 0.930 . S
H561 C569 0.930 1_554 S
H562 C570 0.930 1_554 S
H563 C571 0.930 . S
H564 C574 0.930 . S
H565 C575 0.930 . S
C566 H560 0.930 . S
C566 C567 1.355 . S
C566 C568 1.415 . S
C567 C566 1.355 . S
C567 C569 1.419 . S
C568 C566 1.415 . S
C568 C573 1.425 . S
C568 C575 1.409 . S
C569 H561 0.930 1_556 S
C569 C567 1.419 . S
C569 C570 1.362 . S
C570 H562 0.930 1_556 S
C570 C569 1.362 . S
C570 C573 1.409 . S
C571 H563 0.930 . S
C571 C572 1.355 . S
C571 C573 1.415 . S
C572 C571 1.355 . S
C572 C574 1.419 . S
C573 C568 1.425 . S
C573 C570 1.409 . S
C573 C571 1.415 . S
C574 H564 0.930 . S
C574 C572 1.419 . S
C574 C575 1.362 . S
C575 H565 0.930 . S
C575 C568 1.409 . S
C575 C574 1.362 . S
H576 C582 0.930 . S
H577 C585 0.930 . S
H578 C586 0.930 . S
H579 C587 0.930 . S
H580 C590 0.930 . S
H581 C591 0.930 . S
C582 H576 0.930 . S
C582 C583 1.355 . S
C582 C584 1.415 . S
C583 C582 1.355 . S
C583 C585 1.419 1_655 S
C584 C582 1.415 . S
C584 C589 1.425 1_655 S
C584 C591 1.409 . S
C585 H577 0.930 . S
C585 C583 1.419 1_455 S
C585 C586 1.362 . S
C586 H578 0.930 . S
C586 C585 1.362 . S
C586 C589 1.409 . S
C587 H579 0.930 . S
C587 C588 1.355 1_455 S
C587 C589 1.415 . S
C588 C587 1.355 1_655 S
C588 C590 1.419 . S
C589 C584 1.425 1_455 S
C589 C586 1.409 . S
C589 C587 1.415 . S
C590 H580 0.930 . S
C590 C588 1.419 . S
C590 C591 1.362 . S
C591 H581 0.930 . S
C591 C584 1.409 . S
C591 C590 1.362 . S
H592 C598 0.930 . S
H593 C601 0.930 . S
H594 C602 0.930 . S
H595 C603 0.930 . S
H596 C606 0.930 . S
H597 C607 0.930 . S
C598 H592 0.930 . S
C598 C599 1.355 1_545 S
C598 C600 1.415 . S
C599 C598 1.355 1_565 S
C599 C601 1.419 . S
C600 C598 1.415 . S
C600 C605 1.425 1_545 S
C600 C607 1.409 . S
C601 H593 0.930 . S
C601 C599 1.419 . S
C601 C602 1.362 . S
C602 H594 0.930 . S
C602 C601 1.362 . S
C602 C605 1.409 . S
C603 H595 0.930 . S
C603 C604 1.355 . S
C603 C605 1.415 . S
C604 C603 1.355 . S
C604 C606 1.419 1_565 S
C605 C600 1.425 1_565 S
C605 C602 1.409 . S
C605 C603 1.415 . S
C606 H596 0.930 . S
C606 C604 1.419 1_545 S
C606 C607 1.362 . S
C607 H597 0.930 . S
C607 C600 1.409 . S
C607 C606 1.362 . S
H608 C614 0.930 . S
H609 C617 0.930 . S
H610 C618 0.930 . S
H611 C619 0.930 . S
H612 C622 0.930 . S
H613 C623 0.930 . S
C614 H608 0.930 . S
C614 C615 1.355 . S
C614 C616 1.415 . S
C615 C614 1.355 . S
C615 C617 1.419 . S
C616 C614 1.415 . S
C616 C621 1.425 . S
C616 C623 1.409 . S
C617 H609 0.930 . S
C617 C615 1.419 . S
C617 C618 1.362 . S
C618 H610 0.930 . S
C618 C617 1.362 . S
C618 C621 1.409 . S
C619 H611 0.930 . S
C619 C620 1.355 . S
C619 C621 1.415 . S
C620 C619 1.355 . S
C620 C622 1.419 . S
C621 C616 1.425 . S
C621 C618 1.409 . S
C621 C619 1.415 . S
C622 H612 0.930 . S
C622 C620 1.419 . S
C622 C623 1.362 . S
C623 H613 0.930 . S
C623 C616 1.409 . S
C623 C622 1.362 . S
H624 C630 0.930 . S
H625 C633 0.930 . S
H626 C634 0.930 . S
H627 C635 0.930 . S
H628 C638 0.930 . S
H629 C639 0.930 . S
C630 H624 0.930 . S
C630 C631 1.355 . S
C630 C632 1.415 . S
C631 C630 1.355 . S
C631 C633 1.419 . S
C632 C630 1.415 . S
C632 C637 1.425 . S
C632 C639 1.409 . S
C633 H625 0.930 . S
C633 C631 1.419 . S
C633 C634 1.362 . S
C634 H626 0.930 . S
C634 C633 1.362 . S
C634 C637 1.409 . S
C635 H627 0.930 . S
C635 C636 1.355 . S
C635 C637 1.415 . S
C636 C635 1.355 . S
C636 C638 1.419 . S
C637 C632 1.425 . S
C637 C634 1.409 . S
C637 C635 1.415 . S
C638 H628 0.930 . S
C638 C636 1.419 . S
C638 C639 1.362 . S
C639 H629 0.930 . S
C639 C632 1.409 . S
C639 C638 1.362 . S
C263 C76 1.886 . S
C268 C105 2.040 1_545 S
C284 C145 2.071 . S
C279 C88 1.883 . S
C300 C185 2.079 . S
C295 C52 1.914 . S
C316 C225 2.056 . S
C311 C64 1.833 1_455 S
C332 C114 2.043 . S
C327 C28 1.894 . S
C343 C40 1.830 . S
C348 C154 2.076 1_554 S
C359 C4 1.844 . S
C364 C194 2.073 1_554 S
C375 C16 1.893 . S
C380 C234 2.051 . S
C396 C111 0.671 . S
C391 C69 0.670 . S
C412 C151 0.526 . S
C407 C81 0.592 1_565 S
C428 C191 0.676 . S
C423 C93 0.632 . S
C439 C57 0.589 . S
C444 C231 0.515 . S
C455 C21 0.587 1_655 S
C460 C102 0.650 . S
C476 C142 0.593 . S
C471 C33 0.528 1_565 S
C492 C182 0.575 . S
C487 C45 0.522 . S
C503 C9 0.570 . S
C508 C222 0.512 . S
C519 C66 2.195 . S
C524 C115 2.425 . S
C535 C78 2.120 . S
C540 C155 2.361 . S
C556 C195 2.372 . S
C551 C90 2.074 . S
C572 C235 2.395 . S
C567 C54 2.086 . S
C583 C18 2.121 1_655 S
C588 C106 2.433 . S
C604 C146 2.363 . S
C599 C30 2.138 1_565 S
C620 C186 2.342 . S
C615 C42 2.125 . S
C631 C6 2.163 . S
C636 C226 2.392 . S
