# Generated by pormake.
# Topology cml, (3,6)-cn, num edge types: 1
# Building blocks:
#     Node 0, Type 0, BuildingBlock: BELTOD_clean_linker_0, # of connection points: 3
#     Node 1, Type 0, BuildingBlock: BELTOD_clean_linker_0, # of connection points: 3
#     Node 2, Type 0, BuildingBlock: BELTOD_clean_linker_0, # of connection points: 3
#     Node 3, Type 0, BuildingBlock: BELTOD_clean_linker_0, # of connection points: 3
#     Node 4, Type 0, BuildingBlock: BELTOD_clean_linker_0, # of connection points: 3
#     Node 5, Type 0, BuildingBlock: BELTOD_clean_linker_0, # of connection points: 3
#     Node 6, Type 0, BuildingBlock: BELTOD_clean_linker_0, # of connection points: 3
#     Node 7, Type 0, BuildingBlock: BELTOD_clean_linker_0, # of connection points: 3
#     Node 8, Type 1, BuildingBlock: IZENUY_clean_sbu_0, # of connection points: 6
#     Node 9, Type 1, BuildingBlock: IZENUY_clean_sbu_0, # of connection points: 6
#     Node 10, Type 1, BuildingBlock: IZENUY_clean_sbu_0, # of connection points: 6
#     Node 11, Type 1, BuildingBlock: IZENUY_clean_sbu_0, # of connection points: 6
#     Edge 12, Type (0, 1), BuildingBlock: XUDNAN_clean_linker_2, # of connection points: 2
#     Edge 13, Type (0, 1), BuildingBlock: XUDNAN_clean_linker_2, # of connection points: 2
#     Edge 14, Type (0, 1), BuildingBlock: XUDNAN_clean_linker_2, # of connection points: 2
#     Edge 15, Type (0, 1), BuildingBlock: XUDNAN_clean_linker_2, # of connection points: 2
#     Edge 16, Type (0, 1), BuildingBlock: XUDNAN_clean_linker_2, # of connection points: 2
#     Edge 17, Type (0, 1), BuildingBlock: XUDNAN_clean_linker_2, # of connection points: 2
#     Edge 18, Type (0, 1), BuildingBlock: XUDNAN_clean_linker_2, # of connection points: 2
#     Edge 19, Type (0, 1), BuildingBlock: XUDNAN_clean_linker_2, # of connection points: 2
#     Edge 20, Type (0, 1), BuildingBlock: XUDNAN_clean_linker_2, # of connection points: 2
#     Edge 21, Type (0, 1), BuildingBlock: XUDNAN_clean_linker_2, # of connection points: 2
#     Edge 22, Type (0, 1), BuildingBlock: XUDNAN_clean_linker_2, # of connection points: 2
#     Edge 23, Type (0, 1), BuildingBlock: XUDNAN_clean_linker_2, # of connection points: 2
#     Edge 24, Type (0, 1), BuildingBlock: XUDNAN_clean_linker_2, # of connection points: 2
#     Edge 25, Type (0, 1), BuildingBlock: XUDNAN_clean_linker_2, # of connection points: 2
#     Edge 26, Type (0, 1), BuildingBlock: XUDNAN_clean_linker_2, # of connection points: 2
#     Edge 27, Type (0, 1), BuildingBlock: XUDNAN_clean_linker_2, # of connection points: 2
#     Edge 28, Type (0, 1), BuildingBlock: XUDNAN_clean_linker_2, # of connection points: 2
#     Edge 29, Type (0, 1), BuildingBlock: XUDNAN_clean_linker_2, # of connection points: 2
#     Edge 30, Type (0, 1), BuildingBlock: XUDNAN_clean_linker_2, # of connection points: 2
#     Edge 31, Type (0, 1), BuildingBlock: XUDNAN_clean_linker_2, # of connection points: 2
#     Edge 32, Type (0, 1), BuildingBlock: XUDNAN_clean_linker_2, # of connection points: 2
#     Edge 33, Type (0, 1), BuildingBlock: XUDNAN_clean_linker_2, # of connection points: 2
#     Edge 34, Type (0, 1), BuildingBlock: XUDNAN_clean_linker_2, # of connection points: 2
#     Edge 35, Type (0, 1), BuildingBlock: XUDNAN_clean_linker_2, # of connection points: 2
# Relax obj value: 0.049
# Max RMSD: 0.063
# Mean RMSD: 0.061
data_MOF--net-cml--node1-IZENUY_clean_sbu_0--node2-BELTOD_clean_linker_0--edge1-XUDNAN_clean_linker_2
_symmetry_space_group_name_H-M    P1
_symmetry_Int_Tables_number       1
_symmetry_cell_setting            triclinic
loop_
_symmetry_equiv_pos_as_xyz
'x, y, z'
_cell_length_a     40.295983
_cell_length_b     46.671963
_cell_length_c     43.120781
_cell_angle_alpha  89.689435
_cell_angle_beta   89.73178
_cell_angle_gamma 90.219931
loop_
_atom_site_label
_atom_site_type_symbol
_atom_site_fract_x
_atom_site_fract_y
_atom_site_fract_z
_atom_type_partial_charge
P0 P 0.34367 0.32212 0.97708 0.0
H1 H 0.34893 0.27967 0.02638 0.0
H2 H 0.35165 0.2835 0.08286 0.0
H3 H 0.33586 0.37481 0.07567 0.0
H4 H 0.33326 0.37084 0.01925 0.0
H5 H 0.32799 0.3055 0.91434 0.0
H6 H 0.27853 0.28496 0.89036 0.0
H7 H 0.22959 0.28273 0.9797 0.0
H8 H 0.27923 0.30336 0.00359 0.0
H9 H 0.40345 0.35651 0.9687 0.0
H10 H 0.29917 0.36446 0.9485 0.0
O11 O 0.37593 0.30132 0.96832 0.0
H12 H 0.41385 0.40342 0.94501 0.0
H13 H 0.30935 0.41148 0.92483 0.0
C14 C 0.34151 0.32499 0.01864 0.0
C15 C 0.34572 0.30045 0.03702 0.0
C16 C 0.34704 0.30266 0.06929 0.0
C17 C 0.34419 0.32951 0.0837 0.0
C18 C 0.33859 0.35391 0.0652 0.0
C19 C 0.33707 0.35163 0.03292 0.0
C20 C 0.30728 0.30588 0.96067 0.0
C21 C 0.30666 0.30045 0.92878 0.0
C22 C 0.27837 0.28884 0.91511 0.0
C23 C 0.25019 0.28231 0.93317 0.0
C24 C 0.25108 0.28731 0.96529 0.0
C25 C 0.27939 0.2992 0.97893 0.0
C26 C 0.35073 0.35675 0.95966 0.0
C27 C 0.38282 0.36834 0.95906 0.0
C28 C 0.38866 0.39525 0.94575 0.0
C29 C 0.36242 0.41109 0.93291 0.0
C30 C 0.33013 0.39958 0.93409 0.0
C31 C 0.3243 0.37271 0.94761 0.0
P32 P 0.75485 0.6023 0.51931 0.0
H33 H 0.75102 0.53999 0.51279 0.0
H34 H 0.71814 0.50868 0.47961 0.0
H35 H 0.67333 0.58302 0.43702 0.0
H36 H 0.70681 0.6142 0.46999 0.0
H37 H 0.82156 0.6104 0.4936 0.0
H38 H 0.84969 0.65141 0.46968 0.0
H39 H 0.75846 0.69967 0.47411 0.0
H40 H 0.73073 0.65865 0.49875 0.0
H41 H 0.692 0.58099 0.54572 0.0
H42 H 0.76029 0.65064 0.56198 0.0
O43 O 0.78468 0.58303 0.53606 0.0
H44 H 0.658 0.59655 0.58943 0.0
H45 H 0.72645 0.66623 0.60597 0.0
C46 C 0.73192 0.57946 0.49338 0.0
C47 C 0.73443 0.54958 0.49605 0.0
C48 C 0.71532 0.53166 0.47727 0.0
C49 C 0.69315 0.54329 0.45553 0.0
C50 C 0.69058 0.57332 0.4531 0.0
C51 C 0.7097 0.59121 0.47195 0.0
C52 C 0.77424 0.63168 0.49854 0.0
C53 C 0.80756 0.62977 0.4893 0.0
C54 C 0.82358 0.65321 0.47537 0.0
C55 C 0.80648 0.67903 0.47021 0.0
C56 C 0.77259 0.68035 0.47829 0.0
C57 C 0.75662 0.65686 0.49223 0.0
C58 C 0.72825 0.61512 0.54999 0.0
C59 C 0.69951 0.59986 0.55841 0.0
C60 C 0.68022 0.60861 0.58366 0.0
C61 C 0.68944 0.6327 0.60116 0.0
C62 C 0.71834 0.64788 0.59268 0.0
C63 C 0.73771 0.639 0.56751 0.0
P64 P 0.7632 0.41412 0.03074 0.0
H65 H 0.76803 0.41342 0.09878 0.0
H66 H 0.72969 0.39737 0.1397 0.0
H67 H 0.65916 0.37149 0.07005 0.0
H68 H 0.69736 0.38785 0.02932 0.0
H69 H 0.82325 0.41006 0.99281 0.0
H70 H 0.85279 0.36948 0.96973 0.0
H71 H 0.77727 0.31188 0.00486 0.0
H72 H 0.74785 0.35216 0.0275 0.0
H73 H 0.70839 0.45385 0.0394 0.0
H74 H 0.76782 0.42337 0.96303 0.0
O75 O 0.79234 0.435 0.04629 0.0
H76 H 0.67604 0.48302 0.00382 0.0
H77 H 0.73679 0.45374 0.92743 0.0
C78 C 0.73547 0.40186 0.06104 0.0
C79 C 0.7443 0.40436 0.09233 0.0
C80 C 0.72236 0.39528 0.11568 0.0
C81 C 0.6915 0.38316 0.10803 0.0
C82 C 0.6829 0.3805 0.07662 0.0
C83 C 0.70463 0.38992 0.05336 0.0
C84 C 0.78348 0.38424 0.0122 0.0
C85 C 0.81292 0.38871 0.99531 0.0
C86 C 0.82968 0.36557 0.98199 0.0
C87 C 0.81741 0.33752 0.98568 0.0
C88 C 0.78748 0.33323 0.00194 0.0
C89 C 0.77058 0.35638 0.0149 0.0
C90 C 0.73991 0.43572 0.00382 0.0
C91 C 0.7145 0.4534 0.01493 0.0
C92 C 0.69628 0.47046 0.99454 0.0
C93 C 0.70363 0.47075 0.96261 0.0
C94 C 0.7299 0.45363 0.95173 0.0
C95 C 0.74784 0.43627 0.97215 0.0
P96 P 0.33563 0.67506 0.47815 0.0
H97 H 0.33199 0.65138 0.41604 0.0
H98 H 0.34247 0.60371 0.39503 0.0
H99 H 0.36288 0.57224 0.48744 0.0
H100 H 0.35321 0.62002 0.50808 0.0
H101 H 0.31222 0.73296 0.46515 0.0
H102 H 0.25873 0.75181 0.44804 0.0
H103 H 0.21731 0.66627 0.45169 0.0
H104 H 0.27106 0.64759 0.46814 0.0
H105 H 0.39016 0.69076 0.51908 0.0
H106 H 0.28968 0.65967 0.52837 0.0
O107 O 0.36498 0.69598 0.46247 0.0
H108 H 0.39725 0.68741 0.57515 0.0
H109 H 0.29639 0.65664 0.58466 0.0
C110 C 0.34158 0.63928 0.46359 0.0
C111 C 0.33854 0.63415 0.43176 0.0
C112 C 0.34437 0.60682 0.41983 0.0
C113 C 0.35343 0.58404 0.43956 0.0
C114 C 0.35629 0.58931 0.47154 0.0
C115 C 0.35049 0.61668 0.48342 0.0
C116 C 0.29576 0.68882 0.46702 0.0
C117 C 0.29159 0.7183 0.4622 0.0
C118 C 0.26091 0.72908 0.45275 0.0
C119 C 0.23381 0.71051 0.44821 0.0
C120 C 0.23785 0.68107 0.45437 0.0
C121 C 0.26855 0.67035 0.46377 0.0
C122 C 0.33924 0.67588 0.51966 0.0
C123 C 0.36937 0.68381 0.53327 0.0
C124 C 0.37334 0.682 0.56537 0.0
C125 C 0.3473 0.67192 0.58438 0.0
C126 C 0.31693 0.66439 0.57062 0.0
C127 C 0.31298 0.6663 0.53849 0.0
P128 P 0.81905 0.84541 0.98226 0.0
H129 H 0.88147 0.83536 0.01394 0.0
H130 H 0.89612 0.83218 0.0687 0.0
H131 H 0.79245 0.83783 0.09372 0.0
H132 H 0.77789 0.84094 0.03875 0.0
H133 H 0.80348 0.79222 0.95012 0.0
H134 H 0.7512 0.76942 0.93546 0.0
H135 H 0.69702 0.83977 0.97581 0.0
H136 H 0.74962 0.86273 0.99012 0.0
H137 H 0.84034 0.89438 0.0203 0.0
H138 H 0.7988 0.88047 0.92953 0.0
O139 O 0.84919 0.83191 0.9601 0.0
H140 H 0.84841 0.94472 0.00814 0.0
H141 H 0.80617 0.93142 0.91738 0.0
C142 C 0.82855 0.83781 0.02221 0.0
C143 C 0.8618 0.83525 0.03113 0.0
C144 C 0.87018 0.83376 0.06245 0.0
C145 C 0.84543 0.8349 0.08547 0.0
C146 C 0.812 0.83662 0.07646 0.0
C147 C 0.80366 0.83833 0.04504 0.0
C148 C 0.78037 0.82926 0.97097 0.0
C149 C 0.78039 0.80291 0.95555 0.0
C150 C 0.75051 0.78994 0.94707 0.0
C151 C 0.72007 0.8029 0.95436 0.0
C152 C 0.72014 0.82927 0.96999 0.0
C153 C 0.7501 0.84241 0.97812 0.0
C154 C 0.81882 0.88356 0.97582 0.0
C155 C 0.83212 0.9022 0.99799 0.0
C156 C 0.83657 0.93122 0.99107 0.0
C157 C 0.82801 0.94214 0.96176 0.0
C158 C 0.81332 0.92362 0.94007 0.0
C159 C 0.8089 0.89454 0.94704 0.0
P160 P 0.24687 0.1096 0.52999 0.0
H161 H 0.25983 0.05055 0.50942 0.0
H162 H 0.23036 0.01856 0.47388 0.0
H163 H 0.16153 0.08647 0.45263 0.0
H164 H 0.19045 0.11799 0.4885 0.0
H165 H 0.31647 0.12763 0.52452 0.0
H166 H 0.34385 0.1671 0.49686 0.0
H167 H 0.24844 0.19832 0.46701 0.0
H168 H 0.22105 0.15931 0.49551 0.0
H169 H 0.19079 0.07808 0.55545 0.0
H170 H 0.23436 0.16193 0.56674 0.0
O171 O 0.27534 0.09079 0.54924 0.0
H172 H 0.1474 0.09002 0.59256 0.0
H173 H 0.19056 0.17407 0.60436 0.0
C174 C 0.22779 0.08693 0.5012 0.0
C175 C 0.23864 0.05867 0.49686 0.0
C176 C 0.22165 0.04032 0.47672 0.0
C177 C 0.19375 0.05006 0.46035 0.0
C178 C 0.18328 0.07849 0.4645 0.0
C179 C 0.19999 0.09664 0.48487 0.0
C180 C 0.26666 0.14021 0.51177 0.0
C181 C 0.30133 0.14312 0.51238 0.0
C182 C 0.317 0.16579 0.49667 0.0
C183 C 0.29829 0.1857 0.47966 0.0
C184 C 0.2635 0.18311 0.47969 0.0
C185 C 0.24783 0.16071 0.49583 0.0
C186 C 0.21516 0.11945 0.5575 0.0
C187 C 0.19081 0.09924 0.56564 0.0
C188 C 0.16599 0.10608 0.58691 0.0
C189 C 0.16526 0.13317 0.60095 0.0
C190 C 0.19045 0.1531 0.59374 0.0
C191 C 0.21529 0.14626 0.57211 0.0
P192 P 0.24086 0.89162 0.01055 0.0
H193 H 0.25834 0.85692 0.06388 0.0
H194 H 0.22947 0.84569 0.11249 0.0
H195 H 0.14185 0.88835 0.0785 0.0
H196 H 0.17081 0.89941 0.02982 0.0
H197 H 0.30545 0.88476 0.98095 0.0
H198 H 0.3333 0.84398 0.95762 0.0
H199 H 0.24446 0.79287 0.9704 0.0
H200 H 0.21719 0.8338 0.99497 0.0
H201 H 0.22951 0.95301 0.01025 0.0
H202 H 0.19903 0.88036 0.95589 0.0
O203 O 0.27166 0.91139 0.02504 0.0
H204 H 0.19743 0.98475 0.97702 0.0
H205 H 0.16595 0.91205 0.9227 0.0
C206 C 0.21684 0.87909 0.04331 0.0
C207 C 0.23271 0.86338 0.06665 0.0
C208 C 0.21624 0.8571 0.09446 0.0
C209 C 0.18349 0.86638 0.09942 0.0
C210 C 0.167 0.88077 0.07528 0.0
C211 C 0.18362 0.88721 0.04747 0.0
C212 C 0.2595 0.86212 0.9902 0.0
C213 C 0.29191 0.86481 0.97866 0.0
C214 C 0.30774 0.84145 0.96501 0.0
C215 C 0.29128 0.81494 0.96221 0.0
C216 C 0.25816 0.81274 0.97269 0.0
C217 C 0.24243 0.83615 0.98657 0.0
C218 C 0.21716 0.91443 0.98518 0.0
C219 C 0.21596 0.94389 0.99104 0.0
C220 C 0.19731 0.96201 0.97214 0.0
C221 C 0.17905 0.95099 0.94714 0.0
C222 C 0.1801 0.9213 0.94147 0.0
C223 C 0.1989 0.90314 0.96046 0.0
P224 P 0.81135 0.15869 0.498 0.0
H225 H 0.82482 0.14417 0.43386 0.0
H226 H 0.83891 0.09932 0.40792 0.0
H227 H 0.82903 0.05389 0.49502 0.0
H228 H 0.81443 0.09874 0.52077 0.0
H229 H 0.78704 0.21734 0.49459 0.0
H230 H 0.73713 0.2385 0.47201 0.0
H231 H 0.69997 0.15373 0.45161 0.0
H232 H 0.75006 0.13278 0.47401 0.0
H233 H 0.86432 0.14002 0.53828 0.0
H234 H 0.76436 0.1713 0.54906 0.0
O235 O 0.84145 0.18116 0.48676 0.0
H236 H 0.87068 0.13865 0.59453 0.0
H237 H 0.77064 0.1701 0.60556 0.0
C238 C 0.81919 0.12492 0.47929 0.0
C239 C 0.82548 0.12452 0.44733 0.0
C240 C 0.83337 0.09887 0.43253 0.0
C241 C 0.83527 0.07313 0.44951 0.0
C242 C 0.82818 0.07347 0.48146 0.0
C243 C 0.81986 0.09914 0.49618 0.0
C244 C 0.77257 0.17358 0.48521 0.0
C245 C 0.76798 0.20333 0.4855 0.0
C246 C 0.73933 0.21538 0.47281 0.0
C247 C 0.7148 0.1978 0.45966 0.0
C248 C 0.71873 0.16786 0.46105 0.0
C249 C 0.74732 0.15584 0.47387 0.0
C250 C 0.8139 0.15564 0.53953 0.0
C251 C 0.84359 0.14624 0.55282 0.0
C252 C 0.84711 0.14531 0.58497 0.0
C253 C 0.82107 0.15413 0.60446 0.0
C254 C 0.79113 0.16326 0.59108 0.0
C255 C 0.78752 0.1639 0.5588 0.0
Fe256 Fe 0.99743 0.82919 0.32368 0.0
Fe257 Fe 0.00284 0.86748 0.38161 0.0
O258 O 0.9996 0.86355 0.34084 0.0
Fe259 Fe 0.99832 0.89432 0.3168 0.0
O260 O 0.97331 0.87782 0.28603 0.0
O261 O 0.95763 0.83689 0.30623 0.0
O262 O 0.97423 0.81235 0.35595 0.0
C263 C 0.95781 0.82313 0.37812 0.0
C264 C 0.04074 0.86077 0.28414 0.0
O265 O 0.96461 0.84778 0.38814 0.0
C266 C 0.04431 0.91068 0.36289 0.0
O267 O 0.03664 0.81895 0.3399 0.0
O268 O 0.02851 0.83508 0.38728 0.0
O269 O 0.03667 0.88416 0.2981 0.0
O270 O 0.02082 0.8399 0.28827 0.0
C271 C 0.95676 0.91053 0.36335 0.0
O272 O 0.04145 0.88774 0.37828 0.0
O273 O 0.02314 0.917 0.34244 0.0
C274 C 0.04419 0.81947 0.36817 0.0
O275 O 0.97741 0.90045 0.38278 0.0
O276 O 0.96002 0.9058 0.33469 0.0
C277 C 0.95345 0.85677 0.28689 0.0
Fe278 Fe 1.00011 0.14668 0.88462 0.0
Fe279 Fe 0.98277 0.11787 0.82293 0.0
O280 O 0.99048 0.1494 0.84458 0.0
Fe281 Fe 0.98863 0.18355 0.82635 0.0
O282 O 0.02153 0.1994 0.84992 0.0
O283 O 0.04017 0.16393 0.87874 0.0
O284 O 0.02147 0.11219 0.88141 0.0
C285 C 0.0344 0.09944 0.85854 0.0
C286 C 0.95832 0.19508 0.88193 0.0
O287 O 0.02376 0.10373 0.83142 0.0
C288 C 0.93486 0.15304 0.7995 0.0
O289 O 0.96066 0.12929 0.89317 0.0
O290 O 0.96396 0.09807 0.85536 0.0
O291 O 0.95635 0.19566 0.85276 0.0
O292 O 0.98045 0.18051 0.89536 0.0
C293 C 0.01889 0.15281 0.78047 0.0
O294 O 0.94137 0.12955 0.8127 0.0
O295 O 0.95537 0.17366 0.79956 0.0
C296 C 0.95075 0.1066 0.88033 0.0
O297 O 0.99971 0.13201 0.78651 0.0
O298 O 0.02077 0.17406 0.79834 0.0
C299 C 0.04437 0.188 0.86578 0.0
Fe300 Fe 0.49125 0.32491 0.32098 0.0
Fe301 Fe 0.4976 0.36197 0.37963 0.0
O302 O 0.49386 0.35896 0.33864 0.0
Fe303 Fe 0.49249 0.39009 0.31502 0.0
O304 O 0.46567 0.37449 0.285 0.0
O305 O 0.45112 0.33286 0.30439 0.0
O306 O 0.46876 0.30784 0.35309 0.0
C307 C 0.45186 0.31836 0.37497 0.0
C308 C 0.53289 0.35655 0.27984 0.0
O309 O 0.45893 0.34248 0.38629 0.0
C310 C 0.53994 0.4047 0.36077 0.0
O311 O 0.53091 0.31456 0.33634 0.0
O312 O 0.52271 0.3291 0.38425 0.0
O313 O 0.52984 0.37984 0.29428 0.0
O314 O 0.51343 0.33573 0.28539 0.0
C315 C 0.45294 0.40668 0.3631 0.0
O316 O 0.53644 0.38182 0.37623 0.0
O317 O 0.51906 0.41166 0.34026 0.0
C318 C 0.53865 0.31426 0.3646 0.0
O319 O 0.47324 0.39539 0.38198 0.0
O320 O 0.45517 0.40214 0.33435 0.0
C321 C 0.44606 0.35325 0.28585 0.0
Fe322 Fe 0.49725 0.6364 0.87832 0.0
Fe323 Fe 0.49984 0.61349 0.81196 0.0
O324 O 0.49785 0.64282 0.83773 0.0
Fe325 Fe 0.49639 0.6785 0.82328 0.0
O326 O 0.53411 0.68816 0.84381 0.0
O327 O 0.5183 0.66993 0.8885 0.0
O328 O 0.53775 0.6194 0.87696 0.0
C329 C 0.54445 0.59815 0.86003 0.0
C330 C 0.4503 0.67822 0.87348 0.0
O331 O 0.52597 0.59158 0.83742 0.0
C332 C 0.4546 0.6512 0.78293 0.0
O333 O 0.47601 0.6016 0.87621 0.0
O334 O 0.46183 0.59805 0.82746 0.0
O335 O 0.46943 0.69162 0.85486 0.0
O336 O 0.45679 0.6529 0.88191 0.0
C337 C 0.54173 0.65107 0.78217 0.0
O338 O 0.47422 0.63016 0.78211 0.0
O339 O 0.45876 0.67161 0.80156 0.0
C340 C 0.45785 0.59089 0.85541 0.0
O341 O 0.53781 0.62664 0.79427 0.0
O342 O 0.52263 0.67161 0.78909 0.0
C343 C 0.53725 0.68614 0.87281 0.0
H344 H 0.21041 0.23739 0.95214 0.0
H345 H 0.22114 0.30249 0.8805 0.0
H346 H 0.17054 0.28448 0.85504 0.0
H347 H 0.18069 0.1811 0.90175 0.0
H348 H 0.15186 0.1667 0.92992 0.0
H349 H 0.18914 0.18447 0.94259 0.0
H350 H 0.15399 0.21932 0.97573 0.0
H351 H 0.11663 0.2016 0.96323 0.0
H352 H 0.12144 0.23969 0.95755 0.0
H353 H 0.11841 0.26076 0.83824 0.0
H354 H 0.06785 0.23199 0.83027 0.0
H355 H 0.0909 0.18118 0.91201 0.0
C356 C 0.20198 0.24787 0.93116 0.0
C357 C 0.21971 0.27128 0.9182 0.0
C358 C 0.20814 0.28431 0.89058 0.0
C359 C 0.17938 0.27432 0.87603 0.0
C360 C 0.16257 0.25116 0.8893 0.0
C361 C 0.17341 0.23799 0.91615 0.0
C362 C 0.15062 0.21344 0.92545 0.0
C363 C 0.16919 0.18473 0.92489 0.0
C364 C 0.13473 0.21885 0.95738 0.0
C365 C 0.12512 0.2151 0.89977 0.0
C366 C 0.13255 0.23707 0.87924 0.0
C367 C 0.11236 0.24343 0.85407 0.0
C368 C 0.08364 0.227 0.84981 0.0
C369 C 0.07541 0.20436 0.87052 0.0
C370 C 0.09666 0.19821 0.89567 0.0
H371 H 0.85463 0.6819 0.42434 0.0
H372 H 0.79945 0.73465 0.48909 0.0
H373 H 0.83061 0.77721 0.47116 0.0
H374 H 0.93277 0.7166 0.43464 0.0
H375 H 0.94517 0.71389 0.39455 0.0
H376 H 0.91727 0.6877 0.41114 0.0
H377 H 0.87431 0.69854 0.36817 0.0
H378 H 0.90212 0.72474 0.3514 0.0
H379 H 0.86053 0.73485 0.3622 0.0
H380 H 0.86956 0.81367 0.44829 0.0
H381 H 0.91274 0.84182 0.42109 0.0
H382 H 0.94314 0.76566 0.37111 0.0
C383 C 0.84903 0.7024 0.43474 0.0
C384 C 0.82433 0.70485 0.45805 0.0
C385 C 0.81773 0.73219 0.47083 0.0
C386 C 0.83548 0.75651 0.46094 0.0
C387 C 0.85978 0.75327 0.43816 0.0
C388 C 0.86651 0.72696 0.42509 0.0
C389 C 0.8944 0.72931 0.40143 0.0
C390 C 0.92416 0.71077 0.41102 0.0
C391 C 0.88209 0.72139 0.36887 0.0
C392 C 0.90255 0.76099 0.40352 0.0
C393 C 0.88223 0.77439 0.42483 0.0
C394 C 0.8855 0.80345 0.43142 0.0
C395 C 0.91021 0.81925 0.41588 0.0
C396 C 0.93142 0.80604 0.39389 0.0
C397 C 0.92727 0.77649 0.38761 0.0
H398 H 0.84612 0.32997 0.92811 0.0
H399 H 0.83242 0.28902 0.01787 0.0
H400 H 0.86555 0.24778 1.00031 0.0
H401 H 0.84079 0.26443 0.88268 0.0
H402 H 0.87193 0.27572 0.85502 0.0
H403 H 0.84666 0.302 0.87433 0.0
H404 H 0.89962 0.32774 0.89383 0.0
H405 H 0.92504 0.30156 0.87459 0.0
H406 H 0.92996 0.30775 0.91553 0.0
H407 H 0.90235 0.2125 0.97455 0.0
H408 H 0.93872 0.18364 0.94095 0.0
H409 H 0.92712 0.2458 0.86657 0.0
C410 C 0.85011 0.31227 0.94398 0.0
C411 C 0.83664 0.31261 0.97434 0.0
C412 C 0.84218 0.28902 0.99443 0.0
C413 C 0.86107 0.26557 0.98471 0.0
C414 C 0.874 0.26588 0.95471 0.0
C415 C 0.8686 0.28844 0.9345 0.0
C416 C 0.88538 0.28319 0.90346 0.0
C417 C 0.85965 0.28122 0.87733 0.0
C418 C 0.91156 0.30644 0.89645 0.0
C419 C 0.90143 0.25437 0.9096 0.0
C420 C 0.89459 0.24492 0.9394 0.0
C421 C 0.90767 0.21953 0.95108 0.0
C422 C 0.9284 0.20336 0.93187 0.0
C423 C 0.93564 0.21244 0.90117 0.0
C424 C 0.92168 0.23818 0.88982 0.0
H425 H 0.20076 0.76058 0.46269 0.0
H426 H 0.19578 0.68559 0.40363 0.0
H427 H 0.14495 0.7043 0.37963 0.0
H428 H 0.11086 0.76879 0.47361 0.0
H429 H 0.11261 0.80737 0.4722 0.0
H430 H 0.14755 0.78735 0.48653 0.0
H431 H 0.1858 0.81242 0.44619 0.0
H432 H 0.151 0.83248 0.43173 0.0
H433 H 0.17531 0.81091 0.40563 0.0
H434 H 0.09807 0.73211 0.35907 0.0
H435 H 0.05562 0.76711 0.34393 0.0
H436 H 0.08892 0.82454 0.4164 0.0
C437 C 0.18884 0.74804 0.44483 0.0
C438 C 0.20215 0.72145 0.43524 0.0
C439 C 0.18576 0.70569 0.41183 0.0
C440 C 0.15695 0.71622 0.39791 0.0
C441 C 0.14468 0.74251 0.40771 0.0
C442 C 0.15986 0.75821 0.43072 0.0
C443 C 0.14186 0.78631 0.43607 0.0
C444 C 0.12736 0.78751 0.46907 0.0
C445 C 0.16487 0.81205 0.4295 0.0
C446 C 0.11462 0.78412 0.41201 0.0
C447 C 0.11686 0.7586 0.39601 0.0
C448 C 0.0958 0.75203 0.37161 0.0
C449 C 0.07187 0.77214 0.36311 0.0
C450 C 0.06894 0.79849 0.37906 0.0
C451 C 0.09035 0.8044 0.40412 0.0
H452 H 0.70249 0.77813 0.89916 0.0
H453 H 0.66661 0.79437 0.99242 0.0
H454 H 0.61515 0.76757 0.98094 0.0
H455 H 0.62196 0.78455 0.86104 0.0
H456 H 0.63059 0.75642 0.83372 0.0
H457 H 0.66407 0.77779 0.84888 0.0
H458 H 0.69362 0.73169 0.8677 0.0
H459 H 0.66021 0.7102 0.85269 0.0
H460 H 0.67177 0.70702 0.89289 0.0
H461 H 0.56992 0.73618 0.96085 0.0
H462 H 0.53152 0.70483 0.93225 0.0
H463 H 0.59527 0.7104 0.85099 0.0
C464 C 0.68369 0.77613 0.91707 0.0
C465 C 0.68844 0.78831 0.94669 0.0
C466 C 0.66326 0.78545 0.9695 0.0
C467 C 0.63406 0.77018 0.96324 0.0
C468 C 0.63029 0.75818 0.93394 0.0
C469 C 0.65421 0.76123 0.91109 0.0
C470 C 0.64402 0.74603 0.88161 0.0
C471 C 0.63991 0.76748 0.85472 0.0
C472 C 0.66889 0.72233 0.87325 0.0
C473 C 0.61089 0.73354 0.89165 0.0
C474 C 0.60357 0.74074 0.92197 0.0
C475 C 0.57517 0.73066 0.93698 0.0
C476 C 0.5536 0.71276 0.92058 0.0
C477 C 0.56034 0.70533 0.88936 0.0
C478 C 0.58929 0.71605 0.87469 0.0
H479 H 0.34862 0.22277 0.49619 0.0
H480 H 0.28645 0.19788 0.41895 0.0
H481 H 0.3167 0.23178 0.38486 0.0
H482 H 0.35502 0.29935 0.47397 0.0
H483 H 0.39749 0.30229 0.48654 0.0
H484 H 0.3697 0.27731 0.50548 0.0
H485 H 0.41058 0.23595 0.49404 0.0
H486 H 0.43843 0.26075 0.47506 0.0
H487 H 0.42373 0.22961 0.45465 0.0
H488 H 0.35713 0.2639 0.35801 0.0
H489 H 0.40309 0.29531 0.34056 0.0
H490 H 0.43736 0.30267 0.43532 0.0
C491 C 0.34121 0.22475 0.47217 0.0
C492 C 0.3151 0.20779 0.46018 0.0
C493 C 0.30607 0.21093 0.42866 0.0
C494 C 0.32318 0.23005 0.40912 0.0
C495 C 0.34896 0.24625 0.42154 0.0
C496 C 0.35771 0.24416 0.4524 0.0
C497 C 0.38684 0.26375 0.45959 0.0
C498 C 0.37665 0.28706 0.48277 0.0
C499 C 0.41666 0.24648 0.47153 0.0
C500 C 0.39373 0.27646 0.42773 0.0
C501 C 0.37152 0.26598 0.40616 0.0
C502 C 0.37423 0.27272 0.37475 0.0
C503 C 0.4004 0.29049 0.36505 0.0
C504 C 0.42325 0.30169 0.38669 0.0
C505 C 0.41964 0.29491 0.41849 0.0
H506 H 0.33741 0.81316 0.91471 0.0
H507 H 0.28669 0.75906 0.98229 0.0
H508 H 0.31925 0.71761 0.96454 0.0
H509 H 0.34599 0.75957 0.85383 0.0
H510 H 0.38683 0.77182 0.84269 0.0
H511 H 0.35731 0.79668 0.85867 0.0
H512 H 0.39948 0.81065 0.90125 0.0
H513 H 0.42907 0.78583 0.88545 0.0
H514 H 0.41685 0.78308 0.92563 0.0
H515 H 0.35994 0.68263 0.94186 0.0
H516 H 0.40554 0.65685 0.91592 0.0
H517 H 0.431 0.73414 0.86435 0.0
C518 C 0.33299 0.79261 0.92577 0.0
C519 C 0.30923 0.78949 0.94986 0.0
C520 C 0.30418 0.76204 0.9634 0.0
C521 C 0.32274 0.73834 0.95361 0.0
C522 C 0.34632 0.74234 0.93023 0.0
C523 C 0.35143 0.76878 0.91643 0.0
C524 C 0.37941 0.76766 0.89285 0.0
C525 C 0.3666 0.77432 0.86007 0.0
C526 C 0.40788 0.78801 0.90185 0.0
C527 C 0.3896 0.73658 0.89593 0.0
C528 C 0.37004 0.72229 0.91743 0.0
C529 C 0.37529 0.69357 0.92483 0.0
C530 C 0.40133 0.67912 0.90999 0.0
C531 C 0.42198 0.69341 0.88808 0.0
C532 C 0.4157 0.7225 0.88089 0.0
H533 H 0.67569 0.24397 0.47594 0.0
H534 H 0.69123 0.18114 0.40345 0.0
H535 H 0.64729 0.20368 0.37234 0.0
H536 H 0.58566 0.24866 0.46737 0.0
H537 H 0.58452 0.28667 0.47446 0.0
H538 H 0.61645 0.26504 0.49183 0.0
H539 H 0.66145 0.2979 0.4672 0.0
H540 H 0.62968 0.31955 0.44963 0.0
H541 H 0.66159 0.30381 0.42584 0.0
H542 H 0.60475 0.23411 0.34771 0.0
H543 H 0.56282 0.26919 0.3318 0.0
H544 H 0.57276 0.31252 0.42025 0.0
C545 C 0.66969 0.23491 0.45359 0.0
C546 C 0.68676 0.21063 0.44222 0.0
C547 C 0.67813 0.19936 0.4129 0.0
C548 C 0.65336 0.21214 0.39494 0.0
C549 C 0.63725 0.23611 0.40666 0.0
C550 C 0.64475 0.24731 0.43538 0.0
C551 C 0.62362 0.27343 0.44222 0.0
C552 C 0.60123 0.26813 0.47066 0.0
C553 C 0.64539 0.30026 0.44647 0.0
C554 C 0.60343 0.27531 0.41266 0.0
C555 C 0.61191 0.25357 0.39252 0.0
C556 C 0.59766 0.2511 0.36336 0.0
C557 C 0.57392 0.27128 0.35451 0.0
C558 C 0.56434 0.29364 0.3748 0.0
C559 C 0.57933 0.29558 0.40434 0.0
H560 H 0.40232 0.45446 0.95391 0.0
H561 H 0.33774 0.43113 0.87781 0.0
H562 H 0.35155 0.47676 0.85126 0.0
H563 H 0.38485 0.53153 0.95239 0.0
H564 H 0.4271 0.54104 0.96138 0.0
H565 H 0.4099 0.50769 0.97543 0.0
H566 H 0.45812 0.47999 0.94938 0.0
H567 H 0.47544 0.5132 0.9353 0.0
H568 H 0.46595 0.48488 0.90848 0.0
H569 H 0.37655 0.52296 0.83093 0.0
H570 H 0.40969 0.56644 0.81915 0.0
H571 H 0.45696 0.5595 0.90914 0.0
C572 C 0.39091 0.45903 0.93175 0.0
C573 C 0.36894 0.43927 0.91792 0.0
C574 C 0.35433 0.44613 0.889 0.0
C575 C 0.3621 0.47194 0.87371 0.0
C576 C 0.38425 0.49076 0.88781 0.0
C577 C 0.39824 0.4847 0.9163 0.0
C578 C 0.42235 0.5079 0.92592 0.0
C579 C 0.41032 0.52293 0.95554 0.0
C580 C 0.45754 0.49576 0.92999 0.0
C581 C 0.42039 0.52763 0.89805 0.0
C582 C 0.39818 0.5175 0.87636 0.0
C583 C 0.39368 0.5313 0.84793 0.0
C584 C 0.41265 0.55593 0.84142 0.0
C585 C 0.43577 0.56648 0.86327 0.0
C586 C 0.43918 0.55228 0.8921 0.0
H587 H 0.66101 0.49305 0.47183 0.0
H588 H 0.67903 0.55036 0.39385 0.0
H589 H 0.64422 0.51962 0.36077 0.0
H590 H 0.66214 0.42652 0.42741 0.0
H591 H 0.62948 0.41012 0.45011 0.0
H592 H 0.65676 0.43606 0.46757 0.0
H593 H 0.60601 0.4665 0.48391 0.0
H594 H 0.57862 0.44065 0.46658 0.0
H595 H 0.57667 0.47773 0.45488 0.0
H596 H 0.60578 0.48412 0.33673 0.0
H597 H 0.56556 0.44631 0.32325 0.0
H598 H 0.57335 0.41083 0.41619 0.0
C599 C 0.65806 0.49892 0.44768 0.0
C600 C 0.67278 0.52422 0.43548 0.0
C601 C 0.66771 0.53135 0.40387 0.0
C602 C 0.64818 0.51389 0.38482 0.0
C603 C 0.63396 0.48925 0.39761 0.0
C604 C 0.63866 0.48169 0.42828 0.0
C605 C 0.61963 0.45452 0.43645 0.0
C606 C 0.64343 0.43038 0.44594 0.0
C607 C 0.5937 0.4602 0.46196 0.0
C608 C 0.60322 0.44817 0.40564 0.0
C609 C 0.61196 0.46847 0.38357 0.0
C610 C 0.59895 0.46798 0.35373 0.0
C611 C 0.57606 0.44644 0.34634 0.0
C612 C 0.56639 0.42555 0.36861 0.0
C613 C 0.58061 0.42624 0.39853 0.0
H614 H 0.67611 0.5241 0.97231 0.0
H615 H 0.68438 0.45671 0.90359 0.0
H616 H 0.64866 0.48434 0.86833 0.0
H617 H 0.59077 0.53694 0.96056 0.0
H618 H 0.59348 0.57509 0.96639 0.0
H619 H 0.62273 0.55163 0.98498 0.0
H620 H 0.67139 0.58005 0.95991 0.0
H621 H 0.64224 0.60359 0.94117 0.0
H622 H 0.67271 0.58478 0.9184 0.0
H623 H 0.60922 0.51731 0.84194 0.0
H624 H 0.56743 0.55287 0.82652 0.0
H625 H 0.58262 0.59821 0.91307 0.0
C626 C 0.67053 0.5151 0.94984 0.0
C627 C 0.6834 0.48821 0.94075 0.0
C628 C 0.67555 0.47748 0.91095 0.0
C629 C 0.65509 0.49296 0.89077 0.0
C630 C 0.64255 0.51914 0.90067 0.0
C631 C 0.64991 0.53015 0.92949 0.0
C632 C 0.63152 0.55794 0.93518 0.0
C633 C 0.60824 0.55522 0.96345 0.0
C634 C 0.65593 0.58308 0.93888 0.0
C635 C 0.61215 0.5605 0.90528 0.0
C636 C 0.61921 0.53804 0.88559 0.0
C637 C 0.60362 0.53509 0.85707 0.0
C638 C 0.57983 0.55541 0.84857 0.0
C639 C 0.57161 0.57836 0.8686 0.0
C640 C 0.58844 0.58107 0.89715 0.0
H641 H 0.40321 0.54685 0.45629 0.0
H642 H 0.32007 0.55593 0.39335 0.0
H643 H 0.33398 0.50945 0.3697 0.0
H644 H 0.45877 0.51664 0.40316 0.0
H645 H 0.47744 0.49219 0.4304 0.0
H646 H 0.45956 0.52514 0.44388 0.0
H647 H 0.4218 0.49667 0.48198 0.0
H648 H 0.43961 0.46358 0.46859 0.0
H649 H 0.39532 0.46866 0.46736 0.0
H650 H 0.35962 0.46419 0.34998 0.0
H651 H 0.39491 0.42301 0.33603 0.0
H652 H 0.4598 0.44204 0.4133 0.0
C653 C 0.38745 0.5388 0.438 0.0
C654 C 0.36053 0.55515 0.42668 0.0
C655 C 0.34106 0.54404 0.40219 0.0
C656 C 0.34859 0.51753 0.38876 0.0
C657 C 0.3755 0.50218 0.40024 0.0
C658 C 0.39452 0.5123 0.42443 0.0
C659 C 0.42304 0.49223 0.43146 0.0
C660 C 0.45668 0.50746 0.42694 0.0
C661 C 0.41973 0.47953 0.4643 0.0
C662 C 0.4175 0.46956 0.40699 0.0
C663 C 0.38985 0.47565 0.38931 0.0
C664 C 0.38101 0.45894 0.36395 0.0
C665 C 0.40122 0.43564 0.35618 0.0
C666 C 0.42984 0.42915 0.37379 0.0
C667 C 0.43766 0.44608 0.39985 0.0
H668 H 0.85551 0.95987 0.90693 0.0
H669 H 0.82423 0.99115 0.99697 0.0
H670 H 0.84826 0.03868 0.98434 0.0
H671 H 0.93157 0.99302 0.9052 0.0
H672 H 0.93149 1.00133 0.86433 0.0
H673 H 0.90803 0.97122 0.87875 0.0
H674 H 0.85447 0.99175 0.85421 0.0
H675 H 0.87787 0.02186 0.83937 0.0
H676 H 0.84179 0.02775 0.86332 0.0
H677 H 0.88129 0.08124 0.96369 0.0
H678 H 0.91918 0.11498 0.93647 0.0
H679 H 0.92729 0.05513 0.86008 0.0
C680 C 0.85261 0.97695 0.92362 0.0
C681 C 0.83778 0.97182 0.95286 0.0
C682 C 0.8356 0.99456 0.97444 0.0
C683 C 0.84902 0.02166 0.96741 0.0
C684 C 0.86428 0.02572 0.93864 0.0
C685 C 0.8658 0.00401 0.91698 0.0
C686 C 0.88563 0.01299 0.88871 0.0
C687 C 0.91597 0.99348 0.884 0.0
C688 C 0.86362 0.01363 0.85969 0.0
C689 C 0.8959 0.04284 0.89816 0.0
C690 C 0.88316 0.05002 0.92687 0.0
C691 C 0.89102 0.07599 0.941 0.0
C692 C 0.91263 0.09498 0.92542 0.0
C693 C 0.92626 0.08774 0.89614 0.0
C694 C 0.91725 0.06147 0.88234 0.0
H695 H 0.17214 0.99488 0.47174 0.0
H696 H 0.17258 0.062 0.40173 0.0
H697 H 0.13798 0.03178 0.36786 0.0
H698 H 0.17336 0.93356 0.41751 0.0
H699 H 0.14573 0.91228 0.4413 0.0
H700 H 0.17316 0.93798 0.45902 0.0
H701 H 0.12284 0.96217 0.48561 0.0
H702 H 0.0953 0.93663 0.46796 0.0
H703 H 0.0887 0.97446 0.46223 0.0
H704 H 0.10072 0.99625 0.34314 0.0
H705 H 0.06186 0.95778 0.32905 0.0
H706 H 0.0845 0.91295 0.41488 0.0
C707 C 0.16551 0.00291 0.449 0.0
C708 C 0.17514 0.03076 0.43927 0.0
C709 C 0.16536 0.0408 0.40967 0.0
C710 C 0.14588 0.02373 0.39021 0.0
C711 C 0.13635 0.99661 0.40065 0.0
C712 C 0.14583 0.98615 0.4293 0.0
C713 C 0.13037 0.95693 0.43557 0.0
C714 C 0.15726 0.93382 0.43852 0.0
C715 C 0.10797 0.95761 0.46455 0.0
C716 C 0.11018 0.95294 0.40627 0.0
C717 C 0.11436 0.976 0.38637 0.0
C718 C 0.09743 0.97797 0.35841 0.0
C719 C 0.07529 0.95598 0.35067 0.0
C720 C 0.07002 0.93228 0.37083 0.0
C721 C 0.08816 0.93061 0.39883 0.0
H722 H 0.14077 0.99609 0.96617 0.0
H723 H 0.17141 0.95019 0.88367 0.0
H724 H 0.13873 0.98367 0.85134 0.0
H725 H 0.05804 0.01129 0.9421 0.0
H726 H 0.05747 0.04632 0.95948 0.0
H727 H 0.08311 0.01858 0.9757 0.0
H728 H 0.13472 0.05162 0.97016 0.0
H729 H 0.10923 0.07943 0.95381 0.0
H730 H 0.145 0.06677 0.93277 0.0
H731 H 0.10238 0.02303 0.82808 0.0
H732 H 0.06442 0.06328 0.81649 0.0
H733 H 0.05959 0.08319 0.91466 0.0
C734 C 0.14094 0.99317 0.94128 0.0
C735 C 0.15882 0.97053 0.92748 0.0
C736 C 0.15768 0.96718 0.89483 0.0
C737 C 0.13938 0.98623 0.87626 0.0
C738 C 0.12235 0.0085 0.89067 0.0
C739 C 0.12295 0.01193 0.92248 0.0
C740 C 0.10241 0.03733 0.93248 0.0
C741 C 0.07355 0.0278 0.95368 0.0
C742 C 0.12414 0.06013 0.94823 0.0
C743 C 0.09003 0.04769 0.90136 0.0
C744 C 0.10177 0.03091 0.87744 0.0
C745 C 0.0931 0.03633 0.84666 0.0
C746 C 0.07158 0.05927 0.84029 0.0
C747 C 0.05895 0.07646 0.86462 0.0
C748 C 0.06875 0.07059 0.89544 0.0
H749 H 0.88149 0.03416 0.46923 0.0
H750 H 0.8131 0.05206 0.39426 0.0
H751 H 0.83358 0.0096 0.36616 0.0
H752 H 0.94833 0.01391 0.42236 0.0
H753 H 0.96304 0.98593 0.44772 0.0
H754 H 0.94058 0.01577 0.46352 0.0
H755 H 0.89805 0.98086 0.48873 0.0
H756 H 0.92048 0.95085 0.47305 0.0
H757 H 0.87692 0.955 0.4649 0.0
H758 H 0.86433 0.96785 0.34446 0.0
H759 H 0.90381 0.92993 0.33006 0.0
H760 H 0.95253 0.93885 0.41913 0.0
C761 C 0.87029 0.02871 0.44725 0.0
C762 C 0.84558 0.04629 0.43395 0.0
C763 C 0.83212 0.03893 0.40477 0.0
C764 C 0.84346 0.01478 0.38875 0.0
C765 C 0.86823 0.99818 0.40225 0.0
C766 C 0.88146 0.00475 0.43086 0.0
C767 C 0.90948 0.98455 0.43916 0.0
C768 C 0.94229 1.00103 0.44343 0.0
C769 C 0.90069 0.96676 0.46818 0.0
C770 C 0.91042 0.96601 0.41043 0.0
C771 C 0.88618 0.97407 0.38959 0.0
C772 C 0.88318 0.96114 0.36072 0.0
C773 C 0.90582 0.93966 0.35272 0.0
C774 C 0.93127 0.93134 0.37346 0.0
C775 C 0.93315 0.94445 0.4029 0.0
H776 H 0.38188 0.36953 0.11349 0.0
H777 H 0.3197 0.29493 0.13026 0.0
H778 H 0.33396 0.29648 0.18594 0.0
H779 H 0.4459 0.34939 0.16144 0.0
H780 H 0.45547 0.38485 0.17523 0.0
H781 H 0.43673 0.38034 0.13782 0.0
H782 H 0.38853 0.41385 0.15388 0.0
H783 H 0.40724 0.41856 0.19141 0.0
H784 H 0.365 0.40603 0.18858 0.0
H785 H 0.36 0.30288 0.2383 0.0
H786 H 0.39618 0.31321 0.28295 0.0
H787 H 0.44065 0.38413 0.23192 0.0
C788 C 0.37041 0.35408 0.12904 0.0
C789 C 0.34948 0.33223 0.11761 0.0
C790 C 0.33585 0.31181 0.13854 0.0
C791 C 0.34363 0.31265 0.17021 0.0
C792 C 0.36491 0.33414 0.1806 0.0
C793 C 0.37797 0.35458 0.16064 0.0
C794 C 0.40252 0.37384 0.17702 0.0
C795 C 0.43719 0.37197 0.16198 0.0
C796 C 0.39006 0.40491 0.17777 0.0
C797 C 0.40205 0.36049 0.20907 0.0
C798 C 0.37991 0.33784 0.2108 0.0
C799 C 0.37701 0.32087 0.23738 0.0
C800 C 0.39773 0.32687 0.26261 0.0
C801 C 0.42115 0.34957 0.26103 0.0
C802 C 0.42265 0.36693 0.2341 0.0
H803 H 0.66137 0.59837 0.64619 0.0
H804 H 0.67171 0.68727 0.61767 0.0
H805 H 0.63744 0.70206 0.66249 0.0
H806 H 0.57687 0.60243 0.67034 0.0
H807 H 0.58189 0.57836 0.70281 0.0
H808 H 0.60834 0.57509 0.66926 0.0
H809 H 0.66019 0.58002 0.70422 0.0
H810 H 0.63386 0.58344 0.73787 0.0
H811 H 0.66424 0.61078 0.72906 0.0
H812 H 0.59963 0.70682 0.70918 0.0
H813 H 0.56174 0.7012 0.75405 0.0
H814 H 0.57688 0.60915 0.75211 0.0
C815 C 0.65636 0.62095 0.6493 0.0
C816 C 0.66922 0.64167 0.62838 0.0
C817 C 0.66243 0.67104 0.63356 0.0
C818 C 0.64289 0.67963 0.65889 0.0
C819 C 0.63051 0.65862 0.67897 0.0
C820 C 0.63708 0.6299 0.67451 0.0
C821 C 0.62038 0.61152 0.69912 0.0
C822 C 0.59538 0.59063 0.6845 0.0
C823 C 0.64621 0.5955 0.71873 0.0
C824 C 0.60298 0.63435 0.7179 0.0
C825 C 0.60917 0.66139 0.70598 0.0
C826 C 0.59481 0.68576 0.71884 0.0
C827 C 0.57329 0.68234 0.74432 0.0
C828 C 0.56637 0.65476 0.75676 0.0
C829 C 0.58185 0.63058 0.74345 0.0
H830 H 0.672 0.41188 0.16042 0.0
H831 H 0.65824 0.33214 0.11077 0.0
H832 H 0.6179 0.31596 0.15056 0.0
H833 H 0.665 0.38207 0.23864 0.0
H834 H 0.6425 0.41243 0.25339 0.0
H835 H 0.67163 0.41713 0.22192 0.0
H836 H 0.6255 0.4401 0.18841 0.0
H837 H 0.59625 0.43543 0.21974 0.0
H838 H 0.58738 0.42067 0.18212 0.0
H839 H 0.57837 0.30888 0.19479 0.0
H840 H 0.54063 0.31183 0.23974 0.0
H841 H 0.57909 0.39667 0.26047 0.0
C842 C 0.66081 0.39086 0.15821 0.0
C843 C 0.66826 0.37318 0.13261 0.0
C844 C 0.65269 0.34604 0.13013 0.0
C845 C 0.62991 0.33663 0.15268 0.0
C846 C 0.62289 0.35465 0.17748 0.0
C847 C 0.63777 0.38122 0.18038 0.0
C848 C 0.62471 0.39689 0.2086 0.0
C849 C 0.65263 0.40245 0.23202 0.0
C850 C 0.60743 0.42493 0.19914 0.0
C851 C 0.6 0.37505 0.22097 0.0
C852 C 0.59956 0.35076 0.20279 0.0
C853 C 0.57853 0.32776 0.20926 0.0
C854 C 0.55716 0.32966 0.23489 0.0
C855 C 0.55677 0.35451 0.25368 0.0
C856 C 0.57873 0.37738 0.24661 0.0
H857 H 0.37981 0.70716 0.6252 0.0
H858 H 0.32859 0.62543 0.61914 0.0
H859 H 0.34387 0.61453 0.67319 0.0
H860 H 0.44771 0.68243 0.66485 0.0
H861 H 0.45316 0.71342 0.6891 0.0
H862 H 0.43352 0.71708 0.65196 0.0
H863 H 0.38197 0.73967 0.67822 0.0
H864 H 0.40154 0.73612 0.71555 0.0
H865 H 0.3611 0.72066 0.7092 0.0
H866 H 0.37265 0.60865 0.72352 0.0
H867 H 0.4109 0.60944 0.76818 0.0
H868 H 0.44188 0.69555 0.74331 0.0
C869 C 0.37124 0.68723 0.63549 0.0
C870 C 0.35283 0.66722 0.61802 0.0
C871 C 0.34218 0.64132 0.63223 0.0
C872 C 0.35082 0.6349 0.66291 0.0
C873 C 0.36974 0.65475 0.67921 0.0
C874 C 0.3795 0.68057 0.66617 0.0
C875 C 0.4021 0.69704 0.68776 0.0
C876 C 0.43613 0.70281 0.6725 0.0
C877 C 0.38569 0.72504 0.69831 0.0
C878 C 0.40476 0.67586 0.71435 0.0
C879 C 0.38564 0.6517 0.70904 0.0
C880 C 0.38696 0.62776 0.72843 0.0
C881 C 0.40875 0.62833 0.75362 0.0
C882 C 0.42855 0.65278 0.75933 0.0
C883 C 0.42603 0.67705 0.7399 0.0
H884 H 0.89396 0.86744 0.11196 0.0
H885 H 0.81788 0.80441 0.13384 0.0
H886 H 0.83477 0.80529 0.18901 0.0
H887 H 0.95598 0.84007 0.1621 0.0
H888 H 0.97154 0.87488 0.17276 0.0
H889 H 0.95236 0.86988 0.13558 0.0
H890 H 0.91085 0.91067 0.14797 0.0
H891 H 0.92986 0.91557 0.18532 0.0
H892 H 0.88594 0.90856 0.18276 0.0
H893 H 0.863 0.81073 0.24109 0.0
H894 H 0.89917 0.82117 0.28591 0.0
H895 H 0.95511 0.88185 0.22954 0.0
C896 C 0.88088 0.85377 0.12835 0.0
C897 C 0.85475 0.83571 0.11867 0.0
C898 C 0.83787 0.81849 0.14086 0.0
C899 C 0.84733 0.81883 0.17218 0.0
C900 C 0.87341 0.83675 0.18088 0.0
C901 C 0.88979 0.85403 0.1596 0.0
C902 C 0.91734 0.87102 0.17465 0.0
C903 C 0.9513 0.8635 0.16042 0.0
C904 C 0.91057 0.90337 0.17255 0.0
C905 C 0.91435 0.86025 0.20768 0.0
C906 C 0.88889 0.8405 0.21088 0.0
C907 C 0.88272 0.82643 0.23894 0.0
C908 C 0.90337 0.83247 0.26423 0.0
C909 C 0.9297 0.85253 0.2613 0.0
C910 C 0.93479 0.86684 0.23272 0.0
H911 H 0.16914 0.15756 0.65903 0.0
H912 H 0.09941 0.12397 0.59188 0.0
H913 H 0.05374 0.13009 0.62938 0.0
H914 H 0.13519 0.12343 0.72378 0.0
H915 H 0.14123 0.15249 0.75055 0.0
H916 H 0.16816 0.14905 0.71738 0.0
H917 H 0.15365 0.20068 0.69998 0.0
H918 H 0.12676 0.20435 0.73325 0.0
H919 H 0.1108 0.2105 0.69482 0.0
H920 H 0.01729 0.1338 0.67503 0.0
H921 H 0.99093 0.13681 0.72654 0.0
H922 H 0.0826 0.16984 0.76508 0.0
C923 C 0.14409 0.15225 0.65204 0.0
C924 C 0.13776 0.14023 0.62258 0.0
C925 C 0.10481 0.13297 0.61441 0.0
C926 C 0.07868 0.13653 0.63548 0.0
C927 C 0.0858 0.14765 0.66459 0.0
C928 C 0.11757 0.15569 0.67291 0.0
C929 C 0.11851 0.16525 0.70654 0.0
C930 C 0.14217 0.14642 0.72568 0.0
C931 C 0.12799 0.19709 0.70877 0.0
C932 C 0.08258 0.16034 0.71599 0.0
C933 C 0.06422 0.15038 0.69123 0.0
C934 C 0.03118 0.14208 0.69446 0.0
C935 C 0.0165 0.14373 0.72382 0.0
C936 C 0.03472 0.15376 0.74959 0.0
C937 C 0.06802 0.16266 0.74555 0.0
H938 H 0.1198 0.84866 0.11443 0.0
H939 H 0.21195 0.87867 0.15486 0.0
H940 H 0.18624 0.87721 0.20679 0.0
H941 H 0.06543 0.88827 0.16265 0.0
H942 H 0.03452 0.86042 0.16626 0.0
H943 H 0.06057 0.8622 0.13228 0.0
H944 H 0.07924 0.80985 0.14194 0.0
H945 H 0.05322 0.80802 0.17601 0.0
H946 H 0.09686 0.80013 0.17887 0.0
H947 H 0.14964 0.87742 0.2532 0.0
H948 H 0.10468 0.87615 0.29238 0.0
H949 H 0.03663 0.84311 0.22358 0.0
C950 C 0.13458 0.85465 0.1343 0.0
C951 C 0.16799 0.86358 0.13063 0.0
C952 C 0.18653 0.87131 0.15716 0.0
C953 C 0.1721 0.87068 0.18675 0.0
C954 C 0.13915 0.86196 0.18957 0.0
C955 C 0.12064 0.85378 0.16419 0.0
C956 C 0.08547 0.84582 0.17381 0.0
C957 C 0.06 0.86535 0.1578 0.0
C958 C 0.07828 0.81406 0.16727 0.0
C959 C 0.08699 0.8515 0.20841 0.0
C960 C 0.11823 0.86087 0.21689 0.0
C961 C 0.12526 0.86957 0.24702 0.0
C962 C 0.09965 0.86883 0.26906 0.0
C963 C 0.0676 0.85904 0.26101 0.0
C964 C 0.06125 0.84993 0.23041 0.0
H965 H 0.85011 0.11386 0.64188 0.0
H966 H 0.80533 0.19818 0.64332 0.0
H967 H 0.82201 0.20382 0.69798 0.0
H968 H 0.83153 0.09445 0.7251 0.0
H969 H 0.8708 0.07647 0.72916 0.0
H970 H 0.8501 0.07695 0.69217 0.0
H971 H 0.90277 0.09888 0.66649 0.0
H972 H 0.92352 0.09846 0.70327 0.0
H973 H 0.92003 0.13155 0.68181 0.0
H974 H 0.85307 0.20429 0.74797 0.0
H975 H 0.89331 0.19814 0.79067 0.0
H976 H 0.91549 0.11263 0.75825 0.0
C977 C 0.84309 0.13319 0.65399 0.0
C978 C 0.82632 0.15554 0.63845 0.0
C979 C 0.81771 0.18061 0.65493 0.0
C980 C 0.82715 0.18402 0.68597 0.0
C981 C 0.84467 0.16196 0.70031 0.0
C982 C 0.85211 0.13682 0.685 0.0
C983 C 0.87383 0.11754 0.70458 0.0
C984 C 0.85546 0.0897 0.71327 0.0
C985 C 0.90698 0.11127 0.68805 0.0
C986 C 0.8788 0.13634 0.73268 0.0
C987 C 0.86156 0.1618 0.72991 0.0
C988 C 0.86579 0.18409 0.75095 0.0
C989 C 0.88867 0.18047 0.77506 0.0
C990 C 0.90664 0.15465 0.77808 0.0
C991 C 0.90098 0.1321 0.75711 0.0
loop_
_geom_bond_atom_site_label_1
_geom_bond_atom_site_label_2
_geom_bond_distance
_geom_bond_site_symmetry_2
_ccdc_geom_bond_type
P0 O11 1.490 . S
P0 C14 1.812 1_556 S
P0 C20 1.803 . S
P0 C26 1.819 . S
H1 C15 0.941 . S
H2 C16 0.939 . S
H3 C18 0.940 . S
H4 C19 0.940 . S
H5 C21 0.939 . S
H6 C22 0.942 . S
H7 C24 0.940 1_554 S
H8 C25 0.939 . S
H9 C27 0.941 . S
H10 C31 0.939 . S
O11 P0 1.490 . S
H12 C28 0.939 . S
H13 C30 0.940 . S
C14 P0 1.812 1_554 S
C14 C15 1.389 . S
C14 C19 1.391 . S
C15 H1 0.941 . S
C15 C14 1.389 . S
C15 C16 1.397 . S
C16 H2 0.939 . S
C16 C15 1.397 . S
C16 C17 1.378 . S
C17 C16 1.378 . S
C17 C18 1.378 . S
C18 H3 0.940 . S
C18 C17 1.378 . S
C18 C19 1.396 . S
C19 H4 0.940 . S
C19 C14 1.391 . S
C19 C18 1.396 . S
C20 P0 1.803 . S
C20 C21 1.378 . S
C20 C25 1.400 1_556 S
C21 H5 0.939 . S
C21 C20 1.378 . S
C21 C22 1.361 . S
C22 H6 0.942 . S
C22 C21 1.361 . S
C22 C23 1.369 . S
C23 C22 1.369 . S
C23 C24 1.404 . S
C24 H7 0.940 1_556 S
C24 C23 1.404 . S
C24 C25 1.389 1_556 S
C25 H8 0.939 . S
C25 C20 1.400 1_554 S
C25 C24 1.389 1_554 S
C26 P0 1.819 . S
C26 C27 1.391 . S
C26 C31 1.391 . S
C27 H9 0.941 . S
C27 C26 1.391 . S
C27 C28 1.396 . S
C28 H12 0.939 . S
C28 C27 1.396 . S
C28 C29 1.397 . S
C29 C28 1.397 . S
C29 C30 1.385 . S
C30 H13 0.940 . S
C30 C29 1.385 . S
C30 C31 1.388 . S
C31 H10 0.939 . S
C31 C26 1.391 . S
C31 C30 1.388 . S
P32 O43 1.490 . S
P32 C46 1.812 . S
P32 C52 1.803 . S
P32 C58 1.819 . S
H33 C47 0.941 . S
H34 C48 0.939 . S
H35 C50 0.940 . S
H36 C51 0.940 . S
H37 C53 0.939 . S
H38 C54 0.942 . S
H39 C56 0.940 . S
H40 C57 0.939 . S
H41 C59 0.941 . S
H42 C63 0.939 . S
O43 P32 1.490 . S
H44 C60 0.939 . S
H45 C62 0.940 . S
C46 P32 1.812 . S
C46 C47 1.389 . S
C46 C51 1.391 . S
C47 H33 0.941 . S
C47 C46 1.389 . S
C47 C48 1.397 . S
C48 H34 0.939 . S
C48 C47 1.397 . S
C48 C49 1.378 . S
C49 C48 1.378 . S
C49 C50 1.378 . S
C50 H35 0.940 . S
C50 C49 1.378 . S
C50 C51 1.396 . S
C51 H36 0.940 . S
C51 C46 1.391 . S
C51 C50 1.396 . S
C52 P32 1.803 . S
C52 C53 1.378 . S
C52 C57 1.400 . S
C53 H37 0.939 . S
C53 C52 1.378 . S
C53 C54 1.361 . S
C54 H38 0.942 . S
C54 C53 1.361 . S
C54 C55 1.369 . S
C55 C54 1.369 . S
C55 C56 1.404 . S
C56 H39 0.940 . S
C56 C55 1.404 . S
C56 C57 1.389 . S
C57 H40 0.939 . S
C57 C52 1.400 . S
C57 C56 1.389 . S
C58 P32 1.819 . S
C58 C59 1.391 . S
C58 C63 1.391 . S
C59 H41 0.941 . S
C59 C58 1.391 . S
C59 C60 1.396 . S
C60 H44 0.939 . S
C60 C59 1.396 . S
C60 C61 1.397 . S
C61 C60 1.397 . S
C61 C62 1.385 . S
C62 H45 0.940 . S
C62 C61 1.385 . S
C62 C63 1.388 . S
C63 H42 0.939 . S
C63 C58 1.391 . S
C63 C62 1.388 . S
P64 O75 1.490 . S
P64 C78 1.812 . S
P64 C84 1.803 . S
P64 C90 1.819 1_554 S
H65 C79 0.941 . S
H66 C80 0.939 . S
H67 C82 0.940 . S
H68 C83 0.940 . S
H69 C85 0.939 . S
H70 C86 0.942 . S
H71 C88 0.940 . S
H72 C89 0.928 1_554 S
H73 C91 0.941 . S
H74 C95 0.939 . S
O75 P64 1.490 . S
H76 C92 0.939 . S
H77 C94 0.940 . S
C78 P64 1.812 . S
C78 C79 1.389 . S
C78 C83 1.391 . S
C79 H65 0.941 . S
C79 C78 1.389 . S
C79 C80 1.397 . S
C80 H66 0.939 . S
C80 C79 1.397 . S
C80 C81 1.378 . S
C81 C80 1.378 . S
C81 C82 1.378 . S
C82 H67 0.940 . S
C82 C81 1.378 . S
C82 C83 1.396 . S
C83 H68 0.940 . S
C83 C78 1.391 . S
C83 C82 1.396 . S
C84 P64 1.803 . S
C84 C85 1.378 1_554 S
C84 C89 1.395 1_554 S
C85 H69 0.939 . S
C85 C84 1.378 1_556 S
C85 C86 1.361 . S
C86 H70 0.942 . S
C86 C85 1.361 . S
C86 C87 1.369 . S
C87 C86 1.369 . S
C87 C88 1.404 . S
C88 H71 0.940 . S
C88 C87 1.404 . S
C88 C89 1.406 . S
C89 H72 0.928 1_556 S
C89 C84 1.395 1_556 S
C89 C88 1.406 . S
C90 P64 1.819 1_556 S
C90 C91 1.391 1_556 S
C90 C95 1.391 . S
C91 H73 0.941 . S
C91 C90 1.391 1_554 S
C91 C92 1.396 1_554 S
C92 H76 0.939 . S
C92 C91 1.396 1_556 S
C92 C93 1.397 . S
C93 C92 1.397 . S
C93 C94 1.385 . S
C94 H77 0.940 . S
C94 C93 1.385 . S
C94 C95 1.388 . S
C95 H74 0.939 . S
C95 C90 1.391 . S
C95 C94 1.388 . S
P96 O107 1.490 . S
P96 C110 1.812 . S
P96 C116 1.803 . S
P96 C122 1.819 . S
H97 C111 0.941 . S
H98 C112 0.939 . S
H99 C114 0.940 . S
H100 C115 0.940 . S
H101 C117 0.939 . S
H102 C118 0.942 . S
H103 C120 0.940 . S
H104 C121 0.939 . S
H105 C123 0.941 . S
H106 C127 0.939 . S
O107 P96 1.490 . S
H108 C124 0.939 . S
H109 C126 0.940 . S
C110 P96 1.812 . S
C110 C111 1.389 . S
C110 C115 1.391 . S
C111 H97 0.941 . S
C111 C110 1.389 . S
C111 C112 1.397 . S
C112 H98 0.939 . S
C112 C111 1.397 . S
C112 C113 1.378 . S
C113 C112 1.378 . S
C113 C114 1.378 . S
C114 H99 0.940 . S
C114 C113 1.378 . S
C114 C115 1.396 . S
C115 H100 0.940 . S
C115 C110 1.391 . S
C115 C114 1.396 . S
C116 P96 1.803 . S
C116 C117 1.378 . S
C116 C121 1.400 . S
C117 H101 0.939 . S
C117 C116 1.378 . S
C117 C118 1.361 . S
C118 H102 0.942 . S
C118 C117 1.361 . S
C118 C119 1.369 . S
C119 C118 1.369 . S
C119 C120 1.404 . S
C120 H103 0.940 . S
C120 C119 1.404 . S
C120 C121 1.389 . S
C121 H104 0.939 . S
C121 C116 1.400 . S
C121 C120 1.389 . S
C122 P96 1.819 . S
C122 C123 1.391 . S
C122 C127 1.391 . S
C123 H105 0.941 . S
C123 C122 1.391 . S
C123 C124 1.396 . S
C124 H108 0.939 . S
C124 C123 1.396 . S
C124 C125 1.397 . S
C125 C124 1.397 . S
C125 C126 1.385 . S
C126 H109 0.940 . S
C126 C125 1.385 . S
C126 C127 1.388 . S
C127 H106 0.939 . S
C127 C122 1.391 . S
C127 C126 1.388 . S
P128 O139 1.490 . S
P128 C142 1.812 1_556 S
P128 C148 1.803 . S
P128 C154 1.819 . S
H129 C143 0.941 . S
H130 C144 0.939 . S
H131 C146 0.940 . S
H132 C147 0.940 . S
H133 C149 0.939 . S
H134 C150 0.942 . S
H135 C152 0.940 1_554 S
H136 C153 0.939 . S
H137 C155 0.941 . S
H138 C159 0.939 . S
O139 P128 1.490 . S
H140 C156 0.939 . S
H141 C158 0.940 . S
C142 P128 1.812 1_554 S
C142 C143 1.389 . S
C142 C147 1.391 . S
C143 H129 0.941 . S
C143 C142 1.389 . S
C143 C144 1.397 . S
C144 H130 0.939 . S
C144 C143 1.397 . S
C144 C145 1.378 . S
C145 C144 1.378 . S
C145 C146 1.378 . S
C146 H131 0.940 . S
C146 C145 1.378 . S
C146 C147 1.396 . S
C147 H132 0.940 . S
C147 C142 1.391 . S
C147 C146 1.396 . S
C148 P128 1.803 . S
C148 C149 1.378 . S
C148 C153 1.400 1_556 S
C149 H133 0.939 . S
C149 C148 1.378 . S
C149 C150 1.361 . S
C150 H134 0.942 . S
C150 C149 1.361 . S
C150 C151 1.369 . S
C151 C150 1.369 . S
C151 C152 1.404 . S
C152 H135 0.940 1_556 S
C152 C151 1.404 . S
C152 C153 1.389 1_556 S
C153 H136 0.939 . S
C153 C148 1.400 1_554 S
C153 C152 1.389 1_554 S
C154 P128 1.819 . S
C154 C155 1.391 . S
C154 C159 1.391 . S
C155 H137 0.941 . S
C155 C154 1.391 . S
C155 C156 1.396 . S
C156 H140 0.939 . S
C156 C155 1.396 . S
C156 C157 1.397 . S
C157 C156 1.397 . S
C157 C158 1.385 . S
C158 H141 0.940 . S
C158 C157 1.385 . S
C158 C159 1.388 . S
C159 H138 0.939 . S
C159 C154 1.391 . S
C159 C158 1.388 . S
P160 O171 1.490 . S
P160 C174 1.812 . S
P160 C180 1.803 . S
P160 C186 1.819 . S
H161 C175 0.941 . S
H162 C176 0.939 . S
H163 C178 0.940 . S
H164 C179 0.940 . S
H165 C181 0.939 . S
H166 C182 0.942 . S
H167 C184 0.940 . S
H168 C185 0.939 . S
H169 C187 0.941 . S
H170 C191 0.939 . S
O171 P160 1.490 . S
H172 C188 0.939 . S
H173 C190 0.940 . S
C174 P160 1.812 . S
C174 C175 1.389 . S
C174 C179 1.391 . S
C175 H161 0.941 . S
C175 C174 1.389 . S
C175 C176 1.397 . S
C176 H162 0.939 . S
C176 C175 1.397 . S
C176 C177 1.378 . S
C177 C176 1.378 . S
C177 C178 1.378 . S
C178 H163 0.940 . S
C178 C177 1.378 . S
C178 C179 1.396 . S
C179 H164 0.940 . S
C179 C174 1.391 . S
C179 C178 1.396 . S
C180 P160 1.803 . S
C180 C181 1.378 . S
C180 C185 1.400 . S
C181 H165 0.939 . S
C181 C180 1.378 . S
C181 C182 1.361 . S
C182 H166 0.942 . S
C182 C181 1.361 . S
C182 C183 1.369 . S
C183 C182 1.369 . S
C183 C184 1.404 . S
C184 H167 0.940 . S
C184 C183 1.404 . S
C184 C185 1.389 . S
C185 H168 0.939 . S
C185 C180 1.400 . S
C185 C184 1.389 . S
C186 P160 1.819 . S
C186 C187 1.391 . S
C186 C191 1.391 . S
C187 H169 0.941 . S
C187 C186 1.391 . S
C187 C188 1.396 . S
C188 H172 0.939 . S
C188 C187 1.396 . S
C188 C189 1.397 . S
C189 C188 1.397 . S
C189 C190 1.385 . S
C190 H173 0.940 . S
C190 C189 1.385 . S
C190 C191 1.388 . S
C191 H170 0.939 . S
C191 C186 1.391 . S
C191 C190 1.388 . S
P192 O203 1.490 . S
P192 C206 1.812 . S
P192 C212 1.803 . S
P192 C218 1.819 1_554 S
H193 C207 0.941 . S
H194 C208 0.939 . S
H195 C210 0.940 . S
H196 C211 0.940 . S
H197 C213 0.939 . S
H198 C214 0.942 . S
H199 C216 0.940 . S
H200 C217 0.928 1_554 S
H201 C219 0.941 . S
H202 C223 0.939 . S
O203 P192 1.490 . S
H204 C220 0.923 1_545 S
H205 C222 0.940 . S
C206 P192 1.812 . S
C206 C207 1.389 . S
C206 C211 1.391 . S
C207 H193 0.941 . S
C207 C206 1.389 . S
C207 C208 1.397 . S
C208 H194 0.939 . S
C208 C207 1.397 . S
C208 C209 1.378 . S
C209 C208 1.378 . S
C209 C210 1.378 . S
C210 H195 0.940 . S
C210 C209 1.378 . S
C210 C211 1.396 . S
C211 H196 0.940 . S
C211 C206 1.391 . S
C211 C210 1.396 . S
C212 P192 1.803 . S
C212 C213 1.378 1_554 S
C212 C217 1.395 1_554 S
C213 H197 0.939 . S
C213 C212 1.378 1_556 S
C213 C214 1.361 . S
C214 H198 0.942 . S
C214 C213 1.361 . S
C214 C215 1.369 . S
C215 C214 1.369 . S
C215 C216 1.404 . S
C216 H199 0.940 . S
C216 C215 1.404 . S
C216 C217 1.406 . S
C217 H200 0.928 1_556 S
C217 C212 1.395 1_556 S
C217 C216 1.406 . S
C218 P192 1.819 1_556 S
C218 C219 1.391 1_556 S
C218 C223 1.391 . S
C219 H201 0.941 . S
C219 C218 1.391 1_554 S
C219 C220 1.396 1_554 S
C220 H204 0.923 1_565 S
C220 C219 1.396 1_556 S
C220 C221 1.397 . S
C221 C220 1.397 . S
C221 C222 1.385 . S
C222 H205 0.940 . S
C222 C221 1.385 . S
C222 C223 1.388 . S
C223 H202 0.939 . S
C223 C218 1.391 . S
C223 C222 1.388 . S
P224 O235 1.490 . S
P224 C238 1.812 . S
P224 C244 1.803 . S
P224 C250 1.819 . S
H225 C239 0.941 . S
H226 C240 0.939 . S
H227 C242 0.940 . S
H228 C243 0.940 . S
H229 C245 0.939 . S
H230 C246 0.942 . S
H231 C248 0.940 . S
H232 C249 0.939 . S
H233 C251 0.941 . S
H234 C255 0.939 . S
O235 P224 1.490 . S
H236 C252 0.939 . S
H237 C254 0.940 . S
C238 P224 1.812 . S
C238 C239 1.389 . S
C238 C243 1.391 . S
C239 H225 0.941 . S
C239 C238 1.389 . S
C239 C240 1.397 . S
C240 H226 0.939 . S
C240 C239 1.397 . S
C240 C241 1.378 . S
C241 C240 1.378 . S
C241 C242 1.378 . S
C242 H227 0.940 . S
C242 C241 1.378 . S
C242 C243 1.396 . S
C243 H228 0.940 . S
C243 C238 1.391 . S
C243 C242 1.396 . S
C244 P224 1.803 . S
C244 C245 1.378 . S
C244 C249 1.400 . S
C245 H229 0.939 . S
C245 C244 1.378 . S
C245 C246 1.361 . S
C246 H230 0.942 . S
C246 C245 1.361 . S
C246 C247 1.369 . S
C247 C246 1.369 . S
C247 C248 1.404 . S
C248 H231 0.940 . S
C248 C247 1.404 . S
C248 C249 1.389 . S
C249 H232 0.939 . S
C249 C244 1.400 . S
C249 C248 1.389 . S
C250 P224 1.819 . S
C250 C251 1.391 . S
C250 C255 1.391 . S
C251 H233 0.941 . S
C251 C250 1.391 . S
C251 C252 1.396 . S
C252 H236 0.939 . S
C252 C251 1.396 . S
C252 C253 1.397 . S
C253 C252 1.397 . S
C253 C254 1.385 . S
C254 H237 0.940 . S
C254 C253 1.385 . S
C254 C255 1.388 . S
C255 H234 0.939 . S
C255 C250 1.391 . S
C255 C254 1.388 . S
Fe256 O258 1.918 . S
Fe256 O261 1.997 1_455 S
Fe256 O262 2.002 1_455 S
Fe256 O267 1.976 . S
Fe256 O270 1.996 . S
Fe257 O258 1.918 . S
Fe257 O265 1.997 1_455 S
Fe257 O268 1.996 . S
Fe257 O272 1.976 . S
Fe257 O275 2.002 1_455 S
O258 Fe256 1.918 . S
O258 Fe257 1.918 . S
O258 Fe259 1.918 . S
Fe259 O258 1.918 . S
Fe259 O260 2.002 1_455 S
Fe259 O269 1.976 . S
Fe259 O273 1.996 . S
Fe259 O276 1.997 1_455 S
O260 Fe259 2.002 1_655 S
O260 C277 1.295 . S
O261 Fe256 1.997 1_655 S
O261 C277 1.235 . S
O262 Fe256 2.002 1_655 S
O262 C263 1.295 . S
C263 O262 1.295 . S
C263 O265 1.235 . S
C264 O269 1.287 . S
C264 O270 1.255 . S
O265 Fe257 1.997 1_655 S
O265 C263 1.235 . S
C266 O272 1.287 . S
C266 O273 1.255 . S
O267 Fe256 1.976 . S
O267 C274 1.287 . S
O268 Fe257 1.996 . S
O268 C274 1.255 . S
O269 Fe259 1.976 . S
O269 C264 1.287 . S
O270 Fe256 1.996 . S
O270 C264 1.255 . S
C271 O275 1.295 . S
C271 O276 1.235 . S
O272 Fe257 1.976 . S
O272 C266 1.287 . S
O273 Fe259 1.996 . S
O273 C266 1.255 . S
C274 O267 1.287 . S
C274 O268 1.255 . S
O275 Fe257 2.002 1_655 S
O275 C271 1.295 . S
O276 Fe259 1.997 1_655 S
O276 C271 1.235 . S
C277 O260 1.295 . S
C277 O261 1.235 . S
Fe278 O280 1.919 . S
Fe278 O283 1.978 1_655 S
Fe278 O284 1.984 1_655 S
Fe278 O289 1.994 . S
Fe278 O292 2.014 . S
Fe279 O280 1.919 . S
Fe279 O287 1.979 1_655 S
Fe279 O290 2.013 . S
Fe279 O294 1.994 . S
Fe279 O297 1.984 1_655 S
O280 Fe278 1.919 . S
O280 Fe279 1.919 . S
O280 Fe281 1.919 . S
Fe281 O280 1.919 . S
Fe281 O282 1.984 1_655 S
Fe281 O291 1.994 . S
Fe281 O295 2.013 . S
Fe281 O298 1.979 1_655 S
O282 Fe281 1.984 1_455 S
O282 C299 1.295 . S
O283 Fe278 1.978 1_455 S
O283 C299 1.235 . S
O284 Fe278 1.984 1_455 S
O284 C285 1.295 . S
C285 O284 1.295 . S
C285 O287 1.235 . S
C286 O291 1.287 . S
C286 O292 1.255 . S
O287 Fe279 1.979 1_455 S
O287 C285 1.235 . S
C288 O294 1.287 . S
C288 O295 1.255 . S
O289 Fe278 1.994 . S
O289 C296 1.287 . S
O290 Fe279 2.013 . S
O290 C296 1.255 . S
O291 Fe281 1.994 . S
O291 C286 1.287 . S
O292 Fe278 2.014 . S
O292 C286 1.255 . S
C293 O297 1.295 . S
C293 O298 1.235 . S
O294 Fe279 1.994 . S
O294 C288 1.287 . S
O295 Fe281 2.013 . S
O295 C288 1.255 . S
C296 O289 1.287 . S
C296 O290 1.255 . S
O297 Fe279 1.984 1_455 S
O297 C293 1.295 . S
O298 Fe281 1.979 1_455 S
O298 C293 1.235 . S
C299 O282 1.295 . S
C299 O283 1.235 . S
Fe300 O302 1.918 . S
Fe300 O305 1.997 . S
Fe300 O306 2.002 . S
Fe300 O311 1.976 . S
Fe300 O314 1.996 . S
Fe301 O302 1.918 . S
Fe301 O309 1.997 . S
Fe301 O312 1.996 . S
Fe301 O316 1.976 . S
Fe301 O319 2.002 . S
O302 Fe300 1.918 . S
O302 Fe301 1.918 . S
O302 Fe303 1.918 . S
Fe303 O302 1.918 . S
Fe303 O304 2.002 . S
Fe303 O313 1.976 . S
Fe303 O317 1.996 . S
Fe303 O320 1.997 . S
O304 Fe303 2.002 . S
O304 C321 1.295 . S
O305 Fe300 1.997 . S
O305 C321 1.235 . S
O306 Fe300 2.002 . S
O306 C307 1.295 . S
C307 O306 1.295 . S
C307 O309 1.235 . S
C308 O313 1.287 . S
C308 O314 1.255 . S
O309 Fe301 1.997 . S
O309 C307 1.235 . S
C310 O316 1.287 . S
C310 O317 1.255 . S
O311 Fe300 1.976 . S
O311 C318 1.287 . S
O312 Fe301 1.996 . S
O312 C318 1.255 . S
O313 Fe303 1.976 . S
O313 C308 1.287 . S
O314 Fe300 1.996 . S
O314 C308 1.255 . S
C315 O319 1.295 . S
C315 O320 1.235 . S
O316 Fe301 1.976 . S
O316 C310 1.287 . S
O317 Fe303 1.996 . S
O317 C310 1.255 . S
C318 O311 1.287 . S
C318 O312 1.255 . S
O319 Fe301 2.002 . S
O319 C315 1.295 . S
O320 Fe303 1.997 . S
O320 C315 1.235 . S
C321 O304 1.295 . S
C321 O305 1.235 . S
Fe322 O324 1.918 . S
Fe322 O327 1.997 . S
Fe322 O328 2.002 . S
Fe322 O333 1.976 . S
Fe322 O336 1.996 . S
Fe323 O324 1.918 . S
Fe323 O331 1.997 . S
Fe323 O334 1.996 . S
Fe323 O338 1.976 . S
Fe323 O341 2.002 . S
O324 Fe322 1.918 . S
O324 Fe323 1.918 . S
O324 Fe325 1.918 . S
Fe325 O324 1.918 . S
Fe325 O326 2.002 . S
Fe325 O335 1.976 . S
Fe325 O339 1.996 . S
Fe325 O342 1.997 . S
O326 Fe325 2.002 . S
O326 C343 1.295 . S
O327 Fe322 1.997 . S
O327 C343 1.235 . S
O328 Fe322 2.002 . S
O328 C329 1.295 . S
C329 O328 1.295 . S
C329 O331 1.235 . S
C330 O335 1.287 . S
C330 O336 1.255 . S
O331 Fe323 1.997 . S
O331 C329 1.235 . S
C332 O338 1.287 . S
C332 O339 1.255 . S
O333 Fe322 1.976 . S
O333 C340 1.287 . S
O334 Fe323 1.996 . S
O334 C340 1.255 . S
O335 Fe325 1.976 . S
O335 C330 1.287 . S
O336 Fe322 1.996 . S
O336 C330 1.255 . S
C337 O341 1.295 . S
C337 O342 1.235 . S
O338 Fe323 1.976 . S
O338 C332 1.287 . S
O339 Fe325 1.996 . S
O339 C332 1.255 . S
C340 O333 1.287 . S
C340 O334 1.255 . S
O341 Fe323 2.002 . S
O341 C337 1.295 . S
O342 Fe325 1.997 . S
O342 C337 1.235 . S
C343 O326 1.295 . S
C343 O327 1.235 . S
H344 C356 0.930 . S
H345 C358 0.930 . S
H346 C359 0.930 . S
H347 C363 0.959 . S
H348 C363 0.959 . S
H349 C363 0.961 . S
H350 C364 0.960 . S
H351 C364 0.961 . S
H352 C364 0.959 . S
H353 C367 0.929 . S
H354 C368 0.931 . S
H355 C370 0.930 . S
C356 H344 0.930 . S
C356 C357 1.399 . S
C356 C361 1.399 . S
C357 C356 1.399 . S
C357 C358 1.376 . S
C358 H345 0.930 . S
C358 C357 1.376 . S
C358 C359 1.388 . S
C359 H346 0.930 . S
C359 C358 1.388 . S
C359 C360 1.390 . S
C360 C359 1.390 . S
C360 C361 1.394 . S
C360 C366 1.465 . S
C361 C356 1.399 . S
C361 C360 1.394 . S
C361 C362 1.516 . S
C362 C361 1.516 . S
C362 C363 1.502 . S
C362 C364 1.561 . S
C362 C365 1.526 . S
C363 H347 0.959 . S
C363 H348 0.959 . S
C363 H349 0.961 . S
C363 C362 1.502 . S
C364 H350 0.960 . S
C364 H351 0.961 . S
C364 H352 0.959 . S
C364 C362 1.561 . S
C365 C362 1.526 . S
C365 C366 1.396 . S
C365 C370 1.390 . S
C366 C360 1.465 . S
C366 C365 1.396 . S
C366 C367 1.399 . S
C367 H353 0.929 . S
C367 C366 1.399 . S
C367 C368 1.385 . S
C368 H354 0.931 . S
C368 C367 1.385 . S
C368 C369 1.389 . S
C369 C368 1.389 . S
C369 C370 1.387 . S
C370 H355 0.930 . S
C370 C365 1.390 . S
C370 C369 1.387 . S
H371 C383 0.930 . S
H372 C385 0.930 . S
H373 C386 0.930 . S
H374 C390 0.959 . S
H375 C390 0.959 . S
H376 C390 0.961 . S
H377 C391 0.960 . S
H378 C391 0.961 . S
H379 C391 0.959 . S
H380 C394 0.929 . S
H381 C395 0.931 . S
H382 C397 0.930 . S
C383 H371 0.930 . S
C383 C384 1.399 . S
C383 C388 1.399 . S
C384 C383 1.399 . S
C384 C385 1.376 . S
C385 H372 0.930 . S
C385 C384 1.376 . S
C385 C386 1.388 . S
C386 H373 0.930 . S
C386 C385 1.388 . S
C386 C387 1.390 . S
C387 C386 1.390 . S
C387 C388 1.394 . S
C387 C393 1.465 . S
C388 C383 1.399 . S
C388 C387 1.394 . S
C388 C389 1.516 . S
C389 C388 1.516 . S
C389 C390 1.502 . S
C389 C391 1.561 . S
C389 C392 1.526 . S
C390 H374 0.959 . S
C390 H375 0.959 . S
C390 H376 0.961 . S
C390 C389 1.502 . S
C391 H377 0.960 . S
C391 H378 0.961 . S
C391 H379 0.959 . S
C391 C389 1.561 . S
C392 C389 1.526 . S
C392 C393 1.396 . S
C392 C397 1.390 . S
C393 C387 1.465 . S
C393 C392 1.396 . S
C393 C394 1.399 . S
C394 H380 0.929 . S
C394 C393 1.399 . S
C394 C395 1.385 . S
C395 H381 0.931 . S
C395 C394 1.385 . S
C395 C396 1.389 . S
C396 C395 1.389 . S
C396 C397 1.387 . S
C397 H382 0.930 . S
C397 C392 1.390 . S
C397 C396 1.387 . S
H398 C410 0.930 . S
H399 C412 0.930 . S
H400 C413 0.930 . S
H401 C417 0.959 . S
H402 C417 0.959 . S
H403 C417 0.961 . S
H404 C418 0.960 . S
H405 C418 0.961 . S
H406 C418 0.959 . S
H407 C421 0.929 . S
H408 C422 0.931 . S
H409 C424 0.930 . S
C410 H398 0.930 . S
C410 C411 1.399 . S
C410 C415 1.399 . S
C411 C410 1.399 . S
C411 C412 1.376 . S
C412 H399 0.930 . S
C412 C411 1.376 . S
C412 C413 1.388 . S
C413 H400 0.930 . S
C413 C412 1.388 . S
C413 C414 1.390 . S
C414 C413 1.390 . S
C414 C415 1.394 . S
C414 C420 1.465 . S
C415 C410 1.399 . S
C415 C414 1.394 . S
C415 C416 1.516 . S
C416 C415 1.516 . S
C416 C417 1.502 . S
C416 C418 1.561 . S
C416 C419 1.526 . S
C417 H401 0.959 . S
C417 H402 0.959 . S
C417 H403 0.961 . S
C417 C416 1.502 . S
C418 H404 0.960 . S
C418 H405 0.961 . S
C418 H406 0.959 . S
C418 C416 1.561 . S
C419 C416 1.526 . S
C419 C420 1.396 . S
C419 C424 1.390 . S
C420 C414 1.465 . S
C420 C419 1.396 . S
C420 C421 1.399 . S
C421 H407 0.929 . S
C421 C420 1.399 . S
C421 C422 1.385 . S
C422 H408 0.931 . S
C422 C421 1.385 . S
C422 C423 1.389 . S
C423 C422 1.389 . S
C423 C424 1.387 . S
C424 H409 0.930 . S
C424 C419 1.390 . S
C424 C423 1.387 . S
H425 C437 0.930 . S
H426 C439 0.930 . S
H427 C440 0.930 . S
H428 C444 0.959 . S
H429 C444 0.959 . S
H430 C444 0.961 . S
H431 C445 0.960 . S
H432 C445 0.961 . S
H433 C445 0.959 . S
H434 C448 0.929 . S
H435 C449 0.931 . S
H436 C451 0.930 . S
C437 H425 0.930 . S
C437 C438 1.399 . S
C437 C442 1.399 . S
C438 C437 1.399 . S
C438 C439 1.376 . S
C439 H426 0.930 . S
C439 C438 1.376 . S
C439 C440 1.388 . S
C440 H427 0.930 . S
C440 C439 1.388 . S
C440 C441 1.390 . S
C441 C440 1.390 . S
C441 C442 1.394 . S
C441 C447 1.465 . S
C442 C437 1.399 . S
C442 C441 1.394 . S
C442 C443 1.516 . S
C443 C442 1.516 . S
C443 C444 1.502 . S
C443 C445 1.561 . S
C443 C446 1.526 . S
C444 H428 0.959 . S
C444 H429 0.959 . S
C444 H430 0.961 . S
C444 C443 1.502 . S
C445 H431 0.960 . S
C445 H432 0.961 . S
C445 H433 0.959 . S
C445 C443 1.561 . S
C446 C443 1.526 . S
C446 C447 1.396 . S
C446 C451 1.390 . S
C447 C441 1.465 . S
C447 C446 1.396 . S
C447 C448 1.399 . S
C448 H434 0.929 . S
C448 C447 1.399 . S
C448 C449 1.385 . S
C449 H435 0.931 . S
C449 C448 1.385 . S
C449 C450 1.389 . S
C450 C449 1.389 . S
C450 C451 1.387 . S
C451 H436 0.930 . S
C451 C446 1.390 . S
C451 C450 1.387 . S
H452 C464 0.930 . S
H453 C466 0.930 . S
H454 C467 0.930 . S
H455 C471 0.959 . S
H456 C471 0.959 . S
H457 C471 0.961 . S
H458 C472 0.960 . S
H459 C472 0.961 . S
H460 C472 0.959 . S
H461 C475 0.929 . S
H462 C476 0.931 . S
H463 C478 0.930 . S
C464 H452 0.930 . S
C464 C465 1.399 . S
C464 C469 1.399 . S
C465 C464 1.399 . S
C465 C466 1.376 . S
C466 H453 0.930 . S
C466 C465 1.376 . S
C466 C467 1.388 . S
C467 H454 0.930 . S
C467 C466 1.388 . S
C467 C468 1.390 . S
C468 C467 1.390 . S
C468 C469 1.394 . S
C468 C474 1.465 . S
C469 C464 1.399 . S
C469 C468 1.394 . S
C469 C470 1.516 . S
C470 C469 1.516 . S
C470 C471 1.502 . S
C470 C472 1.561 . S
C470 C473 1.526 . S
C471 H455 0.959 . S
C471 H456 0.959 . S
C471 H457 0.961 . S
C471 C470 1.502 . S
C472 H458 0.960 . S
C472 H459 0.961 . S
C472 H460 0.959 . S
C472 C470 1.561 . S
C473 C470 1.526 . S
C473 C474 1.396 . S
C473 C478 1.390 . S
C474 C468 1.465 . S
C474 C473 1.396 . S
C474 C475 1.399 . S
C475 H461 0.929 . S
C475 C474 1.399 . S
C475 C476 1.385 . S
C476 H462 0.931 . S
C476 C475 1.385 . S
C476 C477 1.389 . S
C477 C476 1.389 . S
C477 C478 1.387 . S
C478 H463 0.930 . S
C478 C473 1.390 . S
C478 C477 1.387 . S
H479 C491 0.930 . S
H480 C493 0.930 . S
H481 C494 0.930 . S
H482 C498 0.959 . S
H483 C498 0.959 . S
H484 C498 0.961 . S
H485 C499 0.960 . S
H486 C499 0.961 . S
H487 C499 0.959 . S
H488 C502 0.929 . S
H489 C503 0.931 . S
H490 C505 0.930 . S
C491 H479 0.930 . S
C491 C492 1.399 . S
C491 C496 1.399 . S
C492 C491 1.399 . S
C492 C493 1.376 . S
C493 H480 0.930 . S
C493 C492 1.376 . S
C493 C494 1.388 . S
C494 H481 0.930 . S
C494 C493 1.388 . S
C494 C495 1.390 . S
C495 C494 1.390 . S
C495 C496 1.394 . S
C495 C501 1.465 . S
C496 C491 1.399 . S
C496 C495 1.394 . S
C496 C497 1.516 . S
C497 C496 1.516 . S
C497 C498 1.502 . S
C497 C499 1.561 . S
C497 C500 1.526 . S
C498 H482 0.959 . S
C498 H483 0.959 . S
C498 H484 0.961 . S
C498 C497 1.502 . S
C499 H485 0.960 . S
C499 H486 0.961 . S
C499 H487 0.959 . S
C499 C497 1.561 . S
C500 C497 1.526 . S
C500 C501 1.396 . S
C500 C505 1.390 . S
C501 C495 1.465 . S
C501 C500 1.396 . S
C501 C502 1.399 . S
C502 H488 0.929 . S
C502 C501 1.399 . S
C502 C503 1.385 . S
C503 H489 0.931 . S
C503 C502 1.385 . S
C503 C504 1.389 . S
C504 C503 1.389 . S
C504 C505 1.387 . S
C505 H490 0.930 . S
C505 C500 1.390 . S
C505 C504 1.387 . S
H506 C518 0.930 . S
H507 C520 0.930 . S
H508 C521 0.930 . S
H509 C525 0.959 . S
H510 C525 0.959 . S
H511 C525 0.961 . S
H512 C526 0.960 . S
H513 C526 0.961 . S
H514 C526 0.959 . S
H515 C529 0.929 . S
H516 C530 0.931 . S
H517 C532 0.930 . S
C518 H506 0.930 . S
C518 C519 1.399 . S
C518 C523 1.399 . S
C519 C518 1.399 . S
C519 C520 1.376 . S
C520 H507 0.930 . S
C520 C519 1.376 . S
C520 C521 1.388 . S
C521 H508 0.930 . S
C521 C520 1.388 . S
C521 C522 1.390 . S
C522 C521 1.390 . S
C522 C523 1.394 . S
C522 C528 1.465 . S
C523 C518 1.399 . S
C523 C522 1.394 . S
C523 C524 1.516 . S
C524 C523 1.516 . S
C524 C525 1.502 . S
C524 C526 1.561 . S
C524 C527 1.526 . S
C525 H509 0.959 . S
C525 H510 0.959 . S
C525 H511 0.961 . S
C525 C524 1.502 . S
C526 H512 0.960 . S
C526 H513 0.961 . S
C526 H514 0.959 . S
C526 C524 1.561 . S
C527 C524 1.526 . S
C527 C528 1.396 . S
C527 C532 1.390 . S
C528 C522 1.465 . S
C528 C527 1.396 . S
C528 C529 1.399 . S
C529 H515 0.929 . S
C529 C528 1.399 . S
C529 C530 1.385 . S
C530 H516 0.931 . S
C530 C529 1.385 . S
C530 C531 1.389 . S
C531 C530 1.389 . S
C531 C532 1.387 . S
C532 H517 0.930 . S
C532 C527 1.390 . S
C532 C531 1.387 . S
H533 C545 0.930 . S
H534 C547 0.930 . S
H535 C548 0.930 . S
H536 C552 0.959 . S
H537 C552 0.959 . S
H538 C552 0.961 . S
H539 C553 0.960 . S
H540 C553 0.961 . S
H541 C553 0.959 . S
H542 C556 0.929 . S
H543 C557 0.931 . S
H544 C559 0.930 . S
C545 H533 0.930 . S
C545 C546 1.399 . S
C545 C550 1.399 . S
C546 C545 1.399 . S
C546 C547 1.376 . S
C547 H534 0.930 . S
C547 C546 1.376 . S
C547 C548 1.388 . S
C548 H535 0.930 . S
C548 C547 1.388 . S
C548 C549 1.390 . S
C549 C548 1.390 . S
C549 C550 1.394 . S
C549 C555 1.465 . S
C550 C545 1.399 . S
C550 C549 1.394 . S
C550 C551 1.516 . S
C551 C550 1.516 . S
C551 C552 1.502 . S
C551 C553 1.561 . S
C551 C554 1.526 . S
C552 H536 0.959 . S
C552 H537 0.959 . S
C552 H538 0.961 . S
C552 C551 1.502 . S
C553 H539 0.960 . S
C553 H540 0.961 . S
C553 H541 0.959 . S
C553 C551 1.561 . S
C554 C551 1.526 . S
C554 C555 1.396 . S
C554 C559 1.390 . S
C555 C549 1.465 . S
C555 C554 1.396 . S
C555 C556 1.399 . S
C556 H542 0.929 . S
C556 C555 1.399 . S
C556 C557 1.385 . S
C557 H543 0.931 . S
C557 C556 1.385 . S
C557 C558 1.389 . S
C558 C557 1.389 . S
C558 C559 1.387 . S
C559 H544 0.930 . S
C559 C554 1.390 . S
C559 C558 1.387 . S
H560 C572 0.930 . S
H561 C574 0.930 . S
H562 C575 0.930 . S
H563 C579 0.959 . S
H564 C579 0.959 . S
H565 C579 0.961 . S
H566 C580 0.960 . S
H567 C580 0.961 . S
H568 C580 0.959 . S
H569 C583 0.929 . S
H570 C584 0.931 . S
H571 C586 0.930 . S
C572 H560 0.930 . S
C572 C573 1.399 . S
C572 C577 1.399 . S
C573 C572 1.399 . S
C573 C574 1.376 . S
C574 H561 0.930 . S
C574 C573 1.376 . S
C574 C575 1.388 . S
C575 H562 0.930 . S
C575 C574 1.388 . S
C575 C576 1.390 . S
C576 C575 1.390 . S
C576 C577 1.394 . S
C576 C582 1.465 . S
C577 C572 1.399 . S
C577 C576 1.394 . S
C577 C578 1.516 . S
C578 C577 1.516 . S
C578 C579 1.502 . S
C578 C580 1.561 . S
C578 C581 1.526 . S
C579 H563 0.959 . S
C579 H564 0.959 . S
C579 H565 0.961 . S
C579 C578 1.502 . S
C580 H566 0.960 . S
C580 H567 0.961 . S
C580 H568 0.959 . S
C580 C578 1.561 . S
C581 C578 1.526 . S
C581 C582 1.396 . S
C581 C586 1.390 . S
C582 C576 1.465 . S
C582 C581 1.396 . S
C582 C583 1.399 . S
C583 H569 0.929 . S
C583 C582 1.399 . S
C583 C584 1.385 . S
C584 H570 0.931 . S
C584 C583 1.385 . S
C584 C585 1.389 . S
C585 C584 1.389 . S
C585 C586 1.387 . S
C586 H571 0.930 . S
C586 C581 1.390 . S
C586 C585 1.387 . S
H587 C599 0.930 . S
H588 C601 0.930 . S
H589 C602 0.930 . S
H590 C606 0.959 . S
H591 C606 0.959 . S
H592 C606 0.961 . S
H593 C607 0.960 . S
H594 C607 0.961 . S
H595 C607 0.959 . S
H596 C610 0.929 . S
H597 C611 0.931 . S
H598 C613 0.930 . S
C599 H587 0.930 . S
C599 C600 1.399 . S
C599 C604 1.399 . S
C600 C599 1.399 . S
C600 C601 1.376 . S
C601 H588 0.930 . S
C601 C600 1.376 . S
C601 C602 1.388 . S
C602 H589 0.930 . S
C602 C601 1.388 . S
C602 C603 1.390 . S
C603 C602 1.390 . S
C603 C604 1.394 . S
C603 C609 1.465 . S
C604 C599 1.399 . S
C604 C603 1.394 . S
C604 C605 1.516 . S
C605 C604 1.516 . S
C605 C606 1.502 . S
C605 C607 1.561 . S
C605 C608 1.526 . S
C606 H590 0.959 . S
C606 H591 0.959 . S
C606 H592 0.961 . S
C606 C605 1.502 . S
C607 H593 0.960 . S
C607 H594 0.961 . S
C607 H595 0.959 . S
C607 C605 1.561 . S
C608 C605 1.526 . S
C608 C609 1.396 . S
C608 C613 1.390 . S
C609 C603 1.465 . S
C609 C608 1.396 . S
C609 C610 1.399 . S
C610 H596 0.929 . S
C610 C609 1.399 . S
C610 C611 1.385 . S
C611 H597 0.931 . S
C611 C610 1.385 . S
C611 C612 1.389 . S
C612 C611 1.389 . S
C612 C613 1.387 . S
C613 H598 0.930 . S
C613 C608 1.390 . S
C613 C612 1.387 . S
H614 C626 0.930 . S
H615 C628 0.930 . S
H616 C629 0.930 . S
H617 C633 0.959 . S
H618 C633 0.959 . S
H619 C633 0.961 . S
H620 C634 0.960 . S
H621 C634 0.961 . S
H622 C634 0.959 . S
H623 C637 0.929 . S
H624 C638 0.931 . S
H625 C640 0.930 . S
C626 H614 0.930 . S
C626 C627 1.399 . S
C626 C631 1.399 . S
C627 C626 1.399 . S
C627 C628 1.376 . S
C628 H615 0.930 . S
C628 C627 1.376 . S
C628 C629 1.388 . S
C629 H616 0.930 . S
C629 C628 1.388 . S
C629 C630 1.390 . S
C630 C629 1.390 . S
C630 C631 1.394 . S
C630 C636 1.465 . S
C631 C626 1.399 . S
C631 C630 1.394 . S
C631 C632 1.516 . S
C632 C631 1.516 . S
C632 C633 1.502 . S
C632 C634 1.561 . S
C632 C635 1.526 . S
C633 H617 0.959 . S
C633 H618 0.959 . S
C633 H619 0.961 . S
C633 C632 1.502 . S
C634 H620 0.960 . S
C634 H621 0.961 . S
C634 H622 0.959 . S
C634 C632 1.561 . S
C635 C632 1.526 . S
C635 C636 1.396 . S
C635 C640 1.390 . S
C636 C630 1.465 . S
C636 C635 1.396 . S
C636 C637 1.399 . S
C637 H623 0.929 . S
C637 C636 1.399 . S
C637 C638 1.385 . S
C638 H624 0.931 . S
C638 C637 1.385 . S
C638 C639 1.389 . S
C639 C638 1.389 . S
C639 C640 1.387 . S
C640 H625 0.930 . S
C640 C635 1.390 . S
C640 C639 1.387 . S
H641 C653 0.930 . S
H642 C655 0.930 . S
H643 C656 0.930 . S
H644 C660 0.959 . S
H645 C660 0.959 . S
H646 C660 0.961 . S
H647 C661 0.960 . S
H648 C661 0.961 . S
H649 C661 0.959 . S
H650 C664 0.929 . S
H651 C665 0.931 . S
H652 C667 0.930 . S
C653 H641 0.930 . S
C653 C654 1.399 . S
C653 C658 1.399 . S
C654 C653 1.399 . S
C654 C655 1.376 . S
C655 H642 0.930 . S
C655 C654 1.376 . S
C655 C656 1.388 . S
C656 H643 0.930 . S
C656 C655 1.388 . S
C656 C657 1.390 . S
C657 C656 1.390 . S
C657 C658 1.394 . S
C657 C663 1.465 . S
C658 C653 1.399 . S
C658 C657 1.394 . S
C658 C659 1.516 . S
C659 C658 1.516 . S
C659 C660 1.502 . S
C659 C661 1.561 . S
C659 C662 1.526 . S
C660 H644 0.959 . S
C660 H645 0.959 . S
C660 H646 0.961 . S
C660 C659 1.502 . S
C661 H647 0.960 . S
C661 H648 0.961 . S
C661 H649 0.959 . S
C661 C659 1.561 . S
C662 C659 1.526 . S
C662 C663 1.396 . S
C662 C667 1.390 . S
C663 C657 1.465 . S
C663 C662 1.396 . S
C663 C664 1.399 . S
C664 H650 0.929 . S
C664 C663 1.399 . S
C664 C665 1.385 . S
C665 H651 0.931 . S
C665 C664 1.385 . S
C665 C666 1.389 . S
C666 C665 1.389 . S
C666 C667 1.387 . S
C667 H652 0.930 . S
C667 C662 1.390 . S
C667 C666 1.387 . S
H668 C680 0.930 . S
H669 C682 0.930 1_565 S
H670 C683 0.930 . S
H671 C687 0.959 . S
H672 C687 0.959 . S
H673 C687 0.961 1_565 S
H674 C688 0.960 . S
H675 C688 0.961 . S
H676 C688 0.959 . S
H677 C691 0.929 . S
H678 C692 0.931 . S
H679 C694 0.930 . S
C680 H668 0.930 . S
C680 C681 1.399 . S
C680 C685 1.399 1_565 S
C681 C680 1.399 . S
C681 C682 1.376 1_565 S
C682 H669 0.930 1_545 S
C682 C681 1.376 1_545 S
C682 C683 1.388 . S
C683 H670 0.930 . S
C683 C682 1.388 . S
C683 C684 1.390 . S
C684 C683 1.390 . S
C684 C685 1.394 . S
C684 C690 1.465 . S
C685 C680 1.399 1_545 S
C685 C684 1.394 . S
C685 C686 1.516 . S
C686 C685 1.516 . S
C686 C687 1.502 . S
C686 C688 1.561 . S
C686 C689 1.526 . S
C687 H671 0.959 . S
C687 H672 0.959 . S
C687 H673 0.961 1_545 S
C687 C686 1.502 . S
C688 H674 0.960 . S
C688 H675 0.961 . S
C688 H676 0.959 . S
C688 C686 1.561 . S
C689 C686 1.526 . S
C689 C690 1.396 . S
C689 C694 1.390 . S
C690 C684 1.465 . S
C690 C689 1.396 . S
C690 C691 1.399 . S
C691 H677 0.929 . S
C691 C690 1.399 . S
C691 C692 1.385 . S
C692 H678 0.931 . S
C692 C691 1.385 . S
C692 C693 1.389 . S
C693 C692 1.389 . S
C693 C694 1.387 . S
C694 H679 0.930 . S
C694 C689 1.390 . S
C694 C693 1.387 . S
H695 C707 0.930 . S
H696 C709 0.930 . S
H697 C710 0.930 . S
H698 C714 0.959 . S
H699 C714 0.959 . S
H700 C714 0.961 . S
H701 C715 0.960 . S
H702 C715 0.961 . S
H703 C715 0.959 . S
H704 C718 0.929 . S
H705 C719 0.931 . S
H706 C721 0.930 . S
C707 H695 0.930 . S
C707 C708 1.399 1_565 S
C707 C712 1.399 . S
C708 C707 1.399 1_545 S
C708 C709 1.376 . S
C709 H696 0.930 . S
C709 C708 1.376 . S
C709 C710 1.388 . S
C710 H697 0.930 . S
C710 C709 1.388 . S
C710 C711 1.390 1_545 S
C711 C710 1.390 1_565 S
C711 C712 1.394 . S
C711 C717 1.465 . S
C712 C707 1.399 . S
C712 C711 1.394 . S
C712 C713 1.516 . S
C713 C712 1.516 . S
C713 C714 1.502 . S
C713 C715 1.561 . S
C713 C716 1.526 . S
C714 H698 0.959 . S
C714 H699 0.959 . S
C714 H700 0.961 . S
C714 C713 1.502 . S
C715 H701 0.960 . S
C715 H702 0.961 . S
C715 H703 0.959 . S
C715 C713 1.561 . S
C716 C713 1.526 . S
C716 C717 1.396 . S
C716 C721 1.390 . S
C717 C711 1.465 . S
C717 C716 1.396 . S
C717 C718 1.399 . S
C718 H704 0.929 . S
C718 C717 1.399 . S
C718 C719 1.385 . S
C719 H705 0.931 . S
C719 C718 1.385 . S
C719 C720 1.389 . S
C720 C719 1.389 . S
C720 C721 1.387 . S
C721 H706 0.930 . S
C721 C716 1.390 . S
C721 C720 1.387 . S
H722 C734 0.930 . S
H723 C736 0.930 . S
H724 C737 0.930 . S
H725 C741 0.959 . S
H726 C741 0.959 . S
H727 C741 0.961 . S
H728 C742 0.960 . S
H729 C742 0.961 . S
H730 C742 0.959 . S
H731 C745 0.929 . S
H732 C746 0.931 . S
H733 C748 0.930 . S
C734 H722 0.930 . S
C734 C735 1.399 1_545 S
C734 C739 1.399 . S
C735 C734 1.399 1_565 S
C735 C736 1.376 . S
C736 H723 0.930 . S
C736 C735 1.376 . S
C736 C737 1.388 1_565 S
C737 H724 0.930 . S
C737 C736 1.388 1_545 S
C737 C738 1.390 . S
C738 C737 1.390 . S
C738 C739 1.394 . S
C738 C744 1.465 . S
C739 C734 1.399 . S
C739 C738 1.394 . S
C739 C740 1.516 . S
C740 C739 1.516 . S
C740 C741 1.502 . S
C740 C742 1.561 . S
C740 C743 1.526 . S
C741 H725 0.959 . S
C741 H726 0.959 . S
C741 H727 0.961 . S
C741 C740 1.502 . S
C742 H728 0.960 . S
C742 H729 0.961 . S
C742 H730 0.959 . S
C742 C740 1.561 . S
C743 C740 1.526 . S
C743 C744 1.396 . S
C743 C748 1.390 . S
C744 C738 1.465 . S
C744 C743 1.396 . S
C744 C745 1.399 . S
C745 H731 0.929 . S
C745 C744 1.399 . S
C745 C746 1.385 . S
C746 H732 0.931 . S
C746 C745 1.385 . S
C746 C747 1.389 . S
C747 C746 1.389 . S
C747 C748 1.387 . S
C748 H733 0.930 . S
C748 C743 1.390 . S
C748 C747 1.387 . S
H749 C761 0.930 . S
H750 C763 0.930 . S
H751 C764 0.930 . S
H752 C768 0.959 . S
H753 C768 0.959 . S
H754 C768 0.961 . S
H755 C769 0.960 . S
H756 C769 0.961 . S
H757 C769 0.959 . S
H758 C772 0.929 . S
H759 C773 0.931 . S
H760 C775 0.930 . S
C761 H749 0.930 . S
C761 C762 1.399 1_565 S
C761 C766 1.399 . S
C762 C761 1.399 1_545 S
C762 C763 1.376 . S
C763 H750 0.930 . S
C763 C762 1.376 . S
C763 C764 1.388 1_545 S
C764 H751 0.930 . S
C764 C763 1.388 1_565 S
C764 C765 1.390 . S
C765 C764 1.390 . S
C765 C766 1.394 . S
C765 C771 1.465 . S
C766 C761 1.399 . S
C766 C765 1.394 . S
C766 C767 1.516 . S
C767 C766 1.516 . S
C767 C768 1.502 . S
C767 C769 1.561 . S
C767 C770 1.526 . S
C768 H752 0.959 . S
C768 H753 0.959 . S
C768 H754 0.961 . S
C768 C767 1.502 . S
C769 H755 0.960 . S
C769 H756 0.961 . S
C769 H757 0.959 . S
C769 C767 1.561 . S
C770 C767 1.526 . S
C770 C771 1.396 . S
C770 C775 1.390 . S
C771 C765 1.465 . S
C771 C770 1.396 . S
C771 C772 1.399 . S
C772 H758 0.929 . S
C772 C771 1.399 . S
C772 C773 1.385 . S
C773 H759 0.931 . S
C773 C772 1.385 . S
C773 C774 1.389 . S
C774 C773 1.389 . S
C774 C775 1.387 . S
C775 H760 0.930 . S
C775 C770 1.390 . S
C775 C774 1.387 . S
H776 C788 0.930 . S
H777 C790 0.930 . S
H778 C791 0.930 . S
H779 C795 0.959 . S
H780 C795 0.959 . S
H781 C795 0.961 . S
H782 C796 0.960 . S
H783 C796 0.961 . S
H784 C796 0.959 . S
H785 C799 0.929 . S
H786 C800 0.931 . S
H787 C802 0.930 . S
C788 H776 0.930 . S
C788 C789 1.399 . S
C788 C793 1.399 . S
C789 C788 1.399 . S
C789 C790 1.376 . S
C790 H777 0.930 . S
C790 C789 1.376 . S
C790 C791 1.388 . S
C791 H778 0.930 . S
C791 C790 1.388 . S
C791 C792 1.390 . S
C792 C791 1.390 . S
C792 C793 1.394 . S
C792 C798 1.465 . S
C793 C788 1.399 . S
C793 C792 1.394 . S
C793 C794 1.516 . S
C794 C793 1.516 . S
C794 C795 1.502 . S
C794 C796 1.561 . S
C794 C797 1.526 . S
C795 H779 0.959 . S
C795 H780 0.959 . S
C795 H781 0.961 . S
C795 C794 1.502 . S
C796 H782 0.960 . S
C796 H783 0.961 . S
C796 H784 0.959 . S
C796 C794 1.561 . S
C797 C794 1.526 . S
C797 C798 1.396 . S
C797 C802 1.390 . S
C798 C792 1.465 . S
C798 C797 1.396 . S
C798 C799 1.399 . S
C799 H785 0.929 . S
C799 C798 1.399 . S
C799 C800 1.385 . S
C800 H786 0.931 . S
C800 C799 1.385 . S
C800 C801 1.389 . S
C801 C800 1.389 . S
C801 C802 1.387 . S
C802 H787 0.930 . S
C802 C797 1.390 . S
C802 C801 1.387 . S
H803 C815 0.930 . S
H804 C817 0.930 . S
H805 C818 0.930 . S
H806 C822 0.959 . S
H807 C822 0.959 . S
H808 C822 0.961 . S
H809 C823 0.960 . S
H810 C823 0.961 . S
H811 C823 0.959 . S
H812 C826 0.929 . S
H813 C827 0.931 . S
H814 C829 0.930 . S
C815 H803 0.930 . S
C815 C816 1.399 . S
C815 C820 1.399 . S
C816 C815 1.399 . S
C816 C817 1.376 . S
C817 H804 0.930 . S
C817 C816 1.376 . S
C817 C818 1.388 . S
C818 H805 0.930 . S
C818 C817 1.388 . S
C818 C819 1.390 . S
C819 C818 1.390 . S
C819 C820 1.394 . S
C819 C825 1.465 . S
C820 C815 1.399 . S
C820 C819 1.394 . S
C820 C821 1.516 . S
C821 C820 1.516 . S
C821 C822 1.502 . S
C821 C823 1.561 . S
C821 C824 1.526 . S
C822 H806 0.959 . S
C822 H807 0.959 . S
C822 H808 0.961 . S
C822 C821 1.502 . S
C823 H809 0.960 . S
C823 H810 0.961 . S
C823 H811 0.959 . S
C823 C821 1.561 . S
C824 C821 1.526 . S
C824 C825 1.396 . S
C824 C829 1.390 . S
C825 C819 1.465 . S
C825 C824 1.396 . S
C825 C826 1.399 . S
C826 H812 0.929 . S
C826 C825 1.399 . S
C826 C827 1.385 . S
C827 H813 0.931 . S
C827 C826 1.385 . S
C827 C828 1.389 . S
C828 C827 1.389 . S
C828 C829 1.387 . S
C829 H814 0.930 . S
C829 C824 1.390 . S
C829 C828 1.387 . S
H830 C842 0.930 . S
H831 C844 0.930 . S
H832 C845 0.930 . S
H833 C849 0.959 . S
H834 C849 0.959 . S
H835 C849 0.961 . S
H836 C850 0.960 . S
H837 C850 0.961 . S
H838 C850 0.959 . S
H839 C853 0.929 . S
H840 C854 0.931 . S
H841 C856 0.930 . S
C842 H830 0.930 . S
C842 C843 1.399 . S
C842 C847 1.399 . S
C843 C842 1.399 . S
C843 C844 1.376 . S
C844 H831 0.930 . S
C844 C843 1.376 . S
C844 C845 1.388 . S
C845 H832 0.930 . S
C845 C844 1.388 . S
C845 C846 1.390 . S
C846 C845 1.390 . S
C846 C847 1.394 . S
C846 C852 1.465 . S
C847 C842 1.399 . S
C847 C846 1.394 . S
C847 C848 1.516 . S
C848 C847 1.516 . S
C848 C849 1.502 . S
C848 C850 1.561 . S
C848 C851 1.526 . S
C849 H833 0.959 . S
C849 H834 0.959 . S
C849 H835 0.961 . S
C849 C848 1.502 . S
C850 H836 0.960 . S
C850 H837 0.961 . S
C850 H838 0.959 . S
C850 C848 1.561 . S
C851 C848 1.526 . S
C851 C852 1.396 . S
C851 C856 1.390 . S
C852 C846 1.465 . S
C852 C851 1.396 . S
C852 C853 1.399 . S
C853 H839 0.929 . S
C853 C852 1.399 . S
C853 C854 1.385 . S
C854 H840 0.931 . S
C854 C853 1.385 . S
C854 C855 1.389 . S
C855 C854 1.389 . S
C855 C856 1.387 . S
C856 H841 0.930 . S
C856 C851 1.390 . S
C856 C855 1.387 . S
H857 C869 0.930 . S
H858 C871 0.930 . S
H859 C872 0.930 . S
H860 C876 0.959 . S
H861 C876 0.959 . S
H862 C876 0.961 . S
H863 C877 0.960 . S
H864 C877 0.961 . S
H865 C877 0.959 . S
H866 C880 0.929 . S
H867 C881 0.931 . S
H868 C883 0.930 . S
C869 H857 0.930 . S
C869 C870 1.399 . S
C869 C874 1.399 . S
C870 C869 1.399 . S
C870 C871 1.376 . S
C871 H858 0.930 . S
C871 C870 1.376 . S
C871 C872 1.388 . S
C872 H859 0.930 . S
C872 C871 1.388 . S
C872 C873 1.390 . S
C873 C872 1.390 . S
C873 C874 1.394 . S
C873 C879 1.465 . S
C874 C869 1.399 . S
C874 C873 1.394 . S
C874 C875 1.516 . S
C875 C874 1.516 . S
C875 C876 1.502 . S
C875 C877 1.561 . S
C875 C878 1.526 . S
C876 H860 0.959 . S
C876 H861 0.959 . S
C876 H862 0.961 . S
C876 C875 1.502 . S
C877 H863 0.960 . S
C877 H864 0.961 . S
C877 H865 0.959 . S
C877 C875 1.561 . S
C878 C875 1.526 . S
C878 C879 1.396 . S
C878 C883 1.390 . S
C879 C873 1.465 . S
C879 C878 1.396 . S
C879 C880 1.399 . S
C880 H866 0.929 . S
C880 C879 1.399 . S
C880 C881 1.385 . S
C881 H867 0.931 . S
C881 C880 1.385 . S
C881 C882 1.389 . S
C882 C881 1.389 . S
C882 C883 1.387 . S
C883 H868 0.930 . S
C883 C878 1.390 . S
C883 C882 1.387 . S
H884 C896 0.930 . S
H885 C898 0.930 . S
H886 C899 0.930 . S
H887 C903 0.959 . S
H888 C903 0.959 . S
H889 C903 0.961 . S
H890 C904 0.960 . S
H891 C904 0.961 . S
H892 C904 0.959 . S
H893 C907 0.929 . S
H894 C908 0.931 . S
H895 C910 0.930 . S
C896 H884 0.930 . S
C896 C897 1.399 . S
C896 C901 1.399 . S
C897 C896 1.399 . S
C897 C898 1.376 . S
C898 H885 0.930 . S
C898 C897 1.376 . S
C898 C899 1.388 . S
C899 H886 0.930 . S
C899 C898 1.388 . S
C899 C900 1.390 . S
C900 C899 1.390 . S
C900 C901 1.394 . S
C900 C906 1.465 . S
C901 C896 1.399 . S
C901 C900 1.394 . S
C901 C902 1.516 . S
C902 C901 1.516 . S
C902 C903 1.502 . S
C902 C904 1.561 . S
C902 C905 1.526 . S
C903 H887 0.959 . S
C903 H888 0.959 . S
C903 H889 0.961 . S
C903 C902 1.502 . S
C904 H890 0.960 . S
C904 H891 0.961 . S
C904 H892 0.959 . S
C904 C902 1.561 . S
C905 C902 1.526 . S
C905 C906 1.396 . S
C905 C910 1.390 . S
C906 C900 1.465 . S
C906 C905 1.396 . S
C906 C907 1.399 . S
C907 H893 0.929 . S
C907 C906 1.399 . S
C907 C908 1.385 . S
C908 H894 0.931 . S
C908 C907 1.385 . S
C908 C909 1.389 . S
C909 C908 1.389 . S
C909 C910 1.387 . S
C910 H895 0.930 . S
C910 C905 1.390 . S
C910 C909 1.387 . S
H911 C923 0.930 . S
H912 C925 0.930 . S
H913 C926 0.930 . S
H914 C930 0.959 . S
H915 C930 0.959 . S
H916 C930 0.961 . S
H917 C931 0.960 . S
H918 C931 0.961 . S
H919 C931 0.959 . S
H920 C934 0.929 . S
H921 C935 0.931 . S
H922 C937 0.930 . S
C923 H911 0.930 . S
C923 C924 1.399 . S
C923 C928 1.399 . S
C924 C923 1.399 . S
C924 C925 1.376 . S
C925 H912 0.930 . S
C925 C924 1.376 . S
C925 C926 1.388 . S
C926 H913 0.930 . S
C926 C925 1.388 . S
C926 C927 1.390 . S
C927 C926 1.390 . S
C927 C928 1.394 . S
C927 C933 1.465 . S
C928 C923 1.399 . S
C928 C927 1.394 . S
C928 C929 1.516 . S
C929 C928 1.516 . S
C929 C930 1.502 . S
C929 C931 1.561 . S
C929 C932 1.526 . S
C930 H914 0.959 . S
C930 H915 0.959 . S
C930 H916 0.961 . S
C930 C929 1.502 . S
C931 H917 0.960 . S
C931 H918 0.961 . S
C931 H919 0.959 . S
C931 C929 1.561 . S
C932 C929 1.526 . S
C932 C933 1.396 . S
C932 C937 1.390 . S
C933 C927 1.465 . S
C933 C932 1.396 . S
C933 C934 1.399 . S
C934 H920 0.929 . S
C934 C933 1.399 . S
C934 C935 1.385 . S
C935 H921 0.931 . S
C935 C934 1.385 . S
C935 C936 1.389 . S
C936 C935 1.389 . S
C936 C937 1.387 . S
C937 H922 0.930 . S
C937 C932 1.390 . S
C937 C936 1.387 . S
H938 C950 0.930 . S
H939 C952 0.930 . S
H940 C953 0.930 . S
H941 C957 0.959 . S
H942 C957 0.959 . S
H943 C957 0.961 . S
H944 C958 0.960 . S
H945 C958 0.961 . S
H946 C958 0.959 . S
H947 C961 0.929 . S
H948 C962 0.931 . S
H949 C964 0.930 . S
C950 H938 0.930 . S
C950 C951 1.399 . S
C950 C955 1.399 . S
C951 C950 1.399 . S
C951 C952 1.376 . S
C952 H939 0.930 . S
C952 C951 1.376 . S
C952 C953 1.388 . S
C953 H940 0.930 . S
C953 C952 1.388 . S
C953 C954 1.390 . S
C954 C953 1.390 . S
C954 C955 1.394 . S
C954 C960 1.465 . S
C955 C950 1.399 . S
C955 C954 1.394 . S
C955 C956 1.516 . S
C956 C955 1.516 . S
C956 C957 1.502 . S
C956 C958 1.561 . S
C956 C959 1.526 . S
C957 H941 0.959 . S
C957 H942 0.959 . S
C957 H943 0.961 . S
C957 C956 1.502 . S
C958 H944 0.960 . S
C958 H945 0.961 . S
C958 H946 0.959 . S
C958 C956 1.561 . S
C959 C956 1.526 . S
C959 C960 1.396 . S
C959 C964 1.390 . S
C960 C954 1.465 . S
C960 C959 1.396 . S
C960 C961 1.399 . S
C961 H947 0.929 . S
C961 C960 1.399 . S
C961 C962 1.385 . S
C962 H948 0.931 . S
C962 C961 1.385 . S
C962 C963 1.389 . S
C963 C962 1.389 . S
C963 C964 1.387 . S
C964 H949 0.930 . S
C964 C959 1.390 . S
C964 C963 1.387 . S
H965 C977 0.930 . S
H966 C979 0.930 . S
H967 C980 0.930 . S
H968 C984 0.959 . S
H969 C984 0.959 . S
H970 C984 0.961 . S
H971 C985 0.960 . S
H972 C985 0.961 . S
H973 C985 0.959 . S
H974 C988 0.929 . S
H975 C989 0.931 . S
H976 C991 0.930 . S
C977 H965 0.930 . S
C977 C978 1.399 . S
C977 C982 1.399 . S
C978 C977 1.399 . S
C978 C979 1.376 . S
C979 H966 0.930 . S
C979 C978 1.376 . S
C979 C980 1.388 . S
C980 H967 0.930 . S
C980 C979 1.388 . S
C980 C981 1.390 . S
C981 C980 1.390 . S
C981 C982 1.394 . S
C981 C987 1.465 . S
C982 C977 1.399 . S
C982 C981 1.394 . S
C982 C983 1.516 . S
C983 C982 1.516 . S
C983 C984 1.502 . S
C983 C985 1.561 . S
C983 C986 1.526 . S
C984 H968 0.959 . S
C984 H969 0.959 . S
C984 H970 0.961 . S
C984 C983 1.502 . S
C985 H971 0.960 . S
C985 H972 0.961 . S
C985 H973 0.959 . S
C985 C983 1.561 . S
C986 C983 1.526 . S
C986 C987 1.396 . S
C986 C991 1.390 . S
C987 C981 1.465 . S
C987 C986 1.396 . S
C987 C988 1.399 . S
C988 H974 0.929 . S
C988 C987 1.399 . S
C988 C989 1.385 . S
C989 H975 0.931 . S
C989 C988 1.385 . S
C989 C990 1.389 . S
C990 C989 1.389 . S
C990 C991 1.387 . S
C991 H976 0.930 . S
C991 C986 1.390 . S
C991 C990 1.387 . S
C357 C23 1.525 . S
C369 C299 1.546 . S
C396 C263 1.511 . S
C384 C55 1.529 . S
C423 C286 1.524 . S
C411 C87 1.538 . S
C450 C274 1.497 . S
C438 C119 1.425 . S
C477 C343 1.552 . S
C465 C151 1.467 . S
C504 C307 1.514 . S
C492 C183 1.506 . S
C519 C215 1.537 . S
C531 C330 1.522 . S
C558 C318 1.488 . S
C546 C247 1.449 . S
C573 C29 1.419 . S
C585 C340 1.525 . S
C612 C310 1.454 . S
C600 C49 1.461 . S
C627 C93 1.563 . S
C639 C329 1.538 . S
C654 C113 1.466 . S
C666 C315 1.499 . S
C693 C296 1.531 . S
C681 C157 1.477 . S
C708 C177 1.458 . S
C720 C266 1.454 . S
C747 C285 1.560 . S
C735 C221 1.559 . S
C774 C271 1.493 . S
C762 C241 1.445 . S
C801 C321 1.515 . S
C789 C17 1.455 . S
C828 C337 1.492 . S
C816 C61 1.517 . S
C843 C81 1.485 . S
C855 C308 1.483 . S
C882 C332 1.468 . S
C870 C125 1.438 . S
C909 C277 1.507 . S
C897 C145 1.488 . S
C924 C189 1.492 . S
C936 C293 1.484 . S
C951 C209 1.474 . S
C963 C264 1.478 . S
C978 C253 1.348 . S
C990 C288 1.476 . S
