# Generated by pormake.
# Topology zzz, (3,6)-cn, num edge types: 1
# Building blocks:
#     Node 0, Type 0, BuildingBlock: KAKCAD_clean_linker_0, # of connection points: 3
#     Node 1, Type 0, BuildingBlock: KAKCAD_clean_linker_0, # of connection points: 3
#     Node 2, Type 0, BuildingBlock: KAKCAD_clean_linker_0, # of connection points: 3
#     Node 3, Type 0, BuildingBlock: KAKCAD_clean_linker_0, # of connection points: 3
#     Node 4, Type 0, BuildingBlock: KAKCAD_clean_linker_0, # of connection points: 3
#     Node 5, Type 0, BuildingBlock: KAKCAD_clean_linker_0, # of connection points: 3
#     Node 6, Type 0, BuildingBlock: KAKCAD_clean_linker_0, # of connection points: 3
#     Node 7, Type 0, BuildingBlock: KAKCAD_clean_linker_0, # of connection points: 3
#     Node 8, Type 1, BuildingBlock: INOVEN_clean_sbu_0, # of connection points: 6
#     Node 9, Type 1, BuildingBlock: INOVEN_clean_sbu_0, # of connection points: 6
#     Node 10, Type 1, BuildingBlock: INOVEN_clean_sbu_0, # of connection points: 6
#     Node 11, Type 1, BuildingBlock: INOVEN_clean_sbu_0, # of connection points: 6
#     Edge 12, Type (0, 1), BuildingBlock: ZUJKAS_clean_linker_0, # of connection points: 2
#     Edge 13, Type (0, 1), BuildingBlock: ZUJKAS_clean_linker_0, # of connection points: 2
#     Edge 14, Type (0, 1), BuildingBlock: ZUJKAS_clean_linker_0, # of connection points: 2
#     Edge 15, Type (0, 1), BuildingBlock: ZUJKAS_clean_linker_0, # of connection points: 2
#     Edge 16, Type (0, 1), BuildingBlock: ZUJKAS_clean_linker_0, # of connection points: 2
#     Edge 17, Type (0, 1), BuildingBlock: ZUJKAS_clean_linker_0, # of connection points: 2
#     Edge 18, Type (0, 1), BuildingBlock: ZUJKAS_clean_linker_0, # of connection points: 2
#     Edge 19, Type (0, 1), BuildingBlock: ZUJKAS_clean_linker_0, # of connection points: 2
#     Edge 20, Type (0, 1), BuildingBlock: ZUJKAS_clean_linker_0, # of connection points: 2
#     Edge 21, Type (0, 1), BuildingBlock: ZUJKAS_clean_linker_0, # of connection points: 2
#     Edge 22, Type (0, 1), BuildingBlock: ZUJKAS_clean_linker_0, # of connection points: 2
#     Edge 23, Type (0, 1), BuildingBlock: ZUJKAS_clean_linker_0, # of connection points: 2
#     Edge 24, Type (0, 1), BuildingBlock: ZUJKAS_clean_linker_0, # of connection points: 2
#     Edge 25, Type (0, 1), BuildingBlock: ZUJKAS_clean_linker_0, # of connection points: 2
#     Edge 26, Type (0, 1), BuildingBlock: ZUJKAS_clean_linker_0, # of connection points: 2
#     Edge 27, Type (0, 1), BuildingBlock: ZUJKAS_clean_linker_0, # of connection points: 2
#     Edge 28, Type (0, 1), BuildingBlock: ZUJKAS_clean_linker_0, # of connection points: 2
#     Edge 29, Type (0, 1), BuildingBlock: ZUJKAS_clean_linker_0, # of connection points: 2
#     Edge 30, Type (0, 1), BuildingBlock: ZUJKAS_clean_linker_0, # of connection points: 2
#     Edge 31, Type (0, 1), BuildingBlock: ZUJKAS_clean_linker_0, # of connection points: 2
#     Edge 32, Type (0, 1), BuildingBlock: ZUJKAS_clean_linker_0, # of connection points: 2
#     Edge 33, Type (0, 1), BuildingBlock: ZUJKAS_clean_linker_0, # of connection points: 2
#     Edge 34, Type (0, 1), BuildingBlock: ZUJKAS_clean_linker_0, # of connection points: 2
#     Edge 35, Type (0, 1), BuildingBlock: ZUJKAS_clean_linker_0, # of connection points: 2
# Relax obj value: 0.395
# Max RMSD: 0.272
# Mean RMSD: 0.249
data_MOF--net-zzz--node1-INOVEN_clean_sbu_0--node2-KAKCAD_clean_linker_0--edge1-ZUJKAS_clean_linker_0
_symmetry_space_group_name_H-M    P1
_symmetry_Int_Tables_number       1
_symmetry_cell_setting            triclinic
loop_
_symmetry_equiv_pos_as_xyz
'x, y, z'
_cell_length_a     74.257154
_cell_length_b     74.339111
_cell_length_c     22.707913
_cell_angle_alpha  89.881785
_cell_angle_beta   89.916355
_cell_angle_gamma 90.49426
loop_
_atom_site_label
_atom_site_type_symbol
_atom_site_fract_x
_atom_site_fract_y
_atom_site_fract_z
_atom_type_partial_charge
C0 C 0.75865 0.54691 0.0379 0.0
C1 C 0.77295 0.5354 0.0243 0.0
C2 C 0.7502 0.54587 0.09285 0.0
C3 C 0.75602 0.5334 0.13528 0.0
C4 C 0.77011 0.52171 0.12128 0.0
C5 C 0.77847 0.52269 0.06639 0.0
C6 C 0.74748 0.5326 0.19414 0.0
C7 C 0.72875 0.53292 0.1993 0.0
C8 C 0.72037 0.53212 0.25454 0.0
C9 C 0.73098 0.53115 0.30603 0.0
C10 C 0.74995 0.53077 0.30113 0.0
C11 C 0.75799 0.53145 0.24518 0.0
C12 C 0.76214 0.5299 0.3527 0.0
C13 C 0.76856 0.54587 0.37826 0.0
C14 C 0.77075 0.51366 0.36621 0.0
C15 C 0.78606 0.51351 0.40228 0.0
C16 C 0.79326 0.52966 0.42494 0.0
C17 C 0.70045 0.53222 0.25459 0.0
C18 C 0.69159 0.54871 0.24834 0.0
C19 C 0.69118 0.51629 0.24012 0.0
C20 C 0.67403 0.51695 0.21464 0.0
C21 C 0.66586 0.53359 0.20273 0.0
C22 C 0.67443 0.54939 0.2229 0.0
C23 C 0.78394 0.54576 0.41408 0.0
H24 H 0.75414 0.55684 0.00634 0.0
H25 H 0.7394 0.5551 0.10268 0.0
H26 H 0.77472 0.51184 0.15291 0.0
H27 H 0.78968 0.51385 0.0577 0.0
H28 H 0.72054 0.53352 0.15985 0.0
H29 H 0.77256 0.53138 0.24153 0.0
H30 H 0.72461 0.5306 0.34895 0.0
H31 H 0.7624 0.55861 0.36738 0.0
H32 H 0.76633 0.50124 0.34571 0.0
H33 H 0.79294 0.50089 0.40906 0.0
H34 H 0.69863 0.56119 0.2579 0.0
H35 H 0.69794 0.50346 0.243 0.0
H36 H 0.78896 0.55841 0.43133 0.0
H37 H 0.66841 0.56241 0.21542 0.0
H38 H 0.66795 0.50451 0.19944 0.0
C39 C 0.03914 0.76633 0.05553 0.0
C40 C 0.05535 0.77565 0.06669 0.0
C41 C 0.03042 0.75682 0.10047 0.0
C42 C 0.03763 0.75659 0.15756 0.0
C43 C 0.05432 0.76494 0.16804 0.0
C44 C 0.06319 0.77425 0.1229 0.0
C45 C 0.0269 0.74909 0.20684 0.0
C46 C 0.01867 0.7322 0.20201 0.0
C47 C 1.0072 0.72569 0.24642 0.0
C48 C 1.00361 0.73643 0.29614 0.0
C49 C 0.01201 0.75347 0.30157 0.0
C50 C 0.02373 0.75951 0.25699 0.0
C51 C 1.00816 0.76597 0.35083 0.0
C52 C 0.99081 0.77296 0.35856 0.0
C53 C 0.02255 0.77367 0.38233 0.0
C54 C 0.01991 0.78878 0.41777 0.0
C55 C 1.00281 0.79666 0.42225 0.0
C56 C 0.99941 0.70752 0.23814 0.0
C57 C 0.98518 0.70516 0.19825 0.0
C58 C 1.00935 0.6925 0.25585 0.0
C59 C 1.00607 0.67565 0.23043 0.0
C60 C 0.99283 0.67354 0.18661 0.0
C61 C 0.98183 0.6883 0.17297 0.0
C62 C 0.98817 0.78821 0.39378 0.0
H63 H 0.03255 0.76729 0.01316 0.0
H64 H 0.01749 0.75057 0.0914 0.0
H65 H 0.06025 0.76472 0.2116 0.0
H66 H 0.07584 0.78095 0.13269 0.0
H67 H 0.02119 0.72403 0.16335 0.0
H68 H 0.02972 0.77284 0.25997 0.0
H69 H 0.9945 0.73161 0.33008 0.0
H70 H 0.97954 0.7674 0.3342 0.0
H71 H 0.03609 0.76863 0.37669 0.0
H72 H 0.03153 0.79495 0.4385 0.0
H73 H 0.97764 0.71667 0.18288 0.0
H74 H 0.02064 0.69411 0.28562 0.0
H75 H 0.97478 0.79379 0.3969 0.0
H76 H 0.97163 0.68723 0.13908 0.0
H77 H 0.01463 0.66451 0.24247 0.0
C78 C 0.76021 1.0065 0.02403 0.0
C79 C 0.75255 0.02334 0.01228 0.0
C80 C 0.76894 1.00342 0.07758 0.0
C81 C 0.76967 0.01699 0.12043 0.0
C82 C 0.76244 0.03392 0.10808 0.0
C83 C 0.75408 0.03713 0.0542 0.0
C84 C 0.77754 0.01343 0.17872 0.0
C85 C 0.79553 1.00847 0.18354 0.0
C86 C 0.8035 1.00605 0.23891 0.0
C87 C 0.79297 1.00803 0.29042 0.0
C88 C 0.77459 0.01269 0.28571 0.0
C89 C 0.76717 0.01554 0.2296 0.0
C90 C 0.76245 0.01447 0.33757 0.0
C91 C 0.75902 0.99978 0.37505 0.0
C92 C 0.75171 0.02986 0.34293 0.0
C93 C 0.73712 0.03015 0.38184 0.0
C94 C 0.7328 0.01502 0.41665 0.0
C95 C 0.82316 1.00294 0.23959 0.0
C96 C 0.82994 0.98755 0.21179 0.0
C97 C 0.83489 0.01743 0.25069 0.0
C98 C 0.85261 0.01723 0.22923 0.0
C99 C 0.8589 1.00251 0.19631 0.0
C100 C 0.84764 0.98729 0.1906 0.0
C101 C 0.74432 1.00004 0.41413 0.0
H102 H 0.75904 0.99566 0.99245 0.0
H103 H 0.77449 0.99026 0.08648 0.0
H104 H 0.763 0.04458 0.14054 0.0
H105 H 0.748 0.05012 0.0465 0.0
H106 H 0.8036 1.00724 0.14389 0.0
H107 H 0.7531 0.01911 0.22529 0.0
H108 H 0.79903 1.00619 0.33336 0.0
H109 H 0.76697 0.98769 0.37148 0.0
H110 H 0.75401 0.04136 0.31439 0.0
H111 H 0.72857 0.04188 0.38179 0.0
H112 H 0.82103 0.97635 0.20165 0.0
H113 H 0.82989 0.02958 0.27102 0.0
H114 H 0.74162 0.98824 0.44089 0.0
H115 H 0.85191 0.97577 0.16524 0.0
H116 H 0.86101 0.02906 0.23523 0.0
C117 C 0.5005 0.74757 0.40077 0.0
C118 C 0.51672 0.73851 0.41177 0.0
C119 C 0.50015 0.76251 0.36325 0.0
C120 C 0.516 0.76884 0.33627 0.0
C121 C 0.53243 0.76073 0.35063 0.0
C122 C 0.5328 0.74573 0.38827 0.0
C123 C 0.51458 0.78019 0.28287 0.0
C124 C 0.51943 0.79859 0.28155 0.0
C125 C 0.51733 0.80853 0.22897 0.0
C126 C 0.51035 0.80006 0.17866 0.0
C127 C 0.50565 0.78183 0.17976 0.0
C128 C 0.50783 0.772 0.23182 0.0
C129 C 0.49818 0.77295 0.12695 0.0
C130 C 0.48317 0.78011 0.09784 0.0
C131 C 0.50543 0.75665 0.10757 0.0
C132 C 0.49743 0.7473 0.06124 0.0
C133 C 0.4819 0.75398 0.03376 0.0
C134 C 0.52185 0.82787 0.22404 0.0
C135 C 0.50899 0.84072 0.2397 0.0
C136 C 0.53668 0.83319 0.18961 0.0
C137 C 0.53802 0.85076 0.16779 0.0
C138 C 0.5244 0.86332 0.17938 0.0
C139 C 0.51026 0.85831 0.21763 0.0
C140 C 0.47498 0.77061 0.05186 0.0
H141 H 0.48792 0.74258 0.41891 0.0
H142 H 0.48729 0.76837 0.35208 0.0
H143 H 0.54476 0.76512 0.32924 0.0
H144 H 0.54551 0.73904 0.39549 0.0
H145 H 0.52465 0.80507 0.32074 0.0
H146 H 0.50401 0.75788 0.23293 0.0
H147 H 0.50865 0.80771 0.13832 0.0
H148 H 0.47733 0.79266 0.11228 0.0
H149 H 0.51707 0.75094 0.12917 0.0
H150 H 0.50291 0.73438 0.04884 0.0
H151 H 0.49725 0.8368 0.2652 0.0
H152 H 0.54653 0.82336 0.17589 0.0
H153 H 0.46302 0.77602 0.03137 0.0
H154 H 0.49967 0.86771 0.22801 0.0
H155 H 0.54899 0.85406 0.1381 0.0
C156 C 0.26303 0.48184 0.29431 0.0
C157 C 0.25004 0.46796 0.29392 0.0
C158 C 0.27329 0.48551 0.24412 0.0
C159 C 0.27068 0.47546 0.19251 0.0
C160 C 0.25874 0.46073 0.19344 0.0
C161 C 0.24861 0.45692 0.24385 0.0
C162 C 0.27897 0.48156 0.1366 0.0
C163 C 0.29712 0.48651 0.13448 0.0
C164 C 0.30466 0.49411 0.08346 0.0
C165 C 0.29368 0.49699 0.03352 0.0
C166 C 0.27536 0.49153 0.03463 0.0
C167 C 0.26827 0.48389 0.08654 0.0
C168 C 0.26283 0.49404 0.98395 0.0
C169 C 0.26057 0.51094 0.95729 0.0
C170 C 0.25092 0.48002 0.96858 0.0
C171 C 0.23631 0.48308 0.93129 0.0
C172 C 0.23322 0.50026 0.90738 0.0
C173 C 0.324 0.49909 0.08611 0.0
C174 C 0.32912 0.51693 0.09792 0.0
C175 C 0.33668 0.48539 0.09414 0.0
C176 C 0.35361 0.48922 0.11818 0.0
C177 C 0.35828 0.50687 0.13503 0.0
C178 C 0.34612 0.5208 0.12196 0.0
C179 C 0.24593 0.51402 0.91938 0.0
H180 H 0.26436 0.49075 0.33175 0.0
H181 H 0.28236 0.497 0.24446 0.0
H182 H 0.25673 0.4526 0.15441 0.0
H183 H 0.23898 0.4459 0.24257 0.0
H184 H 0.30544 0.48467 0.17326 0.0
H185 H 0.25406 0.48048 0.08892 0.0
H186 H 0.29937 0.50305 0.9942 0.0
H187 H 0.26947 0.52204 0.96839 0.0
H188 H 0.25235 0.46679 0.98811 0.0
H189 H 0.2269 0.47211 0.92414 0.0
H190 H 0.31946 0.52768 0.09317 0.0
H191 H 0.33289 0.47148 0.08656 0.0
H192 H 0.2443 0.52735 0.90096 0.0
H193 H 0.34934 0.5346 0.13326 0.0
H194 H 0.36241 0.47807 0.1279 0.0
C195 C 0.96594 0.26475 0.2834 0.0
C196 C 0.97171 0.24751 0.3001 0.0
C197 C 0.97496 0.27423 0.23872 0.0
C198 C 0.98971 0.26651 0.20961 0.0
C199 C 0.99567 0.24948 0.22729 0.0
C200 C 0.98679 0.2401 0.27194 0.0
C201 C 0.99865 0.27576 0.15959 0.0
C202 C 1.00378 0.29385 0.16352 0.0
C203 C 0.01314 0.30232 0.11721 0.0
C204 C 0.01731 0.29251 0.06587 0.0
C205 C 0.01161 0.27444 0.06096 0.0
C206 C 1.00244 0.26624 0.10799 0.0
C207 C 0.01456 0.26345 0.00761 0.0
C208 C 0.99956 0.25803 0.97436 0.0
C209 C 0.03105 0.25474 0.99892 0.0
C210 C 0.03216 0.23998 0.96064 0.0
C211 C 0.01673 0.23362 0.93097 0.0
C212 C 0.0184 0.32139 0.12511 0.0
C213 C 1.00491 0.33433 0.13168 0.0
C214 C 0.03626 0.32602 0.13891 0.0
C215 C 0.04033 0.34296 0.1628 0.0
C216 C 0.0266 0.35555 0.17305 0.0
C217 C 1.00896 0.35126 0.15504 0.0
C218 C 1.00063 0.24332 0.93633 0.0
H219 H 0.95438 0.27079 0.30441 0.0
H220 H 0.97008 0.28734 0.22574 0.0
H221 H 1.00713 0.2433 0.20604 0.0
H222 H 0.9914 0.22673 0.28297 0.0
H223 H 1.00093 0.30129 0.20348 0.0
H224 H 0.99816 0.2523 0.10417 0.0
H225 H 0.0245 0.29895 0.02989 0.0
H226 H 0.98664 0.26439 0.98104 0.0
H227 H 0.04268 0.25843 0.02511 0.0
H228 H 0.04473 0.23276 0.95771 0.0
H229 H 0.99099 0.33092 0.12222 0.0
H230 H 0.04682 0.31613 0.13508 0.0
H231 H 0.98859 0.23896 0.91341 0.0
H232 H 0.99801 0.36048 0.16285 0.0
H233 H 0.05408 0.34591 0.17563 0.0
C234 C 0.26285 0.9938 0.26813 0.0
C235 C 0.28024 1.00036 0.28057 0.0
C236 C 0.25291 1.00104 0.2216 0.0
C237 C 0.26025 0.0149 0.18658 0.0
C238 C 0.2773 0.02194 0.20062 0.0
C239 C 0.28719 0.01474 0.24694 0.0
C240 C 0.25062 0.0215 0.13381 0.0
C241 C 0.23217 0.02508 0.13588 0.0
C242 C 0.2231 0.03152 0.08605 0.0
C243 C 0.23267 0.03446 0.03306 0.0
C244 C 0.25122 0.03053 0.03045 0.0
C245 C 0.25997 0.02413 0.08085 0.0
C246 C 0.26225 0.03277 0.97651 0.0
C247 C 0.26883 0.01739 0.94814 0.0
C248 C 0.27005 0.04956 0.96333 0.0
C249 C 0.28497 0.05078 0.9255 0.0
C250 C 0.29243 0.0352 0.90031 0.0
C251 C 0.20359 0.03486 0.0922 0.0
C252 C 0.19169 0.02012 0.09551 0.0
C253 C 0.19764 0.05182 0.11035 0.0
C254 C 0.18047 0.05377 0.13518 0.0
C255 C 0.16898 0.03874 0.14264 0.0
C256 C 0.17453 0.02205 0.12016 0.0
C257 C 0.28368 0.01859 0.91023 0.0
H258 H 0.25708 0.98283 0.29352 0.0
H259 H 0.2398 0.99534 0.21167 0.0
H260 H 0.28317 0.03281 0.17494 0.0
H261 H 0.30064 0.01997 0.25465 0.0
H262 H 0.22483 0.02311 0.17676 0.0
H263 H 0.2742 0.02103 0.07851 0.0
H264 H 0.22577 0.03943 0.9944 0.0
H265 H 0.26331 1.00424 0.95877 0.0
H266 H 0.26546 0.06154 0.98566 0.0
H267 H 0.2912 0.06382 0.91822 0.0
H268 H 0.19618 1.00682 0.08312 0.0
H269 H 0.20673 0.06329 0.10935 0.0
H270 H 0.28908 1.00628 0.89226 0.0
H271 H 0.16619 0.01014 0.12561 0.0
H272 H 0.17655 0.06687 0.15124 0.0
C273 C 0.4814 0.29169 0.90416 0.0
C274 C 0.49826 0.29734 0.88224 0.0
C275 C 0.48007 0.27701 0.9427 0.0
C276 C 0.49551 0.26746 0.9593 0.0
C277 C 0.51212 0.27214 0.93373 0.0
C278 C 0.5135 0.28698 0.89571 0.0
C279 C 0.49514 0.25639 0.01365 0.0
C280 C 0.49817 0.23768 0.01385 0.0
C281 C 0.49916 0.22837 0.06793 0.0
C282 C 0.49753 0.23786 0.12098 0.0
C283 C 0.49451 0.25642 0.12128 0.0
C284 C 0.49296 0.26546 0.06727 0.0
C285 C 0.49397 0.26651 0.17774 0.0
C286 C 0.4862 0.2589 0.22885 0.0
C287 C 0.5018 0.28376 0.18127 0.0
C288 C 0.50168 0.29324 0.23405 0.0
C289 C 0.49402 0.2856 0.28485 0.0
C290 C 0.50181 0.2087 0.07214 0.0
C291 C 0.48705 0.19701 0.06496 0.0
C292 C 0.51751 0.20221 0.09883 0.0
C293 C 0.51797 0.1848 0.12218 0.0
C294 C 0.50265 0.17354 0.11978 0.0
C295 C 0.48746 0.17957 0.08853 0.0
C296 C 0.4864 0.26831 0.28216 0.0
H297 H 0.46942 0.29943 0.89513 0.0
H298 H 0.46718 0.27389 0.96284 0.0
H299 H 0.52427 0.26523 0.9468 0.0
H300 H 0.52665 0.29089 0.87913 0.0
H301 H 0.49987 0.23053 0.97272 0.0
H302 H 0.49049 0.27981 0.06665 0.0
H303 H 0.49894 0.23067 0.16229 0.0
H304 H 0.47987 0.24573 0.22765 0.0
H305 H 0.50837 0.28987 0.14355 0.0
H306 H 0.5079 0.30647 0.2355 0.0
H307 H 0.47468 0.20184 0.04549 0.0
H308 H 0.52892 0.21113 0.10589 0.0
H309 H 0.48041 0.26223 0.321 0.0
H310 H 0.47553 0.17116 0.08512 0.0
H311 H 0.52984 0.18076 0.14629 0.0
Gd312 Gd 0.02522 0.01213 0.70732 0.0
Gd313 Gd 0.99779 0.02225 0.60736 0.0
C314 C 1.00775 0.98055 0.62309 0.0
C315 C 0.0431 0.99705 0.79095 0.0
C316 C 0.04725 0.97817 0.80385 0.0
C317 C 0.06465 0.97353 0.82187 0.0
C318 C 0.03452 0.96452 0.79278 0.0
C319 C 0.05679 0.94176 0.81538 0.0
C320 C 0.03926 0.94648 0.79843 0.0
C321 C 0.06938 0.95547 0.8278 0.0
C322 C 0.03937 0.0244 0.6051 0.0
C323 C 0.0127 0.05279 0.69947 0.0
C324 C 0.98444 0.03519 0.51201 0.0
C325 C 0.97262 0.05053 0.50153 0.0
C326 C 0.96825 0.06206 0.54814 0.0
C327 C 0.96638 0.05429 0.44475 0.0
C328 C 0.95272 0.08192 0.4803 0.0
C329 C 0.95645 0.06985 0.43419 0.0
C330 C 0.95841 0.07764 0.53764 0.0
C331 C 0.97995 0.01757 0.71156 0.0
O332 O 0.01669 0.9849 0.67162 0.0
O333 O 1.00047 0.99278 0.58826 0.0
O334 O 0.05069 1.00345 0.74323 0.0
O335 O 0.02625 1.00184 0.79653 0.0
O336 O 0.04565 0.02854 0.65671 0.0
O337 O 0.02614 0.01371 0.60999 0.0
O338 O 1.00654 0.04911 0.64591 0.0
O339 O 0.01852 0.0401 0.73558 0.0
O340 O 0.9771 0.02159 0.54035 0.0
O341 O 1.00058 0.03947 0.53123 0.0
O342 O 0.97207 0.02166 0.66249 0.0
O343 O 0.9965 0.01623 0.70123 0.0
H344 H 0.0747 0.98388 0.82998 0.0
H345 H 0.02101 0.96776 0.77859 0.0
H346 H 0.02918 0.93622 0.78954 0.0
H347 H 0.08301 0.95221 0.84072 0.0
H348 H 0.97297 0.0593 0.59236 0.0
H349 H 0.96958 0.04544 0.40841 0.0
H350 H 0.95205 0.07266 0.38968 0.0
H351 H 0.95602 0.08673 0.57398 0.0
Gd352 Gd 0.51789 0.03393 0.70477 0.0
Gd353 Gd 0.50735 1.00799 0.61274 0.0
C354 C 0.54981 0.01775 0.63049 0.0
C355 C 0.527 0.05183 0.79673 0.0
C356 C 0.54542 0.05737 0.81369 0.0
C357 C 0.55536 0.06943 0.77826 0.0
C358 C 0.55428 0.04803 0.85876 0.0
C359 C 0.58305 0.06046 0.82642 0.0
C360 C 0.57292 0.04947 0.86487 0.0
C361 C 0.57399 0.07097 0.78465 0.0
C362 C 0.51637 0.04842 0.59562 0.0
C363 C 0.47534 0.02468 0.68697 0.0
C364 C 0.49946 0.98863 0.52212 0.0
C365 C 0.4825 0.97941 0.5079 0.0
C366 C 0.46925 0.97749 0.55159 0.0
C367 C 0.47878 0.97392 0.45023 0.0
C368 C 0.44814 0.96584 0.47928 0.0
C369 C 0.4617 0.96713 0.43599 0.0
C370 C 0.45224 0.97076 0.53748 0.0
C371 C 0.50924 0.99375 0.7223 0.0
O372 O 0.54552 0.02439 0.68231 0.0
O373 O 0.53714 0.01254 0.59307 0.0
O374 O 0.52034 0.05951 0.74974 0.0
O375 O 0.52397 0.03446 0.79796 0.0
O376 O 0.52862 0.05235 0.63415 0.0
O377 O 0.50508 0.03741 0.61706 0.0
O378 O 0.47949 0.01685 0.63673 0.0
O379 O 0.48801 0.03078 0.72281 0.0
O380 O 0.50803 0.98233 0.56788 0.0
O381 O 0.49858 1.0062 0.52199 0.0
O382 O 0.49666 0.98994 0.68482 0.0
O383 O 0.52045 1.00458 0.69971 0.0
H384 H 0.54897 0.07694 0.74322 0.0
H385 H 0.54696 0.03862 0.8866 0.0
H386 H 0.57947 0.04111 0.89739 0.0
H387 H 0.58137 0.07989 0.75536 0.0
H388 H 0.47184 0.98183 0.5963 0.0
H389 H 0.48886 0.97539 0.41599 0.0
H390 H 0.45897 0.96331 0.39085 0.0
H391 H 0.44205 0.97029 0.57164 0.0
Gd392 Gd 0.49994 0.52412 0.719 0.0
Gd393 Gd 0.52684 0.51497 0.6164 0.0
C394 C 0.51487 0.55566 0.62892 0.0
C395 C 0.48675 0.53731 0.8138 0.0
C396 C 0.47545 0.55326 0.81952 0.0
C397 C 0.47045 0.56263 0.76845 0.0
C398 C 0.47108 0.56021 0.87491 0.0
C399 C 0.45826 0.58666 0.82803 0.0
C400 C 0.46241 0.5768 0.87917 0.0
C401 C 0.46198 0.57922 0.77265 0.0
C402 C 0.48158 0.51998 0.61565 0.0
C403 C 0.50839 0.48283 0.6964 0.0
C404 C 0.54291 0.49901 0.53143 0.0
C405 C 0.54005 0.48038 0.51151 0.0
C406 C 0.55457 0.46844 0.51069 0.0
C407 C 0.52247 0.47359 0.50463 0.0
C408 C 0.53379 0.44302 0.50398 0.0
C409 C 0.51938 0.45513 0.5007 0.0
C410 C 0.55148 0.4499 0.50693 0.0
C411 C 0.54161 0.52586 0.71931 0.0
O412 O 0.50843 0.55131 0.6817 0.0
O413 O 0.52109 0.54348 0.59179 0.0
O414 O 0.47928 0.52365 0.78634 0.0
O415 O 0.50323 0.54083 0.79593 0.0
O416 O 0.4739 0.52342 0.66559 0.0
O417 O 0.49817 0.51878 0.62489 0.0
O418 O 0.51545 0.48788 0.64521 0.0
O419 O 0.50322 0.49464 0.73639 0.0
O420 O 0.54989 0.50035 0.58418 0.0
O421 O 0.5296 0.5102 0.52272 0.0
O422 O 0.54795 0.53027 0.66784 0.0
O423 O 0.52821 0.51547 0.71358 0.0
H424 H 0.47377 0.55744 0.72526 0.0
H425 H 0.47496 0.55317 0.91467 0.0
H426 H 0.45987 0.58237 0.92241 0.0
H427 H 0.45886 0.58652 0.73264 0.0
H428 H 0.56823 0.47338 0.51638 0.0
H429 H 0.51094 0.48242 0.50613 0.0
H430 H 0.50557 0.45036 0.49913 0.0
H431 H 0.5629 0.44095 0.50814 0.0
Gd432 Gd 1.00854 0.50524 0.71976 0.0
Gd433 Gd 0.01909 0.53085 0.61242 0.0
C434 C 0.97726 0.52318 0.63229 0.0
C435 C 0.99143 0.49138 0.80703 0.0
C436 C 0.97249 0.49463 0.82398 0.0
C437 C 0.95858 0.48435 0.79838 0.0
C438 C 0.96799 0.50987 0.85728 0.0
C439 C 0.93657 0.50631 0.82974 0.0
C440 C 0.95022 0.51573 0.85973 0.0
C441 C 0.94079 0.49017 0.80111 0.0
C442 C 0.02137 0.4889 0.62268 0.0
C443 C 0.04958 0.51613 0.70568 0.0
C444 C 0.03481 0.53947 0.51596 0.0
C445 C 0.0527 0.53299 0.4984 0.0
C446 C 0.06631 0.54531 0.48273 0.0
C447 C 0.0573 0.51503 0.50994 0.0
C448 C 0.08893 0.52218 0.49658 0.0
C449 C 0.0752 0.50968 0.50903 0.0
C450 C 0.08433 0.53992 0.48153 0.0
C451 C 0.01123 0.55044 0.71008 0.0
O452 O 0.9817 0.51417 0.68086 0.0
O453 O 0.98939 0.53053 0.59646 0.0
O454 O 0.99366 0.48287 0.75706 0.0
O455 O 1.0026 0.50504 0.81317 0.0
O456 O 0.0243 0.48315 0.67589 0.0
O457 O 0.01113 0.50235 0.6239 0.0
O458 O 0.04551 0.52121 0.65128 0.0
O459 O 0.03709 0.51141 0.74452 0.0
O460 O 0.03507 0.54995 0.56219 0.0
O461 O 0.02184 0.52736 0.51802 0.0
O462 O 0.0152 0.55768 0.6595 0.0
O463 O 0.01141 0.53369 0.7038 0.0
H464 H 0.96154 0.47242 0.77296 0.0
H465 H 0.97831 0.51787 0.87873 0.0
H466 H 0.94723 0.52794 0.8837 0.0
H467 H 0.93053 0.48258 0.77784 0.0
H468 H 0.06312 0.5593 0.47482 0.0
H469 H 0.0472 0.50529 0.52313 0.0
H470 H 0.07833 0.49584 0.51959 0.0
H471 H 0.0947 0.54981 0.47168 0.0
H472 H 0.16454 0.05728 0.24558 0.0
H473 H 0.13888 0.05628 0.31278 0.0
H474 H 0.11024 0.02155 0.19266 0.0
H475 H 0.13594 0.02247 0.12484 0.0
H476 H 0.10277 0.0652 0.30252 0.0
H477 H 0.11053 0.99193 0.34389 0.0
H478 H 0.12744 1.00514 0.30601 0.0
H479 H 0.10735 0.9981 0.26814 0.0
C480 C 0.15267 0.04971 0.23267 0.0
C481 C 0.15239 0.03989 0.17971 0.0
C482 C 0.13801 0.04907 0.27145 0.0
C483 C 0.12274 0.03857 0.25841 0.0
C484 C 0.12204 0.02941 0.20439 0.0
H485 H 0.03246 0.01098 0.49491 0.0
H486 H 0.05066 0.01536 0.40543 0.0
C487 C 0.13674 0.02999 0.16556 0.0
C488 C 0.10799 0.03676 0.30265 0.0
H489 H 0.087 1.00645 0.39373 0.0
C490 C 0.09924 0.05233 0.32218 0.0
C491 C 0.10335 0.01996 0.32834 0.0
C492 C 0.11273 1.00282 0.31103 0.0
C493 C 0.08617 0.0516 0.36705 0.0
C494 C 0.0819 0.03489 0.39383 0.0
C495 C 0.09024 0.01924 0.37309 0.0
C496 C 0.06988 0.03347 0.44621 0.0
C497 C 0.07706 0.06876 0.3855 0.0
C498 C 0.07459 0.04222 0.4988 0.0
C499 C 0.06428 0.03969 0.5498 0.0
C500 C 0.04908 0.02831 0.54942 0.0
C501 C 0.04409 0.01987 0.49646 0.0
C502 C 0.05448 0.02234 0.44539 0.0
H503 H 0.07756 0.07903 0.3499 0.0
H504 H 0.06278 0.06625 0.39775 0.0
H505 H 0.08413 0.07441 0.4244 0.0
H506 H 0.08659 0.05056 0.50096 0.0
H507 H 0.06849 0.04633 0.58998 0.0
H508 H 0.52914 0.14839 0.13773 0.0
H509 H 0.52919 0.12407 0.2106 0.0
H510 H 0.47451 0.1366 0.25826 0.0
H511 H 0.4745 0.16121 0.18695 0.0
H512 H 0.49731 0.13584 0.35331 0.0
H513 H 0.50568 0.07411 0.21977 0.0
H514 H 0.52195 0.09145 0.20361 0.0
H515 H 0.49853 0.09522 0.18833 0.0
C516 C 0.51703 0.14581 0.16311 0.0
C517 C 0.50182 0.15681 0.15632 0.0
C518 C 0.51702 0.13177 0.20441 0.0
C519 C 0.50179 0.12838 0.23962 0.0
C520 C 0.48637 0.13887 0.23134 0.0
H521 H 0.48935 0.04505 0.51362 0.0
H522 H 0.48498 0.06356 0.4248 0.0
C523 C 0.48635 0.15288 0.19007 0.0
C524 C 0.50255 0.11524 0.28912 0.0
H525 H 0.51078 0.07123 0.32348 0.0
C526 C 0.50008 0.12168 0.34664 0.0
C527 C 0.50605 0.09673 0.28051 0.0
C528 C 0.50804 0.08889 0.2197 0.0
C529 C 0.50156 0.11029 0.39574 0.0
C530 C 0.50577 0.09196 0.38731 0.0
C531 C 0.50768 0.08533 0.32981 0.0
C532 C 0.50894 0.07981 0.43818 0.0
C533 C 0.49873 0.11796 0.45649 0.0
C534 C 0.52402 0.08257 0.47424 0.0
C535 C 0.52655 0.07205 0.52455 0.0
C536 C 0.51403 0.05855 0.53997 0.0
C537 C 0.49918 0.0554 0.5029 0.0
C538 C 0.49669 0.06593 0.4522 0.0
H539 H 0.49172 0.1311 0.45496 0.0
H540 H 0.49076 0.10851 0.48432 0.0
H541 H 0.51201 0.12007 0.47789 0.0
H542 H 0.53372 0.09309 0.46388 0.0
H543 H 0.53819 0.07472 0.55198 0.0
H544 H 0.3917 0.49096 0.12793 0.0
H545 H 0.41637 0.49307 0.19916 0.0
H546 H 0.38664 0.53225 0.29838 0.0
H547 H 0.36177 0.52996 0.22862 0.0
H548 H 0.42537 0.53985 0.2844 0.0
H549 H 0.40994 0.47093 0.36793 0.0
H550 H 0.41346 0.47332 0.2899 0.0
H551 H 0.39421 0.48346 0.32371 0.0
C552 C 0.3904 0.50011 0.16471 0.0
C553 C 0.37457 0.51018 0.17246 0.0
C554 C 0.40456 0.50131 0.20534 0.0
C555 C 0.40325 0.51265 0.2545 0.0
C556 C 0.38795 0.52342 0.26074 0.0
H557 H 0.44558 0.5172 0.60073 0.0
H558 H 0.42871 0.51481 0.50879 0.0
C559 C 0.37376 0.52217 0.22038 0.0
C560 C 0.41718 0.51251 0.30162 0.0
H561 H 0.43315 0.48696 0.41523 0.0
C562 C 0.42728 0.52822 0.31252 0.0
C563 C 0.41952 0.49736 0.33864 0.0
C564 C 0.40867 0.48031 0.33003 0.0
C565 C 0.43942 0.52925 0.36002 0.0
C566 C 0.4415 0.51421 0.39758 0.0
C567 C 0.43166 0.49841 0.38601 0.0
C568 C 0.45226 0.51525 0.4527 0.0
C569 C 0.44942 0.54664 0.37141 0.0
C570 C 0.47119 0.51609 0.45183 0.0
C571 C 0.48094 0.51732 0.50473 0.0
C572 C 0.47187 0.51783 0.55908 0.0
C573 C 0.45296 0.51684 0.55957 0.0
C574 C 0.44328 0.51546 0.50705 0.0
H575 H 0.4451 0.5576 0.34138 0.0
H576 H 0.44728 0.55099 0.41763 0.0
H577 H 0.46408 0.54452 0.36524 0.0
H578 H 0.47839 0.51583 0.41033 0.0
H579 H 0.49548 0.51818 0.50306 0.0
H580 H 0.04728 0.35898 0.27217 0.0
H581 H 0.04904 0.38469 0.33889 0.0
H582 H 0.01517 0.41522 0.2223 0.0
H583 H 0.01334 0.38954 0.15509 0.0
H584 H 0.05968 0.42133 0.32758 0.0
H585 H 0.98665 0.41395 0.37728 0.0
H586 H 0.99912 0.39696 0.33839 0.0
H587 H 0.99205 0.41698 0.30076 0.0
C588 C 0.04055 0.3713 0.25987 0.0
C589 C 0.03003 0.37212 0.2084 0.0
C590 C 0.0415 0.38597 0.29831 0.0
C591 C 0.03194 0.40175 0.2862 0.0
C592 C 0.02233 0.40303 0.23317 0.0
H593 H 1.0069 0.49304 0.51296 0.0
H594 H 0.01105 0.47359 0.42712 0.0
C595 C 0.02132 0.38835 0.19476 0.0
C596 C 0.0311 0.41631 0.33091 0.0
H597 H 1.00209 0.43775 0.42365 0.0
C598 C 0.04709 0.42499 0.34845 0.0
C599 C 0.01466 0.42104 0.35825 0.0
C600 C 0.99715 0.41168 0.34324 0.0
C601 C 0.04706 0.43831 0.39243 0.0
C602 C 0.03065 0.44282 0.42032 0.0
C603 C 0.01465 0.43434 0.4021 0.0
C604 C 0.02974 0.45571 0.47025 0.0
C605 C 0.06456 0.44753 0.40828 0.0
C606 C 0.03895 0.45221 0.523 0.0
C607 C 0.03663 0.46334 0.57204 0.0
C608 C 0.02499 0.47812 0.56934 0.0
C609 C 0.01607 0.48183 0.5162 0.0
C610 C 0.01839 0.4707 0.46718 0.0
H611 H 0.07457 0.44659 0.37202 0.0
H612 H 0.06244 0.46195 0.41879 0.0
H613 H 0.07036 0.44091 0.44769 0.0
H614 H 0.04746 0.44052 0.52694 0.0
H615 H 0.04363 0.46013 0.6125 0.0
H616 H 0.88448 0.97652 0.17684 0.0
H617 H 0.9096 0.97774 0.10673 0.0
H618 H 0.89621 0.03252 0.06352 0.0
H619 H 0.8713 0.03144 0.13331 0.0
H620 H 0.90683 0.98203 0.99092 0.0
H621 H 0.94998 0.03693 0.07595 0.0
H622 H 0.93245 0.02654 0.11986 0.0
H623 H 0.92713 0.0441 0.06807 0.0
C624 C 0.88709 0.98893 0.15315 0.0
C625 C 0.87588 1.00391 0.16109 0.0
C626 C 0.90148 0.98962 0.11312 0.0
C627 C 0.90502 1.00531 0.08023 0.0
C628 C 0.89417 0.02043 0.08942 0.0
H629 H 0.94396 0.01719 0.72958 0.0
H630 H 0.92761 0.01292 0.82187 0.0
C631 C 0.87986 0.01978 0.12954 0.0
C632 C 0.91872 1.00535 0.03208 0.0
H633 H 0.95342 0.02994 0.97252 0.0
C634 C 0.91719 0.99235 0.98751 0.0
C635 C 0.93248 0.01863 0.02768 0.0
C636 C 0.93574 0.03221 0.07582 0.0
C637 C 0.92834 0.99282 0.93747 0.0
C638 C 0.94118 1.00688 0.931 0.0
C639 C 0.94341 0.01931 0.97697 0.0
C640 C 0.95147 1.00954 0.87524 0.0
C641 C 0.92612 0.97831 0.89161 0.0
C642 C 0.97041 0.00964 0.87453 0.0
C643 C 0.97985 0.01219 0.82145 0.0
C644 C 0.97049 0.01481 0.76841 0.0
C645 C 0.95158 0.01503 0.7696 0.0
C646 C 0.94219 0.01248 0.82234 0.0
H647 H 0.92028 0.96582 0.91099 0.0
H648 H 0.91677 0.98306 0.85693 0.0
H649 H 0.93919 0.97502 0.87058 0.0
H650 H 0.97787 1.00762 0.91492 0.0
H651 H 0.9944 0.01228 0.82201 0.0
H652 H 0.55236 0.88657 0.15283 0.0
H653 H 0.55163 0.91276 0.08704 0.0
H654 H 0.4946 0.90463 0.06158 0.0
H655 H 0.49519 0.87871 0.1273 0.0
H656 H 0.54325 0.91287 0.97269 0.0
H657 H 0.49604 0.95792 0.08736 0.0
H658 H 0.50597 0.93872 0.12317 0.0
H659 H 0.48636 0.93598 0.0773 0.0
C660 C 0.53961 0.89055 0.13391 0.0
C661 C 0.52381 0.88059 0.14581 0.0
C662 C 0.53921 0.90554 0.09636 0.0
C663 C 0.52301 0.91091 0.06996 0.0
C664 C 0.50718 0.90117 0.08268 0.0
H665 H 0.48587 0.97034 0.77435 0.0
H666 H 0.49069 0.95208 0.8626 0.0
C667 C 0.50754 0.88628 0.1204 0.0
C668 C 0.52281 0.92559 0.02515 0.0
H669 H 0.5001 0.96334 0.98323 0.0
C670 C 0.53406 0.9241 0.97557 0.0
C671 C 0.51085 0.9403 0.02877 0.0
C672 C 0.49927 0.94344 0.08235 0.0
C673 C 0.533 0.93632 0.92837 0.0
C674 C 0.52045 0.9505 0.93091 0.0
C675 C 0.50966 0.9524 0.98126 0.0
C676 C 0.5174 0.96262 0.87982 0.0
C677 C 0.54471 0.9335 0.87487 0.0
C678 C 0.53069 0.9749 0.86085 0.0
C679 C 0.52794 0.98544 0.81039 0.0
C680 C 0.51188 0.98378 0.77806 0.0
C681 C 0.49843 0.97184 0.79816 0.0
C682 C 0.50114 0.96142 0.84865 0.0
H683 H 0.5518 0.92041 0.87624 0.0
H684 H 0.53649 0.93408 0.83409 0.0
H685 H 0.55497 0.94442 0.87235 0.0
H686 H 0.54326 0.97617 0.88468 0.0
H687 H 0.5385 0.9946 0.79604 0.0
H688 H 0.6359 0.51135 0.19807 0.0
H689 H 0.6124 0.51083 0.122 0.0
H690 H 0.63674 0.55719 0.03888 0.0
H691 H 0.66031 0.55768 0.11359 0.0
H692 H 0.58754 0.54113 0.07753 0.0
H693 H 0.63624 0.51462 0.91365 0.0
H694 H 0.6398 0.51279 0.99211 0.0
H695 H 0.64359 0.53388 0.95532 0.0
C696 C 0.63615 0.52154 0.16393 0.0
C697 C 0.65005 0.53456 0.16217 0.0
C698 C 0.62266 0.52127 0.12066 0.0
C699 C 0.62292 0.53389 0.07457 0.0
C700 C 0.63632 0.54729 0.07395 0.0
H701 H 0.57113 0.5471 0.737 0.0
H702 H 0.58946 0.54959 0.82609 0.0
C703 C 0.64972 0.54764 0.11718 0.0
C704 C 0.60996 0.5325 0.02492 0.0
H705 H 0.60767 0.52295 0.87807 0.0
C706 C 0.59186 0.53706 0.03393 0.0
C707 C 0.61566 0.52721 0.96815 0.0
C708 C 0.63484 0.5217 0.95643 0.0
C709 C 0.57941 0.53698 0.98711 0.0
C710 C 0.58516 0.53181 0.93007 0.0
C711 C 0.60323 0.527 0.92157 0.0
C712 C 0.57287 0.53148 0.87811 0.0
C713 C 0.56039 0.54298 0.9988 0.0
C714 C 0.55727 0.52063 0.87758 0.0
C715 C 0.54665 0.51931 0.82667 0.0
C716 C 0.5516 0.52863 0.77507 0.0
C717 C 0.56699 0.53975 0.77604 0.0
C718 C 0.5775 0.54115 0.82695 0.0
H719 H 0.55949 0.55119 0.03953 0.0
H720 H 0.5551 0.55099 0.96137 0.0
H721 H 0.5516 0.53097 1.00466 0.0
H722 H 0.55358 0.51271 0.91588 0.0
H723 H 0.53492 0.51055 0.82712 0.0
H724 H 0.02126 0.65512 0.1413 0.0
H725 H 0.02065 0.63092 0.0691 0.0
H726 H 0.96259 0.63037 0.07397 0.0
H727 H 0.9631 0.65493 0.14599 0.0
H728 H 1.00749 0.59683 0.0648 0.0
H729 H 0.97221 0.63973 0.90154 0.0
H730 H 0.98113 0.6486 0.96941 0.0
H731 H 0.96023 0.63619 0.96935 0.0
C732 C 1.00833 0.64963 0.12809 0.0
C733 C 0.99221 0.65705 0.14937 0.0
C734 C 1.00801 0.63581 0.08647 0.0
C735 C 0.99158 0.62902 0.06508 0.0
C736 C 0.97544 0.63568 0.08862 0.0
H737 H 0.99464 0.53842 0.81101 0.0
H738 H 0.98794 0.55589 0.90013 0.0
C739 C 0.97574 0.64966 0.12999 0.0
C740 C 0.99161 0.61578 0.0159 0.0
H741 H 0.97981 0.61057 0.87148 0.0
C742 C 1.00129 0.59974 0.02266 0.0
C743 C 0.98368 0.61967 0.96067 0.0
C744 C 0.97386 0.63703 0.94936 0.0
C745 C 1.00368 0.58776 0.97542 0.0
C746 C 0.99586 0.59173 0.92012 0.0
C747 C 0.98572 0.60748 0.91393 0.0
C748 C 0.99945 0.58077 0.86659 0.0
C749 C 0.01528 0.57142 0.9844 0.0
C750 C 1.00766 0.58896 0.81753 0.0
C751 C 0.01131 0.57902 0.76685 0.0
C752 C 1.00694 0.56063 0.76409 0.0
C753 C 0.99851 0.55243 0.81271 0.0
C754 C 0.9947 0.56243 0.86353 0.0
H755 H 0.02339 0.57237 0.02538 0.0
H756 H 1.00655 0.55928 0.98776 0.0
H757 H 0.02457 0.56957 0.94657 0.0
H758 H 0.01141 0.60307 0.81864 0.0
H759 H 0.01777 0.58573 0.72995 0.0
H760 H 0.93513 0.24306 0.30844 0.0
H761 H 0.91911 0.21954 0.36355 0.0
H762 H 0.96942 0.20263 0.44 0.0
H763 H 0.98516 0.22659 0.38801 0.0
H764 H 0.92384 0.18659 0.33925 0.0
H765 H 0.93784 0.19178 0.57492 0.0
H766 H 0.94121 0.21073 0.52607 0.0
H767 H 0.95897 0.19465 0.53807 0.0
C768 C 0.94261 0.23483 0.33912 0.0
C769 C 0.96145 0.23646 0.34324 0.0
C770 C 0.93345 0.22134 0.37041 0.0
C771 C 0.94298 0.2093 0.4063 0.0
C772 C 0.96159 0.21193 0.41396 0.0
H773 H 0.96008 0.10415 0.38789 0.0
H774 H 0.95035 0.13491 0.37379 0.0
C775 C 0.97068 0.22548 0.38327 0.0
C776 C 0.93468 0.19204 0.42571 0.0
H777 H 0.93938 0.16047 0.53348 0.0
C778 C 0.92663 0.1811 0.38254 0.0
C779 C 0.93768 0.18482 0.48253 0.0
C780 C 0.94421 0.19628 0.53303 0.0
C781 C 0.92383 0.16267 0.39225 0.0
C782 C 0.92969 0.15496 0.44575 0.0
C783 C 0.93539 0.16627 0.49165 0.0
C784 C 0.93314 0.13542 0.4509 0.0
C785 C 0.91568 0.15148 0.34364 0.0
C786 C 0.92686 0.12542 0.49934 0.0
C787 C 0.9325 0.10768 0.50766 0.0
C788 C 0.94463 0.09973 0.46791 0.0
C789 C 0.95041 0.10965 0.41859 0.0
C790 C 0.9448 0.1273 0.41037 0.0
H791 H 0.90547 0.15932 0.319 0.0
H792 H 0.92637 0.1477 0.31193 0.0
H793 H 0.90922 0.13902 0.36101 0.0
H794 H 0.918 0.13149 0.53145 0.0
H795 H 0.92772 0.10033 0.54593 0.0
H796 H 0.28385 0.96422 0.29968 0.0
H797 H 0.30759 0.94943 0.35558 0.0
H798 H 0.32773 1.00125 0.41173 0.0
H799 H 0.30349 0.01599 0.35893 0.0
H800 H 0.34093 0.95325 0.32438 0.0
H801 H 0.33712 0.9731 0.55704 0.0
H802 H 0.31826 0.97572 0.50767 0.0
H803 H 0.33554 0.99289 0.51236 0.0
C804 C 0.29285 0.97242 0.32605 0.0
C805 C 0.29194 0.99131 0.32425 0.0
C806 C 0.30649 0.96394 0.35774 0.0
C807 C 0.31943 0.97418 0.38814 0.0
C808 C 0.31772 0.99297 0.38981 0.0
H809 H 0.42954 0.97719 0.38307 0.0
H810 H 0.3975 0.97361 0.36383 0.0
C811 C 0.30401 1.00144 0.35869 0.0
C812 C 0.33636 0.96584 0.40864 0.0
H813 H 0.36782 0.96904 0.51739 0.0
C814 C 0.34658 0.95624 0.36733 0.0
C815 C 0.34371 0.96937 0.46492 0.0
C816 C 0.33294 0.97816 0.5131 0.0
C817 C 0.36448 0.95164 0.37872 0.0
C818 C 0.37247 0.95714 0.43222 0.0
C819 C 0.36178 0.96514 0.47581 0.0
C820 C 0.39222 0.95701 0.44051 0.0
C821 C 0.3749 0.94164 0.33225 0.0
C822 C 0.39993 0.94888 0.49012 0.0
C823 C 0.41835 0.9509 0.50125 0.0
C824 C 0.4293 0.96124 0.46322 0.0
C825 C 0.4216 0.96883 0.41255 0.0
C826 C 0.40325 0.96679 0.40149 0.0
H827 H 0.36584 0.93281 0.30596 0.0
H828 H 0.38122 0.95148 0.30157 0.0
H829 H 0.38565 0.93329 0.35202 0.0
H830 H 0.39161 0.94137 0.52093 0.0
H831 H 0.42392 0.94478 0.54043 0.0
H832 H 0.48035 0.31865 0.30305 0.0
H833 H 0.48679 0.33864 0.38558 0.0
H834 H 0.51555 0.29611 0.47321 0.0
H835 H 0.50908 0.27593 0.38984 0.0
H836 H 0.48317 0.33765 0.51486 0.0
H837 H 0.55403 0.33549 0.43222 0.0
H838 H 0.53586 0.32644 0.38845 0.0
H839 H 0.54274 0.31503 0.45427 0.0
C840 C 0.48761 0.31344 0.34069 0.0
C841 C 0.49442 0.29592 0.34015 0.0
C842 C 0.4912 0.32479 0.38791 0.0
C843 C 0.50179 0.31888 0.4351 0.0
C844 C 0.50742 0.3009 0.43697 0.0
H845 H 0.55115 0.41787 0.57169 0.0
H846 H 0.5446 0.38555 0.57834 0.0
C847 C 0.50369 0.28942 0.38962 0.0
C848 C 0.50908 0.33259 0.4757 0.0
H849 H 0.54493 0.36149 0.48098 0.0
C850 C 0.49689 0.34255 0.50951 0.0
C851 C 0.52705 0.33882 0.46932 0.0
C852 C 0.54077 0.32848 0.43415 0.0
C853 C 0.50163 0.35958 0.53117 0.0
C854 C 0.51877 0.36682 0.51743 0.0
C855 C 0.53169 0.35592 0.4906 0.0
C856 C 0.52212 0.38641 0.51806 0.0
C857 C 0.48784 0.3703 0.56459 0.0
C858 C 0.51199 0.39738 0.48059 0.0
C859 C 0.51598 0.41565 0.47531 0.0
C860 C 0.53016 0.42338 0.5077 0.0
C861 C 0.54034 0.41231 0.5453 0.0
C862 C 0.53645 0.39391 0.54996 0.0
H863 H 0.4784 0.36129 0.58892 0.0
H864 H 0.4944 0.37965 0.59628 0.0
H865 H 0.47984 0.37835 0.533 0.0
H866 H 0.50125 0.3917 0.45405 0.0
H867 H 0.50809 0.42364 0.44508 0.0
H868 H 0.21408 0.46232 0.28015 0.0
H869 H 0.19051 0.46753 0.35175 0.0
H870 H 0.23036 0.47774 0.48587 0.0
H871 H 0.25437 0.47239 0.41373 0.0
H872 H 0.18029 0.45467 0.46246 0.0
H873 H 0.20445 0.52594 0.47018 0.0
H874 H 0.2131 0.5103 0.41682 0.0
H875 H 0.21962 0.50852 0.4927 0.0
C876 C 0.21797 0.46501 0.32525 0.0
C877 C 0.23616 0.46711 0.34099 0.0
C878 C 0.20441 0.46808 0.36622 0.0
C879 C 0.2087 0.47335 0.42379 0.0
C880 C 0.2268 0.47401 0.44128 0.0
H881 H 0.10482 0.50278 0.58427 0.0
H882 H 0.13563 0.49124 0.58629 0.0
C883 C 0.24047 0.47096 0.40005 0.0
C884 C 0.19405 0.48024 0.46147 0.0
H885 H 0.17501 0.52008 0.50069 0.0
C886 C 0.17925 0.46888 0.47263 0.0
C887 C 0.19284 0.4988 0.47449 0.0
C888 C 0.20827 0.5117 0.46287 0.0
C889 C 0.16266 0.47585 0.49079 0.0
C890 C 0.16107 0.49462 0.49918 0.0
C891 C 0.17635 0.50571 0.4938 0.0
C892 C 0.14326 0.50327 0.50304 0.0
C893 C 0.14663 0.4633 0.49556 0.0
C894 C 0.13764 0.51442 0.45668 0.0
C895 C 0.12015 0.52108 0.45549 0.0
C896 C 0.10796 0.51662 0.50055 0.0
C897 C 0.11387 0.50613 0.54836 0.0
C898 C 0.13143 0.49957 0.54971 0.0
H899 H 0.14971 0.44952 0.47981 0.0
H900 H 0.14232 0.46232 0.54227 0.0
H901 H 0.13514 0.46855 0.46962 0.0
H902 H 0.1466 0.51741 0.42017 0.0
H903 H 0.11594 0.5291 0.41815 0.0
H904 H 0.06987 0.80885 0.08763 0.0
H905 H 0.07641 0.83238 0.01627 0.0
H906 H 0.06286 0.79633 0.87436 0.0
H907 H 0.05669 0.77226 0.94583 0.0
H908 H 0.09891 0.83532 0.90775 0.0
H909 H 0.02459 0.83778 0.87194 0.0
H910 H 0.03406 0.82608 0.93415 0.0
H911 H 0.03606 0.81679 0.86165 0.0
C912 C 0.0689 0.80559 0.0413 0.0
C913 C 0.06258 0.78865 0.02261 0.0
C914 C 0.07258 0.81914 1.0005 0.0
C915 C 0.06992 0.81611 0.94029 0.0
C916 C 0.06482 0.79892 0.92084 0.0
H917 H 0.04891 0.91426 0.7395 0.0
H918 H 0.05498 0.88218 0.75333 0.0
C919 C 0.06122 0.78525 0.96175 0.0
C920 C 0.07021 0.83171 0.90003 0.0
H921 H 0.04169 0.86243 0.84044 0.0
C922 C 0.08648 0.84108 0.89158 0.0
C923 C 0.05398 0.83907 0.87869 0.0
C924 C 0.03611 0.82953 0.887 0.0
C925 C 0.08678 0.85822 0.86561 0.0
C926 C 0.07034 0.86628 0.8493 0.0
C927 C 0.05427 0.85627 0.85333 0.0
C928 C 0.06901 0.88573 0.83604 0.0
C929 C 0.10464 0.86774 0.85778 0.0
C930 C 0.07491 0.89836 0.87786 0.0
C931 C 0.07143 0.91662 0.87017 0.0
C932 C 0.06177 0.92259 0.82088 0.0
C933 C 0.05623 0.91 0.77827 0.0
C934 C 0.0598 0.89172 0.78585 0.0
H935 H 0.1156 0.85794 0.84998 0.0
H936 H 0.10432 0.87741 0.82045 0.0
H937 H 0.10796 0.87522 0.89865 0.0
H938 H 0.08149 0.89402 0.91792 0.0
H939 H 0.07563 0.92597 0.90412 0.0
H940 H 0.75417 0.05021 0.93 0.0
H941 H 0.72999 0.0586 0.86193 0.0
H942 H 0.6996 0.01156 0.91529 0.0
H943 H 0.72401 1.00274 0.98064 0.0
H944 H 0.69211 0.02052 0.80296 0.0
H945 H 0.68861 0.08098 0.94733 0.0
H946 H 0.70888 0.07864 0.90509 0.0
H947 H 0.70365 0.06272 0.96255 0.0
C948 C 0.74256 0.0414 0.9254 0.0
C949 C 0.74075 0.02598 0.96088 0.0
C950 C 0.72875 0.04623 0.88692 0.0
C951 C 0.71276 0.03603 0.88512 0.0
C952 C 0.71177 0.0197 0.91619 0.0
H953 H 0.60517 0.05883 0.92232 0.0
H954 H 0.63765 0.05464 0.92316 0.0
C955 C 0.72572 0.01466 0.95358 0.0
C956 C 0.69604 0.04341 0.8595 0.0
H957 H 0.6645 0.0756 0.88481 0.0
C958 C 0.68615 0.03274 0.81989 0.0
C959 C 0.68831 0.05935 0.88203 0.0
C960 C 0.69779 0.07105 0.92688 0.0
C961 C 0.66824 0.03682 0.80567 0.0
C962 C 0.66028 0.05227 0.83062 0.0
C963 C 0.67067 0.06372 0.86614 0.0
C964 C 0.64064 0.05544 0.82825 0.0
C965 C 0.65767 0.02386 0.76767 0.0
C966 C 0.63155 0.05754 0.77464 0.0
C967 C 0.61286 0.05958 0.77404 0.0
C968 C 0.60301 0.05985 0.82712 0.0
C969 C 0.61229 0.05841 0.8807 0.0
C970 C 0.63089 0.05615 0.88121 0.0
H971 H 0.66485 0.01096 0.76114 0.0
H972 H 0.6443 0.02089 0.78749 0.0
H973 H 0.65547 0.02999 0.7237 0.0
H974 H 0.63885 0.05739 0.73333 0.0
H975 H 0.60609 0.06042 0.73192 0.0
H976 H 0.446 0.74602 0.03256 0.0
H977 H 0.43146 0.72121 0.97946 0.0
H978 H 0.4812 0.7107 0.88818 0.0
H979 H 0.49578 0.73557 0.94055 0.0
H980 H 0.44533 0.7042 0.82163 0.0
H981 H 0.45289 0.67169 0.04199 0.0
H982 H 0.44139 0.69286 0.03735 0.0
H983 H 0.46512 0.69195 0.02287 0.0
C984 C 0.45363 0.73889 0.99942 0.0
C985 C 0.47208 0.7425 0.99121 0.0
C986 C 0.44531 0.72472 0.96927 0.0
C987 C 0.45535 0.71409 0.93053 0.0
C988 C 0.47326 0.71881 0.91792 0.0
H989 H 0.47219 0.61578 0.77154 0.0
H990 H 0.46569 0.64725 0.79005 0.0
C991 C 0.48159 0.73291 0.94814 0.0
C992 C 0.44863 0.69625 0.91213 0.0
H993 H 0.44604 0.65317 0.9627 0.0
C994 C 0.44505 0.69304 0.85247 0.0
C995 C 0.4482 0.68182 0.95272 0.0
C996 C 0.45215 0.68459 0.01733 0.0
C997 C 0.44183 0.67551 0.83184 0.0
C998 C 0.44282 0.66088 0.87177 0.0
C999 C 0.44525 0.66433 0.932 0.0
C1000 C 0.44406 0.64192 0.85204 0.0
C1001 C 0.43778 0.67286 0.76737 0.0
C1002 C 0.43418 0.62829 0.88095 0.0
C1003 C 0.43825 0.61019 0.87153 0.0
C1004 C 0.45209 0.60546 0.8325 0.0
C1005 C 0.46125 0.61905 0.80119 0.0
C1006 C 0.45741 0.63709 0.81133 0.0
H1007 H 0.4301 0.68442 0.7496 0.0
H1008 H 0.45063 0.67218 0.74246 0.0
H1009 H 0.42995 0.66031 0.75948 0.0
H1010 H 0.42391 0.63168 0.91289 0.0
H1011 H 0.43095 0.59993 0.89598 0.0
H1012 H 0.78453 0.5667 0.97294 0.0
H1013 H 0.8082 0.56973 0.89871 0.0
H1014 H 0.80936 0.51199 0.87985 0.0
H1015 H 0.78526 0.50897 0.95187 0.0
H1016 H 0.83914 0.55687 0.93139 0.0
H1017 H 0.82383 0.52644 0.71695 0.0
H1018 H 0.80627 0.53341 0.76701 0.0
H1019 H 0.81623 0.51144 0.77371 0.0
C1020 C 0.78922 0.55472 0.95083 0.0
C1021 C 0.78335 0.53756 0.96902 0.0
C1022 C 0.80276 0.55648 0.90839 0.0
C1023 C 0.81059 0.54111 0.88363 0.0
C1024 C 0.80336 0.5241 0.89732 0.0
H1025 H 0.90467 0.48815 0.84214 0.0
H1026 H 0.87435 0.50066 0.84006 0.0
C1027 C 0.78978 0.52234 0.93939 0.0
C1028 C 0.82875 0.54221 0.85682 0.0
H1029 H 0.85486 0.52138 0.75429 0.0
C1030 C 0.84256 0.5497 0.89141 0.0
C1031 C 0.83322 0.5329 0.80466 0.0
C1032 C 0.81901 0.52579 0.76327 0.0
C1033 C 0.86068 0.54634 0.87912 0.0
C1034 C 0.86507 0.53548 0.83025 0.0
C1035 C 0.85139 0.5295 0.79224 0.0
C1036 C 0.88329 0.528 0.82364 0.0
C1037 C 0.87485 0.55304 0.92165 0.0
C1038 C 0.89826 0.53923 0.81405 0.0
C1039 C 0.91559 0.53213 0.81539 0.0
C1040 C 0.91817 0.51369 0.82633 0.0
C1041 C 0.90309 0.50239 0.83361 0.0
C1042 C 0.88579 0.5095 0.83225 0.0
H1043 H 0.86888 0.55921 0.96161 0.0
H1044 H 0.88368 0.54183 0.93565 0.0
H1045 H 0.88341 0.56334 0.89959 0.0
H1046 H 0.89655 0.5535 0.80633 0.0
H1047 H 0.92698 0.54106 0.808 0.0
H1048 H 0.99159 0.20682 0.93927 0.0
H1049 H 0.99198 0.17712 0.89408 0.0
H1050 H 0.04217 0.19034 0.80776 0.0
H1051 H 0.04204 0.22013 0.85426 0.0
H1052 H 0.99118 0.16612 0.78343 0.0
H1053 H 0.05503 0.14364 0.88535 0.0
H1054 H 0.04389 0.164 0.90752 0.0
H1055 H 0.05741 0.16367 0.84171 0.0
C1056 C 1.00265 0.20351 0.91021 0.0
C1057 C 0.01677 0.2159 0.90025 0.0
C1058 C 1.00289 0.18645 0.88454 0.0
C1059 C 0.01723 0.18129 0.84811 0.0
C1060 C 0.03118 0.19378 0.83687 0.0
H1061 H 1.00841 0.08328 0.63282 0.0
H1062 H 0.01003 0.11457 0.66543 0.0
C1063 C 0.03105 0.21085 0.86317 0.0
C1064 C 0.01736 0.16283 0.82243 0.0
H1065 H 0.04152 0.12392 0.81647 0.0
C1066 C 1.00222 0.15691 0.79058 0.0
C1067 C 0.03164 0.15067 0.83235 0.0
C1068 C 0.04783 0.15571 0.86906 0.0
C1069 C 1.00085 0.13923 0.76898 0.0
C1070 C 0.01529 0.12718 0.77786 0.0
C1071 C 0.03051 0.13315 0.80924 0.0
C1072 C 0.0146 0.10814 0.75722 0.0
C1073 C 0.98364 0.13349 0.73883 0.0
C1074 C 0.01722 0.094 0.79739 0.0
C1075 C 0.01663 0.07607 0.77867 0.0
C1076 C 0.01333 0.07184 0.71928 0.0
C1077 C 0.0108 0.08601 0.679 0.0
C1078 C 0.01161 0.10396 0.69767 0.0
H1079 H 0.97224 0.14238 0.75062 0.0
H1080 H 0.98554 0.13428 0.69042 0.0
H1081 H 0.9799 0.11943 0.75052 0.0
H1082 H 0.01959 0.09683 0.84353 0.0
H1083 H 0.01862 0.06554 0.81096 0.0
H1084 H 0.32233 0.05487 0.93065 0.0
H1085 H 0.35245 0.05365 0.88754 0.0
H1086 H 0.33366 0.01504 0.75982 0.0
H1087 H 0.30328 0.01649 0.80185 0.0
H1088 H 0.37338 0.02214 0.88095 0.0
H1089 H 0.3624 0.05153 0.6588 0.0
H1090 H 0.34669 0.05455 0.71871 0.0
H1091 H 0.34725 0.03361 0.67951 0.0
C1092 C 0.32442 0.04646 0.8924 0.0
C1093 C 0.31026 0.03585 0.86961 0.0
C1094 C 0.34173 0.04566 0.86811 0.0
C1095 C 0.34533 0.03437 0.82013 0.0
C1096 C 0.33118 0.02406 0.79627 0.0
H1097 H 0.44564 1.0093 0.63458 0.0
H1098 H 0.41415 0.01117 0.66623 0.0
C1099 C 0.31383 0.0248 0.8207 0.0
C1100 C 0.36413 0.03254 0.79795 0.0
H1101 H 0.39119 0.03943 0.67784 0.0
C1102 C 0.37728 0.02597 0.83658 0.0
C1103 C 0.36918 0.03733 0.73984 0.0
C1104 C 0.35571 0.04479 0.69677 0.0
C1105 C 0.3953 0.02398 0.81878 0.0
C1106 C 0.40049 0.02919 0.76109 0.0
C1107 C 0.38727 0.03552 0.72211 0.0
C1108 C 0.41961 0.02841 0.7409 0.0
C1109 C 0.4085 0.01596 0.86173 0.0
C1110 C 0.4332 0.03775 0.77149 0.0
C1111 C 0.45122 0.03661 0.75379 0.0
C1112 C 0.45609 0.02631 0.70444 0.0
C1113 C 0.44241 0.01736 0.67281 0.0
C1114 C 0.42437 0.01841 0.69085 0.0
H1115 H 0.40154 1.00771 0.89586 0.0
H1116 H 0.41848 1.00739 0.83887 0.0
H1117 H 0.41585 0.02697 0.88456 0.0
H1118 H 0.42987 0.04596 0.80925 0.0
H1119 H 0.46133 0.04384 0.77888 0.0
H1120 H 0.52339 0.3236 0.90254 0.0
H1121 H 0.52457 0.35401 0.86179 0.0
H1122 H 0.47873 0.34182 0.75202 0.0
H1123 H 0.47718 0.31142 0.79408 0.0
H1124 H 0.52931 0.36817 0.75583 0.0
H1125 H 0.46096 0.38575 0.83471 0.0
H1126 H 0.47195 0.36524 0.8562 0.0
H1127 H 0.46118 0.36692 0.78546 0.0
C1128 C 0.5137 0.32728 0.8691 0.0
C1129 C 0.50014 0.31507 0.85174 0.0
C1130 C 0.51434 0.34474 0.84596 0.0
C1131 C 0.5015 0.35044 0.8047 0.0
C1132 C 0.48846 0.33799 0.7851 0.0
H1133 H 0.51486 0.45444 0.62267 0.0
H1134 H 0.51258 0.42232 0.64449 0.0
C1135 C 0.48766 0.32056 0.80885 0.0
C1136 C 0.50164 0.36951 0.78379 0.0
H1137 H 0.47625 0.40766 0.77768 0.0
C1138 C 0.51768 0.37678 0.76044 0.0
C1139 C 0.48656 0.3809 0.79055 0.0
C1140 C 0.46925 0.37439 0.8186 0.0
C1141 C 0.51913 0.39504 0.74442 0.0
C1142 C 0.50394 0.40632 0.75011 0.0
C1143 C 0.48785 0.39902 0.77281 0.0
C1144 C 0.50469 0.4259 0.73552 0.0
C1145 C 0.53716 0.40223 0.72408 0.0
C1146 C 0.50033 0.43875 0.77849 0.0
C1147 C 0.5013 0.45718 0.7657 0.0
C1148 C 0.50668 0.46323 0.70955 0.0
C1149 C 0.51076 0.45032 0.66635 0.0
C1150 C 0.50962 0.43189 0.67898 0.0
H1151 H 0.54833 0.3931 0.73617 0.0
H1152 H 0.53707 0.4036 0.67551 0.0
H1153 H 0.53994 0.4157 0.74324 0.0
H1154 H 0.49641 0.43451 0.82238 0.0
H1155 H 0.49805 0.46668 0.80014 0.0
H1156 H 0.21402 0.47753 0.83397 0.0
H1157 H 0.18398 0.48184 0.79409 0.0
H1158 H 0.1835 0.53591 0.86248 0.0
H1159 H 0.21297 0.53121 0.90677 0.0
H1160 H 0.15368 0.52089 0.88907 0.0
H1161 H 0.16455 0.50613 0.65376 0.0
H1162 H 0.17148 0.4875 0.69812 0.0
H1163 H 0.18306 0.50885 0.70443 0.0
C1164 C 0.2076 0.49037 0.84079 0.0
C1165 C 0.21608 0.50393 0.87444 0.0
C1166 C 0.19042 0.49294 0.8168 0.0
C1167 C 0.18138 0.50931 0.82427 0.0
C1168 C 0.19011 0.52314 0.85574 0.0
H1169 H 0.07866 0.53048 0.64695 0.0
H1170 H 0.11035 0.52972 0.67565 0.0
C1171 C 0.20717 0.52049 0.8806 0.0
C1172 C 0.16232 0.51148 0.80397 0.0
H1173 H 0.13383 0.50466 0.68766 0.0
C1174 C 0.14945 0.51752 0.84473 0.0
C1175 C 0.15661 0.50738 0.74587 0.0
C1176 C 0.16971 0.50231 0.69794 0.0
C1177 C 0.13116 0.51918 0.82973 0.0
C1178 C 0.12526 0.51394 0.7729 0.0
C1179 C 0.13818 0.50836 0.73157 0.0
C1180 C 0.10583 0.51427 0.75535 0.0
C1181 C 0.11848 0.52693 0.87488 0.0
C1182 C 0.09258 0.50557 0.78973 0.0
C1183 C 0.07435 0.50628 0.77399 0.0
C1184 C 0.06894 0.51532 0.72259 0.0
C1185 C 0.08227 0.5235 0.6871 0.0
C1186 C 0.10047 0.52304 0.70342 0.0
H1187 H 0.12576 0.53574 0.90656 0.0
H1188 H 0.10767 0.5349 0.85379 0.0
H1189 H 0.11218 0.5158 0.90045 0.0
H1190 H 0.09632 0.49813 0.82879 0.0
H1191 H 0.06453 0.49956 0.80184 0.0
H1192 H 0.98315 0.82553 0.38471 0.0
H1193 H 0.98289 0.85593 0.42556 0.0
H1194 H 0.01792 0.83898 0.56595 0.0
H1195 H 0.01824 0.80848 0.5254 0.0
H1196 H 0.97312 0.87005 0.53451 0.0
H1197 H 0.04614 0.88066 0.49237 0.0
H1198 H 0.03369 0.86194 0.4618 0.0
H1199 H 0.04092 0.86141 0.53731 0.0
C1200 C 0.99053 0.82814 0.42493 0.0
C1201 C 1.00082 0.81453 0.4515 0.0
C1202 C 0.99046 0.84559 0.44803 0.0
C1203 C 1.0007 0.84987 0.4981 0.0
C1204 C 0.01028 0.83613 0.5264 0.0
H1205 H 0.02402 0.95159 0.6753 0.0
H1206 H 0.02153 0.91989 0.64808 0.0
C1207 C 0.01041 0.81868 0.50324 0.0
C1208 C 1.00171 0.86879 0.51951 0.0
H1209 H 0.03097 0.90384 0.54266 0.0
C1210 C 0.98577 0.87744 0.53627 0.0
C1211 C 0.01822 0.87847 0.52179 0.0
C1212 C 0.03571 0.87024 0.50189 0.0
C1213 C 0.9859 0.89541 0.55577 0.0
C1214 C 1.00239 0.90511 0.55759 0.0
C1215 C 0.01834 0.89641 0.54136 0.0
C1216 C 1.00338 0.9244 0.57517 0.0
C1217 C 0.96842 0.90374 0.57516 0.0
C1218 C 0.99417 0.93758 0.54296 0.0
C1219 C 0.99553 0.95577 0.55857 0.0
C1220 C 1.00621 0.96121 0.60663 0.0
C1221 C 0.01552 0.94795 0.63851 0.0
C1222 C 0.01416 0.92977 0.62285 0.0
H1223 H 0.95817 0.89333 0.58671 0.0
H1224 H 0.9705 0.91264 0.6138 0.0
H1225 H 0.96296 0.91197 0.53861 0.0
H1226 H 0.9861 0.93384 0.50517 0.0
H1227 H 0.98823 0.96556 0.53275 0.0
H1228 H 0.70941 0.98647 0.43181 0.0
H1229 H 0.67943 0.98669 0.47664 0.0
H1230 H 0.68645 0.04257 0.52167 0.0
H1231 H 0.71665 0.04242 0.47843 0.0
H1232 H 0.66668 0.99803 0.59673 0.0
H1233 H 0.64064 0.03935 0.41137 0.0
H1234 H 0.6614 0.02698 0.40631 0.0
H1235 H 0.66064 0.04755 0.44742 0.0
C1236 C 0.70483 0.99872 0.45252 0.0
C1237 C 0.71552 0.01448 0.45088 0.0
C1238 C 0.6876 0.99883 0.47784 0.0
C1239 C 0.68059 0.01471 0.50176 0.0
C1240 C 0.69148 0.03023 0.50271 0.0
H1241 H 0.57927 0.02874 0.69435 0.0
H1242 H 0.61098 0.02782 0.66553 0.0
C1243 C 0.70875 0.03012 0.47771 0.0
C1244 C 0.66158 0.01529 0.52256 0.0
H1245 H 0.62029 0.03233 0.4879 0.0
C1246 C 0.65653 1.00556 0.57312 0.0
C1247 C 0.64832 0.02498 0.49135 0.0
C1248 C 0.65288 0.03524 0.43583 0.0
C1249 C 0.63858 1.00535 0.59344 0.0
C1250 C 0.62534 0.01519 0.56245 0.0
C1251 C 0.63042 0.02484 0.51176 0.0
C1252 C 0.60605 0.01537 0.58094 0.0
C1253 C 0.63383 0.99424 0.64698 0.0
C1254 C 0.59258 1.00904 0.5426 0.0
C1255 C 0.57437 0.00962 0.55879 0.0
C1256 C 0.56918 0.01666 0.61366 0.0
C1257 C 0.58272 0.02306 0.65194 0.0
C1258 C 0.60092 0.02247 0.63568 0.0
H1259 H 0.64459 0.98452 0.65816 0.0
H1260 H 0.63194 1.00327 0.68528 0.0
H1261 H 0.62103 0.98671 0.63994 0.0
H1262 H 0.59618 1.0036 0.49998 0.0
H1263 H 0.56436 1.00464 0.5281 0.0
H1264 H 0.54044 0.7254 0.49448 0.0
H1265 H 0.54058 0.69531 0.53919 0.0
H1266 H 0.49299 0.681 0.44064 0.0
H1267 H 0.49264 0.71093 0.39663 0.0
H1268 H 0.49048 0.66906 0.552 0.0
H1269 H 0.55671 0.64986 0.45889 0.0
H1270 H 0.55746 0.66966 0.5039 0.0
H1271 H 0.54505 0.66986 0.43595 0.0
C1272 C 0.53001 0.71583 0.48242 0.0
C1273 C 0.51651 0.72064 0.44204 0.0
C1274 C 0.53014 0.6986 0.50782 0.0
C1275 C 0.51696 0.68572 0.49262 0.0
C1276 C 0.50331 0.69064 0.45321 0.0
H1277 H 0.52206 0.56985 0.51978 0.0
H1278 H 0.52229 0.60148 0.49041 0.0
C1279 C 0.50308 0.70785 0.42824 0.0
C1280 C 0.51732 0.66704 0.51684 0.0
H1281 H 0.54277 0.62897 0.52327 0.0
C1282 C 0.50194 0.66031 0.54586 0.0
C1283 C 0.53217 0.6555 0.50819 0.0
C1284 C 0.54872 0.66148 0.47457 0.0
C1285 C 0.50092 0.6424 0.56596 0.0
C1286 C 0.51589 0.63094 0.55817 0.0
C1287 C 0.53133 0.63773 0.52961 0.0
C1288 C 0.5156 0.61167 0.57689 0.0
C1289 C 0.48353 0.63581 0.59337 0.0
C1290 C 0.5119 0.60673 0.6355 0.0
C1291 C 0.51154 0.58858 0.65232 0.0
C1292 C 0.51522 0.57494 0.61115 0.0
C1293 C 0.5192 0.57995 0.55275 0.0
C1294 C 0.51936 0.59807 0.53586 0.0
H1295 H 0.47199 0.64443 0.58084 0.0
H1296 H 0.48043 0.62176 0.58007 0.0
H1297 H 0.48477 0.63621 0.64205 0.0
H1298 H 0.50942 0.61691 0.66846 0.0
H1299 H 0.50855 0.58527 0.69779 0.0
H1300 H 0.82083 0.55393 0.40951 0.0
H1301 H 0.85119 0.55306 0.45085 0.0
H1302 H 0.83739 0.50485 0.54704 0.0
H1303 H 0.80678 0.50571 0.50629 0.0
H1304 H 0.85818 0.53303 0.61267 0.0
H1305 H 0.8887 0.5143 0.39808 0.0
H1306 H 0.87402 0.5334 0.39653 0.0
H1307 H 0.86496 0.51151 0.41335 0.0
C1308 C 0.82409 0.5433 0.44027 0.0
C1309 C 0.81128 0.52988 0.45449 0.0
C1310 C 0.84154 0.54273 0.46344 0.0
C1311 C 0.84665 0.52878 0.50149 0.0
C1312 C 0.83378 0.5157 0.5175 0.0
H1313 H 0.94849 0.50532 0.68215 0.0
H1314 H 0.91684 0.50657 0.65356 0.0
C1315 C 0.81631 0.51617 0.49396 0.0
C1316 C 0.86558 0.52763 0.52288 0.0
H1317 H 0.90875 0.52121 0.47552 0.0
C1318 C 0.86926 0.53039 0.58282 0.0
C1319 C 0.88002 0.52417 0.48393 0.0
C1320 C 0.87682 0.52052 0.41942 0.0
C1321 C 0.88705 0.53033 0.60452 0.0
C1322 C 0.90157 0.52692 0.56547 0.0
C1323 C 0.89775 0.52392 0.50562 0.0
C1324 C 0.92082 0.52656 0.58507 0.0
C1325 C 0.89006 0.53445 0.66873 0.0
C1326 C 0.93389 0.53701 0.55553 0.0
C1327 C 0.95211 0.53608 0.5712 0.0
C1328 C 0.95778 0.5247 0.61704 0.0
C1329 C 0.94466 0.51438 0.64704 0.0
C1330 C 0.92645 0.51517 0.63093 0.0
H1331 H 0.8787 0.54217 0.68767 0.0
H1332 H 0.89103 0.52162 0.69352 0.0
H1333 H 0.9027 0.54225 0.67549 0.0
H1334 H 0.93 0.54588 0.51993 0.0
H1335 H 0.96177 0.54426 0.54711 0.0
loop_
_geom_bond_atom_site_label_1
_geom_bond_atom_site_label_2
_geom_bond_distance
_geom_bond_site_symmetry_2
_ccdc_geom_bond_type
C0 C1 1.386 . S
C0 C2 1.397 . S
C0 H24 0.931 . S
C1 C0 1.386 . S
C1 C5 1.397 . S
C2 C0 1.397 . S
C2 C3 1.384 . S
C2 H25 0.930 . S
C3 C2 1.384 . S
C3 C4 1.377 . S
C3 C6 1.481 . S
C4 C3 1.377 . S
C4 C5 1.389 . S
C4 H26 0.929 . S
C5 C1 1.397 . S
C5 C4 1.389 . S
C5 H27 0.931 . S
C6 C3 1.481 . S
C6 C7 1.387 . S
C6 C11 1.390 . S
C7 C6 1.387 . S
C7 C8 1.401 . S
C7 H28 0.930 . S
C8 C7 1.401 . S
C8 C9 1.376 . S
C8 C17 1.511 . S
C9 C8 1.376 . S
C9 C10 1.392 . S
C9 H30 0.931 . S
C10 C9 1.392 . S
C10 C11 1.361 . S
C10 C12 1.500 . S
C11 C6 1.390 . S
C11 C10 1.361 . S
C11 H29 0.931 . S
C12 C10 1.500 . S
C12 C13 1.371 . S
C12 C14 1.365 . S
C13 C12 1.371 . S
C13 C23 1.386 . S
C13 H31 0.931 . S
C14 C12 1.365 . S
C14 C15 1.409 . S
C14 H32 0.929 . S
C15 C14 1.409 . S
C15 C16 1.380 . S
C15 H33 0.930 . S
C16 C15 1.380 . S
C16 C23 1.357 . S
C17 C8 1.511 . S
C17 C18 1.341 . S
C17 C19 1.371 . S
C18 C17 1.341 . S
C18 C22 1.394 . S
C18 H34 0.930 . S
C19 C17 1.371 . S
C19 C20 1.392 . S
C19 H35 0.931 . S
C20 C19 1.392 . S
C20 C21 1.331 . S
C20 H38 0.932 . S
C21 C20 1.331 . S
C21 C22 1.336 . S
C22 C18 1.394 . S
C22 C21 1.336 . S
C22 H37 0.929 . S
C23 C13 1.386 . S
C23 C16 1.357 . S
C23 H36 0.928 . S
H24 C0 0.931 . S
H25 C2 0.930 . S
H26 C4 0.929 . S
H27 C5 0.931 . S
H28 C7 0.930 . S
H29 C11 0.931 . S
H30 C9 0.931 . S
H31 C13 0.931 . S
H32 C14 0.929 . S
H33 C15 0.930 . S
H34 C18 0.930 . S
H35 C19 0.931 . S
H36 C23 0.928 . S
H37 C22 0.929 . S
H38 C20 0.932 . S
C39 C40 1.394 . S
C39 C41 1.397 . S
C39 H63 0.931 . S
C40 C39 1.394 . S
C40 C44 1.389 1_655 S
C41 C39 1.397 . S
C41 C42 1.389 . S
C41 H64 0.930 . S
C42 C41 1.389 . S
C42 C43 1.373 1_655 S
C42 C45 1.481 . S
C43 C42 1.373 1_455 S
C43 C44 1.389 . S
C43 H65 0.929 . S
C44 C40 1.389 1_455 S
C44 C43 1.389 . S
C44 H66 0.931 . S
C45 C42 1.481 . S
C45 C46 1.388 . S
C45 C50 1.390 . S
C46 C45 1.388 . S
C46 C47 1.403 . S
C46 H67 0.930 . S
C47 C46 1.403 . S
C47 C48 1.376 . S
C47 C56 1.512 . S
C48 C47 1.376 . S
C48 C49 1.392 . S
C48 H69 0.934 . S
C49 C48 1.392 . S
C49 C50 1.361 . S
C49 C51 1.499 1_655 S
C50 C45 1.390 . S
C50 C49 1.361 . S
C50 H68 0.931 . S
C51 C49 1.499 1_455 S
C51 C52 1.364 1_455 S
C51 C53 1.373 . S
C52 C51 1.364 1_655 S
C52 C62 1.386 . S
C52 H70 0.931 . S
C53 C51 1.373 . S
C53 C54 1.409 . S
C53 H71 0.929 . S
C54 C53 1.409 . S
C54 C55 1.378 . S
C54 H72 0.930 . S
C55 C54 1.378 . S
C55 C62 1.360 1_455 S
C56 C47 1.512 . S
C56 C57 1.341 . S
C56 C58 1.371 1_655 S
C57 C56 1.341 . S
C57 C61 1.394 . S
C57 H73 0.930 . S
C58 C56 1.371 1_455 S
C58 C59 1.392 . S
C58 H74 0.931 . S
C59 C58 1.392 . S
C59 C60 1.322 1_455 S
C59 H77 0.932 . S
C60 C59 1.322 1_655 S
C60 C61 1.345 . S
C61 C57 1.394 . S
C61 C60 1.345 . S
C61 H76 0.929 . S
C62 C52 1.386 . S
C62 C55 1.360 1_655 S
C62 H75 0.928 . S
H63 C39 0.931 . S
H64 C41 0.930 . S
H65 C43 0.929 . S
H66 C44 0.931 . S
H67 C46 0.930 . S
H68 C50 0.931 . S
H69 C48 0.934 . S
H70 C52 0.931 . S
H71 C53 0.929 . S
H72 C54 0.930 . S
H73 C57 0.930 . S
H74 C58 0.931 . S
H75 C62 0.928 . S
H76 C61 0.929 . S
H77 C59 0.932 . S
C78 C79 1.386 . S
C78 C80 1.397 . S
C78 H102 0.931 . S
C79 C78 1.386 . S
C79 C83 1.397 . S
C80 C78 1.397 . S
C80 C81 1.384 . S
C80 H103 0.930 . S
C81 C80 1.384 . S
C81 C82 1.377 . S
C81 C84 1.481 . S
C82 C81 1.377 . S
C82 C83 1.389 . S
C82 H104 0.929 1_565 S
C83 C79 1.397 . S
C83 C82 1.389 . S
C83 H105 0.931 1_565 S
C84 C81 1.481 . S
C84 C85 1.387 . S
C84 C89 1.390 . S
C85 C84 1.387 . S
C85 C86 1.401 . S
C85 H106 0.930 . S
C86 C85 1.401 . S
C86 C87 1.376 . S
C86 C95 1.511 . S
C87 C86 1.376 . S
C87 C88 1.392 . S
C87 H108 0.931 . S
C88 C87 1.392 . S
C88 C89 1.361 . S
C88 C90 1.500 . S
C89 C84 1.390 . S
C89 C88 1.361 . S
C89 H107 0.931 . S
C90 C88 1.500 . S
C90 C91 1.371 . S
C90 C92 1.365 . S
C91 C90 1.371 . S
C91 C101 1.386 . S
C91 H109 0.931 . S
C92 C90 1.365 . S
C92 C93 1.409 . S
C92 H110 0.929 1_565 S
C93 C92 1.409 . S
C93 C94 1.380 . S
C93 H111 0.930 1_565 S
C94 C93 1.380 . S
C94 C101 1.357 . S
C95 C86 1.511 . S
C95 C96 1.341 . S
C95 C97 1.371 . S
C96 C95 1.341 . S
C96 C100 1.394 . S
C96 H112 0.930 . S
C97 C95 1.371 . S
C97 C98 1.392 . S
C97 H113 0.931 . S
C98 C97 1.392 . S
C98 C99 1.331 . S
C98 H116 0.932 . S
C99 C98 1.331 . S
C99 C100 1.336 . S
C100 C96 1.394 . S
C100 C99 1.336 . S
C100 H115 0.929 . S
C101 C91 1.386 . S
C101 C94 1.357 . S
C101 H114 0.928 . S
H102 C78 0.931 . S
H103 C80 0.930 . S
H104 C82 0.929 1_545 S
H105 C83 0.931 1_545 S
H106 C85 0.930 . S
H107 C89 0.931 . S
H108 C87 0.931 . S
H109 C91 0.931 . S
H110 C92 0.929 1_545 S
H111 C93 0.930 1_545 S
H112 C96 0.930 . S
H113 C97 0.931 . S
H114 C101 0.928 . S
H115 C100 0.929 . S
H116 C98 0.932 . S
C117 C118 1.386 . S
C117 C119 1.397 . S
C117 H141 0.931 . S
C118 C117 1.386 . S
C118 C122 1.397 . S
C119 C117 1.397 . S
C119 C120 1.384 . S
C119 H142 0.930 . S
C120 C119 1.384 . S
C120 C121 1.377 . S
C120 C123 1.481 . S
C121 C120 1.377 . S
C121 C122 1.389 . S
C121 H143 0.929 . S
C122 C118 1.397 . S
C122 C121 1.389 . S
C122 H144 0.931 . S
C123 C120 1.481 . S
C123 C124 1.387 . S
C123 C128 1.390 . S
C124 C123 1.387 . S
C124 C125 1.401 . S
C124 H145 0.930 . S
C125 C124 1.401 . S
C125 C126 1.376 . S
C125 C134 1.511 . S
C126 C125 1.376 . S
C126 C127 1.392 . S
C126 H147 0.931 . S
C127 C126 1.392 . S
C127 C128 1.361 . S
C127 C129 1.500 . S
C128 C123 1.390 . S
C128 C127 1.361 . S
C128 H146 0.931 . S
C129 C127 1.500 . S
C129 C130 1.371 . S
C129 C131 1.365 . S
C130 C129 1.371 . S
C130 C140 1.386 . S
C130 H148 0.931 . S
C131 C129 1.365 . S
C131 C132 1.409 . S
C131 H149 0.929 . S
C132 C131 1.409 . S
C132 C133 1.380 . S
C132 H150 0.930 . S
C133 C132 1.380 . S
C133 C140 1.357 . S
C134 C125 1.511 . S
C134 C135 1.341 . S
C134 C136 1.371 . S
C135 C134 1.341 . S
C135 C139 1.394 . S
C135 H151 0.930 . S
C136 C134 1.371 . S
C136 C137 1.392 . S
C136 H152 0.931 . S
C137 C136 1.392 . S
C137 C138 1.331 . S
C137 H155 0.932 . S
C138 C137 1.331 . S
C138 C139 1.336 . S
C139 C135 1.394 . S
C139 C138 1.336 . S
C139 H154 0.929 . S
C140 C130 1.386 . S
C140 C133 1.357 . S
C140 H153 0.928 . S
H141 C117 0.931 . S
H142 C119 0.930 . S
H143 C121 0.929 . S
H144 C122 0.931 . S
H145 C124 0.930 . S
H146 C128 0.931 . S
H147 C126 0.931 . S
H148 C130 0.931 . S
H149 C131 0.929 . S
H150 C132 0.930 . S
H151 C135 0.930 . S
H152 C136 0.931 . S
H153 C140 0.928 . S
H154 C139 0.929 . S
H155 C137 0.932 . S
C156 C157 1.386 . S
C156 C158 1.397 . S
C156 H180 0.931 . S
C157 C156 1.386 . S
C157 C161 1.397 . S
C158 C156 1.397 . S
C158 C159 1.384 . S
C158 H181 0.930 . S
C159 C158 1.384 . S
C159 C160 1.377 . S
C159 C162 1.481 . S
C160 C159 1.377 . S
C160 C161 1.389 . S
C160 H182 0.929 . S
C161 C157 1.397 . S
C161 C160 1.389 . S
C161 H183 0.931 . S
C162 C159 1.481 . S
C162 C163 1.387 . S
C162 C167 1.390 . S
C163 C162 1.387 . S
C163 C164 1.401 . S
C163 H184 0.930 . S
C164 C163 1.401 . S
C164 C165 1.376 1_554 S
C164 C173 1.511 . S
C165 C164 1.376 1_556 S
C165 C166 1.392 . S
C165 H186 0.931 . S
C166 C165 1.392 . S
C166 C167 1.361 1_556 S
C166 C168 1.500 . S
C167 C162 1.390 . S
C167 C166 1.361 1_554 S
C167 H185 0.931 . S
C168 C166 1.500 . S
C168 C169 1.371 . S
C168 C170 1.365 . S
C169 C168 1.371 . S
C169 C179 1.386 . S
C169 H187 0.931 . S
C170 C168 1.365 . S
C170 C171 1.409 . S
C170 H188 0.929 . S
C171 C170 1.409 . S
C171 C172 1.380 . S
C171 H189 0.930 . S
C172 C171 1.380 . S
C172 C179 1.357 . S
C173 C164 1.511 . S
C173 C174 1.341 . S
C173 C175 1.371 . S
C174 C173 1.341 . S
C174 C178 1.394 . S
C174 H190 0.930 . S
C175 C173 1.371 . S
C175 C176 1.392 . S
C175 H191 0.931 1_554 S
C176 C175 1.392 . S
C176 C177 1.331 . S
C176 H194 0.932 . S
C177 C176 1.331 . S
C177 C178 1.336 . S
C178 C174 1.394 . S
C178 C177 1.336 . S
C178 H193 0.929 . S
C179 C169 1.386 . S
C179 C172 1.357 . S
C179 H192 0.928 . S
H180 C156 0.931 . S
H181 C158 0.930 . S
H182 C160 0.929 . S
H183 C161 0.931 . S
H184 C163 0.930 . S
H185 C167 0.931 . S
H186 C165 0.931 . S
H187 C169 0.931 . S
H188 C170 0.929 . S
H189 C171 0.930 . S
H190 C174 0.930 . S
H191 C175 0.931 1_556 S
H192 C179 0.928 . S
H193 C178 0.929 . S
H194 C176 0.932 . S
C195 C196 1.385 . S
C195 C197 1.397 . S
C195 H219 0.931 . S
C196 C195 1.385 . S
C196 C200 1.398 1_655 S
C197 C195 1.397 . S
C197 C198 1.389 1_655 S
C197 H220 0.930 . S
C198 C197 1.389 1_455 S
C198 C199 1.372 . S
C198 C201 1.480 1_455 S
C199 C198 1.372 . S
C199 C200 1.389 . S
C199 H221 0.929 . S
C200 C196 1.398 1_455 S
C200 C199 1.389 . S
C200 H222 0.931 . S
C201 C198 1.480 1_655 S
C201 C202 1.386 . S
C201 C206 1.390 . S
C202 C201 1.386 . S
C202 C203 1.401 . S
C202 H223 0.936 . S
C203 C202 1.401 . S
C203 C204 1.376 1_554 S
C203 C212 1.512 . S
C204 C203 1.376 1_556 S
C204 C205 1.391 1_655 S
C204 H225 0.933 . S
C205 C204 1.391 1_455 S
C205 C206 1.361 1_456 S
C205 C207 1.499 . S
C206 C201 1.390 . S
C206 C205 1.361 1_654 S
C206 H224 0.931 1_655 S
C207 C205 1.499 . S
C207 C208 1.357 1_455 S
C207 C209 1.381 . S
C208 C207 1.357 1_655 S
C208 C218 1.386 . S
C208 H226 0.931 . S
C209 C207 1.381 . S
C209 C210 1.409 . S
C209 H227 0.929 . S
C210 C209 1.409 . S
C210 C211 1.384 . S
C210 H228 0.930 . S
C211 C210 1.384 . S
C211 C218 1.353 1_455 S
C212 C203 1.512 . S
C212 C213 1.341 . S
C212 C214 1.371 1_655 S
C213 C212 1.341 . S
C213 C217 1.394 . S
C213 H229 0.930 . S
C214 C212 1.371 1_455 S
C214 C215 1.392 . S
C214 H230 0.931 1_554 S
C215 C214 1.392 . S
C215 C216 1.326 1_455 S
C215 H233 0.932 . S
C216 C215 1.326 1_655 S
C216 C217 1.340 . S
C217 C213 1.394 . S
C217 C216 1.340 . S
C217 H232 0.929 . S
C218 C208 1.386 . S
C218 C211 1.353 1_655 S
C218 H231 0.928 . S
H219 C195 0.931 . S
H220 C197 0.930 . S
H221 C199 0.929 . S
H222 C200 0.931 . S
H223 C202 0.936 . S
H224 C206 0.931 1_455 S
H225 C204 0.933 . S
H226 C208 0.931 . S
H227 C209 0.929 . S
H228 C210 0.930 . S
H229 C213 0.930 . S
H230 C214 0.931 1_556 S
H231 C218 0.928 . S
H232 C217 0.929 . S
H233 C215 0.932 . S
C234 C235 1.386 . S
C234 C236 1.397 . S
C234 H258 0.931 . S
C235 C234 1.386 . S
C235 C239 1.397 . S
C236 C234 1.397 . S
C236 C237 1.384 . S
C236 H259 0.930 . S
C237 C236 1.384 . S
C237 C238 1.377 . S
C237 C240 1.481 . S
C238 C237 1.377 . S
C238 C239 1.389 . S
C238 H260 0.929 . S
C239 C235 1.397 . S
C239 C238 1.389 . S
C239 H261 0.931 . S
C240 C237 1.481 . S
C240 C241 1.387 . S
C240 C245 1.390 . S
C241 C240 1.387 . S
C241 C242 1.401 . S
C241 H262 0.930 . S
C242 C241 1.401 . S
C242 C243 1.376 1_554 S
C242 C251 1.511 . S
C243 C242 1.376 1_556 S
C243 C244 1.392 . S
C243 H264 0.931 . S
C244 C243 1.392 . S
C244 C245 1.361 1_556 S
C244 C246 1.500 . S
C245 C240 1.390 . S
C245 C244 1.361 1_554 S
C245 H263 0.931 . S
C246 C244 1.500 . S
C246 C247 1.371 . S
C246 C248 1.365 . S
C247 C246 1.371 . S
C247 C257 1.386 . S
C247 H265 0.931 . S
C248 C246 1.365 . S
C248 C249 1.409 . S
C248 H266 0.929 . S
C249 C248 1.409 . S
C249 C250 1.380 . S
C249 H267 0.930 . S
C250 C249 1.380 . S
C250 C257 1.357 . S
C251 C242 1.511 . S
C251 C252 1.341 . S
C251 C253 1.371 . S
C252 C251 1.341 . S
C252 C256 1.394 . S
C252 H268 0.930 . S
C253 C251 1.371 . S
C253 C254 1.392 . S
C253 H269 0.931 1_554 S
C254 C253 1.392 . S
C254 C255 1.331 . S
C254 H272 0.932 . S
C255 C254 1.331 . S
C255 C256 1.336 . S
C256 C252 1.394 . S
C256 C255 1.336 . S
C256 H271 0.929 . S
C257 C247 1.386 . S
C257 C250 1.357 . S
C257 H270 0.928 . S
H258 C234 0.931 . S
H259 C236 0.930 . S
H260 C238 0.929 . S
H261 C239 0.931 . S
H262 C241 0.930 . S
H263 C245 0.931 . S
H264 C243 0.931 . S
H265 C247 0.931 . S
H266 C248 0.929 . S
H267 C249 0.930 . S
H268 C252 0.930 . S
H269 C253 0.931 1_556 S
H270 C257 0.928 . S
H271 C256 0.929 . S
H272 C254 0.932 . S
C273 C274 1.386 . S
C273 C275 1.397 . S
C273 H297 0.931 . S
C274 C273 1.386 . S
C274 C278 1.397 . S
C275 C273 1.397 . S
C275 C276 1.384 . S
C275 H298 0.930 . S
C276 C275 1.384 . S
C276 C277 1.377 . S
C276 C279 1.481 . S
C277 C276 1.377 . S
C277 C278 1.389 . S
C277 H299 0.929 . S
C278 C274 1.397 . S
C278 C277 1.389 . S
C278 H300 0.931 . S
C279 C276 1.481 . S
C279 C280 1.387 . S
C279 C284 1.390 1_556 S
C280 C279 1.387 . S
C280 C281 1.401 1_556 S
C280 H301 0.930 . S
C281 C280 1.401 1_554 S
C281 C282 1.376 . S
C281 C290 1.511 . S
C282 C281 1.376 . S
C282 C283 1.392 . S
C282 H303 0.931 . S
C283 C282 1.392 . S
C283 C284 1.361 . S
C283 C285 1.500 . S
C284 C279 1.390 1_554 S
C284 C283 1.361 . S
C284 H302 0.931 . S
C285 C283 1.500 . S
C285 C286 1.371 . S
C285 C287 1.365 . S
C286 C285 1.371 . S
C286 C296 1.386 . S
C286 H304 0.931 . S
C287 C285 1.365 . S
C287 C288 1.409 . S
C287 H305 0.929 . S
C288 C287 1.409 . S
C288 C289 1.380 . S
C288 H306 0.930 . S
C289 C288 1.380 . S
C289 C296 1.357 . S
C290 C281 1.511 . S
C290 C291 1.341 . S
C290 C292 1.371 . S
C291 C290 1.341 . S
C291 C295 1.394 . S
C291 H307 0.930 1_554 S
C292 C290 1.371 . S
C292 C293 1.392 . S
C292 H308 0.931 . S
C293 C292 1.392 . S
C293 C294 1.331 . S
C293 H311 0.932 . S
C294 C293 1.331 . S
C294 C295 1.336 . S
C295 C291 1.394 . S
C295 C294 1.336 . S
C295 H310 0.929 . S
C296 C286 1.386 . S
C296 C289 1.357 . S
C296 H309 0.928 . S
H297 C273 0.931 . S
H298 C275 0.930 . S
H299 C277 0.929 . S
H300 C278 0.931 . S
H301 C280 0.930 . S
H302 C284 0.931 . S
H303 C282 0.931 . S
H304 C286 0.931 . S
H305 C287 0.929 . S
H306 C288 0.930 . S
H307 C291 0.930 1_556 S
H308 C292 0.931 . S
H309 C296 0.928 . S
H310 C295 0.929 . S
H311 C293 0.932 . S
Gd312 C315 2.818 . S
Gd312 O332 2.377 . S
Gd312 O334 2.448 . S
Gd312 O335 2.506 . S
Gd312 O336 2.439 . S
Gd312 O337 2.717 1_565 S
Gd312 O339 2.395 1_565 S
Gd312 O343 2.327 1_465 S
Gd313 C324 2.818 . S
Gd313 O333 2.395 1_545 S
Gd313 O337 2.327 1_655 S
Gd313 O338 2.377 . S
Gd313 O340 2.448 . S
Gd313 O341 2.506 . S
Gd313 O342 2.435 . S
Gd313 O343 2.717 . S
C314 O332 1.240 1_655 S
C314 O333 1.240 . S
C315 Gd312 2.818 . S
C315 C316 1.510 . S
C315 O334 1.249 . S
C315 O335 1.252 . S
C316 C315 1.510 . S
C316 C317 1.404 . S
C316 C318 1.352 . S
C317 C316 1.404 . S
C317 C321 1.389 . S
C317 H344 0.930 . S
C318 C316 1.352 . S
C318 C320 1.374 . S
C318 H345 0.931 1_455 S
C319 C320 1.359 . S
C319 C321 1.364 . S
C320 C318 1.374 . S
C320 C319 1.359 . S
C320 H346 0.931 1_455 S
C321 C317 1.389 . S
C321 C319 1.364 . S
C321 H347 0.931 . S
C322 O336 1.231 1_545 S
C322 O337 1.257 . S
C323 O338 1.240 1_455 S
C323 O339 1.240 . S
C324 Gd313 2.818 . S
C324 C325 1.510 . S
C324 O340 1.249 . S
C324 O341 1.252 . S
C325 C324 1.510 . S
C325 C326 1.404 . S
C325 C327 1.352 . S
C326 C325 1.404 . S
C326 C330 1.389 . S
C326 H348 0.930 . S
C327 C325 1.352 . S
C327 C329 1.374 . S
C327 H349 0.931 1_655 S
C328 C329 1.359 . S
C328 C330 1.364 . S
C329 C327 1.374 . S
C329 C328 1.359 . S
C329 H350 0.931 1_655 S
C330 C326 1.389 . S
C330 C328 1.364 . S
C330 H351 0.931 . S
C331 O342 1.256 . S
C331 O343 1.257 . S
O332 Gd312 2.377 . S
O332 C314 1.240 1_455 S
O333 Gd313 2.395 1_565 S
O333 C314 1.240 . S
O334 Gd312 2.448 . S
O334 C315 1.249 . S
O335 Gd312 2.506 . S
O335 C315 1.252 . S
O336 Gd312 2.439 . S
O336 C322 1.231 1_565 S
O337 Gd312 2.717 1_545 S
O337 Gd313 2.327 1_455 S
O337 C322 1.257 . S
O338 Gd313 2.377 . S
O338 C323 1.240 1_655 S
O339 Gd312 2.395 1_545 S
O339 C323 1.240 . S
O340 Gd313 2.448 . S
O340 C324 1.249 . S
O341 Gd313 2.506 . S
O341 C324 1.252 . S
O342 Gd313 2.435 . S
O342 C331 1.256 . S
O343 Gd312 2.327 1_645 S
O343 Gd313 2.717 . S
O343 C331 1.257 . S
H344 C317 0.930 . S
H345 C318 0.931 1_655 S
H346 C320 0.931 1_655 S
H347 C321 0.931 . S
H348 C326 0.930 . S
H349 C327 0.931 1_455 S
H350 C329 0.931 1_455 S
H351 C330 0.931 . S
Gd352 C355 2.818 . S
Gd352 O372 2.377 . S
Gd352 O374 2.448 . S
Gd352 O375 2.506 . S
Gd352 O376 2.435 . S
Gd352 O377 2.717 . S
Gd352 O379 2.395 . S
Gd352 O383 2.327 1_545 S
Gd353 C364 2.818 . S
Gd353 O373 2.395 . S
Gd353 O377 2.327 1_565 S
Gd353 O378 2.377 1_565 S
Gd353 O380 2.448 . S
Gd353 O381 2.506 1_565 S
Gd353 O382 2.435 . S
Gd353 O383 2.717 . S
C354 O372 1.240 1_565 S
C354 O373 1.240 . S
C355 Gd352 2.818 . S
C355 C356 1.510 . S
C355 O374 1.249 . S
C355 O375 1.252 . S
C356 C355 1.510 . S
C356 C357 1.404 . S
C356 C358 1.352 . S
C357 C356 1.404 . S
C357 C361 1.389 . S
C357 H384 0.930 . S
C358 C356 1.352 . S
C358 C360 1.374 . S
C358 H385 0.931 1_545 S
C359 C360 1.359 . S
C359 C361 1.364 . S
C360 C358 1.374 . S
C360 C359 1.359 . S
C360 H386 0.931 1_545 S
C361 C357 1.389 . S
C361 C359 1.364 . S
C361 H387 0.931 . S
C362 O376 1.256 . S
C362 O377 1.257 . S
C363 O378 1.240 . S
C363 O379 1.240 . S
C364 Gd353 2.818 . S
C364 C365 1.510 . S
C364 O380 1.249 . S
C364 O381 1.252 1_565 S
C365 C364 1.510 . S
C365 C366 1.404 . S
C365 C367 1.352 1_565 S
C366 C365 1.404 . S
C366 C370 1.389 . S
C366 H388 0.930 . S
C367 C365 1.352 1_545 S
C367 C369 1.374 . S
C367 H389 0.931 . S
C368 C369 1.359 1_565 S
C368 C370 1.364 . S
C369 C367 1.374 . S
C369 C368 1.359 1_545 S
C369 H390 0.931 . S
C370 C366 1.389 . S
C370 C368 1.364 . S
C370 H391 0.931 . S
C371 O382 1.256 . S
C371 O383 1.257 . S
O372 Gd352 2.377 . S
O372 C354 1.240 1_545 S
O373 Gd353 2.395 . S
O373 C354 1.240 . S
O374 Gd352 2.448 . S
O374 C355 1.249 . S
O375 Gd352 2.506 . S
O375 C355 1.252 . S
O376 Gd352 2.435 . S
O376 C362 1.256 . S
O377 Gd352 2.717 . S
O377 Gd353 2.327 1_545 S
O377 C362 1.257 . S
O378 Gd353 2.377 1_545 S
O378 C363 1.240 . S
O379 Gd352 2.395 . S
O379 C363 1.240 . S
O380 Gd353 2.448 . S
O380 C364 1.249 . S
O381 Gd353 2.506 1_545 S
O381 C364 1.252 1_545 S
O382 Gd353 2.435 . S
O382 C371 1.256 . S
O383 Gd352 2.327 1_565 S
O383 Gd353 2.717 . S
O383 C371 1.257 . S
H384 C357 0.930 . S
H385 C358 0.931 1_565 S
H386 C360 0.931 1_565 S
H387 C361 0.931 . S
H388 C366 0.930 . S
H389 C367 0.931 . S
H390 C369 0.931 . S
H391 C370 0.931 . S
Gd392 C395 2.818 . S
Gd392 O412 2.377 . S
Gd392 O414 2.448 . S
Gd392 O415 2.506 . S
Gd392 O416 2.435 . S
Gd392 O417 2.717 . S
Gd392 O419 2.395 . S
Gd392 O423 2.327 . S
Gd393 C404 2.818 . S
Gd393 O413 2.395 . S
Gd393 O417 2.327 . S
Gd393 O418 2.377 . S
Gd393 O420 2.448 . S
Gd393 O421 2.506 . S
Gd393 O422 2.435 . S
Gd393 O423 2.717 . S
C394 O412 1.240 . S
C394 O413 1.240 . S
C395 Gd392 2.818 . S
C395 C396 1.510 . S
C395 O414 1.249 . S
C395 O415 1.252 . S
C396 C395 1.510 . S
C396 C397 1.404 . S
C396 C398 1.352 . S
C397 C396 1.404 . S
C397 C401 1.389 . S
C397 H424 0.930 . S
C398 C396 1.352 . S
C398 C400 1.374 . S
C398 H425 0.931 . S
C399 C400 1.359 . S
C399 C401 1.364 . S
C400 C398 1.374 . S
C400 C399 1.359 . S
C400 H426 0.931 . S
C401 C397 1.389 . S
C401 C399 1.364 . S
C401 H427 0.931 . S
C402 O416 1.256 . S
C402 O417 1.257 . S
C403 O418 1.240 . S
C403 O419 1.240 . S
C404 Gd393 2.818 . S
C404 C405 1.510 . S
C404 O420 1.249 . S
C404 O421 1.252 . S
C405 C404 1.510 . S
C405 C406 1.404 . S
C405 C407 1.352 . S
C406 C405 1.404 . S
C406 C410 1.389 . S
C406 H428 0.930 . S
C407 C405 1.352 . S
C407 C409 1.374 . S
C407 H429 0.931 . S
C408 C409 1.359 . S
C408 C410 1.364 . S
C409 C407 1.374 . S
C409 C408 1.359 . S
C409 H430 0.931 . S
C410 C406 1.389 . S
C410 C408 1.364 . S
C410 H431 0.931 . S
C411 O422 1.256 . S
C411 O423 1.257 . S
O412 Gd392 2.377 . S
O412 C394 1.240 . S
O413 Gd393 2.395 . S
O413 C394 1.240 . S
O414 Gd392 2.448 . S
O414 C395 1.249 . S
O415 Gd392 2.506 . S
O415 C395 1.252 . S
O416 Gd392 2.435 . S
O416 C402 1.256 . S
O417 Gd392 2.717 . S
O417 Gd393 2.327 . S
O417 C402 1.257 . S
O418 Gd393 2.377 . S
O418 C403 1.240 . S
O419 Gd392 2.395 . S
O419 C403 1.240 . S
O420 Gd393 2.448 . S
O420 C404 1.249 . S
O421 Gd393 2.506 . S
O421 C404 1.252 . S
O422 Gd393 2.435 . S
O422 C411 1.256 . S
O423 Gd392 2.327 . S
O423 Gd393 2.717 . S
O423 C411 1.257 . S
H424 C397 0.930 . S
H425 C398 0.931 . S
H426 C400 0.931 . S
H427 C401 0.931 . S
H428 C406 0.930 . S
H429 C407 0.931 . S
H430 C409 0.931 . S
H431 C410 0.931 . S
Gd432 C435 2.818 . S
Gd432 O452 2.377 . S
Gd432 O454 2.448 . S
Gd432 O455 2.506 . S
Gd432 O456 2.435 . S
Gd432 O457 2.717 1_655 S
Gd432 O459 2.395 1_655 S
Gd432 O463 2.327 . S
Gd433 C444 2.818 . S
Gd433 O453 2.395 1_455 S
Gd433 O457 2.327 . S
Gd433 O458 2.377 . S
Gd433 O460 2.448 . S
Gd433 O461 2.506 . S
Gd433 O462 2.435 . S
Gd433 O463 2.717 1_455 S
C434 O452 1.240 . S
C434 O453 1.240 . S
C435 Gd432 2.818 . S
C435 C436 1.510 . S
C435 O454 1.249 . S
C435 O455 1.252 . S
C436 C435 1.510 . S
C436 C437 1.404 . S
C436 C438 1.352 . S
C437 C436 1.404 . S
C437 C441 1.389 . S
C437 H464 0.930 . S
C438 C436 1.352 . S
C438 C440 1.374 . S
C438 H465 0.931 . S
C439 C440 1.359 . S
C439 C441 1.364 . S
C440 C438 1.374 . S
C440 C439 1.359 . S
C440 H466 0.931 . S
C441 C437 1.389 . S
C441 C439 1.364 . S
C441 H467 0.931 . S
C442 O456 1.256 . S
C442 O457 1.257 1_655 S
C443 O458 1.240 . S
C443 O459 1.240 . S
C444 Gd433 2.818 . S
C444 C445 1.510 . S
C444 O460 1.249 . S
C444 O461 1.252 . S
C445 C444 1.510 . S
C445 C446 1.404 . S
C445 C447 1.352 . S
C446 C445 1.404 . S
C446 C450 1.389 . S
C446 H468 0.930 . S
C447 C445 1.352 . S
C447 C449 1.374 . S
C447 H469 0.931 . S
C448 C449 1.359 . S
C448 C450 1.364 . S
C449 C447 1.374 . S
C449 C448 1.359 . S
C449 H470 0.931 . S
C450 C446 1.389 . S
C450 C448 1.364 . S
C450 H471 0.931 . S
C451 O462 1.256 . S
C451 O463 1.257 1_455 S
O452 Gd432 2.377 . S
O452 C434 1.240 . S
O453 Gd433 2.395 1_655 S
O453 C434 1.240 . S
O454 Gd432 2.448 . S
O454 C435 1.249 . S
O455 Gd432 2.506 . S
O455 C435 1.252 . S
O456 Gd432 2.435 . S
O456 C442 1.256 . S
O457 Gd432 2.717 1_455 S
O457 Gd433 2.327 . S
O457 C442 1.257 1_455 S
O458 Gd433 2.377 . S
O458 C443 1.240 . S
O459 Gd432 2.395 1_455 S
O459 C443 1.240 . S
O460 Gd433 2.448 . S
O460 C444 1.249 . S
O461 Gd433 2.506 . S
O461 C444 1.252 . S
O462 Gd433 2.435 . S
O462 C451 1.256 . S
O463 Gd432 2.327 . S
O463 Gd433 2.717 1_655 S
O463 C451 1.257 1_655 S
H464 C437 0.930 . S
H465 C438 0.931 . S
H466 C440 0.931 . S
H467 C441 0.931 . S
H468 C446 0.930 . S
H469 C447 0.931 . S
H470 C449 0.931 . S
H471 C450 0.931 . S
H472 C480 0.929 . S
H473 C482 0.930 . S
H474 C484 0.930 1_565 S
H475 C487 0.900 1_565 S
H476 C490 0.930 . S
H477 C492 0.960 . S
H478 C492 0.960 1_545 S
H479 C492 0.960 . S
C480 H472 0.929 . S
C480 C481 1.377 . S
C480 C482 1.384 . S
C481 C480 1.377 . S
C481 C487 1.390 . S
C482 H473 0.930 . S
C482 C480 1.384 . S
C482 C483 1.372 . S
C483 C482 1.372 . S
C483 C484 1.400 . S
C483 C488 1.490 . S
C484 H474 0.930 1_545 S
C484 C483 1.400 . S
C484 C487 1.386 . S
H485 C501 0.930 . S
H486 C502 0.931 1_565 S
C487 H475 0.900 1_545 S
C487 C481 1.390 . S
C487 C484 1.386 . S
C488 C483 1.490 . S
C488 C490 1.395 . S
C488 C491 1.403 . S
H489 C495 0.965 . S
C490 H476 0.930 . S
C490 C488 1.395 . S
C490 C493 1.403 . S
C491 C488 1.403 . S
C491 C492 1.524 1_545 S
C491 C495 1.400 . S
C492 H477 0.960 . S
C492 H478 0.960 1_565 S
C492 H479 0.960 . S
C492 C491 1.524 1_565 S
C493 C490 1.403 . S
C493 C494 1.392 . S
C493 C497 1.495 . S
C494 C493 1.392 . S
C494 C495 1.385 . S
C494 C496 1.478 . S
C495 H489 0.965 . S
C495 C491 1.400 . S
C495 C494 1.385 . S
C496 C494 1.478 . S
C496 C498 1.381 . S
C496 C502 1.383 . S
C497 C493 1.495 . S
C497 H503 0.959 . S
C497 H504 0.961 . S
C497 H505 0.960 . S
C498 C496 1.381 . S
C498 C499 1.394 . S
C498 H506 0.930 . S
C499 C498 1.394 . S
C499 C500 1.383 . S
C499 H507 0.929 . S
C500 C499 1.383 . S
C500 C501 1.377 1_545 S
C501 H485 0.930 . S
C501 C500 1.377 1_565 S
C501 C502 1.379 1_565 S
C502 H486 0.931 1_545 S
C502 C496 1.383 . S
C502 C501 1.379 1_545 S
H503 C497 0.959 . S
H504 C497 0.961 . S
H505 C497 0.960 . S
H506 C498 0.930 . S
H507 C499 0.929 . S
H508 C516 0.929 . S
H509 C518 0.930 . S
H510 C520 0.930 . S
H511 C523 0.929 . S
H512 C526 0.930 . S
H513 C528 0.960 . S
H514 C528 0.960 . S
H515 C528 0.960 . S
C516 H508 0.929 . S
C516 C517 1.377 . S
C516 C518 1.384 . S
C517 C516 1.377 . S
C517 C523 1.390 . S
C518 H509 0.930 . S
C518 C516 1.384 . S
C518 C519 1.372 . S
C519 C518 1.372 . S
C519 C520 1.400 . S
C519 C524 1.490 . S
C520 H510 0.930 . S
C520 C519 1.400 . S
C520 C523 1.386 . S
H521 C537 0.930 . S
H522 C538 0.931 . S
C523 H511 0.929 . S
C523 C517 1.390 . S
C523 C520 1.386 . S
C524 C519 1.490 . S
C524 C526 1.395 . S
C524 C527 1.403 . S
H525 C531 0.930 . S
C526 H512 0.930 . S
C526 C524 1.395 . S
C526 C529 1.403 . S
C527 C524 1.403 . S
C527 C528 1.524 . S
C527 C531 1.400 . S
C528 H513 0.960 . S
C528 H514 0.960 . S
C528 H515 0.960 . S
C528 C527 1.524 . S
C529 C526 1.403 . S
C529 C530 1.392 . S
C529 C533 1.495 . S
C530 C529 1.392 . S
C530 C531 1.385 . S
C530 C532 1.478 . S
C531 H525 0.930 . S
C531 C527 1.400 . S
C531 C530 1.385 . S
C532 C530 1.478 . S
C532 C534 1.381 . S
C532 C538 1.383 . S
C533 C529 1.495 . S
C533 H539 0.959 . S
C533 H540 0.961 . S
C533 H541 0.960 . S
C534 C532 1.381 . S
C534 C535 1.394 . S
C534 H542 0.930 . S
C535 C534 1.394 . S
C535 C536 1.383 . S
C535 H543 0.929 . S
C536 C535 1.383 . S
C536 C537 1.377 . S
C537 H521 0.930 . S
C537 C536 1.377 . S
C537 C538 1.379 . S
C538 H522 0.931 . S
C538 C532 1.383 . S
C538 C537 1.379 . S
H539 C533 0.959 . S
H540 C533 0.961 . S
H541 C533 0.960 . S
H542 C534 0.930 . S
H543 C535 0.929 . S
H544 C552 0.929 . S
H545 C554 0.930 . S
H546 C556 0.930 . S
H547 C559 0.929 . S
H548 C562 0.930 . S
H549 C564 0.960 . S
H550 C564 0.960 . S
H551 C564 0.960 . S
C552 H544 0.929 . S
C552 C553 1.377 . S
C552 C554 1.384 . S
C553 C552 1.377 . S
C553 C559 1.390 . S
C554 H545 0.930 . S
C554 C552 1.384 . S
C554 C555 1.372 . S
C555 C554 1.372 . S
C555 C556 1.400 . S
C555 C560 1.490 . S
C556 H546 0.930 . S
C556 C555 1.400 . S
C556 C559 1.386 . S
H557 C573 0.930 . S
H558 C574 0.931 . S
C559 H547 0.929 . S
C559 C553 1.390 . S
C559 C556 1.386 . S
C560 C555 1.490 . S
C560 C562 1.395 . S
C560 C563 1.403 . S
H561 C567 0.930 . S
C562 H548 0.930 . S
C562 C560 1.395 . S
C562 C565 1.403 . S
C563 C560 1.403 . S
C563 C564 1.524 . S
C563 C567 1.400 . S
C564 H549 0.960 . S
C564 H550 0.960 . S
C564 H551 0.960 . S
C564 C563 1.524 . S
C565 C562 1.403 . S
C565 C566 1.392 . S
C565 C569 1.495 . S
C566 C565 1.392 . S
C566 C567 1.385 . S
C566 C568 1.478 . S
C567 H561 0.930 . S
C567 C563 1.400 . S
C567 C566 1.385 . S
C568 C566 1.478 . S
C568 C570 1.381 . S
C568 C574 1.383 . S
C569 C565 1.495 . S
C569 H575 0.959 . S
C569 H576 0.961 . S
C569 H577 0.960 . S
C570 C568 1.381 . S
C570 C571 1.394 . S
C570 H578 0.930 . S
C571 C570 1.394 . S
C571 C572 1.383 . S
C571 H579 0.929 . S
C572 C571 1.383 . S
C572 C573 1.377 . S
C573 H557 0.930 . S
C573 C572 1.377 . S
C573 C574 1.379 . S
C574 H558 0.931 . S
C574 C568 1.383 . S
C574 C573 1.379 . S
H575 C569 0.959 . S
H576 C569 0.961 . S
H577 C569 0.960 . S
H578 C570 0.930 . S
H579 C571 0.929 . S
H580 C588 0.929 . S
H581 C590 0.930 . S
H582 C592 0.930 . S
H583 C595 0.929 . S
H584 C598 0.930 . S
H585 C600 0.960 . S
H586 C600 0.960 . S
H587 C600 0.960 . S
C588 H580 0.929 . S
C588 C589 1.388 . S
C588 C590 1.384 . S
C589 C588 1.388 . S
C589 C595 1.379 1_455 S
C590 H581 0.930 . S
C590 C588 1.384 . S
C590 C591 1.372 . S
C591 C590 1.372 . S
C591 C592 1.400 1_455 S
C591 C596 1.490 . S
C592 H582 0.930 . S
C592 C591 1.400 1_655 S
C592 C595 1.386 . S
H593 C609 0.930 . S
H594 C610 0.931 . S
C595 H583 0.929 . S
C595 C589 1.379 1_655 S
C595 C592 1.386 . S
C596 C591 1.490 . S
C596 C598 1.395 . S
C596 C599 1.403 1_455 S
H597 C603 0.930 . S
C598 H584 0.930 . S
C598 C596 1.395 . S
C598 C601 1.403 . S
C599 C596 1.403 1_655 S
C599 C600 1.524 . S
C599 C603 1.400 . S
C600 H585 0.960 . S
C600 H586 0.960 . S
C600 H587 0.960 . S
C600 C599 1.524 . S
C601 C598 1.403 . S
C601 C602 1.392 . S
C601 C605 1.495 . S
C602 C601 1.392 . S
C602 C603 1.385 1_455 S
C602 C604 1.478 . S
C603 H597 0.930 . S
C603 C599 1.400 . S
C603 C602 1.385 1_655 S
C604 C602 1.478 . S
C604 C606 1.381 . S
C604 C610 1.383 1_455 S
C605 C601 1.495 . S
C605 H611 0.959 . S
C605 H612 0.961 . S
C605 H613 0.960 . S
C606 C604 1.381 . S
C606 C607 1.394 . S
C606 H614 0.930 . S
C607 C606 1.394 . S
C607 C608 1.383 . S
C607 H615 0.929 . S
C608 C607 1.383 . S
C608 C609 1.377 1_455 S
C609 H593 0.930 . S
C609 C608 1.377 1_655 S
C609 C610 1.379 . S
C610 H594 0.931 . S
C610 C604 1.383 1_655 S
C610 C609 1.379 . S
H611 C605 0.959 . S
H612 C605 0.961 . S
H613 C605 0.960 . S
H614 C606 0.930 . S
H615 C607 0.929 . S
H616 C624 0.929 . S
H617 C626 0.930 . S
H618 C628 0.930 . S
H619 C631 0.929 . S
H620 C634 0.930 . S
H621 C636 0.960 . S
H622 C636 0.960 . S
H623 C636 0.960 . S
C624 H616 0.929 . S
C624 C625 1.377 . S
C624 C626 1.384 . S
C625 C624 1.377 . S
C625 C631 1.390 1_565 S
C626 H617 0.930 . S
C626 C624 1.384 . S
C626 C627 1.372 . S
C627 C626 1.372 . S
C627 C628 1.400 1_565 S
C627 C632 1.490 . S
C628 H618 0.930 . S
C628 C627 1.400 1_545 S
C628 C631 1.386 . S
H629 C645 0.930 . S
H630 C646 0.931 . S
C631 H619 0.929 . S
C631 C625 1.390 1_545 S
C631 C628 1.386 . S
C632 C627 1.490 . S
C632 C634 1.395 1_554 S
C632 C635 1.403 1_565 S
H633 C639 0.930 . S
C634 H620 0.930 . S
C634 C632 1.395 1_556 S
C634 C637 1.403 . S
C635 C632 1.403 1_545 S
C635 C636 1.524 . S
C635 C639 1.400 1_554 S
C636 H621 0.960 . S
C636 H622 0.960 . S
C636 H623 0.960 . S
C636 C635 1.524 . S
C637 C634 1.403 . S
C637 C638 1.392 . S
C637 C641 1.495 . S
C638 C637 1.392 . S
C638 C639 1.385 1_565 S
C638 C640 1.478 . S
C639 H633 0.930 . S
C639 C635 1.400 1_556 S
C639 C638 1.385 1_545 S
C640 C638 1.478 . S
C640 C642 1.381 . S
C640 C646 1.383 1_565 S
C641 C637 1.495 . S
C641 H647 0.959 . S
C641 H648 0.961 . S
C641 H649 0.960 . S
C642 C640 1.381 . S
C642 C643 1.394 . S
C642 H650 0.930 . S
C643 C642 1.394 . S
C643 C644 1.383 1_565 S
C643 H651 0.929 . S
C644 C643 1.383 1_545 S
C644 C645 1.377 . S
C645 H629 0.930 . S
C645 C644 1.377 . S
C645 C646 1.379 . S
C646 H630 0.931 . S
C646 C640 1.383 1_545 S
C646 C645 1.379 . S
H647 C641 0.959 . S
H648 C641 0.961 . S
H649 C641 0.960 . S
H650 C642 0.930 . S
H651 C643 0.929 . S
H652 C660 0.929 . S
H653 C662 0.930 . S
H654 C664 0.930 . S
H655 C667 0.929 . S
H656 C670 0.930 . S
H657 C672 0.960 . S
H658 C672 0.960 . S
H659 C672 0.960 . S
C660 H652 0.929 . S
C660 C661 1.377 . S
C660 C662 1.384 . S
C661 C660 1.377 . S
C661 C667 1.390 . S
C662 H653 0.930 . S
C662 C660 1.384 . S
C662 C663 1.372 . S
C663 C662 1.372 . S
C663 C664 1.400 . S
C663 C668 1.490 . S
C664 H654 0.930 . S
C664 C663 1.400 . S
C664 C667 1.386 . S
H665 C681 0.930 . S
H666 C682 0.931 . S
C667 H655 0.929 . S
C667 C661 1.390 . S
C667 C664 1.386 . S
C668 C663 1.490 . S
C668 C670 1.395 1_554 S
C668 C671 1.403 . S
H669 C675 0.930 . S
C670 H656 0.930 . S
C670 C668 1.395 1_556 S
C670 C673 1.403 . S
C671 C668 1.403 . S
C671 C672 1.524 . S
C671 C675 1.400 1_554 S
C672 H657 0.960 . S
C672 H658 0.960 . S
C672 H659 0.960 . S
C672 C671 1.524 . S
C673 C670 1.403 . S
C673 C674 1.392 . S
C673 C677 1.495 . S
C674 C673 1.392 . S
C674 C675 1.385 . S
C674 C676 1.478 . S
C675 H669 0.930 . S
C675 C671 1.400 1_556 S
C675 C674 1.385 . S
C676 C674 1.478 . S
C676 C678 1.381 . S
C676 C682 1.383 . S
C677 C673 1.495 . S
C677 H683 0.959 . S
C677 H684 0.961 . S
C677 H685 0.960 . S
C678 C676 1.381 . S
C678 C679 1.394 . S
C678 H686 0.930 . S
C679 C678 1.394 . S
C679 C680 1.383 . S
C679 H687 0.929 . S
C680 C679 1.383 . S
C680 C681 1.377 . S
C681 H665 0.930 . S
C681 C680 1.377 . S
C681 C682 1.379 . S
C682 H666 0.931 . S
C682 C676 1.383 . S
C682 C681 1.379 . S
H683 C677 0.959 . S
H684 C677 0.961 . S
H685 C677 0.960 . S
H686 C678 0.930 . S
H687 C679 0.929 . S
H688 C696 0.929 . S
H689 C698 0.930 . S
H690 C700 0.930 . S
H691 C703 0.929 . S
H692 C706 0.930 . S
H693 C708 0.960 . S
H694 C708 0.960 . S
H695 C708 0.960 . S
C696 H688 0.929 . S
C696 C697 1.377 . S
C696 C698 1.384 . S
C697 C696 1.377 . S
C697 C703 1.390 . S
C698 H689 0.930 . S
C698 C696 1.384 . S
C698 C699 1.372 . S
C699 C698 1.372 . S
C699 C700 1.400 . S
C699 C704 1.490 . S
C700 H690 0.930 . S
C700 C699 1.400 . S
C700 C703 1.386 . S
H701 C717 0.930 . S
H702 C718 0.931 . S
C703 H691 0.929 . S
C703 C697 1.390 . S
C703 C700 1.386 . S
C704 C699 1.490 . S
C704 C706 1.395 . S
C704 C707 1.403 1_554 S
H705 C711 0.930 . S
C706 H692 0.930 . S
C706 C704 1.395 . S
C706 C709 1.403 1_554 S
C707 C704 1.403 1_556 S
C707 C708 1.524 . S
C707 C711 1.400 . S
C708 H693 0.960 . S
C708 H694 0.960 . S
C708 H695 0.960 . S
C708 C707 1.524 . S
C709 C706 1.403 1_556 S
C709 C710 1.392 . S
C709 C713 1.495 . S
C710 C709 1.392 . S
C710 C711 1.385 . S
C710 C712 1.478 . S
C711 H705 0.930 . S
C711 C707 1.400 . S
C711 C710 1.385 . S
C712 C710 1.478 . S
C712 C714 1.381 . S
C712 C718 1.383 . S
C713 C709 1.495 . S
C713 H719 0.959 1_556 S
C713 H720 0.961 . S
C713 H721 0.960 . S
C714 C712 1.381 . S
C714 C715 1.394 . S
C714 H722 0.930 . S
C715 C714 1.394 . S
C715 C716 1.383 . S
C715 H723 0.929 . S
C716 C715 1.383 . S
C716 C717 1.377 . S
C717 H701 0.930 . S
C717 C716 1.377 . S
C717 C718 1.379 . S
C718 H702 0.931 . S
C718 C712 1.383 . S
C718 C717 1.379 . S
H719 C713 0.959 1_554 S
H720 C713 0.961 . S
H721 C713 0.960 . S
H722 C714 0.930 . S
H723 C715 0.929 . S
H724 C732 0.929 . S
H725 C734 0.930 . S
H726 C736 0.930 . S
H727 C739 0.929 . S
H728 C742 0.930 . S
H729 C744 0.960 . S
H730 C744 0.960 . S
H731 C744 0.960 . S
C732 H724 0.929 . S
C732 C733 1.375 . S
C732 C734 1.384 . S
C733 C732 1.375 . S
C733 C739 1.393 1_455 S
C734 H725 0.930 . S
C734 C732 1.384 . S
C734 C735 1.416 . S
C735 C734 1.416 . S
C735 C736 1.355 1_455 S
C735 C740 1.492 . S
C736 H726 0.930 . S
C736 C735 1.355 1_655 S
C736 C739 1.386 . S
H737 C753 0.930 . S
H738 C754 0.931 . S
C739 H727 0.929 . S
C739 C733 1.393 1_655 S
C739 C736 1.386 . S
C740 C735 1.492 . S
C740 C742 1.395 . S
C740 C743 1.403 1_454 S
H741 C747 0.930 . S
C742 H728 0.930 . S
C742 C740 1.395 . S
C742 C745 1.403 1_554 S
C743 C740 1.403 1_656 S
C743 C744 1.524 . S
C743 C747 1.400 . S
C744 H729 0.960 . S
C744 H730 0.960 . S
C744 H731 0.960 . S
C744 C743 1.524 . S
C745 C742 1.403 1_556 S
C745 C746 1.392 . S
C745 C749 1.495 . S
C746 C745 1.392 . S
C746 C747 1.385 1_455 S
C746 C748 1.478 . S
C747 H741 0.930 . S
C747 C743 1.400 . S
C747 C746 1.385 1_655 S
C748 C746 1.478 . S
C748 C750 1.381 . S
C748 C754 1.383 1_455 S
C749 C745 1.495 . S
C749 H755 0.959 1_556 S
C749 H756 0.961 . S
C749 H757 0.960 . S
C750 C748 1.381 . S
C750 C751 1.394 . S
C750 H758 0.930 . S
C751 C750 1.394 . S
C751 C752 1.380 . S
C751 H759 0.929 . S
C752 C751 1.380 . S
C752 C753 1.380 1_455 S
C753 H737 0.930 . S
C753 C752 1.380 1_655 S
C753 C754 1.379 . S
C754 H738 0.931 . S
C754 C748 1.383 1_655 S
C754 C753 1.379 . S
H755 C749 0.959 1_554 S
H756 C749 0.961 . S
H757 C749 0.960 . S
H758 C750 0.930 . S
H759 C751 0.929 . S
H760 C768 0.929 . S
H761 C770 0.930 . S
H762 C772 0.930 . S
H763 C775 0.929 . S
H764 C778 0.930 . S
H765 C780 0.964 . S
H766 C780 0.941 1_655 S
H767 C780 0.987 . S
C768 H760 0.929 . S
C768 C769 1.377 1_655 S
C768 C770 1.384 . S
C769 C768 1.377 1_455 S
C769 C775 1.390 . S
C770 H761 0.930 . S
C770 C768 1.384 . S
C770 C771 1.372 . S
C771 C770 1.372 . S
C771 C772 1.400 1_655 S
C771 C776 1.490 . S
C772 H762 0.930 . S
C772 C771 1.400 1_455 S
C772 C775 1.386 . S
H773 C789 0.953 . S
H774 C790 0.931 1_455 S
C775 H763 0.929 . S
C775 C769 1.390 . S
C775 C772 1.386 . S
C776 C771 1.490 . S
C776 C778 1.395 . S
C776 C779 1.403 . S
H777 C783 0.930 . S
C778 H764 0.930 . S
C778 C776 1.395 . S
C778 C781 1.403 . S
C779 C776 1.403 . S
C779 C780 1.513 1_655 S
C779 C783 1.400 . S
C780 H765 0.964 . S
C780 H766 0.941 1_455 S
C780 H767 0.987 . S
C780 C779 1.513 1_455 S
C781 C778 1.403 . S
C781 C782 1.392 . S
C781 C785 1.495 . S
C782 C781 1.392 . S
C782 C783 1.385 . S
C782 C784 1.478 . S
C783 H777 0.930 . S
C783 C779 1.400 . S
C783 C782 1.385 . S
C784 C782 1.478 . S
C784 C786 1.381 . S
C784 C790 1.383 . S
C785 C781 1.495 . S
C785 H791 0.959 . S
C785 H792 0.961 . S
C785 H793 0.960 . S
C786 C784 1.381 . S
C786 C787 1.394 . S
C786 H794 0.930 . S
C787 C786 1.394 . S
C787 C788 1.383 . S
C787 H795 0.929 . S
C788 C787 1.383 . S
C788 C789 1.377 . S
C789 H773 0.953 . S
C789 C788 1.377 . S
C789 C790 1.379 . S
C790 H774 0.931 1_655 S
C790 C784 1.383 . S
C790 C789 1.379 . S
H791 C785 0.959 . S
H792 C785 0.961 . S
H793 C785 0.960 . S
H794 C786 0.930 . S
H795 C787 0.929 . S
H796 C804 0.929 . S
H797 C806 0.930 1_565 S
H798 C808 0.930 . S
H799 C811 0.929 . S
H800 C814 0.930 . S
H801 C816 0.960 . S
H802 C816 0.960 . S
H803 C816 0.960 . S
C804 H796 0.929 . S
C804 C805 1.377 . S
C804 C806 1.384 . S
C805 C804 1.377 . S
C805 C811 1.390 . S
C806 H797 0.930 1_545 S
C806 C804 1.384 . S
C806 C807 1.372 . S
C807 C806 1.372 . S
C807 C808 1.400 . S
C807 C812 1.490 . S
C808 H798 0.930 . S
C808 C807 1.400 . S
C808 C811 1.386 . S
H809 C825 0.930 . S
H810 C826 0.931 . S
C811 H799 0.929 . S
C811 C805 1.390 . S
C811 C808 1.386 . S
C812 C807 1.490 . S
C812 C814 1.395 . S
C812 C815 1.403 . S
H813 C819 0.930 . S
C814 H800 0.930 . S
C814 C812 1.395 . S
C814 C817 1.396 1_545 S
C815 C812 1.403 . S
C815 C816 1.524 . S
C815 C819 1.400 . S
C816 H801 0.960 . S
C816 H802 0.960 . S
C816 H803 0.960 . S
C816 C815 1.524 . S
C817 C814 1.396 1_565 S
C817 C818 1.390 1_565 S
C817 C821 1.505 . S
C818 C817 1.390 1_545 S
C818 C819 1.385 . S
C818 C820 1.478 1_545 S
C819 H813 0.930 . S
C819 C815 1.400 . S
C819 C818 1.385 . S
C820 C818 1.478 1_565 S
C820 C822 1.381 . S
C820 C826 1.383 1_565 S
C821 C817 1.505 . S
C821 H827 0.959 . S
C821 H828 0.959 . S
C821 H829 0.960 . S
C822 C820 1.381 . S
C822 C823 1.394 . S
C822 H830 0.930 . S
C823 C822 1.394 . S
C823 C824 1.383 . S
C823 H831 0.929 . S
C824 C823 1.383 . S
C824 C825 1.377 1_565 S
C825 H809 0.930 . S
C825 C824 1.377 1_545 S
C825 C826 1.379 . S
C826 H810 0.931 . S
C826 C820 1.383 1_545 S
C826 C825 1.379 . S
H827 C821 0.959 . S
H828 C821 0.959 . S
H829 C821 0.960 . S
H830 C822 0.930 . S
H831 C823 0.929 . S
H832 C840 0.929 . S
H833 C842 0.930 . S
H834 C844 0.930 . S
H835 C847 0.929 . S
H836 C850 0.930 . S
H837 C852 0.960 . S
H838 C852 0.960 . S
H839 C852 0.960 . S
C840 H832 0.929 . S
C840 C841 1.377 . S
C840 C842 1.384 . S
C841 C840 1.377 . S
C841 C847 1.390 . S
C842 H833 0.930 . S
C842 C840 1.384 . S
C842 C843 1.372 . S
C843 C842 1.372 . S
C843 C844 1.400 . S
C843 C848 1.490 . S
C844 H834 0.930 . S
C844 C843 1.400 . S
C844 C847 1.386 . S
H845 C861 0.930 . S
H846 C862 0.931 . S
C847 H835 0.929 . S
C847 C841 1.390 . S
C847 C844 1.386 . S
C848 C843 1.490 . S
C848 C850 1.395 . S
C848 C851 1.403 . S
H849 C855 0.930 . S
C850 H836 0.930 . S
C850 C848 1.395 . S
C850 C853 1.403 . S
C851 C848 1.403 . S
C851 C852 1.524 . S
C851 C855 1.400 . S
C852 H837 0.960 . S
C852 H838 0.960 . S
C852 H839 0.960 . S
C852 C851 1.524 . S
C853 C850 1.403 . S
C853 C854 1.392 . S
C853 C857 1.495 . S
C854 C853 1.392 . S
C854 C855 1.385 . S
C854 C856 1.478 . S
C855 H849 0.930 . S
C855 C851 1.400 . S
C855 C854 1.385 . S
C856 C854 1.478 . S
C856 C858 1.381 . S
C856 C862 1.383 . S
C857 C853 1.495 . S
C857 H863 0.959 . S
C857 H864 0.961 . S
C857 H865 0.960 . S
C858 C856 1.381 . S
C858 C859 1.394 . S
C858 H866 0.930 . S
C859 C858 1.394 . S
C859 C860 1.383 . S
C859 H867 0.929 . S
C860 C859 1.383 . S
C860 C861 1.377 . S
C861 H845 0.930 . S
C861 C860 1.377 . S
C861 C862 1.379 . S
C862 H846 0.931 . S
C862 C856 1.383 . S
C862 C861 1.379 . S
H863 C857 0.959 . S
H864 C857 0.961 . S
H865 C857 0.960 . S
H866 C858 0.930 . S
H867 C859 0.929 . S
H868 C876 0.929 . S
H869 C878 0.930 . S
H870 C880 0.930 . S
H871 C883 0.929 . S
H872 C886 0.930 . S
H873 C888 0.960 . S
H874 C888 0.960 . S
H875 C888 0.960 . S
C876 H868 0.929 . S
C876 C877 1.377 . S
C876 C878 1.384 . S
C877 C876 1.377 . S
C877 C883 1.390 . S
C878 H869 0.930 . S
C878 C876 1.384 . S
C878 C879 1.372 . S
C879 C878 1.372 . S
C879 C880 1.400 . S
C879 C884 1.490 . S
C880 H870 0.930 . S
C880 C879 1.400 . S
C880 C883 1.386 . S
H881 C897 0.930 . S
H882 C898 0.931 . S
C883 H871 0.929 . S
C883 C877 1.390 . S
C883 C880 1.386 . S
C884 C879 1.490 . S
C884 C886 1.395 . S
C884 C887 1.403 . S
H885 C891 0.930 . S
C886 H872 0.930 . S
C886 C884 1.395 . S
C886 C889 1.403 . S
C887 C884 1.403 . S
C887 C888 1.524 . S
C887 C891 1.400 . S
C888 H873 0.960 . S
C888 H874 0.960 . S
C888 H875 0.960 . S
C888 C887 1.524 . S
C889 C886 1.403 . S
C889 C890 1.392 . S
C889 C893 1.495 . S
C890 C889 1.392 . S
C890 C891 1.385 . S
C890 C892 1.478 . S
C891 H885 0.930 . S
C891 C887 1.400 . S
C891 C890 1.385 . S
C892 C890 1.478 . S
C892 C894 1.381 . S
C892 C898 1.383 . S
C893 C889 1.495 . S
C893 H899 0.959 . S
C893 H900 0.961 . S
C893 H901 0.960 . S
C894 C892 1.381 . S
C894 C895 1.394 . S
C894 H902 0.930 . S
C895 C894 1.394 . S
C895 C896 1.383 . S
C895 H903 0.929 . S
C896 C895 1.383 . S
C896 C897 1.377 . S
C897 H881 0.930 . S
C897 C896 1.377 . S
C897 C898 1.379 . S
C898 H882 0.931 . S
C898 C892 1.383 . S
C898 C897 1.379 . S
H899 C893 0.959 . S
H900 C893 0.961 . S
H901 C893 0.960 . S
H902 C894 0.930 . S
H903 C895 0.929 . S
H904 C912 0.929 . S
H905 C914 0.930 . S
H906 C916 0.930 1_556 S
H907 C919 0.929 . S
H908 C922 0.930 . S
H909 C924 0.960 1_556 S
H910 C924 0.960 . S
H911 C924 0.960 1_556 S
C912 H904 0.929 . S
C912 C913 1.377 1_455 S
C912 C914 1.384 . S
C913 C912 1.377 1_655 S
C913 C919 1.390 . S
C914 H905 0.930 . S
C914 C912 1.384 . S
C914 C915 1.372 . S
C915 C914 1.372 . S
C915 C916 1.400 1_455 S
C915 C920 1.490 . S
C916 H906 0.930 1_554 S
C916 C915 1.400 1_655 S
C916 C919 1.386 . S
H917 C933 0.930 . S
H918 C934 0.931 . S
C919 H907 0.929 . S
C919 C913 1.390 . S
C919 C916 1.386 . S
C920 C915 1.490 . S
C920 C922 1.395 1_554 S
C920 C923 1.403 1_454 S
H921 C927 0.930 1_655 S
C922 H908 0.930 . S
C922 C920 1.395 1_556 S
C922 C925 1.403 . S
C923 C920 1.403 1_656 S
C923 C924 1.524 1_556 S
C923 C927 1.400 1_655 S
C924 H909 0.960 1_554 S
C924 H910 0.960 . S
C924 H911 0.960 1_554 S
C924 C923 1.524 1_554 S
C925 C922 1.403 . S
C925 C926 1.392 . S
C925 C929 1.495 . S
C926 C925 1.392 . S
C926 C927 1.385 . S
C926 C928 1.478 . S
C927 H921 0.930 1_455 S
C927 C923 1.400 1_455 S
C927 C926 1.385 . S
C928 C926 1.478 . S
C928 C930 1.381 . S
C928 C934 1.383 . S
C929 C925 1.495 . S
C929 H935 0.959 . S
C929 H936 0.961 . S
C929 H937 0.960 . S
C930 C928 1.381 . S
C930 C931 1.394 . S
C930 H938 0.930 . S
C931 C930 1.394 . S
C931 C932 1.383 . S
C931 H939 0.929 . S
C932 C931 1.383 . S
C932 C933 1.377 . S
C933 H917 0.930 . S
C933 C932 1.377 . S
C933 C934 1.379 . S
C934 H918 0.931 . S
C934 C928 1.383 . S
C934 C933 1.379 . S
H935 C929 0.959 . S
H936 C929 0.961 . S
H937 C929 0.960 . S
H938 C930 0.930 . S
H939 C931 0.929 . S
H940 C948 0.929 . S
H941 C950 0.930 . S
H942 C952 0.930 . S
H943 C955 0.929 . S
H944 C958 0.930 . S
H945 C960 0.969 . S
H946 C960 0.998 . S
H947 C960 0.908 1_565 S
C948 H940 0.929 . S
C948 C949 1.377 1_545 S
C948 C950 1.384 . S
C949 C948 1.377 1_565 S
C949 C955 1.390 . S
C950 H941 0.930 . S
C950 C948 1.384 . S
C950 C951 1.372 1_545 S
C951 C950 1.372 1_565 S
C951 C952 1.400 . S
C951 C956 1.490 1_564 S
C952 H942 0.930 . S
C952 C951 1.400 . S
C952 C955 1.386 . S
H953 C969 0.930 . S
H954 C970 0.931 1_565 S
C955 H943 0.929 . S
C955 C949 1.390 . S
C955 C952 1.386 . S
C956 C951 1.490 1_546 S
C956 C958 1.395 . S
C956 C959 1.403 1_556 S
H957 C963 0.930 1_554 S
C958 H944 0.930 . S
C958 C956 1.395 . S
C958 C961 1.403 . S
C959 C956 1.403 1_554 S
C959 C960 1.533 . S
C959 C963 1.400 1_554 S
C960 H945 0.969 . S
C960 H946 0.998 . S
C960 H947 0.908 1_545 S
C960 C959 1.533 . S
C961 C958 1.403 . S
C961 C962 1.392 . S
C961 C965 1.495 . S
C962 C961 1.392 . S
C962 C963 1.385 . S
C962 C964 1.478 . S
C963 H957 0.930 1_556 S
C963 C959 1.400 1_556 S
C963 C962 1.385 . S
C964 C962 1.478 . S
C964 C966 1.381 . S
C964 C970 1.383 . S
C965 C961 1.495 . S
C965 H971 0.959 . S
C965 H972 0.961 . S
C965 H973 0.960 . S
C966 C964 1.381 . S
C966 C967 1.394 . S
C966 H974 0.930 . S
C967 C966 1.394 . S
C967 C968 1.383 . S
C967 H975 0.929 . S
C968 C967 1.383 . S
C968 C969 1.377 . S
C969 H953 0.930 . S
C969 C968 1.377 . S
C969 C970 1.379 . S
C970 H954 0.931 1_545 S
C970 C964 1.383 . S
C970 C969 1.379 . S
H971 C965 0.959 . S
H972 C965 0.961 . S
H973 C965 0.960 . S
H974 C966 0.930 . S
H975 C967 0.929 . S
H976 C984 0.929 . S
H977 C986 0.930 . S
H978 C988 0.930 . S
H979 C991 0.929 . S
H980 C994 0.930 . S
H981 C996 0.960 . S
H982 C996 0.960 . S
H983 C996 0.960 . S
C984 H976 0.929 . S
C984 C985 1.377 . S
C984 C986 1.384 . S
C985 C984 1.377 . S
C985 C991 1.390 . S
C986 H977 0.930 . S
C986 C984 1.384 . S
C986 C987 1.372 . S
C987 C986 1.372 . S
C987 C988 1.400 . S
C987 C992 1.490 . S
C988 H978 0.930 . S
C988 C987 1.400 . S
C988 C991 1.386 . S
H989 C1005 0.930 . S
H990 C1006 0.931 . S
C991 H979 0.929 . S
C991 C985 1.390 . S
C991 C988 1.386 . S
C992 C987 1.490 . S
C992 C994 1.395 1_554 S
C992 C995 1.403 . S
H993 C999 0.930 . S
C994 H980 0.930 . S
C994 C992 1.395 1_556 S
C994 C997 1.403 . S
C995 C992 1.403 . S
C995 C996 1.524 . S
C995 C999 1.400 1_554 S
C996 H981 0.960 . S
C996 H982 0.960 . S
C996 H983 0.960 . S
C996 C995 1.524 . S
C997 C994 1.403 . S
C997 C998 1.392 . S
C997 C1001 1.495 . S
C998 C997 1.392 . S
C998 C999 1.385 . S
C998 C1000 1.478 . S
C999 H993 0.930 . S
C999 C995 1.400 1_556 S
C999 C998 1.385 . S
C1000 C998 1.478 . S
C1000 C1002 1.381 . S
C1000 C1006 1.383 . S
C1001 C997 1.495 . S
C1001 H1007 0.959 . S
C1001 H1008 0.961 . S
C1001 H1009 0.960 . S
C1002 C1000 1.381 . S
C1002 C1003 1.394 . S
C1002 H1010 0.930 . S
C1003 C1002 1.394 . S
C1003 C1004 1.383 . S
C1003 H1011 0.929 . S
C1004 C1003 1.383 . S
C1004 C1005 1.377 . S
C1005 H989 0.930 . S
C1005 C1004 1.377 . S
C1005 C1006 1.379 . S
C1006 H990 0.931 . S
C1006 C1000 1.383 . S
C1006 C1005 1.379 . S
H1007 C1001 0.959 . S
H1008 C1001 0.961 . S
H1009 C1001 0.960 . S
H1010 C1002 0.930 . S
H1011 C1003 0.929 . S
H1012 C1020 0.929 . S
H1013 C1022 0.930 . S
H1014 C1024 0.930 . S
H1015 C1027 0.929 . S
H1016 C1030 0.930 . S
H1017 C1032 0.960 . S
H1018 C1032 0.960 . S
H1019 C1032 0.960 . S
C1020 H1012 0.929 . S
C1020 C1021 1.377 . S
C1020 C1022 1.384 . S
C1021 C1020 1.377 . S
C1021 C1027 1.390 . S
C1022 H1013 0.930 . S
C1022 C1020 1.384 . S
C1022 C1023 1.372 . S
C1023 C1022 1.372 . S
C1023 C1024 1.400 . S
C1023 C1028 1.490 1_554 S
C1024 H1014 0.930 . S
C1024 C1023 1.400 . S
C1024 C1027 1.386 . S
H1025 C1041 0.930 . S
H1026 C1042 0.931 . S
C1027 H1015 0.929 . S
C1027 C1021 1.390 . S
C1027 C1024 1.386 . S
C1028 C1023 1.490 1_556 S
C1028 C1030 1.395 1_556 S
C1028 C1031 1.403 . S
H1029 C1035 0.930 . S
C1030 H1016 0.930 . S
C1030 C1028 1.395 1_554 S
C1030 C1033 1.403 1_554 S
C1031 C1028 1.403 . S
C1031 C1032 1.524 . S
C1031 C1035 1.400 . S
C1032 H1017 0.960 . S
C1032 H1018 0.960 . S
C1032 H1019 0.960 . S
C1032 C1031 1.524 . S
C1033 C1030 1.403 1_556 S
C1033 C1034 1.392 . S
C1033 C1037 1.495 1_556 S
C1034 C1033 1.392 . S
C1034 C1035 1.385 . S
C1034 C1036 1.478 . S
C1035 H1029 0.930 . S
C1035 C1031 1.400 . S
C1035 C1034 1.385 . S
C1036 C1034 1.478 . S
C1036 C1038 1.381 . S
C1036 C1042 1.383 . S
C1037 C1033 1.495 1_554 S
C1037 H1043 0.959 . S
C1037 H1044 0.961 . S
C1037 H1045 0.960 1_554 S
C1038 C1036 1.381 . S
C1038 C1039 1.394 . S
C1038 H1046 0.930 . S
C1039 C1038 1.394 . S
C1039 C1040 1.383 . S
C1039 H1047 0.929 . S
C1040 C1039 1.383 . S
C1040 C1041 1.377 . S
C1041 H1025 0.930 . S
C1041 C1040 1.377 . S
C1041 C1042 1.379 . S
C1042 H1026 0.931 . S
C1042 C1036 1.383 . S
C1042 C1041 1.379 . S
H1043 C1037 0.959 . S
H1044 C1037 0.961 . S
H1045 C1037 0.960 1_556 S
H1046 C1038 0.930 . S
H1047 C1039 0.929 . S
H1048 C1056 0.929 . S
H1049 C1058 0.930 . S
H1050 C1060 0.930 . S
H1051 C1063 0.929 . S
H1052 C1066 0.930 . S
H1053 C1068 0.960 . S
H1054 C1068 0.960 . S
H1055 C1068 0.960 . S
C1056 H1048 0.929 . S
C1056 C1057 1.377 1_655 S
C1056 C1058 1.384 . S
C1057 C1056 1.377 1_455 S
C1057 C1063 1.390 . S
C1058 H1049 0.930 . S
C1058 C1056 1.384 . S
C1058 C1059 1.372 1_655 S
C1059 C1058 1.372 1_455 S
C1059 C1060 1.400 . S
C1059 C1064 1.490 . S
C1060 H1050 0.930 . S
C1060 C1059 1.400 . S
C1060 C1063 1.386 . S
H1061 C1077 0.930 . S
H1062 C1078 0.931 . S
C1063 H1051 0.929 . S
C1063 C1057 1.390 . S
C1063 C1060 1.386 . S
C1064 C1059 1.490 . S
C1064 C1066 1.395 1_455 S
C1064 C1067 1.403 . S
H1065 C1071 0.930 . S
C1066 H1052 0.930 . S
C1066 C1064 1.395 1_655 S
C1066 C1069 1.403 . S
C1067 C1064 1.403 . S
C1067 C1068 1.524 . S
C1067 C1071 1.400 . S
C1068 H1053 0.960 . S
C1068 H1054 0.960 . S
C1068 H1055 0.960 . S
C1068 C1067 1.524 . S
C1069 C1066 1.403 . S
C1069 C1070 1.392 1_655 S
C1069 C1073 1.495 . S
C1070 C1069 1.392 1_455 S
C1070 C1071 1.385 . S
C1070 C1072 1.478 . S
C1071 H1065 0.930 . S
C1071 C1067 1.400 . S
C1071 C1070 1.385 . S
C1072 C1070 1.478 . S
C1072 C1074 1.381 . S
C1072 C1078 1.383 . S
C1073 C1069 1.495 . S
C1073 H1079 0.959 . S
C1073 H1080 0.961 . S
C1073 H1081 0.960 . S
C1074 C1072 1.381 . S
C1074 C1075 1.394 . S
C1074 H1082 0.930 1_455 S
C1075 C1074 1.394 . S
C1075 C1076 1.383 . S
C1075 H1083 0.929 . S
C1076 C1075 1.383 . S
C1076 C1077 1.377 . S
C1077 H1061 0.930 . S
C1077 C1076 1.377 . S
C1077 C1078 1.379 . S
C1078 H1062 0.931 . S
C1078 C1072 1.383 . S
C1078 C1077 1.379 . S
H1079 C1073 0.959 . S
H1080 C1073 0.961 . S
H1081 C1073 0.960 . S
H1082 C1074 0.930 1_655 S
H1083 C1075 0.929 . S
H1084 C1092 0.929 . S
H1085 C1094 0.930 . S
H1086 C1096 0.930 . S
H1087 C1099 0.929 . S
H1088 C1102 0.930 . S
H1089 C1104 0.960 . S
H1090 C1104 0.960 . S
H1091 C1104 0.960 . S
C1092 H1084 0.929 . S
C1092 C1093 1.377 . S
C1092 C1094 1.384 . S
C1093 C1092 1.377 . S
C1093 C1099 1.390 . S
C1094 H1085 0.930 . S
C1094 C1092 1.384 . S
C1094 C1095 1.372 . S
C1095 C1094 1.372 . S
C1095 C1096 1.400 . S
C1095 C1100 1.490 . S
C1096 H1086 0.930 . S
C1096 C1095 1.400 . S
C1096 C1099 1.386 . S
H1097 C1113 0.930 1_565 S
H1098 C1114 0.931 1_565 S
C1099 H1087 0.929 . S
C1099 C1093 1.390 . S
C1099 C1096 1.386 . S
C1100 C1095 1.490 . S
C1100 C1102 1.395 . S
C1100 C1103 1.403 . S
H1101 C1107 0.930 . S
C1102 H1088 0.930 . S
C1102 C1100 1.395 . S
C1102 C1105 1.403 . S
C1103 C1100 1.403 . S
C1103 C1104 1.524 . S
C1103 C1107 1.400 . S
C1104 H1089 0.960 . S
C1104 H1090 0.960 . S
C1104 H1091 0.960 . S
C1104 C1103 1.524 . S
C1105 C1102 1.403 . S
C1105 C1106 1.392 . S
C1105 C1109 1.495 . S
C1106 C1105 1.392 . S
C1106 C1107 1.385 . S
C1106 C1108 1.478 . S
C1107 H1101 0.930 . S
C1107 C1103 1.400 . S
C1107 C1106 1.385 . S
C1108 C1106 1.478 . S
C1108 C1110 1.381 . S
C1108 C1114 1.383 . S
C1109 C1105 1.495 . S
C1109 H1115 0.959 . S
C1109 H1116 0.961 . S
C1109 H1117 0.960 . S
C1110 C1108 1.381 . S
C1110 C1111 1.394 . S
C1110 H1118 0.930 . S
C1111 C1110 1.394 . S
C1111 C1112 1.383 . S
C1111 H1119 0.929 . S
C1112 C1111 1.383 . S
C1112 C1113 1.377 . S
C1113 H1097 0.930 1_545 S
C1113 C1112 1.377 . S
C1113 C1114 1.379 . S
C1114 H1098 0.931 1_545 S
C1114 C1108 1.383 . S
C1114 C1113 1.379 . S
H1115 C1109 0.959 . S
H1116 C1109 0.961 . S
H1117 C1109 0.960 . S
H1118 C1110 0.930 . S
H1119 C1111 0.929 . S
H1120 C1128 0.929 . S
H1121 C1130 0.930 . S
H1122 C1132 0.930 . S
H1123 C1135 0.929 . S
H1124 C1138 0.930 . S
H1125 C1140 0.960 . S
H1126 C1140 0.960 . S
H1127 C1140 0.960 . S
C1128 H1120 0.929 . S
C1128 C1129 1.377 . S
C1128 C1130 1.384 . S
C1129 C1128 1.377 . S
C1129 C1135 1.390 . S
C1130 H1121 0.930 . S
C1130 C1128 1.384 . S
C1130 C1131 1.372 . S
C1131 C1130 1.372 . S
C1131 C1132 1.400 . S
C1131 C1136 1.490 . S
C1132 H1122 0.930 . S
C1132 C1131 1.400 . S
C1132 C1135 1.386 . S
H1133 C1149 0.930 . S
H1134 C1150 0.931 . S
C1135 H1123 0.929 . S
C1135 C1129 1.390 . S
C1135 C1132 1.386 . S
C1136 C1131 1.490 . S
C1136 C1138 1.395 . S
C1136 C1139 1.403 . S
H1137 C1143 0.930 . S
C1138 H1124 0.930 . S
C1138 C1136 1.395 . S
C1138 C1141 1.403 . S
C1139 C1136 1.403 . S
C1139 C1140 1.524 . S
C1139 C1143 1.400 . S
C1140 H1125 0.960 . S
C1140 H1126 0.960 . S
C1140 H1127 0.960 . S
C1140 C1139 1.524 . S
C1141 C1138 1.403 . S
C1141 C1142 1.392 . S
C1141 C1145 1.495 . S
C1142 C1141 1.392 . S
C1142 C1143 1.385 . S
C1142 C1144 1.478 . S
C1143 H1137 0.930 . S
C1143 C1139 1.400 . S
C1143 C1142 1.385 . S
C1144 C1142 1.478 . S
C1144 C1146 1.381 . S
C1144 C1150 1.383 . S
C1145 C1141 1.495 . S
C1145 H1151 0.959 . S
C1145 H1152 0.961 . S
C1145 H1153 0.960 . S
C1146 C1144 1.381 . S
C1146 C1147 1.394 . S
C1146 H1154 0.930 . S
C1147 C1146 1.394 . S
C1147 C1148 1.383 . S
C1147 H1155 0.929 . S
C1148 C1147 1.383 . S
C1148 C1149 1.377 . S
C1149 H1133 0.930 . S
C1149 C1148 1.377 . S
C1149 C1150 1.379 . S
C1150 H1134 0.931 . S
C1150 C1144 1.383 . S
C1150 C1149 1.379 . S
H1151 C1145 0.959 . S
H1152 C1145 0.961 . S
H1153 C1145 0.960 . S
H1154 C1146 0.930 . S
H1155 C1147 0.929 . S
H1156 C1164 0.929 . S
H1157 C1166 0.930 . S
H1158 C1168 0.930 . S
H1159 C1171 0.929 . S
H1160 C1174 0.930 . S
H1161 C1176 0.960 . S
H1162 C1176 0.960 . S
H1163 C1176 0.960 . S
C1164 H1156 0.929 . S
C1164 C1165 1.377 . S
C1164 C1166 1.384 . S
C1165 C1164 1.377 . S
C1165 C1171 1.390 . S
C1166 H1157 0.930 . S
C1166 C1164 1.384 . S
C1166 C1167 1.372 . S
C1167 C1166 1.372 . S
C1167 C1168 1.400 . S
C1167 C1172 1.490 . S
C1168 H1158 0.930 . S
C1168 C1167 1.400 . S
C1168 C1171 1.386 . S
H1169 C1185 0.930 . S
H1170 C1186 0.931 . S
C1171 H1159 0.929 . S
C1171 C1165 1.390 . S
C1171 C1168 1.386 . S
C1172 C1167 1.490 . S
C1172 C1174 1.395 . S
C1172 C1175 1.403 . S
H1173 C1179 0.930 . S
C1174 H1160 0.930 . S
C1174 C1172 1.395 . S
C1174 C1177 1.403 . S
C1175 C1172 1.403 . S
C1175 C1176 1.524 . S
C1175 C1179 1.400 . S
C1176 H1161 0.960 . S
C1176 H1162 0.960 . S
C1176 H1163 0.960 . S
C1176 C1175 1.524 . S
C1177 C1174 1.403 . S
C1177 C1178 1.392 . S
C1177 C1181 1.495 . S
C1178 C1177 1.392 . S
C1178 C1179 1.385 . S
C1178 C1180 1.478 . S
C1179 H1173 0.930 . S
C1179 C1175 1.400 . S
C1179 C1178 1.385 . S
C1180 C1178 1.478 . S
C1180 C1182 1.381 . S
C1180 C1186 1.383 . S
C1181 C1177 1.495 . S
C1181 H1187 0.959 . S
C1181 H1188 0.961 . S
C1181 H1189 0.960 . S
C1182 C1180 1.381 . S
C1182 C1183 1.394 . S
C1182 H1190 0.930 . S
C1183 C1182 1.394 . S
C1183 C1184 1.383 . S
C1183 H1191 0.929 . S
C1184 C1183 1.383 . S
C1184 C1185 1.377 . S
C1185 H1169 0.930 . S
C1185 C1184 1.377 . S
C1185 C1186 1.379 . S
C1186 H1170 0.931 . S
C1186 C1180 1.383 . S
C1186 C1185 1.379 . S
H1187 C1181 0.959 . S
H1188 C1181 0.961 . S
H1189 C1181 0.960 . S
H1190 C1182 0.930 . S
H1191 C1183 0.929 . S
H1192 C1200 0.929 . S
H1193 C1202 0.930 . S
H1194 C1204 0.930 . S
H1195 C1207 0.929 . S
H1196 C1210 0.930 . S
H1197 C1212 0.960 . S
H1198 C1212 0.960 . S
H1199 C1212 0.960 . S
C1200 H1192 0.929 . S
C1200 C1201 1.377 . S
C1200 C1202 1.384 . S
C1201 C1200 1.377 . S
C1201 C1207 1.390 1_655 S
C1202 H1193 0.930 . S
C1202 C1200 1.384 . S
C1202 C1203 1.372 . S
C1203 C1202 1.372 . S
C1203 C1204 1.400 1_655 S
C1203 C1208 1.490 . S
C1204 H1194 0.930 . S
C1204 C1203 1.400 1_455 S
C1204 C1207 1.386 . S
H1205 C1221 0.930 . S
H1206 C1222 0.931 . S
C1207 H1195 0.929 . S
C1207 C1201 1.390 1_455 S
C1207 C1204 1.386 . S
C1208 C1203 1.490 . S
C1208 C1210 1.395 . S
C1208 C1211 1.403 1_655 S
H1209 C1215 0.930 . S
C1210 H1196 0.930 . S
C1210 C1208 1.395 . S
C1210 C1213 1.403 . S
C1211 C1208 1.403 1_455 S
C1211 C1212 1.524 . S
C1211 C1215 1.400 . S
C1212 H1197 0.960 . S
C1212 H1198 0.960 . S
C1212 H1199 0.960 . S
C1212 C1211 1.524 . S
C1213 C1210 1.403 . S
C1213 C1214 1.392 . S
C1213 C1217 1.495 . S
C1214 C1213 1.392 . S
C1214 C1215 1.385 1_655 S
C1214 C1216 1.478 . S
C1215 H1209 0.930 . S
C1215 C1211 1.400 . S
C1215 C1214 1.385 1_455 S
C1216 C1214 1.478 . S
C1216 C1218 1.381 . S
C1216 C1222 1.383 1_655 S
C1217 C1213 1.495 . S
C1217 H1223 0.959 . S
C1217 H1224 0.961 . S
C1217 H1225 0.960 . S
C1218 C1216 1.381 . S
C1218 C1219 1.394 . S
C1218 H1226 0.930 . S
C1219 C1218 1.394 . S
C1219 C1220 1.383 . S
C1219 H1227 0.929 . S
C1220 C1219 1.383 . S
C1220 C1221 1.377 1_655 S
C1221 H1205 0.930 . S
C1221 C1220 1.377 1_455 S
C1221 C1222 1.379 . S
C1222 H1206 0.931 . S
C1222 C1216 1.383 1_455 S
C1222 C1221 1.379 . S
H1223 C1217 0.959 . S
H1224 C1217 0.961 . S
H1225 C1217 0.960 . S
H1226 C1218 0.930 . S
H1227 C1219 0.929 . S
H1228 C1236 0.929 . S
H1229 C1238 0.930 . S
H1230 C1240 0.930 . S
H1231 C1243 0.929 . S
H1232 C1246 0.930 . S
H1233 C1248 0.960 . S
H1234 C1248 0.960 . S
H1235 C1248 0.960 . S
C1236 H1228 0.929 . S
C1236 C1237 1.377 . S
C1236 C1238 1.384 . S
C1237 C1236 1.377 . S
C1237 C1243 1.390 1_565 S
C1238 H1229 0.930 . S
C1238 C1236 1.384 . S
C1238 C1239 1.372 . S
C1239 C1238 1.372 . S
C1239 C1240 1.400 1_565 S
C1239 C1244 1.490 . S
C1240 H1230 0.930 . S
C1240 C1239 1.400 1_545 S
C1240 C1243 1.386 . S
H1241 C1257 0.930 . S
H1242 C1258 0.931 . S
C1243 H1231 0.929 . S
C1243 C1237 1.390 1_545 S
C1243 C1240 1.386 . S
C1244 C1239 1.490 . S
C1244 C1246 1.395 . S
C1244 C1247 1.403 1_565 S
H1245 C1251 0.930 . S
C1246 H1232 0.930 . S
C1246 C1244 1.395 . S
C1246 C1249 1.403 . S
C1247 C1244 1.403 1_545 S
C1247 C1248 1.524 . S
C1247 C1251 1.400 . S
C1248 H1233 0.960 . S
C1248 H1234 0.960 . S
C1248 H1235 0.960 . S
C1248 C1247 1.524 . S
C1249 C1246 1.403 . S
C1249 C1250 1.392 . S
C1249 C1253 1.495 . S
C1250 C1249 1.392 . S
C1250 C1251 1.385 1_565 S
C1250 C1252 1.478 . S
C1251 H1245 0.930 . S
C1251 C1247 1.400 . S
C1251 C1250 1.385 1_545 S
C1252 C1250 1.478 . S
C1252 C1254 1.381 . S
C1252 C1258 1.383 1_565 S
C1253 C1249 1.495 . S
C1253 H1259 0.959 . S
C1253 H1260 0.961 . S
C1253 H1261 0.960 . S
C1254 C1252 1.381 . S
C1254 C1255 1.394 . S
C1254 H1262 0.930 . S
C1255 C1254 1.394 . S
C1255 C1256 1.383 . S
C1255 H1263 0.929 . S
C1256 C1255 1.383 . S
C1256 C1257 1.377 1_565 S
C1257 H1241 0.930 . S
C1257 C1256 1.377 1_545 S
C1257 C1258 1.379 . S
C1258 H1242 0.931 . S
C1258 C1252 1.383 1_545 S
C1258 C1257 1.379 . S
H1259 C1253 0.959 . S
H1260 C1253 0.961 . S
H1261 C1253 0.960 . S
H1262 C1254 0.930 . S
H1263 C1255 0.929 . S
H1264 C1272 0.929 . S
H1265 C1274 0.930 . S
H1266 C1276 0.930 . S
H1267 C1279 0.929 . S
H1268 C1282 0.930 . S
H1269 C1284 0.960 . S
H1270 C1284 0.960 . S
H1271 C1284 0.960 . S
C1272 H1264 0.929 . S
C1272 C1273 1.377 . S
C1272 C1274 1.384 . S
C1273 C1272 1.377 . S
C1273 C1279 1.390 . S
C1274 H1265 0.930 . S
C1274 C1272 1.384 . S
C1274 C1275 1.372 . S
C1275 C1274 1.372 . S
C1275 C1276 1.400 . S
C1275 C1280 1.490 . S
C1276 H1266 0.930 . S
C1276 C1275 1.400 . S
C1276 C1279 1.386 . S
H1277 C1293 0.930 . S
H1278 C1294 0.931 . S
C1279 H1267 0.929 . S
C1279 C1273 1.390 . S
C1279 C1276 1.386 . S
C1280 C1275 1.490 . S
C1280 C1282 1.395 . S
C1280 C1283 1.403 . S
H1281 C1287 0.930 . S
C1282 H1268 0.930 . S
C1282 C1280 1.395 . S
C1282 C1285 1.403 . S
C1283 C1280 1.403 . S
C1283 C1284 1.524 . S
C1283 C1287 1.400 . S
C1284 H1269 0.960 . S
C1284 H1270 0.960 . S
C1284 H1271 0.960 . S
C1284 C1283 1.524 . S
C1285 C1282 1.403 . S
C1285 C1286 1.392 . S
C1285 C1289 1.495 . S
C1286 C1285 1.392 . S
C1286 C1287 1.385 . S
C1286 C1288 1.478 . S
C1287 H1281 0.930 . S
C1287 C1283 1.400 . S
C1287 C1286 1.385 . S
C1288 C1286 1.478 . S
C1288 C1290 1.381 . S
C1288 C1294 1.383 . S
C1289 C1285 1.495 . S
C1289 H1295 0.959 . S
C1289 H1296 0.961 . S
C1289 H1297 0.960 . S
C1290 C1288 1.381 . S
C1290 C1291 1.394 . S
C1290 H1298 0.930 . S
C1291 C1290 1.394 . S
C1291 C1292 1.383 . S
C1291 H1299 0.929 . S
C1292 C1291 1.383 . S
C1292 C1293 1.377 . S
C1293 H1277 0.930 . S
C1293 C1292 1.377 . S
C1293 C1294 1.379 . S
C1294 H1278 0.931 . S
C1294 C1288 1.383 . S
C1294 C1293 1.379 . S
H1295 C1289 0.959 . S
H1296 C1289 0.961 . S
H1297 C1289 0.960 . S
H1298 C1290 0.930 . S
H1299 C1291 0.929 . S
H1300 C1308 0.929 . S
H1301 C1310 0.930 . S
H1302 C1312 0.930 . S
H1303 C1315 0.929 . S
H1304 C1318 0.930 . S
H1305 C1320 0.960 . S
H1306 C1320 0.960 . S
H1307 C1320 0.960 . S
C1308 H1300 0.929 . S
C1308 C1309 1.377 . S
C1308 C1310 1.384 . S
C1309 C1308 1.377 . S
C1309 C1315 1.390 . S
C1310 H1301 0.930 . S
C1310 C1308 1.384 . S
C1310 C1311 1.372 . S
C1311 C1310 1.372 . S
C1311 C1312 1.400 . S
C1311 C1316 1.490 . S
C1312 H1302 0.930 . S
C1312 C1311 1.400 . S
C1312 C1315 1.386 . S
H1313 C1329 0.930 . S
H1314 C1330 0.931 . S
C1315 H1303 0.929 . S
C1315 C1309 1.390 . S
C1315 C1312 1.386 . S
C1316 C1311 1.490 . S
C1316 C1318 1.395 . S
C1316 C1319 1.403 . S
H1317 C1323 0.930 . S
C1318 H1304 0.930 . S
C1318 C1316 1.395 . S
C1318 C1321 1.403 . S
C1319 C1316 1.403 . S
C1319 C1320 1.524 . S
C1319 C1323 1.400 . S
C1320 H1305 0.960 . S
C1320 H1306 0.960 . S
C1320 H1307 0.960 . S
C1320 C1319 1.524 . S
C1321 C1318 1.403 . S
C1321 C1322 1.392 . S
C1321 C1325 1.495 . S
C1322 C1321 1.392 . S
C1322 C1323 1.385 . S
C1322 C1324 1.478 . S
C1323 H1317 0.930 . S
C1323 C1319 1.400 . S
C1323 C1322 1.385 . S
C1324 C1322 1.478 . S
C1324 C1326 1.381 . S
C1324 C1330 1.383 . S
C1325 C1321 1.495 . S
C1325 H1331 0.959 . S
C1325 H1332 0.961 . S
C1325 H1333 0.960 . S
C1326 C1324 1.381 . S
C1326 C1327 1.394 . S
C1326 H1334 0.930 . S
C1327 C1326 1.394 . S
C1327 C1328 1.383 . S
C1327 H1335 0.929 . S
C1328 C1327 1.383 . S
C1328 C1329 1.377 . S
C1329 H1313 0.930 . S
C1329 C1328 1.377 . S
C1329 C1330 1.379 . S
C1330 H1314 0.931 . S
C1330 C1324 1.383 . S
C1330 C1329 1.379 . S
H1331 C1325 0.959 . S
H1332 C1325 0.961 . S
H1333 C1325 0.960 . S
H1334 C1326 0.930 . S
H1335 C1327 0.929 . S
C481 C255 1.912 . S
C500 C322 2.027 . S
C536 C362 2.024 . S
C517 C294 1.898 . S
C572 C402 2.021 . S
C553 C177 1.921 . S
C608 C442 2.017 1_455 S
C589 C216 1.906 1_455 S
C644 C331 2.031 . S
C625 C99 1.931 . S
C661 C138 1.902 . S
C680 C371 2.026 . S
C697 C21 1.922 . S
C716 C411 2.031 . S
C733 C60 1.906 1_455 S
C752 C451 2.010 . S
C788 C328 0.329 . S
C769 C196 0.271 1_455 S
C824 C368 0.341 . S
C805 C235 0.307 . S
C860 C408 0.196 . S
C841 C289 0.242 . S
C877 C157 0.290 . S
C896 C448 0.249 . S
C913 C40 0.246 . S
C932 C319 0.383 . S
C968 C359 0.349 . S
C949 C79 0.274 . S
C1004 C399 0.378 . S
C985 C133 0.235 . S
C1021 C1 0.311 . S
C1040 C439 0.278 . S
C1057 C211 2.517 . S
C1076 C323 2.824 . S
C1093 C250 2.512 . S
C1112 C363 2.822 . S
C1148 C403 2.814 . S
C1129 C274 2.512 . S
C1184 C443 2.844 . S
C1165 C172 2.525 . S
C1201 C55 2.517 1_655 S
C1220 C314 2.837 . S
C1256 C354 2.827 . S
C1237 C94 2.505 . S
C1292 C394 2.815 . S
C1273 C118 2.517 . S
C1309 C16 2.522 . S
C1328 C434 2.846 . S
