# Generated by pormake.
# Topology zzz, (3,6)-cn, num edge types: 1
# Building blocks:
#     Node 0, Type 0, BuildingBlock: BETDAH_clean_linker_0, # of connection points: 3
#     Node 1, Type 0, BuildingBlock: BETDAH_clean_linker_0, # of connection points: 3
#     Node 2, Type 0, BuildingBlock: BETDAH_clean_linker_0, # of connection points: 3
#     Node 3, Type 0, BuildingBlock: BETDAH_clean_linker_0, # of connection points: 3
#     Node 4, Type 0, BuildingBlock: BETDAH_clean_linker_0, # of connection points: 3
#     Node 5, Type 0, BuildingBlock: BETDAH_clean_linker_0, # of connection points: 3
#     Node 6, Type 0, BuildingBlock: BETDAH_clean_linker_0, # of connection points: 3
#     Node 7, Type 0, BuildingBlock: BETDAH_clean_linker_0, # of connection points: 3
#     Node 8, Type 1, BuildingBlock: KUMBUR_clean_sbu_1, # of connection points: 6
#     Node 9, Type 1, BuildingBlock: KUMBUR_clean_sbu_1, # of connection points: 6
#     Node 10, Type 1, BuildingBlock: KUMBUR_clean_sbu_1, # of connection points: 6
#     Node 11, Type 1, BuildingBlock: KUMBUR_clean_sbu_1, # of connection points: 6
#     Edge 12, Type (0, 1), BuildingBlock: OJICUG_clean_linker_0, # of connection points: 2
#     Edge 13, Type (0, 1), BuildingBlock: OJICUG_clean_linker_0, # of connection points: 2
#     Edge 14, Type (0, 1), BuildingBlock: OJICUG_clean_linker_0, # of connection points: 2
#     Edge 15, Type (0, 1), BuildingBlock: OJICUG_clean_linker_0, # of connection points: 2
#     Edge 16, Type (0, 1), BuildingBlock: OJICUG_clean_linker_0, # of connection points: 2
#     Edge 17, Type (0, 1), BuildingBlock: OJICUG_clean_linker_0, # of connection points: 2
#     Edge 18, Type (0, 1), BuildingBlock: OJICUG_clean_linker_0, # of connection points: 2
#     Edge 19, Type (0, 1), BuildingBlock: OJICUG_clean_linker_0, # of connection points: 2
#     Edge 20, Type (0, 1), BuildingBlock: OJICUG_clean_linker_0, # of connection points: 2
#     Edge 21, Type (0, 1), BuildingBlock: OJICUG_clean_linker_0, # of connection points: 2
#     Edge 22, Type (0, 1), BuildingBlock: OJICUG_clean_linker_0, # of connection points: 2
#     Edge 23, Type (0, 1), BuildingBlock: OJICUG_clean_linker_0, # of connection points: 2
#     Edge 24, Type (0, 1), BuildingBlock: OJICUG_clean_linker_0, # of connection points: 2
#     Edge 25, Type (0, 1), BuildingBlock: OJICUG_clean_linker_0, # of connection points: 2
#     Edge 26, Type (0, 1), BuildingBlock: OJICUG_clean_linker_0, # of connection points: 2
#     Edge 27, Type (0, 1), BuildingBlock: OJICUG_clean_linker_0, # of connection points: 2
#     Edge 28, Type (0, 1), BuildingBlock: OJICUG_clean_linker_0, # of connection points: 2
#     Edge 29, Type (0, 1), BuildingBlock: OJICUG_clean_linker_0, # of connection points: 2
#     Edge 30, Type (0, 1), BuildingBlock: OJICUG_clean_linker_0, # of connection points: 2
#     Edge 31, Type (0, 1), BuildingBlock: OJICUG_clean_linker_0, # of connection points: 2
#     Edge 32, Type (0, 1), BuildingBlock: OJICUG_clean_linker_0, # of connection points: 2
#     Edge 33, Type (0, 1), BuildingBlock: OJICUG_clean_linker_0, # of connection points: 2
#     Edge 34, Type (0, 1), BuildingBlock: OJICUG_clean_linker_0, # of connection points: 2
#     Edge 35, Type (0, 1), BuildingBlock: OJICUG_clean_linker_0, # of connection points: 2
# Relax obj value: 0.245
# Max RMSD: 0.126
# Mean RMSD: 0.085
data_MOF--net-zzz--node1-KUMBUR_clean_sbu_1--node2-BETDAH_clean_linker_0--edge1-OJICUG_clean_linker_0
_symmetry_space_group_name_H-M    P1
_symmetry_Int_Tables_number       1
_symmetry_cell_setting            triclinic
loop_
_symmetry_equiv_pos_as_xyz
'x, y, z'
_cell_length_a     36.325888
_cell_length_b     36.443685
_cell_length_c     11.629594
_cell_angle_alpha  89.559158
_cell_angle_beta   90.696019
_cell_angle_gamma 90.278406
loop_
_atom_site_label
_atom_site_type_symbol
_atom_site_fract_x
_atom_site_fract_y
_atom_site_fract_z
_atom_type_partial_charge
H0 H 0.86443 0.54023 0.27775 0.0
H1 H 0.75329 0.54996 0.15866 0.0
H2 H 0.77746 0.55235 0.52397 0.0
C3 C 0.83578 0.54471 0.29808 0.0
C4 C 0.82539 0.54663 0.41381 0.0
C5 C 0.80987 0.54548 0.20782 0.0
C6 C 0.77264 0.55002 0.23028 0.0
C7 C 0.76002 0.55273 0.34284 0.0
C8 C 0.78676 0.55124 0.436 0.0
N9 N 0.72083 0.55527 0.36162 0.0
C10 C 0.69297 0.55389 0.27416 0.0
H11 H 0.09141 0.84934 0.36869 0.0
H12 H 0.069 0.74691 0.20396 0.0
H13 H 0.99531 0.78692 0.46347 0.0
C14 C 0.07488 0.82458 0.36371 0.0
C15 C 0.04372 0.82144 0.43367 0.0
C16 C 0.08388 0.79812 0.28136 0.0
C17 C 0.06158 0.76708 0.26735 0.0
C18 C 0.02919 0.76257 0.32963 0.0
C19 C 1.02017 0.79006 0.41394 0.0
N20 N 1.00559 0.73126 0.30588 0.0
C21 C 1.01089 0.70416 0.21941 0.0
H22 H 0.7127 0.08545 0.39436 0.0
H23 H 0.81547 0.06463 0.22867 0.0
H24 H 0.7681 0.98322 0.45643 0.0
C25 C 0.73663 0.06814 0.38384 0.0
C26 C 0.73682 0.03373 0.43768 0.0
C27 C 0.76458 0.07927 0.3084 0.0
C28 C 0.79457 0.05609 0.289 0.0
C29 C 0.79678 1.02149 0.34273 0.0
C30 C 0.76748 1.01029 0.41743 0.0
N31 N 0.82701 0.99724 0.31895 0.0
C32 C 0.85642 1.00382 0.242 0.0
H33 H 0.52887 0.70017 0.30599 0.0
H34 H 0.54002 0.8104 0.18525 0.0
H35 H 0.53944 0.78823 0.55147 0.0
C36 C 0.53315 0.72886 0.32656 0.0
C37 C 0.53437 0.73966 0.44252 0.0
C38 C 0.53461 0.75441 0.23577 0.0
C39 C 0.53943 0.79152 0.25762 0.0
C40 C 0.54126 0.80469 0.36969 0.0
C41 C 0.53894 0.77845 0.4638 0.0
N42 N 0.54368 0.84397 0.38614 0.0
C43 C 0.54328 0.87098 0.29631 0.0
H44 H 0.21253 0.59775 0.12775 0.0
H45 H 0.31696 0.57319 0.27948 0.0
H46 H 0.27558 0.5076 0.99703 0.0
C47 C 0.23768 0.58203 0.12417 0.0
C48 C 0.24051 0.55366 0.04359 0.0
C49 C 0.26522 0.58946 0.2065 0.0
C50 C 0.29638 0.56736 0.21401 0.0
C51 C 0.30056 0.53726 0.14146 0.0
C52 C 0.27247 0.53052 0.05467 0.0
N53 N 0.33225 0.51372 0.15687 0.0
C54 C 0.35998 0.51697 0.24425 0.0
H55 H 0.05074 0.19928 0.22957 0.0
H56 H 0.06459 0.31198 0.32001 0.0
H57 H 0.04003 0.28306 0.96747 0.0
C58 C 0.05289 0.22764 0.20211 0.0
C59 C 0.04724 0.23643 0.08519 0.0
C60 C 0.05871 0.25495 0.28554 0.0
C61 C 0.05994 0.29172 0.25363 0.0
C62 C 0.05164 0.30294 0.14181 0.0
C63 C 0.0462 0.27497 0.05532 0.0
N64 N 0.04685 0.3418 0.11978 0.0
C65 C 0.04693 0.3696 0.206 0.0
H66 H 0.34802 0.96902 0.12173 0.0
H67 H 0.24485 0.98467 0.29098 0.0
H68 H 0.2893 0.06998 0.07155 0.0
C69 C 0.32355 0.9854 0.13445 0.0
C70 C 0.32215 1.02033 0.08412 0.0
C71 C 0.29612 0.97257 0.20927 0.0
C72 C 0.26542 0.99453 0.23141 0.0
C73 C 0.26206 0.02961 0.18164 0.0
C74 C 0.29082 0.04253 0.10754 0.0
N75 N 0.23118 0.05264 0.20871 0.0
C76 C 0.20251 0.04466 0.28716 0.0
H77 H 0.52045 0.36241 0.21588 0.0
H78 H 0.51155 0.25164 0.3344 0.0
H79 H 0.52029 0.27418 0.96982 0.0
C80 C 0.51788 0.33358 0.19484 0.0
C81 C 0.51972 0.32287 0.07902 0.0
C82 C 0.51566 0.30793 0.28533 0.0
C83 C 0.51303 0.27063 0.26248 0.0
C84 C 0.51499 0.25743 0.15064 0.0
C85 C 0.51801 0.28388 0.05716 0.0
N86 N 0.51582 0.21806 0.13428 0.0
C87 C 0.51573 0.1909 0.22391 0.0
Tb88 Tb 0.99112 0.03944 0.66493 0.0
C89 C 0.10283 0.08632 1.0056 0.0
N90 N 0.10789 0.0662 0.90892 0.0
C91 C 0.15915 0.10448 0.85681 0.0
C92 C 0.12513 0.11718 0.0294 0.0
C93 C 0.13602 0.07447 0.83545 0.0
C94 C 0.15359 0.12603 0.95381 0.0
C95 C 0.06718 0.09805 0.17619 0.0
C96 C 0.07402 0.07677 0.0778 0.0
C97 C 0.08898 0.1291 0.19922 0.0
C98 C 0.11793 0.1386 0.12627 0.0
Tb99 Tb 0.06856 1.01742 0.88482 0.0
N100 N 0.0533 0.04642 0.05316 0.0
C101 C 0.03901 0.08717 0.24981 0.0
C102 C 0.02945 0.03321 0.13399 0.0
C103 C 1.02039 0.05435 0.22931 0.0
H104 H 0.14063 0.05777 0.76075 0.0
H105 H 0.9994 0.04508 0.28796 0.0
H106 H 0.9117 0.04631 0.80552 0.0
H107 H 0.02961 0.95876 0.29643 0.0
H108 H 1.01735 1.00626 0.12713 0.0
H109 H 0.03243 0.10313 0.32501 0.0
H110 H 0.03944 1.00396 0.44888 0.0
H111 H 0.1812 0.11104 0.79826 0.0
H112 H 0.0843 0.14535 0.27516 0.0
H113 H 0.13462 0.16253 0.14571 0.0
H114 H 0.85079 1.01659 0.80129 0.0
H115 H 0.17133 0.14951 0.96932 0.0
H116 H 0.96946 0.92737 0.27576 0.0
N117 N 0.93305 1.01457 0.6686 0.0
C118 C 0.92517 0.9897 0.58524 0.0
C119 C 0.8716 1.00844 0.74086 0.0
C120 C 0.89032 0.97258 0.57807 0.0
C121 C 0.90654 0.02467 0.74465 0.0
C122 C 0.86349 0.98212 0.65764 0.0
N123 N 0.98575 0.99789 0.51851 0.0
C124 C 1.0132 0.99038 0.44295 0.0
C125 C 0.9453 0.95553 0.4195 0.0
C126 C 0.95217 0.98155 0.5064 0.0
C127 C 0.97357 0.9473 0.34342 0.0
C128 C 1.00762 0.96483 0.35519 0.0
H129 H 0.83634 0.96969 0.65466 0.0
H130 H 0.85687 0.93292 0.48557 0.0
H131 H 0.90527 0.91737 0.34852 0.0
O132 O 1.00156 0.08137 0.5453 0.0
O133 O 1.00027 0.97926 0.69049 0.0
O134 O 0.06022 0.973 0.75553 0.0
O135 O 0.94611 0.0688 0.59564 0.0
O136 O 0.04887 0.04862 0.60118 0.0
O137 O 0.08828 1.01176 0.70878 0.0
O138 O 0.08003 0.97167 0.99276 0.0
O139 O 0.06066 0.07501 0.81863 0.0
O140 O 0.99915 0.07998 0.8061 0.0
O141 O 0.12305 1.00707 0.9359 0.0
O142 O 1.01126 0.99843 0.92884 0.0
O143 O 0.97717 0.04402 0.84661 0.0
C144 C 0.03045 0.95941 0.70364 0.0
C145 C 0.96508 0.13046 0.60367 0.0
C146 C 0.99789 0.18736 0.64346 0.0
C147 C 0.97351 0.19502 0.73265 0.0
C148 C 0.94082 0.13813 0.69394 0.0
C149 C 0.94487 0.17049 0.75708 0.0
C150 C 0.99246 0.1558 0.57721 0.0
C151 C 0.08103 0.03176 0.61655 0.0
C152 C 0.96794 0.09358 0.55369 0.0
C153 C 0.88339 0.94655 0.49198 0.0
C154 C 0.91087 0.9379 0.41336 0.0
C155 C 0.03107 0.0951 0.83277 0.0
C156 C 0.13675 0.94463 0.9425 0.0
C157 C 0.15708 0.88177 0.97067 0.0
C158 C 0.17322 0.88214 0.8619 0.0
C159 C 0.15362 0.9451 0.83404 0.0
C160 C 0.13922 0.91316 1.0108 0.0
C161 C 0.17192 0.91404 0.7945 0.0
C162 C 0.98036 1.01763 0.92294 0.0
C163 C 0.11542 0.97608 0.98382 0.0
H164 H 0.97657 0.21982 0.78267 0.0
H165 H 0.91966 0.11868 0.71856 0.0
H166 H 0.92632 0.17614 0.82679 0.0
H167 H 1.01033 0.15022 0.50538 0.0
H168 H 0.18612 0.85773 0.82877 0.0
H169 H 0.15226 0.9692 0.77928 0.0
H170 H 0.12552 0.91244 0.09327 0.0
H171 H 0.18436 0.91444 0.71039 0.0
Tb172 Tb 0.54505 0.07075 0.85474 0.0
C173 C 0.53996 0.90912 0.70895 0.0
N174 N 0.54969 0.93919 0.64601 0.0
C175 C 0.5991 0.90526 0.56242 0.0
C176 C 0.56001 0.87614 0.70285 0.0
C177 C 0.57835 0.93731 0.57113 0.0
C178 C 0.5901 0.87462 0.6292 0.0
C179 C 0.49794 0.88057 0.8436 0.0
C180 C 0.50928 0.91129 0.77822 0.0
C181 C 0.5182 0.84788 0.83943 0.0
C182 C 0.54911 0.84566 0.76903 0.0
Tb183 Tb 0.51274 0.9897 0.66483 0.0
N184 N 0.49064 0.94361 0.78144 0.0
C185 C 0.46636 0.8835 0.91031 0.0
C186 C 0.45824 0.94545 0.83934 0.0
C187 C 0.44613 0.91593 0.90678 0.0
H188 H 0.5844 0.95986 0.51418 0.0
H189 H 0.42075 0.91796 0.95405 0.0
H190 H 0.47564 0.09795 0.02024 0.0
H191 H 0.63071 0.14606 0.55603 0.0
H192 H 0.44074 0.96885 0.83096 0.0
H193 H 0.45679 0.86059 0.96204 0.0
H194 H 0.61266 0.09313 0.67399 0.0
H195 H 0.62168 0.90404 0.5027 0.0
H196 H 0.50998 0.82407 0.88944 0.0
H197 H 0.56422 0.82013 0.76561 0.0
H198 H 0.43792 0.15309 0.04301 0.0
H199 H 0.60606 0.84974 0.62153 0.0
H200 H 0.59499 0.20358 0.56385 0.0
N201 N 0.50806 0.12053 0.88555 0.0
C202 C 0.51646 0.15137 0.82442 0.0
C203 C 0.45957 0.15282 0.97992 0.0
C204 C 0.49621 0.18399 0.83717 0.0
C205 C 0.48056 0.1212 0.96484 0.0
C206 C 0.4672 0.18427 0.91512 0.0
N207 N 0.56472 0.11827 0.73996 0.0
C208 C 0.59564 0.11704 0.67456 0.0
C209 C 0.55614 0.18194 0.68703 0.0
C210 C 0.54609 0.15039 0.7505 0.0
C211 C 0.58645 0.18 0.6144 0.0
C212 C 0.60651 0.14751 0.60918 0.0
H213 H 0.45111 0.20883 0.92782 0.0
H214 H 0.49057 0.24063 0.78162 0.0
H215 H 0.54297 0.2388 0.64977 0.0
O216 O 0.59858 0.07409 0.92524 0.0
O217 O 0.51343 0.08538 0.69462 0.0
O218 O 0.52493 0.04049 0.56285 0.0
O219 O 0.55291 0.0991 1.00971 0.0
O220 O 0.58903 0.03707 0.77245 0.0
O221 O 0.56372 1.01571 0.60347 0.0
O222 O 0.46002 0.98412 0.58963 0.0
O223 O 0.54538 0.97596 0.82385 0.0
O224 O 0.53208 1.02011 0.95566 0.0
O225 O 0.50746 0.96103 0.50943 0.0
O226 O 0.46882 0.02408 0.74488 0.0
O227 O 0.49408 0.04441 0.91491 0.0
C228 C 0.51769 0.07517 0.58688 0.0
C229 C 0.61026 0.1304 0.01808 0.0
C230 C 0.67012 0.15857 0.05699 0.0
C231 C 0.65395 0.19344 0.05232 0.0
C232 C 0.59431 0.16549 1.01369 0.0
C233 C 0.6162 0.19681 0.02936 0.0
C234 C 0.64807 0.12733 0.03856 0.0
C235 C 0.59282 0.02477 0.66615 0.0
C236 C 0.58842 0.09635 1.00585 0.0
C237 C 0.50586 0.21535 0.77312 0.0
C238 C 0.53574 0.21433 0.6982 0.0
C239 C 0.54016 0.98568 0.93154 0.0
C240 C 0.45167 0.92713 0.49746 0.0
C241 C 0.39343 0.89603 0.45648 0.0
C242 C 0.41125 0.862 0.46196 0.0
C243 C 0.46926 0.89284 0.5031 0.0
C244 C 0.41384 0.92833 0.47529 0.0
C245 C 0.44902 0.86049 0.48664 0.0
C246 C 0.46495 0.03572 0.8519 0.0
C247 C 0.47182 0.96218 0.51045 0.0
H248 H 0.6703 0.2178 0.06901 0.0
H249 H 0.56504 0.16881 1.00025 0.0
H250 H 0.60368 0.22371 0.0267 0.0
H251 H 0.66005 0.10018 0.0463 0.0
H252 H 0.39617 0.83688 0.44489 0.0
H253 H 0.49858 0.89097 0.51817 0.0
H254 H 0.40054 0.95484 0.46688 0.0
H255 H 0.46282 0.83424 0.49023 0.0
Tb256 Tb 0.56354 0.52413 0.6477 0.0
C257 C 0.44918 0.46573 0.95221 0.0
N258 N 0.44888 0.48959 0.86118 0.0
C259 C 0.39925 0.4549 0.77494 0.0
C260 C 0.42661 0.43405 0.95316 0.0
C261 C 0.42229 0.48571 0.77749 0.0
C262 C 0.40193 0.42854 0.8619 0.0
C263 C 0.47659 0.44679 0.13437 0.0
C264 C 0.4727 0.4727 0.04427 0.0
C265 C 0.45455 0.41507 0.13474 0.0
C266 C 0.42936 0.40889 0.04492 0.0
Tb267 Tb 0.48866 0.53925 0.87665 0.0
N268 N 0.49468 0.50309 0.03889 0.0
C269 C 0.50362 0.45274 0.21877 0.0
C270 C 0.52018 0.50957 0.12373 0.0
C271 C 0.52569 0.48407 0.21272 0.0
H272 H 0.41693 0.50704 0.71552 0.0
H273 H 0.54725 0.4884 0.27621 0.0
H274 H 0.63684 0.55459 0.80497 0.0
H275 H 0.50565 0.5752 0.2475 0.0
H276 H 0.53718 0.53376 0.12124 0.0
H277 H 0.50803 0.4331 0.28797 0.0
H278 H 0.51567 0.52966 0.40184 0.0
H279 H 0.37883 0.45194 0.70703 0.0
H280 H 0.45695 0.39502 0.20367 0.0
H281 H 0.41246 0.38432 0.04647 0.0
H282 H 0.67608 0.60898 0.81237 0.0
H283 H 0.38405 0.40466 0.8596 0.0
H284 H 0.54496 0.63047 0.23645 0.0
N285 N 0.60468 0.5728 0.66073 0.0
C286 C 0.60435 0.59684 0.57025 0.0
C287 C 0.65531 0.60648 0.74529 0.0
C288 C 0.62738 0.62818 0.5689 0.0
C289 C 0.63171 0.57608 0.74328 0.0
C290 C 0.65262 0.63308 0.65904 0.0
N291 N 0.55821 0.5601 0.48463 0.0
C292 C 0.53268 0.55382 0.39977 0.0
C293 C 0.57652 0.61639 0.38945 0.0
C294 C 0.58043 0.59031 0.47903 0.0
C295 C 0.54935 0.61071 0.30533 0.0
C296 C 0.52722 0.57943 0.31103 0.0
H297 H 0.67088 0.65668 0.661 0.0
H298 H 0.64165 0.67801 0.47628 0.0
H299 H 0.59623 0.66825 0.32092 0.0
O300 O 0.58128 0.49108 0.51105 0.0
O301 O 0.53111 0.57532 0.63378 0.0
O302 O 0.51465 0.59193 0.81458 0.0
O303 O 0.61802 0.50545 0.64846 0.0
O304 O 0.50843 0.50329 0.59331 0.0
O305 O 0.47154 0.54294 0.69237 0.0
O306 O 0.47021 0.57135 1.01453 0.0
O307 O 0.52222 0.48869 0.89117 0.0
O308 O 0.53687 0.47179 0.70966 0.0
O309 O 0.43366 0.55633 0.87732 0.0
O310 O 0.54321 0.56158 0.93016 0.0
O311 O 0.58057 0.52199 0.83241 0.0
C312 C 0.52513 0.60105 0.70937 0.0
C313 C 0.61658 0.44391 0.60076 0.0
C314 C 0.58758 0.38391 0.62374 0.0
C315 C 0.61336 0.37483 0.71006 0.0
C316 C 0.64271 0.43423 0.68601 0.0
C317 C 0.64107 0.39984 0.73998 0.0
C318 C 0.59013 0.41804 0.56776 0.0
C319 C 0.47707 0.52133 0.60328 0.0
C320 C 0.61163 0.48264 0.56596 0.0
C321 C 0.62447 0.65363 0.47796 0.0
C322 C 0.59877 0.64799 0.38919 0.0
C323 C 0.52778 0.46272 0.81604 0.0
C324 C 0.43236 0.61739 0.92952 0.0
C325 C 0.45833 0.67869 0.90555 0.0
C326 C 0.43024 0.68742 0.82619 0.0
C327 C 0.404 0.6266 0.85109 0.0
C328 C 0.45848 0.64402 0.95864 0.0
C329 C 0.40298 0.66148 0.80008 0.0
C330 C 0.57506 0.54446 0.91946 0.0
C331 C 0.4393 0.57876 0.9613 0.0
H332 H 0.61223 0.34845 0.75346 0.0
H333 H 0.66332 0.45384 0.71451 0.0
H334 H 0.6609 0.39285 0.80673 0.0
H335 H 0.57084 0.42489 0.49918 0.0
H336 H 0.42923 0.71422 0.78541 0.0
H337 H 0.38359 0.60636 0.82569 0.0
H338 H 0.47953 0.63744 0.02225 0.0
H339 H 0.38137 0.66819 0.73868 0.0
Tb340 Tb 0.0417 0.57501 0.5977 0.0
C341 C 0.0951 0.4671 0.96227 0.0
N342 N 0.07443 0.4611 0.86648 0.0
C343 C 0.11123 0.40851 0.82293 0.0
C344 C 0.12589 0.44515 0.98965 0.0
C345 C 0.08169 0.43184 0.79754 0.0
C346 C 0.1336 0.41531 0.91907 0.0
C347 C 0.10856 0.50597 0.12467 0.0
C348 C 0.08592 0.49626 0.03007 0.0
C349 C 0.14036 0.48544 0.14968 0.0
C350 C 0.14863 0.4546 0.08357 0.0
Tb351 Tb 0.02593 0.49975 0.831 0.0
N352 N 0.05446 0.51472 1.00412 0.0
C353 C 0.09823 0.53566 0.19203 0.0
C354 C 0.04197 0.54008 0.08014 0.0
C355 C 0.06452 0.55254 0.1703 0.0
H356 H 0.06486 0.42654 0.72229 0.0
H357 H 0.05548 0.57462 0.22467 0.0
H358 H 0.02757 0.65504 0.73684 0.0
H359 H 0.97508 0.52092 0.21525 0.0
H360 H 1.01462 0.55092 0.07271 0.0
H361 H 0.11518 0.54463 0.2639 0.0
H362 H 0.02445 0.52591 0.3612 0.0
H363 H 0.11695 0.38554 0.76762 0.0
H364 H 0.15815 0.49259 0.2216 0.0
H365 H 0.17285 0.43857 0.10481 0.0
H366 H 0.9788 0.70076 0.7484 0.0
H367 H 0.15691 0.39767 0.93721 0.0
H368 H 0.92346 0.56469 0.21438 0.0
N369 N 0.99951 0.62182 0.61279 0.0
C370 C 0.97137 0.62124 0.5342 0.0
C371 C 0.97593 0.67809 0.68932 0.0
C372 C 0.9433 0.64789 0.53485 0.0
C373 C 1.00324 0.65127 0.68457 0.0
C374 C 0.94543 0.676 0.61575 0.0
N375 N 0.99952 0.57009 0.44957 0.0
C376 C 1.0017 0.54466 0.36395 0.0
C377 C 0.94328 0.59357 0.3651 0.0
C378 C 0.97164 0.59491 0.44892 0.0
C379 C 0.94461 0.56655 0.28055 0.0
C380 C 0.97387 0.54194 0.2803 0.0
H381 H 0.92447 0.69701 0.61898 0.0
H382 H 0.89263 0.66628 0.45303 0.0
H383 H 0.89236 0.61833 0.3053 0.0
O384 O 0.09036 0.57728 0.50048 0.0
O385 O 0.99185 0.5399 0.59265 0.0
O386 O 0.97533 0.53056 0.77703 0.0
O387 O 0.05403 0.62336 0.50647 0.0
O388 O 0.05951 0.519 0.54177 0.0
O389 O 0.02323 0.48012 0.65093 0.0
O390 O 0.99516 0.47231 0.95913 0.0
O391 O 0.08291 0.50984 0.76784 0.0
O392 O 0.08332 0.5713 0.7388 0.0
O393 O 1.00201 0.4492 0.79181 0.0
O394 O 1.00531 0.55589 0.87577 0.0
O395 O 0.04474 0.59415 0.77867 0.0
C396 C 0.96589 0.53824 0.66968 0.0
C397 C 0.11689 0.63574 0.52654 0.0
C398 C 0.18005 0.65729 0.51332 0.0
C399 C 0.17738 0.67415 0.62059 0.0
C400 C 0.11426 0.65299 0.63408 0.0
C401 C 0.14425 0.67238 0.68011 0.0
C402 C 0.14966 0.63845 0.46615 0.0
C403 C 0.04365 0.48641 0.55937 0.0
C404 C 0.08682 0.61238 0.48218 0.0
C405 C 0.91461 0.64629 0.45289 0.0
C406 C 0.91454 0.61911 0.36843 0.0
C407 C 0.10064 0.54137 0.77309 0.0
C408 C 0.94394 0.44344 0.8652 0.0
C409 C 0.88295 0.4709 0.86475 0.0
C410 C 0.87063 0.4444 0.78584 0.0
C411 C 0.93104 0.41665 0.78806 0.0
C412 C 0.91964 0.47006 0.90409 0.0
C413 C 0.89459 0.41727 0.74842 0.0
C414 C 0.02247 0.588 0.86572 0.0
C415 C 0.98375 0.44747 0.8864 0.0
H416 H 0.20097 0.68792 0.65879 0.0
H417 H 0.08942 0.65079 0.68382 0.0
H418 H 0.14209 0.68514 0.76349 0.0
H419 H 0.15222 0.62421 0.385 0.0
H420 H 0.84247 0.44443 0.75418 0.0
H421 H 0.94957 0.39616 0.75499 0.0
H422 H 0.92941 0.49019 0.96549 0.0
H423 H 0.88501 0.39689 0.68767 0.0
C424 C 0.16833 1.01055 0.44295 0.0
C425 C 0.17111 0.04064 0.3671 0.0
H426 H 0.13812 0.98396 0.57813 0.0
C427 C 0.14326 0.06743 0.37132 0.0
H428 H 0.18911 0.98934 0.44259 0.0
C429 C 0.11357 0.06435 0.44901 0.0
C430 C 0.11101 0.03451 0.52658 0.0
H431 H 0.14484 0.09119 0.31538 0.0
H432 H 0.09319 0.08591 0.45054 0.0
C433 C 0.13894 1.0076 0.52132 0.0
C434 C 0.49757 0.16609 0.42024 0.0
C435 C 0.51576 0.1615 0.31485 0.0
H436 H 0.4832 0.14319 0.58543 0.0
C437 C 0.53388 0.12773 0.29897 0.0
H438 H 0.48325 0.19147 0.43671 0.0
C439 C 0.53381 0.09968 0.38476 0.0
C440 C 0.51591 0.10431 0.49101 0.0
H441 H 0.54848 0.12305 0.22007 0.0
H442 H 0.54855 0.07452 0.36853 0.0
C443 C 0.49763 0.13815 0.50625 0.0
C444 C 0.41681 0.49045 0.34215 0.0
C445 C 0.38992 0.51824 0.33345 0.0
H446 H 0.46484 0.46924 0.4317 0.0
C447 C 0.39241 0.54705 0.41327 0.0
H448 H 0.41571 0.46763 0.28323 0.0
C449 C 0.42054 0.54795 0.49884 0.0
C450 C 0.44759 0.52018 0.50811 0.0
H451 H 0.37243 0.569 0.41016 0.0
H452 H 0.42105 0.5707 0.55824 0.0
C453 C 0.44515 0.49142 0.42752 0.0
C454 C 0.06953 0.4301 0.28849 0.0
C455 C 0.04653 0.39889 0.29561 0.0
H456 H 0.08744 0.48136 0.36397 0.0
C457 C 0.02305 0.39664 0.391 0.0
H458 H 0.08807 0.43267 0.21713 0.0
C459 C 0.02244 0.42461 0.47533 0.0
C460 C 0.04529 0.45622 0.46823 0.0
H461 H 1.00493 0.37315 0.40054 0.0
H462 H 1.00364 0.42143 0.54628 0.0
C463 C 0.06902 0.45816 0.37293 0.0
C464 C 0.90911 0.97625 0.13255 0.0
C465 C 0.88839 1.00722 0.16411 0.0
H466 H 0.95461 0.95491 0.03553 0.0
C467 C 0.89918 0.04143 0.1189 0.0
H468 H 0.90143 0.94934 0.16429 0.0
C469 C 0.92925 0.04452 0.04336 0.0
C470 C 0.95002 1.01359 1.01098 0.0
H471 H 0.88411 0.06591 0.14101 0.0
H472 H 0.93619 0.07142 1.00955 0.0
C473 C 0.93971 0.97941 0.0584 0.0
C474 C 0.56181 0.89567 0.10051 0.0
C475 C 0.54279 0.9 0.20454 0.0
H476 H 0.57658 0.91865 0.93576 0.0
C477 C 0.52343 0.93313 0.21837 0.0
H478 H 0.57705 0.87071 0.08576 0.0
C479 C 0.52317 0.96092 0.13197 0.0
C480 C 0.54198 0.9566 0.02721 0.0
H481 H 0.50814 0.93753 0.29611 0.0
H482 H 0.50754 0.98565 0.14661 0.0
C483 C 0.56143 0.92336 1.0138 0.0
C484 C 0.63609 0.57938 0.17348 0.0
C485 C 0.66306 0.55178 0.18526 0.0
H486 H 0.58757 0.59904 0.08295 0.0
C487 C 0.66042 0.52182 0.10982 0.0
H488 H 0.63735 0.60305 0.22892 0.0
C489 C 0.632 0.51956 0.02554 0.0
C490 C 0.60481 0.54708 1.01333 0.0
H491 H 0.6805 0.49999 0.11568 0.0
H492 H 0.63136 0.49595 0.96954 0.0
C493 C 0.6074 0.57702 0.08954 0.0
C494 C 0.04424 0.6726 0.05717 0.0
C495 C 1.0138 0.67469 0.13083 0.0
H496 H 0.07092 0.64446 0.91895 0.0
C497 C 0.986 0.64775 0.11665 0.0
H498 H 0.0663 0.69257 0.06461 0.0
C499 C 0.98851 0.6199 0.032 0.0
C500 C 1.01902 0.61775 0.95785 0.0
H501 H 0.96202 0.64828 0.17101 0.0
H502 H 0.96635 0.60004 0.02438 0.0
C503 C 0.04679 0.64482 0.97271 0.0
C504 C 0.07254 0.21576 0.4579 0.0
C505 C 0.05484 0.24615 0.40854 0.0
H506 H 0.06963 0.17414 0.58758 0.0
C507 C 0.02764 0.26451 0.47106 0.0
H508 H 0.09435 0.20193 0.41288 0.0
C509 C 1.01325 0.24845 0.56952 0.0
C510 C 0.02578 0.21387 0.60441 0.0
H511 H 1.01395 0.28853 0.43596 0.0
H512 H 0.98844 0.25995 0.60509 0.0
C513 C 0.05875 0.20032 0.55864 0.0
C514 C 0.30632 0.94448 0.4015 0.0
C515 C 0.30465 0.94004 0.28168 0.0
H516 H 0.33657 0.93195 0.55554 0.0
C517 C 0.32248 0.90984 0.23282 0.0
H518 H 0.29251 0.96718 0.44201 0.0
C519 C 0.34802 0.88982 0.29804 0.0
C520 C 0.3554 0.8998 0.41229 0.0
H521 H 0.3209 0.90534 0.1409 0.0
H522 H 0.36572 0.87069 0.25445 0.0
C523 C 0.33166 0.9243 0.46677 0.0
C524 C 0.55458 0.30344 0.46092 0.0
C525 C 0.52438 0.3196 0.40346 0.0
H526 H 0.59868 0.31165 0.58058 0.0
C527 C 0.50845 0.35121 0.44846 0.0
H528 H 0.56713 0.27872 0.4286 0.0
C529 C 0.52606 0.36956 0.53827 0.0
C530 C 0.56042 0.35711 0.57985 0.0
H531 H 0.48465 0.3636 0.407 0.0
H532 H 0.51545 0.39595 0.56403 0.0
C533 C 0.57261 0.3222 0.54888 0.0
C534 C 0.24022 0.65005 0.26424 0.0
C535 C 0.25788 0.61715 0.29537 0.0
H536 H 0.2008 0.69008 0.31459 0.0
C537 C 0.25974 0.60677 0.41189 0.0
H538 H 0.23919 0.65903 0.17521 0.0
C539 C 0.23854 0.62517 0.49198 0.0
C540 C 0.21532 0.65365 0.45535 0.0
H541 H 0.27337 0.58168 0.43851 0.0
H542 H 0.23611 0.61364 0.57778 0.0
C543 C 0.21863 0.66808 0.34397 0.0
C544 C 0.10563 0.80253 0.07918 0.0
C545 C 0.11319 0.80648 0.19743 0.0
H546 H 0.11592 0.82342 0.91034 0.0
C547 C 0.14488 0.82594 0.23212 0.0
H548 H 0.0816 0.78756 0.04915 0.0
C549 C 0.16426 0.84685 0.15208 0.0
C550 C 0.15247 0.84773 0.03685 0.0
H551 H 0.15204 0.82846 0.32243 0.0
H552 H 0.18524 0.8658 0.18241 0.0
C553 C 0.12543 0.82296 0.99906 0.0
C554 C 0.74111 0.14289 0.27997 0.0
C555 C 0.75727 0.11144 0.23323 0.0
H556 H 0.69984 0.18398 0.25636 0.0
C557 C 0.75482 0.10592 0.114 0.0
H558 H 0.74328 0.14814 0.3714 0.0
C559 C 0.73023 0.12672 0.0478 0.0
C560 C 0.70799 0.15294 0.1008 0.0
H561 H 0.76734 0.08218 0.07519 0.0
H562 H 0.72461 0.11855 0.95989 0.0
C563 C 0.71634 0.16357 0.21386 0.0
C564 C 0.49146 0.75865 0.07052 0.0
C565 C 0.52337 0.74313 0.11959 0.0
H566 H 0.44526 0.7499 0.95918 0.0
C567 C 0.53947 0.71267 0.06824 0.0
H568 H 0.47886 0.78254 0.10824 0.0
C569 C 0.52087 0.69478 0.97945 0.0
C570 C 0.48526 0.7062 0.94638 0.0
H571 H 0.5645 0.70082 0.10363 0.0
H572 H 0.53197 0.66922 0.94823 0.0
C573 C 0.47233 0.74014 0.9842 0.0
C574 C 0.85207 0.55002 0.04092 0.0
C575 C 0.82121 0.53408 0.09269 0.0
H576 H 0.89503 0.54315 0.91928 0.0
C577 C 0.80546 0.50221 0.04573 0.0
H578 H 0.8642 0.57495 0.07498 0.0
C579 C 0.82347 0.48352 0.95928 0.0
C580 C 0.85725 0.49675 0.91843 0.0
H581 H 0.78153 0.48952 0.08441 0.0
H582 H 0.81307 0.45679 0.93453 0.0
C583 C 0.86967 0.53173 0.95251 0.0
C584 C 1.01019 0.17964 0.02278 0.0
C585 C 0.03997 0.20409 1.00317 0.0
H586 H 0.98372 0.12776 0.98571 0.0
C587 C 0.06605 0.19264 0.92162 0.0
H588 H 0.98986 0.18648 0.0864 0.0
C589 C 0.0629 0.15809 0.86505 0.0
C590 C 0.03342 0.13345 0.88675 0.0
H591 H 0.09001 0.20961 0.90551 0.0
H592 H 0.08412 0.1503 0.80553 0.0
C593 C 1.00676 0.1455 0.96516 0.0
C594 C 0.35917 0.0302 0.89968 0.0
C595 C 0.3564 0.03273 0.02044 0.0
H596 H 0.39467 0.02935 0.75173 0.0
C597 C 0.38951 0.03785 0.08301 0.0
H598 H 0.33468 0.0248 0.84841 0.0
C599 C 0.42395 0.03962 0.02822 0.0
C600 C 0.42709 0.0365 0.90772 0.0
H601 H 0.38896 0.03848 0.1761 0.0
H602 H 0.44841 0.0419 0.08182 0.0
C603 C 0.39384 0.03228 0.84424 0.0
C604 C 0.5029 0.36125 0.8947 0.0
C605 C 0.52638 0.35402 0.99041 0.0
H606 H 0.48485 0.40031 0.76392 0.0
C607 C 0.55301 0.38154 1.01531 0.0
H608 H 0.48143 0.34172 0.87281 0.0
C609 C 0.55457 0.41525 0.95419 0.0
C610 C 0.53026 0.42328 0.86222 0.0
H611 H 0.57177 0.37781 0.08749 0.0
H612 H 0.57417 0.4359 0.9824 0.0
C613 C 0.50487 0.39517 0.83177 0.0
C614 C 0.18738 0.58092 0.92253 0.0
C615 C 0.20836 0.54966 0.95602 0.0
H616 H 0.13804 0.60297 0.84571 0.0
C617 C 0.19555 0.5157 0.91282 0.0
H618 H 0.19655 0.60822 0.94558 0.0
C619 C 0.16204 0.51315 0.84776 0.0
C620 C 0.13917 0.54401 0.82746 0.0
H621 H 0.21065 0.49084 0.93224 0.0
H622 H 0.15369 0.48672 0.81483 0.0
C623 C 0.15348 0.57811 0.86244 0.0
C624 C 1.00344 0.87018 0.53621 0.0
C625 C 0.03768 0.85277 0.52023 0.0
H626 H 0.97383 0.91553 0.60931 0.0
C627 C 0.06839 0.86922 0.57691 0.0
H628 H 0.97891 0.85904 0.49554 0.0
C629 C 0.06575 0.90255 0.6381 0.0
C630 C 0.03207 0.92122 0.64833 0.0
H631 H 0.09534 0.85687 0.57061 0.0
H632 H 0.09068 0.91424 0.67473 0.0
C633 C 1.00069 0.9034 0.59995 0.0
C634 C 0.66907 1.0178 0.43854 0.0
C635 C 0.70203 0.02317 0.50166 0.0
H636 H 0.61007 1.01502 0.43786 0.0
C637 C 0.69882 0.02794 0.62157 0.0
H638 H 0.67 1.01557 0.34578 0.0
C639 C 0.66389 0.02759 0.67567 0.0
C640 C 0.63082 0.02293 0.61162 0.0
H641 H 0.72321 0.03368 0.67292 0.0
H642 H 0.66277 0.03206 0.7675 0.0
C643 C 0.63437 1.01777 0.49197 0.0
C644 C 0.49971 0.68267 0.51312 0.0
C645 C 0.52793 0.70902 0.53275 0.0
H646 H 0.47682 0.62935 0.55114 0.0
C647 C 0.55258 0.70114 0.62494 0.0
H648 H 0.47993 0.68702 0.44397 0.0
C649 C 0.55017 0.66753 0.6892 0.0
C650 C 0.52313 0.64048 0.66369 0.0
H651 H 0.57518 0.71979 0.64277 0.0
H652 H 0.57101 0.66173 0.75409 0.0
C653 C 0.49768 0.64926 0.57557 0.0
C654 C 0.86603 0.56677 0.5881 0.0
C655 C 0.85627 0.54066 0.50342 0.0
H656 H 0.9076 0.58638 0.70861 0.0
C657 C 0.88128 0.51142 0.48829 0.0
H658 H 0.84837 0.59015 0.6016 0.0
C659 C 0.91541 0.50972 0.54749 0.0
C660 C 0.92607 0.5366 0.62753 0.0
H661 H 0.87537 0.49065 0.42447 0.0
H662 H 0.93434 0.48792 0.52674 0.0
C663 C 0.90028 0.56466 0.64949 0.0
loop_
_geom_bond_atom_site_label_1
_geom_bond_atom_site_label_2
_geom_bond_distance
_geom_bond_site_symmetry_2
_ccdc_geom_bond_type
H0 C3 0.929 . S
H1 C6 0.929 . S
H2 C8 0.930 . S
C3 H0 0.929 . S
C3 C4 1.398 . S
C3 C5 1.396 . S
C4 C3 1.398 . S
C4 C8 1.407 . S
C5 C3 1.396 . S
C5 C6 1.394 . S
C6 H1 0.929 . S
C6 C5 1.394 . S
C6 C7 1.382 . S
C7 C6 1.382 . S
C7 C8 1.392 . S
C7 N9 1.420 . S
C8 H2 0.930 . S
C8 C4 1.407 . S
C8 C7 1.392 . S
N9 C7 1.420 . S
N9 C10 1.244 . S
C10 N9 1.244 . S
H11 C14 0.929 . S
H12 C17 0.929 . S
H13 C19 0.930 . S
C14 H11 0.929 . S
C14 C15 1.398 . S
C14 C16 1.396 . S
C15 C14 1.398 . S
C15 C19 1.407 . S
C16 C14 1.396 . S
C16 C17 1.394 . S
C17 H12 0.929 . S
C17 C16 1.394 . S
C17 C18 1.382 . S
C18 C17 1.382 . S
C18 C19 1.392 . S
C18 N20 1.417 1_655 S
C19 H13 0.930 . S
C19 C15 1.407 . S
C19 C18 1.392 . S
N20 C18 1.417 1_455 S
N20 C21 1.234 1_455 S
C21 N20 1.234 1_655 S
H22 C25 0.929 . S
H23 C28 0.929 . S
H24 C30 0.931 . S
C25 H22 0.929 . S
C25 C26 1.398 . S
C25 C27 1.396 . S
C26 C25 1.398 . S
C26 C30 1.407 . S
C27 C25 1.396 . S
C27 C28 1.394 . S
C28 H23 0.929 . S
C28 C27 1.394 . S
C28 C29 1.382 . S
C29 C28 1.382 . S
C29 C30 1.392 . S
C29 N31 1.420 1_565 S
C30 H24 0.931 . S
C30 C26 1.407 . S
C30 C29 1.392 . S
N31 C29 1.420 1_545 S
N31 C32 1.244 1_545 S
C32 N31 1.244 1_565 S
H33 C36 0.929 . S
H34 C39 0.929 . S
H35 C41 0.930 . S
C36 H33 0.929 . S
C36 C37 1.398 . S
C36 C38 1.396 . S
C37 C36 1.398 . S
C37 C41 1.407 . S
C38 C36 1.396 . S
C38 C39 1.394 . S
C39 H34 0.929 . S
C39 C38 1.394 . S
C39 C40 1.382 . S
C40 C39 1.382 . S
C40 C41 1.392 . S
C40 N42 1.420 . S
C41 H35 0.930 . S
C41 C37 1.407 . S
C41 C40 1.392 . S
N42 C40 1.420 . S
N42 C43 1.244 . S
C43 N42 1.244 . S
H44 C47 0.929 . S
H45 C50 0.929 . S
H46 C52 0.930 . S
C47 H44 0.929 . S
C47 C48 1.398 1_554 S
C47 C49 1.396 . S
C48 C47 1.398 1_556 S
C48 C52 1.407 . S
C49 C47 1.396 . S
C49 C50 1.394 . S
C50 H45 0.929 . S
C50 C49 1.394 . S
C50 C51 1.382 . S
C51 C50 1.382 . S
C51 C52 1.392 1_554 S
C51 N53 1.420 . S
C52 H46 0.930 . S
C52 C48 1.407 . S
C52 C51 1.392 1_556 S
N53 C51 1.420 . S
N53 C54 1.244 . S
C54 N53 1.244 . S
H55 C58 0.929 . S
H56 C61 0.929 . S
H57 C63 0.930 . S
C58 H55 0.929 . S
C58 C59 1.398 1_554 S
C58 C60 1.396 . S
C59 C58 1.398 1_556 S
C59 C63 1.407 . S
C60 C58 1.396 . S
C60 C61 1.394 . S
C61 H56 0.929 . S
C61 C60 1.394 . S
C61 C62 1.382 . S
C62 C61 1.382 . S
C62 C63 1.392 1_554 S
C62 N64 1.420 . S
C63 H57 0.930 . S
C63 C59 1.407 . S
C63 C62 1.392 1_556 S
N64 C62 1.420 . S
N64 C65 1.244 . S
C65 N64 1.244 . S
H66 C69 0.929 . S
H67 C72 0.929 . S
H68 C74 0.930 . S
C69 H66 0.929 . S
C69 C70 1.398 1_554 S
C69 C71 1.396 . S
C70 C69 1.398 1_556 S
C70 C74 1.407 . S
C71 C69 1.396 . S
C71 C72 1.394 . S
C72 H67 0.929 . S
C72 C71 1.394 . S
C72 C73 1.382 . S
C73 C72 1.382 . S
C73 C74 1.392 1_554 S
C73 N75 1.420 . S
C74 H68 0.930 . S
C74 C70 1.407 . S
C74 C73 1.392 1_556 S
N75 C73 1.420 . S
N75 C76 1.244 . S
C76 N75 1.244 . S
H77 C80 0.929 . S
H78 C83 0.929 . S
H79 C85 0.930 . S
C80 H77 0.929 . S
C80 C81 1.398 1_554 S
C80 C82 1.396 . S
C81 C80 1.398 1_556 S
C81 C85 1.407 . S
C82 C80 1.396 . S
C82 C83 1.394 . S
C83 H78 0.929 . S
C83 C82 1.394 . S
C83 C84 1.382 . S
C84 C83 1.382 . S
C84 C85 1.392 1_554 S
C84 N86 1.420 . S
C85 H79 0.930 . S
C85 C81 1.407 . S
C85 C84 1.392 1_556 S
N86 C84 1.420 . S
N86 C87 1.244 . S
C87 N86 1.244 . S
Tb88 N117 2.617 . S
Tb88 N123 2.572 . S
Tb88 O132 2.465 . S
Tb88 O133 2.387 1_545 S
Tb88 O135 2.428 . S
Tb88 O136 2.308 1_655 S
Tb88 O140 2.349 1_655 S
Tb88 O143 2.393 . S
Tb88 C152 2.802 . S
C89 N90 1.379 1_554 S
C89 C92 1.416 . S
C89 C96 1.424 . S
N90 C89 1.379 1_556 S
N90 C93 1.334 . S
N90 Tb99 2.617 1_545 S
C91 C93 1.390 . S
C91 C94 1.339 . S
C91 H111 0.930 . S
C92 C89 1.416 . S
C92 C94 1.416 1_554 S
C92 C98 1.448 . S
C93 N90 1.334 . S
C93 C91 1.390 . S
C93 H104 0.930 1_545 S
C94 C91 1.339 . S
C94 C92 1.416 1_556 S
C94 H115 0.930 . S
C95 C96 1.413 . S
C95 C97 1.427 . S
C95 C101 1.416 . S
C96 C89 1.424 . S
C96 C95 1.413 . S
C96 N100 1.361 . S
C97 C95 1.427 . S
C97 C98 1.328 . S
C97 H112 0.929 . S
C98 C92 1.448 . S
C98 C97 1.328 . S
C98 H113 0.930 . S
Tb99 N90 2.617 1_565 S
Tb99 N100 2.572 1_566 S
Tb99 O134 2.349 . S
Tb99 O137 2.393 . S
Tb99 O138 2.465 . S
Tb99 O139 2.387 1_565 S
Tb99 O141 2.428 . S
Tb99 O142 2.308 1_465 S
Tb99 C163 2.802 . S
N100 C96 1.361 . S
N100 Tb99 2.572 1_544 S
N100 C102 1.340 . S
C101 C95 1.416 . S
C101 C103 1.332 . S
C101 H109 0.931 . S
C102 N100 1.340 . S
C102 C103 1.407 . S
C102 H108 0.930 . S
C103 C101 1.332 . S
C103 C102 1.407 . S
C103 H105 0.929 . S
H104 C93 0.930 1_565 S
H105 C103 0.929 . S
H106 C121 0.930 . S
H107 C128 0.929 1_455 S
H108 C102 0.930 . S
H109 C101 0.931 . S
H110 C124 0.930 1_455 S
H111 C91 0.930 . S
H112 C97 0.929 . S
H113 C98 0.930 . S
H114 C119 0.930 . S
H115 C94 0.930 . S
H116 C127 0.931 . S
N117 Tb88 2.617 . S
N117 C118 1.379 1_545 S
N117 C121 1.334 . S
C118 N117 1.379 1_565 S
C118 C120 1.416 . S
C118 C126 1.424 . S
C119 H114 0.930 . S
C119 C121 1.390 . S
C119 C122 1.339 1_545 S
C120 C118 1.416 . S
C120 C122 1.416 . S
C120 C153 1.448 . S
C121 H106 0.930 . S
C121 N117 1.334 . S
C121 C119 1.390 . S
C122 C119 1.339 1_565 S
C122 C120 1.416 . S
C122 H129 0.930 . S
N123 Tb88 2.572 . S
N123 C124 1.340 . S
N123 C126 1.361 1_545 S
C124 H110 0.930 1_655 S
C124 N123 1.340 . S
C124 C128 1.407 1_545 S
C125 C126 1.413 . S
C125 C127 1.416 . S
C125 C154 1.427 . S
C126 C118 1.424 . S
C126 N123 1.361 1_565 S
C126 C125 1.413 . S
C127 H116 0.931 . S
C127 C125 1.416 . S
C127 C128 1.332 . S
C128 H107 0.929 1_655 S
C128 C124 1.407 1_565 S
C128 C127 1.332 . S
H129 C122 0.930 . S
H130 C153 0.930 . S
H131 C154 0.929 . S
O132 Tb88 2.465 . S
O132 C152 1.264 . S
O133 Tb88 2.387 1_565 S
O133 C144 1.264 . S
O134 Tb99 2.349 . S
O134 C144 1.243 1_455 S
O135 Tb88 2.428 . S
O135 C152 1.256 . S
O136 Tb88 2.308 1_455 S
O136 C151 1.266 . S
O137 Tb99 2.393 . S
O137 C151 1.248 1_565 S
O138 Tb99 2.465 . S
O138 C163 1.264 . S
O139 Tb99 2.387 1_545 S
O139 C155 1.264 . S
O140 Tb88 2.349 1_455 S
O140 C155 1.243 . S
O141 Tb99 2.428 . S
O141 C163 1.256 . S
O142 Tb99 2.308 1_645 S
O142 C162 1.266 . S
O143 Tb88 2.393 . S
O143 C162 1.248 . S
C144 O133 1.264 . S
C144 O134 1.243 1_655 S
C145 C148 1.399 . S
C145 C150 1.383 . S
C145 C152 1.496 . S
C146 C147 1.399 . S
C146 C150 1.389 . S
C147 C146 1.399 . S
C147 C149 1.380 . S
C147 H164 0.929 . S
C148 C145 1.399 . S
C148 C149 1.392 . S
C148 H165 0.929 . S
C149 C147 1.380 . S
C149 C148 1.392 . S
C149 H166 0.929 . S
C150 C145 1.383 . S
C150 C146 1.389 . S
C150 H167 0.931 1_655 S
C151 O136 1.266 . S
C151 O137 1.248 1_545 S
C152 Tb88 2.802 . S
C152 O132 1.264 . S
C152 O135 1.256 . S
C152 C145 1.496 . S
C153 C120 1.448 . S
C153 H130 0.930 . S
C153 C154 1.328 . S
C154 C125 1.427 . S
C154 H131 0.929 . S
C154 C153 1.328 . S
C155 O139 1.264 . S
C155 O140 1.243 . S
C156 C159 1.399 . S
C156 C160 1.383 . S
C156 C163 1.496 1_554 S
C157 C158 1.399 . S
C157 C160 1.389 . S
C158 C157 1.399 . S
C158 C161 1.380 . S
C158 H168 0.929 . S
C159 C156 1.399 . S
C159 C161 1.392 . S
C159 H169 0.929 1_554 S
C160 C156 1.383 . S
C160 C157 1.389 . S
C160 H170 0.931 . S
C161 C158 1.380 . S
C161 C159 1.392 . S
C161 H171 0.929 . S
C162 O142 1.266 . S
C162 O143 1.248 . S
C163 Tb99 2.802 . S
C163 O138 1.264 . S
C163 O141 1.256 . S
C163 C156 1.496 1_556 S
H164 C147 0.929 . S
H165 C148 0.929 . S
H166 C149 0.929 . S
H167 C150 0.931 1_455 S
H168 C158 0.929 . S
H169 C159 0.929 1_556 S
H170 C160 0.931 . S
H171 C161 0.929 . S
Tb172 N201 2.617 . S
Tb172 N207 2.572 . S
Tb172 O216 2.465 . S
Tb172 O217 2.387 . S
Tb172 O219 2.428 1_556 S
Tb172 O220 2.308 . S
Tb172 O224 2.349 1_545 S
Tb172 O227 2.393 . S
Tb172 C236 2.802 1_556 S
C173 N174 1.379 . S
C173 C176 1.416 . S
C173 C180 1.424 . S
N174 C173 1.379 . S
N174 C177 1.334 . S
N174 Tb183 2.617 . S
C175 C177 1.390 . S
C175 C178 1.339 . S
C175 H195 0.930 . S
C176 C173 1.416 . S
C176 C178 1.416 . S
C176 C182 1.448 . S
C177 N174 1.334 . S
C177 C175 1.390 . S
C177 H188 0.930 . S
C178 C175 1.339 . S
C178 C176 1.416 . S
C178 H199 0.930 . S
C179 C180 1.413 . S
C179 C181 1.427 . S
C179 C185 1.416 . S
C180 C173 1.424 . S
C180 C179 1.413 . S
C180 N184 1.361 . S
C181 C179 1.427 . S
C181 C182 1.328 . S
C181 H196 0.929 . S
C182 C176 1.448 . S
C182 C181 1.328 . S
C182 H197 0.930 . S
Tb183 N174 2.617 . S
Tb183 N184 2.572 . S
Tb183 O218 2.349 1_565 S
Tb183 O221 2.393 . S
Tb183 O222 2.465 . S
Tb183 O223 2.387 . S
Tb183 O225 2.428 . S
Tb183 O226 2.308 1_565 S
Tb183 C247 2.802 . S
N184 C180 1.361 . S
N184 Tb183 2.572 . S
N184 C186 1.340 . S
C185 C179 1.416 . S
C185 C187 1.332 . S
C185 H193 0.931 . S
C186 N184 1.340 . S
C186 C187 1.407 . S
C186 H192 0.930 . S
C187 C185 1.332 . S
C187 C186 1.407 . S
C187 H189 0.929 . S
H188 C177 0.930 . S
H189 C187 0.929 . S
H190 C205 0.930 . S
H191 C212 0.929 . S
H192 C186 0.930 . S
H193 C185 0.931 . S
H194 C208 0.930 . S
H195 C175 0.930 . S
H196 C181 0.929 . S
H197 C182 0.930 . S
H198 C203 0.930 . S
H199 C178 0.930 . S
H200 C211 0.931 . S
N201 Tb172 2.617 . S
N201 C202 1.379 . S
N201 C205 1.334 1_556 S
C202 N201 1.379 . S
C202 C204 1.416 . S
C202 C210 1.424 . S
C203 H198 0.930 . S
C203 C205 1.390 . S
C203 C206 1.339 1_554 S
C204 C202 1.416 . S
C204 C206 1.416 . S
C204 C237 1.448 . S
C205 H190 0.930 . S
C205 N201 1.334 1_554 S
C205 C203 1.390 . S
C206 C203 1.339 1_556 S
C206 C204 1.416 . S
C206 H213 0.930 1_556 S
N207 Tb172 2.572 . S
N207 C208 1.340 . S
N207 C210 1.361 . S
C208 H194 0.930 . S
C208 N207 1.340 . S
C208 C212 1.407 . S
C209 C210 1.413 . S
C209 C211 1.416 . S
C209 C238 1.427 . S
C210 C202 1.424 . S
C210 N207 1.361 . S
C210 C209 1.413 . S
C211 H200 0.931 . S
C211 C209 1.416 . S
C211 C212 1.332 . S
C212 H191 0.929 . S
C212 C208 1.407 . S
C212 C211 1.332 . S
H213 C206 0.930 1_554 S
H214 C237 0.930 . S
H215 C238 0.929 . S
O216 Tb172 2.465 . S
O216 C236 1.264 1_556 S
O217 Tb172 2.387 . S
O217 C228 1.264 . S
O218 Tb183 2.349 1_545 S
O218 C228 1.243 . S
O219 Tb172 2.428 1_554 S
O219 C236 1.256 . S
O220 Tb172 2.308 . S
O220 C235 1.265 . S
O221 Tb183 2.393 . S
O221 C235 1.249 1_565 S
O222 Tb183 2.465 . S
O222 C247 1.264 . S
O223 Tb183 2.387 . S
O223 C239 1.264 . S
O224 Tb172 2.349 1_565 S
O224 C239 1.243 . S
O225 Tb183 2.428 . S
O225 C247 1.256 . S
O226 Tb183 2.308 1_545 S
O226 C246 1.266 . S
O227 Tb172 2.393 . S
O227 C246 1.248 . S
C228 O217 1.264 . S
C228 O218 1.243 . S
C229 C232 1.399 . S
C229 C234 1.383 . S
C229 C236 1.496 . S
C230 C231 1.399 . S
C230 C234 1.389 . S
C231 C230 1.399 . S
C231 C233 1.380 . S
C231 H248 0.929 . S
C232 C229 1.399 . S
C232 C233 1.392 . S
C232 H249 0.929 . S
C233 C231 1.380 . S
C233 C232 1.392 . S
C233 H250 0.929 . S
C234 C229 1.383 . S
C234 C230 1.389 . S
C234 H251 0.931 . S
C235 O220 1.265 . S
C235 O221 1.249 1_545 S
C236 Tb172 2.802 1_554 S
C236 O216 1.264 1_554 S
C236 O219 1.256 . S
C236 C229 1.496 . S
C237 C204 1.448 . S
C237 H214 0.930 . S
C237 C238 1.328 . S
C238 C209 1.427 . S
C238 H215 0.929 . S
C238 C237 1.328 . S
C239 O223 1.264 . S
C239 O224 1.243 . S
C240 C243 1.399 . S
C240 C244 1.383 . S
C240 C247 1.496 . S
C241 C242 1.399 . S
C241 C244 1.389 . S
C242 C241 1.399 . S
C242 C245 1.380 . S
C242 H252 0.929 . S
C243 C240 1.399 . S
C243 C245 1.392 . S
C243 H253 0.929 . S
C244 C240 1.383 . S
C244 C241 1.389 . S
C244 H254 0.931 1_565 S
C245 C242 1.380 . S
C245 C243 1.392 . S
C245 H255 0.929 . S
C246 O226 1.266 . S
C246 O227 1.248 . S
C247 Tb183 2.802 . S
C247 O222 1.264 . S
C247 O225 1.256 . S
C247 C240 1.496 . S
H248 C231 0.929 . S
H249 C232 0.929 . S
H250 C233 0.929 . S
H251 C234 0.931 . S
H252 C242 0.929 . S
H253 C243 0.929 . S
H254 C244 0.931 1_545 S
H255 C245 0.929 . S
Tb256 N285 2.617 . S
Tb256 N291 2.572 . S
Tb256 O300 2.465 . S
Tb256 O301 2.387 . S
Tb256 O303 2.428 . S
Tb256 O304 2.308 . S
Tb256 O308 2.349 . S
Tb256 O311 2.393 . S
Tb256 C320 2.802 . S
C257 N258 1.379 1_554 S
C257 C260 1.416 . S
C257 C264 1.424 . S
N258 C257 1.379 1_556 S
N258 C261 1.334 . S
N258 Tb267 2.617 . S
C259 C261 1.390 . S
C259 C262 1.339 . S
C259 H279 0.930 . S
C260 C257 1.416 . S
C260 C262 1.416 1_554 S
C260 C266 1.448 . S
C261 N258 1.334 . S
C261 C259 1.390 . S
C261 H272 0.930 . S
C262 C259 1.339 . S
C262 C260 1.416 1_556 S
C262 H283 0.930 . S
C263 C264 1.413 . S
C263 C265 1.427 . S
C263 C269 1.416 . S
C264 C257 1.424 . S
C264 C263 1.413 . S
C264 N268 1.361 . S
C265 C263 1.427 . S
C265 C266 1.328 . S
C265 H280 0.929 . S
C266 C260 1.448 . S
C266 C265 1.328 . S
C266 H281 0.930 . S
Tb267 N258 2.617 . S
Tb267 N268 2.572 1_556 S
Tb267 O302 2.349 . S
Tb267 O305 2.393 . S
Tb267 O306 2.465 . S
Tb267 O307 2.387 . S
Tb267 O309 2.428 . S
Tb267 O310 2.308 . S
Tb267 C331 2.802 . S
N268 C264 1.361 . S
N268 Tb267 2.572 1_554 S
N268 C270 1.340 . S
C269 C263 1.416 . S
C269 C271 1.332 . S
C269 H277 0.931 . S
C270 N268 1.340 . S
C270 C271 1.407 . S
C270 H276 0.930 . S
C271 C269 1.332 . S
C271 C270 1.407 . S
C271 H273 0.929 . S
H272 C261 0.930 . S
H273 C271 0.929 . S
H274 C289 0.930 . S
H275 C296 0.929 . S
H276 C270 0.930 . S
H277 C269 0.931 . S
H278 C292 0.930 . S
H279 C259 0.930 . S
H280 C265 0.929 . S
H281 C266 0.930 . S
H282 C287 0.930 . S
H283 C262 0.930 . S
H284 C295 0.931 . S
N285 Tb256 2.617 . S
N285 C286 1.379 . S
N285 C289 1.334 . S
C286 N285 1.379 . S
C286 C288 1.416 . S
C286 C294 1.424 . S
C287 H282 0.930 . S
C287 C289 1.390 . S
C287 C290 1.339 . S
C288 C286 1.416 . S
C288 C290 1.416 . S
C288 C321 1.448 . S
C289 H274 0.930 . S
C289 N285 1.334 . S
C289 C287 1.390 . S
C290 C287 1.339 . S
C290 C288 1.416 . S
C290 H297 0.930 . S
N291 Tb256 2.572 . S
N291 C292 1.340 . S
N291 C294 1.361 . S
C292 H278 0.930 . S
C292 N291 1.340 . S
C292 C296 1.407 . S
C293 C294 1.413 . S
C293 C295 1.416 . S
C293 C322 1.427 . S
C294 C286 1.424 . S
C294 N291 1.361 . S
C294 C293 1.413 . S
C295 H284 0.931 . S
C295 C293 1.416 . S
C295 C296 1.332 . S
C296 H275 0.929 . S
C296 C292 1.407 . S
C296 C295 1.332 . S
H297 C290 0.930 . S
H298 C321 0.930 . S
H299 C322 0.929 . S
O300 Tb256 2.465 . S
O300 C320 1.264 . S
O301 Tb256 2.387 . S
O301 C312 1.264 . S
O302 Tb267 2.349 . S
O302 C312 1.243 . S
O303 Tb256 2.428 . S
O303 C320 1.256 . S
O304 Tb256 2.308 . S
O304 C319 1.266 . S
O305 Tb267 2.393 . S
O305 C319 1.248 . S
O306 Tb267 2.465 . S
O306 C331 1.264 . S
O307 Tb267 2.387 . S
O307 C323 1.264 . S
O308 Tb256 2.349 . S
O308 C323 1.243 . S
O309 Tb267 2.428 . S
O309 C331 1.256 . S
O310 Tb267 2.308 . S
O310 C330 1.266 . S
O311 Tb256 2.393 . S
O311 C330 1.248 . S
C312 O301 1.264 . S
C312 O302 1.243 . S
C313 C316 1.399 . S
C313 C318 1.383 . S
C313 C320 1.496 . S
C314 C315 1.399 . S
C314 C318 1.389 . S
C315 C314 1.399 . S
C315 C317 1.380 . S
C315 H332 0.929 . S
C316 C313 1.399 . S
C316 C317 1.392 . S
C316 H333 0.929 . S
C317 C315 1.380 . S
C317 C316 1.392 . S
C317 H334 0.929 . S
C318 C313 1.383 . S
C318 C314 1.389 . S
C318 H335 0.931 . S
C319 O304 1.266 . S
C319 O305 1.248 . S
C320 Tb256 2.802 . S
C320 O300 1.264 . S
C320 O303 1.256 . S
C320 C313 1.496 . S
C321 C288 1.448 . S
C321 H298 0.930 . S
C321 C322 1.328 . S
C322 C293 1.427 . S
C322 H299 0.929 . S
C322 C321 1.328 . S
C323 O307 1.264 . S
C323 O308 1.243 . S
C324 C327 1.399 . S
C324 C328 1.383 . S
C324 C331 1.496 1_554 S
C325 C326 1.399 . S
C325 C328 1.389 . S
C326 C325 1.399 . S
C326 C329 1.380 . S
C326 H336 0.929 . S
C327 C324 1.399 . S
C327 C329 1.392 . S
C327 H337 0.929 1_554 S
C328 C324 1.383 . S
C328 C325 1.389 . S
C328 H338 0.931 . S
C329 C326 1.380 . S
C329 C327 1.392 . S
C329 H339 0.929 . S
C330 O310 1.266 . S
C330 O311 1.248 . S
C331 Tb267 2.802 . S
C331 O306 1.264 . S
C331 O309 1.256 . S
C331 C324 1.496 1_556 S
H332 C315 0.929 . S
H333 C316 0.929 . S
H334 C317 0.929 . S
H335 C318 0.931 . S
H336 C326 0.929 . S
H337 C327 0.929 1_556 S
H338 C328 0.931 . S
H339 C329 0.929 . S
Tb340 N369 2.617 . S
Tb340 N375 2.572 . S
Tb340 O384 2.465 . S
Tb340 O385 2.387 1_455 S
Tb340 O387 2.428 . S
Tb340 O388 2.308 . S
Tb340 O392 2.349 . S
Tb340 O395 2.393 . S
Tb340 C404 2.802 . S
C341 N342 1.379 1_554 S
C341 C344 1.416 . S
C341 C348 1.424 . S
N342 C341 1.379 1_556 S
N342 C345 1.336 . S
N342 Tb351 2.617 1_455 S
C343 C345 1.395 . S
C343 C346 1.339 . S
C343 H363 0.930 . S
C344 C341 1.416 . S
C344 C346 1.416 1_554 S
C344 C350 1.448 . S
C345 N342 1.336 . S
C345 C343 1.395 . S
C345 H356 0.923 1_455 S
C346 C343 1.339 . S
C346 C344 1.416 1_556 S
C346 H367 0.930 . S
C347 C348 1.413 . S
C347 C349 1.427 . S
C347 C353 1.416 . S
C348 C341 1.424 . S
C348 C347 1.413 . S
C348 N352 1.361 . S
C349 C347 1.427 . S
C349 C350 1.328 . S
C349 H364 0.929 . S
C350 C344 1.448 . S
C350 C349 1.328 . S
C350 H365 0.930 . S
Tb351 N342 2.617 1_655 S
Tb351 N352 2.572 1_656 S
Tb351 O386 2.349 . S
Tb351 O389 2.393 . S
Tb351 O390 2.465 . S
Tb351 O391 2.387 1_655 S
Tb351 O393 2.428 . S
Tb351 O394 2.308 1_655 S
Tb351 C415 2.802 . S
N352 C348 1.361 . S
N352 Tb351 2.572 1_454 S
N352 C354 1.340 . S
C353 C347 1.416 . S
C353 C355 1.332 . S
C353 H361 0.931 . S
C354 N352 1.340 . S
C354 C355 1.407 . S
C354 H360 0.930 . S
C355 C353 1.332 . S
C355 C354 1.407 . S
C355 H357 0.929 . S
H356 C345 0.923 1_655 S
H357 C355 0.929 . S
H358 C373 0.930 . S
H359 C380 0.929 . S
H360 C354 0.930 . S
H361 C353 0.931 . S
H362 C376 0.930 . S
H363 C343 0.930 . S
H364 C349 0.929 . S
H365 C350 0.930 . S
H366 C371 0.930 . S
H367 C346 0.930 . S
H368 C379 0.931 . S
N369 Tb340 2.617 . S
N369 C370 1.379 1_455 S
N369 C373 1.334 . S
C370 N369 1.379 1_655 S
C370 C372 1.416 . S
C370 C378 1.424 . S
C371 H366 0.930 . S
C371 C373 1.390 . S
C371 C374 1.339 1_455 S
C372 C370 1.416 . S
C372 C374 1.416 . S
C372 C405 1.448 . S
C373 H358 0.930 . S
C373 N369 1.334 . S
C373 C371 1.390 . S
C374 C371 1.339 1_655 S
C374 C372 1.416 . S
C374 H381 0.930 . S
N375 Tb340 2.572 . S
N375 C376 1.340 . S
N375 C378 1.361 1_455 S
C376 H362 0.930 . S
C376 N375 1.340 . S
C376 C380 1.407 1_455 S
C377 C378 1.413 . S
C377 C379 1.416 . S
C377 C406 1.427 . S
C378 C370 1.424 . S
C378 N375 1.361 1_655 S
C378 C377 1.413 . S
C379 H368 0.931 . S
C379 C377 1.416 . S
C379 C380 1.332 . S
C380 H359 0.929 . S
C380 C376 1.407 1_655 S
C380 C379 1.332 . S
H381 C374 0.930 . S
H382 C405 0.930 . S
H383 C406 0.929 . S
O384 Tb340 2.465 . S
O384 C404 1.264 . S
O385 Tb340 2.387 1_655 S
O385 C396 1.264 . S
O386 Tb351 2.349 . S
O386 C396 1.243 . S
O387 Tb340 2.428 . S
O387 C404 1.256 . S
O388 Tb340 2.308 . S
O388 C403 1.266 . S
O389 Tb351 2.393 . S
O389 C403 1.248 1_655 S
O390 Tb351 2.465 . S
O390 C415 1.264 . S
O391 Tb351 2.387 1_455 S
O391 C407 1.264 . S
O392 Tb340 2.349 . S
O392 C407 1.243 . S
O393 Tb351 2.428 . S
O393 C415 1.256 . S
O394 Tb351 2.308 1_455 S
O394 C414 1.266 . S
O395 Tb340 2.393 . S
O395 C414 1.248 . S
C396 O385 1.264 . S
C396 O386 1.243 . S
C397 C400 1.399 . S
C397 C402 1.383 . S
C397 C404 1.496 . S
C398 C399 1.399 . S
C398 C402 1.389 . S
C399 C398 1.399 . S
C399 C401 1.380 . S
C399 H416 0.929 . S
C400 C397 1.399 . S
C400 C401 1.392 . S
C400 H417 0.929 . S
C401 C399 1.380 . S
C401 C400 1.392 . S
C401 H418 0.929 . S
C402 C397 1.383 . S
C402 C398 1.389 . S
C402 H419 0.931 . S
C403 O388 1.266 . S
C403 O389 1.248 1_455 S
C404 Tb340 2.802 . S
C404 O384 1.264 . S
C404 O387 1.256 . S
C404 C397 1.496 . S
C405 C372 1.448 . S
C405 H382 0.930 . S
C405 C406 1.328 . S
C406 C377 1.427 . S
C406 H383 0.929 . S
C406 C405 1.328 . S
C407 O391 1.264 . S
C407 O392 1.243 . S
C408 C411 1.399 . S
C408 C412 1.383 . S
C408 C415 1.496 1_554 S
C409 C410 1.399 . S
C409 C412 1.389 . S
C410 C409 1.399 . S
C410 C413 1.380 . S
C410 H420 0.929 . S
C411 C408 1.399 . S
C411 C413 1.392 . S
C411 H421 0.929 1_554 S
C412 C408 1.383 . S
C412 C409 1.389 . S
C412 H422 0.931 . S
C413 C410 1.380 . S
C413 C411 1.392 . S
C413 H423 0.929 . S
C414 O394 1.266 . S
C414 O395 1.248 . S
C415 Tb351 2.802 . S
C415 O390 1.264 . S
C415 O393 1.256 . S
C415 C408 1.496 1_556 S
H416 C399 0.929 . S
H417 C400 0.929 . S
H418 C401 0.929 . S
H419 C402 0.931 . S
H420 C410 0.929 . S
H421 C411 0.929 1_556 S
H422 C412 0.931 . S
H423 C413 0.929 . S
C424 C425 1.381 1_565 S
C424 H428 0.955 . S
C424 C433 1.391 . S
C425 C424 1.381 1_545 S
C425 C427 1.387 . S
H426 C433 0.950 . S
C427 C425 1.387 . S
C427 C429 1.390 . S
C427 H431 0.950 . S
H428 C424 0.955 . S
C429 C427 1.390 . S
C429 C430 1.387 . S
C429 H432 0.950 . S
C430 C429 1.387 . S
C430 C433 1.387 1_545 S
H431 C427 0.950 . S
H432 C429 0.950 . S
C433 C424 1.391 . S
C433 H426 0.950 . S
C433 C430 1.387 1_565 S
C434 C435 1.387 . S
C434 H438 0.950 . S
C434 C443 1.390 . S
C435 C434 1.387 . S
C435 C437 1.387 . S
H436 C443 0.950 . S
C437 C435 1.387 . S
C437 C439 1.390 . S
C437 H441 0.950 . S
H438 C434 0.950 . S
C439 C437 1.390 . S
C439 C440 1.387 . S
C439 H442 0.950 . S
C440 C439 1.387 . S
C440 C443 1.387 . S
H441 C437 0.950 . S
H442 C439 0.950 . S
C443 C434 1.390 . S
C443 H436 0.950 . S
C443 C440 1.387 . S
C444 C445 1.387 . S
C444 H448 0.950 . S
C444 C453 1.390 . S
C445 C444 1.387 . S
C445 C447 1.387 . S
H446 C453 0.950 . S
C447 C445 1.387 . S
C447 C449 1.390 . S
C447 H451 0.950 . S
H448 C444 0.950 . S
C449 C447 1.390 . S
C449 C450 1.387 . S
C449 H452 0.950 . S
C450 C449 1.387 . S
C450 C453 1.387 . S
H451 C447 0.950 . S
H452 C449 0.950 . S
C453 C444 1.390 . S
C453 H446 0.950 . S
C453 C450 1.387 . S
C454 C455 1.387 . S
C454 H458 0.950 . S
C454 C463 1.390 . S
C455 C454 1.387 . S
C455 C457 1.387 1_455 S
H456 C463 0.950 . S
C457 C455 1.387 1_655 S
C457 C459 1.390 . S
C457 H461 0.950 . S
H458 C454 0.950 . S
C459 C457 1.390 . S
C459 C460 1.387 1_655 S
C459 H462 0.950 . S
C460 C459 1.387 1_455 S
C460 C463 1.387 . S
H461 C457 0.950 . S
H462 C459 0.950 . S
C463 C454 1.390 . S
C463 H456 0.950 . S
C463 C460 1.387 . S
C464 C465 1.387 . S
C464 H468 0.950 . S
C464 C473 1.390 . S
C465 C464 1.387 . S
C465 C467 1.387 1_565 S
H466 C473 0.950 . S
C467 C465 1.387 1_545 S
C467 C469 1.390 . S
C467 H471 0.950 . S
H468 C464 0.950 . S
C469 C467 1.390 . S
C469 C470 1.371 1_545 S
C469 H472 0.950 . S
C470 C469 1.371 1_565 S
C470 C473 1.406 . S
H471 C467 0.950 . S
H472 C469 0.950 . S
C473 C464 1.390 . S
C473 H466 0.950 . S
C473 C470 1.406 . S
C474 C475 1.387 . S
C474 H478 0.950 . S
C474 C483 1.390 . S
C475 C474 1.387 . S
C475 C477 1.387 . S
H476 C483 0.950 1_556 S
C477 C475 1.387 . S
C477 C479 1.390 . S
C477 H481 0.950 . S
H478 C474 0.950 . S
C479 C477 1.390 . S
C479 C480 1.387 . S
C479 H482 0.950 . S
C480 C479 1.387 . S
C480 C483 1.387 . S
H481 C477 0.950 . S
H482 C479 0.950 . S
C483 C474 1.390 . S
C483 H476 0.950 1_554 S
C483 C480 1.387 . S
C484 C485 1.387 . S
C484 H488 0.950 . S
C484 C493 1.390 . S
C485 C484 1.387 . S
C485 C487 1.387 . S
H486 C493 0.950 . S
C487 C485 1.387 . S
C487 C489 1.390 . S
C487 H491 0.950 . S
H488 C484 0.950 . S
C489 C487 1.390 . S
C489 C490 1.387 . S
C489 H492 0.950 . S
C490 C489 1.387 . S
C490 C493 1.387 . S
H491 C487 0.950 . S
H492 C489 0.950 . S
C493 C484 1.390 . S
C493 H486 0.950 . S
C493 C490 1.387 . S
C494 C495 1.387 1_455 S
C494 H498 0.950 . S
C494 C503 1.390 . S
C495 C494 1.387 1_655 S
C495 C497 1.387 . S
H496 C503 0.950 . S
C497 C495 1.387 . S
C497 C499 1.390 . S
C497 H501 0.950 . S
H498 C494 0.950 . S
C499 C497 1.390 . S
C499 C500 1.387 . S
C499 H502 0.953 . S
C500 C499 1.387 . S
C500 C503 1.387 1_655 S
H501 C497 0.950 . S
H502 C499 0.953 . S
C503 C494 1.390 . S
C503 H496 0.950 . S
C503 C500 1.387 1_455 S
C504 C505 1.387 . S
C504 H508 0.950 . S
C504 C513 1.390 . S
C505 C504 1.387 . S
C505 C507 1.387 . S
H506 C513 0.950 . S
C507 C505 1.387 . S
C507 C509 1.390 . S
C507 H511 0.950 . S
H508 C504 0.950 . S
C509 C507 1.390 . S
C509 C510 1.387 1_455 S
C509 H512 0.950 1_455 S
C510 C509 1.387 1_655 S
C510 C513 1.387 1_655 S
H511 C507 0.950 . S
H512 C509 0.950 1_655 S
C513 C504 1.390 . S
C513 H506 0.950 . S
C513 C510 1.387 1_455 S
C514 C515 1.387 . S
C514 H518 0.950 . S
C514 C523 1.390 . S
C515 C514 1.387 . S
C515 C517 1.387 . S
H516 C523 0.950 . S
C517 C515 1.387 . S
C517 C519 1.390 1_545 S
C517 H521 0.950 . S
H518 C514 0.950 . S
C519 C517 1.390 1_565 S
C519 C520 1.383 1_565 S
C519 H522 0.950 . S
C520 C519 1.383 1_545 S
C520 C523 1.402 . S
H521 C517 0.950 . S
H522 C519 0.950 . S
C523 C514 1.390 . S
C523 H516 0.950 . S
C523 C520 1.402 . S
C524 C525 1.387 . S
C524 H528 0.950 . S
C524 C533 1.390 . S
C525 C524 1.387 . S
C525 C527 1.387 . S
H526 C533 0.950 . S
C527 C525 1.387 . S
C527 C529 1.390 . S
C527 H531 0.950 . S
H528 C524 0.950 . S
C529 C527 1.390 . S
C529 C530 1.387 . S
C529 H532 0.950 . S
C530 C529 1.387 . S
C530 C533 1.387 . S
H531 C527 0.950 . S
H532 C529 0.950 . S
C533 C524 1.390 . S
C533 H526 0.950 . S
C533 C530 1.387 . S
C534 C535 1.387 . S
C534 H538 0.950 . S
C534 C543 1.390 . S
C535 C534 1.387 . S
C535 C537 1.387 . S
H536 C543 0.950 . S
C537 C535 1.387 . S
C537 C539 1.390 . S
C537 H541 0.950 . S
H538 C534 0.950 . S
C539 C537 1.390 . S
C539 C540 1.387 . S
C539 H542 0.950 . S
C540 C539 1.387 . S
C540 C543 1.387 . S
H541 C537 0.950 . S
H542 C539 0.950 . S
C543 C534 1.390 . S
C543 H536 0.950 . S
C543 C540 1.387 . S
C544 C545 1.387 . S
C544 H548 0.950 . S
C544 C553 1.390 . S
C545 C544 1.387 . S
C545 C547 1.387 1_655 S
H546 C553 0.950 . S
C547 C545 1.387 1_455 S
C547 C549 1.390 . S
C547 H551 0.950 . S
H548 C544 0.950 . S
C549 C547 1.390 . S
C549 C550 1.387 . S
C549 H552 0.950 . S
C550 C549 1.387 . S
C550 C553 1.387 1_455 S
H551 C547 0.950 . S
H552 C549 0.950 . S
C553 C544 1.390 . S
C553 H546 0.950 . S
C553 C550 1.387 1_655 S
C554 C555 1.387 1_545 S
C554 H558 0.950 . S
C554 C563 1.390 . S
C555 C554 1.387 1_565 S
C555 C557 1.387 . S
H556 C563 0.950 . S
C557 C555 1.387 . S
C557 C559 1.390 . S
C557 H561 0.950 . S
H558 C554 0.950 . S
C559 C557 1.390 . S
C559 C560 1.387 1_565 S
C559 H562 0.950 . S
C560 C559 1.387 1_545 S
C560 C563 1.387 . S
H561 C557 0.950 . S
H562 C559 0.950 . S
C563 C554 1.390 . S
C563 H556 0.950 . S
C563 C560 1.387 . S
C564 C565 1.387 . S
C564 H568 0.950 . S
C564 C573 1.390 . S
C565 C564 1.387 . S
C565 C567 1.387 . S
H566 C573 0.950 . S
C567 C565 1.387 . S
C567 C569 1.390 . S
C567 H571 0.950 . S
H568 C564 0.950 . S
C569 C567 1.390 . S
C569 C570 1.387 . S
C569 H572 0.950 . S
C570 C569 1.387 . S
C570 C573 1.387 . S
H571 C567 0.950 . S
H572 C569 0.950 . S
C573 C564 1.390 . S
C573 H566 0.950 . S
C573 C570 1.387 . S
C574 C575 1.387 . S
C574 H578 0.950 . S
C574 C583 1.390 . S
C575 C574 1.387 . S
C575 C577 1.387 . S
H576 C583 0.950 . S
C577 C575 1.387 . S
C577 C579 1.390 . S
C577 H581 0.950 . S
H578 C574 0.950 . S
C579 C577 1.390 . S
C579 C580 1.387 . S
C579 H582 0.950 . S
C580 C579 1.387 . S
C580 C583 1.387 . S
H581 C577 0.950 . S
H582 C579 0.950 . S
C583 C574 1.390 . S
C583 H576 0.950 . S
C583 C580 1.387 . S
C584 C585 1.387 . S
C584 H588 0.950 1_455 S
C584 C593 1.390 . S
C585 C584 1.387 . S
C585 C587 1.387 . S
H586 C593 0.950 1_655 S
C587 C585 1.387 . S
C587 C589 1.390 . S
C587 H591 0.950 . S
H588 C584 0.950 1_655 S
C589 C587 1.390 . S
C589 C590 1.387 . S
C589 H592 0.950 . S
C590 C589 1.387 . S
C590 C593 1.387 . S
H591 C587 0.950 . S
H592 C589 0.950 . S
C593 C584 1.390 . S
C593 H586 0.950 1_455 S
C593 C590 1.387 . S
C594 C595 1.387 . S
C594 H598 0.950 1_545 S
C594 C603 1.390 . S
C595 C594 1.387 . S
C595 C597 1.387 . S
H596 C603 0.950 1_565 S
C597 C595 1.387 . S
C597 C599 1.390 . S
C597 H601 0.950 . S
H598 C594 0.950 1_565 S
C599 C597 1.390 . S
C599 C600 1.387 . S
C599 H602 0.950 . S
C600 C599 1.387 . S
C600 C603 1.387 . S
H601 C597 0.950 . S
H602 C599 0.950 . S
C603 C594 1.390 . S
C603 H596 0.950 1_545 S
C603 C600 1.387 . S
C604 C605 1.387 . S
C604 H608 0.950 . S
C604 C613 1.390 . S
C605 C604 1.387 . S
C605 C607 1.387 . S
H606 C613 0.950 . S
C607 C605 1.387 . S
C607 C609 1.390 . S
C607 H611 0.950 1_556 S
H608 C604 0.950 . S
C609 C607 1.390 . S
C609 C610 1.387 . S
C609 H612 0.950 1_556 S
C610 C609 1.387 . S
C610 C613 1.387 . S
H611 C607 0.950 1_554 S
H612 C609 0.950 1_554 S
C613 C604 1.390 . S
C613 H606 0.950 . S
C613 C610 1.387 . S
C614 C615 1.387 . S
C614 H618 0.950 . S
C614 C623 1.390 . S
C615 C614 1.387 . S
C615 C617 1.387 . S
H616 C623 0.950 . S
C617 C615 1.387 . S
C617 C619 1.390 . S
C617 H621 0.950 . S
H618 C614 0.950 . S
C619 C617 1.390 . S
C619 C620 1.387 . S
C619 H622 0.950 . S
C620 C619 1.387 . S
C620 C623 1.387 . S
H621 C617 0.950 . S
H622 C619 0.950 . S
C623 C614 1.390 . S
C623 H616 0.950 . S
C623 C620 1.387 . S
C624 C625 1.387 . S
C624 H628 0.950 . S
C624 C633 1.390 . S
C625 C624 1.387 . S
C625 C627 1.387 . S
H626 C633 0.950 . S
C627 C625 1.387 . S
C627 C629 1.390 . S
C627 H631 0.950 1_655 S
H628 C624 0.950 . S
C629 C627 1.390 . S
C629 C630 1.387 . S
C629 H632 0.951 1_655 S
C630 C629 1.387 . S
C630 C633 1.387 . S
H631 C627 0.950 1_455 S
H632 C629 0.951 1_455 S
C633 C624 1.390 . S
C633 H626 0.950 . S
C633 C630 1.387 . S
C634 C635 1.387 . S
C634 H638 0.950 . S
C634 C643 1.390 . S
C635 C634 1.387 . S
C635 C637 1.387 1_565 S
H636 C643 0.950 . S
C637 C635 1.387 1_545 S
C637 C639 1.390 . S
C637 H641 0.950 . S
H638 C634 0.950 . S
C639 C637 1.390 . S
C639 C640 1.387 1_545 S
C639 H642 0.950 . S
C640 C639 1.387 1_565 S
C640 C643 1.387 . S
H641 C637 0.950 . S
H642 C639 0.950 . S
C643 C634 1.390 . S
C643 H636 0.950 . S
C643 C640 1.387 . S
C644 C645 1.387 . S
C644 H648 0.950 . S
C644 C653 1.390 . S
C645 C644 1.387 . S
C645 C647 1.387 . S
H646 C653 0.950 . S
C647 C645 1.387 . S
C647 C649 1.390 . S
C647 H651 0.950 . S
H648 C644 0.950 . S
C649 C647 1.390 . S
C649 C650 1.387 . S
C649 H652 0.950 . S
C650 C649 1.387 . S
C650 C653 1.387 . S
H651 C647 0.950 . S
H652 C649 0.950 . S
C653 C644 1.390 . S
C653 H646 0.950 . S
C653 C650 1.387 . S
C654 C655 1.387 . S
C654 H658 0.950 . S
C654 C663 1.390 . S
C655 C654 1.387 . S
C655 C657 1.387 . S
H656 C663 0.950 . S
C657 C655 1.387 . S
C657 C659 1.390 . S
C657 H661 0.950 . S
H658 C654 0.950 . S
C659 C657 1.390 . S
C659 C660 1.387 . S
C659 H662 0.950 . S
C660 C659 1.387 . S
C660 C663 1.387 . S
H661 C657 0.950 . S
H662 C659 0.950 . S
C663 C654 1.390 . S
C663 H656 0.950 . S
C663 C660 1.387 . S
C425 C76 1.975 . S
C430 C151 2.186 . S
C440 C228 2.187 . S
C435 C87 1.971 . S
C450 C319 2.185 . S
C445 C54 1.969 . S
C460 C403 2.172 . S
C455 C65 1.960 . S
C470 C162 2.182 1_564 S
C465 C32 1.980 . S
C475 C43 1.978 . S
C480 C239 2.188 1_554 S
C485 C10 1.977 . S
C490 C330 2.185 1_554 S
C495 C21 1.965 . S
C500 C414 2.172 1_654 S
C510 C146 0.769 . S
C505 C60 0.764 . S
C520 C241 0.752 1_545 S
C515 C71 0.754 . S
C530 C314 0.773 . S
C525 C82 0.775 . S
C535 C49 0.756 . S
C540 C398 0.758 . S
C545 C16 0.769 . S
C550 C157 0.769 . S
C560 C230 0.757 . S
C555 C27 0.754 . S
C570 C325 0.772 . S
C565 C38 0.772 . S
C575 C5 0.755 . S
C580 C409 0.758 . S
C585 C59 2.026 . S
C590 C155 2.294 . S
C595 C70 2.031 . S
C600 C246 2.342 . S
C610 C323 2.310 . S
C605 C81 2.041 . S
C620 C407 2.313 . S
C615 C48 2.043 . S
C625 C15 2.024 . S
C630 C144 2.295 . S
C640 C235 2.342 1_565 S
C635 C26 2.028 . S
C650 C312 2.310 . S
C645 C37 2.036 . S
C655 C4 2.042 . S
C660 C396 2.313 . S
