# Generated by pormake.
# Topology pyr, (3,6)-cn, num edge types: 1
# Building blocks:
#     Node 0, Type 0, BuildingBlock: PAMTOO_clean_linker_0, # of connection points: 3
#     Node 1, Type 0, BuildingBlock: PAMTOO_clean_linker_0, # of connection points: 3
#     Node 2, Type 0, BuildingBlock: PAMTOO_clean_linker_0, # of connection points: 3
#     Node 3, Type 0, BuildingBlock: PAMTOO_clean_linker_0, # of connection points: 3
#     Node 4, Type 0, BuildingBlock: PAMTOO_clean_linker_0, # of connection points: 3
#     Node 5, Type 0, BuildingBlock: PAMTOO_clean_linker_0, # of connection points: 3
#     Node 6, Type 0, BuildingBlock: PAMTOO_clean_linker_0, # of connection points: 3
#     Node 7, Type 0, BuildingBlock: PAMTOO_clean_linker_0, # of connection points: 3
#     Node 8, Type 1, BuildingBlock: INOVEN_clean_sbu_0, # of connection points: 6
#     Node 9, Type 1, BuildingBlock: INOVEN_clean_sbu_0, # of connection points: 6
#     Node 10, Type 1, BuildingBlock: INOVEN_clean_sbu_0, # of connection points: 6
#     Node 11, Type 1, BuildingBlock: INOVEN_clean_sbu_0, # of connection points: 6
#     Edge 12, Type (0, 1), BuildingBlock: KIFKEQ_clean_linker_1, # of connection points: 2
#     Edge 13, Type (0, 1), BuildingBlock: KIFKEQ_clean_linker_1, # of connection points: 2
#     Edge 14, Type (0, 1), BuildingBlock: KIFKEQ_clean_linker_1, # of connection points: 2
#     Edge 15, Type (0, 1), BuildingBlock: KIFKEQ_clean_linker_1, # of connection points: 2
#     Edge 16, Type (0, 1), BuildingBlock: KIFKEQ_clean_linker_1, # of connection points: 2
#     Edge 17, Type (0, 1), BuildingBlock: KIFKEQ_clean_linker_1, # of connection points: 2
#     Edge 18, Type (0, 1), BuildingBlock: KIFKEQ_clean_linker_1, # of connection points: 2
#     Edge 19, Type (0, 1), BuildingBlock: KIFKEQ_clean_linker_1, # of connection points: 2
#     Edge 20, Type (0, 1), BuildingBlock: KIFKEQ_clean_linker_1, # of connection points: 2
#     Edge 21, Type (0, 1), BuildingBlock: KIFKEQ_clean_linker_1, # of connection points: 2
#     Edge 22, Type (0, 1), BuildingBlock: KIFKEQ_clean_linker_1, # of connection points: 2
#     Edge 23, Type (0, 1), BuildingBlock: KIFKEQ_clean_linker_1, # of connection points: 2
#     Edge 24, Type (0, 1), BuildingBlock: KIFKEQ_clean_linker_1, # of connection points: 2
#     Edge 25, Type (0, 1), BuildingBlock: KIFKEQ_clean_linker_1, # of connection points: 2
#     Edge 26, Type (0, 1), BuildingBlock: KIFKEQ_clean_linker_1, # of connection points: 2
#     Edge 27, Type (0, 1), BuildingBlock: KIFKEQ_clean_linker_1, # of connection points: 2
#     Edge 28, Type (0, 1), BuildingBlock: KIFKEQ_clean_linker_1, # of connection points: 2
#     Edge 29, Type (0, 1), BuildingBlock: KIFKEQ_clean_linker_1, # of connection points: 2
#     Edge 30, Type (0, 1), BuildingBlock: KIFKEQ_clean_linker_1, # of connection points: 2
#     Edge 31, Type (0, 1), BuildingBlock: KIFKEQ_clean_linker_1, # of connection points: 2
#     Edge 32, Type (0, 1), BuildingBlock: KIFKEQ_clean_linker_1, # of connection points: 2
#     Edge 33, Type (0, 1), BuildingBlock: KIFKEQ_clean_linker_1, # of connection points: 2
#     Edge 34, Type (0, 1), BuildingBlock: KIFKEQ_clean_linker_1, # of connection points: 2
#     Edge 35, Type (0, 1), BuildingBlock: KIFKEQ_clean_linker_1, # of connection points: 2
# Relax obj value: 0.168
# Max RMSD: 0.224
# Mean RMSD: 0.149
data_MOF--net-pyr--node1-INOVEN_clean_sbu_0--node2-PAMTOO_clean_linker_0--edge1-KIFKEQ_clean_linker_1
_symmetry_space_group_name_H-M    P1
_symmetry_Int_Tables_number       1
_symmetry_cell_setting            triclinic
loop_
_symmetry_equiv_pos_as_xyz
'x, y, z'
_cell_length_a     37.696226
_cell_length_b     42.037007
_cell_length_c     37.598364
_cell_angle_alpha  92.135266
_cell_angle_beta   89.731245
_cell_angle_gamma 105.77655
loop_
_atom_site_label
_atom_site_type_symbol
_atom_site_fract_x
_atom_site_fract_y
_atom_site_fract_z
_atom_type_partial_charge
H0 H 0.32494 0.31627 0.27485 0.0
H1 H 0.39193 0.24827 0.26772 0.0
H2 H 0.39132 0.3126 0.18221 0.0
H3 H 0.38413 0.24702 0.15701 0.0
C4 C 0.39401 0.23653 0.18056 0.0
O5 O 0.41315 0.26236 0.20281 0.0
H6 H 0.36953 0.22103 0.19442 0.0
C7 C 0.34615 0.30748 0.26141 0.0
C8 C 0.35772 0.31883 0.22746 0.0
C9 C 0.35833 0.28219 0.27646 0.0
C10 C 0.38311 0.26858 0.25731 0.0
C11 C 0.39461 0.27943 0.22333 0.0
C12 C 0.38273 0.30503 0.20885 0.0
H13 H 0.30714 0.91823 0.65695 0.0
H14 H 0.24167 0.84916 0.57929 0.0
H15 H 0.32705 0.82318 0.63617 0.0
H16 H 0.30213 0.82729 0.54063 0.0
C17 C 0.29221 0.80256 0.55257 0.0
O18 O 0.27705 0.80484 0.58578 0.0
H19 H 0.27034 0.78754 0.53441 0.0
C20 C 0.30045 0.89453 0.64261 0.0
C21 C 0.32014 0.87155 0.65024 0.0
C22 C 0.27205 0.88705 0.61698 0.0
C23 C 0.26375 0.85607 0.59877 0.0
C24 C 0.2841 0.8336 0.60514 0.0
C25 C 0.31186 0.84106 0.63114 0.0
H26 H 0.73855 0.32859 0.92665 0.0
H27 H 0.65743 0.31571 0.84316 0.0
H28 H 0.74661 0.40494 0.85076 0.0
H29 H 0.67215 0.413 0.8337 0.0
C30 C 0.66454 0.39372 0.81187 0.0
O31 O 0.6887 0.37358 0.81267 0.0
H32 H 0.6363 0.37839 0.81788 0.0
C33 C 0.72771 0.33829 0.9041 0.0
C34 C 0.74719 0.36954 0.89134 0.0
C35 C 0.69519 0.31838 0.88746 0.0
C36 C 0.68199 0.33059 0.85668 0.0
C37 C 0.70033 0.36218 0.84342 0.0
C38 C 0.73274 0.38106 0.86102 0.0
H39 H 0.87904 0.73978 0.43007 0.0
H40 H 0.8833 0.65879 0.35832 0.0
H41 H 0.97122 0.74923 0.35859 0.0
H42 H 0.94977 0.71469 0.28341 0.0
C43 C 0.94092 0.68862 0.29176 0.0
O44 O 0.94688 0.68837 0.32852 0.0
H45 H 0.91082 0.67953 0.2862 0.0
C46 C 0.89324 0.72969 0.40926 0.0
C47 C 0.92766 0.74908 0.3969 0.0
C48 C 0.87686 0.69716 0.39589 0.0
C49 C 0.89523 0.68384 0.36857 0.0
C50 C 0.92884 0.70263 0.35407 0.0
C51 C 0.94483 0.73523 0.36859 0.0
H52 H 0.73952 0.85439 0.85905 0.0
H53 H 0.69631 0.7954 0.94887 0.0
H54 H 0.77976 0.77139 0.8839 0.0
H55 H 0.70834 0.71862 0.90438 0.0
C56 C 0.72229 0.72213 0.93089 0.0
O57 O 0.73806 0.75518 0.93953 0.0
H58 H 0.70079 0.71177 0.95083 0.0
C59 C 0.73796 0.83301 0.87487 0.0
C60 C 0.76142 0.81286 0.86703 0.0
C61 C 0.71482 0.8274 0.90472 0.0
C62 C 0.71394 0.80018 0.92573 0.0
C63 C 0.7371 0.77989 0.91791 0.0
C64 C 0.7612 0.78664 0.88908 0.0
H65 H 0.85141 0.17828 0.4156 0.0
H66 H 0.79978 0.25477 0.44692 0.0
H67 H 0.87171 0.22652 0.51946 0.0
H68 H 0.81614 0.25812 0.56334 0.0
C69 C 0.80255 0.25389 0.53676 0.0
O70 O 0.82896 0.26417 0.51097 0.0
H71 H 0.78862 0.22687 0.53385 0.0
C72 C 0.84749 0.19686 0.43484 0.0
C73 C 0.86503 0.20028 0.46821 0.0
C74 C 0.82388 0.21642 0.42668 0.0
C75 C 0.81811 0.23965 0.45238 0.0
C76 C 0.83581 0.24325 0.48551 0.0
C77 C 0.85941 0.22401 0.49315 0.0
H78 H 0.3843 0.75083 0.15135 0.0
H79 H 0.37778 0.67698 0.22935 0.0
H80 H 0.4675 0.76573 0.23372 0.0
H81 H 0.48337 0.69537 0.24802 0.0
C82 C 0.45855 0.68566 0.26463 0.0
O83 O 0.43782 0.70874 0.26507 0.0
H84 H 0.44211 0.66231 0.25126 0.0
C85 C 0.39524 0.74275 0.17489 0.0
C86 C 0.42819 0.76321 0.19066 0.0
C87 C 0.37659 0.71147 0.18815 0.0
C88 C 0.39186 0.70041 0.21818 0.0
C89 C 0.42487 0.71952 0.23464 0.0
C90 C 0.44279 0.75078 0.22055 0.0
H91 H 0.13081 0.3393 0.76937 0.0
H92 H 0.22138 0.42837 0.76327 0.0
H93 H 0.21536 0.34793 0.68912 0.0
H94 H 0.2884 0.38024 0.70927 0.0
C95 C 0.28746 0.40629 0.71374 0.0
O96 O 0.25185 0.40832 0.70708 0.0
H97 H 0.29427 0.41343 0.74221 0.0
C98 C 0.15619 0.35322 0.75739 0.0
C99 C 0.17066 0.33875 0.72735 0.0
C100 C 0.17354 0.38633 0.77068 0.0
C101 C 0.20667 0.4037 0.75381 0.0
C102 C 0.22141 0.39001 0.72442 0.0
C103 C 0.20333 0.35796 0.71163 0.0
Gd104 Gd 0.06223 0.05884 0.52846 0.0
Gd105 Gd 0.0501 1.02614 0.59893 0.0
C106 C 0.0812 0.10524 0.60278 0.0
C107 C 0.06657 0.09696 0.47556 0.0
C108 C 0.09783 0.12378 0.46444 0.0
C109 C 0.13069 0.1314 0.4843 0.0
C110 C 0.09656 0.13941 0.43245 0.0
C111 C 0.16182 0.16811 0.43872 0.0
C112 C 0.12835 0.16162 0.41972 0.0
C113 C 0.16247 0.15333 0.47149 0.0
C114 C 0.12079 0.03993 0.55143 0.0
C115 C 0.02904 0.97968 0.52467 0.0
C116 C 0.04622 0.98878 0.65265 0.0
C117 C 1.01749 0.96065 0.66537 0.0
C118 C 0.98328 0.95051 0.64783 0.0
C119 C 0.02291 0.94572 0.69677 0.0
C120 C 0.95888 0.91283 0.695 0.0
C121 C 0.99381 0.92184 0.71147 0.0
C122 C 0.95414 0.9268 0.66258 0.0
C123 C 0.99229 0.04548 0.57386 0.0
O124 O 0.0708 0.10304 0.56879 0.0
O125 O 0.08164 0.07795 0.61929 0.0
O126 O 0.07224 0.06767 0.47262 0.0
O127 O 0.0515 0.10211 0.50589 0.0
O128 O 0.11267 0.04117 0.51827 0.0
O129 O 0.10004 0.05193 0.5708 0.0
O130 O 0.03893 0.98148 0.55882 0.0
O131 O 0.03013 1.00727 0.50804 0.0
O132 O 0.0377 1.01691 0.65432 0.0
O133 O 0.06182 0.98378 0.6226 0.0
O134 O 1.00059 0.0465 0.60731 0.0
O135 O 1.01307 1.03227 0.55638 0.0
H136 H 0.13208 0.11937 0.50906 0.0
H137 H 0.07144 0.13355 0.41674 0.0
H138 H 0.1272 0.17245 0.3942 0.0
H139 H 0.18779 0.15812 0.48678 0.0
H140 H 0.97876 0.96187 0.62346 0.0
H141 H 0.04916 0.95343 0.71063 0.0
H142 H 0.99814 0.91175 0.73667 0.0
H143 H 0.92762 0.92008 0.64919 0.0
Gd144 Gd 0.5973 0.0502 0.06004 0.0
Gd145 Gd 0.53369 1.03212 1.01967 0.0
C146 C 0.52667 0.07314 0.08788 0.0
C147 C 0.65443 0.08064 0.09838 0.0
C148 C 0.66395 0.09877 0.13305 0.0
C149 C 0.66387 0.08171 0.16452 0.0
C150 C 0.67617 0.1335 0.13444 0.0
C151 C 0.68962 0.1337 0.19772 0.0
C152 C 0.68876 0.15078 0.16644 0.0
C153 C 0.67649 0.09899 0.19649 0.0
C154 C 0.55499 0.98811 0.0772 0.0
C155 C 0.60317 1.00687 0.99312 0.0
C156 C 0.47758 1.00275 0.97973 0.0
C157 C 0.47081 0.9856 0.94436 0.0
C158 C 0.4758 1.00341 0.91296 0.0
C159 C 0.45759 0.95096 0.9419 0.0
C160 C 0.45297 0.95232 0.8775 0.0
C161 C 0.44889 0.93448 0.90883 0.0
C162 C 0.46702 0.98693 0.87989 0.0
C163 C 0.57617 0.09423 1.00318 0.0
O164 O 0.56292 0.08052 0.08727 0.0
O165 O 0.50727 0.04929 0.06679 0.0
O166 O 0.63924 0.04883 0.09872 0.0
O167 O 0.64022 0.09489 0.07405 0.0
O168 O 0.59024 0.99644 0.07208 0.0
O169 O 0.543 1.01325 0.07258 0.0
O170 O 0.56707 1.00073 0.99328 0.0
O171 O 0.62322 1.03065 1.0139 0.0
O172 O 0.49247 1.03465 0.9807 0.0
O173 O 0.49071 0.98795 1.00432 0.0
O174 O 0.54117 0.08633 1.00955 0.0
O175 O 0.58794 0.06882 1.00693 0.0
H176 H 0.65504 0.05494 0.16434 0.0
H177 H 0.67684 0.14733 0.11059 0.0
H178 H 0.69834 0.17753 0.16657 0.0
H179 H 0.67731 0.08502 0.21995 0.0
H180 H 0.48573 1.03015 0.9139 0.0
H181 H 0.45336 0.93659 0.96565 0.0
H182 H 0.43848 0.90777 0.90784 0.0
H183 H 0.46995 1.00144 0.85631 0.0
Gd184 Gd 0.56787 0.5221 0.51775 0.0
Gd185 Gd 0.577 0.57879 0.56365 0.0
C186 C 0.60261 0.51991 0.59814 0.0
C187 C 0.57832 0.47298 0.47959 0.0
C188 C 0.59873 0.4486 0.48581 0.0
C189 C 0.58853 0.41752 0.4681 0.0
C190 C 0.62868 0.45635 0.50956 0.0
C191 C 0.63891 0.40251 0.49713 0.0
C192 C 0.64847 0.43349 0.51529 0.0
C193 C 0.60852 0.39456 0.47371 0.0
C194 C 0.50481 0.52005 0.55495 0.0
C195 C 0.54027 0.57944 0.48394 0.0
C196 C 0.56683 0.62889 0.60023 0.0
C197 C 0.54089 0.64888 0.59526 0.0
C198 C 0.55053 0.68246 0.60582 0.0
C199 C 0.5067 0.63466 0.57866 0.0
C200 C 0.49186 0.68742 0.5832 0.0
C201 C 0.4824 0.65368 0.57282 0.0
C202 C 0.52618 0.70162 0.59988 0.0
C203 C 0.64002 0.58058 0.52655 0.0
O204 O 0.598 0.50715 0.56508 0.0
O205 O 0.59447 0.54814 0.60544 0.0
O206 O 0.54906 0.4707 0.49908 0.0
O207 O 0.59858 0.50343 0.47728 0.0
O208 O 0.50579 0.51193 0.52135 0.0
O209 O 0.53747 0.5293 0.56708 0.0
O210 O 0.54272 0.59112 0.51747 0.0
O211 O 0.55156 0.55296 0.47617 0.0
O212 O 0.59235 0.6317 0.57608 0.0
O213 O 0.55192 0.5982 0.60828 0.0
O214 O 0.63896 0.58773 0.56036 0.0
O215 O 0.60736 0.57198 0.51426 0.0
H216 H 0.56541 0.41118 0.44972 0.0
H217 H 0.6371 0.48023 0.52346 0.0
H218 H 0.67132 0.4401 0.53398 0.0
H219 H 0.6007 0.37093 0.45921 0.0
H220 H 0.57696 0.69388 0.61839 0.0
H221 H 0.49871 0.60877 0.57016 0.0
H222 H 0.45597 0.64178 0.56051 0.0
H223 H 0.53444 0.72762 0.60786 0.0
Gd224 Gd 0.06684 0.5042 0.05853 0.0
Gd225 Gd 0.06083 0.56804 1.01788 0.0
C226 C 0.13461 0.57323 0.06657 0.0
C227 C 0.08756 0.45223 0.0718 0.0
C228 C 0.1148 0.44345 0.09461 0.0
C229 C 0.10676 0.4118 0.10834 0.0
C230 C 0.15009 0.46522 0.09998 0.0
C231 C 0.1702 0.42239 0.12921 0.0
C232 C 0.17757 0.45474 0.11695 0.0
C233 C 0.13413 0.4014 0.12569 0.0
C234 C 0.04139 0.54596 0.10467 0.0
C235 C 0.99272 0.49962 1.01067 0.0
C236 C 0.04085 0.6206 1.00483 0.0
C237 C 1.01227 0.62888 0.98355 0.0
C238 C 1.01027 0.66166 0.98362 0.0
C239 C 0.98391 0.60374 0.96751 0.0
C240 C 0.94969 0.64363 0.95551 0.0
C241 C 0.95277 0.61102 0.95372 0.0
C242 C 0.9793 0.66905 0.96953 0.0
C243 C 0.08413 0.52496 0.9712 0.0
O244 O 0.12214 0.5411 0.07272 0.0
O245 O 0.11574 0.58878 0.04689 0.0
O246 O 0.05895 0.45877 0.0873 0.0
O247 O 0.10136 0.47228 0.04633 0.0
O248 O 0.04573 0.51742 0.11275 0.0
O249 O 0.05036 0.54964 0.07204 0.0
O250 O 1.00494 0.53189 1.00541 0.0
O251 O 1.01208 0.48353 0.02907 0.0
O252 O 0.06772 0.61253 0.98772 0.0
O253 O 0.02811 0.60139 0.03122 0.0
O254 O 0.0797 0.55347 0.96308 0.0
O255 O 0.07648 0.52206 1.00418 0.0
H256 H 0.07965 0.39472 0.10462 0.0
H257 H 0.15693 0.48987 0.08972 0.0
H258 H 0.20499 0.47153 0.11892 0.0
H259 H 0.12721 0.37661 0.13559 0.0
H260 H 0.03178 0.68133 0.9962 0.0
H261 H 0.98508 0.57831 0.96724 0.0
H262 H 0.93056 0.591 0.94273 0.0
H263 H 0.97758 0.69436 0.97156 0.0
H264 H 0.334 0.21627 0.28953 0.0
H265 H 0.3401 0.31304 0.3366 0.0
H266 H 0.29226 0.19085 0.33627 0.0
H267 H 0.2973 0.28737 0.38297 0.0
H268 H 0.17408 0.22773 0.40742 0.0
H269 H 0.22923 0.25709 0.37554 0.0
H270 H 0.28265 0.18229 0.40226 0.0
H271 H 0.22741 0.15279 0.4339 0.0
C272 C 0.32747 0.23211 0.31048 0.0
C273 C 0.34009 0.26674 0.30908 0.0
C274 C 0.30337 0.2175 0.33722 0.0
C275 C 0.29119 0.2372 0.36291 0.0
C276 C 0.30587 0.27168 0.36311 0.0
C277 C 0.33031 0.28631 0.3366 0.0
C278 C 0.19779 0.21784 0.40682 0.0
C279 C 0.19646 0.18797 0.42296 0.0
C280 C 0.22945 0.23477 0.38892 0.0
C281 C 0.26018 0.22193 0.3865 0.0
C282 C 0.25931 0.19266 0.4037 0.0
C283 C 0.22781 0.17593 0.42193 0.0
H284 H 0.37261 0.92979 0.66473 0.0
H285 H 0.33033 0.8306 0.70172 0.0
H286 H 0.41018 0.94531 0.7183 0.0
H287 H 0.36931 0.84569 0.75467 0.0
H288 H 0.39 0.90309 0.86415 0.0
H289 H 0.36468 0.8796 0.80677 0.0
H290 H 0.46074 0.93965 0.75451 0.0
H291 H 0.48614 0.96339 0.81229 0.0
C292 C 0.37185 0.91114 0.68405 0.0
C293 C 0.34796 0.87916 0.67934 0.0
C294 C 0.39377 0.91991 0.71457 0.0
C295 C 0.39243 0.89683 0.74099 0.0
C296 C 0.37048 0.86419 0.73508 0.0
C297 C 0.34844 0.85544 0.70457 0.0
C298 C 0.4062 0.91072 0.84054 0.0
C299 C 0.43999 0.93527 0.84277 0.0
C300 C 0.39168 0.89717 0.80756 0.0
C301 C 0.41062 0.90781 0.77599 0.0
C302 C 0.44523 0.93128 0.77831 0.0
C303 C 0.45975 0.94489 0.81137 0.0
H304 H 0.62938 0.36771 0.74761 0.0
H305 H 0.69375 0.45966 0.79558 0.0
H306 H 0.61652 0.39725 0.69618 0.0
H307 H 0.68139 0.48927 0.74438 0.0
H308 H 0.61794 0.53926 0.66909 0.0
H309 H 0.63567 0.50904 0.71709 0.0
H310 H 0.63423 0.42759 0.64336 0.0
H311 H 0.61611 0.45789 0.59535 0.0
C312 C 0.64169 0.39414 0.74685 0.0
C313 C 0.66301 0.41093 0.7761 0.0
C314 C 0.63412 0.41134 0.71718 0.0
C315 C 0.64728 0.44623 0.71551 0.0
C316 C 0.66982 0.46272 0.74428 0.0
C317 C 0.67751 0.44552 0.77375 0.0
C318 C 0.62157 0.515 0.66284 0.0
C319 C 0.61546 0.50148 0.6277 0.0
C320 C 0.63206 0.49747 0.69067 0.0
C321 C 0.63677 0.46537 0.68492 0.0
C322 C 0.63073 0.45189 0.64965 0.0
C323 C 0.62048 0.46955 0.62173 0.0
H324 H 0.99928 0.70888 0.24465 0.0
H325 H 0.92533 0.62001 0.28293 0.0
H326 H 0.0232 0.67625 0.2001 0.0
H327 H 0.9485 0.58712 0.23803 0.0
H328 H 1.01482 0.53086 0.17114 0.0
H329 H 0.9939 0.56409 0.21644 0.0
H330 H 1.01445 0.64534 0.14541 0.0
H331 H 0.03672 0.6118 0.10006 0.0
C332 C 0.98849 0.68221 0.24408 0.0
C333 C 0.96059 0.66732 0.26828 0.0
C334 C 1.0019 0.66331 0.21785 0.0
C335 C 0.98806 0.62849 0.21445 0.0
C336 C 0.96073 0.61359 0.23938 0.0
C337 C 0.94731 0.63255 0.26558 0.0
C338 C 1.01485 0.55579 0.16482 0.0
C339 C 0.02732 0.56808 0.13118 0.0
C340 C 1.00243 0.57507 0.19114 0.0
C341 C 1.0018 0.60792 0.18541 0.0
C342 C 1.01447 0.62043 0.15166 0.0
C343 C 0.02696 0.60093 0.12511 0.0
H344 H 0.39285 0.20457 0.11633 0.0
H345 H 0.44571 0.21661 0.21941 0.0
H346 H 0.42526 0.16374 0.0983 0.0
H347 H 0.47855 0.17563 0.20125 0.0
H348 H 0.55788 0.12827 0.13004 0.0
H349 H 0.52709 0.16816 0.15531 0.0
H350 H 0.42237 0.10622 0.1169 0.0
H351 H 0.4528 0.0665 0.09167 0.0
C352 C 0.41193 0.19884 0.1349 0.0
C353 C 0.41753 0.21434 0.16888 0.0
C354 C 0.43016 0.17523 0.12475 0.0
C355 C 0.45427 0.16641 0.14847 0.0
C356 C 0.46032 0.18218 0.18239 0.0
C357 C 0.44171 0.20567 0.19269 0.0
C358 C 0.5282 0.12288 0.12756 0.0
C359 C 0.50785 0.09439 0.10847 0.0
C360 C 0.51062 0.14571 0.14207 0.0
C361 C 0.47247 0.14051 0.13749 0.0
C362 C 0.45193 0.11114 0.1202 0.0
C363 C 0.46938 0.08829 0.10594 0.0
H364 H 0.24462 0.8979 0.55251 0.0
H365 H 0.25294 0.93238 0.66281 0.0
H366 H 0.21006 0.93658 0.5392 0.0
H367 H 0.22205 0.97395 0.64855 0.0
H368 H 0.12919 1.01979 0.61843 0.0
H369 H 0.16649 0.98358 0.63534 0.0
H370 H 0.2143 0.99069 0.52999 0.0
H371 H 0.17417 1.02381 0.51251 0.0
C372 C 0.23926 0.91378 0.57401 0.0
C373 C 0.25159 0.91168 0.60883 0.0
C374 C 0.22007 0.9367 0.56615 0.0
C375 C 0.21354 0.95897 0.59263 0.0
C376 C 0.22614 0.95711 0.62744 0.0
C377 C 0.24453 0.93353 0.63551 0.0
C378 C 0.14753 1.01328 0.59899 0.0
C379 C 0.14797 1.02354 0.56392 0.0
C380 C 0.16935 0.99287 0.60873 0.0
C381 C 0.19295 0.98334 0.5838 0.0
C382 C 0.19542 0.99617 0.54954 0.0
C383 C 0.17277 1.01558 0.53958 0.0
H384 H 0.76783 0.37285 0.96276 0.0
H385 H 0.80898 0.41234 0.86154 0.0
H386 H 0.82583 0.403 0.99103 0.0
H387 H 0.86645 0.44335 0.8903 0.0
H388 H 0.95027 0.43592 1.02295 0.0
H389 H 0.89176 0.4054 0.99492 0.0
H390 H 0.89348 0.4896 0.93213 0.0
H391 H 0.95171 0.51998 0.96003 0.0
C392 C 0.78911 0.38767 0.94622 0.0
C393 C 0.78292 0.38956 0.90936 0.0
C394 C 0.82266 0.40521 0.9627 0.0
C395 C 0.85136 0.42583 0.94321 0.0
C396 C 0.84511 0.42817 0.90653 0.0
C397 C 0.81172 0.41031 0.88993 0.0
C398 C 0.93821 0.44804 1.00325 0.0
C399 C 0.95617 0.48072 0.9941 0.0
C400 C 0.90436 0.4305 0.98718 0.0
C401 C 0.88743 0.44476 0.96096 0.0
C402 C 0.9055 0.4774 0.9518 0.0
C403 C 0.93902 0.49506 0.96816 0.0
H404 H 0.8609 0.63568 0.42542 0.0
H405 H 0.8114 0.71387 0.40293 0.0
H406 H 0.80408 0.60579 0.45539 0.0
H407 H 0.7543 0.6836 0.43184 0.0
H408 H 0.64544 0.60182 0.4575 0.0
H409 H 0.70146 0.62835 0.42444 0.0
H410 H 0.76828 0.61601 0.51283 0.0
H411 H 0.71231 0.59053 0.54628 0.0
C412 C 0.83773 0.64629 0.42636 0.0
C413 C 0.84093 0.67726 0.41155 0.0
C414 C 0.80515 0.62922 0.44378 0.0
C415 C 0.77428 0.64212 0.44617 0.0
C416 C 0.77719 0.67266 0.43044 0.0
C417 C 0.81006 0.69011 0.41388 0.0
C418 C 0.67207 0.6045 0.46981 0.0
C419 C 0.67414 0.59387 0.50468 0.0
C420 C 0.70428 0.61994 0.45088 0.0
C421 C 0.73971 0.62447 0.4658 0.0
C422 C 0.7417 0.61286 0.50025 0.0
C423 C 0.7095 0.59824 0.51951 0.0
H424 H 0.33752 0.37196 0.25696 0.0
H425 H 0.33405 0.31505 0.15827 0.0
H426 H 0.29441 0.39919 0.23228 0.0
H427 H 0.29316 0.34395 0.13277 0.0
H428 H 0.18049 0.36086 0.1184 0.0
H429 H 0.23003 0.34027 0.14032 0.0
H430 H 0.28028 0.43568 0.19139 0.0
H431 H 0.22908 0.45569 0.17141 0.0
C432 C 0.32823 0.3658 0.22971 0.0
C433 C 0.33881 0.34088 0.20986 0.0
C434 C 0.30374 0.38167 0.21541 0.0
C435 C 0.28965 0.3733 0.18073 0.0
C436 C 0.30265 0.35036 0.15992 0.0
C437 C 0.32674 0.33419 0.17436 0.0
C438 C 0.20169 0.37736 0.13483 0.0
C439 C 0.20051 0.4099 0.14333 0.0
C440 C 0.23063 0.36572 0.14682 0.0
C441 C 0.25952 0.38641 0.16729 0.0
C442 C 0.25844 0.41899 0.17583 0.0
C443 C 0.22922 0.43057 0.16407 0.0
H444 H 0.67377 0.30509 0.95668 0.0
H445 H 0.67396 0.25537 0.85449 0.0
H446 H 0.647 0.25187 0.98377 0.0
H447 H 0.64786 0.20164 0.88191 0.0
H448 H 0.63683 0.10938 0.95711 0.0
H449 H 0.66428 0.16211 0.92798 0.0
H450 H 0.58764 0.20591 0.98297 0.0
H451 H 0.55985 0.15344 1.01096 0.0
C452 C 0.66798 0.2828 0.93982 0.0
C453 C 0.67596 0.28506 0.90309 0.0
C454 C 0.65251 0.25203 0.95547 0.0
C455 C 0.64512 0.22186 0.93537 0.0
C456 C 0.65326 0.22401 0.89859 0.0
C457 C 0.66794 0.25501 0.88269 0.0
C458 C 0.62598 0.1303 0.96315 0.0
C459 C 0.59601 0.12679 0.98675 0.0
C460 C 0.64157 0.16063 0.94614 0.0
C461 C 0.62841 0.18882 0.95282 0.0
C462 C 0.59896 0.18525 0.97701 0.0
C463 C 0.58289 0.15489 0.99318 0.0
H464 H 0.92671 0.76836 0.46806 0.0
H465 H 0.96908 0.80791 0.36747 0.0
H466 H 0.95027 0.82249 0.49701 0.0
H467 H 0.99428 0.86242 0.39698 0.0
H468 H 1.00519 0.96489 0.45456 0.0
H469 H 0.98282 0.91079 0.4238 0.0
H470 H 1.00041 0.8634 0.51947 0.0
H471 H 0.02187 0.91731 0.5502 0.0
C472 C 0.94105 0.78856 0.45183 0.0
C473 C 0.94521 0.78305 0.41487 0.0
C474 C 0.95524 0.81999 0.46881 0.0
C475 C 0.97458 0.84775 0.44986 0.0
C476 C 0.97929 0.84225 0.41291 0.0
C477 C 0.96509 0.81059 0.39584 0.0
C478 C 1.00428 0.94297 0.46916 0.0
C479 C 1.01542 0.94607 0.50526 0.0
C480 C 0.99157 0.9116 0.45127 0.0
C481 C 0.98932 0.88184 0.46868 0.0
C482 C 1.00078 0.88512 0.50477 0.0
C483 C 1.01348 0.91643 0.52259 0.0
H484 H 0.36366 0.83233 0.57201 0.0
H485 H 0.29031 0.73761 0.54035 0.0
H486 H 0.41416 0.80649 0.57859 0.0
H487 H 0.34069 0.71176 0.54648 0.0
H488 H 0.44856 0.68518 0.52451 0.0
H489 H 0.40151 0.71419 0.51625 0.0
H490 H 0.42907 0.76435 0.61882 0.0
H491 H 0.47566 0.73473 0.62763 0.0
C492 C 0.35853 0.80602 0.5663 0.0
C493 C 0.32341 0.78692 0.5553 0.0
C494 C 0.38726 0.79126 0.57017 0.0
C495 C 0.38134 0.7572 0.5628 0.0
C496 C 0.34613 0.73815 0.5518 0.0
C497 C 0.31735 0.75285 0.54837 0.0
C498 C 0.44449 0.70224 0.54543 0.0
C499 C 0.46558 0.70733 0.57694 0.0
C500 C 0.41763 0.7189 0.54061 0.0
C501 C 0.4115 0.74127 0.56701 0.0
C502 C 0.43344 0.74737 0.59794 0.0
C503 C 0.46015 0.73047 0.60292 0.0
H504 H 0.83468 0.81666 0.86871 0.0
H505 H 0.74838 0.82752 0.79899 0.0
H506 H 0.87992 0.83524 0.82232 0.0
H507 H 0.79355 0.84538 0.75195 0.0
H508 H 0.89148 0.92361 0.70415 0.0
H509 H 0.84167 0.89403 0.74161 0.0
H510 H 0.90373 0.8247 0.76553 0.0
H511 H 0.95416 0.85505 0.72847 0.0
C512 C 0.8253 0.8223 0.84311 0.0
C513 C 0.7881 0.82088 0.83749 0.0
C514 C 0.85121 0.83282 0.81641 0.0
C515 C 0.84044 0.84195 0.78339 0.0
C516 C 0.80289 0.83911 0.77729 0.0
C517 C 0.77701 0.82885 0.80414 0.0
C518 C 0.89414 0.90161 0.71674 0.0
C519 C 0.92677 0.89173 0.71357 0.0
C520 C 0.86551 0.88455 0.73821 0.0
C521 C 0.86874 0.85707 0.75683 0.0
C522 C 0.90064 0.84615 0.75211 0.0
C523 C 0.92946 0.86342 0.73083 0.0
H524 H 0.75115 0.21225 0.41476 0.0
H525 H 0.85116 0.20786 0.3607 0.0
H526 H 0.71695 0.19778 0.35876 0.0
H527 H 0.81688 0.19235 0.30512 0.0
H528 H 0.75212 0.18511 0.20442 0.0
H529 H 0.7831 0.21096 0.25908 0.0
H530 H 0.69731 0.14758 0.32091 0.0
H531 H 0.66553 0.12264 0.26622 0.0
C532 C 0.76591 0.20866 0.39082 0.0
C533 C 0.8038 0.21097 0.39216 0.0
C534 C 0.74626 0.20004 0.35884 0.0
C535 C 0.76412 0.1937 0.32753 0.0
C536 C 0.8023 0.19734 0.32865 0.0
C537 C 0.8219 0.20587 0.36058 0.0
C538 C 0.73938 0.17722 0.22965 0.0
C539 C 0.70644 0.15165 0.23095 0.0
C540 C 0.75738 0.19179 0.26099 0.0
C541 C 0.74287 0.18114 0.29435 0.0
C542 C 0.70912 0.15655 0.29566 0.0
C543 C 0.69111 0.14197 0.26431 0.0
H544 H 0.42031 0.67357 0.33014 0.0
H545 H 0.52401 0.67346 0.28179 0.0
H546 H 0.43863 0.64979 0.38397 0.0
H547 H 0.54201 0.64972 0.33459 0.0
H548 H 0.5451 0.56885 0.41168 0.0
H549 H 0.52536 0.59645 0.36277 0.0
H550 H 0.48328 0.65715 0.43763 0.0
H551 H 0.50368 0.62945 0.48724 0.0
C552 C 0.44737 0.66936 0.33119 0.0
C553 C 0.47095 0.67657 0.30147 0.0
C554 C 0.4579 0.65545 0.36215 0.0
C555 C 0.49194 0.6473 0.36413 0.0
C556 C 0.51546 0.65503 0.33453 0.0
C557 C 0.50523 0.66922 0.30409 0.0
C558 C 0.5316 0.588 0.41809 0.0
C559 C 0.52628 0.59658 0.45402 0.0
C560 C 0.52036 0.60417 0.38969 0.0
C561 C 0.50272 0.62956 0.39558 0.0
C562 C 0.49656 0.63779 0.43154 0.0
C563 C 0.50846 0.62188 0.4602 0.0
H564 H 0.13387 0.3615 0.83241 0.0
H565 H 0.17618 0.45277 0.77856 0.0
H566 H 0.11152 0.39199 0.88079 0.0
H567 H 0.15639 0.48292 0.82687 0.0
H568 H 0.09243 0.53271 0.90005 0.0
H569 H 0.11017 0.49856 0.85402 0.0
H570 H 0.12042 0.42897 0.93224 0.0
H571 H 0.10059 0.46323 0.97873 0.0
C572 C 0.13856 0.38796 0.83059 0.0
C573 C 0.15759 0.40414 0.80087 0.0
C574 C 0.12599 0.40575 0.85887 0.0
C575 C 0.13158 0.44055 0.85867 0.0
C576 C 0.15038 0.45638 0.82876 0.0
C577 C 0.16264 0.43876 0.80073 0.0
C578 C 0.09842 0.51016 0.90786 0.0
C579 C 0.09524 0.50148 0.94389 0.0
C580 C 0.10917 0.49034 0.88101 0.0
C581 C 0.11797 0.46063 0.88848 0.0
C582 C 0.11411 0.45139 0.9246 0.0
C583 C 0.10289 0.47135 0.95171 0.0
H584 H 0.67346 0.85645 0.86353 0.0
H585 H 0.71269 0.85498 0.97103 0.0
H586 H 0.64686 0.90174 0.88126 0.0
H587 H 0.68598 0.89985 0.9887 0.0
H588 H 0.67452 1.00412 0.99796 0.0
H589 H 0.70019 0.96034 0.97452 0.0
H590 H 0.59671 0.91268 0.92216 0.0
H591 H 0.5708 0.95652 0.9456 0.0
C592 C 0.67607 0.86561 0.89097 0.0
C593 C 0.69505 0.85214 0.91593 0.0
C594 C 0.66082 0.89142 0.9011 0.0
C595 C 0.66477 0.90454 0.93624 0.0
C596 C 0.68301 0.89055 0.96131 0.0
C597 C 0.69785 0.86456 0.95131 0.0
C598 C 0.65738 0.98468 0.98094 0.0
C599 C 0.62053 0.98371 0.97386 0.0
C600 C 0.67201 0.95944 0.96779 0.0
C601 C 0.65024 0.93287 0.94701 0.0
C602 C 0.61408 0.93287 0.93814 0.0
C603 C 0.59929 0.95797 0.95159 0.0
H604 H 0.9296 0.21507 0.50595 0.0
H605 H 0.8484 0.13348 0.45474 0.0
H606 H 0.95949 0.17618 0.53099 0.0
H607 H 0.87902 0.09478 0.47905 0.0
H608 H 0.97064 0.04295 0.505 0.0
H609 H 0.94113 0.08047 0.47633 0.0
H610 H 0.93782 0.13173 0.5775 0.0
H611 H 0.96722 0.09411 0.60621 0.0
C612 C 0.91834 0.18889 0.49979 0.0
C613 C 0.88645 0.17732 0.47865 0.0
C614 C 0.9354 0.1667 0.51415 0.0
C615 C 0.92116 0.13257 0.50729 0.0
C616 C 0.89051 0.12104 0.48464 0.0
C617 C 0.87318 0.14322 0.47055 0.0
C618 C 0.96313 0.06199 0.52112 0.0
C619 C 0.971 0.06572 0.55775 0.0
C620 C 0.94633 0.0834 0.50475 0.0
C621 C 0.93758 0.10906 0.52471 0.0
C622 C 0.94478 0.11234 0.5615 0.0
C623 C 0.9612 0.09068 0.57796 0.0
H624 H 0.3529 0.64343 0.17534 0.0
H625 H 0.31862 0.73192 0.16086 0.0
H626 H 0.29663 0.6105 0.14589 0.0
H627 H 0.26198 0.69917 0.13235 0.0
H628 H 0.17465 0.63779 0.05544 0.0
H629 H 0.23201 0.66981 0.08348 0.0
H630 H 0.23392 0.58616 0.14603 0.0
H631 H 0.17733 0.55384 0.11679 0.0
C632 C 0.33324 0.65597 0.16626 0.0
C633 C 0.341 0.69069 0.17062 0.0
C634 C 0.30053 0.6369 0.14925 0.0
C635 C 0.27386 0.65165 0.13612 0.0
C636 C 0.28158 0.6864 0.14096 0.0
C637 C 0.3144 0.70544 0.15764 0.0
C638 C 0.18731 0.62606 0.07505 0.0
C639 C 0.17082 0.5929 0.08349 0.0
C640 C 0.22042 0.6447 0.09161 0.0
C641 C 0.23844 0.63117 0.11768 0.0
C642 C 0.2219 0.59785 0.12593 0.0
C643 C 0.18893 0.57913 0.10913 0.0
H644 H 0.36047 0.43156 0.72906 0.0
H645 H 0.28292 0.42778 0.64426 0.0
H646 H 0.41084 0.46007 0.6915 0.0
H647 H 0.33327 0.45787 0.60657 0.0
H648 H 0.43639 0.48063 0.53468 0.0
H649 H 0.38378 0.45588 0.57203 0.0
H650 H 0.44388 0.50683 0.66445 0.0
H651 H 0.49698 0.5302 0.62702 0.0
C652 C 0.35402 0.43767 0.70255 0.0
C653 C 0.31726 0.42804 0.69028 0.0
C654 C 0.38314 0.45428 0.68078 0.0
C655 C 0.37687 0.46199 0.64555 0.0
C656 C 0.33986 0.4524 0.63324 0.0
C657 C 0.31064 0.43543 0.65509 0.0
C658 C 0.43833 0.4867 0.56298 0.0
C659 C 0.47127 0.50738 0.57769 0.0
C660 C 0.40783 0.47256 0.58461 0.0
C661 C 0.4089 0.47879 0.62184 0.0
C662 C 0.44165 0.50044 0.63626 0.0
C663 C 0.47228 0.51427 0.61465 0.0
H664 H 0.76533 0.71122 0.8753 0.0
H665 H 0.74716 0.69499 0.9873 0.0
H666 H 0.81914 0.68919 0.87752 0.0
H667 H 0.80049 0.67246 0.98954 0.0
H668 H 0.88037 0.60946 0.9745 0.0
H669 H 0.82292 0.62436 0.96533 0.0
H670 H 0.88202 0.7094 0.90767 0.0
H671 H 0.93957 0.69434 0.91661 0.0
C672 C 0.77259 0.70244 0.90023 0.0
C673 C 0.75201 0.70444 0.93107 0.0
C674 C 0.80337 0.68999 0.90154 0.0
C675 C 0.81393 0.67906 0.93368 0.0
C676 C 0.7927 0.68027 0.96429 0.0
C677 C 0.76223 0.69312 0.96306 0.0
C678 C 0.88099 0.63095 0.95922 0.0
C679 C 0.91447 0.65076 0.94626 0.0
C680 C 0.84816 0.63963 0.95428 0.0
C681 C 0.84805 0.6681 0.93595 0.0
C682 C 0.88126 0.68718 0.92171 0.0
C683 C 0.9142 0.67871 0.92701 0.0
H684 H 0.39598 0.80715 0.15795 0.0
H685 H 0.50282 0.7983 0.18889 0.0
H686 H 0.42483 0.8594 0.13096 0.0
H687 H 0.53164 0.85168 0.16368 0.0
H688 H 0.58051 0.93406 0.08712 0.0
H689 H 0.55078 0.88194 0.11412 0.0
H690 H 0.45374 0.91567 0.13364 0.0
H691 H 0.48364 0.96779 0.10524 0.0
C692 C 0.42573 0.81607 0.1591 0.0
C693 C 0.44662 0.79729 0.17564 0.0
C694 C 0.44249 0.84683 0.14384 0.0
C695 C 0.48112 0.86072 0.14441 0.0
C696 C 0.50199 0.84226 0.16161 0.0
C697 C 0.4852 0.81139 0.17678 0.0
C698 C 0.55276 0.9305 0.0971 0.0
C699 C 0.5348 0.95568 0.09377 0.0
C700 C 0.53556 0.90031 0.11311 0.0
C701 C 0.49943 0.89367 0.1269 0.0
C702 C 0.48128 0.91893 0.12332 0.0
C703 C 0.49857 0.94924 0.10704 0.0
H704 H 0.1624 0.31959 0.65618 0.0
H705 H 0.13781 0.27865 0.75968 0.0
H706 H 0.14166 0.26489 0.6283 0.0
H707 H 0.11504 0.22313 0.73139 0.0
H708 H 0.10926 0.12217 0.67157 0.0
H709 H 0.12773 0.17676 0.70204 0.0
H710 H 0.09569 0.22004 0.60932 0.0
H711 H 0.07857 0.16596 0.57884 0.0
C712 C 0.15229 0.29892 0.67326 0.0
C713 C 0.15251 0.3043 0.71065 0.0
C714 C 0.13975 0.26702 0.65695 0.0
C715 C 0.1263 0.23849 0.677 0.0
C716 C 0.12551 0.24385 0.71449 0.0
C717 C 0.1382 0.27606 0.73093 0.0
C718 C 0.10625 0.14334 0.65756 0.0
C719 C 0.09252 0.13905 0.62226 0.0
C720 C 0.11668 0.17499 0.67531 0.0
C721 C 0.11379 0.20386 0.65863 0.0
C722 C 0.0995 0.19926 0.62345 0.0
C723 C 0.08929 0.16775 0.60573 0.0
H724 H 0.80362 0.3124 0.57094 0.0
H725 H 0.74079 0.2395 0.49505 0.0
H726 H 0.76206 0.34706 0.56198 0.0
H727 H 0.69931 0.27432 0.48554 0.0
H728 H 0.61478 0.33561 0.50559 0.0
H729 H 0.65242 0.29782 0.51673 0.0
H730 H 0.75098 0.37912 0.5114 0.0
H731 H 0.71366 0.41664 0.50005 0.0
C732 C 0.7805 0.30368 0.55278 0.0
C733 C 0.77478 0.2732 0.53415 0.0
C734 C 0.75697 0.32353 0.54739 0.0
C735 C 0.72757 0.31336 0.52299 0.0
C736 C 0.72148 0.28253 0.50482 0.0
C737 C 0.7451 0.26268 0.51021 0.0
C738 C 0.6445 0.34526 0.50647 0.0
C739 C 0.66129 0.3791 0.50232 0.0
C740 C 0.66598 0.32369 0.51291 0.0
C741 C 0.70453 0.33568 0.51538 0.0
C742 C 0.72127 0.36936 0.51046 0.0
C743 C 0.6999 0.39082 0.50394 0.0
loop_
_geom_bond_atom_site_label_1
_geom_bond_atom_site_label_2
_geom_bond_distance
_geom_bond_site_symmetry_2
_ccdc_geom_bond_type
H0 C7 0.929 . S
H1 C10 0.930 . S
H2 C12 0.929 . S
H3 C4 0.969 . S
C4 H3 0.969 . S
C4 O5 1.550 . S
C4 H6 0.973 . S
O5 C4 1.550 . S
O5 C11 1.412 . S
H6 C4 0.973 . S
C7 H0 0.929 . S
C7 C8 1.400 . S
C7 C9 1.364 . S
C8 C7 1.400 . S
C8 C12 1.377 . S
C9 C7 1.364 . S
C9 C10 1.374 . S
C10 H1 0.930 . S
C10 C9 1.374 . S
C10 C11 1.383 . S
C11 O5 1.412 . S
C11 C10 1.383 . S
C11 C12 1.394 . S
C12 H2 0.929 . S
C12 C8 1.377 . S
C12 C11 1.394 . S
H13 C20 0.929 . S
H14 C23 0.930 . S
H15 C25 0.929 . S
H16 C17 0.969 . S
C17 H16 0.969 . S
C17 O18 1.550 . S
C17 H19 0.973 . S
O18 C17 1.550 . S
O18 C24 1.412 . S
H19 C17 0.973 . S
C20 H13 0.929 . S
C20 C21 1.400 . S
C20 C22 1.364 . S
C21 C20 1.400 . S
C21 C25 1.377 . S
C22 C20 1.364 . S
C22 C23 1.374 . S
C23 H14 0.930 . S
C23 C22 1.374 . S
C23 C24 1.383 . S
C24 O18 1.412 . S
C24 C23 1.383 . S
C24 C25 1.394 . S
C25 H15 0.929 . S
C25 C21 1.377 . S
C25 C24 1.394 . S
H26 C33 0.929 . S
H27 C36 0.930 . S
H28 C38 0.929 . S
H29 C30 0.969 . S
C30 H29 0.969 . S
C30 O31 1.550 . S
C30 H32 0.973 . S
O31 C30 1.550 . S
O31 C37 1.412 . S
H32 C30 0.973 . S
C33 H26 0.929 . S
C33 C34 1.400 . S
C33 C35 1.364 . S
C34 C33 1.400 . S
C34 C38 1.377 . S
C35 C33 1.364 . S
C35 C36 1.374 . S
C36 H27 0.930 . S
C36 C35 1.374 . S
C36 C37 1.383 . S
C37 O31 1.412 . S
C37 C36 1.383 . S
C37 C38 1.394 . S
C38 H28 0.929 . S
C38 C34 1.377 . S
C38 C37 1.394 . S
H39 C46 0.929 . S
H40 C49 0.930 . S
H41 C51 0.929 . S
H42 C43 0.969 . S
C43 H42 0.969 . S
C43 O44 1.550 . S
C43 H45 0.973 . S
O44 C43 1.550 . S
O44 C50 1.412 . S
H45 C43 0.973 . S
C46 H39 0.929 . S
C46 C47 1.400 . S
C46 C48 1.364 . S
C47 C46 1.400 . S
C47 C51 1.377 . S
C48 C46 1.364 . S
C48 C49 1.374 . S
C49 H40 0.930 . S
C49 C48 1.374 . S
C49 C50 1.383 . S
C50 O44 1.412 . S
C50 C49 1.383 . S
C50 C51 1.394 . S
C51 H41 0.929 . S
C51 C47 1.377 . S
C51 C50 1.394 . S
H52 C59 0.929 . S
H53 C62 0.930 . S
H54 C64 0.929 . S
H55 C56 0.969 . S
C56 H55 0.969 . S
C56 O57 1.550 . S
C56 H58 0.973 . S
O57 C56 1.550 . S
O57 C63 1.412 . S
H58 C56 0.973 . S
C59 H52 0.929 . S
C59 C60 1.400 . S
C59 C61 1.364 . S
C60 C59 1.400 . S
C60 C64 1.377 . S
C61 C59 1.364 . S
C61 C62 1.374 . S
C62 H53 0.930 . S
C62 C61 1.374 . S
C62 C63 1.383 . S
C63 O57 1.412 . S
C63 C62 1.383 . S
C63 C64 1.394 . S
C64 H54 0.929 . S
C64 C60 1.377 . S
C64 C63 1.394 . S
H65 C72 0.929 . S
H66 C75 0.930 . S
H67 C77 0.929 . S
H68 C69 0.969 . S
C69 H68 0.969 . S
C69 O70 1.550 . S
C69 H71 0.973 . S
O70 C69 1.550 . S
O70 C76 1.412 . S
H71 C69 0.973 . S
C72 H65 0.929 . S
C72 C73 1.400 . S
C72 C74 1.364 . S
C73 C72 1.400 . S
C73 C77 1.377 . S
C74 C72 1.364 . S
C74 C75 1.374 . S
C75 H66 0.930 . S
C75 C74 1.374 . S
C75 C76 1.383 . S
C76 O70 1.412 . S
C76 C75 1.383 . S
C76 C77 1.394 . S
C77 H67 0.929 . S
C77 C73 1.377 . S
C77 C76 1.394 . S
H78 C85 0.929 . S
H79 C88 0.930 . S
H80 C90 0.929 . S
H81 C82 0.969 . S
C82 H81 0.969 . S
C82 O83 1.550 . S
C82 H84 0.973 . S
O83 C82 1.550 . S
O83 C89 1.412 . S
H84 C82 0.973 . S
C85 H78 0.929 . S
C85 C86 1.400 . S
C85 C87 1.364 . S
C86 C85 1.400 . S
C86 C90 1.377 . S
C87 C85 1.364 . S
C87 C88 1.374 . S
C88 H79 0.930 . S
C88 C87 1.374 . S
C88 C89 1.383 . S
C89 O83 1.412 . S
C89 C88 1.383 . S
C89 C90 1.394 . S
C90 H80 0.929 . S
C90 C86 1.377 . S
C90 C89 1.394 . S
H91 C98 0.929 . S
H92 C101 0.930 . S
H93 C103 0.929 . S
H94 C95 0.969 . S
C95 H94 0.969 . S
C95 O96 1.550 . S
C95 H97 0.973 . S
O96 C95 1.550 . S
O96 C102 1.412 . S
H97 C95 0.973 . S
C98 H91 0.929 . S
C98 C99 1.400 . S
C98 C100 1.364 . S
C99 C98 1.400 . S
C99 C103 1.377 . S
C100 C98 1.364 . S
C100 C101 1.374 . S
C101 H92 0.930 . S
C101 C100 1.374 . S
C101 C102 1.383 . S
C102 O96 1.412 . S
C102 C101 1.383 . S
C102 C103 1.394 . S
C103 H93 0.929 . S
C103 C99 1.377 . S
C103 C102 1.394 . S
Gd104 C107 2.818 . S
Gd104 O124 2.377 . S
Gd104 O126 2.448 . S
Gd104 O127 2.506 . S
Gd104 O128 2.435 . S
Gd104 O129 2.717 1_545 S
Gd104 O131 2.395 1_545 S
Gd104 O135 2.327 . S
Gd105 C116 2.818 1_545 S
Gd105 O125 2.395 1_655 S
Gd105 O129 2.327 1_645 S
Gd105 O130 2.377 1_545 S
Gd105 O132 2.448 1_545 S
Gd105 O133 2.506 1_545 S
Gd105 O134 2.435 . S
Gd105 O135 2.717 1_655 S
C106 O124 1.240 . S
C106 O125 1.240 . S
C107 Gd104 2.818 . S
C107 C108 1.510 . S
C107 O126 1.249 . S
C107 O127 1.252 . S
C108 C107 1.510 . S
C108 C109 1.404 . S
C108 C110 1.352 . S
C109 C108 1.404 . S
C109 C113 1.389 . S
C109 H136 0.930 . S
C110 C108 1.352 . S
C110 C112 1.374 . S
C110 H137 0.931 . S
C111 C112 1.359 . S
C111 C113 1.364 . S
C112 C110 1.374 . S
C112 C111 1.359 . S
C112 H138 0.931 . S
C113 C109 1.389 . S
C113 C111 1.364 . S
C113 H139 0.931 . S
C114 O128 1.256 1_565 S
C114 O129 1.257 . S
C115 O130 1.240 . S
C115 O131 1.240 1_655 S
C116 Gd105 2.818 1_565 S
C116 C117 1.510 . S
C116 O132 1.249 . S
C116 O133 1.252 . S
C117 C116 1.510 . S
C117 C118 1.404 . S
C117 C119 1.352 . S
C118 C117 1.404 . S
C118 C122 1.389 . S
C118 H140 0.930 . S
C119 C117 1.352 . S
C119 C121 1.374 . S
C119 H141 0.931 . S
C120 C121 1.359 . S
C120 C122 1.364 . S
C121 C119 1.374 . S
C121 C120 1.359 . S
C121 H142 0.931 . S
C122 C118 1.389 . S
C122 C120 1.364 . S
C122 H143 0.931 . S
C123 O134 1.256 . S
C123 O135 1.257 1_655 S
O124 Gd104 2.377 . S
O124 C106 1.240 . S
O125 Gd105 2.395 1_455 S
O125 C106 1.240 . S
O126 Gd104 2.448 . S
O126 C107 1.249 . S
O127 Gd104 2.506 . S
O127 C107 1.252 . S
O128 Gd104 2.435 . S
O128 C114 1.256 1_545 S
O129 Gd104 2.717 1_565 S
O129 Gd105 2.327 1_465 S
O129 C114 1.257 . S
O130 Gd105 2.377 1_565 S
O130 C115 1.240 . S
O131 Gd104 2.395 1_565 S
O131 C115 1.240 1_455 S
O132 Gd105 2.448 1_565 S
O132 C116 1.249 . S
O133 Gd105 2.506 1_565 S
O133 C116 1.252 . S
O134 Gd105 2.435 . S
O134 C123 1.256 . S
O135 Gd104 2.327 . S
O135 Gd105 2.717 1_455 S
O135 C123 1.257 1_455 S
H136 C109 0.930 . S
H137 C110 0.931 . S
H138 C112 0.931 . S
H139 C113 0.931 . S
H140 C118 0.930 . S
H141 C119 0.931 . S
H142 C121 0.931 . S
H143 C122 0.931 . S
Gd144 C147 2.818 . S
Gd144 O164 2.377 . S
Gd144 O166 2.448 . S
Gd144 O167 2.506 . S
Gd144 O168 2.435 1_545 S
Gd144 O169 2.717 1_545 S
Gd144 O171 2.395 1_544 S
Gd144 O175 2.303 1_554 S
Gd145 C156 2.818 1_545 S
Gd145 O165 2.395 1_556 S
Gd145 O169 2.327 1_546 S
Gd145 O170 2.377 1_545 S
Gd145 O172 2.448 1_545 S
Gd145 O173 2.506 1_545 S
Gd145 O174 2.435 . S
Gd145 O175 2.728 . S
C146 O164 1.240 . S
C146 O165 1.240 . S
C147 Gd144 2.818 . S
C147 C148 1.510 . S
C147 O166 1.249 . S
C147 O167 1.252 . S
C148 C147 1.510 . S
C148 C149 1.404 . S
C148 C150 1.352 . S
C149 C148 1.404 . S
C149 C153 1.389 . S
C149 H176 0.930 . S
C150 C148 1.352 . S
C150 C152 1.374 . S
C150 H177 0.931 . S
C151 C152 1.359 . S
C151 C153 1.364 . S
C152 C150 1.374 . S
C152 C151 1.359 . S
C152 H178 0.931 . S
C153 C149 1.389 . S
C153 C151 1.364 . S
C153 H179 0.931 . S
C154 O168 1.256 . S
C154 O169 1.257 . S
C155 O170 1.240 . S
C155 O171 1.240 . S
C156 Gd145 2.818 1_565 S
C156 C157 1.510 . S
C156 O172 1.249 . S
C156 O173 1.252 . S
C157 C156 1.510 . S
C157 C158 1.404 . S
C157 C159 1.352 . S
C158 C157 1.404 . S
C158 C162 1.389 . S
C158 H180 0.930 . S
C159 C157 1.352 . S
C159 C161 1.374 . S
C159 H181 0.931 . S
C160 C161 1.359 . S
C160 C162 1.364 . S
C161 C159 1.374 . S
C161 C160 1.359 . S
C161 H182 0.931 . S
C162 C158 1.389 . S
C162 C160 1.364 . S
C162 H183 0.931 . S
C163 O174 1.256 . S
C163 O175 1.285 . S
O164 Gd144 2.377 . S
O164 C146 1.240 . S
O165 Gd145 2.395 1_554 S
O165 C146 1.240 . S
O166 Gd144 2.448 . S
O166 C147 1.249 . S
O167 Gd144 2.506 . S
O167 C147 1.252 . S
O168 Gd144 2.435 1_565 S
O168 C154 1.256 . S
O169 Gd144 2.717 1_565 S
O169 Gd145 2.327 1_564 S
O169 C154 1.257 . S
O170 Gd145 2.377 1_565 S
O170 C155 1.240 . S
O171 Gd144 2.395 1_566 S
O171 C155 1.240 . S
O172 Gd145 2.448 1_565 S
O172 C156 1.249 . S
O173 Gd145 2.506 1_565 S
O173 C156 1.252 . S
O174 Gd145 2.435 . S
O174 C163 1.256 . S
O175 Gd144 2.303 1_556 S
O175 Gd145 2.728 . S
O175 C163 1.285 . S
H176 C149 0.930 . S
H177 C150 0.931 . S
H178 C152 0.931 . S
H179 C153 0.931 . S
H180 C158 0.930 . S
H181 C159 0.931 . S
H182 C161 0.931 . S
H183 C162 0.931 . S
Gd184 C187 2.818 . S
Gd184 O204 2.377 . S
Gd184 O206 2.448 . S
Gd184 O207 2.506 . S
Gd184 O208 2.435 . S
Gd184 O209 2.717 . S
Gd184 O211 2.395 . S
Gd184 O215 2.327 . S
Gd185 C196 2.818 . S
Gd185 O205 2.395 . S
Gd185 O209 2.327 . S
Gd185 O210 2.377 . S
Gd185 O212 2.448 . S
Gd185 O213 2.506 . S
Gd185 O214 2.435 . S
Gd185 O215 2.717 . S
C186 O204 1.240 . S
C186 O205 1.240 . S
C187 Gd184 2.818 . S
C187 C188 1.510 . S
C187 O206 1.249 . S
C187 O207 1.252 . S
C188 C187 1.510 . S
C188 C189 1.404 . S
C188 C190 1.352 . S
C189 C188 1.404 . S
C189 C193 1.389 . S
C189 H216 0.930 . S
C190 C188 1.352 . S
C190 C192 1.374 . S
C190 H217 0.931 . S
C191 C192 1.359 . S
C191 C193 1.364 . S
C192 C190 1.374 . S
C192 C191 1.359 . S
C192 H218 0.931 . S
C193 C189 1.389 . S
C193 C191 1.364 . S
C193 H219 0.931 . S
C194 O208 1.256 . S
C194 O209 1.257 . S
C195 O210 1.240 . S
C195 O211 1.240 . S
C196 Gd185 2.818 . S
C196 C197 1.510 . S
C196 O212 1.249 . S
C196 O213 1.252 . S
C197 C196 1.510 . S
C197 C198 1.404 . S
C197 C199 1.352 . S
C198 C197 1.404 . S
C198 C202 1.389 . S
C198 H220 0.930 . S
C199 C197 1.352 . S
C199 C201 1.374 . S
C199 H221 0.931 . S
C200 C201 1.359 . S
C200 C202 1.364 . S
C201 C199 1.374 . S
C201 C200 1.359 . S
C201 H222 0.931 . S
C202 C198 1.389 . S
C202 C200 1.364 . S
C202 H223 0.931 . S
C203 O214 1.256 . S
C203 O215 1.257 . S
O204 Gd184 2.377 . S
O204 C186 1.240 . S
O205 Gd185 2.395 . S
O205 C186 1.240 . S
O206 Gd184 2.448 . S
O206 C187 1.249 . S
O207 Gd184 2.506 . S
O207 C187 1.252 . S
O208 Gd184 2.435 . S
O208 C194 1.256 . S
O209 Gd184 2.717 . S
O209 Gd185 2.327 . S
O209 C194 1.257 . S
O210 Gd185 2.377 . S
O210 C195 1.240 . S
O211 Gd184 2.395 . S
O211 C195 1.240 . S
O212 Gd185 2.448 . S
O212 C196 1.249 . S
O213 Gd185 2.506 . S
O213 C196 1.252 . S
O214 Gd185 2.435 . S
O214 C203 1.256 . S
O215 Gd184 2.327 . S
O215 Gd185 2.717 . S
O215 C203 1.257 . S
H216 C189 0.930 . S
H217 C190 0.931 . S
H218 C192 0.931 . S
H219 C193 0.931 . S
H220 C198 0.930 . S
H221 C199 0.931 . S
H222 C201 0.931 . S
H223 C202 0.931 . S
Gd224 C227 2.818 . S
Gd224 O244 2.377 . S
Gd224 O246 2.448 . S
Gd224 O247 2.506 . S
Gd224 O248 2.435 . S
Gd224 O249 2.717 . S
Gd224 O251 2.395 1_455 S
Gd224 O255 2.327 . S
Gd225 C236 2.818 1_454 S
Gd225 O245 2.395 . S
Gd225 O249 2.327 . S
Gd225 O250 2.372 1_454 S
Gd225 O252 2.448 1_554 S
Gd225 O253 2.506 1_455 S
Gd225 O254 2.435 1_554 S
Gd225 O255 2.717 . S
C226 O244 1.240 . S
C226 O245 1.240 . S
C227 Gd224 2.818 . S
C227 C228 1.510 . S
C227 O246 1.249 . S
C227 O247 1.252 . S
C228 C227 1.510 . S
C228 C229 1.404 . S
C228 C230 1.352 . S
C229 C228 1.404 . S
C229 C233 1.389 . S
C229 H256 0.930 . S
C230 C228 1.352 . S
C230 C232 1.374 . S
C230 H257 0.931 . S
C231 C232 1.359 . S
C231 C233 1.364 . S
C232 C230 1.374 . S
C232 C231 1.359 . S
C232 H258 0.931 . S
C233 C229 1.389 . S
C233 C231 1.364 . S
C233 H259 0.931 . S
C234 O248 1.256 . S
C234 O249 1.257 . S
C235 O250 1.229 1_554 S
C235 O251 1.240 . S
C236 Gd225 2.818 1_656 S
C236 C237 1.510 . S
C236 O252 1.249 1_655 S
C236 O253 1.252 1_556 S
C237 C236 1.510 . S
C237 C238 1.404 . S
C237 C239 1.352 . S
C238 C237 1.404 . S
C238 C242 1.389 . S
C238 H260 0.930 . S
C239 C237 1.352 . S
C239 C241 1.374 . S
C239 H261 0.931 1_556 S
C240 C241 1.359 . S
C240 C242 1.364 . S
C241 C239 1.374 . S
C241 C240 1.359 . S
C241 H262 0.931 . S
C242 C238 1.389 . S
C242 C240 1.364 . S
C242 H263 0.931 . S
C243 O254 1.256 . S
C243 O255 1.257 1_556 S
O244 Gd224 2.377 . S
O244 C226 1.240 . S
O245 Gd225 2.395 . S
O245 C226 1.240 . S
O246 Gd224 2.448 . S
O246 C227 1.249 . S
O247 Gd224 2.506 . S
O247 C227 1.252 . S
O248 Gd224 2.435 . S
O248 C234 1.256 . S
O249 Gd224 2.717 . S
O249 Gd225 2.327 . S
O249 C234 1.257 . S
O250 Gd225 2.372 1_656 S
O250 C235 1.229 1_556 S
O251 Gd224 2.395 1_655 S
O251 C235 1.240 . S
O252 Gd225 2.448 1_556 S
O252 C236 1.249 1_455 S
O253 Gd225 2.506 1_655 S
O253 C236 1.252 1_554 S
O254 Gd225 2.435 1_556 S
O254 C243 1.256 . S
O255 Gd224 2.327 . S
O255 Gd225 2.717 . S
O255 C243 1.257 1_554 S
H256 C229 0.930 . S
H257 C230 0.931 . S
H258 C232 0.931 . S
H259 C233 0.931 . S
H260 C238 0.930 . S
H261 C239 0.931 1_554 S
H262 C241 0.931 . S
H263 C242 0.931 . S
H264 C272 0.950 . S
H265 C277 0.950 . S
H266 C274 0.950 . S
H267 C276 0.950 . S
H268 C278 0.950 . S
H269 C280 0.950 . S
H270 C282 0.950 . S
H271 C283 0.950 . S
C272 H264 0.950 . S
C272 C273 1.386 . S
C272 C274 1.391 . S
C273 C272 1.386 . S
C273 C277 1.393 . S
C274 H266 0.950 . S
C274 C272 1.391 . S
C274 C275 1.400 . S
C275 C274 1.400 . S
C275 C276 1.398 . S
C275 C281 1.491 . S
C276 H267 0.950 . S
C276 C275 1.398 . S
C276 C277 1.391 . S
C277 H265 0.950 . S
C277 C273 1.393 . S
C277 C276 1.391 . S
C278 H268 0.950 . S
C278 C279 1.386 . S
C278 C280 1.391 . S
C279 C278 1.386 . S
C279 C283 1.393 . S
C280 H269 0.950 . S
C280 C278 1.391 . S
C280 C281 1.400 . S
C281 C275 1.491 . S
C281 C280 1.400 . S
C281 C282 1.398 . S
C282 H270 0.950 . S
C282 C281 1.398 . S
C282 C283 1.391 . S
C283 H271 0.950 . S
C283 C279 1.393 . S
C283 C282 1.391 . S
H284 C292 0.950 . S
H285 C297 0.950 . S
H286 C294 0.950 . S
H287 C296 0.950 . S
H288 C298 0.950 . S
H289 C300 0.950 . S
H290 C302 0.950 . S
H291 C303 0.950 . S
C292 H284 0.950 . S
C292 C293 1.386 . S
C292 C294 1.391 . S
C293 C292 1.386 . S
C293 C297 1.393 . S
C294 H286 0.950 . S
C294 C292 1.391 . S
C294 C295 1.400 . S
C295 C294 1.400 . S
C295 C296 1.398 . S
C295 C301 1.491 . S
C296 H287 0.950 . S
C296 C295 1.398 . S
C296 C297 1.391 . S
C297 H285 0.950 . S
C297 C293 1.393 . S
C297 C296 1.391 . S
C298 H288 0.950 . S
C298 C299 1.386 . S
C298 C300 1.391 . S
C299 C298 1.386 . S
C299 C303 1.393 . S
C300 H289 0.950 . S
C300 C298 1.391 . S
C300 C301 1.400 . S
C301 C295 1.491 . S
C301 C300 1.400 . S
C301 C302 1.398 . S
C302 H290 0.950 . S
C302 C301 1.398 . S
C302 C303 1.391 . S
C303 H291 0.950 . S
C303 C299 1.393 . S
C303 C302 1.391 . S
H304 C312 0.950 . S
H305 C317 0.950 . S
H306 C314 0.950 . S
H307 C316 0.950 . S
H308 C318 0.950 . S
H309 C320 0.950 . S
H310 C322 0.950 . S
H311 C323 0.950 . S
C312 H304 0.950 . S
C312 C313 1.386 . S
C312 C314 1.391 . S
C313 C312 1.386 . S
C313 C317 1.393 . S
C314 H306 0.950 . S
C314 C312 1.391 . S
C314 C315 1.400 . S
C315 C314 1.400 . S
C315 C316 1.398 . S
C315 C321 1.491 . S
C316 H307 0.950 . S
C316 C315 1.398 . S
C316 C317 1.391 . S
C317 H305 0.950 . S
C317 C313 1.393 . S
C317 C316 1.391 . S
C318 H308 0.950 . S
C318 C319 1.386 . S
C318 C320 1.391 . S
C319 C318 1.386 . S
C319 C323 1.393 . S
C320 H309 0.950 . S
C320 C318 1.391 . S
C320 C321 1.400 . S
C321 C315 1.491 . S
C321 C320 1.400 . S
C321 C322 1.398 . S
C322 H310 0.950 . S
C322 C321 1.398 . S
C322 C323 1.391 . S
C323 H311 0.950 . S
C323 C319 1.393 . S
C323 C322 1.391 . S
H324 C332 0.950 . S
H325 C337 0.950 . S
H326 C334 0.950 . S
H327 C336 0.950 . S
H328 C338 0.950 1_455 S
H329 C340 0.950 . S
H330 C342 0.950 . S
H331 C343 0.950 . S
C332 H324 0.950 . S
C332 C333 1.386 . S
C332 C334 1.391 . S
C333 C332 1.386 . S
C333 C337 1.393 . S
C334 H326 0.950 . S
C334 C332 1.391 . S
C334 C335 1.400 . S
C335 C334 1.400 . S
C335 C336 1.398 . S
C335 C341 1.491 . S
C336 H327 0.950 . S
C336 C335 1.398 . S
C336 C337 1.391 . S
C337 H325 0.950 . S
C337 C333 1.393 . S
C337 C336 1.391 . S
C338 H328 0.950 1_655 S
C338 C339 1.386 . S
C338 C340 1.391 . S
C339 C338 1.386 . S
C339 C343 1.393 . S
C340 H329 0.950 . S
C340 C338 1.391 . S
C340 C341 1.400 . S
C341 C335 1.491 . S
C341 C340 1.400 . S
C341 C342 1.398 . S
C342 H330 0.950 . S
C342 C341 1.398 . S
C342 C343 1.391 . S
C343 H331 0.950 . S
C343 C339 1.393 . S
C343 C342 1.391 . S
H344 C352 0.950 . S
H345 C357 0.950 . S
H346 C354 0.950 . S
H347 C356 0.950 . S
H348 C358 0.950 . S
H349 C360 0.950 . S
H350 C362 0.950 . S
H351 C363 0.950 . S
C352 H344 0.950 . S
C352 C353 1.386 . S
C352 C354 1.391 . S
C353 C352 1.386 . S
C353 C357 1.393 . S
C354 H346 0.950 . S
C354 C352 1.391 . S
C354 C355 1.400 . S
C355 C354 1.400 . S
C355 C356 1.398 . S
C355 C361 1.491 . S
C356 H347 0.950 . S
C356 C355 1.398 . S
C356 C357 1.391 . S
C357 H345 0.950 . S
C357 C353 1.393 . S
C357 C356 1.391 . S
C358 H348 0.950 . S
C358 C359 1.386 . S
C358 C360 1.391 . S
C359 C358 1.386 . S
C359 C363 1.393 . S
C360 H349 0.950 . S
C360 C358 1.391 . S
C360 C361 1.400 . S
C361 C355 1.491 . S
C361 C360 1.400 . S
C361 C362 1.398 . S
C362 H350 0.950 . S
C362 C361 1.398 . S
C362 C363 1.391 . S
C363 H351 0.950 . S
C363 C359 1.393 . S
C363 C362 1.391 . S
H364 C372 0.950 . S
H365 C377 0.950 . S
H366 C374 0.950 . S
H367 C376 0.950 . S
H368 C378 0.950 . S
H369 C380 0.950 . S
H370 C382 0.950 . S
H371 C383 0.950 . S
C372 H364 0.950 . S
C372 C373 1.386 . S
C372 C374 1.391 . S
C373 C372 1.386 . S
C373 C377 1.393 . S
C374 H366 0.950 . S
C374 C372 1.391 . S
C374 C375 1.400 . S
C375 C374 1.400 . S
C375 C376 1.398 . S
C375 C381 1.491 . S
C376 H367 0.950 . S
C376 C375 1.398 . S
C376 C377 1.391 . S
C377 H365 0.950 . S
C377 C373 1.393 . S
C377 C376 1.391 . S
C378 H368 0.950 . S
C378 C379 1.386 . S
C378 C380 1.391 . S
C379 C378 1.386 . S
C379 C383 1.393 . S
C380 H369 0.950 . S
C380 C378 1.391 . S
C380 C381 1.400 . S
C381 C375 1.491 . S
C381 C380 1.400 . S
C381 C382 1.398 . S
C382 H370 0.950 . S
C382 C381 1.398 . S
C382 C383 1.391 . S
C383 H371 0.950 . S
C383 C379 1.393 . S
C383 C382 1.391 . S
H384 C392 0.950 . S
H385 C397 0.950 . S
H386 C394 0.950 . S
H387 C396 0.950 . S
H388 C398 0.950 . S
H389 C400 0.950 . S
H390 C402 0.950 . S
H391 C403 0.950 . S
C392 H384 0.950 . S
C392 C393 1.386 . S
C392 C394 1.391 . S
C393 C392 1.386 . S
C393 C397 1.393 . S
C394 H386 0.950 . S
C394 C392 1.391 . S
C394 C395 1.400 . S
C395 C394 1.400 . S
C395 C396 1.398 . S
C395 C401 1.491 . S
C396 H387 0.950 . S
C396 C395 1.398 . S
C396 C397 1.391 . S
C397 H385 0.950 . S
C397 C393 1.393 . S
C397 C396 1.391 . S
C398 H388 0.950 . S
C398 C399 1.386 . S
C398 C400 1.391 . S
C399 C398 1.386 . S
C399 C403 1.393 1_556 S
C400 H389 0.950 . S
C400 C398 1.391 . S
C400 C401 1.400 . S
C401 C395 1.491 . S
C401 C400 1.400 . S
C401 C402 1.398 . S
C402 H390 0.950 . S
C402 C401 1.398 . S
C402 C403 1.391 1_556 S
C403 H391 0.950 . S
C403 C399 1.393 1_554 S
C403 C402 1.391 1_554 S
H404 C412 0.950 . S
H405 C417 0.950 . S
H406 C414 0.950 . S
H407 C416 0.950 . S
H408 C418 0.950 . S
H409 C420 0.950 . S
H410 C422 0.950 . S
H411 C423 0.950 . S
C412 H404 0.950 . S
C412 C413 1.386 . S
C412 C414 1.391 . S
C413 C412 1.386 . S
C413 C417 1.393 . S
C414 H406 0.950 . S
C414 C412 1.391 . S
C414 C415 1.400 . S
C415 C414 1.400 . S
C415 C416 1.398 . S
C415 C421 1.491 . S
C416 H407 0.950 . S
C416 C415 1.398 . S
C416 C417 1.391 . S
C417 H405 0.950 . S
C417 C413 1.393 . S
C417 C416 1.391 . S
C418 H408 0.950 . S
C418 C419 1.386 . S
C418 C420 1.391 . S
C419 C418 1.386 . S
C419 C423 1.393 . S
C420 H409 0.950 . S
C420 C418 1.391 . S
C420 C421 1.400 . S
C421 C415 1.491 . S
C421 C420 1.400 . S
C421 C422 1.398 . S
C422 H410 0.950 . S
C422 C421 1.398 . S
C422 C423 1.391 . S
C423 H411 0.950 . S
C423 C419 1.393 . S
C423 C422 1.391 . S
H424 C432 0.950 . S
H425 C437 0.950 . S
H426 C434 0.950 . S
H427 C436 0.950 . S
H428 C438 0.950 . S
H429 C440 0.950 . S
H430 C442 0.950 . S
H431 C443 0.950 . S
C432 H424 0.950 . S
C432 C433 1.386 . S
C432 C434 1.391 . S
C433 C432 1.386 . S
C433 C437 1.393 . S
C434 H426 0.950 . S
C434 C432 1.391 . S
C434 C435 1.400 . S
C435 C434 1.400 . S
C435 C436 1.398 . S
C435 C441 1.491 . S
C436 H427 0.950 . S
C436 C435 1.398 . S
C436 C437 1.391 . S
C437 H425 0.950 . S
C437 C433 1.393 . S
C437 C436 1.391 . S
C438 H428 0.950 . S
C438 C439 1.386 . S
C438 C440 1.391 . S
C439 C438 1.386 . S
C439 C443 1.393 . S
C440 H429 0.950 . S
C440 C438 1.391 . S
C440 C441 1.400 . S
C441 C435 1.491 . S
C441 C440 1.400 . S
C441 C442 1.398 . S
C442 H430 0.950 . S
C442 C441 1.398 . S
C442 C443 1.391 . S
C443 H431 0.950 . S
C443 C439 1.393 . S
C443 C442 1.391 . S
H444 C452 0.950 . S
H445 C457 0.950 . S
H446 C454 0.950 . S
H447 C456 0.950 . S
H448 C458 0.950 . S
H449 C460 0.950 . S
H450 C462 0.950 . S
H451 C463 0.950 . S
C452 H444 0.950 . S
C452 C453 1.386 . S
C452 C454 1.391 . S
C453 C452 1.386 . S
C453 C457 1.393 . S
C454 H446 0.950 . S
C454 C452 1.391 . S
C454 C455 1.400 . S
C455 C454 1.400 . S
C455 C456 1.398 . S
C455 C461 1.491 . S
C456 H447 0.950 . S
C456 C455 1.398 . S
C456 C457 1.391 . S
C457 H445 0.950 . S
C457 C453 1.393 . S
C457 C456 1.391 . S
C458 H448 0.950 . S
C458 C459 1.386 . S
C458 C460 1.391 . S
C459 C458 1.386 . S
C459 C463 1.393 . S
C460 H449 0.950 . S
C460 C458 1.391 . S
C460 C461 1.400 . S
C461 C455 1.491 . S
C461 C460 1.400 . S
C461 C462 1.398 . S
C462 H450 0.950 . S
C462 C461 1.398 . S
C462 C463 1.391 . S
C463 H451 0.950 . S
C463 C459 1.393 . S
C463 C462 1.391 . S
H464 C472 0.950 . S
H465 C477 0.950 . S
H466 C474 0.950 . S
H467 C476 0.950 . S
H468 C478 0.950 . S
H469 C480 0.950 . S
H470 C482 0.950 . S
H471 C483 0.950 . S
C472 H464 0.950 . S
C472 C473 1.386 . S
C472 C474 1.391 . S
C473 C472 1.386 . S
C473 C477 1.393 . S
C474 H466 0.950 . S
C474 C472 1.391 . S
C474 C475 1.400 . S
C475 C474 1.400 . S
C475 C476 1.398 . S
C475 C481 1.491 . S
C476 H467 0.950 . S
C476 C475 1.398 . S
C476 C477 1.391 . S
C477 H465 0.950 . S
C477 C473 1.393 . S
C477 C476 1.391 . S
C478 H468 0.950 . S
C478 C479 1.386 . S
C478 C480 1.391 . S
C479 C478 1.386 . S
C479 C483 1.393 . S
C480 H469 0.950 . S
C480 C478 1.391 . S
C480 C481 1.400 . S
C481 C475 1.491 . S
C481 C480 1.400 . S
C481 C482 1.398 . S
C482 H470 0.950 . S
C482 C481 1.398 . S
C482 C483 1.391 . S
C483 H471 0.950 . S
C483 C479 1.393 . S
C483 C482 1.391 . S
H484 C492 0.950 . S
H485 C497 0.950 . S
H486 C494 0.950 . S
H487 C496 0.950 . S
H488 C498 0.950 . S
H489 C500 0.950 . S
H490 C502 0.950 . S
H491 C503 0.950 . S
C492 H484 0.950 . S
C492 C493 1.386 . S
C492 C494 1.391 . S
C493 C492 1.386 . S
C493 C497 1.393 . S
C494 H486 0.950 . S
C494 C492 1.391 . S
C494 C495 1.400 . S
C495 C494 1.400 . S
C495 C496 1.398 . S
C495 C501 1.491 . S
C496 H487 0.950 . S
C496 C495 1.398 . S
C496 C497 1.391 . S
C497 H485 0.950 . S
C497 C493 1.393 . S
C497 C496 1.391 . S
C498 H488 0.950 . S
C498 C499 1.386 . S
C498 C500 1.391 . S
C499 C498 1.386 . S
C499 C503 1.393 . S
C500 H489 0.950 . S
C500 C498 1.391 . S
C500 C501 1.400 . S
C501 C495 1.491 . S
C501 C500 1.400 . S
C501 C502 1.398 . S
C502 H490 0.950 . S
C502 C501 1.398 . S
C502 C503 1.391 . S
C503 H491 0.950 . S
C503 C499 1.393 . S
C503 C502 1.391 . S
H504 C512 0.950 . S
H505 C517 0.950 . S
H506 C514 0.950 . S
H507 C516 0.950 . S
H508 C518 0.950 . S
H509 C520 0.950 . S
H510 C522 0.950 . S
H511 C523 0.950 . S
C512 H504 0.950 . S
C512 C513 1.386 . S
C512 C514 1.391 . S
C513 C512 1.386 . S
C513 C517 1.393 . S
C514 H506 0.950 . S
C514 C512 1.391 . S
C514 C515 1.400 . S
C515 C514 1.400 . S
C515 C516 1.398 . S
C515 C521 1.491 . S
C516 H507 0.950 . S
C516 C515 1.398 . S
C516 C517 1.391 . S
C517 H505 0.950 . S
C517 C513 1.393 . S
C517 C516 1.391 . S
C518 H508 0.950 . S
C518 C519 1.386 . S
C518 C520 1.391 . S
C519 C518 1.386 . S
C519 C523 1.393 . S
C520 H509 0.950 . S
C520 C518 1.391 . S
C520 C521 1.400 . S
C521 C515 1.491 . S
C521 C520 1.400 . S
C521 C522 1.398 . S
C522 H510 0.950 . S
C522 C521 1.398 . S
C522 C523 1.391 . S
C523 H511 0.950 . S
C523 C519 1.393 . S
C523 C522 1.391 . S
H524 C532 0.950 . S
H525 C537 0.950 . S
H526 C534 0.950 . S
H527 C536 0.950 . S
H528 C538 0.950 . S
H529 C540 0.950 . S
H530 C542 0.950 . S
H531 C543 0.950 . S
C532 H524 0.950 . S
C532 C533 1.386 . S
C532 C534 1.391 . S
C533 C532 1.386 . S
C533 C537 1.393 . S
C534 H526 0.950 . S
C534 C532 1.391 . S
C534 C535 1.400 . S
C535 C534 1.400 . S
C535 C536 1.398 . S
C535 C541 1.491 . S
C536 H527 0.950 . S
C536 C535 1.398 . S
C536 C537 1.391 . S
C537 H525 0.950 . S
C537 C533 1.393 . S
C537 C536 1.391 . S
C538 H528 0.950 . S
C538 C539 1.386 . S
C538 C540 1.391 . S
C539 C538 1.386 . S
C539 C543 1.393 . S
C540 H529 0.950 . S
C540 C538 1.391 . S
C540 C541 1.400 . S
C541 C535 1.491 . S
C541 C540 1.400 . S
C541 C542 1.398 . S
C542 H530 0.950 . S
C542 C541 1.398 . S
C542 C543 1.391 . S
C543 H531 0.950 . S
C543 C539 1.393 . S
C543 C542 1.391 . S
H544 C552 0.950 . S
H545 C557 0.950 . S
H546 C554 0.950 . S
H547 C556 0.950 . S
H548 C558 0.950 . S
H549 C560 0.950 . S
H550 C562 0.950 . S
H551 C563 0.950 . S
C552 H544 0.950 . S
C552 C553 1.386 . S
C552 C554 1.391 . S
C553 C552 1.386 . S
C553 C557 1.393 . S
C554 H546 0.950 . S
C554 C552 1.391 . S
C554 C555 1.400 . S
C555 C554 1.400 . S
C555 C556 1.398 . S
C555 C561 1.491 . S
C556 H547 0.950 . S
C556 C555 1.398 . S
C556 C557 1.391 . S
C557 H545 0.950 . S
C557 C553 1.393 . S
C557 C556 1.391 . S
C558 H548 0.950 . S
C558 C559 1.386 . S
C558 C560 1.391 . S
C559 C558 1.386 . S
C559 C563 1.393 . S
C560 H549 0.950 . S
C560 C558 1.391 . S
C560 C561 1.400 . S
C561 C555 1.491 . S
C561 C560 1.400 . S
C561 C562 1.398 . S
C562 H550 0.950 . S
C562 C561 1.398 . S
C562 C563 1.391 . S
C563 H551 0.950 . S
C563 C559 1.393 . S
C563 C562 1.391 . S
H564 C572 0.950 . S
H565 C577 0.950 . S
H566 C574 0.950 . S
H567 C576 0.950 . S
H568 C578 0.950 . S
H569 C580 0.950 . S
H570 C582 0.950 . S
H571 C583 0.950 . S
C572 H564 0.950 . S
C572 C573 1.386 . S
C572 C574 1.391 . S
C573 C572 1.386 . S
C573 C577 1.393 . S
C574 H566 0.950 . S
C574 C572 1.391 . S
C574 C575 1.400 . S
C575 C574 1.400 . S
C575 C576 1.398 . S
C575 C581 1.491 . S
C576 H567 0.950 . S
C576 C575 1.398 . S
C576 C577 1.391 . S
C577 H565 0.950 . S
C577 C573 1.393 . S
C577 C576 1.391 . S
C578 H568 0.950 . S
C578 C579 1.386 . S
C578 C580 1.391 . S
C579 C578 1.386 . S
C579 C583 1.393 . S
C580 H569 0.950 . S
C580 C578 1.391 . S
C580 C581 1.400 . S
C581 C575 1.491 . S
C581 C580 1.400 . S
C581 C582 1.398 . S
C582 H570 0.950 . S
C582 C581 1.398 . S
C582 C583 1.391 . S
C583 H571 0.950 . S
C583 C579 1.393 . S
C583 C582 1.391 . S
H584 C592 0.950 . S
H585 C597 0.950 . S
H586 C594 0.950 . S
H587 C596 0.950 . S
H588 C598 0.950 . S
H589 C600 0.950 . S
H590 C602 0.950 . S
H591 C603 0.950 . S
C592 H584 0.950 . S
C592 C593 1.386 . S
C592 C594 1.391 . S
C593 C592 1.386 . S
C593 C597 1.393 . S
C594 H586 0.950 . S
C594 C592 1.391 . S
C594 C595 1.400 . S
C595 C594 1.400 . S
C595 C596 1.398 . S
C595 C601 1.491 . S
C596 H587 0.950 . S
C596 C595 1.398 . S
C596 C597 1.391 . S
C597 H585 0.950 . S
C597 C593 1.393 . S
C597 C596 1.391 . S
C598 H588 0.950 . S
C598 C599 1.386 . S
C598 C600 1.391 . S
C599 C598 1.386 . S
C599 C603 1.393 . S
C600 H589 0.950 . S
C600 C598 1.391 . S
C600 C601 1.400 . S
C601 C595 1.491 . S
C601 C600 1.400 . S
C601 C602 1.398 . S
C602 H590 0.950 . S
C602 C601 1.398 . S
C602 C603 1.391 . S
C603 H591 0.950 . S
C603 C599 1.393 . S
C603 C602 1.391 . S
H604 C612 0.950 . S
H605 C617 0.950 . S
H606 C614 0.950 . S
H607 C616 0.950 . S
H608 C618 0.950 . S
H609 C620 0.950 . S
H610 C622 0.950 . S
H611 C623 0.950 . S
C612 H604 0.950 . S
C612 C613 1.386 . S
C612 C614 1.391 . S
C613 C612 1.386 . S
C613 C617 1.393 . S
C614 H606 0.950 . S
C614 C612 1.391 . S
C614 C615 1.400 . S
C615 C614 1.400 . S
C615 C616 1.398 . S
C615 C621 1.491 . S
C616 H607 0.950 . S
C616 C615 1.398 . S
C616 C617 1.391 . S
C617 H605 0.950 . S
C617 C613 1.393 . S
C617 C616 1.391 . S
C618 H608 0.950 . S
C618 C619 1.386 . S
C618 C620 1.391 . S
C619 C618 1.386 . S
C619 C623 1.393 . S
C620 H609 0.950 . S
C620 C618 1.391 . S
C620 C621 1.400 . S
C621 C615 1.491 . S
C621 C620 1.400 . S
C621 C622 1.398 . S
C622 H610 0.950 . S
C622 C621 1.398 . S
C622 C623 1.391 . S
C623 H611 0.950 . S
C623 C619 1.393 . S
C623 C622 1.391 . S
H624 C632 0.950 . S
H625 C637 0.950 . S
H626 C634 0.950 . S
H627 C636 0.950 . S
H628 C638 0.950 . S
H629 C640 0.950 . S
H630 C642 0.950 . S
H631 C643 0.950 . S
C632 H624 0.950 . S
C632 C633 1.386 . S
C632 C634 1.391 . S
C633 C632 1.386 . S
C633 C637 1.393 . S
C634 H626 0.950 . S
C634 C632 1.391 . S
C634 C635 1.400 . S
C635 C634 1.400 . S
C635 C636 1.398 . S
C635 C641 1.491 . S
C636 H627 0.950 . S
C636 C635 1.398 . S
C636 C637 1.391 . S
C637 H625 0.950 . S
C637 C633 1.393 . S
C637 C636 1.391 . S
C638 H628 0.950 . S
C638 C639 1.386 . S
C638 C640 1.391 . S
C639 C638 1.386 . S
C639 C643 1.393 . S
C640 H629 0.950 . S
C640 C638 1.391 . S
C640 C641 1.400 . S
C641 C635 1.491 . S
C641 C640 1.400 . S
C641 C642 1.398 . S
C642 H630 0.950 . S
C642 C641 1.398 . S
C642 C643 1.391 . S
C643 H631 0.950 . S
C643 C639 1.393 . S
C643 C642 1.391 . S
H644 C652 0.950 . S
H645 C657 0.950 . S
H646 C654 0.950 . S
H647 C656 0.950 . S
H648 C658 0.950 . S
H649 C660 0.950 . S
H650 C662 0.950 . S
H651 C663 0.950 . S
C652 H644 0.950 . S
C652 C653 1.386 . S
C652 C654 1.391 . S
C653 C652 1.386 . S
C653 C657 1.393 . S
C654 H646 0.950 . S
C654 C652 1.391 . S
C654 C655 1.400 . S
C655 C654 1.400 . S
C655 C656 1.398 . S
C655 C661 1.491 . S
C656 H647 0.950 . S
C656 C655 1.398 . S
C656 C657 1.391 . S
C657 H645 0.950 . S
C657 C653 1.393 . S
C657 C656 1.391 . S
C658 H648 0.950 . S
C658 C659 1.386 . S
C658 C660 1.391 . S
C659 C658 1.386 . S
C659 C663 1.393 . S
C660 H649 0.950 . S
C660 C658 1.391 . S
C660 C661 1.400 . S
C661 C655 1.491 . S
C661 C660 1.400 . S
C661 C662 1.398 . S
C662 H650 0.950 . S
C662 C661 1.398 . S
C662 C663 1.391 . S
C663 H651 0.950 . S
C663 C659 1.393 . S
C663 C662 1.391 . S
H664 C672 0.950 . S
H665 C677 0.950 . S
H666 C674 0.950 . S
H667 C676 0.950 . S
H668 C678 0.950 . S
H669 C680 0.950 . S
H670 C682 0.950 . S
H671 C683 0.950 . S
C672 H664 0.950 . S
C672 C673 1.386 . S
C672 C674 1.391 . S
C673 C672 1.386 . S
C673 C677 1.393 . S
C674 H666 0.950 . S
C674 C672 1.391 . S
C674 C675 1.400 . S
C675 C674 1.400 . S
C675 C676 1.398 . S
C675 C681 1.491 . S
C676 H667 0.950 . S
C676 C675 1.398 . S
C676 C677 1.391 . S
C677 H665 0.950 . S
C677 C673 1.393 . S
C677 C676 1.391 . S
C678 H668 0.950 . S
C678 C679 1.386 . S
C678 C680 1.391 . S
C679 C678 1.386 . S
C679 C683 1.393 . S
C680 H669 0.950 . S
C680 C678 1.391 . S
C680 C681 1.400 . S
C681 C675 1.491 . S
C681 C680 1.400 . S
C681 C682 1.398 . S
C682 H670 0.950 . S
C682 C681 1.398 . S
C682 C683 1.391 . S
C683 H671 0.950 . S
C683 C679 1.393 . S
C683 C682 1.391 . S
H684 C692 0.950 . S
H685 C697 0.950 . S
H686 C694 0.950 . S
H687 C696 0.950 . S
H688 C698 0.950 . S
H689 C700 0.950 . S
H690 C702 0.950 . S
H691 C703 0.950 . S
C692 H684 0.950 . S
C692 C693 1.386 . S
C692 C694 1.391 . S
C693 C692 1.386 . S
C693 C697 1.393 . S
C694 H686 0.950 . S
C694 C692 1.391 . S
C694 C695 1.400 . S
C695 C694 1.400 . S
C695 C696 1.398 . S
C695 C701 1.491 . S
C696 H687 0.950 . S
C696 C695 1.398 . S
C696 C697 1.391 . S
C697 H685 0.950 . S
C697 C693 1.393 . S
C697 C696 1.391 . S
C698 H688 0.950 . S
C698 C699 1.386 . S
C698 C700 1.391 . S
C699 C698 1.386 . S
C699 C703 1.393 . S
C700 H689 0.950 . S
C700 C698 1.391 . S
C700 C701 1.400 . S
C701 C695 1.491 . S
C701 C700 1.400 . S
C701 C702 1.398 . S
C702 H690 0.950 . S
C702 C701 1.398 . S
C702 C703 1.391 . S
C703 H691 0.950 . S
C703 C699 1.393 . S
C703 C702 1.391 . S
H704 C712 0.950 . S
H705 C717 0.950 . S
H706 C714 0.950 . S
H707 C716 0.950 . S
H708 C718 0.950 . S
H709 C720 0.950 . S
H710 C722 0.950 . S
H711 C723 0.950 . S
C712 H704 0.950 . S
C712 C713 1.386 . S
C712 C714 1.391 . S
C713 C712 1.386 . S
C713 C717 1.393 . S
C714 H706 0.950 . S
C714 C712 1.391 . S
C714 C715 1.400 . S
C715 C714 1.400 . S
C715 C716 1.398 . S
C715 C721 1.491 . S
C716 H707 0.950 . S
C716 C715 1.398 . S
C716 C717 1.391 . S
C717 H705 0.950 . S
C717 C713 1.393 . S
C717 C716 1.391 . S
C718 H708 0.950 . S
C718 C719 1.386 . S
C718 C720 1.391 . S
C719 C718 1.386 . S
C719 C723 1.393 . S
C720 H709 0.950 . S
C720 C718 1.391 . S
C720 C721 1.400 . S
C721 C715 1.491 . S
C721 C720 1.400 . S
C721 C722 1.398 . S
C722 H710 0.950 . S
C722 C721 1.398 . S
C722 C723 1.391 . S
C723 H711 0.950 . S
C723 C719 1.393 . S
C723 C722 1.391 . S
H724 C732 0.950 . S
H725 C737 0.950 . S
H726 C734 0.950 . S
H727 C736 0.950 . S
H728 C738 0.950 . S
H729 C740 0.950 . S
H730 C742 0.950 . S
H731 C743 0.950 . S
C732 H724 0.950 . S
C732 C733 1.386 . S
C732 C734 1.391 . S
C733 C732 1.386 . S
C733 C737 1.393 . S
C734 H726 0.950 . S
C734 C732 1.391 . S
C734 C735 1.400 . S
C735 C734 1.400 . S
C735 C736 1.398 . S
C735 C741 1.491 . S
C736 H727 0.950 . S
C736 C735 1.398 . S
C736 C737 1.391 . S
C737 H725 0.950 . S
C737 C733 1.393 . S
C737 C736 1.391 . S
C738 H728 0.950 . S
C738 C739 1.386 . S
C738 C740 1.391 . S
C739 C738 1.386 . S
C739 C743 1.393 . S
C740 H729 0.950 . S
C740 C738 1.391 . S
C740 C741 1.400 . S
C741 C735 1.491 . S
C741 C740 1.400 . S
C741 C742 1.398 . S
C742 H730 0.950 . S
C742 C741 1.398 . S
C742 C743 1.391 . S
C743 H731 0.950 . S
C743 C739 1.393 . S
C743 C742 1.391 . S
C273 C9 1.442 . S
C279 C111 1.470 . S
C293 C21 1.124 . S
C299 C160 1.127 . S
C319 C186 2.184 . S
C313 C30 2.175 . S
C333 C43 2.175 . S
C339 C234 2.240 1_655 S
C359 C146 2.108 . S
C353 C4 1.860 . S
C379 C114 1.577 . S
C373 C22 1.622 . S
C399 C235 1.572 1_556 S
C393 C34 1.606 . S
C419 C203 1.513 . S
C413 C48 1.519 . S
C433 C8 1.569 . S
C439 C231 1.624 . S
C459 C163 2.279 . S
C453 C35 2.337 . S
C473 C47 2.554 . S
C479 C115 2.549 . S
C493 C17 0.905 . S
C499 C200 0.904 . S
C519 C120 1.036 . S
C513 C60 1.038 . S
C533 C74 1.119 . S
C539 C151 1.109 . S
C553 C82 1.893 . S
C559 C195 1.957 . S
C573 C100 2.744 . S
C579 C243 2.678 . S
C593 C61 2.438 . S
C599 C155 2.533 . S
C619 C123 0.814 . S
C613 C73 0.797 . S
C639 C226 2.139 . S
C633 C87 2.178 . S
C659 C194 1.296 . S
C653 C95 1.295 . S
C673 C56 1.522 . S
C679 C240 1.519 . S
C699 C154 2.472 . S
C693 C86 2.522 . S
C719 C106 2.344 . S
C713 C99 2.346 . S
C733 C69 0.717 . S
C739 C191 0.750 . S
