# Generated by pormake.
# Topology ptr, (4,4)-cn, num edge types: 1
# Building blocks:
#     Node 0, Type 0, BuildingBlock: GALJAG_clean_sbu_0, # of connection points: 4
#     Node 1, Type 0, BuildingBlock: GALJAG_clean_sbu_0, # of connection points: 4
#     Node 2, Type 0, BuildingBlock: GALJAG_clean_sbu_0, # of connection points: 4
#     Node 3, Type 0, BuildingBlock: GALJAG_clean_sbu_0, # of connection points: 4
#     Node 4, Type 0, BuildingBlock: GALJAG_clean_sbu_0, # of connection points: 4
#     Node 5, Type 0, BuildingBlock: GALJAG_clean_sbu_0, # of connection points: 4
#     Node 6, Type 0, BuildingBlock: GALJAG_clean_sbu_0, # of connection points: 4
#     Node 7, Type 0, BuildingBlock: GALJAG_clean_sbu_0, # of connection points: 4
#     Node 8, Type 0, BuildingBlock: GALJAG_clean_sbu_0, # of connection points: 4
#     Node 9, Type 0, BuildingBlock: GALJAG_clean_sbu_0, # of connection points: 4
#     Node 10, Type 0, BuildingBlock: GALJAG_clean_sbu_0, # of connection points: 4
#     Node 11, Type 0, BuildingBlock: GALJAG_clean_sbu_0, # of connection points: 4
#     Node 12, Type 0, BuildingBlock: GALJAG_clean_sbu_0, # of connection points: 4
#     Node 13, Type 0, BuildingBlock: GALJAG_clean_sbu_0, # of connection points: 4
#     Node 14, Type 0, BuildingBlock: GALJAG_clean_sbu_0, # of connection points: 4
#     Node 15, Type 0, BuildingBlock: GALJAG_clean_sbu_0, # of connection points: 4
#     Node 16, Type 0, BuildingBlock: GALJAG_clean_sbu_0, # of connection points: 4
#     Node 17, Type 0, BuildingBlock: GALJAG_clean_sbu_0, # of connection points: 4
#     Node 18, Type 1, BuildingBlock: GIZVER_clean_linker_0, # of connection points: 4
#     Node 19, Type 1, BuildingBlock: GIZVER_clean_linker_0, # of connection points: 4
#     Node 20, Type 1, BuildingBlock: GIZVER_clean_linker_0, # of connection points: 4
#     Node 21, Type 1, BuildingBlock: GIZVER_clean_linker_0, # of connection points: 4
#     Node 22, Type 1, BuildingBlock: GIZVER_clean_linker_0, # of connection points: 4
#     Node 23, Type 1, BuildingBlock: GIZVER_clean_linker_0, # of connection points: 4
#     Node 24, Type 1, BuildingBlock: GIZVER_clean_linker_0, # of connection points: 4
#     Node 25, Type 1, BuildingBlock: GIZVER_clean_linker_0, # of connection points: 4
#     Node 26, Type 1, BuildingBlock: GIZVER_clean_linker_0, # of connection points: 4
#     Node 27, Type 1, BuildingBlock: GIZVER_clean_linker_0, # of connection points: 4
#     Node 28, Type 1, BuildingBlock: GIZVER_clean_linker_0, # of connection points: 4
#     Node 29, Type 1, BuildingBlock: GIZVER_clean_linker_0, # of connection points: 4
#     Node 30, Type 1, BuildingBlock: GIZVER_clean_linker_0, # of connection points: 4
#     Node 31, Type 1, BuildingBlock: GIZVER_clean_linker_0, # of connection points: 4
#     Node 32, Type 1, BuildingBlock: GIZVER_clean_linker_0, # of connection points: 4
#     Node 33, Type 1, BuildingBlock: GIZVER_clean_linker_0, # of connection points: 4
#     Node 34, Type 1, BuildingBlock: GIZVER_clean_linker_0, # of connection points: 4
#     Node 35, Type 1, BuildingBlock: GIZVER_clean_linker_0, # of connection points: 4
#     Edge 36, Type (0, 1), BuildingBlock: EZIPEK_clean_linker_0, # of connection points: 2
#     Edge 37, Type (0, 1), BuildingBlock: EZIPEK_clean_linker_0, # of connection points: 2
#     Edge 38, Type (0, 1), BuildingBlock: EZIPEK_clean_linker_0, # of connection points: 2
#     Edge 39, Type (0, 1), BuildingBlock: EZIPEK_clean_linker_0, # of connection points: 2
#     Edge 40, Type (0, 1), BuildingBlock: EZIPEK_clean_linker_0, # of connection points: 2
#     Edge 41, Type (0, 1), BuildingBlock: EZIPEK_clean_linker_0, # of connection points: 2
#     Edge 42, Type (0, 1), BuildingBlock: EZIPEK_clean_linker_0, # of connection points: 2
#     Edge 43, Type (0, 1), BuildingBlock: EZIPEK_clean_linker_0, # of connection points: 2
#     Edge 44, Type (0, 1), BuildingBlock: EZIPEK_clean_linker_0, # of connection points: 2
#     Edge 45, Type (0, 1), BuildingBlock: EZIPEK_clean_linker_0, # of connection points: 2
#     Edge 46, Type (0, 1), BuildingBlock: EZIPEK_clean_linker_0, # of connection points: 2
#     Edge 47, Type (0, 1), BuildingBlock: EZIPEK_clean_linker_0, # of connection points: 2
#     Edge 48, Type (0, 1), BuildingBlock: EZIPEK_clean_linker_0, # of connection points: 2
#     Edge 49, Type (0, 1), BuildingBlock: EZIPEK_clean_linker_0, # of connection points: 2
#     Edge 50, Type (0, 1), BuildingBlock: EZIPEK_clean_linker_0, # of connection points: 2
#     Edge 51, Type (0, 1), BuildingBlock: EZIPEK_clean_linker_0, # of connection points: 2
#     Edge 52, Type (0, 1), BuildingBlock: EZIPEK_clean_linker_0, # of connection points: 2
#     Edge 53, Type (0, 1), BuildingBlock: EZIPEK_clean_linker_0, # of connection points: 2
#     Edge 54, Type (0, 1), BuildingBlock: EZIPEK_clean_linker_0, # of connection points: 2
#     Edge 55, Type (0, 1), BuildingBlock: EZIPEK_clean_linker_0, # of connection points: 2
#     Edge 56, Type (0, 1), BuildingBlock: EZIPEK_clean_linker_0, # of connection points: 2
#     Edge 57, Type (0, 1), BuildingBlock: EZIPEK_clean_linker_0, # of connection points: 2
#     Edge 58, Type (0, 1), BuildingBlock: EZIPEK_clean_linker_0, # of connection points: 2
#     Edge 59, Type (0, 1), BuildingBlock: EZIPEK_clean_linker_0, # of connection points: 2
#     Edge 60, Type (0, 1), BuildingBlock: EZIPEK_clean_linker_0, # of connection points: 2
#     Edge 61, Type (0, 1), BuildingBlock: EZIPEK_clean_linker_0, # of connection points: 2
#     Edge 62, Type (0, 1), BuildingBlock: EZIPEK_clean_linker_0, # of connection points: 2
#     Edge 63, Type (0, 1), BuildingBlock: EZIPEK_clean_linker_0, # of connection points: 2
#     Edge 64, Type (0, 1), BuildingBlock: EZIPEK_clean_linker_0, # of connection points: 2
#     Edge 65, Type (0, 1), BuildingBlock: EZIPEK_clean_linker_0, # of connection points: 2
#     Edge 66, Type (0, 1), BuildingBlock: EZIPEK_clean_linker_0, # of connection points: 2
#     Edge 67, Type (0, 1), BuildingBlock: EZIPEK_clean_linker_0, # of connection points: 2
#     Edge 68, Type (0, 1), BuildingBlock: EZIPEK_clean_linker_0, # of connection points: 2
#     Edge 69, Type (0, 1), BuildingBlock: EZIPEK_clean_linker_0, # of connection points: 2
#     Edge 70, Type (0, 1), BuildingBlock: EZIPEK_clean_linker_0, # of connection points: 2
#     Edge 71, Type (0, 1), BuildingBlock: EZIPEK_clean_linker_0, # of connection points: 2
#     Edge 72, Type (0, 1), BuildingBlock: EZIPEK_clean_linker_0, # of connection points: 2
#     Edge 73, Type (0, 1), BuildingBlock: EZIPEK_clean_linker_0, # of connection points: 2
#     Edge 74, Type (0, 1), BuildingBlock: EZIPEK_clean_linker_0, # of connection points: 2
#     Edge 75, Type (0, 1), BuildingBlock: EZIPEK_clean_linker_0, # of connection points: 2
#     Edge 76, Type (0, 1), BuildingBlock: EZIPEK_clean_linker_0, # of connection points: 2
#     Edge 77, Type (0, 1), BuildingBlock: EZIPEK_clean_linker_0, # of connection points: 2
#     Edge 78, Type (0, 1), BuildingBlock: EZIPEK_clean_linker_0, # of connection points: 2
#     Edge 79, Type (0, 1), BuildingBlock: EZIPEK_clean_linker_0, # of connection points: 2
#     Edge 80, Type (0, 1), BuildingBlock: EZIPEK_clean_linker_0, # of connection points: 2
#     Edge 81, Type (0, 1), BuildingBlock: EZIPEK_clean_linker_0, # of connection points: 2
#     Edge 82, Type (0, 1), BuildingBlock: EZIPEK_clean_linker_0, # of connection points: 2
#     Edge 83, Type (0, 1), BuildingBlock: EZIPEK_clean_linker_0, # of connection points: 2
#     Edge 84, Type (0, 1), BuildingBlock: EZIPEK_clean_linker_0, # of connection points: 2
#     Edge 85, Type (0, 1), BuildingBlock: EZIPEK_clean_linker_0, # of connection points: 2
#     Edge 86, Type (0, 1), BuildingBlock: EZIPEK_clean_linker_0, # of connection points: 2
#     Edge 87, Type (0, 1), BuildingBlock: EZIPEK_clean_linker_0, # of connection points: 2
#     Edge 88, Type (0, 1), BuildingBlock: EZIPEK_clean_linker_0, # of connection points: 2
#     Edge 89, Type (0, 1), BuildingBlock: EZIPEK_clean_linker_0, # of connection points: 2
#     Edge 90, Type (0, 1), BuildingBlock: EZIPEK_clean_linker_0, # of connection points: 2
#     Edge 91, Type (0, 1), BuildingBlock: EZIPEK_clean_linker_0, # of connection points: 2
#     Edge 92, Type (0, 1), BuildingBlock: EZIPEK_clean_linker_0, # of connection points: 2
#     Edge 93, Type (0, 1), BuildingBlock: EZIPEK_clean_linker_0, # of connection points: 2
#     Edge 94, Type (0, 1), BuildingBlock: EZIPEK_clean_linker_0, # of connection points: 2
#     Edge 95, Type (0, 1), BuildingBlock: EZIPEK_clean_linker_0, # of connection points: 2
#     Edge 96, Type (0, 1), BuildingBlock: EZIPEK_clean_linker_0, # of connection points: 2
#     Edge 97, Type (0, 1), BuildingBlock: EZIPEK_clean_linker_0, # of connection points: 2
#     Edge 98, Type (0, 1), BuildingBlock: EZIPEK_clean_linker_0, # of connection points: 2
#     Edge 99, Type (0, 1), BuildingBlock: EZIPEK_clean_linker_0, # of connection points: 2
#     Edge 100, Type (0, 1), BuildingBlock: EZIPEK_clean_linker_0, # of connection points: 2
#     Edge 101, Type (0, 1), BuildingBlock: EZIPEK_clean_linker_0, # of connection points: 2
#     Edge 102, Type (0, 1), BuildingBlock: EZIPEK_clean_linker_0, # of connection points: 2
#     Edge 103, Type (0, 1), BuildingBlock: EZIPEK_clean_linker_0, # of connection points: 2
#     Edge 104, Type (0, 1), BuildingBlock: EZIPEK_clean_linker_0, # of connection points: 2
#     Edge 105, Type (0, 1), BuildingBlock: EZIPEK_clean_linker_0, # of connection points: 2
#     Edge 106, Type (0, 1), BuildingBlock: EZIPEK_clean_linker_0, # of connection points: 2
#     Edge 107, Type (0, 1), BuildingBlock: EZIPEK_clean_linker_0, # of connection points: 2
# Relax obj value: 0.069
# Max RMSD: 0.094
# Mean RMSD: 0.093
data_MOF--net-ptr--node1-GALJAG_clean_sbu_0--node2-GIZVER_clean_linker_0--edge1-EZIPEK_clean_linker_0
_symmetry_space_group_name_H-M    P1
_symmetry_Int_Tables_number       1
_symmetry_cell_setting            triclinic
loop_
_symmetry_equiv_pos_as_xyz
'x, y, z'
_cell_length_a     58.596602
_cell_length_b     58.631358
_cell_length_c     37.910569
_cell_angle_alpha  90.351165
_cell_angle_beta   90.382949
_cell_angle_gamma 120.1176
loop_
_atom_site_label
_atom_site_type_symbol
_atom_site_fract_x
_atom_site_fract_y
_atom_site_fract_z
_atom_type_partial_charge
In0 In 0.01798 0.38424 0.01344 0.0
O1 O 0.00341 0.39319 0.06476 0.0
O2 O 0.04065 0.42234 0.04552 0.0
C3 C 0.97454 0.33741 -0.00173 0.0
C4 C 0.05319 0.3687 0.0282 0.0
C5 C 0.02123 0.41374 0.95714 0.0
O6 O 0.97441 0.35319 0.02098 0.0
O7 O 0.99643 0.34514 0.98351 0.0
O8 O 0.04091 0.41331 0.96994 0.0
O9 O 0.99986 0.39957 0.97297 0.0
C10 C 0.02363 0.41556 0.0693 0.0
O11 O 0.05419 0.38063 0.0002 0.0
O12 O 0.03451 0.36439 0.04844 0.0
In13 In 0.63301 0.63931 0.01728 0.0
O14 O 0.6203 0.60217 0.04985 0.0
O15 O 0.60801 0.6289 0.06685 0.0
C16 C 0.68194 0.64744 0.00674 0.0
C17 C 0.64168 0.68871 0.02608 0.0
C18 C 0.60288 0.61112 0.96173 0.0
O19 O 0.66942 0.63708 0.03463 0.0
O20 O 0.67029 0.65451 0.98511 0.0
O21 O 0.59368 0.61858 0.98632 0.0
O22 O 0.62687 0.61808 0.96511 0.0
C23 C 0.60779 0.60759 0.07209 0.0
O24 O 0.62654 0.67355 0.00211 0.0
O25 O 0.65246 0.67913 0.04506 0.0
In26 In 0.37798 0.00693 0.00604 0.0
O27 O 0.39166 0.05089 0.01185 0.0
O28 O 0.36418 0.02883 0.97076 0.0
C29 C 0.40448 0.0054 0.06351 0.0
C30 C 0.40277 0.00263 0.94922 0.0
C31 C 0.3291 0.96881 0.02494 0.0
O32 O 0.39275 0.01851 0.06295 0.0
O33 O 0.40387 0.9942 0.0348 0.0
O34 O 0.34542 0.96369 0.01071 0.0
O35 O 0.33709 0.99299 0.02896 0.0
C36 C 0.37805 0.05088 0.98584 0.0
O37 O 0.37803 0.98875 0.95267 0.0
O38 O 0.41485 0.01835 0.97447 0.0
In39 In 0.00418 0.62903 0.01686 0.0
O40 O 0.03042 0.62258 0.97905 0.0
O41 O 0.98882 0.601 0.96967 0.0
C42 C 0.04442 0.67789 0.0322 0.0
C43 C 0.96189 0.6331 -0.0016 0.0
C44 C 0.00297 0.59966 0.07232 0.0
O45 O 0.04451 0.66512 0.00538 0.0
O46 O 0.02405 0.66638 0.05077 0.0
O47 O 0.99798 0.61809 0.07527 0.0
O48 O 0.00755 0.59528 0.04143 0.0
C49 C 0.01146 0.60611 0.95992 0.0
O50 O 0.96015 0.61547 0.01899 0.0
O51 O 0.98483 0.64882 0.98777 0.0
In52 In 0.37787 0.3765 0.02055 0.0
O53 O 0.38325 0.39917 0.96926 0.0
O54 O 0.41627 0.39779 0.99014 0.0
C55 C 0.32801 0.36427 0.03552 0.0
C56 C 0.37261 0.32957 0.00224 0.0
C57 C 0.40543 0.40483 0.07787 0.0
O58 O 0.34196 0.38191 0.0137 0.0
O59 O 0.33901 0.35265 0.04931 0.0
O60 O 0.40655 0.38524 0.06626 0.0
O61 O 0.39054 0.41045 0.06041 0.0
C62 C 0.40705 0.40535 0.96572 0.0
O63 O 0.38259 0.34072 0.03139 0.0
O64 O 0.3643 0.34141 0.98306 0.0
In65 In 0.6321 0.00902 0.01185 0.0
O66 O 0.60954 0.02496 0.04354 0.0
O67 O 0.61097 0.99198 0.06339 0.0
C68 C 0.67981 0.0524 0.00226 0.0
C69 C 0.64597 0.9721 0.02214 0.0
C70 C 0.60038 1.00051 0.95526 0.0
O71 O 0.6647 0.0512 0.02669 0.0
O72 O 0.67102 0.03193 0.98327 0.0
O73 O 0.59639 0.98251 0.97662 0.0
O74 O 0.62016 0.02268 0.96242 0.0
C75 C 0.60279 0.00796 0.0674 0.0
O76 O 0.63136 0.97072 0.99659 0.0
O77 O 0.65402 0.99224 0.04171 0.0
In78 In 0.68069 0.71948 0.33688 0.0
O79 O 0.66621 0.72818 0.38851 0.0
O80 O 0.70269 0.75797 0.36811 0.0
C81 C 0.63788 0.6721 0.32237 0.0
C82 C 0.71637 0.70488 0.35337 0.0
C83 C 0.68406 0.74852 0.27992 0.0
O84 O 0.63698 0.68845 0.34334 0.0
O85 O 0.66013 0.67965 0.3088 0.0
O86 O 0.70369 0.74814 0.29301 0.0
O87 O 0.66263 0.73441 0.29567 0.0
C88 C 0.68608 0.75088 0.39246 0.0
O89 O 0.71735 0.71629 0.32486 0.0
O90 O 0.69745 0.70057 0.37314 0.0
In91 In 0.29746 0.97169 0.35113 0.0
O92 O 0.2855 0.93486 0.38419 0.0
O93 O 0.27244 0.96106 0.40072 0.0
C94 C 0.34557 0.97869 0.33749 0.0
C95 C 0.3085 0.0216 0.36341 0.0
C96 C 0.26625 0.9448 0.29538 0.0
O97 O 0.33324 0.96745 0.36516 0.0
O98 O 0.33417 0.9872 0.31768 0.0
O99 O 0.2578 0.95259 0.32052 0.0
O100 O 0.28997 0.95071 0.29843 0.0
C101 C 0.27284 0.94011 0.4064 0.0
O102 O 0.29256 0.00744 0.33938 0.0
O103 O 0.3189 0.0108 0.38063 0.0
In104 In 0.04156 0.33571 0.34156 0.0
O105 O 0.02702 0.36424 0.35687 0.0
O106 O 0.05251 0.37369 0.31299 0.0
C107 C 0.06787 0.33892 0.4015 0.0
C108 C 0.06788 0.32997 0.28721 0.0
C109 C 0.9926 0.2937 0.35052 0.0
O110 O 0.06299 0.35683 0.39291 0.0
O111 O 0.05994 0.31999 0.37985 0.0
O112 O 0.01271 0.29739 0.36737 0.0
O113 O 0.99706 0.31071 0.32731 0.0
C114 C 0.03889 0.3799 0.33204 0.0
O115 O 0.04306 0.31929 0.28725 0.0
O116 O 0.07931 0.34317 0.31461 0.0
In117 In 0.67334 0.96785 0.34091 0.0
O118 O 0.68647 0.96536 0.28545 0.0
O119 O 0.66087 0.92926 0.31087 0.0
C120 C 0.7137 0.01586 0.35876 0.0
C121 C 0.63045 0.97214 0.3271 0.0
C122 C 0.67871 0.94308 0.39704 0.0
O123 O 0.69186 0.00544 0.37436 0.0
O124 O 0.71484 0.00272 0.33307 0.0
O125 O 0.65871 0.9456 0.39271 0.0
O126 O 0.69559 0.95251 0.37293 0.0
C127 C 0.67385 0.94054 0.28372 0.0
O128 O 0.63011 0.95591 0.34905 0.0
O129 O 0.65243 0.98658 0.31289 0.0
In130 In 0.04112 0.71611 0.35274 0.0
O131 O 0.0477 0.73152 0.2962 0.0
O132 O 0.08139 0.74291 0.32885 0.0
C133 C 0.99261 0.7079 0.36778 0.0
C134 C 0.03618 0.66911 0.33492 0.0
C135 C 0.067 0.74409 0.41052 0.0
O136 O 0.00735 0.72516 0.34597 0.0
O137 O 0.0022 0.69494 0.38135 0.0
O138 O 0.05934 0.71982 0.40706 0.0
O139 O 0.0613 0.75415 0.38502 0.0
C140 C 0.07258 0.74359 0.29876 0.0
O141 O 0.05218 0.68388 0.3585 0.0
O142 O 0.02267 0.67784 0.32067 0.0
In143 In 0.30334 0.34309 0.34954 0.0
O144 O 0.30237 0.30471 0.33445 0.0
O145 O 0.32467 0.32589 0.37996 0.0
C146 C 0.27089 0.33313 0.29357 0.0
C147 C 0.27378 0.3431 0.40411 0.0
C148 C 0.35102 0.38617 0.3384 0.0
O149 O 0.26725 0.31571 0.31573 0.0
O150 O 0.29074 0.35551 0.29959 0.0
O151 O 0.33644 0.38535 0.36333 0.0
O152 O 0.34174 0.36551 0.31975 0.0
C153 C 0.31668 0.30584 0.36022 0.0
O154 O 0.28013 0.35924 0.3792 0.0
O155 O 0.2828 0.32768 0.40189 0.0
In156 In 0.34219 0.04971 0.67726 0.0
O157 O 0.3807 0.05039 0.66429 0.0
O158 O 0.36003 0.03005 0.71028 0.0
C159 C 0.34954 0.08142 0.62178 0.0
C160 C 0.33788 0.07761 0.73129 0.0
C161 C 0.30125 1.00087 0.66401 0.0
O162 O 0.3678 0.08573 0.64327 0.0
O163 O 0.32763 0.06135 0.62826 0.0
O164 O 0.30174 0.01429 0.69046 0.0
O165 O 0.32126 0.01185 0.64461 0.0
C166 C 0.37978 0.03707 0.69079 0.0
O167 O 0.31893 0.06358 0.71066 0.0
O168 O 0.35894 0.07762 0.72491 0.0
In169 In 0.96417 0.30258 0.6858 0.0
O170 O 0.95506 0.33611 0.67828 0.0
O171 O 0.98587 0.34227 0.71383 0.0
C172 C 0.94062 0.2737 0.62752 0.0
C173 C 0.93394 0.27476 0.74051 0.0
C174 C 0.01199 0.3088 0.67192 0.0
O175 O 0.94409 0.29659 0.63201 0.0
O176 O 0.94838 0.26517 0.65262 0.0
O177 O 0.99848 0.29557 0.69777 0.0
O178 O 0.00187 0.31957 0.65394 0.0
C179 C 0.97267 0.35145 0.69985 0.0
O180 O 0.95861 0.28447 0.7402 0.0
O181 O 0.9243 0.27885 0.71308 0.0
In182 In 0.71249 0.67574 0.67892 0.0
O183 O 0.72475 0.71901 0.68897 0.0
O184 O 0.69881 0.69894 0.64582 0.0
C185 C 0.73955 0.67584 0.73667 0.0
C186 C 0.73662 0.67199 0.621 0.0
C187 C 0.66539 0.63362 0.69538 0.0
O188 O 0.72146 0.6815 0.73804 0.0
O189 O 0.74473 0.67122 0.70619 0.0
O190 O 0.68384 0.63132 0.68216 0.0
O191 O 0.67018 0.657 0.69879 0.0
C192 C 0.71192 0.7202 0.66291 0.0
O193 O 0.7119 0.65833 0.62472 0.0
O194 O 0.74904 0.68729 0.64648 0.0
In195 In 0.34085 0.30608 0.67279 0.0
O196 O 0.35551 0.30154 0.61946 0.0
O197 O 0.32645 0.26663 0.64439 0.0
C198 C 0.37858 0.35567 0.6887 0.0
C199 C 0.29673 0.30831 0.66014 0.0
C200 C 0.35141 0.28345 0.72688 0.0
O201 O 0.37847 0.34451 0.66012 0.0
O202 O 0.35901 0.34245 0.70821 0.0
O203 O 0.32974 0.28311 0.72412 0.0
O204 O 0.36737 0.29455 0.70209 0.0
C205 C 0.34111 0.27679 0.61812 0.0
O206 O 0.29863 0.29581 0.68586 0.0
O207 O 0.31704 0.32 0.64149 0.0
In208 In 0.71109 0.04641 0.68679 0.0
O209 O 0.71796 0.06736 0.63373 0.0
O210 O 0.75083 0.06854 0.65961 0.0
C211 C 0.66161 0.03648 0.69939 0.0
C212 C 0.70436 0.99868 0.66992 0.0
C213 C 0.73803 0.07379 0.74486 0.0
O214 O 0.67704 0.05475 0.67925 0.0
O215 O 0.67096 0.02314 0.71254 0.0
O216 O 0.73926 0.05435 0.73284 0.0
O217 O 0.72338 0.07974 0.7274 0.0
C218 C 0.74218 0.07457 0.6329 0.0
O219 O 0.71222 0.00893 0.70012 0.0
O220 O 0.69901 0.01191 0.64884 0.0
In221 In 0.96584 0.67066 0.68176 0.0
O222 O 0.97305 0.63656 0.66835 0.0
O223 O 0.97973 0.65106 0.72121 0.0
C224 C 0.9329 0.66218 0.62668 0.0
C225 C 0.93606 0.67221 0.73483 0.0
C226 C 0.01471 0.71112 0.66749 0.0
O227 O 0.93322 0.64354 0.64272 0.0
O228 O 0.94874 0.68486 0.63876 0.0
O229 O 0.00374 0.70941 0.6967 0.0
O230 O 1.00112 0.69272 0.64591 0.0
C231 C 0.97995 0.63484 0.69941 0.0
O232 O 0.95123 0.69251 0.71746 0.0
O233 O 0.93577 0.6515 0.72498 0.0
H234 H 0.13764 0.30357 0.17205 0.0
H235 H 0.13695 0.32219 0.06205 0.0
H236 H 0.09595 0.34238 0.13836 0.0
H237 H 0.1447 0.2782 0.12072 0.0
H238 H 0.15232 0.2927 0.07816 0.0
H239 H 0.17604 0.30318 0.17308 0.0
H240 H 0.25732 0.34184 0.14379 0.0
H241 H 0.19768 0.32178 0.06388 0.0
C242 C 0.13245 0.3127 0.15119 0.0
C243 C 0.11674 0.32381 0.15918 0.0
C244 C 0.1403 0.31233 0.11618 0.0
C245 C 0.1319 0.32308 0.08927 0.0
C246 C 0.1157 0.33368 0.09732 0.0
C247 C 0.10861 0.33433 0.13223 0.0
C248 C 0.15441 0.29744 0.10689 0.0
C249 C 0.18333 0.31205 0.11744 0.0
C250 C 0.19082 0.31247 0.15296 0.0
C251 C 0.21749 0.32362 0.16242 0.0
C252 C 0.23676 0.33404 0.13647 0.0
C253 C 0.22977 0.33322 0.101 0.0
C254 C 0.20308 0.32276 0.09148 0.0
H255 H 0.70589 0.8401 0.16123 0.0
H256 H 0.6807 0.81888 0.05279 0.0
H257 H 0.66298 0.75883 0.12951 0.0
H258 H 0.72713 0.87195 0.11076 0.0
H259 H 0.71238 0.86382 0.06785 0.0
H260 H 0.69756 0.87398 0.16225 0.0
H261 H 0.66346 0.92039 0.13029 0.0
H262 H 0.68712 0.88365 0.0515 0.0
C263 C 0.69479 0.82536 0.14115 0.0
C264 C 0.68329 0.7986 0.14968 0.0
C265 C 0.69314 0.83297 0.10641 0.0
C266 C 0.68075 0.81337 0.08002 0.0
C267 C 0.67036 0.78667 0.08833 0.0
C268 C 0.67078 0.77946 0.12326 0.0
C269 C 0.70783 0.86181 0.09649 0.0
C270 C 0.69295 0.87591 0.10576 0.0
C271 C 0.69022 0.88111 0.14132 0.0
C272 C 0.67949 0.89701 0.1501 0.0
C273 C 0.67118 0.90757 0.12341 0.0
C274 C 0.6739 0.90286 0.08793 0.0
C275 C 0.68448 0.88674 0.07903 0.0
H276 H 0.1658 0.81089 0.18424 0.0
H277 H 0.15591 0.79237 0.07285 0.0
H278 H 0.09195 0.74954 0.14423 0.0
H279 H 0.20356 0.81628 0.14275 0.0
H280 H 0.19901 0.81688 0.09654 0.0
H281 H 0.19566 0.85135 0.18054 0.0
H282 H 0.25264 0.9268 0.14213 0.0
H283 H 0.22314 0.85916 0.07371 0.0
C284 C 0.15345 0.80099 0.16156 0.0
C285 C 0.12728 0.78134 0.16745 0.0
C286 C 0.16409 0.80558 0.12739 0.0
C287 C 0.14783 0.79008 0.09908 0.0
C288 C 0.12205 0.76943 0.10532 0.0
C289 C 0.11176 0.76562 0.13932 0.0
C290 C 0.19368 0.82199 0.12234 0.0
C291 C 0.20536 0.85164 0.12541 0.0
C292 C 0.2059 0.86332 0.15824 0.0
C293 C 0.22305 0.89031 0.16436 0.0
C294 C 0.23845 0.90619 0.13686 0.0
C295 C 0.23852 0.89504 0.10413 0.0
C296 C 0.22167 0.86789 0.09825 0.0
H297 H 0.38978 0.22213 0.83385 0.0
H298 H 0.3892 0.22793 0.94737 0.0
H299 H 0.36411 0.27134 0.88244 0.0
H300 H 0.41793 0.2114 0.87269 0.0
H301 H 0.4142 0.21037 0.91941 0.0
H302 H 0.37171 0.17839 0.83899 0.0
H303 H 0.348 0.1003 0.87537 0.0
H304 H 0.39666 0.16745 0.94022 0.0
C305 C 0.38476 0.2289 0.85761 0.0
C306 C 0.37468 0.24598 0.85461 0.0
C307 C 0.3894 0.22158 0.89103 0.0
C308 C 0.38462 0.23242 0.92149 0.0
C309 C 0.37634 0.25107 0.91833 0.0
C310 C 0.37063 0.25706 0.88494 0.0
C311 C 0.40309 0.20559 0.89395 0.0
C312 C 0.38445 0.17609 0.89053 0.0
C313 C 0.36989 0.16502 0.85913 0.0
C314 C 0.35489 0.13742 0.85353 0.0
C315 C 0.35685 0.12136 0.87963 0.0
C316 C 0.37163 0.13206 0.91063 0.0
C317 C 0.38477 0.15931 0.91649 0.0
H318 H 0.86093 0.18724 0.86242 0.0
H319 H 0.87427 0.21154 0.97203 0.0
H320 H 0.91315 0.26808 0.89024 0.0
H321 H 0.85895 0.15703 0.91681 0.0
H322 H 0.8521 0.16583 0.95865 0.0
H323 H 0.8267 0.14682 0.86511 0.0
H324 H 0.74614 0.1056 0.89735 0.0
H325 H 0.80722 0.15011 0.97391 0.0
C326 C 0.86919 0.20241 0.88259 0.0
C327 C 0.88662 0.22843 0.87243 0.0
C328 C 0.86421 0.19594 0.91857 0.0
C329 C 0.87694 0.21619 0.94421 0.0
C330 C 0.89476 0.24218 0.93395 0.0
C331 C 0.89906 0.24813 0.89815 0.0
C332 C 0.84958 0.1673 0.92979 0.0
C333 C 0.82046 0.15251 0.92005 0.0
C334 C 0.81231 0.14297 0.88531 0.0
C335 C 0.78548 0.12669 0.87695 0.0
C336 C 0.76674 0.11929 0.90353 0.0
C337 C 0.77449 0.12705 0.93853 0.0
C338 C 0.80124 0.14449 0.94665 0.0
H339 H 0.84118 0.64915 0.84837 0.0
H340 H 0.84964 0.63204 0.95671 0.0
H341 H 0.91475 0.65936 0.88591 0.0
H342 H 0.80328 0.61085 0.8872 0.0
H343 H 0.80688 0.61505 0.93358 0.0
H344 H 0.80334 0.64758 0.84975 0.0
H345 H 0.75148 0.67035 0.89608 0.0
H346 H 0.78846 0.63825 0.96141 0.0
C347 C 0.85319 0.64956 0.87031 0.0
C348 C 0.87947 0.65652 0.8638 0.0
C349 C 0.84201 0.64059 0.90383 0.0
C350 C 0.85803 0.63984 0.93116 0.0
C351 C 0.88415 0.64642 0.92456 0.0
C352 C 0.89478 0.65502 0.89114 0.0
C353 C 0.81232 0.62613 0.9084 0.0
C354 C 0.79971 0.64319 0.90642 0.0
C355 C 0.7956 0.65142 0.8734 0.0
C356 C 0.77867 0.66168 0.86982 0.0
C357 C 0.76579 0.66392 0.89935 0.0
C358 C 0.76912 0.65534 0.93233 0.0
C359 C 0.78682 0.64588 0.93614 0.0
H360 H 0.80551 0.6482 0.50411 0.0
H361 H 0.80127 0.66113 0.39277 0.0
H362 H 0.7607 0.68308 0.46744 0.0
H363 H 0.80988 0.61958 0.45333 0.0
H364 H 0.81871 0.63396 0.41085 0.0
H365 H 0.84061 0.63995 0.50527 0.0
H366 H 0.92253 0.68208 0.47832 0.0
H367 H 0.8639 0.66714 0.39887 0.0
C368 C 0.79926 0.6559 0.48258 0.0
C369 C 0.78293 0.66647 0.48971 0.0
C370 C 0.80618 0.65396 0.44762 0.0
C371 C 0.79679 0.66313 0.41991 0.0
C372 C 0.78036 0.6736 0.42714 0.0
C373 C 0.77375 0.67539 0.46196 0.0
C374 C 0.82018 0.6388 0.43951 0.0
C375 C 0.84884 0.65316 0.45115 0.0
C376 C 0.85579 0.65101 0.48615 0.0
C377 C 0.88238 0.66189 0.49611 0.0
C378 C 0.90204 0.67465 0.47095 0.0
C379 C 0.89551 0.67629 0.4359 0.0
C380 C 0.86895 0.66626 0.42619 0.0
H381 H 0.37504 0.17409 0.50228 0.0
H382 H 0.3506 0.15135 0.39389 0.0
H383 H 0.33403 0.09247 0.47212 0.0
H384 H 0.39641 0.2055 0.45123 0.0
H385 H 0.38198 0.19662 0.40817 0.0
H386 H 0.3653 0.20675 0.50176 0.0
H387 H 0.33227 0.25348 0.46711 0.0
H388 H 0.3572 0.21656 0.39034 0.0
C389 C 0.36446 0.15908 0.4823 0.0
C390 C 0.35343 0.13248 0.49138 0.0
C391 C 0.36293 0.16618 0.44724 0.0
C392 C 0.35088 0.14621 0.42124 0.0
C393 C 0.34084 0.11967 0.43018 0.0
C394 C 0.34161 0.11297 0.4653 0.0
C395 C 0.37722 0.1949 0.43675 0.0
C396 C 0.36188 0.20871 0.44501 0.0
C397 C 0.35841 0.21387 0.48032 0.0
C398 C 0.3477 0.22994 0.48823 0.0
C399 C 0.33999 0.24054 0.46091 0.0
C400 C 0.34332 0.23578 0.42572 0.0
C401 C 0.35399 0.21961 0.41767 0.0
H402 H 0.83802 0.13929 0.52022 0.0
H403 H 0.82761 0.12224 0.40852 0.0
H404 H 0.76162 0.08436 0.47806 0.0
H405 H 0.87394 0.14037 0.48066 0.0
H406 H 0.87039 0.14023 0.43411 0.0
H407 H 0.87766 0.17898 0.51708 0.0
H408 H 0.92869 0.2522 0.46649 0.0
H409 H 0.88735 0.18112 0.40426 0.0
C410 C 0.8253 0.1303 0.49743 0.0
C411 C 0.79828 0.11296 0.50252 0.0
C412 C 0.83614 0.13392 0.46346 0.0
C413 C 0.81939 0.12055 0.43456 0.0
C414 C 0.79266 0.10217 0.43995 0.0
C415 C 0.78213 0.09902 0.47374 0.0
C416 C 0.86565 0.14696 0.45911 0.0
C417 C 0.87954 0.17668 0.46028 0.0
C418 C 0.88519 0.18997 0.49298 0.0
C419 C 0.90248 0.21724 0.49509 0.0
C420 C 0.91422 0.23134 0.46448 0.0
C421 C 0.90899 0.21839 0.43172 0.0
C422 C 0.89081 0.19122 0.42947 0.0
H423 H 0.03583 0.53789 0.18837 0.0
H424 H 0.05255 0.56643 0.29591 0.0
H425 H 0.01185 0.59139 0.22564 0.0
H426 H 0.07855 0.54717 0.22922 0.0
H427 H 0.07168 0.54214 0.27487 0.0
H428 H 0.05129 0.51058 0.18465 0.0
H429 H 0.02674 0.43375 0.22467 0.0
H430 H 0.04829 0.49823 0.29706 0.0
C431 C 0.03307 0.54793 0.21043 0.0
C432 C 0.02148 0.56341 0.20397 0.0
C433 C 0.04391 0.54826 0.24386 0.0
C434 C 0.04253 0.5642 0.2709 0.0
C435 C 0.0308 0.57962 0.2644 0.0
C436 C 0.01955 0.57837 0.23129 0.0
C437 C 0.06216 0.53712 0.24828 0.0
C438 C 0.0492 0.50767 0.24172 0.0
C439 C 0.04568 0.49755 0.207 0.0
C440 C 0.03671 0.47075 0.20094 0.0
C441 C 0.03224 0.45415 0.2295 0.0
C442 C 0.03688 0.46406 0.26404 0.0
C443 C 0.04431 0.49056 0.27026 0.0
H444 H 0.5356 0.51628 0.19295 0.0
H445 H 0.54045 0.54389 0.30018 0.0
H446 H 0.58279 0.59854 0.21771 0.0
H447 H 0.52819 0.4873 0.24776 0.0
H448 H 0.52243 0.49779 0.28917 0.0
H449 H 0.49576 0.4793 0.1957 0.0
H450 H 0.41564 0.43816 0.23016 0.0
H451 H 0.47795 0.48176 0.30549 0.0
C452 C 0.54188 0.53215 0.21202 0.0
C453 C 0.55882 0.5581 0.20121 0.0
C454 C 0.53452 0.52672 0.24768 0.0
C455 C 0.54484 0.54777 0.2724 0.0
C456 C 0.56256 0.57364 0.26161 0.0
C457 C 0.56886 0.57863 0.22599 0.0
C458 C 0.51958 0.49847 0.26023 0.0
C459 C 0.49037 0.48429 0.25118 0.0
C460 C 0.48166 0.47519 0.21643 0.0
C461 C 0.45469 0.45901 0.20873 0.0
C462 C 0.43636 0.45169 0.23586 0.0
C463 C 0.44464 0.45931 0.27075 0.0
C464 C 0.47156 0.47636 0.2783 0.0
H465 H 0.50623 0.98033 0.17893 0.0
H466 H 0.51587 0.96894 0.28923 0.0
H467 H 0.58136 0.99679 0.21884 0.0
H468 H 0.46933 0.94391 0.21926 0.0
H469 H 0.47293 0.94913 0.26553 0.0
H470 H 0.46939 0.98059 0.18028 0.0
H471 H 0.41378 0.99966 0.22324 0.0
H472 H 0.45215 0.97062 0.29136 0.0
C473 C 0.51859 0.98275 0.20149 0.0
C474 C 0.54529 0.99123 0.19574 0.0
C475 C 0.50765 0.97495 0.23534 0.0
C476 C 0.52412 0.97613 0.26342 0.0
C477 C 0.55051 0.98342 0.25725 0.0
C478 C 0.56111 0.99164 0.22372 0.0
C479 C 0.47798 0.95965 0.23992 0.0
C480 C 0.46446 0.97583 0.23681 0.0
C481 C 0.46066 0.98378 0.20339 0.0
C482 C 0.4426 0.99255 0.19856 0.0
C483 C 0.42872 0.99415 0.22738 0.0
C484 C 0.43223 0.98642 0.26087 0.0
C485 C 0.45056 0.97787 0.26577 0.0
H486 H 0.47233 0.97953 0.83124 0.0
H487 H 0.46816 0.99491 0.72069 0.0
H488 H 0.42706 0.0145 0.79754 0.0
H489 H 0.47749 0.95248 0.77875 0.0
H490 H 0.48622 0.96788 0.73689 0.0
H491 H 0.50796 0.97495 0.83239 0.0
H492 H 0.58975 0.01374 0.80576 0.0
H493 H 0.53184 0.99762 0.72469 0.0
C494 C 0.46618 0.98769 0.81023 0.0
C495 C 0.44968 0.99787 0.81832 0.0
C496 C 0.47335 0.98674 0.77503 0.0
C497 C 0.46366 0.99625 0.74804 0.0
C498 C 0.44685 0.00614 0.75624 0.0
C499 C 0.44027 0.00713 0.7913 0.0
C500 C 0.48769 0.97203 0.76576 0.0
C501 C 0.51639 0.98609 0.77748 0.0
C502 C 0.52315 0.98497 0.81297 0.0
C503 C 0.54961 0.99547 0.82321 0.0
C504 C 0.56938 0.00654 0.79795 0.0
C505 C 0.5631 0.00709 0.76247 0.0
C506 C 0.53667 0.99752 0.75231 0.0
H507 H 0.0419 0.50393 0.83699 0.0
H508 H 0.01404 0.48132 0.72971 0.0
H509 H 0.9973 0.42224 0.80761 0.0
H510 H 0.06249 0.53483 0.78529 0.0
H511 H 0.04647 0.52635 0.74316 0.0
H512 H 0.0366 0.53982 0.83822 0.0
H513 H 0.99928 0.58365 0.80827 0.0
H514 H 0.02042 0.5456 0.72834 0.0
C515 C 0.03025 0.48895 0.81742 0.0
C516 C 0.01856 0.46232 0.82663 0.0
C517 C 0.028 0.49611 0.78268 0.0
C518 C 0.01469 0.47616 0.75695 0.0
C519 C 0.00409 0.44955 0.76588 0.0
C520 C 0.00526 0.44281 0.80086 0.0
C521 C 0.04279 0.52477 0.77205 0.0
C522 C 0.02847 0.53923 0.78223 0.0
C523 C 0.02766 0.54573 0.81787 0.0
C524 C 0.01673 0.56134 0.82724 0.0
C525 C 0.0067 0.57063 0.80105 0.0
C526 C 0.00828 0.56532 0.76547 0.0
C527 C 0.01863 0.54913 0.756 0.0
H528 H 0.50076 0.47233 0.85385 0.0
H529 H 0.49103 0.46171 0.74105 0.0
H530 H 0.42418 0.42207 0.80884 0.0
H531 H 0.53739 0.47786 0.81332 0.0
H532 H 0.5336 0.47852 0.76681 0.0
H533 H 0.53254 0.51479 0.84972 0.0
H534 H 0.59141 0.58917 0.80963 0.0
H535 H 0.55896 0.52058 0.74253 0.0
C536 C 0.48817 0.46526 0.83063 0.0
C537 C 0.46098 0.4484 0.83492 0.0
C538 C 0.49922 0.47087 0.79667 0.0
C539 C 0.48263 0.45906 0.76712 0.0
C540 C 0.45569 0.44105 0.77161 0.0
C541 C 0.44485 0.43658 0.80532 0.0
C542 C 0.5288 0.48456 0.79233 0.0
C543 C 0.54227 0.51428 0.79484 0.0
C544 C 0.54335 0.52648 0.82737 0.0
C545 C 0.56109 0.55342 0.83273 0.0
C546 C 0.57681 0.5686 0.80495 0.0
C547 C 0.57592 0.55688 0.77235 0.0
C548 C 0.55839 0.52981 0.76711 0.0
H549 H 0.7154 0.88375 0.50836 0.0
H550 H 0.7219 0.89786 0.62074 0.0
H551 H 0.68663 0.93114 0.55442 0.0
H552 H 0.75142 0.8836 0.54782 0.0
H553 H 0.74677 0.88061 0.59419 0.0
H554 H 0.71741 0.84638 0.50692 0.0
H555 H 0.69488 0.77048 0.54902 0.0
H556 H 0.72549 0.83775 0.61851 0.0
C557 C 0.71059 0.89098 0.53182 0.0
C558 C 0.69852 0.90628 0.52805 0.0
C559 C 0.71856 0.88717 0.56535 0.0
C560 C 0.7144 0.89917 0.59507 0.0
C561 C 0.70324 0.91537 0.59102 0.0
C562 C 0.69452 0.91802 0.55773 0.0
C563 C 0.736 0.87508 0.56844 0.0
C564 C 0.7212 0.84542 0.56374 0.0
C565 C 0.71377 0.83407 0.52972 0.0
C566 C 0.70381 0.80699 0.52455 0.0
C567 C 0.70121 0.79114 0.55335 0.0
C568 C 0.70921 0.80219 0.5871 0.0
C569 C 0.71851 0.82917 0.59251 0.0
H570 H 0.20275 0.84878 0.52651 0.0
H571 H 0.20518 0.87338 0.63477 0.0
H572 H 0.24929 0.93035 0.55541 0.0
H573 H 0.19229 0.8177 0.57857 0.0
H574 H 0.18772 0.82758 0.62122 0.0
H575 H 0.15994 0.81862 0.52751 0.0
H576 H 0.08067 0.76977 0.56213 0.0
H577 H 0.14332 0.80607 0.63879 0.0
C578 C 0.20853 0.86413 0.5463 0.0
C579 C 0.2256 0.89038 0.53679 0.0
C580 C 0.20025 0.85772 0.58152 0.0
C581 C 0.2102 0.87804 0.60728 0.0
C582 C 0.22825 0.90416 0.5979 0.0
C583 C 0.23525 0.9102 0.56261 0.0
C584 C 0.18456 0.82912 0.59256 0.0
C585 C 0.15523 0.81596 0.58432 0.0
C586 C 0.14616 0.81119 0.549 0.0
C587 C 0.11931 0.7945 0.54105 0.0
C588 C 0.10128 0.78338 0.56837 0.0
C589 C 0.10977 0.78755 0.60352 0.0
C590 C 0.13671 0.80401 0.6116 0.0
H591 H 0.17275 0.31411 0.50989 0.0
H592 H 0.18018 0.29963 0.61966 0.0
H593 H 0.24787 0.33226 0.55278 0.0
H594 H 0.13523 0.27707 0.54652 0.0
H595 H 0.13774 0.27907 0.59323 0.0
H596 H 0.13386 0.31378 0.51218 0.0
H597 H 0.08295 0.33622 0.56271 0.0
H598 H 0.1193 0.30135 0.62365 0.0
C599 C 0.18482 0.31618 0.53273 0.0
C600 C 0.21184 0.32555 0.5281 0.0
C601 C 0.17312 0.30702 0.5659 0.0
C602 C 0.18904 0.3079 0.59449 0.0
C603 C 0.21593 0.31686 0.58963 0.0
C604 C 0.22729 0.32624 0.55675 0.0
C605 C 0.14342 0.29129 0.56903 0.0
C606 C 0.13039 0.30796 0.56864 0.0
C607 C 0.12619 0.31709 0.53635 0.0
C608 C 0.10948 0.3277 0.53438 0.0
C609 C 0.09721 0.32963 0.56482 0.0
C610 C 0.10032 0.31975 0.59683 0.0
C611 C 0.11775 0.30989 0.59912 0.0
C612 C 0.05021 0.43852 0.12347 0.0
C613 C 0.02798 0.43179 0.1014 0.0
C614 C 0.01211 0.45247 0.14358 0.0
C615 C 0.03492 0.46015 0.16475 0.0
N616 N 0.07849 0.46603 0.17126 0.0
N617 N 0.99072 0.43685 0.08643 0.0
C618 C 0.05491 0.45499 0.15342 0.0
C619 C 0.00975 0.44009 0.11028 0.0
N620 N 0.06592 0.42787 0.11715 0.0
N621 N 0.99233 0.45621 0.15586 0.0
H622 H 0.98866 0.42816 0.06164 0.0
H623 H 0.97851 0.44483 0.08985 0.0
H624 H 0.99375 0.46591 0.17963 0.0
H625 H 0.9739 0.44828 0.14363 0.0
H626 H 0.08059 0.42975 0.13457 0.0
H627 H 0.0628 0.41503 0.09616 0.0
H628 H 0.09482 0.46523 0.1622 0.0
H629 H 0.08257 0.47816 0.19343 0.0
C630 C 0.60816 0.58498 0.128 0.0
C631 C 0.59386 0.5904 0.10224 0.0
C632 C 0.55427 0.56942 0.1388 0.0
C633 C 0.56869 0.56434 0.16461 0.0
N634 N 0.60649 0.56055 0.18031 0.0
N635 N 0.55199 0.58184 0.07849 0.0
C636 C 0.59469 0.56979 0.15786 0.0
C637 C 0.56644 0.58072 0.1062 0.0
N638 N 0.63488 0.59582 0.12524 0.0
N639 N 0.52938 0.56447 0.14608 0.0
H640 H 0.56027 0.58957 0.05405 0.0
H641 H 0.53152 0.57295 0.07853 0.0
H642 H 0.51954 0.5552 0.16912 0.0
H643 H 0.51901 0.57069 0.13023 0.0
H644 H 0.64677 0.59511 0.14524 0.0
H645 H 0.64568 0.6074 0.1041 0.0
H646 H 0.62445 0.56165 0.17518 0.0
H647 H 0.59706 0.54949 0.20254 0.0
C648 C 0.43561 0.02458 0.11505 0.0
C649 C 0.41649 0.00198 0.09612 0.0
C650 C 0.41779 0.97322 0.14198 0.0
C651 C 0.43484 0.99594 0.16248 0.0
N652 N 0.45907 0.04313 0.17032 0.0
N653 N 0.38807 0.95459 0.0919 0.0
C654 C 0.44355 0.02162 0.14947 0.0
C655 C 0.40754 0.97621 0.10936 0.0
N656 N 0.44699 0.04874 0.09939 0.0
N657 N 0.41118 0.94868 0.15387 0.0
H658 H 0.38032 0.95534 0.06747 0.0
H659 H 0.37801 0.9358 0.10258 0.0
H660 H 0.41591 0.94519 0.17905 0.0
H661 H 0.40221 0.93171 0.1382 0.0
H662 H 0.46287 0.06568 0.1102 0.0
H663 H 0.44213 0.05149 0.07385 0.0
H664 H 0.46347 0.06221 0.16435 0.0
H665 H 0.46645 0.04176 0.19485 0.0
C666 C 0.4345 0.0247 0.89974 0.0
C667 C 0.41663 0.0012 0.91745 0.0
C668 C 0.42187 0.97487 0.87116 0.0
C669 C 0.44103 0.99844 0.85487 0.0
N670 N 0.47051 0.04539 0.85853 0.0
N671 N 0.39869 0.9544 0.92488 0.0
C672 C 0.44904 0.02323 0.87095 0.0
C673 C 0.41193 0.97638 0.90465 0.0
N674 N 0.43629 0.04818 0.90865 0.0
N675 N 0.41219 0.95117 0.85403 0.0
H676 H 0.39183 0.95484 0.95005 0.0
H677 H 0.39696 0.93632 0.91825 0.0
H678 H 0.41888 0.94912 0.82947 0.0
H679 H 0.39604 0.93384 0.86295 0.0
H680 H 0.44707 0.06534 0.8942 0.0
H681 H 0.42474 0.04997 0.928 0.0
H682 H 0.47873 0.06366 0.87126 0.0
H683 H 0.48169 0.04487 0.83753 0.0
C684 C 0.01146 0.44518 0.92444 0.0
C685 C 0.02283 0.42871 0.92495 0.0
C686 C 0.03798 0.44162 0.86449 0.0
C687 C 0.02275 0.45418 0.862 0.0
N688 N 0.99312 0.46641 0.88869 0.0
N689 N 0.04291 0.40759 0.8928 0.0
C690 C 0.0091 0.45576 0.89181 0.0
C691 C 0.03529 0.42612 0.89439 0.0
N692 N 0.00373 0.45141 0.95521 0.0
N693 N 0.05507 0.44455 0.8382 0.0
H694 H 0.03996 0.39456 0.91316 0.0
H695 H 0.04955 0.40315 0.86976 0.0
H696 H 0.05775 0.45608 0.81604 0.0
H697 H 0.06849 0.43787 0.84018 0.0
H698 H 0.99763 0.46528 0.95686 0.0
H699 H 0.00594 0.44474 0.97974 0.0
H700 H 0.98037 0.46538 0.90843 0.0
H701 H 0.99124 0.47473 0.86539 0.0
C702 C 0.588 0.57026 0.92653 0.0
C703 C 0.58678 0.59347 0.9325 0.0
C704 C 0.56133 0.58515 0.87767 0.0
C705 C 0.56707 0.56504 0.8688 0.0
N706 N 0.58942 0.54089 0.88296 0.0
N707 N 0.57341 0.62422 0.91316 0.0
C708 C 0.58109 0.55797 0.89288 0.0
C709 C 0.57334 0.60108 0.90823 0.0
N710 N 0.59559 0.55983 0.95322 0.0
N711 N 0.54444 0.58895 0.85683 0.0
H712 H 0.58195 0.63639 0.9352 0.0
H713 H 0.56659 0.63227 0.89428 0.0
H714 H 0.53542 0.57753 0.83429 0.0
H715 H 0.53756 0.60167 0.86356 0.0
H716 H 0.59451 0.54158 0.95126 0.0
H717 H 0.60014 0.56803 0.9786 0.0
H718 H 0.60226 0.53754 0.89826 0.0
H719 H 0.58565 0.53189 0.85816 0.0
C720 C 1.00126 0.56618 0.92348 0.0
C721 C 0.01542 0.59404 0.92786 0.0
C722 C 0.03626 0.59849 0.87069 0.0
C723 C 0.01875 0.57134 0.8638 0.0
N724 N 0.98348 0.52911 0.8825 0.0
N725 N 0.04385 0.6372 0.9034 0.0
C726 C 1.00108 0.555 0.89001 0.0
C727 C 0.03254 0.61038 0.90109 0.0
N728 N 0.98865 0.55044 0.95155 0.0
N729 N 0.05645 0.61288 0.84805 0.0
H730 H 0.04093 0.6469 0.92447 0.0
H731 H 0.0541 0.64976 0.88276 0.0
H732 H 0.0598 0.60465 0.82558 0.0
H733 H 0.07136 0.63215 0.85342 0.0
H734 H 0.98013 0.53 0.95084 0.0
H735 H 0.98896 0.55795 0.97667 0.0
H736 H 0.96808 0.51699 0.89909 0.0
H737 H 0.98325 0.52013 0.85856 0.0
C738 C 0.42864 0.44329 0.92381 0.0
C739 C 0.42201 0.41731 0.93321 0.0
C740 C 0.44565 0.4144 0.88192 0.0
C741 C 0.44975 0.43913 0.8704 0.0
N742 N 0.44368 0.47653 0.87816 0.0
N743 N 0.42016 0.37628 0.91833 0.0
C744 C 0.44094 0.45351 0.89082 0.0
C745 C 0.42958 0.4024 0.91163 0.0
N746 N 0.42388 0.4584 0.94687 0.0
N747 N 0.45735 0.40248 0.86456 0.0
H748 H 0.40769 0.36643 0.93923 0.0
H749 H 0.42259 0.36366 0.90131 0.0
H750 H 0.46907 0.41054 0.84239 0.0
H751 H 0.45744 0.38587 0.87392 0.0
H752 H 0.43064 0.47837 0.94326 0.0
H753 H 0.41487 0.45146 0.97117 0.0
H754 H 0.43505 0.48647 0.88973 0.0
H755 H 0.45337 0.48494 0.85469 0.0
C756 C 0.57169 0.012 0.91918 0.0
C757 C 0.58344 0.99612 0.92384 0.0
C758 C 0.56501 0.97432 0.86694 0.0
C759 C 0.55722 0.99317 0.85986 0.0
N760 N 0.5538 0.03076 0.87811 0.0
N761 N 0.59351 0.96367 0.90082 0.0
C762 C 0.56045 0.01207 0.88583 0.0
C763 C 0.58036 0.97735 0.89763 0.0
N764 N 0.57071 0.02649 0.94692 0.0
N765 N 0.55773 0.95358 0.84415 0.0
H766 H 0.60541 0.96558 0.92248 0.0
H767 H 0.59446 0.95205 0.88066 0.0
H768 H 0.54654 0.95094 0.82135 0.0
H769 H 0.56055 0.93776 0.84947 0.0
H770 H 0.56024 0.0365 0.9462 0.0
H771 H 0.57828 0.02644 0.97189 0.0
H772 H 0.55864 0.04701 0.89429 0.0
H773 H 0.54473 0.03086 0.85438 0.0
C774 C 0.56256 0.98053 0.10277 0.0
C775 C 0.58526 0.00545 0.09693 0.0
C776 C 0.57611 0.02259 0.15087 0.0
C777 C 0.55647 0.99657 0.15967 0.0
N778 N 0.53293 0.94993 0.14577 0.0
N779 N 0.61513 0.05008 0.11668 0.0
C780 C 0.54996 0.9753 0.13595 0.0
C781 C 0.59226 0.02665 0.12101 0.0
N782 N 0.55274 0.96201 0.0763 0.0
N783 N 0.57925 0.04334 0.17114 0.0
H784 H 0.62766 0.05383 0.09541 0.0
H785 H 0.62275 0.06515 0.13556 0.0
H786 H 0.56767 0.04088 0.19317 0.0
H787 H 0.5915 0.06298 0.1643 0.0
H788 H 0.53481 0.94442 0.07795 0.0
H789 H 0.56104 0.96547 0.05125 0.0
H790 H 0.52998 0.93356 0.13112 0.0
H791 H 0.52335 0.94502 0.16995 0.0
C792 C 0.98561 0.56902 0.12375 0.0
C793 C 0.00731 0.58716 0.10335 0.0
C794 C 0.03832 0.58749 0.14721 0.0
C795 C 0.01664 0.5689 0.16737 0.0
N796 N 0.97018 0.53827 0.17255 0.0
N797 N 0.05408 0.6099 0.09167 0.0
C798 C 0.99039 0.55845 0.15483 0.0
C799 C 0.03357 0.59499 0.11369 0.0
N800 N 0.96055 0.56235 0.1137 0.0
N801 N 0.06336 0.59931 0.16106 0.0
H802 H 0.05183 0.6172 0.06773 0.0
H803 H 0.07317 0.61344 0.09582 0.0
H804 H 0.06803 0.59423 0.18522 0.0
H805 H 0.0794 0.61558 0.14988 0.0
H806 H 0.94404 0.55156 0.12928 0.0
H807 H 0.95636 0.56879 0.09023 0.0
H808 H 0.95077 0.52809 0.16336 0.0
H809 H 0.97327 0.53024 0.19534 0.0
C810 C 0.43481 0.44723 0.11113 0.0
C811 C 0.41957 0.41922 0.11053 0.0
C812 C 0.43381 0.41832 0.17106 0.0
C813 C 0.44535 0.44609 0.17356 0.0
N814 N 0.45471 0.48713 0.14703 0.0
N815 N 0.40022 0.37836 0.14293 0.0
C816 C 0.4454 0.46067 0.14382 0.0
C817 C 0.418 0.40477 0.14123 0.0
N818 N 0.44004 0.46096 0.0804 0.0
N819 N 0.43817 0.40488 0.19711 0.0
H820 H 0.38692 0.36775 0.12263 0.0
H821 H 0.39657 0.3676 0.16604 0.0
H822 H 0.45016 0.41426 0.21909 0.0
H823 H 0.43224 0.38493 0.19499 0.0
H824 H 0.45313 0.48117 0.07888 0.0
H825 H 0.43343 0.45182 0.0558 0.0
H826 H 0.45254 0.49822 0.12731 0.0
H827 H 0.46289 0.49768 0.17041 0.0
C828 C 0.67292 0.77474 0.43585 0.0
C829 C 0.69107 0.7668 0.42504 0.0
C830 C 0.71992 0.79057 0.47531 0.0
C831 C 0.70027 0.79559 0.48853 0.0
N832 N 0.65719 0.79107 0.48341 0.0
N833 N 0.72958 0.7631 0.43778 0.0
C834 C 0.67653 0.78741 0.46927 0.0
C835 C 0.71409 0.77378 0.44549 0.0
N836 N 0.65275 0.77089 0.41371 0.0
N837 N 0.74427 0.80206 0.49118 0.0
H838 H 0.72559 0.74987 0.41698 0.0
H839 H 0.74491 0.76522 0.45409 0.0
H840 H 0.74927 0.81449 0.51319 0.0
H841 H 0.76025 0.80135 0.48055 0.0
H842 H 0.64041 0.77855 0.4185 0.0
H843 H 0.6497 0.76188 0.38896 0.0
H844 H 0.63827 0.78291 0.47264 0.0
H845 H 0.65958 0.801 0.5073 0.0
C846 C 0.27454 0.91868 0.46282 0.0
C847 C 0.25959 0.92327 0.43714 0.0
C848 C 0.22058 0.90224 0.47479 0.0
C849 C 0.23553 0.8976 0.50031 0.0
N850 N 0.27415 0.89504 0.51536 0.0
N851 N 0.21713 0.91365 0.41435 0.0
C852 C 0.26167 0.90365 0.49309 0.0
C853 C 0.23217 0.91323 0.4418 0.0
N854 N 0.30129 0.9301 0.45956 0.0
N855 N 0.19574 0.89716 0.48267 0.0
H856 H 0.22495 0.92113 0.38963 0.0
H857 H 0.19664 0.90441 0.41493 0.0
H858 H 0.18632 0.88826 0.50609 0.0
H859 H 0.18506 0.9031 0.46697 0.0
H860 H 0.31358 0.92999 0.47944 0.0
H861 H 0.31166 0.9416 0.43814 0.0
H862 H 0.29224 0.89655 0.50986 0.0
H863 H 0.2652 0.8841 0.53787 0.0
C864 C 0.0625 0.31685 0.45897 0.0
C865 C 0.07866 0.33789 0.43636 0.0
C866 C 0.11518 0.35377 0.47917 0.0
C867 C 0.09978 0.33103 0.49969 0.0
N868 N 0.06081 0.28809 0.50541 0.0
N869 N 0.12113 0.37506 0.42247 0.0
C870 C 0.07402 0.31171 0.48846 0.0
C871 C 0.10524 0.35613 0.4458 0.0
N872 N 0.03585 0.30245 0.45313 0.0
N873 N 0.13897 0.37324 0.4919 0.0
H874 H 0.11431 0.37752 0.3981 0.0
H875 H 0.14139 0.38716 0.42617 0.0
H876 H 0.14697 0.37176 0.51587 0.0
H877 H 0.14992 0.39152 0.47998 0.0
H878 H 0.02277 0.28853 0.47075 0.0
H879 H 0.02646 0.30655 0.43277 0.0
H880 H 0.04312 0.27231 0.49604 0.0
H881 H 0.06873 0.28324 0.52686 0.0
C882 C 0.07518 0.30268 0.24229 0.0
C883 C 0.08257 0.32786 0.25684 0.0
C884 C 0.11785 0.34857 0.21345 0.0
C885 C 0.10758 0.32406 0.19551 0.0
N886 N 0.07478 0.27789 0.1907 0.0
N887 N 0.10862 0.3754 0.25285 0.0
C888 C 0.08591 0.30104 0.20947 0.0
C889 C 0.10353 0.35102 0.24183 0.0
N890 N 0.05854 0.28036 0.26029 0.0
N891 N 0.14128 0.36953 0.20313 0.0
H892 H 0.09787 0.37832 0.27235 0.0
H893 H 0.12179 0.39276 0.24017 0.0
H894 H 0.15221 0.36824 0.18237 0.0
H895 H 0.15107 0.38722 0.21728 0.0
H896 H 0.0545 0.2616 0.25258 0.0
H897 H 0.05087 0.28079 0.28487 0.0
H898 H 0.05703 0.26134 0.19756 0.0
H899 H 0.08229 0.27575 0.16684 0.0
C900 C 0.69896 0.7616 0.21754 0.0
C901 C 0.68589 0.76367 0.24777 0.0
C902 C 0.67246 0.7909 0.21446 0.0
C903 C 0.68684 0.78997 0.18508 0.0
N904 N 0.71982 0.78095 0.1622 0.0
N905 N 0.66606 0.78584 0.27763 0.0
C906 C 0.70216 0.77751 0.18791 0.0
C907 C 0.67435 0.77999 0.24705 0.0
N908 N 0.70673 0.74318 0.21596 0.0
N909 N 0.65624 0.80124 0.21093 0.0
H910 H 0.66798 0.77903 0.3022 0.0
H911 H 0.65981 0.7996 0.27915 0.0
H912 H 0.65465 0.80977 0.18766 0.0
H913 H 0.64299 0.79969 0.23026 0.0
H914 H 0.71387 0.73914 0.19307 0.0
H915 H 0.70341 0.72985 0.23606 0.0
H916 H 0.73328 0.77434 0.16451 0.0
H917 H 0.72289 0.79281 0.14029 0.0
C918 C 0.25022 0.90458 0.25833 0.0
C919 C 0.24963 0.92795 0.26577 0.0
C920 C 0.22419 0.92142 0.21129 0.0
C921 C 0.22938 0.90117 0.20095 0.0
N922 N 0.25145 0.87635 0.21288 0.0
N923 N 0.23722 0.95987 0.2486 0.0
C924 C 0.24323 0.89325 0.22413 0.0
C925 C 0.23654 0.93655 0.24237 0.0
N926 N 0.25733 0.89309 0.28415 0.0
N927 N 0.20749 0.92611 0.19137 0.0
H928 H 0.246 0.97147 0.27101 0.0
H929 H 0.23067 0.96861 0.23039 0.0
H930 H 0.19822 0.91527 0.16852 0.0
H931 H 0.20101 0.93895 0.19914 0.0
H932 H 0.25578 0.87469 0.28105 0.0
H933 H 0.26189 0.90055 0.3099 0.0
H934 H 0.26414 0.87245 0.22764 0.0
H935 H 0.24788 0.8682 0.18757 0.0
C936 C 0.70011 0.9323 0.2391 0.0
C937 C 0.67507 0.92603 0.25236 0.0
C938 C 0.65357 0.89476 0.20339 0.0
C939 C 0.67845 0.90452 0.18722 0.0
N940 N 0.72549 0.9348 0.18775 0.0
N941 N 0.62762 0.90317 0.24526 0.0
C942 C 0.70182 0.92372 0.20467 0.0
C943 C 0.65162 0.90746 0.23432 0.0
N944 N 0.7222 0.9459 0.25979 0.0
N945 N 0.63186 0.87333 0.18912 0.0
H946 H 0.62527 0.91243 0.26731 0.0
H947 H 0.61023 0.89215 0.23077 0.0
H948 H 0.63276 0.86363 0.16645 0.0
H949 H 0.61364 0.86372 0.20153 0.0
H950 H 0.74063 0.94882 0.25277 0.0
H951 H 0.72158 0.95183 0.28561 0.0
H952 H 0.74255 0.95107 0.19767 0.0
H953 H 0.72772 0.92914 0.16247 0.0
C954 C 0.08576 0.77452 0.24787 0.0
C955 C 0.08998 0.75674 0.26828 0.0
C956 C 0.12347 0.76041 0.2263 0.0
C957 C 0.11645 0.77515 0.20366 0.0
N958 N 0.0909 0.79615 0.19174 0.0
N959 N 0.11288 0.73239 0.27726 0.0
C960 C 0.09769 0.78232 0.21424 0.0
C961 C 0.10925 0.75 0.25802 0.0
N962 N 0.07121 0.78479 0.26143 0.0
N963 N 0.14358 0.75609 0.21728 0.0
H964 H 0.10398 0.72484 0.30132 0.0
H965 H 0.12354 0.72368 0.26847 0.0
H966 H 0.153 0.76129 0.19302 0.0
H967 H 0.15222 0.74884 0.2346 0.0
H968 H 0.06939 0.79975 0.24949 0.0
H969 H 0.06303 0.78023 0.28654 0.0
H970 H 0.07499 0.79906 0.19576 0.0
H971 H 0.10042 0.80366 0.16787 0.0
C972 C 0.24995 0.30823 0.23736 0.0
C973 C 0.25346 0.32782 0.26249 0.0
C974 C 0.22952 0.34232 0.22393 0.0
C975 C 0.22584 0.32259 0.19908 0.0
N976 N 0.22621 0.28261 0.18554 0.0
N977 N 0.24103 0.3588 0.28407 0.0
C978 C 0.23389 0.30408 0.20708 0.0
C979 C 0.2415 0.34344 0.25712 0.0
N980 N 0.26334 0.29483 0.24109 0.0
N981 N 0.22254 0.36062 0.21525 0.0
H982 H 0.24916 0.35963 0.30895 0.0
H983 H 0.23046 0.36871 0.28292 0.0
H984 H 0.21291 0.35983 0.19165 0.0
H985 H 0.22762 0.37738 0.23047 0.0
H986 H 0.2639 0.28257 0.22155 0.0
H987 H 0.27581 0.29758 0.26242 0.0
H988 H 0.22924 0.26704 0.19172 0.0
H989 H 0.21451 0.27914 0.16303 0.0
C990 C 0.26058 0.36156 0.45538 0.0
C991 C 0.25508 0.34028 0.43215 0.0
C992 C 0.2187 0.3098 0.46949 0.0
C993 C 0.22382 0.33107 0.49251 0.0
N994 N 0.24514 0.37783 0.50336 0.0
N995 N 0.2241 0.29643 0.41108 0.0
C996 C 0.24327 0.35723 0.48398 0.0
C997 C 0.23255 0.31512 0.4373 0.0
N998 N 0.28308 0.38537 0.45148 0.0
N999 N 0.20184 0.28435 0.47921 0.0
H1000 H 0.23335 0.29992 0.38668 0.0
H1001 H 0.20635 0.27861 0.41206 0.0
H1002 H 0.19132 0.27932 0.50266 0.0
H1003 H 0.19993 0.26808 0.46532 0.0
H1004 H 0.28967 0.40067 0.46993 0.0
H1005 H 0.2963 0.38929 0.43101 0.0
H1006 H 0.25726 0.39751 0.49663 0.0
H1007 H 0.23266 0.37511 0.52442 0.0
C1008 C 0.70524 0.95035 0.45189 0.0
C1009 C 0.68373 0.9329 0.42994 0.0
C1010 C 0.67172 0.89718 0.47211 0.0
C1011 C 0.69435 0.91426 0.49266 0.0
N1012 N 0.73586 0.95501 0.49828 0.0
N1013 N 0.64872 0.8889 0.4158 0.0
C1014 C 0.71215 0.94019 0.48126 0.0
C1015 C 0.66754 0.90603 0.43908 0.0
N1016 N 0.71813 0.97688 0.44588 0.0
N1017 N 0.65391 0.87289 0.48468 0.0
H1018 H 0.64508 0.89483 0.39152 0.0
H1019 H 0.63809 0.86858 0.41927 0.0
H1020 H 0.65678 0.8656 0.50832 0.0
H1021 H 0.63559 0.86063 0.47289 0.0
H1022 H 0.7322 0.99082 0.46314 0.0
H1023 H 0.71288 0.98529 0.42553 0.0
H1024 H 0.75074 0.97301 0.4889 0.0
H1025 H 0.74173 0.9482 0.51991 0.0
C1026 C 0.07537 0.77627 0.46021 0.0
C1027 C 0.0826 0.75979 0.44157 0.0
C1028 C 0.11584 0.76783 0.48688 0.0
C1029 C 0.10971 0.78554 0.5044 0.0
N1030 N 0.08846 0.81159 0.50319 0.0
N1031 N 0.1151 0.74667 0.43163 0.0
C1032 C 0.09111 0.79147 0.4894 0.0
C1033 C 0.10454 0.75768 0.45317 0.0
N1034 N 0.0526 0.77615 0.45169 0.0
N1035 N 0.13117 0.75942 0.50309 0.0
H1036 H 0.10811 0.74 0.40608 0.0
H1037 H 0.13262 0.74692 0.43761 0.0
H1038 H 0.13952 0.7658 0.52812 0.0
H1039 H 0.13365 0.74425 0.49293 0.0
H1040 H 0.04508 0.78571 0.46681 0.0
H1041 H 0.03978 0.76442 0.4316 0.0
H1042 H 0.07694 0.81843 0.4914 0.0
H1043 H 0.09988 0.82314 0.5245 0.0
C1044 C 0.35024 0.12164 0.75769 0.0
C1045 C 0.33597 0.09373 0.75999 0.0
C1046 C 0.32092 0.09748 0.81872 0.0
C1047 C 0.34026 0.12463 0.81926 0.0
N1048 N 0.35225 0.16105 0.78035 0.0
N1049 N 0.30506 0.05457 0.79119 0.0
C1050 C 0.34941 0.13688 0.78628 0.0
C1051 C 0.31983 0.08144 0.78968 0.0
N1052 N 0.36431 0.13366 0.72821 0.0
N1053 N 0.30336 0.08762 0.84567 0.0
H1054 H 0.30382 0.04224 0.77043 0.0
H1055 H 0.29519 0.04444 0.8137 0.0
H1056 H 0.30369 0.09983 0.8661 0.0
H1057 H 0.28736 0.06847 0.84606 0.0
H1058 H 0.3771 0.15398 0.72707 0.0
H1059 H 0.36411 0.12324 0.70568 0.0
H1060 H 0.35727 0.17022 0.75589 0.0
H1061 H 0.3446 0.16925 0.79785 0.0
C1062 C 0.9007 0.26654 0.78787 0.0
C1063 C 0.91781 0.25945 0.77083 0.0
C1064 C 0.91165 0.22891 0.81848 0.0
C1065 C 0.89403 0.23548 0.83503 0.0
N1066 N 0.86638 0.25489 0.83119 0.0
N1067 N 0.93311 0.22838 0.76437 0.0
C1068 C 0.88668 0.25236 0.81811 0.0
C1069 C 0.92121 0.23884 0.78439 0.0
N1070 N 0.89919 0.28791 0.77686 0.0
N1071 N 0.92048 0.21446 0.836 0.0
H1072 H 0.93965 0.23466 0.73881 0.0
H1073 H 0.93392 0.21168 0.77158 0.0
H1074 H 0.91405 0.20675 0.86103 0.0
H1075 H 0.93574 0.21184 0.82682 0.0
H1076 H 0.88933 0.29568 0.79081 0.0
H1077 H 0.90966 0.29944 0.75552 0.0
H1078 H 0.85845 0.26498 0.8182 0.0
H1079 H 0.85577 0.24465 0.85334 0.0
C1080 C 0.74728 0.64746 0.77836 0.0
C1081 C 0.75226 0.67292 0.76876 0.0
C1082 C 0.77861 0.69167 0.82281 0.0
C1083 C 0.77071 0.6658 0.83429 0.0
N1084 N 0.74346 0.61866 0.82608 0.0
N1085 N 0.77157 0.71931 0.78193 0.0
C1086 C 0.7541 0.64356 0.81282 0.0
C1087 C 0.76762 0.69508 0.79106 0.0
N1088 N 0.73595 0.6269 0.75477 0.0
N1089 N 0.79707 0.71289 0.84189 0.0
H1090 H 0.76539 0.7229 0.75777 0.0
H1091 H 0.77983 0.73559 0.79889 0.0
H1092 H 0.80545 0.71097 0.86525 0.0
H1093 H 0.80565 0.73227 0.83329 0.0
H1094 H 0.73477 0.60881 0.75915 0.0
H1095 H 0.72963 0.62833 0.72958 0.0
H1096 H 0.72872 0.60196 0.81313 0.0
H1097 H 0.74738 0.61475 0.85151 0.0
C1098 C 0.74516 0.64558 0.57607 0.0
C1099 C 0.75013 0.67047 0.58893 0.0
C1100 C 0.78208 0.6923 0.54183 0.0
C1101 C 0.77398 0.66741 0.52597 0.0
N1102 N 0.74486 0.62017 0.52537 0.0
N1103 N 0.77004 0.71749 0.58033 0.0
C1104 C 0.75481 0.64393 0.54244 0.0
C1105 C 0.7679 0.69391 0.57102 0.0
N1106 N 0.73199 0.62364 0.59641 0.0
N1107 N 0.80339 0.7144 0.52899 0.0
H1108 H 0.75904 0.71947 0.60035 0.0
H1109 H 0.78067 0.73462 0.56578 0.0
H1110 H 0.81432 0.71381 0.50772 0.0
H1111 H 0.81175 0.73275 0.54155 0.0
H1112 H 0.73013 0.60552 0.58974 0.0
H1113 H 0.72532 0.62416 0.62168 0.0
H1114 H 0.7287 0.60292 0.53446 0.0
H1115 H 0.75124 0.618 0.50063 0.0
C1116 C 0.33767 0.11007 0.58662 0.0
C1117 C 0.35347 0.09818 0.59076 0.0
C1118 C 0.3746 0.11638 0.5342 0.0
C1119 C 0.3559 0.12447 0.52763 0.0
N1120 N 0.31878 0.12836 0.54638 0.0
N1121 N 0.38541 0.08776 0.56716 0.0
C1122 C 0.33734 0.12141 0.55368 0.0
C1123 C 0.37184 0.10105 0.56445 0.0
N1124 N 0.32351 0.11108 0.6145 0.0
N1125 N 0.39499 0.12339 0.5114 0.0
H1126 H 0.38372 0.07593 0.58853 0.0
H1127 H 0.39671 0.08664 0.54688 0.0
H1128 H 0.39743 0.13453 0.48889 0.0
H1129 H 0.41076 0.12037 0.51644 0.0
H1130 H 0.31359 0.12166 0.61427 0.0
H1131 H 0.3237 0.10338 0.63917 0.0
H1132 H 0.30275 0.12369 0.56253 0.0
H1133 H 0.31852 0.13752 0.52299 0.0
C1134 C 0.90446 0.25112 0.58218 0.0
C1135 C 0.93039 0.25882 0.59402 0.0
C1136 C 0.93626 0.23605 0.54358 0.0
C1137 C 0.91141 0.23061 0.52992 0.0
N1138 N 0.87289 0.23523 0.53352 0.0
N1139 N 0.97286 0.26295 0.583 0.0
C1140 C 0.89574 0.23874 0.5485 0.0
C1141 C 0.9468 0.25238 0.574 0.0
N1142 N 0.88789 0.25478 0.60366 0.0
N1143 N 0.94957 0.22517 0.52784 0.0
H1144 H 0.98161 0.27558 0.60457 0.0
H1145 H 0.98646 0.26129 0.56724 0.0
H1146 H 0.94259 0.21322 0.50531 0.0
H1147 H 0.96633 0.22605 0.53882 0.0
H1148 H 0.86791 0.24713 0.59816 0.0
H1149 H 0.89358 0.26367 0.62854 0.0
H1150 H 0.86206 0.24332 0.54385 0.0
H1151 H 0.86565 0.2257 0.50926 0.0
C1152 C 0.31893 0.24324 0.56924 0.0
C1153 C 0.34221 0.26108 0.5882 0.0
C1154 C 0.36939 0.25624 0.54338 0.0
C1155 C 0.34612 0.23774 0.52503 0.0
N1156 N 0.29908 0.20846 0.52494 0.0
N1157 N 0.38864 0.2781 0.59906 0.0
C1158 C 0.32097 0.22945 0.5396 0.0
C1159 C 0.36716 0.26551 0.57708 0.0
N1160 N 0.29517 0.24073 0.57791 0.0
N1161 N 0.3935 0.26616 0.52793 0.0
H1162 H 0.38756 0.28443 0.62446 0.0
H1163 H 0.40678 0.27967 0.5936 0.0
H1164 H 0.39616 0.26018 0.5031 0.0
H1165 H 0.41067 0.28194 0.53854 0.0
H1166 H 0.27818 0.23023 0.5625 0.0
H1167 H 0.29278 0.25099 0.59874 0.0
H1168 H 0.28049 0.19994 0.53632 0.0
H1169 H 0.30007 0.19795 0.50324 0.0
C1170 C 0.76829 0.0713 0.58322 0.0
C1171 C 0.75835 0.08584 0.60104 0.0
C1172 C 0.77633 0.11964 0.55525 0.0
C1173 C 0.78723 0.10565 0.53846 0.0
N1174 N 0.79851 0.07137 0.53988 0.0
N1175 N 0.75654 0.12577 0.60795 0.0
C1176 C 0.78486 0.08255 0.5537 0.0
C1177 C 0.76342 0.11062 0.58819 0.0
N1178 N 0.76058 0.04605 0.59309 0.0
N1179 N 0.77767 0.14107 0.53916 0.0
H1180 H 0.74712 0.11971 0.63218 0.0
H1181 H 0.76199 0.14512 0.60184 0.0
H1182 H 0.78787 0.14874 0.51574 0.0
H1183 H 0.76753 0.15037 0.54784 0.0
H1184 H 0.76473 0.03344 0.57862 0.0
H1185 H 0.74785 0.03663 0.61393 0.0
H1186 H 0.79987 0.05622 0.55209 0.0
H1187 H 0.81051 0.07878 0.51782 0.0
C1188 C 0.91671 0.64369 0.56553 0.0
C1189 C 0.916 0.6582 0.59525 0.0
C1190 C 0.88991 0.67274 0.56117 0.0
C1191 C 0.89021 0.65778 0.53185 0.0
N1192 N 0.89697 0.62315 0.50929 0.0
N1193 N 0.89588 0.68029 0.62438 0.0
C1194 C 0.90126 0.64122 0.53522 0.0
C1195 C 0.90067 0.67078 0.59401 0.0
N1196 N 0.93353 0.63389 0.56505 0.0
N1197 N 0.88046 0.68968 0.5573 0.0
H1198 H 0.9028 0.67844 0.64903 0.0
H1199 H 0.88288 0.68749 0.62569 0.0
H1200 H 0.87201 0.69131 0.53384 0.0
H1201 H 0.88259 0.70336 0.57658 0.0
H1202 H 0.93694 0.62583 0.54252 0.0
H1203 H 0.94604 0.63596 0.586 0.0
H1204 H 0.90238 0.6088 0.51179 0.0
H1205 H 0.88558 0.62079 0.4868 0.0
C1206 C 0.89345 0.65019 0.76708 0.0
C1207 C 0.9195 0.67189 0.76462 0.0
C1208 C 0.91415 0.68768 0.82229 0.0
C1209 C 0.89088 0.66311 0.82775 0.0
N1210 N 0.86036 0.619 0.80618 0.0
N1211 N 0.95594 0.71045 0.79243 0.0
C1212 C 0.88079 0.64388 0.80024 0.0
C1213 C 0.93014 0.69075 0.79262 0.0
N1214 N 0.88067 0.63573 0.73761 0.0
N1215 N 0.921 0.708 0.84563 0.0
H1216 H 0.96886 0.71318 0.77207 0.0
H1217 H 0.96523 0.72274 0.81413 0.0
H1218 H 0.90949 0.70635 0.86742 0.0
H1219 H 0.93646 0.72708 0.84133 0.0
H1220 H 0.86085 0.62105 0.73749 0.0
H1221 H 0.88899 0.64055 0.71257 0.0
H1222 H 0.8543 0.60365 0.78785 0.0
H1223 H 0.85111 0.61287 0.83045 0.0
C1224 C 0.34274 0.24611 0.76682 0.0
C1225 C 0.35836 0.27313 0.75807 0.0
C1226 C 0.38783 0.28027 0.80822 0.0
C1227 C 0.37025 0.25427 0.8196 0.0
N1228 N 0.32974 0.21282 0.81193 0.0
N1229 N 0.39362 0.31704 0.77302 0.0
C1230 C 0.34742 0.23718 0.79939 0.0
C1231 C 0.38049 0.29052 0.77928 0.0
N1232 N 0.32401 0.22888 0.74351 0.0
N1233 N 0.4117 0.29502 0.82488 0.0
H1234 H 0.38851 0.32556 0.75268 0.0
H1235 H 0.40804 0.33094 0.78993 0.0
H1236 H 0.41774 0.28806 0.84616 0.0
H1237 H 0.42647 0.3131 0.81558 0.0
H1238 H 0.31388 0.20852 0.74671 0.0
H1239 H 0.32023 0.23473 0.71927 0.0
H1240 H 0.31129 0.20066 0.80043 0.0
H1241 H 0.33274 0.20539 0.83535 0.0
C1242 C 0.74993 0.07302 0.80838 0.0
C1243 C 0.75189 0.08778 0.77784 0.0
C1244 C 0.77716 0.1289 0.81192 0.0
C1245 C 0.7767 0.11405 0.84156 0.0
N1246 N 0.76921 0.07267 0.86482 0.0
N1247 N 0.77282 0.12979 0.7484 0.0
C1248 C 0.76525 0.08631 0.83868 0.0
C1249 C 0.76711 0.11578 0.77893 0.0
N1250 N 0.73222 0.04657 0.80945 0.0
N1251 N 0.78628 0.15531 0.81548 0.0
H1252 H 0.76663 0.12088 0.7236 0.0
H1253 H 0.78591 0.15002 0.74731 0.0
H1254 H 0.79405 0.16565 0.8391 0.0
H1255 H 0.78433 0.16653 0.79576 0.0
H1256 H 0.72825 0.03556 0.83239 0.0
H1257 H 0.7193 0.03611 0.78874 0.0
H1258 H 0.76336 0.05275 0.8625 0.0
H1259 H 0.78079 0.08186 0.88718 0.0
C1260 C 0.06469 0.3334 0.03517 0.0
C1261 C 0.07255 0.36048 0.03727 0.0
C1262 C 0.11408 0.37009 0.06593 0.0
C1263 C 0.10398 0.34266 0.06973 0.0
N1264 N 0.06989 0.29774 0.05815 0.0
N1265 N 0.10463 0.40515 0.0537 0.0
C1266 C 0.07956 0.32414 0.05374 0.0
C1267 C 0.0975 0.37911 0.05175 0.0
N1268 N 0.04307 0.31668 0.01525 0.0
N1269 N 0.13944 0.38735 0.07638 0.0
H1270 H 0.09325 0.41247 0.04273 0.0
H1271 H 0.12109 0.41932 0.06764 0.0
H1272 H 0.15181 0.38099 0.08683 0.0
H1273 H 0.14893 0.40755 0.07192 0.0
H1274 H 0.03744 0.29707 0.01011 0.0
H1275 H 0.03212 0.32317 0.00106 0.0
H1276 H 0.05078 0.28331 0.05109 0.0
H1277 H 0.08063 0.29025 0.07057 0.0
C1278 C 0.67389 0.73676 0.0287 0.0
C1279 C 0.64742 0.7161 0.03147 0.0
C1280 C 0.63521 0.74701 0.05674 0.0
C1281 C 0.66234 0.76585 0.06083 0.0
N1282 N 0.70798 0.77937 0.05051 0.0
N1283 N 0.6022 0.70105 0.04684 0.0
C1284 C 0.68183 0.7612 0.04596 0.0
C1285 C 0.62769 0.7212 0.0443 0.0
N1286 N 0.69133 0.73285 0.00953 0.0
N1287 N 0.61686 0.75385 0.06557 0.0
H1288 H 0.59594 0.68201 0.03756 0.0
H1289 H 0.5875 0.70277 0.05972 0.0
H1290 H 0.62224 0.77273 0.07481 0.0
H1291 H 0.59671 0.74186 0.06082 0.0
H1292 H 0.7104 0.74778 0.0039 0.0
H1293 H 0.68579 0.71513 0.99629 0.0
H1294 H 0.72314 0.77566 0.04448 0.0
H1295 H 0.71462 0.79785 0.06207 0.0
C1296 C 0.27977 0.93909 0.02848 0.0
C1297 C 0.30536 0.94846 0.04304 0.0
C1298 C 0.28658 0.91768 0.09179 0.0
C1299 C 0.26087 0.91084 0.08013 0.0
N1300 N 0.23247 0.91598 0.03873 0.0
N1301 N 0.33254 0.95123 0.09283 0.0
C1302 C 0.25724 0.92164 0.04861 0.0
C1303 C 0.30865 0.93892 0.07579 0.0
N1304 N 0.2771 0.94673 0.99547 0.0
N1305 N 0.28991 0.90374 0.11811 0.0
H1306 H 0.34892 0.96789 0.08292 0.0
H1307 H 0.33532 0.94674 0.11849 0.0
H1308 H 0.27413 0.88764 0.13013 0.0
H1309 H 0.30828 0.9064 0.12535 0.0
H1310 H 0.25916 0.93873 0.98193 0.0
H1311 H 0.29327 0.95986 0.98058 0.0
H1312 H 0.2287 0.92534 0.01815 0.0
H1313 H 0.21565 0.90285 0.05255 0.0
C1314 C 0.40099 0.09457 0.9558 0.0
C1315 C 0.37831 0.07481 0.97306 0.0
C1316 C 0.35387 0.09715 0.9569 0.0
C1317 C 0.37514 0.11441 0.93526 0.0
N1318 N 0.41818 0.12841 0.91121 0.0
N1319 N 0.33311 0.0568 0.99077 0.0
C1320 C 0.39868 0.11311 0.93431 0.0
C1321 C 0.35476 0.07607 0.97402 0.0
N1322 N 0.42464 0.09545 0.95956 0.0
N1323 N 0.33302 0.1012 0.96131 0.0
H1324 H 0.33365 0.04218 0.00571 0.0
H1325 H 0.31438 0.05459 0.98881 0.0
H1326 H 0.33192 0.11652 0.94906 0.0
H1327 H 0.31792 0.0909 0.97917 0.0
H1328 H 0.44241 0.11098 0.95069 0.0
H1329 H 0.42702 0.0818 0.97421 0.0
H1330 H 0.43427 0.126 0.90601 0.0
H1331 H 0.41741 0.14233 0.89503 0.0
C1332 C 0.95322 0.28848 0.99203 0.0
C1333 C 0.95108 0.31145 0.98957 0.0
C1334 C 0.90677 0.28494 0.96369 0.0
C1335 C 0.91129 0.26348 0.95976 0.0
N1336 N 0.93949 0.24492 0.96864 0.0
N1337 N 0.92617 0.33215 0.97162 0.0
C1338 C 0.93451 0.26507 0.97405 0.0
C1339 C 0.92771 0.3098 0.97568 0.0
N1340 N 0.97297 0.289 0.01204 0.0
N1341 N 0.8825 0.28148 0.95542 0.0
H1342 H 0.94109 0.35078 0.97969 0.0
H1343 H 0.91094 0.33256 0.95791 0.0
H1344 H 0.86695 0.26339 0.94653 0.0
H1345 H 0.87707 0.29557 0.96053 0.0
H1346 H 0.97427 0.27229 0.01742 0.0
H1347 H 0.98649 0.3057 0.02635 0.0
H1348 H 0.95757 0.24639 0.97452 0.0
H1349 H 0.92614 0.22722 0.95618 0.0
C1350 C 0.73024 0.67367 0.99367 0.0
C1351 C 0.7071 0.64877 0.99758 0.0
C1352 C 0.72738 0.62721 0.96554 0.0
C1353 C 0.75028 0.65224 0.96054 0.0
N1354 N 0.77632 0.6981 0.97644 0.0
N1355 N 0.68606 0.60131 0.99605 0.0
C1356 C 0.75264 0.6751 0.97703 0.0
C1357 C 0.70664 0.62535 0.9868 0.0
N1358 N 0.73038 0.69593 0.00493 0.0
N1359 N 0.72444 0.60553 0.94766 0.0
H1360 H 0.67 0.59904 0.01047 0.0
H1361 H 0.686 0.58368 0.9922 0.0
H1362 H 0.73903 0.60576 0.93189 0.0
H1363 H 0.70679 0.58761 0.94639 0.0
H1364 H 0.74532 0.71498 -0.00068 0.0
H1365 H 0.71484 0.69525 0.0191 0.0
H1366 H 0.78019 0.71513 0.99012 0.0
H1367 H 0.79293 0.6994 0.96446 0.0
C1368 C 0.9186 0.61332 0.96569 0.0
C1369 C 0.93873 0.63456 0.98565 0.0
C1370 C 0.91988 0.66241 0.97078 0.0
C1371 C 0.89991 0.64124 0.9507 0.0
N1372 N 0.8763 0.59494 0.93557 0.0
N1373 N 0.95522 0.67684 0.01425 0.0
C1374 C 0.89787 0.61609 0.95063 0.0
C1375 C 0.93829 0.65837 0.99044 0.0
N1376 N 0.92031 0.5913 0.95874 0.0
N1377 N 0.92174 0.68659 0.96995 0.0
H1378 H 0.96866 0.67422 0.02939 0.0
H1379 H 0.95442 0.6936 0.02135 0.0
H1380 H 0.90775 0.68978 0.95722 0.0
H1381 H 0.93767 0.70369 0.98036 0.0
H1382 H 0.90814 0.57672 0.94067 0.0
H1383 H 0.93521 0.58838 0.96881 0.0
H1384 H 0.87223 0.57558 0.93805 0.0
H1385 H 0.86115 0.59638 0.92314 0.0
C1386 C 0.39891 0.31029 0.97794 0.0
C1387 C 0.37416 0.30664 0.98884 0.0
C1388 C 0.35133 0.26268 0.96133 0.0
C1389 C 0.37592 0.26689 0.94887 0.0
N1390 N 0.4235 0.29146 0.95184 0.0
N1391 N 0.3278 0.27799 -0.00164 0.0
C1392 C 0.39985 0.28954 0.9597 0.0
C1393 C 0.35064 0.28227 0.98298 0.0
N1394 N 0.42129 0.33429 0.98268 0.0
N1395 N 0.32865 0.24036 0.95119 0.0
H1396 H 0.32698 0.29207 0.01445 0.0
H1397 H 0.31022 0.26002 0.99755 0.0
H1398 H 0.3288 0.22509 0.93708 0.0
H1399 H 0.30979 0.2372 0.95567 0.0
H1400 H 0.43926 0.33951 0.97102 0.0
H1401 H 0.42171 0.34991 0.99651 0.0
H1402 H 0.4415 0.30596 0.9623 0.0
H1403 H 0.42514 0.27734 0.93707 0.0
C1404 C 0.72845 0.07194 -0.00143 0.0
C1405 C 0.70633 0.07552 0.99632 0.0
C1406 C 0.73411 0.11914 0.97062 0.0
C1407 C 0.75441 0.113 0.96612 0.0
N1408 N 0.77129 0.08343 0.97553 0.0
N1409 N 0.68761 0.10265 0.98128 0.0
C1410 C 0.75196 0.08963 0.98077 0.0
C1411 C 0.70914 0.09947 0.98344 0.0
N1412 N 0.72684 0.05156 0.01783 0.0
N1413 N 0.73877 0.14367 0.96188 0.0
H1414 H 0.66917 0.08885 0.99089 0.0
H1415 H 0.68761 0.11828 0.9684 0.0
H1416 H 0.75699 0.15818 0.9524 0.0
H1417 H 0.72567 0.15036 0.96694 0.0
H1418 H 0.74292 0.04908 0.0231 0.0
H1419 H 0.70988 0.0386 0.03156 0.0
H1420 H 0.76908 0.06511 0.98139 0.0
H1421 H 0.78913 0.09611 0.96346 0.0
C1422 C 0.67973 0.95862 0.03135 0.0
C1423 C 0.65277 0.95145 0.02985 0.0
C1424 C 0.64041 0.90787 0.05317 0.0
C1425 C 0.66731 0.91701 0.061 0.0
N1426 N 0.71303 0.95097 0.05787 0.0
N1427 N 0.60698 0.91943 0.03982 0.0
C1428 C 0.68718 0.94219 0.04956 0.0
C1429 C 0.63287 0.92587 0.04012 0.0
N1430 N 0.69809 0.98106 0.01505 0.0
N1431 N 0.62214 0.88203 0.05883 0.0
H1432 H 0.60057 0.93196 0.03043 0.0
H1433 H 0.59194 0.90233 0.05095 0.0
H1434 H 0.62735 0.86862 0.06856 0.0
H1435 H 0.60246 0.87337 0.0509 0.0
H1436 H 0.71782 0.98635 0.01254 0.0
H1437 H 0.69297 0.99311 0.00096 0.0
H1438 H 0.7281 0.97033 0.0543 0.0
H1439 H 0.7193 0.93916 0.07014 0.0
C1440 C 0.06491 0.72629 0.04369 0.0
C1441 C 0.06733 0.70342 0.04319 0.0
C1442 C 0.11059 0.72784 0.07248 0.0
C1443 C 0.10623 0.74934 0.07787 0.0
N1444 N 0.0803 0.77013 0.06811 0.0
N1445 N 0.09171 0.68153 0.05746 0.0
C1446 C 0.08384 0.74902 0.06282 0.0
C1447 C 0.09024 0.7041 0.05695 0.0
N1448 N 0.0446 0.72617 0.02555 0.0
N1449 N 0.13397 0.72995 0.08287 0.0
H1450 H 0.07756 0.66387 0.04571 0.0
H1451 H 0.10607 0.67967 0.07132 0.0
H1452 H 0.14888 0.74648 0.09587 0.0
H1453 H 0.13958 0.71622 0.07624 0.0
H1454 H 0.04271 0.74275 0.02227 0.0
H1455 H 0.03058 0.70975 0.01125 0.0
H1456 H 0.06303 0.77016 0.06167 0.0
H1457 H 0.09459 0.78757 0.08029 0.0
C1458 C 0.28025 0.33064 0.04153 0.0
C1459 C 0.30068 0.35734 0.04457 0.0
C1460 C 0.26956 0.36863 0.07133 0.0
C1461 C 0.25102 0.34144 0.07454 0.0
N1462 N 0.23854 0.29604 0.0637 0.0
N1463 N 0.31541 0.40201 0.06399 0.0
C1464 C 0.25609 0.32227 0.05934 0.0
C1465 C 0.29541 0.37659 0.05921 0.0
N1466 N 0.28389 0.31342 0.02119 0.0
N1467 N 0.26242 0.38674 0.0805 0.0
H1468 H 0.33472 0.40869 0.0561 0.0
H1469 H 0.31337 0.41612 0.07821 0.0
H1470 H 0.24357 0.3812 0.08957 0.0
H1471 H 0.27413 0.40687 0.07595 0.0
H1472 H 0.26893 0.29427 0.01531 0.0
H1473 H 0.30119 0.31913 0.00722 0.0
H1474 H 0.24267 0.28121 0.05728 0.0
H1475 H 0.22028 0.2891 0.07566 0.0
C1476 C 0.72824 0.67019 0.36405 0.0
C1477 C 0.73601 0.69727 0.36362 0.0
C1478 C 0.77788 0.7084 0.39262 0.0
C1479 C 0.76796 0.68124 0.39881 0.0
N1480 N 0.73391 0.63584 0.39072 0.0
N1481 N 0.76807 0.74265 0.37668 0.0
C1482 C 0.74339 0.66194 0.38399 0.0
C1483 C 0.76106 0.71662 0.37703 0.0
N1484 N 0.70645 0.65251 0.34517 0.0
N1485 N 0.80332 0.72621 0.4021 0.0
H1486 H 0.75652 0.74938 0.36466 0.0
H1487 H 0.78459 0.75745 0.38981 0.0
H1488 H 0.81588 0.72049 0.4136 0.0
H1489 H 0.81266 0.74613 0.39586 0.0
H1490 H 0.70084 0.63273 0.34187 0.0
H1491 H 0.69532 0.65825 0.32995 0.0
H1492 H 0.71477 0.62104 0.38451 0.0
H1493 H 0.74486 0.62903 0.4042 0.0
C1494 C 0.34189 0.0693 0.36827 0.0
C1495 C 0.31522 0.04906 0.37107 0.0
C1496 C 0.30455 0.08013 0.3996 0.0
C1497 C 0.33188 0.09845 0.40308 0.0
N1498 N 0.37706 0.11099 0.39107 0.0
N1499 N 0.27059 0.03464 0.38891 0.0
C1500 C 0.3507 0.09344 0.38685 0.0
C1501 C 0.2962 0.05444 0.38585 0.0
N1502 N 0.35866 0.06532 0.34765 0.0
N1503 N 0.28676 0.08733 0.41002 0.0
H1504 H 0.26369 0.01569 0.37878 0.0
H1505 H 0.25647 0.03648 0.40316 0.0
H1506 H 0.29264 0.10608 0.42025 0.0
H1507 H 0.26651 0.07581 0.40563 0.0
H1508 H 0.37782 0.08003 0.34201 0.0
H1509 H 0.35245 0.0479 0.33331 0.0
H1510 H 0.39177 0.10693 0.38383 0.0
H1511 H 0.3843 0.12923 0.40365 0.0
C1512 C 0.9453 0.2753 0.36984 0.0
C1513 C 0.96621 0.27122 0.35921 0.0
C1514 C 0.94593 0.2289 0.38942 0.0
C1515 C 0.92546 0.23329 0.4012 0.0
N1516 N 0.90115 0.25598 0.39386 0.0
N1517 N 0.98088 0.24036 0.3473 0.0
C1518 C 0.92358 0.2549 0.38816 0.0
C1519 C 0.96443 0.24656 0.36493 0.0
N1520 N 0.94696 0.29915 0.36494 0.0
N1521 N 0.94914 0.2093 0.40362 0.0
H1522 H 0.99439 0.25301 0.32883 0.0
H1523 H 0.97911 0.22177 0.34812 0.0
H1524 H 0.93658 0.19616 0.42235 0.0
H1525 H 0.96561 0.20741 0.39892 0.0
H1526 H 0.93402 0.30429 0.37633 0.0
H1527 H 0.96204 0.31443 0.35098 0.0
H1528 H 0.89754 0.27001 0.38249 0.0
H1529 H 0.88505 0.24119 0.40725 0.0
C1530 C 0.013 0.40231 0.31639 0.0
C1531 C 0.03743 0.40398 0.32509 0.0
C1532 C 0.06162 0.44891 0.30241 0.0
C1533 C 0.03728 0.44687 0.29234 0.0
N1534 N 0.99028 0.4256 0.29857 0.0
N1535 N 0.08386 0.43125 0.33745 0.0
C1536 C 0.0131 0.4249 0.30267 0.0
C1537 C 0.06138 0.42819 0.32185 0.0
N1538 N 0.98995 0.37877 0.31864 0.0
N1539 N 0.08492 0.46966 0.29131 0.0
H1540 H 0.08405 0.41642 0.35232 0.0
H1541 H 0.1015 0.4492 0.33874 0.0
H1542 H 0.08612 0.48554 0.27752 0.0
H1543 H 0.10298 0.4704 0.2939 0.0
H1544 H 0.97199 0.37562 0.30868 0.0
H1545 H 0.98893 0.36176 0.32852 0.0
H1546 H 0.97215 0.4112 0.30822 0.0
H1547 H 0.99012 0.44203 0.28839 0.0
C1548 C 0.61789 0.6232 0.32101 0.0
C1549 C 0.61504 0.64547 0.31492 0.0
C1550 C 0.57176 0.61676 0.28738 0.0
C1551 C 0.57727 0.59583 0.28701 0.0
N1552 N 0.60616 0.57907 0.30233 0.0
N1553 N 0.58946 0.66398 0.29162 0.0
C1554 C 0.60026 0.59884 0.30412 0.0
C1555 C 0.59174 0.64237 0.2986 0.0
N1556 N 0.6373 0.62535 0.34334 0.0
N1557 N 0.54751 0.61205 0.27641 0.0
H1558 H 0.60364 0.68306 0.29926 0.0
H1559 H 0.57436 0.66329 0.27617 0.0
H1560 H 0.5327 0.59337 0.26807 0.0
H1561 H 0.54128 0.62578 0.27873 0.0
H1562 H 0.639 0.60929 0.3513 0.0
H1563 H 0.65004 0.64283 0.35682 0.0
H1564 H 0.62428 0.58144 0.3103 0.0
H1565 H 0.59358 0.5607 0.29087 0.0
C1566 C 0.39375 0.00451 0.32356 0.0
C1567 C 0.37031 0.97973 0.32667 0.0
C1568 C 0.39 0.9583 0.29292 0.0
C1569 C 0.41314 0.98324 0.28871 0.0
N1570 N 0.43975 0.02877 0.30591 0.0
N1571 N 0.34817 0.93225 0.32225 0.0
C1572 C 0.4159 0.00595 0.30617 0.0
C1573 C 0.36926 0.95633 0.31429 0.0
N1574 N 0.39444 0.02667 0.33647 0.0
N1575 N 0.38702 0.93684 0.27441 0.0
H1576 H 0.33199 0.92992 0.33646 0.0
H1577 H 0.3476 0.91449 0.31733 0.0
H1578 H 0.40182 0.9372 0.25892 0.0
H1579 H 0.36931 0.91903 0.27246 0.0
H1580 H 0.4096 0.04577 0.33164 0.0
H1581 H 0.37917 0.02592 0.35138 0.0
H1582 H 0.44395 0.04565 0.32024 0.0
H1583 H 0.45618 0.03011 0.29336 0.0
C1584 C 0.5851 0.95112 0.29999 0.0
C1585 C 0.60665 0.97327 0.31674 0.0
C1586 C 0.58767 1.00092 0.3014 0.0
C1587 C 0.56661 0.979 0.28376 0.0
N1588 N 0.54163 0.93201 0.27312 0.0
N1589 N 0.62544 0.0171 0.3412 0.0
C1590 C 0.56402 0.95364 0.28569 0.0
C1591 C 0.60693 0.99753 0.31996 0.0
N1592 N 0.58572 0.92828 0.29524 0.0
N1593 N 0.58969 0.02512 0.29918 0.0
H1594 H 0.63954 0.01494 0.35545 0.0
H1595 H 0.62551 0.03448 0.34717 0.0
H1596 H 0.57508 0.02783 0.2874 0.0
H1597 H 0.60617 0.0426 0.30761 0.0
H1598 H 0.57254 0.9128 0.27898 0.0
H1599 H 0.60049 0.92526 0.30555 0.0
H1600 H 0.53723 0.91271 0.27742 0.0
H1601 H 0.52624 0.93309 0.26087 0.0
C1602 C 0.02097 0.62058 0.33499 0.0
C1603 C 0.03671 0.64595 0.32028 0.0
C1604 C 0.05431 0.62769 0.27735 0.0
C1605 C 0.0356 0.60189 0.28816 0.0
N1606 N 1.00033 0.57309 0.32633 0.0
N1607 N 0.06494 0.67302 0.27359 0.0
C1608 C 0.01886 0.59809 0.31706 0.0
C1609 C 0.05259 0.64938 0.29052 0.0
N1610 N 0.00798 0.61804 0.3658 0.0
N1611 N 0.07369 0.63137 0.25431 0.0
H1612 H 0.06349 0.68924 0.28173 0.0
H1613 H 0.07444 0.67578 0.24954 0.0
H1614 H 0.0757 0.61581 0.24452 0.0
H1615 H 0.0893 0.64991 0.24793 0.0
H1616 H 0.99807 0.60047 0.37961 0.0
H1617 H 0.0087 0.63411 0.37888 0.0
H1618 H 0.98555 0.56889 0.34455 0.0
H1619 H 0.99899 0.5564 0.31431 0.0
C1620 C 0.3802 0.43285 0.31805 0.0
C1621 C 0.37748 0.40906 0.33143 0.0
C1622 C 0.42254 0.42236 0.31385 0.0
C1623 C 0.4249 0.44559 0.29884 0.0
N1624 N 0.40958 0.47655 0.29481 0.0
N1625 N 0.39816 0.38519 0.3526 0.0
C1626 C 0.4049 0.45209 0.30401 0.0
C1627 C 0.39947 0.40525 0.33289 0.0
N1628 N 0.35879 0.43625 0.31664 0.0
N1629 N 0.44144 0.41569 0.30782 0.0
H1630 H 0.38154 0.37271 0.36727 0.0
H1631 H 0.41425 0.38262 0.35729 0.0
H1632 H 0.45893 0.42786 0.29466 0.0
H1633 H 0.43913 0.39738 0.31406 0.0
H1634 H 0.35862 0.45169 0.30346 0.0
H1635 H 0.34057 0.42279 0.3272 0.0
H1636 H 0.39676 0.48351 0.30031 0.0
H1637 H 0.4276 0.49077 0.28445 0.0
C1638 C 0.30318 0.25934 0.37732 0.0
C1639 C 0.32328 0.28503 0.36778 0.0
C1640 C 0.35733 0.27525 0.38745 0.0
C1641 C 0.33724 0.24999 0.3983 0.0
N1642 N 0.29206 0.21518 0.39502 0.0
N1643 N 0.36877 0.31457 0.3537 0.0
C1644 C 0.31046 0.24107 0.39002 0.0
C1645 C 0.35018 0.29201 0.36952 0.0
N1646 N 0.27732 0.25303 0.3767 0.0
N1647 N 0.38307 0.28377 0.39609 0.0
H1648 H 0.36386 0.32683 0.33974 0.0
H1649 H 0.38848 0.31976 0.3514 0.0
H1650 H 0.38911 0.27169 0.40812 0.0
H1651 H 0.39826 0.30314 0.39298 0.0
H1652 H 0.26211 0.23579 0.3873 0.0
H1653 H 0.2711 0.26579 0.36763 0.0
H1654 H 0.27246 0.2067 0.38678 0.0
H1655 H 0.29712 0.20159 0.40448 0.0
C1656 C 0.75862 0.03854 0.38704 0.0
C1657 C 0.73699 0.04007 0.37256 0.0
C1658 C 0.75502 0.08489 0.39645 0.0
C1659 C 0.77612 0.08302 0.41197 0.0
N1660 N 0.8011 0.06056 0.4169 0.0
N1661 N 0.71725 0.06594 0.3563 0.0
C1662 C 0.77905 0.06076 0.40522 0.0
C1663 C 0.73606 0.06372 0.37502 0.0
N1664 N 0.75866 0.01522 0.38587 0.0
N1665 N 0.75278 0.10661 0.40324 0.0
H1666 H 0.70334 0.05078 0.34012 0.0
H1667 H 0.71661 0.0833 0.35438 0.0
H1668 H 0.76721 0.12305 0.41708 0.0
H1669 H 0.73633 0.10807 0.39646 0.0
H1670 H 0.77167 0.01161 0.4003 0.0
H1671 H 0.74452 0.99848 0.37241 0.0
H1672 H 0.80613 0.04668 0.40881 0.0
H1673 H 0.81556 0.07526 0.43291 0.0
C1674 C 0.94451 0.67589 0.37126 0.0
C1675 C 0.96557 0.70203 0.37641 0.0
C1676 C 0.93602 0.71289 0.40857 0.0
C1677 C 0.91685 0.6857 0.40938 0.0
N1678 N 0.90287 0.64073 0.39256 0.0
N1679 N 0.98193 0.74594 0.39989 0.0
C1680 C 0.92084 0.66705 0.39041 0.0
C1681 C 0.96137 0.72091 0.39437 0.0
N1682 N 0.94722 0.65958 0.34788 0.0
N1683 N 0.92993 0.73088 0.42182 0.0
H1684 H 1.00061 0.75265 0.38941 0.0
H1685 H 0.98097 0.75964 0.41645 0.0
H1686 H 0.91145 0.7253 0.43237 0.0
H1687 H 0.94209 0.75118 0.41948 0.0
H1688 H 0.93177 0.64105 0.34046 0.0
H1689 H 0.96429 0.66572 0.33316 0.0
H1690 H 0.90634 0.62604 0.38312 0.0
H1691 H 0.88504 0.63335 0.40578 0.0
C1692 C 0.39319 0.00304 0.6968 0.0
C1693 C 0.40016 0.0299 0.69872 0.0
C1694 C 0.44312 0.04122 0.72442 0.0
C1695 C 0.43395 0.01402 0.72887 0.0
N1696 N 0.40054 0.96858 0.71924 0.0
N1697 N 0.43179 0.07512 0.71342 0.0
C1698 C 0.40926 0.99475 0.71437 0.0
C1699 C 0.42541 0.04929 0.71156 0.0
N1700 N 0.37134 0.9856 0.67781 0.0
N1701 N 0.46867 0.05919 0.73314 0.0
H1702 H 0.41948 0.08177 0.70373 0.0
H1703 H 0.44859 0.0898 0.7262 0.0
H1704 H 0.48182 0.05351 0.74267 0.0
H1705 H 0.47745 0.07926 0.72807 0.0
H1706 H 0.36627 0.96612 0.67286 0.0
H1707 H 0.35967 0.99143 0.66404 0.0
H1708 H 0.38139 0.95365 0.71337 0.0
H1709 H 0.4122 0.96181 0.73083 0.0
C1710 C 0.00479 0.39955 0.70293 0.0
C1711 C 0.97861 0.37867 0.70762 0.0
C1712 C 0.96762 0.4092 0.73706 0.0
C1713 C 0.99483 0.42825 0.73882 0.0
N1714 N 0.0399 0.44173 0.72426 0.0
N1715 N 0.93459 0.36306 0.72923 0.0
C1716 C 0.01356 0.42374 0.72131 0.0
C1717 C 0.95963 0.38343 0.72396 0.0
N1718 N 0.02119 0.39617 0.68076 0.0
N1719 N 0.94961 0.41578 0.74859 0.0
H1720 H 0.92792 0.34396 0.7199 0.0
H1721 H 0.92083 0.36465 0.74469 0.0
H1722 H 0.95525 0.4346 0.75833 0.0
H1723 H 0.92931 0.40362 0.74546 0.0
H1724 H 0.03978 0.41138 0.67374 0.0
H1725 H 0.01509 0.3787 0.66655 0.0
H1726 H 0.05462 0.43795 0.71607 0.0
H1727 H 0.04723 0.45996 0.73686 0.0
C1728 C 0.64509 0.59685 0.73883 0.0
C1729 C 0.64178 0.61114 0.71109 0.0
C1730 C 0.5939 0.5871 0.72024 0.0
C1731 C 0.59734 0.57231 0.74703 0.0
N1732 N 0.62495 0.55819 0.77566 0.0
N1733 N 0.61305 0.61667 0.67069 0.0
C1734 C 0.62254 0.57545 0.754 0.0
C1735 C 0.61612 0.60525 0.70029 0.0
N1736 N 0.66961 0.60502 0.75281 0.0
N1737 N 0.5696 0.58444 0.71479 0.0
H1738 H 0.62897 0.62988 0.6555 0.0
H1739 H 0.59477 0.61145 0.65954 0.0
H1740 H 0.55284 0.57057 0.72807 0.0
H1741 H 0.56629 0.59678 0.69857 0.0
H1742 H 0.67283 0.5971 0.77555 0.0
H1743 H 0.68659 0.62162 0.74411 0.0
H1744 H 0.64248 0.55792 0.77886 0.0
H1745 H 0.60885 0.54249 0.78779 0.0
C1746 C 0.68941 0.74611 0.65058 0.0
C1747 C 0.71298 0.74483 0.65156 0.0
C1748 C 0.73585 0.78529 0.61709 0.0
C1749 C 0.71195 0.78588 0.61472 0.0
N1750 N 0.66802 0.77116 0.63488 0.0
N1751 N 0.76005 0.7659 0.64295 0.0
C1752 C 0.68938 0.76768 0.63354 0.0
C1753 C 0.73674 0.76549 0.6375 0.0
N1754 N 0.66698 0.72632 0.66524 0.0
N1755 N 0.75717 0.8026 0.59782 0.0
H1756 H 0.76146 0.75106 0.65596 0.0
H1757 H 0.7784 0.78189 0.63686 0.0
H1758 H 0.7577 0.81803 0.58362 0.0
H1759 H 0.77389 0.80097 0.59422 0.0
H1760 H 0.64838 0.72424 0.66212 0.0
H1761 H 0.66684 0.71125 0.67992 0.0
H1762 H 0.65148 0.75991 0.6502 0.0
H1763 H 0.66775 0.7869 0.62256 0.0
C1764 C 0.25517 0.97078 0.64127 0.0
C1765 C 0.27902 0.97412 0.65591 0.0
C1766 C 0.26588 0.92851 0.64065 0.0
C1767 C 0.24252 0.92545 0.62459 0.0
N1768 N 0.21147 0.94047 0.61736 0.0
N1769 N 0.3034 0.95465 0.67947 0.0
C1770 C 0.23597 0.94557 0.62775 0.0
C1771 C 0.28312 0.95239 0.6589 0.0
N1772 N 0.2516 0.99202 0.63847 0.0
N1773 N 0.27239 0.90929 0.63661 0.0
H1774 H 0.31591 0.97184 0.69367 0.0
H1775 H 0.30623 0.9389 0.68526 0.0
H1776 H 0.25997 0.89122 0.62427 0.0
H1777 H 0.29069 0.91177 0.64376 0.0
H1778 H 0.2361 0.99167 0.62443 0.0
H1779 H 0.265 0.01059 0.64879 0.0
H1780 H 0.20447 0.95344 0.62144 0.0
H1781 H 0.19721 0.92207 0.6074 0.0
C1782 C 0.03603 0.28725 0.64712 0.0
C1783 C 0.03689 0.31012 0.66129 0.0
C1784 C 0.08331 0.33685 0.64436 0.0
C1785 C 0.08091 0.31504 0.62491 0.0
N1786 N 0.0547 0.26954 0.60597 0.0
N1787 N 0.06112 0.35654 0.67528 0.0
C1788 C 0.05741 0.29007 0.62646 0.0
C1789 C 0.06061 0.33487 0.66082 0.0
N1790 N 0.01455 0.26289 0.65257 0.0
N1791 N 0.10735 0.35938 0.64676 0.0
H1792 H 0.04534 0.35538 0.68939 0.0
H1793 H 0.07666 0.37574 0.67236 0.0
H1794 H 0.12414 0.36102 0.63494 0.0
H1795 H 0.11121 0.37551 0.66262 0.0
H1796 H 0.01411 0.24534 0.64638 0.0
H1797 H 0.99779 0.25991 0.66585 0.0
H1798 H 0.03683 0.25219 0.60181 0.0
H1799 H 0.06995 0.27031 0.59111 0.0
C1800 C 0.25047 0.28559 0.63672 0.0
C1801 C 0.27235 0.30866 0.65107 0.0
C1802 C 0.2512 0.33442 0.63616 0.0
C1803 C 0.23183 0.31254 0.61653 0.0
N1804 N 0.21264 0.26726 0.59709 0.0
N1805 N 0.29352 0.35471 0.6669 0.0
C1806 C 0.23096 0.2879 0.61721 0.0
C1807 C 0.27253 0.33295 0.65191 0.0
N1808 N 0.24868 0.2616 0.64099 0.0
N1809 N 0.24908 0.35651 0.63939 0.0
H1810 H 0.30856 0.3538 0.68059 0.0
H1811 H 0.29658 0.37373 0.66498 0.0
H1812 H 0.23349 0.3578 0.62804 0.0
H1813 H 0.26133 0.37262 0.6554 0.0
H1814 H 0.23192 0.24375 0.63445 0.0
H1815 H 0.26314 0.2592 0.65371 0.0
H1816 H 0.21312 0.24999 0.5925 0.0
H1817 H 0.19757 0.26786 0.58311 0.0
C1818 C 0.72893 0.97706 0.64811 0.0
C1819 C 0.70462 0.97475 0.65813 0.0
C1820 C 0.68089 0.92945 0.63492 0.0
C1821 C 0.70463 0.93353 0.61954 0.0
N1822 N 0.75117 0.96209 0.60881 0.0
N1823 N 0.65733 0.94915 0.66218 0.0
C1824 C 0.72877 0.95735 0.62599 0.0
C1825 C 0.68053 0.9509 0.65221 0.0
N1826 N 0.7522 0.99836 0.65912 0.0
N1827 N 0.6588 0.90506 0.63272 0.0
H1828 H 0.65666 0.96407 0.67646 0.0
H1829 H 0.63881 0.93354 0.65515 0.0
H1830 H 0.65879 0.88912 0.62026 0.0
H1831 H 0.64129 0.9 0.64561 0.0
H1832 H 0.77049 0.99976 0.65577 0.0
H1833 H 0.75317 0.01369 0.67435 0.0
H1834 H 0.76836 0.98044 0.60864 0.0
H1835 H 0.7522 0.94831 0.59245 0.0
C1836 C 0.04848 0.75912 0.65837 0.0
C1837 C 0.04193 0.73224 0.65909 0.0
C1838 C 0.08448 0.74389 0.63259 0.0
C1839 C 0.09036 0.77041 0.6302 0.0
N1840 N 0.08204 0.80483 0.64812 0.0
N1841 N 0.05577 0.69991 0.65458 0.0
C1842 C 0.07371 0.77853 0.64586 0.0
C1843 C 0.0607 0.72496 0.64876 0.0
N1844 N 0.02997 0.76579 0.66713 0.0
N1845 N 0.101 0.73658 0.61741 0.0
H1846 H 0.03814 0.68521 0.66503 0.0
H1847 H 0.06973 0.69406 0.65149 0.0
H1848 H 0.1193 0.75019 0.60714 0.0
H1849 H 0.09627 0.7171 0.61359 0.0
H1850 H 0.03242 0.78446 0.66342 0.0
H1851 H 0.01125 0.75221 0.67613 0.0
H1852 H 0.07204 0.81253 0.66182 0.0
H1853 H 0.10038 0.81919 0.63879 0.0
C1854 C 0.97038 0.58826 0.70826 0.0
C1855 C 0.98852 0.61589 0.70979 0.0
C1856 C 0.02224 0.60755 0.73507 0.0
C1857 C 0.0029 0.5807 0.73914 0.0
N1858 N 0.95874 0.54478 0.72991 0.0
N1859 N 0.03138 0.65218 0.72696 0.0
C1860 C 0.9771 0.57073 0.72519 0.0
C1861 C 0.01446 0.62563 0.72351 0.0
N1862 N 0.94653 0.57886 0.69156 0.0
N1863 N 0.04807 0.61571 0.74272 0.0
H1864 H 0.02685 0.66628 0.71839 0.0
H1865 H 0.04926 0.66035 0.74069 0.0
H1866 H 0.05427 0.60283 0.75148 0.0
H1867 H 0.0636 0.63447 0.73714 0.0
H1868 H 0.93365 0.55894 0.68635 0.0
H1869 H 0.94012 0.59103 0.68088 0.0
H1870 H 0.93871 0.5367 0.72445 0.0
H1871 H 0.96353 0.5314 0.74086 0.0
C1872 C 0.42466 0.38044 0.71209 0.0
C1873 C 0.40149 0.38057 0.70136 0.0
C1874 C 0.41889 0.42476 0.72713 0.0
C1875 C 0.43968 0.42254 0.74287 0.0
N1876 N 0.4612 0.39715 0.75345 0.0
N1877 N 0.37618 0.40251 0.69737 0.0
C1878 C 0.4426 0.40034 0.73565 0.0
C1879 C 0.39862 0.4028 0.7082 0.0
N1880 N 0.42927 0.36097 0.70058 0.0
N1881 N 0.41868 0.44787 0.73049 0.0
H1882 H 0.36177 0.38738 0.68166 0.0
H1883 H 0.37131 0.41663 0.70492 0.0
H1884 H 0.43341 0.46415 0.74427 0.0
H1885 H 0.40531 0.45171 0.71744 0.0
H1886 H 0.44722 0.36164 0.70431 0.0
H1887 H 0.41616 0.3452 0.68467 0.0
H1888 H 0.46176 0.37968 0.75307 0.0
H1889 H 0.47495 0.41112 0.77096 0.0
C1890 C 0.63 0.05 0.72353 0.0
C1891 C 0.63444 0.03066 0.70734 0.0
C1892 C 0.58898 0.99639 0.71962 0.0
C1893 C 0.58472 0.01559 0.73651 0.0
N1894 N 0.59798 0.06112 0.74599 0.0
N1895 N 0.61629 0.98764 0.68036 0.0
C1896 C 0.6042 0.04263 0.73528 0.0
C1897 C 0.61324 0.00454 0.70221 0.0
N1898 N 0.65066 0.07482 0.73011 0.0
N1899 N 0.57055 0.97022 0.72206 0.0
H1900 H 0.63369 0.99328 0.66667 0.0
H1901 H 0.60086 0.96908 0.67302 0.0
H1902 H 0.55225 0.96345 0.73379 0.0
H1903 H 0.57399 0.95515 0.7143 0.0
H1904 H 0.64912 0.08874 0.7455 0.0
H1905 H 0.66992 0.08106 0.72241 0.0
H1906 H 0.61047 0.08132 0.74297 0.0
H1907 H 0.57916 0.05599 0.7548 0.0
loop_
_geom_bond_atom_site_label_1
_geom_bond_atom_site_label_2
_geom_bond_distance
_geom_bond_site_symmetry_2
_ccdc_geom_bond_type
In0 O1 2.294 1_455 S
In0 O2 2.326 . S
In0 O6 2.266 1_455 S
In0 O7 2.326 1_454 S
In0 O8 2.266 1_554 S
In0 O9 2.326 1_454 S
In0 O11 2.294 . S
In0 O12 2.326 . S
O1 In0 2.294 1_655 S
O1 C10 1.240 1_655 S
O2 In0 2.326 . S
O2 C10 1.252 . S
C3 O6 1.252 1_556 S
C3 O7 1.260 . S
C4 O11 1.240 . S
C4 O12 1.252 . S
C5 O8 1.252 . S
C5 O9 1.260 1_455 S
O6 In0 2.266 1_655 S
O6 C3 1.252 1_554 S
O7 In0 2.326 1_656 S
O7 C3 1.260 . S
O8 In0 2.266 1_556 S
O8 C5 1.252 . S
O9 In0 2.326 1_656 S
O9 C5 1.260 1_655 S
C10 O1 1.240 1_455 S
C10 O2 1.252 . S
O11 In0 2.294 . S
O11 C4 1.240 . S
O12 In0 2.326 . S
O12 C4 1.252 . S
In13 O14 2.294 . S
In13 O15 2.326 . S
In13 O19 2.266 . S
In13 O20 2.326 1_554 S
In13 O21 2.266 1_554 S
In13 O22 2.326 1_554 S
In13 O24 2.294 . S
In13 O25 2.326 . S
O14 In13 2.294 . S
O14 C23 1.240 . S
O15 In13 2.326 . S
O15 C23 1.252 . S
C16 O19 1.252 1_556 S
C16 O20 1.260 . S
C17 O24 1.240 . S
C17 O25 1.252 . S
C18 O21 1.252 . S
C18 O22 1.260 . S
O19 In13 2.266 . S
O19 C16 1.252 1_554 S
O20 In13 2.326 1_556 S
O20 C16 1.260 . S
O21 In13 2.266 1_556 S
O21 C18 1.252 . S
O22 In13 2.326 1_556 S
O22 C18 1.260 . S
C23 O14 1.240 . S
C23 O15 1.252 . S
O24 In13 2.294 . S
O24 C17 1.240 . S
O25 In13 2.326 . S
O25 C17 1.252 . S
In26 O27 2.294 . S
In26 O28 2.326 1_554 S
In26 O32 2.266 . S
In26 O33 2.326 1_545 S
In26 O34 2.266 1_545 S
In26 O35 2.326 1_545 S
In26 O37 2.294 1_544 S
In26 O38 2.326 1_554 S
O27 In26 2.294 . S
O27 C36 1.240 1_554 S
O28 In26 2.326 1_556 S
O28 C36 1.252 . S
C29 O32 1.252 . S
C29 O33 1.260 1_545 S
C30 O37 1.240 1_545 S
C30 O38 1.252 . S
C31 O34 1.252 . S
C31 O35 1.260 . S
O32 In26 2.266 . S
O32 C29 1.252 . S
O33 In26 2.326 1_565 S
O33 C29 1.260 1_565 S
O34 In26 2.266 1_565 S
O34 C31 1.252 . S
O35 In26 2.326 1_565 S
O35 C31 1.260 . S
C36 O27 1.240 1_556 S
C36 O28 1.252 . S
O37 In26 2.294 1_566 S
O37 C30 1.240 1_565 S
O38 In26 2.326 1_556 S
O38 C30 1.252 . S
In39 O40 2.294 1_554 S
In39 O41 2.326 1_454 S
In39 O45 2.266 . S
In39 O46 2.326 . S
In39 O47 2.266 1_455 S
In39 O48 2.326 . S
In39 O50 2.294 1_455 S
In39 O51 2.326 1_454 S
O40 In39 2.294 1_556 S
O40 C49 1.240 . S
O41 In39 2.326 1_656 S
O41 C49 1.252 1_655 S
C42 O45 1.252 . S
C42 O46 1.260 . S
C43 O50 1.240 1_556 S
C43 O51 1.252 . S
C44 O47 1.252 1_455 S
C44 O48 1.260 . S
O45 In39 2.266 . S
O45 C42 1.252 . S
O46 In39 2.326 . S
O46 C42 1.260 . S
O47 In39 2.266 1_655 S
O47 C44 1.252 1_655 S
O48 In39 2.326 . S
O48 C44 1.260 . S
C49 O40 1.240 . S
C49 O41 1.252 1_455 S
O50 In39 2.294 1_655 S
O50 C43 1.240 1_554 S
O51 In39 2.326 1_656 S
O51 C43 1.252 . S
In52 O53 2.294 1_554 S
In52 O54 2.326 1_554 S
In52 O58 2.266 . S
In52 O59 2.326 . S
In52 O60 2.266 . S
In52 O61 2.326 . S
In52 O63 2.294 . S
In52 O64 2.326 1_554 S
O53 In52 2.294 1_556 S
O53 C62 1.240 . S
O54 In52 2.326 1_556 S
O54 C62 1.252 . S
C55 O58 1.252 . S
C55 O59 1.260 . S
C56 O63 1.240 1_556 S
C56 O64 1.252 . S
C57 O60 1.252 . S
C57 O61 1.260 . S
O58 In52 2.266 . S
O58 C55 1.252 . S
O59 In52 2.326 . S
O59 C55 1.260 . S
O60 In52 2.266 . S
O60 C57 1.252 . S
O61 In52 2.326 . S
O61 C57 1.260 . S
C62 O53 1.240 . S
C62 O54 1.252 . S
O63 In52 2.294 . S
O63 C56 1.240 1_554 S
O64 In52 2.326 1_556 S
O64 C56 1.252 . S
In65 O66 2.294 . S
In65 O67 2.326 1_545 S
In65 O71 2.266 . S
In65 O72 2.326 1_554 S
In65 O73 2.266 1_544 S
In65 O74 2.326 1_554 S
In65 O76 2.294 1_545 S
In65 O77 2.326 1_545 S
O66 In65 2.294 . S
O66 C75 1.240 . S
O67 In65 2.326 1_565 S
O67 C75 1.252 1_565 S
C68 O71 1.252 1_556 S
C68 O72 1.260 . S
C69 O76 1.240 . S
C69 O77 1.252 . S
C70 O73 1.252 1_545 S
C70 O74 1.260 . S
O71 In65 2.266 . S
O71 C68 1.252 1_554 S
O72 In65 2.326 1_556 S
O72 C68 1.260 . S
O73 In65 2.266 1_566 S
O73 C70 1.252 1_565 S
O74 In65 2.326 1_556 S
O74 C70 1.260 . S
C75 O66 1.240 . S
C75 O67 1.252 1_545 S
O76 In65 2.294 1_565 S
O76 C69 1.240 . S
O77 In65 2.326 1_565 S
O77 C69 1.252 . S
In78 O79 2.294 . S
In78 O80 2.326 . S
In78 O84 2.266 . S
In78 O85 2.326 . S
In78 O86 2.266 . S
In78 O87 2.326 . S
In78 O89 2.294 . S
In78 O90 2.326 . S
O79 In78 2.294 . S
O79 C88 1.240 . S
O80 In78 2.326 . S
O80 C88 1.252 . S
C81 O84 1.252 . S
C81 O85 1.260 . S
C82 O89 1.240 . S
C82 O90 1.252 . S
C83 O86 1.252 . S
C83 O87 1.260 . S
O84 In78 2.266 . S
O84 C81 1.252 . S
O85 In78 2.326 . S
O85 C81 1.260 . S
O86 In78 2.266 . S
O86 C83 1.252 . S
O87 In78 2.326 . S
O87 C83 1.260 . S
C88 O79 1.240 . S
C88 O80 1.252 . S
O89 In78 2.294 . S
O89 C82 1.240 . S
O90 In78 2.326 . S
O90 C82 1.252 . S
In91 O92 2.294 . S
In91 O93 2.326 . S
In91 O97 2.266 . S
In91 O98 2.326 1_565 S
In91 O99 2.266 . S
In91 O100 2.326 . S
In91 O102 2.294 1_565 S
In91 O103 2.326 1_565 S
O92 In91 2.294 . S
O92 C101 1.240 . S
O93 In91 2.326 . S
O93 C101 1.252 . S
C94 O97 1.252 . S
C94 O98 1.260 1_565 S
C95 O102 1.240 . S
C95 O103 1.252 . S
C96 O99 1.252 . S
C96 O100 1.260 . S
O97 In91 2.266 . S
O97 C94 1.252 . S
O98 In91 2.326 1_545 S
O98 C94 1.260 1_545 S
O99 In91 2.266 . S
O99 C96 1.252 . S
O100 In91 2.326 . S
O100 C96 1.260 . S
C101 O92 1.240 . S
C101 O93 1.252 . S
O102 In91 2.294 1_545 S
O102 C95 1.240 . S
O103 In91 2.326 1_545 S
O103 C95 1.252 . S
In104 O105 2.294 . S
In104 O106 2.326 . S
In104 O110 2.266 . S
In104 O111 2.326 . S
In104 O112 2.266 1_455 S
In104 O113 2.326 1_455 S
In104 O115 2.294 . S
In104 O116 2.326 . S
O105 In104 2.294 . S
O105 C114 1.240 . S
O106 In104 2.326 . S
O106 C114 1.252 . S
C107 O110 1.252 . S
C107 O111 1.260 . S
C108 O115 1.240 . S
C108 O116 1.252 . S
C109 O112 1.252 . S
C109 O113 1.260 . S
O110 In104 2.266 . S
O110 C107 1.252 . S
O111 In104 2.326 . S
O111 C107 1.260 . S
O112 In104 2.266 1_655 S
O112 C109 1.252 . S
O113 In104 2.326 1_655 S
O113 C109 1.260 . S
C114 O105 1.240 . S
C114 O106 1.252 . S
O115 In104 2.294 . S
O115 C108 1.240 . S
O116 In104 2.326 . S
O116 C108 1.252 . S
In117 O118 2.294 . S
In117 O119 2.326 . S
In117 O123 2.266 1_565 S
In117 O124 2.326 1_565 S
In117 O125 2.266 . S
In117 O126 2.326 . S
In117 O128 2.294 . S
In117 O129 2.326 1_565 S
O118 In117 2.294 . S
O118 C127 1.240 . S
O119 In117 2.326 . S
O119 C127 1.252 . S
C120 O123 1.252 . S
C120 O124 1.260 . S
C121 O128 1.240 . S
C121 O129 1.252 1_565 S
C122 O125 1.252 . S
C122 O126 1.260 . S
O123 In117 2.266 1_545 S
O123 C120 1.252 . S
O124 In117 2.326 1_545 S
O124 C120 1.260 . S
O125 In117 2.266 . S
O125 C122 1.252 . S
O126 In117 2.326 . S
O126 C122 1.260 . S
C127 O118 1.240 . S
C127 O119 1.252 . S
O128 In117 2.294 . S
O128 C121 1.240 . S
O129 In117 2.326 1_545 S
O129 C121 1.252 1_545 S
In130 O131 2.294 . S
In130 O132 2.326 . S
In130 O136 2.266 1_455 S
In130 O137 2.326 1_455 S
In130 O138 2.266 . S
In130 O139 2.326 . S
In130 O141 2.294 . S
In130 O142 2.326 . S
O131 In130 2.294 . S
O131 C140 1.240 . S
O132 In130 2.326 . S
O132 C140 1.252 . S
C133 O136 1.252 . S
C133 O137 1.260 . S
C134 O141 1.240 . S
C134 O142 1.252 . S
C135 O138 1.252 . S
C135 O139 1.260 . S
O136 In130 2.266 1_655 S
O136 C133 1.252 . S
O137 In130 2.326 1_655 S
O137 C133 1.260 . S
O138 In130 2.266 . S
O138 C135 1.252 . S
O139 In130 2.326 . S
O139 C135 1.260 . S
C140 O131 1.240 . S
C140 O132 1.252 . S
O141 In130 2.294 . S
O141 C134 1.240 . S
O142 In130 2.326 . S
O142 C134 1.252 . S
In143 O144 2.294 . S
In143 O145 2.326 . S
In143 O149 2.266 . S
In143 O150 2.326 . S
In143 O151 2.266 . S
In143 O152 2.326 . S
In143 O154 2.294 . S
In143 O155 2.326 . S
O144 In143 2.294 . S
O144 C153 1.240 . S
O145 In143 2.326 . S
O145 C153 1.252 . S
C146 O149 1.252 . S
C146 O150 1.260 . S
C147 O154 1.240 . S
C147 O155 1.252 . S
C148 O151 1.252 . S
C148 O152 1.260 . S
O149 In143 2.266 . S
O149 C146 1.252 . S
O150 In143 2.326 . S
O150 C146 1.260 . S
O151 In143 2.266 . S
O151 C148 1.252 . S
O152 In143 2.326 . S
O152 C148 1.260 . S
C153 O144 1.240 . S
C153 O145 1.252 . S
O154 In143 2.294 . S
O154 C147 1.240 . S
O155 In143 2.326 . S
O155 C147 1.252 . S
In156 O157 2.294 . S
In156 O158 2.326 . S
In156 O162 2.266 . S
In156 O163 2.326 . S
In156 O164 2.266 1_545 S
In156 O165 2.326 1_545 S
In156 O167 2.294 . S
In156 O168 2.326 . S
O157 In156 2.294 . S
O157 C166 1.240 . S
O158 In156 2.326 . S
O158 C166 1.252 . S
C159 O162 1.252 . S
C159 O163 1.260 . S
C160 O167 1.240 . S
C160 O168 1.252 . S
C161 O164 1.252 . S
C161 O165 1.260 . S
O162 In156 2.266 . S
O162 C159 1.252 . S
O163 In156 2.326 . S
O163 C159 1.260 . S
O164 In156 2.266 1_565 S
O164 C161 1.252 . S
O165 In156 2.326 1_565 S
O165 C161 1.260 . S
C166 O157 1.240 . S
C166 O158 1.252 . S
O167 In156 2.294 . S
O167 C160 1.240 . S
O168 In156 2.326 . S
O168 C160 1.252 . S
In169 O170 2.294 . S
In169 O171 2.326 1_655 S
In169 O175 2.266 . S
In169 O176 2.326 . S
In169 O177 2.266 1_655 S
In169 O178 2.326 1_655 S
In169 O180 2.294 . S
In169 O181 2.326 . S
O170 In169 2.294 . S
O170 C179 1.240 . S
O171 In169 2.326 1_455 S
O171 C179 1.252 1_455 S
C172 O175 1.252 . S
C172 O176 1.260 . S
C173 O180 1.240 . S
C173 O181 1.252 . S
C174 O177 1.252 . S
C174 O178 1.260 . S
O175 In169 2.266 . S
O175 C172 1.252 . S
O176 In169 2.326 . S
O176 C172 1.260 . S
O177 In169 2.266 1_455 S
O177 C174 1.252 . S
O178 In169 2.326 1_455 S
O178 C174 1.260 . S
C179 O170 1.240 . S
C179 O171 1.252 1_655 S
O180 In169 2.294 . S
O180 C173 1.240 . S
O181 In169 2.326 . S
O181 C173 1.252 . S
In182 O183 2.294 . S
In182 O184 2.326 . S
In182 O188 2.266 . S
In182 O189 2.326 . S
In182 O190 2.266 . S
In182 O191 2.326 . S
In182 O193 2.294 . S
In182 O194 2.326 . S
O183 In182 2.294 . S
O183 C192 1.240 . S
O184 In182 2.326 . S
O184 C192 1.252 . S
C185 O188 1.252 . S
C185 O189 1.260 . S
C186 O193 1.240 . S
C186 O194 1.252 . S
C187 O190 1.252 . S
C187 O191 1.260 . S
O188 In182 2.266 . S
O188 C185 1.252 . S
O189 In182 2.326 . S
O189 C185 1.260 . S
O190 In182 2.266 . S
O190 C187 1.252 . S
O191 In182 2.326 . S
O191 C187 1.260 . S
C192 O183 1.240 . S
C192 O184 1.252 . S
O193 In182 2.294 . S
O193 C186 1.240 . S
O194 In182 2.326 . S
O194 C186 1.252 . S
In195 O196 2.294 . S
In195 O197 2.326 . S
In195 O201 2.266 . S
In195 O202 2.326 . S
In195 O203 2.266 . S
In195 O204 2.326 . S
In195 O206 2.294 . S
In195 O207 2.326 . S
O196 In195 2.294 . S
O196 C205 1.240 . S
O197 In195 2.326 . S
O197 C205 1.252 . S
C198 O201 1.252 . S
C198 O202 1.260 . S
C199 O206 1.240 . S
C199 O207 1.252 . S
C200 O203 1.252 . S
C200 O204 1.260 . S
O201 In195 2.266 . S
O201 C198 1.252 . S
O202 In195 2.326 . S
O202 C198 1.260 . S
O203 In195 2.266 . S
O203 C200 1.252 . S
O204 In195 2.326 . S
O204 C200 1.260 . S
C205 O196 1.240 . S
C205 O197 1.252 . S
O206 In195 2.294 . S
O206 C199 1.240 . S
O207 In195 2.326 . S
O207 C199 1.252 . S
In208 O209 2.294 . S
In208 O210 2.326 . S
In208 O214 2.266 . S
In208 O215 2.326 . S
In208 O216 2.266 . S
In208 O217 2.326 . S
In208 O219 2.294 1_545 S
In208 O220 2.326 1_545 S
O209 In208 2.294 . S
O209 C218 1.240 . S
O210 In208 2.326 . S
O210 C218 1.252 . S
C211 O214 1.252 . S
C211 O215 1.260 . S
C212 O219 1.240 . S
C212 O220 1.252 . S
C213 O216 1.252 . S
C213 O217 1.260 . S
O214 In208 2.266 . S
O214 C211 1.252 . S
O215 In208 2.326 . S
O215 C211 1.260 . S
O216 In208 2.266 . S
O216 C213 1.252 . S
O217 In208 2.326 . S
O217 C213 1.260 . S
C218 O209 1.240 . S
C218 O210 1.252 . S
O219 In208 2.294 1_565 S
O219 C212 1.240 . S
O220 In208 2.326 1_565 S
O220 C212 1.252 . S
In221 O222 2.294 . S
In221 O223 2.326 1_655 S
In221 O227 2.266 . S
In221 O228 2.326 . S
In221 O229 2.266 1_655 S
In221 O230 2.326 1_655 S
In221 O232 2.294 . S
In221 O233 2.326 . S
O222 In221 2.294 . S
O222 C231 1.240 . S
O223 In221 2.326 1_455 S
O223 C231 1.252 1_455 S
C224 O227 1.252 . S
C224 O228 1.260 . S
C225 O232 1.240 . S
C225 O233 1.252 . S
C226 O229 1.252 . S
C226 O230 1.260 . S
O227 In221 2.266 . S
O227 C224 1.252 . S
O228 In221 2.326 . S
O228 C224 1.260 . S
O229 In221 2.266 1_455 S
O229 C226 1.252 . S
O230 In221 2.326 1_455 S
O230 C226 1.260 . S
C231 O222 1.240 . S
C231 O223 1.252 1_655 S
O232 In221 2.294 . S
O232 C225 1.240 . S
O233 In221 2.326 . S
O233 C225 1.252 . S
H234 C242 0.930 . S
H235 C245 0.930 . S
H236 C247 0.930 . S
H237 C248 0.970 . S
H238 C248 0.970 . S
H239 C250 0.930 . S
H240 C252 0.930 . S
H241 C254 0.930 . S
C242 H234 0.930 . S
C242 C243 1.382 . S
C242 C244 1.426 . S
C243 C242 1.382 . S
C243 C247 1.389 . S
C244 C242 1.426 . S
C244 C245 1.375 . S
C244 C248 1.532 . S
C245 H235 0.930 . S
C245 C244 1.375 . S
C245 C246 1.416 . S
C246 C245 1.416 . S
C246 C247 1.371 . S
C247 H236 0.930 . S
C247 C243 1.389 . S
C247 C246 1.371 . S
C248 H237 0.970 . S
C248 H238 0.970 . S
C248 C244 1.532 . S
C248 C249 1.499 . S
C249 C248 1.499 . S
C249 C250 1.370 . S
C249 C254 1.415 . S
C250 H239 0.930 . S
C250 C249 1.370 . S
C250 C251 1.407 . S
C251 C250 1.407 . S
C251 C252 1.365 . S
C252 H240 0.930 . S
C252 C251 1.365 . S
C252 C253 1.393 . S
C253 C252 1.393 . S
C253 C254 1.387 . S
C254 H241 0.930 . S
C254 C249 1.415 . S
C254 C253 1.387 . S
H255 C263 0.930 . S
H256 C266 0.930 . S
H257 C268 0.930 . S
H258 C269 0.970 . S
H259 C269 0.970 . S
H260 C271 0.930 . S
H261 C273 0.930 . S
H262 C275 0.930 . S
C263 H255 0.930 . S
C263 C264 1.382 . S
C263 C265 1.426 . S
C264 C263 1.382 . S
C264 C268 1.389 . S
C265 C263 1.426 . S
C265 C266 1.375 . S
C265 C269 1.532 . S
C266 H256 0.930 . S
C266 C265 1.375 . S
C266 C267 1.416 . S
C267 C266 1.416 . S
C267 C268 1.371 . S
C268 H257 0.930 . S
C268 C264 1.389 . S
C268 C267 1.371 . S
C269 H258 0.970 . S
C269 H259 0.970 . S
C269 C265 1.532 . S
C269 C270 1.499 . S
C270 C269 1.499 . S
C270 C271 1.370 . S
C270 C275 1.415 . S
C271 H260 0.930 . S
C271 C270 1.370 . S
C271 C272 1.407 . S
C272 C271 1.407 . S
C272 C273 1.365 . S
C273 H261 0.930 . S
C273 C272 1.365 . S
C273 C274 1.393 . S
C274 C273 1.393 . S
C274 C275 1.387 . S
C275 H262 0.930 . S
C275 C270 1.415 . S
C275 C274 1.387 . S
H276 C284 0.930 . S
H277 C287 0.930 . S
H278 C289 0.930 . S
H279 C290 0.970 . S
H280 C290 0.970 . S
H281 C292 0.930 . S
H282 C294 0.930 . S
H283 C296 0.930 . S
C284 H276 0.930 . S
C284 C285 1.382 . S
C284 C286 1.426 . S
C285 C284 1.382 . S
C285 C289 1.389 . S
C286 C284 1.426 . S
C286 C287 1.375 . S
C286 C290 1.532 . S
C287 H277 0.930 . S
C287 C286 1.375 . S
C287 C288 1.416 . S
C288 C287 1.416 . S
C288 C289 1.371 . S
C289 H278 0.930 . S
C289 C285 1.389 . S
C289 C288 1.371 . S
C290 H279 0.970 . S
C290 H280 0.970 . S
C290 C286 1.532 . S
C290 C291 1.499 . S
C291 C290 1.499 . S
C291 C292 1.370 . S
C291 C296 1.415 . S
C292 H281 0.930 . S
C292 C291 1.370 . S
C292 C293 1.407 . S
C293 C292 1.407 . S
C293 C294 1.365 . S
C294 H282 0.930 . S
C294 C293 1.365 . S
C294 C295 1.393 . S
C295 C294 1.393 . S
C295 C296 1.387 . S
C296 H283 0.930 . S
C296 C291 1.415 . S
C296 C295 1.387 . S
H297 C305 0.930 . S
H298 C308 0.930 . S
H299 C310 0.930 . S
H300 C311 0.970 . S
H301 C311 0.970 . S
H302 C313 0.930 . S
H303 C315 0.930 . S
H304 C317 0.930 . S
C305 H297 0.930 . S
C305 C306 1.382 . S
C305 C307 1.426 . S
C306 C305 1.382 . S
C306 C310 1.389 . S
C307 C305 1.426 . S
C307 C308 1.375 . S
C307 C311 1.532 . S
C308 H298 0.930 . S
C308 C307 1.375 . S
C308 C309 1.416 . S
C309 C308 1.416 . S
C309 C310 1.371 . S
C310 H299 0.930 . S
C310 C306 1.389 . S
C310 C309 1.371 . S
C311 H300 0.970 . S
C311 H301 0.970 . S
C311 C307 1.532 . S
C311 C312 1.499 . S
C312 C311 1.499 . S
C312 C313 1.370 . S
C312 C317 1.415 . S
C313 H302 0.930 . S
C313 C312 1.370 . S
C313 C314 1.407 . S
C314 C313 1.407 . S
C314 C315 1.365 . S
C315 H303 0.930 . S
C315 C314 1.365 . S
C315 C316 1.393 . S
C316 C315 1.393 . S
C316 C317 1.387 . S
C317 H304 0.930 . S
C317 C312 1.415 . S
C317 C316 1.387 . S
H318 C326 0.930 . S
H319 C329 0.930 . S
H320 C331 0.930 . S
H321 C332 0.970 . S
H322 C332 0.970 . S
H323 C334 0.930 . S
H324 C336 0.930 . S
H325 C338 0.930 . S
C326 H318 0.930 . S
C326 C327 1.382 . S
C326 C328 1.426 . S
C327 C326 1.382 . S
C327 C331 1.389 . S
C328 C326 1.426 . S
C328 C329 1.375 . S
C328 C332 1.532 . S
C329 H319 0.930 . S
C329 C328 1.375 . S
C329 C330 1.416 . S
C330 C329 1.416 . S
C330 C331 1.371 . S
C331 H320 0.930 . S
C331 C327 1.389 . S
C331 C330 1.371 . S
C332 H321 0.970 . S
C332 H322 0.970 . S
C332 C328 1.532 . S
C332 C333 1.499 . S
C333 C332 1.499 . S
C333 C334 1.370 . S
C333 C338 1.415 . S
C334 H323 0.930 . S
C334 C333 1.370 . S
C334 C335 1.407 . S
C335 C334 1.407 . S
C335 C336 1.365 . S
C336 H324 0.930 . S
C336 C335 1.365 . S
C336 C337 1.393 . S
C337 C336 1.393 . S
C337 C338 1.387 . S
C338 H325 0.930 . S
C338 C333 1.415 . S
C338 C337 1.387 . S
H339 C347 0.930 . S
H340 C350 0.930 . S
H341 C352 0.930 . S
H342 C353 0.970 . S
H343 C353 0.970 . S
H344 C355 0.930 . S
H345 C357 0.930 . S
H346 C359 0.930 . S
C347 H339 0.930 . S
C347 C348 1.382 . S
C347 C349 1.426 . S
C348 C347 1.382 . S
C348 C352 1.389 . S
C349 C347 1.426 . S
C349 C350 1.375 . S
C349 C353 1.532 . S
C350 H340 0.930 . S
C350 C349 1.375 . S
C350 C351 1.416 . S
C351 C350 1.416 . S
C351 C352 1.371 . S
C352 H341 0.930 . S
C352 C348 1.389 . S
C352 C351 1.371 . S
C353 H342 0.970 . S
C353 H343 0.970 . S
C353 C349 1.532 . S
C353 C354 1.499 . S
C354 C353 1.499 . S
C354 C355 1.370 . S
C354 C359 1.415 . S
C355 H344 0.930 . S
C355 C354 1.370 . S
C355 C356 1.407 . S
C356 C355 1.407 . S
C356 C357 1.365 . S
C357 H345 0.930 . S
C357 C356 1.365 . S
C357 C358 1.393 . S
C358 C357 1.393 . S
C358 C359 1.387 . S
C359 H346 0.930 . S
C359 C354 1.415 . S
C359 C358 1.387 . S
H360 C368 0.930 . S
H361 C371 0.930 . S
H362 C373 0.930 . S
H363 C374 0.970 . S
H364 C374 0.970 . S
H365 C376 0.930 . S
H366 C378 0.930 . S
H367 C380 0.930 . S
C368 H360 0.930 . S
C368 C369 1.382 . S
C368 C370 1.426 . S
C369 C368 1.382 . S
C369 C373 1.389 . S
C370 C368 1.426 . S
C370 C371 1.375 . S
C370 C374 1.532 . S
C371 H361 0.930 . S
C371 C370 1.375 . S
C371 C372 1.416 . S
C372 C371 1.416 . S
C372 C373 1.371 . S
C373 H362 0.930 . S
C373 C369 1.389 . S
C373 C372 1.371 . S
C374 H363 0.970 . S
C374 H364 0.970 . S
C374 C370 1.532 . S
C374 C375 1.499 . S
C375 C374 1.499 . S
C375 C376 1.370 . S
C375 C380 1.415 . S
C376 H365 0.930 . S
C376 C375 1.370 . S
C376 C377 1.407 . S
C377 C376 1.407 . S
C377 C378 1.365 . S
C378 H366 0.930 . S
C378 C377 1.365 . S
C378 C379 1.393 . S
C379 C378 1.393 . S
C379 C380 1.387 . S
C380 H367 0.930 . S
C380 C375 1.415 . S
C380 C379 1.387 . S
H381 C389 0.930 . S
H382 C392 0.930 . S
H383 C394 0.930 . S
H384 C395 0.970 . S
H385 C395 0.970 . S
H386 C397 0.930 . S
H387 C399 0.930 . S
H388 C401 0.930 . S
C389 H381 0.930 . S
C389 C390 1.382 . S
C389 C391 1.426 . S
C390 C389 1.382 . S
C390 C394 1.389 . S
C391 C389 1.426 . S
C391 C392 1.375 . S
C391 C395 1.532 . S
C392 H382 0.930 . S
C392 C391 1.375 . S
C392 C393 1.416 . S
C393 C392 1.416 . S
C393 C394 1.371 . S
C394 H383 0.930 . S
C394 C390 1.389 . S
C394 C393 1.371 . S
C395 H384 0.970 . S
C395 H385 0.970 . S
C395 C391 1.532 . S
C395 C396 1.499 . S
C396 C395 1.499 . S
C396 C397 1.370 . S
C396 C401 1.415 . S
C397 H386 0.930 . S
C397 C396 1.370 . S
C397 C398 1.407 . S
C398 C397 1.407 . S
C398 C399 1.365 . S
C399 H387 0.930 . S
C399 C398 1.365 . S
C399 C400 1.393 . S
C400 C399 1.393 . S
C400 C401 1.387 . S
C401 H388 0.930 . S
C401 C396 1.415 . S
C401 C400 1.387 . S
H402 C410 0.930 . S
H403 C413 0.930 . S
H404 C415 0.930 . S
H405 C416 0.970 . S
H406 C416 0.970 . S
H407 C418 0.930 . S
H408 C420 0.930 . S
H409 C422 0.930 . S
C410 H402 0.930 . S
C410 C411 1.382 . S
C410 C412 1.426 . S
C411 C410 1.382 . S
C411 C415 1.389 . S
C412 C410 1.426 . S
C412 C413 1.375 . S
C412 C416 1.532 . S
C413 H403 0.930 . S
C413 C412 1.375 . S
C413 C414 1.416 . S
C414 C413 1.416 . S
C414 C415 1.371 . S
C415 H404 0.930 . S
C415 C411 1.389 . S
C415 C414 1.371 . S
C416 H405 0.970 . S
C416 H406 0.970 . S
C416 C412 1.532 . S
C416 C417 1.499 . S
C417 C416 1.499 . S
C417 C418 1.370 . S
C417 C422 1.415 . S
C418 H407 0.930 . S
C418 C417 1.370 . S
C418 C419 1.407 . S
C419 C418 1.407 . S
C419 C420 1.365 . S
C420 H408 0.930 . S
C420 C419 1.365 . S
C420 C421 1.393 . S
C421 C420 1.393 . S
C421 C422 1.387 . S
C422 H409 0.930 . S
C422 C417 1.415 . S
C422 C421 1.387 . S
H423 C431 0.930 . S
H424 C434 0.930 . S
H425 C436 0.932 . S
H426 C437 0.970 . S
H427 C437 0.970 . S
H428 C439 0.930 . S
H429 C441 0.930 1_655 S
H430 C443 0.930 . S
C431 H423 0.930 . S
C431 C432 1.382 . S
C431 C433 1.426 . S
C432 C431 1.382 . S
C432 C436 1.389 . S
C433 C431 1.426 . S
C433 C434 1.375 . S
C433 C437 1.532 . S
C434 H424 0.930 . S
C434 C433 1.375 . S
C434 C435 1.416 . S
C435 C434 1.416 . S
C435 C436 1.371 . S
C436 H425 0.932 . S
C436 C432 1.389 . S
C436 C435 1.371 . S
C437 H426 0.970 . S
C437 H427 0.970 . S
C437 C433 1.532 . S
C437 C438 1.499 . S
C438 C437 1.499 . S
C438 C439 1.370 . S
C438 C443 1.415 . S
C439 H428 0.930 . S
C439 C438 1.370 . S
C439 C440 1.407 . S
C440 C439 1.407 . S
C440 C441 1.365 . S
C441 H429 0.930 1_455 S
C441 C440 1.365 . S
C441 C442 1.393 . S
C442 C441 1.393 . S
C442 C443 1.387 . S
C443 H430 0.930 . S
C443 C438 1.415 . S
C443 C442 1.387 . S
H444 C452 0.930 . S
H445 C455 0.930 . S
H446 C457 0.930 . S
H447 C458 0.970 . S
H448 C458 0.970 . S
H449 C460 0.930 . S
H450 C462 0.930 . S
H451 C464 0.930 . S
C452 H444 0.930 . S
C452 C453 1.382 . S
C452 C454 1.426 . S
C453 C452 1.382 . S
C453 C457 1.389 . S
C454 C452 1.426 . S
C454 C455 1.375 . S
C454 C458 1.532 . S
C455 H445 0.930 . S
C455 C454 1.375 . S
C455 C456 1.416 . S
C456 C455 1.416 . S
C456 C457 1.371 . S
C457 H446 0.930 . S
C457 C453 1.389 . S
C457 C456 1.371 . S
C458 H447 0.970 . S
C458 H448 0.970 . S
C458 C454 1.532 . S
C458 C459 1.499 . S
C459 C458 1.499 . S
C459 C460 1.370 . S
C459 C464 1.415 . S
C460 H449 0.930 . S
C460 C459 1.370 . S
C460 C461 1.407 . S
C461 C460 1.407 . S
C461 C462 1.365 . S
C462 H450 0.930 . S
C462 C461 1.365 . S
C462 C463 1.393 . S
C463 C462 1.393 . S
C463 C464 1.387 . S
C464 H451 0.930 . S
C464 C459 1.415 . S
C464 C463 1.387 . S
H465 C473 0.930 . S
H466 C476 0.930 . S
H467 C478 0.930 . S
H468 C479 0.970 . S
H469 C479 0.970 . S
H470 C481 0.930 . S
H471 C483 0.930 . S
H472 C485 0.930 . S
C473 H465 0.930 . S
C473 C474 1.382 . S
C473 C475 1.426 . S
C474 C473 1.382 . S
C474 C478 1.389 1_565 S
C475 C473 1.426 . S
C475 C476 1.375 . S
C475 C479 1.532 . S
C476 H466 0.930 . S
C476 C475 1.375 . S
C476 C477 1.416 . S
C477 C476 1.416 . S
C477 C478 1.371 1_565 S
C478 H467 0.930 . S
C478 C474 1.389 1_545 S
C478 C477 1.371 1_545 S
C479 H468 0.970 . S
C479 H469 0.970 . S
C479 C475 1.532 . S
C479 C480 1.499 . S
C480 C479 1.499 . S
C480 C481 1.370 . S
C480 C485 1.415 . S
C481 H470 0.930 . S
C481 C480 1.370 . S
C481 C482 1.444 . S
C482 C481 1.444 . S
C482 C483 1.350 1_565 S
C483 H471 0.930 . S
C483 C482 1.350 1_545 S
C483 C484 1.393 1_545 S
C484 C483 1.393 1_565 S
C484 C485 1.387 . S
C485 H472 0.930 . S
C485 C480 1.415 . S
C485 C484 1.387 . S
H486 C494 0.930 . S
H487 C497 0.930 . S
H488 C499 0.930 . S
H489 C500 0.970 . S
H490 C500 0.970 . S
H491 C502 0.930 . S
H492 C504 0.930 . S
H493 C506 0.930 . S
C494 H486 0.930 . S
C494 C495 1.382 1_565 S
C494 C496 1.426 . S
C495 C494 1.382 1_545 S
C495 C499 1.389 . S
C496 C494 1.426 . S
C496 C497 1.375 . S
C496 C500 1.532 . S
C497 H487 0.930 . S
C497 C496 1.375 . S
C497 C498 1.416 1_565 S
C498 C497 1.416 1_545 S
C498 C499 1.371 . S
C499 H488 0.930 . S
C499 C495 1.389 . S
C499 C498 1.371 . S
C500 H489 0.970 . S
C500 H490 0.970 . S
C500 C496 1.532 . S
C500 C501 1.499 . S
C501 C500 1.499 . S
C501 C502 1.370 . S
C501 C506 1.415 . S
C502 H491 0.930 . S
C502 C501 1.370 . S
C502 C503 1.407 1_565 S
C503 C502 1.407 1_545 S
C503 C504 1.365 . S
C504 H492 0.930 . S
C504 C503 1.365 . S
C504 C505 1.393 . S
C505 C504 1.393 . S
C505 C506 1.387 1_545 S
C506 H493 0.930 . S
C506 C501 1.415 . S
C506 C505 1.387 1_565 S
H507 C515 0.930 . S
H508 C518 0.930 . S
H509 C520 0.930 . S
H510 C521 0.970 . S
H511 C521 0.970 . S
H512 C523 0.930 . S
H513 C525 0.930 . S
H514 C527 0.930 . S
C515 H507 0.930 . S
C515 C516 1.382 . S
C515 C517 1.426 . S
C516 C515 1.382 . S
C516 C520 1.389 1_455 S
C517 C515 1.426 . S
C517 C518 1.375 . S
C517 C521 1.532 . S
C518 H508 0.930 . S
C518 C517 1.375 . S
C518 C519 1.416 . S
C519 C518 1.416 . S
C519 C520 1.371 1_455 S
C520 H509 0.930 . S
C520 C516 1.389 1_655 S
C520 C519 1.371 1_655 S
C521 H510 0.970 . S
C521 H511 0.970 . S
C521 C517 1.532 . S
C521 C522 1.499 . S
C522 C521 1.499 . S
C522 C523 1.370 . S
C522 C527 1.415 . S
C523 H512 0.930 . S
C523 C522 1.370 . S
C523 C524 1.407 . S
C524 C523 1.407 . S
C524 C525 1.365 1_455 S
C525 H513 0.930 . S
C525 C524 1.365 1_655 S
C525 C526 1.393 1_655 S
C526 C525 1.393 1_455 S
C526 C527 1.387 . S
C527 H514 0.930 . S
C527 C522 1.415 . S
C527 C526 1.387 . S
H528 C536 0.930 . S
H529 C539 0.930 . S
H530 C541 0.930 . S
H531 C542 0.970 . S
H532 C542 0.970 . S
H533 C544 0.930 . S
H534 C546 0.930 . S
H535 C548 0.930 . S
C536 H528 0.930 . S
C536 C537 1.382 . S
C536 C538 1.426 . S
C537 C536 1.382 . S
C537 C541 1.389 . S
C538 C536 1.426 . S
C538 C539 1.375 . S
C538 C542 1.532 . S
C539 H529 0.930 . S
C539 C538 1.375 . S
C539 C540 1.416 . S
C540 C539 1.416 . S
C540 C541 1.371 . S
C541 H530 0.930 . S
C541 C537 1.389 . S
C541 C540 1.371 . S
C542 H531 0.970 . S
C542 H532 0.970 . S
C542 C538 1.532 . S
C542 C543 1.499 . S
C543 C542 1.499 . S
C543 C544 1.370 . S
C543 C548 1.415 . S
C544 H533 0.930 . S
C544 C543 1.370 . S
C544 C545 1.407 . S
C545 C544 1.407 . S
C545 C546 1.365 . S
C546 H534 0.930 . S
C546 C545 1.365 . S
C546 C547 1.393 . S
C547 C546 1.393 . S
C547 C548 1.387 . S
C548 H535 0.930 . S
C548 C543 1.415 . S
C548 C547 1.387 . S
H549 C557 0.930 . S
H550 C560 0.930 . S
H551 C562 0.930 . S
H552 C563 0.970 . S
H553 C563 0.970 . S
H554 C565 0.930 . S
H555 C567 0.930 . S
H556 C569 0.930 . S
C557 H549 0.930 . S
C557 C558 1.382 . S
C557 C559 1.426 . S
C558 C557 1.382 . S
C558 C562 1.389 . S
C559 C557 1.426 . S
C559 C560 1.375 . S
C559 C563 1.532 . S
C560 H550 0.930 . S
C560 C559 1.375 . S
C560 C561 1.416 . S
C561 C560 1.416 . S
C561 C562 1.371 . S
C562 H551 0.930 . S
C562 C558 1.389 . S
C562 C561 1.371 . S
C563 H552 0.970 . S
C563 H553 0.970 . S
C563 C559 1.532 . S
C563 C564 1.499 . S
C564 C563 1.499 . S
C564 C565 1.370 . S
C564 C569 1.415 . S
C565 H554 0.930 . S
C565 C564 1.370 . S
C565 C566 1.407 . S
C566 C565 1.407 . S
C566 C567 1.365 . S
C567 H555 0.930 . S
C567 C566 1.365 . S
C567 C568 1.393 . S
C568 C567 1.393 . S
C568 C569 1.387 . S
C569 H556 0.930 . S
C569 C564 1.415 . S
C569 C568 1.387 . S
H570 C578 0.930 . S
H571 C581 0.930 . S
H572 C583 0.930 . S
H573 C584 0.970 . S
H574 C584 0.970 . S
H575 C586 0.930 . S
H576 C588 0.930 . S
H577 C590 0.930 . S
C578 H570 0.930 . S
C578 C579 1.382 . S
C578 C580 1.426 . S
C579 C578 1.382 . S
C579 C583 1.389 . S
C580 C578 1.426 . S
C580 C581 1.375 . S
C580 C584 1.532 . S
C581 H571 0.930 . S
C581 C580 1.375 . S
C581 C582 1.416 . S
C582 C581 1.416 . S
C582 C583 1.371 . S
C583 H572 0.930 . S
C583 C579 1.389 . S
C583 C582 1.371 . S
C584 H573 0.970 . S
C584 H574 0.970 . S
C584 C580 1.532 . S
C584 C585 1.499 . S
C585 C584 1.499 . S
C585 C586 1.370 . S
C585 C590 1.415 . S
C586 H575 0.930 . S
C586 C585 1.370 . S
C586 C587 1.407 . S
C587 C586 1.407 . S
C587 C588 1.365 . S
C588 H576 0.930 . S
C588 C587 1.365 . S
C588 C589 1.393 . S
C589 C588 1.393 . S
C589 C590 1.387 . S
C590 H577 0.930 . S
C590 C585 1.415 . S
C590 C589 1.387 . S
H591 C599 0.930 . S
H592 C602 0.930 . S
H593 C604 0.930 . S
H594 C605 0.970 . S
H595 C605 0.970 . S
H596 C607 0.930 . S
H597 C609 0.930 . S
H598 C611 0.930 . S
C599 H591 0.930 . S
C599 C600 1.382 . S
C599 C601 1.426 . S
C600 C599 1.382 . S
C600 C604 1.389 . S
C601 C599 1.426 . S
C601 C602 1.375 . S
C601 C605 1.532 . S
C602 H592 0.930 . S
C602 C601 1.375 . S
C602 C603 1.416 . S
C603 C602 1.416 . S
C603 C604 1.371 . S
C604 H593 0.930 . S
C604 C600 1.389 . S
C604 C603 1.371 . S
C605 H594 0.970 . S
C605 H595 0.970 . S
C605 C601 1.532 . S
C605 C606 1.499 . S
C606 C605 1.499 . S
C606 C607 1.370 . S
C606 C611 1.415 . S
C607 H596 0.930 . S
C607 C606 1.370 . S
C607 C608 1.407 . S
C608 C607 1.407 . S
C608 C609 1.365 . S
C609 H597 0.930 . S
C609 C608 1.365 . S
C609 C610 1.393 . S
C610 C609 1.393 . S
C610 C611 1.387 . S
C611 H598 0.930 . S
C611 C606 1.415 . S
C611 C610 1.387 . S
C612 C613 1.363 . S
C612 C618 1.379 . S
C612 N620 1.356 . S
C613 C612 1.363 . S
C613 C619 1.363 1_455 S
C614 C615 1.363 1_655 S
C614 C619 1.379 . S
C614 N621 1.356 . S
C615 C614 1.363 1_455 S
C615 C618 1.363 . S
N616 C618 1.356 . S
N616 H628 0.984 . S
N616 H629 0.985 . S
N617 C619 1.356 . S
N617 H622 0.984 . S
N617 H623 0.985 . S
C618 C612 1.379 . S
C618 C615 1.363 . S
C618 N616 1.356 . S
C619 C613 1.363 1_655 S
C619 C614 1.379 . S
C619 N617 1.356 . S
N620 C612 1.356 . S
N620 H626 0.984 . S
N620 H627 0.984 . S
N621 C614 1.356 . S
N621 H624 0.984 . S
N621 H625 0.985 . S
H622 N617 0.984 . S
H623 N617 0.985 . S
H624 N621 0.984 . S
H625 N621 0.985 . S
H626 N620 0.984 . S
H627 N620 0.984 . S
H628 N616 0.984 . S
H629 N616 0.985 . S
C630 C631 1.363 . S
C630 C636 1.379 . S
C630 N638 1.356 . S
C631 C630 1.363 . S
C631 C637 1.363 . S
C632 C633 1.363 . S
C632 C637 1.379 . S
C632 N639 1.356 . S
C633 C632 1.363 . S
C633 C636 1.363 . S
N634 C636 1.356 . S
N634 H646 0.984 . S
N634 H647 0.985 . S
N635 C637 1.356 . S
N635 H640 0.984 . S
N635 H641 0.985 . S
C636 C630 1.379 . S
C636 C633 1.363 . S
C636 N634 1.356 . S
C637 C631 1.363 . S
C637 C632 1.379 . S
C637 N635 1.356 . S
N638 C630 1.356 . S
N638 H644 0.984 . S
N638 H645 0.984 . S
N639 C632 1.356 . S
N639 H642 0.984 . S
N639 H643 0.985 . S
H640 N635 0.984 . S
H641 N635 0.985 . S
H642 N639 0.984 . S
H643 N639 0.985 . S
H644 N638 0.984 . S
H645 N638 0.984 . S
H646 N634 0.984 . S
H647 N634 0.985 . S
C648 C649 1.363 . S
C648 C654 1.379 . S
C648 N656 1.356 . S
C649 C648 1.363 . S
C649 C655 1.363 1_545 S
C650 C651 1.363 1_565 S
C650 C655 1.379 . S
C650 N657 1.356 . S
C651 C650 1.363 1_545 S
C651 C654 1.363 . S
N652 C654 1.356 . S
N652 H664 0.984 . S
N652 H665 0.985 . S
N653 C655 1.356 . S
N653 H658 0.984 . S
N653 H659 0.985 . S
C654 C648 1.379 . S
C654 C651 1.363 . S
C654 N652 1.356 . S
C655 C649 1.363 1_565 S
C655 C650 1.379 . S
C655 N653 1.356 . S
N656 C648 1.356 . S
N656 H662 0.984 . S
N656 H663 0.984 . S
N657 C650 1.356 . S
N657 H660 0.984 . S
N657 H661 0.985 . S
H658 N653 0.984 . S
H659 N653 0.985 . S
H660 N657 0.984 . S
H661 N657 0.985 . S
H662 N656 0.984 . S
H663 N656 0.984 . S
H664 N652 0.984 . S
H665 N652 0.985 . S
C666 C667 1.363 . S
C666 C672 1.379 . S
C666 N674 1.356 . S
C667 C666 1.363 . S
C667 C673 1.363 1_545 S
C668 C669 1.363 1_565 S
C668 C673 1.379 . S
C668 N675 1.356 . S
C669 C668 1.363 1_545 S
C669 C672 1.363 . S
N670 C672 1.356 . S
N670 H682 0.984 . S
N670 H683 0.985 . S
N671 C673 1.356 . S
N671 H676 0.984 . S
N671 H677 0.985 . S
C672 C666 1.379 . S
C672 C669 1.363 . S
C672 N670 1.356 . S
C673 C667 1.363 1_565 S
C673 C668 1.379 . S
C673 N671 1.356 . S
N674 C666 1.356 . S
N674 H680 0.984 . S
N674 H681 0.984 . S
N675 C668 1.356 . S
N675 H678 0.984 . S
N675 H679 0.985 . S
H676 N671 0.984 . S
H677 N671 0.985 . S
H678 N675 0.984 . S
H679 N675 0.985 . S
H680 N674 0.984 . S
H681 N674 0.984 . S
H682 N670 0.984 . S
H683 N670 0.985 . S
C684 C685 1.336 1_655 S
C684 C690 1.393 1_655 S
C684 N692 1.361 . S
C685 C684 1.336 1_455 S
C685 C691 1.363 . S
C686 C687 1.363 . S
C686 C691 1.379 . S
C686 N693 1.356 . S
C687 C686 1.363 . S
C687 C690 1.362 . S
N688 C690 1.359 1_655 S
N688 H700 0.984 . S
N688 H701 0.978 . S
N689 C691 1.356 . S
N689 H694 0.984 . S
N689 H695 0.985 . S
C690 C684 1.393 1_455 S
C690 C687 1.362 . S
C690 N688 1.359 1_455 S
C691 C685 1.363 . S
C691 C686 1.379 . S
C691 N689 1.356 . S
N692 C684 1.361 . S
N692 H698 0.984 . S
N692 H699 0.984 . S
N693 C686 1.356 . S
N693 H696 0.984 . S
N693 H697 0.985 . S
H694 N689 0.984 . S
H695 N689 0.985 . S
H696 N693 0.984 . S
H697 N693 0.985 . S
H698 N692 0.984 . S
H699 N692 0.984 . S
H700 N688 0.984 . S
H701 N688 0.978 . S
C702 C703 1.363 . S
C702 C708 1.379 . S
C702 N710 1.356 . S
C703 C702 1.363 . S
C703 C709 1.363 . S
C704 C705 1.363 . S
C704 C709 1.379 . S
C704 N711 1.356 . S
C705 C704 1.363 . S
C705 C708 1.363 . S
N706 C708 1.356 . S
N706 H718 0.984 . S
N706 H719 0.985 . S
N707 C709 1.356 . S
N707 H712 0.984 . S
N707 H713 0.985 . S
C708 C702 1.379 . S
C708 C705 1.363 . S
C708 N706 1.356 . S
C709 C703 1.363 . S
C709 C704 1.379 . S
C709 N707 1.356 . S
N710 C702 1.356 . S
N710 H716 0.984 . S
N710 H717 0.984 . S
N711 C704 1.356 . S
N711 H714 0.984 . S
N711 H715 0.985 . S
H712 N707 0.984 . S
H713 N707 0.985 . S
H714 N711 0.984 . S
H715 N711 0.985 . S
H716 N710 0.984 . S
H717 N710 0.984 . S
H718 N706 0.984 . S
H719 N706 0.985 . S
C720 C721 1.363 1_655 S
C720 C726 1.379 . S
C720 N728 1.356 . S
C721 C720 1.363 1_455 S
C721 C727 1.363 . S
C722 C723 1.350 . S
C722 C727 1.379 . S
C722 N729 1.356 . S
C723 C722 1.350 . S
C723 C726 1.358 1_455 S
N724 C726 1.356 . S
N724 H736 0.984 . S
N724 H737 0.985 . S
N725 C727 1.356 . S
N725 H730 0.984 . S
N725 H731 0.985 . S
C726 C720 1.379 . S
C726 C723 1.358 1_655 S
C726 N724 1.356 . S
C727 C721 1.363 . S
C727 C722 1.379 . S
C727 N725 1.356 . S
N728 C720 1.356 . S
N728 H734 0.984 . S
N728 H735 0.984 . S
N729 C722 1.356 . S
N729 H732 0.984 . S
N729 H733 0.985 . S
H730 N725 0.984 . S
H731 N725 0.985 . S
H732 N729 0.984 . S
H733 N729 0.985 . S
H734 N728 0.984 . S
H735 N728 0.984 . S
H736 N724 0.984 . S
H737 N724 0.985 . S
C738 C739 1.363 . S
C738 C744 1.379 . S
C738 N746 1.356 . S
C739 C738 1.363 . S
C739 C745 1.363 . S
C740 C741 1.363 . S
C740 C745 1.379 . S
C740 N747 1.356 . S
C741 C740 1.363 . S
C741 C744 1.363 . S
N742 C744 1.356 . S
N742 H754 0.984 . S
N742 H755 0.985 . S
N743 C745 1.356 . S
N743 H748 0.984 . S
N743 H749 0.985 . S
C744 C738 1.379 . S
C744 C741 1.363 . S
C744 N742 1.356 . S
C745 C739 1.363 . S
C745 C740 1.379 . S
C745 N743 1.356 . S
N746 C738 1.356 . S
N746 H752 0.984 . S
N746 H753 0.984 . S
N747 C740 1.356 . S
N747 H750 0.984 . S
N747 H751 0.985 . S
H748 N743 0.984 . S
H749 N743 0.985 . S
H750 N747 0.984 . S
H751 N747 0.985 . S
H752 N746 0.984 . S
H753 N746 0.984 . S
H754 N742 0.984 . S
H755 N742 0.985 . S
C756 C757 1.363 . S
C756 C762 1.379 . S
C756 N764 1.356 . S
C757 C756 1.363 . S
C757 C763 1.363 1_545 S
C758 C759 1.363 1_565 S
C758 C763 1.379 . S
C758 N765 1.356 . S
C759 C758 1.363 1_545 S
C759 C762 1.363 . S
N760 C762 1.356 . S
N760 H772 0.984 . S
N760 H773 0.985 . S
N761 C763 1.356 . S
N761 H766 0.984 . S
N761 H767 0.985 . S
C762 C756 1.379 . S
C762 C759 1.363 . S
C762 N760 1.356 . S
C763 C757 1.363 1_565 S
C763 C758 1.379 . S
C763 N761 1.356 . S
N764 C756 1.356 . S
N764 H770 0.984 . S
N764 H771 0.984 . S
N765 C758 1.356 . S
N765 H768 0.984 . S
N765 H769 0.985 . S
H766 N761 0.984 . S
H767 N761 0.985 . S
H768 N765 0.984 . S
H769 N765 0.985 . S
H770 N764 0.984 . S
H771 N764 0.984 . S
H772 N760 0.984 . S
H773 N760 0.985 . S
C774 C775 1.363 1_565 S
C774 C780 1.379 . S
C774 N782 1.356 . S
C775 C774 1.363 1_545 S
C775 C781 1.363 . S
C776 C777 1.363 . S
C776 C781 1.379 . S
C776 N783 1.356 . S
C777 C776 1.363 . S
C777 C780 1.363 1_545 S
N778 C780 1.356 . S
N778 H790 0.984 . S
N778 H791 0.985 . S
N779 C781 1.356 . S
N779 H784 0.984 . S
N779 H785 0.985 . S
C780 C774 1.379 . S
C780 C777 1.363 1_565 S
C780 N778 1.356 . S
C781 C775 1.363 . S
C781 C776 1.379 . S
C781 N779 1.356 . S
N782 C774 1.356 . S
N782 H788 0.984 . S
N782 H789 0.984 . S
N783 C776 1.356 . S
N783 H786 0.984 . S
N783 H787 0.985 . S
H784 N779 0.984 . S
H785 N779 0.985 . S
H786 N783 0.984 . S
H787 N783 0.985 . S
H788 N782 0.984 . S
H789 N782 0.984 . S
H790 N778 0.984 . S
H791 N778 0.985 . S
C792 C793 1.363 1_655 S
C792 C798 1.379 . S
C792 N800 1.356 . S
C793 C792 1.363 1_455 S
C793 C799 1.363 . S
C794 C795 1.363 . S
C794 C799 1.379 . S
C794 N801 1.356 . S
C795 C794 1.363 . S
C795 C798 1.363 1_455 S
N796 C798 1.356 . S
N796 H808 0.984 . S
N796 H809 0.985 . S
N797 C799 1.356 . S
N797 H802 0.984 . S
N797 H803 0.985 . S
C798 C792 1.379 . S
C798 C795 1.363 1_655 S
C798 N796 1.356 . S
C799 C793 1.363 . S
C799 C794 1.379 . S
C799 N797 1.356 . S
N800 C792 1.356 . S
N800 H806 0.984 . S
N800 H807 0.984 . S
N801 C794 1.356 . S
N801 H804 0.984 . S
N801 H805 0.985 . S
H802 N797 0.984 . S
H803 N797 0.985 . S
H804 N801 0.984 . S
H805 N801 0.985 . S
H806 N800 0.984 . S
H807 N800 0.984 . S
H808 N796 0.984 . S
H809 N796 0.985 . S
C810 C811 1.363 . S
C810 C816 1.379 . S
C810 N818 1.356 . S
C811 C810 1.363 . S
C811 C817 1.363 . S
C812 C813 1.363 . S
C812 C817 1.379 . S
C812 N819 1.356 . S
C813 C812 1.363 . S
C813 C816 1.363 . S
N814 C816 1.356 . S
N814 H826 0.984 . S
N814 H827 0.985 . S
N815 C817 1.356 . S
N815 H820 0.984 . S
N815 H821 0.985 . S
C816 C810 1.379 . S
C816 C813 1.363 . S
C816 N814 1.356 . S
C817 C811 1.363 . S
C817 C812 1.379 . S
C817 N815 1.356 . S
N818 C810 1.356 . S
N818 H824 0.984 . S
N818 H825 0.984 . S
N819 C812 1.356 . S
N819 H822 0.984 . S
N819 H823 0.985 . S
H820 N815 0.984 . S
H821 N815 0.985 . S
H822 N819 0.984 . S
H823 N819 0.985 . S
H824 N818 0.984 . S
H825 N818 0.984 . S
H826 N814 0.984 . S
H827 N814 0.985 . S
C828 C829 1.363 . S
C828 C834 1.379 . S
C828 N836 1.356 . S
C829 C828 1.363 . S
C829 C835 1.363 . S
C830 C831 1.363 . S
C830 C835 1.379 . S
C830 N837 1.356 . S
C831 C830 1.363 . S
C831 C834 1.363 . S
N832 C834 1.356 . S
N832 H844 0.984 . S
N832 H845 0.985 . S
N833 C835 1.356 . S
N833 H838 0.984 . S
N833 H839 0.985 . S
C834 C828 1.379 . S
C834 C831 1.363 . S
C834 N832 1.356 . S
C835 C829 1.363 . S
C835 C830 1.379 . S
C835 N833 1.356 . S
N836 C828 1.356 . S
N836 H842 0.984 . S
N836 H843 0.984 . S
N837 C830 1.356 . S
N837 H840 0.984 . S
N837 H841 0.985 . S
H838 N833 0.984 . S
H839 N833 0.985 . S
H840 N837 0.984 . S
H841 N837 0.985 . S
H842 N836 0.984 . S
H843 N836 0.984 . S
H844 N832 0.984 . S
H845 N832 0.985 . S
C846 C847 1.363 . S
C846 C852 1.379 . S
C846 N854 1.356 . S
C847 C846 1.363 . S
C847 C853 1.363 . S
C848 C849 1.363 . S
C848 C853 1.379 . S
C848 N855 1.356 . S
C849 C848 1.363 . S
C849 C852 1.363 . S
N850 C852 1.356 . S
N850 H862 0.984 . S
N850 H863 0.985 . S
N851 C853 1.356 . S
N851 H856 0.984 . S
N851 H857 0.985 . S
C852 C846 1.379 . S
C852 C849 1.363 . S
C852 N850 1.356 . S
C853 C847 1.363 . S
C853 C848 1.379 . S
C853 N851 1.356 . S
N854 C846 1.356 . S
N854 H860 0.984 . S
N854 H861 0.984 . S
N855 C848 1.356 . S
N855 H858 0.984 . S
N855 H859 0.985 . S
H856 N851 0.984 . S
H857 N851 0.985 . S
H858 N855 0.984 . S
H859 N855 0.985 . S
H860 N854 0.984 . S
H861 N854 0.984 . S
H862 N850 0.984 . S
H863 N850 0.985 . S
C864 C865 1.363 . S
C864 C870 1.379 . S
C864 N872 1.356 . S
C865 C864 1.363 . S
C865 C871 1.363 . S
C866 C867 1.363 . S
C866 C871 1.379 . S
C866 N873 1.356 . S
C867 C866 1.363 . S
C867 C870 1.363 . S
N868 C870 1.356 . S
N868 H880 0.984 . S
N868 H881 0.985 . S
N869 C871 1.356 . S
N869 H874 0.984 . S
N869 H875 0.985 . S
C870 C864 1.379 . S
C870 C867 1.363 . S
C870 N868 1.356 . S
C871 C865 1.363 . S
C871 C866 1.379 . S
C871 N869 1.356 . S
N872 C864 1.356 . S
N872 H878 0.984 . S
N872 H879 0.984 . S
N873 C866 1.356 . S
N873 H876 0.984 . S
N873 H877 0.985 . S
H874 N869 0.984 . S
H875 N869 0.985 . S
H876 N873 0.984 . S
H877 N873 0.985 . S
H878 N872 0.984 . S
H879 N872 0.984 . S
H880 N868 0.984 . S
H881 N868 0.985 . S
C882 C883 1.363 . S
C882 C888 1.379 . S
C882 N890 1.356 . S
C883 C882 1.363 . S
C883 C889 1.363 . S
C884 C885 1.363 . S
C884 C889 1.379 . S
C884 N891 1.356 . S
C885 C884 1.363 . S
C885 C888 1.363 . S
N886 C888 1.356 . S
N886 H898 0.984 . S
N886 H899 0.985 . S
N887 C889 1.356 . S
N887 H892 0.984 . S
N887 H893 0.985 . S
C888 C882 1.379 . S
C888 C885 1.363 . S
C888 N886 1.356 . S
C889 C883 1.363 . S
C889 C884 1.379 . S
C889 N887 1.356 . S
N890 C882 1.356 . S
N890 H896 0.984 . S
N890 H897 0.984 . S
N891 C884 1.356 . S
N891 H894 0.984 . S
N891 H895 0.985 . S
H892 N887 0.984 . S
H893 N887 0.985 . S
H894 N891 0.984 . S
H895 N891 0.985 . S
H896 N890 0.984 . S
H897 N890 0.984 . S
H898 N886 0.984 . S
H899 N886 0.985 . S
C900 C901 1.363 . S
C900 C906 1.379 . S
C900 N908 1.356 . S
C901 C900 1.363 . S
C901 C907 1.363 . S
C902 C903 1.363 . S
C902 C907 1.379 . S
C902 N909 1.356 . S
C903 C902 1.363 . S
C903 C906 1.363 . S
N904 C906 1.356 . S
N904 H916 0.984 . S
N904 H917 0.985 . S
N905 C907 1.356 . S
N905 H910 0.984 . S
N905 H911 0.985 . S
C906 C900 1.379 . S
C906 C903 1.363 . S
C906 N904 1.356 . S
C907 C901 1.363 . S
C907 C902 1.379 . S
C907 N905 1.356 . S
N908 C900 1.356 . S
N908 H914 0.984 . S
N908 H915 0.984 . S
N909 C902 1.356 . S
N909 H912 0.984 . S
N909 H913 0.985 . S
H910 N905 0.984 . S
H911 N905 0.985 . S
H912 N909 0.984 . S
H913 N909 0.985 . S
H914 N908 0.984 . S
H915 N908 0.984 . S
H916 N904 0.984 . S
H917 N904 0.985 . S
C918 C919 1.363 . S
C918 C924 1.379 . S
C918 N926 1.356 . S
C919 C918 1.363 . S
C919 C925 1.363 . S
C920 C921 1.363 . S
C920 C925 1.379 . S
C920 N927 1.356 . S
C921 C920 1.363 . S
C921 C924 1.363 . S
N922 C924 1.356 . S
N922 H934 0.984 . S
N922 H935 0.985 . S
N923 C925 1.356 . S
N923 H928 0.984 . S
N923 H929 0.985 . S
C924 C918 1.379 . S
C924 C921 1.363 . S
C924 N922 1.356 . S
C925 C919 1.363 . S
C925 C920 1.379 . S
C925 N923 1.356 . S
N926 C918 1.356 . S
N926 H932 0.984 . S
N926 H933 0.984 . S
N927 C920 1.356 . S
N927 H930 0.984 . S
N927 H931 0.985 . S
H928 N923 0.984 . S
H929 N923 0.985 . S
H930 N927 0.984 . S
H931 N927 0.985 . S
H932 N926 0.984 . S
H933 N926 0.984 . S
H934 N922 0.984 . S
H935 N922 0.985 . S
C936 C937 1.363 . S
C936 C942 1.379 . S
C936 N944 1.356 . S
C937 C936 1.363 . S
C937 C943 1.363 . S
C938 C939 1.363 . S
C938 C943 1.379 . S
C938 N945 1.356 . S
C939 C938 1.363 . S
C939 C942 1.363 . S
N940 C942 1.356 . S
N940 H952 0.984 . S
N940 H953 0.985 . S
N941 C943 1.356 . S
N941 H946 0.984 . S
N941 H947 0.985 . S
C942 C936 1.379 . S
C942 C939 1.363 . S
C942 N940 1.356 . S
C943 C937 1.363 . S
C943 C938 1.379 . S
C943 N941 1.356 . S
N944 C936 1.356 . S
N944 H950 0.984 . S
N944 H951 0.984 . S
N945 C938 1.356 . S
N945 H948 0.984 . S
N945 H949 0.985 . S
H946 N941 0.984 . S
H947 N941 0.985 . S
H948 N945 0.984 . S
H949 N945 0.985 . S
H950 N944 0.984 . S
H951 N944 0.984 . S
H952 N940 0.984 . S
H953 N940 0.985 . S
C954 C955 1.363 . S
C954 C960 1.379 . S
C954 N962 1.356 . S
C955 C954 1.363 . S
C955 C961 1.363 . S
C956 C957 1.363 . S
C956 C961 1.379 . S
C956 N963 1.356 . S
C957 C956 1.363 . S
C957 C960 1.363 . S
N958 C960 1.356 . S
N958 H970 0.984 . S
N958 H971 0.985 . S
N959 C961 1.356 . S
N959 H964 0.984 . S
N959 H965 0.985 . S
C960 C954 1.379 . S
C960 C957 1.363 . S
C960 N958 1.356 . S
C961 C955 1.363 . S
C961 C956 1.379 . S
C961 N959 1.356 . S
N962 C954 1.356 . S
N962 H968 0.984 . S
N962 H969 0.984 . S
N963 C956 1.356 . S
N963 H966 0.984 . S
N963 H967 0.985 . S
H964 N959 0.984 . S
H965 N959 0.985 . S
H966 N963 0.984 . S
H967 N963 0.985 . S
H968 N962 0.984 . S
H969 N962 0.984 . S
H970 N958 0.984 . S
H971 N958 0.985 . S
C972 C973 1.363 . S
C972 C978 1.379 . S
C972 N980 1.356 . S
C973 C972 1.363 . S
C973 C979 1.363 . S
C974 C975 1.363 . S
C974 C979 1.379 . S
C974 N981 1.356 . S
C975 C974 1.363 . S
C975 C978 1.363 . S
N976 C978 1.356 . S
N976 H988 0.984 . S
N976 H989 0.985 . S
N977 C979 1.356 . S
N977 H982 0.984 . S
N977 H983 0.985 . S
C978 C972 1.379 . S
C978 C975 1.363 . S
C978 N976 1.356 . S
C979 C973 1.363 . S
C979 C974 1.379 . S
C979 N977 1.356 . S
N980 C972 1.356 . S
N980 H986 0.984 . S
N980 H987 0.984 . S
N981 C974 1.356 . S
N981 H984 0.984 . S
N981 H985 0.985 . S
H982 N977 0.984 . S
H983 N977 0.985 . S
H984 N981 0.984 . S
H985 N981 0.985 . S
H986 N980 0.984 . S
H987 N980 0.984 . S
H988 N976 0.984 . S
H989 N976 0.985 . S
C990 C991 1.363 . S
C990 C996 1.379 . S
C990 N998 1.356 . S
C991 C990 1.363 . S
C991 C997 1.363 . S
C992 C993 1.363 . S
C992 C997 1.379 . S
C992 N999 1.356 . S
C993 C992 1.363 . S
C993 C996 1.363 . S
N994 C996 1.356 . S
N994 H1006 0.984 . S
N994 H1007 0.985 . S
N995 C997 1.356 . S
N995 H1000 0.984 . S
N995 H1001 0.985 . S
C996 C990 1.379 . S
C996 C993 1.363 . S
C996 N994 1.356 . S
C997 C991 1.363 . S
C997 C992 1.379 . S
C997 N995 1.356 . S
N998 C990 1.356 . S
N998 H1004 0.984 . S
N998 H1005 0.984 . S
N999 C992 1.356 . S
N999 H1002 0.984 . S
N999 H1003 0.985 . S
H1000 N995 0.984 . S
H1001 N995 0.985 . S
H1002 N999 0.984 . S
H1003 N999 0.985 . S
H1004 N998 0.984 . S
H1005 N998 0.984 . S
H1006 N994 0.984 . S
H1007 N994 0.985 . S
C1008 C1009 1.363 . S
C1008 C1014 1.379 . S
C1008 N1016 1.356 . S
C1009 C1008 1.363 . S
C1009 C1015 1.363 . S
C1010 C1011 1.363 . S
C1010 C1015 1.379 . S
C1010 N1017 1.356 . S
C1011 C1010 1.363 . S
C1011 C1014 1.363 . S
N1012 C1014 1.356 . S
N1012 H1024 0.984 . S
N1012 H1025 0.985 . S
N1013 C1015 1.356 . S
N1013 H1018 0.984 . S
N1013 H1019 0.985 . S
C1014 C1008 1.379 . S
C1014 C1011 1.363 . S
C1014 N1012 1.356 . S
C1015 C1009 1.363 . S
C1015 C1010 1.379 . S
C1015 N1013 1.356 . S
N1016 C1008 1.356 . S
N1016 H1022 0.984 . S
N1016 H1023 0.984 . S
N1017 C1010 1.356 . S
N1017 H1020 0.984 . S
N1017 H1021 0.985 . S
H1018 N1013 0.984 . S
H1019 N1013 0.985 . S
H1020 N1017 0.984 . S
H1021 N1017 0.985 . S
H1022 N1016 0.984 . S
H1023 N1016 0.984 . S
H1024 N1012 0.984 . S
H1025 N1012 0.985 . S
C1026 C1027 1.363 . S
C1026 C1032 1.379 . S
C1026 N1034 1.356 . S
C1027 C1026 1.363 . S
C1027 C1033 1.363 . S
C1028 C1029 1.363 . S
C1028 C1033 1.379 . S
C1028 N1035 1.356 . S
C1029 C1028 1.363 . S
C1029 C1032 1.363 . S
N1030 C1032 1.356 . S
N1030 H1042 0.984 . S
N1030 H1043 0.985 . S
N1031 C1033 1.356 . S
N1031 H1036 0.984 . S
N1031 H1037 0.985 . S
C1032 C1026 1.379 . S
C1032 C1029 1.363 . S
C1032 N1030 1.356 . S
C1033 C1027 1.363 . S
C1033 C1028 1.379 . S
C1033 N1031 1.356 . S
N1034 C1026 1.356 . S
N1034 H1040 0.984 . S
N1034 H1041 0.984 . S
N1035 C1028 1.356 . S
N1035 H1038 0.984 . S
N1035 H1039 0.985 . S
H1036 N1031 0.984 . S
H1037 N1031 0.985 . S
H1038 N1035 0.984 . S
H1039 N1035 0.985 . S
H1040 N1034 0.984 . S
H1041 N1034 0.984 . S
H1042 N1030 0.984 . S
H1043 N1030 0.985 . S
C1044 C1045 1.363 . S
C1044 C1050 1.379 . S
C1044 N1052 1.356 . S
C1045 C1044 1.363 . S
C1045 C1051 1.363 . S
C1046 C1047 1.363 . S
C1046 C1051 1.379 . S
C1046 N1053 1.356 . S
C1047 C1046 1.363 . S
C1047 C1050 1.363 . S
N1048 C1050 1.356 . S
N1048 H1060 0.984 . S
N1048 H1061 0.985 . S
N1049 C1051 1.356 . S
N1049 H1054 0.984 . S
N1049 H1055 0.985 . S
C1050 C1044 1.379 . S
C1050 C1047 1.363 . S
C1050 N1048 1.356 . S
C1051 C1045 1.363 . S
C1051 C1046 1.379 . S
C1051 N1049 1.356 . S
N1052 C1044 1.356 . S
N1052 H1058 0.984 . S
N1052 H1059 0.984 . S
N1053 C1046 1.356 . S
N1053 H1056 0.984 . S
N1053 H1057 0.985 . S
H1054 N1049 0.984 . S
H1055 N1049 0.985 . S
H1056 N1053 0.984 . S
H1057 N1053 0.985 . S
H1058 N1052 0.984 . S
H1059 N1052 0.984 . S
H1060 N1048 0.984 . S
H1061 N1048 0.985 . S
C1062 C1063 1.363 . S
C1062 C1068 1.379 . S
C1062 N1070 1.356 . S
C1063 C1062 1.363 . S
C1063 C1069 1.363 . S
C1064 C1065 1.363 . S
C1064 C1069 1.379 . S
C1064 N1071 1.356 . S
C1065 C1064 1.363 . S
C1065 C1068 1.363 . S
N1066 C1068 1.356 . S
N1066 H1078 0.984 . S
N1066 H1079 0.985 . S
N1067 C1069 1.356 . S
N1067 H1072 0.984 . S
N1067 H1073 0.985 . S
C1068 C1062 1.379 . S
C1068 C1065 1.363 . S
C1068 N1066 1.356 . S
C1069 C1063 1.363 . S
C1069 C1064 1.379 . S
C1069 N1067 1.356 . S
N1070 C1062 1.356 . S
N1070 H1076 0.984 . S
N1070 H1077 0.984 . S
N1071 C1064 1.356 . S
N1071 H1074 0.984 . S
N1071 H1075 0.985 . S
H1072 N1067 0.984 . S
H1073 N1067 0.985 . S
H1074 N1071 0.984 . S
H1075 N1071 0.985 . S
H1076 N1070 0.984 . S
H1077 N1070 0.984 . S
H1078 N1066 0.984 . S
H1079 N1066 0.985 . S
C1080 C1081 1.363 . S
C1080 C1086 1.379 . S
C1080 N1088 1.356 . S
C1081 C1080 1.363 . S
C1081 C1087 1.363 . S
C1082 C1083 1.363 . S
C1082 C1087 1.379 . S
C1082 N1089 1.356 . S
C1083 C1082 1.363 . S
C1083 C1086 1.363 . S
N1084 C1086 1.356 . S
N1084 H1096 0.984 . S
N1084 H1097 0.985 . S
N1085 C1087 1.356 . S
N1085 H1090 0.984 . S
N1085 H1091 0.985 . S
C1086 C1080 1.379 . S
C1086 C1083 1.363 . S
C1086 N1084 1.356 . S
C1087 C1081 1.363 . S
C1087 C1082 1.379 . S
C1087 N1085 1.356 . S
N1088 C1080 1.356 . S
N1088 H1094 0.984 . S
N1088 H1095 0.984 . S
N1089 C1082 1.356 . S
N1089 H1092 0.984 . S
N1089 H1093 0.985 . S
H1090 N1085 0.984 . S
H1091 N1085 0.985 . S
H1092 N1089 0.984 . S
H1093 N1089 0.985 . S
H1094 N1088 0.984 . S
H1095 N1088 0.984 . S
H1096 N1084 0.984 . S
H1097 N1084 0.985 . S
C1098 C1099 1.363 . S
C1098 C1104 1.379 . S
C1098 N1106 1.356 . S
C1099 C1098 1.363 . S
C1099 C1105 1.363 . S
C1100 C1101 1.363 . S
C1100 C1105 1.379 . S
C1100 N1107 1.356 . S
C1101 C1100 1.363 . S
C1101 C1104 1.363 . S
N1102 C1104 1.356 . S
N1102 H1114 0.984 . S
N1102 H1115 0.985 . S
N1103 C1105 1.356 . S
N1103 H1108 0.984 . S
N1103 H1109 0.985 . S
C1104 C1098 1.379 . S
C1104 C1101 1.363 . S
C1104 N1102 1.356 . S
C1105 C1099 1.363 . S
C1105 C1100 1.379 . S
C1105 N1103 1.356 . S
N1106 C1098 1.356 . S
N1106 H1112 0.984 . S
N1106 H1113 0.984 . S
N1107 C1100 1.356 . S
N1107 H1110 0.984 . S
N1107 H1111 0.985 . S
H1108 N1103 0.984 . S
H1109 N1103 0.985 . S
H1110 N1107 0.984 . S
H1111 N1107 0.985 . S
H1112 N1106 0.984 . S
H1113 N1106 0.984 . S
H1114 N1102 0.984 . S
H1115 N1102 0.985 . S
C1116 C1117 1.363 . S
C1116 C1122 1.379 . S
C1116 N1124 1.356 . S
C1117 C1116 1.363 . S
C1117 C1123 1.363 . S
C1118 C1119 1.363 . S
C1118 C1123 1.379 . S
C1118 N1125 1.356 . S
C1119 C1118 1.363 . S
C1119 C1122 1.363 . S
N1120 C1122 1.356 . S
N1120 H1132 0.984 . S
N1120 H1133 0.985 . S
N1121 C1123 1.356 . S
N1121 H1126 0.984 . S
N1121 H1127 0.985 . S
C1122 C1116 1.379 . S
C1122 C1119 1.363 . S
C1122 N1120 1.356 . S
C1123 C1117 1.363 . S
C1123 C1118 1.379 . S
C1123 N1121 1.356 . S
N1124 C1116 1.356 . S
N1124 H1130 0.984 . S
N1124 H1131 0.984 . S
N1125 C1118 1.356 . S
N1125 H1128 0.984 . S
N1125 H1129 0.985 . S
H1126 N1121 0.984 . S
H1127 N1121 0.985 . S
H1128 N1125 0.984 . S
H1129 N1125 0.985 . S
H1130 N1124 0.984 . S
H1131 N1124 0.984 . S
H1132 N1120 0.984 . S
H1133 N1120 0.985 . S
C1134 C1135 1.363 . S
C1134 C1140 1.379 . S
C1134 N1142 1.356 . S
C1135 C1134 1.363 . S
C1135 C1141 1.363 . S
C1136 C1137 1.363 . S
C1136 C1141 1.379 . S
C1136 N1143 1.356 . S
C1137 C1136 1.363 . S
C1137 C1140 1.363 . S
N1138 C1140 1.356 . S
N1138 H1150 0.984 . S
N1138 H1151 0.985 . S
N1139 C1141 1.356 . S
N1139 H1144 0.984 . S
N1139 H1145 0.985 . S
C1140 C1134 1.379 . S
C1140 C1137 1.363 . S
C1140 N1138 1.356 . S
C1141 C1135 1.363 . S
C1141 C1136 1.379 . S
C1141 N1139 1.356 . S
N1142 C1134 1.356 . S
N1142 H1148 0.984 . S
N1142 H1149 0.984 . S
N1143 C1136 1.356 . S
N1143 H1146 0.984 . S
N1143 H1147 0.985 . S
H1144 N1139 0.984 . S
H1145 N1139 0.985 . S
H1146 N1143 0.984 . S
H1147 N1143 0.985 . S
H1148 N1142 0.984 . S
H1149 N1142 0.984 . S
H1150 N1138 0.984 . S
H1151 N1138 0.985 . S
C1152 C1153 1.363 . S
C1152 C1158 1.379 . S
C1152 N1160 1.356 . S
C1153 C1152 1.363 . S
C1153 C1159 1.363 . S
C1154 C1155 1.363 . S
C1154 C1159 1.379 . S
C1154 N1161 1.356 . S
C1155 C1154 1.363 . S
C1155 C1158 1.363 . S
N1156 C1158 1.356 . S
N1156 H1168 0.984 . S
N1156 H1169 0.985 . S
N1157 C1159 1.356 . S
N1157 H1162 0.984 . S
N1157 H1163 0.985 . S
C1158 C1152 1.379 . S
C1158 C1155 1.363 . S
C1158 N1156 1.356 . S
C1159 C1153 1.363 . S
C1159 C1154 1.379 . S
C1159 N1157 1.356 . S
N1160 C1152 1.356 . S
N1160 H1166 0.984 . S
N1160 H1167 0.984 . S
N1161 C1154 1.356 . S
N1161 H1164 0.984 . S
N1161 H1165 0.985 . S
H1162 N1157 0.984 . S
H1163 N1157 0.985 . S
H1164 N1161 0.984 . S
H1165 N1161 0.985 . S
H1166 N1160 0.984 . S
H1167 N1160 0.984 . S
H1168 N1156 0.984 . S
H1169 N1156 0.985 . S
C1170 C1171 1.363 . S
C1170 C1176 1.379 . S
C1170 N1178 1.356 . S
C1171 C1170 1.363 . S
C1171 C1177 1.363 . S
C1172 C1173 1.363 . S
C1172 C1177 1.379 . S
C1172 N1179 1.356 . S
C1173 C1172 1.363 . S
C1173 C1176 1.363 . S
N1174 C1176 1.356 . S
N1174 H1186 0.984 . S
N1174 H1187 0.985 . S
N1175 C1177 1.356 . S
N1175 H1180 0.984 . S
N1175 H1181 0.985 . S
C1176 C1170 1.379 . S
C1176 C1173 1.363 . S
C1176 N1174 1.356 . S
C1177 C1171 1.363 . S
C1177 C1172 1.379 . S
C1177 N1175 1.356 . S
N1178 C1170 1.356 . S
N1178 H1184 0.984 . S
N1178 H1185 0.984 . S
N1179 C1172 1.356 . S
N1179 H1182 0.984 . S
N1179 H1183 0.985 . S
H1180 N1175 0.984 . S
H1181 N1175 0.985 . S
H1182 N1179 0.984 . S
H1183 N1179 0.985 . S
H1184 N1178 0.984 . S
H1185 N1178 0.984 . S
H1186 N1174 0.984 . S
H1187 N1174 0.985 . S
C1188 C1189 1.363 . S
C1188 C1194 1.379 . S
C1188 N1196 1.356 . S
C1189 C1188 1.363 . S
C1189 C1195 1.363 . S
C1190 C1191 1.363 . S
C1190 C1195 1.379 . S
C1190 N1197 1.356 . S
C1191 C1190 1.363 . S
C1191 C1194 1.363 . S
N1192 C1194 1.356 . S
N1192 H1204 0.984 . S
N1192 H1205 0.985 . S
N1193 C1195 1.356 . S
N1193 H1198 0.984 . S
N1193 H1199 0.985 . S
C1194 C1188 1.379 . S
C1194 C1191 1.363 . S
C1194 N1192 1.356 . S
C1195 C1189 1.363 . S
C1195 C1190 1.379 . S
C1195 N1193 1.356 . S
N1196 C1188 1.356 . S
N1196 H1202 0.984 . S
N1196 H1203 0.984 . S
N1197 C1190 1.356 . S
N1197 H1200 0.984 . S
N1197 H1201 0.985 . S
H1198 N1193 0.984 . S
H1199 N1193 0.985 . S
H1200 N1197 0.984 . S
H1201 N1197 0.985 . S
H1202 N1196 0.984 . S
H1203 N1196 0.984 . S
H1204 N1192 0.984 . S
H1205 N1192 0.985 . S
C1206 C1207 1.363 . S
C1206 C1212 1.379 . S
C1206 N1214 1.356 . S
C1207 C1206 1.363 . S
C1207 C1213 1.363 . S
C1208 C1209 1.363 . S
C1208 C1213 1.379 . S
C1208 N1215 1.356 . S
C1209 C1208 1.363 . S
C1209 C1212 1.363 . S
N1210 C1212 1.356 . S
N1210 H1222 0.984 . S
N1210 H1223 0.985 . S
N1211 C1213 1.356 . S
N1211 H1216 0.984 . S
N1211 H1217 0.985 . S
C1212 C1206 1.379 . S
C1212 C1209 1.363 . S
C1212 N1210 1.356 . S
C1213 C1207 1.363 . S
C1213 C1208 1.379 . S
C1213 N1211 1.356 . S
N1214 C1206 1.356 . S
N1214 H1220 0.984 . S
N1214 H1221 0.984 . S
N1215 C1208 1.356 . S
N1215 H1218 0.984 . S
N1215 H1219 0.985 . S
H1216 N1211 0.984 . S
H1217 N1211 0.985 . S
H1218 N1215 0.984 . S
H1219 N1215 0.985 . S
H1220 N1214 0.984 . S
H1221 N1214 0.984 . S
H1222 N1210 0.984 . S
H1223 N1210 0.985 . S
C1224 C1225 1.363 . S
C1224 C1230 1.379 . S
C1224 N1232 1.356 . S
C1225 C1224 1.363 . S
C1225 C1231 1.363 . S
C1226 C1227 1.363 . S
C1226 C1231 1.379 . S
C1226 N1233 1.356 . S
C1227 C1226 1.363 . S
C1227 C1230 1.363 . S
N1228 C1230 1.356 . S
N1228 H1240 0.984 . S
N1228 H1241 0.985 . S
N1229 C1231 1.356 . S
N1229 H1234 0.984 . S
N1229 H1235 0.985 . S
C1230 C1224 1.379 . S
C1230 C1227 1.363 . S
C1230 N1228 1.356 . S
C1231 C1225 1.363 . S
C1231 C1226 1.379 . S
C1231 N1229 1.356 . S
N1232 C1224 1.356 . S
N1232 H1238 0.984 . S
N1232 H1239 0.984 . S
N1233 C1226 1.356 . S
N1233 H1236 0.984 . S
N1233 H1237 0.985 . S
H1234 N1229 0.984 . S
H1235 N1229 0.985 . S
H1236 N1233 0.984 . S
H1237 N1233 0.985 . S
H1238 N1232 0.984 . S
H1239 N1232 0.984 . S
H1240 N1228 0.984 . S
H1241 N1228 0.985 . S
C1242 C1243 1.363 . S
C1242 C1248 1.379 . S
C1242 N1250 1.356 . S
C1243 C1242 1.363 . S
C1243 C1249 1.363 . S
C1244 C1245 1.363 . S
C1244 C1249 1.379 . S
C1244 N1251 1.356 . S
C1245 C1244 1.363 . S
C1245 C1248 1.363 . S
N1246 C1248 1.356 . S
N1246 H1258 0.984 . S
N1246 H1259 0.985 . S
N1247 C1249 1.356 . S
N1247 H1252 0.984 . S
N1247 H1253 0.985 . S
C1248 C1242 1.379 . S
C1248 C1245 1.363 . S
C1248 N1246 1.356 . S
C1249 C1243 1.363 . S
C1249 C1244 1.379 . S
C1249 N1247 1.356 . S
N1250 C1242 1.356 . S
N1250 H1256 0.984 . S
N1250 H1257 0.984 . S
N1251 C1244 1.356 . S
N1251 H1254 0.984 . S
N1251 H1255 0.985 . S
H1252 N1247 0.984 . S
H1253 N1247 0.985 . S
H1254 N1251 0.984 . S
H1255 N1251 0.985 . S
H1256 N1250 0.984 . S
H1257 N1250 0.984 . S
H1258 N1246 0.984 . S
H1259 N1246 0.985 . S
C1260 C1261 1.363 . S
C1260 C1266 1.379 . S
C1260 N1268 1.356 . S
C1261 C1260 1.363 . S
C1261 C1267 1.363 . S
C1262 C1263 1.363 . S
C1262 C1267 1.379 . S
C1262 N1269 1.356 . S
C1263 C1262 1.363 . S
C1263 C1266 1.363 . S
N1264 C1266 1.356 . S
N1264 H1276 0.984 . S
N1264 H1277 0.985 . S
N1265 C1267 1.356 . S
N1265 H1270 0.984 . S
N1265 H1271 0.985 . S
C1266 C1260 1.379 . S
C1266 C1263 1.363 . S
C1266 N1264 1.356 . S
C1267 C1261 1.363 . S
C1267 C1262 1.379 . S
C1267 N1265 1.356 . S
N1268 C1260 1.356 . S
N1268 H1274 0.984 . S
N1268 H1275 0.984 . S
N1269 C1262 1.356 . S
N1269 H1272 0.984 . S
N1269 H1273 0.985 . S
H1270 N1265 0.984 . S
H1271 N1265 0.985 . S
H1272 N1269 0.984 . S
H1273 N1269 0.985 . S
H1274 N1268 0.984 . S
H1275 N1268 0.984 . S
H1276 N1264 0.984 . S
H1277 N1264 0.985 . S
C1278 C1279 1.363 . S
C1278 C1284 1.379 . S
C1278 N1286 1.356 . S
C1279 C1278 1.363 . S
C1279 C1285 1.363 . S
C1280 C1281 1.363 . S
C1280 C1285 1.379 . S
C1280 N1287 1.356 . S
C1281 C1280 1.363 . S
C1281 C1284 1.363 . S
N1282 C1284 1.356 . S
N1282 H1294 0.984 . S
N1282 H1295 0.985 . S
N1283 C1285 1.356 . S
N1283 H1288 0.984 . S
N1283 H1289 0.985 . S
C1284 C1278 1.379 . S
C1284 C1281 1.363 . S
C1284 N1282 1.356 . S
C1285 C1279 1.363 . S
C1285 C1280 1.379 . S
C1285 N1283 1.356 . S
N1286 C1278 1.356 . S
N1286 H1292 0.984 . S
N1286 H1293 0.984 . S
N1287 C1280 1.356 . S
N1287 H1290 0.984 . S
N1287 H1291 0.985 . S
H1288 N1283 0.984 . S
H1289 N1283 0.985 . S
H1290 N1287 0.984 . S
H1291 N1287 0.985 . S
H1292 N1286 0.984 . S
H1293 N1286 0.984 . S
H1294 N1282 0.984 . S
H1295 N1282 0.985 . S
C1296 C1297 1.363 . S
C1296 C1302 1.379 . S
C1296 N1304 1.356 . S
C1297 C1296 1.363 . S
C1297 C1303 1.363 . S
C1298 C1299 1.363 . S
C1298 C1303 1.379 . S
C1298 N1305 1.356 . S
C1299 C1298 1.363 . S
C1299 C1302 1.363 . S
N1300 C1302 1.356 . S
N1300 H1312 0.984 . S
N1300 H1313 0.985 . S
N1301 C1303 1.356 . S
N1301 H1306 0.984 . S
N1301 H1307 0.985 . S
C1302 C1296 1.379 . S
C1302 C1299 1.363 . S
C1302 N1300 1.356 . S
C1303 C1297 1.363 . S
C1303 C1298 1.379 . S
C1303 N1301 1.356 . S
N1304 C1296 1.356 . S
N1304 H1310 0.984 1_554 S
N1304 H1311 0.984 . S
N1305 C1298 1.356 . S
N1305 H1308 0.984 . S
N1305 H1309 0.985 . S
H1306 N1301 0.984 . S
H1307 N1301 0.985 . S
H1308 N1305 0.984 . S
H1309 N1305 0.985 . S
H1310 N1304 0.984 1_556 S
H1311 N1304 0.984 . S
H1312 N1300 0.984 . S
H1313 N1300 0.985 . S
C1314 C1315 1.363 . S
C1314 C1320 1.379 . S
C1314 N1322 1.356 . S
C1315 C1314 1.363 . S
C1315 C1321 1.363 . S
C1316 C1317 1.363 . S
C1316 C1321 1.379 . S
C1316 N1323 1.356 . S
C1317 C1316 1.363 . S
C1317 C1320 1.363 . S
N1318 C1320 1.356 . S
N1318 H1330 0.984 . S
N1318 H1331 0.985 . S
N1319 C1321 1.356 . S
N1319 H1324 0.984 . S
N1319 H1325 0.985 . S
C1320 C1314 1.379 . S
C1320 C1317 1.363 . S
C1320 N1318 1.356 . S
C1321 C1315 1.363 . S
C1321 C1316 1.379 . S
C1321 N1319 1.356 . S
N1322 C1314 1.356 . S
N1322 H1328 0.984 . S
N1322 H1329 0.984 . S
N1323 C1316 1.356 . S
N1323 H1326 0.984 . S
N1323 H1327 0.985 . S
H1324 N1319 0.984 . S
H1325 N1319 0.985 . S
H1326 N1323 0.984 . S
H1327 N1323 0.985 . S
H1328 N1322 0.984 . S
H1329 N1322 0.984 . S
H1330 N1318 0.984 . S
H1331 N1318 0.985 . S
C1332 C1333 1.363 . S
C1332 C1338 1.379 . S
C1332 N1340 1.356 . S
C1333 C1332 1.363 . S
C1333 C1339 1.363 . S
C1334 C1335 1.363 . S
C1334 C1339 1.379 . S
C1334 N1341 1.356 . S
C1335 C1334 1.363 . S
C1335 C1338 1.363 . S
N1336 C1338 1.356 . S
N1336 H1348 0.984 . S
N1336 H1349 0.985 . S
N1337 C1339 1.356 . S
N1337 H1342 0.984 . S
N1337 H1343 0.985 . S
C1338 C1332 1.379 . S
C1338 C1335 1.363 . S
C1338 N1336 1.356 . S
C1339 C1333 1.363 . S
C1339 C1334 1.379 . S
C1339 N1337 1.356 . S
N1340 C1332 1.356 . S
N1340 H1346 0.984 . S
N1340 H1347 0.984 . S
N1341 C1334 1.356 . S
N1341 H1344 0.984 . S
N1341 H1345 0.985 . S
H1342 N1337 0.984 . S
H1343 N1337 0.985 . S
H1344 N1341 0.984 . S
H1345 N1341 0.985 . S
H1346 N1340 0.984 . S
H1347 N1340 0.984 . S
H1348 N1336 0.984 . S
H1349 N1336 0.985 . S
C1350 C1351 1.363 . S
C1350 C1356 1.379 . S
C1350 N1358 1.356 . S
C1351 C1350 1.363 . S
C1351 C1357 1.363 . S
C1352 C1353 1.363 . S
C1352 C1357 1.379 . S
C1352 N1359 1.356 . S
C1353 C1352 1.363 . S
C1353 C1356 1.363 . S
N1354 C1356 1.356 . S
N1354 H1366 0.984 . S
N1354 H1367 0.985 . S
N1355 C1357 1.356 1_554 S
N1355 H1360 0.984 . S
N1355 H1361 0.985 . S
C1356 C1350 1.379 . S
C1356 C1353 1.363 . S
C1356 N1354 1.356 . S
C1357 C1351 1.363 . S
C1357 C1352 1.379 . S
C1357 N1355 1.356 1_556 S
N1358 C1350 1.356 . S
N1358 H1364 0.984 . S
N1358 H1365 0.984 . S
N1359 C1352 1.356 . S
N1359 H1362 0.984 . S
N1359 H1363 0.985 . S
H1360 N1355 0.984 . S
H1361 N1355 0.985 . S
H1362 N1359 0.984 . S
H1363 N1359 0.985 . S
H1364 N1358 0.984 . S
H1365 N1358 0.984 . S
H1366 N1354 0.984 . S
H1367 N1354 0.985 . S
C1368 C1369 1.363 . S
C1368 C1374 1.379 . S
C1368 N1376 1.356 . S
C1369 C1368 1.363 . S
C1369 C1375 1.363 . S
C1370 C1371 1.363 . S
C1370 C1375 1.379 . S
C1370 N1377 1.356 . S
C1371 C1370 1.363 . S
C1371 C1374 1.363 . S
N1372 C1374 1.356 . S
N1372 H1384 0.984 . S
N1372 H1385 0.985 . S
N1373 C1375 1.356 . S
N1373 H1378 0.984 . S
N1373 H1379 0.985 . S
C1374 C1368 1.379 . S
C1374 C1371 1.363 . S
C1374 N1372 1.356 . S
C1375 C1369 1.363 . S
C1375 C1370 1.379 . S
C1375 N1373 1.356 . S
N1376 C1368 1.356 . S
N1376 H1382 0.984 . S
N1376 H1383 0.984 . S
N1377 C1370 1.356 . S
N1377 H1380 0.984 . S
N1377 H1381 0.985 . S
H1378 N1373 0.984 . S
H1379 N1373 0.985 . S
H1380 N1377 0.984 . S
H1381 N1377 0.985 . S
H1382 N1376 0.984 . S
H1383 N1376 0.984 . S
H1384 N1372 0.984 . S
H1385 N1372 0.985 . S
C1386 C1387 1.363 . S
C1386 C1392 1.379 . S
C1386 N1394 1.356 1_556 S
C1387 C1386 1.363 . S
C1387 C1393 1.363 . S
C1388 C1389 1.363 . S
C1388 C1393 1.379 . S
C1388 N1395 1.356 . S
C1389 C1388 1.363 . S
C1389 C1392 1.363 . S
N1390 C1392 1.356 . S
N1390 H1402 0.984 . S
N1390 H1403 0.985 . S
N1391 C1393 1.356 . S
N1391 H1396 0.984 . S
N1391 H1397 0.985 . S
C1392 C1386 1.379 . S
C1392 C1389 1.363 . S
C1392 N1390 1.356 . S
C1393 C1387 1.363 . S
C1393 C1388 1.379 . S
C1393 N1391 1.356 . S
N1394 C1386 1.356 1_554 S
N1394 H1400 0.984 . S
N1394 H1401 0.984 . S
N1395 C1388 1.356 . S
N1395 H1398 0.984 . S
N1395 H1399 0.985 . S
H1396 N1391 0.984 . S
H1397 N1391 0.985 . S
H1398 N1395 0.984 . S
H1399 N1395 0.985 . S
H1400 N1394 0.984 . S
H1401 N1394 0.984 . S
H1402 N1390 0.984 . S
H1403 N1390 0.985 . S
C1404 C1405 1.363 . S
C1404 C1410 1.379 . S
C1404 N1412 1.356 . S
C1405 C1404 1.363 . S
C1405 C1411 1.363 . S
C1406 C1407 1.363 . S
C1406 C1411 1.379 . S
C1406 N1413 1.356 . S
C1407 C1406 1.363 . S
C1407 C1410 1.363 . S
N1408 C1410 1.356 . S
N1408 H1420 0.984 . S
N1408 H1421 0.985 . S
N1409 C1411 1.356 . S
N1409 H1414 0.984 . S
N1409 H1415 0.985 . S
C1410 C1404 1.379 . S
C1410 C1407 1.363 . S
C1410 N1408 1.356 . S
C1411 C1405 1.363 . S
C1411 C1406 1.379 . S
C1411 N1409 1.356 . S
N1412 C1404 1.356 . S
N1412 H1418 0.984 . S
N1412 H1419 0.984 . S
N1413 C1406 1.356 . S
N1413 H1416 0.984 . S
N1413 H1417 0.985 . S
H1414 N1409 0.984 . S
H1415 N1409 0.985 . S
H1416 N1413 0.984 . S
H1417 N1413 0.985 . S
H1418 N1412 0.984 . S
H1419 N1412 0.984 . S
H1420 N1408 0.984 . S
H1421 N1408 0.985 . S
C1422 C1423 1.363 . S
C1422 C1428 1.379 . S
C1422 N1430 1.356 . S
C1423 C1422 1.363 . S
C1423 C1429 1.363 . S
C1424 C1425 1.363 . S
C1424 C1429 1.379 . S
C1424 N1431 1.356 . S
C1425 C1424 1.363 . S
C1425 C1428 1.363 . S
N1426 C1428 1.356 . S
N1426 H1438 0.984 . S
N1426 H1439 0.985 . S
N1427 C1429 1.356 . S
N1427 H1432 0.984 . S
N1427 H1433 0.985 . S
C1428 C1422 1.379 . S
C1428 C1425 1.363 . S
C1428 N1426 1.356 . S
C1429 C1423 1.363 . S
C1429 C1424 1.379 . S
C1429 N1427 1.356 . S
N1430 C1422 1.356 . S
N1430 H1436 0.984 . S
N1430 H1437 0.984 . S
N1431 C1424 1.356 . S
N1431 H1434 0.984 . S
N1431 H1435 0.985 . S
H1432 N1427 0.984 . S
H1433 N1427 0.985 . S
H1434 N1431 0.984 . S
H1435 N1431 0.985 . S
H1436 N1430 0.984 . S
H1437 N1430 0.984 . S
H1438 N1426 0.984 . S
H1439 N1426 0.985 . S
C1440 C1441 1.363 . S
C1440 C1446 1.379 . S
C1440 N1448 1.356 . S
C1441 C1440 1.363 . S
C1441 C1447 1.363 . S
C1442 C1443 1.363 . S
C1442 C1447 1.379 . S
C1442 N1449 1.356 . S
C1443 C1442 1.363 . S
C1443 C1446 1.363 . S
N1444 C1446 1.356 . S
N1444 H1456 0.984 . S
N1444 H1457 0.985 . S
N1445 C1447 1.356 . S
N1445 H1450 0.984 . S
N1445 H1451 0.985 . S
C1446 C1440 1.379 . S
C1446 C1443 1.363 . S
C1446 N1444 1.356 . S
C1447 C1441 1.363 . S
C1447 C1442 1.379 . S
C1447 N1445 1.356 . S
N1448 C1440 1.356 . S
N1448 H1454 0.984 . S
N1448 H1455 0.984 . S
N1449 C1442 1.356 . S
N1449 H1452 0.984 . S
N1449 H1453 0.985 . S
H1450 N1445 0.984 . S
H1451 N1445 0.985 . S
H1452 N1449 0.984 . S
H1453 N1449 0.985 . S
H1454 N1448 0.984 . S
H1455 N1448 0.984 . S
H1456 N1444 0.984 . S
H1457 N1444 0.985 . S
C1458 C1459 1.363 . S
C1458 C1464 1.379 . S
C1458 N1466 1.356 . S
C1459 C1458 1.363 . S
C1459 C1465 1.363 . S
C1460 C1461 1.363 . S
C1460 C1465 1.379 . S
C1460 N1467 1.356 . S
C1461 C1460 1.363 . S
C1461 C1464 1.363 . S
N1462 C1464 1.356 . S
N1462 H1474 0.984 . S
N1462 H1475 0.985 . S
N1463 C1465 1.356 . S
N1463 H1468 0.984 . S
N1463 H1469 0.985 . S
C1464 C1458 1.379 . S
C1464 C1461 1.363 . S
C1464 N1462 1.356 . S
C1465 C1459 1.363 . S
C1465 C1460 1.379 . S
C1465 N1463 1.356 . S
N1466 C1458 1.356 . S
N1466 H1472 0.984 . S
N1466 H1473 0.984 . S
N1467 C1460 1.356 . S
N1467 H1470 0.984 . S
N1467 H1471 0.985 . S
H1468 N1463 0.984 . S
H1469 N1463 0.985 . S
H1470 N1467 0.984 . S
H1471 N1467 0.985 . S
H1472 N1466 0.984 . S
H1473 N1466 0.984 . S
H1474 N1462 0.984 . S
H1475 N1462 0.985 . S
C1476 C1477 1.363 . S
C1476 C1482 1.379 . S
C1476 N1484 1.356 . S
C1477 C1476 1.363 . S
C1477 C1483 1.363 . S
C1478 C1479 1.363 . S
C1478 C1483 1.379 . S
C1478 N1485 1.356 . S
C1479 C1478 1.363 . S
C1479 C1482 1.363 . S
N1480 C1482 1.356 . S
N1480 H1492 0.984 . S
N1480 H1493 0.985 . S
N1481 C1483 1.356 . S
N1481 H1486 0.984 . S
N1481 H1487 0.985 . S
C1482 C1476 1.379 . S
C1482 C1479 1.363 . S
C1482 N1480 1.356 . S
C1483 C1477 1.363 . S
C1483 C1478 1.379 . S
C1483 N1481 1.356 . S
N1484 C1476 1.356 . S
N1484 H1490 0.984 . S
N1484 H1491 0.984 . S
N1485 C1478 1.356 . S
N1485 H1488 0.984 . S
N1485 H1489 0.985 . S
H1486 N1481 0.984 . S
H1487 N1481 0.985 . S
H1488 N1485 0.984 . S
H1489 N1485 0.985 . S
H1490 N1484 0.984 . S
H1491 N1484 0.984 . S
H1492 N1480 0.984 . S
H1493 N1480 0.985 . S
C1494 C1495 1.363 . S
C1494 C1500 1.379 . S
C1494 N1502 1.356 . S
C1495 C1494 1.363 . S
C1495 C1501 1.363 . S
C1496 C1497 1.363 . S
C1496 C1501 1.379 . S
C1496 N1503 1.356 . S
C1497 C1496 1.363 . S
C1497 C1500 1.363 . S
N1498 C1500 1.356 . S
N1498 H1510 0.984 . S
N1498 H1511 0.985 . S
N1499 C1501 1.356 . S
N1499 H1504 0.984 . S
N1499 H1505 0.985 . S
C1500 C1494 1.379 . S
C1500 C1497 1.363 . S
C1500 N1498 1.356 . S
C1501 C1495 1.363 . S
C1501 C1496 1.379 . S
C1501 N1499 1.356 . S
N1502 C1494 1.356 . S
N1502 H1508 0.984 . S
N1502 H1509 0.984 . S
N1503 C1496 1.356 . S
N1503 H1506 0.984 . S
N1503 H1507 0.985 . S
H1504 N1499 0.984 . S
H1505 N1499 0.985 . S
H1506 N1503 0.984 . S
H1507 N1503 0.985 . S
H1508 N1502 0.984 . S
H1509 N1502 0.984 . S
H1510 N1498 0.984 . S
H1511 N1498 0.985 . S
C1512 C1513 1.363 . S
C1512 C1518 1.379 . S
C1512 N1520 1.356 . S
C1513 C1512 1.363 . S
C1513 C1519 1.363 . S
C1514 C1515 1.363 . S
C1514 C1519 1.379 . S
C1514 N1521 1.356 . S
C1515 C1514 1.363 . S
C1515 C1518 1.363 . S
N1516 C1518 1.356 . S
N1516 H1528 0.984 . S
N1516 H1529 0.985 . S
N1517 C1519 1.356 . S
N1517 H1522 0.984 . S
N1517 H1523 0.985 . S
C1518 C1512 1.379 . S
C1518 C1515 1.363 . S
C1518 N1516 1.356 . S
C1519 C1513 1.363 . S
C1519 C1514 1.379 . S
C1519 N1517 1.356 . S
N1520 C1512 1.356 . S
N1520 H1526 0.984 . S
N1520 H1527 0.984 . S
N1521 C1514 1.356 . S
N1521 H1524 0.984 . S
N1521 H1525 0.985 . S
H1522 N1517 0.984 . S
H1523 N1517 0.985 . S
H1524 N1521 0.984 . S
H1525 N1521 0.985 . S
H1526 N1520 0.984 . S
H1527 N1520 0.984 . S
H1528 N1516 0.984 . S
H1529 N1516 0.985 . S
C1530 C1531 1.337 1_655 S
C1530 C1536 1.394 . S
C1530 N1538 1.362 . S
C1531 C1530 1.337 1_455 S
C1531 C1537 1.363 . S
C1532 C1533 1.363 . S
C1532 C1537 1.379 . S
C1532 N1539 1.356 . S
C1533 C1532 1.363 . S
C1533 C1536 1.365 1_455 S
N1534 C1536 1.351 . S
N1534 H1546 0.984 . S
N1534 H1547 0.985 . S
N1535 C1537 1.356 . S
N1535 H1540 0.984 . S
N1535 H1541 0.985 . S
C1536 C1530 1.394 . S
C1536 C1533 1.365 1_655 S
C1536 N1534 1.351 . S
C1537 C1531 1.363 . S
C1537 C1532 1.379 . S
C1537 N1535 1.356 . S
N1538 C1530 1.362 . S
N1538 H1544 0.984 . S
N1538 H1545 0.984 . S
N1539 C1532 1.356 . S
N1539 H1542 0.984 . S
N1539 H1543 0.985 . S
H1540 N1535 0.984 . S
H1541 N1535 0.985 . S
H1542 N1539 0.984 . S
H1543 N1539 0.985 . S
H1544 N1538 0.984 . S
H1545 N1538 0.984 . S
H1546 N1534 0.984 . S
H1547 N1534 0.985 . S
C1548 C1549 1.363 . S
C1548 C1554 1.379 . S
C1548 N1556 1.356 . S
C1549 C1548 1.363 . S
C1549 C1555 1.363 . S
C1550 C1551 1.363 . S
C1550 C1555 1.379 . S
C1550 N1557 1.356 . S
C1551 C1550 1.363 . S
C1551 C1554 1.363 . S
N1552 C1554 1.356 . S
N1552 H1564 0.984 . S
N1552 H1565 0.985 . S
N1553 C1555 1.356 . S
N1553 H1558 0.984 . S
N1553 H1559 0.985 . S
C1554 C1548 1.379 . S
C1554 C1551 1.363 . S
C1554 N1552 1.356 . S
C1555 C1549 1.363 . S
C1555 C1550 1.379 . S
C1555 N1553 1.356 . S
N1556 C1548 1.356 . S
N1556 H1562 0.984 . S
N1556 H1563 0.984 . S
N1557 C1550 1.356 . S
N1557 H1560 0.984 . S
N1557 H1561 0.985 . S
H1558 N1553 0.984 . S
H1559 N1553 0.985 . S
H1560 N1557 0.984 . S
H1561 N1557 0.985 . S
H1562 N1556 0.984 . S
H1563 N1556 0.984 . S
H1564 N1552 0.984 . S
H1565 N1552 0.985 . S
C1566 C1567 1.363 1_545 S
C1566 C1572 1.379 . S
C1566 N1574 1.356 . S
C1567 C1566 1.363 1_565 S
C1567 C1573 1.363 . S
C1568 C1569 1.363 . S
C1568 C1573 1.379 . S
C1568 N1575 1.356 . S
C1569 C1568 1.363 . S
C1569 C1572 1.363 1_565 S
N1570 C1572 1.356 . S
N1570 H1582 0.984 . S
N1570 H1583 0.985 . S
N1571 C1573 1.356 . S
N1571 H1576 0.984 . S
N1571 H1577 0.985 . S
C1572 C1566 1.379 . S
C1572 C1569 1.363 1_545 S
C1572 N1570 1.356 . S
C1573 C1567 1.363 . S
C1573 C1568 1.379 . S
C1573 N1571 1.356 . S
N1574 C1566 1.356 . S
N1574 H1580 0.984 . S
N1574 H1581 0.984 . S
N1575 C1568 1.356 . S
N1575 H1578 0.984 . S
N1575 H1579 0.985 . S
H1576 N1571 0.984 . S
H1577 N1571 0.985 . S
H1578 N1575 0.984 . S
H1579 N1575 0.985 . S
H1580 N1574 0.984 . S
H1581 N1574 0.984 . S
H1582 N1570 0.984 . S
H1583 N1570 0.985 . S
C1584 C1585 1.363 . S
C1584 C1590 1.379 . S
C1584 N1592 1.356 . S
C1585 C1584 1.363 . S
C1585 C1591 1.363 1_565 S
C1586 C1587 1.363 1_545 S
C1586 C1591 1.379 . S
C1586 N1593 1.356 . S
C1587 C1586 1.363 1_565 S
C1587 C1590 1.363 . S
N1588 C1590 1.356 . S
N1588 H1600 0.984 . S
N1588 H1601 0.985 . S
N1589 C1591 1.356 . S
N1589 H1594 0.984 . S
N1589 H1595 0.985 . S
C1590 C1584 1.379 . S
C1590 C1587 1.363 . S
C1590 N1588 1.356 . S
C1591 C1585 1.363 1_545 S
C1591 C1586 1.379 . S
C1591 N1589 1.356 . S
N1592 C1584 1.356 . S
N1592 H1598 0.984 . S
N1592 H1599 0.984 . S
N1593 C1586 1.356 . S
N1593 H1596 0.984 . S
N1593 H1597 0.985 . S
H1594 N1589 0.984 . S
H1595 N1589 0.985 . S
H1596 N1593 0.984 . S
H1597 N1593 0.985 . S
H1598 N1592 0.984 . S
H1599 N1592 0.984 . S
H1600 N1588 0.984 . S
H1601 N1588 0.985 . S
C1602 C1603 1.363 . S
C1602 C1608 1.379 . S
C1602 N1610 1.356 . S
C1603 C1602 1.363 . S
C1603 C1609 1.363 . S
C1604 C1605 1.363 . S
C1604 C1609 1.379 . S
C1604 N1611 1.356 . S
C1605 C1604 1.363 . S
C1605 C1608 1.363 . S
N1606 C1608 1.356 . S
N1606 H1618 0.984 . S
N1606 H1619 0.985 . S
N1607 C1609 1.356 . S
N1607 H1612 0.984 . S
N1607 H1613 0.985 . S
C1608 C1602 1.379 . S
C1608 C1605 1.363 . S
C1608 N1606 1.356 . S
C1609 C1603 1.363 . S
C1609 C1604 1.379 . S
C1609 N1607 1.356 . S
N1610 C1602 1.356 . S
N1610 H1616 0.984 . S
N1610 H1617 0.984 . S
N1611 C1604 1.356 . S
N1611 H1614 0.984 . S
N1611 H1615 0.985 . S
H1612 N1607 0.984 . S
H1613 N1607 0.985 . S
H1614 N1611 0.984 . S
H1615 N1611 0.985 . S
H1616 N1610 0.984 . S
H1617 N1610 0.984 . S
H1618 N1606 0.984 . S
H1619 N1606 0.985 . S
C1620 C1621 1.363 . S
C1620 C1626 1.379 . S
C1620 N1628 1.356 . S
C1621 C1620 1.363 . S
C1621 C1627 1.363 . S
C1622 C1623 1.363 . S
C1622 C1627 1.379 . S
C1622 N1629 1.356 . S
C1623 C1622 1.363 . S
C1623 C1626 1.363 . S
N1624 C1626 1.356 . S
N1624 H1636 0.984 . S
N1624 H1637 0.985 . S
N1625 C1627 1.356 . S
N1625 H1630 0.984 . S
N1625 H1631 0.985 . S
C1626 C1620 1.379 . S
C1626 C1623 1.363 . S
C1626 N1624 1.356 . S
C1627 C1621 1.363 . S
C1627 C1622 1.379 . S
C1627 N1625 1.356 . S
N1628 C1620 1.356 . S
N1628 H1634 0.984 . S
N1628 H1635 0.984 . S
N1629 C1622 1.356 . S
N1629 H1632 0.984 . S
N1629 H1633 0.985 . S
H1630 N1625 0.984 . S
H1631 N1625 0.985 . S
H1632 N1629 0.984 . S
H1633 N1629 0.985 . S
H1634 N1628 0.984 . S
H1635 N1628 0.984 . S
H1636 N1624 0.984 . S
H1637 N1624 0.985 . S
C1638 C1639 1.363 . S
C1638 C1644 1.379 . S
C1638 N1646 1.356 . S
C1639 C1638 1.363 . S
C1639 C1645 1.363 . S
C1640 C1641 1.363 . S
C1640 C1645 1.379 . S
C1640 N1647 1.356 . S
C1641 C1640 1.363 . S
C1641 C1644 1.363 . S
N1642 C1644 1.356 . S
N1642 H1654 0.984 . S
N1642 H1655 0.985 . S
N1643 C1645 1.356 . S
N1643 H1648 0.984 . S
N1643 H1649 0.985 . S
C1644 C1638 1.379 . S
C1644 C1641 1.363 . S
C1644 N1642 1.356 . S
C1645 C1639 1.363 . S
C1645 C1640 1.379 . S
C1645 N1643 1.356 . S
N1646 C1638 1.356 . S
N1646 H1652 0.984 . S
N1646 H1653 0.984 . S
N1647 C1640 1.356 . S
N1647 H1650 0.984 . S
N1647 H1651 0.985 . S
H1648 N1643 0.984 . S
H1649 N1643 0.985 . S
H1650 N1647 0.984 . S
H1651 N1647 0.985 . S
H1652 N1646 0.984 . S
H1653 N1646 0.984 . S
H1654 N1642 0.984 . S
H1655 N1642 0.985 . S
C1656 C1657 1.363 . S
C1656 C1662 1.379 . S
C1656 N1664 1.356 . S
C1657 C1656 1.363 . S
C1657 C1663 1.363 . S
C1658 C1659 1.363 . S
C1658 C1663 1.379 . S
C1658 N1665 1.356 . S
C1659 C1658 1.363 . S
C1659 C1662 1.363 . S
N1660 C1662 1.356 . S
N1660 H1672 0.984 . S
N1660 H1673 0.985 . S
N1661 C1663 1.356 . S
N1661 H1666 0.984 . S
N1661 H1667 0.985 . S
C1662 C1656 1.379 . S
C1662 C1659 1.363 . S
C1662 N1660 1.356 . S
C1663 C1657 1.363 . S
C1663 C1658 1.379 . S
C1663 N1661 1.356 . S
N1664 C1656 1.356 . S
N1664 H1670 0.984 . S
N1664 H1671 0.984 . S
N1665 C1658 1.356 . S
N1665 H1668 0.984 . S
N1665 H1669 0.985 . S
H1666 N1661 0.984 . S
H1667 N1661 0.985 . S
H1668 N1665 0.984 . S
H1669 N1665 0.985 . S
H1670 N1664 0.984 . S
H1671 N1664 0.984 . S
H1672 N1660 0.984 . S
H1673 N1660 0.985 . S
C1674 C1675 1.363 . S
C1674 C1680 1.379 . S
C1674 N1682 1.356 . S
C1675 C1674 1.363 . S
C1675 C1681 1.363 . S
C1676 C1677 1.363 . S
C1676 C1681 1.379 . S
C1676 N1683 1.356 . S
C1677 C1676 1.363 . S
C1677 C1680 1.363 . S
N1678 C1680 1.356 . S
N1678 H1690 0.984 . S
N1678 H1691 0.985 . S
N1679 C1681 1.356 . S
N1679 H1684 0.984 . S
N1679 H1685 0.985 . S
C1680 C1674 1.379 . S
C1680 C1677 1.363 . S
C1680 N1678 1.356 . S
C1681 C1675 1.363 . S
C1681 C1676 1.379 . S
C1681 N1679 1.356 . S
N1682 C1674 1.356 . S
N1682 H1688 0.984 . S
N1682 H1689 0.984 . S
N1683 C1676 1.356 . S
N1683 H1686 0.984 . S
N1683 H1687 0.985 . S
H1684 N1679 0.984 . S
H1685 N1679 0.985 . S
H1686 N1683 0.984 . S
H1687 N1683 0.985 . S
H1688 N1682 0.984 . S
H1689 N1682 0.984 . S
H1690 N1678 0.984 . S
H1691 N1678 0.985 . S
C1692 C1693 1.363 1_565 S
C1692 C1698 1.379 . S
C1692 N1700 1.356 . S
C1693 C1692 1.363 1_545 S
C1693 C1699 1.363 . S
C1694 C1695 1.363 . S
C1694 C1699 1.379 . S
C1694 N1701 1.356 . S
C1695 C1694 1.363 . S
C1695 C1698 1.363 1_545 S
N1696 C1698 1.356 . S
N1696 H1708 0.984 . S
N1696 H1709 0.985 . S
N1697 C1699 1.356 . S
N1697 H1702 0.984 . S
N1697 H1703 0.985 . S
C1698 C1692 1.379 . S
C1698 C1695 1.363 1_565 S
C1698 N1696 1.356 . S
C1699 C1693 1.363 . S
C1699 C1694 1.379 . S
C1699 N1697 1.356 . S
N1700 C1692 1.356 . S
N1700 H1706 0.984 . S
N1700 H1707 0.984 . S
N1701 C1694 1.356 . S
N1701 H1704 0.984 . S
N1701 H1705 0.985 . S
H1702 N1697 0.984 . S
H1703 N1697 0.985 . S
H1704 N1701 0.984 . S
H1705 N1701 0.985 . S
H1706 N1700 0.984 . S
H1707 N1700 0.984 . S
H1708 N1696 0.984 . S
H1709 N1696 0.985 . S
C1710 C1711 1.363 1_455 S
C1710 C1716 1.379 . S
C1710 N1718 1.356 . S
C1711 C1710 1.363 1_655 S
C1711 C1717 1.363 . S
C1712 C1713 1.363 . S
C1712 C1717 1.379 . S
C1712 N1719 1.356 . S
C1713 C1712 1.363 . S
C1713 C1716 1.363 1_655 S
N1714 C1716 1.356 . S
N1714 H1726 0.984 . S
N1714 H1727 0.985 . S
N1715 C1717 1.356 . S
N1715 H1720 0.984 . S
N1715 H1721 0.985 . S
C1716 C1710 1.379 . S
C1716 C1713 1.363 1_455 S
C1716 N1714 1.356 . S
C1717 C1711 1.363 . S
C1717 C1712 1.379 . S
C1717 N1715 1.356 . S
N1718 C1710 1.356 . S
N1718 H1724 0.984 . S
N1718 H1725 0.984 . S
N1719 C1712 1.356 . S
N1719 H1722 0.984 . S
N1719 H1723 0.985 . S
H1720 N1715 0.984 . S
H1721 N1715 0.985 . S
H1722 N1719 0.984 . S
H1723 N1719 0.985 . S
H1724 N1718 0.984 . S
H1725 N1718 0.984 . S
H1726 N1714 0.984 . S
H1727 N1714 0.985 . S
C1728 C1729 1.363 . S
C1728 C1734 1.379 . S
C1728 N1736 1.356 . S
C1729 C1728 1.363 . S
C1729 C1735 1.363 . S
C1730 C1731 1.363 . S
C1730 C1735 1.379 . S
C1730 N1737 1.356 . S
C1731 C1730 1.363 . S
C1731 C1734 1.363 . S
N1732 C1734 1.356 . S
N1732 H1744 0.984 . S
N1732 H1745 0.985 . S
N1733 C1735 1.356 . S
N1733 H1738 0.984 . S
N1733 H1739 0.985 . S
C1734 C1728 1.379 . S
C1734 C1731 1.363 . S
C1734 N1732 1.356 . S
C1735 C1729 1.363 . S
C1735 C1730 1.379 . S
C1735 N1733 1.356 . S
N1736 C1728 1.356 . S
N1736 H1742 0.984 . S
N1736 H1743 0.984 . S
N1737 C1730 1.356 . S
N1737 H1740 0.984 . S
N1737 H1741 0.985 . S
H1738 N1733 0.984 . S
H1739 N1733 0.985 . S
H1740 N1737 0.984 . S
H1741 N1737 0.985 . S
H1742 N1736 0.984 . S
H1743 N1736 0.984 . S
H1744 N1732 0.984 . S
H1745 N1732 0.985 . S
C1746 C1747 1.363 . S
C1746 C1752 1.379 . S
C1746 N1754 1.356 . S
C1747 C1746 1.363 . S
C1747 C1753 1.363 . S
C1748 C1749 1.363 . S
C1748 C1753 1.379 . S
C1748 N1755 1.356 . S
C1749 C1748 1.363 . S
C1749 C1752 1.363 . S
N1750 C1752 1.356 . S
N1750 H1762 0.984 . S
N1750 H1763 0.985 . S
N1751 C1753 1.356 . S
N1751 H1756 0.984 . S
N1751 H1757 0.985 . S
C1752 C1746 1.379 . S
C1752 C1749 1.363 . S
C1752 N1750 1.356 . S
C1753 C1747 1.363 . S
C1753 C1748 1.379 . S
C1753 N1751 1.356 . S
N1754 C1746 1.356 . S
N1754 H1760 0.984 . S
N1754 H1761 0.984 . S
N1755 C1748 1.356 . S
N1755 H1758 0.984 . S
N1755 H1759 0.985 . S
H1756 N1751 0.984 . S
H1757 N1751 0.985 . S
H1758 N1755 0.984 . S
H1759 N1755 0.985 . S
H1760 N1754 0.984 . S
H1761 N1754 0.984 . S
H1762 N1750 0.984 . S
H1763 N1750 0.985 . S
C1764 C1765 1.363 . S
C1764 C1770 1.379 . S
C1764 N1772 1.356 . S
C1765 C1764 1.363 . S
C1765 C1771 1.363 . S
C1766 C1767 1.363 . S
C1766 C1771 1.379 . S
C1766 N1773 1.356 . S
C1767 C1766 1.363 . S
C1767 C1770 1.363 . S
N1768 C1770 1.356 . S
N1768 H1780 0.984 . S
N1768 H1781 0.985 . S
N1769 C1771 1.356 . S
N1769 H1774 0.984 . S
N1769 H1775 0.985 . S
C1770 C1764 1.379 . S
C1770 C1767 1.363 . S
C1770 N1768 1.356 . S
C1771 C1765 1.363 . S
C1771 C1766 1.379 . S
C1771 N1769 1.356 . S
N1772 C1764 1.356 . S
N1772 H1778 0.984 . S
N1772 H1779 0.984 . S
N1773 C1766 1.356 . S
N1773 H1776 0.984 . S
N1773 H1777 0.985 . S
H1774 N1769 0.984 . S
H1775 N1769 0.985 . S
H1776 N1773 0.984 . S
H1777 N1773 0.985 . S
H1778 N1772 0.984 . S
H1779 N1772 0.984 . S
H1780 N1768 0.984 . S
H1781 N1768 0.985 . S
C1782 C1783 1.363 . S
C1782 C1788 1.379 . S
C1782 N1790 1.356 . S
C1783 C1782 1.363 . S
C1783 C1789 1.363 . S
C1784 C1785 1.363 . S
C1784 C1789 1.379 . S
C1784 N1791 1.356 . S
C1785 C1784 1.363 . S
C1785 C1788 1.363 . S
N1786 C1788 1.356 . S
N1786 H1798 0.984 . S
N1786 H1799 0.985 . S
N1787 C1789 1.356 . S
N1787 H1792 0.984 . S
N1787 H1793 0.985 . S
C1788 C1782 1.379 . S
C1788 C1785 1.363 . S
C1788 N1786 1.356 . S
C1789 C1783 1.363 . S
C1789 C1784 1.379 . S
C1789 N1787 1.356 . S
N1790 C1782 1.356 . S
N1790 H1796 0.984 . S
N1790 H1797 0.984 . S
N1791 C1784 1.356 . S
N1791 H1794 0.984 . S
N1791 H1795 0.985 . S
H1792 N1787 0.984 . S
H1793 N1787 0.985 . S
H1794 N1791 0.984 . S
H1795 N1791 0.985 . S
H1796 N1790 0.984 . S
H1797 N1790 0.984 . S
H1798 N1786 0.984 . S
H1799 N1786 0.985 . S
C1800 C1801 1.363 . S
C1800 C1806 1.379 . S
C1800 N1808 1.356 . S
C1801 C1800 1.363 . S
C1801 C1807 1.363 . S
C1802 C1803 1.363 . S
C1802 C1807 1.379 . S
C1802 N1809 1.356 . S
C1803 C1802 1.363 . S
C1803 C1806 1.363 . S
N1804 C1806 1.356 . S
N1804 H1816 0.984 . S
N1804 H1817 0.985 . S
N1805 C1807 1.356 . S
N1805 H1810 0.984 . S
N1805 H1811 0.985 . S
C1806 C1800 1.379 . S
C1806 C1803 1.363 . S
C1806 N1804 1.356 . S
C1807 C1801 1.363 . S
C1807 C1802 1.379 . S
C1807 N1805 1.356 . S
N1808 C1800 1.356 . S
N1808 H1814 0.984 . S
N1808 H1815 0.984 . S
N1809 C1802 1.356 . S
N1809 H1812 0.984 . S
N1809 H1813 0.985 . S
H1810 N1805 0.984 . S
H1811 N1805 0.985 . S
H1812 N1809 0.984 . S
H1813 N1809 0.985 . S
H1814 N1808 0.984 . S
H1815 N1808 0.984 . S
H1816 N1804 0.984 . S
H1817 N1804 0.985 . S
C1818 C1819 1.363 . S
C1818 C1824 1.379 . S
C1818 N1826 1.356 . S
C1819 C1818 1.363 . S
C1819 C1825 1.363 . S
C1820 C1821 1.363 . S
C1820 C1825 1.379 . S
C1820 N1827 1.356 . S
C1821 C1820 1.363 . S
C1821 C1824 1.363 . S
N1822 C1824 1.356 . S
N1822 H1834 0.984 . S
N1822 H1835 0.985 . S
N1823 C1825 1.356 . S
N1823 H1828 0.984 . S
N1823 H1829 0.985 . S
C1824 C1818 1.379 . S
C1824 C1821 1.363 . S
C1824 N1822 1.356 . S
C1825 C1819 1.363 . S
C1825 C1820 1.379 . S
C1825 N1823 1.356 . S
N1826 C1818 1.356 . S
N1826 H1832 0.984 . S
N1826 H1833 0.984 . S
N1827 C1820 1.356 . S
N1827 H1830 0.984 . S
N1827 H1831 0.985 . S
H1828 N1823 0.984 . S
H1829 N1823 0.985 . S
H1830 N1827 0.984 . S
H1831 N1827 0.985 . S
H1832 N1826 0.984 . S
H1833 N1826 0.984 . S
H1834 N1822 0.984 . S
H1835 N1822 0.985 . S
C1836 C1837 1.363 . S
C1836 C1842 1.379 . S
C1836 N1844 1.356 . S
C1837 C1836 1.363 . S
C1837 C1843 1.363 . S
C1838 C1839 1.363 . S
C1838 C1843 1.379 . S
C1838 N1845 1.356 . S
C1839 C1838 1.363 . S
C1839 C1842 1.363 . S
N1840 C1842 1.356 . S
N1840 H1852 0.984 . S
N1840 H1853 0.985 . S
N1841 C1843 1.356 . S
N1841 H1846 0.984 . S
N1841 H1847 0.985 . S
C1842 C1836 1.379 . S
C1842 C1839 1.363 . S
C1842 N1840 1.356 . S
C1843 C1837 1.363 . S
C1843 C1838 1.379 . S
C1843 N1841 1.356 . S
N1844 C1836 1.356 . S
N1844 H1850 0.984 . S
N1844 H1851 0.984 . S
N1845 C1838 1.356 . S
N1845 H1848 0.984 . S
N1845 H1849 0.985 . S
H1846 N1841 0.984 . S
H1847 N1841 0.985 . S
H1848 N1845 0.984 . S
H1849 N1845 0.985 . S
H1850 N1844 0.984 . S
H1851 N1844 0.984 . S
H1852 N1840 0.984 . S
H1853 N1840 0.985 . S
C1854 C1855 1.363 . S
C1854 C1860 1.379 . S
C1854 N1862 1.356 . S
C1855 C1854 1.363 . S
C1855 C1861 1.363 1_655 S
C1856 C1857 1.363 1_455 S
C1856 C1861 1.379 . S
C1856 N1863 1.356 . S
C1857 C1856 1.363 1_655 S
C1857 C1860 1.363 . S
N1858 C1860 1.356 . S
N1858 H1870 0.984 . S
N1858 H1871 0.985 . S
N1859 C1861 1.356 . S
N1859 H1864 0.984 . S
N1859 H1865 0.985 . S
C1860 C1854 1.379 . S
C1860 C1857 1.363 . S
C1860 N1858 1.356 . S
C1861 C1855 1.363 1_455 S
C1861 C1856 1.379 . S
C1861 N1859 1.356 . S
N1862 C1854 1.356 . S
N1862 H1868 0.984 . S
N1862 H1869 0.984 . S
N1863 C1856 1.356 . S
N1863 H1866 0.984 . S
N1863 H1867 0.985 . S
H1864 N1859 0.984 . S
H1865 N1859 0.985 . S
H1866 N1863 0.984 . S
H1867 N1863 0.985 . S
H1868 N1862 0.984 . S
H1869 N1862 0.984 . S
H1870 N1858 0.984 . S
H1871 N1858 0.985 . S
C1872 C1873 1.363 . S
C1872 C1878 1.379 . S
C1872 N1880 1.356 . S
C1873 C1872 1.363 . S
C1873 C1879 1.363 . S
C1874 C1875 1.363 . S
C1874 C1879 1.379 . S
C1874 N1881 1.356 . S
C1875 C1874 1.363 . S
C1875 C1878 1.363 . S
N1876 C1878 1.356 . S
N1876 H1888 0.984 . S
N1876 H1889 0.985 . S
N1877 C1879 1.356 . S
N1877 H1882 0.984 . S
N1877 H1883 0.985 . S
C1878 C1872 1.379 . S
C1878 C1875 1.363 . S
C1878 N1876 1.356 . S
C1879 C1873 1.363 . S
C1879 C1874 1.379 . S
C1879 N1877 1.356 . S
N1880 C1872 1.356 . S
N1880 H1886 0.984 . S
N1880 H1887 0.984 . S
N1881 C1874 1.356 . S
N1881 H1884 0.984 . S
N1881 H1885 0.985 . S
H1882 N1877 0.984 . S
H1883 N1877 0.985 . S
H1884 N1881 0.984 . S
H1885 N1881 0.985 . S
H1886 N1880 0.984 . S
H1887 N1880 0.984 . S
H1888 N1876 0.984 . S
H1889 N1876 0.985 . S
C1890 C1891 1.363 . S
C1890 C1896 1.379 . S
C1890 N1898 1.356 . S
C1891 C1890 1.363 . S
C1891 C1897 1.363 1_545 S
C1892 C1893 1.363 1_565 S
C1892 C1897 1.379 . S
C1892 N1899 1.356 . S
C1893 C1892 1.363 1_545 S
C1893 C1896 1.363 . S
N1894 C1896 1.356 . S
N1894 H1906 0.984 . S
N1894 H1907 0.985 . S
N1895 C1897 1.356 . S
N1895 H1900 0.984 . S
N1895 H1901 0.985 . S
C1896 C1890 1.379 . S
C1896 C1893 1.363 . S
C1896 N1894 1.356 . S
C1897 C1891 1.363 1_565 S
C1897 C1892 1.379 . S
C1897 N1895 1.356 . S
N1898 C1890 1.356 . S
N1898 H1904 0.984 . S
N1898 H1905 0.984 . S
N1899 C1892 1.356 . S
N1899 H1902 0.984 . S
N1899 H1903 0.985 . S
H1900 N1895 0.984 . S
H1901 N1895 0.985 . S
H1902 N1899 0.984 . S
H1903 N1899 0.985 . S
H1904 N1898 0.984 . S
H1905 N1898 0.984 . S
H1906 N1894 0.984 . S
H1907 N1894 0.985 . S
C613 C10 1.630 . S
C615 C440 1.564 . S
C631 C23 1.617 . S
C633 C453 1.583 . S
C651 C482 1.537 1_545 S
C649 C29 1.618 . S
C667 C30 1.616 . S
C669 C495 1.583 . S
C685 C5 1.629 . S
C687 C516 1.600 . S
C703 C18 1.619 . S
C705 C545 1.558 . S
C721 C49 1.624 . S
C723 C524 1.594 . S
C741 C537 1.565 . S
C739 C62 1.611 . S
C759 C503 1.565 . S
C757 C70 1.610 . S
C775 C75 1.610 . S
C777 C474 1.563 1_545 S
C795 C432 1.578 . S
C793 C44 1.622 . S
C811 C57 1.613 . S
C813 C461 1.567 . S
C829 C88 1.630 . S
C831 C566 1.564 . S
C847 C101 1.617 . S
C849 C579 1.583 . S
C867 C608 1.555 . S
C865 C107 1.616 . S
C883 C108 1.616 . S
C885 C243 1.583 . S
C901 C83 1.629 . S
C903 C264 1.599 . S
C919 C96 1.619 . S
C921 C293 1.558 . S
C937 C127 1.624 . S
C939 C272 1.575 . S
C955 C140 1.611 . S
C957 C285 1.565 . S
C975 C251 1.565 . S
C973 C146 1.610 . S
C993 C600 1.564 . S
C991 C147 1.610 . S
C1011 C558 1.578 . S
C1009 C122 1.622 . S
C1029 C587 1.567 . S
C1027 C135 1.613 . S
C1045 C160 1.630 . S
C1047 C314 1.564 . S
C1063 C173 1.617 . S
C1065 C327 1.583 . S
C1081 C185 1.617 . S
C1083 C356 1.555 . S
C1099 C186 1.616 . S
C1101 C369 1.582 . S
C1119 C390 1.599 . S
C1117 C159 1.629 . S
C1137 C419 1.558 . S
C1135 C172 1.619 . S
C1155 C398 1.575 . S
C1153 C205 1.624 . S
C1173 C411 1.565 . S
C1171 C218 1.611 . S
C1189 C224 1.610 . S
C1191 C377 1.565 . S
C1209 C348 1.564 . S
C1207 C225 1.610 . S
C1225 C200 1.622 . S
C1227 C306 1.578 . S
C1245 C335 1.567 . S
C1243 C213 1.613 . S
C1263 C246 1.378 . S
C1261 C4 1.519 . S
C1279 C17 1.505 . S
C1281 C267 1.367 . S
C1299 C295 1.418 . S
C1297 C31 1.512 . S
C1317 C316 1.411 . S
C1315 C36 1.501 . S
C1335 C330 1.377 . S
C1333 C3 1.521 . S
C1353 C358 1.420 . S
C1351 C16 1.514 . S
C1369 C43 1.519 . S
C1371 C351 1.386 . S
C1387 C56 1.506 . S
C1389 C309 1.375 . S
C1405 C68 1.512 . S
C1407 C337 1.409 . S
C1423 C69 1.501 . S
C1425 C274 1.402 . S
C1443 C288 1.386 . S
C1441 C42 1.520 . S
C1459 C55 1.514 . S
C1461 C253 1.412 . S
C1479 C372 1.378 . S
C1477 C82 1.519 . S
C1495 C95 1.505 . S
C1497 C393 1.367 . S
C1513 C109 1.512 . S
C1515 C421 1.418 . S
C1533 C442 1.410 . S
C1531 C114 1.500 . S
C1549 C81 1.521 . S
C1551 C456 1.377 . S
C1567 C94 1.514 . S
C1569 C484 1.423 . S
C1585 C121 1.519 . S
C1587 C477 1.384 . S
C1603 C134 1.506 . S
C1605 C435 1.375 . S
C1623 C463 1.409 . S
C1621 C148 1.512 . S
C1639 C153 1.501 . S
C1641 C400 1.402 . S
C1657 C120 1.520 . S
C1659 C414 1.386 . S
C1677 C379 1.412 . S
C1675 C133 1.514 . S
C1695 C498 1.378 . S
C1693 C166 1.519 . S
C1711 C179 1.505 . S
C1713 C519 1.368 1_655 S
C1729 C187 1.512 . S
C1731 C547 1.418 . S
C1749 C568 1.411 . S
C1747 C192 1.501 . S
C1767 C582 1.377 . S
C1765 C161 1.521 . S
C1783 C174 1.514 . S
C1785 C610 1.420 . S
C1801 C199 1.519 . S
C1803 C603 1.386 . S
C1819 C212 1.506 . S
C1821 C561 1.375 . S
C1839 C589 1.409 . S
C1837 C226 1.512 . S
C1857 C526 1.402 1_655 S
C1855 C231 1.498 . S
C1875 C540 1.386 . S
C1873 C198 1.521 . S
C1891 C211 1.514 . S
C1893 C505 1.412 . S
