# Generated by pormake.
# Topology pyr, (3,6)-cn, num edge types: 1
# Building blocks:
#     Node 0, Type 0, BuildingBlock: MIDCAF_clean_linker_0, # of connection points: 3
#     Node 1, Type 0, BuildingBlock: MIDCAF_clean_linker_0, # of connection points: 3
#     Node 2, Type 0, BuildingBlock: MIDCAF_clean_linker_0, # of connection points: 3
#     Node 3, Type 0, BuildingBlock: MIDCAF_clean_linker_0, # of connection points: 3
#     Node 4, Type 0, BuildingBlock: MIDCAF_clean_linker_0, # of connection points: 3
#     Node 5, Type 0, BuildingBlock: MIDCAF_clean_linker_0, # of connection points: 3
#     Node 6, Type 0, BuildingBlock: MIDCAF_clean_linker_0, # of connection points: 3
#     Node 7, Type 0, BuildingBlock: MIDCAF_clean_linker_0, # of connection points: 3
#     Node 8, Type 1, BuildingBlock: INOVEN_clean_sbu_0, # of connection points: 6
#     Node 9, Type 1, BuildingBlock: INOVEN_clean_sbu_0, # of connection points: 6
#     Node 10, Type 1, BuildingBlock: INOVEN_clean_sbu_0, # of connection points: 6
#     Node 11, Type 1, BuildingBlock: INOVEN_clean_sbu_0, # of connection points: 6
#     Edge 12, Type (0, 1), BuildingBlock: MIFKUJ_clean_linker_0, # of connection points: 2
#     Edge 13, Type (0, 1), BuildingBlock: MIFKUJ_clean_linker_0, # of connection points: 2
#     Edge 14, Type (0, 1), BuildingBlock: MIFKUJ_clean_linker_0, # of connection points: 2
#     Edge 15, Type (0, 1), BuildingBlock: MIFKUJ_clean_linker_0, # of connection points: 2
#     Edge 16, Type (0, 1), BuildingBlock: MIFKUJ_clean_linker_0, # of connection points: 2
#     Edge 17, Type (0, 1), BuildingBlock: MIFKUJ_clean_linker_0, # of connection points: 2
#     Edge 18, Type (0, 1), BuildingBlock: MIFKUJ_clean_linker_0, # of connection points: 2
#     Edge 19, Type (0, 1), BuildingBlock: MIFKUJ_clean_linker_0, # of connection points: 2
#     Edge 20, Type (0, 1), BuildingBlock: MIFKUJ_clean_linker_0, # of connection points: 2
#     Edge 21, Type (0, 1), BuildingBlock: MIFKUJ_clean_linker_0, # of connection points: 2
#     Edge 22, Type (0, 1), BuildingBlock: MIFKUJ_clean_linker_0, # of connection points: 2
#     Edge 23, Type (0, 1), BuildingBlock: MIFKUJ_clean_linker_0, # of connection points: 2
#     Edge 24, Type (0, 1), BuildingBlock: MIFKUJ_clean_linker_0, # of connection points: 2
#     Edge 25, Type (0, 1), BuildingBlock: MIFKUJ_clean_linker_0, # of connection points: 2
#     Edge 26, Type (0, 1), BuildingBlock: MIFKUJ_clean_linker_0, # of connection points: 2
#     Edge 27, Type (0, 1), BuildingBlock: MIFKUJ_clean_linker_0, # of connection points: 2
#     Edge 28, Type (0, 1), BuildingBlock: MIFKUJ_clean_linker_0, # of connection points: 2
#     Edge 29, Type (0, 1), BuildingBlock: MIFKUJ_clean_linker_0, # of connection points: 2
#     Edge 30, Type (0, 1), BuildingBlock: MIFKUJ_clean_linker_0, # of connection points: 2
#     Edge 31, Type (0, 1), BuildingBlock: MIFKUJ_clean_linker_0, # of connection points: 2
#     Edge 32, Type (0, 1), BuildingBlock: MIFKUJ_clean_linker_0, # of connection points: 2
#     Edge 33, Type (0, 1), BuildingBlock: MIFKUJ_clean_linker_0, # of connection points: 2
#     Edge 34, Type (0, 1), BuildingBlock: MIFKUJ_clean_linker_0, # of connection points: 2
#     Edge 35, Type (0, 1), BuildingBlock: MIFKUJ_clean_linker_0, # of connection points: 2
# Relax obj value: 0.072
# Max RMSD: 0.121
# Mean RMSD: 0.056
data_MOF--net-pyr--node1-INOVEN_clean_sbu_0--node2-MIDCAF_clean_linker_0--edge1-MIFKUJ_clean_linker_0
_symmetry_space_group_name_H-M    P1
_symmetry_Int_Tables_number       1
_symmetry_cell_setting            triclinic
loop_
_symmetry_equiv_pos_as_xyz
'x, y, z'
_cell_length_a     57.422463
_cell_length_b     61.124944
_cell_length_c     55.779669
_cell_angle_alpha  91.229454
_cell_angle_beta   88.866598
_cell_angle_gamma 99.048628
loop_
_atom_site_label
_atom_site_type_symbol
_atom_site_fract_x
_atom_site_fract_y
_atom_site_fract_z
_atom_type_partial_charge
C0 C 0.27298 0.25829 0.29308 0.0
C1 C 0.27474 0.23742 0.3023 0.0
C2 C 0.28987 0.22443 0.29066 0.0
C3 C 0.30184 0.23157 0.26949 0.0
H4 H 0.3612 0.22683 0.22049 0.0
H5 H 0.38479 0.20169 0.20049 0.0
H6 H 0.35664 0.21547 0.13225 0.0
H7 H 0.33318 0.24093 0.15215 0.0
H8 H 0.30953 0.28774 0.15169 0.0
H9 H 0.28864 0.31312 0.13043 0.0
H10 H 0.25621 0.33058 0.19722 0.0
H11 H 0.27733 0.30594 0.21843 0.0
H12 H 0.28235 0.28123 0.26482 0.0
H13 H 0.26185 0.26889 0.30188 0.0
H14 H 0.2915 0.20818 0.29716 0.0
H15 H 0.31248 0.22069 0.26042 0.0
N16 N 0.32317 0.24578 0.22359 0.0
N17 N 0.32085 0.26574 0.18839 0.0
N18 N 0.29966 0.27372 0.22297 0.0
C19 C 0.32974 0.24978 0.20034 0.0
C20 C 0.30592 0.27795 0.19974 0.0
C21 C 0.30811 0.25771 0.23503 0.0
C22 C 0.34527 0.23583 0.18791 0.0
C23 C 0.36017 0.22466 0.20119 0.0
C24 C 0.37378 0.21037 0.18976 0.0
C25 C 0.37247 0.20665 0.16487 0.0
C26 C 0.35785 0.21801 0.1515 0.0
C27 C 0.34455 0.23265 0.16288 0.0
C28 C 0.29504 0.29462 0.18677 0.0
C29 C 0.29819 0.29722 0.16186 0.0
C30 C 0.28611 0.31167 0.14965 0.0
C31 C 0.2707 0.32386 0.1621 0.0
C32 C 0.26818 0.32174 0.18708 0.0
C33 C 0.2802 0.30738 0.19924 0.0
C34 C 0.2988 0.2518 0.25941 0.0
C35 C 0.28483 0.26539 0.27186 0.0
C36 C 0.20752 0.86998 0.63007 0.0
C37 C 0.19579 0.86619 0.60815 0.0
C38 C 0.20559 0.85411 0.58986 0.0
C39 C 0.22659 0.84594 0.59344 0.0
H40 H 0.27528 0.80695 0.56141 0.0
H41 H 0.28653 0.77674 0.5361 0.0
H42 H 0.32388 0.75526 0.59542 0.0
H43 H 0.31317 0.78528 0.62042 0.0
H44 H 0.33136 0.82217 0.66007 0.0
H45 H 0.35391 0.83379 0.69594 0.0
H46 H 0.31157 0.88542 0.70935 0.0
H47 H 0.28868 0.87358 0.67394 0.0
H48 H 0.23711 0.86511 0.65075 0.0
H49 H 0.2003 0.87899 0.64462 0.0
H50 H 0.19728 0.85129 0.57257 0.0
H51 H 0.23368 0.83677 0.57894 0.0
N52 N 0.2671 0.82526 0.60416 0.0
N53 N 0.30001 0.82348 0.62787 0.0
N54 N 0.27388 0.84794 0.63855 0.0
C55 C 0.28684 0.81641 0.60843 0.0
C56 C 0.29376 0.83937 0.64291 0.0
C57 C 0.26046 0.84098 0.61926 0.0
C58 C 0.29339 0.79847 0.59287 0.0
C59 C 0.28585 0.79571 0.56898 0.0
C60 C 0.29226 0.77853 0.55453 0.0
C61 C 0.30575 0.76364 0.56401 0.0
C62 C 0.31315 0.76638 0.58785 0.0
C63 C 0.30718 0.78369 0.60208 0.0
C64 C 0.30807 0.84684 0.66418 0.0
C65 C 0.32687 0.83604 0.67063 0.0
C66 C 0.33989 0.84274 0.69113 0.0
C67 C 0.33441 0.86041 0.70557 0.0
C68 C 0.31592 0.87146 0.69886 0.0
C69 C 0.30287 0.86472 0.67846 0.0
C70 C 0.23837 0.84983 0.61532 0.0
C71 C 0.22862 0.86197 0.63358 0.0
C72 C 0.64914 0.26814 0.87727 0.0
C73 C 0.62511 0.25928 0.87471 0.0
C74 C 0.61135 0.27152 0.86101 0.0
C75 C 0.62131 0.29175 0.85025 0.0
H76 H 0.61989 0.33513 0.78545 0.0
H77 H 0.60391 0.35266 0.75163 0.0
H78 H 0.65398 0.412 0.76407 0.0
H79 H 0.66978 0.39464 0.79772 0.0
H80 H 0.71405 0.3943 0.83297 0.0
H81 H 0.75049 0.41268 0.85124 0.0
H82 H 0.74809 0.35844 0.89998 0.0
H83 H 0.71212 0.33993 0.88144 0.0
H84 H 0.67747 0.29453 0.86976 0.0
H85 H 0.66042 0.25955 0.88776 0.0
H86 H 0.59283 0.26534 0.85839 0.0
H87 H 0.61007 0.30054 0.83996 0.0
N88 N 0.64635 0.33246 0.82443 0.0
N89 N 0.67714 0.36299 0.82578 0.0
N90 N 0.67666 0.3338 0.85254 0.0
C91 C 0.65675 0.35256 0.81556 0.0
C92 C 0.68729 0.35382 0.84427 0.0
C93 C 0.65625 0.3229 0.843 0.0
C94 C 0.64628 0.36326 0.79473 0.0
C95 C 0.6275 0.35194 0.78108 0.0
C96 C 0.61837 0.36204 0.76142 0.0
C97 C 0.62744 0.38398 0.75473 0.0
C98 C 0.6461 0.39528 0.76852 0.0
C99 C 0.65536 0.38515 0.78796 0.0
C100 C 0.70981 0.36544 0.85552 0.0
C101 C 0.72126 0.38621 0.84756 0.0
C102 C 0.74224 0.3969 0.85824 0.0
C103 C 0.75266 0.38723 0.87727 0.0
C104 C 0.74114 0.36646 0.8852 0.0
C105 C 0.7202 0.35581 0.87456 0.0
C106 C 0.6453 0.30072 0.8532 0.0
C107 C 0.65896 0.28845 0.86693 0.0
C108 C 0.78508 0.65316 0.3875 0.0
C109 C 0.77297 0.6329 0.37844 0.0
C110 C 0.78237 0.62384 0.35758 0.0
C111 C 0.80312 0.6346 0.34629 0.0
H112 H 0.85114 0.62833 0.29025 0.0
H113 H 0.86813 0.61079 0.25603 0.0
H114 H 0.9247 0.66622 0.2519 0.0
H115 H 0.90735 0.68406 0.286 0.0
H116 H 0.89909 0.73155 0.32039 0.0
H117 H 0.91485 0.76801 0.33725 0.0
H118 H 0.87799 0.75041 0.40408 0.0
H119 H 0.86147 0.71479 0.38681 0.0
H120 H 0.81426 0.67949 0.38389 0.0
H121 H 0.7784 0.66099 0.40323 0.0
H122 H 0.77387 0.60819 0.35008 0.0
H123 H 0.80969 0.62696 0.33038 0.0
N124 N 0.84708 0.65768 0.32374 0.0
N125 N 0.87723 0.68864 0.32182 0.0
N126 N 0.84794 0.68666 0.35214 0.0
C127 C 0.86707 0.66841 0.31277 0.0
C128 C 0.86779 0.69789 0.34161 0.0
C129 C 0.83731 0.66665 0.34341 0.0
C130 C 0.87772 0.65779 0.29126 0.0
C131 C 0.8672 0.63692 0.28214 0.0
C132 C 0.87713 0.62668 0.26241 0.0
C133 C 0.89806 0.63682 0.25089 0.0
C134 C 0.9085 0.6578 0.25988 0.0
C135 C 0.89854 0.66807 0.27968 0.0
C136 C 0.87876 0.72004 0.35204 0.0
C137 C 0.89436 0.73549 0.33869 0.0
C138 C 0.90355 0.75652 0.34853 0.0
C139 C 0.89775 0.76276 0.37223 0.0
C140 C 0.88257 0.74695 0.38564 0.0
C141 C 0.87314 0.72617 0.3757 0.0
C142 C 0.81519 0.65487 0.3554 0.0
C143 C 0.80574 0.66393 0.37621 0.0
C144 C 0.64986 0.82111 0.84348 0.0
C145 C 0.64923 0.82191 0.86865 0.0
C146 C 0.66219 0.80833 0.88128 0.0
C147 C 0.676 0.79469 0.86895 0.0
H148 H 0.72379 0.74922 0.87761 0.0
H149 H 0.74823 0.72542 0.89656 0.0
H150 H 0.76674 0.7006 0.82678 0.0
H151 H 0.74299 0.72471 0.80791 0.0
H152 H 0.75042 0.76207 0.76747 0.0
H153 H 0.77112 0.77985 0.73284 0.0
H154 H 0.72594 0.83005 0.73585 0.0
H155 H 0.70494 0.81222 0.77032 0.0
H156 H 0.66431 0.80792 0.81176 0.0
H157 H 0.64024 0.83151 0.83325 0.0
H158 H 0.66185 0.80847 0.90071 0.0
H159 H 0.6862 0.78481 0.8792 0.0
N160 N 0.70371 0.76613 0.84143 0.0
N161 N 0.72607 0.7615 0.80655 0.0
N162 N 0.70057 0.78779 0.80772 0.0
C163 C 0.71966 0.75556 0.82935 0.0
C164 C 0.71669 0.77761 0.79559 0.0
C165 C 0.69385 0.7821 0.83053 0.0
C166 C 0.73169 0.73909 0.84124 0.0
C167 C 0.73284 0.73846 0.86636 0.0
C168 C 0.74682 0.72477 0.87722 0.0
C169 C 0.75977 0.71135 0.86317 0.0
C170 C 0.75752 0.71115 0.83813 0.0
C171 C 0.74377 0.72491 0.8273 0.0
C172 C 0.72627 0.78594 0.77204 0.0
C173 C 0.74455 0.77666 0.76054 0.0
C174 C 0.75649 0.78687 0.74071 0.0
C175 C 0.75038 0.80651 0.73187 0.0
C176 C 0.73099 0.81487 0.74219 0.0
C177 C 0.71905 0.80469 0.76208 0.0
C178 C 0.67735 0.79457 0.84375 0.0
C179 C 0.66382 0.80768 0.83118 0.0
C180 C 0.71564 0.17213 0.33494 0.0
C181 C 0.69464 0.18031 0.33055 0.0
C182 C 0.68874 0.19794 0.34471 0.0
C183 C 0.70334 0.20688 0.3634 0.0
H184 H 0.69726 0.22398 0.43692 0.0
H185 H 0.67965 0.24353 0.4691 0.0
H186 H 0.74894 0.27184 0.49366 0.0
H187 H 0.76682 0.25213 0.46122 0.0
H188 H 0.80919 0.22459 0.44197 0.0
H189 H 0.84679 0.21152 0.44664 0.0
H190 H 0.8343 0.17162 0.3819 0.0
H191 H 0.79727 0.18508 0.3768 0.0
H192 H 0.74639 0.17445 0.35636 0.0
H193 H 0.72065 0.15867 0.32407 0.0
H194 H 0.6726 0.20448 0.34165 0.0
H195 H 0.69821 0.22028 0.37428 0.0
N196 N 0.73041 0.21831 0.40672 0.0
N197 N 0.76663 0.22211 0.42633 0.0
N198 N 0.76207 0.20378 0.38896 0.0
C199 C 0.74388 0.22567 0.42587 0.0
C200 C 0.77586 0.21117 0.40787 0.0
C201 C 0.7394 0.20743 0.38817 0.0
C202 C 0.73345 0.23671 0.44634 0.0
C203 C 0.70883 0.23423 0.44923 0.0
C204 C 0.6987 0.24519 0.46789 0.0
C205 C 0.71294 0.25906 0.48398 0.0
C206 C 0.73759 0.2612 0.4815 0.0
C207 C 0.74778 0.24995 0.46294 0.0
C208 C 0.79999 0.20564 0.40921 0.0
C209 C 0.81464 0.21331 0.42852 0.0
C210 C 0.83617 0.20579 0.43124 0.0
C211 C 0.84346 0.19038 0.41477 0.0
C212 C 0.82942 0.1837 0.39477 0.0
C213 C 0.80799 0.19129 0.39197 0.0
C214 C 0.7243 0.19858 0.36793 0.0
C215 C 0.73041 0.18127 0.35332 0.0
C216 C 0.28348 0.63598 0.16977 0.0
C217 C 0.2762 0.64306 0.14757 0.0
C218 C 0.2906 0.66117 0.13682 0.0
C219 C 0.31136 0.67182 0.14781 0.0
H220 H 0.3555 0.73118 0.14786 0.0
H221 H 0.37284 0.76634 0.13077 0.0
H222 H 0.43359 0.76823 0.17547 0.0
H223 H 0.41618 0.7326 0.19261 0.0
H224 H 0.41714 0.68478 0.22788 0.0
H225 H 0.43331 0.66685 0.26139 0.0
H226 H 0.36497 0.62828 0.2749 0.0
H227 H 0.34894 0.64583 0.24132 0.0
H228 H 0.30936 0.64037 0.19761 0.0
H229 H 0.27314 0.62203 0.17864 0.0
H230 H 0.28565 0.66742 0.11995 0.0
H231 H 0.32168 0.68569 0.13877 0.0
N232 N 0.35248 0.69576 0.17257 0.0
N233 N 0.38239 0.69713 0.20108 0.0
N234 N 0.35079 0.66729 0.20044 0.0
C235 C 0.37292 0.70656 0.18216 0.0
C236 C 0.3714 0.67746 0.21047 0.0
C237 C 0.34123 0.67618 0.18136 0.0
C238 C 0.38425 0.72862 0.17185 0.0
C239 C 0.37258 0.73893 0.15421 0.0
C240 C 0.38255 0.75942 0.1444 0.0
C241 C 0.40476 0.77061 0.15159 0.0
C242 C 0.41658 0.76028 0.16913 0.0
C243 C 0.40648 0.73975 0.17915 0.0
C244 C 0.38158 0.66693 0.23155 0.0
C245 C 0.40549 0.67251 0.23797 0.0
C246 C 0.41485 0.66206 0.25723 0.0
C247 C 0.40058 0.64596 0.27119 0.0
C248 C 0.37663 0.64064 0.26493 0.0
C249 C 0.3674 0.65072 0.24542 0.0
C250 C 0.31878 0.66467 0.1699 0.0
C251 C 0.30445 0.64649 0.18065 0.0
C252 C 0.14452 0.2873 0.63097 0.0
C253 C 0.12641 0.27285 0.64257 0.0
C254 C 0.11818 0.28001 0.66504 0.0
C255 C 0.12789 0.30063 0.67551 0.0
H256 H 0.11298 0.35762 0.72245 0.0
H257 H 0.09578 0.37545 0.75682 0.0
H258 H 0.16346 0.41471 0.7709 0.0
H259 H 0.18058 0.39721 0.73643 0.0
H260 H 0.21849 0.40528 0.68938 0.0
H261 H 0.25503 0.42333 0.67028 0.0
H262 H 0.24904 0.37143 0.61603 0.0
H263 H 0.21255 0.35369 0.63473 0.0
H264 H 0.16825 0.31804 0.63174 0.0
H265 H 0.15114 0.28303 0.61347 0.0
H266 H 0.10449 0.26951 0.67488 0.0
H267 H 0.1212 0.30528 0.69286 0.0
N268 N 0.14808 0.34579 0.69483 0.0
N269 N 0.17971 0.37557 0.69478 0.0
N270 N 0.1783 0.3472 0.66557 0.0
C271 C 0.15896 0.36539 0.7048 0.0
C272 C 0.18953 0.36665 0.67508 0.0
C273 C 0.15771 0.3365 0.67518 0.0
C274 C 0.1483 0.37585 0.72637 0.0
C275 C 0.12427 0.37002 0.73285 0.0
C276 C 0.11432 0.38038 0.75258 0.0
C277 C 0.12813 0.39663 0.76687 0.0
C278 C 0.15221 0.40221 0.76059 0.0
C279 C 0.16204 0.39218 0.74062 0.0
C280 C 0.21223 0.37792 0.66373 0.0
C281 C 0.22491 0.39769 0.67336 0.0
C282 C 0.24606 0.40803 0.66242 0.0
C283 C 0.25523 0.39904 0.64139 0.0
C284 C 0.24255 0.37923 0.63188 0.0
C285 C 0.22153 0.36889 0.64282 0.0
C286 C 0.14631 0.31479 0.66399 0.0
C287 C 0.15432 0.30772 0.64148 0.0
Gd288 Gd 0.02777 0.0229 0.48436 0.0
Gd289 Gd 0.99457 1.01322 0.52678 0.0
C290 C 0.03174 0.05931 0.52869 0.0
C291 C 0.05463 0.0382 0.44901 0.0
C292 C 0.06996 0.05872 0.4422 0.0
C293 C 0.09146 0.05696 0.43062 0.0
C294 C 0.06456 0.07976 0.44852 0.0
C295 C 0.10255 0.09693 0.4323 0.0
C296 C 0.08072 0.09882 0.44336 0.0
C297 C 0.10764 0.07586 0.42578 0.0
C298 C 0.03764 0.99146 0.51359 0.0
C299 C 0.98866 0.97895 0.48155 0.0
C300 C 0.97484 1.00241 0.56773 0.0
C301 C 0.95518 0.98618 0.5773 0.0
C302 C 0.93212 0.99119 0.57901 0.0
C303 C 0.95958 0.96576 0.58578 0.0
C304 C 0.91836 0.95574 0.59767 0.0
C305 C 0.94138 0.95068 0.59574 0.0
C306 C 0.91388 0.97608 0.58902 0.0
C307 C 0.97635 0.0314 0.48926 0.0
O308 O 0.04068 0.05324 0.50791 0.0
O309 O 0.01379 0.04666 0.53929 0.0
O310 O 0.06203 0.02809 0.46713 0.0
O311 O 0.03173 0.03803 0.44938 0.0
O312 O 0.03917 0.99005 0.49047 0.0
O313 O 0.03155 1.00956 0.52028 0.0
O314 O 0.98628 0.98108 0.50517 0.0
O315 O 1.00094 0.99509 0.4688 0.0
O316 O 0.96945 0.0186 0.55496 0.0
O317 O 0.99322 0.99435 0.55916 0.0
O318 O 0.96422 0.01639 0.50262 0.0
O319 O 0.99685 0.03661 0.49717 0.0
H320 H 0.09594 0.04085 0.42573 0.0
H321 H 0.04814 0.08141 0.45775 0.0
H322 H 0.07647 0.11493 0.44852 0.0
H323 H 0.12419 0.07402 0.41689 0.0
H324 H 0.92818 1.00689 0.57292 0.0
H325 H 0.97717 0.96144 0.58493 0.0
H326 H 0.94536 0.93504 0.60198 0.0
H327 H 0.8964 0.98058 0.59055 0.0
Gd328 Gd 0.53722 0.02146 0.0314 0.0
Gd329 Gd 0.4951 1.01345 1.00528 0.0
C330 C 0.4915 0.04157 0.05192 0.0
C331 C 0.5738 0.03825 0.05587 0.0
C332 C 0.57821 0.05078 0.07854 0.0
C333 C 0.59367 0.04398 0.09493 0.0
C334 C 0.56691 0.06905 0.08433 0.0
C335 C 0.58648 0.07342 0.12278 0.0
C336 C 0.57109 0.08034 0.10627 0.0
C337 C 0.59776 0.05517 0.11685 0.0
C338 C 0.51121 0.98125 0.04238 0.0
C339 C 0.54 0.99219 0.98556 0.0
C340 C 0.45868 0.99673 0.98065 0.0
C341 C 0.45363 0.98065 0.96071 0.0
C342 C 0.46671 0.98291 0.93912 0.0
C343 C 0.43509 0.96293 0.9632 0.0
C344 C 0.44127 0.95107 0.92197 0.0
C345 C 0.42902 0.9482 0.94406 0.0
C346 C 0.46052 0.9683 0.91989 0.0
C347 C 0.52154 0.05361 0.99468 0.0
O348 O 0.51471 0.04346 0.05143 0.0
O349 O 0.47881 0.02794 0.03703 0.0
O350 O 0.56346 0.01777 0.05781 0.0
O351 O 0.56573 0.04841 0.0382 0.0
O352 O 0.53383 0.98493 0.03883 0.0
O353 O 0.50306 0.99926 0.03999 0.0
O354 O 0.51683 0.99006 0.9868 0.0
O355 O 0.55298 1.00682 0.99927 0.0
O356 O 0.47174 1.01564 0.97579 0.0
O357 O 0.46393 0.98869 1.00097 0.0
O358 O 0.49901 0.05034 0.99901 0.0
O359 O 0.52936 0.03538 0.99656 0.0
H360 H 0.60257 0.02996 0.09076 0.0
H361 H 0.55484 0.07458 0.07198 0.0
H362 H 0.5621 0.0943 0.11043 0.0
H363 H 0.61004 0.04971 0.12906 0.0
H364 H 0.48134 0.99627 0.93684 0.0
H365 H 0.425 0.96071 0.97984 0.0
H366 H 0.4144 0.93484 0.9464 0.0
H367 H 0.4702 0.97111 0.90309 0.0
Gd368 Gd 0.51733 0.49476 0.49546 0.0
Gd369 Gd 0.51367 0.53244 0.526 0.0
C370 C 0.53624 0.49475 0.55129 0.0
C371 C 0.53317 0.46217 0.47415 0.0
C372 C 0.54724 0.44615 0.48347 0.0
C373 C 0.53989 0.42338 0.47978 0.0
C374 C 0.56724 0.45339 0.49743 0.0
C375 C 0.57249 0.41532 0.50353 0.0
C376 C 0.57979 0.43811 0.50727 0.0
C377 C 0.55239 0.40805 0.48979 0.0
C378 C 0.47428 0.4918 0.51752 0.0
C379 C 0.49484 0.53217 0.47017 0.0
C380 C 0.49826 0.56489 0.54839 0.0
C381 C 0.48262 0.58027 0.54102 0.0
C382 C 0.48548 0.60188 0.55049 0.0
C383 C 0.46539 0.57373 0.5237 0.0
C384 C 0.4541 0.61042 0.52512 0.0
C385 C 0.45149 0.58872 0.51559 0.0
C386 C 0.47121 0.61679 0.54278 0.0
C387 C 0.55663 0.53545 0.50375 0.0
O388 O 0.53643 0.4863 0.52918 0.0
O389 O 0.52664 0.51275 0.55549 0.0
O390 O 0.51159 0.46058 0.48257 0.0
O391 O 0.5438 0.48268 0.47294 0.0
O392 O 0.47758 0.48657 0.49514 0.0
O393 O 0.49401 0.49839 0.52717 0.0
O394 O 0.49325 0.53967 0.49256 0.0
O395 O 0.50598 0.51516 0.46572 0.0
O396 O 0.51874 0.56702 0.53739 0.0
O397 O 0.48843 0.54421 0.5504 0.0
O398 O 0.55342 0.54069 0.52613 0.0
O399 O 0.53686 0.52887 0.49421 0.0
H400 H 0.52442 0.41746 0.46928 0.0
H401 H 0.57312 0.47087 0.50094 0.0
H402 H 0.59511 0.44409 0.51798 0.0
H403 H 0.54658 0.39054 0.48644 0.0
H404 H 0.49867 0.60719 0.56391 0.0
H405 H 0.46262 0.55702 0.51639 0.0
H406 H 0.43872 0.58325 0.50184 0.0
H407 H 0.47334 0.63317 0.551 0.0
Gd408 Gd 0.01994 0.49182 0.02039 0.0
Gd409 Gd 0.00979 0.53993 1.00104 0.0
C410 C 0.05859 0.53679 0.03067 0.0
C411 C 0.03662 0.45509 0.02161 0.0
C412 C 0.05484 0.4453 0.03394 0.0
C413 C 0.05662 0.4458 0.05903 0.0
C414 C 0.07122 0.43563 0.02 0.0
C415 C 0.09109 0.42704 0.05593 0.0
C416 C 0.08919 0.42669 0.03082 0.0
C417 C 0.07457 0.43669 0.06993 0.0
C418 C 1.00028 0.51648 0.05509 0.0
C419 C 0.97116 0.4949 0.99102 0.0
C420 C 0.99306 0.57666 1.00097 0.0
C421 C 0.97559 0.58703 0.98831 0.0
C422 C 0.96946 0.58112 0.96454 0.0
C423 C 0.96353 0.60191 1.00104 0.0
C424 C 0.93885 0.60459 0.96665 0.0
C425 C 0.94532 0.61061 0.99033 0.0
C426 C 0.9513 0.58998 0.95372 0.0
C427 C 0.02858 0.51515 0.96589 0.0
O428 O 0.05366 0.51471 0.03061 0.0
O429 O 0.04413 0.54948 0.02155 0.0
O430 O 0.01776 0.45855 0.03395 0.0
O431 O 0.0446 0.47115 1.00701 0.0
O432 O 1.0047 0.49649 0.0584 0.0
O433 O 1.0066 0.52112 0.0338 0.0
O434 O 0.97592 0.51697 0.99145 0.0
O435 O 0.98584 0.48221 0.99966 0.0
O436 O 0.01251 0.57383 0.98926 0.0
O437 O 0.98415 0.5597 0.01404 0.0
O438 O 0.02236 0.53441 0.96219 0.0
O439 O 0.02414 0.51105 0.98773 0.0
H440 H 0.04425 0.45327 0.0702 0.0
H441 H 0.07025 0.43521 1.0006 0.0
H442 H 0.10183 0.41982 0.01944 0.0
H443 H 0.07536 0.43703 0.08932 0.0
H444 H 0.97837 0.56938 0.95456 0.0
H445 H 0.96792 0.60649 0.01948 0.0
H446 H 0.93625 0.62204 1.00061 0.0
H447 H 0.94655 0.58495 0.9355 0.0
H448 H 0.2283 0.24075 0.30983 0.0
H449 H 0.2013 0.22197 0.33975 0.0
H450 H 0.25833 0.19387 0.36987 0.0
H451 H 0.28567 0.21288 0.33999 0.0
H452 H 0.2217 0.16276 0.35924 0.0
H453 H 0.23202 0.23212 0.40164 0.0
H454 H 0.23372 0.27248 0.40692 0.0
H455 H 0.16088 0.26663 0.38793 0.0
H456 H 0.15881 0.22625 0.38219 0.0
H457 H 0.14869 0.10381 0.44446 0.0
H458 H 0.17962 0.13292 0.43004 0.0
H459 H 0.12751 0.16314 0.39367 0.0
H460 H 0.09636 0.13416 0.40853 0.0
H461 H 0.1638 0.19436 0.41137 0.0
H462 H 0.15487 0.12673 0.36409 0.0
H463 H 0.15239 0.08638 0.35782 0.0
H464 H 0.22246 0.08948 0.38458 0.0
H465 H 0.22519 0.12983 0.39138 0.0
C466 C 0.23532 0.23112 0.32323 0.0
C467 C 0.25917 0.2283 0.32248 0.0
C468 C 0.2198 0.22037 0.34035 0.0
C469 C 0.22782 0.20664 0.35716 0.0
C470 C 0.25179 0.20441 0.35706 0.0
C471 C 0.26735 0.21519 0.33992 0.0
C472 C 0.2107 0.1928 0.37298 0.0
C473 C 0.20943 0.16973 0.37107 0.0
C474 C 0.19418 0.20187 0.38781 0.0
C475 C 0.19532 0.22615 0.39131 0.0
C476 C 0.21641 0.23945 0.3984 0.0
C477 C 0.21743 0.26233 0.40151 0.0
C478 C 0.19743 0.27212 0.39772 0.0
C479 C 0.17636 0.25903 0.39086 0.0
C480 C 0.17524 0.23613 0.3877 0.0
C481 C 0.14382 0.11694 0.43379 0.0
C482 C 0.12027 0.11664 0.42725 0.0
C483 C 0.16145 0.13354 0.4256 0.0
C484 C 0.15589 0.14989 0.41039 0.0
C485 C 0.13216 0.15061 0.40535 0.0
C486 C 0.11441 0.13408 0.41378 0.0
C487 C 0.17495 0.16446 0.39756 0.0
C488 C 0.17642 0.18753 0.39985 0.0
C489 C 0.19162 0.15546 0.38288 0.0
C490 C 0.19013 0.13125 0.37849 0.0
C491 C 0.16968 0.11878 0.36879 0.0
C492 C 0.16824 0.09592 0.36513 0.0
C493 C 0.18723 0.08536 0.37086 0.0
C494 C 0.20775 0.09767 0.38019 0.0
C495 C 0.20925 0.12054 0.38395 0.0
H496 H 0.18609 0.06766 0.36801 0.0
H497 H 0.19826 0.28984 0.40014 0.0
H498 H 0.38209 0.86433 0.71247 0.0
H499 H 0.40369 0.87707 0.74894 0.0
H500 H 0.33821 0.88476 0.78495 0.0
H501 H 0.31654 0.87173 0.7489 0.0
H502 H 0.37207 0.92179 0.78877 0.0
H503 H 0.36572 0.84242 0.7979 0.0
H504 H 0.37151 0.80472 0.78526 0.0
H505 H 0.44646 0.82563 0.78205 0.0
H506 H 0.44108 0.86356 0.79435 0.0
H507 H 0.39562 0.93791 0.90908 0.0
H508 H 0.38123 0.91962 0.87188 0.0
H509 H 0.45265 0.91643 0.8484 0.0
H510 H 0.46733 0.93408 0.88625 0.0
H511 H 0.42096 0.87846 0.83558 0.0
H512 H 0.42811 0.95685 0.82863 0.0
H513 H 0.42305 0.99478 0.84109 0.0
H514 H 0.3478 0.9764 0.83895 0.0
H515 H 0.3524 0.93823 0.82685 0.0
C516 C 0.37229 0.86844 0.72828 0.0
C517 C 0.34763 0.86721 0.72776 0.0
C518 C 0.38465 0.87573 0.74905 0.0
C519 C 0.3725 0.88183 0.76957 0.0
C520 C 0.34789 0.88024 0.76921 0.0
C521 C 0.33556 0.87292 0.74856 0.0
C522 C 0.38529 0.89085 0.79122 0.0
C523 C 0.3826 0.91225 0.79911 0.0
C524 C 0.39975 0.87868 0.80412 0.0
C525 C 0.40298 0.85588 0.79677 0.0
C526 C 0.38342 0.83903 0.79428 0.0
C527 C 0.38663 0.81761 0.78722 0.0
C528 C 0.40933 0.8128 0.78277 0.0
C529 C 0.42888 0.82939 0.78545 0.0
C530 C 0.42576 0.85084 0.79248 0.0
C531 C 0.40831 0.9328 0.89637 0.0
C532 C 0.43265 0.93758 0.90059 0.0
C533 C 0.40005 0.92254 0.875 0.0
C534 C 0.41593 0.91708 0.85728 0.0
C535 C 0.44016 0.92068 0.86184 0.0
C536 C 0.44849 0.93092 0.88335 0.0
C537 C 0.40703 0.90908 0.83348 0.0
C538 C 0.41059 0.88804 0.8251 0.0
C539 C 0.39348 0.92162 0.81993 0.0
C540 C 0.39061 0.94463 0.827 0.0
C541 C 0.41048 0.96085 0.83098 0.0
C542 C 0.4077 0.9824 0.83796 0.0
C543 C 0.38512 0.98798 0.84085 0.0
C544 C 0.36528 0.97204 0.83672 0.0
C545 C 0.36796 0.95045 0.82977 0.0
H546 H 0.383 1.00468 0.84625 0.0
H547 H 0.41178 0.7962 0.77732 0.0
H548 H 0.6213 0.42789 0.75009 0.0
H549 H 0.60645 0.44587 0.71607 0.0
H550 H 0.59611 0.38372 0.67691 0.0
H551 H 0.61132 0.36563 0.71082 0.0
H552 H 0.61472 0.41651 0.64715 0.0
H553 H 0.54915 0.40677 0.70266 0.0
H554 H 0.52887 0.41019 0.74163 0.0
H555 H 0.54502 0.4811 0.73854 0.0
H556 H 0.56568 0.4781 0.69968 0.0
H557 H 0.54818 0.45261 0.55216 0.0
H558 H 0.56282 0.43361 0.58552 0.0
H559 H 0.56268 0.49192 0.6304 0.0
H560 H 0.54686 0.51052 0.59735 0.0
H561 H 0.54951 0.4604 0.65742 0.0
H562 H 0.61481 0.47087 0.60192 0.0
H563 H 0.63629 0.46796 0.56354 0.0
H564 H 0.62306 0.397 0.5673 0.0
H565 H 0.60081 0.39944 0.60517 0.0
C566 C 0.61603 0.41792 0.73426 0.0
C567 C 0.61768 0.39507 0.73363 0.0
C568 C 0.60725 0.4283 0.7147 0.0
C569 C 0.59975 0.41633 0.69358 0.0
C570 C 0.60159 0.39357 0.69277 0.0
C571 C 0.61019 0.38311 0.71244 0.0
C572 C 0.59016 0.4275 0.6725 0.0
C573 C 0.60023 0.42586 0.64941 0.0
C574 C 0.57162 0.44035 0.67507 0.0
C575 C 0.55916 0.4422 0.69838 0.0
C576 C 0.54853 0.42309 0.71038 0.0
C577 C 0.53694 0.42495 0.73243 0.0
C578 C 0.53571 0.44584 0.74259 0.0
C579 C 0.54602 0.46492 0.73067 0.0
C580 C 0.55765 0.46315 0.70862 0.0
C581 C 0.55135 0.46151 0.56908 0.0
C582 C 0.54632 0.48333 0.57172 0.0
C583 C 0.55998 0.45057 0.58834 0.0
C584 C 0.56458 0.46118 0.61092 0.0
C585 C 0.55949 0.483 0.6135 0.0
C586 C 0.55046 0.4938 0.59437 0.0
C587 C 0.57414 0.44962 0.63185 0.0
C588 C 0.56404 0.45115 0.65501 0.0
C589 C 0.59283 0.43683 0.62934 0.0
C590 C 0.6059 0.43535 0.60629 0.0
C591 C 0.61622 0.45464 0.5944 0.0
C592 C 0.62851 0.45307 0.57269 0.0
C593 C 0.63092 0.43231 0.56288 0.0
C594 C 0.62101 0.41307 0.57474 0.0
C595 C 0.60852 0.41454 0.59632 0.0
H596 H 0.64057 0.43113 0.54616 0.0
H597 H 0.52673 0.44725 0.75966 0.0
H598 H 0.89901 0.59204 0.24305 0.0
H599 H 0.91596 0.57363 0.20926 0.0
H600 H 0.93961 0.63684 0.17702 0.0
H601 H 0.92188 0.65543 0.21048 0.0
H602 H 0.92363 0.60765 0.14257 0.0
H603 H 0.9781 0.60717 0.20619 0.0
H604 H 0.99088 0.60032 0.24693 0.0
H605 H 0.96627 0.53069 0.23731 0.0
H606 H 0.95305 0.53717 0.19661 0.0
H607 H 1.00049 0.562 0.05706 0.0
H608 H 0.98363 0.58377 0.08863 0.0
H609 H 0.9594 0.52386 0.12719 0.0
H610 H 0.97627 0.50228 0.09583 0.0
H611 H 0.97723 0.55354 0.15793 0.0
H612 H 0.92156 0.5542 0.09469 0.0
H613 H 0.90926 0.561 0.05376 0.0
H614 H 0.93668 0.63018 0.06224 0.0
H615 H 0.94941 0.62374 0.10318 0.0
C616 C 0.90755 0.60217 0.22874 0.0
C617 C 0.9089 0.62545 0.22989 0.0
C618 C 0.91757 0.59152 0.20936 0.0
C619 C 0.92953 0.60367 0.1904 0.0
C620 C 0.93065 0.62688 0.19127 0.0
C621 C 0.92063 0.63758 0.2107 0.0
C622 C 0.94094 0.59216 0.16996 0.0
C623 C 0.9356 0.59606 0.146 0.0
C624 C 0.95641 0.57665 0.174 0.0
C625 C 0.96439 0.57269 0.19843 0.0
C626 C 0.97526 0.59042 0.21282 0.0
C627 C 0.98261 0.5866 0.2359 0.0
C628 C 0.97933 0.56509 0.24473 0.0
C629 C 0.96876 0.54735 0.23046 0.0
C630 C 0.96136 0.55108 0.20738 0.0
C631 C 0.99109 0.55343 0.07197 0.0
C632 C 0.98933 0.53025 0.0735 0.0
C633 C 0.98149 0.56594 0.09021 0.0
C634 C 0.96977 0.55563 0.1105 0.0
C635 C 0.96821 0.53247 0.11196 0.0
C636 C 0.97784 0.52005 0.09385 0.0
C637 C 0.95962 0.56869 0.13052 0.0
C638 C 0.96527 0.56513 0.15444 0.0
C639 C 0.94448 0.58448 0.1264 0.0
C640 C 0.93662 0.58845 0.10192 0.0
C641 C 0.92509 0.57084 0.08778 0.0
C642 C 0.91803 0.57463 0.06459 0.0
C643 C 0.92221 0.596 0.0554 0.0
C644 C 0.93346 0.61363 0.0694 0.0
C645 C 0.94058 0.60993 0.09261 0.0
H646 H 0.91668 0.5989 0.03747 0.0
H647 H 0.98503 0.56217 0.2626 0.0
H648 H 0.35519 0.17245 0.13487 0.0
H649 H 0.37627 0.14377 0.11756 0.0
H650 H 0.44029 0.1751 0.15115 0.0
H651 H 0.41918 0.20366 0.16882 0.0
H652 H 0.44412 0.16148 0.09992 0.0
H653 H 0.41454 0.1334 0.1771 0.0
H654 H 0.38343 0.12321 0.20775 0.0
H655 H 0.34528 0.07661 0.15837 0.0
H656 H 0.37601 0.08679 0.12728 0.0
H657 H 0.51191 0.0762 0.08028 0.0
H658 H 0.4921 0.1034 0.10197 0.0
H659 H 0.42453 0.06789 0.08064 0.0
H660 H 0.44414 0.04055 0.05908 0.0
H661 H 0.4228 0.08378 0.12651 0.0
H662 H 0.44842 0.11062 0.04953 0.0
H663 H 0.47695 0.11977 0.01628 0.0
H664 H 0.51869 0.16809 0.06121 0.0
H665 H 0.49072 0.15883 0.09489 0.0
C666 C 0.37381 0.17332 0.13834 0.0
C667 C 0.3856 0.19022 0.15316 0.0
C668 C 0.38577 0.15691 0.12857 0.0
C669 C 0.40977 0.15732 0.13321 0.0
C670 C 0.42176 0.17454 0.14741 0.0
C671 C 0.4097 0.19074 0.15753 0.0
C672 C 0.42217 0.13945 0.12367 0.0
C673 C 0.43977 0.14456 0.10599 0.0
C674 C 0.41585 0.11728 0.13106 0.0
C675 C 0.39746 0.11102 0.14979 0.0
C676 C 0.39942 0.12113 0.17271 0.0
C677 C 0.38187 0.11532 0.19018 0.0
C678 C 0.36236 0.09931 0.18499 0.0
C679 C 0.36039 0.08903 0.16235 0.0
C680 C 0.37788 0.0948 0.1448 0.0
C681 C 0.49284 0.07396 0.08051 0.0
C682 C 0.47963 0.05633 0.06772 0.0
C683 C 0.48154 0.08956 0.09286 0.0
C684 C 0.45686 0.08783 0.09261 0.0
C685 C 0.44358 0.06957 0.08102 0.0
C686 C 0.45486 0.054 0.06861 0.0
C687 C 0.44499 0.10583 0.10292 0.0
C688 C 0.42736 0.10073 0.1206 0.0
C689 C 0.45091 0.12794 0.09515 0.0
C690 C 0.46762 0.13385 0.07483 0.0
C691 C 0.46381 0.12306 0.05238 0.0
C692 C 0.47988 0.12825 0.03344 0.0
C693 C 0.4997 0.14441 0.03663 0.0
C694 C 0.50342 0.15548 0.05875 0.0
C695 C 0.48746 0.15027 0.07779 0.0
H696 H 0.51207 0.14836 0.0219 0.0
H697 H 0.34879 0.09484 0.19854 0.0
H698 H 0.1854 0.90672 0.62248 0.0
H699 H 0.15077 0.92307 0.61245 0.0
H700 H 0.12229 0.86333 0.57372 0.0
H701 H 0.15653 0.84651 0.58429 0.0
H702 H 0.12741 0.90206 0.54694 0.0
H703 H 0.09471 0.87592 0.62282 0.0
H704 H 0.09483 0.87118 0.6666 0.0
H705 H 0.10254 0.94168 0.67753 0.0
H706 H 0.10282 0.94688 0.6338 0.0
H707 H 0.0336 0.94741 0.50535 0.0
H708 H 0.05229 0.92105 0.52763 0.0
H709 H 0.07825 0.97283 0.5787 0.0
H710 H 0.05827 0.9989 0.55715 0.0
H711 H 0.07125 0.93458 0.60042 0.0
H712 H 0.11005 0.9623 0.52786 0.0
H713 H 0.11388 0.97009 0.48465 0.0
H714 H 0.1002 0.90038 0.46808 0.0
H715 H 0.09562 0.89219 0.51121 0.0
C716 C 0.17149 0.8968 0.61239 0.0
C717 C 0.17382 0.87536 0.60401 0.0
C718 C 0.15172 0.90619 0.60668 0.0
C719 C 0.134 0.89433 0.59247 0.0
C720 C 0.13583 0.87269 0.58476 0.0
C721 C 0.15549 0.86321 0.59062 0.0
C722 C 0.11509 0.90549 0.5833 0.0
C723 C 0.11473 0.90871 0.55855 0.0
C724 C 0.0993 0.91488 0.59867 0.0
C725 C 0.09895 0.91179 0.625 0.0
C726 C 0.09661 0.89043 0.63455 0.0
C727 C 0.09658 0.88765 0.65936 0.0
C728 C 0.09874 0.90611 0.67484 0.0
C729 C 0.10088 0.92739 0.66553 0.0
C730 C 0.10094 0.93026 0.64072 0.0
C731 C 0.0428 0.95294 0.5217 0.0
C732 C 0.04501 0.97514 0.52942 0.0
C733 C 0.05347 0.93793 0.53438 0.0
C734 C 0.0673 0.94518 0.55436 0.0
C735 C 0.06782 0.96694 0.56322 0.0
C736 C 0.05652 0.98183 0.55089 0.0
C737 C 0.08352 0.93107 0.56399 0.0
C738 C 0.08358 0.9275 0.58877 0.0
C739 C 0.09957 0.92177 0.54872 0.0
C740 C 0.10219 0.92665 0.52275 0.0
C741 C 0.10761 0.94864 0.515 0.0
C742 C 0.10989 0.95313 0.49052 0.0
C743 C 0.10714 0.93575 0.47363 0.0
C744 C 0.10217 0.91383 0.48119 0.0
C745 C 0.09968 0.90926 0.50564 0.0
H746 H 0.10896 0.93925 0.45469 0.0
H747 H 0.09871 0.90393 0.69404 0.0
H748 H 0.76789 0.43214 0.8855 0.0
H749 H 0.80413 0.45025 0.90439 0.0
H750 H 0.82541 0.38663 0.91464 0.0
H751 H 0.78929 0.3684 0.89568 0.0
H752 H 0.83512 0.4107 0.95369 0.0
H753 H 0.85071 0.42462 0.87009 0.0
H754 H 0.8432 0.43783 0.82993 0.0
H755 H 0.8448 0.50383 0.85852 0.0
H756 H 0.85202 0.49094 0.89893 0.0
H757 H 0.95506 0.45017 0.9838 0.0
H758 H 0.91869 0.43245 0.96484 0.0
H759 H 0.89873 0.49651 0.95373 0.0
H760 H 0.93534 0.51437 0.97222 0.0
H761 H 0.88812 0.47246 0.91528 0.0
H762 H 0.87257 0.45886 0.99873 0.0
H763 H 0.87989 0.44589 0.03904 0.0
H764 H 0.8779 0.37964 1.01105 0.0
H765 H 0.87087 0.39228 0.97048 0.0
C766 C 0.78033 0.42189 0.89146 0.0
C767 C 0.77528 0.3986 0.88881 0.0
C768 C 0.80123 0.43237 0.90238 0.0
C769 C 0.81803 0.42001 0.91089 0.0
C770 C 0.81296 0.39676 0.90842 0.0
C771 C 0.79206 0.38627 0.89754 0.0
C772 C 0.84065 0.43114 0.92251 0.0
C773 C 0.84681 0.424 0.94504 0.0
C774 C 0.85596 0.44897 0.91184 0.0
C775 C 0.85166 0.45677 0.88757 0.0
C776 C 0.84928 0.44191 0.86784 0.0
C777 C 0.84511 0.44935 0.84503 0.0
C778 C 0.84346 0.47164 0.84169 0.0
C779 C 0.84605 0.48656 0.86115 0.0
C780 C 0.8502 0.4792 0.884 0.0
C781 C 0.94296 0.46058 0.97744 0.0
C782 C 0.9484 0.48386 0.97982 0.0
C783 C 0.92192 0.45034 0.96661 0.0
C784 C 0.90539 0.46294 0.95796 0.0
C785 C 0.9109 0.48619 0.96015 0.0
C786 C 0.93197 0.49646 0.97091 0.0
C787 C 0.88263 0.452 0.94645 0.0
C788 C 0.87643 0.45917 0.92394 0.0
C789 C 0.86725 0.43423 0.95717 0.0
C790 C 0.87143 0.42657 0.98153 0.0
C791 C 0.87387 0.44156 1.00114 0.0
C792 C 0.87794 0.43426 0.02404 0.0
C793 C 0.87943 0.41197 0.02759 0.0
C794 C 0.87678 0.39691 1.00826 0.0
C795 C 0.87273 0.40413 0.98531 0.0
H796 H 0.88258 0.40635 0.04534 0.0
H797 H 0.84023 0.47737 0.82401 0.0
H798 H 0.73279 0.60936 0.35801 0.0
H799 H 0.69676 0.59129 0.378 0.0
H800 H 0.72596 0.61262 0.44674 0.0
H801 H 0.76231 0.63013 0.42696 0.0
H802 H 0.70387 0.57128 0.44984 0.0
H803 H 0.68319 0.63839 0.41899 0.0
H804 H 0.67869 0.66545 0.38791 0.0
H805 H 0.63209 0.61578 0.34917 0.0
H806 H 0.63656 0.58833 0.37988 0.0
H807 H 0.59894 0.55544 0.52157 0.0
H808 H 0.63504 0.5702 0.49956 0.0
H809 H 0.60168 0.54801 0.43288 0.0
H810 H 0.56523 0.53352 0.45496 0.0
H811 H 0.62561 0.5883 0.4274 0.0
H812 H 0.64486 0.52148 0.45876 0.0
H813 H 0.64885 0.49435 0.4899 0.0
H814 H 0.69795 0.54285 0.52734 0.0
H815 H 0.69398 0.5704 0.4966 0.0
C816 C 0.73175 0.61008 0.3774 0.0
C817 C 0.75073 0.62145 0.3907 0.0
C818 C 0.71088 0.59987 0.38887 0.0
C819 C 0.70822 0.60071 0.41403 0.0
C820 C 0.72729 0.61169 0.42736 0.0
C821 C 0.74812 0.62195 0.41591 0.0
C822 C 0.6857 0.59027 0.42648 0.0
C823 C 0.68682 0.57525 0.44506 0.0
C824 C 0.66314 0.59479 0.42005 0.0
C825 C 0.66041 0.61126 0.40159 0.0
C826 C 0.67213 0.6332 0.40374 0.0
C827 C 0.66956 0.64861 0.38621 0.0
C828 C 0.65517 0.64232 0.36654 0.0
C829 C 0.64326 0.62061 0.36439 0.0
C830 C 0.6458 0.60513 0.38186 0.0
C831 C 0.59928 0.55354 0.50222 0.0
C832 C 0.57908 0.54319 0.49011 0.0
C833 C 0.62008 0.56195 0.48958 0.0
C834 C 0.62149 0.56012 0.46439 0.0
C835 C 0.60129 0.54972 0.45224 0.0
C836 C 0.58042 0.5413 0.46492 0.0
C837 C 0.6438 0.56942 0.45086 0.0
C838 C 0.64264 0.58424 0.4321 0.0
C839 C 0.66633 0.56466 0.45708 0.0
C840 C 0.66896 0.54807 0.47548 0.0
C841 C 0.65639 0.52641 0.47372 0.0
C842 C 0.65866 0.51095 0.49129 0.0
C843 C 0.6736 0.51689 0.51062 0.0
C844 C 0.68636 0.53828 0.51237 0.0
C845 C 0.68412 0.55383 0.49487 0.0
H846 H 0.67532 0.50489 0.52421 0.0
H847 H 0.65319 0.65428 0.35299 0.0
H848 H 0.24817 0.31443 0.11942 0.0
H849 H 0.22053 0.33512 0.10067 0.0
H850 H 0.23166 0.38478 0.15713 0.0
H851 H 0.25972 0.36443 0.17578 0.0
H852 H 0.18503 0.36983 0.15024 0.0
H853 H 0.25235 0.39729 0.10202 0.0
H854 H 0.28706 0.39511 0.07587 0.0
H855 H 0.24273 0.35833 0.02302 0.0
H856 H 0.20777 0.36 0.04902 0.0
H857 H 0.11732 0.44306 0.09497 0.0
H858 H 0.14961 0.42761 0.11282 0.0
H859 H 0.14134 0.37447 0.06008 0.0
H860 H 0.10868 0.38939 0.04251 0.0
H861 H 0.18799 0.39367 0.06562 0.0
H862 H 0.12124 0.36429 0.11499 0.0
H863 H 0.08652 0.36625 0.14119 0.0
H864 H 0.13009 0.40673 0.19198 0.0
H865 H 0.16504 0.40527 0.16588 0.0
C866 C 0.24522 0.33004 0.12755 0.0
C867 C 0.2561 0.33771 0.14918 0.0
C868 C 0.22933 0.3418 0.11685 0.0
C869 C 0.22405 0.36149 0.12752 0.0
C870 C 0.2354 0.36956 0.14868 0.0
C871 C 0.25138 0.35787 0.15934 0.0
C872 C 0.20559 0.37285 0.1174 0.0
C873 C 0.18588 0.37542 0.13186 0.0
C874 C 0.20648 0.37967 0.09328 0.0
C875 C 0.22746 0.37859 0.07758 0.0
C876 C 0.25002 0.38856 0.08491 0.0
C877 C 0.26974 0.38745 0.0701 0.0
C878 C 0.26711 0.37654 0.04782 0.0
C879 C 0.24474 0.36675 0.04029 0.0
C880 C 0.22496 0.36779 0.05505 0.0
C881 C 0.12213 0.42792 0.08736 0.0
C882 C 0.11038 0.41749 0.06727 0.0
C883 C 0.14069 0.41919 0.0975 0.0
C884 C 0.14784 0.39991 0.08775 0.0
C885 C 0.1362 0.38947 0.06774 0.0
C886 C 0.11757 0.39808 0.0577 0.0
C887 C 0.16742 0.39048 0.09842 0.0
C888 C 0.18728 0.38825 0.08405 0.0
C889 C 0.16669 0.38397 0.12263 0.0
C890 C 0.14571 0.38489 0.13835 0.0
C891 C 0.12338 0.37378 0.13163 0.0
C892 C 0.10367 0.37477 0.14649 0.0
C893 C 0.10608 0.38666 0.1682 0.0
C894 C 0.12824 0.39756 0.17513 0.0
C895 C 0.14801 0.39665 0.16032 0.0
H896 H 0.0908 0.3874 0.17969 0.0
H897 H 0.28239 0.37571 0.03637 0.0
H898 H 0.64426 0.2206 0.87787 0.0
H899 H 0.62809 0.18607 0.89794 0.0
H900 H 0.5662 0.21384 0.91901 0.0
H901 H 0.58222 0.24842 0.89878 0.0
H902 H 0.58388 0.19215 0.95697 0.0
H903 H 0.56366 0.17507 0.87444 0.0
H904 H 0.5721 0.17148 0.83114 0.0
H905 H 0.619 0.12525 0.84534 0.0
H906 H 0.61109 0.1288 0.88877 0.0
H907 H 0.5077 0.09444 0.99478 0.0
H908 H 0.52654 0.12848 0.97555 0.0
H909 H 0.58306 0.09502 0.94972 0.0
H910 H 0.56422 0.0608 0.96931 0.0
H911 H 0.57022 0.11938 0.91435 0.0
H912 H 0.58982 0.13324 0.99511 0.0
H913 H 0.58614 0.13776 0.03891 0.0
H914 H 0.54653 0.1909 0.02973 0.0
H915 H 0.54899 0.18605 0.98585 0.0
C916 C 0.62718 0.21946 0.88674 0.0
C917 C 0.61467 0.23761 0.8865 0.0
C918 C 0.61784 0.19951 0.89819 0.0
C919 C 0.59572 0.19696 0.91012 0.0
C920 C 0.58324 0.21509 0.91004 0.0
C921 C 0.59241 0.23494 0.89824 0.0
C922 C 0.58578 0.17564 0.9228 0.0
C923 C 0.58048 0.1763 0.94753 0.0
C924 C 0.58227 0.15458 0.91097 0.0
C925 C 0.58697 0.15238 0.88487 0.0
C926 C 0.57593 0.16428 0.86835 0.0
C927 C 0.58058 0.16222 0.84377 0.0
C928 C 0.59612 0.14819 0.8355 0.0
C929 C 0.60699 0.13614 0.85178 0.0
C930 C 0.60241 0.13815 0.87637 0.0
C931 C 0.52424 0.09428 0.98515 0.0
C932 C 0.53434 0.07467 0.98373 0.0
C933 C 0.53512 0.11393 0.97413 0.0
C934 C 0.55648 0.11475 0.96102 0.0
C935 C 0.56665 0.09513 0.95958 0.0
C936 C 0.55589 0.07548 0.97094 0.0
C937 C 0.56776 0.13586 0.94859 0.0
C938 C 0.57342 0.13518 0.92389 0.0
C939 C 0.572 0.15688 0.9606 0.0
C940 C 0.5693 0.15904 0.98706 0.0
C941 C 0.57987 0.14558 1.00237 0.0
C942 C 0.57805 0.14823 0.02725 0.0
C943 C 0.56607 0.16457 0.0371 0.0
C944 C 0.55578 0.17822 0.02208 0.0
C945 C 0.55724 0.17542 0.99719 0.0
H946 H 0.5648 0.16668 0.05637 0.0
H947 H 0.5997 0.14662 0.81647 0.0
H948 H 0.87714 0.7873 0.40689 0.0
H949 H 0.89259 0.82293 0.42504 0.0
H950 H 0.9545 0.82731 0.37938 0.0
H951 H 0.94004 0.79065 0.36238 0.0
H952 H 0.96854 0.84354 0.41984 0.0
H953 H 0.9052 0.85797 0.37127 0.0
H954 H 0.86466 0.85306 0.35599 0.0
H955 H 0.83831 0.86738 0.42623 0.0
H956 H 0.87867 0.87211 0.442 0.0
H957 H 1.00164 0.96163 0.43818 0.0
H958 H 0.98639 0.92557 0.41957 0.0
H959 H 0.93703 0.9114 0.47844 0.0
H960 H 0.95262 0.94716 0.49747 0.0
H961 H 0.917 0.90105 0.43084 0.0
H962 H 0.98175 0.88721 0.47848 0.0
H963 H 0.02291 0.8941 0.49203 0.0
H964 H 0.04725 0.88036 0.42083 0.0
H965 H 1.00622 0.87384 0.40672 0.0
C966 C 0.89426 0.79546 0.4008 0.0
C967 C 0.90716 0.7855 0.38293 0.0
C968 C 0.90296 0.81632 0.41104 0.0
C969 C 0.92465 0.82849 0.40342 0.0
C970 C 0.93767 0.81862 0.38569 0.0
C971 C 0.92913 0.79755 0.37567 0.0
C972 C 0.93373 0.85124 0.41406 0.0
C973 C 0.95724 0.85612 0.42183 0.0
C974 C 0.91922 0.86798 0.41727 0.0
C975 C 0.89493 0.86519 0.40785 0.0
C976 C 0.89074 0.85993 0.38349 0.0
C977 C 0.8678 0.8572 0.37474 0.0
C978 C 0.84892 0.85985 0.39014 0.0
C979 C 0.85295 0.8653 0.41432 0.0
C980 C 0.87586 0.86803 0.42317 0.0
C981 C 0.98744 0.95093 0.44714 0.0
C982 C 0.9784 0.95748 0.46939 0.0
C983 C 0.97876 0.93021 0.43648 0.0
C984 C 0.9605 0.91556 0.44753 0.0
C985 C 0.95106 0.92228 0.46945 0.0
C986 C 0.96007 0.9428 0.48037 0.0
C987 C 0.9516 0.89313 0.43648 0.0
C988 C 0.92819 0.88838 0.4287 0.0
C989 C 0.96626 0.87666 0.43298 0.0
C990 C 0.99092 0.88027 0.44148 0.0
C991 C 0.99588 0.88586 0.46565 0.0
C992 C 0.01918 0.88967 0.47344 0.0
C993 C 0.03767 0.88771 0.45729 0.0
C994 C 0.0329 0.8819 0.43331 0.0
C995 C 0.00962 0.87814 0.42541 0.0
H996 H 0.05567 0.89062 0.46336 0.0
H997 H 0.83117 0.85773 0.38333 0.0
H998 H 0.33029 0.76683 0.52152 0.0
H999 H 0.35161 0.73847 0.50368 0.0
H1000 H 0.31967 0.6918 0.55628 0.0
H1001 H 0.29856 0.72001 0.57413 0.0
H1002 H 0.36851 0.70275 0.55884 0.0
H1003 H 0.30859 0.68046 0.50019 0.0
H1004 H 0.28262 0.68612 0.46697 0.0
H1005 H 0.3431 0.70821 0.42223 0.0
H1006 H 0.36946 0.703 0.45532 0.0
H1007 H 0.40723 0.60065 0.514 0.0
H1008 H 0.37992 0.62667 0.5081 0.0
H1009 H 0.43698 0.68131 0.51444 0.0
H1010 H 0.46475 0.65542 0.51959 0.0
H1011 H 0.37572 0.66662 0.47907 0.0
H1012 H 0.41881 0.71172 0.56082 0.0
H1013 H 0.44455 0.70529 0.59406 0.0
H1014 H 0.41501 0.63622 0.59326 0.0
H1015 H 0.38885 0.64235 0.56034 0.0
C1016 C 0.32717 0.75024 0.5286 0.0
C1017 C 0.31313 0.74554 0.54932 0.0
C1018 C 0.33931 0.7341 0.51843 0.0
C1019 C 0.33731 0.71318 0.52885 0.0
C1020 C 0.32145 0.7079 0.54808 0.0
C1021 C 0.30947 0.72398 0.55826 0.0
C1022 C 0.35471 0.69841 0.52308 0.0
C1023 C 0.37002 0.69489 0.54137 0.0
C1024 C 0.35683 0.6884 0.50022 0.0
C1025 C 0.341 0.69158 0.48034 0.0
C1026 C 0.31636 0.68675 0.48336 0.0
C1027 C 0.30157 0.68982 0.46453 0.0
C1028 C 0.3112 0.69758 0.44253 0.0
C1029 C 0.33566 0.70223 0.4393 0.0
C1030 C 0.35053 0.6992 0.45808 0.0
C1031 C 0.41425 0.61813 0.51323 0.0
C1032 C 0.4382 0.62594 0.51775 0.0
C1033 C 0.39855 0.63297 0.50974 0.0
C1034 C 0.40647 0.65581 0.51098 0.0
C1035 C 0.4306 0.66367 0.51348 0.0
C1036 C 0.44634 0.64885 0.51686 0.0
C1037 C 0.3892 0.67104 0.5149 0.0
C1038 C 0.37414 0.6747 0.49639 0.0
C1039 C 0.38707 0.68121 0.53763 0.0
C1040 C 0.40211 0.67746 0.55798 0.0
C1041 C 0.41775 0.6952 0.56785 0.0
C1042 C 0.43241 0.6916 0.58662 0.0
C1043 C 0.43148 0.67034 0.5957 0.0
C1044 C 0.41578 0.65266 0.58615 0.0
C1045 C 0.40104 0.65619 0.56744 0.0
H1046 H 0.44288 0.66759 0.61019 0.0
H1047 H 0.29971 0.69994 0.42797 0.0
H1048 H 0.79825 0.81547 0.73144 0.0
H1049 H 0.82384 0.84047 0.70518 0.0
H1050 H 0.76337 0.85303 0.66617 0.0
H1051 H 0.73743 0.82773 0.69245 0.0
H1052 H 0.80549 0.84735 0.63689 0.0
H1053 H 0.78156 0.8896 0.70393 0.0
H1054 H 0.77467 0.89743 0.7468 0.0
H1055 H 0.84841 0.8998 0.76023 0.0
H1056 H 0.85568 0.89162 0.71747 0.0
H1057 H 0.8724 0.94405 0.58385 0.0
H1058 H 0.84117 0.91861 0.60391 0.0
H1059 H 0.89035 0.90642 0.65767 0.0
H1060 H 0.92132 0.93229 0.63826 0.0
H1061 H 0.84979 0.91354 0.67779 0.0
H1062 H 0.8738 0.86888 0.61243 0.0
H1063 H 0.88159 0.8597 0.57007 0.0
H1064 H 0.80904 0.8609 0.55374 0.0
H1065 H 0.80089 0.87039 0.59598 0.0
C1066 C 0.79039 0.82311 0.71694 0.0
C1067 C 0.76582 0.81963 0.71399 0.0
C1068 C 0.80503 0.83751 0.70207 0.0
C1069 C 0.79542 0.84869 0.68394 0.0
C1070 C 0.77104 0.84453 0.68013 0.0
C1071 C 0.75629 0.83021 0.6952 0.0
C1072 C 0.81092 0.86575 0.67018 0.0
C1073 C 0.81488 0.86206 0.64565 0.0
C1074 C 0.82339 0.88467 0.68183 0.0
C1075 C 0.81913 0.88981 0.70752 0.0
C1076 C 0.79628 0.89161 0.71605 0.0
C1077 C 0.79231 0.89614 0.74033 0.0
C1078 C 0.81108 0.89907 0.75624 0.0
C1079 C 0.83388 0.89752 0.74789 0.0
C1080 C 0.83794 0.89295 0.72363 0.0
C1081 C 0.87649 0.93605 0.60003 0.0
C1082 C 0.89936 0.94011 0.60942 0.0
C1083 C 0.85869 0.92137 0.61134 0.0
C1084 C 0.8635 0.91047 0.63215 0.0
C1085 C 0.88627 0.91461 0.64159 0.0
C1086 C 0.90401 0.92925 0.63035 0.0
C1087 C 0.84486 0.89499 0.6445 0.0
C1088 C 0.84024 0.89901 0.66885 0.0
C1089 C 0.83194 0.87633 0.63268 0.0
C1090 C 0.8368 0.87061 0.6073 0.0
C1091 C 0.85955 0.86738 0.59976 0.0
C1092 C 0.86402 0.86209 0.57578 0.0
C1093 C 0.84584 0.85979 0.5592 0.0
C1094 C 0.82312 0.86273 0.56659 0.0
C1095 C 0.81856 0.86806 0.59055 0.0
H1096 H 0.84933 0.85568 0.54064 0.0
H1097 H 0.80797 0.90258 0.77503 0.0
H1098 H 0.67619 0.20119 0.29436 0.0
H1099 H 0.65288 0.18388 0.26069 0.0
H1100 H 0.65404 0.11939 0.29036 0.0
H1101 H 0.67795 0.13663 0.32349 0.0
H1102 H 0.66584 0.11874 0.24566 0.0
H1103 H 0.6031 0.14508 0.29014 0.0
H1104 H 0.58292 0.17274 0.31138 0.0
H1105 H 0.58431 0.21009 0.24691 0.0
H1106 H 0.60479 0.18281 0.22534 0.0
H1107 H 0.58824 0.05559 0.16695 0.0
H1108 H 0.60146 0.07499 0.2042 0.0
H1109 H 0.60908 0.13755 0.16825 0.0
H1110 H 0.59584 0.11821 0.13081 0.0
H1111 H 0.59168 0.13967 0.21583 0.0
H1112 H 0.65571 0.11353 0.17228 0.0
H1113 H 0.67508 0.08523 0.15117 0.0
H1114 H 0.67048 0.04688 0.21518 0.0
H1115 H 0.65073 0.07481 0.23656 0.0
C1116 C 0.67116 0.18335 0.29376 0.0
C1117 C 0.67893 0.17018 0.31133 0.0
C1118 C 0.65777 0.17348 0.27462 0.0
C1119 C 0.65154 0.15032 0.27308 0.0
C1120 C 0.65871 0.13726 0.29111 0.0
C1121 C 0.67236 0.14709 0.30999 0.0
C1122 C 0.63913 0.13948 0.25186 0.0
C1123 C 0.64941 0.1231 0.23945 0.0
C1124 C 0.61804 0.14559 0.24327 0.0
C1125 C 0.60569 0.162 0.25619 0.0
C1126 C 0.59927 0.15928 0.28054 0.0
C1127 C 0.58775 0.17488 0.29263 0.0
C1128 C 0.58239 0.19319 0.28052 0.0
C1129 C 0.58849 0.19591 0.25627 0.0
C1130 C 0.60004 0.18038 0.2441 0.0
C1131 C 0.59253 0.0735 0.16704 0.0
C1132 C 0.59139 0.08539 0.14593 0.0
C1133 C 0.59996 0.08454 0.18833 0.0
C1134 C 0.60657 0.10764 0.18881 0.0
C1135 C 0.60404 0.11971 0.16817 0.0
C1136 C 0.59651 0.10865 0.14684 0.0
C1137 C 0.61826 0.11882 0.21013 0.0
C1138 C 0.608 0.13531 0.22231 0.0
C1139 C 0.63934 0.11279 0.21868 0.0
C1140 C 0.65156 0.09616 0.20595 0.0
C1141 C 0.6587 0.099 0.1818 0.0
C1142 C 0.66975 0.08303 0.16979 0.0
C1143 C 0.67396 0.06425 0.18181 0.0
C1144 C 0.66719 0.06143 0.20589 0.0
C1145 C 0.65608 0.07733 0.21796 0.0
H1146 H 0.68252 0.0519 0.17248 0.0
H1147 H 0.57347 0.20524 0.28991 0.0
H1148 H 0.44307 0.62994 0.27389 0.0
H1149 H 0.45842 0.61098 0.30713 0.0
H1150 H 0.39629 0.6175 0.34945 0.0
H1151 H 0.3807 0.63618 0.31616 0.0
H1152 H 0.43833 0.62774 0.37645 0.0
H1153 H 0.40184 0.56843 0.32485 0.0
H1154 H 0.3952 0.54778 0.2865 0.0
H1155 H 0.46794 0.53901 0.28331 0.0
H1156 H 0.4751 0.5599 0.3215 0.0
H1157 H 0.45886 0.55742 0.47177 0.0
H1158 H 0.44251 0.57594 0.43912 0.0
H1159 H 0.49178 0.55219 0.38942 0.0
H1160 H 0.50714 0.53258 0.42198 0.0
H1161 H 0.45595 0.55127 0.36578 0.0
H1162 H 0.49467 0.61084 0.41416 0.0
H1163 H 0.50451 0.63306 0.45104 0.0
H1164 H 0.4325 0.64345 0.45897 0.0
H1165 H 0.42218 0.62111 0.42219 0.0
C1166 C 0.43264 0.62747 0.29027 0.0
C1167 C 0.41047 0.63471 0.292 0.0
C1168 C 0.44145 0.61645 0.30937 0.0
C1169 C 0.42862 0.61252 0.33112 0.0
C1170 C 0.40671 0.62014 0.33307 0.0
C1171 C 0.39769 0.63079 0.31382 0.0
C1172 C 0.43785 0.60033 0.35157 0.0
C1173 C 0.44189 0.61091 0.37414 0.0
C1174 C 0.44335 0.57854 0.3488 0.0
C1175 C 0.43906 0.56592 0.32591 0.0
C1176 C 0.41647 0.56226 0.31587 0.0
C1177 C 0.4126 0.55048 0.29418 0.0
C1178 C 0.43115 0.54214 0.28244 0.0
C1179 C 0.4536 0.54551 0.29241 0.0
C1180 C 0.45757 0.5573 0.31408 0.0
C1181 C 0.46629 0.55615 0.45393 0.0
C1182 C 0.48454 0.54346 0.44983 0.0
C1183 C 0.45699 0.56702 0.43504 0.0
C1184 C 0.46607 0.5663 0.41132 0.0
C1185 C 0.48417 0.55336 0.40723 0.0
C1186 C 0.49309 0.54207 0.42604 0.0
C1187 C 0.45669 0.57867 0.39089 0.0
C1188 C 0.45253 0.56812 0.36825 0.0
C1189 C 0.45158 0.6007 0.39346 0.0
C1190 C 0.45763 0.61417 0.41553 0.0
C1191 C 0.48091 0.61777 0.42384 0.0
C1192 C 0.48658 0.63039 0.4447 0.0
C1193 C 0.46915 0.63965 0.45732 0.0
C1194 C 0.44599 0.63627 0.44915 0.0
C1195 C 0.44022 0.62366 0.42827 0.0
H1196 H 0.47366 0.64953 0.47336 0.0
H1197 H 0.42812 0.53302 0.26566 0.0
H1198 H 0.14635 0.40625 0.81209 0.0
H1199 H 0.12939 0.42486 0.84612 0.0
H1200 H 0.06903 0.4316 0.80388 0.0
H1201 H 0.08578 0.41275 0.76988 0.0
H1202 H 0.0874 0.47119 0.82894 0.0
H1203 H 0.06366 0.394 0.84672 0.0
H1204 H 0.07022 0.35578 0.85384 0.0
H1205 H 0.1148 0.37873 0.91307 0.0
H1206 H 0.10877 0.41715 0.90608 0.0
H1207 H 0.01523 0.51 0.91932 0.0
H1208 H 0.03115 0.48891 0.8869 0.0
H1209 H 0.08017 0.46808 0.93593 0.0
H1210 H 0.06343 0.48863 0.96864 0.0
H1211 H 0.0688 0.4355 0.90749 0.0
H1212 H 0.09492 0.51155 0.89096 0.0
H1213 H 0.0917 0.55072 0.88437 0.0
H1214 H 0.04758 0.53179 0.82376 0.0
H1215 H 0.05029 0.49246 0.83016 0.0
C1216 C 0.12946 0.41168 0.80997 0.0
C1217 C 0.11752 0.40785 0.78802 0.0
C1218 C 0.11967 0.42227 0.82959 0.0
C1219 C 0.09775 0.4297 0.82786 0.0
C1220 C 0.0859 0.42609 0.80591 0.0
C1221 C 0.09548 0.41514 0.78642 0.0
C1222 C 0.08734 0.44141 0.84873 0.0
C1223 C 0.08303 0.46324 0.846 0.0
C1224 C 0.08236 0.43157 0.87147 0.0
C1225 C 0.08596 0.40848 0.87571 0.0
C1226 C 0.07503 0.39093 0.86113 0.0
C1227 C 0.07862 0.36922 0.86517 0.0
C1228 C 0.09297 0.36484 0.88385 0.0
C1229 C 0.10371 0.38215 0.89858 0.0
C1230 C 0.1002 0.4039 0.89459 0.0
C1231 C 0.02925 0.50074 0.92328 0.0
C1232 C 0.03772 0.50079 0.94679 0.0
C1233 C 0.03862 0.48878 0.90454 0.0
C1234 C 0.05748 0.47707 0.90839 0.0
C1235 C 0.06569 0.4768 0.93209 0.0
C1236 C 0.05594 0.48846 0.951 0.0
C1237 C 0.06861 0.4654 0.88777 0.0
C1238 C 0.07313 0.44357 0.8905 0.0
C1239 C 0.07429 0.47542 0.86513 0.0
C1240 C 0.07262 0.49904 0.86119 0.0
C1241 C 0.0844 0.51573 0.87632 0.0
C1242 C 0.08268 0.53796 0.87261 0.0
C1243 C 0.06939 0.54373 0.8537 0.0
C1244 C 0.05784 0.52729 0.83842 0.0
C1245 C 0.05947 0.50502 0.84207 0.0
H1246 H 0.06808 0.56095 0.85085 0.0
H1247 H 0.09572 0.34802 0.88695 0.0
H1248 H 0.66447 0.84975 0.90593 0.0
H1249 H 0.64437 0.87804 0.92507 0.0
H1250 H 0.5845 0.85857 0.87949 0.0
H1251 H 0.60479 0.83044 0.85997 0.0
H1252 H 0.59484 0.90171 0.88089 0.0
H1253 H 0.58276 0.84587 0.93996 0.0
H1254 H 0.59345 0.81827 0.96763 0.0
H1255 H 0.63817 0.86958 1.00613 0.0
H1256 H 0.628 0.89747 0.97847 0.0
H1257 H 0.51953 0.9628 0.95152 0.0
H1258 H 0.53721 0.93377 0.93042 0.0
H1259 H 0.60326 0.95623 0.96531 0.0
H1260 H 0.58584 0.98534 0.98639 0.0
H1261 H 0.58749 0.91059 0.9692 0.0
H1262 H 0.59901 0.96615 0.90793 0.0
H1263 H 0.58597 0.99279 0.88054 0.0
H1264 H 0.53884 0.94015 0.84672 0.0
H1265 H 0.5514 0.91323 0.87413 0.0
C1266 C 0.64686 0.85125 0.90026 0.0
C1267 C 0.63616 0.83781 0.88153 0.0
C1268 C 0.63538 0.86745 0.9112 0.0
C1269 C 0.61278 0.87031 0.90392 0.0
C1270 C 0.60193 0.85671 0.88539 0.0
C1271 C 0.61352 0.84064 0.87428 0.0
C1272 C 0.60089 0.88799 0.9151 0.0
C1273 C 0.5929 0.90342 0.9002 0.0
C1274 C 0.5986 0.89045 0.94031 0.0
C1275 C 0.60478 0.87373 0.95699 0.0
C1276 C 0.59502 0.85125 0.95421 0.0
C1277 C 0.60096 0.83556 0.96991 0.0
C1278 C 0.61652 0.84216 0.98859 0.0
C1279 C 0.62614 0.86449 0.99163 0.0
C1280 C 0.62027 0.88025 0.97596 0.0
C1281 C 0.53792 0.96176 0.95447 0.0
C1282 C 0.55128 0.97636 0.97066 0.0
C1283 C 0.54798 0.94517 0.94238 0.0
C1284 C 0.57152 0.94286 0.94636 0.0
C1285 C 0.58504 0.95773 0.96206 0.0
C1286 C 0.57508 0.97444 0.97398 0.0
C1287 C 0.58181 0.92436 0.935 0.0
C1288 C 0.5894 0.90877 0.9499 0.0
C1289 C 0.5834 0.92158 0.90983 0.0
C1290 C 0.57598 0.93772 0.89323 0.0
C1291 C 0.58573 0.96028 0.89477 0.0
C1292 C 0.57846 0.97543 0.87922 0.0
C1293 C 0.56154 0.96817 0.86194 0.0
C1294 C 0.55192 0.94575 0.86013 0.0
C1295 C 0.55913 0.93054 0.87565 0.0
H1296 H 0.55593 0.97992 0.84992 0.0
H1297 H 0.62109 0.82999 1.00073 0.0
H1298 H 0.87667 0.17884 0.38279 0.0
H1299 H 0.90543 0.1542 0.39009 0.0
H1300 H 0.88536 0.15215 0.46502 0.0
H1301 H 0.8564 0.17629 0.45789 0.0
H1302 H 0.93293 0.15217 0.45833 0.0
H1303 H 0.85862 0.11391 0.42788 0.0
H1304 H 0.82676 0.10676 0.39838 0.0
H1305 H 0.87647 0.09241 0.34402 0.0
H1306 H 0.90871 0.09982 0.37316 0.0
H1307 H 0.92971 0.03022 0.47999 0.0
H1308 H 0.9121 0.05897 0.4604 0.0
H1309 H 0.98153 0.0938 0.44308 0.0
H1310 H 0.9992 0.06545 0.46317 0.0
H1311 H 0.9131 0.07896 0.41708 0.0
H1312 H 0.98142 0.14835 0.45632 0.0
H1313 H 0.01106 0.15366 0.48827 0.0
H1314 H 0.9689 0.10334 0.52983 0.0
H1315 H 0.93887 0.098 0.49831 0.0
C1316 C 0.87863 0.17338 0.40088 0.0
C1317 C 0.86403 0.17931 0.41971 0.0
C1318 C 0.89513 0.15941 0.40502 0.0
C1319 C 0.89726 0.15118 0.42802 0.0
C1320 C 0.88401 0.1584 0.44715 0.0
C1321 C 0.86749 0.17228 0.44303 0.0
C1322 C 0.9111 0.13315 0.43187 0.0
C1323 C 0.92886 0.13627 0.44907 0.0
C1324 C 0.90547 0.11231 0.42005 0.0
C1325 C 0.8861 0.10768 0.40259 0.0
C1326 C 0.86278 0.10939 0.40959 0.0
C1327 C 0.84465 0.10528 0.39294 0.0
C1328 C 0.8496 0.0992 0.36932 0.0
C1329 C 0.87268 0.09717 0.36231 0.0
C1330 C 0.89088 0.10133 0.37888 0.0
C1331 C 0.94118 0.04376 0.47154 0.0
C1332 C 0.96576 0.04586 0.47339 0.0
C1333 C 0.93113 0.0601 0.46028 0.0
C1334 C 0.94555 0.07867 0.45071 0.0
C1335 C 0.97013 0.07975 0.45069 0.0
C1336 C 0.98017 0.06353 0.46211 0.0
C1337 C 0.93491 0.09797 0.44353 0.0
C1338 C 0.91766 0.09505 0.42583 0.0
C1339 C 0.94066 0.11886 0.45526 0.0
C1340 C 0.95805 0.12263 0.47484 0.0
C1341 C 0.97842 0.13854 0.47235 0.0
C1342 C 0.99529 0.14153 0.49037 0.0
C1343 C 0.99191 0.12878 0.51102 0.0
C1344 C 0.97154 0.11315 0.5138 0.0
C1345 C 0.95459 0.11015 0.49587 0.0
H1346 H 1.00505 0.13104 0.52489 0.0
H1347 H 0.83555 0.09601 0.35646 0.0
H1348 H 0.23276 0.62706 0.1683 0.0
H1349 H 0.19659 0.60948 0.14881 0.0
H1350 H 0.23248 0.61522 0.08008 0.0
H1351 H 0.26846 0.63332 0.09945 0.0
H1352 H 0.19174 0.62351 0.07277 0.0
H1353 H 0.2173 0.5638 0.11342 0.0
H1354 H 0.22995 0.5439 0.14765 0.0
H1355 H 0.16383 0.54699 0.18388 0.0
H1356 H 0.1509 0.56715 0.14997 0.0
H1357 H 0.09607 0.51756 0.04587 0.0
H1358 H 0.13251 0.53524 0.06475 0.0
H1359 H 0.10883 0.59864 0.06174 0.0
H1360 H 0.07273 0.58113 0.0421 0.0
H1361 H 0.14433 0.55487 0.10393 0.0
H1362 H 0.15401 0.64135 0.06073 0.0
H1363 H 0.14465 0.65799 0.02289 0.0
H1364 H 0.14584 0.59596 0.98563 0.0
H1365 H 0.15549 0.57903 0.02317 0.0
C1366 C 0.23308 0.62445 0.14905 0.0
C1367 C 0.25385 0.63172 0.13563 0.0
C1368 C 0.21223 0.61425 0.13781 0.0
C1369 C 0.21144 0.61049 0.11275 0.0
C1370 C 0.23218 0.61781 0.09934 0.0
C1371 C 0.25294 0.62825 0.11053 0.0
C1372 C 0.18917 0.5992 0.10047 0.0
C1373 C 0.18143 0.60853 0.07974 0.0
C1374 C 0.17554 0.57928 0.10886 0.0
C1375 C 0.18324 0.56718 0.12927 0.0
C1376 C 0.20553 0.56037 0.12877 0.0
C1377 C 0.21273 0.54902 0.14809 0.0
C1378 C 0.19772 0.54424 0.16796 0.0
C1379 C 0.17545 0.55074 0.1685 0.0
C1380 C 0.16817 0.56211 0.14922 0.0
C1381 C 0.0986 0.53531 0.04904 0.0
C1382 C 0.08124 0.5478 0.04211 0.0
C1383 C 0.11958 0.54548 0.06003 0.0
C1384 C 0.12403 0.56853 0.06463 0.0
C1385 C 0.10651 0.58098 0.05804 0.0
C1386 C 0.08562 0.57085 0.0468 0.0
C1387 C 0.14674 0.57935 0.07641 0.0
C1388 C 0.15457 0.56992 0.09704 0.0
C1389 C 0.16084 0.59881 0.06752 0.0
C1390 C 0.15522 0.60888 0.04482 0.0
C1391 C 0.15234 0.63129 0.04445 0.0
C1392 C 0.14697 0.64077 0.02305 0.0
C1393 C 0.14457 0.62802 1.00189 0.0
C1394 C 0.14761 0.60579 1.00205 0.0
C1395 C 0.15301 0.59624 0.02339 0.0
H1396 H 0.14039 0.63539 0.98535 0.0
H1397 H 0.20333 0.53545 0.1829 0.0
H1398 H 0.26583 0.40246 0.59297 0.0
H1399 H 0.30255 0.41906 0.57335 0.0
H1400 H 0.33288 0.4377 0.64228 0.0
H1401 H 0.29607 0.42106 0.66212 0.0
H1402 H 0.34594 0.47056 0.61193 0.0
H1403 H 0.34714 0.39239 0.6083 0.0
H1404 H 0.33179 0.35317 0.59924 0.0
H1405 H 0.32863 0.36773 0.52452 0.0
H1406 H 0.34367 0.40711 0.53317 0.0
H1407 H 0.46541 0.49365 0.56628 0.0
H1408 H 0.42884 0.4792 0.5881 0.0
H1409 H 0.39529 0.45854 0.5211 0.0
H1410 H 0.43183 0.47262 0.49937 0.0
H1411 H 0.38457 0.42659 0.5518 0.0
H1412 H 0.38323 0.50488 0.55545 0.0
H1413 H 0.39907 0.54401 0.56446 0.0
H1414 H 0.40286 0.52925 0.63907 0.0
H1415 H 0.38739 0.48995 0.63044 0.0
C1416 C 0.28031 0.40988 0.6041 0.0
C1417 C 0.27776 0.41007 0.62931 0.0
C1418 C 0.30145 0.41947 0.59276 0.0
C1419 C 0.32095 0.42943 0.60618 0.0
C1420 C 0.3183 0.43016 0.63134 0.0
C1421 C 0.29708 0.42062 0.64272 0.0
C1422 C 0.34399 0.43881 0.59396 0.0
C1423 C 0.35451 0.46079 0.59904 0.0
C1424 C 0.35527 0.42643 0.5767 0.0
C1425 C 0.34633 0.40274 0.57142 0.0
C1426 C 0.34302 0.38726 0.58996 0.0
C1427 C 0.33439 0.36499 0.58489 0.0
C1428 C 0.32918 0.35797 0.56133 0.0
C1429 C 0.33265 0.37319 0.54277 0.0
C1430 C 0.34124 0.39549 0.54774 0.0
C1431 C 0.45018 0.48617 0.55619 0.0
C1432 C 0.45166 0.48435 0.53101 0.0
C1433 C 0.42916 0.47794 0.56871 0.0
C1434 C 0.40894 0.46779 0.5564 0.0
C1435 C 0.41044 0.46616 0.53121 0.0
C1436 C 0.43142 0.47435 0.51873 0.0
C1437 C 0.38643 0.45842 0.56956 0.0
C1438 C 0.37603 0.43639 0.56469 0.0
C1439 C 0.3753 0.47076 0.58699 0.0
C1440 C 0.38437 0.49442 0.59226 0.0
C1441 C 0.3876 0.50995 0.57376 0.0
C1442 C 0.39649 0.53216 0.57879 0.0
C1443 C 0.40202 0.5391 0.60231 0.0
C1444 C 0.3986 0.52385 0.62085 0.0
C1445 C 0.38976 0.5016 0.6159 0.0
H1446 H 0.40891 0.5563 0.60618 0.0
H1447 H 0.32251 0.34072 0.55745 0.0
H1448 H 0.80371 0.70607 0.84676 0.0
H1449 H 0.83153 0.68528 0.86477 0.0
H1450 H 0.78246 0.66735 0.92324 0.0
H1451 H 0.75415 0.68792 0.90505 0.0
H1452 H 0.82757 0.68193 0.93861 0.0
H1453 H 0.7903 0.62925 0.88108 0.0
H1454 H 0.77577 0.61607 0.8412 0.0
H1455 H 0.84633 0.62892 0.81223 0.0
H1456 H 0.86125 0.64249 0.85188 0.0
H1457 H 0.89546 0.60657 0.98655 0.0
H1458 H 0.86305 0.62228 0.96935 0.0
H1459 H 0.90493 0.63835 0.90518 0.0
H1460 H 0.93724 0.62218 0.92216 0.0
H1461 H 0.86102 0.62277 0.89377 0.0
H1462 H 0.89809 0.67777 0.94977 0.0
H1463 H 0.91326 0.69182 0.98916 0.0
H1464 H 0.84389 0.67567 0.02039 0.0
H1465 H 0.82837 0.66124 0.98123 0.0
C1466 C 0.79859 0.69741 0.86324 0.0
C1467 C 0.77654 0.69848 0.87431 0.0
C1468 C 0.81459 0.68559 0.87356 0.0
C1469 C 0.80895 0.67453 0.89517 0.0
C1470 C 0.78712 0.67574 0.9065 0.0
C1471 C 0.77101 0.68755 0.89613 0.0
C1472 C 0.82621 0.66219 0.90609 0.0
C1473 C 0.83459 0.66872 0.929 0.0
C1474 C 0.83576 0.64534 0.89328 0.0
C1475 C 0.82686 0.63706 0.86943 0.0
C1476 C 0.8027 0.62942 0.86617 0.0
C1477 C 0.7944 0.62186 0.84361 0.0
C1478 C 0.81011 0.6217 0.82418 0.0
C1479 C 0.83417 0.62907 0.82729 0.0
C1480 C 0.84256 0.63667 0.84981 0.0
C1481 C 0.89774 0.61349 0.96878 0.0
C1482 C 0.91893 0.61335 0.95576 0.0
C1483 C 0.87923 0.62248 0.95898 0.0
C1484 C 0.88169 0.63188 0.93614 0.0
C1485 C 0.90263 0.63124 0.92285 0.0
C1486 C 0.92107 0.62201 0.93255 0.0
C1487 C 0.86261 0.64266 0.92622 0.0
C1488 C 0.85389 0.63587 0.90348 0.0
C1489 C 0.85286 0.65938 0.93913 0.0
C1490 C 0.86212 0.66822 0.96263 0.0
C1491 C 0.88611 0.67708 0.96508 0.0
C1492 C 0.89476 0.68512 0.98736 0.0
C1493 C 0.87956 0.68458 1.00728 0.0
C1494 C 0.85565 0.67605 1.00495 0.0
C1495 C 0.84691 0.66795 0.98272 0.0
H1496 H 0.8863 0.69081 0.02452 0.0
H1497 H 0.80365 0.61584 0.80673 0.0
H1498 H 0.45153 0.78674 0.13997 0.0
H1499 H 0.46815 0.82195 0.12176 0.0
H1500 H 0.39888 0.84057 0.1202 0.0
H1501 H 0.38213 0.80527 0.13809 0.0
H1502 H 0.41973 0.85408 0.08079 0.0
H1503 H 0.44462 0.86312 0.16225 0.0
H1504 H 0.46316 0.8537 0.19936 0.0
H1505 H 0.52975 0.85684 0.16215 0.0
H1506 H 0.51153 0.86601 0.12472 0.0
H1507 H 0.46385 0.96948 0.05578 0.0
H1508 H 0.44475 0.93477 0.07426 0.0
H1509 H 0.51118 0.9103 0.07221 0.0
H1510 H 0.53012 0.94467 0.05399 0.0
H1511 H 0.49058 0.90069 0.11419 0.0
H1512 H 0.46493 0.89178 0.03252 0.0
H1513 H 0.4462 0.90271 0.99617 0.0
H1514 H 0.38046 0.90059 0.03476 0.0
H1515 H 0.39891 0.88999 0.07147 0.0
C1516 C 0.43975 0.79835 0.13603 0.0
C1517 C 0.41531 0.79277 0.14078 0.0
C1518 C 0.44937 0.81871 0.12552 0.0
C1519 C 0.43504 0.83457 0.11968 0.0
C1520 C 0.41061 0.82896 0.12429 0.0
C1521 C 0.40096 0.80853 0.13461 0.0
C1522 C 0.44537 0.85679 0.10884 0.0
C1523 C 0.43503 0.86432 0.08842 0.0
C1524 C 0.46563 0.8705 0.11816 0.0
C1525 C 0.47665 0.86503 0.14063 0.0
C1526 C 0.46318 0.86165 0.16194 0.0
C1527 C 0.47363 0.85638 0.18304 0.0
C1528 C 0.4976 0.85461 0.1831 0.0
C1529 C 0.51118 0.85818 0.16207 0.0
C1530 C 0.5008 0.86343 0.14091 0.0
C1531 C 0.47436 0.95668 0.05922 0.0
C1532 C 0.49863 0.9601 0.0533 0.0
C1533 C 0.46338 0.93668 0.06977 0.0
C1534 C 0.47633 0.91946 0.07473 0.0
C1535 C 0.50057 0.92304 0.06883 0.0
C1536 C 0.51144 0.94285 0.05824 0.0
C1537 C 0.46506 0.89784 0.08611 0.0
C1538 C 0.47523 0.89044 0.10663 0.0
C1539 C 0.4446 0.88437 0.07695 0.0
C1540 C 0.43336 0.89032 0.05481 0.0
C1541 C 0.44651 0.89378 0.03329 0.0
C1542 C 0.43595 0.89991 0.01263 0.0
C1543 C 0.41217 0.90241 0.01317 0.0
C1544 C 0.39889 0.89869 0.03437 0.0
C1545 C 0.40938 0.89261 0.05511 0.0
H1546 H 0.40404 0.90719 0.99716 0.0
H1547 H 0.50566 0.85053 0.19945 0.0
H1548 H 0.1491 0.24508 0.61346 0.0
H1549 H 0.13292 0.20996 0.59418 0.0
H1550 H 0.06505 0.21359 0.62689 0.0
H1551 H 0.08087 0.24921 0.64577 0.0
H1552 H 0.076 0.1717 0.62979 0.0
H1553 H 0.07583 0.22443 0.56708 0.0
H1554 H 0.09334 0.25449 0.54038 0.0
H1555 H 0.14227 0.21378 0.51205 0.0
H1556 H 0.12526 0.18358 0.53883 0.0
H1557 H 0.01089 0.08305 0.5631 0.0
H1558 H 0.02616 0.11884 0.5816 0.0
H1559 H 0.09035 0.12146 0.53956 0.0
H1560 H 0.07452 0.08603 0.52007 0.0
H1561 H 0.08137 0.16056 0.54166 0.0
H1562 H 0.08377 0.10845 0.60396 0.0
H1563 H 0.06823 0.07805 0.63109 0.0
H1564 H 0.01802 0.11671 0.66084 0.0
H1565 H 0.03307 0.14725 0.63368 0.0
C1566 C 0.1306 0.23878 0.61639 0.0
C1567 C 0.11642 0.25057 0.63123 0.0
C1568 C 0.12134 0.21842 0.60532 0.0
C1569 C 0.09756 0.20896 0.60868 0.0
C1570 C 0.08344 0.22035 0.62386 0.0
C1571 C 0.09264 0.24083 0.63483 0.0
C1572 C 0.08755 0.18724 0.59649 0.0
C1573 C 0.0769 0.1694 0.61047 0.0
C1574 C 0.08923 0.18371 0.5713 0.0
C1575 C 0.09942 0.20182 0.55514 0.0
C1576 C 0.09045 0.22195 0.55529 0.0
C1577 C 0.10026 0.239 0.54012 0.0
C1578 C 0.11894 0.23607 0.52457 0.0
C1579 C 0.12782 0.21604 0.52412 0.0
C1580 C 0.11809 0.19895 0.53929 0.0
C1581 C 0.02833 0.09113 0.55781 0.0
C1582 C 0.04152 0.08129 0.5402 0.0
C1583 C 0.03719 0.11172 0.5686 0.0
C1584 C 0.05987 0.123 0.5627 0.0
C1585 C 0.07291 0.11333 0.54478 0.0
C1586 C 0.06384 0.09289 0.53363 0.0
C1587 C 0.0698 0.14482 0.57494 0.0
C1588 C 0.08045 0.16274 0.56098 0.0
C1589 C 0.06843 0.14833 0.60021 0.0
C1590 C 0.0594 0.13004 0.61662 0.0
C1591 C 0.06931 0.11041 0.61619 0.0
C1592 C 0.06061 0.09316 0.63158 0.0
C1593 C 0.04211 0.09543 0.64763 0.0
C1594 C 0.03232 0.11497 0.64837 0.0
C1595 C 0.04095 0.13226 0.633 0.0
H1596 H 0.03539 0.08206 0.65953 0.0
H1597 H 0.12651 0.24929 0.51284 0.0
H1598 H 0.72491 0.30335 0.4923 0.0
H1599 H 0.70054 0.32769 0.51214 0.0
H1600 H 0.65093 0.27086 0.53425 0.0
H1601 H 0.67525 0.24636 0.514 0.0
H1602 H 0.63023 0.29629 0.50822 0.0
H1603 H 0.67827 0.30923 0.57618 0.0
H1604 H 0.71481 0.31713 0.59939 0.0
H1605 H 0.73141 0.38101 0.56723 0.0
H1606 H 0.69517 0.37339 0.54352 0.0
H1607 H 0.55652 0.37761 0.52821 0.0
H1608 H 0.57956 0.3492 0.5402 0.0
H1609 H 0.64274 0.38825 0.51155 0.0
H1610 H 0.61993 0.41672 0.49994 0.0
H1611 H 0.65153 0.36752 0.55274 0.0
H1612 H 0.61041 0.34874 0.47737 0.0
H1613 H 0.57482 0.3409 0.45264 0.0
H1614 H 0.54644 0.28745 0.49868 0.0
H1615 H 0.58177 0.2952 0.52388 0.0
C1616 C 0.70932 0.296 0.50222 0.0
C1617 C 0.70177 0.27301 0.50135 0.0
C1618 C 0.69539 0.30995 0.51367 0.0
C1619 C 0.67385 0.30112 0.5247 0.0
C1620 C 0.66745 0.27803 0.5258 0.0
C1621 C 0.68129 0.26407 0.51419 0.0
C1622 C 0.65627 0.31587 0.5305 0.0
C1623 C 0.63462 0.31151 0.51869 0.0
C1624 C 0.66209 0.33594 0.54374 0.0
C1625 C 0.68397 0.34068 0.55798 0.0
C1626 C 0.68978 0.32491 0.57391 0.0
C1627 C 0.71044 0.32935 0.58719 0.0
C1628 C 0.72542 0.34955 0.58478 0.0
C1629 C 0.71977 0.36537 0.5691 0.0
C1630 C 0.69913 0.36102 0.55577 0.0
C1631 C 0.57538 0.38017 0.52475 0.0
C1632 C 0.58647 0.39918 0.51295 0.0
C1633 C 0.58849 0.36403 0.53168 0.0
C1634 C 0.61279 0.36655 0.52653 0.0
C1635 C 0.62403 0.38603 0.51576 0.0
C1636 C 0.61098 0.40223 0.50907 0.0
C1637 C 0.62619 0.3481 0.52977 0.0
C1638 C 0.64694 0.35186 0.54314 0.0
C1639 C 0.61969 0.32745 0.51787 0.0
C1640 C 0.59854 0.32273 0.50266 0.0
C1641 C 0.59649 0.33542 0.48231 0.0
C1642 C 0.57639 0.33099 0.4682 0.0
C1643 C 0.55834 0.31374 0.47413 0.0
C1644 C 0.5604 0.30085 0.49414 0.0
C1645 C 0.58045 0.30525 0.50835 0.0
H1646 H 0.54279 0.31032 0.46318 0.0
H1647 H 0.74141 0.35295 0.59507 0.0
loop_
_geom_bond_atom_site_label_1
_geom_bond_atom_site_label_2
_geom_bond_distance
_geom_bond_site_symmetry_2
_ccdc_geom_bond_type
C0 C1 1.384 . S
C0 H13 0.947 . S
C0 C35 1.382 . S
C1 C0 1.384 . S
C1 C2 1.378 . S
C2 C1 1.378 . S
C2 C3 1.378 . S
C2 H14 0.952 . S
C3 C2 1.378 . S
C3 H15 0.950 . S
C3 C34 1.383 . S
H4 C23 0.947 . S
H5 C24 0.946 . S
H6 C26 0.953 . S
H7 C27 0.945 . S
H8 C29 0.952 . S
H9 C30 0.949 . S
H10 C32 0.950 . S
H11 C33 0.948 . S
H12 C35 0.951 . S
H13 C0 0.947 . S
H14 C2 0.952 . S
H15 C3 0.950 . S
N16 C19 1.382 . S
N16 C21 1.363 . S
N17 C19 1.371 . S
N17 C20 1.372 . S
N18 C20 1.361 . S
N18 C21 1.377 . S
C19 N16 1.382 . S
C19 N17 1.371 . S
C19 C22 1.480 . S
C20 N17 1.372 . S
C20 N18 1.361 . S
C20 C28 1.457 . S
C21 N16 1.363 . S
C21 N18 1.377 . S
C21 C34 1.479 . S
C22 C19 1.480 . S
C22 C23 1.383 . S
C22 C27 1.385 . S
C23 H4 0.947 . S
C23 C22 1.383 . S
C23 C24 1.388 . S
C24 H5 0.946 . S
C24 C23 1.388 . S
C24 C25 1.384 . S
C25 C24 1.384 . S
C25 C26 1.377 . S
C26 H6 0.953 . S
C26 C25 1.377 . S
C26 C27 1.369 . S
C27 H7 0.945 . S
C27 C22 1.385 . S
C27 C26 1.369 . S
C28 C20 1.457 . S
C28 C29 1.372 . S
C28 C33 1.364 . S
C29 H8 0.952 . S
C29 C28 1.372 . S
C29 C30 1.389 . S
C30 H9 0.949 . S
C30 C29 1.389 . S
C30 C31 1.387 . S
C31 C30 1.387 . S
C31 C32 1.372 . S
C32 H10 0.950 . S
C32 C31 1.372 . S
C32 C33 1.379 . S
C33 H11 0.948 . S
C33 C28 1.364 . S
C33 C32 1.379 . S
C34 C3 1.383 . S
C34 C21 1.479 . S
C34 C35 1.398 . S
C35 C0 1.382 . S
C35 H12 0.951 . S
C35 C34 1.398 . S
C36 C37 1.384 . S
C36 H49 0.947 . S
C36 C71 1.382 . S
C37 C36 1.384 . S
C37 C38 1.378 . S
C38 C37 1.378 . S
C38 C39 1.378 . S
C38 H50 0.952 . S
C39 C38 1.378 . S
C39 H51 0.950 . S
C39 C70 1.383 . S
H40 C59 0.947 . S
H41 C60 0.946 . S
H42 C62 0.953 . S
H43 C63 0.945 . S
H44 C65 0.952 . S
H45 C66 0.949 . S
H46 C68 0.950 . S
H47 C69 0.948 . S
H48 C71 0.951 . S
H49 C36 0.947 . S
H50 C38 0.952 . S
H51 C39 0.950 . S
N52 C55 1.382 . S
N52 C57 1.363 . S
N53 C55 1.371 . S
N53 C56 1.372 . S
N54 C56 1.361 . S
N54 C57 1.377 . S
C55 N52 1.382 . S
C55 N53 1.371 . S
C55 C58 1.480 . S
C56 N53 1.372 . S
C56 N54 1.361 . S
C56 C64 1.457 . S
C57 N52 1.363 . S
C57 N54 1.377 . S
C57 C70 1.479 . S
C58 C55 1.480 . S
C58 C59 1.383 . S
C58 C63 1.385 . S
C59 H40 0.947 . S
C59 C58 1.383 . S
C59 C60 1.388 . S
C60 H41 0.946 . S
C60 C59 1.388 . S
C60 C61 1.384 . S
C61 C60 1.384 . S
C61 C62 1.377 . S
C62 H42 0.953 . S
C62 C61 1.377 . S
C62 C63 1.369 . S
C63 H43 0.945 . S
C63 C58 1.385 . S
C63 C62 1.369 . S
C64 C56 1.457 . S
C64 C65 1.372 . S
C64 C69 1.364 . S
C65 H44 0.952 . S
C65 C64 1.372 . S
C65 C66 1.389 . S
C66 H45 0.949 . S
C66 C65 1.389 . S
C66 C67 1.387 . S
C67 C66 1.387 . S
C67 C68 1.372 . S
C68 H46 0.950 . S
C68 C67 1.372 . S
C68 C69 1.379 . S
C69 H47 0.948 . S
C69 C64 1.364 . S
C69 C68 1.379 . S
C70 C39 1.383 . S
C70 C57 1.479 . S
C70 C71 1.398 . S
C71 C36 1.382 . S
C71 H48 0.951 . S
C71 C70 1.398 . S
C72 C73 1.384 . S
C72 H85 0.947 . S
C72 C107 1.382 . S
C73 C72 1.384 . S
C73 C74 1.378 . S
C74 C73 1.378 . S
C74 C75 1.378 . S
C74 H86 0.952 . S
C75 C74 1.378 . S
C75 H87 0.950 . S
C75 C106 1.383 . S
H76 C95 0.947 . S
H77 C96 0.946 . S
H78 C98 0.953 . S
H79 C99 0.945 . S
H80 C101 0.952 . S
H81 C102 0.949 . S
H82 C104 0.950 . S
H83 C105 0.948 . S
H84 C107 0.951 . S
H85 C72 0.947 . S
H86 C74 0.952 . S
H87 C75 0.950 . S
N88 C91 1.382 . S
N88 C93 1.363 . S
N89 C91 1.371 . S
N89 C92 1.372 . S
N90 C92 1.361 . S
N90 C93 1.377 . S
C91 N88 1.382 . S
C91 N89 1.371 . S
C91 C94 1.480 . S
C92 N89 1.372 . S
C92 N90 1.361 . S
C92 C100 1.457 . S
C93 N88 1.363 . S
C93 N90 1.377 . S
C93 C106 1.479 . S
C94 C91 1.480 . S
C94 C95 1.383 . S
C94 C99 1.385 . S
C95 H76 0.947 . S
C95 C94 1.383 . S
C95 C96 1.388 . S
C96 H77 0.946 . S
C96 C95 1.388 . S
C96 C97 1.384 . S
C97 C96 1.384 . S
C97 C98 1.377 . S
C98 H78 0.953 . S
C98 C97 1.377 . S
C98 C99 1.369 . S
C99 H79 0.945 . S
C99 C94 1.385 . S
C99 C98 1.369 . S
C100 C92 1.457 . S
C100 C101 1.372 . S
C100 C105 1.364 . S
C101 H80 0.952 . S
C101 C100 1.372 . S
C101 C102 1.389 . S
C102 H81 0.949 . S
C102 C101 1.389 . S
C102 C103 1.387 . S
C103 C102 1.387 . S
C103 C104 1.372 . S
C104 H82 0.950 . S
C104 C103 1.372 . S
C104 C105 1.379 . S
C105 H83 0.948 . S
C105 C100 1.364 . S
C105 C104 1.379 . S
C106 C75 1.383 . S
C106 C93 1.479 . S
C106 C107 1.398 . S
C107 C72 1.382 . S
C107 H84 0.951 . S
C107 C106 1.398 . S
C108 C109 1.384 . S
C108 H121 0.947 . S
C108 C143 1.382 . S
C109 C108 1.384 . S
C109 C110 1.378 . S
C110 C109 1.378 . S
C110 C111 1.378 . S
C110 H122 0.952 . S
C111 C110 1.378 . S
C111 H123 0.950 . S
C111 C142 1.383 . S
H112 C131 0.947 . S
H113 C132 0.946 . S
H114 C134 0.953 . S
H115 C135 0.945 . S
H116 C137 0.952 . S
H117 C138 0.949 . S
H118 C140 0.950 . S
H119 C141 0.948 . S
H120 C143 0.951 . S
H121 C108 0.947 . S
H122 C110 0.952 . S
H123 C111 0.950 . S
N124 C127 1.382 . S
N124 C129 1.363 . S
N125 C127 1.371 . S
N125 C128 1.372 . S
N126 C128 1.361 . S
N126 C129 1.377 . S
C127 N124 1.382 . S
C127 N125 1.371 . S
C127 C130 1.480 . S
C128 N125 1.372 . S
C128 N126 1.361 . S
C128 C136 1.457 . S
C129 N124 1.363 . S
C129 N126 1.377 . S
C129 C142 1.479 . S
C130 C127 1.480 . S
C130 C131 1.383 . S
C130 C135 1.385 . S
C131 H112 0.947 . S
C131 C130 1.383 . S
C131 C132 1.388 . S
C132 H113 0.946 . S
C132 C131 1.388 . S
C132 C133 1.384 . S
C133 C132 1.384 . S
C133 C134 1.377 . S
C134 H114 0.953 . S
C134 C133 1.377 . S
C134 C135 1.369 . S
C135 H115 0.945 . S
C135 C130 1.385 . S
C135 C134 1.369 . S
C136 C128 1.457 . S
C136 C137 1.372 . S
C136 C141 1.364 . S
C137 H116 0.952 . S
C137 C136 1.372 . S
C137 C138 1.389 . S
C138 H117 0.949 . S
C138 C137 1.389 . S
C138 C139 1.387 . S
C139 C138 1.387 . S
C139 C140 1.372 . S
C140 H118 0.950 . S
C140 C139 1.372 . S
C140 C141 1.379 . S
C141 H119 0.948 . S
C141 C136 1.364 . S
C141 C140 1.379 . S
C142 C111 1.383 . S
C142 C129 1.479 . S
C142 C143 1.398 . S
C143 C108 1.382 . S
C143 H120 0.951 . S
C143 C142 1.398 . S
C144 C145 1.384 . S
C144 H157 0.947 . S
C144 C179 1.382 . S
C145 C144 1.384 . S
C145 C146 1.378 . S
C146 C145 1.378 . S
C146 C147 1.378 . S
C146 H158 0.952 . S
C147 C146 1.378 . S
C147 H159 0.950 . S
C147 C178 1.383 . S
H148 C167 0.947 . S
H149 C168 0.946 . S
H150 C170 0.953 . S
H151 C171 0.945 . S
H152 C173 0.952 . S
H153 C174 0.949 . S
H154 C176 0.950 . S
H155 C177 0.948 . S
H156 C179 0.951 . S
H157 C144 0.947 . S
H158 C146 0.952 . S
H159 C147 0.950 . S
N160 C163 1.382 . S
N160 C165 1.363 . S
N161 C163 1.371 . S
N161 C164 1.372 . S
N162 C164 1.361 . S
N162 C165 1.377 . S
C163 N160 1.382 . S
C163 N161 1.371 . S
C163 C166 1.480 . S
C164 N161 1.372 . S
C164 N162 1.361 . S
C164 C172 1.457 . S
C165 N160 1.363 . S
C165 N162 1.377 . S
C165 C178 1.479 . S
C166 C163 1.480 . S
C166 C167 1.383 . S
C166 C171 1.385 . S
C167 H148 0.947 . S
C167 C166 1.383 . S
C167 C168 1.388 . S
C168 H149 0.946 . S
C168 C167 1.388 . S
C168 C169 1.384 . S
C169 C168 1.384 . S
C169 C170 1.377 . S
C170 H150 0.953 . S
C170 C169 1.377 . S
C170 C171 1.369 . S
C171 H151 0.945 . S
C171 C166 1.385 . S
C171 C170 1.369 . S
C172 C164 1.457 . S
C172 C173 1.372 . S
C172 C177 1.364 . S
C173 H152 0.952 . S
C173 C172 1.372 . S
C173 C174 1.389 . S
C174 H153 0.949 . S
C174 C173 1.389 . S
C174 C175 1.387 . S
C175 C174 1.387 . S
C175 C176 1.372 . S
C176 H154 0.950 . S
C176 C175 1.372 . S
C176 C177 1.379 . S
C177 H155 0.948 . S
C177 C172 1.364 . S
C177 C176 1.379 . S
C178 C147 1.383 . S
C178 C165 1.479 . S
C178 C179 1.398 . S
C179 C144 1.382 . S
C179 H156 0.951 . S
C179 C178 1.398 . S
C180 C181 1.384 . S
C180 H193 0.947 . S
C180 C215 1.382 . S
C181 C180 1.384 . S
C181 C182 1.378 . S
C182 C181 1.378 . S
C182 C183 1.378 . S
C182 H194 0.952 . S
C183 C182 1.378 . S
C183 H195 0.950 . S
C183 C214 1.383 . S
H184 C203 0.947 . S
H185 C204 0.946 . S
H186 C206 0.953 . S
H187 C207 0.945 . S
H188 C209 0.952 . S
H189 C210 0.949 . S
H190 C212 0.950 . S
H191 C213 0.948 . S
H192 C215 0.951 . S
H193 C180 0.947 . S
H194 C182 0.952 . S
H195 C183 0.950 . S
N196 C199 1.382 . S
N196 C201 1.363 . S
N197 C199 1.371 . S
N197 C200 1.372 . S
N198 C200 1.361 . S
N198 C201 1.377 . S
C199 N196 1.382 . S
C199 N197 1.371 . S
C199 C202 1.480 . S
C200 N197 1.372 . S
C200 N198 1.361 . S
C200 C208 1.457 . S
C201 N196 1.363 . S
C201 N198 1.377 . S
C201 C214 1.479 . S
C202 C199 1.480 . S
C202 C203 1.383 . S
C202 C207 1.385 . S
C203 H184 0.947 . S
C203 C202 1.383 . S
C203 C204 1.388 . S
C204 H185 0.946 . S
C204 C203 1.388 . S
C204 C205 1.384 . S
C205 C204 1.384 . S
C205 C206 1.377 . S
C206 H186 0.953 . S
C206 C205 1.377 . S
C206 C207 1.369 . S
C207 H187 0.945 . S
C207 C202 1.385 . S
C207 C206 1.369 . S
C208 C200 1.457 . S
C208 C209 1.372 . S
C208 C213 1.364 . S
C209 H188 0.952 . S
C209 C208 1.372 . S
C209 C210 1.389 . S
C210 H189 0.949 . S
C210 C209 1.389 . S
C210 C211 1.387 . S
C211 C210 1.387 . S
C211 C212 1.372 . S
C212 H190 0.950 . S
C212 C211 1.372 . S
C212 C213 1.379 . S
C213 H191 0.948 . S
C213 C208 1.364 . S
C213 C212 1.379 . S
C214 C183 1.383 . S
C214 C201 1.479 . S
C214 C215 1.398 . S
C215 C180 1.382 . S
C215 H192 0.951 . S
C215 C214 1.398 . S
C216 C217 1.384 . S
C216 H229 0.947 . S
C216 C251 1.382 . S
C217 C216 1.384 . S
C217 C218 1.378 . S
C218 C217 1.378 . S
C218 C219 1.378 . S
C218 H230 0.952 . S
C219 C218 1.378 . S
C219 H231 0.950 . S
C219 C250 1.383 . S
H220 C239 0.947 . S
H221 C240 0.946 . S
H222 C242 0.953 . S
H223 C243 0.945 . S
H224 C245 0.952 . S
H225 C246 0.949 . S
H226 C248 0.950 . S
H227 C249 0.948 . S
H228 C251 0.951 . S
H229 C216 0.947 . S
H230 C218 0.952 . S
H231 C219 0.950 . S
N232 C235 1.382 . S
N232 C237 1.363 . S
N233 C235 1.371 . S
N233 C236 1.372 . S
N234 C236 1.361 . S
N234 C237 1.377 . S
C235 N232 1.382 . S
C235 N233 1.371 . S
C235 C238 1.480 . S
C236 N233 1.372 . S
C236 N234 1.361 . S
C236 C244 1.457 . S
C237 N232 1.363 . S
C237 N234 1.377 . S
C237 C250 1.479 . S
C238 C235 1.480 . S
C238 C239 1.383 . S
C238 C243 1.385 . S
C239 H220 0.947 . S
C239 C238 1.383 . S
C239 C240 1.388 . S
C240 H221 0.946 . S
C240 C239 1.388 . S
C240 C241 1.384 . S
C241 C240 1.384 . S
C241 C242 1.377 . S
C242 H222 0.953 . S
C242 C241 1.377 . S
C242 C243 1.369 . S
C243 H223 0.945 . S
C243 C238 1.385 . S
C243 C242 1.369 . S
C244 C236 1.457 . S
C244 C245 1.372 . S
C244 C249 1.364 . S
C245 H224 0.952 . S
C245 C244 1.372 . S
C245 C246 1.389 . S
C246 H225 0.949 . S
C246 C245 1.389 . S
C246 C247 1.387 . S
C247 C246 1.387 . S
C247 C248 1.372 . S
C248 H226 0.950 . S
C248 C247 1.372 . S
C248 C249 1.379 . S
C249 H227 0.948 . S
C249 C244 1.364 . S
C249 C248 1.379 . S
C250 C219 1.383 . S
C250 C237 1.479 . S
C250 C251 1.398 . S
C251 C216 1.382 . S
C251 H228 0.951 . S
C251 C250 1.398 . S
C252 C253 1.384 . S
C252 H265 0.947 . S
C252 C287 1.382 . S
C253 C252 1.384 . S
C253 C254 1.378 . S
C254 C253 1.378 . S
C254 C255 1.378 . S
C254 H266 0.952 . S
C255 C254 1.378 . S
C255 H267 0.950 . S
C255 C286 1.383 . S
H256 C275 0.947 . S
H257 C276 0.946 . S
H258 C278 0.953 . S
H259 C279 0.945 . S
H260 C281 0.952 . S
H261 C282 0.949 . S
H262 C284 0.950 . S
H263 C285 0.948 . S
H264 C287 0.951 . S
H265 C252 0.947 . S
H266 C254 0.952 . S
H267 C255 0.950 . S
N268 C271 1.382 . S
N268 C273 1.363 . S
N269 C271 1.371 . S
N269 C272 1.372 . S
N270 C272 1.361 . S
N270 C273 1.377 . S
C271 N268 1.382 . S
C271 N269 1.371 . S
C271 C274 1.480 . S
C272 N269 1.372 . S
C272 N270 1.361 . S
C272 C280 1.457 . S
C273 N268 1.363 . S
C273 N270 1.377 . S
C273 C286 1.479 . S
C274 C271 1.480 . S
C274 C275 1.383 . S
C274 C279 1.385 . S
C275 H256 0.947 . S
C275 C274 1.383 . S
C275 C276 1.388 . S
C276 H257 0.946 . S
C276 C275 1.388 . S
C276 C277 1.384 . S
C277 C276 1.384 . S
C277 C278 1.377 . S
C278 H258 0.953 . S
C278 C277 1.377 . S
C278 C279 1.369 . S
C279 H259 0.945 . S
C279 C274 1.385 . S
C279 C278 1.369 . S
C280 C272 1.457 . S
C280 C281 1.372 . S
C280 C285 1.364 . S
C281 H260 0.952 . S
C281 C280 1.372 . S
C281 C282 1.389 . S
C282 H261 0.949 . S
C282 C281 1.389 . S
C282 C283 1.387 . S
C283 C282 1.387 . S
C283 C284 1.372 . S
C284 H262 0.950 . S
C284 C283 1.372 . S
C284 C285 1.379 . S
C285 H263 0.948 . S
C285 C280 1.364 . S
C285 C284 1.379 . S
C286 C255 1.383 . S
C286 C273 1.479 . S
C286 C287 1.398 . S
C287 C252 1.382 . S
C287 H264 0.951 . S
C287 C286 1.398 . S
Gd288 C291 2.818 . S
Gd288 O308 2.377 . S
Gd288 O310 2.448 . S
Gd288 O311 2.506 . S
Gd288 O312 2.435 1_545 S
Gd288 O313 2.717 1_545 S
Gd288 O315 2.395 1_445 S
Gd288 O319 2.327 1_455 S
Gd289 C300 2.818 . S
Gd289 O309 2.395 1_665 S
Gd289 O313 2.327 1_655 S
Gd289 O314 2.377 . S
Gd289 O316 2.448 . S
Gd289 O317 2.506 . S
Gd289 O318 2.435 1_565 S
Gd289 O319 2.717 1_565 S
C290 O308 1.240 . S
C290 O309 1.240 . S
C291 Gd288 2.818 . S
C291 C292 1.510 . S
C291 O310 1.249 . S
C291 O311 1.252 . S
C292 C291 1.510 . S
C292 C293 1.404 . S
C292 C294 1.352 . S
C293 C292 1.404 . S
C293 C297 1.389 . S
C293 H320 0.930 . S
C294 C292 1.352 . S
C294 C296 1.374 . S
C294 H321 0.931 . S
C295 C296 1.359 . S
C295 C297 1.364 . S
C296 C294 1.374 . S
C296 C295 1.359 . S
C296 H322 0.931 . S
C297 C293 1.389 . S
C297 C295 1.364 . S
C297 H323 0.931 . S
C298 O312 1.256 . S
C298 O313 1.257 . S
C299 O314 1.240 . S
C299 O315 1.240 . S
C300 Gd289 2.818 . S
C300 C301 1.510 . S
C300 O316 1.249 . S
C300 O317 1.252 . S
C301 C300 1.510 . S
C301 C302 1.404 . S
C301 C303 1.352 . S
C302 C301 1.404 . S
C302 C306 1.389 . S
C302 H324 0.930 . S
C303 C301 1.352 . S
C303 C305 1.374 . S
C303 H325 0.931 . S
C304 C305 1.359 . S
C304 C306 1.364 . S
C305 C303 1.374 . S
C305 C304 1.359 . S
C305 H326 0.931 . S
C306 C302 1.389 . S
C306 C304 1.364 . S
C306 H327 0.931 . S
C307 O318 1.256 . S
C307 O319 1.257 . S
O308 Gd288 2.377 . S
O308 C290 1.240 . S
O309 Gd289 2.395 1_445 S
O309 C290 1.240 . S
O310 Gd288 2.448 . S
O310 C291 1.249 . S
O311 Gd288 2.506 . S
O311 C291 1.252 . S
O312 Gd288 2.435 1_565 S
O312 C298 1.256 . S
O313 Gd288 2.717 1_565 S
O313 Gd289 2.327 1_455 S
O313 C298 1.257 . S
O314 Gd289 2.377 . S
O314 C299 1.240 . S
O315 Gd288 2.395 1_665 S
O315 C299 1.240 . S
O316 Gd289 2.448 . S
O316 C300 1.249 . S
O317 Gd289 2.506 . S
O317 C300 1.252 . S
O318 Gd289 2.435 1_545 S
O318 C307 1.256 . S
O319 Gd288 2.327 1_655 S
O319 Gd289 2.717 1_545 S
O319 C307 1.257 . S
H320 C293 0.930 . S
H321 C294 0.931 . S
H322 C296 0.931 . S
H323 C297 0.931 . S
H324 C302 0.930 . S
H325 C303 0.931 . S
H326 C305 0.931 . S
H327 C306 0.931 . S
Gd328 C331 2.811 1_565 S
Gd328 O348 2.370 1_565 S
Gd328 O350 2.447 1_565 S
Gd328 O351 2.495 1_565 S
Gd328 O352 2.445 . S
Gd328 O353 2.722 . S
Gd328 O355 2.403 1_554 S
Gd328 O359 2.318 1_564 S
Gd329 C340 2.795 1_545 S
Gd329 O349 2.424 1_556 S
Gd329 O353 2.297 1_546 S
Gd329 O354 2.353 1_545 S
Gd329 O356 2.445 1_545 S
Gd329 O357 2.467 1_545 S
Gd329 O358 2.470 . S
Gd329 O359 2.735 . S
C330 O348 1.240 . S
C330 O349 1.240 . S
C331 Gd328 2.811 1_545 S
C331 C332 1.510 . S
C331 O350 1.249 . S
C331 O351 1.252 . S
C332 C331 1.510 . S
C332 C333 1.404 . S
C332 C334 1.352 . S
C333 C332 1.404 . S
C333 C337 1.389 . S
C333 H360 0.930 . S
C334 C332 1.352 . S
C334 C336 1.374 . S
C334 H361 0.931 . S
C335 C336 1.359 . S
C335 C337 1.364 . S
C336 C334 1.374 . S
C336 C335 1.359 . S
C336 H362 0.931 . S
C337 C333 1.389 . S
C337 C335 1.364 . S
C337 H363 0.931 . S
C338 O352 1.256 . S
C338 O353 1.257 . S
C339 O354 1.240 . S
C339 O355 1.240 . S
C340 Gd329 2.795 1_565 S
C340 C341 1.510 . S
C340 O356 1.249 . S
C340 O357 1.252 . S
C341 C340 1.510 . S
C341 C342 1.404 . S
C341 C343 1.352 . S
C342 C341 1.404 . S
C342 C346 1.389 . S
C342 H364 0.930 . S
C343 C341 1.352 . S
C343 C345 1.374 . S
C343 H365 0.931 . S
C344 C345 1.359 . S
C344 C346 1.364 . S
C345 C343 1.374 . S
C345 C344 1.359 . S
C345 H366 0.931 . S
C346 C342 1.389 . S
C346 C344 1.364 . S
C346 H367 0.931 . S
C347 O358 1.256 . S
C347 O359 1.257 . S
O348 Gd328 2.370 1_545 S
O348 C330 1.240 . S
O349 Gd329 2.424 1_554 S
O349 C330 1.240 . S
O350 Gd328 2.447 1_545 S
O350 C331 1.249 . S
O351 Gd328 2.495 1_545 S
O351 C331 1.252 . S
O352 Gd328 2.445 . S
O352 C338 1.256 . S
O353 Gd328 2.722 . S
O353 Gd329 2.297 1_564 S
O353 C338 1.257 . S
O354 Gd329 2.353 1_565 S
O354 C339 1.240 . S
O355 Gd328 2.403 1_556 S
O355 C339 1.240 . S
O356 Gd329 2.445 1_565 S
O356 C340 1.249 . S
O357 Gd329 2.467 1_565 S
O357 C340 1.252 . S
O358 Gd329 2.470 . S
O358 C347 1.256 . S
O359 Gd328 2.318 1_546 S
O359 Gd329 2.735 . S
O359 C347 1.257 . S
H360 C333 0.930 . S
H361 C334 0.931 . S
H362 C336 0.931 . S
H363 C337 0.931 . S
H364 C342 0.930 . S
H365 C343 0.931 . S
H366 C345 0.931 . S
H367 C346 0.931 . S
Gd368 C371 2.818 . S
Gd368 O388 2.377 . S
Gd368 O390 2.448 . S
Gd368 O391 2.506 . S
Gd368 O392 2.435 . S
Gd368 O393 2.717 . S
Gd368 O395 2.395 . S
Gd368 O399 2.327 . S
Gd369 C380 2.818 . S
Gd369 O389 2.395 . S
Gd369 O393 2.327 . S
Gd369 O394 2.377 . S
Gd369 O396 2.448 . S
Gd369 O397 2.506 . S
Gd369 O398 2.435 . S
Gd369 O399 2.717 . S
C370 O388 1.240 . S
C370 O389 1.240 . S
C371 Gd368 2.818 . S
C371 C372 1.510 . S
C371 O390 1.249 . S
C371 O391 1.252 . S
C372 C371 1.510 . S
C372 C373 1.404 . S
C372 C374 1.352 . S
C373 C372 1.404 . S
C373 C377 1.389 . S
C373 H400 0.930 . S
C374 C372 1.352 . S
C374 C376 1.374 . S
C374 H401 0.931 . S
C375 C376 1.359 . S
C375 C377 1.364 . S
C376 C374 1.374 . S
C376 C375 1.359 . S
C376 H402 0.931 . S
C377 C373 1.389 . S
C377 C375 1.364 . S
C377 H403 0.931 . S
C378 O392 1.256 . S
C378 O393 1.257 . S
C379 O394 1.240 . S
C379 O395 1.240 . S
C380 Gd369 2.818 . S
C380 C381 1.510 . S
C380 O396 1.249 . S
C380 O397 1.252 . S
C381 C380 1.510 . S
C381 C382 1.404 . S
C381 C383 1.352 . S
C382 C381 1.404 . S
C382 C386 1.389 . S
C382 H404 0.930 . S
C383 C381 1.352 . S
C383 C385 1.374 . S
C383 H405 0.931 . S
C384 C385 1.359 . S
C384 C386 1.364 . S
C385 C383 1.374 . S
C385 C384 1.359 . S
C385 H406 0.931 . S
C386 C382 1.389 . S
C386 C384 1.364 . S
C386 H407 0.931 . S
C387 O398 1.256 . S
C387 O399 1.257 . S
O388 Gd368 2.377 . S
O388 C370 1.240 . S
O389 Gd369 2.395 . S
O389 C370 1.240 . S
O390 Gd368 2.448 . S
O390 C371 1.249 . S
O391 Gd368 2.506 . S
O391 C371 1.252 . S
O392 Gd368 2.435 . S
O392 C378 1.256 . S
O393 Gd368 2.717 . S
O393 Gd369 2.327 . S
O393 C378 1.257 . S
O394 Gd369 2.377 . S
O394 C379 1.240 . S
O395 Gd368 2.395 . S
O395 C379 1.240 . S
O396 Gd369 2.448 . S
O396 C380 1.249 . S
O397 Gd369 2.506 . S
O397 C380 1.252 . S
O398 Gd369 2.435 . S
O398 C387 1.256 . S
O399 Gd368 2.327 . S
O399 Gd369 2.717 . S
O399 C387 1.257 . S
H400 C373 0.930 . S
H401 C374 0.931 . S
H402 C376 0.931 . S
H403 C377 0.931 . S
H404 C382 0.930 . S
H405 C383 0.931 . S
H406 C385 0.931 . S
H407 C386 0.931 . S
Gd408 C411 2.818 . S
Gd408 O428 2.377 . S
Gd408 O430 2.448 . S
Gd408 O431 2.506 . S
Gd408 O432 2.435 1_455 S
Gd408 O433 2.717 1_455 S
Gd408 O435 2.411 1_455 S
Gd408 O439 2.327 1_554 S
Gd409 C420 2.818 1_455 S
Gd409 O429 2.395 1_556 S
Gd409 O433 2.327 1_456 S
Gd409 O434 2.377 1_455 S
Gd409 O436 2.448 1_455 S
Gd409 O437 2.506 1_455 S
Gd409 O438 2.435 . S
Gd409 O439 2.717 . S
C410 O428 1.240 . S
C410 O429 1.240 . S
C411 Gd408 2.818 . S
C411 C412 1.510 . S
C411 O430 1.249 . S
C411 O431 1.252 . S
C412 C411 1.510 . S
C412 C413 1.404 . S
C412 C414 1.352 . S
C413 C412 1.404 . S
C413 C417 1.389 . S
C413 H440 0.930 . S
C414 C412 1.352 . S
C414 C416 1.374 . S
C414 H441 0.931 . S
C415 C416 1.359 . S
C415 C417 1.364 . S
C416 C414 1.374 . S
C416 C415 1.359 . S
C416 H442 0.931 . S
C417 C413 1.389 . S
C417 C415 1.364 . S
C417 H443 0.931 . S
C418 O432 1.256 . S
C418 O433 1.257 . S
C419 O434 1.240 . S
C419 O435 1.217 1_556 S
C420 Gd409 2.818 1_655 S
C420 C421 1.510 . S
C420 O436 1.249 . S
C420 O437 1.252 . S
C421 C420 1.510 . S
C421 C422 1.404 . S
C421 C423 1.352 . S
C422 C421 1.404 . S
C422 C426 1.389 . S
C422 H444 0.930 . S
C423 C421 1.352 . S
C423 C425 1.374 . S
C423 H445 0.931 . S
C424 C425 1.359 . S
C424 C426 1.364 . S
C425 C423 1.374 . S
C425 C424 1.359 . S
C425 H446 0.931 . S
C426 C422 1.389 . S
C426 C424 1.364 . S
C426 H447 0.931 . S
C427 O438 1.256 . S
C427 O439 1.257 . S
O428 Gd408 2.377 . S
O428 C410 1.240 . S
O429 Gd409 2.395 1_554 S
O429 C410 1.240 . S
O430 Gd408 2.448 . S
O430 C411 1.249 . S
O431 Gd408 2.506 . S
O431 C411 1.252 . S
O432 Gd408 2.435 1_655 S
O432 C418 1.256 . S
O433 Gd408 2.717 1_655 S
O433 Gd409 2.327 1_654 S
O433 C418 1.257 . S
O434 Gd409 2.377 1_655 S
O434 C419 1.240 . S
O435 Gd408 2.411 1_655 S
O435 C419 1.217 1_554 S
O436 Gd409 2.448 1_655 S
O436 C420 1.249 . S
O437 Gd409 2.506 1_655 S
O437 C420 1.252 . S
O438 Gd409 2.435 . S
O438 C427 1.256 . S
O439 Gd408 2.327 1_556 S
O439 Gd409 2.717 . S
O439 C427 1.257 . S
H440 C413 0.930 . S
H441 C414 0.931 . S
H442 C416 0.931 . S
H443 C417 0.931 . S
H444 C422 0.930 . S
H445 C423 0.931 . S
H446 C425 0.931 . S
H447 C426 0.931 . S
H448 C466 0.951 . S
H449 C468 0.951 . S
H450 C470 0.950 . S
H451 C471 0.950 . S
H452 C473 0.950 . S
H453 C476 0.950 . S
H454 C477 0.950 . S
H455 C479 0.950 . S
H456 C480 0.950 . S
H457 C481 0.951 . S
H458 C483 0.951 . S
H459 C485 0.950 . S
H460 C486 0.950 . S
H461 C488 0.950 . S
H462 C491 0.950 . S
H463 C492 0.950 . S
H464 C494 0.950 . S
H465 C495 0.950 . S
C466 H448 0.951 . S
C466 C467 1.366 . S
C466 C468 1.388 . S
C467 C466 1.366 . S
C467 C471 1.385 . S
C468 H449 0.951 . S
C468 C466 1.388 . S
C468 C469 1.366 . S
C469 C468 1.366 . S
C469 C470 1.414 . S
C469 C472 1.499 . S
C470 H450 0.950 . S
C470 C469 1.414 . S
C470 C471 1.374 . S
C471 H451 0.950 . S
C471 C467 1.385 . S
C471 C470 1.374 . S
C472 C469 1.499 . S
C472 C473 1.373 . S
C472 C474 1.389 . S
C473 H452 0.950 . S
C473 C472 1.373 . S
C473 C489 1.377 . S
C474 C472 1.389 . S
C474 C475 1.524 . S
C474 C488 1.377 . S
C475 C474 1.524 . S
C475 C476 1.397 . S
C475 C480 1.363 . S
C476 H453 0.950 . S
C476 C475 1.397 . S
C476 C477 1.334 . S
C477 H454 0.950 . S
C477 C476 1.334 . S
C477 C478 1.287 . S
C478 C477 1.287 . S
C478 C479 1.524 . S
C478 H497 0.913 . S
C479 H455 0.950 . S
C479 C478 1.524 . S
C479 C480 1.415 . S
C480 H456 0.950 . S
C480 C475 1.363 . S
C480 C479 1.415 . S
C481 H457 0.951 . S
C481 C482 1.366 . S
C481 C483 1.388 . S
C482 C481 1.366 . S
C482 C486 1.385 . S
C483 H458 0.951 . S
C483 C481 1.388 . S
C483 C484 1.366 . S
C484 C483 1.366 . S
C484 C485 1.414 . S
C484 C487 1.499 . S
C485 H459 0.950 . S
C485 C484 1.414 . S
C485 C486 1.374 . S
C486 H460 0.950 . S
C486 C482 1.385 . S
C486 C485 1.374 . S
C487 C484 1.499 . S
C487 C488 1.373 . S
C487 C489 1.389 . S
C488 H461 0.950 . S
C488 C474 1.377 . S
C488 C487 1.373 . S
C489 C473 1.377 . S
C489 C487 1.389 . S
C489 C490 1.524 . S
C490 C489 1.524 . S
C490 C491 1.397 . S
C490 C495 1.363 . S
C491 H462 0.950 . S
C491 C490 1.397 . S
C491 C492 1.334 . S
C492 H463 0.950 . S
C492 C491 1.334 . S
C492 C493 1.287 . S
C493 C492 1.287 . S
C493 C494 1.524 . S
C493 H496 0.999 . S
C494 H464 0.950 . S
C494 C493 1.524 . S
C494 C495 1.415 . S
C495 H465 0.950 . S
C495 C490 1.363 . S
C495 C494 1.415 . S
H496 C493 0.999 . S
H497 C478 0.913 . S
H498 C516 0.951 . S
H499 C518 0.951 . S
H500 C520 0.950 . S
H501 C521 0.950 . S
H502 C523 0.950 . S
H503 C526 0.950 . S
H504 C527 0.950 . S
H505 C529 0.950 . S
H506 C530 0.950 . S
H507 C531 0.951 . S
H508 C533 0.951 . S
H509 C535 0.950 . S
H510 C536 0.950 . S
H511 C538 0.950 . S
H512 C541 0.950 . S
H513 C542 0.950 . S
H514 C544 0.950 . S
H515 C545 0.950 . S
C516 H498 0.951 . S
C516 C517 1.366 . S
C516 C518 1.388 . S
C517 C516 1.366 . S
C517 C521 1.385 . S
C518 H499 0.951 . S
C518 C516 1.388 . S
C518 C519 1.366 . S
C519 C518 1.366 . S
C519 C520 1.414 . S
C519 C522 1.499 . S
C520 H500 0.950 . S
C520 C519 1.414 . S
C520 C521 1.374 . S
C521 H501 0.950 . S
C521 C517 1.385 . S
C521 C520 1.374 . S
C522 C519 1.499 . S
C522 C523 1.373 . S
C522 C524 1.389 . S
C523 H502 0.950 . S
C523 C522 1.373 . S
C523 C539 1.377 . S
C524 C522 1.389 . S
C524 C525 1.524 . S
C524 C538 1.377 . S
C525 C524 1.524 . S
C525 C526 1.397 . S
C525 C530 1.363 . S
C526 H503 0.950 . S
C526 C525 1.397 . S
C526 C527 1.334 . S
C527 H504 0.950 . S
C527 C526 1.334 . S
C527 C528 1.287 . S
C528 C527 1.287 . S
C528 C529 1.524 . S
C528 H547 0.913 . S
C529 H505 0.950 . S
C529 C528 1.524 . S
C529 C530 1.415 . S
C530 H506 0.950 . S
C530 C525 1.363 . S
C530 C529 1.415 . S
C531 H507 0.951 . S
C531 C532 1.366 . S
C531 C533 1.388 . S
C532 C531 1.366 . S
C532 C536 1.385 . S
C533 H508 0.951 . S
C533 C531 1.388 . S
C533 C534 1.366 . S
C534 C533 1.366 . S
C534 C535 1.414 . S
C534 C537 1.499 . S
C535 H509 0.950 . S
C535 C534 1.414 . S
C535 C536 1.374 . S
C536 H510 0.950 . S
C536 C532 1.385 . S
C536 C535 1.374 . S
C537 C534 1.499 . S
C537 C538 1.373 . S
C537 C539 1.389 . S
C538 H511 0.950 . S
C538 C524 1.377 . S
C538 C537 1.373 . S
C539 C523 1.377 . S
C539 C537 1.389 . S
C539 C540 1.524 . S
C540 C539 1.524 . S
C540 C541 1.397 . S
C540 C545 1.363 . S
C541 H512 0.950 . S
C541 C540 1.397 . S
C541 C542 1.334 . S
C542 H513 0.950 . S
C542 C541 1.334 . S
C542 C543 1.287 . S
C543 C542 1.287 . S
C543 C544 1.524 . S
C543 H546 0.999 1_565 S
C544 H514 0.950 . S
C544 C543 1.524 . S
C544 C545 1.415 . S
C545 H515 0.950 . S
C545 C540 1.363 . S
C545 C544 1.415 . S
H546 C543 0.999 1_545 S
H547 C528 0.913 . S
H548 C566 0.951 . S
H549 C568 0.951 . S
H550 C570 0.950 . S
H551 C571 0.950 . S
H552 C573 0.950 . S
H553 C576 0.950 . S
H554 C577 0.950 . S
H555 C579 0.950 . S
H556 C580 0.950 . S
H557 C581 0.951 . S
H558 C583 0.951 . S
H559 C585 0.950 . S
H560 C586 0.950 . S
H561 C588 0.950 . S
H562 C591 0.950 . S
H563 C592 0.950 . S
H564 C594 0.950 . S
H565 C595 0.950 . S
C566 H548 0.951 . S
C566 C567 1.366 . S
C566 C568 1.388 . S
C567 C566 1.366 . S
C567 C571 1.385 . S
C568 H549 0.951 . S
C568 C566 1.388 . S
C568 C569 1.366 . S
C569 C568 1.366 . S
C569 C570 1.414 . S
C569 C572 1.499 . S
C570 H550 0.950 . S
C570 C569 1.414 . S
C570 C571 1.374 . S
C571 H551 0.950 . S
C571 C567 1.385 . S
C571 C570 1.374 . S
C572 C569 1.499 . S
C572 C573 1.373 . S
C572 C574 1.389 . S
C573 H552 0.950 . S
C573 C572 1.373 . S
C573 C589 1.377 . S
C574 C572 1.389 . S
C574 C575 1.524 . S
C574 C588 1.377 . S
C575 C574 1.524 . S
C575 C576 1.397 . S
C575 C580 1.363 . S
C576 H553 0.950 . S
C576 C575 1.397 . S
C576 C577 1.334 . S
C577 H554 0.950 . S
C577 C576 1.334 . S
C577 C578 1.287 . S
C578 C577 1.287 . S
C578 C579 1.524 . S
C578 H597 0.913 . S
C579 H555 0.950 . S
C579 C578 1.524 . S
C579 C580 1.415 . S
C580 H556 0.950 . S
C580 C575 1.363 . S
C580 C579 1.415 . S
C581 H557 0.951 . S
C581 C582 1.366 . S
C581 C583 1.388 . S
C582 C581 1.366 . S
C582 C586 1.385 . S
C583 H558 0.951 . S
C583 C581 1.388 . S
C583 C584 1.366 . S
C584 C583 1.366 . S
C584 C585 1.414 . S
C584 C587 1.499 . S
C585 H559 0.950 . S
C585 C584 1.414 . S
C585 C586 1.374 . S
C586 H560 0.950 . S
C586 C582 1.385 . S
C586 C585 1.374 . S
C587 C584 1.499 . S
C587 C588 1.373 . S
C587 C589 1.389 . S
C588 H561 0.950 . S
C588 C574 1.377 . S
C588 C587 1.373 . S
C589 C573 1.377 . S
C589 C587 1.389 . S
C589 C590 1.524 . S
C590 C589 1.524 . S
C590 C591 1.397 . S
C590 C595 1.363 . S
C591 H562 0.950 . S
C591 C590 1.397 . S
C591 C592 1.334 . S
C592 H563 0.950 . S
C592 C591 1.334 . S
C592 C593 1.287 . S
C593 C592 1.287 . S
C593 C594 1.524 . S
C593 H596 0.999 . S
C594 H564 0.950 . S
C594 C593 1.524 . S
C594 C595 1.415 . S
C595 H565 0.950 . S
C595 C590 1.363 . S
C595 C594 1.415 . S
H596 C593 0.999 . S
H597 C578 0.913 . S
H598 C616 0.951 . S
H599 C618 0.951 . S
H600 C620 0.950 . S
H601 C621 0.950 . S
H602 C623 0.950 . S
H603 C626 0.950 . S
H604 C627 0.950 . S
H605 C629 0.950 . S
H606 C630 0.950 . S
H607 C631 0.951 . S
H608 C633 0.951 . S
H609 C635 0.950 . S
H610 C636 0.950 . S
H611 C638 0.950 . S
H612 C641 0.950 . S
H613 C642 0.950 . S
H614 C644 0.950 . S
H615 C645 0.950 . S
C616 H598 0.951 . S
C616 C617 1.366 . S
C616 C618 1.388 . S
C617 C616 1.366 . S
C617 C621 1.385 . S
C618 H599 0.951 . S
C618 C616 1.388 . S
C618 C619 1.366 . S
C619 C618 1.366 . S
C619 C620 1.414 . S
C619 C622 1.499 . S
C620 H600 0.950 . S
C620 C619 1.414 . S
C620 C621 1.374 . S
C621 H601 0.950 . S
C621 C617 1.385 . S
C621 C620 1.374 . S
C622 C619 1.499 . S
C622 C623 1.373 . S
C622 C624 1.389 . S
C623 H602 0.950 . S
C623 C622 1.373 . S
C623 C639 1.377 . S
C624 C622 1.389 . S
C624 C625 1.524 . S
C624 C638 1.377 . S
C625 C624 1.524 . S
C625 C626 1.397 . S
C625 C630 1.363 . S
C626 H603 0.950 . S
C626 C625 1.397 . S
C626 C627 1.334 . S
C627 H604 0.950 . S
C627 C626 1.334 . S
C627 C628 1.287 . S
C628 C627 1.287 . S
C628 C629 1.524 . S
C628 H647 0.913 . S
C629 H605 0.950 . S
C629 C628 1.524 . S
C629 C630 1.415 . S
C630 H606 0.950 . S
C630 C625 1.363 . S
C630 C629 1.415 . S
C631 H607 0.951 . S
C631 C632 1.366 . S
C631 C633 1.388 . S
C632 C631 1.366 . S
C632 C636 1.385 . S
C633 H608 0.951 . S
C633 C631 1.388 . S
C633 C634 1.366 . S
C634 C633 1.366 . S
C634 C635 1.414 . S
C634 C637 1.499 . S
C635 H609 0.950 . S
C635 C634 1.414 . S
C635 C636 1.374 . S
C636 H610 0.950 . S
C636 C632 1.385 . S
C636 C635 1.374 . S
C637 C634 1.499 . S
C637 C638 1.373 . S
C637 C639 1.389 . S
C638 H611 0.950 . S
C638 C624 1.377 . S
C638 C637 1.373 . S
C639 C623 1.377 . S
C639 C637 1.389 . S
C639 C640 1.524 . S
C640 C639 1.524 . S
C640 C641 1.397 . S
C640 C645 1.363 . S
C641 H612 0.950 . S
C641 C640 1.397 . S
C641 C642 1.334 . S
C642 H613 0.950 . S
C642 C641 1.334 . S
C642 C643 1.287 . S
C643 C642 1.287 . S
C643 C644 1.524 . S
C643 H646 0.999 . S
C644 H614 0.950 . S
C644 C643 1.524 . S
C644 C645 1.415 . S
C645 H615 0.950 . S
C645 C640 1.363 . S
C645 C644 1.415 . S
H646 C643 0.999 . S
H647 C628 0.913 . S
H648 C666 0.951 . S
H649 C668 0.951 . S
H650 C670 0.950 . S
H651 C671 0.950 . S
H652 C673 0.950 . S
H653 C676 0.950 . S
H654 C677 0.950 . S
H655 C679 0.950 . S
H656 C680 0.950 . S
H657 C681 0.951 . S
H658 C683 0.951 . S
H659 C685 0.950 . S
H660 C686 0.950 . S
H661 C688 0.950 . S
H662 C691 0.950 . S
H663 C692 0.950 . S
H664 C694 0.950 . S
H665 C695 0.950 . S
C666 H648 0.951 . S
C666 C667 1.366 . S
C666 C668 1.388 . S
C667 C666 1.366 . S
C667 C671 1.385 . S
C668 H649 0.951 . S
C668 C666 1.388 . S
C668 C669 1.366 . S
C669 C668 1.366 . S
C669 C670 1.414 . S
C669 C672 1.499 . S
C670 H650 0.950 . S
C670 C669 1.414 . S
C670 C671 1.374 . S
C671 H651 0.950 . S
C671 C667 1.385 . S
C671 C670 1.374 . S
C672 C669 1.499 . S
C672 C673 1.373 . S
C672 C674 1.389 . S
C673 H652 0.950 . S
C673 C672 1.373 . S
C673 C689 1.377 . S
C674 C672 1.389 . S
C674 C675 1.524 . S
C674 C688 1.377 . S
C675 C674 1.524 . S
C675 C676 1.397 . S
C675 C680 1.363 . S
C676 H653 0.950 . S
C676 C675 1.397 . S
C676 C677 1.334 . S
C677 H654 0.950 . S
C677 C676 1.334 . S
C677 C678 1.287 . S
C678 C677 1.287 . S
C678 C679 1.524 . S
C678 H697 0.913 . S
C679 H655 0.950 . S
C679 C678 1.524 . S
C679 C680 1.415 . S
C680 H656 0.950 . S
C680 C675 1.363 . S
C680 C679 1.415 . S
C681 H657 0.951 . S
C681 C682 1.366 . S
C681 C683 1.388 . S
C682 C681 1.366 . S
C682 C686 1.385 . S
C683 H658 0.951 . S
C683 C681 1.388 . S
C683 C684 1.366 . S
C684 C683 1.366 . S
C684 C685 1.414 . S
C684 C687 1.499 . S
C685 H659 0.950 . S
C685 C684 1.414 . S
C685 C686 1.374 . S
C686 H660 0.950 . S
C686 C682 1.385 . S
C686 C685 1.374 . S
C687 C684 1.499 . S
C687 C688 1.373 . S
C687 C689 1.389 . S
C688 H661 0.950 . S
C688 C674 1.377 . S
C688 C687 1.373 . S
C689 C673 1.377 . S
C689 C687 1.389 . S
C689 C690 1.524 . S
C690 C689 1.524 . S
C690 C691 1.397 . S
C690 C695 1.363 . S
C691 H662 0.950 . S
C691 C690 1.397 . S
C691 C692 1.334 . S
C692 H663 0.950 . S
C692 C691 1.334 . S
C692 C693 1.287 . S
C693 C692 1.287 . S
C693 C694 1.524 . S
C693 H696 0.999 . S
C694 H664 0.950 . S
C694 C693 1.524 . S
C694 C695 1.415 . S
C695 H665 0.950 . S
C695 C690 1.363 . S
C695 C694 1.415 . S
H696 C693 0.999 . S
H697 C678 0.913 . S
H698 C716 0.951 . S
H699 C718 0.951 . S
H700 C720 0.950 . S
H701 C721 0.950 . S
H702 C723 0.950 . S
H703 C726 0.950 . S
H704 C727 0.950 . S
H705 C729 0.950 . S
H706 C730 0.950 . S
H707 C731 0.951 . S
H708 C733 0.951 . S
H709 C735 0.950 . S
H710 C736 0.950 . S
H711 C738 0.950 . S
H712 C741 0.950 . S
H713 C742 0.950 . S
H714 C744 0.950 . S
H715 C745 0.950 . S
C716 H698 0.951 . S
C716 C717 1.366 . S
C716 C718 1.388 . S
C717 C716 1.366 . S
C717 C721 1.385 . S
C718 H699 0.951 . S
C718 C716 1.388 . S
C718 C719 1.366 . S
C719 C718 1.366 . S
C719 C720 1.414 . S
C719 C722 1.499 . S
C720 H700 0.950 . S
C720 C719 1.414 . S
C720 C721 1.374 . S
C721 H701 0.950 . S
C721 C717 1.385 . S
C721 C720 1.374 . S
C722 C719 1.499 . S
C722 C723 1.373 . S
C722 C724 1.389 . S
C723 H702 0.950 . S
C723 C722 1.373 . S
C723 C739 1.377 . S
C724 C722 1.389 . S
C724 C725 1.524 . S
C724 C738 1.377 . S
C725 C724 1.524 . S
C725 C726 1.397 . S
C725 C730 1.363 . S
C726 H703 0.950 . S
C726 C725 1.397 . S
C726 C727 1.334 . S
C727 H704 0.950 . S
C727 C726 1.334 . S
C727 C728 1.287 . S
C728 C727 1.287 . S
C728 C729 1.524 . S
C728 H747 0.913 . S
C729 H705 0.950 . S
C729 C728 1.524 . S
C729 C730 1.415 . S
C730 H706 0.950 . S
C730 C725 1.363 . S
C730 C729 1.415 . S
C731 H707 0.951 . S
C731 C732 1.366 . S
C731 C733 1.388 . S
C732 C731 1.366 . S
C732 C736 1.385 . S
C733 H708 0.951 . S
C733 C731 1.388 . S
C733 C734 1.366 . S
C734 C733 1.366 . S
C734 C735 1.414 . S
C734 C737 1.499 . S
C735 H709 0.950 . S
C735 C734 1.414 . S
C735 C736 1.374 . S
C736 H710 0.950 . S
C736 C732 1.385 . S
C736 C735 1.374 . S
C737 C734 1.499 . S
C737 C738 1.373 . S
C737 C739 1.389 . S
C738 H711 0.950 . S
C738 C724 1.377 . S
C738 C737 1.373 . S
C739 C723 1.377 . S
C739 C737 1.389 . S
C739 C740 1.524 . S
C740 C739 1.524 . S
C740 C741 1.397 . S
C740 C745 1.363 . S
C741 H712 0.950 . S
C741 C740 1.397 . S
C741 C742 1.334 . S
C742 H713 0.950 . S
C742 C741 1.334 . S
C742 C743 1.287 . S
C743 C742 1.287 . S
C743 C744 1.524 . S
C743 H746 0.999 . S
C744 H714 0.950 . S
C744 C743 1.524 . S
C744 C745 1.415 . S
C745 H715 0.950 . S
C745 C740 1.363 . S
C745 C744 1.415 . S
H746 C743 0.999 . S
H747 C728 0.913 . S
H748 C766 0.951 . S
H749 C768 0.951 . S
H750 C770 0.950 . S
H751 C771 0.950 . S
H752 C773 0.950 . S
H753 C776 0.950 . S
H754 C777 0.950 . S
H755 C779 0.950 . S
H756 C780 0.950 . S
H757 C781 0.951 . S
H758 C783 0.951 . S
H759 C785 0.950 . S
H760 C786 0.950 . S
H761 C788 0.950 . S
H762 C791 0.950 . S
H763 C792 0.950 1_554 S
H764 C794 0.950 . S
H765 C795 0.950 . S
C766 H748 0.951 . S
C766 C767 1.366 . S
C766 C768 1.388 . S
C767 C766 1.366 . S
C767 C771 1.385 . S
C768 H749 0.951 . S
C768 C766 1.388 . S
C768 C769 1.366 . S
C769 C768 1.366 . S
C769 C770 1.414 . S
C769 C772 1.499 . S
C770 H750 0.950 . S
C770 C769 1.414 . S
C770 C771 1.374 . S
C771 H751 0.950 . S
C771 C767 1.385 . S
C771 C770 1.374 . S
C772 C769 1.499 . S
C772 C773 1.373 . S
C772 C774 1.389 . S
C773 H752 0.950 . S
C773 C772 1.373 . S
C773 C789 1.377 . S
C774 C772 1.389 . S
C774 C775 1.524 . S
C774 C788 1.377 . S
C775 C774 1.524 . S
C775 C776 1.397 . S
C775 C780 1.363 . S
C776 H753 0.950 . S
C776 C775 1.397 . S
C776 C777 1.334 . S
C777 H754 0.950 . S
C777 C776 1.334 . S
C777 C778 1.287 . S
C778 C777 1.287 . S
C778 C779 1.524 . S
C778 H797 0.913 . S
C779 H755 0.950 . S
C779 C778 1.524 . S
C779 C780 1.415 . S
C780 H756 0.950 . S
C780 C775 1.363 . S
C780 C779 1.415 . S
C781 H757 0.951 . S
C781 C782 1.366 . S
C781 C783 1.388 . S
C782 C781 1.366 . S
C782 C786 1.385 . S
C783 H758 0.951 . S
C783 C781 1.388 . S
C783 C784 1.366 . S
C784 C783 1.366 . S
C784 C785 1.414 . S
C784 C787 1.499 . S
C785 H759 0.950 . S
C785 C784 1.414 . S
C785 C786 1.374 . S
C786 H760 0.950 . S
C786 C782 1.385 . S
C786 C785 1.374 . S
C787 C784 1.499 . S
C787 C788 1.373 . S
C787 C789 1.389 . S
C788 H761 0.950 . S
C788 C774 1.377 . S
C788 C787 1.373 . S
C789 C773 1.377 . S
C789 C787 1.389 . S
C789 C790 1.524 . S
C790 C789 1.524 . S
C790 C791 1.397 . S
C790 C795 1.363 . S
C791 H762 0.950 . S
C791 C790 1.397 . S
C791 C792 1.334 . S
C792 H763 0.950 1_556 S
C792 C791 1.334 . S
C792 C793 1.287 . S
C793 C792 1.287 . S
C793 C794 1.524 . S
C793 H796 0.999 . S
C794 H764 0.950 . S
C794 C793 1.524 . S
C794 C795 1.415 . S
C795 H765 0.950 . S
C795 C790 1.363 . S
C795 C794 1.415 . S
H796 C793 0.999 . S
H797 C778 0.913 . S
H798 C816 0.951 . S
H799 C818 0.951 . S
H800 C820 0.950 . S
H801 C821 0.950 . S
H802 C823 0.950 . S
H803 C826 0.950 . S
H804 C827 0.950 . S
H805 C829 0.950 . S
H806 C830 0.950 . S
H807 C831 0.951 . S
H808 C833 0.951 . S
H809 C835 0.950 . S
H810 C836 0.950 . S
H811 C838 0.950 . S
H812 C841 0.950 . S
H813 C842 0.950 . S
H814 C844 0.950 . S
H815 C845 0.950 . S
C816 H798 0.951 . S
C816 C817 1.366 . S
C816 C818 1.388 . S
C817 C816 1.366 . S
C817 C821 1.385 . S
C818 H799 0.951 . S
C818 C816 1.388 . S
C818 C819 1.366 . S
C819 C818 1.366 . S
C819 C820 1.414 . S
C819 C822 1.499 . S
C820 H800 0.950 . S
C820 C819 1.414 . S
C820 C821 1.374 . S
C821 H801 0.950 . S
C821 C817 1.385 . S
C821 C820 1.374 . S
C822 C819 1.499 . S
C822 C823 1.373 . S
C822 C824 1.389 . S
C823 H802 0.950 . S
C823 C822 1.373 . S
C823 C839 1.377 . S
C824 C822 1.389 . S
C824 C825 1.524 . S
C824 C838 1.377 . S
C825 C824 1.524 . S
C825 C826 1.397 . S
C825 C830 1.363 . S
C826 H803 0.950 . S
C826 C825 1.397 . S
C826 C827 1.334 . S
C827 H804 0.950 . S
C827 C826 1.334 . S
C827 C828 1.287 . S
C828 C827 1.287 . S
C828 C829 1.524 . S
C828 H847 0.913 . S
C829 H805 0.950 . S
C829 C828 1.524 . S
C829 C830 1.415 . S
C830 H806 0.950 . S
C830 C825 1.363 . S
C830 C829 1.415 . S
C831 H807 0.951 . S
C831 C832 1.366 . S
C831 C833 1.388 . S
C832 C831 1.366 . S
C832 C836 1.385 . S
C833 H808 0.951 . S
C833 C831 1.388 . S
C833 C834 1.366 . S
C834 C833 1.366 . S
C834 C835 1.414 . S
C834 C837 1.499 . S
C835 H809 0.950 . S
C835 C834 1.414 . S
C835 C836 1.374 . S
C836 H810 0.950 . S
C836 C832 1.385 . S
C836 C835 1.374 . S
C837 C834 1.499 . S
C837 C838 1.373 . S
C837 C839 1.389 . S
C838 H811 0.950 . S
C838 C824 1.377 . S
C838 C837 1.373 . S
C839 C823 1.377 . S
C839 C837 1.389 . S
C839 C840 1.524 . S
C840 C839 1.524 . S
C840 C841 1.397 . S
C840 C845 1.363 . S
C841 H812 0.950 . S
C841 C840 1.397 . S
C841 C842 1.334 . S
C842 H813 0.950 . S
C842 C841 1.334 . S
C842 C843 1.287 . S
C843 C842 1.287 . S
C843 C844 1.524 . S
C843 H846 0.999 . S
C844 H814 0.950 . S
C844 C843 1.524 . S
C844 C845 1.415 . S
C845 H815 0.950 . S
C845 C840 1.363 . S
C845 C844 1.415 . S
H846 C843 0.999 . S
H847 C828 0.913 . S
H848 C866 0.951 . S
H849 C868 0.951 . S
H850 C870 0.950 . S
H851 C871 0.950 . S
H852 C873 0.950 . S
H853 C876 0.950 . S
H854 C877 0.950 . S
H855 C879 0.950 . S
H856 C880 0.950 . S
H857 C881 0.951 . S
H858 C883 0.951 . S
H859 C885 0.950 . S
H860 C886 0.950 . S
H861 C888 0.950 . S
H862 C891 0.950 . S
H863 C892 0.950 . S
H864 C894 0.950 . S
H865 C895 0.950 . S
C866 H848 0.951 . S
C866 C867 1.366 . S
C866 C868 1.388 . S
C867 C866 1.366 . S
C867 C871 1.385 . S
C868 H849 0.951 . S
C868 C866 1.388 . S
C868 C869 1.366 . S
C869 C868 1.366 . S
C869 C870 1.414 . S
C869 C872 1.499 . S
C870 H850 0.950 . S
C870 C869 1.414 . S
C870 C871 1.374 . S
C871 H851 0.950 . S
C871 C867 1.385 . S
C871 C870 1.374 . S
C872 C869 1.499 . S
C872 C873 1.373 . S
C872 C874 1.389 . S
C873 H852 0.950 . S
C873 C872 1.373 . S
C873 C889 1.377 . S
C874 C872 1.389 . S
C874 C875 1.524 . S
C874 C888 1.377 . S
C875 C874 1.524 . S
C875 C876 1.397 . S
C875 C880 1.363 . S
C876 H853 0.950 . S
C876 C875 1.397 . S
C876 C877 1.334 . S
C877 H854 0.950 . S
C877 C876 1.334 . S
C877 C878 1.287 . S
C878 C877 1.287 . S
C878 C879 1.524 . S
C878 H897 0.913 . S
C879 H855 0.950 . S
C879 C878 1.524 . S
C879 C880 1.415 . S
C880 H856 0.950 . S
C880 C875 1.363 . S
C880 C879 1.415 . S
C881 H857 0.951 . S
C881 C882 1.366 . S
C881 C883 1.388 . S
C882 C881 1.366 . S
C882 C886 1.385 . S
C883 H858 0.951 . S
C883 C881 1.388 . S
C883 C884 1.366 . S
C884 C883 1.366 . S
C884 C885 1.414 . S
C884 C887 1.499 . S
C885 H859 0.950 . S
C885 C884 1.414 . S
C885 C886 1.374 . S
C886 H860 0.950 . S
C886 C882 1.385 . S
C886 C885 1.374 . S
C887 C884 1.499 . S
C887 C888 1.373 . S
C887 C889 1.389 . S
C888 H861 0.950 . S
C888 C874 1.377 . S
C888 C887 1.373 . S
C889 C873 1.377 . S
C889 C887 1.389 . S
C889 C890 1.524 . S
C890 C889 1.524 . S
C890 C891 1.397 . S
C890 C895 1.363 . S
C891 H862 0.950 . S
C891 C890 1.397 . S
C891 C892 1.334 . S
C892 H863 0.950 . S
C892 C891 1.334 . S
C892 C893 1.287 . S
C893 C892 1.287 . S
C893 C894 1.524 . S
C893 H896 0.999 . S
C894 H864 0.950 . S
C894 C893 1.524 . S
C894 C895 1.415 . S
C895 H865 0.950 . S
C895 C890 1.363 . S
C895 C894 1.415 . S
H896 C893 0.999 . S
H897 C878 0.913 . S
H898 C916 0.951 . S
H899 C918 0.951 . S
H900 C920 0.950 . S
H901 C921 0.950 . S
H902 C923 0.950 . S
H903 C926 0.950 . S
H904 C927 0.950 . S
H905 C929 0.950 . S
H906 C930 0.950 . S
H907 C931 0.951 . S
H908 C933 0.951 . S
H909 C935 0.950 . S
H910 C936 0.950 . S
H911 C938 0.950 . S
H912 C941 0.950 . S
H913 C942 0.950 . S
H914 C944 0.950 . S
H915 C945 0.950 . S
C916 H898 0.951 . S
C916 C917 1.366 . S
C916 C918 1.388 . S
C917 C916 1.366 . S
C917 C921 1.385 . S
C918 H899 0.951 . S
C918 C916 1.388 . S
C918 C919 1.366 . S
C919 C918 1.366 . S
C919 C920 1.414 . S
C919 C922 1.499 . S
C920 H900 0.950 . S
C920 C919 1.414 . S
C920 C921 1.374 . S
C921 H901 0.950 . S
C921 C917 1.385 . S
C921 C920 1.374 . S
C922 C919 1.499 . S
C922 C923 1.373 . S
C922 C924 1.389 . S
C923 H902 0.950 . S
C923 C922 1.373 . S
C923 C939 1.377 . S
C924 C922 1.389 . S
C924 C925 1.524 . S
C924 C938 1.377 . S
C925 C924 1.524 . S
C925 C926 1.397 . S
C925 C930 1.363 . S
C926 H903 0.950 . S
C926 C925 1.397 . S
C926 C927 1.334 . S
C927 H904 0.950 . S
C927 C926 1.334 . S
C927 C928 1.287 . S
C928 C927 1.287 . S
C928 C929 1.524 . S
C928 H947 0.913 . S
C929 H905 0.950 . S
C929 C928 1.524 . S
C929 C930 1.415 . S
C930 H906 0.950 . S
C930 C925 1.363 . S
C930 C929 1.415 . S
C931 H907 0.951 . S
C931 C932 1.366 . S
C931 C933 1.388 . S
C932 C931 1.366 . S
C932 C936 1.385 . S
C933 H908 0.951 . S
C933 C931 1.388 . S
C933 C934 1.366 . S
C934 C933 1.366 . S
C934 C935 1.414 . S
C934 C937 1.499 . S
C935 H909 0.950 . S
C935 C934 1.414 . S
C935 C936 1.374 . S
C936 H910 0.950 . S
C936 C932 1.385 . S
C936 C935 1.374 . S
C937 C934 1.499 . S
C937 C938 1.373 . S
C937 C939 1.389 . S
C938 H911 0.950 . S
C938 C924 1.377 . S
C938 C937 1.373 . S
C939 C923 1.377 . S
C939 C937 1.389 . S
C939 C940 1.524 . S
C940 C939 1.524 . S
C940 C941 1.397 . S
C940 C945 1.363 . S
C941 H912 0.950 . S
C941 C940 1.397 . S
C941 C942 1.334 1_556 S
C942 H913 0.950 . S
C942 C941 1.334 1_554 S
C942 C943 1.287 . S
C943 C942 1.287 . S
C943 C944 1.524 . S
C943 H946 0.999 . S
C944 H914 0.950 . S
C944 C943 1.524 . S
C944 C945 1.415 1_554 S
C945 H915 0.950 . S
C945 C940 1.363 . S
C945 C944 1.415 1_556 S
H946 C943 0.999 . S
H947 C928 0.913 . S
H948 C966 0.951 . S
H949 C968 0.951 . S
H950 C970 0.950 . S
H951 C971 0.950 . S
H952 C973 0.950 . S
H953 C976 0.950 . S
H954 C977 0.950 . S
H955 C979 0.950 . S
H956 C980 0.950 . S
H957 C981 0.951 . S
H958 C983 0.951 . S
H959 C985 0.950 . S
H960 C986 0.950 . S
H961 C988 0.950 . S
H962 C991 0.950 . S
H963 C992 0.950 . S
H964 C994 0.950 . S
H965 C995 0.950 . S
C966 H948 0.951 . S
C966 C967 1.366 . S
C966 C968 1.388 . S
C967 C966 1.366 . S
C967 C971 1.385 . S
C968 H949 0.951 . S
C968 C966 1.388 . S
C968 C969 1.366 . S
C969 C968 1.366 . S
C969 C970 1.414 . S
C969 C972 1.499 . S
C970 H950 0.950 . S
C970 C969 1.414 . S
C970 C971 1.374 . S
C971 H951 0.950 . S
C971 C967 1.385 . S
C971 C970 1.374 . S
C972 C969 1.499 . S
C972 C973 1.373 . S
C972 C974 1.389 . S
C973 H952 0.950 . S
C973 C972 1.373 . S
C973 C989 1.377 . S
C974 C972 1.389 . S
C974 C975 1.524 . S
C974 C988 1.377 . S
C975 C974 1.524 . S
C975 C976 1.397 . S
C975 C980 1.363 . S
C976 H953 0.950 . S
C976 C975 1.397 . S
C976 C977 1.334 . S
C977 H954 0.950 . S
C977 C976 1.334 . S
C977 C978 1.287 . S
C978 C977 1.287 . S
C978 C979 1.524 . S
C978 H997 0.913 . S
C979 H955 0.950 . S
C979 C978 1.524 . S
C979 C980 1.415 . S
C980 H956 0.950 . S
C980 C975 1.363 . S
C980 C979 1.415 . S
C981 H957 0.951 . S
C981 C982 1.366 . S
C981 C983 1.388 . S
C982 C981 1.366 . S
C982 C986 1.385 . S
C983 H958 0.951 . S
C983 C981 1.388 . S
C983 C984 1.366 . S
C984 C983 1.366 . S
C984 C985 1.414 . S
C984 C987 1.499 . S
C985 H959 0.950 . S
C985 C984 1.414 . S
C985 C986 1.374 . S
C986 H960 0.950 . S
C986 C982 1.385 . S
C986 C985 1.374 . S
C987 C984 1.499 . S
C987 C988 1.373 . S
C987 C989 1.389 . S
C988 H961 0.950 . S
C988 C974 1.377 . S
C988 C987 1.373 . S
C989 C973 1.377 . S
C989 C987 1.389 . S
C989 C990 1.524 . S
C990 C989 1.524 . S
C990 C991 1.397 . S
C990 C995 1.363 . S
C991 H962 0.950 . S
C991 C990 1.397 . S
C991 C992 1.334 1_655 S
C992 H963 0.950 . S
C992 C991 1.334 1_455 S
C992 C993 1.287 . S
C993 C992 1.287 . S
C993 C994 1.524 . S
C993 H996 0.999 . S
C994 H964 0.950 . S
C994 C993 1.524 . S
C994 C995 1.415 1_455 S
C995 H965 0.950 . S
C995 C990 1.363 . S
C995 C994 1.415 1_655 S
H996 C993 0.999 . S
H997 C978 0.913 . S
H998 C1016 0.951 . S
H999 C1018 0.951 . S
H1000 C1020 0.950 . S
H1001 C1021 0.950 . S
H1002 C1023 0.950 . S
H1003 C1026 0.950 . S
H1004 C1027 0.950 . S
H1005 C1029 0.950 . S
H1006 C1030 0.950 . S
H1007 C1031 0.951 . S
H1008 C1033 0.951 . S
H1009 C1035 0.950 . S
H1010 C1036 0.950 . S
H1011 C1038 0.950 . S
H1012 C1041 0.950 . S
H1013 C1042 0.950 . S
H1014 C1044 0.950 . S
H1015 C1045 0.950 . S
C1016 H998 0.951 . S
C1016 C1017 1.366 . S
C1016 C1018 1.388 . S
C1017 C1016 1.366 . S
C1017 C1021 1.385 . S
C1018 H999 0.951 . S
C1018 C1016 1.388 . S
C1018 C1019 1.366 . S
C1019 C1018 1.366 . S
C1019 C1020 1.414 . S
C1019 C1022 1.499 . S
C1020 H1000 0.950 . S
C1020 C1019 1.414 . S
C1020 C1021 1.374 . S
C1021 H1001 0.950 . S
C1021 C1017 1.385 . S
C1021 C1020 1.374 . S
C1022 C1019 1.499 . S
C1022 C1023 1.373 . S
C1022 C1024 1.389 . S
C1023 H1002 0.950 . S
C1023 C1022 1.373 . S
C1023 C1039 1.377 . S
C1024 C1022 1.389 . S
C1024 C1025 1.524 . S
C1024 C1038 1.377 . S
C1025 C1024 1.524 . S
C1025 C1026 1.397 . S
C1025 C1030 1.363 . S
C1026 H1003 0.950 . S
C1026 C1025 1.397 . S
C1026 C1027 1.334 . S
C1027 H1004 0.950 . S
C1027 C1026 1.334 . S
C1027 C1028 1.287 . S
C1028 C1027 1.287 . S
C1028 C1029 1.524 . S
C1028 H1047 0.913 . S
C1029 H1005 0.950 . S
C1029 C1028 1.524 . S
C1029 C1030 1.415 . S
C1030 H1006 0.950 . S
C1030 C1025 1.363 . S
C1030 C1029 1.415 . S
C1031 H1007 0.951 . S
C1031 C1032 1.366 . S
C1031 C1033 1.388 . S
C1032 C1031 1.366 . S
C1032 C1036 1.385 . S
C1033 H1008 0.951 . S
C1033 C1031 1.388 . S
C1033 C1034 1.366 . S
C1034 C1033 1.366 . S
C1034 C1035 1.414 . S
C1034 C1037 1.499 . S
C1035 H1009 0.950 . S
C1035 C1034 1.414 . S
C1035 C1036 1.374 . S
C1036 H1010 0.950 . S
C1036 C1032 1.385 . S
C1036 C1035 1.374 . S
C1037 C1034 1.499 . S
C1037 C1038 1.373 . S
C1037 C1039 1.389 . S
C1038 H1011 0.950 . S
C1038 C1024 1.377 . S
C1038 C1037 1.373 . S
C1039 C1023 1.377 . S
C1039 C1037 1.389 . S
C1039 C1040 1.524 . S
C1040 C1039 1.524 . S
C1040 C1041 1.397 . S
C1040 C1045 1.363 . S
C1041 H1012 0.950 . S
C1041 C1040 1.397 . S
C1041 C1042 1.334 . S
C1042 H1013 0.950 . S
C1042 C1041 1.334 . S
C1042 C1043 1.287 . S
C1043 C1042 1.287 . S
C1043 C1044 1.524 . S
C1043 H1046 0.999 . S
C1044 H1014 0.950 . S
C1044 C1043 1.524 . S
C1044 C1045 1.415 . S
C1045 H1015 0.950 . S
C1045 C1040 1.363 . S
C1045 C1044 1.415 . S
H1046 C1043 0.999 . S
H1047 C1028 0.913 . S
H1048 C1066 0.951 . S
H1049 C1068 0.951 . S
H1050 C1070 0.950 . S
H1051 C1071 0.950 . S
H1052 C1073 0.950 . S
H1053 C1076 0.950 . S
H1054 C1077 0.950 . S
H1055 C1079 0.950 . S
H1056 C1080 0.950 . S
H1057 C1081 0.951 . S
H1058 C1083 0.951 . S
H1059 C1085 0.950 . S
H1060 C1086 0.950 . S
H1061 C1088 0.950 . S
H1062 C1091 0.950 . S
H1063 C1092 0.950 . S
H1064 C1094 0.950 . S
H1065 C1095 0.950 . S
C1066 H1048 0.951 . S
C1066 C1067 1.366 . S
C1066 C1068 1.388 . S
C1067 C1066 1.366 . S
C1067 C1071 1.385 . S
C1068 H1049 0.951 . S
C1068 C1066 1.388 . S
C1068 C1069 1.366 . S
C1069 C1068 1.366 . S
C1069 C1070 1.414 . S
C1069 C1072 1.499 . S
C1070 H1050 0.950 . S
C1070 C1069 1.414 . S
C1070 C1071 1.374 . S
C1071 H1051 0.950 . S
C1071 C1067 1.385 . S
C1071 C1070 1.374 . S
C1072 C1069 1.499 . S
C1072 C1073 1.373 . S
C1072 C1074 1.389 . S
C1073 H1052 0.950 . S
C1073 C1072 1.373 . S
C1073 C1089 1.377 . S
C1074 C1072 1.389 . S
C1074 C1075 1.524 . S
C1074 C1088 1.377 . S
C1075 C1074 1.524 . S
C1075 C1076 1.397 . S
C1075 C1080 1.363 . S
C1076 H1053 0.950 . S
C1076 C1075 1.397 . S
C1076 C1077 1.334 . S
C1077 H1054 0.950 . S
C1077 C1076 1.334 . S
C1077 C1078 1.287 . S
C1078 C1077 1.287 . S
C1078 C1079 1.524 . S
C1078 H1097 0.913 . S
C1079 H1055 0.950 . S
C1079 C1078 1.524 . S
C1079 C1080 1.415 . S
C1080 H1056 0.950 . S
C1080 C1075 1.363 . S
C1080 C1079 1.415 . S
C1081 H1057 0.951 . S
C1081 C1082 1.366 . S
C1081 C1083 1.388 . S
C1082 C1081 1.366 . S
C1082 C1086 1.385 . S
C1083 H1058 0.951 . S
C1083 C1081 1.388 . S
C1083 C1084 1.366 . S
C1084 C1083 1.366 . S
C1084 C1085 1.414 . S
C1084 C1087 1.499 . S
C1085 H1059 0.950 . S
C1085 C1084 1.414 . S
C1085 C1086 1.374 . S
C1086 H1060 0.950 . S
C1086 C1082 1.385 . S
C1086 C1085 1.374 . S
C1087 C1084 1.499 . S
C1087 C1088 1.373 . S
C1087 C1089 1.389 . S
C1088 H1061 0.950 . S
C1088 C1074 1.377 . S
C1088 C1087 1.373 . S
C1089 C1073 1.377 . S
C1089 C1087 1.389 . S
C1089 C1090 1.524 . S
C1090 C1089 1.524 . S
C1090 C1091 1.397 . S
C1090 C1095 1.363 . S
C1091 H1062 0.950 . S
C1091 C1090 1.397 . S
C1091 C1092 1.334 . S
C1092 H1063 0.950 . S
C1092 C1091 1.334 . S
C1092 C1093 1.287 . S
C1093 C1092 1.287 . S
C1093 C1094 1.524 . S
C1093 H1096 0.999 . S
C1094 H1064 0.950 . S
C1094 C1093 1.524 . S
C1094 C1095 1.415 . S
C1095 H1065 0.950 . S
C1095 C1090 1.363 . S
C1095 C1094 1.415 . S
H1096 C1093 0.999 . S
H1097 C1078 0.913 . S
H1098 C1116 0.951 . S
H1099 C1118 0.951 . S
H1100 C1120 0.950 . S
H1101 C1121 0.950 . S
H1102 C1123 0.950 . S
H1103 C1126 0.950 . S
H1104 C1127 0.950 . S
H1105 C1129 0.950 . S
H1106 C1130 0.950 . S
H1107 C1131 0.951 . S
H1108 C1133 0.951 . S
H1109 C1135 0.950 . S
H1110 C1136 0.950 . S
H1111 C1138 0.950 . S
H1112 C1141 0.950 . S
H1113 C1142 0.950 . S
H1114 C1144 0.942 1_565 S
H1115 C1145 0.950 . S
C1116 H1098 0.951 . S
C1116 C1117 1.366 . S
C1116 C1118 1.388 . S
C1117 C1116 1.366 . S
C1117 C1121 1.385 . S
C1118 H1099 0.951 . S
C1118 C1116 1.388 . S
C1118 C1119 1.366 . S
C1119 C1118 1.366 . S
C1119 C1120 1.414 . S
C1119 C1122 1.499 . S
C1120 H1100 0.950 . S
C1120 C1119 1.414 . S
C1120 C1121 1.374 . S
C1121 H1101 0.950 . S
C1121 C1117 1.385 . S
C1121 C1120 1.374 . S
C1122 C1119 1.499 . S
C1122 C1123 1.373 . S
C1122 C1124 1.389 . S
C1123 H1102 0.950 . S
C1123 C1122 1.373 . S
C1123 C1139 1.377 . S
C1124 C1122 1.389 . S
C1124 C1125 1.524 . S
C1124 C1138 1.377 . S
C1125 C1124 1.524 . S
C1125 C1126 1.397 . S
C1125 C1130 1.363 . S
C1126 H1103 0.950 . S
C1126 C1125 1.397 . S
C1126 C1127 1.334 . S
C1127 H1104 0.950 . S
C1127 C1126 1.334 . S
C1127 C1128 1.287 . S
C1128 C1127 1.287 . S
C1128 C1129 1.524 . S
C1128 H1147 0.913 . S
C1129 H1105 0.950 . S
C1129 C1128 1.524 . S
C1129 C1130 1.415 . S
C1130 H1106 0.950 . S
C1130 C1125 1.363 . S
C1130 C1129 1.415 . S
C1131 H1107 0.951 . S
C1131 C1132 1.366 . S
C1131 C1133 1.388 . S
C1132 C1131 1.366 . S
C1132 C1136 1.385 . S
C1133 H1108 0.951 . S
C1133 C1131 1.388 . S
C1133 C1134 1.366 . S
C1134 C1133 1.366 . S
C1134 C1135 1.414 . S
C1134 C1137 1.499 . S
C1135 H1109 0.950 . S
C1135 C1134 1.414 . S
C1135 C1136 1.374 . S
C1136 H1110 0.950 . S
C1136 C1132 1.385 . S
C1136 C1135 1.374 . S
C1137 C1134 1.499 . S
C1137 C1138 1.373 . S
C1137 C1139 1.389 . S
C1138 H1111 0.950 . S
C1138 C1124 1.377 . S
C1138 C1137 1.373 . S
C1139 C1123 1.377 . S
C1139 C1137 1.389 . S
C1139 C1140 1.524 . S
C1140 C1139 1.524 . S
C1140 C1141 1.397 . S
C1140 C1145 1.363 . S
C1141 H1112 0.950 . S
C1141 C1140 1.397 . S
C1141 C1142 1.334 . S
C1142 H1113 0.950 . S
C1142 C1141 1.334 . S
C1142 C1143 1.287 . S
C1143 C1142 1.287 . S
C1143 C1144 1.524 . S
C1143 H1146 0.999 1_545 S
C1144 H1114 0.942 1_545 S
C1144 C1143 1.524 . S
C1144 C1145 1.415 . S
C1145 H1115 0.950 . S
C1145 C1140 1.363 . S
C1145 C1144 1.415 . S
H1146 C1143 0.999 1_565 S
H1147 C1128 0.913 . S
H1148 C1166 0.951 . S
H1149 C1168 0.951 . S
H1150 C1170 0.950 . S
H1151 C1171 0.950 . S
H1152 C1173 0.950 . S
H1153 C1176 0.950 . S
H1154 C1177 0.950 . S
H1155 C1179 0.950 . S
H1156 C1180 0.950 . S
H1157 C1181 0.951 . S
H1158 C1183 0.951 . S
H1159 C1185 0.950 . S
H1160 C1186 0.950 . S
H1161 C1188 0.950 . S
H1162 C1191 0.950 . S
H1163 C1192 0.950 . S
H1164 C1194 0.950 . S
H1165 C1195 0.950 . S
C1166 H1148 0.951 . S
C1166 C1167 1.366 . S
C1166 C1168 1.388 . S
C1167 C1166 1.366 . S
C1167 C1171 1.385 . S
C1168 H1149 0.951 . S
C1168 C1166 1.388 . S
C1168 C1169 1.366 . S
C1169 C1168 1.366 . S
C1169 C1170 1.414 . S
C1169 C1172 1.499 . S
C1170 H1150 0.950 . S
C1170 C1169 1.414 . S
C1170 C1171 1.374 . S
C1171 H1151 0.950 . S
C1171 C1167 1.385 . S
C1171 C1170 1.374 . S
C1172 C1169 1.499 . S
C1172 C1173 1.373 . S
C1172 C1174 1.389 . S
C1173 H1152 0.950 . S
C1173 C1172 1.373 . S
C1173 C1189 1.377 . S
C1174 C1172 1.389 . S
C1174 C1175 1.524 . S
C1174 C1188 1.377 . S
C1175 C1174 1.524 . S
C1175 C1176 1.397 . S
C1175 C1180 1.363 . S
C1176 H1153 0.950 . S
C1176 C1175 1.397 . S
C1176 C1177 1.334 . S
C1177 H1154 0.950 . S
C1177 C1176 1.334 . S
C1177 C1178 1.287 . S
C1178 C1177 1.287 . S
C1178 C1179 1.524 . S
C1178 H1197 0.913 . S
C1179 H1155 0.950 . S
C1179 C1178 1.524 . S
C1179 C1180 1.415 . S
C1180 H1156 0.950 . S
C1180 C1175 1.363 . S
C1180 C1179 1.415 . S
C1181 H1157 0.951 . S
C1181 C1182 1.366 . S
C1181 C1183 1.388 . S
C1182 C1181 1.366 . S
C1182 C1186 1.385 . S
C1183 H1158 0.951 . S
C1183 C1181 1.388 . S
C1183 C1184 1.366 . S
C1184 C1183 1.366 . S
C1184 C1185 1.414 . S
C1184 C1187 1.499 . S
C1185 H1159 0.950 . S
C1185 C1184 1.414 . S
C1185 C1186 1.374 . S
C1186 H1160 0.950 . S
C1186 C1182 1.385 . S
C1186 C1185 1.374 . S
C1187 C1184 1.499 . S
C1187 C1188 1.373 . S
C1187 C1189 1.389 . S
C1188 H1161 0.950 . S
C1188 C1174 1.377 . S
C1188 C1187 1.373 . S
C1189 C1173 1.377 . S
C1189 C1187 1.389 . S
C1189 C1190 1.524 . S
C1190 C1189 1.524 . S
C1190 C1191 1.397 . S
C1190 C1195 1.363 . S
C1191 H1162 0.950 . S
C1191 C1190 1.397 . S
C1191 C1192 1.334 . S
C1192 H1163 0.950 . S
C1192 C1191 1.334 . S
C1192 C1193 1.287 . S
C1193 C1192 1.287 . S
C1193 C1194 1.524 . S
C1193 H1196 0.999 . S
C1194 H1164 0.950 . S
C1194 C1193 1.524 . S
C1194 C1195 1.415 . S
C1195 H1165 0.950 . S
C1195 C1190 1.363 . S
C1195 C1194 1.415 . S
H1196 C1193 0.999 . S
H1197 C1178 0.913 . S
H1198 C1216 0.951 . S
H1199 C1218 0.951 . S
H1200 C1220 0.950 . S
H1201 C1221 0.950 . S
H1202 C1223 0.950 . S
H1203 C1226 0.950 . S
H1204 C1227 0.950 . S
H1205 C1229 0.950 . S
H1206 C1230 0.950 . S
H1207 C1231 0.951 . S
H1208 C1233 0.951 . S
H1209 C1235 0.950 . S
H1210 C1236 0.950 . S
H1211 C1238 0.950 . S
H1212 C1241 0.950 . S
H1213 C1242 0.950 . S
H1214 C1244 0.950 . S
H1215 C1245 0.950 . S
C1216 H1198 0.951 . S
C1216 C1217 1.366 . S
C1216 C1218 1.388 . S
C1217 C1216 1.366 . S
C1217 C1221 1.385 . S
C1218 H1199 0.951 . S
C1218 C1216 1.388 . S
C1218 C1219 1.366 . S
C1219 C1218 1.366 . S
C1219 C1220 1.414 . S
C1219 C1222 1.499 . S
C1220 H1200 0.950 . S
C1220 C1219 1.414 . S
C1220 C1221 1.374 . S
C1221 H1201 0.950 . S
C1221 C1217 1.385 . S
C1221 C1220 1.374 . S
C1222 C1219 1.499 . S
C1222 C1223 1.373 . S
C1222 C1224 1.389 . S
C1223 H1202 0.950 . S
C1223 C1222 1.373 . S
C1223 C1239 1.377 . S
C1224 C1222 1.389 . S
C1224 C1225 1.524 . S
C1224 C1238 1.377 . S
C1225 C1224 1.524 . S
C1225 C1226 1.397 . S
C1225 C1230 1.363 . S
C1226 H1203 0.950 . S
C1226 C1225 1.397 . S
C1226 C1227 1.334 . S
C1227 H1204 0.950 . S
C1227 C1226 1.334 . S
C1227 C1228 1.287 . S
C1228 C1227 1.287 . S
C1228 C1229 1.524 . S
C1228 H1247 0.913 . S
C1229 H1205 0.950 . S
C1229 C1228 1.524 . S
C1229 C1230 1.415 . S
C1230 H1206 0.950 . S
C1230 C1225 1.363 . S
C1230 C1229 1.415 . S
C1231 H1207 0.951 . S
C1231 C1232 1.366 . S
C1231 C1233 1.388 . S
C1232 C1231 1.366 . S
C1232 C1236 1.385 . S
C1233 H1208 0.951 . S
C1233 C1231 1.388 . S
C1233 C1234 1.366 . S
C1234 C1233 1.366 . S
C1234 C1235 1.414 . S
C1234 C1237 1.499 . S
C1235 H1209 0.950 . S
C1235 C1234 1.414 . S
C1235 C1236 1.374 . S
C1236 H1210 0.950 . S
C1236 C1232 1.385 . S
C1236 C1235 1.374 . S
C1237 C1234 1.499 . S
C1237 C1238 1.373 . S
C1237 C1239 1.389 . S
C1238 H1211 0.950 . S
C1238 C1224 1.377 . S
C1238 C1237 1.373 . S
C1239 C1223 1.377 . S
C1239 C1237 1.389 . S
C1239 C1240 1.524 . S
C1240 C1239 1.524 . S
C1240 C1241 1.397 . S
C1240 C1245 1.363 . S
C1241 H1212 0.950 . S
C1241 C1240 1.397 . S
C1241 C1242 1.334 . S
C1242 H1213 0.950 . S
C1242 C1241 1.334 . S
C1242 C1243 1.287 . S
C1243 C1242 1.287 . S
C1243 C1244 1.524 . S
C1243 H1246 0.999 . S
C1244 H1214 0.950 . S
C1244 C1243 1.524 . S
C1244 C1245 1.415 . S
C1245 H1215 0.950 . S
C1245 C1240 1.363 . S
C1245 C1244 1.415 . S
H1246 C1243 0.999 . S
H1247 C1228 0.913 . S
H1248 C1266 0.951 . S
H1249 C1268 0.951 . S
H1250 C1270 0.950 . S
H1251 C1271 0.950 . S
H1252 C1273 0.950 . S
H1253 C1276 0.950 . S
H1254 C1277 0.950 . S
H1255 C1279 0.950 . S
H1256 C1280 0.950 . S
H1257 C1281 0.951 . S
H1258 C1283 0.951 . S
H1259 C1285 0.950 . S
H1260 C1286 0.950 . S
H1261 C1288 0.950 . S
H1262 C1291 0.950 . S
H1263 C1292 0.950 . S
H1264 C1294 0.950 . S
H1265 C1295 0.950 . S
C1266 H1248 0.951 . S
C1266 C1267 1.366 . S
C1266 C1268 1.388 . S
C1267 C1266 1.366 . S
C1267 C1271 1.385 . S
C1268 H1249 0.951 . S
C1268 C1266 1.388 . S
C1268 C1269 1.366 . S
C1269 C1268 1.366 . S
C1269 C1270 1.414 . S
C1269 C1272 1.499 . S
C1270 H1250 0.950 . S
C1270 C1269 1.414 . S
C1270 C1271 1.374 . S
C1271 H1251 0.950 . S
C1271 C1267 1.385 . S
C1271 C1270 1.374 . S
C1272 C1269 1.499 . S
C1272 C1273 1.373 . S
C1272 C1274 1.389 . S
C1273 H1252 0.950 . S
C1273 C1272 1.373 . S
C1273 C1289 1.377 . S
C1274 C1272 1.389 . S
C1274 C1275 1.524 . S
C1274 C1288 1.377 . S
C1275 C1274 1.524 . S
C1275 C1276 1.397 . S
C1275 C1280 1.363 . S
C1276 H1253 0.950 . S
C1276 C1275 1.397 . S
C1276 C1277 1.334 . S
C1277 H1254 0.950 . S
C1277 C1276 1.334 . S
C1277 C1278 1.287 . S
C1278 C1277 1.287 . S
C1278 C1279 1.524 . S
C1278 H1297 0.913 . S
C1279 H1255 0.950 . S
C1279 C1278 1.524 . S
C1279 C1280 1.415 . S
C1280 H1256 0.950 . S
C1280 C1275 1.363 . S
C1280 C1279 1.415 . S
C1281 H1257 0.951 . S
C1281 C1282 1.366 . S
C1281 C1283 1.388 . S
C1282 C1281 1.366 . S
C1282 C1286 1.385 . S
C1283 H1258 0.951 . S
C1283 C1281 1.388 . S
C1283 C1284 1.366 . S
C1284 C1283 1.366 . S
C1284 C1285 1.414 . S
C1284 C1287 1.499 . S
C1285 H1259 0.950 . S
C1285 C1284 1.414 . S
C1285 C1286 1.374 . S
C1286 H1260 0.950 . S
C1286 C1282 1.385 . S
C1286 C1285 1.374 . S
C1287 C1284 1.499 . S
C1287 C1288 1.373 . S
C1287 C1289 1.389 . S
C1288 H1261 0.950 . S
C1288 C1274 1.377 . S
C1288 C1287 1.373 . S
C1289 C1273 1.377 . S
C1289 C1287 1.389 . S
C1289 C1290 1.524 . S
C1290 C1289 1.524 . S
C1290 C1291 1.397 . S
C1290 C1295 1.363 . S
C1291 H1262 0.950 . S
C1291 C1290 1.397 . S
C1291 C1292 1.334 . S
C1292 H1263 0.950 . S
C1292 C1291 1.334 . S
C1292 C1293 1.287 . S
C1293 C1292 1.287 . S
C1293 C1294 1.524 . S
C1293 H1296 0.999 . S
C1294 H1264 0.950 . S
C1294 C1293 1.524 . S
C1294 C1295 1.415 . S
C1295 H1265 0.950 . S
C1295 C1290 1.363 . S
C1295 C1294 1.415 . S
H1296 C1293 0.999 . S
H1297 C1278 0.913 . S
H1298 C1316 0.951 . S
H1299 C1318 0.951 . S
H1300 C1320 0.950 . S
H1301 C1321 0.950 . S
H1302 C1323 0.950 . S
H1303 C1326 0.950 . S
H1304 C1327 0.950 . S
H1305 C1329 0.950 . S
H1306 C1330 0.950 . S
H1307 C1331 0.951 . S
H1308 C1333 0.951 . S
H1309 C1335 0.950 . S
H1310 C1336 0.950 . S
H1311 C1338 0.950 . S
H1312 C1341 0.950 . S
H1313 C1342 0.950 . S
H1314 C1344 0.950 . S
H1315 C1345 0.950 . S
C1316 H1298 0.951 . S
C1316 C1317 1.366 . S
C1316 C1318 1.388 . S
C1317 C1316 1.366 . S
C1317 C1321 1.385 . S
C1318 H1299 0.951 . S
C1318 C1316 1.388 . S
C1318 C1319 1.366 . S
C1319 C1318 1.366 . S
C1319 C1320 1.414 . S
C1319 C1322 1.499 . S
C1320 H1300 0.950 . S
C1320 C1319 1.414 . S
C1320 C1321 1.374 . S
C1321 H1301 0.950 . S
C1321 C1317 1.385 . S
C1321 C1320 1.374 . S
C1322 C1319 1.499 . S
C1322 C1323 1.373 . S
C1322 C1324 1.389 . S
C1323 H1302 0.950 . S
C1323 C1322 1.373 . S
C1323 C1339 1.377 . S
C1324 C1322 1.389 . S
C1324 C1325 1.524 . S
C1324 C1338 1.377 . S
C1325 C1324 1.524 . S
C1325 C1326 1.397 . S
C1325 C1330 1.363 . S
C1326 H1303 0.950 . S
C1326 C1325 1.397 . S
C1326 C1327 1.334 . S
C1327 H1304 0.950 . S
C1327 C1326 1.334 . S
C1327 C1328 1.287 . S
C1328 C1327 1.287 . S
C1328 C1329 1.524 . S
C1328 H1347 0.913 . S
C1329 H1305 0.950 . S
C1329 C1328 1.524 . S
C1329 C1330 1.415 . S
C1330 H1306 0.950 . S
C1330 C1325 1.363 . S
C1330 C1329 1.415 . S
C1331 H1307 0.951 . S
C1331 C1332 1.366 . S
C1331 C1333 1.388 . S
C1332 C1331 1.366 . S
C1332 C1336 1.385 . S
C1333 H1308 0.951 . S
C1333 C1331 1.388 . S
C1333 C1334 1.366 . S
C1334 C1333 1.366 . S
C1334 C1335 1.414 . S
C1334 C1337 1.499 . S
C1335 H1309 0.950 . S
C1335 C1334 1.414 . S
C1335 C1336 1.374 . S
C1336 H1310 0.950 . S
C1336 C1332 1.385 . S
C1336 C1335 1.374 . S
C1337 C1334 1.499 . S
C1337 C1338 1.373 . S
C1337 C1339 1.389 . S
C1338 H1311 0.950 . S
C1338 C1324 1.377 . S
C1338 C1337 1.373 . S
C1339 C1323 1.377 . S
C1339 C1337 1.389 . S
C1339 C1340 1.524 . S
C1340 C1339 1.524 . S
C1340 C1341 1.397 . S
C1340 C1345 1.363 . S
C1341 H1312 0.950 . S
C1341 C1340 1.397 . S
C1341 C1342 1.334 . S
C1342 H1313 0.950 . S
C1342 C1341 1.334 . S
C1342 C1343 1.287 . S
C1343 C1342 1.287 . S
C1343 C1344 1.524 . S
C1343 H1346 0.999 . S
C1344 H1314 0.950 . S
C1344 C1343 1.524 . S
C1344 C1345 1.415 . S
C1345 H1315 0.950 . S
C1345 C1340 1.363 . S
C1345 C1344 1.415 . S
H1346 C1343 0.999 . S
H1347 C1328 0.913 . S
H1348 C1366 0.951 . S
H1349 C1368 0.951 . S
H1350 C1370 0.950 . S
H1351 C1371 0.950 . S
H1352 C1373 0.950 . S
H1353 C1376 0.950 . S
H1354 C1377 0.950 . S
H1355 C1379 0.950 . S
H1356 C1380 0.950 . S
H1357 C1381 0.951 . S
H1358 C1383 0.951 . S
H1359 C1385 0.950 . S
H1360 C1386 0.950 . S
H1361 C1388 0.950 . S
H1362 C1391 0.950 . S
H1363 C1392 0.950 . S
H1364 C1394 0.950 . S
H1365 C1395 0.950 . S
C1366 H1348 0.951 . S
C1366 C1367 1.366 . S
C1366 C1368 1.388 . S
C1367 C1366 1.366 . S
C1367 C1371 1.385 . S
C1368 H1349 0.951 . S
C1368 C1366 1.388 . S
C1368 C1369 1.366 . S
C1369 C1368 1.366 . S
C1369 C1370 1.414 . S
C1369 C1372 1.499 . S
C1370 H1350 0.950 . S
C1370 C1369 1.414 . S
C1370 C1371 1.374 . S
C1371 H1351 0.950 . S
C1371 C1367 1.385 . S
C1371 C1370 1.374 . S
C1372 C1369 1.499 . S
C1372 C1373 1.373 . S
C1372 C1374 1.389 . S
C1373 H1352 0.950 . S
C1373 C1372 1.373 . S
C1373 C1389 1.377 . S
C1374 C1372 1.389 . S
C1374 C1375 1.524 . S
C1374 C1388 1.377 . S
C1375 C1374 1.524 . S
C1375 C1376 1.397 . S
C1375 C1380 1.363 . S
C1376 H1353 0.950 . S
C1376 C1375 1.397 . S
C1376 C1377 1.334 . S
C1377 H1354 0.950 . S
C1377 C1376 1.334 . S
C1377 C1378 1.287 . S
C1378 C1377 1.287 . S
C1378 C1379 1.524 . S
C1378 H1397 0.913 . S
C1379 H1355 0.950 . S
C1379 C1378 1.524 . S
C1379 C1380 1.415 . S
C1380 H1356 0.950 . S
C1380 C1375 1.363 . S
C1380 C1379 1.415 . S
C1381 H1357 0.951 . S
C1381 C1382 1.366 . S
C1381 C1383 1.388 . S
C1382 C1381 1.366 . S
C1382 C1386 1.385 . S
C1383 H1358 0.951 . S
C1383 C1381 1.388 . S
C1383 C1384 1.366 . S
C1384 C1383 1.366 . S
C1384 C1385 1.414 . S
C1384 C1387 1.499 . S
C1385 H1359 0.950 . S
C1385 C1384 1.414 . S
C1385 C1386 1.374 . S
C1386 H1360 0.950 . S
C1386 C1382 1.385 . S
C1386 C1385 1.374 . S
C1387 C1384 1.499 . S
C1387 C1388 1.373 . S
C1387 C1389 1.389 . S
C1388 H1361 0.950 . S
C1388 C1374 1.377 . S
C1388 C1387 1.373 . S
C1389 C1373 1.377 . S
C1389 C1387 1.389 . S
C1389 C1390 1.524 . S
C1390 C1389 1.524 . S
C1390 C1391 1.397 . S
C1390 C1395 1.363 . S
C1391 H1362 0.950 . S
C1391 C1390 1.397 . S
C1391 C1392 1.334 . S
C1392 H1363 0.950 . S
C1392 C1391 1.334 . S
C1392 C1393 1.287 1_554 S
C1393 C1392 1.287 1_556 S
C1393 C1394 1.524 . S
C1393 H1396 0.999 . S
C1394 H1364 0.950 . S
C1394 C1393 1.524 . S
C1394 C1395 1.415 1_556 S
C1395 H1365 0.950 . S
C1395 C1390 1.363 . S
C1395 C1394 1.415 1_554 S
H1396 C1393 0.999 . S
H1397 C1378 0.913 . S
H1398 C1416 0.951 . S
H1399 C1418 0.951 . S
H1400 C1420 0.950 . S
H1401 C1421 0.950 . S
H1402 C1423 0.950 . S
H1403 C1426 0.950 . S
H1404 C1427 0.950 . S
H1405 C1429 0.950 . S
H1406 C1430 0.950 . S
H1407 C1431 0.951 . S
H1408 C1433 0.951 . S
H1409 C1435 0.950 . S
H1410 C1436 0.950 . S
H1411 C1438 0.950 . S
H1412 C1441 0.950 . S
H1413 C1442 0.950 . S
H1414 C1444 0.950 . S
H1415 C1445 0.950 . S
C1416 H1398 0.951 . S
C1416 C1417 1.366 . S
C1416 C1418 1.388 . S
C1417 C1416 1.366 . S
C1417 C1421 1.385 . S
C1418 H1399 0.951 . S
C1418 C1416 1.388 . S
C1418 C1419 1.366 . S
C1419 C1418 1.366 . S
C1419 C1420 1.414 . S
C1419 C1422 1.499 . S
C1420 H1400 0.950 . S
C1420 C1419 1.414 . S
C1420 C1421 1.374 . S
C1421 H1401 0.950 . S
C1421 C1417 1.385 . S
C1421 C1420 1.374 . S
C1422 C1419 1.499 . S
C1422 C1423 1.373 . S
C1422 C1424 1.389 . S
C1423 H1402 0.950 . S
C1423 C1422 1.373 . S
C1423 C1439 1.377 . S
C1424 C1422 1.389 . S
C1424 C1425 1.524 . S
C1424 C1438 1.377 . S
C1425 C1424 1.524 . S
C1425 C1426 1.397 . S
C1425 C1430 1.363 . S
C1426 H1403 0.950 . S
C1426 C1425 1.397 . S
C1426 C1427 1.334 . S
C1427 H1404 0.950 . S
C1427 C1426 1.334 . S
C1427 C1428 1.287 . S
C1428 C1427 1.287 . S
C1428 C1429 1.524 . S
C1428 H1447 0.913 . S
C1429 H1405 0.950 . S
C1429 C1428 1.524 . S
C1429 C1430 1.415 . S
C1430 H1406 0.950 . S
C1430 C1425 1.363 . S
C1430 C1429 1.415 . S
C1431 H1407 0.951 . S
C1431 C1432 1.366 . S
C1431 C1433 1.388 . S
C1432 C1431 1.366 . S
C1432 C1436 1.385 . S
C1433 H1408 0.951 . S
C1433 C1431 1.388 . S
C1433 C1434 1.366 . S
C1434 C1433 1.366 . S
C1434 C1435 1.414 . S
C1434 C1437 1.499 . S
C1435 H1409 0.950 . S
C1435 C1434 1.414 . S
C1435 C1436 1.374 . S
C1436 H1410 0.950 . S
C1436 C1432 1.385 . S
C1436 C1435 1.374 . S
C1437 C1434 1.499 . S
C1437 C1438 1.373 . S
C1437 C1439 1.389 . S
C1438 H1411 0.950 . S
C1438 C1424 1.377 . S
C1438 C1437 1.373 . S
C1439 C1423 1.377 . S
C1439 C1437 1.389 . S
C1439 C1440 1.524 . S
C1440 C1439 1.524 . S
C1440 C1441 1.397 . S
C1440 C1445 1.363 . S
C1441 H1412 0.950 . S
C1441 C1440 1.397 . S
C1441 C1442 1.334 . S
C1442 H1413 0.950 . S
C1442 C1441 1.334 . S
C1442 C1443 1.287 . S
C1443 C1442 1.287 . S
C1443 C1444 1.524 . S
C1443 H1446 0.999 . S
C1444 H1414 0.950 . S
C1444 C1443 1.524 . S
C1444 C1445 1.415 . S
C1445 H1415 0.950 . S
C1445 C1440 1.363 . S
C1445 C1444 1.415 . S
H1446 C1443 0.999 . S
H1447 C1428 0.913 . S
H1448 C1466 0.951 . S
H1449 C1468 0.951 . S
H1450 C1470 0.950 . S
H1451 C1471 0.950 . S
H1452 C1473 0.950 . S
H1453 C1476 0.950 . S
H1454 C1477 0.950 . S
H1455 C1479 0.950 . S
H1456 C1480 0.950 . S
H1457 C1481 0.951 . S
H1458 C1483 0.951 . S
H1459 C1485 0.950 . S
H1460 C1486 0.950 . S
H1461 C1488 0.950 . S
H1462 C1491 0.950 . S
H1463 C1492 0.950 . S
H1464 C1494 0.950 . S
H1465 C1495 0.950 . S
C1466 H1448 0.951 . S
C1466 C1467 1.366 . S
C1466 C1468 1.388 . S
C1467 C1466 1.366 . S
C1467 C1471 1.385 . S
C1468 H1449 0.951 . S
C1468 C1466 1.388 . S
C1468 C1469 1.366 . S
C1469 C1468 1.366 . S
C1469 C1470 1.414 . S
C1469 C1472 1.499 . S
C1470 H1450 0.950 . S
C1470 C1469 1.414 . S
C1470 C1471 1.374 . S
C1471 H1451 0.950 . S
C1471 C1467 1.385 . S
C1471 C1470 1.374 . S
C1472 C1469 1.499 . S
C1472 C1473 1.373 . S
C1472 C1474 1.389 . S
C1473 H1452 0.950 . S
C1473 C1472 1.373 . S
C1473 C1489 1.377 . S
C1474 C1472 1.389 . S
C1474 C1475 1.524 . S
C1474 C1488 1.377 . S
C1475 C1474 1.524 . S
C1475 C1476 1.397 . S
C1475 C1480 1.363 . S
C1476 H1453 0.950 . S
C1476 C1475 1.397 . S
C1476 C1477 1.334 . S
C1477 H1454 0.950 . S
C1477 C1476 1.334 . S
C1477 C1478 1.287 . S
C1478 C1477 1.287 . S
C1478 C1479 1.524 . S
C1478 H1497 0.913 . S
C1479 H1455 0.950 . S
C1479 C1478 1.524 . S
C1479 C1480 1.415 . S
C1480 H1456 0.950 . S
C1480 C1475 1.363 . S
C1480 C1479 1.415 . S
C1481 H1457 0.951 . S
C1481 C1482 1.366 . S
C1481 C1483 1.388 . S
C1482 C1481 1.366 . S
C1482 C1486 1.385 . S
C1483 H1458 0.951 . S
C1483 C1481 1.388 . S
C1483 C1484 1.366 . S
C1484 C1483 1.366 . S
C1484 C1485 1.414 . S
C1484 C1487 1.499 . S
C1485 H1459 0.950 . S
C1485 C1484 1.414 . S
C1485 C1486 1.374 . S
C1486 H1460 0.950 . S
C1486 C1482 1.385 . S
C1486 C1485 1.374 . S
C1487 C1484 1.499 . S
C1487 C1488 1.373 . S
C1487 C1489 1.389 . S
C1488 H1461 0.950 . S
C1488 C1474 1.377 . S
C1488 C1487 1.373 . S
C1489 C1473 1.377 . S
C1489 C1487 1.389 . S
C1489 C1490 1.524 . S
C1490 C1489 1.524 . S
C1490 C1491 1.397 . S
C1490 C1495 1.363 . S
C1491 H1462 0.950 . S
C1491 C1490 1.397 . S
C1491 C1492 1.334 . S
C1492 H1463 0.950 . S
C1492 C1491 1.334 . S
C1492 C1493 1.287 . S
C1493 C1492 1.287 . S
C1493 C1494 1.524 . S
C1493 H1496 0.999 . S
C1494 H1464 0.950 . S
C1494 C1493 1.524 . S
C1494 C1495 1.415 . S
C1495 H1465 0.950 . S
C1495 C1490 1.363 . S
C1495 C1494 1.415 . S
H1496 C1493 0.999 . S
H1497 C1478 0.913 . S
H1498 C1516 0.951 . S
H1499 C1518 0.951 . S
H1500 C1520 0.950 . S
H1501 C1521 0.950 . S
H1502 C1523 0.950 . S
H1503 C1526 0.950 . S
H1504 C1527 0.950 . S
H1505 C1529 0.950 . S
H1506 C1530 0.950 . S
H1507 C1531 0.951 . S
H1508 C1533 0.951 . S
H1509 C1535 0.950 . S
H1510 C1536 0.950 . S
H1511 C1538 0.950 . S
H1512 C1541 0.950 . S
H1513 C1542 0.950 1_556 S
H1514 C1544 0.950 . S
H1515 C1545 0.950 . S
C1516 H1498 0.951 . S
C1516 C1517 1.366 . S
C1516 C1518 1.388 . S
C1517 C1516 1.366 . S
C1517 C1521 1.385 . S
C1518 H1499 0.951 . S
C1518 C1516 1.388 . S
C1518 C1519 1.366 . S
C1519 C1518 1.366 . S
C1519 C1520 1.414 . S
C1519 C1522 1.499 . S
C1520 H1500 0.950 . S
C1520 C1519 1.414 . S
C1520 C1521 1.374 . S
C1521 H1501 0.950 . S
C1521 C1517 1.385 . S
C1521 C1520 1.374 . S
C1522 C1519 1.499 . S
C1522 C1523 1.373 . S
C1522 C1524 1.389 . S
C1523 H1502 0.950 . S
C1523 C1522 1.373 . S
C1523 C1539 1.377 . S
C1524 C1522 1.389 . S
C1524 C1525 1.524 . S
C1524 C1538 1.377 . S
C1525 C1524 1.524 . S
C1525 C1526 1.397 . S
C1525 C1530 1.363 . S
C1526 H1503 0.950 . S
C1526 C1525 1.397 . S
C1526 C1527 1.334 . S
C1527 H1504 0.950 . S
C1527 C1526 1.334 . S
C1527 C1528 1.287 . S
C1528 C1527 1.287 . S
C1528 C1529 1.524 . S
C1528 H1547 0.913 . S
C1529 H1505 0.950 . S
C1529 C1528 1.524 . S
C1529 C1530 1.415 . S
C1530 H1506 0.950 . S
C1530 C1525 1.363 . S
C1530 C1529 1.415 . S
C1531 H1507 0.951 . S
C1531 C1532 1.366 . S
C1531 C1533 1.388 . S
C1532 C1531 1.366 . S
C1532 C1536 1.385 . S
C1533 H1508 0.951 . S
C1533 C1531 1.388 . S
C1533 C1534 1.366 . S
C1534 C1533 1.366 . S
C1534 C1535 1.414 . S
C1534 C1537 1.499 . S
C1535 H1509 0.950 . S
C1535 C1534 1.414 . S
C1535 C1536 1.374 . S
C1536 H1510 0.950 . S
C1536 C1532 1.385 . S
C1536 C1535 1.374 . S
C1537 C1534 1.499 . S
C1537 C1538 1.373 . S
C1537 C1539 1.389 . S
C1538 H1511 0.950 . S
C1538 C1524 1.377 . S
C1538 C1537 1.373 . S
C1539 C1523 1.377 . S
C1539 C1537 1.389 . S
C1539 C1540 1.524 . S
C1540 C1539 1.524 . S
C1540 C1541 1.397 . S
C1540 C1545 1.363 . S
C1541 H1512 0.950 . S
C1541 C1540 1.397 . S
C1541 C1542 1.334 . S
C1542 H1513 0.950 1_554 S
C1542 C1541 1.334 . S
C1542 C1543 1.287 . S
C1543 C1542 1.287 . S
C1543 C1544 1.524 . S
C1543 H1546 0.999 1_554 S
C1544 H1514 0.950 . S
C1544 C1543 1.524 . S
C1544 C1545 1.415 . S
C1545 H1515 0.950 . S
C1545 C1540 1.363 . S
C1545 C1544 1.415 . S
H1546 C1543 0.999 1_556 S
H1547 C1528 0.913 . S
H1548 C1566 0.951 . S
H1549 C1568 0.951 . S
H1550 C1570 0.950 . S
H1551 C1571 0.950 . S
H1552 C1573 0.950 . S
H1553 C1576 0.950 . S
H1554 C1577 0.950 . S
H1555 C1579 0.950 . S
H1556 C1580 0.950 . S
H1557 C1581 0.951 . S
H1558 C1583 0.951 . S
H1559 C1585 0.950 . S
H1560 C1586 0.950 . S
H1561 C1588 0.950 . S
H1562 C1591 0.950 . S
H1563 C1592 0.950 . S
H1564 C1594 0.950 . S
H1565 C1595 0.950 . S
C1566 H1548 0.951 . S
C1566 C1567 1.366 . S
C1566 C1568 1.388 . S
C1567 C1566 1.366 . S
C1567 C1571 1.385 . S
C1568 H1549 0.951 . S
C1568 C1566 1.388 . S
C1568 C1569 1.366 . S
C1569 C1568 1.366 . S
C1569 C1570 1.414 . S
C1569 C1572 1.499 . S
C1570 H1550 0.950 . S
C1570 C1569 1.414 . S
C1570 C1571 1.374 . S
C1571 H1551 0.950 . S
C1571 C1567 1.385 . S
C1571 C1570 1.374 . S
C1572 C1569 1.499 . S
C1572 C1573 1.373 . S
C1572 C1574 1.389 . S
C1573 H1552 0.950 . S
C1573 C1572 1.373 . S
C1573 C1589 1.377 . S
C1574 C1572 1.389 . S
C1574 C1575 1.524 . S
C1574 C1588 1.377 . S
C1575 C1574 1.524 . S
C1575 C1576 1.397 . S
C1575 C1580 1.363 . S
C1576 H1553 0.950 . S
C1576 C1575 1.397 . S
C1576 C1577 1.334 . S
C1577 H1554 0.950 . S
C1577 C1576 1.334 . S
C1577 C1578 1.287 . S
C1578 C1577 1.287 . S
C1578 C1579 1.524 . S
C1578 H1597 0.913 . S
C1579 H1555 0.950 . S
C1579 C1578 1.524 . S
C1579 C1580 1.415 . S
C1580 H1556 0.950 . S
C1580 C1575 1.363 . S
C1580 C1579 1.415 . S
C1581 H1557 0.951 . S
C1581 C1582 1.366 . S
C1581 C1583 1.388 . S
C1582 C1581 1.366 . S
C1582 C1586 1.385 . S
C1583 H1558 0.951 . S
C1583 C1581 1.388 . S
C1583 C1584 1.366 . S
C1584 C1583 1.366 . S
C1584 C1585 1.414 . S
C1584 C1587 1.499 . S
C1585 H1559 0.950 . S
C1585 C1584 1.414 . S
C1585 C1586 1.374 . S
C1586 H1560 0.950 . S
C1586 C1582 1.385 . S
C1586 C1585 1.374 . S
C1587 C1584 1.499 . S
C1587 C1588 1.373 . S
C1587 C1589 1.389 . S
C1588 H1561 0.950 . S
C1588 C1574 1.377 . S
C1588 C1587 1.373 . S
C1589 C1573 1.377 . S
C1589 C1587 1.389 . S
C1589 C1590 1.524 . S
C1590 C1589 1.524 . S
C1590 C1591 1.397 . S
C1590 C1595 1.363 . S
C1591 H1562 0.950 . S
C1591 C1590 1.397 . S
C1591 C1592 1.334 . S
C1592 H1563 0.950 . S
C1592 C1591 1.334 . S
C1592 C1593 1.287 1_455 S
C1593 C1592 1.287 1_655 S
C1593 C1594 1.524 . S
C1593 H1596 0.999 . S
C1594 H1564 0.950 . S
C1594 C1593 1.524 . S
C1594 C1595 1.415 1_655 S
C1595 H1565 0.950 . S
C1595 C1590 1.363 . S
C1595 C1594 1.415 1_455 S
H1596 C1593 0.999 . S
H1597 C1578 0.913 . S
H1598 C1616 0.951 . S
H1599 C1618 0.951 . S
H1600 C1620 0.950 . S
H1601 C1621 0.950 . S
H1602 C1623 0.950 . S
H1603 C1626 0.950 . S
H1604 C1627 0.950 . S
H1605 C1629 0.950 . S
H1606 C1630 0.950 . S
H1607 C1631 0.951 . S
H1608 C1633 0.951 . S
H1609 C1635 0.950 . S
H1610 C1636 0.950 . S
H1611 C1638 0.950 . S
H1612 C1641 0.950 . S
H1613 C1642 0.950 . S
H1614 C1644 0.950 . S
H1615 C1645 0.950 . S
C1616 H1598 0.951 . S
C1616 C1617 1.366 . S
C1616 C1618 1.388 . S
C1617 C1616 1.366 . S
C1617 C1621 1.385 . S
C1618 H1599 0.951 . S
C1618 C1616 1.388 . S
C1618 C1619 1.366 . S
C1619 C1618 1.366 . S
C1619 C1620 1.414 . S
C1619 C1622 1.499 . S
C1620 H1600 0.950 . S
C1620 C1619 1.414 . S
C1620 C1621 1.374 . S
C1621 H1601 0.950 . S
C1621 C1617 1.385 . S
C1621 C1620 1.374 . S
C1622 C1619 1.499 . S
C1622 C1623 1.373 . S
C1622 C1624 1.389 . S
C1623 H1602 0.950 . S
C1623 C1622 1.373 . S
C1623 C1639 1.377 . S
C1624 C1622 1.389 . S
C1624 C1625 1.524 . S
C1624 C1638 1.377 . S
C1625 C1624 1.524 . S
C1625 C1626 1.397 . S
C1625 C1630 1.363 . S
C1626 H1603 0.950 . S
C1626 C1625 1.397 . S
C1626 C1627 1.334 . S
C1627 H1604 0.950 . S
C1627 C1626 1.334 . S
C1627 C1628 1.287 . S
C1628 C1627 1.287 . S
C1628 C1629 1.524 . S
C1628 H1647 0.913 . S
C1629 H1605 0.950 . S
C1629 C1628 1.524 . S
C1629 C1630 1.415 . S
C1630 H1606 0.950 . S
C1630 C1625 1.363 . S
C1630 C1629 1.415 . S
C1631 H1607 0.951 . S
C1631 C1632 1.366 . S
C1631 C1633 1.388 . S
C1632 C1631 1.366 . S
C1632 C1636 1.385 . S
C1633 H1608 0.951 . S
C1633 C1631 1.388 . S
C1633 C1634 1.366 . S
C1634 C1633 1.366 . S
C1634 C1635 1.414 . S
C1634 C1637 1.499 . S
C1635 H1609 0.950 . S
C1635 C1634 1.414 . S
C1635 C1636 1.374 . S
C1636 H1610 0.950 . S
C1636 C1632 1.385 . S
C1636 C1635 1.374 . S
C1637 C1634 1.499 . S
C1637 C1638 1.373 . S
C1637 C1639 1.389 . S
C1638 H1611 0.950 . S
C1638 C1624 1.377 . S
C1638 C1637 1.373 . S
C1639 C1623 1.377 . S
C1639 C1637 1.389 . S
C1639 C1640 1.524 . S
C1640 C1639 1.524 . S
C1640 C1641 1.397 . S
C1640 C1645 1.363 . S
C1641 H1612 0.950 . S
C1641 C1640 1.397 . S
C1641 C1642 1.334 . S
C1642 H1613 0.950 . S
C1642 C1641 1.334 . S
C1642 C1643 1.287 . S
C1643 C1642 1.287 . S
C1643 C1644 1.524 . S
C1643 H1646 0.999 . S
C1644 H1614 0.950 . S
C1644 C1643 1.524 . S
C1644 C1645 1.415 . S
C1645 H1615 0.950 . S
C1645 C1640 1.363 . S
C1645 C1644 1.415 . S
H1646 C1643 0.999 . S
H1647 C1628 0.913 . S
C467 C1 1.261 . S
C482 C295 1.281 . S
C517 C67 0.967 . S
C532 C344 0.964 . S
C582 C370 2.395 . S
C567 C97 2.414 . S
C617 C133 2.325 . S
C632 C418 2.267 . S
C682 C330 2.522 . S
C667 C25 2.475 . S
C732 C298 0.910 . S
C717 C37 0.931 . S
C782 C419 1.858 . S
C767 C103 1.886 . S
C832 C387 1.474 . S
C817 C109 1.501 . S
C867 C31 1.764 . S
C882 C415 1.798 . S
C932 C347 2.291 . S
C917 C73 2.358 . S
C967 C139 2.344 . S
C982 C299 2.339 . S
C1017 C61 0.749 . S
C1032 C384 0.749 . S
C1082 C304 1.284 . S
C1067 C175 1.225 . S
C1117 C181 0.944 . S
C1132 C335 0.945 . S
C1167 C247 2.439 . S
C1182 C379 2.418 . S
C1217 C277 2.312 . S
C1232 C427 2.254 . S
C1267 C145 2.395 . S
C1282 C339 2.510 . S
C1332 C307 0.913 . S
C1317 C211 0.931 . S
C1382 C410 1.845 . S
C1367 C217 1.864 . S
C1432 C378 1.494 . S
C1417 C283 1.521 . S
C1467 C169 1.700 . S
C1482 C424 1.791 . S
C1532 C338 2.298 . S
C1517 C241 2.360 . S
C1582 C290 2.324 . S
C1567 C253 2.330 . S
C1617 C205 0.759 . S
C1632 C375 0.760 . S
