# Generated by pormake.
# Topology tsx, (6,3)-cn, num edge types: 1
# Building blocks:
#     Node 0, Type 0, BuildingBlock: FUNLAD_clean_sbu_0, # of connection points: 6
#     Node 1, Type 0, BuildingBlock: FUNLAD_clean_sbu_0, # of connection points: 6
#     Node 2, Type 1, BuildingBlock: KAKCAD_clean_linker_0, # of connection points: 3
#     Node 3, Type 1, BuildingBlock: KAKCAD_clean_linker_0, # of connection points: 3
#     Node 4, Type 1, BuildingBlock: KAKCAD_clean_linker_0, # of connection points: 3
#     Node 5, Type 1, BuildingBlock: KAKCAD_clean_linker_0, # of connection points: 3
#     Edge 6, Type (0, 1), BuildingBlock: CIFDUS_clean_linker_0, # of connection points: 2
#     Edge 7, Type (0, 1), BuildingBlock: CIFDUS_clean_linker_0, # of connection points: 2
#     Edge 8, Type (0, 1), BuildingBlock: CIFDUS_clean_linker_0, # of connection points: 2
#     Edge 9, Type (0, 1), BuildingBlock: CIFDUS_clean_linker_0, # of connection points: 2
#     Edge 10, Type (0, 1), BuildingBlock: CIFDUS_clean_linker_0, # of connection points: 2
#     Edge 11, Type (0, 1), BuildingBlock: CIFDUS_clean_linker_0, # of connection points: 2
#     Edge 12, Type (0, 1), BuildingBlock: CIFDUS_clean_linker_0, # of connection points: 2
#     Edge 13, Type (0, 1), BuildingBlock: CIFDUS_clean_linker_0, # of connection points: 2
#     Edge 14, Type (0, 1), BuildingBlock: CIFDUS_clean_linker_0, # of connection points: 2
#     Edge 15, Type (0, 1), BuildingBlock: CIFDUS_clean_linker_0, # of connection points: 2
#     Edge 16, Type (0, 1), BuildingBlock: CIFDUS_clean_linker_0, # of connection points: 2
#     Edge 17, Type (0, 1), BuildingBlock: CIFDUS_clean_linker_0, # of connection points: 2
# Relax obj value: 0.164
# Max RMSD: 0.154
# Mean RMSD: 0.085
data_MOF--net-tsx--node1-FUNLAD_clean_sbu_0--node2-KAKCAD_clean_linker_0--edge1-CIFDUS_clean_linker_0
_symmetry_space_group_name_H-M    P1
_symmetry_Int_Tables_number       1
_symmetry_cell_setting            triclinic
loop_
_symmetry_equiv_pos_as_xyz
'x, y, z'
_cell_length_a     20.89727
_cell_length_b     23.168834
_cell_length_c     45.745779
_cell_angle_alpha  91.30809
_cell_angle_beta   91.955973
_cell_angle_gamma 89.836879
loop_
_atom_site_label
_atom_site_type_symbol
_atom_site_fract_x
_atom_site_fract_y
_atom_site_fract_z
_atom_type_partial_charge
C0 C 0.93278 0.93139 0.99515 0.0
N1 N 0.02174 -0.00072 0.07092 0.0
C2 C 0.96461 -0.00199 0.08429 0.0
C3 C 0.96273 -0.0027 0.11474 0.0
C4 C 0.02021 -0.00258 0.13153 0.0
C5 C 0.07848 0.99673 0.11714 0.0
C6 C 0.07815 -0.00207 0.08665 0.0
Zn7 Zn 0.02278 0.00923 0.0268 0.0
C8 C 0.11818 0.93437 0.99773 0.0
N9 N 0.02535 0.03597 0.93513 0.0
C10 C 0.96879 0.04059 0.91976 0.0
C11 C 0.08231 0.03938 0.92172 0.0
C12 C 0.08379 0.04727 0.89158 0.0
C13 C 0.0261 0.05157 0.87511 0.0
C14 C 0.96806 0.04848 0.88961 0.0
Zn15 Zn 0.02432 0.02436 0.97915 0.0
O16 O 0.95756 0.94237 0.02033 0.0
C17 C 0.92952 0.09979 0.00698 0.0
O18 O 0.94946 0.96039 0.97335 0.0
H19 H 0.12671 0.03561 0.93438 0.0
H20 H 0.92035 -0.00111 0.07135 0.0
H21 H 0.9241 0.0381 0.93089 0.0
O22 O 0.94572 0.07095 0.02938 0.0
O23 O 0.9562 0.08966 0.98294 0.0
H24 H 0.12299 -0.0006 0.07558 0.0
O25 O 0.09771 0.08772 0.98595 0.0
O26 O 0.08871 0.07668 0.03311 0.0
O27 O 0.09353 0.95948 0.97568 0.0
O28 O 0.09898 0.94755 0.02314 0.0
C29 C 0.11372 0.10235 0.01213 0.0
H30 H 0.91684 -0.00282 0.12505 0.0
H31 H 0.12381 -0.00266 0.12935 0.0
H32 H 0.12956 0.04875 0.88121 0.0
H33 H 0.9225 0.05233 0.87781 0.0
C34 C 0.4263 0.37953 0.50754 0.0
N35 N 0.51114 0.47391 0.57779 0.0
C36 C 0.45456 0.47007 0.59147 0.0
C37 C 0.45339 0.47026 0.62196 0.0
C38 C 0.51103 0.4741 0.63863 0.0
C39 C 0.56875 0.47776 0.62388 0.0
C40 C 0.56769 0.47774 0.59333 0.0
Zn41 Zn 0.51061 0.47374 0.53311 0.0
C42 C 0.61134 0.39864 0.50888 0.0
N43 N 0.50597 0.47289 0.43957 0.0
C44 C 0.45096 0.47207 0.42274 0.0
C45 C 0.56418 0.47681 0.4273 0.0
C46 C 0.56879 0.47988 0.39706 0.0
C47 C 0.51297 0.47958 0.37916 0.0
C48 C 0.45338 0.47573 0.3923 0.0
Zn49 Zn 0.50467 0.47193 0.48431 0.0
O50 O 0.44834 0.40247 0.53129 0.0
C51 C 0.40426 0.54684 0.50853 0.0
O52 O 0.44172 0.39985 0.48317 0.0
H53 H 0.60734 0.47831 0.44101 0.0
H54 H 0.41014 0.46706 0.5787 0.0
H55 H 0.40518 0.46905 0.43293 0.0
O56 O 0.43156 0.53213 0.53247 0.0
O57 O 0.42467 0.52752 0.48437 0.0
H58 H 0.61213 0.48068 0.58202 0.0
O59 O 0.56679 0.5447 0.48617 0.0
O60 O 0.57274 0.54473 0.53413 0.0
O61 O 0.58481 0.41564 0.48519 0.0
O62 O 0.58962 0.41594 0.53316 0.0
C63 C 0.58823 0.56676 0.51022 0.0
H64 H 0.40766 0.46825 0.63233 0.0
H65 H 0.61441 0.48001 0.63577 0.0
H66 H 0.61561 0.48357 0.38782 0.0
H67 H 0.40926 0.47502 0.37916 0.0
C68 C 0.05555 0.93472 0.32185 0.0
C69 C 0.0621 0.98442 0.30529 0.0
C70 C 0.05372 0.93895 0.35229 0.0
C71 C 0.05934 0.99294 0.36689 0.0
C72 C 0.06661 0.04264 0.35022 0.0
C73 C 0.06759 0.03843 0.31971 0.0
C74 C 0.05602 -0.00291 0.39932 0.0
C75 C 0.0832 0.95385 0.41674 0.0
C76 C 0.07525 0.95377 0.44716 0.0
C77 C 0.04176 -0.00038 0.46041 0.0
C78 C 0.01661 0.04457 0.44333 0.0
C79 C 0.02348 0.04276 0.41292 0.0
C80 C 0.97988 0.09252 0.45645 0.0
C81 C 0.92374 0.08142 0.47128 0.0
C82 C 0.99653 0.1498 0.45095 0.0
C83 C 0.95618 0.19513 0.45897 0.0
C84 C 0.89837 0.18398 0.47258 0.0
C85 C 0.10255 0.90529 0.46439 0.0
C86 C 0.1019 0.84908 0.45221 0.0
C87 C 0.13392 0.91495 0.49171 0.0
C88 C 0.16741 0.87011 0.50554 0.0
C89 C 0.17121 0.81487 0.49207 0.0
C90 C 0.13647 0.80488 0.46553 0.0
C91 C 0.8835 0.12685 0.47952 0.0
H92 H 0.05033 0.89266 0.31121 0.0
H93 H 0.04658 0.89988 0.3643 0.0
H94 H 0.07197 0.08479 0.36072 0.0
H95 H 0.07327 0.07735 0.30738 0.0
H96 H 0.1112 0.92009 0.40648 0.0
H97 H 0.00115 0.07606 0.39976 0.0
H98 H 0.03488 0.00028 0.48378 0.0
H99 H 0.90911 0.03744 0.47492 0.0
H100 H 0.03975 0.15926 0.43956 0.0
H101 H 0.96918 0.23881 0.45368 0.0
H102 H 0.07667 0.83958 0.43159 0.0
H103 H 0.13523 0.95768 0.50173 0.0
H104 H 0.83889 0.11693 0.48967 0.0
H105 H 0.13829 0.76371 0.45396 0.0
H106 H 0.19194 0.87943 0.52632 0.0
C107 C 0.99104 0.08844 0.6858 0.0
C108 C 0.98829 0.03615 0.70074 0.0
C109 C 0.98727 0.08853 0.65516 0.0
C110 C 0.98065 0.03635 0.63909 0.0
C111 C 0.98104 0.98411 0.65409 0.0
C112 C 0.98477 0.98402 0.68453 0.0
C113 C 0.97013 0.03552 0.60689 0.0
C114 C 0.00904 0.0673 0.5888 0.0
C115 C 0.00158 0.06177 0.55823 0.0
C116 C 0.95513 0.02442 0.54569 0.0
C117 C 0.91456 0.99404 0.5636 0.0
C118 C 0.92221 6e-05 0.59408 0.0
C119 C 0.86685 0.95244 0.55131 0.0
C120 C 0.80473 0.95261 0.56203 0.0
C121 C 0.88551 0.90739 0.53236 0.0
C122 C 0.84451 0.86063 0.52636 0.0
C123 C 0.78441 0.85855 0.53922 0.0
C124 C 0.04537 0.0927 0.53968 0.0
C125 C 0.02937 0.14766 0.52952 0.0
C126 C 0.10612 0.06968 0.53472 0.0
C127 C 0.15172 0.10241 0.52098 0.0
C128 C 0.13742 0.15902 0.51239 0.0
C129 C 0.07516 0.18069 0.51591 0.0
C130 C 0.76387 0.90614 0.55602 0.0
H131 H 0.99368 0.12927 0.69778 0.0
H132 H 0.98709 0.12938 0.6441 0.0
H133 H 0.97758 0.94315 0.64224 0.0
H134 H 0.98415 0.943 0.69542 0.0
H135 H 0.04652 0.09471 0.59839 0.0
H136 H 0.89178 0.97556 0.60797 0.0
H137 H 0.95101 0.01859 0.52221 0.0
H138 H 0.78903 0.98734 0.57637 0.0
H139 H 0.93333 0.90629 0.52392 0.0
H140 H 0.86153 0.82448 0.51333 0.0
H141 H 0.98255 0.16599 0.53334 0.0
H142 H 0.11909 0.02736 0.54262 0.0
H143 H 0.71721 0.90622 0.56565 0.0
H144 H 0.06302 0.22434 0.50975 0.0
H145 H 0.19918 0.08454 0.51833 0.0
C146 C 0.45341 0.39861 0.82693 0.0
C147 C 0.46259 0.44868 0.81078 0.0
C148 C 0.4524 0.40161 0.85748 0.0
C149 C 0.46073 0.45473 0.87261 0.0
C150 C 0.46958 0.50479 0.85642 0.0
C151 C 0.47023 0.50184 0.82592 0.0
C152 C 0.46161 0.45803 0.90514 0.0
C153 C 0.49296 0.41541 0.92173 0.0
C154 C 0.49765 0.42044 0.95239 0.0
C155 C 0.46946 0.46787 0.96658 0.0
C156 C 0.4378 0.51048 0.9504 0.0
C157 C 0.43385 0.50533 0.91978 0.0
C158 C 0.4106 0.56172 0.96521 0.0
C159 C 0.36363 0.55584 0.98613 0.0
C160 C 0.42937 0.61705 0.95726 0.0
C161 C 0.39943 0.6658 0.96892 0.0
C162 C 0.34921 0.66021 0.98837 0.0
C163 C 0.5373 0.37896 0.96916 0.0
C164 C 0.52874 0.31926 0.96482 0.0
C165 C 0.58735 0.39909 0.98792 0.0
C166 C 0.6301 0.36023 0.00096 0.0
C167 C 0.62328 0.30057 0.99563 0.0
C168 C 0.57112 0.28032 0.97815 0.0
C169 C 0.33294 0.60472 0.99757 0.0
H170 H 0.44795 0.35686 0.81601 0.0
H171 H 0.44488 0.3623 0.86925 0.0
H172 H 0.47707 0.54633 0.86731 0.0
H173 H 0.47647 0.54141 0.8142 0.0
H174 H 0.5168 0.37983 0.91077 0.0
H175 H 0.40875 0.53826 0.9074 0.0
H176 H 0.47361 0.47251 0.99011 0.0
H177 H 0.34845 0.5134 0.99244 0.0
H178 H 0.46637 0.62248 0.94153 0.0
H179 H 0.41435 0.70792 0.96197 0.0
H180 H 0.49022 0.30285 0.95054 0.0
H181 H 0.59499 0.44498 0.99154 0.0
H182 H 0.29427 0.59879 0.01237 0.0
H183 H 0.56515 0.23456 0.97349 0.0
H184 H 0.66983 0.37687 0.01444 0.0
C185 C 0.50205 0.5911 0.19294 0.0
C186 C 0.50234 0.53822 0.20749 0.0
C187 C 0.50543 0.5922 0.16242 0.0
C188 C 0.50847 0.54042 0.14591 0.0
C189 C 0.50928 0.48772 0.16054 0.0
C190 C 0.5062 0.48663 0.19091 0.0
C191 C 0.50987 0.54041 0.11348 0.0
C192 C 0.55067 0.57748 0.09892 0.0
C193 C 0.55595 0.57292 0.06834 0.0
C194 C 0.51967 0.5314 0.05234 0.0
C195 C 0.47709 0.49595 0.06659 0.0
C196 C 0.4722 0.50074 0.09697 0.0
C197 C 0.43773 0.45286 0.05026 0.0
C198 C 0.371 0.45893 0.04905 0.0
C199 C 0.46588 0.40274 0.03862 0.0
C200 C 0.42747 0.35853 0.02636 0.0
C201 C 0.36052 0.36372 0.02614 0.0
C202 C 0.6012 0.61015 0.05332 0.0
C203 C 0.59962 0.67031 0.05766 0.0
C204 C 0.64779 0.58551 0.03543 0.0
C205 C 0.69397 0.62029 0.02322 0.0
C206 C 0.69331 0.68033 0.02816 0.0
C207 C 0.64495 0.70519 0.04494 0.0
C208 C 0.33265 0.4147 0.03704 0.0
H209 H 0.49963 0.63158 0.20517 0.0
H210 H 0.50452 0.63342 0.15171 0.0
H211 H 0.51248 0.4471 0.14847 0.0
H212 H 0.50584 0.44518 0.20138 0.0
H213 H 0.58038 0.60806 0.11143 0.0
H214 H 0.43946 0.47269 0.10781 0.0
H215 H 0.52376 0.52748 0.02883 0.0
H216 H 0.34857 0.49722 0.05816 0.0
H217 H 0.51729 0.39692 0.04016 0.0
H218 H 0.4498 0.31909 0.0186 0.0
H219 H 0.56381 0.6902 0.07122 0.0
H220 H 0.64995 0.53916 0.03182 0.0
H221 H 0.28106 0.41945 0.03714 0.0
H222 H 0.64398 0.75134 0.04929 0.0
H223 H 0.73103 0.60025 0.01043 0.0
H224 H 0.19995 0.15032 0.97607 0.0
H225 H 0.12641 0.16338 0.0631 0.0
H226 H 0.19544 0.24563 0.07456 0.0
H227 H 0.27569 0.31448 0.06014 0.0
H228 H 0.35548 0.30056 0.9747 0.0
H229 H 0.28533 0.21785 0.96226 0.0
C230 C 0.19924 0.17124 0.9975 0.0
C231 C 0.15796 0.15088 0.01864 0.0
C232 C 0.24 0.21831 0.00421 0.0
C233 C 0.15787 0.178 0.04645 0.0
C234 C 0.19718 0.2252 0.05304 0.0
C235 C 0.27732 0.29344 0.03873 0.0
C236 C 0.31952 0.3137 0.01815 0.0
C237 C 0.23812 0.24579 0.0321 0.0
C238 C 0.32273 0.28558 0.99074 0.0
C239 C 0.28273 0.23849 0.98368 0.0
H240 H 0.16569 0.8558 0.03689 0.0
H241 H 0.18061 0.91127 0.94784 0.0
H242 H 0.25503 0.83318 0.93785 0.0
H243 H 0.31048 0.74624 0.95301 0.0
H244 H 0.29812 0.68849 0.04163 0.0
H245 H 0.22739 0.76993 0.05303 0.0
C246 C 0.18577 0.85104 0.01542 0.0
C247 C 0.16719 0.88918 0.99313 0.0
C248 C 0.22847 0.80538 0.00962 0.0
C249 C 0.19356 0.88236 0.96537 0.0
C250 C 0.23622 0.83767 0.95959 0.0
C251 C 0.29364 0.75198 0.97505 0.0
C252 C 0.31 0.71144 0.99646 0.0
C253 C 0.25329 0.79857 0.98138 0.0
C254 C 0.28595 0.71885 0.02465 0.0
C255 C 0.2457 0.76552 0.03121 0.0
H256 H 0.94375 0.82495 0.01618 0.0
H257 H 0.81423 0.93588 0.96829 0.0
H258 H 0.72764 0.86531 0.97257 0.0
H259 H 0.68684 0.77657 0.99497 0.0
H260 H 0.8192 0.66485 0.04098 0.0
H261 H 0.90713 0.73079 0.0322 0.0
C262 C 0.8968 0.83295 0.00618 0.0
C263 C 0.88477 0.88526 0.99214 0.0
C264 C 0.84792 0.79231 0.00864 0.0
C265 C 0.82426 0.89551 0.97905 0.0
C266 C 0.77481 0.85546 0.98173 0.0
C267 C 0.73521 0.7665 0.0026 0.0
C268 C 0.74677 0.71637 0.01876 0.0
C269 C 0.78569 0.80444 0.99723 0.0
C270 C 0.80947 0.70317 0.02841 0.0
C271 C 0.85961 0.74094 0.02353 0.0
H272 H 0.80985 0.09504 0.02845 0.0
H273 H 0.94244 0.20741 0.98753 0.0
H274 H 0.86051 0.28244 0.98358 0.0
H275 H 0.74912 0.31231 0.9873 0.0
H276 H 0.61216 0.19785 0.02369 0.0
H277 H 0.69736 0.12721 0.03391 0.0
C278 C 0.82071 0.13645 0.01922 0.0
C279 C 0.88175 0.14624 0.00842 0.0
C280 C 0.77245 0.17856 0.01592 0.0
C281 C 0.89553 0.19935 0.99596 0.0
C282 C 0.84877 0.24208 0.99365 0.0
C283 C 0.73821 0.27242 0.99805 0.0
C284 C 0.6748 0.26032 0.00496 0.0
C285 C 0.78677 0.23165 0.00292 0.0
C286 C 0.66084 0.20792 0.01821 0.0
C287 C 0.70946 0.16764 0.02401 0.0
H288 H 0.62128 0.63494 0.55702 0.0
H289 H 0.64472 0.61646 0.4639 0.0
H290 H 0.70804 0.70518 0.46446 0.0
H291 H 0.75533 0.78911 0.49155 0.0
H292 H 0.72914 0.80684 0.5845 0.0
H293 H 0.6678 0.7176 0.58377 0.0
C294 C 0.64049 0.65007 0.53684 0.0
C295 C 0.62847 0.61909 0.5105 0.0
C296 C 0.67592 0.7013 0.53725 0.0
C297 C 0.6533 0.63958 0.4845 0.0
C298 C 0.68945 0.69031 0.4848 0.0
C299 C 0.73621 0.77323 0.51158 0.0
C300 C 0.74615 0.8048 0.53795 0.0
C301 C 0.70081 0.7217 0.51104 0.0
C302 C 0.72104 0.78392 0.5638 0.0
C303 C 0.68638 0.73267 0.56347 0.0
H304 H 0.68914 0.37942 0.46366 0.0
H305 H 0.65743 0.32847 0.55211 0.0
H306 H 0.74522 0.25855 0.54925 0.0
H307 H 0.82845 0.20916 0.52065 0.0
H308 H 0.86023 0.26273 0.4326 0.0
H309 H 0.77558 0.33481 0.43642 0.0
C310 C 0.70149 0.35309 0.48235 0.0
C311 C 0.66647 0.35863 0.50793 0.0
C312 C 0.75222 0.31357 0.48065 0.0
C313 C 0.68365 0.32488 0.53213 0.0
C314 C 0.73373 0.28484 0.53049 0.0
C315 C 0.81688 0.23688 0.50241 0.0
C316 C 0.85054 0.23068 0.47641 0.0
C317 C 0.76795 0.27838 0.50473 0.0
C318 C 0.83558 0.26715 0.45299 0.0
C319 C 0.78685 0.30808 0.45505 0.0
H320 H 0.3235 0.35375 0.47136 0.0
H321 H 0.43077 0.29559 0.54742 0.0
H322 H 0.35361 0.21846 0.55364 0.0
H323 H 0.25176 0.17296 0.5402 0.0
H324 H 0.13838 0.23389 0.46666 0.0
H325 H 0.22152 0.30482 0.45667 0.0
C326 C 0.33023 0.32351 0.48897 0.0
C327 C 0.38256 0.33007 0.50891 0.0
C328 C 0.28437 0.28029 0.493 0.0
C329 C 0.39058 0.29137 0.53192 0.0
C330 C 0.34654 0.24734 0.53549 0.0
C331 C 0.24585 0.20087 0.52157 0.0
C332 C 0.18949 0.19792 0.504 0.0
C333 C 0.29272 0.24213 0.51654 0.0
C334 C 0.18157 0.23545 0.48044 0.0
C335 C 0.22901 0.27591 0.47477 0.0
H336 H 0.40503 0.65634 0.52967 0.0
H337 H 0.2843 0.52791 0.48654 0.0
H338 H 0.19658 0.59802 0.48241 0.0
H339 H 0.15795 0.69707 0.48759 0.0
H340 H 0.28609 0.82951 0.52278 0.0
H341 H 0.3656 0.7564 0.53492 0.0
C342 C 0.35905 0.64385 0.51978 0.0
C343 C 0.35037 0.58746 0.50854 0.0
C344 C 0.31013 0.68507 0.51624 0.0
C345 C 0.29145 0.57135 0.49531 0.0
C346 C 0.24153 0.61134 0.49297 0.0
C347 C 0.20339 0.71046 0.49761 0.0
C348 C 0.21563 0.76943 0.50372 0.0
C349 C 0.25092 0.66868 0.50271 0.0
C350 C 0.2742 0.7848 0.51798 0.0
C351 C 0.32044 0.74295 0.52461 0.0
H352 H 0.09079 0.93409 0.17017 0.0
H353 H 0.9481 0.06874 0.16529 0.0
H354 H 0.94901 0.07712 0.21863 0.0
H355 H 0.9912 0.04682 0.26668 0.0
H356 H 0.13237 0.91103 0.27173 0.0
H357 H 0.13157 0.90253 0.2183 0.0
C358 C 0.0601 0.96535 0.18084 0.0
C359 C 0.0195 0.00075 0.16388 0.0
C360 C 0.06077 0.96982 0.2115 0.0
C361 C 0.97929 0.04059 0.17792 0.0
C362 C 0.98007 0.04566 0.20839 0.0
C363 C 0.02207 0.01571 0.25601 0.0
C364 C 0.06206 0.97985 0.27298 0.0
C365 C 0.02079 0.01067 0.22538 0.0
C366 C 0.10105 0.93894 0.25902 0.0
C367 C 0.10069 0.93416 0.22853 0.0
H368 H 0.94973 0.99591 0.83468 0.0
H369 H 0.1034 0.11973 0.84317 0.0
H370 H 0.10469 0.12708 0.78991 0.0
H371 H 0.06289 0.09679 0.74078 0.0
H372 H 0.90837 0.97359 0.73317 0.0
H373 H 0.90627 0.96801 0.78625 0.0
C374 C 0.98295 0.02512 0.82493 0.0
C375 C 0.02624 0.05732 0.84286 0.0
C376 C 0.98336 0.02914 0.79443 0.0
C377 C 0.06993 0.09404 0.82982 0.0
C378 C 0.07049 0.09847 0.79939 0.0
C379 C 0.02845 0.06919 0.75081 0.0
C380 C 0.98622 0.03533 0.73309 0.0
C381 C 0.02755 0.06603 0.78145 0.0
C382 C 0.9421 -0.00063 0.74634 0.0
C383 C 0.94064 0.99632 0.77669 0.0
H384 H 0.43581 0.41106 0.67356 0.0
H385 H 0.58589 0.53901 0.67698 0.0
H386 H 0.58553 0.54079 0.73029 0.0
H387 H 0.54193 0.50707 0.77589 0.0
H388 H 0.3877 0.38326 0.77254 0.0
H389 H 0.39054 0.37885 0.71923 0.0
C390 C 0.46801 0.43981 0.68591 0.0
C391 C 0.51083 0.4748 0.67116 0.0
C392 C 0.46695 0.44131 0.7166 0.0
C393 C 0.55306 0.51094 0.68767 0.0
C394 C 0.5526 0.51232 0.71819 0.0
C395 C 0.50839 0.47958 0.76353 0.0
C396 C 0.46459 0.44566 0.77829 0.0
C397 C 0.50961 0.47786 0.73287 0.0
C398 C 0.42248 0.40933 0.76184 0.0
C399 C 0.42376 0.40705 0.73132 0.0
H400 H 0.44478 0.54945 0.34246 0.0
H401 H 0.59225 0.41879 0.34388 0.0
H402 H 0.60323 0.42672 0.29115 0.0
H403 H 0.57122 0.47068 0.24474 0.0
H404 H 0.42359 0.60118 0.24275 0.0
H405 H 0.413 0.5941 0.29566 0.0
C406 C 0.47886 0.52242 0.33112 0.0
C407 C 0.51753 0.48349 0.34699 0.0
C408 C 0.48529 0.52755 0.30079 0.0
C409 C 0.56226 0.44933 0.33215 0.0
C410 C 0.56849 0.45378 0.30202 0.0
C411 C 0.53644 0.49735 0.25585 0.0
C412 C 0.49805 0.53619 0.2398 0.0
C413 C 0.53035 0.49276 0.28614 0.0
C414 C 0.45413 0.57129 0.25463 0.0
C415 C 0.44771 0.56695 0.28484 0.0
loop_
_geom_bond_atom_site_label_1
_geom_bond_atom_site_label_2
_geom_bond_distance
_geom_bond_site_symmetry_2
_ccdc_geom_bond_type
C0 O16 1.251 . S
C0 O18 1.254 1_554 S
N1 C2 1.333 1_445 S
N1 C6 1.307 . S
N1 Zn7 2.020 . S
C2 N1 1.333 1_665 S
C2 C3 1.379 . S
C2 H20 0.952 . S
C3 C2 1.379 . S
C3 C4 1.390 1_665 S
C3 H30 0.949 . S
C4 C3 1.390 1_445 S
C4 C5 1.357 . S
C5 C4 1.357 . S
C5 C6 1.370 . S
C5 H31 0.950 . S
C6 N1 1.307 . S
C6 C5 1.370 . S
C6 H24 0.948 . S
Zn7 N1 2.020 . S
Zn7 O16 2.039 1_445 S
Zn7 O22 2.034 1_455 S
Zn7 O26 2.025 . S
Zn7 O28 2.024 1_545 S
C8 O27 1.246 1_554 S
C8 O28 1.249 . S
N9 C10 1.307 1_445 S
N9 C11 1.333 . S
N9 Zn15 2.020 . S
C10 N9 1.307 1_665 S
C10 C14 1.370 . S
C10 H21 0.948 . S
C11 N9 1.333 . S
C11 C12 1.379 . S
C11 H19 0.952 . S
C12 C11 1.379 . S
C12 C13 1.390 . S
C12 H32 0.949 . S
C13 C12 1.390 . S
C13 C14 1.357 1_445 S
C14 C10 1.370 . S
C14 C13 1.357 1_665 S
C14 H33 0.950 . S
Zn15 N9 2.020 . S
Zn15 O18 2.025 1_445 S
Zn15 O23 2.024 1_455 S
Zn15 O25 2.039 . S
Zn15 O27 2.034 1_545 S
O16 C0 1.251 . S
O16 Zn7 2.039 1_665 S
C17 O22 1.246 . S
C17 O23 1.249 1_554 S
O18 C0 1.254 1_556 S
O18 Zn15 2.025 1_665 S
H19 C11 0.952 . S
H20 C2 0.952 . S
H21 C10 0.948 . S
O22 Zn7 2.034 1_655 S
O22 C17 1.246 . S
O23 Zn15 2.024 1_655 S
O23 C17 1.249 1_556 S
H24 C6 0.948 . S
O25 Zn15 2.039 . S
O25 C29 1.251 1_556 S
O26 Zn7 2.025 . S
O26 C29 1.254 . S
O27 C8 1.246 1_556 S
O27 Zn15 2.034 1_565 S
O28 Zn7 2.024 1_565 S
O28 C8 1.249 . S
C29 O25 1.251 1_554 S
C29 O26 1.254 . S
H30 C3 0.949 . S
H31 C5 0.950 . S
H32 C12 0.949 . S
H33 C14 0.950 . S
C34 O50 1.251 . S
C34 O52 1.254 . S
N35 C36 1.333 . S
N35 C40 1.307 . S
N35 Zn41 2.020 . S
C36 N35 1.333 . S
C36 C37 1.379 . S
C36 H54 0.952 . S
C37 C36 1.379 . S
C37 C38 1.390 . S
C37 H64 0.949 . S
C38 C37 1.390 . S
C38 C39 1.357 . S
C39 C38 1.357 . S
C39 C40 1.370 . S
C39 H65 0.950 . S
C40 N35 1.307 . S
C40 C39 1.370 . S
C40 H58 0.948 . S
Zn41 N35 2.020 . S
Zn41 O50 2.039 . S
Zn41 O56 2.034 . S
Zn41 O60 2.025 . S
Zn41 O62 2.024 . S
C42 O61 1.246 . S
C42 O62 1.249 . S
N43 C44 1.307 . S
N43 C45 1.333 . S
N43 Zn49 2.020 . S
C44 N43 1.307 . S
C44 C48 1.370 . S
C44 H55 0.948 . S
C45 N43 1.333 . S
C45 C46 1.379 . S
C45 H53 0.952 . S
C46 C45 1.379 . S
C46 C47 1.390 . S
C46 H66 0.949 . S
C47 C46 1.390 . S
C47 C48 1.357 . S
C48 C44 1.370 . S
C48 C47 1.357 . S
C48 H67 0.950 . S
Zn49 N43 2.020 . S
Zn49 O52 2.025 . S
Zn49 O57 2.024 . S
Zn49 O59 2.039 . S
Zn49 O61 2.034 . S
O50 C34 1.251 . S
O50 Zn41 2.039 . S
C51 O56 1.246 . S
C51 O57 1.249 . S
O52 C34 1.254 . S
O52 Zn49 2.025 . S
H53 C45 0.952 . S
H54 C36 0.952 . S
H55 C44 0.948 . S
O56 Zn41 2.034 . S
O56 C51 1.246 . S
O57 Zn49 2.024 . S
O57 C51 1.249 . S
H58 C40 0.948 . S
O59 Zn49 2.039 . S
O59 C63 1.251 . S
O60 Zn41 2.025 . S
O60 C63 1.254 . S
O61 C42 1.246 . S
O61 Zn49 2.034 . S
O62 Zn41 2.024 . S
O62 C42 1.249 . S
C63 O59 1.251 . S
C63 O60 1.254 . S
H64 C37 0.949 . S
H65 C39 0.950 . S
H66 C46 0.949 . S
H67 C48 0.950 . S
C68 C69 1.386 1_565 S
C68 C70 1.397 . S
C68 H92 0.931 . S
C69 C68 1.386 1_545 S
C69 C73 1.397 1_655 S
C70 C68 1.397 . S
C70 C71 1.385 1_655 S
C70 H93 0.930 . S
C71 C70 1.385 1_455 S
C71 C72 1.378 1_565 S
C71 C74 1.480 . S
C72 C71 1.378 1_545 S
C72 C73 1.389 . S
C72 H94 0.929 . S
C73 C69 1.397 1_455 S
C73 C72 1.389 . S
C73 H95 0.931 . S
C74 C71 1.480 . S
C74 C75 1.388 . S
C74 C79 1.389 1_465 S
C75 C74 1.388 . S
C75 C76 1.401 . S
C75 H96 0.930 . S
C76 C75 1.401 . S
C76 C77 1.369 1_455 S
C76 C85 1.511 . S
C77 C76 1.369 1_655 S
C77 C78 1.398 1_565 S
C77 H98 0.932 . S
C78 C77 1.398 1_545 S
C78 C79 1.361 . S
C78 C80 1.500 . S
C79 C74 1.389 1_645 S
C79 C78 1.361 . S
C79 H97 0.931 . S
C80 C78 1.500 . S
C80 C81 1.371 . S
C80 C82 1.365 . S
C81 C80 1.371 . S
C81 C91 1.386 . S
C81 H99 0.931 . S
C82 C80 1.365 . S
C82 C83 1.409 . S
C82 H100 0.929 . S
C83 C82 1.409 . S
C83 C84 1.380 . S
C83 H101 0.930 . S
C84 C83 1.380 . S
C84 C91 1.357 . S
C85 C76 1.511 . S
C85 C86 1.341 . S
C85 C87 1.371 . S
C86 C85 1.341 . S
C86 C90 1.394 . S
C86 H102 0.930 . S
C87 C85 1.371 . S
C87 C88 1.392 . S
C87 H103 0.931 . S
C88 C87 1.392 . S
C88 C89 1.331 . S
C88 H106 0.932 . S
C89 C88 1.331 . S
C89 C90 1.336 . S
C90 C86 1.394 . S
C90 C89 1.336 . S
C90 H105 0.929 . S
C91 C81 1.386 . S
C91 C84 1.357 . S
C91 H104 0.928 . S
H92 C68 0.931 . S
H93 C70 0.930 . S
H94 C72 0.929 . S
H95 C73 0.931 . S
H96 C75 0.930 . S
H97 C79 0.931 . S
H98 C77 0.932 . S
H99 C81 0.931 . S
H100 C82 0.929 . S
H101 C83 0.930 . S
H102 C86 0.930 . S
H103 C87 0.931 . S
H104 C91 0.928 . S
H105 C90 0.929 . S
H106 C88 0.932 . S
C107 C108 1.386 . S
C107 C109 1.397 . S
C107 H131 0.931 . S
C108 C107 1.386 . S
C108 C112 1.397 1_545 S
C109 C107 1.397 . S
C109 C110 1.384 . S
C109 H132 0.930 . S
C110 C109 1.384 . S
C110 C111 1.377 1_545 S
C110 C113 1.481 . S
C111 C110 1.377 1_565 S
C111 C112 1.389 . S
C111 H133 0.929 . S
C112 C108 1.397 1_565 S
C112 C111 1.389 . S
C112 H134 0.931 . S
C113 C110 1.481 . S
C113 C114 1.387 . S
C113 C118 1.390 1_445 S
C114 C113 1.387 . S
C114 C115 1.401 . S
C114 H135 0.930 . S
C115 C114 1.401 . S
C115 C116 1.376 . S
C115 C124 1.511 . S
C116 C115 1.376 . S
C116 C117 1.392 1_445 S
C116 H137 0.931 . S
C117 C116 1.392 1_665 S
C117 C118 1.361 . S
C117 C119 1.500 . S
C118 C113 1.390 1_665 S
C118 C117 1.361 . S
C118 H136 0.931 . S
C119 C117 1.500 . S
C119 C120 1.371 . S
C119 C121 1.365 . S
C120 C119 1.371 . S
C120 C130 1.386 . S
C120 H138 0.931 . S
C121 C119 1.365 . S
C121 C122 1.409 . S
C121 H139 0.929 . S
C122 C121 1.409 . S
C122 C123 1.380 . S
C122 H140 0.930 . S
C123 C122 1.380 . S
C123 C130 1.357 . S
C124 C115 1.511 . S
C124 C125 1.341 . S
C124 C126 1.371 . S
C125 C124 1.341 . S
C125 C129 1.394 . S
C125 H141 0.930 . S
C126 C124 1.371 . S
C126 C127 1.392 . S
C126 H142 0.931 . S
C127 C126 1.392 . S
C127 C128 1.331 . S
C127 H145 0.932 . S
C128 C127 1.331 . S
C128 C129 1.336 . S
C129 C125 1.394 . S
C129 C128 1.336 . S
C129 H144 0.929 . S
C130 C120 1.386 . S
C130 C123 1.357 . S
C130 H143 0.928 . S
H131 C107 0.931 . S
H132 C109 0.930 . S
H133 C111 0.929 . S
H134 C112 0.931 . S
H135 C114 0.930 . S
H136 C118 0.931 . S
H137 C116 0.931 . S
H138 C120 0.931 . S
H139 C121 0.929 . S
H140 C122 0.930 . S
H141 C125 0.930 . S
H142 C126 0.931 . S
H143 C130 0.928 . S
H144 C129 0.929 . S
H145 C127 0.932 . S
C146 C147 1.386 . S
C146 C148 1.397 . S
C146 H170 0.931 . S
C147 C146 1.386 . S
C147 C151 1.397 . S
C148 C146 1.397 . S
C148 C149 1.384 . S
C148 H171 0.930 . S
C149 C148 1.384 . S
C149 C150 1.377 . S
C149 C152 1.481 . S
C150 C149 1.377 . S
C150 C151 1.389 . S
C150 H172 0.929 . S
C151 C147 1.397 . S
C151 C150 1.389 . S
C151 H173 0.931 . S
C152 C149 1.481 . S
C152 C153 1.387 . S
C152 C157 1.390 . S
C153 C152 1.387 . S
C153 C154 1.401 . S
C153 H174 0.930 . S
C154 C153 1.401 . S
C154 C155 1.376 . S
C154 C163 1.511 . S
C155 C154 1.376 . S
C155 C156 1.392 . S
C155 H176 0.931 . S
C156 C155 1.392 . S
C156 C157 1.361 . S
C156 C158 1.500 . S
C157 C152 1.390 . S
C157 C156 1.361 . S
C157 H175 0.931 . S
C158 C156 1.500 . S
C158 C159 1.369 . S
C158 C160 1.365 . S
C159 C158 1.369 . S
C159 C169 1.387 1_556 S
C159 H177 0.932 1_556 S
C160 C158 1.365 . S
C160 C161 1.409 . S
C160 H178 0.929 . S
C161 C160 1.409 . S
C161 C162 1.380 1_556 S
C161 H179 0.930 . S
C162 C161 1.380 1_554 S
C162 C169 1.357 . S
C163 C154 1.511 . S
C163 C164 1.341 . S
C163 C165 1.371 1_556 S
C164 C163 1.341 . S
C164 C168 1.394 . S
C164 H180 0.930 . S
C165 C163 1.371 1_554 S
C165 C166 1.392 . S
C165 H181 0.931 . S
C166 C165 1.392 . S
C166 C167 1.331 . S
C166 H184 0.932 . S
C167 C166 1.331 . S
C167 C168 1.336 1_554 S
C168 C164 1.394 . S
C168 C167 1.336 1_556 S
C168 H183 0.929 . S
C169 C159 1.387 1_554 S
C169 C162 1.357 . S
C169 H182 0.928 . S
H170 C146 0.931 . S
H171 C148 0.930 . S
H172 C150 0.929 . S
H173 C151 0.931 . S
H174 C153 0.930 . S
H175 C157 0.931 . S
H176 C155 0.931 . S
H177 C159 0.932 1_554 S
H178 C160 0.929 . S
H179 C161 0.930 . S
H180 C164 0.930 . S
H181 C165 0.931 . S
H182 C169 0.928 . S
H183 C168 0.929 . S
H184 C166 0.932 . S
C185 C186 1.386 . S
C185 C187 1.397 . S
C185 H209 0.931 . S
C186 C185 1.386 . S
C186 C190 1.397 . S
C187 C185 1.397 . S
C187 C188 1.384 . S
C187 H210 0.930 . S
C188 C187 1.384 . S
C188 C189 1.377 . S
C188 C191 1.481 . S
C189 C188 1.377 . S
C189 C190 1.389 . S
C189 H211 0.929 . S
C190 C186 1.397 . S
C190 C189 1.389 . S
C190 H212 0.931 . S
C191 C188 1.481 . S
C191 C192 1.387 . S
C191 C196 1.390 . S
C192 C191 1.387 . S
C192 C193 1.401 . S
C192 H213 0.930 . S
C193 C192 1.401 . S
C193 C194 1.376 . S
C193 C202 1.511 . S
C194 C193 1.376 . S
C194 C195 1.392 . S
C194 H215 0.931 . S
C195 C194 1.392 . S
C195 C196 1.361 . S
C195 C197 1.500 . S
C196 C191 1.390 . S
C196 C195 1.361 . S
C196 H214 0.931 . S
C197 C195 1.500 . S
C197 C198 1.371 . S
C197 C199 1.365 . S
C198 C197 1.371 . S
C198 C208 1.386 1_554 S
C198 H216 0.931 . S
C199 C197 1.365 . S
C199 C200 1.409 . S
C199 H217 0.929 . S
C200 C199 1.409 . S
C200 C201 1.380 . S
C200 H218 0.930 . S
C201 C200 1.380 . S
C201 C208 1.357 1_554 S
C202 C193 1.511 . S
C202 C203 1.341 . S
C202 C204 1.371 . S
C203 C202 1.341 . S
C203 C207 1.394 . S
C203 H219 0.930 . S
C204 C202 1.371 . S
C204 C205 1.392 1_554 S
C204 H220 0.931 . S
C205 C204 1.392 1_556 S
C205 C206 1.331 1_556 S
C205 H223 0.932 . S
C206 C205 1.331 1_554 S
C206 C207 1.336 . S
C207 C203 1.394 . S
C207 C206 1.336 . S
C207 H222 0.929 . S
C208 C198 1.386 1_556 S
C208 C201 1.357 1_556 S
C208 H221 0.928 . S
H209 C185 0.931 . S
H210 C187 0.930 . S
H211 C189 0.929 . S
H212 C190 0.931 . S
H213 C192 0.930 . S
H214 C196 0.931 . S
H215 C194 0.931 . S
H216 C198 0.931 . S
H217 C199 0.929 . S
H218 C200 0.930 . S
H219 C203 0.930 . S
H220 C204 0.931 . S
H221 C208 0.928 . S
H222 C207 0.929 . S
H223 C205 0.932 . S
H224 C230 0.930 1_556 S
H225 C233 0.930 . S
H226 C234 0.930 . S
H227 C235 0.930 . S
H228 C238 0.930 . S
H229 C239 0.930 . S
C230 H224 0.930 1_554 S
C230 C231 1.354 . S
C230 C232 1.414 1_554 S
C231 C230 1.354 . S
C231 C233 1.419 . S
C232 C230 1.414 1_556 S
C232 C237 1.420 1_556 S
C232 C239 1.416 . S
C233 H225 0.930 . S
C233 C231 1.419 . S
C233 C234 1.362 . S
C234 H226 0.930 . S
C234 C233 1.362 . S
C234 C237 1.409 . S
C235 H227 0.930 . S
C235 C236 1.353 1_554 S
C235 C237 1.415 . S
C236 C235 1.353 1_556 S
C236 C238 1.420 . S
C237 C232 1.420 1_554 S
C237 C234 1.409 . S
C237 C235 1.415 . S
C238 H228 0.930 . S
C238 C236 1.420 . S
C238 C239 1.362 . S
C239 H229 0.930 . S
C239 C232 1.416 . S
C239 C238 1.362 . S
H240 C246 0.930 . S
H241 C249 0.930 . S
H242 C250 0.930 . S
H243 C251 0.930 . S
H244 C254 0.930 . S
H245 C255 0.930 . S
C246 H240 0.930 . S
C246 C247 1.355 . S
C246 C248 1.415 . S
C247 C246 1.355 . S
C247 C249 1.419 1_554 S
C248 C246 1.415 . S
C248 C253 1.425 1_554 S
C248 C255 1.409 . S
C249 H241 0.930 . S
C249 C247 1.419 1_556 S
C249 C250 1.362 . S
C250 H242 0.930 . S
C250 C249 1.362 . S
C250 C253 1.409 . S
C251 H243 0.930 . S
C251 C252 1.355 1_556 S
C251 C253 1.415 . S
C252 C251 1.355 1_554 S
C252 C254 1.419 . S
C253 C248 1.425 1_556 S
C253 C250 1.409 . S
C253 C251 1.415 . S
C254 H244 0.930 . S
C254 C252 1.419 . S
C254 C255 1.362 . S
C255 H245 0.930 . S
C255 C248 1.409 . S
C255 C254 1.362 . S
H256 C262 0.930 . S
H257 C265 0.926 1_556 S
H258 C266 0.935 . S
H259 C267 0.930 1_556 S
H260 C270 0.930 . S
H261 C271 0.930 . S
C262 H256 0.930 . S
C262 C263 1.355 . S
C262 C264 1.415 . S
C263 C262 1.355 . S
C263 C265 1.425 . S
C264 C262 1.415 . S
C264 C269 1.425 . S
C264 C271 1.409 . S
C265 H257 0.926 1_554 S
C265 C263 1.425 . S
C265 C266 1.363 1_554 S
C266 H258 0.935 . S
C266 C265 1.363 1_556 S
C266 C269 1.405 1_556 S
C267 H259 0.930 1_554 S
C267 C268 1.355 . S
C267 C269 1.415 . S
C268 C267 1.355 . S
C268 C270 1.419 . S
C269 C264 1.425 . S
C269 C266 1.405 1_554 S
C269 C267 1.415 . S
C270 H260 0.930 . S
C270 C268 1.419 . S
C270 C271 1.362 . S
C271 H261 0.930 . S
C271 C264 1.409 . S
C271 C270 1.362 . S
H272 C278 0.930 . S
H273 C281 0.930 . S
H274 C282 0.930 . S
H275 C283 0.930 1_556 S
H276 C286 0.930 . S
H277 C287 0.930 . S
C278 H272 0.930 . S
C278 C279 1.355 . S
C278 C280 1.415 . S
C279 C278 1.355 . S
C279 C281 1.419 1_554 S
C280 C278 1.415 . S
C280 C285 1.425 . S
C280 C287 1.409 . S
C281 H273 0.930 . S
C281 C279 1.419 1_556 S
C281 C282 1.362 . S
C282 H274 0.930 . S
C282 C281 1.362 . S
C282 C285 1.409 1_556 S
C283 H275 0.930 1_554 S
C283 C284 1.355 . S
C283 C285 1.415 . S
C284 C283 1.355 . S
C284 C286 1.419 . S
C285 C280 1.425 . S
C285 C282 1.409 1_554 S
C285 C283 1.415 . S
C286 H276 0.930 . S
C286 C284 1.419 . S
C286 C287 1.362 . S
C287 H277 0.930 . S
C287 C280 1.409 . S
C287 C286 1.362 . S
H288 C294 0.930 . S
H289 C297 0.930 . S
H290 C298 0.930 . S
H291 C299 0.930 . S
H292 C302 0.930 . S
H293 C303 0.930 . S
C294 H288 0.930 . S
C294 C295 1.355 . S
C294 C296 1.415 . S
C295 C294 1.355 . S
C295 C297 1.419 . S
C296 C294 1.415 . S
C296 C301 1.425 . S
C296 C303 1.409 . S
C297 H289 0.930 . S
C297 C295 1.419 . S
C297 C298 1.362 . S
C298 H290 0.930 . S
C298 C297 1.362 . S
C298 C301 1.409 . S
C299 H291 0.930 . S
C299 C300 1.355 . S
C299 C301 1.415 . S
C300 C299 1.355 . S
C300 C302 1.419 . S
C301 C296 1.425 . S
C301 C298 1.409 . S
C301 C299 1.415 . S
C302 H292 0.930 . S
C302 C300 1.419 . S
C302 C303 1.362 . S
C303 H293 0.930 . S
C303 C296 1.409 . S
C303 C302 1.362 . S
H304 C310 0.930 . S
H305 C313 0.930 . S
H306 C314 0.930 . S
H307 C315 0.930 . S
H308 C318 0.930 . S
H309 C319 0.930 . S
C310 H304 0.930 . S
C310 C311 1.355 . S
C310 C312 1.415 . S
C311 C310 1.355 . S
C311 C313 1.419 . S
C312 C310 1.415 . S
C312 C317 1.425 . S
C312 C319 1.409 . S
C313 H305 0.930 . S
C313 C311 1.419 . S
C313 C314 1.362 . S
C314 H306 0.930 . S
C314 C313 1.362 . S
C314 C317 1.409 . S
C315 H307 0.930 . S
C315 C316 1.355 . S
C315 C317 1.415 . S
C316 C315 1.355 . S
C316 C318 1.419 . S
C317 C312 1.425 . S
C317 C314 1.409 . S
C317 C315 1.415 . S
C318 H308 0.930 . S
C318 C316 1.419 . S
C318 C319 1.362 . S
C319 H309 0.930 . S
C319 C312 1.409 . S
C319 C318 1.362 . S
H320 C326 0.930 . S
H321 C329 0.930 . S
H322 C330 0.930 . S
H323 C331 0.930 . S
H324 C334 0.930 . S
H325 C335 0.930 . S
C326 H320 0.930 . S
C326 C327 1.355 . S
C326 C328 1.415 . S
C327 C326 1.355 . S
C327 C329 1.419 . S
C328 C326 1.415 . S
C328 C333 1.425 . S
C328 C335 1.409 . S
C329 H321 0.930 . S
C329 C327 1.419 . S
C329 C330 1.362 . S
C330 H322 0.930 . S
C330 C329 1.362 . S
C330 C333 1.409 . S
C331 H323 0.930 . S
C331 C332 1.355 . S
C331 C333 1.415 . S
C332 C331 1.355 . S
C332 C334 1.419 . S
C333 C328 1.425 . S
C333 C330 1.409 . S
C333 C331 1.415 . S
C334 H324 0.930 . S
C334 C332 1.419 . S
C334 C335 1.362 . S
C335 H325 0.930 . S
C335 C328 1.409 . S
C335 C334 1.362 . S
H336 C342 0.930 . S
H337 C345 0.930 . S
H338 C346 0.930 . S
H339 C347 0.930 . S
H340 C350 0.930 . S
H341 C351 0.930 . S
C342 H336 0.930 . S
C342 C343 1.355 . S
C342 C344 1.415 . S
C343 C342 1.355 . S
C343 C345 1.419 . S
C344 C342 1.415 . S
C344 C349 1.425 . S
C344 C351 1.409 . S
C345 H337 0.930 . S
C345 C343 1.419 . S
C345 C346 1.362 . S
C346 H338 0.930 . S
C346 C345 1.362 . S
C346 C349 1.409 . S
C347 H339 0.930 . S
C347 C348 1.355 . S
C347 C349 1.415 . S
C348 C347 1.355 . S
C348 C350 1.419 . S
C349 C344 1.425 . S
C349 C346 1.409 . S
C349 C347 1.415 . S
C350 H340 0.930 . S
C350 C348 1.419 . S
C350 C351 1.362 . S
C351 H341 0.930 . S
C351 C344 1.409 . S
C351 C350 1.362 . S
H352 C358 0.930 . S
H353 C361 0.930 . S
H354 C362 0.930 . S
H355 C363 0.930 . S
H356 C366 0.930 . S
H357 C367 0.930 . S
C358 H352 0.930 . S
C358 C359 1.355 1_565 S
C358 C360 1.415 . S
C359 C358 1.355 1_545 S
C359 C361 1.419 1_455 S
C360 C358 1.415 . S
C360 C365 1.425 1_465 S
C360 C367 1.409 . S
C361 H353 0.930 . S
C361 C359 1.419 1_655 S
C361 C362 1.362 . S
C362 H354 0.930 . S
C362 C361 1.362 . S
C362 C365 1.409 . S
C363 H355 0.930 . S
C363 C364 1.355 1_645 S
C363 C365 1.415 . S
C364 C363 1.355 1_465 S
C364 C366 1.419 . S
C365 C360 1.425 1_645 S
C365 C362 1.409 . S
C365 C363 1.415 . S
C366 H356 0.930 . S
C366 C364 1.419 . S
C366 C367 1.362 . S
C367 H357 0.930 . S
C367 C360 1.409 . S
C367 C366 1.362 . S
H368 C374 0.930 . S
H369 C377 0.930 . S
H370 C378 0.930 . S
H371 C379 0.930 . S
H372 C382 0.930 . S
H373 C383 0.930 . S
C374 H368 0.930 . S
C374 C375 1.355 1_665 S
C374 C376 1.415 . S
C375 C374 1.355 1_445 S
C375 C377 1.419 . S
C376 C374 1.415 . S
C376 C381 1.425 1_665 S
C376 C383 1.409 . S
C377 H369 0.930 . S
C377 C375 1.419 . S
C377 C378 1.362 . S
C378 H370 0.930 . S
C378 C377 1.362 . S
C378 C381 1.409 . S
C379 H371 0.930 . S
C379 C380 1.355 . S
C379 C381 1.415 . S
C380 C379 1.355 . S
C380 C382 1.419 1_445 S
C381 C376 1.425 1_445 S
C381 C378 1.409 . S
C381 C379 1.415 . S
C382 H372 0.930 . S
C382 C380 1.419 1_665 S
C382 C383 1.362 . S
C383 H373 0.930 . S
C383 C376 1.409 . S
C383 C382 1.362 . S
H384 C390 0.930 . S
H385 C393 0.930 . S
H386 C394 0.930 . S
H387 C395 0.930 . S
H388 C398 0.930 . S
H389 C399 0.930 . S
C390 H384 0.930 . S
C390 C391 1.355 . S
C390 C392 1.415 . S
C391 C390 1.355 . S
C391 C393 1.419 . S
C392 C390 1.415 . S
C392 C397 1.425 . S
C392 C399 1.409 . S
C393 H385 0.930 . S
C393 C391 1.419 . S
C393 C394 1.362 . S
C394 H386 0.930 . S
C394 C393 1.362 . S
C394 C397 1.409 . S
C395 H387 0.930 . S
C395 C396 1.355 . S
C395 C397 1.415 . S
C396 C395 1.355 . S
C396 C398 1.419 . S
C397 C392 1.425 . S
C397 C394 1.409 . S
C397 C395 1.415 . S
C398 H388 0.930 . S
C398 C396 1.419 . S
C398 C399 1.362 . S
C399 H389 0.930 . S
C399 C392 1.409 . S
C399 C398 1.362 . S
H400 C406 0.930 . S
H401 C409 0.930 . S
H402 C410 0.930 . S
H403 C411 0.930 . S
H404 C414 0.930 . S
H405 C415 0.930 . S
C406 H400 0.930 . S
C406 C407 1.355 . S
C406 C408 1.415 . S
C407 C406 1.355 . S
C407 C409 1.419 . S
C408 C406 1.415 . S
C408 C413 1.425 . S
C408 C415 1.409 . S
C409 H401 0.930 . S
C409 C407 1.419 . S
C409 C410 1.362 . S
C410 H402 0.930 . S
C410 C409 1.362 . S
C410 C413 1.409 . S
C411 H403 0.930 . S
C411 C412 1.355 . S
C411 C413 1.415 . S
C412 C411 1.355 . S
C412 C414 1.419 . S
C413 C408 1.425 . S
C413 C410 1.409 . S
C413 C411 1.415 . S
C414 H404 0.930 . S
C414 C412 1.419 . S
C414 C415 1.362 . S
C415 H405 0.930 . S
C415 C408 1.409 . S
C415 C414 1.362 . S
C236 C201 1.509 1_556 S
C231 C29 1.551 . S
C247 C8 1.531 . S
C252 C162 1.506 . S
C263 C0 1.516 . S
C268 C206 1.458 . S
C279 C17 1.546 . S
C284 C167 1.516 . S
C295 C63 1.546 . S
C300 C123 1.494 . S
C311 C42 1.521 . S
C316 C84 1.438 . S
C332 C128 1.441 . S
C327 C34 1.515 . S
C348 C89 1.467 . S
C343 C51 1.533 . S
C359 C4 1.479 . S
C364 C69 1.480 1_465 S
C375 C13 1.486 . S
C380 C108 1.481 . S
C396 C147 1.481 . S
C391 C38 1.477 . S
C407 C47 1.483 . S
C412 C186 1.480 . S
