# Generated by pormake.
# Topology ssa, (4,4)-cn, num edge types: 1
# Building blocks:
#     Node 0, Type 0, BuildingBlock: NAWXER_clean_sbu_0, # of connection points: 4
#     Node 1, Type 0, BuildingBlock: NAWXER_clean_sbu_0, # of connection points: 4
#     Node 2, Type 0, BuildingBlock: NAWXER_clean_sbu_0, # of connection points: 4
#     Node 3, Type 0, BuildingBlock: NAWXER_clean_sbu_0, # of connection points: 4
#     Node 4, Type 0, BuildingBlock: NAWXER_clean_sbu_0, # of connection points: 4
#     Node 5, Type 0, BuildingBlock: NAWXER_clean_sbu_0, # of connection points: 4
#     Node 6, Type 1, BuildingBlock: AZAVOO_clean_linker_0, # of connection points: 4
#     Node 7, Type 1, BuildingBlock: AZAVOO_clean_linker_0, # of connection points: 4
#     Node 8, Type 1, BuildingBlock: AZAVOO_clean_linker_0, # of connection points: 4
#     Node 9, Type 1, BuildingBlock: AZAVOO_clean_linker_0, # of connection points: 4
#     Node 10, Type 1, BuildingBlock: AZAVOO_clean_linker_0, # of connection points: 4
#     Node 11, Type 1, BuildingBlock: AZAVOO_clean_linker_0, # of connection points: 4
#     Edge 12, Type (0, 1), BuildingBlock: EZIPEK_clean_linker_0, # of connection points: 2
#     Edge 13, Type (0, 1), BuildingBlock: EZIPEK_clean_linker_0, # of connection points: 2
#     Edge 14, Type (0, 1), BuildingBlock: EZIPEK_clean_linker_0, # of connection points: 2
#     Edge 15, Type (0, 1), BuildingBlock: EZIPEK_clean_linker_0, # of connection points: 2
#     Edge 16, Type (0, 1), BuildingBlock: EZIPEK_clean_linker_0, # of connection points: 2
#     Edge 17, Type (0, 1), BuildingBlock: EZIPEK_clean_linker_0, # of connection points: 2
#     Edge 18, Type (0, 1), BuildingBlock: EZIPEK_clean_linker_0, # of connection points: 2
#     Edge 19, Type (0, 1), BuildingBlock: EZIPEK_clean_linker_0, # of connection points: 2
#     Edge 20, Type (0, 1), BuildingBlock: EZIPEK_clean_linker_0, # of connection points: 2
#     Edge 21, Type (0, 1), BuildingBlock: EZIPEK_clean_linker_0, # of connection points: 2
#     Edge 22, Type (0, 1), BuildingBlock: EZIPEK_clean_linker_0, # of connection points: 2
#     Edge 23, Type (0, 1), BuildingBlock: EZIPEK_clean_linker_0, # of connection points: 2
#     Edge 24, Type (0, 1), BuildingBlock: EZIPEK_clean_linker_0, # of connection points: 2
#     Edge 25, Type (0, 1), BuildingBlock: EZIPEK_clean_linker_0, # of connection points: 2
#     Edge 26, Type (0, 1), BuildingBlock: EZIPEK_clean_linker_0, # of connection points: 2
#     Edge 27, Type (0, 1), BuildingBlock: EZIPEK_clean_linker_0, # of connection points: 2
#     Edge 28, Type (0, 1), BuildingBlock: EZIPEK_clean_linker_0, # of connection points: 2
#     Edge 29, Type (0, 1), BuildingBlock: EZIPEK_clean_linker_0, # of connection points: 2
#     Edge 30, Type (0, 1), BuildingBlock: EZIPEK_clean_linker_0, # of connection points: 2
#     Edge 31, Type (0, 1), BuildingBlock: EZIPEK_clean_linker_0, # of connection points: 2
#     Edge 32, Type (0, 1), BuildingBlock: EZIPEK_clean_linker_0, # of connection points: 2
#     Edge 33, Type (0, 1), BuildingBlock: EZIPEK_clean_linker_0, # of connection points: 2
#     Edge 34, Type (0, 1), BuildingBlock: EZIPEK_clean_linker_0, # of connection points: 2
#     Edge 35, Type (0, 1), BuildingBlock: EZIPEK_clean_linker_0, # of connection points: 2
# Relax obj value: 0.094
# Max RMSD: 0.237
# Mean RMSD: 0.131
data_MOF--net-ssa--node1-NAWXER_clean_sbu_0--node2-AZAVOO_clean_linker_0--edge1-EZIPEK_clean_linker_0
_symmetry_space_group_name_H-M    P1
_symmetry_Int_Tables_number       1
_symmetry_cell_setting            triclinic
loop_
_symmetry_equiv_pos_as_xyz
'x, y, z'
_cell_length_a     37.652426
_cell_length_b     37.980391
_cell_length_c     35.51807
_cell_angle_alpha  89.71575
_cell_angle_beta   93.537074
_cell_angle_gamma 120.26014
loop_
_atom_site_label
_atom_site_type_symbol
_atom_site_fract_x
_atom_site_fract_y
_atom_site_fract_z
_atom_type_partial_charge
C0 C 0.16706 0.61136 0.05508 0.0
C1 C 0.11018 0.50167 0.95929 0.0
O2 O 0.13651 0.57821 0.0654 0.0
Zn3 Zn 0.0965 0.51841 0.04469 0.0
O4 O 0.17955 0.61312 0.02232 0.0
Zn5 Zn 0.13926 0.55726 0.00519 0.0
O6 O 0.08062 0.55437 0.0016 0.0
O7 O 0.04337 0.51493 0.04627 0.0
O8 O 0.13943 0.53794 0.95501 0.0
O9 O 0.09247 0.49142 0.99044 0.0
O10 O 0.11223 0.48709 0.07823 0.0
O11 O 0.15835 0.52098 0.03711 0.0
C12 C 0.04697 0.53751 0.01849 0.0
C13 C 0.14598 0.49605 0.06415 0.0
C14 C 0.59239 0.0381 0.60875 0.0
C15 C 0.63654 0.95838 0.54017 0.0
O16 O 0.59068 0.00485 0.61732 0.0
Zn17 Zn 0.61518 0.99881 0.57398 0.0
O18 O 0.60786 0.05514 0.57793 0.0
Zn19 Zn 0.6353 0.0424 0.53207 0.0
O20 O 0.60117 0.0396 0.48923 0.0
O21 O 0.57038 0.98773 0.52708 0.0
O22 O 0.64326 0.99058 0.52261 0.0
O23 O 0.62039 0.95102 0.57168 0.0
O24 O 0.67863 0.04746 0.58216 0.0
O25 O 0.69038 0.08721 0.53335 0.0
C26 C 0.5698 0.00609 0.49674 0.0
C27 C 0.70309 0.07905 0.56417 0.0
C28 C 0.57416 0.43835 0.06156 0.0
C29 C 0.64776 0.54635 0.15817 0.0
O30 O 0.56964 0.46919 0.05536 0.0
Zn31 Zn 0.58638 0.52603 0.08371 0.0
O32 O 0.59173 0.43674 0.09271 0.0
Zn33 Zn 0.60808 0.4908 0.11209 0.0
O34 O 0.55226 0.48366 0.13222 0.0
O35 O 0.53488 0.52114 0.09675 0.0
O36 O 0.64592 0.51206 0.15664 0.0
O37 O 0.62769 0.5551 0.13301 0.0
O38 O 0.61539 0.56286 0.04466 0.0
O39 O 0.64504 0.52881 0.06758 0.0
C40 C 0.52759 0.49693 0.12374 0.0
C41 C 0.64373 0.55399 0.04407 0.0
C42 C 0.09093 0.56142 0.52405 0.0
C43 C 0.05176 0.44814 0.60903 0.0
O44 O 0.11238 0.55907 0.55198 0.0
Zn45 Zn 0.07281 0.50491 0.56749 0.0
O46 O 0.05452 0.5316 0.516 0.0
Zn47 Zn 0.01599 0.47134 0.53402 0.0
O48 O 0.96767 0.47314 0.54615 0.0
O49 O 0.0224 0.51034 0.5854 0.0
O50 O 0.02444 0.4408 0.58202 0.0
O51 O 0.08562 0.48197 0.61108 0.0
O52 O 0.07388 0.46784 0.52379 0.0
O53 O 0.0143 0.43934 0.49053 0.0
C54 C 0.9844 0.49684 0.57506 0.0
C55 C 0.05079 0.4456 0.4956 0.0
C56 C 0.64883 0.02451 0.13751 0.0
C57 C 0.58817 0.10226 0.08171 0.0
O58 O 0.6536 0.05796 0.15037 0.0
Zn59 Zn 0.61804 0.06434 0.11211 0.0
O60 O 0.6247 0.00752 0.10808 0.0
Zn61 Zn 0.58286 0.01558 0.0715 0.0
O62 O 0.60269 0.01411 0.02348 0.0
O63 O 0.64664 0.06748 0.06015 0.0
O64 O 0.57555 0.06743 0.06559 0.0
O65 O 0.61285 0.11285 0.11103 0.0
O66 O 0.55922 0.02019 0.12889 0.0
O67 O 0.52944 0.97155 0.08485 0.0
C68 C 0.63746 0.04667 0.02904 0.0
C69 C 0.52873 0.98593 0.11684 0.0
C70 C 0.59468 0.57412 0.64515 0.0
C71 C 0.49863 0.49636 0.53734 0.0
O72 O 0.55945 0.57062 0.63786 0.0
Zn73 Zn 0.54568 0.53525 0.59344 0.0
O74 O 0.60775 0.55693 0.6233 0.0
Zn75 Zn 0.58657 0.51719 0.5737 0.0
O76 O 0.62558 0.55005 0.53738 0.0
O77 O 0.59008 0.5772 0.55687 0.0
O78 O 0.53076 0.49293 0.53947 0.0
O79 O 0.49391 0.51648 0.56308 0.0
O80 O 0.54266 0.48282 0.62023 0.0
O81 O 0.58672 0.46985 0.59382 0.0
C82 C 0.61774 0.57896 0.53644 0.0
C83 C 0.56043 0.46169 0.61814 0.0
H84 H 0.25758 0.43566 0.54859 0.0
H85 H 0.01099 0.3111 0.16108 0.0
H86 H 0.34212 0.48526 0.34672 0.0
H87 H 0.39546 0.50334 0.39833 0.0
H88 H 0.36354 0.37743 0.40417 0.0
H89 H 0.31043 0.35941 0.35205 0.0
H90 H 0.26126 0.46099 0.38597 0.0
H91 H 0.26234 0.46218 0.45496 0.0
H92 H 0.23811 0.33811 0.45516 0.0
H93 H 0.23749 0.33753 0.38616 0.0
H94 H 0.18444 0.444 0.31494 0.0
H95 H 0.13598 0.44757 0.3549 0.0
H96 H 0.11509 0.33722 0.40858 0.0
H97 H 0.16107 0.3315 0.36578 0.0
H98 H 0.19541 0.44644 0.24145 0.0
H99 H 0.13488 0.43145 0.19999 0.0
H100 H 0.08074 0.3034 0.22382 0.0
H101 H 0.14197 0.31875 0.26464 0.0
H102 H 0.28295 0.47666 0.22782 0.0
H103 H 0.26585 0.49143 0.16583 0.0
H104 H 0.19309 0.36127 0.13947 0.0
H105 H 0.21071 0.34809 0.20157 0.0
H106 H 0.34862 0.489 0.27369 0.0
H107 H 0.40785 0.51017 0.23518 0.0
H108 H 0.36458 0.38415 0.20619 0.0
H109 H 0.30494 0.36308 0.24424 0.0
O110 O 0.2571 0.43455 0.52134 0.0
O111 O 0.24487 0.37084 0.51993 0.0
O112 O 0.06486 0.38395 0.16561 0.0
O113 O 0.03502 0.31794 0.17779 0.0
C114 C 0.28454 0.40923 0.32129 0.0
C115 C 0.2481 0.39847 0.33937 0.0
C116 C 0.21174 0.39048 0.31796 0.0
C117 C 0.21158 0.39222 0.2783 0.0
C118 C 0.24813 0.40346 0.26012 0.0
C119 C 0.28467 0.41201 0.28158 0.0
C120 C 0.32293 0.42116 0.34515 0.0
C121 C 0.34767 0.46182 0.35811 0.0
C122 C 0.37763 0.47202 0.38783 0.0
C123 C 0.38303 0.44162 0.40519 0.0
C124 C 0.35966 0.40122 0.39112 0.0
C125 C 0.3298 0.39106 0.36119 0.0
C126 C 0.24918 0.39915 0.38122 0.0
C127 C 0.25627 0.43416 0.40103 0.0
C128 C 0.25681 0.43471 0.4404 0.0
C129 C 0.25002 0.40013 0.46057 0.0
C130 C 0.24321 0.36517 0.44049 0.0
C131 C 0.24292 0.36476 0.40114 0.0
C132 C 0.1765 0.38756 0.33743 0.0
C133 C 0.16789 0.41935 0.33384 0.0
C134 C 0.14035 0.4215 0.35677 0.0
C135 C 0.12214 0.39277 0.38475 0.0
C136 C 0.12863 0.35949 0.38695 0.0
C137 C 0.15519 0.35654 0.3629 0.0
C138 C 0.17328 0.3836 0.25569 0.0
C139 C 0.17048 0.41516 0.23763 0.0
C140 C 0.13582 0.40653 0.21403 0.0
C141 C 0.10305 0.36617 0.20841 0.0
C142 C 0.1055 0.33478 0.2274 0.0
C143 C 0.14033 0.34345 0.25086 0.0
C144 C 0.24864 0.41133 0.2191 0.0
C145 C 0.26524 0.45152 0.20767 0.0
C146 C 0.25507 0.45977 0.17161 0.0
C147 C 0.22856 0.42806 0.14521 0.0
C148 C 0.21408 0.38754 0.15671 0.0
C149 C 0.22443 0.37943 0.19293 0.0
C150 C 0.32281 0.42449 0.26209 0.0
C151 C 0.35229 0.46595 0.25954 0.0
C152 C 0.38581 0.47799 0.23742 0.0
C153 C 0.39048 0.4487 0.2178 0.0
C154 C 0.36146 0.40717 0.22109 0.0
C155 C 0.3277 0.39517 0.2429 0.0
C156 C 0.25045 0.40078 0.50237 0.0
C157 C 0.06657 0.35674 0.18267 0.0
H158 H 0.89763 0.26935 0.06094 0.0
H159 H 0.68677 0.94805 0.74723 0.0
H160 H 0.91118 0.29813 0.86508 0.0
H161 H 0.96671 0.36487 0.88937 0.0
H162 H 0.05693 0.33702 0.85199 0.0
H163 H 0.0012 0.26897 0.82966 0.0
H164 H 0.84455 0.22838 0.9011 0.0
H165 H 0.85644 0.24643 0.96852 0.0
H166 H 0.96497 0.23453 0.97289 0.0
H167 H 0.95229 0.21579 0.90555 0.0
H168 H 0.77846 0.16087 0.83754 0.0
H169 H 0.72418 0.12552 0.88109 0.0
H170 H 0.80413 0.09694 0.95012 0.0
H171 H 0.85798 0.13044 0.90508 0.0
H172 H 0.78259 0.15119 0.76027 0.0
H173 H 0.72412 0.08641 0.7359 0.0
H174 H 0.77872 0.02201 0.7921 0.0
H175 H 0.83741 0.08712 0.81579 0.0
H176 H 0.84915 0.22818 0.73165 0.0
H177 H 0.82516 0.2114 0.66697 0.0
H178 H 0.85735 0.11635 0.67037 0.0
H179 H 0.88202 0.13502 0.73517 0.0
H180 H 0.906 0.29479 0.77382 0.0
H181 H 0.94686 0.34751 0.72957 0.0
H182 H 0.01641 0.288 0.71047 0.0
H183 H 0.97406 0.23406 0.7538 0.0
O184 O 0.89326 0.26174 0.03437 0.0
O185 O 0.94894 0.2555 0.03503 0.0
O186 O 0.68322 0.00874 0.72752 0.0
O187 O 0.70965 0.97412 0.75634 0.0
C188 C 0.91829 0.23779 0.83229 0.0
C189 C 0.89052 0.20993 0.85741 0.0
C190 C 0.85576 0.17314 0.84311 0.0
C191 C 0.85029 0.16326 0.80405 0.0
C192 C 0.87793 0.19139 0.77904 0.0
C193 C 0.91151 0.22882 0.79314 0.0
C194 C 0.9522 0.27838 0.84643 0.0
C195 C 0.9429 0.30611 0.86264 0.0
C196 C 0.97446 0.34424 0.87604 0.0
C197 C 0.01576 0.35556 0.87264 0.0
C198 C 0.02517 0.32857 0.85498 0.0
C199 C 0.99352 0.28992 0.8424 0.0
C200 C 0.89728 0.2203 0.89853 0.0
C201 C 0.87061 0.22925 0.91675 0.0
C202 C 0.87761 0.23976 0.95523 0.0
C203 C 0.91164 0.24189 0.97612 0.0
C204 C 0.93842 0.23309 0.95767 0.0
C205 C 0.93126 0.22238 0.91923 0.0
C206 C 0.82211 0.148 0.86796 0.0
C207 C 0.78392 0.14589 0.86136 0.0
C208 C 0.7531 0.12603 0.88628 0.0
C209 C 0.76031 0.10885 0.91877 0.0
C210 C 0.79809 0.10999 0.92507 0.0
C211 C 0.82871 0.12911 0.89955 0.0
C212 C 0.81455 0.12389 0.78933 0.0
C213 C 0.78212 0.1231 0.76692 0.0
C214 C 0.74863 0.08603 0.75322 0.0
C215 C 0.74681 0.049 0.76195 0.0
C216 C 0.7792 0.04994 0.78474 0.0
C217 C 0.81275 0.08707 0.79833 0.0
C218 C 0.86867 0.18383 0.73776 0.0
C219 C 0.85304 0.20524 0.71755 0.0
C220 C 0.83968 0.19556 0.67967 0.0
C221 C 0.84199 0.16436 0.66021 0.0
C222 C 0.85744 0.14266 0.68153 0.0
C223 C 0.87115 0.15273 0.71953 0.0
C224 C 0.93699 0.26061 0.76668 0.0
C225 C 0.92992 0.29303 0.75994 0.0
C226 C 0.95321 0.32302 0.73487 0.0
C227 C 0.98443 0.32144 0.71668 0.0
C228 C 0.99223 0.28948 0.7241 0.0
C229 C 0.96818 0.25886 0.74863 0.0
C230 C 0.9192 0.25342 0.01693 0.0
C231 C 0.71126 0.00952 0.7475 0.0
H232 H 0.71708 0.782 0.07296 0.0
H233 H 0.79144 0.08115 0.38929 0.0
H234 H 0.66545 0.73973 0.26561 0.0
H235 H 0.65353 0.67645 0.23565 0.0
H236 H 0.7695 0.69679 0.28676 0.0
H237 H 0.78171 0.76087 0.31685 0.0
H238 H 0.68107 0.81052 0.22391 0.0
H239 H 0.68514 0.7977 0.15738 0.0
H240 H 0.80533 0.8115 0.18336 0.0
H241 H 0.80119 0.82502 0.24976 0.0
H242 H 0.6696 0.86317 0.28311 0.0
H243 H 0.65639 0.90818 0.24327 0.0
H244 H 0.77798 0.96019 0.20249 0.0
H245 H 0.79252 0.9167 0.24539 0.0
H246 H 0.67676 0.88065 0.35312 0.0
H247 H 0.68199 0.94502 0.37256 0.0
H248 H 0.81321 0.00764 0.35997 0.0
H249 H 0.80741 0.94307 0.34051 0.0
H250 H 0.65787 0.78945 0.38993 0.0
H251 H 0.63135 0.80827 0.4427 0.0
H252 H 0.75049 0.91585 0.46572 0.0
H253 H 0.77828 0.89463 0.41568 0.0
H254 H 0.66128 0.72416 0.34305 0.0
H255 H 0.64134 0.67109 0.38946 0.0
H256 H 0.75013 0.75038 0.46065 0.0
H257 H 0.77224 0.80253 0.41226 0.0
O258 O 0.71635 0.78769 0.09935 0.0
O259 O 0.77779 0.79453 0.1143 0.0
O260 O 0.72102 0.02145 0.38844 0.0
O261 O 0.78849 0.05534 0.38163 0.0
C262 C 0.73252 0.79502 0.30813 0.0
C263 C 0.73819 0.82566 0.28227 0.0
C264 C 0.73945 0.86137 0.29492 0.0
C265 C 0.73853 0.86821 0.33373 0.0
C266 C 0.73167 0.83732 0.35974 0.0
C267 C 0.72881 0.80058 0.3469 0.0
C268 C 0.72462 0.75506 0.29311 0.0
C269 C 0.68827 0.73053 0.27054 0.0
C270 C 0.68139 0.69446 0.25361 0.0
C271 C 0.71071 0.68223 0.25893 0.0
C272 C 0.74661 0.70595 0.28242 0.0
C273 C 0.75352 0.74228 0.29951 0.0
C274 C 0.74113 0.81934 0.24157 0.0
C275 C 0.70854 0.81141 0.21509 0.0
C276 C 0.71082 0.80379 0.17713 0.0
C277 C 0.7456 0.80364 0.16502 0.0
C278 C 0.77816 0.81151 0.1917 0.0
C279 C 0.77591 0.81931 0.22962 0.0
C280 C 0.73226 0.88726 0.26769 0.0
C281 C 0.69378 0.88476 0.26616 0.0
C282 C 0.68624 0.91037 0.24342 0.0
C283 C 0.7164 0.93792 0.22035 0.0
C284 C 0.75462 0.93961 0.22065 0.0
C285 C 0.76274 0.91465 0.24468 0.0
C286 C 0.74178 0.90714 0.3462 0.0
C287 C 0.70661 0.90826 0.35512 0.0
C288 C 0.70969 0.94504 0.36602 0.0
C289 C 0.74809 0.9814 0.36819 0.0
C290 C 0.78322 0.98018 0.35882 0.0
C291 C 0.78003 0.94337 0.34775 0.0
C292 C 0.71993 0.84116 0.39826 0.0
C293 C 0.679 0.81579 0.40766 0.0
C294 C 0.66368 0.82677 0.43753 0.0
C295 C 0.68848 0.86435 0.45695 0.0
C296 C 0.73057 0.88718 0.45049 0.0
C297 C 0.74642 0.87508 0.42193 0.0
C298 C 0.7188 0.76704 0.37365 0.0
C299 C 0.682 0.72955 0.36764 0.0
C300 C 0.67035 0.6994 0.39437 0.0
C301 C 0.69435 0.70676 0.4284 0.0
C302 C 0.73147 0.74396 0.43437 0.0
C303 C 0.74389 0.77369 0.40692 0.0
C304 C 0.74772 0.79504 0.12475 0.0
C305 C 0.75154 0.0205 0.38003 0.0
H306 H 0.78929 0.65353 0.57883 0.0
H307 H 0.04568 0.52412 0.80109 0.0
H308 H 0.81194 0.66515 0.80066 0.0
H309 H 0.75481 0.67298 0.77315 0.0
H310 H 0.67875 0.54214 0.76076 0.0
H311 H 0.73425 0.53445 0.79148 0.0
H312 H 0.86623 0.65914 0.72858 0.0
H313 H 0.84346 0.66849 0.66516 0.0
H314 H 0.74114 0.54451 0.66307 0.0
H315 H 0.76472 0.53541 0.72616 0.0
H316 H 0.93764 0.62869 0.7413 0.0
H317 H 0.96347 0.60798 0.68861 0.0
H318 H 0.84815 0.49425 0.67562 0.0
H319 H 0.82262 0.51457 0.72838 0.0
H320 H 0.95689 0.63278 0.83822 0.0
H321 H 0.01767 0.62493 0.84295 0.0
H322 H 0.94496 0.50396 0.79184 0.0
H323 H 0.88437 0.512 0.78759 0.0
H324 H 0.89631 0.62987 0.90533 0.0
H325 H 0.93527 0.61991 0.95842 0.0
H326 H 0.90035 0.50138 0.91137 0.0
H327 H 0.85802 0.50948 0.86121 0.0
H328 H 0.82461 0.65178 0.86995 0.0
H329 H 0.78106 0.64893 0.92003 0.0
H330 H 0.74067 0.5216 0.93391 0.0
H331 H 0.78271 0.52395 0.88269 0.0
O332 O 0.79782 0.64907 0.60379 0.0
O333 O 0.74583 0.58506 0.60403 0.0
O334 O 0.05544 0.58519 0.83538 0.0
O335 O 0.02168 0.52717 0.80131 0.0
C336 C 0.81382 0.59413 0.80277 0.0
C337 C 0.83174 0.59105 0.77004 0.0
C338 C 0.864 0.58245 0.77308 0.0
C339 C 0.87974 0.57855 0.80895 0.0
C340 C 0.86092 0.58 0.84189 0.0
C341 C 0.82805 0.5882 0.83879 0.0
C342 C 0.77724 0.59921 0.79778 0.0
C343 C 0.78221 0.63822 0.79385 0.0
C344 C 0.7498 0.64266 0.77785 0.0
C345 C 0.71318 0.6082 0.76343 0.0
C346 C 0.707 0.5692 0.77093 0.0
C347 C 0.7386 0.56477 0.78858 0.0
C348 C 0.81682 0.59681 0.73208 0.0
C349 C 0.83885 0.63412 0.71438 0.0
C350 C 0.82583 0.63931 0.67814 0.0
C351 C 0.79048 0.60723 0.65902 0.0
C352 C 0.76847 0.56984 0.67697 0.0
C353 C 0.7817 0.56464 0.7131 0.0
C354 C 0.87827 0.57314 0.7385 0.0
C355 C 0.91774 0.5997 0.72658 0.0
C356 C 0.93234 0.58799 0.6966 0.0
C357 C 0.90749 0.54975 0.67834 0.0
C358 C 0.86746 0.524 0.68925 0.0
C359 C 0.85297 0.5356 0.71921 0.0
C360 C 0.91638 0.57324 0.81204 0.0
C361 C 0.95417 0.60462 0.82804 0.0
C362 C 0.98881 0.60004 0.83075 0.0
C363 C 0.98624 0.56397 0.81734 0.0
C364 C 0.94811 0.53231 0.80196 0.0
C365 C 0.91348 0.53688 0.79938 0.0
C366 C 0.87516 0.57082 0.87879 0.0
C367 C 0.89557 0.60106 0.90745 0.0
C368 C 0.91813 0.59552 0.93748 0.0
C369 C 0.92202 0.56051 0.93817 0.0
C370 C 0.89849 0.52894 0.91127 0.0
C371 C 0.87441 0.53362 0.88253 0.0
C372 C 0.80654 0.58798 0.87246 0.0
C373 C 0.8065 0.62332 0.88389 0.0
C374 C 0.78191 0.62178 0.91247 0.0
C375 C 0.75772 0.58506 0.93048 0.0
C376 C 0.75926 0.5502 0.9203 0.0
C377 C 0.78329 0.55158 0.89128 0.0
C378 C 0.7766 0.61292 0.62062 0.0
C379 C 0.02323 0.55949 0.81878 0.0
H380 H 0.31797 0.90316 0.55809 0.0
H381 H 0.07062 0.55833 0.25449 0.0
H382 H 0.34242 0.92334 0.35035 0.0
H383 H 0.40723 0.96918 0.38777 0.0
H384 H 0.43947 0.87509 0.38848 0.0
H385 H 0.37537 0.82981 0.35114 0.0
H386 H 0.26764 0.8721 0.39688 0.0
H387 H 0.28363 0.89243 0.46392 0.0
H388 H 0.33612 0.81448 0.47898 0.0
H389 H 0.31992 0.79447 0.4119 0.0
H390 H 0.18501 0.78303 0.38551 0.0
H391 H 0.14346 0.73238 0.43189 0.0
H392 H 0.21237 0.67118 0.41824 0.0
H393 H 0.25331 0.72122 0.37209 0.0
H394 H 0.15869 0.75589 0.30283 0.0
H395 H 0.09639 0.69026 0.28667 0.0
H396 H 0.17157 0.63539 0.27327 0.0
H397 H 0.23353 0.7012 0.28927 0.0
H398 H 0.20723 0.78882 0.229 0.0
H399 H 0.18708 0.75035 0.16839 0.0
H400 H 0.29021 0.73082 0.18502 0.0
H401 H 0.30813 0.76595 0.24649 0.0
H402 H 0.31 0.89124 0.24858 0.0
H403 H 0.36299 0.92972 0.20378 0.0
H404 H 0.42143 0.85973 0.2338 0.0
H405 H 0.36974 0.82277 0.27947 0.0
O406 O 0.31162 0.89447 0.53176 0.0
O407 O 0.33828 0.85399 0.53798 0.0
O408 O 0.05734 0.61416 0.26855 0.0
O409 O 0.0947 0.58469 0.26078 0.0
C410 C 0.31279 0.84277 0.33286 0.0
C411 C 0.28333 0.82015 0.35898 0.0
C412 C 0.24663 0.78448 0.34691 0.0
C413 C 0.23805 0.77262 0.30832 0.0
C414 C 0.26684 0.79614 0.28175 0.0
C415 C 0.30449 0.83113 0.29421 0.0
C416 C 0.35473 0.87363 0.34764 0.0
C417 C 0.36419 0.91326 0.35757 0.0
C418 C 0.40078 0.93912 0.37905 0.0
C419 C 0.42769 0.92517 0.391 0.0
C420 C 0.41899 0.88624 0.37946 0.0
C421 C 0.38275 0.86065 0.35792 0.0
C422 C 0.2926 0.83185 0.39972 0.0
C423 C 0.28249 0.85942 0.41479 0.0
C424 C 0.29167 0.87096 0.45305 0.0
C425 C 0.31111 0.85504 0.47683 0.0
C426 C 0.32107 0.82725 0.46149 0.0
C427 C 0.31187 0.81576 0.42324 0.0
C428 C 0.22173 0.75534 0.37539 0.0
C429 C 0.19111 0.75876 0.39278 0.0
C430 C 0.16777 0.73022 0.41923 0.0
C431 C 0.17528 0.69845 0.4285 0.0
C432 C 0.20647 0.69572 0.41155 0.0
C433 C 0.22953 0.72397 0.38518 0.0
C434 C 0.20054 0.73333 0.29668 0.0
C435 C 0.16158 0.72971 0.29606 0.0
C436 C 0.1261 0.69218 0.28694 0.0
C437 C 0.12903 0.65759 0.27853 0.0
C438 C 0.16821 0.66142 0.27942 0.0
C439 C 0.20366 0.69899 0.28837 0.0
C440 C 0.25961 0.78084 0.24199 0.0
C441 C 0.22606 0.77714 0.21907 0.0
C442 C 0.21477 0.75553 0.18447 0.0
C443 C 0.23742 0.73813 0.17221 0.0
C444 C 0.27281 0.74463 0.19377 0.0
C445 C 0.28324 0.765 0.22875 0.0
C446 C 0.33614 0.85431 0.26718 0.0
C447 C 0.33433 0.88438 0.24547 0.0
C448 C 0.36428 0.90604 0.21988 0.0
C449 C 0.39582 0.89723 0.2153 0.0
C450 C 0.3972 0.86678 0.2368 0.0
C451 C 0.36791 0.84588 0.26289 0.0
C452 C 0.32119 0.86766 0.51736 0.0
C453 C 0.09145 0.6176 0.26901 0.0
H454 H 0.56395 0.24875 0.57592 0.0
H455 H 0.44897 0.97785 0.92765 0.0
H456 H 0.5935 0.314 0.78449 0.0
H457 H 0.60068 0.3667 0.74031 0.0
H458 H 0.46991 0.32069 0.73862 0.0
H459 H 0.4627 0.26756 0.78282 0.0
H460 H 0.58714 0.24315 0.73977 0.0
H461 H 0.58974 0.24935 0.67122 0.0
H462 H 0.46011 0.2112 0.66147 0.0
H463 H 0.45812 0.20554 0.7301 0.0
H464 H 0.5842 0.17254 0.79699 0.0
H465 H 0.59729 0.13311 0.7514 0.0
H466 H 0.47943 0.09538 0.69241 0.0
H467 H 0.46481 0.13225 0.74017 0.0
H468 H 0.57685 0.16245 0.86449 0.0
H469 H 0.56627 0.10103 0.89637 0.0
H470 H 0.43438 0.04863 0.87786 0.0
H471 H 0.44545 0.11042 0.84619 0.0
H472 H 0.59453 0.23205 0.8958 0.0
H473 H 0.6065 0.21134 0.95825 0.0
H474 H 0.47974 0.16778 0.98057 0.0
H475 H 0.46655 0.18345 0.91579 0.0
H476 H 0.58854 0.32181 0.85978 0.0
H477 H 0.59752 0.36894 0.91146 0.0
H478 H 0.4736 0.28607 0.94173 0.0
H479 H 0.46359 0.24079 0.88813 0.0
O480 O 0.56227 0.24614 0.60296 0.0
O481 O 0.49574 0.22701 0.59955 0.0
O482 O 0.5221 0.03038 0.92307 0.0
O483 O 0.45405 0.00211 0.91437 0.0
C484 C 0.52239 0.24972 0.80484 0.0
C485 C 0.52068 0.2189 0.7812 0.0
C486 C 0.51877 0.18378 0.79688 0.0
C487 C 0.51784 0.17917 0.83623 0.0
C488 C 0.52116 0.21058 0.86003 0.0
C489 C 0.52247 0.24555 0.84444 0.0
C490 C 0.52768 0.28738 0.78725 0.0
C491 C 0.56662 0.31618 0.77568 0.0
C492 C 0.57063 0.34585 0.75021 0.0
C493 C 0.53575 0.34717 0.73598 0.0
C494 C 0.4971 0.31995 0.74927 0.0
C495 C 0.49307 0.29008 0.77475 0.0
C496 C 0.52251 0.22411 0.73978 0.0
C497 C 0.55945 0.23641 0.72274 0.0
C498 C 0.56079 0.23982 0.6836 0.0
C499 C 0.52513 0.23079 0.66085 0.0
C500 C 0.48812 0.21836 0.67815 0.0
C501 C 0.48692 0.21531 0.71732 0.0
C502 C 0.52326 0.1548 0.77236 0.0
C503 C 0.56034 0.1543 0.77532 0.0
C504 C 0.56806 0.1323 0.749 0.0
C505 C 0.53943 0.11151 0.71844 0.0
C506 C 0.50183 0.11111 0.71587 0.0
C507 C 0.49354 0.13211 0.74302 0.0
C508 C 0.5119 0.14076 0.85283 0.0
C509 C 0.54571 0.13752 0.86697 0.0
C510 C 0.53957 0.10244 0.88529 0.0
C511 C 0.49945 0.06989 0.88969 0.0
C512 C 0.46567 0.07308 0.87494 0.0
C513 C 0.47189 0.10825 0.85671 0.0
C514 C 0.52964 0.2089 0.90114 0.0
C515 C 0.56947 0.21864 0.91438 0.0
C516 C 0.57629 0.2069 0.95006 0.0
C517 C 0.54376 0.18706 0.97386 0.0
C518 C 0.50508 0.18228 0.96239 0.0
C519 C 0.49762 0.19164 0.92565 0.0
C520 C 0.52545 0.27775 0.87025 0.0
C521 C 0.5628 0.3146 0.87658 0.0
C522 C 0.56803 0.34122 0.9063 0.0
C523 C 0.5364 0.33077 0.93081 0.0
C524 C 0.49844 0.29476 0.92332 0.0
C525 C 0.49278 0.26891 0.89283 0.0
C526 C 0.52665 0.23447 0.61929 0.0
C527 C 0.49273 0.033 0.91001 0.0
C528 C 0.14921 0.43269 0.08001 0.0
C529 C 0.16984 0.47591 0.07674 0.0
C530 C 0.23515 0.47894 0.09607 0.0
C531 C 0.21277 0.43891 0.10916 0.0
N532 N 0.1588 0.3745 0.08328 0.0
N533 N 0.23491 0.54045 0.07985 0.0
C534 C 0.17212 0.41406 0.09315 0.0
C535 C 0.21372 0.49906 0.08317 0.0
N536 N 0.10823 0.40912 0.06934 0.0
N537 N 0.27688 0.49688 0.0951 0.0
H538 H 0.22149 0.55737 0.07078 0.0
H539 H 0.26589 0.55869 0.08886 0.0
H540 H 0.29219 0.48128 0.10345 0.0
H541 H 0.29513 0.52467 0.0826 0.0
H542 H 0.09088 0.37853 0.07615 0.0
H543 H 0.09137 0.42014 0.05434 0.0
H544 H 0.13026 0.3551 0.06927 0.0
H545 H 0.17957 0.36403 0.08231 0.0
C546 C 0.76314 0.14784 0.58496 0.0
C547 C 0.74636 0.1052 0.57888 0.0
C548 C 0.81143 0.11225 0.60502 0.0
C549 C 0.82183 0.15067 0.62059 0.0
N550 N 0.82617 0.21231 0.59832 0.0
N551 N 0.75794 0.04808 0.57635 0.0
C552 C 0.80364 0.17113 0.60187 0.0
C553 C 0.77168 0.08774 0.58655 0.0
N554 N 0.7399 0.16571 0.57752 0.0
N555 N 0.84139 0.10241 0.60276 0.0
H556 H 0.73067 0.03029 0.55977 0.0
H557 H 0.77321 0.03272 0.58534 0.0
H558 H 0.87215 0.12354 0.61084 0.0
H559 H 0.83683 0.07628 0.58873 0.0
H560 H 0.75018 0.19596 0.58524 0.0
H561 H 0.70935 0.14975 0.56663 0.0
H562 H 0.81562 0.22859 0.58211 0.0
H563 H 0.857 0.22891 0.60871 0.0
C564 C 0.6576 0.57197 0.22535 0.0
C565 C 0.67248 0.57683 0.18885 0.0
C566 C 0.72044 0.64938 0.20249 0.0
C567 C 0.70369 0.6453 0.23802 0.0
N568 N 0.66494 0.60239 0.28762 0.0
N569 N 0.72708 0.61503 0.14826 0.0
C570 C 0.67522 0.60626 0.25098 0.0
C571 C 0.70699 0.614 0.1793 0.0
N572 N 0.62542 0.53522 0.23471 0.0
N573 N 0.74734 0.68721 0.19001 0.0
H574 H 0.71825 0.58886 0.13176 0.0
H575 H 0.75462 0.64032 0.14129 0.0
H576 H 0.75866 0.71381 0.20654 0.0
H577 H 0.7566 0.69249 0.16252 0.0
H578 H 0.60999 0.53055 0.25919 0.0
H579 H 0.61286 0.50935 0.21697 0.0
H580 H 0.6468 0.57456 0.3 0.0
H581 H 0.67751 0.62723 0.3067 0.0
C582 C 0.9462 0.53364 0.58706 0.0
C583 C 0.95991 0.5066 0.59931 0.0
C584 C 0.94033 0.50896 0.66326 0.0
C585 C 0.9249 0.53454 0.65073 0.0
N586 N 0.90653 0.56604 0.60009 0.0
N587 N 0.96203 0.46138 0.64612 0.0
C588 C 0.92575 0.54527 0.61235 0.0
C589 C 0.95455 0.49211 0.63658 0.0
N590 N 0.9544 0.54959 0.55195 0.0
N591 N 0.94259 0.5018 0.70087 0.0
H592 H 0.97161 0.44766 0.62696 0.0
H593 H 0.95499 0.44674 0.67174 0.0
H594 H 0.93169 0.5129 0.72127 0.0
H595 H 0.9581 0.48757 0.71228 0.0
H596 H 0.94947 0.57297 0.54287 0.0
H597 H 0.96873 0.54123 0.53253 0.0
H598 H 0.9023 0.57112 0.57177 0.0
H599 H 0.89201 0.57566 0.61811 0.0
C600 C 0.45245 0.94431 0.12657 0.0
C601 C 0.49408 0.96294 0.14148 0.0
C602 C 0.47014 0.94499 0.20516 0.0
C603 C 0.42904 0.92124 0.18966 0.0
N604 N 0.38166 0.89236 0.13459 0.0
N605 N 0.54177 0.97205 0.19486 0.0
C606 C 0.42027 0.91916 0.15003 0.0
C607 C 0.50278 0.96086 0.18077 0.0
N608 N 0.44332 0.95214 0.09079 0.0
N609 N 0.47809 0.9533 0.24316 0.0
H610 H 0.5667 0.98202 0.17821 0.0
H611 H 0.54845 0.96701 0.2226 0.0
H612 H 0.4549 0.94319 0.26199 0.0
H613 H 0.50732 0.97383 0.25536 0.0
H614 H 0.41331 0.94234 0.08003 0.0
H615 H 0.46569 0.97211 0.07331 0.0
H616 H 0.3748 0.88674 0.1056 0.0
H617 H 0.3574 0.87299 0.15074 0.0
C618 C 0.53094 0.3894 0.63906 0.0
C619 C 0.55431 0.43181 0.64766 0.0
C620 C 0.56002 0.41826 0.71471 0.0
C621 C 0.53994 0.37597 0.70574 0.0
N622 N 0.51178 0.32122 0.65875 0.0
N623 N 0.5989 0.48669 0.69203 0.0
C624 C 0.52678 0.36145 0.6677 0.0
C625 C 0.57096 0.4463 0.68508 0.0
N626 N 0.51196 0.37586 0.60381 0.0
N627 N 0.56793 0.4316 0.75162 0.0
H628 H 0.60924 0.50785 0.67077 0.0
H629 H 0.61511 0.49844 0.71802 0.0
H630 H 0.56027 0.41184 0.77411 0.0
H631 H 0.57854 0.46175 0.7599 0.0
H632 H 0.4908 0.34537 0.59692 0.0
H633 H 0.51507 0.39557 0.58204 0.0
H634 H 0.50603 0.30959 0.63116 0.0
H635 H 0.50805 0.29987 0.67896 0.0
C636 C 0.62571 0.91217 0.48589 0.0
C637 C 0.64513 0.92878 0.52195 0.0
C638 C 0.68386 0.89293 0.51908 0.0
C639 C 0.66997 0.88252 0.48051 0.0
N640 N 0.63104 0.88724 0.4256 0.0
N641 N 0.69511 0.93771 0.57249 0.0
C642 C 0.64144 0.89307 0.46352 0.0
C643 C 0.67456 0.91955 0.53874 0.0
N644 N 0.59162 0.91399 0.47326 0.0
N645 N 0.70538 0.87683 0.53698 0.0
H646 H 0.68905 0.95721 0.58785 0.0
H647 H 0.72025 0.93588 0.58391 0.0
H648 H 0.71201 0.8567 0.52343 0.0
H649 H 0.71307 0.88021 0.56593 0.0
H650 H 0.57367 0.89878 0.44878 0.0
H651 H 0.57866 0.92702 0.48931 0.0
H652 H 0.61462 0.89916 0.41134 0.0
H653 H 0.64172 0.87376 0.40753 0.0
C654 C 0.65739 0.55032 0.97658 0.0
C655 C 0.67219 0.56801 0.01334 0.0
C656 C 0.74343 0.59988 0.99516 0.0
C657 C 0.72856 0.58212 0.95831 0.0
N658 N 0.67012 0.54543 0.91252 0.0
N659 N 0.72741 0.61819 0.0546 0.0
C660 C 0.68549 0.55938 0.94853 0.0
C661 C 0.71475 0.59544 0.02173 0.0
N662 N 0.61629 0.52411 0.96813 0.0
N663 N 0.78471 0.61923 0.00532 0.0
H664 H 0.70651 0.61668 0.07342 0.0
H665 H 0.75762 0.64139 0.06121 0.0
H666 H 0.80667 0.62308 0.98669 0.0
H667 H 0.79697 0.6288 0.03291 0.0
H668 H 0.60461 0.51013 0.94147 0.0
H669 H 0.59405 0.51588 0.98769 0.0
H670 H 0.6882 0.55146 0.88957 0.0
H671 H 0.6882 0.55146 0.88957 0.0
C672 C 0.10357 0.59211 0.45939 0.0
C673 C 0.1084 0.59746 0.49953 0.0
C674 C 0.15482 0.67098 0.49312 0.0
C675 C 0.14857 0.66548 0.45337 0.0
N676 N 0.1084 0.62361 0.399 0.0
N677 N 0.12865 0.64361 0.55354 0.0
C678 C 0.11995 0.62693 0.43669 0.0
C679 C 0.13109 0.63744 0.51614 0.0
N680 N 0.08595 0.55416 0.44253 0.0
N681 N 0.18426 0.7078 0.50889 0.0
H682 H 0.10984 0.62012 0.57086 0.0
H683 H 0.14159 0.67248 0.56632 0.0
H684 H 0.20151 0.73329 0.49288 0.0
H685 H 0.19347 0.71223 0.53756 0.0
H686 H 0.08681 0.54951 0.41379 0.0
H687 H 0.07382 0.52713 0.45698 0.0
H688 H 0.08433 0.59698 0.38602 0.0
H689 H 0.12002 0.64859 0.38145 0.0
C690 C 0.59926 0.171 0.0588 0.0
C691 C 0.573 0.1286 0.06455 0.0
C692 C 0.52455 0.12544 0.01399 0.0
C693 C 0.54992 0.16794 0.00859 0.0
N694 N 0.60321 0.2329 0.03532 0.0
N695 N 0.50306 0.07212 0.0593 0.0
C696 C 0.58447 0.19135 0.03438 0.0
C697 C 0.53286 0.10833 0.04634 0.0
N698 N 0.63894 0.19152 0.07406 0.0
N699 N 0.49511 0.10039 0.987 0.0
H700 H 0.50804 0.05957 0.0839 0.0
H701 H 0.47256 0.05749 0.04812 0.0
H702 H 0.4903 0.1102 0.96079 0.0
H703 H 0.47881 0.06874 0.98899 0.0
H704 H 0.66019 0.22103 0.06656 0.0
H705 H 0.65179 0.17871 0.09212 0.0
H706 H 0.62647 0.25128 0.05565 0.0
H707 H 0.59231 0.24843 0.01834 0.0
C708 C 0.48346 0.48734 0.46634 0.0
C709 C 0.4689 0.47939 0.50341 0.0
C710 C 0.39759 0.44625 0.47574 0.0
C711 C 0.41224 0.45223 0.43904 0.0
N712 N 0.46808 0.47018 0.39935 0.0
N713 N 0.41196 0.44234 0.54261 0.0
C714 C 0.45487 0.47011 0.43438 0.0
C715 C 0.42586 0.4563 0.5079 0.0
N716 N 0.52426 0.51321 0.46119 0.0
N717 N 0.35675 0.43192 0.47991 0.0
H718 H 0.43168 0.44757 0.56652 0.0
H719 H 0.38113 0.42204 0.54697 0.0
H720 H 0.33504 0.42336 0.45704 0.0
H721 H 0.34495 0.43141 0.5058 0.0
H722 H 0.53536 0.52413 0.43495 0.0
H723 H 0.54695 0.52695 0.48304 0.0
H724 H 0.49832 0.4784 0.39474 0.0
H725 H 0.44804 0.45843 0.3752 0.0
C726 C 0.07439 0.46848 0.89671 0.0
C727 C 0.09735 0.4693 0.93012 0.0
C728 C 0.07228 0.39647 0.92248 0.0
C729 C 0.04869 0.39528 0.88924 0.0
N730 N 0.03604 0.43129 0.83901 0.0
N731 N 0.12902 0.43847 0.96784 0.0
C732 C 0.05288 0.43184 0.87435 0.0
C733 C 0.1001 0.43468 0.94042 0.0
N734 N 0.07083 0.50163 0.88773 0.0
N735 N 0.06595 0.36115 0.93858 0.0
H736 H 0.15016 0.46651 0.98097 0.0
H737 H 0.13483 0.41504 0.97462 0.0
H738 H 0.04512 0.33224 0.92704 0.0
H739 H 0.07886 0.36035 0.96514 0.0
H740 H 0.05001 0.50089 0.86661 0.0
H741 H 0.08701 0.52929 0.90296 0.0
H742 H 0.04112 0.45755 0.82527 0.0
H743 H 0.02007 0.40474 0.8221 0.0
C744 C 0.97097 0.51343 0.00155 0.0
C745 C 0.01311 0.54503 0.00467 0.0
C746 C 0.9955 0.58764 0.96494 0.0
C747 C 0.95298 0.55764 0.96452 0.0
N748 N 0.90008 0.4977 0.99287 0.0
N749 N 0.06102 0.61739 0.00102 0.0
C750 C 0.94066 0.52248 0.98647 0.0
C751 C 0.02389 0.58388 0.99026 0.0
N752 N 0.9597 0.47421 0.01007 0.0
N753 N 0.00964 0.61816 0.93955 0.0
H754 H 0.08158 0.61642 0.02152 0.0
H755 H 0.0688 0.64677 0.99311 0.0
H756 H 0.99083 0.62063 0.91823 0.0
H757 H 0.04098 0.63824 0.93701 0.0
H758 H 0.92977 0.4499 0.00456 0.0
H759 H 0.98054 0.4649 0.01859 0.0
H760 H 0.88999 0.47353 0.01126 0.0
H761 H 0.87732 0.50415 0.98306 0.0
C762 C 0.5382 0.97977 0.43149 0.0
C763 C 0.53341 0.98726 0.46947 0.0
C764 C 0.45872 0.95409 0.45608 0.0
C765 C 0.46405 0.94988 0.41744 0.0
N766 N 0.5092 0.96628 0.36684 0.0
N767 N 0.49043 0.98927 0.51613 0.0
C768 C 0.50398 0.96523 0.40466 0.0
C769 C 0.49402 0.97668 0.4813 0.0
N770 N 0.57468 0.98418 0.42143 0.0
N771 N 0.4201 0.93507 0.46905 0.0
H772 H 0.51567 0.00654 0.53518 0.0
H773 H 0.46297 0.98594 0.52474 0.0
H774 H 0.39336 0.91823 0.45157 0.0
H775 H 0.41474 0.93319 0.49762 0.0
H776 H 0.57835 0.97491 0.3951 0.0
H777 H 0.60016 0.9931 0.44046 0.0
H778 H 0.53804 0.98085 0.35576 0.0
H779 H 0.48468 0.95603 0.34638 0.0
C780 C 0.52541 0.39441 0.00753 0.0
C781 C 0.56228 0.40715 0.03065 0.0
C782 C 0.57652 0.36253 0.99263 0.0
C783 C 0.54414 0.35602 0.96576 0.0
N784 N 0.49193 0.3723 0.94488 0.0
N785 N 0.62844 0.41037 0.03811 0.0
C786 C 0.51959 0.37369 0.97244 0.0
C787 C 0.58935 0.39301 0.0215 0.0
N788 N 0.49536 0.40094 0.0195 0.0
N789 N 0.59458 0.33915 0.99119 0.0
H790 H 0.6411 0.43526 0.05699 0.0
H791 H 0.65008 0.40319 0.02948 0.0
H792 H 0.58495 0.3153 0.97143 0.0
H793 H 0.61584 0.34053 0.01226 0.0
H794 H 0.46651 0.38919 0.00507 0.0
H795 H 0.49743 0.41386 0.04598 0.0
H796 H 0.47623 0.3882 0.94718 0.0
H797 H 0.48777 0.35876 0.91827 0.0
C798 C 0.0445 0.39046 0.45083 0.0
C799 C 0.06846 0.43014 0.46808 0.0
C800 C 0.12882 0.43815 0.43816 0.0
C801 C 0.10337 0.40256 0.4156 0.0
N802 N 0.03552 0.34644 0.39743 0.0
N803 N 0.13253 0.49565 0.46959 0.0
C804 C 0.0607 0.37902 0.42105 0.0
C805 C 0.11045 0.45508 0.45956 0.0
N806 N 0.0074 0.36296 0.46399 0.0
N807 N 0.17075 0.45576 0.43943 0.0
H808 H 0.12054 0.51122 0.483 0.0
H809 H 0.16174 0.51522 0.46038 0.0
H810 H 0.18547 0.44369 0.42466 0.0
H811 H 0.19044 0.47954 0.45838 0.0
H812 H 0.99058 0.33263 0.45443 0.0
H813 H 0.9957 0.36898 0.4874 0.0
H814 H 0.00351 0.33083 0.39776 0.0
H815 H 0.04649 0.33712 0.37558 0.0
C816 C 0.6855 0.10268 0.98883 0.0
C817 C 0.66762 0.06149 0.99967 0.0
C818 C 0.7078 0.05008 0.95459 0.0
C819 C 0.72914 0.09236 0.94736 0.0
N820 N 0.74476 0.16046 0.96433 0.0
N821 N 0.66808 0.99806 0.99851 0.0
C822 C 0.7199 0.11917 0.96648 0.0
C823 C 0.68037 0.03561 0.98405 0.0
N824 N 0.66864 0.12565 0.99851 0.0
N825 N 0.71278 0.02359 0.93271 0.0
H826 H 0.6492 0.98676 0.021 0.0
H827 H 0.67994 0.97982 0.99069 0.0
H828 H 0.73238 0.03301 0.91067 0.0
H829 H 0.69471 0.99201 0.93426 0.0
H830 H 0.67823 0.15461 0.98822 0.0
H831 H 0.64214 0.11417 0.01336 0.0
H832 H 0.74162 0.18127 0.98076 0.0
H833 H 0.77111 0.1739 0.94914 0.0
C834 C 0.61744 0.63241 0.49344 0.0
C835 C 0.63895 0.61388 0.51085 0.0
C836 C 0.69784 0.65643 0.47335 0.0
C837 C 0.67762 0.67714 0.45909 0.0
N838 N 0.62442 0.69381 0.4663 0.0
N839 N 0.70522 0.61922 0.52569 0.0
C840 C 0.6395 0.66809 0.47273 0.0
C841 C 0.68087 0.62905 0.50328 0.0
N842 N 0.57567 0.61513 0.49421 0.0
N843 N 0.73247 0.66183 0.45781 0.0
H844 H 0.69536 0.60253 0.55006 0.0
H845 H 0.73671 0.63209 0.52279 0.0
H846 H 0.74553 0.68121 0.43553 0.0
H847 H 0.74589 0.64425 0.46486 0.0
H848 H 0.55908 0.62603 0.47853 0.0
H849 H 0.55655 0.58746 0.5063 0.0
H850 H 0.59848 0.69028 0.47874 0.0
H851 H 0.6404 0.7211 0.45223 0.0
C852 C 0.60194 0.09949 0.64504 0.0
C853 C 0.57724 0.05743 0.63471 0.0
C854 C 0.52777 0.05008 0.68034 0.0
C855 C 0.55056 0.09278 0.68798 0.0
N856 N 0.60269 0.15931 0.6691 0.0
N857 N 0.51096 0.99556 0.63516 0.0
C858 C 0.58556 0.11789 0.66759 0.0
C859 C 0.5384 0.0335 0.65017 0.0
N860 N 0.64185 0.12151 0.63541 0.0
N861 N 0.4971 0.02509 0.70271 0.0
H862 H 0.51668 0.9831 0.61179 0.0
H863 H 0.48082 0.97849 0.64318 0.0
H864 H 0.48893 0.03587 0.72564 0.0
H865 H 0.48247 0.99339 0.70061 0.0
H866 H 0.66207 0.15123 0.64549 0.0
H867 H 0.65627 0.10889 0.62098 0.0
H868 H 0.62589 0.17866 0.65198 0.0
H869 H 0.59071 0.17392 0.68432 0.0
C870 C 0.49989 0.49603 0.18636 0.0
C871 C 0.49227 0.48591 0.14714 0.0
C872 C 0.41809 0.45621 0.15351 0.0
C873 C 0.42554 0.46163 0.19337 0.0
N874 N 0.47322 0.48045 0.24827 0.0
N875 N 0.44371 0.4512 0.09395 0.0
C876 C 0.46639 0.47982 0.20997 0.0
C877 C 0.45122 0.46467 0.13078 0.0
N878 N 0.53899 0.52274 0.20083 0.0
N879 N 0.37969 0.44431 0.13726 0.0
H880 H 0.46711 0.45663 0.07646 0.0
H881 H 0.41424 0.43172 0.08168 0.0
H882 H 0.35479 0.43838 0.15289 0.0
H883 H 0.37343 0.44396 0.10825 0.0
H884 H 0.54566 0.53459 0.22841 0.0
H885 H 0.56417 0.53647 0.1842 0.0
H886 H 0.5021 0.48943 0.26157 0.0
H887 H 0.44949 0.46843 0.2666 0.0
C888 C 0.02617 0.37572 0.62543 0.0
C889 C 0.0424 0.4168 0.63778 0.0
C890 C 0.03195 0.39474 0.70303 0.0
C891 C 0.00845 0.35358 0.68977 0.0
N892 N 0.97842 0.30497 0.63713 0.0
N893 N 0.05504 0.4649 0.68859 0.0
C894 C 0.00457 0.34392 0.65064 0.0
C895 C 0.04436 0.42642 0.67675 0.0
N896 N 0.03174 0.36713 0.58968 0.0
N897 N 0.04238 0.4035 0.74074 0.0
H898 H 0.06278 0.48892 0.6704 0.0
H899 H 0.05234 0.47204 0.71617 0.0
H900 H 0.03436 0.38082 0.76062 0.0
H901 H 0.06247 0.4329 0.75166 0.0
H902 H 0.02363 0.33791 0.5803 0.0
H903 H 0.04855 0.38985 0.57083 0.0
H904 H 0.97118 0.29741 0.60843 0.0
H905 H 0.96098 0.28079 0.65438 0.0
C906 C 0.70915 0.02601 0.1755 0.0
C907 C 0.66908 0.00349 0.15678 0.0
C908 C 0.6704 0.94065 0.16883 0.0
C909 C 0.70533 0.96213 0.1943 0.0
N910 N 0.75547 0.02585 0.22583 0.0
N911 N 0.60743 0.93662 0.14531 0.0
C912 C 0.72427 0.00509 0.19872 0.0
C913 C 0.64855 0.95999 0.15575 0.0
N914 N 0.73361 0.06676 0.16998 0.0
N915 N 0.6575 0.90137 0.15781 0.0
H916 H 0.58807 0.94837 0.13959 0.0
H917 H 0.59124 0.90499 0.1474 0.0
H918 H 0.67342 0.88652 0.16658 0.0
H919 H 0.63392 0.88555 0.13687 0.0
H920 H 0.76416 0.08346 0.18084 0.0
H921 H 0.72535 0.0827 0.15084 0.0
H922 H 0.76721 0.0566 0.23261 0.0
H923 H 0.76723 0.01167 0.24359 0.0
C924 C 0.66295 0.62487 0.67377 0.0
C925 C 0.62139 0.59615 0.67929 0.0
C926 C 0.64087 0.59192 0.74553 0.0
C927 C 0.68285 0.61181 0.737 0.0
N928 N 0.73386 0.64566 0.69089 0.0
N929 N 0.56967 0.55239 0.72106 0.0
C930 C 0.69418 0.62893 0.70086 0.0
C931 C 0.60975 0.58051 0.71566 0.0
N932 N 0.67238 0.64686 0.64166 0.0
N933 N 0.63096 0.58345 0.7821 0.0
H934 H 0.54584 0.54405 0.70027 0.0
H935 H 0.5604 0.53581 0.74554 0.0
H936 H 0.65341 0.59189 0.80438 0.0
H937 H 0.60118 0.57188 0.79058 0.0
H938 H 0.70182 0.67078 0.63716 0.0
H939 H 0.64955 0.64375 0.62142 0.0
H940 H 0.7425 0.65461 0.66362 0.0
H941 H 0.75783 0.64757 0.70858 0.0
C942 C 0.19624 0.6367 0.12078 0.0
C943 C 0.18868 0.64569 0.08326 0.0
C944 C 0.21797 0.71747 0.10306 0.0
C945 C 0.22015 0.70682 0.14111 0.0
N946 N 0.20111 0.65391 0.18678 0.0
N947 N 0.1857 0.69373 0.04007 0.0
C948 C 0.2063 0.66574 0.15014 0.0
C949 C 0.19796 0.68594 0.07457 0.0
N950 N 0.1951 0.60086 0.12847 0.0
N951 N 0.23549 0.75757 0.09407 0.0
H952 H 0.16978 0.67138 0.01886 0.0
H953 H 0.18794 0.72155 0.03372 0.0
H954 H 0.25008 0.78126 0.11433 0.0
H955 H 0.23851 0.76731 0.06637 0.0
H956 H 0.20459 0.59496 0.15475 0.0
H957 H 0.18908 0.57889 0.10782 0.0
H958 H 0.18685 0.62345 0.19431 0.0
H959 H 0.20687 0.67393 0.20932 0.0
loop_
_geom_bond_atom_site_label_1
_geom_bond_atom_site_label_2
_geom_bond_distance
_geom_bond_site_symmetry_2
_ccdc_geom_bond_type
C0 O2 1.247 . S
C0 O4 1.258 . S
C1 O8 1.247 . S
C1 O9 1.258 . S
O2 C0 1.247 . S
O2 Zn3 2.028 . S
Zn3 O2 2.028 . S
Zn3 O7 2.035 1_554 S
Zn3 O9 2.035 1_554 S
Zn3 O10 2.028 . S
O4 C0 1.258 . S
O4 Zn5 2.035 1_554 S
Zn5 O4 2.035 1_556 S
Zn5 O6 2.028 . S
Zn5 O8 2.028 . S
Zn5 O11 2.035 1_556 S
O6 Zn5 2.028 . S
O6 C12 1.247 . S
O7 Zn3 2.035 1_556 S
O7 C12 1.258 . S
O8 C1 1.247 . S
O8 Zn5 2.028 . S
O9 C1 1.258 . S
O9 Zn3 2.035 1_556 S
O10 Zn3 2.028 . S
O10 C13 1.247 . S
O11 Zn5 2.035 1_554 S
O11 C13 1.258 . S
C12 O6 1.247 . S
C12 O7 1.258 . S
C13 O10 1.247 . S
C13 O11 1.258 . S
C14 O16 1.247 1_545 S
C14 O18 1.258 . S
C15 O22 1.247 1_565 S
C15 O23 1.258 . S
O16 C14 1.247 1_565 S
O16 Zn17 2.028 . S
Zn17 O16 2.028 . S
Zn17 O21 2.035 . S
Zn17 O23 2.035 . S
Zn17 O24 2.028 . S
O18 C14 1.258 . S
O18 Zn19 2.035 . S
Zn19 O18 2.035 . S
Zn19 O20 2.028 . S
Zn19 O22 2.028 . S
Zn19 O25 2.035 . S
O20 Zn19 2.028 . S
O20 C26 1.247 1_545 S
O21 Zn17 2.035 . S
O21 C26 1.258 . S
O22 C15 1.247 1_545 S
O22 Zn19 2.028 . S
O23 C15 1.258 . S
O23 Zn17 2.035 . S
O24 Zn17 2.028 . S
O24 C27 1.247 1_565 S
O25 Zn19 2.035 . S
O25 C27 1.258 . S
C26 O20 1.247 1_565 S
C26 O21 1.258 . S
C27 O24 1.247 1_545 S
C27 O25 1.258 . S
C28 O30 1.247 . S
C28 O32 1.258 . S
C29 O36 1.247 . S
C29 O37 1.258 . S
O30 C28 1.247 . S
O30 Zn31 2.028 . S
Zn31 O30 2.028 . S
Zn31 O35 2.035 . S
Zn31 O37 2.035 . S
Zn31 O38 2.028 . S
O32 C28 1.258 . S
O32 Zn33 2.035 . S
Zn33 O32 2.035 . S
Zn33 O34 2.028 . S
Zn33 O36 2.028 . S
Zn33 O39 2.035 . S
O34 Zn33 2.028 . S
O34 C40 1.247 . S
O35 Zn31 2.035 . S
O35 C40 1.258 . S
O36 C29 1.247 . S
O36 Zn33 2.028 . S
O37 C29 1.258 . S
O37 Zn31 2.035 . S
O38 Zn31 2.028 . S
O38 C41 1.247 . S
O39 Zn33 2.035 . S
O39 C41 1.258 . S
C40 O34 1.247 . S
C40 O35 1.258 . S
C41 O38 1.247 . S
C41 O39 1.258 . S
C42 O44 1.247 . S
C42 O46 1.240 1_455 S
C43 O50 1.247 . S
C43 O51 1.258 1_655 S
O44 C42 1.247 . S
O44 Zn45 2.028 . S
Zn45 O44 2.028 . S
Zn45 O49 2.035 . S
Zn45 O51 2.035 . S
Zn45 O52 2.028 . S
O46 C42 1.240 1_655 S
O46 Zn47 2.039 . S
Zn47 O46 2.039 . S
Zn47 O48 2.028 . S
Zn47 O50 2.028 . S
Zn47 O53 2.038 1_655 S
O48 Zn47 2.028 . S
O48 C54 1.247 . S
O49 Zn45 2.035 . S
O49 C54 1.258 1_455 S
O50 C43 1.247 . S
O50 Zn47 2.028 . S
O51 C43 1.258 1_455 S
O51 Zn45 2.035 . S
O52 Zn45 2.028 . S
O52 C55 1.247 . S
O53 Zn47 2.038 1_455 S
O53 C55 1.255 . S
C54 O48 1.247 . S
C54 O49 1.258 1_655 S
C55 O52 1.247 . S
C55 O53 1.255 . S
C56 O58 1.247 . S
C56 O60 1.258 . S
C57 O64 1.247 . S
C57 O65 1.258 . S
O58 C56 1.247 . S
O58 Zn59 2.028 . S
Zn59 O58 2.028 . S
Zn59 O63 2.035 . S
Zn59 O65 2.035 . S
Zn59 O66 2.028 . S
O60 C56 1.258 . S
O60 Zn61 2.035 . S
Zn61 O60 2.035 . S
Zn61 O62 2.028 . S
Zn61 O64 2.028 . S
Zn61 O67 2.035 . S
O62 Zn61 2.028 . S
O62 C68 1.247 . S
O63 Zn59 2.035 . S
O63 C68 1.258 . S
O64 C57 1.247 . S
O64 Zn61 2.028 . S
O65 C57 1.258 . S
O65 Zn59 2.035 . S
O66 Zn59 2.028 . S
O66 C69 1.247 . S
O67 Zn61 2.035 . S
O67 C69 1.258 . S
C68 O62 1.247 . S
C68 O63 1.258 . S
C69 O66 1.247 . S
C69 O67 1.258 . S
C70 O72 1.247 . S
C70 O74 1.258 . S
C71 O78 1.247 . S
C71 O79 1.258 . S
O72 C70 1.247 . S
O72 Zn73 2.028 . S
Zn73 O72 2.028 . S
Zn73 O77 2.035 . S
Zn73 O79 2.035 . S
Zn73 O80 2.028 . S
O74 C70 1.258 . S
O74 Zn75 2.035 . S
Zn75 O74 2.035 . S
Zn75 O76 2.028 . S
Zn75 O78 2.028 . S
Zn75 O81 2.035 . S
O76 Zn75 2.028 . S
O76 C82 1.247 . S
O77 Zn73 2.035 . S
O77 C82 1.258 . S
O78 C71 1.247 . S
O78 Zn75 2.028 . S
O79 C71 1.258 . S
O79 Zn73 2.035 . S
O80 Zn73 2.028 . S
O80 C83 1.247 . S
O81 Zn75 2.035 . S
O81 C83 1.258 . S
C82 O76 1.247 . S
C82 O77 1.258 . S
C83 O80 1.247 . S
C83 O81 1.258 . S
H84 O110 0.856 . S
H85 O113 0.854 . S
H86 C121 0.930 . S
H87 C122 0.930 . S
H88 C124 0.930 . S
H89 C125 0.930 . S
H90 C127 0.931 . S
H91 C128 0.930 . S
H92 C130 0.930 . S
H93 C131 0.929 . S
H94 C133 0.930 . S
H95 C134 0.931 . S
H96 C136 0.930 . S
H97 C137 0.929 . S
H98 C139 0.931 . S
H99 C140 0.930 . S
H100 C142 0.930 . S
H101 C143 0.932 . S
H102 C145 0.930 . S
H103 C146 0.929 . S
H104 C148 0.931 . S
H105 C149 0.930 . S
H106 C151 0.929 . S
H107 C152 0.931 . S
H108 C154 0.930 . S
H109 C155 0.929 . S
O110 H84 0.856 . S
O110 C156 1.300 . S
O111 C156 1.209 . S
O112 C157 1.199 . S
O113 H85 0.854 . S
O113 C157 1.297 . S
C114 C115 1.404 . S
C114 C119 1.397 . S
C114 C120 1.492 . S
C115 C114 1.404 . S
C115 C116 1.396 . S
C115 C126 1.492 . S
C116 C115 1.396 . S
C116 C117 1.397 . S
C116 C132 1.509 . S
C117 C116 1.397 . S
C117 C118 1.412 . S
C117 C138 1.485 . S
C118 C117 1.412 . S
C118 C119 1.388 . S
C118 C144 1.490 . S
C119 C114 1.397 . S
C119 C118 1.388 . S
C119 C150 1.519 . S
C120 C114 1.492 . S
C120 C121 1.363 . S
C120 C125 1.390 . S
C121 H86 0.930 . S
C121 C120 1.363 . S
C121 C122 1.372 . S
C122 H87 0.930 . S
C122 C121 1.372 . S
C122 C123 1.383 . S
C123 C122 1.383 . S
C123 C124 1.395 . S
C124 H88 0.930 . S
C124 C123 1.395 . S
C124 C125 1.362 . S
C125 H89 0.930 . S
C125 C120 1.390 . S
C125 C124 1.362 . S
C126 C115 1.492 . S
C126 C127 1.377 . S
C126 C131 1.397 . S
C127 H90 0.931 . S
C127 C126 1.377 . S
C127 C128 1.376 . S
C128 H91 0.930 . S
C128 C127 1.376 . S
C128 C129 1.376 . S
C129 C128 1.376 . S
C129 C130 1.378 . S
C129 C156 1.486 . S
C130 H92 0.930 . S
C130 C129 1.378 . S
C130 C131 1.376 . S
C131 H93 0.929 . S
C131 C126 1.397 . S
C131 C130 1.376 . S
C132 C116 1.509 . S
C132 C133 1.391 . S
C132 C137 1.386 . S
C133 H94 0.930 . S
C133 C132 1.391 . S
C133 C134 1.375 . S
C134 H95 0.931 . S
C134 C133 1.375 . S
C134 C135 1.375 . S
C135 C134 1.375 . S
C135 C136 1.361 . S
C136 H96 0.930 . S
C136 C135 1.361 . S
C136 C137 1.399 . S
C137 H97 0.929 . S
C137 C132 1.386 . S
C137 C136 1.399 . S
C138 C117 1.485 . S
C138 C139 1.394 . S
C138 C143 1.360 . S
C139 H98 0.931 . S
C139 C138 1.394 . S
C139 C140 1.372 . S
C140 H99 0.930 . S
C140 C139 1.372 . S
C140 C141 1.397 . S
C141 C140 1.397 . S
C141 C142 1.390 . S
C141 C157 1.476 . S
C142 H100 0.930 . S
C142 C141 1.390 . S
C142 C143 1.366 . S
C143 H101 0.932 . S
C143 C138 1.360 . S
C143 C142 1.366 . S
C144 C118 1.490 . S
C144 C145 1.380 . S
C144 C149 1.386 . S
C145 H102 0.930 . S
C145 C144 1.380 . S
C145 C146 1.381 . S
C146 H103 0.929 . S
C146 C145 1.381 . S
C146 C147 1.371 . S
C147 C146 1.371 . S
C147 C148 1.380 . S
C148 H104 0.931 . S
C148 C147 1.380 . S
C148 C149 1.387 . S
C149 H105 0.930 . S
C149 C144 1.386 . S
C149 C148 1.387 . S
C150 C119 1.519 . S
C150 C151 1.377 . S
C150 C155 1.361 . S
C151 H106 0.929 . S
C151 C150 1.377 . S
C151 C152 1.386 . S
C152 H107 0.931 . S
C152 C151 1.386 . S
C152 C153 1.363 . S
C153 C152 1.363 . S
C153 C154 1.385 . S
C154 H108 0.930 . S
C154 C153 1.385 . S
C154 C155 1.396 . S
C155 H109 0.929 . S
C155 C150 1.361 . S
C155 C154 1.396 . S
C156 O110 1.300 . S
C156 O111 1.209 . S
C156 C129 1.486 . S
C157 O112 1.199 . S
C157 O113 1.297 . S
C157 C141 1.476 . S
H158 O184 0.856 . S
H159 O187 0.854 . S
H160 C195 0.930 . S
H161 C196 0.930 . S
H162 C198 0.930 . S
H163 C199 0.930 . S
H164 C201 0.931 . S
H165 C202 0.930 . S
H166 C204 0.930 1_455 S
H167 C205 0.929 . S
H168 C207 0.930 . S
H169 C208 0.931 . S
H170 C210 0.930 . S
H171 C211 0.929 . S
H172 C213 0.931 . S
H173 C214 0.930 . S
H174 C216 0.930 . S
H175 C217 0.932 . S
H176 C219 0.930 . S
H177 C220 0.929 . S
H178 C222 0.931 . S
H179 C223 0.930 . S
H180 C225 0.929 . S
H181 C226 0.931 . S
H182 C228 0.930 . S
H183 C229 0.929 . S
O184 H158 0.856 . S
O184 C230 1.300 . S
O185 C230 1.209 1_455 S
O186 C231 1.199 . S
O187 H159 0.854 . S
O187 C231 1.297 . S
C188 C189 1.404 . S
C188 C193 1.397 . S
C188 C194 1.492 . S
C189 C188 1.404 . S
C189 C190 1.396 . S
C189 C200 1.492 . S
C190 C189 1.396 . S
C190 C191 1.397 . S
C190 C206 1.509 . S
C191 C190 1.397 . S
C191 C192 1.412 . S
C191 C212 1.485 . S
C192 C191 1.412 . S
C192 C193 1.388 . S
C192 C218 1.490 . S
C193 C188 1.397 . S
C193 C192 1.388 . S
C193 C224 1.519 . S
C194 C188 1.492 . S
C194 C195 1.363 . S
C194 C199 1.390 1_655 S
C195 H160 0.930 . S
C195 C194 1.363 . S
C195 C196 1.372 . S
C196 H161 0.930 . S
C196 C195 1.372 . S
C196 C197 1.383 1_655 S
C197 C196 1.383 1_455 S
C197 C198 1.395 . S
C198 H162 0.930 . S
C198 C197 1.395 . S
C198 C199 1.362 . S
C199 H163 0.930 . S
C199 C194 1.390 1_455 S
C199 C198 1.362 . S
C200 C189 1.492 . S
C200 C201 1.377 . S
C200 C205 1.397 . S
C201 H164 0.931 . S
C201 C200 1.377 . S
C201 C202 1.376 . S
C202 H165 0.930 . S
C202 C201 1.376 . S
C202 C203 1.376 . S
C203 C202 1.376 . S
C203 C204 1.378 . S
C203 C230 1.486 1_556 S
C204 H166 0.930 1_655 S
C204 C203 1.378 . S
C204 C205 1.376 . S
C205 H167 0.929 . S
C205 C200 1.397 . S
C205 C204 1.376 . S
C206 C190 1.509 . S
C206 C207 1.391 . S
C206 C211 1.386 . S
C207 H168 0.930 . S
C207 C206 1.391 . S
C207 C208 1.375 . S
C208 H169 0.931 . S
C208 C207 1.375 . S
C208 C209 1.375 . S
C209 C208 1.375 . S
C209 C210 1.361 . S
C210 H170 0.930 . S
C210 C209 1.361 . S
C210 C211 1.399 . S
C211 H171 0.929 . S
C211 C206 1.386 . S
C211 C210 1.399 . S
C212 C191 1.485 . S
C212 C213 1.394 . S
C212 C217 1.360 . S
C213 H172 0.931 . S
C213 C212 1.394 . S
C213 C214 1.372 . S
C214 H173 0.930 . S
C214 C213 1.372 . S
C214 C215 1.397 . S
C215 C214 1.397 . S
C215 C216 1.390 . S
C215 C231 1.476 1_545 S
C216 H174 0.930 . S
C216 C215 1.390 . S
C216 C217 1.366 . S
C217 H175 0.932 . S
C217 C212 1.360 . S
C217 C216 1.366 . S
C218 C192 1.490 . S
C218 C219 1.380 . S
C218 C223 1.386 . S
C219 H176 0.930 . S
C219 C218 1.380 . S
C219 C220 1.381 . S
C220 H177 0.929 . S
C220 C219 1.381 . S
C220 C221 1.371 . S
C221 C220 1.371 . S
C221 C222 1.380 . S
C222 H178 0.931 . S
C222 C221 1.380 . S
C222 C223 1.387 . S
C223 H179 0.930 . S
C223 C218 1.386 . S
C223 C222 1.387 . S
C224 C193 1.519 . S
C224 C225 1.377 . S
C224 C229 1.361 . S
C225 H180 0.929 . S
C225 C224 1.377 . S
C225 C226 1.386 . S
C226 H181 0.931 . S
C226 C225 1.386 . S
C226 C227 1.363 . S
C227 C226 1.363 . S
C227 C228 1.385 . S
C228 H182 0.930 . S
C228 C227 1.385 . S
C228 C229 1.396 . S
C229 H183 0.929 . S
C229 C224 1.361 . S
C229 C228 1.396 . S
C230 O184 1.300 . S
C230 O185 1.209 1_655 S
C230 C203 1.486 1_554 S
C231 O186 1.199 . S
C231 O187 1.297 . S
C231 C215 1.476 1_565 S
H232 O258 0.856 . S
H233 O261 0.854 . S
H234 C269 0.930 . S
H235 C270 0.930 . S
H236 C272 0.930 . S
H237 C273 0.930 . S
H238 C275 0.931 . S
H239 C276 0.930 . S
H240 C278 0.930 . S
H241 C279 0.929 . S
H242 C281 0.930 . S
H243 C282 0.931 . S
H244 C284 0.930 . S
H245 C285 0.929 . S
H246 C287 0.931 . S
H247 C288 0.930 . S
H248 C290 0.930 . S
H249 C291 0.932 . S
H250 C293 0.930 . S
H251 C294 0.929 . S
H252 C296 0.931 . S
H253 C297 0.930 . S
H254 C299 0.929 . S
H255 C300 0.931 . S
H256 C302 0.930 . S
H257 C303 0.929 . S
O258 H232 0.856 . S
O258 C304 1.300 . S
O259 C304 1.209 . S
O260 C305 1.199 . S
O261 H233 0.854 . S
O261 C305 1.297 . S
C262 C263 1.404 . S
C262 C267 1.397 . S
C262 C268 1.492 . S
C263 C262 1.404 . S
C263 C264 1.396 . S
C263 C274 1.492 . S
C264 C263 1.396 . S
C264 C265 1.397 . S
C264 C280 1.509 . S
C265 C264 1.397 . S
C265 C266 1.412 . S
C265 C286 1.485 . S
C266 C265 1.412 . S
C266 C267 1.388 . S
C266 C292 1.490 . S
C267 C262 1.397 . S
C267 C266 1.388 . S
C267 C298 1.519 . S
C268 C262 1.492 . S
C268 C269 1.363 . S
C268 C273 1.390 . S
C269 H234 0.930 . S
C269 C268 1.363 . S
C269 C270 1.372 . S
C270 H235 0.930 . S
C270 C269 1.372 . S
C270 C271 1.383 . S
C271 C270 1.383 . S
C271 C272 1.395 . S
C272 H236 0.930 . S
C272 C271 1.395 . S
C272 C273 1.362 . S
C273 H237 0.930 . S
C273 C268 1.390 . S
C273 C272 1.362 . S
C274 C263 1.492 . S
C274 C275 1.377 . S
C274 C279 1.397 . S
C275 H238 0.931 . S
C275 C274 1.377 . S
C275 C276 1.376 . S
C276 H239 0.930 . S
C276 C275 1.376 . S
C276 C277 1.376 . S
C277 C276 1.376 . S
C277 C278 1.378 . S
C277 C304 1.486 . S
C278 H240 0.930 . S
C278 C277 1.378 . S
C278 C279 1.376 . S
C279 H241 0.929 . S
C279 C274 1.397 . S
C279 C278 1.376 . S
C280 C264 1.509 . S
C280 C281 1.391 . S
C280 C285 1.386 . S
C281 H242 0.930 . S
C281 C280 1.391 . S
C281 C282 1.375 . S
C282 H243 0.931 . S
C282 C281 1.375 . S
C282 C283 1.375 . S
C283 C282 1.375 . S
C283 C284 1.361 . S
C284 H244 0.930 . S
C284 C283 1.361 . S
C284 C285 1.399 . S
C285 H245 0.929 . S
C285 C280 1.386 . S
C285 C284 1.399 . S
C286 C265 1.485 . S
C286 C287 1.394 . S
C286 C291 1.360 . S
C287 H246 0.931 . S
C287 C286 1.394 . S
C287 C288 1.372 . S
C288 H247 0.930 . S
C288 C287 1.372 . S
C288 C289 1.397 1_565 S
C289 C288 1.397 1_545 S
C289 C290 1.390 . S
C289 C305 1.476 . S
C290 H248 0.930 . S
C290 C289 1.390 . S
C290 C291 1.366 1_545 S
C291 H249 0.932 . S
C291 C286 1.360 . S
C291 C290 1.366 1_565 S
C292 C266 1.490 . S
C292 C293 1.380 . S
C292 C297 1.386 . S
C293 H250 0.930 . S
C293 C292 1.380 . S
C293 C294 1.381 . S
C294 H251 0.929 . S
C294 C293 1.381 . S
C294 C295 1.371 . S
C295 C294 1.371 . S
C295 C296 1.380 . S
C296 H252 0.931 . S
C296 C295 1.380 . S
C296 C297 1.387 . S
C297 H253 0.930 . S
C297 C292 1.386 . S
C297 C296 1.387 . S
C298 C267 1.519 . S
C298 C299 1.377 . S
C298 C303 1.361 . S
C299 H254 0.929 . S
C299 C298 1.377 . S
C299 C300 1.386 . S
C300 H255 0.931 . S
C300 C299 1.386 . S
C300 C301 1.363 . S
C301 C300 1.363 . S
C301 C302 1.385 . S
C302 H256 0.930 . S
C302 C301 1.385 . S
C302 C303 1.396 . S
C303 H257 0.929 . S
C303 C298 1.361 . S
C303 C302 1.396 . S
C304 O258 1.300 . S
C304 O259 1.209 . S
C304 C277 1.486 . S
C305 O260 1.199 . S
C305 O261 1.297 . S
C305 C289 1.476 . S
H306 O332 0.856 . S
H307 O335 0.854 . S
H308 C343 0.930 . S
H309 C344 0.930 . S
H310 C346 0.930 . S
H311 C347 0.930 . S
H312 C349 0.931 . S
H313 C350 0.930 . S
H314 C352 0.930 . S
H315 C353 0.929 . S
H316 C355 0.930 1_455 S
H317 C356 0.931 . S
H318 C358 0.930 . S
H319 C359 0.929 . S
H320 C361 0.931 . S
H321 C362 0.930 . S
H322 C364 0.930 . S
H323 C365 0.932 . S
H324 C367 0.930 . S
H325 C368 0.929 1_455 S
H326 C370 0.931 . S
H327 C371 0.930 . S
H328 C373 0.929 . S
H329 C374 0.931 . S
H330 C376 0.930 . S
H331 C377 0.929 . S
O332 H306 0.856 . S
O332 C378 1.300 . S
O333 C378 1.209 . S
O334 C379 1.199 . S
O335 H307 0.854 . S
O335 C379 1.297 . S
C336 C337 1.404 . S
C336 C341 1.397 . S
C336 C342 1.492 . S
C337 C336 1.404 . S
C337 C338 1.396 . S
C337 C348 1.492 . S
C338 C337 1.396 . S
C338 C339 1.397 . S
C338 C354 1.509 . S
C339 C338 1.397 . S
C339 C340 1.412 . S
C339 C360 1.485 . S
C340 C339 1.412 . S
C340 C341 1.388 . S
C340 C366 1.490 . S
C341 C336 1.397 . S
C341 C340 1.388 . S
C341 C372 1.519 . S
C342 C336 1.492 . S
C342 C343 1.363 . S
C342 C347 1.390 . S
C343 H308 0.930 . S
C343 C342 1.363 . S
C343 C344 1.372 . S
C344 H309 0.930 . S
C344 C343 1.372 . S
C344 C345 1.383 . S
C345 C344 1.383 . S
C345 C346 1.395 . S
C346 H310 0.930 . S
C346 C345 1.395 . S
C346 C347 1.362 . S
C347 H311 0.930 . S
C347 C342 1.390 . S
C347 C346 1.362 . S
C348 C337 1.492 . S
C348 C349 1.377 . S
C348 C353 1.397 . S
C349 H312 0.931 . S
C349 C348 1.377 . S
C349 C350 1.376 . S
C350 H313 0.930 . S
C350 C349 1.376 . S
C350 C351 1.376 . S
C351 C350 1.376 . S
C351 C352 1.378 . S
C351 C378 1.486 . S
C352 H314 0.930 . S
C352 C351 1.378 . S
C352 C353 1.376 . S
C353 H315 0.929 . S
C353 C348 1.397 . S
C353 C352 1.376 . S
C354 C338 1.509 . S
C354 C355 1.391 . S
C354 C359 1.386 . S
C355 H316 0.930 1_655 S
C355 C354 1.391 . S
C355 C356 1.375 1_655 S
C356 H317 0.931 . S
C356 C355 1.375 1_455 S
C356 C357 1.375 1_455 S
C357 C356 1.375 1_655 S
C357 C358 1.361 . S
C358 H318 0.930 . S
C358 C357 1.361 . S
C358 C359 1.399 . S
C359 H319 0.929 . S
C359 C354 1.386 . S
C359 C358 1.399 . S
C360 C339 1.485 . S
C360 C361 1.394 1_655 S
C360 C365 1.360 . S
C361 H320 0.931 . S
C361 C360 1.394 1_455 S
C361 C362 1.372 . S
C362 H321 0.930 . S
C362 C361 1.372 . S
C362 C363 1.397 . S
C363 C362 1.397 . S
C363 C364 1.390 . S
C363 C379 1.476 . S
C364 H322 0.930 . S
C364 C363 1.390 . S
C364 C365 1.366 1_455 S
C365 H323 0.932 . S
C365 C360 1.360 . S
C365 C364 1.366 1_655 S
C366 C340 1.490 . S
C366 C367 1.380 . S
C366 C371 1.386 . S
C367 H324 0.930 . S
C367 C366 1.380 . S
C367 C368 1.381 . S
C368 H325 0.929 1_655 S
C368 C367 1.381 . S
C368 C369 1.371 1_655 S
C369 C368 1.371 1_455 S
C369 C370 1.380 1_455 S
C370 H326 0.931 . S
C370 C369 1.380 1_655 S
C370 C371 1.387 . S
C371 H327 0.930 . S
C371 C366 1.386 . S
C371 C370 1.387 . S
C372 C341 1.519 . S
C372 C373 1.377 . S
C372 C377 1.361 . S
C373 H328 0.929 . S
C373 C372 1.377 . S
C373 C374 1.386 . S
C374 H329 0.931 . S
C374 C373 1.386 . S
C374 C375 1.363 . S
C375 C374 1.363 . S
C375 C376 1.385 . S
C376 H330 0.930 . S
C376 C375 1.385 . S
C376 C377 1.396 . S
C377 H331 0.929 . S
C377 C372 1.361 . S
C377 C376 1.396 . S
C378 O332 1.300 . S
C378 O333 1.209 . S
C378 C351 1.486 . S
C379 O334 1.199 . S
C379 O335 1.297 . S
C379 C363 1.476 . S
H380 O406 0.856 . S
H381 O409 0.854 . S
H382 C417 0.930 . S
H383 C418 0.930 . S
H384 C420 0.930 . S
H385 C421 0.930 . S
H386 C423 0.931 . S
H387 C424 0.930 . S
H388 C426 0.930 . S
H389 C427 0.929 . S
H390 C429 0.930 . S
H391 C430 0.931 . S
H392 C432 0.930 . S
H393 C433 0.929 . S
H394 C435 0.931 . S
H395 C436 0.930 . S
H396 C438 0.930 . S
H397 C439 0.932 . S
H398 C441 0.930 . S
H399 C442 0.929 . S
H400 C444 0.931 . S
H401 C445 0.930 . S
H402 C447 0.929 . S
H403 C448 0.931 . S
H404 C450 0.930 . S
H405 C451 0.929 . S
O406 H380 0.856 . S
O406 C452 1.300 . S
O407 C452 1.209 . S
O408 C453 1.199 . S
O409 H381 0.854 . S
O409 C453 1.297 . S
C410 C411 1.404 . S
C410 C415 1.397 . S
C410 C416 1.492 . S
C411 C410 1.404 . S
C411 C412 1.396 . S
C411 C422 1.492 . S
C412 C411 1.396 . S
C412 C413 1.397 . S
C412 C428 1.509 . S
C413 C412 1.397 . S
C413 C414 1.412 . S
C413 C434 1.485 . S
C414 C413 1.412 . S
C414 C415 1.388 . S
C414 C440 1.490 . S
C415 C410 1.397 . S
C415 C414 1.388 . S
C415 C446 1.519 . S
C416 C410 1.492 . S
C416 C417 1.363 . S
C416 C421 1.390 . S
C417 H382 0.930 . S
C417 C416 1.363 . S
C417 C418 1.372 . S
C418 H383 0.930 . S
C418 C417 1.372 . S
C418 C419 1.383 . S
C419 C418 1.383 . S
C419 C420 1.395 . S
C420 H384 0.930 . S
C420 C419 1.395 . S
C420 C421 1.362 . S
C421 H385 0.930 . S
C421 C416 1.390 . S
C421 C420 1.362 . S
C422 C411 1.492 . S
C422 C423 1.377 . S
C422 C427 1.397 . S
C423 H386 0.931 . S
C423 C422 1.377 . S
C423 C424 1.376 . S
C424 H387 0.930 . S
C424 C423 1.376 . S
C424 C425 1.376 . S
C425 C424 1.376 . S
C425 C426 1.378 . S
C425 C452 1.486 . S
C426 H388 0.930 . S
C426 C425 1.378 . S
C426 C427 1.376 . S
C427 H389 0.929 . S
C427 C422 1.397 . S
C427 C426 1.376 . S
C428 C412 1.509 . S
C428 C429 1.391 . S
C428 C433 1.386 . S
C429 H390 0.930 . S
C429 C428 1.391 . S
C429 C430 1.375 . S
C430 H391 0.931 . S
C430 C429 1.375 . S
C430 C431 1.375 . S
C431 C430 1.375 . S
C431 C432 1.361 . S
C432 H392 0.930 . S
C432 C431 1.361 . S
C432 C433 1.399 . S
C433 H393 0.929 . S
C433 C428 1.386 . S
C433 C432 1.399 . S
C434 C413 1.485 . S
C434 C435 1.394 . S
C434 C439 1.360 . S
C435 H394 0.931 . S
C435 C434 1.394 . S
C435 C436 1.372 . S
C436 H395 0.930 . S
C436 C435 1.372 . S
C436 C437 1.397 . S
C437 C436 1.397 . S
C437 C438 1.390 . S
C437 C453 1.476 . S
C438 H396 0.930 . S
C438 C437 1.390 . S
C438 C439 1.366 . S
C439 H397 0.932 . S
C439 C434 1.360 . S
C439 C438 1.366 . S
C440 C414 1.490 . S
C440 C441 1.380 . S
C440 C445 1.386 . S
C441 H398 0.930 . S
C441 C440 1.380 . S
C441 C442 1.381 . S
C442 H399 0.929 . S
C442 C441 1.381 . S
C442 C443 1.371 . S
C443 C442 1.371 . S
C443 C444 1.380 . S
C444 H400 0.931 . S
C444 C443 1.380 . S
C444 C445 1.387 . S
C445 H401 0.930 . S
C445 C440 1.386 . S
C445 C444 1.387 . S
C446 C415 1.519 . S
C446 C447 1.377 . S
C446 C451 1.361 . S
C447 H402 0.929 . S
C447 C446 1.377 . S
C447 C448 1.386 . S
C448 H403 0.931 . S
C448 C447 1.386 . S
C448 C449 1.363 . S
C449 C448 1.363 . S
C449 C450 1.385 . S
C450 H404 0.930 . S
C450 C449 1.385 . S
C450 C451 1.396 . S
C451 H405 0.929 . S
C451 C446 1.361 . S
C451 C450 1.396 . S
C452 O406 1.300 . S
C452 O407 1.209 . S
C452 C425 1.486 . S
C453 O408 1.199 . S
C453 O409 1.297 . S
C453 C437 1.476 . S
H454 O480 0.856 . S
H455 O483 0.854 . S
H456 C491 0.930 . S
H457 C492 0.930 . S
H458 C494 0.930 . S
H459 C495 0.930 . S
H460 C497 0.931 . S
H461 C498 0.930 . S
H462 C500 0.930 . S
H463 C501 0.929 . S
H464 C503 0.930 . S
H465 C504 0.931 . S
H466 C506 0.930 . S
H467 C507 0.929 . S
H468 C509 0.931 . S
H469 C510 0.930 . S
H470 C512 0.930 . S
H471 C513 0.932 . S
H472 C515 0.930 . S
H473 C516 0.929 . S
H474 C518 0.931 . S
H475 C519 0.930 . S
H476 C521 0.929 . S
H477 C522 0.931 . S
H478 C524 0.930 . S
H479 C525 0.929 . S
O480 H454 0.856 . S
O480 C526 1.300 . S
O481 C526 1.209 . S
O482 C527 1.199 . S
O483 H455 0.854 . S
O483 C527 1.297 . S
C484 C485 1.404 . S
C484 C489 1.397 . S
C484 C490 1.492 . S
C485 C484 1.404 . S
C485 C486 1.396 . S
C485 C496 1.492 . S
C486 C485 1.396 . S
C486 C487 1.397 . S
C486 C502 1.509 . S
C487 C486 1.397 . S
C487 C488 1.412 . S
C487 C508 1.485 . S
C488 C487 1.412 . S
C488 C489 1.388 . S
C488 C514 1.490 . S
C489 C484 1.397 . S
C489 C488 1.388 . S
C489 C520 1.519 . S
C490 C484 1.492 . S
C490 C491 1.363 . S
C490 C495 1.390 . S
C491 H456 0.930 . S
C491 C490 1.363 . S
C491 C492 1.372 . S
C492 H457 0.930 . S
C492 C491 1.372 . S
C492 C493 1.383 . S
C493 C492 1.383 . S
C493 C494 1.395 . S
C494 H458 0.930 . S
C494 C493 1.395 . S
C494 C495 1.362 . S
C495 H459 0.930 . S
C495 C490 1.390 . S
C495 C494 1.362 . S
C496 C485 1.492 . S
C496 C497 1.377 . S
C496 C501 1.397 . S
C497 H460 0.931 . S
C497 C496 1.377 . S
C497 C498 1.376 . S
C498 H461 0.930 . S
C498 C497 1.376 . S
C498 C499 1.376 . S
C499 C498 1.376 . S
C499 C500 1.378 . S
C499 C526 1.486 . S
C500 H462 0.930 . S
C500 C499 1.378 . S
C500 C501 1.376 . S
C501 H463 0.929 . S
C501 C496 1.397 . S
C501 C500 1.376 . S
C502 C486 1.509 . S
C502 C503 1.391 . S
C502 C507 1.386 . S
C503 H464 0.930 . S
C503 C502 1.391 . S
C503 C504 1.375 . S
C504 H465 0.931 . S
C504 C503 1.375 . S
C504 C505 1.375 . S
C505 C504 1.375 . S
C505 C506 1.361 . S
C506 H466 0.930 . S
C506 C505 1.361 . S
C506 C507 1.399 . S
C507 H467 0.929 . S
C507 C502 1.386 . S
C507 C506 1.399 . S
C508 C487 1.485 . S
C508 C509 1.394 . S
C508 C513 1.360 . S
C509 H468 0.931 . S
C509 C508 1.394 . S
C509 C510 1.372 . S
C510 H469 0.930 . S
C510 C509 1.372 . S
C510 C511 1.397 . S
C511 C510 1.397 . S
C511 C512 1.390 . S
C511 C527 1.476 1_545 S
C512 H470 0.930 . S
C512 C511 1.390 . S
C512 C513 1.366 . S
C513 H471 0.932 . S
C513 C508 1.360 . S
C513 C512 1.366 . S
C514 C488 1.490 . S
C514 C515 1.380 . S
C514 C519 1.386 . S
C515 H472 0.930 . S
C515 C514 1.380 . S
C515 C516 1.381 . S
C516 H473 0.929 . S
C516 C515 1.381 . S
C516 C517 1.371 . S
C517 C516 1.371 . S
C517 C518 1.380 . S
C518 H474 0.931 . S
C518 C517 1.380 . S
C518 C519 1.387 . S
C519 H475 0.930 . S
C519 C514 1.386 . S
C519 C518 1.387 . S
C520 C489 1.519 . S
C520 C521 1.377 . S
C520 C525 1.361 . S
C521 H476 0.929 . S
C521 C520 1.377 . S
C521 C522 1.386 . S
C522 H477 0.931 . S
C522 C521 1.386 . S
C522 C523 1.363 . S
C523 C522 1.363 . S
C523 C524 1.385 . S
C524 H478 0.930 . S
C524 C523 1.385 . S
C524 C525 1.396 . S
C525 H479 0.929 . S
C525 C520 1.361 . S
C525 C524 1.396 . S
C526 O480 1.300 . S
C526 O481 1.209 . S
C526 C499 1.486 . S
C527 O482 1.199 . S
C527 O483 1.297 . S
C527 C511 1.476 1_565 S
C528 C529 1.363 . S
C528 C534 1.379 . S
C528 N536 1.356 . S
C529 C528 1.363 . S
C529 C535 1.363 . S
C530 C531 1.363 . S
C530 C535 1.379 . S
C530 N537 1.356 . S
C531 C530 1.363 . S
C531 C534 1.363 . S
N532 C534 1.356 . S
N532 H544 0.984 . S
N532 H545 0.985 . S
N533 C535 1.356 . S
N533 H538 0.984 . S
N533 H539 0.985 . S
C534 C528 1.379 . S
C534 C531 1.363 . S
C534 N532 1.356 . S
C535 C529 1.363 . S
C535 C530 1.379 . S
C535 N533 1.356 . S
N536 C528 1.356 . S
N536 H542 0.984 . S
N536 H543 0.984 . S
N537 C530 1.356 . S
N537 H540 0.984 . S
N537 H541 0.985 . S
H538 N533 0.984 . S
H539 N533 0.985 . S
H540 N537 0.984 . S
H541 N537 0.985 . S
H542 N536 0.984 . S
H543 N536 0.984 . S
H544 N532 0.984 . S
H545 N532 0.985 . S
C546 C547 1.363 . S
C546 C552 1.379 . S
C546 N554 1.356 . S
C547 C546 1.363 . S
C547 C553 1.363 . S
C548 C549 1.363 . S
C548 C553 1.379 . S
C548 N555 1.356 . S
C549 C548 1.363 . S
C549 C552 1.363 . S
N550 C552 1.356 . S
N550 H562 0.984 . S
N550 H563 0.985 . S
N551 C553 1.356 . S
N551 H556 0.984 1_545 S
N551 H557 0.985 1_545 S
C552 C546 1.379 . S
C552 C549 1.363 . S
C552 N550 1.356 . S
C553 C547 1.363 . S
C553 C548 1.379 . S
C553 N551 1.356 . S
N554 C546 1.356 . S
N554 H560 0.984 . S
N554 H561 0.984 . S
N555 C548 1.356 . S
N555 H558 0.984 . S
N555 H559 0.985 . S
H556 N551 0.984 1_565 S
H557 N551 0.985 1_565 S
H558 N555 0.984 . S
H559 N555 0.985 . S
H560 N554 0.984 . S
H561 N554 0.984 . S
H562 N550 0.984 . S
H563 N550 0.985 . S
C564 C565 1.363 . S
C564 C570 1.379 . S
C564 N572 1.356 . S
C565 C564 1.363 . S
C565 C571 1.363 . S
C566 C567 1.363 . S
C566 C571 1.379 . S
C566 N573 1.356 . S
C567 C566 1.363 . S
C567 C570 1.363 . S
N568 C570 1.356 . S
N568 H580 0.984 . S
N568 H581 0.985 . S
N569 C571 1.356 . S
N569 H574 0.984 . S
N569 H575 0.985 . S
C570 C564 1.379 . S
C570 C567 1.363 . S
C570 N568 1.356 . S
C571 C565 1.363 . S
C571 C566 1.379 . S
C571 N569 1.356 . S
N572 C564 1.356 . S
N572 H578 0.984 . S
N572 H579 0.984 . S
N573 C566 1.356 . S
N573 H576 0.984 . S
N573 H577 0.985 . S
H574 N569 0.984 . S
H575 N569 0.985 . S
H576 N573 0.984 . S
H577 N573 0.985 . S
H578 N572 0.984 . S
H579 N572 0.984 . S
H580 N568 0.984 . S
H581 N568 0.985 . S
C582 C583 1.363 . S
C582 C588 1.379 . S
C582 N590 1.356 . S
C583 C582 1.363 . S
C583 C589 1.363 . S
C584 C585 1.363 . S
C584 C589 1.379 . S
C584 N591 1.356 . S
C585 C584 1.363 . S
C585 C588 1.363 . S
N586 C588 1.356 . S
N586 H598 0.984 . S
N586 H599 0.985 . S
N587 C589 1.356 . S
N587 H592 0.984 . S
N587 H593 0.985 . S
C588 C582 1.379 . S
C588 C585 1.363 . S
C588 N586 1.356 . S
C589 C583 1.363 . S
C589 C584 1.379 . S
C589 N587 1.356 . S
N590 C582 1.356 . S
N590 H596 0.984 . S
N590 H597 0.984 . S
N591 C584 1.356 . S
N591 H594 0.984 . S
N591 H595 0.985 . S
H592 N587 0.984 . S
H593 N587 0.985 . S
H594 N591 0.984 . S
H595 N591 0.985 . S
H596 N590 0.984 . S
H597 N590 0.984 . S
H598 N586 0.984 . S
H599 N586 0.985 . S
C600 C601 1.366 1_565 S
C600 C606 1.379 . S
C600 N608 1.356 1_565 S
C601 C600 1.366 1_545 S
C601 C607 1.358 1_545 S
C602 C603 1.363 . S
C602 C607 1.379 . S
C602 N609 1.356 . S
C603 C602 1.363 . S
C603 C606 1.363 . S
N604 C606 1.356 . S
N604 H616 0.984 . S
N604 H617 0.985 . S
N605 C607 1.356 . S
N605 H610 0.984 1_565 S
N605 H611 0.985 . S
C606 C600 1.379 . S
C606 C603 1.363 . S
C606 N604 1.356 . S
C607 C601 1.358 1_565 S
C607 C602 1.379 . S
C607 N605 1.356 . S
N608 C600 1.356 1_545 S
N608 H614 0.984 . S
N608 H615 0.984 . S
N609 C602 1.356 . S
N609 H612 0.984 . S
N609 H613 0.985 . S
H610 N605 0.984 1_545 S
H611 N605 0.985 . S
H612 N609 0.984 . S
H613 N609 0.985 . S
H614 N608 0.984 . S
H615 N608 0.984 . S
H616 N604 0.984 . S
H617 N604 0.985 . S
C618 C619 1.363 . S
C618 C624 1.379 . S
C618 N626 1.356 . S
C619 C618 1.363 . S
C619 C625 1.363 . S
C620 C621 1.363 . S
C620 C625 1.379 . S
C620 N627 1.356 . S
C621 C620 1.363 . S
C621 C624 1.363 . S
N622 C624 1.356 . S
N622 H634 0.984 . S
N622 H635 0.985 . S
N623 C625 1.356 . S
N623 H628 0.984 . S
N623 H629 0.985 . S
C624 C618 1.379 . S
C624 C621 1.363 . S
C624 N622 1.356 . S
C625 C619 1.363 . S
C625 C620 1.379 . S
C625 N623 1.356 . S
N626 C618 1.356 . S
N626 H632 0.984 . S
N626 H633 0.984 . S
N627 C620 1.356 . S
N627 H630 0.984 . S
N627 H631 0.985 . S
H628 N623 0.984 . S
H629 N623 0.985 . S
H630 N627 0.984 . S
H631 N627 0.985 . S
H632 N626 0.984 . S
H633 N626 0.984 . S
H634 N622 0.984 . S
H635 N622 0.985 . S
C636 C637 1.363 . S
C636 C642 1.379 . S
C636 N644 1.356 . S
C637 C636 1.363 . S
C637 C643 1.363 . S
C638 C639 1.363 . S
C638 C643 1.379 . S
C638 N645 1.356 . S
C639 C638 1.363 . S
C639 C642 1.363 . S
N640 C642 1.356 . S
N640 H652 0.984 . S
N640 H653 0.985 . S
N641 C643 1.356 . S
N641 H646 0.984 . S
N641 H647 0.985 . S
C642 C636 1.379 . S
C642 C639 1.363 . S
C642 N640 1.356 . S
C643 C637 1.363 . S
C643 C638 1.379 . S
C643 N641 1.356 . S
N644 C636 1.356 . S
N644 H650 0.984 . S
N644 H651 0.984 . S
N645 C638 1.356 . S
N645 H648 0.984 . S
N645 H649 0.985 . S
H646 N641 0.984 . S
H647 N641 0.985 . S
H648 N645 0.984 . S
H649 N645 0.985 . S
H650 N644 0.984 . S
H651 N644 0.984 . S
H652 N640 0.984 . S
H653 N640 0.985 . S
C654 C655 1.363 1_556 S
C654 C660 1.379 . S
C654 N662 1.356 1_556 S
C655 C654 1.363 1_554 S
C655 C661 1.363 . S
C656 C657 1.363 . S
C656 C661 1.379 1_556 S
C656 N663 1.356 . S
C657 C656 1.363 . S
C657 C660 1.363 . S
N658 C660 1.356 . S
N658 H670 0.984 . S
N658 H671 0.985 . S
N659 C661 1.356 . S
N659 H664 0.984 . S
N659 H665 0.985 . S
C660 C654 1.379 . S
C660 C657 1.363 . S
C660 N658 1.356 . S
C661 C655 1.363 . S
C661 C656 1.379 1_554 S
C661 N659 1.356 . S
N662 C654 1.356 1_554 S
N662 H668 0.984 1_554 S
N662 H669 0.984 . S
N663 C656 1.356 . S
N663 H666 0.984 . S
N663 H667 0.985 . S
H664 N659 0.984 . S
H665 N659 0.985 . S
H666 N663 0.984 . S
H667 N663 0.985 . S
H668 N662 0.984 1_556 S
H669 N662 0.984 . S
H670 N658 0.984 . S
H671 N658 0.985 . S
C672 C673 1.363 . S
C672 C678 1.379 . S
C672 N680 1.356 . S
C673 C672 1.363 . S
C673 C679 1.363 . S
C674 C675 1.363 . S
C674 C679 1.379 . S
C674 N681 1.356 . S
C675 C674 1.363 . S
C675 C678 1.363 . S
N676 C678 1.356 . S
N676 H688 0.984 . S
N676 H689 0.985 . S
N677 C679 1.356 . S
N677 H682 0.984 . S
N677 H683 0.985 . S
C678 C672 1.379 . S
C678 C675 1.363 . S
C678 N676 1.356 . S
C679 C673 1.363 . S
C679 C674 1.379 . S
C679 N677 1.356 . S
N680 C672 1.356 . S
N680 H686 0.984 . S
N680 H687 0.984 . S
N681 C674 1.356 . S
N681 H684 0.984 . S
N681 H685 0.985 . S
H682 N677 0.984 . S
H683 N677 0.985 . S
H684 N681 0.984 . S
H685 N681 0.985 . S
H686 N680 0.984 . S
H687 N680 0.984 . S
H688 N676 0.984 . S
H689 N676 0.985 . S
C690 C691 1.363 . S
C690 C696 1.379 . S
C690 N698 1.356 . S
C691 C690 1.363 . S
C691 C697 1.363 . S
C692 C693 1.363 . S
C692 C697 1.379 1_556 S
C692 N699 1.356 . S
C693 C692 1.363 . S
C693 C696 1.363 1_556 S
N694 C696 1.356 1_556 S
N694 H706 0.984 1_556 S
N694 H707 0.985 . S
N695 C697 1.356 . S
N695 H700 0.984 . S
N695 H701 0.985 . S
C696 C690 1.379 . S
C696 C693 1.363 1_554 S
C696 N694 1.356 1_554 S
C697 C691 1.363 . S
C697 C692 1.379 1_554 S
C697 N695 1.356 . S
N698 C690 1.356 . S
N698 H704 0.984 . S
N698 H705 0.984 . S
N699 C692 1.356 . S
N699 H702 0.984 . S
N699 H703 0.985 . S
H700 N695 0.984 . S
H701 N695 0.985 . S
H702 N699 0.984 . S
H703 N699 0.985 . S
H704 N698 0.984 . S
H705 N698 0.984 . S
H706 N694 0.984 1_554 S
H707 N694 0.985 . S
C708 C709 1.363 . S
C708 C714 1.379 . S
C708 N716 1.356 . S
C709 C708 1.363 . S
C709 C715 1.363 . S
C710 C711 1.363 . S
C710 C715 1.379 . S
C710 N717 1.356 . S
C711 C710 1.363 . S
C711 C714 1.363 . S
N712 C714 1.356 . S
N712 H724 0.984 . S
N712 H725 0.985 . S
N713 C715 1.356 . S
N713 H718 0.984 . S
N713 H719 0.985 . S
C714 C708 1.379 . S
C714 C711 1.363 . S
C714 N712 1.356 . S
C715 C709 1.363 . S
C715 C710 1.379 . S
C715 N713 1.356 . S
N716 C708 1.356 . S
N716 H722 0.984 . S
N716 H723 0.984 . S
N717 C710 1.356 . S
N717 H720 0.984 . S
N717 H721 0.985 . S
H718 N713 0.984 . S
H719 N713 0.985 . S
H720 N717 0.984 . S
H721 N717 0.985 . S
H722 N716 0.984 . S
H723 N716 0.984 . S
H724 N712 0.984 . S
H725 N712 0.985 . S
C726 C727 1.363 . S
C726 C732 1.379 . S
C726 N734 1.356 . S
C727 C726 1.363 . S
C727 C733 1.363 . S
C728 C729 1.363 . S
C728 C733 1.379 . S
C728 N735 1.356 . S
C729 C728 1.363 . S
C729 C732 1.363 . S
N730 C732 1.356 . S
N730 H742 0.984 . S
N730 H743 0.985 . S
N731 C733 1.356 . S
N731 H736 0.984 . S
N731 H737 0.985 . S
C732 C726 1.379 . S
C732 C729 1.363 . S
C732 N730 1.356 . S
C733 C727 1.363 . S
C733 C728 1.379 . S
C733 N731 1.356 . S
N734 C726 1.356 . S
N734 H740 0.984 . S
N734 H741 0.984 . S
N735 C728 1.356 . S
N735 H738 0.984 . S
N735 H739 0.985 . S
H736 N731 0.984 . S
H737 N731 0.985 . S
H738 N735 0.984 . S
H739 N735 0.985 . S
H740 N734 0.984 . S
H741 N734 0.984 . S
H742 N730 0.984 . S
H743 N730 0.985 . S
C744 C745 1.363 . S
C744 C750 1.379 . S
C744 N752 1.356 . S
C745 C744 1.363 . S
C745 C751 1.363 . S
C746 C747 1.363 . S
C746 C751 1.379 . S
C746 N753 1.356 . S
C747 C746 1.363 . S
C747 C750 1.363 . S
N748 C750 1.356 . S
N748 H760 0.984 1_455 S
N748 H761 0.985 1_455 S
N749 C751 1.356 . S
N749 H754 0.984 . S
N749 H755 0.985 . S
C750 C744 1.379 . S
C750 C747 1.363 . S
C750 N748 1.356 . S
C751 C745 1.363 . S
C751 C746 1.379 . S
C751 N749 1.356 . S
N752 C744 1.356 . S
N752 H758 0.984 . S
N752 H759 0.984 . S
N753 C746 1.356 . S
N753 H756 0.984 . S
N753 H757 0.985 . S
H754 N749 0.984 . S
H755 N749 0.985 . S
H756 N753 0.984 . S
H757 N753 0.985 . S
H758 N752 0.984 . S
H759 N752 0.984 . S
H760 N748 0.984 1_655 S
H761 N748 0.985 1_655 S
C762 C763 1.363 . S
C762 C768 1.379 . S
C762 N770 1.356 . S
C763 C762 1.363 . S
C763 C769 1.363 . S
C764 C765 1.363 . S
C764 C769 1.379 . S
C764 N771 1.356 . S
C765 C764 1.363 . S
C765 C768 1.363 . S
N766 C768 1.356 . S
N766 H778 0.984 . S
N766 H779 0.985 . S
N767 C769 1.356 . S
N767 H772 0.984 . S
N767 H773 0.985 . S
C768 C762 1.379 . S
C768 C765 1.363 . S
C768 N766 1.356 . S
C769 C763 1.363 . S
C769 C764 1.379 . S
C769 N767 1.356 . S
N770 C762 1.356 . S
N770 H776 0.984 . S
N770 H777 0.984 . S
N771 C764 1.356 . S
N771 H774 0.984 . S
N771 H775 0.985 . S
H772 N767 0.984 . S
H773 N767 0.985 . S
H774 N771 0.984 . S
H775 N771 0.985 . S
H776 N770 0.984 . S
H777 N770 0.984 . S
H778 N766 0.984 . S
H779 N766 0.985 . S
C780 C781 1.363 1_556 S
C780 C786 1.379 . S
C780 N788 1.356 1_556 S
C781 C780 1.363 1_554 S
C781 C787 1.360 1_554 S
C782 C783 1.363 . S
C782 C787 1.388 . S
C782 N789 1.356 . S
C783 C782 1.363 . S
C783 C786 1.363 . S
N784 C786 1.356 . S
N784 H796 0.984 . S
N784 H797 0.985 . S
N785 C787 1.348 1_554 S
N785 H790 0.984 . S
N785 H791 0.985 . S
C786 C780 1.379 . S
C786 C783 1.363 . S
C786 N784 1.356 . S
C787 C781 1.360 1_556 S
C787 C782 1.388 . S
C787 N785 1.348 1_556 S
N788 C780 1.356 1_554 S
N788 H794 0.984 1_554 S
N788 H795 0.984 . S
N789 C782 1.356 . S
N789 H792 0.984 . S
N789 H793 0.985 . S
H790 N785 0.984 . S
H791 N785 0.985 . S
H792 N789 0.984 . S
H793 N789 0.985 . S
H794 N788 0.984 1_556 S
H795 N788 0.984 . S
H796 N784 0.984 . S
H797 N784 0.985 . S
C798 C799 1.363 . S
C798 C804 1.379 . S
C798 N806 1.356 1_455 S
C799 C798 1.363 . S
C799 C805 1.363 . S
C800 C801 1.363 . S
C800 C805 1.379 . S
C800 N807 1.356 . S
C801 C800 1.363 . S
C801 C804 1.363 . S
N802 C804 1.356 . S
N802 H814 0.984 . S
N802 H815 0.985 . S
N803 C805 1.356 . S
N803 H808 0.984 . S
N803 H809 0.985 . S
C804 C798 1.379 . S
C804 C801 1.363 . S
C804 N802 1.356 . S
C805 C799 1.363 . S
C805 C800 1.379 . S
C805 N803 1.356 . S
N806 C798 1.356 1_655 S
N806 H812 0.984 . S
N806 H813 0.984 . S
N807 C800 1.356 . S
N807 H810 0.984 . S
N807 H811 0.985 . S
H808 N803 0.984 . S
H809 N803 0.985 . S
H810 N807 0.984 . S
H811 N807 0.985 . S
H812 N806 0.984 . S
H813 N806 0.984 . S
H814 N802 0.984 . S
H815 N802 0.985 . S
C816 C817 1.363 . S
C816 C822 1.379 1_554 S
C816 N824 1.356 1_554 S
C817 C816 1.363 . S
C817 C823 1.363 . S
C818 C819 1.363 . S
C818 C823 1.379 . S
C818 N825 1.356 . S
C819 C818 1.363 . S
C819 C822 1.363 1_554 S
N820 C822 1.356 . S
N820 H832 0.984 . S
N820 H833 0.985 . S
N821 C823 1.356 . S
N821 H826 0.984 . S
N821 H827 0.985 . S
C822 C816 1.379 1_556 S
C822 C819 1.363 1_556 S
C822 N820 1.356 . S
C823 C817 1.363 . S
C823 C818 1.379 . S
C823 N821 1.356 . S
N824 C816 1.356 1_556 S
N824 H830 0.984 . S
N824 H831 0.984 1_556 S
N825 C818 1.356 . S
N825 H828 0.984 . S
N825 H829 0.985 . S
H826 N821 0.984 . S
H827 N821 0.985 . S
H828 N825 0.984 . S
H829 N825 0.985 . S
H830 N824 0.984 . S
H831 N824 0.984 1_554 S
H832 N820 0.984 . S
H833 N820 0.985 . S
C834 C835 1.363 . S
C834 C840 1.379 . S
C834 N842 1.356 . S
C835 C834 1.363 . S
C835 C841 1.363 . S
C836 C837 1.363 . S
C836 C841 1.379 . S
C836 N843 1.356 . S
C837 C836 1.363 . S
C837 C840 1.363 . S
N838 C840 1.356 . S
N838 H850 0.984 . S
N838 H851 0.985 . S
N839 C841 1.356 . S
N839 H844 0.984 . S
N839 H845 0.985 . S
C840 C834 1.379 . S
C840 C837 1.363 . S
C840 N838 1.356 . S
C841 C835 1.363 . S
C841 C836 1.379 . S
C841 N839 1.356 . S
N842 C834 1.356 . S
N842 H848 0.984 . S
N842 H849 0.984 . S
N843 C836 1.356 . S
N843 H846 0.984 . S
N843 H847 0.985 . S
H844 N839 0.984 . S
H845 N839 0.985 . S
H846 N843 0.984 . S
H847 N843 0.985 . S
H848 N842 0.984 . S
H849 N842 0.984 . S
H850 N838 0.984 . S
H851 N838 0.985 . S
C852 C853 1.363 . S
C852 C858 1.379 . S
C852 N860 1.356 . S
C853 C852 1.363 . S
C853 C859 1.363 . S
C854 C855 1.363 . S
C854 C859 1.379 . S
C854 N861 1.356 1_545 S
C855 C854 1.363 . S
C855 C858 1.363 . S
N856 C858 1.356 . S
N856 H868 0.984 . S
N856 H869 0.985 . S
N857 C859 1.356 1_565 S
N857 H862 0.984 . S
N857 H863 0.985 . S
C858 C852 1.379 . S
C858 C855 1.363 . S
C858 N856 1.356 . S
C859 C853 1.363 . S
C859 C854 1.379 . S
C859 N857 1.356 1_545 S
N860 C852 1.356 . S
N860 H866 0.984 . S
N860 H867 0.984 . S
N861 C854 1.356 1_565 S
N861 H864 0.971 1_565 S
N861 H865 0.999 . S
H862 N857 0.984 . S
H863 N857 0.985 . S
H864 N861 0.971 1_545 S
H865 N861 0.999 . S
H866 N860 0.984 . S
H867 N860 0.984 . S
H868 N856 0.984 . S
H869 N856 0.985 . S
C870 C871 1.363 . S
C870 C876 1.379 . S
C870 N878 1.356 . S
C871 C870 1.363 . S
C871 C877 1.363 . S
C872 C873 1.363 . S
C872 C877 1.379 . S
C872 N879 1.356 . S
C873 C872 1.363 . S
C873 C876 1.363 . S
N874 C876 1.356 . S
N874 H886 0.984 . S
N874 H887 0.985 . S
N875 C877 1.356 . S
N875 H880 0.984 . S
N875 H881 0.985 . S
C876 C870 1.379 . S
C876 C873 1.363 . S
C876 N874 1.356 . S
C877 C871 1.363 . S
C877 C872 1.379 . S
C877 N875 1.356 . S
N878 C870 1.356 . S
N878 H884 0.984 . S
N878 H885 0.984 . S
N879 C872 1.356 . S
N879 H882 0.984 . S
N879 H883 0.985 . S
H880 N875 0.984 . S
H881 N875 0.985 . S
H882 N879 0.984 . S
H883 N879 0.985 . S
H884 N878 0.984 . S
H885 N878 0.984 . S
H886 N874 0.984 . S
H887 N874 0.985 . S
C888 C889 1.363 . S
C888 C894 1.379 . S
C888 N896 1.356 . S
C889 C888 1.363 . S
C889 C895 1.363 1_655 S
C890 C891 1.363 1_455 S
C890 C895 1.379 . S
C890 N897 1.356 . S
C891 C890 1.363 1_655 S
C891 C894 1.363 . S
N892 C894 1.356 . S
N892 H904 0.984 . S
N892 H905 0.985 . S
N893 C895 1.356 . S
N893 H898 0.984 . S
N893 H899 0.985 . S
C894 C888 1.379 . S
C894 C891 1.363 . S
C894 N892 1.356 . S
C895 C889 1.363 1_455 S
C895 C890 1.379 . S
C895 N893 1.356 . S
N896 C888 1.356 . S
N896 H902 0.984 . S
N896 H903 0.984 . S
N897 C890 1.356 . S
N897 H900 0.984 . S
N897 H901 0.985 . S
H898 N893 0.984 . S
H899 N893 0.985 . S
H900 N897 0.984 . S
H901 N897 0.985 . S
H902 N896 0.984 . S
H903 N896 0.984 . S
H904 N892 0.984 . S
H905 N892 0.985 . S
C906 C907 1.363 . S
C906 C912 1.379 . S
C906 N914 1.356 . S
C907 C906 1.363 . S
C907 C913 1.363 1_545 S
C908 C909 1.363 . S
C908 C913 1.379 . S
C908 N915 1.356 . S
C909 C908 1.363 . S
C909 C912 1.363 1_565 S
N910 C912 1.356 . S
N910 H922 0.984 . S
N910 H923 0.985 . S
N911 C913 1.356 . S
N911 H916 0.984 . S
N911 H917 0.985 . S
C912 C906 1.379 . S
C912 C909 1.363 1_545 S
C912 N910 1.356 . S
C913 C907 1.363 1_565 S
C913 C908 1.379 . S
C913 N911 1.356 . S
N914 C906 1.356 . S
N914 H920 0.984 . S
N914 H921 0.984 . S
N915 C908 1.356 . S
N915 H918 0.984 . S
N915 H919 0.985 . S
H916 N911 0.984 . S
H917 N911 0.985 . S
H918 N915 0.984 . S
H919 N915 0.985 . S
H920 N914 0.984 . S
H921 N914 0.984 . S
H922 N910 0.984 . S
H923 N910 0.985 . S
C924 C925 1.363 . S
C924 C930 1.379 . S
C924 N932 1.356 . S
C925 C924 1.363 . S
C925 C931 1.363 . S
C926 C927 1.363 . S
C926 C931 1.379 . S
C926 N933 1.356 . S
C927 C926 1.363 . S
C927 C930 1.363 . S
N928 C930 1.356 . S
N928 H940 0.984 . S
N928 H941 0.985 . S
N929 C931 1.356 . S
N929 H934 0.984 . S
N929 H935 0.985 . S
C930 C924 1.379 . S
C930 C927 1.363 . S
C930 N928 1.356 . S
C931 C925 1.363 . S
C931 C926 1.379 . S
C931 N929 1.356 . S
N932 C924 1.356 . S
N932 H938 0.984 . S
N932 H939 0.984 . S
N933 C926 1.356 . S
N933 H936 0.984 . S
N933 H937 0.985 . S
H934 N929 0.984 . S
H935 N929 0.985 . S
H936 N933 0.984 . S
H937 N933 0.985 . S
H938 N932 0.984 . S
H939 N932 0.984 . S
H940 N928 0.984 . S
H941 N928 0.985 . S
C942 C943 1.363 . S
C942 C948 1.379 . S
C942 N950 1.356 . S
C943 C942 1.363 . S
C943 C949 1.363 . S
C944 C945 1.363 . S
C944 C949 1.379 . S
C944 N951 1.356 . S
C945 C944 1.363 . S
C945 C948 1.363 . S
N946 C948 1.356 . S
N946 H958 0.984 . S
N946 H959 0.985 . S
N947 C949 1.356 . S
N947 H952 0.984 . S
N947 H953 0.985 . S
C948 C942 1.379 . S
C948 C945 1.363 . S
C948 N946 1.356 . S
C949 C943 1.363 . S
C949 C944 1.379 . S
C949 N947 1.356 . S
N950 C942 1.356 . S
N950 H956 0.984 . S
N950 H957 0.984 . S
N951 C944 1.356 . S
N951 H954 0.984 . S
N951 H955 0.985 . S
H952 N947 0.984 . S
H953 N947 0.985 . S
H954 N951 0.984 . S
H955 N951 0.985 . S
H956 N950 0.984 . S
H957 N950 0.984 . S
H958 N946 0.984 . S
H959 N946 0.985 . S
C529 C13 2.231 . S
C531 C147 2.149 . S
C547 C27 1.464 . S
C549 C221 1.401 . S
C567 C271 1.762 . S
C565 C29 1.851 . S
C585 C357 1.467 . S
C583 C54 1.483 . S
C603 C449 1.834 . S
C601 C69 1.826 . S
C621 C493 1.791 . S
C619 C83 1.871 . S
C637 C15 1.498 . S
C639 C295 1.373 . S
C655 C41 2.413 . S
C657 C375 2.357 . S
C675 C431 1.441 . S
C673 C42 1.442 . S
C693 C517 1.518 . S
C691 C57 1.573 . S
C709 C71 2.233 . S
C711 C123 2.094 . S
C729 C197 1.825 . S
C727 C1 1.866 . S
C747 C369 2.046 . S
C745 C12 2.301 . S
C763 C26 2.331 . S
C765 C419 2.097 . S
C783 C523 2.269 . S
C781 C28 2.424 . S
C799 C55 1.585 . S
C801 C135 1.501 . S
C817 C68 2.182 . S
C819 C209 2.040 1_554 S
C835 C82 2.413 . S
C837 C301 2.264 . S
C853 C14 2.120 . S
C855 C505 1.972 . S
C873 C153 2.064 . S
C871 C40 2.113 . S
C889 C43 2.443 . S
C891 C227 2.273 . S
C907 C56 2.063 . S
C909 C283 1.885 . S
C925 C70 1.835 . S
C927 C345 1.590 . S
C943 C0 2.293 . S
C945 C443 2.077 . S
