# Generated by pormake.
# Topology nom, (4,4)-cn, num edge types: 1
# Building blocks:
#     Node 0, Type 0, BuildingBlock: MUDLON_clean_linker_0, # of connection points: 4
#     Node 1, Type 0, BuildingBlock: MUDLON_clean_linker_0, # of connection points: 4
#     Node 2, Type 0, BuildingBlock: MUDLON_clean_linker_0, # of connection points: 4
#     Node 3, Type 0, BuildingBlock: MUDLON_clean_linker_0, # of connection points: 4
#     Node 4, Type 0, BuildingBlock: MUDLON_clean_linker_0, # of connection points: 4
#     Node 5, Type 0, BuildingBlock: MUDLON_clean_linker_0, # of connection points: 4
#     Node 6, Type 1, BuildingBlock: GALJAG_clean_sbu_0, # of connection points: 4
#     Node 7, Type 1, BuildingBlock: GALJAG_clean_sbu_0, # of connection points: 4
#     Node 8, Type 1, BuildingBlock: GALJAG_clean_sbu_0, # of connection points: 4
#     Node 9, Type 1, BuildingBlock: GALJAG_clean_sbu_0, # of connection points: 4
#     Node 10, Type 1, BuildingBlock: GALJAG_clean_sbu_0, # of connection points: 4
#     Node 11, Type 1, BuildingBlock: GALJAG_clean_sbu_0, # of connection points: 4
#     Edge 12, Type (0, 1), BuildingBlock: AJUNOK_clean_linker_0, # of connection points: 2
#     Edge 13, Type (0, 1), BuildingBlock: AJUNOK_clean_linker_0, # of connection points: 2
#     Edge 14, Type (0, 1), BuildingBlock: AJUNOK_clean_linker_0, # of connection points: 2
#     Edge 15, Type (0, 1), BuildingBlock: AJUNOK_clean_linker_0, # of connection points: 2
#     Edge 16, Type (0, 1), BuildingBlock: AJUNOK_clean_linker_0, # of connection points: 2
#     Edge 17, Type (0, 1), BuildingBlock: AJUNOK_clean_linker_0, # of connection points: 2
#     Edge 18, Type (0, 1), BuildingBlock: AJUNOK_clean_linker_0, # of connection points: 2
#     Edge 19, Type (0, 1), BuildingBlock: AJUNOK_clean_linker_0, # of connection points: 2
#     Edge 20, Type (0, 1), BuildingBlock: AJUNOK_clean_linker_0, # of connection points: 2
#     Edge 21, Type (0, 1), BuildingBlock: AJUNOK_clean_linker_0, # of connection points: 2
#     Edge 22, Type (0, 1), BuildingBlock: AJUNOK_clean_linker_0, # of connection points: 2
#     Edge 23, Type (0, 1), BuildingBlock: AJUNOK_clean_linker_0, # of connection points: 2
#     Edge 24, Type (0, 1), BuildingBlock: AJUNOK_clean_linker_0, # of connection points: 2
#     Edge 25, Type (0, 1), BuildingBlock: AJUNOK_clean_linker_0, # of connection points: 2
#     Edge 26, Type (0, 1), BuildingBlock: AJUNOK_clean_linker_0, # of connection points: 2
#     Edge 27, Type (0, 1), BuildingBlock: AJUNOK_clean_linker_0, # of connection points: 2
#     Edge 28, Type (0, 1), BuildingBlock: AJUNOK_clean_linker_0, # of connection points: 2
#     Edge 29, Type (0, 1), BuildingBlock: AJUNOK_clean_linker_0, # of connection points: 2
#     Edge 30, Type (0, 1), BuildingBlock: AJUNOK_clean_linker_0, # of connection points: 2
#     Edge 31, Type (0, 1), BuildingBlock: AJUNOK_clean_linker_0, # of connection points: 2
#     Edge 32, Type (0, 1), BuildingBlock: AJUNOK_clean_linker_0, # of connection points: 2
#     Edge 33, Type (0, 1), BuildingBlock: AJUNOK_clean_linker_0, # of connection points: 2
#     Edge 34, Type (0, 1), BuildingBlock: AJUNOK_clean_linker_0, # of connection points: 2
#     Edge 35, Type (0, 1), BuildingBlock: AJUNOK_clean_linker_0, # of connection points: 2
# Relax obj value: 0.016
# Max RMSD: 0.121
# Mean RMSD: 0.085
data_MOF--net-nom--node1-GALJAG_clean_sbu_0--node2-MUDLON_clean_linker_0--edge1-AJUNOK_clean_linker_0
_symmetry_space_group_name_H-M    P1
_symmetry_Int_Tables_number       1
_symmetry_cell_setting            triclinic
loop_
_symmetry_equiv_pos_as_xyz
'x, y, z'
_cell_length_a     48.218018
_cell_length_b     49.113603
_cell_length_c     50.236752
_cell_angle_alpha  90.432943
_cell_angle_beta   89.78541
_cell_angle_gamma 120.64215
loop_
_atom_site_label
_atom_site_type_symbol
_atom_site_fract_x
_atom_site_fract_y
_atom_site_fract_z
_atom_type_partial_charge
H0 H 0.1565 0.58514 0.33288 0.0
N1 N 0.12312 0.61228 0.35271 0.0
H2 H 0.20305 0.61018 0.3032 0.0
H3 H 0.14635 0.66721 0.32803 0.0
H4 H 0.19334 0.69269 0.29854 0.0
H5 H 0.14033 0.6548 0.39137 0.0
H6 H 0.16116 0.65373 0.43554 0.0
H7 H 0.12883 0.56371 0.37316 0.0
H8 H 0.15001 0.56266 0.41723 0.0
H9 H 0.10008 0.55292 0.33163 0.0
H10 H 0.07303 0.62051 0.35597 0.0
H11 H 0.04442 0.51554 0.31881 0.0
H12 H 0.01699 0.58302 0.34365 0.0
H13 H 0.8904 0.4104 0.27126 0.0
H14 H 0.87031 0.3976 0.22532 0.0
H15 H 0.85859 0.47908 0.22478 0.0
H16 H 0.87888 0.49184 0.27024 0.0
H17 H 0.87745 0.49994 0.31664 0.0
H18 H 0.82832 0.48826 0.34047 0.0
H19 H 0.80578 0.392 0.3518 0.0
H20 H 0.85441 0.40361 0.32702 0.0
H21 H 0.93586 0.44476 0.32664 0.0
H22 H 0.99185 0.48238 0.33897 0.0
H23 H 0.98323 0.55828 0.30488 0.0
N24 N 0.89471 0.4566 0.30201 0.0
H25 H 0.92731 0.52066 0.29315 0.0
C26 C 0.14786 0.62438 0.33263 0.0
C27 C 0.16381 0.60826 0.32505 0.0
C28 C 0.19055 0.62266 0.30815 0.0
C29 C 0.20171 0.6533 0.29844 0.0
C30 C 0.18493 0.66882 0.30525 0.0
C31 C 0.15824 0.65442 0.32217 0.0
C32 C 0.13302 0.60947 0.37904 0.0
C33 C 0.142 0.63446 0.39705 0.0
C34 C 0.1538 0.63376 0.4222 0.0
C35 C 0.15694 0.60799 0.42979 0.0
C36 C 0.14781 0.58279 0.4118 0.0
C37 C 0.13569 0.58338 0.38665 0.0
C38 C 0.09068 0.5896 0.34473 0.0
C39 C 0.08219 0.55973 0.33429 0.0
C40 C 0.05023 0.53827 0.32709 0.0
C41 C 0.02618 0.54626 0.3302 0.0
C42 C 0.03491 0.57624 0.34063 0.0
C43 C 0.06683 0.5976 0.34782 0.0
C44 C 0.8864 0.4521 0.27416 0.0
C45 C 0.8841 0.4258 0.26096 0.0
C46 C 0.87249 0.41846 0.23486 0.0
C47 C 0.8631 0.43747 0.22144 0.0
C48 C 0.86627 0.46437 0.23442 0.0
C49 C 0.87783 0.47165 0.26053 0.0
C50 C 0.8694 0.45243 0.31984 0.0
C51 C 0.86226 0.47647 0.32456 0.0
C52 C 0.83426 0.46984 0.33843 0.0
C53 C 0.81316 0.43918 0.34798 0.0
C54 C 0.82144 0.41577 0.3445 0.0
C55 C 0.84923 0.42236 0.33052 0.0
C56 C 0.92738 0.47977 0.30905 0.0
C57 C 0.94614 0.46956 0.32192 0.0
C58 C 0.97815 0.49105 0.32875 0.0
C59 C 0.9921 0.52336 0.32284 0.0
C60 C 0.97315 0.53362 0.31 0.0
C61 C 0.94109 0.51205 0.30316 0.0
H62 H 0.42269 0.86068 0.46152 0.0
N63 N 0.40304 0.90343 0.45233 0.0
H64 H 0.39736 0.81575 0.49128 0.0
H65 H 0.35714 0.89057 0.48803 0.0
H66 H 0.33316 0.84676 0.51975 0.0
H67 H 0.35861 0.8797 0.41436 0.0
H68 H 0.36303 0.86145 0.36987 0.0
H69 H 0.45699 0.90653 0.4309 0.0
H70 H 0.46167 0.88851 0.38632 0.0
H71 H 0.45786 0.92161 0.48135 0.0
H72 H 0.40236 0.95598 0.44232 0.0
H73 H 0.49709 0.97546 0.49579 0.0
H74 H 0.44208 0.0101 0.45551 0.0
H75 H 0.62449 0.16617 0.52536 0.0
H76 H 0.63764 0.18852 0.57025 0.0
H77 H 0.53856 0.12684 0.59386 0.0
H78 H 0.52521 0.10609 0.5487 0.0
H79 H 0.53362 0.15638 0.51636 0.0
H80 H 0.53905 0.20219 0.49262 0.0
H81 H 0.60229 0.1951 0.43564 0.0
H82 H 0.59731 0.14949 0.45982 0.0
H83 H 0.57792 0.07972 0.49296 0.0
H84 H 0.53865 0.02514 0.48024 0.0
H85 H 0.46159 0.04465 0.49244 0.0
N86 N 0.56676 0.12586 0.50562 0.0
H87 H 0.5011 0.09929 0.50392 0.0
C88 C 0.39133 0.87878 0.47209 0.0
C89 C 0.4032 0.85797 0.47407 0.0
C90 C 0.38897 0.83242 0.49158 0.0
C91 C 0.36333 0.82767 0.50821 0.0
C92 C 0.35262 0.84946 0.50707 0.0
C93 C 0.36638 0.87461 0.48911 0.0
C94 C 0.40737 0.89458 0.42585 0.0
C95 C 0.38126 0.882 0.40821 0.0
C96 C 0.38391 0.87179 0.38282 0.0
C97 C 0.41285 0.87397 0.37454 0.0
C98 C 0.43914 0.88668 0.39218 0.0
C99 C 0.43651 0.89707 0.41759 0.0
C100 C 0.42694 0.93482 0.46102 0.0
C101 C 0.45416 0.94079 0.47586 0.0
C102 C 0.47674 0.9717 0.4839 0.0
C103 C 0.47277 0.99728 0.47698 0.0
C104 C 0.44567 0.99106 0.46178 0.0
C105 C 0.42303 0.96019 0.45401 0.0
C106 C 0.57406 0.13424 0.53345 0.0
C107 C 0.60577 0.15702 0.54039 0.0
C108 C 0.61327 0.16961 0.56615 0.0
C109 C 0.58923 0.1592 0.58583 0.0
C110 C 0.55763 0.13548 0.57916 0.0
C111 C 0.55002 0.12332 0.55323 0.0
C112 C 0.56545 0.14972 0.48996 0.0
C113 C 0.54826 0.1643 0.49856 0.0
C114 C 0.55137 0.19046 0.48502 0.0
C115 C 0.57109 0.20207 0.46238 0.0
C116 C 0.58671 0.18637 0.45292 0.0
C117 C 0.58396 0.16046 0.46668 0.0
C118 C 0.54257 0.09357 0.49939 0.0
C119 C 0.55251 0.07206 0.4929 0.0
C120 C 0.52997 0.04083 0.48582 0.0
C121 C 0.49682 0.03034 0.48525 0.0
C122 C 0.48689 0.05193 0.49216 0.0
C123 C 0.50949 0.08324 0.49896 0.0
H124 H 0.45369 0.6202 0.66201 0.0
N125 N 0.44565 0.56501 0.67678 0.0
H126 H 0.41576 0.63026 0.63823 0.0
H127 H 0.38784 0.51974 0.65445 0.0
H128 H 0.35082 0.52952 0.62922 0.0
H129 H 0.39257 0.53273 0.70832 0.0
H130 H 0.38742 0.54557 0.75463 0.0
H131 H 0.49226 0.60707 0.70809 0.0
H132 H 0.48764 0.61962 0.75466 0.0
H133 H 0.50074 0.57771 0.65435 0.0
H134 H 0.41106 0.50077 0.68359 0.0
H135 H 0.5185 0.54076 0.64251 0.0
H136 H 0.42691 0.4631 0.66953 0.0
H137 H 0.56977 0.43728 0.60336 0.0
H138 H 0.59106 0.43806 0.55926 0.0
H139 H 0.49403 0.38687 0.52793 0.0
H140 H 0.4728 0.38396 0.57288 0.0
H141 H 0.48424 0.34469 0.62546 0.0
H142 H 0.50905 0.32103 0.65198 0.0
H143 H 0.58221 0.41414 0.67862 0.0
H144 H 0.55737 0.43765 0.65179 0.0
H145 H 0.52889 0.46622 0.59821 0.0
H146 H 0.51363 0.50358 0.61279 0.0
H147 H 0.45771 0.44093 0.67686 0.0
N148 N 0.506 0.40581 0.618 0.0
H149 H 0.47078 0.40203 0.66052 0.0
C150 C 0.42399 0.56937 0.65996 0.0
C151 C 0.43137 0.60032 0.65471 0.0
C152 C 0.40966 0.60598 0.64104 0.0
C153 C 0.38 0.5807 0.63198 0.0
C154 C 0.37302 0.54957 0.63648 0.0
C155 C 0.39456 0.54393 0.65064 0.0
C156 C 0.44287 0.5691 0.70486 0.0
C157 C 0.41354 0.5513 0.71848 0.0
C158 C 0.4107 0.55858 0.74498 0.0
C159 C 0.4372 0.58355 0.75831 0.0
C160 C 0.46679 0.60039 0.74486 0.0
C161 C 0.46954 0.59318 0.71839 0.0
C162 C 0.45437 0.54201 0.66916 0.0
C163 C 0.48462 0.55266 0.65765 0.0
C164 C 0.49457 0.53134 0.65071 0.0
C165 C 0.4741 0.49857 0.65463 0.0
C166 C 0.4437 0.48802 0.66642 0.0
C167 C 0.43419 0.50955 0.67403 0.0
C168 C 0.5195 0.40978 0.59156 0.0
C169 C 0.553 0.42606 0.5871 0.0
C170 C 0.56523 0.42706 0.56163 0.0
C171 C 0.5443 0.41273 0.53988 0.0
C172 C 0.51084 0.39784 0.54425 0.0
C173 C 0.49863 0.39626 0.56985 0.0
C174 C 0.51894 0.39279 0.63658 0.0
C175 C 0.50532 0.35989 0.63738 0.0
C176 C 0.51949 0.34647 0.65252 0.0
C177 C 0.54778 0.36578 0.66708 0.0
C178 C 0.56072 0.39874 0.6672 0.0
C179 C 0.54644 0.41217 0.65208 0.0
C180 C 0.50103 0.43076 0.62823 0.0
C181 C 0.51338 0.46018 0.61544 0.0
C182 C 0.50478 0.48202 0.62406 0.0
C183 C 0.48422 0.47559 0.6461 0.0
C184 C 0.4729 0.44669 0.65943 0.0
C185 C 0.48081 0.42449 0.65037 0.0
H186 H 0.15459 0.61435 0.84711 0.0
N187 N 0.12511 0.57876 0.80447 0.0
H188 H 0.20286 0.62064 0.86943 0.0
H189 H 0.15221 0.54185 0.79649 0.0
H190 H 0.19991 0.54798 0.81867 0.0
H191 H 0.11369 0.53745 0.7633 0.0
H192 H 0.13627 0.55155 0.7185 0.0
H193 H 0.15672 0.63626 0.7835 0.0
H194 H 0.17831 0.65065 0.73822 0.0
H195 H 0.07524 0.58767 0.80448 0.0
H196 H 0.09965 0.51546 0.81608 0.0
H197 H 0.01866 0.54907 0.81353 0.0
H198 H 0.04414 0.47759 0.82681 0.0
H199 H 0.86096 0.4429 0.86831 0.0
H200 H 0.83897 0.44003 0.91263 0.0
H201 H 0.89331 0.39883 0.94234 0.0
H202 H 0.91319 0.39942 0.8973 0.0
H203 H 0.85916 0.35608 0.84144 0.0
H204 H 0.81176 0.33195 0.81227 0.0
H205 H 0.83062 0.42491 0.79108 0.0
H206 H 0.87816 0.4489 0.8203 0.0
H207 H 0.92701 0.48132 0.85973 0.0
H208 H 0.98216 0.52037 0.84716 0.0
H209 H 0.99263 0.44618 0.81028 0.0
N210 N 0.89739 0.41703 0.85265 0.0
H211 H 0.93826 0.40722 0.82469 0.0
C212 C 0.14983 0.57792 0.82002 0.0
C213 C 0.16397 0.59931 0.84126 0.0
C214 C 0.19141 0.60283 0.85397 0.0
C215 C 0.20521 0.58506 0.84546 0.0
C216 C 0.18992 0.56223 0.82533 0.0
C217 C 0.16255 0.55871 0.81268 0.0
C218 C 0.13356 0.58592 0.77677 0.0
C219 C 0.12733 0.56218 0.75788 0.0
C220 C 0.14011 0.5703 0.73218 0.0
C221 C 0.15895 0.60226 0.72473 0.0
C222 C 0.16409 0.62585 0.74339 0.0
C223 C 0.15155 0.61771 0.76913 0.0
C224 C 0.09199 0.55489 0.80987 0.0
C225 C 0.06844 0.56357 0.80921 0.0
C226 C 0.03612 0.54147 0.81462 0.0
C227 C 0.02656 0.51005 0.82112 0.0
C228 C 0.05024 0.50133 0.82149 0.0
C229 C 0.08243 0.5233 0.81563 0.0
C230 C 0.88793 0.42028 0.87926 0.0
C231 C 0.86803 0.43303 0.88423 0.0
C232 C 0.85569 0.4317 0.90974 0.0
C233 C 0.86353 0.41826 0.93091 0.0
C234 C 0.88565 0.40807 0.92628 0.0
C235 C 0.89737 0.40873 0.90065 0.0
C236 C 0.87197 0.40411 0.8331 0.0
C237 C 0.8533 0.37119 0.83016 0.0
C238 C 0.82636 0.35751 0.81351 0.0
C239 C 0.81743 0.3766 0.79964 0.0
C240 C 0.83681 0.4097 0.80182 0.0
C241 C 0.86399 0.42339 0.81836 0.0
C242 C 0.92879 0.4412 0.8436 0.0
C243 C 0.94127 0.47349 0.84907 0.0
C244 C 0.97282 0.49589 0.84157 0.0
C245 C 0.99229 0.48656 0.82791 0.0
C246 C 0.97895 0.45432 0.82143 0.0
C247 C 0.94771 0.43197 0.82939 0.0
H248 H 0.59156 0.17207 0.95351 0.0
N249 N 0.60524 0.12426 0.94747 0.0
H250 H 0.61844 0.21712 0.98344 0.0
H251 H 0.64454 0.1318 0.9876 0.0
H252 H 0.66922 0.17549 0.01972 0.0
H253 H 0.65083 0.14926 0.91053 0.0
H254 H 0.6481 0.17009 0.86708 0.0
H255 H 0.55148 0.12032 0.92523 0.0
H256 H 0.54836 0.14065 0.88157 0.0
H257 H 0.55077 0.10655 0.97685 0.0
H258 H 0.60538 0.07149 0.93647 0.0
H259 H 0.51228 0.05301 0.99217 0.0
H260 H 0.56638 0.0177 0.95046 0.0
H261 H 0.38938 0.8665 0.02805 0.0
H262 H 0.37849 0.8457 0.07327 0.0
H263 H 0.48017 0.90137 0.09132 0.0
H264 H 0.49103 0.92049 0.04572 0.0
H265 H 0.48368 0.87634 0.00918 0.0
H266 H 0.47705 0.83082 0.98359 0.0
H267 H 0.39928 0.82851 0.93941 0.0
H268 H 0.40625 0.87442 0.96499 0.0
H269 H 0.43294 0.94792 0.9932 0.0
H270 H 0.47051 0.00208 0.97871 0.0
H271 H 0.54966 0.98529 0.98824 0.0
N272 N 0.44615 0.90324 0.00546 0.0
H273 H 0.51192 0.93114 1.00135 0.0
C274 C 0.61692 0.1489 0.96758 0.0
C275 C 0.60868 0.17259 0.96762 0.0
C276 C 0.62388 0.19836 0.9851 0.0
C277 C 0.64686 0.20059 0.00354 0.0
C278 C 0.65287 0.17543 0.00498 0.0
C279 C 0.63843 0.15017 0.98691 0.0
C280 C 0.60149 0.13323 0.92103 0.0
C281 C 0.62831 0.14697 0.90414 0.0
C282 C 0.62666 0.15879 0.87938 0.0
C283 C 0.59809 0.15722 0.87106 0.0
C284 C 0.57082 0.14258 0.88766 0.0
C285 C 0.57248 0.13067 0.91247 0.0
C286 C 0.58116 0.09293 0.9558 0.0
C287 C 0.55432 0.08723 0.97116 0.0
C288 C 0.53221 0.05653 0.97972 0.0
C289 C 0.5363 0.03091 0.9728 0.0
C290 C 0.56279 0.03681 0.9568 0.0
C291 C 0.58498 0.06747 0.94854 0.0
C292 C 0.44083 0.89536 0.03338 0.0
C293 C 0.40922 0.87464 0.04195 0.0
C294 C 0.40304 0.86297 0.06789 0.0
C295 C 0.42841 0.87226 0.08614 0.0
C296 C 0.46008 0.8937 0.07776 0.0
C297 C 0.4663 0.90494 0.05162 0.0
C298 C 0.44553 0.87893 0.98878 0.0
C299 C 0.46583 0.86667 0.9935 0.0
C300 C 0.46204 0.84065 0.97886 0.0
C301 C 0.43778 0.82633 0.95943 0.0
C302 C 0.41818 0.83919 0.95425 0.0
C303 C 0.42217 0.86535 0.96873 0.0
C304 C 0.46944 0.93545 0.99844 0.0
C305 C 0.45845 0.9561 0.9922 0.0
C306 C 0.48001 0.98709 0.98407 0.0
C307 C 0.51323 0.99819 0.98218 0.0
C308 C 0.52424 0.9775 0.98892 0.0
C309 C 0.50261 0.94644 0.99673 0.0
H310 H 0.55448 0.42173 0.13846 0.0
N311 N 0.57244 0.46709 0.17495 0.0
H312 H 0.58931 0.40783 0.11324 0.0
H313 H 0.63851 0.50154 0.17311 0.0
H314 H 0.67321 0.48785 0.14813 0.0
H315 H 0.61579 0.50414 0.21314 0.0
H316 H 0.62072 0.48684 0.25764 0.0
H317 H 0.53042 0.41369 0.19878 0.0
H318 H 0.53356 0.39701 0.24391 0.0
H319 H 0.51387 0.45929 0.17625 0.0
H320 H 0.61319 0.52926 0.16111 0.0
H321 H 0.498 0.49799 0.16624 0.0
H322 H 0.59754 0.5674 0.14917 0.0
H323 H 0.44782 0.59588 0.10873 0.0
H324 H 0.42488 0.59355 0.06516 0.0
H325 H 0.52035 0.63987 0.03075 0.0
H326 H 0.54338 0.64405 0.07505 0.0
H327 H 0.5338 0.68798 0.12759 0.0
H328 H 0.50974 0.71249 0.15445 0.0
H329 H 0.43903 0.62056 0.18438 0.0
H330 H 0.46306 0.59617 0.15719 0.0
H331 H 0.47486 0.56191 0.11804 0.0
H332 H 0.49018 0.52405 0.13182 0.0
H333 H 0.57976 0.60075 0.16337 0.0
N334 N 0.51229 0.62672 0.12131 0.0
H335 H 0.56502 0.6386 0.14759 0.0
C336 C 0.59371 0.46275 0.15747 0.0
C337 C 0.5804 0.43668 0.1401 0.0
C338 C 0.60028 0.42871 0.12586 0.0
C339 C 0.63396 0.44688 0.12862 0.0
C340 C 0.64737 0.47377 0.14522 0.0
C341 C 0.62746 0.48157 0.1596 0.0
C342 C 0.57322 0.45972 0.20248 0.0
C343 C 0.59796 0.48066 0.21969 0.0
C344 C 0.60052 0.47084 0.24521 0.0
C345 C 0.57805 0.44015 0.25404 0.0
C346 C 0.55199 0.42028 0.23738 0.0
C347 C 0.54988 0.42988 0.21175 0.0
C348 C 0.56454 0.49104 0.1691 0.0
C349 C 0.53221 0.48297 0.1705 0.0
C350 C 0.52319 0.50513 0.1645 0.0
C351 C 0.54634 0.53595 0.1565 0.0
C352 C 0.57894 0.54413 0.15554 0.0
C353 C 0.588 0.52207 0.16208 0.0
C354 C 0.49757 0.62082 0.09527 0.0
C355 C 0.46391 0.60547 0.09189 0.0
C356 C 0.45069 0.60368 0.06675 0.0
C357 C 0.47074 0.61643 0.04435 0.0
C358 C 0.50424 0.63013 0.04762 0.0
C359 C 0.51746 0.6324 0.07284 0.0
C360 C 0.50027 0.64039 0.14033 0.0
C361 C 0.51349 0.67325 0.14034 0.0
C362 C 0.49974 0.68716 0.15567 0.0
C363 C 0.47228 0.66837 0.17124 0.0
C364 C 0.45987 0.63553 0.17222 0.0
C365 C 0.47374 0.62161 0.15688 0.0
C366 C 0.51917 0.6033 0.13131 0.0
C367 C 0.49787 0.57064 0.12776 0.0
C368 C 0.5066 0.54888 0.13601 0.0
C369 C 0.53646 0.55913 0.14863 0.0
C370 C 0.55701 0.59181 0.15312 0.0
C371 C 0.5485 0.61355 0.14439 0.0
In372 In 0.62235 0.38192 0.39915 0.0
O373 O 0.67715 0.41619 0.40337 0.0
O374 O 0.6604 0.37863 0.37528 0.0
C375 C 0.59696 0.39821 0.43984 0.0
C376 C 0.60219 0.39816 0.35506 0.0
C377 C 0.60476 0.32375 0.41727 0.0
O378 O 0.62671 0.41384 0.43436 0.0
O379 O 0.58024 0.37529 0.42431 0.0
O380 O 0.59348 0.32785 0.39599 0.0
O381 O 0.6249 0.3489 0.42911 0.0
C382 C 0.68431 0.40233 0.3857 0.0
O383 O 0.59441 0.37001 0.36011 0.0
O384 O 0.61929 0.41803 0.37271 0.0
In385 In 0.25778 0.6451 0.57586 0.0
O386 O 0.26339 0.60242 0.58551 0.0
O387 O 0.30569 0.64769 0.58269 0.0
C388 C 0.22101 0.62398 0.53118 0.0
C389 C 0.22543 0.63391 0.62251 0.0
C390 C 0.29329 0.70705 0.5627 0.0
O391 O 0.24599 0.62209 0.53394 0.0
O392 O 0.21467 0.6357 0.55094 0.0
O393 O 0.26454 0.69456 0.57072 0.0
O394 O 0.30422 0.68859 0.562 0.0
C395 C 0.29373 0.61866 0.58737 0.0
O396 O 0.25297 0.65806 0.61908 0.0
O397 O 0.2146 0.61577 0.60259 0.0
In398 In 0.63223 0.26453 0.73064 0.0
O399 O 0.68698 0.28616 0.72946 0.0
O400 O 0.66798 0.30546 0.75691 0.0
C401 C 0.61864 0.22789 0.68661 0.0
C402 C 0.6116 0.22483 0.77293 0.0
C403 C 0.60809 0.30067 0.71415 0.0
O404 O 0.64702 0.24542 0.69509 0.0
O405 O 0.59717 0.22875 0.70039 0.0
O406 O 0.59279 0.27735 0.72947 0.0
O407 O 0.63562 0.30585 0.70746 0.0
C408 C 0.69269 0.30614 0.74772 0.0
O409 O 0.60583 0.24702 0.77057 0.0
O410 O 0.6268 0.22217 0.75362 0.0
In411 In 0.39377 0.64528 0.90226 0.0
O412 O 0.33876 0.61516 0.90763 0.0
O413 O 0.35756 0.64099 0.87175 0.0
C414 C 0.41733 0.6308 0.94514 0.0
C415 C 0.41485 0.62598 0.86038 0.0
C416 C 0.40846 0.70436 0.91624 0.0
O417 O 0.38816 0.61399 0.93811 0.0
O418 O 0.43422 0.65413 0.9303 0.0
O419 O 0.42604 0.69929 0.90068 0.0
O420 O 0.38356 0.67974 0.92429 0.0
C421 C 0.33292 0.62236 0.88503 0.0
O422 O 0.42289 0.65457 0.86403 0.0
O423 O 0.39716 0.60742 0.87841 0.0
In424 In 0.75794 0.38138 0.07567 0.0
O425 O 0.77097 0.37176 0.11687 0.0
O426 O 0.80061 0.41746 0.10078 0.0
C427 C 0.71948 0.32081 0.05974 0.0
C428 C 0.71793 0.40284 0.08863 0.0
C429 C 0.79584 0.39784 0.03191 0.0
O430 O 0.74439 0.32963 0.07369 0.0
O431 O 0.71327 0.34226 0.05457 0.0
O432 O 0.77904 0.41024 0.03727 0.0
O433 O 0.79437 0.37855 0.04901 0.0
C434 C 0.79505 0.39915 0.1201 0.0
O435 O 0.74146 0.41762 0.07291 0.0
O436 O 0.7146 0.3773 0.09736 0.0
In437 In 0.38735 0.7713 0.2319 0.0
O438 O 0.42733 0.75914 0.23136 0.0
O439 O 0.38413 0.72886 0.21028 0.0
C440 C 0.4061 0.81204 0.27384 0.0
C441 C 0.40114 0.80727 0.18784 0.0
C442 C 0.32696 0.72901 0.24829 0.0
O443 O 0.41321 0.79068 0.27192 0.0
O444 O 0.39072 0.81346 0.25422 0.0
O445 O 0.33242 0.74545 0.22762 0.0
O446 O 0.35194 0.73347 0.2602 0.0
C447 C 0.41191 0.7348 0.21686 0.0
O448 O 0.37305 0.79169 0.19738 0.0
O449 O 0.42227 0.80489 0.20062 0.0
C450 C 0.26022 0.67154 0.29397 0.0
C451 C 0.23256 0.67027 0.28354 0.0
C452 C 0.29041 0.6899 0.28195 0.0
C453 C 0.29416 0.70763 0.25893 0.0
H454 H 0.25876 0.65915 0.31215 0.0
H455 H 0.3111 0.69072 0.29119 0.0
S456 S 0.22865 0.71007 0.22244 0.0
N457 N 0.21032 0.68656 0.24793 0.0
N458 N 0.26713 0.72121 0.22525 0.0
C459 C 0.26647 0.70563 0.2477 0.0
C460 C 0.23568 0.68698 0.26005 0.0
C461 C 0.59124 0.25979 0.46621 0.0
C462 C 0.57793 0.2323 0.45034 0.0
C463 C 0.59982 0.28919 0.45524 0.0
C464 C 0.59492 0.29213 0.42807 0.0
H465 H 0.5957 0.25867 0.48718 0.0
H466 H 0.61031 0.30977 0.46822 0.0
S467 S 0.55991 0.22697 0.37822 0.0
N468 N 0.55983 0.20958 0.40626 0.0
N469 N 0.57532 0.26482 0.38562 0.0
C470 C 0.58106 0.26469 0.41206 0.0
C471 C 0.5728 0.23478 0.42319 0.0
C472 C 0.3675 0.61216 0.60013 0.0
C473 C 0.35646 0.5873 0.61859 0.0
C474 C 0.34674 0.62136 0.58943 0.0
C475 C 0.31391 0.60572 0.59633 0.0
H476 H 0.39262 0.62512 0.59427 0.0
H477 H 0.35663 0.64127 0.57596 0.0
S478 S 0.27241 0.5389 0.64337 0.0
N479 N 0.31017 0.54717 0.64325 0.0
N480 N 0.27098 0.56372 0.62221 0.0
C481 C 0.30213 0.58002 0.61388 0.0
C482 C 0.32342 0.57096 0.6252 0.0
C483 C 0.78034 0.33762 0.76559 0.0
C484 C 0.78685 0.36157 0.78432 0.0
C485 C 0.75024 0.32072 0.75297 0.0
C486 C 0.72537 0.32684 0.75894 0.0
H487 H 0.79849 0.3315 0.76101 0.0
H488 H 0.74612 0.30199 0.73915 0.0
S489 S 0.73066 0.38801 0.80596 0.0
N490 N 0.76642 0.39127 0.80765 0.0
N491 N 0.70982 0.35952 0.78409 0.0
C492 C 0.73191 0.35139 0.77709 0.0
C493 C 0.76267 0.36876 0.78973 0.0
C494 C 0.39957 0.7697 0.94805 0.0
C495 C 0.43083 0.79626 0.94649 0.0
C496 C 0.39258 0.74029 0.93779 0.0
C497 C 0.41648 0.73634 0.92528 0.0
H498 H 0.38054 0.77145 0.95796 0.0
H499 H 0.36826 0.7204 0.93994 0.0
S500 S 0.5018 0.79902 0.91489 0.0
N501 N 0.48566 0.81718 0.93076 0.0
N502 N 0.4725 0.76187 0.91113 0.0
C503 C 0.44767 0.76293 0.92293 0.0
C504 C 0.45487 0.79287 0.93368 0.0
C505 C 0.64771 0.40485 0.12087 0.0
C506 C 0.65477 0.43597 0.11643 0.0
C507 C 0.66807 0.39436 0.11143 0.0
C508 C 0.6962 0.41447 0.09695 0.0
H509 H 0.62672 0.38868 0.1324 0.0
H510 H 0.66182 0.37032 0.11581 0.0
S511 S 0.72453 0.49772 0.07868 0.0
N512 N 0.69111 0.48651 0.09577 0.0
N513 N 0.7294 0.46678 0.07781 0.0
C514 C 0.70313 0.44545 0.09176 0.0
C515 C 0.68246 0.45622 0.10161 0.0
C516 C 0.31223 0.78168 0.52605 0.0
C517 C 0.34621 0.79881 0.5251 0.0
C518 C 0.29529 0.75276 0.53949 0.0
C519 C 0.31164 0.73958 0.55213 0.0
H520 H 0.29847 0.78997 0.51542 0.0
H521 H 0.26919 0.73993 0.53885 0.0
S522 S 0.4002 0.77659 0.55884 0.0
N523 N 0.39545 0.80198 0.54092 0.0
N524 N 0.3635 0.74689 0.56501 0.0
C525 C 0.34549 0.75692 0.55234 0.0
C526 C 0.36279 0.78668 0.53912 0.0
C527 C 0.54695 0.325 0.69738 0.0
C528 C 0.56442 0.35138 0.68081 0.0
C529 C 0.56153 0.30935 0.70871 0.0
C530 C 0.59408 0.31927 0.7037 0.0
H531 H 0.52168 0.31615 0.70136 0.0
H532 H 0.54692 0.28885 0.72098 0.0
S533 S 0.65047 0.38741 0.66187 0.0
N534 N 0.61607 0.38698 0.66016 0.0
N535 N 0.64355 0.35776 0.68147 0.0
C536 C 0.61199 0.34605 0.68758 0.0
C537 C 0.59716 0.36206 0.67616 0.0
C538 C 0.24304 0.59252 0.88285 0.0
C539 C 0.23729 0.59269 0.85543 0.0
C540 C 0.27386 0.60111 0.89237 0.0
C541 C 0.3 0.61079 0.87479 0.0
H542 H 0.22362 0.5858 0.89699 0.0
H543 H 0.27742 0.60102 0.91364 0.0
S544 S 0.29729 0.6151 0.80116 0.0
N545 N 0.26006 0.60296 0.81089 0.0
N546 N 0.31781 0.61929 0.82864 0.0
C547 C 0.29437 0.61073 0.84733 0.0
C548 C 0.26306 0.60164 0.83768 0.0
C549 C 0.65005 0.24539 0.03076 0.0
C550 C 0.66543 0.22981 0.02012 0.0
C551 C 0.66756 0.27454 0.0441 0.0
C552 C 0.70095 0.28881 0.04795 0.0
H553 H 0.62431 0.23524 0.02843 0.0
H554 H 0.6549 0.28609 0.0513 0.0
S555 S 0.75321 0.25884 0.0237 0.0
N556 N 0.71666 0.23199 0.01371 0.0
N557 N 0.74896 0.2857 0.04016 0.0
C558 C 0.71658 0.27326 0.03818 0.0
C559 C 0.69898 0.24402 0.02398 0.0
C560 C 0.47342 0.71059 0.20047 0.0
C561 C 0.45569 0.68309 0.18489 0.0
C562 C 0.45883 0.72657 0.21145 0.0
C563 C 0.426 0.71586 0.20704 0.0
H564 H 0.49891 0.72007 0.20389 0.0
H565 H 0.47363 0.74796 0.2229 0.0
S566 S 0.36885 0.64462 0.16796 0.0
N567 N 0.4035 0.64556 0.16589 0.0
N568 N 0.37599 0.67539 0.18656 0.0
C569 C 0.40784 0.68795 0.19199 0.0
C570 C 0.42268 0.67161 0.18093 0.0
C571 C 0.75349 0.40344 0.34876 0.0
C572 C 0.78097 0.43044 0.35886 0.0
C573 C 0.72259 0.3947 0.35775 0.0
C574 C 0.71773 0.41255 0.37728 0.0
H575 H 0.75578 0.38914 0.33337 0.0
H576 H 0.70231 0.37376 0.3491 0.0
S577 S 0.7818 0.48493 0.41082 0.0
N578 N 0.80154 0.47471 0.38994 0.0
N579 N 0.74321 0.45836 0.40683 0.0
C580 C 0.745 0.43955 0.38776 0.0
C581 C 0.77664 0.44852 0.37851 0.0
C582 C 0.1979 0.60491 0.45822 0.0
C583 C 0.17063 0.60815 0.45622 0.0
C584 C 0.21344 0.60881 0.48276 0.0
C585 C 0.20213 0.61594 0.50613 0.0
H586 H 0.20807 0.60062 0.44053 0.0
H587 H 0.23508 0.6073 0.48322 0.0
S588 S 0.12898 0.62269 0.51181 0.0
N589 N 0.13119 0.61591 0.47987 0.0
N590 N 0.16007 0.62314 0.52594 0.0
C591 C 0.17382 0.61754 0.50452 0.0
C592 C 0.15817 0.61371 0.47958 0.0
C593 C 0.57524 0.18339 0.62387 0.0
C594 C 0.59648 0.17478 0.61254 0.0
C595 C 0.58231 0.19991 0.64812 0.0
C596 C 0.6111 0.20888 0.66184 0.0
H597 H 0.55333 0.17811 0.61359 0.0
H598 H 0.56546 0.20646 0.65576 0.0
S599 S 0.67338 0.18954 0.64227 0.0
N600 N 0.64629 0.17423 0.61822 0.0
N601 N 0.66009 0.20632 0.66331 0.0
C602 C 0.63224 0.19988 0.65114 0.0
C603 C 0.62482 0.18261 0.62662 0.0
C604 C 0.44445 0.62599 0.7903 0.0
C605 C 0.43342 0.59381 0.78533 0.0
C606 C 0.43929 0.63626 0.81493 0.0
C607 C 0.42289 0.61477 0.83563 0.0
H608 H 0.45631 0.64332 0.77473 0.0
H609 H 0.44749 0.66116 0.81747 0.0
S610 S 0.39173 0.52829 0.83356 0.0
N611 N 0.40735 0.54081 0.80371 0.0
N612 N 0.39733 0.55995 0.84999 0.0
C613 C 0.41268 0.58264 0.83124 0.0
C614 C 0.41795 0.57219 0.8061 0.0
C615 C 0.84254 0.43691 0.96867 0.0
C616 C 0.84727 0.41326 0.95724 0.0
C617 C 0.82594 0.43193 0.99288 0.0
C618 C 0.81391 0.40332 0.00672 0.0
H619 H 0.85174 0.45946 0.95884 0.0
H620 H 0.82271 0.45067 1.00089 0.0
S621 S 0.81729 0.33285 0.98447 0.0
N622 N 0.83628 0.35925 0.96094 0.0
N623 N 0.80645 0.35051 0.00676 0.0
C624 C 0.81837 0.37949 0.99555 0.0
C625 C 0.83472 0.38431 0.97076 0.0
C626 C 0.44209 0.84715 0.12322 0.0
C627 C 0.42211 0.85785 0.11313 0.0
C628 C 0.43555 0.83155 0.14771 0.0
C629 C 0.40852 0.82562 0.16294 0.0
H630 H 0.46247 0.85001 0.11177 0.0
H631 H 0.45128 0.82323 0.15437 0.0
S632 S 0.35052 0.85159 0.14704 0.0
N633 N 0.37577 0.86386 0.12164 0.0
N634 N 0.36285 0.83346 0.16717 0.0
C635 C 0.38879 0.83683 0.15351 0.0
C636 C 0.39572 0.85318 0.12874 0.0
C637 C 0.59157 0.44779 0.30289 0.0
C638 C 0.5826 0.42842 0.27999 0.0
C639 C 0.59726 0.4376 0.32722 0.0
C640 C 0.59395 0.40755 0.32966 0.0
H641 H 0.59429 0.47106 0.302 0.0
H642 H 0.60446 0.45348 0.34421 0.0
S643 S 0.57261 0.34835 0.27548 0.0
N644 N 0.57215 0.37824 0.26116 0.0
N645 N 0.58177 0.35878 0.30698 0.0
C646 C 0.58475 0.38784 0.30702 0.0
C647 C 0.57935 0.39834 0.28219 0.0
C648 C 0.42502 0.83934 0.34587 0.0
C649 C 0.41484 0.8615 0.34801 0.0
C650 C 0.42351 0.82446 0.3215 0.0
C651 C 0.41185 0.83128 0.29835 0.0
H652 H 0.43294 0.83245 0.3634 0.0
H653 H 0.4304 0.80664 0.32107 0.0
S654 S 0.38635 0.89075 0.29279 0.0
N655 N 0.39576 0.89185 0.3245 0.0
N656 N 0.39277 0.86396 0.27874 0.0
C657 C 0.40325 0.85468 0.29998 0.0
C658 C 0.40474 0.86973 0.32479 0.0
C659 C 0.54181 0.38225 0.49886 0.0
C660 C 0.55708 0.41096 0.51323 0.0
C661 C 0.55438 0.37886 0.47472 0.0
C662 C 0.58302 0.40387 0.46409 0.0
H663 H 0.52047 0.36178 0.50669 0.0
H664 H 0.54208 0.35601 0.46481 0.0
S665 S 0.6307 0.48494 0.49221 0.0
N666 N 0.60095 0.46586 0.51363 0.0
N667 N 0.62528 0.45895 0.46873 0.0
C668 C 0.59817 0.43297 0.47776 0.0
C669 C 0.58506 0.43664 0.5022 0.0
C670 C 0.2077 0.63448 0.6962 0.0
C671 C 0.17483 0.61107 0.69817 0.0
C672 C 0.22373 0.64222 0.6716 0.0
C673 C 0.20759 0.62669 0.64804 0.0
H674 H 0.22139 0.64644 0.7139 0.0
H675 H 0.24914 0.65998 0.67117 0.0
S676 S 0.12079 0.56572 0.64197 0.0
N677 N 0.12618 0.57415 0.67409 0.0
N678 N 0.15637 0.58811 0.62798 0.0
C679 C 0.17455 0.60376 0.64962 0.0
C680 C 0.15818 0.59608 0.67463 0.0
C681 C 0.60999 0.16601 0.82232 0.0
C682 C 0.59758 0.17205 0.84553 0.0
C683 C 0.6131 0.18226 0.79865 0.0
C684 C 0.6041 0.20535 0.79727 0.0
H685 H 0.61795 0.14899 0.82259 0.0
H686 H 0.62355 0.17728 0.78152 0.0
S687 S 0.56924 0.22923 0.85234 0.0
N688 N 0.5754 0.20209 0.86556 0.0
N689 N 0.58101 0.2325 0.82103 0.0
C690 C 0.59058 0.21084 0.8201 0.0
C691 C 0.58737 0.19422 0.84423 0.0
C692 C 0.47272 0.64669 0.00385 0.0
C693 C 0.45722 0.61822 0.01822 0.0
C694 C 0.45986 0.6501 0.98005 0.0
C695 C 0.43072 0.62534 0.96967 0.0
H696 H 0.49461 0.66692 0.01139 0.0
H697 H 0.47255 0.67273 0.97006 0.0
S698 S 0.38179 0.54506 0.99828 0.0
N699 N 0.41217 0.56395 0.01925 0.0
N700 N 0.38746 0.57079 0.97482 0.0
C701 C 0.41516 0.59651 0.98347 0.0
C702 C 0.42851 0.59287 0.00766 0.0
C703 C 0.82201 0.39687 0.19054 0.0
C704 C 0.84774 0.42793 0.19476 0.0
C705 C 0.80555 0.3877 0.16619 0.0
C706 C 0.81421 0.40919 0.14505 0.0
H707 H 0.81394 0.37971 0.20645 0.0
H708 H 0.7855 0.36368 0.16413 0.0
S709 S 0.88158 0.49271 0.14532 0.0
N710 N 0.88237 0.4797 0.17536 0.0
N711 N 0.85139 0.46262 0.12957 0.0
C712 C 0.84049 0.44012 0.14877 0.0
C713 C 0.85722 0.44946 0.17363 0.0
loop_
_geom_bond_atom_site_label_1
_geom_bond_atom_site_label_2
_geom_bond_distance
_geom_bond_site_symmetry_2
_ccdc_geom_bond_type
H0 C27 0.929 . S
N1 C26 1.433 . S
N1 C32 1.435 . S
N1 C38 1.423 . S
H2 C28 0.930 . S
H3 C31 0.931 . S
H4 C30 0.929 . S
H5 C33 0.930 . S
H6 C34 0.932 . S
H7 C37 0.929 . S
H8 C36 0.931 . S
H9 C39 0.929 . S
H10 C43 0.932 . S
H11 C40 0.931 . S
H12 C42 0.929 . S
H13 C45 0.929 . S
H14 C46 0.930 . S
H15 C48 0.929 . S
H16 C49 0.931 . S
H17 C51 0.930 . S
H18 C52 0.932 . S
H19 C54 0.931 . S
H20 C55 0.929 . S
H21 C57 0.929 . S
H22 C58 0.931 . S
H23 C60 0.929 . S
N24 C44 1.433 . S
N24 C50 1.435 . S
N24 C56 1.423 . S
H25 C61 0.932 . S
C26 N1 1.433 . S
C26 C27 1.363 . S
C26 C31 1.370 . S
C27 H0 0.929 . S
C27 C26 1.363 . S
C27 C28 1.385 . S
C28 H2 0.930 . S
C28 C27 1.385 . S
C28 C29 1.357 . S
C29 C28 1.357 . S
C29 C30 1.406 . S
C30 H4 0.929 . S
C30 C29 1.406 . S
C30 C31 1.391 . S
C31 H3 0.931 . S
C31 C26 1.370 . S
C31 C30 1.391 . S
C32 N1 1.435 . S
C32 C33 1.358 . S
C32 C37 1.371 . S
C33 H5 0.930 . S
C33 C32 1.358 . S
C33 C34 1.405 . S
C34 H6 0.932 . S
C34 C33 1.405 . S
C34 C35 1.383 . S
C35 C34 1.383 . S
C35 C36 1.393 . S
C36 H8 0.931 . S
C36 C35 1.393 . S
C36 C37 1.382 . S
C37 H7 0.929 . S
C37 C32 1.371 . S
C37 C36 1.382 . S
C38 N1 1.423 . S
C38 C39 1.362 . S
C38 C43 1.388 . S
C39 H9 0.929 . S
C39 C38 1.362 . S
C39 C40 1.376 . S
C40 H11 0.931 . S
C40 C39 1.376 . S
C40 C41 1.396 . S
C41 C40 1.396 . S
C41 C42 1.348 . S
C41 C59 1.472 1_455 S
C42 H12 0.929 . S
C42 C41 1.348 . S
C42 C43 1.443 . S
C43 H10 0.932 . S
C43 C38 1.388 . S
C43 C42 1.443 . S
C44 N24 1.433 . S
C44 C45 1.363 . S
C44 C49 1.370 . S
C45 H13 0.929 . S
C45 C44 1.363 . S
C45 C46 1.385 . S
C46 H14 0.930 . S
C46 C45 1.385 . S
C46 C47 1.357 . S
C47 C46 1.357 . S
C47 C48 1.406 . S
C48 H15 0.929 . S
C48 C47 1.406 . S
C48 C49 1.391 . S
C49 H16 0.931 . S
C49 C44 1.370 . S
C49 C48 1.391 . S
C50 N24 1.435 . S
C50 C51 1.358 . S
C50 C55 1.371 . S
C51 H17 0.930 . S
C51 C50 1.358 . S
C51 C52 1.405 . S
C52 H18 0.932 . S
C52 C51 1.405 . S
C52 C53 1.383 . S
C53 C52 1.383 . S
C53 C54 1.393 . S
C54 H19 0.931 . S
C54 C53 1.393 . S
C54 C55 1.382 . S
C55 H20 0.929 . S
C55 C50 1.371 . S
C55 C54 1.382 . S
C56 N24 1.423 . S
C56 C57 1.362 . S
C56 C61 1.388 . S
C57 H21 0.929 . S
C57 C56 1.362 . S
C57 C58 1.376 . S
C58 H22 0.931 . S
C58 C57 1.376 . S
C58 C59 1.396 . S
C59 C41 1.472 1_655 S
C59 C58 1.396 . S
C59 C60 1.348 . S
C60 H23 0.929 . S
C60 C59 1.348 . S
C60 C61 1.443 . S
C61 H25 0.932 . S
C61 C56 1.388 . S
C61 C60 1.443 . S
H62 C89 0.929 . S
N63 C88 1.433 . S
N63 C94 1.435 . S
N63 C100 1.423 . S
H64 C90 0.930 . S
H65 C93 0.931 . S
H66 C92 0.929 . S
H67 C95 0.930 . S
H68 C96 0.932 . S
H69 C99 0.929 . S
H70 C98 0.931 . S
H71 C101 0.929 . S
H72 C105 0.932 . S
H73 C102 0.931 . S
H74 C104 0.929 1_545 S
H75 C107 0.929 . S
H76 C108 0.930 . S
H77 C110 0.929 . S
H78 C111 0.931 . S
H79 C113 0.930 . S
H80 C114 0.932 . S
H81 C116 0.931 . S
H82 C117 0.929 . S
H83 C119 0.929 . S
H84 C120 0.931 . S
H85 C122 0.929 . S
N86 C106 1.433 . S
N86 C112 1.435 . S
N86 C118 1.423 . S
H87 C123 0.932 . S
C88 N63 1.433 . S
C88 C89 1.363 . S
C88 C93 1.370 . S
C89 H62 0.929 . S
C89 C88 1.363 . S
C89 C90 1.385 . S
C90 H64 0.930 . S
C90 C89 1.385 . S
C90 C91 1.357 . S
C91 C90 1.357 . S
C91 C92 1.406 . S
C92 H66 0.929 . S
C92 C91 1.406 . S
C92 C93 1.391 . S
C93 H65 0.931 . S
C93 C88 1.370 . S
C93 C92 1.391 . S
C94 N63 1.435 . S
C94 C95 1.358 . S
C94 C99 1.371 . S
C95 H67 0.930 . S
C95 C94 1.358 . S
C95 C96 1.405 . S
C96 H68 0.932 . S
C96 C95 1.405 . S
C96 C97 1.383 . S
C97 C96 1.383 . S
C97 C98 1.393 . S
C98 H70 0.931 . S
C98 C97 1.393 . S
C98 C99 1.382 . S
C99 H69 0.929 . S
C99 C94 1.371 . S
C99 C98 1.382 . S
C100 N63 1.423 . S
C100 C101 1.362 . S
C100 C105 1.388 . S
C101 H71 0.929 . S
C101 C100 1.362 . S
C101 C102 1.376 . S
C102 H73 0.931 . S
C102 C101 1.376 . S
C102 C103 1.396 1_565 S
C103 C102 1.396 1_545 S
C103 C104 1.348 1_545 S
C103 C121 1.472 . S
C104 H74 0.929 1_565 S
C104 C103 1.348 1_565 S
C104 C105 1.443 . S
C105 H72 0.932 . S
C105 C100 1.388 . S
C105 C104 1.443 . S
C106 N86 1.433 . S
C106 C107 1.363 . S
C106 C111 1.370 . S
C107 H75 0.929 . S
C107 C106 1.363 . S
C107 C108 1.385 . S
C108 H76 0.930 . S
C108 C107 1.385 . S
C108 C109 1.357 . S
C109 C108 1.357 . S
C109 C110 1.406 . S
C110 H77 0.929 . S
C110 C109 1.406 . S
C110 C111 1.391 . S
C111 H78 0.931 . S
C111 C106 1.370 . S
C111 C110 1.391 . S
C112 N86 1.435 . S
C112 C113 1.358 . S
C112 C117 1.371 . S
C113 H79 0.930 . S
C113 C112 1.358 . S
C113 C114 1.405 . S
C114 H80 0.932 . S
C114 C113 1.405 . S
C114 C115 1.383 . S
C115 C114 1.383 . S
C115 C116 1.393 . S
C116 H81 0.931 . S
C116 C115 1.393 . S
C116 C117 1.382 . S
C117 H82 0.929 . S
C117 C112 1.371 . S
C117 C116 1.382 . S
C118 N86 1.423 . S
C118 C119 1.362 . S
C118 C123 1.388 . S
C119 H83 0.929 . S
C119 C118 1.362 . S
C119 C120 1.376 . S
C120 H84 0.931 . S
C120 C119 1.376 . S
C120 C121 1.396 . S
C121 C103 1.472 . S
C121 C120 1.396 . S
C121 C122 1.348 . S
C122 H85 0.929 . S
C122 C121 1.348 . S
C122 C123 1.443 . S
C123 H87 0.932 . S
C123 C118 1.388 . S
C123 C122 1.443 . S
H124 C151 0.929 . S
N125 C150 1.433 . S
N125 C156 1.435 . S
N125 C162 1.423 . S
H126 C152 0.930 . S
H127 C155 0.931 . S
H128 C154 0.929 . S
H129 C157 0.930 . S
H130 C158 0.932 . S
H131 C161 0.929 . S
H132 C160 0.931 . S
H133 C163 0.929 . S
H134 C167 0.932 . S
H135 C164 0.931 . S
H136 C166 0.929 . S
H137 C169 0.929 . S
H138 C170 0.930 . S
H139 C172 0.929 . S
H140 C173 0.931 . S
H141 C175 0.930 . S
H142 C176 0.932 . S
H143 C178 0.931 . S
H144 C179 0.929 . S
H145 C181 0.929 . S
H146 C182 0.931 . S
H147 C184 0.929 . S
N148 C168 1.433 . S
N148 C174 1.435 . S
N148 C180 1.423 . S
H149 C185 0.932 . S
C150 N125 1.433 . S
C150 C151 1.363 . S
C150 C155 1.370 . S
C151 H124 0.929 . S
C151 C150 1.363 . S
C151 C152 1.385 . S
C152 H126 0.930 . S
C152 C151 1.385 . S
C152 C153 1.357 . S
C153 C152 1.357 . S
C153 C154 1.406 . S
C154 H128 0.929 . S
C154 C153 1.406 . S
C154 C155 1.391 . S
C155 H127 0.931 . S
C155 C150 1.370 . S
C155 C154 1.391 . S
C156 N125 1.435 . S
C156 C157 1.358 . S
C156 C161 1.371 . S
C157 H129 0.930 . S
C157 C156 1.358 . S
C157 C158 1.405 . S
C158 H130 0.932 . S
C158 C157 1.405 . S
C158 C159 1.383 . S
C159 C158 1.383 . S
C159 C160 1.393 . S
C160 H132 0.931 . S
C160 C159 1.393 . S
C160 C161 1.382 . S
C161 H131 0.929 . S
C161 C156 1.371 . S
C161 C160 1.382 . S
C162 N125 1.423 . S
C162 C163 1.362 . S
C162 C167 1.388 . S
C163 H133 0.929 . S
C163 C162 1.362 . S
C163 C164 1.376 . S
C164 H135 0.931 . S
C164 C163 1.376 . S
C164 C165 1.396 . S
C165 C164 1.396 . S
C165 C166 1.348 . S
C165 C183 1.472 . S
C166 H136 0.929 . S
C166 C165 1.348 . S
C166 C167 1.443 . S
C167 H134 0.932 . S
C167 C162 1.388 . S
C167 C166 1.443 . S
C168 N148 1.433 . S
C168 C169 1.363 . S
C168 C173 1.370 . S
C169 H137 0.929 . S
C169 C168 1.363 . S
C169 C170 1.385 . S
C170 H138 0.930 . S
C170 C169 1.385 . S
C170 C171 1.357 . S
C171 C170 1.357 . S
C171 C172 1.406 . S
C172 H139 0.929 . S
C172 C171 1.406 . S
C172 C173 1.391 . S
C173 H140 0.931 . S
C173 C168 1.370 . S
C173 C172 1.391 . S
C174 N148 1.435 . S
C174 C175 1.358 . S
C174 C179 1.371 . S
C175 H141 0.930 . S
C175 C174 1.358 . S
C175 C176 1.405 . S
C176 H142 0.932 . S
C176 C175 1.405 . S
C176 C177 1.383 . S
C177 C176 1.383 . S
C177 C178 1.393 . S
C178 H143 0.931 . S
C178 C177 1.393 . S
C178 C179 1.382 . S
C179 H144 0.929 . S
C179 C174 1.371 . S
C179 C178 1.382 . S
C180 N148 1.423 . S
C180 C181 1.362 . S
C180 C185 1.388 . S
C181 H145 0.929 . S
C181 C180 1.362 . S
C181 C182 1.376 . S
C182 H146 0.931 . S
C182 C181 1.376 . S
C182 C183 1.396 . S
C183 C165 1.472 . S
C183 C182 1.396 . S
C183 C184 1.348 . S
C184 H147 0.929 . S
C184 C183 1.348 . S
C184 C185 1.443 . S
C185 H149 0.932 . S
C185 C180 1.388 . S
C185 C184 1.443 . S
H186 C213 0.929 . S
N187 C212 1.433 . S
N187 C218 1.435 . S
N187 C224 1.423 . S
H188 C214 0.930 . S
H189 C217 0.931 . S
H190 C216 0.929 . S
H191 C219 0.930 . S
H192 C220 0.932 . S
H193 C223 0.929 . S
H194 C222 0.931 . S
H195 C225 0.929 . S
H196 C229 0.932 . S
H197 C226 0.931 . S
H198 C228 0.929 . S
H199 C231 0.929 . S
H200 C232 0.930 . S
H201 C234 0.929 . S
H202 C235 0.931 . S
H203 C237 0.930 . S
H204 C238 0.932 . S
H205 C240 0.931 . S
H206 C241 0.929 . S
H207 C243 0.929 . S
H208 C244 0.931 . S
H209 C246 0.929 . S
N210 C230 1.433 . S
N210 C236 1.435 . S
N210 C242 1.423 . S
H211 C247 0.932 . S
C212 N187 1.433 . S
C212 C213 1.363 . S
C212 C217 1.370 . S
C213 H186 0.929 . S
C213 C212 1.363 . S
C213 C214 1.385 . S
C214 H188 0.930 . S
C214 C213 1.385 . S
C214 C215 1.357 . S
C215 C214 1.357 . S
C215 C216 1.406 . S
C216 H190 0.929 . S
C216 C215 1.406 . S
C216 C217 1.391 . S
C217 H189 0.931 . S
C217 C212 1.370 . S
C217 C216 1.391 . S
C218 N187 1.435 . S
C218 C219 1.358 . S
C218 C223 1.371 . S
C219 H191 0.930 . S
C219 C218 1.358 . S
C219 C220 1.405 . S
C220 H192 0.932 . S
C220 C219 1.405 . S
C220 C221 1.383 . S
C221 C220 1.383 . S
C221 C222 1.393 . S
C222 H194 0.931 . S
C222 C221 1.393 . S
C222 C223 1.382 . S
C223 H193 0.929 . S
C223 C218 1.371 . S
C223 C222 1.382 . S
C224 N187 1.423 . S
C224 C225 1.362 . S
C224 C229 1.388 . S
C225 H195 0.929 . S
C225 C224 1.362 . S
C225 C226 1.376 . S
C226 H197 0.931 . S
C226 C225 1.376 . S
C226 C227 1.396 . S
C227 C226 1.396 . S
C227 C228 1.348 . S
C227 C245 1.472 1_455 S
C228 H198 0.929 . S
C228 C227 1.348 . S
C228 C229 1.443 . S
C229 H196 0.932 . S
C229 C224 1.388 . S
C229 C228 1.443 . S
C230 N210 1.433 . S
C230 C231 1.363 . S
C230 C235 1.370 . S
C231 H199 0.929 . S
C231 C230 1.363 . S
C231 C232 1.385 . S
C232 H200 0.930 . S
C232 C231 1.385 . S
C232 C233 1.357 . S
C233 C232 1.357 . S
C233 C234 1.406 . S
C234 H201 0.929 . S
C234 C233 1.406 . S
C234 C235 1.391 . S
C235 H202 0.931 . S
C235 C230 1.370 . S
C235 C234 1.391 . S
C236 N210 1.435 . S
C236 C237 1.358 . S
C236 C241 1.371 . S
C237 H203 0.930 . S
C237 C236 1.358 . S
C237 C238 1.405 . S
C238 H204 0.932 . S
C238 C237 1.405 . S
C238 C239 1.383 . S
C239 C238 1.383 . S
C239 C240 1.393 . S
C240 H205 0.931 . S
C240 C239 1.393 . S
C240 C241 1.382 . S
C241 H206 0.929 . S
C241 C236 1.371 . S
C241 C240 1.382 . S
C242 N210 1.423 . S
C242 C243 1.362 . S
C242 C247 1.388 . S
C243 H207 0.929 . S
C243 C242 1.362 . S
C243 C244 1.376 . S
C244 H208 0.931 . S
C244 C243 1.376 . S
C244 C245 1.396 . S
C245 C227 1.472 1_655 S
C245 C244 1.396 . S
C245 C246 1.348 . S
C246 H209 0.929 . S
C246 C245 1.348 . S
C246 C247 1.443 . S
C247 H211 0.932 . S
C247 C242 1.388 . S
C247 C246 1.443 . S
H248 C275 0.929 . S
N249 C274 1.433 . S
N249 C280 1.435 . S
N249 C286 1.423 . S
H250 C276 0.930 . S
H251 C279 0.931 . S
H252 C278 0.929 . S
H253 C281 0.930 . S
H254 C282 0.932 . S
H255 C285 0.929 . S
H256 C284 0.931 . S
H257 C287 0.929 . S
H258 C291 0.932 . S
H259 C288 0.931 . S
H260 C290 0.929 . S
H261 C293 0.929 . S
H262 C294 0.930 . S
H263 C296 0.929 . S
H264 C297 0.931 . S
H265 C299 0.930 . S
H266 C300 0.932 . S
H267 C302 0.931 . S
H268 C303 0.929 . S
H269 C305 0.929 . S
H270 C306 0.931 . S
H271 C308 0.929 . S
N272 C292 1.433 . S
N272 C298 1.420 1_554 S
N272 C304 1.423 . S
H273 C309 0.932 . S
C274 N249 1.433 . S
C274 C275 1.363 . S
C274 C279 1.370 . S
C275 H248 0.929 . S
C275 C274 1.363 . S
C275 C276 1.385 . S
C276 H250 0.930 . S
C276 C275 1.385 . S
C276 C277 1.357 1_556 S
C277 C276 1.357 1_554 S
C277 C278 1.406 . S
C278 H252 0.929 . S
C278 C277 1.406 . S
C278 C279 1.391 1_554 S
C279 H251 0.931 . S
C279 C274 1.370 . S
C279 C278 1.391 1_556 S
C280 N249 1.435 . S
C280 C281 1.358 . S
C280 C285 1.371 . S
C281 H253 0.930 . S
C281 C280 1.358 . S
C281 C282 1.405 . S
C282 H254 0.932 . S
C282 C281 1.405 . S
C282 C283 1.383 . S
C283 C282 1.383 . S
C283 C284 1.393 . S
C284 H256 0.931 . S
C284 C283 1.393 . S
C284 C285 1.382 . S
C285 H255 0.929 . S
C285 C280 1.371 . S
C285 C284 1.382 . S
C286 N249 1.423 . S
C286 C287 1.362 . S
C286 C291 1.388 . S
C287 H257 0.929 . S
C287 C286 1.362 . S
C287 C288 1.376 . S
C288 H259 0.931 . S
C288 C287 1.376 . S
C288 C289 1.396 . S
C289 C288 1.396 . S
C289 C290 1.348 . S
C289 C307 1.472 1_545 S
C290 H260 0.929 . S
C290 C289 1.348 . S
C290 C291 1.443 . S
C291 H258 0.932 . S
C291 C286 1.388 . S
C291 C290 1.443 . S
C292 N272 1.433 . S
C292 C293 1.363 . S
C292 C297 1.370 . S
C293 H261 0.929 . S
C293 C292 1.363 . S
C293 C294 1.385 . S
C294 H262 0.930 . S
C294 C293 1.385 . S
C294 C295 1.357 . S
C295 C294 1.357 . S
C295 C296 1.406 . S
C296 H263 0.929 . S
C296 C295 1.406 . S
C296 C297 1.391 . S
C297 H264 0.931 . S
C297 C292 1.370 . S
C297 C296 1.391 . S
C298 N272 1.420 1_556 S
C298 C299 1.351 1_556 S
C298 C303 1.394 . S
C299 H265 0.930 . S
C299 C298 1.351 1_554 S
C299 C300 1.405 1_554 S
C300 H266 0.932 . S
C300 C299 1.405 1_556 S
C300 C301 1.383 . S
C301 C300 1.383 . S
C301 C302 1.393 . S
C302 H267 0.931 . S
C302 C301 1.393 . S
C302 C303 1.382 . S
C303 H268 0.929 . S
C303 C298 1.394 . S
C303 C302 1.382 . S
C304 N272 1.423 . S
C304 C305 1.362 . S
C304 C309 1.388 1_554 S
C305 H269 0.929 . S
C305 C304 1.362 . S
C305 C306 1.376 . S
C306 H270 0.931 . S
C306 C305 1.376 . S
C306 C307 1.396 1_554 S
C307 C289 1.472 1_565 S
C307 C306 1.396 1_556 S
C307 C308 1.348 . S
C308 H271 0.929 . S
C308 C307 1.348 . S
C308 C309 1.443 . S
C309 H273 0.932 . S
C309 C304 1.388 1_556 S
C309 C308 1.443 . S
H310 C337 0.929 . S
N311 C336 1.433 . S
N311 C342 1.435 . S
N311 C348 1.423 . S
H312 C338 0.930 . S
H313 C341 0.931 . S
H314 C340 0.929 . S
H315 C343 0.930 . S
H316 C344 0.932 . S
H317 C347 0.929 . S
H318 C346 0.931 . S
H319 C349 0.929 . S
H320 C353 0.932 . S
H321 C350 0.931 . S
H322 C352 0.929 . S
H323 C355 0.929 . S
H324 C356 0.930 . S
H325 C358 0.929 . S
H326 C359 0.931 . S
H327 C361 0.930 . S
H328 C362 0.932 . S
H329 C364 0.931 . S
H330 C365 0.929 . S
H331 C367 0.929 . S
H332 C368 0.931 . S
H333 C370 0.929 . S
N334 C354 1.433 . S
N334 C360 1.435 . S
N334 C366 1.423 . S
H335 C371 0.932 . S
C336 N311 1.433 . S
C336 C337 1.363 . S
C336 C341 1.370 . S
C337 H310 0.929 . S
C337 C336 1.363 . S
C337 C338 1.385 . S
C338 H312 0.930 . S
C338 C337 1.385 . S
C338 C339 1.357 . S
C339 C338 1.357 . S
C339 C340 1.406 . S
C340 H314 0.929 . S
C340 C339 1.406 . S
C340 C341 1.391 . S
C341 H313 0.931 . S
C341 C336 1.370 . S
C341 C340 1.391 . S
C342 N311 1.435 . S
C342 C343 1.358 . S
C342 C347 1.371 . S
C343 H315 0.930 . S
C343 C342 1.358 . S
C343 C344 1.405 . S
C344 H316 0.932 . S
C344 C343 1.405 . S
C344 C345 1.383 . S
C345 C344 1.383 . S
C345 C346 1.393 . S
C346 H318 0.931 . S
C346 C345 1.393 . S
C346 C347 1.382 . S
C347 H317 0.929 . S
C347 C342 1.371 . S
C347 C346 1.382 . S
C348 N311 1.423 . S
C348 C349 1.362 . S
C348 C353 1.388 . S
C349 H319 0.929 . S
C349 C348 1.362 . S
C349 C350 1.376 . S
C350 H321 0.931 . S
C350 C349 1.376 . S
C350 C351 1.396 . S
C351 C350 1.396 . S
C351 C352 1.348 . S
C351 C369 1.472 . S
C352 H322 0.929 . S
C352 C351 1.348 . S
C352 C353 1.443 . S
C353 H320 0.932 . S
C353 C348 1.388 . S
C353 C352 1.443 . S
C354 N334 1.433 . S
C354 C355 1.363 . S
C354 C359 1.370 . S
C355 H323 0.929 . S
C355 C354 1.363 . S
C355 C356 1.385 . S
C356 H324 0.930 . S
C356 C355 1.385 . S
C356 C357 1.357 . S
C357 C356 1.357 . S
C357 C358 1.406 . S
C358 H325 0.929 . S
C358 C357 1.406 . S
C358 C359 1.391 . S
C359 H326 0.931 . S
C359 C354 1.370 . S
C359 C358 1.391 . S
C360 N334 1.435 . S
C360 C361 1.358 . S
C360 C365 1.371 . S
C361 H327 0.930 . S
C361 C360 1.358 . S
C361 C362 1.405 . S
C362 H328 0.932 . S
C362 C361 1.405 . S
C362 C363 1.383 . S
C363 C362 1.383 . S
C363 C364 1.393 . S
C364 H329 0.931 . S
C364 C363 1.393 . S
C364 C365 1.382 . S
C365 H330 0.929 . S
C365 C360 1.371 . S
C365 C364 1.382 . S
C366 N334 1.423 . S
C366 C367 1.362 . S
C366 C371 1.388 . S
C367 H331 0.929 . S
C367 C366 1.362 . S
C367 C368 1.376 . S
C368 H332 0.931 . S
C368 C367 1.376 . S
C368 C369 1.396 . S
C369 C351 1.472 . S
C369 C368 1.396 . S
C369 C370 1.348 . S
C370 H333 0.929 . S
C370 C369 1.348 . S
C370 C371 1.443 . S
C371 H335 0.932 . S
C371 C366 1.388 . S
C371 C370 1.443 . S
In372 O373 2.294 . S
In372 O374 2.326 . S
In372 O378 2.266 . S
In372 O379 2.326 . S
In372 O380 2.266 . S
In372 O381 2.326 . S
In372 O383 2.294 . S
In372 O384 2.326 . S
O373 In372 2.294 . S
O373 C382 1.240 . S
O374 In372 2.326 . S
O374 C382 1.252 . S
C375 O378 1.252 . S
C375 O379 1.260 . S
C376 O383 1.240 . S
C376 O384 1.252 . S
C377 O380 1.252 . S
C377 O381 1.260 . S
O378 In372 2.266 . S
O378 C375 1.252 . S
O379 In372 2.326 . S
O379 C375 1.260 . S
O380 In372 2.266 . S
O380 C377 1.252 . S
O381 In372 2.326 . S
O381 C377 1.260 . S
C382 O373 1.240 . S
C382 O374 1.252 . S
O383 In372 2.294 . S
O383 C376 1.240 . S
O384 In372 2.326 . S
O384 C376 1.252 . S
In385 O386 2.294 . S
In385 O387 2.326 . S
In385 O391 2.266 . S
In385 O392 2.326 . S
In385 O393 2.266 . S
In385 O394 2.326 . S
In385 O396 2.294 . S
In385 O397 2.326 . S
O386 In385 2.294 . S
O386 C395 1.240 . S
O387 In385 2.326 . S
O387 C395 1.252 . S
C388 O391 1.252 . S
C388 O392 1.260 . S
C389 O396 1.240 . S
C389 O397 1.252 . S
C390 O393 1.252 . S
C390 O394 1.260 . S
O391 In385 2.266 . S
O391 C388 1.252 . S
O392 In385 2.326 . S
O392 C388 1.260 . S
O393 In385 2.266 . S
O393 C390 1.252 . S
O394 In385 2.326 . S
O394 C390 1.260 . S
C395 O386 1.240 . S
C395 O387 1.252 . S
O396 In385 2.294 . S
O396 C389 1.240 . S
O397 In385 2.326 . S
O397 C389 1.252 . S
In398 O399 2.294 . S
In398 O400 2.326 . S
In398 O404 2.266 . S
In398 O405 2.326 . S
In398 O406 2.266 . S
In398 O407 2.326 . S
In398 O409 2.294 . S
In398 O410 2.326 . S
O399 In398 2.294 . S
O399 C408 1.240 . S
O400 In398 2.326 . S
O400 C408 1.252 . S
C401 O404 1.252 . S
C401 O405 1.260 . S
C402 O409 1.240 . S
C402 O410 1.252 . S
C403 O406 1.252 . S
C403 O407 1.260 . S
O404 In398 2.266 . S
O404 C401 1.252 . S
O405 In398 2.326 . S
O405 C401 1.260 . S
O406 In398 2.266 . S
O406 C403 1.252 . S
O407 In398 2.326 . S
O407 C403 1.260 . S
C408 O399 1.240 . S
C408 O400 1.252 . S
O409 In398 2.294 . S
O409 C402 1.240 . S
O410 In398 2.326 . S
O410 C402 1.252 . S
In411 O412 2.294 . S
In411 O413 2.326 . S
In411 O417 2.266 . S
In411 O418 2.326 . S
In411 O419 2.266 . S
In411 O420 2.326 . S
In411 O422 2.294 . S
In411 O423 2.326 . S
O412 In411 2.294 . S
O412 C421 1.240 . S
O413 In411 2.326 . S
O413 C421 1.252 . S
C414 O417 1.252 . S
C414 O418 1.260 . S
C415 O422 1.240 . S
C415 O423 1.252 . S
C416 O419 1.252 . S
C416 O420 1.260 . S
O417 In411 2.266 . S
O417 C414 1.252 . S
O418 In411 2.326 . S
O418 C414 1.260 . S
O419 In411 2.266 . S
O419 C416 1.252 . S
O420 In411 2.326 . S
O420 C416 1.260 . S
C421 O412 1.240 . S
C421 O413 1.252 . S
O422 In411 2.294 . S
O422 C415 1.240 . S
O423 In411 2.326 . S
O423 C415 1.252 . S
In424 O425 2.294 . S
In424 O426 2.326 . S
In424 O430 2.266 . S
In424 O431 2.326 . S
In424 O432 2.266 . S
In424 O433 2.326 . S
In424 O435 2.294 . S
In424 O436 2.326 . S
O425 In424 2.294 . S
O425 C434 1.240 . S
O426 In424 2.326 . S
O426 C434 1.252 . S
C427 O430 1.252 . S
C427 O431 1.260 . S
C428 O435 1.240 . S
C428 O436 1.252 . S
C429 O432 1.252 . S
C429 O433 1.260 . S
O430 In424 2.266 . S
O430 C427 1.252 . S
O431 In424 2.326 . S
O431 C427 1.260 . S
O432 In424 2.266 . S
O432 C429 1.252 . S
O433 In424 2.326 . S
O433 C429 1.260 . S
C434 O425 1.240 . S
C434 O426 1.252 . S
O435 In424 2.294 . S
O435 C428 1.240 . S
O436 In424 2.326 . S
O436 C428 1.252 . S
In437 O438 2.294 . S
In437 O439 2.326 . S
In437 O443 2.266 . S
In437 O444 2.326 . S
In437 O445 2.266 . S
In437 O446 2.326 . S
In437 O448 2.294 . S
In437 O449 2.326 . S
O438 In437 2.294 . S
O438 C447 1.240 . S
O439 In437 2.326 . S
O439 C447 1.252 . S
C440 O443 1.252 . S
C440 O444 1.260 . S
C441 O448 1.240 . S
C441 O449 1.252 . S
C442 O445 1.252 . S
C442 O446 1.260 . S
O443 In437 2.266 . S
O443 C440 1.252 . S
O444 In437 2.326 . S
O444 C440 1.260 . S
O445 In437 2.266 . S
O445 C442 1.252 . S
O446 In437 2.326 . S
O446 C442 1.260 . S
C447 O438 1.240 . S
C447 O439 1.252 . S
O448 In437 2.294 . S
O448 C441 1.240 . S
O449 In437 2.326 . S
O449 C441 1.252 . S
C450 C451 1.369 . S
C450 C452 1.419 . S
C450 H454 0.930 . S
C451 C450 1.369 . S
C451 C460 1.429 . S
C452 C450 1.419 . S
C452 C453 1.363 . S
C452 H455 0.929 . S
C453 C452 1.363 . S
C453 C459 1.428 . S
H454 C450 0.930 . S
H455 C452 0.929 . S
S456 N457 1.613 . S
S456 N458 1.610 . S
N457 S456 1.613 . S
N457 C460 1.350 . S
N458 S456 1.610 . S
N458 C459 1.351 . S
C459 C453 1.428 . S
C459 N458 1.351 . S
C459 C460 1.434 . S
C460 C451 1.429 . S
C460 N457 1.350 . S
C460 C459 1.434 . S
C461 C462 1.369 . S
C461 C463 1.419 . S
C461 H465 0.930 . S
C462 C461 1.369 . S
C462 C471 1.429 . S
C463 C461 1.419 . S
C463 C464 1.363 . S
C463 H466 0.929 . S
C464 C463 1.363 . S
C464 C470 1.428 . S
H465 C461 0.930 . S
H466 C463 0.929 . S
S467 N468 1.613 . S
S467 N469 1.610 . S
N468 S467 1.613 . S
N468 C471 1.350 . S
N469 S467 1.610 . S
N469 C470 1.351 . S
C470 C464 1.428 . S
C470 N469 1.351 . S
C470 C471 1.434 . S
C471 C462 1.429 . S
C471 N468 1.350 . S
C471 C470 1.434 . S
C472 C473 1.369 . S
C472 C474 1.419 . S
C472 H476 0.930 . S
C473 C472 1.369 . S
C473 C482 1.429 . S
C474 C472 1.419 . S
C474 C475 1.363 . S
C474 H477 0.929 . S
C475 C474 1.363 . S
C475 C481 1.428 . S
H476 C472 0.930 . S
H477 C474 0.929 . S
S478 N479 1.613 . S
S478 N480 1.610 . S
N479 S478 1.613 . S
N479 C482 1.350 . S
N480 S478 1.610 . S
N480 C481 1.351 . S
C481 C475 1.428 . S
C481 N480 1.351 . S
C481 C482 1.434 . S
C482 C473 1.429 . S
C482 N479 1.350 . S
C482 C481 1.434 . S
C483 C484 1.369 . S
C483 C485 1.419 . S
C483 H487 0.930 . S
C484 C483 1.369 . S
C484 C493 1.429 . S
C485 C483 1.419 . S
C485 C486 1.363 . S
C485 H488 0.929 . S
C486 C485 1.363 . S
C486 C492 1.428 . S
H487 C483 0.930 . S
H488 C485 0.929 . S
S489 N490 1.613 . S
S489 N491 1.610 . S
N490 S489 1.613 . S
N490 C493 1.350 . S
N491 S489 1.610 . S
N491 C492 1.351 . S
C492 C486 1.428 . S
C492 N491 1.351 . S
C492 C493 1.434 . S
C493 C484 1.429 . S
C493 N490 1.350 . S
C493 C492 1.434 . S
C494 C495 1.369 . S
C494 C496 1.419 . S
C494 H498 0.930 . S
C495 C494 1.369 . S
C495 C504 1.429 . S
C496 C494 1.419 . S
C496 C497 1.363 . S
C496 H499 0.929 . S
C497 C496 1.363 . S
C497 C503 1.428 . S
H498 C494 0.930 . S
H499 C496 0.929 . S
S500 N501 1.613 . S
S500 N502 1.610 . S
N501 S500 1.613 . S
N501 C504 1.350 . S
N502 S500 1.610 . S
N502 C503 1.351 . S
C503 C497 1.428 . S
C503 N502 1.351 . S
C503 C504 1.434 . S
C504 C495 1.429 . S
C504 N501 1.350 . S
C504 C503 1.434 . S
C505 C506 1.369 . S
C505 C507 1.419 . S
C505 H509 0.930 . S
C506 C505 1.369 . S
C506 C515 1.429 . S
C507 C505 1.419 . S
C507 C508 1.363 . S
C507 H510 0.929 . S
C508 C507 1.363 . S
C508 C514 1.428 . S
H509 C505 0.930 . S
H510 C507 0.929 . S
S511 N512 1.613 . S
S511 N513 1.610 . S
N512 S511 1.613 . S
N512 C515 1.350 . S
N513 S511 1.610 . S
N513 C514 1.351 . S
C514 C508 1.428 . S
C514 N513 1.351 . S
C514 C515 1.434 . S
C515 C506 1.429 . S
C515 N512 1.350 . S
C515 C514 1.434 . S
C516 C517 1.369 . S
C516 C518 1.419 . S
C516 H520 0.930 . S
C517 C516 1.369 . S
C517 C526 1.429 . S
C518 C516 1.419 . S
C518 C519 1.363 . S
C518 H521 0.929 . S
C519 C518 1.363 . S
C519 C525 1.428 . S
H520 C516 0.930 . S
H521 C518 0.929 . S
S522 N523 1.613 . S
S522 N524 1.610 . S
N523 S522 1.613 . S
N523 C526 1.350 . S
N524 S522 1.610 . S
N524 C525 1.351 . S
C525 C519 1.428 . S
C525 N524 1.351 . S
C525 C526 1.434 . S
C526 C517 1.429 . S
C526 N523 1.350 . S
C526 C525 1.434 . S
C527 C528 1.369 . S
C527 C529 1.419 . S
C527 H531 0.930 . S
C528 C527 1.369 . S
C528 C537 1.429 . S
C529 C527 1.419 . S
C529 C530 1.363 . S
C529 H532 0.929 . S
C530 C529 1.363 . S
C530 C536 1.428 . S
H531 C527 0.930 . S
H532 C529 0.929 . S
S533 N534 1.613 . S
S533 N535 1.610 . S
N534 S533 1.613 . S
N534 C537 1.350 . S
N535 S533 1.610 . S
N535 C536 1.351 . S
C536 C530 1.428 . S
C536 N535 1.351 . S
C536 C537 1.434 . S
C537 C528 1.429 . S
C537 N534 1.350 . S
C537 C536 1.434 . S
C538 C539 1.369 . S
C538 C540 1.419 . S
C538 H542 0.930 . S
C539 C538 1.369 . S
C539 C548 1.429 . S
C540 C538 1.419 . S
C540 C541 1.363 . S
C540 H543 0.929 . S
C541 C540 1.363 . S
C541 C547 1.428 . S
H542 C538 0.930 . S
H543 C540 0.929 . S
S544 N545 1.613 . S
S544 N546 1.610 . S
N545 S544 1.613 . S
N545 C548 1.350 . S
N546 S544 1.610 . S
N546 C547 1.351 . S
C547 C541 1.428 . S
C547 N546 1.351 . S
C547 C548 1.434 . S
C548 C539 1.429 . S
C548 N545 1.350 . S
C548 C547 1.434 . S
C549 C550 1.369 . S
C549 C551 1.419 . S
C549 H553 0.930 . S
C550 C549 1.369 . S
C550 C559 1.429 . S
C551 C549 1.419 . S
C551 C552 1.363 . S
C551 H554 0.929 . S
C552 C551 1.363 . S
C552 C558 1.428 . S
H553 C549 0.930 . S
H554 C551 0.929 . S
S555 N556 1.613 . S
S555 N557 1.610 . S
N556 S555 1.613 . S
N556 C559 1.350 . S
N557 S555 1.610 . S
N557 C558 1.351 . S
C558 C552 1.428 . S
C558 N557 1.351 . S
C558 C559 1.434 . S
C559 C550 1.429 . S
C559 N556 1.350 . S
C559 C558 1.434 . S
C560 C561 1.369 . S
C560 C562 1.419 . S
C560 H564 0.930 . S
C561 C560 1.369 . S
C561 C570 1.429 . S
C562 C560 1.419 . S
C562 C563 1.363 . S
C562 H565 0.929 . S
C563 C562 1.363 . S
C563 C569 1.428 . S
H564 C560 0.930 . S
H565 C562 0.929 . S
S566 N567 1.613 . S
S566 N568 1.610 . S
N567 S566 1.613 . S
N567 C570 1.350 . S
N568 S566 1.610 . S
N568 C569 1.351 . S
C569 C563 1.428 . S
C569 N568 1.351 . S
C569 C570 1.434 . S
C570 C561 1.429 . S
C570 N567 1.350 . S
C570 C569 1.434 . S
C571 C572 1.369 . S
C571 C573 1.419 . S
C571 H575 0.930 . S
C572 C571 1.369 . S
C572 C581 1.429 . S
C573 C571 1.419 . S
C573 C574 1.363 . S
C573 H576 0.929 . S
C574 C573 1.363 . S
C574 C580 1.428 . S
H575 C571 0.930 . S
H576 C573 0.929 . S
S577 N578 1.613 . S
S577 N579 1.610 . S
N578 S577 1.613 . S
N578 C581 1.350 . S
N579 S577 1.610 . S
N579 C580 1.351 . S
C580 C574 1.428 . S
C580 N579 1.351 . S
C580 C581 1.434 . S
C581 C572 1.429 . S
C581 N578 1.350 . S
C581 C580 1.434 . S
C582 C583 1.369 . S
C582 C584 1.419 . S
C582 H586 0.930 . S
C583 C582 1.369 . S
C583 C592 1.429 . S
C584 C582 1.419 . S
C584 C585 1.363 . S
C584 H587 0.929 . S
C585 C584 1.363 . S
C585 C591 1.428 . S
H586 C582 0.930 . S
H587 C584 0.929 . S
S588 N589 1.613 . S
S588 N590 1.610 . S
N589 S588 1.613 . S
N589 C592 1.350 . S
N590 S588 1.610 . S
N590 C591 1.351 . S
C591 C585 1.428 . S
C591 N590 1.351 . S
C591 C592 1.434 . S
C592 C583 1.429 . S
C592 N589 1.350 . S
C592 C591 1.434 . S
C593 C594 1.369 . S
C593 C595 1.419 . S
C593 H597 0.930 . S
C594 C593 1.369 . S
C594 C603 1.429 . S
C595 C593 1.419 . S
C595 C596 1.363 . S
C595 H598 0.929 . S
C596 C595 1.363 . S
C596 C602 1.428 . S
H597 C593 0.930 . S
H598 C595 0.929 . S
S599 N600 1.613 . S
S599 N601 1.610 . S
N600 S599 1.613 . S
N600 C603 1.350 . S
N601 S599 1.610 . S
N601 C602 1.351 . S
C602 C596 1.428 . S
C602 N601 1.351 . S
C602 C603 1.434 . S
C603 C594 1.429 . S
C603 N600 1.350 . S
C603 C602 1.434 . S
C604 C605 1.369 . S
C604 C606 1.419 . S
C604 H608 0.930 . S
C605 C604 1.369 . S
C605 C614 1.429 . S
C606 C604 1.419 . S
C606 C607 1.363 . S
C606 H609 0.929 . S
C607 C606 1.363 . S
C607 C613 1.428 . S
H608 C604 0.930 . S
H609 C606 0.929 . S
S610 N611 1.613 . S
S610 N612 1.610 . S
N611 S610 1.613 . S
N611 C614 1.350 . S
N612 S610 1.610 . S
N612 C613 1.351 . S
C613 C607 1.428 . S
C613 N612 1.351 . S
C613 C614 1.434 . S
C614 C605 1.429 . S
C614 N611 1.350 . S
C614 C613 1.434 . S
C615 C616 1.369 . S
C615 C617 1.419 . S
C615 H619 0.930 . S
C616 C615 1.369 . S
C616 C625 1.429 . S
C617 C615 1.419 . S
C617 C618 1.405 . S
C617 H620 0.929 . S
C618 C617 1.405 . S
C618 C624 1.421 1_556 S
H619 C615 0.930 . S
H620 C617 0.929 . S
S621 N622 1.613 1_554 S
S621 N623 1.610 . S
N622 S621 1.613 1_556 S
N622 C625 1.350 . S
N623 S621 1.610 . S
N623 C624 1.351 . S
C624 C618 1.421 1_554 S
C624 N623 1.351 . S
C624 C625 1.434 1_554 S
C625 C616 1.429 . S
C625 N622 1.350 . S
C625 C624 1.434 1_556 S
C626 C627 1.369 . S
C626 C628 1.419 . S
C626 H630 0.930 . S
C627 C626 1.369 . S
C627 C636 1.429 . S
C628 C626 1.419 . S
C628 C629 1.363 . S
C628 H631 0.929 . S
C629 C628 1.363 . S
C629 C635 1.428 . S
H630 C626 0.930 . S
H631 C628 0.929 . S
S632 N633 1.613 . S
S632 N634 1.610 . S
N633 S632 1.613 . S
N633 C636 1.350 . S
N634 S632 1.610 . S
N634 C635 1.351 . S
C635 C629 1.428 . S
C635 N634 1.351 . S
C635 C636 1.434 . S
C636 C627 1.429 . S
C636 N633 1.350 . S
C636 C635 1.434 . S
C637 C638 1.369 . S
C637 C639 1.419 . S
C637 H641 0.930 . S
C638 C637 1.369 . S
C638 C647 1.429 . S
C639 C637 1.419 . S
C639 C640 1.363 . S
C639 H642 0.929 . S
C640 C639 1.363 . S
C640 C646 1.428 . S
H641 C637 0.930 . S
H642 C639 0.929 . S
S643 N644 1.613 . S
S643 N645 1.610 . S
N644 S643 1.613 . S
N644 C647 1.350 . S
N645 S643 1.610 . S
N645 C646 1.351 . S
C646 C640 1.428 . S
C646 N645 1.351 . S
C646 C647 1.434 . S
C647 C638 1.429 . S
C647 N644 1.350 . S
C647 C646 1.434 . S
C648 C649 1.369 . S
C648 C650 1.419 . S
C648 H652 0.930 . S
C649 C648 1.369 . S
C649 C658 1.429 . S
C650 C648 1.419 . S
C650 C651 1.363 . S
C650 H653 0.929 . S
C651 C650 1.363 . S
C651 C657 1.428 . S
H652 C648 0.930 . S
H653 C650 0.929 . S
S654 N655 1.613 . S
S654 N656 1.610 . S
N655 S654 1.613 . S
N655 C658 1.350 . S
N656 S654 1.610 . S
N656 C657 1.351 . S
C657 C651 1.428 . S
C657 N656 1.351 . S
C657 C658 1.434 . S
C658 C649 1.429 . S
C658 N655 1.350 . S
C658 C657 1.434 . S
C659 C660 1.369 . S
C659 C661 1.419 . S
C659 H663 0.930 . S
C660 C659 1.369 . S
C660 C669 1.429 . S
C661 C659 1.419 . S
C661 C662 1.363 . S
C661 H664 0.929 . S
C662 C661 1.363 . S
C662 C668 1.428 . S
H663 C659 0.930 . S
H664 C661 0.929 . S
S665 N666 1.613 . S
S665 N667 1.610 . S
N666 S665 1.613 . S
N666 C669 1.350 . S
N667 S665 1.610 . S
N667 C668 1.351 . S
C668 C662 1.428 . S
C668 N667 1.351 . S
C668 C669 1.434 . S
C669 C660 1.429 . S
C669 N666 1.350 . S
C669 C668 1.434 . S
C670 C671 1.369 . S
C670 C672 1.419 . S
C670 H674 0.930 . S
C671 C670 1.369 . S
C671 C680 1.429 . S
C672 C670 1.419 . S
C672 C673 1.363 . S
C672 H675 0.929 . S
C673 C672 1.363 . S
C673 C679 1.428 . S
H674 C670 0.930 . S
H675 C672 0.929 . S
S676 N677 1.613 . S
S676 N678 1.610 . S
N677 S676 1.613 . S
N677 C680 1.350 . S
N678 S676 1.610 . S
N678 C679 1.351 . S
C679 C673 1.428 . S
C679 N678 1.351 . S
C679 C680 1.434 . S
C680 C671 1.429 . S
C680 N677 1.350 . S
C680 C679 1.434 . S
C681 C682 1.369 . S
C681 C683 1.419 . S
C681 H685 0.930 . S
C682 C681 1.369 . S
C682 C691 1.429 . S
C683 C681 1.419 . S
C683 C684 1.363 . S
C683 H686 0.929 . S
C684 C683 1.363 . S
C684 C690 1.428 . S
H685 C681 0.930 . S
H686 C683 0.929 . S
S687 N688 1.613 . S
S687 N689 1.610 . S
N688 S687 1.613 . S
N688 C691 1.350 . S
N689 S687 1.610 . S
N689 C690 1.351 . S
C690 C684 1.428 . S
C690 N689 1.351 . S
C690 C691 1.434 . S
C691 C682 1.429 . S
C691 N688 1.350 . S
C691 C690 1.434 . S
C692 C693 1.369 . S
C692 C694 1.419 1_554 S
C692 H696 0.930 . S
C693 C692 1.369 . S
C693 C702 1.429 1_554 S
C694 C692 1.419 1_556 S
C694 C695 1.363 . S
C694 H697 0.929 . S
C695 C694 1.363 . S
C695 C701 1.428 . S
H696 C692 0.930 . S
H697 C694 0.929 . S
S698 N699 1.613 . S
S698 N700 1.610 . S
N699 S698 1.613 . S
N699 C702 1.350 . S
N700 S698 1.610 . S
N700 C701 1.351 . S
C701 C695 1.428 . S
C701 N700 1.351 . S
C701 C702 1.434 . S
C702 C693 1.429 1_556 S
C702 N699 1.350 . S
C702 C701 1.434 . S
C703 C704 1.369 . S
C703 C705 1.419 . S
C703 H707 0.930 . S
C704 C703 1.369 . S
C704 C713 1.429 . S
C705 C703 1.419 . S
C705 C706 1.363 . S
C705 H708 0.929 . S
C706 C705 1.363 . S
C706 C712 1.428 . S
H707 C703 0.930 . S
H708 C705 0.929 . S
S709 N710 1.613 . S
S709 N711 1.610 . S
N710 S709 1.613 . S
N710 C713 1.350 . S
N711 S709 1.610 . S
N711 C712 1.351 . S
C712 C706 1.428 . S
C712 N711 1.351 . S
C712 C713 1.434 . S
C713 C704 1.429 . S
C713 N710 1.350 . S
C713 C712 1.434 . S
C453 C442 1.625 . S
C451 C29 1.535 . S
C462 C115 1.548 . S
C464 C377 1.553 . S
C473 C153 1.549 . S
C475 C395 1.642 . S
C484 C239 1.540 . S
C486 C408 1.541 . S
C497 C416 1.587 . S
C495 C301 1.574 . S
C506 C339 1.739 . S
C508 C428 1.861 . S
C517 C91 1.547 . S
C519 C390 1.651 . S
C528 C177 1.544 . S
C530 C403 1.550 . S
C539 C215 1.526 . S
C541 C421 1.623 . S
C552 C427 1.866 . S
C550 C277 1.746 . S
C563 C447 1.576 . S
C561 C363 1.563 . S
C574 C382 1.546 . S
C572 C53 1.544 . S
C583 C35 1.693 . S
C585 C388 1.735 . S
C594 C109 1.494 . S
C596 C401 1.651 . S
C607 C415 1.607 . S
C605 C159 1.585 . S
C616 C233 1.694 . S
C618 C429 1.813 1_556 S
C629 C441 1.701 . S
C627 C295 1.513 . S
C640 C376 1.614 . S
C638 C345 1.583 . S
C651 C440 1.617 . S
C649 C97 1.591 . S
C660 C171 1.496 . S
C662 C375 1.646 . S
C673 C389 1.731 . S
C671 C221 1.690 . S
C682 C283 1.583 . S
C684 C402 1.614 . S
C693 C357 1.522 . S
C695 C414 1.708 . S
C704 C47 1.689 . S
C706 C434 1.842 . S
