# Generated by pormake.
# Topology anh, (6,3)-cn, num edge types: 1
# Building blocks:
#     Node 0, Type 0, BuildingBlock: BETDIP_clean_sbu_0, # of connection points: 6
#     Node 1, Type 0, BuildingBlock: BETDIP_clean_sbu_0, # of connection points: 6
#     Node 2, Type 0, BuildingBlock: BETDIP_clean_sbu_0, # of connection points: 6
#     Node 3, Type 1, BuildingBlock: BELTOD_clean_linker_0, # of connection points: 3
#     Node 4, Type 1, BuildingBlock: BELTOD_clean_linker_0, # of connection points: 3
#     Node 5, Type 1, BuildingBlock: BELTOD_clean_linker_0, # of connection points: 3
#     Node 6, Type 1, BuildingBlock: BELTOD_clean_linker_0, # of connection points: 3
#     Node 7, Type 1, BuildingBlock: BELTOD_clean_linker_0, # of connection points: 3
#     Node 8, Type 1, BuildingBlock: BELTOD_clean_linker_0, # of connection points: 3
#     Edge 9, Type (0, 1), BuildingBlock: EZIPEK_clean_linker_0, # of connection points: 2
#     Edge 10, Type (0, 1), BuildingBlock: EZIPEK_clean_linker_0, # of connection points: 2
#     Edge 11, Type (0, 1), BuildingBlock: EZIPEK_clean_linker_0, # of connection points: 2
#     Edge 12, Type (0, 1), BuildingBlock: EZIPEK_clean_linker_0, # of connection points: 2
#     Edge 13, Type (0, 1), BuildingBlock: EZIPEK_clean_linker_0, # of connection points: 2
#     Edge 14, Type (0, 1), BuildingBlock: EZIPEK_clean_linker_0, # of connection points: 2
#     Edge 15, Type (0, 1), BuildingBlock: EZIPEK_clean_linker_0, # of connection points: 2
#     Edge 16, Type (0, 1), BuildingBlock: EZIPEK_clean_linker_0, # of connection points: 2
#     Edge 17, Type (0, 1), BuildingBlock: EZIPEK_clean_linker_0, # of connection points: 2
#     Edge 18, Type (0, 1), BuildingBlock: EZIPEK_clean_linker_0, # of connection points: 2
#     Edge 19, Type (0, 1), BuildingBlock: EZIPEK_clean_linker_0, # of connection points: 2
#     Edge 20, Type (0, 1), BuildingBlock: EZIPEK_clean_linker_0, # of connection points: 2
#     Edge 21, Type (0, 1), BuildingBlock: EZIPEK_clean_linker_0, # of connection points: 2
#     Edge 22, Type (0, 1), BuildingBlock: EZIPEK_clean_linker_0, # of connection points: 2
#     Edge 23, Type (0, 1), BuildingBlock: EZIPEK_clean_linker_0, # of connection points: 2
#     Edge 24, Type (0, 1), BuildingBlock: EZIPEK_clean_linker_0, # of connection points: 2
#     Edge 25, Type (0, 1), BuildingBlock: EZIPEK_clean_linker_0, # of connection points: 2
#     Edge 26, Type (0, 1), BuildingBlock: EZIPEK_clean_linker_0, # of connection points: 2
# Relax obj value: 0.332
# Max RMSD: 0.190
# Mean RMSD: 0.159
data_MOF--net-anh--node1-BETDIP_clean_sbu_0--node2-BELTOD_clean_linker_0--edge1-EZIPEK_clean_linker_0
_symmetry_space_group_name_H-M    P1
_symmetry_Int_Tables_number       1
_symmetry_cell_setting            triclinic
loop_
_symmetry_equiv_pos_as_xyz
'x, y, z'
_cell_length_a     27.829927
_cell_length_b     27.840769
_cell_length_c     46.500416
_cell_angle_alpha  90.051338
_cell_angle_beta   89.915757
_cell_angle_gamma 119.7666
loop_
_atom_site_label
_atom_site_type_symbol
_atom_site_fract_x
_atom_site_fract_y
_atom_site_fract_z
_atom_type_partial_charge
Tb0 Tb 0.10473 0.62928 0.17582 0.0
Tb1 Tb 1.04995 0.51395 0.17002 0.0
C2 C 0.15353 0.72878 0.19012 0.0
C3 C 0.21021 0.7703 0.18198 0.0
C4 C 0.24926 0.79838 0.20362 0.0
C5 C 0.30559 0.82595 0.19707 0.0
C6 C 0.32329 0.82568 0.16885 0.0
C7 C 0.28449 0.80111 0.1468 0.0
C8 C 0.22817 0.77353 0.15332 0.0
C9 C 0.09687 0.59736 0.12135 0.0
C10 C 0.18366 0.57408 0.16418 0.0
C11 C 0.98881 0.41463 0.15643 0.0
C12 C 0.93526 0.38597 0.14182 0.0
C13 C 0.91633 0.4154 0.12517 0.0
C14 C 0.86041 0.39087 0.11754 0.0
C15 C 0.82337 0.33671 0.12649 0.0
C16 C 0.84403 0.3058 0.14039 0.0
C17 C 0.89944 0.33039 0.14823 0.0
C18 C 0.08493 0.54872 0.2244 0.0
C19 C 0.97085 0.57156 0.16802 0.0
O20 O 0.15041 0.6895 0.20684 0.0
O21 O 0.11751 0.70932 0.1692 0.0
O22 O 1.0607 0.5764 0.14062 0.0
O23 O 0.14003 0.63834 0.13279 0.0
O24 O 0.18023 0.61642 0.176 0.0
O25 O 0.13539 0.53016 0.15668 0.0
O26 O 1.03099 0.44953 0.14085 0.0
O27 O 0.98737 0.43479 0.18164 0.0
O28 O 1.06199 0.56622 0.20722 0.0
O29 O 0.08726 0.50909 0.21118 0.0
O30 O 0.97466 0.52565 0.1646 0.0
O31 O 1.01777 0.61797 0.17482 0.0
H32 H 0.23638 0.79588 0.22583 0.0
H33 H 0.33547 0.84523 0.21423 0.0
H34 H 0.29785 0.80105 0.12491 0.0
H35 H 0.19903 0.75201 0.13615 0.0
H36 H 0.94408 0.45813 0.11948 0.0
H37 H 0.84575 0.41496 0.10611 0.0
H38 H 0.81646 0.26353 0.147 0.0
H39 H 0.91344 0.30703 0.16089 0.0
Tb40 Tb 0.61777 1.03311 0.50979 0.0
Tb41 Tb 0.55569 0.08676 0.50069 0.0
C42 C 0.65408 0.97782 0.53458 0.0
C43 C 0.64181 0.92077 0.53707 0.0
C44 C 0.67352 0.90938 0.55617 0.0
C45 C 0.66822 0.85713 0.55664 0.0
C46 C 0.63109 0.81571 0.53803 0.0
C47 C 0.59696 0.826 0.51991 0.0
C48 C 0.60253 0.87877 0.51933 0.0
C49 C 0.61115 1.05114 0.45534 0.0
C50 C 0.48172 0.95291 0.49751 0.0
C51 C 0.5248 0.1512 0.48182 0.0
C52 C 0.55558 0.21203 0.48244 0.0
C53 C 0.56621 0.24214 0.4567 0.0
C54 C 0.60514 0.29871 0.45612 0.0
C55 C 0.63375 0.32526 0.48127 0.0
C56 C 0.62119 0.29585 0.50717 0.0
C57 C 0.58264 0.2397 0.50778 0.0
C58 C 0.5673 0.0704 0.55625 0.0
C59 C 0.69357 0.16525 0.50111 0.0
O60 O 0.6186 0.98974 0.54642 0.0
O61 O 0.67082 1.00037 0.50925 0.0
O62 O 0.57235 1.0357 0.47345 0.0
O63 O 0.65306 1.05055 0.46694 0.0
O64 O 0.53036 0.95659 0.50505 0.0
O65 O 0.48264 1.00096 0.49315 0.0
O66 O 0.54739 0.12938 0.46564 0.0
O67 O 0.50873 0.12611 0.50669 0.0
O68 O 0.60415 0.08685 0.53685 0.0
O69 O 0.52223 0.06413 0.54463 0.0
O70 O 0.64387 0.16124 0.49698 0.0
O71 O 0.69314 0.11885 0.509 0.0
H72 H 0.70389 0.9415 0.56995 0.0
H73 H 0.69467 0.84953 0.57078 0.0
H74 H 0.56807 0.79417 0.50551 0.0
H75 H 0.57781 0.88734 0.50445 0.0
H76 H 0.5464 0.22136 0.43686 0.0
H77 H 0.61429 0.32123 0.43602 0.0
H78 H 0.6427 0.31612 0.52679 0.0
H79 H 0.57618 0.21756 0.52785 0.0
Tb80 Tb 0.53931 0.52218 0.83326 0.0
Tb81 Tb 0.6562 0.57804 0.83794 0.0
C82 C 0.43735 0.47078 0.84232 0.0
C83 C 0.40029 0.49392 0.84221 0.0
C84 C 0.35922 0.47798 0.86335 0.0
C85 C 0.33294 0.50907 0.86759 0.0
C86 C 0.34821 0.55647 0.8509 0.0
C87 C 0.38693 0.57061 0.82877 0.0
C88 C 0.41269 0.53937 0.82435 0.0
C89 C 0.59126 0.5466 0.78373 0.0
C90 C 0.59664 0.65564 0.82866 0.0
C91 C 0.75563 0.63384 0.82357 0.0
C92 C 0.78918 0.61763 0.80629 0.0
C93 C 0.76382 0.56819 0.79037 0.0
C94 C 0.79553 0.54643 0.77904 0.0
C95 C 0.85276 0.57361 0.78394 0.0
C96 C 0.87832 0.62643 0.7969 0.0
C97 C 0.84669 0.648 0.80824 0.0
C98 C 0.60882 0.55406 0.88971 0.0
C99 C 0.59791 0.44375 0.8323 0.0
O100 O 0.47404 0.4897 0.863 0.0
O101 O 0.45927 0.47053 0.81747 0.0
O102 O 0.60227 0.52827 0.80579 0.0
O103 O 0.54671 0.5494 0.78816 0.0
O104 O 0.54903 0.60746 0.82887 0.0
O105 O 0.64299 0.65271 0.83272 0.0
O106 O 0.71554 0.63528 0.80969 0.0
O107 O 0.73957 0.60866 0.84844 0.0
O108 O 0.59338 0.57091 0.86796 0.0
O109 O 0.65431 0.55476 0.8829 0.0
O110 O 0.64467 0.49244 0.82911 0.0
O111 O 0.55196 0.44693 0.83752 0.0
H112 H 0.34981 0.44358 0.87755 0.0
H113 H 0.30302 0.49803 0.88481 0.0
H114 H 0.39896 0.60719 0.81581 0.0
H115 H 0.4446 0.55277 0.80804 0.0
H116 H 0.71928 0.54478 0.7882 0.0
H117 H 0.77491 0.50702 0.76807 0.0
H118 H 0.92255 0.64918 0.80043 0.0
H119 H 0.86691 0.68657 0.82012 0.0
P120 P 0.68691 0.05788 0.2392 0.0
H121 H 0.58585 0.95715 0.25757 0.0
H122 H 0.50645 0.89448 0.22869 0.0
H123 H 0.60408 0.95625 0.15142 0.0
H124 H 0.6839 1.0211 0.18041 0.0
H125 H 0.77114 0.1702 0.22389 0.0
H126 H 0.7694 0.23853 0.19167 0.0
H127 H 0.59341 0.13384 0.17996 0.0
H128 H 0.595 0.06524 0.21253 0.0
H129 H 0.59347 0.06222 0.2655 0.0
H130 H 0.7354 1.05124 0.29376 0.0
O131 O 0.75082 0.06703 0.23737 0.0
H132 H 0.56411 0.05799 0.31565 0.0
H133 H 0.70646 1.04813 0.34391 0.0
C134 C 0.64018 0.99504 0.221 0.0
C135 C 0.59112 0.95643 0.23456 0.0
C136 C 0.54574 0.92035 0.21808 0.0
C137 C 0.54934 0.92228 0.188 0.0
C138 C 0.60071 0.95491 0.17464 0.0
C139 C 0.64612 0.99158 0.19119 0.0
C140 C 0.68364 0.11209 0.21988 0.0
C141 C 0.73208 0.16207 0.21468 0.0
C142 C 0.73103 0.20091 0.19622 0.0
C143 C 0.68157 0.19021 0.18264 0.0
C144 C 0.63212 0.14223 0.18974 0.0
C145 C 0.63319 0.10326 0.2083 0.0
C146 C 0.66702 0.05778 0.27598 0.0
C147 C 0.61861 0.05954 0.28244 0.0
C148 C 0.60159 0.05671 0.31094 0.0
C149 C 0.6333 0.05288 0.33325 0.0
C150 C 0.68167 1.05116 0.32682 0.0
C151 C 0.69827 0.05324 0.2983 0.0
P152 P 0.83586 0.63017 0.60426 0.0
H153 H 0.87927 0.64992 0.54641 0.0
H154 H 0.84427 0.5881 0.50474 0.0
H155 H 0.76073 0.44827 0.56166 0.0
H156 H 0.79659 0.50978 0.60331 0.0
H157 H 0.8408 0.73799 0.60069 0.0
H158 H 0.7769 0.76537 0.57962 0.0
H159 H 0.66963 0.5976 0.5515 0.0
H160 H 0.73286 0.57022 0.57234 0.0
H161 H 0.86228 0.66786 0.66388 0.0
H162 H 0.72869 0.53282 0.618 0.0
O163 O 0.89917 0.68369 0.60979 0.0
H164 H 0.80259 0.64536 0.70643 0.0
H165 H 0.66941 0.51141 0.66009 0.0
C166 C 0.83889 0.58451 0.57788 0.0
C167 C 0.85603 0.60565 0.55 0.0
C168 C 0.83574 0.57057 0.52618 0.0
C169 C 0.79873 0.51413 0.53029 0.0
C170 C 0.78856 0.49207 0.55822 0.0
C171 C 0.80895 0.52717 0.582 0.0
C172 C 0.79217 0.65244 0.58755 0.0
C173 C 0.80394 0.70733 0.58973 0.0
C174 C 0.76755 0.72278 0.57786 0.0
C175 C 0.71901 0.68328 0.56405 0.0
C176 C 0.70707 0.62842 0.56202 0.0
C177 C 0.74335 0.61309 0.57383 0.0
C178 C 0.80062 0.60142 0.63777 0.0
C179 C 0.82105 0.63221 0.66319 0.0
C180 C 0.78686 0.61989 0.68735 0.0
C181 C 0.73154 0.57716 0.68617 0.0
C182 C 0.712 0.54455 0.66135 0.0
C183 C 0.74627 0.55652 0.63738 0.0
P184 P 0.11833 0.71879 0.91316 0.0
H185 H 0.19953 0.76909 0.86734 0.0
H186 H 0.26734 0.74405 0.84947 0.0
H187 H 0.24529 0.64918 0.92653 0.0
H188 H 0.17903 0.67424 0.94449 0.0
H189 H 1.02531 0.71269 0.88131 0.0
H190 H 0.96681 0.65097 0.84314 0.0
H191 H 1.05366 0.55897 0.84759 0.0
H192 H 0.11082 0.61928 0.88676 0.0
H193 H 0.15461 0.76994 0.96891 0.0
H194 H 1.03408 0.61004 0.93563 0.0
O195 O 0.1239 0.7809 0.90916 0.0
H196 H 0.13915 0.73092 0.01746 0.0
H197 H 1.01784 0.57142 0.98435 0.0
C198 C 0.18411 0.72353 0.90717 0.0
C199 C 0.21155 0.74538 0.88103 0.0
C200 C 0.24979 0.73084 0.87074 0.0
C201 C 0.2599 0.69387 0.88651 0.0
C202 C 0.23735 0.67737 0.91405 0.0
C203 C 0.19961 0.6921 0.92435 0.0
C204 C 1.07334 0.6716 0.88626 0.0
C205 C 1.03182 0.67933 0.87414 0.0
C206 C 0.99875 0.64433 0.85227 0.0
C207 C 1.00698 0.60139 0.84217 0.0
C208 C 1.04742 0.59246 0.85486 0.0
C209 C 0.08004 0.62706 0.87707 0.0
C210 C 0.09512 0.69313 0.94879 0.0
C211 C 0.12371 0.72694 0.97217 0.0
C212 C 0.11539 0.70459 0.99973 0.0
C213 C 1.07815 0.64818 0.00422 0.0
C214 C 1.04725 0.61488 0.98109 0.0
C215 C 1.05616 0.63714 0.9534 0.0
P216 P 0.09849 0.54573 0.45321 0.0
H217 H 0.20762 0.58661 0.48585 0.0
H218 H 0.29129 0.67539 0.49457 0.0
H219 H 0.21309 0.76023 0.4574 0.0
H220 H 0.12932 0.6703 0.44743 0.0
H221 H 1.04792 0.47208 0.50707 0.0
H222 H 0.9592 0.38798 0.51831 0.0
H223 H 0.89328 0.40229 0.43747 0.0
H224 H 0.98131 0.48574 0.42628 0.0
H225 H 0.13812 0.50446 0.4047 0.0
H226 H 1.05269 0.5973 0.41303 0.0
O227 O 0.12935 0.50804 0.45808 0.0
H228 H 0.13304 0.50802 0.35234 0.0
H229 H 1.0474 0.60045 0.36004 0.0
C230 C 0.15804 0.61794 0.46615 0.0
C231 C 0.20674 0.6236 0.47969 0.0
C232 C 0.25638 0.67605 0.48476 0.0
C233 C 0.26222 0.7283 0.47703 0.0
C234 C 0.21304 0.72293 0.46399 0.0
C235 C 0.16337 0.67007 0.45849 0.0
C236 C 1.02435 0.49006 0.46588 0.0
C237 C 1.01433 0.459 0.49184 0.0
C238 C 0.96241 0.40913 0.49827 0.0
C239 C 0.91597 0.38555 0.47919 0.0
C240 C 0.92589 0.41696 0.45339 0.0
C241 C 0.97765 0.46666 0.44699 0.0
C242 C 0.09573 0.55058 0.41352 0.0
C243 C 0.11824 0.5258 0.39553 0.0
C244 C 0.11535 0.52772 0.36529 0.0
C245 C 0.08969 0.55431 0.35181 0.0
C246 C 1.06739 0.57951 0.36965 0.0
C247 C 1.07056 0.57784 0.40004 0.0
P248 P 0.6185 0.0606 0.78249 0.0
H249 H 0.69392 0.18449 0.7838 0.0
H250 H 0.68753 0.26665 0.79531 0.0
H251 H 0.51898 0.16351 0.8222 0.0
H252 H 0.52526 0.07982 0.81024 0.0
H253 H 0.67283 1.01883 0.82555 0.0
H254 H 0.6683 0.92972 0.83537 0.0
H255 H 0.52937 0.84814 0.77847 0.0
H256 H 0.53459 0.93774 0.76816 0.0
H257 H 0.55866 0.10134 0.74461 0.0
H258 H 0.64365 1.0086 0.7336 0.0
O259 O 0.68742 0.09081 0.78162 0.0
H260 H 0.54846 0.10312 0.69225 0.0
H261 H 0.63245 1.00972 0.68115 0.0
C262 C 0.61103 0.12257 0.79678 0.0
C263 C 0.65529 0.17798 0.7928 0.0
C264 C 0.65155 0.22659 0.79932 0.0
C265 C 0.60287 0.22462 0.81023 0.0
C266 C 0.55795 0.16916 0.81413 0.0
C267 C 0.56169 0.12001 0.80743 0.0
C268 C 0.60321 0.98823 0.79639 0.0
C269 C 0.64002 0.98213 0.81549 0.0
C270 C 0.63784 0.9299 0.821 0.0
C271 C 0.59846 0.87899 0.80798 0.0
C272 C 0.56065 0.88463 0.78941 0.0
C273 C 0.56323 0.93711 0.78366 0.0
C274 C 0.60173 0.0544 0.7437 0.0
C275 C 0.57458 0.08063 0.73122 0.0
C276 C 0.56884 0.08189 0.70105 0.0
C277 C 0.58988 0.05684 0.68237 0.0
C278 C 0.61584 1.0295 0.69483 0.0
C279 C 0.62187 1.02853 0.72496 0.0
P280 P 0.56765 0.54959 0.11731 0.0
H281 H 0.61419 0.5176 0.16967 0.0
H282 H 0.7029 0.52202 0.18121 0.0
H283 H 0.7757 0.61907 0.10534 0.0
H284 H 0.68749 0.61529 0.09404 0.0
H285 H 0.44979 0.47544 0.13968 0.0
H286 H 0.3679 0.48351 0.14967 0.0
H287 H 0.46098 0.65776 0.13262 0.0
H288 H 0.54434 0.64983 0.12241 0.0
H289 H 0.60271 0.49722 0.0733 0.0
H290 H 0.54578 0.61558 0.07244 0.0
O291 O 0.53677 0.4811 0.12148 0.0
H292 H 0.60858 0.50069 0.02064 0.0
H293 H 0.55125 0.61861 0.01951 0.0
C294 C 0.64105 0.56745 0.13104 0.0
C295 C 0.64919 0.54169 0.1557 0.0
C296 C 0.70113 0.54363 0.16226 0.0
C297 C 0.74938 0.57085 0.14451 0.0
C298 C 0.74148 0.59735 0.12012 0.0
C299 C 0.68971 0.59566 0.11367 0.0
C300 C 0.50728 0.56186 0.1303 0.0
C301 C 0.45453 0.51632 0.13832 0.0
C302 C 0.40584 0.52081 0.14408 0.0
C303 C 0.40481 0.57133 0.14227 0.0
C304 C 0.45762 0.61747 0.13462 0.0
C305 C 0.50675 0.61293 0.1288 0.0
C306 C 0.57354 0.55591 0.07752 0.0
C307 C 0.59143 0.52411 0.06194 0.0
C308 C 0.59477 0.52601 0.03163 0.0
C309 C 0.58031 0.5598 0.01555 0.0
C310 C 0.56272 0.59205 0.03105 0.0
C311 C 0.55957 0.59029 0.06154 0.0
C312 C 0.28544 0.59346 0.17965 0.0
C313 C 0.24202 0.57584 0.15845 0.0
C314 C 0.30429 0.55349 0.12725 0.0
C315 C 0.34911 0.57457 0.14763 0.0
N316 N 0.38193 0.62287 0.19243 0.0
N317 N 0.22122 0.55193 0.10862 0.0
C318 C 0.33928 0.59718 0.17342 0.0
C319 C 0.25476 0.55902 0.13146 0.0
N320 N 0.27433 0.60377 0.2068 0.0
N321 N 0.30866 0.52768 0.10325 0.0
H322 H 0.18837 0.55963 0.11012 0.0
H323 H 0.2298 0.54537 0.08764 0.0
H324 H 0.34425 0.52576 0.09835 0.0
H325 H 0.27575 0.50493 0.08932 0.0
H326 H 0.30031 0.61086 0.22429 0.0
H327 H 0.23626 0.59962 0.21242 0.0
H328 H 0.38142 0.64639 0.20972 0.0
H329 H 0.41976 0.62425 0.18955 0.0
C330 C 0.76588 0.27279 0.51101 0.0
C331 C 0.75084 0.22225 0.49565 0.0
C332 C 0.84234 0.2792 0.46864 0.0
C333 C 0.85905 0.3286 0.48538 0.0
N334 N 0.83585 0.36651 0.52605 0.0
N335 N 0.78136 0.17971 0.46052 0.0
C336 C 0.82036 0.32319 0.50756 0.0
C337 C 0.79131 0.22662 0.47478 0.0
N338 N 0.72738 0.27342 0.52896 0.0
N339 N 0.87545 0.28231 0.44619 0.0
H340 H 0.74419 0.14265 0.46228 0.0
H341 H 0.81076 0.17633 0.44819 0.0
H342 H 0.91412 0.31687 0.44242 0.0
H343 H 0.86365 0.25217 0.43033 0.0
H344 H 0.73121 0.3093 0.53809 0.0
H345 H 0.68929 0.23836 0.53302 0.0
H346 H 0.8142 0.36449 0.5447 0.0
H347 H 0.8728 0.40378 0.52378 0.0
C348 C 0.55657 0.72541 0.8357 0.0
C349 C 0.59789 0.71393 0.82369 0.0
C350 C 0.63743 0.80948 0.80008 0.0
C351 C 0.59787 0.82156 0.81326 0.0
N352 N 0.52301 0.79019 0.84687 0.0
N353 N 0.68181 0.75283 0.79534 0.0
C354 C 0.55822 0.77878 0.83167 0.0
C355 C 0.63941 0.75852 0.80633 0.0
N356 N 0.5148 0.68514 0.85157 0.0
N357 N 0.67225 0.84606 0.78001 0.0
H358 H 0.68256 0.71593 0.79567 0.0
H359 H 0.71786 0.7855 0.78686 0.0
H360 H 0.67279 0.88292 0.77521 0.0
H361 H 0.69727 0.83824 0.76639 0.0
H362 H 0.47806 0.68496 0.85585 0.0
H363 H 0.51579 0.65081 0.85963 0.0
H364 H 0.49756 0.76554 0.86344 0.0
H365 H 0.52219 0.827 0.84433 0.0
C366 C 0.88885 0.59097 0.18294 0.0
C367 C 0.9138 0.57147 0.16224 0.0
C368 C 0.82899 0.54698 0.1313 0.0
C369 C 0.80634 0.57077 0.15088 0.0
N370 N 0.82369 0.6237 0.19432 0.0
N371 N 0.90896 0.54148 0.11331 0.0
C372 C 0.83896 0.59473 0.17642 0.0
C373 C 0.88376 0.5522 0.13562 0.0
N374 N 0.9117 0.60425 0.20974 0.0
N375 N 0.79703 0.5168 0.10869 0.0
H376 H 0.94858 0.54658 0.11496 0.0
H377 H 0.89332 0.53336 0.09245 0.0
H378 H 0.75771 0.51132 0.10488 0.0
H379 H 0.80705 0.49274 0.09553 0.0
H380 H 0.89316 0.61242 0.22709 0.0
H381 H 0.94694 0.6022 0.21529 0.0
H382 H 0.84791 0.64773 0.21138 0.0
H383 H 0.78901 0.62783 0.1905 0.0
C384 C 0.40187 0.85118 0.51331 0.0
C385 C 0.42605 0.89442 0.49199 0.0
C386 C 0.34633 0.82684 0.45982 0.0
C387 C 0.31873 0.78648 0.48224 0.0
N388 N 0.31969 0.77061 0.53305 0.0
N389 N 0.41366 0.92103 0.44449 0.0
C390 C 0.34691 0.80174 0.50959 0.0
C391 C 0.39545 0.88136 0.46535 0.0
N392 N 0.43151 0.85655 0.5376 0.0
N393 N 0.328 0.81195 0.43228 0.0
H394 H 0.45086 0.95825 0.44596 0.0
H395 H 0.39032 0.91837 0.42645 0.0
H396 H 0.29511 0.77309 0.427 0.0
H397 H 0.34891 0.83549 0.41436 0.0
H398 H 0.42038 0.82467 0.55241 0.0
H399 H 0.46997 0.89102 0.54164 0.0
H400 H 0.33397 0.78187 0.55402 0.0
H401 H 0.2797 0.73684 0.53191 0.0
C402 C 0.55567 0.34051 0.81079 0.0
C403 C 0.59705 0.3858 0.82777 0.0
C404 C 0.63776 0.32232 0.83606 0.0
C405 C 0.59983 0.27983 0.81684 0.0
N406 N 0.52878 0.25751 0.78164 0.0
N407 N 0.68121 0.41685 0.85491 0.0
C408 C 0.56037 0.29159 0.80335 0.0
C409 C 0.63919 0.3756 0.83957 0.0
N410 N 0.51059 0.34315 0.80143 0.0
N411 N 0.671 0.31062 0.85275 0.0
H412 H 0.68082 0.45232 0.86163 0.0
H413 H 0.71769 0.41692 0.85997 0.0
H414 H 0.67025 0.27284 0.85176 0.0
H415 H 0.6951 0.33567 0.86955 0.0
H416 H 0.47563 0.30929 0.79284 0.0
H417 H 0.50575 0.37752 0.80406 0.0
H418 H 0.50449 0.26651 0.76813 0.0
H419 H 0.53127 0.223 0.77511 0.0
C420 C 0.61131 0.7277 0.56064 0.0
C421 C 0.63279 0.7637 0.53683 0.0
C422 C 0.69213 0.72521 0.52454 0.0
C423 C 0.68068 0.7001 0.552 0.0
N424 N 0.62564 0.67085 0.59525 0.0
N425 N 0.68832 0.79355 0.49382 0.0
C426 C 0.63799 0.6981 0.56951 0.0
C427 C 0.67037 0.76019 0.51752 0.0
N428 N 0.5668 0.72392 0.57507 0.0
N429 N 0.72468 0.71639 0.50569 0.0
H430 H 0.67145 0.81805 0.48763 0.0
H431 H 0.72085 0.79837 0.48079 0.0
H432 H 0.74141 0.69116 0.51066 0.0
H433 H 0.73124 0.72996 0.48445 0.0
H434 H 0.54646 0.69602 0.59167 0.0
H435 H 0.54739 0.74594 0.5685 0.0
H436 H 0.59919 0.67271 0.61048 0.0
H437 H 0.64362 0.64757 0.60188 0.0
C438 C 0.93899 0.57512 0.77127 0.0
C439 C 0.88477 0.54398 0.78217 0.0
C440 C 0.91868 0.52162 0.8252 0.0
C441 C 0.97175 0.56626 0.81848 0.0
N442 N 1.03763 0.62232 0.78239 0.0
N443 N 0.82485 0.46114 0.80827 0.0
C444 C 0.98396 0.58747 0.79007 0.0
C445 C 0.87543 0.50722 0.80512 0.0
N446 N 0.94598 0.59801 0.74464 0.0
N447 N 0.90915 0.49658 0.85143 0.0
H448 H 0.79388 0.45015 0.79291 0.0
H449 H 0.81588 0.43145 0.82412 0.0
H450 H 0.94112 0.50599 0.866 0.0
H451 H 0.86989 0.46792 0.85888 0.0
H452 H 0.98424 0.62329 0.73508 0.0
H453 H 0.91167 0.58959 0.73196 0.0
H454 H 1.04988 0.64077 0.76227 0.0
H455 H 1.07029 0.63104 0.79638 0.0
C456 C 0.41666 0.9062 0.15947 0.0
C457 C 0.38282 0.84848 0.16321 0.0
C458 C 0.46499 0.83903 0.16999 0.0
C459 C 0.49714 0.89736 0.17157 0.0
N460 N 0.50595 0.9874 0.16345 0.0
N461 N 0.37298 0.75799 0.16916 0.0
C462 C 0.47395 0.93106 0.16431 0.0
C463 C 0.40661 0.81403 0.1669 0.0
N464 N 0.39484 0.93904 0.15269 0.0
N465 N 0.49077 0.80827 0.17195 0.0
H466 H 0.33025 0.73855 0.16614 0.0
H467 H 0.38673 0.73068 0.17471 0.0
H468 H 0.53368 0.82667 0.17403 0.0
H469 H 0.47091 0.76554 0.16937 0.0
H470 H 0.35294 0.92411 0.14862 0.0
H471 H 0.35294 0.92411 0.14862 0.0
H472 H 0.48961 1.0132 0.15896 0.0
H473 H 0.54853 1.00832 0.16678 0.0
C474 C 0.73376 0.39622 0.47787 0.0
C475 C 0.67811 0.38378 0.48148 0.0
C476 C 0.70904 0.47334 0.50423 0.0
C477 C 0.76248 0.47936 0.5067 0.0
N478 N 0.83108 0.4589 0.48902 0.0
N479 N 0.61185 0.41216 0.49329 0.0
C480 C 0.77675 0.44496 0.49089 0.0
C481 C 0.66565 0.42372 0.49249 0.0
N482 N 0.74444 0.35983 0.46335 0.0
N483 N 0.70031 0.51502 0.51338 0.0
H484 H 0.57994 0.37696 0.48356 0.0
H485 H 0.59844 0.43627 0.50391 0.0
H486 H 0.73238 0.5524 0.52107 0.0
H487 H 0.66318 0.51505 0.51098 0.0
H488 H 0.7837 0.36522 0.45994 0.0
H489 H 0.71317 0.3241 0.45372 0.0
H490 H 0.84546 0.43689 0.4773 0.0
H491 H 0.86258 0.49485 0.4984 0.0
C492 C 0.35584 0.63622 0.87908 0.0
C493 C 0.32747 0.59439 0.85816 0.0
C494 C 0.25695 0.62156 0.85341 0.0
C495 C 0.28697 0.66531 0.87326 0.0
N496 N 0.37039 0.72226 0.89988 0.0
N497 N 0.25777 0.55339 0.8213 0.0
C498 C 0.33833 0.67523 0.88441 0.0
C499 C 0.28029 0.58924 0.84388 0.0
N500 N 0.39817 0.63744 0.89456 0.0
N501 N 0.20476 0.60859 0.84505 0.0
H502 H 0.27252 0.52739 0.81446 0.0
H503 H 0.22723 0.55244 0.808 0.0
H504 H 0.18576 0.63107 0.85131 0.0
H505 H 0.17846 0.57295 0.83356 0.0
H506 H 0.41619 0.66313 0.91226 0.0
H507 H 0.41304 0.61016 0.89095 0.0
H508 H 0.41072 0.73454 0.90627 0.0
H509 H 0.35845 0.75174 0.90391 0.0
C510 C 0.73191 0.26056 0.11354 0.0
C511 C 0.76253 0.31338 0.12602 0.0
C512 C 0.70164 0.28361 0.16764 0.0
C513 C 0.68477 0.22849 0.15962 0.0
N514 N 0.66702 0.16287 0.12169 0.0
N515 N 0.75864 0.38146 0.15592 0.0
C516 C 0.69275 0.21643 0.13093 0.0
C517 C 0.74 0.32716 0.14974 0.0
N518 N 0.7455 0.2528 0.08644 0.0
N519 N 0.68469 0.29334 0.19344 0.0
H520 H 0.78656 0.41294 0.14245 0.0
H521 H 0.74374 0.39504 0.17276 0.0
H522 H 0.65595 0.26078 0.20618 0.0
H523 H 0.6986 0.33251 0.20209 0.0
H524 H 0.72585 0.21541 0.07539 0.0
H525 H 0.77593 0.28605 0.0747 0.0
H526 H 0.67331 0.15046 0.10161 0.0
H527 H 0.63775 0.13053 0.13425 0.0
C528 C 0.0923 0.57305 0.06926 0.0
C529 C 0.08166 0.60147 0.09133 0.0
C530 C 1.04977 0.64347 0.05532 0.0
C531 C 1.07213 0.62503 0.03349 0.0
N532 N 0.11839 0.57457 0.01949 0.0
N533 N 1.05117 0.66579 0.10547 0.0
C534 C 0.09381 0.58976 0.04028 0.0
C535 C 1.05997 0.63679 0.08444 0.0
N536 N 0.09972 0.52948 0.07595 0.0
N537 N 1.01846 0.66702 0.04813 0.0
H538 H 1.05666 0.66124 0.12713 0.0
H539 H 1.04203 0.69713 0.10127 0.0
H540 H 1.00991 0.67193 0.02683 0.0
H541 H 0.99642 0.6763 0.06313 0.0
H542 H 0.10329 0.5043 0.0605 0.0
H543 H 0.09605 0.51501 0.09698 0.0
H544 H 0.14012 0.55392 0.02401 0.0
H545 H 0.12081 0.58625 0.99801 0.0
C546 C 0.6322 0.10237 0.40874 0.0
C547 C 0.60478 1.05122 0.42375 0.0
C548 C 0.58788 1.0005 0.37832 0.0
C549 C 0.61698 1.05178 0.36363 0.0
N550 N 0.65579 0.15072 0.36305 0.0
N551 N 0.54766 0.95185 0.42303 0.0
C552 C 0.63532 0.10248 0.3783 0.0
C553 C 0.57931 1.00029 0.40853 0.0
N554 N 0.6574 0.15091 0.42373 0.0
N555 N 0.57054 0.95225 0.36345 0.0
H556 H 0.54244 0.94999 0.44526 0.0
H557 H 0.52338 0.91383 0.41306 0.0
H558 H 0.57395 0.95101 0.34115 0.0
H559 H 0.55489 0.91362 0.37308 0.0
H560 H 0.68481 0.18912 0.41472 0.0
H561 H 0.65263 0.15257 0.44576 0.0
H562 H 0.66423 0.18835 0.37206 0.0
H563 H 0.66042 0.15261 0.34075 0.0
C564 C 0.62924 0.50864 0.74729 0.0
C565 C 0.61885 0.55164 0.75568 0.0
C566 C 0.67488 0.60763 0.7151 0.0
C567 C 0.6927 0.56849 0.71011 0.0
N568 N 0.69184 0.48447 0.72373 0.0
N569 N 0.63332 0.64364 0.74836 0.0
C570 C 0.67112 0.5196 0.72678 0.0
C571 C 0.64161 0.60146 0.73963 0.0
N572 N 0.59742 0.45665 0.75819 0.0
N573 N 0.6883 0.64966 0.69594 0.0
H574 H 0.6076 0.63999 0.76551 0.0
H575 H 0.6545 0.68334 0.73969 0.0
H576 H 0.71214 0.65527 0.67759 0.0
H577 H 0.67178 0.67598 0.6968 0.0
H578 H 0.60004 0.42243 0.75126 0.0
H579 H 0.56371 0.44671 0.77159 0.0
H580 H 0.68159 0.45125 0.73751 0.0
H581 H 0.72322 0.49149 0.70918 0.0
C582 C 0.53605 1.01888 0.60413 0.0
C583 C 0.57518 0.0664 0.58843 0.0
C584 C 0.62708 0.10475 0.63393 0.0
C585 C 0.58521 0.05971 0.64987 0.0
N586 N 0.49622 0.97683 0.65038 0.0
N587 N 0.65306 0.15924 0.58999 0.0
C588 C 0.53871 1.01766 0.63497 0.0
C589 C 0.61968 0.1104 0.60375 0.0
N590 N 0.49743 0.97357 0.58945 0.0
N591 N 0.67453 0.14211 0.6476 0.0
H592 H 0.64812 0.16598 0.56846 0.0
H593 H 0.68222 0.19493 0.60049 0.0
H594 H 0.68069 0.14045 0.66962 0.0
H595 H 0.70941 0.17206 0.63683 0.0
H596 H 0.47185 0.9354 0.59904 0.0
H597 H 0.49424 0.97249 0.56712 0.0
H598 H 0.45821 0.94872 0.64142 0.0
H599 H 0.49741 0.97348 0.67268 0.0
C600 C 0.62718 0.60796 0.93673 0.0
C601 C 0.59506 0.5581 0.921 0.0
C602 C 0.54672 0.51288 0.96641 0.0
C603 C 0.58346 0.56063 0.98267 0.0
N604 N 0.66334 0.65207 0.98304 0.0
N605 N 0.5277 0.46108 0.92162 0.0
C606 C 0.62461 0.60795 0.96766 0.0
C607 C 0.55557 0.51012 0.93609 0.0
N608 N 0.66007 0.65575 0.92202 0.0
N609 N 0.50218 0.47048 0.97984 0.0
H610 H 0.53185 0.45779 0.89952 0.0
H611 H 0.5034 0.42316 0.93173 0.0
H612 H 0.4941 0.47119 0.00171 0.0
H613 H 0.47057 0.43705 0.96895 0.0
H614 H 0.68015 0.69464 0.93163 0.0
H615 H 0.66336 0.65714 0.89964 0.0
H616 H 0.69816 0.68513 0.97383 0.0
H617 H 0.66321 0.65368 0.00544 0.0
C618 C 1.03708 0.51497 0.27323 0.0
C619 C 0.08437 0.55295 0.25705 0.0
C620 C 0.13178 0.59656 0.30294 0.0
C621 C 0.08656 0.5554 0.31909 0.0
N622 N 0.9979 0.47207 0.31949 0.0
N623 N 0.17871 0.62732 0.25679 0.0
C624 C 1.0396 0.51385 0.30413 0.0
C625 C 0.13213 0.59316 0.27207 0.0
N626 N 0.9891 0.48058 0.25903 0.0
N627 N 0.17414 0.63978 0.31718 0.0
H628 H 0.17971 0.62751 0.23442 0.0
H629 H 0.21714 0.65296 0.26609 0.0
H630 H 0.17574 0.64307 0.33955 0.0
H631 H 0.2055 0.67448 0.30697 0.0
H632 H 0.95136 0.4561 0.26927 0.0
H633 H 0.98587 0.47967 0.23667 0.0
H634 H 0.9656 0.43686 0.31015 0.0
H635 H 0.99746 0.47076 0.34191 0.0
loop_
_geom_bond_atom_site_label_1
_geom_bond_atom_site_label_2
_geom_bond_distance
_geom_bond_site_symmetry_2
_ccdc_geom_bond_type
Tb0 C2 2.809 . S
Tb0 O20 2.484 . S
Tb0 O21 2.440 . S
Tb0 O22 2.658 . S
Tb0 O23 2.409 . S
Tb0 O24 2.378 . S
Tb0 O28 2.325 . S
Tb0 O31 2.341 1_455 S
Tb1 C11 2.809 . S
Tb1 O22 2.325 1_655 S
Tb1 O25 2.341 1_655 S
Tb1 O26 2.484 . S
Tb1 O27 2.440 . S
Tb1 O28 2.658 1_655 S
Tb1 O29 2.409 . S
Tb1 O30 2.378 . S
C2 Tb0 2.809 . S
C2 C3 1.514 . S
C2 O20 1.248 . S
C2 O21 1.266 . S
C3 C2 1.514 . S
C3 C4 1.359 . S
C3 C8 1.348 . S
C4 C3 1.359 . S
C4 C5 1.380 . S
C4 H32 0.929 . S
C5 C4 1.380 . S
C5 C6 1.347 . S
C5 H33 0.931 . S
C6 C5 1.347 . S
C6 C7 1.369 . S
C7 C6 1.369 . S
C7 C8 1.408 . S
C7 H34 0.930 . S
C8 C3 1.348 . S
C8 C7 1.408 . S
C8 H35 0.930 . S
C9 O22 1.281 . S
C9 O23 1.254 . S
C10 O24 1.236 . S
C10 O25 1.266 . S
C11 Tb1 2.809 . S
C11 C12 1.514 . S
C11 O26 1.248 . S
C11 O27 1.266 . S
C12 C11 1.514 . S
C12 C13 1.359 . S
C12 C17 1.348 . S
C13 C12 1.359 . S
C13 C14 1.380 . S
C13 H36 0.929 . S
C14 C13 1.380 . S
C14 C15 1.347 . S
C14 H37 0.931 . S
C15 C14 1.347 . S
C15 C16 1.369 . S
C16 C15 1.369 . S
C16 C17 1.408 . S
C16 H38 0.930 . S
C17 C12 1.348 . S
C17 C16 1.408 . S
C17 H39 0.930 . S
C18 O28 1.281 . S
C18 O29 1.254 1_455 S
C19 O30 1.236 . S
C19 O31 1.266 . S
O20 Tb0 2.484 . S
O20 C2 1.248 . S
O21 Tb0 2.440 . S
O21 C2 1.266 . S
O22 Tb0 2.658 . S
O22 Tb1 2.325 1_455 S
O22 C9 1.281 . S
O23 Tb0 2.409 . S
O23 C9 1.254 . S
O24 Tb0 2.378 . S
O24 C10 1.236 . S
O25 Tb1 2.341 1_455 S
O25 C10 1.266 . S
O26 Tb1 2.484 . S
O26 C11 1.248 . S
O27 Tb1 2.440 . S
O27 C11 1.266 . S
O28 Tb0 2.325 . S
O28 Tb1 2.658 1_455 S
O28 C18 1.281 . S
O29 Tb1 2.409 . S
O29 C18 1.254 1_655 S
O30 Tb1 2.378 . S
O30 C19 1.236 . S
O31 Tb0 2.341 1_655 S
O31 C19 1.266 . S
H32 C4 0.929 . S
H33 C5 0.931 . S
H34 C7 0.930 . S
H35 C8 0.930 . S
H36 C13 0.929 . S
H37 C14 0.931 . S
H38 C16 0.930 . S
H39 C17 0.930 . S
Tb40 C42 2.809 . S
Tb40 O60 2.484 . S
Tb40 O61 2.440 . S
Tb40 O62 2.658 1_565 S
Tb40 O63 2.410 . S
Tb40 O64 2.378 . S
Tb40 O68 2.325 1_565 S
Tb40 O71 2.341 1_565 S
Tb41 C51 2.809 . S
Tb41 O62 2.325 . S
Tb41 O65 2.341 1_545 S
Tb41 O66 2.484 . S
Tb41 O67 2.440 . S
Tb41 O68 2.658 . S
Tb41 O69 2.409 . S
Tb41 O70 2.378 . S
C42 Tb40 2.809 . S
C42 C43 1.514 . S
C42 O60 1.248 . S
C42 O61 1.266 . S
C43 C42 1.514 . S
C43 C44 1.359 . S
C43 C48 1.348 . S
C44 C43 1.359 . S
C44 C45 1.380 . S
C44 H72 0.929 . S
C45 C44 1.380 . S
C45 C46 1.347 . S
C45 H73 0.931 . S
C46 C45 1.347 . S
C46 C47 1.369 . S
C47 C46 1.369 . S
C47 C48 1.408 . S
C47 H74 0.930 . S
C48 C43 1.348 . S
C48 C47 1.408 . S
C48 H75 0.930 . S
C49 O62 1.281 . S
C49 O63 1.247 1_545 S
C50 O64 1.236 . S
C50 O65 1.266 . S
C51 Tb41 2.809 . S
C51 C52 1.514 . S
C51 O66 1.248 . S
C51 O67 1.266 . S
C52 C51 1.514 . S
C52 C53 1.359 . S
C52 C57 1.348 . S
C53 C52 1.359 . S
C53 C54 1.380 . S
C53 H76 0.929 . S
C54 C53 1.380 . S
C54 C55 1.347 . S
C54 H77 0.931 . S
C55 C54 1.347 . S
C55 C56 1.369 . S
C56 C55 1.369 . S
C56 C57 1.408 . S
C56 H78 0.930 . S
C57 C52 1.348 . S
C57 C56 1.408 . S
C57 H79 0.930 . S
C58 O68 1.281 . S
C58 O69 1.254 . S
C59 O70 1.236 . S
C59 O71 1.266 . S
O60 Tb40 2.484 . S
O60 C42 1.248 . S
O61 Tb40 2.440 . S
O61 C42 1.266 . S
O62 Tb40 2.658 1_545 S
O62 Tb41 2.325 . S
O62 C49 1.281 . S
O63 Tb40 2.410 . S
O63 C49 1.247 1_565 S
O64 Tb40 2.378 . S
O64 C50 1.236 . S
O65 Tb41 2.341 1_565 S
O65 C50 1.266 . S
O66 Tb41 2.484 . S
O66 C51 1.248 . S
O67 Tb41 2.440 . S
O67 C51 1.266 . S
O68 Tb40 2.325 1_545 S
O68 Tb41 2.658 . S
O68 C58 1.281 . S
O69 Tb41 2.409 . S
O69 C58 1.254 . S
O70 Tb41 2.378 . S
O70 C59 1.236 . S
O71 Tb40 2.341 1_545 S
O71 C59 1.266 . S
H72 C44 0.929 . S
H73 C45 0.931 . S
H74 C47 0.930 . S
H75 C48 0.930 . S
H76 C53 0.929 . S
H77 C54 0.931 . S
H78 C56 0.930 . S
H79 C57 0.930 . S
Tb80 C82 2.809 . S
Tb80 O100 2.484 . S
Tb80 O101 2.440 . S
Tb80 O102 2.658 . S
Tb80 O103 2.409 . S
Tb80 O104 2.378 . S
Tb80 O108 2.325 . S
Tb80 O111 2.341 . S
Tb81 C91 2.809 . S
Tb81 O102 2.325 . S
Tb81 O105 2.341 . S
Tb81 O106 2.484 . S
Tb81 O107 2.440 . S
Tb81 O108 2.658 . S
Tb81 O109 2.409 . S
Tb81 O110 2.378 . S
C82 Tb80 2.809 . S
C82 C83 1.514 . S
C82 O100 1.248 . S
C82 O101 1.266 . S
C83 C82 1.514 . S
C83 C84 1.359 . S
C83 C88 1.348 . S
C84 C83 1.359 . S
C84 C85 1.380 . S
C84 H112 0.929 . S
C85 C84 1.380 . S
C85 C86 1.347 . S
C85 H113 0.931 . S
C86 C85 1.347 . S
C86 C87 1.369 . S
C87 C86 1.369 . S
C87 C88 1.408 . S
C87 H114 0.930 . S
C88 C83 1.348 . S
C88 C87 1.408 . S
C88 H115 0.930 . S
C89 O102 1.281 . S
C89 O103 1.254 . S
C90 O104 1.236 . S
C90 O105 1.266 . S
C91 Tb81 2.809 . S
C91 C92 1.514 . S
C91 O106 1.248 . S
C91 O107 1.266 . S
C92 C91 1.514 . S
C92 C93 1.359 . S
C92 C97 1.348 . S
C93 C92 1.359 . S
C93 C94 1.380 . S
C93 H116 0.929 . S
C94 C93 1.380 . S
C94 C95 1.347 . S
C94 H117 0.931 . S
C95 C94 1.347 . S
C95 C96 1.369 . S
C96 C95 1.369 . S
C96 C97 1.408 . S
C96 H118 0.930 . S
C97 C92 1.348 . S
C97 C96 1.408 . S
C97 H119 0.930 . S
C98 O108 1.281 . S
C98 O109 1.254 . S
C99 O110 1.236 . S
C99 O111 1.266 . S
O100 Tb80 2.484 . S
O100 C82 1.248 . S
O101 Tb80 2.440 . S
O101 C82 1.266 . S
O102 Tb80 2.658 . S
O102 Tb81 2.325 . S
O102 C89 1.281 . S
O103 Tb80 2.409 . S
O103 C89 1.254 . S
O104 Tb80 2.378 . S
O104 C90 1.236 . S
O105 Tb81 2.341 . S
O105 C90 1.266 . S
O106 Tb81 2.484 . S
O106 C91 1.248 . S
O107 Tb81 2.440 . S
O107 C91 1.266 . S
O108 Tb80 2.325 . S
O108 Tb81 2.658 . S
O108 C98 1.281 . S
O109 Tb81 2.409 . S
O109 C98 1.254 . S
O110 Tb81 2.378 . S
O110 C99 1.236 . S
O111 Tb80 2.341 . S
O111 C99 1.266 . S
H112 C84 0.929 . S
H113 C85 0.931 . S
H114 C87 0.930 . S
H115 C88 0.930 . S
H116 C93 0.929 . S
H117 C94 0.931 . S
H118 C96 0.930 . S
H119 C97 0.930 . S
P120 O131 1.490 1_545 S
P120 C134 1.812 1_545 S
P120 C140 1.803 . S
P120 C146 1.819 . S
H121 C135 0.941 . S
H122 C136 0.939 . S
H123 C138 0.940 . S
H124 C139 0.940 1_545 S
H125 C141 0.939 . S
H126 C142 0.942 . S
H127 C144 0.940 . S
H128 C145 0.939 . S
H129 C147 0.941 . S
H130 C151 0.939 . S
O131 P120 1.490 1_565 S
H132 C148 0.939 . S
H133 C150 0.940 . S
C134 P120 1.812 1_565 S
C134 C135 1.389 . S
C134 C139 1.391 . S
C135 H121 0.941 . S
C135 C134 1.389 . S
C135 C136 1.397 . S
C136 H122 0.939 . S
C136 C135 1.397 . S
C136 C137 1.378 . S
C137 C136 1.378 . S
C137 C138 1.378 . S
C138 H123 0.940 . S
C138 C137 1.378 . S
C138 C139 1.396 . S
C139 H124 0.940 1_565 S
C139 C134 1.391 . S
C139 C138 1.396 . S
C140 P120 1.803 . S
C140 C141 1.378 . S
C140 C145 1.400 . S
C141 H125 0.939 . S
C141 C140 1.378 . S
C141 C142 1.361 . S
C142 H126 0.942 . S
C142 C141 1.361 . S
C142 C143 1.369 . S
C143 C142 1.369 . S
C143 C144 1.404 . S
C144 H127 0.940 . S
C144 C143 1.404 . S
C144 C145 1.389 . S
C145 H128 0.939 . S
C145 C140 1.400 . S
C145 C144 1.389 . S
C146 P120 1.819 . S
C146 C147 1.391 1_545 S
C146 C151 1.391 . S
C147 H129 0.941 . S
C147 C146 1.391 1_565 S
C147 C148 1.396 . S
C148 H132 0.939 . S
C148 C147 1.396 . S
C148 C149 1.397 1_565 S
C149 C148 1.397 1_545 S
C149 C150 1.385 . S
C150 H133 0.940 . S
C150 C149 1.385 . S
C150 C151 1.388 . S
C151 H130 0.939 . S
C151 C146 1.391 . S
C151 C150 1.388 . S
P152 O163 1.490 . S
P152 C166 1.812 . S
P152 C172 1.803 . S
P152 C178 1.819 . S
H153 C167 0.941 . S
H154 C168 0.939 . S
H155 C170 0.940 . S
H156 C171 0.940 . S
H157 C173 0.939 . S
H158 C174 0.942 . S
H159 C176 0.940 . S
H160 C177 0.939 . S
H161 C179 0.941 . S
H162 C183 0.939 . S
O163 P152 1.490 . S
H164 C180 0.939 . S
H165 C182 0.940 . S
C166 P152 1.812 . S
C166 C167 1.389 . S
C166 C171 1.391 . S
C167 H153 0.941 . S
C167 C166 1.389 . S
C167 C168 1.397 . S
C168 H154 0.939 . S
C168 C167 1.397 . S
C168 C169 1.378 . S
C169 C168 1.378 . S
C169 C170 1.378 . S
C170 H155 0.940 . S
C170 C169 1.378 . S
C170 C171 1.396 . S
C171 H156 0.940 . S
C171 C166 1.391 . S
C171 C170 1.396 . S
C172 P152 1.803 . S
C172 C173 1.378 . S
C172 C177 1.400 . S
C173 H157 0.939 . S
C173 C172 1.378 . S
C173 C174 1.361 . S
C174 H158 0.942 . S
C174 C173 1.361 . S
C174 C175 1.369 . S
C175 C174 1.369 . S
C175 C176 1.404 . S
C176 H159 0.940 . S
C176 C175 1.404 . S
C176 C177 1.389 . S
C177 H160 0.939 . S
C177 C172 1.400 . S
C177 C176 1.389 . S
C178 P152 1.819 . S
C178 C179 1.391 . S
C178 C183 1.391 . S
C179 H161 0.941 . S
C179 C178 1.391 . S
C179 C180 1.396 . S
C180 H164 0.939 . S
C180 C179 1.396 . S
C180 C181 1.397 . S
C181 C180 1.397 . S
C181 C182 1.385 . S
C182 H165 0.940 . S
C182 C181 1.385 . S
C182 C183 1.388 . S
C183 H162 0.939 . S
C183 C178 1.391 . S
C183 C182 1.388 . S
P184 O195 1.490 . S
P184 C198 1.812 . S
P184 C204 1.803 1_455 S
P184 C210 1.819 . S
H185 C199 0.941 . S
H186 C200 0.939 . S
H187 C202 0.940 . S
H188 C203 0.940 . S
H189 C205 0.939 . S
H190 C206 0.942 . S
H191 C208 0.940 . S
H192 C209 0.939 . S
H193 C211 0.941 . S
H194 C215 0.939 . S
O195 P184 1.490 . S
H196 C212 0.939 1_554 S
H197 C214 0.940 . S
C198 P184 1.812 . S
C198 C199 1.389 . S
C198 C203 1.391 . S
C199 H185 0.941 . S
C199 C198 1.389 . S
C199 C200 1.397 . S
C200 H186 0.939 . S
C200 C199 1.397 . S
C200 C201 1.378 . S
C201 C200 1.378 . S
C201 C202 1.378 . S
C202 H187 0.940 . S
C202 C201 1.378 . S
C202 C203 1.396 . S
C203 H188 0.940 . S
C203 C198 1.391 . S
C203 C202 1.396 . S
C204 P184 1.803 1_655 S
C204 C205 1.378 . S
C204 C209 1.400 . S
C205 H189 0.939 . S
C205 C204 1.378 . S
C205 C206 1.361 . S
C206 H190 0.942 . S
C206 C205 1.361 . S
C206 C207 1.369 . S
C207 C206 1.369 . S
C207 C208 1.404 . S
C208 H191 0.940 . S
C208 C207 1.404 . S
C208 C209 1.389 . S
C209 H192 0.939 . S
C209 C204 1.400 . S
C209 C208 1.389 . S
C210 P184 1.819 . S
C210 C211 1.391 . S
C210 C215 1.391 1_455 S
C211 H193 0.941 . S
C211 C210 1.391 . S
C211 C212 1.396 . S
C212 H196 0.939 1_556 S
C212 C211 1.396 . S
C212 C213 1.397 1_556 S
C213 C212 1.397 1_554 S
C213 C214 1.385 1_454 S
C214 H197 0.940 . S
C214 C213 1.385 1_656 S
C214 C215 1.388 . S
C215 H194 0.939 . S
C215 C210 1.391 1_655 S
C215 C214 1.388 . S
P216 O227 1.490 . S
P216 C230 1.812 . S
P216 C236 1.803 . S
P216 C242 1.819 . S
H217 C231 0.941 . S
H218 C232 0.939 . S
H219 C234 0.940 . S
H220 C235 0.940 . S
H221 C237 0.939 1_455 S
H222 C238 0.942 . S
H223 C240 0.940 . S
H224 C241 0.939 1_455 S
H225 C243 0.941 . S
H226 C247 0.939 1_655 S
O227 P216 1.490 . S
H228 C244 0.939 . S
H229 C246 0.940 1_655 S
C230 P216 1.812 . S
C230 C231 1.389 . S
C230 C235 1.391 . S
C231 H217 0.941 . S
C231 C230 1.389 . S
C231 C232 1.397 . S
C232 H218 0.939 . S
C232 C231 1.397 . S
C232 C233 1.378 . S
C233 C232 1.378 . S
C233 C234 1.378 . S
C234 H219 0.940 . S
C234 C233 1.378 . S
C234 C235 1.396 . S
C235 H220 0.940 . S
C235 C230 1.391 . S
C235 C234 1.396 . S
C236 P216 1.803 . S
C236 C237 1.378 1_455 S
C236 C241 1.400 1_455 S
C237 H221 0.939 1_655 S
C237 C236 1.378 1_655 S
C237 C238 1.361 . S
C238 H222 0.942 . S
C238 C237 1.361 . S
C238 C239 1.369 . S
C239 C238 1.369 . S
C239 C240 1.404 . S
C240 H223 0.940 . S
C240 C239 1.404 . S
C240 C241 1.389 . S
C241 H224 0.939 1_655 S
C241 C236 1.400 1_655 S
C241 C240 1.389 . S
C242 P216 1.819 . S
C242 C243 1.391 . S
C242 C247 1.391 . S
C243 H225 0.941 . S
C243 C242 1.391 . S
C243 C244 1.396 . S
C244 H228 0.939 . S
C244 C243 1.396 . S
C244 C245 1.397 . S
C245 C244 1.397 . S
C245 C246 1.385 . S
C246 H229 0.940 1_455 S
C246 C245 1.385 . S
C246 C247 1.388 . S
C247 H226 0.939 1_455 S
C247 C242 1.391 . S
C247 C246 1.388 . S
P248 O259 1.490 . S
P248 C262 1.812 . S
P248 C268 1.803 1_545 S
P248 C274 1.819 . S
H249 C263 0.941 . S
H250 C264 0.939 . S
H251 C266 0.940 . S
H252 C267 0.940 . S
H253 C269 0.939 . S
H254 C270 0.942 . S
H255 C272 0.940 . S
H256 C273 0.939 . S
H257 C275 0.941 . S
H258 C279 0.939 . S
O259 P248 1.490 . S
H260 C276 0.939 . S
H261 C278 0.940 . S
C262 P248 1.812 . S
C262 C263 1.389 . S
C262 C267 1.391 . S
C263 H249 0.941 . S
C263 C262 1.389 . S
C263 C264 1.397 . S
C264 H250 0.939 . S
C264 C263 1.397 . S
C264 C265 1.378 . S
C265 C264 1.378 . S
C265 C266 1.378 . S
C266 H251 0.940 . S
C266 C265 1.378 . S
C266 C267 1.396 . S
C267 H252 0.940 . S
C267 C262 1.391 . S
C267 C266 1.396 . S
C268 P248 1.803 1_565 S
C268 C269 1.378 . S
C268 C273 1.400 . S
C269 H253 0.939 . S
C269 C268 1.378 . S
C269 C270 1.361 . S
C270 H254 0.942 . S
C270 C269 1.361 . S
C270 C271 1.369 . S
C271 C270 1.369 . S
C271 C272 1.404 . S
C272 H255 0.940 . S
C272 C271 1.404 . S
C272 C273 1.389 . S
C273 H256 0.939 . S
C273 C268 1.400 . S
C273 C272 1.389 . S
C274 P248 1.819 . S
C274 C275 1.391 . S
C274 C279 1.391 1_545 S
C275 H257 0.941 . S
C275 C274 1.391 . S
C275 C276 1.396 . S
C276 H260 0.939 . S
C276 C275 1.396 . S
C276 C277 1.397 . S
C277 C276 1.397 . S
C277 C278 1.385 1_545 S
C278 H261 0.940 . S
C278 C277 1.385 1_565 S
C278 C279 1.388 . S
C279 H258 0.939 . S
C279 C274 1.391 1_565 S
C279 C278 1.388 . S
P280 O291 1.490 . S
P280 C294 1.812 . S
P280 C300 1.803 . S
P280 C306 1.819 . S
H281 C295 0.941 . S
H282 C296 0.939 . S
H283 C298 0.940 . S
H284 C299 0.940 . S
H285 C301 0.939 . S
H286 C302 0.942 . S
H287 C304 0.940 . S
H288 C305 0.939 . S
H289 C307 0.941 . S
H290 C311 0.939 . S
O291 P280 1.490 . S
H292 C308 0.939 . S
H293 C310 0.940 . S
C294 P280 1.812 . S
C294 C295 1.389 . S
C294 C299 1.391 . S
C295 H281 0.941 . S
C295 C294 1.389 . S
C295 C296 1.397 . S
C296 H282 0.939 . S
C296 C295 1.397 . S
C296 C297 1.378 . S
C297 C296 1.378 . S
C297 C298 1.378 . S
C298 H283 0.940 . S
C298 C297 1.378 . S
C298 C299 1.396 . S
C299 H284 0.940 . S
C299 C294 1.391 . S
C299 C298 1.396 . S
C300 P280 1.803 . S
C300 C301 1.378 . S
C300 C305 1.400 . S
C301 H285 0.939 . S
C301 C300 1.378 . S
C301 C302 1.361 . S
C302 H286 0.942 . S
C302 C301 1.361 . S
C302 C303 1.369 . S
C303 C302 1.369 . S
C303 C304 1.404 . S
C304 H287 0.940 . S
C304 C303 1.404 . S
C304 C305 1.389 . S
C305 H288 0.939 . S
C305 C300 1.400 . S
C305 C304 1.389 . S
C306 P280 1.819 . S
C306 C307 1.391 . S
C306 C311 1.391 . S
C307 H289 0.941 . S
C307 C306 1.391 . S
C307 C308 1.396 . S
C308 H292 0.939 . S
C308 C307 1.396 . S
C308 C309 1.397 . S
C309 C308 1.397 . S
C309 C310 1.385 . S
C310 H293 0.940 . S
C310 C309 1.385 . S
C310 C311 1.388 . S
C311 H290 0.939 . S
C311 C306 1.391 . S
C311 C310 1.388 . S
C312 C313 1.363 . S
C312 C318 1.379 . S
C312 N320 1.356 . S
C313 C312 1.363 . S
C313 C319 1.363 . S
C314 C315 1.363 . S
C314 C319 1.379 . S
C314 N321 1.356 . S
C315 C314 1.363 . S
C315 C318 1.363 . S
N316 C318 1.356 . S
N316 H328 0.984 . S
N316 H329 0.985 . S
N317 C319 1.356 . S
N317 H322 0.984 . S
N317 H323 0.985 . S
C318 C312 1.379 . S
C318 C315 1.363 . S
C318 N316 1.356 . S
C319 C313 1.363 . S
C319 C314 1.379 . S
C319 N317 1.356 . S
N320 C312 1.356 . S
N320 H326 0.984 . S
N320 H327 0.984 . S
N321 C314 1.356 . S
N321 H324 0.984 . S
N321 H325 0.985 . S
H322 N317 0.984 . S
H323 N317 0.985 . S
H324 N321 0.984 . S
H325 N321 0.985 . S
H326 N320 0.984 . S
H327 N320 0.984 . S
H328 N316 0.984 . S
H329 N316 0.985 . S
C330 C331 1.363 . S
C330 C336 1.379 . S
C330 N338 1.356 . S
C331 C330 1.363 . S
C331 C337 1.363 . S
C332 C333 1.363 . S
C332 C337 1.379 . S
C332 N339 1.356 . S
C333 C332 1.363 . S
C333 C336 1.363 . S
N334 C336 1.356 . S
N334 H346 0.984 . S
N334 H347 0.985 . S
N335 C337 1.356 . S
N335 H340 0.984 . S
N335 H341 0.985 . S
C336 C330 1.379 . S
C336 C333 1.363 . S
C336 N334 1.356 . S
C337 C331 1.363 . S
C337 C332 1.379 . S
C337 N335 1.356 . S
N338 C330 1.356 . S
N338 H344 0.984 . S
N338 H345 0.984 . S
N339 C332 1.356 . S
N339 H342 0.984 . S
N339 H343 0.985 . S
H340 N335 0.984 . S
H341 N335 0.985 . S
H342 N339 0.984 . S
H343 N339 0.985 . S
H344 N338 0.984 . S
H345 N338 0.984 . S
H346 N334 0.984 . S
H347 N334 0.985 . S
C348 C349 1.363 . S
C348 C354 1.379 . S
C348 N356 1.356 . S
C349 C348 1.363 . S
C349 C355 1.363 . S
C350 C351 1.363 . S
C350 C355 1.379 . S
C350 N357 1.356 . S
C351 C350 1.363 . S
C351 C354 1.363 . S
N352 C354 1.356 . S
N352 H364 0.984 . S
N352 H365 0.985 . S
N353 C355 1.356 . S
N353 H358 0.984 . S
N353 H359 0.985 . S
C354 C348 1.379 . S
C354 C351 1.363 . S
C354 N352 1.356 . S
C355 C349 1.363 . S
C355 C350 1.379 . S
C355 N353 1.356 . S
N356 C348 1.356 . S
N356 H362 0.984 . S
N356 H363 0.984 . S
N357 C350 1.356 . S
N357 H360 0.984 . S
N357 H361 0.985 . S
H358 N353 0.984 . S
H359 N353 0.985 . S
H360 N357 0.984 . S
H361 N357 0.985 . S
H362 N356 0.984 . S
H363 N356 0.984 . S
H364 N352 0.984 . S
H365 N352 0.985 . S
C366 C367 1.363 . S
C366 C372 1.379 . S
C366 N374 1.356 . S
C367 C366 1.363 . S
C367 C373 1.363 . S
C368 C369 1.363 . S
C368 C373 1.379 . S
C368 N375 1.356 . S
C369 C368 1.363 . S
C369 C372 1.363 . S
N370 C372 1.356 . S
N370 H382 0.984 . S
N370 H383 0.985 . S
N371 C373 1.356 . S
N371 H376 0.984 . S
N371 H377 0.985 . S
C372 C366 1.379 . S
C372 C369 1.363 . S
C372 N370 1.356 . S
C373 C367 1.363 . S
C373 C368 1.379 . S
C373 N371 1.356 . S
N374 C366 1.356 . S
N374 H380 0.984 . S
N374 H381 0.984 . S
N375 C368 1.356 . S
N375 H378 0.984 . S
N375 H379 0.985 . S
H376 N371 0.984 . S
H377 N371 0.985 . S
H378 N375 0.984 . S
H379 N375 0.985 . S
H380 N374 0.984 . S
H381 N374 0.984 . S
H382 N370 0.984 . S
H383 N370 0.985 . S
C384 C385 1.363 . S
C384 C390 1.379 . S
C384 N392 1.356 . S
C385 C384 1.363 . S
C385 C391 1.363 . S
C386 C387 1.363 . S
C386 C391 1.379 . S
C386 N393 1.356 . S
C387 C386 1.363 . S
C387 C390 1.363 . S
N388 C390 1.356 . S
N388 H400 0.984 . S
N388 H401 0.985 . S
N389 C391 1.356 . S
N389 H394 0.984 . S
N389 H395 0.985 . S
C390 C384 1.379 . S
C390 C387 1.363 . S
C390 N388 1.356 . S
C391 C385 1.363 . S
C391 C386 1.379 . S
C391 N389 1.356 . S
N392 C384 1.356 . S
N392 H398 0.984 . S
N392 H399 0.984 . S
N393 C386 1.356 . S
N393 H396 0.984 . S
N393 H397 0.985 . S
H394 N389 0.984 . S
H395 N389 0.985 . S
H396 N393 0.984 . S
H397 N393 0.985 . S
H398 N392 0.984 . S
H399 N392 0.984 . S
H400 N388 0.984 . S
H401 N388 0.985 . S
C402 C403 1.363 . S
C402 C408 1.379 . S
C402 N410 1.356 . S
C403 C402 1.363 . S
C403 C409 1.363 . S
C404 C405 1.363 . S
C404 C409 1.379 . S
C404 N411 1.356 . S
C405 C404 1.363 . S
C405 C408 1.363 . S
N406 C408 1.356 . S
N406 H418 0.984 . S
N406 H419 0.985 . S
N407 C409 1.356 . S
N407 H412 0.984 . S
N407 H413 0.985 . S
C408 C402 1.379 . S
C408 C405 1.363 . S
C408 N406 1.356 . S
C409 C403 1.363 . S
C409 C404 1.379 . S
C409 N407 1.356 . S
N410 C402 1.356 . S
N410 H416 0.984 . S
N410 H417 0.984 . S
N411 C404 1.356 . S
N411 H414 0.984 . S
N411 H415 0.985 . S
H412 N407 0.984 . S
H413 N407 0.985 . S
H414 N411 0.984 . S
H415 N411 0.985 . S
H416 N410 0.984 . S
H417 N410 0.984 . S
H418 N406 0.984 . S
H419 N406 0.985 . S
C420 C421 1.363 . S
C420 C426 1.379 . S
C420 N428 1.356 . S
C421 C420 1.363 . S
C421 C427 1.363 . S
C422 C423 1.363 . S
C422 C427 1.379 . S
C422 N429 1.356 . S
C423 C422 1.363 . S
C423 C426 1.363 . S
N424 C426 1.356 . S
N424 H436 0.984 . S
N424 H437 0.985 . S
N425 C427 1.356 . S
N425 H430 0.984 . S
N425 H431 0.985 . S
C426 C420 1.379 . S
C426 C423 1.363 . S
C426 N424 1.356 . S
C427 C421 1.363 . S
C427 C422 1.379 . S
C427 N425 1.356 . S
N428 C420 1.356 . S
N428 H434 0.984 . S
N428 H435 0.984 . S
N429 C422 1.356 . S
N429 H432 0.984 . S
N429 H433 0.985 . S
H430 N425 0.984 . S
H431 N425 0.985 . S
H432 N429 0.984 . S
H433 N429 0.985 . S
H434 N428 0.984 . S
H435 N428 0.984 . S
H436 N424 0.984 . S
H437 N424 0.985 . S
C438 C439 1.363 . S
C438 C444 1.379 . S
C438 N446 1.356 . S
C439 C438 1.363 . S
C439 C445 1.363 . S
C440 C441 1.363 . S
C440 C445 1.379 . S
C440 N447 1.356 . S
C441 C440 1.363 . S
C441 C444 1.363 . S
N442 C444 1.356 . S
N442 H454 0.984 . S
N442 H455 0.985 . S
N443 C445 1.356 . S
N443 H448 0.984 . S
N443 H449 0.985 . S
C444 C438 1.379 . S
C444 C441 1.363 . S
C444 N442 1.356 . S
C445 C439 1.363 . S
C445 C440 1.379 . S
C445 N443 1.356 . S
N446 C438 1.356 . S
N446 H452 0.984 . S
N446 H453 0.984 . S
N447 C440 1.356 . S
N447 H450 0.984 . S
N447 H451 0.985 . S
H448 N443 0.984 . S
H449 N443 0.985 . S
H450 N447 0.984 . S
H451 N447 0.985 . S
H452 N446 0.984 . S
H453 N446 0.984 . S
H454 N442 0.984 . S
H455 N442 0.985 . S
C456 C457 1.363 . S
C456 C462 1.379 . S
C456 N464 1.356 . S
C457 C456 1.363 . S
C457 C463 1.363 . S
C458 C459 1.363 . S
C458 C463 1.379 . S
C458 N465 1.356 . S
C459 C458 1.363 . S
C459 C462 1.363 . S
N460 C462 1.356 . S
N460 H472 0.984 . S
N460 H473 0.985 . S
N461 C463 1.356 . S
N461 H466 0.984 . S
N461 H467 0.985 . S
C462 C456 1.379 . S
C462 C459 1.363 . S
C462 N460 1.356 . S
C463 C457 1.363 . S
C463 C458 1.379 . S
C463 N461 1.356 . S
N464 C456 1.356 . S
N464 H470 0.984 . S
N464 H471 0.984 . S
N465 C458 1.356 . S
N465 H468 0.984 . S
N465 H469 0.985 . S
H466 N461 0.984 . S
H467 N461 0.985 . S
H468 N465 0.984 . S
H469 N465 0.985 . S
H470 N464 0.984 . S
H471 N464 0.984 . S
H472 N460 0.984 . S
H473 N460 0.985 . S
C474 C475 1.363 . S
C474 C480 1.379 . S
C474 N482 1.356 . S
C475 C474 1.363 . S
C475 C481 1.363 . S
C476 C477 1.363 . S
C476 C481 1.379 . S
C476 N483 1.356 . S
C477 C476 1.363 . S
C477 C480 1.363 . S
N478 C480 1.356 . S
N478 H490 0.984 . S
N478 H491 0.985 . S
N479 C481 1.356 . S
N479 H484 0.984 . S
N479 H485 0.985 . S
C480 C474 1.379 . S
C480 C477 1.363 . S
C480 N478 1.356 . S
C481 C475 1.363 . S
C481 C476 1.379 . S
C481 N479 1.356 . S
N482 C474 1.356 . S
N482 H488 0.984 . S
N482 H489 0.984 . S
N483 C476 1.356 . S
N483 H486 0.984 . S
N483 H487 0.985 . S
H484 N479 0.984 . S
H485 N479 0.985 . S
H486 N483 0.984 . S
H487 N483 0.985 . S
H488 N482 0.984 . S
H489 N482 0.984 . S
H490 N478 0.984 . S
H491 N478 0.985 . S
C492 C493 1.363 . S
C492 C498 1.379 . S
C492 N500 1.356 . S
C493 C492 1.363 . S
C493 C499 1.363 . S
C494 C495 1.363 . S
C494 C499 1.379 . S
C494 N501 1.356 . S
C495 C494 1.363 . S
C495 C498 1.363 . S
N496 C498 1.356 . S
N496 H508 0.984 . S
N496 H509 0.985 . S
N497 C499 1.356 . S
N497 H502 0.984 . S
N497 H503 0.985 . S
C498 C492 1.379 . S
C498 C495 1.363 . S
C498 N496 1.356 . S
C499 C493 1.363 . S
C499 C494 1.379 . S
C499 N497 1.356 . S
N500 C492 1.356 . S
N500 H506 0.984 . S
N500 H507 0.984 . S
N501 C494 1.356 . S
N501 H504 0.984 . S
N501 H505 0.985 . S
H502 N497 0.984 . S
H503 N497 0.985 . S
H504 N501 0.984 . S
H505 N501 0.985 . S
H506 N500 0.984 . S
H507 N500 0.984 . S
H508 N496 0.984 . S
H509 N496 0.985 . S
C510 C511 1.363 . S
C510 C516 1.379 . S
C510 N518 1.356 . S
C511 C510 1.363 . S
C511 C517 1.363 . S
C512 C513 1.363 . S
C512 C517 1.379 . S
C512 N519 1.356 . S
C513 C512 1.363 . S
C513 C516 1.363 . S
N514 C516 1.356 . S
N514 H526 0.984 . S
N514 H527 0.985 . S
N515 C517 1.356 . S
N515 H520 0.984 . S
N515 H521 0.985 . S
C516 C510 1.379 . S
C516 C513 1.363 . S
C516 N514 1.356 . S
C517 C511 1.363 . S
C517 C512 1.379 . S
C517 N515 1.356 . S
N518 C510 1.356 . S
N518 H524 0.984 . S
N518 H525 0.984 . S
N519 C512 1.356 . S
N519 H522 0.984 . S
N519 H523 0.985 . S
H520 N515 0.984 . S
H521 N515 0.985 . S
H522 N519 0.984 . S
H523 N519 0.985 . S
H524 N518 0.984 . S
H525 N518 0.984 . S
H526 N514 0.984 . S
H527 N514 0.985 . S
C528 C529 1.363 . S
C528 C534 1.379 . S
C528 N536 1.356 . S
C529 C528 1.363 . S
C529 C535 1.363 . S
C530 C531 1.363 . S
C530 C535 1.379 . S
C530 N537 1.356 1_455 S
C531 C530 1.363 . S
C531 C534 1.363 . S
N532 C534 1.356 . S
N532 H544 0.984 . S
N532 H545 0.985 . S
N533 C535 1.358 . S
N533 H538 0.985 . S
N533 H539 0.982 1_455 S
C534 C528 1.379 . S
C534 C531 1.363 . S
C534 N532 1.356 . S
C535 C529 1.363 . S
C535 C530 1.379 . S
C535 N533 1.358 . S
N536 C528 1.356 . S
N536 H542 0.984 . S
N536 H543 0.984 . S
N537 C530 1.356 1_655 S
N537 H540 0.984 1_554 S
N537 H541 0.985 . S
H538 N533 0.985 . S
H539 N533 0.982 1_655 S
H540 N537 0.984 1_556 S
H541 N537 0.985 . S
H542 N536 0.984 . S
H543 N536 0.984 . S
H544 N532 0.984 . S
H545 N532 0.985 . S
C546 C547 1.363 . S
C546 C552 1.379 . S
C546 N554 1.356 . S
C547 C546 1.363 . S
C547 C553 1.373 . S
C548 C549 1.363 . S
C548 C553 1.381 . S
C548 N555 1.356 1_545 S
C549 C548 1.363 . S
C549 C552 1.363 . S
N550 C552 1.356 . S
N550 H562 0.984 . S
N550 H563 0.985 . S
N551 C553 1.346 1_565 S
N551 H556 0.984 . S
N551 H557 0.985 . S
C552 C546 1.379 . S
C552 C549 1.363 . S
C552 N550 1.356 . S
C553 C547 1.373 . S
C553 C548 1.381 . S
C553 N551 1.346 1_545 S
N554 C546 1.356 . S
N554 H560 0.984 . S
N554 H561 0.984 . S
N555 C548 1.356 1_565 S
N555 H558 0.984 . S
N555 H559 0.985 . S
H556 N551 0.984 . S
H557 N551 0.985 . S
H558 N555 0.984 . S
H559 N555 0.985 . S
H560 N554 0.984 . S
H561 N554 0.984 . S
H562 N550 0.984 . S
H563 N550 0.985 . S
C564 C565 1.363 . S
C564 C570 1.379 . S
C564 N572 1.356 . S
C565 C564 1.363 . S
C565 C571 1.363 . S
C566 C567 1.363 . S
C566 C571 1.379 . S
C566 N573 1.356 . S
C567 C566 1.363 . S
C567 C570 1.363 . S
N568 C570 1.356 . S
N568 H580 0.984 . S
N568 H581 0.985 . S
N569 C571 1.356 . S
N569 H574 0.984 . S
N569 H575 0.985 . S
C570 C564 1.379 . S
C570 C567 1.363 . S
C570 N568 1.356 . S
C571 C565 1.363 . S
C571 C566 1.379 . S
C571 N569 1.356 . S
N572 C564 1.356 . S
N572 H578 0.984 . S
N572 H579 0.984 . S
N573 C566 1.356 . S
N573 H576 0.984 . S
N573 H577 0.985 . S
H574 N569 0.984 . S
H575 N569 0.985 . S
H576 N573 0.984 . S
H577 N573 0.985 . S
H578 N572 0.984 . S
H579 N572 0.984 . S
H580 N568 0.984 . S
H581 N568 0.985 . S
C582 C583 1.363 1_565 S
C582 C588 1.379 . S
C582 N590 1.356 . S
C583 C582 1.363 1_545 S
C583 C589 1.363 . S
C584 C585 1.363 . S
C584 C589 1.379 . S
C584 N591 1.356 . S
C585 C584 1.363 . S
C585 C588 1.363 1_545 S
N586 C588 1.356 . S
N586 H598 0.984 . S
N586 H599 0.985 . S
N587 C589 1.356 . S
N587 H592 0.984 . S
N587 H593 0.985 . S
C588 C582 1.379 . S
C588 C585 1.363 1_565 S
C588 N586 1.356 . S
C589 C583 1.363 . S
C589 C584 1.379 . S
C589 N587 1.356 . S
N590 C582 1.356 . S
N590 H596 0.984 . S
N590 H597 0.984 . S
N591 C584 1.356 . S
N591 H594 0.984 . S
N591 H595 0.985 . S
H592 N587 0.984 . S
H593 N587 0.985 . S
H594 N591 0.984 . S
H595 N591 0.985 . S
H596 N590 0.984 . S
H597 N590 0.984 . S
H598 N586 0.984 . S
H599 N586 0.985 . S
C600 C601 1.363 . S
C600 C606 1.379 . S
C600 N608 1.356 . S
C601 C600 1.363 . S
C601 C607 1.363 . S
C602 C603 1.363 . S
C602 C607 1.379 . S
C602 N609 1.356 . S
C603 C602 1.363 . S
C603 C606 1.363 . S
N604 C606 1.356 . S
N604 H616 0.984 . S
N604 H617 0.983 1_556 S
N605 C607 1.356 . S
N605 H610 0.984 . S
N605 H611 0.985 . S
C606 C600 1.379 . S
C606 C603 1.363 . S
C606 N604 1.356 . S
C607 C601 1.363 . S
C607 C602 1.379 . S
C607 N605 1.356 . S
N608 C600 1.356 . S
N608 H614 0.984 . S
N608 H615 0.984 . S
N609 C602 1.356 . S
N609 H612 0.984 1_556 S
N609 H613 0.985 . S
H610 N605 0.984 . S
H611 N605 0.985 . S
H612 N609 0.984 1_554 S
H613 N609 0.985 . S
H614 N608 0.984 . S
H615 N608 0.984 . S
H616 N604 0.984 . S
H617 N604 0.983 1_554 S
C618 C619 1.363 1_655 S
C618 C624 1.379 . S
C618 N626 1.356 . S
C619 C618 1.363 1_455 S
C619 C625 1.363 . S
C620 C621 1.363 . S
C620 C625 1.379 . S
C620 N627 1.356 . S
C621 C620 1.363 . S
C621 C624 1.363 1_455 S
N622 C624 1.356 . S
N622 H634 0.984 . S
N622 H635 0.985 . S
N623 C625 1.356 . S
N623 H628 0.984 . S
N623 H629 0.985 . S
C624 C618 1.379 . S
C624 C621 1.363 1_655 S
C624 N622 1.356 . S
C625 C619 1.363 . S
C625 C620 1.379 . S
C625 N623 1.356 . S
N626 C618 1.356 . S
N626 H632 0.984 . S
N626 H633 0.984 . S
N627 C620 1.356 . S
N627 H630 0.984 . S
N627 H631 0.985 . S
H628 N623 0.984 . S
H629 N623 0.985 . S
H630 N627 0.984 . S
H631 N627 0.985 . S
H632 N626 0.984 . S
H633 N626 0.984 . S
H634 N622 0.984 . S
H635 N622 0.985 . S
C313 C10 3.049 . S
C315 C303 2.985 . S
C331 C59 3.129 . S
C333 C239 3.060 . S
C349 C90 3.067 . S
C351 C271 3.007 . S
C367 C19 3.134 . S
C369 C297 3.072 . S
C387 C233 2.992 . S
C385 C50 3.052 . S
C405 C265 3.051 . S
C403 C99 3.114 . S
C421 C46 0.721 . S
C423 C175 0.704 . S
C439 C95 0.685 . S
C441 C207 0.653 . S
C457 C6 0.690 . S
C459 C137 0.691 . S
C477 C169 0.658 . S
C475 C55 0.694 . S
C495 C201 0.713 . S
C493 C86 0.712 . S
C511 C15 0.695 . S
C513 C143 0.668 . S
C531 C213 0.983 . S
C529 C9 1.013 . S
C547 C49 0.998 . S
C549 C149 0.975 . S
C565 C89 1.014 . S
C567 C181 1.021 . S
C585 C277 1.771 . S
C583 C58 1.729 . S
C603 C309 1.774 1_556 S
C601 C98 1.725 . S
C619 C18 1.730 . S
C621 C245 1.789 . S
