# Generated by pormake.
# Topology nom, (4,4)-cn, num edge types: 1
# Building blocks:
#     Node 0, Type 0, BuildingBlock: MUDLON_clean_linker_0, # of connection points: 4
#     Node 1, Type 0, BuildingBlock: MUDLON_clean_linker_0, # of connection points: 4
#     Node 2, Type 0, BuildingBlock: MUDLON_clean_linker_0, # of connection points: 4
#     Node 3, Type 0, BuildingBlock: MUDLON_clean_linker_0, # of connection points: 4
#     Node 4, Type 0, BuildingBlock: MUDLON_clean_linker_0, # of connection points: 4
#     Node 5, Type 0, BuildingBlock: MUDLON_clean_linker_0, # of connection points: 4
#     Node 6, Type 1, BuildingBlock: CEKHIL_clean_sbu_0, # of connection points: 4
#     Node 7, Type 1, BuildingBlock: CEKHIL_clean_sbu_0, # of connection points: 4
#     Node 8, Type 1, BuildingBlock: CEKHIL_clean_sbu_0, # of connection points: 4
#     Node 9, Type 1, BuildingBlock: CEKHIL_clean_sbu_0, # of connection points: 4
#     Node 10, Type 1, BuildingBlock: CEKHIL_clean_sbu_0, # of connection points: 4
#     Node 11, Type 1, BuildingBlock: CEKHIL_clean_sbu_0, # of connection points: 4
#     Edge 12, Type (0, 1), None
#     Edge 13, Type (0, 1), None
#     Edge 14, Type (0, 1), None
#     Edge 15, Type (0, 1), None
#     Edge 16, Type (0, 1), None
#     Edge 17, Type (0, 1), None
#     Edge 18, Type (0, 1), None
#     Edge 19, Type (0, 1), None
#     Edge 20, Type (0, 1), None
#     Edge 21, Type (0, 1), None
#     Edge 22, Type (0, 1), None
#     Edge 23, Type (0, 1), None
#     Edge 24, Type (0, 1), None
#     Edge 25, Type (0, 1), None
#     Edge 26, Type (0, 1), None
#     Edge 27, Type (0, 1), None
#     Edge 28, Type (0, 1), None
#     Edge 29, Type (0, 1), None
#     Edge 30, Type (0, 1), None
#     Edge 31, Type (0, 1), None
#     Edge 32, Type (0, 1), None
#     Edge 33, Type (0, 1), None
#     Edge 34, Type (0, 1), None
#     Edge 35, Type (0, 1), None
# Relax obj value: 0.012
# Max RMSD: 0.109
# Mean RMSD: 0.067
data_MOF--net-nom--node1-CEKHIL_clean_sbu_0--node2-MUDLON_clean_linker_0--edge1-none
_symmetry_space_group_name_H-M    P1
_symmetry_Int_Tables_number       1
_symmetry_cell_setting            triclinic
loop_
_symmetry_equiv_pos_as_xyz
'x, y, z'
_cell_length_a     35.861601
_cell_length_b     36.177779
_cell_length_c     35.480293
_cell_angle_alpha  90.454654
_cell_angle_beta   89.755982
_cell_angle_gamma 122.25453
loop_
_atom_site_label
_atom_site_type_symbol
_atom_site_fract_x
_atom_site_fract_y
_atom_site_fract_z
_atom_type_partial_charge
H0 H 0.22028 0.56583 0.33289 0.0
N1 N 0.15748 0.57897 0.353 0.0
H2 H 0.28199 0.60979 0.29068 0.0
H3 H 0.16947 0.64783 0.31027 0.0
H4 H 0.23129 0.692 0.26707 0.0
H5 H 0.17854 0.65871 0.38044 0.0
H6 H 0.2132 0.69071 0.44058 0.0
H7 H 0.1707 0.5393 0.40934 0.0
H8 H 0.20694 0.57171 0.4698 0.0
H9 H 0.10522 0.50104 0.32197 0.0
H10 H 0.10817 0.61659 0.35819 0.0
H11 H 0.03099 0.47071 0.2964 0.0
H12 H 0.03415 0.58641 0.33351 0.0
H13 H 0.85251 0.3927 0.22416 0.0
H14 H 0.81772 0.35475 0.16489 0.0
H15 H 0.79079 0.45503 0.1392 0.0
H16 H 0.82492 0.4919 0.19832 0.0
H17 H 0.83346 0.51253 0.2941 0.0
H18 H 0.77196 0.48541 0.33903 0.0
H19 H 0.73965 0.35354 0.31903 0.0
H20 H 0.80125 0.38072 0.27538 0.0
H21 H 0.88126 0.41582 0.28796 0.0
H22 H 0.95433 0.44255 0.31441 0.0
H23 H 0.99999 0.57143 0.27147 0.0
N24 N 0.85516 0.46526 0.25238 0.0
H25 H 0.92652 0.54444 0.24574 0.0
C26 C 0.1903 0.60324 0.32462 0.0
C27 C 0.22218 0.59297 0.31828 0.0
C28 C 0.25749 0.61836 0.29432 0.0
C29 C 0.26151 0.65454 0.27579 0.0
C30 C 0.22879 0.66421 0.28096 0.0
C31 C 0.1935 0.63892 0.30558 0.0
C32 C 0.17098 0.59605 0.39068 0.0
C33 C 0.1829 0.63876 0.40023 0.0
C34 C 0.20335 0.65727 0.43465 0.0
C35 C 0.21316 0.63387 0.46002 0.0
C36 C 0.20004 0.59069 0.45089 0.0
C37 C 0.17898 0.57198 0.41658 0.0
C38 C 0.11231 0.5609 0.34208 0.0
C39 C 0.08953 0.51951 0.32494 0.0
C40 C 0.04718 0.50225 0.31042 0.0
C41 C 0.02681 0.5263 0.31267 0.0
C42 C 0.04925 0.56738 0.33076 0.0
C43 C 0.0916 0.58457 0.34527 0.0
C44 C 0.8411 0.44521 0.21566 0.0
C45 C 0.83964 0.40673 0.20548 0.0
C46 C 0.81964 0.38498 0.17156 0.0
C47 C 0.80092 0.40142 0.14734 0.0
C48 C 0.80443 0.44099 0.1571 0.0
C49 C 0.82417 0.46242 0.19082 0.0
C50 C 0.82146 0.44871 0.28094 0.0
C51 C 0.81339 0.47788 0.29998 0.0
C52 C 0.7785 0.46242 0.32563 0.0
C53 C 0.75092 0.4174 0.33215 0.0
C54 C 0.76018 0.38842 0.31421 0.0
C55 C 0.79539 0.40392 0.28913 0.0
C56 C 0.89864 0.47835 0.26484 0.0
C57 C 0.90712 0.44965 0.28386 0.0
C58 C 0.94893 0.465 0.29899 0.0
C59 C 0.98283 0.50925 0.29541 0.0
C60 C 0.97438 0.5374 0.27539 0.0
C61 C 0.93269 0.52202 0.26031 0.0
H62 H 0.46097 0.80176 0.43685 0.0
N63 N 0.44697 0.86436 0.42034 0.0
H64 H 0.418 0.7398 0.47865 0.0
H65 H 0.37905 0.85159 0.46667 0.0
H66 H 0.33632 0.78987 0.50942 0.0
H67 H 0.36395 0.8377 0.39617 0.0
H68 H 0.33188 0.80527 0.33555 0.0
H69 H 0.48782 0.85569 0.36124 0.0
H70 H 0.45517 0.82133 0.3001 0.0
H71 H 0.52484 0.92044 0.45074 0.0
H72 H 0.40383 0.90854 0.41581 0.0
H73 H 0.55178 0.99424 0.4748 0.0
H74 H 0.43058 0.98188 0.43904 0.0
H75 H 0.61874 0.16189 0.54576 0.0
H76 H 0.6568 0.19382 0.60547 0.0
H77 H 0.56134 0.22844 0.63218 0.0
H78 H 0.52401 0.19675 0.57261 0.0
H79 H 0.50213 0.186 0.47491 0.0
H80 H 0.53142 0.24795 0.43106 0.0
H81 H 0.66363 0.28099 0.45581 0.0
H82 H 0.63452 0.21912 0.49809 0.0
H83 H 0.5995 0.14094 0.47958 0.0
H84 H 0.57547 0.06851 0.45422 0.0
H85 H 0.4454 0.0184 0.50032 0.0
N86 N 0.54811 0.16394 0.51789 0.0
H87 H 0.46968 0.09121 0.52514 0.0
C88 C 0.4237 0.83148 0.44875 0.0
C89 C 0.43419 0.79968 0.45297 0.0
C90 C 0.40938 0.76422 0.47668 0.0
C91 C 0.37367 0.75999 0.49715 0.0
C92 C 0.3638 0.79252 0.49405 0.0
C93 C 0.38836 0.82786 0.46969 0.0
C94 C 0.42885 0.85033 0.38298 0.0
C95 C 0.38476 0.83594 0.37504 0.0
C96 C 0.36626 0.81683 0.34028 0.0
C97 C 0.39097 0.81064 0.31287 0.0
C98 C 0.43526 0.82559 0.32058 0.0
C99 C 0.45403 0.8455 0.3553 0.0
C100 C 0.46248 0.90878 0.43138 0.0
C101 C 0.50435 0.93394 0.44784 0.0
C102 C 0.51969 0.97607 0.46145 0.0
C103 C 0.4932 0.99382 0.45902 0.0
C104 C 0.45153 0.96889 0.44186 0.0
C105 C 0.43628 0.92683 0.42819 0.0
C106 C 0.56829 0.17695 0.5547 0.0
C107 C 0.6056 0.1757 0.56473 0.0
C108 C 0.6275 0.19413 0.59893 0.0
C109 C 0.61254 0.21414 0.62359 0.0
C110 C 0.5742 0.21366 0.61392 0.0
C111 C 0.55252 0.19535 0.57994 0.0
C112 C 0.56601 0.19825 0.49022 0.0
C113 C 0.53737 0.20641 0.47035 0.0
C114 C 0.55404 0.24161 0.44539 0.0
C115 C 0.59973 0.26943 0.44047 0.0
C116 C 0.62824 0.26036 0.45945 0.0
C117 C 0.61159 0.22489 0.48374 0.0
C118 C 0.53618 0.12138 0.5043 0.0
C119 C 0.56593 0.11436 0.48444 0.0
C120 C 0.55216 0.07287 0.47001 0.0
C121 C 0.50843 0.03775 0.47502 0.0
C122 C 0.47908 0.04488 0.4954 0.0
C123 C 0.49291 0.08627 0.50987 0.0
H124 H 0.44419 0.64541 0.66599 0.0
N125 N 0.4051 0.56039 0.68825 0.0
H126 H 0.41447 0.67409 0.6217 0.0
H127 H 0.33387 0.5146 0.64493 0.0
H128 H 0.30394 0.54331 0.59954 0.0
H129 H 0.34465 0.53729 0.74104 0.0
H130 H 0.35099 0.57484 0.8001 0.0
H131 H 0.48153 0.6306 0.71695 0.0
H132 H 0.48853 0.66919 0.77627 0.0
H133 H 0.47948 0.60546 0.64433 0.0
H134 H 0.39923 0.48687 0.70714 0.0
H135 H 0.5238 0.57772 0.62042 0.0
H136 H 0.44515 0.45985 0.68541 0.0
H137 H 0.65426 0.47642 0.54598 0.0
H138 H 0.65579 0.44856 0.48313 0.0
H139 H 0.51562 0.35392 0.49133 0.0
H140 H 0.51473 0.38135 0.55344 0.0
H141 H 0.52773 0.3592 0.61399 0.0
H142 H 0.54289 0.31566 0.65644 0.0
H143 H 0.67475 0.42708 0.67387 0.0
H144 H 0.65895 0.47087 0.63253 0.0
H145 H 0.61694 0.52781 0.60787 0.0
H146 H 0.57624 0.55923 0.63354 0.0
H147 H 0.45629 0.43113 0.63043 0.0
N148 N 0.58651 0.44444 0.59326 0.0
H149 H 0.49737 0.40015 0.60739 0.0
C150 C 0.39076 0.57778 0.65926 0.0
C151 C 0.41373 0.62274 0.6516 0.0
C152 C 0.39671 0.63911 0.62612 0.0
C153 C 0.35669 0.61091 0.60742 0.0
C154 C 0.33489 0.56573 0.61352 0.0
C155 C 0.3518 0.54936 0.63943 0.0
C156 C 0.41234 0.58104 0.72469 0.0
C157 C 0.37628 0.56565 0.74891 0.0
C158 C 0.3801 0.58742 0.78261 0.0
C159 C 0.4203 0.62546 0.79293 0.0
C160 C 0.45709 0.64014 0.76919 0.0
C161 C 0.45316 0.61807 0.7353 0.0
C162 C 0.43526 0.54761 0.67691 0.0
C163 C 0.47163 0.57361 0.65334 0.0
C164 C 0.49731 0.5578 0.63992 0.0
C165 C 0.48767 0.51612 0.65038 0.0
C166 C 0.45276 0.49144 0.67571 0.0
C167 C 0.42674 0.50697 0.68855 0.0
C168 C 0.58449 0.43139 0.55448 0.0
C169 C 0.6238 0.45024 0.53371 0.0
C170 C 0.62461 0.43417 0.49789 0.0
C171 C 0.5859 0.39876 0.48217 0.0
C172 C 0.54618 0.38113 0.50249 0.0
C173 C 0.54551 0.39707 0.53827 0.0
C174 C 0.59236 0.4186 0.62035 0.0
C175 C 0.5594 0.37473 0.6278 0.0
C176 C 0.56799 0.34978 0.65208 0.0
C177 C 0.60985 0.36815 0.66835 0.0
C178 C 0.64216 0.41221 0.66161 0.0
C179 C 0.6333 0.43723 0.63808 0.0
C180 C 0.5604 0.46185 0.6051 0.0
C181 C 0.58177 0.50675 0.61255 0.0
C182 C 0.5584 0.5246 0.62711 0.0
C183 C 0.51289 0.49774 0.63428 0.0
C184 C 0.49142 0.45278 0.62604 0.0
C185 C 0.51494 0.43496 0.61204 0.0
H186 H 0.21134 0.65039 0.7752 0.0
N187 N 0.1581 0.5661 0.75057 0.0
H188 H 0.2719 0.67724 0.81984 0.0
H189 H 0.1787 0.51846 0.79211 0.0
H190 H 0.23919 0.54524 0.83797 0.0
H191 H 0.19066 0.54073 0.69683 0.0
H192 H 0.22574 0.57807 0.63847 0.0
H193 H 0.16052 0.63836 0.72334 0.0
H194 H 0.19631 0.67691 0.66467 0.0
H195 H 0.1311 0.61307 0.79016 0.0
H196 H 0.08639 0.48857 0.73733 0.0
H197 H 0.05739 0.58447 0.81611 0.0
H198 H 0.01211 0.46002 0.76188 0.0
H199 H 0.83354 0.48417 0.90306 0.0
H200 H 0.79891 0.45484 0.96445 0.0
H201 H 0.80946 0.34261 0.94471 0.0
H202 H 0.84226 0.37132 0.8837 0.0
H203 H 0.8341 0.36844 0.81551 0.0
H204 H 0.77136 0.3241 0.77304 0.0
H205 H 0.73567 0.42051 0.7825 0.0
H206 H 0.79838 0.46462 0.82415 0.0
H207 H 0.90728 0.5261 0.82716 0.0
H208 H 0.98154 0.55864 0.80078 0.0
H209 H 0.97635 0.43853 0.82224 0.0
N210 N 0.85407 0.44497 0.85081 0.0
H211 H 0.90239 0.40629 0.84747 0.0
C212 C 0.19101 0.58238 0.77979 0.0
C213 C 0.21688 0.6271 0.78878 0.0
C214 C 0.25147 0.6424 0.81444 0.0
C215 C 0.26036 0.61329 0.83212 0.0
C216 C 0.23293 0.56832 0.8248 0.0
C217 C 0.19862 0.55306 0.79861 0.0
C218 C 0.17313 0.58663 0.71436 0.0
C219 C 0.19112 0.57001 0.68962 0.0
C220 C 0.2114 0.59172 0.65634 0.0
C221 C 0.21439 0.63099 0.64691 0.0
C222 C 0.19478 0.64692 0.67109 0.0
C223 C 0.17423 0.62486 0.7046 0.0
C224 C 0.11416 0.55258 0.76215 0.0
C225 C 0.10523 0.57978 0.78366 0.0
C226 C 0.06299 0.56338 0.79838 0.0
C227 C 0.02899 0.51969 0.7916 0.0
C228 C 0.03776 0.49342 0.76851 0.0
C229 C 0.07996 0.50974 0.75407 0.0
C230 C 0.84143 0.43059 0.88906 0.0
C231 C 0.82928 0.45378 0.9126 0.0
C232 C 0.80922 0.43681 0.9475 0.0
C233 C 0.80117 0.39625 0.95957 0.0
C234 C 0.81518 0.37401 0.93652 0.0
C235 C 0.83465 0.39074 0.90153 0.0
C236 C 0.82077 0.41999 0.82294 0.0
C237 C 0.81325 0.38037 0.80789 0.0
C238 C 0.7775 0.35505 0.7836 0.0
C239 C 0.74866 0.36878 0.77482 0.0
C240 C 0.75717 0.40891 0.78913 0.0
C241 C 0.79298 0.43427 0.81275 0.0
C242 C 0.89923 0.46394 0.83941 0.0
C243 C 0.92255 0.50711 0.82648 0.0
C244 C 0.96492 0.52561 0.81148 0.0
C245 C 0.98476 0.50105 0.80906 0.0
C246 C 0.96171 0.45808 0.82299 0.0
C247 C 0.91934 0.43965 0.83791 0.0
H248 H 0.55141 0.22894 0.93956 0.0
N249 N 0.56362 0.165 0.92263 0.0
H250 H 0.59619 0.29184 0.98058 0.0
H251 H 0.63273 0.17822 0.96718 0.0
H252 H 0.67732 0.24093 0.0092 0.0
H253 H 0.64502 0.18829 0.89623 0.0
H254 H 0.67553 0.21841 0.83489 0.0
H255 H 0.52191 0.17371 0.86472 0.0
H256 H 0.55308 0.20587 0.80287 0.0
H257 H 0.48593 0.11123 0.95424 0.0
H258 H 0.60477 0.11886 0.91803 0.0
H259 H 0.4578 0.03787 0.97912 0.0
H260 H 0.57686 0.04598 0.94211 0.0
H261 H 0.38635 0.86525 0.04904 0.0
H262 H 0.34739 0.83032 0.10764 0.0
H263 H 0.44583 0.79958 0.13259 0.0
H264 H 0.48393 0.83412 0.07421 0.0
H265 H 0.50614 0.84452 0.9787 0.0
H266 H 0.47825 0.78232 0.93451 0.0
H267 H 0.34531 0.74944 0.95588 0.0
H268 H 0.37309 0.81161 0.99848 0.0
H269 H 0.4073 0.89 0.98423 0.0
H270 H 0.43204 0.9624 0.95922 0.0
H271 H 0.56241 0.01127 0.00375 0.0
N272 N 0.45866 0.86625 0.02068 0.0
H273 H 0.5374 0.93854 0.02822 0.0
C274 C 0.58824 0.19871 0.95044 0.0
C275 C 0.57849 0.23107 0.95502 0.0
C276 C 0.60433 0.26706 0.97829 0.0
C277 C 0.64038 0.2713 0.99796 0.0
C278 C 0.6496 0.23829 0.99446 0.0
C279 C 0.62398 0.20239 0.97051 0.0
C280 C 0.58055 0.17746 0.88482 0.0
C281 C 0.62396 0.19023 0.8757 0.0
C282 C 0.6416 0.20805 0.84052 0.0
C283 C 0.61673 0.2146 0.81385 0.0
C284 C 0.57308 0.20127 0.82274 0.0
C285 C 0.55514 0.18261 0.85787 0.0
C286 C 0.5473 0.12073 0.93416 0.0
C287 C 0.50568 0.09689 0.95124 0.0
C288 C 0.48966 0.05501 0.96534 0.0
C289 C 0.51522 0.0362 0.9628 0.0
C290 C 0.55663 0.05982 0.94504 0.0
C291 C 0.57254 0.10161 0.93088 0.0
C292 C 0.43828 0.85228 0.05726 0.0
C293 C 0.3999 0.85165 0.06745 0.0
C294 C 0.37749 0.83149 0.10097 0.0
C295 C 0.39303 0.81159 0.12472 0.0
C296 C 0.43244 0.81409 0.11498 0.0
C297 C 0.45462 0.83413 0.08172 0.0
C298 C 0.44179 0.83239 0.99227 0.0
C299 C 0.47107 0.82416 0.97325 0.0
C300 C 0.4552 0.7888 0.94812 0.0
C301 C 0.40968 0.7609 0.94226 0.0
C302 C 0.38058 0.77014 0.96031 0.0
C303 C 0.39645 0.80579 0.98471 0.0
C304 C 0.4707 0.90899 0.00815 0.0
C305 C 0.44104 0.91635 0.98894 0.0
C306 C 0.45524 0.95781 0.97467 0.0
C307 C 0.49932 0.99251 0.97919 0.0
C308 C 0.52848 0.98509 0.99918 0.0
C309 C 0.51422 0.94376 0.01348 0.0
H310 H 0.57049 0.38631 0.16697 0.0
N311 N 0.60801 0.47145 0.18936 0.0
H312 H 0.60123 0.35797 0.12277 0.0
H313 H 0.67981 0.51757 0.14674 0.0
H314 H 0.71084 0.48913 0.10141 0.0
H315 H 0.66743 0.49504 0.24309 0.0
H316 H 0.66032 0.45735 0.30171 0.0
H317 H 0.53121 0.40101 0.21695 0.0
H318 H 0.52348 0.36231 0.27579 0.0
H319 H 0.53454 0.42477 0.1445 0.0
H320 H 0.61229 0.54475 0.20737 0.0
H321 H 0.49017 0.45126 0.11897 0.0
H322 H 0.56619 0.57053 0.18403 0.0
H323 H 0.35674 0.5515 0.04337 0.0
H324 H 0.35487 0.58079 0.98182 0.0
H325 H 0.49567 0.673 0.98901 0.0
H326 H 0.49692 0.64411 0.04986 0.0
H327 H 0.48246 0.66799 0.11035 0.0
H328 H 0.46634 0.71127 0.1531 0.0
H329 H 0.33592 0.5982 0.1716 0.0
H330 H 0.35272 0.55472 0.12999 0.0
H331 H 0.39572 0.49906 0.10354 0.0
H332 H 0.43683 0.46896 0.1301 0.0
H333 H 0.55556 0.598 0.12869 0.0
N334 N 0.42493 0.58213 0.08988 0.0
H335 H 0.51395 0.62771 0.10484 0.0
C336 C 0.62333 0.45416 0.16068 0.0
C337 C 0.60099 0.40915 0.15284 0.0
C338 C 0.61861 0.39297 0.12738 0.0
C339 C 0.65862 0.42137 0.10887 0.0
C340 C 0.6799 0.46656 0.11523 0.0
C341 C 0.66238 0.48277 0.14113 0.0
C342 C 0.60013 0.45097 0.2257 0.0
C343 C 0.63575 0.46653 0.25043 0.0
C344 C 0.63151 0.44467 0.28387 0.0
C345 C 0.59132 0.40635 0.29345 0.0
C346 C 0.55491 0.39158 0.26929 0.0
C347 C 0.55926 0.41373 0.23566 0.0
C348 C 0.57754 0.48339 0.17728 0.0
C349 C 0.54181 0.45666 0.1532 0.0
C350 C 0.51609 0.47177 0.13882 0.0
C351 C 0.52498 0.51347 0.14881 0.0
C352 C 0.55918 0.53889 0.17465 0.0
C353 C 0.58528 0.52406 0.18845 0.0
C354 C 0.42684 0.5952 0.0513 0.0
C355 C 0.38726 0.57738 0.03109 0.0
C356 C 0.38625 0.59431 0.99603 0.0
C357 C 0.42503 0.62959 0.98052 0.0
C358 C 0.46502 0.646 1.00009 0.0
C359 C 0.46591 0.62919 0.03512 0.0
C360 C 0.41866 0.60782 0.11728 0.0
C361 C 0.45094 0.65209 0.12449 0.0
C362 C 0.44179 0.6769 0.1489 0.0
C363 C 0.40001 0.65796 0.16551 0.0
C364 C 0.36842 0.61352 0.15903 0.0
C365 C 0.37786 0.58867 0.13537 0.0
C366 C 0.45157 0.56541 0.10152 0.0
C367 C 0.43074 0.52061 0.10869 0.0
C368 C 0.45436 0.50351 0.1238 0.0
C369 C 0.49962 0.53102 0.13181 0.0
C370 C 0.52062 0.57584 0.12369 0.0
C371 C 0.49682 0.59293 0.10917 0.0
Co372 Co 0.64617 0.37202 0.38596 0.0
O373 O 0.67743 0.36035 0.34873 0.0
O374 O 0.70508 0.423 0.37995 0.0
C375 C 0.61872 0.30919 0.4174 0.0
O376 O 0.62347 0.39401 0.42792 0.0
Co377 Co 0.54487 0.3154 0.38573 0.0
O378 O 0.5513 0.34364 0.43543 0.0
C379 C 0.589 0.38144 0.32746 0.0
C380 C 0.71044 0.39981 0.35477 0.0
C381 C 0.58689 0.37804 0.44619 0.0
O382 O 0.62494 0.39526 0.34573 0.0
O383 O 0.55255 0.34703 0.33694 0.0
O384 O 0.65872 0.3417 0.42345 0.0
O385 O 0.59825 0.31376 0.38947 0.0
Co386 Co 0.30439 0.65948 0.55343 0.0
O387 O 0.34857 0.67001 0.5895 0.0
O388 O 0.30505 0.6067 0.56034 0.0
C389 C 0.34661 0.72059 0.52017 0.0
O390 O 0.25663 0.63823 0.51306 0.0
Co391 Co 0.2694 0.72039 0.55359 0.0
O392 O 0.24343 0.69176 0.50449 0.0
C393 C 0.23966 0.65522 0.61283 0.0
C394 C 0.33658 0.62962 0.58452 0.0
C395 C 0.23881 0.65557 0.4947 0.0
O396 O 0.25974 0.63998 0.59489 0.0
O397 O 0.24161 0.69009 0.60273 0.0
O398 O 0.34844 0.68612 0.51446 0.0
O399 O 0.32285 0.71884 0.54869 0.0
Co400 Co 0.64629 0.30306 0.7188 0.0
O401 O 0.66182 0.34877 0.6837 0.0
O402 O 0.59642 0.30965 0.71122 0.0
C403 C 0.70794 0.34118 0.75312 0.0
O404 O 0.62104 0.25498 0.75868 0.0
Co405 Co 0.70118 0.26153 0.71859 0.0
O406 O 0.67327 0.23966 0.76845 0.0
C407 C 0.63719 0.23745 0.65836 0.0
C408 C 0.62259 0.34119 0.68846 0.0
C409 C 0.63772 0.23715 0.77803 0.0
O410 O 0.62413 0.25935 0.67641 0.0
O411 O 0.67052 0.23609 0.6689 0.0
O412 O 0.67462 0.34539 0.75856 0.0
O413 O 0.70503 0.31724 0.72435 0.0
Co414 Co 0.36456 0.65843 0.88657 0.0
O415 O 0.33344 0.67037 0.8499 0.0
O416 O 0.30577 0.60735 0.87971 0.0
C417 C 0.39146 0.72091 0.91917 0.0
O418 O 0.38723 0.63605 0.92769 0.0
Co419 Co 0.46581 0.71549 0.88689 0.0
O420 O 0.45956 0.68587 0.93538 0.0
C421 C 0.42228 0.65005 0.8274 0.0
C422 C 0.30051 0.63077 0.85513 0.0
C423 C 0.42391 0.65135 0.94561 0.0
O424 O 0.38622 0.63589 0.84562 0.0
O425 O 0.4586 0.68446 0.8374 0.0
O426 O 0.35156 0.68813 0.9249 0.0
O427 O 0.41223 0.71675 0.89103 0.0
Co428 Co 0.71108 0.37266 0.05397 0.0
O429 O 0.66731 0.36252 0.0905 0.0
O430 O 0.7104 0.42553 0.06146 0.0
C431 C 0.66832 0.31113 0.02067 0.0
O432 O 0.75832 0.39322 0.01308 0.0
Co433 Co 0.74564 0.31145 0.05352 0.0
O434 O 0.77166 0.33964 0.00457 0.0
C435 C 0.77579 0.3772 0.11303 0.0
C436 C 0.67908 0.40279 0.08578 0.0
C437 C 0.77608 0.37556 0.99465 0.0
O438 O 0.75616 0.39265 0.09512 0.0
O439 O 0.77333 0.34194 0.10285 0.0
O440 O 0.66662 0.34565 0.01531 0.0
O441 O 0.69229 0.31313 0.04894 0.0
Co442 Co 0.36169 0.72134 0.21742 0.0
O443 O 0.34683 0.67561 0.18192 0.0
O444 O 0.4126 0.71668 0.20853 0.0
C445 C 0.3011 0.68207 0.25273 0.0
O446 O 0.38649 0.76981 0.25743 0.0
Co447 Co 0.30409 0.7599 0.21936 0.0
O448 O 0.33286 0.78292 0.26886 0.0
C449 C 0.36822 0.78669 0.15872 0.0
C450 C 0.3866 0.68448 0.18595 0.0
C451 C 0.36931 0.78694 0.27746 0.0
O452 O 0.38178 0.76469 0.17539 0.0
O453 O 0.33464 0.78724 0.17018 0.0
O454 O 0.3354 0.67932 0.25714 0.0
O455 O 0.30243 0.70525 0.22428 0.0
loop_
_geom_bond_atom_site_label_1
_geom_bond_atom_site_label_2
_geom_bond_distance
_geom_bond_site_symmetry_2
_ccdc_geom_bond_type
H0 C27 0.929 . S
N1 C26 1.433 . S
N1 C32 1.435 . S
N1 C38 1.423 . S
H2 C28 0.930 . S
H3 C31 0.931 . S
H4 C30 0.929 . S
H5 C33 0.930 . S
H6 C34 0.932 . S
H7 C37 0.929 . S
H8 C36 0.931 . S
H9 C39 0.929 . S
H10 C43 0.932 . S
H11 C40 0.931 . S
H12 C42 0.929 . S
H13 C45 0.929 . S
H14 C46 0.930 . S
H15 C48 0.929 . S
H16 C49 0.931 . S
H17 C51 0.930 . S
H18 C52 0.932 . S
H19 C54 0.931 . S
H20 C55 0.929 . S
H21 C57 0.929 . S
H22 C58 0.931 . S
H23 C60 0.929 . S
N24 C44 1.433 . S
N24 C50 1.435 . S
N24 C56 1.423 . S
H25 C61 0.932 . S
C26 N1 1.433 . S
C26 C27 1.363 . S
C26 C31 1.370 . S
C27 H0 0.929 . S
C27 C26 1.363 . S
C27 C28 1.385 . S
C28 H2 0.930 . S
C28 C27 1.385 . S
C28 C29 1.357 . S
C29 C28 1.357 . S
C29 C30 1.406 . S
C30 H4 0.929 . S
C30 C29 1.406 . S
C30 C31 1.391 . S
C31 H3 0.931 . S
C31 C26 1.370 . S
C31 C30 1.391 . S
C32 N1 1.435 . S
C32 C33 1.358 . S
C32 C37 1.371 . S
C33 H5 0.930 . S
C33 C32 1.358 . S
C33 C34 1.405 . S
C34 H6 0.932 . S
C34 C33 1.405 . S
C34 C35 1.383 . S
C35 C34 1.383 . S
C35 C36 1.393 . S
C36 H8 0.931 . S
C36 C35 1.393 . S
C36 C37 1.382 . S
C37 H7 0.929 . S
C37 C32 1.371 . S
C37 C36 1.382 . S
C38 N1 1.423 . S
C38 C39 1.362 . S
C38 C43 1.388 . S
C39 H9 0.929 . S
C39 C38 1.362 . S
C39 C40 1.376 . S
C40 H11 0.931 . S
C40 C39 1.376 . S
C40 C41 1.396 . S
C41 C40 1.396 . S
C41 C42 1.348 . S
C41 C59 1.472 1_455 S
C42 H12 0.929 . S
C42 C41 1.348 . S
C42 C43 1.443 . S
C43 H10 0.932 . S
C43 C38 1.388 . S
C43 C42 1.443 . S
C44 N24 1.433 . S
C44 C45 1.363 . S
C44 C49 1.370 . S
C45 H13 0.929 . S
C45 C44 1.363 . S
C45 C46 1.385 . S
C46 H14 0.930 . S
C46 C45 1.385 . S
C46 C47 1.357 . S
C47 C46 1.357 . S
C47 C48 1.406 . S
C48 H15 0.929 . S
C48 C47 1.406 . S
C48 C49 1.391 . S
C49 H16 0.931 . S
C49 C44 1.370 . S
C49 C48 1.391 . S
C50 N24 1.435 . S
C50 C51 1.358 . S
C50 C55 1.371 . S
C51 H17 0.930 . S
C51 C50 1.358 . S
C51 C52 1.405 . S
C52 H18 0.932 . S
C52 C51 1.405 . S
C52 C53 1.383 . S
C53 C52 1.383 . S
C53 C54 1.393 . S
C54 H19 0.931 . S
C54 C53 1.393 . S
C54 C55 1.382 . S
C55 H20 0.929 . S
C55 C50 1.371 . S
C55 C54 1.382 . S
C56 N24 1.423 . S
C56 C57 1.362 . S
C56 C61 1.388 . S
C57 H21 0.929 . S
C57 C56 1.362 . S
C57 C58 1.376 . S
C58 H22 0.931 . S
C58 C57 1.376 . S
C58 C59 1.396 . S
C59 C41 1.472 1_655 S
C59 C58 1.396 . S
C59 C60 1.348 . S
C60 H23 0.929 . S
C60 C59 1.348 . S
C60 C61 1.443 . S
C61 H25 0.932 . S
C61 C56 1.388 . S
C61 C60 1.443 . S
H62 C89 0.929 . S
N63 C88 1.433 . S
N63 C94 1.435 . S
N63 C100 1.423 . S
H64 C90 0.930 . S
H65 C93 0.931 . S
H66 C92 0.929 . S
H67 C95 0.930 . S
H68 C96 0.932 . S
H69 C99 0.929 . S
H70 C98 0.931 . S
H71 C101 0.929 . S
H72 C105 0.932 . S
H73 C102 0.931 . S
H74 C104 0.929 1_545 S
H75 C107 0.929 . S
H76 C108 0.930 . S
H77 C110 0.929 . S
H78 C111 0.931 . S
H79 C113 0.930 . S
H80 C114 0.932 . S
H81 C116 0.931 . S
H82 C117 0.929 . S
H83 C119 0.929 . S
H84 C120 0.931 . S
H85 C122 0.929 . S
N86 C106 1.433 . S
N86 C112 1.435 . S
N86 C118 1.423 . S
H87 C123 0.932 . S
C88 N63 1.433 . S
C88 C89 1.363 . S
C88 C93 1.370 . S
C89 H62 0.929 . S
C89 C88 1.363 . S
C89 C90 1.385 . S
C90 H64 0.930 . S
C90 C89 1.385 . S
C90 C91 1.357 . S
C91 C90 1.357 . S
C91 C92 1.406 . S
C92 H66 0.929 . S
C92 C91 1.406 . S
C92 C93 1.391 . S
C93 H65 0.931 . S
C93 C88 1.370 . S
C93 C92 1.391 . S
C94 N63 1.435 . S
C94 C95 1.358 . S
C94 C99 1.371 . S
C95 H67 0.930 . S
C95 C94 1.358 . S
C95 C96 1.405 . S
C96 H68 0.932 . S
C96 C95 1.405 . S
C96 C97 1.383 . S
C97 C96 1.383 . S
C97 C98 1.393 . S
C98 H70 0.931 . S
C98 C97 1.393 . S
C98 C99 1.382 . S
C99 H69 0.929 . S
C99 C94 1.371 . S
C99 C98 1.382 . S
C100 N63 1.423 . S
C100 C101 1.362 . S
C100 C105 1.388 . S
C101 H71 0.929 . S
C101 C100 1.362 . S
C101 C102 1.376 . S
C102 H73 0.931 . S
C102 C101 1.376 . S
C102 C103 1.396 1_565 S
C103 C102 1.396 1_545 S
C103 C104 1.348 1_545 S
C103 C121 1.472 . S
C104 H74 0.929 1_565 S
C104 C103 1.348 1_565 S
C104 C105 1.443 . S
C105 H72 0.932 . S
C105 C100 1.388 . S
C105 C104 1.443 . S
C106 N86 1.433 . S
C106 C107 1.363 . S
C106 C111 1.370 . S
C107 H75 0.929 . S
C107 C106 1.363 . S
C107 C108 1.385 . S
C108 H76 0.930 . S
C108 C107 1.385 . S
C108 C109 1.357 . S
C109 C108 1.357 . S
C109 C110 1.406 . S
C110 H77 0.929 . S
C110 C109 1.406 . S
C110 C111 1.391 . S
C111 H78 0.931 . S
C111 C106 1.370 . S
C111 C110 1.391 . S
C112 N86 1.435 . S
C112 C113 1.358 . S
C112 C117 1.371 . S
C113 H79 0.930 . S
C113 C112 1.358 . S
C113 C114 1.405 . S
C114 H80 0.932 . S
C114 C113 1.405 . S
C114 C115 1.383 . S
C115 C114 1.383 . S
C115 C116 1.393 . S
C116 H81 0.931 . S
C116 C115 1.393 . S
C116 C117 1.382 . S
C117 H82 0.929 . S
C117 C112 1.371 . S
C117 C116 1.382 . S
C118 N86 1.423 . S
C118 C119 1.362 . S
C118 C123 1.388 . S
C119 H83 0.929 . S
C119 C118 1.362 . S
C119 C120 1.376 . S
C120 H84 0.931 . S
C120 C119 1.376 . S
C120 C121 1.396 . S
C121 C103 1.472 . S
C121 C120 1.396 . S
C121 C122 1.348 . S
C122 H85 0.929 . S
C122 C121 1.348 . S
C122 C123 1.443 . S
C123 H87 0.932 . S
C123 C118 1.388 . S
C123 C122 1.443 . S
H124 C151 0.929 . S
N125 C150 1.433 . S
N125 C156 1.435 . S
N125 C162 1.423 . S
H126 C152 0.930 . S
H127 C155 0.931 . S
H128 C154 0.929 . S
H129 C157 0.930 . S
H130 C158 0.932 . S
H131 C161 0.929 . S
H132 C160 0.931 . S
H133 C163 0.929 . S
H134 C167 0.932 . S
H135 C164 0.931 . S
H136 C166 0.929 . S
H137 C169 0.929 . S
H138 C170 0.930 . S
H139 C172 0.929 . S
H140 C173 0.931 . S
H141 C175 0.930 . S
H142 C176 0.932 . S
H143 C178 0.931 . S
H144 C179 0.929 . S
H145 C181 0.929 . S
H146 C182 0.931 . S
H147 C184 0.929 . S
N148 C168 1.433 . S
N148 C174 1.435 . S
N148 C180 1.423 . S
H149 C185 0.932 . S
C150 N125 1.433 . S
C150 C151 1.363 . S
C150 C155 1.370 . S
C151 H124 0.929 . S
C151 C150 1.363 . S
C151 C152 1.385 . S
C152 H126 0.930 . S
C152 C151 1.385 . S
C152 C153 1.357 . S
C153 C152 1.357 . S
C153 C154 1.406 . S
C154 H128 0.929 . S
C154 C153 1.406 . S
C154 C155 1.391 . S
C155 H127 0.931 . S
C155 C150 1.370 . S
C155 C154 1.391 . S
C156 N125 1.435 . S
C156 C157 1.358 . S
C156 C161 1.371 . S
C157 H129 0.930 . S
C157 C156 1.358 . S
C157 C158 1.405 . S
C158 H130 0.932 . S
C158 C157 1.405 . S
C158 C159 1.383 . S
C159 C158 1.383 . S
C159 C160 1.393 . S
C160 H132 0.931 . S
C160 C159 1.393 . S
C160 C161 1.382 . S
C161 H131 0.929 . S
C161 C156 1.371 . S
C161 C160 1.382 . S
C162 N125 1.423 . S
C162 C163 1.362 . S
C162 C167 1.388 . S
C163 H133 0.929 . S
C163 C162 1.362 . S
C163 C164 1.376 . S
C164 H135 0.931 . S
C164 C163 1.376 . S
C164 C165 1.396 . S
C165 C164 1.396 . S
C165 C166 1.348 . S
C165 C183 1.472 . S
C166 H136 0.929 . S
C166 C165 1.348 . S
C166 C167 1.443 . S
C167 H134 0.932 . S
C167 C162 1.388 . S
C167 C166 1.443 . S
C168 N148 1.433 . S
C168 C169 1.363 . S
C168 C173 1.370 . S
C169 H137 0.929 . S
C169 C168 1.363 . S
C169 C170 1.385 . S
C170 H138 0.930 . S
C170 C169 1.385 . S
C170 C171 1.357 . S
C171 C170 1.357 . S
C171 C172 1.406 . S
C172 H139 0.929 . S
C172 C171 1.406 . S
C172 C173 1.391 . S
C173 H140 0.931 . S
C173 C168 1.370 . S
C173 C172 1.391 . S
C174 N148 1.435 . S
C174 C175 1.358 . S
C174 C179 1.371 . S
C175 H141 0.930 . S
C175 C174 1.358 . S
C175 C176 1.405 . S
C176 H142 0.932 . S
C176 C175 1.405 . S
C176 C177 1.383 . S
C177 C176 1.383 . S
C177 C178 1.393 . S
C178 H143 0.931 . S
C178 C177 1.393 . S
C178 C179 1.382 . S
C179 H144 0.929 . S
C179 C174 1.371 . S
C179 C178 1.382 . S
C180 N148 1.423 . S
C180 C181 1.362 . S
C180 C185 1.388 . S
C181 H145 0.929 . S
C181 C180 1.362 . S
C181 C182 1.376 . S
C182 H146 0.931 . S
C182 C181 1.376 . S
C182 C183 1.396 . S
C183 C165 1.472 . S
C183 C182 1.396 . S
C183 C184 1.348 . S
C184 H147 0.929 . S
C184 C183 1.348 . S
C184 C185 1.443 . S
C185 H149 0.932 . S
C185 C180 1.388 . S
C185 C184 1.443 . S
H186 C213 0.929 . S
N187 C212 1.433 . S
N187 C218 1.435 . S
N187 C224 1.423 . S
H188 C214 0.930 . S
H189 C217 0.931 . S
H190 C216 0.929 . S
H191 C219 0.930 . S
H192 C220 0.932 . S
H193 C223 0.929 . S
H194 C222 0.931 . S
H195 C225 0.929 . S
H196 C229 0.932 . S
H197 C226 0.931 . S
H198 C228 0.929 . S
H199 C231 0.929 . S
H200 C232 0.930 . S
H201 C234 0.929 . S
H202 C235 0.931 . S
H203 C237 0.930 . S
H204 C238 0.932 . S
H205 C240 0.931 . S
H206 C241 0.929 . S
H207 C243 0.929 . S
H208 C244 0.931 . S
H209 C246 0.929 . S
N210 C230 1.433 . S
N210 C236 1.435 . S
N210 C242 1.423 . S
H211 C247 0.932 . S
C212 N187 1.433 . S
C212 C213 1.363 . S
C212 C217 1.370 . S
C213 H186 0.929 . S
C213 C212 1.363 . S
C213 C214 1.385 . S
C214 H188 0.930 . S
C214 C213 1.385 . S
C214 C215 1.357 . S
C215 C214 1.357 . S
C215 C216 1.406 . S
C216 H190 0.929 . S
C216 C215 1.406 . S
C216 C217 1.391 . S
C217 H189 0.931 . S
C217 C212 1.370 . S
C217 C216 1.391 . S
C218 N187 1.435 . S
C218 C219 1.358 . S
C218 C223 1.371 . S
C219 H191 0.930 . S
C219 C218 1.358 . S
C219 C220 1.405 . S
C220 H192 0.932 . S
C220 C219 1.405 . S
C220 C221 1.383 . S
C221 C220 1.383 . S
C221 C222 1.393 . S
C222 H194 0.931 . S
C222 C221 1.393 . S
C222 C223 1.382 . S
C223 H193 0.929 . S
C223 C218 1.371 . S
C223 C222 1.382 . S
C224 N187 1.423 . S
C224 C225 1.362 . S
C224 C229 1.388 . S
C225 H195 0.929 . S
C225 C224 1.362 . S
C225 C226 1.376 . S
C226 H197 0.931 . S
C226 C225 1.376 . S
C226 C227 1.396 . S
C227 C226 1.396 . S
C227 C228 1.348 . S
C227 C245 1.472 1_455 S
C228 H198 0.929 . S
C228 C227 1.348 . S
C228 C229 1.443 . S
C229 H196 0.932 . S
C229 C224 1.388 . S
C229 C228 1.443 . S
C230 N210 1.433 . S
C230 C231 1.363 . S
C230 C235 1.370 . S
C231 H199 0.929 . S
C231 C230 1.363 . S
C231 C232 1.385 . S
C232 H200 0.930 . S
C232 C231 1.385 . S
C232 C233 1.357 . S
C233 C232 1.357 . S
C233 C234 1.406 . S
C234 H201 0.929 . S
C234 C233 1.406 . S
C234 C235 1.391 . S
C235 H202 0.931 . S
C235 C230 1.370 . S
C235 C234 1.391 . S
C236 N210 1.435 . S
C236 C237 1.358 . S
C236 C241 1.371 . S
C237 H203 0.930 . S
C237 C236 1.358 . S
C237 C238 1.405 . S
C238 H204 0.932 . S
C238 C237 1.405 . S
C238 C239 1.383 . S
C239 C238 1.383 . S
C239 C240 1.393 . S
C240 H205 0.931 . S
C240 C239 1.393 . S
C240 C241 1.382 . S
C241 H206 0.929 . S
C241 C236 1.371 . S
C241 C240 1.382 . S
C242 N210 1.423 . S
C242 C243 1.362 . S
C242 C247 1.388 . S
C243 H207 0.929 . S
C243 C242 1.362 . S
C243 C244 1.376 . S
C244 H208 0.931 . S
C244 C243 1.376 . S
C244 C245 1.396 . S
C245 C227 1.472 1_655 S
C245 C244 1.396 . S
C245 C246 1.348 . S
C246 H209 0.929 . S
C246 C245 1.348 . S
C246 C247 1.443 . S
C247 H211 0.932 . S
C247 C242 1.388 . S
C247 C246 1.443 . S
H248 C275 0.929 . S
N249 C274 1.433 . S
N249 C280 1.435 . S
N249 C286 1.423 . S
H250 C276 0.930 . S
H251 C279 0.931 . S
H252 C278 0.929 . S
H253 C281 0.930 . S
H254 C282 0.932 . S
H255 C285 0.929 . S
H256 C284 0.931 . S
H257 C287 0.929 . S
H258 C291 0.932 . S
H259 C288 0.931 . S
H260 C290 0.929 . S
H261 C293 0.929 . S
H262 C294 0.930 . S
H263 C296 0.929 . S
H264 C297 0.931 . S
H265 C299 0.930 . S
H266 C300 0.932 . S
H267 C302 0.931 . S
H268 C303 0.929 . S
H269 C305 0.929 . S
H270 C306 0.936 . S
H271 C308 0.929 . S
N272 C292 1.433 . S
N272 C298 1.435 1_554 S
N272 C304 1.413 1_554 S
H273 C309 0.932 . S
C274 N249 1.433 . S
C274 C275 1.363 . S
C274 C279 1.370 . S
C275 H248 0.929 . S
C275 C274 1.363 . S
C275 C276 1.385 . S
C276 H250 0.930 . S
C276 C275 1.385 . S
C276 C277 1.357 1_556 S
C277 C276 1.357 1_554 S
C277 C278 1.406 . S
C278 H252 0.929 . S
C278 C277 1.406 . S
C278 C279 1.391 1_554 S
C279 H251 0.931 . S
C279 C274 1.370 . S
C279 C278 1.391 1_556 S
C280 N249 1.435 . S
C280 C281 1.358 . S
C280 C285 1.371 . S
C281 H253 0.930 . S
C281 C280 1.358 . S
C281 C282 1.405 . S
C282 H254 0.932 . S
C282 C281 1.405 . S
C282 C283 1.383 . S
C283 C282 1.383 . S
C283 C284 1.393 . S
C284 H256 0.931 . S
C284 C283 1.393 . S
C284 C285 1.382 . S
C285 H255 0.929 . S
C285 C280 1.371 . S
C285 C284 1.382 . S
C286 N249 1.423 . S
C286 C287 1.362 . S
C286 C291 1.388 . S
C287 H257 0.929 . S
C287 C286 1.362 . S
C287 C288 1.376 . S
C288 H259 0.931 . S
C288 C287 1.376 . S
C288 C289 1.396 . S
C289 C288 1.396 . S
C289 C290 1.348 . S
C289 C307 1.472 1_545 S
C290 H260 0.929 . S
C290 C289 1.348 . S
C290 C291 1.443 . S
C291 H258 0.932 . S
C291 C286 1.388 . S
C291 C290 1.443 . S
C292 N272 1.433 . S
C292 C293 1.363 . S
C292 C297 1.370 . S
C293 H261 0.929 . S
C293 C292 1.363 . S
C293 C294 1.385 . S
C294 H262 0.930 . S
C294 C293 1.385 . S
C294 C295 1.357 . S
C295 C294 1.357 . S
C295 C296 1.406 . S
C296 H263 0.929 . S
C296 C295 1.406 . S
C296 C297 1.391 . S
C297 H264 0.931 . S
C297 C292 1.370 . S
C297 C296 1.391 . S
C298 N272 1.435 1_556 S
C298 C299 1.358 1_556 S
C298 C303 1.371 . S
C299 H265 0.930 . S
C299 C298 1.358 1_554 S
C299 C300 1.405 1_554 S
C300 H266 0.932 . S
C300 C299 1.405 1_556 S
C300 C301 1.383 . S
C301 C300 1.383 . S
C301 C302 1.393 . S
C302 H267 0.931 . S
C302 C301 1.393 . S
C302 C303 1.382 . S
C303 H268 0.929 . S
C303 C298 1.371 . S
C303 C302 1.382 . S
C304 N272 1.413 1_556 S
C304 C305 1.352 1_556 S
C304 C309 1.410 . S
C305 H269 0.929 . S
C305 C304 1.352 1_554 S
C305 C306 1.381 . S
C306 H270 0.936 . S
C306 C305 1.381 . S
C306 C307 1.386 1_554 S
C307 C289 1.472 1_565 S
C307 C306 1.386 1_556 S
C307 C308 1.348 . S
C308 H271 0.929 . S
C308 C307 1.348 . S
C308 C309 1.443 . S
C309 H273 0.932 . S
C309 C304 1.410 . S
C309 C308 1.443 . S
H310 C337 0.929 . S
N311 C336 1.433 . S
N311 C342 1.435 . S
N311 C348 1.423 . S
H312 C338 0.930 . S
H313 C341 0.931 . S
H314 C340 0.929 . S
H315 C343 0.930 . S
H316 C344 0.932 . S
H317 C347 0.929 . S
H318 C346 0.931 . S
H319 C349 0.929 . S
H320 C353 0.932 . S
H321 C350 0.931 . S
H322 C352 0.929 . S
H323 C355 0.929 . S
H324 C356 0.930 . S
H325 C358 0.929 . S
H326 C359 0.931 . S
H327 C361 0.930 . S
H328 C362 0.932 . S
H329 C364 0.931 . S
H330 C365 0.929 . S
H331 C367 0.929 . S
H332 C368 0.931 . S
H333 C370 0.929 . S
N334 C354 1.433 . S
N334 C360 1.435 . S
N334 C366 1.423 . S
H335 C371 0.932 . S
C336 N311 1.433 . S
C336 C337 1.363 . S
C336 C341 1.370 . S
C337 H310 0.929 . S
C337 C336 1.363 . S
C337 C338 1.385 . S
C338 H312 0.930 . S
C338 C337 1.385 . S
C338 C339 1.357 . S
C339 C338 1.357 . S
C339 C340 1.406 . S
C340 H314 0.929 . S
C340 C339 1.406 . S
C340 C341 1.391 . S
C341 H313 0.931 . S
C341 C336 1.370 . S
C341 C340 1.391 . S
C342 N311 1.435 . S
C342 C343 1.358 . S
C342 C347 1.371 . S
C343 H315 0.930 . S
C343 C342 1.358 . S
C343 C344 1.405 . S
C344 H316 0.932 . S
C344 C343 1.405 . S
C344 C345 1.383 . S
C345 C344 1.383 . S
C345 C346 1.393 . S
C346 H318 0.931 . S
C346 C345 1.393 . S
C346 C347 1.382 . S
C347 H317 0.929 . S
C347 C342 1.371 . S
C347 C346 1.382 . S
C348 N311 1.423 . S
C348 C349 1.362 . S
C348 C353 1.388 . S
C349 H319 0.929 . S
C349 C348 1.362 . S
C349 C350 1.376 . S
C350 H321 0.931 . S
C350 C349 1.376 . S
C350 C351 1.396 . S
C351 C350 1.396 . S
C351 C352 1.348 . S
C351 C369 1.472 . S
C352 H322 0.929 . S
C352 C351 1.348 . S
C352 C353 1.443 . S
C353 H320 0.932 . S
C353 C348 1.388 . S
C353 C352 1.443 . S
C354 N334 1.433 . S
C354 C355 1.363 . S
C354 C359 1.370 . S
C355 H323 0.929 . S
C355 C354 1.363 . S
C355 C356 1.385 1_554 S
C356 H324 0.930 . S
C356 C355 1.385 1_556 S
C356 C357 1.357 . S
C357 C356 1.357 . S
C357 C358 1.406 . S
C358 H325 0.929 . S
C358 C357 1.406 . S
C358 C359 1.391 1_556 S
C359 H326 0.931 . S
C359 C354 1.370 . S
C359 C358 1.391 1_554 S
C360 N334 1.435 . S
C360 C361 1.358 . S
C360 C365 1.371 . S
C361 H327 0.930 . S
C361 C360 1.358 . S
C361 C362 1.405 . S
C362 H328 0.932 . S
C362 C361 1.405 . S
C362 C363 1.383 . S
C363 C362 1.383 . S
C363 C364 1.393 . S
C364 H329 0.931 . S
C364 C363 1.393 . S
C364 C365 1.382 . S
C365 H330 0.929 . S
C365 C360 1.371 . S
C365 C364 1.382 . S
C366 N334 1.423 . S
C366 C367 1.362 . S
C366 C371 1.388 . S
C367 H331 0.929 . S
C367 C366 1.362 . S
C367 C368 1.376 . S
C368 H332 0.931 . S
C368 C367 1.376 . S
C368 C369 1.396 . S
C369 C351 1.472 . S
C369 C368 1.396 . S
C369 C370 1.348 . S
C370 H333 0.929 . S
C370 C369 1.348 . S
C370 C371 1.443 . S
C371 H335 0.932 . S
C371 C366 1.388 . S
C371 C370 1.443 . S
Co372 O373 2.216 . S
Co372 O374 2.091 . S
Co372 O376 2.004 . S
Co372 O382 2.021 . S
Co372 O384 2.137 . S
Co372 O385 2.244 . S
O373 Co372 2.216 . S
O373 C380 1.247 . S
O374 Co372 2.091 . S
O374 C380 1.261 . S
C375 O384 1.247 . S
C375 O385 1.272 . S
O376 Co372 2.004 . S
O376 C381 1.259 . S
Co377 O378 2.061 . S
Co377 O383 2.052 . S
Co377 O385 2.135 . S
O378 Co377 2.061 . S
O378 C381 1.235 . S
C379 O382 1.238 . S
C379 O383 1.241 . S
C380 O373 1.247 . S
C380 O374 1.261 . S
C381 O376 1.259 . S
C381 O378 1.235 . S
O382 Co372 2.021 . S
O382 C379 1.238 . S
O383 Co377 2.052 . S
O383 C379 1.241 . S
O384 Co372 2.137 . S
O384 C375 1.247 . S
O385 Co372 2.244 . S
O385 C375 1.272 . S
O385 Co377 2.135 . S
Co386 O387 2.216 . S
Co386 O388 2.091 . S
Co386 O390 2.004 . S
Co386 O396 2.021 . S
Co386 O398 2.137 . S
Co386 O399 2.244 . S
O387 Co386 2.216 . S
O387 C394 1.247 . S
O388 Co386 2.091 . S
O388 C394 1.261 . S
C389 O398 1.247 . S
C389 O399 1.272 . S
O390 Co386 2.004 . S
O390 C395 1.259 . S
Co391 O392 2.061 . S
Co391 O397 2.052 . S
Co391 O399 2.135 . S
O392 Co391 2.061 . S
O392 C395 1.235 . S
C393 O396 1.238 . S
C393 O397 1.241 . S
C394 O387 1.247 . S
C394 O388 1.261 . S
C395 O390 1.259 . S
C395 O392 1.235 . S
O396 Co386 2.021 . S
O396 C393 1.238 . S
O397 Co391 2.052 . S
O397 C393 1.241 . S
O398 Co386 2.137 . S
O398 C389 1.247 . S
O399 Co386 2.244 . S
O399 C389 1.272 . S
O399 Co391 2.135 . S
Co400 O401 2.216 . S
Co400 O402 2.091 . S
Co400 O404 2.004 . S
Co400 O410 2.021 . S
Co400 O412 2.137 . S
Co400 O413 2.244 . S
O401 Co400 2.216 . S
O401 C408 1.247 . S
O402 Co400 2.091 . S
O402 C408 1.261 . S
C403 O412 1.247 . S
C403 O413 1.272 . S
O404 Co400 2.004 . S
O404 C409 1.259 . S
Co405 O406 2.061 . S
Co405 O411 2.052 . S
Co405 O413 2.135 . S
O406 Co405 2.061 . S
O406 C409 1.235 . S
C407 O410 1.238 . S
C407 O411 1.241 . S
C408 O401 1.247 . S
C408 O402 1.261 . S
C409 O404 1.259 . S
C409 O406 1.235 . S
O410 Co400 2.021 . S
O410 C407 1.238 . S
O411 Co405 2.052 . S
O411 C407 1.241 . S
O412 Co400 2.137 . S
O412 C403 1.247 . S
O413 Co400 2.244 . S
O413 C403 1.272 . S
O413 Co405 2.135 . S
Co414 O415 2.216 . S
Co414 O416 2.091 . S
Co414 O418 2.004 . S
Co414 O424 2.021 . S
Co414 O426 2.137 . S
Co414 O427 2.244 . S
O415 Co414 2.216 . S
O415 C422 1.247 . S
O416 Co414 2.091 . S
O416 C422 1.261 . S
C417 O426 1.247 . S
C417 O427 1.272 . S
O418 Co414 2.004 . S
O418 C423 1.259 . S
Co419 O420 2.061 . S
Co419 O425 2.052 . S
Co419 O427 2.135 . S
O420 Co419 2.061 . S
O420 C423 1.235 . S
C421 O424 1.238 . S
C421 O425 1.241 . S
C422 O415 1.247 . S
C422 O416 1.261 . S
C423 O418 1.259 . S
C423 O420 1.235 . S
O424 Co414 2.021 . S
O424 C421 1.238 . S
O425 Co419 2.052 . S
O425 C421 1.241 . S
O426 Co414 2.137 . S
O426 C417 1.247 . S
O427 Co414 2.244 . S
O427 C417 1.272 . S
O427 Co419 2.135 . S
Co428 O429 2.216 . S
Co428 O430 2.091 . S
Co428 O432 1.990 1_554 S
Co428 O438 2.021 . S
Co428 O440 2.137 . S
Co428 O441 2.244 . S
O429 Co428 2.216 . S
O429 C436 1.247 . S
O430 Co428 2.091 . S
O430 C436 1.261 . S
C431 O440 1.247 . S
C431 O441 1.272 . S
O432 Co428 1.990 1_556 S
O432 C437 1.262 . S
Co433 O434 2.061 . S
Co433 O439 2.052 . S
Co433 O441 2.135 . S
O434 Co433 2.061 . S
O434 C437 1.235 1_554 S
C435 O438 1.238 . S
C435 O439 1.241 . S
C436 O429 1.247 . S
C436 O430 1.261 . S
C437 O432 1.262 . S
C437 O434 1.235 1_556 S
O438 Co428 2.021 . S
O438 C435 1.238 . S
O439 Co433 2.052 . S
O439 C435 1.241 . S
O440 Co428 2.137 . S
O440 C431 1.247 . S
O441 Co428 2.244 . S
O441 C431 1.272 . S
O441 Co433 2.135 . S
Co442 O443 2.216 . S
Co442 O444 2.091 . S
Co442 O446 2.004 . S
Co442 O452 2.021 . S
Co442 O454 2.137 . S
Co442 O455 2.244 . S
O443 Co442 2.216 . S
O443 C450 1.247 . S
O444 Co442 2.091 . S
O444 C450 1.261 . S
C445 O454 1.247 . S
C445 O455 1.272 . S
O446 Co442 2.004 . S
O446 C451 1.259 . S
Co447 O448 2.061 . S
Co447 O453 2.052 . S
Co447 O455 2.135 . S
O448 Co447 2.061 . S
O448 C451 1.235 . S
C449 O452 1.238 . S
C449 O453 1.241 . S
C450 O443 1.247 . S
C450 O444 1.261 . S
C451 O446 1.259 . S
C451 O448 1.235 . S
O452 Co442 2.021 . S
O452 C449 1.238 . S
O453 Co447 2.052 . S
O453 C449 1.241 . S
O454 Co442 2.137 . S
O454 C445 1.247 . S
O455 Co442 2.244 . S
O455 C445 1.272 . S
O455 Co447 2.135 . S
C445 C29 1.945 . S
C115 C375 1.954 . S
C153 C394 1.888 . S
C239 C403 1.988 . S
C417 C301 1.960 . S
C339 C436 2.327 . S
C91 C389 1.695 . S
C177 C408 2.051 . S
C215 C422 2.008 . S
C431 C277 2.175 . S
C450 C363 2.034 . S
C380 C53 2.154 . S
C35 C395 1.780 . S
C109 C407 1.346 . S
C421 C159 1.790 . S
C233 C437 1.720 . S
C449 C295 1.471 . S
C379 C345 1.863 . S
C451 C97 1.778 . S
C171 C381 1.429 . S
C393 C221 1.816 . S
C283 C409 1.793 . S
C357 C423 1.368 . S
C47 C435 1.732 . S
