# Generated by pormake.
# Topology eea, (3,6)-cn, num edge types: 1
# Building blocks:
#     Node 0, Type 0, BuildingBlock: VETTIZ_charged_linker_0, # of connection points: 3
#     Node 1, Type 0, BuildingBlock: VETTIZ_charged_linker_0, # of connection points: 3
#     Node 2, Type 0, BuildingBlock: VETTIZ_charged_linker_0, # of connection points: 3
#     Node 3, Type 0, BuildingBlock: VETTIZ_charged_linker_0, # of connection points: 3
#     Node 4, Type 0, BuildingBlock: VETTIZ_charged_linker_0, # of connection points: 3
#     Node 5, Type 0, BuildingBlock: VETTIZ_charged_linker_0, # of connection points: 3
#     Node 6, Type 0, BuildingBlock: VETTIZ_charged_linker_0, # of connection points: 3
#     Node 7, Type 0, BuildingBlock: VETTIZ_charged_linker_0, # of connection points: 3
#     Node 8, Type 0, BuildingBlock: VETTIZ_charged_linker_0, # of connection points: 3
#     Node 9, Type 0, BuildingBlock: VETTIZ_charged_linker_0, # of connection points: 3
#     Node 10, Type 0, BuildingBlock: VETTIZ_charged_linker_0, # of connection points: 3
#     Node 11, Type 0, BuildingBlock: VETTIZ_charged_linker_0, # of connection points: 3
#     Node 12, Type 0, BuildingBlock: VETTIZ_charged_linker_0, # of connection points: 3
#     Node 13, Type 0, BuildingBlock: VETTIZ_charged_linker_0, # of connection points: 3
#     Node 14, Type 0, BuildingBlock: VETTIZ_charged_linker_0, # of connection points: 3
#     Node 15, Type 0, BuildingBlock: VETTIZ_charged_linker_0, # of connection points: 3
#     Node 16, Type 0, BuildingBlock: VETTIZ_charged_linker_0, # of connection points: 3
#     Node 17, Type 0, BuildingBlock: VETTIZ_charged_linker_0, # of connection points: 3
#     Node 18, Type 1, BuildingBlock: CUWYAW_clean_sbu_0, # of connection points: 6
#     Node 19, Type 1, BuildingBlock: CUWYAW_clean_sbu_0, # of connection points: 6
#     Node 20, Type 1, BuildingBlock: CUWYAW_clean_sbu_0, # of connection points: 6
#     Node 21, Type 1, BuildingBlock: CUWYAW_clean_sbu_0, # of connection points: 6
#     Node 22, Type 1, BuildingBlock: CUWYAW_clean_sbu_0, # of connection points: 6
#     Node 23, Type 1, BuildingBlock: CUWYAW_clean_sbu_0, # of connection points: 6
#     Node 24, Type 1, BuildingBlock: CUWYAW_clean_sbu_0, # of connection points: 6
#     Node 25, Type 1, BuildingBlock: CUWYAW_clean_sbu_0, # of connection points: 6
#     Node 26, Type 1, BuildingBlock: CUWYAW_clean_sbu_0, # of connection points: 6
#     Edge 27, Type (0, 1), BuildingBlock: ZUJKAS_clean_linker_0, # of connection points: 2
#     Edge 28, Type (0, 1), BuildingBlock: ZUJKAS_clean_linker_0, # of connection points: 2
#     Edge 29, Type (0, 1), BuildingBlock: ZUJKAS_clean_linker_0, # of connection points: 2
#     Edge 30, Type (0, 1), BuildingBlock: ZUJKAS_clean_linker_0, # of connection points: 2
#     Edge 31, Type (0, 1), BuildingBlock: ZUJKAS_clean_linker_0, # of connection points: 2
#     Edge 32, Type (0, 1), BuildingBlock: ZUJKAS_clean_linker_0, # of connection points: 2
#     Edge 33, Type (0, 1), BuildingBlock: ZUJKAS_clean_linker_0, # of connection points: 2
#     Edge 34, Type (0, 1), BuildingBlock: ZUJKAS_clean_linker_0, # of connection points: 2
#     Edge 35, Type (0, 1), BuildingBlock: ZUJKAS_clean_linker_0, # of connection points: 2
#     Edge 36, Type (0, 1), BuildingBlock: ZUJKAS_clean_linker_0, # of connection points: 2
#     Edge 37, Type (0, 1), BuildingBlock: ZUJKAS_clean_linker_0, # of connection points: 2
#     Edge 38, Type (0, 1), BuildingBlock: ZUJKAS_clean_linker_0, # of connection points: 2
#     Edge 39, Type (0, 1), BuildingBlock: ZUJKAS_clean_linker_0, # of connection points: 2
#     Edge 40, Type (0, 1), BuildingBlock: ZUJKAS_clean_linker_0, # of connection points: 2
#     Edge 41, Type (0, 1), BuildingBlock: ZUJKAS_clean_linker_0, # of connection points: 2
#     Edge 42, Type (0, 1), BuildingBlock: ZUJKAS_clean_linker_0, # of connection points: 2
#     Edge 43, Type (0, 1), BuildingBlock: ZUJKAS_clean_linker_0, # of connection points: 2
#     Edge 44, Type (0, 1), BuildingBlock: ZUJKAS_clean_linker_0, # of connection points: 2
#     Edge 45, Type (0, 1), BuildingBlock: ZUJKAS_clean_linker_0, # of connection points: 2
#     Edge 46, Type (0, 1), BuildingBlock: ZUJKAS_clean_linker_0, # of connection points: 2
#     Edge 47, Type (0, 1), BuildingBlock: ZUJKAS_clean_linker_0, # of connection points: 2
#     Edge 48, Type (0, 1), BuildingBlock: ZUJKAS_clean_linker_0, # of connection points: 2
#     Edge 49, Type (0, 1), BuildingBlock: ZUJKAS_clean_linker_0, # of connection points: 2
#     Edge 50, Type (0, 1), BuildingBlock: ZUJKAS_clean_linker_0, # of connection points: 2
#     Edge 51, Type (0, 1), BuildingBlock: ZUJKAS_clean_linker_0, # of connection points: 2
#     Edge 52, Type (0, 1), BuildingBlock: ZUJKAS_clean_linker_0, # of connection points: 2
#     Edge 53, Type (0, 1), BuildingBlock: ZUJKAS_clean_linker_0, # of connection points: 2
#     Edge 54, Type (0, 1), BuildingBlock: ZUJKAS_clean_linker_0, # of connection points: 2
#     Edge 55, Type (0, 1), BuildingBlock: ZUJKAS_clean_linker_0, # of connection points: 2
#     Edge 56, Type (0, 1), BuildingBlock: ZUJKAS_clean_linker_0, # of connection points: 2
#     Edge 57, Type (0, 1), BuildingBlock: ZUJKAS_clean_linker_0, # of connection points: 2
#     Edge 58, Type (0, 1), BuildingBlock: ZUJKAS_clean_linker_0, # of connection points: 2
#     Edge 59, Type (0, 1), BuildingBlock: ZUJKAS_clean_linker_0, # of connection points: 2
#     Edge 60, Type (0, 1), BuildingBlock: ZUJKAS_clean_linker_0, # of connection points: 2
#     Edge 61, Type (0, 1), BuildingBlock: ZUJKAS_clean_linker_0, # of connection points: 2
#     Edge 62, Type (0, 1), BuildingBlock: ZUJKAS_clean_linker_0, # of connection points: 2
#     Edge 63, Type (0, 1), BuildingBlock: ZUJKAS_clean_linker_0, # of connection points: 2
#     Edge 64, Type (0, 1), BuildingBlock: ZUJKAS_clean_linker_0, # of connection points: 2
#     Edge 65, Type (0, 1), BuildingBlock: ZUJKAS_clean_linker_0, # of connection points: 2
#     Edge 66, Type (0, 1), BuildingBlock: ZUJKAS_clean_linker_0, # of connection points: 2
#     Edge 67, Type (0, 1), BuildingBlock: ZUJKAS_clean_linker_0, # of connection points: 2
#     Edge 68, Type (0, 1), BuildingBlock: ZUJKAS_clean_linker_0, # of connection points: 2
#     Edge 69, Type (0, 1), BuildingBlock: ZUJKAS_clean_linker_0, # of connection points: 2
#     Edge 70, Type (0, 1), BuildingBlock: ZUJKAS_clean_linker_0, # of connection points: 2
#     Edge 71, Type (0, 1), BuildingBlock: ZUJKAS_clean_linker_0, # of connection points: 2
#     Edge 72, Type (0, 1), BuildingBlock: ZUJKAS_clean_linker_0, # of connection points: 2
#     Edge 73, Type (0, 1), BuildingBlock: ZUJKAS_clean_linker_0, # of connection points: 2
#     Edge 74, Type (0, 1), BuildingBlock: ZUJKAS_clean_linker_0, # of connection points: 2
#     Edge 75, Type (0, 1), BuildingBlock: ZUJKAS_clean_linker_0, # of connection points: 2
#     Edge 76, Type (0, 1), BuildingBlock: ZUJKAS_clean_linker_0, # of connection points: 2
#     Edge 77, Type (0, 1), BuildingBlock: ZUJKAS_clean_linker_0, # of connection points: 2
#     Edge 78, Type (0, 1), BuildingBlock: ZUJKAS_clean_linker_0, # of connection points: 2
#     Edge 79, Type (0, 1), BuildingBlock: ZUJKAS_clean_linker_0, # of connection points: 2
#     Edge 80, Type (0, 1), BuildingBlock: ZUJKAS_clean_linker_0, # of connection points: 2
# Relax obj value: 0.035
# Max RMSD: 0.136
# Mean RMSD: 0.066
data_MOF--net-eea--node1-CUWYAW_clean_sbu_0--node2-VETTIZ_charged_linker_0--edge1-ZUJKAS_clean_linker_0
_symmetry_space_group_name_H-M    P1
_symmetry_Int_Tables_number       1
_symmetry_cell_setting            triclinic
loop_
_symmetry_equiv_pos_as_xyz
'x, y, z'
_cell_length_a     77.46887
_cell_length_b     77.281203
_cell_length_c     108.61554
_cell_angle_alpha  93.433947
_cell_angle_beta   93.399126
_cell_angle_gamma 119.83689
loop_
_atom_site_label
_atom_site_type_symbol
_atom_site_fract_x
_atom_site_fract_y
_atom_site_fract_z
_atom_type_partial_charge
C0 C 0.24961 0.18049 0.38927 0.0
C1 C 0.2529 0.19891 0.39485 0.0
C2 C 0.2636 0.20627 0.40672 0.0
C3 C 0.26656 0.17657 0.40748 0.0
C4 C 0.25657 0.16964 0.39571 0.0
C5 C 0.25391 0.1496 0.39122 0.0
H6 H 0.26538 0.0706 0.40252 0.0
C7 C 0.27105 0.16133 0.41181 0.0
C8 C 0.26383 0.14556 0.40227 0.0
H9 H 0.23609 0.07815 0.36978 0.0
H10 H 0.24483 0.11117 0.37849 0.0
H11 H 0.30358 0.11643 0.40693 0.0
H12 H 0.24618 0.0863 0.42108 0.0
H13 H 0.26311 0.10291 0.43339 0.0
H14 H 0.26648 0.08299 0.42669 0.0
H15 H 0.29724 0.09782 0.41763 0.0
H16 H 0.30729 0.12392 0.42294 0.0
C17 C 0.26537 0.15218 0.37962 0.0
C18 C 0.23116 0.13427 0.38895 0.0
C19 C 0.30144 0.16972 0.45603 0.0
C20 C 0.30585 0.15734 0.46296 0.0
C21 C 0.30354 0.13952 0.45693 0.0
C22 C 0.29641 0.13383 0.44436 0.0
C23 C 0.29131 0.14596 0.4377 0.0
C24 C 0.29415 0.16373 0.44349 0.0
C25 C 0.28765 0.17456 0.435 0.0
C26 C 0.28007 0.16015 0.42325 0.0
C27 C 0.28221 0.14342 0.4249 0.0
C28 C 0.30628 0.19488 0.43319 0.0
C29 C 0.27065 0.17639 0.44066 0.0
C30 C 0.26076 0.07929 0.39721 0.0
C31 C 0.25001 0.0716 0.3854 0.0
C32 C 0.24464 0.0837 0.3788 0.0
C33 C 0.24956 0.10286 0.38393 0.0
C34 C 0.2598 0.11004 0.39588 0.0
C35 C 0.26531 0.09834 0.40228 0.0
C36 C 0.27538 0.10804 0.41505 0.0
C37 C 0.27512 0.12756 0.41523 0.0
C38 C 0.26599 0.12865 0.40397 0.0
C39 C 0.29699 0.11169 0.41581 0.0
C40 C 0.26232 0.09442 0.42462 0.0
H41 H 0.27828 0.20151 0.42211 0.0
H42 H 0.24171 0.17456 0.38009 0.0
H43 H 0.22281 0.13776 0.39572 0.0
H44 H 0.22747 0.11879 0.39028 0.0
H45 H 0.22499 0.13449 0.3795 0.0
H46 H 0.27955 0.16688 0.38064 0.0
H47 H 0.25629 0.15162 0.37114 0.0
H48 H 0.27001 0.14089 0.37814 0.0
H49 H 0.30332 0.18366 0.4603 0.0
H50 H 0.30658 0.12955 0.46203 0.0
H51 H 0.29469 0.11995 0.44038 0.0
H52 H 0.32002 0.19366 0.43354 0.0
H53 H 0.3088 0.20674 0.44056 0.0
H54 H 0.30529 0.19997 0.42401 0.0
H55 H 0.26053 0.16248 0.44484 0.0
H56 H 0.26083 0.17823 0.43374 0.0
H57 H 0.27679 0.1891 0.44807 0.0
H58 H 0.26621 0.22035 0.41126 0.0
C59 C 0.27047 0.19523 0.41304 0.0
C60 C 0.93581 0.17883 0.39815 0.0
C61 C 0.95086 0.19691 0.4047 0.0
C62 C 0.94825 0.20203 0.41686 0.0
C63 C 0.91638 0.1711 0.41583 0.0
C64 C 0.91881 0.16626 0.40385 0.0
C65 C 0.9017 0.14635 0.39822 0.0
H66 H 0.81533 0.06151 0.4047 0.0
C67 C 0.89731 0.1545 0.41911 0.0
C68 C 0.8886 0.14001 0.4088 0.0
H69 H 0.84841 0.07701 0.37255 0.0
H70 H 0.87241 0.10931 0.38322 0.0
H71 H 0.85306 0.07878 0.42461 0.0
H72 H 0.81861 0.10447 0.41069 0.0
H73 H 0.82493 0.11259 0.4266 0.0
H74 H 0.80966 0.08611 0.4216 0.0
H75 H 0.82812 0.0708 0.4284 0.0
H76 H 0.84964 0.09143 0.43735 0.0
C77 C 0.91006 0.1322 0.39526 0.0
C78 C 0.89135 0.14998 0.38682 0.0
C79 C 0.8768 0.15578 0.46267 0.0
C80 C 0.86034 0.14207 0.4685 0.0
C81 C 0.84512 0.12457 0.46144 0.0
C82 C 0.84651 0.12049 0.44892 0.0
C83 C 0.86332 0.13399 0.44334 0.0
C84 C 0.87797 0.15144 0.45013 0.0
C85 C 0.89469 0.16407 0.44257 0.0
C86 C 0.88775 0.15117 0.4302 0.0
C87 C 0.86943 0.13352 0.43075 0.0
C88 C 0.91429 0.16615 0.44872 0.0
C89 C 0.89522 0.18425 0.4416 0.0
C90 C 0.82758 0.07196 0.39989 0.0
C91 C 0.83001 0.06662 0.38778 0.0
C92 C 0.84635 0.08062 0.38194 0.0
C93 C 0.86024 0.09942 0.38814 0.0
C94 C 0.85789 0.10433 0.40036 0.0
C95 C 0.84164 0.09079 0.40597 0.0
C96 C 0.84162 0.0985 0.41901 0.0
C97 C 0.86063 0.11885 0.42033 0.0
C98 C 0.87012 0.12214 0.4094 0.0
C99 C 0.84304 0.08417 0.42789 0.0
C100 C 0.8227 0.10044 0.41963 0.0
H101 H 0.93006 0.19397 0.43172 0.0
H102 H 0.93741 0.17427 0.38886 0.0
H103 H 0.89164 0.16449 0.38841 0.0
H104 H 0.87532 0.13859 0.38489 0.0
H105 H 0.89899 0.15051 0.3784 0.0
H106 H 0.92227 0.13499 0.40243 0.0
H107 H 0.91629 0.13456 0.38616 0.0
H108 H 0.89884 0.11619 0.3953 0.0
H109 H 0.8888 0.16932 0.46782 0.0
H110 H 0.83207 0.11396 0.46561 0.0
H111 H 0.8345 0.10683 0.44412 0.0
H112 H 0.91141 0.15185 0.4523 0.0
H113 H 0.92086 0.17803 0.45666 0.0
H114 H 0.92566 0.16936 0.4422 0.0
H115 H 0.87987 0.18208 0.44117 0.0
H116 H 0.90114 0.19105 0.43304 0.0
H117 H 0.90416 0.19517 0.44976 0.0
H118 H 0.95946 0.21598 0.42206 0.0
C119 C 0.93111 0.18926 0.42244 0.0
C120 C 0.94045 0.76609 0.40372 0.0
C121 C 0.95558 0.76309 0.40914 0.0
C122 C 0.95344 0.75563 0.42083 0.0
C123 C 0.92183 0.75484 0.42161 0.0
C124 C 0.92382 0.76192 0.41009 0.0
C125 C 0.90671 0.76479 0.40574 0.0
H126 H 0.82067 0.7625 0.41708 0.0
C127 C 0.90308 0.75259 0.42586 0.0
C128 C 0.89417 0.7584 0.41657 0.0
H129 H 0.85236 0.78005 0.38448 0.0
H130 H 0.87702 0.77253 0.39312 0.0
H131 H 0.82492 0.72377 0.41973 0.0
H132 H 0.85899 0.78462 0.43655 0.0
H133 H 0.85763 0.76936 0.4482 0.0
H134 H 0.83491 0.76707 0.44098 0.0
H135 H 0.81608 0.73352 0.43167 0.0
H136 H 0.8314 0.72259 0.43529 0.0
C137 C 0.89569 0.75051 0.39375 0.0
C138 C 0.91521 0.78733 0.40417 0.0
C139 C 0.88316 0.72969 0.46841 0.0
C140 C 0.86709 0.72726 0.47497 0.0
C141 C 0.85239 0.73065 0.46923 0.0
C142 C 0.85377 0.73666 0.45726 0.0
C143 C 0.87009 0.73942 0.45091 0.0
C144 C 0.88439 0.73585 0.45644 0.0
C145 C 0.9008 0.7399 0.44828 0.0
C146 C 0.89392 0.74644 0.43698 0.0
C147 C 0.87593 0.74612 0.43861 0.0
C148 C 0.90067 0.72001 0.44518 0.0
C149 C 0.92075 0.75708 0.45507 0.0
C150 C 0.833 0.76487 0.41183 0.0
C151 C 0.8346 0.77198 0.4001 0.0
C152 C 0.85068 0.77445 0.39349 0.0
C153 C 0.86506 0.77018 0.39856 0.0
C154 C 0.86339 0.76336 0.41039 0.0
C155 C 0.84746 0.76067 0.41676 0.0
C156 C 0.84798 0.75323 0.42916 0.0
C157 C 0.86694 0.75201 0.42924 0.0
C158 C 0.87594 0.75801 0.41825 0.0
C159 C 0.8291 0.73225 0.42909 0.0
C160 C 0.84983 0.76922 0.43932 0.0
H161 H 0.93593 0.74587 0.43595 0.0
H162 H 0.94172 0.77204 0.39483 0.0
H163 H 0.92764 0.7969 0.41151 0.0
H164 H 0.90414 0.7922 0.40517 0.0
H165 H 0.9212 0.79097 0.39505 0.0
H166 H 0.89569 0.73615 0.39415 0.0
H167 H 0.90304 0.75735 0.38545 0.0
H168 H 0.87972 0.74606 0.39236 0.0
H169 H 0.89475 0.72731 0.4726 0.0
H170 H 0.8397 0.72856 0.474 0.0
H171 H 0.84212 0.73904 0.45347 0.0
H172 H 0.88508 0.7071 0.44376 0.0
H173 H 0.90881 0.71716 0.45282 0.0
H174 H 0.90712 0.71959 0.43645 0.0
H175 H 0.91829 0.76829 0.4604 0.0
H176 H 0.93178 0.76576 0.44868 0.0
H177 H 0.92756 0.75124 0.46172 0.0
H178 H 0.96473 0.75293 0.42514 0.0
C179 C 0.93665 0.75146 0.42707 0.0
C180 C 0.15845 0.22947 0.5966 0.0
C181 C 0.17576 0.2323 0.59139 0.0
C182 C 0.1797 0.24015 0.57984 0.0
C183 C 0.14924 0.24186 0.5788 0.0
C184 C 0.14546 0.23432 0.59017 0.0
C185 C 0.12623 0.23187 0.59429 0.0
H186 H 0.04358 0.23974 0.58309 0.0
C187 C 0.13268 0.24509 0.57451 0.0
C188 C 0.11917 0.23931 0.58355 0.0
H189 H 0.05991 0.21708 0.61446 0.0
H190 H 0.09042 0.22371 0.60599 0.0
H191 H 0.08821 0.27782 0.58133 0.0
H192 H 0.05646 0.21785 0.56265 0.0
H193 H 0.06871 0.23443 0.55162 0.0
H194 H 0.0498 0.23643 0.55944 0.0
H195 H 0.06752 0.26974 0.5697 0.0
H196 H 0.09273 0.27938 0.56565 0.0
C197 C 0.13133 0.24565 0.60651 0.0
C198 C 0.11186 0.20928 0.59534 0.0
C199 C 0.13213 0.27053 0.53258 0.0
C200 C 0.11886 0.2749 0.52595 0.0
C201 C 0.10206 0.27297 0.5315 0.0
C202 C 0.09832 0.26636 0.54333 0.0
C203 C 0.11154 0.26164 0.54971 0.0
C204 C 0.12823 0.26401 0.54436 0.0
C205 C 0.14084 0.25863 0.55252 0.0
C206 C 0.12881 0.25231 0.56358 0.0
C207 C 0.11161 0.25402 0.56189 0.0
C208 C 0.16157 0.27775 0.556 0.0
C209 C 0.14153 0.24091 0.54557 0.0
C210 C 0.05386 0.23641 0.58816 0.0
C211 C 0.04933 0.22783 0.59944 0.0
C212 C 0.06296 0.22346 0.60569 0.0
C213 C 0.08072 0.2274 0.60078 0.0
C214 C 0.08493 0.23571 0.58942 0.0
C215 C 0.07162 0.24009 0.5833 0.0
C216 C 0.07839 0.24834 0.57117 0.0
C217 C 0.09793 0.24821 0.57105 0.0
C218 C 0.10169 0.24085 0.58179 0.0
C219 C 0.0818 0.26991 0.57187 0.0
C220 C 0.06255 0.23368 0.5606 0.0
H221 H 0.17044 0.25086 0.56479 0.0
H222 H 0.15484 0.22324 0.60538 0.0
H223 H 0.11436 0.19973 0.58843 0.0
H224 H 0.09594 0.20473 0.59327 0.0
H225 H 0.11413 0.20519 0.60469 0.0
H226 H 0.14545 0.26012 0.60623 0.0
H227 H 0.1334 0.23848 0.61459 0.0
H228 H 0.11993 0.24987 0.60818 0.0
H229 H 0.14538 0.27222 0.52868 0.0
H230 H 0.09157 0.27618 0.52657 0.0
H231 H 0.08519 0.265 0.547 0.0
H232 H 0.16021 0.29144 0.55676 0.0
H233 H 0.17191 0.27959 0.54887 0.0
H234 H 0.16866 0.27792 0.56517 0.0
H235 H 0.12688 0.23033 0.5402 0.0
H236 H 0.14434 0.23167 0.55185 0.0
H237 H 0.15307 0.24631 0.53893 0.0
H238 H 0.19306 0.24274 0.5757 0.0
C239 C 0.16658 0.24497 0.57354 0.0
C240 C 0.74994 0.8197 0.60996 0.0
C241 C 0.74813 0.8027 0.6032 0.0
C242 C 0.74063 0.79835 0.59059 0.0
C243 C 0.73723 0.82792 0.59159 0.0
C244 C 0.74455 0.83212 0.60398 0.0
C245 C 0.74667 0.85141 0.60963 0.0
H246 H 0.74187 0.93521 0.60214 0.0
C247 C 0.73356 0.84411 0.58813 0.0
C248 C 0.73908 0.85793 0.59865 0.0
H249 H 0.7631 0.91982 0.63511 0.0
H250 H 0.75428 0.8877 0.62457 0.0
H251 H 0.76106 0.9186 0.58293 0.0
H252 H 0.70228 0.89208 0.59531 0.0
H253 H 0.69897 0.88314 0.57961 0.0
H254 H 0.70977 0.90971 0.58395 0.0
H255 H 0.74368 0.92698 0.57923 0.0
H256 H 0.7434 0.90686 0.56984 0.0
C257 C 0.76915 0.86615 0.6138 0.0
C258 C 0.73287 0.84653 0.6202 0.0
C259 C 0.70806 0.84321 0.54376 0.0
C260 C 0.70334 0.8562 0.53776 0.0
C261 C 0.70469 0.87283 0.54483 0.0
C262 C 0.7112 0.87681 0.55752 0.0
C263 C 0.71644 0.86404 0.56328 0.0
C264 C 0.71444 0.84734 0.55647 0.0
C265 C 0.72021 0.83517 0.56422 0.0
C266 C 0.72623 0.84746 0.57676 0.0
C267 C 0.72421 0.86447 0.57611 0.0
C268 C 0.73817 0.83483 0.55887 0.0
C269 C 0.70145 0.81422 0.5644 0.0
C270 C 0.74434 0.9248 0.60715 0.0
C271 C 0.75334 0.93014 0.61945 0.0
C272 C 0.75649 0.91621 0.62558 0.0
C273 C 0.75132 0.89754 0.61944 0.0
C274 C 0.74302 0.89274 0.60701 0.0
C275 C 0.73937 0.90614 0.60113 0.0
C276 C 0.73064 0.89858 0.58787 0.0
C277 C 0.7301 0.87863 0.58668 0.0
C278 C 0.73739 0.87532 0.59791 0.0
C279 C 0.74529 0.91349 0.57944 0.0
C280 C 0.70936 0.89582 0.5865 0.0
H281 H 0.72952 0.80672 0.57513 0.0
H282 H 0.75599 0.82361 0.61962 0.0
H283 H 0.71849 0.83229 0.61756 0.0
H284 H 0.72858 0.85796 0.62226 0.0
H285 H 0.74002 0.84473 0.62882 0.0
H286 H 0.77882 0.86356 0.60766 0.0
H287 H 0.77325 0.86429 0.62341 0.0
H288 H 0.77353 0.882 0.61321 0.0
H289 H 0.70734 0.83036 0.53864 0.0
H290 H 0.70072 0.88284 0.54055 0.0
H291 H 0.7121 0.8898 0.56233 0.0
H292 H 0.74823 0.84933 0.55524 0.0
H293 H 0.73302 0.82278 0.5511 0.0
H294 H 0.74785 0.83297 0.5659 0.0
H295 H 0.6877 0.81536 0.56452 0.0
H296 H 0.70182 0.80698 0.5728 0.0
H297 H 0.69944 0.80409 0.55607 0.0
H298 H 0.73902 0.78525 0.58523 0.0
C299 C 0.73507 0.8108 0.58476 0.0
C300 C 0.06214 0.8238 0.60255 0.0
C301 C 0.04638 0.80575 0.59638 0.0
C302 C 0.04845 0.79946 0.58437 0.0
C303 C 0.08129 0.82902 0.58484 0.0
C304 C 0.07931 0.83514 0.59663 0.0
C305 C 0.09714 0.85489 0.60181 0.0
H306 H 0.18768 0.93378 0.59427 0.0
C307 C 0.10087 0.84433 0.58131 0.0
C308 C 0.11025 0.85951 0.59124 0.0
H309 H 0.15251 0.92547 0.62522 0.0
H310 H 0.12733 0.89293 0.61555 0.0
H311 H 0.1796 0.88861 0.59021 0.0
H312 H 0.15121 0.91859 0.57377 0.0
H313 H 0.15266 0.9033 0.56177 0.0
H314 H 0.17537 0.92315 0.57024 0.0
H315 H 0.19089 0.90629 0.57911 0.0
H316 H 0.17389 0.88 0.57435 0.0
C317 C 0.10685 0.85148 0.6136 0.0
C318 C 0.09006 0.8703 0.60401 0.0
C319 C 0.12146 0.83681 0.53858 0.0
C320 C 0.13868 0.84874 0.53272 0.0
C321 C 0.1546 0.86614 0.53946 0.0
C322 C 0.15327 0.87178 0.5517 0.0
C323 C 0.13579 0.86 0.55731 0.0
C324 C 0.12037 0.84268 0.55084 0.0
C325 C 0.10309 0.83189 0.55842 0.0
C326 C 0.11056 0.84582 0.57039 0.0
C327 C 0.12966 0.86231 0.56964 0.0
C328 C 0.10072 0.81114 0.56036 0.0
C329 C 0.0844 0.83096 0.55168 0.0
C330 C 0.17453 0.92504 0.59897 0.0
C331 C 0.1722 0.93236 0.61056 0.0
C332 C 0.15493 0.9202 0.61638 0.0
C333 C 0.14017 0.90133 0.61068 0.0
C334 C 0.14252 0.89451 0.59896 0.0
C335 C 0.15953 0.90628 0.59333 0.0
C336 C 0.15921 0.89695 0.58071 0.0
C337 C 0.13913 0.87768 0.57966 0.0
C338 C 0.12946 0.8763 0.59039 0.0
C339 C 0.17685 0.89282 0.58098 0.0
C340 C 0.15977 0.91117 0.57105 0.0
H341 H 0.06637 0.80538 0.56943 0.0
H342 H 0.06121 0.82901 0.61184 0.0
H343 H 0.0772 0.86691 0.59719 0.0
H344 H 0.10162 0.88575 0.60267 0.0
H345 H 0.08517 0.87013 0.61343 0.0
H346 H 0.10675 0.83704 0.61226 0.0
H347 H 0.09857 0.8509 0.62172 0.0
H348 H 0.12274 0.86304 0.61591 0.0
H349 H 0.10907 0.82322 0.53372 0.0
H350 H 0.16795 0.87572 0.53515 0.0
H351 H 0.16582 0.8853 0.55624 0.0
H352 H 0.11553 0.81203 0.56127 0.0
H353 H 0.09146 0.79988 0.55241 0.0
H354 H 0.09418 0.80544 0.56903 0.0
H355 H 0.08857 0.84509 0.54743 0.0
H356 H 0.07318 0.82947 0.55798 0.0
H357 H 0.07718 0.81841 0.54415 0.0
H358 H 0.03648 0.78579 0.57931 0.0
C359 C 0.06579 0.81094 0.57859 0.0
C360 C 0.91637 0.5138 0.72316 0.0
C361 C 0.9218 0.53288 0.72892 0.0
C362 C 0.93337 0.53943 0.74055 0.0
C363 C 0.93251 0.50769 0.74085 0.0
C364 C 0.922 0.50161 0.72922 0.0
C365 C 0.91747 0.48098 0.72436 0.0
H366 H 0.91911 0.39617 0.73421 0.0
C367 C 0.93503 0.49109 0.74486 0.0
C368 C 0.9265 0.47549 0.73517 0.0
H369 H 0.89649 0.40962 0.70095 0.0
H370 H 0.90658 0.44261 0.71064 0.0
H371 H 0.96014 0.43973 0.73965 0.0
H372 H 0.90203 0.41473 0.75286 0.0
H373 H 0.91945 0.42952 0.76551 0.0
H374 H 0.92009 0.40817 0.7584 0.0
H375 H 0.95136 0.42059 0.75007 0.0
H376 H 0.96375 0.44683 0.7557 0.0
C377 C 0.92846 0.48281 0.71261 0.0
C378 C 0.89444 0.46723 0.72219 0.0
C379 C 0.96329 0.49531 0.78905 0.0
C380 C 0.9656 0.48152 0.79584 0.0
C381 C 0.96115 0.46296 0.78965 0.0
C382 C 0.95403 0.45803 0.77705 0.0
C383 C 0.95114 0.47169 0.77052 0.0
C384 C 0.95598 0.49007 0.77649 0.0
C385 C 0.95158 0.50255 0.76815 0.0
C386 C 0.943 0.48848 0.75625 0.0
C387 C 0.94277 0.47044 0.7577 0.0
C388 C 0.97157 0.52175 0.76659 0.0
C389 C 0.93583 0.50652 0.77383 0.0
C390 C 0.91657 0.40631 0.72895 0.0
C391 C 0.90694 0.40024 0.7168 0.0
C392 C 0.90363 0.41382 0.71037 0.0
C393 C 0.90961 0.43303 0.71599 0.0
C394 C 0.91896 0.43876 0.7282 0.0
C395 C 0.92242 0.42554 0.73443 0.0
C396 C 0.93235 0.43413 0.74738 0.0
C397 C 0.9345 0.45479 0.74783 0.0
C398 C 0.92651 0.45736 0.7366 0.0
C399 C 0.95295 0.43532 0.74838 0.0
C400 C 0.91792 0.42099 0.75659 0.0
H401 H 0.94731 0.53275 0.75541 0.0
H402 H 0.90746 0.50816 0.71426 0.0
H403 H 0.88714 0.47044 0.72981 0.0
H404 H 0.88952 0.45115 0.72213 0.0
H405 H 0.88837 0.46964 0.71335 0.0
H406 H 0.94251 0.49757 0.71311 0.0
H407 H 0.91896 0.48143 0.70411 0.0
H408 H 0.93335 0.47164 0.7115 0.0
H409 H 0.96684 0.50981 0.79345 0.0
H410 H 0.96254 0.45193 0.79464 0.0
H411 H 0.95065 0.44358 0.77294 0.0
H412 H 0.98434 0.51896 0.76736 0.0
H413 H 0.97484 0.53409 0.7738 0.0
H414 H 0.97177 0.52699 0.75731 0.0
H415 H 0.92415 0.49276 0.77745 0.0
H416 H 0.92763 0.51059 0.76708 0.0
H417 H 0.9429 0.51856 0.78168 0.0
H418 H 0.93829 0.55423 0.74508 0.0
C419 C 0.93872 0.52696 0.74653 0.0
C420 C 0.60347 0.51123 0.73207 0.0
C421 C 0.61853 0.52951 0.73841 0.0
C422 C 0.61573 0.53533 0.75035 0.0
C423 C 0.58358 0.50476 0.74949 0.0
C424 C 0.58623 0.49919 0.73774 0.0
C425 C 0.56901 0.47921 0.7323 0.0
H426 H 0.48082 0.3965 0.73896 0.0
C427 C 0.56421 0.48864 0.7528 0.0
C428 C 0.55559 0.47367 0.74272 0.0
H429 H 0.51504 0.40935 0.70731 0.0
H430 H 0.53959 0.44169 0.7177 0.0
H431 H 0.51742 0.41303 0.75927 0.0
H432 H 0.48581 0.44058 0.74378 0.0
H433 H 0.49124 0.44863 0.75971 0.0
H434 H 0.47554 0.42224 0.75463 0.0
H435 H 0.4929 0.40688 0.76307 0.0
H436 H 0.51519 0.42731 0.77158 0.0
C437 C 0.57705 0.46462 0.73003 0.0
C438 C 0.55918 0.48249 0.7205 0.0
C439 C 0.54191 0.49324 0.79545 0.0
C440 C 0.52496 0.48023 0.8012 0.0
C441 C 0.51004 0.46225 0.79438 0.0
C442 C 0.51201 0.45722 0.78217 0.0
C443 C 0.52914 0.47019 0.77663 0.0
C444 C 0.54367 0.48794 0.7832 0.0
C445 C 0.56084 0.49982 0.77575 0.0
C446 C 0.55426 0.48616 0.76369 0.0
C447 C 0.53571 0.46881 0.7643 0.0
C448 C 0.58006 0.50196 0.78257 0.0
C449 C 0.5618 0.51999 0.77392 0.0
C450 C 0.49344 0.40638 0.73419 0.0
C451 C 0.496 0.40029 0.7223 0.0
C452 C 0.51285 0.41354 0.71653 0.0
C453 C 0.52706 0.43237 0.72257 0.0
C454 C 0.5245 0.43806 0.73455 0.0
C455 C 0.5078 0.42521 0.74011 0.0
C456 C 0.50761 0.43367 0.75289 0.0
C457 C 0.52699 0.45368 0.75412 0.0
C458 C 0.53684 0.45614 0.74338 0.0
C459 C 0.50816 0.41953 0.76226 0.0
C460 C 0.48906 0.43635 0.75288 0.0
H461 H 0.59714 0.52836 0.765 0.0
H462 H 0.60521 0.50614 0.72296 0.0
H463 H 0.55968 0.49715 0.72164 0.0
H464 H 0.54313 0.47123 0.71847 0.0
H465 H 0.56706 0.48248 0.71228 0.0
H466 H 0.58897 0.46751 0.73746 0.0
H467 H 0.58358 0.46641 0.72104 0.0
H468 H 0.56556 0.44875 0.73027 0.0
H469 H 0.55356 0.50725 0.80036 0.0
H470 H 0.49699 0.45178 0.7986 0.0
H471 H 0.50021 0.44325 0.77757 0.0
H472 H 0.57675 0.48795 0.78672 0.0
H473 H 0.58652 0.51438 0.79018 0.0
H474 H 0.59165 0.50442 0.77634 0.0
H475 H 0.54652 0.51799 0.77283 0.0
H476 H 0.56843 0.52628 0.7654 0.0
H477 H 0.5703 0.53125 0.78201 0.0
H478 H 0.62694 0.54946 0.75538 0.0
C479 C 0.59835 0.52309 0.7559 0.0
C480 C 0.60559 0.09846 0.73627 0.0
C481 C 0.62086 0.09565 0.74165 0.0
C482 C 0.61901 0.08847 0.75342 0.0
C483 C 0.58728 0.08739 0.7543 0.0
C484 C 0.58904 0.09429 0.74273 0.0
C485 C 0.57178 0.09695 0.73842 0.0
H486 H 0.48525 0.09346 0.74998 0.0
C487 C 0.56847 0.0849 0.75858 0.0
C488 C 0.55932 0.09046 0.74929 0.0
H489 H 0.51707 0.11202 0.71749 0.0
H490 H 0.54189 0.1046 0.72598 0.0
H491 H 0.48945 0.05517 0.75222 0.0
H492 H 0.52411 0.11557 0.76968 0.0
H493 H 0.52143 0.09962 0.78117 0.0
H494 H 0.49946 0.09821 0.77344 0.0
H495 H 0.48116 0.06418 0.76485 0.0
H496 H 0.49682 0.05328 0.76743 0.0
C497 C 0.56077 0.0826 0.72646 0.0
C498 C 0.58005 0.11945 0.73684 0.0
C499 C 0.54895 0.06182 0.80115 0.0
C500 C 0.5325 0.05854 0.80759 0.0
C501 C 0.51731 0.06109 0.80169 0.0
C502 C 0.51864 0.06721 0.78976 0.0
C503 C 0.53534 0.07086 0.78356 0.0
C504 C 0.55005 0.06796 0.78918 0.0
C505 C 0.56656 0.07239 0.78104 0.0
C506 C 0.55936 0.07857 0.76969 0.0
C507 C 0.54112 0.07772 0.77129 0.0
C508 C 0.56704 0.0528 0.77802 0.0
C509 C 0.58629 0.08996 0.7878 0.0
C510 C 0.49765 0.09608 0.74473 0.0
C511 C 0.49924 0.10345 0.73308 0.0
C512 C 0.5154 0.10622 0.72645 0.0
C513 C 0.52988 0.10202 0.73143 0.0
C514 C 0.52823 0.09497 0.74319 0.0
C515 C 0.51222 0.09197 0.74957 0.0
C516 C 0.51279 0.08434 0.7619 0.0
C517 C 0.53192 0.08345 0.76194 0.0
C518 C 0.54093 0.08972 0.75099 0.0
C519 C 0.49408 0.06321 0.76172 0.0
C520 C 0.5144 0.10008 0.77215 0.0
H521 H 0.6018 0.07891 0.76867 0.0
H522 H 0.60666 0.10422 0.72733 0.0
H523 H 0.5927 0.12913 0.74403 0.0
H524 H 0.56896 0.12424 0.73807 0.0
H525 H 0.58567 0.12306 0.72762 0.0
H526 H 0.56065 0.0682 0.72695 0.0
H527 H 0.56822 0.08934 0.71817 0.0
H528 H 0.54484 0.07827 0.72499 0.0
H529 H 0.5609 0.06005 0.80541 0.0
H530 H 0.50425 0.05822 0.8063 0.0
H531 H 0.50661 0.06894 0.78587 0.0
H532 H 0.55164 0.03955 0.77689 0.0
H533 H 0.57576 0.0505 0.78559 0.0
H534 H 0.57317 0.05235 0.76917 0.0
H535 H 0.58349 0.10111 0.79288 0.0
H536 H 0.59735 0.09856 0.78141 0.0
H537 H 0.5932 0.0845 0.79466 0.0
H538 H 0.63044 0.08595 0.75771 0.0
C539 C 0.60231 0.0843 0.75975 0.0
C540 C 0.82752 0.56567 0.9308 0.0
C541 C 0.84447 0.56788 0.92537 0.0
C542 C 0.84801 0.57512 0.91364 0.0
C543 C 0.81783 0.57732 0.91282 0.0
C544 C 0.81447 0.57045 0.92438 0.0
C545 C 0.79557 0.56858 0.92872 0.0
H546 H 0.71228 0.57523 0.91732 0.0
C547 C 0.80122 0.58049 0.90855 0.0
C548 C 0.78814 0.57543 0.91783 0.0
H549 H 0.73075 0.55646 0.94985 0.0
H550 H 0.76095 0.56267 0.94116 0.0
H551 H 0.75563 0.61292 0.91456 0.0
H552 H 0.72522 0.55204 0.89736 0.0
H553 H 0.73635 0.56809 0.88586 0.0
H554 H 0.71742 0.5697 0.89389 0.0
H555 H 0.73524 0.60393 0.9026 0.0
H556 H 0.7607 0.61375 0.89899 0.0
C557 C 0.80131 0.5831 0.94067 0.0
C558 C 0.78116 0.54622 0.93034 0.0
C559 C 0.79925 0.60367 0.86602 0.0
C560 C 0.78578 0.60774 0.85935 0.0
C561 C 0.76901 0.60581 0.86494 0.0
C562 C 0.76556 0.59961 0.87687 0.0
C563 C 0.77904 0.59533 0.88334 0.0
C564 C 0.79563 0.59756 0.87792 0.0
C565 C 0.80852 0.59263 0.88616 0.0
C566 C 0.79689 0.58693 0.89742 0.0
C567 C 0.77958 0.58844 0.89571 0.0
C568 C 0.82928 0.61186 0.88923 0.0
C569 C 0.80905 0.57461 0.87951 0.0
C570 C 0.72279 0.57235 0.92253 0.0
C571 C 0.71907 0.56532 0.9343 0.0
C572 C 0.73332 0.56209 0.94084 0.0
C573 C 0.75082 0.56557 0.93574 0.0
C574 C 0.7542 0.57234 0.92392 0.0
C575 C 0.74038 0.57577 0.91756 0.0
C576 C 0.7466 0.5831 0.90515 0.0
C577 C 0.76628 0.58327 0.90507 0.0
C578 C 0.77061 0.57689 0.91609 0.0
C579 C 0.7496 0.60448 0.90519 0.0
C580 C 0.73059 0.56759 0.89496 0.0
H581 H 0.83837 0.58527 0.89845 0.0
H582 H 0.82423 0.55995 0.93975 0.0
H583 H 0.7825 0.53623 0.92312 0.0
H584 H 0.76525 0.54199 0.92919 0.0
H585 H 0.78458 0.54243 0.93953 0.0
H586 H 0.81591 0.59701 0.94026 0.0
H587 H 0.80272 0.57606 0.949 0.0
H588 H 0.79059 0.58837 0.94199 0.0
H589 H 0.81247 0.60535 0.86209 0.0
H590 H 0.75835 0.60876 0.85998 0.0
H591 H 0.75246 0.59827 0.88057 0.0
H592 H 0.82785 0.62551 0.88991 0.0
H593 H 0.83928 0.61345 0.88193 0.0
H594 H 0.8368 0.61238 0.89833 0.0
H595 H 0.79435 0.56392 0.87423 0.0
H596 H 0.8118 0.56556 0.88598 0.0
H597 H 0.82053 0.57966 0.87284 0.0
H598 H 0.86109 0.57726 0.90932 0.0
C599 C 0.83483 0.57987 0.90735 0.0
C600 C 0.4179 0.1542 0.94403 0.0
C601 C 0.41439 0.13578 0.93828 0.0
C602 C 0.4039 0.12888 0.92633 0.0
C603 C 0.40143 0.1589 0.92589 0.0
C604 C 0.41129 0.16543 0.93771 0.0
C605 C 0.41416 0.18547 0.94243 0.0
H606 H 0.40329 0.26519 0.93234 0.0
C607 C 0.39711 0.17438 0.9218 0.0
C608 C 0.40439 0.18991 0.9315 0.0
H609 H 0.433 0.25685 0.96456 0.0
H610 H 0.42389 0.22388 0.95553 0.0
H611 H 0.42206 0.24944 0.91327 0.0
H612 H 0.36502 0.21983 0.92789 0.0
H613 H 0.36082 0.21196 0.91193 0.0
H614 H 0.37105 0.23817 0.91705 0.0
H615 H 0.402 0.25351 0.90826 0.0
H616 H 0.40463 0.23349 0.90094 0.0
C617 C 0.43695 0.2006 0.94478 0.0
C618 C 0.40269 0.1827 0.95404 0.0
C619 C 0.36663 0.16743 0.87774 0.0
C620 C 0.36191 0.17992 0.87117 0.0
C621 C 0.36404 0.19744 0.87753 0.0
C622 C 0.37132 0.20275 0.89009 0.0
C623 C 0.37671 0.19053 0.8964 0.0
C624 C 0.37399 0.17301 0.8903 0.0
C625 C 0.38049 0.16187 0.89854 0.0
C626 C 0.38807 0.17591 0.91047 0.0
C627 C 0.38589 0.1927 0.90912 0.0
C628 C 0.39751 0.16028 0.89274 0.0
C629 C 0.36188 0.14143 0.90014 0.0
C630 C 0.40793 0.25634 0.93747 0.0
C631 C 0.41892 0.2638 0.94923 0.0
C632 C 0.42429 0.2515 0.95559 0.0
C633 C 0.41915 0.23236 0.95026 0.0
C634 C 0.4087 0.22542 0.93837 0.0
C635 C 0.40319 0.23733 0.93221 0.0
C636 C 0.39291 0.2279 0.91943 0.0
C637 C 0.39309 0.20833 0.91896 0.0
C638 C 0.40231 0.20694 0.93008 0.0
C639 C 0.40586 0.24174 0.90991 0.0
C640 C 0.37134 0.22434 0.91892 0.0
H641 H 0.38971 0.13436 0.911 0.0
H642 H 0.42564 0.1598 0.95327 0.0
H643 H 0.38829 0.1682 0.95283 0.0
H644 H 0.39847 0.19426 0.95579 0.0
H645 H 0.41157 0.18265 0.96243 0.0
H646 H 0.4453 0.197 0.93807 0.0
H647 H 0.44298 0.20033 0.95425 0.0
H648 H 0.44082 0.21612 0.94341 0.0
H649 H 0.36489 0.15371 0.87319 0.0
H650 H 0.36073 0.20747 0.8727 0.0
H651 H 0.37289 0.21642 0.89433 0.0
H652 H 0.40783 0.1745 0.88892 0.0
H653 H 0.39139 0.14803 0.88502 0.0
H654 H 0.40708 0.15784 0.8995 0.0
H655 H 0.3481 0.14257 0.89982 0.0
H656 H 0.36279 0.1361 0.90924 0.0
H657 H 0.35948 0.12977 0.89266 0.0
H658 H 0.40113 0.11481 0.92167 0.0
C659 C 0.39739 0.14032 0.92012 0.0
C660 C 0.72919 0.15575 0.93644 0.0
C661 C 0.71337 0.13853 0.92958 0.0
C662 C 0.71568 0.13362 0.91729 0.0
C663 C 0.74877 0.16314 0.91883 0.0
C664 C 0.74658 0.16779 0.93091 0.0
C665 C 0.76436 0.18697 0.93684 0.0
H666 H 0.85331 0.26945 0.9315 0.0
C667 C 0.76846 0.17908 0.91581 0.0
C668 C 0.77765 0.19306 0.92635 0.0
H669 H 0.81943 0.25461 0.96332 0.0
H670 H 0.79466 0.22288 0.95234 0.0
H671 H 0.84844 0.22629 0.92542 0.0
H672 H 0.81607 0.25383 0.91114 0.0
H673 H 0.82008 0.24151 0.89846 0.0
H674 H 0.84125 0.26137 0.90808 0.0
H675 H 0.85779 0.24372 0.914 0.0
H676 H 0.84137 0.21716 0.90969 0.0
C677 C 0.77385 0.18204 0.94806 0.0
C678 C 0.75723 0.20206 0.94013 0.0
C679 C 0.79004 0.17762 0.87252 0.0
C680 C 0.80738 0.19066 0.86709 0.0
C681 C 0.82306 0.20734 0.87452 0.0
C682 C 0.82133 0.21135 0.88697 0.0
C683 C 0.80372 0.19858 0.89215 0.0
C684 C 0.78857 0.18185 0.88503 0.0
C685 C 0.77115 0.16979 0.89228 0.0
C686 C 0.77831 0.18221 0.90483 0.0
C687 C 0.79733 0.19914 0.90463 0.0
C688 C 0.76892 0.14883 0.89297 0.0
C689 C 0.75247 0.16942 0.88599 0.0
C690 C 0.84071 0.25926 0.93617 0.0
C691 C 0.83828 0.26465 0.94828 0.0
C692 C 0.8215 0.25098 0.95394 0.0
C693 C 0.80715 0.23252 0.94755 0.0
C694 C 0.80948 0.22764 0.93532 0.0
C695 C 0.8262 0.24079 0.92991 0.0
C696 C 0.82618 0.23314 0.91684 0.0
C697 C 0.80651 0.21337 0.91524 0.0
C698 C 0.79678 0.21028 0.92606 0.0
C699 C 0.84442 0.23 0.91634 0.0
C700 C 0.82602 0.2482 0.9081 0.0
H701 H 0.73402 0.14134 0.90249 0.0
H702 H 0.72811 0.15986 0.94596 0.0
H703 H 0.74507 0.20001 0.93316 0.0
H704 H 0.76904 0.21785 0.94004 0.0
H705 H 0.75133 0.2 0.94933 0.0
H706 H 0.77294 0.1673 0.94606 0.0
H707 H 0.76601 0.18125 0.95643 0.0
H708 H 0.78997 0.19291 0.9503 0.0
H709 H 0.77769 0.16468 0.8671 0.0
H710 H 0.83678 0.21735 0.8707 0.0
H711 H 0.83374 0.22438 0.89204 0.0
H712 H 0.78383 0.14993 0.89388 0.0
H713 H 0.76028 0.13866 0.88447 0.0
H714 H 0.76178 0.14167 0.90117 0.0
H715 H 0.75659 0.18412 0.88253 0.0
H716 H 0.74111 0.16694 0.8924 0.0
H717 H 0.74544 0.15775 0.87794 0.0
H718 H 0.70368 0.12058 0.91173 0.0
C719 C 0.73327 0.14579 0.9119 0.0
C720 C 0.58439 0.84756 0.05617 0.0
C721 C 0.5889 0.86648 0.06172 0.0
C722 C 0.60004 0.8735 0.07349 0.0
C723 C 0.60068 0.84256 0.07427 0.0
C724 C 0.59056 0.83602 0.06253 0.0
C725 C 0.58713 0.81571 0.05789 0.0
H726 H 0.59265 0.73332 0.06903 0.0
C727 C 0.6041 0.82662 0.07854 0.0
C728 C 0.59648 0.81097 0.06891 0.0
H729 H 0.5692 0.74479 0.0353 0.0
H730 H 0.5782 0.77771 0.04454 0.0
H731 H 0.63255 0.77728 0.07416 0.0
H732 H 0.57433 0.75162 0.08729 0.0
H733 H 0.59183 0.76621 0.09996 0.0
H734 H 0.59254 0.74509 0.09257 0.0
H735 H 0.62471 0.75926 0.08531 0.0
H736 H 0.63616 0.78579 0.08998 0.0
C737 C 0.59855 0.81798 0.0463 0.0
C738 C 0.56425 0.80109 0.05554 0.0
C739 C 0.63131 0.83226 0.12322 0.0
C740 C 0.63467 0.81919 0.13011 0.0
C741 C 0.63193 0.80125 0.12399 0.0
C742 C 0.62532 0.79609 0.11133 0.0
C743 C 0.62128 0.80894 0.10467 0.0
C744 C 0.62464 0.82685 0.11057 0.0
C745 C 0.61961 0.83866 0.10201 0.0
C746 C 0.61217 0.82461 0.09009 0.0
C747 C 0.61309 0.8072 0.09173 0.0
C748 C 0.63906 0.85859 0.10071 0.0
C749 C 0.60282 0.84134 0.10725 0.0
C750 C 0.58971 0.74303 0.06357 0.0
C751 C 0.58012 0.73639 0.05142 0.0
C752 C 0.57631 0.74942 0.04472 0.0
C753 C 0.58164 0.76859 0.05009 0.0
C754 C 0.59082 0.77483 0.06233 0.0
C755 C 0.59489 0.7622 0.0688 0.0
C756 C 0.60451 0.77127 0.08175 0.0
C757 C 0.60569 0.79149 0.08193 0.0
C758 C 0.59753 0.79342 0.07056 0.0
C759 C 0.62555 0.77345 0.08299 0.0
C760 C 0.59025 0.7579 0.09096 0.0
H761 H 0.61415 0.86777 0.08874 0.0
H762 H 0.57581 0.84155 0.04718 0.0
H763 H 0.55641 0.80394 0.06297 0.0
H764 H 0.56004 0.78521 0.05568 0.0
H765 H 0.55808 0.80296 0.04655 0.0
H766 H 0.61224 0.83304 0.04685 0.0
H767 H 0.58908 0.81614 0.03768 0.0
H768 H 0.60411 0.80732 0.04538 0.0
H769 H 0.63359 0.8463 0.1276 0.0
H770 H 0.63425 0.79083 0.12909 0.0
H771 H 0.6232 0.78209 0.10727 0.0
H772 H 0.65251 0.85697 0.10214 0.0
H773 H 0.64103 0.87079 0.10762 0.0
H774 H 0.63953 0.86346 0.0913 0.0
H775 H 0.59127 0.8271 0.11048 0.0
H776 H 0.59467 0.84525 0.10033 0.0
H777 H 0.60893 0.85306 0.11527 0.0
H778 H 0.60427 0.8882 0.07789 0.0
C779 C 0.60591 0.86165 0.07978 0.0
C780 C 0.27071 0.84401 0.06554 0.0
C781 C 0.2858 0.86227 0.07188 0.0
C782 C 0.28316 0.86799 0.08389 0.0
C783 C 0.25111 0.83732 0.08312 0.0
C784 C 0.25359 0.83187 0.07129 0.0
C785 C 0.23639 0.81186 0.06588 0.0
H786 H 0.14766 0.7297 0.07239 0.0
C787 C 0.23187 0.8211 0.0865 0.0
C788 C 0.22316 0.80618 0.0764 0.0
H789 H 0.183 0.74155 0.04126 0.0
H790 H 0.20732 0.77396 0.05152 0.0
H791 H 0.18343 0.74408 0.09235 0.0
H792 H 0.15441 0.77481 0.07799 0.0
H793 H 0.15884 0.78074 0.09417 0.0
H794 H 0.14302 0.75498 0.08779 0.0
H795 H 0.16007 0.73997 0.09722 0.0
H796 H 0.18375 0.75956 0.10492 0.0
C797 C 0.24451 0.79736 0.06342 0.0
C798 C 0.22631 0.81513 0.05421 0.0
C799 C 0.21074 0.82477 0.12964 0.0
C800 C 0.19431 0.81128 0.13557 0.0
C801 C 0.17918 0.79349 0.12874 0.0
C802 C 0.18057 0.78893 0.11631 0.0
C803 C 0.19736 0.80221 0.11061 0.0
C804 C 0.21201 0.81989 0.1172 0.0
C805 C 0.22893 0.83196 0.10963 0.0
C806 C 0.22211 0.81848 0.09749 0.0
C807 C 0.20361 0.8011 0.09814 0.0
C808 C 0.24836 0.83414 0.11615 0.0
C809 C 0.22969 0.85211 0.10807 0.0
C810 C 0.16065 0.73919 0.06777 0.0
C811 C 0.16327 0.7329 0.05594 0.0
C812 C 0.18034 0.74601 0.05026 0.0
C813 C 0.1946 0.76482 0.0563 0.0
C814 C 0.19195 0.77064 0.06822 0.0
C815 C 0.17516 0.75792 0.07373 0.0
C816 C 0.17517 0.76623 0.08661 0.0
C817 C 0.19472 0.78609 0.0879 0.0
C818 C 0.20445 0.78862 0.0771 0.0
C819 C 0.17548 0.75176 0.09582 0.0
C820 C 0.15687 0.76928 0.08677 0.0
H821 H 0.26482 0.86083 0.09867 0.0
H822 H 0.27234 0.839 0.05638 0.0
H823 H 0.22603 0.82936 0.05567 0.0
H824 H 0.21049 0.80335 0.05194 0.0
H825 H 0.23457 0.81606 0.04602 0.0
H826 H 0.25714 0.80079 0.07044 0.0
H827 H 0.25007 0.79859 0.05414 0.0
H828 H 0.23331 0.78155 0.06421 0.0
H829 H 0.22266 0.8385 0.13467 0.0
H830 H 0.16624 0.78302 0.13306 0.0
H831 H 0.16861 0.77509 0.11167 0.0
H832 H 0.24525 0.82011 0.12021 0.0
H833 H 0.255 0.84652 0.12379 0.0
H834 H 0.25976 0.83668 0.10975 0.0
H835 H 0.21436 0.85001 0.10717 0.0
H836 H 0.23612 0.85859 0.09954 0.0
H837 H 0.23828 0.86326 0.1162 0.0
H838 H 0.29441 0.88209 0.08892 0.0
C839 C 0.2659 0.85566 0.08952 0.0
C840 C 0.27481 0.43465 0.07076 0.0
C841 C 0.2895 0.43077 0.07587 0.0
C842 C 0.28697 0.42247 0.0873 0.0
C843 C 0.25564 0.42221 0.08831 0.0
C844 C 0.25812 0.43028 0.07709 0.0
C845 C 0.24135 0.43382 0.07298 0.0
H846 H 0.15364 0.42844 0.08348 0.0
C847 C 0.23676 0.41965 0.0925 0.0
C848 C 0.22833 0.42643 0.08354 0.0
H849 H 0.18853 0.45173 0.05268 0.0
H850 H 0.2132 0.44419 0.06129 0.0
H851 H 0.1594 0.38968 0.08478 0.0
H852 H 0.19006 0.44906 0.10403 0.0
H853 H 0.18904 0.43284 0.11495 0.0
H854 H 0.16607 0.43002 0.10773 0.0
H855 H 0.14855 0.39783 0.09628 0.0
H856 H 0.16401 0.3873 0.10044 0.0
C857 C 0.23067 0.42067 0.06058 0.0
C858 C 0.25022 0.45664 0.07229 0.0
C859 C 0.21452 0.39185 0.13364 0.0
C860 C 0.19781 0.38807 0.13995 0.0
C861 C 0.18324 0.39181 0.13436 0.0
C862 C 0.18529 0.39927 0.12278 0.0
C863 C 0.20213 0.40316 0.11666 0.0
C864 C 0.21636 0.39936 0.12205 0.0
C865 C 0.23327 0.40447 0.11416 0.0
C866 C 0.22693 0.41215 0.10323 0.0
C867 C 0.20868 0.41134 0.10477 0.0
C868 C 0.23342 0.38493 0.11028 0.0
C869 C 0.25286 0.42114 0.1216 0.0
C870 C 0.1665 0.43172 0.07854 0.0
C871 C 0.16914 0.44064 0.06738 0.0
C872 C 0.18627 0.44501 0.06135 0.0
C873 C 0.20053 0.44054 0.06634 0.0
C874 C 0.19773 0.43169 0.07753 0.0
C875 C 0.18097 0.42749 0.08345 0.0
C876 C 0.18077 0.41864 0.09544 0.0
C877 C 0.20011 0.41811 0.09569 0.0
C878 C 0.20993 0.42568 0.08517 0.0
C879 C 0.16219 0.39729 0.09431 0.0
C880 C 0.18137 0.4332 0.10615 0.0
H881 H 0.26907 0.41183 0.10217 0.0
H882 H 0.27642 0.4413 0.06209 0.0
H883 H 0.26323 0.46554 0.07938 0.0
H884 H 0.23956 0.46174 0.07432 0.0
H885 H 0.25545 0.46096 0.06306 0.0
H886 H 0.22965 0.40579 0.06066 0.0
H887 H 0.23897 0.4279 0.05264 0.0
H888 H 0.21507 0.41725 0.05878 0.0
H889 H 0.22589 0.38897 0.1376 0.0
H890 H 0.17038 0.38935 0.13907 0.0
H891 H 0.17373 0.40189 0.11911 0.0
H892 H 0.21791 0.37191 0.1086 0.0
H893 H 0.24159 0.38158 0.11764 0.0
H894 H 0.23998 0.38536 0.10147 0.0
H895 H 0.25008 0.43191 0.12716 0.0
H896 H 0.26438 0.4304 0.11562 0.0
H897 H 0.2592 0.4147 0.12811 0.0
H898 H 0.29795 0.41914 0.09138 0.0
C899 C 0.27013 0.41814 0.09352 0.0
C900 C 0.49259 0.89747 0.26417 0.0
C901 C 0.50954 0.89948 0.25884 0.0
C902 C 0.51329 0.90669 0.2471 0.0
C903 C 0.48331 0.90926 0.2461 0.0
C904 C 0.47974 0.9024 0.25766 0.0
C905 C 0.46085 0.90072 0.26186 0.0
H906 H 0.37827 0.90842 0.24986 0.0
C907 C 0.46691 0.91266 0.24172 0.0
C908 C 0.4537 0.90772 0.25093 0.0
H909 H 0.39565 0.88895 0.28247 0.0
H910 H 0.42601 0.89499 0.27405 0.0
H911 H 0.4218 0.94584 0.24746 0.0
H912 H 0.39125 0.8851 0.23004 0.0
H913 H 0.40267 0.90125 0.21863 0.0
H914 H 0.38372 0.90296 0.22656 0.0
H915 H 0.4018 0.93719 0.23527 0.0
H916 H 0.4274 0.94681 0.23199 0.0
C917 C 0.46654 0.91523 0.27381 0.0
C918 C 0.44622 0.87839 0.26344 0.0
C919 C 0.4658 0.93599 0.19913 0.0
C920 C 0.45259 0.94034 0.19241 0.0
C921 C 0.43592 0.93877 0.19794 0.0
C922 C 0.43228 0.93261 0.20987 0.0
C923 C 0.44547 0.92801 0.21639 0.0
C924 C 0.46201 0.92994 0.21103 0.0
C925 C 0.47463 0.92479 0.21936 0.0
C926 C 0.46286 0.91924 0.23056 0.0
C927 C 0.44574 0.92104 0.22876 0.0
C928 C 0.49551 0.94383 0.22247 0.0
C929 C 0.47493 0.9066 0.21276 0.0
C930 C 0.38856 0.90535 0.25515 0.0
C931 C 0.38449 0.89816 0.26686 0.0
C932 C 0.39849 0.89469 0.27351 0.0
C933 C 0.41607 0.89808 0.26856 0.0
C934 C 0.41978 0.90498 0.25679 0.0
C935 C 0.40622 0.90865 0.25033 0.0
C936 C 0.41273 0.91605 0.23798 0.0
C937 C 0.4323 0.91597 0.23804 0.0
C938 C 0.43632 0.90942 0.24907 0.0
C939 C 0.41601 0.93754 0.23805 0.0
C940 C 0.39679 0.90071 0.22769 0.0
H941 H 0.50402 0.91697 0.23183 0.0
H942 H 0.48915 0.89178 0.27311 0.0
H943 H 0.44761 0.86834 0.25629 0.0
H944 H 0.43036 0.8743 0.26213 0.0
H945 H 0.44938 0.87456 0.27268 0.0
H946 H 0.48113 0.92915 0.27341 0.0
H947 H 0.46793 0.90819 0.28215 0.0
H948 H 0.4558 0.92048 0.27513 0.0
H949 H 0.47894 0.93739 0.19524 0.0
H950 H 0.42548 0.94196 0.19293 0.0
H951 H 0.41925 0.93153 0.21353 0.0
H952 H 0.49432 0.95762 0.22307 0.0
H953 H 0.50557 0.94523 0.21525 0.0
H954 H 0.50284 0.94429 0.23163 0.0
H955 H 0.4602 0.89603 0.20746 0.0
H956 H 0.47751 0.89748 0.21926 0.0
H957 H 0.48644 0.91149 0.2061 0.0
H958 H 0.52638 0.90866 0.24286 0.0
C959 C 0.50032 0.91161 0.24073 0.0
C960 C 0.08026 0.48755 0.28003 0.0
C961 C 0.0779 0.4696 0.27427 0.0
C962 C 0.06935 0.46338 0.26185 0.0
C963 C 0.06711 0.49347 0.2609 0.0
C964 C 0.07481 0.49919 0.2732 0.0
C965 C 0.07711 0.51904 0.27781 0.0
H966 H 0.07657 0.60326 0.26491 0.0
C967 C 0.06425 0.50954 0.25626 0.0
C968 C 0.06997 0.52452 0.26615 0.0
H969 H 0.09145 0.58885 0.30038 0.0
H970 H 0.08272 0.55587 0.29125 0.0
H971 H 0.09706 0.58421 0.24861 0.0
H972 H 0.03666 0.56096 0.2577 0.0
H973 H 0.03491 0.55139 0.24233 0.0
H974 H 0.04673 0.57817 0.24621 0.0
H975 H 0.08086 0.59266 0.24241 0.0
H976 H 0.08113 0.57132 0.235 0.0
C977 C 0.09958 0.53378 0.28194 0.0
C978 C 0.06315 0.5156 0.28817 0.0
C979 C 0.04285 0.50573 0.21053 0.0
C980 C 0.04061 0.51919 0.20338 0.0
C981 C 0.04337 0.53724 0.20932 0.0
C982 C 0.04871 0.54204 0.22211 0.0
C983 C 0.05147 0.52872 0.22909 0.0
C984 C 0.04833 0.51081 0.22332 0.0
C985 C 0.05226 0.49868 0.23222 0.0
C986 C 0.05821 0.51225 0.24427 0.0
C987 C 0.05781 0.52985 0.24234 0.0
C988 C 0.06978 0.49626 0.22799 0.0
C989 C 0.03251 0.47866 0.23267 0.0
C990 C 0.078 0.59299 0.27068 0.0
C991 C 0.08491 0.59868 0.28333 0.0
C992 C 0.08613 0.58476 0.29061 0.0
C993 C 0.08117 0.56568 0.28527 0.0
C994 C 0.07491 0.56045 0.27252 0.0
C995 C 0.073 0.57386 0.26551 0.0
C996 C 0.06555 0.56553 0.2522 0.0
C997 C 0.06365 0.54502 0.25231 0.0
C998 C 0.0694 0.54224 0.26419 0.0
C999 C 0.08183 0.5791 0.24403 0.0
C1000 C 0.04496 0.564 0.24934 0.0
H1001 H 0.0578 0.46979 0.24569 0.0
H1002 H 0.08646 0.49256 0.28962 0.0
H1003 H 0.04964 0.50037 0.28666 0.0
H1004 H 0.05719 0.52597 0.28838 0.0
H1005 H 0.07091 0.517 0.29743 0.0
H1006 H 0.10907 0.53195 0.27528 0.0
H1007 H 0.10396 0.531 0.29121 0.0
H1008 H 0.10371 0.54967 0.28223 0.0
H1009 H 0.04099 0.49181 0.20622 0.0
H1010 H 0.04142 0.54771 0.20403 0.0
H1011 H 0.05073 0.55607 0.22604 0.0
H1012 H 0.08101 0.51007 0.22418 0.0
H1013 H 0.06436 0.48359 0.22062 0.0
H1014 H 0.07829 0.49408 0.23564 0.0
H1015 H 0.0194 0.48093 0.23179 0.0
H1016 H 0.03168 0.47224 0.24158 0.0
H1017 H 0.03034 0.4674 0.22498 0.0
H1018 H 0.06746 0.44967 0.25718 0.0
C1019 C 0.06391 0.47518 0.25516 0.0
C1020 C 0.39573 0.49003 0.27054 0.0
C1021 C 0.37999 0.47258 0.26382 0.0
C1022 C 0.3822 0.46751 0.25154 0.0
C1023 C 0.41493 0.49748 0.25275 0.0
C1024 C 0.41289 0.50221 0.26485 0.0
C1025 C 0.43051 0.52167 0.2706 0.0
H1026 H 0.51823 0.60512 0.26437 0.0
C1027 C 0.43426 0.51373 0.2495 0.0
C1028 C 0.44344 0.52793 0.25994 0.0
H1029 H 0.48566 0.58975 0.29673 0.0
H1030 H 0.4608 0.55794 0.28586 0.0
H1031 H 0.51298 0.56112 0.25762 0.0
H1032 H 0.48108 0.59008 0.24496 0.0
H1033 H 0.48248 0.57658 0.23187 0.0
H1034 H 0.50522 0.5964 0.24036 0.0
H1035 H 0.52281 0.58037 0.24731 0.0
H1036 H 0.50685 0.55428 0.24158 0.0
C1037 C 0.44062 0.51718 0.28172 0.0
C1038 C 0.42297 0.53637 0.27401 0.0
C1039 C 0.45471 0.51225 0.20589 0.0
C1040 C 0.47126 0.52593 0.20011 0.0
C1041 C 0.48646 0.54342 0.20715 0.0
C1042 C 0.4851 0.54747 0.21967 0.0
C1043 C 0.46829 0.53396 0.22526 0.0
C1044 C 0.45351 0.51661 0.21843 0.0
C1045 C 0.43659 0.50423 0.22594 0.0
C1046 C 0.44372 0.51701 0.23836 0.0
C1047 C 0.46228 0.53441 0.23787 0.0
C1048 C 0.43546 0.48378 0.22683 0.0
C1049 C 0.41726 0.50273 0.21979 0.0
C1050 C 0.5059 0.59479 0.26918 0.0
C1051 C 0.50387 0.60003 0.28142 0.0
C1052 C 0.48742 0.58622 0.28725 0.0
C1053 C 0.47302 0.56772 0.28093 0.0
C1054 C 0.47499 0.56294 0.26859 0.0
C1055 C 0.49135 0.57628 0.26298 0.0
C1056 C 0.49093 0.56877 0.24981 0.0
C1057 C 0.47151 0.54879 0.2484 0.0
C1058 C 0.46221 0.54549 0.25941 0.0
C1059 C 0.50937 0.56608 0.24891 0.0
C1060 C 0.49002 0.58369 0.24122 0.0
H1061 H 0.40025 0.47527 0.23659 0.0
H1062 H 0.39473 0.49423 0.28005 0.0
H1063 H 0.41072 0.53415 0.26705 0.0
H1064 H 0.43456 0.55227 0.274 0.0
H1065 H 0.41705 0.53405 0.2832 0.0
H1066 H 0.43987 0.50251 0.27977 0.0
H1067 H 0.43312 0.51651 0.29023 0.0
H1068 H 0.45675 0.52822 0.28368 0.0
H1069 H 0.44273 0.49875 0.20069 0.0
H1070 H 0.4995 0.55402 0.20296 0.0
H1071 H 0.49714 0.5611 0.22447 0.0
H1072 H 0.45072 0.48573 0.22793 0.0
H1073 H 0.42732 0.4734 0.21832 0.0
H1074 H 0.42833 0.47643 0.23499 0.0
H1075 H 0.42062 0.5169 0.21583 0.0
H1076 H 0.40626 0.50057 0.22641 0.0
H1077 H 0.41005 0.49039 0.21212 0.0
H1078 H 0.37027 0.45427 0.24609 0.0
C1079 C 0.39957 0.47983 0.24599 0.0
C1080 C 0.52716 0.01907 0.03606 0.0
Eu1081 Eu 0.51127 0.01036 0.01312 0.0
C1082 C 0.52012 0.01252 0.04815 0.0
C1083 C 0.52729 0.02665 0.0586 0.0
C1084 C 0.52047 0.02083 0.07012 0.0
C1085 C 0.50639 0.00074 0.07138 0.0
C1086 C 0.49922 0.9866 0.06086 0.0
C1087 C 0.50598 0.99245 0.04934 0.0
C1088 C 0.49596 0.02993 0.001 0.0
C1089 C 0.46384 0.97571 0.01167 0.0
C1090 C 0.47088 0.98105 0.96524 0.0
Eu1091 Eu 0.48738 0.98931 0.98801 0.0
C1092 C 0.47766 0.98635 0.95295 0.0
C1093 C 0.49708 0.9913 0.95045 0.0
C1094 C 0.50349 0.99706 0.93883 0.0
C1095 C 0.49061 0.99806 0.92958 0.0
C1096 C 0.47114 0.99297 0.93215 0.0
C1097 C 0.46475 0.98718 0.94374 0.0
C1098 C 0.5029 0.96978 1.00004 0.0
C1099 C 0.53504 0.02368 0.98942 0.0
O1100 O 0.52784 0.00588 0.02827 0.0
O1101 O 0.52006 0.02926 0.0307 0.0
O1102 O 0.51337 0.03897 0.00742 0.0
O1103 O 0.48718 0.01131 0.00174 0.0
O1104 O 0.48161 0.98523 0.01823 0.0
O1105 O 0.46175 0.97707 0.99968 0.0
O1106 O 0.4725 0.99573 0.97279 0.0
O1107 O 0.47627 0.96961 0.97073 0.0
O1108 O 0.4856 0.96065 0.99348 0.0
O1109 O 0.51147 0.9884 0.99936 0.0
O1110 O 0.51736 0.01362 0.98278 0.0
O1111 O 0.53706 0.02306 0.00153 0.0
H1112 H 0.53816 0.04221 0.05786 0.0
H1113 H 0.52644 0.03202 0.07807 0.0
H1114 H 0.48818 0.97106 0.0615 0.0
H1115 H 0.5001 0.98129 0.04136 0.0
H1116 H 0.50732 0.99088 0.9575 0.0
H1117 H 0.51863 0.00109 0.93718 0.0
H1118 H 0.46078 0.99334 0.92517 0.0
H1119 H 0.44973 0.98345 0.94553 0.0
C1120 C 0.99495 0.51906 0.03481 0.0
Eu1121 Eu 0.99527 0.5051 0.01247 0.0
C1122 C 0.99845 0.51537 0.04761 0.0
C1123 C 0.98435 0.51263 0.05594 0.0
C1124 C 0.98724 0.50907 0.06813 0.0
C1125 C 0.00438 0.50833 0.07224 0.0
C1126 C 0.01847 0.51099 0.06388 0.0
C1127 C 0.01549 0.51439 0.05164 0.0
C1128 C 0.97054 0.46688 0.00231 0.0
C1129 C 0.02637 0.48818 0.01217 0.0
C1130 C 0.00631 0.47947 0.9658 0.0
Eu1131 Eu 0.006 0.49422 0.98791 0.0
C1132 C 0.004 0.48284 0.95275 0.0
C1133 C 0.01872 0.48492 0.94509 0.0
C1134 C 0.01676 0.48759 0.93259 0.0
C1135 C 0.99992 0.48806 0.92746 0.0
C1136 C 0.98528 0.48624 0.93521 0.0
C1137 C 0.98732 0.48368 0.94775 0.0
C1138 C 0.03085 0.53246 0.99803 0.0
C1139 C 0.97495 0.51135 0.98819 0.0
O1140 O 0.01047 0.52728 0.02846 0.0
O1141 O 0.97897 0.50469 0.02823 0.0
O1142 O 0.96446 0.47743 0.0084 0.0
O1143 O 0.98926 0.47639 0.00253 0.0
O1144 O 0.02076 0.49957 0.0183 0.0
O1145 O 0.01956 0.48114 0.00047 0.0
O1146 O 0.99038 0.47235 0.97182 0.0
O1147 O 0.02244 0.49336 0.97252 0.0
O1148 O 0.03681 0.52194 0.99178 0.0
O1149 O 0.01213 0.52296 0.99786 0.0
O1150 O 0.98105 0.50045 0.98197 0.0
O1151 O 0.98115 0.51782 1.00003 0.0
H1152 H 0.97111 0.51332 0.05301 0.0
H1153 H 0.97625 0.50731 0.07441 0.0
H1154 H 0.03173 0.51032 0.06678 0.0
H1155 H 0.02652 0.51627 0.04537 0.0
H1156 H 0.03174 0.4844 0.94877 0.0
H1157 H 0.02848 0.48931 0.92696 0.0
H1158 H 0.97203 0.48633 0.93154 0.0
H1159 H 0.97574 0.48215 0.95347 0.0
C1160 C 0.47312 0.48274 0.96631 0.0
Eu1161 Eu 0.48948 0.49555 0.98907 0.0
C1162 C 0.47935 0.48537 0.95367 0.0
C1163 C 0.46892 0.4901 0.94477 0.0
C1164 C 0.47413 0.49215 0.93263 0.0
C1165 C 0.48984 0.48937 0.9291 0.0
C1166 C 0.5005 0.48493 0.93811 0.0
C1167 C 0.49533 0.48298 0.95028 0.0
C1168 C 0.50389 0.53302 1.00019 0.0
C1169 C 0.53769 0.5116 0.99056 0.0
C1170 C 0.52961 0.51707 0.03696 0.0
Eu1171 Eu 0.51358 0.5045 0.01413 0.0
C1172 C 0.52251 0.51556 0.04936 0.0
C1173 C 0.53157 0.5105 0.05895 0.0
C1174 C 0.52512 0.50899 0.07079 0.0
C1175 C 0.50952 0.5126 0.07327 0.0
C1176 C 0.50035 0.51753 0.06362 0.0
C1177 C 0.50674 0.51894 0.05176 0.0
C1178 C 0.49906 0.46704 0.0029 0.0
C1179 C 0.46552 0.48857 0.01268 0.0
O1180 O 0.47903 0.47297 0.97322 0.0
O1181 O 0.47408 0.49831 0.97247 0.0
O1182 O 0.48661 0.52288 0.99368 0.0
O1183 O 0.51316 0.52351 0.99993 0.0
O1184 O 0.52004 0.50185 0.98387 0.0
O1185 O 0.53938 0.51681 0.00256 0.0
O1186 O 0.52586 0.52789 0.02961 0.0
O1187 O 0.52692 0.50045 0.03119 0.0
O1188 O 0.51643 0.47714 0.00932 0.0
O1189 O 0.48988 0.47664 0.00328 0.0
O1190 O 0.48323 0.49888 0.01924 0.0
O1191 O 0.46378 0.48278 0.00077 0.0
H1192 H 0.45662 0.49211 0.94721 0.0
H1193 H 0.46584 0.49593 0.92601 0.0
H1194 H 0.51253 0.48246 0.9357 0.0
H1195 H 0.50368 0.47937 0.95697 0.0
H1196 H 0.54374 0.50782 0.05729 0.0
H1197 H 0.53263 0.50539 0.07807 0.0
H1198 H 0.48815 0.52019 0.06522 0.0
H1199 H 0.49938 0.52273 0.0445 0.0
C1200 C 0.19271 0.35255 0.36938 0.0
Eu1201 Eu 0.17693 0.34406 0.34643 0.0
C1202 C 0.18552 0.34599 0.38144 0.0
C1203 C 0.19292 0.36 0.39196 0.0
C1204 C 0.18593 0.35417 0.40344 0.0
C1205 C 0.17141 0.33417 0.40459 0.0
C1206 C 0.16402 0.32015 0.39401 0.0
C1207 C 0.17098 0.32601 0.38253 0.0
C1208 C 0.16178 0.36365 0.33415 0.0
C1209 C 0.12936 0.30971 0.34491 0.0
C1210 C 0.13693 0.31413 0.29844 0.0
Eu1211 Eu 0.15312 0.32287 0.3213 0.0
C1212 C 0.14373 0.3196 0.28616 0.0
C1213 C 0.13471 0.3052 0.27586 0.0
C1214 C 0.14089 0.31007 0.26411 0.0
C1215 C 0.15621 0.32949 0.26241 0.0
C1216 C 0.16536 0.34385 0.27281 0.0
C1217 C 0.1592 0.33894 0.28458 0.0
C1218 C 0.16818 0.30326 0.33367 0.0
C1219 C 0.20078 0.35726 0.3228 0.0
O1220 O 0.19328 0.3393 0.36158 0.0
O1221 O 0.18582 0.36291 0.36403 0.0
O1222 O 0.17911 0.3727 0.34067 0.0
O1223 O 0.15299 0.34504 0.33491 0.0
O1224 O 0.14708 0.31925 0.35151 0.0
O1225 O 0.12736 0.31084 0.33288 0.0
O1226 O 0.13759 0.32832 0.30602 0.0
O1227 O 0.14302 0.30325 0.30395 0.0
O1228 O 0.15084 0.29421 0.32716 0.0
O1229 O 0.177 0.32184 0.33282 0.0
O1230 O 0.18313 0.34723 0.31612 0.0
O1231 O 0.20275 0.35665 0.3349 0.0
H1232 H 0.20411 0.37548 0.39129 0.0
H1233 H 0.19208 0.36527 0.41144 0.0
H1234 H 0.15265 0.3047 0.39456 0.0
H1235 H 0.16493 0.31495 0.37451 0.0
H1236 H 0.12286 0.29015 0.27692 0.0
H1237 H 0.13374 0.29855 0.25635 0.0
H1238 H 0.17705 0.359 0.27184 0.0
H1239 H 0.16643 0.3503 0.29241 0.0
C1240 C 0.66449 0.85606 0.36789 0.0
Eu1241 Eu 0.66299 0.83987 0.34585 0.0
C1242 C 0.66726 0.85274 0.38087 0.0
C1243 C 0.65834 0.83333 0.38468 0.0
C1244 C 0.66062 0.83063 0.39716 0.0
C1245 C 0.67202 0.84726 0.406 0.0
C1246 C 0.68124 0.86662 0.4021 0.0
C1247 C 0.67882 0.86932 0.38965 0.0
C1248 C 0.63779 0.80129 0.33657 0.0
C1249 C 0.69364 0.82223 0.34548 0.0
C1250 C 0.67168 0.81144 0.2992 0.0
Eu1251 Eu 0.67263 0.82752 0.32117 0.0
C1252 C 0.66906 0.81484 0.28627 0.0
C1253 C 0.66615 0.83068 0.28331 0.0
C1254 C 0.66435 0.83409 0.27092 0.0
C1255 C 0.66547 0.8217 0.26134 0.0
C1256 C 0.66815 0.8057 0.26442 0.0
C1257 C 0.66994 0.80233 0.27678 0.0
C1258 C 0.6978 0.86608 0.33062 0.0
C1259 C 0.64197 0.84511 0.32143 0.0
O1260 O 0.6801 0.8621 0.36165 0.0
O1261 O 0.64781 0.84265 0.36139 0.0
O1262 O 0.63215 0.81202 0.34291 0.0
O1263 O 0.65643 0.81075 0.33631 0.0
O1264 O 0.688 0.83358 0.35164 0.0
O1265 O 0.68676 0.81508 0.3338 0.0
O1266 O 0.65597 0.80529 0.30535 0.0
O1267 O 0.68815 0.82524 0.30567 0.0
O1268 O 0.70355 0.85536 0.32438 0.0
O1269 O 0.67914 0.85659 0.33071 0.0
O1270 O 0.64768 0.83377 0.31532 0.0
O1271 O 0.64868 0.85217 0.33315 0.0
H1272 H 0.64951 0.82028 0.37803 0.0
H1273 H 0.65353 0.81554 0.39989 0.0
H1274 H 0.68994 0.87972 0.40872 0.0
H1275 H 0.68583 0.88439 0.38688 0.0
H1276 H 0.66548 0.84051 0.29058 0.0
H1277 H 0.66244 0.84661 0.26886 0.0
H1278 H 0.66871 0.79567 0.25726 0.0
H1279 H 0.67212 0.78999 0.27894 0.0
C1280 C 0.13922 0.81704 0.29933 0.0
Eu1281 Eu 0.15561 0.83028 0.32204 0.0
C1282 C 0.14603 0.81903 0.28683 0.0
C1283 C 0.13698 0.82477 0.27763 0.0
C1284 C 0.14321 0.82685 0.26572 0.0
C1285 C 0.15854 0.82308 0.26277 0.0
C1286 C 0.16765 0.81739 0.27201 0.0
C1287 C 0.16152 0.81546 0.28395 0.0
C1288 C 0.17039 0.868 0.33285 0.0
C1289 C 0.20374 0.84647 0.32324 0.0
C1290 C 0.19676 0.8529 0.36967 0.0
Eu1291 Eu 0.18016 0.83971 0.34697 0.0
C1292 C 0.19011 0.84917 0.38209 0.0
C1293 C 0.17075 0.83386 0.38368 0.0
C1294 C 0.1645 0.83061 0.39557 0.0
C1295 C 0.17754 0.84261 0.40605 0.0
C1296 C 0.19693 0.85794 0.40435 0.0
C1297 C 0.20314 0.86117 0.39247 0.0
C1298 C 0.16513 0.80193 0.33612 0.0
C1299 C 0.13196 0.82364 0.34582 0.0
O1300 O 0.14406 0.80686 0.3066 0.0
O1301 O 0.14095 0.83321 0.30517 0.0
O1302 O 0.15301 0.85785 0.32646 0.0
O1303 O 0.17953 0.85836 0.33263 0.0
O1304 O 0.18596 0.83595 0.31677 0.0
O1305 O 0.20559 0.85256 0.33511 0.0
O1306 O 0.18948 0.86182 0.36302 0.0
O1307 O 0.19681 0.83804 0.36328 0.0
O1308 O 0.18259 0.81201 0.34242 0.0
O1309 O 0.15614 0.81169 0.33648 0.0
O1310 O 0.14974 0.83356 0.35234 0.0
O1311 O 0.13003 0.81815 0.33384 0.0
H1312 H 0.12502 0.82759 0.27965 0.0
H1313 H 0.13577 0.83104 0.25876 0.0
H1314 H 0.17964 0.81459 0.27003 0.0
H1315 H 0.16889 0.81116 0.2909 0.0
H1316 H 0.16051 0.82442 0.37574 0.0
H1317 H 0.14954 0.81858 0.39656 0.0
H1318 H 0.20722 0.86766 0.41219 0.0
H1319 H 0.21809 0.87313 0.39138 0.0
C1320 C 0.85958 0.68897 0.70337 0.0
Eu1321 Eu 0.84434 0.67878 0.68029 0.0
C1322 C 0.85254 0.68195 0.71537 0.0
C1323 C 0.85922 0.69578 0.72594 0.0
C1324 C 0.85226 0.68948 0.73735 0.0
C1325 C 0.83848 0.6692 0.73838 0.0
C1326 C 0.83185 0.65535 0.72774 0.0
C1327 C 0.83878 0.66168 0.71633 0.0
C1328 C 0.82955 0.69752 0.66678 0.0
C1329 C 0.79707 0.64362 0.67873 0.0
C1330 C 0.80571 0.64633 0.63228 0.0
Eu1331 Eu 0.82126 0.6562 0.65529 0.0
C1332 C 0.81263 0.65305 0.62021 0.0
C1333 C 0.80485 0.63923 0.6096 0.0
C1334 C 0.81131 0.64532 0.59806 0.0
C1335 C 0.82567 0.66539 0.59695 0.0
C1336 C 0.83356 0.67918 0.60765 0.0
C1337 C 0.82713 0.67306 0.61919 0.0
C1338 C 0.8362 0.63744 0.66871 0.0
C1339 C 0.86864 0.69126 0.65687 0.0
O1340 O 0.86209 0.67672 0.69583 0.0
O1341 O 0.85094 0.69755 0.6977 0.0
O1342 O 0.84679 0.70692 0.6734 0.0
O1343 O 0.82067 0.67906 0.66804 0.0
O1344 O 0.81468 0.65374 0.68543 0.0
O1345 O 0.79522 0.64406 0.66662 0.0
O1346 O 0.8039 0.65903 0.63987 0.0
O1347 O 0.81388 0.63724 0.63787 0.0
O1348 O 0.81907 0.62801 0.66197 0.0
O1349 O 0.84494 0.65592 0.66752 0.0
O1350 O 0.85108 0.6809 0.65013 0.0
O1351 O 0.87046 0.69109 0.66902 0.0
H1352 H 0.8698 0.71149 0.72537 0.0
H1353 H 0.85783 0.70047 0.74541 0.0
H1354 H 0.82106 0.63967 0.72819 0.0
H1355 H 0.83331 0.65075 0.70825 0.0
H1356 H 0.79369 0.62372 0.61024 0.0
H1357 H 0.80479 0.6344 0.58998 0.0
H1358 H 0.84481 0.69468 0.60711 0.0
H1359 H 0.83346 0.68395 0.62729 0.0
C1360 C 0.32565 0.18434 0.70098 0.0
Eu1361 Eu 0.3274 0.17112 0.67874 0.0
C1362 C 0.32726 0.18023 0.71397 0.0
C1363 C 0.31073 0.17439 0.72077 0.0
C1364 C 0.31204 0.17129 0.73324 0.0
C1365 C 0.33001 0.17417 0.73923 0.0
C1366 C 0.34648 0.17969 0.73234 0.0
C1367 C 0.34513 0.18267 0.71982 0.0
C1368 C 0.30326 0.13335 0.66772 0.0
C1369 C 0.3587 0.15433 0.67874 0.0
C1370 C 0.34194 0.14901 0.63212 0.0
Eu1371 Eu 0.33988 0.16192 0.65437 0.0
C1372 C 0.34 0.15319 0.61921 0.0
C1373 C 0.35555 0.15709 0.61185 0.0
C1374 C 0.354 0.16063 0.59949 0.0
C1375 C 0.33675 0.16019 0.5942 0.0
C1376 C 0.32126 0.15653 0.60166 0.0
C1377 C 0.32288 0.1531 0.61406 0.0
C1378 C 0.36406 0.19957 0.66559 0.0
C1379 C 0.30855 0.17863 0.65426 0.0
O1380 O 0.34196 0.19215 0.69532 0.0
O1381 O 0.30993 0.17072 0.69382 0.0
O1382 O 0.29682 0.14338 0.674 0.0
O1383 O 0.32203 0.143 0.66829 0.0
O1384 O 0.35225 0.16487 0.68499 0.0
O1385 O 0.353 0.14836 0.66682 0.0
O1386 O 0.32568 0.1408 0.63781 0.0
O1387 O 0.35752 0.16291 0.63925 0.0
O1388 O 0.37053 0.18944 0.65944 0.0
O1389 O 0.34527 0.19003 0.66481 0.0
O1390 O 0.31508 0.16812 0.64806 0.0
O1391 O 0.31409 0.18452 0.66621 0.0
H1392 H 0.2968 0.1724 0.71647 0.0
H1393 H 0.29895 0.1667 0.73819 0.0
H1394 H 0.36062 0.18226 0.73669 0.0
H1395 H 0.35815 0.18717 0.71482 0.0
H1396 H 0.36892 0.15731 0.61565 0.0
H1397 H 0.36637 0.16376 0.5941 0.0
H1398 H 0.30768 0.15586 0.59785 0.0
H1399 H 0.31066 0.15018 0.61954 0.0
C1400 C 0.80428 0.14405 0.63213 0.0
Eu1401 Eu 0.82058 0.15989 0.65459 0.0
C1402 C 0.81101 0.14624 0.61968 0.0
C1403 C 0.83012 0.16164 0.6177 0.0
C1404 C 0.83637 0.16351 0.60579 0.0
C1405 C 0.82362 0.14995 0.5957 0.0
C1406 C 0.80449 0.13454 0.59778 0.0
C1407 C 0.79826 0.13272 0.60968 0.0
C1408 C 0.83404 0.19812 0.66399 0.0
C1409 C 0.86912 0.17808 0.6562 0.0
C1410 C 0.86132 0.1881 0.70233 0.0
Eu1411 Eu 0.84533 0.17244 0.6798 0.0
C1412 C 0.85501 0.18582 0.71503 0.0
C1413 C 0.85439 0.17053 0.72173 0.0
C1414 C 0.84897 0.16889 0.73384 0.0
C1415 C 0.84414 0.18253 0.73955 0.0
C1416 C 0.84466 0.19773 0.73281 0.0
C1417 C 0.85011 0.1994 0.72071 0.0
C1418 C 0.83167 0.13413 0.67039 0.0
C1419 C 0.79677 0.1544 0.67821 0.0
O1420 O 0.81157 0.13608 0.63962 0.0
O1421 O 0.80405 0.15949 0.63756 0.0
O1422 O 0.8168 0.18707 0.65756 0.0
O1423 O 0.84373 0.18905 0.66445 0.0
O1424 O 0.85143 0.16647 0.6498 0.0
O1425 O 0.87073 0.18507 0.66787 0.0
O1426 O 0.85376 0.19592 0.69489 0.0
O1427 O 0.86247 0.1733 0.69669 0.0
O1428 O 0.84895 0.14512 0.67678 0.0
O1429 O 0.82211 0.14332 0.66999 0.0
O1430 O 0.81448 0.1656 0.68467 0.0
O1431 O 0.79508 0.1477 0.66646 0.0
H1432 H 0.8402 0.17216 0.62537 0.0
H1433 H 0.85126 0.17539 0.6045 0.0
H1434 H 0.79424 0.12401 0.59018 0.0
H1435 H 0.78346 0.12076 0.61107 0.0
H1436 H 0.85828 0.15993 0.71769 0.0
H1437 H 0.84902 0.15719 0.73884 0.0
H1438 H 0.8408 0.20835 0.73686 0.0
H1439 H 0.85057 0.21143 0.71583 0.0
H1440 H 0.32439 0.88244 0.08285 0.0
H1441 H 0.355 0.90231 0.07305 0.0
H1442 H 0.31997 0.89051 0.03799 0.0
H1443 H 0.28927 0.87078 0.04772 0.0
H1444 H 0.35217 0.88329 0.03685 0.0
H1445 H 0.37663 0.95836 0.06121 0.0
H1446 H 0.37142 0.93897 0.07119 0.0
H1447 H 0.35148 0.93748 0.061 0.0
C1448 C 0.32316 0.88436 0.0731 0.0
C1449 C 0.30437 0.87505 0.06607 0.0
C1450 C 0.34068 0.8957 0.06751 0.0
C1451 C 0.33972 0.89806 0.05483 0.0
C1452 C 0.32101 0.88888 0.0478 0.0
H1453 H 0.42483 0.95485 0.00155 0.0
H1454 H 0.39504 0.93572 0.01215 0.0
C1455 C 0.3035 0.87755 0.05337 0.0
C1456 C 0.35826 0.90941 0.04875 0.0
H1457 H 0.39932 0.95586 0.04854 0.0
C1458 C 0.36246 0.89917 0.03937 0.0
C1459 C 0.37168 0.93009 0.05212 0.0
C1460 C 0.36756 0.94196 0.06185 0.0
C1461 C 0.37985 0.90902 0.03332 0.0
C1462 C 0.39318 0.92975 0.03661 0.0
C1463 C 0.38906 0.93996 0.04606 0.0
C1464 C 0.41132 0.9412 0.03018 0.0
C1465 C 0.38396 0.89708 0.02364 0.0
C1466 C 0.43034 0.95101 0.03686 0.0
C1467 C 0.44744 0.96209 0.03085 0.0
C1468 C 0.4458 0.96366 0.01804 0.0
C1469 C 0.42668 0.95387 0.0114 0.0
C1470 C 0.40961 0.94282 0.01743 0.0
H1471 H 0.37544 0.88076 0.02464 0.0
H1472 H 0.37933 0.89936 0.01429 0.0
H1473 H 0.40015 0.90204 0.02418 0.0
H1474 H 0.43196 0.95004 0.04673 0.0
H1475 H 0.4619 0.96949 0.03626 0.0
H1476 H 0.12842 0.41697 0.06478 0.0
H1477 H 0.10378 0.42491 0.05575 0.0
H1478 H 0.15141 0.48342 0.04937 0.0
H1479 H 0.1761 0.47542 0.05818 0.0
H1480 H 0.09537 0.45399 0.06247 0.0
H1481 H 0.12073 0.46286 0.01542 0.0
H1482 H 0.12922 0.4522 0.02698 0.0
H1483 H 0.14029 0.47898 0.02733 0.0
C1484 C 0.13361 0.43153 0.06146 0.0
C1485 C 0.15418 0.44552 0.06208 0.0
C1486 C 0.11954 0.43604 0.0563 0.0
C1487 C 0.12577 0.45462 0.05168 0.0
C1488 C 0.14628 0.46878 0.05256 0.0
H1489 H 0.04932 0.50493 0.03442 0.0
H1490 H 0.07306 0.49664 0.04441 0.0
C1491 C 0.16037 0.46422 0.05761 0.0
C1492 C 0.11078 0.4592 0.04603 0.0
H1493 H 0.09725 0.47317 0.0196 0.0
C1494 C 0.09572 0.45811 0.05308 0.0
C1495 C 0.11109 0.46429 0.03371 0.0
C1496 C 0.12607 0.46447 0.02537 0.0
C1497 C 0.08107 0.4622 0.0482 0.0
C1498 C 0.08183 0.46801 0.03605 0.0
C1499 C 0.09679 0.4689 0.02896 0.0
C1500 C 0.06701 0.47275 0.0303 0.0
C1501 C 0.06469 0.45978 0.05602 0.0
C1502 C 0.05603 0.4624 0.01893 0.0
C1503 C 0.04273 0.46732 0.01312 0.0
C1504 C 0.04005 0.48266 0.01858 0.0
C1505 C 0.05091 0.49291 0.03004 0.0
C1506 C 0.0644 0.48811 0.03579 0.0
H1507 H 0.06291 0.44985 0.06341 0.0
H1508 H 0.06854 0.47467 0.06058 0.0
H1509 H 0.05013 0.45348 0.05026 0.0
H1510 H 0.05783 0.45053 0.01451 0.0
H1511 H 0.03456 0.45908 0.00432 0.0
H1512 H 0.54466 0.71003 0.03784 0.0
H1513 H 0.53339 0.67569 0.02926 0.0
H1514 H 0.58925 0.68164 0.04396 0.0
H1515 H 0.60068 0.71607 0.05258 0.0
H1516 H 0.55051 0.66174 0.0123 0.0
H1517 H 0.54743 0.63046 0.05741 0.0
H1518 H 0.54946 0.65459 0.05621 0.0
H1519 H 0.57109 0.65186 0.0553 0.0
C1520 C 0.55463 0.7041 0.03916 0.0
C1521 C 0.57355 0.71575 0.04592 0.0
C1522 C 0.54812 0.68445 0.03431 0.0
C1523 C 0.56036 0.67604 0.03614 0.0
C1524 C 0.57939 0.68771 0.04269 0.0
H1525 H 0.54117 0.55734 0.01227 0.0
H1526 H 0.55566 0.59237 0.02095 0.0
C1527 C 0.58591 0.70737 0.04758 0.0
C1528 C 0.55318 0.65511 0.03105 0.0
H1529 H 0.54092 0.60869 0.0393 0.0
C1530 C 0.5484 0.65013 0.01819 0.0
C1531 C 0.55052 0.64004 0.03878 0.0
C1532 C 0.55471 0.64439 0.05271 0.0
C1533 C 0.54104 0.63046 0.01283 0.0
C1534 C 0.53812 0.61535 0.02057 0.0
C1535 C 0.54319 0.62036 0.03341 0.0
C1536 C 0.5293 0.59414 0.01553 0.0
C1537 C 0.5366 0.62602 0.99892 0.0
C1538 C 0.50959 0.58351 0.00983 0.0
C1539 C 0.50128 0.56355 0.00493 0.0
C1540 C 0.51254 0.5539 0.00569 0.0
C1541 C 0.53217 0.56445 0.01157 0.0
C1542 C 0.54046 0.58442 0.01651 0.0
H1543 H 0.54429 0.63987 0.99417 0.0
H1544 H 0.54123 0.61531 0.99541 0.0
H1545 H 0.52025 0.61911 0.99641 0.0
H1546 H 0.50062 0.59067 0.00919 0.0
H1547 H 0.48607 0.55572 0.00051 0.0
H1548 H 0.87918 0.28519 0.94886 0.0
H1549 H 0.90262 0.31912 0.95863 0.0
H1550 H 0.85347 0.3236 0.97189 0.0
H1551 H 0.82997 0.28983 0.9621 0.0
H1552 H 0.90313 0.35448 0.95379 0.0
H1553 H 0.89279 0.34095 0.0031 0.0
H1554 H 0.88458 0.32084 0.99085 0.0
H1555 H 0.86984 0.33252 0.99348 0.0
C1556 C 0.87337 0.29339 0.95388 0.0
C1557 C 0.85271 0.28477 0.95475 0.0
C1558 C 0.88678 0.31273 0.95949 0.0
C1559 C 0.8798 0.32374 0.96613 0.0
C1560 C 0.85922 0.31517 0.96706 0.0
H1561 H 0.93006 0.4441 0.00187 0.0
H1562 H 0.90851 0.4093 0.99281 0.0
C1563 C 0.84581 0.29586 0.96146 0.0
C1564 C 0.8939 0.34456 0.9716 0.0
H1565 H 0.91048 0.37507 0.99882 0.0
C1566 C 0.90489 0.35898 0.96365 0.0
C1567 C 0.8961 0.35034 0.98445 0.0
C1568 C 0.88535 0.33533 0.9935 0.0
C1569 C 0.91764 0.37918 0.96817 0.0
C1570 C 0.91965 0.385 0.98101 0.0
C1571 C 0.90883 0.37055 0.98897 0.0
C1572 C 0.93275 0.40607 0.98635 0.0
C1573 C 0.92842 0.39422 0.95914 0.0
C1574 C 0.95351 0.41567 0.9858 0.0
C1575 C 0.96582 0.43551 0.99096 0.0
C1576 C 0.95755 0.446 0.9968 0.0
C1577 C 0.93679 0.43634 0.9974 0.0
C1578 C 0.9245 0.4165 0.99225 0.0
H1579 H 0.9217 0.38825 0.94943 0.0
H1580 H 0.92821 0.40831 0.96144 0.0
H1581 H 0.94427 0.39793 0.9597 0.0
H1582 H 0.96021 0.40776 0.98148 0.0
H1583 H 0.9818 0.44259 0.99043 0.0
H1584 H 0.71455 0.57401 0.95828 0.0
H1585 H 0.68339 0.5651 0.96736 0.0
H1586 H 0.64994 0.53796 0.93164 0.0
H1587 H 0.68106 0.54673 0.92247 0.0
H1588 H 0.63793 0.56226 0.94462 0.0
H1589 H 0.6422 0.50807 0.97417 0.0
H1590 H 0.66411 0.53258 0.97619 0.0
H1591 H 0.65747 0.5175 0.96156 0.0
C1592 C 0.70055 0.56603 0.95236 0.0
C1593 C 0.70027 0.56092 0.93967 0.0
C1594 C 0.68277 0.56096 0.95757 0.0
C1595 C 0.66434 0.55054 0.95021 0.0
C1596 C 0.66402 0.54592 0.93748 0.0
H1597 H 0.54058 0.50438 0.96595 0.0
H1598 H 0.57099 0.51386 0.95584 0.0
C1599 C 0.68181 0.55102 0.93225 0.0
C1600 C 0.64542 0.54442 0.95583 0.0
H1601 H 0.61708 0.51631 0.97768 0.0
C1602 C 0.63328 0.55213 0.9518 0.0
C1603 C 0.63941 0.53117 0.96517 0.0
C1604 C 0.65136 0.52168 0.96947 0.0
C1605 C 0.61552 0.54734 0.9571 0.0
C1606 C 0.60963 0.53424 0.96653 0.0
C1607 C 0.62168 0.52641 0.97048 0.0
C1608 C 0.59114 0.52864 0.97256 0.0
C1609 C 0.60349 0.55674 0.95279 0.0
C1610 C 0.59235 0.5334 0.98537 0.0
C1611 C 0.575 0.52789 0.9912 0.0
C1612 C 0.55606 0.51739 0.98434 0.0
C1613 C 0.5549 0.51251 0.97151 0.0
C1614 C 0.57228 0.51804 0.96569 0.0
H1615 H 0.61243 0.57003 0.94778 0.0
H1616 H 0.59042 0.54559 0.94636 0.0
H1617 H 0.59782 0.56137 0.96075 0.0
H1618 H 0.60676 0.54148 0.99085 0.0
H1619 H 0.57648 0.53186 0.00109 0.0
H1620 H 0.45093 0.14997 0.95126 0.0
H1621 H 0.46367 0.1308 0.96168 0.0
H1622 H 0.40809 0.07611 0.95008 0.0
H1623 H 0.39519 0.0952 0.93962 0.0
H1624 H 0.44816 0.10655 0.98068 0.0
H1625 H 0.45001 0.06286 0.93874 0.0
H1626 H 0.44729 0.08466 0.93791 0.0
H1627 H 0.42621 0.06096 0.9404 0.0
C1628 C 0.44136 0.13387 0.95098 0.0
C1629 C 0.42205 0.12408 0.9446 0.0
C1630 C 0.4487 0.12294 0.95688 0.0
C1631 C 0.43693 0.10202 0.9565 0.0
C1632 C 0.41758 0.0922 0.95025 0.0
H1633 H 0.4582 0.01339 0.98935 0.0
H1634 H 0.4434 0.03067 0.9786 0.0
C1635 C 0.41023 0.10312 0.94429 0.0
C1636 C 0.44483 0.09064 0.96292 0.0
H1637 H 0.45744 0.05442 0.95819 0.0
C1638 C 0.45023 0.09517 0.97576 0.0
C1639 C 0.44744 0.07578 0.95647 0.0
C1640 C 0.44261 0.07085 0.9426 0.0
C1641 C 0.45809 0.08517 0.98236 0.0
C1642 C 0.46087 0.07045 0.9759 0.0
C1643 C 0.45527 0.06573 0.96309 0.0
C1644 C 0.4699 0.06003 0.98226 0.0
C1645 C 0.46314 0.09023 0.99621 0.0
C1646 C 0.48977 0.07081 0.9877 0.0
C1647 C 0.49827 0.06098 0.99377 0.0
C1648 C 0.48704 0.04021 0.99445 0.0
C1649 C 0.46721 0.02941 0.9889 0.0
C1650 C 0.45874 0.03924 0.98279 0.0
H1651 H 0.45565 0.09808 1.00013 0.0
H1652 H 0.45873 0.07648 0.00094 0.0
H1653 H 0.47954 0.10027 0.99831 0.0
H1654 H 0.49872 0.08682 0.9872 0.0
H1655 H 0.51362 0.06964 0.99792 0.0
H1656 H 0.68986 0.09748 0.92719 0.0
H1657 H 0.65867 0.07722 0.93637 0.0
H1658 H 0.66339 0.131 0.95421 0.0
H1659 H 0.69398 0.15136 0.94465 0.0
H1660 H 0.65203 0.0741 0.96068 0.0
H1661 H 0.60666 0.10242 0.93764 0.0
H1662 H 0.63033 0.10716 0.93269 0.0
H1663 H 0.6296 0.12215 0.94576 0.0
C1664 C 0.6841 0.10501 0.93291 0.0
C1665 C 0.69443 0.12607 0.93515 0.0
C1666 C 0.66634 0.09341 0.93822 0.0
C1667 C 0.65853 0.10261 0.94582 0.0
C1668 C 0.6689 0.12358 0.94817 0.0
H1669 H 0.57368 0.04815 0.99975 0.0
H1670 H 0.60343 0.06682 0.98898 0.0
C1671 C 0.68657 0.13519 0.94283 0.0
C1672 C 0.63987 0.0903 0.95161 0.0
H1673 H 0.59342 0.08363 0.95479 0.0
C1674 C 0.63915 0.07608 0.95933 0.0
C1675 C 0.62297 0.09268 0.94969 0.0
C1676 C 0.6223 0.10678 0.94089 0.0
C1677 C 0.62218 0.06451 0.96543 0.0
C1678 C 0.60566 0.06759 0.96399 0.0
C1679 C 0.60619 0.08147 0.95602 0.0
C1680 C 0.5876 0.05648 0.97057 0.0
C1681 C 0.62202 0.0489 0.9732 0.0
C1682 C 0.5687 0.04503 0.96382 0.0
C1683 C 0.55162 0.03458 0.96995 0.0
C1684 C 0.55309 0.03533 0.98297 0.0
C1685 C 0.57202 0.04707 0.98972 0.0
C1686 C 0.58908 0.05764 0.98357 0.0
H1687 H 0.63292 0.04438 0.97045 0.0
H1688 H 0.62629 0.05521 0.98307 0.0
H1689 H 0.60693 0.03531 0.97242 0.0
H1690 H 0.56718 0.04404 0.95378 0.0
H1691 H 0.5373 0.02578 0.96445 0.0
H1692 H 0.85827 0.57553 0.95004 0.0
H1693 H 0.8808 0.56616 0.96057 0.0
H1694 H 0.88417 0.53834 0.92587 0.0
H1695 H 0.86163 0.54756 0.91529 0.0
H1696 H 0.87554 0.52794 0.96211 0.0
H1697 H 0.94303 0.57527 0.93875 0.0
H1698 H 0.92165 0.57878 0.93821 0.0
H1699 H 0.92114 0.55902 0.9283 0.0
C1700 C 0.86377 0.56736 0.94466 0.0
C1701 C 0.85826 0.56239 0.93181 0.0
C1702 C 0.87669 0.5621 0.95068 0.0
C1703 C 0.88441 0.55185 0.94396 0.0
C1704 C 0.87878 0.54668 0.93117 0.0
H1705 H 0.96067 0.50292 0.96358 0.0
H1706 H 0.93834 0.5124 0.95294 0.0
C1707 C 0.86589 0.55196 0.92514 0.0
C1708 C 0.89787 0.54604 0.9504 0.0
H1709 H 0.94456 0.5517 0.95117 0.0
C1710 C 0.89067 0.53321 0.95977 0.0
C1711 C 0.91758 0.55291 0.94729 0.0
C1712 C 0.92642 0.5674 0.93767 0.0
C1713 C 0.90253 0.52678 0.966 0.0
C1714 C 0.92221 0.53362 0.96287 0.0
C1715 C 0.92943 0.54644 0.9535 0.0
C1716 C 0.93566 0.52784 0.96935 0.0
C1717 C 0.89378 0.51241 0.97569 0.0
C1718 C 0.94173 0.53362 0.98206 0.0
C1719 C 0.95448 0.52825 0.98817 0.0
C1720 C 0.96149 0.51707 0.98166 0.0
C1721 C 0.95552 0.51147 0.96889 0.0
C1722 C 0.94277 0.51689 0.96278 0.0
H1723 H 0.87718 0.50477 0.9748 0.0
H1724 H 0.8983 0.50085 0.97504 0.0
H1725 H 0.89943 0.52084 0.98504 0.0
H1726 H 0.9367 0.5424 0.98725 0.0
H1727 H 0.95884 0.5329 0.998 0.0
H1728 H 0.42214 0.27762 0.97367 0.0
H1729 H 0.43498 0.31214 0.98242 0.0
H1730 H 0.44251 0.33152 0.94571 0.0
H1731 H 0.43109 0.29736 0.93696 0.0
H1732 H 0.47439 0.3556 0.96084 0.0
H1733 H 0.40792 0.34466 0.98336 0.0
H1734 H 0.41694 0.32879 0.98866 0.0
H1735 H 0.40729 0.32553 0.97267 0.0
C1736 C 0.42664 0.28922 0.96745 0.0
C1737 C 0.4255 0.2846 0.95458 0.0
C1738 C 0.43368 0.30894 0.97246 0.0
C1739 C 0.43933 0.32439 0.96471 0.0
C1740 C 0.43807 0.31982 0.95187 0.0
H1741 H 0.46281 0.44415 0.98939 0.0
H1742 H 0.44861 0.4099 0.97951 0.0
C1743 C 0.43131 0.30019 0.94686 0.0
C1744 C 0.44754 0.34548 0.96998 0.0
H1745 H 0.43816 0.37582 0.98916 0.0
C1746 C 0.46639 0.36004 0.96696 0.0
C1747 C 0.43698 0.35135 0.97781 0.0
C1748 C 0.41608 0.33679 0.98071 0.0
C1749 C 0.47512 0.38022 0.9717 0.0
C1750 C 0.46503 0.3859 0.98004 0.0
C1751 C 0.44602 0.37142 0.98289 0.0
C1752 C 0.47386 0.40678 0.98587 0.0
C1753 C 0.49488 0.39527 0.96749 0.0
C1754 C 0.49268 0.41636 0.99283 0.0
C1755 C 0.50096 0.43605 0.99827 0.0
C1756 C 0.49039 0.44634 0.99706 0.0
C1757 C 0.47138 0.43662 0.99034 0.0
C1758 C 0.46322 0.41704 0.98475 0.0
H1759 H 0.49731 0.38987 0.9584 0.0
H1760 H 0.49578 0.40994 0.96665 0.0
H1761 H 0.50721 0.39759 0.97437 0.0
H1762 H 0.50091 0.40856 0.99413 0.0
H1763 H 0.51556 0.44313 0.00352 0.0
H1764 H 0.14311 0.69788 0.06674 0.0
H1765 H 0.11984 0.66442 0.0566 0.0
H1766 H 0.12799 0.68773 0.02099 0.0
H1767 H 0.15033 0.72157 0.03112 0.0
H1768 H 0.08953 0.66126 0.02258 0.0
H1769 H 0.13572 0.62884 0.03817 0.0
H1770 H 0.12922 0.63959 0.0509 0.0
H1771 H 0.14488 0.65544 0.03998 0.0
C1772 C 0.13975 0.69603 0.05677 0.0
C1773 C 0.14873 0.71251 0.04976 0.0
C1774 C 0.12666 0.67677 0.05096 0.0
C1775 C 0.12255 0.67347 0.03801 0.0
C1776 C 0.13111 0.68989 0.03099 0.0
H1777 H 0.0708 0.55601 0.99663 0.0
H1778 H 0.09267 0.59064 0.00575 0.0
C1779 C 0.14404 0.70922 0.0368 0.0
C1780 C 0.10928 0.6529 0.03179 0.0
H1781 H 0.10261 0.60567 0.02913 0.0
C1782 C 0.09244 0.64911 0.02395 0.0
C1783 C 0.11327 0.63714 0.03341 0.0
C1784 C 0.13187 0.64047 0.04097 0.0
C1785 C 0.07929 0.62993 0.01786 0.0
C1786 C 0.08279 0.61397 0.01995 0.0
C1787 C 0.0998 0.61784 0.02764 0.0
C1788 C 0.06924 0.59318 0.01411 0.0
C1789 C 0.06209 0.62713 0.00904 0.0
C1790 C 0.0488 0.58302 0.01584 0.0
C1791 C 0.03623 0.56334 0.01047 0.0
C1792 C 0.04398 0.55333 0.00352 0.0
C1793 C 0.06444 0.56339 0.00193 0.0
C1794 C 0.07695 0.58315 0.00715 0.0
H1795 H 0.06506 0.64152 0.00559 0.0
H1796 H 0.05905 0.61618 0.00094 0.0
H1797 H 0.04843 0.62143 0.01397 0.0
H1798 H 0.04259 0.59022 0.02144 0.0
H1799 H 0.0205 0.5559 0.01185 0.0
H1800 H 0.29131 0.42432 0.05105 0.0
H1801 H 0.32111 0.43339 0.0403 0.0
H1802 H 0.35812 0.45748 0.07519 0.0
H1803 H 0.32842 0.44848 0.086 0.0
H1804 H 0.35393 0.47115 0.03955 0.0
H1805 H 0.377 0.4209 0.06022 0.0
H1806 H 0.35253 0.41794 0.06135 0.0
H1807 H 0.37372 0.43676 0.07146 0.0
C1808 C 0.3058 0.43156 0.05643 0.0
C1809 C 0.3075 0.43563 0.06938 0.0
C1810 C 0.32279 0.43666 0.05029 0.0
C1811 C 0.34179 0.44585 0.05696 0.0
C1812 C 0.34356 0.44997 0.06989 0.0
H1813 H 0.46305 0.49514 0.0374 0.0
H1814 H 0.43287 0.48501 0.04786 0.0
C1815 C 0.32657 0.44482 0.07605 0.0
C1816 C 0.35983 0.45183 0.05035 0.0
H1817 H 0.4002 0.44547 0.0484 0.0
C1818 C 0.36398 0.46545 0.04143 0.0
C1819 C 0.37293 0.44438 0.05283 0.0
C1820 C 0.36877 0.42905 0.0619 0.0
C1821 C 0.38111 0.47212 0.03508 0.0
C1822 C 0.39426 0.46476 0.03762 0.0
C1823 C 0.39009 0.45111 0.04651 0.0
C1824 C 0.41247 0.47108 0.03116 0.0
C1825 C 0.38524 0.48733 0.02593 0.0
C1826 C 0.41098 0.46644 0.01832 0.0
C1827 C 0.4282 0.47222 0.01229 0.0
C1828 C 0.44725 0.48268 0.01902 0.0
C1829 C 0.44866 0.48721 0.03191 0.0
C1830 C 0.43142 0.48139 0.03792 0.0
H1831 H 0.37643 0.49496 0.02721 0.0
H1832 H 0.40138 0.49886 0.02681 0.0
H1833 H 0.38109 0.47963 0.01637 0.0
H1834 H 0.39646 0.45819 0.01297 0.0
H1835 H 0.42656 0.4684 0.00236 0.0
H1836 H 0.58493 0.86982 0.03676 0.0
H1837 H 0.5708 0.88789 0.02656 0.0
H1838 H 0.56317 0.90961 0.06217 0.0
H1839 H 0.57579 0.89034 0.07242 0.0
H1840 H 0.53101 0.89716 0.04705 0.0
H1841 H 0.59609 0.94614 0.02259 0.0
H1842 H 0.58759 0.92012 0.01853 0.0
H1843 H 0.59753 0.93112 0.03425 0.0
C1844 C 0.58011 0.87829 0.04245 0.0
C1845 C 0.58157 0.87858 0.05545 0.0
C1846 C 0.57234 0.88892 0.03659 0.0
C1847 C 0.5663 0.90047 0.0436 0.0
C1848 C 0.56788 0.90094 0.05656 0.0
H1849 H 0.53985 0.98702 0.01285 0.0
H1850 H 0.55475 0.97033 0.02403 0.0
C1851 C 0.57534 0.89006 0.06243 0.0
C1852 C 0.55746 0.91131 0.03743 0.0
H1853 H 0.56524 0.94453 0.01612 0.0
C1854 C 0.53858 0.90764 0.04035 0.0
C1855 C 0.56744 0.92522 0.02884 0.0
C1856 C 0.58837 0.93105 0.02597 0.0
C1857 C 0.52929 0.91725 0.03481 0.0
C1858 C 0.53881 0.93036 0.02573 0.0
C1859 C 0.55782 0.93427 0.02295 0.0
C1860 C 0.52947 0.94039 0.01914 0.0
C1861 C 0.50959 0.91359 0.03897 0.0
C1862 C 0.51038 0.92913 0.01256 0.0
C1863 C 0.50166 0.9387 0.00641 0.0
C1864 C 0.51204 0.95966 0.00654 0.0
C1865 C 0.53134 0.97087 0.01282 0.0
C1866 C 0.53993 0.96134 0.01913 0.0
H1867 H 0.50764 0.9086 0.04843 0.0
H1868 H 0.50836 0.92731 0.03898 0.0
H1869 H 0.49716 0.90155 0.03254 0.0
H1870 H 0.50227 0.91292 0.0121 0.0
H1871 H 0.48685 0.92969 0.0015 0.0
H1872 H 0.98944 0.21693 0.41565 0.0
H1873 H 0.02 0.23746 0.40596 0.0
H1874 H 0.98489 0.22627 0.37102 0.0
H1875 H 0.95423 0.20635 0.38071 0.0
H1876 H 0.034 0.22516 0.38642 0.0
H1877 H 0.02128 0.28692 0.37431 0.0
H1878 H 0.00705 0.26949 0.38507 0.0
H1879 H 0.00095 0.26243 0.36863 0.0
C1880 C 0.98818 0.21917 0.40596 0.0
C1881 C 0.96938 0.21005 0.39897 0.0
C1882 C 0.00567 0.23078 0.40042 0.0
C1883 C 0.00469 0.2336 0.38782 0.0
C1884 C 0.98597 0.22461 0.38082 0.0
H1885 H 0.09033 0.28899 0.33477 0.0
H1886 H 0.06046 0.27032 0.34545 0.0
C1887 C 0.96847 0.21302 0.38634 0.0
C1888 C 0.02331 0.24515 0.38184 0.0
H1889 H 0.04787 0.28535 0.36538 0.0
C1890 C 0.03712 0.23841 0.3819 0.0
C1891 C 0.0273 0.26241 0.37594 0.0
C1892 C 0.01346 0.27088 0.37606 0.0
C1893 C 0.05463 0.2482 0.37596 0.0
C1894 C 0.05852 0.26533 0.36995 0.0
C1895 C 0.04478 0.27216 0.36996 0.0
C1896 C 0.07672 0.27636 0.36354 0.0
C1897 C 0.06858 0.23986 0.37588 0.0
C1898 C 0.09575 0.28603 0.37021 0.0
C1899 C 0.11286 0.29671 0.36414 0.0
C1900 C 0.11126 0.29798 0.3513 0.0
C1901 C 0.09214 0.28828 0.34466 0.0
C1902 C 0.07504 0.27763 0.35074 0.0
H1903 H 0.06119 0.22415 0.37829 0.0
H1904 H 0.07416 0.24032 0.36665 0.0
H1905 H 0.08166 0.24911 0.38283 0.0
H1906 H 0.09734 0.28552 0.38014 0.0
H1907 H 0.12732 0.30409 0.36957 0.0
H1908 H 0.81857 0.79191 0.41213 0.0
H1909 H 0.79366 0.79983 0.40358 0.0
H1910 H 0.79245 0.77198 0.36769 0.0
H1911 H 0.817 0.76355 0.37622 0.0
H1912 H 0.79674 0.82302 0.38369 0.0
H1913 H 0.73299 0.74503 0.374 0.0
H1914 H 0.75513 0.75146 0.38413 0.0
H1915 H 0.75549 0.74931 0.36759 0.0
C1916 C 0.81282 0.78725 0.40245 0.0
C1917 C 0.81966 0.77699 0.39486 0.0
C1918 C 0.7987 0.7919 0.39757 0.0
C1919 C 0.79103 0.78624 0.38506 0.0
C1920 C 0.79795 0.77618 0.37742 0.0
H1921 H 0.70928 0.80042 0.33548 0.0
H1922 H 0.73277 0.7922 0.34571 0.0
C1923 C 0.81212 0.77157 0.38228 0.0
C1924 C 0.77616 0.7913 0.37992 0.0
H1925 H 0.72855 0.77058 0.3659 0.0
C1926 C 0.78178 0.81159 0.37987 0.0
C1927 C 0.75667 0.77632 0.37497 0.0
C1928 C 0.74958 0.7543 0.37525 0.0
C1929 C 0.76859 0.81732 0.37466 0.0
C1930 C 0.74916 0.80232 0.36959 0.0
C1931 C 0.74347 0.78203 0.36979 0.0
C1932 C 0.73474 0.80733 0.36359 0.0
C1933 C 0.7758 0.83935 0.37426 0.0
C1934 C 0.72784 0.81837 0.37031 0.0
C1935 C 0.71441 0.82319 0.36447 0.0
C1936 C 0.70753 0.81689 0.35184 0.0
C1937 C 0.71426 0.80555 0.34522 0.0
C1938 C 0.72769 0.80081 0.35105 0.0
H1939 H 0.79238 0.84861 0.3758 0.0
H1940 H 0.77071 0.84216 0.36521 0.0
H1941 H 0.76954 0.84439 0.38166 0.0
H1942 H 0.73279 0.82321 0.38007 0.0
H1943 H 0.70944 0.83183 0.36986 0.0
H1944 H 0.23768 0.03828 0.39793 0.0
H1945 H 0.22647 0.00404 0.38944 0.0
H1946 H 0.23485 0.02291 0.35262 0.0
H1947 H 0.24746 0.05751 0.36112 0.0
H1948 H 0.19482 0.97986 0.37412 0.0
H1949 H 0.26184 0.99029 0.3525 0.0
H1950 H 0.26229 0.00957 0.36297 0.0
H1951 H 0.25306 0.00617 0.34688 0.0
C1952 C 0.23769 0.03532 0.38806 0.0
C1953 C 0.24365 0.05078 0.38023 0.0
C1954 C 0.23105 0.01565 0.3832 0.0
C1955 C 0.23008 0.01092 0.37041 0.0
C1956 C 0.23593 0.02625 0.36256 0.0
H1957 H 0.15423 0.89216 0.33168 0.0
H1958 H 0.1689 0.9268 0.34094 0.0
C1959 C 0.24283 0.04601 0.36742 0.0
C1960 C 0.22193 0.98978 0.36528 0.0
H1961 H 0.23158 0.95917 0.34656 0.0
C1962 C 0.20294 0.97532 0.36817 0.0
C1963 C 0.23263 0.98378 0.35767 0.0
C1964 C 0.25367 0.99824 0.35493 0.0
C1965 C 0.19421 0.95511 0.3635 0.0
C1966 C 0.20446 0.94931 0.35537 0.0
C1967 C 0.22361 0.96368 0.35266 0.0
C1968 C 0.19564 0.92839 0.34961 0.0
C1969 C 0.17427 0.94017 0.36755 0.0
C1970 C 0.20611 0.91802 0.351 0.0
C1971 C 0.19793 0.89838 0.34549 0.0
C1972 C 0.17908 0.88875 0.33858 0.0
C1973 C 0.16869 0.89918 0.33708 0.0
C1974 C 0.17699 0.91891 0.34245 0.0
H1975 H 0.17164 0.94566 0.37653 0.0
H1976 H 0.16214 0.93788 0.36051 0.0
H1977 H 0.17324 0.92547 0.36851 0.0
H1978 H 0.22058 0.92508 0.3564 0.0
H1979 H 0.20635 0.89074 0.34668 0.0
H1980 H 0.49596 0.62507 0.29575 0.0
H1981 H 0.51974 0.65883 0.30552 0.0
H1982 H 0.56837 0.65431 0.2914 0.0
H1983 H 0.54469 0.62047 0.28163 0.0
H1984 H 0.55301 0.67226 0.32307 0.0
H1985 H 0.57515 0.70611 0.27884 0.0
H1986 H 0.55341 0.68176 0.27949 0.0
H1987 H 0.57797 0.68465 0.28054 0.0
C1988 C 0.51174 0.63115 0.29484 0.0
C1989 C 0.51843 0.62012 0.28786 0.0
C1990 C 0.52529 0.65048 0.30037 0.0
C1991 C 0.54575 0.65917 0.299 0.0
C1992 C 0.55257 0.64803 0.29233 0.0
H1993 H 0.64821 0.77677 0.32409 0.0
H1994 H 0.6261 0.74192 0.31532 0.0
C1995 C 0.53903 0.62871 0.28677 0.0
C1996 C 0.5599 0.67992 0.30456 0.0
H1997 H 0.5928 0.72691 0.29735 0.0
C1998 C 0.5617 0.68423 0.31746 0.0
C1999 C 0.57121 0.69548 0.29719 0.0
C2000 C 0.56927 0.69189 0.28324 0.0
C2001 C 0.57468 0.70367 0.32323 0.0
C2002 C 0.58587 0.71924 0.31586 0.0
C2003 C 0.5842 0.71491 0.30297 0.0
C2004 C 0.5992 0.74021 0.32132 0.0
C2005 C 0.57653 0.70733 0.33717 0.0
C2006 C 0.59133 0.75084 0.32744 0.0
C2007 C 0.6039 0.77074 0.33243 0.0
C2008 C 0.62452 0.78032 0.33132 0.0
C2009 C 0.63236 0.76971 0.3251 0.0
C2010 C 0.61977 0.74984 0.32009 0.0
H2011 H 0.57106 0.69318 0.3416 0.0
H2012 H 0.5923 0.71787 0.34093 0.0
H2013 H 0.5674 0.71412 0.3398 0.0
H2014 H 0.57543 0.7438 0.32826 0.0
H2015 H 0.59747 0.77863 0.33711 0.0
H2016 H 0.37938 0.90647 0.29079 0.0
H2017 H 0.34799 0.89786 0.29949 0.0
H2018 H 0.31552 0.87208 0.26337 0.0
H2019 H 0.34678 0.88013 0.25464 0.0
H2020 H 0.31941 0.90934 0.29286 0.0
H2021 H 0.28692 0.8267 0.28563 0.0
H2022 H 0.31312 0.84413 0.28479 0.0
H2023 H 0.29501 0.83961 0.27205 0.0
C2024 C 0.36555 0.89883 0.28471 0.0
C2025 C 0.36557 0.89385 0.27204 0.0
C2026 C 0.34765 0.89404 0.28968 0.0
C2027 C 0.32942 0.88407 0.28211 0.0
C2028 C 0.3294 0.87948 0.26941 0.0
H2029 H 0.20622 0.83834 0.29869 0.0
H2030 H 0.2365 0.8481 0.28835 0.0
C2031 C 0.3473 0.88429 0.26442 0.0
C2032 C 0.31046 0.87851 0.28754 0.0
H2033 H 0.26623 0.83838 0.29331 0.0
C2034 C 0.30777 0.89383 0.29297 0.0
C2035 C 0.2953 0.85827 0.28763 0.0
C2036 C 0.29771 0.84118 0.28231 0.0
C2037 C 0.29024 0.88945 0.29842 0.0
C2038 C 0.2752 0.8692 0.29866 0.0
C2039 C 0.27779 0.85389 0.2931 0.0
C2040 C 0.25688 0.86354 0.30491 0.0
C2041 C 0.28787 0.90656 0.30373 0.0
C2042 C 0.25829 0.86874 0.31767 0.0
C2043 C 0.24104 0.86321 0.32362 0.0
C2044 C 0.222 0.85222 0.31692 0.0
C2045 C 0.22063 0.84682 0.30414 0.0
C2046 C 0.23792 0.85239 0.2982 0.0
H2047 H 0.29782 0.92075 0.29978 0.0
H2048 H 0.27217 0.90315 0.30196 0.0
H2049 H 0.29192 0.90902 0.31391 0.0
H2050 H 0.27276 0.87695 0.32308 0.0
H2051 H 0.24267 0.8675 0.33348 0.0
H2052 H 0.05958 0.42881 0.27458 0.0
H2053 H 0.07258 0.40984 0.28513 0.0
H2054 H 0.12592 0.46514 0.29934 0.0
H2055 H 0.11308 0.48414 0.28888 0.0
H2056 H 0.10739 0.40919 0.28188 0.0
H2057 H 0.10861 0.43669 0.33043 0.0
H2058 H 0.09511 0.44011 0.31758 0.0
H2059 H 0.12169 0.45653 0.3209 0.0
C2060 C 0.07405 0.4369 0.27998 0.0
C2061 C 0.08524 0.45797 0.28098 0.0
C2062 C 0.08142 0.42607 0.28603 0.0
C2063 C 0.10005 0.43611 0.29319 0.0
C2064 C 0.11128 0.45712 0.29414 0.0
H2065 H 0.17878 0.40356 0.33173 0.0
H2066 H 0.16331 0.42061 0.32142 0.0
C2067 C 0.10391 0.46795 0.28815 0.0
C2068 C 0.10819 0.42466 0.29926 0.0
H2069 H 0.12644 0.41925 0.32727 0.0
C2070 C 0.11138 0.41123 0.29181 0.0
C2071 C 0.11338 0.42738 0.31223 0.0
C2072 C 0.10936 0.44081 0.32077 0.0
C2073 C 0.12016 0.40085 0.29696 0.0
C2074 C 0.12568 0.40387 0.30988 0.0
C2075 C 0.12228 0.4171 0.31735 0.0
C2076 C 0.13505 0.39346 0.31584 0.0
C2077 C 0.12394 0.38711 0.28852 0.0
C2078 C 0.12418 0.37262 0.31617 0.0
C2079 C 0.13293 0.36289 0.32209 0.0
C2080 C 0.15269 0.37388 0.32774 0.0
C2081 C 0.16354 0.39475 0.32741 0.0
C2082 C 0.15474 0.40448 0.32154 0.0
H2083 H 0.12263 0.38957 0.27862 0.0
H2084 H 0.13907 0.38932 0.29103 0.0
H2085 H 0.1128 0.3713 0.28959 0.0
H2086 H 0.10885 0.36392 0.31199 0.0
H2087 H 0.12415 0.34681 0.32234 0.0
H2088 H 0.36036 0.4854 0.27863 0.0
H2089 H 0.32995 0.46504 0.28838 0.0
H2090 H 0.32588 0.41122 0.27115 0.0
H2091 H 0.35686 0.43147 0.26177 0.0
H2092 H 0.29228 0.43832 0.27777 0.0
H2093 H 0.32139 0.40043 0.30735 0.0
H2094 H 0.33752 0.42191 0.29959 0.0
H2095 H 0.32382 0.3974 0.29114 0.0
C2096 C 0.35321 0.46922 0.27706 0.0
C2097 C 0.3612 0.46008 0.26952 0.0
C2098 C 0.33571 0.45761 0.28256 0.0
C2099 C 0.32581 0.43662 0.28065 0.0
C2100 C 0.3335 0.4274 0.27295 0.0
H2101 H 0.20365 0.35805 0.2978 0.0
H2102 H 0.23365 0.37701 0.28735 0.0
C2103 C 0.35108 0.43901 0.26748 0.0
C2104 C 0.30728 0.4245 0.2866 0.0
H2105 H 0.28672 0.38908 0.30683 0.0
C2106 C 0.29105 0.42755 0.28413 0.0
C2107 C 0.30582 0.41065 0.29502 0.0
C2108 C 0.32311 0.40749 0.29855 0.0
C2109 C 0.27335 0.41708 0.2898 0.0
C2110 C 0.2717 0.40286 0.29798 0.0
C2111 C 0.28796 0.39987 0.30049 0.0
C2112 C 0.25342 0.39128 0.30428 0.0
C2113 C 0.2568 0.42173 0.28723 0.0
C2114 C 0.25463 0.39259 0.31727 0.0
C2115 C 0.23753 0.38161 0.3233 0.0
C2116 C 0.21887 0.36908 0.31642 0.0
C2117 C 0.21773 0.36772 0.30339 0.0
C2118 C 0.23486 0.37862 0.29738 0.0
H2119 H 0.26242 0.43653 0.28358 0.0
H2120 H 0.24529 0.41012 0.28016 0.0
H2121 H 0.24953 0.42171 0.29575 0.0
H2122 H 0.26882 0.40222 0.32277 0.0
H2123 H 0.23897 0.383 0.33334 0.0
H2124 H 0.52648 0.87879 0.24895 0.0
H2125 H 0.54886 0.8695 0.25969 0.0
H2126 H 0.54579 0.89811 0.29417 0.0
H2127 H 0.5234 0.90748 0.28348 0.0
H2128 H 0.58602 0.89405 0.27292 0.0
H2129 H 0.5319 0.84238 0.30311 0.0
H2130 H 0.52427 0.85104 0.28992 0.0
H2131 H 0.53485 0.867 0.30426 0.0
C2132 C 0.53064 0.8832 0.25881 0.0
C2133 C 0.52312 0.89383 0.26537 0.0
C2134 C 0.54336 0.8778 0.26494 0.0
C2135 C 0.54874 0.88285 0.27775 0.0
C2136 C 0.54145 0.89365 0.28432 0.0
H2137 H 0.62606 0.86695 0.33107 0.0
H2138 H 0.60385 0.8763 0.32022 0.0
C2139 C 0.52868 0.89901 0.2782 0.0
C2140 C 0.56233 0.87717 0.28416 0.0
H2141 H 0.56566 0.85043 0.30719 0.0
C2142 C 0.58156 0.88444 0.28037 0.0
C2143 C 0.55644 0.86462 0.29388 0.0
C2144 C 0.53568 0.85563 0.29798 0.0
C2145 C 0.5952 0.87979 0.28619 0.0
C2146 C 0.58932 0.86731 0.29593 0.0
C2147 C 0.57011 0.86002 0.29972 0.0
C2148 C 0.60294 0.86171 0.30237 0.0
C2149 C 0.61592 0.88861 0.28205 0.0
C2150 C 0.60962 0.85022 0.29594 0.0
C2151 C 0.62232 0.84482 0.30211 0.0
C2152 C 0.62851 0.85077 0.31485 0.0
C2153 C 0.62166 0.86217 0.32126 0.0
C2154 C 0.60894 0.86751 0.31509 0.0
H2155 H 0.61959 0.90152 0.27661 0.0
H2156 H 0.62737 0.89365 0.29014 0.0
H2157 H 0.61682 0.87697 0.27609 0.0
H2158 H 0.60487 0.84529 0.28617 0.0
H2159 H 0.62725 0.83597 0.2969 0.0
H2160 H 0.07552 0.61015 0.30507 0.0
H2161 H 0.08694 0.64442 0.31409 0.0
H2162 H 0.12123 0.66781 0.28316 0.0
H2163 H 0.10947 0.63367 0.27399 0.0
H2164 H 0.12358 0.67411 0.32185 0.0
H2165 H 0.09207 0.69847 0.28415 0.0
H2166 H 0.08511 0.67257 0.28491 0.0
H2167 H 0.10781 0.68952 0.27854 0.0
C2168 C 0.08541 0.62264 0.30019 0.0
C2169 C 0.09148 0.61929 0.28879 0.0
C2170 C 0.09188 0.64218 0.30532 0.0
C2171 C 0.10461 0.65868 0.29918 0.0
C2172 C 0.11091 0.65533 0.28788 0.0
H2173 H 0.18353 0.78007 0.3328 0.0
H2174 H 0.16827 0.74511 0.32397 0.0
C2175 C 0.10426 0.63582 0.28267 0.0
C2176 C 0.11206 0.67942 0.30483 0.0
H2177 H 0.11726 0.72454 0.29883 0.0
C2178 C 0.12203 0.68509 0.31686 0.0
C2179 C 0.10975 0.69367 0.29841 0.0
C2180 C 0.09791 0.68819 0.28585 0.0
C2181 C 0.13023 0.70474 0.32251 0.0
C2182 C 0.12897 0.71927 0.31579 0.0
C2183 C 0.1185 0.71347 0.3039 0.0
C2184 C 0.13835 0.74057 0.32092 0.0
C2185 C 0.13991 0.7096 0.33568 0.0
C2186 C 0.12678 0.74989 0.32166 0.0
C2187 C 0.13556 0.76995 0.32648 0.0
C2188 C 0.15603 0.78099 0.33068 0.0
C2189 C 0.16767 0.77179 0.32976 0.0
C2190 C 0.15893 0.75179 0.32481 0.0
H2191 H 0.13414 0.69595 0.34068 0.0
H2192 H 0.15628 0.71597 0.33559 0.0
H2193 H 0.13732 0.72074 0.34093 0.0
H2194 H 0.11091 0.74157 0.31863 0.0
H2195 H 0.12627 0.77674 0.32705 0.0
H2196 H 0.78917 0.04507 0.38734 0.0
H2197 H 0.76638 0.01092 0.37762 0.0
H2198 H 0.81624 0.00829 0.36395 0.0
H2199 H 0.83917 0.04214 0.3739 0.0
H2200 H 0.76004 0.99562 0.35224 0.0
H2201 H 0.78846 0.95797 0.3826 0.0
H2202 H 0.79386 0.98335 0.38644 0.0
H2203 H 0.80739 0.9782 0.3753 0.0
C2204 C 0.7953 0.03716 0.38234 0.0
C2205 C 0.81599 0.04629 0.38143 0.0
C2206 C 0.78225 0.01772 0.37674 0.0
C2207 C 0.78969 0.00701 0.37023 0.0
C2208 C 0.81026 0.01619 0.36911 0.0
H2209 H 0.7383 0.88846 0.33096 0.0
H2210 H 0.76028 0.92298 0.34038 0.0
C2211 C 0.8233 0.03563 0.37468 0.0
C2212 C 0.77593 0.98626 0.36455 0.0
H2213 H 0.76557 0.93793 0.36522 0.0
C2214 C 0.76115 0.98297 0.3551 0.0
C2215 C 0.77746 0.96983 0.36833 0.0
C2216 C 0.79252 0.97241 0.3788 0.0
C2217 C 0.74812 0.96369 0.34911 0.0
C2218 C 0.74972 0.94727 0.35285 0.0
C2219 C 0.76443 0.95057 0.36236 0.0
C2220 C 0.73631 0.92653 0.34702 0.0
C2221 C 0.73308 0.96113 0.33864 0.0
C2222 C 0.7156 0.91704 0.34776 0.0
C2223 C 0.70305 0.89739 0.34236 0.0
C2224 C 0.71103 0.88686 0.33623 0.0
C2225 C 0.73177 0.89629 0.33559 0.0
C2226 C 0.74432 0.91596 0.34097 0.0
H2227 H 0.73715 0.97557 0.33485 0.0
H2228 H 0.73176 0.9502 0.33099 0.0
H2229 H 0.7182 0.95534 0.34212 0.0
H2230 H 0.70917 0.92478 0.35261 0.0
H2231 H 0.68711 0.89042 0.34303 0.0
H2232 H 0.95766 0.75575 0.38443 0.0
H2233 H 0.98768 0.76545 0.37381 0.0
H2234 H 0.02447 0.79177 0.40863 0.0
H2235 H 0.99456 0.78221 0.41932 0.0
H2236 H 0.01962 0.80394 0.37279 0.0
H2237 H 0.04533 0.75633 0.39444 0.0
H2238 H 0.02043 0.75235 0.39532 0.0
H2239 H 0.04116 0.77191 0.40536 0.0
C2240 C 0.97214 0.7636 0.38983 0.0
C2241 C 0.97371 0.76816 0.40273 0.0
C2242 C 0.98926 0.76906 0.38376 0.0
C2243 C 0.00828 0.77908 0.39045 0.0
C2244 C 0.00991 0.78363 0.40332 0.0
H2245 H 0.12982 0.8307 0.37055 0.0
H2246 H 0.09974 0.82022 0.3812 0.0
C2247 C 0.9928 0.77815 0.40942 0.0
C2248 C 0.02643 0.78552 0.38389 0.0
H2249 H 0.06782 0.7808 0.38229 0.0
C2250 C 0.03011 0.7988 0.37481 0.0
C2251 C 0.04011 0.77883 0.38658 0.0
C2252 C 0.03653 0.76393 0.39587 0.0
C2253 C 0.04728 0.80585 0.36849 0.0
C2254 C 0.06097 0.79918 0.37119 0.0
C2255 C 0.05731 0.78591 0.38027 0.0
C2256 C 0.07914 0.80572 0.36464 0.0
C2257 C 0.05085 0.8207 0.35916 0.0
C2258 C 0.0775 0.80089 0.3518 0.0
C2259 C 0.09465 0.80684 0.34567 0.0
C2260 C 0.11378 0.81768 0.35228 0.0
C2261 C 0.11534 0.82242 0.36516 0.0
C2262 C 0.09817 0.81643 0.37128 0.0
H2263 H 0.04181 0.82808 0.36043 0.0
H2264 H 0.0669 0.83245 0.35984 0.0
H2265 H 0.04655 0.81273 0.34967 0.0
H2266 H 0.06293 0.79231 0.34654 0.0
H2267 H 0.09288 0.80283 0.33576 0.0
H2268 H 0.27119 0.23935 0.39313 0.0
H2269 H 0.25698 0.25773 0.38314 0.0
H2270 H 0.20204 0.20215 0.37206 0.0
H2271 H 0.21591 0.18373 0.38225 0.0
H2272 H 0.24143 0.25232 0.35769 0.0
H2273 H 0.18404 0.23826 0.39012 0.0
H2274 H 0.20511 0.23482 0.39383 0.0
H2275 H 0.18388 0.2162 0.38369 0.0
C2276 C 0.25603 0.23108 0.38866 0.0
C2277 C 0.24464 0.2101 0.38851 0.0
C2278 C 0.24799 0.24157 0.38291 0.0
C2279 C 0.22839 0.2313 0.37703 0.0
C2280 C 0.21709 0.21036 0.37672 0.0
H2281 H 0.15063 0.26357 0.33682 0.0
H2282 H 0.16582 0.24647 0.34735 0.0
C2283 C 0.22512 0.19986 0.38243 0.0
C2284 C 0.21983 0.24241 0.37103 0.0
H2285 H 0.18209 0.25305 0.37196 0.0
C2286 C 0.22854 0.25261 0.36084 0.0
C2287 C 0.20299 0.24268 0.37518 0.0
C2288 C 0.19352 0.23256 0.38637 0.0
C2289 C 0.22054 0.26272 0.35446 0.0
C2290 C 0.20364 0.26292 0.35857 0.0
C2291 C 0.19503 0.25282 0.36883 0.0
C2292 C 0.19455 0.27337 0.3523 0.0
C2293 C 0.22991 0.27262 0.34319 0.0
C2294 C 0.2056 0.29417 0.35176 0.0
C2295 C 0.197 0.30392 0.34571 0.0
C2296 C 0.17714 0.29304 0.34022 0.0
C2297 C 0.16599 0.27228 0.34094 0.0
C2298 C 0.17462 0.26252 0.34696 0.0
H2299 H 0.23928 0.26678 0.33943 0.0
H2300 H 0.21829 0.27033 0.33574 0.0
H2301 H 0.23967 0.28899 0.34577 0.0
H2302 H 0.22087 0.30287 0.35603 0.0
H2303 H 0.20594 0.31995 0.34527 0.0
H2304 H 0.6223 0.53774 0.71421 0.0
H2305 H 0.65313 0.5573 0.70458 0.0
H2306 H 0.68771 0.57023 0.73995 0.0
H2307 H 0.65701 0.5501 0.74959 0.0
H2308 H 0.68251 0.59747 0.7098 0.0
H2309 H 0.71395 0.54775 0.71749 0.0
H2310 H 0.68817 0.54009 0.71925 0.0
H2311 H 0.70755 0.55631 0.73128 0.0
C2312 C 0.63647 0.54457 0.71993 0.0
C2313 C 0.63719 0.54221 0.73266 0.0
C2314 C 0.65407 0.55585 0.71442 0.0
C2315 C 0.67272 0.56494 0.72151 0.0
C2316 C 0.67349 0.56302 0.73427 0.0
H2317 H 0.79481 0.6384 0.70344 0.0
H2318 H 0.76471 0.6197 0.71392 0.0
C2319 C 0.6559 0.55171 0.73979 0.0
C2320 C 0.69132 0.57655 0.71553 0.0
H2321 H 0.73493 0.57842 0.70941 0.0
C2322 C 0.69395 0.59329 0.70968 0.0
C2323 C 0.70622 0.57105 0.71541 0.0
C2324 C 0.70382 0.55272 0.72109 0.0
C2325 C 0.71121 0.60482 0.70382 0.0
C2326 C 0.72605 0.59927 0.70365 0.0
C2327 C 0.7235 0.58262 0.70957 0.0
C2328 C 0.74425 0.61042 0.69724 0.0
C2329 C 0.71356 0.62304 0.69802 0.0
C2330 C 0.74271 0.61109 0.68437 0.0
C2331 C 0.75987 0.62173 0.67834 0.0
C2332 C 0.77892 0.63184 0.68507 0.0
C2333 C 0.7804 0.63085 0.69796 0.0
C2334 C 0.76322 0.62017 0.70398 0.0
H2335 H 0.70347 0.62809 0.7016 0.0
H2336 H 0.72923 0.63566 0.69978 0.0
H2337 H 0.70976 0.61929 0.68784 0.0
H2338 H 0.72822 0.60334 0.67898 0.0
H2339 H 0.75817 0.62208 0.6684 0.0
H2340 H 0.48288 0.1228 0.74538 0.0
H2341 H 0.45784 0.13067 0.73704 0.0
H2342 H 0.45712 0.10397 0.70085 0.0
H2343 H 0.48179 0.09556 0.70919 0.0
H2344 H 0.4608 0.1544 0.71762 0.0
H2345 H 0.39762 0.07634 0.70683 0.0
H2346 H 0.41972 0.0826 0.71693 0.0
H2347 H 0.42022 0.08107 0.70039 0.0
C2348 C 0.47721 0.11837 0.73568 0.0
C2349 C 0.48422 0.10843 0.72796 0.0
C2350 C 0.463 0.12299 0.73092 0.0
C2351 C 0.45544 0.11764 0.71838 0.0
C2352 C 0.46253 0.10792 0.71061 0.0
H2353 H 0.37502 0.13322 0.66872 0.0
H2354 H 0.3982 0.12473 0.67908 0.0
C2355 C 0.47678 0.10332 0.71536 0.0
C2356 C 0.44049 0.12271 0.71336 0.0
H2357 H 0.39312 0.10204 0.69897 0.0
C2358 C 0.44594 0.14298 0.71363 0.0
C2359 C 0.42113 0.10774 0.70819 0.0
C2360 C 0.41419 0.0857 0.70814 0.0
C2361 C 0.43273 0.14874 0.70848 0.0
C2362 C 0.41346 0.13377 0.70315 0.0
C2363 C 0.40791 0.11348 0.70307 0.0
C2364 C 0.39912 0.13883 0.69711 0.0
C2365 C 0.43976 0.17078 0.70842 0.0
C2366 C 0.39173 0.14937 0.70386 0.0
C2367 C 0.37847 0.15433 0.69795 0.0
C2368 C 0.37228 0.1487 0.6852 0.0
C2369 C 0.37947 0.13783 0.67854 0.0
C2370 C 0.39272 0.13293 0.68444 0.0
H2371 H 0.45629 0.18019 0.71028 0.0
H2372 H 0.43501 0.17391 0.69937 0.0
H2373 H 0.43301 0.17534 0.71575 0.0
H2374 H 0.3962 0.15372 0.7137 0.0
H2375 H 0.37313 0.16261 0.70336 0.0
H2376 H 0.92669 0.3791 0.71753 0.0
H2377 H 0.91478 0.3449 0.70825 0.0
H2378 H 0.85963 0.34068 0.69374 0.0
H2379 H 0.87137 0.37479 0.703 0.0
H2380 H 0.88069 0.30959 0.71265 0.0
H2381 H 0.87796 0.32342 0.66321 0.0
H2382 H 0.89116 0.34347 0.67556 0.0
H2383 H 0.86443 0.33166 0.67245 0.0
C2384 C 0.91201 0.37087 0.71237 0.0
C2385 C 0.90001 0.37969 0.71094 0.0
C2386 C 0.90527 0.35138 0.70704 0.0
C2387 C 0.88646 0.34039 0.70015 0.0
C2388 C 0.87439 0.34909 0.69877 0.0
H2389 H 0.81484 0.21959 0.66377 0.0
H2390 H 0.82778 0.25413 0.67287 0.0
C2391 C 0.88113 0.36858 0.70407 0.0
C2392 C 0.87917 0.31959 0.69474 0.0
H2393 H 0.8628 0.28934 0.66741 0.0
C2394 C 0.8769 0.30517 0.70275 0.0
C2395 C 0.87423 0.3139 0.68183 0.0
C2396 C 0.87723 0.32894 0.67273 0.0
C2397 C 0.86939 0.28506 0.69822 0.0
C2398 C 0.8643 0.27936 0.68532 0.0
C2399 C 0.86666 0.29379 0.6773 0.0
C2400 C 0.85652 0.25847 0.67995 0.0
C2401 C 0.86654 0.27 0.70727 0.0
C2402 C 0.8685 0.24961 0.68081 0.0
C2403 C 0.86117 0.22995 0.67561 0.0
C2404 C 0.84177 0.21887 0.66943 0.0
C2405 C 0.82984 0.2278 0.6685 0.0
C2406 C 0.8372 0.24749 0.67368 0.0
H2407 H 0.86665 0.27575 0.71692 0.0
H2408 H 0.85222 0.25573 0.7047 0.0
H2409 H 0.8789 0.26666 0.70708 0.0
H2410 H 0.88358 0.25797 0.68542 0.0
H2411 H 0.87073 0.22347 0.67638 0.0
H2412 H 0.19305 0.96631 0.59891 0.0
H2413 H 0.21717 1.00006 0.6083 0.0
H2414 H 0.20847 0.97923 0.64462 0.0
H2415 H 0.18526 0.94512 0.63526 0.0
H2416 H 0.21126 0.02406 0.62351 0.0
H2417 H 0.26837 0.01063 0.64687 0.0
H2418 H 0.24864 0.99222 0.63564 0.0
H2419 H 0.24392 0.99482 0.65149 0.0
C2420 C 0.19661 0.96874 0.60888 0.0
C2421 C 0.18726 0.95288 0.61631 0.0
C2422 C 0.21029 0.98813 0.61425 0.0
C2423 C 0.21488 0.99215 0.62716 0.0
C2424 C 0.20554 0.97642 0.63462 0.0
H2425 H 0.26306 0.1094 0.66792 0.0
H2426 H 0.24189 0.07518 0.65795 0.0
C2427 C 0.19201 0.95695 0.62925 0.0
C2428 C 0.22862 0.01301 0.6328 0.0
H2429 H 0.2706 0.04201 0.65284 0.0
C2430 C 0.22432 0.028 0.62986 0.0
C2431 C 0.24583 0.01823 0.64094 0.0
C2432 C 0.2521 0.00316 0.64382 0.0
C2433 C 0.23651 0.04797 0.63498 0.0
C2434 C 0.25314 0.05299 0.6436 0.0
C2435 C 0.2577 0.0381 0.64636 0.0
C2436 C 0.26601 0.0736 0.64984 0.0
C2437 C 0.23162 0.06352 0.63092 0.0
C2438 C 0.28673 0.08383 0.64899 0.0
C2439 C 0.29889 0.10325 0.65487 0.0
C2440 C 0.29052 0.11277 0.66166 0.0
C2441 C 0.26986 0.10246 0.66264 0.0
C2442 C 0.25773 0.08297 0.65687 0.0
H2443 H 0.22267 0.05863 0.62171 0.0
H2444 H 0.22262 0.06581 0.63771 0.0
H2445 H 0.24542 0.07811 0.63039 0.0
H2446 H 0.29346 0.07685 0.64368 0.0
H2447 H 0.31482 0.11082 0.65405 0.0
H2448 H 0.03262 0.25169 0.6018 0.0
H2449 H 0.00203 0.24428 0.61129 0.0
H2450 H 0.99248 0.18583 0.61797 0.0
H2451 H 0.02317 0.1933 0.60874 0.0
H2452 H 0.96333 0.21559 0.60554 0.0
H2453 H 0.98984 0.2073 0.65209 0.0
H2454 H 0.00633 0.2175 0.64015 0.0
H2455 H 0.99078 0.19078 0.64017 0.0
C2456 C 0.02394 0.23725 0.60527 0.0
C2457 C 0.03039 0.22316 0.60468 0.0
C2458 C 0.00651 0.23304 0.61071 0.0
C2459 C 0.9952 0.21467 0.6156 0.0
C2460 C 0.00128 0.20034 0.61461 0.0
H2461 H 0.87243 0.16256 0.63372 0.0
H2462 H 0.90292 0.17204 0.62372 0.0
C2463 C 0.01878 0.2046 0.60931 0.0
C2464 C 0.977 0.2104 0.62167 0.0
H2465 H 0.95504 0.19603 0.64841 0.0
C2466 C 0.96155 0.21143 0.61495 0.0
C2467 C 0.97483 0.20533 0.63402 0.0
C2468 C 0.99141 0.20536 0.64207 0.0
C2469 C 0.9438 0.20709 0.62013 0.0
C2470 C 0.94124 0.20104 0.63226 0.0
C2471 C 0.95688 0.20043 0.63906 0.0
C2472 C 0.92259 0.19544 0.63817 0.0
C2473 C 0.92817 0.2094 0.61263 0.0
C2474 C 0.92352 0.20499 0.6498 0.0
C2475 C 0.90617 0.19933 0.65566 0.0
C2476 C 0.88749 0.18404 0.64998 0.0
C2477 C 0.88656 0.1745 0.63831 0.0
C2478 C 0.90397 0.18002 0.63253 0.0
H2479 H 0.93481 0.21986 0.60545 0.0
H2480 H 0.91677 0.1946 0.6078 0.0
H2481 H 0.92053 0.21503 0.61864 0.0
H2482 H 0.93771 0.21687 0.65437 0.0
H2483 H 0.90742 0.20704 0.66462 0.0
H2484 H 0.77226 0.78945 0.59453 0.0
H2485 H 0.78468 0.77001 0.60498 0.0
H2486 H 0.75112 0.76765 0.63579 0.0
H2487 H 0.73913 0.78761 0.62551 0.0
H2488 H 0.78801 0.77768 0.64374 0.0
H2489 H 0.75756 0.71137 0.60906 0.0
H2490 H 0.77276 0.73427 0.60244 0.0
H2491 H 0.74988 0.72986 0.60843 0.0
C2492 C 0.76732 0.78452 0.60346 0.0
C2493 C 0.75468 0.78994 0.6092 0.0
C2494 C 0.77435 0.77334 0.60939 0.0
C2495 C 0.76853 0.76702 0.62107 0.0
C2496 C 0.75574 0.77228 0.62676 0.0
H2497 H 0.79093 0.68121 0.6568 0.0
H2498 H 0.7759 0.69804 0.64583 0.0
C2499 C 0.74893 0.78369 0.6209 0.0
C2500 C 0.77668 0.75595 0.62766 0.0
H2501 H 0.78269 0.71508 0.62462 0.0
C2502 C 0.78671 0.7639 0.63959 0.0
C2503 C 0.77475 0.73782 0.62232 0.0
C2504 C 0.76297 0.72772 0.60991 0.0
C2505 C 0.79515 0.75445 0.64625 0.0
C2506 C 0.79411 0.7369 0.64065 0.0
C2507 C 0.78374 0.72871 0.62882 0.0
C2508 C 0.80341 0.72664 0.647 0.0
C2509 C 0.80475 0.7632 0.6593 0.0
C2510 C 0.82394 0.737 0.65108 0.0
C2511 C 0.83248 0.72748 0.65748 0.0
C2512 C 0.8207 0.70735 0.65968 0.0
C2513 C 0.80032 0.69677 0.65523 0.0
C2514 C 0.79174 0.70636 0.64897 0.0
H2515 H 0.79901 0.7726 0.66344 0.0
H2516 H 0.80206 0.75123 0.66538 0.0
H2517 H 0.82114 0.77291 0.65913 0.0
H2518 H 0.83335 0.75247 0.64935 0.0
H2519 H 0.84828 0.73587 0.66068 0.0
H2520 H 0.02399 0.7648 0.59578 0.0
H2521 H 0.99318 0.74509 0.60541 0.0
H2522 H 0.99647 0.79957 0.62072 0.0
H2523 H 0.02671 0.81936 0.61067 0.0
H2524 H 0.98683 0.74423 0.62973 0.0
H2525 H 0.93963 0.7684 0.60428 0.0
H2526 H 0.96349 0.77327 0.59961 0.0
H2527 H 0.96234 0.78901 0.61205 0.0
C2528 C 0.018 0.7726 0.60103 0.0
C2529 C 0.0278 0.79369 0.60238 0.0
C2530 C 0.00047 0.76131 0.60661 0.0
C2531 C 0.99235 0.77085 0.61362 0.0
C2532 C 0.00223 0.79187 0.61514 0.0
H2533 H 0.90667 0.71771 0.66743 0.0
H2534 H 0.93656 0.73679 0.65687 0.0
C2535 C 0.01969 0.80318 0.60951 0.0
C2536 C 0.97383 0.75881 0.6196 0.0
H2537 H 0.92655 0.75049 0.62172 0.0
C2538 C 0.9736 0.74552 0.62794 0.0
C2539 C 0.9565 0.76029 0.61711 0.0
C2540 C 0.95537 0.77335 0.60768 0.0
C2541 C 0.95664 0.73394 0.63404 0.0
C2542 C 0.93961 0.73606 0.63194 0.0
C2543 C 0.9397 0.74906 0.62343 0.0
C2544 C 0.92143 0.72475 0.63838 0.0
C2545 C 0.95702 0.71929 0.64248 0.0
C2546 C 0.90286 0.71215 0.63149 0.0
C2547 C 0.88569 0.7014 0.63749 0.0
C2548 C 0.88676 0.70306 0.65052 0.0
C2549 C 0.90534 0.71593 0.65739 0.0
C2550 C 0.92248 0.72676 0.65137 0.0
H2551 H 0.96855 0.71533 0.64032 0.0
H2552 H 0.9607 0.72622 0.65222 0.0
H2553 H 0.94225 0.7053 0.64175 0.0
H2554 H 0.90168 0.71046 0.62145 0.0
H2555 H 0.87164 0.69165 0.6319 0.0
H2556 H 0.19401 0.21306 0.58132 0.0
H2557 H 0.21662 0.20402 0.59205 0.0
H2558 H 0.21144 0.23029 0.62679 0.0
H2559 H 0.18882 0.23941 0.61614 0.0
H2560 H 0.25322 0.2286 0.60597 0.0
H2561 H 0.19824 0.17425 0.63464 0.0
H2562 H 0.19087 0.18336 0.62157 0.0
H2563 H 0.20055 0.1986 0.63621 0.0
C2564 C 0.19777 0.21701 0.59124 0.0
C2565 C 0.18957 0.22689 0.59789 0.0
C2566 C 0.21062 0.21176 0.59735 0.0
C2567 C 0.21545 0.21621 0.61023 0.0
C2568 C 0.20752 0.2263 0.61689 0.0
H2569 H 0.29162 0.19945 0.66396 0.0
H2570 H 0.26955 0.20887 0.65301 0.0
C2571 C 0.19462 0.23151 0.61079 0.0
C2572 C 0.2291 0.2106 0.61666 0.0
H2573 H 0.23213 0.183 0.63921 0.0
C2574 C 0.2486 0.21856 0.6132 0.0
C2575 C 0.22301 0.19749 0.62608 0.0
C2576 C 0.20198 0.18776 0.62979 0.0
C2577 C 0.26231 0.21405 0.61908 0.0
C2578 C 0.25623 0.20101 0.62853 0.0
C2579 C 0.23673 0.19303 0.63197 0.0
C2580 C 0.2699 0.19551 0.63502 0.0
C2581 C 0.2833 0.2236 0.61532 0.0
C2582 C 0.27726 0.18471 0.62853 0.0
C2583 C 0.28989 0.17928 0.63476 0.0
C2584 C 0.29532 0.1845 0.6476 0.0
C2585 C 0.28781 0.19524 0.65407 0.0
C2586 C 0.27517 0.20063 0.64784 0.0
H2587 H 0.28695 0.23678 0.61014 0.0
H2588 H 0.29443 0.22845 0.62357 0.0
H2589 H 0.28478 0.21247 0.60922 0.0
H2590 H 0.27307 0.18031 0.61868 0.0
H2591 H 0.29532 0.17094 0.6295 0.0
H2592 H 0.78871 0.95476 0.63361 0.0
H2593 H 0.80114 0.98903 0.64288 0.0
H2594 H 0.74683 0.98627 0.62809 0.0
H2595 H 0.73405 0.95177 0.61902 0.0
H2596 H 0.80693 0.02176 0.62956 0.0
H2597 H 0.75362 0.00738 0.66495 0.0
H2598 H 0.7572 0.9879 0.65769 0.0
H2599 H 0.74235 0.99627 0.64948 0.0
C2600 C 0.77923 0.96129 0.63253 0.0
C2601 C 0.76035 0.95051 0.62563 0.0
C2602 C 0.78642 0.98091 0.63775 0.0
C2603 C 0.77482 0.99008 0.63626 0.0
C2604 C 0.75588 0.97934 0.62949 0.0
H2605 H 0.79471 0.1089 0.65831 0.0
H2606 H 0.78119 0.07405 0.64971 0.0
C2607 C 0.74869 0.95971 0.62423 0.0
C2608 C 0.78297 0.0112 0.6413 0.0
H2609 H 0.77556 0.04135 0.66196 0.0
C2610 C 0.80015 0.02607 0.63668 0.0
C2611 C 0.77398 0.01672 0.65053 0.0
C2612 C 0.75586 0.00125 0.65605 0.0
C2613 C 0.80846 0.04641 0.64094 0.0
C2614 C 0.79957 0.05193 0.65025 0.0
C2615 C 0.78235 0.03705 0.65483 0.0
C2616 C 0.80793 0.07307 0.65536 0.0
C2617 C 0.82641 0.06182 0.63524 0.0
C2618 C 0.82737 0.08398 0.66148 0.0
C2619 C 0.83515 0.10391 0.66634 0.0
C2620 C 0.82354 0.11316 0.66523 0.0
C2621 C 0.80402 0.10215 0.65922 0.0
C2622 C 0.79627 0.08226 0.65434 0.0
H2623 H 0.82802 0.05578 0.62611 0.0
H2624 H 0.82535 0.07543 0.63398 0.0
H2625 H 0.84014 0.06632 0.64148 0.0
H2626 H 0.83646 0.07704 0.66259 0.0
H2627 H 0.85021 0.11204 0.67099 0.0
H2628 H 0.50419 0.37421 0.70939 0.0
H2629 H 0.48046 0.34032 0.69979 0.0
H2630 H 0.43148 0.34608 0.71211 0.0
H2631 H 0.45508 0.38023 0.72145 0.0
H2632 H 0.4532 0.30785 0.71205 0.0
H2633 H 0.41418 0.3263 0.67498 0.0
H2634 H 0.43799 0.3448 0.68314 0.0
H2635 H 0.41535 0.33696 0.69039 0.0
C2636 C 0.48834 0.36841 0.70987 0.0
C2637 C 0.48151 0.37996 0.71613 0.0
C2638 C 0.47483 0.349 0.70446 0.0
C2639 C 0.45422 0.3408 0.70513 0.0
C2640 C 0.44731 0.35226 0.71133 0.0
H2641 H 0.35231 0.22342 0.67761 0.0
H2642 H 0.37381 0.25753 0.68785 0.0
C2643 C 0.46083 0.37168 0.71676 0.0
C2644 C 0.4401 0.31996 0.69971 0.0
H2645 H 0.40128 0.29192 0.67735 0.0
C2646 C 0.44185 0.30435 0.70446 0.0
C2647 C 0.42525 0.31547 0.68987 0.0
C2648 C 0.4231 0.33174 0.6842 0.0
C2649 C 0.42911 0.28431 0.69963 0.0
C2650 C 0.41449 0.27984 0.68964 0.0
C2651 C 0.41252 0.29542 0.68501 0.0
C2652 C 0.40149 0.25915 0.68361 0.0
C2653 C 0.43125 0.26808 0.70536 0.0
C2654 C 0.40995 0.2489 0.67773 0.0
C2655 C 0.39773 0.22947 0.67191 0.0
C2656 C 0.37685 0.22004 0.67179 0.0
C2657 C 0.36838 0.23035 0.6776 0.0
C2658 C 0.38062 0.2498 0.68343 0.0
H2659 H 0.43906 0.27325 0.7149 0.0
H2660 H 0.41641 0.25451 0.70573 0.0
H2661 H 0.44021 0.2638 0.69965 0.0
H2662 H 0.426 0.256 0.67754 0.0
H2663 H 0.40464 0.22188 0.66745 0.0
H2664 H 0.62236 0.0874 0.71699 0.0
H2665 H 0.65209 0.09656 0.70615 0.0
H2666 H 0.68963 0.12437 0.74059 0.0
H2667 H 0.66001 0.11529 0.75149 0.0
H2668 H 0.68382 0.13447 0.70425 0.0
H2669 H 0.71025 0.08843 0.72721 0.0
H2670 H 0.68545 0.08464 0.72822 0.0
H2671 H 0.70647 0.10464 0.73785 0.0
C2672 C 0.63695 0.09547 0.72226 0.0
C2673 C 0.63882 0.10056 0.73512 0.0
C2674 C 0.6539 0.10061 0.71606 0.0
C2675 C 0.67305 0.11088 0.7226 0.0
C2676 C 0.67498 0.11602 0.73542 0.0
H2677 H 0.79429 0.16296 0.70265 0.0
H2678 H 0.76404 0.15253 0.7131 0.0
C2679 C 0.65803 0.11083 0.74163 0.0
C2680 C 0.69103 0.1169 0.71592 0.0
H2681 H 0.73264 0.11248 0.71476 0.0
C2682 C 0.69443 0.12956 0.70648 0.0
C2683 C 0.70485 0.11049 0.71887 0.0
C2684 C 0.70153 0.09615 0.72851 0.0
C2685 C 0.71151 0.13631 0.70009 0.0
C2686 C 0.7254 0.13003 0.70311 0.0
C2687 C 0.72197 0.11731 0.7125 0.0
C2688 C 0.74363 0.13651 0.69665 0.0
C2689 C 0.7148 0.15049 0.69035 0.0
C2690 C 0.74214 0.13082 0.68395 0.0
C2691 C 0.75939 0.13673 0.67793 0.0
C2692 C 0.77846 0.1484 0.68452 0.0
C2693 C 0.77986 0.15403 0.69726 0.0
C2694 C 0.7626 0.14807 0.70327 0.0
H2695 H 0.70534 0.1575 0.69116 0.0
H2696 H 0.73073 0.16255 0.69104 0.0
H2697 H 0.7109 0.14207 0.68102 0.0
H2698 H 0.72762 0.12162 0.67872 0.0
H2699 H 0.75775 0.13206 0.66812 0.0
H2700 H 0.91739 0.53694 0.70412 0.0
H2701 H 0.90368 0.55586 0.69456 0.0
H2702 H 0.89783 0.57745 0.73074 0.0
H2703 H 0.91011 0.55742 0.74036 0.0
H2704 H 0.86518 0.56551 0.71604 0.0
H2705 H 0.92961 0.61441 0.6911 0.0
H2706 H 0.9208 0.58838 0.68681 0.0
H2707 H 0.93119 0.59909 0.70251 0.0
C2708 C 0.91308 0.54559 0.71007 0.0
C2709 C 0.9149 0.5456 0.72304 0.0
C2710 C 0.90554 0.5567 0.70457 0.0
C2711 C 0.90009 0.56842 0.71193 0.0
C2712 C 0.90209 0.56865 0.72487 0.0
H2713 H 0.87298 0.65515 0.68181 0.0
H2714 H 0.88811 0.63881 0.69318 0.0
C2715 C 0.90934 0.55733 0.73037 0.0
C2716 C 0.89131 0.57959 0.70614 0.0
H2717 H 0.8987 0.61303 0.68505 0.0
C2718 C 0.8726 0.57604 0.70935 0.0
C2719 C 0.90112 0.59358 0.69755 0.0
C2720 C 0.92188 0.59926 0.69439 0.0
C2721 C 0.86325 0.58577 0.70403 0.0
C2722 C 0.87254 0.59888 0.69492 0.0
C2723 C 0.89144 0.60277 0.69191 0.0
C2724 C 0.86297 0.60876 0.68841 0.0
C2725 C 0.8437 0.58213 0.70841 0.0
C2726 C 0.84386 0.59732 0.68189 0.0
C2727 C 0.83503 0.60668 0.67561 0.0
C2728 C 0.84532 0.62761 0.67556 0.0
C2729 C 0.86457 0.63902 0.68189 0.0
C2730 C 0.87328 0.62969 0.6883 0.0
H2731 H 0.84202 0.57722 0.71789 0.0
H2732 H 0.84243 0.59583 0.70847 0.0
H2733 H 0.83113 0.57004 0.7021 0.0
H2734 H 0.83586 0.58112 0.68151 0.0
H2735 H 0.82025 0.59752 0.67069 0.0
H2736 H 0.45004 0.9707 0.18225 0.0
H2737 H 0.45693 0.98095 0.16132 0.0
H2738 H 0.47051 0.93402 0.153 0.0
H2739 H 0.4634 0.92353 0.17379 0.0
H2740 H 0.49429 0.99302 0.15069 0.0
H2741 H 0.42974 0.92676 0.12363 0.0
H2742 H 0.43023 0.93295 0.14001 0.0
H2743 H 0.44372 0.92102 0.13481 0.0
C2744 C 0.45424 0.96242 0.1759 0.0
C2745 C 0.45618 0.94631 0.17966 0.0
C2746 C 0.45826 0.96834 0.16399 0.0
C2747 C 0.46401 0.95809 0.1556 0.0
C2748 C 0.46583 0.94194 0.15929 0.0
H2749 H 0.50132 0.96749 0.08195 0.0
H2750 H 0.49056 0.95778 0.1024 0.0
C2751 C 0.46194 0.9361 0.1712 0.0
C2752 C 0.46896 0.96474 0.14314 0.0
H2753 H 0.45554 0.94927 0.11223 0.0
C2754 C 0.48574 0.98358 0.14226 0.0
C2755 C 0.45779 0.9523 0.1322 0.0
C2756 C 0.43925 0.93219 0.13264 0.0
C2757 C 0.49206 0.99008 0.1307 0.0
C2758 C 0.48099 0.97755 0.11974 0.0
C2759 C 0.46401 0.95883 0.12064 0.0
C2760 C 0.48708 0.98337 0.10726 0.0
C2761 C 0.51094 0.00996 0.13037 0.0
C2762 C 0.48836 0.00079 0.10312 0.0
C2763 C 0.49456 0.0064 0.09146 0.0
C2764 C 0.49935 0.99455 0.08365 0.0
C2765 C 0.4976 0.97686 0.08771 0.0
C2766 C 0.49151 0.97132 0.0994 0.0
H2767 H 0.52033 0.01515 0.13942 0.0
H2768 H 0.52 0.00901 0.12309 0.0
H2769 H 0.5069 0.02143 0.12822 0.0
H2770 H 0.48452 0.01003 0.1089 0.0
H2771 H 0.49542 0.01992 0.0885 0.0
H2772 H 0.0582 0.54475 0.18595 0.0
H2773 H 0.05036 0.53797 0.16341 0.0
H2774 H 0.00521 0.47714 0.16736 0.0
H2775 H 0.01287 0.48381 0.19001 0.0
H2776 H 0.04699 0.4989 0.1473 0.0
H2777 H 0.98096 0.5098 0.14646 0.0
H2778 H 0.0015 0.52279 0.15853 0.0
H2779 H 0.98507 0.4963 0.1582 0.0
C2780 C 0.04653 0.52996 0.18203 0.0
C2781 C 0.03604 0.51484 0.18973 0.0
C2782 C 0.04219 0.52609 0.16918 0.0
C2783 C 0.02723 0.5071 0.16381 0.0
C2784 C 0.01683 0.49188 0.1714 0.0
H2785 H 0.97753 0.48101 0.08622 0.0
H2786 H 0.98263 0.47774 0.10824 0.0
C2787 C 0.02125 0.4957 0.18429 0.0
C2788 C 0.02231 0.50355 0.15025 0.0
H2789 H 0.99145 0.50531 0.12729 0.0
C2790 C 0.03473 0.50006 0.14288 0.0
C2791 C 0.00623 0.50495 0.14461 0.0
C2792 C 0.99258 0.50868 0.15228 0.0
C2793 C 0.0317 0.49833 0.12989 0.0
C2794 C 0.01619 0.50073 0.12421 0.0
C2795 C 0.00337 0.50354 0.13164 0.0
C2796 C 0.01362 0.5015 0.11066 0.0
C2797 C 0.04514 0.49396 0.1224 0.0
C2798 C 0.02934 0.51593 0.10471 0.0
C2799 C 0.0265 0.51775 0.09214 0.0
C2800 C 0.00777 0.50538 0.08534 0.0
C2801 C 0.99208 0.49083 0.09127 0.0
C2802 C 0.995 0.48891 0.10382 0.0
H2803 H 0.05127 0.48597 0.12765 0.0
H2804 H 0.03705 0.48475 0.11352 0.0
H2805 H 0.05797 0.50831 0.12029 0.0
H2806 H 0.04367 0.52622 0.10988 0.0
H2807 H 0.03875 0.52931 0.08786 0.0
H2808 H 0.4813 0.55271 0.18292 0.0
H2809 H 0.48543 0.5477 0.16111 0.0
H2810 H 0.46895 0.48635 0.16526 0.0
H2811 H 0.46451 0.49124 0.18713 0.0
H2812 H 0.51182 0.53817 0.15206 0.0
H2813 H 0.43429 0.47994 0.13388 0.0
H2814 H 0.44015 0.49413 0.14886 0.0
H2815 H 0.44462 0.47347 0.14685 0.0
C2816 C 0.47848 0.53813 0.17917 0.0
C2817 C 0.47266 0.52238 0.18673 0.0
C2818 C 0.48078 0.53527 0.16671 0.0
C2819 C 0.47731 0.51661 0.16152 0.0
C2820 C 0.47128 0.50075 0.16899 0.0
H2821 H 0.50313 0.48432 0.08922 0.0
H2822 H 0.49473 0.48429 0.11066 0.0
C2823 C 0.46882 0.50357 0.18148 0.0
C2824 C 0.48115 0.5143 0.14847 0.0
H2825 H 0.45928 0.48832 0.12004 0.0
C2826 C 0.50031 0.52728 0.14507 0.0
C2827 C 0.46613 0.50003 0.13936 0.0
C2828 C 0.44509 0.4862 0.14235 0.0
C2829 C 0.50482 0.52647 0.13282 0.0
C2830 C 0.48978 0.51237 0.12372 0.0
C2831 C 0.47073 0.49911 0.1271 0.0
C2832 C 0.49359 0.51167 0.11058 0.0
C2833 C 0.52564 0.54068 0.12963 0.0
C2834 C 0.49542 0.52693 0.10347 0.0
C2835 C 0.50018 0.527 0.09126 0.0
C2836 C 0.50329 0.51183 0.08598 0.0
C2837 C 0.50104 0.49632 0.09309 0.0
C2838 C 0.49613 0.4962 0.10528 0.0
H2839 H 0.5364 0.54837 0.13805 0.0
H2840 H 0.53114 0.53252 0.12379 0.0
H2841 H 0.5253 0.55226 0.12422 0.0
H2842 H 0.49346 0.53897 0.10744 0.0
H2843 H 0.50198 0.53923 0.08607 0.0
H2844 H 0.9538 0.49998 0.8129 0.0
H2845 H 0.96197 0.50545 0.83537 0.0
H2846 H 0.99786 0.47735 0.83211 0.0
H2847 H 0.99056 0.47269 0.80959 0.0
H2848 H 0.9525 0.47672 0.85084 0.0
H2849 H 0.03471 0.52685 0.85541 0.0
H2850 H 0.01922 0.52219 0.84113 0.0
H2851 H 0.02666 0.50445 0.84525 0.0
C2852 C 0.96386 0.49543 0.81692 0.0
C2853 C 0.97158 0.48595 0.80942 0.0
C2854 C 0.96838 0.49843 0.82978 0.0
C2855 C 0.98073 0.49206 0.83541 0.0
C2856 C 0.98865 0.4828 0.82796 0.0
H2857 H 0.00875 0.47041 0.90815 0.0
H2858 H 0.00446 0.47319 0.88604 0.0
C2859 C 0.98423 0.47988 0.81509 0.0
C2860 C 0.98411 0.49373 0.84911 0.0
H2861 H 0.02057 0.51063 0.87337 0.0
C2862 C 0.96737 0.48437 0.85579 0.0
C2863 C 0.00354 0.50374 0.85554 0.0
C2864 C 0.02204 0.51505 0.84898 0.0
C2865 C 0.96955 0.48413 0.86867 0.0
C2866 C 0.98897 0.49361 0.87503 0.0
C2867 C 0.00571 0.50333 0.86842 0.0
C2868 C 0.99217 0.49274 0.88846 0.0
C2869 C 0.95113 0.47317 0.87537 0.0
C2870 C 0.98686 0.50303 0.89712 0.0
C2871 C 0.98947 0.50165 0.9098 0.0
C2872 C 0.99744 0.48994 0.91402 0.0
C2873 C 0.00288 0.47981 0.90526 0.0
C2874 C 1.00035 0.48129 0.89262 0.0
H2875 H 0.9374 0.46402 0.86886 0.0
H2876 H 0.95289 0.46321 0.88165 0.0
H2877 H 0.94908 0.48423 0.88115 0.0
H2878 H 0.98071 0.51213 0.89405 0.0
H2879 H 0.98542 0.50988 0.91629 0.0
H2880 H 0.49123 0.4745 0.81136 0.0
H2881 H 0.48721 0.47873 0.83329 0.0
H2882 H 0.54999 0.50065 0.84277 0.0
H2883 H 0.55412 0.49609 0.82085 0.0
H2884 H 0.49727 0.45866 0.85189 0.0
H2885 H 0.53841 0.54173 0.86221 0.0
H2886 H 0.52897 0.52945 0.84664 0.0
H2887 H 0.55101 0.53094 0.85413 0.0
C2888 C 0.50421 0.48027 0.81809 0.0
C2889 C 0.52297 0.48482 0.81435 0.0
C2890 C 0.5019 0.48279 0.83061 0.0
C2891 C 0.51832 0.49011 0.83961 0.0
C2892 C 0.5372 0.49527 0.83592 0.0
H2893 H 0.52685 0.50564 0.92044 0.0
H2894 H 0.53431 0.50579 0.89883 0.0
C2895 C 0.53953 0.49268 0.82339 0.0
C2896 C 0.51527 0.49081 0.85291 0.0
H2897 H 0.52596 0.5226 0.87908 0.0
C2898 C 0.50351 0.47263 0.85785 0.0
C2899 C 0.52363 0.50905 0.86064 0.0
C2900 C 0.53612 0.52897 0.85568 0.0
C2901 C 0.49986 0.47216 0.87034 0.0
C2902 C 0.50778 0.49043 0.87803 0.0
C2903 C 0.51983 0.50863 0.87314 0.0
C2904 C 0.50334 0.49088 0.8911 0.0
C2905 C 0.48783 0.45207 0.87523 0.0
C2906 C 0.4835 0.48278 0.8939 0.0
C2907 C 0.47917 0.48242 0.90621 0.0
C2908 C 0.49463 0.49042 0.916 0.0
C2909 C 0.51456 0.49904 0.91314 0.0
C2910 C 0.51887 0.49929 0.9008 0.0
H2911 H 0.48801 0.4399 0.86935 0.0
H2912 H 0.4936 0.45229 0.88488 0.0
H2913 H 0.47203 0.44839 0.87521 0.0
H2914 H 0.47132 0.47656 0.88655 0.0
H2915 H 0.46365 0.47549 0.90804 0.0
H2916 H 0.54149 0.03156 0.81726 0.0
H2917 H 0.53676 0.02046 0.83814 0.0
H2918 H 0.51521 0.06082 0.84764 0.0
H2919 H 0.52023 0.07227 0.827 0.0
H2920 H 0.55217 0.04523 0.8631 0.0
H2921 H 0.4694 0.00263 0.85312 0.0
H2922 H 0.48601 0.00981 0.84104 0.0
H2923 H 0.4815 0.02796 0.84906 0.0
C2924 C 0.53602 0.03827 0.82386 0.0
C2925 C 0.53099 0.0526 0.82042 0.0
C2926 C 0.53326 0.03186 0.83575 0.0
C2927 C 0.52537 0.03963 0.84432 0.0
C2928 C 0.52102 0.05443 0.84107 0.0
H2929 H 0.48448 0.02378 0.91633 0.0
H2930 H 0.49422 0.03332 0.89572 0.0
C2931 C 0.52381 0.06086 0.82925 0.0
C2932 C 0.52101 0.03199 0.85658 0.0
H2933 H 0.48246 0.00747 0.87415 0.0
C2934 C 0.53696 0.03678 0.86553 0.0
C2935 C 0.50114 0.02097 0.85963 0.0
C2936 C 0.48347 0.01486 0.8502 0.0
C2937 C 0.53352 0.03152 0.87768 0.0
C2938 C 0.51362 0.02094 0.88082 0.0
C2939 C 0.4977 0.01568 0.87173 0.0
C2940 C 0.50883 0.01581 0.89358 0.0
C2941 C 0.55119 0.03801 0.88718 0.0
C2942 C 0.51384 0.00281 0.89923 0.0
C2943 C 0.50826 0.9973 0.91103 0.0
C2944 C 0.49739 0.00454 0.91731 0.0
C2945 C 0.49259 0.01772 0.91166 0.0
C2946 C 0.49823 0.02326 0.89991 0.0
H2947 H 0.56533 0.04979 0.88403 0.0
H2948 H 0.54884 0.04381 0.89615 0.0
H2949 H 0.55295 0.02491 0.8888 0.0
H2950 H 0.52166 0.99657 0.8944 0.0
H2951 H 0.51196 0.98693 0.91508 0.0
H2952 H 0.13001 0.25868 0.50721 0.0
H2953 H 0.13706 0.26953 0.48649 0.0
H2954 H 0.12254 0.3157 0.49509 0.0
H2955 H 0.11572 0.30511 0.51597 0.0
H2956 H 0.11029 0.27284 0.46778 0.0
H2957 H 0.17992 0.34529 0.4832 0.0
H2958 H 0.16938 0.32502 0.49292 0.0
H2959 H 0.15806 0.34016 0.49078 0.0
C2960 C 0.12845 0.27124 0.50473 0.0
C2961 C 0.12246 0.28115 0.51325 0.0
C2962 C 0.13235 0.27732 0.49287 0.0
C2963 C 0.13051 0.29352 0.48933 0.0
C2964 C 0.12425 0.30329 0.49772 0.0
H2965 H 0.16143 0.35403 0.42192 0.0
H2966 H 0.1501 0.34404 0.44224 0.0
C2967 C 0.12022 0.29713 0.50959 0.0
C2968 C 0.13527 0.30016 0.47685 0.0
H2969 H 0.16953 0.33805 0.4618 0.0
C2970 C 0.12319 0.28712 0.46644 0.0
C2971 C 0.15205 0.31883 0.47518 0.0
C2972 C 0.16574 0.33315 0.48608 0.0
C2973 C 0.12748 0.29226 0.45437 0.0
C2974 C 0.14459 0.31071 0.45268 0.0
C2975 C 0.15645 0.3239 0.46311 0.0
C2976 C 0.15083 0.31639 0.4402 0.0
C2977 C 0.1135 0.27796 0.44355 0.0
C2978 C 0.15518 0.30427 0.43235 0.0
C2979 C 0.16164 0.30992 0.42075 0.0
C2980 C 0.16411 0.32796 0.41682 0.0
C2981 C 0.15985 0.34014 0.42472 0.0
C2982 C 0.15329 0.33441 0.43631 0.0
H2983 H 0.09835 0.26791 0.44632 0.0
H2984 H 0.11211 0.28618 0.43586 0.0
H2985 H 0.11947 0.26841 0.44003 0.0
H2986 H 0.15392 0.29057 0.43529 0.0
H2987 H 0.16513 0.30039 0.41497 0.0
H2988 H 0.71421 0.88441 0.52127 0.0
H2989 H 0.70554 0.87898 0.49886 0.0
H2990 H 0.67189 0.81513 0.50075 0.0
H2991 H 0.67993 0.82037 0.5233 0.0
H2992 H 0.70155 0.82996 0.48218 0.0
H2993 H 0.64855 0.85872 0.47997 0.0
H2994 H 0.67179 0.87446 0.48947 0.0
H2995 H 0.65452 0.85018 0.49386 0.0
C2996 C 0.70464 0.86921 0.517 0.0
C2997 C 0.69767 0.85284 0.52413 0.0
C2998 C 0.69979 0.86615 0.50418 0.0
C2999 C 0.68795 0.84669 0.49822 0.0
C3000 C 0.68102 0.83027 0.50523 0.0
H3001 H 0.64237 0.82321 0.41979 0.0
H3002 H 0.64519 0.82039 0.44209 0.0
C3003 C 0.68573 0.83331 0.51809 0.0
C3004 C 0.68343 0.84361 0.48459 0.0
H3005 H 0.66012 0.85398 0.46094 0.0
C3006 C 0.69232 0.83499 0.47751 0.0
C3007 C 0.67124 0.85004 0.47859 0.0
C3008 C 0.66081 0.85873 0.48583 0.0
C3009 C 0.68997 0.83338 0.46451 0.0
C3010 C 0.67854 0.84067 0.45851 0.0
C3011 C 0.66898 0.84852 0.4656 0.0
C3012 C 0.67707 0.84119 0.44492 0.0
C3013 C 0.69987 0.82408 0.45727 0.0
C3014 C 0.69408 0.8538 0.43918 0.0
C3015 C 0.69251 0.85549 0.42649 0.0
C3016 C 0.6739 0.84455 0.41932 0.0
C3017 C 0.65694 0.83164 0.42506 0.0
C3018 C 0.6585 0.83008 0.43778 0.0
H3019 H 0.70387 0.8149 0.46298 0.0
H3020 H 0.68995 0.8145 0.44891 0.0
H3021 H 0.71382 0.83616 0.45415 0.0
H3022 H 0.70849 0.8627 0.44458 0.0
H3023 H 0.70584 0.86545 0.42229 0.0
H3024 H 0.17067 0.85041 0.52224 0.0
H3025 H 0.17367 0.84531 0.50019 0.0
H3026 H 0.11245 0.83016 0.49131 0.0
H3027 H 0.10945 0.83573 0.51332 0.0
H3028 H 0.15066 0.81115 0.48209 0.0
H3029 H 0.14523 0.87782 0.47111 0.0
H3030 H 0.15004 0.87357 0.48678 0.0
H3031 H 0.12522 0.8596 0.4789 0.0
C3032 C 0.15784 0.846 0.51559 0.0
C3033 C 0.13989 0.84368 0.51951 0.0
C3034 C 0.15954 0.84296 0.50302 0.0
C3035 C 0.14337 0.83764 0.49413 0.0
C3036 C 0.12518 0.83453 0.49803 0.0
H3037 H 0.14126 0.8345 0.41347 0.0
H3038 H 0.13106 0.83061 0.4345 0.0
C3039 C 0.12345 0.83754 0.51061 0.0
C3040 C 0.14592 0.83619 0.48078 0.0
H3041 H 0.14872 0.85919 0.45451 0.0
C3042 C 0.15014 0.82157 0.47602 0.0
C3043 C 0.14518 0.8498 0.47291 0.0
C3044 C 0.14133 0.86621 0.47765 0.0
C3045 C 0.15375 0.82025 0.46358 0.0
C3046 C 0.15353 0.83419 0.4558 0.0
C3047 C 0.14885 0.84851 0.46049 0.0
C3048 C 0.15912 0.83493 0.44294 0.0
C3049 C 0.15768 0.80389 0.45888 0.0
C3050 C 0.17828 0.83868 0.44072 0.0
C3051 C 0.18411 0.8408 0.42872 0.0
C3052 C 0.17095 0.83938 0.4187 0.0
C3053 C 0.15167 0.83542 0.42094 0.0
C3054 C 0.14585 0.8333 0.43296 0.0
H3055 H 0.15134 0.79109 0.46462 0.0
H3056 H 0.15125 0.79823 0.4491 0.0
H3057 H 0.17407 0.80997 0.45935 0.0
H3058 H 0.18892 0.84043 0.44831 0.0
H3059 H 0.19898 0.84364 0.4273 0.0
H3060 H 0.6621 0.8143 0.14428 0.0
H3061 H 0.66828 0.81868 0.16694 0.0
H3062 H 0.62546 0.83862 0.16939 0.0
H3063 H 0.61883 0.83384 0.14678 0.0
H3064 H 0.68042 0.85379 0.18453 0.0
H3065 H 0.60503 0.78968 0.19003 0.0
H3066 H 0.6157 0.79343 0.17541 0.0
H3067 H 0.60555 0.80855 0.18089 0.0
C3068 C 0.65401 0.81962 0.14964 0.0
C3069 C 0.63987 0.82359 0.14374 0.0
C3070 C 0.65765 0.82224 0.16256 0.0
C3071 C 0.64714 0.82873 0.16979 0.0
C3072 C 0.63355 0.83338 0.16394 0.0
H3073 H 0.63982 0.83181 0.24972 0.0
H3074 H 0.63636 0.83628 0.22776 0.0
C3075 C 0.62992 0.83081 0.15103 0.0
C3076 C 0.64983 0.82984 0.18346 0.0
H3077 H 0.62597 0.80755 0.2083 0.0
C3078 C 0.66853 0.84376 0.18976 0.0
C3079 C 0.63422 0.81676 0.19021 0.0
C3080 C 0.61401 0.80113 0.18383 0.0
C3081 C 0.67206 0.84491 0.20269 0.0
C3082 C 0.65659 0.83148 0.20941 0.0
C3083 C 0.63778 0.81785 0.20312 0.0
C3084 C 0.65983 0.8305 0.22287 0.0
C3085 C 0.69226 0.86056 0.20904 0.0
C3086 C 0.67416 0.82576 0.22738 0.0
C3087 C 0.67625 0.82332 0.2399 0.0
C3088 C 0.6639 0.82536 0.24816 0.0
C3089 C 0.64971 0.83035 0.24364 0.0
C3090 C 0.64765 0.83282 0.23109 0.0
H3091 H 0.69997 0.87331 0.20339 0.0
H3092 H 0.69092 0.86644 0.21829 0.0
H3093 H 0.70181 0.85372 0.21032 0.0
H3094 H 0.68343 0.82348 0.22116 0.0
H3095 H 0.68747 0.81971 0.24311 0.0
H3096 H 0.20072 0.84618 0.14807 0.0
H3097 H 0.19774 0.85207 0.17015 0.0
H3098 H 0.18227 0.79127 0.17513 0.0
H3099 H 0.18523 0.78529 0.15319 0.0
H3100 H 0.16071 0.82658 0.18271 0.0
H3101 H 0.22942 0.82873 0.20295 0.0
H3102 H 0.22646 0.83393 0.1872 0.0
H3103 H 0.21419 0.80854 0.19108 0.0
C3104 C 0.19687 0.83416 0.15393 0.0
C3105 C 0.19313 0.81526 0.14893 0.0
C3106 C 0.19512 0.83752 0.16648 0.0
C3107 C 0.18996 0.82214 0.17424 0.0
C3108 C 0.18645 0.80336 0.1693 0.0
H3109 H 0.16499 0.7967 0.24877 0.0
H3110 H 0.17356 0.79843 0.22739 0.0
C3111 C 0.18799 0.79994 0.15676 0.0
C3112 C 0.18735 0.82524 0.1874 0.0
H3113 H 0.20578 0.82586 0.21684 0.0
C3114 C 0.17066 0.8267 0.19022 0.0
C3115 C 0.20034 0.82525 0.19709 0.0
C3116 C 0.21872 0.82418 0.1945 0.0
C3117 C 0.16613 0.82733 0.2025 0.0
C3118 C 0.17896 0.827 0.21223 0.0
C3119 C 0.19596 0.8261 0.20939 0.0
C3120 C 0.17447 0.82655 0.22533 0.0
C3121 C 0.14715 0.82738 0.20488 0.0
C3122 C 0.1725 0.84197 0.23136 0.0
C3123 C 0.16746 0.84094 0.24355 0.0
C3124 C 0.16463 0.82462 0.25 0.0
C3125 C 0.16721 0.80952 0.24407 0.0
C3126 C 0.17206 0.81047 0.23185 0.0
H3127 H 0.13658 0.82247 0.19634 0.0
H3128 H 0.13946 0.81741 0.21209 0.0
H3129 H 0.15091 0.84283 0.20821 0.0
H3130 H 0.17481 0.85479 0.22663 0.0
H3131 H 0.16589 0.85296 0.24796 0.0
H3132 H 0.16375 0.35978 0.14884 0.0
H3133 H 0.15968 0.34971 0.16986 0.0
H3134 H 0.22288 0.38894 0.1802 0.0
H3135 H 0.22699 0.3997 0.1593 0.0
H3136 H 0.177 0.33213 0.18374 0.0
H3137 H 0.19765 0.40752 0.206 0.0
H3138 H 0.19217 0.40104 0.18944 0.0
H3139 H 0.21602 0.40686 0.19694 0.0
C3140 C 0.17678 0.36639 0.1556 0.0
C3141 C 0.19566 0.38074 0.15243 0.0
C3142 C 0.17445 0.3605 0.16758 0.0
C3143 C 0.19091 0.36884 0.17664 0.0
C3144 C 0.20991 0.38261 0.17341 0.0
H3145 H 0.19412 0.35293 0.25575 0.0
H3146 H 0.20385 0.3621 0.23502 0.0
C3147 C 0.21226 0.38856 0.16142 0.0
C3148 C 0.18797 0.3633 0.1895 0.0
H3149 H 0.19056 0.38219 0.21923 0.0
C3150 C 0.18004 0.34308 0.19152 0.0
C3151 C 0.19197 0.37764 0.19962 0.0
C3152 C 0.19976 0.39946 0.19794 0.0
C3153 C 0.17586 0.33676 0.20338 0.0
C3154 C 0.17946 0.35103 0.21343 0.0
C3155 C 0.18785 0.37132 0.21149 0.0
C3156 C 0.17369 0.34507 0.22592 0.0
C3157 C 0.16763 0.31489 0.20506 0.0
C3158 C 0.1535 0.33269 0.22767 0.0
C3159 C 0.14787 0.32758 0.23949 0.0
C3160 C 0.16233 0.3348 0.24982 0.0
C3161 C 0.18258 0.34727 0.24803 0.0
C3162 C 0.18819 0.35243 0.23619 0.0
H3163 H 0.17082 0.30705 0.19739 0.0
H3164 H 0.17401 0.31309 0.214 0.0
H3165 H 0.15116 0.30747 0.20514 0.0
H3166 H 0.14203 0.32725 0.21991 0.0
H3167 H 0.13212 0.3183 0.24056 0.0
H3168 H 0.79729 0.59174 0.84067 0.0
H3169 H 0.80437 0.60263 0.81996 0.0
H3170 H 0.78881 0.64809 0.82837 0.0
H3171 H 0.78202 0.63751 0.84923 0.0
H3172 H 0.77795 0.60535 0.80105 0.0
H3173 H 0.84607 0.67881 0.81689 0.0
H3174 H 0.83557 0.65858 0.82664 0.0
H3175 H 0.82388 0.67332 0.82417 0.0
C3176 C 0.7955 0.60414 0.83815 0.0
C3177 C 0.78925 0.61387 0.84662 0.0
C3178 C 0.79942 0.61025 0.82629 0.0
C3179 C 0.79732 0.62629 0.82271 0.0
C3180 C 0.79074 0.63583 0.83103 0.0
H3181 H 0.8269 0.6876 0.75565 0.0
H3182 H 0.81555 0.67691 0.77585 0.0
C3183 C 0.78672 0.62966 0.8429 0.0
C3184 C 0.8022 0.63305 0.81026 0.0
H3185 H 0.83583 0.67177 0.79545 0.0
C3186 C 0.79057 0.61989 0.79979 0.0
C3187 C 0.81862 0.65204 0.80871 0.0
C3188 C 0.8319 0.66652 0.81967 0.0
C3189 C 0.79491 0.62523 0.78776 0.0
C3190 C 0.81161 0.64406 0.78619 0.0
C3191 C 0.82305 0.65734 0.79668 0.0
C3192 C 0.81783 0.65011 0.77376 0.0
C3193 C 0.78142 0.61077 0.77685 0.0
C3194 C 0.82306 0.6387 0.76594 0.0
C3195 C 0.82954 0.64477 0.7544 0.0
C3196 C 0.83116 0.66251 0.75053 0.0
C3197 C 0.826 0.67396 0.75841 0.0
C3198 C 0.81943 0.66783 0.76993 0.0
H3199 H 0.76637 0.60011 0.77952 0.0
H3200 H 0.77963 0.61885 0.7692 0.0
H3201 H 0.78809 0.60188 0.77332 0.0
H3202 H 0.82245 0.62526 0.76884 0.0
H3203 H 0.83373 0.6358 0.74863 0.0
H3204 H 0.37735 0.16607 0.85366 0.0
H3205 H 0.36992 0.16214 0.83112 0.0
H3206 H 0.32609 0.18033 0.83536 0.0
H3207 H 0.33311 0.18397 0.85792 0.0
H3208 H 0.3315 0.13886 0.81502 0.0
H3209 H 0.36842 0.22153 0.81403 0.0
H3210 H 0.37236 0.21016 0.82715 0.0
H3211 H 0.34968 0.21099 0.82464 0.0
C3212 C 0.36582 0.16883 0.84982 0.0
C3213 C 0.35593 0.1755 0.85759 0.0
C3214 C 0.36168 0.16666 0.83694 0.0
C3215 C 0.34768 0.17122 0.83162 0.0
C3216 C 0.33716 0.17704 0.83933 0.0
H3217 H 0.31446 0.18626 0.75758 0.0
H3218 H 0.31775 0.18371 0.77977 0.0
C3219 C 0.34125 0.17917 0.8522 0.0
C3220 C 0.34482 0.17092 0.81802 0.0
H3221 H 0.35229 0.20153 0.79512 0.0
C3222 C 0.33605 0.15252 0.81062 0.0
C3223 C 0.35087 0.18882 0.81239 0.0
C3224 C 0.36101 0.20905 0.81991 0.0
C3225 C 0.33271 0.1515 0.79767 0.0
C3226 C 0.33872 0.16942 0.79203 0.0
C3227 C 0.34764 0.18781 0.79947 0.0
C3228 C 0.33574 0.16957 0.77844 0.0
C3229 C 0.32233 0.13123 0.7902 0.0
C3230 C 0.34479 0.16246 0.77031 0.0
C3231 C 0.34272 0.16365 0.75756 0.0
C3232 C 0.33172 0.17217 0.75272 0.0
C3233 C 0.3227 0.17927 0.76093 0.0
C3234 C 0.3247 0.17797 0.77364 0.0
H3235 H 0.314 0.11894 0.79605 0.0
H3236 H 0.31173 0.13048 0.78255 0.0
H3237 H 0.33368 0.1286 0.78605 0.0
H3238 H 0.35374 0.15631 0.77385 0.0
H3239 H 0.34974 0.15792 0.7515 0.0
H3240 H 0.82317 0.21877 0.85071 0.0
H3241 H 0.82778 0.21372 0.82903 0.0
H3242 H 0.79991 0.15003 0.83124 0.0
H3243 H 0.79561 0.15495 0.85314 0.0
H3244 H 0.84958 0.19346 0.82033 0.0
H3245 H 0.77039 0.15764 0.79966 0.0
H3246 H 0.779 0.17284 0.81443 0.0
H3247 H 0.77571 0.14812 0.81324 0.0
C3248 C 0.81813 0.20368 0.84665 0.0
C3249 C 0.80917 0.18728 0.85371 0.0
C3250 C 0.82066 0.20082 0.83423 0.0
C3251 C 0.81411 0.18152 0.82855 0.0
C3252 C 0.80486 0.16503 0.83545 0.0
H3253 H 0.82098 0.14883 0.75097 0.0
H3254 H 0.81383 0.14702 0.77269 0.0
C3255 C 0.80238 0.16787 0.84794 0.0
C3256 C 0.81777 0.17899 0.81554 0.0
H3257 H 0.79476 0.16341 0.78598 0.0
C3258 C 0.83761 0.18677 0.81282 0.0
C3259 C 0.80208 0.1701 0.80581 0.0
C3260 C 0.78056 0.16174 0.80832 0.0
C3261 C 0.84223 0.18622 0.80056 0.0
C3262 C 0.82662 0.17812 0.79076 0.0
C3263 C 0.8067 0.16972 0.79351 0.0
C3264 C 0.8308 0.17912 0.7776 0.0
C3265 C 0.86381 0.1943 0.79824 0.0
C3266 C 0.84242 0.19777 0.77313 0.0
C3267 C 0.84665 0.19885 0.76079 0.0
C3268 C 0.83918 0.18129 0.75261 0.0
C3269 C 0.82721 0.16262 0.75707 0.0
C3270 C 0.823 0.16155 0.76945 0.0
H3271 H 0.87283 0.19414 0.80652 0.0
H3272 H 0.86512 0.18549 0.79026 0.0
H3273 H 0.87032 0.21008 0.7961 0.0
H3274 H 0.84825 0.21153 0.7792 0.0
H3275 H 0.85606 0.21346 0.75771 0.0
H3276 H 0.29095 0.17292 0.47978 0.0
H3277 H 0.29852 0.17857 0.50229 0.0
H3278 H 0.34022 0.15722 0.49953 0.0
H3279 H 0.33349 0.15248 0.47697 0.0
H3280 H 0.29153 0.15006 0.51741 0.0
H3281 H 0.37223 0.20676 0.52361 0.0
H3282 H 0.35701 0.20113 0.50907 0.0
H3283 H 0.36692 0.18534 0.51327 0.0
C3284 C 0.30216 0.16997 0.48392 0.0
C3285 C 0.31165 0.16228 0.47655 0.0
C3286 C 0.30635 0.17306 0.4968 0.0
C3287 C 0.32011 0.16856 0.50259 0.0
C3288 C 0.32987 0.16122 0.49526 0.0
H3289 H 0.34842 0.14577 0.57472 0.0
H3290 H 0.34471 0.14986 0.55277 0.0
C3291 C 0.32579 0.15824 0.48237 0.0
C3292 C 0.32299 0.1699 0.51629 0.0
H3293 H 0.35864 0.18858 0.54112 0.0
C3294 C 0.30616 0.15874 0.52261 0.0
C3295 C 0.34209 0.18124 0.52307 0.0
C3296 C 0.36055 0.19445 0.51692 0.0
C3297 C 0.30803 0.15798 0.53546 0.0
C3298 C 0.3272 0.16875 0.54214 0.0
C3299 C 0.34397 0.1803 0.53591 0.0
C3300 C 0.33018 0.1673 0.55551 0.0
C3301 C 0.28963 0.14511 0.54177 0.0
C3302 C 0.32342 0.17598 0.56428 0.0
C3303 C 0.3257 0.17386 0.57687 0.0
C3304 C 0.33475 0.16299 0.58088 0.0
C3305 C 0.34167 0.1545 0.57201 0.0
C3306 C 0.33949 0.15673 0.55945 0.0
H3307 H 0.27632 0.13556 0.53501 0.0
H3308 H 0.2923 0.13531 0.54772 0.0
H3309 H 0.28624 0.15489 0.54783 0.0
H3310 H 0.31635 0.18435 0.56138 0.0
H3311 H 0.32048 0.18084 0.58347 0.0
H3312 H 0.86967 0.17734 0.48203 0.0
H3313 H 0.86753 0.18265 0.50426 0.0
H3314 H 0.84578 0.11993 0.50743 0.0
H3315 H 0.84847 0.11463 0.48543 0.0
H3316 H 0.83373 0.16463 0.51703 0.0
H3317 H 0.89085 0.14721 0.53553 0.0
H3318 H 0.88887 0.15236 0.51967 0.0
H3319 H 0.87255 0.12783 0.52424 0.0
C3320 C 0.8647 0.16475 0.48751 0.0
C3321 C 0.85922 0.14556 0.48196 0.0
C3322 C 0.8634 0.16779 0.50018 0.0
C3323 C 0.8568 0.15175 0.50752 0.0
C3324 C 0.85129 0.1326 0.50199 0.0
H3325 H 0.81853 0.11989 0.57867 0.0
H3326 H 0.82811 0.12265 0.55751 0.0
C3327 C 0.85258 0.12955 0.48937 0.0
C3328 C 0.85475 0.15463 0.52085 0.0
H3329 H 0.86772 0.14637 0.54958 0.0
C3330 C 0.84139 0.16097 0.52419 0.0
C3331 C 0.86484 0.1499 0.53016 0.0
C3332 C 0.88023 0.14414 0.52725 0.0
C3333 C 0.83706 0.16169 0.53652 0.0
C3334 C 0.84652 0.15614 0.54572 0.0
C3335 C 0.86041 0.1505 0.54247 0.0
C3336 C 0.84127 0.15487 0.55865 0.0
C3337 C 0.82174 0.16752 0.53953 0.0
C3338 C 0.84576 0.17214 0.56633 0.0
C3339 C 0.84026 0.17061 0.57843 0.0
C3340 C 0.83015 0.15177 0.58302 0.0
C3341 C 0.82601 0.13457 0.57534 0.0
C3342 C 0.83159 0.13613 0.56329 0.0
H3343 H 0.81336 0.16809 0.53104 0.0
H3344 H 0.8109 0.15676 0.54538 0.0
H3345 H 0.82941 0.18258 0.54483 0.0
H3346 H 0.85345 0.18677 0.56295 0.0
H3347 H 0.84356 0.18412 0.5841 0.0
H3348 H 0.85824 0.74367 0.49477 0.0
H3349 H 0.85348 0.73289 0.5156 0.0
H3350 H 0.86734 0.68681 0.50502 0.0
H3351 H 0.87232 0.6977 0.48412 0.0
H3352 H 0.82557 0.69602 0.52149 0.0
H3353 H 0.90197 0.71225 0.53788 0.0
H3354 H 0.89696 0.72224 0.52439 0.0
H3355 H 0.89153 0.69669 0.52341 0.0
C3356 C 0.86036 0.73129 0.49689 0.0
C3357 C 0.86556 0.72146 0.48781 0.0
C3358 C 0.85771 0.7252 0.5088 0.0
C3359 C 0.86023 0.70917 0.5119 0.0
C3360 C 0.86573 0.69949 0.50291 0.0
H3361 H 0.83474 0.64629 0.57855 0.0
H3362 H 0.84344 0.6565 0.55781 0.0
C3363 C 0.86851 0.70568 0.49098 0.0
C3364 C 0.85588 0.70198 0.52432 0.0
H3365 H 0.87644 0.69496 0.55092 0.0
C3366 C 0.83672 0.69583 0.52792 0.0
C3367 C 0.87041 0.70164 0.53268 0.0
C3368 C 0.89143 0.70871 0.52947 0.0
C3369 C 0.8317 0.68942 0.53966 0.0
C3370 C 0.84629 0.68933 0.54806 0.0
C3371 C 0.86534 0.69511 0.54442 0.0
C3372 C 0.84203 0.68367 0.56077 0.0
C3373 C 0.81078 0.68265 0.54298 0.0
C3374 C 0.8387 0.69577 0.56932 0.0
C3375 C 0.83372 0.69 0.58114 0.0
C3376 C 0.83196 0.67199 0.58461 0.0
C3377 C 0.83573 0.66011 0.57609 0.0
C3378 C 0.84082 0.66597 0.56428 0.0
H3379 H 0.8002 0.67944 0.53465 0.0
H3380 H 0.80511 0.66899 0.54794 0.0
H3381 H 0.811 0.69467 0.54923 0.0
H3382 H 0.83975 0.70959 0.56679 0.0
H3383 H 0.83077 0.69939 0.58744 0.0
loop_
_geom_bond_atom_site_label_1
_geom_bond_atom_site_label_2
_geom_bond_distance
_geom_bond_site_symmetry_2
_ccdc_geom_bond_type
C0 C1 1.391 . S
C0 C4 1.391 . S
C0 H42 0.948 . S
C1 C0 1.391 . S
C1 C2 1.391 . S
C2 C1 1.391 . S
C2 H58 0.947 . S
C2 C59 1.392 . S
C3 C4 1.391 . S
C3 C7 1.397 . S
C3 C59 1.419 . S
C4 C0 1.391 . S
C4 C3 1.391 . S
C4 C5 1.399 . S
C5 C4 1.399 . S
C5 C8 1.396 . S
C5 C17 1.453 . S
C5 C18 1.684 . S
H6 C30 0.948 . S
C7 C3 1.397 . S
C7 C8 1.394 . S
C7 C26 1.723 . S
C8 C5 1.396 . S
C8 C7 1.394 . S
C8 C38 1.723 . S
H9 C32 0.947 . S
H10 C33 0.948 . S
H11 C39 0.982 . S
H12 C40 0.979 . S
H13 C40 0.980 . S
H14 C40 0.983 . S
H15 C39 0.979 . S
H16 C39 0.977 . S
C17 C5 1.453 . S
C17 H46 0.982 . S
C17 H47 0.979 . S
C17 H48 0.977 . S
C18 C5 1.684 . S
C18 H43 0.979 . S
C18 H44 0.980 . S
C18 H45 0.983 . S
C19 C20 1.391 . S
C19 C24 1.391 . S
C19 H49 0.948 . S
C20 C19 1.391 . S
C20 C21 1.391 . S
C21 C20 1.391 . S
C21 C22 1.392 . S
C21 H50 0.947 . S
C22 C21 1.392 . S
C22 C23 1.419 . S
C22 H51 0.948 . S
C23 C22 1.419 . S
C23 C24 1.391 . S
C23 C27 1.397 . S
C24 C19 1.391 . S
C24 C23 1.391 . S
C24 C25 1.399 . S
C25 C24 1.399 . S
C25 C26 1.396 . S
C25 C28 1.453 . S
C25 C29 1.684 . S
C26 C7 1.723 . S
C26 C25 1.396 . S
C26 C27 1.394 . S
C27 C23 1.397 . S
C27 C26 1.394 . S
C27 C37 1.723 . S
C28 C25 1.453 . S
C28 H52 0.982 . S
C28 H53 0.979 . S
C28 H54 0.977 . S
C29 C25 1.684 . S
C29 H55 0.979 . S
C29 H56 0.980 . S
C29 H57 0.983 . S
C30 H6 0.948 . S
C30 C31 1.391 . S
C30 C35 1.391 . S
C31 C30 1.391 . S
C31 C32 1.391 . S
C32 H9 0.947 . S
C32 C31 1.391 . S
C32 C33 1.392 . S
C33 H10 0.948 . S
C33 C32 1.392 . S
C33 C34 1.419 . S
C34 C33 1.419 . S
C34 C35 1.391 . S
C34 C38 1.397 . S
C35 C30 1.391 . S
C35 C34 1.391 . S
C35 C36 1.399 . S
C36 C35 1.399 . S
C36 C37 1.396 . S
C36 C39 1.453 . S
C36 C40 1.684 . S
C37 C27 1.723 . S
C37 C36 1.396 . S
C37 C38 1.394 . S
C38 C8 1.723 . S
C38 C34 1.397 . S
C38 C37 1.394 . S
C39 H11 0.982 . S
C39 H15 0.979 . S
C39 H16 0.977 . S
C39 C36 1.453 . S
C40 H12 0.979 . S
C40 H13 0.980 . S
C40 H14 0.983 . S
C40 C36 1.684 . S
H41 C59 0.948 . S
H42 C0 0.948 . S
H43 C18 0.979 . S
H44 C18 0.980 . S
H45 C18 0.983 . S
H46 C17 0.982 . S
H47 C17 0.979 . S
H48 C17 0.977 . S
H49 C19 0.948 . S
H50 C21 0.947 . S
H51 C22 0.948 . S
H52 C28 0.982 . S
H53 C28 0.979 . S
H54 C28 0.977 . S
H55 C29 0.979 . S
H56 C29 0.980 . S
H57 C29 0.983 . S
H58 C2 0.947 . S
C59 C2 1.392 . S
C59 C3 1.419 . S
C59 H41 0.948 . S
C60 C61 1.391 . S
C60 C64 1.391 . S
C60 H102 0.948 . S
C61 C60 1.391 . S
C61 C62 1.391 . S
C62 C61 1.391 . S
C62 H118 0.947 . S
C62 C119 1.392 . S
C63 C64 1.391 . S
C63 C67 1.397 . S
C63 C119 1.419 . S
C64 C60 1.391 . S
C64 C63 1.391 . S
C64 C65 1.399 . S
C65 C64 1.399 . S
C65 C68 1.396 . S
C65 C77 1.453 . S
C65 C78 1.684 . S
H66 C90 0.948 . S
C67 C63 1.397 . S
C67 C68 1.394 . S
C67 C86 1.723 . S
C68 C65 1.396 . S
C68 C67 1.394 . S
C68 C98 1.723 . S
H69 C92 0.947 . S
H70 C93 0.948 . S
H71 C99 0.982 . S
H72 C100 0.979 . S
H73 C100 0.980 . S
H74 C100 0.983 . S
H75 C99 0.979 . S
H76 C99 0.977 . S
C77 C65 1.453 . S
C77 H106 0.982 . S
C77 H107 0.979 . S
C77 H108 0.977 . S
C78 C65 1.684 . S
C78 H103 0.979 . S
C78 H104 0.980 . S
C78 H105 0.983 . S
C79 C80 1.391 . S
C79 C84 1.391 . S
C79 H109 0.948 . S
C80 C79 1.391 . S
C80 C81 1.391 . S
C81 C80 1.391 . S
C81 C82 1.392 . S
C81 H110 0.947 . S
C82 C81 1.392 . S
C82 C83 1.419 . S
C82 H111 0.948 . S
C83 C82 1.419 . S
C83 C84 1.391 . S
C83 C87 1.397 . S
C84 C79 1.391 . S
C84 C83 1.391 . S
C84 C85 1.399 . S
C85 C84 1.399 . S
C85 C86 1.396 . S
C85 C88 1.453 . S
C85 C89 1.684 . S
C86 C67 1.723 . S
C86 C85 1.396 . S
C86 C87 1.394 . S
C87 C83 1.397 . S
C87 C86 1.394 . S
C87 C97 1.723 . S
C88 C85 1.453 . S
C88 H112 0.982 . S
C88 H113 0.979 . S
C88 H114 0.977 . S
C89 C85 1.684 . S
C89 H115 0.979 . S
C89 H116 0.980 . S
C89 H117 0.983 . S
C90 H66 0.948 . S
C90 C91 1.391 . S
C90 C95 1.391 . S
C91 C90 1.391 . S
C91 C92 1.391 . S
C92 H69 0.947 . S
C92 C91 1.391 . S
C92 C93 1.392 . S
C93 H70 0.948 . S
C93 C92 1.392 . S
C93 C94 1.419 . S
C94 C93 1.419 . S
C94 C95 1.391 . S
C94 C98 1.397 . S
C95 C90 1.391 . S
C95 C94 1.391 . S
C95 C96 1.399 . S
C96 C95 1.399 . S
C96 C97 1.396 . S
C96 C99 1.453 . S
C96 C100 1.684 . S
C97 C87 1.723 . S
C97 C96 1.396 . S
C97 C98 1.394 . S
C98 C68 1.723 . S
C98 C94 1.397 . S
C98 C97 1.394 . S
C99 H71 0.982 . S
C99 H75 0.979 . S
C99 H76 0.977 . S
C99 C96 1.453 . S
C100 H72 0.979 . S
C100 H73 0.980 . S
C100 H74 0.983 . S
C100 C96 1.684 . S
H101 C119 0.948 . S
H102 C60 0.948 . S
H103 C78 0.979 . S
H104 C78 0.980 . S
H105 C78 0.983 . S
H106 C77 0.982 . S
H107 C77 0.979 . S
H108 C77 0.977 . S
H109 C79 0.948 . S
H110 C81 0.947 . S
H111 C82 0.948 . S
H112 C88 0.982 . S
H113 C88 0.979 . S
H114 C88 0.977 . S
H115 C89 0.979 . S
H116 C89 0.980 . S
H117 C89 0.983 . S
H118 C62 0.947 . S
C119 C62 1.392 . S
C119 C63 1.419 . S
C119 H101 0.948 . S
C120 C121 1.391 . S
C120 C124 1.391 . S
C120 H162 0.948 . S
C121 C120 1.391 . S
C121 C122 1.391 . S
C122 C121 1.391 . S
C122 H178 0.947 . S
C122 C179 1.392 . S
C123 C124 1.391 . S
C123 C127 1.397 . S
C123 C179 1.419 . S
C124 C120 1.391 . S
C124 C123 1.391 . S
C124 C125 1.399 . S
C125 C124 1.399 . S
C125 C128 1.396 . S
C125 C137 1.453 . S
C125 C138 1.684 . S
H126 C150 0.948 . S
C127 C123 1.397 . S
C127 C128 1.394 . S
C127 C146 1.723 . S
C128 C125 1.396 . S
C128 C127 1.394 . S
C128 C158 1.723 . S
H129 C152 0.947 . S
H130 C153 0.948 . S
H131 C159 0.982 . S
H132 C160 0.979 . S
H133 C160 0.980 . S
H134 C160 0.983 . S
H135 C159 0.979 . S
H136 C159 0.977 . S
C137 C125 1.453 . S
C137 H166 0.982 . S
C137 H167 0.979 . S
C137 H168 0.977 . S
C138 C125 1.684 . S
C138 H163 0.979 . S
C138 H164 0.980 . S
C138 H165 0.983 . S
C139 C140 1.391 . S
C139 C144 1.391 . S
C139 H169 0.948 . S
C140 C139 1.391 . S
C140 C141 1.391 . S
C141 C140 1.391 . S
C141 C142 1.392 . S
C141 H170 0.947 . S
C142 C141 1.392 . S
C142 C143 1.419 . S
C142 H171 0.948 . S
C143 C142 1.419 . S
C143 C144 1.391 . S
C143 C147 1.397 . S
C144 C139 1.391 . S
C144 C143 1.391 . S
C144 C145 1.399 . S
C145 C144 1.399 . S
C145 C146 1.396 . S
C145 C148 1.453 . S
C145 C149 1.684 . S
C146 C127 1.723 . S
C146 C145 1.396 . S
C146 C147 1.394 . S
C147 C143 1.397 . S
C147 C146 1.394 . S
C147 C157 1.723 . S
C148 C145 1.453 . S
C148 H172 0.982 . S
C148 H173 0.979 . S
C148 H174 0.977 . S
C149 C145 1.684 . S
C149 H175 0.979 . S
C149 H176 0.980 . S
C149 H177 0.983 . S
C150 H126 0.948 . S
C150 C151 1.391 . S
C150 C155 1.391 . S
C151 C150 1.391 . S
C151 C152 1.391 . S
C152 H129 0.947 . S
C152 C151 1.391 . S
C152 C153 1.392 . S
C153 H130 0.948 . S
C153 C152 1.392 . S
C153 C154 1.419 . S
C154 C153 1.419 . S
C154 C155 1.391 . S
C154 C158 1.397 . S
C155 C150 1.391 . S
C155 C154 1.391 . S
C155 C156 1.399 . S
C156 C155 1.399 . S
C156 C157 1.396 . S
C156 C159 1.453 . S
C156 C160 1.684 . S
C157 C147 1.723 . S
C157 C156 1.396 . S
C157 C158 1.394 . S
C158 C128 1.723 . S
C158 C154 1.397 . S
C158 C157 1.394 . S
C159 H131 0.982 . S
C159 H135 0.979 . S
C159 H136 0.977 . S
C159 C156 1.453 . S
C160 H132 0.979 . S
C160 H133 0.980 . S
C160 H134 0.983 . S
C160 C156 1.684 . S
H161 C179 0.948 . S
H162 C120 0.948 . S
H163 C138 0.979 . S
H164 C138 0.980 . S
H165 C138 0.983 . S
H166 C137 0.982 . S
H167 C137 0.979 . S
H168 C137 0.977 . S
H169 C139 0.948 . S
H170 C141 0.947 . S
H171 C142 0.948 . S
H172 C148 0.982 . S
H173 C148 0.979 . S
H174 C148 0.977 . S
H175 C149 0.979 . S
H176 C149 0.980 . S
H177 C149 0.983 . S
H178 C122 0.947 . S
C179 C122 1.392 . S
C179 C123 1.419 . S
C179 H161 0.948 . S
C180 C181 1.391 . S
C180 C184 1.391 . S
C180 H222 0.948 . S
C181 C180 1.391 . S
C181 C182 1.391 . S
C182 C181 1.391 . S
C182 H238 0.947 . S
C182 C239 1.392 . S
C183 C184 1.391 . S
C183 C187 1.397 . S
C183 C239 1.419 . S
C184 C180 1.391 . S
C184 C183 1.391 . S
C184 C185 1.399 . S
C185 C184 1.399 . S
C185 C188 1.396 . S
C185 C197 1.453 . S
C185 C198 1.684 . S
H186 C210 0.948 . S
C187 C183 1.397 . S
C187 C188 1.394 . S
C187 C206 1.723 . S
C188 C185 1.396 . S
C188 C187 1.394 . S
C188 C218 1.723 . S
H189 C212 0.947 . S
H190 C213 0.948 . S
H191 C219 0.982 . S
H192 C220 0.979 . S
H193 C220 0.980 . S
H194 C220 0.983 . S
H195 C219 0.979 . S
H196 C219 0.977 . S
C197 C185 1.453 . S
C197 H226 0.982 . S
C197 H227 0.979 . S
C197 H228 0.977 . S
C198 C185 1.684 . S
C198 H223 0.979 . S
C198 H224 0.980 . S
C198 H225 0.983 . S
C199 C200 1.391 . S
C199 C204 1.391 . S
C199 H229 0.948 . S
C200 C199 1.391 . S
C200 C201 1.391 . S
C201 C200 1.391 . S
C201 C202 1.392 . S
C201 H230 0.947 . S
C202 C201 1.392 . S
C202 C203 1.419 . S
C202 H231 0.948 . S
C203 C202 1.419 . S
C203 C204 1.391 . S
C203 C207 1.397 . S
C204 C199 1.391 . S
C204 C203 1.391 . S
C204 C205 1.399 . S
C205 C204 1.399 . S
C205 C206 1.396 . S
C205 C208 1.453 . S
C205 C209 1.684 . S
C206 C187 1.723 . S
C206 C205 1.396 . S
C206 C207 1.394 . S
C207 C203 1.397 . S
C207 C206 1.394 . S
C207 C217 1.723 . S
C208 C205 1.453 . S
C208 H232 0.982 . S
C208 H233 0.979 . S
C208 H234 0.977 . S
C209 C205 1.684 . S
C209 H235 0.979 . S
C209 H236 0.980 . S
C209 H237 0.983 . S
C210 H186 0.948 . S
C210 C211 1.391 . S
C210 C215 1.391 . S
C211 C210 1.391 . S
C211 C212 1.391 . S
C212 H189 0.947 . S
C212 C211 1.391 . S
C212 C213 1.392 . S
C213 H190 0.948 . S
C213 C212 1.392 . S
C213 C214 1.419 . S
C214 C213 1.419 . S
C214 C215 1.391 . S
C214 C218 1.397 . S
C215 C210 1.391 . S
C215 C214 1.391 . S
C215 C216 1.399 . S
C216 C215 1.399 . S
C216 C217 1.396 . S
C216 C219 1.453 . S
C216 C220 1.684 . S
C217 C207 1.723 . S
C217 C216 1.396 . S
C217 C218 1.394 . S
C218 C188 1.723 . S
C218 C214 1.397 . S
C218 C217 1.394 . S
C219 H191 0.982 . S
C219 H195 0.979 . S
C219 H196 0.977 . S
C219 C216 1.453 . S
C220 H192 0.979 . S
C220 H193 0.980 . S
C220 H194 0.983 . S
C220 C216 1.684 . S
H221 C239 0.948 . S
H222 C180 0.948 . S
H223 C198 0.979 . S
H224 C198 0.980 . S
H225 C198 0.983 . S
H226 C197 0.982 . S
H227 C197 0.979 . S
H228 C197 0.977 . S
H229 C199 0.948 . S
H230 C201 0.947 . S
H231 C202 0.948 . S
H232 C208 0.982 . S
H233 C208 0.979 . S
H234 C208 0.977 . S
H235 C209 0.979 . S
H236 C209 0.980 . S
H237 C209 0.983 . S
H238 C182 0.947 . S
C239 C182 1.392 . S
C239 C183 1.419 . S
C239 H221 0.948 . S
C240 C241 1.391 . S
C240 C244 1.391 . S
C240 H282 0.948 . S
C241 C240 1.391 . S
C241 C242 1.391 . S
C242 C241 1.391 . S
C242 H298 0.947 . S
C242 C299 1.392 . S
C243 C244 1.391 . S
C243 C247 1.397 . S
C243 C299 1.419 . S
C244 C240 1.391 . S
C244 C243 1.391 . S
C244 C245 1.399 . S
C245 C244 1.399 . S
C245 C248 1.396 . S
C245 C257 1.453 . S
C245 C258 1.684 . S
H246 C270 0.948 . S
C247 C243 1.397 . S
C247 C248 1.394 . S
C247 C266 1.723 . S
C248 C245 1.396 . S
C248 C247 1.394 . S
C248 C278 1.723 . S
H249 C272 0.947 . S
H250 C273 0.948 . S
H251 C279 0.982 . S
H252 C280 0.979 . S
H253 C280 0.980 . S
H254 C280 0.983 . S
H255 C279 0.979 . S
H256 C279 0.977 . S
C257 C245 1.453 . S
C257 H286 0.982 . S
C257 H287 0.979 . S
C257 H288 0.977 . S
C258 C245 1.684 . S
C258 H283 0.979 . S
C258 H284 0.980 . S
C258 H285 0.983 . S
C259 C260 1.391 . S
C259 C264 1.391 . S
C259 H289 0.948 . S
C260 C259 1.391 . S
C260 C261 1.391 . S
C261 C260 1.391 . S
C261 C262 1.392 . S
C261 H290 0.947 . S
C262 C261 1.392 . S
C262 C263 1.419 . S
C262 H291 0.948 . S
C263 C262 1.419 . S
C263 C264 1.391 . S
C263 C267 1.397 . S
C264 C259 1.391 . S
C264 C263 1.391 . S
C264 C265 1.399 . S
C265 C264 1.399 . S
C265 C266 1.396 . S
C265 C268 1.453 . S
C265 C269 1.684 . S
C266 C247 1.723 . S
C266 C265 1.396 . S
C266 C267 1.394 . S
C267 C263 1.397 . S
C267 C266 1.394 . S
C267 C277 1.723 . S
C268 C265 1.453 . S
C268 H292 0.982 . S
C268 H293 0.979 . S
C268 H294 0.977 . S
C269 C265 1.684 . S
C269 H295 0.979 . S
C269 H296 0.980 . S
C269 H297 0.983 . S
C270 H246 0.948 . S
C270 C271 1.391 . S
C270 C275 1.391 . S
C271 C270 1.391 . S
C271 C272 1.391 . S
C272 H249 0.947 . S
C272 C271 1.391 . S
C272 C273 1.392 . S
C273 H250 0.948 . S
C273 C272 1.392 . S
C273 C274 1.419 . S
C274 C273 1.419 . S
C274 C275 1.391 . S
C274 C278 1.397 . S
C275 C270 1.391 . S
C275 C274 1.391 . S
C275 C276 1.399 . S
C276 C275 1.399 . S
C276 C277 1.396 . S
C276 C279 1.453 . S
C276 C280 1.684 . S
C277 C267 1.723 . S
C277 C276 1.396 . S
C277 C278 1.394 . S
C278 C248 1.723 . S
C278 C274 1.397 . S
C278 C277 1.394 . S
C279 H251 0.982 . S
C279 H255 0.979 . S
C279 H256 0.977 . S
C279 C276 1.453 . S
C280 H252 0.979 . S
C280 H253 0.980 . S
C280 H254 0.983 . S
C280 C276 1.684 . S
H281 C299 0.948 . S
H282 C240 0.948 . S
H283 C258 0.979 . S
H284 C258 0.980 . S
H285 C258 0.983 . S
H286 C257 0.982 . S
H287 C257 0.979 . S
H288 C257 0.977 . S
H289 C259 0.948 . S
H290 C261 0.947 . S
H291 C262 0.948 . S
H292 C268 0.982 . S
H293 C268 0.979 . S
H294 C268 0.977 . S
H295 C269 0.979 . S
H296 C269 0.980 . S
H297 C269 0.983 . S
H298 C242 0.947 . S
C299 C242 1.392 . S
C299 C243 1.419 . S
C299 H281 0.948 . S
C300 C301 1.391 . S
C300 C304 1.391 . S
C300 H342 0.948 . S
C301 C300 1.391 . S
C301 C302 1.391 . S
C302 C301 1.391 . S
C302 H358 0.947 . S
C302 C359 1.392 . S
C303 C304 1.391 . S
C303 C307 1.397 . S
C303 C359 1.419 . S
C304 C300 1.391 . S
C304 C303 1.391 . S
C304 C305 1.399 . S
C305 C304 1.399 . S
C305 C308 1.396 . S
C305 C317 1.453 . S
C305 C318 1.684 . S
H306 C330 0.948 . S
C307 C303 1.397 . S
C307 C308 1.394 . S
C307 C326 1.723 . S
C308 C305 1.396 . S
C308 C307 1.394 . S
C308 C338 1.723 . S
H309 C332 0.947 . S
H310 C333 0.948 . S
H311 C339 0.982 . S
H312 C340 0.979 . S
H313 C340 0.980 . S
H314 C340 0.983 . S
H315 C339 0.979 . S
H316 C339 0.977 . S
C317 C305 1.453 . S
C317 H346 0.982 . S
C317 H347 0.979 . S
C317 H348 0.977 . S
C318 C305 1.684 . S
C318 H343 0.979 . S
C318 H344 0.980 . S
C318 H345 0.983 . S
C319 C320 1.391 . S
C319 C324 1.391 . S
C319 H349 0.948 . S
C320 C319 1.391 . S
C320 C321 1.391 . S
C321 C320 1.391 . S
C321 C322 1.392 . S
C321 H350 0.947 . S
C322 C321 1.392 . S
C322 C323 1.419 . S
C322 H351 0.948 . S
C323 C322 1.419 . S
C323 C324 1.391 . S
C323 C327 1.397 . S
C324 C319 1.391 . S
C324 C323 1.391 . S
C324 C325 1.399 . S
C325 C324 1.399 . S
C325 C326 1.396 . S
C325 C328 1.453 . S
C325 C329 1.684 . S
C326 C307 1.723 . S
C326 C325 1.396 . S
C326 C327 1.394 . S
C327 C323 1.397 . S
C327 C326 1.394 . S
C327 C337 1.723 . S
C328 C325 1.453 . S
C328 H352 0.982 . S
C328 H353 0.979 . S
C328 H354 0.977 . S
C329 C325 1.684 . S
C329 H355 0.979 . S
C329 H356 0.980 . S
C329 H357 0.983 . S
C330 H306 0.948 . S
C330 C331 1.391 . S
C330 C335 1.391 . S
C331 C330 1.391 . S
C331 C332 1.391 . S
C332 H309 0.947 . S
C332 C331 1.391 . S
C332 C333 1.392 . S
C333 H310 0.948 . S
C333 C332 1.392 . S
C333 C334 1.419 . S
C334 C333 1.419 . S
C334 C335 1.391 . S
C334 C338 1.397 . S
C335 C330 1.391 . S
C335 C334 1.391 . S
C335 C336 1.399 . S
C336 C335 1.399 . S
C336 C337 1.396 . S
C336 C339 1.453 . S
C336 C340 1.684 . S
C337 C327 1.723 . S
C337 C336 1.396 . S
C337 C338 1.394 . S
C338 C308 1.723 . S
C338 C334 1.397 . S
C338 C337 1.394 . S
C339 H311 0.982 . S
C339 H315 0.979 . S
C339 H316 0.977 . S
C339 C336 1.453 . S
C340 H312 0.979 . S
C340 H313 0.980 . S
C340 H314 0.983 . S
C340 C336 1.684 . S
H341 C359 0.948 . S
H342 C300 0.948 . S
H343 C318 0.979 . S
H344 C318 0.980 . S
H345 C318 0.983 . S
H346 C317 0.982 . S
H347 C317 0.979 . S
H348 C317 0.977 . S
H349 C319 0.948 . S
H350 C321 0.947 . S
H351 C322 0.948 . S
H352 C328 0.982 . S
H353 C328 0.979 . S
H354 C328 0.977 . S
H355 C329 0.979 . S
H356 C329 0.980 . S
H357 C329 0.983 . S
H358 C302 0.947 . S
C359 C302 1.392 . S
C359 C303 1.419 . S
C359 H341 0.948 . S
C360 C361 1.391 . S
C360 C364 1.391 . S
C360 H402 0.948 . S
C361 C360 1.391 . S
C361 C362 1.391 . S
C362 C361 1.391 . S
C362 H418 0.947 . S
C362 C419 1.392 . S
C363 C364 1.391 . S
C363 C367 1.397 . S
C363 C419 1.419 . S
C364 C360 1.391 . S
C364 C363 1.391 . S
C364 C365 1.399 . S
C365 C364 1.399 . S
C365 C368 1.396 . S
C365 C377 1.453 . S
C365 C378 1.684 . S
H366 C390 0.948 . S
C367 C363 1.397 . S
C367 C368 1.394 . S
C367 C386 1.723 . S
C368 C365 1.396 . S
C368 C367 1.394 . S
C368 C398 1.723 . S
H369 C392 0.947 . S
H370 C393 0.948 . S
H371 C399 0.982 . S
H372 C400 0.979 . S
H373 C400 0.980 . S
H374 C400 0.983 . S
H375 C399 0.979 . S
H376 C399 0.977 . S
C377 C365 1.453 . S
C377 H406 0.982 . S
C377 H407 0.979 . S
C377 H408 0.977 . S
C378 C365 1.684 . S
C378 H403 0.979 . S
C378 H404 0.980 . S
C378 H405 0.983 . S
C379 C380 1.391 . S
C379 C384 1.391 . S
C379 H409 0.948 . S
C380 C379 1.391 . S
C380 C381 1.391 . S
C381 C380 1.391 . S
C381 C382 1.392 . S
C381 H410 0.947 . S
C382 C381 1.392 . S
C382 C383 1.419 . S
C382 H411 0.948 . S
C383 C382 1.419 . S
C383 C384 1.391 . S
C383 C387 1.397 . S
C384 C379 1.391 . S
C384 C383 1.391 . S
C384 C385 1.399 . S
C385 C384 1.399 . S
C385 C386 1.396 . S
C385 C388 1.453 . S
C385 C389 1.684 . S
C386 C367 1.723 . S
C386 C385 1.396 . S
C386 C387 1.394 . S
C387 C383 1.397 . S
C387 C386 1.394 . S
C387 C397 1.723 . S
C388 C385 1.453 . S
C388 H412 0.982 . S
C388 H413 0.979 . S
C388 H414 0.977 . S
C389 C385 1.684 . S
C389 H415 0.979 . S
C389 H416 0.980 . S
C389 H417 0.983 . S
C390 H366 0.948 . S
C390 C391 1.391 . S
C390 C395 1.391 . S
C391 C390 1.391 . S
C391 C392 1.391 . S
C392 H369 0.947 . S
C392 C391 1.391 . S
C392 C393 1.392 . S
C393 H370 0.948 . S
C393 C392 1.392 . S
C393 C394 1.419 . S
C394 C393 1.419 . S
C394 C395 1.391 . S
C394 C398 1.397 . S
C395 C390 1.391 . S
C395 C394 1.391 . S
C395 C396 1.399 . S
C396 C395 1.399 . S
C396 C397 1.396 . S
C396 C399 1.453 . S
C396 C400 1.684 . S
C397 C387 1.723 . S
C397 C396 1.396 . S
C397 C398 1.394 . S
C398 C368 1.723 . S
C398 C394 1.397 . S
C398 C397 1.394 . S
C399 H371 0.982 . S
C399 H375 0.979 . S
C399 H376 0.977 . S
C399 C396 1.453 . S
C400 H372 0.979 . S
C400 H373 0.980 . S
C400 H374 0.983 . S
C400 C396 1.684 . S
H401 C419 0.948 . S
H402 C360 0.948 . S
H403 C378 0.979 . S
H404 C378 0.980 . S
H405 C378 0.983 . S
H406 C377 0.982 . S
H407 C377 0.979 . S
H408 C377 0.977 . S
H409 C379 0.948 . S
H410 C381 0.947 . S
H411 C382 0.948 . S
H412 C388 0.982 . S
H413 C388 0.979 . S
H414 C388 0.977 . S
H415 C389 0.979 . S
H416 C389 0.980 . S
H417 C389 0.983 . S
H418 C362 0.947 . S
C419 C362 1.392 . S
C419 C363 1.419 . S
C419 H401 0.948 . S
C420 C421 1.391 . S
C420 C424 1.391 . S
C420 H462 0.948 . S
C421 C420 1.391 . S
C421 C422 1.391 . S
C422 C421 1.391 . S
C422 H478 0.947 . S
C422 C479 1.392 . S
C423 C424 1.391 . S
C423 C427 1.397 . S
C423 C479 1.419 . S
C424 C420 1.391 . S
C424 C423 1.391 . S
C424 C425 1.399 . S
C425 C424 1.399 . S
C425 C428 1.396 . S
C425 C437 1.453 . S
C425 C438 1.684 . S
H426 C450 0.948 . S
C427 C423 1.397 . S
C427 C428 1.394 . S
C427 C446 1.723 . S
C428 C425 1.396 . S
C428 C427 1.394 . S
C428 C458 1.723 . S
H429 C452 0.947 . S
H430 C453 0.948 . S
H431 C459 0.982 . S
H432 C460 0.979 . S
H433 C460 0.980 . S
H434 C460 0.983 . S
H435 C459 0.979 . S
H436 C459 0.977 . S
C437 C425 1.453 . S
C437 H466 0.982 . S
C437 H467 0.979 . S
C437 H468 0.977 . S
C438 C425 1.684 . S
C438 H463 0.979 . S
C438 H464 0.980 . S
C438 H465 0.983 . S
C439 C440 1.391 . S
C439 C444 1.391 . S
C439 H469 0.948 . S
C440 C439 1.391 . S
C440 C441 1.391 . S
C441 C440 1.391 . S
C441 C442 1.392 . S
C441 H470 0.947 . S
C442 C441 1.392 . S
C442 C443 1.419 . S
C442 H471 0.948 . S
C443 C442 1.419 . S
C443 C444 1.391 . S
C443 C447 1.397 . S
C444 C439 1.391 . S
C444 C443 1.391 . S
C444 C445 1.399 . S
C445 C444 1.399 . S
C445 C446 1.396 . S
C445 C448 1.453 . S
C445 C449 1.684 . S
C446 C427 1.723 . S
C446 C445 1.396 . S
C446 C447 1.394 . S
C447 C443 1.397 . S
C447 C446 1.394 . S
C447 C457 1.723 . S
C448 C445 1.453 . S
C448 H472 0.982 . S
C448 H473 0.979 . S
C448 H474 0.977 . S
C449 C445 1.684 . S
C449 H475 0.979 . S
C449 H476 0.980 . S
C449 H477 0.983 . S
C450 H426 0.948 . S
C450 C451 1.391 . S
C450 C455 1.391 . S
C451 C450 1.391 . S
C451 C452 1.391 . S
C452 H429 0.947 . S
C452 C451 1.391 . S
C452 C453 1.392 . S
C453 H430 0.948 . S
C453 C452 1.392 . S
C453 C454 1.419 . S
C454 C453 1.419 . S
C454 C455 1.391 . S
C454 C458 1.397 . S
C455 C450 1.391 . S
C455 C454 1.391 . S
C455 C456 1.399 . S
C456 C455 1.399 . S
C456 C457 1.396 . S
C456 C459 1.453 . S
C456 C460 1.684 . S
C457 C447 1.723 . S
C457 C456 1.396 . S
C457 C458 1.394 . S
C458 C428 1.723 . S
C458 C454 1.397 . S
C458 C457 1.394 . S
C459 H431 0.982 . S
C459 H435 0.979 . S
C459 H436 0.977 . S
C459 C456 1.453 . S
C460 H432 0.979 . S
C460 H433 0.980 . S
C460 H434 0.983 . S
C460 C456 1.684 . S
H461 C479 0.948 . S
H462 C420 0.948 . S
H463 C438 0.979 . S
H464 C438 0.980 . S
H465 C438 0.983 . S
H466 C437 0.982 . S
H467 C437 0.979 . S
H468 C437 0.977 . S
H469 C439 0.948 . S
H470 C441 0.947 . S
H471 C442 0.948 . S
H472 C448 0.982 . S
H473 C448 0.979 . S
H474 C448 0.977 . S
H475 C449 0.979 . S
H476 C449 0.980 . S
H477 C449 0.983 . S
H478 C422 0.947 . S
C479 C422 1.392 . S
C479 C423 1.419 . S
C479 H461 0.948 . S
C480 C481 1.391 . S
C480 C484 1.391 . S
C480 H522 0.948 . S
C481 C480 1.391 . S
C481 C482 1.391 . S
C482 C481 1.391 . S
C482 H538 0.947 . S
C482 C539 1.392 . S
C483 C484 1.391 . S
C483 C487 1.397 . S
C483 C539 1.419 . S
C484 C480 1.391 . S
C484 C483 1.391 . S
C484 C485 1.399 . S
C485 C484 1.399 . S
C485 C488 1.396 . S
C485 C497 1.453 . S
C485 C498 1.684 . S
H486 C510 0.948 . S
C487 C483 1.397 . S
C487 C488 1.394 . S
C487 C506 1.723 . S
C488 C485 1.396 . S
C488 C487 1.394 . S
C488 C518 1.723 . S
H489 C512 0.947 . S
H490 C513 0.948 . S
H491 C519 0.982 . S
H492 C520 0.979 . S
H493 C520 0.980 . S
H494 C520 0.983 . S
H495 C519 0.979 . S
H496 C519 0.977 . S
C497 C485 1.453 . S
C497 H526 0.982 . S
C497 H527 0.979 . S
C497 H528 0.977 . S
C498 C485 1.684 . S
C498 H523 0.979 . S
C498 H524 0.980 . S
C498 H525 0.983 . S
C499 C500 1.391 . S
C499 C504 1.391 . S
C499 H529 0.948 . S
C500 C499 1.391 . S
C500 C501 1.391 . S
C501 C500 1.391 . S
C501 C502 1.392 . S
C501 H530 0.947 . S
C502 C501 1.392 . S
C502 C503 1.419 . S
C502 H531 0.948 . S
C503 C502 1.419 . S
C503 C504 1.391 . S
C503 C507 1.397 . S
C504 C499 1.391 . S
C504 C503 1.391 . S
C504 C505 1.399 . S
C505 C504 1.399 . S
C505 C506 1.396 . S
C505 C508 1.453 . S
C505 C509 1.684 . S
C506 C487 1.723 . S
C506 C505 1.396 . S
C506 C507 1.394 . S
C507 C503 1.397 . S
C507 C506 1.394 . S
C507 C517 1.723 . S
C508 C505 1.453 . S
C508 H532 0.982 . S
C508 H533 0.979 . S
C508 H534 0.977 . S
C509 C505 1.684 . S
C509 H535 0.979 . S
C509 H536 0.980 . S
C509 H537 0.983 . S
C510 H486 0.948 . S
C510 C511 1.391 . S
C510 C515 1.391 . S
C511 C510 1.391 . S
C511 C512 1.391 . S
C512 H489 0.947 . S
C512 C511 1.391 . S
C512 C513 1.392 . S
C513 H490 0.948 . S
C513 C512 1.392 . S
C513 C514 1.419 . S
C514 C513 1.419 . S
C514 C515 1.391 . S
C514 C518 1.397 . S
C515 C510 1.391 . S
C515 C514 1.391 . S
C515 C516 1.399 . S
C516 C515 1.399 . S
C516 C517 1.396 . S
C516 C519 1.453 . S
C516 C520 1.684 . S
C517 C507 1.723 . S
C517 C516 1.396 . S
C517 C518 1.394 . S
C518 C488 1.723 . S
C518 C514 1.397 . S
C518 C517 1.394 . S
C519 H491 0.982 . S
C519 H495 0.979 . S
C519 H496 0.977 . S
C519 C516 1.453 . S
C520 H492 0.979 . S
C520 H493 0.980 . S
C520 H494 0.983 . S
C520 C516 1.684 . S
H521 C539 0.948 . S
H522 C480 0.948 . S
H523 C498 0.979 . S
H524 C498 0.980 . S
H525 C498 0.983 . S
H526 C497 0.982 . S
H527 C497 0.979 . S
H528 C497 0.977 . S
H529 C499 0.948 . S
H530 C501 0.947 . S
H531 C502 0.948 . S
H532 C508 0.982 . S
H533 C508 0.979 . S
H534 C508 0.977 . S
H535 C509 0.979 . S
H536 C509 0.980 . S
H537 C509 0.983 . S
H538 C482 0.947 . S
C539 C482 1.392 . S
C539 C483 1.419 . S
C539 H521 0.948 . S
C540 C541 1.391 . S
C540 C544 1.391 . S
C540 H582 0.948 . S
C541 C540 1.391 . S
C541 C542 1.391 . S
C542 C541 1.391 . S
C542 H598 0.947 . S
C542 C599 1.392 . S
C543 C544 1.391 . S
C543 C547 1.397 . S
C543 C599 1.419 . S
C544 C540 1.391 . S
C544 C543 1.391 . S
C544 C545 1.399 . S
C545 C544 1.399 . S
C545 C548 1.396 . S
C545 C557 1.453 . S
C545 C558 1.684 . S
H546 C570 0.948 . S
C547 C543 1.397 . S
C547 C548 1.394 . S
C547 C566 1.723 . S
C548 C545 1.396 . S
C548 C547 1.394 . S
C548 C578 1.723 . S
H549 C572 0.947 . S
H550 C573 0.948 . S
H551 C579 0.982 . S
H552 C580 0.979 . S
H553 C580 0.980 . S
H554 C580 0.983 . S
H555 C579 0.979 . S
H556 C579 0.977 . S
C557 C545 1.453 . S
C557 H586 0.982 . S
C557 H587 0.979 . S
C557 H588 0.977 . S
C558 C545 1.684 . S
C558 H583 0.979 . S
C558 H584 0.980 . S
C558 H585 0.983 . S
C559 C560 1.391 . S
C559 C564 1.391 . S
C559 H589 0.948 . S
C560 C559 1.391 . S
C560 C561 1.391 . S
C561 C560 1.391 . S
C561 C562 1.392 . S
C561 H590 0.947 . S
C562 C561 1.392 . S
C562 C563 1.419 . S
C562 H591 0.948 . S
C563 C562 1.419 . S
C563 C564 1.391 . S
C563 C567 1.397 . S
C564 C559 1.391 . S
C564 C563 1.391 . S
C564 C565 1.399 . S
C565 C564 1.399 . S
C565 C566 1.396 . S
C565 C568 1.453 . S
C565 C569 1.684 . S
C566 C547 1.723 . S
C566 C565 1.396 . S
C566 C567 1.394 . S
C567 C563 1.397 . S
C567 C566 1.394 . S
C567 C577 1.723 . S
C568 C565 1.453 . S
C568 H592 0.982 . S
C568 H593 0.979 . S
C568 H594 0.977 . S
C569 C565 1.684 . S
C569 H595 0.979 . S
C569 H596 0.980 . S
C569 H597 0.983 . S
C570 H546 0.948 . S
C570 C571 1.391 . S
C570 C575 1.391 . S
C571 C570 1.391 . S
C571 C572 1.391 . S
C572 H549 0.947 . S
C572 C571 1.391 . S
C572 C573 1.392 . S
C573 H550 0.948 . S
C573 C572 1.392 . S
C573 C574 1.419 . S
C574 C573 1.419 . S
C574 C575 1.391 . S
C574 C578 1.397 . S
C575 C570 1.391 . S
C575 C574 1.391 . S
C575 C576 1.399 . S
C576 C575 1.399 . S
C576 C577 1.396 . S
C576 C579 1.453 . S
C576 C580 1.684 . S
C577 C567 1.723 . S
C577 C576 1.396 . S
C577 C578 1.394 . S
C578 C548 1.723 . S
C578 C574 1.397 . S
C578 C577 1.394 . S
C579 H551 0.982 . S
C579 H555 0.979 . S
C579 H556 0.977 . S
C579 C576 1.453 . S
C580 H552 0.979 . S
C580 H553 0.980 . S
C580 H554 0.983 . S
C580 C576 1.684 . S
H581 C599 0.948 . S
H582 C540 0.948 . S
H583 C558 0.979 . S
H584 C558 0.980 . S
H585 C558 0.983 . S
H586 C557 0.982 . S
H587 C557 0.979 . S
H588 C557 0.977 . S
H589 C559 0.948 . S
H590 C561 0.947 . S
H591 C562 0.948 . S
H592 C568 0.982 . S
H593 C568 0.979 . S
H594 C568 0.977 . S
H595 C569 0.979 . S
H596 C569 0.980 . S
H597 C569 0.983 . S
H598 C542 0.947 . S
C599 C542 1.392 . S
C599 C543 1.419 . S
C599 H581 0.948 . S
C600 C601 1.391 . S
C600 C604 1.391 . S
C600 H642 0.948 . S
C601 C600 1.391 . S
C601 C602 1.391 . S
C602 C601 1.391 . S
C602 H658 0.947 . S
C602 C659 1.392 . S
C603 C604 1.391 . S
C603 C607 1.397 . S
C603 C659 1.419 . S
C604 C600 1.391 . S
C604 C603 1.391 . S
C604 C605 1.399 . S
C605 C604 1.399 . S
C605 C608 1.396 . S
C605 C617 1.453 . S
C605 C618 1.684 . S
H606 C630 0.948 . S
C607 C603 1.397 . S
C607 C608 1.394 . S
C607 C626 1.723 . S
C608 C605 1.396 . S
C608 C607 1.394 . S
C608 C638 1.723 . S
H609 C632 0.947 . S
H610 C633 0.948 . S
H611 C639 0.982 . S
H612 C640 0.979 . S
H613 C640 0.980 . S
H614 C640 0.983 . S
H615 C639 0.979 . S
H616 C639 0.977 . S
C617 C605 1.453 . S
C617 H646 0.982 . S
C617 H647 0.979 . S
C617 H648 0.977 . S
C618 C605 1.684 . S
C618 H643 0.979 . S
C618 H644 0.980 . S
C618 H645 0.983 . S
C619 C620 1.391 . S
C619 C624 1.391 . S
C619 H649 0.948 . S
C620 C619 1.391 . S
C620 C621 1.391 . S
C621 C620 1.391 . S
C621 C622 1.392 . S
C621 H650 0.947 . S
C622 C621 1.392 . S
C622 C623 1.419 . S
C622 H651 0.948 . S
C623 C622 1.419 . S
C623 C624 1.391 . S
C623 C627 1.397 . S
C624 C619 1.391 . S
C624 C623 1.391 . S
C624 C625 1.399 . S
C625 C624 1.399 . S
C625 C626 1.396 . S
C625 C628 1.453 . S
C625 C629 1.684 . S
C626 C607 1.723 . S
C626 C625 1.396 . S
C626 C627 1.394 . S
C627 C623 1.397 . S
C627 C626 1.394 . S
C627 C637 1.723 . S
C628 C625 1.453 . S
C628 H652 0.982 . S
C628 H653 0.979 . S
C628 H654 0.977 . S
C629 C625 1.684 . S
C629 H655 0.979 . S
C629 H656 0.980 . S
C629 H657 0.983 . S
C630 H606 0.948 . S
C630 C631 1.391 . S
C630 C635 1.391 . S
C631 C630 1.391 . S
C631 C632 1.391 . S
C632 H609 0.947 . S
C632 C631 1.391 . S
C632 C633 1.392 . S
C633 H610 0.948 . S
C633 C632 1.392 . S
C633 C634 1.419 . S
C634 C633 1.419 . S
C634 C635 1.391 . S
C634 C638 1.397 . S
C635 C630 1.391 . S
C635 C634 1.391 . S
C635 C636 1.399 . S
C636 C635 1.399 . S
C636 C637 1.396 . S
C636 C639 1.453 . S
C636 C640 1.684 . S
C637 C627 1.723 . S
C637 C636 1.396 . S
C637 C638 1.394 . S
C638 C608 1.723 . S
C638 C634 1.397 . S
C638 C637 1.394 . S
C639 H611 0.982 . S
C639 H615 0.979 . S
C639 H616 0.977 . S
C639 C636 1.453 . S
C640 H612 0.979 . S
C640 H613 0.980 . S
C640 H614 0.983 . S
C640 C636 1.684 . S
H641 C659 0.948 . S
H642 C600 0.948 . S
H643 C618 0.979 . S
H644 C618 0.980 . S
H645 C618 0.983 . S
H646 C617 0.982 . S
H647 C617 0.979 . S
H648 C617 0.977 . S
H649 C619 0.948 . S
H650 C621 0.947 . S
H651 C622 0.948 . S
H652 C628 0.982 . S
H653 C628 0.979 . S
H654 C628 0.977 . S
H655 C629 0.979 . S
H656 C629 0.980 . S
H657 C629 0.983 . S
H658 C602 0.947 . S
C659 C602 1.392 . S
C659 C603 1.419 . S
C659 H641 0.948 . S
C660 C661 1.391 . S
C660 C664 1.391 . S
C660 H702 0.948 . S
C661 C660 1.391 . S
C661 C662 1.391 . S
C662 C661 1.391 . S
C662 H718 0.947 . S
C662 C719 1.392 . S
C663 C664 1.391 . S
C663 C667 1.397 . S
C663 C719 1.419 . S
C664 C660 1.391 . S
C664 C663 1.391 . S
C664 C665 1.399 . S
C665 C664 1.399 . S
C665 C668 1.396 . S
C665 C677 1.453 . S
C665 C678 1.684 . S
H666 C690 0.948 . S
C667 C663 1.397 . S
C667 C668 1.394 . S
C667 C686 1.723 . S
C668 C665 1.396 . S
C668 C667 1.394 . S
C668 C698 1.723 . S
H669 C692 0.947 . S
H670 C693 0.948 . S
H671 C699 0.982 . S
H672 C700 0.979 . S
H673 C700 0.980 . S
H674 C700 0.983 . S
H675 C699 0.979 . S
H676 C699 0.977 . S
C677 C665 1.453 . S
C677 H706 0.982 . S
C677 H707 0.979 . S
C677 H708 0.977 . S
C678 C665 1.684 . S
C678 H703 0.979 . S
C678 H704 0.980 . S
C678 H705 0.983 . S
C679 C680 1.391 . S
C679 C684 1.391 . S
C679 H709 0.948 . S
C680 C679 1.391 . S
C680 C681 1.391 . S
C681 C680 1.391 . S
C681 C682 1.392 . S
C681 H710 0.947 . S
C682 C681 1.392 . S
C682 C683 1.419 . S
C682 H711 0.948 . S
C683 C682 1.419 . S
C683 C684 1.391 . S
C683 C687 1.397 . S
C684 C679 1.391 . S
C684 C683 1.391 . S
C684 C685 1.399 . S
C685 C684 1.399 . S
C685 C686 1.396 . S
C685 C688 1.453 . S
C685 C689 1.684 . S
C686 C667 1.723 . S
C686 C685 1.396 . S
C686 C687 1.394 . S
C687 C683 1.397 . S
C687 C686 1.394 . S
C687 C697 1.723 . S
C688 C685 1.453 . S
C688 H712 0.982 . S
C688 H713 0.979 . S
C688 H714 0.977 . S
C689 C685 1.684 . S
C689 H715 0.979 . S
C689 H716 0.980 . S
C689 H717 0.983 . S
C690 H666 0.948 . S
C690 C691 1.391 . S
C690 C695 1.391 . S
C691 C690 1.391 . S
C691 C692 1.391 . S
C692 H669 0.947 . S
C692 C691 1.391 . S
C692 C693 1.392 . S
C693 H670 0.948 . S
C693 C692 1.392 . S
C693 C694 1.419 . S
C694 C693 1.419 . S
C694 C695 1.391 . S
C694 C698 1.397 . S
C695 C690 1.391 . S
C695 C694 1.391 . S
C695 C696 1.399 . S
C696 C695 1.399 . S
C696 C697 1.396 . S
C696 C699 1.453 . S
C696 C700 1.684 . S
C697 C687 1.723 . S
C697 C696 1.396 . S
C697 C698 1.394 . S
C698 C668 1.723 . S
C698 C694 1.397 . S
C698 C697 1.394 . S
C699 H671 0.982 . S
C699 H675 0.979 . S
C699 H676 0.977 . S
C699 C696 1.453 . S
C700 H672 0.979 . S
C700 H673 0.980 . S
C700 H674 0.983 . S
C700 C696 1.684 . S
H701 C719 0.948 . S
H702 C660 0.948 . S
H703 C678 0.979 . S
H704 C678 0.980 . S
H705 C678 0.983 . S
H706 C677 0.982 . S
H707 C677 0.979 . S
H708 C677 0.977 . S
H709 C679 0.948 . S
H710 C681 0.947 . S
H711 C682 0.948 . S
H712 C688 0.982 . S
H713 C688 0.979 . S
H714 C688 0.977 . S
H715 C689 0.979 . S
H716 C689 0.980 . S
H717 C689 0.983 . S
H718 C662 0.947 . S
C719 C662 1.392 . S
C719 C663 1.419 . S
C719 H701 0.948 . S
C720 C721 1.391 . S
C720 C724 1.391 . S
C720 H762 0.948 . S
C721 C720 1.391 . S
C721 C722 1.391 . S
C722 C721 1.391 . S
C722 H778 0.947 . S
C722 C779 1.392 . S
C723 C724 1.391 . S
C723 C727 1.397 . S
C723 C779 1.419 . S
C724 C720 1.391 . S
C724 C723 1.391 . S
C724 C725 1.399 . S
C725 C724 1.399 . S
C725 C728 1.396 . S
C725 C737 1.453 . S
C725 C738 1.684 . S
H726 C750 0.948 . S
C727 C723 1.397 . S
C727 C728 1.394 . S
C727 C746 1.723 . S
C728 C725 1.396 . S
C728 C727 1.394 . S
C728 C758 1.723 . S
H729 C752 0.947 . S
H730 C753 0.948 . S
H731 C759 0.982 . S
H732 C760 0.979 . S
H733 C760 0.980 . S
H734 C760 0.983 . S
H735 C759 0.979 . S
H736 C759 0.977 . S
C737 C725 1.453 . S
C737 H766 0.982 . S
C737 H767 0.979 . S
C737 H768 0.977 . S
C738 C725 1.684 . S
C738 H763 0.979 . S
C738 H764 0.980 . S
C738 H765 0.983 . S
C739 C740 1.391 . S
C739 C744 1.391 . S
C739 H769 0.948 . S
C740 C739 1.391 . S
C740 C741 1.391 . S
C741 C740 1.391 . S
C741 C742 1.392 . S
C741 H770 0.947 . S
C742 C741 1.392 . S
C742 C743 1.419 . S
C742 H771 0.948 . S
C743 C742 1.419 . S
C743 C744 1.391 . S
C743 C747 1.397 . S
C744 C739 1.391 . S
C744 C743 1.391 . S
C744 C745 1.399 . S
C745 C744 1.399 . S
C745 C746 1.396 . S
C745 C748 1.453 . S
C745 C749 1.684 . S
C746 C727 1.723 . S
C746 C745 1.396 . S
C746 C747 1.394 . S
C747 C743 1.397 . S
C747 C746 1.394 . S
C747 C757 1.723 . S
C748 C745 1.453 . S
C748 H772 0.982 . S
C748 H773 0.979 . S
C748 H774 0.977 . S
C749 C745 1.684 . S
C749 H775 0.979 . S
C749 H776 0.980 . S
C749 H777 0.983 . S
C750 H726 0.948 . S
C750 C751 1.391 . S
C750 C755 1.391 . S
C751 C750 1.391 . S
C751 C752 1.391 . S
C752 H729 0.947 . S
C752 C751 1.391 . S
C752 C753 1.392 . S
C753 H730 0.948 . S
C753 C752 1.392 . S
C753 C754 1.419 . S
C754 C753 1.419 . S
C754 C755 1.391 . S
C754 C758 1.397 . S
C755 C750 1.391 . S
C755 C754 1.391 . S
C755 C756 1.399 . S
C756 C755 1.399 . S
C756 C757 1.396 . S
C756 C759 1.453 . S
C756 C760 1.684 . S
C757 C747 1.723 . S
C757 C756 1.396 . S
C757 C758 1.394 . S
C758 C728 1.723 . S
C758 C754 1.397 . S
C758 C757 1.394 . S
C759 H731 0.982 . S
C759 H735 0.979 . S
C759 H736 0.977 . S
C759 C756 1.453 . S
C760 H732 0.979 . S
C760 H733 0.980 . S
C760 H734 0.983 . S
C760 C756 1.684 . S
H761 C779 0.948 . S
H762 C720 0.948 . S
H763 C738 0.979 . S
H764 C738 0.980 . S
H765 C738 0.983 . S
H766 C737 0.982 . S
H767 C737 0.979 . S
H768 C737 0.977 . S
H769 C739 0.948 . S
H770 C741 0.947 . S
H771 C742 0.948 . S
H772 C748 0.982 . S
H773 C748 0.979 . S
H774 C748 0.977 . S
H775 C749 0.979 . S
H776 C749 0.980 . S
H777 C749 0.983 . S
H778 C722 0.947 . S
C779 C722 1.392 . S
C779 C723 1.419 . S
C779 H761 0.948 . S
C780 C781 1.391 . S
C780 C784 1.391 . S
C780 H822 0.948 . S
C781 C780 1.391 . S
C781 C782 1.391 . S
C782 C781 1.391 . S
C782 H838 0.947 . S
C782 C839 1.392 . S
C783 C784 1.391 . S
C783 C787 1.397 . S
C783 C839 1.419 . S
C784 C780 1.391 . S
C784 C783 1.391 . S
C784 C785 1.399 . S
C785 C784 1.399 . S
C785 C788 1.396 . S
C785 C797 1.453 . S
C785 C798 1.684 . S
H786 C810 0.948 . S
C787 C783 1.397 . S
C787 C788 1.394 . S
C787 C806 1.723 . S
C788 C785 1.396 . S
C788 C787 1.394 . S
C788 C818 1.723 . S
H789 C812 0.947 . S
H790 C813 0.948 . S
H791 C819 0.982 . S
H792 C820 0.979 . S
H793 C820 0.980 . S
H794 C820 0.983 . S
H795 C819 0.979 . S
H796 C819 0.977 . S
C797 C785 1.453 . S
C797 H826 0.982 . S
C797 H827 0.979 . S
C797 H828 0.977 . S
C798 C785 1.684 . S
C798 H823 0.979 . S
C798 H824 0.980 . S
C798 H825 0.983 . S
C799 C800 1.391 . S
C799 C804 1.391 . S
C799 H829 0.948 . S
C800 C799 1.391 . S
C800 C801 1.391 . S
C801 C800 1.391 . S
C801 C802 1.392 . S
C801 H830 0.947 . S
C802 C801 1.392 . S
C802 C803 1.419 . S
C802 H831 0.948 . S
C803 C802 1.419 . S
C803 C804 1.391 . S
C803 C807 1.397 . S
C804 C799 1.391 . S
C804 C803 1.391 . S
C804 C805 1.399 . S
C805 C804 1.399 . S
C805 C806 1.396 . S
C805 C808 1.453 . S
C805 C809 1.684 . S
C806 C787 1.723 . S
C806 C805 1.396 . S
C806 C807 1.394 . S
C807 C803 1.397 . S
C807 C806 1.394 . S
C807 C817 1.723 . S
C808 C805 1.453 . S
C808 H832 0.982 . S
C808 H833 0.979 . S
C808 H834 0.977 . S
C809 C805 1.684 . S
C809 H835 0.979 . S
C809 H836 0.980 . S
C809 H837 0.983 . S
C810 H786 0.948 . S
C810 C811 1.391 . S
C810 C815 1.391 . S
C811 C810 1.391 . S
C811 C812 1.391 . S
C812 H789 0.947 . S
C812 C811 1.391 . S
C812 C813 1.392 . S
C813 H790 0.948 . S
C813 C812 1.392 . S
C813 C814 1.419 . S
C814 C813 1.419 . S
C814 C815 1.391 . S
C814 C818 1.397 . S
C815 C810 1.391 . S
C815 C814 1.391 . S
C815 C816 1.399 . S
C816 C815 1.399 . S
C816 C817 1.396 . S
C816 C819 1.453 . S
C816 C820 1.684 . S
C817 C807 1.723 . S
C817 C816 1.396 . S
C817 C818 1.394 . S
C818 C788 1.723 . S
C818 C814 1.397 . S
C818 C817 1.394 . S
C819 H791 0.982 . S
C819 H795 0.979 . S
C819 H796 0.977 . S
C819 C816 1.453 . S
C820 H792 0.979 . S
C820 H793 0.980 . S
C820 H794 0.983 . S
C820 C816 1.684 . S
H821 C839 0.948 . S
H822 C780 0.948 . S
H823 C798 0.979 . S
H824 C798 0.980 . S
H825 C798 0.983 . S
H826 C797 0.982 . S
H827 C797 0.979 . S
H828 C797 0.977 . S
H829 C799 0.948 . S
H830 C801 0.947 . S
H831 C802 0.948 . S
H832 C808 0.982 . S
H833 C808 0.979 . S
H834 C808 0.977 . S
H835 C809 0.979 . S
H836 C809 0.980 . S
H837 C809 0.983 . S
H838 C782 0.947 . S
C839 C782 1.392 . S
C839 C783 1.419 . S
C839 H821 0.948 . S
C840 C841 1.391 . S
C840 C844 1.391 . S
C840 H882 0.948 . S
C841 C840 1.391 . S
C841 C842 1.391 . S
C842 C841 1.391 . S
C842 H898 0.947 . S
C842 C899 1.392 . S
C843 C844 1.391 . S
C843 C847 1.397 . S
C843 C899 1.419 . S
C844 C840 1.391 . S
C844 C843 1.391 . S
C844 C845 1.399 . S
C845 C844 1.399 . S
C845 C848 1.396 . S
C845 C857 1.453 . S
C845 C858 1.684 . S
H846 C870 0.948 . S
C847 C843 1.397 . S
C847 C848 1.394 . S
C847 C866 1.723 . S
C848 C845 1.396 . S
C848 C847 1.394 . S
C848 C878 1.723 . S
H849 C872 0.947 . S
H850 C873 0.948 . S
H851 C879 0.982 . S
H852 C880 0.979 . S
H853 C880 0.980 . S
H854 C880 0.983 . S
H855 C879 0.979 . S
H856 C879 0.977 . S
C857 C845 1.453 . S
C857 H886 0.982 . S
C857 H887 0.979 . S
C857 H888 0.977 . S
C858 C845 1.684 . S
C858 H883 0.979 . S
C858 H884 0.980 . S
C858 H885 0.983 . S
C859 C860 1.391 . S
C859 C864 1.391 . S
C859 H889 0.948 . S
C860 C859 1.391 . S
C860 C861 1.391 . S
C861 C860 1.391 . S
C861 C862 1.392 . S
C861 H890 0.947 . S
C862 C861 1.392 . S
C862 C863 1.419 . S
C862 H891 0.948 . S
C863 C862 1.419 . S
C863 C864 1.391 . S
C863 C867 1.397 . S
C864 C859 1.391 . S
C864 C863 1.391 . S
C864 C865 1.399 . S
C865 C864 1.399 . S
C865 C866 1.396 . S
C865 C868 1.453 . S
C865 C869 1.684 . S
C866 C847 1.723 . S
C866 C865 1.396 . S
C866 C867 1.394 . S
C867 C863 1.397 . S
C867 C866 1.394 . S
C867 C877 1.723 . S
C868 C865 1.453 . S
C868 H892 0.982 . S
C868 H893 0.979 . S
C868 H894 0.977 . S
C869 C865 1.684 . S
C869 H895 0.979 . S
C869 H896 0.980 . S
C869 H897 0.983 . S
C870 H846 0.948 . S
C870 C871 1.391 . S
C870 C875 1.391 . S
C871 C870 1.391 . S
C871 C872 1.391 . S
C872 H849 0.947 . S
C872 C871 1.391 . S
C872 C873 1.392 . S
C873 H850 0.948 . S
C873 C872 1.392 . S
C873 C874 1.419 . S
C874 C873 1.419 . S
C874 C875 1.391 . S
C874 C878 1.397 . S
C875 C870 1.391 . S
C875 C874 1.391 . S
C875 C876 1.399 . S
C876 C875 1.399 . S
C876 C877 1.396 . S
C876 C879 1.453 . S
C876 C880 1.684 . S
C877 C867 1.723 . S
C877 C876 1.396 . S
C877 C878 1.394 . S
C878 C848 1.723 . S
C878 C874 1.397 . S
C878 C877 1.394 . S
C879 H851 0.982 . S
C879 H855 0.979 . S
C879 H856 0.977 . S
C879 C876 1.453 . S
C880 H852 0.979 . S
C880 H853 0.980 . S
C880 H854 0.983 . S
C880 C876 1.684 . S
H881 C899 0.948 . S
H882 C840 0.948 . S
H883 C858 0.979 . S
H884 C858 0.980 . S
H885 C858 0.983 . S
H886 C857 0.982 . S
H887 C857 0.979 . S
H888 C857 0.977 . S
H889 C859 0.948 . S
H890 C861 0.947 . S
H891 C862 0.948 . S
H892 C868 0.982 . S
H893 C868 0.979 . S
H894 C868 0.977 . S
H895 C869 0.979 . S
H896 C869 0.980 . S
H897 C869 0.983 . S
H898 C842 0.947 . S
C899 C842 1.392 . S
C899 C843 1.419 . S
C899 H881 0.948 . S
C900 C901 1.391 . S
C900 C904 1.391 . S
C900 H942 0.948 . S
C901 C900 1.391 . S
C901 C902 1.391 . S
C902 C901 1.391 . S
C902 H958 0.947 . S
C902 C959 1.392 . S
C903 C904 1.391 . S
C903 C907 1.397 . S
C903 C959 1.419 . S
C904 C900 1.391 . S
C904 C903 1.391 . S
C904 C905 1.399 . S
C905 C904 1.399 . S
C905 C908 1.396 . S
C905 C917 1.453 . S
C905 C918 1.684 . S
H906 C930 0.948 . S
C907 C903 1.397 . S
C907 C908 1.394 . S
C907 C926 1.723 . S
C908 C905 1.396 . S
C908 C907 1.394 . S
C908 C938 1.723 . S
H909 C932 0.947 . S
H910 C933 0.948 . S
H911 C939 0.982 . S
H912 C940 0.979 . S
H913 C940 0.980 . S
H914 C940 0.983 . S
H915 C939 0.979 . S
H916 C939 0.977 . S
C917 C905 1.453 . S
C917 H946 0.982 . S
C917 H947 0.979 . S
C917 H948 0.977 . S
C918 C905 1.684 . S
C918 H943 0.979 . S
C918 H944 0.980 . S
C918 H945 0.983 . S
C919 C920 1.391 . S
C919 C924 1.391 . S
C919 H949 0.948 . S
C920 C919 1.391 . S
C920 C921 1.391 . S
C921 C920 1.391 . S
C921 C922 1.392 . S
C921 H950 0.947 . S
C922 C921 1.392 . S
C922 C923 1.419 . S
C922 H951 0.948 . S
C923 C922 1.419 . S
C923 C924 1.391 . S
C923 C927 1.397 . S
C924 C919 1.391 . S
C924 C923 1.391 . S
C924 C925 1.399 . S
C925 C924 1.399 . S
C925 C926 1.396 . S
C925 C928 1.453 . S
C925 C929 1.684 . S
C926 C907 1.723 . S
C926 C925 1.396 . S
C926 C927 1.394 . S
C927 C923 1.397 . S
C927 C926 1.394 . S
C927 C937 1.723 . S
C928 C925 1.453 . S
C928 H952 0.982 . S
C928 H953 0.979 . S
C928 H954 0.977 . S
C929 C925 1.684 . S
C929 H955 0.979 . S
C929 H956 0.980 . S
C929 H957 0.983 . S
C930 H906 0.948 . S
C930 C931 1.391 . S
C930 C935 1.391 . S
C931 C930 1.391 . S
C931 C932 1.391 . S
C932 H909 0.947 . S
C932 C931 1.391 . S
C932 C933 1.392 . S
C933 H910 0.948 . S
C933 C932 1.392 . S
C933 C934 1.419 . S
C934 C933 1.419 . S
C934 C935 1.391 . S
C934 C938 1.397 . S
C935 C930 1.391 . S
C935 C934 1.391 . S
C935 C936 1.399 . S
C936 C935 1.399 . S
C936 C937 1.396 . S
C936 C939 1.453 . S
C936 C940 1.684 . S
C937 C927 1.723 . S
C937 C936 1.396 . S
C937 C938 1.394 . S
C938 C908 1.723 . S
C938 C934 1.397 . S
C938 C937 1.394 . S
C939 H911 0.982 . S
C939 H915 0.979 . S
C939 H916 0.977 . S
C939 C936 1.453 . S
C940 H912 0.979 . S
C940 H913 0.980 . S
C940 H914 0.983 . S
C940 C936 1.684 . S
H941 C959 0.948 . S
H942 C900 0.948 . S
H943 C918 0.979 . S
H944 C918 0.980 . S
H945 C918 0.983 . S
H946 C917 0.982 . S
H947 C917 0.979 . S
H948 C917 0.977 . S
H949 C919 0.948 . S
H950 C921 0.947 . S
H951 C922 0.948 . S
H952 C928 0.982 . S
H953 C928 0.979 . S
H954 C928 0.977 . S
H955 C929 0.979 . S
H956 C929 0.980 . S
H957 C929 0.983 . S
H958 C902 0.947 . S
C959 C902 1.392 . S
C959 C903 1.419 . S
C959 H941 0.948 . S
C960 C961 1.391 . S
C960 C964 1.391 . S
C960 H1002 0.948 . S
C961 C960 1.391 . S
C961 C962 1.391 . S
C962 C961 1.391 . S
C962 H1018 0.947 . S
C962 C1019 1.392 . S
C963 C964 1.391 . S
C963 C967 1.397 . S
C963 C1019 1.419 . S
C964 C960 1.391 . S
C964 C963 1.391 . S
C964 C965 1.399 . S
C965 C964 1.399 . S
C965 C968 1.396 . S
C965 C977 1.453 . S
C965 C978 1.684 . S
H966 C990 0.948 . S
C967 C963 1.397 . S
C967 C968 1.394 . S
C967 C986 1.723 . S
C968 C965 1.396 . S
C968 C967 1.394 . S
C968 C998 1.723 . S
H969 C992 0.947 . S
H970 C993 0.948 . S
H971 C999 0.982 . S
H972 C1000 0.979 . S
H973 C1000 0.980 . S
H974 C1000 0.983 . S
H975 C999 0.979 . S
H976 C999 0.977 . S
C977 C965 1.453 . S
C977 H1006 0.982 . S
C977 H1007 0.979 . S
C977 H1008 0.977 . S
C978 C965 1.684 . S
C978 H1003 0.979 . S
C978 H1004 0.980 . S
C978 H1005 0.983 . S
C979 C980 1.391 . S
C979 C984 1.391 . S
C979 H1009 0.948 . S
C980 C979 1.391 . S
C980 C981 1.391 . S
C981 C980 1.391 . S
C981 C982 1.392 . S
C981 H1010 0.947 . S
C982 C981 1.392 . S
C982 C983 1.419 . S
C982 H1011 0.948 . S
C983 C982 1.419 . S
C983 C984 1.391 . S
C983 C987 1.397 . S
C984 C979 1.391 . S
C984 C983 1.391 . S
C984 C985 1.399 . S
C985 C984 1.399 . S
C985 C986 1.396 . S
C985 C988 1.453 . S
C985 C989 1.684 . S
C986 C967 1.723 . S
C986 C985 1.396 . S
C986 C987 1.394 . S
C987 C983 1.397 . S
C987 C986 1.394 . S
C987 C997 1.723 . S
C988 C985 1.453 . S
C988 H1012 0.982 . S
C988 H1013 0.979 . S
C988 H1014 0.977 . S
C989 C985 1.684 . S
C989 H1015 0.979 1_455 S
C989 H1016 0.980 . S
C989 H1017 0.983 . S
C990 H966 0.948 . S
C990 C991 1.391 . S
C990 C995 1.391 . S
C991 C990 1.391 . S
C991 C992 1.391 . S
C992 H969 0.947 . S
C992 C991 1.391 . S
C992 C993 1.392 . S
C993 H970 0.948 . S
C993 C992 1.392 . S
C993 C994 1.419 . S
C994 C993 1.419 . S
C994 C995 1.391 . S
C994 C998 1.397 . S
C995 C990 1.391 . S
C995 C994 1.391 . S
C995 C996 1.399 . S
C996 C995 1.399 . S
C996 C997 1.396 . S
C996 C999 1.453 . S
C996 C1000 1.684 . S
C997 C987 1.723 . S
C997 C996 1.396 . S
C997 C998 1.394 . S
C998 C968 1.723 . S
C998 C994 1.397 . S
C998 C997 1.394 . S
C999 H971 0.982 . S
C999 H975 0.979 . S
C999 H976 0.977 . S
C999 C996 1.453 . S
C1000 H972 0.979 . S
C1000 H973 0.980 . S
C1000 H974 0.983 . S
C1000 C996 1.684 . S
H1001 C1019 0.948 . S
H1002 C960 0.948 . S
H1003 C978 0.979 . S
H1004 C978 0.980 . S
H1005 C978 0.983 . S
H1006 C977 0.982 . S
H1007 C977 0.979 . S
H1008 C977 0.977 . S
H1009 C979 0.948 . S
H1010 C981 0.947 . S
H1011 C982 0.948 . S
H1012 C988 0.982 . S
H1013 C988 0.979 . S
H1014 C988 0.977 . S
H1015 C989 0.979 1_655 S
H1016 C989 0.980 . S
H1017 C989 0.983 . S
H1018 C962 0.947 . S
C1019 C962 1.392 . S
C1019 C963 1.419 . S
C1019 H1001 0.948 . S
C1020 C1021 1.391 . S
C1020 C1024 1.391 . S
C1020 H1062 0.948 . S
C1021 C1020 1.391 . S
C1021 C1022 1.391 . S
C1022 C1021 1.391 . S
C1022 H1078 0.947 . S
C1022 C1079 1.392 . S
C1023 C1024 1.391 . S
C1023 C1027 1.397 . S
C1023 C1079 1.419 . S
C1024 C1020 1.391 . S
C1024 C1023 1.391 . S
C1024 C1025 1.399 . S
C1025 C1024 1.399 . S
C1025 C1028 1.396 . S
C1025 C1037 1.453 . S
C1025 C1038 1.684 . S
H1026 C1050 0.948 . S
C1027 C1023 1.397 . S
C1027 C1028 1.394 . S
C1027 C1046 1.723 . S
C1028 C1025 1.396 . S
C1028 C1027 1.394 . S
C1028 C1058 1.723 . S
H1029 C1052 0.947 . S
H1030 C1053 0.948 . S
H1031 C1059 0.982 . S
H1032 C1060 0.979 . S
H1033 C1060 0.980 . S
H1034 C1060 0.983 . S
H1035 C1059 0.979 . S
H1036 C1059 0.977 . S
C1037 C1025 1.453 . S
C1037 H1066 0.982 . S
C1037 H1067 0.979 . S
C1037 H1068 0.977 . S
C1038 C1025 1.684 . S
C1038 H1063 0.979 . S
C1038 H1064 0.980 . S
C1038 H1065 0.983 . S
C1039 C1040 1.391 . S
C1039 C1044 1.391 . S
C1039 H1069 0.948 . S
C1040 C1039 1.391 . S
C1040 C1041 1.391 . S
C1041 C1040 1.391 . S
C1041 C1042 1.392 . S
C1041 H1070 0.947 . S
C1042 C1041 1.392 . S
C1042 C1043 1.419 . S
C1042 H1071 0.948 . S
C1043 C1042 1.419 . S
C1043 C1044 1.391 . S
C1043 C1047 1.397 . S
C1044 C1039 1.391 . S
C1044 C1043 1.391 . S
C1044 C1045 1.399 . S
C1045 C1044 1.399 . S
C1045 C1046 1.396 . S
C1045 C1048 1.453 . S
C1045 C1049 1.684 . S
C1046 C1027 1.723 . S
C1046 C1045 1.396 . S
C1046 C1047 1.394 . S
C1047 C1043 1.397 . S
C1047 C1046 1.394 . S
C1047 C1057 1.723 . S
C1048 C1045 1.453 . S
C1048 H1072 0.982 . S
C1048 H1073 0.979 . S
C1048 H1074 0.977 . S
C1049 C1045 1.684 . S
C1049 H1075 0.979 . S
C1049 H1076 0.980 . S
C1049 H1077 0.983 . S
C1050 H1026 0.948 . S
C1050 C1051 1.391 . S
C1050 C1055 1.391 . S
C1051 C1050 1.391 . S
C1051 C1052 1.391 . S
C1052 H1029 0.947 . S
C1052 C1051 1.391 . S
C1052 C1053 1.392 . S
C1053 H1030 0.948 . S
C1053 C1052 1.392 . S
C1053 C1054 1.419 . S
C1054 C1053 1.419 . S
C1054 C1055 1.391 . S
C1054 C1058 1.397 . S
C1055 C1050 1.391 . S
C1055 C1054 1.391 . S
C1055 C1056 1.399 . S
C1056 C1055 1.399 . S
C1056 C1057 1.396 . S
C1056 C1059 1.453 . S
C1056 C1060 1.684 . S
C1057 C1047 1.723 . S
C1057 C1056 1.396 . S
C1057 C1058 1.394 . S
C1058 C1028 1.723 . S
C1058 C1054 1.397 . S
C1058 C1057 1.394 . S
C1059 H1031 0.982 . S
C1059 H1035 0.979 . S
C1059 H1036 0.977 . S
C1059 C1056 1.453 . S
C1060 H1032 0.979 . S
C1060 H1033 0.980 . S
C1060 H1034 0.983 . S
C1060 C1056 1.684 . S
H1061 C1079 0.948 . S
H1062 C1020 0.948 . S
H1063 C1038 0.979 . S
H1064 C1038 0.980 . S
H1065 C1038 0.983 . S
H1066 C1037 0.982 . S
H1067 C1037 0.979 . S
H1068 C1037 0.977 . S
H1069 C1039 0.948 . S
H1070 C1041 0.947 . S
H1071 C1042 0.948 . S
H1072 C1048 0.982 . S
H1073 C1048 0.979 . S
H1074 C1048 0.977 . S
H1075 C1049 0.979 . S
H1076 C1049 0.980 . S
H1077 C1049 0.983 . S
H1078 C1022 0.947 . S
C1079 C1022 1.392 . S
C1079 C1023 1.419 . S
C1079 H1061 0.948 . S
C1080 Eu1081 2.835 . S
C1080 C1082 1.500 . S
C1080 O1100 1.257 1_545 S
C1080 O1101 1.260 . S
Eu1081 C1080 2.835 . S
Eu1081 O1100 2.473 1_545 S
Eu1081 O1101 2.480 . S
Eu1081 O1102 2.430 . S
Eu1081 O1103 2.670 1_554 S
Eu1081 O1104 2.394 1_545 S
Eu1081 O1109 2.355 1_545 S
Eu1081 O1111 2.374 . S
C1082 C1080 1.500 . S
C1082 C1083 1.377 . S
C1082 C1087 1.377 1_545 S
C1083 C1082 1.377 . S
C1083 C1084 1.395 . S
C1083 H1112 0.931 . S
C1084 C1083 1.395 . S
C1084 C1085 1.383 1_545 S
C1084 H1113 0.931 . S
C1085 C1084 1.383 1_565 S
C1085 C1086 1.394 . S
C1086 C1085 1.394 . S
C1086 C1087 1.378 . S
C1086 H1114 0.931 . S
C1087 C1082 1.377 1_565 S
C1087 C1086 1.378 . S
C1087 H1115 0.931 . S
C1088 O1102 1.259 1_556 S
C1088 O1103 1.270 . S
C1089 O1104 1.251 . S
C1089 O1105 1.251 1_554 S
C1090 Eu1091 2.835 . S
C1090 C1092 1.500 . S
C1090 O1106 1.257 1_565 S
C1090 O1107 1.260 . S
Eu1091 C1090 2.835 . S
Eu1091 O1103 2.355 1_565 S
Eu1091 O1105 2.374 . S
Eu1091 O1106 2.473 1_565 S
Eu1091 O1107 2.480 . S
Eu1091 O1108 2.430 . S
Eu1091 O1109 2.670 1_556 S
Eu1091 O1110 2.394 1_565 S
C1092 C1090 1.500 . S
C1092 C1093 1.377 . S
C1092 C1097 1.377 1_565 S
C1093 C1092 1.377 . S
C1093 C1094 1.395 . S
C1093 H1116 0.931 . S
C1094 C1093 1.395 . S
C1094 C1095 1.383 1_565 S
C1094 H1117 0.931 . S
C1095 C1094 1.383 1_545 S
C1095 C1096 1.394 . S
C1096 C1095 1.394 . S
C1096 C1097 1.378 . S
C1096 H1118 0.931 . S
C1097 C1092 1.377 1_545 S
C1097 C1096 1.378 . S
C1097 H1119 0.931 . S
C1098 O1108 1.259 1_554 S
C1098 O1109 1.270 . S
C1099 O1110 1.251 . S
C1099 O1111 1.251 1_556 S
O1100 C1080 1.257 1_565 S
O1100 Eu1081 2.473 1_565 S
O1101 C1080 1.260 . S
O1101 Eu1081 2.480 . S
O1102 Eu1081 2.430 . S
O1102 C1088 1.259 1_554 S
O1103 Eu1081 2.670 1_556 S
O1103 C1088 1.270 . S
O1103 Eu1091 2.355 1_545 S
O1104 Eu1081 2.394 1_565 S
O1104 C1089 1.251 . S
O1105 C1089 1.251 1_556 S
O1105 Eu1091 2.374 . S
O1106 C1090 1.257 1_545 S
O1106 Eu1091 2.473 1_545 S
O1107 C1090 1.260 . S
O1107 Eu1091 2.480 . S
O1108 Eu1091 2.430 . S
O1108 C1098 1.259 1_556 S
O1109 Eu1081 2.355 1_565 S
O1109 Eu1091 2.670 1_554 S
O1109 C1098 1.270 . S
O1110 Eu1091 2.394 1_545 S
O1110 C1099 1.251 . S
O1111 Eu1081 2.374 . S
O1111 C1099 1.251 1_554 S
H1112 C1083 0.931 . S
H1113 C1084 0.931 . S
H1114 C1086 0.931 . S
H1115 C1087 0.931 . S
H1116 C1093 0.931 . S
H1117 C1094 0.931 . S
H1118 C1096 0.931 . S
H1119 C1097 0.931 . S
C1120 Eu1121 2.835 . S
C1120 C1122 1.500 1_655 S
C1120 O1140 1.257 1_655 S
C1120 O1141 1.260 . S
Eu1121 C1120 2.835 . S
Eu1121 O1140 2.473 1_655 S
Eu1121 O1141 2.480 . S
Eu1121 O1142 2.430 . S
Eu1121 O1143 2.670 1_554 S
Eu1121 O1144 2.394 1_655 S
Eu1121 O1149 2.355 1_655 S
Eu1121 O1151 2.389 . S
C1122 C1120 1.500 1_455 S
C1122 C1123 1.377 1_455 S
C1122 C1127 1.377 . S
C1123 C1122 1.377 1_655 S
C1123 C1124 1.395 . S
C1123 H1152 0.931 . S
C1124 C1123 1.395 . S
C1124 C1125 1.383 1_655 S
C1124 H1153 0.931 . S
C1125 C1124 1.383 1_455 S
C1125 C1126 1.394 . S
C1126 C1125 1.394 . S
C1126 C1127 1.378 . S
C1126 H1154 0.931 . S
C1127 C1122 1.377 . S
C1127 C1126 1.378 . S
C1127 H1155 0.931 . S
C1128 O1142 1.259 1_556 S
C1128 O1143 1.270 . S
C1129 O1144 1.251 . S
C1129 O1145 1.267 . S
C1130 Eu1131 2.835 . S
C1130 C1132 1.500 1_455 S
C1130 O1146 1.257 1_455 S
C1130 O1147 1.260 . S
Eu1131 C1130 2.835 . S
Eu1131 O1143 2.355 1_455 S
Eu1131 O1145 2.362 1_556 S
Eu1131 O1146 2.473 1_455 S
Eu1131 O1147 2.480 . S
Eu1131 O1148 2.430 . S
Eu1131 O1149 2.670 1_556 S
Eu1131 O1150 2.394 1_455 S
C1132 C1130 1.500 1_655 S
C1132 C1133 1.377 1_655 S
C1132 C1137 1.377 . S
C1133 C1132 1.377 1_455 S
C1133 C1134 1.395 . S
C1133 H1156 0.931 . S
C1134 C1133 1.395 . S
C1134 C1135 1.383 1_455 S
C1134 H1157 0.931 . S
C1135 C1134 1.383 1_655 S
C1135 C1136 1.394 . S
C1136 C1135 1.394 . S
C1136 C1137 1.378 . S
C1136 H1158 0.931 . S
C1137 C1132 1.377 . S
C1137 C1136 1.378 . S
C1137 H1159 0.931 . S
C1138 O1148 1.259 1_554 S
C1138 O1149 1.270 . S
C1139 O1150 1.251 . S
C1139 O1151 1.231 1_556 S
O1140 C1120 1.257 1_455 S
O1140 Eu1121 2.473 1_455 S
O1141 C1120 1.260 . S
O1141 Eu1121 2.480 . S
O1142 Eu1121 2.430 . S
O1142 C1128 1.259 1_554 S
O1143 Eu1121 2.670 1_556 S
O1143 C1128 1.270 . S
O1143 Eu1131 2.355 1_655 S
O1144 Eu1121 2.394 1_455 S
O1144 C1129 1.251 . S
O1145 C1129 1.267 . S
O1145 Eu1131 2.362 1_554 S
O1146 C1130 1.257 1_655 S
O1146 Eu1131 2.473 1_655 S
O1147 C1130 1.260 . S
O1147 Eu1131 2.480 . S
O1148 Eu1131 2.430 . S
O1148 C1138 1.259 1_556 S
O1149 Eu1121 2.355 1_455 S
O1149 Eu1131 2.670 1_554 S
O1149 C1138 1.270 . S
O1150 Eu1131 2.394 1_655 S
O1150 C1139 1.251 . S
O1151 Eu1121 2.389 . S
O1151 C1139 1.231 1_554 S
H1152 C1123 0.931 . S
H1153 C1124 0.931 . S
H1154 C1126 0.931 . S
H1155 C1127 0.931 . S
H1156 C1133 0.931 . S
H1157 C1134 0.931 . S
H1158 C1136 0.931 . S
H1159 C1137 0.931 . S
C1160 Eu1161 2.835 . S
C1160 C1162 1.500 . S
C1160 O1180 1.257 . S
C1160 O1181 1.260 . S
Eu1161 C1160 2.835 . S
Eu1161 O1180 2.473 . S
Eu1161 O1181 2.480 . S
Eu1161 O1182 2.430 . S
Eu1161 O1183 2.670 1_556 S
Eu1161 O1184 2.394 . S
Eu1161 O1189 2.355 . S
Eu1161 O1191 2.374 . S
C1162 C1160 1.500 . S
C1162 C1163 1.377 . S
C1162 C1167 1.377 . S
C1163 C1162 1.377 . S
C1163 C1164 1.395 . S
C1163 H1192 0.931 . S
C1164 C1163 1.395 . S
C1164 C1165 1.383 . S
C1164 H1193 0.931 . S
C1165 C1164 1.383 . S
C1165 C1166 1.394 . S
C1166 C1165 1.394 . S
C1166 C1167 1.378 . S
C1166 H1194 0.931 . S
C1167 C1162 1.377 . S
C1167 C1166 1.378 . S
C1167 H1195 0.931 . S
C1168 O1182 1.259 1_554 S
C1168 O1183 1.270 . S
C1169 O1184 1.251 . S
C1169 O1185 1.251 1_556 S
C1170 Eu1171 2.835 . S
C1170 C1172 1.500 . S
C1170 O1186 1.257 . S
C1170 O1187 1.260 . S
Eu1171 C1170 2.835 . S
Eu1171 O1183 2.355 . S
Eu1171 O1185 2.374 . S
Eu1171 O1186 2.473 . S
Eu1171 O1187 2.480 . S
Eu1171 O1188 2.430 . S
Eu1171 O1189 2.670 1_554 S
Eu1171 O1190 2.394 . S
C1172 C1170 1.500 . S
C1172 C1173 1.377 . S
C1172 C1177 1.377 . S
C1173 C1172 1.377 . S
C1173 C1174 1.395 . S
C1173 H1196 0.931 . S
C1174 C1173 1.395 . S
C1174 C1175 1.383 . S
C1174 H1197 0.931 . S
C1175 C1174 1.383 . S
C1175 C1176 1.394 . S
C1176 C1175 1.394 . S
C1176 C1177 1.378 . S
C1176 H1198 0.931 . S
C1177 C1172 1.377 . S
C1177 C1176 1.378 . S
C1177 H1199 0.931 . S
C1178 O1188 1.259 1_556 S
C1178 O1189 1.270 . S
C1179 O1190 1.251 . S
C1179 O1191 1.251 1_554 S
O1180 C1160 1.257 . S
O1180 Eu1161 2.473 . S
O1181 C1160 1.260 . S
O1181 Eu1161 2.480 . S
O1182 Eu1161 2.430 . S
O1182 C1168 1.259 1_556 S
O1183 Eu1161 2.670 1_554 S
O1183 C1168 1.270 . S
O1183 Eu1171 2.355 . S
O1184 Eu1161 2.394 . S
O1184 C1169 1.251 . S
O1185 C1169 1.251 1_554 S
O1185 Eu1171 2.374 . S
O1186 C1170 1.257 . S
O1186 Eu1171 2.473 . S
O1187 C1170 1.260 . S
O1187 Eu1171 2.480 . S
O1188 Eu1171 2.430 . S
O1188 C1178 1.259 1_554 S
O1189 Eu1161 2.355 . S
O1189 Eu1171 2.670 1_556 S
O1189 C1178 1.270 . S
O1190 Eu1171 2.394 . S
O1190 C1179 1.251 . S
O1191 Eu1161 2.374 . S
O1191 C1179 1.251 1_556 S
H1192 C1163 0.931 . S
H1193 C1164 0.931 . S
H1194 C1166 0.931 . S
H1195 C1167 0.931 . S
H1196 C1173 0.931 . S
H1197 C1174 0.931 . S
H1198 C1176 0.931 . S
H1199 C1177 0.931 . S
C1200 Eu1201 2.835 . S
C1200 C1202 1.500 . S
C1200 O1220 1.257 . S
C1200 O1221 1.260 . S
Eu1201 C1200 2.835 . S
Eu1201 O1220 2.473 . S
Eu1201 O1221 2.480 . S
Eu1201 O1222 2.430 . S
Eu1201 O1223 2.670 . S
Eu1201 O1224 2.394 . S
Eu1201 O1229 2.355 . S
Eu1201 O1231 2.374 . S
C1202 C1200 1.500 . S
C1202 C1203 1.377 . S
C1202 C1207 1.377 . S
C1203 C1202 1.377 . S
C1203 C1204 1.395 . S
C1203 H1232 0.931 . S
C1204 C1203 1.395 . S
C1204 C1205 1.383 . S
C1204 H1233 0.931 . S
C1205 C1204 1.383 . S
C1205 C1206 1.394 . S
C1206 C1205 1.394 . S
C1206 C1207 1.378 . S
C1206 H1234 0.931 . S
C1207 C1202 1.377 . S
C1207 C1206 1.378 . S
C1207 H1235 0.931 . S
C1208 O1222 1.259 . S
C1208 O1223 1.270 . S
C1209 O1224 1.251 . S
C1209 O1225 1.251 . S
C1210 Eu1211 2.835 . S
C1210 C1212 1.500 . S
C1210 O1226 1.257 . S
C1210 O1227 1.260 . S
Eu1211 C1210 2.835 . S
Eu1211 O1223 2.355 . S
Eu1211 O1225 2.374 . S
Eu1211 O1226 2.473 . S
Eu1211 O1227 2.480 . S
Eu1211 O1228 2.430 . S
Eu1211 O1229 2.670 . S
Eu1211 O1230 2.394 . S
C1212 C1210 1.500 . S
C1212 C1213 1.377 . S
C1212 C1217 1.377 . S
C1213 C1212 1.377 . S
C1213 C1214 1.395 . S
C1213 H1236 0.931 . S
C1214 C1213 1.395 . S
C1214 C1215 1.383 . S
C1214 H1237 0.931 . S
C1215 C1214 1.383 . S
C1215 C1216 1.394 . S
C1216 C1215 1.394 . S
C1216 C1217 1.378 . S
C1216 H1238 0.931 . S
C1217 C1212 1.377 . S
C1217 C1216 1.378 . S
C1217 H1239 0.931 . S
C1218 O1228 1.259 . S
C1218 O1229 1.270 . S
C1219 O1230 1.251 . S
C1219 O1231 1.251 . S
O1220 C1200 1.257 . S
O1220 Eu1201 2.473 . S
O1221 C1200 1.260 . S
O1221 Eu1201 2.480 . S
O1222 Eu1201 2.430 . S
O1222 C1208 1.259 . S
O1223 Eu1201 2.670 . S
O1223 C1208 1.270 . S
O1223 Eu1211 2.355 . S
O1224 Eu1201 2.394 . S
O1224 C1209 1.251 . S
O1225 C1209 1.251 . S
O1225 Eu1211 2.374 . S
O1226 C1210 1.257 . S
O1226 Eu1211 2.473 . S
O1227 C1210 1.260 . S
O1227 Eu1211 2.480 . S
O1228 Eu1211 2.430 . S
O1228 C1218 1.259 . S
O1229 Eu1201 2.355 . S
O1229 Eu1211 2.670 . S
O1229 C1218 1.270 . S
O1230 Eu1211 2.394 . S
O1230 C1219 1.251 . S
O1231 Eu1201 2.374 . S
O1231 C1219 1.251 . S
H1232 C1203 0.931 . S
H1233 C1204 0.931 . S
H1234 C1206 0.931 . S
H1235 C1207 0.931 . S
H1236 C1213 0.931 . S
H1237 C1214 0.931 . S
H1238 C1216 0.931 . S
H1239 C1217 0.931 . S
C1240 Eu1241 2.835 . S
C1240 C1242 1.500 . S
C1240 O1260 1.257 . S
C1240 O1261 1.260 . S
Eu1241 C1240 2.835 . S
Eu1241 O1260 2.473 . S
Eu1241 O1261 2.480 . S
Eu1241 O1262 2.430 . S
Eu1241 O1263 2.670 . S
Eu1241 O1264 2.394 . S
Eu1241 O1269 2.355 . S
Eu1241 O1271 2.374 . S
C1242 C1240 1.500 . S
C1242 C1243 1.377 . S
C1242 C1247 1.377 . S
C1243 C1242 1.377 . S
C1243 C1244 1.395 . S
C1243 H1272 0.931 . S
C1244 C1243 1.395 . S
C1244 C1245 1.383 . S
C1244 H1273 0.931 . S
C1245 C1244 1.383 . S
C1245 C1246 1.394 . S
C1246 C1245 1.394 . S
C1246 C1247 1.378 . S
C1246 H1274 0.931 . S
C1247 C1242 1.377 . S
C1247 C1246 1.378 . S
C1247 H1275 0.931 . S
C1248 O1262 1.259 . S
C1248 O1263 1.270 . S
C1249 O1264 1.251 . S
C1249 O1265 1.251 . S
C1250 Eu1251 2.835 . S
C1250 C1252 1.500 . S
C1250 O1266 1.257 . S
C1250 O1267 1.260 . S
Eu1251 C1250 2.835 . S
Eu1251 O1263 2.355 . S
Eu1251 O1265 2.374 . S
Eu1251 O1266 2.473 . S
Eu1251 O1267 2.480 . S
Eu1251 O1268 2.430 . S
Eu1251 O1269 2.670 . S
Eu1251 O1270 2.394 . S
C1252 C1250 1.500 . S
C1252 C1253 1.377 . S
C1252 C1257 1.377 . S
C1253 C1252 1.377 . S
C1253 C1254 1.395 . S
C1253 H1276 0.931 . S
C1254 C1253 1.395 . S
C1254 C1255 1.383 . S
C1254 H1277 0.931 . S
C1255 C1254 1.383 . S
C1255 C1256 1.394 . S
C1256 C1255 1.394 . S
C1256 C1257 1.378 . S
C1256 H1278 0.931 . S
C1257 C1252 1.377 . S
C1257 C1256 1.378 . S
C1257 H1279 0.931 . S
C1258 O1268 1.259 . S
C1258 O1269 1.270 . S
C1259 O1270 1.251 . S
C1259 O1271 1.251 . S
O1260 C1240 1.257 . S
O1260 Eu1241 2.473 . S
O1261 C1240 1.260 . S
O1261 Eu1241 2.480 . S
O1262 Eu1241 2.430 . S
O1262 C1248 1.259 . S
O1263 Eu1241 2.670 . S
O1263 C1248 1.270 . S
O1263 Eu1251 2.355 . S
O1264 Eu1241 2.394 . S
O1264 C1249 1.251 . S
O1265 C1249 1.251 . S
O1265 Eu1251 2.374 . S
O1266 C1250 1.257 . S
O1266 Eu1251 2.473 . S
O1267 C1250 1.260 . S
O1267 Eu1251 2.480 . S
O1268 Eu1251 2.430 . S
O1268 C1258 1.259 . S
O1269 Eu1241 2.355 . S
O1269 Eu1251 2.670 . S
O1269 C1258 1.270 . S
O1270 Eu1251 2.394 . S
O1270 C1259 1.251 . S
O1271 Eu1241 2.374 . S
O1271 C1259 1.251 . S
H1272 C1243 0.931 . S
H1273 C1244 0.931 . S
H1274 C1246 0.931 . S
H1275 C1247 0.931 . S
H1276 C1253 0.931 . S
H1277 C1254 0.931 . S
H1278 C1256 0.931 . S
H1279 C1257 0.931 . S
C1280 Eu1281 2.835 . S
C1280 C1282 1.500 . S
C1280 O1300 1.257 . S
C1280 O1301 1.260 . S
Eu1281 C1280 2.835 . S
Eu1281 O1300 2.473 . S
Eu1281 O1301 2.480 . S
Eu1281 O1302 2.430 . S
Eu1281 O1303 2.670 . S
Eu1281 O1304 2.394 . S
Eu1281 O1309 2.355 . S
Eu1281 O1311 2.374 . S
C1282 C1280 1.500 . S
C1282 C1283 1.377 . S
C1282 C1287 1.377 . S
C1283 C1282 1.377 . S
C1283 C1284 1.395 . S
C1283 H1312 0.931 . S
C1284 C1283 1.395 . S
C1284 C1285 1.383 . S
C1284 H1313 0.931 . S
C1285 C1284 1.383 . S
C1285 C1286 1.394 . S
C1286 C1285 1.394 . S
C1286 C1287 1.378 . S
C1286 H1314 0.931 . S
C1287 C1282 1.377 . S
C1287 C1286 1.378 . S
C1287 H1315 0.931 . S
C1288 O1302 1.259 . S
C1288 O1303 1.270 . S
C1289 O1304 1.251 . S
C1289 O1305 1.251 . S
C1290 Eu1291 2.835 . S
C1290 C1292 1.500 . S
C1290 O1306 1.257 . S
C1290 O1307 1.260 . S
Eu1291 C1290 2.835 . S
Eu1291 O1303 2.355 . S
Eu1291 O1305 2.374 . S
Eu1291 O1306 2.473 . S
Eu1291 O1307 2.480 . S
Eu1291 O1308 2.430 . S
Eu1291 O1309 2.670 . S
Eu1291 O1310 2.394 . S
C1292 C1290 1.500 . S
C1292 C1293 1.377 . S
C1292 C1297 1.377 . S
C1293 C1292 1.377 . S
C1293 C1294 1.395 . S
C1293 H1316 0.931 . S
C1294 C1293 1.395 . S
C1294 C1295 1.383 . S
C1294 H1317 0.931 . S
C1295 C1294 1.383 . S
C1295 C1296 1.394 . S
C1296 C1295 1.394 . S
C1296 C1297 1.378 . S
C1296 H1318 0.931 . S
C1297 C1292 1.377 . S
C1297 C1296 1.378 . S
C1297 H1319 0.931 . S
C1298 O1308 1.259 . S
C1298 O1309 1.270 . S
C1299 O1310 1.251 . S
C1299 O1311 1.251 . S
O1300 C1280 1.257 . S
O1300 Eu1281 2.473 . S
O1301 C1280 1.260 . S
O1301 Eu1281 2.480 . S
O1302 Eu1281 2.430 . S
O1302 C1288 1.259 . S
O1303 Eu1281 2.670 . S
O1303 C1288 1.270 . S
O1303 Eu1291 2.355 . S
O1304 Eu1281 2.394 . S
O1304 C1289 1.251 . S
O1305 C1289 1.251 . S
O1305 Eu1291 2.374 . S
O1306 C1290 1.257 . S
O1306 Eu1291 2.473 . S
O1307 C1290 1.260 . S
O1307 Eu1291 2.480 . S
O1308 Eu1291 2.430 . S
O1308 C1298 1.259 . S
O1309 Eu1281 2.355 . S
O1309 Eu1291 2.670 . S
O1309 C1298 1.270 . S
O1310 Eu1291 2.394 . S
O1310 C1299 1.251 . S
O1311 Eu1281 2.374 . S
O1311 C1299 1.251 . S
H1312 C1283 0.931 . S
H1313 C1284 0.931 . S
H1314 C1286 0.931 . S
H1315 C1287 0.931 . S
H1316 C1293 0.931 . S
H1317 C1294 0.931 . S
H1318 C1296 0.931 . S
H1319 C1297 0.931 . S
C1320 Eu1321 2.835 . S
C1320 C1322 1.500 . S
C1320 O1340 1.257 . S
C1320 O1341 1.260 . S
Eu1321 C1320 2.835 . S
Eu1321 O1340 2.473 . S
Eu1321 O1341 2.480 . S
Eu1321 O1342 2.430 . S
Eu1321 O1343 2.670 . S
Eu1321 O1344 2.394 . S
Eu1321 O1349 2.355 . S
Eu1321 O1351 2.374 . S
C1322 C1320 1.500 . S
C1322 C1323 1.377 . S
C1322 C1327 1.377 . S
C1323 C1322 1.377 . S
C1323 C1324 1.395 . S
C1323 H1352 0.931 . S
C1324 C1323 1.395 . S
C1324 C1325 1.383 . S
C1324 H1353 0.931 . S
C1325 C1324 1.383 . S
C1325 C1326 1.394 . S
C1326 C1325 1.394 . S
C1326 C1327 1.378 . S
C1326 H1354 0.931 . S
C1327 C1322 1.377 . S
C1327 C1326 1.378 . S
C1327 H1355 0.931 . S
C1328 O1342 1.259 . S
C1328 O1343 1.270 . S
C1329 O1344 1.251 . S
C1329 O1345 1.251 . S
C1330 Eu1331 2.835 . S
C1330 C1332 1.500 . S
C1330 O1346 1.257 . S
C1330 O1347 1.260 . S
Eu1331 C1330 2.835 . S
Eu1331 O1343 2.355 . S
Eu1331 O1345 2.374 . S
Eu1331 O1346 2.473 . S
Eu1331 O1347 2.480 . S
Eu1331 O1348 2.430 . S
Eu1331 O1349 2.670 . S
Eu1331 O1350 2.394 . S
C1332 C1330 1.500 . S
C1332 C1333 1.377 . S
C1332 C1337 1.377 . S
C1333 C1332 1.377 . S
C1333 C1334 1.395 . S
C1333 H1356 0.931 . S
C1334 C1333 1.395 . S
C1334 C1335 1.383 . S
C1334 H1357 0.931 . S
C1335 C1334 1.383 . S
C1335 C1336 1.394 . S
C1336 C1335 1.394 . S
C1336 C1337 1.378 . S
C1336 H1358 0.931 . S
C1337 C1332 1.377 . S
C1337 C1336 1.378 . S
C1337 H1359 0.931 . S
C1338 O1348 1.259 . S
C1338 O1349 1.270 . S
C1339 O1350 1.251 . S
C1339 O1351 1.251 . S
O1340 C1320 1.257 . S
O1340 Eu1321 2.473 . S
O1341 C1320 1.260 . S
O1341 Eu1321 2.480 . S
O1342 Eu1321 2.430 . S
O1342 C1328 1.259 . S
O1343 Eu1321 2.670 . S
O1343 C1328 1.270 . S
O1343 Eu1331 2.355 . S
O1344 Eu1321 2.394 . S
O1344 C1329 1.251 . S
O1345 C1329 1.251 . S
O1345 Eu1331 2.374 . S
O1346 C1330 1.257 . S
O1346 Eu1331 2.473 . S
O1347 C1330 1.260 . S
O1347 Eu1331 2.480 . S
O1348 Eu1331 2.430 . S
O1348 C1338 1.259 . S
O1349 Eu1321 2.355 . S
O1349 Eu1331 2.670 . S
O1349 C1338 1.270 . S
O1350 Eu1331 2.394 . S
O1350 C1339 1.251 . S
O1351 Eu1321 2.374 . S
O1351 C1339 1.251 . S
H1352 C1323 0.931 . S
H1353 C1324 0.931 . S
H1354 C1326 0.931 . S
H1355 C1327 0.931 . S
H1356 C1333 0.931 . S
H1357 C1334 0.931 . S
H1358 C1336 0.931 . S
H1359 C1337 0.931 . S
C1360 Eu1361 2.835 . S
C1360 C1362 1.500 . S
C1360 O1380 1.257 . S
C1360 O1381 1.260 . S
Eu1361 C1360 2.835 . S
Eu1361 O1380 2.473 . S
Eu1361 O1381 2.480 . S
Eu1361 O1382 2.430 . S
Eu1361 O1383 2.670 . S
Eu1361 O1384 2.394 . S
Eu1361 O1389 2.355 . S
Eu1361 O1391 2.374 . S
C1362 C1360 1.500 . S
C1362 C1363 1.377 . S
C1362 C1367 1.377 . S
C1363 C1362 1.377 . S
C1363 C1364 1.395 . S
C1363 H1392 0.931 . S
C1364 C1363 1.395 . S
C1364 C1365 1.383 . S
C1364 H1393 0.931 . S
C1365 C1364 1.383 . S
C1365 C1366 1.394 . S
C1366 C1365 1.394 . S
C1366 C1367 1.378 . S
C1366 H1394 0.931 . S
C1367 C1362 1.377 . S
C1367 C1366 1.378 . S
C1367 H1395 0.931 . S
C1368 O1382 1.259 . S
C1368 O1383 1.270 . S
C1369 O1384 1.251 . S
C1369 O1385 1.251 . S
C1370 Eu1371 2.835 . S
C1370 C1372 1.500 . S
C1370 O1386 1.257 . S
C1370 O1387 1.260 . S
Eu1371 C1370 2.835 . S
Eu1371 O1383 2.355 . S
Eu1371 O1385 2.374 . S
Eu1371 O1386 2.473 . S
Eu1371 O1387 2.480 . S
Eu1371 O1388 2.430 . S
Eu1371 O1389 2.670 . S
Eu1371 O1390 2.394 . S
C1372 C1370 1.500 . S
C1372 C1373 1.377 . S
C1372 C1377 1.377 . S
C1373 C1372 1.377 . S
C1373 C1374 1.395 . S
C1373 H1396 0.931 . S
C1374 C1373 1.395 . S
C1374 C1375 1.383 . S
C1374 H1397 0.931 . S
C1375 C1374 1.383 . S
C1375 C1376 1.394 . S
C1376 C1375 1.394 . S
C1376 C1377 1.378 . S
C1376 H1398 0.931 . S
C1377 C1372 1.377 . S
C1377 C1376 1.378 . S
C1377 H1399 0.931 . S
C1378 O1388 1.259 . S
C1378 O1389 1.270 . S
C1379 O1390 1.251 . S
C1379 O1391 1.251 . S
O1380 C1360 1.257 . S
O1380 Eu1361 2.473 . S
O1381 C1360 1.260 . S
O1381 Eu1361 2.480 . S
O1382 Eu1361 2.430 . S
O1382 C1368 1.259 . S
O1383 Eu1361 2.670 . S
O1383 C1368 1.270 . S
O1383 Eu1371 2.355 . S
O1384 Eu1361 2.394 . S
O1384 C1369 1.251 . S
O1385 C1369 1.251 . S
O1385 Eu1371 2.374 . S
O1386 C1370 1.257 . S
O1386 Eu1371 2.473 . S
O1387 C1370 1.260 . S
O1387 Eu1371 2.480 . S
O1388 Eu1371 2.430 . S
O1388 C1378 1.259 . S
O1389 Eu1361 2.355 . S
O1389 Eu1371 2.670 . S
O1389 C1378 1.270 . S
O1390 Eu1371 2.394 . S
O1390 C1379 1.251 . S
O1391 Eu1361 2.374 . S
O1391 C1379 1.251 . S
H1392 C1363 0.931 . S
H1393 C1364 0.931 . S
H1394 C1366 0.931 . S
H1395 C1367 0.931 . S
H1396 C1373 0.931 . S
H1397 C1374 0.931 . S
H1398 C1376 0.931 . S
H1399 C1377 0.931 . S
C1400 Eu1401 2.835 . S
C1400 C1402 1.500 . S
C1400 O1420 1.257 . S
C1400 O1421 1.260 . S
Eu1401 C1400 2.835 . S
Eu1401 O1420 2.473 . S
Eu1401 O1421 2.480 . S
Eu1401 O1422 2.430 . S
Eu1401 O1423 2.670 . S
Eu1401 O1424 2.394 . S
Eu1401 O1429 2.355 . S
Eu1401 O1431 2.374 . S
C1402 C1400 1.500 . S
C1402 C1403 1.377 . S
C1402 C1407 1.377 . S
C1403 C1402 1.377 . S
C1403 C1404 1.395 . S
C1403 H1432 0.931 . S
C1404 C1403 1.395 . S
C1404 C1405 1.383 . S
C1404 H1433 0.931 . S
C1405 C1404 1.383 . S
C1405 C1406 1.394 . S
C1406 C1405 1.394 . S
C1406 C1407 1.378 . S
C1406 H1434 0.931 . S
C1407 C1402 1.377 . S
C1407 C1406 1.378 . S
C1407 H1435 0.931 . S
C1408 O1422 1.259 . S
C1408 O1423 1.270 . S
C1409 O1424 1.251 . S
C1409 O1425 1.251 . S
C1410 Eu1411 2.835 . S
C1410 C1412 1.500 . S
C1410 O1426 1.257 . S
C1410 O1427 1.260 . S
Eu1411 C1410 2.835 . S
Eu1411 O1423 2.355 . S
Eu1411 O1425 2.374 . S
Eu1411 O1426 2.473 . S
Eu1411 O1427 2.480 . S
Eu1411 O1428 2.430 . S
Eu1411 O1429 2.670 . S
Eu1411 O1430 2.394 . S
C1412 C1410 1.500 . S
C1412 C1413 1.377 . S
C1412 C1417 1.377 . S
C1413 C1412 1.377 . S
C1413 C1414 1.395 . S
C1413 H1436 0.931 . S
C1414 C1413 1.395 . S
C1414 C1415 1.383 . S
C1414 H1437 0.931 . S
C1415 C1414 1.383 . S
C1415 C1416 1.394 . S
C1416 C1415 1.394 . S
C1416 C1417 1.378 . S
C1416 H1438 0.931 . S
C1417 C1412 1.377 . S
C1417 C1416 1.378 . S
C1417 H1439 0.931 . S
C1418 O1428 1.259 . S
C1418 O1429 1.270 . S
C1419 O1430 1.251 . S
C1419 O1431 1.251 . S
O1420 C1400 1.257 . S
O1420 Eu1401 2.473 . S
O1421 C1400 1.260 . S
O1421 Eu1401 2.480 . S
O1422 Eu1401 2.430 . S
O1422 C1408 1.259 . S
O1423 Eu1401 2.670 . S
O1423 C1408 1.270 . S
O1423 Eu1411 2.355 . S
O1424 Eu1401 2.394 . S
O1424 C1409 1.251 . S
O1425 C1409 1.251 . S
O1425 Eu1411 2.374 . S
O1426 C1410 1.257 . S
O1426 Eu1411 2.473 . S
O1427 C1410 1.260 . S
O1427 Eu1411 2.480 . S
O1428 Eu1411 2.430 . S
O1428 C1418 1.259 . S
O1429 Eu1401 2.355 . S
O1429 Eu1411 2.670 . S
O1429 C1418 1.270 . S
O1430 Eu1411 2.394 . S
O1430 C1419 1.251 . S
O1431 Eu1401 2.374 . S
O1431 C1419 1.251 . S
H1432 C1403 0.931 . S
H1433 C1404 0.931 . S
H1434 C1406 0.931 . S
H1435 C1407 0.931 . S
H1436 C1413 0.931 . S
H1437 C1414 0.931 . S
H1438 C1416 0.931 . S
H1439 C1417 0.931 . S
H1440 C1448 0.929 . S
H1441 C1450 0.930 . S
H1442 C1452 0.930 . S
H1443 C1455 0.929 . S
H1444 C1458 0.930 . S
H1445 C1460 0.960 . S
H1446 C1460 0.960 . S
H1447 C1460 0.960 . S
C1448 H1440 0.929 . S
C1448 C1449 1.377 . S
C1448 C1450 1.384 . S
C1449 C1448 1.377 . S
C1449 C1455 1.390 . S
C1450 H1441 0.930 . S
C1450 C1448 1.384 . S
C1450 C1451 1.372 . S
C1451 C1450 1.372 . S
C1451 C1452 1.400 . S
C1451 C1456 1.490 . S
C1452 H1442 0.930 . S
C1452 C1451 1.400 . S
C1452 C1455 1.386 . S
H1453 C1469 0.930 . S
H1454 C1470 0.931 . S
C1455 H1443 0.929 . S
C1455 C1449 1.390 . S
C1455 C1452 1.386 . S
C1456 C1451 1.490 . S
C1456 C1458 1.395 . S
C1456 C1459 1.403 . S
H1457 C1463 0.930 . S
C1458 H1444 0.930 . S
C1458 C1456 1.395 . S
C1458 C1461 1.403 . S
C1459 C1456 1.403 . S
C1459 C1460 1.524 . S
C1459 C1463 1.400 . S
C1460 H1445 0.960 . S
C1460 H1446 0.960 . S
C1460 H1447 0.960 . S
C1460 C1459 1.524 . S
C1461 C1458 1.403 . S
C1461 C1462 1.392 . S
C1461 C1465 1.495 . S
C1462 C1461 1.392 . S
C1462 C1463 1.385 . S
C1462 C1464 1.478 . S
C1463 H1457 0.930 . S
C1463 C1459 1.400 . S
C1463 C1462 1.385 . S
C1464 C1462 1.478 . S
C1464 C1466 1.381 . S
C1464 C1470 1.383 . S
C1465 C1461 1.495 . S
C1465 H1471 0.959 . S
C1465 H1472 0.961 . S
C1465 H1473 0.960 . S
C1466 C1464 1.381 . S
C1466 C1467 1.394 . S
C1466 H1474 0.930 . S
C1467 C1466 1.394 . S
C1467 C1468 1.383 . S
C1467 H1475 0.929 . S
C1468 C1467 1.383 . S
C1468 C1469 1.377 . S
C1469 H1453 0.930 . S
C1469 C1468 1.377 . S
C1469 C1470 1.379 . S
C1470 H1454 0.931 . S
C1470 C1464 1.383 . S
C1470 C1469 1.379 . S
H1471 C1465 0.959 . S
H1472 C1465 0.961 . S
H1473 C1465 0.960 . S
H1474 C1466 0.930 . S
H1475 C1467 0.929 . S
H1476 C1484 0.929 . S
H1477 C1486 0.930 . S
H1478 C1488 0.930 . S
H1479 C1491 0.929 . S
H1480 C1494 0.930 . S
H1481 C1496 0.960 . S
H1482 C1496 0.960 . S
H1483 C1496 0.960 . S
C1484 H1476 0.929 . S
C1484 C1485 1.377 . S
C1484 C1486 1.384 . S
C1485 C1484 1.377 . S
C1485 C1491 1.390 . S
C1486 H1477 0.930 . S
C1486 C1484 1.384 . S
C1486 C1487 1.372 . S
C1487 C1486 1.372 . S
C1487 C1488 1.400 . S
C1487 C1492 1.490 . S
C1488 H1478 0.930 . S
C1488 C1487 1.400 . S
C1488 C1491 1.386 . S
H1489 C1505 0.930 . S
H1490 C1506 0.931 . S
C1491 H1479 0.929 . S
C1491 C1485 1.390 . S
C1491 C1488 1.386 . S
C1492 C1487 1.490 . S
C1492 C1494 1.395 . S
C1492 C1495 1.403 . S
H1493 C1499 0.930 . S
C1494 H1480 0.930 . S
C1494 C1492 1.395 . S
C1494 C1497 1.403 . S
C1495 C1492 1.403 . S
C1495 C1496 1.524 . S
C1495 C1499 1.400 . S
C1496 H1481 0.960 . S
C1496 H1482 0.960 . S
C1496 H1483 0.960 . S
C1496 C1495 1.524 . S
C1497 C1494 1.403 . S
C1497 C1498 1.392 . S
C1497 C1501 1.495 . S
C1498 C1497 1.392 . S
C1498 C1499 1.385 . S
C1498 C1500 1.478 . S
C1499 H1493 0.930 . S
C1499 C1495 1.400 . S
C1499 C1498 1.385 . S
C1500 C1498 1.478 . S
C1500 C1502 1.381 . S
C1500 C1506 1.383 . S
C1501 C1497 1.495 . S
C1501 H1507 0.959 . S
C1501 H1508 0.961 . S
C1501 H1509 0.960 . S
C1502 C1500 1.381 . S
C1502 C1503 1.394 . S
C1502 H1510 0.930 . S
C1503 C1502 1.394 . S
C1503 C1504 1.383 . S
C1503 H1511 0.929 . S
C1504 C1503 1.383 . S
C1504 C1505 1.377 . S
C1505 H1489 0.930 . S
C1505 C1504 1.377 . S
C1505 C1506 1.379 . S
C1506 H1490 0.931 . S
C1506 C1500 1.383 . S
C1506 C1505 1.379 . S
H1507 C1501 0.959 . S
H1508 C1501 0.961 . S
H1509 C1501 0.960 . S
H1510 C1502 0.930 . S
H1511 C1503 0.929 . S
H1512 C1520 0.929 . S
H1513 C1522 0.930 . S
H1514 C1524 0.930 . S
H1515 C1527 0.929 . S
H1516 C1530 0.930 . S
H1517 C1532 0.960 . S
H1518 C1532 0.960 . S
H1519 C1532 0.960 . S
C1520 H1512 0.929 . S
C1520 C1521 1.377 . S
C1520 C1522 1.384 . S
C1521 C1520 1.377 . S
C1521 C1527 1.390 . S
C1522 H1513 0.930 . S
C1522 C1520 1.384 . S
C1522 C1523 1.372 . S
C1523 C1522 1.372 . S
C1523 C1524 1.400 . S
C1523 C1528 1.490 . S
C1524 H1514 0.930 . S
C1524 C1523 1.400 . S
C1524 C1527 1.386 . S
H1525 C1541 0.930 . S
H1526 C1542 0.931 . S
C1527 H1515 0.929 . S
C1527 C1521 1.390 . S
C1527 C1524 1.386 . S
C1528 C1523 1.490 . S
C1528 C1530 1.395 . S
C1528 C1531 1.403 . S
H1529 C1535 0.930 . S
C1530 H1516 0.930 . S
C1530 C1528 1.395 . S
C1530 C1533 1.403 . S
C1531 C1528 1.403 . S
C1531 C1532 1.524 . S
C1531 C1535 1.400 . S
C1532 H1517 0.960 . S
C1532 H1518 0.960 . S
C1532 H1519 0.960 . S
C1532 C1531 1.524 . S
C1533 C1530 1.403 . S
C1533 C1534 1.392 . S
C1533 C1537 1.495 1_554 S
C1534 C1533 1.392 . S
C1534 C1535 1.385 . S
C1534 C1536 1.478 . S
C1535 H1529 0.930 . S
C1535 C1531 1.400 . S
C1535 C1534 1.385 . S
C1536 C1534 1.478 . S
C1536 C1538 1.381 . S
C1536 C1542 1.383 . S
C1537 C1533 1.495 1_556 S
C1537 H1543 0.959 . S
C1537 H1544 0.961 . S
C1537 H1545 0.960 . S
C1538 C1536 1.381 . S
C1538 C1539 1.394 . S
C1538 H1546 0.977 . S
C1539 C1538 1.394 . S
C1539 C1540 1.383 . S
C1539 H1547 0.929 1_554 S
C1540 C1539 1.383 . S
C1540 C1541 1.377 . S
C1541 H1525 0.930 . S
C1541 C1540 1.377 . S
C1541 C1542 1.379 . S
C1542 H1526 0.931 . S
C1542 C1536 1.383 . S
C1542 C1541 1.379 . S
H1543 C1537 0.959 . S
H1544 C1537 0.961 . S
H1545 C1537 0.960 . S
H1546 C1538 0.977 . S
H1547 C1539 0.929 1_556 S
H1548 C1556 0.929 . S
H1549 C1558 0.930 . S
H1550 C1560 0.930 . S
H1551 C1563 0.929 . S
H1552 C1566 0.930 . S
H1553 C1568 0.939 1_554 S
H1554 C1568 0.960 . S
H1555 C1568 0.960 . S
C1556 H1548 0.929 . S
C1556 C1557 1.377 . S
C1556 C1558 1.384 . S
C1557 C1556 1.377 . S
C1557 C1563 1.390 . S
C1558 H1549 0.930 . S
C1558 C1556 1.384 . S
C1558 C1559 1.372 . S
C1559 C1558 1.372 . S
C1559 C1560 1.400 . S
C1559 C1564 1.490 . S
C1560 H1550 0.930 . S
C1560 C1559 1.400 . S
C1560 C1563 1.386 . S
H1561 C1577 0.930 . S
H1562 C1578 0.931 . S
C1563 H1551 0.929 . S
C1563 C1557 1.390 . S
C1563 C1560 1.386 . S
C1564 C1559 1.490 . S
C1564 C1566 1.395 . S
C1564 C1567 1.403 . S
H1565 C1571 0.930 . S
C1566 H1552 0.930 . S
C1566 C1564 1.395 . S
C1566 C1569 1.403 . S
C1567 C1564 1.403 . S
C1567 C1568 1.524 . S
C1567 C1571 1.400 . S
C1568 H1553 0.939 1_556 S
C1568 H1554 0.960 . S
C1568 H1555 0.960 . S
C1568 C1567 1.524 . S
C1569 C1566 1.403 . S
C1569 C1570 1.392 . S
C1569 C1573 1.495 . S
C1570 C1569 1.392 . S
C1570 C1571 1.385 . S
C1570 C1572 1.478 . S
C1571 H1565 0.930 . S
C1571 C1567 1.400 . S
C1571 C1570 1.385 . S
C1572 C1570 1.478 . S
C1572 C1574 1.381 . S
C1572 C1578 1.383 . S
C1573 C1569 1.495 . S
C1573 H1579 0.959 . S
C1573 H1580 0.961 . S
C1573 H1581 0.960 . S
C1574 C1572 1.381 . S
C1574 C1575 1.394 . S
C1574 H1582 0.930 . S
C1575 C1574 1.394 . S
C1575 C1576 1.383 . S
C1575 H1583 0.929 . S
C1576 C1575 1.383 . S
C1576 C1577 1.377 . S
C1577 H1561 0.930 . S
C1577 C1576 1.377 . S
C1577 C1578 1.379 . S
C1578 H1562 0.931 . S
C1578 C1572 1.383 . S
C1578 C1577 1.379 . S
H1579 C1573 0.959 . S
H1580 C1573 0.961 . S
H1581 C1573 0.960 . S
H1582 C1574 0.930 . S
H1583 C1575 0.929 . S
H1584 C1592 0.929 . S
H1585 C1594 0.930 . S
H1586 C1596 0.930 . S
H1587 C1599 0.929 . S
H1588 C1602 0.930 . S
H1589 C1604 0.960 . S
H1590 C1604 0.960 . S
H1591 C1604 0.960 . S
C1592 H1584 0.929 . S
C1592 C1593 1.377 . S
C1592 C1594 1.384 . S
C1593 C1592 1.377 . S
C1593 C1599 1.390 . S
C1594 H1585 0.930 . S
C1594 C1592 1.384 . S
C1594 C1595 1.372 . S
C1595 C1594 1.372 . S
C1595 C1596 1.400 . S
C1595 C1600 1.490 . S
C1596 H1586 0.930 . S
C1596 C1595 1.400 . S
C1596 C1599 1.386 . S
H1597 C1613 0.930 . S
H1598 C1614 0.931 . S
C1599 H1587 0.929 . S
C1599 C1593 1.390 . S
C1599 C1596 1.386 . S
C1600 C1595 1.490 . S
C1600 C1602 1.395 . S
C1600 C1603 1.403 . S
H1601 C1607 0.930 . S
C1602 H1588 0.930 . S
C1602 C1600 1.395 . S
C1602 C1605 1.403 . S
C1603 C1600 1.403 . S
C1603 C1604 1.524 . S
C1603 C1607 1.400 . S
C1604 H1589 0.960 . S
C1604 H1590 0.960 . S
C1604 H1591 0.960 . S
C1604 C1603 1.524 . S
C1605 C1602 1.403 . S
C1605 C1606 1.392 . S
C1605 C1609 1.495 . S
C1606 C1605 1.392 . S
C1606 C1607 1.385 . S
C1606 C1608 1.478 . S
C1607 H1601 0.930 . S
C1607 C1603 1.400 . S
C1607 C1606 1.385 . S
C1608 C1606 1.478 . S
C1608 C1610 1.381 . S
C1608 C1614 1.383 . S
C1609 C1605 1.495 . S
C1609 H1615 0.959 . S
C1609 H1616 0.961 . S
C1609 H1617 0.960 . S
C1610 C1608 1.381 . S
C1610 C1611 1.394 . S
C1610 H1618 0.930 . S
C1611 C1610 1.394 . S
C1611 C1612 1.383 . S
C1611 H1619 0.929 . S
C1612 C1611 1.383 . S
C1612 C1613 1.377 . S
C1613 H1597 0.930 . S
C1613 C1612 1.377 . S
C1613 C1614 1.379 . S
C1614 H1598 0.931 . S
C1614 C1608 1.383 . S
C1614 C1613 1.379 . S
H1615 C1609 0.959 . S
H1616 C1609 0.961 . S
H1617 C1609 0.960 . S
H1618 C1610 0.930 . S
H1619 C1611 0.929 . S
H1620 C1628 0.929 . S
H1621 C1630 0.930 . S
H1622 C1632 0.930 . S
H1623 C1635 0.929 . S
H1624 C1638 0.930 . S
H1625 C1640 0.960 . S
H1626 C1640 0.960 . S
H1627 C1640 0.960 . S
C1628 H1620 0.929 . S
C1628 C1629 1.377 . S
C1628 C1630 1.384 . S
C1629 C1628 1.377 . S
C1629 C1635 1.390 . S
C1630 H1621 0.930 . S
C1630 C1628 1.384 . S
C1630 C1631 1.372 . S
C1631 C1630 1.372 . S
C1631 C1632 1.400 . S
C1631 C1636 1.490 . S
C1632 H1622 0.930 . S
C1632 C1631 1.400 . S
C1632 C1635 1.386 . S
H1633 C1649 0.930 . S
H1634 C1650 0.931 . S
C1635 H1623 0.929 . S
C1635 C1629 1.390 . S
C1635 C1632 1.386 . S
C1636 C1631 1.490 . S
C1636 C1638 1.395 . S
C1636 C1639 1.403 . S
H1637 C1643 0.930 . S
C1638 H1624 0.930 . S
C1638 C1636 1.395 . S
C1638 C1641 1.403 . S
C1639 C1636 1.403 . S
C1639 C1640 1.524 . S
C1639 C1643 1.400 . S
C1640 H1625 0.960 . S
C1640 H1626 0.960 . S
C1640 H1627 0.960 . S
C1640 C1639 1.524 . S
C1641 C1638 1.403 . S
C1641 C1642 1.392 . S
C1641 C1645 1.495 1_556 S
C1642 C1641 1.392 . S
C1642 C1643 1.385 . S
C1642 C1644 1.478 . S
C1643 H1637 0.930 . S
C1643 C1639 1.400 . S
C1643 C1642 1.385 . S
C1644 C1642 1.478 . S
C1644 C1646 1.381 . S
C1644 C1650 1.383 . S
C1645 C1641 1.495 1_554 S
C1645 H1651 0.959 . S
C1645 H1652 0.961 . S
C1645 H1653 0.960 . S
C1646 C1644 1.381 . S
C1646 C1647 1.394 . S
C1646 H1654 0.930 . S
C1647 C1646 1.394 . S
C1647 C1648 1.383 . S
C1647 H1655 0.929 . S
C1648 C1647 1.383 . S
C1648 C1649 1.377 . S
C1649 H1633 0.930 . S
C1649 C1648 1.377 . S
C1649 C1650 1.379 . S
C1650 H1634 0.931 . S
C1650 C1644 1.383 . S
C1650 C1649 1.379 . S
H1651 C1645 0.959 . S
H1652 C1645 0.961 . S
H1653 C1645 0.960 . S
H1654 C1646 0.930 . S
H1655 C1647 0.929 . S
H1656 C1664 0.929 . S
H1657 C1666 0.930 . S
H1658 C1668 0.930 . S
H1659 C1671 0.929 . S
H1660 C1674 0.930 . S
H1661 C1676 0.960 . S
H1662 C1676 0.960 . S
H1663 C1676 0.960 . S
C1664 H1656 0.929 . S
C1664 C1665 1.377 . S
C1664 C1666 1.384 . S
C1665 C1664 1.377 . S
C1665 C1671 1.390 . S
C1666 H1657 0.930 . S
C1666 C1664 1.384 . S
C1666 C1667 1.372 . S
C1667 C1666 1.372 . S
C1667 C1668 1.400 . S
C1667 C1672 1.490 . S
C1668 H1658 0.930 . S
C1668 C1667 1.400 . S
C1668 C1671 1.386 . S
H1669 C1685 0.877 1_554 S
H1670 C1686 0.931 . S
C1671 H1659 0.929 . S
C1671 C1665 1.390 . S
C1671 C1668 1.386 . S
C1672 C1667 1.490 . S
C1672 C1674 1.395 . S
C1672 C1675 1.403 . S
H1673 C1679 0.930 . S
C1674 H1660 0.930 . S
C1674 C1672 1.395 . S
C1674 C1677 1.403 . S
C1675 C1672 1.403 . S
C1675 C1676 1.524 . S
C1675 C1679 1.400 . S
C1676 H1661 0.960 . S
C1676 H1662 0.960 . S
C1676 H1663 0.960 . S
C1676 C1675 1.524 . S
C1677 C1674 1.403 . S
C1677 C1678 1.392 . S
C1677 C1681 1.495 . S
C1678 C1677 1.392 . S
C1678 C1679 1.385 . S
C1678 C1680 1.478 . S
C1679 H1673 0.930 . S
C1679 C1675 1.400 . S
C1679 C1678 1.385 . S
C1680 C1678 1.478 . S
C1680 C1682 1.381 . S
C1680 C1686 1.383 . S
C1681 C1677 1.495 . S
C1681 H1687 0.959 . S
C1681 H1688 0.961 . S
C1681 H1689 0.960 . S
C1682 C1680 1.381 . S
C1682 C1683 1.394 . S
C1682 H1690 0.930 . S
C1683 C1682 1.394 . S
C1683 C1684 1.383 . S
C1683 H1691 0.929 . S
C1684 C1683 1.383 . S
C1684 C1685 1.377 . S
C1685 H1669 0.877 1_556 S
C1685 C1684 1.377 . S
C1685 C1686 1.379 . S
C1686 H1670 0.931 . S
C1686 C1680 1.383 . S
C1686 C1685 1.379 . S
H1687 C1681 0.959 . S
H1688 C1681 0.961 . S
H1689 C1681 0.960 . S
H1690 C1682 0.930 . S
H1691 C1683 0.929 . S
H1692 C1700 0.929 . S
H1693 C1702 0.930 . S
H1694 C1704 0.930 . S
H1695 C1707 0.929 . S
H1696 C1710 0.930 . S
H1697 C1712 0.960 . S
H1698 C1712 0.960 . S
H1699 C1712 0.960 . S
C1700 H1692 0.929 . S
C1700 C1701 1.377 . S
C1700 C1702 1.384 . S
C1701 C1700 1.377 . S
C1701 C1707 1.390 . S
C1702 H1693 0.930 . S
C1702 C1700 1.384 . S
C1702 C1703 1.372 . S
C1703 C1702 1.372 . S
C1703 C1704 1.400 . S
C1703 C1708 1.490 . S
C1704 H1694 0.930 . S
C1704 C1703 1.400 . S
C1704 C1707 1.386 . S
H1705 C1721 0.930 . S
H1706 C1722 0.931 . S
C1707 H1695 0.929 . S
C1707 C1701 1.390 . S
C1707 C1704 1.386 . S
C1708 C1703 1.490 . S
C1708 C1710 1.395 . S
C1708 C1711 1.403 . S
H1709 C1715 0.930 . S
C1710 H1696 0.930 . S
C1710 C1708 1.395 . S
C1710 C1713 1.403 . S
C1711 C1708 1.403 . S
C1711 C1712 1.524 . S
C1711 C1715 1.400 . S
C1712 H1697 0.960 . S
C1712 H1698 0.960 . S
C1712 H1699 0.960 . S
C1712 C1711 1.524 . S
C1713 C1710 1.403 . S
C1713 C1714 1.392 . S
C1713 C1717 1.495 . S
C1714 C1713 1.392 . S
C1714 C1715 1.385 . S
C1714 C1716 1.478 . S
C1715 H1709 0.930 . S
C1715 C1711 1.400 . S
C1715 C1714 1.385 . S
C1716 C1714 1.478 . S
C1716 C1718 1.381 . S
C1716 C1722 1.383 . S
C1717 C1713 1.495 . S
C1717 H1723 0.959 . S
C1717 H1724 0.961 . S
C1717 H1725 0.960 . S
C1718 C1716 1.381 . S
C1718 C1719 1.394 . S
C1718 H1726 0.930 . S
C1719 C1718 1.394 . S
C1719 C1720 1.383 . S
C1719 H1727 0.964 . S
C1720 C1719 1.383 . S
C1720 C1721 1.377 . S
C1721 H1705 0.930 . S
C1721 C1720 1.377 . S
C1721 C1722 1.379 . S
C1722 H1706 0.931 . S
C1722 C1716 1.383 . S
C1722 C1721 1.379 . S
H1723 C1717 0.959 . S
H1724 C1717 0.961 . S
H1725 C1717 0.960 . S
H1726 C1718 0.930 . S
H1727 C1719 0.964 . S
H1728 C1736 0.929 . S
H1729 C1738 0.930 . S
H1730 C1740 0.930 . S
H1731 C1743 0.929 . S
H1732 C1746 0.930 . S
H1733 C1748 0.960 . S
H1734 C1748 0.960 . S
H1735 C1748 0.960 . S
C1736 H1728 0.929 . S
C1736 C1737 1.377 . S
C1736 C1738 1.384 . S
C1737 C1736 1.377 . S
C1737 C1743 1.390 . S
C1738 H1729 0.930 . S
C1738 C1736 1.384 . S
C1738 C1739 1.372 . S
C1739 C1738 1.372 . S
C1739 C1740 1.400 . S
C1739 C1744 1.490 . S
C1740 H1730 0.930 . S
C1740 C1739 1.400 . S
C1740 C1743 1.386 . S
H1741 C1757 0.930 . S
H1742 C1758 0.931 . S
C1743 H1731 0.929 . S
C1743 C1737 1.390 . S
C1743 C1740 1.386 . S
C1744 C1739 1.490 . S
C1744 C1746 1.395 . S
C1744 C1747 1.403 . S
H1745 C1751 0.930 . S
C1746 H1732 0.930 . S
C1746 C1744 1.395 . S
C1746 C1749 1.403 . S
C1747 C1744 1.403 . S
C1747 C1748 1.524 . S
C1747 C1751 1.400 . S
C1748 H1733 0.960 . S
C1748 H1734 0.960 . S
C1748 H1735 0.960 . S
C1748 C1747 1.524 . S
C1749 C1746 1.403 . S
C1749 C1750 1.392 . S
C1749 C1753 1.495 . S
C1750 C1749 1.392 . S
C1750 C1751 1.385 . S
C1750 C1752 1.478 . S
C1751 H1745 0.930 . S
C1751 C1747 1.400 . S
C1751 C1750 1.385 . S
C1752 C1750 1.478 . S
C1752 C1754 1.381 . S
C1752 C1758 1.383 . S
C1753 C1749 1.495 . S
C1753 H1759 0.959 . S
C1753 H1760 0.961 . S
C1753 H1761 0.960 . S
C1754 C1752 1.381 . S
C1754 C1755 1.390 1_556 S
C1754 H1762 0.930 1_556 S
C1755 C1754 1.390 1_554 S
C1755 C1756 1.344 1_554 S
C1755 H1763 0.974 . S
C1756 C1755 1.344 1_556 S
C1756 C1757 1.377 . S
C1757 H1741 0.930 . S
C1757 C1756 1.377 . S
C1757 C1758 1.379 . S
C1758 H1742 0.931 . S
C1758 C1752 1.383 . S
C1758 C1757 1.379 . S
H1759 C1753 0.959 . S
H1760 C1753 0.961 . S
H1761 C1753 0.960 . S
H1762 C1754 0.930 1_554 S
H1763 C1755 0.974 . S
H1764 C1772 0.929 . S
H1765 C1774 0.930 . S
H1766 C1776 0.930 . S
H1767 C1779 0.929 . S
H1768 C1782 0.930 . S
H1769 C1784 0.960 . S
H1770 C1784 0.960 . S
H1771 C1784 0.960 . S
C1772 H1764 0.929 . S
C1772 C1773 1.377 . S
C1772 C1774 1.384 . S
C1773 C1772 1.377 . S
C1773 C1779 1.390 . S
C1774 H1765 0.930 . S
C1774 C1772 1.384 . S
C1774 C1775 1.372 . S
C1775 C1774 1.372 . S
C1775 C1776 1.400 . S
C1775 C1780 1.490 . S
C1776 H1766 0.930 . S
C1776 C1775 1.400 . S
C1776 C1779 1.386 . S
H1777 C1793 0.930 1_556 S
H1778 C1794 0.931 . S
C1779 H1767 0.929 . S
C1779 C1773 1.390 . S
C1779 C1776 1.386 . S
C1780 C1775 1.490 . S
C1780 C1782 1.395 . S
C1780 C1783 1.403 . S
H1781 C1787 0.930 . S
C1782 H1768 0.930 . S
C1782 C1780 1.395 . S
C1782 C1785 1.403 . S
C1783 C1780 1.403 . S
C1783 C1784 1.524 . S
C1783 C1787 1.400 . S
C1784 H1769 0.960 . S
C1784 H1770 0.960 . S
C1784 H1771 0.960 . S
C1784 C1783 1.524 . S
C1785 C1782 1.403 . S
C1785 C1786 1.392 . S
C1785 C1789 1.495 . S
C1786 C1785 1.392 . S
C1786 C1787 1.385 . S
C1786 C1788 1.478 . S
C1787 H1781 0.930 . S
C1787 C1783 1.400 . S
C1787 C1786 1.385 . S
C1788 C1786 1.478 . S
C1788 C1790 1.381 . S
C1788 C1794 1.383 . S
C1789 C1785 1.495 . S
C1789 H1795 0.959 . S
C1789 H1796 0.961 . S
C1789 H1797 0.960 . S
C1790 C1788 1.381 . S
C1790 C1791 1.394 . S
C1790 H1798 0.930 . S
C1791 C1790 1.394 . S
C1791 C1792 1.383 . S
C1791 H1799 0.929 . S
C1792 C1791 1.383 . S
C1792 C1793 1.377 . S
C1793 H1777 0.930 1_554 S
C1793 C1792 1.377 . S
C1793 C1794 1.379 . S
C1794 H1778 0.931 . S
C1794 C1788 1.383 . S
C1794 C1793 1.379 . S
H1795 C1789 0.959 . S
H1796 C1789 0.961 . S
H1797 C1789 0.960 . S
H1798 C1790 0.930 . S
H1799 C1791 0.929 . S
H1800 C1808 0.929 . S
H1801 C1810 0.930 . S
H1802 C1812 0.930 . S
H1803 C1815 0.929 . S
H1804 C1818 0.930 . S
H1805 C1820 0.960 . S
H1806 C1820 0.960 . S
H1807 C1820 0.960 . S
C1808 H1800 0.929 . S
C1808 C1809 1.377 . S
C1808 C1810 1.384 . S
C1809 C1808 1.377 . S
C1809 C1815 1.390 . S
C1810 H1801 0.930 . S
C1810 C1808 1.384 . S
C1810 C1811 1.372 . S
C1811 C1810 1.372 . S
C1811 C1812 1.400 . S
C1811 C1816 1.490 . S
C1812 H1802 0.930 . S
C1812 C1811 1.400 . S
C1812 C1815 1.386 . S
H1813 C1829 0.930 . S
H1814 C1830 0.931 . S
C1815 H1803 0.929 . S
C1815 C1809 1.390 . S
C1815 C1812 1.386 . S
C1816 C1811 1.490 . S
C1816 C1818 1.395 . S
C1816 C1819 1.403 . S
H1817 C1823 0.930 . S
C1818 H1804 0.930 . S
C1818 C1816 1.395 . S
C1818 C1821 1.403 . S
C1819 C1816 1.403 . S
C1819 C1820 1.524 . S
C1819 C1823 1.400 . S
C1820 H1805 0.960 . S
C1820 H1806 0.960 . S
C1820 H1807 0.960 . S
C1820 C1819 1.524 . S
C1821 C1818 1.403 . S
C1821 C1822 1.392 . S
C1821 C1825 1.495 . S
C1822 C1821 1.392 . S
C1822 C1823 1.385 . S
C1822 C1824 1.478 . S
C1823 H1817 0.930 . S
C1823 C1819 1.400 . S
C1823 C1822 1.385 . S
C1824 C1822 1.478 . S
C1824 C1826 1.381 . S
C1824 C1830 1.383 . S
C1825 C1821 1.495 . S
C1825 H1831 0.959 . S
C1825 H1832 0.961 . S
C1825 H1833 0.960 . S
C1826 C1824 1.381 . S
C1826 C1827 1.394 . S
C1826 H1834 0.930 . S
C1827 C1826 1.394 . S
C1827 C1828 1.383 . S
C1827 H1835 0.929 . S
C1828 C1827 1.383 . S
C1828 C1829 1.377 . S
C1829 H1813 0.930 . S
C1829 C1828 1.377 . S
C1829 C1830 1.379 . S
C1830 H1814 0.931 . S
C1830 C1824 1.383 . S
C1830 C1829 1.379 . S
H1831 C1825 0.959 . S
H1832 C1825 0.961 . S
H1833 C1825 0.960 . S
H1834 C1826 0.930 . S
H1835 C1827 0.929 . S
H1836 C1844 0.929 . S
H1837 C1846 0.930 . S
H1838 C1848 0.930 . S
H1839 C1851 0.929 . S
H1840 C1854 0.930 . S
H1841 C1856 0.960 . S
H1842 C1856 0.960 . S
H1843 C1856 0.960 . S
C1844 H1836 0.929 . S
C1844 C1845 1.377 . S
C1844 C1846 1.384 . S
C1845 C1844 1.377 . S
C1845 C1851 1.390 . S
C1846 H1837 0.930 . S
C1846 C1844 1.384 . S
C1846 C1847 1.372 . S
C1847 C1846 1.372 . S
C1847 C1848 1.400 . S
C1847 C1852 1.490 . S
C1848 H1838 0.930 . S
C1848 C1847 1.400 . S
C1848 C1851 1.386 . S
H1849 C1865 0.930 . S
H1850 C1866 0.931 . S
C1851 H1839 0.929 . S
C1851 C1845 1.390 . S
C1851 C1848 1.386 . S
C1852 C1847 1.490 . S
C1852 C1854 1.395 . S
C1852 C1855 1.403 . S
H1853 C1859 0.930 . S
C1854 H1840 0.930 . S
C1854 C1852 1.395 . S
C1854 C1857 1.403 . S
C1855 C1852 1.403 . S
C1855 C1856 1.524 . S
C1855 C1859 1.400 . S
C1856 H1841 0.960 . S
C1856 H1842 0.960 . S
C1856 H1843 0.960 . S
C1856 C1855 1.524 . S
C1857 C1854 1.403 . S
C1857 C1858 1.392 . S
C1857 C1861 1.432 1_554 S
C1858 C1857 1.392 . S
C1858 C1859 1.385 . S
C1858 C1860 1.478 . S
C1859 H1853 0.930 . S
C1859 C1855 1.400 . S
C1859 C1858 1.385 . S
C1860 C1858 1.478 . S
C1860 C1862 1.381 . S
C1860 C1866 1.383 . S
C1861 C1857 1.432 1_556 S
C1861 H1867 0.989 . S
C1861 H1868 0.934 1_556 S
C1861 H1869 1.030 . S
C1862 C1860 1.381 . S
C1862 C1863 1.379 1_554 S
C1862 H1870 0.930 1_554 S
C1863 C1862 1.379 1_556 S
C1863 C1864 1.334 1_556 S
C1863 H1871 0.997 . S
C1864 C1863 1.334 1_554 S
C1864 C1865 1.377 . S
C1865 H1849 0.930 . S
C1865 C1864 1.377 . S
C1865 C1866 1.379 . S
C1866 H1850 0.931 . S
C1866 C1860 1.383 . S
C1866 C1865 1.379 . S
H1867 C1861 0.989 . S
H1868 C1861 0.934 1_554 S
H1869 C1861 1.030 . S
H1870 C1862 0.930 1_556 S
H1871 C1863 0.997 . S
H1872 C1880 0.929 . S
H1873 C1882 0.902 1_455 S
H1874 C1884 0.930 . S
H1875 C1887 0.929 . S
H1876 C1890 0.930 . S
H1877 C1892 0.960 . S
H1878 C1892 0.960 . S
H1879 C1892 0.960 1_655 S
C1880 H1872 0.929 . S
C1880 C1881 1.377 . S
C1880 C1882 1.384 . S
C1881 C1880 1.377 . S
C1881 C1887 1.390 . S
C1882 H1873 0.902 1_655 S
C1882 C1880 1.384 . S
C1882 C1883 1.372 . S
C1883 C1882 1.372 . S
C1883 C1884 1.400 . S
C1883 C1888 1.490 1_655 S
C1884 H1874 0.930 . S
C1884 C1883 1.400 . S
C1884 C1887 1.386 . S
H1885 C1901 0.930 . S
H1886 C1902 0.931 . S
C1887 H1875 0.929 . S
C1887 C1881 1.390 . S
C1887 C1884 1.386 . S
C1888 C1883 1.490 1_455 S
C1888 C1890 1.395 . S
C1888 C1891 1.403 . S
H1889 C1895 0.930 . S
C1890 H1876 0.930 . S
C1890 C1888 1.395 . S
C1890 C1893 1.403 . S
C1891 C1888 1.403 . S
C1891 C1892 1.524 . S
C1891 C1895 1.400 . S
C1892 H1877 0.960 . S
C1892 H1878 0.960 . S
C1892 H1879 0.960 1_455 S
C1892 C1891 1.524 . S
C1893 C1890 1.403 . S
C1893 C1894 1.392 . S
C1893 C1897 1.495 . S
C1894 C1893 1.392 . S
C1894 C1895 1.385 . S
C1894 C1896 1.478 . S
C1895 H1889 0.930 . S
C1895 C1891 1.400 . S
C1895 C1894 1.385 . S
C1896 C1894 1.478 . S
C1896 C1898 1.381 . S
C1896 C1902 1.383 . S
C1897 C1893 1.495 . S
C1897 H1903 0.959 . S
C1897 H1904 0.961 . S
C1897 H1905 0.960 . S
C1898 C1896 1.381 . S
C1898 C1899 1.394 . S
C1898 H1906 0.930 . S
C1899 C1898 1.394 . S
C1899 C1900 1.383 . S
C1899 H1907 0.929 . S
C1900 C1899 1.383 . S
C1900 C1901 1.377 . S
C1901 H1885 0.930 . S
C1901 C1900 1.377 . S
C1901 C1902 1.379 . S
C1902 H1886 0.931 . S
C1902 C1896 1.383 . S
C1902 C1901 1.379 . S
H1903 C1897 0.959 . S
H1904 C1897 0.961 . S
H1905 C1897 0.960 . S
H1906 C1898 0.930 . S
H1907 C1899 0.929 . S
H1908 C1916 0.929 . S
H1909 C1918 0.930 . S
H1910 C1920 0.930 . S
H1911 C1923 0.929 . S
H1912 C1926 0.930 . S
H1913 C1928 0.960 . S
H1914 C1928 0.960 . S
H1915 C1928 0.960 . S
C1916 H1908 0.929 . S
C1916 C1917 1.377 . S
C1916 C1918 1.384 . S
C1917 C1916 1.377 . S
C1917 C1923 1.390 . S
C1918 H1909 0.930 . S
C1918 C1916 1.384 . S
C1918 C1919 1.372 . S
C1919 C1918 1.372 . S
C1919 C1920 1.400 . S
C1919 C1924 1.490 . S
C1920 H1910 0.930 . S
C1920 C1919 1.400 . S
C1920 C1923 1.386 . S
H1921 C1937 0.930 . S
H1922 C1938 0.931 . S
C1923 H1911 0.929 . S
C1923 C1917 1.390 . S
C1923 C1920 1.386 . S
C1924 C1919 1.490 . S
C1924 C1926 1.395 . S
C1924 C1927 1.403 . S
H1925 C1931 0.930 . S
C1926 H1912 0.930 . S
C1926 C1924 1.395 . S
C1926 C1929 1.403 . S
C1927 C1924 1.403 . S
C1927 C1928 1.524 . S
C1927 C1931 1.400 . S
C1928 H1913 0.960 . S
C1928 H1914 0.960 . S
C1928 H1915 0.960 . S
C1928 C1927 1.524 . S
C1929 C1926 1.403 . S
C1929 C1930 1.392 . S
C1929 C1933 1.495 . S
C1930 C1929 1.392 . S
C1930 C1931 1.385 . S
C1930 C1932 1.478 . S
C1931 H1925 0.930 . S
C1931 C1927 1.400 . S
C1931 C1930 1.385 . S
C1932 C1930 1.478 . S
C1932 C1934 1.381 . S
C1932 C1938 1.383 . S
C1933 C1929 1.495 . S
C1933 H1939 0.959 . S
C1933 H1940 0.961 . S
C1933 H1941 0.960 . S
C1934 C1932 1.381 . S
C1934 C1935 1.394 . S
C1934 H1942 0.930 . S
C1935 C1934 1.394 . S
C1935 C1936 1.383 . S
C1935 H1943 0.929 . S
C1936 C1935 1.383 . S
C1936 C1937 1.377 . S
C1937 H1921 0.930 . S
C1937 C1936 1.377 . S
C1937 C1938 1.379 . S
C1938 H1922 0.931 . S
C1938 C1932 1.383 . S
C1938 C1937 1.379 . S
H1939 C1933 0.959 . S
H1940 C1933 0.961 . S
H1941 C1933 0.960 . S
H1942 C1934 0.930 . S
H1943 C1935 0.929 . S
H1944 C1952 0.929 . S
H1945 C1954 0.930 . S
H1946 C1956 0.930 . S
H1947 C1959 0.929 . S
H1948 C1962 0.930 . S
H1949 C1964 0.960 1_565 S
H1950 C1964 0.960 . S
H1951 C1964 0.960 . S
C1952 H1944 0.929 . S
C1952 C1953 1.377 . S
C1952 C1954 1.384 . S
C1953 C1952 1.377 . S
C1953 C1959 1.390 . S
C1954 H1945 0.930 . S
C1954 C1952 1.384 . S
C1954 C1955 1.372 . S
C1955 C1954 1.372 . S
C1955 C1956 1.400 . S
C1955 C1960 1.484 1_545 S
C1956 H1946 0.930 . S
C1956 C1955 1.400 . S
C1956 C1959 1.386 . S
H1957 C1973 0.930 . S
H1958 C1974 0.931 . S
C1959 H1947 0.929 . S
C1959 C1953 1.390 . S
C1959 C1956 1.386 . S
C1960 C1955 1.484 1_565 S
C1960 C1962 1.396 . S
C1960 C1963 1.407 . S
H1961 C1967 0.930 . S
C1962 H1948 0.930 . S
C1962 C1960 1.396 . S
C1962 C1965 1.403 . S
C1963 C1960 1.407 . S
C1963 C1964 1.524 1_565 S
C1963 C1967 1.400 . S
C1964 H1949 0.960 1_545 S
C1964 H1950 0.960 . S
C1964 H1951 0.960 . S
C1964 C1963 1.524 1_545 S
C1965 C1962 1.403 . S
C1965 C1966 1.392 . S
C1965 C1969 1.495 . S
C1966 C1965 1.392 . S
C1966 C1967 1.385 . S
C1966 C1968 1.478 . S
C1967 H1961 0.930 . S
C1967 C1963 1.400 . S
C1967 C1966 1.385 . S
C1968 C1966 1.478 . S
C1968 C1970 1.381 . S
C1968 C1974 1.383 . S
C1969 C1965 1.495 . S
C1969 H1975 0.959 . S
C1969 H1976 0.961 . S
C1969 H1977 0.960 . S
C1970 C1968 1.381 . S
C1970 C1971 1.394 . S
C1970 H1978 0.930 . S
C1971 C1970 1.394 . S
C1971 C1972 1.383 . S
C1971 H1979 0.929 . S
C1972 C1971 1.383 . S
C1972 C1973 1.377 . S
C1973 H1957 0.930 . S
C1973 C1972 1.377 . S
C1973 C1974 1.379 . S
C1974 H1958 0.931 . S
C1974 C1968 1.383 . S
C1974 C1973 1.379 . S
H1975 C1969 0.959 . S
H1976 C1969 0.961 . S
H1977 C1969 0.960 . S
H1978 C1970 0.930 . S
H1979 C1971 0.929 . S
H1980 C1988 0.929 . S
H1981 C1990 0.930 . S
H1982 C1992 0.930 . S
H1983 C1995 0.929 . S
H1984 C1998 0.930 . S
H1985 C2000 0.960 . S
H1986 C2000 0.960 . S
H1987 C2000 0.960 . S
C1988 H1980 0.929 . S
C1988 C1989 1.377 . S
C1988 C1990 1.384 . S
C1989 C1988 1.377 . S
C1989 C1995 1.390 . S
C1990 H1981 0.930 . S
C1990 C1988 1.384 . S
C1990 C1991 1.372 . S
C1991 C1990 1.372 . S
C1991 C1992 1.400 . S
C1991 C1996 1.490 . S
C1992 H1982 0.930 . S
C1992 C1991 1.400 . S
C1992 C1995 1.386 . S
H1993 C2009 0.930 . S
H1994 C2010 0.931 . S
C1995 H1983 0.929 . S
C1995 C1989 1.390 . S
C1995 C1992 1.386 . S
C1996 C1991 1.490 . S
C1996 C1998 1.395 . S
C1996 C1999 1.403 . S
H1997 C2003 0.930 . S
C1998 H1984 0.930 . S
C1998 C1996 1.395 . S
C1998 C2001 1.403 . S
C1999 C1996 1.403 . S
C1999 C2000 1.524 . S
C1999 C2003 1.400 . S
C2000 H1985 0.960 . S
C2000 H1986 0.960 . S
C2000 H1987 0.960 . S
C2000 C1999 1.524 . S
C2001 C1998 1.403 . S
C2001 C2002 1.392 . S
C2001 C2005 1.495 . S
C2002 C2001 1.392 . S
C2002 C2003 1.385 . S
C2002 C2004 1.478 . S
C2003 H1997 0.930 . S
C2003 C1999 1.400 . S
C2003 C2002 1.385 . S
C2004 C2002 1.478 . S
C2004 C2006 1.381 . S
C2004 C2010 1.383 . S
C2005 C2001 1.495 . S
C2005 H2011 0.959 . S
C2005 H2012 0.961 . S
C2005 H2013 0.960 . S
C2006 C2004 1.381 . S
C2006 C2007 1.394 . S
C2006 H2014 0.930 . S
C2007 C2006 1.394 . S
C2007 C2008 1.383 . S
C2007 H2015 0.929 . S
C2008 C2007 1.383 . S
C2008 C2009 1.377 . S
C2009 H1993 0.930 . S
C2009 C2008 1.377 . S
C2009 C2010 1.379 . S
C2010 H1994 0.931 . S
C2010 C2004 1.383 . S
C2010 C2009 1.379 . S
H2011 C2005 0.959 . S
H2012 C2005 0.961 . S
H2013 C2005 0.960 . S
H2014 C2006 0.930 . S
H2015 C2007 0.929 . S
H2016 C2024 0.929 . S
H2017 C2026 0.930 . S
H2018 C2028 0.930 . S
H2019 C2031 0.929 . S
H2020 C2034 0.930 . S
H2021 C2036 0.960 . S
H2022 C2036 0.960 . S
H2023 C2036 0.960 . S
C2024 H2016 0.929 . S
C2024 C2025 1.377 . S
C2024 C2026 1.384 . S
C2025 C2024 1.377 . S
C2025 C2031 1.390 . S
C2026 H2017 0.930 . S
C2026 C2024 1.384 . S
C2026 C2027 1.372 . S
C2027 C2026 1.372 . S
C2027 C2028 1.400 . S
C2027 C2032 1.490 . S
C2028 H2018 0.930 . S
C2028 C2027 1.400 . S
C2028 C2031 1.386 . S
H2029 C2045 0.930 . S
H2030 C2046 0.931 . S
C2031 H2019 0.929 . S
C2031 C2025 1.390 . S
C2031 C2028 1.386 . S
C2032 C2027 1.490 . S
C2032 C2034 1.395 . S
C2032 C2035 1.403 . S
H2033 C2039 0.930 . S
C2034 H2020 0.930 . S
C2034 C2032 1.395 . S
C2034 C2037 1.403 . S
C2035 C2032 1.403 . S
C2035 C2036 1.524 . S
C2035 C2039 1.400 . S
C2036 H2021 0.960 . S
C2036 H2022 0.960 . S
C2036 H2023 0.960 . S
C2036 C2035 1.524 . S
C2037 C2034 1.403 . S
C2037 C2038 1.392 . S
C2037 C2041 1.495 . S
C2038 C2037 1.392 . S
C2038 C2039 1.385 . S
C2038 C2040 1.478 . S
C2039 H2033 0.930 . S
C2039 C2035 1.400 . S
C2039 C2038 1.385 . S
C2040 C2038 1.478 . S
C2040 C2042 1.381 . S
C2040 C2046 1.383 . S
C2041 C2037 1.495 . S
C2041 H2047 0.959 . S
C2041 H2048 0.961 . S
C2041 H2049 0.960 . S
C2042 C2040 1.381 . S
C2042 C2043 1.394 . S
C2042 H2050 0.930 . S
C2043 C2042 1.394 . S
C2043 C2044 1.383 . S
C2043 H2051 0.929 . S
C2044 C2043 1.383 . S
C2044 C2045 1.377 . S
C2045 H2029 0.930 . S
C2045 C2044 1.377 . S
C2045 C2046 1.379 . S
C2046 H2030 0.931 . S
C2046 C2040 1.383 . S
C2046 C2045 1.379 . S
H2047 C2041 0.959 . S
H2048 C2041 0.961 . S
H2049 C2041 0.960 . S
H2050 C2042 0.930 . S
H2051 C2043 0.929 . S
H2052 C2060 0.929 . S
H2053 C2062 0.930 . S
H2054 C2064 0.930 . S
H2055 C2067 0.929 . S
H2056 C2070 0.930 . S
H2057 C2072 0.960 . S
H2058 C2072 0.960 . S
H2059 C2072 0.960 . S
C2060 H2052 0.929 . S
C2060 C2061 1.377 . S
C2060 C2062 1.384 . S
C2061 C2060 1.377 . S
C2061 C2067 1.390 . S
C2062 H2053 0.930 . S
C2062 C2060 1.384 . S
C2062 C2063 1.372 . S
C2063 C2062 1.372 . S
C2063 C2064 1.400 . S
C2063 C2068 1.490 . S
C2064 H2054 0.930 . S
C2064 C2063 1.400 . S
C2064 C2067 1.386 . S
H2065 C2081 0.930 . S
H2066 C2082 0.931 . S
C2067 H2055 0.929 . S
C2067 C2061 1.390 . S
C2067 C2064 1.386 . S
C2068 C2063 1.490 . S
C2068 C2070 1.395 . S
C2068 C2071 1.403 . S
H2069 C2075 0.930 . S
C2070 H2056 0.930 . S
C2070 C2068 1.395 . S
C2070 C2073 1.403 . S
C2071 C2068 1.403 . S
C2071 C2072 1.524 . S
C2071 C2075 1.400 . S
C2072 H2057 0.960 . S
C2072 H2058 0.960 . S
C2072 H2059 0.960 . S
C2072 C2071 1.524 . S
C2073 C2070 1.403 . S
C2073 C2074 1.392 . S
C2073 C2077 1.495 . S
C2074 C2073 1.392 . S
C2074 C2075 1.385 . S
C2074 C2076 1.478 . S
C2075 H2069 0.930 . S
C2075 C2071 1.400 . S
C2075 C2074 1.385 . S
C2076 C2074 1.478 . S
C2076 C2078 1.381 . S
C2076 C2082 1.383 . S
C2077 C2073 1.495 . S
C2077 H2083 0.959 . S
C2077 H2084 0.961 . S
C2077 H2085 0.960 . S
C2078 C2076 1.381 . S
C2078 C2079 1.394 . S
C2078 H2086 0.930 . S
C2079 C2078 1.394 . S
C2079 C2080 1.383 . S
C2079 H2087 0.929 . S
C2080 C2079 1.383 . S
C2080 C2081 1.377 . S
C2081 H2065 0.930 . S
C2081 C2080 1.377 . S
C2081 C2082 1.379 . S
C2082 H2066 0.931 . S
C2082 C2076 1.383 . S
C2082 C2081 1.379 . S
H2083 C2077 0.959 . S
H2084 C2077 0.961 . S
H2085 C2077 0.960 . S
H2086 C2078 0.930 . S
H2087 C2079 0.929 . S
H2088 C2096 0.929 . S
H2089 C2098 0.930 . S
H2090 C2100 0.930 . S
H2091 C2103 0.929 . S
H2092 C2106 0.930 . S
H2093 C2108 0.960 . S
H2094 C2108 0.960 . S
H2095 C2108 0.960 . S
C2096 H2088 0.929 . S
C2096 C2097 1.377 . S
C2096 C2098 1.384 . S
C2097 C2096 1.377 . S
C2097 C2103 1.390 . S
C2098 H2089 0.930 . S
C2098 C2096 1.384 . S
C2098 C2099 1.372 . S
C2099 C2098 1.372 . S
C2099 C2100 1.400 . S
C2099 C2104 1.490 . S
C2100 H2090 0.930 . S
C2100 C2099 1.400 . S
C2100 C2103 1.386 . S
H2101 C2117 0.930 . S
H2102 C2118 0.931 . S
C2103 H2091 0.929 . S
C2103 C2097 1.390 . S
C2103 C2100 1.386 . S
C2104 C2099 1.490 . S
C2104 C2106 1.395 . S
C2104 C2107 1.403 . S
H2105 C2111 0.930 . S
C2106 H2092 0.930 . S
C2106 C2104 1.395 . S
C2106 C2109 1.403 . S
C2107 C2104 1.403 . S
C2107 C2108 1.524 . S
C2107 C2111 1.400 . S
C2108 H2093 0.960 . S
C2108 H2094 0.960 . S
C2108 H2095 0.960 . S
C2108 C2107 1.524 . S
C2109 C2106 1.403 . S
C2109 C2110 1.392 . S
C2109 C2113 1.495 . S
C2110 C2109 1.392 . S
C2110 C2111 1.385 . S
C2110 C2112 1.478 . S
C2111 H2105 0.930 . S
C2111 C2107 1.400 . S
C2111 C2110 1.385 . S
C2112 C2110 1.478 . S
C2112 C2114 1.381 . S
C2112 C2118 1.383 . S
C2113 C2109 1.495 . S
C2113 H2119 0.959 . S
C2113 H2120 0.961 . S
C2113 H2121 0.960 . S
C2114 C2112 1.381 . S
C2114 C2115 1.394 . S
C2114 H2122 0.930 . S
C2115 C2114 1.394 . S
C2115 C2116 1.383 . S
C2115 H2123 0.929 . S
C2116 C2115 1.383 . S
C2116 C2117 1.377 . S
C2117 H2101 0.930 . S
C2117 C2116 1.377 . S
C2117 C2118 1.379 . S
C2118 H2102 0.931 . S
C2118 C2112 1.383 . S
C2118 C2117 1.379 . S
H2119 C2113 0.959 . S
H2120 C2113 0.961 . S
H2121 C2113 0.960 . S
H2122 C2114 0.930 . S
H2123 C2115 0.929 . S
H2124 C2132 0.929 . S
H2125 C2134 0.930 . S
H2126 C2136 0.930 . S
H2127 C2139 0.929 . S
H2128 C2142 0.930 . S
H2129 C2144 0.960 . S
H2130 C2144 0.960 . S
H2131 C2144 0.960 . S
C2132 H2124 0.929 . S
C2132 C2133 1.377 . S
C2132 C2134 1.384 . S
C2133 C2132 1.377 . S
C2133 C2139 1.390 . S
C2134 H2125 0.930 . S
C2134 C2132 1.384 . S
C2134 C2135 1.372 . S
C2135 C2134 1.372 . S
C2135 C2136 1.400 . S
C2135 C2140 1.490 . S
C2136 H2126 0.930 . S
C2136 C2135 1.400 . S
C2136 C2139 1.386 . S
H2137 C2153 0.930 . S
H2138 C2154 0.931 . S
C2139 H2127 0.929 . S
C2139 C2133 1.390 . S
C2139 C2136 1.386 . S
C2140 C2135 1.490 . S
C2140 C2142 1.395 . S
C2140 C2143 1.403 . S
H2141 C2147 0.930 . S
C2142 H2128 0.930 . S
C2142 C2140 1.395 . S
C2142 C2145 1.403 . S
C2143 C2140 1.403 . S
C2143 C2144 1.524 . S
C2143 C2147 1.400 . S
C2144 H2129 0.960 . S
C2144 H2130 0.960 . S
C2144 H2131 0.960 . S
C2144 C2143 1.524 . S
C2145 C2142 1.403 . S
C2145 C2146 1.392 . S
C2145 C2149 1.495 . S
C2146 C2145 1.392 . S
C2146 C2147 1.385 . S
C2146 C2148 1.478 . S
C2147 H2141 0.930 . S
C2147 C2143 1.400 . S
C2147 C2146 1.385 . S
C2148 C2146 1.478 . S
C2148 C2150 1.381 . S
C2148 C2154 1.383 . S
C2149 C2145 1.495 . S
C2149 H2155 0.959 . S
C2149 H2156 0.961 . S
C2149 H2157 0.960 . S
C2150 C2148 1.381 . S
C2150 C2151 1.394 . S
C2150 H2158 0.930 . S
C2151 C2150 1.394 . S
C2151 C2152 1.383 . S
C2151 H2159 0.929 . S
C2152 C2151 1.383 . S
C2152 C2153 1.377 . S
C2153 H2137 0.930 . S
C2153 C2152 1.377 . S
C2153 C2154 1.379 . S
C2154 H2138 0.931 . S
C2154 C2148 1.383 . S
C2154 C2153 1.379 . S
H2155 C2149 0.959 . S
H2156 C2149 0.961 . S
H2157 C2149 0.960 . S
H2158 C2150 0.930 . S
H2159 C2151 0.929 . S
H2160 C2168 0.929 . S
H2161 C2170 0.930 . S
H2162 C2172 0.930 . S
H2163 C2175 0.929 . S
H2164 C2178 0.930 . S
H2165 C2180 0.960 . S
H2166 C2180 0.960 . S
H2167 C2180 0.960 . S
C2168 H2160 0.929 . S
C2168 C2169 1.377 . S
C2168 C2170 1.384 . S
C2169 C2168 1.377 . S
C2169 C2175 1.390 . S
C2170 H2161 0.930 . S
C2170 C2168 1.384 . S
C2170 C2171 1.372 . S
C2171 C2170 1.372 . S
C2171 C2172 1.400 . S
C2171 C2176 1.490 . S
C2172 H2162 0.930 . S
C2172 C2171 1.400 . S
C2172 C2175 1.386 . S
H2173 C2189 0.930 . S
H2174 C2190 0.931 . S
C2175 H2163 0.929 . S
C2175 C2169 1.390 . S
C2175 C2172 1.386 . S
C2176 C2171 1.490 . S
C2176 C2178 1.395 . S
C2176 C2179 1.403 . S
H2177 C2183 0.930 . S
C2178 H2164 0.930 . S
C2178 C2176 1.395 . S
C2178 C2181 1.403 . S
C2179 C2176 1.403 . S
C2179 C2180 1.524 . S
C2179 C2183 1.400 . S
C2180 H2165 0.960 . S
C2180 H2166 0.960 . S
C2180 H2167 0.960 . S
C2180 C2179 1.524 . S
C2181 C2178 1.403 . S
C2181 C2182 1.392 . S
C2181 C2185 1.495 . S
C2182 C2181 1.392 . S
C2182 C2183 1.385 . S
C2182 C2184 1.478 . S
C2183 H2177 0.930 . S
C2183 C2179 1.400 . S
C2183 C2182 1.385 . S
C2184 C2182 1.478 . S
C2184 C2186 1.381 . S
C2184 C2190 1.383 . S
C2185 C2181 1.495 . S
C2185 H2191 0.959 . S
C2185 H2192 0.961 . S
C2185 H2193 0.960 . S
C2186 C2184 1.381 . S
C2186 C2187 1.394 . S
C2186 H2194 0.930 . S
C2187 C2186 1.394 . S
C2187 C2188 1.383 . S
C2187 H2195 0.929 . S
C2188 C2187 1.383 . S
C2188 C2189 1.377 . S
C2189 H2173 0.930 . S
C2189 C2188 1.377 . S
C2189 C2190 1.379 . S
C2190 H2174 0.931 . S
C2190 C2184 1.383 . S
C2190 C2189 1.379 . S
H2191 C2185 0.959 . S
H2192 C2185 0.961 . S
H2193 C2185 0.960 . S
H2194 C2186 0.930 . S
H2195 C2187 0.929 . S
H2196 C2204 0.929 . S
H2197 C2206 0.930 . S
H2198 C2208 0.930 . S
H2199 C2211 0.929 . S
H2200 C2214 0.935 . S
H2201 C2216 0.960 . S
H2202 C2216 0.960 . S
H2203 C2216 0.960 . S
C2204 H2196 0.929 . S
C2204 C2205 1.377 . S
C2204 C2206 1.384 . S
C2205 C2204 1.377 . S
C2205 C2211 1.390 . S
C2206 H2197 0.930 . S
C2206 C2204 1.384 . S
C2206 C2207 1.372 . S
C2207 C2206 1.372 . S
C2207 C2208 1.400 . S
C2207 C2212 1.490 1_545 S
C2208 H2198 0.930 . S
C2208 C2207 1.400 . S
C2208 C2211 1.386 . S
H2209 C2225 0.930 . S
H2210 C2226 0.931 . S
C2211 H2199 0.929 . S
C2211 C2205 1.390 . S
C2211 C2208 1.386 . S
C2212 C2207 1.490 1_565 S
C2212 C2214 1.395 . S
C2212 C2215 1.403 . S
H2213 C2219 0.930 . S
C2214 H2200 0.935 . S
C2214 C2212 1.395 . S
C2214 C2217 1.403 . S
C2215 C2212 1.403 . S
C2215 C2216 1.524 . S
C2215 C2219 1.400 . S
C2216 H2201 0.960 . S
C2216 H2202 0.960 . S
C2216 H2203 0.960 . S
C2216 C2215 1.524 . S
C2217 C2214 1.403 . S
C2217 C2218 1.392 . S
C2217 C2221 1.495 . S
C2218 C2217 1.392 . S
C2218 C2219 1.385 . S
C2218 C2220 1.478 . S
C2219 H2213 0.930 . S
C2219 C2215 1.400 . S
C2219 C2218 1.385 . S
C2220 C2218 1.478 . S
C2220 C2222 1.381 . S
C2220 C2226 1.383 . S
C2221 C2217 1.495 . S
C2221 H2227 0.959 . S
C2221 H2228 0.961 . S
C2221 H2229 0.960 . S
C2222 C2220 1.381 . S
C2222 C2223 1.394 . S
C2222 H2230 0.930 . S
C2223 C2222 1.394 . S
C2223 C2224 1.383 . S
C2223 H2231 0.929 . S
C2224 C2223 1.383 . S
C2224 C2225 1.377 . S
C2225 H2209 0.930 . S
C2225 C2224 1.377 . S
C2225 C2226 1.379 . S
C2226 H2210 0.931 . S
C2226 C2220 1.383 . S
C2226 C2225 1.379 . S
H2227 C2221 0.959 . S
H2228 C2221 0.961 . S
H2229 C2221 0.960 . S
H2230 C2222 0.930 . S
H2231 C2223 0.929 . S
H2232 C2240 0.929 . S
H2233 C2242 0.930 . S
H2234 C2244 0.930 . S
H2235 C2247 0.929 . S
H2236 C2250 0.930 . S
H2237 C2252 0.960 . S
H2238 C2252 0.960 . S
H2239 C2252 0.960 . S
C2240 H2232 0.929 . S
C2240 C2241 1.377 . S
C2240 C2242 1.384 . S
C2241 C2240 1.377 . S
C2241 C2247 1.390 . S
C2242 H2233 0.930 . S
C2242 C2240 1.384 . S
C2242 C2243 1.372 1_655 S
C2243 C2242 1.372 1_455 S
C2243 C2244 1.400 . S
C2243 C2248 1.490 . S
C2244 H2234 0.930 . S
C2244 C2243 1.400 . S
C2244 C2247 1.386 1_455 S
H2245 C2261 0.930 . S
H2246 C2262 0.931 . S
C2247 H2235 0.929 . S
C2247 C2241 1.390 . S
C2247 C2244 1.386 1_655 S
C2248 C2243 1.490 . S
C2248 C2250 1.395 . S
C2248 C2251 1.403 . S
H2249 C2255 0.930 . S
C2250 H2236 0.930 . S
C2250 C2248 1.395 . S
C2250 C2253 1.403 . S
C2251 C2248 1.403 . S
C2251 C2252 1.524 . S
C2251 C2255 1.400 . S
C2252 H2237 0.960 . S
C2252 H2238 0.960 . S
C2252 H2239 0.960 . S
C2252 C2251 1.524 . S
C2253 C2250 1.403 . S
C2253 C2254 1.392 . S
C2253 C2257 1.495 . S
C2254 C2253 1.392 . S
C2254 C2255 1.385 . S
C2254 C2256 1.478 . S
C2255 H2249 0.930 . S
C2255 C2251 1.400 . S
C2255 C2254 1.385 . S
C2256 C2254 1.478 . S
C2256 C2258 1.381 . S
C2256 C2262 1.383 . S
C2257 C2253 1.495 . S
C2257 H2263 0.959 . S
C2257 H2264 0.961 . S
C2257 H2265 0.960 . S
C2258 C2256 1.381 . S
C2258 C2259 1.394 . S
C2258 H2266 0.930 . S
C2259 C2258 1.394 . S
C2259 C2260 1.383 . S
C2259 H2267 0.929 . S
C2260 C2259 1.383 . S
C2260 C2261 1.377 . S
C2261 H2245 0.930 . S
C2261 C2260 1.377 . S
C2261 C2262 1.379 . S
C2262 H2246 0.931 . S
C2262 C2256 1.383 . S
C2262 C2261 1.379 . S
H2263 C2257 0.959 . S
H2264 C2257 0.961 . S
H2265 C2257 0.960 . S
H2266 C2258 0.930 . S
H2267 C2259 0.929 . S
H2268 C2276 0.929 . S
H2269 C2278 0.930 . S
H2270 C2280 0.930 . S
H2271 C2283 0.929 . S
H2272 C2286 0.930 . S
H2273 C2288 0.960 . S
H2274 C2288 0.960 . S
H2275 C2288 0.960 . S
C2276 H2268 0.929 . S
C2276 C2277 1.377 . S
C2276 C2278 1.384 . S
C2277 C2276 1.377 . S
C2277 C2283 1.390 . S
C2278 H2269 0.930 . S
C2278 C2276 1.384 . S
C2278 C2279 1.372 . S
C2279 C2278 1.372 . S
C2279 C2280 1.400 . S
C2279 C2284 1.490 . S
C2280 H2270 0.930 . S
C2280 C2279 1.400 . S
C2280 C2283 1.386 . S
H2281 C2297 0.930 . S
H2282 C2298 0.931 . S
C2283 H2271 0.929 . S
C2283 C2277 1.390 . S
C2283 C2280 1.386 . S
C2284 C2279 1.490 . S
C2284 C2286 1.395 . S
C2284 C2287 1.403 . S
H2285 C2291 0.930 . S
C2286 H2272 0.930 . S
C2286 C2284 1.395 . S
C2286 C2289 1.403 . S
C2287 C2284 1.403 . S
C2287 C2288 1.524 . S
C2287 C2291 1.400 . S
C2288 H2273 0.960 . S
C2288 H2274 0.960 . S
C2288 H2275 0.960 . S
C2288 C2287 1.524 . S
C2289 C2286 1.403 . S
C2289 C2290 1.392 . S
C2289 C2293 1.495 . S
C2290 C2289 1.392 . S
C2290 C2291 1.385 . S
C2290 C2292 1.478 . S
C2291 H2285 0.930 . S
C2291 C2287 1.400 . S
C2291 C2290 1.385 . S
C2292 C2290 1.478 . S
C2292 C2294 1.381 . S
C2292 C2298 1.383 . S
C2293 C2289 1.495 . S
C2293 H2299 0.959 . S
C2293 H2300 0.961 . S
C2293 H2301 0.960 . S
C2294 C2292 1.381 . S
C2294 C2295 1.394 . S
C2294 H2302 0.930 . S
C2295 C2294 1.394 . S
C2295 C2296 1.383 . S
C2295 H2303 0.929 . S
C2296 C2295 1.383 . S
C2296 C2297 1.377 . S
C2297 H2281 0.930 . S
C2297 C2296 1.377 . S
C2297 C2298 1.379 . S
C2298 H2282 0.931 . S
C2298 C2292 1.383 . S
C2298 C2297 1.379 . S
H2299 C2293 0.959 . S
H2300 C2293 0.961 . S
H2301 C2293 0.960 . S
H2302 C2294 0.930 . S
H2303 C2295 0.929 . S
H2304 C2312 0.929 . S
H2305 C2314 0.930 . S
H2306 C2316 0.930 . S
H2307 C2319 0.929 . S
H2308 C2322 0.930 . S
H2309 C2324 0.960 . S
H2310 C2324 0.960 . S
H2311 C2324 0.960 . S
C2312 H2304 0.929 . S
C2312 C2313 1.377 . S
C2312 C2314 1.384 . S
C2313 C2312 1.377 . S
C2313 C2319 1.390 . S
C2314 H2305 0.930 . S
C2314 C2312 1.384 . S
C2314 C2315 1.372 . S
C2315 C2314 1.372 . S
C2315 C2316 1.400 . S
C2315 C2320 1.490 . S
C2316 H2306 0.930 . S
C2316 C2315 1.400 . S
C2316 C2319 1.386 . S
H2317 C2333 0.930 . S
H2318 C2334 0.931 . S
C2319 H2307 0.929 . S
C2319 C2313 1.390 . S
C2319 C2316 1.386 . S
C2320 C2315 1.490 . S
C2320 C2322 1.395 . S
C2320 C2323 1.403 . S
H2321 C2327 0.930 . S
C2322 H2308 0.930 . S
C2322 C2320 1.395 . S
C2322 C2325 1.403 . S
C2323 C2320 1.403 . S
C2323 C2324 1.524 . S
C2323 C2327 1.400 . S
C2324 H2309 0.960 . S
C2324 H2310 0.960 . S
C2324 H2311 0.960 . S
C2324 C2323 1.524 . S
C2325 C2322 1.403 . S
C2325 C2326 1.392 . S
C2325 C2329 1.495 . S
C2326 C2325 1.392 . S
C2326 C2327 1.385 . S
C2326 C2328 1.478 . S
C2327 H2321 0.930 . S
C2327 C2323 1.400 . S
C2327 C2326 1.385 . S
C2328 C2326 1.478 . S
C2328 C2330 1.381 . S
C2328 C2334 1.383 . S
C2329 C2325 1.495 . S
C2329 H2335 0.959 . S
C2329 H2336 0.961 . S
C2329 H2337 0.960 . S
C2330 C2328 1.381 . S
C2330 C2331 1.394 . S
C2330 H2338 0.930 . S
C2331 C2330 1.394 . S
C2331 C2332 1.383 . S
C2331 H2339 0.929 . S
C2332 C2331 1.383 . S
C2332 C2333 1.377 . S
C2333 H2317 0.930 . S
C2333 C2332 1.377 . S
C2333 C2334 1.379 . S
C2334 H2318 0.931 . S
C2334 C2328 1.383 . S
C2334 C2333 1.379 . S
H2335 C2329 0.959 . S
H2336 C2329 0.961 . S
H2337 C2329 0.960 . S
H2338 C2330 0.930 . S
H2339 C2331 0.929 . S
H2340 C2348 0.929 . S
H2341 C2350 0.930 . S
H2342 C2352 0.930 . S
H2343 C2355 0.929 . S
H2344 C2358 0.930 . S
H2345 C2360 0.960 . S
H2346 C2360 0.960 . S
H2347 C2360 0.960 . S
C2348 H2340 0.929 . S
C2348 C2349 1.377 . S
C2348 C2350 1.384 . S
C2349 C2348 1.377 . S
C2349 C2355 1.390 . S
C2350 H2341 0.930 . S
C2350 C2348 1.384 . S
C2350 C2351 1.372 . S
C2351 C2350 1.372 . S
C2351 C2352 1.400 . S
C2351 C2356 1.490 . S
C2352 H2342 0.930 . S
C2352 C2351 1.400 . S
C2352 C2355 1.386 . S
H2353 C2369 0.930 . S
H2354 C2370 0.931 . S
C2355 H2343 0.929 . S
C2355 C2349 1.390 . S
C2355 C2352 1.386 . S
C2356 C2351 1.490 . S
C2356 C2358 1.395 . S
C2356 C2359 1.403 . S
H2357 C2363 0.930 . S
C2358 H2344 0.930 . S
C2358 C2356 1.395 . S
C2358 C2361 1.403 . S
C2359 C2356 1.403 . S
C2359 C2360 1.524 . S
C2359 C2363 1.400 . S
C2360 H2345 0.960 . S
C2360 H2346 0.960 . S
C2360 H2347 0.960 . S
C2360 C2359 1.524 . S
C2361 C2358 1.403 . S
C2361 C2362 1.392 . S
C2361 C2365 1.495 . S
C2362 C2361 1.392 . S
C2362 C2363 1.385 . S
C2362 C2364 1.478 . S
C2363 H2357 0.930 . S
C2363 C2359 1.400 . S
C2363 C2362 1.385 . S
C2364 C2362 1.478 . S
C2364 C2366 1.381 . S
C2364 C2370 1.383 . S
C2365 C2361 1.495 . S
C2365 H2371 0.959 . S
C2365 H2372 0.961 . S
C2365 H2373 0.960 . S
C2366 C2364 1.381 . S
C2366 C2367 1.394 . S
C2366 H2374 0.930 . S
C2367 C2366 1.394 . S
C2367 C2368 1.383 . S
C2367 H2375 0.929 . S
C2368 C2367 1.383 . S
C2368 C2369 1.377 . S
C2369 H2353 0.930 . S
C2369 C2368 1.377 . S
C2369 C2370 1.379 . S
C2370 H2354 0.931 . S
C2370 C2364 1.383 . S
C2370 C2369 1.379 . S
H2371 C2365 0.959 . S
H2372 C2365 0.961 . S
H2373 C2365 0.960 . S
H2374 C2366 0.930 . S
H2375 C2367 0.929 . S
H2376 C2384 0.929 . S
H2377 C2386 0.930 . S
H2378 C2388 0.930 . S
H2379 C2391 0.929 . S
H2380 C2394 0.930 . S
H2381 C2396 0.960 . S
H2382 C2396 0.960 . S
H2383 C2396 0.960 . S
C2384 H2376 0.929 . S
C2384 C2385 1.377 . S
C2384 C2386 1.384 . S
C2385 C2384 1.377 . S
C2385 C2391 1.390 . S
C2386 H2377 0.930 . S
C2386 C2384 1.384 . S
C2386 C2387 1.372 . S
C2387 C2386 1.372 . S
C2387 C2388 1.400 . S
C2387 C2392 1.490 . S
C2388 H2378 0.930 . S
C2388 C2387 1.400 . S
C2388 C2391 1.386 . S
H2389 C2405 0.930 . S
H2390 C2406 0.931 . S
C2391 H2379 0.929 . S
C2391 C2385 1.390 . S
C2391 C2388 1.386 . S
C2392 C2387 1.490 . S
C2392 C2394 1.395 . S
C2392 C2395 1.403 . S
H2393 C2399 0.930 . S
C2394 H2380 0.930 . S
C2394 C2392 1.395 . S
C2394 C2397 1.403 . S
C2395 C2392 1.403 . S
C2395 C2396 1.524 . S
C2395 C2399 1.400 . S
C2396 H2381 0.960 . S
C2396 H2382 0.960 . S
C2396 H2383 0.960 . S
C2396 C2395 1.524 . S
C2397 C2394 1.403 . S
C2397 C2398 1.392 . S
C2397 C2401 1.495 . S
C2398 C2397 1.392 . S
C2398 C2399 1.385 . S
C2398 C2400 1.478 . S
C2399 H2393 0.930 . S
C2399 C2395 1.400 . S
C2399 C2398 1.385 . S
C2400 C2398 1.478 . S
C2400 C2402 1.381 . S
C2400 C2406 1.383 . S
C2401 C2397 1.495 . S
C2401 H2407 0.959 . S
C2401 H2408 0.961 . S
C2401 H2409 0.960 . S
C2402 C2400 1.381 . S
C2402 C2403 1.394 . S
C2402 H2410 0.930 . S
C2403 C2402 1.394 . S
C2403 C2404 1.383 . S
C2403 H2411 0.929 . S
C2404 C2403 1.383 . S
C2404 C2405 1.377 . S
C2405 H2389 0.930 . S
C2405 C2404 1.377 . S
C2405 C2406 1.379 . S
C2406 H2390 0.931 . S
C2406 C2400 1.383 . S
C2406 C2405 1.379 . S
H2407 C2401 0.959 . S
H2408 C2401 0.961 . S
H2409 C2401 0.960 . S
H2410 C2402 0.930 . S
H2411 C2403 0.929 . S
H2412 C2420 0.929 . S
H2413 C2422 0.930 . S
H2414 C2424 0.930 . S
H2415 C2427 0.929 . S
H2416 C2430 0.930 . S
H2417 C2432 0.960 . S
H2418 C2432 0.960 1_565 S
H2419 C2432 0.960 1_565 S
C2420 H2412 0.929 . S
C2420 C2421 1.377 . S
C2420 C2422 1.384 . S
C2421 C2420 1.377 . S
C2421 C2427 1.390 . S
C2422 H2413 0.930 . S
C2422 C2420 1.384 . S
C2422 C2423 1.372 . S
C2423 C2422 1.372 . S
C2423 C2424 1.400 . S
C2423 C2428 1.490 1_565 S
C2424 H2414 0.930 . S
C2424 C2423 1.400 . S
C2424 C2427 1.386 . S
H2425 C2441 0.930 . S
H2426 C2442 0.931 . S
C2427 H2415 0.929 . S
C2427 C2421 1.390 . S
C2427 C2424 1.386 . S
C2428 C2423 1.490 1_545 S
C2428 C2430 1.395 . S
C2428 C2431 1.403 . S
H2429 C2435 0.930 . S
C2430 H2416 0.930 . S
C2430 C2428 1.395 . S
C2430 C2433 1.403 . S
C2431 C2428 1.403 . S
C2431 C2432 1.524 . S
C2431 C2435 1.400 . S
C2432 H2417 0.960 . S
C2432 H2418 0.960 1_545 S
C2432 H2419 0.960 1_545 S
C2432 C2431 1.524 . S
C2433 C2430 1.403 . S
C2433 C2434 1.392 . S
C2433 C2437 1.495 . S
C2434 C2433 1.392 . S
C2434 C2435 1.385 . S
C2434 C2436 1.478 . S
C2435 H2429 0.930 . S
C2435 C2431 1.400 . S
C2435 C2434 1.385 . S
C2436 C2434 1.478 . S
C2436 C2438 1.381 . S
C2436 C2442 1.383 . S
C2437 C2433 1.495 . S
C2437 H2443 0.959 . S
C2437 H2444 0.961 . S
C2437 H2445 0.960 . S
C2438 C2436 1.381 . S
C2438 C2439 1.394 . S
C2438 H2446 0.930 . S
C2439 C2438 1.394 . S
C2439 C2440 1.383 . S
C2439 H2447 0.929 . S
C2440 C2439 1.383 . S
C2440 C2441 1.377 . S
C2441 H2425 0.930 . S
C2441 C2440 1.377 . S
C2441 C2442 1.379 . S
C2442 H2426 0.931 . S
C2442 C2436 1.383 . S
C2442 C2441 1.379 . S
H2443 C2437 0.959 . S
H2444 C2437 0.961 . S
H2445 C2437 0.960 . S
H2446 C2438 0.930 . S
H2447 C2439 0.929 . S
H2448 C2456 0.929 . S
H2449 C2458 0.930 . S
H2450 C2460 0.930 1_655 S
H2451 C2463 0.929 . S
H2452 C2466 0.930 . S
H2453 C2468 0.960 . S
H2454 C2468 0.987 . S
H2455 C2468 0.960 . S
C2456 H2448 0.929 . S
C2456 C2457 1.377 . S
C2456 C2458 1.384 . S
C2457 C2456 1.377 . S
C2457 C2463 1.390 . S
C2458 H2449 0.930 . S
C2458 C2456 1.384 . S
C2458 C2459 1.372 1_455 S
C2459 C2458 1.372 1_655 S
C2459 C2460 1.400 1_655 S
C2459 C2464 1.490 . S
C2460 H2450 0.930 1_455 S
C2460 C2459 1.400 1_455 S
C2460 C2463 1.386 . S
H2461 C2477 0.930 . S
H2462 C2478 0.931 . S
C2463 H2451 0.929 . S
C2463 C2457 1.390 . S
C2463 C2460 1.386 . S
C2464 C2459 1.490 . S
C2464 C2466 1.395 . S
C2464 C2467 1.403 . S
H2465 C2471 0.930 . S
C2466 H2452 0.930 . S
C2466 C2464 1.395 . S
C2466 C2469 1.403 . S
C2467 C2464 1.403 . S
C2467 C2468 1.524 . S
C2467 C2471 1.400 . S
C2468 H2453 0.960 . S
C2468 H2454 0.987 . S
C2468 H2455 0.960 . S
C2468 C2467 1.524 . S
C2469 C2466 1.403 . S
C2469 C2470 1.392 . S
C2469 C2473 1.495 . S
C2470 C2469 1.392 . S
C2470 C2471 1.385 . S
C2470 C2472 1.478 . S
C2471 H2465 0.930 . S
C2471 C2467 1.400 . S
C2471 C2470 1.385 . S
C2472 C2470 1.478 . S
C2472 C2474 1.381 . S
C2472 C2478 1.383 . S
C2473 C2469 1.495 . S
C2473 H2479 0.959 . S
C2473 H2480 0.961 . S
C2473 H2481 0.960 . S
C2474 C2472 1.381 . S
C2474 C2475 1.394 . S
C2474 H2482 0.930 . S
C2475 C2474 1.394 . S
C2475 C2476 1.383 . S
C2475 H2483 0.929 . S
C2476 C2475 1.383 . S
C2476 C2477 1.377 . S
C2477 H2461 0.930 . S
C2477 C2476 1.377 . S
C2477 C2478 1.379 . S
C2478 H2462 0.931 . S
C2478 C2472 1.383 . S
C2478 C2477 1.379 . S
H2479 C2473 0.959 . S
H2480 C2473 0.961 . S
H2481 C2473 0.960 . S
H2482 C2474 0.930 . S
H2483 C2475 0.929 . S
H2484 C2492 0.929 . S
H2485 C2494 0.930 . S
H2486 C2496 0.930 . S
H2487 C2499 0.929 . S
H2488 C2502 0.930 . S
H2489 C2504 0.960 . S
H2490 C2504 0.960 . S
H2491 C2504 0.960 . S
C2492 H2484 0.929 . S
C2492 C2493 1.377 . S
C2492 C2494 1.384 . S
C2493 C2492 1.377 . S
C2493 C2499 1.390 . S
C2494 H2485 0.930 . S
C2494 C2492 1.384 . S
C2494 C2495 1.372 . S
C2495 C2494 1.372 . S
C2495 C2496 1.400 . S
C2495 C2500 1.490 . S
C2496 H2486 0.930 . S
C2496 C2495 1.400 . S
C2496 C2499 1.386 . S
H2497 C2513 0.930 . S
H2498 C2514 0.931 . S
C2499 H2487 0.929 . S
C2499 C2493 1.390 . S
C2499 C2496 1.386 . S
C2500 C2495 1.490 . S
C2500 C2502 1.395 . S
C2500 C2503 1.403 . S
H2501 C2507 0.930 . S
C2502 H2488 0.930 . S
C2502 C2500 1.395 . S
C2502 C2505 1.403 . S
C2503 C2500 1.403 . S
C2503 C2504 1.524 . S
C2503 C2507 1.400 . S
C2504 H2489 0.960 . S
C2504 H2490 0.960 . S
C2504 H2491 0.960 . S
C2504 C2503 1.524 . S
C2505 C2502 1.403 . S
C2505 C2506 1.392 . S
C2505 C2509 1.495 . S
C2506 C2505 1.392 . S
C2506 C2507 1.385 . S
C2506 C2508 1.478 . S
C2507 H2501 0.930 . S
C2507 C2503 1.400 . S
C2507 C2506 1.385 . S
C2508 C2506 1.478 . S
C2508 C2510 1.381 . S
C2508 C2514 1.383 . S
C2509 C2505 1.495 . S
C2509 H2515 0.959 . S
C2509 H2516 0.961 . S
C2509 H2517 0.960 . S
C2510 C2508 1.381 . S
C2510 C2511 1.394 . S
C2510 H2518 0.930 . S
C2511 C2510 1.394 . S
C2511 C2512 1.383 . S
C2511 H2519 0.929 . S
C2512 C2511 1.383 . S
C2512 C2513 1.377 . S
C2513 H2497 0.930 . S
C2513 C2512 1.377 . S
C2513 C2514 1.379 . S
C2514 H2498 0.931 . S
C2514 C2508 1.383 . S
C2514 C2513 1.379 . S
H2515 C2509 0.959 . S
H2516 C2509 0.961 . S
H2517 C2509 0.960 . S
H2518 C2510 0.930 . S
H2519 C2511 0.929 . S
H2520 C2528 0.929 . S
H2521 C2530 0.930 . S
H2522 C2532 0.930 . S
H2523 C2535 0.929 . S
H2524 C2538 0.930 . S
H2525 C2540 0.960 . S
H2526 C2540 0.960 . S
H2527 C2540 0.960 . S
C2528 H2520 0.929 . S
C2528 C2529 1.377 . S
C2528 C2530 1.384 . S
C2529 C2528 1.377 . S
C2529 C2535 1.390 . S
C2530 H2521 0.930 . S
C2530 C2528 1.384 . S
C2530 C2531 1.372 . S
C2531 C2530 1.372 . S
C2531 C2532 1.400 . S
C2531 C2536 1.490 1_455 S
C2532 H2522 0.930 . S
C2532 C2531 1.400 . S
C2532 C2535 1.386 . S
H2533 C2549 0.930 . S
H2534 C2550 0.931 . S
C2535 H2523 0.929 . S
C2535 C2529 1.390 . S
C2535 C2532 1.386 . S
C2536 C2531 1.490 1_655 S
C2536 C2538 1.395 . S
C2536 C2539 1.403 . S
H2537 C2543 0.930 . S
C2538 H2524 0.930 . S
C2538 C2536 1.395 . S
C2538 C2541 1.403 . S
C2539 C2536 1.403 . S
C2539 C2540 1.524 . S
C2539 C2543 1.400 . S
C2540 H2525 0.960 . S
C2540 H2526 0.960 . S
C2540 H2527 0.960 . S
C2540 C2539 1.524 . S
C2541 C2538 1.403 . S
C2541 C2542 1.392 . S
C2541 C2545 1.495 . S
C2542 C2541 1.392 . S
C2542 C2543 1.385 . S
C2542 C2544 1.478 . S
C2543 H2537 0.930 . S
C2543 C2539 1.400 . S
C2543 C2542 1.385 . S
C2544 C2542 1.478 . S
C2544 C2546 1.381 . S
C2544 C2550 1.383 . S
C2545 C2541 1.495 . S
C2545 H2551 0.959 . S
C2545 H2552 0.961 . S
C2545 H2553 0.960 . S
C2546 C2544 1.381 . S
C2546 C2547 1.394 . S
C2546 H2554 0.930 . S
C2547 C2546 1.394 . S
C2547 C2548 1.383 . S
C2547 H2555 0.929 . S
C2548 C2547 1.383 . S
C2548 C2549 1.377 . S
C2549 H2533 0.930 . S
C2549 C2548 1.377 . S
C2549 C2550 1.379 . S
C2550 H2534 0.931 . S
C2550 C2544 1.383 . S
C2550 C2549 1.379 . S
H2551 C2545 0.959 . S
H2552 C2545 0.961 . S
H2553 C2545 0.960 . S
H2554 C2546 0.930 . S
H2555 C2547 0.929 . S
H2556 C2564 0.929 . S
H2557 C2566 0.930 . S
H2558 C2568 0.930 . S
H2559 C2571 0.929 . S
H2560 C2574 0.930 . S
H2561 C2576 0.960 . S
H2562 C2576 0.960 . S
H2563 C2576 0.960 . S
C2564 H2556 0.929 . S
C2564 C2565 1.377 . S
C2564 C2566 1.384 . S
C2565 C2564 1.377 . S
C2565 C2571 1.390 . S
C2566 H2557 0.930 . S
C2566 C2564 1.384 . S
C2566 C2567 1.372 . S
C2567 C2566 1.372 . S
C2567 C2568 1.400 . S
C2567 C2572 1.490 . S
C2568 H2558 0.930 . S
C2568 C2567 1.400 . S
C2568 C2571 1.386 . S
H2569 C2585 0.930 . S
H2570 C2586 0.931 . S
C2571 H2559 0.929 . S
C2571 C2565 1.390 . S
C2571 C2568 1.386 . S
C2572 C2567 1.490 . S
C2572 C2574 1.395 . S
C2572 C2575 1.403 . S
H2573 C2579 0.930 . S
C2574 H2560 0.930 . S
C2574 C2572 1.395 . S
C2574 C2577 1.403 . S
C2575 C2572 1.403 . S
C2575 C2576 1.524 . S
C2575 C2579 1.400 . S
C2576 H2561 0.960 . S
C2576 H2562 0.960 . S
C2576 H2563 0.960 . S
C2576 C2575 1.524 . S
C2577 C2574 1.403 . S
C2577 C2578 1.392 . S
C2577 C2581 1.495 . S
C2578 C2577 1.392 . S
C2578 C2579 1.385 . S
C2578 C2580 1.478 . S
C2579 H2573 0.930 . S
C2579 C2575 1.400 . S
C2579 C2578 1.385 . S
C2580 C2578 1.478 . S
C2580 C2582 1.381 . S
C2580 C2586 1.383 . S
C2581 C2577 1.495 . S
C2581 H2587 0.959 . S
C2581 H2588 0.961 . S
C2581 H2589 0.960 . S
C2582 C2580 1.381 . S
C2582 C2583 1.394 . S
C2582 H2590 0.930 . S
C2583 C2582 1.394 . S
C2583 C2584 1.383 . S
C2583 H2591 0.929 . S
C2584 C2583 1.383 . S
C2584 C2585 1.377 . S
C2585 H2569 0.930 . S
C2585 C2584 1.377 . S
C2585 C2586 1.379 . S
C2586 H2570 0.931 . S
C2586 C2580 1.383 . S
C2586 C2585 1.379 . S
H2587 C2581 0.959 . S
H2588 C2581 0.961 . S
H2589 C2581 0.960 . S
H2590 C2582 0.930 . S
H2591 C2583 0.929 . S
H2592 C2600 0.929 . S
H2593 C2602 0.930 . S
H2594 C2604 0.930 . S
H2595 C2607 0.929 . S
H2596 C2610 0.930 . S
H2597 C2612 1.012 . S
H2598 C2612 0.928 1_565 S
H2599 C2612 0.947 1_565 S
C2600 H2592 0.929 . S
C2600 C2601 1.377 . S
C2600 C2602 1.384 . S
C2601 C2600 1.377 . S
C2601 C2607 1.390 . S
C2602 H2593 0.930 . S
C2602 C2600 1.384 . S
C2602 C2603 1.372 . S
C2603 C2602 1.372 . S
C2603 C2604 1.400 . S
C2603 C2608 1.495 1_565 S
C2604 H2594 0.930 . S
C2604 C2603 1.400 . S
C2604 C2607 1.386 . S
H2605 C2621 0.930 . S
H2606 C2622 0.931 . S
C2607 H2595 0.929 . S
C2607 C2601 1.390 . S
C2607 C2604 1.386 . S
C2608 C2603 1.495 1_545 S
C2608 C2610 1.395 . S
C2608 C2611 1.397 . S
H2609 C2615 0.930 . S
C2610 H2596 0.930 . S
C2610 C2608 1.395 . S
C2610 C2613 1.403 . S
C2611 C2608 1.397 . S
C2611 C2612 1.521 . S
C2611 C2615 1.400 . S
C2612 H2597 1.012 . S
C2612 H2598 0.928 1_545 S
C2612 H2599 0.947 1_545 S
C2612 C2611 1.521 . S
C2613 C2610 1.403 . S
C2613 C2614 1.392 . S
C2613 C2617 1.495 . S
C2614 C2613 1.392 . S
C2614 C2615 1.385 . S
C2614 C2616 1.478 . S
C2615 H2609 0.930 . S
C2615 C2611 1.400 . S
C2615 C2614 1.385 . S
C2616 C2614 1.478 . S
C2616 C2618 1.381 . S
C2616 C2622 1.383 . S
C2617 C2613 1.495 . S
C2617 H2623 0.959 . S
C2617 H2624 0.961 . S
C2617 H2625 0.960 . S
C2618 C2616 1.381 . S
C2618 C2619 1.394 . S
C2618 H2626 0.930 . S
C2619 C2618 1.394 . S
C2619 C2620 1.383 . S
C2619 H2627 0.929 . S
C2620 C2619 1.383 . S
C2620 C2621 1.377 . S
C2621 H2605 0.930 . S
C2621 C2620 1.377 . S
C2621 C2622 1.379 . S
C2622 H2606 0.931 . S
C2622 C2616 1.383 . S
C2622 C2621 1.379 . S
H2623 C2617 0.959 . S
H2624 C2617 0.961 . S
H2625 C2617 0.960 . S
H2626 C2618 0.930 . S
H2627 C2619 0.929 . S
H2628 C2636 0.929 . S
H2629 C2638 0.930 . S
H2630 C2640 0.930 . S
H2631 C2643 0.929 . S
H2632 C2646 0.930 . S
H2633 C2648 0.960 . S
H2634 C2648 0.960 . S
H2635 C2648 0.960 . S
C2636 H2628 0.929 . S
C2636 C2637 1.377 . S
C2636 C2638 1.384 . S
C2637 C2636 1.377 . S
C2637 C2643 1.390 . S
C2638 H2629 0.930 . S
C2638 C2636 1.384 . S
C2638 C2639 1.372 . S
C2639 C2638 1.372 . S
C2639 C2640 1.400 . S
C2639 C2644 1.490 . S
C2640 H2630 0.930 . S
C2640 C2639 1.400 . S
C2640 C2643 1.386 . S
H2641 C2657 0.930 . S
H2642 C2658 0.931 . S
C2643 H2631 0.929 . S
C2643 C2637 1.390 . S
C2643 C2640 1.386 . S
C2644 C2639 1.490 . S
C2644 C2646 1.395 . S
C2644 C2647 1.403 . S
H2645 C2651 0.930 . S
C2646 H2632 0.930 . S
C2646 C2644 1.395 . S
C2646 C2649 1.403 . S
C2647 C2644 1.403 . S
C2647 C2648 1.524 . S
C2647 C2651 1.400 . S
C2648 H2633 0.960 . S
C2648 H2634 0.960 . S
C2648 H2635 0.960 . S
C2648 C2647 1.524 . S
C2649 C2646 1.403 . S
C2649 C2650 1.392 . S
C2649 C2653 1.495 . S
C2650 C2649 1.392 . S
C2650 C2651 1.385 . S
C2650 C2652 1.478 . S
C2651 H2645 0.930 . S
C2651 C2647 1.400 . S
C2651 C2650 1.385 . S
C2652 C2650 1.478 . S
C2652 C2654 1.381 . S
C2652 C2658 1.383 . S
C2653 C2649 1.495 . S
C2653 H2659 0.959 . S
C2653 H2660 0.961 . S
C2653 H2661 0.960 . S
C2654 C2652 1.381 . S
C2654 C2655 1.394 . S
C2654 H2662 0.930 . S
C2655 C2654 1.394 . S
C2655 C2656 1.383 . S
C2655 H2663 0.929 . S
C2656 C2655 1.383 . S
C2656 C2657 1.377 . S
C2657 H2641 0.930 . S
C2657 C2656 1.377 . S
C2657 C2658 1.379 . S
C2658 H2642 0.931 . S
C2658 C2652 1.383 . S
C2658 C2657 1.379 . S
H2659 C2653 0.959 . S
H2660 C2653 0.961 . S
H2661 C2653 0.960 . S
H2662 C2654 0.930 . S
H2663 C2655 0.929 . S
H2664 C2672 0.929 . S
H2665 C2674 0.930 . S
H2666 C2676 0.930 . S
H2667 C2679 0.929 . S
H2668 C2682 0.930 . S
H2669 C2684 0.960 . S
H2670 C2684 0.960 . S
H2671 C2684 0.960 . S
C2672 H2664 0.929 . S
C2672 C2673 1.377 . S
C2672 C2674 1.384 . S
C2673 C2672 1.377 . S
C2673 C2679 1.390 . S
C2674 H2665 0.930 . S
C2674 C2672 1.384 . S
C2674 C2675 1.372 . S
C2675 C2674 1.372 . S
C2675 C2676 1.400 . S
C2675 C2680 1.490 . S
C2676 H2666 0.930 . S
C2676 C2675 1.400 . S
C2676 C2679 1.386 . S
H2677 C2693 0.930 . S
H2678 C2694 0.931 . S
C2679 H2667 0.929 . S
C2679 C2673 1.390 . S
C2679 C2676 1.386 . S
C2680 C2675 1.490 . S
C2680 C2682 1.395 . S
C2680 C2683 1.403 . S
H2681 C2687 0.930 . S
C2682 H2668 0.930 . S
C2682 C2680 1.395 . S
C2682 C2685 1.403 . S
C2683 C2680 1.403 . S
C2683 C2684 1.524 . S
C2683 C2687 1.400 . S
C2684 H2669 0.960 . S
C2684 H2670 0.960 . S
C2684 H2671 0.960 . S
C2684 C2683 1.524 . S
C2685 C2682 1.403 . S
C2685 C2686 1.392 . S
C2685 C2689 1.495 . S
C2686 C2685 1.392 . S
C2686 C2687 1.385 . S
C2686 C2688 1.478 . S
C2687 H2681 0.930 . S
C2687 C2683 1.400 . S
C2687 C2686 1.385 . S
C2688 C2686 1.478 . S
C2688 C2690 1.381 . S
C2688 C2694 1.383 . S
C2689 C2685 1.495 . S
C2689 H2695 0.959 . S
C2689 H2696 0.961 . S
C2689 H2697 0.960 . S
C2690 C2688 1.381 . S
C2690 C2691 1.394 . S
C2690 H2698 0.930 . S
C2691 C2690 1.394 . S
C2691 C2692 1.383 . S
C2691 H2699 0.929 . S
C2692 C2691 1.383 . S
C2692 C2693 1.377 . S
C2693 H2677 0.930 . S
C2693 C2692 1.377 . S
C2693 C2694 1.379 . S
C2694 H2678 0.931 . S
C2694 C2688 1.383 . S
C2694 C2693 1.379 . S
H2695 C2689 0.959 . S
H2696 C2689 0.961 . S
H2697 C2689 0.960 . S
H2698 C2690 0.930 . S
H2699 C2691 0.929 . S
H2700 C2708 0.929 . S
H2701 C2710 0.930 . S
H2702 C2712 0.930 . S
H2703 C2715 0.929 . S
H2704 C2718 0.930 . S
H2705 C2720 0.960 . S
H2706 C2720 0.960 . S
H2707 C2720 0.960 . S
C2708 H2700 0.929 . S
C2708 C2709 1.377 . S
C2708 C2710 1.384 . S
C2709 C2708 1.377 . S
C2709 C2715 1.390 . S
C2710 H2701 0.930 . S
C2710 C2708 1.384 . S
C2710 C2711 1.372 . S
C2711 C2710 1.372 . S
C2711 C2712 1.400 . S
C2711 C2716 1.490 . S
C2712 H2702 0.930 . S
C2712 C2711 1.400 . S
C2712 C2715 1.386 . S
H2713 C2729 0.930 . S
H2714 C2730 0.931 . S
C2715 H2703 0.929 . S
C2715 C2709 1.390 . S
C2715 C2712 1.386 . S
C2716 C2711 1.490 . S
C2716 C2718 1.395 . S
C2716 C2719 1.403 . S
H2717 C2723 0.930 . S
C2718 H2704 0.930 . S
C2718 C2716 1.395 . S
C2718 C2721 1.403 . S
C2719 C2716 1.403 . S
C2719 C2720 1.524 . S
C2719 C2723 1.400 . S
C2720 H2705 0.960 . S
C2720 H2706 0.960 . S
C2720 H2707 0.960 . S
C2720 C2719 1.524 . S
C2721 C2718 1.403 . S
C2721 C2722 1.392 . S
C2721 C2725 1.495 . S
C2722 C2721 1.392 . S
C2722 C2723 1.385 . S
C2722 C2724 1.478 . S
C2723 H2717 0.930 . S
C2723 C2719 1.400 . S
C2723 C2722 1.385 . S
C2724 C2722 1.478 . S
C2724 C2726 1.381 . S
C2724 C2730 1.383 . S
C2725 C2721 1.495 . S
C2725 H2731 0.959 . S
C2725 H2732 0.961 . S
C2725 H2733 0.960 . S
C2726 C2724 1.381 . S
C2726 C2727 1.394 . S
C2726 H2734 0.930 . S
C2727 C2726 1.394 . S
C2727 C2728 1.383 . S
C2727 H2735 0.929 . S
C2728 C2727 1.383 . S
C2728 C2729 1.377 . S
C2729 H2713 0.930 . S
C2729 C2728 1.377 . S
C2729 C2730 1.379 . S
C2730 H2714 0.931 . S
C2730 C2724 1.383 . S
C2730 C2729 1.379 . S
H2731 C2725 0.959 . S
H2732 C2725 0.961 . S
H2733 C2725 0.960 . S
H2734 C2726 0.930 . S
H2735 C2727 0.929 . S
H2736 C2744 0.929 . S
H2737 C2746 0.930 . S
H2738 C2748 0.930 . S
H2739 C2751 0.929 . S
H2740 C2754 0.930 1_545 S
H2741 C2756 0.960 . S
H2742 C2756 0.960 . S
H2743 C2756 0.960 . S
C2744 H2736 0.929 . S
C2744 C2745 1.377 . S
C2744 C2746 1.384 . S
C2745 C2744 1.377 . S
C2745 C2751 1.390 . S
C2746 H2737 0.930 . S
C2746 C2744 1.384 . S
C2746 C2747 1.372 . S
C2747 C2746 1.372 . S
C2747 C2748 1.400 . S
C2747 C2752 1.490 . S
C2748 H2738 0.930 . S
C2748 C2747 1.400 . S
C2748 C2751 1.386 . S
H2749 C2765 0.930 . S
H2750 C2766 0.931 . S
C2751 H2739 0.929 . S
C2751 C2745 1.390 . S
C2751 C2748 1.386 . S
C2752 C2747 1.490 . S
C2752 C2754 1.395 . S
C2752 C2755 1.403 . S
H2753 C2759 0.930 . S
C2754 H2740 0.930 1_565 S
C2754 C2752 1.395 . S
C2754 C2757 1.403 . S
C2755 C2752 1.403 . S
C2755 C2756 1.524 . S
C2755 C2759 1.400 . S
C2756 H2741 0.960 . S
C2756 H2742 0.960 . S
C2756 H2743 0.960 . S
C2756 C2755 1.524 . S
C2757 C2754 1.403 . S
C2757 C2758 1.392 . S
C2757 C2761 1.495 1_565 S
C2758 C2757 1.392 . S
C2758 C2759 1.385 . S
C2758 C2760 1.478 . S
C2759 H2753 0.930 . S
C2759 C2755 1.400 . S
C2759 C2758 1.385 . S
C2760 C2758 1.478 . S
C2760 C2762 1.381 . S
C2760 C2766 1.383 . S
C2761 C2757 1.495 1_545 S
C2761 H2767 0.959 . S
C2761 H2768 0.961 . S
C2761 H2769 0.960 . S
C2762 C2760 1.381 . S
C2762 C2763 1.394 . S
C2762 H2770 0.930 . S
C2763 C2762 1.394 . S
C2763 C2764 1.383 . S
C2763 H2771 0.919 1_565 S
C2764 C2763 1.383 . S
C2764 C2765 1.377 . S
C2765 H2749 0.930 . S
C2765 C2764 1.377 . S
C2765 C2766 1.379 . S
C2766 H2750 0.931 . S
C2766 C2760 1.383 . S
C2766 C2765 1.379 . S
H2767 C2761 0.959 . S
H2768 C2761 0.961 . S
H2769 C2761 0.960 . S
H2770 C2762 0.930 . S
H2771 C2763 0.919 1_545 S
H2772 C2780 0.929 . S
H2773 C2782 0.930 . S
H2774 C2784 0.930 . S
H2775 C2787 0.929 . S
H2776 C2790 0.930 . S
H2777 C2792 0.960 . S
H2778 C2792 0.960 . S
H2779 C2792 0.960 . S
C2780 H2772 0.929 . S
C2780 C2781 1.377 . S
C2780 C2782 1.384 . S
C2781 C2780 1.377 . S
C2781 C2787 1.390 1_455 S
C2782 H2773 0.930 . S
C2782 C2780 1.384 . S
C2782 C2783 1.372 . S
C2783 C2782 1.372 . S
C2783 C2784 1.400 1_455 S
C2783 C2788 1.490 . S
C2784 H2774 0.930 . S
C2784 C2783 1.400 1_655 S
C2784 C2787 1.386 . S
H2785 C2801 0.929 1_655 S
H2786 C2802 0.931 1_655 S
C2787 H2775 0.929 . S
C2787 C2781 1.390 1_655 S
C2787 C2784 1.386 . S
C2788 C2783 1.490 . S
C2788 C2790 1.395 . S
C2788 C2791 1.403 1_455 S
H2789 C2795 0.930 . S
C2790 H2776 0.930 . S
C2790 C2788 1.395 . S
C2790 C2793 1.403 . S
C2791 C2788 1.403 1_655 S
C2791 C2792 1.524 . S
C2791 C2795 1.400 . S
C2792 H2777 0.960 . S
C2792 H2778 0.960 . S
C2792 H2779 0.960 . S
C2792 C2791 1.524 . S
C2793 C2790 1.403 . S
C2793 C2794 1.392 . S
C2793 C2797 1.495 . S
C2794 C2793 1.392 . S
C2794 C2795 1.385 1_455 S
C2794 C2796 1.478 . S
C2795 H2789 0.930 . S
C2795 C2791 1.400 . S
C2795 C2794 1.385 1_655 S
C2796 C2794 1.478 . S
C2796 C2798 1.381 . S
C2796 C2802 1.383 . S
C2797 C2793 1.495 . S
C2797 H2803 0.959 . S
C2797 H2804 0.961 . S
C2797 H2805 0.960 . S
C2798 C2796 1.381 . S
C2798 C2799 1.394 . S
C2798 H2806 0.930 . S
C2799 C2798 1.394 . S
C2799 C2800 1.383 . S
C2799 H2807 0.929 . S
C2800 C2799 1.383 . S
C2800 C2801 1.378 . S
C2801 H2785 0.929 1_455 S
C2801 C2800 1.378 . S
C2801 C2802 1.379 . S
C2802 H2786 0.931 1_455 S
C2802 C2796 1.383 . S
C2802 C2801 1.379 . S
H2803 C2797 0.959 . S
H2804 C2797 0.961 . S
H2805 C2797 0.960 . S
H2806 C2798 0.930 . S
H2807 C2799 0.929 . S
H2808 C2816 0.929 . S
H2809 C2818 0.930 . S
H2810 C2820 0.930 . S
H2811 C2823 0.929 . S
H2812 C2826 0.930 . S
H2813 C2828 0.960 . S
H2814 C2828 0.960 . S
H2815 C2828 0.960 . S
C2816 H2808 0.929 . S
C2816 C2817 1.377 . S
C2816 C2818 1.384 . S
C2817 C2816 1.377 . S
C2817 C2823 1.390 . S
C2818 H2809 0.930 . S
C2818 C2816 1.384 . S
C2818 C2819 1.372 . S
C2819 C2818 1.372 . S
C2819 C2820 1.400 . S
C2819 C2824 1.490 . S
C2820 H2810 0.930 . S
C2820 C2819 1.400 . S
C2820 C2823 1.386 . S
H2821 C2837 0.930 . S
H2822 C2838 0.931 . S
C2823 H2811 0.929 . S
C2823 C2817 1.390 . S
C2823 C2820 1.386 . S
C2824 C2819 1.490 . S
C2824 C2826 1.395 . S
C2824 C2827 1.403 . S
H2825 C2831 0.930 . S
C2826 H2812 0.930 . S
C2826 C2824 1.395 . S
C2826 C2829 1.403 . S
C2827 C2824 1.403 . S
C2827 C2828 1.524 . S
C2827 C2831 1.400 . S
C2828 H2813 0.960 . S
C2828 H2814 0.960 . S
C2828 H2815 0.960 . S
C2828 C2827 1.524 . S
C2829 C2826 1.403 . S
C2829 C2830 1.392 . S
C2829 C2833 1.495 . S
C2830 C2829 1.392 . S
C2830 C2831 1.385 . S
C2830 C2832 1.478 . S
C2831 H2825 0.930 . S
C2831 C2827 1.400 . S
C2831 C2830 1.385 . S
C2832 C2830 1.478 . S
C2832 C2834 1.381 . S
C2832 C2838 1.383 . S
C2833 C2829 1.495 . S
C2833 H2839 0.959 . S
C2833 H2840 0.961 . S
C2833 H2841 0.960 . S
C2834 C2832 1.381 . S
C2834 C2835 1.394 . S
C2834 H2842 0.930 . S
C2835 C2834 1.394 . S
C2835 C2836 1.383 . S
C2835 H2843 0.929 . S
C2836 C2835 1.383 . S
C2836 C2837 1.377 . S
C2837 H2821 0.930 . S
C2837 C2836 1.377 . S
C2837 C2838 1.379 . S
C2838 H2822 0.931 . S
C2838 C2832 1.383 . S
C2838 C2837 1.379 . S
H2839 C2833 0.959 . S
H2840 C2833 0.961 . S
H2841 C2833 0.960 . S
H2842 C2834 0.930 . S
H2843 C2835 0.929 . S
H2844 C2852 0.929 . S
H2845 C2854 0.930 . S
H2846 C2856 0.953 . S
H2847 C2859 0.970 . S
H2848 C2862 0.930 . S
H2849 C2864 0.960 . S
H2850 C2864 0.960 . S
H2851 C2864 0.960 . S
C2852 H2844 0.929 . S
C2852 C2853 1.377 . S
C2852 C2854 1.384 . S
C2853 C2852 1.377 . S
C2853 C2859 1.354 1_655 S
C2854 H2845 0.930 . S
C2854 C2852 1.384 . S
C2854 C2855 1.372 . S
C2855 C2854 1.372 . S
C2855 C2856 1.375 1_655 S
C2855 C2860 1.490 . S
C2856 H2846 0.953 . S
C2856 C2855 1.375 1_455 S
C2856 C2859 1.384 . S
H2857 C2873 0.930 1_455 S
H2858 C2874 0.909 1_455 S
C2859 H2847 0.970 . S
C2859 C2853 1.354 1_455 S
C2859 C2856 1.384 . S
C2860 C2855 1.490 . S
C2860 C2862 1.395 . S
C2860 C2863 1.403 1_655 S
H2861 C2867 0.930 . S
C2862 H2848 0.930 . S
C2862 C2860 1.395 . S
C2862 C2865 1.403 . S
C2863 C2860 1.403 1_455 S
C2863 C2864 1.524 . S
C2863 C2867 1.400 . S
C2864 H2849 0.960 . S
C2864 H2850 0.960 . S
C2864 H2851 0.960 . S
C2864 C2863 1.524 . S
C2865 C2862 1.403 . S
C2865 C2866 1.392 . S
C2865 C2869 1.495 . S
C2866 C2865 1.392 . S
C2866 C2867 1.385 1_655 S
C2866 C2868 1.478 . S
C2867 H2861 0.930 . S
C2867 C2863 1.400 . S
C2867 C2866 1.385 1_455 S
C2868 C2866 1.478 . S
C2868 C2870 1.381 . S
C2868 C2874 1.383 . S
C2869 C2865 1.495 . S
C2869 H2875 0.959 . S
C2869 H2876 0.961 . S
C2869 H2877 0.960 . S
C2870 C2868 1.381 . S
C2870 C2871 1.394 . S
C2870 H2878 0.930 . S
C2871 C2870 1.394 . S
C2871 C2872 1.383 . S
C2871 H2879 0.929 . S
C2872 C2871 1.383 . S
C2872 C2873 1.377 . S
C2873 H2857 0.930 1_655 S
C2873 C2872 1.377 . S
C2873 C2874 1.379 . S
C2874 H2858 0.909 1_655 S
C2874 C2868 1.383 . S
C2874 C2873 1.379 . S
H2875 C2869 0.959 . S
H2876 C2869 0.961 . S
H2877 C2869 0.960 . S
H2878 C2870 0.930 . S
H2879 C2871 0.929 . S
H2880 C2888 0.929 . S
H2881 C2890 0.930 . S
H2882 C2892 0.930 . S
H2883 C2895 0.929 . S
H2884 C2898 0.930 . S
H2885 C2900 0.960 . S
H2886 C2900 0.960 . S
H2887 C2900 0.960 . S
C2888 H2880 0.929 . S
C2888 C2889 1.377 . S
C2888 C2890 1.384 . S
C2889 C2888 1.377 . S
C2889 C2895 1.390 . S
C2890 H2881 0.930 . S
C2890 C2888 1.384 . S
C2890 C2891 1.372 . S
C2891 C2890 1.372 . S
C2891 C2892 1.400 . S
C2891 C2896 1.490 . S
C2892 H2882 0.930 . S
C2892 C2891 1.400 . S
C2892 C2895 1.386 . S
H2893 C2909 0.930 . S
H2894 C2910 0.931 . S
C2895 H2883 0.929 . S
C2895 C2889 1.390 . S
C2895 C2892 1.386 . S
C2896 C2891 1.490 . S
C2896 C2898 1.395 . S
C2896 C2899 1.403 . S
H2897 C2903 0.930 . S
C2898 H2884 0.930 . S
C2898 C2896 1.395 . S
C2898 C2901 1.403 . S
C2899 C2896 1.403 . S
C2899 C2900 1.524 . S
C2899 C2903 1.400 . S
C2900 H2885 0.960 . S
C2900 H2886 0.960 . S
C2900 H2887 0.960 . S
C2900 C2899 1.524 . S
C2901 C2898 1.403 . S
C2901 C2902 1.392 . S
C2901 C2905 1.495 . S
C2902 C2901 1.392 . S
C2902 C2903 1.385 . S
C2902 C2904 1.478 . S
C2903 H2897 0.930 . S
C2903 C2899 1.400 . S
C2903 C2902 1.385 . S
C2904 C2902 1.478 . S
C2904 C2906 1.381 . S
C2904 C2910 1.383 . S
C2905 C2901 1.495 . S
C2905 H2911 0.959 . S
C2905 H2912 0.961 . S
C2905 H2913 0.960 . S
C2906 C2904 1.381 . S
C2906 C2907 1.394 . S
C2906 H2914 0.930 . S
C2907 C2906 1.394 . S
C2907 C2908 1.383 . S
C2907 H2915 0.929 . S
C2908 C2907 1.383 . S
C2908 C2909 1.377 . S
C2909 H2893 0.930 . S
C2909 C2908 1.377 . S
C2909 C2910 1.379 . S
C2910 H2894 0.931 . S
C2910 C2904 1.383 . S
C2910 C2909 1.379 . S
H2911 C2905 0.959 . S
H2912 C2905 0.961 . S
H2913 C2905 0.960 . S
H2914 C2906 0.930 . S
H2915 C2907 0.929 . S
H2916 C2924 0.929 . S
H2917 C2926 0.930 . S
H2918 C2928 0.930 . S
H2919 C2931 0.929 . S
H2920 C2934 0.930 . S
H2921 C2936 0.960 . S
H2922 C2936 0.960 . S
H2923 C2936 0.960 . S
C2924 H2916 0.929 . S
C2924 C2925 1.377 . S
C2924 C2926 1.384 . S
C2925 C2924 1.377 . S
C2925 C2931 1.390 . S
C2926 H2917 0.930 . S
C2926 C2924 1.384 . S
C2926 C2927 1.372 . S
C2927 C2926 1.372 . S
C2927 C2928 1.400 . S
C2927 C2932 1.490 . S
C2928 H2918 0.930 . S
C2928 C2927 1.400 . S
C2928 C2931 1.386 . S
H2929 C2945 0.930 . S
H2930 C2946 0.931 . S
C2931 H2919 0.929 . S
C2931 C2925 1.390 . S
C2931 C2928 1.386 . S
C2932 C2927 1.490 . S
C2932 C2934 1.395 . S
C2932 C2935 1.403 . S
H2933 C2939 0.930 . S
C2934 H2920 0.930 . S
C2934 C2932 1.395 . S
C2934 C2937 1.403 . S
C2935 C2932 1.403 . S
C2935 C2936 1.524 . S
C2935 C2939 1.400 . S
C2936 H2921 0.960 . S
C2936 H2922 0.960 . S
C2936 H2923 0.960 . S
C2936 C2935 1.524 . S
C2937 C2934 1.403 . S
C2937 C2938 1.392 . S
C2937 C2941 1.495 . S
C2938 C2937 1.392 . S
C2938 C2939 1.385 . S
C2938 C2940 1.478 . S
C2939 H2933 0.930 . S
C2939 C2935 1.400 . S
C2939 C2938 1.385 . S
C2940 C2938 1.478 . S
C2940 C2942 1.381 1_545 S
C2940 C2946 1.383 . S
C2941 C2937 1.495 . S
C2941 H2947 0.959 . S
C2941 H2948 0.961 . S
C2941 H2949 0.960 1_545 S
C2942 C2940 1.381 1_565 S
C2942 C2943 1.394 . S
C2942 H2950 0.930 . S
C2943 C2942 1.394 . S
C2943 C2944 1.383 1_565 S
C2943 H2951 0.929 . S
C2944 C2943 1.383 1_545 S
C2944 C2945 1.377 . S
C2945 H2929 0.930 . S
C2945 C2944 1.377 . S
C2945 C2946 1.379 . S
C2946 H2930 0.931 . S
C2946 C2940 1.383 . S
C2946 C2945 1.379 . S
H2947 C2941 0.959 . S
H2948 C2941 0.961 . S
H2949 C2941 0.960 1_565 S
H2950 C2942 0.930 . S
H2951 C2943 0.929 . S
H2952 C2960 0.929 . S
H2953 C2962 0.930 . S
H2954 C2964 0.930 . S
H2955 C2967 0.929 . S
H2956 C2970 0.930 . S
H2957 C2972 0.960 . S
H2958 C2972 0.960 . S
H2959 C2972 0.960 . S
C2960 H2952 0.929 . S
C2960 C2961 1.377 . S
C2960 C2962 1.384 . S
C2961 C2960 1.377 . S
C2961 C2967 1.390 . S
C2962 H2953 0.930 . S
C2962 C2960 1.384 . S
C2962 C2963 1.372 . S
C2963 C2962 1.372 . S
C2963 C2964 1.400 . S
C2963 C2968 1.490 . S
C2964 H2954 0.930 . S
C2964 C2963 1.400 . S
C2964 C2967 1.386 . S
H2965 C2981 0.930 . S
H2966 C2982 0.931 . S
C2967 H2955 0.929 . S
C2967 C2961 1.390 . S
C2967 C2964 1.386 . S
C2968 C2963 1.490 . S
C2968 C2970 1.395 . S
C2968 C2971 1.403 . S
H2969 C2975 0.930 . S
C2970 H2956 0.930 . S
C2970 C2968 1.395 . S
C2970 C2973 1.403 . S
C2971 C2968 1.403 . S
C2971 C2972 1.524 . S
C2971 C2975 1.400 . S
C2972 H2957 0.960 . S
C2972 H2958 0.960 . S
C2972 H2959 0.960 . S
C2972 C2971 1.524 . S
C2973 C2970 1.403 . S
C2973 C2974 1.392 . S
C2973 C2977 1.495 . S
C2974 C2973 1.392 . S
C2974 C2975 1.385 . S
C2974 C2976 1.478 . S
C2975 H2969 0.930 . S
C2975 C2971 1.400 . S
C2975 C2974 1.385 . S
C2976 C2974 1.478 . S
C2976 C2978 1.381 . S
C2976 C2982 1.383 . S
C2977 C2973 1.495 . S
C2977 H2983 0.959 . S
C2977 H2984 0.961 . S
C2977 H2985 0.960 . S
C2978 C2976 1.381 . S
C2978 C2979 1.394 . S
C2978 H2986 0.930 . S
C2979 C2978 1.394 . S
C2979 C2980 1.383 . S
C2979 H2987 0.929 . S
C2980 C2979 1.383 . S
C2980 C2981 1.377 . S
C2981 H2965 0.930 . S
C2981 C2980 1.377 . S
C2981 C2982 1.379 . S
C2982 H2966 0.931 . S
C2982 C2976 1.383 . S
C2982 C2981 1.379 . S
H2983 C2977 0.959 . S
H2984 C2977 0.961 . S
H2985 C2977 0.960 . S
H2986 C2978 0.930 . S
H2987 C2979 0.929 . S
H2988 C2996 0.929 . S
H2989 C2998 0.930 . S
H2990 C3000 0.930 . S
H2991 C3003 0.929 . S
H2992 C3006 0.930 . S
H2993 C3008 0.960 . S
H2994 C3008 0.960 . S
H2995 C3008 0.960 . S
C2996 H2988 0.929 . S
C2996 C2997 1.377 . S
C2996 C2998 1.384 . S
C2997 C2996 1.377 . S
C2997 C3003 1.390 . S
C2998 H2989 0.930 . S
C2998 C2996 1.384 . S
C2998 C2999 1.372 . S
C2999 C2998 1.372 . S
C2999 C3000 1.400 . S
C2999 C3004 1.490 . S
C3000 H2990 0.930 . S
C3000 C2999 1.400 . S
C3000 C3003 1.386 . S
H3001 C3017 0.930 . S
H3002 C3018 0.931 . S
C3003 H2991 0.929 . S
C3003 C2997 1.390 . S
C3003 C3000 1.386 . S
C3004 C2999 1.490 . S
C3004 C3006 1.395 . S
C3004 C3007 1.403 . S
H3005 C3011 0.930 . S
C3006 H2992 0.930 . S
C3006 C3004 1.395 . S
C3006 C3009 1.403 . S
C3007 C3004 1.403 . S
C3007 C3008 1.524 . S
C3007 C3011 1.400 . S
C3008 H2993 0.960 . S
C3008 H2994 0.960 . S
C3008 H2995 0.960 . S
C3008 C3007 1.524 . S
C3009 C3006 1.403 . S
C3009 C3010 1.392 . S
C3009 C3013 1.495 . S
C3010 C3009 1.392 . S
C3010 C3011 1.385 . S
C3010 C3012 1.478 . S
C3011 H3005 0.930 . S
C3011 C3007 1.400 . S
C3011 C3010 1.385 . S
C3012 C3010 1.478 . S
C3012 C3014 1.381 . S
C3012 C3018 1.383 . S
C3013 C3009 1.495 . S
C3013 H3019 0.959 . S
C3013 H3020 0.961 . S
C3013 H3021 0.960 . S
C3014 C3012 1.381 . S
C3014 C3015 1.394 . S
C3014 H3022 0.930 . S
C3015 C3014 1.394 . S
C3015 C3016 1.383 . S
C3015 H3023 0.929 . S
C3016 C3015 1.383 . S
C3016 C3017 1.377 . S
C3017 H3001 0.930 . S
C3017 C3016 1.377 . S
C3017 C3018 1.379 . S
C3018 H3002 0.931 . S
C3018 C3012 1.383 . S
C3018 C3017 1.379 . S
H3019 C3013 0.959 . S
H3020 C3013 0.961 . S
H3021 C3013 0.960 . S
H3022 C3014 0.930 . S
H3023 C3015 0.929 . S
H3024 C3032 0.929 . S
H3025 C3034 0.930 . S
H3026 C3036 0.930 . S
H3027 C3039 0.929 . S
H3028 C3042 0.930 . S
H3029 C3044 0.960 . S
H3030 C3044 0.960 . S
H3031 C3044 0.960 . S
C3032 H3024 0.929 . S
C3032 C3033 1.377 . S
C3032 C3034 1.384 . S
C3033 C3032 1.377 . S
C3033 C3039 1.390 . S
C3034 H3025 0.930 . S
C3034 C3032 1.384 . S
C3034 C3035 1.372 . S
C3035 C3034 1.372 . S
C3035 C3036 1.400 . S
C3035 C3040 1.490 . S
C3036 H3026 0.930 . S
C3036 C3035 1.400 . S
C3036 C3039 1.386 . S
H3037 C3053 0.930 . S
H3038 C3054 0.931 . S
C3039 H3027 0.929 . S
C3039 C3033 1.390 . S
C3039 C3036 1.386 . S
C3040 C3035 1.490 . S
C3040 C3042 1.395 . S
C3040 C3043 1.403 . S
H3041 C3047 0.930 . S
C3042 H3028 0.930 . S
C3042 C3040 1.395 . S
C3042 C3045 1.403 . S
C3043 C3040 1.403 . S
C3043 C3044 1.524 . S
C3043 C3047 1.400 . S
C3044 H3029 0.960 . S
C3044 H3030 0.960 . S
C3044 H3031 0.960 . S
C3044 C3043 1.524 . S
C3045 C3042 1.403 . S
C3045 C3046 1.392 . S
C3045 C3049 1.495 . S
C3046 C3045 1.392 . S
C3046 C3047 1.385 . S
C3046 C3048 1.478 . S
C3047 H3041 0.930 . S
C3047 C3043 1.400 . S
C3047 C3046 1.385 . S
C3048 C3046 1.478 . S
C3048 C3050 1.381 . S
C3048 C3054 1.383 . S
C3049 C3045 1.495 . S
C3049 H3055 0.959 . S
C3049 H3056 0.961 . S
C3049 H3057 0.960 . S
C3050 C3048 1.381 . S
C3050 C3051 1.394 . S
C3050 H3058 0.930 . S
C3051 C3050 1.394 . S
C3051 C3052 1.383 . S
C3051 H3059 0.929 . S
C3052 C3051 1.383 . S
C3052 C3053 1.377 . S
C3053 H3037 0.930 . S
C3053 C3052 1.377 . S
C3053 C3054 1.379 . S
C3054 H3038 0.931 . S
C3054 C3048 1.383 . S
C3054 C3053 1.379 . S
H3055 C3049 0.959 . S
H3056 C3049 0.961 . S
H3057 C3049 0.960 . S
H3058 C3050 0.930 . S
H3059 C3051 0.929 . S
H3060 C3068 0.929 . S
H3061 C3070 0.930 . S
H3062 C3072 0.930 . S
H3063 C3075 0.929 . S
H3064 C3078 0.930 . S
H3065 C3080 0.960 . S
H3066 C3080 0.960 . S
H3067 C3080 0.960 . S
C3068 H3060 0.929 . S
C3068 C3069 1.377 . S
C3068 C3070 1.384 . S
C3069 C3068 1.377 . S
C3069 C3075 1.390 . S
C3070 H3061 0.930 . S
C3070 C3068 1.384 . S
C3070 C3071 1.372 . S
C3071 C3070 1.372 . S
C3071 C3072 1.400 . S
C3071 C3076 1.490 . S
C3072 H3062 0.930 . S
C3072 C3071 1.400 . S
C3072 C3075 1.386 . S
H3073 C3089 0.930 . S
H3074 C3090 0.931 . S
C3075 H3063 0.929 . S
C3075 C3069 1.390 . S
C3075 C3072 1.386 . S
C3076 C3071 1.490 . S
C3076 C3078 1.395 . S
C3076 C3079 1.403 . S
H3077 C3083 0.930 . S
C3078 H3064 0.930 . S
C3078 C3076 1.395 . S
C3078 C3081 1.403 . S
C3079 C3076 1.403 . S
C3079 C3080 1.524 . S
C3079 C3083 1.400 . S
C3080 H3065 0.960 . S
C3080 H3066 0.960 . S
C3080 H3067 0.960 . S
C3080 C3079 1.524 . S
C3081 C3078 1.403 . S
C3081 C3082 1.392 . S
C3081 C3085 1.495 . S
C3082 C3081 1.392 . S
C3082 C3083 1.385 . S
C3082 C3084 1.478 . S
C3083 H3077 0.930 . S
C3083 C3079 1.400 . S
C3083 C3082 1.385 . S
C3084 C3082 1.478 . S
C3084 C3086 1.381 . S
C3084 C3090 1.383 . S
C3085 C3081 1.495 . S
C3085 H3091 0.959 . S
C3085 H3092 0.961 . S
C3085 H3093 0.960 . S
C3086 C3084 1.381 . S
C3086 C3087 1.394 . S
C3086 H3094 0.930 . S
C3087 C3086 1.394 . S
C3087 C3088 1.383 . S
C3087 H3095 0.929 . S
C3088 C3087 1.383 . S
C3088 C3089 1.377 . S
C3089 H3073 0.930 . S
C3089 C3088 1.377 . S
C3089 C3090 1.379 . S
C3090 H3074 0.931 . S
C3090 C3084 1.383 . S
C3090 C3089 1.379 . S
H3091 C3085 0.959 . S
H3092 C3085 0.961 . S
H3093 C3085 0.960 . S
H3094 C3086 0.930 . S
H3095 C3087 0.929 . S
H3096 C3104 0.929 . S
H3097 C3106 0.930 . S
H3098 C3108 0.930 . S
H3099 C3111 0.929 . S
H3100 C3114 0.930 . S
H3101 C3116 0.960 . S
H3102 C3116 0.960 . S
H3103 C3116 0.960 . S
C3104 H3096 0.929 . S
C3104 C3105 1.377 . S
C3104 C3106 1.384 . S
C3105 C3104 1.377 . S
C3105 C3111 1.390 . S
C3106 H3097 0.930 . S
C3106 C3104 1.384 . S
C3106 C3107 1.372 . S
C3107 C3106 1.372 . S
C3107 C3108 1.400 . S
C3107 C3112 1.490 . S
C3108 H3098 0.930 . S
C3108 C3107 1.400 . S
C3108 C3111 1.386 . S
H3109 C3125 0.930 . S
H3110 C3126 0.931 . S
C3111 H3099 0.929 . S
C3111 C3105 1.390 . S
C3111 C3108 1.386 . S
C3112 C3107 1.490 . S
C3112 C3114 1.395 . S
C3112 C3115 1.403 . S
H3113 C3119 0.930 . S
C3114 H3100 0.930 . S
C3114 C3112 1.395 . S
C3114 C3117 1.403 . S
C3115 C3112 1.403 . S
C3115 C3116 1.524 . S
C3115 C3119 1.400 . S
C3116 H3101 0.960 . S
C3116 H3102 0.960 . S
C3116 H3103 0.960 . S
C3116 C3115 1.524 . S
C3117 C3114 1.403 . S
C3117 C3118 1.392 . S
C3117 C3121 1.495 . S
C3118 C3117 1.392 . S
C3118 C3119 1.385 . S
C3118 C3120 1.478 . S
C3119 H3113 0.930 . S
C3119 C3115 1.400 . S
C3119 C3118 1.385 . S
C3120 C3118 1.478 . S
C3120 C3122 1.381 . S
C3120 C3126 1.383 . S
C3121 C3117 1.495 . S
C3121 H3127 0.959 . S
C3121 H3128 0.961 . S
C3121 H3129 0.960 . S
C3122 C3120 1.381 . S
C3122 C3123 1.394 . S
C3122 H3130 0.930 . S
C3123 C3122 1.394 . S
C3123 C3124 1.383 . S
C3123 H3131 0.929 . S
C3124 C3123 1.383 . S
C3124 C3125 1.377 . S
C3125 H3109 0.930 . S
C3125 C3124 1.377 . S
C3125 C3126 1.379 . S
C3126 H3110 0.931 . S
C3126 C3120 1.383 . S
C3126 C3125 1.379 . S
H3127 C3121 0.959 . S
H3128 C3121 0.961 . S
H3129 C3121 0.960 . S
H3130 C3122 0.930 . S
H3131 C3123 0.929 . S
H3132 C3140 0.929 . S
H3133 C3142 0.930 . S
H3134 C3144 0.930 . S
H3135 C3147 0.929 . S
H3136 C3150 0.930 . S
H3137 C3152 0.960 . S
H3138 C3152 0.960 . S
H3139 C3152 0.960 . S
C3140 H3132 0.929 . S
C3140 C3141 1.377 . S
C3140 C3142 1.384 . S
C3141 C3140 1.377 . S
C3141 C3147 1.390 . S
C3142 H3133 0.930 . S
C3142 C3140 1.384 . S
C3142 C3143 1.372 . S
C3143 C3142 1.372 . S
C3143 C3144 1.400 . S
C3143 C3148 1.490 . S
C3144 H3134 0.930 . S
C3144 C3143 1.400 . S
C3144 C3147 1.386 . S
H3145 C3161 0.930 . S
H3146 C3162 0.931 . S
C3147 H3135 0.929 . S
C3147 C3141 1.390 . S
C3147 C3144 1.386 . S
C3148 C3143 1.490 . S
C3148 C3150 1.395 . S
C3148 C3151 1.403 . S
H3149 C3155 0.930 . S
C3150 H3136 0.930 . S
C3150 C3148 1.395 . S
C3150 C3153 1.403 . S
C3151 C3148 1.403 . S
C3151 C3152 1.524 . S
C3151 C3155 1.400 . S
C3152 H3137 0.960 . S
C3152 H3138 0.960 . S
C3152 H3139 0.960 . S
C3152 C3151 1.524 . S
C3153 C3150 1.403 . S
C3153 C3154 1.392 . S
C3153 C3157 1.495 . S
C3154 C3153 1.392 . S
C3154 C3155 1.385 . S
C3154 C3156 1.478 . S
C3155 H3149 0.930 . S
C3155 C3151 1.400 . S
C3155 C3154 1.385 . S
C3156 C3154 1.478 . S
C3156 C3158 1.381 . S
C3156 C3162 1.383 . S
C3157 C3153 1.495 . S
C3157 H3163 0.959 . S
C3157 H3164 0.961 . S
C3157 H3165 0.960 . S
C3158 C3156 1.381 . S
C3158 C3159 1.394 . S
C3158 H3166 0.930 . S
C3159 C3158 1.394 . S
C3159 C3160 1.383 . S
C3159 H3167 0.929 . S
C3160 C3159 1.383 . S
C3160 C3161 1.377 . S
C3161 H3145 0.930 . S
C3161 C3160 1.377 . S
C3161 C3162 1.379 . S
C3162 H3146 0.931 . S
C3162 C3156 1.383 . S
C3162 C3161 1.379 . S
H3163 C3157 0.959 . S
H3164 C3157 0.961 . S
H3165 C3157 0.960 . S
H3166 C3158 0.930 . S
H3167 C3159 0.929 . S
H3168 C3176 0.929 . S
H3169 C3178 0.930 . S
H3170 C3180 0.930 . S
H3171 C3183 0.929 . S
H3172 C3186 0.930 . S
H3173 C3188 0.960 . S
H3174 C3188 0.960 . S
H3175 C3188 0.960 . S
C3176 H3168 0.929 . S
C3176 C3177 1.377 . S
C3176 C3178 1.384 . S
C3177 C3176 1.377 . S
C3177 C3183 1.390 . S
C3178 H3169 0.930 . S
C3178 C3176 1.384 . S
C3178 C3179 1.372 . S
C3179 C3178 1.372 . S
C3179 C3180 1.400 . S
C3179 C3184 1.490 . S
C3180 H3170 0.930 . S
C3180 C3179 1.400 . S
C3180 C3183 1.386 . S
H3181 C3197 0.930 . S
H3182 C3198 0.931 . S
C3183 H3171 0.929 . S
C3183 C3177 1.390 . S
C3183 C3180 1.386 . S
C3184 C3179 1.490 . S
C3184 C3186 1.395 . S
C3184 C3187 1.403 . S
H3185 C3191 0.930 . S
C3186 H3172 0.930 . S
C3186 C3184 1.395 . S
C3186 C3189 1.403 . S
C3187 C3184 1.403 . S
C3187 C3188 1.524 . S
C3187 C3191 1.400 . S
C3188 H3173 0.960 . S
C3188 H3174 0.960 . S
C3188 H3175 0.960 . S
C3188 C3187 1.524 . S
C3189 C3186 1.403 . S
C3189 C3190 1.392 . S
C3189 C3193 1.495 . S
C3190 C3189 1.392 . S
C3190 C3191 1.385 . S
C3190 C3192 1.478 . S
C3191 H3185 0.930 . S
C3191 C3187 1.400 . S
C3191 C3190 1.385 . S
C3192 C3190 1.478 . S
C3192 C3194 1.381 . S
C3192 C3198 1.383 . S
C3193 C3189 1.495 . S
C3193 H3199 0.959 . S
C3193 H3200 0.961 . S
C3193 H3201 0.960 . S
C3194 C3192 1.381 . S
C3194 C3195 1.394 . S
C3194 H3202 0.930 . S
C3195 C3194 1.394 . S
C3195 C3196 1.383 . S
C3195 H3203 0.929 . S
C3196 C3195 1.383 . S
C3196 C3197 1.377 . S
C3197 H3181 0.930 . S
C3197 C3196 1.377 . S
C3197 C3198 1.379 . S
C3198 H3182 0.931 . S
C3198 C3192 1.383 . S
C3198 C3197 1.379 . S
H3199 C3193 0.959 . S
H3200 C3193 0.961 . S
H3201 C3193 0.960 . S
H3202 C3194 0.930 . S
H3203 C3195 0.929 . S
H3204 C3212 0.929 . S
H3205 C3214 0.930 . S
H3206 C3216 0.930 . S
H3207 C3219 0.929 . S
H3208 C3222 0.930 . S
H3209 C3224 0.960 . S
H3210 C3224 0.960 . S
H3211 C3224 0.960 . S
C3212 H3204 0.929 . S
C3212 C3213 1.377 . S
C3212 C3214 1.384 . S
C3213 C3212 1.377 . S
C3213 C3219 1.390 . S
C3214 H3205 0.930 . S
C3214 C3212 1.384 . S
C3214 C3215 1.372 . S
C3215 C3214 1.372 . S
C3215 C3216 1.400 . S
C3215 C3220 1.490 . S
C3216 H3206 0.930 . S
C3216 C3215 1.400 . S
C3216 C3219 1.386 . S
H3217 C3233 0.930 . S
H3218 C3234 0.931 . S
C3219 H3207 0.929 . S
C3219 C3213 1.390 . S
C3219 C3216 1.386 . S
C3220 C3215 1.490 . S
C3220 C3222 1.395 . S
C3220 C3223 1.403 . S
H3221 C3227 0.930 . S
C3222 H3208 0.930 . S
C3222 C3220 1.395 . S
C3222 C3225 1.403 . S
C3223 C3220 1.403 . S
C3223 C3224 1.524 . S
C3223 C3227 1.400 . S
C3224 H3209 0.960 . S
C3224 H3210 0.960 . S
C3224 H3211 0.960 . S
C3224 C3223 1.524 . S
C3225 C3222 1.403 . S
C3225 C3226 1.392 . S
C3225 C3229 1.495 . S
C3226 C3225 1.392 . S
C3226 C3227 1.385 . S
C3226 C3228 1.478 . S
C3227 H3221 0.930 . S
C3227 C3223 1.400 . S
C3227 C3226 1.385 . S
C3228 C3226 1.478 . S
C3228 C3230 1.381 . S
C3228 C3234 1.383 . S
C3229 C3225 1.495 . S
C3229 H3235 0.959 . S
C3229 H3236 0.961 . S
C3229 H3237 0.960 . S
C3230 C3228 1.381 . S
C3230 C3231 1.394 . S
C3230 H3238 0.930 . S
C3231 C3230 1.394 . S
C3231 C3232 1.383 . S
C3231 H3239 0.929 . S
C3232 C3231 1.383 . S
C3232 C3233 1.377 . S
C3233 H3217 0.930 . S
C3233 C3232 1.377 . S
C3233 C3234 1.379 . S
C3234 H3218 0.931 . S
C3234 C3228 1.383 . S
C3234 C3233 1.379 . S
H3235 C3229 0.959 . S
H3236 C3229 0.961 . S
H3237 C3229 0.960 . S
H3238 C3230 0.930 . S
H3239 C3231 0.929 . S
H3240 C3248 0.929 . S
H3241 C3250 0.930 . S
H3242 C3252 0.930 . S
H3243 C3255 0.929 . S
H3244 C3258 0.930 . S
H3245 C3260 0.960 . S
H3246 C3260 0.960 . S
H3247 C3260 0.960 . S
C3248 H3240 0.929 . S
C3248 C3249 1.377 . S
C3248 C3250 1.384 . S
C3249 C3248 1.377 . S
C3249 C3255 1.390 . S
C3250 H3241 0.930 . S
C3250 C3248 1.384 . S
C3250 C3251 1.372 . S
C3251 C3250 1.372 . S
C3251 C3252 1.400 . S
C3251 C3256 1.490 . S
C3252 H3242 0.930 . S
C3252 C3251 1.400 . S
C3252 C3255 1.386 . S
H3253 C3269 0.930 . S
H3254 C3270 0.931 . S
C3255 H3243 0.929 . S
C3255 C3249 1.390 . S
C3255 C3252 1.386 . S
C3256 C3251 1.490 . S
C3256 C3258 1.395 . S
C3256 C3259 1.403 . S
H3257 C3263 0.930 . S
C3258 H3244 0.930 . S
C3258 C3256 1.395 . S
C3258 C3261 1.403 . S
C3259 C3256 1.403 . S
C3259 C3260 1.524 . S
C3259 C3263 1.400 . S
C3260 H3245 0.960 . S
C3260 H3246 0.960 . S
C3260 H3247 0.960 . S
C3260 C3259 1.524 . S
C3261 C3258 1.403 . S
C3261 C3262 1.392 . S
C3261 C3265 1.495 . S
C3262 C3261 1.392 . S
C3262 C3263 1.385 . S
C3262 C3264 1.478 . S
C3263 H3257 0.930 . S
C3263 C3259 1.400 . S
C3263 C3262 1.385 . S
C3264 C3262 1.478 . S
C3264 C3266 1.381 . S
C3264 C3270 1.383 . S
C3265 C3261 1.495 . S
C3265 H3271 0.959 . S
C3265 H3272 0.961 . S
C3265 H3273 0.960 . S
C3266 C3264 1.381 . S
C3266 C3267 1.394 . S
C3266 H3274 0.930 . S
C3267 C3266 1.394 . S
C3267 C3268 1.383 . S
C3267 H3275 0.929 . S
C3268 C3267 1.383 . S
C3268 C3269 1.377 . S
C3269 H3253 0.930 . S
C3269 C3268 1.377 . S
C3269 C3270 1.379 . S
C3270 H3254 0.931 . S
C3270 C3264 1.383 . S
C3270 C3269 1.379 . S
H3271 C3265 0.959 . S
H3272 C3265 0.961 . S
H3273 C3265 0.960 . S
H3274 C3266 0.930 . S
H3275 C3267 0.929 . S
H3276 C3284 0.929 . S
H3277 C3286 0.930 . S
H3278 C3288 0.930 . S
H3279 C3291 0.929 . S
H3280 C3294 0.930 . S
H3281 C3296 0.960 . S
H3282 C3296 0.960 . S
H3283 C3296 0.960 . S
C3284 H3276 0.929 . S
C3284 C3285 1.377 . S
C3284 C3286 1.384 . S
C3285 C3284 1.377 . S
C3285 C3291 1.390 . S
C3286 H3277 0.930 . S
C3286 C3284 1.384 . S
C3286 C3287 1.372 . S
C3287 C3286 1.372 . S
C3287 C3288 1.400 . S
C3287 C3292 1.490 . S
C3288 H3278 0.930 . S
C3288 C3287 1.400 . S
C3288 C3291 1.386 . S
H3289 C3305 0.930 . S
H3290 C3306 0.931 . S
C3291 H3279 0.929 . S
C3291 C3285 1.390 . S
C3291 C3288 1.386 . S
C3292 C3287 1.490 . S
C3292 C3294 1.395 . S
C3292 C3295 1.403 . S
H3293 C3299 0.930 . S
C3294 H3280 0.930 . S
C3294 C3292 1.395 . S
C3294 C3297 1.403 . S
C3295 C3292 1.403 . S
C3295 C3296 1.524 . S
C3295 C3299 1.400 . S
C3296 H3281 0.960 . S
C3296 H3282 0.960 . S
C3296 H3283 0.960 . S
C3296 C3295 1.524 . S
C3297 C3294 1.403 . S
C3297 C3298 1.392 . S
C3297 C3301 1.495 . S
C3298 C3297 1.392 . S
C3298 C3299 1.385 . S
C3298 C3300 1.478 . S
C3299 H3293 0.930 . S
C3299 C3295 1.400 . S
C3299 C3298 1.385 . S
C3300 C3298 1.478 . S
C3300 C3302 1.381 . S
C3300 C3306 1.383 . S
C3301 C3297 1.495 . S
C3301 H3307 0.959 . S
C3301 H3308 0.961 . S
C3301 H3309 0.960 . S
C3302 C3300 1.381 . S
C3302 C3303 1.394 . S
C3302 H3310 0.930 . S
C3303 C3302 1.394 . S
C3303 C3304 1.383 . S
C3303 H3311 0.929 . S
C3304 C3303 1.383 . S
C3304 C3305 1.377 . S
C3305 H3289 0.930 . S
C3305 C3304 1.377 . S
C3305 C3306 1.379 . S
C3306 H3290 0.931 . S
C3306 C3300 1.383 . S
C3306 C3305 1.379 . S
H3307 C3301 0.959 . S
H3308 C3301 0.961 . S
H3309 C3301 0.960 . S
H3310 C3302 0.930 . S
H3311 C3303 0.929 . S
H3312 C3320 0.929 . S
H3313 C3322 0.930 . S
H3314 C3324 0.930 . S
H3315 C3327 0.929 . S
H3316 C3330 0.930 . S
H3317 C3332 0.960 . S
H3318 C3332 0.960 . S
H3319 C3332 0.960 . S
C3320 H3312 0.929 . S
C3320 C3321 1.377 . S
C3320 C3322 1.384 . S
C3321 C3320 1.377 . S
C3321 C3327 1.390 . S
C3322 H3313 0.930 . S
C3322 C3320 1.384 . S
C3322 C3323 1.372 . S
C3323 C3322 1.372 . S
C3323 C3324 1.400 . S
C3323 C3328 1.490 . S
C3324 H3314 0.930 . S
C3324 C3323 1.400 . S
C3324 C3327 1.386 . S
H3325 C3341 0.930 . S
H3326 C3342 0.931 . S
C3327 H3315 0.929 . S
C3327 C3321 1.390 . S
C3327 C3324 1.386 . S
C3328 C3323 1.490 . S
C3328 C3330 1.395 . S
C3328 C3331 1.403 . S
H3329 C3335 0.930 . S
C3330 H3316 0.930 . S
C3330 C3328 1.395 . S
C3330 C3333 1.403 . S
C3331 C3328 1.403 . S
C3331 C3332 1.524 . S
C3331 C3335 1.400 . S
C3332 H3317 0.960 . S
C3332 H3318 0.960 . S
C3332 H3319 0.960 . S
C3332 C3331 1.524 . S
C3333 C3330 1.403 . S
C3333 C3334 1.392 . S
C3333 C3337 1.495 . S
C3334 C3333 1.392 . S
C3334 C3335 1.385 . S
C3334 C3336 1.478 . S
C3335 H3329 0.930 . S
C3335 C3331 1.400 . S
C3335 C3334 1.385 . S
C3336 C3334 1.478 . S
C3336 C3338 1.381 . S
C3336 C3342 1.383 . S
C3337 C3333 1.495 . S
C3337 H3343 0.959 . S
C3337 H3344 0.961 . S
C3337 H3345 0.960 . S
C3338 C3336 1.381 . S
C3338 C3339 1.394 . S
C3338 H3346 0.930 . S
C3339 C3338 1.394 . S
C3339 C3340 1.383 . S
C3339 H3347 0.929 . S
C3340 C3339 1.383 . S
C3340 C3341 1.377 . S
C3341 H3325 0.930 . S
C3341 C3340 1.377 . S
C3341 C3342 1.379 . S
C3342 H3326 0.931 . S
C3342 C3336 1.383 . S
C3342 C3341 1.379 . S
H3343 C3337 0.959 . S
H3344 C3337 0.961 . S
H3345 C3337 0.960 . S
H3346 C3338 0.930 . S
H3347 C3339 0.929 . S
H3348 C3356 0.929 . S
H3349 C3358 0.930 . S
H3350 C3360 0.930 . S
H3351 C3363 0.929 . S
H3352 C3366 0.930 . S
H3353 C3368 0.960 . S
H3354 C3368 0.960 . S
H3355 C3368 0.960 . S
C3356 H3348 0.929 . S
C3356 C3357 1.377 . S
C3356 C3358 1.384 . S
C3357 C3356 1.377 . S
C3357 C3363 1.390 . S
C3358 H3349 0.930 . S
C3358 C3356 1.384 . S
C3358 C3359 1.372 . S
C3359 C3358 1.372 . S
C3359 C3360 1.400 . S
C3359 C3364 1.490 . S
C3360 H3350 0.930 . S
C3360 C3359 1.400 . S
C3360 C3363 1.386 . S
H3361 C3377 0.930 . S
H3362 C3378 0.931 . S
C3363 H3351 0.929 . S
C3363 C3357 1.390 . S
C3363 C3360 1.386 . S
C3364 C3359 1.490 . S
C3364 C3366 1.395 . S
C3364 C3367 1.403 . S
H3365 C3371 0.930 . S
C3366 H3352 0.930 . S
C3366 C3364 1.395 . S
C3366 C3369 1.403 . S
C3367 C3364 1.403 . S
C3367 C3368 1.524 . S
C3367 C3371 1.400 . S
C3368 H3353 0.960 . S
C3368 H3354 0.960 . S
C3368 H3355 0.960 . S
C3368 C3367 1.524 . S
C3369 C3366 1.403 . S
C3369 C3370 1.392 . S
C3369 C3373 1.495 . S
C3370 C3369 1.392 . S
C3370 C3371 1.385 . S
C3370 C3372 1.478 . S
C3371 H3365 0.930 . S
C3371 C3367 1.400 . S
C3371 C3370 1.385 . S
C3372 C3370 1.478 . S
C3372 C3374 1.381 . S
C3372 C3378 1.383 . S
C3373 C3369 1.495 . S
C3373 H3379 0.959 . S
C3373 H3380 0.961 . S
C3373 H3381 0.960 . S
C3374 C3372 1.381 . S
C3374 C3375 1.394 . S
C3374 H3382 0.930 . S
C3375 C3374 1.394 . S
C3375 C3376 1.383 . S
C3375 H3383 0.929 . S
C3376 C3375 1.383 . S
C3376 C3377 1.377 . S
C3377 H3361 0.930 . S
C3377 C3376 1.377 . S
C3377 C3378 1.379 . S
C3378 H3362 0.931 . S
C3378 C3372 1.383 . S
C3378 C3377 1.379 . S
H3379 C3373 0.959 . S
H3380 C3373 0.961 . S
H3381 C3373 0.960 . S
H3382 C3374 0.930 . S
H3383 C3375 0.929 . S
C1449 C781 1.640 . S
C1468 C1089 1.630 . S
C1485 C871 1.769 . S
C1504 C1129 1.776 . S
C1521 C751 1.672 . S
C1540 C1168 1.692 . S
C1557 C691 1.509 . S
C1576 C1128 1.533 . S
C1612 C1169 1.403 . S
C1593 C571 1.381 . S
C1629 C601 1.334 . S
C1648 C1088 1.324 . S
C1684 C1099 1.597 . S
C1665 C661 1.582 . S
C1720 C1139 1.788 . S
C1701 C541 1.762 . S
C1737 C631 1.744 . S
C1756 C1178 1.695 . S
C1773 C811 1.551 . S
C1792 C1138 1.539 . S
C1809 C841 1.402 . S
C1828 C1179 1.410 . S
C1864 C1098 1.330 . S
C1845 C721 1.292 . S
C1900 C1209 1.639 . S
C1881 C61 1.641 . S
C1917 C151 1.773 . S
C1936 C1249 1.798 . S
C1953 C31 1.681 . S
C1972 C1288 1.711 . S
C1989 C1051 1.498 . S
C2008 C1248 1.499 . S
C2025 C931 1.376 . S
C2044 C1289 1.392 . S
C2061 C961 1.343 . S
C2080 C1208 1.367 . S
C2097 C1021 1.593 . S
C2116 C1219 1.639 . S
C2133 C901 1.750 . S
C2152 C1259 1.782 . S
C2188 C1298 1.687 . S
C2169 C991 1.745 . S
C2205 C91 1.554 . S
C2224 C1258 1.501 . S
C2260 C1299 1.422 . S
C2241 C121 1.404 . S
C2277 C1 1.281 . S
C2296 C1218 1.331 . S
C2332 C1329 1.598 . S
C2313 C421 1.646 . S
C2349 C511 1.771 . S
C2368 C1369 1.794 . S
C2404 C1408 1.726 . S
C2385 C391 1.682 . S
C2440 C1368 1.509 . S
C2421 C331 1.505 . S
C2476 C1409 1.406 . S
C2457 C211 1.382 . S
C2493 C241 1.334 . S
C2512 C1328 1.336 . S
C2529 C301 1.583 . S
C2548 C1339 1.598 . S
C2565 C181 1.753 . S
C2584 C1379 1.791 . S
C2620 C1418 1.703 . S
C2601 C271 1.743 . S
C2637 C451 1.552 . S
C2656 C1378 1.512 . S
C2673 C481 1.401 . S
C2692 C1419 1.407 . S
C2709 C361 1.289 . S
C2728 C1338 1.330 . S
C2745 C920 1.238 . S
C2764 C1085 1.267 . S
C2800 C1125 1.906 . S
C2781 C980 1.881 . S
C2817 C1040 1.514 . S
C2836 C1175 1.578 . S
C2853 C380 1.834 . S
C2872 C1135 1.903 . S
C2889 C440 1.555 . S
C2908 C1165 1.578 . S
C2944 C1095 1.268 . S
C2925 C500 1.237 . S
C2961 C200 1.247 . S
C2980 C1205 1.254 . S
C2997 C260 1.880 . S
C3016 C1245 1.906 . S
C3033 C320 1.514 . S
C3052 C1295 1.578 . S
C3069 C740 1.826 . S
C3088 C1255 1.894 . S
C3124 C1285 1.578 . S
C3105 C800 1.555 . S
C3141 C860 1.235 . S
C3160 C1215 1.269 . S
C3177 C560 1.247 . S
C3196 C1325 1.251 . S
C3213 C620 1.881 . S
C3232 C1365 1.903 . S
C3268 C1415 1.578 . S
C3249 C680 1.514 . S
C3285 C20 1.831 . S
C3304 C1375 1.899 . S
C3321 C80 1.555 . S
C3340 C1405 1.578 . S
C3357 C140 1.235 . S
C3376 C1335 1.260 . S
