# Generated by pormake.
# Topology zzz, (3,6)-cn, num edge types: 1
# Building blocks:
#     Node 0, Type 0, BuildingBlock: ESEHIV_clean_linker_0, # of connection points: 3
#     Node 1, Type 0, BuildingBlock: ESEHIV_clean_linker_0, # of connection points: 3
#     Node 2, Type 0, BuildingBlock: ESEHIV_clean_linker_0, # of connection points: 3
#     Node 3, Type 0, BuildingBlock: ESEHIV_clean_linker_0, # of connection points: 3
#     Node 4, Type 0, BuildingBlock: ESEHIV_clean_linker_0, # of connection points: 3
#     Node 5, Type 0, BuildingBlock: ESEHIV_clean_linker_0, # of connection points: 3
#     Node 6, Type 0, BuildingBlock: ESEHIV_clean_linker_0, # of connection points: 3
#     Node 7, Type 0, BuildingBlock: ESEHIV_clean_linker_0, # of connection points: 3
#     Node 8, Type 1, BuildingBlock: NUHQIS_clean_sbu_0, # of connection points: 6
#     Node 9, Type 1, BuildingBlock: NUHQIS_clean_sbu_0, # of connection points: 6
#     Node 10, Type 1, BuildingBlock: NUHQIS_clean_sbu_0, # of connection points: 6
#     Node 11, Type 1, BuildingBlock: NUHQIS_clean_sbu_0, # of connection points: 6
#     Edge 12, Type (0, 1), BuildingBlock: AJUNOK_clean_linker_0, # of connection points: 2
#     Edge 13, Type (0, 1), BuildingBlock: AJUNOK_clean_linker_0, # of connection points: 2
#     Edge 14, Type (0, 1), BuildingBlock: AJUNOK_clean_linker_0, # of connection points: 2
#     Edge 15, Type (0, 1), BuildingBlock: AJUNOK_clean_linker_0, # of connection points: 2
#     Edge 16, Type (0, 1), BuildingBlock: AJUNOK_clean_linker_0, # of connection points: 2
#     Edge 17, Type (0, 1), BuildingBlock: AJUNOK_clean_linker_0, # of connection points: 2
#     Edge 18, Type (0, 1), BuildingBlock: AJUNOK_clean_linker_0, # of connection points: 2
#     Edge 19, Type (0, 1), BuildingBlock: AJUNOK_clean_linker_0, # of connection points: 2
#     Edge 20, Type (0, 1), BuildingBlock: AJUNOK_clean_linker_0, # of connection points: 2
#     Edge 21, Type (0, 1), BuildingBlock: AJUNOK_clean_linker_0, # of connection points: 2
#     Edge 22, Type (0, 1), BuildingBlock: AJUNOK_clean_linker_0, # of connection points: 2
#     Edge 23, Type (0, 1), BuildingBlock: AJUNOK_clean_linker_0, # of connection points: 2
#     Edge 24, Type (0, 1), BuildingBlock: AJUNOK_clean_linker_0, # of connection points: 2
#     Edge 25, Type (0, 1), BuildingBlock: AJUNOK_clean_linker_0, # of connection points: 2
#     Edge 26, Type (0, 1), BuildingBlock: AJUNOK_clean_linker_0, # of connection points: 2
#     Edge 27, Type (0, 1), BuildingBlock: AJUNOK_clean_linker_0, # of connection points: 2
#     Edge 28, Type (0, 1), BuildingBlock: AJUNOK_clean_linker_0, # of connection points: 2
#     Edge 29, Type (0, 1), BuildingBlock: AJUNOK_clean_linker_0, # of connection points: 2
#     Edge 30, Type (0, 1), BuildingBlock: AJUNOK_clean_linker_0, # of connection points: 2
#     Edge 31, Type (0, 1), BuildingBlock: AJUNOK_clean_linker_0, # of connection points: 2
#     Edge 32, Type (0, 1), BuildingBlock: AJUNOK_clean_linker_0, # of connection points: 2
#     Edge 33, Type (0, 1), BuildingBlock: AJUNOK_clean_linker_0, # of connection points: 2
#     Edge 34, Type (0, 1), BuildingBlock: AJUNOK_clean_linker_0, # of connection points: 2
#     Edge 35, Type (0, 1), BuildingBlock: AJUNOK_clean_linker_0, # of connection points: 2
# Relax obj value: 0.598
# Max RMSD: 0.236
# Mean RMSD: 0.233
data_MOF--net-zzz--node1-NUHQIS_clean_sbu_0--node2-ESEHIV_clean_linker_0--edge1-AJUNOK_clean_linker_0
_symmetry_space_group_name_H-M    P1
_symmetry_Int_Tables_number       1
_symmetry_cell_setting            triclinic
loop_
_symmetry_equiv_pos_as_xyz
'x, y, z'
_cell_length_a     31.9336
_cell_length_b     32.044493
_cell_length_c     11.041412
_cell_angle_alpha  89.925349
_cell_angle_beta   89.849984
_cell_angle_gamma 89.849979
loop_
_atom_site_label
_atom_site_type_symbol
_atom_site_fract_x
_atom_site_fract_y
_atom_site_fract_z
_atom_type_partial_charge
H0 H 0.83786 0.46007 0.33539 0.0
H1 H 0.71605 0.45877 0.17134 0.0
H2 H 0.75438 0.56399 0.38723 0.0
C3 C 0.80734 0.47415 0.32161 0.0
C4 C 0.79883 0.51214 0.37941 0.0
C5 C 0.77857 0.45539 0.24227 0.0
C6 C 0.7395 0.47426 0.22566 0.0
C7 C 0.73057 0.51398 0.27227 0.0
C8 C 0.7607 0.53341 0.34983 0.0
H9 H 0.1026 0.8422 0.28215 0.0
H10 H 0.087 0.72587 0.10114 0.0
H11 H 1.00668 0.75673 0.40499 0.0
C12 C 0.08683 0.81229 0.27809 0.0
C13 C 0.05471 0.8031 0.36164 0.0
C14 C 0.0984 0.78441 0.18634 0.0
C15 C 0.07799 0.74653 0.1747 0.0
C16 C 0.04477 0.73572 0.25144 0.0
C17 C 0.03238 0.76454 0.3451 0.0
H18 H 0.73828 0.09587 0.4408 0.0
H19 H 0.84482 0.08874 0.20663 0.0
H20 H 0.80212 0.97853 0.39543 0.0
C21 C 0.76493 0.07839 0.40668 0.0
C22 C 0.76809 0.03606 0.43659 0.0
C23 C 0.79193 0.09724 0.3231 0.0
C24 C 0.82452 0.07405 0.27308 0.0
C25 C 0.82905 0.0314 0.29758 0.0
C26 C 0.80017 1.01179 0.37906 0.0
H27 H 0.44137 0.7244 0.39506 0.0
H28 H 0.55747 0.79018 0.36505 0.0
H29 H 0.44691 0.84082 0.20084 0.0
C30 C 0.45771 0.75226 0.36632 0.0
C31 C 0.43817 0.7812 0.28812 0.0
C32 C 0.49991 0.75594 0.39998 0.0
C33 C 0.52406 0.7888 0.34916 0.0
C34 C 0.5044 0.81921 0.27485 0.0
C35 C 0.46128 0.81632 0.25332 0.0
H36 H 0.2254 0.60358 0.23006 0.0
H37 H 0.3475 0.60648 0.39157 0.0
H38 H 0.30892 0.49947 0.18386 0.0
C39 C 0.25582 0.58951 0.24548 0.0
C40 C 0.26407 0.55095 0.19079 0.0
C41 C 0.28526 0.60973 0.31988 0.0
C42 C 0.32389 0.59046 0.33957 0.0
C43 C 0.33272 0.55025 0.29607 0.0
C44 C 0.30241 0.53012 0.2205 0.0
H45 H 0.94276 0.23664 0.17875 0.0
H46 H 0.94419 0.35308 0.36836 0.0
H47 H 0.05656 0.30846 0.18989 0.0
C48 C 0.95934 0.26472 0.205 0.0
C49 C 1.00132 0.26882 0.17062 0.0
C50 C 0.93889 0.29465 0.27687 0.0
C51 C 0.96044 0.33022 0.3131 0.0
C52 C 1.0028 0.33628 0.28362 0.0
C53 C 1.02381 0.30476 0.21291 0.0
H54 H 0.31898 0.94348 0.17739 0.0
H55 H 0.21128 0.9599 0.40467 0.0
H56 H 0.26027 0.06438 0.20232 0.0
C57 C 0.29351 0.96303 0.20962 0.0
C58 C 0.29215 1.00494 0.1727 0.0
C59 C 0.26536 0.94708 0.29593 0.0
C60 C 0.23356 0.97261 0.34013 0.0
C61 C 0.23121 1.01485 0.30853 0.0
C62 C 0.26099 0.03151 0.22494 0.0
H63 H 0.60136 0.32654 0.19627 0.0
H64 H 0.48803 0.25435 0.20342 0.0
H65 H 0.59505 0.21572 0.4135 0.0
C66 C 0.58494 0.29858 0.2244 0.0
C67 C 0.60321 0.27176 0.30968 0.0
C68 C 0.54431 0.2921 0.18086 0.0
C69 C 0.52038 0.25844 0.22982 0.0
C70 C 0.53899 0.23082 0.31586 0.0
C71 C 0.58078 0.237 0.34913 0.0
Tb72 Tb 0.06191 1.01874 0.88488 0.0
Eu73 Eu 0.99377 0.04577 0.68758 0.0
C74 C 0.09149 0.04654 0.62477 0.0
C75 C 1.02571 0.1115 0.89755 0.0
C76 C 0.15779 0.97169 1.00702 0.0
C77 C 0.19121 0.92174 0.87347 0.0
C78 C 0.17033 0.95971 0.89006 0.0
C79 C 0.17297 0.9498 0.10703 0.0
C80 C 0.19424 0.9123 0.09009 0.0
C81 C 0.19712 0.89508 0.97306 0.0
C82 C 0.12094 0.99819 0.02401 0.0
O83 O 1.00291 1.00332 0.98001 0.0
O84 O 0.95502 0.03542 0.85594 0.0
O85 O 0.99874 0.97539 0.66018 0.0
O86 O 0.06161 0.96544 0.75457 0.0
C87 C 0.96419 1.01528 0.95615 0.0
O88 O 0.93083 0.04269 0.61126 0.0
O89 O 0.97888 0.0798 0.5229 0.0
O90 O 0.05439 0.03688 0.5833 0.0
O91 O 0.09665 0.05129 0.74173 0.0
O92 O 0.03994 0.07886 0.95757 0.0
O93 O 1.01182 0.10688 0.78532 0.0
C94 C 0.03178 0.95186 0.68112 0.0
O95 O 0.12006 0.033 0.96336 0.0
O96 O 0.08545 0.97833 1.01749 0.0
C97 C 0.90945 0.10162 0.49593 0.0
C98 C 0.86327 0.17418 0.44277 0.0
C99 C 0.88787 0.1544 0.3532 0.0
C100 C 0.91053 0.11859 0.37963 0.0
C101 C 0.88255 0.11881 0.5836 0.0
C102 C 0.8593 0.15478 0.55678 0.0
C103 C 0.93965 0.06859 0.52372 0.0
H104 H 0.19519 0.90998 0.78256 0.0
H105 H 0.15922 0.97656 0.81128 0.0
H106 H 0.16326 0.95836 0.19765 0.0
H107 H 0.19962 0.89316 0.16954 0.0
H108 H 0.8924 0.16807 0.26443 0.0
H109 H 0.93081 0.10542 0.31055 0.0
H110 H 0.88105 0.10575 0.67404 0.0
H111 H 0.8401 0.16858 0.62709 0.0
Tb112 Tb 0.54398 0.0534 0.8915 0.0
Eu113 Eu 0.51106 0.99041 0.68218 0.0
C114 C 0.51691 0.08908 0.63128 0.0
C115 C 0.44749 1.02541 0.89157 0.0
C116 C 0.59696 0.13602 0.08337 0.0
C117 C 0.6536 0.18194 0.02251 0.0
C118 C 0.6178 0.15882 0.99299 0.0
C119 C 0.60933 0.13996 0.2038 0.0
C120 C 0.64468 0.16277 0.23322 0.0
C121 C 0.6692 0.18159 0.14198 0.0
C122 C 0.56639 0.10346 0.05593 0.0
O123 O 0.55419 0.99082 0.97016 0.0
O124 O 0.51037 0.95183 0.85187 0.0
O125 O 0.58184 0.98848 0.66834 0.0
O126 O 0.59918 0.04809 0.77089 0.0
C127 C 0.53424 0.95573 0.94749 0.0
O128 O 0.51558 0.92898 0.59846 0.0
O129 O 0.47565 0.97667 0.51908 0.0
O130 O 0.52071 0.05168 0.58443 0.0
O131 O 0.51835 0.0944 0.7495 0.0
O132 O 0.48079 0.03706 0.95277 0.0
O133 O 0.45104 1.01112 0.77967 0.0
C134 C 0.60934 1.01722 0.6969 0.0
O135 O 0.53726 0.11173 0.97735 0.0
O136 O 0.58172 0.06614 0.04165 0.0
C137 C 0.45528 0.90702 0.4915 0.0
C138 C 0.38164 0.86125 0.45308 0.0
C139 C 0.40476 0.85545 0.56006 0.0
C140 C 0.44129 0.87859 0.57984 0.0
C141 C 0.43496 0.90922 0.38007 0.0
C142 C 0.39851 0.88681 0.36106 0.0
C143 C 0.48801 0.93782 0.51536 0.0
H144 H 0.67144 0.19632 0.95017 0.0
H145 H 0.60839 0.15622 0.89911 0.0
H146 H 0.5939 0.12222 0.2745 0.0
H147 H 0.65523 0.16078 0.32608 0.0
H148 H 0.39265 0.83598 0.63219 0.0
H149 H 0.45693 0.87618 0.66651 0.0
H150 H 0.44569 0.93054 0.31031 0.0
H151 H 0.3818 0.89259 0.27746 0.0
Tb152 Tb 0.49348 0.53648 0.86631 0.0
Eu153 Eu 0.5715 0.50974 0.6982 0.0
C154 C 0.47754 0.51103 0.59218 0.0
C155 C 0.52569 0.44294 0.88913 0.0
C156 C 0.40239 0.59906 0.9647 0.0
C157 C 0.39888 0.67365 0.93642 0.0
C158 C 0.41907 0.63582 0.91697 0.0
C159 C 0.36202 0.59956 1.01445 0.0
C160 C 0.34151 0.63764 0.03443 0.0
C161 C 0.36153 0.67539 1.00497 0.0
C162 C 0.42939 0.56221 0.97804 0.0
O163 O 0.54687 0.53113 0.99383 0.0
O164 O 0.59768 0.54565 0.85656 0.0
O165 O 0.55732 0.57305 0.62285 0.0
O166 O 0.5111 0.59485 0.7693 0.0
C167 C 0.5859 0.54163 0.96944 0.0
O168 O 0.63917 0.51428 0.67323 0.0
O169 O 0.60244 0.47553 0.55329 0.0
O170 O 0.51737 0.51622 0.56579 0.0
O171 O 0.4653 0.50785 0.70541 0.0
O172 O 0.50117 0.4727 0.93048 0.0
O173 O 0.55247 0.44993 0.7997 0.0
C174 C 0.53372 0.60218 0.67075 0.0
O175 O 0.42801 0.53508 0.89088 0.0
O176 O 0.4678 0.56987 1.011 0.0
C177 C 0.66891 0.45148 0.6065 0.0
C178 C 0.70433 0.37234 0.57602 0.0
C179 C 0.72267 0.40743 0.51971 0.0
C180 C 0.70404 0.44671 0.5324 0.0
C181 C 0.65816 0.41953 0.68649 0.0
C182 C 0.67658 0.38042 0.67368 0.0
C183 C 0.63998 0.48628 0.58801 0.0
H184 H 0.41577 0.70157 0.91114 0.0
H185 H 0.44976 0.63588 0.87569 0.0
H186 H 0.34806 0.57097 0.04664 0.0
H187 H 0.31217 0.63784 0.08359 0.0
H188 H 0.74847 0.40448 0.45714 0.0
H189 H 0.71487 0.4724 0.47796 0.0
H190 H 0.63275 0.42356 0.75061 0.0
H191 H 0.66429 0.35602 0.73067 0.0
Tb192 Tb 1.01922 0.4975 0.85845 0.0
Eu193 Eu 0.0472 0.57365 0.69237 0.0
C194 C 0.04446 0.48034 0.5862 0.0
C195 C 0.11226 0.53054 0.89306 0.0
C196 C 0.96081 0.40236 0.92393 0.0
C197 C 0.91691 0.34492 0.98637 0.0
C198 C 0.95619 0.36417 0.98359 0.0
C199 C 0.92899 0.41612 0.84693 0.0
C200 C 0.88948 0.39826 0.85457 0.0
C201 C 0.88175 0.36612 0.93931 0.0
C202 C 0.99409 0.43142 0.9583 0.0
O203 O 1.0223 0.54936 0.99145 0.0
O204 O 1.01476 0.60216 0.85507 0.0
O205 O 0.98312 0.56206 0.6161 0.0
O206 O 0.96061 0.51547 0.75933 0.0
C207 C 1.01548 0.58918 0.96759 0.0
O208 O 0.04167 0.64062 0.65974 0.0
O209 O 0.08522 0.60354 0.55367 0.0
O210 O 0.03848 0.51989 0.5593 0.0
O211 O 0.04996 0.46955 0.69959 0.0
O212 O 0.08081 0.50904 0.93825 0.0
O213 O 0.10713 0.55331 0.79393 0.0
C214 C 0.9534 0.53865 0.66174 0.0
O215 O 1.02636 0.43284 0.88649 0.0
O216 O 0.98107 0.46875 0.98756 0.0
C217 C 0.10635 0.67051 0.61076 0.0
C218 C 0.1843 0.70882 0.59369 0.0
C219 C 0.14886 0.72812 0.54163 0.0
C220 C 0.11024 0.7077 0.5455 0.0
C221 C 0.13834 0.65848 0.68978 0.0
C222 C 0.17718 0.67786 0.68241 0.0
C223 C 0.07275 0.64109 0.58332 0.0
H224 H 0.91288 0.31751 0.04208 0.0
H225 H 0.98153 0.35153 0.03686 0.0
H226 H 0.93293 0.44399 0.79323 0.0
H227 H 0.86465 0.41482 0.8089 0.0
H228 H 0.15249 0.75407 0.47953 0.0
H229 H 0.08499 0.71849 0.48857 0.0
H230 H 0.13501 0.63099 0.74606 0.0
H231 H 0.20256 0.66324 0.73112 0.0
C232 C 0.15748 0.04051 0.33388 0.0
C233 C 0.19894 0.03934 0.37685 0.0
C234 C 0.12304 0.04528 0.41341 0.0
C235 C 0.12851 0.04911 0.53991 0.0
H236 H 0.1514 0.0343 0.23935 0.0
H237 H 0.09181 0.04363 0.37575 0.0
S238 S 0.23138 0.05191 0.69696 0.0
N239 N 0.24362 0.04548 0.55282 0.0
N240 N 0.1798 0.05526 0.70179 0.0
C241 C 0.17013 0.05131 0.58257 0.0
C242 C 0.205 0.04634 0.5014 0.0
C243 C 0.51508 0.15649 0.34188 0.0
C244 C 0.5167 0.19755 0.38659 0.0
C245 C 0.51302 0.12169 0.42086 0.0
C246 C 0.51242 0.12644 0.54837 0.0
H247 H 0.51891 0.15106 0.24577 0.0
H248 H 0.51422 0.0908 0.38134 0.0
S249 S 0.50913 0.22816 0.70992 0.0
N250 N 0.51239 0.24111 0.56546 0.0
N251 N 0.50799 0.17668 0.7132 0.0
C252 C 0.51004 0.16764 0.59311 0.0
C253 C 0.51208 0.20282 0.51263 0.0
C254 C 0.37247 0.49867 0.42646 0.0
C255 C 0.37327 0.53122 0.34036 0.0
C256 C 0.40715 0.49044 0.50296 0.0
C257 C 0.44459 0.51377 0.49511 0.0
H258 H 0.34361 0.48179 0.44217 0.0
H259 H 0.40389 0.4669 0.57278 0.0
S260 S 0.46315 0.60262 0.28658 0.0
N261 N 0.41533 0.58691 0.25365 0.0
N262 N 0.48022 0.57035 0.39214 0.0
C263 C 0.44669 0.54465 0.4047 0.0
C264 C 0.41127 0.55355 0.32878 0.0
C265 C 0.0529 0.37317 0.42728 0.0
C266 C 1.02241 0.37555 0.33518 0.0
C267 C 0.0616 0.40768 0.50395 0.0
C268 C 0.04076 0.44652 0.49117 0.0
H269 H 0.06789 0.34353 0.44634 0.0
H270 H 0.08366 0.40333 0.57724 0.0
S271 S 0.95748 0.4693 0.26691 0.0
N272 N 0.97124 0.42063 0.23761 0.0
N273 N 0.98823 0.48472 0.37791 0.0
C274 C 1.01171 0.44984 0.39597 0.0
C275 C 1.00247 0.41474 0.31928 0.0
C276 C 0.9036 1.00928 0.2576 0.0
C277 C 0.86132 1.00978 0.22069 0.0
C278 C 0.93696 1.00804 0.17257 0.0
C279 C 0.9294 1.00799 0.04655 0.0
H280 H 0.91096 1.0132 0.35236 0.0
H281 H 0.96876 1.01024 0.20578 0.0
S282 S 0.82432 1.00359 0.90308 0.0
N283 N 0.81416 1.00562 0.04967 0.0
N284 N 0.87587 1.00354 0.89085 0.0
C285 C 0.88725 1.0051 1.00929 0.0
C286 C 0.85359 1.00576 0.09578 0.0
C287 C 0.53506 0.89095 0.24033 0.0
C288 C 0.52715 0.85028 0.19788 0.0
C289 C 0.54035 0.92485 0.15922 0.0
C290 C 0.53716 0.91931 0.03266 0.0
H291 H 0.53427 0.89706 0.33654 0.0
H292 H 0.544 0.95591 0.19618 0.0
S293 S 0.52222 0.81792 0.87581 0.0
N294 N 0.52097 0.80591 0.02121 0.0
N295 N 0.53035 0.86875 0.86983 0.0
C296 C 0.53249 0.87819 0.98968 0.0
C297 C 0.52779 0.84395 0.07182 0.0
C298 C 0.65185 0.51402 0.24912 0.0
C299 C 0.69073 0.53366 0.22592 0.0
C300 C 0.61675 0.51958 0.17233 0.0
C301 C 0.61912 0.5443 0.06669 0.0
H302 H 0.64961 0.49131 0.32148 0.0
H303 H 0.58875 0.50162 0.19063 0.0
S304 S 0.71197 0.6062 0.97157 0.0
N305 N 0.72773 0.58187 0.09534 0.0
N306 N 0.66274 0.5922 0.95125 0.0
C307 C 0.65683 0.56649 0.04769 0.0
C308 C 0.69223 0.56124 0.12692 0.0
C309 C 0.04556 0.65704 0.24072 0.0
C310 C 1.02392 0.69498 0.21924 0.0
C311 C 0.03967 0.62122 0.16695 0.0
C312 C 1.01257 0.62195 0.06612 0.0
H313 H 0.07024 0.65626 0.30778 0.0
H314 H 0.05938 0.59418 0.18241 0.0
S315 S 0.94473 0.71139 0.97876 0.0
N316 N 0.97106 0.72889 0.09672 0.0
N317 N 0.96038 0.66273 0.95828 0.0
C318 C 0.98836 0.65849 0.04998 0.0
C319 C 0.99387 0.69453 0.12623 0.0
C320 C 0.86816 0.26352 0.25345 0.0
C321 C 0.89698 0.2847 0.32716 0.0
C322 C 0.84399 0.23127 0.30206 0.0
C323 C 0.85072 0.21847 0.42271 0.0
H324 H 0.86952 0.26679 0.15586 0.0
H325 H 0.82863 0.21069 0.23872 0.0
S326 S 0.89594 0.28499 0.66277 0.0
N327 N 0.91148 0.30648 0.53433 0.0
N328 N 0.86663 0.24479 0.62421 0.0
C329 C 0.86735 0.24845 0.50167 0.0
C330 C 0.8915 0.28175 0.45318 0.0
C331 C 0.29008 0.87348 0.28494 0.0
C332 C 0.27474 0.90663 0.35538 0.0
C333 C 0.31889 0.84511 0.33366 0.0
C334 C 0.33598 0.85272 0.44893 0.0
H335 H 0.285 0.87336 0.18814 0.0
H336 H 0.33516 0.82493 0.27097 0.0
S337 S 0.28873 0.91899 0.68703 0.0
N338 N 0.26464 0.93274 0.561 0.0
N339 N 0.32058 0.88054 0.64878 0.0
C340 C 0.31162 0.8767 0.52903 0.0
C341 C 0.28141 0.90497 0.48138 0.0
C342 C 0.64593 0.27854 0.49912 0.0
C343 C 0.64216 0.28432 0.37312 0.0
C344 C 0.6767 0.29947 0.56489 0.0
C345 C 0.70064 0.33131 0.51004 0.0
H346 H 0.62347 0.26013 0.54952 0.0
H347 H 0.67714 0.2948 0.66188 0.0
S348 S 0.71996 0.33706 0.17731 0.0
N349 N 0.67863 0.30673 0.19134 0.0
N350 N 0.73322 0.35018 0.31654 0.0
C351 C 0.70386 0.32951 0.38214 0.0
C352 C 0.67425 0.30611 0.31381 0.0
C353 C 0.24457 0.67621 0.32515 0.0
C354 C 0.2736 0.64967 0.3817 0.0
C355 C 0.21906 0.70241 0.39368 0.0
C356 C 0.22359 0.70547 0.52027 0.0
H357 H 0.23759 0.67296 0.22967 0.0
H358 H 0.1917 0.71446 0.34874 0.0
S359 S 0.31231 0.66304 0.69757 0.0
N360 N 0.31608 0.64004 0.56426 0.0
N361 N 0.27209 0.69529 0.68701 0.0
C362 C 0.26037 0.6886 0.57037 0.0
C363 C 0.28454 0.65906 0.50285 0.0
C364 C 0.11321 0.8211 0.99469 0.0
C365 C 0.12832 0.79793 0.09286 0.0
C366 C 0.1401 0.84701 0.92911 0.0
C367 C 0.18243 0.85142 0.96354 0.0
H368 H 0.07985 0.82294 0.97758 0.0
H369 H 0.12571 0.86911 0.86785 0.0
S370 S 0.23933 0.78364 0.17841 0.0
N371 N 0.18954 0.77111 0.19647 0.0
N372 N 0.24041 0.81918 0.06991 0.0
C373 C 0.19909 0.82134 0.04221 0.0
C374 C 0.17165 0.7954 0.11047 0.0
C375 C 0.77342 0.13848 0.14065 0.0
C376 C 0.77896 0.13713 0.26704 0.0
C377 C 0.742 0.16345 0.09011 0.0
C378 C 0.71486 0.18646 0.16571 0.0
H379 H 0.78848 0.1157 0.08256 0.0
H380 H 0.73428 0.15806 0.99599 0.0
S381 S 0.73228 0.20956 0.49015 0.0
N382 N 0.76624 0.17238 0.45793 0.0
N383 N 0.7084 0.22032 0.36142 0.0
C384 C 0.7285 0.19408 0.28471 0.0
C385 C 0.75976 0.16821 0.33696 0.0
C386 C 0.37226 0.73843 0.27651 0.0
C387 C 0.39797 0.7696 0.22518 0.0
C388 C 0.3509 0.71025 0.20235 0.0
C389 C 0.35281 0.71404 0.0755 0.0
H390 H 0.37318 0.73192 0.3727 0.0
H391 H 0.33927 0.68205 0.24405 0.0
S392 S 0.38871 0.8065 0.90508 0.0
N393 N 0.4064 0.81345 0.04381 0.0
N394 N 0.36167 0.76275 0.90977 0.0
C395 C 0.36566 0.75259 0.02881 0.0
C396 C 0.38995 0.77994 0.10218 0.0
C397 C 0.82085 0.3902 0.21597 0.0
C398 C 0.79197 0.41882 0.16762 0.0
C399 C 0.84595 0.36587 0.14021 0.0
C400 C 0.84226 0.36814 1.01294 0.0
H401 H 0.82733 0.38967 0.31223 0.0
H402 H 0.87206 0.35034 0.18249 0.0
S403 S 0.75702 0.42132 0.84617 0.0
N404 N 0.75245 0.43826 0.98656 0.0
N405 N 0.79545 0.38684 0.84826 0.0
C406 C 0.80629 0.38802 0.96718 0.0
C407 C 0.78237 0.41523 0.04308 0.0
C408 C 0.03158 0.1957 0.1504 0.0
C409 C 1.01863 0.23318 0.09417 0.0
C410 C 0.0349 0.15745 0.08589 0.0
C411 C 1.02467 0.15399 0.96132 0.0
H412 H 0.03705 0.19541 0.24718 0.0
H413 H 0.04414 0.12989 0.13609 0.0
S414 S 0.99055 0.24315 0.76927 0.0
N415 N 0.99653 0.26423 0.90455 0.0
N416 N 1.0028 0.1933 0.78394 0.0
C417 C 1.01287 0.19161 0.90322 0.0
C418 C 1.00975 0.23061 0.9691 0.0
C419 C 0.333 0.99965 0.97631 0.0
C420 C 0.32704 1.01921 0.08988 0.0
C421 C 0.37092 1.00332 0.91026 0.0
C422 C 0.4053 1.02609 0.95548 0.0
H423 H 0.3087 0.97958 0.94079 0.0
H424 H 0.37389 0.98646 0.82571 0.0
S425 S 0.40542 0.08493 0.24648 0.0
N426 N 0.35843 0.06357 0.24183 0.0
N427 N 0.42921 0.07065 0.12012 0.0
C428 C 0.39902 0.04719 0.06698 0.0
C429 C 0.36021 0.04373 0.13328 0.0
C430 C 0.5065 0.35933 0.13433 0.0
C431 C 0.52865 0.32418 0.09216 0.0
C432 C 0.50416 0.39659 0.0657 0.0
C433 C 0.52442 0.40087 0.95202 0.0
H434 H 0.4933 0.35906 0.22481 0.0
H435 H 0.48806 0.423 0.10564 0.0
S436 S 0.58309 0.31621 0.79572 0.0
N437 N 0.56871 0.29501 0.92568 0.0
N438 N 0.56426 0.36428 0.79673 0.0
C439 C 0.54472 0.36501 0.90612 0.0
C440 C 0.54685 0.32706 0.97594 0.0
C441 C 0.1935 0.51754 0.15084 0.0
C442 C 0.23068 0.53528 0.10459 0.0
C443 C 0.15643 0.51468 0.08064 0.0
C444 C 0.15396 0.53029 0.96064 0.0
H445 H 0.19234 0.5078 0.24477 0.0
H446 H 0.12881 0.50177 0.1235 0.0
S447 S 0.24315 0.57809 0.79397 0.0
N448 N 0.26283 0.56735 0.92869 0.0
N449 N 0.19399 0.56219 0.79753 0.0
C450 C 0.19144 0.54684 0.91198 0.0
C451 C 0.2293 0.54934 0.98342 0.0
C452 C 1.00739 0.85517 0.47781 0.0
C453 C 0.04668 0.83556 0.46112 0.0
C454 C 1.0026 0.8916 0.55113 0.0
C455 C 0.03676 0.91054 0.61224 0.0
H456 H 0.98044 0.84357 0.42911 0.0
H457 H 0.97181 0.90568 0.55728 0.0
S458 S 0.14644 0.87136 0.59884 0.0
N459 N 0.12008 0.83753 0.51686 0.0
N460 N 0.11163 0.90561 0.64802 0.0
C461 C 0.07591 0.8904 0.59847 0.0
C462 C 0.08063 0.85329 0.52527 0.0
C463 C 0.72561 0.04005 0.62913 0.0
C464 C 0.73339 1.01985 0.51725 0.0
C465 C 0.68626 0.03807 0.68811 0.0
C466 C 0.65251 1.01541 0.63917 0.0
H467 H 0.74941 0.06014 0.66727 0.0
H468 H 0.68194 0.05567 0.77091 0.0
S469 S 0.65663 0.95491 0.35148 0.0
N470 N 0.70396 0.97521 0.36268 0.0
N471 N 0.63085 0.97022 0.47352 0.0
C472 C 0.66063 0.99301 0.53086 0.0
C473 C 0.70069 0.99544 0.47033 0.0
C474 C 0.50084 0.71482 0.59435 0.0
C475 C 0.51749 0.72157 0.47748 0.0
C476 C 0.50774 0.67721 0.65812 0.0
C477 C 0.5311 0.64406 0.60752 0.0
H478 H 0.4806 0.7382 0.63472 0.0
H479 H 0.49342 0.67375 0.74633 0.0
S480 S 0.5825 0.64648 0.30398 0.0
N481 N 0.55932 0.69246 0.31491 0.0
N482 N 0.57255 0.62208 0.43267 0.0
C483 C 0.54936 0.65124 0.49208 0.0
C484 C 0.54244 0.68974 0.42773 0.0
C485 C 0.83953 0.5084 0.57627 0.0
C486 C 0.83273 0.52809 0.46318 0.0
C487 C 0.87745 0.51317 0.64185 0.0
C488 C 0.91116 0.53728 0.59696 0.0
H489 H 0.81598 0.48737 0.61179 0.0
H490 H 0.88076 0.49655 0.72668 0.0
S491 S 0.90977 0.59488 0.30307 0.0
N492 N 0.86328 0.57254 0.3095 0.0
N493 N 0.93382 0.58174 0.42977 0.0
C494 C 0.90417 0.55795 0.48484 0.0
C495 C 0.86544 0.55321 0.41892 0.0
loop_
_geom_bond_atom_site_label_1
_geom_bond_atom_site_label_2
_geom_bond_distance
_geom_bond_site_symmetry_2
_ccdc_geom_bond_type
H0 C3 0.931 . S
H1 C6 0.928 . S
H2 C8 0.930 . S
C3 H0 0.931 . S
C3 C4 1.413 . S
C3 C5 1.360 . S
C4 C3 1.413 . S
C4 C8 1.429 . S
C5 C3 1.360 . S
C5 C6 1.372 . S
C6 H1 0.928 . S
C6 C5 1.372 . S
C6 C7 1.404 . S
C7 C6 1.404 . S
C7 C8 1.391 . S
C8 H2 0.930 . S
C8 C4 1.429 . S
C8 C7 1.391 . S
H9 C12 0.931 . S
H10 C15 0.928 . S
H11 C17 0.930 . S
C12 H9 0.931 . S
C12 C13 1.413 . S
C12 C14 1.360 . S
C13 C12 1.413 . S
C13 C17 1.429 1_655 S
C14 C12 1.360 . S
C14 C15 1.372 . S
C15 H10 0.928 . S
C15 C14 1.372 . S
C15 C16 1.404 . S
C16 C15 1.404 . S
C16 C17 1.390 1_655 S
C17 H11 0.930 . S
C17 C13 1.429 1_455 S
C17 C16 1.390 1_455 S
H18 C21 0.931 . S
H19 C24 0.928 . S
H20 C26 0.930 . S
C21 H18 0.931 . S
C21 C22 1.413 . S
C21 C23 1.360 . S
C22 C21 1.413 . S
C22 C26 1.429 1_565 S
C23 C21 1.360 . S
C23 C24 1.372 . S
C24 H19 0.928 . S
C24 C23 1.372 . S
C24 C25 1.404 . S
C25 C24 1.404 . S
C25 C26 1.390 1_565 S
C26 H20 0.930 . S
C26 C22 1.429 1_545 S
C26 C25 1.390 1_545 S
H27 C30 0.931 . S
H28 C33 0.928 . S
H29 C35 0.930 . S
C30 H27 0.931 . S
C30 C31 1.413 . S
C30 C32 1.360 . S
C31 C30 1.413 . S
C31 C35 1.429 . S
C32 C30 1.360 . S
C32 C33 1.372 . S
C33 H28 0.928 . S
C33 C32 1.372 . S
C33 C34 1.404 . S
C34 C33 1.404 . S
C34 C35 1.391 . S
C35 H29 0.930 . S
C35 C31 1.429 . S
C35 C34 1.391 . S
H36 C39 0.931 1_556 S
H37 C42 0.928 . S
H38 C44 0.930 . S
C39 H36 0.931 1_554 S
C39 C40 1.413 1_554 S
C39 C41 1.360 . S
C40 C39 1.413 1_556 S
C40 C44 1.429 . S
C41 C39 1.360 . S
C41 C42 1.372 . S
C42 H37 0.928 . S
C42 C41 1.372 . S
C42 C43 1.404 . S
C43 C42 1.404 . S
C43 C44 1.391 1_554 S
C44 H38 0.930 . S
C44 C40 1.429 . S
C44 C43 1.391 1_556 S
H45 C48 0.931 1_556 S
H46 C51 0.928 . S
H47 C53 0.930 . S
C48 H45 0.931 1_554 S
C48 C49 1.413 1_554 S
C48 C50 1.360 . S
C49 C48 1.413 1_556 S
C49 C53 1.429 1_655 S
C50 C48 1.360 . S
C50 C51 1.372 . S
C51 H46 0.928 . S
C51 C50 1.372 . S
C51 C52 1.404 . S
C52 C51 1.404 . S
C52 C53 1.391 1_654 S
C53 H47 0.930 . S
C53 C49 1.429 1_455 S
C53 C52 1.391 1_456 S
H54 C57 0.931 1_556 S
H55 C60 0.928 . S
H56 C62 0.930 . S
C57 H54 0.931 1_554 S
C57 C58 1.413 1_554 S
C57 C59 1.360 . S
C58 C57 1.413 1_556 S
C58 C62 1.429 1_565 S
C59 C57 1.360 . S
C59 C60 1.372 . S
C60 H55 0.928 . S
C60 C59 1.372 . S
C60 C61 1.404 . S
C61 C60 1.404 . S
C61 C62 1.391 1_564 S
C62 H56 0.930 . S
C62 C58 1.429 1_545 S
C62 C61 1.391 1_546 S
H63 C66 0.929 1_556 S
H64 C69 0.928 . S
H65 C71 0.930 . S
C66 H63 0.929 1_554 S
C66 C67 1.419 . S
C66 C68 1.356 1_554 S
C67 C66 1.419 . S
C67 C71 1.429 . S
C68 C66 1.356 1_556 S
C68 C69 1.372 . S
C69 H64 0.928 . S
C69 C68 1.372 . S
C69 C70 1.404 1_556 S
C70 C69 1.404 1_554 S
C70 C71 1.391 . S
C71 H65 0.930 . S
C71 C67 1.429 . S
C71 C70 1.391 . S
Tb72 C82 2.825 . S
Tb72 O83 2.347 1_455 S
Tb72 O86 2.366 . S
Tb72 O91 2.418 . S
Tb72 O92 2.384 1_565 S
Tb72 O95 2.479 . S
Tb72 O96 2.471 1_556 S
Eu73 O84 2.418 . S
Eu73 O85 2.384 1_545 S
Eu73 O88 2.479 . S
Eu73 O89 2.471 . S
Eu73 O90 2.347 1_655 S
Eu73 O93 2.366 . S
Eu73 C103 2.825 . S
C74 O90 1.259 1_565 S
C74 O91 1.265 . S
C75 O92 1.255 . S
C75 O93 1.265 1_455 S
C76 C78 1.380 . S
C76 C79 1.374 . S
C76 C82 1.507 1_554 S
C77 C78 1.384 . S
C77 C81 1.387 . S
C77 H104 0.930 . S
C78 C76 1.380 . S
C78 C77 1.384 . S
C78 H105 0.931 . S
C79 C76 1.374 . S
C79 C80 1.390 . S
C79 H106 0.949 . S
C80 C79 1.390 . S
C80 C81 1.391 . S
C80 H107 0.930 . S
C81 C77 1.387 . S
C81 C80 1.391 . S
C82 Tb72 2.825 . S
C82 C76 1.507 1_556 S
C82 O95 1.238 . S
C82 O96 1.247 1_556 S
O83 Tb72 2.347 1_655 S
O83 C87 1.259 1_565 S
O84 Eu73 2.418 . S
O84 C87 1.265 . S
O85 Eu73 2.384 1_565 S
O85 C94 1.255 . S
O86 Tb72 2.366 . S
O86 C94 1.265 1_455 S
C87 O83 1.259 1_545 S
C87 O84 1.265 . S
O88 Eu73 2.479 . S
O88 C103 1.238 . S
O89 Eu73 2.471 . S
O89 C103 1.247 . S
O90 Eu73 2.347 1_455 S
O90 C74 1.259 1_545 S
O91 Tb72 2.418 . S
O91 C74 1.265 . S
O92 Tb72 2.384 1_545 S
O92 C75 1.255 . S
O93 Eu73 2.366 . S
O93 C75 1.265 1_655 S
C94 O85 1.255 . S
C94 O86 1.265 1_655 S
O95 Tb72 2.479 . S
O95 C82 1.238 . S
O96 Tb72 2.471 1_554 S
O96 C82 1.247 1_554 S
C97 C100 1.380 . S
C97 C101 1.374 . S
C97 C103 1.507 . S
C98 C99 1.387 . S
C98 C102 1.391 . S
C99 C98 1.387 . S
C99 C100 1.384 . S
C99 H108 0.930 . S
C100 C97 1.380 . S
C100 C99 1.384 . S
C100 H109 0.931 . S
C101 C97 1.374 . S
C101 C102 1.390 . S
C101 H110 0.943 . S
C102 C98 1.391 . S
C102 C101 1.390 . S
C102 H111 0.930 . S
C103 Eu73 2.825 . S
C103 O88 1.238 . S
C103 O89 1.247 . S
C103 C97 1.507 . S
H104 C77 0.930 . S
H105 C78 0.931 . S
H106 C79 0.949 . S
H107 C80 0.930 . S
H108 C99 0.930 . S
H109 C100 0.931 . S
H110 C101 0.943 . S
H111 C102 0.930 . S
Tb112 C122 2.827 . S
Tb112 O123 2.347 1_545 S
Tb112 O126 2.366 . S
Tb112 O131 2.418 . S
Tb112 O132 2.384 . S
Tb112 O135 2.479 . S
Tb112 O136 2.471 1_556 S
Eu113 O124 2.418 . S
Eu113 O125 2.384 . S
Eu113 O128 2.479 . S
Eu113 O129 2.471 . S
Eu113 O130 2.347 1_565 S
Eu113 O133 2.366 . S
Eu113 C143 2.825 . S
C114 O130 1.259 . S
C114 O131 1.265 . S
C115 O132 1.255 . S
C115 O133 1.265 1_545 S
C116 C118 1.380 . S
C116 C119 1.374 . S
C116 C122 1.505 1_554 S
C117 C118 1.384 . S
C117 C121 1.387 . S
C117 H144 0.930 . S
C118 C116 1.380 . S
C118 C117 1.384 . S
C118 H145 0.931 . S
C119 C116 1.374 . S
C119 C120 1.390 . S
C119 H146 0.930 1_545 S
C120 C119 1.390 . S
C120 C121 1.391 . S
C120 H147 0.930 . S
C121 C117 1.387 . S
C121 C120 1.391 . S
C122 Tb112 2.827 . S
C122 C116 1.505 1_556 S
C122 O135 1.240 . S
C122 O136 1.247 1_556 S
O123 Tb112 2.347 1_565 S
O123 C127 1.259 . S
O124 Eu113 2.418 . S
O124 C127 1.265 . S
O125 Eu113 2.384 . S
O125 C134 1.255 . S
O126 Tb112 2.366 . S
O126 C134 1.265 1_545 S
C127 O123 1.259 . S
C127 O124 1.265 . S
O128 Eu113 2.479 . S
O128 C143 1.238 . S
O129 Eu113 2.471 . S
O129 C143 1.247 . S
O130 Eu113 2.347 1_545 S
O130 C114 1.259 . S
O131 Tb112 2.418 . S
O131 C114 1.265 . S
O132 Tb112 2.384 . S
O132 C115 1.255 . S
O133 Eu113 2.366 . S
O133 C115 1.265 1_565 S
C134 O125 1.255 . S
C134 O126 1.265 1_565 S
O135 Tb112 2.479 . S
O135 C122 1.240 . S
O136 Tb112 2.471 1_554 S
O136 C122 1.247 1_554 S
C137 C140 1.380 . S
C137 C141 1.374 . S
C137 C143 1.507 . S
C138 C139 1.387 . S
C138 C142 1.391 . S
C139 C138 1.387 . S
C139 C140 1.384 . S
C139 H148 0.930 . S
C140 C137 1.380 . S
C140 C139 1.384 . S
C140 H149 0.931 . S
C141 C137 1.374 . S
C141 C142 1.390 . S
C141 H150 0.930 1_565 S
C142 C138 1.391 . S
C142 C141 1.390 . S
C142 H151 0.930 . S
C143 Eu113 2.825 . S
C143 O128 1.238 . S
C143 O129 1.247 . S
C143 C137 1.507 . S
H144 C117 0.930 . S
H145 C118 0.931 . S
H146 C119 0.930 1_565 S
H147 C120 0.930 . S
H148 C139 0.930 . S
H149 C140 0.931 . S
H150 C141 0.930 1_545 S
H151 C142 0.930 . S
Tb152 C162 2.825 1_556 S
Tb152 O163 2.347 . S
Tb152 O166 2.366 . S
Tb152 O171 2.418 . S
Tb152 O172 2.384 . S
Tb152 O175 2.479 . S
Tb152 O176 2.471 1_556 S
Eu153 O164 2.418 . S
Eu153 O165 2.384 . S
Eu153 O168 2.479 . S
Eu153 O169 2.471 . S
Eu153 O170 2.347 . S
Eu153 O173 2.366 . S
Eu153 C183 2.825 . S
C154 O170 1.259 . S
C154 O171 1.265 . S
C155 O172 1.255 . S
C155 O173 1.265 . S
C156 C158 1.380 . S
C156 C159 1.374 . S
C156 C162 1.507 . S
C157 C158 1.384 . S
C157 C161 1.387 . S
C157 H184 0.930 . S
C158 C156 1.380 . S
C158 C157 1.384 . S
C158 H185 0.931 . S
C159 C156 1.374 . S
C159 C160 1.390 . S
C159 H186 0.930 . S
C160 C159 1.390 . S
C160 C161 1.391 . S
C160 H187 0.930 . S
C161 C157 1.387 . S
C161 C160 1.391 . S
C162 Tb152 2.825 1_554 S
C162 C156 1.507 . S
C162 O175 1.238 1_554 S
C162 O176 1.247 . S
O163 Tb152 2.347 . S
O163 C167 1.259 . S
O164 Eu153 2.418 . S
O164 C167 1.265 . S
O165 Eu153 2.384 . S
O165 C174 1.255 . S
O166 Tb152 2.366 . S
O166 C174 1.265 . S
C167 O163 1.259 . S
C167 O164 1.265 . S
O168 Eu153 2.479 . S
O168 C183 1.238 . S
O169 Eu153 2.471 . S
O169 C183 1.247 . S
O170 Eu153 2.347 . S
O170 C154 1.259 . S
O171 Tb152 2.418 . S
O171 C154 1.265 . S
O172 Tb152 2.384 . S
O172 C155 1.255 . S
O173 Eu153 2.366 . S
O173 C155 1.265 . S
C174 O165 1.255 . S
C174 O166 1.265 . S
O175 Tb152 2.479 . S
O175 C162 1.238 1_556 S
O176 Tb152 2.471 1_554 S
O176 C162 1.247 . S
C177 C180 1.380 . S
C177 C181 1.374 . S
C177 C183 1.507 . S
C178 C179 1.387 . S
C178 C182 1.391 . S
C179 C178 1.387 . S
C179 C180 1.384 . S
C179 H188 0.930 . S
C180 C177 1.380 . S
C180 C179 1.384 . S
C180 H189 0.931 . S
C181 C177 1.374 . S
C181 C182 1.390 . S
C181 H190 0.930 . S
C182 C178 1.391 . S
C182 C181 1.390 . S
C182 H191 0.930 . S
C183 Eu153 2.825 . S
C183 O168 1.238 . S
C183 O169 1.247 . S
C183 C177 1.507 . S
H184 C157 0.930 . S
H185 C158 0.931 . S
H186 C159 0.930 . S
H187 C160 0.930 . S
H188 C179 0.930 . S
H189 C180 0.931 . S
H190 C181 0.930 . S
H191 C182 0.930 . S
Tb192 C202 2.825 1_556 S
Tb192 O203 2.347 . S
Tb192 O206 2.366 . S
Tb192 O211 2.418 . S
Tb192 O212 2.384 1_655 S
Tb192 O215 2.479 . S
Tb192 O216 2.471 1_556 S
Eu193 O204 2.418 . S
Eu193 O205 2.384 1_455 S
Eu193 O208 2.479 . S
Eu193 O209 2.471 . S
Eu193 O210 2.347 . S
Eu193 O213 2.366 . S
Eu193 C223 2.825 . S
C194 O210 1.259 1_655 S
C194 O211 1.265 . S
C195 O212 1.255 . S
C195 O213 1.265 . S
C196 C198 1.380 . S
C196 C199 1.374 . S
C196 C202 1.507 . S
C197 C198 1.384 . S
C197 C201 1.387 . S
C197 H224 0.930 . S
C198 C196 1.380 . S
C198 C197 1.384 . S
C198 H225 0.931 . S
C199 C196 1.374 . S
C199 C200 1.390 . S
C199 H226 0.930 . S
C200 C199 1.390 . S
C200 C201 1.391 . S
C200 H227 0.930 . S
C201 C197 1.387 . S
C201 C200 1.391 . S
C202 Tb192 2.825 1_554 S
C202 C196 1.507 . S
C202 O215 1.238 1_554 S
C202 O216 1.247 . S
O203 Tb192 2.347 . S
O203 C207 1.259 1_655 S
O204 Eu193 2.418 . S
O204 C207 1.265 . S
O205 Eu193 2.384 1_655 S
O205 C214 1.255 . S
O206 Tb192 2.366 . S
O206 C214 1.265 . S
C207 O203 1.259 1_455 S
C207 O204 1.265 . S
O208 Eu193 2.479 . S
O208 C223 1.238 . S
O209 Eu193 2.471 . S
O209 C223 1.247 . S
O210 Eu193 2.347 . S
O210 C194 1.259 1_455 S
O211 Tb192 2.418 . S
O211 C194 1.265 . S
O212 Tb192 2.384 1_455 S
O212 C195 1.255 . S
O213 Eu193 2.366 . S
O213 C195 1.265 . S
C214 O205 1.255 . S
C214 O206 1.265 . S
O215 Tb192 2.479 . S
O215 C202 1.238 1_556 S
O216 Tb192 2.471 1_554 S
O216 C202 1.247 . S
C217 C220 1.380 . S
C217 C221 1.374 . S
C217 C223 1.507 . S
C218 C219 1.387 . S
C218 C222 1.391 . S
C219 C218 1.387 . S
C219 C220 1.384 . S
C219 H228 0.930 . S
C220 C217 1.380 . S
C220 C219 1.384 . S
C220 H229 0.931 . S
C221 C217 1.374 . S
C221 C222 1.390 . S
C221 H230 0.930 . S
C222 C218 1.391 . S
C222 C221 1.390 . S
C222 H231 0.930 . S
C223 Eu193 2.825 . S
C223 O208 1.238 . S
C223 O209 1.247 . S
C223 C217 1.507 . S
H224 C197 0.930 . S
H225 C198 0.931 . S
H226 C199 0.930 . S
H227 C200 0.930 . S
H228 C219 0.930 . S
H229 C220 0.931 . S
H230 C221 0.930 . S
H231 C222 0.930 . S
C232 C233 1.367 1_565 S
C232 C234 1.419 . S
C232 H236 0.930 . S
C233 C232 1.367 1_545 S
C233 C242 1.430 . S
C234 C232 1.419 . S
C234 C235 1.375 . S
C234 H237 0.929 . S
C235 C234 1.375 . S
C235 C241 1.416 1_565 S
H236 C232 0.930 . S
H237 C234 0.929 . S
S238 N239 1.613 . S
S238 N240 1.610 . S
N239 S238 1.613 . S
N239 C242 1.350 . S
N240 S238 1.610 . S
N240 C241 1.351 . S
C241 C235 1.416 1_545 S
C241 N240 1.351 . S
C241 C242 1.434 . S
C242 C233 1.430 . S
C242 N239 1.350 . S
C242 C241 1.434 . S
C243 C244 1.369 . S
C243 C245 1.419 . S
C243 H247 0.930 . S
C244 C243 1.369 . S
C244 C253 1.429 . S
C245 C243 1.419 . S
C245 C246 1.363 . S
C245 H248 0.929 . S
C246 C245 1.363 . S
C246 C252 1.428 . S
H247 C243 0.930 . S
H248 C245 0.929 . S
S249 N250 1.613 . S
S249 N251 1.610 . S
N250 S249 1.613 . S
N250 C253 1.350 . S
N251 S249 1.610 . S
N251 C252 1.351 . S
C252 C246 1.428 . S
C252 N251 1.351 . S
C252 C253 1.434 . S
C253 C244 1.429 . S
C253 N250 1.350 . S
C253 C252 1.434 . S
C254 C255 1.369 . S
C254 C256 1.419 . S
C254 H258 0.930 . S
C255 C254 1.369 . S
C255 C264 1.429 . S
C256 C254 1.419 . S
C256 C257 1.363 . S
C256 H259 0.929 . S
C257 C256 1.363 . S
C257 C263 1.428 . S
H258 C254 0.930 . S
H259 C256 0.929 . S
S260 N261 1.613 . S
S260 N262 1.610 . S
N261 S260 1.613 . S
N261 C264 1.350 . S
N262 S260 1.610 . S
N262 C263 1.351 . S
C263 C257 1.428 . S
C263 N262 1.351 . S
C263 C264 1.434 . S
C264 C255 1.429 . S
C264 N261 1.350 . S
C264 C263 1.434 . S
C265 C266 1.371 . S
C265 C267 1.419 . S
C265 H269 0.930 . S
C266 C265 1.371 . S
C266 C275 1.426 1_455 S
C267 C265 1.419 . S
C267 C268 1.363 . S
C267 H270 0.929 . S
C268 C267 1.363 . S
C268 C274 1.428 1_455 S
H269 C265 0.930 . S
H270 C267 0.929 . S
S271 N272 1.613 . S
S271 N273 1.610 . S
N272 S271 1.613 . S
N272 C275 1.350 . S
N273 S271 1.610 . S
N273 C274 1.351 . S
C274 C268 1.428 1_655 S
C274 N273 1.351 . S
C274 C275 1.434 . S
C275 C266 1.426 1_655 S
C275 N272 1.350 . S
C275 C274 1.434 . S
C276 C277 1.373 . S
C276 C278 1.419 . S
C276 H280 0.930 . S
C277 C276 1.373 . S
C277 C286 1.425 1_545 S
C278 C276 1.419 . S
C278 C279 1.363 . S
C278 H281 0.929 . S
C279 C278 1.363 . S
C279 C285 1.428 1_545 S
H280 C276 0.930 . S
H281 C278 0.929 . S
S282 N283 1.613 . S
S282 N284 1.610 . S
N283 S282 1.613 . S
N283 C286 1.350 . S
N284 S282 1.610 . S
N284 C285 1.351 . S
C285 C279 1.428 1_565 S
C285 N284 1.351 . S
C285 C286 1.434 . S
C286 C277 1.425 1_565 S
C286 N283 1.350 . S
C286 C285 1.434 . S
C287 C288 1.369 . S
C287 C289 1.419 . S
C287 H291 0.930 . S
C288 C287 1.369 . S
C288 C297 1.429 . S
C289 C287 1.419 . S
C289 C290 1.363 . S
C289 H292 0.929 . S
C290 C289 1.363 . S
C290 C296 1.428 . S
H291 C287 0.930 . S
H292 C289 0.929 . S
S293 N294 1.613 . S
S293 N295 1.610 . S
N294 S293 1.613 . S
N294 C297 1.350 . S
N295 S293 1.610 . S
N295 C296 1.351 . S
C296 C290 1.428 . S
C296 N295 1.351 . S
C296 C297 1.434 . S
C297 C288 1.429 . S
C297 N294 1.350 . S
C297 C296 1.434 . S
C298 C299 1.369 . S
C298 C300 1.419 . S
C298 H302 0.930 . S
C299 C298 1.369 . S
C299 C308 1.429 . S
C300 C298 1.419 . S
C300 C301 1.363 . S
C300 H303 0.929 . S
C301 C300 1.363 . S
C301 C307 1.428 . S
H302 C298 0.930 . S
H303 C300 0.929 . S
S304 N305 1.613 . S
S304 N306 1.610 . S
N305 S304 1.613 . S
N305 C308 1.350 . S
N306 S304 1.610 . S
N306 C307 1.351 . S
C307 C301 1.428 . S
C307 N306 1.351 . S
C307 C308 1.434 . S
C308 C299 1.429 . S
C308 N305 1.350 . S
C308 C307 1.434 . S
C309 C310 1.359 1_455 S
C309 C311 1.419 . S
C309 H313 0.930 . S
C310 C309 1.359 1_655 S
C310 C319 1.439 . S
C311 C309 1.419 . S
C311 C312 1.363 1_455 S
C311 H314 0.929 . S
C312 C311 1.363 1_655 S
C312 C318 1.428 . S
H313 C309 0.930 . S
H314 C311 0.929 . S
S315 N316 1.613 . S
S315 N317 1.610 . S
N316 S315 1.613 . S
N316 C319 1.350 . S
N317 S315 1.610 . S
N317 C318 1.351 . S
C318 C312 1.428 . S
C318 N317 1.351 . S
C318 C319 1.434 . S
C319 C310 1.439 . S
C319 N316 1.350 . S
C319 C318 1.434 . S
C320 C321 1.369 . S
C320 C322 1.419 . S
C320 H324 0.930 . S
C321 C320 1.369 . S
C321 C330 1.429 . S
C322 C320 1.419 . S
C322 C323 1.363 . S
C322 H325 0.929 . S
C323 C322 1.363 . S
C323 C329 1.428 . S
H324 C320 0.930 . S
H325 C322 0.929 . S
S326 N327 1.613 1_655 S
S326 N328 1.610 . S
N327 S326 1.613 1_455 S
N327 C330 1.350 1_455 S
N328 S326 1.610 . S
N328 C329 1.351 . S
C329 C323 1.428 . S
C329 N328 1.351 . S
C329 C330 1.434 . S
C330 C321 1.429 . S
C330 N327 1.350 1_655 S
C330 C329 1.434 . S
C331 C332 1.369 . S
C331 C333 1.419 . S
C331 H335 0.930 . S
C332 C331 1.369 . S
C332 C341 1.429 . S
C333 C331 1.419 . S
C333 C334 1.363 . S
C333 H336 0.929 . S
C334 C333 1.363 . S
C334 C340 1.428 . S
H335 C331 0.930 . S
H336 C333 0.929 . S
S337 N338 1.613 . S
S337 N339 1.610 . S
N338 S337 1.613 . S
N338 C341 1.350 . S
N339 S337 1.610 . S
N339 C340 1.351 . S
C340 C334 1.428 . S
C340 N339 1.351 . S
C340 C341 1.434 . S
C341 C332 1.429 . S
C341 N338 1.350 . S
C341 C340 1.434 . S
C342 C343 1.369 . S
C342 C344 1.419 . S
C342 H346 0.930 . S
C343 C342 1.369 . S
C343 C352 1.429 . S
C344 C342 1.419 . S
C344 C345 1.363 . S
C344 H347 0.929 . S
C345 C344 1.363 . S
C345 C351 1.428 . S
H346 C342 0.930 . S
H347 C344 0.929 . S
S348 N349 1.613 . S
S348 N350 1.610 1_556 S
N349 S348 1.613 . S
N349 C352 1.350 1_556 S
N350 S348 1.610 1_554 S
N350 C351 1.351 . S
C351 C345 1.428 . S
C351 N350 1.351 . S
C351 C352 1.434 . S
C352 C343 1.429 . S
C352 N349 1.350 1_554 S
C352 C351 1.434 . S
C353 C354 1.369 . S
C353 C355 1.419 . S
C353 H357 0.930 . S
C354 C353 1.369 . S
C354 C363 1.429 . S
C355 C353 1.419 . S
C355 C356 1.363 . S
C355 H358 0.929 . S
C356 C355 1.363 . S
C356 C362 1.428 . S
H357 C353 0.930 . S
H358 C355 0.929 . S
S359 N360 1.613 . S
S359 N361 1.610 . S
N360 S359 1.613 . S
N360 C363 1.350 . S
N361 S359 1.610 . S
N361 C362 1.351 . S
C362 C356 1.428 . S
C362 N361 1.351 . S
C362 C363 1.434 . S
C363 C354 1.429 . S
C363 N360 1.350 . S
C363 C362 1.434 . S
C364 C365 1.369 . S
C364 C366 1.419 . S
C364 H368 0.930 . S
C365 C364 1.369 . S
C365 C374 1.429 . S
C366 C364 1.419 . S
C366 C367 1.363 . S
C366 H369 0.929 . S
C367 C366 1.363 . S
C367 C373 1.428 . S
H368 C364 0.930 . S
H369 C366 0.929 . S
S370 N371 1.613 . S
S370 N372 1.610 . S
N371 S370 1.613 . S
N371 C374 1.350 . S
N372 S370 1.610 . S
N372 C373 1.351 . S
C373 C367 1.428 . S
C373 N372 1.351 . S
C373 C374 1.434 . S
C374 C365 1.429 . S
C374 N371 1.350 . S
C374 C373 1.434 . S
C375 C376 1.369 1_565 S
C375 C377 1.419 1_565 S
C375 H379 0.930 . S
C376 C375 1.369 1_545 S
C376 C385 1.429 . S
C377 C375 1.419 1_545 S
C377 C378 1.363 . S
C377 H380 0.929 . S
C378 C377 1.363 . S
C378 C384 1.428 . S
H379 C375 0.930 . S
H380 C377 0.929 . S
S381 N382 1.613 . S
S381 N383 1.610 . S
N382 S381 1.613 . S
N382 C385 1.350 . S
N383 S381 1.610 . S
N383 C384 1.351 . S
C384 C378 1.428 . S
C384 N383 1.351 . S
C384 C385 1.434 . S
C385 C376 1.429 . S
C385 N382 1.350 . S
C385 C384 1.434 . S
C386 C387 1.369 . S
C386 C388 1.419 . S
C386 H390 0.930 . S
C387 C386 1.369 . S
C387 C396 1.429 . S
C388 C386 1.419 . S
C388 C389 1.363 . S
C388 H391 0.929 . S
C389 C388 1.363 . S
C389 C395 1.428 . S
H390 C386 0.930 . S
H391 C388 0.929 . S
S392 N393 1.613 . S
S392 N394 1.610 . S
N393 S392 1.613 . S
N393 C396 1.350 . S
N394 S392 1.610 . S
N394 C395 1.351 . S
C395 C389 1.428 . S
C395 N394 1.351 . S
C395 C396 1.434 . S
C396 C387 1.429 . S
C396 N393 1.350 . S
C396 C395 1.434 . S
C397 C398 1.369 . S
C397 C399 1.419 . S
C397 H401 0.930 . S
C398 C397 1.369 . S
C398 C407 1.429 . S
C399 C397 1.419 . S
C399 C400 1.363 . S
C399 H402 0.929 . S
C400 C399 1.363 . S
C400 C406 1.428 . S
H401 C397 0.930 . S
H402 C399 0.929 . S
S403 N404 1.613 . S
S403 N405 1.610 . S
N404 S403 1.613 . S
N404 C407 1.350 . S
N405 S403 1.610 . S
N405 C406 1.351 . S
C406 C400 1.428 . S
C406 N405 1.351 . S
C406 C407 1.434 . S
C407 C398 1.429 . S
C407 N404 1.350 . S
C407 C406 1.434 . S
C408 C409 1.369 . S
C408 C410 1.419 . S
C408 H412 0.930 . S
C409 C408 1.369 . S
C409 C418 1.429 1_455 S
C410 C408 1.419 . S
C410 C411 1.363 . S
C410 H413 0.929 . S
C411 C410 1.363 . S
C411 C417 1.428 1_455 S
H412 C408 0.930 . S
H413 C410 0.929 . S
S414 N415 1.613 . S
S414 N416 1.610 . S
N415 S414 1.613 . S
N415 C418 1.350 . S
N416 S414 1.610 . S
N416 C417 1.351 . S
C417 C411 1.428 1_655 S
C417 N416 1.351 . S
C417 C418 1.434 . S
C418 C409 1.429 1_655 S
C418 N415 1.350 . S
C418 C417 1.434 . S
C419 C420 1.369 1_565 S
C419 C421 1.419 . S
C419 H423 0.930 . S
C420 C419 1.369 1_545 S
C420 C429 1.429 . S
C421 C419 1.419 . S
C421 C422 1.363 1_565 S
C421 H424 0.929 . S
C422 C421 1.363 1_545 S
C422 C428 1.428 . S
H423 C419 0.930 . S
H424 C421 0.929 . S
S425 N426 1.613 . S
S425 N427 1.610 . S
N426 S425 1.613 . S
N426 C429 1.350 . S
N427 S425 1.610 . S
N427 C428 1.351 . S
C428 C422 1.428 . S
C428 N427 1.351 . S
C428 C429 1.434 . S
C429 C420 1.429 . S
C429 N426 1.350 . S
C429 C428 1.434 . S
C430 C431 1.369 . S
C430 C432 1.419 . S
C430 H434 0.930 . S
C431 C430 1.369 . S
C431 C440 1.429 . S
C432 C430 1.419 . S
C432 C433 1.363 . S
C432 H435 0.929 . S
C433 C432 1.363 . S
C433 C439 1.428 . S
H434 C430 0.930 . S
H435 C432 0.929 . S
S436 N437 1.613 . S
S436 N438 1.610 . S
N437 S436 1.613 . S
N437 C440 1.350 . S
N438 S436 1.610 . S
N438 C439 1.351 . S
C439 C433 1.428 . S
C439 N438 1.351 . S
C439 C440 1.434 . S
C440 C431 1.429 . S
C440 N437 1.350 . S
C440 C439 1.434 . S
C441 C442 1.369 . S
C441 C443 1.419 . S
C441 H445 0.930 . S
C442 C441 1.369 . S
C442 C451 1.429 . S
C443 C441 1.419 . S
C443 C444 1.363 . S
C443 H446 0.929 . S
C444 C443 1.363 . S
C444 C450 1.428 . S
H445 C441 0.930 . S
H446 C443 0.929 . S
S447 N448 1.613 . S
S447 N449 1.610 . S
N448 S447 1.613 . S
N448 C451 1.350 1_554 S
N449 S447 1.610 . S
N449 C450 1.351 1_554 S
C450 C444 1.428 . S
C450 N449 1.351 1_556 S
C450 C451 1.434 . S
C451 C442 1.429 . S
C451 N448 1.350 1_556 S
C451 C450 1.434 . S
C452 C453 1.369 . S
C452 C454 1.419 . S
C452 H456 0.930 . S
C453 C452 1.369 . S
C453 C462 1.429 1_655 S
C454 C452 1.419 . S
C454 C455 1.363 . S
C454 H457 0.929 . S
C455 C454 1.363 . S
C455 C461 1.431 . S
H456 C452 0.930 . S
H457 C454 0.929 . S
S458 N459 1.613 . S
S458 N460 1.610 . S
N459 S458 1.613 . S
N459 C462 1.350 . S
N460 S458 1.610 . S
N460 C461 1.349 1_455 S
C461 C455 1.431 . S
C461 N460 1.349 1_655 S
C461 C462 1.433 1_655 S
C462 C453 1.429 1_455 S
C462 N459 1.350 . S
C462 C461 1.433 1_455 S
C463 C464 1.369 1_545 S
C463 C465 1.419 . S
C463 H467 0.930 . S
C464 C463 1.369 1_565 S
C464 C473 1.429 . S
C465 C463 1.419 . S
C465 C466 1.363 1_545 S
C465 H468 0.929 . S
C466 C465 1.363 1_565 S
C466 C472 1.428 . S
H467 C463 0.930 . S
H468 C465 0.929 . S
S469 N470 1.613 . S
S469 N471 1.610 . S
N470 S469 1.613 . S
N470 C473 1.350 . S
N471 S469 1.610 . S
N471 C472 1.351 . S
C472 C466 1.428 . S
C472 N471 1.351 . S
C472 C473 1.434 . S
C473 C464 1.429 . S
C473 N470 1.350 . S
C473 C472 1.434 . S
C474 C475 1.369 . S
C474 C476 1.419 . S
C474 H478 0.930 . S
C475 C474 1.369 . S
C475 C484 1.429 . S
C476 C474 1.419 . S
C476 C477 1.363 . S
C476 H479 0.929 . S
C477 C476 1.363 . S
C477 C483 1.428 . S
H478 C474 0.930 . S
H479 C476 0.929 . S
S480 N481 1.613 . S
S480 N482 1.610 . S
N481 S480 1.613 . S
N481 C484 1.350 . S
N482 S480 1.610 . S
N482 C483 1.351 . S
C483 C477 1.428 . S
C483 N482 1.351 . S
C483 C484 1.434 . S
C484 C475 1.429 . S
C484 N481 1.350 . S
C484 C483 1.434 . S
C485 C486 1.369 . S
C485 C487 1.419 . S
C485 H489 0.930 . S
C486 C485 1.369 . S
C486 C495 1.429 . S
C487 C485 1.419 . S
C487 C488 1.363 . S
C487 H490 0.929 . S
C488 C487 1.363 . S
C488 C494 1.428 . S
H489 C485 0.930 . S
H490 C487 0.929 . S
S491 N492 1.613 . S
S491 N493 1.610 . S
N492 S491 1.613 . S
N492 C495 1.350 . S
N493 S491 1.610 . S
N493 C494 1.351 . S
C494 C488 1.428 . S
C494 N493 1.351 . S
C494 C495 1.434 . S
C495 C486 1.429 . S
C495 N492 1.350 . S
C495 C494 1.434 . S
C233 C61 1.980 1_545 S
C235 C74 2.246 . S
C246 C114 2.270 . S
C244 C70 2.021 . S
C257 C154 2.278 . S
C255 C43 2.024 . S
C268 C194 2.260 1_455 S
C266 C52 2.006 1_455 S
C279 C87 2.244 1_554 S
C277 C25 1.992 1_545 S
C288 C34 2.036 . S
C290 C127 2.270 1_554 S
C299 C7 2.023 . S
C301 C167 2.280 1_554 S
C310 C16 2.009 . S
C312 C207 2.260 1_654 S
C323 C98 0.834 . S
C321 C50 0.852 . S
C334 C138 0.822 . S
C332 C59 0.836 . S
C345 C178 0.809 . S
C343 C67 0.805 . S
C354 C41 0.830 . S
C356 C218 0.816 . S
C365 C14 0.856 1_455 S
C367 C81 0.838 . S
C378 C121 0.828 . S
C376 C23 0.823 1_545 S
C389 C161 0.805 . S
C387 C31 0.815 . S
C398 C5 0.839 . S
C400 C201 0.815 . S
C409 C49 2.282 1_455 S
C411 C75 2.606 . S
C420 C58 2.229 1_545 S
C422 C115 2.553 . S
C433 C155 2.538 . S
C431 C68 2.209 . S
C444 C195 2.593 . S
C442 C40 2.254 . S
C453 C13 2.275 . S
C455 C94 2.613 . S
C466 C134 2.555 . S
C464 C22 2.220 . S
C477 C174 2.541 . S
C475 C32 2.212 . S
C486 C4 2.255 . S
C488 C214 2.597 . S
