# Generated by pormake.
# Topology pyr, (3,6)-cn, num edge types: 1
# Building blocks:
#     Node 0, Type 0, BuildingBlock: BETDAH_clean_linker_0, # of connection points: 3
#     Node 1, Type 0, BuildingBlock: BETDAH_clean_linker_0, # of connection points: 3
#     Node 2, Type 0, BuildingBlock: BETDAH_clean_linker_0, # of connection points: 3
#     Node 3, Type 0, BuildingBlock: BETDAH_clean_linker_0, # of connection points: 3
#     Node 4, Type 0, BuildingBlock: BETDAH_clean_linker_0, # of connection points: 3
#     Node 5, Type 0, BuildingBlock: BETDAH_clean_linker_0, # of connection points: 3
#     Node 6, Type 0, BuildingBlock: BETDAH_clean_linker_0, # of connection points: 3
#     Node 7, Type 0, BuildingBlock: BETDAH_clean_linker_0, # of connection points: 3
#     Node 8, Type 1, BuildingBlock: VOLQOD_clean_sbu_1, # of connection points: 6
#     Node 9, Type 1, BuildingBlock: VOLQOD_clean_sbu_1, # of connection points: 6
#     Node 10, Type 1, BuildingBlock: VOLQOD_clean_sbu_1, # of connection points: 6
#     Node 11, Type 1, BuildingBlock: VOLQOD_clean_sbu_1, # of connection points: 6
#     Edge 12, Type (0, 1), BuildingBlock: CIFDUS_clean_linker_0, # of connection points: 2
#     Edge 13, Type (0, 1), BuildingBlock: CIFDUS_clean_linker_0, # of connection points: 2
#     Edge 14, Type (0, 1), BuildingBlock: CIFDUS_clean_linker_0, # of connection points: 2
#     Edge 15, Type (0, 1), BuildingBlock: CIFDUS_clean_linker_0, # of connection points: 2
#     Edge 16, Type (0, 1), BuildingBlock: CIFDUS_clean_linker_0, # of connection points: 2
#     Edge 17, Type (0, 1), BuildingBlock: CIFDUS_clean_linker_0, # of connection points: 2
#     Edge 18, Type (0, 1), BuildingBlock: CIFDUS_clean_linker_0, # of connection points: 2
#     Edge 19, Type (0, 1), BuildingBlock: CIFDUS_clean_linker_0, # of connection points: 2
#     Edge 20, Type (0, 1), BuildingBlock: CIFDUS_clean_linker_0, # of connection points: 2
#     Edge 21, Type (0, 1), BuildingBlock: CIFDUS_clean_linker_0, # of connection points: 2
#     Edge 22, Type (0, 1), BuildingBlock: CIFDUS_clean_linker_0, # of connection points: 2
#     Edge 23, Type (0, 1), BuildingBlock: CIFDUS_clean_linker_0, # of connection points: 2
#     Edge 24, Type (0, 1), BuildingBlock: CIFDUS_clean_linker_0, # of connection points: 2
#     Edge 25, Type (0, 1), BuildingBlock: CIFDUS_clean_linker_0, # of connection points: 2
#     Edge 26, Type (0, 1), BuildingBlock: CIFDUS_clean_linker_0, # of connection points: 2
#     Edge 27, Type (0, 1), BuildingBlock: CIFDUS_clean_linker_0, # of connection points: 2
#     Edge 28, Type (0, 1), BuildingBlock: CIFDUS_clean_linker_0, # of connection points: 2
#     Edge 29, Type (0, 1), BuildingBlock: CIFDUS_clean_linker_0, # of connection points: 2
#     Edge 30, Type (0, 1), BuildingBlock: CIFDUS_clean_linker_0, # of connection points: 2
#     Edge 31, Type (0, 1), BuildingBlock: CIFDUS_clean_linker_0, # of connection points: 2
#     Edge 32, Type (0, 1), BuildingBlock: CIFDUS_clean_linker_0, # of connection points: 2
#     Edge 33, Type (0, 1), BuildingBlock: CIFDUS_clean_linker_0, # of connection points: 2
#     Edge 34, Type (0, 1), BuildingBlock: CIFDUS_clean_linker_0, # of connection points: 2
#     Edge 35, Type (0, 1), BuildingBlock: CIFDUS_clean_linker_0, # of connection points: 2
# Relax obj value: 0.107
# Max RMSD: 0.189
# Mean RMSD: 0.147
data_MOF--net-pry--node1-VOLQOD_clean_sbu_1--node2-BETDAH_clean_linker_0--edge1-CIFDUS_clean_linker_0
_symmetry_space_group_name_H-M    P1
_symmetry_Int_Tables_number       1
_symmetry_cell_setting            triclinic
loop_
_symmetry_equiv_pos_as_xyz
'x, y, z'
_cell_length_a     31.741328
_cell_length_b     32.126721
_cell_length_c     33.705132
_cell_angle_alpha  90.293506
_cell_angle_beta   90.96061
_cell_angle_gamma 96.639894
loop_
_atom_site_label
_atom_site_type_symbol
_atom_site_fract_x
_atom_site_fract_y
_atom_site_fract_z
_atom_type_partial_charge
H0 H 0.19467 0.11074 0.22341 0.0
H1 H 0.18371 0.15048 0.10211 0.0
H2 H 0.09176 0.17888 0.18695 0.0
C3 C 0.17901 0.12723 0.20054 0.0
C4 C 0.14208 0.14524 0.20994 0.0
C5 C 0.19462 0.12865 0.16169 0.0
C6 C 0.17239 0.14855 0.13225 0.0
C7 C 0.13591 0.16717 0.14123 0.0
C8 C 0.12062 0.16548 0.18015 0.0
N9 N 0.11357 0.18435 0.10968 0.0
C10 C 0.0981 0.22308 0.11107 0.0
H11 H 0.44323 0.86617 0.72303 0.0
H12 H 0.38902 0.9795 0.6921 0.0
H13 H 0.402 0.88682 0.60332 0.0
C14 C 0.42903 0.8856 0.70164 0.0
C15 C 0.4222 0.87081 0.66236 0.0
C16 C 0.41769 0.92519 0.71314 0.0
C17 C 0.39905 0.94946 0.68437 0.0
C18 C 0.39405 0.93569 0.64494 0.0
C19 C 0.40583 0.89681 0.63407 0.0
N20 N 0.37946 0.96178 0.6153 0.0
C21 C 0.33797 0.97137 0.61408 0.0
H22 H 0.65263 0.37157 1.0012 0.0
H23 H 0.61613 0.48695 0.95506 0.0
H24 H 0.52391 0.37935 0.96226 0.0
C25 C 0.62885 0.38919 0.98826 0.0
C26 C 0.58762 0.36917 0.98106 0.0
C27 C 0.64018 0.43126 0.97791 0.0
C28 C 0.60835 0.45463 0.96384 0.0
C29 C 0.5662 0.43619 0.96006 0.0
C30 C 0.556 0.39358 0.96827 0.0
N31 N 0.53433 0.45943 0.94502 0.0
C32 C 0.54041 0.48117 0.90978 0.0
H33 H 0.86885 0.69965 0.47756 0.0
H34 H 0.93818 0.68262 0.37122 0.0
H35 H 0.85393 0.58067 0.41622 0.0
C36 C 0.87645 0.67963 0.45338 0.0
C37 C 0.85686 0.63814 0.45066 0.0
C38 C 0.90538 0.69604 0.42468 0.0
C39 C 0.91552 0.67037 0.39316 0.0
C40 C 0.89766 0.62831 0.39118 0.0
C41 C 0.86854 0.61268 0.41961 0.0
N42 N 0.90893 0.60007 0.36187 0.0
C43 C 0.92243 0.61105 0.324 0.0
H44 H 0.95174 0.86268 0.83673 0.0
H45 H 0.89904 0.89625 0.94788 0.0
H46 H 0.908 0.98383 0.85255 0.0
C47 C 0.93749 0.88501 0.85485 0.0
C48 C 0.93008 0.92411 0.83884 0.0
C49 C 0.92729 0.87488 0.89452 0.0
C50 C 0.90781 0.90361 0.91756 0.0
C51 C 0.90055 0.94248 0.902 0.0
C52 C 0.91251 0.95292 0.86333 0.0
N53 N 0.88335 0.97253 0.92566 0.0
C54 C 0.84269 0.96544 0.94054 0.0
H55 H 0.6712 0.09293 0.36345 0.0
H56 H 0.64746 0.15828 0.47178 0.0
H57 H 0.54852 0.13223 0.38437 0.0
C58 C 0.65024 0.10811 0.38237 0.0
C59 C 0.60822 0.11044 0.36951 0.0
C60 C 0.66495 0.12458 0.41965 0.0
C61 C 0.63738 0.14567 0.44285 0.0
C62 C 0.59561 0.14851 0.42985 0.0
C63 C 0.58098 0.13005 0.39389 0.0
N64 N 0.56698 0.16799 0.45343 0.0
C65 C 0.57579 0.20884 0.4674 0.0
H66 H 0.33528 0.70341 0.12252 0.0
H67 H 0.3111 0.58512 0.18155 0.0
H68 H 0.42487 0.66722 0.20945 0.0
C69 C 0.34518 0.68061 0.14331 0.0
C70 C 0.3834 0.68939 0.16485 0.0
C71 C 0.31869 0.64354 0.14986 0.0
C72 C 0.33137 0.61413 0.17671 0.0
C73 C 0.3695 0.62232 0.19824 0.0
C74 C 0.3953 0.6605 0.19287 0.0
N75 N 0.38104 0.59126 0.22463 0.0
C76 C 0.40476 0.60021 0.25918 0.0
H77 H 0.1701 0.3893 0.57788 0.0
H78 H 0.13839 0.51295 0.6032 0.0
H79 H 0.0449 0.40704 0.61785 0.0
C80 C 0.14727 0.40945 0.58791 0.0
C81 C 0.10595 0.39212 0.59757 0.0
C82 C 0.15968 0.45278 0.5907 0.0
C83 C 0.12949 0.47942 0.60084 0.0
C84 C 0.08826 0.46281 0.61041 0.0
C85 C 0.07667 0.41932 0.60937 0.0
N86 N 0.05888 0.4902 0.622 0.0
C87 C 0.04462 0.49018 0.66065 0.0
O88 O 0.98282 0.13297 0.55772 0.0
Zn89 Zn 0.96026 0.07211 0.54798 0.0
O90 O 0.00083 0.04375 0.51693 0.0
Zn91 Zn 0.97322 0.02026 0.46782 0.0
Zn92 Zn 0.0503 0.08312 0.50376 0.0
Zn93 Zn 0.0205 0.99878 0.54842 0.0
O94 O 0.97236 0.95698 0.46534 0.0
O95 O 0.00405 0.94312 0.52218 0.0
O96 O 0.90446 0.07207 0.51793 0.0
O97 O 0.91262 0.03353 0.46422 0.0
O98 O 0.00273 0.04597 0.41943 0.0
O99 O 0.05497 0.09093 0.4444 0.0
O100 O 0.10503 0.06389 0.52397 0.0
O101 O 0.94938 0.04377 0.60172 0.0
O102 O 0.08383 0.00579 0.5567 0.0
O103 O 0.99431 0.99569 0.60202 0.0
C104 C 0.01753 0.15462 0.5488 0.0
C105 C 0.98554 0.93091 0.48968 0.0
C106 C 0.03417 0.0739 0.41471 0.0
C107 C 0.89013 0.055 0.48546 0.0
C108 C 0.1133 0.03295 0.54501 0.0
C109 C 0.96628 0.01438 0.61903 0.0
O110 O 0.04587 0.13917 0.52898 0.0
O111 O 0.48153 0.1023 0.00179 0.0
Zn112 Zn 0.46276 0.04057 0.00991 0.0
O113 O 0.50358 0.0153 0.04409 0.0
Zn114 Zn 0.52229 0.9666 0.01724 0.0
Zn115 Zn 0.55291 0.05572 0.05479 0.0
Zn116 Zn 0.4773 0.99906 0.0948 0.0
O117 O 0.50484 0.91442 0.04812 0.0
O118 O 0.47137 0.93606 0.10049 0.0
O119 O 0.45524 0.01113 0.95614 0.0
O120 O 0.49377 0.95796 0.96351 0.0
O121 O 0.58627 0.9728 0.00916 0.0
O122 O 0.6052 0.03718 0.03201 0.0
O123 O 0.56475 0.06391 0.1132 0.0
O124 O 0.40599 0.03893 0.03642 0.0
O125 O 0.51235 0.0239 0.14165 0.0
O126 O 0.4192 0.01905 0.09808 0.0
C127 C 0.51511 0.12561 0.01227 0.0
C128 C 0.48442 0.9068 0.07997 0.0
C129 C 0.61457 0.00367 0.0159 0.0
C130 C 0.46894 0.97801 0.94291 0.0
C131 C 0.54627 0.04923 0.14418 0.0
C132 C 0.39444 0.03237 0.07211 0.0
O133 O 0.54483 0.11143 0.0319 0.0
O134 O 0.56646 0.55484 0.66641 0.0
Zn135 Zn 0.5623 0.58194 0.61227 0.0
O136 O 0.52623 0.54502 0.57545 0.0
Zn137 Zn 0.55966 0.52691 0.53152 0.0
Zn138 Zn 0.50245 0.49486 0.60256 0.0
Zn139 Zn 0.47985 0.57503 0.55562 0.0
O140 O 0.53591 0.54526 0.47942 0.0
O141 O 0.48336 0.58156 0.49635 0.0
O142 O 0.62095 0.59607 0.58951 0.0
O143 O 0.61961 0.55417 0.5365 0.0
O144 O 0.56081 0.4638 0.52871 0.0
O145 O 0.51867 0.44237 0.57797 0.0
O146 O 0.43904 0.48952 0.60256 0.0
O147 O 0.53804 0.63657 0.62124 0.0
O148 O 0.42243 0.54356 0.5673 0.0
O149 O 0.48137 0.63224 0.58135 0.0
C150 C 0.54868 0.52018 0.67967 0.0
C151 C 0.50642 0.56734 0.47005 0.0
C152 C 0.54218 0.43438 0.54942 0.0
C153 C 0.63905 0.58143 0.55988 0.0
C154 C 0.41145 0.51038 0.58689 0.0
C155 C 0.50597 0.6522 0.607 0.0
O156 O 0.52366 0.49541 0.65823 0.0
O157 O 0.95963 0.52554 0.08398 0.0
Zn158 Zn 0.97082 0.49921 0.03181 0.0
O159 O 9e-05 0.54141 0.9973 0.0
Zn160 Zn 0.9641 0.54935 0.95139 0.0
Zn161 Zn 0.01215 0.59528 0.02559 0.0
Zn162 Zn 0.05244 0.52115 0.97965 0.0
O163 O 0.98842 0.52789 0.90155 0.0
O164 O 0.05269 0.5139 0.92014 0.0
O165 O 0.91346 0.47739 0.00911 0.0
O166 O 0.90535 0.52011 0.95844 0.0
O167 O 0.95915 0.61013 0.94241 0.0
O168 O 0.9922 0.64377 0.99373 0.0
O169 O 0.07514 0.60678 0.03561 0.0
O170 O 0.00431 0.45031 0.0424 0.0
O171 O 0.10315 0.56035 0.99785 0.0
O172 O 0.06017 0.46509 0.00423 0.0
C173 C 0.96579 0.5623 0.09886 0.0
C174 C 0.02434 0.51635 0.8933 0.0
C175 C 0.97145 0.64406 0.96096 0.0
C176 C 0.89093 0.49081 0.98146 0.0
C177 C 0.10718 0.59149 0.02169 0.0
C178 C 0.03932 0.44113 0.02883 0.0
O179 O 0.98477 0.59284 0.07969 0.0
H180 H 0.06494 0.10812 0.23192 0.0
H181 H 0.18289 0.17028 0.27896 0.0
H182 H 0.15919 0.15541 0.34672 0.0
H183 H 0.10667 0.12122 0.3923 0.0
H184 H 0.99011 0.05545 0.34512 0.0
H185 H 0.01147 0.07509 0.27788 0.0
C186 C 0.08501 0.11897 0.25713 0.0
C187 C 0.12539 0.14053 0.25067 0.0
C188 C 0.07165 0.1092 0.29593 0.0
C189 C 0.1516 0.15378 0.28339 0.0
C190 C 0.13812 0.14514 0.32205 0.0
C191 C 0.08578 0.11134 0.36737 0.0
C192 C 0.04687 0.08674 0.3739 0.0
C193 C 0.0985 0.12226 0.32866 0.0
C194 C 0.02036 0.07415 0.34108 0.0
C195 C 0.03249 0.08547 0.30255 0.0
H196 H 0.41723 0.88115 0.78306 0.0
H197 H 0.43832 0.00718 0.73724 0.0
H198 H 0.45165 0.0346 0.80408 0.0
H199 H 0.46061 0.02312 0.87582 0.0
H200 H 0.44904 0.89686 0.92031 0.0
H201 H 0.42977 0.86934 0.85382 0.0
C202 C 0.42535 0.91458 0.78732 0.0
C203 C 0.42619 0.94178 0.75454 0.0
C204 C 0.43496 0.93026 0.82588 0.0
C205 C 0.43607 0.98518 0.76151 0.0
C206 C 0.44425 1.00106 0.7999 0.0
C207 C 0.45354 0.98963 0.87088 0.0
C208 C 0.45591 0.96204 0.90283 0.0
C209 C 0.44399 0.97393 0.8323 0.0
C210 C 0.44742 0.91867 0.89606 0.0
C211 C 0.4364 0.90294 0.85809 0.0
H212 H 0.54882 0.4348 0.84632 0.0
H213 H 0.54711 0.56218 0.8858 0.0
H214 H 0.55488 0.5869 0.81702 0.0
H215 H 0.55666 0.57083 0.74506 0.0
H216 H 0.55414 0.44217 0.70685 0.0
H217 H 0.55428 0.4192 0.77568 0.0
C218 C 0.55048 0.46798 0.83967 0.0
C219 C 0.5472 0.4968 0.87031 0.0
C220 C 0.55431 0.48156 0.80039 0.0
C221 C 0.54942 0.53968 0.86211 0.0
C222 C 0.55388 0.55369 0.82295 0.0
C223 C 0.55701 0.53794 0.752 0.0
C224 C 0.55537 0.50817 0.72115 0.0
C225 C 0.55569 0.52478 0.79174 0.0
C226 C 0.55522 0.46554 0.73027 0.0
C227 C 0.55518 0.45238 0.76953 0.0
H228 H 0.89083 0.55526 0.27078 0.0
H229 H 0.97688 0.66824 0.28533 0.0
H230 H 0.99655 0.66476 0.21509 0.0
H231 H 0.99138 0.62681 0.15054 0.0
H232 H 0.90635 0.51214 0.13862 0.0
H233 H 0.88394 0.51908 0.20672 0.0
C234 C 0.91359 0.57929 0.2583 0.0
C235 C 0.93242 0.61196 0.28251 0.0
C236 C 0.92496 0.57659 0.2185 0.0
C237 C 0.96202 0.64292 0.26671 0.0
C238 C 0.97325 0.64081 0.22674 0.0
C239 C 0.96767 0.60361 0.16279 0.0
C240 C 0.95076 0.56888 0.13952 0.0
C241 C 0.95525 0.60743 0.20244 0.0
C242 C 0.9202 0.53896 0.1559 0.0
C243 C 0.90726 0.54289 0.19487 0.0
H244 H 0.21206 0.08819 0.09311 0.0
H245 H 0.26612 0.1255 0.20816 0.0
H246 H 0.3305 0.09494 0.19207 0.0
H247 H 0.37341 0.06127 0.14402 0.0
H248 H 0.32237 0.03078 0.0267 0.0
H249 H 0.2552 0.0556 0.0448 0.0
C250 C 0.23801 0.0902 0.1146 0.0
C251 C 0.23385 0.1093 0.15188 0.0
C252 C 0.27568 0.0738 0.10469 0.0
C253 C 0.26778 0.11047 0.1795 0.0
C254 C 0.3049 0.09327 0.17021 0.0
C255 C 0.34735 0.05955 0.12262 0.0
C256 C 0.3527 0.04395 0.08417 0.0
C257 C 0.30936 0.07518 0.1328 0.0
C258 C 0.31897 0.04263 0.05649 0.0
C259 C 0.28061 0.05688 0.06681 0.0
H260 H 0.31119 0.03216 0.56983 0.0
H261 H 0.26861 0.92859 0.64534 0.0
H262 H 0.19444 0.93907 0.63132 0.0
H263 H 0.14216 0.97604 0.59537 0.0
H264 H 0.18511 0.07967 0.51936 0.0
H265 H 0.2587 0.07095 0.53579 0.0
C266 C 0.2855 0.01231 0.58345 0.0
C267 C 0.29473 0.97987 0.60862 0.0
C268 C 0.24319 0.01836 0.57494 0.0
C269 C 0.26174 0.95391 0.62603 0.0
C270 C 0.21951 0.95982 0.61789 0.0
C271 C 0.16756 0.9968 0.58241 0.0
C272 C 0.15798 0.0283 0.55594 0.0
C273 C 0.20987 0.99165 0.592 0.0
C274 C 0.19143 0.05508 0.53972 0.0
C275 C 0.2336 0.05014 0.54909 0.0
H276 H 0.70977 0.39136 0.96351 0.0
H277 H 0.6733 0.5126 0.99523 0.0
H278 H 0.7476 0.54222 0.99572 0.0
H279 H 0.82333 0.53319 0.98914 0.0
H280 H 0.8595 0.41022 0.96648 0.0
H281 H 0.78463 0.38129 0.96147 0.0
C282 C 0.71779 0.42407 0.9715 0.0
C283 C 0.68556 0.44952 0.97949 0.0
C284 C 0.76059 0.44053 0.97336 0.0
C285 C 0.69709 0.49223 0.98835 0.0
C286 C 0.73968 0.50919 0.98895 0.0
C287 C 0.81454 0.50012 0.98291 0.0
C288 C 0.84628 0.47372 0.97766 0.0
C289 C 0.77165 0.4836 0.9816 0.0
C290 C 0.83517 0.43087 0.97036 0.0
C291 C 0.79256 0.41446 0.96755 0.0
H292 H 0.79865 0.68204 0.48672 0.0
H293 H 0.83719 0.55756 0.4779 0.0
H294 H 0.77396 0.52919 0.5128 0.0
H295 H 0.70416 0.5388 0.54005 0.0
H296 H 0.6696 0.6636 0.55541 0.0
H297 H 0.73596 0.69302 0.52503 0.0
C298 C 0.79427 0.64888 0.49333 0.0
C299 C 0.82245 0.62201 0.4783 0.0
C300 C 0.75848 0.63277 0.51469 0.0
C301 C 0.8154 0.57901 0.48737 0.0
C302 C 0.77936 0.56267 0.50778 0.0
C303 C 0.71174 0.57247 0.53746 0.0
C304 C 0.68222 0.5991 0.5495 0.0
C305 C 0.75008 0.58909 0.52051 0.0
C306 C 0.69216 0.64265 0.54642 0.0
C307 C 0.72987 0.65939 0.5288 0.0
H308 H 0.13343 0.2813 0.06233 0.0
H309 H 0.03022 0.25428 0.14291 0.0
H310 H 0.0028 0.32035 0.12504 0.0
H311 H 0.00706 0.3844 0.08423 0.0
H312 H 0.11062 0.41004 0.00304 0.0
H313 H 0.13896 0.34602 0.02332 0.0
C314 C 0.10521 0.29029 0.07625 0.0
C315 C 0.08388 0.26356 0.10399 0.0
C316 C 0.08955 0.32785 0.06543 0.0
C317 C 0.04718 0.27485 0.12168 0.0
C318 C 0.03148 0.31243 0.11131 0.0
C319 C 0.03584 0.37605 0.07097 0.0
C320 C 0.05644 0.40212 0.04191 0.0
C321 C 0.05215 0.33897 0.08282 0.0
C322 C 0.09389 0.39071 0.02532 0.0
C323 C 0.11024 0.35404 0.03693 0.0
H324 H 0.51332 0.32068 1.00049 0.0
H325 H 0.64253 0.31158 0.96548 0.0
H326 H 0.63121 0.23623 0.97204 0.0
H327 H 0.5857 0.17254 0.98901 0.0
H328 H 0.45449 0.17913 0.01615 0.0
H329 H 0.4651 0.25569 0.00973 0.0
C330 C 0.53892 0.30239 0.99371 0.0
C331 C 0.57919 0.32255 0.9838 0.0
C332 C 0.53176 0.25841 0.99566 0.0
C333 C 0.61173 0.29768 0.9751 0.0
C334 C 0.6052 0.25426 0.97819 0.0
C335 C 0.55937 0.1908 0.99311 0.0
C336 C 0.51955 0.17062 0.00327 0.0
C337 C 0.56555 0.23437 0.9888 0.0
C338 C 0.48542 0.19425 0.00809 0.0
C339 C 0.49158 0.23794 0.00473 0.0
H340 H 0.94501 0.73423 0.48877 0.0
H341 H 0.90745 0.75678 0.36808 0.0
H342 H 0.9308 0.83183 0.37665 0.0
H343 H 0.95714 0.89152 0.42039 0.0
H344 H 0.99517 0.86742 0.54103 0.0
H345 H 0.97641 0.79261 0.53051 0.0
C346 C 0.94226 0.75563 0.4643 0.0
C347 C 0.92425 0.7403 0.42802 0.0
C348 C 0.95553 0.79846 0.46953 0.0
C349 C 0.92136 0.76802 0.39627 0.0
C350 C 0.93444 0.81088 0.40126 0.0
C351 C 0.96158 0.86988 0.44428 0.0
C352 C 0.97717 0.88527 0.48155 0.0
C353 C 0.95081 0.82658 0.43805 0.0
C354 C 0.98314 0.85665 0.51204 0.0
C355 C 0.97234 0.81375 0.50614 0.0
H356 H 0.49221 0.8318 0.68093 0.0
H357 H 0.37268 0.81398 0.61669 0.0
H358 H 0.38821 0.74548 0.59354 0.0
H359 H 0.4358 0.6909 0.59074 0.0
H360 H 0.55506 0.70751 0.65562 0.0
H361 H 0.53941 0.7759 0.6794 0.0
C362 C 0.46941 0.81271 0.66222 0.0
C363 C 0.43148 0.8282 0.65035 0.0
C364 C 0.47852 0.77314 0.64895 0.0
C365 C 0.40243 0.80316 0.62577 0.0
C366 C 0.41119 0.76388 0.61261 0.0
C367 C 0.45849 0.70944 0.61001 0.0
C368 C 0.49664 0.69398 0.62117 0.0
C369 C 0.44925 0.74867 0.62375 0.0
C370 C 0.52544 0.71851 0.64644 0.0
C371 C 0.51652 0.75769 0.66011 0.0
H372 H 0.88746 0.97006 0.78679 0.0
H373 H 0.99877 0.90481 0.79676 0.0
H374 H 0.01866 0.92595 0.72965 0.0
H375 H 0.00598 0.96474 0.66903 0.0
H376 H 0.89735 0.03382 0.66041 0.0
H377 H 0.87568 0.01035 0.72671 0.0
C378 C 0.91639 0.96079 0.7746 0.0
C379 C 0.9415 0.93577 0.79717 0.0
C380 C 0.92838 0.97409 0.73633 0.0
C381 C 0.97831 0.92338 0.78015 0.0
C382 C 0.99 0.93584 0.74181 0.0
C383 C 0.97749 0.97469 0.68154 0.0
C384 C 0.9533 1.00102 0.65961 0.0
C385 C 0.96544 0.9614 0.71976 0.0
C386 C 0.91667 0.01374 0.67657 0.0
C387 C 0.90419 1.0002 0.71446 0.0
H388 H 0.64574 0.12244 0.298 0.0
H389 H 0.53505 0.05948 0.3538 0.0
H390 H 0.50652 0.03403 0.28917 0.0
H391 H 0.51197 0.03159 0.21668 0.0
H392 H 0.62206 0.09612 0.16069 0.0
H393 H 0.65186 0.1188 0.22544 0.0
C394 C 0.61564 0.10271 0.29597 0.0
C395 C 0.59251 0.09285 0.33053 0.0
C396 C 0.59918 0.08866 0.25868 0.0
C397 C 0.55326 0.06774 0.32751 0.0
C398 C 0.53697 0.05314 0.29061 0.0
C399 C 0.54256 0.05047 0.21858 0.0
C400 C 0.5646 0.06215 0.18374 0.0
C401 C 0.55945 0.06377 0.25594 0.0
C402 C 0.60421 0.08674 0.18692 0.0
C403 C 0.62138 0.09973 0.22398 0.0
H404 H 0.47114 0.56316 0.28523 0.0
H405 H 0.38147 0.64714 0.31914 0.0
H406 H 0.40758 0.6471 0.38801 0.0
H407 H 0.45134 0.61799 0.43912 0.0
H408 H 0.54044 0.53276 0.40534 0.0
H409 H 0.51955 0.53879 0.33582 0.0
C410 C 0.45808 0.58203 0.30773 0.0
C411 C 0.42476 0.60524 0.29772 0.0
C412 C 0.47284 0.58127 0.34719 0.0
C413 C 0.40744 0.62933 0.32663 0.0
C414 C 0.42218 0.62909 0.36589 0.0
C415 C 0.4665 0.60099 0.41657 0.0
C416 C 0.49703 0.57454 0.42759 0.0
C417 C 0.45415 0.60435 0.37666 0.0
C418 C 0.51666 0.55316 0.39782 0.0
C419 C 0.50469 0.5565 0.358 0.0
H420 H 0.09421 0.47961 0.7236 0.0
H421 H 0.96931 0.50685 0.68845 0.0
H422 H 0.95112 0.51587 0.75821 0.0
H423 H 0.97207 0.51882 0.82864 0.0
H424 H 0.09775 0.49246 0.86376 0.0
H425 H 0.11433 0.48008 0.79458 0.0
C426 C 0.06294 0.48716 0.73149 0.0
C427 C 0.03295 0.49255 0.70156 0.0
C428 C 0.05302 0.49261 0.77148 0.0
C429 C 0.99263 0.50249 0.71146 0.0
C430 C 0.98235 0.50772 0.75119 0.0
C431 C 0.00305 0.51018 0.82128 0.0
C432 C 0.03366 0.50682 0.85147 0.0
C433 C 0.01248 0.50331 0.78141 0.0
C434 C 0.07359 0.49544 0.84122 0.0
C435 C 0.08315 0.48836 0.80163 0.0
H436 H 0.81021 0.0261 0.97903 0.0
H437 H 0.77983 0.90131 0.93187 0.0
H438 H 0.70558 0.90134 0.95168 0.0
H439 H 0.64911 0.93838 0.98084 0.0
H440 H 0.68129 0.06404 0.02698 0.0
H441 H 0.75482 0.06217 0.00919 0.0
C442 C 0.78725 0.99884 0.97351 0.0
C443 C 0.79989 0.9637 0.95443 0.0
C444 C 0.74495 0.99939 0.98458 0.0
C445 C 0.77035 0.92856 0.94688 0.0
C446 C 0.72804 0.92869 0.95806 0.0
C447 C 0.67222 0.96529 0.98707 0.0
C448 C 0.6594 1.0013 0.00515 0.0
C449 C 0.71487 0.96414 0.97666 0.0
C450 C 0.68995 0.03587 0.01303 0.0
C451 C 0.73219 0.03491 0.0029 0.0
H452 H 0.70754 0.05621 0.40913 0.0
H453 H 0.72007 0.17842 0.46508 0.0
H454 H 0.78924 0.16647 0.4924 0.0
H455 H 0.84699 0.1218 0.49961 0.0
H456 H 0.8368 0.00251 0.43875 0.0
H457 H 0.76624 0.01326 0.41358 0.0
C458 C 0.72556 0.08069 0.42667 0.0
C459 C 0.70819 0.11819 0.43494 0.0
C460 C 0.76586 0.07411 0.4415 0.0
C461 C 0.732 0.14893 0.45864 0.0
C462 C 0.77181 0.14225 0.47413 0.0
C463 C 0.82916 0.09807 0.48104 0.0
C464 C 0.84694 0.06127 0.47129 0.0
C465 C 0.78902 0.10494 0.46582 0.0
C466 C 0.8238 0.03109 0.44667 0.0
C467 C 0.78346 0.03722 0.43228 0.0
H468 H 0.30006 0.63075 0.07169 0.0
H469 H 0.24342 0.64192 0.18595 0.0
H470 H 0.17247 0.63153 0.15533 0.0
H471 H 0.12683 0.61612 0.09668 0.0
H472 H 0.1826 0.59761 0.98312 0.0
H473 H 0.25378 0.61453 0.01248 0.0
C474 C 0.27201 0.63094 0.08961 0.0
C475 C 0.27642 0.63691 0.1308 0.0
C476 C 0.23143 0.6239 0.07191 0.0
C477 C 0.2403 0.63704 0.15414 0.0
C478 C 0.19992 0.63128 0.13667 0.0
C479 C 0.15459 0.61654 0.07826 0.0
C480 C 0.14971 0.60623 0.0378 0.0
C481 C 0.19512 0.62439 0.09565 0.0
C482 C 0.1858 0.60576 0.01435 0.0
C483 C 0.22638 0.61523 0.03113 0.0
H484 H 0.22842 0.42074 0.62058 0.0
H485 H 0.19216 0.52282 0.55 0.0
H486 H 0.26696 0.55023 0.54295 0.0
H487 H 0.34272 0.54454 0.55659 0.0
H488 H 0.37758 0.44145 0.6271 0.0
H489 H 0.3032 0.41493 0.63399 0.0
C490 C 0.23687 0.44871 0.60321 0.0
C491 C 0.20484 0.4695 0.58554 0.0
C492 C 0.27968 0.46414 0.59929 0.0
C493 C 0.21626 0.50632 0.56399 0.0
C494 C 0.25899 0.5219 0.55986 0.0
C495 C 0.33407 0.51631 0.5735 0.0
C496 C 0.36588 0.49509 0.59125 0.0
C497 C 0.291 0.50103 0.5774 0.0
C498 C 0.35395 0.45852 0.61306 0.0
C499 C 0.31135 0.44323 0.61705 0.0
H500 H 0.91617 0.7963 0.86207 0.0
H501 H 0.96319 0.86422 0.96747 0.0
H502 H 0.98115 0.79936 0.99747 0.0
H503 H 0.98369 0.72299 0.99381 0.0
H504 H 0.93616 0.65552 0.88808 0.0
H505 H 0.91877 0.72032 0.85833 0.0
C506 C 0.93063 0.79694 0.89148 0.0
C507 C 0.93818 0.83509 0.91246 0.0
C508 C 0.9409 0.75949 0.90862 0.0
C509 C 0.95647 0.83522 0.95081 0.0
C510 C 0.96699 0.79815 0.96795 0.0
C511 C 0.9696 0.72246 0.96425 0.0
C512 C 0.96133 0.68422 0.94338 0.0
C513 C 0.95932 0.76002 0.94716 0.0
C514 C 0.94288 0.6843 0.90507 0.0
C515 C 0.93288 0.72144 0.88788 0.0
H516 H 0.42063 0.71514 0.09685 0.0
H517 H 0.40329 0.75329 0.21757 0.0
H518 H 0.43564 0.82449 0.20266 0.0
H519 H 0.46238 0.87708 0.15325 0.0
H520 H 0.48102 0.83752 0.03281 0.0
H521 H 0.45499 0.76556 0.04964 0.0
C522 C 0.42478 0.73898 0.11996 0.0
C523 C 0.40968 0.72949 0.15809 0.0
C524 C 0.44317 0.77954 0.1111 0.0
C525 C 0.41506 0.7602 0.18805 0.0
C526 C 0.43319 0.80084 0.17943 0.0
C527 C 0.46108 0.85261 0.13083 0.0
C528 C 0.47307 0.86274 0.09173 0.0
C529 C 0.44632 0.81112 0.14076 0.0
C530 C 0.47187 0.83062 0.0631 0.0
C531 C 0.45687 0.78944 0.07264 0.0
H532 H 0.02883 0.34946 0.57604 0.0
H533 H 0.15573 0.32978 0.61415 0.0
H534 H 0.13942 0.25497 0.60233 0.0
H535 H 0.09053 0.19528 0.57792 0.0
H536 H 0.96165 0.21294 0.54668 0.0
H537 H 0.977 0.28832 0.56018 0.0
C538 C 0.05276 0.3289 0.58262 0.0
C539 C 0.09391 0.34583 0.59492 0.0
C540 C 0.04282 0.28545 0.57699 0.0
C541 C 0.1243 0.31821 0.60314 0.0
C542 C 0.11493 0.2752 0.59678 0.0
C543 C 0.06578 0.2157 0.57441 0.0
C544 C 0.02525 0.19898 0.56092 0.0
C545 C 0.0746 0.2586 0.58298 0.0
C546 C 0.99312 0.22534 0.55705 0.0
C547 C 0.00195 0.26837 0.56459 0.0
H548 H 0.53532 0.23816 0.52819 0.0
H549 H 0.62179 0.27535 0.43441 0.0
H550 H 0.62034 0.34946 0.45216 0.0
H551 H 0.59126 0.40351 0.49254 0.0
H552 H 0.5038 0.36489 0.58586 0.0
H553 H 0.50886 0.29172 0.5702 0.0
C554 C 0.55426 0.26263 0.51212 0.0
C555 C 0.57884 0.25189 0.48039 0.0
C556 C 0.55275 0.30486 0.5222 0.0
C557 C 0.60295 0.28336 0.45924 0.0
C558 C 0.60191 0.32558 0.46926 0.0
C559 C 0.57345 0.37911 0.50955 0.0
C560 C 0.547 0.38993 0.5402 0.0
C561 C 0.57641 0.33675 0.50037 0.0
C562 C 0.52431 0.35773 0.56202 0.0
C563 C 0.52715 0.31572 0.55313 0.0
loop_
_geom_bond_atom_site_label_1
_geom_bond_atom_site_label_2
_geom_bond_distance
_geom_bond_site_symmetry_2
_ccdc_geom_bond_type
H0 C3 0.929 . S
H1 C6 0.929 . S
H2 C8 0.930 . S
C3 H0 0.929 . S
C3 C4 1.398 . S
C3 C5 1.396 . S
C4 C3 1.398 . S
C4 C8 1.407 . S
C5 C3 1.396 . S
C5 C6 1.394 . S
C6 H1 0.929 . S
C6 C5 1.394 . S
C6 C7 1.382 . S
C7 C6 1.382 . S
C7 C8 1.392 . S
C7 N9 1.420 . S
C8 H2 0.930 . S
C8 C4 1.407 . S
C8 C7 1.392 . S
N9 C7 1.420 . S
N9 C10 1.244 . S
C10 N9 1.244 . S
H11 C14 0.929 . S
H12 C17 0.929 . S
H13 C19 0.930 . S
C14 H11 0.929 . S
C14 C15 1.398 . S
C14 C16 1.396 . S
C15 C14 1.398 . S
C15 C19 1.407 . S
C16 C14 1.396 . S
C16 C17 1.394 . S
C17 H12 0.929 . S
C17 C16 1.394 . S
C17 C18 1.382 . S
C18 C17 1.382 . S
C18 C19 1.392 . S
C18 N20 1.420 . S
C19 H13 0.930 . S
C19 C15 1.407 . S
C19 C18 1.392 . S
N20 C18 1.420 . S
N20 C21 1.244 . S
C21 N20 1.244 . S
H22 C25 0.929 . S
H23 C28 0.929 . S
H24 C30 0.930 . S
C25 H22 0.929 . S
C25 C26 1.398 . S
C25 C27 1.396 . S
C26 C25 1.398 . S
C26 C30 1.407 . S
C27 C25 1.396 . S
C27 C28 1.394 . S
C28 H23 0.929 . S
C28 C27 1.394 . S
C28 C29 1.382 . S
C29 C28 1.382 . S
C29 C30 1.392 . S
C29 N31 1.420 . S
C30 H24 0.930 . S
C30 C26 1.407 . S
C30 C29 1.392 . S
N31 C29 1.420 . S
N31 C32 1.244 . S
C32 N31 1.244 . S
H33 C36 0.929 . S
H34 C39 0.929 . S
H35 C41 0.930 . S
C36 H33 0.929 . S
C36 C37 1.398 . S
C36 C38 1.396 . S
C37 C36 1.398 . S
C37 C41 1.407 . S
C38 C36 1.396 . S
C38 C39 1.394 . S
C39 H34 0.929 . S
C39 C38 1.394 . S
C39 C40 1.382 . S
C40 C39 1.382 . S
C40 C41 1.392 . S
C40 N42 1.420 . S
C41 H35 0.930 . S
C41 C37 1.407 . S
C41 C40 1.392 . S
N42 C40 1.420 . S
N42 C43 1.244 . S
C43 N42 1.244 . S
H44 C47 0.929 . S
H45 C50 0.929 . S
H46 C52 0.907 1_545 S
C47 H44 0.929 . S
C47 C48 1.398 . S
C47 C49 1.396 . S
C48 C47 1.398 . S
C48 C52 1.423 . S
C49 C47 1.396 . S
C49 C50 1.394 . S
C50 H45 0.929 . S
C50 C49 1.394 . S
C50 C51 1.382 . S
C51 C50 1.382 . S
C51 C52 1.399 . S
C51 N53 1.420 1_565 S
C52 H46 0.907 1_565 S
C52 C48 1.423 . S
C52 C51 1.399 . S
N53 C51 1.420 1_545 S
N53 C54 1.244 1_545 S
C54 N53 1.244 1_565 S
H55 C58 0.929 . S
H56 C61 0.929 . S
H57 C63 0.930 . S
C58 H55 0.929 . S
C58 C59 1.398 . S
C58 C60 1.396 . S
C59 C58 1.398 . S
C59 C63 1.407 . S
C60 C58 1.396 . S
C60 C61 1.394 . S
C61 H56 0.929 . S
C61 C60 1.394 . S
C61 C62 1.382 . S
C62 C61 1.382 . S
C62 C63 1.392 . S
C62 N64 1.420 . S
C63 H57 0.930 . S
C63 C59 1.407 . S
C63 C62 1.392 . S
N64 C62 1.420 . S
N64 C65 1.244 . S
C65 N64 1.244 . S
H66 C69 0.929 . S
H67 C72 0.929 . S
H68 C74 0.930 . S
C69 H66 0.929 . S
C69 C70 1.398 . S
C69 C71 1.396 . S
C70 C69 1.398 . S
C70 C74 1.407 . S
C71 C69 1.396 . S
C71 C72 1.394 . S
C72 H67 0.929 . S
C72 C71 1.394 . S
C72 C73 1.382 . S
C73 C72 1.382 . S
C73 C74 1.392 . S
C73 N75 1.420 . S
C74 H68 0.930 . S
C74 C70 1.407 . S
C74 C73 1.392 . S
N75 C73 1.420 . S
N75 C76 1.244 . S
C76 N75 1.244 . S
H77 C80 0.929 . S
H78 C83 0.929 . S
H79 C85 0.930 . S
C80 H77 0.929 . S
C80 C81 1.398 . S
C80 C82 1.396 . S
C81 C80 1.398 . S
C81 C85 1.407 . S
C82 C80 1.396 . S
C82 C83 1.394 . S
C83 H78 0.929 . S
C83 C82 1.394 . S
C83 C84 1.382 . S
C84 C83 1.382 . S
C84 C85 1.392 . S
C84 N86 1.420 . S
C85 H79 0.930 . S
C85 C81 1.407 . S
C85 C84 1.392 . S
N86 C84 1.420 . S
N86 C87 1.244 . S
C87 N86 1.244 . S
O88 Zn89 1.953 . S
O88 C104 1.225 1_655 S
Zn89 O88 1.953 . S
Zn89 O90 1.949 1_655 S
Zn89 O96 1.919 . S
Zn89 O101 1.924 . S
O90 Zn89 1.949 1_455 S
O90 Zn91 1.923 1_455 S
O90 Zn92 1.950 . S
O90 Zn93 1.945 1_545 S
Zn91 O90 1.923 1_655 S
Zn91 O94 1.933 1_545 S
Zn91 O97 1.941 . S
Zn91 O98 1.965 1_655 S
Zn92 O90 1.950 . S
Zn92 O99 1.938 . S
Zn92 O100 1.906 . S
Zn92 O110 1.953 . S
Zn93 O90 1.945 1_565 S
Zn93 O95 1.932 1_455 S
Zn93 O102 1.977 . S
Zn93 O103 1.910 1_455 S
O94 Zn91 1.933 1_565 S
O94 C105 1.226 . S
O95 Zn93 1.932 1_655 S
O95 C105 1.307 . S
O96 Zn89 1.919 . S
O96 C107 1.253 . S
O97 Zn91 1.941 . S
O97 C107 1.283 . S
O98 Zn91 1.965 1_455 S
O98 C106 1.303 . S
O99 Zn92 1.938 . S
O99 C106 1.247 . S
O100 Zn92 1.906 . S
O100 C108 1.304 1_545 S
O101 Zn89 1.924 . S
O101 C109 1.311 . S
O102 Zn93 1.977 . S
O102 C108 1.272 . S
O103 Zn93 1.910 1_655 S
O103 C109 1.231 1_565 S
C104 O88 1.225 1_455 S
C104 O110 1.298 . S
C105 O94 1.226 . S
C105 O95 1.307 . S
C106 O98 1.303 . S
C106 O99 1.247 . S
C107 O96 1.253 . S
C107 O97 1.283 . S
C108 O100 1.304 1_565 S
C108 O102 1.272 . S
C109 O101 1.311 . S
C109 O103 1.231 1_545 S
O110 Zn92 1.953 . S
O110 C104 1.298 . S
O111 Zn112 1.953 . S
O111 C127 1.225 . S
Zn112 O111 1.953 . S
Zn112 O113 1.949 . S
Zn112 O119 1.919 1_554 S
Zn112 O124 1.924 . S
O113 Zn112 1.949 . S
O113 Zn114 1.923 1_545 S
O113 Zn115 1.950 . S
O113 Zn116 1.945 . S
Zn114 O113 1.923 1_565 S
Zn114 O117 1.933 . S
Zn114 O120 1.941 1_554 S
Zn114 O121 1.965 . S
Zn115 O113 1.950 . S
Zn115 O122 1.938 . S
Zn115 O123 1.906 . S
Zn115 O133 1.953 . S
Zn116 O113 1.945 . S
Zn116 O118 1.932 1_545 S
Zn116 O125 1.977 . S
Zn116 O126 1.910 . S
O117 Zn114 1.933 . S
O117 C128 1.226 . S
O118 Zn116 1.932 1_565 S
O118 C128 1.307 . S
O119 Zn112 1.919 1_556 S
O119 C130 1.253 1_545 S
O120 Zn114 1.941 1_556 S
O120 C130 1.283 . S
O121 Zn114 1.965 . S
O121 C129 1.303 1_565 S
O122 Zn115 1.938 . S
O122 C129 1.247 . S
O123 Zn115 1.906 . S
O123 C131 1.304 . S
O124 Zn112 1.924 . S
O124 C132 1.311 . S
O125 Zn116 1.977 . S
O125 C131 1.272 . S
O126 Zn116 1.910 . S
O126 C132 1.231 . S
C127 O111 1.225 . S
C127 O133 1.298 . S
C128 O117 1.226 . S
C128 O118 1.307 . S
C129 O121 1.303 1_545 S
C129 O122 1.247 . S
C130 O119 1.253 1_565 S
C130 O120 1.283 . S
C131 O123 1.304 . S
C131 O125 1.272 . S
C132 O124 1.311 . S
C132 O126 1.231 . S
O133 Zn115 1.953 . S
O133 C127 1.298 . S
O134 Zn135 1.953 . S
O134 C150 1.225 . S
Zn135 O134 1.953 . S
Zn135 O136 1.949 . S
Zn135 O142 1.919 . S
Zn135 O147 1.924 . S
O136 Zn135 1.949 . S
O136 Zn137 1.923 . S
O136 Zn138 1.950 . S
O136 Zn139 1.945 . S
Zn137 O136 1.923 . S
Zn137 O140 1.933 . S
Zn137 O143 1.941 . S
Zn137 O144 1.965 . S
Zn138 O136 1.950 . S
Zn138 O145 1.938 . S
Zn138 O146 1.906 . S
Zn138 O156 1.953 . S
Zn139 O136 1.945 . S
Zn139 O141 1.932 . S
Zn139 O148 1.977 . S
Zn139 O149 1.910 . S
O140 Zn137 1.933 . S
O140 C151 1.226 . S
O141 Zn139 1.932 . S
O141 C151 1.307 . S
O142 Zn135 1.919 . S
O142 C153 1.253 . S
O143 Zn137 1.941 . S
O143 C153 1.283 . S
O144 Zn137 1.965 . S
O144 C152 1.303 . S
O145 Zn138 1.938 . S
O145 C152 1.247 . S
O146 Zn138 1.906 . S
O146 C154 1.304 . S
O147 Zn135 1.924 . S
O147 C155 1.311 . S
O148 Zn139 1.977 . S
O148 C154 1.272 . S
O149 Zn139 1.910 . S
O149 C155 1.231 . S
C150 O134 1.225 . S
C150 O156 1.298 . S
C151 O140 1.226 . S
C151 O141 1.307 . S
C152 O144 1.303 . S
C152 O145 1.247 . S
C153 O142 1.253 . S
C153 O143 1.283 . S
C154 O146 1.304 . S
C154 O148 1.272 . S
C155 O147 1.311 . S
C155 O149 1.231 . S
O156 Zn138 1.953 . S
O156 C150 1.298 . S
O157 Zn158 1.953 . S
O157 C173 1.225 . S
Zn158 O157 1.953 . S
Zn158 O159 1.949 1_655 S
Zn158 O165 1.919 . S
Zn158 O170 1.924 . S
O159 Zn158 1.949 1_455 S
O159 Zn160 1.923 1_454 S
O159 Zn161 1.950 . S
O159 Zn162 1.945 1_554 S
Zn160 O159 1.923 1_656 S
Zn160 O163 1.933 1_655 S
Zn160 O166 1.941 . S
Zn160 O167 1.965 . S
Zn161 O159 1.950 . S
Zn161 O168 1.938 . S
Zn161 O169 1.906 . S
Zn161 O179 1.953 . S
Zn162 O159 1.945 1_556 S
Zn162 O164 1.932 . S
Zn162 O171 1.977 1_556 S
Zn162 O172 1.910 1_556 S
O163 Zn160 1.933 1_455 S
O163 C174 1.226 . S
O164 Zn162 1.932 . S
O164 C174 1.307 . S
O165 Zn158 1.919 . S
O165 C176 1.253 1_554 S
O166 Zn160 1.941 . S
O166 C176 1.283 . S
O167 Zn160 1.965 . S
O167 C175 1.303 . S
O168 Zn161 1.938 . S
O168 C175 1.247 1_454 S
O169 Zn161 1.906 . S
O169 C177 1.304 . S
O170 Zn158 1.924 . S
O170 C178 1.311 1_655 S
O171 Zn162 1.977 1_554 S
O171 C177 1.272 . S
O172 Zn162 1.910 1_554 S
O172 C178 1.231 . S
C173 O157 1.225 . S
C173 O179 1.298 1_655 S
C174 O163 1.226 . S
C174 O164 1.307 . S
C175 O167 1.303 . S
C175 O168 1.247 1_656 S
C176 O165 1.253 1_556 S
C176 O166 1.283 . S
C177 O169 1.304 . S
C177 O171 1.272 . S
C178 O170 1.311 1_455 S
C178 O172 1.231 . S
O179 Zn161 1.953 . S
O179 C173 1.298 1_455 S
H180 C186 0.930 . S
H181 C189 0.930 . S
H182 C190 0.930 . S
H183 C191 0.930 . S
H184 C194 0.930 1_655 S
H185 C195 0.949 . S
C186 H180 0.930 . S
C186 C187 1.355 . S
C186 C188 1.415 . S
C187 C186 1.355 . S
C187 C189 1.419 . S
C188 C186 1.415 . S
C188 C193 1.425 . S
C188 C195 1.409 . S
C189 H181 0.930 . S
C189 C187 1.419 . S
C189 C190 1.362 . S
C190 H182 0.930 . S
C190 C189 1.362 . S
C190 C193 1.409 . S
C191 H183 0.930 . S
C191 C192 1.355 . S
C191 C193 1.415 . S
C192 C191 1.355 . S
C192 C194 1.419 . S
C193 C188 1.425 . S
C193 C190 1.409 . S
C193 C191 1.415 . S
C194 H184 0.930 1_455 S
C194 C192 1.419 . S
C194 C195 1.362 . S
C195 H185 0.949 . S
C195 C188 1.409 . S
C195 C194 1.362 . S
H196 C202 0.930 . S
H197 C205 0.930 . S
H198 C206 0.930 1_545 S
H199 C207 0.930 1_545 S
H200 C210 0.930 . S
H201 C211 0.930 . S
C202 H196 0.930 . S
C202 C203 1.355 . S
C202 C204 1.415 . S
C203 C202 1.355 . S
C203 C205 1.419 . S
C204 C202 1.415 . S
C204 C209 1.425 . S
C204 C211 1.409 . S
C205 H197 0.930 . S
C205 C203 1.419 . S
C205 C206 1.362 . S
C206 H198 0.930 1_565 S
C206 C205 1.362 . S
C206 C209 1.409 . S
C207 H199 0.930 1_565 S
C207 C208 1.355 . S
C207 C209 1.415 . S
C208 C207 1.355 . S
C208 C210 1.419 . S
C209 C204 1.425 . S
C209 C206 1.409 . S
C209 C207 1.415 . S
C210 H200 0.930 . S
C210 C208 1.419 . S
C210 C211 1.362 . S
C211 H201 0.930 . S
C211 C204 1.409 . S
C211 C210 1.362 . S
H212 C218 0.930 . S
H213 C221 0.930 . S
H214 C222 0.930 . S
H215 C223 0.930 . S
H216 C226 0.930 . S
H217 C227 0.930 . S
C218 H212 0.930 . S
C218 C219 1.355 . S
C218 C220 1.415 . S
C219 C218 1.355 . S
C219 C221 1.419 . S
C220 C218 1.415 . S
C220 C225 1.425 . S
C220 C227 1.409 . S
C221 H213 0.930 . S
C221 C219 1.419 . S
C221 C222 1.362 . S
C222 H214 0.930 . S
C222 C221 1.362 . S
C222 C225 1.409 . S
C223 H215 0.930 . S
C223 C224 1.355 . S
C223 C225 1.415 . S
C224 C223 1.355 . S
C224 C226 1.419 . S
C225 C220 1.425 . S
C225 C222 1.409 . S
C225 C223 1.415 . S
C226 H216 0.930 . S
C226 C224 1.419 . S
C226 C227 1.362 . S
C227 H217 0.930 . S
C227 C220 1.409 . S
C227 C226 1.362 . S
H228 C234 0.930 . S
H229 C237 0.930 . S
H230 C238 0.930 1_455 S
H231 C239 0.930 1_455 S
H232 C242 0.930 . S
H233 C243 0.930 . S
C234 H228 0.930 . S
C234 C235 1.355 . S
C234 C236 1.415 . S
C235 C234 1.355 . S
C235 C237 1.419 . S
C236 C234 1.415 . S
C236 C241 1.425 . S
C236 C243 1.409 . S
C237 H229 0.930 . S
C237 C235 1.419 . S
C237 C238 1.362 . S
C238 H230 0.930 1_655 S
C238 C237 1.362 . S
C238 C241 1.409 . S
C239 H231 0.930 1_655 S
C239 C240 1.355 . S
C239 C241 1.415 . S
C240 C239 1.355 . S
C240 C242 1.419 . S
C241 C236 1.425 . S
C241 C238 1.409 . S
C241 C239 1.415 . S
C242 H232 0.930 . S
C242 C240 1.419 . S
C242 C243 1.362 . S
C243 H233 0.930 . S
C243 C236 1.409 . S
C243 C242 1.362 . S
H244 C250 0.930 . S
H245 C253 0.930 . S
H246 C254 0.930 . S
H247 C255 0.930 . S
H248 C258 0.930 . S
H249 C259 0.930 . S
C250 H244 0.930 . S
C250 C251 1.355 . S
C250 C252 1.415 . S
C251 C250 1.355 . S
C251 C253 1.419 . S
C252 C250 1.415 . S
C252 C257 1.425 . S
C252 C259 1.409 . S
C253 H245 0.930 . S
C253 C251 1.419 . S
C253 C254 1.362 . S
C254 H246 0.930 . S
C254 C253 1.362 . S
C254 C257 1.409 . S
C255 H247 0.930 . S
C255 C256 1.355 . S
C255 C257 1.415 . S
C256 C255 1.355 . S
C256 C258 1.419 . S
C257 C252 1.425 . S
C257 C254 1.409 . S
C257 C255 1.415 . S
C258 H248 0.930 . S
C258 C256 1.419 . S
C258 C259 1.362 . S
C259 H249 0.930 . S
C259 C252 1.409 . S
C259 C258 1.362 . S
H260 C266 0.930 . S
H261 C269 0.930 . S
H262 C270 0.930 . S
H263 C271 0.930 . S
H264 C274 0.930 . S
H265 C275 0.930 . S
C266 H260 0.930 . S
C266 C267 1.355 . S
C266 C268 1.415 . S
C267 C266 1.355 . S
C267 C269 1.419 . S
C268 C266 1.415 . S
C268 C273 1.425 . S
C268 C275 1.409 . S
C269 H261 0.930 . S
C269 C267 1.419 . S
C269 C270 1.362 . S
C270 H262 0.930 . S
C270 C269 1.362 . S
C270 C273 1.409 . S
C271 H263 0.930 . S
C271 C272 1.355 . S
C271 C273 1.415 . S
C272 C271 1.355 . S
C272 C274 1.419 . S
C273 C268 1.425 . S
C273 C270 1.409 . S
C273 C271 1.415 . S
C274 H264 0.930 . S
C274 C272 1.419 . S
C274 C275 1.362 . S
C275 H265 0.930 . S
C275 C268 1.409 . S
C275 C274 1.362 . S
H276 C282 0.930 . S
H277 C285 0.930 . S
H278 C286 0.930 . S
H279 C287 0.930 . S
H280 C290 0.930 . S
H281 C291 0.930 . S
C282 H276 0.930 . S
C282 C283 1.355 . S
C282 C284 1.415 . S
C283 C282 1.355 . S
C283 C285 1.419 . S
C284 C282 1.415 . S
C284 C289 1.425 . S
C284 C291 1.409 . S
C285 H277 0.930 . S
C285 C283 1.419 . S
C285 C286 1.362 . S
C286 H278 0.930 . S
C286 C285 1.362 . S
C286 C289 1.409 . S
C287 H279 0.930 . S
C287 C288 1.355 . S
C287 C289 1.415 . S
C288 C287 1.355 . S
C288 C290 1.419 . S
C289 C284 1.425 . S
C289 C286 1.409 . S
C289 C287 1.415 . S
C290 H280 0.930 . S
C290 C288 1.419 . S
C290 C291 1.362 . S
C291 H281 0.930 . S
C291 C284 1.409 . S
C291 C290 1.362 . S
H292 C298 0.930 . S
H293 C301 0.930 . S
H294 C302 0.930 . S
H295 C303 0.930 . S
H296 C306 0.930 . S
H297 C307 0.930 . S
C298 H292 0.930 . S
C298 C299 1.355 . S
C298 C300 1.415 . S
C299 C298 1.355 . S
C299 C301 1.419 . S
C300 C298 1.415 . S
C300 C305 1.425 . S
C300 C307 1.409 . S
C301 H293 0.930 . S
C301 C299 1.419 . S
C301 C302 1.362 . S
C302 H294 0.930 . S
C302 C301 1.362 . S
C302 C305 1.409 . S
C303 H295 0.930 . S
C303 C304 1.355 . S
C303 C305 1.415 . S
C304 C303 1.355 . S
C304 C306 1.419 . S
C305 C300 1.425 . S
C305 C302 1.409 . S
C305 C303 1.415 . S
C306 H296 0.930 . S
C306 C304 1.419 . S
C306 C307 1.362 . S
C307 H297 0.930 . S
C307 C300 1.409 . S
C307 C306 1.362 . S
H308 C314 0.930 . S
H309 C317 0.930 . S
H310 C318 0.930 1_655 S
H311 C319 0.930 1_655 S
H312 C322 0.930 . S
H313 C323 0.930 . S
C314 H308 0.930 . S
C314 C315 1.355 . S
C314 C316 1.415 . S
C315 C314 1.355 . S
C315 C317 1.419 . S
C316 C314 1.415 . S
C316 C321 1.425 . S
C316 C323 1.409 . S
C317 H309 0.930 . S
C317 C315 1.419 . S
C317 C318 1.362 . S
C318 H310 0.930 1_455 S
C318 C317 1.362 . S
C318 C321 1.409 . S
C319 H311 0.930 1_455 S
C319 C320 1.355 . S
C319 C321 1.415 . S
C320 C319 1.355 . S
C320 C322 1.419 . S
C321 C316 1.425 . S
C321 C318 1.409 . S
C321 C319 1.415 . S
C322 H312 0.930 . S
C322 C320 1.419 . S
C322 C323 1.362 . S
C323 H313 0.930 . S
C323 C316 1.409 . S
C323 C322 1.362 . S
H324 C330 0.930 . S
H325 C333 0.930 . S
H326 C334 0.930 . S
H327 C335 0.930 . S
H328 C338 0.930 . S
H329 C339 0.930 . S
C330 H324 0.930 . S
C330 C331 1.355 . S
C330 C332 1.415 . S
C331 C330 1.355 . S
C331 C333 1.419 . S
C332 C330 1.415 . S
C332 C337 1.425 . S
C332 C339 1.409 . S
C333 H325 0.930 . S
C333 C331 1.419 . S
C333 C334 1.362 1_556 S
C334 H326 0.930 . S
C334 C333 1.362 1_554 S
C334 C337 1.409 1_554 S
C335 H327 0.930 . S
C335 C336 1.355 . S
C335 C337 1.415 1_554 S
C336 C335 1.355 . S
C336 C338 1.419 1_554 S
C337 C332 1.425 . S
C337 C334 1.409 1_556 S
C337 C335 1.415 1_556 S
C338 H328 0.930 . S
C338 C336 1.419 1_556 S
C338 C339 1.362 . S
C339 H329 0.930 . S
C339 C332 1.409 . S
C339 C338 1.362 . S
H340 C346 0.930 . S
H341 C349 0.930 . S
H342 C350 0.930 . S
H343 C351 0.930 . S
H344 C354 0.930 . S
H345 C355 0.930 . S
C346 H340 0.930 . S
C346 C347 1.355 . S
C346 C348 1.415 . S
C347 C346 1.355 . S
C347 C349 1.419 . S
C348 C346 1.415 . S
C348 C353 1.425 . S
C348 C355 1.409 . S
C349 H341 0.930 . S
C349 C347 1.419 . S
C349 C350 1.362 . S
C350 H342 0.930 . S
C350 C349 1.362 . S
C350 C353 1.409 . S
C351 H343 0.930 . S
C351 C352 1.355 . S
C351 C353 1.415 . S
C352 C351 1.355 . S
C352 C354 1.419 . S
C353 C348 1.425 . S
C353 C350 1.409 . S
C353 C351 1.415 . S
C354 H344 0.930 . S
C354 C352 1.419 . S
C354 C355 1.362 . S
C355 H345 0.930 . S
C355 C348 1.409 . S
C355 C354 1.362 . S
H356 C362 0.930 . S
H357 C365 0.930 . S
H358 C366 0.930 . S
H359 C367 0.930 . S
H360 C370 0.930 . S
H361 C371 0.930 . S
C362 H356 0.930 . S
C362 C363 1.355 . S
C362 C364 1.415 . S
C363 C362 1.355 . S
C363 C365 1.419 . S
C364 C362 1.415 . S
C364 C369 1.425 . S
C364 C371 1.409 . S
C365 H357 0.930 . S
C365 C363 1.419 . S
C365 C366 1.362 . S
C366 H358 0.930 . S
C366 C365 1.362 . S
C366 C369 1.409 . S
C367 H359 0.930 . S
C367 C368 1.355 . S
C367 C369 1.415 . S
C368 C367 1.355 . S
C368 C370 1.419 . S
C369 C364 1.425 . S
C369 C366 1.409 . S
C369 C367 1.415 . S
C370 H360 0.930 . S
C370 C368 1.419 . S
C370 C371 1.362 . S
C371 H361 0.930 . S
C371 C364 1.409 . S
C371 C370 1.362 . S
H372 C378 0.930 . S
H373 C381 0.918 1_455 S
H374 C382 0.930 . S
H375 C383 0.930 1_455 S
H376 C386 0.930 . S
H377 C387 0.930 . S
C378 H372 0.930 . S
C378 C379 1.355 . S
C378 C380 1.415 . S
C379 C378 1.355 . S
C379 C381 1.436 1_565 S
C380 C378 1.415 . S
C380 C385 1.425 1_565 S
C380 C387 1.409 . S
C381 H373 0.918 1_655 S
C381 C379 1.436 1_545 S
C381 C382 1.358 1_655 S
C382 H374 0.930 . S
C382 C381 1.358 1_455 S
C382 C385 1.409 1_455 S
C383 H375 0.930 1_655 S
C383 C384 1.355 . S
C383 C385 1.415 . S
C384 C383 1.355 . S
C384 C386 1.419 1_545 S
C385 C380 1.425 1_545 S
C385 C382 1.409 1_655 S
C385 C383 1.415 . S
C386 H376 0.930 . S
C386 C384 1.419 1_565 S
C386 C387 1.362 . S
C387 H377 0.930 . S
C387 C380 1.409 . S
C387 C386 1.362 . S
H388 C394 0.930 . S
H389 C397 0.930 . S
H390 C398 0.930 1_565 S
H391 C399 0.930 . S
H392 C402 0.930 . S
H393 C403 0.930 . S
C394 H388 0.930 . S
C394 C395 1.355 . S
C394 C396 1.415 . S
C395 C394 1.355 . S
C395 C397 1.419 . S
C396 C394 1.415 . S
C396 C401 1.425 . S
C396 C403 1.409 . S
C397 H389 0.930 . S
C397 C395 1.419 . S
C397 C398 1.362 . S
C398 H390 0.930 1_545 S
C398 C397 1.362 . S
C398 C401 1.409 . S
C399 H391 0.930 . S
C399 C400 1.355 . S
C399 C401 1.415 . S
C400 C399 1.355 . S
C400 C402 1.419 . S
C401 C396 1.425 . S
C401 C398 1.409 . S
C401 C399 1.415 . S
C402 H392 0.930 . S
C402 C400 1.419 . S
C402 C403 1.362 . S
C403 H393 0.930 . S
C403 C396 1.409 . S
C403 C402 1.362 . S
H404 C410 0.930 . S
H405 C413 0.930 . S
H406 C414 0.930 . S
H407 C415 0.930 . S
H408 C418 0.930 . S
H409 C419 0.930 . S
C410 H404 0.930 . S
C410 C411 1.355 . S
C410 C412 1.415 . S
C411 C410 1.355 . S
C411 C413 1.419 . S
C412 C410 1.415 . S
C412 C417 1.425 . S
C412 C419 1.409 . S
C413 H405 0.930 . S
C413 C411 1.419 . S
C413 C414 1.362 . S
C414 H406 0.930 . S
C414 C413 1.362 . S
C414 C417 1.409 . S
C415 H407 0.930 . S
C415 C416 1.355 . S
C415 C417 1.415 . S
C416 C415 1.355 . S
C416 C418 1.419 . S
C417 C412 1.425 . S
C417 C414 1.409 . S
C417 C415 1.415 . S
C418 H408 0.930 . S
C418 C416 1.419 . S
C418 C419 1.362 . S
C419 H409 0.930 . S
C419 C412 1.409 . S
C419 C418 1.362 . S
H420 C426 0.930 . S
H421 C429 0.930 . S
H422 C430 0.930 . S
H423 C431 0.930 . S
H424 C434 0.930 . S
H425 C435 0.930 . S
C426 H420 0.930 . S
C426 C427 1.355 . S
C426 C428 1.415 . S
C427 C426 1.355 . S
C427 C429 1.419 . S
C428 C426 1.415 . S
C428 C433 1.425 . S
C428 C435 1.409 . S
C429 H421 0.930 . S
C429 C427 1.419 . S
C429 C430 1.362 . S
C430 H422 0.930 . S
C430 C429 1.362 . S
C430 C433 1.409 . S
C431 H423 0.930 . S
C431 C432 1.355 . S
C431 C433 1.415 . S
C432 C431 1.355 . S
C432 C434 1.419 . S
C433 C428 1.425 . S
C433 C430 1.409 . S
C433 C431 1.415 . S
C434 H424 0.930 . S
C434 C432 1.419 . S
C434 C435 1.362 . S
C435 H425 0.930 . S
C435 C428 1.409 . S
C435 C434 1.362 . S
H436 C442 0.930 . S
H437 C445 0.932 . S
H438 C446 0.930 . S
H439 C447 0.930 . S
H440 C450 0.930 . S
H441 C451 0.930 . S
C442 H436 0.930 . S
C442 C443 1.355 1_554 S
C442 C444 1.415 . S
C443 C442 1.355 1_556 S
C443 C445 1.420 1_545 S
C444 C442 1.415 . S
C444 C449 1.425 1_554 S
C444 C451 1.409 . S
C445 H437 0.932 . S
C445 C443 1.420 1_565 S
C445 C446 1.359 1_565 S
C446 H438 0.930 . S
C446 C445 1.359 1_545 S
C446 C449 1.409 . S
C447 H439 0.930 . S
C447 C448 1.355 1_556 S
C447 C449 1.415 . S
C448 C447 1.355 1_554 S
C448 C450 1.419 . S
C449 C444 1.425 1_556 S
C449 C446 1.409 . S
C449 C447 1.415 . S
C450 H440 0.930 . S
C450 C448 1.419 . S
C450 C451 1.362 . S
C451 H441 0.930 . S
C451 C444 1.409 . S
C451 C450 1.362 . S
H452 C458 0.930 . S
H453 C461 0.930 . S
H454 C462 0.930 . S
H455 C463 0.930 . S
H456 C466 0.930 . S
H457 C467 0.930 . S
C458 H452 0.930 . S
C458 C459 1.355 . S
C458 C460 1.415 . S
C459 C458 1.355 . S
C459 C461 1.419 . S
C460 C458 1.415 . S
C460 C465 1.425 . S
C460 C467 1.409 1_545 S
C461 H453 0.930 . S
C461 C459 1.419 . S
C461 C462 1.362 . S
C462 H454 0.930 . S
C462 C461 1.362 . S
C462 C465 1.409 . S
C463 H455 0.930 . S
C463 C464 1.355 . S
C463 C465 1.415 . S
C464 C463 1.355 . S
C464 C466 1.419 1_545 S
C465 C460 1.425 . S
C465 C462 1.409 . S
C465 C463 1.415 . S
C466 H456 0.930 . S
C466 C464 1.419 1_565 S
C466 C467 1.362 . S
C467 H457 0.930 . S
C467 C460 1.409 1_565 S
C467 C466 1.362 . S
H468 C474 0.930 . S
H469 C477 0.930 . S
H470 C478 0.930 . S
H471 C479 0.930 . S
H472 C482 0.930 1_556 S
H473 C483 0.930 1_556 S
C474 H468 0.930 . S
C474 C475 1.355 . S
C474 C476 1.415 . S
C475 C474 1.355 . S
C475 C477 1.419 . S
C476 C474 1.415 . S
C476 C481 1.425 . S
C476 C483 1.409 . S
C477 H469 0.930 . S
C477 C475 1.419 . S
C477 C478 1.362 . S
C478 H470 0.930 . S
C478 C477 1.362 . S
C478 C481 1.409 . S
C479 H471 0.930 . S
C479 C480 1.355 . S
C479 C481 1.415 . S
C480 C479 1.355 . S
C480 C482 1.419 . S
C481 C476 1.425 . S
C481 C478 1.409 . S
C481 C479 1.415 . S
C482 H472 0.930 1_554 S
C482 C480 1.419 . S
C482 C483 1.362 . S
C483 H473 0.930 1_554 S
C483 C476 1.409 . S
C483 C482 1.362 . S
H484 C490 0.930 . S
H485 C493 0.930 . S
H486 C494 0.930 . S
H487 C495 0.930 . S
H488 C498 0.930 . S
H489 C499 0.930 . S
C490 H484 0.930 . S
C490 C491 1.355 . S
C490 C492 1.415 . S
C491 C490 1.355 . S
C491 C493 1.419 . S
C492 C490 1.415 . S
C492 C497 1.425 . S
C492 C499 1.409 . S
C493 H485 0.930 . S
C493 C491 1.419 . S
C493 C494 1.362 . S
C494 H486 0.930 . S
C494 C493 1.362 . S
C494 C497 1.409 . S
C495 H487 0.930 . S
C495 C496 1.355 . S
C495 C497 1.415 . S
C496 C495 1.355 . S
C496 C498 1.419 . S
C497 C492 1.425 . S
C497 C494 1.409 . S
C497 C495 1.415 . S
C498 H488 0.930 . S
C498 C496 1.419 . S
C498 C499 1.362 . S
C499 H489 0.930 . S
C499 C492 1.409 . S
C499 C498 1.362 . S
H500 C506 0.930 . S
H501 C509 0.930 . S
H502 C510 0.930 . S
H503 C511 0.930 . S
H504 C514 0.930 . S
H505 C515 0.930 . S
C506 H500 0.930 . S
C506 C507 1.355 . S
C506 C508 1.415 . S
C507 C506 1.355 . S
C507 C509 1.419 1_655 S
C508 C506 1.415 . S
C508 C513 1.425 . S
C508 C515 1.409 . S
C509 H501 0.930 . S
C509 C507 1.419 1_455 S
C509 C510 1.362 . S
C510 H502 0.930 . S
C510 C509 1.362 . S
C510 C513 1.409 1_455 S
C511 H503 0.930 . S
C511 C512 1.355 1_455 S
C511 C513 1.415 1_455 S
C512 C511 1.355 1_655 S
C512 C514 1.419 . S
C513 C508 1.425 . S
C513 C510 1.409 1_655 S
C513 C511 1.415 1_655 S
C514 H504 0.930 . S
C514 C512 1.419 . S
C514 C515 1.362 . S
C515 H505 0.930 . S
C515 C508 1.409 . S
C515 C514 1.362 . S
H516 C522 0.930 . S
H517 C525 0.930 . S
H518 C526 0.930 . S
H519 C527 0.930 . S
H520 C530 0.930 . S
H521 C531 0.930 . S
C522 H516 0.930 . S
C522 C523 1.355 . S
C522 C524 1.415 . S
C523 C522 1.355 . S
C523 C525 1.419 . S
C524 C522 1.415 . S
C524 C529 1.425 . S
C524 C531 1.409 . S
C525 H517 0.930 . S
C525 C523 1.419 . S
C525 C526 1.362 . S
C526 H518 0.930 . S
C526 C525 1.362 . S
C526 C529 1.409 . S
C527 H519 0.930 . S
C527 C528 1.355 . S
C527 C529 1.415 . S
C528 C527 1.355 . S
C528 C530 1.419 . S
C529 C524 1.425 . S
C529 C526 1.409 . S
C529 C527 1.415 . S
C530 H520 0.930 . S
C530 C528 1.419 . S
C530 C531 1.362 . S
C531 H521 0.930 . S
C531 C524 1.409 . S
C531 C530 1.362 . S
H532 C538 0.930 . S
H533 C541 0.930 . S
H534 C542 0.930 . S
H535 C543 0.930 . S
H536 C546 0.930 1_655 S
H537 C547 0.930 1_655 S
C538 H532 0.930 . S
C538 C539 1.355 . S
C538 C540 1.415 . S
C539 C538 1.355 . S
C539 C541 1.419 . S
C540 C538 1.415 . S
C540 C545 1.425 . S
C540 C547 1.409 . S
C541 H533 0.930 . S
C541 C539 1.419 . S
C541 C542 1.362 . S
C542 H534 0.930 . S
C542 C541 1.362 . S
C542 C545 1.409 . S
C543 H535 0.930 . S
C543 C544 1.355 . S
C543 C545 1.415 . S
C544 C543 1.355 . S
C544 C546 1.419 . S
C545 C540 1.425 . S
C545 C542 1.409 . S
C545 C543 1.415 . S
C546 H536 0.930 1_455 S
C546 C544 1.419 . S
C546 C547 1.362 . S
C547 H537 0.930 1_455 S
C547 C540 1.409 . S
C547 C546 1.362 . S
H548 C554 0.930 . S
H549 C557 0.930 . S
H550 C558 0.930 . S
H551 C559 0.930 . S
H552 C562 0.930 . S
H553 C563 0.930 . S
C554 H548 0.930 . S
C554 C555 1.355 . S
C554 C556 1.415 . S
C555 C554 1.355 . S
C555 C557 1.419 . S
C556 C554 1.415 . S
C556 C561 1.425 . S
C556 C563 1.409 . S
C557 H549 0.930 . S
C557 C555 1.419 . S
C557 C558 1.362 . S
C558 H550 0.930 . S
C558 C557 1.362 . S
C558 C561 1.409 . S
C559 H551 0.930 . S
C559 C560 1.355 . S
C559 C561 1.415 . S
C560 C559 1.355 . S
C560 C562 1.419 . S
C561 C556 1.425 . S
C561 C558 1.409 . S
C561 C559 1.415 . S
C562 H552 0.930 . S
C562 C560 1.419 . S
C562 C563 1.362 . S
C563 H553 0.930 . S
C563 C556 1.409 . S
C563 C562 1.362 . S
C187 C4 1.737 . S
C192 C106 1.717 . S
C203 C16 1.888 . S
C208 C130 1.834 . S
C224 C150 1.097 . S
C219 C32 1.094 . S
C235 C43 1.313 . S
C240 C173 1.336 . S
C256 C132 2.030 . S
C251 C5 2.042 . S
C272 C108 1.465 . S
C267 C21 1.488 . S
C288 C176 1.500 . S
C283 C27 1.538 . S
C304 C153 1.451 . S
C299 C37 1.466 . S
C315 C10 1.491 . S
C320 C178 1.418 . S
C336 C127 1.678 . S
C331 C26 1.666 . S
C347 C38 1.377 . S
C352 C105 1.387 . S
C363 C15 1.592 . S
C368 C155 1.566 . S
C384 C109 1.875 . S
C379 C48 1.889 . S
C395 C59 1.675 . S
C400 C131 1.653 . S
C411 C76 1.553 . S
C416 C151 1.586 . S
C427 C87 1.437 . S
C432 C174 1.452 . S
C443 C54 1.368 1_545 S
C448 C129 1.371 . S
C464 C107 1.882 . S
C459 C60 1.850 . S
C480 C177 1.388 . S
C475 C71 1.411 . S
C496 C154 1.360 . S
C491 C82 1.401 . S
C507 C49 2.008 . S
C512 C175 1.980 . S
C528 C128 1.284 . S
C523 C70 1.268 . S
C544 C104 1.584 . S
C539 C81 1.563 . S
C555 C65 1.688 . S
C560 C152 1.682 . S
