# Generated by pormake.
# Topology dag, (6,3)-cn, num edge types: 1
# Building blocks:
#     Node 0, Type 0, BuildingBlock: OJICUG_clean_sbu_0, # of connection points: 6
#     Node 1, Type 0, BuildingBlock: OJICUG_clean_sbu_0, # of connection points: 6
#     Node 2, Type 0, BuildingBlock: OJICUG_clean_sbu_0, # of connection points: 6
#     Node 3, Type 0, BuildingBlock: OJICUG_clean_sbu_0, # of connection points: 6
#     Node 4, Type 1, BuildingBlock: ESEHIV_clean_linker_0, # of connection points: 3
#     Node 5, Type 1, BuildingBlock: ESEHIV_clean_linker_0, # of connection points: 3
#     Node 6, Type 1, BuildingBlock: ESEHIV_clean_linker_0, # of connection points: 3
#     Node 7, Type 1, BuildingBlock: ESEHIV_clean_linker_0, # of connection points: 3
#     Node 8, Type 1, BuildingBlock: ESEHIV_clean_linker_0, # of connection points: 3
#     Node 9, Type 1, BuildingBlock: ESEHIV_clean_linker_0, # of connection points: 3
#     Node 10, Type 1, BuildingBlock: ESEHIV_clean_linker_0, # of connection points: 3
#     Node 11, Type 1, BuildingBlock: ESEHIV_clean_linker_0, # of connection points: 3
#     Edge 12, Type (0, 1), BuildingBlock: ZUJKAS_clean_linker_0, # of connection points: 2
#     Edge 13, Type (0, 1), BuildingBlock: ZUJKAS_clean_linker_0, # of connection points: 2
#     Edge 14, Type (0, 1), BuildingBlock: ZUJKAS_clean_linker_0, # of connection points: 2
#     Edge 15, Type (0, 1), BuildingBlock: ZUJKAS_clean_linker_0, # of connection points: 2
#     Edge 16, Type (0, 1), BuildingBlock: ZUJKAS_clean_linker_0, # of connection points: 2
#     Edge 17, Type (0, 1), BuildingBlock: ZUJKAS_clean_linker_0, # of connection points: 2
#     Edge 18, Type (0, 1), BuildingBlock: ZUJKAS_clean_linker_0, # of connection points: 2
#     Edge 19, Type (0, 1), BuildingBlock: ZUJKAS_clean_linker_0, # of connection points: 2
#     Edge 20, Type (0, 1), BuildingBlock: ZUJKAS_clean_linker_0, # of connection points: 2
#     Edge 21, Type (0, 1), BuildingBlock: ZUJKAS_clean_linker_0, # of connection points: 2
#     Edge 22, Type (0, 1), BuildingBlock: ZUJKAS_clean_linker_0, # of connection points: 2
#     Edge 23, Type (0, 1), BuildingBlock: ZUJKAS_clean_linker_0, # of connection points: 2
#     Edge 24, Type (0, 1), BuildingBlock: ZUJKAS_clean_linker_0, # of connection points: 2
#     Edge 25, Type (0, 1), BuildingBlock: ZUJKAS_clean_linker_0, # of connection points: 2
#     Edge 26, Type (0, 1), BuildingBlock: ZUJKAS_clean_linker_0, # of connection points: 2
#     Edge 27, Type (0, 1), BuildingBlock: ZUJKAS_clean_linker_0, # of connection points: 2
#     Edge 28, Type (0, 1), BuildingBlock: ZUJKAS_clean_linker_0, # of connection points: 2
#     Edge 29, Type (0, 1), BuildingBlock: ZUJKAS_clean_linker_0, # of connection points: 2
#     Edge 30, Type (0, 1), BuildingBlock: ZUJKAS_clean_linker_0, # of connection points: 2
#     Edge 31, Type (0, 1), BuildingBlock: ZUJKAS_clean_linker_0, # of connection points: 2
#     Edge 32, Type (0, 1), BuildingBlock: ZUJKAS_clean_linker_0, # of connection points: 2
#     Edge 33, Type (0, 1), BuildingBlock: ZUJKAS_clean_linker_0, # of connection points: 2
#     Edge 34, Type (0, 1), BuildingBlock: ZUJKAS_clean_linker_0, # of connection points: 2
#     Edge 35, Type (0, 1), BuildingBlock: ZUJKAS_clean_linker_0, # of connection points: 2
# Relax obj value: 0.253
# Max RMSD: 0.198
# Mean RMSD: 0.163
data_MOF--net-dag--node1-OJICUG_clean_sbu_0--node2-ESEHIV_clean_linker_0--edge1-ZUJKAS_clean_linker_0
_symmetry_space_group_name_H-M    P1
_symmetry_Int_Tables_number       1
_symmetry_cell_setting            triclinic
loop_
_symmetry_equiv_pos_as_xyz
'x, y, z'
_cell_length_a     44.478813
_cell_length_b     46.474053
_cell_length_c     45.65408
_cell_angle_alpha  95.174322
_cell_angle_beta   90.048326
_cell_angle_gamma 90.027624
loop_
_atom_site_label
_atom_site_type_symbol
_atom_site_fract_x
_atom_site_fract_y
_atom_site_fract_z
_atom_type_partial_charge
Sc0 Sc 0.13142 0.84783 0.04098 0.0
Sc1 Sc 0.14608 0.77356 0.04357 0.0
Sc2 Sc 0.19416 0.82598 0.0799 0.0
O3 O 0.15721 0.81574 0.0548 0.0
C4 C 0.19623 0.87544 0.03554 0.0
C5 C 0.13213 0.80234 0.98413 0.0
C6 C 0.21789 0.77423 0.03578 0.0
C7 C 0.08165 0.80204 0.0568 0.0
C8 C 0.14617 0.87105 0.1076 0.0
C9 C 0.1692 0.7706 0.10911 0.0
O10 O 0.16916 0.87196 0.02716 0.0
O11 O 0.1383 0.78051 0.99797 0.0
O12 O 0.22213 0.79779 0.0517 0.0
O13 O 0.09049 0.82749 0.05323 0.0
O14 O 0.16883 0.85479 0.11028 0.0
O15 O 0.15222 0.76155 0.08783 0.0
O16 O 0.13149 0.87162 0.08373 0.0
O17 O 0.09895 0.78017 0.05374 0.0
O18 O 0.18598 0.79261 0.10839 0.0
O19 O 0.12891 0.82763 0.99684 0.0
O20 O 0.20789 0.86114 0.05508 0.0
O21 O 0.19207 0.76256 0.03195 0.0
Sc22 Sc 0.68896 0.67641 0.46769 0.0
Sc23 Sc 0.6406 0.72843 0.50478 0.0
Sc24 Sc 0.62451 0.65404 0.50342 0.0
O25 O 0.65139 0.68637 0.49196 0.0
C26 C 0.64108 0.63183 0.43735 0.0
C27 C 0.66401 0.73201 0.43905 0.0
C28 C 0.57603 0.70163 0.48878 0.0
C29 C 0.71207 0.72787 0.51332 0.0
C30 C 0.68948 0.62614 0.51059 0.0
C31 C 0.62553 0.69662 0.5622 0.0
O32 O 0.66547 0.64613 0.43698 0.0
O33 O 0.64882 0.742 0.46132 0.0
O34 O 0.58414 0.67597 0.49232 0.0
O35 O 0.71644 0.70553 0.49562 0.0
O36 O 0.66148 0.62803 0.51585 0.0
O37 O 0.63101 0.7195 0.54975 0.0
O38 O 0.70285 0.64229 0.49374 0.0
O39 O 0.6861 0.73861 0.51856 0.0
O40 O 0.62283 0.67189 0.54819 0.0
O41 O 0.67945 0.70901 0.43875 0.0
O42 O 0.62398 0.63281 0.4597 0.0
O43 O 0.59386 0.72306 0.49239 0.0
Sc44 Sc 0.85944 0.22485 0.00252 0.0
Sc45 Sc 0.81041 0.17238 0.96724 0.0
Sc46 Sc 0.87548 0.15062 0.00272 0.0
O47 O 0.84841 0.18267 0.99085 0.0
C48 C 0.92375 0.19769 0.98633 0.0
C49 C 0.8346 0.22759 0.93727 0.0
C50 C 0.85785 0.12758 0.93693 0.0
C51 C 0.78812 0.22433 0.01245 0.0
C52 C 0.87596 0.19456 0.0606 0.0
C53 C 0.81079 0.1226 0.01085 0.0
O54 O 0.90599 0.21917 0.98964 0.0
O55 O 0.81889 0.20479 0.93766 0.0
O56 O 0.87512 0.12858 0.95922 0.0
O57 O 0.81415 0.23535 0.0167 0.0
O58 O 0.87833 0.16943 0.04732 0.0
O59 O 0.79725 0.13829 0.99365 0.0
O60 O 0.86988 0.21686 0.04744 0.0
O61 O 0.7834 0.20153 0.9955 0.0
O62 O 0.83874 0.12494 0.01623 0.0
O63 O 0.85057 0.23757 0.95897 0.0
O64 O 0.91566 0.17217 0.99053 0.0
O65 O 0.83361 0.14207 0.93653 0.0
Sc66 Sc 0.36915 0.35062 0.5462 0.0
Sc67 Sc 0.30498 0.32918 0.58323 0.0
Sc68 Sc 0.35316 0.27651 0.54747 0.0
O69 O 0.3424 0.31871 0.55893 0.0
C70 C 0.36981 0.30554 0.48891 0.0
C71 C 0.30473 0.37824 0.53834 0.0
C72 C 0.28153 0.27759 0.53851 0.0
C73 C 0.35247 0.37418 0.61221 0.0
C74 C 0.41751 0.3043 0.56347 0.0
C75 C 0.32894 0.27359 0.61271 0.0
O76 O 0.37351 0.33049 0.50223 0.0
O77 O 0.29228 0.36428 0.55774 0.0
O78 O 0.30737 0.26601 0.53475 0.0
O79 O 0.3678 0.37462 0.58877 0.0
O80 O 0.4001 0.2826 0.559 0.0
O81 O 0.31255 0.29588 0.61198 0.0
O82 O 0.40915 0.32997 0.56022 0.0
O83 O 0.32965 0.35799 0.61427 0.0
O84 O 0.34579 0.26429 0.59145 0.0
O85 O 0.33206 0.37462 0.53089 0.0
O86 O 0.36208 0.28372 0.5021 0.0
O87 O 0.27719 0.30098 0.55468 0.0
H88 H 0.01414 0.09639 0.2875 0.0
H89 H 0.08444 0.09611 0.3514 0.0
H90 H 0.02891 0.17168 0.34806 0.0
C91 C 0.02543 0.10706 0.30654 0.0
C92 C 0.01778 0.13559 0.31674 0.0
C93 C 0.04945 0.09295 0.31891 0.0
C94 C 0.06573 0.10716 0.34212 0.0
C95 C 0.05848 0.1356 0.35288 0.0
C96 C 0.03421 0.14956 0.3403 0.0
H97 H 0.49296 0.59199 0.79476 0.0
H98 H 0.42089 0.59723 0.85713 0.0
H99 H 0.48179 0.669 0.85346 0.0
C100 C 0.48185 0.60354 0.81341 0.0
C101 C 0.49075 0.63187 0.82293 0.0
C102 C 0.45675 0.59104 0.82573 0.0
C103 C 0.44098 0.60661 0.84849 0.0
C104 C 0.45 0.63468 0.85894 0.0
C105 C 0.47497 0.64716 0.84602 0.0
H106 H 0.77541 0.8532 0.09651 0.0
H107 H 0.76872 0.80215 0.17001 0.0
H108 H 0.70592 0.87135 0.16083 0.0
C109 C 0.76341 0.84751 0.11584 0.0
C110 C 0.73874 0.86425 0.12627 0.0
C111 C 0.77459 0.82537 0.13174 0.0
C112 C 0.76012 0.8193 0.15777 0.0
C113 C 0.73505 0.83553 0.1683 0.0
C114 C 0.72448 0.85798 0.15236 0.0
H115 H 0.72588 0.36344 0.59862 0.0
H116 H 0.72881 0.31038 0.67088 0.0
H117 H 0.7969 0.37506 0.66235 0.0
C118 C 0.73716 0.35669 0.61792 0.0
C119 C 0.76331 0.37117 0.62822 0.0
C120 C 0.72423 0.33509 0.63343 0.0
C121 C 0.73877 0.32692 0.65868 0.0
C122 C 0.76518 0.34102 0.66919 0.0
C123 C 0.7773 0.36321 0.65382 0.0
H124 H 0.52152 0.39631 0.2683 0.0
H125 H 0.58448 0.39567 0.19712 0.0
H126 H 0.53166 0.31978 0.20902 0.0
C127 C 0.53149 0.3854 0.24867 0.0
C128 C 0.52377 0.35655 0.24027 0.0
C129 C 0.55326 0.3997 0.23317 0.0
C130 C 0.5669 0.38499 0.20849 0.0
C131 C 0.55924 0.35615 0.19945 0.0
C132 C 0.53728 0.34219 0.21529 0.0
H133 H 0.23273 0.14162 0.95591 0.0
H134 H 0.23829 0.19604 0.88494 0.0
H135 H 0.30744 0.1331 0.89624 0.0
C136 C 0.24497 0.14908 0.9375 0.0
C137 C 0.2718 0.13524 0.92826 0.0
C138 C 0.23258 0.17089 0.92191 0.0
C139 C 0.24829 0.17996 0.89773 0.0
C140 C 0.27542 0.16656 0.88833 0.0
C141 C 0.28697 0.14409 0.90369 0.0
H142 H 0.26952 0.64514 0.45309 0.0
H143 H 0.26216 0.69903 0.38183 0.0
H144 H 0.19411 0.63524 0.39429 0.0
C145 C 0.25688 0.65234 0.43479 0.0
C146 C 0.23016 0.63805 0.42591 0.0
C147 C 0.26873 0.6742 0.41892 0.0
C148 C 0.25258 0.68291 0.39482 0.0
C149 C 0.22553 0.66903 0.38576 0.0
C150 C 0.21451 0.64657 0.40145 0.0
H151 H 0.98866 0.89232 0.76408 0.0
H152 H 0.97953 0.82211 0.69654 0.0
H153 H 0.91736 0.89345 0.70107 0.0
C154 C 0.9776 0.88258 0.74447 0.0
C155 C 0.95252 0.8964 0.73352 0.0
C156 C 0.98751 0.8557 0.73145 0.0
C157 C 0.97216 0.84288 0.70669 0.0
C158 C 0.94695 0.85647 0.69532 0.0
C159 C 0.93755 0.88342 0.70873 0.0
H160 H 0.15139 0.86216 0.16583 0.0
H161 H 0.13242 0.89318 0.20809 0.0
H162 H 0.10117 0.95466 0.14947 0.0
H163 H 0.11854 0.92313 0.10732 0.0
H164 H 0.14566 0.94433 0.2304 0.0
H165 H 0.02718 0.94756 0.19603 0.0
H166 H 0.0538 0.92295 0.17755 0.0
H167 H 0.05038 0.9595 0.16749 0.0
C168 C 0.14032 0.88226 0.16205 0.0
C169 C 0.13612 0.89013 0.13331 0.0
C170 C 0.12945 0.89992 0.18617 0.0
C171 C 0.11456 0.9259 0.18195 0.0
C172 C 0.11143 0.9342 0.15328 0.0
H173 H 0.10356 0.08119 0.2938 0.0
H174 H 0.11895 0.03702 0.26476 0.0
C175 C 0.12164 0.91629 0.12919 0.0
C176 C 0.10333 0.94505 0.2074 0.0
H177 H 0.04385 0.98769 0.22982 0.0
C178 C 0.12319 0.95342 0.23055 0.0
C179 C 0.07371 0.95624 0.20829 0.0
C180 C 0.05 0.94577 0.18616 0.0
C181 C 0.11488 0.97405 0.25346 0.0
C182 C 0.08642 0.98762 0.25251 0.0
C183 C 0.06592 0.97784 0.23039 0.0
C184 C 0.07817 0.01332 0.27267 0.0
C185 C 0.1368 0.98099 0.27835 0.0
C186 C 0.04975 0.01522 0.28622 0.0
C187 C 0.04056 0.0409 0.30201 0.0
C188 C 0.05988 0.06486 0.30495 0.0
C189 C 0.08857 0.06273 0.29225 0.0
C190 C 0.09745 0.03737 0.27588 0.0
H191 H 0.15044 0.9617 0.28235 0.0
H192 H 0.15259 0.99798 0.27232 0.0
H193 H 0.12517 0.98871 0.29909 0.0
H194 H 0.03436 0.99709 0.28394 0.0
H195 H 0.01825 0.04224 0.31153 0.0
H196 H 0.59953 0.7399 0.59863 0.0
H197 H 0.58425 0.73679 0.65001 0.0
H198 H 0.6272 0.65352 0.64925 0.0
H199 H 0.64175 0.65618 0.59812 0.0
H200 H 0.56648 0.65288 0.66155 0.0
H201 H 0.62418 0.73986 0.73216 0.0
H202 H 0.60587 0.75071 0.69978 0.0
H203 H 0.63776 0.72702 0.69602 0.0
C204 C 0.60638 0.72136 0.60978 0.0
C205 C 0.62144 0.69811 0.59437 0.0
C206 C 0.59778 0.71965 0.63913 0.0
C207 C 0.60467 0.69493 0.65344 0.0
C208 C 0.62164 0.67276 0.63862 0.0
H209 H 0.54517 0.61081 0.80315 0.0
H210 H 0.57642 0.62984 0.76518 0.0
C211 C 0.62984 0.67427 0.60938 0.0
C212 C 0.5905 0.68972 0.68182 0.0
H213 H 0.58673 0.7129 0.75496 0.0
C214 C 0.57105 0.66596 0.68198 0.0
C215 C 0.59623 0.70702 0.70833 0.0
C216 C 0.61731 0.73249 0.7093 0.0
C217 C 0.55733 0.65883 0.70789 0.0
C218 C 0.56348 0.6757 0.73454 0.0
C219 C 0.58242 0.69988 0.73447 0.0
C220 C 0.54962 0.6683 0.76228 0.0
C221 C 0.53608 0.63337 0.70653 0.0
C222 C 0.52521 0.68443 0.77416 0.0
C223 C 0.50731 0.6736 0.79581 0.0
C224 C 0.51359 0.64645 0.80577 0.0
C225 C 0.53962 0.6316 0.79561 0.0
C226 C 0.55753 0.64249 0.77406 0.0
H227 H 0.52924 0.62623 0.68361 0.0
H228 H 0.54736 0.61496 0.71589 0.0
H229 H 0.51555 0.63877 0.71972 0.0
H230 H 0.51871 0.70432 0.76519 0.0
H231 H 0.48728 0.68543 0.80304 0.0
H232 H 0.82948 0.08988 0.05413 0.0
H233 H 0.80523 0.04704 0.07033 0.0
H234 H 0.73027 0.05868 0.01268 0.0
H235 H 0.75429 0.10195 0.99629 0.0
H236 H 0.7153 0.04061 0.07161 0.0
H237 H 0.80167 0.97266 0.01144 0.0
H238 H 0.81718 0.00144 0.03575 0.0
H239 H 0.79502 0.00982 0.00467 0.0
C240 C 0.80768 0.08362 0.04506 0.0
C241 C 0.79405 0.09913 0.02355 0.0
C242 C 0.79388 0.05911 0.05436 0.0
C243 C 0.76629 0.0495 0.04227 0.0
C244 C 0.75168 0.06575 0.0221 0.0
H245 H 0.72987 0.86952 0.06774 0.0
H246 H 0.72759 0.91455 0.04375 0.0
C247 C 0.76546 0.09044 0.01279 0.0
C248 C 0.75407 0.02142 0.04943 0.0
H249 H 0.77291 0.95026 0.04715 0.0
C250 C 0.72754 0.02071 0.06594 0.0
C251 C 0.76971 0.99547 0.04133 0.0
C252 C 0.79732 0.99473 0.02206 0.0
C253 C 0.71729 0.99481 0.07618 0.0
C254 C 0.73437 0.96926 0.07009 0.0
C255 C 0.75984 0.96981 0.05201 0.0
C256 C 0.72842 0.94242 0.0844 0.0
C257 C 0.68856 0.99519 0.09371 0.0
C258 C 0.72865 0.94308 0.11521 0.0
C259 C 0.72966 0.91742 0.12889 0.0
C260 C 0.73097 0.89065 0.112 0.0
C261 C 0.72898 0.88991 0.08123 0.0
C262 C 0.72763 0.91559 0.06755 0.0
H263 H 0.67296 0.01209 0.08703 0.0
H264 H 0.67694 0.97396 0.09102 0.0
H265 H 0.69385 0.00038 0.11736 0.0
H266 H 0.73016 0.96342 0.1287 0.0
H267 H 0.73167 0.91865 0.15262 0.0
H268 H 0.44882 0.25319 0.56351 0.0
H269 H 0.50141 0.2469 0.57814 0.0
H270 H 0.50962 0.33889 0.59904 0.0
H271 H 0.45757 0.34545 0.58467 0.0
H272 H 0.55368 0.27412 0.55371 0.0
H273 H 0.54134 0.30349 0.67333 0.0
H274 H 0.50994 0.29217 0.64989 0.0
H275 H 0.52342 0.32879 0.65148 0.0
C276 C 0.46178 0.27204 0.57144 0.0
C277 C 0.44894 0.29983 0.57291 0.0
C278 C 0.49178 0.26838 0.57974 0.0
C279 C 0.50917 0.29239 0.59005 0.0
C280 C 0.49638 0.32004 0.59162 0.0
H281 H 0.67565 0.36586 0.61786 0.0
H282 H 0.62476 0.34848 0.6072 0.0
C283 C 0.46663 0.32374 0.58318 0.0
C284 C 0.54118 0.28932 0.59798 0.0
H285 H 0.59088 0.30943 0.65301 0.0
C286 C 0.56187 0.28101 0.57561 0.0
C287 C 0.55172 0.29821 0.6266 0.0
C288 C 0.53042 0.3059 0.65179 0.0
C289 C 0.59297 0.28363 0.58063 0.0
C290 C 0.60333 0.2947 0.60863 0.0
C291 C 0.58273 0.30103 0.63151 0.0
C292 C 0.63481 0.30396 0.61344 0.0
C293 C 0.61457 0.27649 0.55561 0.0
C294 C 0.65727 0.28448 0.62028 0.0
C295 C 0.68663 0.29433 0.62623 0.0
C296 C 0.69381 0.32375 0.62532 0.0
C297 C 0.67112 0.34298 0.61812 0.0
C298 C 0.64195 0.33316 0.61226 0.0
H299 H 0.60309 0.26656 0.53556 0.0
H300 H 0.62611 0.29652 0.55016 0.0
H301 H 0.63209 0.2614 0.56234 0.0
H302 H 0.652 0.26185 0.62137 0.0
H303 H 0.70365 0.27902 0.63165 0.0
H304 H 0.67093 0.62253 0.38456 0.0
H305 H 0.65812 0.58743 0.34306 0.0
H306 H 0.57948 0.56192 0.38938 0.0
H307 H 0.59184 0.59668 0.43078 0.0
H308 H 0.62278 0.51617 0.36807 0.0
H309 H 0.58452 0.58642 0.28263 0.0
H310 H 0.61853 0.59606 0.30267 0.0
H311 H 0.58314 0.59814 0.32145 0.0
C312 C 0.65073 0.60968 0.3858 0.0
C313 C 0.63255 0.61233 0.41115 0.0
C314 C 0.64341 0.58977 0.36201 0.0
C315 C 0.61781 0.57229 0.36321 0.0
C316 C 0.59928 0.57535 0.38808 0.0
H317 H 0.51976 0.44647 0.25414 0.0
H318 H 0.53804 0.49053 0.28209 0.0
C319 C 0.60647 0.59523 0.41175 0.0
C320 C 0.61137 0.54911 0.33977 0.0
H321 H 0.5838 0.53599 0.26999 0.0
C322 C 0.61454 0.52045 0.34651 0.0
C323 C 0.60047 0.55495 0.31184 0.0
C324 C 0.59624 0.58552 0.30402 0.0
C325 C 0.60662 0.49732 0.32617 0.0
C326 C 0.5955 0.50308 0.29827 0.0
C327 C 0.59261 0.53176 0.29134 0.0
C328 C 0.58505 0.47934 0.27701 0.0
C329 C 0.60923 0.46689 0.33503 0.0
C330 C 0.60554 0.45909 0.26411 0.0
C331 C 0.5952 0.43388 0.2483 0.0
C332 C 0.56417 0.42858 0.24516 0.0
C333 C 0.54378 0.44985 0.25651 0.0
C334 C 0.55416 0.47507 0.27228 0.0
H335 H 0.61342 0.46644 0.35898 0.0
H336 H 0.58842 0.45445 0.32919 0.0
H337 H 0.62821 0.45579 0.32297 0.0
H338 H 0.62949 0.46213 0.2675 0.0
H339 H 0.61147 0.41782 0.24008 0.0
H340 H 0.95411 0.24904 0.98327 0.0
H341 H 0.00675 0.25539 0.96884 0.0
H342 H 0.01702 0.16296 0.95453 0.0
H343 H 0.96496 0.15634 0.96867 0.0
H344 H 0.05949 0.23155 0.99553 0.0
H345 H 0.04836 0.19325 0.87769 0.0
H346 H 0.01657 0.20529 0.90019 0.0
H347 H 0.03106 0.16926 0.90138 0.0
C348 C 0.96754 0.23009 0.97684 0.0
C349 C 0.95525 0.20218 0.97711 0.0
C350 C 0.99758 0.23378 0.96866 0.0
C351 C 0.01555 0.20965 0.96021 0.0
C352 C 0.00334 0.18188 0.96046 0.0
H353 H 0.18372 0.13843 0.93301 0.0
H354 H 0.13209 0.15445 0.94175 0.0
C355 C 0.97356 0.17815 0.96877 0.0
C356 C 0.04754 0.21282 0.95223 0.0
H357 H 0.09792 0.18994 0.89885 0.0
C358 C 0.06795 0.22324 0.97415 0.0
C359 C 0.05841 0.20209 0.92427 0.0
C360 C 0.03742 0.19211 0.89943 0.0
C361 C 0.09913 0.22099 0.96951 0.0
C362 C 0.10989 0.20816 0.94231 0.0
C363 C 0.0895 0.19964 0.91975 0.0
C364 C 0.14169 0.1996 0.9382 0.0
C365 C 0.12041 0.23042 0.99426 0.0
C366 C 0.16418 0.21983 0.93342 0.0
C367 C 0.19395 0.21073 0.92852 0.0
C368 C 0.20154 0.18132 0.92852 0.0
C369 C 0.17881 0.1613 0.93352 0.0
C370 C 0.14923 0.17036 0.93826 0.0
H371 H 0.10841 0.23963 0.01429 0.0
H372 H 0.13407 0.21172 -5e-05 0.0
H373 H 0.13614 0.24695 0.98708 0.0
H374 H 0.15864 0.2425 0.93314 0.0
H375 H 0.211 0.22662 0.9247 0.0
H376 H 0.25168 0.40361 0.5575 0.0
H377 H 0.22768 0.44602 0.5394 0.0
H378 H 0.29478 0.44684 0.47135 0.0
H379 H 0.3191 0.4049 0.48941 0.0
H380 H 0.29024 0.49823 0.50717 0.0
H381 H 0.17806 0.46073 0.46542 0.0
H382 H 0.18798 0.45173 0.5017 0.0
H383 H 0.20871 0.43615 0.4705 0.0
C384 C 0.26096 0.41246 0.53831 0.0
C385 C 0.28751 0.40107 0.5251 0.0
C386 C 0.24712 0.43661 0.52792 0.0
C387 C 0.2594 0.44946 0.50398 0.0
C388 C 0.28496 0.43721 0.48987 0.0
H389 H 0.21816 0.58505 0.39813 0.0
H390 H 0.21859 0.5391 0.42035 0.0
C391 C 0.29888 0.41328 0.5003 0.0
C392 C 0.24808 0.47749 0.49557 0.0
H393 H 0.18846 0.51077 0.46561 0.0
C394 C 0.26792 0.50103 0.49823 0.0
C395 C 0.21899 0.48094 0.4839 0.0
C396 C 0.19717 0.45605 0.47994 0.0
C397 C 0.25981 0.52781 0.48891 0.0
C398 C 0.23068 0.53141 0.47727 0.0
C399 C 0.21059 0.50799 0.47495 0.0
C400 C 0.2222 0.55868 0.46504 0.0
C401 C 0.28301 0.55167 0.49049 0.0
C402 C 0.22227 0.58484 0.48298 0.0
C403 C 0.2223 0.6111 0.47032 0.0
C404 C 0.22177 0.6115 0.43959 0.0
C405 C 0.21842 0.58535 0.42188 0.0
C406 C 0.21871 0.55909 0.43454 0.0
H407 H 0.30604 0.54347 0.4942 0.0
H408 H 0.28311 0.56273 0.46992 0.0
H409 H 0.2775 0.56791 0.50902 0.0
H410 H 0.22449 0.58491 0.50662 0.0
H411 H 0.22461 0.63101 0.48442 0.0
H412 H 0.11532 0.75289 0.95079 0.0
H413 H 0.10009 0.74861 0.89888 0.0
H414 H 0.12192 0.83835 0.89331 0.0
H415 H 0.13689 0.84289 0.94492 0.0
H416 H 0.0525 0.78455 0.8805 0.0
H417 H 0.15593 0.79747 0.81565 0.0
H418 H 0.15644 0.78548 0.85225 0.0
H419 H 0.15273 0.82326 0.84725 0.0
C420 C 0.11752 0.77151 0.93829 0.0
C421 C 0.12704 0.7983 0.95199 0.0
C422 C 0.10886 0.769 0.90867 0.0
C423 C 0.11027 0.79306 0.8922 0.0
C424 C 0.12122 0.81938 0.90546 0.0
H425 H 0.03955 0.87795 0.75631 0.0
H426 H 0.07187 0.85545 0.79084 0.0
C427 C 0.12946 0.82201 0.93506 0.0
C428 C 0.0962 0.79231 0.86277 0.0
H429 H 0.10926 0.80987 0.79293 0.0
C430 C 0.06489 0.7893 0.86105 0.0
C431 C 0.11253 0.79869 0.83763 0.0
C432 C 0.14633 0.80116 0.83813 0.0
C433 C 0.04911 0.79488 0.83556 0.0
C434 C 0.06531 0.80273 0.81074 0.0
C435 C 0.09687 0.80382 0.81189 0.0
C436 C 0.04968 0.81384 0.78532 0.0
C437 C 0.01515 0.7946 0.83643 0.0
C438 C 0.02754 0.79748 0.76944 0.0
C439 C 0.00846 0.81056 0.75018 0.0
C440 C 0.01163 0.84007 0.74611 0.0
C441 C 0.03597 0.85542 0.7596 0.0
C442 C 0.05467 0.84248 0.77915 0.0
H443 H 0.00637 0.79385 0.85912 0.0
H444 H 0.0058 0.81406 0.82728 0.0
H445 H 0.00671 0.77521 0.82297 0.0
H446 H 0.02387 0.77508 0.77322 0.0
H447 H 0.99004 0.79803 0.7401 0.0
H448 H 0.82541 0.11544 0.88603 0.0
H449 H 0.83808 0.08079 0.84425 0.0
H450 H 0.92121 0.06082 0.88659 0.0
H451 H 0.90907 0.09544 0.9282 0.0
H452 H 0.92635 0.06763 0.825 0.0
H453 H 0.8345 0.99243 0.85095 0.0
H454 H 0.82393 0.02906 0.84617 0.0
H455 H 0.84695 0.02161 0.87689 0.0
C456 C 0.84649 0.10384 0.8864 0.0
C457 C 0.86606 0.10804 0.91068 0.0
C458 C 0.85363 0.08401 0.86252 0.0
C459 C 0.88039 0.06806 0.86256 0.0
C460 C 0.90041 0.07292 0.88621 0.0
H461 H 0.94413 0.90648 0.79257 0.0
H462 H 0.92479 0.9501 0.81985 0.0
C463 C 0.89333 0.09265 0.91005 0.0
C464 C 0.88721 0.04522 0.83881 0.0
H465 H 0.86707 0.97691 0.81233 0.0
C466 C 0.91318 0.04795 0.82183 0.0
C467 C 0.87001 0.01955 0.835 0.0
C468 C 0.84238 0.01521 0.85328 0.0
C469 C 0.923 0.02521 0.80179 0.0
C470 C 0.90625 -0.00073 0.7986 0.0
C471 C 0.8797 0.99696 0.81478 0.0
C472 C 0.91769 0.97314 0.78132 0.0
C473 C 0.95201 0.02846 0.7853 0.0
C474 C 0.91991 0.97164 0.75056 0.0
C475 C 0.93116 0.94668 0.73484 0.0
C476 C 0.94044 0.923 0.74974 0.0
C477 C 0.93777 0.92458 0.78052 0.0
C478 C 0.92649 0.94937 0.79612 0.0
H479 H 0.96422 0.04859 0.79304 0.0
H480 H 0.96696 0.0097 0.78777 0.0
H481 H 0.94707 0.029 0.76152 0.0
H482 H 0.91291 0.9897 0.73877 0.0
H483 H 0.93294 0.94601 0.71113 0.0
H484 H 0.3784 0.34802 0.45236 0.0
H485 H 0.39474 0.34288 0.40148 0.0
H486 H 0.392 0.25008 0.40128 0.0
H487 H 0.376 0.25503 0.45292 0.0
H488 H 0.44496 0.26815 0.38197 0.0
H489 H 0.35597 0.32152 0.32309 0.0
H490 H 0.36687 0.34449 0.35494 0.0
H491 H 0.35016 0.30976 0.35933 0.0
C492 C 0.38078 0.32644 0.44151 0.0
C493 C 0.3761 0.30193 0.45689 0.0
C494 C 0.38978 0.32354 0.41217 0.0
C495 C 0.39406 0.2961 0.39732 0.0
C496 C 0.38849 0.27148 0.41223 0.0
H497 H 0.47493 0.3221 0.22488 0.0
H498 H 0.44123 0.29856 0.25831 0.0
C499 C 0.37937 0.27435 0.44173 0.0
C500 C 0.40821 0.29379 0.36779 0.0
H501 H 0.40731 0.32628 0.30369 0.0
C502 C 0.43628 0.2801 0.36446 0.0
C503 C 0.39671 0.30874 0.34454 0.0
C504 C 0.36559 0.32164 0.34557 0.0
C505 C 0.45449 0.28369 0.33999 0.0
C506 C 0.44457 0.30184 0.31868 0.0
C507 C 0.41519 0.31283 0.32035 0.0
C508 C 0.4658 0.31348 0.29773 0.0
C509 C 0.48488 0.26927 0.338 0.0
C510 C 0.49051 0.32975 0.30885 0.0
C511 C 0.50947 0.34317 0.29002 0.0
C512 C 0.50403 0.34086 0.25959 0.0
C513 C 0.47961 0.32413 0.24826 0.0
C514 C 0.46041 0.31074 0.26727 0.0
H515 H 0.48455 0.24866 0.34858 0.0
H516 H 0.49223 0.26479 0.31479 0.0
H517 H 0.50169 0.28367 0.34982 0.0
H518 H 0.49473 0.33272 0.33231 0.0
H519 H 0.52832 0.35562 0.29934 0.0
H520 H 0.25117 0.89712 0.05428 0.0
H521 H 0.27642 0.94014 0.03881 0.0
H522 H 0.20691 0.94933 0.97449 0.0
H523 H 0.18144 0.90666 0.9897 0.0
H524 H 0.2958 0.95761 0.97938 0.0
H525 H 0.20496 0.02417 0.0343 0.0
H526 H 0.212 0.9873 0.0419 0.0
H527 H 0.19181 0.99476 0.00931 0.0
C528 C 0.2415 0.908 0.0365 0.0
C529 C 0.21399 0.89869 0.02355 0.0
C530 C 0.25601 0.93252 0.02769 0.0
C531 C 0.24324 0.94801 0.00585 0.0
C532 C 0.21687 0.93777 0.99165 0.0
H533 H 0.28315 0.08221 0.90049 0.0
H534 H 0.28462 0.03656 0.92297 0.0
C535 C 0.20235 0.91339 0.00043 0.0
C536 C 0.25566 0.97624 -0.00057 0.0
H537 H 0.23649 0.04729 0.00159 0.0
C538 C 0.28316 0.97736 0.98454 0.0
C539 C 0.23941 0.00196 0.00683 0.0
C540 C 0.21053 0.00216 0.02422 0.0
C541 C 0.29398 0.00353 0.97535 0.0
C542 C 0.27655 0.02893 0.9809 0.0
C543 C 0.2499 0.02789 0.99724 0.0
C544 C 0.28349 0.05625 0.96782 0.0
C545 C 0.32373 0.00363 0.95957 0.0
C546 C 0.28302 0.08263 0.98547 0.0
C547 C 0.28164 0.10874 0.9726 0.0
C548 C 0.28098 0.1089 0.94186 0.0
C549 C 0.28406 0.08269 0.92425 0.0
C550 C 0.28504 0.05655 0.93712 0.0
H551 H 0.33884 0.98652 0.96664 0.0
H552 H 0.31986 -0.00091 0.93558 0.0
H553 H 0.33522 0.02484 0.96352 0.0
H554 H 0.28173 0.08293 0.00919 0.0
H555 H 0.27934 0.1287 0.98661 0.0
H556 H 0.53453 0.66058 0.47076 0.0
H557 H 0.48277 0.66759 0.45577 0.0
H558 H 0.49359 0.75992 0.47086 0.0
H559 H 0.54594 0.75319 0.48608 0.0
H560 H 0.43957 0.73539 0.49614 0.0
H561 H 0.4543 0.69945 0.3781 0.0
H562 H 0.47106 0.67525 0.40193 0.0
H563 H 0.48532 0.71147 0.40172 0.0
C564 C 0.5261 0.68245 0.47091 0.0
C565 C 0.54452 0.70633 0.47962 0.0
C566 C 0.4965 0.6864 0.46213 0.0
C567 C 0.48455 0.71426 0.46179 0.0
C568 C 0.50256 0.73824 0.47074 0.0
H569 H 0.28959 0.73024 0.42212 0.0
H570 H 0.34167 0.74682 0.43138 0.0
C571 C 0.53243 0.73433 0.4794 0.0
C572 C 0.45283 0.71764 0.4529 0.0
H573 H 0.40413 0.69577 0.39756 0.0
C574 C 0.43177 0.72755 0.47436 0.0
C575 C 0.44283 0.70752 0.42442 0.0
C576 C 0.46459 0.69809 0.40012 0.0
C577 C 0.40074 0.72529 0.46872 0.0
C578 C 0.39081 0.71301 0.44095 0.0
C579 C 0.41189 0.70509 0.41888 0.0
C580 C 0.35922 0.70403 0.43584 0.0
C581 C 0.37872 0.73405 0.49298 0.0
C582 C 0.35213 0.67462 0.43517 0.0
C583 C 0.32273 0.66519 0.42998 0.0
C584 C 0.29971 0.68499 0.42527 0.0
C585 C 0.30687 0.71454 0.42574 0.0
C586 C 0.33648 0.72402 0.43112 0.0
H587 H 0.3901 0.743 0.51349 0.0
H588 H 0.36306 0.75058 0.4857 0.0
H589 H 0.36506 0.71506 0.4979 0.0
H590 H 0.36946 0.65889 0.43859 0.0
H591 H 0.31814 0.64224 0.4291 0.0
H592 H 0.38157 0.42564 0.61274 0.0
H593 H 0.3992 0.45646 0.65532 0.0
H594 H 0.3642 0.39593 0.71307 0.0
H595 H 0.34508 0.3656 0.67033 0.0
H596 H 0.353 0.44792 0.73545 0.0
H597 H 0.47214 0.44544 0.70276 0.0
H598 H 0.45001 0.45846 0.67397 0.0
H599 H 0.44453 0.42211 0.68395 0.0
C600 C 0.37764 0.41888 0.63451 0.0
C601 C 0.36215 0.39312 0.63823 0.0
C602 C 0.388 0.43638 0.65885 0.0
C603 C 0.38395 0.42808 0.68741 0.0
C604 C 0.3679 0.40264 0.69124 0.0
H605 H 0.48466 0.53858 0.81888 0.0
H606 H 0.46619 0.49445 0.79098 0.0
C607 C 0.35693 0.38537 0.66684 0.0
C608 C 0.39572 0.44659 0.7131 0.0
H609 H 0.45719 0.48601 0.73666 0.0
C610 C 0.37594 0.45586 0.73599 0.0
C611 C 0.42593 0.45626 0.71449 0.0
C612 C 0.4494 0.44473 0.69263 0.0
C613 C 0.38501 0.47595 0.75914 0.0
C614 C 0.41425 0.48802 0.75872 0.0
C615 C 0.43456 0.47731 0.73684 0.0
C616 C 0.42367 0.51312 0.77921 0.0
C617 C 0.36305 0.48392 0.7837 0.0
C618 C 0.40587 0.53819 0.78229 0.0
C619 C 0.41608 0.563 0.79883 0.0
C620 C 0.44466 0.56352 0.81187 0.0
C621 C 0.46244 0.5385 0.80912 0.0
C622 C 0.45191 0.51341 0.79315 0.0
H623 H 0.34815 0.46537 0.78735 0.0
H624 H 0.37471 0.49088 0.80466 0.0
H625 H 0.34847 0.50179 0.77755 0.0
H626 H 0.3846 0.53907 0.77089 0.0
H627 H 0.40227 0.58228 0.80018 0.0
H628 H 0.04912 0.75147 0.05342 0.0
H629 H 0.99516 0.74599 0.06262 0.0
H630 H 0.98814 0.83759 0.08686 0.0
H631 H 0.04151 0.84339 0.07718 0.0
H632 H 0.96004 0.75813 0.11154 0.0
H633 H 0.92439 0.82506 0.02374 0.0
H634 H 0.96243 0.81214 0.02664 0.0
H635 H 0.95028 0.84425 0.0485 0.0
C636 C 0.03607 0.77043 0.06077 0.0
C637 C 0.04957 0.79794 0.06417 0.0
C638 C 0.00526 0.76725 0.06598 0.0
C639 C 0.98751 0.79149 0.07469 0.0
C640 C 0.00121 0.81871 0.07927 0.0
H641 H 0.82354 0.8191 0.16625 0.0
H642 H 0.87395 0.80417 0.15042 0.0
C643 C 0.03181 0.82196 0.07386 0.0
C644 C 0.95466 0.78873 0.07919 0.0
H645 H 0.88789 0.81872 0.06151 0.0
C646 C 0.94414 0.77099 0.10029 0.0
C647 C 0.93382 0.80486 0.06392 0.0
C648 C 0.94328 0.82238 0.0392 0.0
C649 C 0.91354 0.77044 0.10787 0.0
C650 C 0.89314 0.78868 0.09452 0.0
C651 C 0.90347 0.80498 0.0721 0.0
C652 C 0.86166 0.7932 0.10484 0.0
C653 C 0.90352 0.75047 0.13024 0.0
C654 C 0.83781 0.79221 0.08455 0.0
C655 C 0.80903 0.80134 0.0935 0.0
C656 C 0.80353 0.81136 0.12296 0.0
C657 C 0.82702 0.81098 0.14351 0.0
C658 C 0.85586 0.80227 0.13448 0.0
H659 H 0.91801 0.73095 0.1295 0.0
H660 H 0.90555 0.76181 0.15261 0.0
H661 H 0.87981 0.74351 0.12663 0.0
H662 H 0.84172 0.78543 0.06154 0.0
H663 H 0.79127 0.80141 0.07725 0.0
H664 H 0.74659 0.60681 0.49673 0.0
H665 H 0.77175 0.56446 0.51392 0.0
H666 H 0.6965 0.55103 0.57054 0.0
H667 H 0.67113 0.59292 0.55355 0.0
H668 H 0.78635 0.54747 0.57377 0.0
H669 H 0.70337 0.47641 0.5121 0.0
H670 H 0.70904 0.51365 0.50511 0.0
H671 H 0.68656 0.50489 0.5358 0.0
C672 C 0.73557 0.59507 0.51314 0.0
C673 C 0.70661 0.60299 0.52341 0.0
C674 C 0.75001 0.57094 0.52293 0.0
C675 C 0.7357 0.55447 0.54309 0.0
C676 C 0.70766 0.56329 0.55462 0.0
H677 H 0.77126 0.42517 0.65499 0.0
H678 H 0.77335 0.46998 0.63106 0.0
C679 C 0.6932 0.58724 0.54484 0.0
C680 C 0.74871 0.52689 0.55076 0.0
H681 H 0.73218 0.45522 0.54857 0.0
C682 C 0.77489 0.52715 0.56794 0.0
C683 C 0.73408 0.50042 0.54249 0.0
C684 C 0.70687 0.49867 0.52261 0.0
C685 C 0.78576 0.50167 0.57862 0.0
C686 C 0.76967 0.47555 0.57227 0.0
C687 C 0.74454 0.47518 0.55359 0.0
C688 C 0.77617 0.44894 0.58682 0.0
C689 C 0.81409 0.50311 0.59686 0.0
C690 C 0.77764 0.42209 0.57005 0.0
C691 C 0.77584 0.39644 0.58372 0.0
C692 C 0.77288 0.39725 0.6144 0.0
C693 C 0.77398 0.42399 0.63133 0.0
C694 C 0.77534 0.44965 0.61763 0.0
H695 H 0.8293 0.5204 0.59037 0.0
H696 H 0.80813 0.50837 0.62033 0.0
H697 H 0.82639 0.48224 0.59469 0.0
H698 H 0.77821 0.421 0.54625 0.0
H699 H 0.77503 0.37604 0.57024 0.0
H700 H 0.86966 0.1535 0.09901 0.0
H701 H 0.8856 0.15628 0.15033 0.0
H702 H 0.91232 0.24499 0.14602 0.0
H703 H 0.89605 0.24251 0.09442 0.0
H704 H 0.95817 0.20481 0.1628 0.0
H705 H 0.85439 0.19896 0.22907 0.0
H706 H 0.85558 0.17378 0.19681 0.0
H707 H 0.85468 0.2119 0.19287 0.0
C708 C 0.87839 0.17381 0.1091 0.0
C709 C 0.88183 0.19774 0.09262 0.0
C710 C 0.88721 0.17543 0.13852 0.0
C711 C 0.89979 0.20093 0.15202 0.0
C712 C 0.9023 0.22523 0.13602 0.0
H713 H 0.01969 0.19218 0.30363 0.0
H714 H 0.98783 0.21504 0.26892 0.0
C715 C 0.89303 0.22377 0.1066 0.0
C716 C 0.91413 0.20044 0.1812 0.0
H717 H 0.90025 0.18461 0.25147 0.0
C718 C 0.9456 0.20111 0.18246 0.0
C719 C 0.89753 0.19534 0.20658 0.0
C720 C 0.86364 0.19518 0.20645 0.0
C721 C 0.96108 0.19471 0.20785 0.0
C722 C 0.94451 0.18849 0.23304 0.0
C723 C 0.91294 0.18945 0.23224 0.0
C724 C 0.9595 0.17757 0.25891 0.0
C725 C 0.99496 0.19256 0.20656 0.0
C726 C 0.95255 0.14982 0.26671 0.0
C727 C 0.97011 0.13698 0.28729 0.0
C728 C 0.99526 0.1515 0.30021 0.0
C729 C 0.00058 0.18026 0.29418 0.0
C730 C 0.98263 0.19327 0.27396 0.0
H731 H 0.00352 0.19165 0.18363 0.0
H732 H 0.00494 0.21186 0.21898 0.0
H733 H 0.00296 0.17305 0.21656 0.0
H734 H 0.93454 0.13741 0.25569 0.0
H735 H 0.96482 0.11513 0.29202 0.0
H736 H 0.21099 0.77582 0.15284 0.0
H737 H 0.21203 0.75166 0.19797 0.0
H738 H 0.13013 0.7065 0.17245 0.0
H739 H 0.12884 0.73061 0.12668 0.0
H740 H 0.13487 0.738 0.23451 0.0
H741 H 0.22787 0.6618 0.20295 0.0
H742 H 0.23411 0.69838 0.1945 0.0
H743 H 0.20446 0.67754 0.1762 0.0
C744 C 0.19315 0.76072 0.15664 0.0
C745 C 0.16981 0.75514 0.13609 0.0
C746 C 0.19389 0.74687 0.18243 0.0
C747 C 0.1713 0.72722 0.18832 0.0
C748 C 0.14783 0.72155 0.16809 0.0
H749 H 0.2035 0.6313 0.34151 0.0
H750 H 0.18382 0.64262 0.29385 0.0
C751 C 0.14719 0.73526 0.14198 0.0
C752 C 0.17241 0.71335 0.21614 0.0
H753 H 0.21731 0.67047 0.25426 0.0
C754 C 0.15247 0.72277 0.23877 0.0
C755 C 0.19525 0.69337 0.22142 0.0
C756 C 0.21654 0.68192 0.19744 0.0
C757 C 0.15596 0.71395 0.2672 0.0
C758 C 0.18015 0.69554 0.27299 0.0
C759 C 0.1989 0.68476 0.24984 0.0
C760 C 0.18802 0.68891 0.30316 0.0
C761 C 0.13416 0.7249 0.29092 0.0
C762 C 0.19667 0.71123 0.32426 0.0
C763 C 0.20785 0.70485 0.35154 0.0
C764 C 0.21068 0.67602 0.35816 0.0
C765 C 0.20116 0.65375 0.33727 0.0
C766 C 0.19005 0.66015 0.30998 0.0
H767 H 0.1123 0.73097 0.28143 0.0
H768 H 0.1301 0.70842 0.30665 0.0
H769 H 0.14369 0.74445 0.30329 0.0
H770 H 0.19589 0.73355 0.31922 0.0
H771 H 0.2149 0.72245 0.36722 0.0
H772 H 0.77078 0.70984 0.51085 0.0
H773 H 0.81345 0.7309 0.5389 0.0
H774 H 0.756 0.79789 0.57918 0.0
H775 H 0.71303 0.77686 0.55159 0.0
H776 H 0.83917 0.78636 0.54143 0.0
H777 H 0.7934 0.76198 0.64955 0.0
H778 H 0.77828 0.74611 0.61511 0.0
H779 H 0.76839 0.78243 0.62855 0.0
C780 C 0.76714 0.7291 0.5256 0.0
C781 C 0.73833 0.74148 0.52913 0.0
C782 C 0.79161 0.74112 0.54157 0.0
C783 C 0.78775 0.76565 0.56142 0.0
C784 C 0.7593 0.7786 0.56437 0.0
H785 H 0.92015 0.8796 0.64868 0.0
H786 H 0.88369 0.85624 0.61416 0.0
C787 C 0.73479 0.76659 0.54848 0.0
C788 C 0.81336 0.7774 0.57945 0.0
H789 H 0.83679 0.79174 0.65042 0.0
C790 C 0.83877 0.78745 0.56526 0.0
C791 C 0.81291 0.77833 0.61049 0.0
C792 C 0.78693 0.7664 0.62687 0.0
C793 C 0.86354 0.79907 0.58139 0.0
C794 C 0.86258 0.80099 0.61247 0.0
C795 C 0.83741 0.79038 0.62658 0.0
C796 C 0.88711 0.81431 0.63103 0.0
C797 C 0.89059 0.80887 0.56503 0.0
C798 C 0.90111 0.79852 0.652 0.0
C799 C 0.9216 0.8119 0.67203 0.0
C800 C 0.92843 0.84141 0.67153 0.0
C801 C 0.9152 0.8569 0.64977 0.0
C802 C 0.89461 0.8435 0.6298 0.0
H803 H 0.89142 0.79849 0.54214 0.0
H804 H 0.88934 0.83259 0.5639 0.0
H805 H 0.91178 0.80395 0.57643 0.0
H806 H 0.89547 0.776 0.65343 0.0
H807 H 0.93099 0.79944 0.68876 0.0
H808 H 0.73082 0.20337 0.01649 0.0
H809 H 0.68896 0.22539 0.04486 0.0
H810 H 0.74454 0.29887 0.0728 0.0
H811 H 0.78679 0.27679 0.04503 0.0
H812 H 0.71565 0.27796 0.11826 0.0
H813 H 0.63463 0.29199 0.0283 0.0
H814 H 0.648 0.2556 0.02871 0.0
H815 H 0.67384 0.28391 0.02157 0.0
C816 C 0.73412 0.22436 0.02842 0.0
C817 C 0.76223 0.23831 0.02845 0.0
C818 C 0.71006 0.237 0.04448 0.0
C819 C 0.71348 0.26397 0.06055 0.0
C820 C 0.74138 0.27808 0.06041 0.0
H821 H 0.57795 0.3749 0.1472 0.0
H822 H 0.61404 0.35128 0.11247 0.0
C823 C 0.76552 0.2654 0.04453 0.0
C824 C 0.68862 0.27671 0.07902 0.0
H825 H 0.61557 0.29915 0.07722 0.0
C826 C 0.6938 0.28269 0.10927 0.0
C827 C 0.66024 0.28311 0.06717 0.0
C828 C 0.65386 0.2786 0.03462 0.0
C829 C 0.67132 0.29466 0.12809 0.0
C830 C 0.6426 0.30011 0.11644 0.0
C831 C 0.63748 0.2945 0.08613 0.0
C832 C 0.61808 0.3127 0.13539 0.0
C833 C 0.67879 0.30194 0.16017 0.0
C834 C 0.60753 0.29834 0.1591 0.0
C835 C 0.58724 0.3119 0.17918 0.0
C836 C 0.57685 0.33998 0.17569 0.0
C837 C 0.58594 0.35349 0.15078 0.0
C838 C 0.6064 0.33996 0.13082 0.0
H839 H 0.70345 0.30342 0.16393 0.0
H840 H 0.66838 0.32276 0.16867 0.0
H841 H 0.6699 0.28472 0.17312 0.0
H842 H 0.61584 0.27703 0.16267 0.0
H843 H 0.58092 0.30093 0.19819 0.0
H844 H 0.28966 0.28193 0.65846 0.0
H845 H 0.2887 0.25778 0.70359 0.0
H846 H 0.36531 0.20634 0.67406 0.0
H847 H 0.36658 0.23049 0.62837 0.0
H848 H 0.2853 0.19346 0.70654 0.0
H849 H 0.38568 0.24793 0.75973 0.0
H850 H 0.36493 0.2637 0.73115 0.0
H851 H 0.38819 0.23272 0.72205 0.0
C852 C 0.30639 0.26552 0.6614 0.0
C853 C 0.32826 0.25821 0.63975 0.0
C854 C 0.30574 0.25172 0.68723 0.0
C855 C 0.32702 0.23049 0.69212 0.0
C856 C 0.34884 0.22287 0.67065 0.0
H857 H 0.2978 0.12978 0.84341 0.0
H858 H 0.31568 0.14218 0.79544 0.0
C859 C 0.34943 0.2366 0.64457 0.0
C860 C 0.32574 0.21644 0.71982 0.0
H861 H 0.35667 0.21879 0.78844 0.0
C862 C 0.30117 0.19848 0.72433 0.0
C863 C 0.3464 0.22341 0.74289 0.0
C864 C 0.37282 0.24307 0.73901 0.0
C865 C 0.29605 0.18807 0.75177 0.0
C866 C 0.31626 0.19568 0.77514 0.0
C867 C 0.3414 0.21289 0.77036 0.0
C868 C 0.30984 0.18823 0.80531 0.0
C869 C 0.26822 0.17031 0.75598 0.0
C870 C 0.30182 0.21014 0.82703 0.0
C871 C 0.29181 0.20317 0.8545 0.0
C872 C 0.28977 0.17416 0.86072 0.0
C873 C 0.29934 0.15234 0.83939 0.0
C874 C 0.30933 0.15935 0.8119 0.0
H875 H 0.25246 0.17038 0.73709 0.0
H876 H 0.27481 0.14761 0.75835 0.0
H877 H 0.25617 0.17858 0.77632 0.0
H878 H 0.30215 0.23257 0.82233 0.0
H879 H 0.28493 0.22044 0.87062 0.0
H880 H 0.63839 0.78459 0.43017 0.0
H881 H 0.63887 0.80905 0.38464 0.0
H882 H 0.68946 0.73836 0.34146 0.0
H883 H 0.68897 0.71384 0.38615 0.0
H884 H 0.68947 0.82634 0.35388 0.0
H885 H 0.62126 0.74867 0.28332 0.0
H886 H 0.62113 0.74959 0.32298 0.0
H887 H 0.65036 0.73066 0.30185 0.0
C888 C 0.64941 0.77419 0.4109 0.0
C889 C 0.66362 0.74722 0.41188 0.0
C890 C 0.64962 0.78817 0.38494 0.0
C891 C 0.66366 0.7752 0.35957 0.0
C892 C 0.67784 0.7484 0.36057 0.0
H893 H 0.76376 0.82512 0.21914 0.0
H894 H 0.74128 0.81532 0.26588 0.0
C895 C 0.67776 0.73454 0.38633 0.0
C896 C 0.6656 0.79003 0.33231 0.0
H897 H 0.65722 0.77704 0.25805 0.0
C898 C 0.68179 0.81598 0.33296 0.0
C899 C 0.65506 0.77681 0.30511 0.0
C900 C 0.63569 0.75005 0.30328 0.0
C901 C 0.68993 0.82772 0.30684 0.0
C902 C 0.68211 0.81277 0.27951 0.0
C903 C 0.66368 0.78823 0.27899 0.0
C904 C 0.69534 0.82036 0.25147 0.0
C905 C 0.70762 0.85552 0.30877 0.0
C906 C 0.67696 0.82561 0.22752 0.0
C907 C 0.68979 0.8307 0.2005 0.0
C908 C 0.72121 0.83034 0.19693 0.0
C909 C 0.73949 0.82516 0.22103 0.0
C910 C 0.72668 0.82006 0.24793 0.0
H911 H 0.70244 0.86913 0.32943 0.0
H912 H 0.732 0.85046 0.30892 0.0
H913 H 0.70286 0.86816 0.28978 0.0
H914 H 0.65271 0.82554 0.2297 0.0
H915 H 0.67512 0.83438 0.18226 0.0
H916 H 0.80525 0.21124 0.88594 0.0
H917 H 0.80422 0.23576 0.84115 0.0
H918 H 0.86217 0.30256 0.88124 0.0
H919 H 0.86319 0.27821 0.92673 0.0
H920 H 0.81226 0.32375 0.8532 0.0
H921 H 0.86998 0.24061 0.7795 0.0
H922 H 0.83995 0.22536 0.79927 0.0
H923 H 0.87176 0.24128 0.8191 0.0
C924 C 0.81796 0.23107 0.88537 0.0
C925 C 0.83436 0.24271 0.91003 0.0
C926 C 0.81754 0.24493 0.85958 0.0
C927 C 0.83364 0.27062 0.85768 0.0
C928 C 0.84988 0.28254 0.88221 0.0
H929 H 0.82486 0.33433 0.68207 0.0
H930 H 0.8467 0.32208 0.72875 0.0
C931 C 0.85039 0.26862 0.90816 0.0
C932 C 0.83169 0.28557 0.83049 0.0
H933 H 0.83696 0.27296 0.75592 0.0
C934 C 0.81825 0.31295 0.83195 0.0
C935 C 0.84008 0.27174 0.80284 0.0
C936 C 0.85655 0.24325 0.80008 0.0
C937 C 0.81082 0.32585 0.80628 0.0
C938 C 0.81654 0.31069 0.77857 0.0
C939 C 0.83215 0.28437 0.77718 0.0
C940 C 0.80392 0.3202 0.75104 0.0
C941 C 0.79619 0.35525 0.8091 0.0
C942 C 0.77269 0.32294 0.74808 0.0
C943 C 0.76023 0.32994 0.72162 0.0
C944 C 0.77873 0.33404 0.6974 0.0
C945 C 0.81007 0.33147 0.70042 0.0
C946 C 0.82255 0.32443 0.727 0.0
H947 H 0.80291 0.36786 0.82992 0.0
H948 H 0.80215 0.36779 0.79035 0.0
H949 H 0.7714 0.35257 0.80949 0.0
H950 H 0.75784 0.3191 0.76612 0.0
H951 H 0.73605 0.33218 0.72016 0.0
H952 H 0.22216 0.29356 0.54249 0.0
H953 H 0.17934 0.27005 0.5166 0.0
H954 H 0.23878 0.20639 0.47341 0.0
H955 H 0.28161 0.22932 0.49941 0.0
H956 H 0.16951 0.26152 0.45702 0.0
H957 H 0.17356 0.1564 0.505 0.0
H958 H 0.19371 0.18782 0.52076 0.0
H959 H 0.20908 0.16581 0.48989 0.0
C960 C 0.22615 0.27443 0.52765 0.0
C961 C 0.25539 0.26327 0.52318 0.0
C962 C 0.20162 0.26104 0.51289 0.0
C963 C 0.20582 0.23618 0.49353 0.0
C964 C 0.23493 0.22512 0.48885 0.0
H965 H 0.11971 0.13451 0.35643 0.0
H966 H 0.15189 0.15985 0.39354 0.0
C967 C 0.25945 0.23841 0.50361 0.0
C968 C 0.1801 0.22251 0.47702 0.0
H969 H 0.1457 0.15749 0.45989 0.0
C970 C 0.16389 0.23891 0.45802 0.0
C971 C 0.17271 0.19307 0.47855 0.0
C972 C 0.18798 0.17483 0.49989 0.0
C973 C 0.14162 0.22619 0.43928 0.0
C974 C 0.13543 0.19644 0.43974 0.0
C975 C 0.15069 0.18032 0.45958 0.0
C976 C 0.11527 0.18107 0.41791 0.0
C977 C 0.12584 0.24419 0.41806 0.0
C978 C 0.08398 0.18459 0.41953 0.0
C979 C 0.06536 0.1698 0.39849 0.0
C980 C 0.07784 0.1513 0.37557 0.0
C981 C 0.10927 0.14805 0.37411 0.0
C982 C 0.12775 0.16265 0.39517 0.0
H983 H 0.13497 0.2665 0.41886 0.0
H984 H 0.12801 0.23384 0.39527 0.0
H985 H 0.10152 0.24545 0.42343 0.0
H986 H 0.07402 0.19864 0.43712 0.0
H987 H 0.04125 0.17259 0.40033 0.0
H988 H 0.27607 0.79368 0.03529 0.0
H989 H 0.31847 0.77172 0.0076 0.0
H990 H 0.2618 0.701 0.97396 0.0
H991 H 0.21911 0.72287 0.00118 0.0
H992 H 0.34561 0.71732 0.00888 0.0
H993 H 0.29622 0.73185 0.89953 0.0
H994 H 0.28163 0.74994 0.93318 0.0
H995 H 0.27224 0.71277 0.92281 0.0
C996 C 0.27256 0.77341 0.02208 0.0
C997 C 0.24404 0.76019 0.02029 0.0
C998 C 0.29686 0.7609 0.00631 0.0
C999 C 0.2931 0.73502 0.9884 0.0
C1000 C 0.26498 0.7213 0.98722 0.0
H1001 H 0.42428 0.61626 0.90842 0.0
H1002 H 0.38849 0.64245 0.94151 0.0
C1003 C 0.24064 0.7338 0.00291 0.0
C1004 C 0.31849 0.72255 0.97062 0.0
H1005 H 0.33995 0.70258 0.90003 0.0
C1006 C 0.34451 0.71421 0.98506 0.0
C1007 C 0.31712 0.71903 0.93957 0.0
C1008 C 0.29043 0.72911 0.92279 0.0
C1009 C 0.36896 0.70165 0.96923 0.0
C1010 C 0.36704 0.69699 0.93824 0.0
C1011 C 0.3413 0.70602 0.92381 0.0
C1012 C 0.39101 0.68214 0.92019 0.0
C1013 C 0.39668 0.69374 0.98579 0.0
C1014 C 0.40417 0.6957 0.89713 0.0
C1015 C 0.42426 0.68064 0.8779 0.0
C1016 C 0.43149 0.65168 0.88135 0.0
C1017 C 0.41899 0.63847 0.90506 0.0
C1018 C 0.39881 0.65352 0.92421 0.0
H1019 H 0.3982 0.70628 0.00765 0.0
H1020 H 0.39569 0.67048 0.98945 0.0
H1021 H 0.41742 0.69754 0.97317 0.0
H1022 H 0.39826 0.71772 0.89353 0.0
H1023 H 0.43309 0.69133 0.85962 0.0
loop_
_geom_bond_atom_site_label_1
_geom_bond_atom_site_label_2
_geom_bond_distance
_geom_bond_site_symmetry_2
_ccdc_geom_bond_type
Sc0 O3 2.025 . S
Sc0 O10 2.105 . S
Sc0 O13 2.105 . S
Sc0 O16 2.105 . S
Sc0 O19 2.106 . S
Sc1 O3 2.025 . S
Sc1 O11 2.105 1_554 S
Sc1 O15 2.105 . S
Sc1 O17 2.105 . S
Sc1 O21 2.105 . S
Sc2 O3 2.025 . S
Sc2 O12 2.105 . S
Sc2 O14 2.105 . S
Sc2 O18 2.105 . S
Sc2 O20 2.105 . S
O3 Sc0 2.025 . S
O3 Sc1 2.025 . S
O3 Sc2 2.025 . S
C4 O10 1.268 . S
C4 O20 1.268 . S
C5 O11 1.268 . S
C5 O19 1.268 1_556 S
C6 O12 1.268 . S
C6 O21 1.268 . S
C7 O13 1.268 . S
C7 O17 1.268 . S
C8 O14 1.268 . S
C8 O16 1.268 . S
C9 O15 1.268 . S
C9 O18 1.268 . S
O10 Sc0 2.105 . S
O10 C4 1.268 . S
O11 Sc1 2.105 1_556 S
O11 C5 1.268 . S
O12 Sc2 2.105 . S
O12 C6 1.268 . S
O13 Sc0 2.105 . S
O13 C7 1.268 . S
O14 Sc2 2.105 . S
O14 C8 1.268 . S
O15 Sc1 2.105 . S
O15 C9 1.268 . S
O16 Sc0 2.105 . S
O16 C8 1.268 . S
O17 Sc1 2.105 . S
O17 C7 1.268 . S
O18 Sc2 2.105 . S
O18 C9 1.268 . S
O19 Sc0 2.106 . S
O19 C5 1.268 1_554 S
O20 Sc2 2.105 . S
O20 C4 1.268 . S
O21 Sc1 2.105 . S
O21 C6 1.268 . S
Sc22 O25 2.025 . S
Sc22 O32 2.105 . S
Sc22 O35 2.105 . S
Sc22 O38 2.105 . S
Sc22 O41 2.105 . S
Sc23 O25 2.025 . S
Sc23 O33 2.105 . S
Sc23 O37 2.105 . S
Sc23 O39 2.105 . S
Sc23 O43 2.105 . S
Sc24 O25 2.025 . S
Sc24 O34 2.105 . S
Sc24 O36 2.105 . S
Sc24 O40 2.105 . S
Sc24 O42 2.105 . S
O25 Sc22 2.025 . S
O25 Sc23 2.025 . S
O25 Sc24 2.025 . S
C26 O32 1.268 . S
C26 O42 1.268 . S
C27 O33 1.268 . S
C27 O41 1.268 . S
C28 O34 1.268 . S
C28 O43 1.268 . S
C29 O35 1.268 . S
C29 O39 1.268 . S
C30 O36 1.268 . S
C30 O38 1.268 . S
C31 O37 1.268 . S
C31 O40 1.268 . S
O32 Sc22 2.105 . S
O32 C26 1.268 . S
O33 Sc23 2.105 . S
O33 C27 1.268 . S
O34 Sc24 2.105 . S
O34 C28 1.268 . S
O35 Sc22 2.105 . S
O35 C29 1.268 . S
O36 Sc24 2.105 . S
O36 C30 1.268 . S
O37 Sc23 2.105 . S
O37 C31 1.268 . S
O38 Sc22 2.105 . S
O38 C30 1.268 . S
O39 Sc23 2.105 . S
O39 C29 1.268 . S
O40 Sc24 2.105 . S
O40 C31 1.268 . S
O41 Sc22 2.105 . S
O41 C27 1.268 . S
O42 Sc24 2.105 . S
O42 C26 1.268 . S
O43 Sc23 2.105 . S
O43 C28 1.268 . S
Sc44 O47 2.025 . S
Sc44 O54 2.105 1_554 S
Sc44 O57 2.105 . S
Sc44 O60 2.105 . S
Sc44 O63 2.105 1_554 S
Sc45 O47 2.025 1_556 S
Sc45 O55 2.105 . S
Sc45 O59 2.105 1_556 S
Sc45 O61 2.105 1_556 S
Sc45 O65 2.105 . S
Sc46 O47 2.025 . S
Sc46 O56 2.105 1_554 S
Sc46 O58 2.105 . S
Sc46 O62 2.105 . S
Sc46 O64 2.105 1_554 S
O47 Sc44 2.025 . S
O47 Sc45 2.025 1_554 S
O47 Sc46 2.025 . S
C48 O54 1.268 . S
C48 O64 1.268 . S
C49 O55 1.268 . S
C49 O63 1.268 . S
C50 O56 1.268 . S
C50 O65 1.268 . S
C51 O57 1.268 . S
C51 O61 1.268 . S
C52 O58 1.268 . S
C52 O60 1.268 . S
C53 O59 1.268 . S
C53 O62 1.268 . S
O54 Sc44 2.105 1_556 S
O54 C48 1.268 . S
O55 Sc45 2.105 . S
O55 C49 1.268 . S
O56 Sc46 2.105 1_556 S
O56 C50 1.268 . S
O57 Sc44 2.105 . S
O57 C51 1.268 . S
O58 Sc46 2.105 . S
O58 C52 1.268 . S
O59 Sc45 2.105 1_554 S
O59 C53 1.268 . S
O60 Sc44 2.105 . S
O60 C52 1.268 . S
O61 Sc45 2.105 1_554 S
O61 C51 1.268 . S
O62 Sc46 2.105 . S
O62 C53 1.268 . S
O63 Sc44 2.105 1_556 S
O63 C49 1.268 . S
O64 Sc46 2.105 1_556 S
O64 C48 1.268 . S
O65 Sc45 2.105 . S
O65 C50 1.268 . S
Sc66 O69 2.025 . S
Sc66 O76 2.105 . S
Sc66 O79 2.105 . S
Sc66 O82 2.105 . S
Sc66 O85 2.105 . S
Sc67 O69 2.025 . S
Sc67 O77 2.105 . S
Sc67 O81 2.105 . S
Sc67 O83 2.105 . S
Sc67 O87 2.105 . S
Sc68 O69 2.025 . S
Sc68 O78 2.105 . S
Sc68 O80 2.105 . S
Sc68 O84 2.105 . S
Sc68 O86 2.105 . S
O69 Sc66 2.025 . S
O69 Sc67 2.025 . S
O69 Sc68 2.025 . S
C70 O76 1.268 . S
C70 O86 1.268 . S
C71 O77 1.268 . S
C71 O85 1.268 . S
C72 O78 1.268 . S
C72 O87 1.268 . S
C73 O79 1.268 . S
C73 O83 1.268 . S
C74 O80 1.268 . S
C74 O82 1.268 . S
C75 O81 1.268 . S
C75 O84 1.268 . S
O76 Sc66 2.105 . S
O76 C70 1.268 . S
O77 Sc67 2.105 . S
O77 C71 1.268 . S
O78 Sc68 2.105 . S
O78 C72 1.268 . S
O79 Sc66 2.105 . S
O79 C73 1.268 . S
O80 Sc68 2.105 . S
O80 C74 1.268 . S
O81 Sc67 2.105 . S
O81 C75 1.268 . S
O82 Sc66 2.105 . S
O82 C74 1.268 . S
O83 Sc67 2.105 . S
O83 C73 1.268 . S
O84 Sc68 2.105 . S
O84 C75 1.268 . S
O85 Sc66 2.105 . S
O85 C71 1.268 . S
O86 Sc68 2.105 . S
O86 C70 1.268 . S
O87 Sc67 2.105 . S
O87 C72 1.268 . S
H88 C91 0.931 . S
H89 C94 0.928 . S
H90 C96 0.930 . S
C91 H88 0.931 . S
C91 C92 1.413 . S
C91 C93 1.360 . S
C92 C91 1.413 . S
C92 C96 1.429 . S
C93 C91 1.360 . S
C93 C94 1.372 . S
C94 H89 0.928 . S
C94 C93 1.372 . S
C94 C95 1.404 . S
C95 C94 1.404 . S
C95 C96 1.391 . S
C96 H90 0.930 . S
C96 C92 1.429 . S
C96 C95 1.391 . S
H97 C100 0.931 . S
H98 C103 0.928 . S
H99 C105 0.930 . S
C100 H97 0.931 . S
C100 C101 1.413 . S
C100 C102 1.360 . S
C101 C100 1.413 . S
C101 C105 1.429 . S
C102 C100 1.360 . S
C102 C103 1.372 . S
C103 H98 0.928 . S
C103 C102 1.372 . S
C103 C104 1.404 . S
C104 C103 1.404 . S
C104 C105 1.391 . S
C105 H99 0.930 . S
C105 C101 1.429 . S
C105 C104 1.391 . S
H106 C109 0.931 . S
H107 C112 0.928 . S
H108 C114 0.930 . S
C109 H106 0.931 . S
C109 C110 1.413 . S
C109 C111 1.360 . S
C110 C109 1.413 . S
C110 C114 1.429 . S
C111 C109 1.360 . S
C111 C112 1.372 . S
C112 H107 0.928 . S
C112 C111 1.372 . S
C112 C113 1.404 . S
C113 C112 1.404 . S
C113 C114 1.391 . S
C114 H108 0.930 . S
C114 C110 1.429 . S
C114 C113 1.391 . S
H115 C118 0.931 . S
H116 C121 0.928 . S
H117 C123 0.930 . S
C118 H115 0.931 . S
C118 C119 1.413 . S
C118 C120 1.360 . S
C119 C118 1.413 . S
C119 C123 1.429 . S
C120 C118 1.360 . S
C120 C121 1.372 . S
C121 H116 0.928 . S
C121 C120 1.372 . S
C121 C122 1.404 . S
C122 C121 1.404 . S
C122 C123 1.391 . S
C123 H117 0.930 . S
C123 C119 1.429 . S
C123 C122 1.391 . S
H124 C127 0.931 . S
H125 C130 0.928 . S
H126 C132 0.930 . S
C127 H124 0.931 . S
C127 C128 1.413 . S
C127 C129 1.360 . S
C128 C127 1.413 . S
C128 C132 1.429 . S
C129 C127 1.360 . S
C129 C130 1.372 . S
C130 H125 0.928 . S
C130 C129 1.372 . S
C130 C131 1.404 . S
C131 C130 1.404 . S
C131 C132 1.391 . S
C132 H126 0.930 . S
C132 C128 1.429 . S
C132 C131 1.391 . S
H133 C136 0.931 . S
H134 C139 0.928 . S
H135 C141 0.930 . S
C136 H133 0.931 . S
C136 C137 1.413 . S
C136 C138 1.360 . S
C137 C136 1.413 . S
C137 C141 1.429 . S
C138 C136 1.360 . S
C138 C139 1.372 . S
C139 H134 0.928 . S
C139 C138 1.372 . S
C139 C140 1.404 . S
C140 C139 1.404 . S
C140 C141 1.391 . S
C141 H135 0.930 . S
C141 C137 1.429 . S
C141 C140 1.391 . S
H142 C145 0.931 . S
H143 C148 0.928 . S
H144 C150 0.930 . S
C145 H142 0.931 . S
C145 C146 1.413 . S
C145 C147 1.360 . S
C146 C145 1.413 . S
C146 C150 1.429 . S
C147 C145 1.360 . S
C147 C148 1.372 . S
C148 H143 0.928 . S
C148 C147 1.372 . S
C148 C149 1.404 . S
C149 C148 1.404 . S
C149 C150 1.391 . S
C150 H144 0.930 . S
C150 C146 1.429 . S
C150 C149 1.391 . S
H151 C154 0.931 . S
H152 C157 0.928 . S
H153 C159 0.930 . S
C154 H151 0.931 . S
C154 C155 1.413 . S
C154 C156 1.360 . S
C155 C154 1.413 . S
C155 C159 1.429 . S
C156 C154 1.360 . S
C156 C157 1.372 . S
C157 H152 0.928 . S
C157 C156 1.372 . S
C157 C158 1.404 . S
C158 C157 1.404 . S
C158 C159 1.391 . S
C159 H153 0.930 . S
C159 C155 1.429 . S
C159 C158 1.391 . S
H160 C168 0.929 . S
H161 C170 0.930 . S
H162 C172 0.930 . S
H163 C175 0.929 . S
H164 C178 0.930 . S
H165 C180 0.960 1_545 S
H166 C180 0.960 . S
H167 C180 0.960 . S
C168 H160 0.929 . S
C168 C169 1.377 . S
C168 C170 1.384 . S
C169 C168 1.377 . S
C169 C175 1.390 . S
C170 H161 0.930 . S
C170 C168 1.384 . S
C170 C171 1.372 . S
C171 C170 1.372 . S
C171 C172 1.400 . S
C171 C176 1.490 . S
C172 H162 0.930 . S
C172 C171 1.400 . S
C172 C175 1.386 . S
H173 C189 0.930 . S
H174 C190 0.931 . S
C175 H163 0.929 . S
C175 C169 1.390 . S
C175 C172 1.386 . S
C176 C171 1.490 . S
C176 C178 1.395 . S
C176 C179 1.403 . S
H177 C183 0.930 . S
C178 H164 0.930 . S
C178 C176 1.395 . S
C178 C181 1.403 . S
C179 C176 1.403 . S
C179 C180 1.524 . S
C179 C183 1.400 1_565 S
C180 H165 0.960 1_565 S
C180 H166 0.960 . S
C180 H167 0.960 . S
C180 C179 1.524 . S
C181 C178 1.403 . S
C181 C182 1.392 1_565 S
C181 C185 1.495 . S
C182 C181 1.392 1_545 S
C182 C183 1.385 . S
C182 C184 1.478 . S
C183 H177 0.930 . S
C183 C179 1.400 1_545 S
C183 C182 1.385 . S
C184 C182 1.478 . S
C184 C186 1.381 . S
C184 C190 1.383 . S
C185 C181 1.495 . S
C185 H191 0.959 . S
C185 H192 0.961 . S
C185 H193 0.960 . S
C186 C184 1.381 . S
C186 C187 1.394 . S
C186 H194 0.930 . S
C187 C186 1.394 . S
C187 C188 1.383 . S
C187 H195 0.929 . S
C188 C187 1.383 . S
C188 C189 1.377 . S
C189 H173 0.930 . S
C189 C188 1.377 . S
C189 C190 1.379 . S
C190 H174 0.931 . S
C190 C184 1.383 . S
C190 C189 1.379 . S
H191 C185 0.959 . S
H192 C185 0.961 . S
H193 C185 0.960 . S
H194 C186 0.930 . S
H195 C187 0.929 . S
H196 C204 0.929 . S
H197 C206 0.930 . S
H198 C208 0.930 . S
H199 C211 0.929 . S
H200 C214 0.930 . S
H201 C216 0.960 . S
H202 C216 0.960 . S
H203 C216 0.960 . S
C204 H196 0.929 . S
C204 C205 1.377 . S
C204 C206 1.384 . S
C205 C204 1.377 . S
C205 C211 1.390 . S
C206 H197 0.930 . S
C206 C204 1.384 . S
C206 C207 1.372 . S
C207 C206 1.372 . S
C207 C208 1.400 . S
C207 C212 1.490 . S
C208 H198 0.930 . S
C208 C207 1.400 . S
C208 C211 1.386 . S
H209 C225 0.930 . S
H210 C226 0.931 . S
C211 H199 0.929 . S
C211 C205 1.390 . S
C211 C208 1.386 . S
C212 C207 1.490 . S
C212 C214 1.395 . S
C212 C215 1.403 . S
H213 C219 0.930 . S
C214 H200 0.930 . S
C214 C212 1.395 . S
C214 C217 1.403 . S
C215 C212 1.403 . S
C215 C216 1.524 . S
C215 C219 1.400 . S
C216 H201 0.960 . S
C216 H202 0.960 . S
C216 H203 0.960 . S
C216 C215 1.524 . S
C217 C214 1.403 . S
C217 C218 1.392 . S
C217 C221 1.495 . S
C218 C217 1.392 . S
C218 C219 1.385 . S
C218 C220 1.478 . S
C219 H213 0.930 . S
C219 C215 1.400 . S
C219 C218 1.385 . S
C220 C218 1.478 . S
C220 C222 1.381 . S
C220 C226 1.383 . S
C221 C217 1.495 . S
C221 H227 0.959 . S
C221 H228 0.961 . S
C221 H229 0.960 . S
C222 C220 1.381 . S
C222 C223 1.394 . S
C222 H230 0.930 . S
C223 C222 1.394 . S
C223 C224 1.383 . S
C223 H231 0.929 . S
C224 C223 1.383 . S
C224 C225 1.377 . S
C225 H209 0.930 . S
C225 C224 1.377 . S
C225 C226 1.379 . S
C226 H210 0.931 . S
C226 C220 1.383 . S
C226 C225 1.379 . S
H227 C221 0.959 . S
H228 C221 0.961 . S
H229 C221 0.960 . S
H230 C222 0.930 . S
H231 C223 0.929 . S
H232 C240 0.929 . S
H233 C242 0.930 . S
H234 C244 0.930 . S
H235 C247 0.929 . S
H236 C250 0.930 . S
H237 C252 0.960 . S
H238 C252 0.960 1_545 S
H239 C252 0.960 1_545 S
C240 H232 0.929 . S
C240 C241 1.377 . S
C240 C242 1.384 . S
C241 C240 1.377 . S
C241 C247 1.390 . S
C242 H233 0.930 . S
C242 C240 1.384 . S
C242 C243 1.372 . S
C243 C242 1.372 . S
C243 C244 1.400 . S
C243 C248 1.490 . S
C244 H234 0.930 . S
C244 C243 1.400 . S
C244 C247 1.386 . S
H245 C261 0.930 . S
H246 C262 0.931 . S
C247 H235 0.929 . S
C247 C241 1.390 . S
C247 C244 1.386 . S
C248 C243 1.490 . S
C248 C250 1.395 . S
C248 C251 1.403 1_545 S
H249 C255 0.930 . S
C250 H236 0.930 . S
C250 C248 1.395 . S
C250 C253 1.403 1_545 S
C251 C248 1.403 1_565 S
C251 C252 1.524 . S
C251 C255 1.400 . S
C252 H237 0.960 . S
C252 H238 0.960 1_565 S
C252 H239 0.960 1_565 S
C252 C251 1.524 . S
C253 C250 1.403 1_565 S
C253 C254 1.392 . S
C253 C257 1.495 1_565 S
C254 C253 1.392 . S
C254 C255 1.385 . S
C254 C256 1.478 . S
C255 H249 0.930 . S
C255 C251 1.400 . S
C255 C254 1.385 . S
C256 C254 1.478 . S
C256 C258 1.381 . S
C256 C262 1.383 . S
C257 C253 1.495 1_545 S
C257 H263 0.968 . S
C257 H264 0.956 1_545 S
C257 H265 0.957 1_545 S
C258 C256 1.381 . S
C258 C259 1.394 . S
C258 H266 0.930 . S
C259 C258 1.394 . S
C259 C260 1.383 . S
C259 H267 0.929 . S
C260 C259 1.383 . S
C260 C261 1.377 . S
C261 H245 0.930 . S
C261 C260 1.377 . S
C261 C262 1.379 . S
C262 H246 0.931 . S
C262 C256 1.383 . S
C262 C261 1.379 . S
H263 C257 0.968 . S
H264 C257 0.956 1_565 S
H265 C257 0.957 1_565 S
H266 C258 0.930 . S
H267 C259 0.929 . S
H268 C276 0.929 . S
H269 C278 0.930 . S
H270 C280 0.930 . S
H271 C283 0.929 . S
H272 C286 0.930 . S
H273 C288 0.960 . S
H274 C288 0.960 . S
H275 C288 0.960 . S
C276 H268 0.929 . S
C276 C277 1.377 . S
C276 C278 1.384 . S
C277 C276 1.377 . S
C277 C283 1.390 . S
C278 H269 0.930 . S
C278 C276 1.384 . S
C278 C279 1.372 . S
C279 C278 1.372 . S
C279 C280 1.400 . S
C279 C284 1.490 . S
C280 H270 0.930 . S
C280 C279 1.400 . S
C280 C283 1.386 . S
H281 C297 0.930 . S
H282 C298 0.931 . S
C283 H271 0.929 . S
C283 C277 1.390 . S
C283 C280 1.386 . S
C284 C279 1.490 . S
C284 C286 1.395 . S
C284 C287 1.403 . S
H285 C291 0.930 . S
C286 H272 0.930 . S
C286 C284 1.395 . S
C286 C289 1.403 . S
C287 C284 1.403 . S
C287 C288 1.524 . S
C287 C291 1.400 . S
C288 H273 0.960 . S
C288 H274 0.960 . S
C288 H275 0.960 . S
C288 C287 1.524 . S
C289 C286 1.403 . S
C289 C290 1.392 . S
C289 C293 1.495 . S
C290 C289 1.392 . S
C290 C291 1.385 . S
C290 C292 1.478 . S
C291 H285 0.930 . S
C291 C287 1.400 . S
C291 C290 1.385 . S
C292 C290 1.478 . S
C292 C294 1.381 . S
C292 C298 1.383 . S
C293 C289 1.495 . S
C293 H299 0.959 . S
C293 H300 0.961 . S
C293 H301 0.960 . S
C294 C292 1.381 . S
C294 C295 1.394 . S
C294 H302 0.930 . S
C295 C294 1.394 . S
C295 C296 1.383 . S
C295 H303 0.929 . S
C296 C295 1.383 . S
C296 C297 1.377 . S
C297 H281 0.930 . S
C297 C296 1.377 . S
C297 C298 1.379 . S
C298 H282 0.931 . S
C298 C292 1.383 . S
C298 C297 1.379 . S
H299 C293 0.959 . S
H300 C293 0.961 . S
H301 C293 0.960 . S
H302 C294 0.930 . S
H303 C295 0.929 . S
H304 C312 0.929 . S
H305 C314 0.930 . S
H306 C316 0.930 . S
H307 C319 0.929 . S
H308 C322 0.930 . S
H309 C324 0.960 . S
H310 C324 0.960 . S
H311 C324 0.960 . S
C312 H304 0.929 . S
C312 C313 1.377 . S
C312 C314 1.384 . S
C313 C312 1.377 . S
C313 C319 1.390 . S
C314 H305 0.930 . S
C314 C312 1.384 . S
C314 C315 1.372 . S
C315 C314 1.372 . S
C315 C316 1.400 . S
C315 C320 1.490 . S
C316 H306 0.930 . S
C316 C315 1.400 . S
C316 C319 1.386 . S
H317 C333 0.930 . S
H318 C334 0.931 . S
C319 H307 0.929 . S
C319 C313 1.390 . S
C319 C316 1.386 . S
C320 C315 1.490 . S
C320 C322 1.395 . S
C320 C323 1.403 . S
H321 C327 0.930 . S
C322 H308 0.930 . S
C322 C320 1.395 . S
C322 C325 1.403 . S
C323 C320 1.403 . S
C323 C324 1.524 . S
C323 C327 1.400 . S
C324 H309 0.960 . S
C324 H310 0.960 . S
C324 H311 0.960 . S
C324 C323 1.524 . S
C325 C322 1.403 . S
C325 C326 1.392 . S
C325 C329 1.495 . S
C326 C325 1.392 . S
C326 C327 1.385 . S
C326 C328 1.478 . S
C327 H321 0.930 . S
C327 C323 1.400 . S
C327 C326 1.385 . S
C328 C326 1.478 . S
C328 C330 1.381 . S
C328 C334 1.383 . S
C329 C325 1.495 . S
C329 H335 0.959 . S
C329 H336 0.961 . S
C329 H337 0.960 . S
C330 C328 1.381 . S
C330 C331 1.394 . S
C330 H338 0.930 . S
C331 C330 1.394 . S
C331 C332 1.383 . S
C331 H339 0.929 . S
C332 C331 1.383 . S
C332 C333 1.377 . S
C333 H317 0.930 . S
C333 C332 1.377 . S
C333 C334 1.379 . S
C334 H318 0.931 . S
C334 C328 1.383 . S
C334 C333 1.379 . S
H335 C329 0.959 . S
H336 C329 0.961 . S
H337 C329 0.960 . S
H338 C330 0.930 . S
H339 C331 0.929 . S
H340 C348 0.929 . S
H341 C350 0.930 1_455 S
H342 C352 0.930 . S
H343 C355 0.929 . S
H344 C358 0.930 . S
H345 C360 0.960 . S
H346 C360 0.960 . S
H347 C360 0.960 . S
C348 H340 0.929 . S
C348 C349 1.377 . S
C348 C350 1.384 . S
C349 C348 1.377 . S
C349 C355 1.390 . S
C350 H341 0.930 1_655 S
C350 C348 1.384 . S
C350 C351 1.372 1_655 S
C351 C350 1.372 1_455 S
C351 C352 1.400 1_455 S
C351 C356 1.490 . S
C352 H342 0.930 . S
C352 C351 1.400 1_655 S
C352 C355 1.386 . S
H353 C369 0.930 . S
H354 C370 0.931 . S
C355 H343 0.929 . S
C355 C349 1.390 . S
C355 C352 1.386 . S
C356 C351 1.490 . S
C356 C358 1.395 . S
C356 C359 1.403 . S
H357 C363 0.930 . S
C358 H344 0.930 . S
C358 C356 1.395 . S
C358 C361 1.403 . S
C359 C356 1.403 . S
C359 C360 1.524 . S
C359 C363 1.400 . S
C360 H345 0.960 . S
C360 H346 0.960 . S
C360 H347 0.960 . S
C360 C359 1.524 . S
C361 C358 1.403 . S
C361 C362 1.392 . S
C361 C365 1.495 . S
C362 C361 1.392 . S
C362 C363 1.385 . S
C362 C364 1.478 . S
C363 H357 0.930 . S
C363 C359 1.400 . S
C363 C362 1.385 . S
C364 C362 1.478 . S
C364 C366 1.381 . S
C364 C370 1.383 . S
C365 C361 1.495 . S
C365 H371 0.959 1_556 S
C365 H372 0.961 . S
C365 H373 0.960 . S
C366 C364 1.381 . S
C366 C367 1.394 . S
C366 H374 0.930 . S
C367 C366 1.394 . S
C367 C368 1.383 . S
C367 H375 0.929 . S
C368 C367 1.383 . S
C368 C369 1.377 . S
C369 H353 0.930 . S
C369 C368 1.377 . S
C369 C370 1.379 . S
C370 H354 0.931 . S
C370 C364 1.383 . S
C370 C369 1.379 . S
H371 C365 0.959 1_554 S
H372 C365 0.961 . S
H373 C365 0.960 . S
H374 C366 0.930 . S
H375 C367 0.929 . S
H376 C384 0.929 . S
H377 C386 0.930 . S
H378 C388 0.930 . S
H379 C391 0.929 . S
H380 C394 0.930 . S
H381 C396 0.960 . S
H382 C396 0.960 . S
H383 C396 0.960 . S
C384 H376 0.929 . S
C384 C385 1.377 . S
C384 C386 1.384 . S
C385 C384 1.377 . S
C385 C391 1.390 . S
C386 H377 0.930 . S
C386 C384 1.384 . S
C386 C387 1.372 . S
C387 C386 1.372 . S
C387 C388 1.400 . S
C387 C392 1.490 . S
C388 H378 0.930 . S
C388 C387 1.400 . S
C388 C391 1.386 . S
H389 C405 0.930 . S
H390 C406 0.931 . S
C391 H379 0.929 . S
C391 C385 1.390 . S
C391 C388 1.386 . S
C392 C387 1.490 . S
C392 C394 1.395 . S
C392 C395 1.403 . S
H393 C399 0.930 . S
C394 H380 0.930 . S
C394 C392 1.395 . S
C394 C397 1.403 . S
C395 C392 1.403 . S
C395 C396 1.524 . S
C395 C399 1.400 . S
C396 H381 0.960 . S
C396 H382 0.960 . S
C396 H383 0.960 . S
C396 C395 1.524 . S
C397 C394 1.403 . S
C397 C398 1.392 . S
C397 C401 1.495 . S
C398 C397 1.392 . S
C398 C399 1.385 . S
C398 C400 1.478 . S
C399 H393 0.930 . S
C399 C395 1.400 . S
C399 C398 1.385 . S
C400 C398 1.478 . S
C400 C402 1.381 . S
C400 C406 1.383 . S
C401 C397 1.495 . S
C401 H407 0.959 . S
C401 H408 0.961 . S
C401 H409 0.960 . S
C402 C400 1.381 . S
C402 C403 1.394 . S
C402 H410 0.930 . S
C403 C402 1.394 . S
C403 C404 1.383 . S
C403 H411 0.929 . S
C404 C403 1.383 . S
C404 C405 1.377 . S
C405 H389 0.930 . S
C405 C404 1.377 . S
C405 C406 1.379 . S
C406 H390 0.931 . S
C406 C400 1.383 . S
C406 C405 1.379 . S
H407 C401 0.959 . S
H408 C401 0.961 . S
H409 C401 0.960 . S
H410 C402 0.930 . S
H411 C403 0.929 . S
H412 C420 0.929 . S
H413 C422 0.930 . S
H414 C424 0.930 . S
H415 C427 0.929 . S
H416 C430 0.930 . S
H417 C432 0.960 . S
H418 C432 0.960 . S
H419 C432 0.960 . S
C420 H412 0.929 . S
C420 C421 1.377 . S
C420 C422 1.384 . S
C421 C420 1.377 . S
C421 C427 1.390 . S
C422 H413 0.930 . S
C422 C420 1.384 . S
C422 C423 1.372 . S
C423 C422 1.372 . S
C423 C424 1.400 . S
C423 C428 1.490 . S
C424 H414 0.930 . S
C424 C423 1.400 . S
C424 C427 1.386 . S
H425 C441 0.930 . S
H426 C442 0.931 . S
C427 H415 0.929 . S
C427 C421 1.390 . S
C427 C424 1.386 . S
C428 C423 1.490 . S
C428 C430 1.395 . S
C428 C431 1.403 . S
H429 C435 0.930 . S
C430 H416 0.930 . S
C430 C428 1.395 . S
C430 C433 1.403 . S
C431 C428 1.403 . S
C431 C432 1.524 . S
C431 C435 1.400 . S
C432 H417 0.960 . S
C432 H418 0.960 . S
C432 H419 0.960 . S
C432 C431 1.524 . S
C433 C430 1.403 . S
C433 C434 1.392 . S
C433 C437 1.495 1_455 S
C434 C433 1.392 . S
C434 C435 1.385 . S
C434 C436 1.478 . S
C435 H429 0.930 . S
C435 C431 1.400 . S
C435 C434 1.385 . S
C436 C434 1.478 . S
C436 C438 1.381 1_455 S
C436 C442 1.383 . S
C437 C433 1.495 1_655 S
C437 H443 0.959 . S
C437 H444 0.961 . S
C437 H445 0.960 . S
C438 C436 1.381 1_655 S
C438 C439 1.394 . S
C438 H446 0.930 . S
C439 C438 1.394 . S
C439 C440 1.383 . S
C439 H447 0.929 . S
C440 C439 1.383 . S
C440 C441 1.377 1_655 S
C441 H425 0.930 . S
C441 C440 1.377 1_455 S
C441 C442 1.379 . S
C442 H426 0.931 . S
C442 C436 1.383 . S
C442 C441 1.379 . S
H443 C437 0.959 . S
H444 C437 0.961 . S
H445 C437 0.960 . S
H446 C438 0.930 . S
H447 C439 0.929 . S
H448 C456 0.929 . S
H449 C458 0.930 . S
H450 C460 0.930 . S
H451 C463 0.929 . S
H452 C466 0.930 . S
H453 C468 0.960 1_565 S
H454 C468 0.960 . S
H455 C468 0.960 . S
C456 H448 0.929 . S
C456 C457 1.377 . S
C456 C458 1.384 . S
C457 C456 1.377 . S
C457 C463 1.390 . S
C458 H449 0.930 . S
C458 C456 1.384 . S
C458 C459 1.372 . S
C459 C458 1.372 . S
C459 C460 1.400 . S
C459 C464 1.490 . S
C460 H450 0.930 . S
C460 C459 1.400 . S
C460 C463 1.386 . S
H461 C477 0.930 . S
H462 C478 0.931 . S
C463 H451 0.929 . S
C463 C457 1.390 . S
C463 C460 1.386 . S
C464 C459 1.490 . S
C464 C466 1.395 . S
C464 C467 1.403 . S
H465 C471 0.930 . S
C466 H452 0.930 . S
C466 C464 1.395 . S
C466 C469 1.403 . S
C467 C464 1.403 . S
C467 C468 1.524 . S
C467 C471 1.400 1_545 S
C468 H453 0.960 1_545 S
C468 H454 0.960 . S
C468 H455 0.960 . S
C468 C467 1.524 . S
C469 C466 1.403 . S
C469 C470 1.382 1_545 S
C469 C473 1.495 . S
C470 C469 1.382 1_565 S
C470 C471 1.387 . S
C470 C472 1.487 . S
C471 H465 0.930 . S
C471 C467 1.400 1_565 S
C471 C470 1.387 . S
C472 C470 1.487 . S
C472 C474 1.381 . S
C472 C478 1.383 . S
C473 C469 1.495 . S
C473 H479 0.959 . S
C473 H480 0.961 . S
C473 H481 0.960 . S
C474 C472 1.381 . S
C474 C475 1.394 . S
C474 H482 0.930 . S
C475 C474 1.394 . S
C475 C476 1.383 . S
C475 H483 0.929 . S
C476 C475 1.383 . S
C476 C477 1.377 . S
C477 H461 0.930 . S
C477 C476 1.377 . S
C477 C478 1.379 . S
C478 H462 0.931 . S
C478 C472 1.383 . S
C478 C477 1.379 . S
H479 C473 0.959 . S
H480 C473 0.961 . S
H481 C473 0.960 . S
H482 C474 0.930 . S
H483 C475 0.929 . S
H484 C492 0.929 . S
H485 C494 0.930 . S
H486 C496 0.930 . S
H487 C499 0.929 . S
H488 C502 0.930 . S
H489 C504 0.960 . S
H490 C504 0.960 . S
H491 C504 0.960 . S
C492 H484 0.929 . S
C492 C493 1.377 . S
C492 C494 1.384 . S
C493 C492 1.377 . S
C493 C499 1.390 . S
C494 H485 0.930 . S
C494 C492 1.384 . S
C494 C495 1.372 . S
C495 C494 1.372 . S
C495 C496 1.400 . S
C495 C500 1.490 . S
C496 H486 0.930 . S
C496 C495 1.400 . S
C496 C499 1.386 . S
H497 C513 0.930 . S
H498 C514 0.931 . S
C499 H487 0.929 . S
C499 C493 1.390 . S
C499 C496 1.386 . S
C500 C495 1.490 . S
C500 C502 1.395 . S
C500 C503 1.403 . S
H501 C507 0.930 . S
C502 H488 0.930 . S
C502 C500 1.395 . S
C502 C505 1.403 . S
C503 C500 1.403 . S
C503 C504 1.524 . S
C503 C507 1.400 . S
C504 H489 0.960 . S
C504 H490 0.960 . S
C504 H491 0.960 . S
C504 C503 1.524 . S
C505 C502 1.403 . S
C505 C506 1.392 . S
C505 C509 1.495 . S
C506 C505 1.392 . S
C506 C507 1.385 . S
C506 C508 1.478 . S
C507 H501 0.930 . S
C507 C503 1.400 . S
C507 C506 1.385 . S
C508 C506 1.478 . S
C508 C510 1.381 . S
C508 C514 1.383 . S
C509 C505 1.495 . S
C509 H515 0.959 . S
C509 H516 0.961 . S
C509 H517 0.960 . S
C510 C508 1.381 . S
C510 C511 1.394 . S
C510 H518 0.930 . S
C511 C510 1.394 . S
C511 C512 1.383 . S
C511 H519 0.929 . S
C512 C511 1.383 . S
C512 C513 1.377 . S
C513 H497 0.930 . S
C513 C512 1.377 . S
C513 C514 1.379 . S
C514 H498 0.931 . S
C514 C508 1.383 . S
C514 C513 1.379 . S
H515 C509 0.959 . S
H516 C509 0.961 . S
H517 C509 0.960 . S
H518 C510 0.930 . S
H519 C511 0.929 . S
H520 C528 0.929 . S
H521 C530 0.930 . S
H522 C532 0.930 . S
H523 C535 0.929 . S
H524 C538 0.930 . S
H525 C540 0.960 1_545 S
H526 C540 0.960 . S
H527 C540 0.960 . S
C528 H520 0.929 . S
C528 C529 1.377 . S
C528 C530 1.384 . S
C529 C528 1.377 . S
C529 C535 1.390 1_554 S
C530 H521 0.930 . S
C530 C528 1.384 . S
C530 C531 1.372 1_554 S
C531 C530 1.372 1_556 S
C531 C532 1.400 . S
C531 C536 1.490 . S
C532 H522 0.930 . S
C532 C531 1.400 . S
C532 C535 1.386 . S
H533 C549 0.930 . S
H534 C550 0.931 . S
C535 H523 0.929 . S
C535 C529 1.390 1_556 S
C535 C532 1.386 . S
C536 C531 1.490 . S
C536 C538 1.395 . S
C536 C539 1.425 . S
H537 C543 0.930 . S
C538 H524 0.930 . S
C538 C536 1.395 . S
C538 C541 1.403 1_565 S
C539 C536 1.425 . S
C539 C540 1.528 . S
C539 C543 1.372 1_565 S
C540 H525 0.960 1_565 S
C540 H526 0.960 . S
C540 H527 0.960 . S
C540 C539 1.528 . S
C541 C538 1.403 1_545 S
C541 C542 1.392 . S
C541 C545 1.495 . S
C542 C541 1.392 . S
C542 C543 1.385 . S
C542 C544 1.478 . S
C543 H537 0.930 . S
C543 C539 1.372 1_545 S
C543 C542 1.385 . S
C544 C542 1.478 . S
C544 C546 1.381 . S
C544 C550 1.383 . S
C545 C541 1.495 . S
C545 H551 0.959 1_545 S
C545 H552 0.961 . S
C545 H553 0.960 . S
C546 C544 1.381 . S
C546 C547 1.394 . S
C546 H554 0.930 . S
C547 C546 1.394 . S
C547 C548 1.383 . S
C547 H555 0.929 . S
C548 C547 1.383 . S
C548 C549 1.377 . S
C549 H533 0.930 . S
C549 C548 1.377 . S
C549 C550 1.379 . S
C550 H534 0.931 . S
C550 C544 1.383 . S
C550 C549 1.379 . S
H551 C545 0.959 1_565 S
H552 C545 0.961 . S
H553 C545 0.960 . S
H554 C546 0.930 . S
H555 C547 0.929 . S
H556 C564 0.929 . S
H557 C566 0.930 . S
H558 C568 0.930 . S
H559 C571 0.929 . S
H560 C574 0.930 . S
H561 C576 0.960 . S
H562 C576 0.960 . S
H563 C576 0.960 . S
C564 H556 0.929 . S
C564 C565 1.377 . S
C564 C566 1.384 . S
C565 C564 1.377 . S
C565 C571 1.390 . S
C566 H557 0.930 . S
C566 C564 1.384 . S
C566 C567 1.372 . S
C567 C566 1.372 . S
C567 C568 1.400 . S
C567 C572 1.490 . S
C568 H558 0.930 . S
C568 C567 1.400 . S
C568 C571 1.386 . S
H569 C585 0.930 . S
H570 C586 0.931 . S
C571 H559 0.929 . S
C571 C565 1.390 . S
C571 C568 1.386 . S
C572 C567 1.490 . S
C572 C574 1.395 . S
C572 C575 1.403 . S
H573 C579 0.930 . S
C574 H560 0.930 . S
C574 C572 1.395 . S
C574 C577 1.403 . S
C575 C572 1.403 . S
C575 C576 1.524 . S
C575 C579 1.400 . S
C576 H561 0.960 . S
C576 H562 0.960 . S
C576 H563 0.960 . S
C576 C575 1.524 . S
C577 C574 1.403 . S
C577 C578 1.392 . S
C577 C581 1.495 . S
C578 C577 1.392 . S
C578 C579 1.385 . S
C578 C580 1.478 . S
C579 H573 0.930 . S
C579 C575 1.400 . S
C579 C578 1.385 . S
C580 C578 1.478 . S
C580 C582 1.381 . S
C580 C586 1.383 . S
C581 C577 1.495 . S
C581 H587 0.959 . S
C581 H588 0.961 . S
C581 H589 0.960 . S
C582 C580 1.381 . S
C582 C583 1.394 . S
C582 H590 0.930 . S
C583 C582 1.394 . S
C583 C584 1.383 . S
C583 H591 0.929 . S
C584 C583 1.383 . S
C584 C585 1.377 . S
C585 H569 0.930 . S
C585 C584 1.377 . S
C585 C586 1.379 . S
C586 H570 0.931 . S
C586 C580 1.383 . S
C586 C585 1.379 . S
H587 C581 0.959 . S
H588 C581 0.961 . S
H589 C581 0.960 . S
H590 C582 0.930 . S
H591 C583 0.929 . S
H592 C600 0.929 . S
H593 C602 0.930 . S
H594 C604 0.930 . S
H595 C607 0.929 . S
H596 C610 0.930 . S
H597 C612 0.960 . S
H598 C612 0.960 . S
H599 C612 0.960 . S
C600 H592 0.929 . S
C600 C601 1.377 . S
C600 C602 1.384 . S
C601 C600 1.377 . S
C601 C607 1.390 . S
C602 H593 0.930 . S
C602 C600 1.384 . S
C602 C603 1.372 . S
C603 C602 1.372 . S
C603 C604 1.400 . S
C603 C608 1.490 . S
C604 H594 0.930 . S
C604 C603 1.400 . S
C604 C607 1.386 . S
H605 C621 0.930 . S
H606 C622 0.931 . S
C607 H595 0.929 . S
C607 C601 1.390 . S
C607 C604 1.386 . S
C608 C603 1.490 . S
C608 C610 1.395 . S
C608 C611 1.403 . S
H609 C615 0.930 . S
C610 H596 0.930 . S
C610 C608 1.395 . S
C610 C613 1.403 . S
C611 C608 1.403 . S
C611 C612 1.524 . S
C611 C615 1.400 . S
C612 H597 0.960 . S
C612 H598 0.960 . S
C612 H599 0.960 . S
C612 C611 1.524 . S
C613 C610 1.403 . S
C613 C614 1.392 . S
C613 C617 1.495 . S
C614 C613 1.392 . S
C614 C615 1.385 . S
C614 C616 1.478 . S
C615 H609 0.930 . S
C615 C611 1.400 . S
C615 C614 1.385 . S
C616 C614 1.478 . S
C616 C618 1.381 . S
C616 C622 1.383 . S
C617 C613 1.495 . S
C617 H623 0.959 . S
C617 H624 0.961 . S
C617 H625 0.960 . S
C618 C616 1.381 . S
C618 C619 1.394 . S
C618 H626 0.930 . S
C619 C618 1.394 . S
C619 C620 1.383 . S
C619 H627 0.929 . S
C620 C619 1.383 . S
C620 C621 1.377 . S
C621 H605 0.930 . S
C621 C620 1.377 . S
C621 C622 1.379 . S
C622 H606 0.931 . S
C622 C616 1.383 . S
C622 C621 1.379 . S
H623 C617 0.959 . S
H624 C617 0.961 . S
H625 C617 0.960 . S
H626 C618 0.930 . S
H627 C619 0.929 . S
H628 C636 0.929 . S
H629 C638 0.930 1_655 S
H630 C640 0.930 . S
H631 C643 0.929 . S
H632 C646 0.930 . S
H633 C648 0.960 . S
H634 C648 0.960 . S
H635 C648 0.960 . S
C636 H628 0.929 . S
C636 C637 1.377 . S
C636 C638 1.384 . S
C637 C636 1.377 . S
C637 C643 1.390 . S
C638 H629 0.930 1_455 S
C638 C636 1.384 . S
C638 C639 1.372 1_455 S
C639 C638 1.372 1_655 S
C639 C640 1.400 1_655 S
C639 C644 1.490 . S
C640 H630 0.930 . S
C640 C639 1.400 1_455 S
C640 C643 1.386 . S
H641 C657 0.930 . S
H642 C658 0.931 . S
C643 H631 0.929 . S
C643 C637 1.390 . S
C643 C640 1.386 . S
C644 C639 1.490 . S
C644 C646 1.395 . S
C644 C647 1.403 . S
H645 C651 0.930 . S
C646 H632 0.930 . S
C646 C644 1.395 . S
C646 C649 1.403 . S
C647 C644 1.403 . S
C647 C648 1.524 . S
C647 C651 1.400 . S
C648 H633 0.960 . S
C648 H634 0.960 . S
C648 H635 0.960 . S
C648 C647 1.524 . S
C649 C646 1.403 . S
C649 C650 1.392 . S
C649 C653 1.495 . S
C650 C649 1.392 . S
C650 C651 1.385 . S
C650 C652 1.478 . S
C651 H645 0.930 . S
C651 C647 1.400 . S
C651 C650 1.385 . S
C652 C650 1.478 . S
C652 C654 1.381 . S
C652 C658 1.383 . S
C653 C649 1.495 . S
C653 H659 0.959 . S
C653 H660 0.961 . S
C653 H661 0.960 . S
C654 C652 1.381 . S
C654 C655 1.394 . S
C654 H662 0.930 . S
C655 C654 1.394 . S
C655 C656 1.383 . S
C655 H663 0.929 . S
C656 C655 1.383 . S
C656 C657 1.377 . S
C657 H641 0.930 . S
C657 C656 1.377 . S
C657 C658 1.379 . S
C658 H642 0.931 . S
C658 C652 1.383 . S
C658 C657 1.379 . S
H659 C653 0.959 . S
H660 C653 0.961 . S
H661 C653 0.960 . S
H662 C654 0.930 . S
H663 C655 0.929 . S
H664 C672 0.929 . S
H665 C674 0.930 . S
H666 C676 0.930 . S
H667 C679 0.929 . S
H668 C682 0.930 . S
H669 C684 0.960 . S
H670 C684 0.960 . S
H671 C684 0.960 . S
C672 H664 0.929 . S
C672 C673 1.377 . S
C672 C674 1.384 . S
C673 C672 1.377 . S
C673 C679 1.390 . S
C674 H665 0.930 . S
C674 C672 1.384 . S
C674 C675 1.372 . S
C675 C674 1.372 . S
C675 C676 1.400 . S
C675 C680 1.490 . S
C676 H666 0.930 . S
C676 C675 1.400 . S
C676 C679 1.386 . S
H677 C693 0.930 . S
H678 C694 0.931 . S
C679 H667 0.929 . S
C679 C673 1.390 . S
C679 C676 1.386 . S
C680 C675 1.490 . S
C680 C682 1.395 . S
C680 C683 1.403 . S
H681 C687 0.930 . S
C682 H668 0.930 . S
C682 C680 1.395 . S
C682 C685 1.403 . S
C683 C680 1.403 . S
C683 C684 1.524 . S
C683 C687 1.400 . S
C684 H669 0.960 . S
C684 H670 0.960 . S
C684 H671 0.960 . S
C684 C683 1.524 . S
C685 C682 1.403 . S
C685 C686 1.392 . S
C685 C689 1.495 . S
C686 C685 1.392 . S
C686 C687 1.385 . S
C686 C688 1.478 . S
C687 H681 0.930 . S
C687 C683 1.400 . S
C687 C686 1.385 . S
C688 C686 1.478 . S
C688 C690 1.381 . S
C688 C694 1.383 . S
C689 C685 1.495 . S
C689 H695 0.959 . S
C689 H696 0.961 . S
C689 H697 0.960 . S
C690 C688 1.381 . S
C690 C691 1.394 . S
C690 H698 0.930 . S
C691 C690 1.394 . S
C691 C692 1.383 . S
C691 H699 0.929 . S
C692 C691 1.383 . S
C692 C693 1.377 . S
C693 H677 0.930 . S
C693 C692 1.377 . S
C693 C694 1.379 . S
C694 H678 0.931 . S
C694 C688 1.383 . S
C694 C693 1.379 . S
H695 C689 0.959 . S
H696 C689 0.961 . S
H697 C689 0.960 . S
H698 C690 0.930 . S
H699 C691 0.929 . S
H700 C708 0.929 . S
H701 C710 0.930 . S
H702 C712 0.930 . S
H703 C715 0.929 . S
H704 C718 0.930 . S
H705 C720 0.960 . S
H706 C720 0.960 . S
H707 C720 0.960 . S
C708 H700 0.929 . S
C708 C709 1.377 . S
C708 C710 1.384 . S
C709 C708 1.377 . S
C709 C715 1.390 . S
C710 H701 0.930 . S
C710 C708 1.384 . S
C710 C711 1.372 . S
C711 C710 1.372 . S
C711 C712 1.400 . S
C711 C716 1.490 . S
C712 H702 0.930 . S
C712 C711 1.400 . S
C712 C715 1.386 . S
H713 C729 0.930 . S
H714 C730 0.931 . S
C715 H703 0.929 . S
C715 C709 1.390 . S
C715 C712 1.386 . S
C716 C711 1.490 . S
C716 C718 1.395 . S
C716 C719 1.403 . S
H717 C723 0.930 . S
C718 H704 0.930 . S
C718 C716 1.395 . S
C718 C721 1.403 . S
C719 C716 1.403 . S
C719 C720 1.524 . S
C719 C723 1.400 . S
C720 H705 0.960 . S
C720 H706 0.960 . S
C720 H707 0.960 . S
C720 C719 1.524 . S
C721 C718 1.403 . S
C721 C722 1.392 . S
C721 C725 1.495 1_655 S
C722 C721 1.392 . S
C722 C723 1.385 . S
C722 C724 1.478 . S
C723 H717 0.930 . S
C723 C719 1.400 . S
C723 C722 1.385 . S
C724 C722 1.478 . S
C724 C726 1.381 1_655 S
C724 C730 1.383 . S
C725 C721 1.495 1_455 S
C725 H731 0.959 . S
C725 H732 0.961 . S
C725 H733 0.960 . S
C726 C724 1.381 1_455 S
C726 C727 1.394 . S
C726 H734 0.927 1_455 S
C727 C726 1.394 . S
C727 C728 1.383 . S
C727 H735 0.929 . S
C728 C727 1.383 . S
C728 C729 1.377 . S
C729 H713 0.930 . S
C729 C728 1.377 . S
C729 C730 1.379 1_455 S
C730 H714 0.931 . S
C730 C724 1.383 . S
C730 C729 1.379 1_655 S
H731 C725 0.959 . S
H732 C725 0.961 . S
H733 C725 0.960 . S
H734 C726 0.927 1_655 S
H735 C727 0.929 . S
H736 C744 0.929 . S
H737 C746 0.930 . S
H738 C748 0.930 . S
H739 C751 0.929 . S
H740 C754 0.930 . S
H741 C756 0.960 . S
H742 C756 0.960 . S
H743 C756 0.960 . S
C744 H736 0.929 . S
C744 C745 1.377 . S
C744 C746 1.384 . S
C745 C744 1.377 . S
C745 C751 1.390 . S
C746 H737 0.930 . S
C746 C744 1.384 . S
C746 C747 1.372 . S
C747 C746 1.372 . S
C747 C748 1.400 . S
C747 C752 1.490 . S
C748 H738 0.930 . S
C748 C747 1.400 . S
C748 C751 1.386 . S
H749 C765 0.930 . S
H750 C766 0.931 . S
C751 H739 0.929 . S
C751 C745 1.390 . S
C751 C748 1.386 . S
C752 C747 1.490 . S
C752 C754 1.395 . S
C752 C755 1.403 . S
H753 C759 0.930 . S
C754 H740 0.930 . S
C754 C752 1.395 . S
C754 C757 1.403 . S
C755 C752 1.403 . S
C755 C756 1.524 . S
C755 C759 1.400 . S
C756 H741 0.960 . S
C756 H742 0.960 . S
C756 H743 0.960 . S
C756 C755 1.524 . S
C757 C754 1.403 . S
C757 C758 1.392 . S
C757 C761 1.495 . S
C758 C757 1.392 . S
C758 C759 1.385 . S
C758 C760 1.478 . S
C759 H753 0.930 . S
C759 C755 1.400 . S
C759 C758 1.385 . S
C760 C758 1.478 . S
C760 C762 1.381 . S
C760 C766 1.383 . S
C761 C757 1.495 . S
C761 H767 0.959 . S
C761 H768 0.961 . S
C761 H769 0.960 . S
C762 C760 1.381 . S
C762 C763 1.394 . S
C762 H770 0.930 . S
C763 C762 1.394 . S
C763 C764 1.383 . S
C763 H771 0.929 . S
C764 C763 1.383 . S
C764 C765 1.377 . S
C765 H749 0.930 . S
C765 C764 1.377 . S
C765 C766 1.379 . S
C766 H750 0.931 . S
C766 C760 1.383 . S
C766 C765 1.379 . S
H767 C761 0.959 . S
H768 C761 0.961 . S
H769 C761 0.960 . S
H770 C762 0.930 . S
H771 C763 0.929 . S
H772 C780 0.929 . S
H773 C782 0.930 . S
H774 C784 0.930 . S
H775 C787 0.929 . S
H776 C790 0.930 . S
H777 C792 0.960 . S
H778 C792 0.960 . S
H779 C792 0.960 . S
C780 H772 0.929 . S
C780 C781 1.377 . S
C780 C782 1.384 . S
C781 C780 1.377 . S
C781 C787 1.390 . S
C782 H773 0.930 . S
C782 C780 1.384 . S
C782 C783 1.372 . S
C783 C782 1.372 . S
C783 C784 1.400 . S
C783 C788 1.490 . S
C784 H774 0.930 . S
C784 C783 1.400 . S
C784 C787 1.386 . S
H785 C801 0.930 . S
H786 C802 0.931 . S
C787 H775 0.929 . S
C787 C781 1.390 . S
C787 C784 1.386 . S
C788 C783 1.490 . S
C788 C790 1.395 . S
C788 C791 1.403 . S
H789 C795 0.930 . S
C790 H776 0.930 . S
C790 C788 1.395 . S
C790 C793 1.403 . S
C791 C788 1.403 . S
C791 C792 1.524 . S
C791 C795 1.400 . S
C792 H777 0.960 . S
C792 H778 0.960 . S
C792 H779 0.960 . S
C792 C791 1.524 . S
C793 C790 1.403 . S
C793 C794 1.392 . S
C793 C797 1.495 . S
C794 C793 1.392 . S
C794 C795 1.385 . S
C794 C796 1.478 . S
C795 H789 0.930 . S
C795 C791 1.400 . S
C795 C794 1.385 . S
C796 C794 1.478 . S
C796 C798 1.381 . S
C796 C802 1.383 . S
C797 C793 1.495 . S
C797 H803 0.959 . S
C797 H804 0.961 . S
C797 H805 0.960 . S
C798 C796 1.381 . S
C798 C799 1.394 . S
C798 H806 0.930 . S
C799 C798 1.394 . S
C799 C800 1.383 . S
C799 H807 0.929 . S
C800 C799 1.383 . S
C800 C801 1.377 . S
C801 H785 0.930 . S
C801 C800 1.377 . S
C801 C802 1.379 . S
C802 H786 0.931 . S
C802 C796 1.383 . S
C802 C801 1.379 . S
H803 C797 0.959 . S
H804 C797 0.961 . S
H805 C797 0.960 . S
H806 C798 0.930 . S
H807 C799 0.929 . S
H808 C816 0.929 . S
H809 C818 0.930 . S
H810 C820 0.930 . S
H811 C823 0.929 . S
H812 C826 0.930 . S
H813 C828 0.960 . S
H814 C828 0.960 . S
H815 C828 0.960 . S
C816 H808 0.929 . S
C816 C817 1.377 . S
C816 C818 1.384 . S
C817 C816 1.377 . S
C817 C823 1.390 . S
C818 H809 0.930 . S
C818 C816 1.384 . S
C818 C819 1.372 . S
C819 C818 1.372 . S
C819 C820 1.400 . S
C819 C824 1.490 . S
C820 H810 0.930 . S
C820 C819 1.400 . S
C820 C823 1.386 . S
H821 C837 0.930 . S
H822 C838 0.931 . S
C823 H811 0.929 . S
C823 C817 1.390 . S
C823 C820 1.386 . S
C824 C819 1.490 . S
C824 C826 1.395 . S
C824 C827 1.403 . S
H825 C831 0.930 . S
C826 H812 0.930 . S
C826 C824 1.395 . S
C826 C829 1.403 . S
C827 C824 1.403 . S
C827 C828 1.524 . S
C827 C831 1.400 . S
C828 H813 0.960 . S
C828 H814 0.960 . S
C828 H815 0.960 . S
C828 C827 1.524 . S
C829 C826 1.403 . S
C829 C830 1.392 . S
C829 C833 1.495 . S
C830 C829 1.392 . S
C830 C831 1.385 . S
C830 C832 1.478 . S
C831 H825 0.930 . S
C831 C827 1.400 . S
C831 C830 1.385 . S
C832 C830 1.478 . S
C832 C834 1.381 . S
C832 C838 1.383 . S
C833 C829 1.495 . S
C833 H839 0.959 . S
C833 H840 0.961 . S
C833 H841 0.960 . S
C834 C832 1.381 . S
C834 C835 1.394 . S
C834 H842 0.930 . S
C835 C834 1.394 . S
C835 C836 1.383 . S
C835 H843 0.929 . S
C836 C835 1.383 . S
C836 C837 1.377 . S
C837 H821 0.930 . S
C837 C836 1.377 . S
C837 C838 1.379 . S
C838 H822 0.931 . S
C838 C832 1.383 . S
C838 C837 1.379 . S
H839 C833 0.959 . S
H840 C833 0.961 . S
H841 C833 0.960 . S
H842 C834 0.930 . S
H843 C835 0.929 . S
H844 C852 0.929 . S
H845 C854 0.930 . S
H846 C856 0.930 . S
H847 C859 0.929 . S
H848 C862 0.930 . S
H849 C864 0.960 . S
H850 C864 0.960 . S
H851 C864 0.960 . S
C852 H844 0.929 . S
C852 C853 1.377 . S
C852 C854 1.384 . S
C853 C852 1.377 . S
C853 C859 1.390 . S
C854 H845 0.930 . S
C854 C852 1.384 . S
C854 C855 1.372 . S
C855 C854 1.372 . S
C855 C856 1.400 . S
C855 C860 1.490 . S
C856 H846 0.930 . S
C856 C855 1.400 . S
C856 C859 1.386 . S
H857 C873 0.930 . S
H858 C874 0.931 . S
C859 H847 0.929 . S
C859 C853 1.390 . S
C859 C856 1.386 . S
C860 C855 1.490 . S
C860 C862 1.395 . S
C860 C863 1.403 . S
H861 C867 0.930 . S
C862 H848 0.930 . S
C862 C860 1.395 . S
C862 C865 1.403 . S
C863 C860 1.403 . S
C863 C864 1.524 . S
C863 C867 1.400 . S
C864 H849 0.960 . S
C864 H850 0.960 . S
C864 H851 0.960 . S
C864 C863 1.524 . S
C865 C862 1.403 . S
C865 C866 1.392 . S
C865 C869 1.495 . S
C866 C865 1.392 . S
C866 C867 1.385 . S
C866 C868 1.478 . S
C867 H861 0.930 . S
C867 C863 1.400 . S
C867 C866 1.385 . S
C868 C866 1.478 . S
C868 C870 1.381 . S
C868 C874 1.383 . S
C869 C865 1.495 . S
C869 H875 0.959 . S
C869 H876 0.961 . S
C869 H877 0.960 . S
C870 C868 1.381 . S
C870 C871 1.394 . S
C870 H878 0.930 . S
C871 C870 1.394 . S
C871 C872 1.383 . S
C871 H879 0.929 . S
C872 C871 1.383 . S
C872 C873 1.377 . S
C873 H857 0.930 . S
C873 C872 1.377 . S
C873 C874 1.379 . S
C874 H858 0.931 . S
C874 C868 1.383 . S
C874 C873 1.379 . S
H875 C869 0.959 . S
H876 C869 0.961 . S
H877 C869 0.960 . S
H878 C870 0.930 . S
H879 C871 0.929 . S
H880 C888 0.929 . S
H881 C890 0.930 . S
H882 C892 0.930 . S
H883 C895 0.929 . S
H884 C898 0.930 . S
H885 C900 0.960 . S
H886 C900 0.960 . S
H887 C900 0.960 . S
C888 H880 0.929 . S
C888 C889 1.377 . S
C888 C890 1.384 . S
C889 C888 1.377 . S
C889 C895 1.390 . S
C890 H881 0.930 . S
C890 C888 1.384 . S
C890 C891 1.372 . S
C891 C890 1.372 . S
C891 C892 1.400 . S
C891 C896 1.490 . S
C892 H882 0.930 . S
C892 C891 1.400 . S
C892 C895 1.386 . S
H893 C909 0.930 . S
H894 C910 0.931 . S
C895 H883 0.929 . S
C895 C889 1.390 . S
C895 C892 1.386 . S
C896 C891 1.490 . S
C896 C898 1.395 . S
C896 C899 1.403 . S
H897 C903 0.930 . S
C898 H884 0.930 . S
C898 C896 1.395 . S
C898 C901 1.403 . S
C899 C896 1.403 . S
C899 C900 1.524 . S
C899 C903 1.400 . S
C900 H885 0.960 . S
C900 H886 0.960 . S
C900 H887 0.960 . S
C900 C899 1.524 . S
C901 C898 1.403 . S
C901 C902 1.392 . S
C901 C905 1.495 . S
C902 C901 1.392 . S
C902 C903 1.385 . S
C902 C904 1.478 . S
C903 H897 0.930 . S
C903 C899 1.400 . S
C903 C902 1.385 . S
C904 C902 1.478 . S
C904 C906 1.381 . S
C904 C910 1.383 . S
C905 C901 1.495 . S
C905 H911 0.959 . S
C905 H912 0.961 . S
C905 H913 0.960 . S
C906 C904 1.381 . S
C906 C907 1.394 . S
C906 H914 0.930 . S
C907 C906 1.394 . S
C907 C908 1.383 . S
C907 H915 0.929 . S
C908 C907 1.383 . S
C908 C909 1.377 . S
C909 H893 0.930 . S
C909 C908 1.377 . S
C909 C910 1.379 . S
C910 H894 0.931 . S
C910 C904 1.383 . S
C910 C909 1.379 . S
H911 C905 0.959 . S
H912 C905 0.961 . S
H913 C905 0.960 . S
H914 C906 0.930 . S
H915 C907 0.929 . S
H916 C924 0.929 . S
H917 C926 0.930 . S
H918 C928 0.930 . S
H919 C931 0.929 . S
H920 C934 0.930 . S
H921 C936 0.960 . S
H922 C936 0.960 . S
H923 C936 0.960 . S
C924 H916 0.929 . S
C924 C925 1.377 . S
C924 C926 1.384 . S
C925 C924 1.377 . S
C925 C931 1.390 . S
C926 H917 0.930 . S
C926 C924 1.384 . S
C926 C927 1.372 . S
C927 C926 1.372 . S
C927 C928 1.400 . S
C927 C932 1.490 . S
C928 H918 0.930 . S
C928 C927 1.400 . S
C928 C931 1.386 . S
H929 C945 0.930 . S
H930 C946 0.931 . S
C931 H919 0.929 . S
C931 C925 1.390 . S
C931 C928 1.386 . S
C932 C927 1.490 . S
C932 C934 1.395 . S
C932 C935 1.403 . S
H933 C939 0.930 . S
C934 H920 0.930 . S
C934 C932 1.395 . S
C934 C937 1.403 . S
C935 C932 1.403 . S
C935 C936 1.524 . S
C935 C939 1.400 . S
C936 H921 0.960 . S
C936 H922 0.960 . S
C936 H923 0.960 . S
C936 C935 1.524 . S
C937 C934 1.403 . S
C937 C938 1.392 . S
C937 C941 1.495 . S
C938 C937 1.392 . S
C938 C939 1.385 . S
C938 C940 1.478 . S
C939 H933 0.930 . S
C939 C935 1.400 . S
C939 C938 1.385 . S
C940 C938 1.478 . S
C940 C942 1.381 . S
C940 C946 1.383 . S
C941 C937 1.495 . S
C941 H947 0.959 . S
C941 H948 0.961 . S
C941 H949 0.960 . S
C942 C940 1.381 . S
C942 C943 1.394 . S
C942 H950 0.930 . S
C943 C942 1.394 . S
C943 C944 1.383 . S
C943 H951 0.929 . S
C944 C943 1.383 . S
C944 C945 1.377 . S
C945 H929 0.930 . S
C945 C944 1.377 . S
C945 C946 1.379 . S
C946 H930 0.931 . S
C946 C940 1.383 . S
C946 C945 1.379 . S
H947 C941 0.959 . S
H948 C941 0.961 . S
H949 C941 0.960 . S
H950 C942 0.930 . S
H951 C943 0.929 . S
H952 C960 0.929 . S
H953 C962 0.930 . S
H954 C964 0.930 . S
H955 C967 0.929 . S
H956 C970 0.930 . S
H957 C972 0.960 . S
H958 C972 0.960 . S
H959 C972 0.960 . S
C960 H952 0.929 . S
C960 C961 1.377 . S
C960 C962 1.384 . S
C961 C960 1.377 . S
C961 C967 1.390 . S
C962 H953 0.930 . S
C962 C960 1.384 . S
C962 C963 1.372 . S
C963 C962 1.372 . S
C963 C964 1.400 . S
C963 C968 1.490 . S
C964 H954 0.930 . S
C964 C963 1.400 . S
C964 C967 1.386 . S
H965 C981 0.930 . S
H966 C982 0.931 . S
C967 H955 0.929 . S
C967 C961 1.390 . S
C967 C964 1.386 . S
C968 C963 1.490 . S
C968 C970 1.395 . S
C968 C971 1.403 . S
H969 C975 0.930 . S
C970 H956 0.930 . S
C970 C968 1.395 . S
C970 C973 1.403 . S
C971 C968 1.403 . S
C971 C972 1.524 . S
C971 C975 1.400 . S
C972 H957 0.960 . S
C972 H958 0.960 . S
C972 H959 0.960 . S
C972 C971 1.524 . S
C973 C970 1.403 . S
C973 C974 1.392 . S
C973 C977 1.495 . S
C974 C973 1.392 . S
C974 C975 1.385 . S
C974 C976 1.478 . S
C975 H969 0.930 . S
C975 C971 1.400 . S
C975 C974 1.385 . S
C976 C974 1.478 . S
C976 C978 1.381 . S
C976 C982 1.383 . S
C977 C973 1.495 . S
C977 H983 0.959 . S
C977 H984 0.961 . S
C977 H985 0.960 . S
C978 C976 1.381 . S
C978 C979 1.394 . S
C978 H986 0.930 . S
C979 C978 1.394 . S
C979 C980 1.383 . S
C979 H987 0.929 . S
C980 C979 1.383 . S
C980 C981 1.377 . S
C981 H965 0.930 . S
C981 C980 1.377 . S
C981 C982 1.379 . S
C982 H966 0.931 . S
C982 C976 1.383 . S
C982 C981 1.379 . S
H983 C977 0.959 . S
H984 C977 0.961 . S
H985 C977 0.960 . S
H986 C978 0.930 . S
H987 C979 0.929 . S
H988 C996 0.929 . S
H989 C998 0.930 . S
H990 C1000 0.930 . S
H991 C1003 0.929 . S
H992 C1006 0.930 . S
H993 C1008 0.960 . S
H994 C1008 0.960 . S
H995 C1008 0.960 . S
C996 H988 0.929 . S
C996 C997 1.377 . S
C996 C998 1.384 . S
C997 C996 1.377 . S
C997 C1003 1.390 1_556 S
C998 H989 0.930 . S
C998 C996 1.384 . S
C998 C999 1.372 . S
C999 C998 1.372 . S
C999 C1000 1.400 . S
C999 C1004 1.490 . S
C1000 H990 0.930 . S
C1000 C999 1.400 . S
C1000 C1003 1.386 1_556 S
H1001 C1017 0.930 . S
H1002 C1018 0.931 . S
C1003 H991 0.929 . S
C1003 C997 1.390 1_554 S
C1003 C1000 1.386 1_554 S
C1004 C999 1.490 . S
C1004 C1006 1.395 . S
C1004 C1007 1.403 . S
H1005 C1011 0.930 . S
C1006 H992 0.930 . S
C1006 C1004 1.395 . S
C1006 C1009 1.403 . S
C1007 C1004 1.403 . S
C1007 C1008 1.524 . S
C1007 C1011 1.400 . S
C1008 H993 0.960 . S
C1008 H994 0.960 . S
C1008 H995 0.960 . S
C1008 C1007 1.524 . S
C1009 C1006 1.403 . S
C1009 C1010 1.392 . S
C1009 C1013 1.495 . S
C1010 C1009 1.392 . S
C1010 C1011 1.385 . S
C1010 C1012 1.478 . S
C1011 H1005 0.930 . S
C1011 C1007 1.400 . S
C1011 C1010 1.385 . S
C1012 C1010 1.478 . S
C1012 C1014 1.381 . S
C1012 C1018 1.383 . S
C1013 C1009 1.495 . S
C1013 H1019 0.959 . S
C1013 H1020 0.961 . S
C1013 H1021 0.960 . S
C1014 C1012 1.381 . S
C1014 C1015 1.394 . S
C1014 H1022 0.930 . S
C1015 C1014 1.394 . S
C1015 C1016 1.383 . S
C1015 H1023 0.929 . S
C1016 C1015 1.383 . S
C1016 C1017 1.377 . S
C1017 H1001 0.930 . S
C1017 C1016 1.377 . S
C1017 C1018 1.379 . S
C1018 H1002 0.931 . S
C1018 C1012 1.383 . S
C1018 C1017 1.379 . S
H1019 C1013 0.959 . S
H1020 C1013 0.961 . S
H1021 C1013 0.960 . S
H1022 C1014 0.930 . S
H1023 C1015 0.929 . S
C169 C8 1.306 . S
C188 C93 1.324 . S
C205 C31 1.090 . S
C224 C101 1.052 . S
C241 C53 1.306 . S
C260 C110 1.321 . S
C296 C120 1.290 . S
C277 C74 1.263 . S
C332 C129 1.280 . S
C313 C26 1.304 . S
C349 C48 1.262 . S
C368 C138 1.280 . S
C385 C71 1.303 . S
C404 C146 1.265 . S
C421 C5 1.095 . S
C440 C156 1.055 . S
C457 C50 1.306 . S
C476 C155 1.306 . S
C512 C128 1.069 . S
C493 C70 1.086 . S
C548 C137 1.322 . S
C529 C4 1.300 . S
C565 C28 1.258 . S
C584 C147 1.279 . S
C620 C102 1.299 . S
C601 C73 1.299 . S
C637 C7 1.251 . S
C656 C111 1.291 . S
C692 C119 1.316 . S
C673 C30 1.296 . S
C728 C92 1.053 . S
C709 C52 1.090 . S
C764 C149 1.309 . S
C745 C9 1.308 . S
C800 C158 1.234 . S
C781 C29 1.231 . S
C817 C51 1.227 . S
C836 C131 1.201 . S
C872 C140 1.263 . S
C853 C75 1.311 . S
C908 C113 1.278 . S
C889 C27 1.314 . S
C925 C49 1.307 . S
C944 C122 1.263 . S
C980 C95 1.215 . S
C961 C72 1.225 . S
C1016 C104 1.236 . S
C997 C6 1.230 1_556 S
