# Generated by pormake.
# Topology tsx, (6,3)-cn, num edge types: 1
# Building blocks:
#     Node 0, Type 0, BuildingBlock: JUFBIX_clean_sbu_0, # of connection points: 6
#     Node 1, Type 0, BuildingBlock: JUFBIX_clean_sbu_0, # of connection points: 6
#     Node 2, Type 1, BuildingBlock: BETDAH_clean_linker_0, # of connection points: 3
#     Node 3, Type 1, BuildingBlock: BETDAH_clean_linker_0, # of connection points: 3
#     Node 4, Type 1, BuildingBlock: BETDAH_clean_linker_0, # of connection points: 3
#     Node 5, Type 1, BuildingBlock: BETDAH_clean_linker_0, # of connection points: 3
#     Edge 6, Type (0, 1), BuildingBlock: XUDNAN_clean_linker_2, # of connection points: 2
#     Edge 7, Type (0, 1), BuildingBlock: XUDNAN_clean_linker_2, # of connection points: 2
#     Edge 8, Type (0, 1), BuildingBlock: XUDNAN_clean_linker_2, # of connection points: 2
#     Edge 9, Type (0, 1), BuildingBlock: XUDNAN_clean_linker_2, # of connection points: 2
#     Edge 10, Type (0, 1), BuildingBlock: XUDNAN_clean_linker_2, # of connection points: 2
#     Edge 11, Type (0, 1), BuildingBlock: XUDNAN_clean_linker_2, # of connection points: 2
#     Edge 12, Type (0, 1), BuildingBlock: XUDNAN_clean_linker_2, # of connection points: 2
#     Edge 13, Type (0, 1), BuildingBlock: XUDNAN_clean_linker_2, # of connection points: 2
#     Edge 14, Type (0, 1), BuildingBlock: XUDNAN_clean_linker_2, # of connection points: 2
#     Edge 15, Type (0, 1), BuildingBlock: XUDNAN_clean_linker_2, # of connection points: 2
#     Edge 16, Type (0, 1), BuildingBlock: XUDNAN_clean_linker_2, # of connection points: 2
#     Edge 17, Type (0, 1), BuildingBlock: XUDNAN_clean_linker_2, # of connection points: 2
# Relax obj value: 0.101
# Max RMSD: 0.126
# Mean RMSD: 0.114
data_MOF--net-tsx--node1-JUFBIX_clean_sbu_0--node2-BETDAH_clean_linker_0--edge1-XUDNAN_clean_linker_2
_symmetry_space_group_name_H-M    P1
_symmetry_Int_Tables_number       1
_symmetry_cell_setting            triclinic
loop_
_symmetry_equiv_pos_as_xyz
'x, y, z'
_cell_length_a     20.365556
_cell_length_b     24.011363
_cell_length_c     32.48948
_cell_angle_alpha  91.663481
_cell_angle_beta   98.494205
_cell_angle_gamma 99.519966
loop_
_atom_site_label
_atom_site_type_symbol
_atom_site_fract_x
_atom_site_fract_y
_atom_site_fract_z
_atom_type_partial_charge
Co0 Co 0.08696 0.03093 0.00399 0.0
C1 C 0.01316 0.0588 0.92892 0.0
Co2 Co 0.01559 0.0898 0.01006 0.0
C3 C 0.16412 0.93641 0.00531 0.0
C4 C 0.19036 1.00094 0.96364 0.0
N5 N 0.14998 0.98689 0.99247 0.0
N6 N 0.21137 0.91874 0.98517 0.0
C7 C 0.22802 0.9597 0.95927 0.0
H8 H 0.13897 0.91247 0.02794 0.0
H9 H 0.19145 0.03854 0.94603 0.0
C10 C 0.08926 0.06394 0.08498 0.0
N11 N 0.9534 0.13452 0.02031 0.0
C12 C 0.94412 0.18486 0.00513 0.0
C13 C 0.9072 0.12293 0.04606 0.0
N14 N 0.89361 0.2047 0.02019 0.0
C15 C 0.8701 0.16578 0.04582 0.0
C16 C 0.96346 0.97318 0.01317 0.0
O17 O 0.11563 0.03162 0.06288 0.0
O18 O 0.04602 0.09171 0.06756 0.0
O19 O 0.95084 0.02332 0.01443 0.0
O20 O 0.02189 0.96555 0.00757 0.0
O21 O 0.98539 0.08824 0.95204 0.0
H22 H 0.90115 0.08581 0.06414 0.0
H23 H 0.97323 0.2062 0.98311 0.0
O24 O 0.0572 0.0311 0.94558 0.0
O25 O 0.15175 0.09676 0.00099 0.0
O26 O 0.08129 0.15539 0.00606 0.0
C27 C 0.14007 0.14701 0.00209 0.0
H28 H 0.26517 0.9601 0.9386 0.0
H29 H 0.82969 0.1686 0.06359 0.0
Co30 Co 0.51622 0.44449 0.51415 0.0
C31 C 0.4774 0.48078 0.4354 0.0
Co32 Co 0.4369 0.49836 0.5118 0.0
C33 C 0.59746 0.3593 0.49386 0.0
C34 C 0.64072 0.41257 0.54831 0.0
N35 N 0.5867 0.4029 0.51799 0.0
N36 N 0.65604 0.34137 0.50824 0.0
C37 C 0.68311 0.37519 0.54245 0.0
H38 H 0.56268 0.34082 0.4666 0.0
H39 H 0.64902 0.44515 0.57313 0.0
C40 C 0.47627 0.46504 0.59077 0.0
N41 N 0.36735 0.54016 0.50964 0.0
C42 C 0.36439 0.59217 0.49541 0.0
C43 C 0.30971 0.52556 0.52546 0.0
N44 N 0.30731 0.61072 0.50195 0.0
C45 C 0.27278 0.56861 0.52074 0.0
C46 C 0.38917 0.38115 0.50082 0.0
O47 O 0.51463 0.43908 0.57274 0.0
O48 O 0.43842 0.49432 0.56978 0.0
O49 O 0.37273 0.42996 0.50245 0.0
O50 O 0.45123 0.37704 0.5043 0.0
O51 O 0.43682 0.50326 0.45404 0.0
H52 H 0.29625 0.48673 0.54065 0.0
H53 H 0.40385 0.61611 0.48096 0.0
O54 O 0.51622 0.45095 0.45551 0.0
O55 O 0.58077 0.51302 0.52407 0.0
O56 O 0.50154 0.56542 0.52093 0.0
C57 C 0.56348 0.56144 0.52542 0.0
H58 H 0.73095 0.37388 0.56165 0.0
H59 H 0.22537 0.56953 0.53179 0.0
H60 H 0.14505 0.95611 0.37862 0.0
H61 H 0.98034 0.04576 0.38574 0.0
H62 H 0.02756 0.92693 0.47738 0.0
C63 C 0.10442 0.96542 0.39437 0.0
C64 C 0.09272 0.9384 0.4308 0.0
C65 C 0.06316 1.00291 0.37725 0.0
C66 C 0.01195 0.01639 0.39857 0.0
C67 C 0.9996 0.98948 0.43531 0.0
C68 C 0.03861 0.94914 0.45017 0.0
N69 N 0.94784 1.00072 0.45773 0.0
C70 C 0.91202 0.0452 0.45128 0.0
H71 H 0.87104 0.91999 0.63014 0.0
H72 H 0.06207 0.02257 0.62087 0.0
H73 H 0.98127 0.88303 0.53236 0.0
C74 C 0.91413 0.92997 0.61403 0.0
C75 C 0.9186 0.89682 0.57853 0.0
C76 C 0.96617 0.97469 0.62987 0.0
C77 C 0.02166 0.98818 0.60875 0.0
C78 C 0.02642 0.95565 0.57305 0.0
C79 C 0.97585 0.90937 0.55885 0.0
N80 N 0.08288 0.96712 0.55193 0.0
C81 C 0.1126 0.02169 0.54498 0.0
H82 H 0.5965 0.44421 0.8917 0.0
H83 H 0.49596 0.58789 0.90008 0.0
H84 H 0.66856 0.57181 0.98969 0.0
C85 C 0.59028 0.48274 0.90781 0.0
C86 C 0.63551 0.50294 0.94378 0.0
C87 C 0.54099 0.51377 0.89086 0.0
C88 C 0.53434 0.56388 0.9124 0.0
C89 C 0.57951 0.584 0.94899 0.0
C90 C 0.63178 0.5548 0.96304 0.0
N91 N 0.57535 0.63411 0.97189 0.0
C92 C 0.51573 0.6542 0.97396 0.0
H93 H 0.46485 0.45159 0.1369 0.0
H94 H 0.64086 0.58027 0.14565 0.0
H95 H 0.56781 0.48088 0.03084 0.0
C96 C 0.50432 0.47521 0.12215 0.0
C97 C 0.50852 0.46216 0.08034 0.0
C98 C 0.55168 0.51752 0.14574 0.0
C99 C 0.6036 0.54807 0.12731 0.0
C100 C 0.60974 0.53409 0.0859 0.0
C101 C 0.56256 0.49108 0.06277 0.0
N102 N 0.66568 0.55916 0.06769 0.0
C103 C 0.69252 0.6165 0.07166 0.0
H104 H 0.15473 0.25598 0.03482 0.0
H105 H 0.25317 0.14354 0.96762 0.0
H106 H 0.35392 0.21757 0.97259 0.0
H107 H 0.23288 0.3913 0.99328 0.0
H108 H 0.24133 0.42932 0.04296 0.0
H109 H 0.1727 0.37122 0.02798 0.0
H110 H 0.20921 0.32281 0.09584 0.0
H111 H 0.27804 0.3804 0.11086 0.0
H112 H 0.29422 0.30899 0.1072 0.0
H113 H 0.44856 0.29867 0.99193 0.0
H114 H 0.53071 0.38014 0.02588 0.0
H115 H 0.37196 0.44037 0.08089 0.0
C116 C 0.19673 0.24772 0.02005 0.0
C117 C 0.19601 0.19429 0.00053 0.0
C118 C 0.25264 0.18431 0.98262 0.0
C119 C 0.31001 0.22618 0.98511 0.0
C120 C 0.31008 0.27788 0.00563 0.0
C121 C 0.25488 0.28896 0.02269 0.0
C122 C 0.27065 0.34573 0.04683 0.0
C123 C 0.22678 0.38683 0.02654 0.0
C124 C 0.26257 0.33904 0.0929 0.0
C125 C 0.34388 0.36372 0.04193 0.0
C126 C 0.36533 0.3245 0.01743 0.0
C127 C 0.43209 0.33019 0.01061 0.0
C128 C 0.47842 0.37672 0.02994 0.0
C129 C 0.45794 0.41664 0.05612 0.0
C130 C 0.38936 0.41042 0.0613 0.0
H131 H 0.25993 0.8641 0.92537 0.0
H132 H 0.229 0.85827 0.05446 0.0
H133 H 0.29311 0.77904 0.06338 0.0
H134 H 0.2571 0.71101 0.90493 0.0
H135 H 0.32271 0.7246 0.87304 0.0
H136 H 0.2649 0.77351 0.87536 0.0
H137 H 0.36557 0.85511 0.89769 0.0
H138 H 0.42355 0.8066 0.89563 0.0
H139 H 0.42624 0.84864 0.94292 0.0
H140 H 0.37418 0.70966 0.06023 0.0
H141 H 0.46321 0.65631 0.04522 0.0
H142 H 0.44259 0.71059 0.91879 0.0
C143 C 0.26578 0.8458 0.95544 0.0
C144 C 0.2398 0.86764 0.98934 0.0
C145 C 0.24791 0.84189 0.02799 0.0
C146 C 0.28441 0.797 0.0333 0.0
C147 C 0.31169 0.77812 -0.00048 0.0
C148 C 0.30215 0.80153 0.96122 0.0
C149 C 0.34143 0.77778 0.93084 0.0
C150 C 0.29367 0.74475 0.89386 0.0
C151 C 0.3922 0.82483 0.91593 0.0
C152 C 0.37674 0.73865 0.95836 0.0
C153 C 0.35823 0.73865 -0.00228 0.0
C154 C 0.38796 0.70859 0.02934 0.0
C155 C 0.43833 0.6785 0.02061 0.0
C156 C 0.45836 0.67914 0.98079 0.0
C157 C 0.42677 0.70882 0.9492 0.0
H158 H 0.97774 0.86201 0.02259 0.0
H159 H 0.83236 0.97552 0.02219 0.0
H160 H 0.74796 0.89703 0.03937 0.0
H161 H 0.85985 0.73877 0.97675 0.0
H162 H 0.90078 0.69027 0.00844 0.0
H163 H 0.94911 0.75533 0.99538 0.0
H164 H 0.99091 0.78158 0.07388 0.0
H165 H 0.94213 0.71689 0.08724 0.0
H166 H 0.93026 0.78387 0.10882 0.0
H167 H 0.67881 0.80572 0.05671 0.0
H168 H 0.63021 0.70763 0.07096 0.0
H169 H 0.82073 0.65457 0.06121 0.0
C170 C 0.92799 0.87031 0.02574 0.0
C171 C 0.9117 0.92499 0.02085 0.0
C172 C 0.8461 0.93403 0.02565 0.0
C173 C 0.79778 0.88972 0.03552 0.0
C174 C 0.81575 0.83654 0.04064 0.0
C175 C 0.87919 0.8266 0.03575 0.0
C176 C 0.88578 0.7656 0.04311 0.0
C177 C 0.89968 0.73574 0.00356 0.0
C178 C 0.94051 0.76179 0.08049 0.0
C179 C 0.81613 0.74275 0.05279 0.0
C180 C 0.77643 0.78435 0.05128 0.0
C181 C 0.7096 0.77295 0.05829 0.0
C182 C 0.68252 0.71743 0.06658 0.0
C183 C 0.72243 0.67454 0.06793 0.0
C184 C 0.7899 0.68729 0.06112 0.0
H185 H 0.76392 0.2196 0.01065 0.0
H186 H 0.96756 0.30593 0.00823 0.0
H187 H 0.92448 0.39517 0.99328 0.0
H188 H 0.68688 0.28771 0.92575 0.0
H189 H 0.61098 0.29039 0.94755 0.0
H190 H 0.6589 0.23509 0.96075 0.0
H191 H 0.66806 0.2636 0.0394 0.0
H192 H 0.61974 0.31865 0.02605 0.0
H193 H 0.70151 0.33574 0.05782 0.0
H194 H 0.85793 0.47481 0.97852 0.0
H195 H 0.77248 0.53553 0.95758 0.0
H196 H 0.61314 0.39473 0.9669 0.0
C197 C 0.79941 0.25751 0.00745 0.0
C198 C 0.86899 0.25632 0.01089 0.0
C199 C 0.914 0.30624 0.00553 0.0
C200 C 0.89005 0.35702 -0.0026 0.0
C201 C 0.82097 0.35679 0.99438 0.0
C202 C 0.77627 0.3081 -0.00121 0.0
C203 C 0.70413 0.31791 0.9915 0.0
C204 C 0.66283 0.28057 0.95416 0.0
C205 C 0.67147 0.30844 0.03106 0.0
C206 C 0.71502 0.37964 0.98189 0.0
C207 C 0.78274 0.40171 0.98438 0.0
C208 C 0.8048 0.45797 0.97645 0.0
C209 C 0.75619 0.49213 0.96478 0.0
C210 C 0.68676 0.46938 0.96057 0.0
C211 C 0.66612 0.4128 0.96982 0.0
H212 H 0.64133 0.62218 0.59305 0.0
H213 H 0.59866 0.61446 0.45819 0.0
H214 H 0.68479 0.70008 0.45678 0.0
H215 H 0.66724 0.77526 0.60675 0.0
H216 H 0.73413 0.77899 0.65029 0.0
H217 H 0.66923 0.71724 0.64065 0.0
H218 H 0.76004 0.65378 0.6383 0.0
H219 H 0.8252 0.71529 0.648 0.0
H220 H 0.82022 0.66847 0.60284 0.0
H221 H 0.77592 0.78533 0.47009 0.0
H222 H 0.86524 0.86601 0.49708 0.0
H223 H 0.84915 0.81837 0.62361 0.0
C224 C 0.65043 0.63884 0.5634 0.0
C225 C 0.61415 0.61239 0.52567 0.0
C226 C 0.62649 0.63474 0.48727 0.0
C227 C 0.67511 0.68313 0.48622 0.0
C228 C 0.71041 0.70856 0.52393 0.0
C229 C 0.69859 0.6874 0.56183 0.0
C230 C 0.74334 0.72306 0.59774 0.0
C231 C 0.70095 0.75025 0.62549 0.0
C232 C 0.78997 0.68805 0.62321 0.0
C233 C 0.78264 0.76708 0.5741 0.0
C234 C 0.76275 0.75799 0.53159 0.0
C235 C 0.79199 0.7929 0.50333 0.0
C236 C 0.84296 0.83839 0.51895 0.0
C237 C 0.86429 0.84856 0.56244 0.0
C238 C 0.83344 0.81225 0.59023 0.0
H239 H 0.74456 0.28157 0.55027 0.0
H240 H 0.63461 0.29857 0.4276 0.0
H241 H 0.68938 0.22475 0.39869 0.0
H242 H 0.89997 0.26366 0.51684 0.0
H243 H 0.9183 0.21326 0.5551 0.0
H244 H 0.8691 0.26618 0.56597 0.0
H245 H 0.77276 0.18788 0.58063 0.0
H246 H 0.82185 0.13476 0.57005 0.0
H247 H 0.73817 0.13157 0.54165 0.0
H248 H 0.75931 0.14906 0.38325 0.0
H249 H 0.83395 0.07681 0.38373 0.0
H250 H 0.89843 0.11218 0.51629 0.0
C251 C 0.73211 0.27031 0.51724 0.0
C252 C 0.6853 0.29643 0.49123 0.0
C253 C 0.66974 0.27907 0.44831 0.0
C254 C 0.70101 0.23738 0.43155 0.0
C255 C 0.74768 0.21327 0.4581 0.0
C256 C 0.76282 0.22905 0.5001 0.0
C257 C 0.81447 0.19692 0.52225 0.0
C258 C 0.87929 0.23743 0.54115 0.0
C259 C 0.78503 0.16063 0.55561 0.0
C260 C 0.82634 0.16049 0.4862 0.0
C261 C 0.78751 0.17043 0.44935 0.0
C262 C 0.78988 0.14114 0.41194 0.0
C263 C 0.83241 0.1004 0.41241 0.0
C264 C 0.8718 0.08965 0.44996 0.0
C265 C 0.86896 0.12018 0.48714 0.0
H266 H 0.40674 0.27194 0.51528 0.0
H267 H 0.25255 0.37529 0.48363 0.0
H268 H 0.16449 0.29279 0.48838 0.0
H269 H 0.31151 0.13946 0.46055 0.0
H270 H 0.34355 0.09632 0.50067 0.0
H271 H 0.39403 0.16202 0.49052 0.0
H272 H 0.40489 0.19553 0.56814 0.0
H273 H 0.35392 0.1303 0.57847 0.0
H274 H 0.32971 0.1969 0.59104 0.0
H275 H 0.0932 0.20079 0.5013 0.0
H276 H 0.04459 0.10514 0.52052 0.0
H277 H 0.24465 0.06234 0.54491 0.0
C278 C 0.35442 0.27693 0.50842 0.0
C279 C 0.33658 0.33005 0.49878 0.0
C280 C 0.2675 0.335 0.49087 0.0
C281 C 0.21705 0.28836 0.49349 0.0
C282 C 0.23639 0.23698 0.50405 0.0
C283 C 0.3034 0.23086 0.51114 0.0
C284 C 0.31083 0.17188 0.52429 0.0
C285 C 0.34181 0.14058 0.49208 0.0
C286 C 0.35228 0.17381 0.56808 0.0
C287 C 0.2377 0.14617 0.52428 0.0
C288 C 0.19546 0.18427 0.51216 0.0
C289 C 0.12577 0.17056 0.51062 0.0
C290 C 0.09865 0.11647 0.52171 0.0
C291 C 0.14127 0.07732 0.53434 0.0
C292 C 0.21139 0.09207 0.53546 0.0
H293 H 0.18065 0.63672 0.49105 0.0
H294 H 0.39129 0.70911 0.49344 0.0
H295 H 0.35935 0.80225 0.47972 0.0
H296 H 0.11374 0.71524 0.4091 0.0
H297 H 0.03995 0.7239 0.43151 0.0
H298 H 0.07968 0.66329 0.44277 0.0
H299 H 0.09163 0.68897 0.52188 0.0
H300 H 0.05231 0.74995 0.51082 0.0
H301 H 0.13429 0.75825 0.54232 0.0
H302 H 0.3045 0.88703 0.46407 0.0
H303 H 0.22998 0.95648 0.44443 0.0
H304 H 0.05516 0.82974 0.45364 0.0
C305 C 0.22029 0.67217 0.48922 0.0
C306 C 0.28866 0.66524 0.49338 0.0
C307 C 0.33857 0.71284 0.48988 0.0
C308 C 0.32097 0.76616 0.48249 0.0
C309 C 0.25324 0.7714 0.47881 0.0
C310 C 0.20364 0.72569 0.48198 0.0
C311 C 0.13431 0.74235 0.4755 0.0
C312 C 0.08929 0.70923 0.43746 0.0
C313 C 0.1012 0.7344 0.51499 0.0
C314 C 0.1526 0.80444 0.46756 0.0
C315 C 0.22155 0.82039 0.46993 0.0
C316 C 0.25051 0.87507 0.4623 0.0
C317 C 0.20783 0.91414 0.4511 0.0
C318 C 0.13694 0.89839 0.44752 0.0
C319 C 0.1092 0.8431 0.45669 0.0
H320 H 0.10668 0.97909 0.13798 0.0
H321 H 0.09994 0.15839 0.13444 0.0
H322 H 0.10013 0.16409 0.2104 0.0
H323 H 0.99245 0.95068 0.20608 0.0
H324 H 0.03246 0.89876 0.23444 0.0
H325 H 0.04394 0.90992 0.18128 0.0
H326 H 0.17358 0.93039 0.20323 0.0
H327 H 0.16261 0.91826 0.25647 0.0
H328 H 0.21062 0.98386 0.24391 0.0
H329 H 0.08605 0.14816 0.28461 0.0
H330 H 0.06712 0.11218 0.35339 0.0
H331 H 0.07955 0.94309 0.308 0.0
C332 C 0.1081 0.01984 0.15361 0.0
C333 C 0.10437 0.06847 0.13073 0.0
C334 C 0.1035 0.1208 0.15174 0.0
C335 C 0.10348 0.12445 0.19479 0.0
C336 C 0.10416 0.0753 0.21636 0.0
C337 C 0.10723 0.02407 0.19664 0.0
C338 C 0.10122 0.97673 0.22633 0.0
C339 C 0.03881 0.93138 0.21111 0.0
C340 C 0.16587 0.9508 0.23288 0.0
C341 C 0.09293 0.00919 0.26536 0.0
C342 C 0.09512 0.06602 0.25911 0.0
C343 C 0.08524 0.10385 0.29014 0.0
C344 C 0.0739 0.08307 0.3289 0.0
C345 C 0.07256 0.02511 0.33607 0.0
C346 C 0.08176 0.98789 0.30367 0.0
H347 H 0.08766 0.02688 0.87228 0.0
H348 H 0.90107 0.08753 0.88214 0.0
H349 H 0.87235 0.08101 0.80512 0.0
H350 H 0.1222 0.10057 0.7786 0.0
H351 H 0.15679 0.04314 0.75809 0.0
H352 H 0.16387 0.05594 0.81364 0.0
H353 H 0.10602 0.9527 0.82035 0.0
H354 H 0.09909 0.93951 0.76498 0.0
H355 H 0.02481 0.92672 0.78972 0.0
H356 H 0.85962 0.05829 0.72721 0.0
H357 H 0.86581 0.02424 0.6553 0.0
H358 H 0.06358 0.98396 0.69745 0.0
C359 C 0.0409 0.03915 0.85829 0.0
C360 C 0.9963 0.05736 0.88308 0.0
C361 C 0.93591 0.07347 0.86361 0.0
C362 C 0.91929 0.07 0.81995 0.0
C363 C 0.96426 0.05135 0.79641 0.0
C364 C 0.02415 0.03678 0.81498 0.0
C365 C 0.06308 0.01646 0.78304 0.0
C366 C 0.13047 0.05643 0.78337 0.0
C367 C 0.07383 0.95522 0.78994 0.0
C368 C 0.01487 0.02015 0.74353 0.0
C369 C 0.95819 0.04054 0.75174 0.0
C370 C 0.90432 0.04333 0.72034 0.0
C371 C 0.90817 0.02394 0.6797 0.0
C372 C 0.96567 1.00257 0.67095 0.0
C373 C 0.01998 1.00169 0.70317 0.0
H374 H 0.48582 0.55154 0.6483 0.0
H375 H 0.46321 0.36915 0.6336 0.0
H376 H 0.45582 0.36195 0.70882 0.0
H377 H 0.59727 0.5629 0.74303 0.0
H378 H 0.56662 0.6217 0.76486 0.0
H379 H 0.55967 0.61116 0.70928 0.0
H380 H 0.43095 0.61021 0.70229 0.0
H381 H 0.43753 0.6196 0.7581 0.0
H382 H 0.38047 0.56046 0.73037 0.0
H383 H 0.45454 0.37499 0.78539 0.0
H384 H 0.48346 0.40666 0.85969 0.0
H385 H 0.51817 0.58121 0.82551 0.0
C386 C 0.47838 0.51015 0.66102 0.0
C387 C 0.47424 0.46076 0.63554 0.0
C388 C 0.46635 0.40729 0.65296 0.0
C389 C 0.46132 0.40287 0.69539 0.0
C390 C 0.4653 0.45243 0.71985 0.0
C391 C 0.47519 0.50514 0.70348 0.0
C392 C 0.48708 0.55199 0.73736 0.0
C393 C 0.5568 0.58908 0.73872 0.0
C394 C 0.43063 0.58767 0.73168 0.0
C395 C 0.4839 0.51744 0.77552 0.0
C396 C 0.46907 0.46015 0.76454 0.0
C397 C 0.46624 0.4197 0.79436 0.0
C398 C 0.48275 0.43812 0.83648 0.0
C399 C 0.50371 0.49639 0.84839 0.0
C400 C 0.50129 0.53653 0.81749 0.0
H401 H 0.52874 0.42235 0.37679 0.0
H402 H 0.44323 0.57312 0.39684 0.0
H403 H 0.46139 0.60261 0.32681 0.0
H404 H 0.65549 0.48442 0.31698 0.0
H405 H 0.64449 0.42347 0.28134 0.0
H406 H 0.62751 0.4148 0.33387 0.0
H407 H 0.50658 0.36259 0.30582 0.0
H408 H 0.52349 0.37047 0.25326 0.0
H409 H 0.45229 0.39616 0.26917 0.0
H410 H 0.4902 0.61691 0.25498 0.0
H411 H 0.51471 0.60827 0.18269 0.0
H412 H 0.5753 0.44639 0.20762 0.0
C413 C 0.5138 0.46148 0.36634 0.0
C414 C 0.48455 0.49539 0.39222 0.0
C415 C 0.46521 0.54617 0.3774 0.0
C416 C 0.47585 0.5636 0.3378 0.0
C417 C 0.50524 0.52953 0.31313 0.0
C418 C 0.52294 0.47907 0.32648 0.0
C419 C 0.55008 0.44882 0.29282 0.0
C420 C 0.62377 0.44253 0.30712 0.0
C421 C 0.50543 0.39111 0.27948 0.0
C422 C 0.54463 0.49007 0.25855 0.0
C423 C 0.51972 0.53683 0.27114 0.0
C424 C 0.50981 0.58053 0.24473 0.0
C425 C 0.52417 0.57557 0.20396 0.0
C426 C 0.54727 0.52704 0.19017 0.0
C427 C 0.55832 0.48416 0.21788 0.0
loop_
_geom_bond_atom_site_label_1
_geom_bond_atom_site_label_2
_geom_bond_distance
_geom_bond_site_symmetry_2
_ccdc_geom_bond_type
Co0 N5 2.057 . S
Co0 O17 2.021 . S
Co0 O20 2.062 1_455 S
Co0 O24 2.117 1_554 S
Co0 O25 2.020 1_565 S
C1 O21 1.259 1_455 S
C1 O24 1.258 1_545 S
Co2 N11 2.057 . S
Co2 O18 2.118 . S
Co2 O19 2.020 1_545 S
Co2 O21 2.021 1_554 S
Co2 O26 2.062 1_655 S
C3 N5 1.316 . S
C3 N6 1.347 . S
C3 H8 0.931 . S
C4 N5 1.375 1_556 S
C4 C7 1.350 . S
C4 H9 0.930 . S
N5 Co0 2.057 . S
N5 C3 1.316 . S
N5 C4 1.375 1_554 S
N6 C3 1.347 . S
N6 C7 1.373 1_554 S
C7 C4 1.350 . S
C7 N6 1.373 1_556 S
C7 H28 0.931 . S
H8 C3 0.931 . S
H9 C4 0.930 . S
C10 O17 1.259 1_545 S
C10 O18 1.255 1_455 S
N11 Co2 2.057 . S
N11 C12 1.316 1_554 S
N11 C13 1.375 . S
C12 N11 1.316 1_556 S
C12 N14 1.347 1_556 S
C12 H23 0.931 . S
C13 N11 1.375 . S
C13 C15 1.350 . S
C13 H22 0.930 . S
N14 C12 1.347 1_554 S
N14 C15 1.373 . S
C15 C13 1.350 . S
C15 N14 1.373 . S
C15 H29 0.931 . S
C16 O19 1.256 . S
C16 O20 1.255 . S
O17 Co0 2.021 . S
O17 C10 1.259 1_565 S
O18 Co2 2.118 . S
O18 C10 1.255 1_655 S
O19 Co2 2.020 1_565 S
O19 C16 1.256 . S
O20 Co0 2.062 1_655 S
O20 C16 1.255 . S
O21 C1 1.259 1_655 S
O21 Co2 2.021 1_556 S
H22 C13 0.930 . S
H23 C12 0.931 . S
O24 Co0 2.117 1_556 S
O24 C1 1.258 1_565 S
O25 Co0 2.020 1_545 S
O25 C27 1.256 . S
O26 Co2 2.062 1_455 S
O26 C27 1.255 . S
C27 O25 1.256 . S
C27 O26 1.255 . S
H28 C7 0.931 . S
H29 C15 0.931 . S
Co30 N35 2.057 . S
Co30 O47 2.021 . S
Co30 O50 2.062 . S
Co30 O54 2.117 . S
Co30 O55 2.020 . S
C31 O51 1.259 . S
C31 O54 1.258 . S
Co32 N41 2.057 . S
Co32 O48 2.117 . S
Co32 O49 2.020 . S
Co32 O51 2.021 . S
Co32 O56 2.062 . S
C33 N35 1.316 . S
C33 N36 1.347 . S
C33 H38 0.931 . S
C34 N35 1.375 . S
C34 C37 1.350 . S
C34 H39 0.930 . S
N35 Co30 2.057 . S
N35 C33 1.316 . S
N35 C34 1.375 . S
N36 C33 1.347 . S
N36 C37 1.373 . S
C37 C34 1.350 . S
C37 N36 1.373 . S
C37 H58 0.931 . S
H38 C33 0.931 . S
H39 C34 0.930 . S
C40 O47 1.259 . S
C40 O48 1.258 . S
N41 Co32 2.057 . S
N41 C42 1.316 . S
N41 C43 1.375 . S
C42 N41 1.316 . S
C42 N44 1.347 . S
C42 H53 0.931 . S
C43 N41 1.375 . S
C43 C45 1.350 . S
C43 H52 0.930 . S
N44 C42 1.347 . S
N44 C45 1.373 . S
C45 C43 1.350 . S
C45 N44 1.373 . S
C45 H59 0.931 . S
C46 O49 1.256 . S
C46 O50 1.255 . S
O47 Co30 2.021 . S
O47 C40 1.259 . S
O48 Co32 2.117 . S
O48 C40 1.258 . S
O49 Co32 2.020 . S
O49 C46 1.256 . S
O50 Co30 2.062 . S
O50 C46 1.255 . S
O51 C31 1.259 . S
O51 Co32 2.021 . S
H52 C43 0.930 . S
H53 C42 0.931 . S
O54 Co30 2.117 . S
O54 C31 1.258 . S
O55 Co30 2.020 . S
O55 C57 1.256 . S
O56 Co32 2.062 . S
O56 C57 1.255 . S
C57 O55 1.256 . S
C57 O56 1.255 . S
H58 C37 0.931 . S
H59 C45 0.931 . S
H60 C63 0.929 . S
H61 C66 0.929 1_655 S
H62 C68 0.930 . S
C63 H60 0.929 . S
C63 C64 1.398 . S
C63 C65 1.396 . S
C64 C63 1.398 . S
C64 C68 1.407 . S
C65 C63 1.396 . S
C65 C66 1.394 1_565 S
C66 H61 0.929 1_455 S
C66 C65 1.394 1_545 S
C66 C67 1.382 . S
C67 C66 1.382 . S
C67 C68 1.392 1_545 S
C67 N69 1.420 1_455 S
C68 H62 0.930 . S
C68 C64 1.407 . S
C68 C67 1.392 1_565 S
N69 C67 1.420 1_655 S
N69 C70 1.244 . S
C70 N69 1.244 . S
H71 C74 0.929 . S
H72 C77 0.929 . S
H73 C79 0.930 . S
C74 H71 0.929 . S
C74 C75 1.398 . S
C74 C76 1.390 1_565 S
C75 C74 1.398 . S
C75 C79 1.407 . S
C76 C74 1.390 1_545 S
C76 C77 1.398 1_655 S
C77 H72 0.929 . S
C77 C76 1.398 1_455 S
C77 C78 1.382 . S
C78 C77 1.382 . S
C78 C79 1.392 1_445 S
C78 N80 1.420 . S
C79 H73 0.930 . S
C79 C75 1.407 . S
C79 C78 1.392 1_665 S
N80 C78 1.420 . S
N80 C81 1.244 . S
C81 N80 1.244 . S
H82 C85 0.929 . S
H83 C88 0.929 . S
H84 C90 0.930 1_554 S
C85 H82 0.929 . S
C85 C86 1.398 . S
C85 C87 1.396 . S
C86 C85 1.398 . S
C86 C90 1.407 . S
C87 C85 1.396 . S
C87 C88 1.394 . S
C88 H83 0.929 . S
C88 C87 1.394 . S
C88 C89 1.382 . S
C89 C88 1.382 . S
C89 C90 1.392 . S
C89 N91 1.420 . S
C90 H84 0.930 1_556 S
C90 C86 1.407 . S
C90 C89 1.392 . S
N91 C89 1.420 . S
N91 C92 1.244 . S
C92 N91 1.244 . S
H93 C96 0.929 . S
H94 C99 0.929 . S
H95 C101 0.930 . S
C96 H93 0.929 . S
C96 C97 1.398 . S
C96 C98 1.396 . S
C97 C96 1.398 . S
C97 C101 1.407 . S
C98 C96 1.396 . S
C98 C99 1.394 . S
C99 H94 0.929 . S
C99 C98 1.394 . S
C99 C100 1.382 . S
C100 C99 1.382 . S
C100 C101 1.392 . S
C100 N102 1.420 . S
C101 H95 0.930 . S
C101 C97 1.407 . S
C101 C100 1.392 . S
N102 C100 1.420 . S
N102 C103 1.244 . S
C103 N102 1.244 . S
H104 C116 0.930 . S
H105 C118 0.930 . S
H106 C119 0.930 . S
H107 C123 0.959 1_556 S
H108 C123 0.959 . S
H109 C123 0.961 . S
H110 C124 0.960 . S
H111 C124 0.961 . S
H112 C124 0.959 . S
H113 C127 0.929 . S
H114 C128 0.931 . S
H115 C130 0.930 . S
C116 H104 0.930 . S
C116 C117 1.399 . S
C116 C121 1.399 . S
C117 C116 1.399 . S
C117 C118 1.376 . S
C118 H105 0.930 . S
C118 C117 1.376 . S
C118 C119 1.388 . S
C119 H106 0.930 . S
C119 C118 1.388 . S
C119 C120 1.390 . S
C120 C119 1.390 . S
C120 C121 1.394 . S
C120 C126 1.465 . S
C121 C116 1.399 . S
C121 C120 1.394 . S
C121 C122 1.516 . S
C122 C121 1.516 . S
C122 C123 1.502 . S
C122 C124 1.561 . S
C122 C125 1.526 . S
C123 H107 0.959 1_554 S
C123 H108 0.959 . S
C123 H109 0.961 . S
C123 C122 1.502 . S
C124 H110 0.960 . S
C124 H111 0.961 . S
C124 H112 0.959 . S
C124 C122 1.561 . S
C125 C122 1.526 . S
C125 C126 1.396 . S
C125 C130 1.390 . S
C126 C120 1.465 . S
C126 C125 1.396 . S
C126 C127 1.399 . S
C127 H113 0.929 . S
C127 C126 1.399 . S
C127 C128 1.385 . S
C128 H114 0.931 . S
C128 C127 1.385 . S
C128 C129 1.389 . S
C129 C128 1.389 . S
C129 C130 1.387 . S
C130 H115 0.930 . S
C130 C125 1.390 . S
C130 C129 1.387 . S
H131 C143 0.930 . S
H132 C145 0.930 . S
H133 C146 0.930 . S
H134 C150 0.959 . S
H135 C150 0.959 . S
H136 C150 0.961 . S
H137 C151 0.960 . S
H138 C151 0.961 . S
H139 C151 0.959 . S
H140 C154 0.929 . S
H141 C155 0.931 . S
H142 C157 0.930 . S
C143 H131 0.930 . S
C143 C144 1.399 1_556 S
C143 C148 1.399 . S
C144 C143 1.399 1_554 S
C144 C145 1.376 . S
C145 H132 0.930 . S
C145 C144 1.376 . S
C145 C146 1.388 . S
C146 H133 0.930 . S
C146 C145 1.388 . S
C146 C147 1.390 . S
C147 C146 1.390 . S
C147 C148 1.394 1_554 S
C147 C153 1.465 . S
C148 C143 1.399 . S
C148 C147 1.394 1_556 S
C148 C149 1.516 . S
C149 C148 1.516 . S
C149 C150 1.502 . S
C149 C151 1.561 . S
C149 C152 1.526 . S
C150 H134 0.959 . S
C150 H135 0.959 . S
C150 H136 0.961 . S
C150 C149 1.502 . S
C151 H137 0.960 . S
C151 H138 0.961 . S
C151 H139 0.959 . S
C151 C149 1.561 . S
C152 C149 1.526 . S
C152 C153 1.396 1_556 S
C152 C157 1.390 . S
C153 C147 1.465 . S
C153 C152 1.396 1_554 S
C153 C154 1.399 . S
C154 H140 0.929 . S
C154 C153 1.399 . S
C154 C155 1.385 . S
C155 H141 0.931 . S
C155 C154 1.385 . S
C155 C156 1.389 1_554 S
C156 C155 1.389 1_556 S
C156 C157 1.387 . S
C157 H142 0.930 . S
C157 C152 1.390 . S
C157 C156 1.387 . S
H158 C170 0.930 . S
H159 C172 0.930 . S
H160 C173 0.930 . S
H161 C177 0.959 . S
H162 C177 0.959 . S
H163 C177 0.961 . S
H164 C178 0.960 . S
H165 C178 0.961 . S
H166 C178 0.959 . S
H167 C181 0.929 . S
H168 C182 0.931 . S
H169 C184 0.930 . S
C170 H158 0.930 . S
C170 C171 1.399 . S
C170 C175 1.399 . S
C171 C170 1.399 . S
C171 C172 1.376 1_554 S
C172 H159 0.930 . S
C172 C171 1.376 1_556 S
C172 C173 1.388 . S
C173 H160 0.930 . S
C173 C172 1.388 . S
C173 C174 1.390 . S
C174 C173 1.390 . S
C174 C175 1.394 1_556 S
C174 C180 1.465 . S
C175 C170 1.399 . S
C175 C174 1.394 1_554 S
C175 C176 1.516 . S
C176 C175 1.516 . S
C176 C177 1.502 . S
C176 C178 1.561 . S
C176 C179 1.526 . S
C177 H161 0.959 . S
C177 H162 0.959 . S
C177 H163 0.961 . S
C177 C176 1.502 . S
C178 H164 0.960 . S
C178 H165 0.961 . S
C178 H166 0.959 . S
C178 C176 1.561 . S
C179 C176 1.526 . S
C179 C180 1.396 1_554 S
C179 C184 1.390 . S
C180 C174 1.465 . S
C180 C179 1.396 1_556 S
C180 C181 1.399 . S
C181 H167 0.929 . S
C181 C180 1.399 . S
C181 C182 1.385 . S
C182 H168 0.931 . S
C182 C181 1.385 . S
C182 C183 1.389 1_556 S
C183 C182 1.389 1_554 S
C183 C184 1.387 . S
C184 H169 0.930 . S
C184 C179 1.390 . S
C184 C183 1.387 . S
H185 C197 0.930 . S
H186 C199 0.930 . S
H187 C200 0.930 . S
H188 C204 0.959 . S
H189 C204 0.959 . S
H190 C204 0.961 . S
H191 C205 0.960 . S
H192 C205 0.961 . S
H193 C205 0.959 . S
H194 C208 0.929 . S
H195 C209 0.931 . S
H196 C211 0.930 . S
C197 H185 0.930 . S
C197 C198 1.399 1_554 S
C197 C202 1.399 1_554 S
C198 C197 1.399 1_556 S
C198 C199 1.376 . S
C199 H186 0.930 . S
C199 C198 1.376 . S
C199 C200 1.388 . S
C200 H187 0.930 . S
C200 C199 1.388 . S
C200 C201 1.390 . S
C201 C200 1.390 . S
C201 C202 1.394 . S
C201 C207 1.465 . S
C202 C197 1.399 1_556 S
C202 C201 1.394 . S
C202 C203 1.516 1_556 S
C203 C202 1.516 1_554 S
C203 C204 1.502 1_554 S
C203 C205 1.561 . S
C203 C206 1.526 1_554 S
C204 H188 0.959 . S
C204 H189 0.959 . S
C204 H190 0.961 . S
C204 C203 1.502 1_556 S
C205 H191 0.960 . S
C205 H192 0.961 . S
C205 H193 0.959 . S
C205 C203 1.561 . S
C206 C203 1.526 1_556 S
C206 C207 1.396 . S
C206 C211 1.390 . S
C207 C201 1.465 . S
C207 C206 1.396 . S
C207 C208 1.399 . S
C208 H194 0.929 . S
C208 C207 1.399 . S
C208 C209 1.385 . S
C209 H195 0.931 . S
C209 C208 1.385 . S
C209 C210 1.389 . S
C210 C209 1.389 . S
C210 C211 1.387 . S
C211 H196 0.930 . S
C211 C206 1.390 . S
C211 C210 1.387 . S
H212 C224 0.930 . S
H213 C226 0.930 . S
H214 C227 0.930 . S
H215 C231 0.959 . S
H216 C231 0.959 . S
H217 C231 0.961 . S
H218 C232 0.960 . S
H219 C232 0.961 . S
H220 C232 0.959 . S
H221 C235 0.929 . S
H222 C236 0.931 . S
H223 C238 0.930 . S
C224 H212 0.930 . S
C224 C225 1.399 . S
C224 C229 1.399 . S
C225 C224 1.399 . S
C225 C226 1.376 . S
C226 H213 0.930 . S
C226 C225 1.376 . S
C226 C227 1.388 . S
C227 H214 0.930 . S
C227 C226 1.388 . S
C227 C228 1.390 . S
C228 C227 1.390 . S
C228 C229 1.394 . S
C228 C234 1.465 . S
C229 C224 1.399 . S
C229 C228 1.394 . S
C229 C230 1.516 . S
C230 C229 1.516 . S
C230 C231 1.502 . S
C230 C232 1.561 . S
C230 C233 1.526 . S
C231 H215 0.959 . S
C231 H216 0.959 . S
C231 H217 0.961 . S
C231 C230 1.502 . S
C232 H218 0.960 . S
C232 H219 0.961 . S
C232 H220 0.959 . S
C232 C230 1.561 . S
C233 C230 1.526 . S
C233 C234 1.396 . S
C233 C238 1.390 . S
C234 C228 1.465 . S
C234 C233 1.396 . S
C234 C235 1.399 . S
C235 H221 0.929 . S
C235 C234 1.399 . S
C235 C236 1.385 . S
C236 H222 0.931 . S
C236 C235 1.385 . S
C236 C237 1.389 . S
C237 C236 1.389 . S
C237 C238 1.387 . S
C238 H223 0.930 . S
C238 C233 1.390 . S
C238 C237 1.387 . S
H239 C251 0.930 . S
H240 C253 0.930 . S
H241 C254 0.930 . S
H242 C258 0.959 . S
H243 C258 0.959 . S
H244 C258 0.961 . S
H245 C259 0.960 . S
H246 C259 0.961 . S
H247 C259 0.959 . S
H248 C262 0.929 . S
H249 C263 0.931 . S
H250 C265 0.930 . S
C251 H239 0.930 . S
C251 C252 1.399 . S
C251 C256 1.399 . S
C252 C251 1.399 . S
C252 C253 1.376 . S
C253 H240 0.930 . S
C253 C252 1.376 . S
C253 C254 1.388 . S
C254 H241 0.930 . S
C254 C253 1.388 . S
C254 C255 1.390 . S
C255 C254 1.390 . S
C255 C256 1.394 . S
C255 C261 1.465 . S
C256 C251 1.399 . S
C256 C255 1.394 . S
C256 C257 1.516 . S
C257 C256 1.516 . S
C257 C258 1.502 . S
C257 C259 1.561 . S
C257 C260 1.526 . S
C258 H242 0.959 . S
C258 H243 0.959 . S
C258 H244 0.961 . S
C258 C257 1.502 . S
C259 H245 0.960 . S
C259 H246 0.961 . S
C259 H247 0.959 . S
C259 C257 1.561 . S
C260 C257 1.526 . S
C260 C261 1.396 . S
C260 C265 1.390 . S
C261 C255 1.465 . S
C261 C260 1.396 . S
C261 C262 1.399 . S
C262 H248 0.929 . S
C262 C261 1.399 . S
C262 C263 1.385 . S
C263 H249 0.931 . S
C263 C262 1.385 . S
C263 C264 1.389 . S
C264 C263 1.389 . S
C264 C265 1.387 . S
C265 H250 0.930 . S
C265 C260 1.390 . S
C265 C264 1.387 . S
H266 C278 0.930 . S
H267 C280 0.930 . S
H268 C281 0.930 . S
H269 C285 0.959 . S
H270 C285 0.959 . S
H271 C285 0.961 . S
H272 C286 0.960 . S
H273 C286 0.961 . S
H274 C286 0.959 . S
H275 C289 0.929 . S
H276 C290 0.931 . S
H277 C292 0.930 . S
C278 H266 0.930 . S
C278 C279 1.399 . S
C278 C283 1.399 . S
C279 C278 1.399 . S
C279 C280 1.376 . S
C280 H267 0.930 . S
C280 C279 1.376 . S
C280 C281 1.388 . S
C281 H268 0.930 . S
C281 C280 1.388 . S
C281 C282 1.390 . S
C282 C281 1.390 . S
C282 C283 1.394 . S
C282 C288 1.465 . S
C283 C278 1.399 . S
C283 C282 1.394 . S
C283 C284 1.516 . S
C284 C283 1.516 . S
C284 C285 1.502 . S
C284 C286 1.561 . S
C284 C287 1.526 . S
C285 H269 0.959 . S
C285 H270 0.959 . S
C285 H271 0.961 . S
C285 C284 1.502 . S
C286 H272 0.960 . S
C286 H273 0.961 . S
C286 H274 0.959 . S
C286 C284 1.561 . S
C287 C284 1.526 . S
C287 C288 1.396 . S
C287 C292 1.390 . S
C288 C282 1.465 . S
C288 C287 1.396 . S
C288 C289 1.399 . S
C289 H275 0.929 . S
C289 C288 1.399 . S
C289 C290 1.385 . S
C290 H276 0.931 . S
C290 C289 1.385 . S
C290 C291 1.389 . S
C291 C290 1.389 . S
C291 C292 1.387 . S
C292 H277 0.930 . S
C292 C287 1.390 . S
C292 C291 1.387 . S
H293 C305 0.930 . S
H294 C307 0.930 . S
H295 C308 0.930 . S
H296 C312 0.959 . S
H297 C312 0.959 . S
H298 C312 0.961 . S
H299 C313 0.960 . S
H300 C313 0.961 . S
H301 C313 0.959 . S
H302 C316 0.929 . S
H303 C317 0.931 . S
H304 C319 0.930 . S
C305 H293 0.930 . S
C305 C306 1.399 . S
C305 C310 1.399 . S
C306 C305 1.399 . S
C306 C307 1.376 . S
C307 H294 0.930 . S
C307 C306 1.376 . S
C307 C308 1.388 . S
C308 H295 0.930 . S
C308 C307 1.388 . S
C308 C309 1.390 . S
C309 C308 1.390 . S
C309 C310 1.394 . S
C309 C315 1.465 . S
C310 C305 1.399 . S
C310 C309 1.394 . S
C310 C311 1.516 . S
C311 C310 1.516 . S
C311 C312 1.502 . S
C311 C313 1.561 . S
C311 C314 1.526 . S
C312 H296 0.959 . S
C312 H297 0.959 . S
C312 H298 0.961 . S
C312 C311 1.502 . S
C313 H299 0.960 . S
C313 H300 0.961 . S
C313 H301 0.959 . S
C313 C311 1.561 . S
C314 C311 1.526 . S
C314 C315 1.396 . S
C314 C319 1.390 . S
C315 C309 1.465 . S
C315 C314 1.396 . S
C315 C316 1.399 . S
C316 H302 0.929 . S
C316 C315 1.399 . S
C316 C317 1.385 . S
C317 H303 0.931 . S
C317 C316 1.385 . S
C317 C318 1.389 . S
C318 C317 1.389 . S
C318 C319 1.387 . S
C319 H304 0.930 . S
C319 C314 1.390 . S
C319 C318 1.387 . S
H320 C332 0.930 . S
H321 C334 0.930 . S
H322 C335 0.930 . S
H323 C339 0.959 . S
H324 C339 0.959 . S
H325 C339 0.961 . S
H326 C340 0.960 . S
H327 C340 0.961 . S
H328 C340 0.959 . S
H329 C343 0.929 . S
H330 C344 0.931 . S
H331 C346 0.930 . S
C332 H320 0.930 . S
C332 C333 1.399 1_565 S
C332 C337 1.399 . S
C333 C332 1.399 1_545 S
C333 C334 1.376 . S
C334 H321 0.930 . S
C334 C333 1.376 . S
C334 C335 1.388 . S
C335 H322 0.930 . S
C335 C334 1.388 . S
C335 C336 1.390 . S
C336 C335 1.390 . S
C336 C337 1.394 1_545 S
C336 C342 1.465 . S
C337 C332 1.399 . S
C337 C336 1.394 1_565 S
C337 C338 1.516 . S
C338 C337 1.516 . S
C338 C339 1.502 1_455 S
C338 C340 1.561 . S
C338 C341 1.526 . S
C339 H323 0.959 . S
C339 H324 0.959 . S
C339 H325 0.961 . S
C339 C338 1.502 1_655 S
C340 H326 0.960 . S
C340 H327 0.961 . S
C340 H328 0.959 . S
C340 C338 1.561 . S
C341 C338 1.526 . S
C341 C342 1.396 1_565 S
C341 C346 1.390 . S
C342 C336 1.465 . S
C342 C341 1.396 1_545 S
C342 C343 1.399 . S
C343 H329 0.929 . S
C343 C342 1.399 . S
C343 C344 1.385 . S
C344 H330 0.931 . S
C344 C343 1.385 . S
C344 C345 1.389 . S
C345 C344 1.389 . S
C345 C346 1.387 1_545 S
C346 H331 0.930 . S
C346 C341 1.390 . S
C346 C345 1.387 1_565 S
H347 C359 0.930 . S
H348 C361 0.930 . S
H349 C362 0.930 . S
H350 C366 0.959 1_655 S
H351 C366 0.959 . S
H352 C366 0.961 . S
H353 C367 0.960 . S
H354 C367 0.961 . S
H355 C367 0.959 . S
H356 C370 0.929 . S
H357 C371 0.931 . S
H358 C373 0.930 . S
C359 H347 0.930 . S
C359 C360 1.403 . S
C359 C364 1.399 . S
C360 C359 1.403 . S
C360 C361 1.371 1_445 S
C361 H348 0.930 . S
C361 C360 1.371 1_665 S
C361 C362 1.388 . S
C362 H349 0.930 . S
C362 C361 1.388 . S
C362 C363 1.390 . S
C363 C362 1.390 . S
C363 C364 1.394 1_665 S
C363 C369 1.465 . S
C364 C359 1.399 . S
C364 C363 1.394 1_445 S
C364 C365 1.516 . S
C365 C364 1.516 . S
C365 C366 1.502 . S
C365 C367 1.561 . S
C365 C368 1.526 . S
C366 H350 0.959 1_455 S
C366 H351 0.959 . S
C366 H352 0.961 . S
C366 C365 1.502 . S
C367 H353 0.960 . S
C367 H354 0.961 . S
C367 H355 0.959 . S
C367 C365 1.561 . S
C368 C365 1.526 . S
C368 C369 1.396 1_445 S
C368 C373 1.390 . S
C369 C363 1.465 . S
C369 C368 1.396 1_665 S
C369 C370 1.399 . S
C370 H356 0.929 . S
C370 C369 1.399 . S
C370 C371 1.385 . S
C371 H357 0.931 . S
C371 C370 1.385 . S
C371 C372 1.390 1_565 S
C372 C371 1.390 1_545 S
C372 C373 1.386 1_655 S
C373 H358 0.930 . S
C373 C368 1.390 . S
C373 C372 1.386 1_455 S
H374 C386 0.930 . S
H375 C388 0.930 . S
H376 C389 0.930 . S
H377 C393 0.959 . S
H378 C393 0.959 . S
H379 C393 0.961 . S
H380 C394 0.960 . S
H381 C394 0.961 . S
H382 C394 0.959 . S
H383 C397 0.929 . S
H384 C398 0.931 . S
H385 C400 0.930 . S
C386 H374 0.930 . S
C386 C387 1.399 . S
C386 C391 1.399 . S
C387 C386 1.399 . S
C387 C388 1.376 . S
C388 H375 0.930 . S
C388 C387 1.376 . S
C388 C389 1.388 . S
C389 H376 0.930 . S
C389 C388 1.388 . S
C389 C390 1.390 . S
C390 C389 1.390 . S
C390 C391 1.394 . S
C390 C396 1.465 . S
C391 C386 1.399 . S
C391 C390 1.394 . S
C391 C392 1.516 . S
C392 C391 1.516 . S
C392 C393 1.502 . S
C392 C394 1.561 . S
C392 C395 1.526 . S
C393 H377 0.959 . S
C393 H378 0.959 . S
C393 H379 0.961 . S
C393 C392 1.502 . S
C394 H380 0.960 . S
C394 H381 0.961 . S
C394 H382 0.959 . S
C394 C392 1.561 . S
C395 C392 1.526 . S
C395 C396 1.396 . S
C395 C400 1.390 . S
C396 C390 1.465 . S
C396 C395 1.396 . S
C396 C397 1.399 . S
C397 H383 0.929 . S
C397 C396 1.399 . S
C397 C398 1.385 . S
C398 H384 0.931 . S
C398 C397 1.385 . S
C398 C399 1.389 . S
C399 C398 1.389 . S
C399 C400 1.387 . S
C400 H385 0.930 . S
C400 C395 1.390 . S
C400 C399 1.387 . S
H401 C413 0.930 . S
H402 C415 0.930 . S
H403 C416 0.930 . S
H404 C420 0.959 . S
H405 C420 0.959 . S
H406 C420 0.961 . S
H407 C421 0.960 . S
H408 C421 0.961 . S
H409 C421 0.959 . S
H410 C424 0.929 . S
H411 C425 0.931 . S
H412 C427 0.930 . S
C413 H401 0.930 . S
C413 C414 1.399 . S
C413 C418 1.399 . S
C414 C413 1.399 . S
C414 C415 1.376 . S
C415 H402 0.930 . S
C415 C414 1.376 . S
C415 C416 1.388 . S
C416 H403 0.930 . S
C416 C415 1.388 . S
C416 C417 1.390 . S
C417 C416 1.390 . S
C417 C418 1.394 . S
C417 C423 1.465 . S
C418 C413 1.399 . S
C418 C417 1.394 . S
C418 C419 1.516 . S
C419 C418 1.516 . S
C419 C420 1.502 . S
C419 C421 1.561 . S
C419 C422 1.526 . S
C420 H404 0.959 . S
C420 H405 0.959 . S
C420 H406 0.961 . S
C420 C419 1.502 . S
C421 H407 0.960 . S
C421 H408 0.961 . S
C421 H409 0.959 . S
C421 C419 1.561 . S
C422 C419 1.526 . S
C422 C423 1.396 . S
C422 C427 1.390 . S
C423 C417 1.465 . S
C423 C422 1.396 . S
C423 C424 1.399 . S
C424 H410 0.929 . S
C424 C423 1.399 . S
C424 C425 1.385 . S
C425 H411 0.931 . S
C425 C424 1.385 . S
C425 C426 1.389 . S
C426 C425 1.389 . S
C426 C427 1.387 . S
C427 H412 0.930 . S
C427 C422 1.390 . S
C427 C426 1.387 . S
C129 C97 1.443 . S
C117 C27 1.480 . S
C144 N6 1.369 . S
C156 C92 1.404 . S
C171 C16 1.429 . S
C183 C103 1.420 . S
C198 N14 1.441 1_556 S
C210 C86 1.427 . S
C225 C57 1.481 . S
C237 C75 1.467 . S
C252 N36 1.333 . S
C264 C70 1.343 . S
C291 C81 1.418 . S
C279 C46 1.427 . S
C318 C64 1.427 . S
C306 N44 1.441 . S
C333 C10 1.466 . S
C345 C65 1.472 1_545 S
C360 C1 1.540 . S
C372 C76 1.519 . S
C399 C87 1.459 . S
C387 C40 1.468 . S
C414 C31 1.531 . S
C426 C98 1.542 . S
