# Generated by pormake.
# Topology ctn, (3,4)-cn, num edge types: 1
# Building blocks:
#     Node 0, Type 0, BuildingBlock: BETDAH_clean_linker_0, # of connection points: 3
#     Node 1, Type 0, BuildingBlock: BETDAH_clean_linker_0, # of connection points: 3
#     Node 2, Type 0, BuildingBlock: BETDAH_clean_linker_0, # of connection points: 3
#     Node 3, Type 0, BuildingBlock: BETDAH_clean_linker_0, # of connection points: 3
#     Node 4, Type 0, BuildingBlock: BETDAH_clean_linker_0, # of connection points: 3
#     Node 5, Type 0, BuildingBlock: BETDAH_clean_linker_0, # of connection points: 3
#     Node 6, Type 0, BuildingBlock: BETDAH_clean_linker_0, # of connection points: 3
#     Node 7, Type 0, BuildingBlock: BETDAH_clean_linker_0, # of connection points: 3
#     Node 8, Type 0, BuildingBlock: BETDAH_clean_linker_0, # of connection points: 3
#     Node 9, Type 0, BuildingBlock: BETDAH_clean_linker_0, # of connection points: 3
#     Node 10, Type 0, BuildingBlock: BETDAH_clean_linker_0, # of connection points: 3
#     Node 11, Type 0, BuildingBlock: BETDAH_clean_linker_0, # of connection points: 3
#     Node 12, Type 0, BuildingBlock: BETDAH_clean_linker_0, # of connection points: 3
#     Node 13, Type 0, BuildingBlock: BETDAH_clean_linker_0, # of connection points: 3
#     Node 14, Type 0, BuildingBlock: BETDAH_clean_linker_0, # of connection points: 3
#     Node 15, Type 0, BuildingBlock: BETDAH_clean_linker_0, # of connection points: 3
#     Node 16, Type 1, BuildingBlock: TATPOV_clean_sbu_0, # of connection points: 4
#     Node 17, Type 1, BuildingBlock: TATPOV_clean_sbu_0, # of connection points: 4
#     Node 18, Type 1, BuildingBlock: TATPOV_clean_sbu_0, # of connection points: 4
#     Node 19, Type 1, BuildingBlock: TATPOV_clean_sbu_0, # of connection points: 4
#     Node 20, Type 1, BuildingBlock: TATPOV_clean_sbu_0, # of connection points: 4
#     Node 21, Type 1, BuildingBlock: TATPOV_clean_sbu_0, # of connection points: 4
#     Node 22, Type 1, BuildingBlock: TATPOV_clean_sbu_0, # of connection points: 4
#     Node 23, Type 1, BuildingBlock: TATPOV_clean_sbu_0, # of connection points: 4
#     Node 24, Type 1, BuildingBlock: TATPOV_clean_sbu_0, # of connection points: 4
#     Node 25, Type 1, BuildingBlock: TATPOV_clean_sbu_0, # of connection points: 4
#     Node 26, Type 1, BuildingBlock: TATPOV_clean_sbu_0, # of connection points: 4
#     Node 27, Type 1, BuildingBlock: TATPOV_clean_sbu_0, # of connection points: 4
#     Edge 28, Type (0, 1), BuildingBlock: ZUJKAS_clean_linker_0, # of connection points: 2
#     Edge 29, Type (0, 1), BuildingBlock: ZUJKAS_clean_linker_0, # of connection points: 2
#     Edge 30, Type (0, 1), BuildingBlock: ZUJKAS_clean_linker_0, # of connection points: 2
#     Edge 31, Type (0, 1), BuildingBlock: ZUJKAS_clean_linker_0, # of connection points: 2
#     Edge 32, Type (0, 1), BuildingBlock: ZUJKAS_clean_linker_0, # of connection points: 2
#     Edge 33, Type (0, 1), BuildingBlock: ZUJKAS_clean_linker_0, # of connection points: 2
#     Edge 34, Type (0, 1), BuildingBlock: ZUJKAS_clean_linker_0, # of connection points: 2
#     Edge 35, Type (0, 1), BuildingBlock: ZUJKAS_clean_linker_0, # of connection points: 2
#     Edge 36, Type (0, 1), BuildingBlock: ZUJKAS_clean_linker_0, # of connection points: 2
#     Edge 37, Type (0, 1), BuildingBlock: ZUJKAS_clean_linker_0, # of connection points: 2
#     Edge 38, Type (0, 1), BuildingBlock: ZUJKAS_clean_linker_0, # of connection points: 2
#     Edge 39, Type (0, 1), BuildingBlock: ZUJKAS_clean_linker_0, # of connection points: 2
#     Edge 40, Type (0, 1), BuildingBlock: ZUJKAS_clean_linker_0, # of connection points: 2
#     Edge 41, Type (0, 1), BuildingBlock: ZUJKAS_clean_linker_0, # of connection points: 2
#     Edge 42, Type (0, 1), BuildingBlock: ZUJKAS_clean_linker_0, # of connection points: 2
#     Edge 43, Type (0, 1), BuildingBlock: ZUJKAS_clean_linker_0, # of connection points: 2
#     Edge 44, Type (0, 1), BuildingBlock: ZUJKAS_clean_linker_0, # of connection points: 2
#     Edge 45, Type (0, 1), BuildingBlock: ZUJKAS_clean_linker_0, # of connection points: 2
#     Edge 46, Type (0, 1), BuildingBlock: ZUJKAS_clean_linker_0, # of connection points: 2
#     Edge 47, Type (0, 1), BuildingBlock: ZUJKAS_clean_linker_0, # of connection points: 2
#     Edge 48, Type (0, 1), BuildingBlock: ZUJKAS_clean_linker_0, # of connection points: 2
#     Edge 49, Type (0, 1), BuildingBlock: ZUJKAS_clean_linker_0, # of connection points: 2
#     Edge 50, Type (0, 1), BuildingBlock: ZUJKAS_clean_linker_0, # of connection points: 2
#     Edge 51, Type (0, 1), BuildingBlock: ZUJKAS_clean_linker_0, # of connection points: 2
#     Edge 52, Type (0, 1), BuildingBlock: ZUJKAS_clean_linker_0, # of connection points: 2
#     Edge 53, Type (0, 1), BuildingBlock: ZUJKAS_clean_linker_0, # of connection points: 2
#     Edge 54, Type (0, 1), BuildingBlock: ZUJKAS_clean_linker_0, # of connection points: 2
#     Edge 55, Type (0, 1), BuildingBlock: ZUJKAS_clean_linker_0, # of connection points: 2
#     Edge 56, Type (0, 1), BuildingBlock: ZUJKAS_clean_linker_0, # of connection points: 2
#     Edge 57, Type (0, 1), BuildingBlock: ZUJKAS_clean_linker_0, # of connection points: 2
#     Edge 58, Type (0, 1), BuildingBlock: ZUJKAS_clean_linker_0, # of connection points: 2
#     Edge 59, Type (0, 1), BuildingBlock: ZUJKAS_clean_linker_0, # of connection points: 2
#     Edge 60, Type (0, 1), BuildingBlock: ZUJKAS_clean_linker_0, # of connection points: 2
#     Edge 61, Type (0, 1), BuildingBlock: ZUJKAS_clean_linker_0, # of connection points: 2
#     Edge 62, Type (0, 1), BuildingBlock: ZUJKAS_clean_linker_0, # of connection points: 2
#     Edge 63, Type (0, 1), BuildingBlock: ZUJKAS_clean_linker_0, # of connection points: 2
#     Edge 64, Type (0, 1), BuildingBlock: ZUJKAS_clean_linker_0, # of connection points: 2
#     Edge 65, Type (0, 1), BuildingBlock: ZUJKAS_clean_linker_0, # of connection points: 2
#     Edge 66, Type (0, 1), BuildingBlock: ZUJKAS_clean_linker_0, # of connection points: 2
#     Edge 67, Type (0, 1), BuildingBlock: ZUJKAS_clean_linker_0, # of connection points: 2
#     Edge 68, Type (0, 1), BuildingBlock: ZUJKAS_clean_linker_0, # of connection points: 2
#     Edge 69, Type (0, 1), BuildingBlock: ZUJKAS_clean_linker_0, # of connection points: 2
#     Edge 70, Type (0, 1), BuildingBlock: ZUJKAS_clean_linker_0, # of connection points: 2
#     Edge 71, Type (0, 1), BuildingBlock: ZUJKAS_clean_linker_0, # of connection points: 2
#     Edge 72, Type (0, 1), BuildingBlock: ZUJKAS_clean_linker_0, # of connection points: 2
#     Edge 73, Type (0, 1), BuildingBlock: ZUJKAS_clean_linker_0, # of connection points: 2
#     Edge 74, Type (0, 1), BuildingBlock: ZUJKAS_clean_linker_0, # of connection points: 2
#     Edge 75, Type (0, 1), BuildingBlock: ZUJKAS_clean_linker_0, # of connection points: 2
# Relax obj value: 0.045
# Max RMSD: 0.166
# Mean RMSD: 0.099
data_MOF--net-ctn--node1-TATPOV_clean_sbu_0--node2-BETDAH_clean_linker_0--edge1-ZUJKAS_clean_linker_0
_symmetry_space_group_name_H-M    P1
_symmetry_Int_Tables_number       1
_symmetry_cell_setting            triclinic
loop_
_symmetry_equiv_pos_as_xyz
'x, y, z'
_cell_length_a     70.102674
_cell_length_b     70.142534
_cell_length_c     71.066745
_cell_angle_alpha  99.430939
_cell_angle_beta   91.355085
_cell_angle_gamma 95.801309
loop_
_atom_site_label
_atom_site_type_symbol
_atom_site_fract_x
_atom_site_fract_y
_atom_site_fract_z
_atom_type_partial_charge
H0 H 0.07447 0.01756 0.08074 0.0
H1 H 0.07425 0.0281 0.02254 0.0
H2 H 0.02884 0.04533 0.05882 0.0
C3 C 0.06805 0.02341 0.06919 0.0
C4 C 0.05099 0.03221 0.07216 0.0
C5 C 0.07661 0.02175 0.05132 0.0
C6 C 0.06797 0.02934 0.03642 0.0
C7 C 0.05076 0.0379 0.03925 0.0
C8 C 0.04235 0.03911 0.05697 0.0
N9 N 0.04064 0.04393 0.02415 0.0
C10 C 0.04902 0.05493 0.01135 0.0
H11 H 0.3073 0.69249 0.25312 0.0
H12 H 0.34162 0.73487 0.22744 0.0
H13 H 0.28278 0.71806 0.20833 0.0
C14 C 0.30878 0.70246 0.24296 0.0
C15 C 0.29302 0.70395 0.23087 0.0
C16 C 0.32641 0.71354 0.24191 0.0
C17 C 0.32805 0.72636 0.22866 0.0
C18 C 0.31244 0.7283 0.21673 0.0
C19 C 0.29487 0.71693 0.21771 0.0
N20 N 0.31528 0.74161 0.20376 0.0
C21 C 0.30096 0.74832 0.19353 0.0
H22 H 0.00984 0.42888 0.05437 0.0
H23 H 0.97017 0.47241 0.06124 0.0
H24 H 0.95609 0.41905 0.02224 0.0
C25 C 0.99637 0.43391 0.05065 0.0
C26 C 0.98387 0.42198 0.03686 0.0
C27 C 0.99161 0.45215 0.05968 0.0
C28 C 0.97397 0.45835 0.05463 0.0
C29 C 0.96117 0.4463 0.04116 0.0
C30 C 0.96617 0.42824 0.03249 0.0
N31 N 0.94302 0.45163 0.03606 0.0
C32 C 0.93715 0.47005 0.04092 0.0
H33 H 0.79119 0.79725 0.20337 0.0
H34 H 0.75913 0.7549 0.23122 0.0
H35 H 0.78235 0.80972 0.26364 0.0
C36 C 0.78512 0.79297 0.21613 0.0
C37 C 0.78795 0.80583 0.23354 0.0
C38 C 0.77488 0.77447 0.21511 0.0
C39 C 0.76681 0.76918 0.23172 0.0
C40 C 0.76967 0.78193 0.24923 0.0
C41 C 0.78036 0.8 0.25005 0.0
N42 N 0.76266 0.77682 0.26649 0.0
C43 C 0.74638 0.76409 0.26756 0.0
H44 H 0.08571 0.99155 0.4422 0.0
H45 H 0.0877 0.95409 0.48442 0.0
H46 H 0.04877 0.938 0.43554 0.0
C47 C 0.08058 0.97841 0.44748 0.0
C48 C 0.066 0.96558 0.43701 0.0
C49 C 0.08863 0.97447 0.46459 0.0
C50 C 0.08176 0.95731 0.47124 0.0
C51 C 0.06737 0.94417 0.46067 0.0
C52 C 0.05974 0.94832 0.44361 0.0
N53 N 0.06038 0.92645 0.46649 0.0
C54 C 0.06224 0.92258 0.48495 0.0
H55 H 0.2655 0.71979 0.80821 0.0
H56 H 0.21346 0.73273 0.78187 0.0
H57 H 0.24643 0.68967 0.75225 0.0
C58 C 0.25526 0.71742 0.79617 0.0
C59 C 0.25809 0.70357 0.78011 0.0
C60 C 0.23922 0.72804 0.79697 0.0
C61 C 0.22582 0.72459 0.7814 0.0
C62 C 0.22858 0.71082 0.76518 0.0
C63 C 0.24469 0.70052 0.76465 0.0
N64 N 0.21548 0.70671 0.74914 0.0
C65 C 0.19845 0.71503 0.74773 0.0
H66 H 0.9403 0.56081 0.4957 0.0
H67 H 0.98697 0.56328 0.45739 0.0
H68 H 0.93938 0.5192 0.44405 0.0
C69 C 0.94702 0.55512 0.48271 0.0
C70 C 0.93783 0.53869 0.47073 0.0
C71 C 0.96479 0.5642 0.47812 0.0
C72 C 0.97323 0.55666 0.46105 0.0
C73 C 0.96396 0.54039 0.44881 0.0
C74 C 0.94641 0.53161 0.45373 0.0
N75 N 0.97165 0.53222 0.4314 0.0
C76 C 0.9888 0.53885 0.42406 0.0
H77 H 0.83846 0.77716 0.82405 0.0
H78 H 0.82175 0.82793 0.80374 0.0
H79 H 0.79827 0.81168 0.8547 0.0
C80 C 0.83017 0.7895 0.82548 0.0
C81 C 0.81784 0.79252 0.84075 0.0
C82 C 0.83189 0.80226 0.81208 0.0
C83 C 0.82084 0.81814 0.81406 0.0
C84 C 0.80873 0.82146 0.82948 0.0
C85 C 0.80748 0.80879 0.84276 0.0
N86 N 0.7978 0.83757 0.8324 0.0
C87 C 0.79334 0.84839 0.81849 0.0
H88 H 0.34464 0.28116 0.32513 0.0
H89 H 0.32272 0.32871 0.30315 0.0
H90 H 0.29809 0.309 0.35217 0.0
C91 C 0.33472 0.29213 0.32589 0.0
C92 C 0.32137 0.29353 0.34037 0.0
C93 C 0.33535 0.30475 0.31237 0.0
C94 C 0.32223 0.3188 0.31336 0.0
C95 C 0.3089 0.32037 0.32786 0.0
C96 C 0.30865 0.30783 0.34126 0.0
N97 N 0.29557 0.33443 0.32964 0.0
C98 C 0.29182 0.34584 0.31603 0.0
H99 H 0.51178 0.92993 0.55257 0.0
H100 H 0.47228 0.97362 0.55993 0.0
H101 H 0.46008 0.92262 0.51734 0.0
C102 C 0.49862 0.93534 0.5485 0.0
C103 C 0.48688 0.92436 0.53349 0.0
C104 C 0.49354 0.95317 0.55824 0.0
C105 C 0.4763 0.95986 0.55276 0.0
C106 C 0.46423 0.94872 0.53803 0.0
C107 C 0.46958 0.9311 0.52859 0.0
N108 N 0.44651 0.95457 0.5323 0.0
C109 C 0.44017 0.97257 0.53854 0.0
H110 H 0.28825 0.29607 0.70332 0.0
H111 H 0.25528 0.25505 0.73202 0.0
H112 H 0.28154 0.3089 0.76392 0.0
C113 C 0.2821 0.29216 0.71619 0.0
C114 C 0.28591 0.30492 0.73356 0.0
C115 C 0.27119 0.27404 0.71543 0.0
C116 C 0.26378 0.2689 0.73238 0.0
C117 C 0.26772 0.28148 0.74987 0.0
C118 C 0.27885 0.29925 0.75036 0.0
N119 N 0.26116 0.27657 0.76736 0.0
C120 C 0.24452 0.26449 0.76893 0.0
H121 H 0.80924 0.18999 0.74878 0.0
H122 H 0.84339 0.22751 0.71765 0.0
H123 H 0.78323 0.21302 0.70292 0.0
C124 C 0.81029 0.19917 0.73788 0.0
C125 C 0.79405 0.20038 0.7263 0.0
C126 C 0.82816 0.20874 0.73476 0.0
C127 C 0.82965 0.21996 0.72015 0.0
C128 C 0.81351 0.22199 0.70896 0.0
C129 C 0.79567 0.21202 0.71191 0.0
N130 N 0.81611 0.23372 0.69455 0.0
C131 C 0.80166 0.24157 0.68559 0.0
H132 H 0.57007 0.51883 0.58294 0.0
H133 H 0.57144 0.53226 0.52578 0.0
H134 H 0.52625 0.54973 0.5623 0.0
C135 C 0.56412 0.52551 0.57172 0.0
C136 C 0.54745 0.5349 0.57498 0.0
C137 C 0.57294 0.52439 0.554 0.0
C138 C 0.56492 0.53307 0.53952 0.0
C139 C 0.54809 0.54226 0.54264 0.0
C140 C 0.53945 0.54296 0.56022 0.0
N141 N 0.5386 0.54982 0.52809 0.0
C142 C 0.54766 0.55903 0.51433 0.0
H143 H 0.58981 0.48859 0.94131 0.0
H144 H 0.58878 0.45256 0.98489 0.0
H145 H 0.54243 0.44495 0.94268 0.0
C146 C 0.58278 0.47693 0.94778 0.0
C147 C 0.56511 0.46745 0.94001 0.0
C148 C 0.59143 0.47158 0.9639 0.0
C149 C 0.58214 0.45666 0.97244 0.0
C150 C 0.5645 0.4469 0.96457 0.0
C151 C 0.55618 0.45232 0.94842 0.0
N152 N 0.55453 0.43159 0.97238 0.0
C153 C 0.56044 0.42464 0.98853 0.0
H154 H 0.76822 0.21781 0.31157 0.0
H155 H 0.71725 0.23274 0.28489 0.0
H156 H 0.75105 0.19131 0.25395 0.0
C157 C 0.75819 0.21596 0.29941 0.0
C158 C 0.76158 0.20314 0.28275 0.0
C159 C 0.74225 0.22674 0.30036 0.0
C160 C 0.72965 0.22466 0.28425 0.0
C161 C 0.73296 0.21191 0.26746 0.0
C162 C 0.74889 0.20135 0.26684 0.0
N163 N 0.72058 0.20911 0.25092 0.0
C164 C 0.70348 0.21733 0.24969 0.0
H165 H 0.4467 0.05505 0.99914 0.0
H166 H 0.48438 0.06952 0.9554 0.0
H167 H 0.43676 0.02548 0.94124 0.0
C168 C 0.45083 0.05269 0.98441 0.0
C169 C 0.43992 0.03863 0.971 0.0
C170 C 0.46682 0.064 0.97892 0.0
C171 C 0.47213 0.06084 0.95977 0.0
C172 C 0.46131 0.04676 0.94624 0.0
C173 C 0.44522 0.03597 0.9519 0.0
N174 N 0.46572 0.04338 0.92668 0.0
C175 C 0.48349 0.04837 0.91959 0.0
Zn176 Zn 0.28792 0.85516 0.01143 0.0
Zn177 Zn 0.25676 0.87326 0.01622 0.0
O178 O 0.25733 0.85871 0.03972 0.0
O179 O 0.284 0.84471 0.03565 0.0
O180 O 0.23347 0.88831 0.01969 0.0
O181 O 0.30472 0.87998 0.01174 0.0
O182 O 0.27886 0.8953 0.01548 0.0
C183 C 0.26943 0.84814 0.04531 0.0
C184 C 0.26032 0.84262 0.98042 0.0
O185 O 0.2508 0.85511 0.99011 0.0
O186 O 0.2767 0.83978 0.98662 0.0
C187 C 0.23338 0.90269 0.03316 0.0
O188 O 0.2483 0.90716 0.04519 0.0
C189 C 0.29695 0.89565 0.01365 0.0
Zn190 Zn 0.12691 0.46837 0.25268 0.0
Zn191 Zn 0.14788 0.50212 0.25161 0.0
O192 O 0.13388 0.50858 0.27669 0.0
O193 O 0.11652 0.4808 0.27754 0.0
O194 O 0.16429 0.5269 0.24948 0.0
O195 O 0.1506 0.45452 0.25259 0.0
O196 O 0.16796 0.48238 0.25212 0.0
C197 C 0.12169 0.49832 0.2849 0.0
C198 C 0.11715 0.48475 0.22001 0.0
O199 O 0.12984 0.49831 0.22759 0.0
O200 O 0.11342 0.46989 0.22779 0.0
C201 C 0.15721 0.54297 0.25014 0.0
O202 O 0.13877 0.54355 0.25274 0.0
C203 C 0.16684 0.46415 0.25238 0.0
Zn204 Zn 0.79906 0.60742 0.96802 0.0
Zn205 Zn 0.79226 0.63165 0.99986 0.0
O206 O 0.81679 0.62034 0.00744 0.0
O207 O 0.82277 0.60095 0.98112 0.0
O208 O 0.78713 0.64987 0.0238 0.0
O209 O 0.80077 0.62959 0.95325 0.0
O210 O 0.79522 0.64953 0.97937 0.0
C211 C 0.82716 0.60831 0.99835 0.0
C212 C 0.76324 0.59641 0.9841 0.0
O213 O 0.76842 0.61152 0.99641 0.0
O214 O 0.77375 0.59158 0.97024 0.0
C215 C 0.78133 0.64296 0.03837 0.0
O216 O 0.77869 0.62401 0.03744 0.0
C217 C 0.7986 0.64656 0.96162 0.0
Zn218 Zn 0.90142 0.02967 0.30402 0.0
Zn219 Zn 0.91883 0.02986 0.27097 0.0
O220 O 0.90476 0.0549 0.27401 0.0
O221 O 0.89131 0.05491 0.3017 0.0
O222 O 0.93314 0.02972 0.24656 0.0
O223 O 0.92655 0.02955 0.31807 0.0
O224 O 0.94072 0.02868 0.29068 0.0
C225 C 0.89454 0.06279 0.28714 0.0
C226 C 0.88856 0.99635 0.2755 0.0
O227 O 0.9006 0.00453 0.26538 0.0
O228 O 0.88619 0.00422 0.29253 0.0
C229 C 0.94223 0.04492 0.24223 0.0
O230 O 0.9419 0.0616 0.25368 0.0
C231 C 0.94161 0.02871 0.30863 0.0
Zn232 Zn 0.2966 0.1087 0.46672 0.0
Zn233 Zn 0.29233 0.13319 0.4992 0.0
O234 O 0.31608 0.12032 0.50596 0.0
O235 O 0.31933 0.09973 0.4796 0.0
O236 O 0.2883 0.15172 0.52323 0.0
O237 O 0.30048 0.13114 0.45242 0.0
O238 O 0.29628 0.15117 0.47889 0.0
C239 C 0.32491 0.10707 0.49657 0.0
C240 C 0.26054 0.10056 0.48342 0.0
O241 O 0.26746 0.11449 0.49634 0.0
O242 O 0.26993 0.09553 0.46875 0.0
C243 C 0.28625 0.14534 0.53888 0.0
O244 O 0.28709 0.12674 0.53906 0.0
C245 C 0.29949 0.14825 0.4611 0.0
Zn246 Zn 0.39533 0.52966 0.80525 0.0
Zn247 Zn 0.4145 0.52993 0.77328 0.0
O248 O 0.40049 0.555 0.77559 0.0
O249 O 0.38563 0.55496 0.80254 0.0
O250 O 0.42988 0.5298 0.74953 0.0
O251 O 0.41965 0.52941 0.8205 0.0
O252 O 0.43542 0.5287 0.79403 0.0
C253 C 0.38972 0.56289 0.78818 0.0
C254 C 0.38373 0.49636 0.7764 0.0
O255 O 0.39639 0.50455 0.76692 0.0
O256 O 0.38043 0.50426 0.79318 0.0
C257 C 0.43869 0.54507 0.74504 0.0
O258 O 0.43754 0.5619 0.75599 0.0
C259 C 0.43526 0.52863 0.81196 0.0
Zn260 Zn 0.78785 0.36285 0.51401 0.0
Zn261 Zn 0.7548 0.37779 0.51737 0.0
O262 O 0.75572 0.36297 0.54067 0.0
O263 O 0.78374 0.35139 0.53764 0.0
O264 O 0.73043 0.39119 0.5202 0.0
O265 O 0.80296 0.38882 0.51584 0.0
O266 O 0.77542 0.40139 0.51744 0.0
C267 C 0.76851 0.35336 0.54663 0.0
C268 C 0.76195 0.34874 0.4816 0.0
O269 O 0.75082 0.3597 0.49108 0.0
O270 O 0.77859 0.34762 0.48837 0.0
C271 C 0.7294 0.40496 0.5341 0.0
O272 O 0.74383 0.40945 0.54672 0.0
C273 C 0.79369 0.40349 0.51696 0.0
Zn274 Zn 0.62479 0.96892 0.75636 0.0
Zn275 Zn 0.64597 0.00241 0.75417 0.0
O276 O 0.63231 0.00964 0.77929 0.0
O277 O 0.61483 0.98215 0.78114 0.0
O278 O 0.66253 0.02686 0.75116 0.0
O279 O 0.64845 0.95498 0.75638 0.0
O280 O 0.6659 0.98256 0.75495 0.0
C281 C 0.62019 0.99978 0.78797 0.0
C282 C 0.61479 0.9845 0.72319 0.0
O283 O 0.62764 0.99809 0.73035 0.0
O284 O 0.61105 0.96993 0.73141 0.0
C285 C 0.65622 0.04342 0.7533 0.0
O286 O 0.63837 0.04488 0.75808 0.0
C287 C 0.66471 0.96443 0.75572 0.0
Zn288 Zn 0.03498 0.26113 0.86056 0.0
Zn289 Zn 0.03458 0.22929 0.87603 0.0
O290 O 0.05932 0.22923 0.86049 0.0
O291 O 0.05817 0.2545 0.84595 0.0
O292 O 0.03575 0.20644 0.88999 0.0
O293 O 0.03783 0.2785 0.88602 0.0
O294 O 0.03406 0.25191 0.89878 0.0
C295 C 0.06636 0.23994 0.84893 0.0
C296 C 0.00073 0.23463 0.85022 0.0
O297 O 0.00921 0.22353 0.85942 0.0
O298 O 0.00854 0.25151 0.84925 0.0
C299 C 0.0418 0.19038 0.88299 0.0
O300 O 0.04695 0.18764 0.86518 0.0
C301 C 0.03598 0.27042 0.90062 0.0
Zn302 Zn 0.53708 0.75936 0.35639 0.0
Zn303 Zn 0.53684 0.7288 0.37378 0.0
O304 O 0.56124 0.7277 0.35763 0.0
O305 O 0.56015 0.75218 0.34197 0.0
O306 O 0.53832 0.70675 0.38876 0.0
O307 O 0.53992 0.7779 0.38121 0.0
O308 O 0.53689 0.75236 0.39561 0.0
C309 C 0.56824 0.73776 0.3455 0.0
C310 C 0.50247 0.73298 0.348 0.0
O311 O 0.51087 0.72265 0.35817 0.0
O312 O 0.51065 0.74925 0.34546 0.0
C313 C 0.54227 0.68982 0.38165 0.0
O314 O 0.54495 0.68575 0.36325 0.0
C315 C 0.53854 0.77076 0.39642 0.0
Zn316 Zn 0.96972 0.7789 0.61827 0.0
Zn317 Zn 0.0005 0.77439 0.63965 0.0
O318 O 0.00944 0.79864 0.62797 0.0
O319 O 0.98424 0.80256 0.61048 0.0
O320 O 0.02353 0.7714 0.65602 0.0
O321 O 0.9538 0.78201 0.64148 0.0
O322 O 0.97873 0.77725 0.6589 0.0
C323 C 0.00135 0.80799 0.61665 0.0
C324 C 0.98531 0.74251 0.60632 0.0
O325 O 0.9977 0.74927 0.61978 0.0
O326 O 0.9716 0.75213 0.60304 0.0
C327 C 0.02368 0.75743 0.66537 0.0
O328 O 0.00837 0.74479 0.66445 0.0
C329 C 0.96117 0.7804 0.6575 0.0
Zn330 Zn 0.47318 0.27529 0.11889 0.0
Zn331 Zn 0.50399 0.27253 0.14092 0.0
O332 O 0.51267 0.29586 0.12772 0.0
O333 O 0.48733 0.29837 0.10979 0.0
O334 O 0.52721 0.27051 0.15747 0.0
O335 O 0.45723 0.27919 0.14212 0.0
O336 O 0.48252 0.27686 0.16022 0.0
C337 C 0.50442 0.30432 0.11573 0.0
C338 C 0.48875 0.23875 0.10912 0.0
O339 O 0.50083 0.24619 0.12267 0.0
O340 O 0.47532 0.24824 0.10476 0.0
C341 C 0.52783 0.25658 0.1668 0.0
O342 O 0.5129 0.24347 0.1658 0.0
C343 C 0.4648 0.27924 0.15849 0.0
H344 H 0.26611 0.75502 0.81712 0.0
H345 H 0.26255 0.77614 0.84748 0.0
H346 H 0.20251 0.75504 0.84633 0.0
H347 H 0.20609 0.73341 0.81607 0.0
H348 H 0.23812 0.80563 0.85869 0.0
H349 H 0.22435 0.7426 0.8969 0.0
H350 H 0.23361 0.74008 0.87326 0.0
H351 H 0.20873 0.74311 0.87659 0.0
C352 C 0.25214 0.75487 0.82331 0.0
C353 C 0.23644 0.74234 0.81432 0.0
C354 C 0.25009 0.76706 0.84058 0.0
C355 C 0.23233 0.76697 0.84927 0.0
C356 C 0.2164 0.75514 0.83997 0.0
H357 H 0.22852 0.84793 0.95903 0.0
H358 H 0.21769 0.83012 0.9272 0.0
C359 C 0.21843 0.74291 0.82262 0.0
C360 C 0.23106 0.77847 0.86858 0.0
H361 H 0.22773 0.77368 0.91547 0.0
C362 C 0.2355 0.79873 0.87111 0.0
C363 C 0.22775 0.76936 0.88472 0.0
C364 C 0.22346 0.74759 0.88289 0.0
C365 C 0.23752 0.81003 0.88944 0.0
C366 C 0.23489 0.8008 0.90559 0.0
C367 C 0.22959 0.78069 0.90301 0.0
C368 C 0.24035 0.81118 0.92515 0.0
C369 C 0.24361 0.83154 0.89147 0.0
C370 C 0.25637 0.80615 0.93463 0.0
C371 C 0.26255 0.8162 0.95264 0.0
C372 C 0.25278 0.8315 0.96171 0.0
C373 C 0.23638 0.83624 0.95242 0.0
C374 C 0.23022 0.82616 0.93423 0.0
H375 H 0.24715 0.83605 0.87758 0.0
H376 H 0.23181 0.83973 0.89753 0.0
H377 H 0.25633 0.83569 0.90145 0.0
H378 H 0.26437 0.79463 0.92788 0.0
H379 H 0.27516 0.81204 0.95938 0.0
H380 H 0.98958 0.53344 0.38617 0.0
H381 H 0.01799 0.53406 0.36689 0.0
H382 H 0.05403 0.55247 0.41806 0.0
H383 H 0.02537 0.55128 0.43747 0.0
H384 H 0.04704 0.56137 0.36183 0.0
H385 H 0.07505 0.50254 0.39496 0.0
H386 H 0.05127 0.50956 0.39904 0.0
H387 H 0.0718 0.52458 0.41083 0.0
C388 C 0.00357 0.53792 0.39323 0.0
C389 C 0.00548 0.54229 0.41316 0.0
C390 C 0.01978 0.5383 0.38225 0.0
C391 C 0.03818 0.54303 0.39103 0.0
C392 C 0.04001 0.54843 0.41101 0.0
H393 H 0.12856 0.53547 0.30529 0.0
H394 H 0.11202 0.54949 0.33353 0.0
C395 C 0.0237 0.5479 0.42205 0.0
C396 C 0.05516 0.54076 0.37907 0.0
H397 H 0.09064 0.51124 0.36847 0.0
C398 C 0.05684 0.55068 0.36345 0.0
C399 C 0.06786 0.52672 0.38119 0.0
C400 C 0.06642 0.5151 0.39731 0.0
C401 C 0.07002 0.54608 0.34924 0.0
C402 C 0.08214 0.53145 0.35097 0.0
C403 C 0.08134 0.52247 0.36723 0.0
C404 C 0.09351 0.52314 0.33486 0.0
C405 C 0.06988 0.55591 0.33188 0.0
C406 C 0.08907 0.50355 0.32666 0.0
C407 C 0.09857 0.4955 0.31076 0.0
C408 C 0.11275 0.50685 0.30261 0.0
C409 C 0.11762 0.52637 0.31114 0.0
C410 C 0.10811 0.53443 0.32721 0.0
H411 H 0.05747 0.56451 0.33134 0.0
H412 H 0.08323 0.56592 0.33215 0.0
H413 H 0.0694 0.545 0.3186 0.0
H414 H 0.07786 0.49456 0.3323 0.0
H415 H 0.09445 0.48041 0.30464 0.0
H416 H 0.84565 0.77426 0.85639 0.0
H417 H 0.84135 0.75046 0.87796 0.0
H418 H 0.78069 0.75618 0.87845 0.0
H419 H 0.78467 0.77924 0.85621 0.0
H420 H 0.82748 0.75357 0.91412 0.0
H421 H 0.78153 0.69794 0.86361 0.0
H422 H 0.7947 0.71871 0.85621 0.0
H423 H 0.77244 0.72121 0.86799 0.0
C424 C 0.83135 0.77028 0.86089 0.0
C425 C 0.81549 0.77857 0.85443 0.0
C426 C 0.82895 0.75681 0.87336 0.0
C427 C 0.81066 0.75134 0.87959 0.0
C428 C 0.79487 0.75991 0.87354 0.0
H429 H 0.79032 0.68418 0.97274 0.0
H430 H 0.79264 0.71045 0.95371 0.0
C431 C 0.79723 0.77329 0.861 0.0
C432 C 0.80812 0.73657 0.8923 0.0
H433 H 0.78533 0.69185 0.8952 0.0
C434 C 0.81826 0.74007 0.91001 0.0
C435 C 0.79622 0.7189 0.88681 0.0
C436 C 0.78573 0.71383 0.86756 0.0
C437 C 0.81688 0.72632 0.92238 0.0
C438 C 0.80472 0.70879 0.91702 0.0
C439 C 0.7945 0.70537 0.89935 0.0
C440 C 0.80331 0.69319 0.92886 0.0
C441 C 0.82891 0.73042 0.94077 0.0
C442 C 0.80811 0.67468 0.92109 0.0
C443 C 0.80657 0.65965 0.93178 0.0
C444 C 0.80021 0.66277 0.95055 0.0
C445 C 0.79538 0.68134 0.95837 0.0
C446 C 0.79681 0.69639 0.94756 0.0
H447 H 0.84077 0.74216 0.94056 0.0
H448 H 0.81973 0.73516 0.95279 0.0
H449 H 0.83516 0.71718 0.94355 0.0
H450 H 0.81314 0.67187 0.90669 0.0
H451 H 0.81045 0.64558 0.92529 0.0
H452 H 0.0279 0.96053 0.42623 0.0
H453 H 0.01253 0.97114 0.39915 0.0
H454 H 0.06772 0.99341 0.38171 0.0
H455 H 0.08336 0.98239 0.40857 0.0
H456 H 0.03981 0.02035 0.38533 0.0
H457 H 0.01159 0.95011 0.34125 0.0
H458 H 0.00602 0.95166 0.36596 0.0
H459 H 0.03064 0.95216 0.35929 0.0
C460 C 0.03686 0.96723 0.41639 0.0
C461 C 0.05688 0.97061 0.41961 0.0
C462 C 0.02803 0.97331 0.40092 0.0
C463 C 0.03902 0.98286 0.38833 0.0
C464 C 0.05902 0.98599 0.39125 0.0
H465 H 0.97347 0.01406 0.29273 0.0
H466 H 0.00107 0.00482 0.30978 0.0
C467 C 0.06789 0.9798 0.40667 0.0
C468 C 0.02933 0.99087 0.37311 0.0
H469 H 0.99645 0.97816 0.33587 0.0
C470 C 0.03062 0.01113 0.37426 0.0
C471 C 0.01759 0.97882 0.35853 0.0
C472 C 0.01649 0.95696 0.35602 0.0
C473 C 0.0194 0.01969 0.36202 0.0
C474 C 0.00652 0.00765 0.34843 0.0
C475 C 0.00625 0.98738 0.3464 0.0
C476 C 0.99159 0.01564 0.3379 0.0
C477 C 0.02096 0.04154 0.36412 0.0
C478 C 0.97731 0.02497 0.34808 0.0
C479 C 0.96155 0.0301 0.33846 0.0
C480 C 0.95975 0.02601 0.31842 0.0
C481 C 0.97452 0.01749 0.30817 0.0
C482 C 0.99025 0.01216 0.31786 0.0
H483 H 0.03517 0.04827 0.37053 0.0
H484 H 0.01876 0.04624 0.35012 0.0
H485 H 0.00977 0.04708 0.37372 0.0
H486 H 0.97789 0.02747 0.36355 0.0
H487 H 0.95043 0.03666 0.34676 0.0
H488 H 0.26338 0.28209 0.67976 0.0
H489 H 0.26289 0.26 0.64925 0.0
H490 H 0.27257 0.21275 0.67897 0.0
H491 H 0.27343 0.23477 0.70952 0.0
H492 H 0.29454 0.23923 0.63689 0.0
H493 H 0.2281 0.18963 0.63981 0.0
H494 H 0.2324 0.21328 0.65463 0.0
H495 H 0.24392 0.19322 0.66065 0.0
C496 C 0.26529 0.26696 0.67982 0.0
C497 C 0.26854 0.26021 0.69709 0.0
C498 C 0.26491 0.25436 0.66239 0.0
C499 C 0.26753 0.23473 0.66188 0.0
C500 C 0.27015 0.22778 0.67908 0.0
H501 H 0.2845 0.13701 0.57509 0.0
H502 H 0.27957 0.15915 0.60451 0.0
C503 C 0.27061 0.24039 0.69653 0.0
C504 C 0.26917 0.22193 0.64337 0.0
H505 H 0.24925 0.18024 0.61512 0.0
C506 C 0.28456 0.22642 0.63202 0.0
C507 C 0.25619 0.20519 0.63718 0.0
C508 C 0.23911 0.20006 0.64859 0.0
C509 C 0.28762 0.21432 0.61483 0.0
C510 C 0.27466 0.19752 0.60862 0.0
C511 C 0.25916 0.19313 0.61991 0.0
C512 C 0.27719 0.18411 0.59064 0.0
C513 C 0.30506 0.21931 0.60382 0.0
C514 C 0.27721 0.19074 0.57305 0.0
C515 C 0.28018 0.17816 0.55622 0.0
C516 C 0.28295 0.15865 0.55666 0.0
C517 C 0.28248 0.15196 0.57426 0.0
C518 C 0.27962 0.16458 0.59109 0.0
H519 H 0.31607 0.22947 0.61291 0.0
H520 H 0.31169 0.20604 0.59778 0.0
H521 H 0.30071 0.22649 0.59184 0.0
H522 H 0.27493 0.20564 0.57232 0.0
H523 H 0.28026 0.18373 0.54288 0.0
H524 H 0.53899 0.50566 0.59571 0.0
H525 H 0.52109 0.5072 0.62508 0.0
H526 H 0.51694 0.56822 0.62561 0.0
H527 H 0.53448 0.56668 0.59616 0.0
H528 H 0.52764 0.52836 0.66083 0.0
H529 H 0.46129 0.54783 0.62811 0.0
H530 H 0.48092 0.53964 0.61409 0.0
H531 H 0.48192 0.56451 0.62583 0.0
C532 C 0.53437 0.51942 0.6022 0.0
C533 C 0.53794 0.53601 0.59354 0.0
C534 C 0.5241 0.52027 0.61892 0.0
C535 C 0.51726 0.53772 0.6273 0.0
C536 C 0.52154 0.55447 0.6191 0.0
H537 H 0.45563 0.57501 0.72888 0.0
H538 H 0.47509 0.57286 0.70058 0.0
C539 C 0.53164 0.55359 0.60232 0.0
C540 C 0.50557 0.53842 0.64452 0.0
H541 H 0.46249 0.55027 0.66194 0.0
C542 C 0.51336 0.53303 0.66103 0.0
C543 C 0.48686 0.54443 0.64476 0.0
C544 C 0.47716 0.54924 0.62719 0.0
C545 C 0.50312 0.53392 0.67787 0.0
C546 C 0.48461 0.54027 0.67815 0.0
C547 C 0.47676 0.54554 0.66167 0.0
C548 C 0.47308 0.54146 0.69542 0.0
C549 C 0.51224 0.5284 0.69536 0.0
C550 C 0.46535 0.52449 0.70173 0.0
C551 C 0.45409 0.52565 0.71778 0.0
C552 C 0.45043 0.54382 0.72788 0.0
C553 C 0.45821 0.5608 0.72148 0.0
C554 C 0.46933 0.55961 0.70532 0.0
H555 H 0.52779 0.52701 0.69381 0.0
H556 H 0.51038 0.53939 0.70816 0.0
H557 H 0.50506 0.51425 0.69785 0.0
H558 H 0.46791 0.51035 0.69412 0.0
H559 H 0.44834 0.51229 0.72232 0.0
H560 H 0.77112 0.22756 0.66122 0.0
H561 H 0.75555 0.24574 0.63939 0.0
H562 H 0.79186 0.29777 0.66371 0.0
H563 H 0.80689 0.27979 0.68573 0.0
H564 H 0.75548 0.30582 0.65432 0.0
H565 H 0.78548 0.25826 0.59409 0.0
H566 H 0.7691 0.24619 0.60848 0.0
H567 H 0.79196 0.25767 0.61865 0.0
C568 C 0.77534 0.24299 0.66213 0.0
C569 C 0.79012 0.2524 0.67501 0.0
C570 C 0.76658 0.25332 0.64962 0.0
C571 C 0.77279 0.27305 0.64968 0.0
C572 C 0.78681 0.28259 0.66339 0.0
H573 H 0.7965 0.34254 0.56819 0.0
H574 H 0.79309 0.32311 0.59347 0.0
C575 C 0.79542 0.27233 0.67593 0.0
C576 C 0.76647 0.28343 0.63437 0.0
H577 H 0.77147 0.28514 0.58697 0.0
C578 C 0.7586 0.30113 0.63951 0.0
C579 C 0.77072 0.27736 0.61506 0.0
C580 C 0.77991 0.25893 0.60866 0.0
C581 C 0.75577 0.31335 0.62605 0.0
C582 C 0.76079 0.3076 0.60699 0.0
C583 C 0.76758 0.28943 0.60163 0.0
C584 C 0.7621 0.32121 0.59304 0.0
C585 C 0.74862 0.33283 0.63248 0.0
C586 C 0.74575 0.32708 0.5847 0.0
C587 C 0.74767 0.33842 0.57012 0.0
C588 C 0.76594 0.3438 0.56365 0.0
C589 C 0.7822 0.33849 0.57266 0.0
C590 C 0.78029 0.32737 0.58715 0.0
H591 H 0.74653 0.33568 0.64809 0.0
H592 H 0.75896 0.34459 0.62876 0.0
H593 H 0.73473 0.33344 0.62489 0.0
H594 H 0.73156 0.32235 0.58897 0.0
H595 H 0.73488 0.34224 0.5634 0.0
H596 H 0.48252 0.97404 0.5917 0.0
H597 H 0.50276 0.98868 0.61974 0.0
H598 H 0.55271 0.97027 0.59049 0.0
H599 H 0.53291 0.95733 0.5619 0.0
H600 H 0.52031 0.97023 0.64067 0.0
H601 H 0.57597 0.02099 0.61708 0.0
H602 H 0.55474 0.01135 0.60238 0.0
H603 H 0.57554 0.99805 0.60167 0.0
C604 C 0.4979 0.97376 0.59093 0.0
C605 C 0.50599 0.96423 0.57453 0.0
C606 C 0.50947 0.98202 0.60709 0.0
C607 C 0.52936 0.98076 0.60729 0.0
C608 C 0.53753 0.97195 0.59067 0.0
H609 H 0.59577 0.95474 0.69836 0.0
H610 H 0.57499 0.95672 0.67094 0.0
C611 C 0.52605 0.9641 0.57439 0.0
C612 C 0.54109 0.98604 0.62547 0.0
H613 H 0.58563 0.00544 0.64387 0.0
C614 C 0.53441 0.97834 0.64143 0.0
C615 C 0.55936 0.99697 0.62682 0.0
C616 C 0.56666 0.00748 0.61109 0.0
C617 C 0.54592 0.9801 0.65812 0.0
C618 C 0.56497 0.98908 0.65863 0.0
C619 C 0.57121 0.99805 0.64327 0.0
C620 C 0.57885 0.98814 0.67446 0.0
C621 C 0.53754 0.97206 0.67495 0.0
C622 C 0.58891 0.00508 0.68485 0.0
C623 C 0.60124 0.00394 0.70035 0.0
C624 C 0.60354 0.98585 0.70571 0.0
C625 C 0.59404 0.96891 0.69478 0.0
C626 C 0.58203 0.97003 0.67918 0.0
H627 H 0.52174 0.97246 0.675 0.0
H628 H 0.54034 0.95664 0.67392 0.0
H629 H 0.54394 0.98031 0.6887 0.0
H630 H 0.58686 0.01919 0.6813 0.0
H631 H 0.60842 0.01724 0.70851 0.0
H632 H 0.86284 0.19865 0.72243 0.0
H633 H 0.89174 0.19696 0.74185 0.0
H634 H 0.86134 0.21387 0.79302 0.0
H635 H 0.83223 0.21475 0.77361 0.0
H636 H 0.91188 0.22496 0.76343 0.0
H637 H 0.88797 0.17148 0.80923 0.0
H638 H 0.87385 0.17478 0.78867 0.0
H639 H 0.87265 0.19061 0.81122 0.0
C640 C 0.86232 0.20177 0.73784 0.0
C641 C 0.84536 0.20684 0.74655 0.0
C642 C 0.87879 0.20074 0.74894 0.0
C643 C 0.8787 0.20497 0.76896 0.0
C644 C 0.86167 0.20991 0.77767 0.0
H645 H 0.97406 0.25758 0.84174 0.0
H646 H 0.94454 0.24815 0.82227 0.0
C647 C 0.84509 0.2106 0.76657 0.0
C648 C 0.89686 0.2061 0.78056 0.0
H649 H 0.91639 0.19327 0.82064 0.0
C650 C 0.91288 0.21776 0.77575 0.0
C651 C 0.89841 0.19647 0.7965 0.0
C652 C 0.88235 0.18246 0.80157 0.0
C653 C 0.93005 0.22073 0.78683 0.0
C654 C 0.93109 0.21238 0.80361 0.0
C655 C 0.91545 0.19996 0.80797 0.0
C656 C 0.94793 0.21743 0.8172 0.0
C657 C 0.9469 0.23293 0.78046 0.0
C658 C 0.95908 0.20314 0.8218 0.0
C659 C 0.97594 0.2085 0.83331 0.0
C660 C 0.98186 0.22822 0.8402 0.0
C661 C 0.97008 0.2423 0.83635 0.0
C662 C 0.95323 0.23694 0.82515 0.0
H663 H 0.94602 0.23271 0.76479 0.0
H664 H 0.94684 0.24824 0.78756 0.0
H665 H 0.96073 0.22778 0.78424 0.0
H666 H 0.9551 0.18796 0.81597 0.0
H667 H 0.98473 0.19735 0.83611 0.0
H668 H 0.5037 0.89537 0.54729 0.0
H669 H 0.51438 0.86592 0.52883 0.0
H670 H 0.49401 0.88255 0.47678 0.0
H671 H 0.48371 0.91211 0.49495 0.0
H672 H 0.48285 0.84226 0.48171 0.0
H673 H 0.56127 0.86555 0.4928 0.0
H674 H 0.54678 0.86702 0.51347 0.0
H675 H 0.5436 0.88269 0.49634 0.0
C676 C 0.50164 0.89283 0.5319 0.0
C677 C 0.49287 0.90612 0.52259 0.0
C678 C 0.50769 0.87598 0.52141 0.0
C679 C 0.50506 0.87218 0.50148 0.0
C680 C 0.4961 0.88524 0.49219 0.0
H681 H 0.54688 0.8101 0.40358 0.0
H682 H 0.54015 0.83241 0.43212 0.0
C683 C 0.49013 0.90207 0.50261 0.0
C684 C 0.51171 0.85473 0.49001 0.0
H685 H 0.55198 0.83625 0.47199 0.0
C686 C 0.49795 0.8407 0.47981 0.0
C687 C 0.53143 0.8529 0.48757 0.0
C688 C 0.54672 0.86784 0.498 0.0
C689 C 0.50338 0.82525 0.46659 0.0
C690 C 0.5231 0.82376 0.46367 0.0
C691 C 0.53689 0.83738 0.47443 0.0
C692 C 0.52948 0.80982 0.44773 0.0
C693 C 0.48798 0.81128 0.45505 0.0
C694 C 0.52629 0.78967 0.44731 0.0
C695 C 0.53016 0.77678 0.43095 0.0
C696 C 0.53718 0.78392 0.41477 0.0
C697 C 0.54132 0.80411 0.41572 0.0
C698 C 0.53755 0.8169 0.43205 0.0
H699 H 0.47343 0.81603 0.45727 0.0
H700 H 0.49082 0.80975 0.4396 0.0
H701 H 0.48806 0.79674 0.45927 0.0
H702 H 0.52026 0.78394 0.45939 0.0
H703 H 0.52687 0.76132 0.43068 0.0
H704 H 0.23994 0.23618 0.7904 0.0
H705 H 0.20941 0.22258 0.80163 0.0
H706 H 0.17881 0.25729 0.76884 0.0
H707 H 0.20924 0.27052 0.75742 0.0
H708 H 0.18594 0.24428 0.82316 0.0
H709 H 0.14517 0.20624 0.75807 0.0
H710 H 0.17078 0.21282 0.75852 0.0
H711 H 0.15441 0.23039 0.75542 0.0
C712 C 0.22659 0.24037 0.7852 0.0
C713 C 0.2267 0.25414 0.77295 0.0
C714 C 0.20921 0.23268 0.79163 0.0
C715 C 0.19178 0.23867 0.78586 0.0
C716 C 0.19198 0.25201 0.77308 0.0
H717 H 0.08185 0.25723 0.82042 0.0
H718 H 0.11221 0.2525 0.80537 0.0
C719 C 0.20934 0.25965 0.76663 0.0
C720 C 0.17369 0.23307 0.79495 0.0
H721 H 0.12621 0.2177 0.78498 0.0
C722 C 0.17296 0.23799 0.81488 0.0
C723 C 0.15679 0.22482 0.78414 0.0
C724 C 0.15686 0.21808 0.76287 0.0
C725 C 0.15555 0.23624 0.82411 0.0
C726 C 0.13847 0.22917 0.81312 0.0
C727 C 0.13935 0.22317 0.79335 0.0
C728 C 0.1194 0.23041 0.82148 0.0
C729 C 0.15533 0.24318 0.84535 0.0
C730 C 0.1132 0.21928 0.83535 0.0
C731 C 0.09572 0.22197 0.84408 0.0
C732 C 0.08426 0.23587 0.83907 0.0
C733 C 0.09035 0.24652 0.82476 0.0
C734 C 0.10768 0.24377 0.81604 0.0
H735 H 0.16948 0.25046 0.85138 0.0
H736 H 0.14436 0.25348 0.84861 0.0
H737 H 0.15147 0.23058 0.85265 0.0
H738 H 0.122 0.20876 0.83959 0.0
H739 H 0.09139 0.21348 0.85498 0.0
H740 H 0.55116 0.54688 0.47656 0.0
H741 H 0.55478 0.56774 0.45194 0.0
H742 H 0.55842 0.6186 0.49577 0.0
H743 H 0.55526 0.59777 0.52024 0.0
H744 H 0.52968 0.59236 0.44481 0.0
H745 H 0.60067 0.6344 0.46242 0.0
H746 H 0.59341 0.61267 0.47211 0.0
H747 H 0.58592 0.63569 0.48277 0.0
C748 C 0.55338 0.56252 0.48086 0.0
C749 C 0.55328 0.57084 0.50017 0.0
C750 C 0.55533 0.57441 0.46683 0.0
C751 C 0.55716 0.59477 0.47198 0.0
C752 C 0.55759 0.60299 0.49142 0.0
H753 H 0.54142 0.69479 0.42061 0.0
H754 H 0.54575 0.67077 0.44128 0.0
C755 C 0.55573 0.5911 0.5054 0.0
C756 C 0.55654 0.6074 0.45712 0.0
H757 H 0.57877 0.6481 0.44306 0.0
C758 C 0.54059 0.60434 0.44422 0.0
C759 C 0.57073 0.6231 0.45637 0.0
C760 C 0.58873 0.62655 0.46904 0.0
C761 C 0.53807 0.61698 0.43114 0.0
C762 C 0.55192 0.63302 0.43086 0.0
C763 C 0.56811 0.63584 0.4434 0.0
C764 C 0.54948 0.64745 0.41813 0.0
C765 C 0.52023 0.61354 0.41822 0.0
C766 C 0.55024 0.64231 0.39825 0.0
C767 C 0.54781 0.65602 0.38636 0.0
C768 C 0.54453 0.67513 0.39416 0.0
C769 C 0.54382 0.6802 0.41411 0.0
C770 C 0.54637 0.66652 0.42596 0.0
H771 H 0.50939 0.60252 0.42246 0.0
H772 H 0.51363 0.62729 0.41829 0.0
H773 H 0.52415 0.60829 0.40337 0.0
H774 H 0.55283 0.62771 0.39194 0.0
H775 H 0.54851 0.65164 0.37108 0.0
H776 H 0.83976 0.76765 0.79104 0.0
H777 H 0.86339 0.7625 0.76657 0.0
H778 H 0.87748 0.82449 0.77179 0.0
H779 H 0.85482 0.82975 0.79718 0.0
H780 H 0.86537 0.77241 0.7327 0.0
H781 H 0.93009 0.80767 0.7755 0.0
H782 H 0.90747 0.80237 0.78614 0.0
H783 H 0.91192 0.82391 0.77548 0.0
C784 C 0.84812 0.78021 0.78727 0.0
C785 C 0.84548 0.79912 0.79631 0.0
C786 C 0.86154 0.77723 0.77314 0.0
C787 C 0.87256 0.79308 0.76762 0.0
C788 C 0.86958 0.81199 0.77618 0.0
H789 H 0.92648 0.79462 0.66073 0.0
H790 H 0.90582 0.79665 0.68787 0.0
C791 C 0.85632 0.81499 0.79049 0.0
C792 C 0.88662 0.78983 0.75239 0.0
H793 H 0.93306 0.80176 0.74152 0.0
C794 C 0.88022 0.77868 0.73471 0.0
C795 C 0.90612 0.79762 0.75509 0.0
C796 C 0.91436 0.80837 0.77415 0.0
C797 C 0.89255 0.77571 0.71949 0.0
C798 C 0.91169 0.78465 0.72179 0.0
C799 C 0.91832 0.79517 0.73967 0.0
C800 C 0.92475 0.78387 0.7056 0.0
C801 C 0.88495 0.76288 0.70115 0.0
C802 C 0.94274 0.77683 0.70681 0.0
C803 C 0.95483 0.77595 0.69133 0.0
C804 C 0.94908 0.78207 0.67439 0.0
C805 C 0.93125 0.78952 0.67345 0.0
C806 C 0.91933 0.79058 0.68893 0.0
H807 H 0.87286 0.75223 0.70375 0.0
H808 H 0.87946 0.77202 0.69132 0.0
H809 H 0.89632 0.75479 0.69399 0.0
H810 H 0.9473 0.77176 0.71963 0.0
H811 H 0.96849 0.77018 0.69251 0.0
H812 H 0.09152 0.91262 0.50566 0.0
H813 H 0.08859 0.89818 0.53496 0.0
H814 H 0.02781 0.90369 0.53393 0.0
H815 H 0.03087 0.91841 0.50505 0.0
H816 H 0.04463 0.91249 0.57064 0.0
H817 H 0.06481 0.84219 0.53175 0.0
H818 H 0.08206 0.86309 0.53253 0.0
H819 H 0.05956 0.86173 0.51951 0.0
C820 C 0.07767 0.91102 0.512 0.0
C821 C 0.06138 0.9165 0.50332 0.0
C822 C 0.07597 0.90269 0.52859 0.0
C823 C 0.05792 0.89958 0.53644 0.0
C824 C 0.04186 0.90595 0.52813 0.0
H825 H 0.98668 0.83548 0.59934 0.0
H826 H 0.00421 0.86011 0.58399 0.0
C827 C 0.04359 0.91432 0.51166 0.0
C828 C 0.05513 0.88847 0.55239 0.0
H829 H 0.05337 0.84235 0.56237 0.0
C830 C 0.04687 0.89724 0.56899 0.0
C831 C 0.05814 0.86858 0.55027 0.0
C832 C 0.06651 0.85822 0.53254 0.0
C833 C 0.04061 0.8864 0.58305 0.0
C834 C 0.0425 0.86628 0.58031 0.0
C835 C 0.05196 0.8578 0.5644 0.0
C836 C 0.03234 0.85323 0.5921 0.0
C837 C 0.03142 0.89642 0.60039 0.0
C838 C 0.04235 0.84117 0.60179 0.0
C839 C 0.03232 0.82701 0.61066 0.0
C840 C 0.01213 0.82449 0.60961 0.0
C841 C 0.00222 0.83701 0.60038 0.0
C842 C 0.01223 0.85123 0.59173 0.0
H843 H 0.03659 0.91216 0.60354 0.0
H844 H 0.01565 0.89505 0.59766 0.0
H845 H 0.03439 0.88975 0.61315 0.0
H846 H 0.05789 0.84236 0.60204 0.0
H847 H 0.04036 0.81753 0.61759 0.0
H848 H 0.16337 0.69569 0.74774 0.0
H849 H 0.13305 0.70575 0.73668 0.0
H850 H 0.16294 0.76013 0.72755 0.0
H851 H 0.1933 0.74993 0.73842 0.0
H852 H 0.11292 0.73903 0.74845 0.0
H853 H 0.13858 0.73531 0.67463 0.0
H854 H 0.15056 0.72494 0.69266 0.0
H855 H 0.15381 0.75071 0.69285 0.0
C856 C 0.16331 0.70991 0.74366 0.0
C857 C 0.18044 0.72211 0.74386 0.0
C858 C 0.14607 0.71563 0.73735 0.0
C859 C 0.14583 0.73356 0.73104 0.0
C860 C 0.16289 0.74613 0.73209 0.0
H861 H 0.05741 0.7813 0.67068 0.0
H862 H 0.08659 0.7767 0.68815 0.0
C863 C 0.18014 0.74038 0.73839 0.0
C864 C 0.12796 0.73854 0.72235 0.0
H865 H 0.10808 0.74595 0.68018 0.0
C866 C 0.11183 0.74061 0.73355 0.0
C867 C 0.12661 0.74049 0.70288 0.0
C868 C 0.14323 0.7376 0.68996 0.0
C869 C 0.0944 0.74478 0.7258 0.0
C870 C 0.09301 0.74656 0.70628 0.0
C871 C 0.1092 0.74465 0.69516 0.0
C872 C 0.07483 0.74994 0.69687 0.0
C873 C 0.07771 0.74748 0.73865 0.0
C874 C 0.05852 0.73638 0.69593 0.0
C875 C 0.04179 0.73898 0.68597 0.0
C876 C 0.04111 0.7551 0.67662 0.0
C877 C 0.05743 0.76873 0.67772 0.0
C878 C 0.07413 0.76613 0.68771 0.0
H879 H 0.08255 0.75115 0.75393 0.0
H880 H 0.06939 0.75914 0.73505 0.0
H881 H 0.06799 0.73375 0.73675 0.0
H882 H 0.05888 0.72354 0.70251 0.0
H883 H 0.02952 0.72816 0.68533 0.0
H884 H 0.98494 0.59673 0.46845 0.0
H885 H 0.9968 0.62682 0.48964 0.0
H886 H 0.97573 0.60229 0.53801 0.0
H887 H 0.96556 0.57172 0.51729 0.0
H888 H 0.97682 0.65053 0.50808 0.0
H889 H 0.02399 0.62929 0.5621 0.0
H890 H 0.01615 0.61287 0.54041 0.0
H891 H 0.0015 0.61455 0.56107 0.0
C892 C 0.98346 0.59747 0.48368 0.0
C893 C 0.97404 0.58179 0.49107 0.0
C894 C 0.99012 0.61479 0.49579 0.0
C895 C 0.98737 0.61689 0.51553 0.0
C896 C 0.97856 0.60102 0.52297 0.0
H897 H 0.95686 0.71835 0.58555 0.0
H898 H 0.95983 0.68846 0.56339 0.0
C899 C 0.9723 0.5836 0.51096 0.0
C900 C 0.99138 0.63621 0.52798 0.0
H901 H 0.00746 0.65808 0.57286 0.0
C902 C 0.98391 0.65221 0.52207 0.0
C903 C 0.00101 0.63875 0.54612 0.0
C904 C 0.0113 0.62296 0.55264 0.0
C905 C 0.9847 0.67021 0.53418 0.0
C906 C 0.99238 0.67207 0.55308 0.0
C907 C 0.00105 0.65653 0.55857 0.0
C908 C 0.99067 0.68966 0.56752 0.0
C909 C 0.97717 0.68698 0.52653 0.0
C910 C 0.00683 0.69968 0.57818 0.0
C911 C 0.00506 0.71656 0.59133 0.0
C912 C 0.98713 0.72376 0.59388 0.0
C913 C 0.97091 0.71334 0.58366 0.0
C914 C 0.97263 0.69633 0.57085 0.0
H915 H 0.97874 0.68552 0.51085 0.0
H916 H 0.96165 0.687 0.52921 0.0
H917 H 0.98477 0.70115 0.53342 0.0
H918 H 0.02086 0.69468 0.57604 0.0
H919 H 0.0178 0.72429 0.59904 0.0
H920 H 0.81487 0.82398 0.26083 0.0
H921 H 0.83174 0.8566 0.2635 0.0
H922 H 0.80349 0.86402 0.21102 0.0
H923 H 0.78601 0.83159 0.20856 0.0
H924 H 0.85646 0.87266 0.23844 0.0
H925 H 0.79101 0.91124 0.24926 0.0
H926 H 0.79108 0.88588 0.25106 0.0
H927 H 0.79061 0.89328 0.22804 0.0
C928 C 0.8121 0.8326 0.24993 0.0
C929 C 0.79894 0.82527 0.23459 0.0
C930 C 0.82188 0.85117 0.25139 0.0
C931 C 0.81868 0.8628 0.23759 0.0
C932 C 0.80595 0.85538 0.22198 0.0
H933 H 0.89078 0.97396 0.24021 0.0
H934 H 0.87362 0.94182 0.22842 0.0
C935 C 0.79612 0.83678 0.2205 0.0
C936 C 0.82849 0.88281 0.23991 0.0
H937 H 0.82047 0.93058 0.24924 0.0
C938 C 0.84863 0.88535 0.24062 0.0
C939 C 0.81817 0.89929 0.24288 0.0
C940 C 0.79653 0.89741 0.24294 0.0
C941 C 0.85876 0.90396 0.24468 0.0
C942 C 0.84844 0.92043 0.24785 0.0
C943 C 0.82831 0.9179 0.24666 0.0
C944 C 0.85819 0.94026 0.25423 0.0
C945 C 0.88039 0.90581 0.24642 0.0
C946 C 0.85478 0.95021 0.27241 0.0
C947 C 0.86443 0.96852 0.27912 0.0
C948 C 0.87769 0.97734 0.26778 0.0
C949 C 0.88075 0.96754 0.24935 0.0
C950 C 0.87103 0.94915 0.24262 0.0
H951 H 0.88594 0.89163 0.24707 0.0
H952 H 0.88638 0.91141 0.23383 0.0
H953 H 0.88574 0.91624 0.2594 0.0
H954 H 0.8449 0.94361 0.28157 0.0
H955 H 0.86165 0.97565 0.29336 0.0
H956 H 0.7741 0.18406 0.3105 0.0
H957 H 0.79977 0.1628 0.30889 0.0
H958 H 0.8112 0.17292 0.2518 0.0
H959 H 0.78589 0.19472 0.25349 0.0
H960 H 0.80029 0.12885 0.28188 0.0
H961 H 0.86512 0.18067 0.27825 0.0
H962 H 0.84251 0.18857 0.2863 0.0
H963 H 0.8458 0.18117 0.2613 0.0
C964 C 0.78233 0.18211 0.29775 0.0
C965 C 0.77795 0.19112 0.28213 0.0
C966 C 0.79692 0.16986 0.29681 0.0
C967 C 0.80751 0.16643 0.2803 0.0
C968 C 0.80342 0.17561 0.26479 0.0
H969 H 0.8897 0.07929 0.25494 0.0
H970 H 0.86973 0.10552 0.25147 0.0
C971 C 0.78879 0.18788 0.2657 0.0
C972 C 0.82187 0.15219 0.279 0.0
H973 H 0.86981 0.14741 0.27575 0.0
C974 C 0.81547 0.1329 0.28045 0.0
C975 C 0.84165 0.15749 0.27697 0.0
C976 C 0.8493 0.17812 0.27575 0.0
C977 C 0.82833 0.11884 0.28029 0.0
C978 C 0.84815 0.12425 0.27885 0.0
C979 C 0.85457 0.14337 0.27681 0.0
C980 C 0.86231 0.11044 0.28111 0.0
C981 C 0.82069 0.09831 0.28197 0.0
C982 C 0.86519 0.10509 0.29901 0.0
C983 C 0.87644 0.09023 0.30103 0.0
C984 C 0.88513 0.08039 0.28517 0.0
C985 C 0.88318 0.08656 0.26741 0.0
C986 C 0.87179 0.10151 0.2654 0.0
H987 H 0.80497 0.09551 0.27873 0.0
H988 H 0.82803 0.08764 0.27217 0.0
H989 H 0.8235 0.09586 0.29677 0.0
H990 H 0.85811 0.11197 0.31133 0.0
H991 H 0.87781 0.08603 0.31497 0.0
H992 H 0.41214 0.05058 0.99554 0.0
H993 H 0.38456 0.03068 0.00533 0.0
H994 H 0.40164 0.98014 0.9693 0.0
H995 H 0.42934 0.99977 0.95967 0.0
H996 H 0.36149 0.98569 0.96594 0.0
H997 H 0.38799 0.98954 0.04114 0.0
H998 H 0.38719 0.01217 0.03249 0.0
H999 H 0.40363 0.99555 0.02266 0.0
C1000 C 0.41013 0.03519 0.98984 0.0
C1001 C 0.423 0.02675 0.97686 0.0
C1002 C 0.39433 0.02388 0.99541 0.0
C1003 C 0.39116 0.00394 0.98813 0.0
C1004 C 0.40382 0.99553 0.97503 0.0
H1005 H 0.33592 0.90169 0.01611 0.0
H1006 H 0.35634 0.93065 0.01163 0.0
C1007 C 0.41961 0.00679 0.9695 0.0
C1008 C 0.37482 0.9916 0.99417 0.0
H1009 H 0.35901 0.97012 0.03152 0.0
C1010 C 0.36074 0.98248 0.98034 0.0
C1011 C 0.37399 0.98745 0.01296 0.0
C1012 C 0.38903 0.99655 0.02821 0.0
C1013 C 0.3462 0.96876 0.98463 0.0
C1014 C 0.3457 0.96418 0.00328 0.0
C1015 C 0.35937 0.97382 0.01729 0.0
C1016 C 0.33285 0.94756 0.00774 0.0
C1017 C 0.33213 0.95845 0.96895 0.0
C1018 C 0.31281 0.94763 0.00747 0.0
C1019 C 0.30098 0.93098 0.01008 0.0
C1020 C 0.30908 0.91405 0.01287 0.0
C1021 C 0.32918 0.9144 0.01383 0.0
C1022 C 0.34091 0.93098 0.01134 0.0
H1023 H 0.33602 0.96192 0.95473 0.0
H1024 H 0.33139 0.94247 0.96832 0.0
H1025 H 0.31761 0.96287 0.97199 0.0
H1026 H 0.30634 0.9604 0.0049 0.0
H1027 H 0.28556 0.93119 0.00932 0.0
H1028 H 0.30872 0.38094 0.31104 0.0
H1029 H 0.29431 0.40427 0.29416 0.0
H1030 H 0.24509 0.36222 0.27732 0.0
H1031 H 0.25964 0.33889 0.29385 0.0
H1032 H 0.25633 0.38412 0.24859 0.0
H1033 H 0.24968 0.43105 0.31892 0.0
H1034 H 0.27348 0.42575 0.31263 0.0
H1035 H 0.25605 0.40655 0.31701 0.0
C1036 C 0.29504 0.37663 0.30331 0.0
C1037 C 0.28518 0.35828 0.30361 0.0
C1038 C 0.28678 0.38995 0.29381 0.0
C1039 C 0.26849 0.38508 0.28476 0.0
C1040 C 0.2592 0.36628 0.28421 0.0
H1041 H 0.16903 0.42513 0.247 0.0
H1042 H 0.19694 0.40824 0.25177 0.0
C1043 C 0.26748 0.35298 0.29363 0.0
C1044 C 0.25807 0.39986 0.27737 0.0
H1045 H 0.23489 0.43984 0.29229 0.0
C1046 C 0.25189 0.3965 0.25806 0.0
C1047 C 0.25235 0.41605 0.28975 0.0
C1048 C 0.25807 0.42009 0.31076 0.0
C1049 C 0.2395 0.40843 0.25099 0.0
C1050 C 0.23291 0.42392 0.26362 0.0
C1051 C 0.24 0.42798 0.28264 0.0
C1052 C 0.21679 0.43437 0.25825 0.0
C1053 C 0.23318 0.40405 0.23016 0.0
C1054 C 0.2186 0.45475 0.26042 0.0
C1055 C 0.20253 0.46454 0.25777 0.0
C1056 C 0.18436 0.45408 0.25322 0.0
C1057 C 0.18278 0.43366 0.25055 0.0
C1058 C 0.1988 0.42393 0.25307 0.0
H1059 H 0.24413 0.39677 0.22139 0.0
H1060 H 0.21972 0.39403 0.22838 0.0
H1061 H 0.23044 0.41748 0.22463 0.0
H1062 H 0.23234 0.46308 0.26463 0.0
H1063 H 0.20421 0.48028 0.25997 0.0
H1064 H 0.09343 0.0143 0.46943 0.0
H1065 H 0.12286 0.03545 0.47911 0.0
H1066 H 0.14953 0.98699 0.49432 0.0
H1067 H 0.12067 0.96529 0.48291 0.0
H1068 H 0.14592 0.04764 0.50886 0.0
H1069 H 0.1847 0.00135 0.45477 0.0
H1070 H 0.15914 0.99736 0.45689 0.0
H1071 H 0.17516 0.98904 0.47324 0.0
C1072 C 0.10557 0.00805 0.4747 0.0
C1073 C 0.10487 0.98791 0.47466 0.0
C1074 C 0.12235 0.02026 0.48051 0.0
C1075 C 0.13868 0.0127 0.4868 0.0
C1076 C 0.13735 0.99302 0.48882 0.0
H1077 H 0.24383 0.0944 0.51662 0.0
H1078 H 0.21456 0.07311 0.51989 0.0
C1079 C 0.12069 0.98066 0.48256 0.0
C1080 C 0.15733 0.02513 0.4894 0.0
H1081 H 0.20229 0.02904 0.47206 0.0
C1082 C 0.1583 0.04356 0.5009 0.0
C1083 C 0.17343 0.01987 0.47881 0.0
C1084 C 0.17307 0.00093 0.4651 0.0
C1085 C 0.17461 0.05712 0.50155 0.0
C1086 C 0.19065 0.05182 0.49094 0.0
C1087 C 0.18997 0.0331 0.48015 0.0
C1088 C 0.2078 0.06572 0.48949 0.0
C1089 C 0.17404 0.07726 0.51278 0.0
C1090 C 0.21394 0.06847 0.47136 0.0
C1091 C 0.23086 0.08013 0.46947 0.0
C1092 C 0.24187 0.0896 0.48569 0.0
C1093 C 0.23547 0.08743 0.50389 0.0
C1094 C 0.21869 0.07535 0.50577 0.0
H1095 H 0.15911 0.08051 0.51572 0.0
H1096 H 0.18192 0.07837 0.52671 0.0
H1097 H 0.18094 0.08849 0.50506 0.0
H1098 H 0.20576 0.06128 0.45858 0.0
H1099 H 0.23542 0.08162 0.45527 0.0
H1100 H 0.7756 0.19697 0.75915 0.0
H1101 H 0.74929 0.17254 0.76354 0.0
H1102 H 0.74609 0.15111 0.70297 0.0
H1103 H 0.77215 0.17581 0.69847 0.0
H1104 H 0.71028 0.15061 0.71861 0.0
H1105 H 0.76075 0.11652 0.76084 0.0
H1106 H 0.75847 0.14144 0.77046 0.0
H1107 H 0.76867 0.13543 0.74752 0.0
C1108 C 0.76904 0.18725 0.74675 0.0
C1109 C 0.776 0.18813 0.7285 0.0
C1110 C 0.7541 0.17325 0.74928 0.0
C1111 C 0.74609 0.15969 0.73365 0.0
C1112 C 0.75216 0.16136 0.71524 0.0
H1113 H 0.69199 0.04457 0.73882 0.0
H1114 H 0.71275 0.0731 0.73341 0.0
C1115 C 0.76699 0.17551 0.71267 0.0
C1116 C 0.73242 0.14298 0.73663 0.0
H1117 H 0.72824 0.10334 0.75901 0.0
C1118 C 0.71416 0.14026 0.72745 0.0
C1119 C 0.73768 0.1293 0.74787 0.0
C1120 C 0.75751 0.13065 0.75709 0.0
C1121 C 0.70093 0.12431 0.72938 0.0
C1122 C 0.706 0.11097 0.74111 0.0
C1123 C 0.72431 0.11366 0.75017 0.0
C1124 C 0.69287 0.09373 0.74378 0.0
C1125 C 0.68188 0.12162 0.71843 0.0
C1126 C 0.67481 0.09582 0.75153 0.0
C1127 C 0.66282 0.07948 0.75453 0.0
C1128 C 0.6688 0.06077 0.75008 0.0
C1129 C 0.68695 0.05876 0.74245 0.0
C1130 C 0.69884 0.07506 0.73933 0.0
H1131 H 0.68232 0.1298 0.70629 0.0
H1132 H 0.6775 0.10603 0.71282 0.0
H1133 H 0.67074 0.12713 0.72811 0.0
H1134 H 0.67008 0.1101 0.75553 0.0
H1135 H 0.64898 0.08154 0.76054 0.0
H1136 H 0.45811 0.00892 0.54953 0.0
H1137 H 0.44303 0.03943 0.55195 0.0
H1138 H 0.38782 0.00632 0.53745 0.0
H1139 H 0.40278 0.97615 0.53556 0.0
H1140 H 0.42596 0.05158 0.5236 0.0
H1141 H 0.37286 0.04708 0.57879 0.0
H1142 H 0.39217 0.03175 0.57617 0.0
H1143 H 0.37003 0.02481 0.56211 0.0
C1144 C 0.44269 0.00834 0.54742 0.0
C1145 C 0.43146 0.99042 0.54254 0.0
C1146 C 0.4341 0.02568 0.54877 0.0
C1147 C 0.41421 0.02521 0.54527 0.0
C1148 C 0.40305 0.00714 0.54087 0.0
H1149 H 0.34724 0.08003 0.47984 0.0
H1150 H 0.37192 0.06505 0.49493 0.0
C1151 C 0.4116 0.98989 0.53961 0.0
C1152 C 0.40529 0.0432 0.54356 0.0
H1153 H 0.36381 0.06397 0.55264 0.0
C1154 C 0.41265 0.05463 0.53038 0.0
C1155 C 0.3882 0.04764 0.55273 0.0
C1156 C 0.38053 0.03727 0.5684 0.0
C1157 C 0.40236 0.06901 0.52471 0.0
C1158 C 0.38404 0.07165 0.53203 0.0
C1159 C 0.37765 0.06166 0.54666 0.0
C1160 C 0.3703 0.08241 0.52289 0.0
C1161 C 0.41088 0.08068 0.51033 0.0
C1162 C 0.36083 0.09696 0.53365 0.0
C1163 C 0.34642 0.10549 0.52505 0.0
C1164 C 0.34115 0.09944 0.50558 0.0
C1165 C 0.35094 0.08512 0.49484 0.0
C1166 C 0.36525 0.07664 0.50341 0.0
H1167 H 0.4268 0.08271 0.51197 0.0
H1168 H 0.40704 0.07269 0.49571 0.0
H1169 H 0.40549 0.09518 0.51178 0.0
H1170 H 0.36435 0.10147 0.54876 0.0
H1171 H 0.33911 0.11643 0.53373 0.0
H1172 H 0.57985 0.49825 0.52241 0.0
H1173 H 0.60634 0.47786 0.51812 0.0
H1174 H 0.63085 0.50505 0.57341 0.0
H1175 H 0.60442 0.5254 0.57783 0.0
H1176 H 0.64589 0.48648 0.51818 0.0
H1177 H 0.6257 0.44766 0.57795 0.0
H1178 H 0.61 0.46281 0.56824 0.0
H1179 H 0.6294 0.47359 0.58484 0.0
C1180 C 0.59102 0.50006 0.53355 0.0
C1181 C 0.58993 0.51333 0.55055 0.0
C1182 C 0.60609 0.48832 0.53112 0.0
C1183 C 0.62034 0.4896 0.54563 0.0
C1184 C 0.61973 0.50342 0.56225 0.0
H1185 H 0.72245 0.43416 0.56279 0.0
H1186 H 0.69579 0.45422 0.56474 0.0
C1187 C 0.60465 0.51508 0.56472 0.0
C1188 C 0.63572 0.47636 0.54352 0.0
H1189 H 0.65579 0.4422 0.56446 0.0
C1190 C 0.64798 0.47669 0.52821 0.0
C1191 C 0.63839 0.46353 0.55659 0.0
C1192 C 0.62507 0.46169 0.57272 0.0
C1193 C 0.66318 0.46497 0.52594 0.0
C1194 C 0.66601 0.45239 0.53919 0.0
C1195 C 0.65362 0.4519 0.55436 0.0
C1196 C 0.68202 0.43994 0.53785 0.0
C1197 C 0.67641 0.46651 0.5097 0.0
C1198 C 0.68297 0.42501 0.52222 0.0
C1199 C 0.69819 0.41342 0.52108 0.0
C1200 C 0.71274 0.41656 0.53558 0.0
C1201 C 0.71155 0.43135 0.55134 0.0
C1202 C 0.69631 0.44286 0.55249 0.0
H1203 H 0.67487 0.47976 0.50334 0.0
H1204 H 0.69161 0.46674 0.51459 0.0
H1205 H 0.67295 0.45365 0.49834 0.0
H1206 H 0.67191 0.42228 0.51092 0.0
H1207 H 0.69864 0.40214 0.50876 0.0
H1208 H 0.7311 0.26356 0.304 0.0
H1209 H 0.72834 0.28646 0.33357 0.0
H1210 H 0.74388 0.2435 0.36649 0.0
H1211 H 0.74599 0.22036 0.33713 0.0
H1212 H 0.71432 0.26449 0.38223 0.0
H1213 H 0.77665 0.31317 0.36446 0.0
H1214 H 0.75687 0.30808 0.34722 0.0
H1215 H 0.77063 0.28886 0.35153 0.0
C1216 C 0.7336 0.25888 0.31754 0.0
C1217 C 0.73902 0.24022 0.3182 0.0
C1218 C 0.73217 0.27204 0.33442 0.0
C1219 C 0.73623 0.26678 0.35221 0.0
C1220 C 0.74079 0.2479 0.35292 0.0
H1221 H 0.78268 0.32434 0.45863 0.0
H1222 H 0.77365 0.30609 0.42704 0.0
C1223 C 0.74218 0.23475 0.33611 0.0
C1224 C 0.73691 0.28113 0.37011 0.0
H1225 H 0.76332 0.32173 0.39421 0.0
C1226 C 0.72483 0.27718 0.3848 0.0
C1227 C 0.75076 0.29758 0.37343 0.0
C1228 C 0.76459 0.30219 0.35843 0.0
C1229 C 0.72666 0.28889 0.40294 0.0
C1230 C 0.74083 0.30504 0.40636 0.0
C1231 C 0.7524 0.30939 0.39146 0.0
C1232 C 0.74557 0.31614 0.42579 0.0
C1233 C 0.71417 0.28336 0.4186 0.0
C1234 C 0.73271 0.32789 0.43564 0.0
C1235 C 0.73783 0.33846 0.4539 0.0
C1236 C 0.75592 0.33742 0.4625 0.0
C1237 C 0.76864 0.32554 0.45251 0.0
C1238 C 0.76353 0.31508 0.43439 0.0
H1239 H 0.70567 0.26899 0.41429 0.0
H1240 H 0.72309 0.28295 0.43163 0.0
H1241 H 0.70407 0.29446 0.42235 0.0
H1242 H 0.71884 0.32907 0.42914 0.0
H1243 H 0.72773 0.34751 0.46117 0.0
H1244 H 0.51979 0.05774 0.93476 0.0
H1245 H 0.54946 0.05781 0.91684 0.0
H1246 H 0.51554 0.04305 0.86397 0.0
H1247 H 0.48619 0.0435 0.8818 0.0
H1248 H 0.56164 0.02774 0.89503 0.0
H1249 H 0.55433 0.08353 0.84999 0.0
H1250 H 0.53977 0.08174 0.87038 0.0
H1251 H 0.5328 0.06709 0.84748 0.0
C1252 C 0.51883 0.05503 0.9193 0.0
C1253 C 0.50092 0.05081 0.90952 0.0
C1254 C 0.5357 0.05503 0.90908 0.0
C1255 C 0.53477 0.05084 0.88901 0.0
C1256 C 0.51671 0.04698 0.87937 0.0
H1257 H 0.59396 0.98259 0.80931 0.0
H1258 H 0.57736 0.99781 0.83644 0.0
C1259 C 0.49993 0.04707 0.88955 0.0
C1260 C 0.55235 0.04815 0.87803 0.0
H1261 H 0.57232 0.05665 0.83646 0.0
C1262 C 0.56427 0.03445 0.88249 0.0
C1263 C 0.5562 0.05721 0.86192 0.0
C1264 C 0.54519 0.07338 0.85733 0.0
C1265 C 0.57875 0.02829 0.87035 0.0
C1266 C 0.58103 0.03566 0.85306 0.0
C1267 C 0.57033 0.05066 0.8495 0.0
C1268 C 0.59259 0.02644 0.83754 0.0
C1269 C 0.59106 0.01351 0.87592 0.0
C1270 C 0.60646 0.03752 0.82876 0.0
C1271 C 0.6159 0.02884 0.81294 0.0
C1272 C 0.6115 0.00895 0.80556 0.0
C1273 C 0.59782 0.9979 0.81462 0.0
C1274 C 0.5884 0.00657 0.83032 0.0
H1275 H 0.59289 0.01515 0.8917 0.0
H1276 H 0.5839 0.99869 0.87066 0.0
H1277 H 0.60545 0.01485 0.86977 0.0
H1278 H 0.60977 0.05293 0.83397 0.0
H1279 H 0.62632 0.03778 0.80625 0.0
H1280 H 0.32382 0.2543 0.33348 0.0
H1281 H 0.32103 0.23171 0.35635 0.0
H1282 H 0.31365 0.2791 0.40162 0.0
H1283 H 0.31665 0.30185 0.37891 0.0
H1284 H 0.34357 0.23236 0.39051 0.0
H1285 H 0.26665 0.23921 0.40475 0.0
H1286 H 0.278 0.24722 0.38444 0.0
H1287 H 0.28216 0.26162 0.40778 0.0
C1288 C 0.32181 0.25996 0.34834 0.0
C1289 C 0.32038 0.27987 0.35435 0.0
C1290 C 0.32012 0.24702 0.36136 0.0
C1291 C 0.31685 0.25371 0.3806 0.0
C1292 C 0.31577 0.2736 0.38675 0.0
H1293 H 0.29774 0.18717 0.47422 0.0
H1294 H 0.30281 0.21401 0.45602 0.0
C1295 C 0.31749 0.28656 0.37375 0.0
C1296 C 0.31469 0.2398 0.39418 0.0
H1297 H 0.28246 0.21917 0.42223 0.0
C1298 C 0.33024 0.22951 0.3975 0.0
C1299 C 0.29731 0.23624 0.40336 0.0
C1300 C 0.27999 0.24651 0.39985 0.0
C1301 C 0.32883 0.2156 0.40964 0.0
C1302 C 0.31128 0.21165 0.41841 0.0
C1303 C 0.29588 0.22228 0.41549 0.0
C1304 C 0.30827 0.19561 0.42958 0.0
C1305 C 0.34613 0.20523 0.41298 0.0
C1306 C 0.30934 0.17642 0.42064 0.0
C1307 C 0.30643 0.16114 0.43092 0.0
C1308 C 0.30229 0.16469 0.45038 0.0
C1309 C 0.30097 0.18394 0.45929 0.0
C1310 C 0.30386 0.19928 0.44892 0.0
H1311 H 0.35965 0.21367 0.40991 0.0
H1312 H 0.34711 0.20254 0.42793 0.0
H1313 H 0.34487 0.19099 0.40333 0.0
H1314 H 0.31232 0.17324 0.40563 0.0
H1315 H 0.30746 0.14651 0.42354 0.0
H1316 H 0.54816 0.44465 0.90787 0.0
H1317 H 0.53058 0.4551 0.88183 0.0
H1318 H 0.54265 0.51484 0.90934 0.0
H1319 H 0.56045 0.5045 0.93518 0.0
H1320 H 0.4989 0.47267 0.88534 0.0
H1321 H 0.55369 0.5199 0.85495 0.0
H1322 H 0.55987 0.5036 0.8708 0.0
H1323 H 0.55258 0.52706 0.88028 0.0
C1324 C 0.54722 0.46002 0.90822 0.0
C1325 C 0.55566 0.47377 0.92354 0.0
C1326 C 0.53728 0.46598 0.89331 0.0
C1327 C 0.53557 0.48579 0.89346 0.0
C1328 C 0.54426 0.49955 0.9086 0.0
H1329 H 0.44143 0.53528 0.85051 0.0
H1330 H 0.4675 0.52526 0.86866 0.0
C1331 C 0.55433 0.49361 0.92342 0.0
C1332 C 0.52297 0.49188 0.87897 0.0
H1333 H 0.52062 0.52425 0.8481 0.0
C1334 C 0.50376 0.48374 0.877 0.0
C1335 C 0.52933 0.50617 0.86791 0.0
C1336 C 0.55005 0.51453 0.86843 0.0
C1337 C 0.49055 0.49008 0.86494 0.0
C1338 C 0.49661 0.50528 0.85489 0.0
C1339 C 0.51598 0.51282 0.8561 0.0
C1340 C 0.48264 0.51393 0.84381 0.0
C1341 C 0.47013 0.48059 0.86325 0.0
C1342 C 0.48312 0.51183 0.82385 0.0
C1343 C 0.46825 0.51771 0.81336 0.0
C1344 C 0.45272 0.5257 0.82276 0.0
C1345 C 0.45304 0.52893 0.84282 0.0
C1346 C 0.4679 0.52318 0.85323 0.0
H1347 H 0.46911 0.46597 0.86749 0.0
H1348 H 0.46115 0.48974 0.87284 0.0
H1349 H 0.46411 0.4791 0.84842 0.0
H1350 H 0.49449 0.50482 0.81636 0.0
H1351 H 0.46841 0.51506 0.79792 0.0
H1352 H 0.80333 0.76714 0.19027 0.0
H1353 H 0.80153 0.74433 0.16028 0.0
H1354 H 0.74216 0.72647 0.16902 0.0
H1355 H 0.74368 0.74981 0.19893 0.0
H1356 H 0.79266 0.70419 0.15513 0.0
H1357 H 0.74124 0.73886 0.11426 0.0
H1358 H 0.75362 0.75135 0.13607 0.0
H1359 H 0.73347 0.7336 0.13696 0.0
C1360 C 0.78978 0.7586 0.1857 0.0
C1361 C 0.77358 0.76045 0.1969 0.0
C1362 C 0.78882 0.74546 0.16862 0.0
C1363 C 0.77166 0.73389 0.16231 0.0
C1364 C 0.75546 0.73551 0.17349 0.0
H1365 H 0.76821 0.6328 0.07167 0.0
H1366 H 0.76436 0.65429 0.10178 0.0
C1367 C 0.7564 0.7487 0.19065 0.0
C1368 C 0.77111 0.71981 0.14428 0.0
H1369 H 0.75139 0.70931 0.09888 0.0
C1370 C 0.78356 0.70523 0.14285 0.0
C1371 C 0.75937 0.72136 0.12825 0.0
C1372 C 0.74626 0.73721 0.1288 0.0
C1373 C 0.78474 0.69224 0.12578 0.0
C1374 C 0.77289 0.69367 0.10979 0.0
C1375 C 0.76034 0.70818 0.11122 0.0
C1376 C 0.77396 0.68072 0.09123 0.0
C1377 C 0.7991 0.67749 0.12482 0.0
C1378 C 0.78005 0.68853 0.07515 0.0
C1379 C 0.78218 0.6763 0.05787 0.0
C1380 C 0.7782 0.65603 0.05637 0.0
C1381 C 0.77157 0.64832 0.07238 0.0
C1382 C 0.76941 0.66057 0.08963 0.0
H1383 H 0.81006 0.68123 0.13677 0.0
H1384 H 0.79148 0.66303 0.12573 0.0
H1385 H 0.80654 0.67631 0.11112 0.0
H1386 H 0.78357 0.70406 0.07609 0.0
H1387 H 0.78723 0.68272 0.0458 0.0
H1388 H 0.03689 0.06402 0.0921 0.0
H1389 H 0.01984 0.06626 0.12189 0.0
H1390 H 0.02643 0.00611 0.12386 0.0
H1391 H 0.04386 0.00394 0.09424 0.0
H1392 H 0.98656 0.04692 0.12845 0.0
H1393 H 0.04296 0.03066 0.17767 0.0
H1394 H 0.04808 0.03614 0.15425 0.0
H1395 H 0.0381 0.01214 0.15703 0.0
C1396 C 0.03483 0.05132 0.09899 0.0
C1397 C 0.04174 0.03381 0.09088 0.0
C1398 C 0.02511 0.05262 0.11602 0.0
C1399 C 0.02204 0.03644 0.12529 0.0
C1400 C 0.02904 0.01895 0.11727 0.0
H1401 H 0.95068 0.01216 0.21864 0.0
H1402 H 0.97006 0.01025 0.19029 0.0
C1403 C 0.03895 0.01769 0.10031 0.0
C1404 C 0.01059 0.03765 0.14272 0.0
H1405 H 0.0113 0.03077 0.18926 0.0
C1406 C 0.99205 0.04351 0.14177 0.0
C1407 C 0.01773 0.03321 0.16013 0.0
C1408 C 0.03787 0.02787 0.16244 0.0
C1409 C 0.9804 0.0448 0.15763 0.0
C1410 C 0.98746 0.04012 0.17489 0.0
C1411 C 0.00594 0.03425 0.17592 0.0
C1412 C 0.97581 0.04137 0.19207 0.0
C1413 C 0.9605 0.0509 0.15583 0.0
C1414 C 0.97275 0.05952 0.20245 0.0
C1415 C 0.96178 0.06069 0.21872 0.0
C1416 C 0.95359 0.0437 0.22481 0.0
C1417 C 0.95669 0.02553 0.2143 0.0
C1418 C 0.9678 0.02439 0.19814 0.0
H1419 H 0.95615 0.05134 0.14078 0.0
H1420 H 0.94988 0.04078 0.16165 0.0
H1421 H 0.96007 0.06561 0.1643 0.0
H1422 H 0.97892 0.07279 0.19801 0.0
H1423 H 0.9597 0.07491 0.22648 0.0
H1424 H 0.30644 0.78587 0.19075 0.0
H1425 H 0.29103 0.80219 0.16764 0.0
H1426 H 0.25439 0.74932 0.14672 0.0
H1427 H 0.27042 0.73278 0.16968 0.0
H1428 H 0.27081 0.76252 0.11848 0.0
H1429 H 0.24205 0.8249 0.16142 0.0
H1430 H 0.26668 0.82476 0.16862 0.0
H1431 H 0.24934 0.80486 0.17191 0.0
C1432 C 0.29474 0.77792 0.18154 0.0
C1433 C 0.28944 0.75822 0.18196 0.0
C1434 C 0.28579 0.78729 0.16844 0.0
C1435 C 0.2712 0.77717 0.15564 0.0
C1436 C 0.26544 0.75753 0.15657 0.0
H1437 H 0.23662 0.8432 0.06567 0.0
H1438 H 0.23247 0.82502 0.09248 0.0
C1439 C 0.27453 0.74809 0.16966 0.0
C1440 C 0.26422 0.78638 0.1397 0.0
H1441 H 0.2524 0.8298 0.12949 0.0
C1442 C 0.26625 0.77701 0.12093 0.0
C1443 C 0.25791 0.80518 0.14269 0.0
C1444 C 0.25366 0.81536 0.16228 0.0
C1445 C 0.26384 0.78655 0.10531 0.0
C1446 C 0.25971 0.80613 0.10854 0.0
C1447 C 0.25595 0.81492 0.12706 0.0
C1448 C 0.26187 0.8182 0.09327 0.0
C1449 C 0.2666 0.77584 0.08552 0.0
C1450 C 0.27987 0.82096 0.08539 0.0
C1451 C 0.28225 0.83119 0.07026 0.0
C1452 C 0.26671 0.83912 0.06267 0.0
C1453 C 0.24883 0.83721 0.07116 0.0
C1454 C 0.24643 0.8268 0.08641 0.0
H1455 H 0.26323 0.7599 0.08471 0.0
H1456 H 0.25744 0.78078 0.07469 0.0
H1457 H 0.28183 0.77862 0.08188 0.0
H1458 H 0.2921 0.8149 0.09079 0.0
H1459 H 0.29631 0.83262 0.06432 0.0
H1460 H 0.982 0.47487 0.09269 0.0
H1461 H 0.00332 0.49061 0.11952 0.0
H1462 H 0.05197 0.47056 0.08904 0.0
H1463 H 0.03105 0.45649 0.06153 0.0
H1464 H 0.02124 0.47251 0.14039 0.0
H1465 H 0.07662 0.52142 0.11388 0.0
H1466 H 0.0549 0.51179 0.09995 0.0
H1467 H 0.07548 0.49815 0.09894 0.0
C1468 C 0.9973 0.47447 0.09133 0.0
C1469 C 0.00471 0.4641 0.07495 0.0
C1470 C 0.00951 0.48338 0.10681 0.0
C1471 C 0.02934 0.48192 0.10638 0.0
C1472 C 0.03684 0.47239 0.08969 0.0
H1473 H 0.09805 0.45541 0.19478 0.0
H1474 H 0.07691 0.45798 0.16783 0.0
C1475 C 0.02473 0.46389 0.07405 0.0
C1476 C 0.04167 0.4875 0.12414 0.0
H1477 H 0.08698 0.50621 0.14077 0.0
C1478 C 0.03542 0.48033 0.14053 0.0
C1479 C 0.06009 0.49803 0.12469 0.0
C1480 C 0.06701 0.50795 0.10845 0.0
C1481 C 0.0475 0.48213 0.15683 0.0
C1482 C 0.06664 0.49064 0.15652 0.0
C1483 C 0.07247 0.49918 0.14078 0.0
C1484 C 0.08097 0.48941 0.17182 0.0
C1485 C 0.03968 0.47451 0.1741 0.0
C1486 C 0.09124 0.50618 0.18229 0.0
C1487 C 0.10372 0.50472 0.19758 0.0
C1488 C 0.10597 0.48647 0.20259 0.0
C1489 C 0.09636 0.4697 0.19147 0.0
C1490 C 0.08417 0.47115 0.17613 0.0
H1491 H 0.02392 0.4751 0.17469 0.0
H1492 H 0.04237 0.45907 0.1732 0.0
H1493 H 0.0466 0.48291 0.18756 0.0
H1494 H 0.08914 0.5204 0.17903 0.0
H1495 H 0.11099 0.51789 0.20589 0.0
H1496 H 0.35195 0.74274 0.26095 0.0
H1497 H 0.37988 0.73987 0.28111 0.0
H1498 H 0.36628 0.67763 0.27242 0.0
H1499 H 0.33858 0.68031 0.25169 0.0
H1500 H 0.38116 0.72366 0.31494 0.0
H1501 H 0.42276 0.68462 0.25774 0.0
H1502 H 0.40236 0.6969 0.25245 0.0
H1503 H 0.39881 0.67401 0.26071 0.0
C1504 C 0.35499 0.72841 0.26314 0.0
C1505 C 0.34311 0.71175 0.25458 0.0
C1506 C 0.37087 0.72681 0.27479 0.0
C1507 C 0.37526 0.70853 0.27809 0.0
C1508 C 0.3633 0.69185 0.26984 0.0
H1509 H 0.48209 0.69655 0.34322 0.0
H1510 H 0.44978 0.68697 0.32805 0.0
C1511 C 0.34737 0.69344 0.25816 0.0
C1512 C 0.39245 0.70721 0.29018 0.0
H1513 H 0.43796 0.69374 0.28815 0.0
C1514 C 0.39346 0.71684 0.30917 0.0
C1515 C 0.40844 0.69817 0.28267 0.0
C1516 C 0.40822 0.68792 0.26225 0.0
C1517 C 0.41035 0.71848 0.32056 0.0
C1518 C 0.42667 0.71044 0.31269 0.0
C1519 C 0.42534 0.69979 0.29412 0.0
C1520 C 0.44585 0.71572 0.32234 0.0
C1521 C 0.4109 0.72949 0.34069 0.0
C1522 C 0.45427 0.7349 0.3239 0.0
C1523 C 0.47257 0.74031 0.33227 0.0
C1524 C 0.48293 0.72667 0.33938 0.0
C1525 C 0.47444 0.70739 0.33793 0.0
C1526 C 0.45605 0.70191 0.32928 0.0
H1527 H 0.39627 0.73004 0.34631 0.0
H1528 H 0.41984 0.72276 0.35037 0.0
H1529 H 0.41733 0.74464 0.34085 0.0
H1530 H 0.44671 0.7457 0.31841 0.0
H1531 H 0.47858 0.7553 0.33318 0.0
H1532 H 0.97819 0.40705 0.99896 0.0
H1533 H 0.98795 0.37678 0.98184 0.0
H1534 H 0.01262 0.36439 0.03407 0.0
H1535 H 0.00248 0.39458 0.05154 0.0
H1536 H 0.03718 0.3609 0.00247 0.0
H1537 H 0.96562 0.32025 0.98349 0.0
H1538 H 0.96732 0.34441 0.97793 0.0
H1539 H 0.96951 0.34103 0.00241 0.0
C1540 C 0.98534 0.39774 0.00693 0.0
C1541 C 0.98944 0.40322 0.02666 0.0
C1542 C 0.99093 0.38044 0.9971 0.0
C1543 C 0.00073 0.36823 0.00676 0.0
C1544 C 0.00495 0.3736 0.02641 0.0
H1545 H 0.02225 0.25934 0.9335 0.0
H1546 H 0.01591 0.28077 0.96311 0.0
C1547 C 0.99926 0.3909 0.03632 0.0
C1548 C 0.00742 0.35047 0.99588 0.0
H1549 H 0.99152 0.30982 0.964 0.0
C1550 C 0.02723 0.34949 0.99435 0.0
C1551 C 0.99442 0.33545 0.98558 0.0
C1552 C 0.97302 0.33519 0.98756 0.0
C1553 C 0.03435 0.33461 0.98166 0.0
C1554 C 0.0213 0.32055 0.97011 0.0
C1555 C 0.00153 0.32071 0.97274 0.0
C1556 C 0.02758 0.30718 0.95364 0.0
C1557 C 0.05576 0.33444 0.98026 0.0
C1558 C 0.03639 0.31492 0.93864 0.0
C1559 C 0.0399 0.30281 0.92176 0.0
C1560 C 0.03463 0.28266 0.9195 0.0
C1561 C 0.02655 0.27479 0.93485 0.0
C1562 C 0.02289 0.287 0.95174 0.0
H1563 H 0.06342 0.34151 0.99388 0.0
H1564 H 0.05973 0.31939 0.97656 0.0
H1565 H 0.06077 0.34271 0.96894 0.0
H1566 H 0.03976 0.33048 0.93962 0.0
H1567 H 0.04618 0.30934 0.91024 0.0
H1568 H 0.74247 0.73622 0.28955 0.0
H1569 H 0.71216 0.72181 0.30048 0.0
H1570 H 0.68069 0.7542 0.26595 0.0
H1571 H 0.71094 0.76826 0.25484 0.0
H1572 H 0.68773 0.74316 0.32099 0.0
H1573 H 0.64861 0.70217 0.25619 0.0
H1574 H 0.67411 0.70954 0.25686 0.0
H1575 H 0.65718 0.72632 0.2529 0.0
C1576 C 0.729 0.7397 0.28389 0.0
C1577 C 0.72881 0.75308 0.27126 0.0
C1578 C 0.71174 0.73155 0.29015 0.0
C1579 C 0.69412 0.73668 0.28383 0.0
C1580 C 0.69404 0.74958 0.27063 0.0
H1581 H 0.58325 0.75321 0.31571 0.0
H1582 H 0.61376 0.74828 0.30109 0.0
C1583 C 0.71128 0.75768 0.26435 0.0
C1584 C 0.67606 0.73079 0.29283 0.0
H1585 H 0.62898 0.71378 0.28251 0.0
C1586 C 0.67499 0.73627 0.31266 0.0
C1587 C 0.65946 0.72175 0.28196 0.0
C1588 C 0.65994 0.71443 0.26082 0.0
C1589 C 0.65747 0.73431 0.32169 0.0
C1590 C 0.64065 0.72643 0.31061 0.0
C1591 C 0.64192 0.71986 0.29097 0.0
C1592 C 0.62139 0.72751 0.3186 0.0
C1593 C 0.65686 0.74192 0.34278 0.0
C1594 C 0.61535 0.71713 0.33309 0.0
C1595 C 0.59778 0.71994 0.34159 0.0
C1596 C 0.58607 0.73323 0.33573 0.0
C1597 C 0.59195 0.74301 0.32073 0.0
C1598 C 0.60937 0.74014 0.31225 0.0
H1599 H 0.67076 0.74984 0.34879 0.0
H1600 H 0.64548 0.75185 0.34552 0.0
H1601 H 0.65337 0.72958 0.35052 0.0
H1602 H 0.62437 0.70715 0.33803 0.0
H1603 H 0.59361 0.71213 0.35304 0.0
H1604 H 0.0571 0.04543 0.97416 0.0
H1605 H 0.06023 0.06773 0.95077 0.0
H1606 H 0.05337 0.11592 0.99547 0.0
H1607 H 0.05071 0.09374 0.01876 0.0
H1608 H 0.03275 0.08902 0.94132 0.0
H1609 H 0.09732 0.1389 0.96815 0.0
H1610 H 0.09161 0.11598 0.97623 0.0
H1611 H 0.08034 0.13705 0.98641 0.0
C1612 C 0.05686 0.06088 0.97897 0.0
C1613 C 0.054 0.06805 0.99817 0.0
C1614 C 0.05853 0.07358 0.96564 0.0
C1615 C 0.05733 0.09358 0.97138 0.0
C1616 C 0.0549 0.10069 0.99074 0.0
H1617 H 0.03604 0.19305 0.92125 0.0
H1618 H 0.04055 0.16872 0.94152 0.0
C1619 C 0.05331 0.08802 0.00404 0.0
C1620 C 0.05671 0.10674 0.957 0.0
H1621 H 0.07578 0.15048 0.94676 0.0
C1622 C 0.04237 0.1023 0.94232 0.0
C1623 C 0.06922 0.12411 0.95832 0.0
C1624 C 0.0856 0.1292 0.97301 0.0
C1625 C 0.03972 0.11511 0.92944 0.0
C1626 C 0.05182 0.13275 0.93119 0.0
C1627 C 0.06645 0.13699 0.94554 0.0
C1628 C 0.04907 0.14731 0.91868 0.0
C1629 C 0.02355 0.11005 0.9145 0.0
C1630 C 0.05243 0.14334 0.8991 0.0
C1631 C 0.04991 0.15724 0.88745 0.0
C1632 C 0.04394 0.17536 0.89516 0.0
C1633 C 0.04056 0.17923 0.9148 0.0
C1634 C 0.04319 0.16537 0.92643 0.0
H1635 H 0.01346 0.09761 0.91717 0.0
H1636 H 0.01539 0.12275 0.91402 0.0
H1637 H 0.02959 0.10608 0.90027 0.0
H1638 H 0.05718 0.12955 0.89288 0.0
H1639 H 0.05271 0.15381 0.87242 0.0
H1640 H 0.37334 0.29963 0.31631 0.0
H1641 H 0.39684 0.29629 0.29138 0.0
H1642 H 0.3535 0.30288 0.24954 0.0
H1643 H 0.32988 0.30618 0.27437 0.0
H1644 H 0.39589 0.2686 0.25852 0.0
H1645 H 0.39747 0.3427 0.24046 0.0
H1646 H 0.38705 0.33633 0.26188 0.0
H1647 H 0.37379 0.33005 0.23936 0.0
C1648 C 0.36879 0.30032 0.30178 0.0
C1649 C 0.34974 0.30321 0.29731 0.0
C1650 C 0.38226 0.29849 0.28759 0.0
C1651 C 0.37699 0.29962 0.26867 0.0
C1652 C 0.35798 0.30242 0.26413 0.0
H1653 H 0.42694 0.28514 0.15921 0.0
H1654 H 0.40697 0.28995 0.18682 0.0
C1655 C 0.3445 0.30429 0.27833 0.0
C1656 C 0.39122 0.29727 0.25358 0.0
H1657 H 0.41251 0.31955 0.21903 0.0
C1658 C 0.39969 0.27979 0.25 0.0
C1659 C 0.39618 0.31194 0.24254 0.0
C1660 C 0.3883 0.33139 0.24634 0.0
C1661 C 0.41246 0.27631 0.23519 0.0
C1662 C 0.41708 0.29082 0.22388 0.0
C1663 C 0.40891 0.30844 0.22772 0.0
C1664 C 0.42954 0.28766 0.20734 0.0
C1665 C 0.42038 0.25689 0.23131 0.0
C1666 C 0.44895 0.28488 0.20974 0.0
C1667 C 0.46051 0.28209 0.19391 0.0
C1668 C 0.45282 0.28211 0.17544 0.0
C1669 C 0.43337 0.285 0.17319 0.0
C1670 C 0.42189 0.28779 0.18897 0.0
H1671 H 0.41242 0.24596 0.2387 0.0
H1672 H 0.41981 0.25119 0.21576 0.0
H1673 H 0.43563 0.25867 0.23647 0.0
H1674 H 0.4552 0.28504 0.22386 0.0
H1675 H 0.47542 0.27998 0.19614 0.0
H1676 H 0.57051 0.44179 0.02488 0.0
H1677 H 0.57037 0.42544 0.05302 0.0
H1678 H 0.55536 0.37018 0.01638 0.0
H1679 H 0.55603 0.38643 0.9885 0.0
H1680 H 0.53997 0.40707 0.06509 0.0
H1681 H 0.59326 0.35453 0.05208 0.0
H1682 H 0.59271 0.37449 0.03899 0.0
H1683 H 0.57772 0.35195 0.03126 0.0
C1684 C 0.56779 0.42609 0.02294 0.0
C1685 C 0.56346 0.41522 0.00471 0.0
C1686 C 0.56768 0.41677 0.03895 0.0
C1687 C 0.56321 0.3965 0.03683 0.0
C1688 C 0.55948 0.3857 0.01841 0.0
H1689 H 0.49024 0.32581 0.09108 0.0
H1690 H 0.50752 0.35084 0.07625 0.0
C1691 C 0.55971 0.39499 0.00248 0.0
C1692 C 0.55967 0.38681 0.0537 0.0
H1693 H 0.56538 0.3445 0.06996 0.0
C1694 C 0.54594 0.39366 0.06647 0.0
C1695 C 0.56773 0.36956 0.05591 0.0
C1696 C 0.58384 0.36237 0.04392 0.0
C1697 C 0.53876 0.38279 0.08013 0.0
C1698 C 0.54512 0.36438 0.08071 0.0
C1699 C 0.56017 0.35842 0.06924 0.0
C1700 C 0.53468 0.35014 0.09112 0.0
C1701 C 0.52389 0.39082 0.09333 0.0
C1702 C 0.54428 0.34104 0.10418 0.0
C1703 C 0.53441 0.32645 0.11264 0.0
C1704 C 0.51482 0.32062 0.108 0.0
C1705 C 0.50528 0.32996 0.09508 0.0
C1706 C 0.51511 0.34445 0.08668 0.0
H1707 H 0.52599 0.40696 0.09626 0.0
H1708 H 0.50941 0.38643 0.0864 0.0
H1709 H 0.52437 0.38533 0.1071 0.0
H1710 H 0.55944 0.34507 0.10764 0.0
H1711 H 0.5422 0.3195 0.12247 0.0
H1712 H 0.6982 0.25117 0.23812 0.0
H1713 H 0.66759 0.26107 0.22761 0.0
H1714 H 0.6378 0.20855 0.24144 0.0
H1715 H 0.66837 0.19884 0.25216 0.0
H1716 H 0.64468 0.23977 0.19781 0.0
H1717 H 0.60355 0.24962 0.26376 0.0
H1718 H 0.62925 0.24898 0.26419 0.0
H1719 H 0.61345 0.22676 0.2591 0.0
C1720 C 0.68501 0.24205 0.23932 0.0
C1721 C 0.6854 0.2244 0.24604 0.0
C1722 C 0.66759 0.24765 0.23329 0.0
C1723 C 0.65038 0.23567 0.23397 0.0
C1724 C 0.65081 0.21823 0.24121 0.0
H1725 H 0.53474 0.2274 0.18651 0.0
H1726 H 0.56453 0.22346 0.20341 0.0
C1727 C 0.66823 0.21266 0.24724 0.0
C1728 C 0.63234 0.24038 0.22532 0.0
H1729 H 0.58571 0.24755 0.23429 0.0
C1730 C 0.63185 0.2417 0.20583 0.0
C1731 C 0.61558 0.24272 0.23579 0.0
C1732 C 0.61546 0.24213 0.25691 0.0
C1733 C 0.61492 0.2448 0.19638 0.0
C1734 C 0.59812 0.24701 0.2068 0.0
C1735 C 0.59863 0.24586 0.22635 0.0
C1736 C 0.57978 0.25008 0.19749 0.0
C1737 C 0.61503 0.24504 0.17518 0.0
C1738 C 0.57837 0.26655 0.18891 0.0
C1739 C 0.56141 0.26881 0.17916 0.0
C1740 C 0.54547 0.25469 0.17795 0.0
C1741 C 0.54675 0.23851 0.1871 0.0
C1742 C 0.56375 0.23624 0.1968 0.0
H1743 H 0.62755 0.23845 0.16856 0.0
H1744 H 0.60169 0.23708 0.16786 0.0
H1745 H 0.61585 0.2603 0.17268 0.0
H1746 H 0.59047 0.27758 0.18959 0.0
H1747 H 0.56086 0.28153 0.17242 0.0
H1748 H 0.47679 0.10154 0.97445 0.0
H1749 H 0.48785 0.12903 0.99935 0.0
H1750 H 0.49026 0.09019 0.04035 0.0
H1751 H 0.47895 0.06263 0.01549 0.0
H1752 H 0.46871 0.11849 0.05205 0.0
H1753 H 0.53707 0.15154 0.0287 0.0
H1754 H 0.51876 0.14801 0.01004 0.0
H1755 H 0.52683 0.12725 0.01855 0.0
C1756 C 0.48026 0.09879 0.98863 0.0
C1757 C 0.4769 0.07997 0.99306 0.0
C1758 C 0.48667 0.11451 0.00286 0.0
C1759 C 0.49009 0.11168 0.02171 0.0
C1760 C 0.48777 0.09272 0.02591 0.0
H1761 H 0.51774 0.21535 0.11109 0.0
H1762 H 0.52015 0.1832 0.09198 0.0
C1763 C 0.48125 0.07701 0.01172 0.0
C1764 C 0.4933 0.12863 0.03736 0.0
H1765 H 0.51918 0.17302 0.0503 0.0
C1766 C 0.48002 0.13021 0.05187 0.0
C1767 C 0.50817 0.14387 0.03732 0.0
C1768 C 0.52363 0.14249 0.02291 0.0
C1769 C 0.48044 0.14708 0.06557 0.0
C1770 C 0.49431 0.16291 0.06456 0.0
C1771 C 0.5084 0.16092 0.05087 0.0
C1772 C 0.49313 0.18219 0.07633 0.0
C1773 C 0.46564 0.14805 0.08068 0.0
C1774 C 0.47726 0.19225 0.07367 0.0
C1775 C 0.47585 0.2105 0.08444 0.0
C1776 C 0.49033 0.21915 0.09811 0.0
C1777 C 0.5063 0.20905 0.10075 0.0
C1778 C 0.50774 0.19074 0.08983 0.0
H1779 H 0.45991 0.13331 0.08303 0.0
H1780 H 0.47176 0.15654 0.09445 0.0
H1781 H 0.45346 0.15534 0.076 0.0
H1782 H 0.46598 0.18601 0.06312 0.0
H1783 H 0.46339 0.21784 0.08196 0.0
H1784 H 0.31362 0.32297 0.76017 0.0
H1785 H 0.33029 0.35563 0.7626 0.0
H1786 H 0.30107 0.36289 0.71057 0.0
H1787 H 0.2837 0.33048 0.70843 0.0
H1788 H 0.35438 0.37242 0.73803 0.0
H1789 H 0.28804 0.40953 0.74867 0.0
H1790 H 0.28854 0.38415 0.7501 0.0
H1791 H 0.28799 0.39192 0.72725 0.0
C1792 C 0.31061 0.33155 0.74931 0.0
C1793 C 0.29713 0.3242 0.73424 0.0
C1794 C 0.32029 0.35015 0.75063 0.0
C1795 C 0.3167 0.36179 0.73692 0.0
C1796 C 0.30379 0.35427 0.72148 0.0
H1797 H 0.38724 0.47424 0.74119 0.0
H1798 H 0.37083 0.44188 0.72886 0.0
C1799 C 0.29403 0.33567 0.72018 0.0
C1800 C 0.32614 0.38196 0.73929 0.0
H1801 H 0.31712 0.42944 0.74865 0.0
C1802 C 0.34627 0.38492 0.74017 0.0
C1803 C 0.31547 0.39819 0.74222 0.0
C1804 C 0.29382 0.39589 0.74218 0.0
C1805 C 0.35605 0.40369 0.74441 0.0
C1806 C 0.34536 0.41991 0.74752 0.0
C1807 C 0.32525 0.41696 0.74611 0.0
C1808 C 0.35468 0.43988 0.75418 0.0
C1809 C 0.37767 0.40595 0.74641 0.0
C1810 C 0.35059 0.44967 0.77221 0.0
C1811 C 0.35978 0.46813 0.7792 0.0
C1812 C 0.37327 0.47724 0.7683 0.0
C1813 C 0.37701 0.4676 0.74999 0.0
C1814 C 0.36773 0.44907 0.74297 0.0
H1815 H 0.38347 0.39192 0.7472 0.0
H1816 H 0.38369 0.41161 0.73386 0.0
H1817 H 0.38274 0.41649 0.75941 0.0
H1818 H 0.34053 0.44285 0.78106 0.0
H1819 H 0.35648 0.47512 0.79333 0.0
H1820 H 0.27165 0.68646 0.80889 0.0
H1821 H 0.29726 0.66517 0.80777 0.0
H1822 H 0.30673 0.67157 0.7493 0.0
H1823 H 0.28141 0.69336 0.75044 0.0
H1824 H 0.29653 0.62983 0.78181 0.0
H1825 H 0.36155 0.68021 0.77454 0.0
H1826 H 0.33936 0.68875 0.78312 0.0
H1827 H 0.34163 0.68026 0.75813 0.0
C1828 C 0.27945 0.68371 0.79591 0.0
C1829 C 0.2745 0.69164 0.77976 0.0
C1830 C 0.29401 0.67145 0.79526 0.0
C1831 C 0.30401 0.66695 0.77851 0.0
C1832 C 0.29939 0.6751 0.76245 0.0
H1833 H 0.38553 0.57886 0.75557 0.0
H1834 H 0.36591 0.60518 0.7514 0.0
C1835 C 0.28478 0.68736 0.76307 0.0
C1836 C 0.31821 0.65258 0.77757 0.0
H1837 H 0.36596 0.64709 0.77381 0.0
C1838 C 0.31169 0.63359 0.77997 0.0
C1839 C 0.33794 0.6575 0.77498 0.0
C1840 C 0.34567 0.6778 0.77267 0.0
C1841 C 0.32442 0.61947 0.78022 0.0
C1842 C 0.34423 0.62452 0.77829 0.0
C1843 C 0.35074 0.64332 0.77528 0.0
C1844 C 0.3583 0.61074 0.78096 0.0
C1845 C 0.31662 0.59925 0.78283 0.0
C1846 C 0.361 0.60576 0.79906 0.0
C1847 C 0.37204 0.59084 0.80146 0.0
C1848 C 0.3807 0.5806 0.78581 0.0
C1849 C 0.37901 0.58645 0.76788 0.0
C1850 C 0.36782 0.60144 0.76547 0.0
H1851 H 0.30091 0.59644 0.77955 0.0
H1852 H 0.32391 0.58811 0.77356 0.0
H1853 H 0.31929 0.59754 0.79789 0.0
H1854 H 0.35393 0.61295 0.81122 0.0
H1855 H 0.37324 0.58689 0.81552 0.0
H1856 H 0.9273 0.49956 0.46625 0.0
H1857 H 0.89759 0.48283 0.47528 0.0
H1858 H 0.87744 0.53787 0.49731 0.0
H1859 H 0.90698 0.55491 0.48771 0.0
H1860 H 0.8753 0.50834 0.52266 0.0
H1861 H 0.84227 0.48078 0.45041 0.0
H1862 H 0.8671 0.47689 0.45279 0.0
H1863 H 0.86054 0.50127 0.45523 0.0
C1864 C 0.91644 0.50819 0.47266 0.0
C1865 C 0.91954 0.52862 0.47612 0.0
C1866 C 0.89948 0.49858 0.47787 0.0
C1867 C 0.88526 0.50914 0.48672 0.0
C1868 C 0.88825 0.5295 0.49038 0.0
H1869 H 0.78031 0.43555 0.50578 0.0
H1870 H 0.79963 0.46541 0.50069 0.0
C1871 C 0.90519 0.53918 0.48501 0.0
C1872 C 0.86776 0.49861 0.49284 0.0
H1873 H 0.83085 0.46422 0.47564 0.0
C1874 C 0.8653 0.499 0.51242 0.0
C1875 C 0.8546 0.48669 0.47945 0.0
C1876 C 0.8561 0.48647 0.45828 0.0
C1877 C 0.85085 0.48661 0.51893 0.0
C1878 C 0.8387 0.4735 0.50547 0.0
C1879 C 0.84024 0.47422 0.48594 0.0
C1880 C 0.82634 0.45713 0.51106 0.0
C1881 C 0.84915 0.48711 0.54011 0.0
C1882 C 0.83495 0.44275 0.51871 0.0
C1883 C 0.82408 0.42572 0.52141 0.0
C1884 C 0.80432 0.42272 0.51656 0.0
C1885 C 0.79549 0.43752 0.50973 0.0
C1886 C 0.80648 0.45454 0.5068 0.0
H1887 H 0.85485 0.50152 0.54829 0.0
H1888 H 0.834 0.48376 0.54377 0.0
H1889 H 0.85767 0.47604 0.54468 0.0
H1890 H 0.8503 0.44428 0.52176 0.0
H1891 H 0.8313 0.41462 0.52674 0.0
H1892 H 0.80942 0.88326 0.81199 0.0
H1893 H 0.79388 0.90588 0.7951 0.0
H1894 H 0.74464 0.86324 0.78111 0.0
H1895 H 0.76032 0.8406 0.79763 0.0
H1896 H 0.75413 0.88425 0.75134 0.0
H1897 H 0.75005 0.93294 0.82112 0.0
H1898 H 0.77362 0.92769 0.81397 0.0
H1899 H 0.75673 0.90859 0.81951 0.0
C1900 C 0.79548 0.87865 0.80487 0.0
C1901 C 0.78596 0.86034 0.80597 0.0
C1902 C 0.78658 0.89158 0.79537 0.0
C1903 C 0.76797 0.88635 0.78714 0.0
C1904 C 0.75898 0.86757 0.78737 0.0
H1905 H 0.66665 0.92541 0.75175 0.0
H1906 H 0.69467 0.90857 0.75626 0.0
C1907 C 0.76791 0.85466 0.79678 0.0
C1908 C 0.75699 0.90077 0.77979 0.0
H1909 H 0.73412 0.94097 0.79471 0.0
C1910 C 0.74998 0.89683 0.76073 0.0
C1911 C 0.75165 0.91723 0.79206 0.0
C1912 C 0.75825 0.92189 0.81284 0.0
C1913 C 0.73719 0.90848 0.75381 0.0
C1914 C 0.73104 0.92427 0.76638 0.0
C1915 C 0.73889 0.92887 0.7851 0.0
C1916 C 0.71472 0.93461 0.76129 0.0
C1917 C 0.73001 0.90349 0.73324 0.0
C1918 C 0.71661 0.95494 0.76277 0.0
C1919 C 0.70049 0.96471 0.76026 0.0
C1920 C 0.68219 0.9543 0.75655 0.0
C1921 C 0.6805 0.93391 0.75463 0.0
C1922 C 0.69657 0.9242 0.75701 0.0
H1923 H 0.74056 0.89588 0.7242 0.0
H1924 H 0.71651 0.89359 0.73225 0.0
H1925 H 0.72704 0.91671 0.72744 0.0
H1926 H 0.73047 0.96326 0.76627 0.0
H1927 H 0.70227 0.98042 0.76187 0.0
H1928 H 0.60131 0.48922 0.0006 0.0
H1929 H 0.6312 0.50996 0.01186 0.0
H1930 H 0.65321 0.49796 0.95547 0.0
H1931 H 0.62357 0.47737 0.94422 0.0
H1932 H 0.67996 0.49687 0.9896 0.0
H1933 H 0.64317 0.56408 0.99162 0.0
H1934 H 0.63273 0.5447 0.00318 0.0
H1935 H 0.63323 0.54122 0.97765 0.0
C1936 C 0.61272 0.49077 0.99077 0.0
C1937 C 0.61017 0.48187 0.97154 0.0
C1938 C 0.62967 0.50265 0.99716 0.0
C1939 C 0.64425 0.50556 0.98441 0.0
C1940 C 0.64207 0.49589 0.96548 0.0
H1941 H 0.74776 0.56414 0.95973 0.0
H1942 H 0.71927 0.54254 0.96378 0.0
C1943 C 0.62515 0.48421 0.95907 0.0
C1944 C 0.66139 0.51956 0.9901 0.0
H1945 H 0.67681 0.56784 0.99408 0.0
C1946 C 0.6793 0.51243 0.99099 0.0
C1947 C 0.66039 0.53981 0.992 0.0
C1948 C 0.6414 0.54807 0.99104 0.0
C1949 C 0.69635 0.525 0.99281 0.0
C1950 C 0.69541 0.54513 0.99324 0.0
C1951 C 0.67747 0.55238 0.99361 0.0
C1952 C 0.71273 0.55846 0.99118 0.0
C1953 C 0.71523 0.51654 0.99374 0.0
C1954 C 0.71809 0.57505 0.00491 0.0
C1955 C 0.73436 0.58763 0.00256 0.0
C1956 C 0.74542 0.58386 0.98634 0.0
C1957 C 0.73968 0.56744 0.97246 0.0
C1958 C 0.72348 0.55494 0.97482 0.0
H1959 H 0.71359 0.50284 0.99976 0.0
H1960 H 0.72049 0.51308 0.9791 0.0
H1961 H 0.72624 0.52695 0.00255 0.0
H1962 H 0.70981 0.57814 0.01753 0.0
H1963 H 0.73838 0.60015 0.01351 0.0
H1964 H 0.27367 0.6786 0.20185 0.0
H1965 H 0.24749 0.65343 0.20472 0.0
H1966 H 0.24588 0.67542 0.26499 0.0
H1967 H 0.27243 0.70014 0.26222 0.0
H1968 H 0.24896 0.63792 0.25913 0.0
H1969 H 0.19059 0.65158 0.21086 0.0
H1970 H 0.21277 0.64927 0.19906 0.0
H1971 H 0.2111 0.66918 0.21825 0.0
C1972 C 0.26734 0.67833 0.21558 0.0
C1973 C 0.27502 0.69124 0.23182 0.0
C1974 C 0.25234 0.664 0.21721 0.0
C1975 C 0.24457 0.66261 0.23505 0.0
C1976 C 0.25163 0.67619 0.25108 0.0
H1977 H 0.14778 0.58036 0.25464 0.0
H1978 H 0.16859 0.60972 0.25126 0.0
C1979 C 0.26675 0.69031 0.2495 0.0
C1980 C 0.23066 0.64584 0.2375 0.0
H1981 H 0.18784 0.62035 0.22077 0.0
C1982 C 0.23551 0.63422 0.25085 0.0
C1983 C 0.21303 0.64106 0.22684 0.0
C1984 C 0.20646 0.65355 0.2131 0.0
C1985 C 0.22344 0.61781 0.2536 0.0
C1986 C 0.20625 0.61248 0.2423 0.0
C1987 C 0.20114 0.62431 0.22925 0.0
C1988 C 0.1935 0.59463 0.24382 0.0
C1989 C 0.22914 0.60648 0.26879 0.0
C1990 C 0.2005 0.57638 0.24046 0.0
C1991 C 0.18873 0.55963 0.24256 0.0
C1992 C 0.16961 0.56075 0.2478 0.0
C1993 C 0.16246 0.579 0.25067 0.0
C1994 C 0.17431 0.59579 0.2487 0.0
H1995 H 0.23929 0.61551 0.27974 0.0
H1996 H 0.2164 0.6009 0.27603 0.0
H1997 H 0.23642 0.5939 0.26206 0.0
H1998 H 0.21512 0.57508 0.23623 0.0
H1999 H 0.19463 0.54579 0.24001 0.0
H2000 H 0.90304 0.47556 0.02685 0.0
H2001 H 0.88907 0.50633 0.02867 0.0
H2002 H 0.93839 0.53606 0.06267 0.0
H2003 H 0.95262 0.50503 0.06048 0.0
H2004 H 0.87947 0.53275 0.05977 0.0
H2005 H 0.93617 0.56584 0.01771 0.0
H2006 H 0.93379 0.54026 0.01909 0.0
H2007 H 0.94353 0.55771 0.03922 0.0
C2008 C 0.9108 0.48867 0.03481 0.0
C2009 C 0.92881 0.48816 0.04348 0.0
C2010 C 0.90282 0.5062 0.0359 0.0
C2011 C 0.91275 0.52351 0.04567 0.0
C2012 C 0.93062 0.52291 0.05485 0.0
H2013 H 0.83835 0.61653 0.03649 0.0
H2014 H 0.86245 0.60117 0.05272 0.0
C2015 C 0.93867 0.50527 0.05369 0.0
C2016 C 0.90438 0.542 0.04518 0.0
H2017 H 0.90825 0.5813 0.02233 0.0
C2018 C 0.8859 0.54369 0.052 0.0
C2019 C 0.91291 0.55621 0.03508 0.0
C2020 C 0.93265 0.555 0.02723 0.0
C2021 C 0.87502 0.5582 0.04755 0.0
C2022 C 0.88306 0.57163 0.03631 0.0
C2023 C 0.90217 0.57098 0.03095 0.0
C2024 C 0.87086 0.58366 0.02688 0.0
C2025 C 0.85446 0.55793 0.05348 0.0
C2026 C 0.86834 0.57967 0.00694 0.0
C2027 C 0.85481 0.58848 0.99767 0.0
C2028 C 0.84342 0.60149 0.00813 0.0
C2029 C 0.84678 0.60644 0.02803 0.0
C2030 C 0.86046 0.59761 0.03734 0.0
H2031 H 0.84976 0.54496 0.05998 0.0
H2032 H 0.85293 0.57107 0.06414 0.0
H2033 H 0.8447 0.5581 0.04099 0.0
H2034 H 0.87622 0.56898 0.99856 0.0
H2035 H 0.85277 0.58446 0.98232 0.0
H2036 H 0.10853 0.0244 0.07501 0.0
H2037 H 0.13563 0.00487 0.07092 0.0
H2038 H 0.11072 0.97517 0.01661 0.0
H2039 H 0.08364 0.99469 0.02057 0.0
H2040 H 0.13429 0.96545 0.06769 0.0
H2041 H 0.16573 0.9889 0.00324 0.0
H2042 H 0.14841 0.00204 0.01693 0.0
H2043 H 0.14066 0.98039 1.00012 0.0
C2044 C 0.10889 0.0138 0.06213 0.0
C2045 C 0.09393 0.01114 0.04809 0.0
C2046 C 0.12441 0.00268 0.05979 0.0
C2047 C 0.12536 0.98869 0.04336 0.0
C2048 C 0.11057 0.98618 0.0292 0.0
H2049 H 0.20159 0.89951 0.0091 0.0
H2050 H 0.17521 0.92008 0.01174 0.0
C2051 C 0.09507 0.99736 0.03149 0.0
C2052 C 0.14121 0.976 0.04161 0.0
H2053 H 0.17755 0.96139 0.01326 0.0
C2054 C 0.14381 0.96466 0.05584 0.0
C2055 C 0.15361 0.9749 0.0261 0.0
C2056 C 0.15212 0.98733 0.01081 0.0
C2057 C 0.15826 0.95208 0.05488 0.0
C2058 C 0.17062 0.95096 0.03938 0.0
C2059 C 0.16801 0.96223 0.0251 0.0
C2060 C 0.18654 0.93839 0.03791 0.0
C2061 C 0.15996 0.9398 0.07028 0.0
C2062 C 0.20173 0.94194 0.05166 0.0
C2063 C 0.21682 0.93024 0.05019 0.0
C2064 C 0.21707 0.91474 0.0349 0.0
C2065 C 0.20182 0.91125 0.0211 0.0
C2066 C 0.18676 0.92302 0.02256 0.0
H2067 H 0.14667 0.93876 0.07843 0.0
H2068 H 0.16308 0.9249 0.06411 0.0
H2069 H 0.17197 0.94648 0.08045 0.0
H2070 H 0.20202 0.95392 0.06345 0.0
H2071 H 0.22836 0.93343 0.06101 0.0
loop_
_geom_bond_atom_site_label_1
_geom_bond_atom_site_label_2
_geom_bond_distance
_geom_bond_site_symmetry_2
_ccdc_geom_bond_type
H0 C3 0.929 . S
H1 C6 0.929 . S
H2 C8 0.930 . S
C3 H0 0.929 . S
C3 C4 1.398 . S
C3 C5 1.396 . S
C4 C3 1.398 . S
C4 C8 1.407 . S
C5 C3 1.396 . S
C5 C6 1.394 . S
C6 H1 0.929 . S
C6 C5 1.394 . S
C6 C7 1.382 . S
C7 C6 1.382 . S
C7 C8 1.392 . S
C7 N9 1.420 . S
C8 H2 0.930 . S
C8 C4 1.407 . S
C8 C7 1.392 . S
N9 C7 1.420 . S
N9 C10 1.244 . S
C10 N9 1.244 . S
H11 C14 0.929 . S
H12 C17 0.929 . S
H13 C19 0.930 . S
C14 H11 0.929 . S
C14 C15 1.398 . S
C14 C16 1.396 . S
C15 C14 1.398 . S
C15 C19 1.407 . S
C16 C14 1.396 . S
C16 C17 1.394 . S
C17 H12 0.929 . S
C17 C16 1.394 . S
C17 C18 1.382 . S
C18 C17 1.382 . S
C18 C19 1.392 . S
C18 N20 1.420 . S
C19 H13 0.930 . S
C19 C15 1.407 . S
C19 C18 1.392 . S
N20 C18 1.420 . S
N20 C21 1.244 . S
C21 N20 1.244 . S
H22 C25 0.929 . S
H23 C28 0.929 . S
H24 C30 0.930 . S
C25 H22 0.929 . S
C25 C26 1.398 . S
C25 C27 1.396 . S
C26 C25 1.398 . S
C26 C30 1.407 . S
C27 C25 1.396 . S
C27 C28 1.394 . S
C28 H23 0.929 . S
C28 C27 1.394 . S
C28 C29 1.382 . S
C29 C28 1.382 . S
C29 C30 1.392 . S
C29 N31 1.420 . S
C30 H24 0.930 . S
C30 C26 1.407 . S
C30 C29 1.392 . S
N31 C29 1.420 . S
N31 C32 1.244 . S
C32 N31 1.244 . S
H33 C36 0.929 . S
H34 C39 0.929 . S
H35 C41 0.930 . S
C36 H33 0.929 . S
C36 C37 1.398 . S
C36 C38 1.396 . S
C37 C36 1.398 . S
C37 C41 1.407 . S
C38 C36 1.396 . S
C38 C39 1.394 . S
C39 H34 0.929 . S
C39 C38 1.394 . S
C39 C40 1.382 . S
C40 C39 1.382 . S
C40 C41 1.392 . S
C40 N42 1.420 . S
C41 H35 0.930 . S
C41 C37 1.407 . S
C41 C40 1.392 . S
N42 C40 1.420 . S
N42 C43 1.244 . S
C43 N42 1.244 . S
H44 C47 0.929 . S
H45 C50 0.929 . S
H46 C52 0.930 . S
C47 H44 0.929 . S
C47 C48 1.398 . S
C47 C49 1.396 . S
C48 C47 1.398 . S
C48 C52 1.407 . S
C49 C47 1.396 . S
C49 C50 1.394 . S
C50 H45 0.929 . S
C50 C49 1.394 . S
C50 C51 1.382 . S
C51 C50 1.382 . S
C51 C52 1.392 . S
C51 N53 1.420 . S
C52 H46 0.930 . S
C52 C48 1.407 . S
C52 C51 1.392 . S
N53 C51 1.420 . S
N53 C54 1.244 . S
C54 N53 1.244 . S
H55 C58 0.929 . S
H56 C61 0.929 . S
H57 C63 0.930 . S
C58 H55 0.929 . S
C58 C59 1.398 . S
C58 C60 1.396 . S
C59 C58 1.398 . S
C59 C63 1.407 . S
C60 C58 1.396 . S
C60 C61 1.394 . S
C61 H56 0.929 . S
C61 C60 1.394 . S
C61 C62 1.382 . S
C62 C61 1.382 . S
C62 C63 1.392 . S
C62 N64 1.420 . S
C63 H57 0.930 . S
C63 C59 1.407 . S
C63 C62 1.392 . S
N64 C62 1.420 . S
N64 C65 1.244 . S
C65 N64 1.244 . S
H66 C69 0.929 . S
H67 C72 0.914 1_455 S
H68 C74 0.930 . S
C69 H66 0.929 . S
C69 C70 1.398 . S
C69 C71 1.396 . S
C70 C69 1.398 . S
C70 C74 1.407 . S
C71 C69 1.396 . S
C71 C72 1.394 . S
C72 H67 0.914 1_655 S
C72 C71 1.394 . S
C72 C73 1.382 . S
C73 C72 1.382 . S
C73 C74 1.392 . S
C73 N75 1.420 . S
C74 H68 0.930 . S
C74 C70 1.407 . S
C74 C73 1.392 . S
N75 C73 1.420 . S
N75 C76 1.244 1_655 S
C76 N75 1.244 1_455 S
H77 C80 0.929 . S
H78 C83 0.929 . S
H79 C85 0.930 . S
C80 H77 0.929 . S
C80 C81 1.398 . S
C80 C82 1.396 . S
C81 C80 1.398 . S
C81 C85 1.407 . S
C82 C80 1.396 . S
C82 C83 1.394 . S
C83 H78 0.929 . S
C83 C82 1.394 . S
C83 C84 1.382 . S
C84 C83 1.382 . S
C84 C85 1.392 . S
C84 N86 1.420 . S
C85 H79 0.930 . S
C85 C81 1.407 . S
C85 C84 1.392 . S
N86 C84 1.420 . S
N86 C87 1.244 . S
C87 N86 1.244 . S
H88 C91 0.929 . S
H89 C94 0.929 . S
H90 C96 0.930 . S
C91 H88 0.929 . S
C91 C92 1.398 . S
C91 C93 1.396 . S
C92 C91 1.398 . S
C92 C96 1.407 . S
C93 C91 1.396 . S
C93 C94 1.394 . S
C94 H89 0.929 . S
C94 C93 1.394 . S
C94 C95 1.382 . S
C95 C94 1.382 . S
C95 C96 1.392 . S
C95 N97 1.420 . S
C96 H90 0.930 . S
C96 C92 1.407 . S
C96 C95 1.392 . S
N97 C95 1.420 . S
N97 C98 1.244 . S
C98 N97 1.244 . S
H99 C102 0.929 . S
H100 C105 0.929 . S
H101 C107 0.930 . S
C102 H99 0.929 . S
C102 C103 1.398 . S
C102 C104 1.396 . S
C103 C102 1.398 . S
C103 C107 1.407 . S
C104 C102 1.396 . S
C104 C105 1.394 . S
C105 H100 0.929 . S
C105 C104 1.394 . S
C105 C106 1.382 . S
C106 C105 1.382 . S
C106 C107 1.392 . S
C106 N108 1.420 . S
C107 H101 0.930 . S
C107 C103 1.407 . S
C107 C106 1.392 . S
N108 C106 1.420 . S
N108 C109 1.244 . S
C109 N108 1.244 . S
H110 C113 0.929 . S
H111 C116 0.929 . S
H112 C118 0.930 . S
C113 H110 0.929 . S
C113 C114 1.398 . S
C113 C115 1.396 . S
C114 C113 1.398 . S
C114 C118 1.407 . S
C115 C113 1.396 . S
C115 C116 1.394 . S
C116 H111 0.929 . S
C116 C115 1.394 . S
C116 C117 1.382 . S
C117 C116 1.382 . S
C117 C118 1.392 . S
C117 N119 1.420 . S
C118 H112 0.930 . S
C118 C114 1.407 . S
C118 C117 1.392 . S
N119 C117 1.420 . S
N119 C120 1.244 . S
C120 N119 1.244 . S
H121 C124 0.929 . S
H122 C127 0.929 . S
H123 C129 0.930 . S
C124 H121 0.929 . S
C124 C125 1.398 . S
C124 C126 1.396 . S
C125 C124 1.398 . S
C125 C129 1.407 . S
C126 C124 1.396 . S
C126 C127 1.394 . S
C127 H122 0.929 . S
C127 C126 1.394 . S
C127 C128 1.382 . S
C128 C127 1.382 . S
C128 C129 1.392 . S
C128 N130 1.420 . S
C129 H123 0.930 . S
C129 C125 1.407 . S
C129 C128 1.392 . S
N130 C128 1.420 . S
N130 C131 1.244 . S
C131 N130 1.244 . S
H132 C135 0.929 . S
H133 C138 0.929 . S
H134 C140 0.930 . S
C135 H132 0.929 . S
C135 C136 1.398 . S
C135 C137 1.396 . S
C136 C135 1.398 . S
C136 C140 1.407 . S
C137 C135 1.396 . S
C137 C138 1.394 . S
C138 H133 0.929 . S
C138 C137 1.394 . S
C138 C139 1.382 . S
C139 C138 1.382 . S
C139 C140 1.392 . S
C139 N141 1.420 . S
C140 H134 0.930 . S
C140 C136 1.407 . S
C140 C139 1.392 . S
N141 C139 1.420 . S
N141 C142 1.244 . S
C142 N141 1.244 . S
H143 C146 0.929 . S
H144 C149 0.933 1_554 S
H145 C151 0.930 . S
C146 H143 0.929 . S
C146 C147 1.398 . S
C146 C148 1.396 . S
C147 C146 1.398 . S
C147 C151 1.407 . S
C148 C146 1.396 . S
C148 C149 1.394 . S
C149 H144 0.933 1_556 S
C149 C148 1.394 . S
C149 C150 1.382 . S
C150 C149 1.382 . S
C150 C151 1.392 . S
C150 N152 1.420 . S
C151 H145 0.930 . S
C151 C147 1.407 . S
C151 C150 1.392 . S
N152 C150 1.420 . S
N152 C153 1.244 1_556 S
C153 N152 1.244 1_554 S
H154 C157 0.929 . S
H155 C160 0.929 . S
H156 C162 0.930 . S
C157 H154 0.929 . S
C157 C158 1.398 . S
C157 C159 1.396 . S
C158 C157 1.398 . S
C158 C162 1.407 . S
C159 C157 1.396 . S
C159 C160 1.394 . S
C160 H155 0.929 . S
C160 C159 1.394 . S
C160 C161 1.382 . S
C161 C160 1.382 . S
C161 C162 1.392 . S
C161 N163 1.420 . S
C162 H156 0.930 . S
C162 C158 1.407 . S
C162 C161 1.392 . S
N163 C161 1.420 . S
N163 C164 1.244 . S
C164 N163 1.244 . S
H165 C168 0.929 . S
H166 C171 0.929 . S
H167 C173 0.930 . S
C168 H165 0.929 . S
C168 C169 1.398 . S
C168 C170 1.396 . S
C169 C168 1.398 . S
C169 C173 1.407 . S
C170 C168 1.396 . S
C170 C171 1.394 . S
C171 H166 0.929 . S
C171 C170 1.394 . S
C171 C172 1.382 . S
C172 C171 1.382 . S
C172 C173 1.392 . S
C172 N174 1.420 . S
C173 H167 0.930 . S
C173 C169 1.407 . S
C173 C172 1.392 . S
N174 C172 1.420 . S
N174 C175 1.244 . S
C175 N174 1.244 . S
Zn176 O179 2.031 . S
Zn176 O181 2.049 . S
Zn176 O186 2.067 . S
Zn177 O178 1.962 . S
Zn177 O180 1.986 . S
Zn177 O182 1.996 . S
Zn177 O185 1.943 . S
O178 Zn177 1.962 . S
O178 C183 1.254 . S
O179 Zn176 2.031 . S
O179 C183 1.269 . S
O180 Zn177 1.986 . S
O180 C187 1.262 . S
O181 Zn176 2.049 . S
O181 C189 1.260 . S
O182 Zn177 1.996 . S
O182 C189 1.257 . S
C183 O178 1.254 . S
C183 O179 1.269 . S
C184 O185 1.249 . S
C184 O186 1.270 . S
O185 Zn177 1.943 . S
O185 C184 1.249 . S
O186 Zn176 2.067 . S
O186 C184 1.270 . S
C187 O180 1.262 . S
C187 O188 1.232 . S
O188 C187 1.232 . S
C189 O181 1.260 . S
C189 O182 1.257 . S
Zn190 O193 2.031 . S
Zn190 O195 2.049 . S
Zn190 O200 2.067 . S
Zn191 O192 1.962 . S
Zn191 O194 1.986 . S
Zn191 O196 1.996 . S
Zn191 O199 1.943 . S
O192 Zn191 1.962 . S
O192 C197 1.254 . S
O193 Zn190 2.031 . S
O193 C197 1.269 . S
O194 Zn191 1.986 . S
O194 C201 1.262 . S
O195 Zn190 2.049 . S
O195 C203 1.260 . S
O196 Zn191 1.996 . S
O196 C203 1.257 . S
C197 O192 1.254 . S
C197 O193 1.269 . S
C198 O199 1.249 . S
C198 O200 1.270 . S
O199 Zn191 1.943 . S
O199 C198 1.249 . S
O200 Zn190 2.067 . S
O200 C198 1.270 . S
C201 O194 1.262 . S
C201 O202 1.232 . S
O202 C201 1.232 . S
C203 O195 1.260 . S
C203 O196 1.257 . S
Zn204 O207 2.031 . S
Zn204 O209 2.049 . S
Zn204 O214 2.067 . S
Zn205 O206 1.962 . S
Zn205 O208 1.986 . S
Zn205 O210 1.996 1_554 S
Zn205 O213 1.943 . S
O206 Zn205 1.962 . S
O206 C211 1.254 . S
O207 Zn204 2.031 . S
O207 C211 1.269 1_556 S
O208 Zn205 1.986 . S
O208 C215 1.262 . S
O209 Zn204 2.049 . S
O209 C217 1.260 . S
O210 Zn205 1.996 1_556 S
O210 C217 1.257 . S
C211 O206 1.254 . S
C211 O207 1.269 1_554 S
C212 O213 1.249 1_556 S
C212 O214 1.270 . S
O213 Zn205 1.943 . S
O213 C212 1.249 1_554 S
O214 Zn204 2.067 . S
O214 C212 1.270 . S
C215 O208 1.262 . S
C215 O216 1.232 . S
O216 C215 1.232 . S
C217 O209 1.260 . S
C217 O210 1.257 . S
Zn218 O221 2.031 . S
Zn218 O223 2.049 . S
Zn218 O228 2.067 1_545 S
Zn219 O220 1.962 . S
Zn219 O222 1.986 . S
Zn219 O224 1.996 . S
Zn219 O227 1.961 . S
O220 Zn219 1.962 . S
O220 C225 1.254 . S
O221 Zn218 2.031 . S
O221 C225 1.269 . S
O222 Zn219 1.986 . S
O222 C229 1.262 . S
O223 Zn218 2.049 . S
O223 C231 1.260 . S
O224 Zn219 1.996 . S
O224 C231 1.257 . S
C225 O220 1.254 . S
C225 O221 1.269 . S
C226 O227 1.236 1_565 S
C226 O228 1.270 . S
O227 Zn219 1.961 . S
O227 C226 1.236 1_545 S
O228 Zn218 2.067 1_565 S
O228 C226 1.270 . S
C229 O222 1.262 . S
C229 O230 1.232 . S
O230 C229 1.232 . S
C231 O223 1.260 . S
C231 O224 1.257 . S
Zn232 O235 2.031 . S
Zn232 O237 2.049 . S
Zn232 O242 2.067 . S
Zn233 O234 1.962 . S
Zn233 O236 1.986 . S
Zn233 O238 1.996 . S
Zn233 O241 1.943 . S
O234 Zn233 1.962 . S
O234 C239 1.254 . S
O235 Zn232 2.031 . S
O235 C239 1.269 . S
O236 Zn233 1.986 . S
O236 C243 1.262 . S
O237 Zn232 2.049 . S
O237 C245 1.260 . S
O238 Zn233 1.996 . S
O238 C245 1.257 . S
C239 O234 1.254 . S
C239 O235 1.269 . S
C240 O241 1.249 . S
C240 O242 1.270 . S
O241 Zn233 1.943 . S
O241 C240 1.249 . S
O242 Zn232 2.067 . S
O242 C240 1.270 . S
C243 O236 1.262 . S
C243 O244 1.232 . S
O244 C243 1.232 . S
C245 O237 1.260 . S
C245 O238 1.257 . S
Zn246 O249 2.031 . S
Zn246 O251 2.049 . S
Zn246 O256 2.067 . S
Zn247 O248 1.962 . S
Zn247 O250 1.986 . S
Zn247 O252 1.996 . S
Zn247 O255 1.943 . S
O248 Zn247 1.962 . S
O248 C253 1.254 . S
O249 Zn246 2.031 . S
O249 C253 1.269 . S
O250 Zn247 1.986 . S
O250 C257 1.262 . S
O251 Zn246 2.049 . S
O251 C259 1.260 . S
O252 Zn247 1.996 . S
O252 C259 1.257 . S
C253 O248 1.254 . S
C253 O249 1.269 . S
C254 O255 1.249 . S
C254 O256 1.270 . S
O255 Zn247 1.943 . S
O255 C254 1.249 . S
O256 Zn246 2.067 . S
O256 C254 1.270 . S
C257 O250 1.262 . S
C257 O258 1.232 . S
O258 C257 1.232 . S
C259 O251 1.260 . S
C259 O252 1.257 . S
Zn260 O263 2.031 . S
Zn260 O265 2.049 . S
Zn260 O270 2.067 . S
Zn261 O262 1.962 . S
Zn261 O264 1.986 . S
Zn261 O266 1.996 . S
Zn261 O269 1.943 . S
O262 Zn261 1.962 . S
O262 C267 1.254 . S
O263 Zn260 2.031 . S
O263 C267 1.269 . S
O264 Zn261 1.986 . S
O264 C271 1.262 . S
O265 Zn260 2.049 . S
O265 C273 1.260 . S
O266 Zn261 1.996 . S
O266 C273 1.257 . S
C267 O262 1.254 . S
C267 O263 1.269 . S
C268 O269 1.249 . S
C268 O270 1.270 . S
O269 Zn261 1.943 . S
O269 C268 1.249 . S
O270 Zn260 2.067 . S
O270 C268 1.270 . S
C271 O264 1.262 . S
C271 O272 1.232 . S
O272 C271 1.232 . S
C273 O265 1.260 . S
C273 O266 1.257 . S
Zn274 O277 2.031 . S
Zn274 O279 2.049 . S
Zn274 O284 2.067 . S
Zn275 O276 1.962 . S
Zn275 O278 1.986 . S
Zn275 O280 1.996 1_545 S
Zn275 O283 1.943 . S
O276 Zn275 1.962 . S
O276 C281 1.254 . S
O277 Zn274 2.031 . S
O277 C281 1.269 1_565 S
O278 Zn275 1.986 . S
O278 C285 1.262 . S
O279 Zn274 2.049 . S
O279 C287 1.260 . S
O280 Zn275 1.996 1_565 S
O280 C287 1.257 . S
C281 O276 1.254 . S
C281 O277 1.269 1_545 S
C282 O283 1.221 1_565 S
C282 O284 1.270 . S
O283 Zn275 1.943 . S
O283 C282 1.221 1_545 S
O284 Zn274 2.067 . S
O284 C282 1.270 . S
C285 O278 1.262 . S
C285 O286 1.232 . S
O286 C285 1.232 . S
C287 O279 1.260 . S
C287 O280 1.257 . S
Zn288 O291 2.031 . S
Zn288 O293 2.049 . S
Zn288 O298 2.067 1_455 S
Zn289 O290 1.962 . S
Zn289 O292 1.986 . S
Zn289 O294 1.996 . S
Zn289 O297 1.943 . S
O290 Zn289 1.962 . S
O290 C295 1.254 . S
O291 Zn288 2.031 . S
O291 C295 1.269 . S
O292 Zn289 1.986 . S
O292 C299 1.262 . S
O293 Zn288 2.049 . S
O293 C301 1.260 . S
O294 Zn289 1.996 . S
O294 C301 1.257 . S
C295 O290 1.254 . S
C295 O291 1.269 . S
C296 O297 1.249 1_655 S
C296 O298 1.270 . S
O297 Zn289 1.943 . S
O297 C296 1.249 1_455 S
O298 Zn288 2.067 1_655 S
O298 C296 1.270 . S
C299 O292 1.262 . S
C299 O300 1.232 . S
O300 C299 1.232 . S
C301 O293 1.260 . S
C301 O294 1.257 . S
Zn302 O305 2.031 . S
Zn302 O307 2.049 . S
Zn302 O312 2.067 . S
Zn303 O304 1.962 . S
Zn303 O306 1.986 . S
Zn303 O308 1.996 . S
Zn303 O311 1.943 . S
O304 Zn303 1.962 . S
O304 C309 1.254 . S
O305 Zn302 2.031 . S
O305 C309 1.269 . S
O306 Zn303 1.986 . S
O306 C313 1.262 . S
O307 Zn302 2.049 . S
O307 C315 1.260 . S
O308 Zn303 1.996 . S
O308 C315 1.257 . S
C309 O304 1.254 . S
C309 O305 1.269 . S
C310 O311 1.249 . S
C310 O312 1.270 . S
O311 Zn303 1.943 . S
O311 C310 1.249 . S
O312 Zn302 2.067 . S
O312 C310 1.270 . S
C313 O306 1.262 . S
C313 O314 1.232 . S
O314 C313 1.232 . S
C315 O307 1.260 . S
C315 O308 1.257 . S
Zn316 O319 2.031 1_655 S
Zn316 O321 2.049 . S
Zn316 O326 2.067 . S
Zn317 O318 1.962 . S
Zn317 O320 1.986 . S
Zn317 O322 1.996 1_455 S
Zn317 O325 1.943 . S
O318 Zn317 1.962 . S
O318 C323 1.254 . S
O319 Zn316 2.031 1_455 S
O319 C323 1.269 . S
O320 Zn317 1.986 . S
O320 C327 1.262 . S
O321 Zn316 2.049 . S
O321 C329 1.260 . S
O322 Zn317 1.996 1_655 S
O322 C329 1.257 . S
C323 O318 1.254 . S
C323 O319 1.269 . S
C324 O325 1.249 . S
C324 O326 1.270 1_455 S
O325 Zn317 1.943 . S
O325 C324 1.249 . S
O326 Zn316 2.067 . S
O326 C324 1.270 1_655 S
C327 O320 1.262 . S
C327 O328 1.232 . S
O328 C327 1.232 . S
C329 O321 1.260 . S
C329 O322 1.257 . S
Zn330 O333 2.031 . S
Zn330 O335 2.049 . S
Zn330 O340 2.067 . S
Zn331 O332 1.962 . S
Zn331 O334 1.986 . S
Zn331 O336 1.996 . S
Zn331 O339 1.943 . S
O332 Zn331 1.962 . S
O332 C337 1.254 . S
O333 Zn330 2.031 . S
O333 C337 1.269 . S
O334 Zn331 1.986 . S
O334 C341 1.262 . S
O335 Zn330 2.049 . S
O335 C343 1.260 . S
O336 Zn331 1.996 . S
O336 C343 1.257 . S
C337 O332 1.254 . S
C337 O333 1.269 . S
C338 O339 1.249 . S
C338 O340 1.270 . S
O339 Zn331 1.943 . S
O339 C338 1.249 . S
O340 Zn330 2.067 . S
O340 C338 1.270 . S
C341 O334 1.262 . S
C341 O342 1.232 . S
O342 C341 1.232 . S
C343 O335 1.260 . S
C343 O336 1.257 . S
H344 C352 0.929 . S
H345 C354 0.930 . S
H346 C356 0.930 . S
H347 C359 0.929 . S
H348 C362 0.930 . S
H349 C364 0.960 . S
H350 C364 0.960 . S
H351 C364 0.960 . S
C352 H344 0.929 . S
C352 C353 1.377 . S
C352 C354 1.384 . S
C353 C352 1.377 . S
C353 C359 1.390 . S
C354 H345 0.930 . S
C354 C352 1.384 . S
C354 C355 1.372 . S
C355 C354 1.372 . S
C355 C356 1.400 . S
C355 C360 1.490 . S
C356 H346 0.930 . S
C356 C355 1.400 . S
C356 C359 1.386 . S
H357 C373 0.930 . S
H358 C374 0.931 . S
C359 H347 0.929 . S
C359 C353 1.390 . S
C359 C356 1.386 . S
C360 C355 1.490 . S
C360 C362 1.395 . S
C360 C363 1.403 . S
H361 C367 0.930 . S
C362 H348 0.930 . S
C362 C360 1.395 . S
C362 C365 1.403 . S
C363 C360 1.403 . S
C363 C364 1.524 . S
C363 C367 1.400 . S
C364 H349 0.960 . S
C364 H350 0.960 . S
C364 H351 0.960 . S
C364 C363 1.524 . S
C365 C362 1.403 . S
C365 C366 1.392 . S
C365 C369 1.495 . S
C366 C365 1.392 . S
C366 C367 1.385 . S
C366 C368 1.478 . S
C367 H361 0.930 . S
C367 C363 1.400 . S
C367 C366 1.385 . S
C368 C366 1.478 . S
C368 C370 1.381 . S
C368 C374 1.383 . S
C369 C365 1.495 . S
C369 H375 0.959 . S
C369 H376 0.961 . S
C369 H377 0.960 . S
C370 C368 1.381 . S
C370 C371 1.394 . S
C370 H378 0.930 . S
C371 C370 1.394 . S
C371 C372 1.383 . S
C371 H379 0.929 . S
C372 C371 1.383 . S
C372 C373 1.377 . S
C373 H357 0.930 . S
C373 C372 1.377 . S
C373 C374 1.379 . S
C374 H358 0.931 . S
C374 C368 1.383 . S
C374 C373 1.379 . S
H375 C369 0.959 . S
H376 C369 0.961 . S
H377 C369 0.960 . S
H378 C370 0.930 . S
H379 C371 0.929 . S
H380 C388 0.929 1_655 S
H381 C390 0.930 . S
H382 C392 0.930 . S
H383 C395 0.929 . S
H384 C398 0.930 . S
H385 C400 0.960 . S
H386 C400 0.960 . S
H387 C400 0.960 . S
C388 H380 0.929 1_455 S
C388 C389 1.377 . S
C388 C390 1.384 . S
C389 C388 1.377 . S
C389 C395 1.390 . S
C390 H381 0.930 . S
C390 C388 1.384 . S
C390 C391 1.372 . S
C391 C390 1.372 . S
C391 C392 1.400 . S
C391 C396 1.490 . S
C392 H382 0.930 . S
C392 C391 1.400 . S
C392 C395 1.386 . S
H393 C409 0.930 . S
H394 C410 0.931 . S
C395 H383 0.929 . S
C395 C389 1.390 . S
C395 C392 1.386 . S
C396 C391 1.490 . S
C396 C398 1.395 . S
C396 C399 1.403 . S
H397 C403 0.930 . S
C398 H384 0.930 . S
C398 C396 1.395 . S
C398 C401 1.403 . S
C399 C396 1.403 . S
C399 C400 1.524 . S
C399 C403 1.400 . S
C400 H385 0.960 . S
C400 H386 0.960 . S
C400 H387 0.960 . S
C400 C399 1.524 . S
C401 C398 1.403 . S
C401 C402 1.392 . S
C401 C405 1.495 . S
C402 C401 1.392 . S
C402 C403 1.385 . S
C402 C404 1.478 . S
C403 H397 0.930 . S
C403 C399 1.400 . S
C403 C402 1.385 . S
C404 C402 1.478 . S
C404 C406 1.381 . S
C404 C410 1.383 . S
C405 C401 1.495 . S
C405 H411 0.959 . S
C405 H412 0.961 . S
C405 H413 0.960 . S
C406 C404 1.381 . S
C406 C407 1.394 . S
C406 H414 0.930 . S
C407 C406 1.394 . S
C407 C408 1.383 . S
C407 H415 0.929 . S
C408 C407 1.383 . S
C408 C409 1.377 . S
C409 H393 0.930 . S
C409 C408 1.377 . S
C409 C410 1.379 . S
C410 H394 0.931 . S
C410 C404 1.383 . S
C410 C409 1.379 . S
H411 C405 0.959 . S
H412 C405 0.961 . S
H413 C405 0.960 . S
H414 C406 0.930 . S
H415 C407 0.929 . S
H416 C424 0.929 . S
H417 C426 0.930 . S
H418 C428 0.930 . S
H419 C431 0.929 . S
H420 C434 0.930 . S
H421 C436 0.960 . S
H422 C436 0.960 . S
H423 C436 0.960 . S
C424 H416 0.929 . S
C424 C425 1.377 . S
C424 C426 1.384 . S
C425 C424 1.377 . S
C425 C431 1.390 . S
C426 H417 0.930 . S
C426 C424 1.384 . S
C426 C427 1.372 . S
C427 C426 1.372 . S
C427 C428 1.400 . S
C427 C432 1.490 . S
C428 H418 0.930 . S
C428 C427 1.400 . S
C428 C431 1.386 . S
H429 C445 0.930 . S
H430 C446 0.931 . S
C431 H419 0.929 . S
C431 C425 1.390 . S
C431 C428 1.386 . S
C432 C427 1.490 . S
C432 C434 1.395 . S
C432 C435 1.403 . S
H433 C439 0.930 . S
C434 H420 0.930 . S
C434 C432 1.395 . S
C434 C437 1.403 . S
C435 C432 1.403 . S
C435 C436 1.524 . S
C435 C439 1.400 . S
C436 H421 0.960 . S
C436 H422 0.960 . S
C436 H423 0.960 . S
C436 C435 1.524 . S
C437 C434 1.403 . S
C437 C438 1.392 . S
C437 C441 1.495 . S
C438 C437 1.392 . S
C438 C439 1.385 . S
C438 C440 1.478 . S
C439 H433 0.930 . S
C439 C435 1.400 . S
C439 C438 1.385 . S
C440 C438 1.478 . S
C440 C442 1.381 . S
C440 C446 1.383 . S
C441 C437 1.495 . S
C441 H447 0.959 . S
C441 H448 0.961 . S
C441 H449 0.960 . S
C442 C440 1.381 . S
C442 C443 1.394 . S
C442 H450 0.930 . S
C443 C442 1.394 . S
C443 C444 1.383 . S
C443 H451 0.929 . S
C444 C443 1.383 . S
C444 C445 1.377 . S
C445 H429 0.930 . S
C445 C444 1.377 . S
C445 C446 1.379 . S
C446 H430 0.931 . S
C446 C440 1.383 . S
C446 C445 1.379 . S
H447 C441 0.959 . S
H448 C441 0.961 . S
H449 C441 0.960 . S
H450 C442 0.930 . S
H451 C443 0.929 . S
H452 C460 0.929 . S
H453 C462 0.930 . S
H454 C464 0.930 . S
H455 C467 0.929 . S
H456 C470 0.924 1_545 S
H457 C472 0.960 . S
H458 C472 0.960 . S
H459 C472 0.960 1_455 S
C460 H452 0.929 . S
C460 C461 1.377 . S
C460 C462 1.384 . S
C461 C460 1.377 . S
C461 C467 1.390 . S
C462 H453 0.930 . S
C462 C460 1.384 . S
C462 C463 1.372 . S
C463 C462 1.372 . S
C463 C464 1.400 . S
C463 C468 1.490 . S
C464 H454 0.930 . S
C464 C463 1.400 . S
C464 C467 1.386 . S
H465 C481 0.930 . S
H466 C482 0.931 . S
C467 H455 0.929 . S
C467 C461 1.390 . S
C467 C464 1.386 . S
C468 C463 1.490 . S
C468 C470 1.407 . S
C468 C471 1.403 . S
H469 C475 0.930 . S
C470 H456 0.924 1_565 S
C470 C468 1.407 . S
C470 C473 1.397 1_565 S
C471 C468 1.403 . S
C471 C472 1.524 1_455 S
C471 C475 1.400 1_455 S
C472 H457 0.960 . S
C472 H458 0.960 . S
C472 H459 0.960 1_655 S
C472 C471 1.524 1_655 S
C473 C470 1.397 1_545 S
C473 C474 1.389 1_545 S
C473 C477 1.495 . S
C474 C473 1.389 1_565 S
C474 C475 1.386 1_455 S
C474 C476 1.471 1_465 S
C475 H469 0.930 . S
C475 C471 1.400 1_655 S
C475 C474 1.386 1_655 S
C476 C474 1.471 1_645 S
C476 C478 1.396 . S
C476 C482 1.376 1_545 S
C477 C473 1.495 . S
C477 H483 0.959 . S
C477 H484 0.961 . S
C477 H485 0.960 . S
C478 C476 1.396 . S
C478 C479 1.394 . S
C478 H486 0.930 . S
C479 C478 1.394 . S
C479 C480 1.383 . S
C479 H487 0.929 . S
C480 C479 1.383 . S
C480 C481 1.377 1_545 S
C481 H465 0.930 . S
C481 C480 1.377 1_565 S
C481 C482 1.379 . S
C482 H466 0.931 . S
C482 C476 1.376 1_565 S
C482 C481 1.379 . S
H483 C477 0.959 . S
H484 C477 0.961 . S
H485 C477 0.960 . S
H486 C478 0.930 . S
H487 C479 0.929 . S
H488 C496 0.929 . S
H489 C498 0.930 . S
H490 C500 0.930 . S
H491 C503 0.929 . S
H492 C506 0.930 . S
H493 C508 0.960 . S
H494 C508 0.960 . S
H495 C508 0.960 . S
C496 H488 0.929 . S
C496 C497 1.377 . S
C496 C498 1.384 . S
C497 C496 1.377 . S
C497 C503 1.390 . S
C498 H489 0.930 . S
C498 C496 1.384 . S
C498 C499 1.372 . S
C499 C498 1.372 . S
C499 C500 1.400 . S
C499 C504 1.490 . S
C500 H490 0.930 . S
C500 C499 1.400 . S
C500 C503 1.386 . S
H501 C517 0.930 . S
H502 C518 0.931 . S
C503 H491 0.929 . S
C503 C497 1.390 . S
C503 C500 1.386 . S
C504 C499 1.490 . S
C504 C506 1.395 . S
C504 C507 1.403 . S
H505 C511 0.930 . S
C506 H492 0.930 . S
C506 C504 1.395 . S
C506 C509 1.403 . S
C507 C504 1.403 . S
C507 C508 1.524 . S
C507 C511 1.400 . S
C508 H493 0.960 . S
C508 H494 0.960 . S
C508 H495 0.960 . S
C508 C507 1.524 . S
C509 C506 1.403 . S
C509 C510 1.392 . S
C509 C513 1.495 . S
C510 C509 1.392 . S
C510 C511 1.385 . S
C510 C512 1.478 . S
C511 H505 0.930 . S
C511 C507 1.400 . S
C511 C510 1.385 . S
C512 C510 1.478 . S
C512 C514 1.381 . S
C512 C518 1.383 . S
C513 C509 1.495 . S
C513 H519 0.959 . S
C513 H520 0.961 . S
C513 H521 0.960 . S
C514 C512 1.381 . S
C514 C515 1.394 . S
C514 H522 0.930 . S
C515 C514 1.394 . S
C515 C516 1.383 . S
C515 H523 0.929 . S
C516 C515 1.383 . S
C516 C517 1.377 . S
C517 H501 0.930 . S
C517 C516 1.377 . S
C517 C518 1.379 . S
C518 H502 0.931 . S
C518 C512 1.383 . S
C518 C517 1.379 . S
H519 C513 0.959 . S
H520 C513 0.961 . S
H521 C513 0.960 . S
H522 C514 0.930 . S
H523 C515 0.929 . S
H524 C532 0.929 . S
H525 C534 0.930 . S
H526 C536 0.930 . S
H527 C539 0.929 . S
H528 C542 0.930 . S
H529 C544 0.960 . S
H530 C544 0.960 . S
H531 C544 0.960 . S
C532 H524 0.929 . S
C532 C533 1.377 . S
C532 C534 1.384 . S
C533 C532 1.377 . S
C533 C539 1.390 . S
C534 H525 0.930 . S
C534 C532 1.384 . S
C534 C535 1.372 . S
C535 C534 1.372 . S
C535 C536 1.400 . S
C535 C540 1.490 . S
C536 H526 0.930 . S
C536 C535 1.400 . S
C536 C539 1.386 . S
H537 C553 0.930 . S
H538 C554 0.931 . S
C539 H527 0.929 . S
C539 C533 1.390 . S
C539 C536 1.386 . S
C540 C535 1.490 . S
C540 C542 1.395 . S
C540 C543 1.403 . S
H541 C547 0.930 . S
C542 H528 0.930 . S
C542 C540 1.395 . S
C542 C545 1.403 . S
C543 C540 1.403 . S
C543 C544 1.524 . S
C543 C547 1.400 . S
C544 H529 0.960 . S
C544 H530 0.960 . S
C544 H531 0.960 . S
C544 C543 1.524 . S
C545 C542 1.403 . S
C545 C546 1.392 . S
C545 C549 1.495 . S
C546 C545 1.392 . S
C546 C547 1.385 . S
C546 C548 1.478 . S
C547 H541 0.930 . S
C547 C543 1.400 . S
C547 C546 1.385 . S
C548 C546 1.478 . S
C548 C550 1.381 . S
C548 C554 1.383 . S
C549 C545 1.495 . S
C549 H555 0.959 . S
C549 H556 0.961 . S
C549 H557 0.960 . S
C550 C548 1.381 . S
C550 C551 1.394 . S
C550 H558 0.930 . S
C551 C550 1.394 . S
C551 C552 1.383 . S
C551 H559 0.929 . S
C552 C551 1.383 . S
C552 C553 1.377 . S
C553 H537 0.930 . S
C553 C552 1.377 . S
C553 C554 1.379 . S
C554 H538 0.931 . S
C554 C548 1.383 . S
C554 C553 1.379 . S
H555 C549 0.959 . S
H556 C549 0.961 . S
H557 C549 0.960 . S
H558 C550 0.930 . S
H559 C551 0.929 . S
H560 C568 0.929 . S
H561 C570 0.930 . S
H562 C572 0.930 . S
H563 C575 0.929 . S
H564 C578 0.930 . S
H565 C580 0.960 . S
H566 C580 0.960 . S
H567 C580 0.960 . S
C568 H560 0.929 . S
C568 C569 1.377 . S
C568 C570 1.384 . S
C569 C568 1.377 . S
C569 C575 1.390 . S
C570 H561 0.930 . S
C570 C568 1.384 . S
C570 C571 1.372 . S
C571 C570 1.372 . S
C571 C572 1.400 . S
C571 C576 1.490 . S
C572 H562 0.930 . S
C572 C571 1.400 . S
C572 C575 1.386 . S
H573 C589 0.930 . S
H574 C590 0.931 . S
C575 H563 0.929 . S
C575 C569 1.390 . S
C575 C572 1.386 . S
C576 C571 1.490 . S
C576 C578 1.395 . S
C576 C579 1.403 . S
H577 C583 0.930 . S
C578 H564 0.930 . S
C578 C576 1.395 . S
C578 C581 1.403 . S
C579 C576 1.403 . S
C579 C580 1.524 . S
C579 C583 1.400 . S
C580 H565 0.960 . S
C580 H566 0.960 . S
C580 H567 0.960 . S
C580 C579 1.524 . S
C581 C578 1.403 . S
C581 C582 1.392 . S
C581 C585 1.495 . S
C582 C581 1.392 . S
C582 C583 1.385 . S
C582 C584 1.478 . S
C583 H577 0.930 . S
C583 C579 1.400 . S
C583 C582 1.385 . S
C584 C582 1.478 . S
C584 C586 1.381 . S
C584 C590 1.383 . S
C585 C581 1.495 . S
C585 H591 0.959 . S
C585 H592 0.961 . S
C585 H593 0.960 . S
C586 C584 1.381 . S
C586 C587 1.394 . S
C586 H594 0.930 . S
C587 C586 1.394 . S
C587 C588 1.383 . S
C587 H595 0.929 . S
C588 C587 1.383 . S
C588 C589 1.377 . S
C589 H573 0.930 . S
C589 C588 1.377 . S
C589 C590 1.379 . S
C590 H574 0.931 . S
C590 C584 1.383 . S
C590 C589 1.379 . S
H591 C585 0.959 . S
H592 C585 0.961 . S
H593 C585 0.960 . S
H594 C586 0.930 . S
H595 C587 0.929 . S
H596 C604 0.929 . S
H597 C606 0.930 . S
H598 C608 0.930 . S
H599 C611 0.929 . S
H600 C614 0.930 . S
H601 C616 0.960 1_545 S
H602 C616 0.960 1_545 S
H603 C616 0.960 . S
C604 H596 0.929 . S
C604 C605 1.377 . S
C604 C606 1.384 . S
C605 C604 1.377 . S
C605 C611 1.390 . S
C606 H597 0.930 . S
C606 C604 1.384 . S
C606 C607 1.372 . S
C607 C606 1.372 . S
C607 C608 1.400 . S
C607 C612 1.490 . S
C608 H598 0.930 . S
C608 C607 1.400 . S
C608 C611 1.386 . S
H609 C625 0.930 . S
H610 C626 0.931 . S
C611 H599 0.929 . S
C611 C605 1.390 . S
C611 C608 1.386 . S
C612 C607 1.490 . S
C612 C614 1.395 . S
C612 C615 1.403 . S
H613 C619 0.930 . S
C614 H600 0.930 . S
C614 C612 1.395 . S
C614 C617 1.403 . S
C615 C612 1.403 . S
C615 C616 1.524 . S
C615 C619 1.400 . S
C616 H601 0.960 1_565 S
C616 H602 0.960 1_565 S
C616 H603 0.960 . S
C616 C615 1.524 . S
C617 C614 1.403 . S
C617 C618 1.392 . S
C617 C621 1.495 . S
C618 C617 1.392 . S
C618 C619 1.385 . S
C618 C620 1.478 . S
C619 H613 0.930 . S
C619 C615 1.400 . S
C619 C618 1.385 . S
C620 C618 1.478 . S
C620 C622 1.381 . S
C620 C626 1.383 . S
C621 C617 1.495 . S
C621 H627 0.959 . S
C621 H628 0.961 . S
C621 H629 0.960 . S
C622 C620 1.381 . S
C622 C623 1.394 . S
C622 H630 0.910 1_565 S
C623 C622 1.394 . S
C623 C624 1.383 . S
C623 H631 0.929 1_565 S
C624 C623 1.383 . S
C624 C625 1.377 . S
C625 H609 0.930 . S
C625 C624 1.377 . S
C625 C626 1.379 . S
C626 H610 0.931 . S
C626 C620 1.383 . S
C626 C625 1.379 . S
H627 C621 0.959 . S
H628 C621 0.961 . S
H629 C621 0.960 . S
H630 C622 0.910 1_545 S
H631 C623 0.929 1_545 S
H632 C640 0.929 . S
H633 C642 0.930 . S
H634 C644 0.930 . S
H635 C647 0.929 . S
H636 C650 0.930 . S
H637 C652 0.960 . S
H638 C652 0.960 . S
H639 C652 0.960 . S
C640 H632 0.929 . S
C640 C641 1.377 . S
C640 C642 1.384 . S
C641 C640 1.377 . S
C641 C647 1.390 . S
C642 H633 0.930 . S
C642 C640 1.384 . S
C642 C643 1.372 . S
C643 C642 1.372 . S
C643 C644 1.400 . S
C643 C648 1.490 . S
C644 H634 0.930 . S
C644 C643 1.400 . S
C644 C647 1.386 . S
H645 C661 0.930 . S
H646 C662 0.931 . S
C647 H635 0.929 . S
C647 C641 1.390 . S
C647 C644 1.386 . S
C648 C643 1.490 . S
C648 C650 1.395 . S
C648 C651 1.403 . S
H649 C655 0.930 . S
C650 H636 0.930 . S
C650 C648 1.395 . S
C650 C653 1.403 . S
C651 C648 1.403 . S
C651 C652 1.524 . S
C651 C655 1.400 . S
C652 H637 0.960 . S
C652 H638 0.960 . S
C652 H639 0.960 . S
C652 C651 1.524 . S
C653 C650 1.403 . S
C653 C654 1.392 . S
C653 C657 1.495 . S
C654 C653 1.392 . S
C654 C655 1.385 . S
C654 C656 1.478 . S
C655 H649 0.930 . S
C655 C651 1.400 . S
C655 C654 1.385 . S
C656 C654 1.478 . S
C656 C658 1.381 . S
C656 C662 1.383 . S
C657 C653 1.495 . S
C657 H663 0.959 . S
C657 H664 0.961 . S
C657 H665 0.960 . S
C658 C656 1.381 . S
C658 C659 1.394 . S
C658 H666 0.930 . S
C659 C658 1.394 . S
C659 C660 1.383 . S
C659 H667 0.929 . S
C660 C659 1.383 . S
C660 C661 1.377 . S
C661 H645 0.930 . S
C661 C660 1.377 . S
C661 C662 1.379 . S
C662 H646 0.931 . S
C662 C656 1.383 . S
C662 C661 1.379 . S
H663 C657 0.959 . S
H664 C657 0.961 . S
H665 C657 0.960 . S
H666 C658 0.930 . S
H667 C659 0.929 . S
H668 C676 0.929 . S
H669 C678 0.930 . S
H670 C680 0.930 . S
H671 C683 0.929 . S
H672 C686 0.930 . S
H673 C688 0.960 . S
H674 C688 0.960 . S
H675 C688 0.960 . S
C676 H668 0.929 . S
C676 C677 1.377 . S
C676 C678 1.384 . S
C677 C676 1.377 . S
C677 C683 1.390 . S
C678 H669 0.930 . S
C678 C676 1.384 . S
C678 C679 1.372 . S
C679 C678 1.372 . S
C679 C680 1.400 . S
C679 C684 1.490 . S
C680 H670 0.930 . S
C680 C679 1.400 . S
C680 C683 1.386 . S
H681 C697 0.930 . S
H682 C698 0.931 . S
C683 H671 0.929 . S
C683 C677 1.390 . S
C683 C680 1.386 . S
C684 C679 1.490 . S
C684 C686 1.395 . S
C684 C687 1.403 . S
H685 C691 0.930 . S
C686 H672 0.930 . S
C686 C684 1.395 . S
C686 C689 1.403 . S
C687 C684 1.403 . S
C687 C688 1.524 . S
C687 C691 1.400 . S
C688 H673 0.960 . S
C688 H674 0.960 . S
C688 H675 0.960 . S
C688 C687 1.524 . S
C689 C686 1.403 . S
C689 C690 1.392 . S
C689 C693 1.495 . S
C690 C689 1.392 . S
C690 C691 1.385 . S
C690 C692 1.478 . S
C691 H685 0.930 . S
C691 C687 1.400 . S
C691 C690 1.385 . S
C692 C690 1.478 . S
C692 C694 1.381 . S
C692 C698 1.383 . S
C693 C689 1.495 . S
C693 H699 0.959 . S
C693 H700 0.961 . S
C693 H701 0.960 . S
C694 C692 1.381 . S
C694 C695 1.394 . S
C694 H702 0.930 . S
C695 C694 1.394 . S
C695 C696 1.383 . S
C695 H703 0.929 . S
C696 C695 1.383 . S
C696 C697 1.377 . S
C697 H681 0.930 . S
C697 C696 1.377 . S
C697 C698 1.379 . S
C698 H682 0.931 . S
C698 C692 1.383 . S
C698 C697 1.379 . S
H699 C693 0.959 . S
H700 C693 0.961 . S
H701 C693 0.960 . S
H702 C694 0.930 . S
H703 C695 0.929 . S
H704 C712 0.929 . S
H705 C714 0.930 . S
H706 C716 0.930 . S
H707 C719 0.929 . S
H708 C722 0.930 . S
H709 C724 0.960 . S
H710 C724 0.960 . S
H711 C724 0.960 . S
C712 H704 0.929 . S
C712 C713 1.377 . S
C712 C714 1.384 . S
C713 C712 1.377 . S
C713 C719 1.390 . S
C714 H705 0.930 . S
C714 C712 1.384 . S
C714 C715 1.372 . S
C715 C714 1.372 . S
C715 C716 1.400 . S
C715 C720 1.490 . S
C716 H706 0.930 . S
C716 C715 1.400 . S
C716 C719 1.386 . S
H717 C733 0.930 . S
H718 C734 0.931 . S
C719 H707 0.929 . S
C719 C713 1.390 . S
C719 C716 1.386 . S
C720 C715 1.490 . S
C720 C722 1.395 . S
C720 C723 1.403 . S
H721 C727 0.930 . S
C722 H708 0.930 . S
C722 C720 1.395 . S
C722 C725 1.403 . S
C723 C720 1.403 . S
C723 C724 1.524 . S
C723 C727 1.400 . S
C724 H709 0.960 . S
C724 H710 0.960 . S
C724 H711 0.960 . S
C724 C723 1.524 . S
C725 C722 1.403 . S
C725 C726 1.392 . S
C725 C729 1.495 . S
C726 C725 1.392 . S
C726 C727 1.385 . S
C726 C728 1.478 . S
C727 H721 0.930 . S
C727 C723 1.400 . S
C727 C726 1.385 . S
C728 C726 1.478 . S
C728 C730 1.381 . S
C728 C734 1.383 . S
C729 C725 1.495 . S
C729 H735 0.959 . S
C729 H736 0.961 . S
C729 H737 0.960 . S
C730 C728 1.381 . S
C730 C731 1.394 . S
C730 H738 0.930 . S
C731 C730 1.394 . S
C731 C732 1.383 . S
C731 H739 0.929 . S
C732 C731 1.383 . S
C732 C733 1.377 . S
C733 H717 0.930 . S
C733 C732 1.377 . S
C733 C734 1.379 . S
C734 H718 0.931 . S
C734 C728 1.383 . S
C734 C733 1.379 . S
H735 C729 0.959 . S
H736 C729 0.961 . S
H737 C729 0.960 . S
H738 C730 0.930 . S
H739 C731 0.929 . S
H740 C748 0.929 . S
H741 C750 0.930 . S
H742 C752 0.930 . S
H743 C755 0.929 . S
H744 C758 0.930 . S
H745 C760 0.960 . S
H746 C760 0.960 . S
H747 C760 0.960 . S
C748 H740 0.929 . S
C748 C749 1.377 . S
C748 C750 1.384 . S
C749 C748 1.377 . S
C749 C755 1.390 . S
C750 H741 0.930 . S
C750 C748 1.384 . S
C750 C751 1.372 . S
C751 C750 1.372 . S
C751 C752 1.400 . S
C751 C756 1.490 . S
C752 H742 0.930 . S
C752 C751 1.400 . S
C752 C755 1.386 . S
H753 C769 0.930 . S
H754 C770 0.931 . S
C755 H743 0.929 . S
C755 C749 1.390 . S
C755 C752 1.386 . S
C756 C751 1.490 . S
C756 C758 1.395 . S
C756 C759 1.403 . S
H757 C763 0.930 . S
C758 H744 0.930 . S
C758 C756 1.395 . S
C758 C761 1.403 . S
C759 C756 1.403 . S
C759 C760 1.524 . S
C759 C763 1.400 . S
C760 H745 0.960 . S
C760 H746 0.960 . S
C760 H747 0.960 . S
C760 C759 1.524 . S
C761 C758 1.403 . S
C761 C762 1.392 . S
C761 C765 1.495 . S
C762 C761 1.392 . S
C762 C763 1.385 . S
C762 C764 1.478 . S
C763 H757 0.930 . S
C763 C759 1.400 . S
C763 C762 1.385 . S
C764 C762 1.478 . S
C764 C766 1.381 . S
C764 C770 1.383 . S
C765 C761 1.495 . S
C765 H771 0.959 . S
C765 H772 0.961 . S
C765 H773 0.960 . S
C766 C764 1.381 . S
C766 C767 1.394 . S
C766 H774 0.930 . S
C767 C766 1.394 . S
C767 C768 1.383 . S
C767 H775 0.929 . S
C768 C767 1.383 . S
C768 C769 1.377 . S
C769 H753 0.930 . S
C769 C768 1.377 . S
C769 C770 1.379 . S
C770 H754 0.931 . S
C770 C764 1.383 . S
C770 C769 1.379 . S
H771 C765 0.959 . S
H772 C765 0.961 . S
H773 C765 0.960 . S
H774 C766 0.930 . S
H775 C767 0.929 . S
H776 C784 0.929 . S
H777 C786 0.930 . S
H778 C788 0.930 . S
H779 C791 0.929 . S
H780 C794 0.930 . S
H781 C796 0.960 . S
H782 C796 0.960 . S
H783 C796 0.960 . S
C784 H776 0.929 . S
C784 C785 1.377 . S
C784 C786 1.384 . S
C785 C784 1.377 . S
C785 C791 1.390 . S
C786 H777 0.930 . S
C786 C784 1.384 . S
C786 C787 1.372 . S
C787 C786 1.372 . S
C787 C788 1.400 . S
C787 C792 1.490 . S
C788 H778 0.930 . S
C788 C787 1.400 . S
C788 C791 1.386 . S
H789 C805 0.930 . S
H790 C806 0.931 . S
C791 H779 0.929 . S
C791 C785 1.390 . S
C791 C788 1.386 . S
C792 C787 1.490 . S
C792 C794 1.395 . S
C792 C795 1.403 . S
H793 C799 0.930 . S
C794 H780 0.930 . S
C794 C792 1.395 . S
C794 C797 1.403 . S
C795 C792 1.403 . S
C795 C796 1.524 . S
C795 C799 1.400 . S
C796 H781 0.960 . S
C796 H782 0.960 . S
C796 H783 0.960 . S
C796 C795 1.524 . S
C797 C794 1.403 . S
C797 C798 1.392 . S
C797 C801 1.495 . S
C798 C797 1.392 . S
C798 C799 1.385 . S
C798 C800 1.478 . S
C799 H793 0.930 . S
C799 C795 1.400 . S
C799 C798 1.385 . S
C800 C798 1.478 . S
C800 C802 1.381 . S
C800 C806 1.383 . S
C801 C797 1.495 . S
C801 H807 0.959 . S
C801 H808 0.961 . S
C801 H809 0.960 . S
C802 C800 1.381 . S
C802 C803 1.394 . S
C802 H810 0.930 . S
C803 C802 1.394 . S
C803 C804 1.383 . S
C803 H811 0.929 . S
C804 C803 1.383 . S
C804 C805 1.377 . S
C805 H789 0.930 . S
C805 C804 1.377 . S
C805 C806 1.379 . S
C806 H790 0.931 . S
C806 C800 1.383 . S
C806 C805 1.379 . S
H807 C801 0.959 . S
H808 C801 0.961 . S
H809 C801 0.960 . S
H810 C802 0.930 . S
H811 C803 0.929 . S
H812 C820 0.929 . S
H813 C822 0.930 . S
H814 C824 0.930 . S
H815 C827 0.929 . S
H816 C830 0.930 . S
H817 C832 0.960 . S
H818 C832 0.960 . S
H819 C832 0.960 . S
C820 H812 0.929 . S
C820 C821 1.377 . S
C820 C822 1.384 . S
C821 C820 1.377 . S
C821 C827 1.390 . S
C822 H813 0.930 . S
C822 C820 1.384 . S
C822 C823 1.372 . S
C823 C822 1.372 . S
C823 C824 1.400 . S
C823 C828 1.490 . S
C824 H814 0.930 . S
C824 C823 1.400 . S
C824 C827 1.386 . S
H825 C841 0.930 . S
H826 C842 0.931 . S
C827 H815 0.929 . S
C827 C821 1.390 . S
C827 C824 1.386 . S
C828 C823 1.490 . S
C828 C830 1.395 . S
C828 C831 1.403 . S
H829 C835 0.930 . S
C830 H816 0.930 . S
C830 C828 1.395 . S
C830 C833 1.403 . S
C831 C828 1.403 . S
C831 C832 1.524 . S
C831 C835 1.400 . S
C832 H817 0.960 . S
C832 H818 0.960 . S
C832 H819 0.960 . S
C832 C831 1.524 . S
C833 C830 1.403 . S
C833 C834 1.392 . S
C833 C837 1.495 . S
C834 C833 1.392 . S
C834 C835 1.385 . S
C834 C836 1.478 . S
C835 H829 0.930 . S
C835 C831 1.400 . S
C835 C834 1.385 . S
C836 C834 1.478 . S
C836 C838 1.381 . S
C836 C842 1.383 . S
C837 C833 1.495 . S
C837 H843 0.959 . S
C837 H844 0.961 . S
C837 H845 0.960 . S
C838 C836 1.381 . S
C838 C839 1.394 . S
C838 H846 0.930 . S
C839 C838 1.394 . S
C839 C840 1.383 . S
C839 H847 0.929 . S
C840 C839 1.383 . S
C840 C841 1.377 . S
C841 H825 0.930 . S
C841 C840 1.377 . S
C841 C842 1.379 . S
C842 H826 0.931 . S
C842 C836 1.383 . S
C842 C841 1.379 . S
H843 C837 0.959 . S
H844 C837 0.961 . S
H845 C837 0.960 . S
H846 C838 0.930 . S
H847 C839 0.929 . S
H848 C856 0.929 . S
H849 C858 0.930 . S
H850 C860 0.930 . S
H851 C863 0.929 . S
H852 C866 0.930 . S
H853 C868 0.960 . S
H854 C868 0.960 . S
H855 C868 0.960 . S
C856 H848 0.929 . S
C856 C857 1.377 . S
C856 C858 1.384 . S
C857 C856 1.377 . S
C857 C863 1.390 . S
C858 H849 0.930 . S
C858 C856 1.384 . S
C858 C859 1.372 . S
C859 C858 1.372 . S
C859 C860 1.400 . S
C859 C864 1.490 . S
C860 H850 0.930 . S
C860 C859 1.400 . S
C860 C863 1.386 . S
H861 C877 0.930 . S
H862 C878 0.931 . S
C863 H851 0.929 . S
C863 C857 1.390 . S
C863 C860 1.386 . S
C864 C859 1.490 . S
C864 C866 1.395 . S
C864 C867 1.403 . S
H865 C871 0.930 . S
C866 H852 0.930 . S
C866 C864 1.395 . S
C866 C869 1.403 . S
C867 C864 1.403 . S
C867 C868 1.524 . S
C867 C871 1.400 . S
C868 H853 0.960 . S
C868 H854 0.960 . S
C868 H855 0.960 . S
C868 C867 1.524 . S
C869 C866 1.403 . S
C869 C870 1.392 . S
C869 C873 1.495 . S
C870 C869 1.392 . S
C870 C871 1.385 . S
C870 C872 1.478 . S
C871 H865 0.930 . S
C871 C867 1.400 . S
C871 C870 1.385 . S
C872 C870 1.478 . S
C872 C874 1.381 . S
C872 C878 1.383 . S
C873 C869 1.495 . S
C873 H879 0.959 . S
C873 H880 0.961 . S
C873 H881 0.960 . S
C874 C872 1.381 . S
C874 C875 1.394 . S
C874 H882 0.930 . S
C875 C874 1.394 . S
C875 C876 1.383 . S
C875 H883 0.929 . S
C876 C875 1.383 . S
C876 C877 1.377 . S
C877 H861 0.930 . S
C877 C876 1.377 . S
C877 C878 1.379 . S
C878 H862 0.931 . S
C878 C872 1.383 . S
C878 C877 1.379 . S
H879 C873 0.959 . S
H880 C873 0.961 . S
H881 C873 0.960 . S
H882 C874 0.930 . S
H883 C875 0.929 . S
H884 C892 0.954 . S
H885 C894 0.930 1_455 S
H886 C896 0.930 . S
H887 C899 0.929 . S
H888 C902 0.930 . S
H889 C904 0.960 . S
H890 C904 0.960 . S
H891 C904 0.960 1_655 S
C892 H884 0.954 . S
C892 C893 1.377 . S
C892 C894 1.384 . S
C893 C892 1.377 . S
C893 C899 1.390 . S
C894 H885 0.930 1_655 S
C894 C892 1.384 . S
C894 C895 1.372 . S
C895 C894 1.372 . S
C895 C896 1.400 . S
C895 C900 1.490 . S
C896 H886 0.930 . S
C896 C895 1.400 . S
C896 C899 1.386 . S
H897 C913 0.930 . S
H898 C914 0.931 . S
C899 H887 0.929 . S
C899 C893 1.390 . S
C899 C896 1.386 . S
C900 C895 1.490 . S
C900 C902 1.395 . S
C900 C903 1.403 . S
H901 C907 0.931 1_455 S
C902 H888 0.930 . S
C902 C900 1.395 . S
C902 C905 1.403 . S
C903 C900 1.403 . S
C903 C904 1.524 1_655 S
C903 C907 1.400 . S
C904 H889 0.960 . S
C904 H890 0.960 . S
C904 H891 0.960 1_455 S
C904 C903 1.524 1_455 S
C905 C902 1.403 . S
C905 C906 1.392 . S
C905 C909 1.495 . S
C906 C905 1.392 . S
C906 C907 1.384 . S
C906 C908 1.478 . S
C907 H901 0.931 1_655 S
C907 C903 1.400 . S
C907 C906 1.384 . S
C908 C906 1.478 . S
C908 C910 1.381 1_655 S
C908 C914 1.383 . S
C909 C905 1.495 . S
C909 H915 0.959 . S
C909 H916 0.961 . S
C909 H917 0.960 . S
C910 C908 1.381 1_455 S
C910 C911 1.394 . S
C910 H918 0.930 . S
C911 C910 1.394 . S
C911 C912 1.383 . S
C911 H919 0.929 . S
C912 C911 1.383 . S
C912 C913 1.377 1_455 S
C913 H897 0.930 . S
C913 C912 1.377 1_655 S
C913 C914 1.379 . S
C914 H898 0.931 . S
C914 C908 1.383 . S
C914 C913 1.379 . S
H915 C909 0.959 . S
H916 C909 0.961 . S
H917 C909 0.960 . S
H918 C910 0.930 . S
H919 C911 0.929 . S
H920 C928 0.929 . S
H921 C930 0.930 . S
H922 C932 0.930 . S
H923 C935 0.929 . S
H924 C938 0.930 . S
H925 C940 0.960 . S
H926 C940 0.960 . S
H927 C940 0.960 . S
C928 H920 0.929 . S
C928 C929 1.377 . S
C928 C930 1.384 . S
C929 C928 1.377 . S
C929 C935 1.390 . S
C930 H921 0.930 . S
C930 C928 1.384 . S
C930 C931 1.372 . S
C931 C930 1.372 . S
C931 C932 1.400 . S
C931 C936 1.490 . S
C932 H922 0.930 . S
C932 C931 1.400 . S
C932 C935 1.386 . S
H933 C949 0.930 . S
H934 C950 0.931 . S
C935 H923 0.929 . S
C935 C929 1.390 . S
C935 C932 1.386 . S
C936 C931 1.490 . S
C936 C938 1.395 . S
C936 C939 1.403 . S
H937 C943 0.930 . S
C938 H924 0.930 . S
C938 C936 1.395 . S
C938 C941 1.403 . S
C939 C936 1.403 . S
C939 C940 1.524 . S
C939 C943 1.400 . S
C940 H925 0.960 . S
C940 H926 0.960 . S
C940 H927 0.960 . S
C940 C939 1.524 . S
C941 C938 1.403 . S
C941 C942 1.392 . S
C941 C945 1.495 . S
C942 C941 1.392 . S
C942 C943 1.385 . S
C942 C944 1.478 . S
C943 H937 0.930 . S
C943 C939 1.400 . S
C943 C942 1.385 . S
C944 C942 1.478 . S
C944 C946 1.381 . S
C944 C950 1.383 . S
C945 C941 1.495 . S
C945 H951 0.959 . S
C945 H952 0.961 . S
C945 H953 0.960 . S
C946 C944 1.381 . S
C946 C947 1.394 . S
C946 H954 0.930 . S
C947 C946 1.394 . S
C947 C948 1.383 . S
C947 H955 0.929 . S
C948 C947 1.383 . S
C948 C949 1.377 . S
C949 H933 0.930 . S
C949 C948 1.377 . S
C949 C950 1.379 . S
C950 H934 0.931 . S
C950 C944 1.383 . S
C950 C949 1.379 . S
H951 C945 0.959 . S
H952 C945 0.961 . S
H953 C945 0.960 . S
H954 C946 0.930 . S
H955 C947 0.929 . S
H956 C964 0.929 . S
H957 C966 0.930 . S
H958 C968 0.930 . S
H959 C971 0.929 . S
H960 C974 0.930 . S
H961 C976 0.960 . S
H962 C976 0.960 . S
H963 C976 0.960 . S
C964 H956 0.929 . S
C964 C965 1.377 . S
C964 C966 1.384 . S
C965 C964 1.377 . S
C965 C971 1.390 . S
C966 H957 0.930 . S
C966 C964 1.384 . S
C966 C967 1.372 . S
C967 C966 1.372 . S
C967 C968 1.400 . S
C967 C972 1.490 . S
C968 H958 0.930 . S
C968 C967 1.400 . S
C968 C971 1.386 . S
H969 C985 0.930 . S
H970 C986 0.931 . S
C971 H959 0.929 . S
C971 C965 1.390 . S
C971 C968 1.386 . S
C972 C967 1.490 . S
C972 C974 1.395 . S
C972 C975 1.403 . S
H973 C979 0.930 . S
C974 H960 0.930 . S
C974 C972 1.395 . S
C974 C977 1.403 . S
C975 C972 1.403 . S
C975 C976 1.524 . S
C975 C979 1.400 . S
C976 H961 0.960 . S
C976 H962 0.960 . S
C976 H963 0.960 . S
C976 C975 1.524 . S
C977 C974 1.403 . S
C977 C978 1.392 . S
C977 C981 1.495 . S
C978 C977 1.392 . S
C978 C979 1.385 . S
C978 C980 1.478 . S
C979 H973 0.930 . S
C979 C975 1.400 . S
C979 C978 1.385 . S
C980 C978 1.478 . S
C980 C982 1.381 . S
C980 C986 1.383 . S
C981 C977 1.495 . S
C981 H987 0.959 . S
C981 H988 0.961 . S
C981 H989 0.960 . S
C982 C980 1.381 . S
C982 C983 1.394 . S
C982 H990 0.930 . S
C983 C982 1.394 . S
C983 C984 1.383 . S
C983 H991 0.929 . S
C984 C983 1.383 . S
C984 C985 1.377 . S
C985 H969 0.930 . S
C985 C984 1.377 . S
C985 C986 1.379 . S
C986 H970 0.931 . S
C986 C980 1.383 . S
C986 C985 1.379 . S
H987 C981 0.959 . S
H988 C981 0.961 . S
H989 C981 0.960 . S
H990 C982 0.930 . S
H991 C983 0.929 . S
H992 C1000 0.929 . S
H993 C1002 0.930 . S
H994 C1004 0.930 . S
H995 C1007 0.929 . S
H996 C1010 0.930 1_545 S
H997 C1012 0.960 1_554 S
H998 C1012 0.960 1_554 S
H999 C1012 0.960 . S
C1000 H992 0.929 . S
C1000 C1001 1.377 . S
C1000 C1002 1.384 . S
C1001 C1000 1.377 . S
C1001 C1007 1.390 . S
C1002 H993 0.930 . S
C1002 C1000 1.384 . S
C1002 C1003 1.372 . S
C1003 C1002 1.372 . S
C1003 C1004 1.400 1_545 S
C1003 C1008 1.490 1_545 S
C1004 H994 0.930 . S
C1004 C1003 1.400 1_565 S
C1004 C1007 1.386 1_565 S
H1005 C1021 0.922 1_556 S
H1006 C1022 0.931 . S
C1007 H995 0.929 . S
C1007 C1001 1.390 . S
C1007 C1004 1.386 1_545 S
C1008 C1003 1.490 1_565 S
C1008 C1010 1.395 . S
C1008 C1011 1.403 . S
H1009 C1015 0.930 1_554 S
C1010 H996 0.930 1_565 S
C1010 C1008 1.395 . S
C1010 C1013 1.403 . S
C1011 C1008 1.403 . S
C1011 C1012 1.524 . S
C1011 C1015 1.400 . S
C1012 H997 0.960 1_556 S
C1012 H998 0.960 1_556 S
C1012 H999 0.960 . S
C1012 C1011 1.524 . S
C1013 C1010 1.403 . S
C1013 C1014 1.392 . S
C1013 C1017 1.495 . S
C1014 C1013 1.392 . S
C1014 C1015 1.385 . S
C1014 C1016 1.462 1_556 S
C1015 H1009 0.930 1_556 S
C1015 C1011 1.400 . S
C1015 C1014 1.385 . S
C1016 C1014 1.462 1_554 S
C1016 C1018 1.406 . S
C1016 C1022 1.376 1_554 S
C1017 C1013 1.495 . S
C1017 H1023 0.959 . S
C1017 H1024 0.961 . S
C1017 H1025 0.960 . S
C1018 C1016 1.406 . S
C1018 C1019 1.394 . S
C1018 H1026 0.930 . S
C1019 C1018 1.394 . S
C1019 C1020 1.383 . S
C1019 H1027 0.929 . S
C1020 C1019 1.383 . S
C1020 C1021 1.405 . S
C1021 H1005 0.922 1_554 S
C1021 C1020 1.405 . S
C1021 C1022 1.360 1_554 S
C1022 H1006 0.931 . S
C1022 C1016 1.376 1_556 S
C1022 C1021 1.360 1_556 S
H1023 C1017 0.959 . S
H1024 C1017 0.961 . S
H1025 C1017 0.960 . S
H1026 C1018 0.930 . S
H1027 C1019 0.929 . S
H1028 C1036 0.929 . S
H1029 C1038 0.930 . S
H1030 C1040 0.930 . S
H1031 C1043 0.929 . S
H1032 C1046 0.930 . S
H1033 C1048 0.960 . S
H1034 C1048 0.960 . S
H1035 C1048 0.960 . S
C1036 H1028 0.929 . S
C1036 C1037 1.377 . S
C1036 C1038 1.384 . S
C1037 C1036 1.377 . S
C1037 C1043 1.390 . S
C1038 H1029 0.930 . S
C1038 C1036 1.384 . S
C1038 C1039 1.372 . S
C1039 C1038 1.372 . S
C1039 C1040 1.400 . S
C1039 C1044 1.490 . S
C1040 H1030 0.930 . S
C1040 C1039 1.400 . S
C1040 C1043 1.386 . S
H1041 C1057 0.930 . S
H1042 C1058 0.931 . S
C1043 H1031 0.929 . S
C1043 C1037 1.390 . S
C1043 C1040 1.386 . S
C1044 C1039 1.490 . S
C1044 C1046 1.395 . S
C1044 C1047 1.403 . S
H1045 C1051 0.930 . S
C1046 H1032 0.930 . S
C1046 C1044 1.395 . S
C1046 C1049 1.403 . S
C1047 C1044 1.403 . S
C1047 C1048 1.524 . S
C1047 C1051 1.400 . S
C1048 H1033 0.960 . S
C1048 H1034 0.960 . S
C1048 H1035 0.960 . S
C1048 C1047 1.524 . S
C1049 C1046 1.403 . S
C1049 C1050 1.392 . S
C1049 C1053 1.495 . S
C1050 C1049 1.392 . S
C1050 C1051 1.385 . S
C1050 C1052 1.478 . S
C1051 H1045 0.930 . S
C1051 C1047 1.400 . S
C1051 C1050 1.385 . S
C1052 C1050 1.478 . S
C1052 C1054 1.381 . S
C1052 C1058 1.383 . S
C1053 C1049 1.495 . S
C1053 H1059 0.959 . S
C1053 H1060 0.961 . S
C1053 H1061 0.960 . S
C1054 C1052 1.381 . S
C1054 C1055 1.394 . S
C1054 H1062 0.930 . S
C1055 C1054 1.394 . S
C1055 C1056 1.383 . S
C1055 H1063 0.929 . S
C1056 C1055 1.383 . S
C1056 C1057 1.377 . S
C1057 H1041 0.930 . S
C1057 C1056 1.377 . S
C1057 C1058 1.379 . S
C1058 H1042 0.931 . S
C1058 C1052 1.383 . S
C1058 C1057 1.379 . S
H1059 C1053 0.959 . S
H1060 C1053 0.961 . S
H1061 C1053 0.960 . S
H1062 C1054 0.930 . S
H1063 C1055 0.929 . S
H1064 C1072 0.916 1_545 S
H1065 C1074 0.930 . S
H1066 C1076 0.930 . S
H1067 C1079 0.929 . S
H1068 C1082 0.930 . S
H1069 C1084 0.960 . S
H1070 C1084 0.960 . S
H1071 C1084 0.960 1_565 S
C1072 H1064 0.916 1_565 S
C1072 C1073 1.406 . S
C1072 C1074 1.363 1_565 S
C1073 C1072 1.406 . S
C1073 C1079 1.390 . S
C1074 H1065 0.930 . S
C1074 C1072 1.363 1_545 S
C1074 C1075 1.372 . S
C1075 C1074 1.372 . S
C1075 C1076 1.400 1_545 S
C1075 C1080 1.490 . S
C1076 H1066 0.930 . S
C1076 C1075 1.400 1_565 S
C1076 C1079 1.386 . S
H1077 C1093 0.930 . S
H1078 C1094 0.931 . S
C1079 H1067 0.929 . S
C1079 C1073 1.390 . S
C1079 C1076 1.386 . S
C1080 C1075 1.490 . S
C1080 C1082 1.395 . S
C1080 C1083 1.403 . S
H1081 C1087 0.930 . S
C1082 H1068 0.930 . S
C1082 C1080 1.395 . S
C1082 C1085 1.403 . S
C1083 C1080 1.403 . S
C1083 C1084 1.524 . S
C1083 C1087 1.400 . S
C1084 H1069 0.960 . S
C1084 H1070 0.960 . S
C1084 H1071 0.960 1_545 S
C1084 C1083 1.524 . S
C1085 C1082 1.403 . S
C1085 C1086 1.392 . S
C1085 C1089 1.495 . S
C1086 C1085 1.392 . S
C1086 C1087 1.385 . S
C1086 C1088 1.478 . S
C1087 H1081 0.930 . S
C1087 C1083 1.400 . S
C1087 C1086 1.385 . S
C1088 C1086 1.478 . S
C1088 C1090 1.381 . S
C1088 C1094 1.383 . S
C1089 C1085 1.495 . S
C1089 H1095 0.959 . S
C1089 H1096 0.961 . S
C1089 H1097 0.960 . S
C1090 C1088 1.381 . S
C1090 C1091 1.394 . S
C1090 H1098 0.930 . S
C1091 C1090 1.394 . S
C1091 C1092 1.383 . S
C1091 H1099 0.929 . S
C1092 C1091 1.383 . S
C1092 C1093 1.377 . S
C1093 H1077 0.930 . S
C1093 C1092 1.377 . S
C1093 C1094 1.379 . S
C1094 H1078 0.931 . S
C1094 C1088 1.383 . S
C1094 C1093 1.379 . S
H1095 C1089 0.959 . S
H1096 C1089 0.961 . S
H1097 C1089 0.960 . S
H1098 C1090 0.930 . S
H1099 C1091 0.929 . S
H1100 C1108 0.929 . S
H1101 C1110 0.930 . S
H1102 C1112 0.930 . S
H1103 C1115 0.929 . S
H1104 C1118 0.930 . S
H1105 C1120 0.960 . S
H1106 C1120 0.960 . S
H1107 C1120 0.960 . S
C1108 H1100 0.929 . S
C1108 C1109 1.377 . S
C1108 C1110 1.384 . S
C1109 C1108 1.377 . S
C1109 C1115 1.390 . S
C1110 H1101 0.930 . S
C1110 C1108 1.384 . S
C1110 C1111 1.372 . S
C1111 C1110 1.372 . S
C1111 C1112 1.400 . S
C1111 C1116 1.490 . S
C1112 H1102 0.930 . S
C1112 C1111 1.400 . S
C1112 C1115 1.386 . S
H1113 C1129 0.930 . S
H1114 C1130 0.931 . S
C1115 H1103 0.929 . S
C1115 C1109 1.390 . S
C1115 C1112 1.386 . S
C1116 C1111 1.490 . S
C1116 C1118 1.395 . S
C1116 C1119 1.403 . S
H1117 C1123 0.930 . S
C1118 H1104 0.930 . S
C1118 C1116 1.395 . S
C1118 C1121 1.403 . S
C1119 C1116 1.403 . S
C1119 C1120 1.524 . S
C1119 C1123 1.400 . S
C1120 H1105 0.960 . S
C1120 H1106 0.960 . S
C1120 H1107 0.960 . S
C1120 C1119 1.524 . S
C1121 C1118 1.403 . S
C1121 C1122 1.392 . S
C1121 C1125 1.495 . S
C1122 C1121 1.392 . S
C1122 C1123 1.385 . S
C1122 C1124 1.478 . S
C1123 H1117 0.930 . S
C1123 C1119 1.400 . S
C1123 C1122 1.385 . S
C1124 C1122 1.478 . S
C1124 C1126 1.381 . S
C1124 C1130 1.383 . S
C1125 C1121 1.495 . S
C1125 H1131 0.959 . S
C1125 H1132 0.961 . S
C1125 H1133 0.960 . S
C1126 C1124 1.381 . S
C1126 C1127 1.394 . S
C1126 H1134 0.930 . S
C1127 C1126 1.394 . S
C1127 C1128 1.383 . S
C1127 H1135 0.929 . S
C1128 C1127 1.383 . S
C1128 C1129 1.377 . S
C1129 H1113 0.930 . S
C1129 C1128 1.377 . S
C1129 C1130 1.379 . S
C1130 H1114 0.931 . S
C1130 C1124 1.383 . S
C1130 C1129 1.379 . S
H1131 C1125 0.959 . S
H1132 C1125 0.961 . S
H1133 C1125 0.960 . S
H1134 C1126 0.930 . S
H1135 C1127 0.929 . S
H1136 C1144 0.929 . S
H1137 C1146 0.930 . S
H1138 C1148 0.930 . S
H1139 C1151 0.929 1_565 S
H1140 C1154 0.930 . S
H1141 C1156 0.960 . S
H1142 C1156 0.960 . S
H1143 C1156 0.960 . S
C1144 H1136 0.929 . S
C1144 C1145 1.377 . S
C1144 C1146 1.384 . S
C1145 C1144 1.377 . S
C1145 C1151 1.390 . S
C1146 H1137 0.930 . S
C1146 C1144 1.384 . S
C1146 C1147 1.372 . S
C1147 C1146 1.372 . S
C1147 C1148 1.400 . S
C1147 C1152 1.490 . S
C1148 H1138 0.930 . S
C1148 C1147 1.400 . S
C1148 C1151 1.386 . S
H1149 C1165 0.930 . S
H1150 C1166 0.931 . S
C1151 H1139 0.929 1_545 S
C1151 C1145 1.390 . S
C1151 C1148 1.386 . S
C1152 C1147 1.490 . S
C1152 C1154 1.395 . S
C1152 C1155 1.403 . S
H1153 C1159 0.930 . S
C1154 H1140 0.930 . S
C1154 C1152 1.395 . S
C1154 C1157 1.403 . S
C1155 C1152 1.403 . S
C1155 C1156 1.524 . S
C1155 C1159 1.400 . S
C1156 H1141 0.960 . S
C1156 H1142 0.960 . S
C1156 H1143 0.960 . S
C1156 C1155 1.524 . S
C1157 C1154 1.403 . S
C1157 C1158 1.392 . S
C1157 C1161 1.495 . S
C1158 C1157 1.392 . S
C1158 C1159 1.385 . S
C1158 C1160 1.478 . S
C1159 H1153 0.930 . S
C1159 C1155 1.400 . S
C1159 C1158 1.385 . S
C1160 C1158 1.478 . S
C1160 C1162 1.381 . S
C1160 C1166 1.383 . S
C1161 C1157 1.495 . S
C1161 H1167 0.959 . S
C1161 H1168 0.961 . S
C1161 H1169 0.960 . S
C1162 C1160 1.381 . S
C1162 C1163 1.394 . S
C1162 H1170 0.930 . S
C1163 C1162 1.394 . S
C1163 C1164 1.383 . S
C1163 H1171 0.929 . S
C1164 C1163 1.383 . S
C1164 C1165 1.377 . S
C1165 H1149 0.930 . S
C1165 C1164 1.377 . S
C1165 C1166 1.379 . S
C1166 H1150 0.931 . S
C1166 C1160 1.383 . S
C1166 C1165 1.379 . S
H1167 C1161 0.959 . S
H1168 C1161 0.961 . S
H1169 C1161 0.960 . S
H1170 C1162 0.930 . S
H1171 C1163 0.929 . S
H1172 C1180 0.929 . S
H1173 C1182 0.930 . S
H1174 C1184 0.930 . S
H1175 C1187 0.929 . S
H1176 C1190 0.930 . S
H1177 C1192 0.960 . S
H1178 C1192 0.960 . S
H1179 C1192 0.960 . S
C1180 H1172 0.929 . S
C1180 C1181 1.377 . S
C1180 C1182 1.384 . S
C1181 C1180 1.377 . S
C1181 C1187 1.390 . S
C1182 H1173 0.930 . S
C1182 C1180 1.384 . S
C1182 C1183 1.372 . S
C1183 C1182 1.372 . S
C1183 C1184 1.400 . S
C1183 C1188 1.490 . S
C1184 H1174 0.930 . S
C1184 C1183 1.400 . S
C1184 C1187 1.386 . S
H1185 C1201 0.930 . S
H1186 C1202 0.931 . S
C1187 H1175 0.929 . S
C1187 C1181 1.390 . S
C1187 C1184 1.386 . S
C1188 C1183 1.490 . S
C1188 C1190 1.395 . S
C1188 C1191 1.403 . S
H1189 C1195 0.930 . S
C1190 H1176 0.930 . S
C1190 C1188 1.395 . S
C1190 C1193 1.403 . S
C1191 C1188 1.403 . S
C1191 C1192 1.524 . S
C1191 C1195 1.400 . S
C1192 H1177 0.960 . S
C1192 H1178 0.960 . S
C1192 H1179 0.960 . S
C1192 C1191 1.524 . S
C1193 C1190 1.403 . S
C1193 C1194 1.392 . S
C1193 C1197 1.495 . S
C1194 C1193 1.392 . S
C1194 C1195 1.385 . S
C1194 C1196 1.478 . S
C1195 H1189 0.930 . S
C1195 C1191 1.400 . S
C1195 C1194 1.385 . S
C1196 C1194 1.478 . S
C1196 C1198 1.381 . S
C1196 C1202 1.383 . S
C1197 C1193 1.495 . S
C1197 H1203 0.959 . S
C1197 H1204 0.961 . S
C1197 H1205 0.960 . S
C1198 C1196 1.381 . S
C1198 C1199 1.394 . S
C1198 H1206 0.930 . S
C1199 C1198 1.394 . S
C1199 C1200 1.383 . S
C1199 H1207 0.929 . S
C1200 C1199 1.383 . S
C1200 C1201 1.377 . S
C1201 H1185 0.930 . S
C1201 C1200 1.377 . S
C1201 C1202 1.379 . S
C1202 H1186 0.931 . S
C1202 C1196 1.383 . S
C1202 C1201 1.379 . S
H1203 C1197 0.959 . S
H1204 C1197 0.961 . S
H1205 C1197 0.960 . S
H1206 C1198 0.930 . S
H1207 C1199 0.929 . S
H1208 C1216 0.929 . S
H1209 C1218 0.930 . S
H1210 C1220 0.930 . S
H1211 C1223 0.929 . S
H1212 C1226 0.930 . S
H1213 C1228 0.960 . S
H1214 C1228 0.960 . S
H1215 C1228 0.960 . S
C1216 H1208 0.929 . S
C1216 C1217 1.377 . S
C1216 C1218 1.384 . S
C1217 C1216 1.377 . S
C1217 C1223 1.390 . S
C1218 H1209 0.930 . S
C1218 C1216 1.384 . S
C1218 C1219 1.372 . S
C1219 C1218 1.372 . S
C1219 C1220 1.400 . S
C1219 C1224 1.490 . S
C1220 H1210 0.930 . S
C1220 C1219 1.400 . S
C1220 C1223 1.386 . S
H1221 C1237 0.930 . S
H1222 C1238 0.931 . S
C1223 H1211 0.929 . S
C1223 C1217 1.390 . S
C1223 C1220 1.386 . S
C1224 C1219 1.490 . S
C1224 C1226 1.395 . S
C1224 C1227 1.403 . S
H1225 C1231 0.930 . S
C1226 H1212 0.930 . S
C1226 C1224 1.395 . S
C1226 C1229 1.403 . S
C1227 C1224 1.403 . S
C1227 C1228 1.524 . S
C1227 C1231 1.400 . S
C1228 H1213 0.960 . S
C1228 H1214 0.960 . S
C1228 H1215 0.960 . S
C1228 C1227 1.524 . S
C1229 C1226 1.403 . S
C1229 C1230 1.392 . S
C1229 C1233 1.495 . S
C1230 C1229 1.392 . S
C1230 C1231 1.385 . S
C1230 C1232 1.478 . S
C1231 H1225 0.930 . S
C1231 C1227 1.400 . S
C1231 C1230 1.385 . S
C1232 C1230 1.478 . S
C1232 C1234 1.381 . S
C1232 C1238 1.383 . S
C1233 C1229 1.495 . S
C1233 H1239 0.959 . S
C1233 H1240 0.961 . S
C1233 H1241 0.960 . S
C1234 C1232 1.381 . S
C1234 C1235 1.394 . S
C1234 H1242 0.930 . S
C1235 C1234 1.394 . S
C1235 C1236 1.383 . S
C1235 H1243 0.929 . S
C1236 C1235 1.383 . S
C1236 C1237 1.377 . S
C1237 H1221 0.930 . S
C1237 C1236 1.377 . S
C1237 C1238 1.379 . S
C1238 H1222 0.931 . S
C1238 C1232 1.383 . S
C1238 C1237 1.379 . S
H1239 C1233 0.959 . S
H1240 C1233 0.961 . S
H1241 C1233 0.960 . S
H1242 C1234 0.930 . S
H1243 C1235 0.929 . S
H1244 C1252 0.929 . S
H1245 C1254 0.930 . S
H1246 C1256 0.930 . S
H1247 C1259 0.929 . S
H1248 C1262 0.930 . S
H1249 C1264 0.960 . S
H1250 C1264 0.960 . S
H1251 C1264 0.960 . S
C1252 H1244 0.929 . S
C1252 C1253 1.377 . S
C1252 C1254 1.384 . S
C1253 C1252 1.377 . S
C1253 C1259 1.390 . S
C1254 H1245 0.930 . S
C1254 C1252 1.384 . S
C1254 C1255 1.372 . S
C1255 C1254 1.372 . S
C1255 C1256 1.400 . S
C1255 C1260 1.490 . S
C1256 H1246 0.930 . S
C1256 C1255 1.400 . S
C1256 C1259 1.386 . S
H1257 C1273 0.930 . S
H1258 C1274 0.931 1_565 S
C1259 H1247 0.929 . S
C1259 C1253 1.390 . S
C1259 C1256 1.386 . S
C1260 C1255 1.490 . S
C1260 C1262 1.395 . S
C1260 C1263 1.403 . S
H1261 C1267 0.930 . S
C1262 H1248 0.930 . S
C1262 C1260 1.395 . S
C1262 C1265 1.403 . S
C1263 C1260 1.403 . S
C1263 C1264 1.524 . S
C1263 C1267 1.400 . S
C1264 H1249 0.960 . S
C1264 H1250 0.960 . S
C1264 H1251 0.960 . S
C1264 C1263 1.524 . S
C1265 C1262 1.403 . S
C1265 C1266 1.392 . S
C1265 C1269 1.495 . S
C1266 C1265 1.392 . S
C1266 C1267 1.385 . S
C1266 C1268 1.478 . S
C1267 H1261 0.930 . S
C1267 C1263 1.400 . S
C1267 C1266 1.385 . S
C1268 C1266 1.478 . S
C1268 C1270 1.381 . S
C1268 C1274 1.383 . S
C1269 C1265 1.495 . S
C1269 H1275 0.959 . S
C1269 H1276 0.961 . S
C1269 H1277 0.960 . S
C1270 C1268 1.381 . S
C1270 C1271 1.394 . S
C1270 H1278 0.930 . S
C1271 C1270 1.394 . S
C1271 C1272 1.383 . S
C1271 H1279 0.929 . S
C1272 C1271 1.383 . S
C1272 C1273 1.377 1_545 S
C1273 H1257 0.930 . S
C1273 C1272 1.377 1_565 S
C1273 C1274 1.379 1_565 S
C1274 H1258 0.931 1_545 S
C1274 C1268 1.383 . S
C1274 C1273 1.379 1_545 S
H1275 C1269 0.959 . S
H1276 C1269 0.961 . S
H1277 C1269 0.960 . S
H1278 C1270 0.930 . S
H1279 C1271 0.929 . S
H1280 C1288 0.929 . S
H1281 C1290 0.930 . S
H1282 C1292 0.930 . S
H1283 C1295 0.929 . S
H1284 C1298 0.930 . S
H1285 C1300 0.960 . S
H1286 C1300 0.960 . S
H1287 C1300 0.960 . S
C1288 H1280 0.929 . S
C1288 C1289 1.377 . S
C1288 C1290 1.384 . S
C1289 C1288 1.377 . S
C1289 C1295 1.390 . S
C1290 H1281 0.930 . S
C1290 C1288 1.384 . S
C1290 C1291 1.372 . S
C1291 C1290 1.372 . S
C1291 C1292 1.400 . S
C1291 C1296 1.490 . S
C1292 H1282 0.930 . S
C1292 C1291 1.400 . S
C1292 C1295 1.386 . S
H1293 C1309 0.930 . S
H1294 C1310 0.931 . S
C1295 H1283 0.929 . S
C1295 C1289 1.390 . S
C1295 C1292 1.386 . S
C1296 C1291 1.490 . S
C1296 C1298 1.395 . S
C1296 C1299 1.403 . S
H1297 C1303 0.930 . S
C1298 H1284 0.930 . S
C1298 C1296 1.395 . S
C1298 C1301 1.403 . S
C1299 C1296 1.403 . S
C1299 C1300 1.524 . S
C1299 C1303 1.400 . S
C1300 H1285 0.960 . S
C1300 H1286 0.960 . S
C1300 H1287 0.960 . S
C1300 C1299 1.524 . S
C1301 C1298 1.403 . S
C1301 C1302 1.392 . S
C1301 C1305 1.495 . S
C1302 C1301 1.392 . S
C1302 C1303 1.385 . S
C1302 C1304 1.478 . S
C1303 H1297 0.930 . S
C1303 C1299 1.400 . S
C1303 C1302 1.385 . S
C1304 C1302 1.478 . S
C1304 C1306 1.381 . S
C1304 C1310 1.383 . S
C1305 C1301 1.495 . S
C1305 H1311 0.959 . S
C1305 H1312 0.961 . S
C1305 H1313 0.960 . S
C1306 C1304 1.381 . S
C1306 C1307 1.394 . S
C1306 H1314 0.930 . S
C1307 C1306 1.394 . S
C1307 C1308 1.383 . S
C1307 H1315 0.929 . S
C1308 C1307 1.383 . S
C1308 C1309 1.377 . S
C1309 H1293 0.930 . S
C1309 C1308 1.377 . S
C1309 C1310 1.379 . S
C1310 H1294 0.931 . S
C1310 C1304 1.383 . S
C1310 C1309 1.379 . S
H1311 C1305 0.959 . S
H1312 C1305 0.961 . S
H1313 C1305 0.960 . S
H1314 C1306 0.930 . S
H1315 C1307 0.929 . S
H1316 C1324 0.929 . S
H1317 C1326 0.930 . S
H1318 C1328 0.930 . S
H1319 C1331 0.929 . S
H1320 C1334 0.930 . S
H1321 C1336 0.960 . S
H1322 C1336 0.960 . S
H1323 C1336 0.960 . S
C1324 H1316 0.929 . S
C1324 C1325 1.377 . S
C1324 C1326 1.384 . S
C1325 C1324 1.377 . S
C1325 C1331 1.390 . S
C1326 H1317 0.930 . S
C1326 C1324 1.384 . S
C1326 C1327 1.372 . S
C1327 C1326 1.372 . S
C1327 C1328 1.400 . S
C1327 C1332 1.490 . S
C1328 H1318 0.930 . S
C1328 C1327 1.400 . S
C1328 C1331 1.386 . S
H1329 C1345 0.930 . S
H1330 C1346 0.931 . S
C1331 H1319 0.929 . S
C1331 C1325 1.390 . S
C1331 C1328 1.386 . S
C1332 C1327 1.490 . S
C1332 C1334 1.395 . S
C1332 C1335 1.403 . S
H1333 C1339 0.930 . S
C1334 H1320 0.930 . S
C1334 C1332 1.395 . S
C1334 C1337 1.403 . S
C1335 C1332 1.403 . S
C1335 C1336 1.524 . S
C1335 C1339 1.400 . S
C1336 H1321 0.960 . S
C1336 H1322 0.960 . S
C1336 H1323 0.960 . S
C1336 C1335 1.524 . S
C1337 C1334 1.403 . S
C1337 C1338 1.392 . S
C1337 C1341 1.495 . S
C1338 C1337 1.392 . S
C1338 C1339 1.385 . S
C1338 C1340 1.478 . S
C1339 H1333 0.930 . S
C1339 C1335 1.400 . S
C1339 C1338 1.385 . S
C1340 C1338 1.478 . S
C1340 C1342 1.381 . S
C1340 C1346 1.383 . S
C1341 C1337 1.495 . S
C1341 H1347 0.959 . S
C1341 H1348 0.961 . S
C1341 H1349 0.960 . S
C1342 C1340 1.381 . S
C1342 C1343 1.394 . S
C1342 H1350 0.930 . S
C1343 C1342 1.394 . S
C1343 C1344 1.383 . S
C1343 H1351 0.929 . S
C1344 C1343 1.383 . S
C1344 C1345 1.377 . S
C1345 H1329 0.930 . S
C1345 C1344 1.377 . S
C1345 C1346 1.379 . S
C1346 H1330 0.931 . S
C1346 C1340 1.383 . S
C1346 C1345 1.379 . S
H1347 C1341 0.959 . S
H1348 C1341 0.961 . S
H1349 C1341 0.960 . S
H1350 C1342 0.930 . S
H1351 C1343 0.929 . S
H1352 C1360 0.929 . S
H1353 C1362 0.930 . S
H1354 C1364 0.930 . S
H1355 C1367 0.929 . S
H1356 C1370 0.930 . S
H1357 C1372 0.960 . S
H1358 C1372 0.960 . S
H1359 C1372 0.960 . S
C1360 H1352 0.929 . S
C1360 C1361 1.377 . S
C1360 C1362 1.384 . S
C1361 C1360 1.377 . S
C1361 C1367 1.390 . S
C1362 H1353 0.930 . S
C1362 C1360 1.384 . S
C1362 C1363 1.372 . S
C1363 C1362 1.372 . S
C1363 C1364 1.400 . S
C1363 C1368 1.490 . S
C1364 H1354 0.930 . S
C1364 C1363 1.400 . S
C1364 C1367 1.386 . S
H1365 C1381 0.930 . S
H1366 C1382 0.931 . S
C1367 H1355 0.929 . S
C1367 C1361 1.390 . S
C1367 C1364 1.386 . S
C1368 C1363 1.490 . S
C1368 C1370 1.395 . S
C1368 C1371 1.403 . S
H1369 C1375 0.930 . S
C1370 H1356 0.930 . S
C1370 C1368 1.395 . S
C1370 C1373 1.403 . S
C1371 C1368 1.403 . S
C1371 C1372 1.524 . S
C1371 C1375 1.400 . S
C1372 H1357 0.960 . S
C1372 H1358 0.960 . S
C1372 H1359 0.960 . S
C1372 C1371 1.524 . S
C1373 C1370 1.403 . S
C1373 C1374 1.392 . S
C1373 C1377 1.495 . S
C1374 C1373 1.392 . S
C1374 C1375 1.385 . S
C1374 C1376 1.478 . S
C1375 H1369 0.930 . S
C1375 C1371 1.400 . S
C1375 C1374 1.385 . S
C1376 C1374 1.478 . S
C1376 C1378 1.381 . S
C1376 C1382 1.383 . S
C1377 C1373 1.495 . S
C1377 H1383 0.959 . S
C1377 H1384 0.961 . S
C1377 H1385 0.960 . S
C1378 C1376 1.381 . S
C1378 C1379 1.394 . S
C1378 H1386 0.930 . S
C1379 C1378 1.394 . S
C1379 C1380 1.383 . S
C1379 H1387 0.929 . S
C1380 C1379 1.383 . S
C1380 C1381 1.377 . S
C1381 H1365 0.930 . S
C1381 C1380 1.377 . S
C1381 C1382 1.379 . S
C1382 H1366 0.931 . S
C1382 C1376 1.383 . S
C1382 C1381 1.379 . S
H1383 C1377 0.959 . S
H1384 C1377 0.961 . S
H1385 C1377 0.960 . S
H1386 C1378 0.930 . S
H1387 C1379 0.929 . S
H1388 C1396 0.929 . S
H1389 C1398 0.930 . S
H1390 C1400 0.930 . S
H1391 C1403 0.929 . S
H1392 C1406 0.930 . S
H1393 C1408 0.960 . S
H1394 C1408 0.960 . S
H1395 C1408 0.960 . S
C1396 H1388 0.929 . S
C1396 C1397 1.377 . S
C1396 C1398 1.384 . S
C1397 C1396 1.377 . S
C1397 C1403 1.390 . S
C1398 H1389 0.930 . S
C1398 C1396 1.384 . S
C1398 C1399 1.372 . S
C1399 C1398 1.372 . S
C1399 C1400 1.400 . S
C1399 C1404 1.490 . S
C1400 H1390 0.930 . S
C1400 C1399 1.400 . S
C1400 C1403 1.386 . S
H1401 C1417 0.930 . S
H1402 C1418 0.931 . S
C1403 H1391 0.929 . S
C1403 C1397 1.390 . S
C1403 C1400 1.386 . S
C1404 C1399 1.490 . S
C1404 C1406 1.395 1_455 S
C1404 C1407 1.403 . S
H1405 C1411 0.930 . S
C1406 H1392 0.930 . S
C1406 C1404 1.395 1_655 S
C1406 C1409 1.403 . S
C1407 C1404 1.403 . S
C1407 C1408 1.524 . S
C1407 C1411 1.400 . S
C1408 H1393 0.960 . S
C1408 H1394 0.960 . S
C1408 H1395 0.960 . S
C1408 C1407 1.524 . S
C1409 C1406 1.403 . S
C1409 C1410 1.392 . S
C1409 C1413 1.495 . S
C1410 C1409 1.392 . S
C1410 C1411 1.385 1_655 S
C1410 C1412 1.478 . S
C1411 H1405 0.930 . S
C1411 C1407 1.400 . S
C1411 C1410 1.385 1_455 S
C1412 C1410 1.478 . S
C1412 C1414 1.381 . S
C1412 C1418 1.383 . S
C1413 C1409 1.495 . S
C1413 H1419 0.959 . S
C1413 H1420 0.961 . S
C1413 H1421 0.960 . S
C1414 C1412 1.381 . S
C1414 C1415 1.394 . S
C1414 H1422 0.930 . S
C1415 C1414 1.394 . S
C1415 C1416 1.383 . S
C1415 H1423 0.929 . S
C1416 C1415 1.383 . S
C1416 C1417 1.377 . S
C1417 H1401 0.930 . S
C1417 C1416 1.377 . S
C1417 C1418 1.379 . S
C1418 H1402 0.931 . S
C1418 C1412 1.383 . S
C1418 C1417 1.379 . S
H1419 C1413 0.959 . S
H1420 C1413 0.961 . S
H1421 C1413 0.960 . S
H1422 C1414 0.930 . S
H1423 C1415 0.929 . S
H1424 C1432 0.929 . S
H1425 C1434 0.930 . S
H1426 C1436 0.930 . S
H1427 C1439 0.929 . S
H1428 C1442 0.930 . S
H1429 C1444 0.960 . S
H1430 C1444 0.960 . S
H1431 C1444 0.960 . S
C1432 H1424 0.929 . S
C1432 C1433 1.377 . S
C1432 C1434 1.384 . S
C1433 C1432 1.377 . S
C1433 C1439 1.390 . S
C1434 H1425 0.930 . S
C1434 C1432 1.384 . S
C1434 C1435 1.372 . S
C1435 C1434 1.372 . S
C1435 C1436 1.400 . S
C1435 C1440 1.490 . S
C1436 H1426 0.930 . S
C1436 C1435 1.400 . S
C1436 C1439 1.386 . S
H1437 C1453 0.930 . S
H1438 C1454 0.931 . S
C1439 H1427 0.929 . S
C1439 C1433 1.390 . S
C1439 C1436 1.386 . S
C1440 C1435 1.490 . S
C1440 C1442 1.395 . S
C1440 C1443 1.403 . S
H1441 C1447 0.930 . S
C1442 H1428 0.930 . S
C1442 C1440 1.395 . S
C1442 C1445 1.403 . S
C1443 C1440 1.403 . S
C1443 C1444 1.524 . S
C1443 C1447 1.400 . S
C1444 H1429 0.960 . S
C1444 H1430 0.960 . S
C1444 H1431 0.960 . S
C1444 C1443 1.524 . S
C1445 C1442 1.403 . S
C1445 C1446 1.392 . S
C1445 C1449 1.495 . S
C1446 C1445 1.392 . S
C1446 C1447 1.385 . S
C1446 C1448 1.478 . S
C1447 H1441 0.930 . S
C1447 C1443 1.400 . S
C1447 C1446 1.385 . S
C1448 C1446 1.478 . S
C1448 C1450 1.381 . S
C1448 C1454 1.383 . S
C1449 C1445 1.495 . S
C1449 H1455 0.959 . S
C1449 H1456 0.961 . S
C1449 H1457 0.960 . S
C1450 C1448 1.381 . S
C1450 C1451 1.394 . S
C1450 H1458 0.930 . S
C1451 C1450 1.394 . S
C1451 C1452 1.383 . S
C1451 H1459 0.929 . S
C1452 C1451 1.383 . S
C1452 C1453 1.377 . S
C1453 H1437 0.930 . S
C1453 C1452 1.377 . S
C1453 C1454 1.379 . S
C1454 H1438 0.931 . S
C1454 C1448 1.383 . S
C1454 C1453 1.379 . S
H1455 C1449 0.959 . S
H1456 C1449 0.961 . S
H1457 C1449 0.960 . S
H1458 C1450 0.930 . S
H1459 C1451 0.929 . S
H1460 C1468 0.929 . S
H1461 C1470 0.930 . S
H1462 C1472 0.930 . S
H1463 C1475 0.929 . S
H1464 C1478 0.930 . S
H1465 C1480 0.960 . S
H1466 C1480 0.960 . S
H1467 C1480 0.960 . S
C1468 H1460 0.929 . S
C1468 C1469 1.377 . S
C1468 C1470 1.384 1_655 S
C1469 C1468 1.377 . S
C1469 C1475 1.390 1_655 S
C1470 H1461 0.930 . S
C1470 C1468 1.384 1_455 S
C1470 C1471 1.372 . S
C1471 C1470 1.372 . S
C1471 C1472 1.400 . S
C1471 C1476 1.490 . S
C1472 H1462 0.930 . S
C1472 C1471 1.400 . S
C1472 C1475 1.386 . S
H1473 C1489 0.930 . S
H1474 C1490 0.931 . S
C1475 H1463 0.929 . S
C1475 C1469 1.390 1_455 S
C1475 C1472 1.386 . S
C1476 C1471 1.490 . S
C1476 C1478 1.395 . S
C1476 C1479 1.403 . S
H1477 C1483 0.930 . S
C1478 H1464 0.930 . S
C1478 C1476 1.395 . S
C1478 C1481 1.403 . S
C1479 C1476 1.403 . S
C1479 C1480 1.524 . S
C1479 C1483 1.400 . S
C1480 H1465 0.960 . S
C1480 H1466 0.960 . S
C1480 H1467 0.960 . S
C1480 C1479 1.524 . S
C1481 C1478 1.403 . S
C1481 C1482 1.392 . S
C1481 C1485 1.495 . S
C1482 C1481 1.392 . S
C1482 C1483 1.385 . S
C1482 C1484 1.478 . S
C1483 H1477 0.930 . S
C1483 C1479 1.400 . S
C1483 C1482 1.385 . S
C1484 C1482 1.478 . S
C1484 C1486 1.381 . S
C1484 C1490 1.383 . S
C1485 C1481 1.495 . S
C1485 H1491 0.959 . S
C1485 H1492 0.961 . S
C1485 H1493 0.960 . S
C1486 C1484 1.381 . S
C1486 C1487 1.394 . S
C1486 H1494 0.930 . S
C1487 C1486 1.394 . S
C1487 C1488 1.383 . S
C1487 H1495 0.929 . S
C1488 C1487 1.383 . S
C1488 C1489 1.377 . S
C1489 H1473 0.930 . S
C1489 C1488 1.377 . S
C1489 C1490 1.379 . S
C1490 H1474 0.931 . S
C1490 C1484 1.383 . S
C1490 C1489 1.379 . S
H1491 C1485 0.959 . S
H1492 C1485 0.961 . S
H1493 C1485 0.960 . S
H1494 C1486 0.930 . S
H1495 C1487 0.929 . S
H1496 C1504 0.929 . S
H1497 C1506 0.930 . S
H1498 C1508 0.930 . S
H1499 C1511 0.929 . S
H1500 C1514 0.930 . S
H1501 C1516 0.960 . S
H1502 C1516 0.960 . S
H1503 C1516 0.960 . S
C1504 H1496 0.929 . S
C1504 C1505 1.377 . S
C1504 C1506 1.384 . S
C1505 C1504 1.377 . S
C1505 C1511 1.390 . S
C1506 H1497 0.930 . S
C1506 C1504 1.384 . S
C1506 C1507 1.372 . S
C1507 C1506 1.372 . S
C1507 C1508 1.400 . S
C1507 C1512 1.490 . S
C1508 H1498 0.930 . S
C1508 C1507 1.400 . S
C1508 C1511 1.386 . S
H1509 C1525 0.930 . S
H1510 C1526 0.931 . S
C1511 H1499 0.929 . S
C1511 C1505 1.390 . S
C1511 C1508 1.386 . S
C1512 C1507 1.490 . S
C1512 C1514 1.395 . S
C1512 C1515 1.403 . S
H1513 C1519 0.930 . S
C1514 H1500 0.930 . S
C1514 C1512 1.395 . S
C1514 C1517 1.403 . S
C1515 C1512 1.403 . S
C1515 C1516 1.524 . S
C1515 C1519 1.400 . S
C1516 H1501 0.960 . S
C1516 H1502 0.960 . S
C1516 H1503 0.960 . S
C1516 C1515 1.524 . S
C1517 C1514 1.403 . S
C1517 C1518 1.392 . S
C1517 C1521 1.495 . S
C1518 C1517 1.392 . S
C1518 C1519 1.385 . S
C1518 C1520 1.478 . S
C1519 H1513 0.930 . S
C1519 C1515 1.400 . S
C1519 C1518 1.385 . S
C1520 C1518 1.478 . S
C1520 C1522 1.381 . S
C1520 C1526 1.383 . S
C1521 C1517 1.495 . S
C1521 H1527 0.959 . S
C1521 H1528 0.961 . S
C1521 H1529 0.960 . S
C1522 C1520 1.381 . S
C1522 C1523 1.394 . S
C1522 H1530 0.930 . S
C1523 C1522 1.394 . S
C1523 C1524 1.383 . S
C1523 H1531 0.929 . S
C1524 C1523 1.383 . S
C1524 C1525 1.377 . S
C1525 H1509 0.930 . S
C1525 C1524 1.377 . S
C1525 C1526 1.379 . S
C1526 H1510 0.931 . S
C1526 C1520 1.383 . S
C1526 C1525 1.379 . S
H1527 C1521 0.959 . S
H1528 C1521 0.961 . S
H1529 C1521 0.960 . S
H1530 C1522 0.930 . S
H1531 C1523 0.929 . S
H1532 C1540 0.929 . S
H1533 C1542 0.930 . S
H1534 C1544 0.930 . S
H1535 C1547 0.929 . S
H1536 C1550 0.930 . S
H1537 C1552 0.960 . S
H1538 C1552 0.960 . S
H1539 C1552 0.939 1_554 S
C1540 H1532 0.929 . S
C1540 C1541 1.377 . S
C1540 C1542 1.384 1_554 S
C1541 C1540 1.377 . S
C1541 C1547 1.390 . S
C1542 H1533 0.930 . S
C1542 C1540 1.384 1_556 S
C1542 C1543 1.372 . S
C1543 C1542 1.372 . S
C1543 C1544 1.400 1_556 S
C1543 C1548 1.490 . S
C1544 H1534 0.930 . S
C1544 C1543 1.400 1_554 S
C1544 C1547 1.386 . S
H1545 C1561 0.930 . S
H1546 C1562 0.931 . S
C1547 H1535 0.929 . S
C1547 C1541 1.390 . S
C1547 C1544 1.386 . S
C1548 C1543 1.490 . S
C1548 C1550 1.395 1_655 S
C1548 C1551 1.403 . S
H1549 C1555 0.930 . S
C1550 H1536 0.930 . S
C1550 C1548 1.395 1_455 S
C1550 C1553 1.403 . S
C1551 C1548 1.403 . S
C1551 C1552 1.524 . S
C1551 C1555 1.400 . S
C1552 H1537 0.960 . S
C1552 H1538 0.960 . S
C1552 H1539 0.939 1_556 S
C1552 C1551 1.524 . S
C1553 C1550 1.403 . S
C1553 C1554 1.392 1_455 S
C1553 C1557 1.495 . S
C1554 C1553 1.392 1_655 S
C1554 C1555 1.385 . S
C1554 C1556 1.478 1_655 S
C1555 H1549 0.930 . S
C1555 C1551 1.400 . S
C1555 C1554 1.385 . S
C1556 C1554 1.478 1_455 S
C1556 C1558 1.381 . S
C1556 C1562 1.383 . S
C1557 C1553 1.495 . S
C1557 H1563 0.959 . S
C1557 H1564 0.961 . S
C1557 H1565 0.960 . S
C1558 C1556 1.381 . S
C1558 C1559 1.394 . S
C1558 H1566 0.930 . S
C1559 C1558 1.394 . S
C1559 C1560 1.383 . S
C1559 H1567 0.929 . S
C1560 C1559 1.383 . S
C1560 C1561 1.377 . S
C1561 H1545 0.930 . S
C1561 C1560 1.377 . S
C1561 C1562 1.379 . S
C1562 H1546 0.931 . S
C1562 C1556 1.383 . S
C1562 C1561 1.379 . S
H1563 C1557 0.959 . S
H1564 C1557 0.961 . S
H1565 C1557 0.960 . S
H1566 C1558 0.930 . S
H1567 C1559 0.929 . S
H1568 C1576 0.929 . S
H1569 C1578 0.930 . S
H1570 C1580 0.930 . S
H1571 C1583 0.929 . S
H1572 C1586 0.930 . S
H1573 C1588 0.960 . S
H1574 C1588 0.960 . S
H1575 C1588 0.960 . S
C1576 H1568 0.929 . S
C1576 C1577 1.377 . S
C1576 C1578 1.384 . S
C1577 C1576 1.377 . S
C1577 C1583 1.390 . S
C1578 H1569 0.930 . S
C1578 C1576 1.384 . S
C1578 C1579 1.372 . S
C1579 C1578 1.372 . S
C1579 C1580 1.400 . S
C1579 C1584 1.490 . S
C1580 H1570 0.930 . S
C1580 C1579 1.400 . S
C1580 C1583 1.386 . S
H1581 C1597 0.930 . S
H1582 C1598 0.931 . S
C1583 H1571 0.929 . S
C1583 C1577 1.390 . S
C1583 C1580 1.386 . S
C1584 C1579 1.490 . S
C1584 C1586 1.395 . S
C1584 C1587 1.403 . S
H1585 C1591 0.930 . S
C1586 H1572 0.930 . S
C1586 C1584 1.395 . S
C1586 C1589 1.403 . S
C1587 C1584 1.403 . S
C1587 C1588 1.524 . S
C1587 C1591 1.400 . S
C1588 H1573 0.960 . S
C1588 H1574 0.960 . S
C1588 H1575 0.960 . S
C1588 C1587 1.524 . S
C1589 C1586 1.403 . S
C1589 C1590 1.392 . S
C1589 C1593 1.495 . S
C1590 C1589 1.392 . S
C1590 C1591 1.385 . S
C1590 C1592 1.478 . S
C1591 H1585 0.930 . S
C1591 C1587 1.400 . S
C1591 C1590 1.385 . S
C1592 C1590 1.478 . S
C1592 C1594 1.381 . S
C1592 C1598 1.383 . S
C1593 C1589 1.495 . S
C1593 H1599 0.959 . S
C1593 H1600 0.961 . S
C1593 H1601 0.960 . S
C1594 C1592 1.381 . S
C1594 C1595 1.394 . S
C1594 H1602 0.930 . S
C1595 C1594 1.394 . S
C1595 C1596 1.383 . S
C1595 H1603 0.929 . S
C1596 C1595 1.383 . S
C1596 C1597 1.377 . S
C1597 H1581 0.930 . S
C1597 C1596 1.377 . S
C1597 C1598 1.379 . S
C1598 H1582 0.931 . S
C1598 C1592 1.383 . S
C1598 C1597 1.379 . S
H1599 C1593 0.959 . S
H1600 C1593 0.961 . S
H1601 C1593 0.960 . S
H1602 C1594 0.930 . S
H1603 C1595 0.929 . S
H1604 C1612 0.929 . S
H1605 C1614 0.930 . S
H1606 C1616 0.930 . S
H1607 C1619 0.929 . S
H1608 C1622 0.930 . S
H1609 C1624 0.957 . S
H1610 C1624 0.960 . S
H1611 C1624 0.963 1_554 S
C1612 H1604 0.929 . S
C1612 C1613 1.377 1_556 S
C1612 C1614 1.384 . S
C1613 C1612 1.377 1_554 S
C1613 C1619 1.390 . S
C1614 H1605 0.930 . S
C1614 C1612 1.384 . S
C1614 C1615 1.372 . S
C1615 C1614 1.372 . S
C1615 C1616 1.400 1_556 S
C1615 C1620 1.490 . S
C1616 H1606 0.930 . S
C1616 C1615 1.400 1_554 S
C1616 C1619 1.386 . S
H1617 C1633 0.930 . S
H1618 C1634 0.931 . S
C1619 H1607 0.929 . S
C1619 C1613 1.390 . S
C1619 C1616 1.386 . S
C1620 C1615 1.490 . S
C1620 C1622 1.395 . S
C1620 C1623 1.403 . S
H1621 C1627 0.930 . S
C1622 H1608 0.930 . S
C1622 C1620 1.395 . S
C1622 C1625 1.403 . S
C1623 C1620 1.403 . S
C1623 C1624 1.522 . S
C1623 C1627 1.400 . S
C1624 H1609 0.957 . S
C1624 H1610 0.960 . S
C1624 H1611 0.963 1_556 S
C1624 C1623 1.522 . S
C1625 C1622 1.403 . S
C1625 C1626 1.392 . S
C1625 C1629 1.495 . S
C1626 C1625 1.392 . S
C1626 C1627 1.385 . S
C1626 C1628 1.478 . S
C1627 H1621 0.930 . S
C1627 C1623 1.400 . S
C1627 C1626 1.385 . S
C1628 C1626 1.478 . S
C1628 C1630 1.381 . S
C1628 C1634 1.383 . S
C1629 C1625 1.495 . S
C1629 H1635 0.959 . S
C1629 H1636 0.961 . S
C1629 H1637 0.960 . S
C1630 C1628 1.381 . S
C1630 C1631 1.394 . S
C1630 H1638 0.930 . S
C1631 C1630 1.394 . S
C1631 C1632 1.383 . S
C1631 H1639 0.929 . S
C1632 C1631 1.383 . S
C1632 C1633 1.377 . S
C1633 H1617 0.930 . S
C1633 C1632 1.377 . S
C1633 C1634 1.379 . S
C1634 H1618 0.931 . S
C1634 C1628 1.383 . S
C1634 C1633 1.379 . S
H1635 C1629 0.959 . S
H1636 C1629 0.961 . S
H1637 C1629 0.960 . S
H1638 C1630 0.930 . S
H1639 C1631 0.929 . S
H1640 C1648 0.929 . S
H1641 C1650 0.930 . S
H1642 C1652 0.930 . S
H1643 C1655 0.929 . S
H1644 C1658 0.930 . S
H1645 C1660 0.960 . S
H1646 C1660 0.960 . S
H1647 C1660 0.960 . S
C1648 H1640 0.929 . S
C1648 C1649 1.377 . S
C1648 C1650 1.384 . S
C1649 C1648 1.377 . S
C1649 C1655 1.390 . S
C1650 H1641 0.930 . S
C1650 C1648 1.384 . S
C1650 C1651 1.372 . S
C1651 C1650 1.372 . S
C1651 C1652 1.400 . S
C1651 C1656 1.490 . S
C1652 H1642 0.930 . S
C1652 C1651 1.400 . S
C1652 C1655 1.386 . S
H1653 C1669 0.930 . S
H1654 C1670 0.931 . S
C1655 H1643 0.929 . S
C1655 C1649 1.390 . S
C1655 C1652 1.386 . S
C1656 C1651 1.490 . S
C1656 C1658 1.395 . S
C1656 C1659 1.403 . S
H1657 C1663 0.930 . S
C1658 H1644 0.930 . S
C1658 C1656 1.395 . S
C1658 C1661 1.403 . S
C1659 C1656 1.403 . S
C1659 C1660 1.524 . S
C1659 C1663 1.400 . S
C1660 H1645 0.960 . S
C1660 H1646 0.960 . S
C1660 H1647 0.960 . S
C1660 C1659 1.524 . S
C1661 C1658 1.403 . S
C1661 C1662 1.392 . S
C1661 C1665 1.495 . S
C1662 C1661 1.392 . S
C1662 C1663 1.385 . S
C1662 C1664 1.478 . S
C1663 H1657 0.930 . S
C1663 C1659 1.400 . S
C1663 C1662 1.385 . S
C1664 C1662 1.478 . S
C1664 C1666 1.381 . S
C1664 C1670 1.383 . S
C1665 C1661 1.495 . S
C1665 H1671 0.959 . S
C1665 H1672 0.961 . S
C1665 H1673 0.960 . S
C1666 C1664 1.381 . S
C1666 C1667 1.394 . S
C1666 H1674 0.930 . S
C1667 C1666 1.394 . S
C1667 C1668 1.383 . S
C1667 H1675 0.929 . S
C1668 C1667 1.383 . S
C1668 C1669 1.377 . S
C1669 H1653 0.930 . S
C1669 C1668 1.377 . S
C1669 C1670 1.379 . S
C1670 H1654 0.931 . S
C1670 C1664 1.383 . S
C1670 C1669 1.379 . S
H1671 C1665 0.959 . S
H1672 C1665 0.961 . S
H1673 C1665 0.960 . S
H1674 C1666 0.930 . S
H1675 C1667 0.929 . S
H1676 C1684 0.929 . S
H1677 C1686 0.930 . S
H1678 C1688 0.930 . S
H1679 C1691 0.929 1_556 S
H1680 C1694 0.930 . S
H1681 C1696 0.960 . S
H1682 C1696 0.960 . S
H1683 C1696 0.960 . S
C1684 H1676 0.929 . S
C1684 C1685 1.377 . S
C1684 C1686 1.384 . S
C1685 C1684 1.377 . S
C1685 C1691 1.390 . S
C1686 H1677 0.930 . S
C1686 C1684 1.384 . S
C1686 C1687 1.372 . S
C1687 C1686 1.372 . S
C1687 C1688 1.400 . S
C1687 C1692 1.490 . S
C1688 H1678 0.930 . S
C1688 C1687 1.400 . S
C1688 C1691 1.386 . S
H1689 C1705 0.930 . S
H1690 C1706 0.931 . S
C1691 H1679 0.929 1_554 S
C1691 C1685 1.390 . S
C1691 C1688 1.386 . S
C1692 C1687 1.490 . S
C1692 C1694 1.395 . S
C1692 C1695 1.403 . S
H1693 C1699 0.930 . S
C1694 H1680 0.930 . S
C1694 C1692 1.395 . S
C1694 C1697 1.403 . S
C1695 C1692 1.403 . S
C1695 C1696 1.524 . S
C1695 C1699 1.400 . S
C1696 H1681 0.960 . S
C1696 H1682 0.960 . S
C1696 H1683 0.960 . S
C1696 C1695 1.524 . S
C1697 C1694 1.403 . S
C1697 C1698 1.392 . S
C1697 C1701 1.495 . S
C1698 C1697 1.392 . S
C1698 C1699 1.385 . S
C1698 C1700 1.478 . S
C1699 H1693 0.930 . S
C1699 C1695 1.400 . S
C1699 C1698 1.385 . S
C1700 C1698 1.478 . S
C1700 C1702 1.381 . S
C1700 C1706 1.383 . S
C1701 C1697 1.495 . S
C1701 H1707 0.959 . S
C1701 H1708 0.961 . S
C1701 H1709 0.960 . S
C1702 C1700 1.381 . S
C1702 C1703 1.394 . S
C1702 H1710 0.930 . S
C1703 C1702 1.394 . S
C1703 C1704 1.383 . S
C1703 H1711 0.929 . S
C1704 C1703 1.383 . S
C1704 C1705 1.377 . S
C1705 H1689 0.930 . S
C1705 C1704 1.377 . S
C1705 C1706 1.379 . S
C1706 H1690 0.931 . S
C1706 C1700 1.383 . S
C1706 C1705 1.379 . S
H1707 C1701 0.959 . S
H1708 C1701 0.961 . S
H1709 C1701 0.960 . S
H1710 C1702 0.930 . S
H1711 C1703 0.929 . S
H1712 C1720 0.929 . S
H1713 C1722 0.930 . S
H1714 C1724 0.930 . S
H1715 C1727 0.929 . S
H1716 C1730 0.930 . S
H1717 C1732 0.960 . S
H1718 C1732 0.960 . S
H1719 C1732 0.960 . S
C1720 H1712 0.929 . S
C1720 C1721 1.377 . S
C1720 C1722 1.384 . S
C1721 C1720 1.377 . S
C1721 C1727 1.390 . S
C1722 H1713 0.930 . S
C1722 C1720 1.384 . S
C1722 C1723 1.372 . S
C1723 C1722 1.372 . S
C1723 C1724 1.400 . S
C1723 C1728 1.490 . S
C1724 H1714 0.930 . S
C1724 C1723 1.400 . S
C1724 C1727 1.386 . S
H1725 C1741 0.930 . S
H1726 C1742 0.931 . S
C1727 H1715 0.929 . S
C1727 C1721 1.390 . S
C1727 C1724 1.386 . S
C1728 C1723 1.490 . S
C1728 C1730 1.395 . S
C1728 C1731 1.403 . S
H1729 C1735 0.930 . S
C1730 H1716 0.930 . S
C1730 C1728 1.395 . S
C1730 C1733 1.403 . S
C1731 C1728 1.403 . S
C1731 C1732 1.524 . S
C1731 C1735 1.400 . S
C1732 H1717 0.960 . S
C1732 H1718 0.960 . S
C1732 H1719 0.960 . S
C1732 C1731 1.524 . S
C1733 C1730 1.403 . S
C1733 C1734 1.392 . S
C1733 C1737 1.495 . S
C1734 C1733 1.392 . S
C1734 C1735 1.385 . S
C1734 C1736 1.478 . S
C1735 H1729 0.930 . S
C1735 C1731 1.400 . S
C1735 C1734 1.385 . S
C1736 C1734 1.478 . S
C1736 C1738 1.381 . S
C1736 C1742 1.383 . S
C1737 C1733 1.495 . S
C1737 H1743 0.959 . S
C1737 H1744 0.961 . S
C1737 H1745 0.960 . S
C1738 C1736 1.381 . S
C1738 C1739 1.394 . S
C1738 H1746 0.930 . S
C1739 C1738 1.394 . S
C1739 C1740 1.383 . S
C1739 H1747 0.929 . S
C1740 C1739 1.383 . S
C1740 C1741 1.377 . S
C1741 H1725 0.930 . S
C1741 C1740 1.377 . S
C1741 C1742 1.379 . S
C1742 H1726 0.931 . S
C1742 C1736 1.383 . S
C1742 C1741 1.379 . S
H1743 C1737 0.959 . S
H1744 C1737 0.961 . S
H1745 C1737 0.960 . S
H1746 C1738 0.930 . S
H1747 C1739 0.929 . S
H1748 C1756 0.929 . S
H1749 C1758 0.930 . S
H1750 C1760 0.930 . S
H1751 C1763 0.929 . S
H1752 C1766 0.930 . S
H1753 C1768 0.960 . S
H1754 C1768 0.960 . S
H1755 C1768 0.960 . S
C1756 H1748 0.929 . S
C1756 C1757 1.377 . S
C1756 C1758 1.384 . S
C1757 C1756 1.377 . S
C1757 C1763 1.390 . S
C1758 H1749 0.930 . S
C1758 C1756 1.384 . S
C1758 C1759 1.372 1_556 S
C1759 C1758 1.372 1_554 S
C1759 C1760 1.400 . S
C1759 C1764 1.490 . S
C1760 H1750 0.930 . S
C1760 C1759 1.400 . S
C1760 C1763 1.386 1_554 S
H1761 C1777 0.930 . S
H1762 C1778 0.931 . S
C1763 H1751 0.929 . S
C1763 C1757 1.390 . S
C1763 C1760 1.386 1_556 S
C1764 C1759 1.490 . S
C1764 C1766 1.395 . S
C1764 C1767 1.403 . S
H1765 C1771 0.930 . S
C1766 H1752 0.930 . S
C1766 C1764 1.395 . S
C1766 C1769 1.403 . S
C1767 C1764 1.403 . S
C1767 C1768 1.524 . S
C1767 C1771 1.400 . S
C1768 H1753 0.960 . S
C1768 H1754 0.960 . S
C1768 H1755 0.960 . S
C1768 C1767 1.524 . S
C1769 C1766 1.403 . S
C1769 C1770 1.392 . S
C1769 C1773 1.495 . S
C1770 C1769 1.392 . S
C1770 C1771 1.385 . S
C1770 C1772 1.478 . S
C1771 H1765 0.930 . S
C1771 C1767 1.400 . S
C1771 C1770 1.385 . S
C1772 C1770 1.478 . S
C1772 C1774 1.381 . S
C1772 C1778 1.383 . S
C1773 C1769 1.495 . S
C1773 H1779 0.959 . S
C1773 H1780 0.961 . S
C1773 H1781 0.960 . S
C1774 C1772 1.381 . S
C1774 C1775 1.394 . S
C1774 H1782 0.930 . S
C1775 C1774 1.394 . S
C1775 C1776 1.383 . S
C1775 H1783 0.929 . S
C1776 C1775 1.383 . S
C1776 C1777 1.377 . S
C1777 H1761 0.930 . S
C1777 C1776 1.377 . S
C1777 C1778 1.379 . S
C1778 H1762 0.931 . S
C1778 C1772 1.383 . S
C1778 C1777 1.379 . S
H1779 C1773 0.959 . S
H1780 C1773 0.961 . S
H1781 C1773 0.960 . S
H1782 C1774 0.930 . S
H1783 C1775 0.929 . S
H1784 C1792 0.929 . S
H1785 C1794 0.930 . S
H1786 C1796 0.930 . S
H1787 C1799 0.929 . S
H1788 C1802 0.930 . S
H1789 C1804 0.960 . S
H1790 C1804 0.960 . S
H1791 C1804 0.960 . S
C1792 H1784 0.929 . S
C1792 C1793 1.377 . S
C1792 C1794 1.384 . S
C1793 C1792 1.377 . S
C1793 C1799 1.390 . S
C1794 H1785 0.930 . S
C1794 C1792 1.384 . S
C1794 C1795 1.372 . S
C1795 C1794 1.372 . S
C1795 C1796 1.400 . S
C1795 C1800 1.490 . S
C1796 H1786 0.930 . S
C1796 C1795 1.400 . S
C1796 C1799 1.386 . S
H1797 C1813 0.930 . S
H1798 C1814 0.931 . S
C1799 H1787 0.929 . S
C1799 C1793 1.390 . S
C1799 C1796 1.386 . S
C1800 C1795 1.490 . S
C1800 C1802 1.395 . S
C1800 C1803 1.403 . S
H1801 C1807 0.930 . S
C1802 H1788 0.930 . S
C1802 C1800 1.395 . S
C1802 C1805 1.403 . S
C1803 C1800 1.403 . S
C1803 C1804 1.524 . S
C1803 C1807 1.400 . S
C1804 H1789 0.960 . S
C1804 H1790 0.960 . S
C1804 H1791 0.960 . S
C1804 C1803 1.524 . S
C1805 C1802 1.403 . S
C1805 C1806 1.392 . S
C1805 C1809 1.495 . S
C1806 C1805 1.392 . S
C1806 C1807 1.385 . S
C1806 C1808 1.478 . S
C1807 H1801 0.930 . S
C1807 C1803 1.400 . S
C1807 C1806 1.385 . S
C1808 C1806 1.478 . S
C1808 C1810 1.381 . S
C1808 C1814 1.383 . S
C1809 C1805 1.495 . S
C1809 H1815 0.959 . S
C1809 H1816 0.961 . S
C1809 H1817 0.960 . S
C1810 C1808 1.381 . S
C1810 C1811 1.394 . S
C1810 H1818 0.930 . S
C1811 C1810 1.394 . S
C1811 C1812 1.383 . S
C1811 H1819 0.929 . S
C1812 C1811 1.383 . S
C1812 C1813 1.377 . S
C1813 H1797 0.930 . S
C1813 C1812 1.377 . S
C1813 C1814 1.379 . S
C1814 H1798 0.931 . S
C1814 C1808 1.383 . S
C1814 C1813 1.379 . S
H1815 C1809 0.959 . S
H1816 C1809 0.961 . S
H1817 C1809 0.960 . S
H1818 C1810 0.930 . S
H1819 C1811 0.929 . S
H1820 C1828 0.929 . S
H1821 C1830 0.930 . S
H1822 C1832 0.930 . S
H1823 C1835 0.929 . S
H1824 C1838 0.930 . S
H1825 C1840 0.960 . S
H1826 C1840 0.960 . S
H1827 C1840 0.960 . S
C1828 H1820 0.929 . S
C1828 C1829 1.377 . S
C1828 C1830 1.384 . S
C1829 C1828 1.377 . S
C1829 C1835 1.390 . S
C1830 H1821 0.930 . S
C1830 C1828 1.384 . S
C1830 C1831 1.372 . S
C1831 C1830 1.372 . S
C1831 C1832 1.400 . S
C1831 C1836 1.490 . S
C1832 H1822 0.930 . S
C1832 C1831 1.400 . S
C1832 C1835 1.386 . S
H1833 C1849 0.930 . S
H1834 C1850 0.931 . S
C1835 H1823 0.929 . S
C1835 C1829 1.390 . S
C1835 C1832 1.386 . S
C1836 C1831 1.490 . S
C1836 C1838 1.395 . S
C1836 C1839 1.403 . S
H1837 C1843 0.930 . S
C1838 H1824 0.930 . S
C1838 C1836 1.395 . S
C1838 C1841 1.403 . S
C1839 C1836 1.403 . S
C1839 C1840 1.524 . S
C1839 C1843 1.400 . S
C1840 H1825 0.960 . S
C1840 H1826 0.960 . S
C1840 H1827 0.960 . S
C1840 C1839 1.524 . S
C1841 C1838 1.403 . S
C1841 C1842 1.392 . S
C1841 C1845 1.495 . S
C1842 C1841 1.392 . S
C1842 C1843 1.385 . S
C1842 C1844 1.478 . S
C1843 H1837 0.930 . S
C1843 C1839 1.400 . S
C1843 C1842 1.385 . S
C1844 C1842 1.478 . S
C1844 C1846 1.381 . S
C1844 C1850 1.383 . S
C1845 C1841 1.495 . S
C1845 H1851 0.959 . S
C1845 H1852 0.961 . S
C1845 H1853 0.960 . S
C1846 C1844 1.381 . S
C1846 C1847 1.394 . S
C1846 H1854 0.930 . S
C1847 C1846 1.394 . S
C1847 C1848 1.383 . S
C1847 H1855 0.929 . S
C1848 C1847 1.383 . S
C1848 C1849 1.377 . S
C1849 H1833 0.930 . S
C1849 C1848 1.377 . S
C1849 C1850 1.379 . S
C1850 H1834 0.931 . S
C1850 C1844 1.383 . S
C1850 C1849 1.379 . S
H1851 C1845 0.959 . S
H1852 C1845 0.961 . S
H1853 C1845 0.960 . S
H1854 C1846 0.930 . S
H1855 C1847 0.929 . S
H1856 C1864 0.929 . S
H1857 C1866 0.930 . S
H1858 C1868 0.930 . S
H1859 C1871 0.929 . S
H1860 C1874 0.930 . S
H1861 C1876 0.960 . S
H1862 C1876 0.960 . S
H1863 C1876 0.960 . S
C1864 H1856 0.929 . S
C1864 C1865 1.377 . S
C1864 C1866 1.384 . S
C1865 C1864 1.377 . S
C1865 C1871 1.390 . S
C1866 H1857 0.930 . S
C1866 C1864 1.384 . S
C1866 C1867 1.372 . S
C1867 C1866 1.372 . S
C1867 C1868 1.400 . S
C1867 C1872 1.490 . S
C1868 H1858 0.930 . S
C1868 C1867 1.400 . S
C1868 C1871 1.386 . S
H1869 C1885 0.930 . S
H1870 C1886 0.931 . S
C1871 H1859 0.929 . S
C1871 C1865 1.390 . S
C1871 C1868 1.386 . S
C1872 C1867 1.490 . S
C1872 C1874 1.395 . S
C1872 C1875 1.403 . S
H1873 C1879 0.930 . S
C1874 H1860 0.930 . S
C1874 C1872 1.395 . S
C1874 C1877 1.403 . S
C1875 C1872 1.403 . S
C1875 C1876 1.524 . S
C1875 C1879 1.400 . S
C1876 H1861 0.960 . S
C1876 H1862 0.960 . S
C1876 H1863 0.960 . S
C1876 C1875 1.524 . S
C1877 C1874 1.403 . S
C1877 C1878 1.392 . S
C1877 C1881 1.495 . S
C1878 C1877 1.392 . S
C1878 C1879 1.385 . S
C1878 C1880 1.478 . S
C1879 H1873 0.930 . S
C1879 C1875 1.400 . S
C1879 C1878 1.385 . S
C1880 C1878 1.478 . S
C1880 C1882 1.381 . S
C1880 C1886 1.383 . S
C1881 C1877 1.495 . S
C1881 H1887 0.959 . S
C1881 H1888 0.961 . S
C1881 H1889 0.960 . S
C1882 C1880 1.381 . S
C1882 C1883 1.394 . S
C1882 H1890 0.930 . S
C1883 C1882 1.394 . S
C1883 C1884 1.383 . S
C1883 H1891 0.929 . S
C1884 C1883 1.383 . S
C1884 C1885 1.377 . S
C1885 H1869 0.930 . S
C1885 C1884 1.377 . S
C1885 C1886 1.379 . S
C1886 H1870 0.931 . S
C1886 C1880 1.383 . S
C1886 C1885 1.379 . S
H1887 C1881 0.959 . S
H1888 C1881 0.961 . S
H1889 C1881 0.960 . S
H1890 C1882 0.930 . S
H1891 C1883 0.929 . S
H1892 C1900 0.929 . S
H1893 C1902 0.930 . S
H1894 C1904 0.930 . S
H1895 C1907 0.929 . S
H1896 C1910 0.930 . S
H1897 C1912 0.960 . S
H1898 C1912 0.960 . S
H1899 C1912 0.960 . S
C1900 H1892 0.929 . S
C1900 C1901 1.377 . S
C1900 C1902 1.384 . S
C1901 C1900 1.377 . S
C1901 C1907 1.390 . S
C1902 H1893 0.930 . S
C1902 C1900 1.384 . S
C1902 C1903 1.372 . S
C1903 C1902 1.372 . S
C1903 C1904 1.400 . S
C1903 C1908 1.490 . S
C1904 H1894 0.930 . S
C1904 C1903 1.400 . S
C1904 C1907 1.386 . S
H1905 C1921 0.930 . S
H1906 C1922 0.931 . S
C1907 H1895 0.929 . S
C1907 C1901 1.390 . S
C1907 C1904 1.386 . S
C1908 C1903 1.490 . S
C1908 C1910 1.395 . S
C1908 C1911 1.403 . S
H1909 C1915 0.930 . S
C1910 H1896 0.930 . S
C1910 C1908 1.395 . S
C1910 C1913 1.403 . S
C1911 C1908 1.403 . S
C1911 C1912 1.524 . S
C1911 C1915 1.400 . S
C1912 H1897 0.960 . S
C1912 H1898 0.960 . S
C1912 H1899 0.960 . S
C1912 C1911 1.524 . S
C1913 C1910 1.403 . S
C1913 C1914 1.392 . S
C1913 C1917 1.495 . S
C1914 C1913 1.392 . S
C1914 C1915 1.385 . S
C1914 C1916 1.478 . S
C1915 H1909 0.930 . S
C1915 C1911 1.400 . S
C1915 C1914 1.385 . S
C1916 C1914 1.478 . S
C1916 C1918 1.381 . S
C1916 C1922 1.383 . S
C1917 C1913 1.495 . S
C1917 H1923 0.959 . S
C1917 H1924 0.961 . S
C1917 H1925 0.960 . S
C1918 C1916 1.381 . S
C1918 C1919 1.394 . S
C1918 H1926 0.930 . S
C1919 C1918 1.394 . S
C1919 C1920 1.383 . S
C1919 H1927 0.929 . S
C1920 C1919 1.383 . S
C1920 C1921 1.377 . S
C1921 H1905 0.930 . S
C1921 C1920 1.377 . S
C1921 C1922 1.379 . S
C1922 H1906 0.931 . S
C1922 C1916 1.383 . S
C1922 C1921 1.379 . S
H1923 C1917 0.959 . S
H1924 C1917 0.961 . S
H1925 C1917 0.960 . S
H1926 C1918 0.930 . S
H1927 C1919 0.929 . S
H1928 C1936 0.929 1_554 S
H1929 C1938 0.954 . S
H1930 C1940 0.930 . S
H1931 C1943 0.929 . S
H1932 C1946 0.930 . S
H1933 C1948 0.960 . S
H1934 C1948 0.960 . S
H1935 C1948 0.960 . S
C1936 H1928 0.929 1_556 S
C1936 C1937 1.377 . S
C1936 C1938 1.386 1_556 S
C1937 C1936 1.377 . S
C1937 C1943 1.390 . S
C1938 H1929 0.954 . S
C1938 C1936 1.386 1_554 S
C1938 C1939 1.346 1_554 S
C1939 C1938 1.346 1_556 S
C1939 C1940 1.400 . S
C1939 C1944 1.490 . S
C1940 H1930 0.930 . S
C1940 C1939 1.400 . S
C1940 C1943 1.386 . S
H1941 C1957 0.930 . S
H1942 C1958 0.931 . S
C1943 H1931 0.929 . S
C1943 C1937 1.390 . S
C1943 C1940 1.386 . S
C1944 C1939 1.490 . S
C1944 C1946 1.395 . S
C1944 C1947 1.403 . S
H1945 C1951 0.930 . S
C1946 H1932 0.930 . S
C1946 C1944 1.395 . S
C1946 C1949 1.403 . S
C1947 C1944 1.403 . S
C1947 C1948 1.524 . S
C1947 C1951 1.400 . S
C1948 H1933 0.960 . S
C1948 H1934 0.960 . S
C1948 H1935 0.960 . S
C1948 C1947 1.524 . S
C1949 C1946 1.403 . S
C1949 C1950 1.392 . S
C1949 C1953 1.495 1_556 S
C1950 C1949 1.392 . S
C1950 C1951 1.385 . S
C1950 C1952 1.478 . S
C1951 H1945 0.930 . S
C1951 C1947 1.400 . S
C1951 C1950 1.385 . S
C1952 C1950 1.478 . S
C1952 C1954 1.381 1_556 S
C1952 C1958 1.383 . S
C1953 C1949 1.495 1_554 S
C1953 H1959 0.959 . S
C1953 H1960 0.961 1_554 S
C1953 H1961 0.960 . S
C1954 C1952 1.381 1_554 S
C1954 C1955 1.394 . S
C1954 H1962 0.930 . S
C1955 C1954 1.394 . S
C1955 C1956 1.383 1_554 S
C1955 H1963 0.929 . S
C1956 C1955 1.383 1_556 S
C1956 C1957 1.377 . S
C1957 H1941 0.930 . S
C1957 C1956 1.377 . S
C1957 C1958 1.379 . S
C1958 H1942 0.931 . S
C1958 C1952 1.383 . S
C1958 C1957 1.379 . S
H1959 C1953 0.959 . S
H1960 C1953 0.961 1_556 S
H1961 C1953 0.960 . S
H1962 C1954 0.930 . S
H1963 C1955 0.929 . S
H1964 C1972 0.929 . S
H1965 C1974 0.930 . S
H1966 C1976 0.930 . S
H1967 C1979 0.929 . S
H1968 C1982 0.930 . S
H1969 C1984 0.960 . S
H1970 C1984 0.960 . S
H1971 C1984 0.960 . S
C1972 H1964 0.929 . S
C1972 C1973 1.377 . S
C1972 C1974 1.384 . S
C1973 C1972 1.377 . S
C1973 C1979 1.390 . S
C1974 H1965 0.930 . S
C1974 C1972 1.384 . S
C1974 C1975 1.372 . S
C1975 C1974 1.372 . S
C1975 C1976 1.400 . S
C1975 C1980 1.490 . S
C1976 H1966 0.930 . S
C1976 C1975 1.400 . S
C1976 C1979 1.386 . S
H1977 C1993 0.930 . S
H1978 C1994 0.931 . S
C1979 H1967 0.929 . S
C1979 C1973 1.390 . S
C1979 C1976 1.386 . S
C1980 C1975 1.490 . S
C1980 C1982 1.395 . S
C1980 C1983 1.403 . S
H1981 C1987 0.930 . S
C1982 H1968 0.930 . S
C1982 C1980 1.395 . S
C1982 C1985 1.403 . S
C1983 C1980 1.403 . S
C1983 C1984 1.524 . S
C1983 C1987 1.400 . S
C1984 H1969 0.960 . S
C1984 H1970 0.960 . S
C1984 H1971 0.960 . S
C1984 C1983 1.524 . S
C1985 C1982 1.403 . S
C1985 C1986 1.392 . S
C1985 C1989 1.495 . S
C1986 C1985 1.392 . S
C1986 C1987 1.385 . S
C1986 C1988 1.478 . S
C1987 H1981 0.930 . S
C1987 C1983 1.400 . S
C1987 C1986 1.385 . S
C1988 C1986 1.478 . S
C1988 C1990 1.381 . S
C1988 C1994 1.383 . S
C1989 C1985 1.495 . S
C1989 H1995 0.959 . S
C1989 H1996 0.961 . S
C1989 H1997 0.960 . S
C1990 C1988 1.381 . S
C1990 C1991 1.394 . S
C1990 H1998 0.930 . S
C1991 C1990 1.394 . S
C1991 C1992 1.383 . S
C1991 H1999 0.929 . S
C1992 C1991 1.383 . S
C1992 C1993 1.377 . S
C1993 H1977 0.930 . S
C1993 C1992 1.377 . S
C1993 C1994 1.379 . S
C1994 H1978 0.931 . S
C1994 C1988 1.383 . S
C1994 C1993 1.379 . S
H1995 C1989 0.959 . S
H1996 C1989 0.961 . S
H1997 C1989 0.960 . S
H1998 C1990 0.930 . S
H1999 C1991 0.929 . S
H2000 C2008 0.929 . S
H2001 C2010 0.930 . S
H2002 C2012 0.930 . S
H2003 C2015 0.929 . S
H2004 C2018 0.930 . S
H2005 C2020 0.960 . S
H2006 C2020 0.960 . S
H2007 C2020 0.960 . S
C2008 H2000 0.929 . S
C2008 C2009 1.377 . S
C2008 C2010 1.384 . S
C2009 C2008 1.377 . S
C2009 C2015 1.390 . S
C2010 H2001 0.930 . S
C2010 C2008 1.384 . S
C2010 C2011 1.372 . S
C2011 C2010 1.372 . S
C2011 C2012 1.400 . S
C2011 C2016 1.490 . S
C2012 H2002 0.930 . S
C2012 C2011 1.400 . S
C2012 C2015 1.386 . S
H2013 C2029 0.930 . S
H2014 C2030 0.931 . S
C2015 H2003 0.929 . S
C2015 C2009 1.390 . S
C2015 C2012 1.386 . S
C2016 C2011 1.490 . S
C2016 C2018 1.395 . S
C2016 C2019 1.403 . S
H2017 C2023 0.930 . S
C2018 H2004 0.930 . S
C2018 C2016 1.395 . S
C2018 C2021 1.403 . S
C2019 C2016 1.403 . S
C2019 C2020 1.524 . S
C2019 C2023 1.400 . S
C2020 H2005 0.960 . S
C2020 H2006 0.960 . S
C2020 H2007 0.960 . S
C2020 C2019 1.524 . S
C2021 C2018 1.403 . S
C2021 C2022 1.392 . S
C2021 C2025 1.495 . S
C2022 C2021 1.392 . S
C2022 C2023 1.385 . S
C2022 C2024 1.478 . S
C2023 H2017 0.930 . S
C2023 C2019 1.400 . S
C2023 C2022 1.385 . S
C2024 C2022 1.478 . S
C2024 C2026 1.381 . S
C2024 C2030 1.383 . S
C2025 C2021 1.495 . S
C2025 H2031 0.959 . S
C2025 H2032 0.961 . S
C2025 H2033 0.960 . S
C2026 C2024 1.381 . S
C2026 C2027 1.394 1_554 S
C2026 H2034 0.930 1_554 S
C2027 C2026 1.394 1_556 S
C2027 C2028 1.383 1_556 S
C2027 H2035 0.929 . S
C2028 C2027 1.383 1_554 S
C2028 C2029 1.377 . S
C2029 H2013 0.930 . S
C2029 C2028 1.377 . S
C2029 C2030 1.379 . S
C2030 H2014 0.931 . S
C2030 C2024 1.383 . S
C2030 C2029 1.379 . S
H2031 C2025 0.959 . S
H2032 C2025 0.961 . S
H2033 C2025 0.960 . S
H2034 C2026 0.930 1_556 S
H2035 C2027 0.929 . S
H2036 C2044 0.929 . S
H2037 C2046 0.930 . S
H2038 C2048 0.930 1_565 S
H2039 C2051 0.929 . S
H2040 C2054 0.930 . S
H2041 C2056 0.960 . S
H2042 C2056 0.960 . S
H2043 C2056 0.960 . S
C2044 H2036 0.929 . S
C2044 C2045 1.377 . S
C2044 C2046 1.384 . S
C2045 C2044 1.377 . S
C2045 C2051 1.390 . S
C2046 H2037 0.930 . S
C2046 C2044 1.384 . S
C2046 C2047 1.372 . S
C2047 C2046 1.372 . S
C2047 C2048 1.400 . S
C2047 C2052 1.490 1_545 S
C2048 H2038 0.930 1_545 S
C2048 C2047 1.400 . S
C2048 C2051 1.386 . S
H2049 C2065 0.930 . S
H2050 C2066 0.931 . S
C2051 H2039 0.929 . S
C2051 C2045 1.390 . S
C2051 C2048 1.386 . S
C2052 C2047 1.490 1_565 S
C2052 C2054 1.395 . S
C2052 C2055 1.403 . S
H2053 C2059 0.930 . S
C2054 H2040 0.930 . S
C2054 C2052 1.395 . S
C2054 C2057 1.403 . S
C2055 C2052 1.403 . S
C2055 C2056 1.524 1_565 S
C2055 C2059 1.400 . S
C2056 H2041 0.960 . S
C2056 H2042 0.960 . S
C2056 H2043 0.960 . S
C2056 C2055 1.524 1_545 S
C2057 C2054 1.403 . S
C2057 C2058 1.392 . S
C2057 C2061 1.495 . S
C2058 C2057 1.392 . S
C2058 C2059 1.385 . S
C2058 C2060 1.478 . S
C2059 H2053 0.930 . S
C2059 C2055 1.400 . S
C2059 C2058 1.385 . S
C2060 C2058 1.478 . S
C2060 C2062 1.381 . S
C2060 C2066 1.383 . S
C2061 C2057 1.495 . S
C2061 H2067 0.959 . S
C2061 H2068 0.961 . S
C2061 H2069 0.960 . S
C2062 C2060 1.381 . S
C2062 C2063 1.394 . S
C2062 H2070 0.930 . S
C2063 C2062 1.394 . S
C2063 C2064 1.383 . S
C2063 H2071 0.929 . S
C2064 C2063 1.383 . S
C2064 C2065 1.377 . S
C2065 H2049 0.930 . S
C2065 C2064 1.377 . S
C2065 C2066 1.379 . S
C2066 H2050 0.931 . S
C2066 C2060 1.383 . S
C2066 C2065 1.379 . S
H2067 C2061 0.959 . S
H2068 C2061 0.961 . S
H2069 C2061 0.960 . S
H2070 C2062 0.930 . S
H2071 C2063 0.929 . S
C372 C184 1.581 1_556 S
C353 C60 1.640 . S
C408 C197 1.264 . S
C389 C76 1.262 . S
C425 C81 1.860 . S
C444 C217 1.754 . S
C480 C231 1.436 . S
C461 C48 1.520 . S
C516 C243 1.537 . S
C497 C115 1.545 . S
C552 C257 1.530 . S
C533 C136 1.533 . S
C569 C131 1.268 . S
C588 C267 1.262 . S
C624 C282 1.532 . S
C605 C104 1.551 . S
C641 C126 1.494 . S
C660 C296 1.415 . S
C696 C315 1.201 . S
C677 C103 1.288 . S
C713 C120 1.390 . S
C732 C295 1.375 . S
C768 C313 1.335 . S
C749 C142 1.330 . S
C785 C82 1.666 . S
C804 C329 1.526 . S
C821 C54 1.855 . S
C840 C323 1.846 . S
C857 C65 1.440 . S
C876 C327 1.446 . S
C893 C71 1.248 . S
C912 C324 1.220 . S
C929 C37 1.582 . S
C948 C226 1.537 . S
C965 C158 1.991 . S
C984 C225 1.974 . S
C1020 C189 1.274 . S
C1001 C169 1.305 . S
C1056 C203 1.323 . S
C1037 C98 1.394 . S
C1073 C49 1.762 . S
C1092 C240 1.769 . S
C1128 C285 1.433 . S
C1109 C125 1.451 . S
C1164 C239 1.306 . S
C1145 C109 1.304 1_545 S
C1200 C271 1.753 . S
C1181 C137 1.746 . S
C1236 C268 1.612 . S
C1217 C159 1.640 . S
C1253 C175 1.260 . S
C1272 C281 1.256 . S
C1289 C92 1.860 . S
C1308 C245 1.719 . S
C1344 C259 1.382 . S
C1325 C147 1.521 . S
C1361 C38 1.544 . S
C1380 C215 1.530 . S
C1416 C229 1.514 . S
C1397 C4 1.533 . S
C1452 C183 1.238 . S
C1433 C21 1.266 . S
C1488 C198 1.537 . S
C1469 C27 1.550 . S
C1505 C16 1.496 . S
C1524 C310 1.433 . S
C1541 C26 1.288 . S
C1560 C301 1.182 . S
C1577 C43 1.390 . S
C1596 C309 1.377 . S
C1613 C10 1.330 . S
C1632 C299 1.331 . S
C1668 C343 1.581 . S
C1649 C93 1.667 . S
C1704 C337 1.832 . S
C1685 C153 1.854 . S
C1740 C341 1.427 . S
C1721 C164 1.435 . S
C1757 C170 1.250 . S
C1776 C338 1.214 . S
C1793 C114 1.582 . S
C1812 C254 1.541 . S
C1848 C253 1.969 . S
C1829 C59 1.990 . S
C1884 C273 1.229 . S
C1865 C70 1.309 . S
C1920 C287 1.335 . S
C1901 C87 1.396 . S
C1937 C148 1.764 . S
C1956 C212 1.766 . S
C1992 C201 1.448 . S
C1973 C15 1.451 . S
C2009 C32 1.305 . S
C2028 C211 1.292 . S
C2064 C187 1.746 . S
C2045 C5 1.746 . S
