# Generated by pormake.
# Topology wbl, (4,4)-cn, num edge types: 1
# Building blocks:
#     Node 0, Type 0, BuildingBlock: NAWXER_clean_linker_0, # of connection points: 4
#     Node 1, Type 0, BuildingBlock: NAWXER_clean_linker_0, # of connection points: 4
#     Node 2, Type 0, BuildingBlock: NAWXER_clean_linker_0, # of connection points: 4
#     Node 3, Type 0, BuildingBlock: NAWXER_clean_linker_0, # of connection points: 4
#     Node 4, Type 0, BuildingBlock: NAWXER_clean_linker_0, # of connection points: 4
#     Node 5, Type 0, BuildingBlock: NAWXER_clean_linker_0, # of connection points: 4
#     Node 6, Type 0, BuildingBlock: NAWXER_clean_linker_0, # of connection points: 4
#     Node 7, Type 0, BuildingBlock: NAWXER_clean_linker_0, # of connection points: 4
#     Node 8, Type 1, BuildingBlock: QUQFOY_clean_sbu_1, # of connection points: 4
#     Node 9, Type 1, BuildingBlock: QUQFOY_clean_sbu_1, # of connection points: 4
#     Node 10, Type 1, BuildingBlock: QUQFOY_clean_sbu_1, # of connection points: 4
#     Node 11, Type 1, BuildingBlock: QUQFOY_clean_sbu_1, # of connection points: 4
#     Node 12, Type 1, BuildingBlock: QUQFOY_clean_sbu_1, # of connection points: 4
#     Node 13, Type 1, BuildingBlock: QUQFOY_clean_sbu_1, # of connection points: 4
#     Node 14, Type 1, BuildingBlock: QUQFOY_clean_sbu_1, # of connection points: 4
#     Node 15, Type 1, BuildingBlock: QUQFOY_clean_sbu_1, # of connection points: 4
#     Edge 16, Type (0, 1), None
#     Edge 17, Type (0, 1), None
#     Edge 18, Type (0, 1), None
#     Edge 19, Type (0, 1), None
#     Edge 20, Type (0, 1), None
#     Edge 21, Type (0, 1), None
#     Edge 22, Type (0, 1), None
#     Edge 23, Type (0, 1), None
#     Edge 24, Type (0, 1), None
#     Edge 25, Type (0, 1), None
#     Edge 26, Type (0, 1), None
#     Edge 27, Type (0, 1), None
#     Edge 28, Type (0, 1), None
#     Edge 29, Type (0, 1), None
#     Edge 30, Type (0, 1), None
#     Edge 31, Type (0, 1), None
#     Edge 32, Type (0, 1), None
#     Edge 33, Type (0, 1), None
#     Edge 34, Type (0, 1), None
#     Edge 35, Type (0, 1), None
#     Edge 36, Type (0, 1), None
#     Edge 37, Type (0, 1), None
#     Edge 38, Type (0, 1), None
#     Edge 39, Type (0, 1), None
#     Edge 40, Type (0, 1), None
#     Edge 41, Type (0, 1), None
#     Edge 42, Type (0, 1), None
#     Edge 43, Type (0, 1), None
#     Edge 44, Type (0, 1), None
#     Edge 45, Type (0, 1), None
#     Edge 46, Type (0, 1), None
#     Edge 47, Type (0, 1), None
# Relax obj value: 0.183
# Max RMSD: 0.214
# Mean RMSD: 0.162
data_MOF--net-wbl--node1-QUQFOY_clean_sbu_1--node2-NAWXER_clean_linker_0--edge1-none
_symmetry_space_group_name_H-M    P1
_symmetry_Int_Tables_number       1
_symmetry_cell_setting            triclinic
loop_
_symmetry_equiv_pos_as_xyz
'x, y, z'
_cell_length_a     24.519905
_cell_length_b     24.477743
_cell_length_c     43.303152
_cell_angle_alpha  93.327528
_cell_angle_beta   93.116714
_cell_angle_gamma 90.492155
loop_
_atom_site_label
_atom_site_type_symbol
_atom_site_fract_x
_atom_site_fract_y
_atom_site_fract_z
_atom_type_partial_charge
C0 C 0.21009 0.93536 0.41516 0.0
C1 C 0.23903 0.95881 0.44155 0.0
C2 C 0.19007 0.96855 0.39191 0.0
C3 C 0.20025 0.02539 0.39427 0.0
C4 C 0.25218 0.01488 0.44292 0.0
C5 C 0.2332 0.04774 0.41946 0.0
C6 C 0.16646 0.06288 0.37576 0.0
C7 C 0.2706 0.98257 0.30465 0.0
C8 C 0.24573 0.93204 0.29485 0.0
C9 C 0.24076 0.02367 0.31956 0.0
C10 C 0.18517 0.01569 0.32403 0.0
C11 C 0.18946 0.92498 0.29817 0.0
C12 C 0.15909 0.96711 0.312 0.0
C13 C 0.15574 0.05613 0.34338 0.0
C14 C 0.98922 0.23771 0.32388 0.0
C15 C 0.94868 0.20625 0.30678 0.0
C16 C 0.03645 0.21257 0.33577 0.0
C17 C 0.04387 0.15585 0.3304 0.0
C18 C 0.95778 0.1502 0.30016 0.0
C19 C 0.00502 0.12542 0.31161 0.0
C20 C 0.08911 0.12672 0.34622 0.0
C21 C 0.97829 0.16226 0.42541 0.0
C22 C -0.00088 0.20192 0.44777 0.0
C23 C 0.00996 0.14332 0.40136 0.0
C24 C 0.06347 0.16302 0.39951 0.0
C25 C 0.05146 0.22416 0.445 0.0
C26 C 0.08391 0.204 0.42126 0.0
C27 C 0.1001 0.13338 0.37855 0.0
H28 H 0.19906 0.8923 0.4137 0.0
H29 H 0.16274 0.95028 0.3737 0.0
H30 H 0.27496 0.0339 0.46291 0.0
H31 H 0.24112 0.09144 0.42207 0.0
H32 H 0.31408 0.9889 0.30286 0.0
H33 H 0.2615 0.06098 0.32858 0.0
H34 H 0.16947 0.88628 0.2911 0.0
H35 H 0.1161 0.96034 0.31524 0.0
H36 H 0.98335 0.28097 0.32919 0.0
H37 H 0.06641 0.23706 0.34988 0.0
H38 H 0.9276 0.12499 0.28664 0.0
H39 H 0.00982 0.08177 0.30705 0.0
H40 H 0.93796 0.14458 0.42711 0.0
H41 H 0.99382 0.11083 0.38528 0.0
H42 H 0.06841 0.25446 0.46218 0.0
H43 H 0.12551 0.21891 0.42051 0.0
N44 N 0.13835 0.10141 0.39192 0.0
N45 N 0.11731 0.08816 0.32974 0.0
C46 C 0.91596 0.51814 0.68274 0.0
C47 C 0.94437 0.47237 0.69294 0.0
C48 C 0.93676 0.54886 0.65957 0.0
C49 C 0.98492 0.53286 0.64555 0.0
C50 C 0.99158 0.45567 0.67816 0.0
C51 C 0.01147 0.48547 0.65459 0.0
C52 C 0.01411 0.57066 0.62667 0.0
C53 C 0.95947 0.44651 0.54562 0.0
C54 C 0.90594 0.44024 0.55511 0.0
C55 C 0.99105 0.49234 0.55625 0.0
C56 C 0.96946 0.53257 0.57635 0.0
C57 C 0.88271 0.48341 0.57257 0.0
C58 C 0.91414 0.52943 0.58287 0.0
C59 C 0.0069 0.5718 0.5942 0.0
C60 C 0.20472 0.70393 0.56231 0.0
C61 C 0.17981 0.74712 0.54701 0.0
C62 C 0.17292 0.66627 0.57693 0.0
C63 C 0.11574 0.67093 0.57622 0.0
C64 C 0.12243 0.75004 0.54524 0.0
C65 C 0.09076 0.71201 0.55942 0.0
C66 C 0.0817 0.63538 0.59417 0.0
C67 C 0.17914 0.74152 0.67027 0.0
C68 C 0.20282 0.71043 0.69366 0.0
C69 C 0.14445 0.71619 0.64675 0.0
C70 C 0.13461 0.65942 0.64607 0.0
C71 C 0.1951 0.65363 0.69199 0.0
C72 C 0.16184 0.62835 0.66827 0.0
C73 C 0.08974 0.63236 0.62658 0.0
H74 H 0.87974 0.53206 0.69395 0.0
H75 H 0.91669 0.58636 0.6536 0.0
H76 H 0.01412 0.42036 0.68548 0.0
H77 H 0.04931 0.47319 0.64453 0.0
H78 H 0.97848 0.41412 0.53204 0.0
H79 H 0.0336 0.49414 0.55077 0.0
H80 H 0.84129 0.4802 0.57986 0.0
H81 H 0.89619 0.56094 0.59754 0.0
H82 H 0.24879 0.70065 0.56413 0.0
H83 H 0.19302 0.63437 0.58945 0.0
H84 H 0.10195 0.7826 0.53347 0.0
H85 H 0.04674 0.71618 0.55843 0.0
H86 H 0.18441 0.78559 0.67141 0.0
H87 H 0.12297 0.74129 0.63039 0.0
H88 H 0.21328 0.62896 0.70973 0.0
H89 H 0.15495 0.58454 0.66826 0.0
N90 N 0.05543 0.60037 0.64134 0.0
N91 N 0.04075 0.60445 0.57904 0.0
C92 C 0.6054 0.44102 0.94629 0.0
C93 C 0.66205 0.43438 0.94778 0.0
C94 C 0.57972 0.46538 0.92117 0.0
C95 C 0.61041 0.48467 0.89747 0.0
C96 C 0.69246 0.44936 0.92298 0.0
C97 C 0.66688 0.47504 0.89808 0.0
C98 C 0.58467 0.5245 0.87695 0.0
C99 C 0.69406 0.46535 0.79243 0.0
C100 C 0.69582 0.4107 0.80071 0.0
C101 C 0.65654 0.50144 0.80534 0.0
C102 C 0.6201 0.48347 0.82661 0.0
C103 C 0.65548 0.39147 0.81939 0.0
C104 C 0.61746 0.42746 0.83193 0.0
C105 C 0.58829 0.52432 0.84445 0.0
C106 C 0.4684 0.7365 0.81874 0.0
C107 C 0.42768 0.71382 0.79774 0.0
C108 C 0.50742 0.70239 0.83227 0.0
C109 C 0.50542 0.64554 0.82496 0.0
C110 C 0.42953 0.65815 0.78817 0.0
C111 C 0.46836 0.62436 0.80148 0.0
C112 C 0.53604 0.60656 0.84382 0.0
C113 C 0.423 0.69261 0.91304 0.0
C114 C 0.45127 0.71131 0.94078 0.0
C115 C 0.44986 0.66051 0.89078 0.0
C116 C 0.50559 0.64849 0.89572 0.0
C117 C 0.50719 0.70088 0.94505 0.0
C118 C 0.5341 0.67016 0.92268 0.0
C119 C 0.53319 0.60675 0.87626 0.0
H120 H 0.58148 0.43043 0.96544 0.0
H121 H 0.53623 0.47284 0.9214 0.0
H122 H 0.73652 0.44563 0.92416 0.0
H123 H 0.69179 0.49094 0.88067 0.0
H124 H 0.7244 0.48143 0.77799 0.0
H125 H 0.65863 0.54425 0.80033 0.0
H126 H 0.65529 0.34936 0.82582 0.0
H127 H 0.58803 0.41203 0.84714 0.0
H128 H 0.4674 0.77935 0.82648 0.0
H129 H 0.53664 0.71971 0.84989 0.0
H130 H 0.39844 0.63999 0.77188 0.0
H131 H 0.46644 0.58083 0.79524 0.0
H132 H 0.37963 0.69972 0.90951 0.0
H133 H 0.42654 0.64294 0.87061 0.0
H134 H 0.52981 0.71505 0.96625 0.0
H135 H 0.57692 0.66114 0.92713 0.0
N136 N 0.55757 0.56579 0.89127 0.0
N137 N 0.56345 0.5653 0.82914 0.0
C138 C 0.4903 0.91034 0.08356 0.0
C139 C 0.44857 0.91881 0.0608 0.0
C140 C 0.5224 0.95373 0.09643 0.0
C141 C 0.51293 0.00713 0.08757 0.0
C142 C 0.43923 0.97232 0.05161 0.0
C143 C 0.47146 0.01623 0.06485 0.0
C144 C 0.54845 0.05215 0.10143 0.0
C145 C 0.45195 0.99133 0.18042 0.0
C146 C 0.48558 0.96913 0.20383 0.0
C147 C 0.47503 0.02053 0.15724 0.0
C148 C 0.53202 0.02772 0.15719 0.0
C149 C 0.54234 0.97709 0.20374 0.0
C150 C 0.56514 0.00606 0.18084 0.0
C151 C 0.55881 0.05947 0.13391 0.0
C152 C 0.70962 0.23542 0.1701 0.0
C153 C 0.74536 0.2046 0.18843 0.0
C154 C 0.67581 0.20905 0.14659 0.0
C155 C 0.67799 0.152 0.14148 0.0
C156 C 0.75114 0.14859 0.18112 0.0
C157 C 0.71773 0.12246 0.15772 0.0
C158 C 0.63154 0.12115 0.12614 0.0
C159 C 0.74764 0.17087 0.06101 0.0
C160 C 0.72661 0.21604 0.0459 0.0
C161 C 0.71254 0.13456 0.07413 0.0
C162 C 0.65589 0.14315 0.07271 0.0
C163 C 0.66951 0.22064 0.04134 0.0
C164 C 0.6344 0.18451 0.05477 0.0
C165 C 0.62089 0.11528 0.09388 0.0
H166 H 0.49927 0.86978 0.09107 0.0
H167 H 0.55532 0.94528 0.11313 0.0
H168 H 0.40782 0.98009 0.0339 0.0
H169 H 0.46406 0.05712 0.0574 0.0
H170 H 0.40805 0.98574 0.17985 0.0
H171 H 0.44848 0.03771 0.1396 0.0
H172 H 0.56955 0.96063 0.22134 0.0
H173 H 0.60916 0.01102 0.18146 0.0
H174 H 0.70409 0.27862 0.17588 0.0
H175 H 0.64472 0.23223 0.13454 0.0
H176 H 0.77806 0.1242 0.19531 0.0
H177 H 0.71945 0.07831 0.15422 0.0
H178 H 0.79131 0.16587 0.06474 0.0
H179 H 0.72991 0.10215 0.08741 0.0
H180 H 0.65188 0.25496 0.02981 0.0
H181 H 0.59081 0.19166 0.05326 0.0
N182 N 0.5794 0.081 0.08248 0.0
N183 N 0.60008 0.09349 0.14473 0.0
C184 C 0.13037 0.73366 0.87215 0.0
C185 C 0.17598 0.70498 0.86188 0.0
C186 C 0.09961 0.71305 0.89537 0.0
C187 C 0.11543 0.66484 0.90934 0.0
C188 C 0.19256 0.65779 0.87665 0.0
C189 C 0.16273 0.6381 0.90027 0.0
C190 C 0.07755 0.63564 0.92814 0.0
C191 C 0.20043 0.6927 0.00881 0.0
C192 C 0.2056 0.7465 0.99947 0.0
C193 C 0.1552 0.66029 0.99827 0.0
C194 C 0.11451 0.6813 0.97841 0.0
C195 C 0.16194 0.76909 0.98229 0.0
C196 C 0.11654 0.7368 0.97204 0.0
C197 C 0.07598 0.64319 0.96058 0.0
C198 C 0.94513 0.44447 0.99269 0.0
C199 C 0.9032 0.46965 0.00905 0.0
C200 C 0.98217 0.47619 0.97756 0.0
C201 C 0.97802 0.53354 0.97872 0.0
C202 C 0.90091 0.52716 0.01129 0.0
C203 C 0.93823 0.55873 0.99652 0.0
C204 C 0.01321 0.5677 0.96064 0.0
C205 C 0.90806 0.46905 0.88467 0.0
C206 C 0.93903 0.44584 0.86099 0.0
C207 C 0.93322 0.50393 0.9082 0.0
C208 C 0.98975 0.51436 0.90862 0.0
C209 C 0.99562 0.45426 0.86234 0.0
C210 C 0.02077 0.48764 0.88609 0.0
C211 C 0.01652 0.55943 0.92821 0.0
H212 H 0.11657 0.76987 0.86094 0.0
H213 H 0.06218 0.73325 0.90137 0.0
H214 H 0.22776 0.63506 0.86926 0.0
H215 H 0.17488 0.60022 0.9103 0.0
H216 H 0.23321 0.67417 0.02219 0.0
H217 H 0.15422 0.6176 0.00361 0.0
H218 H 0.1643 0.81067 0.97512 0.0
H219 H 0.08469 0.75423 0.95751 0.0
H220 H 0.94796 0.4003 0.9905 0.0
H221 H 0.01322 0.4559 0.96438 0.0
H222 H 0.86936 0.54788 0.02387 0.0
H223 H 0.93455 0.60288 0.99795 0.0
H224 H 0.86414 0.46324 0.88379 0.0
H225 H 0.90811 0.52504 0.92478 0.0
H226 H 0.02022 0.43643 0.84439 0.0
H227 H 0.06441 0.49499 0.88588 0.0
N228 N 0.04835 0.59392 0.91347 0.0
N229 N 0.04359 0.60914 0.97573 0.0
C230 C 0.42155 0.62652 0.12129 0.0
C231 C 0.45616 0.64483 0.09904 0.0
C232 C 0.4421 0.59341 0.14462 0.0
C233 C 0.49735 0.57821 0.14576 0.0
C234 C 0.51094 0.62854 0.10012 0.0
C235 C 0.53112 0.59558 0.12304 0.0
C236 C 0.52212 0.54421 0.16993 0.0
C237 C 0.48092 0.70461 0.21591 0.0
C238 C 0.43777 0.70102 0.23588 0.0
C239 C 0.50779 0.65792 0.20535 0.0
C240 C 0.49188 0.60622 0.21408 0.0
C241 C 0.4214 0.64907 0.24452 0.0
C242 C 0.44859 0.60192 0.23381 0.0
C243 C 0.5208 0.55739 0.20208 0.0
C244 C 0.71634 0.45968 0.25962 0.0
C245 C 0.70875 0.4039 0.26445 0.0
C246 C 0.67472 0.48924 0.24495 0.0
C247 C 0.62584 0.46288 0.23389 0.0
C248 C 0.65761 0.37923 0.25604 0.0
C249 C 0.61684 0.40825 0.24043 0.0
C250 C 0.58828 0.48951 0.21173 0.0
C251 C 0.64364 0.38382 0.11794 0.0
C252 C 0.69788 0.4027 0.11814 0.0
C253 C 0.60971 0.40219 0.14111 0.0
C254 C 0.62918 0.44027 0.16469 0.0
C255 C 0.71929 0.43574 0.14357 0.0
C256 C 0.68491 0.45505 0.16652 0.0
C257 C 0.58906 0.47638 0.17962 0.0
H258 H 0.37913 0.63851 0.12099 0.0
H259 H 0.41506 0.57983 0.16166 0.0
H260 H 0.53871 0.64159 0.08329 0.0
H261 H 0.57384 0.5845 0.12334 0.0
H262 H 0.49481 0.74384 0.20878 0.0
H263 H 0.54142 0.66226 0.1904 0.0
H264 H 0.3888 0.64504 0.26017 0.0
H265 H 0.43583 0.56224 0.24082 0.0
H266 H 0.75543 0.47957 0.26562 0.0
H267 H 0.68242 0.53139 0.23996 0.0
H268 H 0.65073 0.33612 0.25903 0.0
H269 H 0.57944 0.3872 0.23197 0.0
H270 H 0.62639 0.3578 0.09869 0.0
H271 H 0.56681 0.39079 0.13891 0.0
H272 H 0.76093 0.45105 0.14409 0.0
H273 H 0.70065 0.48599 0.18362 0.0
N274 N 0.55589 0.50412 0.16022 0.0
N275 N 0.55401 0.52953 0.22195 0.0
C276 C 0.5135 0.8922 0.36775 0.0
C277 C 0.45654 0.89347 0.36384 0.0
C278 C 0.54052 0.9248 0.39119 0.0
C279 C 0.51098 0.95966 0.41079 0.0
C280 C 0.4264 0.92377 0.38542 0.0
C281 C 0.45366 0.95716 0.40885 0.0
C282 C 0.54063 0.00624 0.42707 0.0
C283 C 0.43455 0.97501 0.51183 0.0
C284 C 0.43561 0.91763 0.50687 0.0
C285 C 0.47261 0.00806 0.49841 0.0
C286 C 0.51234 0.98422 0.48001 0.0
C287 C 0.47908 0.89395 0.49125 0.0
C288 C 0.51739 0.92697 0.47819 0.0
C289 C 0.54287 0.01811 0.45934 0.0
C290 C 0.68259 0.20309 0.50311 0.0
C291 C 0.73651 0.19374 0.49464 0.0
C292 C 0.63947 0.16987 0.48976 0.0
C293 C 0.64988 0.12736 0.46772 0.0
C294 C 0.74623 0.15074 0.47272 0.0
C295 C 0.70373 0.11768 0.45982 0.0
C296 C 0.60588 0.09144 0.45309 0.0
C297 C 0.68439 0.09952 0.35118 0.0
C298 C 0.68976 0.15663 0.35091 0.0
C299 C 0.65683 0.07567 0.3743 0.0
C300 C 0.63384 0.10809 0.39792 0.0
C301 C 0.66719 0.18948 0.37466 0.0
C302 C 0.63921 0.16536 0.39798 0.0
C303 C 0.60155 0.08032 0.42061 0.0
H304 H 0.5373 0.86929 0.35116 0.0
H305 H 0.58479 0.92641 0.3923 0.0
H306 H 0.38232 0.92572 0.38237 0.0
H307 H 0.43027 0.9844 0.42351 0.0
H308 H 0.40161 0.99462 0.52376 0.0
H309 H 0.46827 0.05212 0.50036 0.0
H310 H 0.48139 0.84995 0.48727 0.0
H311 H 0.54872 0.90765 0.46478 0.0
H312 H 0.67386 0.23545 0.52019 0.0
H313 H 0.59817 0.17748 0.49646 0.0
H314 H 0.78711 0.1416 0.46578 0.0
H315 H 0.71316 0.08405 0.44367 0.0
H316 H 0.70146 0.07285 0.33344 0.0
H317 H 0.65342 0.03144 0.37363 0.0
H318 H 0.67077 0.23365 0.37509 0.0
H319 H 0.62102 0.19137 0.41561 0.0
N320 N 0.5694 0.03804 0.4092 0.0
N321 N 0.57559 0.06051 0.47136 0.0
C322 C 0.21865 0.04426 0.61478 0.0
C323 C 0.22272 0.98723 0.61253 0.0
C324 C 0.19363 0.07015 0.6397 0.0
C325 C 0.17137 0.0393 0.66243 0.0
C326 C 0.20517 0.95656 0.63662 0.0
C327 C 0.17912 0.98242 0.66138 0.0
C328 C 0.12989 0.06526 0.68178 0.0
C329 C 0.18299 0.95388 0.76535 0.0
C330 C 0.23813 0.95293 0.75802 0.0
C331 C 0.14763 0.99219 0.75273 0.0
C332 C 0.16691 0.03018 0.73272 0.0
C333 C 0.25852 0.99495 0.74092 0.0
C334 C 0.22326 0.03371 0.72867 0.0
C335 C 0.12725 0.06175 0.71411 0.0
C336 C 0.91201 0.18006 0.7346 0.0
C337 C 0.93268 0.21975 0.75693 0.0
C338 C 0.94732 0.1415 0.7215 0.0
C339 C 0.00347 0.14318 0.73043 0.0
C340 C 0.98737 0.21743 0.76802 0.0
C341 C 0.02238 0.17922 0.75505 0.0
C342 C 0.04432 0.11288 0.71256 0.0
C343 C 0.96148 0.22246 0.64054 0.0
C344 C 0.94618 0.19326 0.61245 0.0
C345 C 0.99235 0.19697 0.66374 0.0
C346 C 0.00636 0.14154 0.65943 0.0
C347 C 0.95892 0.13769 0.60865 0.0
C348 C 0.98827 0.11205 0.63197 0.0
C349 C 0.04691 0.11538 0.68017 0.0
H350 H 0.23112 0.06839 0.59612 0.0
H351 H 0.18759 0.11397 0.63986 0.0
H352 H 0.20687 0.91227 0.6348 0.0
H353 H 0.16104 0.95753 0.67809 0.0
H354 H 0.16606 0.92222 0.77859 0.0
H355 H 0.10447 0.98935 0.7567 0.0
H356 H 0.30101 0.99579 0.73529 0.0
H357 H 0.23954 0.06423 0.71443 0.0
H358 H 0.86997 0.18151 0.72563 0.0
H359 H 0.93158 0.1129 0.70308 0.0
H360 H 0.004 0.24785 0.78527 0.0
H361 H 0.06527 0.18087 0.7626 0.0
H362 H 0.95244 0.26559 0.64378 0.0
H363 H 0.00725 0.22112 0.68426 0.0
H364 H 0.94728 0.11429 0.58725 0.0
H365 H -0.00107 0.06943 0.62797 0.0
N366 N 0.08955 0.09158 0.66637 0.0
N367 N 0.08465 0.08607 0.72829 0.0
O368 O 0.38846 0.77401 0.96319 0.0
Cd369 Cd 0.34689 0.8083 0.9995 0.0
Cd370 Cd 0.41323 0.74501 0.03756 0.0
O371 O 0.43448 0.71931 0.99375 0.0
O372 O 0.26864 0.81635 0.98659 0.0
O373 O 0.29944 0.75539 0.01921 0.0
C374 C 0.25913 0.77514 1.00299 0.0
C375 C 0.43757 0.68259 0.07527 0.0
C376 C 0.42266 0.73602 0.96699 0.0
C377 C 0.41884 0.87067 0.04563 0.0
O378 O 0.43412 0.82349 0.05293 0.0
O379 O 0.38153 0.87576 0.02448 0.0
O380 O 0.47302 0.70785 0.06051 0.0
O381 O 0.38676 0.69201 0.06862 0.0
O382 O 0.39433 0.8372 0.33186 0.0
Cd383 Cd 0.34962 0.8219 0.29087 0.0
Cd384 Cd 0.43147 0.87529 0.26332 0.0
O385 O 0.44681 0.89617 0.30985 0.0
O386 O 0.27132 0.83783 0.29758 0.0
O387 O 0.32692 0.89296 0.27453 0.0
C388 C 0.28081 0.88507 0.28685 0.0
C389 C 0.46319 0.93546 0.22762 0.0
C390 C 0.43111 0.8742 0.33383 0.0
C391 C 0.41515 0.75229 0.24964 0.0
O392 O 0.44343 0.79573 0.2487 0.0
O393 O 0.37071 0.75302 0.26359 0.0
O394 O 0.49576 0.90932 0.24558 0.0
O395 O 0.41146 0.92939 0.23057 0.0
O396 O 0.25894 0.87618 0.46702 0.0
Cd397 Cd 0.29952 0.84632 0.50566 0.0
Cd398 Cd 0.2371 0.91025 0.53531 0.0
O399 O 0.24837 0.95165 0.49584 0.0
O400 O 0.37787 0.83788 0.49656 0.0
O401 O 0.34686 0.90536 0.52704 0.0
C402 C 0.38643 0.88439 0.51193 0.0
C403 C 0.23137 0.95978 0.58231 0.0
C404 C 0.24994 0.92727 0.46921 0.0
C405 C 0.21279 0.79198 0.53548 0.0
O406 O 0.19141 0.83876 0.53327 0.0
O407 O 0.26277 0.78574 0.52969 0.0
O408 O 0.19347 0.96144 0.56064 0.0
O409 O 0.27434 0.93133 0.57716 0.0
O410 O 0.26851 0.77133 0.71974 0.0
Cd411 Cd 0.30503 0.81609 0.75726 0.0
Cd412 Cd 0.25257 0.7411 0.79097 0.0
O413 O 0.21579 0.72243 0.74787 0.0
O414 O 0.31089 0.89251 0.74512 0.0
O415 O 0.25344 0.86502 0.77921 0.0
C416 C 0.27042 0.90303 0.76236 0.0
C417 C 0.20389 0.72042 0.83426 0.0
C418 C 0.23028 0.73658 0.7217 0.0
C419 C 0.3773 0.74327 0.79041 0.0
O420 O 0.33282 0.72012 0.79609 0.0
O421 O 0.37751 0.78802 0.777 0.0
O422 O 0.22308 0.68298 0.81604 0.0
O423 O 0.21031 0.77064 0.82754 0.0
O424 O 0.88363 0.25542 0.58983 0.0
Cd425 Cd 0.84705 0.29735 0.55443 0.0
Cd426 Cd 0.90979 0.23153 0.51612 0.0
O427 O 0.93741 0.20791 0.55908 0.0
O428 O 0.83826 0.37526 0.56844 0.0
O429 O 0.8979 0.34661 0.53437 0.0
C430 C 0.87829 0.38612 0.55143 0.0
C431 C 0.96765 0.21488 0.47519 0.0
C432 C 0.92118 0.22065 0.58594 0.0
C433 C 0.78397 0.2249 0.50951 0.0
O434 O 0.83119 0.21047 0.50194 0.0
O435 O 0.77859 0.26242 0.53061 0.0
O436 O 0.94406 0.17599 0.48819 0.0
O437 O 0.96084 0.26428 0.48618 0.0
O438 O 0.87789 0.3799 0.83544 0.0
Cd439 Cd 0.83193 0.34305 0.7986 0.0
Cd440 Cd 0.90684 0.39553 0.76357 0.0
O441 O 0.92654 0.43197 0.80679 0.0
O442 O 0.75644 0.33739 0.81227 0.0
O443 O 0.78195 0.39455 0.77755 0.0
C444 C 0.74508 0.37792 0.79527 0.0
C445 C 0.92845 0.4443 0.72042 0.0
C446 C 0.9128 0.41785 0.83311 0.0
C447 C 0.90302 0.27023 0.76401 0.0
O448 O 0.92592 0.31462 0.75786 0.0
O449 O 0.85938 0.27028 0.7785 0.0
O450 O 0.96541 0.42403 0.73838 0.0
O451 O 0.87825 0.43887 0.72732 0.0
O452 O 0.77894 0.38588 0.09055 0.0
Cd453 Cd 0.8051 0.34825 0.04993 0.0
Cd454 Cd 0.74098 0.41497 0.02371 0.0
O455 O 0.70225 0.39956 0.0637 0.0
O456 O 0.81012 0.26823 0.05581 0.0
O457 O 0.74306 0.30581 0.02818 0.0
C458 C 0.76252 0.26359 0.04136 0.0
C459 C 0.69004 0.42383 0.97754 0.0
C460 C 0.72798 0.39506 0.08968 0.0
C461 C 0.85888 0.43686 0.02126 0.0
O462 O 0.81316 0.45927 0.02552 0.0
O463 O 0.86425 0.38608 0.0254 0.0
O464 O 0.68872 0.46026 1.00015 0.0
O465 O 0.71876 0.38057 0.9813 0.0
O466 O 0.80462 0.26024 0.22272 0.0
Cd467 Cd 0.81941 0.30061 0.26542 0.0
Cd468 Cd 0.77323 0.21401 0.28766 0.0
O469 O 0.7428 0.20812 0.24243 0.0
O470 O 0.80299 0.37946 0.26111 0.0
O471 O 0.74848 0.32139 0.28277 0.0
C472 C 0.75593 0.36868 0.27168 0.0
C473 C 0.71989 0.18039 0.32604 0.0
C474 C 0.76517 0.22614 0.21919 0.0
C475 C 0.89517 0.2292 0.2973 0.0
O476 O 0.85428 0.19689 0.29459 0.0
O477 O 0.88962 0.27919 0.29121 0.0
O478 O 0.74022 0.14877 0.30498 0.0
O479 O 0.72808 0.23235 0.32491 0.0
loop_
_geom_bond_atom_site_label_1
_geom_bond_atom_site_label_2
_geom_bond_distance
_geom_bond_site_symmetry_2
_ccdc_geom_bond_type
C0 C1 1.384 . S
C0 C2 1.384 . S
C0 H28 0.931 . S
C1 C0 1.384 . S
C1 C4 1.382 . S
C2 C0 1.384 . S
C2 C3 1.381 . S
C2 H29 0.930 . S
C3 C2 1.381 . S
C3 C5 1.381 1_565 S
C3 C6 1.487 1_565 S
C4 C1 1.382 . S
C4 C5 1.387 1_565 S
C4 H30 0.930 1_565 S
C5 C3 1.381 1_545 S
C5 C4 1.387 1_545 S
C5 H31 0.931 . S
C6 C3 1.487 1_545 S
C6 C13 1.399 1_545 S
C6 N44 1.343 . S
C7 C8 1.384 . S
C7 C9 1.384 . S
C7 H32 0.931 . S
C8 C7 1.384 . S
C8 C11 1.382 . S
C9 C7 1.384 . S
C9 C10 1.381 . S
C9 H33 0.930 . S
C10 C9 1.381 . S
C10 C12 1.381 . S
C10 C13 1.487 . S
C11 C8 1.382 . S
C11 C12 1.387 . S
C11 H34 0.930 . S
C12 C10 1.381 . S
C12 C11 1.387 . S
C12 H35 0.931 . S
C13 C6 1.399 1_565 S
C13 C10 1.487 . S
C13 N45 1.343 1_565 S
C14 C15 1.384 . S
C14 C16 1.384 1_655 S
C14 H36 0.931 . S
C15 C14 1.384 . S
C15 C18 1.382 . S
C16 C14 1.384 1_455 S
C16 C17 1.381 . S
C16 H37 0.930 . S
C17 C16 1.381 . S
C17 C19 1.381 1_455 S
C17 C20 1.487 . S
C18 C15 1.382 . S
C18 C19 1.387 . S
C18 H38 0.930 . S
C19 C17 1.381 1_655 S
C19 C18 1.387 . S
C19 H39 0.931 1_655 S
C20 C17 1.487 . S
C20 C27 1.399 . S
C20 N45 1.343 . S
C21 C22 1.384 . S
C21 C23 1.384 . S
C21 H40 0.931 . S
C22 C21 1.384 . S
C22 C25 1.382 1_655 S
C23 C21 1.384 . S
C23 C24 1.381 1_655 S
C23 H41 0.930 . S
C24 C23 1.381 1_455 S
C24 C26 1.381 . S
C24 C27 1.487 . S
C25 C22 1.382 1_455 S
C25 C26 1.387 . S
C25 H42 0.930 . S
C26 C24 1.381 . S
C26 C25 1.387 . S
C26 H43 0.931 . S
C27 C20 1.399 . S
C27 C24 1.487 . S
C27 N44 1.343 . S
H28 C0 0.931 . S
H29 C2 0.930 . S
H30 C4 0.930 1_545 S
H31 C5 0.931 . S
H32 C7 0.931 . S
H33 C9 0.930 . S
H34 C11 0.930 . S
H35 C12 0.931 . S
H36 C14 0.931 . S
H37 C16 0.930 . S
H38 C18 0.930 . S
H39 C19 0.931 1_455 S
H40 C21 0.931 . S
H41 C23 0.930 . S
H42 C25 0.930 . S
H43 C26 0.931 . S
N44 C6 1.343 . S
N44 C27 1.343 . S
N45 C13 1.343 1_545 S
N45 C20 1.343 . S
C46 C47 1.384 . S
C46 C48 1.384 . S
C46 H74 0.931 . S
C47 C46 1.384 . S
C47 C50 1.382 . S
C48 C46 1.384 . S
C48 C49 1.381 . S
C48 H75 0.930 . S
C49 C48 1.381 . S
C49 C51 1.381 . S
C49 C52 1.487 1_655 S
C50 C47 1.382 . S
C50 C51 1.387 . S
C50 H76 0.930 . S
C51 C49 1.381 . S
C51 C50 1.387 . S
C51 H77 0.931 1_655 S
C52 C49 1.487 1_455 S
C52 C59 1.399 . S
C52 N90 1.343 . S
C53 C54 1.384 . S
C53 C55 1.384 . S
C53 H78 0.931 . S
C54 C53 1.384 . S
C54 C57 1.382 . S
C55 C53 1.384 . S
C55 C56 1.381 . S
C55 H79 0.930 1_655 S
C56 C55 1.381 . S
C56 C58 1.381 . S
C56 C59 1.487 1_655 S
C57 C54 1.382 . S
C57 C58 1.387 . S
C57 H80 0.930 . S
C58 C56 1.381 . S
C58 C57 1.387 . S
C58 H81 0.931 . S
C59 C52 1.399 . S
C59 C56 1.487 1_455 S
C59 N91 1.343 . S
C60 C61 1.384 . S
C60 C62 1.384 . S
C60 H82 0.931 . S
C61 C60 1.384 . S
C61 C64 1.382 . S
C62 C60 1.384 . S
C62 C63 1.381 . S
C62 H83 0.930 . S
C63 C62 1.381 . S
C63 C65 1.381 . S
C63 C66 1.487 . S
C64 C61 1.382 . S
C64 C65 1.387 . S
C64 H84 0.930 . S
C65 C63 1.381 . S
C65 C64 1.387 . S
C65 H85 0.931 . S
C66 C63 1.487 . S
C66 C73 1.399 . S
C66 N91 1.343 . S
C67 C68 1.384 . S
C67 C69 1.384 . S
C67 H86 0.931 . S
C68 C67 1.384 . S
C68 C71 1.382 . S
C69 C67 1.384 . S
C69 C70 1.381 . S
C69 H87 0.930 . S
C70 C69 1.381 . S
C70 C72 1.381 . S
C70 C73 1.487 . S
C71 C68 1.382 . S
C71 C72 1.387 . S
C71 H88 0.930 . S
C72 C70 1.381 . S
C72 C71 1.387 . S
C72 H89 0.931 . S
C73 C66 1.399 . S
C73 C70 1.487 . S
C73 N90 1.343 . S
H74 C46 0.931 . S
H75 C48 0.930 . S
H76 C50 0.930 . S
H77 C51 0.931 1_455 S
H78 C53 0.931 . S
H79 C55 0.930 1_455 S
H80 C57 0.930 . S
H81 C58 0.931 . S
H82 C60 0.931 . S
H83 C62 0.930 . S
H84 C64 0.930 . S
H85 C65 0.931 . S
H86 C67 0.931 . S
H87 C69 0.930 . S
H88 C71 0.930 . S
H89 C72 0.931 . S
N90 C52 1.343 . S
N90 C73 1.343 . S
N91 C59 1.343 . S
N91 C66 1.343 . S
C92 C93 1.384 . S
C92 C94 1.384 . S
C92 H120 0.931 . S
C93 C92 1.384 . S
C93 C96 1.382 . S
C94 C92 1.384 . S
C94 C95 1.381 . S
C94 H121 0.930 . S
C95 C94 1.381 . S
C95 C97 1.381 . S
C95 C98 1.487 . S
C96 C93 1.382 . S
C96 C97 1.387 . S
C96 H122 0.930 . S
C97 C95 1.381 . S
C97 C96 1.387 . S
C97 H123 0.931 . S
C98 C95 1.487 . S
C98 C105 1.399 . S
C98 N136 1.343 . S
C99 C100 1.384 . S
C99 C101 1.384 . S
C99 H124 0.931 . S
C100 C99 1.384 . S
C100 C103 1.382 . S
C101 C99 1.384 . S
C101 C102 1.381 . S
C101 H125 0.930 . S
C102 C101 1.381 . S
C102 C104 1.381 . S
C102 C105 1.487 . S
C103 C100 1.382 . S
C103 C104 1.387 . S
C103 H126 0.930 . S
C104 C102 1.381 . S
C104 C103 1.387 . S
C104 H127 0.931 . S
C105 C98 1.399 . S
C105 C102 1.487 . S
C105 N137 1.343 . S
C106 C107 1.384 . S
C106 C108 1.384 . S
C106 H128 0.931 . S
C107 C106 1.384 . S
C107 C110 1.382 . S
C108 C106 1.384 . S
C108 C109 1.381 . S
C108 H129 0.930 . S
C109 C108 1.381 . S
C109 C111 1.381 . S
C109 C112 1.487 . S
C110 C107 1.382 . S
C110 C111 1.387 . S
C110 H130 0.930 . S
C111 C109 1.381 . S
C111 C110 1.387 . S
C111 H131 0.931 . S
C112 C109 1.487 . S
C112 C119 1.399 . S
C112 N137 1.343 . S
C113 C114 1.384 . S
C113 C115 1.384 . S
C113 H132 0.931 . S
C114 C113 1.384 . S
C114 C117 1.382 . S
C115 C113 1.384 . S
C115 C116 1.381 . S
C115 H133 0.930 . S
C116 C115 1.381 . S
C116 C118 1.381 . S
C116 C119 1.487 . S
C117 C114 1.382 . S
C117 C118 1.387 . S
C117 H134 0.930 . S
C118 C116 1.381 . S
C118 C117 1.387 . S
C118 H135 0.931 . S
C119 C112 1.399 . S
C119 C116 1.487 . S
C119 N136 1.343 . S
H120 C92 0.931 . S
H121 C94 0.930 . S
H122 C96 0.930 . S
H123 C97 0.931 . S
H124 C99 0.931 . S
H125 C101 0.930 . S
H126 C103 0.930 . S
H127 C104 0.931 . S
H128 C106 0.931 . S
H129 C108 0.930 . S
H130 C110 0.930 . S
H131 C111 0.931 . S
H132 C113 0.931 . S
H133 C115 0.930 . S
H134 C117 0.930 . S
H135 C118 0.931 . S
N136 C98 1.343 . S
N136 C119 1.343 . S
N137 C105 1.343 . S
N137 C112 1.343 . S
C138 C139 1.384 . S
C138 C140 1.384 . S
C138 H166 0.931 . S
C139 C138 1.384 . S
C139 C142 1.382 . S
C140 C138 1.384 . S
C140 C141 1.381 . S
C140 H167 0.930 . S
C141 C140 1.381 . S
C141 C143 1.381 . S
C141 C144 1.487 . S
C142 C139 1.382 . S
C142 C143 1.387 . S
C142 H168 0.930 . S
C143 C141 1.381 . S
C143 C142 1.387 . S
C143 H169 0.931 . S
C144 C141 1.487 . S
C144 C151 1.399 . S
C144 N182 1.343 1_565 S
C145 C146 1.384 . S
C145 C147 1.384 . S
C145 H170 0.931 . S
C146 C145 1.384 . S
C146 C149 1.382 . S
C147 C145 1.384 . S
C147 C148 1.381 . S
C147 H171 0.930 . S
C148 C147 1.381 . S
C148 C150 1.381 . S
C148 C151 1.487 . S
C149 C146 1.382 . S
C149 C150 1.387 . S
C149 H172 0.930 . S
C150 C148 1.381 . S
C150 C149 1.387 . S
C150 H173 0.931 . S
C151 C144 1.399 . S
C151 C148 1.487 . S
C151 N183 1.343 . S
C152 C153 1.384 . S
C152 C154 1.384 . S
C152 H174 0.931 . S
C153 C152 1.384 . S
C153 C156 1.382 . S
C154 C152 1.384 . S
C154 C155 1.381 . S
C154 H175 0.930 . S
C155 C154 1.381 . S
C155 C157 1.381 . S
C155 C158 1.487 . S
C156 C153 1.382 . S
C156 C157 1.387 . S
C156 H176 0.930 . S
C157 C155 1.381 . S
C157 C156 1.387 . S
C157 H177 0.931 . S
C158 C155 1.487 . S
C158 C165 1.399 . S
C158 N183 1.343 1_545 S
C159 C160 1.384 . S
C159 C161 1.384 . S
C159 H178 0.931 . S
C160 C159 1.384 . S
C160 C163 1.382 . S
C161 C159 1.384 . S
C161 C162 1.381 . S
C161 H179 0.930 . S
C162 C161 1.381 . S
C162 C164 1.381 . S
C162 C165 1.487 . S
C163 C160 1.382 . S
C163 C164 1.387 . S
C163 H180 0.930 . S
C164 C162 1.381 . S
C164 C163 1.387 . S
C164 H181 0.931 . S
C165 C158 1.399 . S
C165 C162 1.487 . S
C165 N182 1.343 . S
H166 C138 0.931 . S
H167 C140 0.930 . S
H168 C142 0.930 . S
H169 C143 0.931 . S
H170 C145 0.931 . S
H171 C147 0.930 . S
H172 C149 0.930 . S
H173 C150 0.931 . S
H174 C152 0.931 . S
H175 C154 0.930 . S
H176 C156 0.930 . S
H177 C157 0.931 . S
H178 C159 0.931 . S
H179 C161 0.930 . S
H180 C163 0.930 . S
H181 C164 0.931 . S
N182 C144 1.343 1_545 S
N182 C165 1.343 . S
N183 C151 1.343 . S
N183 C158 1.343 1_565 S
C184 C185 1.384 . S
C184 C186 1.384 . S
C184 H212 0.931 . S
C185 C184 1.384 . S
C185 C188 1.382 . S
C186 C184 1.384 . S
C186 C187 1.381 . S
C186 H213 0.930 . S
C187 C186 1.381 . S
C187 C189 1.381 . S
C187 C190 1.487 . S
C188 C185 1.382 . S
C188 C189 1.387 . S
C188 H214 0.930 . S
C189 C187 1.381 . S
C189 C188 1.387 . S
C189 H215 0.931 . S
C190 C187 1.487 . S
C190 C197 1.399 . S
C190 N228 1.334 1_455 S
C191 C192 1.384 . S
C191 C193 1.384 1_554 S
C191 H216 0.931 . S
C192 C191 1.384 . S
C192 C195 1.382 . S
C193 C191 1.384 1_556 S
C193 C194 1.381 . S
C193 H217 0.930 . S
C194 C193 1.381 . S
C194 C196 1.381 1_556 S
C194 C197 1.487 . S
C195 C192 1.382 . S
C195 C196 1.387 . S
C195 H218 0.930 . S
C196 C194 1.381 1_554 S
C196 C195 1.387 . S
C196 H219 0.931 . S
C197 C190 1.399 . S
C197 C194 1.487 . S
C197 N229 1.343 . S
C198 C199 1.384 1_556 S
C198 C200 1.384 . S
C198 H220 0.931 . S
C199 C198 1.384 1_554 S
C199 C202 1.382 . S
C200 C198 1.384 . S
C200 C201 1.381 . S
C200 H221 0.930 . S
C201 C200 1.381 . S
C201 C203 1.361 1_556 S
C201 C204 1.487 . S
C202 C199 1.382 . S
C202 C203 1.401 . S
C202 H222 0.930 . S
C203 C201 1.361 1_554 S
C203 C202 1.401 . S
C203 H223 0.938 . S
C204 C201 1.487 . S
C204 C211 1.399 . S
C204 N229 1.343 1_655 S
C205 C206 1.384 . S
C205 C207 1.384 . S
C205 H224 0.931 . S
C206 C205 1.384 . S
C206 C209 1.382 . S
C207 C205 1.384 . S
C207 C208 1.381 . S
C207 H225 0.930 . S
C208 C207 1.381 . S
C208 C210 1.381 . S
C208 C211 1.487 . S
C209 C206 1.382 . S
C209 C210 1.387 . S
C209 H226 0.930 . S
C210 C208 1.381 . S
C210 C209 1.387 . S
C210 H227 0.931 . S
C211 C204 1.399 . S
C211 C208 1.487 . S
C211 N228 1.353 . S
H212 C184 0.931 . S
H213 C186 0.930 . S
H214 C188 0.930 . S
H215 C189 0.931 . S
H216 C191 0.931 . S
H217 C193 0.930 . S
H218 C195 0.930 . S
H219 C196 0.931 . S
H220 C198 0.931 . S
H221 C200 0.930 . S
H222 C202 0.930 . S
H223 C203 0.938 . S
H224 C205 0.931 . S
H225 C207 0.930 . S
H226 C209 0.930 . S
H227 C210 0.931 . S
N228 C190 1.334 1_655 S
N228 C211 1.353 . S
N229 C197 1.343 . S
N229 C204 1.343 1_455 S
C230 C231 1.384 . S
C230 C232 1.384 . S
C230 H258 0.931 . S
C231 C230 1.384 . S
C231 C234 1.382 . S
C232 C230 1.384 . S
C232 C233 1.381 . S
C232 H259 0.930 . S
C233 C232 1.381 . S
C233 C235 1.381 . S
C233 C236 1.487 . S
C234 C231 1.382 . S
C234 C235 1.387 . S
C234 H260 0.930 . S
C235 C233 1.381 . S
C235 C234 1.387 . S
C235 H261 0.931 . S
C236 C233 1.487 . S
C236 C243 1.399 . S
C236 N274 1.343 . S
C237 C238 1.384 . S
C237 C239 1.384 . S
C237 H262 0.931 . S
C238 C237 1.384 . S
C238 C241 1.382 . S
C239 C237 1.384 . S
C239 C240 1.381 . S
C239 H263 0.930 . S
C240 C239 1.381 . S
C240 C242 1.381 . S
C240 C243 1.487 . S
C241 C238 1.382 . S
C241 C242 1.387 . S
C241 H264 0.930 . S
C242 C240 1.381 . S
C242 C241 1.387 . S
C242 H265 0.931 . S
C243 C236 1.399 . S
C243 C240 1.487 . S
C243 N275 1.343 . S
C244 C245 1.384 . S
C244 C246 1.384 . S
C244 H266 0.931 . S
C245 C244 1.384 . S
C245 C248 1.382 . S
C246 C244 1.384 . S
C246 C247 1.381 . S
C246 H267 0.930 . S
C247 C246 1.381 . S
C247 C249 1.381 . S
C247 C250 1.487 . S
C248 C245 1.382 . S
C248 C249 1.387 . S
C248 H268 0.930 . S
C249 C247 1.381 . S
C249 C248 1.387 . S
C249 H269 0.931 . S
C250 C247 1.487 . S
C250 C257 1.399 . S
C250 N275 1.343 . S
C251 C252 1.384 . S
C251 C253 1.384 . S
C251 H270 0.931 . S
C252 C251 1.384 . S
C252 C255 1.382 . S
C253 C251 1.384 . S
C253 C254 1.381 . S
C253 H271 0.930 . S
C254 C253 1.381 . S
C254 C256 1.381 . S
C254 C257 1.487 . S
C255 C252 1.382 . S
C255 C256 1.387 . S
C255 H272 0.930 . S
C256 C254 1.381 . S
C256 C255 1.387 . S
C256 H273 0.931 . S
C257 C250 1.399 . S
C257 C254 1.487 . S
C257 N274 1.343 . S
H258 C230 0.931 . S
H259 C232 0.930 . S
H260 C234 0.930 . S
H261 C235 0.931 . S
H262 C237 0.931 . S
H263 C239 0.930 . S
H264 C241 0.930 . S
H265 C242 0.931 . S
H266 C244 0.931 . S
H267 C246 0.930 . S
H268 C248 0.930 . S
H269 C249 0.931 . S
H270 C251 0.931 . S
H271 C253 0.930 . S
H272 C255 0.930 . S
H273 C256 0.931 . S
N274 C236 1.343 . S
N274 C257 1.343 . S
N275 C243 1.343 . S
N275 C250 1.343 . S
C276 C277 1.384 . S
C276 C278 1.384 . S
C276 H304 0.931 . S
C277 C276 1.384 . S
C277 C280 1.382 . S
C278 C276 1.384 . S
C278 C279 1.381 . S
C278 H305 0.930 . S
C279 C278 1.381 . S
C279 C281 1.381 . S
C279 C282 1.487 . S
C280 C277 1.382 . S
C280 C281 1.387 . S
C280 H306 0.930 . S
C281 C279 1.381 . S
C281 C280 1.387 . S
C281 H307 0.941 . S
C282 C279 1.487 . S
C282 C289 1.399 . S
C282 N320 1.343 1_565 S
C283 C284 1.384 . S
C283 C285 1.384 . S
C283 H308 0.931 . S
C284 C283 1.384 . S
C284 C287 1.382 . S
C285 C283 1.384 . S
C285 C286 1.381 . S
C285 H309 0.930 . S
C286 C285 1.381 . S
C286 C288 1.381 . S
C286 C289 1.487 . S
C287 C284 1.382 . S
C287 C288 1.387 . S
C287 H310 0.930 . S
C288 C286 1.381 . S
C288 C287 1.387 . S
C288 H311 0.931 . S
C289 C282 1.399 . S
C289 C286 1.487 . S
C289 N321 1.343 1_565 S
C290 C291 1.384 . S
C290 C292 1.384 . S
C290 H312 0.931 . S
C291 C290 1.384 . S
C291 C294 1.382 . S
C292 C290 1.384 . S
C292 C293 1.381 . S
C292 H313 0.930 . S
C293 C292 1.381 . S
C293 C295 1.381 . S
C293 C296 1.487 . S
C294 C291 1.382 . S
C294 C295 1.387 . S
C294 H314 0.930 . S
C295 C293 1.381 . S
C295 C294 1.387 . S
C295 H315 0.931 . S
C296 C293 1.487 . S
C296 C303 1.399 . S
C296 N321 1.343 . S
C297 C298 1.384 . S
C297 C299 1.384 . S
C297 H316 0.931 . S
C298 C297 1.384 . S
C298 C301 1.382 . S
C299 C297 1.384 . S
C299 C300 1.381 . S
C299 H317 0.930 . S
C300 C299 1.381 . S
C300 C302 1.381 . S
C300 C303 1.487 . S
C301 C298 1.382 . S
C301 C302 1.387 . S
C301 H318 0.930 . S
C302 C300 1.381 . S
C302 C301 1.387 . S
C302 H319 0.931 . S
C303 C296 1.399 . S
C303 C300 1.487 . S
C303 N320 1.343 . S
H304 C276 0.931 . S
H305 C278 0.930 . S
H306 C280 0.930 . S
H307 C281 0.941 . S
H308 C283 0.931 . S
H309 C285 0.930 . S
H310 C287 0.930 . S
H311 C288 0.931 . S
H312 C290 0.931 . S
H313 C292 0.930 . S
H314 C294 0.930 . S
H315 C295 0.931 . S
H316 C297 0.931 . S
H317 C299 0.930 . S
H318 C301 0.930 . S
H319 C302 0.931 . S
N320 C282 1.343 1_545 S
N320 C303 1.343 . S
N321 C289 1.343 1_545 S
N321 C296 1.343 . S
C322 C323 1.384 . S
C322 C324 1.384 . S
C322 H350 0.931 . S
C323 C322 1.384 . S
C323 C326 1.382 . S
C324 C322 1.384 . S
C324 C325 1.381 . S
C324 H351 0.930 . S
C325 C324 1.381 . S
C325 C327 1.381 . S
C325 C328 1.487 . S
C326 C323 1.382 . S
C326 C327 1.387 . S
C326 H352 0.922 1_545 S
C327 C325 1.381 . S
C327 C326 1.387 . S
C327 H353 0.931 . S
C328 C325 1.487 . S
C328 C335 1.399 . S
C328 N366 1.343 . S
C329 C330 1.384 . S
C329 C331 1.384 . S
C329 H354 0.931 1_545 S
C330 C329 1.384 . S
C330 C333 1.382 . S
C331 C329 1.384 . S
C331 C332 1.381 . S
C331 H355 0.930 . S
C332 C331 1.381 . S
C332 C334 1.381 . S
C332 C335 1.487 . S
C333 C330 1.382 . S
C333 C334 1.387 . S
C333 H356 0.930 . S
C334 C332 1.381 . S
C334 C333 1.387 . S
C334 H357 0.931 . S
C335 C328 1.399 . S
C335 C332 1.487 . S
C335 N367 1.343 . S
C336 C337 1.384 . S
C336 C338 1.384 . S
C336 H358 0.931 . S
C337 C336 1.384 . S
C337 C340 1.382 1_655 S
C338 C336 1.384 . S
C338 C339 1.381 1_655 S
C338 H359 0.930 . S
C339 C338 1.381 1_455 S
C339 C341 1.381 . S
C339 C342 1.487 . S
C340 C337 1.382 1_455 S
C340 C341 1.387 . S
C340 H360 0.930 . S
C341 C339 1.381 . S
C341 C340 1.387 . S
C341 H361 0.931 . S
C342 C339 1.487 . S
C342 C349 1.399 . S
C342 N367 1.343 . S
C343 C344 1.384 1_455 S
C343 C345 1.384 . S
C343 H362 0.931 . S
C344 C343 1.384 1_655 S
C344 C347 1.382 . S
C345 C343 1.384 . S
C345 C346 1.381 . S
C345 H363 0.930 . S
C346 C345 1.381 . S
C346 C348 1.381 . S
C346 C349 1.487 . S
C347 C344 1.382 . S
C347 C348 1.387 1_655 S
C347 H364 0.930 . S
C348 C346 1.381 . S
C348 C347 1.387 1_455 S
C348 H365 0.931 . S
C349 C342 1.399 . S
C349 C346 1.487 . S
C349 N366 1.343 . S
H350 C322 0.931 . S
H351 C324 0.930 . S
H352 C326 0.922 1_565 S
H353 C327 0.931 . S
H354 C329 0.931 1_565 S
H355 C331 0.930 . S
H356 C333 0.930 . S
H357 C334 0.931 . S
H358 C336 0.931 . S
H359 C338 0.930 . S
H360 C340 0.930 . S
H361 C341 0.931 . S
H362 C343 0.931 . S
H363 C345 0.930 . S
H364 C347 0.930 . S
H365 C348 0.931 . S
N366 C328 1.343 . S
N366 C349 1.343 . S
N367 C335 1.343 . S
N367 C342 1.343 . S
O368 Cd369 2.223 1_556 S
O368 C376 1.315 . S
Cd369 O368 2.223 1_554 S
Cd369 O372 2.297 1_554 S
Cd369 O373 2.439 . S
Cd369 O379 2.240 . S
Cd370 O371 2.240 . S
Cd370 O378 2.223 . S
Cd370 O380 2.297 . S
Cd370 O381 2.439 . S
O371 Cd370 2.240 . S
O371 C376 1.279 1_554 S
O372 Cd369 2.297 1_556 S
O372 C374 1.247 1_556 S
O373 Cd369 2.439 . S
O373 C374 1.208 . S
C374 O372 1.247 1_554 S
C374 O373 1.208 . S
C375 O380 1.247 . S
C375 O381 1.208 . S
C376 O368 1.315 . S
C376 O371 1.279 1_556 S
C377 O378 1.315 . S
C377 O379 1.279 . S
O378 Cd370 2.223 . S
O378 C377 1.315 . S
O379 Cd369 2.240 . S
O379 C377 1.279 . S
O380 Cd370 2.297 . S
O380 C375 1.247 . S
O381 Cd370 2.439 . S
O381 C375 1.208 . S
O382 Cd383 2.223 . S
O382 C390 1.315 . S
Cd383 O382 2.223 . S
Cd383 O386 2.297 . S
Cd383 O387 2.439 . S
Cd383 O393 2.240 . S
Cd384 O385 2.240 . S
Cd384 O392 2.223 . S
Cd384 O394 2.297 . S
Cd384 O395 2.439 . S
O385 Cd384 2.240 . S
O385 C390 1.279 . S
O386 Cd383 2.297 . S
O386 C388 1.247 . S
O387 Cd383 2.439 . S
O387 C388 1.208 . S
C388 O386 1.247 . S
C388 O387 1.208 . S
C389 O394 1.247 . S
C389 O395 1.208 . S
C390 O382 1.315 . S
C390 O385 1.279 . S
C391 O392 1.315 . S
C391 O393 1.279 . S
O392 Cd384 2.223 . S
O392 C391 1.315 . S
O393 Cd383 2.240 . S
O393 C391 1.279 . S
O394 Cd384 2.297 . S
O394 C389 1.247 . S
O395 Cd384 2.439 . S
O395 C389 1.208 . S
O396 Cd397 2.223 . S
O396 C404 1.315 . S
Cd397 O396 2.223 . S
Cd397 O400 2.297 . S
Cd397 O401 2.439 . S
Cd397 O407 2.240 . S
Cd398 O399 2.240 . S
Cd398 O406 2.223 . S
Cd398 O408 2.297 . S
Cd398 O409 2.439 . S
O399 Cd398 2.240 . S
O399 C404 1.279 . S
O400 Cd397 2.297 . S
O400 C402 1.247 . S
O401 Cd397 2.439 . S
O401 C402 1.208 . S
C402 O400 1.247 . S
C402 O401 1.208 . S
C403 O408 1.247 . S
C403 O409 1.208 . S
C404 O396 1.315 . S
C404 O399 1.279 . S
C405 O406 1.315 . S
C405 O407 1.279 . S
O406 Cd398 2.223 . S
O406 C405 1.315 . S
O407 Cd397 2.240 . S
O407 C405 1.279 . S
O408 Cd398 2.297 . S
O408 C403 1.247 . S
O409 Cd398 2.439 . S
O409 C403 1.208 . S
O410 Cd411 2.223 . S
O410 C418 1.315 . S
Cd411 O410 2.223 . S
Cd411 O414 2.297 . S
Cd411 O415 2.439 . S
Cd411 O421 2.240 . S
Cd412 O413 2.240 . S
Cd412 O420 2.223 . S
Cd412 O422 2.297 . S
Cd412 O423 2.439 . S
O413 Cd412 2.240 . S
O413 C418 1.279 . S
O414 Cd411 2.297 . S
O414 C416 1.247 . S
O415 Cd411 2.439 . S
O415 C416 1.208 . S
C416 O414 1.247 . S
C416 O415 1.208 . S
C417 O422 1.247 . S
C417 O423 1.208 . S
C418 O410 1.315 . S
C418 O413 1.279 . S
C419 O420 1.315 . S
C419 O421 1.279 . S
O420 Cd412 2.223 . S
O420 C419 1.315 . S
O421 Cd411 2.240 . S
O421 C419 1.279 . S
O422 Cd412 2.297 . S
O422 C417 1.247 . S
O423 Cd412 2.439 . S
O423 C417 1.208 . S
O424 Cd425 2.223 . S
O424 C432 1.315 . S
Cd425 O424 2.223 . S
Cd425 O428 2.297 . S
Cd425 O429 2.439 . S
Cd425 O435 2.240 . S
Cd426 O427 2.240 . S
Cd426 O434 2.223 . S
Cd426 O436 2.297 . S
Cd426 O437 2.439 . S
O427 Cd426 2.240 . S
O427 C432 1.279 . S
O428 Cd425 2.297 . S
O428 C430 1.247 . S
O429 Cd425 2.439 . S
O429 C430 1.208 . S
C430 O428 1.247 . S
C430 O429 1.208 . S
C431 O436 1.247 . S
C431 O437 1.208 . S
C432 O424 1.315 . S
C432 O427 1.279 . S
C433 O434 1.315 . S
C433 O435 1.279 . S
O434 Cd426 2.223 . S
O434 C433 1.315 . S
O435 Cd425 2.240 . S
O435 C433 1.279 . S
O436 Cd426 2.297 . S
O436 C431 1.247 . S
O437 Cd426 2.439 . S
O437 C431 1.208 . S
O438 Cd439 2.223 . S
O438 C446 1.315 . S
Cd439 O438 2.223 . S
Cd439 O442 2.297 . S
Cd439 O443 2.439 . S
Cd439 O449 2.240 . S
Cd440 O441 2.240 . S
Cd440 O448 2.223 . S
Cd440 O450 2.297 . S
Cd440 O451 2.439 . S
O441 Cd440 2.240 . S
O441 C446 1.279 . S
O442 Cd439 2.297 . S
O442 C444 1.247 . S
O443 Cd439 2.439 . S
O443 C444 1.208 . S
C444 O442 1.247 . S
C444 O443 1.208 . S
C445 O450 1.247 . S
C445 O451 1.208 . S
C446 O438 1.315 . S
C446 O441 1.279 . S
C447 O448 1.315 . S
C447 O449 1.279 . S
O448 Cd440 2.223 . S
O448 C447 1.315 . S
O449 Cd439 2.240 . S
O449 C447 1.279 . S
O450 Cd440 2.297 . S
O450 C445 1.247 . S
O451 Cd440 2.439 . S
O451 C445 1.208 . S
O452 Cd453 2.223 . S
O452 C460 1.315 . S
Cd453 O452 2.223 . S
Cd453 O456 2.297 . S
Cd453 O457 2.439 . S
Cd453 O463 2.240 1_554 S
Cd454 O455 2.240 1_556 S
Cd454 O462 2.225 1_556 S
Cd454 O464 2.297 . S
Cd454 O465 2.439 . S
O455 Cd454 2.240 1_554 S
O455 C460 1.279 . S
O456 Cd453 2.297 . S
O456 C458 1.247 . S
O457 Cd453 2.439 . S
O457 C458 1.208 . S
C458 O456 1.247 . S
C458 O457 1.208 . S
C459 O464 1.247 . S
C459 O465 1.208 . S
C460 O452 1.315 . S
C460 O455 1.279 . S
C461 O462 1.310 1_556 S
C461 O463 1.279 . S
O462 Cd454 2.225 1_554 S
O462 C461 1.310 1_554 S
O463 Cd453 2.240 1_556 S
O463 C461 1.279 . S
O464 Cd454 2.297 . S
O464 C459 1.247 . S
O465 Cd454 2.439 . S
O465 C459 1.208 . S
O466 Cd467 2.223 . S
O466 C474 1.315 . S
Cd467 O466 2.223 . S
Cd467 O470 2.297 . S
Cd467 O471 2.439 . S
Cd467 O477 2.240 . S
Cd468 O469 2.240 . S
Cd468 O476 2.223 . S
Cd468 O478 2.297 . S
Cd468 O479 2.439 . S
O469 Cd468 2.240 . S
O469 C474 1.279 . S
O470 Cd467 2.297 . S
O470 C472 1.247 . S
O471 Cd467 2.439 . S
O471 C472 1.208 . S
C472 O470 1.247 . S
C472 O471 1.208 . S
C473 O478 1.247 . S
C473 O479 1.208 . S
C474 O466 1.315 . S
C474 O469 1.279 . S
C475 O476 1.315 . S
C475 O477 1.279 . S
O476 Cd468 2.223 . S
O476 C475 1.315 . S
O477 Cd467 2.240 . S
O477 C475 1.279 . S
O478 Cd468 2.297 . S
O478 C473 1.247 . S
O479 Cd468 2.439 . S
O479 C473 1.208 . S
C388 C8 1.814 . S
C405 C61 1.576 . S
C419 C107 1.839 . S
C139 C377 1.799 . S
C192 C374 1.844 . S
C238 C391 1.466 . S
C402 C284 1.925 . S
C416 C330 1.791 1_565 S
C100 C444 1.791 . S
C458 C160 1.884 . S
C15 C475 1.463 . S
C430 C54 1.844 . S
C291 C433 1.824 . S
C337 C447 1.839 . S
C461 C199 1.577 1_556 S
C245 C472 1.802 . S
C404 C1 2.286 . S
C418 C68 2.794 . S
C114 C376 2.780 . S
C146 C389 2.287 . S
C185 C417 1.580 . S
C375 C231 1.975 . S
C390 C277 2.178 . S
C403 C323 1.694 1_565 S
C459 C93 1.694 . S
C474 C153 2.175 . S
C22 C431 1.926 . S
C445 C47 1.580 . S
C473 C298 2.233 . S
C344 C432 2.780 . S
C446 C206 2.795 . S
C460 C252 2.265 . S
