# Generated by pormake.
# Topology ctn, (3,4)-cn, num edge types: 1
# Building blocks:
#     Node 0, Type 0, BuildingBlock: BETDAH_clean_linker_0, # of connection points: 3
#     Node 1, Type 0, BuildingBlock: BETDAH_clean_linker_0, # of connection points: 3
#     Node 2, Type 0, BuildingBlock: BETDAH_clean_linker_0, # of connection points: 3
#     Node 3, Type 0, BuildingBlock: BETDAH_clean_linker_0, # of connection points: 3
#     Node 4, Type 0, BuildingBlock: BETDAH_clean_linker_0, # of connection points: 3
#     Node 5, Type 0, BuildingBlock: BETDAH_clean_linker_0, # of connection points: 3
#     Node 6, Type 0, BuildingBlock: BETDAH_clean_linker_0, # of connection points: 3
#     Node 7, Type 0, BuildingBlock: BETDAH_clean_linker_0, # of connection points: 3
#     Node 8, Type 0, BuildingBlock: BETDAH_clean_linker_0, # of connection points: 3
#     Node 9, Type 0, BuildingBlock: BETDAH_clean_linker_0, # of connection points: 3
#     Node 10, Type 0, BuildingBlock: BETDAH_clean_linker_0, # of connection points: 3
#     Node 11, Type 0, BuildingBlock: BETDAH_clean_linker_0, # of connection points: 3
#     Node 12, Type 0, BuildingBlock: BETDAH_clean_linker_0, # of connection points: 3
#     Node 13, Type 0, BuildingBlock: BETDAH_clean_linker_0, # of connection points: 3
#     Node 14, Type 0, BuildingBlock: BETDAH_clean_linker_0, # of connection points: 3
#     Node 15, Type 0, BuildingBlock: BETDAH_clean_linker_0, # of connection points: 3
#     Node 16, Type 1, BuildingBlock: AZAVOO_clean_sbu_0, # of connection points: 4
#     Node 17, Type 1, BuildingBlock: AZAVOO_clean_sbu_0, # of connection points: 4
#     Node 18, Type 1, BuildingBlock: AZAVOO_clean_sbu_0, # of connection points: 4
#     Node 19, Type 1, BuildingBlock: AZAVOO_clean_sbu_0, # of connection points: 4
#     Node 20, Type 1, BuildingBlock: AZAVOO_clean_sbu_0, # of connection points: 4
#     Node 21, Type 1, BuildingBlock: AZAVOO_clean_sbu_0, # of connection points: 4
#     Node 22, Type 1, BuildingBlock: AZAVOO_clean_sbu_0, # of connection points: 4
#     Node 23, Type 1, BuildingBlock: AZAVOO_clean_sbu_0, # of connection points: 4
#     Node 24, Type 1, BuildingBlock: AZAVOO_clean_sbu_0, # of connection points: 4
#     Node 25, Type 1, BuildingBlock: AZAVOO_clean_sbu_0, # of connection points: 4
#     Node 26, Type 1, BuildingBlock: AZAVOO_clean_sbu_0, # of connection points: 4
#     Node 27, Type 1, BuildingBlock: AZAVOO_clean_sbu_0, # of connection points: 4
#     Edge 28, Type (0, 1), BuildingBlock: TEMPAE_clean_linker_10, # of connection points: 2
#     Edge 29, Type (0, 1), BuildingBlock: TEMPAE_clean_linker_10, # of connection points: 2
#     Edge 30, Type (0, 1), BuildingBlock: TEMPAE_clean_linker_10, # of connection points: 2
#     Edge 31, Type (0, 1), BuildingBlock: TEMPAE_clean_linker_10, # of connection points: 2
#     Edge 32, Type (0, 1), BuildingBlock: TEMPAE_clean_linker_10, # of connection points: 2
#     Edge 33, Type (0, 1), BuildingBlock: TEMPAE_clean_linker_10, # of connection points: 2
#     Edge 34, Type (0, 1), BuildingBlock: TEMPAE_clean_linker_10, # of connection points: 2
#     Edge 35, Type (0, 1), BuildingBlock: TEMPAE_clean_linker_10, # of connection points: 2
#     Edge 36, Type (0, 1), BuildingBlock: TEMPAE_clean_linker_10, # of connection points: 2
#     Edge 37, Type (0, 1), BuildingBlock: TEMPAE_clean_linker_10, # of connection points: 2
#     Edge 38, Type (0, 1), BuildingBlock: TEMPAE_clean_linker_10, # of connection points: 2
#     Edge 39, Type (0, 1), BuildingBlock: TEMPAE_clean_linker_10, # of connection points: 2
#     Edge 40, Type (0, 1), BuildingBlock: TEMPAE_clean_linker_10, # of connection points: 2
#     Edge 41, Type (0, 1), BuildingBlock: TEMPAE_clean_linker_10, # of connection points: 2
#     Edge 42, Type (0, 1), BuildingBlock: TEMPAE_clean_linker_10, # of connection points: 2
#     Edge 43, Type (0, 1), BuildingBlock: TEMPAE_clean_linker_10, # of connection points: 2
#     Edge 44, Type (0, 1), BuildingBlock: TEMPAE_clean_linker_10, # of connection points: 2
#     Edge 45, Type (0, 1), BuildingBlock: TEMPAE_clean_linker_10, # of connection points: 2
#     Edge 46, Type (0, 1), BuildingBlock: TEMPAE_clean_linker_10, # of connection points: 2
#     Edge 47, Type (0, 1), BuildingBlock: TEMPAE_clean_linker_10, # of connection points: 2
#     Edge 48, Type (0, 1), BuildingBlock: TEMPAE_clean_linker_10, # of connection points: 2
#     Edge 49, Type (0, 1), BuildingBlock: TEMPAE_clean_linker_10, # of connection points: 2
#     Edge 50, Type (0, 1), BuildingBlock: TEMPAE_clean_linker_10, # of connection points: 2
#     Edge 51, Type (0, 1), BuildingBlock: TEMPAE_clean_linker_10, # of connection points: 2
#     Edge 52, Type (0, 1), BuildingBlock: TEMPAE_clean_linker_10, # of connection points: 2
#     Edge 53, Type (0, 1), BuildingBlock: TEMPAE_clean_linker_10, # of connection points: 2
#     Edge 54, Type (0, 1), BuildingBlock: TEMPAE_clean_linker_10, # of connection points: 2
#     Edge 55, Type (0, 1), BuildingBlock: TEMPAE_clean_linker_10, # of connection points: 2
#     Edge 56, Type (0, 1), BuildingBlock: TEMPAE_clean_linker_10, # of connection points: 2
#     Edge 57, Type (0, 1), BuildingBlock: TEMPAE_clean_linker_10, # of connection points: 2
#     Edge 58, Type (0, 1), BuildingBlock: TEMPAE_clean_linker_10, # of connection points: 2
#     Edge 59, Type (0, 1), BuildingBlock: TEMPAE_clean_linker_10, # of connection points: 2
#     Edge 60, Type (0, 1), BuildingBlock: TEMPAE_clean_linker_10, # of connection points: 2
#     Edge 61, Type (0, 1), BuildingBlock: TEMPAE_clean_linker_10, # of connection points: 2
#     Edge 62, Type (0, 1), BuildingBlock: TEMPAE_clean_linker_10, # of connection points: 2
#     Edge 63, Type (0, 1), BuildingBlock: TEMPAE_clean_linker_10, # of connection points: 2
#     Edge 64, Type (0, 1), BuildingBlock: TEMPAE_clean_linker_10, # of connection points: 2
#     Edge 65, Type (0, 1), BuildingBlock: TEMPAE_clean_linker_10, # of connection points: 2
#     Edge 66, Type (0, 1), BuildingBlock: TEMPAE_clean_linker_10, # of connection points: 2
#     Edge 67, Type (0, 1), BuildingBlock: TEMPAE_clean_linker_10, # of connection points: 2
#     Edge 68, Type (0, 1), BuildingBlock: TEMPAE_clean_linker_10, # of connection points: 2
#     Edge 69, Type (0, 1), BuildingBlock: TEMPAE_clean_linker_10, # of connection points: 2
#     Edge 70, Type (0, 1), BuildingBlock: TEMPAE_clean_linker_10, # of connection points: 2
#     Edge 71, Type (0, 1), BuildingBlock: TEMPAE_clean_linker_10, # of connection points: 2
#     Edge 72, Type (0, 1), BuildingBlock: TEMPAE_clean_linker_10, # of connection points: 2
#     Edge 73, Type (0, 1), BuildingBlock: TEMPAE_clean_linker_10, # of connection points: 2
#     Edge 74, Type (0, 1), BuildingBlock: TEMPAE_clean_linker_10, # of connection points: 2
#     Edge 75, Type (0, 1), BuildingBlock: TEMPAE_clean_linker_10, # of connection points: 2
# Relax obj value: 0.051
# Max RMSD: 0.175
# Mean RMSD: 0.105
data_MOF--net-ctn--node1-AZAVOO_clean_sbu_0--node2-BETDAH_clean_linker_0--edge1-TEMPAE_clean_linker_10
_symmetry_space_group_name_H-M    P1
_symmetry_Int_Tables_number       1
_symmetry_cell_setting            triclinic
loop_
_symmetry_equiv_pos_as_xyz
'x, y, z'
_cell_length_a     53.867046
_cell_length_b     54.676058
_cell_length_c     55.317698
_cell_angle_alpha  98.635293
_cell_angle_beta   93.119281
_cell_angle_gamma 97.809556
loop_
_atom_site_label
_atom_site_type_symbol
_atom_site_fract_x
_atom_site_fract_y
_atom_site_fract_z
_atom_type_partial_charge
H0 H 0.0714 0.99771 0.08353 0.0
H1 H 0.05976 0.99651 0.00552 0.0
H2 H 0.00371 0.01864 0.05296 0.0
C3 C 0.06003 1.00068 0.06774 0.0
C4 C 0.03668 0.00889 0.07111 0.0
C5 C 0.0685 0.99573 0.04409 0.0
C6 C 0.05374 1.00029 0.02391 0.0
C7 C 0.03046 0.00855 0.0272 0.0
C8 C 0.0218 0.01235 0.05064 0.0
N9 N 0.01523 0.0124 0.00689 0.0
C10 C 0.02187 0.03252 0.99483 0.0
H11 H 0.33852 0.69718 0.27147 0.0
H12 H 0.3775 0.76629 0.25612 0.0
H13 H 0.30381 0.73787 0.22123 0.0
C14 C 0.33915 0.71305 0.26178 0.0
C15 C 0.3184 0.7153 0.24609 0.0
C16 C 0.36046 0.73136 0.2657 0.0
C17 C 0.36115 0.75195 0.25332 0.0
C18 C 0.34114 0.75424 0.23701 0.0
C19 C 0.31968 0.73582 0.23327 0.0
N20 N 0.34322 0.77589 0.22557 0.0
C21 C 0.32827 0.77918 0.2054 0.0
H22 H 0.03668 0.45262 0.05857 0.0
H23 H 0.01118 0.524 0.05825 0.0
H24 H 0.00401 0.47045 0.99205 0.0
C25 C 0.02777 0.4654 0.049 0.0
C26 C 0.02021 0.45833 0.02397 0.0
C27 C 0.02487 0.48905 0.06164 0.0
C28 C 0.01325 0.50556 0.04896 0.0
C29 C 0.00541 0.49854 0.02386 0.0
C30 C 0.00928 0.47522 0.01155 0.0
N31 N 0.99596 0.5153 0.0097 0.0
C32 C 0.97835 0.53079 0.01682 0.0
H33 H 0.7859 0.83922 0.193 0.0
H34 H 0.73376 0.79375 0.23049 0.0
H35 H 0.77829 0.85987 0.26989 0.0
C36 C 0.77677 0.83586 0.20935 0.0
C37 C 0.78343 0.85298 0.23109 0.0
C38 C 0.75924 0.81402 0.20879 0.0
C39 C 0.74746 0.81016 0.23039 0.0
C40 C 0.7544 0.82697 0.25229 0.0
C41 C 0.77252 0.84781 0.25254 0.0
N42 N 0.74522 0.82269 0.27502 0.0
C43 C 0.72152 0.81068 0.27824 0.0
H44 H 0.08027 0.03728 0.47242 0.0
H45 H 0.09059 0.01842 0.54457 0.0
H46 H 0.02215 0.98917 0.50018 0.0
C47 C 0.07371 0.02667 0.48645 0.0
C48 C 0.04964 0.01235 0.483 0.0
C49 C 0.08893 0.02871 0.5083 0.0
C50 C 0.07948 0.01662 0.52729 0.0
C51 C 0.05557 0.00225 0.52429 0.0
C52 C 0.04075 0.99999 0.50214 0.0
N53 N 0.04536 0.99306 0.5448 0.0
C54 C 0.04212 0.96789 0.54718 0.0
H55 H 0.26067 0.69905 0.82143 0.0
H56 H 0.19843 0.7207 0.78188 0.0
H57 H 0.24221 0.66829 0.74526 0.0
C58 C 0.24894 0.69748 0.80456 0.0
C59 C 0.25411 0.68183 0.78346 0.0
C60 C 0.22906 0.71164 0.80405 0.0
C61 C 0.2137 0.70972 0.78228 0.0
C62 C 0.21819 0.69358 0.76117 0.0
C63 C 0.23845 0.67999 0.76188 0.0
N64 N 0.20323 0.6907 0.73868 0.0
C65 C 0.18135 0.70102 0.73501 0.0
H66 H 0.9394 0.52437 0.5084 0.0
H67 H 0.98347 0.5453 0.45024 0.0
H68 H 0.93249 0.47656 0.43812 0.0
C69 C 0.94481 0.5201 0.48984 0.0
C70 C 0.93375 0.49782 0.47467 0.0
C71 C 0.9623 0.53752 0.481 0.0
C72 C 0.97001 0.53194 0.45714 0.0
C73 C 0.95964 0.50948 0.44199 0.0
C74 C 0.94117 0.49307 0.45059 0.0
N75 N 0.96627 0.50316 0.41758 0.0
C76 C 0.98899 0.51169 0.40872 0.0
H77 H 0.83958 0.75334 0.80278 0.0
H78 H 0.79821 0.79572 0.75908 0.0
H79 H 0.76393 0.76377 0.81761 0.0
C80 C 0.82284 0.76148 0.79884 0.0
C81 C 0.80208 0.75722 0.81277 0.0
C82 C 0.82154 0.77494 0.77904 0.0
C83 C 0.79947 0.78524 0.77414 0.0
C84 C 0.77874 0.78126 0.78821 0.0
C85 C 0.78007 0.76689 0.807 0.0
N86 N 0.75568 0.79015 0.78337 0.0
C87 C 0.75301 0.81176 0.77364 0.0
H88 H 0.34522 0.25741 0.30712 0.0
H89 H 0.30333 0.2998 0.26389 0.0
H90 H 0.27017 0.2688 0.32346 0.0
C91 C 0.32849 0.26567 0.30345 0.0
C92 C 0.30806 0.26177 0.31785 0.0
C93 C 0.32688 0.27897 0.28356 0.0
C94 C 0.30483 0.28944 0.27901 0.0
C95 C 0.28442 0.2858 0.29356 0.0
C96 C 0.28607 0.27162 0.31246 0.0
N97 N 0.26136 0.29486 0.28913 0.0
C98 C 0.2585 0.31627 0.27911 0.0
H99 H 0.53053 0.95186 0.55979 0.0
H100 H 0.5073 0.0243 0.55991 0.0
H101 H 0.49886 0.9711 0.49347 0.0
C102 C 0.52208 0.965 0.55033 0.0
C103 C 0.51439 0.95823 0.52528 0.0
C104 C 0.51992 0.98882 0.56309 0.0
C105 C 0.50886 0.00575 0.55054 0.0
C106 C 0.50096 0.99907 0.52546 0.0
C107 C 0.50414 0.97561 0.51298 0.0
N108 N 0.4923 0.0164 0.51156 0.0
C109 C 0.47371 0.03087 0.51823 0.0
H110 H 0.29012 0.34543 0.7005 0.0
H111 H 0.21765 0.31418 0.72076 0.0
H112 H 0.24789 0.39086 0.74762 0.0
C113 C 0.27355 0.34719 0.71051 0.0
C114 C 0.27166 0.37018 0.72483 0.0
C115 C 0.25428 0.32667 0.70884 0.0
C116 C 0.23277 0.32963 0.72183 0.0
C117 C 0.23048 0.35293 0.73566 0.0
C118 C 0.24986 0.37297 0.73699 0.0
N119 N 0.20843 0.35737 0.74739 0.0
C120 C 0.19406 0.34012 0.75885 0.0
H121 H 0.84403 0.18894 0.77592 0.0
H122 H 0.88797 0.25379 0.75705 0.0
H123 H 0.81974 0.22105 0.71358 0.0
C124 C 0.84697 0.20266 0.76372 0.0
C125 C 0.82935 0.20216 0.74379 0.0
C126 C 0.86825 0.22097 0.76853 0.0
C127 C 0.87151 0.23958 0.7537 0.0
C128 C 0.85404 0.23997 0.73418 0.0
C129 C 0.83295 0.22115 0.72907 0.0
N130 N 0.85883 0.25954 0.72012 0.0
C131 C 0.84344 0.26363 0.70063 0.0
H132 H 0.56455 0.48875 0.57522 0.0
H133 H 0.55518 0.47844 0.49625 0.0
H134 H 0.50582 0.51928 0.53908 0.0
C135 C 0.55507 0.49209 0.55848 0.0
C136 C 0.53434 0.50518 0.55991 0.0
C137 C 0.5627 0.48212 0.53558 0.0
C138 C 0.54951 0.48576 0.51409 0.0
C139 C 0.52942 0.49949 0.51534 0.0
C140 C 0.52176 0.5091 0.53822 0.0
N141 N 0.5168 0.50312 0.49337 0.0
C142 C 0.51618 0.52696 0.48787 0.0
H143 H 0.58275 0.53345 0.96493 0.0
H144 H 0.58566 0.50411 0.03283 0.0
H145 H 0.51684 0.49115 0.98696 0.0
C146 C 0.5738 0.52215 0.9774 0.0
C147 C 0.54831 0.51189 0.97252 0.0
C148 C 0.58765 0.51928 0.99885 0.0
C149 C 0.57553 0.506 0.01589 0.0
C150 C 0.54994 0.49603 0.01153 0.0
C151 C 0.53652 0.49905 0.98999 0.0
N152 N 0.53659 0.48557 0.02981 0.0
C153 C 0.54145 0.4639 0.03834 0.0
H154 H 0.75822 0.19316 0.32555 0.0
H155 H 0.69652 0.21484 0.28524 0.0
H156 H 0.73987 0.16142 0.24962 0.0
C157 C 0.74658 0.19146 0.30861 0.0
C158 C 0.7517 0.17545 0.28775 0.0
C159 C 0.72687 0.20581 0.30778 0.0
C160 C 0.71166 0.20373 0.28589 0.0
C161 C 0.7161 0.18722 0.26502 0.0
C162 C 0.73616 0.17342 0.26606 0.0
N163 N 0.70121 0.18412 0.24247 0.0
C164 C 0.6798 0.19508 0.23845 0.0
H165 H 0.43806 0.02845 0.00818 0.0
H166 H 0.48254 0.0493 0.95025 0.0
H167 H 0.43038 0.98136 0.93747 0.0
C168 C 0.44343 0.02426 0.98959 0.0
C169 C 0.43201 0.00226 0.97421 0.0
C170 C 0.46122 0.04154 0.98092 0.0
C171 C 0.46886 0.03606 0.95702 0.0
C172 C 0.45809 0.01387 0.94166 0.0
C173 C 0.43934 0.99764 0.9501 0.0
N174 N 0.46456 0.00772 0.91717 0.0
C175 C 0.48767 0.01535 0.90854 0.0
Mg176 Mg 0.23514 0.84978 0.01894 0.0
O177 O 0.27229 0.87554 0.01609 0.0
O178 O 0.30366 0.85276 0.01807 0.0
Mg179 Mg 0.28664 0.81234 0.01912 0.0
C180 C 0.29566 0.87343 0.01653 0.0
C181 C 0.21521 0.90092 0.02426 0.0
O182 O 0.23352 0.90554 0.04175 0.0
O183 O 0.23531 0.83274 0.97865 0.0
O184 O 0.2667 0.80997 0.98065 0.0
O185 O 0.24032 0.8562 0.05998 0.0
O186 O 0.25422 0.82566 0.03627 0.0
C187 C 0.24927 0.81769 0.96848 0.0
C188 C 0.25239 0.83717 0.058 0.0
O189 O 0.21194 0.87984 0.0103 0.0
Mg190 Mg 0.172 0.52482 0.26471 0.0
O191 O 0.14707 0.51768 0.22831 0.0
O192 O 0.17308 0.51613 0.19816 0.0
Mg193 Mg 0.21387 0.5235 0.21466 0.0
C194 C 0.15095 0.51501 0.20553 0.0
C195 C 0.13741 0.52992 0.30656 0.0
O196 O 0.15621 0.54816 0.313 0.0
O197 O 0.1815 0.48446 0.25913 0.0
O198 O 0.20884 0.48657 0.23026 0.0
O199 O 0.17433 0.56615 0.26503 0.0
O200 O 0.20154 0.54329 0.24836 0.0
C201 C 0.1971 0.47464 0.24538 0.0
C202 C 0.19407 0.56477 0.25284 0.0
O203 O 0.13782 0.51525 0.28643 0.0
Mg204 Mg 0.80185 0.67227 0.02223 0.0
O205 O 0.76416 0.64513 0.01784 0.0
O206 O 0.73414 0.66963 0.0168 0.0
Mg207 Mg 0.75109 0.71089 0.02251 0.0
C208 C 0.74096 0.64803 0.01594 0.0
C209 C 0.84862 0.64738 0.01962 0.0
O210 O 0.85622 0.67104 0.02858 0.0
O211 O 0.79712 0.67897 0.98203 0.0
O212 O 0.76874 0.70531 0.98553 0.0
O213 O 0.80227 0.67704 0.06327 0.0
O214 O 0.7841 0.70044 0.04055 0.0
C215 C 0.78405 0.69377 0.97295 0.0
C216 C 0.78888 0.69477 0.06186 0.0
O217 O 0.82533 0.64052 0.01329 0.0
Mg218 Mg 0.94763 0.05635 0.27643 0.0
O219 O 0.92254 0.01849 0.26377 0.0
O220 O 0.94774 0.9891 0.25733 0.0
Mg221 Mg 0.9884 0.00784 0.26406 0.0
C222 C 0.92596 0.99575 0.25785 0.0
C223 C 0.90777 0.09153 0.27656 0.0
O224 O 0.92308 0.09854 0.26039 0.0
O225 O 0.95607 0.04528 0.31433 0.0
O226 O 0.98127 0.01645 0.30474 0.0
O227 O 0.94963 0.06234 0.2376 0.0
O228 O 0.97655 0.04309 0.2563 0.0
C229 C 0.9697 0.0294 0.32036 0.0
C230 C 0.96854 0.05008 0.2364 0.0
O231 O 0.9129 0.0742 0.28819 0.0
Mg232 Mg 0.30419 0.17966 0.52933 0.0
O233 O 0.2652 0.15519 0.52321 0.0
O234 O 0.23693 0.18151 0.52227 0.0
Mg235 Mg 0.25696 0.22189 0.52839 0.0
C236 C 0.24245 0.15938 0.52112 0.0
C237 C 0.34811 0.1509 0.51856 0.0
O238 O 0.35776 0.17447 0.51953 0.0
O239 O 0.30227 0.18721 0.48923 0.0
O240 O 0.27516 0.21485 0.49191 0.0
O241 O 0.30137 0.18339 0.5701 0.0
O242 O 0.28868 0.20968 0.5472 0.0
C243 C 0.29025 0.20257 0.47977 0.0
C244 C 0.2907 0.20296 0.56842 0.0
O245 O 0.32464 0.14566 0.52056 0.0
Mg246 Mg 0.44951 0.56246 0.766 0.0
O247 O 0.4228 0.52539 0.75484 0.0
O248 O 0.4459 0.49463 0.74622 0.0
Mg249 Mg 0.48721 0.51164 0.75196 0.0
C250 C 0.42465 0.50233 0.74819 0.0
C251 C 0.41033 0.59868 0.76749 0.0
O252 O 0.42456 0.60495 0.75022 0.0
O253 O 0.45904 0.55161 0.80368 0.0
O254 O 0.48208 0.52108 0.79311 0.0
O255 O 0.45032 0.56789 0.72684 0.0
O256 O 0.47696 0.5477 0.74472 0.0
C257 C 0.47198 0.53501 0.80923 0.0
C258 C 0.46864 0.55488 0.72504 0.0
O259 O 0.41605 0.58163 0.7792 0.0
Mg260 Mg 0.74089 0.34195 0.52356 0.0
O261 O 0.77699 0.36889 0.51968 0.0
O262 O 0.80898 0.34662 0.51885 0.0
Mg263 Mg 0.79333 0.30569 0.51905 0.0
C264 C 0.80038 0.36723 0.5187 0.0
C265 C 0.69795 0.37099 0.53186 0.0
O266 O 0.69589 0.35408 0.54647 0.0
O267 O 0.73901 0.3265 0.48267 0.0
O268 O 0.77108 0.30436 0.48193 0.0
O269 O 0.74847 0.34698 0.56436 0.0
O270 O 0.76167 0.31761 0.53854 0.0
C271 C 0.75276 0.31212 0.47111 0.0
C272 C 0.76084 0.32822 0.56079 0.0
O273 O 0.71603 0.37161 0.518 0.0
Mg274 Mg 0.67027 0.02236 0.764 0.0
O275 O 0.64432 0.01681 0.72828 0.0
O276 O 0.66952 0.01463 0.69742 0.0
Mg277 Mg 0.71068 0.02119 0.71261 0.0
C278 C 0.64764 0.01406 0.70535 0.0
C279 C 0.63687 0.02768 0.80688 0.0
O280 O 0.65605 0.04555 0.81319 0.0
O281 O 0.67845 0.98163 0.75664 0.0
O282 O 0.70549 0.98387 0.72752 0.0
O283 O 0.67413 0.06404 0.76662 0.0
O284 O 0.69922 0.04071 0.74682 0.0
C285 C 0.69368 0.97176 0.74247 0.0
C286 C 0.69284 0.06248 0.75305 0.0
O287 O 0.63671 0.01309 0.78661 0.0
Mg288 Mg 0.06479 0.23832 0.9196 0.0
O289 O 0.02613 0.22908 0.89836 0.0
O290 O 0.99735 0.21955 0.92434 0.0
Mg291 Mg 0.01784 0.22204 0.9622 0.0
C292 C 0.00336 0.22279 0.90291 0.0
C293 C 0.10146 0.26989 0.89086 0.0
O294 O 0.11157 0.27717 0.9134 0.0
O295 O 0.05441 0.27601 0.9365 0.0
O296 O 0.02743 0.26461 0.96349 0.0
O297 O 0.0701 0.19818 0.91266 0.0
O298 O 0.05264 0.21549 0.94488 0.0
C299 C 0.04001 0.28145 0.95351 0.0
C300 C 0.05884 0.19567 0.93243 0.0
O301 O 0.08134 0.25431 0.88725 0.0
Mg302 Mg 0.55332 0.73671 0.41994 0.0
O303 O 0.51625 0.72896 0.39599 0.0
O304 O 0.48519 0.72001 0.41983 0.0
Mg305 Mg 0.50246 0.72128 0.45883 0.0
C306 C 0.49294 0.7233 0.39899 0.0
C307 C 0.59673 0.74991 0.38935 0.0
O308 O 0.60654 0.73962 0.4069 0.0
O309 O 0.5434 0.77477 0.43625 0.0
O310 O 0.51411 0.76377 0.46132 0.0
O311 O 0.55745 0.69631 0.41326 0.0
O312 O 0.53816 0.71385 0.44403 0.0
C313 C 0.52815 0.78045 0.45239 0.0
C314 C 0.5446 0.6939 0.43209 0.0
O315 O 0.57362 0.75242 0.38928 0.0
Mg316 Mg 0.98263 0.74888 0.61319 0.0
O317 O 0.01944 0.74445 0.63511 0.0
O318 O 0.04679 0.73717 0.6068 0.0
Mg319 Mg 0.02873 0.73559 0.56817 0.0
C320 C 0.04131 0.74024 0.62914 0.0
C321 C 0.9565 0.7498 0.66216 0.0
O322 O 0.96111 0.72664 0.65763 0.0
O323 O 0.99984 0.78783 0.6058 0.0
O324 O 0.0252 0.77743 0.5765 0.0
O325 O 0.96911 0.70757 0.60847 0.0
O326 O 0.99247 0.72526 0.58266 0.0
C327 C 0.01511 0.79384 0.59 0.0
C328 C 0.98133 0.70512 0.58899 0.0
O329 O 0.96467 0.76496 0.64805 0.0
Mg330 Mg 0.48625 0.25195 0.11576 0.0
O331 O 0.5222 0.24578 0.13796 0.0
O332 O 0.54982 0.23803 0.11004 0.0
Mg333 Mg 0.53276 0.23789 0.07136 0.0
C334 C 0.54395 0.2409 0.13226 0.0
C335 C 0.45991 0.25269 0.16459 0.0
O336 O 0.46426 0.22946 0.15982 0.0
O337 O 0.50509 0.29075 0.10943 0.0
O338 O 0.53094 0.28002 0.08067 0.0
O339 O 0.47132 0.21092 0.11005 0.0
O340 O 0.49583 0.22845 0.08498 0.0
C341 C 0.52117 0.29661 0.09427 0.0
C342 C 0.48381 0.20841 0.09075 0.0
O343 O 0.46829 0.26795 0.15064 0.0
C344 C 0.22792 0.75489 0.82588 0.0
C345 C 0.22548 0.72912 0.8263 0.0
C346 C 0.22927 0.77199 0.84776 0.0
C347 C 0.22782 0.76297 0.87043 0.0
C348 C 0.22358 0.73686 0.87066 0.0
C349 C 0.2227 0.72026 0.8486 0.0
C350 C 0.23399 0.79964 0.84674 0.0
C351 C 0.22147 0.72642 0.89436 0.0
C352 C 0.26353 0.79827 0.92892 0.0
C353 C 0.24424 0.8072 0.94212 0.0
C354 C 0.2586 0.78516 0.90497 0.0
C355 C 0.23367 0.78042 0.89406 0.0
C356 C 0.21429 0.79042 0.90683 0.0
C357 C 0.21985 0.8039 0.93069 0.0
C358 C 0.27994 0.7753 0.89181 0.0
C359 C 0.18745 0.7856 0.89592 0.0
H360 H 0.23026 0.7617 0.80859 0.0
H361 H 0.22072 0.70029 0.84883 0.0
H362 H 0.22149 0.80977 0.85859 0.0
H363 H 0.25365 0.8072 0.85378 0.0
H364 H 0.2311 0.80363 0.82776 0.0
H365 H 0.2153 0.70589 0.89118 0.0
H366 H 0.24001 0.73034 0.90504 0.0
H367 H 0.20796 0.73558 0.90574 0.0
H368 H 0.28247 0.80103 0.93756 0.0
H369 H 0.20485 0.81068 0.94085 0.0
H370 H 0.28004 0.78025 0.87309 0.0
H371 H 0.27732 0.75459 0.88986 0.0
H372 H 0.29853 0.78274 0.90177 0.0
H373 H 0.18649 0.78939 0.87677 0.0
H374 H 0.17525 0.79722 0.90672 0.0
H375 H 0.17982 0.76561 0.89538 0.0
C376 C 0.03228 0.50478 0.40118 0.0
C377 C 0.01165 0.51679 0.3964 0.0
C378 C 0.05329 0.50701 0.38723 0.0
C379 C 0.05349 0.52152 0.36802 0.0
C380 C 0.03276 0.53412 0.36357 0.0
C381 C 0.01201 0.53153 0.37782 0.0
C382 C 0.07498 0.49335 0.39263 0.0
C383 C 0.03226 0.54984 0.34337 0.0
C384 C 0.11596 0.54428 0.34405 0.0
C385 C 0.11606 0.52723 0.32237 0.0
C386 C 0.09582 0.54256 0.35909 0.0
C387 C 0.0752 0.52329 0.3524 0.0
C388 C 0.07524 0.50586 0.33066 0.0
C389 C 0.09565 0.50805 0.31589 0.0
C390 C 0.09654 0.56151 0.3821 0.0
C391 C 0.05363 0.48499 0.32292 0.0
H392 H 0.03171 0.49313 0.41544 0.0
H393 H 0.99581 0.54054 0.37403 0.0
H394 H 0.07723 0.47939 0.37645 0.0
H395 H 0.09273 0.50667 0.39622 0.0
H396 H 0.07229 0.48355 0.4087 0.0
H397 H 0.01513 0.55905 0.34279 0.0
H398 H 0.04903 0.56446 0.3459 0.0
H399 H 0.033 0.53796 0.32538 0.0
H400 H 0.13161 0.55918 0.34927 0.0
H401 H 0.09555 0.49478 0.29922 0.0
H402 H 0.09501 0.55187 0.39834 0.0
H403 H 0.08026 0.57186 0.38119 0.0
H404 H 0.11408 0.57521 0.38487 0.0
H405 H 0.05097 0.47331 0.3376 0.0
H406 H 0.05664 0.47279 0.3057 0.0
H407 H 0.03598 0.49291 0.32015 0.0
C408 C 0.78373 0.72353 0.83541 0.0
C409 C 0.80305 0.74298 0.8336 0.0
C410 C 0.78234 0.71221 0.85658 0.0
C411 C 0.80044 0.72089 0.87665 0.0
C412 C 0.82078 0.7396 0.87436 0.0
C413 C 0.82194 0.7503 0.85277 0.0
C414 C 0.76062 0.69203 0.858 0.0
C415 C 0.84033 0.74961 0.89536 0.0
C416 C 0.77708 0.71937 0.94001 0.0
C417 C 0.78766 0.69946 0.94773 0.0
C418 C 0.78122 0.72643 0.91706 0.0
C419 C 0.79607 0.71308 0.90102 0.0
C420 C 0.80648 0.69264 0.90836 0.0
C421 C 0.80231 0.68616 0.93172 0.0
C422 C 0.76989 0.74848 0.91014 0.0
C423 C 0.82206 0.6777 0.8916 0.0
H424 H 0.76926 0.71763 0.82048 0.0
H425 H 0.83683 0.7654 0.85144 0.0
H426 H 0.7673 0.6762 0.86557 0.0
H427 H 0.74716 0.69964 0.87055 0.0
H428 H 0.75043 0.68482 0.83978 0.0
H429 H 0.85645 0.76187 0.88973 0.0
H430 H 0.83165 0.76062 0.9103 0.0
H431 H 0.84748 0.73406 0.90299 0.0
H432 H 0.76583 0.72995 0.95214 0.0
H433 H 0.81057 0.67075 0.93744 0.0
H434 H 0.75708 0.74248 0.89328 0.0
H435 H 0.78495 0.76294 0.9061 0.0
H436 H 0.75914 0.75715 0.92487 0.0
H437 H 0.81114 0.6702 0.87382 0.0
H438 H 0.82816 0.66186 0.89966 0.0
H439 H 0.83899 0.68997 0.88761 0.0
C440 C 0.04504 0.0116 0.43749 0.0
C441 C 0.03379 0.01175 0.45982 0.0
C442 C 0.03139 0.01424 0.41597 0.0
C443 C 0.00548 0.01625 0.4164 0.0
C444 C 0.9936 0.01511 0.43851 0.0
C445 C 0.00794 0.01315 0.46003 0.0
C446 C 0.04492 0.01548 0.39286 0.0
C447 C 0.96587 0.01645 0.43954 0.0
C448 C 0.98096 0.04706 0.36453 0.0
C449 C 0.97362 0.02626 0.34627 0.0
C450 C 0.9901 0.04408 0.38807 0.0
C451 C 0.99124 0.01969 0.39355 0.0
C452 C 0.98174 0.99864 0.37571 0.0
C453 C 0.97348 0.00218 0.35216 0.0
C454 C 1.00045 0.06703 0.40637 0.0
C455 C 0.9818 0.97234 0.38097 0.0
H456 H 0.06481 0.00985 0.43689 0.0
H457 H 0.99901 0.01346 0.47713 0.0
H458 H 0.03647 0.99991 0.3783 0.0
H459 H 0.04283 0.03321 0.386 0.0
H460 H 0.06528 0.01439 0.39579 0.0
H461 H 0.95901 0.013 0.45748 0.0
H462 H 0.96202 0.03519 0.43642 0.0
H463 H 0.95495 0.00253 0.42478 0.0
H464 H 0.98128 0.06567 0.35989 0.0
H465 H 0.96766 0.98607 0.33803 0.0
H466 H 0.02121 0.0684 0.40879 0.0
H467 H 0.99309 0.06568 0.42453 0.0
H468 H 0.99577 0.08447 0.40035 0.0
H469 H 1.0013 0.96791 0.3813 0.0
H470 H 0.97002 0.9583 0.36687 0.0
H471 H 0.97484 0.97052 0.39922 0.0
C472 C 0.23576 0.28973 0.67711 0.0
C473 C 0.25648 0.30294 0.69233 0.0
C474 C 0.23871 0.26995 0.65857 0.0
C475 C 0.26302 0.26368 0.65478 0.0
C476 C 0.28366 0.27579 0.67112 0.0
C477 C 0.28004 0.29492 0.68992 0.0
C478 C 0.21608 0.25688 0.64207 0.0
C479 C 0.30996 0.26992 0.66765 0.0
C480 C 0.27625 0.20695 0.61106 0.0
C481 C 0.28151 0.21751 0.58998 0.0
C482 C 0.26889 0.22139 0.63199 0.0
C483 C 0.26761 0.2471 0.63202 0.0
C484 C 0.27249 0.25766 0.61058 0.0
C485 C 0.27902 0.24265 0.58975 0.0
C486 C 0.26299 0.20927 0.65418 0.0
C487 C 0.27187 0.2851 0.60994 0.0
H488 H 0.21745 0.29565 0.67875 0.0
H489 H 0.29602 0.30441 0.7021 0.0
H490 H 0.21645 0.26365 0.62415 0.0
H491 H 0.21635 0.2364 0.6385 0.0
H492 H 0.1982 0.26047 0.6501 0.0
H493 H 0.32361 0.2796 0.68302 0.0
H494 H 0.3103 0.24951 0.66598 0.0
H495 H 0.3163 0.27582 0.65037 0.0
H496 H 0.27794 0.18744 0.61121 0.0
H497 H 0.28317 0.25092 0.57354 0.0
H498 H 0.24508 0.21423 0.66113 0.0
H499 H 0.27798 0.21628 0.66911 0.0
H500 H 0.26151 0.18857 0.65011 0.0
H501 H 0.25318 0.29002 0.61449 0.0
H502 H 0.27586 0.29031 0.59173 0.0
H503 H 0.286 0.29656 0.62394 0.0
C504 C 0.50017 0.50523 0.58856 0.0
C505 C 0.52497 0.51352 0.584 0.0
C506 C 0.49118 0.51199 0.61161 0.0
C507 C 0.50724 0.52792 0.63033 0.0
C508 C 0.53222 0.53672 0.62562 0.0
C509 C 0.5409 0.52912 0.60258 0.0
C510 C 0.46463 0.50175 0.61604 0.0
C511 C 0.54972 0.55419 0.6449 0.0
C512 C 0.47543 0.56211 0.68221 0.0
C513 C 0.47888 0.54801 0.70101 0.0
C514 C 0.48504 0.55612 0.65931 0.0
C515 C 0.4979 0.53516 0.65487 0.0
C516 C 0.50135 0.52079 0.67374 0.0
C517 C 0.49208 0.52758 0.69666 0.0
C518 C 0.48145 0.57226 0.63987 0.0
C519 C 0.51449 0.49797 0.66957 0.0
H520 H 0.48797 0.49293 0.57422 0.0
H521 H 0.56007 0.53557 0.59894 0.0
H522 H 0.46484 0.49111 0.63161 0.0
H523 H 0.45375 0.51732 0.62114 0.0
H524 H 0.45471 0.48925 0.59968 0.0
H525 H 0.56824 0.56007 0.63803 0.0
H526 H 0.5411 0.57113 0.6512 0.0
H527 H 0.55282 0.54495 0.66112 0.0
H528 H 0.46545 0.57808 0.6855 0.0
H529 H 0.49477 0.51653 0.71096 0.0
H530 H 0.46997 0.56102 0.62371 0.0
H531 H 0.49991 0.57921 0.63354 0.0
H532 H 0.47202 0.58856 0.64659 0.0
H533 H 0.50444 0.48429 0.65411 0.0
H534 H 0.51548 0.48868 0.68606 0.0
H535 H 0.53387 0.50325 0.66442 0.0
C536 C 0.80537 0.26429 0.67386 0.0
C537 C 0.83102 0.27183 0.68024 0.0
C538 C 0.79333 0.27326 0.65449 0.0
C539 C 0.80741 0.29013 0.64147 0.0
C540 C 0.83342 0.29763 0.64798 0.0
C541 C 0.8449 0.28834 0.66734 0.0
C542 C 0.7656 0.2648 0.648 0.0
C543 C 0.84908 0.31554 0.63459 0.0
C544 C 0.78376 0.29671 0.5772 0.0
C545 C 0.77332 0.31899 0.58143 0.0
C546 C 0.79463 0.28696 0.59661 0.0
C547 C 0.79514 0.29983 0.62086 0.0
C548 C 0.7847 0.32235 0.62527 0.0
C549 C 0.77386 0.33165 0.6055 0.0
C550 C 0.80556 0.26289 0.59115 0.0
C551 C 0.78504 0.33667 0.65088 0.0
H552 H 0.79477 0.25155 0.68408 0.0
H553 H 0.86478 0.29415 0.67254 0.0
H554 H 0.75541 0.28122 0.64988 0.0
H555 H 0.7624 0.25558 0.62859 0.0
H556 H 0.75741 0.25155 0.65983 0.0
H557 H 0.86905 0.31954 0.642 0.0
H558 H 0.84835 0.30768 0.61483 0.0
H559 H 0.84132 0.33344 0.63595 0.0
H560 H 0.78317 0.28663 0.55871 0.0
H561 H 0.76574 0.34881 0.60892 0.0
H562 H 0.79637 0.24882 0.60159 0.0
H563 H 0.82589 0.26618 0.59716 0.0
H564 H 0.80324 0.25494 0.57133 0.0
H565 H 0.77537 0.32452 0.6629 0.0
H566 H 0.77579 0.35367 0.65127 0.0
H567 H 0.80472 0.34236 0.65878 0.0
C568 C 0.54803 0.01902 0.59509 0.0
C569 C 0.53192 0.99628 0.58855 0.0
C570 C 0.5641 0.02369 0.6167 0.0
C571 C 0.56424 0.00507 0.63196 0.0
C572 C 0.54651 0.98301 0.62651 0.0
C573 C 0.53044 0.979 0.60501 0.0
C574 C 0.58233 0.0477 0.6221 0.0
C575 C 0.54596 0.96264 0.64221 0.0
C576 C 0.62776 1.00025 0.66275 0.0
C577 C 0.62567 0.01082 0.68714 0.0
C578 C 0.60778 0.99803 0.64484 0.0
C579 C 0.58516 0.00695 0.65129 0.0
C580 C 0.5828 0.0175 0.67591 0.0
C581 C 0.60302 0.01912 0.69362 0.0
C582 C 0.61098 0.98621 0.61891 0.0
C583 C 0.55913 0.02752 0.68343 0.0
H584 H 0.54939 0.03248 0.58252 0.0
H585 H 0.51765 0.9616 0.60035 0.0
H586 H 0.58321 0.05578 0.64181 0.0
H587 H 0.60144 0.04377 0.61789 0.0
H588 H 0.57715 0.06182 0.61099 0.0
H589 H 0.52893 0.9484 0.63754 0.0
H590 H 0.56277 0.95314 0.63945 0.0
H591 H 0.54664 0.97059 0.66193 0.0
H592 H 0.6451 0.99362 0.6576 0.0
H593 H 0.60132 0.02749 0.71239 0.0
H594 H 0.60925 0.99993 0.60626 0.0
H595 H 0.59593 0.97011 0.61289 0.0
H596 H 0.62947 0.97954 0.61706 0.0
H597 H 0.55608 0.0431 0.67339 0.0
H598 H 0.55994 0.03444 0.70343 0.0
H599 H 0.5426 0.01278 0.67842 0.0
C600 C 0.89762 0.24237 0.80448 0.0
C601 C 0.88734 0.22035 0.78875 0.0
C602 C 0.91617 0.24211 0.82322 0.0
C603 C 0.92468 0.21928 0.82624 0.0
C604 C 0.91423 0.19695 0.81055 0.0
C605 C 0.89566 0.19775 0.792 0.0
C606 C 0.92677 0.26629 0.8397 0.0
C607 C 0.9229 0.17228 0.81314 0.0
C608 C 0.98923 0.22372 0.85915 0.0
C609 C 0.9832 0.2204 0.88294 0.0
C610 C 0.97036 0.223 0.84044 0.0
C611 C 0.94482 0.2189 0.84561 0.0
C612 C 0.93855 0.21505 0.86939 0.0
C613 C 0.9578 0.2158 0.88776 0.0
C614 C 0.97776 0.22708 0.81524 0.0
C615 C 0.9115 0.21061 0.87557 0.0
H616 H 0.89103 0.25982 0.80222 0.0
H617 H 0.88798 0.18073 0.77969 0.0
H618 H 0.92405 0.26447 0.85912 0.0
H619 H 0.94729 0.27047 0.83807 0.0
H620 H 0.91783 0.28236 0.83517 0.0
H621 H 0.91247 0.15653 0.79981 0.0
H622 H 0.94323 0.17339 0.81031 0.0
H623 H 0.92044 0.16812 0.83196 0.0
H624 H 0.00875 0.22722 0.85517 0.0
H625 H 0.95289 0.2132 0.90604 0.0
H626 H 0.97092 0.24414 0.81052 0.0
H627 H 0.96883 0.21114 0.80129 0.0
H628 H 0.99844 0.22917 0.814 0.0
H629 H 0.90227 0.22708 0.87301 0.0
H630 H 0.90977 0.20718 0.89474 0.0
H631 H 0.90109 0.1943 0.86297 0.0
C632 C 0.53923 0.92256 0.51697 0.0
C633 C 0.51758 0.93319 0.51197 0.0
C634 C 0.54175 0.8983 0.50588 0.0
C635 C 0.52233 0.88442 0.48906 0.0
C636 C 0.50091 0.89538 0.48312 0.0
C637 C 0.49872 0.91958 0.49475 0.0
C638 C 0.56483 0.88723 0.5128 0.0
C639 C 0.47991 0.88125 0.46509 0.0
C640 C 0.5369 0.82607 0.44876 0.0
C641 C 0.52663 0.80713 0.4614 0.0
C642 C 0.53536 0.85133 0.45731 0.0
C643 C 0.52358 0.85779 0.47918 0.0
C644 C 0.51325 0.83878 0.49201 0.0
C645 C 0.51477 0.81373 0.48291 0.0
C646 C 0.54629 0.8711 0.44298 0.0
C647 C 0.50081 0.8449 0.51556 0.0
H648 H 0.5542 0.93315 0.52977 0.0
H649 H 0.48186 0.92753 0.49088 0.0
H650 H 0.55931 0.8709 0.52208 0.0
H651 H 0.57399 0.88039 0.49612 0.0
H652 H 0.57878 0.90091 0.52524 0.0
H653 H 0.46571 0.89321 0.46073 0.0
H654 H 0.48756 0.87355 0.4478 0.0
H655 H 0.47035 0.8652 0.4728 0.0
H656 H 0.54597 0.82114 0.43206 0.0
H657 H 0.50689 0.79929 0.4929 0.0
H658 H 0.56132 0.88429 0.45451 0.0
H659 H 0.53156 0.88213 0.43785 0.0
H660 H 0.55428 0.86295 0.42602 0.0
H661 H 0.51436 0.85737 0.52941 0.0
H662 H 0.49374 0.82792 0.52334 0.0
H663 H 0.4848 0.8551 0.51229 0.0
C664 C 0.18597 0.30577 0.78292 0.0
C665 C 0.17844 0.32646 0.7741 0.0
C666 C 0.17248 0.29466 0.80051 0.0
C667 C 0.15126 0.3048 0.80949 0.0
C668 C 0.14319 0.32521 0.79983 0.0
C669 C 0.15694 0.33581 0.7822 0.0
C670 C 0.18153 0.2728 0.81022 0.0
C671 C 0.12077 0.33665 0.80896 0.0
C672 C 0.10548 0.26829 0.8457 0.0
C673 C 0.11395 0.27888 0.86995 0.0
C674 C 0.11764 0.27626 0.8258 0.0
C675 C 0.13861 0.2954 0.83027 0.0
C676 C 0.14718 0.3062 0.85469 0.0
C677 C 0.13481 0.29775 0.87422 0.0
C678 C 0.10806 0.26421 0.80002 0.0
C679 C 0.16934 0.32684 0.86021 0.0
H680 H 0.2028 0.29879 0.77665 0.0
H681 H 0.15139 0.35202 0.77539 0.0
H682 H 0.18866 0.27855 0.82972 0.0
H683 H 0.16577 0.25731 0.80947 0.0
H684 H 0.19681 0.2657 0.79975 0.0
H685 H 0.11592 0.35128 0.79834 0.0
H686 H 0.10415 0.32202 0.80788 0.0
H687 H 0.12482 0.3452 0.82852 0.0
H688 H 0.08945 0.2536 0.84223 0.0
H689 H 0.14147 0.30606 0.89287 0.0
H690 H 0.12332 0.25615 0.79037 0.0
H691 H 0.10214 0.27851 0.78957 0.0
H692 H 0.09188 0.24918 0.79967 0.0
H693 H 0.18621 0.32036 0.85223 0.0
H694 H 0.17376 0.33313 0.88022 0.0
H695 H 0.16541 0.34313 0.85164 0.0
C696 C 0.53959 0.56873 0.48864 0.0
C697 C 0.51793 0.55153 0.48117 0.0
C698 C 0.54266 0.59212 0.48079 0.0
C699 C 0.52354 0.59825 0.46513 0.0
C700 C 0.50134 0.58097 0.45797 0.0
C701 C 0.49883 0.55766 0.46608 0.0
C702 C 0.56659 0.61002 0.48881 0.0
C703 C 0.48054 0.58689 0.44139 0.0
C704 C 0.5252 0.66716 0.46104 0.0
C705 C 0.53755 0.66916 0.43958 0.0
C706 C 0.51988 0.64406 0.46923 0.0
C707 C 0.52721 0.62247 0.45571 0.0
C708 C 0.53917 0.62426 0.43374 0.0
C709 C 0.54418 0.64758 0.42593 0.0
C710 C 0.50703 0.64288 0.49271 0.0
C711 C 0.54729 0.60164 0.41882 0.0
H712 H 0.55434 0.5637 0.50026 0.0
H713 H 0.48215 0.54409 0.4603 0.0
H714 H 0.57682 0.61366 0.47254 0.0
H715 H 0.56213 0.62821 0.49797 0.0
H716 H 0.57925 0.60268 0.50161 0.0
H717 H 0.46406 0.57188 0.4384 0.0
H718 H 0.47428 0.60469 0.44932 0.0
H719 H 0.4876 0.58945 0.42333 0.0
H720 H 0.52014 0.68373 0.4718 0.0
H721 H 0.55372 0.64895 0.40933 0.0
H722 H 0.51994 0.63755 0.50669 0.0
H723 H 0.49021 0.62831 0.48953 0.0
H724 H 0.50115 0.66103 0.50025 0.0
H725 H 0.56164 0.59436 0.42983 0.0
H726 H 0.55535 0.60595 0.40161 0.0
H727 H 0.53108 0.5865 0.41406 0.0
C728 C 0.83745 0.77068 0.73703 0.0
C729 C 0.84253 0.77644 0.76255 0.0
C730 C 0.85698 0.76896 0.72127 0.0
C731 C 0.8823 0.77332 0.7312 0.0
C732 C 0.88758 0.78034 0.75688 0.0
C733 C 0.86766 0.78165 0.77224 0.0
C734 C 0.85043 0.76119 0.69406 0.0
C735 C 0.91427 0.78552 0.76822 0.0
C736 C 0.928 0.73863 0.69434 0.0
C737 C 0.93938 0.75688 0.68147 0.0
C738 C 0.90984 0.74394 0.71086 0.0
C739 C 0.90293 0.76822 0.71496 0.0
C740 C 0.91499 0.78703 0.70275 0.0
C741 C 0.93297 0.78112 0.68606 0.0
C742 C 0.89743 0.72325 0.72335 0.0
C743 C 0.90843 0.81323 0.70687 0.0
H744 H 0.8181 0.76635 0.7294 0.0
H745 H 0.87173 0.78637 0.79193 0.0
H746 H 0.86109 0.77444 0.68371 0.0
H747 H 0.85587 0.74247 0.68811 0.0
H748 H 0.83004 0.76029 0.68905 0.0
H749 H 0.91535 0.79339 0.78804 0.0
H750 H 0.92259 0.76791 0.7662 0.0
H751 H 0.92592 0.79878 0.75861 0.0
H752 H 0.93276 0.71985 0.69102 0.0
H753 H 0.94166 0.79538 0.67628 0.0
H754 H 0.87699 0.71954 0.71783 0.0
H755 H 0.89961 0.72899 0.74354 0.0
H756 H 0.9054 0.70557 0.71873 0.0
H757 H 0.88868 0.81297 0.69988 0.0
H758 H 0.92082 0.82618 0.69753 0.0
H759 H 0.90989 0.82065 0.72678 0.0
C760 C 0.0209 0.92414 0.54016 0.0
C761 C 0.03897 0.94289 0.55327 0.0
C762 C 0.01697 0.90016 0.54687 0.0
C763 C 0.03146 0.89498 0.56721 0.0
C764 C 0.04976 0.91405 0.58045 0.0
C765 C 0.05328 0.93781 0.57329 0.0
C766 C 0.99735 0.88036 0.53223 0.0
C767 C 0.06562 0.90936 0.60217 0.0
C768 C 0.00678 0.8386 0.59679 0.0
C769 C 0.02038 0.8203 0.58581 0.0
C770 C 0.01037 0.86306 0.59115 0.0
C771 C 0.02799 0.86943 0.57416 0.0
C772 C 0.04218 0.85124 0.5635 0.0
C773 C 0.03823 0.827 0.56944 0.0
C774 C 0.99494 0.88197 0.60299 0.0
C775 C 0.06128 0.85723 0.54544 0.0
H776 H 0.00975 0.92828 0.52477 0.0
H777 H 0.06713 0.95252 0.58349 0.0
H778 H 0.00627 0.86418 0.52421 0.0
H779 H 0.98325 0.8734 0.54442 0.0
H780 H 0.98747 0.88745 0.51715 0.0
H781 H 0.0788 0.92625 0.6107 0.0
H782 H 0.05336 0.90319 0.61625 0.0
H783 H 0.07669 0.89408 0.59637 0.0
H784 H 0.99293 0.83369 0.60941 0.0
H785 H 0.04898 0.81314 0.56088 0.0
H786 H 0.98302 0.88807 0.5887 0.0
H787 H 0.00748 0.89882 0.61256 0.0
H788 H 0.98262 0.87437 0.6164 0.0
H789 H 0.05182 0.86262 0.52913 0.0
H790 H 0.07125 0.84118 0.53924 0.0
H791 H 0.07539 0.8734 0.55383 0.0
C792 C 0.13829 0.69086 0.716 0.0
C793 C 0.15839 0.70896 0.72642 0.0
C794 C 0.11755 0.69753 0.70337 0.0
C795 C 0.11701 0.72295 0.70113 0.0
C796 C 0.13666 0.74147 0.71305 0.0
C797 C 0.15728 0.7342 0.72547 0.0
C798 C 0.09714 0.67715 0.69091 0.0
C799 C 0.13672 0.76876 0.71134 0.0
C800 C 0.0848 0.73302 0.64143 0.0
C801 C 0.06095 0.73771 0.6483 0.0
C802 C 0.10326 0.72884 0.65858 0.0
C803 C 0.09797 0.72948 0.68343 0.0
C804 C 0.07426 0.73497 0.69076 0.0
C805 C 0.05599 0.73896 0.67309 0.0
C806 C 0.12824 0.72301 0.64988 0.0
C807 C 0.06801 0.73602 0.71712 0.0
H808 H 0.13936 0.6713 0.71668 0.0
H809 H 0.17301 0.74813 0.73347 0.0
H810 H 0.07832 0.6821 0.69488 0.0
H811 H 0.09828 0.67509 0.67075 0.0
H812 H 0.0988 0.65883 0.69675 0.0
H813 H 0.15104 0.78103 0.72462 0.0
H814 H 0.1409 0.77202 0.69257 0.0
H815 H 0.11798 0.77426 0.71471 0.0
H816 H 0.08904 0.73212 0.62242 0.0
H817 H 0.03769 0.74263 0.67866 0.0
H818 H 0.13095 0.70393 0.65299 0.0
H819 H 0.14382 0.73629 0.66053 0.0
H820 H 0.12969 0.72403 0.63009 0.0
H821 H 0.06732 0.71717 0.72239 0.0
H822 H 0.04965 0.74259 0.72026 0.0
H823 H 0.08289 0.74867 0.72941 0.0
C824 C 0.98119 0.56451 0.52009 0.0
C825 C 0.97044 0.56242 0.49608 0.0
C826 C 0.98597 0.58779 0.53555 0.0
C827 C 0.97909 0.6093 0.52701 0.0
C828 C 0.96888 0.60732 0.50251 0.0
C829 C 0.96495 0.58394 0.48727 0.0
C830 C 0.99754 0.5892 0.56128 0.0
C831 C 0.9608 0.62962 0.4928 0.0
C832 C 0.96133 0.66128 0.57369 0.0
C833 C 0.98184 0.68018 0.57438 0.0
C834 C 0.96032 0.6381 0.55849 0.0
C835 C 0.98067 0.6334 0.54414 0.0
C836 C 0.00191 0.65209 0.54552 0.0
C837 C 0.00208 0.6754 0.56036 0.0
C838 C 0.93709 0.61893 0.55721 0.0
C839 C 0.02431 0.64754 0.53113 0.0
H840 H 0.98544 0.54783 0.52687 0.0
H841 H 0.95634 0.58224 0.4688 0.0
H842 H 0.01332 0.60487 0.56544 0.0
H843 H 0.98334 0.5929 0.57463 0.0
H844 H 0.00462 0.57159 0.56408 0.0
H845 H 0.9543 0.62524 0.47302 0.0
H846 H 0.94526 0.63612 0.50323 0.0
H847 H 0.97654 0.64534 0.49543 0.0
H848 H 0.94559 0.66494 0.58439 0.0
H849 H 0.01814 0.68979 0.5611 0.0
H850 H 0.94219 0.60128 0.56228 0.0
H851 H 0.92834 0.61453 0.53814 0.0
H852 H 0.92292 0.62548 0.56955 0.0
H853 H 0.03106 0.63008 0.5349 0.0
H854 H 0.04008 0.66323 0.53561 0.0
H855 H 0.0188 0.64499 0.5112 0.0
C856 C 0.80069 0.89774 0.24794 0.0
C857 C 0.80262 0.87563 0.23197 0.0
C858 C 0.81984 0.91831 0.25108 0.0
C859 C 0.84102 0.91723 0.23714 0.0
C860 C 0.84238 0.8957 0.21981 0.0
C861 C 0.82344 0.87499 0.21777 0.0
C862 C 0.81797 0.94069 0.27019 0.0
C863 C 0.86433 0.89415 0.20406 0.0
C864 C 0.88395 0.97835 0.23627 0.0
C865 C 0.90401 0.97611 0.25257 0.0
C866 C 0.86346 0.95906 0.23058 0.0
C867 C 0.86273 0.93765 0.24228 0.0
C868 C 0.88277 0.9357 0.25921 0.0
C869 C 0.90341 0.95476 0.26378 0.0
C870 C 0.84288 0.96134 0.21177 0.0
C871 C 0.88233 0.9136 0.27271 0.0
H872 H 0.78441 0.89885 0.25849 0.0
H873 H 0.8255 0.85806 0.20558 0.0
H874 H 0.83347 0.94279 0.28475 0.0
H875 H 0.82009 0.95805 0.26193 0.0
H876 H 0.79981 0.93899 0.27885 0.0
H877 H 0.86084 0.87777 0.18914 0.0
H878 H 0.86836 0.9114 0.19577 0.0
H879 H 0.88138 0.89258 0.21555 0.0
H880 H 0.88465 0.99485 0.22748 0.0
H881 H 0.91893 0.95323 0.27654 0.0
H882 H 0.82461 0.96078 0.22012 0.0
H883 H 0.84099 0.94524 0.19662 0.0
H884 H 0.84658 0.97892 0.20393 0.0
H885 H 0.86497 0.91141 0.28258 0.0
H886 H 0.89883 0.91559 0.28618 0.0
H887 H 0.88209 0.89619 0.25948 0.0
C888 C 0.77239 0.13716 0.27583 0.0
C889 C 0.77381 0.16168 0.28838 0.0
C890 C 0.79351 0.12459 0.27524 0.0
C891 C 0.81662 0.1367 0.28768 0.0
C892 C 0.81798 0.16112 0.30103 0.0
C893 C 0.79667 0.17334 0.30108 0.0
C894 C 0.7913 0.09862 0.26068 0.0
C895 C 0.84221 0.17469 0.3146 0.0
C896 C 0.86907 0.09832 0.29888 0.0
C897 C 0.88444 0.10297 0.2799 0.0
C898 C 0.84691 0.10916 0.30172 0.0
C899 C 0.83985 0.12476 0.28504 0.0
C900 C 0.85523 0.12934 0.26579 0.0
C901 C 0.87732 0.11853 0.26355 0.0
C902 C 0.83114 0.10408 0.32264 0.0
C903 C 0.84832 0.14566 0.24746 0.0
H904 H 0.75476 0.12779 0.2663 0.0
H905 H 0.79818 0.19239 0.31054 0.0
H906 H 0.80344 0.09889 0.24511 0.0
H907 H 0.79797 0.08559 0.27228 0.0
H908 H 0.77169 0.0912 0.25327 0.0
H909 H 0.83959 0.1926 0.32593 0.0
H910 H 0.85012 0.16276 0.32671 0.0
H911 H 0.85627 0.17877 0.30128 0.0
H912 H 0.87443 0.08634 0.3116 0.0
H913 H 0.88894 0.12215 0.24872 0.0
H914 H 0.81183 0.09542 0.31543 0.0
H915 H 0.82957 0.12194 0.33457 0.0
H916 H 0.83915 0.09151 0.334 0.0
H917 H 0.82945 0.13813 0.23819 0.0
H918 H 0.86204 0.14696 0.23325 0.0
H919 H 0.84734 0.1648 0.25703 0.0
C920 C 0.40935 0.95869 0.97392 0.0
C921 C 0.41199 0.98445 0.98283 0.0
C922 C 0.38976 0.94188 0.9805 0.0
C923 C 0.37283 0.95075 0.99726 0.0
C924 C 0.37583 0.9765 0.00711 0.0
C925 C 0.39504 0.99308 0.99946 0.0
C926 C 0.38698 0.91463 0.9692 0.0
C927 C 0.35867 0.98656 0.02562 0.0
C928 C 0.30937 0.91014 0.99606 0.0
C929 C 0.31418 0.89516 0.0137 0.0
C930 C 0.32814 0.92871 0.99084 0.0
C931 C 0.35194 0.93293 0.00422 0.0
C932 C 0.35631 0.91878 0.02308 0.0
C933 C 0.33754 0.89971 0.02724 0.0
C934 C 0.32295 0.94282 0.9701 0.0
C935 C 0.38104 0.92331 0.03841 0.0
H936 H 0.4226 0.95151 0.96166 0.0
H937 H 0.39642 0.01288 0.00628 0.0
H938 H 0.38927 0.90297 0.9837 0.0
H939 H 0.36785 0.9085 0.95998 0.0
H940 H 0.40097 0.91095 0.95557 0.0
H941 H 0.36465 0.00669 0.03293 0.0
H942 H 0.33921 0.98421 0.01708 0.0
H943 H 0.3582 0.97587 0.04118 0.0
H944 H 0.29137 0.90644 0.98542 0.0
H945 H 0.34118 0.88821 0.04102 0.0
H946 H 0.33553 0.93832 0.95534 0.0
H947 H 0.32702 0.96326 0.97651 0.0
H948 H 0.30316 0.93811 0.96219 0.0
H949 H 0.39606 0.91731 0.02694 0.0
H950 H 0.38033 0.91292 0.0542 0.0
H951 H 0.3864 0.94355 0.04544 0.0
C952 C 0.22887 0.33614 0.25588 0.0
C953 C 0.25081 0.33836 0.27127 0.0
C954 C 0.2191 0.35748 0.25055 0.0
C955 C 0.2316 0.38156 0.26099 0.0
C956 C 0.25412 0.38378 0.27621 0.0
C957 C 0.26342 0.36209 0.28124 0.0
C958 C 0.19512 0.35424 0.23422 0.0
C959 C 0.26809 0.40906 0.2876 0.0
C960 C 0.21986 0.43834 0.23219 0.0
C961 C 0.20369 0.44952 0.24816 0.0
C962 C 0.22865 0.41604 0.23588 0.0
C963 C 0.22114 0.40445 0.25604 0.0
C964 C 0.2042 0.41512 0.2718 0.0
C965 C 0.19566 0.43749 0.26767 0.0
C966 C 0.24655 0.40526 0.21855 0.0
C967 C 0.19562 0.40325 0.29343 0.0
H968 H 0.21899 0.31767 0.2485 0.0
H969 H 0.28022 0.36367 0.29344 0.0
H970 H 0.18034 0.36237 0.24461 0.0
H971 H 0.19817 0.36446 0.21851 0.0
H972 H 0.18811 0.33428 0.227 0.0
H973 H 0.2856 0.4076 0.29853 0.0
H974 H 0.27303 0.42046 0.2731 0.0
H975 H 0.25586 0.41925 0.29975 0.0
H976 H 0.22615 0.44729 0.21696 0.0
H977 H 0.18324 0.44591 0.28016 0.0
H978 H 0.23915 0.38554 0.21085 0.0
H979 H 0.26491 0.40531 0.22869 0.0
H980 H 0.24975 0.41595 0.20315 0.0
H981 H 0.18724 0.38346 0.28726 0.0
H982 H 0.18157 0.41319 0.3033 0.0
H983 H 0.21201 0.40328 0.30649 0.0
C984 C 0.12194 0.06098 0.53336 0.0
C985 C 0.11401 0.04468 0.51138 0.0
C986 C 0.14431 0.07797 0.53547 0.0
C987 C 0.15901 0.07886 0.51505 0.0
C988 C 0.15168 0.06175 0.49319 0.0
C989 C 0.12939 0.04479 0.49168 0.0
C990 C 0.15162 0.09574 0.5592 0.0
C991 C 0.16675 0.06208 0.47098 0.0
C992 C 0.19716 0.14159 0.51067 0.0
C993 C 0.22154 0.13817 0.51833 0.0
C994 C 0.17681 0.12232 0.50922 0.0
C995 C 0.18079 0.09906 0.51586 0.0
C996 C 0.20538 0.09532 0.52334 0.0
C997 C 0.2255 0.11487 0.52435 0.0
C998 C 0.15096 0.12698 0.50079 0.0
C999 C 0.21033 0.07085 0.53075 0.0
H1000 H 0.11015 0.06122 0.54863 0.0
H1001 H 0.1237 0.03192 0.47479 0.0
H1002 H 0.17156 0.09558 0.56527 0.0
H1003 H 0.14975 0.11508 0.55633 0.0
H1004 H 0.1397 0.09098 0.57408 0.0
H1005 H 0.15959 0.04634 0.45604 0.0
H1006 H 0.16604 0.07991 0.46384 0.0
H1007 H 0.18677 0.06113 0.47603 0.0
H1008 H 0.19389 0.15943 0.50583 0.0
H1009 H 0.24423 0.11208 0.53043 0.0
H1010 H 0.13806 0.12509 0.51559 0.0
H1011 H 0.14313 0.11281 0.48473 0.0
H1012 H 0.15114 0.14588 0.49565 0.0
H1013 H 0.19968 0.06728 0.54678 0.0
H1014 H 0.23059 0.0707 0.53558 0.0
H1015 H 0.20364 0.0552 0.51563 0.0
C1016 C 0.78343 0.18632 0.73116 0.0
C1017 C 0.8074 0.18174 0.73895 0.0
C1018 C 0.76234 0.16765 0.72934 0.0
C1019 C 0.76517 0.1442 0.73623 0.0
C1020 C 0.78943 0.13914 0.74303 0.0
C1021 C 0.81021 0.1577 0.7437 0.0
C1022 C 0.73695 0.17339 0.72093 0.0
C1023 C 0.79338 0.11452 0.75084 0.0
C1024 C 0.71346 0.10646 0.76455 0.0
C1025 C 0.70775 0.08503 0.74677 0.0
C1026 C 0.73126 0.12653 0.76085 0.0
C1027 C 0.74289 0.12549 0.73841 0.0
C1028 C 0.73546 0.10477 0.71956 0.0
C1029 C 0.71837 0.08449 0.72417 0.0
C1030 C 0.73906 0.1479 0.7817 0.0
C1031 C 0.74647 0.10347 0.69496 0.0
H1032 H 0.78091 0.20472 0.72733 0.0
H1033 H 0.82872 0.15352 0.74873 0.0
H1034 H 0.72643 0.15726 0.70814 0.0
H1035 H 0.72572 0.17694 0.73696 0.0
H1036 H 0.73861 0.19016 0.71166 0.0
H1037 H 0.81348 0.11364 0.75575 0.0
H1038 H 0.7826 0.11164 0.76698 0.0
H1039 H 0.78628 0.09882 0.73592 0.0
H1040 H 0.70532 0.1068 0.78208 0.0
H1041 H 0.71362 0.06806 0.71024 0.0
H1042 H 0.73803 0.16606 0.77536 0.0
H1043 H 0.75888 0.14784 0.78831 0.0
H1044 H 0.72715 0.14665 0.79737 0.0
H1045 H 0.74757 0.12179 0.68845 0.0
H1046 H 0.73523 0.08893 0.68092 0.0
H1047 H 0.76585 0.09888 0.69669 0.0
C1048 C 0.438 0.04533 0.49835 0.0
C1049 C 0.4535 0.04575 0.51956 0.0
C1050 C 0.41944 0.061 0.49814 0.0
C1051 C 0.41635 0.07746 0.51976 0.0
C1052 C 0.43157 0.07734 0.5415 0.0
C1053 C 0.45012 0.06148 0.54111 0.0
C1054 C 0.40377 0.0606 0.47456 0.0
C1055 C 0.42876 0.09449 0.56493 0.0
C1056 C 0.39005 0.13723 0.51239 0.0
C1057 C 0.36491 0.13142 0.51754 0.0
C1058 C 0.40687 0.11981 0.51297 0.0
C1059 C 0.39846 0.09597 0.51905 0.0
C1060 C 0.37303 0.08984 0.52401 0.0
C1061 C 0.35651 0.1076 0.52308 0.0
C1062 C 0.43372 0.127 0.5072 0.0
C1063 C 0.36338 0.06465 0.53063 0.0
H1064 H 0.44082 0.03311 0.48168 0.0
H1065 H 0.46226 0.06172 0.55747 0.0
H1066 H 0.38349 0.05772 0.47766 0.0
H1067 H 0.40791 0.07889 0.46813 0.0
H1068 H 0.40746 0.04566 0.45981 0.0
H1069 H 0.44068 0.09082 0.58064 0.0
H1070 H 0.43408 0.11422 0.56242 0.0
H1071 H 0.40887 0.09229 0.56951 0.0
H1072 H 0.39671 0.15555 0.50802 0.0
H1073 H 0.33716 0.103 0.52723 0.0
H1074 H 0.43839 0.11364 0.49153 0.0
H1075 H 0.44673 0.12597 0.52315 0.0
H1076 H 0.43722 0.14618 0.50256 0.0
H1077 H 0.36627 0.04955 0.51572 0.0
H1078 H 0.3431 0.06274 0.53391 0.0
H1079 H 0.37414 0.06178 0.54741 0.0
C1080 C 0.60606 0.47522 0.54932 0.0
C1081 C 0.58392 0.4673 0.53401 0.0
C1082 C 0.62593 0.46099 0.54837 0.0
C1083 C 0.62354 0.43825 0.53177 0.0
C1084 C 0.60142 0.43041 0.51595 0.0
C1085 C 0.58189 0.445 0.51728 0.0
C1086 C 0.64926 0.47001 0.56547 0.0
C1087 C 0.59807 0.40621 0.49811 0.0
C1088 C 0.68106 0.40704 0.51656 0.0
C1089 C 0.67941 0.38872 0.53188 0.0
C1090 C 0.66322 0.42359 0.51653 0.0
C1091 C 0.64329 0.42171 0.53215 0.0
C1092 C 0.6417 0.40342 0.54779 0.0
C1093 C 0.65974 0.38719 0.54747 0.0
C1094 C 0.66552 0.44291 0.49964 0.0
C1095 C 0.62073 0.40077 0.56472 0.0
H1096 H 0.60787 0.49261 0.56205 0.0
H1097 H 0.56472 0.4386 0.5056 0.0
H1098 H 0.65118 0.45667 0.57848 0.0
H1099 H 0.66621 0.47075 0.55493 0.0
H1100 H 0.64884 0.48883 0.57617 0.0
H1101 H 0.58042 0.40355 0.48605 0.0
H1102 H 0.61416 0.40571 0.48645 0.0
H1103 H 0.59769 0.39022 0.50835 0.0
H1104 H 0.69623 0.40838 0.50451 0.0
H1105 H 0.6583 0.37316 0.55944 0.0
H1106 H 0.66624 0.46189 0.51035 0.0
H1107 H 0.64872 0.43967 0.48641 0.0
H1108 H 0.68255 0.44249 0.4892 0.0
H1109 H 0.62063 0.41871 0.57709 0.0
H1110 H 0.62247 0.3859 0.5761 0.0
H1111 H 0.60232 0.39627 0.55382 0.0
C1112 C 0.72122 0.21523 0.35241 0.0
C1113 C 0.72335 0.22363 0.32982 0.0
C1114 C 0.7226 0.2322 0.37427 0.0
C1115 C 0.72658 0.25822 0.37352 0.0
C1116 C 0.72708 0.26676 0.35058 0.0
C1117 C 0.72534 0.24929 0.32891 0.0
C1118 C 0.72154 0.22226 0.39829 0.0
C1119 C 0.73133 0.2943 0.34898 0.0
C1120 C 0.72161 0.29923 0.43448 0.0
C1121 C 0.74646 0.30233 0.44474 0.0
C1122 C 0.7149 0.28602 0.41066 0.0
C1123 C 0.73357 0.27601 0.39679 0.0
C1124 C 0.75896 0.28072 0.40645 0.0
C1125 C 0.76505 0.29365 0.43033 0.0
C1126 C 0.68765 0.28139 0.40103 0.0
C1127 C 0.77955 0.27081 0.39211 0.0
H1128 H 0.71949 0.19535 0.35303 0.0
H1129 H 0.72713 0.25575 0.3114 0.0
H1130 H 0.74045 0.22634 0.40826 0.0
H1131 H 0.70848 0.23161 0.4101 0.0
H1132 H 0.71539 0.20174 0.39559 0.0
H1133 H 0.72704 0.29786 0.33005 0.0
H1134 H 0.71962 0.30464 0.36159 0.0
H1135 H 0.75128 0.30198 0.35466 0.0
H1136 H 0.70715 0.30588 0.44554 0.0
H1137 H 0.78434 0.29629 0.43804 0.0
H1138 H 0.67987 0.26158 0.40132 0.0
H1139 H 0.68573 0.28461 0.38173 0.0
H1140 H 0.67619 0.29352 0.41222 0.0
H1141 H 0.77701 0.25011 0.39024 0.0
H1142 H 0.79856 0.2783 0.40114 0.0
H1143 H 0.77858 0.27567 0.37336 0.0
C1144 C 0.51189 0.03429 0.87787 0.0
C1145 C 0.51059 0.01948 0.8964 0.0
C1146 C 0.53281 0.03597 0.86375 0.0
C1147 C 0.55273 0.02236 0.86828 0.0
C1148 C 0.55159 0.00777 0.88743 0.0
C1149 C 0.53043 0.00647 0.90126 0.0
C1150 C 0.53332 0.05181 0.84361 0.0
C1151 C 0.57241 0.99306 0.89291 0.0
C1152 C 0.59455 0.00712 0.81626 0.0
C1153 C 0.61558 0.02558 0.82283 0.0
C1154 C 0.57406 0.00571 0.83099 0.0
C1155 C 0.57458 0.02318 0.85279 0.0
C1156 C 0.59586 0.04167 0.85962 0.0
C1157 C 0.61606 0.04263 0.84461 0.0
C1158 C 0.55175 0.98565 0.82312 0.0
C1159 C 0.59719 0.06064 0.88269 0.0
H1160 H 0.49628 0.04408 0.87402 0.0
H1161 H 0.52913 0.99477 0.91546 0.0
H1162 H 0.55062 0.06576 0.84626 0.0
H1163 H 0.53373 0.03984 0.82561 0.0
H1164 H 0.51675 0.06184 0.84295 0.0
H1165 H 0.56906 0.98332 0.90893 0.0
H1166 H 0.57418 0.97891 0.87672 0.0
H1167 H 0.59063 0.00564 0.89661 0.0
H1168 H 0.59399 0.99387 0.7995 0.0
H1169 H 0.63219 0.05697 0.8499 0.0
H1170 H 0.53463 0.99438 0.8202 0.0
H1171 H 0.54833 0.97407 0.83778 0.0
H1172 H 0.55442 0.97321 0.80594 0.0
H1173 H 0.58157 0.07184 0.88172 0.0
H1174 H 0.61525 0.07357 0.88564 0.0
H1175 H 0.59491 0.05097 0.89886 0.0
C1176 C 0.28987 0.2288 0.34143 0.0
C1177 C 0.30939 0.24778 0.33886 0.0
C1178 C 0.28877 0.21799 0.3629 0.0
C1179 C 0.30743 0.22665 0.38249 0.0
C1180 C 0.32803 0.24473 0.37937 0.0
C1181 C 0.32885 0.25496 0.3575 0.0
C1182 C 0.26671 0.19849 0.36522 0.0
C1183 C 0.34821 0.25467 0.39981 0.0
C1184 C 0.28482 0.22797 0.44639 0.0
C1185 C 0.29452 0.20777 0.45451 0.0
C1186 C 0.28911 0.23425 0.42318 0.0
C1187 C 0.30325 0.21986 0.40728 0.0
C1188 C 0.31294 0.19924 0.41511 0.0
C1189 C 0.3086 0.19352 0.43872 0.0
C1190 C 0.27854 0.25651 0.41575 0.0
C1191 C 0.32781 0.18325 0.39854 0.0
H1192 H 0.27496 0.22298 0.32689 0.0
H1193 H 0.34393 0.26968 0.35559 0.0
H1194 H 0.27309 0.18274 0.37317 0.0
H1195 H 0.25371 0.20688 0.37782 0.0
H1196 H 0.2561 0.19099 0.34726 0.0
H1197 H 0.36455 0.266 0.39344 0.0
H1198 H 0.34031 0.26663 0.41462 0.0
H1199 H 0.35486 0.23913 0.40788 0.0
H1200 H 0.27404 0.23929 0.45835 0.0
H1201 H 0.31618 0.17789 0.44475 0.0
H1202 H 0.26532 0.25043 0.39918 0.0
H1203 H 0.29392 0.27022 0.41101 0.0
H1204 H 0.26841 0.2661 0.43047 0.0
H1205 H 0.31635 0.17522 0.38118 0.0
H1206 H 0.33382 0.16773 0.40719 0.0
H1207 H 0.34475 0.19489 0.39367 0.0
C1208 C 0.5087 0.51849 0.94908 0.0
C1209 C 0.53417 0.51523 0.94945 0.0
C1210 C 0.49552 0.5219 0.92744 0.0
C1211 C 0.50823 0.52276 0.90577 0.0
C1212 C 0.53392 0.5197 0.90605 0.0
C1213 C 0.54638 0.51555 0.92767 0.0
C1214 C 0.46798 0.52444 0.92771 0.0
C1215 C 0.54832 0.52077 0.88345 0.0
C1216 C 0.47654 0.50825 0.84134 0.0
C1217 C 0.47685 0.53221 0.83514 0.0
C1218 C 0.48496 0.50496 0.86493 0.0
C1219 C 0.49478 0.52615 0.88248 0.0
C1220 C 0.49412 0.55045 0.87662 0.0
C1221 C 0.4848 0.55319 0.85306 0.0
C1222 C 0.48455 0.47875 0.87062 0.0
C1223 C 0.50492 0.57351 0.89459 0.0
H1224 H 0.49904 0.51867 0.96575 0.0
H1225 H 0.56581 0.51243 0.92738 0.0
H1226 H 0.46487 0.54283 0.92294 0.0
H1227 H 0.4569 0.50985 0.91365 0.0
H1228 H 0.46065 0.52271 0.94586 0.0
H1229 H 0.56858 0.51965 0.88712 0.0
H1230 H 0.54027 0.50509 0.86883 0.0
H1231 H 0.54661 0.53842 0.87628 0.0
H1232 H 0.47025 0.49201 0.82748 0.0
H1233 H 0.48528 0.57171 0.84817 0.0
H1234 H 0.47687 0.47725 0.88863 0.0
H1235 H 0.504 0.47424 0.87177 0.0
H1236 H 0.47313 0.46459 0.85636 0.0
H1237 H 0.49744 0.57273 0.91278 0.0
H1238 H 0.50076 0.59095 0.88821 0.0
H1239 H 0.52562 0.57438 0.89712 0.0
C1240 C 0.75791 0.80126 0.16297 0.0
C1241 C 0.75554 0.79444 0.18635 0.0
C1242 C 0.76028 0.78348 0.14246 0.0
C1243 C 0.75885 0.75796 0.14499 0.0
C1244 C 0.75369 0.75056 0.16786 0.0
C1245 C 0.75262 0.76889 0.18837 0.0
C1246 C 0.76624 0.79231 0.11854 0.0
C1247 C 0.75078 0.72341 0.17105 0.0
C1248 C 0.75536 0.71316 0.08475 0.0
C1249 C 0.78032 0.70873 0.08392 0.0
C1250 C 0.74765 0.72801 0.1052 0.0
C1251 C 0.76568 0.73966 0.12455 0.0
C1252 C 0.7909 0.73498 0.12375 0.0
C1253 C 0.79776 0.7191 0.10366 0.0
C1254 C 0.72037 0.73151 0.10591 0.0
C1255 C 0.81092 0.74762 0.14355 0.0
H1256 H 0.75912 0.82074 0.16083 0.0
H1257 H 0.7508 0.76314 0.20616 0.0
H1258 H 0.78533 0.78854 0.11402 0.0
H1259 H 0.75285 0.78192 0.10336 0.0
H1260 H 0.76561 0.81264 0.1193 0.0
H1261 H 0.74196 0.72032 0.18824 0.0
H1262 H 0.7392 0.71151 0.1553 0.0
H1263 H 0.76951 0.71716 0.17175 0.0
H1264 H 0.74187 0.70491 0.06947 0.0
H1265 H 0.81711 0.71577 0.10281 0.0
H1266 H 0.71822 0.75081 0.10317 0.0
H1267 H 0.71359 0.72893 0.12408 0.0
H1268 H 0.70823 0.71823 0.09146 0.0
H1269 H 0.8122 0.76823 0.145 0.0
H1270 H 0.82971 0.7423 0.13993 0.0
H1271 H 0.8059 0.74268 0.16156 0.0
C1272 C 0.00391 0.00263 0.10076 0.0
C1273 C 0.02772 0.01383 0.09597 0.0
C1274 C 0.99483 0.0077 0.12402 0.0
C1275 C 0.00973 0.0248 0.14275 0.0
C1276 C 0.03388 0.03606 0.13801 0.0
C1277 C 0.04269 0.03023 0.11471 0.0
C1278 C 0.96921 0.99494 0.12849 0.0
C1279 C 0.05011 0.05475 0.15734 0.0
C1280 C 0.97483 0.05674 0.19338 0.0
C1281 C 0.97956 0.04366 0.21271 0.0
C1282 C 0.98492 0.05108 0.17069 0.0
C1283 C 0.99968 0.0315 0.16703 0.0
C1284 C 0.00448 0.01817 0.18642 0.0
C1285 C 0.99461 0.02461 0.20913 0.0
C1286 C 0.97977 0.06608 0.15064 0.0
C1287 C 0.01974 0.99686 0.18307 0.0
H1288 H 0.99244 0.98978 0.08628 0.0
H1289 H 0.06103 0.03903 0.1109 0.0
H1290 H 0.9706 0.98521 0.14462 0.0
H1291 H 0.95646 0.00908 0.13268 0.0
H1292 H 0.9606 0.98112 0.11242 0.0
H1293 H 0.06858 0.06152 0.15084 0.0
H1294 H 0.04029 0.07106 0.16279 0.0
H1295 H 0.05343 0.04626 0.174 0.0
H1296 H 0.96341 0.07165 0.19605 0.0
H1297 H 0.99837 0.0144 0.22386 0.0
H1298 H 0.96921 0.05366 0.13461 0.0
H1299 H 0.99775 0.07441 0.14434 0.0
H1300 H 0.96875 0.08134 0.15675 0.0
H1301 H 0.01076 0.98221 0.16786 0.0
H1302 H 0.02164 0.98825 0.19991 0.0
H1303 H 0.0388 0.00358 0.17794 0.0
C1304 C 0.29126 0.77851 0.17672 0.0
C1305 C 0.31666 0.78648 0.18406 0.0
C1306 C 0.28006 0.78651 0.15629 0.0
C1307 C 0.29474 0.80283 0.14316 0.0
C1308 C 0.32049 0.81078 0.15067 0.0
C1309 C 0.33113 0.80248 0.17109 0.0
C1310 C 0.25258 0.77761 0.14877 0.0
C1311 C 0.33679 0.82812 0.1372 0.0
C1312 C 0.27417 0.80651 0.07722 0.0
C1313 C 0.26362 0.82877 0.07981 0.0
C1314 C 0.28405 0.7977 0.09771 0.0
C1315 C 0.28339 0.81147 0.1214 0.0
C1316 C 0.27274 0.83394 0.12418 0.0
C1317 C 0.26295 0.84231 0.10335 0.0
C1318 C 0.29527 0.77367 0.09398 0.0
C1319 C 0.2718 0.84919 0.14916 0.0
H1320 H 0.28019 0.76616 0.18699 0.0
H1321 H 0.35082 0.80862 0.17702 0.0
H1322 H 0.24224 0.79387 0.14928 0.0
H1323 H 0.25031 0.76757 0.12963 0.0
H1324 H 0.24383 0.76494 0.16086 0.0
H1325 H 0.35645 0.83259 0.14547 0.0
H1326 H 0.33702 0.81948 0.11776 0.0
H1327 H 0.32889 0.84585 0.13729 0.0
H1328 H 0.2745 0.79575 0.05916 0.0
H1329 H 0.25473 0.85947 0.10551 0.0
H1330 H 0.2856 0.76012 0.10468 0.0
H1331 H 0.31538 0.77736 0.10085 0.0
H1332 H 0.29385 0.76491 0.0744 0.0
H1333 H 0.26162 0.83753 0.16129 0.0
H1334 H 0.2624 0.86593 0.14826 0.0
H1335 H 0.29115 0.85541 0.1578 0.0
C1336 C 0.05261 0.51951 0.09375 0.0
C1337 C 0.0366 0.49671 0.08718 0.0
C1338 C 0.06861 0.52424 0.11542 0.0
C1339 C 0.06877 0.50564 0.13071 0.0
C1340 C 0.05113 0.48352 0.1252 0.0
C1341 C 0.03513 0.47945 0.10365 0.0
C1342 C 0.08672 0.54833 0.1209 0.0
C1343 C 0.0506 0.46315 0.14091 0.0
C1344 C 0.13193 0.50118 0.16256 0.0
C1345 C 0.12932 0.51159 0.18689 0.0
C1346 C 0.11227 0.49893 0.1443 0.0
C1347 C 0.08945 0.50771 0.15033 0.0
C1348 C 0.0866 0.51814 0.17487 0.0
C1349 C 0.10649 0.51975 0.19292 0.0
C1350 C 0.11598 0.48722 0.11847 0.0
C1351 C 0.06274 0.52803 0.18195 0.0
H1352 H 0.05394 0.53294 0.08115 0.0
H1353 H 0.02244 0.46198 0.09893 0.0
H1354 H 0.08738 0.55645 0.14059 0.0
H1355 H 0.10591 0.54449 0.1169 0.0
H1356 H 0.08158 0.56238 0.10968 0.0
H1357 H 0.03375 0.44871 0.13603 0.0
H1358 H 0.0676 0.4539 0.13842 0.0
H1359 H 0.05093 0.47108 0.1606 0.0
H1360 H 0.14944 0.49469 0.15776 0.0
H1361 H 0.10439 0.52804 0.21163 0.0
H1362 H 0.11437 0.50095 0.1058 0.0
H1363 H 0.10108 0.47104 0.11221 0.0
H1364 H 0.13457 0.48071 0.11695 0.0
H1365 H 0.05972 0.54348 0.17173 0.0
H1366 H 0.06324 0.53508 0.20191 0.0
H1367 H 0.04633 0.51316 0.17685 0.0
C1368 C 0.39207 0.75033 0.30061 0.0
C1369 C 0.38146 0.72942 0.28352 0.0
C1370 C 0.41096 0.74852 0.31845 0.0
C1371 C 0.41945 0.72523 0.31923 0.0
C1372 C 0.4092 0.70417 0.30172 0.0
C1373 C 0.39031 0.70651 0.28407 0.0
C1374 C 0.42141 0.77141 0.33684 0.0
C1375 C 0.41788 0.67907 0.30191 0.0
C1376 C 0.48197 0.72706 0.35516 0.0
C1377 C 0.47423 0.72185 0.37791 0.0
C1378 C 0.46436 0.72761 0.33566 0.0
C1379 C 0.43838 0.72282 0.33898 0.0
C1380 C 0.43044 0.71682 0.36162 0.0
C1381 C 0.44843 0.7164 0.3808 0.0
C1382 C 0.47353 0.73399 0.31173 0.0
C1383 C 0.40288 0.71153 0.36582 0.0
H1384 H 0.38509 0.76799 0.30048 0.0
H1385 H 0.38239 0.69038 0.2707 0.0
H1386 H 0.41716 0.7681 0.35559 0.0
H1387 H 0.44215 0.77514 0.33663 0.0
H1388 H 0.41349 0.78832 0.33313 0.0
H1389 H 0.40874 0.66479 0.28643 0.0
H1390 H 0.43855 0.68086 0.30088 0.0
H1391 H 0.41362 0.6723 0.31936 0.0
H1392 H 0.50183 0.73124 0.35267 0.0
H1393 H 0.44221 0.71225 0.39823 0.0
H1394 H 0.4676 0.75193 0.30841 0.0
H1395 H 0.46499 0.71944 0.29626 0.0
H1396 H 0.49431 0.73576 0.31161 0.0
H1397 H 0.39389 0.72841 0.36444 0.0
H1398 H 0.39982 0.70602 0.38408 0.0
H1399 H 0.39322 0.69634 0.35147 0.0
C1400 C 0.04643 0.42378 0.01587 0.0
C1401 C 0.02422 0.4335 0.01084 0.0
C1402 C 0.04974 0.39966 0.00505 0.0
C1403 C 0.03055 0.38497 0.9885 0.0
C1404 C 0.00856 0.39504 0.9825 0.0
C1405 C 0.0056 0.41913 0.99383 0.0
C1406 C 0.07343 0.38958 0.012 0.0
C1407 C 0.98776 0.38003 0.96477 0.0
C1408 C 0.04689 0.32693 0.949 0.0
C1409 C 0.03759 0.30802 0.96213 0.0
C1410 C 0.04443 0.35207 0.95712 0.0
C1411 C 0.03267 0.35844 0.97902 0.0
C1412 C 0.02329 0.33945 0.99232 0.0
C1413 C 0.02575 0.31453 0.98367 0.0
C1414 C 0.0544 0.37179 0.94232 0.0
C1415 C 0.01085 0.3455 0.01589 0.0
H1416 H 0.0612 0.43496 0.02851 0.0
H1417 H 0.98833 0.4264 0.98993 0.0
H1418 H 0.06865 0.37338 0.02167 0.0
H1419 H 0.0826 0.38279 0.99532 0.0
H1420 H 0.08712 0.40384 0.02412 0.0
H1421 H 0.97303 0.39137 0.96026 0.0
H1422 H 0.99549 0.37234 0.94752 0.0
H1423 H 0.97883 0.36394 0.97284 0.0
H1424 H 0.05593 0.3221 0.93227 0.0
H1425 H 0.01858 0.30012 0.99403 0.0
H1426 H 0.06917 0.38559 0.95355 0.0
H1427 H 0.03911 0.38214 0.93711 0.0
H1428 H 0.06246 0.36371 0.92538 0.0
H1429 H 0.02417 0.35854 0.02951 0.0
H1430 H 0.00447 0.32854 0.02401 0.0
H1431 H 0.99437 0.35502 0.01252 0.0
C1432 C 0.68821 0.81832 0.3052 0.0
C1433 C 0.69846 0.80175 0.28815 0.0
C1434 C 0.66894 0.80963 0.31916 0.0
C1435 C 0.65972 0.78373 0.3158 0.0
C1436 C 0.66895 0.76717 0.2973 0.0
C1437 C 0.6885 0.7764 0.28377 0.0
C1438 C 0.65987 0.8279 0.33879 0.0
C1439 C 0.65932 0.73952 0.29291 0.0
C1440 C 0.63863 0.75921 0.37303 0.0
C1441 C 0.61247 0.75812 0.37009 0.0
C1442 C 0.65408 0.76709 0.35526 0.0
C1443 C 0.64312 0.7738 0.33381 0.0
C1444 C 0.61667 0.77229 0.33044 0.0
C1445 C 0.60164 0.76463 0.34873 0.0
C1446 C 0.68223 0.76874 0.35974 0.0
C1447 C 0.60433 0.77898 0.30766 0.0
H1448 H 0.69624 0.83794 0.3086 0.0
H1449 H 0.69671 0.76366 0.27062 0.0
H1450 H 0.63904 0.82543 0.33776 0.0
H1451 H 0.66641 0.82429 0.35712 0.0
H1452 H 0.66696 0.84763 0.3373 0.0
H1453 H 0.66544 0.72993 0.27556 0.0
H1454 H 0.66649 0.73089 0.30829 0.0
H1455 H 0.63849 0.73623 0.29224 0.0
H1456 H 0.64716 0.75424 0.38947 0.0
H1457 H 0.5814 0.76363 0.34625 0.0
H1458 H 0.69128 0.78834 0.36038 0.0
H1459 H 0.68979 0.75714 0.34446 0.0
H1460 H 0.68772 0.76243 0.37718 0.0
H1461 H 0.61014 0.79907 0.3068 0.0
H1462 H 0.58349 0.77531 0.3071 0.0
H1463 H 0.61057 0.76814 0.29106 0.0
C1464 C 0.05132 0.06918 0.98892 0.0
C1465 C 0.0278 0.05447 0.98358 0.0
C1466 C 0.0567 0.09162 0.97951 0.0
C1467 C 0.03801 0.09937 0.96454 0.0
C1468 C 0.01434 0.08414 0.95875 0.0
C1469 C 0.00951 0.0618 0.96843 0.0
C1470 C 0.08213 0.10734 0.98608 0.0
C1471 C 0.99394 0.09176 0.9429 0.0
C1472 C 0.04218 0.16889 0.96251 0.0
C1473 C 0.05278 0.17089 0.94016 0.0
C1474 C 0.03707 0.1457 0.97052 0.0
C1475 C 0.04281 0.12394 0.95588 0.0
C1476 C 0.05335 0.12577 0.93322 0.0
C1477 C 0.05822 0.14923 0.92562 0.0
C1478 C 0.02577 0.14452 0.99479 0.0
C1479 C 0.0597 0.10297 0.91712 0.0
H1480 H 0.06532 0.06335 1.0008 0.0
H1481 H 0.99127 0.05027 0.96451 0.0
H1482 H 0.09106 0.11127 0.9692 0.0
H1483 H 0.0799 0.1256 0.99691 0.0
H1484 H 0.09496 0.0981 0.99694 0.0
H1485 H 0.97705 0.07724 0.93917 0.0
H1486 H 0.98825 0.10939 0.95208 0.0
H1487 H 1.00108 0.09543 0.92516 0.0
H1488 H 0.03813 0.18553 0.97399 0.0
H1489 H 0.06645 0.15061 0.90834 0.0
H1490 H 0.03871 0.13732 0.0074 0.0
H1491 H 0.0079 0.13135 0.99211 0.0
H1492 H 0.02195 0.16308 0.00375 0.0
H1493 H 0.07372 0.09435 0.92717 0.0
H1494 H 0.06743 0.10748 0.89984 0.0
H1495 H 0.04268 0.08878 0.91244 0.0
C1496 C 0.34201 0.27441 0.2412 0.0
C1497 C 0.34754 0.28019 0.26667 0.0
C1498 C 0.36122 0.27246 0.22509 0.0
C1499 C 0.38667 0.2766 0.23461 0.0
C1500 C 0.39242 0.28363 0.26023 0.0
C1501 C 0.37281 0.28519 0.27594 0.0
C1502 C 0.35418 0.26471 0.19796 0.0
C1503 C 0.41926 0.28855 0.27114 0.0
C1504 C 0.43161 0.24159 0.19694 0.0
C1505 C 0.44296 0.25982 0.18404 0.0
C1506 C 0.41368 0.24699 0.2137 0.0
C1507 C 0.40697 0.27134 0.21799 0.0
C1508 C 0.41896 0.29012 0.2057 0.0
C1509 C 0.43673 0.28412 0.18879 0.0
C1510 C 0.40134 0.22634 0.22629 0.0
C1511 C 0.41259 0.31638 0.20999 0.0
H1512 H 0.32255 0.27024 0.23389 0.0
H1513 H 0.37724 0.28994 0.29558 0.0
H1514 H 0.36473 0.27787 0.18744 0.0
H1515 H 0.35939 0.24592 0.19188 0.0
H1516 H 0.33375 0.26399 0.19329 0.0
H1517 H 0.42073 0.29635 0.29098 0.0
H1518 H 0.42743 0.27085 0.26885 0.0
H1519 H 0.43081 0.30177 0.2614 0.0
H1520 H 0.43623 0.22276 0.1935 0.0
H1521 H 0.44539 0.29836 0.17898 0.0
H1522 H 0.38084 0.22281 0.22107 0.0
H1523 H 0.40385 0.23203 0.24648 0.0
H1524 H 0.40911 0.20858 0.22145 0.0
H1525 H 0.39274 0.31624 0.2034 0.0
H1526 H 0.42481 0.32926 0.20041 0.0
H1527 H 0.41448 0.32383 0.2299 0.0
C1528 C 0.55447 0.43971 0.06999 0.0
C1529 C 0.54187 0.44047 0.04738 0.0
C1530 C 0.55284 0.4173 0.07986 0.0
C1531 C 0.5381 0.39533 0.06682 0.0
C1532 C 0.52558 0.39615 0.0438 0.0
C1533 C 0.52764 0.41875 0.03437 0.0
C1534 C 0.56657 0.41719 0.10435 0.0
C1535 C 0.50969 0.37323 0.02926 0.0
C1536 C 0.54799 0.33008 0.07718 0.0
C1537 C 0.52744 0.32309 0.09053 0.0
C1538 C 0.55237 0.35394 0.07039 0.0
C1539 C 0.53575 0.37134 0.07695 0.0
C1540 C 0.5157 0.3649 0.09146 0.0
C1541 C 0.51183 0.34089 0.09817 0.0
C1542 C 0.57414 0.36008 0.05518 0.0
C1543 C 0.49755 0.38292 0.09886 0.0
H1544 H 0.56525 0.45671 0.08011 0.0
H1545 H 0.51769 0.41955 0.01699 0.0
H1546 H 0.5529 0.41212 0.11772 0.0
H1547 H 0.57936 0.40284 0.10258 0.0
H1548 H 0.57774 0.43563 0.11186 0.0
H1549 H 0.50123 0.37699 0.01166 0.0
H1550 H 0.52127 0.35802 0.0252 0.0
H1551 H 0.49434 0.36633 0.04021 0.0
H1552 H 0.56035 0.3166 0.07138 0.0
H1553 H 0.49591 0.33573 0.10845 0.0
H1554 H 0.58539 0.37828 0.06327 0.0
H1555 H 0.56689 0.36185 0.03646 0.0
H1556 H 0.58672 0.3455 0.05362 0.0
H1557 H 0.50791 0.4014 0.1074 0.0
H1558 H 0.48437 0.37602 0.11193 0.0
H1559 H 0.48641 0.3858 0.08232 0.0
C1560 C 0.65673 0.2293 0.22989 0.0
C1561 C 0.65735 0.20379 0.22968 0.0
C1562 C 0.63666 0.23748 0.2175 0.0
C1563 C 0.61708 0.21963 0.20443 0.0
C1564 C 0.6171 0.19389 0.20548 0.0
C1565 C 0.63729 0.18629 0.21811 0.0
C1566 C 0.63726 0.26508 0.21707 0.0
C1567 C 0.59674 0.1742 0.19177 0.0
C1568 C 0.55725 0.23765 0.17607 0.0
C1569 C 0.56296 0.23744 0.15156 0.0
C1570 C 0.57491 0.23269 0.19379 0.0
C1571 C 0.59877 0.2273 0.18682 0.0
C1572 C 0.60483 0.22777 0.16231 0.0
C1573 C 0.58697 0.23287 0.14509 0.0
C1574 C 0.56784 0.23258 0.2198 0.0
C1575 C 0.63001 0.22212 0.15399 0.0
H1576 H 0.67242 0.24276 0.23881 0.0
H1577 H 0.63798 0.16652 0.21792 0.0
H1578 H 0.6421 0.26928 0.19875 0.0
H1579 H 0.61851 0.27067 0.22026 0.0
H1580 H 0.65135 0.27663 0.23109 0.0
H1581 H 0.59791 0.1554 0.19671 0.0
H1582 H 0.5779 0.17919 0.19556 0.0
H1583 H 0.59846 0.17314 0.17175 0.0
H1584 H 0.53882 0.24122 0.18133 0.0
H1585 H 0.59178 0.2328 0.12631 0.0
H1586 H 0.58257 0.24448 0.23285 0.0
H1587 H 0.56655 0.2133 0.22413 0.0
H1588 H 0.54955 0.23935 0.22282 0.0
H1589 H 0.64544 0.23481 0.1655 0.0
H1590 H 0.63213 0.22415 0.1345 0.0
H1591 H 0.63231 0.2027 0.15624 0.0
C1592 C 0.46482 0.08806 0.98766 0.0
C1593 C 0.46977 0.06625 0.99625 0.0
C1594 C 0.46919 0.11132 0.00311 0.0
C1595 C 0.47929 0.11287 0.02758 0.0
C1596 C 0.4856 0.09105 0.0359 0.0
C1597 C 0.4804 0.06791 0.02024 0.0
C1598 C 0.4617 0.13398 0.99363 0.0
C1599 C 0.49703 0.09199 0.06161 0.0
C1600 C 0.50375 0.1784 0.06162 0.0
C1601 C 0.48367 0.18354 0.07573 0.0
C1602 C 0.50301 0.15515 0.04649 0.0
C1603 C 0.48138 0.13691 0.04492 0.0
C1604 C 0.46116 0.14198 0.05932 0.0
C1605 C 0.46272 0.16507 0.07479 0.0
C1606 C 0.52527 0.15019 0.03203 0.0
C1607 C 0.43752 0.1233 0.05785 0.0
H1608 H 0.4563 0.0867 0.9692 0.0
H1609 H 0.48424 0.05101 0.02685 0.0
H1610 H 0.44629 0.14075 0.00409 0.0
H1611 H 0.47773 0.1494 0.99641 0.0
H1612 H 0.45521 0.12989 0.97384 0.0
H1613 H 0.5036 0.07411 0.06426 0.0
H1614 H 0.51314 0.10731 0.06589 0.0
H1615 H 0.48291 0.09597 0.07497 0.0
H1616 H 0.52014 0.19243 0.06253 0.0
H1617 H 0.44709 0.16901 0.08556 0.0
H1618 H 0.51976 0.14789 0.01211 0.0
H1619 H 0.53159 0.1325 0.03564 0.0
H1620 H 0.54133 0.16557 0.03658 0.0
H1621 H 0.4288 0.11926 0.03876 0.0
H1622 H 0.4235 0.13011 0.07022 0.0
H1623 H 0.44212 0.1054 0.06274 0.0
C1624 C 0.30393 0.39806 0.70673 0.0
C1625 C 0.29268 0.39114 0.72743 0.0
C1626 C 0.3246 0.41712 0.70914 0.0
C1627 C 0.33444 0.42923 0.73283 0.0
C1628 C 0.32292 0.42253 0.75377 0.0
C1629 C 0.30207 0.40366 0.7508 0.0
C1630 C 0.33619 0.42398 0.68638 0.0
C1631 C 0.33307 0.43477 0.77935 0.0
C1632 C 0.40309 0.45809 0.74149 0.0
C1633 C 0.4015 0.48371 0.74336 0.0
C1634 C 0.38142 0.4402 0.7379 0.0
C1635 C 0.35753 0.44805 0.73584 0.0
C1636 C 0.35575 0.47382 0.73724 0.0
C1637 C 0.37776 0.49137 0.74114 0.0
C1638 C 0.38408 0.4129 0.73676 0.0
C1639 C 0.33059 0.48285 0.73483 0.0
H1640 H 0.29651 0.38854 0.68864 0.0
H1641 H 0.29353 0.39814 0.76683 0.0
H1642 H 0.33725 0.44438 0.68632 0.0
H1643 H 0.35569 0.41958 0.68627 0.0
H1644 H 0.32539 0.41383 0.66929 0.0
H1645 H 0.32145 0.42799 0.79365 0.0
H1646 H 0.35253 0.4309 0.78284 0.0
H1647 H 0.33392 0.45535 0.78118 0.0
H1648 H 0.42132 0.45195 0.7433 0.0
H1649 H 0.37634 0.5111 0.74244 0.0
H1650 H 0.37511 0.40203 0.71917 0.0
H1651 H 0.37425 0.40528 0.75173 0.0
H1652 H 0.40404 0.40987 0.73845 0.0
H1653 H 0.3201 0.47351 0.71732 0.0
H1654 H 0.33248 0.50341 0.73538 0.0
H1655 H 0.31914 0.47779 0.74989 0.0
C1656 C 0.29928 0.68 0.79628 0.0
C1657 C 0.27638 0.66827 0.7837 0.0
C1658 C 0.32077 0.66802 0.79569 0.0
C1659 C 0.31954 0.64381 0.78195 0.0
C1660 C 0.29638 0.63159 0.76971 0.0
C1661 C 0.27509 0.64391 0.77081 0.0
C1662 C 0.34505 0.68169 0.8091 0.0
C1663 C 0.29427 0.6058 0.75478 0.0
C1664 C 0.37979 0.62635 0.75611 0.0
C1665 C 0.38733 0.61043 0.7719 0.0
C1666 C 0.35778 0.63717 0.75918 0.0
C1667 C 0.3429 0.63219 0.77868 0.0
C1668 C 0.35046 0.61632 0.79487 0.0
C1669 C 0.37253 0.60552 0.79122 0.0
C1670 C 0.35035 0.65382 0.74138 0.0
C1671 C 0.33522 0.61079 0.81602 0.0
H1672 H 0.30067 0.69892 0.80602 0.0
H1673 H 0.25743 0.63448 0.76139 0.0
H1674 H 0.35337 0.66963 0.8208 0.0
H1675 H 0.35882 0.68621 0.79564 0.0
H1676 H 0.34236 0.69936 0.82079 0.0
H1677 H 0.27463 0.59823 0.74762 0.0
H1678 H 0.30611 0.60646 0.73902 0.0
H1679 H 0.30136 0.59268 0.76603 0.0
H1680 H 0.39098 0.63022 0.74105 0.0
H1681 H 0.3782 0.59326 0.8035 0.0
H1682 H 0.34922 0.67276 0.75138 0.0
H1683 H 0.33145 0.64621 0.73225 0.0
H1684 H 0.36385 0.65563 0.72704 0.0
H1685 H 0.33349 0.62848 0.82815 0.0
H1686 H 0.34374 0.59829 0.8271 0.0
H1687 H 0.31592 0.60183 0.80905 0.0
C1688 C 0.89695 0.48834 0.50005 0.0
C1689 C 0.91401 0.47985 0.48348 0.0
C1690 C 0.87806 0.47159 0.50794 0.0
C1691 C 0.87548 0.44579 0.4984 0.0
C1692 C 0.89249 0.43707 0.48165 0.0
C1693 C 0.91178 0.45406 0.47483 0.0
C1694 C 0.8608 0.48153 0.52644 0.0
C1695 C 0.89016 0.40976 0.47066 0.0
C1696 C 0.84164 0.39462 0.52919 0.0
C1697 C 0.8182 0.38942 0.51578 0.0
C1698 C 0.85992 0.41399 0.52475 0.0
C1699 C 0.85501 0.42775 0.50572 0.0
C1700 C 0.83111 0.42289 0.49247 0.0
C1701 C 0.81281 0.40404 0.49798 0.0
C1702 C 0.88476 0.41919 0.53993 0.0
C1703 C 0.82535 0.43657 0.47155 0.0
H1704 H 0.898 0.50815 0.50665 0.0
H1705 H 0.92512 0.44699 0.46262 0.0
H1706 H 0.84127 0.47867 0.51799 0.0
H1707 H 0.86073 0.47111 0.54218 0.0
H1708 H 0.86642 0.50177 0.53345 0.0
H1709 H 0.90408 0.4062 0.45693 0.0
H1710 H 0.8929 0.39838 0.48531 0.0
H1711 H 0.87101 0.40319 0.46163 0.0
H1712 H 0.84573 0.38334 0.54304 0.0
H1713 H 0.79476 0.39979 0.48742 0.0
H1714 H 0.88978 0.43954 0.54665 0.0
H1715 H 0.89982 0.41331 0.52846 0.0
H1716 H 0.88442 0.4091 0.55594 0.0
H1717 H 0.82913 0.45707 0.47768 0.0
H1718 H 0.80552 0.43145 0.46385 0.0
H1719 H 0.83785 0.43208 0.4567 0.0
C1720 C 0.75854 0.85762 0.77601 0.0
C1721 C 0.74558 0.83405 0.76601 0.0
C1722 C 0.74952 0.87951 0.77119 0.0
C1723 C 0.72692 0.87766 0.75617 0.0
C1724 C 0.71409 0.85374 0.74567 0.0
C1725 C 0.72359 0.83219 0.75078 0.0
C1726 C 0.76385 0.90462 0.78264 0.0
C1727 C 0.69002 0.8509 0.72954 0.0
C1728 C 0.69179 0.93411 0.76402 0.0
C1729 C 0.69982 0.94635 0.74465 0.0
C1730 C 0.70004 0.91148 0.7677 0.0
C1731 C 0.71668 0.90077 0.75161 0.0
C1732 C 0.72412 0.91256 0.73155 0.0
C1733 C 0.71563 0.93512 0.72831 0.0
C1734 C 0.69153 0.89941 0.78924 0.0
C1735 C 0.74168 0.90172 0.71386 0.0
H1736 H 0.7754 0.85892 0.78806 0.0
H1737 H 0.71344 0.81384 0.74337 0.0
H1738 H 0.76873 0.9161 0.76819 0.0
H1739 H 0.75188 0.91487 0.79503 0.0
H1740 H 0.78141 0.90287 0.79331 0.0
H1741 H 0.6828 0.83102 0.72213 0.0
H1742 H 0.67541 0.85905 0.74016 0.0
H1743 H 0.69305 0.86131 0.71396 0.0
H1744 H 0.67965 0.94257 0.77678 0.0
H1745 H 0.72191 0.94425 0.71318 0.0
H1746 H 0.70799 0.89915 0.80211 0.0
H1747 H 0.68295 0.87971 0.78291 0.0
H1748 H 0.67767 0.90941 0.79936 0.0
H1749 H 0.76013 0.90154 0.72373 0.0
H1750 H 0.74477 0.91252 0.69854 0.0
H1751 H 0.73406 0.88207 0.70608 0.0
C1752 C 0.63024 0.5321 0.98475 0.0
C1753 C 0.61406 0.53216 0.00381 0.0
C1754 C 0.65323 0.54815 0.98741 0.0
C1755 C 0.66036 0.56456 0.00976 0.0
C1756 C 0.64512 0.5632 0.02976 0.0
C1757 C 0.6221 0.54704 0.02653 0.0
C1758 C 0.66887 0.54888 0.96563 0.0
C1759 C 0.65215 0.58015 0.054 0.0
C1760 C 0.72591 0.603 0.01941 0.0
C1761 C 0.72093 0.626 0.01339 0.0
C1762 C 0.70645 0.58275 0.01841 0.0
C1763 C 0.68153 0.58551 0.01097 0.0
C1764 C 0.67654 0.60852 0.00443 0.0
C1765 C 0.6962 0.62842 0.0058 0.0
C1766 C 0.71247 0.55856 0.02568 0.0
C1767 C 0.65032 0.61223 0.99607 0.0
H1768 H 0.62434 0.5203 0.96727 0.0
H1769 H 0.60971 0.54728 0.04134 0.0
H1770 H 0.66733 0.56632 0.95803 0.0
H1771 H 0.68899 0.54904 0.97119 0.0
H1772 H 0.66265 0.5327 0.95086 0.0
H1773 H 0.64056 0.57421 0.06868 0.0
H1774 H 0.67227 0.58058 0.0598 0.0
H1775 H 0.64937 0.59951 0.05199 0.0
H1776 H 0.74491 0.60098 0.02543 0.0
H1777 H 0.69212 0.64601 0.00093 0.0
H1778 H 0.70622 0.54283 0.01051 0.0
H1779 H 0.70206 0.55449 0.04172 0.0
H1780 H 0.73287 0.55917 0.03043 0.0
H1781 H 0.64302 0.59813 0.97978 0.0
H1782 H 0.64967 0.63116 0.99126 0.0
H1783 H 0.63748 0.60949 0.01076 0.0
C1784 C 0.2874 0.68724 0.26519 0.0
C1785 C 0.29548 0.69628 0.24406 0.0
C1786 C 0.26838 0.66681 0.2637 0.0
C1787 C 0.2565 0.65542 0.24054 0.0
C1788 C 0.26317 0.6656 0.21928 0.0
C1789 C 0.28277 0.68584 0.22126 0.0
C1790 C 0.26198 0.65658 0.28687 0.0
C1791 C 0.25044 0.65442 0.19435 0.0
C1792 C 0.2332 0.58667 0.23908 0.0
C1793 C 0.20845 0.58722 0.24555 0.0
C1794 C 0.24862 0.6086 0.23589 0.0
C1795 C 0.23892 0.63159 0.23875 0.0
C1796 C 0.21335 0.63191 0.24337 0.0
C1797 C 0.19847 0.60975 0.24702 0.0
C1798 C 0.27585 0.60741 0.23129 0.0
C1799 C 0.20208 0.65589 0.24581 0.0
H1800 H 0.29659 0.69572 0.28297 0.0
H1801 H 0.2888 0.69278 0.20485 0.0
H1802 H 0.24156 0.65556 0.2891 0.0
H1803 H 0.26664 0.63729 0.28564 0.0
H1804 H 0.27236 0.66816 0.30353 0.0
H1805 H 0.25457 0.66692 0.18054 0.0
H1806 H 0.25707 0.63637 0.18799 0.0
H1807 H 0.22979 0.65051 0.19527 0.0
H1808 H 0.24104 0.56933 0.23787 0.0
H1809 H 0.17925 0.61025 0.25173 0.0
H1810 H 0.28799 0.6173 0.24765 0.0
H1811 H 0.28112 0.61696 0.2156 0.0
H1812 H 0.2799 0.58787 0.22742 0.0
H1813 H 0.20893 0.66761 0.26368 0.0
H1814 H 0.18122 0.65233 0.24488 0.0
H1815 H 0.20796 0.66679 0.23118 0.0
C1816 C 0.94874 0.55452 0.04004 0.0
C1817 C 0.95894 0.54668 0.01799 0.0
C1818 C 0.92982 0.57001 0.04066 0.0
C1819 C 0.92111 0.57771 0.01871 0.0
C1820 C 0.93135 0.56946 0.9964 0.0
C1821 C 0.95014 0.55402 0.99634 0.0
C1822 C 0.91937 0.57839 0.06479 0.0
C1823 C 0.92274 0.57725 0.97262 0.0
C1824 C 0.85882 0.60336 0.0145 0.0
C1825 C 0.86689 0.62924 0.01857 0.0
C1826 C 0.87619 0.58632 0.01485 0.0
C1827 C 0.90224 0.59538 0.01914 0.0
C1828 C 0.91046 0.62147 0.02301 0.0
C1829 C 0.89272 0.63803 0.02277 0.0
C1830 C 0.8667 0.55864 0.0107 0.0
C1831 C 0.93805 0.63194 0.02732 0.0
H1832 H 0.95559 0.54865 0.05673 0.0
H1833 H 0.9581 0.54776 0.97929 0.0
H1834 H 0.92356 0.59904 0.06961 0.0
H1835 H 0.89863 0.57332 0.0632 0.0
H1836 H 0.92734 0.56993 0.07997 0.0
H1837 H 0.93201 0.56854 0.95674 0.0
H1838 H 0.90211 0.572 0.96897 0.0
H1839 H 0.92692 0.59787 0.97403 0.0
H1840 H 0.8389 0.59641 0.01139 0.0
H1841 H 0.89918 0.65798 0.02588 0.0
H1842 H 0.87311 0.55022 0.02654 0.0
H1843 H 0.8746 0.54932 0.99425 0.0
H1844 H 0.84586 0.55461 0.00813 0.0
H1845 H 0.94639 0.62547 0.04357 0.0
H1846 H 0.94134 0.65271 0.03027 0.0
H1847 H 0.94817 0.62497 0.01134 0.0
C1848 C 0.09663 0.96476 0.05281 0.0
C1849 C 0.09185 0.98435 0.04034 0.0
C1850 C 0.11789 0.95292 0.04883 0.0
C1851 C 0.13486 0.96079 0.0319 0.0
C1852 C 0.13034 0.98073 0.01941 0.0
C1853 C 0.10885 0.99226 0.02374 0.0
C1854 C 0.12196 0.93168 0.0625 0.0
C1855 C 0.14809 0.98972 0.00134 0.0
C1856 C 0.19904 0.9406 0.04027 0.0
C1857 C 0.19636 0.91828 0.02347 0.0
C1858 C 0.17967 0.95541 0.0423 0.0
C1859 C 0.15705 0.9477 0.0272 0.0
C1860 C 0.15482 0.926 0.00922 0.0
C1861 C 0.17451 0.91156 0.00755 0.0
C1862 C 0.18287 0.97853 0.06157 0.0
C1863 C 0.13105 0.91721 0.99268 0.0
H1864 H 0.08337 0.95824 0.06532 0.0
H1865 H 0.10538 0.00752 0.0142 0.0
H1866 H 0.12202 0.9143 0.04927 0.0
H1867 H 0.14053 0.9359 0.0731 0.0
H1868 H 0.10722 0.92813 0.07535 0.0
H1869 H 0.1422 0.00581 0.99355 0.0
H1870 H 0.16733 0.99538 0.01039 0.0
H1871 H 0.14907 0.97429 0.98608 0.0
H1872 H 0.21592 0.94608 0.05253 0.0
H1873 H 0.1723 0.89444 0.99441 0.0
H1874 H 0.17031 0.9753 0.07638 0.0
H1875 H 0.17742 0.99465 0.0536 0.0
H1876 H 0.20251 0.98354 0.06985 0.0
H1877 H 0.11555 0.91088 0.00373 0.0
H1878 H 0.13323 0.90151 0.97806 0.0
H1879 H 0.12537 0.9328 0.98396 0.0
loop_
_geom_bond_atom_site_label_1
_geom_bond_atom_site_label_2
_geom_bond_distance
_geom_bond_site_symmetry_2
_ccdc_geom_bond_type
H0 C3 0.929 . S
H1 C6 0.929 . S
H2 C8 0.930 . S
C3 H0 0.929 . S
C3 C4 1.398 . S
C3 C5 1.396 . S
C4 C3 1.398 . S
C4 C8 1.407 . S
C5 C3 1.396 . S
C5 C6 1.394 . S
C6 H1 0.929 . S
C6 C5 1.394 . S
C6 C7 1.382 . S
C7 C6 1.382 . S
C7 C8 1.392 . S
C7 N9 1.420 . S
C8 H2 0.930 . S
C8 C4 1.407 . S
C8 C7 1.392 . S
N9 C7 1.420 . S
N9 C10 1.244 . S
C10 N9 1.244 . S
H11 C14 0.929 . S
H12 C17 0.929 . S
H13 C19 0.930 . S
C14 H11 0.929 . S
C14 C15 1.398 . S
C14 C16 1.396 . S
C15 C14 1.398 . S
C15 C19 1.407 . S
C16 C14 1.396 . S
C16 C17 1.394 . S
C17 H12 0.929 . S
C17 C16 1.394 . S
C17 C18 1.382 . S
C18 C17 1.382 . S
C18 C19 1.392 . S
C18 N20 1.420 . S
C19 H13 0.930 . S
C19 C15 1.407 . S
C19 C18 1.392 . S
N20 C18 1.420 . S
N20 C21 1.244 . S
C21 N20 1.244 . S
H22 C25 0.929 . S
H23 C28 0.932 . S
H24 C30 0.930 . S
C25 H22 0.929 . S
C25 C26 1.398 . S
C25 C27 1.396 . S
C26 C25 1.398 . S
C26 C30 1.407 1_455 S
C27 C25 1.396 . S
C27 C28 1.384 1_455 S
C28 H23 0.932 . S
C28 C27 1.384 1_655 S
C28 C29 1.388 . S
C29 C28 1.388 . S
C29 C30 1.392 . S
C29 N31 1.420 . S
C30 H24 0.930 . S
C30 C26 1.407 1_655 S
C30 C29 1.392 . S
N31 C29 1.420 . S
N31 C32 1.244 . S
C32 N31 1.244 . S
H33 C36 0.929 . S
H34 C39 0.929 . S
H35 C41 0.930 . S
C36 H33 0.929 . S
C36 C37 1.398 . S
C36 C38 1.396 . S
C37 C36 1.398 . S
C37 C41 1.407 . S
C38 C36 1.396 . S
C38 C39 1.394 . S
C39 H34 0.929 . S
C39 C38 1.394 . S
C39 C40 1.382 . S
C40 C39 1.382 . S
C40 C41 1.392 . S
C40 N42 1.420 . S
C41 H35 0.930 . S
C41 C37 1.407 . S
C41 C40 1.392 . S
N42 C40 1.420 . S
N42 C43 1.244 . S
C43 N42 1.244 . S
H44 C47 0.934 . S
H45 C50 0.929 . S
H46 C52 0.930 . S
C47 H44 0.934 . S
C47 C48 1.396 1_545 S
C47 C49 1.393 1_545 S
C48 C47 1.396 1_565 S
C48 C52 1.407 . S
C49 C47 1.393 1_565 S
C49 C50 1.394 . S
C50 H45 0.929 . S
C50 C49 1.394 . S
C50 C51 1.382 . S
C51 C50 1.382 . S
C51 C52 1.392 . S
C51 N53 1.420 . S
C52 H46 0.930 . S
C52 C48 1.407 . S
C52 C51 1.392 . S
N53 C51 1.420 . S
N53 C54 1.244 . S
C54 N53 1.244 . S
H55 C58 0.929 . S
H56 C61 0.929 . S
H57 C63 0.930 . S
C58 H55 0.929 . S
C58 C59 1.398 . S
C58 C60 1.396 . S
C59 C58 1.398 . S
C59 C63 1.407 . S
C60 C58 1.396 . S
C60 C61 1.394 . S
C61 H56 0.929 . S
C61 C60 1.394 . S
C61 C62 1.382 . S
C62 C61 1.382 . S
C62 C63 1.392 . S
C62 N64 1.420 . S
C63 H57 0.930 . S
C63 C59 1.407 . S
C63 C62 1.392 . S
N64 C62 1.420 . S
N64 C65 1.244 . S
C65 N64 1.244 . S
H66 C69 0.929 . S
H67 C72 0.929 1_455 S
H68 C74 0.930 . S
C69 H66 0.929 . S
C69 C70 1.398 . S
C69 C71 1.396 . S
C70 C69 1.398 . S
C70 C74 1.407 . S
C71 C69 1.396 . S
C71 C72 1.394 . S
C72 H67 0.929 1_655 S
C72 C71 1.394 . S
C72 C73 1.382 . S
C73 C72 1.382 . S
C73 C74 1.392 . S
C73 N75 1.420 1_655 S
C74 H68 0.930 . S
C74 C70 1.407 . S
C74 C73 1.392 . S
N75 C73 1.420 1_455 S
N75 C76 1.244 . S
C76 N75 1.244 . S
H77 C80 0.929 . S
H78 C83 0.929 . S
H79 C85 0.930 . S
C80 H77 0.929 . S
C80 C81 1.398 . S
C80 C82 1.396 . S
C81 C80 1.398 . S
C81 C85 1.407 . S
C82 C80 1.396 . S
C82 C83 1.394 . S
C83 H78 0.929 . S
C83 C82 1.394 . S
C83 C84 1.382 . S
C84 C83 1.382 . S
C84 C85 1.392 . S
C84 N86 1.420 . S
C85 H79 0.930 . S
C85 C81 1.407 . S
C85 C84 1.392 . S
N86 C84 1.420 . S
N86 C87 1.244 . S
C87 N86 1.244 . S
H88 C91 0.929 . S
H89 C94 0.929 . S
H90 C96 0.930 . S
C91 H88 0.929 . S
C91 C92 1.398 . S
C91 C93 1.396 . S
C92 C91 1.398 . S
C92 C96 1.407 . S
C93 C91 1.396 . S
C93 C94 1.394 . S
C94 H89 0.929 . S
C94 C93 1.394 . S
C94 C95 1.382 . S
C95 C94 1.382 . S
C95 C96 1.392 . S
C95 N97 1.420 . S
C96 H90 0.930 . S
C96 C92 1.407 . S
C96 C95 1.392 . S
N97 C95 1.420 . S
N97 C98 1.244 . S
C98 N97 1.244 . S
H99 C102 0.929 . S
H100 C105 0.929 1_545 S
H101 C107 0.930 . S
C102 H99 0.929 . S
C102 C103 1.398 . S
C102 C104 1.396 . S
C103 C102 1.398 . S
C103 C107 1.407 . S
C104 C102 1.396 . S
C104 C105 1.394 . S
C105 H100 0.929 1_565 S
C105 C104 1.394 . S
C105 C106 1.382 . S
C106 C105 1.382 . S
C106 C107 1.392 . S
C106 N108 1.420 1_565 S
C107 H101 0.930 . S
C107 C103 1.407 . S
C107 C106 1.392 . S
N108 C106 1.420 1_545 S
N108 C109 1.244 . S
C109 N108 1.244 . S
H110 C113 0.929 . S
H111 C116 0.929 . S
H112 C118 0.930 . S
C113 H110 0.929 . S
C113 C114 1.398 . S
C113 C115 1.396 . S
C114 C113 1.398 . S
C114 C118 1.407 . S
C115 C113 1.396 . S
C115 C116 1.394 . S
C116 H111 0.929 . S
C116 C115 1.394 . S
C116 C117 1.382 . S
C117 C116 1.382 . S
C117 C118 1.392 . S
C117 N119 1.420 . S
C118 H112 0.930 . S
C118 C114 1.407 . S
C118 C117 1.392 . S
N119 C117 1.420 . S
N119 C120 1.244 . S
C120 N119 1.244 . S
H121 C124 0.929 . S
H122 C127 0.929 . S
H123 C129 0.930 . S
C124 H121 0.929 . S
C124 C125 1.398 . S
C124 C126 1.396 . S
C125 C124 1.398 . S
C125 C129 1.407 . S
C126 C124 1.396 . S
C126 C127 1.394 . S
C127 H122 0.929 . S
C127 C126 1.394 . S
C127 C128 1.382 . S
C128 C127 1.382 . S
C128 C129 1.392 . S
C128 N130 1.420 . S
C129 H123 0.930 . S
C129 C125 1.407 . S
C129 C128 1.392 . S
N130 C128 1.420 . S
N130 C131 1.244 . S
C131 N130 1.244 . S
H132 C135 0.929 . S
H133 C138 0.929 . S
H134 C140 0.930 . S
C135 H132 0.929 . S
C135 C136 1.398 . S
C135 C137 1.396 . S
C136 C135 1.398 . S
C136 C140 1.407 . S
C137 C135 1.396 . S
C137 C138 1.394 . S
C138 H133 0.929 . S
C138 C137 1.394 . S
C138 C139 1.382 . S
C139 C138 1.382 . S
C139 C140 1.392 . S
C139 N141 1.420 . S
C140 H134 0.930 . S
C140 C136 1.407 . S
C140 C139 1.392 . S
N141 C139 1.420 . S
N141 C142 1.244 . S
C142 N141 1.244 . S
H143 C146 0.929 . S
H144 C149 0.929 . S
H145 C151 0.930 . S
C146 H143 0.929 . S
C146 C147 1.398 . S
C146 C148 1.396 . S
C147 C146 1.398 . S
C147 C151 1.407 . S
C148 C146 1.396 . S
C148 C149 1.394 1_556 S
C149 H144 0.929 . S
C149 C148 1.394 1_554 S
C149 C150 1.382 1_554 S
C150 C149 1.382 1_556 S
C150 C151 1.392 . S
C150 N152 1.420 1_556 S
C151 H145 0.930 . S
C151 C147 1.407 . S
C151 C150 1.392 . S
N152 C150 1.420 1_554 S
N152 C153 1.244 . S
C153 N152 1.244 . S
H154 C157 0.929 . S
H155 C160 0.929 . S
H156 C162 0.930 . S
C157 H154 0.929 . S
C157 C158 1.398 . S
C157 C159 1.396 . S
C158 C157 1.398 . S
C158 C162 1.407 . S
C159 C157 1.396 . S
C159 C160 1.394 . S
C160 H155 0.929 . S
C160 C159 1.394 . S
C160 C161 1.382 . S
C161 C160 1.382 . S
C161 C162 1.392 . S
C161 N163 1.420 . S
C162 H156 0.930 . S
C162 C158 1.407 . S
C162 C161 1.392 . S
N163 C161 1.420 . S
N163 C164 1.244 . S
C164 N163 1.244 . S
H165 C168 0.929 1_554 S
H166 C171 0.929 . S
H167 C173 0.930 1_565 S
C168 H165 0.929 1_556 S
C168 C169 1.398 . S
C168 C170 1.396 . S
C169 C168 1.398 . S
C169 C173 1.407 . S
C170 C168 1.396 . S
C170 C171 1.394 . S
C171 H166 0.929 . S
C171 C170 1.394 . S
C171 C172 1.382 . S
C172 C171 1.382 . S
C172 C173 1.392 . S
C172 N174 1.420 . S
C173 H167 0.930 1_545 S
C173 C169 1.407 . S
C173 C172 1.392 . S
N174 C172 1.420 . S
N174 C175 1.244 . S
C175 N174 1.244 . S
Mg176 O177 2.028 . S
Mg176 O183 1.951 1_554 S
Mg176 O185 2.114 . S
Mg176 O186 2.251 . S
Mg176 O189 2.010 . S
O177 Mg176 2.028 . S
O177 C180 1.250 . S
O178 Mg179 2.028 . S
O178 C180 1.248 . S
Mg179 O178 2.028 . S
Mg179 O184 2.032 1_554 S
Mg179 O186 2.079 . S
C180 O177 1.250 . S
C180 O178 1.248 . S
C181 O182 1.264 . S
C181 O189 1.249 . S
O182 C181 1.264 . S
O183 Mg176 1.951 1_556 S
O183 C187 1.265 . S
O184 Mg179 2.032 1_556 S
O184 C187 1.259 . S
O185 Mg176 2.114 . S
O185 C188 1.252 . S
O186 Mg176 2.251 . S
O186 Mg179 2.079 . S
O186 C188 1.273 . S
C187 O183 1.265 . S
C187 O184 1.259 . S
C188 O185 1.252 . S
C188 O186 1.273 . S
O189 Mg176 2.010 . S
O189 C181 1.249 . S
Mg190 O191 2.028 . S
Mg190 O197 1.986 . S
Mg190 O199 2.114 . S
Mg190 O200 2.251 . S
Mg190 O203 2.010 . S
O191 Mg190 2.028 . S
O191 C194 1.250 . S
O192 Mg193 2.028 . S
O192 C194 1.248 . S
Mg193 O192 2.028 . S
Mg193 O198 2.032 . S
Mg193 O200 2.079 . S
C194 O191 1.250 . S
C194 O192 1.248 . S
C195 O196 1.264 . S
C195 O203 1.249 . S
O196 C195 1.264 . S
O197 Mg190 1.986 . S
O197 C201 1.246 . S
O198 Mg193 2.032 . S
O198 C201 1.259 . S
O199 Mg190 2.114 . S
O199 C202 1.252 . S
O200 Mg190 2.251 . S
O200 Mg193 2.079 . S
O200 C202 1.273 . S
C201 O197 1.246 . S
C201 O198 1.259 . S
C202 O199 1.252 . S
C202 O200 1.273 . S
O203 Mg190 2.010 . S
O203 C195 1.249 . S
Mg204 O205 2.029 1_554 S
Mg204 O211 1.986 1_554 S
Mg204 O213 2.114 . S
Mg204 O214 2.251 . S
Mg204 O217 2.010 . S
O205 Mg204 2.029 1_556 S
O205 C208 1.252 . S
O206 Mg207 2.028 . S
O206 C208 1.248 . S
Mg207 O206 2.028 . S
Mg207 O212 2.032 . S
Mg207 O214 2.079 1_556 S
C208 O205 1.252 . S
C208 O206 1.248 . S
C209 O210 1.264 . S
C209 O217 1.249 . S
O210 C209 1.264 . S
O211 Mg204 1.986 1_556 S
O211 C215 1.246 . S
O212 Mg207 2.032 . S
O212 C215 1.259 . S
O213 Mg204 2.114 . S
O213 C216 1.252 . S
O214 Mg204 2.251 . S
O214 Mg207 2.079 1_554 S
O214 C216 1.273 . S
C215 O211 1.246 . S
C215 O212 1.259 . S
C216 O213 1.252 . S
C216 O214 1.273 . S
O217 Mg204 2.010 . S
O217 C209 1.249 . S
Mg218 O219 2.028 . S
Mg218 O225 1.986 . S
Mg218 O227 2.114 . S
Mg218 O228 2.251 . S
Mg218 O231 2.010 . S
O219 Mg218 2.028 . S
O219 C222 1.250 1_545 S
O220 Mg221 2.028 . S
O220 C222 1.248 . S
Mg221 O220 2.028 . S
Mg221 O226 2.032 1_565 S
Mg221 O228 2.079 1_565 S
C222 O219 1.250 1_565 S
C222 O220 1.248 . S
C223 O224 1.264 . S
C223 O231 1.249 . S
O224 C223 1.264 . S
O225 Mg218 1.986 . S
O225 C229 1.246 . S
O226 Mg221 2.032 1_545 S
O226 C229 1.259 . S
O227 Mg218 2.114 . S
O227 C230 1.252 . S
O228 Mg218 2.251 . S
O228 Mg221 2.079 1_545 S
O228 C230 1.273 . S
C229 O225 1.246 . S
C229 O226 1.259 . S
C230 O227 1.252 . S
C230 O228 1.273 . S
O231 Mg218 2.010 . S
O231 C223 1.249 . S
Mg232 O233 2.028 . S
Mg232 O239 1.986 . S
Mg232 O241 2.114 . S
Mg232 O242 2.251 . S
Mg232 O245 2.010 . S
O233 Mg232 2.028 . S
O233 C236 1.250 . S
O234 Mg235 2.028 . S
O234 C236 1.248 . S
Mg235 O234 2.028 . S
Mg235 O240 2.032 . S
Mg235 O242 2.079 . S
C236 O233 1.250 . S
C236 O234 1.248 . S
C237 O238 1.264 . S
C237 O245 1.249 . S
O238 C237 1.264 . S
O239 Mg232 1.986 . S
O239 C243 1.246 . S
O240 Mg235 2.032 . S
O240 C243 1.259 . S
O241 Mg232 2.114 . S
O241 C244 1.252 . S
O242 Mg232 2.251 . S
O242 Mg235 2.079 . S
O242 C244 1.273 . S
C243 O239 1.246 . S
C243 O240 1.259 . S
C244 O241 1.252 . S
C244 O242 1.273 . S
O245 Mg232 2.010 . S
O245 C237 1.249 . S
Mg246 O247 2.028 . S
Mg246 O253 1.986 . S
Mg246 O255 2.114 . S
Mg246 O256 2.251 . S
Mg246 O259 2.010 . S
O247 Mg246 2.028 . S
O247 C250 1.250 . S
O248 Mg249 2.028 . S
O248 C250 1.248 . S
Mg249 O248 2.028 . S
Mg249 O254 2.032 . S
Mg249 O256 2.079 . S
C250 O247 1.250 . S
C250 O248 1.248 . S
C251 O252 1.264 . S
C251 O259 1.249 . S
O252 C251 1.264 . S
O253 Mg246 1.986 . S
O253 C257 1.246 . S
O254 Mg249 2.032 . S
O254 C257 1.259 . S
O255 Mg246 2.114 . S
O255 C258 1.252 . S
O256 Mg246 2.251 . S
O256 Mg249 2.079 . S
O256 C258 1.273 . S
C257 O253 1.246 . S
C257 O254 1.259 . S
C258 O255 1.252 . S
C258 O256 1.273 . S
O259 Mg246 2.010 . S
O259 C251 1.249 . S
Mg260 O261 2.028 . S
Mg260 O267 1.986 . S
Mg260 O269 2.114 . S
Mg260 O270 2.251 . S
Mg260 O273 2.010 . S
O261 Mg260 2.028 . S
O261 C264 1.250 . S
O262 Mg263 2.028 . S
O262 C264 1.248 . S
Mg263 O262 2.028 . S
Mg263 O268 2.032 . S
Mg263 O270 2.079 . S
C264 O261 1.250 . S
C264 O262 1.248 . S
C265 O266 1.264 . S
C265 O273 1.249 . S
O266 C265 1.264 . S
O267 Mg260 1.986 . S
O267 C271 1.246 . S
O268 Mg263 2.032 . S
O268 C271 1.259 . S
O269 Mg260 2.114 . S
O269 C272 1.252 . S
O270 Mg260 2.251 . S
O270 Mg263 2.079 . S
O270 C272 1.273 . S
C271 O267 1.246 . S
C271 O268 1.259 . S
C272 O269 1.252 . S
C272 O270 1.273 . S
O273 Mg260 2.010 . S
O273 C265 1.249 . S
Mg274 O275 2.028 1_545 S
Mg274 O281 1.986 1_545 S
Mg274 O283 2.114 . S
Mg274 O284 2.251 . S
Mg274 O287 2.010 . S
O275 Mg274 2.028 1_565 S
O275 C278 1.250 . S
O276 Mg277 2.028 . S
O276 C278 1.248 . S
Mg277 O276 2.028 . S
Mg277 O282 2.032 . S
Mg277 O284 2.079 1_565 S
C278 O275 1.250 . S
C278 O276 1.248 . S
C279 O280 1.264 . S
C279 O287 1.249 . S
O280 C279 1.264 . S
O281 Mg274 1.986 1_565 S
O281 C285 1.246 . S
O282 Mg277 2.032 . S
O282 C285 1.259 . S
O283 Mg274 2.114 . S
O283 C286 1.252 . S
O284 Mg274 2.251 . S
O284 Mg277 2.079 1_545 S
O284 C286 1.273 . S
C285 O281 1.246 . S
C285 O282 1.259 . S
C286 O283 1.252 . S
C286 O284 1.273 . S
O287 Mg274 2.010 . S
O287 C279 1.249 . S
Mg288 O289 2.028 . S
Mg288 O295 1.986 . S
Mg288 O297 2.114 . S
Mg288 O298 2.251 . S
Mg288 O301 2.010 . S
O289 Mg288 2.028 . S
O289 C292 1.250 1_455 S
O290 Mg291 2.028 . S
O290 C292 1.248 . S
Mg291 O290 2.028 . S
Mg291 O296 2.032 . S
Mg291 O298 2.079 1_655 S
C292 O289 1.250 1_655 S
C292 O290 1.248 . S
C293 O294 1.264 . S
C293 O301 1.249 . S
O294 C293 1.264 . S
O295 Mg288 1.986 . S
O295 C299 1.246 . S
O296 Mg291 2.032 . S
O296 C299 1.259 1_655 S
O297 Mg288 2.114 . S
O297 C300 1.252 . S
O298 Mg288 2.251 . S
O298 Mg291 2.079 1_455 S
O298 C300 1.273 . S
C299 O295 1.246 . S
C299 O296 1.259 1_455 S
C300 O297 1.252 . S
C300 O298 1.273 . S
O301 Mg288 2.010 . S
O301 C293 1.249 . S
Mg302 O303 2.028 . S
Mg302 O309 1.986 . S
Mg302 O311 2.114 . S
Mg302 O312 2.251 . S
Mg302 O315 2.010 . S
O303 Mg302 2.028 . S
O303 C306 1.250 . S
O304 Mg305 2.028 . S
O304 C306 1.248 . S
Mg305 O304 2.028 . S
Mg305 O310 2.032 . S
Mg305 O312 2.079 . S
C306 O303 1.250 . S
C306 O304 1.248 . S
C307 O308 1.264 . S
C307 O315 1.249 . S
O308 C307 1.264 . S
O309 Mg302 1.986 . S
O309 C313 1.246 . S
O310 Mg305 2.032 . S
O310 C313 1.259 . S
O311 Mg302 2.114 . S
O311 C314 1.252 . S
O312 Mg302 2.251 . S
O312 Mg305 2.079 . S
O312 C314 1.273 . S
C313 O309 1.246 . S
C313 O310 1.259 . S
C314 O311 1.252 . S
C314 O312 1.273 . S
O315 Mg302 2.010 . S
O315 C307 1.249 . S
Mg316 O317 2.028 1_655 S
Mg316 O323 1.986 1_655 S
Mg316 O325 2.114 . S
Mg316 O326 2.251 1_655 S
Mg316 O329 2.010 . S
O317 Mg316 2.028 1_455 S
O317 C320 1.250 . S
O318 Mg319 2.028 . S
O318 C320 1.248 . S
Mg319 O318 2.028 . S
Mg319 O324 2.032 . S
Mg319 O326 2.079 . S
C320 O317 1.250 . S
C320 O318 1.248 . S
C321 O322 1.264 . S
C321 O329 1.249 . S
O322 C321 1.264 . S
O323 Mg316 1.986 1_455 S
O323 C327 1.246 . S
O324 Mg319 2.032 . S
O324 C327 1.259 . S
O325 Mg316 2.114 . S
O325 C328 1.252 . S
O326 Mg316 2.251 1_455 S
O326 Mg319 2.079 . S
O326 C328 1.273 1_455 S
C327 O323 1.246 . S
C327 O324 1.259 . S
C328 O325 1.252 . S
C328 O326 1.273 1_655 S
O329 Mg316 2.010 . S
O329 C321 1.249 . S
Mg330 O331 2.028 . S
Mg330 O337 1.986 . S
Mg330 O339 2.114 . S
Mg330 O340 2.251 . S
Mg330 O343 2.010 . S
O331 Mg330 2.028 . S
O331 C334 1.250 . S
O332 Mg333 2.028 . S
O332 C334 1.248 . S
Mg333 O332 2.028 . S
Mg333 O338 2.032 . S
Mg333 O340 2.079 . S
C334 O331 1.250 . S
C334 O332 1.248 . S
C335 O336 1.264 . S
C335 O343 1.249 . S
O336 C335 1.264 . S
O337 Mg330 1.986 . S
O337 C341 1.246 . S
O338 Mg333 2.032 . S
O338 C341 1.259 . S
O339 Mg330 2.114 . S
O339 C342 1.252 . S
O340 Mg330 2.251 . S
O340 Mg333 2.079 . S
O340 C342 1.273 . S
C341 O337 1.246 . S
C341 O338 1.259 . S
C342 O339 1.252 . S
C342 O340 1.273 . S
O343 Mg330 2.010 . S
O343 C335 1.249 . S
C344 C345 1.391 . S
C344 C346 1.394 . S
C344 H360 0.931 . S
C345 C344 1.391 . S
C345 C349 1.376 . S
C346 C344 1.394 . S
C346 C347 1.369 . S
C346 C350 1.531 . S
C347 C346 1.369 . S
C347 C348 1.410 . S
C347 C355 1.503 . S
C348 C347 1.410 . S
C348 C349 1.392 . S
C348 C351 1.511 . S
C349 C345 1.376 . S
C349 C348 1.392 . S
C349 H361 0.929 . S
C350 C346 1.531 . S
C350 H362 0.960 . S
C350 H363 0.962 . S
C350 H364 0.960 . S
C351 C348 1.511 . S
C351 H365 0.961 . S
C351 H366 0.961 . S
C351 H367 0.961 . S
C352 C353 1.370 . S
C352 C354 1.363 . S
C352 H368 0.931 . S
C353 C352 1.370 . S
C353 C357 1.408 . S
C354 C352 1.363 . S
C354 C355 1.370 . S
C354 C358 1.524 . S
C355 C347 1.503 . S
C355 C354 1.370 . S
C355 C356 1.403 . S
C356 C355 1.403 . S
C356 C357 1.404 . S
C356 C359 1.539 . S
C357 C353 1.408 . S
C357 C356 1.404 . S
C357 H369 0.930 . S
C358 C354 1.524 . S
C358 H370 0.956 . S
C358 H371 0.961 . S
C358 H372 0.961 . S
C359 C356 1.539 . S
C359 H373 0.958 . S
C359 H374 0.961 . S
C359 H375 0.960 . S
H360 C344 0.931 . S
H361 C349 0.929 . S
H362 C350 0.960 . S
H363 C350 0.962 . S
H364 C350 0.960 . S
H365 C351 0.961 . S
H366 C351 0.961 . S
H367 C351 0.961 . S
H368 C352 0.931 . S
H369 C357 0.930 . S
H370 C358 0.956 . S
H371 C358 0.961 . S
H372 C358 0.961 . S
H373 C359 0.958 . S
H374 C359 0.961 . S
H375 C359 0.960 . S
C376 C377 1.391 . S
C376 C378 1.394 . S
C376 H392 0.931 . S
C377 C376 1.391 . S
C377 C381 1.376 . S
C378 C376 1.394 . S
C378 C379 1.369 . S
C378 C382 1.531 . S
C379 C378 1.369 . S
C379 C380 1.410 . S
C379 C387 1.503 . S
C380 C379 1.410 . S
C380 C381 1.392 . S
C380 C383 1.511 . S
C381 C377 1.376 . S
C381 C380 1.392 . S
C381 H393 0.929 . S
C382 C378 1.531 . S
C382 H394 0.960 . S
C382 H395 0.962 . S
C382 H396 0.960 . S
C383 C380 1.511 . S
C383 H397 0.961 . S
C383 H398 0.961 . S
C383 H399 0.961 . S
C384 C385 1.370 . S
C384 C386 1.363 . S
C384 H400 0.931 . S
C385 C384 1.370 . S
C385 C389 1.408 . S
C386 C384 1.363 . S
C386 C387 1.370 . S
C386 C390 1.524 . S
C387 C379 1.503 . S
C387 C386 1.370 . S
C387 C388 1.403 . S
C388 C387 1.403 . S
C388 C389 1.404 . S
C388 C391 1.539 . S
C389 C385 1.408 . S
C389 C388 1.404 . S
C389 H401 0.930 . S
C390 C386 1.524 . S
C390 H402 0.956 . S
C390 H403 0.961 . S
C390 H404 0.961 . S
C391 C388 1.539 . S
C391 H405 0.958 . S
C391 H406 0.961 . S
C391 H407 0.960 . S
H392 C376 0.931 . S
H393 C381 0.929 . S
H394 C382 0.960 . S
H395 C382 0.962 . S
H396 C382 0.960 . S
H397 C383 0.961 . S
H398 C383 0.961 . S
H399 C383 0.961 . S
H400 C384 0.931 . S
H401 C389 0.930 . S
H402 C390 0.956 . S
H403 C390 0.961 . S
H404 C390 0.961 . S
H405 C391 0.958 . S
H406 C391 0.961 . S
H407 C391 0.960 . S
C408 C409 1.391 . S
C408 C410 1.394 . S
C408 H424 0.931 . S
C409 C408 1.391 . S
C409 C413 1.376 . S
C410 C408 1.394 . S
C410 C411 1.369 . S
C410 C414 1.531 . S
C411 C410 1.369 . S
C411 C412 1.410 . S
C411 C419 1.503 . S
C412 C411 1.410 . S
C412 C413 1.392 . S
C412 C415 1.511 . S
C413 C409 1.376 . S
C413 C412 1.392 . S
C413 H425 0.929 . S
C414 C410 1.531 . S
C414 H426 0.960 . S
C414 H427 0.962 . S
C414 H428 0.960 . S
C415 C412 1.511 . S
C415 H429 0.961 . S
C415 H430 0.961 . S
C415 H431 0.961 . S
C416 C417 1.370 . S
C416 C418 1.363 . S
C416 H432 0.931 . S
C417 C416 1.370 . S
C417 C421 1.408 . S
C418 C416 1.363 . S
C418 C419 1.370 . S
C418 C422 1.524 . S
C419 C411 1.503 . S
C419 C418 1.370 . S
C419 C420 1.403 . S
C420 C419 1.403 . S
C420 C421 1.404 . S
C420 C423 1.539 . S
C421 C417 1.408 . S
C421 C420 1.404 . S
C421 H433 0.930 . S
C422 C418 1.524 . S
C422 H434 0.956 . S
C422 H435 0.961 . S
C422 H436 0.961 . S
C423 C420 1.539 . S
C423 H437 0.958 . S
C423 H438 0.961 . S
C423 H439 0.960 . S
H424 C408 0.931 . S
H425 C413 0.929 . S
H426 C414 0.960 . S
H427 C414 0.962 . S
H428 C414 0.960 . S
H429 C415 0.961 . S
H430 C415 0.961 . S
H431 C415 0.961 . S
H432 C416 0.931 . S
H433 C421 0.930 . S
H434 C422 0.956 . S
H435 C422 0.961 . S
H436 C422 0.961 . S
H437 C423 0.958 . S
H438 C423 0.961 . S
H439 C423 0.960 . S
C440 C441 1.391 . S
C440 C442 1.394 . S
C440 H456 0.931 . S
C441 C440 1.391 . S
C441 C445 1.376 1_565 S
C442 C440 1.394 . S
C442 C443 1.330 1_565 S
C442 C446 1.531 . S
C443 C442 1.330 1_545 S
C443 C444 1.430 . S
C443 C451 1.526 1_455 S
C444 C443 1.430 . S
C444 C445 1.392 . S
C444 C447 1.511 1_455 S
C445 C441 1.376 1_545 S
C445 C444 1.392 . S
C445 H457 0.929 . S
C446 C442 1.531 . S
C446 H458 0.960 . S
C446 H459 0.962 . S
C446 H460 0.960 . S
C447 C444 1.511 1_655 S
C447 H461 0.961 1_655 S
C447 H462 0.961 . S
C447 H463 0.961 . S
C448 C449 1.387 . S
C448 C450 1.355 1_655 S
C448 H464 0.923 1_655 S
C449 C448 1.387 . S
C449 C453 1.408 . S
C450 C448 1.355 1_455 S
C450 C451 1.370 1_455 S
C450 C454 1.524 . S
C451 C443 1.526 1_655 S
C451 C450 1.370 1_655 S
C451 C452 1.403 1_545 S
C452 C451 1.403 1_565 S
C452 C453 1.404 1_565 S
C452 C455 1.539 . S
C453 C449 1.408 . S
C453 C452 1.404 1_545 S
C453 H465 0.930 1_545 S
C454 C450 1.524 . S
C454 H466 0.956 . S
C454 H467 0.961 . S
C454 H468 0.961 . S
C455 C452 1.539 . S
C455 H469 0.958 . S
C455 H470 0.961 . S
C455 H471 0.960 . S
H456 C440 0.931 . S
H457 C445 0.929 . S
H458 C446 0.960 . S
H459 C446 0.962 . S
H460 C446 0.960 . S
H461 C447 0.961 1_455 S
H462 C447 0.961 . S
H463 C447 0.961 . S
H464 C448 0.923 1_455 S
H465 C453 0.930 1_565 S
H466 C454 0.956 . S
H467 C454 0.961 . S
H468 C454 0.961 . S
H469 C455 0.958 . S
H470 C455 0.961 . S
H471 C455 0.960 . S
C472 C473 1.391 . S
C472 C474 1.394 . S
C472 H488 0.931 . S
C473 C472 1.391 . S
C473 C477 1.376 . S
C474 C472 1.394 . S
C474 C475 1.369 . S
C474 C478 1.531 . S
C475 C474 1.369 . S
C475 C476 1.410 . S
C475 C483 1.503 . S
C476 C475 1.410 . S
C476 C477 1.392 . S
C476 C479 1.511 . S
C477 C473 1.376 . S
C477 C476 1.392 . S
C477 H489 0.929 . S
C478 C474 1.531 . S
C478 H490 0.960 . S
C478 H491 0.962 . S
C478 H492 0.960 . S
C479 C476 1.511 . S
C479 H493 0.961 . S
C479 H494 0.961 . S
C479 H495 0.961 . S
C480 C481 1.370 . S
C480 C482 1.363 . S
C480 H496 0.931 . S
C481 C480 1.370 . S
C481 C485 1.408 . S
C482 C480 1.363 . S
C482 C483 1.370 . S
C482 C486 1.524 . S
C483 C475 1.503 . S
C483 C482 1.370 . S
C483 C484 1.403 . S
C484 C483 1.403 . S
C484 C485 1.404 . S
C484 C487 1.539 . S
C485 C481 1.408 . S
C485 C484 1.404 . S
C485 H497 0.930 . S
C486 C482 1.524 . S
C486 H498 0.956 . S
C486 H499 0.961 . S
C486 H500 0.961 . S
C487 C484 1.539 . S
C487 H501 0.958 . S
C487 H502 0.961 . S
C487 H503 0.960 . S
H488 C472 0.931 . S
H489 C477 0.929 . S
H490 C478 0.960 . S
H491 C478 0.962 . S
H492 C478 0.960 . S
H493 C479 0.961 . S
H494 C479 0.961 . S
H495 C479 0.961 . S
H496 C480 0.931 . S
H497 C485 0.930 . S
H498 C486 0.956 . S
H499 C486 0.961 . S
H500 C486 0.961 . S
H501 C487 0.958 . S
H502 C487 0.961 . S
H503 C487 0.960 . S
C504 C505 1.391 . S
C504 C506 1.394 . S
C504 H520 0.931 . S
C505 C504 1.391 . S
C505 C509 1.376 . S
C506 C504 1.394 . S
C506 C507 1.369 . S
C506 C510 1.531 . S
C507 C506 1.369 . S
C507 C508 1.410 . S
C507 C515 1.503 . S
C508 C507 1.410 . S
C508 C509 1.392 . S
C508 C511 1.511 . S
C509 C505 1.376 . S
C509 C508 1.392 . S
C509 H521 0.929 . S
C510 C506 1.531 . S
C510 H522 0.960 . S
C510 H523 0.962 . S
C510 H524 0.960 . S
C511 C508 1.511 . S
C511 H525 0.961 . S
C511 H526 0.961 . S
C511 H527 0.961 . S
C512 C513 1.370 . S
C512 C514 1.363 . S
C512 H528 0.931 . S
C513 C512 1.370 . S
C513 C517 1.408 . S
C514 C512 1.363 . S
C514 C515 1.370 . S
C514 C518 1.524 . S
C515 C507 1.503 . S
C515 C514 1.370 . S
C515 C516 1.403 . S
C516 C515 1.403 . S
C516 C517 1.404 . S
C516 C519 1.539 . S
C517 C513 1.408 . S
C517 C516 1.404 . S
C517 H529 0.930 . S
C518 C514 1.524 . S
C518 H530 0.956 . S
C518 H531 0.961 . S
C518 H532 0.961 . S
C519 C516 1.539 . S
C519 H533 0.958 . S
C519 H534 0.961 . S
C519 H535 0.960 . S
H520 C504 0.931 . S
H521 C509 0.929 . S
H522 C510 0.960 . S
H523 C510 0.962 . S
H524 C510 0.960 . S
H525 C511 0.961 . S
H526 C511 0.961 . S
H527 C511 0.961 . S
H528 C512 0.931 . S
H529 C517 0.930 . S
H530 C518 0.956 . S
H531 C518 0.961 . S
H532 C518 0.961 . S
H533 C519 0.958 . S
H534 C519 0.961 . S
H535 C519 0.960 . S
C536 C537 1.391 . S
C536 C538 1.394 . S
C536 H552 0.931 . S
C537 C536 1.391 . S
C537 C541 1.376 . S
C538 C536 1.394 . S
C538 C539 1.369 . S
C538 C542 1.531 . S
C539 C538 1.369 . S
C539 C540 1.410 . S
C539 C547 1.503 . S
C540 C539 1.410 . S
C540 C541 1.392 . S
C540 C543 1.511 . S
C541 C537 1.376 . S
C541 C540 1.392 . S
C541 H553 0.929 . S
C542 C538 1.531 . S
C542 H554 0.960 . S
C542 H555 0.962 . S
C542 H556 0.960 . S
C543 C540 1.511 . S
C543 H557 0.961 . S
C543 H558 0.961 . S
C543 H559 0.961 . S
C544 C545 1.370 . S
C544 C546 1.363 . S
C544 H560 0.931 . S
C545 C544 1.370 . S
C545 C549 1.408 . S
C546 C544 1.363 . S
C546 C547 1.370 . S
C546 C550 1.524 . S
C547 C539 1.503 . S
C547 C546 1.370 . S
C547 C548 1.403 . S
C548 C547 1.403 . S
C548 C549 1.404 . S
C548 C551 1.539 . S
C549 C545 1.408 . S
C549 C548 1.404 . S
C549 H561 0.930 . S
C550 C546 1.524 . S
C550 H562 0.956 . S
C550 H563 0.961 . S
C550 H564 0.961 . S
C551 C548 1.539 . S
C551 H565 0.958 . S
C551 H566 0.961 . S
C551 H567 0.960 . S
H552 C536 0.931 . S
H553 C541 0.929 . S
H554 C542 0.960 . S
H555 C542 0.962 . S
H556 C542 0.960 . S
H557 C543 0.961 . S
H558 C543 0.961 . S
H559 C543 0.961 . S
H560 C544 0.931 . S
H561 C549 0.930 . S
H562 C550 0.956 . S
H563 C550 0.961 . S
H564 C550 0.961 . S
H565 C551 0.958 . S
H566 C551 0.961 . S
H567 C551 0.960 . S
C568 C569 1.391 1_545 S
C568 C570 1.394 . S
C568 H584 0.931 . S
C569 C568 1.391 1_565 S
C569 C573 1.376 . S
C570 C568 1.394 . S
C570 C571 1.369 1_545 S
C570 C574 1.531 . S
C571 C570 1.369 1_565 S
C571 C572 1.410 . S
C571 C579 1.503 . S
C572 C571 1.410 . S
C572 C573 1.392 . S
C572 C575 1.511 . S
C573 C569 1.376 . S
C573 C572 1.392 . S
C573 H585 0.929 . S
C574 C570 1.531 . S
C574 H586 0.960 . S
C574 H587 0.962 . S
C574 H588 0.960 . S
C575 C572 1.511 . S
C575 H589 0.961 . S
C575 H590 0.961 . S
C575 H591 0.961 . S
C576 C577 1.370 . S
C576 C578 1.363 . S
C576 H592 0.931 . S
C577 C576 1.370 . S
C577 C581 1.408 1_565 S
C578 C576 1.363 . S
C578 C579 1.370 . S
C578 C582 1.524 . S
C579 C571 1.503 . S
C579 C578 1.370 . S
C579 C580 1.403 1_565 S
C580 C579 1.403 1_545 S
C580 C581 1.404 . S
C580 C583 1.539 . S
C581 C577 1.408 1_545 S
C581 C580 1.404 . S
C581 H593 0.930 . S
C582 C578 1.524 . S
C582 H594 0.956 . S
C582 H595 0.961 . S
C582 H596 0.961 . S
C583 C580 1.539 . S
C583 H597 0.958 . S
C583 H598 0.961 . S
C583 H599 0.960 . S
H584 C568 0.931 . S
H585 C573 0.929 . S
H586 C574 0.960 . S
H587 C574 0.962 . S
H588 C574 0.960 . S
H589 C575 0.961 . S
H590 C575 0.961 . S
H591 C575 0.961 . S
H592 C576 0.931 . S
H593 C581 0.930 . S
H594 C582 0.956 . S
H595 C582 0.961 . S
H596 C582 0.961 . S
H597 C583 0.958 . S
H598 C583 0.961 . S
H599 C583 0.960 . S
C600 C601 1.391 . S
C600 C602 1.394 . S
C600 H616 0.931 . S
C601 C600 1.391 . S
C601 C605 1.376 . S
C602 C600 1.394 . S
C602 C603 1.369 . S
C602 C606 1.531 . S
C603 C602 1.369 . S
C603 C604 1.410 . S
C603 C611 1.503 . S
C604 C603 1.410 . S
C604 C605 1.392 . S
C604 C607 1.511 . S
C605 C601 1.376 . S
C605 C604 1.392 . S
C605 H617 0.929 . S
C606 C602 1.531 . S
C606 H618 0.960 . S
C606 H619 0.962 . S
C606 H620 0.960 . S
C607 C604 1.511 . S
C607 H621 0.961 . S
C607 H622 0.961 . S
C607 H623 0.961 . S
C608 C609 1.370 . S
C608 C610 1.363 . S
C608 H624 0.931 . S
C609 C608 1.370 . S
C609 C613 1.408 . S
C610 C608 1.363 . S
C610 C611 1.370 . S
C610 C614 1.524 . S
C611 C603 1.503 . S
C611 C610 1.370 . S
C611 C612 1.403 . S
C612 C611 1.403 . S
C612 C613 1.404 . S
C612 C615 1.539 . S
C613 C609 1.408 . S
C613 C612 1.404 . S
C613 H625 0.930 . S
C614 C610 1.524 . S
C614 H626 0.956 . S
C614 H627 0.961 . S
C614 H628 0.961 . S
C615 C612 1.539 . S
C615 H629 0.958 . S
C615 H630 0.961 . S
C615 H631 0.960 . S
H616 C600 0.931 . S
H617 C605 0.929 . S
H618 C606 0.960 . S
H619 C606 0.962 . S
H620 C606 0.960 . S
H621 C607 0.961 . S
H622 C607 0.961 . S
H623 C607 0.961 . S
H624 C608 0.931 . S
H625 C613 0.930 . S
H626 C614 0.956 . S
H627 C614 0.961 . S
H628 C614 0.961 . S
H629 C615 0.958 . S
H630 C615 0.961 . S
H631 C615 0.960 . S
C632 C633 1.391 . S
C632 C634 1.394 . S
C632 H648 0.931 . S
C633 C632 1.391 . S
C633 C637 1.376 . S
C634 C632 1.394 . S
C634 C635 1.369 . S
C634 C638 1.531 . S
C635 C634 1.369 . S
C635 C636 1.410 . S
C635 C643 1.503 . S
C636 C635 1.410 . S
C636 C637 1.392 . S
C636 C639 1.511 . S
C637 C633 1.376 . S
C637 C636 1.392 . S
C637 H649 0.929 . S
C638 C634 1.531 . S
C638 H650 0.960 . S
C638 H651 0.962 . S
C638 H652 0.960 . S
C639 C636 1.511 . S
C639 H653 0.961 . S
C639 H654 0.961 . S
C639 H655 0.961 . S
C640 C641 1.370 . S
C640 C642 1.363 . S
C640 H656 0.931 . S
C641 C640 1.370 . S
C641 C645 1.408 . S
C642 C640 1.363 . S
C642 C643 1.370 . S
C642 C646 1.524 . S
C643 C635 1.503 . S
C643 C642 1.370 . S
C643 C644 1.403 . S
C644 C643 1.403 . S
C644 C645 1.404 . S
C644 C647 1.539 . S
C645 C641 1.408 . S
C645 C644 1.404 . S
C645 H657 0.930 . S
C646 C642 1.524 . S
C646 H658 0.956 . S
C646 H659 0.961 . S
C646 H660 0.961 . S
C647 C644 1.539 . S
C647 H661 0.958 . S
C647 H662 0.961 . S
C647 H663 0.960 . S
H648 C632 0.931 . S
H649 C637 0.929 . S
H650 C638 0.960 . S
H651 C638 0.962 . S
H652 C638 0.960 . S
H653 C639 0.961 . S
H654 C639 0.961 . S
H655 C639 0.961 . S
H656 C640 0.931 . S
H657 C645 0.930 . S
H658 C646 0.956 . S
H659 C646 0.961 . S
H660 C646 0.961 . S
H661 C647 0.958 . S
H662 C647 0.961 . S
H663 C647 0.960 . S
C664 C665 1.391 . S
C664 C666 1.394 . S
C664 H680 0.931 . S
C665 C664 1.391 . S
C665 C669 1.376 . S
C666 C664 1.394 . S
C666 C667 1.369 . S
C666 C670 1.531 . S
C667 C666 1.369 . S
C667 C668 1.410 . S
C667 C675 1.503 . S
C668 C667 1.410 . S
C668 C669 1.392 . S
C668 C671 1.511 . S
C669 C665 1.376 . S
C669 C668 1.392 . S
C669 H681 0.929 . S
C670 C666 1.531 . S
C670 H682 0.960 . S
C670 H683 0.962 . S
C670 H684 0.960 . S
C671 C668 1.511 . S
C671 H685 0.961 . S
C671 H686 0.961 . S
C671 H687 0.961 . S
C672 C673 1.370 . S
C672 C674 1.363 . S
C672 H688 0.931 . S
C673 C672 1.370 . S
C673 C677 1.408 . S
C674 C672 1.363 . S
C674 C675 1.370 . S
C674 C678 1.524 . S
C675 C667 1.503 . S
C675 C674 1.370 . S
C675 C676 1.403 . S
C676 C675 1.403 . S
C676 C677 1.404 . S
C676 C679 1.539 . S
C677 C673 1.408 . S
C677 C676 1.404 . S
C677 H689 0.930 . S
C678 C674 1.524 . S
C678 H690 0.956 . S
C678 H691 0.961 . S
C678 H692 0.961 . S
C679 C676 1.539 . S
C679 H693 0.958 . S
C679 H694 0.961 . S
C679 H695 0.960 . S
H680 C664 0.931 . S
H681 C669 0.929 . S
H682 C670 0.960 . S
H683 C670 0.962 . S
H684 C670 0.960 . S
H685 C671 0.961 . S
H686 C671 0.961 . S
H687 C671 0.961 . S
H688 C672 0.931 . S
H689 C677 0.930 . S
H690 C678 0.956 . S
H691 C678 0.961 . S
H692 C678 0.961 . S
H693 C679 0.958 . S
H694 C679 0.961 . S
H695 C679 0.960 . S
C696 C697 1.391 . S
C696 C698 1.394 . S
C696 H712 0.931 . S
C697 C696 1.391 . S
C697 C701 1.376 . S
C698 C696 1.394 . S
C698 C699 1.369 . S
C698 C702 1.531 . S
C699 C698 1.369 . S
C699 C700 1.410 . S
C699 C707 1.503 . S
C700 C699 1.410 . S
C700 C701 1.392 . S
C700 C703 1.511 . S
C701 C697 1.376 . S
C701 C700 1.392 . S
C701 H713 0.929 . S
C702 C698 1.531 . S
C702 H714 0.960 . S
C702 H715 0.962 . S
C702 H716 0.960 . S
C703 C700 1.511 . S
C703 H717 0.961 . S
C703 H718 0.961 . S
C703 H719 0.961 . S
C704 C705 1.370 . S
C704 C706 1.363 . S
C704 H720 0.931 . S
C705 C704 1.370 . S
C705 C709 1.408 . S
C706 C704 1.363 . S
C706 C707 1.370 . S
C706 C710 1.524 . S
C707 C699 1.503 . S
C707 C706 1.370 . S
C707 C708 1.403 . S
C708 C707 1.403 . S
C708 C709 1.404 . S
C708 C711 1.539 . S
C709 C705 1.408 . S
C709 C708 1.404 . S
C709 H721 0.930 . S
C710 C706 1.524 . S
C710 H722 0.956 . S
C710 H723 0.961 . S
C710 H724 0.961 . S
C711 C708 1.539 . S
C711 H725 0.958 . S
C711 H726 0.961 . S
C711 H727 0.960 . S
H712 C696 0.931 . S
H713 C701 0.929 . S
H714 C702 0.960 . S
H715 C702 0.962 . S
H716 C702 0.960 . S
H717 C703 0.961 . S
H718 C703 0.961 . S
H719 C703 0.961 . S
H720 C704 0.931 . S
H721 C709 0.930 . S
H722 C710 0.956 . S
H723 C710 0.961 . S
H724 C710 0.961 . S
H725 C711 0.958 . S
H726 C711 0.961 . S
H727 C711 0.960 . S
C728 C729 1.391 . S
C728 C730 1.394 . S
C728 H744 0.931 . S
C729 C728 1.391 . S
C729 C733 1.376 . S
C730 C728 1.394 . S
C730 C731 1.369 . S
C730 C734 1.531 . S
C731 C730 1.369 . S
C731 C732 1.410 . S
C731 C739 1.503 . S
C732 C731 1.410 . S
C732 C733 1.392 . S
C732 C735 1.511 . S
C733 C729 1.376 . S
C733 C732 1.392 . S
C733 H745 0.929 . S
C734 C730 1.531 . S
C734 H746 0.960 . S
C734 H747 0.962 . S
C734 H748 0.960 . S
C735 C732 1.511 . S
C735 H749 0.961 . S
C735 H750 0.961 . S
C735 H751 0.961 . S
C736 C737 1.370 . S
C736 C738 1.363 . S
C736 H752 0.931 . S
C737 C736 1.370 . S
C737 C741 1.408 . S
C738 C736 1.363 . S
C738 C739 1.370 . S
C738 C742 1.524 . S
C739 C731 1.503 . S
C739 C738 1.370 . S
C739 C740 1.403 . S
C740 C739 1.403 . S
C740 C741 1.404 . S
C740 C743 1.539 . S
C741 C737 1.408 . S
C741 C740 1.404 . S
C741 H753 0.930 . S
C742 C738 1.524 . S
C742 H754 0.956 . S
C742 H755 0.961 . S
C742 H756 0.961 . S
C743 C740 1.539 . S
C743 H757 0.958 . S
C743 H758 0.961 . S
C743 H759 0.960 . S
H744 C728 0.931 . S
H745 C733 0.929 . S
H746 C734 0.960 . S
H747 C734 0.962 . S
H748 C734 0.960 . S
H749 C735 0.961 . S
H750 C735 0.961 . S
H751 C735 0.961 . S
H752 C736 0.931 . S
H753 C741 0.930 . S
H754 C742 0.956 . S
H755 C742 0.961 . S
H756 C742 0.961 . S
H757 C743 0.958 . S
H758 C743 0.961 . S
H759 C743 0.960 . S
C760 C761 1.391 . S
C760 C762 1.394 . S
C760 H776 0.931 . S
C761 C760 1.391 . S
C761 C765 1.376 . S
C762 C760 1.394 . S
C762 C763 1.369 . S
C762 C766 1.531 1_455 S
C763 C762 1.369 . S
C763 C764 1.410 . S
C763 C771 1.503 . S
C764 C763 1.410 . S
C764 C765 1.392 . S
C764 C767 1.511 . S
C765 C761 1.376 . S
C765 C764 1.392 . S
C765 H777 0.929 . S
C766 C762 1.531 1_655 S
C766 H778 0.960 . S
C766 H779 0.962 . S
C766 H780 0.960 . S
C767 C764 1.511 . S
C767 H781 0.961 . S
C767 H782 0.961 . S
C767 H783 0.961 . S
C768 C769 1.370 . S
C768 C770 1.363 . S
C768 H784 0.931 . S
C769 C768 1.370 . S
C769 C773 1.408 . S
C770 C768 1.363 . S
C770 C771 1.370 . S
C770 C774 1.524 . S
C771 C763 1.503 . S
C771 C770 1.370 . S
C771 C772 1.403 . S
C772 C771 1.403 . S
C772 C773 1.404 . S
C772 C775 1.539 . S
C773 C769 1.408 . S
C773 C772 1.404 . S
C773 H785 0.930 . S
C774 C770 1.524 . S
C774 H786 0.956 . S
C774 H787 0.961 . S
C774 H788 0.961 . S
C775 C772 1.539 . S
C775 H789 0.958 . S
C775 H790 0.961 . S
C775 H791 0.960 . S
H776 C760 0.931 . S
H777 C765 0.929 . S
H778 C766 0.960 . S
H779 C766 0.962 . S
H780 C766 0.960 . S
H781 C767 0.961 . S
H782 C767 0.961 . S
H783 C767 0.961 . S
H784 C768 0.931 . S
H785 C773 0.930 . S
H786 C774 0.956 . S
H787 C774 0.961 . S
H788 C774 0.961 . S
H789 C775 0.958 . S
H790 C775 0.961 . S
H791 C775 0.960 . S
C792 C793 1.391 . S
C792 C794 1.394 . S
C792 H808 0.931 . S
C793 C792 1.391 . S
C793 C797 1.376 . S
C794 C792 1.394 . S
C794 C795 1.369 . S
C794 C798 1.531 . S
C795 C794 1.369 . S
C795 C796 1.410 . S
C795 C803 1.503 . S
C796 C795 1.410 . S
C796 C797 1.392 . S
C796 C799 1.511 . S
C797 C793 1.376 . S
C797 C796 1.392 . S
C797 H809 0.929 . S
C798 C794 1.531 . S
C798 H810 0.960 . S
C798 H811 0.962 . S
C798 H812 0.960 . S
C799 C796 1.511 . S
C799 H813 0.961 . S
C799 H814 0.961 . S
C799 H815 0.961 . S
C800 C801 1.370 . S
C800 C802 1.363 . S
C800 H816 0.931 . S
C801 C800 1.370 . S
C801 C805 1.408 . S
C802 C800 1.363 . S
C802 C803 1.370 . S
C802 C806 1.524 . S
C803 C795 1.503 . S
C803 C802 1.370 . S
C803 C804 1.403 . S
C804 C803 1.403 . S
C804 C805 1.404 . S
C804 C807 1.539 . S
C805 C801 1.408 . S
C805 C804 1.404 . S
C805 H817 0.930 . S
C806 C802 1.524 . S
C806 H818 0.956 . S
C806 H819 0.961 . S
C806 H820 0.961 . S
C807 C804 1.539 . S
C807 H821 0.958 . S
C807 H822 0.961 . S
C807 H823 0.960 . S
H808 C792 0.931 . S
H809 C797 0.929 . S
H810 C798 0.960 . S
H811 C798 0.962 . S
H812 C798 0.960 . S
H813 C799 0.961 . S
H814 C799 0.961 . S
H815 C799 0.961 . S
H816 C800 0.931 . S
H817 C805 0.930 . S
H818 C806 0.956 . S
H819 C806 0.961 . S
H820 C806 0.961 . S
H821 C807 0.958 . S
H822 C807 0.961 . S
H823 C807 0.960 . S
C824 C825 1.391 . S
C824 C826 1.394 . S
C824 H840 0.931 . S
C825 C824 1.391 . S
C825 C829 1.376 1_655 S
C826 C824 1.394 . S
C826 C827 1.369 . S
C826 C830 1.531 . S
C827 C826 1.369 . S
C827 C828 1.410 1_655 S
C827 C835 1.503 . S
C828 C827 1.410 1_455 S
C828 C829 1.392 . S
C828 C831 1.511 . S
C829 C825 1.376 1_455 S
C829 C828 1.392 . S
C829 H841 0.929 . S
C830 C826 1.531 . S
C830 H842 0.960 . S
C830 H843 0.962 . S
C830 H844 0.960 . S
C831 C828 1.511 . S
C831 H845 0.961 . S
C831 H846 0.961 . S
C831 H847 0.961 . S
C832 C833 1.370 . S
C832 C834 1.363 . S
C832 H848 0.931 . S
C833 C832 1.370 . S
C833 C837 1.408 1_655 S
C834 C832 1.363 . S
C834 C835 1.370 . S
C834 C838 1.524 . S
C835 C827 1.503 . S
C835 C834 1.370 . S
C835 C836 1.403 1_655 S
C836 C835 1.403 1_455 S
C836 C837 1.404 . S
C836 C839 1.539 . S
C837 C833 1.408 1_455 S
C837 C836 1.404 . S
C837 H849 0.930 . S
C838 C834 1.524 . S
C838 H850 0.956 . S
C838 H851 0.961 . S
C838 H852 0.961 . S
C839 C836 1.539 . S
C839 H853 0.958 . S
C839 H854 0.961 . S
C839 H855 0.960 . S
H840 C824 0.931 . S
H841 C829 0.929 . S
H842 C830 0.960 . S
H843 C830 0.962 . S
H844 C830 0.960 . S
H845 C831 0.961 . S
H846 C831 0.961 . S
H847 C831 0.961 . S
H848 C832 0.931 . S
H849 C837 0.930 . S
H850 C838 0.956 . S
H851 C838 0.961 . S
H852 C838 0.961 . S
H853 C839 0.958 . S
H854 C839 0.961 . S
H855 C839 0.960 . S
C856 C857 1.391 . S
C856 C858 1.394 . S
C856 H872 0.931 . S
C857 C856 1.391 . S
C857 C861 1.376 . S
C858 C856 1.394 . S
C858 C859 1.369 . S
C858 C862 1.531 . S
C859 C858 1.369 . S
C859 C860 1.410 . S
C859 C867 1.503 . S
C860 C859 1.410 . S
C860 C861 1.392 . S
C860 C863 1.511 . S
C861 C857 1.376 . S
C861 C860 1.392 . S
C861 H873 0.929 . S
C862 C858 1.531 . S
C862 H874 0.960 . S
C862 H875 0.962 . S
C862 H876 0.960 . S
C863 C860 1.511 . S
C863 H877 0.961 . S
C863 H878 0.961 . S
C863 H879 0.961 . S
C864 C865 1.370 . S
C864 C866 1.363 . S
C864 H880 0.931 . S
C865 C864 1.370 . S
C865 C869 1.408 . S
C866 C864 1.363 . S
C866 C867 1.370 . S
C866 C870 1.524 . S
C867 C859 1.503 . S
C867 C866 1.370 . S
C867 C868 1.403 . S
C868 C867 1.403 . S
C868 C869 1.404 . S
C868 C871 1.539 . S
C869 C865 1.408 . S
C869 C868 1.404 . S
C869 H881 0.930 . S
C870 C866 1.524 . S
C870 H882 0.956 . S
C870 H883 0.961 . S
C870 H884 0.961 . S
C871 C868 1.539 . S
C871 H885 0.958 . S
C871 H886 0.961 . S
C871 H887 0.960 . S
H872 C856 0.931 . S
H873 C861 0.929 . S
H874 C862 0.960 . S
H875 C862 0.962 . S
H876 C862 0.960 . S
H877 C863 0.961 . S
H878 C863 0.961 . S
H879 C863 0.961 . S
H880 C864 0.931 . S
H881 C869 0.930 . S
H882 C870 0.956 . S
H883 C870 0.961 . S
H884 C870 0.961 . S
H885 C871 0.958 . S
H886 C871 0.961 . S
H887 C871 0.960 . S
C888 C889 1.391 . S
C888 C890 1.394 . S
C888 H904 0.931 . S
C889 C888 1.391 . S
C889 C893 1.376 . S
C890 C888 1.394 . S
C890 C891 1.369 . S
C890 C894 1.531 . S
C891 C890 1.369 . S
C891 C892 1.410 . S
C891 C899 1.503 . S
C892 C891 1.410 . S
C892 C893 1.392 . S
C892 C895 1.511 . S
C893 C889 1.376 . S
C893 C892 1.392 . S
C893 H905 0.929 . S
C894 C890 1.531 . S
C894 H906 0.960 . S
C894 H907 0.962 . S
C894 H908 0.960 . S
C895 C892 1.511 . S
C895 H909 0.961 . S
C895 H910 0.961 . S
C895 H911 0.961 . S
C896 C897 1.370 . S
C896 C898 1.363 . S
C896 H912 0.931 . S
C897 C896 1.370 . S
C897 C901 1.408 . S
C898 C896 1.363 . S
C898 C899 1.370 . S
C898 C902 1.524 . S
C899 C891 1.503 . S
C899 C898 1.370 . S
C899 C900 1.403 . S
C900 C899 1.403 . S
C900 C901 1.404 . S
C900 C903 1.539 . S
C901 C897 1.408 . S
C901 C900 1.404 . S
C901 H913 0.930 . S
C902 C898 1.524 . S
C902 H914 0.956 . S
C902 H915 0.961 . S
C902 H916 0.961 . S
C903 C900 1.539 . S
C903 H917 0.958 . S
C903 H918 0.961 . S
C903 H919 0.960 . S
H904 C888 0.931 . S
H905 C893 0.929 . S
H906 C894 0.960 . S
H907 C894 0.962 . S
H908 C894 0.960 . S
H909 C895 0.961 . S
H910 C895 0.961 . S
H911 C895 0.961 . S
H912 C896 0.931 . S
H913 C901 0.930 . S
H914 C902 0.956 . S
H915 C902 0.961 . S
H916 C902 0.961 . S
H917 C903 0.958 . S
H918 C903 0.961 . S
H919 C903 0.960 . S
C920 C921 1.391 . S
C920 C922 1.394 1_556 S
C920 H936 0.931 . S
C921 C920 1.391 . S
C921 C925 1.376 1_565 S
C922 C920 1.394 1_554 S
C922 C923 1.369 . S
C922 C926 1.531 . S
C923 C922 1.369 . S
C923 C924 1.410 . S
C923 C931 1.503 . S
C924 C923 1.410 . S
C924 C925 1.392 1_564 S
C924 C927 1.511 1_565 S
C925 C921 1.376 1_545 S
C925 C924 1.392 1_546 S
C925 H937 0.929 . S
C926 C922 1.531 . S
C926 H938 0.960 . S
C926 H939 0.962 1_554 S
C926 H940 0.960 . S
C927 C924 1.511 1_545 S
C927 H941 0.961 1_554 S
C927 H942 0.961 1_545 S
C927 H943 0.961 . S
C928 C929 1.357 1_556 S
C928 C930 1.368 . S
C928 H944 0.940 . S
C929 C928 1.357 1_554 S
C929 C933 1.408 . S
C930 C928 1.368 . S
C930 C931 1.370 1_556 S
C930 C934 1.524 . S
C931 C923 1.503 . S
C931 C930 1.370 1_554 S
C931 C932 1.403 . S
C932 C931 1.403 . S
C932 C933 1.404 . S
C932 C935 1.539 . S
C933 C929 1.408 . S
C933 C932 1.404 . S
C933 H945 0.930 . S
C934 C930 1.524 . S
C934 H946 0.956 . S
C934 H947 0.961 . S
C934 H948 0.961 . S
C935 C932 1.539 . S
C935 H949 0.958 . S
C935 H950 0.961 . S
C935 H951 0.960 . S
H936 C920 0.931 . S
H937 C925 0.929 . S
H938 C926 0.960 . S
H939 C926 0.962 1_556 S
H940 C926 0.960 . S
H941 C927 0.961 1_556 S
H942 C927 0.961 1_565 S
H943 C927 0.961 . S
H944 C928 0.940 . S
H945 C933 0.930 . S
H946 C934 0.956 . S
H947 C934 0.961 . S
H948 C934 0.961 . S
H949 C935 0.958 . S
H950 C935 0.961 . S
H951 C935 0.960 . S
C952 C953 1.391 . S
C952 C954 1.394 . S
C952 H968 0.931 . S
C953 C952 1.391 . S
C953 C957 1.376 . S
C954 C952 1.394 . S
C954 C955 1.369 . S
C954 C958 1.531 . S
C955 C954 1.369 . S
C955 C956 1.410 . S
C955 C963 1.503 . S
C956 C955 1.410 . S
C956 C957 1.392 . S
C956 C959 1.511 . S
C957 C953 1.376 . S
C957 C956 1.392 . S
C957 H969 0.929 . S
C958 C954 1.531 . S
C958 H970 0.960 . S
C958 H971 0.962 . S
C958 H972 0.960 . S
C959 C956 1.511 . S
C959 H973 0.961 . S
C959 H974 0.961 . S
C959 H975 0.961 . S
C960 C961 1.370 . S
C960 C962 1.363 . S
C960 H976 0.931 . S
C961 C960 1.370 . S
C961 C965 1.408 . S
C962 C960 1.363 . S
C962 C963 1.370 . S
C962 C966 1.524 . S
C963 C955 1.503 . S
C963 C962 1.370 . S
C963 C964 1.403 . S
C964 C963 1.403 . S
C964 C965 1.404 . S
C964 C967 1.539 . S
C965 C961 1.408 . S
C965 C964 1.404 . S
C965 H977 0.930 . S
C966 C962 1.524 . S
C966 H978 0.956 . S
C966 H979 0.961 . S
C966 H980 0.961 . S
C967 C964 1.539 . S
C967 H981 0.958 . S
C967 H982 0.961 . S
C967 H983 0.960 . S
H968 C952 0.931 . S
H969 C957 0.929 . S
H970 C958 0.960 . S
H971 C958 0.962 . S
H972 C958 0.960 . S
H973 C959 0.961 . S
H974 C959 0.961 . S
H975 C959 0.961 . S
H976 C960 0.931 . S
H977 C965 0.930 . S
H978 C966 0.956 . S
H979 C966 0.961 . S
H980 C966 0.961 . S
H981 C967 0.958 . S
H982 C967 0.961 . S
H983 C967 0.960 . S
C984 C985 1.391 . S
C984 C986 1.394 . S
C984 H1000 0.931 . S
C985 C984 1.391 . S
C985 C989 1.376 . S
C986 C984 1.394 . S
C986 C987 1.369 . S
C986 C990 1.531 . S
C987 C986 1.369 . S
C987 C988 1.410 . S
C987 C995 1.503 . S
C988 C987 1.410 . S
C988 C989 1.392 . S
C988 C991 1.511 . S
C989 C985 1.376 . S
C989 C988 1.392 . S
C989 H1001 0.929 1_545 S
C990 C986 1.531 . S
C990 H1002 0.960 . S
C990 H1003 0.962 . S
C990 H1004 0.960 . S
C991 C988 1.511 . S
C991 H1005 0.988 . S
C991 H1006 0.961 . S
C991 H1007 0.961 . S
C992 C993 1.370 . S
C992 C994 1.363 . S
C992 H1008 0.931 . S
C993 C992 1.370 . S
C993 C997 1.408 . S
C994 C992 1.363 . S
C994 C995 1.370 . S
C994 C998 1.524 . S
C995 C987 1.503 . S
C995 C994 1.370 . S
C995 C996 1.403 . S
C996 C995 1.403 . S
C996 C997 1.404 . S
C996 C999 1.539 . S
C997 C993 1.408 . S
C997 C996 1.404 . S
C997 H1009 0.930 . S
C998 C994 1.524 . S
C998 H1010 0.956 . S
C998 H1011 0.961 . S
C998 H1012 0.961 . S
C999 C996 1.539 . S
C999 H1013 0.958 . S
C999 H1014 0.961 . S
C999 H1015 0.960 . S
H1000 C984 0.931 . S
H1001 C989 0.929 1_565 S
H1002 C990 0.960 . S
H1003 C990 0.962 . S
H1004 C990 0.960 . S
H1005 C991 0.988 . S
H1006 C991 0.961 . S
H1007 C991 0.961 . S
H1008 C992 0.931 . S
H1009 C997 0.930 . S
H1010 C998 0.956 . S
H1011 C998 0.961 . S
H1012 C998 0.961 . S
H1013 C999 0.958 . S
H1014 C999 0.961 . S
H1015 C999 0.960 . S
C1016 C1017 1.391 . S
C1016 C1018 1.394 . S
C1016 H1032 0.931 . S
C1017 C1016 1.391 . S
C1017 C1021 1.376 . S
C1018 C1016 1.394 . S
C1018 C1019 1.369 . S
C1018 C1022 1.531 . S
C1019 C1018 1.369 . S
C1019 C1020 1.410 . S
C1019 C1027 1.503 . S
C1020 C1019 1.410 . S
C1020 C1021 1.392 . S
C1020 C1023 1.511 . S
C1021 C1017 1.376 . S
C1021 C1020 1.392 . S
C1021 H1033 0.929 . S
C1022 C1018 1.531 . S
C1022 H1034 0.960 . S
C1022 H1035 0.962 . S
C1022 H1036 0.960 . S
C1023 C1020 1.511 . S
C1023 H1037 0.961 . S
C1023 H1038 0.961 . S
C1023 H1039 0.961 . S
C1024 C1025 1.370 . S
C1024 C1026 1.363 . S
C1024 H1040 0.931 . S
C1025 C1024 1.370 . S
C1025 C1029 1.408 . S
C1026 C1024 1.363 . S
C1026 C1027 1.370 . S
C1026 C1030 1.524 . S
C1027 C1019 1.503 . S
C1027 C1026 1.370 . S
C1027 C1028 1.403 . S
C1028 C1027 1.403 . S
C1028 C1029 1.404 . S
C1028 C1031 1.539 . S
C1029 C1025 1.408 . S
C1029 C1028 1.404 . S
C1029 H1041 0.930 . S
C1030 C1026 1.524 . S
C1030 H1042 0.956 . S
C1030 H1043 0.961 . S
C1030 H1044 0.961 . S
C1031 C1028 1.539 . S
C1031 H1045 0.958 . S
C1031 H1046 0.961 . S
C1031 H1047 0.960 . S
H1032 C1016 0.931 . S
H1033 C1021 0.929 . S
H1034 C1022 0.960 . S
H1035 C1022 0.962 . S
H1036 C1022 0.960 . S
H1037 C1023 0.961 . S
H1038 C1023 0.961 . S
H1039 C1023 0.961 . S
H1040 C1024 0.931 . S
H1041 C1029 0.930 . S
H1042 C1030 0.956 . S
H1043 C1030 0.961 . S
H1044 C1030 0.961 . S
H1045 C1031 0.958 . S
H1046 C1031 0.961 . S
H1047 C1031 0.960 . S
C1048 C1049 1.391 . S
C1048 C1050 1.394 . S
C1048 H1064 0.931 . S
C1049 C1048 1.391 . S
C1049 C1053 1.376 . S
C1050 C1048 1.394 . S
C1050 C1051 1.369 . S
C1050 C1054 1.531 . S
C1051 C1050 1.369 . S
C1051 C1052 1.410 . S
C1051 C1059 1.503 . S
C1052 C1051 1.410 . S
C1052 C1053 1.392 . S
C1052 C1055 1.511 . S
C1053 C1049 1.376 . S
C1053 C1052 1.392 . S
C1053 H1065 0.929 . S
C1054 C1050 1.531 . S
C1054 H1066 0.960 . S
C1054 H1067 0.962 . S
C1054 H1068 0.960 . S
C1055 C1052 1.511 . S
C1055 H1069 0.961 . S
C1055 H1070 0.961 . S
C1055 H1071 0.961 . S
C1056 C1057 1.370 . S
C1056 C1058 1.363 . S
C1056 H1072 0.931 . S
C1057 C1056 1.370 . S
C1057 C1061 1.408 . S
C1058 C1056 1.363 . S
C1058 C1059 1.370 . S
C1058 C1062 1.524 . S
C1059 C1051 1.503 . S
C1059 C1058 1.370 . S
C1059 C1060 1.403 . S
C1060 C1059 1.403 . S
C1060 C1061 1.404 . S
C1060 C1063 1.539 . S
C1061 C1057 1.408 . S
C1061 C1060 1.404 . S
C1061 H1073 0.930 . S
C1062 C1058 1.524 . S
C1062 H1074 0.956 . S
C1062 H1075 0.961 . S
C1062 H1076 0.961 . S
C1063 C1060 1.539 . S
C1063 H1077 0.958 . S
C1063 H1078 0.961 . S
C1063 H1079 0.960 . S
H1064 C1048 0.931 . S
H1065 C1053 0.929 . S
H1066 C1054 0.960 . S
H1067 C1054 0.962 . S
H1068 C1054 0.960 . S
H1069 C1055 0.961 . S
H1070 C1055 0.961 . S
H1071 C1055 0.961 . S
H1072 C1056 0.931 . S
H1073 C1061 0.930 . S
H1074 C1062 0.956 . S
H1075 C1062 0.961 . S
H1076 C1062 0.961 . S
H1077 C1063 0.958 . S
H1078 C1063 0.961 . S
H1079 C1063 0.960 . S
C1080 C1081 1.391 . S
C1080 C1082 1.394 . S
C1080 H1096 0.931 . S
C1081 C1080 1.391 . S
C1081 C1085 1.376 . S
C1082 C1080 1.394 . S
C1082 C1083 1.369 . S
C1082 C1086 1.531 . S
C1083 C1082 1.369 . S
C1083 C1084 1.410 . S
C1083 C1091 1.503 . S
C1084 C1083 1.410 . S
C1084 C1085 1.392 . S
C1084 C1087 1.511 . S
C1085 C1081 1.376 . S
C1085 C1084 1.392 . S
C1085 H1097 0.929 . S
C1086 C1082 1.531 . S
C1086 H1098 0.960 . S
C1086 H1099 0.962 . S
C1086 H1100 0.960 . S
C1087 C1084 1.511 . S
C1087 H1101 0.961 . S
C1087 H1102 0.961 . S
C1087 H1103 0.961 . S
C1088 C1089 1.370 . S
C1088 C1090 1.363 . S
C1088 H1104 0.931 . S
C1089 C1088 1.370 . S
C1089 C1093 1.408 . S
C1090 C1088 1.363 . S
C1090 C1091 1.370 . S
C1090 C1094 1.524 . S
C1091 C1083 1.503 . S
C1091 C1090 1.370 . S
C1091 C1092 1.403 . S
C1092 C1091 1.403 . S
C1092 C1093 1.404 . S
C1092 C1095 1.539 . S
C1093 C1089 1.408 . S
C1093 C1092 1.404 . S
C1093 H1105 0.930 . S
C1094 C1090 1.524 . S
C1094 H1106 0.956 . S
C1094 H1107 0.961 . S
C1094 H1108 0.961 . S
C1095 C1092 1.539 . S
C1095 H1109 0.958 . S
C1095 H1110 0.961 . S
C1095 H1111 0.960 . S
H1096 C1080 0.931 . S
H1097 C1085 0.929 . S
H1098 C1086 0.960 . S
H1099 C1086 0.962 . S
H1100 C1086 0.960 . S
H1101 C1087 0.961 . S
H1102 C1087 0.961 . S
H1103 C1087 0.961 . S
H1104 C1088 0.931 . S
H1105 C1093 0.930 . S
H1106 C1094 0.956 . S
H1107 C1094 0.961 . S
H1108 C1094 0.961 . S
H1109 C1095 0.958 . S
H1110 C1095 0.961 . S
H1111 C1095 0.960 . S
C1112 C1113 1.391 . S
C1112 C1114 1.394 . S
C1112 H1128 0.931 . S
C1113 C1112 1.391 . S
C1113 C1117 1.376 . S
C1114 C1112 1.394 . S
C1114 C1115 1.369 . S
C1114 C1118 1.531 . S
C1115 C1114 1.369 . S
C1115 C1116 1.410 . S
C1115 C1123 1.503 . S
C1116 C1115 1.410 . S
C1116 C1117 1.392 . S
C1116 C1119 1.511 . S
C1117 C1113 1.376 . S
C1117 C1116 1.392 . S
C1117 H1129 0.929 . S
C1118 C1114 1.531 . S
C1118 H1130 0.960 . S
C1118 H1131 0.962 . S
C1118 H1132 0.960 . S
C1119 C1116 1.511 . S
C1119 H1133 0.961 . S
C1119 H1134 0.961 . S
C1119 H1135 0.961 . S
C1120 C1121 1.370 . S
C1120 C1122 1.363 . S
C1120 H1136 0.931 . S
C1121 C1120 1.370 . S
C1121 C1125 1.408 . S
C1122 C1120 1.363 . S
C1122 C1123 1.370 . S
C1122 C1126 1.524 . S
C1123 C1115 1.503 . S
C1123 C1122 1.370 . S
C1123 C1124 1.403 . S
C1124 C1123 1.403 . S
C1124 C1125 1.404 . S
C1124 C1127 1.539 . S
C1125 C1121 1.408 . S
C1125 C1124 1.404 . S
C1125 H1137 0.930 . S
C1126 C1122 1.524 . S
C1126 H1138 0.956 . S
C1126 H1139 0.961 . S
C1126 H1140 0.961 . S
C1127 C1124 1.539 . S
C1127 H1141 0.958 . S
C1127 H1142 0.961 . S
C1127 H1143 0.960 . S
H1128 C1112 0.931 . S
H1129 C1117 0.929 . S
H1130 C1118 0.960 . S
H1131 C1118 0.962 . S
H1132 C1118 0.960 . S
H1133 C1119 0.961 . S
H1134 C1119 0.961 . S
H1135 C1119 0.961 . S
H1136 C1120 0.931 . S
H1137 C1125 0.930 . S
H1138 C1126 0.956 . S
H1139 C1126 0.961 . S
H1140 C1126 0.961 . S
H1141 C1127 0.958 . S
H1142 C1127 0.961 . S
H1143 C1127 0.960 . S
C1144 C1145 1.391 . S
C1144 C1146 1.394 . S
C1144 H1160 0.931 . S
C1145 C1144 1.391 . S
C1145 C1149 1.376 . S
C1146 C1144 1.394 . S
C1146 C1147 1.369 . S
C1146 C1150 1.531 . S
C1147 C1146 1.369 . S
C1147 C1148 1.410 . S
C1147 C1155 1.503 . S
C1148 C1147 1.410 . S
C1148 C1149 1.392 . S
C1148 C1151 1.511 . S
C1149 C1145 1.376 . S
C1149 C1148 1.392 . S
C1149 H1161 0.929 . S
C1150 C1146 1.531 . S
C1150 H1162 0.960 . S
C1150 H1163 0.962 . S
C1150 H1164 0.960 . S
C1151 C1148 1.511 . S
C1151 H1165 0.961 . S
C1151 H1166 0.961 . S
C1151 H1167 0.961 . S
C1152 C1153 1.370 1_565 S
C1152 C1154 1.363 . S
C1152 H1168 0.931 . S
C1153 C1152 1.370 1_545 S
C1153 C1157 1.408 . S
C1154 C1152 1.363 . S
C1154 C1155 1.370 1_565 S
C1154 C1158 1.524 . S
C1155 C1147 1.503 . S
C1155 C1154 1.370 1_545 S
C1155 C1156 1.403 . S
C1156 C1155 1.403 . S
C1156 C1157 1.404 . S
C1156 C1159 1.539 . S
C1157 C1153 1.408 . S
C1157 C1156 1.404 . S
C1157 H1169 0.930 . S
C1158 C1154 1.524 . S
C1158 H1170 0.956 . S
C1158 H1171 0.961 . S
C1158 H1172 0.961 . S
C1159 C1156 1.539 . S
C1159 H1173 0.958 . S
C1159 H1174 0.961 . S
C1159 H1175 0.960 . S
H1160 C1144 0.931 . S
H1161 C1149 0.929 . S
H1162 C1150 0.960 . S
H1163 C1150 0.962 . S
H1164 C1150 0.960 . S
H1165 C1151 0.961 . S
H1166 C1151 0.961 . S
H1167 C1151 0.961 . S
H1168 C1152 0.931 . S
H1169 C1157 0.930 . S
H1170 C1158 0.956 . S
H1171 C1158 0.961 . S
H1172 C1158 0.961 . S
H1173 C1159 0.958 . S
H1174 C1159 0.961 . S
H1175 C1159 0.960 . S
C1176 C1177 1.391 . S
C1176 C1178 1.394 . S
C1176 H1192 0.931 . S
C1177 C1176 1.391 . S
C1177 C1181 1.376 . S
C1178 C1176 1.394 . S
C1178 C1179 1.369 . S
C1178 C1182 1.531 . S
C1179 C1178 1.369 . S
C1179 C1180 1.410 . S
C1179 C1187 1.503 . S
C1180 C1179 1.410 . S
C1180 C1181 1.392 . S
C1180 C1183 1.511 . S
C1181 C1177 1.376 . S
C1181 C1180 1.392 . S
C1181 H1193 0.929 . S
C1182 C1178 1.531 . S
C1182 H1194 0.960 . S
C1182 H1195 0.962 . S
C1182 H1196 0.960 . S
C1183 C1180 1.511 . S
C1183 H1197 0.961 . S
C1183 H1198 0.961 . S
C1183 H1199 0.961 . S
C1184 C1185 1.370 . S
C1184 C1186 1.363 . S
C1184 H1200 0.931 . S
C1185 C1184 1.370 . S
C1185 C1189 1.408 . S
C1186 C1184 1.363 . S
C1186 C1187 1.370 . S
C1186 C1190 1.524 . S
C1187 C1179 1.503 . S
C1187 C1186 1.370 . S
C1187 C1188 1.403 . S
C1188 C1187 1.403 . S
C1188 C1189 1.404 . S
C1188 C1191 1.539 . S
C1189 C1185 1.408 . S
C1189 C1188 1.404 . S
C1189 H1201 0.930 . S
C1190 C1186 1.524 . S
C1190 H1202 0.956 . S
C1190 H1203 0.961 . S
C1190 H1204 0.961 . S
C1191 C1188 1.539 . S
C1191 H1205 0.958 . S
C1191 H1206 0.961 . S
C1191 H1207 0.960 . S
H1192 C1176 0.931 . S
H1193 C1181 0.929 . S
H1194 C1182 0.960 . S
H1195 C1182 0.962 . S
H1196 C1182 0.960 . S
H1197 C1183 0.961 . S
H1198 C1183 0.961 . S
H1199 C1183 0.961 . S
H1200 C1184 0.931 . S
H1201 C1189 0.930 . S
H1202 C1190 0.956 . S
H1203 C1190 0.961 . S
H1204 C1190 0.961 . S
H1205 C1191 0.958 . S
H1206 C1191 0.961 . S
H1207 C1191 0.960 . S
C1208 C1209 1.391 . S
C1208 C1210 1.394 . S
C1208 H1224 0.931 . S
C1209 C1208 1.391 . S
C1209 C1213 1.376 . S
C1210 C1208 1.394 . S
C1210 C1211 1.369 . S
C1210 C1214 1.531 . S
C1211 C1210 1.369 . S
C1211 C1212 1.410 . S
C1211 C1219 1.503 . S
C1212 C1211 1.410 . S
C1212 C1213 1.392 . S
C1212 C1215 1.511 . S
C1213 C1209 1.376 . S
C1213 C1212 1.392 . S
C1213 H1225 0.929 . S
C1214 C1210 1.531 . S
C1214 H1226 0.960 . S
C1214 H1227 0.962 . S
C1214 H1228 0.960 . S
C1215 C1212 1.511 . S
C1215 H1229 0.961 . S
C1215 H1230 0.961 . S
C1215 H1231 0.961 . S
C1216 C1217 1.370 . S
C1216 C1218 1.363 . S
C1216 H1232 0.931 . S
C1217 C1216 1.370 . S
C1217 C1221 1.408 . S
C1218 C1216 1.363 . S
C1218 C1219 1.370 . S
C1218 C1222 1.524 . S
C1219 C1211 1.503 . S
C1219 C1218 1.370 . S
C1219 C1220 1.403 . S
C1220 C1219 1.403 . S
C1220 C1221 1.404 . S
C1220 C1223 1.539 . S
C1221 C1217 1.408 . S
C1221 C1220 1.404 . S
C1221 H1233 0.930 . S
C1222 C1218 1.524 . S
C1222 H1234 0.956 . S
C1222 H1235 0.961 . S
C1222 H1236 0.961 . S
C1223 C1220 1.539 . S
C1223 H1237 0.958 . S
C1223 H1238 0.961 . S
C1223 H1239 0.960 . S
H1224 C1208 0.931 . S
H1225 C1213 0.929 . S
H1226 C1214 0.960 . S
H1227 C1214 0.962 . S
H1228 C1214 0.960 . S
H1229 C1215 0.961 . S
H1230 C1215 0.961 . S
H1231 C1215 0.961 . S
H1232 C1216 0.931 . S
H1233 C1221 0.930 . S
H1234 C1222 0.956 . S
H1235 C1222 0.961 . S
H1236 C1222 0.961 . S
H1237 C1223 0.958 . S
H1238 C1223 0.961 . S
H1239 C1223 0.960 . S
C1240 C1241 1.391 . S
C1240 C1242 1.394 . S
C1240 H1256 0.931 . S
C1241 C1240 1.391 . S
C1241 C1245 1.376 . S
C1242 C1240 1.394 . S
C1242 C1243 1.369 . S
C1242 C1246 1.531 . S
C1243 C1242 1.369 . S
C1243 C1244 1.410 . S
C1243 C1251 1.503 . S
C1244 C1243 1.410 . S
C1244 C1245 1.392 . S
C1244 C1247 1.511 . S
C1245 C1241 1.376 . S
C1245 C1244 1.392 . S
C1245 H1257 0.929 . S
C1246 C1242 1.531 . S
C1246 H1258 0.960 . S
C1246 H1259 0.962 . S
C1246 H1260 0.960 . S
C1247 C1244 1.511 . S
C1247 H1261 0.961 . S
C1247 H1262 0.961 . S
C1247 H1263 0.961 . S
C1248 C1249 1.370 . S
C1248 C1250 1.363 . S
C1248 H1264 0.931 . S
C1249 C1248 1.370 . S
C1249 C1253 1.408 . S
C1250 C1248 1.363 . S
C1250 C1251 1.370 . S
C1250 C1254 1.524 . S
C1251 C1243 1.503 . S
C1251 C1250 1.370 . S
C1251 C1252 1.403 . S
C1252 C1251 1.403 . S
C1252 C1253 1.404 . S
C1252 C1255 1.539 . S
C1253 C1249 1.408 . S
C1253 C1252 1.404 . S
C1253 H1265 0.930 . S
C1254 C1250 1.524 . S
C1254 H1266 0.956 . S
C1254 H1267 0.961 . S
C1254 H1268 0.961 . S
C1255 C1252 1.539 . S
C1255 H1269 0.958 . S
C1255 H1270 0.961 . S
C1255 H1271 0.960 . S
H1256 C1240 0.931 . S
H1257 C1245 0.929 . S
H1258 C1246 0.960 . S
H1259 C1246 0.962 . S
H1260 C1246 0.960 . S
H1261 C1247 0.961 . S
H1262 C1247 0.961 . S
H1263 C1247 0.961 . S
H1264 C1248 0.931 . S
H1265 C1253 0.930 . S
H1266 C1254 0.956 . S
H1267 C1254 0.961 . S
H1268 C1254 0.961 . S
H1269 C1255 0.958 . S
H1270 C1255 0.961 . S
H1271 C1255 0.960 . S
C1272 C1273 1.391 . S
C1272 C1274 1.394 1_455 S
C1272 H1288 0.931 1_455 S
C1273 C1272 1.391 . S
C1273 C1277 1.376 . S
C1274 C1272 1.394 1_655 S
C1274 C1275 1.369 1_655 S
C1274 C1278 1.531 . S
C1275 C1274 1.369 1_455 S
C1275 C1276 1.410 . S
C1275 C1283 1.503 1_455 S
C1276 C1275 1.410 . S
C1276 C1277 1.392 . S
C1276 C1279 1.511 . S
C1277 C1273 1.376 . S
C1277 C1276 1.392 . S
C1277 H1289 0.929 . S
C1278 C1274 1.531 . S
C1278 H1290 0.960 . S
C1278 H1291 0.962 . S
C1278 H1292 0.960 . S
C1279 C1276 1.511 . S
C1279 H1293 0.961 . S
C1279 H1294 0.961 . S
C1279 H1295 0.961 . S
C1280 C1281 1.370 . S
C1280 C1282 1.363 . S
C1280 H1296 0.931 . S
C1281 C1280 1.370 . S
C1281 C1285 1.408 . S
C1282 C1280 1.363 . S
C1282 C1283 1.370 . S
C1282 C1286 1.524 1_655 S
C1283 C1275 1.503 1_655 S
C1283 C1282 1.370 . S
C1283 C1284 1.403 . S
C1284 C1283 1.403 . S
C1284 C1285 1.404 . S
C1284 C1287 1.539 1_545 S
C1285 C1281 1.408 . S
C1285 C1284 1.404 . S
C1285 H1297 0.894 1_545 S
C1286 C1282 1.524 1_455 S
C1286 H1298 0.956 . S
C1286 H1299 0.961 . S
C1286 H1300 0.961 . S
C1287 C1284 1.539 1_565 S
C1287 H1301 0.958 . S
C1287 H1302 0.961 . S
C1287 H1303 0.960 . S
H1288 C1272 0.931 1_655 S
H1289 C1277 0.929 . S
H1290 C1278 0.960 . S
H1291 C1278 0.962 . S
H1292 C1278 0.960 . S
H1293 C1279 0.961 . S
H1294 C1279 0.961 . S
H1295 C1279 0.961 . S
H1296 C1280 0.931 . S
H1297 C1285 0.894 1_565 S
H1298 C1286 0.956 . S
H1299 C1286 0.961 . S
H1300 C1286 0.961 . S
H1301 C1287 0.958 . S
H1302 C1287 0.961 . S
H1303 C1287 0.960 . S
C1304 C1305 1.391 . S
C1304 C1306 1.394 . S
C1304 H1320 0.931 . S
C1305 C1304 1.391 . S
C1305 C1309 1.376 . S
C1306 C1304 1.394 . S
C1306 C1307 1.369 . S
C1306 C1310 1.531 . S
C1307 C1306 1.369 . S
C1307 C1308 1.410 . S
C1307 C1315 1.503 . S
C1308 C1307 1.410 . S
C1308 C1309 1.392 . S
C1308 C1311 1.511 . S
C1309 C1305 1.376 . S
C1309 C1308 1.392 . S
C1309 H1321 0.929 . S
C1310 C1306 1.531 . S
C1310 H1322 0.960 . S
C1310 H1323 0.962 . S
C1310 H1324 0.960 . S
C1311 C1308 1.511 . S
C1311 H1325 0.961 . S
C1311 H1326 0.961 . S
C1311 H1327 0.961 . S
C1312 C1313 1.370 . S
C1312 C1314 1.363 . S
C1312 H1328 0.931 . S
C1313 C1312 1.370 . S
C1313 C1317 1.408 . S
C1314 C1312 1.363 . S
C1314 C1315 1.370 . S
C1314 C1318 1.524 . S
C1315 C1307 1.503 . S
C1315 C1314 1.370 . S
C1315 C1316 1.403 . S
C1316 C1315 1.403 . S
C1316 C1317 1.404 . S
C1316 C1319 1.539 . S
C1317 C1313 1.408 . S
C1317 C1316 1.404 . S
C1317 H1329 0.930 . S
C1318 C1314 1.524 . S
C1318 H1330 0.956 . S
C1318 H1331 0.961 . S
C1318 H1332 0.961 . S
C1319 C1316 1.539 . S
C1319 H1333 0.958 . S
C1319 H1334 0.961 . S
C1319 H1335 0.960 . S
H1320 C1304 0.931 . S
H1321 C1309 0.929 . S
H1322 C1310 0.960 . S
H1323 C1310 0.962 . S
H1324 C1310 0.960 . S
H1325 C1311 0.961 . S
H1326 C1311 0.961 . S
H1327 C1311 0.961 . S
H1328 C1312 0.931 . S
H1329 C1317 0.930 . S
H1330 C1318 0.956 . S
H1331 C1318 0.961 . S
H1332 C1318 0.961 . S
H1333 C1319 0.958 . S
H1334 C1319 0.961 . S
H1335 C1319 0.960 . S
C1336 C1337 1.391 . S
C1336 C1338 1.394 . S
C1336 H1352 0.931 . S
C1337 C1336 1.391 . S
C1337 C1341 1.376 . S
C1338 C1336 1.394 . S
C1338 C1339 1.369 . S
C1338 C1342 1.531 . S
C1339 C1338 1.369 . S
C1339 C1340 1.410 . S
C1339 C1347 1.503 . S
C1340 C1339 1.410 . S
C1340 C1341 1.392 . S
C1340 C1343 1.511 . S
C1341 C1337 1.376 . S
C1341 C1340 1.392 . S
C1341 H1353 0.929 . S
C1342 C1338 1.531 . S
C1342 H1354 0.960 . S
C1342 H1355 0.962 . S
C1342 H1356 0.960 . S
C1343 C1340 1.511 . S
C1343 H1357 0.961 . S
C1343 H1358 0.961 . S
C1343 H1359 0.961 . S
C1344 C1345 1.370 . S
C1344 C1346 1.363 . S
C1344 H1360 0.931 . S
C1345 C1344 1.370 . S
C1345 C1349 1.408 . S
C1346 C1344 1.363 . S
C1346 C1347 1.370 . S
C1346 C1350 1.524 . S
C1347 C1339 1.503 . S
C1347 C1346 1.370 . S
C1347 C1348 1.403 . S
C1348 C1347 1.403 . S
C1348 C1349 1.404 . S
C1348 C1351 1.539 . S
C1349 C1345 1.408 . S
C1349 C1348 1.404 . S
C1349 H1361 0.930 . S
C1350 C1346 1.524 . S
C1350 H1362 0.956 . S
C1350 H1363 0.961 . S
C1350 H1364 0.961 . S
C1351 C1348 1.539 . S
C1351 H1365 0.958 . S
C1351 H1366 0.961 . S
C1351 H1367 0.960 . S
H1352 C1336 0.931 . S
H1353 C1341 0.929 . S
H1354 C1342 0.960 . S
H1355 C1342 0.962 . S
H1356 C1342 0.960 . S
H1357 C1343 0.961 . S
H1358 C1343 0.961 . S
H1359 C1343 0.961 . S
H1360 C1344 0.931 . S
H1361 C1349 0.930 . S
H1362 C1350 0.956 . S
H1363 C1350 0.961 . S
H1364 C1350 0.961 . S
H1365 C1351 0.958 . S
H1366 C1351 0.961 . S
H1367 C1351 0.960 . S
C1368 C1369 1.391 . S
C1368 C1370 1.394 . S
C1368 H1384 0.931 . S
C1369 C1368 1.391 . S
C1369 C1373 1.376 . S
C1370 C1368 1.394 . S
C1370 C1371 1.369 . S
C1370 C1374 1.531 . S
C1371 C1370 1.369 . S
C1371 C1372 1.410 . S
C1371 C1379 1.503 . S
C1372 C1371 1.410 . S
C1372 C1373 1.392 . S
C1372 C1375 1.511 . S
C1373 C1369 1.376 . S
C1373 C1372 1.392 . S
C1373 H1385 0.929 . S
C1374 C1370 1.531 . S
C1374 H1386 0.960 . S
C1374 H1387 0.962 . S
C1374 H1388 0.960 . S
C1375 C1372 1.511 . S
C1375 H1389 0.961 . S
C1375 H1390 0.961 . S
C1375 H1391 0.961 . S
C1376 C1377 1.370 . S
C1376 C1378 1.363 . S
C1376 H1392 0.931 . S
C1377 C1376 1.370 . S
C1377 C1381 1.408 . S
C1378 C1376 1.363 . S
C1378 C1379 1.370 . S
C1378 C1382 1.524 . S
C1379 C1371 1.503 . S
C1379 C1378 1.370 . S
C1379 C1380 1.403 . S
C1380 C1379 1.403 . S
C1380 C1381 1.404 . S
C1380 C1383 1.539 . S
C1381 C1377 1.408 . S
C1381 C1380 1.404 . S
C1381 H1393 0.930 . S
C1382 C1378 1.524 . S
C1382 H1394 0.956 . S
C1382 H1395 0.961 . S
C1382 H1396 0.961 . S
C1383 C1380 1.539 . S
C1383 H1397 0.958 . S
C1383 H1398 0.961 . S
C1383 H1399 0.960 . S
H1384 C1368 0.931 . S
H1385 C1373 0.929 . S
H1386 C1374 0.960 . S
H1387 C1374 0.962 . S
H1388 C1374 0.960 . S
H1389 C1375 0.961 . S
H1390 C1375 0.961 . S
H1391 C1375 0.961 . S
H1392 C1376 0.931 . S
H1393 C1381 0.930 . S
H1394 C1382 0.956 . S
H1395 C1382 0.961 . S
H1396 C1382 0.961 . S
H1397 C1383 0.958 . S
H1398 C1383 0.961 . S
H1399 C1383 0.960 . S
C1400 C1401 1.391 . S
C1400 C1402 1.394 . S
C1400 H1416 0.931 . S
C1401 C1400 1.391 . S
C1401 C1405 1.376 1_454 S
C1402 C1400 1.394 . S
C1402 C1403 1.369 1_554 S
C1402 C1406 1.531 . S
C1403 C1402 1.369 1_556 S
C1403 C1404 1.410 1_455 S
C1403 C1411 1.503 . S
C1404 C1403 1.410 1_655 S
C1404 C1405 1.392 . S
C1404 C1407 1.511 . S
C1405 C1401 1.376 1_656 S
C1405 C1404 1.392 . S
C1405 H1417 0.929 . S
C1406 C1402 1.531 . S
C1406 H1418 0.960 . S
C1406 H1419 0.962 1_554 S
C1406 H1420 0.960 . S
C1407 C1404 1.511 . S
C1407 H1421 0.961 . S
C1407 H1422 0.961 . S
C1407 H1423 0.961 . S
C1408 C1409 1.370 . S
C1408 C1410 1.363 . S
C1408 H1424 0.931 . S
C1409 C1408 1.370 . S
C1409 C1413 1.408 . S
C1410 C1408 1.363 . S
C1410 C1411 1.370 . S
C1410 C1414 1.524 . S
C1411 C1403 1.503 . S
C1411 C1410 1.370 . S
C1411 C1412 1.403 . S
C1412 C1411 1.403 . S
C1412 C1413 1.404 . S
C1412 C1415 1.539 1_455 S
C1413 C1409 1.408 . S
C1413 C1412 1.404 . S
C1413 H1425 0.936 . S
C1414 C1410 1.524 . S
C1414 H1426 0.956 . S
C1414 H1427 0.961 . S
C1414 H1428 0.961 . S
C1415 C1412 1.539 1_655 S
C1415 H1429 0.938 1_656 S
C1415 H1430 0.961 . S
C1415 H1431 0.958 1_556 S
H1416 C1400 0.931 . S
H1417 C1405 0.929 . S
H1418 C1406 0.960 . S
H1419 C1406 0.962 1_556 S
H1420 C1406 0.960 . S
H1421 C1407 0.961 . S
H1422 C1407 0.961 . S
H1423 C1407 0.961 . S
H1424 C1408 0.931 . S
H1425 C1413 0.936 . S
H1426 C1414 0.956 . S
H1427 C1414 0.961 . S
H1428 C1414 0.961 . S
H1429 C1415 0.938 1_454 S
H1430 C1415 0.961 . S
H1431 C1415 0.958 1_554 S
C1432 C1433 1.391 . S
C1432 C1434 1.394 . S
C1432 H1448 0.931 . S
C1433 C1432 1.391 . S
C1433 C1437 1.376 . S
C1434 C1432 1.394 . S
C1434 C1435 1.369 . S
C1434 C1438 1.531 . S
C1435 C1434 1.369 . S
C1435 C1436 1.410 . S
C1435 C1443 1.503 . S
C1436 C1435 1.410 . S
C1436 C1437 1.392 . S
C1436 C1439 1.511 . S
C1437 C1433 1.376 . S
C1437 C1436 1.392 . S
C1437 H1449 0.929 . S
C1438 C1434 1.531 . S
C1438 H1450 0.960 . S
C1438 H1451 0.962 . S
C1438 H1452 0.960 . S
C1439 C1436 1.511 . S
C1439 H1453 0.961 . S
C1439 H1454 0.961 . S
C1439 H1455 0.961 . S
C1440 C1441 1.370 . S
C1440 C1442 1.363 . S
C1440 H1456 0.931 . S
C1441 C1440 1.370 . S
C1441 C1445 1.408 . S
C1442 C1440 1.363 . S
C1442 C1443 1.370 . S
C1442 C1446 1.524 . S
C1443 C1435 1.503 . S
C1443 C1442 1.370 . S
C1443 C1444 1.403 . S
C1444 C1443 1.403 . S
C1444 C1445 1.404 . S
C1444 C1447 1.539 . S
C1445 C1441 1.408 . S
C1445 C1444 1.404 . S
C1445 H1457 0.930 . S
C1446 C1442 1.524 . S
C1446 H1458 0.956 . S
C1446 H1459 0.961 . S
C1446 H1460 0.961 . S
C1447 C1444 1.539 . S
C1447 H1461 0.958 . S
C1447 H1462 0.961 . S
C1447 H1463 0.960 . S
H1448 C1432 0.931 . S
H1449 C1437 0.929 . S
H1450 C1438 0.960 . S
H1451 C1438 0.962 . S
H1452 C1438 0.960 . S
H1453 C1439 0.961 . S
H1454 C1439 0.961 . S
H1455 C1439 0.961 . S
H1456 C1440 0.931 . S
H1457 C1445 0.930 . S
H1458 C1446 0.956 . S
H1459 C1446 0.961 . S
H1460 C1446 0.961 . S
H1461 C1447 0.958 . S
H1462 C1447 0.961 . S
H1463 C1447 0.960 . S
C1464 C1465 1.391 . S
C1464 C1466 1.394 . S
C1464 H1480 0.931 1_556 S
C1465 C1464 1.391 . S
C1465 C1469 1.376 . S
C1466 C1464 1.394 . S
C1466 C1467 1.369 . S
C1466 C1470 1.531 . S
C1467 C1466 1.369 . S
C1467 C1468 1.410 . S
C1467 C1475 1.503 . S
C1468 C1467 1.410 . S
C1468 C1469 1.392 . S
C1468 C1471 1.511 . S
C1469 C1465 1.376 . S
C1469 C1468 1.392 . S
C1469 H1481 0.929 . S
C1470 C1466 1.531 . S
C1470 H1482 0.960 . S
C1470 H1483 0.962 . S
C1470 H1484 0.960 . S
C1471 C1468 1.511 . S
C1471 H1485 0.961 1_455 S
C1471 H1486 0.961 1_455 S
C1471 H1487 0.961 . S
C1472 C1473 1.370 . S
C1472 C1474 1.363 . S
C1472 H1488 0.931 . S
C1473 C1472 1.370 . S
C1473 C1477 1.408 . S
C1474 C1472 1.363 . S
C1474 C1475 1.370 . S
C1474 C1478 1.524 . S
C1475 C1467 1.503 . S
C1475 C1474 1.370 . S
C1475 C1476 1.403 . S
C1476 C1475 1.403 . S
C1476 C1477 1.404 . S
C1476 C1479 1.539 . S
C1477 C1473 1.408 . S
C1477 C1476 1.404 . S
C1477 H1489 0.930 . S
C1478 C1474 1.524 . S
C1478 H1490 0.956 . S
C1478 H1491 0.961 . S
C1478 H1492 0.961 . S
C1479 C1476 1.539 . S
C1479 H1493 0.958 . S
C1479 H1494 0.961 . S
C1479 H1495 0.960 . S
H1480 C1464 0.931 1_554 S
H1481 C1469 0.929 . S
H1482 C1470 0.960 . S
H1483 C1470 0.962 . S
H1484 C1470 0.960 . S
H1485 C1471 0.961 1_655 S
H1486 C1471 0.961 1_655 S
H1487 C1471 0.961 . S
H1488 C1472 0.931 . S
H1489 C1477 0.930 . S
H1490 C1478 0.956 . S
H1491 C1478 0.961 . S
H1492 C1478 0.961 . S
H1493 C1479 0.958 . S
H1494 C1479 0.961 . S
H1495 C1479 0.960 . S
C1496 C1497 1.391 . S
C1496 C1498 1.394 . S
C1496 H1512 0.931 . S
C1497 C1496 1.391 . S
C1497 C1501 1.376 . S
C1498 C1496 1.394 . S
C1498 C1499 1.369 . S
C1498 C1502 1.531 . S
C1499 C1498 1.369 . S
C1499 C1500 1.410 . S
C1499 C1507 1.503 . S
C1500 C1499 1.410 . S
C1500 C1501 1.392 . S
C1500 C1503 1.511 . S
C1501 C1497 1.376 . S
C1501 C1500 1.392 . S
C1501 H1513 0.929 . S
C1502 C1498 1.531 . S
C1502 H1514 0.960 . S
C1502 H1515 0.962 . S
C1502 H1516 0.960 . S
C1503 C1500 1.511 . S
C1503 H1517 0.961 . S
C1503 H1518 0.961 . S
C1503 H1519 0.961 . S
C1504 C1505 1.370 . S
C1504 C1506 1.363 . S
C1504 H1520 0.931 . S
C1505 C1504 1.370 . S
C1505 C1509 1.408 . S
C1506 C1504 1.363 . S
C1506 C1507 1.370 . S
C1506 C1510 1.524 . S
C1507 C1499 1.503 . S
C1507 C1506 1.370 . S
C1507 C1508 1.403 . S
C1508 C1507 1.403 . S
C1508 C1509 1.404 . S
C1508 C1511 1.539 . S
C1509 C1505 1.408 . S
C1509 C1508 1.404 . S
C1509 H1521 0.930 . S
C1510 C1506 1.524 . S
C1510 H1522 0.956 . S
C1510 H1523 0.961 . S
C1510 H1524 0.961 . S
C1511 C1508 1.539 . S
C1511 H1525 0.958 . S
C1511 H1526 0.961 . S
C1511 H1527 0.960 . S
H1512 C1496 0.931 . S
H1513 C1501 0.929 . S
H1514 C1502 0.960 . S
H1515 C1502 0.962 . S
H1516 C1502 0.960 . S
H1517 C1503 0.961 . S
H1518 C1503 0.961 . S
H1519 C1503 0.961 . S
H1520 C1504 0.931 . S
H1521 C1509 0.930 . S
H1522 C1510 0.956 . S
H1523 C1510 0.961 . S
H1524 C1510 0.961 . S
H1525 C1511 0.958 . S
H1526 C1511 0.961 . S
H1527 C1511 0.960 . S
C1528 C1529 1.391 . S
C1528 C1530 1.394 . S
C1528 H1544 0.931 . S
C1529 C1528 1.391 . S
C1529 C1533 1.376 . S
C1530 C1528 1.394 . S
C1530 C1531 1.369 . S
C1530 C1534 1.531 . S
C1531 C1530 1.369 . S
C1531 C1532 1.410 . S
C1531 C1539 1.503 . S
C1532 C1531 1.410 . S
C1532 C1533 1.392 . S
C1532 C1535 1.511 . S
C1533 C1529 1.376 . S
C1533 C1532 1.392 . S
C1533 H1545 0.929 . S
C1534 C1530 1.531 . S
C1534 H1546 0.960 . S
C1534 H1547 0.962 . S
C1534 H1548 0.960 . S
C1535 C1532 1.511 . S
C1535 H1549 0.961 . S
C1535 H1550 0.961 . S
C1535 H1551 0.961 . S
C1536 C1537 1.370 . S
C1536 C1538 1.363 . S
C1536 H1552 0.931 . S
C1537 C1536 1.370 . S
C1537 C1541 1.408 . S
C1538 C1536 1.363 . S
C1538 C1539 1.370 . S
C1538 C1542 1.524 . S
C1539 C1531 1.503 . S
C1539 C1538 1.370 . S
C1539 C1540 1.403 . S
C1540 C1539 1.403 . S
C1540 C1541 1.404 . S
C1540 C1543 1.539 . S
C1541 C1537 1.408 . S
C1541 C1540 1.404 . S
C1541 H1553 0.930 . S
C1542 C1538 1.524 . S
C1542 H1554 0.956 . S
C1542 H1555 0.961 . S
C1542 H1556 0.961 . S
C1543 C1540 1.539 . S
C1543 H1557 0.958 . S
C1543 H1558 0.961 . S
C1543 H1559 0.960 . S
H1544 C1528 0.931 . S
H1545 C1533 0.929 . S
H1546 C1534 0.960 . S
H1547 C1534 0.962 . S
H1548 C1534 0.960 . S
H1549 C1535 0.961 . S
H1550 C1535 0.961 . S
H1551 C1535 0.961 . S
H1552 C1536 0.931 . S
H1553 C1541 0.930 . S
H1554 C1542 0.956 . S
H1555 C1542 0.961 . S
H1556 C1542 0.961 . S
H1557 C1543 0.958 . S
H1558 C1543 0.961 . S
H1559 C1543 0.960 . S
C1560 C1561 1.391 . S
C1560 C1562 1.394 . S
C1560 H1576 0.931 . S
C1561 C1560 1.391 . S
C1561 C1565 1.376 . S
C1562 C1560 1.394 . S
C1562 C1563 1.369 . S
C1562 C1566 1.531 . S
C1563 C1562 1.369 . S
C1563 C1564 1.410 . S
C1563 C1571 1.503 . S
C1564 C1563 1.410 . S
C1564 C1565 1.392 . S
C1564 C1567 1.511 . S
C1565 C1561 1.376 . S
C1565 C1564 1.392 . S
C1565 H1577 0.929 . S
C1566 C1562 1.531 . S
C1566 H1578 0.960 . S
C1566 H1579 0.962 . S
C1566 H1580 0.960 . S
C1567 C1564 1.511 . S
C1567 H1581 0.961 . S
C1567 H1582 0.961 . S
C1567 H1583 0.961 . S
C1568 C1569 1.370 . S
C1568 C1570 1.363 . S
C1568 H1584 0.931 . S
C1569 C1568 1.370 . S
C1569 C1573 1.408 . S
C1570 C1568 1.363 . S
C1570 C1571 1.370 . S
C1570 C1574 1.524 . S
C1571 C1563 1.503 . S
C1571 C1570 1.370 . S
C1571 C1572 1.403 . S
C1572 C1571 1.403 . S
C1572 C1573 1.404 . S
C1572 C1575 1.539 . S
C1573 C1569 1.408 . S
C1573 C1572 1.404 . S
C1573 H1585 0.930 . S
C1574 C1570 1.524 . S
C1574 H1586 0.956 . S
C1574 H1587 0.961 . S
C1574 H1588 0.961 . S
C1575 C1572 1.539 . S
C1575 H1589 0.958 . S
C1575 H1590 0.961 . S
C1575 H1591 0.960 . S
H1576 C1560 0.931 . S
H1577 C1565 0.929 . S
H1578 C1566 0.960 . S
H1579 C1566 0.962 . S
H1580 C1566 0.960 . S
H1581 C1567 0.961 . S
H1582 C1567 0.961 . S
H1583 C1567 0.961 . S
H1584 C1568 0.931 . S
H1585 C1573 0.930 . S
H1586 C1574 0.956 . S
H1587 C1574 0.961 . S
H1588 C1574 0.961 . S
H1589 C1575 0.958 . S
H1590 C1575 0.961 . S
H1591 C1575 0.960 . S
C1592 C1593 1.391 . S
C1592 C1594 1.394 . S
C1592 H1608 0.931 1_554 S
C1593 C1592 1.391 . S
C1593 C1597 1.376 . S
C1594 C1592 1.394 . S
C1594 C1595 1.369 . S
C1594 C1598 1.531 . S
C1595 C1594 1.369 . S
C1595 C1596 1.410 . S
C1595 C1603 1.503 . S
C1596 C1595 1.410 . S
C1596 C1597 1.392 . S
C1596 C1599 1.511 . S
C1597 C1593 1.376 . S
C1597 C1596 1.392 . S
C1597 H1609 0.929 . S
C1598 C1594 1.531 . S
C1598 H1610 0.960 . S
C1598 H1611 0.962 . S
C1598 H1612 0.963 1_554 S
C1599 C1596 1.511 . S
C1599 H1613 0.961 . S
C1599 H1614 0.961 . S
C1599 H1615 0.961 . S
C1600 C1601 1.370 . S
C1600 C1602 1.363 . S
C1600 H1616 0.931 . S
C1601 C1600 1.370 . S
C1601 C1605 1.408 . S
C1602 C1600 1.363 . S
C1602 C1603 1.370 . S
C1602 C1606 1.524 . S
C1603 C1595 1.503 . S
C1603 C1602 1.370 . S
C1603 C1604 1.403 . S
C1604 C1603 1.403 . S
C1604 C1605 1.404 . S
C1604 C1607 1.539 . S
C1605 C1601 1.408 . S
C1605 C1604 1.404 . S
C1605 H1617 0.930 . S
C1606 C1602 1.524 . S
C1606 H1618 0.956 . S
C1606 H1619 0.961 . S
C1606 H1620 0.961 . S
C1607 C1604 1.539 . S
C1607 H1621 0.958 . S
C1607 H1622 0.961 . S
C1607 H1623 0.960 . S
H1608 C1592 0.931 1_556 S
H1609 C1597 0.929 . S
H1610 C1598 0.960 . S
H1611 C1598 0.962 . S
H1612 C1598 0.963 1_556 S
H1613 C1599 0.961 . S
H1614 C1599 0.961 . S
H1615 C1599 0.961 . S
H1616 C1600 0.931 . S
H1617 C1605 0.930 . S
H1618 C1606 0.956 . S
H1619 C1606 0.961 . S
H1620 C1606 0.961 . S
H1621 C1607 0.958 . S
H1622 C1607 0.961 . S
H1623 C1607 0.960 . S
C1624 C1625 1.391 . S
C1624 C1626 1.394 . S
C1624 H1640 0.931 . S
C1625 C1624 1.391 . S
C1625 C1629 1.376 . S
C1626 C1624 1.394 . S
C1626 C1627 1.369 . S
C1626 C1630 1.531 . S
C1627 C1626 1.369 . S
C1627 C1628 1.410 . S
C1627 C1635 1.503 . S
C1628 C1627 1.410 . S
C1628 C1629 1.392 . S
C1628 C1631 1.511 . S
C1629 C1625 1.376 . S
C1629 C1628 1.392 . S
C1629 H1641 0.929 . S
C1630 C1626 1.531 . S
C1630 H1642 0.960 . S
C1630 H1643 0.962 . S
C1630 H1644 0.960 . S
C1631 C1628 1.511 . S
C1631 H1645 0.961 . S
C1631 H1646 0.961 . S
C1631 H1647 0.961 . S
C1632 C1633 1.370 . S
C1632 C1634 1.363 . S
C1632 H1648 0.931 . S
C1633 C1632 1.370 . S
C1633 C1637 1.408 . S
C1634 C1632 1.363 . S
C1634 C1635 1.370 . S
C1634 C1638 1.524 . S
C1635 C1627 1.503 . S
C1635 C1634 1.370 . S
C1635 C1636 1.403 . S
C1636 C1635 1.403 . S
C1636 C1637 1.404 . S
C1636 C1639 1.539 . S
C1637 C1633 1.408 . S
C1637 C1636 1.404 . S
C1637 H1649 0.930 . S
C1638 C1634 1.524 . S
C1638 H1650 0.956 . S
C1638 H1651 0.961 . S
C1638 H1652 0.961 . S
C1639 C1636 1.539 . S
C1639 H1653 0.958 . S
C1639 H1654 0.961 . S
C1639 H1655 0.960 . S
H1640 C1624 0.931 . S
H1641 C1629 0.929 . S
H1642 C1630 0.960 . S
H1643 C1630 0.962 . S
H1644 C1630 0.960 . S
H1645 C1631 0.961 . S
H1646 C1631 0.961 . S
H1647 C1631 0.961 . S
H1648 C1632 0.931 . S
H1649 C1637 0.930 . S
H1650 C1638 0.956 . S
H1651 C1638 0.961 . S
H1652 C1638 0.961 . S
H1653 C1639 0.958 . S
H1654 C1639 0.961 . S
H1655 C1639 0.960 . S
C1656 C1657 1.391 . S
C1656 C1658 1.394 . S
C1656 H1672 0.931 . S
C1657 C1656 1.391 . S
C1657 C1661 1.376 . S
C1658 C1656 1.394 . S
C1658 C1659 1.369 . S
C1658 C1662 1.531 . S
C1659 C1658 1.369 . S
C1659 C1660 1.410 . S
C1659 C1667 1.503 . S
C1660 C1659 1.410 . S
C1660 C1661 1.392 . S
C1660 C1663 1.511 . S
C1661 C1657 1.376 . S
C1661 C1660 1.392 . S
C1661 H1673 0.929 . S
C1662 C1658 1.531 . S
C1662 H1674 0.960 . S
C1662 H1675 0.962 . S
C1662 H1676 0.960 . S
C1663 C1660 1.511 . S
C1663 H1677 0.961 . S
C1663 H1678 0.961 . S
C1663 H1679 0.961 . S
C1664 C1665 1.370 . S
C1664 C1666 1.363 . S
C1664 H1680 0.931 . S
C1665 C1664 1.370 . S
C1665 C1669 1.408 . S
C1666 C1664 1.363 . S
C1666 C1667 1.370 . S
C1666 C1670 1.524 . S
C1667 C1659 1.503 . S
C1667 C1666 1.370 . S
C1667 C1668 1.403 . S
C1668 C1667 1.403 . S
C1668 C1669 1.404 . S
C1668 C1671 1.539 . S
C1669 C1665 1.408 . S
C1669 C1668 1.404 . S
C1669 H1681 0.930 . S
C1670 C1666 1.524 . S
C1670 H1682 0.956 . S
C1670 H1683 0.961 . S
C1670 H1684 0.961 . S
C1671 C1668 1.539 . S
C1671 H1685 0.958 . S
C1671 H1686 0.961 . S
C1671 H1687 0.960 . S
H1672 C1656 0.931 . S
H1673 C1661 0.929 . S
H1674 C1662 0.960 . S
H1675 C1662 0.962 . S
H1676 C1662 0.960 . S
H1677 C1663 0.961 . S
H1678 C1663 0.961 . S
H1679 C1663 0.961 . S
H1680 C1664 0.931 . S
H1681 C1669 0.930 . S
H1682 C1670 0.956 . S
H1683 C1670 0.961 . S
H1684 C1670 0.961 . S
H1685 C1671 0.958 . S
H1686 C1671 0.961 . S
H1687 C1671 0.960 . S
C1688 C1689 1.391 . S
C1688 C1690 1.394 . S
C1688 H1704 0.931 . S
C1689 C1688 1.391 . S
C1689 C1693 1.376 . S
C1690 C1688 1.394 . S
C1690 C1691 1.369 . S
C1690 C1694 1.531 . S
C1691 C1690 1.369 . S
C1691 C1692 1.410 . S
C1691 C1699 1.503 . S
C1692 C1691 1.410 . S
C1692 C1693 1.392 . S
C1692 C1695 1.511 . S
C1693 C1689 1.376 . S
C1693 C1692 1.392 . S
C1693 H1705 0.929 . S
C1694 C1690 1.531 . S
C1694 H1706 0.960 . S
C1694 H1707 0.962 . S
C1694 H1708 0.960 . S
C1695 C1692 1.511 . S
C1695 H1709 0.961 . S
C1695 H1710 0.961 . S
C1695 H1711 0.961 . S
C1696 C1697 1.370 . S
C1696 C1698 1.363 . S
C1696 H1712 0.931 . S
C1697 C1696 1.370 . S
C1697 C1701 1.408 . S
C1698 C1696 1.363 . S
C1698 C1699 1.370 . S
C1698 C1702 1.524 . S
C1699 C1691 1.503 . S
C1699 C1698 1.370 . S
C1699 C1700 1.403 . S
C1700 C1699 1.403 . S
C1700 C1701 1.404 . S
C1700 C1703 1.539 . S
C1701 C1697 1.408 . S
C1701 C1700 1.404 . S
C1701 H1713 0.930 . S
C1702 C1698 1.524 . S
C1702 H1714 0.956 . S
C1702 H1715 0.961 . S
C1702 H1716 0.961 . S
C1703 C1700 1.539 . S
C1703 H1717 0.958 . S
C1703 H1718 0.961 . S
C1703 H1719 0.960 . S
H1704 C1688 0.931 . S
H1705 C1693 0.929 . S
H1706 C1694 0.960 . S
H1707 C1694 0.962 . S
H1708 C1694 0.960 . S
H1709 C1695 0.961 . S
H1710 C1695 0.961 . S
H1711 C1695 0.961 . S
H1712 C1696 0.931 . S
H1713 C1701 0.930 . S
H1714 C1702 0.956 . S
H1715 C1702 0.961 . S
H1716 C1702 0.961 . S
H1717 C1703 0.958 . S
H1718 C1703 0.961 . S
H1719 C1703 0.960 . S
C1720 C1721 1.391 . S
C1720 C1722 1.394 . S
C1720 H1736 0.931 . S
C1721 C1720 1.391 . S
C1721 C1725 1.376 . S
C1722 C1720 1.394 . S
C1722 C1723 1.369 . S
C1722 C1726 1.531 . S
C1723 C1722 1.369 . S
C1723 C1724 1.410 . S
C1723 C1731 1.503 . S
C1724 C1723 1.410 . S
C1724 C1725 1.392 . S
C1724 C1727 1.511 . S
C1725 C1721 1.376 . S
C1725 C1724 1.392 . S
C1725 H1737 0.929 . S
C1726 C1722 1.531 . S
C1726 H1738 0.960 . S
C1726 H1739 0.962 . S
C1726 H1740 0.960 . S
C1727 C1724 1.511 . S
C1727 H1741 0.961 . S
C1727 H1742 0.961 . S
C1727 H1743 0.961 . S
C1728 C1729 1.370 . S
C1728 C1730 1.363 . S
C1728 H1744 0.931 . S
C1729 C1728 1.370 . S
C1729 C1733 1.408 . S
C1730 C1728 1.363 . S
C1730 C1731 1.370 . S
C1730 C1734 1.524 . S
C1731 C1723 1.503 . S
C1731 C1730 1.370 . S
C1731 C1732 1.403 . S
C1732 C1731 1.403 . S
C1732 C1733 1.404 . S
C1732 C1735 1.539 . S
C1733 C1729 1.408 . S
C1733 C1732 1.404 . S
C1733 H1745 0.930 . S
C1734 C1730 1.524 . S
C1734 H1746 0.956 . S
C1734 H1747 0.961 . S
C1734 H1748 0.961 . S
C1735 C1732 1.539 . S
C1735 H1749 0.958 . S
C1735 H1750 0.961 . S
C1735 H1751 0.960 . S
H1736 C1720 0.931 . S
H1737 C1725 0.929 . S
H1738 C1726 0.960 . S
H1739 C1726 0.962 . S
H1740 C1726 0.960 . S
H1741 C1727 0.961 . S
H1742 C1727 0.961 . S
H1743 C1727 0.961 . S
H1744 C1728 0.931 . S
H1745 C1733 0.930 . S
H1746 C1734 0.956 . S
H1747 C1734 0.961 . S
H1748 C1734 0.961 . S
H1749 C1735 0.958 . S
H1750 C1735 0.961 . S
H1751 C1735 0.960 . S
C1752 C1753 1.391 . S
C1752 C1754 1.394 . S
C1752 H1768 0.931 . S
C1753 C1752 1.391 . S
C1753 C1757 1.376 . S
C1754 C1752 1.394 . S
C1754 C1755 1.369 . S
C1754 C1758 1.531 . S
C1755 C1754 1.369 . S
C1755 C1756 1.410 . S
C1755 C1763 1.503 . S
C1756 C1755 1.410 . S
C1756 C1757 1.392 . S
C1756 C1759 1.511 . S
C1757 C1753 1.376 . S
C1757 C1756 1.392 . S
C1757 H1769 0.929 . S
C1758 C1754 1.531 . S
C1758 H1770 0.960 . S
C1758 H1771 0.962 . S
C1758 H1772 0.960 . S
C1759 C1756 1.511 . S
C1759 H1773 0.961 1_556 S
C1759 H1774 0.955 1_556 S
C1759 H1775 0.961 . S
C1760 C1761 1.370 1_554 S
C1760 C1762 1.363 . S
C1760 H1776 0.931 . S
C1761 C1760 1.370 1_556 S
C1761 C1765 1.408 . S
C1762 C1760 1.363 . S
C1762 C1763 1.370 1_554 S
C1762 C1766 1.524 . S
C1763 C1755 1.503 . S
C1763 C1762 1.370 1_556 S
C1763 C1764 1.403 . S
C1764 C1763 1.403 . S
C1764 C1765 1.404 . S
C1764 C1767 1.539 . S
C1765 C1761 1.408 . S
C1765 C1764 1.404 . S
C1765 H1777 0.930 . S
C1766 C1762 1.524 . S
C1766 H1778 0.956 . S
C1766 H1779 0.961 . S
C1766 H1780 0.961 . S
C1767 C1764 1.539 . S
C1767 H1781 0.958 . S
C1767 H1782 0.961 . S
C1767 H1783 0.960 . S
H1768 C1752 0.931 . S
H1769 C1757 0.929 . S
H1770 C1758 0.960 . S
H1771 C1758 0.962 . S
H1772 C1758 0.960 . S
H1773 C1759 0.961 1_554 S
H1774 C1759 0.955 1_554 S
H1775 C1759 0.961 . S
H1776 C1760 0.931 . S
H1777 C1765 0.930 . S
H1778 C1766 0.956 . S
H1779 C1766 0.961 . S
H1780 C1766 0.961 . S
H1781 C1767 0.958 . S
H1782 C1767 0.961 . S
H1783 C1767 0.960 . S
C1784 C1785 1.391 . S
C1784 C1786 1.394 . S
C1784 H1800 0.931 . S
C1785 C1784 1.391 . S
C1785 C1789 1.376 . S
C1786 C1784 1.394 . S
C1786 C1787 1.369 . S
C1786 C1790 1.531 . S
C1787 C1786 1.369 . S
C1787 C1788 1.410 . S
C1787 C1795 1.503 . S
C1788 C1787 1.410 . S
C1788 C1789 1.392 . S
C1788 C1791 1.511 . S
C1789 C1785 1.376 . S
C1789 C1788 1.392 . S
C1789 H1801 0.929 . S
C1790 C1786 1.531 . S
C1790 H1802 0.960 . S
C1790 H1803 0.962 . S
C1790 H1804 0.960 . S
C1791 C1788 1.511 . S
C1791 H1805 0.961 . S
C1791 H1806 0.961 . S
C1791 H1807 0.961 . S
C1792 C1793 1.370 . S
C1792 C1794 1.363 . S
C1792 H1808 0.931 . S
C1793 C1792 1.370 . S
C1793 C1797 1.408 . S
C1794 C1792 1.363 . S
C1794 C1795 1.370 . S
C1794 C1798 1.524 . S
C1795 C1787 1.503 . S
C1795 C1794 1.370 . S
C1795 C1796 1.403 . S
C1796 C1795 1.403 . S
C1796 C1797 1.404 . S
C1796 C1799 1.539 . S
C1797 C1793 1.408 . S
C1797 C1796 1.404 . S
C1797 H1809 0.930 . S
C1798 C1794 1.524 . S
C1798 H1810 0.956 . S
C1798 H1811 0.961 . S
C1798 H1812 0.961 . S
C1799 C1796 1.539 . S
C1799 H1813 0.958 . S
C1799 H1814 0.961 . S
C1799 H1815 0.960 . S
H1800 C1784 0.931 . S
H1801 C1789 0.929 . S
H1802 C1790 0.960 . S
H1803 C1790 0.962 . S
H1804 C1790 0.960 . S
H1805 C1791 0.961 . S
H1806 C1791 0.961 . S
H1807 C1791 0.961 . S
H1808 C1792 0.931 . S
H1809 C1797 0.930 . S
H1810 C1798 0.956 . S
H1811 C1798 0.961 . S
H1812 C1798 0.961 . S
H1813 C1799 0.958 . S
H1814 C1799 0.961 . S
H1815 C1799 0.960 . S
C1816 C1817 1.391 . S
C1816 C1818 1.394 . S
C1816 H1832 0.931 . S
C1817 C1816 1.391 . S
C1817 C1821 1.376 . S
C1818 C1816 1.394 . S
C1818 C1819 1.369 . S
C1818 C1822 1.531 . S
C1819 C1818 1.369 . S
C1819 C1820 1.410 . S
C1819 C1827 1.503 . S
C1820 C1819 1.410 . S
C1820 C1821 1.392 . S
C1820 C1823 1.511 1_554 S
C1821 C1817 1.376 . S
C1821 C1820 1.392 . S
C1821 H1833 0.929 1_554 S
C1822 C1818 1.531 . S
C1822 H1834 0.960 . S
C1822 H1835 0.962 . S
C1822 H1836 0.960 . S
C1823 C1820 1.511 1_556 S
C1823 H1837 0.961 . S
C1823 H1838 0.961 . S
C1823 H1839 0.961 . S
C1824 C1825 1.370 . S
C1824 C1826 1.363 . S
C1824 H1840 0.931 . S
C1825 C1824 1.370 . S
C1825 C1829 1.408 . S
C1826 C1824 1.363 . S
C1826 C1827 1.370 . S
C1826 C1830 1.524 . S
C1827 C1819 1.503 . S
C1827 C1826 1.370 . S
C1827 C1828 1.403 . S
C1828 C1827 1.403 . S
C1828 C1829 1.404 . S
C1828 C1831 1.539 . S
C1829 C1825 1.408 . S
C1829 C1828 1.404 . S
C1829 H1841 0.930 . S
C1830 C1826 1.524 . S
C1830 H1842 0.956 . S
C1830 H1843 0.961 . S
C1830 H1844 0.961 . S
C1831 C1828 1.539 . S
C1831 H1845 0.958 . S
C1831 H1846 0.961 . S
C1831 H1847 0.960 . S
H1832 C1816 0.931 . S
H1833 C1821 0.929 1_556 S
H1834 C1822 0.960 . S
H1835 C1822 0.962 . S
H1836 C1822 0.960 . S
H1837 C1823 0.961 . S
H1838 C1823 0.961 . S
H1839 C1823 0.961 . S
H1840 C1824 0.931 . S
H1841 C1829 0.930 . S
H1842 C1830 0.956 . S
H1843 C1830 0.961 . S
H1844 C1830 0.961 . S
H1845 C1831 0.958 . S
H1846 C1831 0.961 . S
H1847 C1831 0.960 . S
C1848 C1849 1.391 1_565 S
C1848 C1850 1.394 . S
C1848 H1864 0.931 . S
C1849 C1848 1.391 1_545 S
C1849 C1853 1.376 . S
C1850 C1848 1.394 . S
C1850 C1851 1.369 . S
C1850 C1854 1.531 . S
C1851 C1850 1.369 . S
C1851 C1852 1.410 1_565 S
C1851 C1859 1.503 . S
C1852 C1851 1.410 1_545 S
C1852 C1853 1.392 . S
C1852 C1855 1.511 . S
C1853 C1849 1.376 . S
C1853 C1852 1.392 . S
C1853 H1865 0.929 . S
C1854 C1850 1.531 . S
C1854 H1866 0.960 . S
C1854 H1867 0.962 . S
C1854 H1868 0.960 . S
C1855 C1852 1.511 . S
C1855 H1869 0.961 . S
C1855 H1870 0.961 . S
C1855 H1871 0.961 . S
C1856 C1857 1.370 . S
C1856 C1858 1.363 . S
C1856 H1872 0.931 . S
C1857 C1856 1.370 . S
C1857 C1861 1.408 . S
C1858 C1856 1.363 . S
C1858 C1859 1.370 . S
C1858 C1862 1.524 . S
C1859 C1851 1.503 . S
C1859 C1858 1.370 . S
C1859 C1860 1.403 . S
C1860 C1859 1.403 . S
C1860 C1861 1.404 . S
C1860 C1863 1.539 1_554 S
C1861 C1857 1.408 . S
C1861 C1860 1.404 . S
C1861 H1873 0.930 . S
C1862 C1858 1.524 . S
C1862 H1874 0.956 . S
C1862 H1875 0.961 . S
C1862 H1876 0.961 . S
C1863 C1860 1.539 1_556 S
C1863 H1877 0.958 . S
C1863 H1878 0.961 . S
C1863 H1879 0.962 . S
H1864 C1848 0.931 . S
H1865 C1853 0.929 . S
H1866 C1854 0.960 . S
H1867 C1854 0.962 . S
H1868 C1854 0.960 . S
H1869 C1855 0.961 . S
H1870 C1855 0.961 . S
H1871 C1855 0.961 . S
H1872 C1856 0.931 . S
H1873 C1861 0.930 . S
H1874 C1862 0.956 . S
H1875 C1862 0.961 . S
H1876 C1862 0.961 . S
H1877 C1863 0.958 . S
H1878 C1863 0.961 . S
H1879 C1863 0.962 . S
C353 C187 1.526 . S
C345 C60 1.552 . S
C385 C195 1.147 . S
C377 C76 1.354 . S
C409 C81 1.637 . S
C417 C215 1.610 . S
C449 C229 1.557 . S
C441 C48 1.599 . S
C481 C244 1.532 . S
C473 C115 1.511 . S
C513 C258 1.613 . S
C505 C136 1.613 . S
C537 C131 1.398 . S
C545 C272 1.409 . S
C577 C278 1.499 . S
C569 C104 1.527 . S
C601 C126 1.526 . S
C609 C292 1.493 . S
C641 C313 1.430 . S
C633 C103 1.446 . S
C665 C120 1.392 . S
C673 C293 1.151 . S
C705 C314 1.434 . S
C697 C142 1.428 . S
C729 C82 1.473 . S
C737 C321 1.221 . S
C761 C54 1.787 . S
C769 C327 1.765 . S
C793 C65 1.397 . S
C801 C320 1.384 . S
C825 C71 1.239 . S
C833 C328 1.250 . S
C857 C37 1.568 . S
C865 C222 1.536 . S
C889 C158 1.933 . S
C897 C223 1.722 . S
C929 C180 1.382 . S
C921 C169 1.408 1_565 S
C961 C201 1.247 . S
C953 C98 1.234 . S
C985 C49 1.718 1_545 S
C993 C236 1.689 . S
C1025 C286 1.453 . S
C1017 C125 1.437 . S
C1057 C237 1.184 . S
C1049 C109 1.334 . S
C1089 C265 1.485 . S
C1081 C137 1.788 . S
C1121 C271 1.507 . S
C1113 C159 1.544 . S
C1145 C175 1.329 . S
C1153 C279 1.116 . S
C1177 C92 1.629 . S
C1185 C243 1.617 . S
C1217 C257 1.564 . S
C1209 C147 1.587 . S
C1241 C38 1.513 . S
C1249 C216 1.530 . S
C1281 C230 1.612 . S
C1273 C4 1.614 . S
C1313 C188 1.410 . S
C1305 C21 1.398 . S
C1345 C194 1.500 . S
C1337 C27 1.527 . S
C1369 C16 1.522 . S
C1377 C306 1.494 . S
C1401 C26 1.446 . S
C1409 C299 1.427 . S
C1433 C43 1.387 . S
C1441 C307 1.194 . S
C1465 C10 1.433 1_556 S
C1473 C300 1.437 . S
C1505 C335 1.226 . S
C1497 C93 1.471 . S
C1537 C341 1.776 . S
C1529 C153 1.791 . S
C1569 C334 1.362 . S
C1561 C164 1.406 . S
C1593 C170 1.238 1_554 S
C1601 C342 1.249 . S
C1625 C114 1.572 . S
C1633 C250 1.553 . S
C1665 C251 1.731 . S
C1657 C59 1.935 . S
C1697 C264 1.367 . S
C1689 C70 1.423 . S
C1729 C285 1.240 . S
C1721 C87 1.250 . S
C1753 C148 1.690 . S
C1761 C208 1.684 . S
C1793 C202 1.451 . S
C1785 C15 1.451 . S
C1817 C32 1.336 . S
C1825 C209 1.137 . S
C1857 C181 1.514 . S
C1849 C5 1.807 . S
