# Generated by pormake.
# Topology cml, (3,6)-cn, num edge types: 1
# Building blocks:
#     Node 0, Type 0, BuildingBlock: CUQRIR_clean_linker_1, # of connection points: 3
#     Node 1, Type 0, BuildingBlock: CUQRIR_clean_linker_1, # of connection points: 3
#     Node 2, Type 0, BuildingBlock: CUQRIR_clean_linker_1, # of connection points: 3
#     Node 3, Type 0, BuildingBlock: CUQRIR_clean_linker_1, # of connection points: 3
#     Node 4, Type 0, BuildingBlock: CUQRIR_clean_linker_1, # of connection points: 3
#     Node 5, Type 0, BuildingBlock: CUQRIR_clean_linker_1, # of connection points: 3
#     Node 6, Type 0, BuildingBlock: CUQRIR_clean_linker_1, # of connection points: 3
#     Node 7, Type 0, BuildingBlock: CUQRIR_clean_linker_1, # of connection points: 3
#     Node 8, Type 1, BuildingBlock: IZENUY_clean_sbu_0, # of connection points: 6
#     Node 9, Type 1, BuildingBlock: IZENUY_clean_sbu_0, # of connection points: 6
#     Node 10, Type 1, BuildingBlock: IZENUY_clean_sbu_0, # of connection points: 6
#     Node 11, Type 1, BuildingBlock: IZENUY_clean_sbu_0, # of connection points: 6
#     Edge 12, Type (0, 1), BuildingBlock: AJUNOK_clean_linker_0, # of connection points: 2
#     Edge 13, Type (0, 1), BuildingBlock: AJUNOK_clean_linker_0, # of connection points: 2
#     Edge 14, Type (0, 1), BuildingBlock: AJUNOK_clean_linker_0, # of connection points: 2
#     Edge 15, Type (0, 1), BuildingBlock: AJUNOK_clean_linker_0, # of connection points: 2
#     Edge 16, Type (0, 1), BuildingBlock: AJUNOK_clean_linker_0, # of connection points: 2
#     Edge 17, Type (0, 1), BuildingBlock: AJUNOK_clean_linker_0, # of connection points: 2
#     Edge 18, Type (0, 1), BuildingBlock: AJUNOK_clean_linker_0, # of connection points: 2
#     Edge 19, Type (0, 1), BuildingBlock: AJUNOK_clean_linker_0, # of connection points: 2
#     Edge 20, Type (0, 1), BuildingBlock: AJUNOK_clean_linker_0, # of connection points: 2
#     Edge 21, Type (0, 1), BuildingBlock: AJUNOK_clean_linker_0, # of connection points: 2
#     Edge 22, Type (0, 1), BuildingBlock: AJUNOK_clean_linker_0, # of connection points: 2
#     Edge 23, Type (0, 1), BuildingBlock: AJUNOK_clean_linker_0, # of connection points: 2
#     Edge 24, Type (0, 1), BuildingBlock: AJUNOK_clean_linker_0, # of connection points: 2
#     Edge 25, Type (0, 1), BuildingBlock: AJUNOK_clean_linker_0, # of connection points: 2
#     Edge 26, Type (0, 1), BuildingBlock: AJUNOK_clean_linker_0, # of connection points: 2
#     Edge 27, Type (0, 1), BuildingBlock: AJUNOK_clean_linker_0, # of connection points: 2
#     Edge 28, Type (0, 1), BuildingBlock: AJUNOK_clean_linker_0, # of connection points: 2
#     Edge 29, Type (0, 1), BuildingBlock: AJUNOK_clean_linker_0, # of connection points: 2
#     Edge 30, Type (0, 1), BuildingBlock: AJUNOK_clean_linker_0, # of connection points: 2
#     Edge 31, Type (0, 1), BuildingBlock: AJUNOK_clean_linker_0, # of connection points: 2
#     Edge 32, Type (0, 1), BuildingBlock: AJUNOK_clean_linker_0, # of connection points: 2
#     Edge 33, Type (0, 1), BuildingBlock: AJUNOK_clean_linker_0, # of connection points: 2
#     Edge 34, Type (0, 1), BuildingBlock: AJUNOK_clean_linker_0, # of connection points: 2
#     Edge 35, Type (0, 1), BuildingBlock: AJUNOK_clean_linker_0, # of connection points: 2
# Relax obj value: 0.001
# Max RMSD: 0.074
# Mean RMSD: 0.056
data_MOF--net-cml--node1-IZENUY_clean_sbu_0--node2-CUQRIR_clean_linker_1--edge1-AJUNOK_clean_linker_0
_symmetry_space_group_name_H-M    P1
_symmetry_Int_Tables_number       1
_symmetry_cell_setting            triclinic
loop_
_symmetry_equiv_pos_as_xyz
'x, y, z'
_cell_length_a     24.906178
_cell_length_b     27.027993
_cell_length_c     22.893305
_cell_angle_alpha  90.097334
_cell_angle_beta   89.797986
_cell_angle_gamma 89.989294
loop_
_atom_site_label
_atom_site_type_symbol
_atom_site_fract_x
_atom_site_fract_y
_atom_site_fract_z
_atom_type_partial_charge
C0 C 0.25666 0.35635 0.05918 0.0
N1 N 0.29559 0.39099 0.06518 0.0
N2 N 0.23429 0.3587 1.0054 0.0
C3 C 0.23806 0.32212 0.10692 0.0
C4 C 0.26061 0.39652 0.97906 0.0
N5 N 0.29727 0.41654 1.01566 0.0
C6 C 0.25476 0.41065 0.91584 0.0
H7 H 0.2584 0.28584 0.10218 0.0
H8 H 0.19415 0.31578 0.10361 0.0
H9 H 0.24758 0.33749 0.15065 0.0
H10 H 0.2278 0.44322 0.9128 0.0
H11 H 0.23753 0.37998 0.8897 0.0
H12 H 0.2942 0.42124 0.89693 0.0
C13 C 0.76303 0.6944 0.55738 0.0
N14 N 0.72532 0.65855 0.56283 0.0
N15 N 0.789 0.69023 0.50553 0.0
C16 C 0.77241 0.73508 0.60123 0.0
C17 C 0.76596 0.65052 0.47972 0.0
N18 N 0.72755 0.63098 0.51469 0.0
C19 C 0.77841 0.63275 0.4189 0.0
H20 H 0.74394 0.76574 0.59251 0.0
H21 H 0.81353 0.75037 0.59815 0.0
H22 H 0.76531 0.72148 0.6463 0.0
H23 H 0.81664 0.6485 0.40232 0.0
H24 H 0.74526 0.64388 0.38945 0.0
H25 H 0.78101 0.5918 0.41804 0.0
C26 C 0.76592 0.36088 0.06914 0.0
N27 N 0.72736 0.39622 0.06792 0.0
N28 N 0.78875 0.35531 1.01571 0.0
C29 C 0.77906 0.32996 0.12173 0.0
C30 C 0.76258 0.38848 0.98184 0.0
N31 N 0.72471 0.41291 1.01334 0.0
C32 C 0.77242 0.39548 0.91741 0.0
H33 H 0.7818 0.3536 0.16122 0.0
H34 H 0.81739 0.30963 0.11583 0.0
H35 H 0.74615 0.30298 0.12908 0.0
H36 H 0.74661 0.36935 0.89281 0.0
H37 H 0.81464 0.38769 0.90536 0.0
H38 H 0.76247 0.43376 0.9038 0.0
C39 C 0.26427 0.69592 0.56526 0.0
N40 N 0.29824 0.65681 0.5658 0.0
N41 N 0.23597 0.69707 0.51465 0.0
C42 C 0.26418 0.73603 0.61097 0.0
C43 C 0.25481 0.65742 0.48443 0.0
N44 N 0.29327 0.63343 0.515 0.0
C45 C 0.23329 0.64008 0.42655 0.0
H46 H 0.23806 0.72456 0.64789 0.0
H47 H 0.24934 0.77159 0.59312 0.0
H48 H 0.30522 0.74163 0.6285 0.0
H49 H 0.2564 0.6577 0.39069 0.0
H50 H 0.19038 0.65032 0.4218 0.0
H51 H 0.23753 0.59936 0.42219 0.0
C52 C 0.75706 0.85836 0.06351 0.0
N53 N 0.79601 0.89333 0.06569 0.0
N54 N 0.73716 0.85417 1.00884 0.0
C55 C 0.73672 0.82982 0.11546 0.0
C56 C 0.7649 0.88817 0.97769 0.0
N57 N 0.80074 0.91211 1.01211 0.0
C58 C 0.76029 0.89472 0.91261 0.0
H59 H 0.76134 0.796 0.12118 0.0
H60 H 0.69432 0.81848 0.10909 0.0
H61 H 0.74003 0.8524 0.15582 0.0
H62 H 0.72996 0.92375 0.90352 0.0
H63 H 0.74706 0.85993 0.89127 0.0
H64 H 0.79917 0.9064 0.89328 0.0
C65 C 0.26035 0.19346 0.56469 0.0
N66 N 0.22429 0.15595 0.56499 0.0
N67 N 0.28517 0.19653 0.51206 0.0
C68 C 0.26841 0.22936 0.61416 0.0
C69 C 0.26314 0.15932 0.48056 0.0
N70 N 0.22544 0.13522 0.51228 0.0
C71 C 0.28135 0.14401 0.4204 0.0
H72 H 0.27944 0.2665 0.5974 0.0
H73 H 0.30167 0.21582 0.64201 0.0
H74 H 0.23178 0.23247 0.64163 0.0
H75 H 0.32323 0.15614 0.41195 0.0
H76 H 0.25488 0.16104 0.3872 0.0
H77 H 0.27871 0.10323 0.41543 0.0
C78 C 0.26411 0.8568 0.05982 0.0
N79 N 0.22706 0.89339 0.06449 0.0
N80 N 0.29035 0.85967 1.00801 0.0
C81 C 0.2726 0.81639 0.10401 0.0
C82 C 0.26853 0.89972 0.98181 0.0
N83 N 0.23027 0.92038 1.01614 0.0
C84 C 0.28329 0.91802 0.92189 0.0
H85 H 0.31605 0.81047 0.11147 0.0
H86 H 0.2558 0.78132 0.08667 0.0
H87 H 0.2532 0.82516 0.14644 0.0
H88 H 0.25376 0.90377 0.88983 0.0
H89 H 0.32399 0.90527 0.90896 0.0
H90 H 0.28164 0.95904 0.92067 0.0
C91 C 0.75729 0.19429 0.55976 0.0
N92 N 0.79446 0.15801 0.56563 0.0
N93 N 0.73095 0.18952 0.5084 0.0
C94 C 0.749 0.236 0.60257 0.0
C95 C 0.75322 0.14903 0.48333 0.0
N96 N 0.79143 0.12947 0.51832 0.0
C97 C 0.74027 0.13065 0.42299 0.0
H98 H 0.75553 0.22302 0.64795 0.0
H99 H 0.7084 0.25234 0.59923 0.0
H100 H 0.77848 0.2657 0.59304 0.0
H101 H 0.77001 0.14611 0.39178 0.0
H102 H 0.69952 0.14253 0.40949 0.0
H103 H 0.74297 0.08974 0.42091 0.0
Fe104 Fe 0.01384 0.85432 0.32847 0.0
Fe105 Fe 0.00947 0.9111 0.44491 0.0
O106 O 0.01148 0.91117 0.36715 0.0
Fe107 Fe 0.01073 0.96818 0.32827 0.0
O108 O 0.94908 0.95196 0.28979 0.0
O109 O 0.97398 0.87632 0.26682 0.0
O110 O 0.95133 0.83331 0.36119 0.0
C111 C 0.9433 0.82941 0.41531 0.0
C112 C 0.08217 0.90854 0.26057 0.0
O113 O 0.97155 0.85319 0.4515 0.0
C114 C 0.07855 0.99125 0.41808 0.0
O115 O 0.0548 0.82207 0.38323 0.0
O116 O 0.07277 0.87844 0.44998 0.0
O117 O 0.05239 0.94616 0.26685 0.0
O118 O 0.07596 0.87074 0.29207 0.0
C119 C 0.93897 0.98598 0.42335 0.0
O120 O 0.04771 0.96861 0.45297 0.0
O121 O 0.07206 0.98853 0.36348 0.0
C122 C 0.08302 0.83784 0.42526 0.0
O123 O 0.94578 0.94393 0.44598 0.0
O124 O 0.96934 1.00104 0.38258 0.0
C125 C 0.94333 0.91314 0.25953 0.0
Fe126 Fe 0.01515 0.13971 0.94364 0.0
Fe127 Fe 0.00836 0.08286 0.82763 0.0
O128 O 0.01103 0.13977 0.86614 0.0
Fe129 Fe 0.00934 0.19662 0.82726 0.0
O130 O 0.07346 0.21595 0.85683 0.0
O131 O 0.0558 0.19621 0.94818 0.0
O132 O 0.07757 0.10476 0.94263 0.0
C133 C 0.08197 0.06241 0.91973 0.0
C134 C 0.94427 0.21579 0.92691 0.0
O135 O 0.05 0.04887 0.87993 0.0
C136 C 0.93667 0.14392 0.76343 0.0
O137 O 0.97557 0.08306 0.95355 0.0
O138 O 0.94696 0.06464 0.86534 0.0
O139 O 0.97253 0.23056 0.8843 0.0
O140 O 0.95279 0.17432 0.95035 0.0
C141 C 0.07546 0.13546 0.75606 0.0
O142 O 0.96608 0.10598 0.76807 0.0
O143 O 0.94518 0.18193 0.79415 0.0
C144 C 0.94294 0.06117 0.92018 0.0
O145 O 0.06966 0.09728 0.78726 0.0
O146 O 0.0458 0.17301 0.76326 0.0
C147 C 0.084 0.2186 0.91054 0.0
Fe148 Fe 0.50931 0.35349 0.32915 0.0
Fe149 Fe 0.51144 0.41072 0.44529 0.0
O150 O 0.50981 0.41051 0.36765 0.0
Fe151 Fe 0.50886 0.46731 0.32869 0.0
O152 O 0.46777 0.44403 0.26775 0.0
O153 O 0.44642 0.36827 0.29388 0.0
O154 O 0.46982 0.32026 0.38456 0.0
C155 C 0.44026 0.33588 0.42571 0.0
C156 C 0.57746 0.41393 0.25926 0.0
O157 O 0.44889 0.37685 0.45018 0.0
C158 C 0.5798 0.48701 0.4233 0.0
O159 O 0.57259 0.33429 0.36144 0.0
O160 O 0.55074 0.35362 0.45168 0.0
O161 O 0.57107 0.45228 0.2902 0.0
O162 O 0.54791 0.37634 0.26637 0.0
C163 C 0.44035 0.48943 0.41885 0.0
O164 O 0.57429 0.44488 0.44614 0.0
O165 O 0.54926 0.50118 0.38249 0.0
C166 C 0.57992 0.33029 0.41569 0.0
O167 O 0.47177 0.46749 0.45353 0.0
O168 O 0.44689 0.48649 0.3642 0.0
C169 C 0.43884 0.40577 0.26227 0.0
Fe170 Fe 0.51157 0.63948 0.94346 0.0
Fe171 Fe 0.5118 0.5809 0.82785 0.0
O172 O 0.5115 0.6382 0.86593 0.0
Fe173 Fe 0.51093 0.69479 0.82664 0.0
O174 O 0.5494 0.72972 0.88128 0.0
O175 O 0.5744 0.67362 0.94477 0.0
O176 O 0.55134 0.58299 0.95208 0.0
C177 C 0.5808 0.55887 0.91716 0.0
C178 C 0.44044 0.71749 0.91391 0.0
O179 O 0.57368 0.56109 0.86262 0.0
C180 C 0.44354 0.6335 0.75805 0.0
O181 O 0.44897 0.60492 0.94759 0.0
O182 O 0.47141 0.54813 0.8827 0.0
O183 O 0.44733 0.71292 0.85953 0.0
O184 O 0.47178 0.69651 0.94956 0.0
C185 C 0.58203 0.64191 0.76046 0.0
O186 O 0.44945 0.59578 0.78987 0.0
O187 O 0.47319 0.67097 0.76425 0.0
C188 C 0.44252 0.56269 0.92501 0.0
O189 O 0.55303 0.60366 0.76656 0.0
O190 O 0.57394 0.68027 0.79085 0.0
C191 C 0.58109 0.71513 0.92076 0.0
C192 C 0.20767 0.27316 0.98093 0.0
C193 C 0.19689 0.32428 0.97985 0.0
C194 C 0.17124 0.23894 0.95749 0.0
C195 C 0.12359 0.25493 0.93098 0.0
H196 H 0.24452 0.25966 1.00009 0.0
H197 H 0.18032 0.19979 0.96011 0.0
S198 S 0.07595 0.38426 0.91844 0.0
N199 N 0.13431 0.38886 0.95215 0.0
N200 N 0.06689 0.32465 0.90565 0.0
C201 C 0.1126 0.30581 0.92897 0.0
C202 C 0.14909 0.34053 0.95391 0.0
C203 C 0.81635 0.75292 0.43297 0.0
C204 C 0.82853 0.7232 0.48146 0.0
C205 C 0.85409 0.78676 0.4108 0.0
C206 C 0.90464 0.79234 0.43727 0.0
H207 H 0.77722 0.7503 0.41274 0.0
H208 H 0.84322 0.80949 0.37375 0.0
S209 S 0.95698 0.71905 0.56156 0.0
N210 N 0.89541 0.69805 0.55181 0.0
N211 N 0.96584 0.76271 0.51203 0.0
C212 C 0.91741 0.76182 0.48496 0.0
C213 C 0.87947 0.7269 0.50654 0.0
C214 C 0.87825 0.33533 0.97612 0.0
C215 C 0.82821 0.31951 0.99731 0.0
C216 C 0.9156 0.30141 0.95369 0.0
C217 C 0.90473 0.25027 0.95306 0.0
H218 H 0.88803 0.37437 0.97601 0.0
H219 H 0.95336 0.31535 0.93684 0.0
S220 S 0.77968 0.19016 1.00512 0.0
N221 N 0.76945 0.24982 1.0166 0.0
N222 N 0.8406 0.1855 0.97681 0.0
C223 C 0.85541 0.23387 0.97593 0.0
C224 C 0.81692 0.26863 0.99757 0.0
C225 C 0.20456 0.75467 0.43808 0.0
C226 C 0.19874 0.73428 0.49435 0.0
C227 C 0.16711 0.78856 0.41605 0.0
C228 C 0.12389 0.8049 0.4505 0.0
H229 H 0.23813 0.74403 0.4107 0.0
H230 H 0.1721 0.80226 0.3719 0.0
S231 S 0.09143 0.76473 0.60112 0.0
N232 N 0.14539 0.73244 0.58335 0.0
N233 N 0.0782 0.80003 0.54412 0.0
C234 C 0.11869 0.78651 0.50754 0.0
C235 C 0.15542 0.75033 0.52901 0.0
C236 C 0.65133 0.83524 0.96063 0.0
C237 C 0.69862 0.8189 0.98751 0.0
C238 C 0.61367 0.80136 0.93894 0.0
C239 C 0.62193 0.74991 0.94372 0.0
H240 H 0.64347 0.87449 0.95667 0.0
H241 H 0.57752 0.81565 0.9189 0.0
S242 S 0.74212 0.68891 1.00617 0.0
N243 N 0.75373 0.74866 1.01444 0.0
N244 N 0.68262 0.68465 0.97488 0.0
C245 C 0.66955 0.73327 0.97004 0.0
C246 C 0.70801 0.76785 0.99161 0.0
C247 C 0.37086 0.24168 0.52173 0.0
C248 C 0.32233 0.23368 0.49204 0.0
C249 C 0.40851 0.27611 0.50092 0.0
C250 C 0.39886 0.30296 0.44951 0.0
H251 H 0.38003 0.22047 0.56051 0.0
H252 H 0.44579 0.28099 0.5244 0.0
S253 S 0.2762 0.29893 0.35902 0.0
N254 N 0.26477 0.25862 0.41182 0.0
N255 N 0.33681 0.32147 0.37118 0.0
C256 C 0.35016 0.29617 0.42027 0.0
C257 C 0.3115 0.26193 0.44196 0.0
C258 C 0.37727 0.8163 1.00982 0.0
C259 C 0.32732 0.82431 0.98342 0.0
C260 C 0.41334 0.78132 0.9872 0.0
C261 C 0.40109 0.7538 0.93664 0.0
H262 H 0.38849 0.83743 0.04809 0.0
H263 H 0.4515 0.77637 1.00901 0.0
S264 S 0.27455 0.76045 0.85228 0.0
N265 N 0.26636 0.80112 0.90556 0.0
N266 N 0.33506 0.73664 0.86135 0.0
C267 C 0.35135 0.76187 0.90951 0.0
C268 C 0.31423 0.79685 0.9333 0.0
C269 C 0.70481 0.25095 0.43395 0.0
C270 C 0.69215 0.22279 0.48371 0.0
C271 C 0.66794 0.2852 0.41116 0.0
C272 C 0.61776 0.29277 0.43818 0.0
H273 H 0.74372 0.24687 0.41325 0.0
H274 H 0.67924 0.30672 0.37317 0.0
S275 S 0.56404 0.22391 0.56581 0.0
N276 N 0.62492 0.2011 0.55585 0.0
N277 N 0.55622 0.26651 0.51491 0.0
C278 C 0.60442 0.26371 0.48711 0.0
C279 C 0.64146 0.22838 0.50937 0.0
C280 C 0.31824 0.50303 0.99057 0.0
C281 C 0.33555 0.45428 1.00064 0.0
C282 C 0.35357 0.53888 0.9681 0.0
C283 C 0.40679 0.52645 0.95365 0.0
H284 H 0.27678 0.51295 0.99883 0.0
H285 H 0.33865 0.57585 0.9598 0.0
S286 S 0.4719 0.40434 0.97526 0.0
N287 N 0.40934 0.396 0.9974 0.0
N288 N 0.47584 0.46273 0.95441 0.0
C289 C 0.42476 0.47805 0.96515 0.0
C290 C 0.38907 0.44205 0.98886 0.0
C291 C 0.70432 0.54463 0.49031 0.0
C292 C 0.6889 0.5943 0.49741 0.0
C293 C 0.66837 0.50946 0.46773 0.0
C294 C 0.61643 0.52338 0.45029 0.0
H295 H 0.74469 0.5333 0.50152 0.0
H296 H 0.68178 0.47161 0.46215 0.0
S297 S 0.55628 0.64856 0.4639 0.0
N298 N 0.61818 0.65522 0.48839 0.0
N299 N 0.5505 0.58975 0.44522 0.0
C300 C 0.60035 0.57284 0.45865 0.0
C301 C 0.63666 0.6082 0.48243 0.0
C302 C 0.65564 0.43856 0.94216 0.0
C303 C 0.68723 0.44913 0.99148 0.0
C304 C 0.62251 0.47473 0.91716 0.0
C305 C 0.61865 0.52232 0.94169 0.0
H306 H 0.65687 0.40208 0.92263 0.0
H307 H 0.59884 0.46502 0.87922 0.0
S308 S 0.69233 0.56821 0.07142 0.0
N309 N 0.71336 0.51069 0.06305 0.0
N310 N 0.64818 0.5777 1.01892 0.0
C311 C 0.64891 0.53289 0.99194 0.0
C312 C 0.6838 0.4965 1.01625 0.0
C313 C 0.35694 0.60545 0.43924 0.0
C314 C 0.32949 0.59652 0.49199 0.0
C315 C 0.39152 0.57002 0.41494 0.0
C316 C 0.40082 0.52476 0.44325 0.0
H317 H 0.3519 0.64039 0.41689 0.0
H318 H 0.41221 0.57873 0.37453 0.0
S319 S 0.33749 0.48291 0.58156 0.0
N320 N 0.31205 0.53855 0.57048 0.0
N321 N 0.37918 0.47258 0.52656 0.0
C322 C 0.37383 0.51547 0.49626 0.0
C323 C 0.33771 0.55124 0.52029 0.0
C324 C 0.81672 0.99257 0.96452 0.0
C325 C 0.83709 0.95056 0.9933 0.0
C326 C 0.85111 0.02828 0.94035 0.0
C327 C 0.90697 1.02371 0.94562 0.0
H328 H 0.77378 0.99726 0.95989 0.0
H329 H 0.83398 0.05974 0.91782 0.0
S330 S 0.9808 0.92082 1.01591 0.0
N331 N 0.91688 0.90566 1.02314 0.0
N332 N 0.9814 0.97475 0.98207 0.0
C333 C 0.92788 0.98264 0.97543 0.0
C334 C 0.89297 0.94553 0.99832 0.0
C335 C 0.15893 0.10864 0.43936 0.0
C336 C 0.18837 0.0988 0.49034 0.0
C337 C 0.12454 0.07313 0.4153 0.0
C338 C 0.11743 0.02693 0.44226 0.0
H339 H 0.16244 0.14425 0.41812 0.0
H340 H 0.10241 0.08236 0.37614 0.0
S341 S 0.18622 0.98268 0.57579 0.0
N342 N 0.2099 0.03912 0.56566 0.0
N343 N 0.14292 0.97299 0.52245 0.0
C344 C 0.14618 1.01682 0.49367 0.0
C345 C 0.18216 0.05266 0.51733 0.0
C346 C 0.19476 1.00548 1.01 0.0
C347 C 0.19058 0.95502 0.9964 0.0
C348 C 0.15948 0.04015 0.98516 0.0
C349 C 0.11949 0.02542 0.9452 0.0
H350 H 0.22613 1.01814 0.03903 0.0
H351 H 0.16414 0.07879 0.99669 0.0
S352 S 0.09305 0.89608 0.89698 0.0
N353 N 0.14391 0.89134 0.94263 0.0
N354 N 0.07822 0.95558 0.89443 0.0
C355 C 0.11523 0.9745 0.93184 0.0
C356 C 0.1506 0.93955 0.95786 0.0
C357 C 0.8797 0.10689 0.47837 0.0
C358 C 0.82975 0.09242 0.5009 0.0
C359 C 0.9147 0.07209 0.45334 0.0
C360 C 0.90117 1.02147 0.45082 0.0
H361 H 0.89085 0.14562 0.47851 0.0
H362 H 0.95266 0.08496 0.43581 0.0
S363 S 0.7747 0.9653 0.50493 0.0
N364 N 0.7679 0.02495 0.51913 0.0
N365 N 0.83448 0.95883 0.47428 0.0
C366 C 0.85174 1.0065 0.47477 0.0
C367 C 0.81574 0.0422 0.49915 0.0
C368 C 0.33825 0.43985 0.14399 0.0
C369 C 0.3329 0.39525 0.11295 0.0
C370 C 0.37261 0.4432 0.19252 0.0
C371 C 0.40202 0.40183 0.21182 0.0
H372 H 0.31514 0.47193 0.1311 0.0
H373 H 0.37559 0.47812 0.21559 0.0
S374 S 0.40719 0.27882 0.13978 0.0
N375 N 0.36399 0.31088 0.10054 0.0
N376 N 0.42688 0.31628 0.19256 0.0
C377 C 0.39794 0.35751 0.17986 0.0
C378 C 0.36384 0.35448 0.13016 0.0
C379 C 0.65571 0.69259 0.62847 0.0
C380 C 0.68789 0.65262 0.61053 0.0
C381 C 0.62245 0.68903 0.67775 0.0
C382 C 0.61916 0.6449 0.71005 0.0
H383 H 0.65646 0.72693 0.60425 0.0
H384 H 0.59842 0.72084 0.69001 0.0
S385 S 0.69448 0.52923 0.68016 0.0
N386 N 0.71477 0.56781 0.6287 0.0
N387 N 0.65003 0.56001 0.7198 0.0
C388 C 0.64997 0.60416 0.69154 0.0
C389 C 0.68478 0.60824 0.64204 0.0
C390 C 0.63734 0.38512 0.1103 0.0
C391 C 0.68884 0.40575 0.11367 0.0
C392 C 0.60134 0.3888 0.15738 0.0
C393 C 0.61533 0.41403 0.20913 0.0
H394 H 0.62565 0.36463 0.07169 0.0
H395 H 0.56235 0.37135 0.15338 0.0
S396 S 0.74511 0.47637 0.23793 0.0
N397 N 0.7521 0.45297 0.17159 0.0
N398 N 0.68385 0.4615 0.25967 0.0
C399 C 0.66617 0.4364 0.21202 0.0
C400 C 0.70316 0.43172 0.16444 0.0
C401 C 0.39003 0.65504 0.60551 0.0
C402 C 0.3352 0.64471 0.61182 0.0
C403 C 0.42518 0.64959 0.65285 0.0
C404 C 0.40671 0.63269 0.70762 0.0
H405 H 0.40522 0.66925 0.56446 0.0
H406 H 0.46698 0.65958 0.64694 0.0
S407 S 0.26678 0.59878 0.74492 0.0
N408 N 0.26398 0.61598 0.67573 0.0
N409 N 0.33035 0.60415 0.76445 0.0
C410 C 0.3523 0.62033 0.71357 0.0
C411 C 0.3164 0.62689 0.66571 0.0
C412 C 0.86069 0.85982 0.13572 0.0
C413 C 0.83241 0.90059 0.11384 0.0
C414 C 0.89542 0.86458 0.1831 0.0
C415 C 0.90378 0.91054 0.21088 0.0
H416 H 0.85624 0.82386 0.1154 0.0
H417 H 0.91608 0.83161 0.19777 0.0
S418 S 0.83915 0.02918 0.16914 0.0
N419 N 0.81438 0.98842 0.12257 0.0
N420 N 0.88059 0.99816 0.21184 0.0
C421 C 0.87568 0.95193 0.18917 0.0
C422 C 0.83997 0.94682 0.14051 0.0
C423 C 0.13288 0.1611 0.60555 0.0
C424 C 0.18627 0.14541 0.61076 0.0
C425 C 0.09694 0.15659 0.65256 0.0
C426 C 0.11302 0.13528 0.70589 0.0
H427 H 0.11957 0.17854 0.56559 0.0
H428 H 0.0564 0.17043 0.6474 0.0
S429 S 0.24845 0.08679 0.73989 0.0
N430 N 0.25367 0.10735 0.67215 0.0
N431 N 0.1856 0.09691 0.76009 0.0
C432 C 0.16589 0.11776 0.71067 0.0
C433 C 0.20274 0.12349 0.66322 0.0
C434 C 0.1878 0.94097 0.14643 0.0
C435 C 0.18744 0.89905 0.11004 0.0
C436 C 0.15311 0.94434 0.19494 0.0
C437 C 0.11791 0.90536 0.209 0.0
H438 H 0.21608 0.97057 0.13815 0.0
H439 H 0.15484 0.97693 0.22249 0.0
S440 S 0.09699 0.79094 0.12239 0.0
N441 N 0.14517 0.82066 0.08725 0.0
N442 N 0.08137 0.82584 0.17928 0.0
C443 C 0.11598 0.86416 0.1715 0.0
C444 C 0.15036 0.86132 0.12172 0.0
C445 C 0.86513 0.19234 0.62931 0.0
C446 C 0.8319 0.15259 0.61316 0.0
C447 C 0.89767 0.18979 0.67909 0.0
C448 C 0.89913 0.14686 0.71368 0.0
H449 H 0.86563 0.22578 0.60338 0.0
H450 H 0.92273 0.22126 0.68983 0.0
S451 S 0.81998 0.03252 0.68977 0.0
N452 N 0.80163 0.06961 0.63612 0.0
N453 N 0.86518 0.06345 0.72785 0.0
C454 C 0.86709 0.10641 0.69717 0.0
C455 C 0.833 0.10954 0.64726 0.0
loop_
_geom_bond_atom_site_label_1
_geom_bond_atom_site_label_2
_geom_bond_distance
_geom_bond_site_symmetry_2
_ccdc_geom_bond_type
C0 N1 1.317 . S
C0 N2 1.348 1_554 S
C0 C3 1.485 . S
N1 C0 1.317 . S
N1 N5 1.370 1_554 S
N2 C0 1.348 1_556 S
N2 C4 1.346 . S
C3 C0 1.485 . S
C3 H7 0.960 . S
C3 H8 0.961 . S
C3 H9 0.960 . S
C4 N2 1.346 . S
C4 N5 1.307 . S
C4 C6 1.486 . S
N5 N1 1.370 1_556 S
N5 C4 1.307 . S
C6 C4 1.486 . S
C6 H10 0.960 . S
C6 H11 0.960 . S
C6 H12 0.959 . S
H7 C3 0.960 . S
H8 C3 0.961 . S
H9 C3 0.960 . S
H10 C6 0.960 . S
H11 C6 0.960 . S
H12 C6 0.959 . S
C13 N14 1.317 . S
C13 N15 1.348 . S
C13 C16 1.485 . S
N14 C13 1.317 . S
N14 N18 1.370 . S
N15 C13 1.348 . S
N15 C17 1.346 . S
C16 C13 1.485 . S
C16 H20 0.960 . S
C16 H21 0.961 . S
C16 H22 0.960 . S
C17 N15 1.346 . S
C17 N18 1.307 . S
C17 C19 1.486 . S
N18 N14 1.370 . S
N18 C17 1.307 . S
C19 C17 1.486 . S
C19 H23 0.960 . S
C19 H24 0.960 . S
C19 H25 0.959 . S
H20 C16 0.960 . S
H21 C16 0.961 . S
H22 C16 0.960 . S
H23 C19 0.960 . S
H24 C19 0.960 . S
H25 C19 0.959 . S
C26 N27 1.317 . S
C26 N28 1.348 1_554 S
C26 C29 1.485 . S
N27 C26 1.317 . S
N27 N31 1.370 1_554 S
N28 C26 1.348 1_556 S
N28 C30 1.346 . S
C29 C26 1.485 . S
C29 H33 0.960 . S
C29 H34 0.961 . S
C29 H35 0.960 . S
C30 N28 1.346 . S
C30 N31 1.307 . S
C30 C32 1.486 . S
N31 N27 1.370 1_556 S
N31 C30 1.307 . S
C32 C30 1.486 . S
C32 H36 0.960 . S
C32 H37 0.960 . S
C32 H38 0.959 . S
H33 C29 0.960 . S
H34 C29 0.961 . S
H35 C29 0.960 . S
H36 C32 0.960 . S
H37 C32 0.960 . S
H38 C32 0.959 . S
C39 N40 1.317 . S
C39 N41 1.348 . S
C39 C42 1.485 . S
N40 C39 1.317 . S
N40 N44 1.370 . S
N41 C39 1.348 . S
N41 C43 1.346 . S
C42 C39 1.485 . S
C42 H46 0.960 . S
C42 H47 0.961 . S
C42 H48 0.960 . S
C43 N41 1.346 . S
C43 N44 1.307 . S
C43 C45 1.486 . S
N44 N40 1.370 . S
N44 C43 1.307 . S
C45 C43 1.486 . S
C45 H49 0.960 . S
C45 H50 0.960 . S
C45 H51 0.959 . S
H46 C42 0.960 . S
H47 C42 0.961 . S
H48 C42 0.960 . S
H49 C45 0.960 . S
H50 C45 0.960 . S
H51 C45 0.959 . S
C52 N53 1.317 . S
C52 N54 1.348 1_554 S
C52 C55 1.485 . S
N53 C52 1.317 . S
N53 N57 1.370 1_554 S
N54 C52 1.348 1_556 S
N54 C56 1.346 . S
C55 C52 1.485 . S
C55 H59 0.960 . S
C55 H60 0.961 . S
C55 H61 0.960 . S
C56 N54 1.346 . S
C56 N57 1.307 . S
C56 C58 1.486 . S
N57 N53 1.370 1_556 S
N57 C56 1.307 . S
C58 C56 1.486 . S
C58 H62 0.960 . S
C58 H63 0.960 . S
C58 H64 0.959 . S
H59 C55 0.960 . S
H60 C55 0.961 . S
H61 C55 0.960 . S
H62 C58 0.960 . S
H63 C58 0.960 . S
H64 C58 0.959 . S
C65 N66 1.317 . S
C65 N67 1.348 . S
C65 C68 1.485 . S
N66 C65 1.317 . S
N66 N70 1.370 . S
N67 C65 1.348 . S
N67 C69 1.346 . S
C68 C65 1.485 . S
C68 H72 0.960 . S
C68 H73 0.961 . S
C68 H74 0.960 . S
C69 N67 1.346 . S
C69 N70 1.307 . S
C69 C71 1.486 . S
N70 N66 1.370 . S
N70 C69 1.307 . S
C71 C69 1.486 . S
C71 H75 0.960 . S
C71 H76 0.960 . S
C71 H77 0.959 . S
H72 C68 0.960 . S
H73 C68 0.961 . S
H74 C68 0.960 . S
H75 C71 0.960 . S
H76 C71 0.960 . S
H77 C71 0.959 . S
C78 N79 1.317 . S
C78 N80 1.348 1_554 S
C78 C81 1.485 . S
N79 C78 1.317 . S
N79 N83 1.370 1_554 S
N80 C78 1.348 1_556 S
N80 C82 1.346 . S
C81 C78 1.485 . S
C81 H85 0.960 . S
C81 H86 0.961 . S
C81 H87 0.960 . S
C82 N80 1.346 . S
C82 N83 1.307 . S
C82 C84 1.486 . S
N83 N79 1.370 1_556 S
N83 C82 1.307 . S
C84 C82 1.486 . S
C84 H88 0.960 . S
C84 H89 0.960 . S
C84 H90 0.959 . S
H85 C81 0.960 . S
H86 C81 0.961 . S
H87 C81 0.960 . S
H88 C84 0.960 . S
H89 C84 0.960 . S
H90 C84 0.959 . S
C91 N92 1.317 . S
C91 N93 1.348 . S
C91 C94 1.485 . S
N92 C91 1.317 . S
N92 N96 1.370 . S
N93 C91 1.348 . S
N93 C95 1.346 . S
C94 C91 1.485 . S
C94 H98 0.960 . S
C94 H99 0.961 . S
C94 H100 0.960 . S
C95 N93 1.346 . S
C95 N96 1.307 . S
C95 C97 1.486 . S
N96 N92 1.370 . S
N96 C95 1.307 . S
C97 C95 1.486 . S
C97 H101 0.960 . S
C97 H102 0.960 . S
C97 H103 0.959 . S
H98 C94 0.960 . S
H99 C94 0.961 . S
H100 C94 0.960 . S
H101 C97 0.960 . S
H102 C97 0.960 . S
H103 C97 0.959 . S
Fe104 O106 1.918 . S
Fe104 O109 1.997 1_455 S
Fe104 O110 2.002 1_455 S
Fe104 O115 1.976 . S
Fe104 O118 1.996 . S
Fe105 O106 1.918 . S
Fe105 O113 1.997 1_455 S
Fe105 O116 1.996 . S
Fe105 O120 1.976 . S
Fe105 O123 2.002 1_455 S
O106 Fe104 1.918 . S
O106 Fe105 1.918 . S
O106 Fe107 1.918 . S
Fe107 O106 1.918 . S
Fe107 O108 2.002 1_455 S
Fe107 O117 1.976 . S
Fe107 O121 1.996 . S
Fe107 O124 1.997 1_455 S
O108 Fe107 2.002 1_655 S
O108 C125 1.295 . S
O109 Fe104 1.997 1_655 S
O109 C125 1.235 . S
O110 Fe104 2.002 1_655 S
O110 C111 1.295 . S
C111 O110 1.295 . S
C111 O113 1.235 . S
C112 O117 1.287 . S
C112 O118 1.255 . S
O113 Fe105 1.997 1_655 S
O113 C111 1.235 . S
C114 O120 1.287 . S
C114 O121 1.255 . S
O115 Fe104 1.976 . S
O115 C122 1.287 . S
O116 Fe105 1.996 . S
O116 C122 1.255 . S
O117 Fe107 1.976 . S
O117 C112 1.287 . S
O118 Fe104 1.996 . S
O118 C112 1.255 . S
C119 O123 1.295 . S
C119 O124 1.235 . S
O120 Fe105 1.976 . S
O120 C114 1.287 . S
O121 Fe107 1.996 . S
O121 C114 1.255 . S
C122 O115 1.287 . S
C122 O116 1.255 . S
O123 Fe105 2.002 1_655 S
O123 C119 1.295 . S
O124 Fe107 1.997 1_655 S
O124 C119 1.235 . S
C125 O108 1.295 . S
C125 O109 1.235 . S
Fe126 O128 1.918 1_455 S
Fe126 O131 1.997 . S
Fe126 O132 2.002 . S
Fe126 O137 1.976 1_455 S
Fe126 O140 1.996 1_455 S
Fe127 O128 1.918 1_455 S
Fe127 O135 1.997 . S
Fe127 O138 1.996 1_455 S
Fe127 O142 1.976 1_455 S
Fe127 O145 2.002 . S
O128 Fe126 1.918 1_655 S
O128 Fe127 1.918 1_655 S
O128 Fe129 1.918 1_655 S
Fe129 O128 1.918 1_455 S
Fe129 O130 2.002 . S
Fe129 O139 1.976 1_455 S
Fe129 O143 1.996 1_455 S
Fe129 O146 1.997 . S
O130 Fe129 2.002 . S
O130 C147 1.295 . S
O131 Fe126 1.997 . S
O131 C147 1.235 . S
O132 Fe126 2.002 . S
O132 C133 1.295 . S
C133 O132 1.295 . S
C133 O135 1.235 . S
C134 O139 1.287 . S
C134 O140 1.255 . S
O135 Fe127 1.997 . S
O135 C133 1.235 . S
C136 O142 1.287 . S
C136 O143 1.255 . S
O137 Fe126 1.976 1_655 S
O137 C144 1.287 . S
O138 Fe127 1.996 1_655 S
O138 C144 1.255 . S
O139 Fe129 1.976 1_655 S
O139 C134 1.287 . S
O140 Fe126 1.996 1_655 S
O140 C134 1.255 . S
C141 O145 1.295 . S
C141 O146 1.235 . S
O142 Fe127 1.976 1_655 S
O142 C136 1.287 . S
O143 Fe129 1.996 1_655 S
O143 C136 1.255 . S
C144 O137 1.287 . S
C144 O138 1.255 . S
O145 Fe127 2.002 . S
O145 C141 1.295 . S
O146 Fe129 1.997 . S
O146 C141 1.235 . S
C147 O130 1.295 . S
C147 O131 1.235 . S
Fe148 O150 1.918 . S
Fe148 O153 1.997 . S
Fe148 O154 2.002 . S
Fe148 O159 1.976 . S
Fe148 O162 1.996 . S
Fe149 O150 1.918 . S
Fe149 O157 1.997 . S
Fe149 O160 1.996 . S
Fe149 O164 1.976 . S
Fe149 O167 2.002 . S
O150 Fe148 1.918 . S
O150 Fe149 1.918 . S
O150 Fe151 1.918 . S
Fe151 O150 1.918 . S
Fe151 O152 2.002 . S
Fe151 O161 1.976 . S
Fe151 O165 1.996 . S
Fe151 O168 1.997 . S
O152 Fe151 2.002 . S
O152 C169 1.295 . S
O153 Fe148 1.997 . S
O153 C169 1.235 . S
O154 Fe148 2.002 . S
O154 C155 1.295 . S
C155 O154 1.295 . S
C155 O157 1.235 . S
C156 O161 1.287 . S
C156 O162 1.255 . S
O157 Fe149 1.997 . S
O157 C155 1.235 . S
C158 O164 1.287 . S
C158 O165 1.255 . S
O159 Fe148 1.976 . S
O159 C166 1.287 . S
O160 Fe149 1.996 . S
O160 C166 1.255 . S
O161 Fe151 1.976 . S
O161 C156 1.287 . S
O162 Fe148 1.996 . S
O162 C156 1.255 . S
C163 O167 1.295 . S
C163 O168 1.235 . S
O164 Fe149 1.976 . S
O164 C158 1.287 . S
O165 Fe151 1.996 . S
O165 C158 1.255 . S
C166 O159 1.287 . S
C166 O160 1.255 . S
O167 Fe149 2.002 . S
O167 C163 1.295 . S
O168 Fe151 1.997 . S
O168 C163 1.235 . S
C169 O152 1.295 . S
C169 O153 1.235 . S
Fe170 O172 1.918 . S
Fe170 O175 1.997 . S
Fe170 O176 2.002 . S
Fe170 O181 1.976 . S
Fe170 O184 1.996 . S
Fe171 O172 1.918 . S
Fe171 O179 1.997 . S
Fe171 O182 1.996 . S
Fe171 O186 1.976 . S
Fe171 O189 2.002 . S
O172 Fe170 1.918 . S
O172 Fe171 1.918 . S
O172 Fe173 1.918 . S
Fe173 O172 1.918 . S
Fe173 O174 2.002 . S
Fe173 O183 1.976 . S
Fe173 O187 1.996 . S
Fe173 O190 1.997 . S
O174 Fe173 2.002 . S
O174 C191 1.295 . S
O175 Fe170 1.997 . S
O175 C191 1.235 . S
O176 Fe170 2.002 . S
O176 C177 1.295 . S
C177 O176 1.295 . S
C177 O179 1.235 . S
C178 O183 1.287 . S
C178 O184 1.255 . S
O179 Fe171 1.997 . S
O179 C177 1.235 . S
C180 O186 1.287 . S
C180 O187 1.255 . S
O181 Fe170 1.976 . S
O181 C188 1.287 . S
O182 Fe171 1.996 . S
O182 C188 1.255 . S
O183 Fe173 1.976 . S
O183 C178 1.287 . S
O184 Fe170 1.996 . S
O184 C178 1.255 . S
C185 O189 1.295 . S
C185 O190 1.235 . S
O186 Fe171 1.976 . S
O186 C180 1.287 . S
O187 Fe173 1.996 . S
O187 C180 1.255 . S
C188 O181 1.287 . S
C188 O182 1.255 . S
O189 Fe171 2.002 . S
O189 C185 1.295 . S
O190 Fe173 1.997 . S
O190 C185 1.235 . S
C191 O174 1.295 . S
C191 O175 1.235 . S
C192 C193 1.369 . S
C192 C194 1.419 . S
C192 H196 0.930 . S
C193 C192 1.369 . S
C193 C202 1.429 . S
C194 C192 1.419 . S
C194 C195 1.363 . S
C194 H197 0.929 . S
C195 C194 1.363 . S
C195 C201 1.428 . S
H196 C192 0.930 . S
H197 C194 0.929 . S
S198 N199 1.613 . S
S198 N200 1.610 . S
N199 S198 1.613 . S
N199 C202 1.350 . S
N200 S198 1.610 . S
N200 C201 1.351 . S
C201 C195 1.428 . S
C201 N200 1.351 . S
C201 C202 1.434 . S
C202 C193 1.429 . S
C202 N199 1.350 . S
C202 C201 1.434 . S
C203 C204 1.369 . S
C203 C205 1.419 . S
C203 H207 0.930 . S
C204 C203 1.369 . S
C204 C213 1.429 . S
C205 C203 1.419 . S
C205 C206 1.363 . S
C205 H208 0.929 . S
C206 C205 1.363 . S
C206 C212 1.428 . S
H207 C203 0.930 . S
H208 C205 0.929 . S
S209 N210 1.613 . S
S209 N211 1.610 . S
N210 S209 1.613 . S
N210 C213 1.350 . S
N211 S209 1.610 . S
N211 C212 1.351 . S
C212 C206 1.428 . S
C212 N211 1.351 . S
C212 C213 1.434 . S
C213 C204 1.429 . S
C213 N210 1.350 . S
C213 C212 1.434 . S
C214 C215 1.369 . S
C214 C216 1.419 . S
C214 H218 0.930 . S
C215 C214 1.369 . S
C215 C224 1.429 . S
C216 C214 1.419 . S
C216 C217 1.363 . S
C216 H219 0.929 . S
C217 C216 1.363 . S
C217 C223 1.428 . S
H218 C214 0.930 . S
H219 C216 0.929 . S
S220 N221 1.613 . S
S220 N222 1.610 . S
N221 S220 1.613 . S
N221 C224 1.350 . S
N222 S220 1.610 . S
N222 C223 1.351 . S
C223 C217 1.428 . S
C223 N222 1.351 . S
C223 C224 1.434 . S
C224 C215 1.429 . S
C224 N221 1.350 . S
C224 C223 1.434 . S
C225 C226 1.369 . S
C225 C227 1.419 . S
C225 H229 0.930 . S
C226 C225 1.369 . S
C226 C235 1.429 . S
C227 C225 1.419 . S
C227 C228 1.363 . S
C227 H230 0.929 . S
C228 C227 1.363 . S
C228 C234 1.428 . S
H229 C225 0.930 . S
H230 C227 0.929 . S
S231 N232 1.613 . S
S231 N233 1.610 . S
N232 S231 1.613 . S
N232 C235 1.350 . S
N233 S231 1.610 . S
N233 C234 1.351 . S
C234 C228 1.428 . S
C234 N233 1.351 . S
C234 C235 1.434 . S
C235 C226 1.429 . S
C235 N232 1.350 . S
C235 C234 1.434 . S
C236 C237 1.369 . S
C236 C238 1.419 . S
C236 H240 0.930 . S
C237 C236 1.369 . S
C237 C246 1.429 . S
C238 C236 1.419 . S
C238 C239 1.363 . S
C238 H241 0.929 . S
C239 C238 1.363 . S
C239 C245 1.428 . S
H240 C236 0.930 . S
H241 C238 0.929 . S
S242 N243 1.613 . S
S242 N244 1.610 1_554 S
N243 S242 1.613 . S
N243 C246 1.350 1_554 S
N244 S242 1.610 1_556 S
N244 C245 1.351 . S
C245 C239 1.428 . S
C245 N244 1.351 . S
C245 C246 1.434 . S
C246 C237 1.429 . S
C246 N243 1.350 1_556 S
C246 C245 1.434 . S
C247 C248 1.369 . S
C247 C249 1.419 . S
C247 H251 0.930 . S
C248 C247 1.369 . S
C248 C257 1.429 . S
C249 C247 1.419 . S
C249 C250 1.363 . S
C249 H252 0.929 . S
C250 C249 1.363 . S
C250 C256 1.428 . S
H251 C247 0.930 . S
H252 C249 0.929 . S
S253 N254 1.613 . S
S253 N255 1.610 . S
N254 S253 1.613 . S
N254 C257 1.350 . S
N255 S253 1.610 . S
N255 C256 1.351 . S
C256 C250 1.428 . S
C256 N255 1.351 . S
C256 C257 1.434 . S
C257 C248 1.429 . S
C257 N254 1.350 . S
C257 C256 1.434 . S
C258 C259 1.369 . S
C258 C260 1.419 . S
C258 H262 0.930 1_556 S
C259 C258 1.369 . S
C259 C268 1.429 . S
C260 C258 1.419 . S
C260 C261 1.363 . S
C260 H263 0.929 . S
C261 C260 1.363 . S
C261 C267 1.428 . S
H262 C258 0.930 1_554 S
H263 C260 0.929 . S
S264 N265 1.613 . S
S264 N266 1.610 . S
N265 S264 1.613 . S
N265 C268 1.350 . S
N266 S264 1.610 . S
N266 C267 1.351 . S
C267 C261 1.428 . S
C267 N266 1.351 . S
C267 C268 1.434 . S
C268 C259 1.429 . S
C268 N265 1.350 . S
C268 C267 1.434 . S
C269 C270 1.369 . S
C269 C271 1.419 . S
C269 H273 0.930 . S
C270 C269 1.369 . S
C270 C279 1.429 . S
C271 C269 1.419 . S
C271 C272 1.363 . S
C271 H274 0.929 . S
C272 C271 1.363 . S
C272 C278 1.428 . S
H273 C269 0.930 . S
H274 C271 0.929 . S
S275 N276 1.613 . S
S275 N277 1.610 . S
N276 S275 1.613 . S
N276 C279 1.350 . S
N277 S275 1.610 . S
N277 C278 1.351 . S
C278 C272 1.428 . S
C278 N277 1.351 . S
C278 C279 1.434 . S
C279 C270 1.429 . S
C279 N276 1.350 . S
C279 C278 1.434 . S
C280 C281 1.369 . S
C280 C282 1.419 . S
C280 H284 0.930 . S
C281 C280 1.369 . S
C281 C290 1.429 . S
C282 C280 1.419 . S
C282 C283 1.363 . S
C282 H285 0.929 . S
C283 C282 1.363 . S
C283 C289 1.428 . S
H284 C280 0.930 . S
H285 C282 0.929 . S
S286 N287 1.613 . S
S286 N288 1.610 . S
N287 S286 1.613 . S
N287 C290 1.350 . S
N288 S286 1.610 . S
N288 C289 1.351 . S
C289 C283 1.428 . S
C289 N288 1.351 . S
C289 C290 1.434 . S
C290 C281 1.429 . S
C290 N287 1.350 . S
C290 C289 1.434 . S
C291 C292 1.369 . S
C291 C293 1.419 . S
C291 H295 0.930 . S
C292 C291 1.369 . S
C292 C301 1.429 . S
C293 C291 1.419 . S
C293 C294 1.363 . S
C293 H296 0.929 . S
C294 C293 1.363 . S
C294 C300 1.428 . S
H295 C291 0.930 . S
H296 C293 0.929 . S
S297 N298 1.613 . S
S297 N299 1.610 . S
N298 S297 1.613 . S
N298 C301 1.350 . S
N299 S297 1.610 . S
N299 C300 1.351 . S
C300 C294 1.428 . S
C300 N299 1.351 . S
C300 C301 1.434 . S
C301 C292 1.429 . S
C301 N298 1.350 . S
C301 C300 1.434 . S
C302 C303 1.369 . S
C302 C304 1.419 . S
C302 H306 0.930 . S
C303 C302 1.369 . S
C303 C312 1.429 . S
C304 C302 1.419 . S
C304 C305 1.363 . S
C304 H307 0.929 . S
C305 C304 1.363 . S
C305 C311 1.428 . S
H306 C302 0.930 . S
H307 C304 0.929 . S
S308 N309 1.613 . S
S308 N310 1.610 1_554 S
N309 S308 1.613 . S
N309 C312 1.350 1_554 S
N310 S308 1.610 1_556 S
N310 C311 1.351 . S
C311 C305 1.428 . S
C311 N310 1.351 . S
C311 C312 1.434 . S
C312 C303 1.429 . S
C312 N309 1.350 1_556 S
C312 C311 1.434 . S
C313 C314 1.369 . S
C313 C315 1.419 . S
C313 H317 0.930 . S
C314 C313 1.369 . S
C314 C323 1.429 . S
C315 C313 1.419 . S
C315 C316 1.363 . S
C315 H318 0.929 . S
C316 C315 1.363 . S
C316 C322 1.428 . S
H317 C313 0.930 . S
H318 C315 0.929 . S
S319 N320 1.613 . S
S319 N321 1.610 . S
N320 S319 1.613 . S
N320 C323 1.350 . S
N321 S319 1.610 . S
N321 C322 1.351 . S
C322 C316 1.428 . S
C322 N321 1.351 . S
C322 C323 1.434 . S
C323 C314 1.429 . S
C323 N320 1.350 . S
C323 C322 1.434 . S
C324 C325 1.369 . S
C324 C326 1.419 1_565 S
C324 H328 0.930 . S
C325 C324 1.369 . S
C325 C334 1.429 . S
C326 C324 1.419 1_545 S
C326 C327 1.363 . S
C326 H329 0.929 . S
C327 C326 1.363 . S
C327 C333 1.428 1_545 S
H328 C324 0.930 . S
H329 C326 0.929 . S
S330 N331 1.613 . S
S330 N332 1.610 1_554 S
N331 S330 1.613 . S
N331 C334 1.350 1_554 S
N332 S330 1.610 1_556 S
N332 C333 1.351 . S
C333 C327 1.428 1_565 S
C333 N332 1.351 . S
C333 C334 1.434 . S
C334 C325 1.429 . S
C334 N331 1.350 1_556 S
C334 C333 1.434 . S
C335 C336 1.369 . S
C335 C337 1.419 . S
C335 H339 0.930 . S
C336 C335 1.369 . S
C336 C345 1.429 . S
C337 C335 1.419 . S
C337 C338 1.363 1_545 S
C337 H340 0.929 . S
C338 C337 1.363 1_565 S
C338 C344 1.428 . S
H339 C335 0.930 . S
H340 C337 0.929 . S
S341 N342 1.613 1_565 S
S341 N343 1.610 . S
N342 S341 1.613 1_545 S
N342 C345 1.350 . S
N343 S341 1.610 . S
N343 C344 1.351 . S
C344 C338 1.428 . S
C344 N343 1.351 . S
C344 C345 1.434 1_565 S
C345 C336 1.429 . S
C345 N342 1.350 . S
C345 C344 1.434 1_545 S
C346 C347 1.369 . S
C346 C348 1.419 1_565 S
C346 H350 0.930 . S
C347 C346 1.369 . S
C347 C356 1.429 . S
C348 C346 1.419 1_545 S
C348 C349 1.363 . S
C348 H351 0.929 . S
C349 C348 1.363 . S
C349 C355 1.428 1_545 S
H350 C346 0.930 . S
H351 C348 0.929 . S
S352 N353 1.613 . S
S352 N354 1.610 . S
N353 S352 1.613 . S
N353 C356 1.350 . S
N354 S352 1.610 . S
N354 C355 1.351 . S
C355 C349 1.428 1_565 S
C355 N354 1.351 . S
C355 C356 1.434 . S
C356 C347 1.429 . S
C356 N353 1.350 . S
C356 C355 1.434 . S
C357 C358 1.369 . S
C357 C359 1.419 . S
C357 H361 0.930 . S
C358 C357 1.369 . S
C358 C367 1.429 . S
C359 C357 1.419 . S
C359 C360 1.363 1_545 S
C359 H362 0.929 . S
C360 C359 1.363 1_565 S
C360 C366 1.428 . S
H361 C357 0.930 . S
H362 C359 0.929 . S
S363 N364 1.613 . S
S363 N365 1.610 . S
N364 S363 1.613 . S
N364 C367 1.350 1_565 S
N365 S363 1.610 . S
N365 C366 1.351 . S
C366 C360 1.428 . S
C366 N365 1.351 . S
C366 C367 1.434 1_565 S
C367 C358 1.429 . S
C367 N364 1.350 1_545 S
C367 C366 1.434 1_545 S
C368 C369 1.369 . S
C368 C370 1.419 . S
C368 H372 0.930 . S
C369 C368 1.369 . S
C369 C378 1.429 . S
C370 C368 1.419 . S
C370 C371 1.363 . S
C370 H373 0.929 . S
C371 C370 1.363 . S
C371 C377 1.428 . S
H372 C368 0.930 . S
H373 C370 0.929 . S
S374 N375 1.613 . S
S374 N376 1.610 . S
N375 S374 1.613 . S
N375 C378 1.350 . S
N376 S374 1.610 . S
N376 C377 1.351 . S
C377 C371 1.428 . S
C377 N376 1.351 . S
C377 C378 1.434 . S
C378 C369 1.429 . S
C378 N375 1.350 . S
C378 C377 1.434 . S
C379 C380 1.369 . S
C379 C381 1.419 . S
C379 H383 0.930 . S
C380 C379 1.369 . S
C380 C389 1.429 . S
C381 C379 1.419 . S
C381 C382 1.363 . S
C381 H384 0.929 . S
C382 C381 1.363 . S
C382 C388 1.428 . S
H383 C379 0.930 . S
H384 C381 0.929 . S
S385 N386 1.613 . S
S385 N387 1.610 . S
N386 S385 1.613 . S
N386 C389 1.350 . S
N387 S385 1.610 . S
N387 C388 1.351 . S
C388 C382 1.428 . S
C388 N387 1.351 . S
C388 C389 1.434 . S
C389 C380 1.429 . S
C389 N386 1.350 . S
C389 C388 1.434 . S
C390 C391 1.369 . S
C390 C392 1.419 . S
C390 H394 0.930 . S
C391 C390 1.369 . S
C391 C400 1.429 . S
C392 C390 1.419 . S
C392 C393 1.363 . S
C392 H395 0.929 . S
C393 C392 1.363 . S
C393 C399 1.428 . S
H394 C390 0.930 . S
H395 C392 0.929 . S
S396 N397 1.613 . S
S396 N398 1.610 . S
N397 S396 1.613 . S
N397 C400 1.350 . S
N398 S396 1.610 . S
N398 C399 1.351 . S
C399 C393 1.428 . S
C399 N398 1.351 . S
C399 C400 1.434 . S
C400 C391 1.429 . S
C400 N397 1.350 . S
C400 C399 1.434 . S
C401 C402 1.369 . S
C401 C403 1.419 . S
C401 H405 0.930 . S
C402 C401 1.369 . S
C402 C411 1.429 . S
C403 C401 1.419 . S
C403 C404 1.363 . S
C403 H406 0.929 . S
C404 C403 1.363 . S
C404 C410 1.428 . S
H405 C401 0.930 . S
H406 C403 0.929 . S
S407 N408 1.613 . S
S407 N409 1.610 . S
N408 S407 1.613 . S
N408 C411 1.350 . S
N409 S407 1.610 . S
N409 C410 1.351 . S
C410 C404 1.428 . S
C410 N409 1.351 . S
C410 C411 1.434 . S
C411 C402 1.429 . S
C411 N408 1.350 . S
C411 C410 1.434 . S
C412 C413 1.369 . S
C412 C414 1.419 . S
C412 H416 0.930 . S
C413 C412 1.369 . S
C413 C422 1.429 . S
C414 C412 1.419 . S
C414 C415 1.363 . S
C414 H417 0.929 . S
C415 C414 1.363 . S
C415 C421 1.428 . S
H416 C412 0.930 . S
H417 C414 0.929 . S
S418 N419 1.613 . S
S418 N420 1.610 . S
N419 S418 1.613 . S
N419 C422 1.350 . S
N420 S418 1.610 . S
N420 C421 1.351 . S
C421 C415 1.428 . S
C421 N420 1.351 . S
C421 C422 1.434 . S
C422 C413 1.429 . S
C422 N419 1.350 . S
C422 C421 1.434 . S
C423 C424 1.369 . S
C423 C425 1.419 . S
C423 H427 0.930 . S
C424 C423 1.369 . S
C424 C433 1.429 . S
C425 C423 1.419 . S
C425 C426 1.363 . S
C425 H428 0.929 . S
C426 C425 1.363 . S
C426 C432 1.428 . S
H427 C423 0.930 . S
H428 C425 0.929 . S
S429 N430 1.613 . S
S429 N431 1.610 . S
N430 S429 1.613 . S
N430 C433 1.350 . S
N431 S429 1.610 . S
N431 C432 1.351 . S
C432 C426 1.428 . S
C432 N431 1.351 . S
C432 C433 1.434 . S
C433 C424 1.429 . S
C433 N430 1.350 . S
C433 C432 1.434 . S
C434 C435 1.369 . S
C434 C436 1.419 . S
C434 H438 0.930 . S
C435 C434 1.369 . S
C435 C444 1.429 . S
C436 C434 1.419 . S
C436 C437 1.363 . S
C436 H439 0.929 . S
C437 C436 1.363 . S
C437 C443 1.428 . S
H438 C434 0.930 . S
H439 C436 0.929 . S
S440 N441 1.613 . S
S440 N442 1.610 . S
N441 S440 1.613 . S
N441 C444 1.350 . S
N442 S440 1.610 . S
N442 C443 1.351 . S
C443 C437 1.428 . S
C443 N442 1.351 . S
C443 C444 1.434 . S
C444 C435 1.429 . S
C444 N441 1.350 . S
C444 C443 1.434 . S
C445 C446 1.369 . S
C445 C447 1.419 . S
C445 H449 0.930 . S
C446 C445 1.369 . S
C446 C455 1.429 . S
C447 C445 1.419 . S
C447 C448 1.363 . S
C447 H450 0.929 . S
C448 C447 1.363 . S
C448 C454 1.428 . S
H449 C445 0.930 . S
H450 C447 0.929 . S
S451 N452 1.613 1_565 S
S451 N453 1.610 1_565 S
N452 S451 1.613 1_545 S
N452 C455 1.350 . S
N453 S451 1.610 1_545 S
N453 C454 1.351 . S
C454 C448 1.428 . S
C454 N453 1.351 . S
C454 C455 1.434 . S
C455 C446 1.429 . S
C455 N452 1.350 . S
C455 C454 1.434 . S
C193 N2 1.537 . S
C195 C147 1.520 . S
C206 C111 1.521 . S
C204 N15 1.537 . S
C217 C134 1.526 . S
C215 N28 1.516 . S
C228 C122 1.525 . S
C226 N41 1.518 . S
C239 C191 1.523 . S
C237 N54 1.535 . S
C250 C155 1.523 . S
C248 N67 1.536 . S
C259 N80 1.516 . S
C261 C178 1.526 . S
C272 C166 1.525 . S
C270 N93 1.518 . S
C281 N5 1.502 . S
C283 C188 1.513 . S
C294 C158 1.513 . S
C292 N18 1.503 . S
C303 N31 1.522 . S
C305 C177 1.522 . S
C314 N44 1.520 . S
C316 C163 1.524 . S
C327 C144 1.513 . S
C325 N57 1.504 . S
C336 N70 1.505 . S
C338 C114 1.513 . S
C349 C133 1.522 . S
C347 N83 1.518 . S
C360 C119 1.523 . S
C358 N96 1.522 . S
C371 C169 1.526 . S
C369 N1 1.529 . S
C382 C185 1.524 . S
C380 N14 1.531 . S
C391 N27 1.485 . S
C393 C156 1.509 . S
C404 C180 1.509 . S
C402 N40 1.485 . S
C415 C125 1.525 . S
C413 N53 1.531 . S
C424 N66 1.531 . S
C426 C141 1.525 . S
C435 N79 1.486 . S
C437 C112 1.508 . S
C446 N92 1.490 . S
C448 C136 1.509 . S
