# Generated by pormake.
# Topology apo, (3,6)-cn, num edge types: 1
# Building blocks:
#     Node 0, Type 0, BuildingBlock: KAKCAD_clean_linker_0, # of connection points: 3
#     Node 1, Type 0, BuildingBlock: KAKCAD_clean_linker_0, # of connection points: 3
#     Node 2, Type 0, BuildingBlock: KAKCAD_clean_linker_0, # of connection points: 3
#     Node 3, Type 0, BuildingBlock: KAKCAD_clean_linker_0, # of connection points: 3
#     Node 4, Type 0, BuildingBlock: KAKCAD_clean_linker_0, # of connection points: 3
#     Node 5, Type 0, BuildingBlock: KAKCAD_clean_linker_0, # of connection points: 3
#     Node 6, Type 0, BuildingBlock: KAKCAD_clean_linker_0, # of connection points: 3
#     Node 7, Type 0, BuildingBlock: KAKCAD_clean_linker_0, # of connection points: 3
#     Node 8, Type 1, BuildingBlock: MIDCAF_clean_sbu_0, # of connection points: 6
#     Node 9, Type 1, BuildingBlock: MIDCAF_clean_sbu_0, # of connection points: 6
#     Node 10, Type 1, BuildingBlock: MIDCAF_clean_sbu_0, # of connection points: 6
#     Node 11, Type 1, BuildingBlock: MIDCAF_clean_sbu_0, # of connection points: 6
#     Edge 12, Type (0, 1), None
#     Edge 13, Type (0, 1), None
#     Edge 14, Type (0, 1), None
#     Edge 15, Type (0, 1), None
#     Edge 16, Type (0, 1), None
#     Edge 17, Type (0, 1), None
#     Edge 18, Type (0, 1), None
#     Edge 19, Type (0, 1), None
#     Edge 20, Type (0, 1), None
#     Edge 21, Type (0, 1), None
#     Edge 22, Type (0, 1), None
#     Edge 23, Type (0, 1), None
#     Edge 24, Type (0, 1), None
#     Edge 25, Type (0, 1), None
#     Edge 26, Type (0, 1), None
#     Edge 27, Type (0, 1), None
#     Edge 28, Type (0, 1), None
#     Edge 29, Type (0, 1), None
#     Edge 30, Type (0, 1), None
#     Edge 31, Type (0, 1), None
#     Edge 32, Type (0, 1), None
#     Edge 33, Type (0, 1), None
#     Edge 34, Type (0, 1), None
#     Edge 35, Type (0, 1), None
# Relax obj value: 0.085
# Max RMSD: 0.099
# Mean RMSD: 0.090
data_MOF--net-apo--node1-MIDCAF_clean_sbu_0--node2-KAKCAD_clean_linker_0--edge1-none
_symmetry_space_group_name_H-M    P1
_symmetry_Int_Tables_number       1
_symmetry_cell_setting            triclinic
loop_
_symmetry_equiv_pos_as_xyz
'x, y, z'
_cell_length_a     23.518354
_cell_length_b     28.399833
_cell_length_c     24.714234
_cell_angle_alpha  89.737519
_cell_angle_beta   90.033629
_cell_angle_gamma 90.213762
loop_
_atom_site_label
_atom_site_type_symbol
_atom_site_fract_x
_atom_site_fract_y
_atom_site_fract_z
_atom_type_partial_charge
C0 C 0.35831 0.47334 0.30239 0.0
C1 C 0.41607 0.48584 0.30445 0.0
C2 C 0.34118 0.42713 0.31297 0.0
C3 C 0.38147 0.39293 0.32709 0.0
C4 C 0.43957 0.40482 0.32645 0.0
C5 C 0.45684 0.45097 0.31457 0.0
C6 C 0.36202 0.34718 0.34916 0.0
C7 C 0.32405 0.31869 0.32005 0.0
C8 C 0.30198 0.27713 0.34314 0.0
C9 C 0.31766 0.26483 0.39669 0.0
C10 C 0.35469 0.29381 0.42643 0.0
C11 C 0.37727 0.33439 0.40205 0.0
C12 C 0.37022 0.28357 0.48343 0.0
C13 C 0.34386 0.30834 0.52566 0.0
C14 C 0.41986 0.25814 0.4945 0.0
C15 C 0.44587 0.26136 0.54533 0.0
C16 C 0.4226 0.28988 0.58606 0.0
C17 C 0.26017 0.24799 0.31266 0.0
C18 C 0.21351 0.26893 0.28611 0.0
C19 C 0.26399 0.19872 0.3137 0.0
C20 C 0.21942 0.17107 0.29395 0.0
C21 C 0.16988 0.19204 0.27319 0.0
C22 C 0.16859 0.2411 0.26656 0.0
C23 C 0.36968 0.3112 0.57683 0.0
H24 H 0.32618 0.49984 0.29489 0.0
H25 H 0.29616 0.41886 0.31364 0.0
H26 H 0.47132 0.3789 0.33731 0.0
H27 H 0.50156 0.46005 0.31697 0.0
H28 H 0.31179 0.32893 0.27938 0.0
H29 H 0.40538 0.35707 0.42516 0.0
H30 H 0.29987 0.23365 0.41574 0.0
H31 H 0.30604 0.3289 0.51769 0.0
H32 H 0.44143 0.23949 0.46238 0.0
H33 H 0.48727 0.24544 0.55098 0.0
H34 H 0.20941 0.30689 0.28451 0.0
H35 H 0.29992 0.18155 0.33274 0.0
H36 H 0.35164 0.33443 0.60688 0.0
H37 H 0.1304 0.2582 0.25197 0.0
H38 H 0.22112 0.13329 0.30019 0.0
C39 C 0.11102 0.01281 0.789 0.0
C40 C 0.05713 0.0013 0.80989 0.0
C41 C 0.13751 0.05559 0.80248 0.0
C42 C 0.11046 0.08763 0.83721 0.0
C43 C 0.05403 0.07791 0.85324 0.0
C44 C 0.02802 0.03496 0.84036 0.0
C45 C 0.14303 0.12707 0.86301 0.0
C46 C 0.1829 0.1548 0.83412 0.0
C47 C 0.214 0.19099 0.86026 0.0
C48 C 0.20465 0.19871 0.91607 0.0
C49 C 0.16583 0.17109 0.94518 0.0
C50 C 0.13565 0.13546 0.91863 0.0
C51 C 0.15365 0.17995 1.00307 0.0
C52 C 0.16886 0.14645 0.04243 0.0
C53 C 0.11626 0.21623 0.0172 0.0
C54 C 0.08899 0.21551 0.06756 0.0
C55 C 0.09922 0.17883 0.10469 0.0
C56 C 0.25723 0.22037 0.83062 0.0
C57 C 0.29319 0.20087 0.79093 0.0
C58 C 0.26584 0.26778 0.84506 0.0
C59 C 0.31181 0.29345 0.82446 0.0
C60 C 0.3496 0.27309 0.7875 0.0
C61 C 0.33875 0.22715 0.76928 0.0
C62 C 0.14238 0.14631 0.09325 0.0
H63 H 0.13487 -0.0131 0.76642 0.0
H64 H 0.18088 0.06167 0.78944 0.0
H65 H 0.03124 0.10222 0.87888 0.0
H66 H 0.98682 0.02664 0.85761 0.0
H67 H 0.18887 0.14877 0.79127 0.0
H68 H 0.10634 0.11393 0.94195 0.0
H69 H 0.22837 0.22552 0.93756 0.0
H70 H 0.19729 0.11792 0.03217 0.0
H71 H 0.10352 0.24214 0.98729 0.0
H72 H 0.05495 0.24031 0.07481 0.0
H73 H 0.2882 0.16452 0.77875 0.0
H74 H 0.23813 0.28483 0.87388 0.0
H75 H 0.15005 0.11698 0.12046 0.0
H76 H 0.36764 0.21048 0.74119 0.0
H77 H 0.31892 0.32897 0.83888 0.0
C78 C 0.90516 0.01219 0.71078 0.0
C79 C 0.9519 -0.00418 0.68112 0.0
C80 C 0.87749 0.05384 0.69539 0.0
C81 C 0.8968 0.08033 0.65059 0.0
C82 C 0.94731 0.06599 0.62479 0.0
C83 C 0.97378 0.02377 0.63915 0.0
C84 C 0.86269 0.12039 0.62803 0.0
C85 C 0.83037 0.15006 0.6617 0.0
C86 C 0.80015 0.18831 0.63975 0.0
C87 C 0.8026 0.19721 0.5836 0.0
C88 C 0.83271 0.16714 0.54918 0.0
C89 C 0.8619 0.12869 0.57168 0.0
C90 C 0.8384 0.17718 0.49018 0.0
C91 C 0.82864 0.14144 0.45201 0.0
C92 C 0.86365 0.21945 0.47268 0.0
C93 C 0.88614 0.22315 0.42029 0.0
C94 C 0.8832 0.18486 0.38441 0.0
C95 C 0.76521 0.21926 0.67466 0.0
C96 C 0.71854 0.20114 0.70382 0.0
C97 C 0.77371 0.26811 0.67289 0.0
C98 C 0.73326 0.29842 0.69468 0.0
C99 C 0.68293 0.28059 0.7179 0.0
C100 C 0.67747 0.23168 0.72528 0.0
C101 C 0.85009 0.14559 0.39924 0.0
H102 H 0.88691 -0.00931 0.74272 0.0
H103 H 0.83889 0.06338 0.71642 0.0
H104 H 0.96518 0.08623 0.59166 0.0
H105 H 0.00966 0.01169 0.61555 0.0
H106 H 0.82975 0.14441 0.70507 0.0
H107 H 0.88489 0.10555 0.54479 0.0
H108 H 0.78007 0.22702 0.56651 0.0
H109 H 0.80883 0.10861 0.46435 0.0
H110 H 0.8717 0.24758 0.50117 0.0
H111 H 0.91213 0.25356 0.41032 0.0
H112 H 0.71122 0.16349 0.7058 0.0
H113 H 0.80971 0.28292 0.65129 0.0
H114 H 0.84784 0.11519 0.37297 0.0
H115 H 0.63882 0.21692 0.74225 0.0
H116 H 0.73861 0.33597 0.68839 0.0
C117 C 0.63413 0.47672 0.20583 0.0
C118 C 0.57621 0.48872 0.20686 0.0
C119 C 0.65132 0.43175 0.19007 0.0
C120 C 0.61096 0.39818 0.17376 0.0
C121 C 0.55278 0.40932 0.17758 0.0
C122 C 0.5355 0.45413 0.19453 0.0
C123 C 0.62999 0.35452 0.14626 0.0
C124 C 0.67117 0.32493 0.16969 0.0
C125 C 0.69178 0.28541 0.14159 0.0
C126 C 0.67195 0.27703 0.08826 0.0
C127 C 0.63084 0.30649 0.06432 0.0
C128 C 0.60972 0.34462 0.09409 0.0
C129 C 0.60877 0.29849 0.0084 0.0
C130 C 0.64489 0.29893 0.9629 0.0
C131 C 0.54987 0.29557 0.99996 0.0
C132 C 0.5273 0.2955 0.94765 0.0
C133 C 0.56278 0.29909 0.90194 0.0
C134 C 0.73371 0.25276 0.16771 0.0
C135 C 0.78046 0.26978 0.19786 0.0
C136 C 0.72821 0.20389 0.16095 0.0
C137 C 0.77033 0.17327 0.17969 0.0
C138 C 0.81937 0.19046 0.20579 0.0
C139 C 0.82297 0.2389 0.21668 0.0
C140 C 0.62208 0.29938 0.91005 0.0
H141 H 0.66635 0.5029 0.21491 0.0
H142 H 0.69636 0.4243 0.18715 0.0
H143 H 0.5208 0.38399 0.16526 0.0
H144 H 0.49066 0.4627 0.19433 0.0
H145 H 0.68633 0.3323 0.2102 0.0
H146 H 0.57887 0.36796 0.07555 0.0
H147 H 0.68822 0.24753 0.06541 0.0
H148 H 0.69051 0.3014 0.96822 0.0
H149 H 0.521 0.29475 0.03411 0.0
H150 H 0.48156 0.29406 0.94324 0.0
H151 H 0.78604 0.30724 0.20405 0.0
H152 H 0.69216 0.1893 0.13938 0.0
H153 H 0.65065 0.30201 0.87581 0.0
H154 H 0.86069 0.25335 0.23563 0.0
H155 H 0.76639 0.13614 0.17044 0.0
C156 C 0.59256 0.51311 0.74218 0.0
C157 C 0.54048 0.49968 0.71885 0.0
C158 C 0.61741 0.55672 0.72926 0.0
C159 C 0.59029 0.58757 0.69293 0.0
C160 C 0.5346 0.57658 0.67589 0.0
C161 C 0.51024 0.53282 0.68823 0.0
C162 C 0.62289 0.62606 0.66535 0.0
C163 C 0.66104 0.65563 0.69339 0.0
C164 C 0.69185 0.69092 0.66556 0.0
C165 C 0.68491 0.69585 0.6089 0.0
C166 C 0.64913 0.66512 0.58018 0.0
C167 C 0.61824 0.63084 0.60882 0.0
C168 C 0.64297 0.66719 0.52016 0.0
C169 C 0.61614 0.70558 0.49484 0.0
C170 C 0.65366 0.6266 0.48951 0.0
C171 C 0.63263 0.62248 0.43673 0.0
C172 C 0.60033 0.65876 0.41339 0.0
C173 C 0.73229 0.72245 0.69471 0.0
C174 C 0.72817 0.77137 0.68804 0.0
C175 C 0.77864 0.7042 0.7242 0.0
C176 C 0.82302 0.73406 0.7415 0.0
C177 C 0.82124 0.78254 0.72989 0.0
C178 C 0.77183 0.80101 0.70577 0.0
C179 C 0.59474 0.7013 0.44187 0.0
H180 H 0.61723 0.48772 0.76503 0.0
H181 H 0.66018 0.56399 0.74325 0.0
H182 H 0.51186 0.6001 0.64896 0.0
H183 H 0.47041 0.52307 0.66917 0.0
H184 H 0.66604 0.65184 0.73678 0.0
H185 H 0.59089 0.60706 0.58642 0.0
H186 H 0.70885 0.72245 0.58697 0.0
H187 H 0.60681 0.73706 0.51771 0.0
H188 H 0.67408 0.59643 0.50807 0.0
H189 H 0.63628 0.58888 0.41644 0.0
H190 H 0.69265 0.78648 0.66616 0.0
H191 H 0.78279 0.66654 0.73 0.0
H192 H 0.56848 0.72926 0.42563 0.0
H193 H 0.76939 0.83818 0.69588 0.0
H194 H 0.86094 0.71865 0.75895 0.0
C195 C 0.8507 0.82829 0.91752 0.0
C196 C 0.89347 0.7967 0.90212 0.0
C197 C 0.82693 0.8258 0.96953 0.0
C198 C 0.8448 0.79112 0.00655 0.0
C199 C 0.8817 0.75581 0.98856 0.0
C200 C 0.90594 0.75865 0.93679 0.0
C201 C 0.83831 0.79943 0.06553 0.0
C202 C 0.80082 0.77312 0.09809 0.0
C203 C 0.79531 0.7835 0.15368 0.0
C204 C 0.82929 0.81891 0.17675 0.0
C205 C 0.86796 0.84486 0.14492 0.0
C206 C 0.87127 0.83507 0.08919 0.0
C207 C 0.90186 0.88458 0.16809 0.0
C208 C 0.87852 0.91417 0.20788 0.0
C209 C 0.95535 0.89653 0.14615 0.0
C210 C 0.9809 0.9397 0.15818 0.0
C211 C 0.95476 0.97085 0.1941 0.0
C212 C 0.75097 0.7599 0.18681 0.0
C213 C 0.70624 0.7863 0.20892 0.0
C214 C 0.75026 0.71078 0.19263 0.0
C215 C 0.70349 0.6882 0.21643 0.0
C216 C 0.6561 0.71425 0.23352 0.0
C217 C 0.65874 0.76359 0.23141 0.0
C218 C 0.90512 0.95675 0.22112 0.0
H219 H 0.84138 0.85868 0.8924 0.0
H220 H 0.7991 0.85381 0.98271 0.0
H221 H 0.89681 0.72915 0.01653 0.0
H222 H 0.93984 0.73452 0.9266 0.0
H223 H 0.77456 0.74602 0.07992 0.0
H224 H 0.8989 0.85587 0.06331 0.0
H225 H 0.82528 0.82609 0.21959 0.0
H226 H 0.83745 0.90659 0.22569 0.0
H227 H 0.97588 0.87392 0.11698 0.0
H228 H 0.01909 0.95012 0.13667 0.0
H229 H 0.70592 0.8243 0.20482 0.0
H230 H 0.78442 0.68976 0.17615 0.0
H231 H 0.88373 0.98077 0.24824 0.0
H232 H 0.62202 0.78436 0.24246 0.0
H233 H 0.70169 0.65006 0.21597 0.0
C234 C 0.06138 0.95491 0.30251 0.0
C235 C 0.04788 -0.01214 0.34288 0.0
C236 C 0.08938 0.91261 0.31592 0.0
C237 C 0.10551 0.90282 0.36984 0.0
C238 C 0.09176 0.93616 0.40969 0.0
C239 C 0.06265 0.97721 0.39666 0.0
C240 C 0.13667 0.85875 0.38577 0.0
C241 C 0.17628 0.83675 0.35118 0.0
C242 C 0.20649 0.79656 0.36859 0.0
C243 C 0.19849 0.77924 0.42169 0.0
C244 C 0.1605 0.80149 0.45684 0.0
C245 C 0.1286 0.83969 0.43797 0.0
C246 C 0.1527 0.78658 0.51401 0.0
C247 C 0.11323 0.75108 0.52644 0.0
C248 C 0.17178 0.81632 0.55569 0.0
C249 C 0.14633 0.81458 0.60701 0.0
C250 C 0.1005 0.78389 0.61677 0.0
C251 C 0.24897 0.77352 0.33307 0.0
C252 C 0.24177 0.72621 0.31823 0.0
C253 C 0.30068 0.79614 0.32098 0.0
C254 C 0.34639 0.77045 0.29979 0.0
C255 C 0.34067 0.72205 0.28928 0.0
C256 C 0.28705 0.70085 0.29604 0.0
C257 C 0.08744 0.74966 0.57753 0.0
H258 H 0.05208 0.96236 0.26053 0.0
H259 H 0.09873 0.8879 0.28394 0.0
H260 H 0.10486 0.93158 0.45134 0.0
H261 H 0.05396 0.00172 0.42908 0.0
H262 H 0.18435 0.85097 0.31117 0.0
H263 H 0.09726 0.85465 0.46495 0.0
H264 H 0.2228 0.7493 0.43597 0.0
H265 H 0.09738 0.72813 0.4949 0.0
H266 H 0.20182 0.84433 0.54683 0.0
H267 H 0.15668 0.84189 0.63592 0.0
H268 H 0.20235 0.70798 0.32735 0.0
H269 H 0.30739 0.83251 0.3325 0.0
H270 H 0.05174 0.726 0.58366 0.0
H271 H 0.28194 0.6633 0.29002 0.0
H272 H 0.3877 0.78727 0.29679 0.0
C273 C 0.35182 0.62498 0.09531 0.0
C274 C 0.3879 0.66114 0.11335 0.0
C275 C 0.32895 0.62627 0.04302 0.0
C276 C 0.34147 0.6639 0.0078 0.0
C277 C 0.37195 0.70268 0.02795 0.0
C278 C 0.39527 0.70118 0.08032 0.0
C279 C 0.33323 0.6578 0.94851 0.0
C280 C 0.29979 0.68858 0.91744 0.0
C281 C 0.29123 0.68052 0.86157 0.0
C282 C 0.31801 0.64181 0.83684 0.0
C283 C 0.35394 0.61202 0.86715 0.0
C284 C 0.36032 0.62011 0.9229 0.0
C285 C 0.38272 0.57048 0.84279 0.0
C286 C 0.35196 0.53835 0.81101 0.0
C287 C 0.43875 0.55894 0.85814 0.0
C288 C 0.46102 0.51435 0.84719 0.0
C289 C 0.42805 0.48082 0.81999 0.0
C290 C 0.25337 0.71252 0.8301 0.0
C291 C 0.20555 0.69521 0.80198 0.0
C292 C 0.26134 0.76138 0.83338 0.0
C293 C 0.2199 0.7922 0.81387 0.0
C294 C 0.16911 0.77502 0.79108 0.0
C295 C 0.1635 0.7263 0.78275 0.0
C296 C 0.37441 0.49377 0.79993 0.0
H297 H 0.34671 0.59316 0.11922 0.0
H298 H 0.30564 0.59588 0.02845 0.0
H299 H 0.38265 0.7319 1.00148 0.0
H300 H 0.42434 0.72885 0.09251 0.0
H301 H 0.27894 0.71787 0.93709 0.0
H302 H 0.38625 0.59645 0.94699 0.0
H303 H 0.31183 0.63553 0.79401 0.0
H304 H 0.30874 0.546 0.79875 0.0
H305 H 0.46392 0.58326 0.88192 0.0
H306 H 0.50217 0.50488 0.86362 0.0
H307 H 0.19843 0.65762 0.79882 0.0
H308 H 0.29808 0.77575 0.8541 0.0
H309 H 0.34786 0.46803 0.77969 0.0
H310 H 0.12437 0.71199 0.76639 0.0
H311 H 0.22521 0.82956 0.82122 0.0
Zn312 Zn 0.0293 0.13017 0.33805 0.0
Zn313 Zn 0.95544 0.11016 0.15615 0.0
Zn314 Zn 0.99365 0.12231 0.24853 0.0
C315 C 0.05152 0.16265 0.1386 0.0
C316 C 0.96843 0.0212 0.19091 0.0
O317 O 0.92727 0.15698 0.30147 0.0
O318 O 0.9798 0.17653 0.37168 0.0
C319 C 0.11614 0.16607 0.28033 0.0
O320 O 0.05554 0.1561 0.19023 0.0
O321 O 0.00868 0.14766 0.11335 0.0
O322 O 0.95839 0.04177 0.14674 0.0
O323 O 0.98171 0.04529 0.23324 0.0
O324 O 0.10673 0.15082 0.32727 0.0
O325 O 0.07751 0.16195 0.2434 0.0
O326 O 0.01427 0.04978 0.28173 0.0
O327 O 0.02732 0.06605 0.36769 0.0
C328 C 0.02661 0.03607 0.33025 0.0
O329 O 0.90868 0.16043 0.24415 0.0
O330 O 0.87964 0.13708 0.16363 0.0
C331 C 0.93221 0.1765 0.34843 0.0
C332 C 0.87086 0.16033 0.20607 0.0
Zn333 Zn 0.55191 0.36505 0.66141 0.0
Zn334 Zn 0.41979 0.34156 0.89049 0.0
Zn335 Zn 0.50511 0.34234 0.74476 0.0
C336 C 0.44133 0.43048 0.82608 0.0
C337 C 0.40408 0.29739 0.77587 0.0
O338 O 0.59062 0.30735 0.75066 0.0
O339 O 0.62631 0.33641 0.67493 0.0
C340 C 0.53092 0.44936 0.70815 0.0
O341 O 0.46871 0.40831 0.78786 0.0
O342 O 0.41992 0.41026 0.86792 0.0
O343 O 0.43 0.31911 0.81307 0.0
O344 O 0.4287 0.29812 0.72992 0.0
O345 O 0.54971 0.43395 0.66397 0.0
O346 O 0.51138 0.42055 0.74403 0.0
O347 O 0.45249 0.30926 0.67801 0.0
O348 O 0.504 0.33255 0.60809 0.0
C349 C 0.46175 0.31027 0.62651 0.0
O350 O 0.56356 0.30636 0.80288 0.0
O351 O 0.48522 0.31963 0.84367 0.0
C352 C 0.63189 0.31083 0.71642 0.0
C353 C 0.53643 0.30671 0.84761 0.0
Zn354 Zn 0.04141 0.86231 0.8492 0.0
Zn355 Zn 0.95817 0.85433 0.66461 0.0
Zn356 Zn -0.00121 0.85108 0.75658 0.0
C357 C 0.96745 0.9457 0.68427 0.0
C358 C 0.87442 0.81037 0.72452 0.0
O359 O 0.08117 0.80994 0.75599 0.0
O360 O 0.1108 0.826 0.83879 0.0
C361 C 0.04057 0.95127 0.81445 0.0
O362 O 0.98182 0.92587 0.72944 0.0
O363 O 0.95962 0.92096 0.64278 0.0
O364 O 0.88245 0.82936 0.67902 0.0
O365 O 0.9137 0.81268 0.76114 0.0
O366 O 0.05325 0.93021 0.85768 0.0
O367 O 0.01908 0.928 0.77443 0.0
O368 O 0.93657 0.81789 0.81528 0.0
O369 O 0.98183 0.83192 0.89209 0.0
C370 C 0.93969 0.81486 0.8674 0.0
O371 O 0.06009 0.81337 0.70108 0.0
O372 O 0.00877 0.81176 0.62629 0.0
C373 C 0.11833 0.80555 0.79425 0.0
C374 C 0.0536 0.8009 0.65119 0.0
Zn375 Zn 0.5404 0.62638 0.17975 0.0
Zn376 Zn 0.44844 0.62235 0.34388 0.0
Zn377 Zn 0.49583 0.62724 0.26158 0.0
C378 C 0.55591 0.64528 0.37405 0.0
C379 C 0.43194 0.53594 0.30484 0.0
O380 O 0.43515 0.65998 0.20157 0.0
O381 O 0.47396 0.6244 0.13167 0.0
C382 C 0.60043 0.69093 0.23009 0.0
O383 O 0.55614 0.65748 0.32362 0.0
O384 O 0.51485 0.62152 0.39253 0.0
O385 O 0.40407 0.56339 0.33457 0.0
O386 O 0.47481 0.55189 0.27783 0.0
O387 O 0.58044 0.68698 0.18307 0.0
O388 O 0.57857 0.66642 0.26897 0.0
O389 O 0.51629 0.55233 0.23891 0.0
O390 O 0.58826 0.56888 0.18522 0.0
C391 C 0.56 0.53877 0.21156 0.0
O392 O 0.41584 0.6711 0.25485 0.0
O393 O 0.40485 0.68106 0.34261 0.0
C394 C 0.43377 0.64812 0.15116 0.0
C395 C 0.39101 0.69167 0.2949 0.0
loop_
_geom_bond_atom_site_label_1
_geom_bond_atom_site_label_2
_geom_bond_distance
_geom_bond_site_symmetry_2
_ccdc_geom_bond_type
C0 C1 1.386 . S
C0 C2 1.397 . S
C0 H24 0.931 . S
C1 C0 1.386 . S
C1 C5 1.397 . S
C2 C0 1.397 . S
C2 C3 1.384 . S
C2 H25 0.930 . S
C3 C2 1.384 . S
C3 C4 1.377 . S
C3 C6 1.481 . S
C4 C3 1.377 . S
C4 C5 1.389 . S
C4 H26 0.929 . S
C5 C1 1.397 . S
C5 C4 1.389 . S
C5 H27 0.931 . S
C6 C3 1.481 . S
C6 C7 1.387 . S
C6 C11 1.390 . S
C7 C6 1.387 . S
C7 C8 1.401 . S
C7 H28 0.930 . S
C8 C7 1.401 . S
C8 C9 1.376 . S
C8 C17 1.511 . S
C9 C8 1.376 . S
C9 C10 1.392 . S
C9 H30 0.931 . S
C10 C9 1.392 . S
C10 C11 1.361 . S
C10 C12 1.500 . S
C11 C6 1.390 . S
C11 C10 1.361 . S
C11 H29 0.931 . S
C12 C10 1.500 . S
C12 C13 1.371 . S
C12 C14 1.365 . S
C13 C12 1.371 . S
C13 C23 1.386 . S
C13 H31 0.931 . S
C14 C12 1.365 . S
C14 C15 1.409 . S
C14 H32 0.929 . S
C15 C14 1.409 . S
C15 C16 1.380 . S
C15 H33 0.930 . S
C16 C15 1.380 . S
C16 C23 1.357 . S
C17 C8 1.511 . S
C17 C18 1.341 . S
C17 C19 1.371 . S
C18 C17 1.341 . S
C18 C22 1.394 . S
C18 H34 0.930 . S
C19 C17 1.371 . S
C19 C20 1.392 . S
C19 H35 0.931 . S
C20 C19 1.392 . S
C20 C21 1.331 . S
C20 H38 0.932 . S
C21 C20 1.331 . S
C21 C22 1.336 . S
C22 C18 1.394 . S
C22 C21 1.336 . S
C22 H37 0.929 . S
C23 C13 1.386 . S
C23 C16 1.357 . S
C23 H36 0.928 . S
H24 C0 0.931 . S
H25 C2 0.930 . S
H26 C4 0.929 . S
H27 C5 0.931 . S
H28 C7 0.930 . S
H29 C11 0.931 . S
H30 C9 0.931 . S
H31 C13 0.931 . S
H32 C14 0.929 . S
H33 C15 0.930 . S
H34 C18 0.930 . S
H35 C19 0.931 . S
H36 C23 0.928 . S
H37 C22 0.929 . S
H38 C20 0.932 . S
C39 C40 1.386 1_545 S
C39 C41 1.397 . S
C39 H63 0.931 1_545 S
C40 C39 1.386 1_565 S
C40 C44 1.397 1_565 S
C41 C39 1.397 . S
C41 C42 1.384 . S
C41 H64 0.930 . S
C42 C41 1.384 . S
C42 C43 1.377 . S
C42 C45 1.481 . S
C43 C42 1.377 . S
C43 C44 1.389 . S
C43 H65 0.929 . S
C44 C40 1.397 1_545 S
C44 C43 1.389 . S
C44 H66 0.931 . S
C45 C42 1.481 . S
C45 C46 1.387 . S
C45 C50 1.390 . S
C46 C45 1.387 . S
C46 C47 1.401 . S
C46 H67 0.930 . S
C47 C46 1.401 . S
C47 C48 1.376 . S
C47 C56 1.511 . S
C48 C47 1.376 . S
C48 C49 1.392 . S
C48 H69 0.931 . S
C49 C48 1.392 . S
C49 C50 1.361 . S
C49 C51 1.500 . S
C50 C45 1.390 . S
C50 C49 1.361 . S
C50 H68 0.931 . S
C51 C49 1.500 . S
C51 C52 1.371 1_556 S
C51 C53 1.365 1_556 S
C52 C51 1.371 1_554 S
C52 C62 1.386 . S
C52 H70 0.931 . S
C53 C51 1.365 1_554 S
C53 C54 1.409 . S
C53 H71 0.929 1_554 S
C54 C53 1.409 . S
C54 C55 1.380 . S
C54 H72 0.930 . S
C55 C54 1.380 . S
C55 C62 1.357 . S
C56 C47 1.511 . S
C56 C57 1.341 . S
C56 C58 1.371 . S
C57 C56 1.341 . S
C57 C61 1.394 . S
C57 H73 0.930 . S
C58 C56 1.371 . S
C58 C59 1.392 . S
C58 H74 0.931 . S
C59 C58 1.392 . S
C59 C60 1.331 . S
C59 H77 0.932 . S
C60 C59 1.331 . S
C60 C61 1.336 . S
C61 C57 1.394 . S
C61 C60 1.336 . S
C61 H76 0.929 . S
C62 C52 1.386 . S
C62 C55 1.357 . S
C62 H75 0.928 . S
H63 C39 0.931 1_565 S
H64 C41 0.930 . S
H65 C43 0.929 . S
H66 C44 0.931 . S
H67 C46 0.930 . S
H68 C50 0.931 . S
H69 C48 0.931 . S
H70 C52 0.931 . S
H71 C53 0.929 1_556 S
H72 C54 0.930 . S
H73 C57 0.930 . S
H74 C58 0.931 . S
H75 C62 0.928 . S
H76 C61 0.929 . S
H77 C59 0.932 . S
C78 C79 1.386 1_545 S
C78 C80 1.397 . S
C78 H102 0.931 1_545 S
C79 C78 1.386 1_565 S
C79 C83 1.397 1_565 S
C80 C78 1.397 . S
C80 C81 1.384 . S
C80 H103 0.930 . S
C81 C80 1.384 . S
C81 C82 1.377 . S
C81 C84 1.481 . S
C82 C81 1.377 . S
C82 C83 1.389 . S
C82 H104 0.929 . S
C83 C79 1.397 1_545 S
C83 C82 1.389 . S
C83 H105 0.931 . S
C84 C81 1.481 . S
C84 C85 1.387 . S
C84 C89 1.390 . S
C85 C84 1.387 . S
C85 C86 1.401 . S
C85 H106 0.930 . S
C86 C85 1.401 . S
C86 C87 1.376 . S
C86 C95 1.511 . S
C87 C86 1.376 . S
C87 C88 1.392 . S
C87 H108 0.931 . S
C88 C87 1.392 . S
C88 C89 1.361 . S
C88 C90 1.500 . S
C89 C84 1.390 . S
C89 C88 1.361 . S
C89 H107 0.931 . S
C90 C88 1.500 . S
C90 C91 1.371 . S
C90 C92 1.365 . S
C91 C90 1.371 . S
C91 C101 1.386 . S
C91 H109 0.931 . S
C92 C90 1.365 . S
C92 C93 1.409 . S
C92 H110 0.929 . S
C93 C92 1.409 . S
C93 C94 1.380 . S
C93 H111 0.930 . S
C94 C93 1.380 . S
C94 C101 1.357 . S
C95 C86 1.511 . S
C95 C96 1.341 . S
C95 C97 1.371 . S
C96 C95 1.341 . S
C96 C100 1.394 . S
C96 H112 0.930 . S
C97 C95 1.371 . S
C97 C98 1.392 . S
C97 H113 0.931 . S
C98 C97 1.392 . S
C98 C99 1.331 . S
C98 H116 0.932 . S
C99 C98 1.331 . S
C99 C100 1.336 . S
C100 C96 1.394 . S
C100 C99 1.336 . S
C100 H115 0.929 . S
C101 C91 1.386 . S
C101 C94 1.357 . S
C101 H114 0.928 . S
H102 C78 0.931 1_565 S
H103 C80 0.930 . S
H104 C82 0.929 . S
H105 C83 0.931 . S
H106 C85 0.930 . S
H107 C89 0.931 . S
H108 C87 0.931 . S
H109 C91 0.931 . S
H110 C92 0.929 . S
H111 C93 0.930 . S
H112 C96 0.930 . S
H113 C97 0.931 . S
H114 C101 0.928 . S
H115 C100 0.929 . S
H116 C98 0.932 . S
C117 C118 1.386 . S
C117 C119 1.397 . S
C117 H141 0.931 . S
C118 C117 1.386 . S
C118 C122 1.397 . S
C119 C117 1.397 . S
C119 C120 1.384 . S
C119 H142 0.930 . S
C120 C119 1.384 . S
C120 C121 1.377 . S
C120 C123 1.481 . S
C121 C120 1.377 . S
C121 C122 1.389 . S
C121 H143 0.929 . S
C122 C118 1.397 . S
C122 C121 1.389 . S
C122 H144 0.931 . S
C123 C120 1.481 . S
C123 C124 1.387 . S
C123 C128 1.390 . S
C124 C123 1.387 . S
C124 C125 1.401 . S
C124 H145 0.930 . S
C125 C124 1.401 . S
C125 C126 1.376 . S
C125 C134 1.511 . S
C126 C125 1.376 . S
C126 C127 1.392 . S
C126 H147 0.931 . S
C127 C126 1.392 . S
C127 C128 1.361 . S
C127 C129 1.500 . S
C128 C123 1.390 . S
C128 C127 1.361 . S
C128 H146 0.931 . S
C129 C127 1.500 . S
C129 C130 1.371 1_554 S
C129 C131 1.365 1_554 S
C130 C129 1.371 1_556 S
C130 C140 1.386 . S
C130 H148 0.931 . S
C131 C129 1.365 1_556 S
C131 C132 1.409 . S
C131 H149 0.929 1_556 S
C132 C131 1.409 . S
C132 C133 1.380 . S
C132 H150 0.930 . S
C133 C132 1.380 . S
C133 C140 1.357 . S
C134 C125 1.511 . S
C134 C135 1.341 . S
C134 C136 1.371 . S
C135 C134 1.341 . S
C135 C139 1.394 . S
C135 H151 0.930 . S
C136 C134 1.371 . S
C136 C137 1.392 . S
C136 H152 0.931 . S
C137 C136 1.392 . S
C137 C138 1.331 . S
C137 H155 0.932 . S
C138 C137 1.331 . S
C138 C139 1.336 . S
C139 C135 1.394 . S
C139 C138 1.336 . S
C139 H154 0.929 . S
C140 C130 1.386 . S
C140 C133 1.357 . S
C140 H153 0.928 . S
H141 C117 0.931 . S
H142 C119 0.930 . S
H143 C121 0.929 . S
H144 C122 0.931 . S
H145 C124 0.930 . S
H146 C128 0.931 . S
H147 C126 0.931 . S
H148 C130 0.931 . S
H149 C131 0.929 1_554 S
H150 C132 0.930 . S
H151 C135 0.930 . S
H152 C136 0.931 . S
H153 C140 0.928 . S
H154 C139 0.929 . S
H155 C137 0.932 . S
C156 C157 1.386 . S
C156 C158 1.397 . S
C156 H180 0.931 . S
C157 C156 1.386 . S
C157 C161 1.397 . S
C158 C156 1.397 . S
C158 C159 1.384 . S
C158 H181 0.930 . S
C159 C158 1.384 . S
C159 C160 1.377 . S
C159 C162 1.481 . S
C160 C159 1.377 . S
C160 C161 1.389 . S
C160 H182 0.929 . S
C161 C157 1.397 . S
C161 C160 1.389 . S
C161 H183 0.931 . S
C162 C159 1.481 . S
C162 C163 1.387 . S
C162 C167 1.390 . S
C163 C162 1.387 . S
C163 C164 1.401 . S
C163 H184 0.930 . S
C164 C163 1.401 . S
C164 C165 1.376 . S
C164 C173 1.511 . S
C165 C164 1.376 . S
C165 C166 1.392 . S
C165 H186 0.931 . S
C166 C165 1.392 . S
C166 C167 1.361 . S
C166 C168 1.500 . S
C167 C162 1.390 . S
C167 C166 1.361 . S
C167 H185 0.931 . S
C168 C166 1.500 . S
C168 C169 1.371 . S
C168 C170 1.365 . S
C169 C168 1.371 . S
C169 C179 1.386 . S
C169 H187 0.931 . S
C170 C168 1.365 . S
C170 C171 1.409 . S
C170 H188 0.929 . S
C171 C170 1.409 . S
C171 C172 1.380 . S
C171 H189 0.930 . S
C172 C171 1.380 . S
C172 C179 1.357 . S
C173 C164 1.511 . S
C173 C174 1.341 . S
C173 C175 1.371 . S
C174 C173 1.341 . S
C174 C178 1.394 . S
C174 H190 0.930 . S
C175 C173 1.371 . S
C175 C176 1.392 . S
C175 H191 0.931 . S
C176 C175 1.392 . S
C176 C177 1.331 . S
C176 H194 0.932 . S
C177 C176 1.331 . S
C177 C178 1.336 . S
C178 C174 1.394 . S
C178 C177 1.336 . S
C178 H193 0.929 . S
C179 C169 1.386 . S
C179 C172 1.357 . S
C179 H192 0.928 . S
H180 C156 0.931 . S
H181 C158 0.930 . S
H182 C160 0.929 . S
H183 C161 0.931 . S
H184 C163 0.930 . S
H185 C167 0.931 . S
H186 C165 0.931 . S
H187 C169 0.931 . S
H188 C170 0.929 . S
H189 C171 0.930 . S
H190 C174 0.930 . S
H191 C175 0.931 . S
H192 C179 0.928 . S
H193 C178 0.929 . S
H194 C176 0.932 . S
C195 C196 1.386 . S
C195 C197 1.397 . S
C195 H219 0.931 . S
C196 C195 1.386 . S
C196 C200 1.397 . S
C197 C195 1.397 . S
C197 C198 1.384 1_556 S
C197 H220 0.930 . S
C198 C197 1.384 1_554 S
C198 C199 1.377 1_554 S
C198 C201 1.481 . S
C199 C198 1.377 1_556 S
C199 C200 1.389 . S
C199 H221 0.929 1_556 S
C200 C196 1.397 . S
C200 C199 1.389 . S
C200 H222 0.931 . S
C201 C198 1.481 . S
C201 C202 1.387 . S
C201 C206 1.390 . S
C202 C201 1.387 . S
C202 C203 1.401 . S
C202 H223 0.930 . S
C203 C202 1.401 . S
C203 C204 1.376 . S
C203 C212 1.511 . S
C204 C203 1.376 . S
C204 C205 1.392 . S
C204 H225 0.931 . S
C205 C204 1.392 . S
C205 C206 1.361 . S
C205 C207 1.500 . S
C206 C201 1.390 . S
C206 C205 1.361 . S
C206 H224 0.931 . S
C207 C205 1.500 . S
C207 C208 1.371 . S
C207 C209 1.365 . S
C208 C207 1.371 . S
C208 C218 1.386 . S
C208 H226 0.931 . S
C209 C207 1.365 . S
C209 C210 1.409 . S
C209 H227 0.929 . S
C210 C209 1.409 . S
C210 C211 1.380 1_565 S
C210 H228 0.930 . S
C211 C210 1.380 1_545 S
C211 C218 1.357 1_545 S
C212 C203 1.511 . S
C212 C213 1.341 . S
C212 C214 1.371 . S
C213 C212 1.341 . S
C213 C217 1.394 . S
C213 H229 0.930 . S
C214 C212 1.371 . S
C214 C215 1.392 . S
C214 H230 0.931 . S
C215 C214 1.392 . S
C215 C216 1.331 . S
C215 H233 0.932 . S
C216 C215 1.331 . S
C216 C217 1.336 . S
C217 C213 1.394 . S
C217 C216 1.336 . S
C217 H232 0.929 . S
C218 C208 1.386 . S
C218 C211 1.357 1_565 S
C218 H231 0.928 1_565 S
H219 C195 0.931 . S
H220 C197 0.930 . S
H221 C199 0.929 1_554 S
H222 C200 0.931 . S
H223 C202 0.930 . S
H224 C206 0.931 . S
H225 C204 0.931 . S
H226 C208 0.931 . S
H227 C209 0.929 . S
H228 C210 0.930 . S
H229 C213 0.930 . S
H230 C214 0.931 . S
H231 C218 0.928 1_545 S
H232 C217 0.929 . S
H233 C215 0.932 . S
C234 C235 1.386 1_565 S
C234 C236 1.397 . S
C234 H258 0.931 . S
C235 C234 1.386 1_545 S
C235 C239 1.397 . S
C236 C234 1.397 . S
C236 C237 1.384 . S
C236 H259 0.930 . S
C237 C236 1.384 . S
C237 C238 1.377 . S
C237 C240 1.481 . S
C238 C237 1.377 . S
C238 C239 1.389 1_565 S
C238 H260 0.929 . S
C239 C235 1.397 . S
C239 C238 1.389 1_545 S
C239 H261 0.931 . S
C240 C237 1.481 . S
C240 C241 1.387 . S
C240 C245 1.390 . S
C241 C240 1.387 . S
C241 C242 1.401 . S
C241 H262 0.930 . S
C242 C241 1.401 . S
C242 C243 1.376 . S
C242 C251 1.511 . S
C243 C242 1.376 . S
C243 C244 1.392 . S
C243 H264 0.931 . S
C244 C243 1.392 . S
C244 C245 1.361 . S
C244 C246 1.500 . S
C245 C240 1.390 . S
C245 C244 1.361 . S
C245 H263 0.931 . S
C246 C244 1.500 . S
C246 C247 1.371 . S
C246 C248 1.365 . S
C247 C246 1.371 . S
C247 C257 1.386 . S
C247 H265 0.931 . S
C248 C246 1.365 . S
C248 C249 1.409 . S
C248 H266 0.929 . S
C249 C248 1.409 . S
C249 C250 1.380 . S
C249 H267 0.930 . S
C250 C249 1.380 . S
C250 C257 1.357 . S
C251 C242 1.511 . S
C251 C252 1.341 . S
C251 C253 1.371 . S
C252 C251 1.341 . S
C252 C256 1.394 . S
C252 H268 0.930 . S
C253 C251 1.371 . S
C253 C254 1.392 . S
C253 H269 0.931 . S
C254 C253 1.392 . S
C254 C255 1.331 . S
C254 H272 0.932 . S
C255 C254 1.331 . S
C255 C256 1.336 . S
C256 C252 1.394 . S
C256 C255 1.336 . S
C256 H271 0.929 . S
C257 C247 1.386 . S
C257 C250 1.357 . S
C257 H270 0.928 . S
H258 C234 0.931 . S
H259 C236 0.930 . S
H260 C238 0.929 . S
H261 C239 0.931 . S
H262 C241 0.930 . S
H263 C245 0.931 . S
H264 C243 0.931 . S
H265 C247 0.931 . S
H266 C248 0.929 . S
H267 C249 0.930 . S
H268 C252 0.930 . S
H269 C253 0.931 . S
H270 C257 0.928 . S
H271 C256 0.929 . S
H272 C254 0.932 . S
C273 C274 1.386 . S
C273 C275 1.397 . S
C273 H297 0.931 . S
C274 C273 1.386 . S
C274 C278 1.397 . S
C275 C273 1.397 . S
C275 C276 1.384 1_554 S
C275 H298 0.930 . S
C276 C275 1.384 1_556 S
C276 C277 1.377 1_556 S
C276 C279 1.481 . S
C277 C276 1.377 1_554 S
C277 C278 1.389 . S
C277 H299 0.929 1_554 S
C278 C274 1.397 . S
C278 C277 1.389 . S
C278 H300 0.931 . S
C279 C276 1.481 . S
C279 C280 1.387 . S
C279 C284 1.390 . S
C280 C279 1.387 . S
C280 C281 1.401 . S
C280 H301 0.930 . S
C281 C280 1.401 . S
C281 C282 1.376 . S
C281 C290 1.511 . S
C282 C281 1.376 . S
C282 C283 1.392 . S
C282 H303 0.931 . S
C283 C282 1.392 . S
C283 C284 1.361 . S
C283 C285 1.500 . S
C284 C279 1.390 . S
C284 C283 1.361 . S
C284 H302 0.931 . S
C285 C283 1.500 . S
C285 C286 1.371 . S
C285 C287 1.365 . S
C286 C285 1.371 . S
C286 C296 1.386 . S
C286 H304 0.931 . S
C287 C285 1.365 . S
C287 C288 1.409 . S
C287 H305 0.929 . S
C288 C287 1.409 . S
C288 C289 1.380 . S
C288 H306 0.930 . S
C289 C288 1.380 . S
C289 C296 1.357 . S
C290 C281 1.511 . S
C290 C291 1.341 . S
C290 C292 1.371 . S
C291 C290 1.341 . S
C291 C295 1.394 . S
C291 H307 0.930 . S
C292 C290 1.371 . S
C292 C293 1.392 . S
C292 H308 0.931 . S
C293 C292 1.392 . S
C293 C294 1.331 . S
C293 H311 0.932 . S
C294 C293 1.331 . S
C294 C295 1.336 . S
C295 C291 1.394 . S
C295 C294 1.336 . S
C295 H310 0.929 . S
C296 C286 1.386 . S
C296 C289 1.357 . S
C296 H309 0.928 . S
H297 C273 0.931 . S
H298 C275 0.930 . S
H299 C277 0.929 1_556 S
H300 C278 0.931 . S
H301 C280 0.930 . S
H302 C284 0.931 . S
H303 C282 0.931 . S
H304 C286 0.931 . S
H305 C287 0.929 . S
H306 C288 0.930 . S
H307 C291 0.930 . S
H308 C292 0.931 . S
H309 C296 0.928 . S
H310 C295 0.929 . S
H311 C293 0.932 . S
Zn312 O318 1.920 1_455 S
Zn312 O324 1.898 . S
Zn312 O327 1.905 . S
Zn313 O321 1.905 1_655 S
Zn313 O322 1.898 . S
Zn313 O330 1.920 . S
Zn314 O317 2.080 1_455 S
Zn314 O320 2.114 . S
Zn314 O323 2.120 1_455 S
Zn314 O325 2.120 . S
Zn314 O326 2.114 . S
Zn314 O329 2.080 1_455 S
C315 O320 1.166 . S
C315 O321 1.182 . S
C316 O322 1.167 . S
C316 O323 1.299 . S
O317 Zn314 2.080 1_655 S
O317 C331 1.305 . S
O318 Zn312 1.920 1_655 S
O318 C331 1.234 . S
C319 O324 1.167 . S
C319 O325 1.299 . S
O320 Zn314 2.114 . S
O320 C315 1.166 . S
O321 Zn313 1.905 1_455 S
O321 C315 1.182 . S
O322 Zn313 1.898 . S
O322 C316 1.167 . S
O323 Zn314 2.120 1_655 S
O323 C316 1.299 . S
O324 Zn312 1.898 . S
O324 C319 1.167 . S
O325 Zn314 2.120 . S
O325 C319 1.299 . S
O326 Zn314 2.114 . S
O326 C328 1.166 . S
O327 Zn312 1.905 . S
O327 C328 1.182 . S
C328 O326 1.166 . S
C328 O327 1.182 . S
O329 Zn314 2.080 1_655 S
O329 C332 1.305 . S
O330 Zn313 1.920 . S
O330 C332 1.234 . S
C331 O317 1.305 . S
C331 O318 1.234 . S
C332 O329 1.305 . S
C332 O330 1.234 . S
Zn333 O339 1.920 . S
Zn333 O345 1.898 . S
Zn333 O348 1.905 . S
Zn334 O342 1.905 . S
Zn334 O343 1.898 . S
Zn334 O351 1.920 . S
Zn335 O338 2.080 . S
Zn335 O341 2.114 . S
Zn335 O344 2.120 . S
Zn335 O346 2.120 . S
Zn335 O347 2.114 . S
Zn335 O350 2.080 . S
C336 O341 1.166 . S
C336 O342 1.182 . S
C337 O343 1.167 . S
C337 O344 1.299 . S
O338 Zn335 2.080 . S
O338 C352 1.305 . S
O339 Zn333 1.920 . S
O339 C352 1.234 . S
C340 O345 1.167 . S
C340 O346 1.299 . S
O341 Zn335 2.114 . S
O341 C336 1.166 . S
O342 Zn334 1.905 . S
O342 C336 1.182 . S
O343 Zn334 1.898 . S
O343 C337 1.167 . S
O344 Zn335 2.120 . S
O344 C337 1.299 . S
O345 Zn333 1.898 . S
O345 C340 1.167 . S
O346 Zn335 2.120 . S
O346 C340 1.299 . S
O347 Zn335 2.114 . S
O347 C349 1.166 . S
O348 Zn333 1.905 . S
O348 C349 1.182 . S
C349 O347 1.166 . S
C349 O348 1.182 . S
O350 Zn335 2.080 . S
O350 C353 1.305 . S
O351 Zn334 1.920 . S
O351 C353 1.234 . S
C352 O338 1.305 . S
C352 O339 1.234 . S
C353 O350 1.305 . S
C353 O351 1.234 . S
Zn354 O360 1.920 . S
Zn354 O366 1.898 . S
Zn354 O369 1.905 1_455 S
Zn355 O363 1.905 . S
Zn355 O364 1.898 . S
Zn355 O372 1.920 1_655 S
Zn356 O359 2.092 . S
Zn356 O362 2.101 1_455 S
Zn356 O365 2.108 1_455 S
Zn356 O367 2.133 . S
Zn356 O368 2.104 1_455 S
Zn356 O371 2.090 . S
C357 O362 1.166 . S
C357 O363 1.182 . S
C358 O364 1.167 . S
C358 O365 1.299 . S
O359 Zn356 2.092 . S
O359 C373 1.305 . S
O360 Zn354 1.920 . S
O360 C373 1.234 . S
C361 O366 1.167 . S
C361 O367 1.299 . S
O362 Zn356 2.101 1_655 S
O362 C357 1.166 . S
O363 Zn355 1.905 . S
O363 C357 1.182 . S
O364 Zn355 1.898 . S
O364 C358 1.167 . S
O365 Zn356 2.108 1_655 S
O365 C358 1.299 . S
O366 Zn354 1.898 . S
O366 C361 1.167 . S
O367 Zn356 2.133 . S
O367 C361 1.299 . S
O368 Zn356 2.104 1_655 S
O368 C370 1.166 . S
O369 Zn354 1.905 1_655 S
O369 C370 1.182 . S
C370 O368 1.166 . S
C370 O369 1.182 . S
O371 Zn356 2.090 . S
O371 C374 1.305 . S
O372 Zn355 1.920 1_455 S
O372 C374 1.234 . S
C373 O359 1.305 . S
C373 O360 1.234 . S
C374 O371 1.305 . S
C374 O372 1.234 . S
Zn375 O381 1.920 . S
Zn375 O387 1.898 . S
Zn375 O390 1.905 . S
Zn376 O384 1.905 . S
Zn376 O385 1.898 . S
Zn376 O393 1.920 . S
Zn377 O380 2.080 . S
Zn377 O383 2.114 . S
Zn377 O386 2.120 . S
Zn377 O388 2.120 . S
Zn377 O389 2.114 . S
Zn377 O392 2.080 . S
C378 O383 1.166 . S
C378 O384 1.182 . S
C379 O385 1.167 . S
C379 O386 1.299 . S
O380 Zn377 2.080 . S
O380 C394 1.305 . S
O381 Zn375 1.920 . S
O381 C394 1.234 . S
C382 O387 1.167 . S
C382 O388 1.299 . S
O383 Zn377 2.114 . S
O383 C378 1.166 . S
O384 Zn376 1.905 . S
O384 C378 1.182 . S
O385 Zn376 1.898 . S
O385 C379 1.167 . S
O386 Zn377 2.120 . S
O386 C379 1.299 . S
O387 Zn375 1.898 . S
O387 C382 1.167 . S
O388 Zn377 2.120 . S
O388 C382 1.299 . S
O389 Zn377 2.114 . S
O389 C391 1.166 . S
O390 Zn375 1.905 . S
O390 C391 1.182 . S
C391 O389 1.166 . S
C391 O390 1.182 . S
O392 Zn377 2.080 . S
O392 C395 1.305 . S
O393 Zn376 1.920 . S
O393 C395 1.234 . S
C394 O380 1.305 . S
C394 O381 1.234 . S
C395 O392 1.305 . S
C395 O393 1.234 . S
C235 C328 2.131 . S
C336 C289 2.105 . S
C340 C157 2.104 . S
C211 C316 2.078 . S
C357 C79 2.114 . S
C391 C118 2.122 . S
C1 C379 2.086 . S
C40 C361 2.094 . S
C315 C55 1.447 . S
C349 C16 1.452 . S
C353 C133 1.436 . S
C331 C94 1.440 . S
C370 C196 1.471 . S
C172 C378 1.459 . S
C394 C274 1.461 . S
C250 C374 1.448 . S
C319 C21 1.249 . S
C337 C60 1.254 . S
C99 C352 1.241 . S
C332 C138 1.246 . S
C358 C177 1.276 . S
C216 C382 1.255 . S
C255 C395 1.265 . S
C294 C373 1.248 . S
