# Generated by pormake.
# Topology rtl, (3,6)-cn, num edge types: 1
# Building blocks:
#     Node 0, Type 0, BuildingBlock: BETDIP_clean_linker_0, # of connection points: 3
#     Node 1, Type 0, BuildingBlock: BETDIP_clean_linker_0, # of connection points: 3
#     Node 2, Type 0, BuildingBlock: BETDIP_clean_linker_0, # of connection points: 3
#     Node 3, Type 0, BuildingBlock: BETDIP_clean_linker_0, # of connection points: 3
#     Node 4, Type 1, BuildingBlock: CIFDUS_clean_sbu_1, # of connection points: 6
#     Node 5, Type 1, BuildingBlock: CIFDUS_clean_sbu_1, # of connection points: 6
#     Edge 6, Type (0, 1), BuildingBlock: XUDNAN_clean_linker_2, # of connection points: 2
#     Edge 7, Type (0, 1), BuildingBlock: XUDNAN_clean_linker_2, # of connection points: 2
#     Edge 8, Type (0, 1), BuildingBlock: XUDNAN_clean_linker_2, # of connection points: 2
#     Edge 9, Type (0, 1), BuildingBlock: XUDNAN_clean_linker_2, # of connection points: 2
#     Edge 10, Type (0, 1), BuildingBlock: XUDNAN_clean_linker_2, # of connection points: 2
#     Edge 11, Type (0, 1), BuildingBlock: XUDNAN_clean_linker_2, # of connection points: 2
#     Edge 12, Type (0, 1), BuildingBlock: XUDNAN_clean_linker_2, # of connection points: 2
#     Edge 13, Type (0, 1), BuildingBlock: XUDNAN_clean_linker_2, # of connection points: 2
#     Edge 14, Type (0, 1), BuildingBlock: XUDNAN_clean_linker_2, # of connection points: 2
#     Edge 15, Type (0, 1), BuildingBlock: XUDNAN_clean_linker_2, # of connection points: 2
#     Edge 16, Type (0, 1), BuildingBlock: XUDNAN_clean_linker_2, # of connection points: 2
#     Edge 17, Type (0, 1), BuildingBlock: XUDNAN_clean_linker_2, # of connection points: 2
# Relax obj value: 0.017
# Max RMSD: 0.115
# Mean RMSD: 0.088
data_MOF--net-rtl--node1-CIFDUS_clean_sbu_1--node2-BETDIP_clean_linker_0--edge1-XUDNAN_clean_linker_2
_symmetry_space_group_name_H-M    P1
_symmetry_Int_Tables_number       1
_symmetry_cell_setting            triclinic
loop_
_symmetry_equiv_pos_as_xyz
'x, y, z'
_cell_length_a     35.010836
_cell_length_b     35.361767
_cell_length_c     22.121805
_cell_angle_alpha  91.064569
_cell_angle_beta   99.400064
_cell_angle_gamma 89.0817
loop_
_atom_site_label
_atom_site_type_symbol
_atom_site_fract_x
_atom_site_fract_y
_atom_site_fract_z
_atom_type_partial_charge
H0 H 0.19983 0.81371 0.98402 0.0
H1 H 0.22966 0.83471 0.17827 0.0
H2 H 0.14795 0.90769 0.06818 0.0
H3 H 0.2893 0.80627 0.15502 0.0
C4 C 0.27625 0.78237 0.12818 0.0
C5 C 0.19705 0.83081 0.0243 0.0
C6 C 0.17161 0.86203 0.01933 0.0
C7 C 0.21848 0.82101 0.08113 0.0
C8 C 0.21417 0.84266 0.13377 0.0
C9 C 0.18895 0.87417 0.12912 0.0
C10 C 0.16786 0.88371 0.07179 0.0
N11 N 0.24232 0.78801 0.08428 0.0
H12 H 0.72241 0.74035 0.69675 0.0
H13 H 0.70705 0.73099 0.50022 0.0
H14 H 0.63121 0.67237 0.59934 0.0
H15 H 0.76767 0.75556 0.51698 0.0
C16 C 0.769 0.77473 0.55616 0.0
C17 C 0.70622 0.72925 0.65445 0.0
C18 C 0.67664 0.70303 0.65561 0.0
C19 C 0.71656 0.74051 0.59891 0.0
C20 C 0.69818 0.72396 0.54317 0.0
C21 C 0.66844 0.69764 0.54354 0.0
C22 C 0.65624 0.68997 0.59952 0.0
N23 N 0.74582 0.76827 0.60183 0.0
H24 H 0.80068 0.23476 0.89468 0.0
H25 H 0.81472 0.21894 0.08954 0.0
H26 H 0.89584 0.16857 0.98327 0.0
H27 H 0.74389 0.22715 0.05788 0.0
C28 C 0.74454 0.25258 0.03125 0.0
C29 C 0.81669 0.22263 0.93604 0.0
C30 C 0.84883 0.19921 0.93261 0.0
C31 C 0.80484 0.23046 0.99256 0.0
C32 C 0.82471 0.21354 0.04641 0.0
C33 C 0.85758 0.19012 0.04392 0.0
C34 C 0.86987 0.18481 0.98672 0.0
N35 N 0.77332 0.25615 0.99349 0.0
H36 H 0.30696 0.34508 0.38062 0.0
H37 H 0.31677 0.32454 0.57446 0.0
H38 H 0.3782 0.4157 0.51251 0.0
H39 H 0.29278 0.27021 0.54674 0.0
C40 C 0.27483 0.27238 0.5021 0.0
C41 C 0.31908 0.35201 0.42771 0.0
C42 C 0.34347 0.38335 0.44086 0.0
C43 C 0.30943 0.32999 0.47514 0.0
C44 C 0.32475 0.33968 0.53654 0.0
C45 C 0.34943 0.37057 0.55002 0.0
C46 C 0.35864 0.39213 0.50205 0.0
N47 N 0.28279 0.2998 0.45979 0.0
O48 O 1.00194 0.0681 0.46381 0.0
Mn49 Mn 0.01923 0.02919 0.53517 0.0
O50 O 0.95169 0.04232 0.40553 0.0
Mn51 Mn 0.97321 0.99586 0.42553 0.0
O52 O 0.0364 0.98906 0.60487 0.0
O53 O 0.06159 0.06923 0.56393 0.0
Mn54 Mn 0.06786 0.05772 0.64286 0.0
O55 O 0.98179 0.05589 0.58836 0.0
O56 O 0.08994 0.01118 0.65848 0.0
O57 O 0.05757 1.00396 0.48293 0.0
O58 O 0.01921 0.98279 0.39844 0.0
O59 O 0.10139 0.0947 0.64344 0.0
O60 O 0.02326 0.06954 0.6739 0.0
C61 C 0.9507 0.96339 0.4869 0.0
C62 C 0.97286 0.07051 0.42049 0.0
C63 C 0.06742 0.9841 0.64358 0.0
C64 C 0.0885 0.09394 0.58501 0.0
C65 C 0.98917 0.06966 0.64323 0.0
C66 C 0.05258 0.98796 0.4298 0.0
O67 O 0.97726 0.98888 0.50567 0.0
O68 O 0.93944 0.95924 0.42835 0.0
O69 O 0.53834 0.56545 0.12192 0.0
Mn70 Mn 0.51523 0.53224 0.04416 0.0
O71 O 0.5918 0.53564 0.15922 0.0
Mn72 Mn 0.56403 0.49217 0.14209 0.0
O73 O 0.48904 0.50119 0.96687 0.0
O74 O 0.47694 0.57566 0.02431 0.0
Mn75 Mn 0.47531 0.58652 0.94647 0.0
O76 O 0.55524 0.5561 0.99448 0.0
O77 O 0.45716 0.54387 0.90256 0.0
O78 O 0.4774 0.50904 0.09595 0.0
O79 O 0.51895 0.4863 0.17575 0.0
O80 O 0.4412 0.61977 0.97368 0.0
O81 O 0.52365 0.602 0.93661 0.0
C82 C 0.57655 0.45694 0.07314 0.0
C83 C 0.57088 0.5649 0.15791 0.0
C84 C 0.46647 0.50983 0.91693 0.0
C85 C 0.45094 0.6022 0.02482 0.0
C86 C 0.55443 0.58402 0.95778 0.0
C87 C 0.48465 0.49356 0.14864 0.0
O88 O 0.55276 0.48603 0.06152 0.0
O89 O 0.59183 0.45091 0.12959 0.0
H90 H 0.22826 0.26142 0.58436 0.0
H91 H 0.2419 0.23282 0.39812 0.0
H92 H 0.18699 0.18806 0.39052 0.0
H93 H 0.21045 0.17332 0.63043 0.0
H94 H 0.17532 0.18789 0.67763 0.0
H95 H 0.21169 0.22031 0.66373 0.0
H96 H 0.15824 0.26912 0.6215 0.0
H97 H 0.12159 0.23666 0.63538 0.0
H98 H 0.12041 0.25545 0.5599 0.0
H99 H 0.13721 0.13751 0.41333 0.0
H100 H 0.09792 0.09202 0.46164 0.0
H101 H 0.11418 0.16153 0.62695 0.0
C102 C 0.21895 0.24643 0.54144 0.0
C103 C 0.23895 0.25027 0.4919 0.0
C104 C 0.22644 0.23026 0.43641 0.0
C105 C 0.19538 0.20483 0.43183 0.0
C106 C 0.17666 0.20088 0.48256 0.0
C107 C 0.18764 0.22205 0.53573 0.0
C108 C 0.16509 0.21179 0.58531 0.0
C109 C 0.19225 0.19747 0.64257 0.0
C110 C 0.13983 0.24525 0.60143 0.0
C111 C 0.1407 0.18041 0.55309 0.0
C112 C 0.14736 0.17408 0.49386 0.0
C113 C 0.13111 0.14297 0.45911 0.0
C114 C 0.1087 0.11732 0.4866 0.0
C115 C 0.10311 0.12323 0.548 0.0
C116 C 0.11787 0.15614 0.57986 0.0
H117 H 0.35404 0.77181 0.15786 0.0
H118 H 0.24734 0.71195 0.09696 0.0
H119 H 0.28444 0.65219 0.092 0.0
H120 H 0.40466 0.72906 0.05536 0.0
H121 H 0.45071 0.72775 0.10563 0.0
H122 H 0.41514 0.76296 0.11753 0.0
H123 H 0.41894 0.74042 0.22936 0.0
H124 H 0.45392 0.70428 0.21692 0.0
H125 H 0.40989 0.69159 0.24344 0.0
H126 H 0.33292 0.60094 0.0821 0.0
H127 H 0.3871 0.56689 0.0458 0.0
H128 H 0.46254 0.6605 0.10578 0.0
C129 C 0.33857 0.74581 0.14529 0.0
C130 C 0.29795 0.74617 0.12882 0.0
C131 C 0.27852 0.71208 0.11032 0.0
C132 C 0.29933 0.67796 0.10803 0.0
C133 C 0.33957 0.67847 0.12408 0.0
C134 C 0.35902 0.7117 0.1414 0.0
C135 C 0.40238 0.70602 0.1462 0.0
C136 C 0.41917 0.73301 0.1036 0.0
C137 C 0.42248 0.71087 0.21296 0.0
C138 C 0.40422 0.66508 0.12505 0.0
C139 C 0.36782 0.64917 0.11549 0.0
C140 C 0.36164 0.6128 0.09067 0.0
C141 C 0.39275 0.59333 0.07101 0.0
C142 C 0.42915 0.6107 0.07472 0.0
C143 C 0.43543 0.64603 0.10508 0.0
H144 H 0.8268 0.78383 0.49026 0.0
H145 H 0.77797 0.83321 0.64182 0.0
H146 H 0.82711 0.88361 0.65299 0.0
H147 H 0.92841 0.80382 0.55078 0.0
H148 H 0.93937 0.81416 0.47603 0.0
H149 H 0.90215 0.78077 0.4836 0.0
H150 H 0.85234 0.81936 0.40828 0.0
H151 H 0.88957 0.85226 0.39967 0.0
H152 H 0.84537 0.86905 0.42343 0.0
H153 H 0.87823 0.93337 0.6383 0.0
H154 H 0.92285 0.97632 0.59629 0.0
H155 H 0.94041 0.89004 0.46178 0.0
C156 C 0.82678 0.80499 0.52631 0.0
C157 C 0.79875 0.80458 0.56518 0.0
C158 C 0.79938 0.83288 0.6116 0.0
C159 C 0.82729 0.86156 0.61845 0.0
C160 C 0.85469 0.86118 0.57915 0.0
C161 C 0.85461 0.83336 0.5342 0.0
C162 C 0.88536 0.84004 0.4953 0.0
C163 C 0.91562 0.80777 0.50186 0.0
C164 C 0.86706 0.84552 0.42772 0.0
C165 C 0.90236 0.87635 0.52431 0.0
C166 C 0.8846 0.88841 0.57272 0.0
C167 C 0.89293 0.92372 0.60135 0.0
C168 C 0.91861 0.94783 0.57783 0.0
C169 C 0.93539 0.93621 0.52648 0.0
C170 C 0.9285 0.89937 0.50188 0.0
H171 H 0.74175 0.32763 0.99975 0.0
H172 H 0.67159 0.23669 0.04828 0.0
H173 H 0.61437 0.27953 0.0362 0.0
H174 H 0.70345 0.39663 0.08705 0.0
H175 H 0.70582 0.43464 0.03463 0.0
H176 H 0.73862 0.39502 0.03586 0.0
H177 H 0.71533 0.38443 0.91946 0.0
H178 H 0.68149 0.42351 0.91856 0.0
H179 H 0.6646 0.37739 0.89142 0.0
H180 H 0.56627 0.3326 0.02632 0.0
H181 H 0.53555 0.39387 0.04546 0.0
H182 H 0.63757 0.45197 0.01198 0.0
C183 C 0.71407 0.31663 0.00644 0.0
C184 C 0.71069 0.2787 0.02372 0.0
C185 C 0.67451 0.26557 0.03434 0.0
C186 C 0.64182 0.28958 0.02689 0.0
C187 C 0.64589 0.32682 0.00934 0.0
C188 C 0.68132 0.34053 1.00059 0.0
C189 C 0.67922 0.38299 0.9914 0.0
C190 C 0.70848 0.40351 0.04016 0.0
C191 C 0.68554 0.39264 0.92633 0.0
C192 C 0.63766 0.39129 0.99959 0.0
C193 C 0.61847 0.35821 0.00694 0.0
C194 C 0.58073 0.35863 0.01953 0.0
C195 C 0.56314 0.39366 0.02925 0.0
C196 C 0.58371 0.42767 0.02829 0.0
C197 C 0.62059 0.42652 0.01012 0.0
H198 H 0.15745 0.84925 0.22541 0.0
H199 H 0.20281 0.94897 0.15315 0.0
H200 H 0.18244 0.98795 0.23678 0.0
H201 H 0.07388 0.89032 0.25363 0.0
H202 H 0.07053 0.86565 0.32314 0.0
H203 H 0.09656 0.84444 0.2674 0.0
H204 H 0.15782 0.83793 0.35018 0.0
H205 H 0.13179 0.85914 0.4064 0.0
H206 H 0.17672 0.87914 0.39342 0.0
H207 H 0.15004 0.01709 0.32007 0.0
H208 H 0.10325 0.03464 0.38902 0.0
H209 H 0.07479 0.91673 0.4017 0.0
C210 C 0.16437 0.87904 0.2289 0.0
C211 C 0.18241 0.89616 0.18408 0.0
C212 C 0.1896 0.93543 0.18799 0.0
C213 C 0.17827 0.95767 0.23538 0.0
C214 C 0.15958 0.94018 0.27824 0.0
C215 C 0.15261 0.9017 0.27534 0.0
C216 C 0.12723 0.89071 0.32131 0.0
C217 C 0.08984 0.87169 0.28943 0.0
C218 C 0.14974 0.86521 0.37075 0.0
C219 C 0.11908 0.9292 0.34788 0.0
C220 C 0.13919 0.95722 0.32423 0.0
C221 C 0.13472 0.99531 0.33969 0.0
C222 C 0.10829 1.00505 0.37903 0.0
C223 C 0.08621 0.97688 0.40119 0.0
C224 C 0.09211 0.93855 0.38622 0.0
H225 H 0.64923 0.63213 0.67507 0.0
H226 H 0.68429 0.73775 0.77056 0.0
H227 H 0.66951 0.71117 0.86607 0.0
H228 H 0.56609 0.62433 0.74354 0.0
H229 H 0.56777 0.57336 0.74405 0.0
H230 H 0.58797 0.59831 0.68693 0.0
H231 H 0.65342 0.56328 0.7202 0.0
H232 H 0.63357 0.5389 0.7786 0.0
H233 H 0.6769 0.56629 0.79896 0.0
H234 H 0.6444 0.67594 0.94872 0.0
H235 H 0.60292 0.63939 0.00624 0.0
H236 H 0.57953 0.55955 0.85475 0.0
C237 C 0.65374 0.65014 0.71559 0.0
C238 C 0.66818 0.68734 0.71442 0.0
C239 C 0.67415 0.70898 0.76972 0.0
C240 C 0.66576 0.6941 0.82447 0.0
C241 C 0.65107 0.65761 0.82338 0.0
C242 C 0.64452 0.63621 0.77 0.0
C243 C 0.62345 0.60011 0.77846 0.0
C244 C 0.58399 0.59899 0.73576 0.0
C245 C 0.64835 0.56507 0.76848 0.0
C246 C 0.61867 0.60467 0.84501 0.0
C247 C 0.63558 0.63764 0.87055 0.0
C248 C 0.63181 0.6497 0.92971 0.0
C249 C 0.6086 0.62859 0.96237 0.0
C250 C 0.58947 0.59602 0.93564 0.0
C251 C 0.59552 0.58332 0.87713 0.0
H252 H 0.86367 0.20899 0.16997 0.0
H253 H 0.89896 0.12289 0.0461 0.0
H254 H 0.94414 0.09641 0.12978 0.0
H255 H 0.95371 0.21572 0.28021 0.0
H256 H 0.93025 0.21568 0.3469 0.0
H257 H 0.90538 0.23496 0.27603 0.0
H258 H 0.84807 0.18957 0.27732 0.0
H259 H 0.87234 0.17113 0.34892 0.0
H260 H 0.85761 0.13946 0.28483 0.0
H261 H 0.98882 0.08086 0.22287 0.0
H262 H 1.00966 0.05736 0.32696 0.0
H263 H 0.93368 0.13905 0.39752 0.0
C264 C 0.88085 0.18469 0.15999 0.0
C265 C 0.87976 0.17063 0.09902 0.0
C266 C 0.90157 0.13725 0.09011 0.0
C267 C 0.92734 0.12141 0.13787 0.0
C268 C 0.9296 0.13745 0.19592 0.0
C269 C 0.90534 0.1667 0.20828 0.0
C270 C 0.90865 0.17307 0.27724 0.0
C271 C 0.92548 0.2122 0.2962 0.0
C272 C 0.86933 0.16797 0.29831 0.0
C273 C 0.93745 0.14187 0.30085 0.0
C274 C 0.95088 0.12363 0.25258 0.0
C275 C 0.97835 0.0946 0.26124 0.0
C276 C 0.99044 0.08184 0.32064 0.0
C277 C 0.97355 0.09668 0.37006 0.0
C278 C 0.94767 0.12795 0.36064 0.0
H279 H 0.3459 0.44016 0.60234 0.0
H280 H 0.3885 0.32607 0.64132 0.0
H281 H 0.42074 0.34748 0.74452 0.0
H282 H 0.42855 0.48712 0.66895 0.0
H283 H 0.40329 0.52623 0.6988 0.0
H284 H 0.38071 0.50068 0.63174 0.0
H285 H 0.32156 0.48699 0.68481 0.0
H286 H 0.34392 0.5128 0.75198 0.0
H287 H 0.32915 0.46466 0.75848 0.0
H288 H 0.45386 0.38457 0.84074 0.0
H289 H 0.48107 0.43221 0.91953 0.0
H290 H 0.41429 0.51999 0.8133 0.0
C291 C 0.36159 0.41958 0.63295 0.0
C292 C 0.36497 0.3816 0.61413 0.0
C293 C 0.38551 0.35533 0.65533 0.0
C294 C 0.40394 0.36727 0.71381 0.0
C295 C 0.40094 0.40537 0.73034 0.0
C296 C 0.37972 0.43089 0.69112 0.0
C297 C 0.38184 0.47046 0.7178 0.0
C298 C 0.39967 0.4977 0.67689 0.0
C299 C 0.34174 0.48454 0.72893 0.0
C300 C 0.40854 0.46366 0.77739 0.0
C301 C 0.41924 0.42607 0.78462 0.0
C302 C 0.44523 0.41402 0.83571 0.0
C303 C 0.4606 0.44123 0.88016 0.0
C304 C 0.44996 0.47993 0.87278 0.0
C305 C 0.42326 0.49077 0.82084 0.0
H306 H 0.65147 0.71824 0.41934 0.0
H307 H 0.65043 0.62327 0.54143 0.0
H308 H 0.61678 0.58523 0.45714 0.0
H309 H 0.55921 0.69888 0.31936 0.0
H310 H 0.57638 0.70954 0.2492 0.0
H311 H 0.59716 0.7328 0.31994 0.0
H312 H 0.66563 0.7095 0.30522 0.0
H313 H 0.64506 0.68678 0.23407 0.0
H314 H 0.6742 0.65971 0.29325 0.0
H315 H 0.58088 0.55787 0.36595 0.0
H316 H 0.55996 0.53409 0.26148 0.0
H317 H 0.59161 0.64014 0.18829 0.0
C318 C 0.64415 0.68947 0.42819 0.0
C319 C 0.65185 0.67467 0.48834 0.0
C320 C 0.64288 0.63635 0.49712 0.0
C321 C 0.62384 0.61423 0.44932 0.0
C322 C 0.61496 0.63006 0.39182 0.0
C323 C 0.6259 0.66613 0.37989 0.0
C324 C 0.6159 0.67383 0.31141 0.0
C325 C 0.58536 0.70567 0.29928 0.0
C326 C 0.65239 0.68298 0.2844 0.0
C327 C 0.59892 0.63594 0.28745 0.0
C328 C 0.59733 0.61209 0.33572 0.0
C329 C 0.58228 0.57599 0.32751 0.0
C330 C 0.57026 0.56285 0.268 0.0
C331 C 0.57441 0.58518 0.21713 0.0
C332 C 0.58794 0.6227 0.22659 0.0
H333 H 0.92112 0.19856 0.90212 0.0
H334 H 0.80211 0.17052 0.83074 0.0
H335 H 0.82355 0.13761 0.7418 0.0
H336 H 0.95596 0.20929 0.75435 0.0
H337 H 1.00188 0.18739 0.78397 0.0
H338 H 0.97577 0.21403 0.83459 0.0
H339 H 0.97825 0.15568 0.90463 0.0
H340 H 1.00369 0.12867 0.85379 0.0
H341 H 0.95897 0.11138 0.87251 0.0
H342 H 0.86069 0.10075 0.6661 0.0
H343 H 0.90873 0.06679 0.61253 0.0
H344 H 1.00157 0.11811 0.74027 0.0
C345 C 0.89942 0.18638 0.86694 0.0
C346 C 0.85997 0.18725 0.87306 0.0
C347 C 0.83246 0.17073 0.82631 0.0
C348 C 0.84443 0.15173 0.77592 0.0
C349 C 0.88395 0.14973 0.77297 0.0
C350 C 0.91087 0.16709 0.81719 0.0
C351 C 0.95175 0.15825 0.80767 0.0
C352 C 0.97255 0.19439 0.79433 0.0
C353 C 0.97447 0.13725 0.86291 0.0
C354 C 0.94389 0.13271 0.75179 0.0
C355 C 0.90478 0.12816 0.73159 0.0
C356 C 0.89138 0.10449 0.68138 0.0
C357 C 0.91878 0.08524 0.65128 0.0
C358 C 0.95894 0.08945 0.67231 0.0
C359 C 0.97117 0.11377 0.72298 0.0
H360 H 0.36928 0.36012 0.33538 0.0
H361 H 0.34265 0.46048 0.437 0.0
H362 H 0.36829 0.50056 0.36313 0.0
H363 H 0.45732 0.38848 0.30625 0.0
H364 H 0.45311 0.3688 0.22971 0.0
H365 H 0.42671 0.34839 0.28391 0.0
H366 H 0.36246 0.35789 0.2086 0.0
H367 H 0.38878 0.37834 0.15392 0.0
H368 H 0.34934 0.40429 0.17903 0.0
H369 H 0.40323 0.52928 0.28561 0.0
H370 H 0.44748 0.54391 0.21268 0.0
H371 H 0.45316 0.42519 0.16315 0.0
C372 C 0.3677 0.39058 0.34077 0.0
C373 C 0.35378 0.40723 0.3916 0.0
C374 C 0.35321 0.44717 0.39831 0.0
C375 C 0.36748 0.47017 0.35639 0.0
C376 C 0.38195 0.45287 0.30761 0.0
C377 C 0.38202 0.41399 0.29939 0.0
C378 C 0.40263 0.40237 0.24668 0.0
C379 C 0.43698 0.37544 0.26796 0.0
C380 C 0.3741 0.38467 0.19393 0.0
C381 C 0.41605 0.44052 0.22893 0.0
C382 C 0.40282 0.46942 0.26342 0.0
C383 C 0.4131 0.50698 0.25749 0.0
C384 C 0.43807 0.51508 0.21598 0.0
C385 C 0.45278 0.4857 0.18188 0.0
C386 C 0.44135 0.44811 0.18786 0.0
H387 H 0.19751 0.8809 0.91412 0.0
H388 H 0.09303 0.86606 0.99178 0.0
H389 H 0.05335 0.88509 0.89363 0.0
H390 H 0.16661 0.96443 0.83914 0.0
H391 H 0.19 0.95502 0.77354 0.0
H392 H 0.20925 0.93452 0.84605 0.0
H393 H 0.20449 0.8678 0.79467 0.0
H394 H 0.18453 0.88828 0.72209 0.0
H395 H 0.15857 0.85195 0.7538 0.0
H396 H 0.02543 0.91036 0.78969 0.0
H397 H 0.01243 0.94863 0.69573 0.0
H398 H 0.13526 0.94954 0.68826 0.0
C399 C 0.16623 0.88082 0.90968 0.0
C400 C 0.14809 0.87153 0.95972 0.0
C401 C 0.10723 0.87285 0.95343 0.0
C402 C 0.08455 0.88332 0.89784 0.0
C403 C 0.10325 0.89255 0.84917 0.0
C404 C 0.14323 0.89183 0.85484 0.0
C405 C 0.15637 0.90759 0.79862 0.0
C406 C 0.18204 0.94246 0.81536 0.0
C407 C 0.17723 0.87707 0.76534 0.0
C408 C 0.11767 0.91823 0.76121 0.0
C409 C 0.08727 0.90842 0.79025 0.0
C410 C 0.04895 0.91766 0.76604 0.0
C411 C 0.04174 0.939 0.71228 0.0
C412 C 0.07284 0.95138 0.68442 0.0
C413 C 0.11098 0.93961 0.70801 0.0
loop_
_geom_bond_atom_site_label_1
_geom_bond_atom_site_label_2
_geom_bond_distance
_geom_bond_site_symmetry_2
_ccdc_geom_bond_type
H0 C5 0.930 1_556 S
H1 C8 0.930 . S
H2 C10 0.930 . S
H3 C4 1.016 . S
C4 H3 1.016 . S
C4 N11 1.286 . S
C5 H0 0.930 1_554 S
C5 C6 1.397 . S
C5 C7 1.361 . S
C6 C5 1.397 . S
C6 C10 1.390 . S
C7 C5 1.361 . S
C7 C8 1.393 . S
C7 N11 1.413 . S
C8 H1 0.930 . S
C8 C7 1.393 . S
C8 C9 1.399 . S
C9 C8 1.399 . S
C9 C10 1.381 . S
C10 H2 0.930 . S
C10 C6 1.390 . S
C10 C9 1.381 . S
N11 C4 1.286 . S
N11 C7 1.413 . S
H12 C17 0.930 . S
H13 C20 0.930 . S
H14 C22 0.930 . S
H15 C16 1.016 . S
C16 H15 1.016 . S
C16 N23 1.286 . S
C17 H12 0.930 . S
C17 C18 1.397 . S
C17 C19 1.361 . S
C18 C17 1.397 . S
C18 C22 1.390 . S
C19 C17 1.361 . S
C19 C20 1.393 . S
C19 N23 1.413 . S
C20 H13 0.930 . S
C20 C19 1.393 . S
C20 C21 1.399 . S
C21 C20 1.399 . S
C21 C22 1.381 . S
C22 H14 0.930 . S
C22 C18 1.390 . S
C22 C21 1.381 . S
N23 C16 1.286 . S
N23 C19 1.413 . S
H24 C29 0.930 . S
H25 C32 0.930 . S
H26 C34 0.930 . S
H27 C28 1.016 . S
C28 H27 1.016 . S
C28 N35 1.286 1_554 S
C29 H24 0.930 . S
C29 C30 1.397 . S
C29 C31 1.361 . S
C30 C29 1.397 . S
C30 C34 1.390 1_556 S
C31 C29 1.361 . S
C31 C32 1.393 1_556 S
C31 N35 1.413 . S
C32 H25 0.930 . S
C32 C31 1.393 1_554 S
C32 C33 1.399 . S
C33 C32 1.399 . S
C33 C34 1.381 . S
C34 H26 0.930 . S
C34 C30 1.390 1_554 S
C34 C33 1.381 . S
N35 C28 1.286 1_556 S
N35 C31 1.413 . S
H36 C41 0.930 . S
H37 C44 0.930 . S
H38 C46 0.930 . S
H39 C40 1.016 . S
C40 H39 1.016 . S
C40 N47 1.286 . S
C41 H36 0.930 . S
C41 C42 1.397 . S
C41 C43 1.361 . S
C42 C41 1.397 . S
C42 C46 1.390 . S
C43 C41 1.361 . S
C43 C44 1.393 . S
C43 N47 1.413 . S
C44 H37 0.930 . S
C44 C43 1.393 . S
C44 C45 1.399 . S
C45 C44 1.399 . S
C45 C46 1.381 . S
C46 H38 0.930 . S
C46 C42 1.390 . S
C46 C45 1.381 . S
N47 C40 1.286 . S
N47 C43 1.413 . S
O48 Mn49 2.163 1_655 S
O48 C62 1.244 . S
Mn49 O48 2.163 1_455 S
Mn49 O52 2.160 1_545 S
Mn49 O53 2.221 . S
Mn49 O55 2.163 1_455 S
Mn49 O57 2.160 1_545 S
Mn49 O67 2.221 1_445 S
O50 Mn51 2.087 1_545 S
O50 C62 1.256 . S
Mn51 O50 2.087 1_565 S
Mn51 O58 2.089 1_655 S
Mn51 O67 2.290 . S
Mn51 O68 2.251 . S
O52 Mn49 2.160 1_565 S
O52 C63 1.239 . S
O53 Mn49 2.221 . S
O53 Mn54 2.290 . S
O53 C64 1.278 . S
Mn54 O53 2.290 . S
Mn54 O56 2.089 . S
Mn54 O59 2.251 . S
Mn54 O60 2.087 . S
O55 Mn49 2.163 1_655 S
O55 C65 1.244 . S
O56 Mn54 2.089 . S
O56 C63 1.256 1_545 S
O57 Mn49 2.160 1_565 S
O57 C66 1.239 . S
O58 Mn51 2.089 1_455 S
O58 C66 1.256 . S
O59 Mn54 2.251 . S
O59 C64 1.241 . S
O60 Mn54 2.087 . S
O60 C65 1.256 1_455 S
C61 O67 1.278 . S
C61 O68 1.241 . S
C62 O48 1.244 . S
C62 O50 1.256 . S
C63 O52 1.239 . S
C63 O56 1.256 1_565 S
C64 O53 1.278 . S
C64 O59 1.241 . S
C65 O55 1.244 . S
C65 O60 1.256 1_655 S
C66 O57 1.239 . S
C66 O58 1.256 . S
O67 Mn49 2.221 1_665 S
O67 Mn51 2.290 . S
O67 C61 1.278 . S
O68 Mn51 2.251 . S
O68 C61 1.241 . S
O69 Mn70 2.163 . S
O69 C83 1.244 . S
Mn70 O69 2.163 . S
Mn70 O73 2.160 1_554 S
Mn70 O74 2.221 . S
Mn70 O76 2.163 1_554 S
Mn70 O78 2.160 . S
Mn70 O88 2.221 . S
O71 Mn72 2.087 . S
O71 C83 1.256 . S
Mn72 O71 2.087 . S
Mn72 O79 2.089 . S
Mn72 O88 2.290 . S
Mn72 O89 2.251 . S
O73 Mn70 2.160 1_556 S
O73 C84 1.239 . S
O74 Mn70 2.221 . S
O74 Mn75 2.290 1_554 S
O74 C85 1.278 . S
Mn75 O74 2.290 1_556 S
Mn75 O77 2.089 . S
Mn75 O80 2.251 . S
Mn75 O81 2.087 . S
O76 Mn70 2.163 1_556 S
O76 C86 1.244 . S
O77 Mn75 2.089 . S
O77 C84 1.256 . S
O78 Mn70 2.160 . S
O78 C87 1.239 . S
O79 Mn72 2.089 . S
O79 C87 1.256 . S
O80 Mn75 2.251 . S
O80 C85 1.241 1_556 S
O81 Mn75 2.087 . S
O81 C86 1.256 . S
C82 O88 1.278 . S
C82 O89 1.241 . S
C83 O69 1.244 . S
C83 O71 1.256 . S
C84 O73 1.239 . S
C84 O77 1.256 . S
C85 O74 1.278 . S
C85 O80 1.241 1_554 S
C86 O76 1.244 . S
C86 O81 1.256 . S
C87 O78 1.239 . S
C87 O79 1.256 . S
O88 Mn70 2.221 . S
O88 Mn72 2.290 . S
O88 C82 1.278 . S
O89 Mn72 2.251 . S
O89 C82 1.241 . S
H90 C102 0.930 . S
H91 C104 0.930 . S
H92 C105 0.930 . S
H93 C109 0.959 . S
H94 C109 0.959 . S
H95 C109 0.961 . S
H96 C110 0.960 . S
H97 C110 0.961 . S
H98 C110 0.959 . S
H99 C113 0.929 . S
H100 C114 0.931 . S
H101 C116 0.930 . S
C102 H90 0.930 . S
C102 C103 1.399 . S
C102 C107 1.399 . S
C103 C102 1.399 . S
C103 C104 1.376 . S
C104 H91 0.930 . S
C104 C103 1.376 . S
C104 C105 1.388 . S
C105 H92 0.930 . S
C105 C104 1.388 . S
C105 C106 1.390 . S
C106 C105 1.390 . S
C106 C107 1.394 . S
C106 C112 1.465 . S
C107 C102 1.399 . S
C107 C106 1.394 . S
C107 C108 1.516 . S
C108 C107 1.516 . S
C108 C109 1.502 . S
C108 C110 1.561 . S
C108 C111 1.526 . S
C109 H93 0.959 . S
C109 H94 0.959 . S
C109 H95 0.961 . S
C109 C108 1.502 . S
C110 H96 0.960 . S
C110 H97 0.961 . S
C110 H98 0.959 . S
C110 C108 1.561 . S
C111 C108 1.526 . S
C111 C112 1.396 . S
C111 C116 1.390 . S
C112 C106 1.465 . S
C112 C111 1.396 . S
C112 C113 1.399 . S
C113 H99 0.929 . S
C113 C112 1.399 . S
C113 C114 1.385 . S
C114 H100 0.931 . S
C114 C113 1.385 . S
C114 C115 1.389 . S
C115 C114 1.389 . S
C115 C116 1.387 . S
C116 H101 0.930 . S
C116 C111 1.390 . S
C116 C115 1.387 . S
H117 C129 0.930 . S
H118 C131 0.930 . S
H119 C132 0.930 1_556 S
H120 C136 0.959 . S
H121 C136 0.959 . S
H122 C136 0.961 . S
H123 C137 0.960 . S
H124 C137 0.961 . S
H125 C137 0.959 . S
H126 C140 0.929 1_556 S
H127 C141 0.931 1_556 S
H128 C143 0.930 . S
C129 H117 0.930 . S
C129 C130 1.399 . S
C129 C134 1.399 . S
C130 C129 1.399 . S
C130 C131 1.376 . S
C131 H118 0.930 . S
C131 C130 1.376 . S
C131 C132 1.388 . S
C132 H119 0.930 1_554 S
C132 C131 1.388 . S
C132 C133 1.390 . S
C133 C132 1.390 . S
C133 C134 1.394 . S
C133 C139 1.465 . S
C134 C129 1.399 . S
C134 C133 1.394 . S
C134 C135 1.516 . S
C135 C134 1.516 . S
C135 C136 1.502 . S
C135 C137 1.561 . S
C135 C138 1.526 . S
C136 H120 0.959 . S
C136 H121 0.959 . S
C136 H122 0.961 . S
C136 C135 1.502 . S
C137 H123 0.960 . S
C137 H124 0.961 . S
C137 H125 0.959 . S
C137 C135 1.561 . S
C138 C135 1.526 . S
C138 C139 1.396 . S
C138 C143 1.390 . S
C139 C133 1.465 . S
C139 C138 1.396 . S
C139 C140 1.399 . S
C140 H126 0.929 1_554 S
C140 C139 1.399 . S
C140 C141 1.385 . S
C141 H127 0.931 1_554 S
C141 C140 1.385 . S
C141 C142 1.389 . S
C142 C141 1.389 . S
C142 C143 1.387 . S
C143 H128 0.930 . S
C143 C138 1.390 . S
C143 C142 1.387 . S
H144 C156 0.930 . S
H145 C158 0.930 . S
H146 C159 0.930 . S
H147 C163 0.959 . S
H148 C163 0.959 . S
H149 C163 0.961 . S
H150 C164 0.960 . S
H151 C164 0.961 . S
H152 C164 0.959 . S
H153 C167 0.929 . S
H154 C168 0.931 . S
H155 C170 0.930 . S
C156 H144 0.930 . S
C156 C157 1.399 . S
C156 C161 1.399 . S
C157 C156 1.399 . S
C157 C158 1.376 . S
C158 H145 0.930 . S
C158 C157 1.376 . S
C158 C159 1.388 . S
C159 H146 0.930 . S
C159 C158 1.388 . S
C159 C160 1.390 . S
C160 C159 1.390 . S
C160 C161 1.394 . S
C160 C166 1.465 . S
C161 C156 1.399 . S
C161 C160 1.394 . S
C161 C162 1.516 . S
C162 C161 1.516 . S
C162 C163 1.502 . S
C162 C164 1.561 . S
C162 C165 1.526 . S
C163 H147 0.959 . S
C163 H148 0.959 . S
C163 H149 0.961 . S
C163 C162 1.502 . S
C164 H150 0.960 . S
C164 H151 0.961 . S
C164 H152 0.959 . S
C164 C162 1.561 . S
C165 C162 1.526 . S
C165 C166 1.396 . S
C165 C170 1.390 . S
C166 C160 1.465 . S
C166 C165 1.396 . S
C166 C167 1.399 . S
C167 H153 0.929 . S
C167 C166 1.399 . S
C167 C168 1.385 . S
C168 H154 0.931 . S
C168 C167 1.385 . S
C168 C169 1.389 . S
C169 C168 1.389 . S
C169 C170 1.387 . S
C170 H155 0.930 . S
C170 C165 1.390 . S
C170 C169 1.387 . S
H171 C183 0.930 . S
H172 C185 0.930 . S
H173 C186 0.930 . S
H174 C190 0.959 . S
H175 C190 0.959 . S
H176 C190 0.961 . S
H177 C191 0.960 . S
H178 C191 0.961 . S
H179 C191 0.959 . S
H180 C194 0.929 . S
H181 C195 0.931 . S
H182 C197 0.930 . S
C183 H171 0.930 . S
C183 C184 1.399 1_556 S
C183 C188 1.399 . S
C184 C183 1.399 1_554 S
C184 C185 1.376 . S
C185 H172 0.930 . S
C185 C184 1.376 . S
C185 C186 1.388 . S
C186 H173 0.930 . S
C186 C185 1.388 . S
C186 C187 1.390 . S
C187 C186 1.390 . S
C187 C188 1.394 1_554 S
C187 C193 1.465 . S
C188 C183 1.399 . S
C188 C187 1.394 1_556 S
C188 C189 1.516 . S
C189 C188 1.516 . S
C189 C190 1.502 . S
C189 C191 1.561 . S
C189 C192 1.526 . S
C190 H174 0.959 . S
C190 H175 0.959 . S
C190 H176 0.961 . S
C190 C189 1.502 . S
C191 H177 0.960 . S
C191 H178 0.961 . S
C191 H179 0.959 . S
C191 C189 1.561 . S
C192 C189 1.526 . S
C192 C193 1.396 1_556 S
C192 C197 1.390 . S
C193 C187 1.465 . S
C193 C192 1.396 1_554 S
C193 C194 1.399 . S
C194 H180 0.929 . S
C194 C193 1.399 . S
C194 C195 1.385 . S
C195 H181 0.931 . S
C195 C194 1.385 . S
C195 C196 1.389 . S
C196 C195 1.389 . S
C196 C197 1.387 1_554 S
C197 H182 0.930 . S
C197 C192 1.390 . S
C197 C196 1.387 1_556 S
H198 C210 0.930 . S
H199 C212 0.930 . S
H200 C213 0.930 . S
H201 C217 0.959 . S
H202 C217 0.959 . S
H203 C217 0.961 . S
H204 C218 0.960 . S
H205 C218 0.961 . S
H206 C218 0.959 . S
H207 C221 0.929 . S
H208 C222 0.931 1_545 S
H209 C224 0.930 . S
C210 H198 0.930 . S
C210 C211 1.399 . S
C210 C215 1.399 . S
C211 C210 1.399 . S
C211 C212 1.376 . S
C212 H199 0.930 . S
C212 C211 1.376 . S
C212 C213 1.388 . S
C213 H200 0.930 . S
C213 C212 1.388 . S
C213 C214 1.390 . S
C214 C213 1.390 . S
C214 C215 1.394 . S
C214 C220 1.465 . S
C215 C210 1.399 . S
C215 C214 1.394 . S
C215 C216 1.516 . S
C216 C215 1.516 . S
C216 C217 1.502 . S
C216 C218 1.561 . S
C216 C219 1.526 . S
C217 H201 0.959 . S
C217 H202 0.959 . S
C217 H203 0.961 . S
C217 C216 1.502 . S
C218 H204 0.960 . S
C218 H205 0.961 . S
C218 H206 0.959 . S
C218 C216 1.561 . S
C219 C216 1.526 . S
C219 C220 1.396 . S
C219 C224 1.390 . S
C220 C214 1.465 . S
C220 C219 1.396 . S
C220 C221 1.399 . S
C221 H207 0.929 . S
C221 C220 1.399 . S
C221 C222 1.385 . S
C222 H208 0.931 1_565 S
C222 C221 1.385 . S
C222 C223 1.389 . S
C223 C222 1.389 . S
C223 C224 1.387 . S
C224 H209 0.930 . S
C224 C219 1.390 . S
C224 C223 1.387 . S
H225 C237 0.930 . S
H226 C239 0.930 . S
H227 C240 0.930 . S
H228 C244 0.959 . S
H229 C244 0.959 . S
H230 C244 0.961 . S
H231 C245 0.960 . S
H232 C245 0.961 . S
H233 C245 0.959 . S
H234 C248 0.929 . S
H235 C249 0.931 . S
H236 C251 0.930 . S
C237 H225 0.930 . S
C237 C238 1.399 . S
C237 C242 1.399 . S
C238 C237 1.399 . S
C238 C239 1.376 . S
C239 H226 0.930 . S
C239 C238 1.376 . S
C239 C240 1.388 . S
C240 H227 0.930 . S
C240 C239 1.388 . S
C240 C241 1.390 . S
C241 C240 1.390 . S
C241 C242 1.394 . S
C241 C247 1.465 . S
C242 C237 1.399 . S
C242 C241 1.394 . S
C242 C243 1.516 . S
C243 C242 1.516 . S
C243 C244 1.502 . S
C243 C245 1.561 . S
C243 C246 1.526 . S
C244 H228 0.959 . S
C244 H229 0.959 . S
C244 H230 0.961 . S
C244 C243 1.502 . S
C245 H231 0.960 . S
C245 H232 0.961 . S
C245 H233 0.959 . S
C245 C243 1.561 . S
C246 C243 1.526 . S
C246 C247 1.396 . S
C246 C251 1.390 . S
C247 C241 1.465 . S
C247 C246 1.396 . S
C247 C248 1.399 . S
C248 H234 0.929 . S
C248 C247 1.399 . S
C248 C249 1.385 . S
C249 H235 0.931 . S
C249 C248 1.385 . S
C249 C250 1.389 . S
C250 C249 1.389 . S
C250 C251 1.387 . S
C251 H236 0.930 . S
C251 C246 1.390 . S
C251 C250 1.387 . S
H252 C264 0.930 . S
H253 C266 0.930 . S
H254 C267 0.930 . S
H255 C271 0.959 . S
H256 C271 0.959 . S
H257 C271 0.961 . S
H258 C272 0.960 . S
H259 C272 0.961 . S
H260 C272 0.959 . S
H261 C275 0.929 . S
H262 C276 0.931 . S
H263 C278 0.930 . S
C264 H252 0.930 . S
C264 C265 1.399 . S
C264 C269 1.399 . S
C265 C264 1.399 . S
C265 C266 1.376 . S
C266 H253 0.930 . S
C266 C265 1.376 . S
C266 C267 1.388 . S
C267 H254 0.930 . S
C267 C266 1.388 . S
C267 C268 1.390 . S
C268 C267 1.390 . S
C268 C269 1.394 . S
C268 C274 1.465 . S
C269 C264 1.399 . S
C269 C268 1.394 . S
C269 C270 1.516 . S
C270 C269 1.516 . S
C270 C271 1.502 . S
C270 C272 1.561 . S
C270 C273 1.526 . S
C271 H255 0.959 . S
C271 H256 0.959 . S
C271 H257 0.961 . S
C271 C270 1.502 . S
C272 H258 0.960 . S
C272 H259 0.961 . S
C272 H260 0.959 . S
C272 C270 1.561 . S
C273 C270 1.526 . S
C273 C274 1.396 . S
C273 C278 1.390 . S
C274 C268 1.465 . S
C274 C273 1.396 . S
C274 C275 1.399 . S
C275 H261 0.929 . S
C275 C274 1.399 . S
C275 C276 1.385 . S
C276 H262 0.931 . S
C276 C275 1.385 . S
C276 C277 1.389 . S
C277 C276 1.389 . S
C277 C278 1.387 . S
C278 H263 0.930 . S
C278 C273 1.390 . S
C278 C277 1.387 . S
H279 C291 0.930 . S
H280 C293 0.930 . S
H281 C294 0.930 . S
H282 C298 0.959 . S
H283 C298 0.959 . S
H284 C298 0.961 . S
H285 C299 0.960 . S
H286 C299 0.961 . S
H287 C299 0.959 . S
H288 C302 0.929 . S
H289 C303 0.931 . S
H290 C305 0.930 . S
C291 H279 0.930 . S
C291 C292 1.399 . S
C291 C296 1.399 . S
C292 C291 1.399 . S
C292 C293 1.376 . S
C293 H280 0.930 . S
C293 C292 1.376 . S
C293 C294 1.388 . S
C294 H281 0.930 . S
C294 C293 1.388 . S
C294 C295 1.390 . S
C295 C294 1.390 . S
C295 C296 1.394 . S
C295 C301 1.465 . S
C296 C291 1.399 . S
C296 C295 1.394 . S
C296 C297 1.516 . S
C297 C296 1.516 . S
C297 C298 1.502 . S
C297 C299 1.561 . S
C297 C300 1.526 . S
C298 H282 0.959 . S
C298 H283 0.959 . S
C298 H284 0.961 . S
C298 C297 1.502 . S
C299 H285 0.960 . S
C299 H286 0.961 . S
C299 H287 0.959 . S
C299 C297 1.561 . S
C300 C297 1.526 . S
C300 C301 1.396 . S
C300 C305 1.390 . S
C301 C295 1.465 . S
C301 C300 1.396 . S
C301 C302 1.399 . S
C302 H288 0.929 . S
C302 C301 1.399 . S
C302 C303 1.385 . S
C303 H289 0.931 . S
C303 C302 1.385 . S
C303 C304 1.389 . S
C304 C303 1.389 . S
C304 C305 1.387 . S
C305 H290 0.930 . S
C305 C300 1.390 . S
C305 C304 1.387 . S
H306 C318 0.930 . S
H307 C320 0.930 . S
H308 C321 0.930 . S
H309 C325 0.959 . S
H310 C325 0.959 . S
H311 C325 0.961 . S
H312 C326 0.960 . S
H313 C326 0.961 . S
H314 C326 0.959 . S
H315 C329 0.929 . S
H316 C330 0.931 . S
H317 C332 0.930 . S
C318 H306 0.930 . S
C318 C319 1.399 . S
C318 C323 1.399 . S
C319 C318 1.399 . S
C319 C320 1.376 . S
C320 H307 0.930 . S
C320 C319 1.376 . S
C320 C321 1.388 . S
C321 H308 0.930 . S
C321 C320 1.388 . S
C321 C322 1.390 . S
C322 C321 1.390 . S
C322 C323 1.394 . S
C322 C328 1.465 . S
C323 C318 1.399 . S
C323 C322 1.394 . S
C323 C324 1.516 . S
C324 C323 1.516 . S
C324 C325 1.502 . S
C324 C326 1.561 . S
C324 C327 1.526 . S
C325 H309 0.959 . S
C325 H310 0.959 . S
C325 H311 0.961 . S
C325 C324 1.502 . S
C326 H312 0.960 . S
C326 H313 0.961 . S
C326 H314 0.959 . S
C326 C324 1.561 . S
C327 C324 1.526 . S
C327 C328 1.396 . S
C327 C332 1.390 . S
C328 C322 1.465 . S
C328 C327 1.396 . S
C328 C329 1.399 . S
C329 H315 0.929 . S
C329 C328 1.399 . S
C329 C330 1.385 . S
C330 H316 0.931 . S
C330 C329 1.385 . S
C330 C331 1.389 . S
C331 C330 1.389 . S
C331 C332 1.387 . S
C332 H317 0.930 . S
C332 C327 1.390 . S
C332 C331 1.387 . S
H333 C345 0.930 . S
H334 C347 0.930 . S
H335 C348 0.930 . S
H336 C352 0.959 . S
H337 C352 0.959 . S
H338 C352 0.961 . S
H339 C353 0.960 . S
H340 C353 0.987 . S
H341 C353 0.959 . S
H342 C356 0.929 . S
H343 C357 0.931 . S
H344 C359 0.930 . S
C345 H333 0.930 . S
C345 C346 1.399 . S
C345 C350 1.399 . S
C346 C345 1.399 . S
C346 C347 1.376 . S
C347 H334 0.930 . S
C347 C346 1.376 . S
C347 C348 1.388 . S
C348 H335 0.930 . S
C348 C347 1.388 . S
C348 C349 1.390 . S
C349 C348 1.390 . S
C349 C350 1.394 . S
C349 C355 1.465 . S
C350 C345 1.399 . S
C350 C349 1.394 . S
C350 C351 1.516 . S
C351 C350 1.516 . S
C351 C352 1.502 . S
C351 C353 1.561 . S
C351 C354 1.526 . S
C352 H336 0.959 . S
C352 H337 0.959 . S
C352 H338 0.961 . S
C352 C351 1.502 . S
C353 H339 0.960 . S
C353 H340 0.987 . S
C353 H341 0.959 . S
C353 C351 1.561 . S
C354 C351 1.526 . S
C354 C355 1.396 . S
C354 C359 1.390 . S
C355 C349 1.465 . S
C355 C354 1.396 . S
C355 C356 1.399 . S
C356 H342 0.929 . S
C356 C355 1.399 . S
C356 C357 1.385 . S
C357 H343 0.931 . S
C357 C356 1.385 . S
C357 C358 1.389 . S
C358 C357 1.389 . S
C358 C359 1.387 . S
C359 H344 0.930 . S
C359 C354 1.390 . S
C359 C358 1.387 . S
H360 C372 0.930 . S
H361 C374 0.930 . S
H362 C375 0.930 . S
H363 C379 0.959 . S
H364 C379 0.959 . S
H365 C379 0.961 . S
H366 C380 0.960 . S
H367 C380 0.961 . S
H368 C380 0.959 . S
H369 C383 0.929 . S
H370 C384 0.931 . S
H371 C386 0.930 . S
C372 H360 0.930 . S
C372 C373 1.399 . S
C372 C377 1.399 . S
C373 C372 1.399 . S
C373 C374 1.376 . S
C374 H361 0.930 . S
C374 C373 1.376 . S
C374 C375 1.388 . S
C375 H362 0.930 . S
C375 C374 1.388 . S
C375 C376 1.390 . S
C376 C375 1.390 . S
C376 C377 1.394 . S
C376 C382 1.465 . S
C377 C372 1.399 . S
C377 C376 1.394 . S
C377 C378 1.516 . S
C378 C377 1.516 . S
C378 C379 1.502 . S
C378 C380 1.561 . S
C378 C381 1.526 . S
C379 H363 0.959 . S
C379 H364 0.959 . S
C379 H365 0.961 . S
C379 C378 1.502 . S
C380 H366 0.960 . S
C380 H367 0.961 . S
C380 H368 0.959 . S
C380 C378 1.561 . S
C381 C378 1.526 . S
C381 C382 1.396 . S
C381 C386 1.390 . S
C382 C376 1.465 . S
C382 C381 1.396 . S
C382 C383 1.399 . S
C383 H369 0.929 . S
C383 C382 1.399 . S
C383 C384 1.385 . S
C384 H370 0.931 . S
C384 C383 1.385 . S
C384 C385 1.389 . S
C385 C384 1.389 . S
C385 C386 1.387 . S
C386 H371 0.930 . S
C386 C381 1.390 . S
C386 C385 1.387 . S
H387 C399 0.930 . S
H388 C401 0.930 1_554 S
H389 C402 0.930 . S
H390 C406 0.959 . S
H391 C406 0.959 . S
H392 C406 0.961 . S
H393 C407 0.960 . S
H394 C407 0.961 . S
H395 C407 0.959 . S
H396 C410 0.929 . S
H397 C411 0.931 . S
H398 C413 0.930 . S
C399 H387 0.930 . S
C399 C400 1.399 . S
C399 C404 1.399 . S
C400 C399 1.399 . S
C400 C401 1.376 . S
C401 H388 0.930 1_556 S
C401 C400 1.376 . S
C401 C402 1.388 . S
C402 H389 0.930 . S
C402 C401 1.388 . S
C402 C403 1.390 . S
C403 C402 1.390 . S
C403 C404 1.394 . S
C403 C409 1.465 . S
C404 C399 1.399 . S
C404 C403 1.394 . S
C404 C405 1.516 . S
C405 C404 1.516 . S
C405 C406 1.502 . S
C405 C407 1.561 . S
C405 C408 1.526 . S
C406 H390 0.959 . S
C406 H391 0.959 . S
C406 H392 0.961 . S
C406 C405 1.502 . S
C407 H393 0.960 . S
C407 H394 0.961 . S
C407 H395 0.959 . S
C407 C405 1.561 . S
C408 C405 1.526 . S
C408 C409 1.396 . S
C408 C413 1.390 . S
C409 C403 1.465 . S
C409 C408 1.396 . S
C409 C410 1.399 . S
C410 H396 0.929 . S
C410 C409 1.399 . S
C410 C411 1.385 . S
C411 H397 0.931 . S
C411 C410 1.385 . S
C411 C412 1.389 . S
C412 C411 1.389 . S
C412 C413 1.387 . S
C413 H398 0.930 . S
C413 C408 1.390 . S
C413 C412 1.387 . S
C115 C64 1.323 . S
C103 C40 1.449 . S
C130 C4 1.464 . S
C142 C85 1.224 . S
C157 C16 1.605 . S
C169 C61 1.461 . S
C184 C28 1.577 . S
C196 C82 1.333 . S
C223 C66 1.495 . S
C211 C9 1.492 . S
C250 C86 1.540 . S
C238 C18 1.606 . S
C265 C33 1.572 . S
C277 C62 1.512 . S
C292 C45 1.521 . S
C304 C84 1.499 . S
C331 C83 1.443 . S
C319 C21 1.512 . S
C358 C65 1.513 . S
C346 C30 1.531 . S
C385 C87 1.424 . S
C373 C42 1.447 . S
C400 C6 1.449 1_556 S
C412 C63 1.405 . S
