# Generated by pormake.
# Topology zzz, (3,6)-cn, num edge types: 1
# Building blocks:
#     Node 0, Type 0, BuildingBlock: QEWDON_clean_linker_0, # of connection points: 3
#     Node 1, Type 0, BuildingBlock: QEWDON_clean_linker_0, # of connection points: 3
#     Node 2, Type 0, BuildingBlock: QEWDON_clean_linker_0, # of connection points: 3
#     Node 3, Type 0, BuildingBlock: QEWDON_clean_linker_0, # of connection points: 3
#     Node 4, Type 0, BuildingBlock: QEWDON_clean_linker_0, # of connection points: 3
#     Node 5, Type 0, BuildingBlock: QEWDON_clean_linker_0, # of connection points: 3
#     Node 6, Type 0, BuildingBlock: QEWDON_clean_linker_0, # of connection points: 3
#     Node 7, Type 0, BuildingBlock: QEWDON_clean_linker_0, # of connection points: 3
#     Node 8, Type 1, BuildingBlock: HISSIN_clean_sbu_0, # of connection points: 6
#     Node 9, Type 1, BuildingBlock: HISSIN_clean_sbu_0, # of connection points: 6
#     Node 10, Type 1, BuildingBlock: HISSIN_clean_sbu_0, # of connection points: 6
#     Node 11, Type 1, BuildingBlock: HISSIN_clean_sbu_0, # of connection points: 6
#     Edge 12, Type (0, 1), BuildingBlock: XIVTED_clean_linker_0, # of connection points: 2
#     Edge 13, Type (0, 1), BuildingBlock: XIVTED_clean_linker_0, # of connection points: 2
#     Edge 14, Type (0, 1), BuildingBlock: XIVTED_clean_linker_0, # of connection points: 2
#     Edge 15, Type (0, 1), BuildingBlock: XIVTED_clean_linker_0, # of connection points: 2
#     Edge 16, Type (0, 1), BuildingBlock: XIVTED_clean_linker_0, # of connection points: 2
#     Edge 17, Type (0, 1), BuildingBlock: XIVTED_clean_linker_0, # of connection points: 2
#     Edge 18, Type (0, 1), BuildingBlock: XIVTED_clean_linker_0, # of connection points: 2
#     Edge 19, Type (0, 1), BuildingBlock: XIVTED_clean_linker_0, # of connection points: 2
#     Edge 20, Type (0, 1), BuildingBlock: XIVTED_clean_linker_0, # of connection points: 2
#     Edge 21, Type (0, 1), BuildingBlock: XIVTED_clean_linker_0, # of connection points: 2
#     Edge 22, Type (0, 1), BuildingBlock: XIVTED_clean_linker_0, # of connection points: 2
#     Edge 23, Type (0, 1), BuildingBlock: XIVTED_clean_linker_0, # of connection points: 2
#     Edge 24, Type (0, 1), BuildingBlock: XIVTED_clean_linker_0, # of connection points: 2
#     Edge 25, Type (0, 1), BuildingBlock: XIVTED_clean_linker_0, # of connection points: 2
#     Edge 26, Type (0, 1), BuildingBlock: XIVTED_clean_linker_0, # of connection points: 2
#     Edge 27, Type (0, 1), BuildingBlock: XIVTED_clean_linker_0, # of connection points: 2
#     Edge 28, Type (0, 1), BuildingBlock: XIVTED_clean_linker_0, # of connection points: 2
#     Edge 29, Type (0, 1), BuildingBlock: XIVTED_clean_linker_0, # of connection points: 2
#     Edge 30, Type (0, 1), BuildingBlock: XIVTED_clean_linker_0, # of connection points: 2
#     Edge 31, Type (0, 1), BuildingBlock: XIVTED_clean_linker_0, # of connection points: 2
#     Edge 32, Type (0, 1), BuildingBlock: XIVTED_clean_linker_0, # of connection points: 2
#     Edge 33, Type (0, 1), BuildingBlock: XIVTED_clean_linker_0, # of connection points: 2
#     Edge 34, Type (0, 1), BuildingBlock: XIVTED_clean_linker_0, # of connection points: 2
#     Edge 35, Type (0, 1), BuildingBlock: XIVTED_clean_linker_0, # of connection points: 2
# Relax obj value: 0.190
# Max RMSD: 0.194
# Mean RMSD: 0.065
data_MOF--net-zzz--node1-HISSIN_clean_sbu_0--node2-QEWDON_clean_linker_0--edge1-XIVTED_clean_linker_0
_symmetry_space_group_name_H-M    P1
_symmetry_Int_Tables_number       1
_symmetry_cell_setting            triclinic
loop_
_symmetry_equiv_pos_as_xyz
'x, y, z'
_cell_length_a     54.275533
_cell_length_b     54.271744
_cell_length_c     16.121228
_cell_angle_alpha  90.232028
_cell_angle_beta   91.91338
_cell_angle_gamma 90.463752
loop_
_atom_site_label
_atom_site_type_symbol
_atom_site_fract_x
_atom_site_fract_y
_atom_site_fract_z
_atom_type_partial_charge
H0 H 0.76749 0.51472 0.15653 0.0
C1 C 0.77925 0.51658 0.21176 0.0
C2 C 0.80037 0.50186 0.21877 0.0
C3 C 0.77397 0.53418 0.27331 0.0
H4 H 0.83361 0.49451 0.29097 0.0
C5 C 0.81662 0.50492 0.28746 0.0
C6 C 0.81258 0.52284 0.34778 0.0
C7 C 0.79111 0.5372 0.3414 0.0
C8 C 0.75146 0.55018 0.26351 0.0
H9 H 0.78804 0.55061 0.38971 0.0
C10 C 0.73011 0.54229 0.21682 0.0
C11 C 0.70949 0.55782 0.20571 0.0
C12 C 0.75141 0.57401 0.29867 0.0
H13 H 0.76742 0.58146 0.332 0.0
C14 C 0.73085 0.58912 0.28951 0.0
H15 H 0.72918 0.52402 0.18971 0.0
C16 C 0.71007 0.58116 0.24359 0.0
H17 H 0.69467 0.5936 0.23571 0.0
H18 H 0.7312 0.60736 0.31696 0.0
H19 H 0.985 0.75958 0.1857 0.0
C20 C 0.98969 0.77309 0.23299 0.0
C21 C 0.97946 0.79647 0.22314 0.0
C22 C 1.00588 0.76761 0.30064 0.0
H23 H 0.97678 0.83291 0.27394 0.0
C24 C 0.98397 0.81454 0.28406 0.0
C25 C 0.99926 0.81033 0.354 0.0
C26 C 1.01085 0.78693 0.36086 0.0
C27 C 0.01707 0.74187 0.30714 0.0
H28 H 0.02356 0.78417 0.41284 0.0
C29 C 0.01673 0.72455 0.2391 0.0
C30 C 0.02566 0.70008 0.2487 0.0
C31 C 0.02746 0.73384 0.38349 0.0
H32 H 0.02776 0.74536 0.43822 0.0
C33 C 0.03736 0.71033 0.39206 0.0
H34 H 1.00934 0.72956 0.17869 0.0
C35 C 0.03651 0.69371 0.32599 0.0
H36 H 0.04447 0.67569 0.33591 0.0
H37 H 0.04549 0.70478 0.45126 0.0
H38 H 0.78198 0.05513 0.15518 0.0
C39 C 0.76818 0.04829 0.19646 0.0
C40 C 0.74531 0.06006 0.19671 0.0
C41 C 0.77357 0.02864 0.25061 0.0
H42 H 0.70936 0.06106 0.24923 0.0
C43 C 0.72721 0.05217 0.25095 0.0
C44 C 0.7313 0.03256 0.30552 0.0
C45 C 0.75465 0.02077 0.30541 0.0
C46 C 0.7994 0.01792 0.25304 0.0
H47 H 0.75777 1.00537 0.34675 0.0
C48 C 0.81522 0.01795 0.18302 0.0
C49 C 0.84005 1.00938 0.19014 0.0
C50 C 0.80916 1.0091 0.32899 0.0
H51 H 0.79846 1.00934 0.38439 0.0
C52 C 0.83333 1.00083 0.33639 0.0
H53 H 0.80827 0.02421 0.12315 0.0
C54 C 0.84857 1.00112 0.26861 0.0
H55 H 0.86743 0.9952 0.2787 0.0
H56 H 0.84052 0.9945 0.39597 0.0
H57 H 0.49212 0.78675 0.17286 0.0
C58 C 0.49921 0.77288 0.21497 0.0
C59 C 0.48623 0.75047 0.21902 0.0
C60 C 0.52062 0.77733 0.26537 0.0
H61 H 0.4842 0.715 0.27794 0.0
C62 C 0.49404 0.73246 0.27583 0.0
C63 C 0.51527 0.73573 0.32605 0.0
C64 C 0.52894 0.75788 0.31899 0.0
C65 C 0.53336 0.8024 0.26465 0.0
H66 H 0.54582 0.75972 0.35602 0.0
C67 C 0.53014 0.81966 0.19813 0.0
C68 C 0.54055 0.84377 0.20346 0.0
C69 C 0.54792 0.80998 0.33442 0.0
H70 H 0.55037 0.79842 0.38839 0.0
C71 C 0.55912 0.83314 0.33787 0.0
H72 H 0.51926 0.81486 0.14301 0.0
C73 C 0.55548 0.84984 0.27355 0.0
H74 H 0.56432 0.86776 0.27912 0.0
H75 H 0.57034 0.83841 0.39195 0.0
H76 H 0.29451 0.54693 0.17911 0.0
C77 C 0.28064 0.54012 0.13475 0.0
C78 C 0.25653 0.54887 0.13983 0.0
C79 C 0.28689 0.52349 0.07134 0.0
H80 H 0.21963 0.54758 0.08668 0.0
C81 C 0.23837 0.54101 0.08192 0.0
C82 C 0.24376 0.52442 0.01893 0.0
C83 C 0.268 0.51557 0.01356 0.0
C84 C 0.3132 0.51546 0.06381 0.0
H85 H 0.2719 0.50245 0.9651 0.0
C86 C 0.32961 0.51379 0.13414 0.0
C87 C 0.35476 0.50788 0.12554 0.0
C88 C 0.32252 0.51062 0.985 0.0
H89 H 0.31102 0.51235 0.92923 0.0
C90 C 0.34715 0.50431 0.97629 0.0
H91 H 0.32288 0.51684 0.19574 0.0
C92 C 0.36316 0.50307 0.04554 0.0
H93 H 0.38234 0.49894 0.03589 0.0
H94 H 0.35402 0.50087 0.91509 0.0
H95 H 0.06898 0.29511 0.2034 0.0
C96 C 0.06437 0.2808 0.15862 0.0
C97 C 0.07155 0.25689 0.17842 0.0
C98 C 0.05082 0.28605 0.08509 0.0
H99 H 0.07317 0.21935 0.1361 0.0
C100 C 0.06799 0.23801 0.11969 0.0
C101 C 0.05612 0.24217 0.04253 0.0
C102 C 0.0467 0.26624 0.02638 0.0
C103 C 0.04182 0.3123 0.07213 0.0
H104 H 0.03641 0.2693 0.96881 0.0
C105 C 0.03911 0.32924 0.13998 0.0
C106 C 0.03396 0.35457 0.12679 0.0
C107 C 0.03742 0.32131 0.99141 0.0
H108 H 0.03948 0.30964 0.93763 0.0
C109 C 0.03106 0.3459 0.97819 0.0
H110 H 0.04147 0.32313 0.20339 0.0
C111 C 0.02959 0.36237 0.0446 0.0
H112 H 0.02494 0.38135 0.03132 0.0
H113 H 0.02775 0.35242 0.91546 0.0
H114 H 0.26861 0.99204 0.23166 0.0
C115 C 0.28198 0.99859 0.18843 0.0
C116 C 0.30387 0.98534 0.1814 0.0
C117 C 0.277 0.01937 0.13879 0.0
H118 H 0.33818 0.98231 0.11889 0.0
C119 C 0.32114 0.99249 0.12312 0.0
C120 C 0.31748 1.01313 0.07264 0.0
C121 C 0.29547 0.02687 0.08165 0.0
C122 C 0.25187 0.03161 0.14299 0.0
H123 H 0.29276 0.04301 0.0434 0.0
C124 C 0.23663 0.03043 0.21448 0.0
C125 C 0.21234 0.04048 0.21309 0.0
C126 C 0.242 0.04318 0.07153 0.0
H127 H 0.25209 0.04395 0.01488 0.0
C128 C 0.21841 0.05307 0.06993 0.0
H129 H 0.24358 0.0221 0.2713 0.0
C130 C 0.20376 0.05162 0.13902 0.0
H131 H 0.18527 0.0589 0.13331 0.0
H132 H 0.21117 0.06156 0.01366 0.0
H133 H 0.55176 0.26259 0.20053 0.0
C134 C 0.54517 0.27647 0.15738 0.0
C135 C 0.55706 0.29948 0.15839 0.0
C136 C 0.52568 0.27118 0.09983 0.0
H137 H 0.5588 0.33544 0.10254 0.0
C138 C 0.54975 0.31753 0.10098 0.0
C139 C 0.53037 0.31331 0.04346 0.0
C140 C 0.51808 0.2902 0.04353 0.0
C141 C 0.51467 0.24547 0.09581 0.0
H142 H 0.50287 0.28719 0.9995 0.0
C143 C 0.51471 0.22937 0.16587 0.0
C144 C 0.50593 0.20467 0.15865 0.0
C145 C 0.50538 0.23617 0.01927 0.0
H146 H 0.50563 0.24717 0.9635 0.0
C147 C 0.49645 0.2121 0.0121 0.0
H148 H 0.52124 0.23595 0.22615 0.0
C149 C 0.49683 0.1965 0.0805 0.0
H150 H 0.49046 0.1777 0.07131 0.0
H151 H 0.48963 0.20528 0.95237 0.0
Eu152 Eu 1.0108 0.03675 0.63454 0.0
Eu153 Eu 0.04388 1.01408 0.78362 0.0
C154 C 0.03612 0.07236 0.77677 0.0
C155 C 1.00266 0.08968 0.51227 0.0
C156 C 0.02434 0.09486 0.55918 0.0
C157 C 1.00328 0.13147 0.46018 0.0
C158 C 0.03542 0.11787 0.5571 0.0
C159 C 0.9919 0.10817 0.46323 0.0
C160 C 0.02531 0.13633 0.50671 0.0
C161 C 0.99158 0.06519 0.52205 0.0
O162 O 1.00437 0.01609 0.83076 0.0
O163 O 0.98029 0.02204 0.71316 0.0
C164 C 0.98242 0.01769 0.79321 0.0
O165 O 1.00749 0.9961 0.60077 0.0
O166 O 0.05279 1.01366 0.91689 0.0
O167 O 0.06949 0.98713 0.83644 0.0
O168 O 0.0316 0.98026 0.70773 0.0
C169 C 0.01802 0.97726 0.63896 0.0
O170 O 0.05073 0.03956 0.59196 0.0
O171 O 0.0736 0.01825 0.6891 0.0
O172 O 0.05277 0.05531 0.79154 0.0
O173 O 1.00599 0.04696 0.5038 0.0
O174 O 0.9817 0.06202 0.59374 0.0
O175 O 1.01601 0.06656 0.73359 0.0
C176 C 0.05117 0.9716 0.95447 0.0
C177 C 0.02723 0.97465 0.98341 0.0
C178 C 0.0451 0.92725 0.9583 0.0
C179 C 1.01189 0.95431 0.99456 0.0
C180 C 0.06038 0.94767 0.94619 0.0
C181 C 0.02027 0.9304 0.97845 0.0
C182 C 0.06334 0.99218 0.91205 0.0
C183 C 0.07182 0.02992 0.61799 0.0
H184 H 0.03283 0.08107 0.59816 0.0
H185 H 0.99523 0.14543 0.42009 0.0
H186 H 0.05208 0.12113 0.5946 0.0
H187 H 0.97501 0.1046 0.42741 0.0
H188 H 0.01957 0.99284 0.99117 0.0
H189 H 0.05255 0.90904 0.94883 0.0
H190 H 0.99303 0.95754 0.011 0.0
H191 H 0.07879 0.94478 0.92417 0.0
Eu192 Eu 0.53404 0.04323 0.75404 0.0
Eu193 Eu 0.5123 1.0065 0.61057 0.0
C194 C 0.52814 0.98465 0.79154 0.0
C195 C 0.57313 0.09117 0.86793 0.0
C196 C 0.58143 0.10072 0.94453 0.0
C197 C 0.60973 0.10741 0.80423 0.0
C198 C 0.60424 0.11268 0.95184 0.0
C199 C 0.58691 0.09532 0.79713 0.0
C200 C 0.61919 0.1152 0.88245 0.0
C201 C 0.55189 0.07436 0.8645 0.0
O202 O 0.48098 1.0085 0.70149 0.0
O203 O 0.4923 0.04405 0.77018 0.0
C204 C 0.47586 0.02654 0.75302 0.0
O205 O 0.53413 0.06604 0.63674 0.0
O206 O 0.51399 0.9717 0.54241 0.0
O207 O 0.48642 0.99866 0.50779 0.0
O208 O 0.50403 0.04514 0.5632 0.0
C209 C 0.51787 0.06494 0.5748 0.0
O210 O 0.56868 0.02986 0.69039 0.0
O211 O 0.55087 0.01592 0.56796 0.0
O212 O 0.52667 0.98071 0.71106 0.0
O213 O 0.53419 0.07974 0.81111 0.0
O214 O 0.55738 0.051 0.86352 0.0
O215 O 0.52788 1.00718 0.82187 0.0
C216 C 0.47502 0.95728 0.49395 0.0
C217 C 0.4668 0.94794 0.41697 0.0
C218 C 0.44066 0.93711 0.55923 0.0
C219 C 0.445 0.93422 0.41036 0.0
C220 C 0.46249 0.95096 0.56565 0.0
C221 C 0.43096 0.9297 0.48086 0.0
C222 C 0.49429 0.97631 0.49693 0.0
C223 C 0.57064 0.02245 0.61275 0.0
H224 H 0.571 0.09758 0.99972 0.0
H225 H 0.62058 0.10932 0.74942 0.0
H226 H 0.61093 0.11803 0.01337 0.0
H227 H 0.58066 0.08804 0.7373 0.0
H228 H 0.4763 0.95271 0.3611 0.0
H229 H 0.43057 0.93365 0.61488 0.0
H230 H 0.43813 0.92918 0.34875 0.0
H231 H 0.46873 0.95802 0.62579 0.0
Eu232 Eu 0.50738 0.53537 0.75568 0.0
Eu233 Eu 0.54721 0.51562 0.62414 0.0
C234 C 0.5647 0.53358 0.80482 0.0
C235 C 0.4622 0.57702 0.85965 0.0
C236 C 0.47298 0.59851 0.8287 0.0
C237 C 0.42837 0.60135 0.90966 0.0
C238 C 0.46216 0.62136 0.84136 0.0
C239 C 0.43943 0.57844 0.89774 0.0
C240 C 0.44011 0.62323 0.88457 0.0
C241 C 0.47541 0.55351 0.85631 0.0
O242 O 0.5418 0.48335 0.71099 0.0
O243 O 0.50496 0.49361 0.76745 0.0
C244 C 0.52241 0.47744 0.75397 0.0
O245 O 0.48768 0.5352 0.63033 0.0
O246 O 0.58584 0.50971 0.59815 0.0
O247 O 0.55777 0.49943 0.50617 0.0
O248 O 0.50963 0.50493 0.56871 0.0
C249 C 0.48972 0.5185 0.57205 0.0
O250 O 0.52236 0.57026 0.69598 0.0
O251 O 0.53883 0.5541 0.57814 0.0
O252 O 0.56827 0.53637 0.72548 0.0
O253 O 0.46929 0.53876 0.79485 0.0
O254 O 0.49925 0.555 0.86913 0.0
O255 O 0.54263 0.52818 0.83044 0.0
C256 C 0.59235 0.47392 0.52045 0.0
C257 C 0.60309 0.46724 0.44607 0.0
C258 C 0.59952 0.43274 0.57388 0.0
C259 C 0.61144 0.44323 0.4347 0.0
C260 C 0.59121 0.45675 0.58515 0.0
C261 C 0.60906 0.42551 0.49761 0.0
C262 C 0.58102 0.49819 0.5285 0.0
C263 C 0.53128 0.57308 0.62135 0.0
H264 H 0.49046 0.59778 0.79833 0.0
H265 H 0.41114 0.60196 0.9415 0.0
H266 H 0.47209 0.6376 0.82194 0.0
H267 H 0.43066 0.56196 0.9209 0.0
H268 H 0.60412 0.4803 0.39561 0.0
H269 H 0.5976 0.41958 0.62363 0.0
H270 H 0.6183 0.43819 0.3747 0.0
H271 H 0.58313 0.4617 0.64336 0.0
Eu272 Eu 0.03607 0.54681 0.62394 0.0
Eu273 Eu 0.01872 0.50627 0.75969 0.0
C274 C 0.07668 0.51942 0.74465 0.0
C275 C 0.07824 0.58847 0.50705 0.0
C276 C 0.0969 0.58714 0.56936 0.0
C277 C 0.10862 0.60143 0.40908 0.0
C278 C 0.12133 0.59246 0.55125 0.0
C279 C 0.08416 0.59615 0.42735 0.0
C280 C 0.12757 0.59907 0.47037 0.0
C281 C 0.05309 0.58006 0.52334 0.0
O282 O 0.02857 0.54127 0.83298 0.0
O283 O 0.02014 0.56866 0.72968 0.0
C284 C 0.02385 0.56395 0.80892 0.0
O285 O 0.99588 0.54083 0.58836 0.0
O286 O 1.00146 0.49835 0.87668 0.0
O287 O 1.01545 0.46837 0.80355 0.0
O288 O 0.98289 0.52151 0.70618 0.0
C289 C 0.97821 0.53218 0.63426 0.0
O290 O 0.04295 0.50943 0.56388 0.0
O291 O 1.01587 0.48598 0.63602 0.0
O292 O 0.0602 0.50265 0.76357 0.0
O293 O 0.04774 0.55754 0.50049 0.0
O294 O 0.04521 0.58504 0.59684 0.0
O295 O 0.07061 0.53916 0.70184 0.0
C296 C 0.9784 0.46196 0.87306 0.0
C297 C 0.9612 0.46214 0.80613 0.0
C298 C 0.947 0.44583 0.96175 0.0
C299 C 0.93677 0.45496 0.81768 0.0
C300 C 0.97141 0.45298 0.95004 0.0
C301 C 0.92917 0.44769 0.89656 0.0
C302 C 1.00224 0.47455 0.86633 0.0
C303 C 0.02999 0.48897 0.57202 0.0
H304 H 0.09269 0.58129 0.63149 0.0
H305 H 0.1128 0.60607 0.34579 0.0
H306 H 0.13543 0.59069 0.59998 0.0
H307 H 0.07 0.59717 0.37849 0.0
H308 H 0.96631 0.46914 0.74618 0.0
H309 H 0.94179 0.44068 0.02362 0.0
H310 H 0.92359 0.45635 0.76601 0.0
H311 H 0.98444 0.45292 1.00246 0.0
H312 H 0.20456 1.00283 0.32835 0.0
H313 H 0.0796 0.06234 0.49007 0.0
H314 H 0.17981 0.07584 0.26439 0.0
H315 H 0.11503 1.00263 0.62155 0.0
H316 H 0.11503 0.06521 0.40032 0.0
H317 H 0.17189 1.00039 0.43126 0.0
C318 C 0.19259 0.01847 0.33622 0.0
C319 C 0.19502 0.03943 0.28554 0.0
C320 C 0.11519 0.05149 0.44892 0.0
C321 C 0.15691 0.03647 0.40285 0.0
C322 C 0.09481 0.0498 0.50038 0.0
C323 C 0.09408 0.03224 0.56433 0.0
C324 C 0.13517 0.03526 0.4595 0.0
C325 C 0.11465 0.01658 0.57376 0.0
C326 C 0.17374 0.01697 0.39481 0.0
C327 C 0.17855 0.05895 0.29944 0.0
N328 N 0.13412 0.0183 0.52183 0.0
N329 N 0.16028 0.05686 0.35528 0.0
H330 H 0.54219 0.19846 0.28256 0.0
H331 H 0.48299 0.07234 0.44922 0.0
H332 H 0.4715 0.16936 0.19796 0.0
H333 H 0.54698 0.10681 0.56723 0.0
H334 H 0.47937 0.10743 0.35482 0.0
H335 H 0.54476 0.16557 0.38697 0.0
C336 C 0.52706 0.18544 0.28637 0.0
C337 C 0.50672 0.18674 0.23003 0.0
C338 C 0.49419 0.10741 0.40147 0.0
C339 C 0.50979 0.14853 0.34908 0.0
C340 C 0.49631 0.08725 0.45548 0.0
C341 C 0.51533 0.08642 0.51676 0.0
C342 C 0.51131 0.12702 0.40766 0.0
C343 C 0.53196 0.10652 0.52131 0.0
C344 C 0.52864 0.16648 0.34574 0.0
C345 C 0.48784 0.16898 0.23825 0.0
N346 N 0.52964 0.12584 0.46753 0.0
N347 N 0.48994 0.15068 0.29565 0.0
H348 H 0.35753 0.53936 0.26052 0.0
H349 H 0.48567 0.48525 0.44218 0.0
H350 H 0.39338 0.47615 0.15682 0.0
H351 H 0.44685 0.54484 0.55671 0.0
H352 H 0.45188 0.48131 0.33814 0.0
H353 H 0.38939 0.54091 0.37161 0.0
C354 C 0.37187 0.5256 0.26149 0.0
C355 C 0.37271 0.5077 0.19838 0.0
C356 C 0.45072 0.4952 0.3862 0.0
C357 C 0.40971 0.50966 0.32528 0.0
C358 C 0.47007 0.49749 0.44568 0.0
C359 C 0.46925 0.51544 0.50856 0.0
C360 C 0.43034 0.51103 0.38912 0.0
C361 C 0.44843 0.53073 0.5096 0.0
C362 C 0.39023 0.52662 0.32475 0.0
C363 C 0.3921 0.4906 0.20291 0.0
N364 N 0.42993 0.52822 0.45088 0.0
N365 N 0.4098 0.49209 0.26468 0.0
H366 H 1.01557 0.35048 0.28594 0.0
H367 H 0.05378 0.48936 0.42304 0.0
H368 H 0.05264 0.40196 0.12858 0.0
H369 H 1.00898 0.44225 0.5725 0.0
H370 H 0.05519 0.45658 0.31842 0.0
H371 H 1.01489 0.38241 0.3949 0.0
C372 C 0.0237 0.36836 0.27414 0.0
C373 C 0.03399 0.37334 0.1968 0.0
C374 C 0.04505 0.45334 0.37408 0.0
C375 C 0.03322 0.41029 0.3223 0.0
C376 C 0.04425 0.47214 0.43424 0.0
C377 C 0.03121 0.46882 0.50744 0.0
C378 C 0.03284 0.4307 0.38647 0.0
C379 C 0.01925 0.44588 0.5174 0.0
C380 C 0.02316 0.3867 0.33645 0.0
C381 C 0.04406 0.39713 0.186 0.0
N382 N 0.02038 0.42782 0.45808 0.0
N383 N 0.04342 0.4145 0.24741 0.0
H384 H 0.87507 0.9745 0.15647 0.0
H385 H 0.93576 0.03702 0.76181 0.0
H386 H 0.84648 0.04294 0.05989 0.0
H387 H 0.97666 0.99412 0.94227 0.0
H388 H 0.89959 0.03495 0.85065 0.0
H389 H 0.90821 0.97657 0.0586 0.0
C390 C 0.87561 0.99009 0.11484 0.0
C391 C 0.85791 1.00894 0.11917 0.0
C392 C 0.91648 0.02592 0.87057 0.0
C393 C 0.89627 1.01094 1.00301 0.0
C394 C 0.93716 0.02694 0.81959 0.0
C395 C 0.95957 0.01564 0.84409 0.0
C396 C 0.91782 1.01296 0.94606 0.0
C397 C 0.96004 1.00312 0.92037 0.0
C398 C 0.89469 0.99115 0.0584 0.0
C399 C 0.85953 0.02798 0.05999 0.0
N400 N 0.93963 1.00195 0.96776 0.0
N401 N 0.87834 0.02854 1.00486 0.0
H402 H 0.52921 0.89208 0.23038 0.0
H403 H 0.53097 0.93497 0.75376 0.0
H404 H 0.54063 0.84083 0.03055 0.0
H405 H 0.52796 0.98473 0.96247 0.0
H406 H 0.53226 0.90008 0.85036 0.0
H407 H 0.52581 0.92544 0.13027 0.0
C408 C 0.53099 0.88777 0.16521 0.0
C409 C 0.53559 0.86346 0.13951 0.0
C410 C 0.53133 0.91863 0.87497 0.0
C411 C 0.53152 0.90214 0.02285 0.0
C412 C 0.53062 0.93865 0.81978 0.0
C413 C 0.52943 0.96306 0.84954 0.0
C414 C 0.5307 0.92286 0.961 0.0
C415 C 0.52895 0.96641 0.93604 0.0
C416 C 0.52901 0.90695 0.10779 0.0
C417 C 0.53709 0.85918 0.0536 0.0
N418 N 0.52955 0.94667 0.98821 0.0
N419 N 0.53524 0.87831 0.99853 0.0
H420 H 0.6604 0.56182 0.2389 0.0
H421 H 0.6139 0.53466 0.77193 0.0
H422 H 0.70892 0.53808 0.04847 0.0
H423 H 0.5643 0.53757 0.97534 0.0
H424 H 0.64885 0.538 0.8711 0.0
H425 H 0.62501 0.5546 0.14324 0.0
C426 C 0.66359 0.55488 0.17711 0.0
C427 C 0.68771 0.55058 0.15168 0.0
C428 C 0.63034 0.53785 0.89415 0.0
C429 C 0.6472 0.5426 0.04119 0.0
C430 C 0.61031 0.53609 0.83746 0.0
C431 C 0.58602 0.53594 0.86511 0.0
C432 C 0.6262 0.53979 0.97947 0.0
C433 C 0.58265 0.53763 0.95102 0.0
C434 C 0.64336 0.55075 0.12254 0.0
C435 C 0.69068 0.54147 0.07097 0.0
N436 N 0.60247 0.53965 1.00499 0.0
N437 N 0.67073 0.53805 0.01841 0.0
H438 H 0.01624 0.65034 0.26482 0.0
H439 H 0.02172 0.61421 0.78154 0.0
H440 H 0.02951 0.70462 0.07629 0.0
H441 H 0.02448 0.56127 0.98026 0.0
H442 H 0.02124 0.6476 0.88488 0.0
H443 H 1.01574 0.61821 0.15914 0.0
C444 C 0.01925 0.65567 0.2013 0.0
C445 C 0.02343 0.68058 0.18085 0.0
C446 C 0.02193 0.62869 0.90591 0.0
C447 C 0.02224 0.6431 0.057 0.0
C448 C 0.02213 0.6095 0.84679 0.0
C449 C 0.02313 0.58463 0.87159 0.0
C450 C 0.02246 0.62319 0.99116 0.0
C451 C 0.02374 0.57999 0.9575 0.0
C452 C 0.0188 0.63711 0.1405 0.0
C453 C 0.02622 0.68589 0.096 0.0
N454 N 0.02331 0.59894 0.01361 0.0
N455 N 0.02565 0.66739 0.03762 0.0
H456 H 0.04964 0.27368 0.31722 0.0
H457 H 0.07485 0.14264 0.49131 0.0
H458 H 0.10713 0.22515 0.23918 0.0
H459 H 1.00705 0.18329 0.50458 0.0
H460 H 0.09648 0.18059 0.45739 0.0
H461 H 0.04661 0.25026 0.44446 0.0
C462 C 0.06245 0.25876 0.32829 0.0
C463 C 0.0778 0.25049 0.26566 0.0
C464 C 0.07702 0.18132 0.46998 0.0
C465 C 0.07377 0.22332 0.40975 0.0
C466 C 0.0646 0.15968 0.48909 0.0
C467 C 0.03895 0.15978 0.49843 0.0
C468 C 0.06364 0.2031 0.45911 0.0
C469 C 0.02667 0.18233 0.49502 0.0
C470 C 0.06054 0.24528 0.40096 0.0
C471 C 0.09421 0.23135 0.28441 0.0
N472 N 0.03907 0.20308 0.47411 0.0
N473 N 0.09119 0.21779 0.35385 0.0
H474 H 0.32126 0.93941 0.14533 0.0
H475 H 0.3915 0.94685 0.56552 0.0
H476 H 0.30125 0.98561 0.35008 0.0
H477 H 0.40956 0.89663 0.36866 0.0
H478 H 0.3495 0.94834 0.51056 0.0
H479 H 0.34336 0.91241 0.24255 0.0
C480 C 0.32099 0.94346 0.21116 0.0
C481 C 0.31018 0.96517 0.23967 0.0
C482 C 0.36241 0.93643 0.48042 0.0
C483 C 0.33578 0.93475 0.35099 0.0
C484 C 0.38654 0.93534 0.51245 0.0
C485 C 0.40454 0.92253 0.46922 0.0
C486 C 0.35645 0.92515 0.40372 0.0
C487 C 0.3966 0.90779 0.40151 0.0
C488 C 0.33355 0.92803 0.26675 0.0
C489 C 0.30976 0.96928 0.32547 0.0
N490 N 0.37334 0.91019 0.36898 0.0
N491 N 0.32303 0.95461 0.37799 0.0
H492 H 0.60257 0.31992 0.13842 0.0
H493 H 0.64627 0.40407 0.41118 0.0
H494 H 0.5537 0.29468 0.32592 0.0
H495 H 0.57982 0.3866 0.53907 0.0
H496 H 0.64468 0.36325 0.34712 0.0
H497 H 0.62625 0.34289 0.24326 0.0
C498 C 0.59741 0.31857 0.20261 0.0
C499 C 0.57583 0.30601 0.22345 0.0
C500 C 0.63048 0.36821 0.38939 0.0
C501 C 0.60274 0.33243 0.34486 0.0
C502 C 0.63153 0.39149 0.42659 0.0
C503 C 0.61265 0.39909 0.47807 0.0
C504 C 0.61002 0.35278 0.40235 0.0
C505 C 0.59456 0.38176 0.49861 0.0
C506 C 0.61104 0.33165 0.26311 0.0
C507 C 0.57007 0.30446 0.30729 0.0
N508 N 0.59336 0.35966 0.4591 0.0
N509 N 0.58303 0.31814 0.36468 0.0
H510 H 0.25968 0.53989 0.30592 0.0
H511 H 0.14929 0.63183 0.36496 0.0
H512 H 0.23552 0.59408 0.1271 0.0
H513 H 0.16558 0.56934 0.52174 0.0
H514 H 0.18964 0.62753 0.30376 0.0
H515 H 0.2351 0.56021 0.41071 0.0
C516 C 0.24994 0.55664 0.28979 0.0
C517 C 0.24916 0.56517 0.2079 0.0
C518 C 0.18459 0.61511 0.3529 0.0
C519 C 0.22071 0.58807 0.32591 0.0
C520 C 0.16151 0.61748 0.38754 0.0
C521 C 0.15376 0.60052 0.44698 0.0
C522 C 0.19992 0.59552 0.37737 0.0
C523 C 0.17065 0.58275 0.47567 0.0
C524 C 0.23576 0.56811 0.34924 0.0
C525 C 0.23622 0.58682 0.1896 0.0
N526 N 0.19272 0.5804 0.43938 0.0
N527 N 0.22207 0.59727 0.24772 0.0
H528 H 0.99773 0.78927 0.06976 0.0
H529 H 0.98114 0.92323 0.08035 0.0
H530 H 0.93688 0.82255 0.19184 0.0
H531 H 0.01934 0.88877 0.8801 0.0
H532 H 0.95622 0.88639 0.09311 0.0
H533 H 0.99557 0.82124 0.96515 0.0
C534 C 0.98299 0.80256 0.07219 0.0
C535 C 0.96849 0.80433 0.14232 0.0
C536 C 0.96967 0.88697 0.045 0.0
C537 C 0.9667 0.8415 0.0255 0.0
C538 C 0.98408 0.90813 0.03785 0.0
C539 C 1.0031 0.90894 0.98101 0.0
C540 C 0.97482 0.86606 0.9971 0.0
C541 C 1.00578 0.8886 0.92779 0.0
C542 C 0.98192 0.82111 0.01265 0.0
C543 C 0.94927 0.82145 0.14071 0.0
N544 N 0.99228 0.86776 0.93863 0.0
N545 N 0.94964 0.84021 0.08545 0.0
H546 H 0.72692 0.10579 0.22685 0.0
H547 H 0.65837 0.0945 0.80543 0.0
H548 H 0.74897 0.05817 0.02859 0.0
H549 H 0.64133 0.14883 0.99086 0.0
H550 H 0.70004 0.09233 0.86321 0.0
H551 H 0.70526 0.13177 0.12545 0.0
C552 C 0.72773 0.10125 0.16149 0.0
C553 C 0.73905 0.07951 0.13591 0.0
C554 C 0.68746 0.10526 0.89013 0.0
C555 C 0.71383 0.10863 0.01985 0.0
C556 C 0.66353 0.10671 0.85649 0.0
C557 C 0.64586 0.12105 0.89576 0.0
C558 C 0.69353 0.11775 0.96459 0.0
C559 C 0.654 0.13658 0.96113 0.0
C560 C 0.7154 0.11607 0.1035 0.0
C561 C 0.74006 0.0746 0.05073 0.0
N562 N 0.67702 0.13391 0.99537 0.0
N563 N 0.72696 0.08867 0.99579 0.0
H564 H 0.44081 0.73076 0.24871 0.0
H565 H 0.44305 0.66848 0.80657 0.0
H566 H 0.48666 0.75439 0.05033 0.0
H567 H 0.41879 0.63457 0.03208 0.0
H568 H 0.44269 0.70859 0.87613 0.0
H569 H 0.41623 0.7059 0.14935 0.0
C570 C 0.44513 0.7314 0.18361 0.0
C571 C 0.46622 0.74396 0.1579 0.0
C572 C 0.43674 0.69239 0.90929 0.0
C573 C 0.43854 0.71537 0.0446 0.0
C574 C 0.43712 0.66942 0.86995 0.0
C575 C 0.43201 0.64782 0.91446 0.0
C576 C 0.43095 0.69376 0.99332 0.0
C577 C 0.42331 0.65047 0.99513 0.0
C578 C 0.43115 0.71717 0.12702 0.0
C579 C 0.47076 0.74462 0.07281 0.0
N580 N 0.42359 0.67292 0.03246 0.0
N581 N 0.45746 0.72988 0.01934 0.0
H582 H 0.80069 0.51267 0.05325 0.0
H583 H 0.90565 0.4152 0.99904 0.0
H584 H 0.81784 0.45472 0.22757 0.0
H585 H 0.89195 0.47725 0.83774 0.0
H586 H 0.86508 0.42096 0.05731 0.0
H587 H 0.82436 0.49129 0.94931 0.0
C588 C 0.80874 0.49501 0.06881 0.0
C589 C 0.80785 0.48573 0.14973 0.0
C590 C 0.87072 0.43293 0.00769 0.0
C591 C 0.83554 0.46154 0.03199 0.0
C592 C 0.89392 0.42969 0.97456 0.0
C593 C 0.90255 0.44618 0.91506 0.0
C594 C 0.85617 0.45293 0.9816 0.0
C595 C 0.88626 0.46418 0.88399 0.0
C596 C 0.82245 0.48289 0.0096 0.0
C597 C 0.81865 0.46279 0.1664 0.0
N598 N 0.86411 0.46741 0.91893 0.0
N599 N 0.83254 0.45175 0.10868 0.0
H600 H 0.0922 0.21062 0.99607 0.0
H601 H 1.00272 0.1104 0.7688 0.0
H602 H 1.01421 0.22239 0.9599 0.0
H603 H 0.07646 0.09443 0.85962 0.0
H604 H 1.00737 0.15255 0.8226 0.0
H605 H 0.08764 0.17033 0.92877 0.0
C606 C 0.07409 0.20495 0.97256 0.0
C607 C 0.05357 0.22023 0.98423 0.0
C608 C 0.02255 0.13988 0.83086 0.0
C609 C 0.04813 0.17323 0.90667 0.0
C610 C 0.01996 0.11564 0.80007 0.0
C611 C 0.03917 0.09839 0.80983 0.0
C612 C 0.04469 0.14744 0.87138 0.0
C613 C 0.06103 0.10675 0.8507 0.0
C614 C 0.07149 0.18172 0.93454 0.0
C615 C 0.03064 0.21157 0.95195 0.0
N616 N 0.06316 0.1305 0.87955 0.0
N617 N 0.02853 0.1887 0.91532 0.0
H618 H 0.33229 0.98448 0.94414 0.0
H619 H 0.45772 0.06044 0.86496 0.0
H620 H 0.34933 0.05356 0.06566 0.0
H621 H 0.43714 0.99304 0.7373 0.0
H622 H 0.4181 0.05951 0.93463 0.0
H623 H 0.36946 0.98887 0.86311 0.0
C624 C 0.34356 1.00094 0.95238 0.0
C625 C 0.3372 0.01888 0.01116 0.0
C626 C 0.42217 0.04497 0.89111 0.0
C627 C 0.38091 0.02372 0.91939 0.0
C628 C 0.44493 0.04547 0.85103 0.0
C629 C 0.45117 0.02678 0.79449 0.0
C630 C 0.40519 0.0256 0.87533 0.0
C631 C 0.43349 1.00791 0.77995 0.0
C632 C 0.36503 1.00333 0.90645 0.0
C633 C 0.35305 0.0395 0.02008 0.0
N634 N 0.4116 1.00781 0.81992 0.0
N635 N 0.37414 0.04124 0.97547 0.0
H636 H 0.55577 0.32741 0.90874 0.0
H637 H 0.48803 0.45832 0.86025 0.0
H638 H 0.49278 0.34705 0.04921 0.0
H639 H 0.55301 0.43796 0.72999 0.0
H640 H 0.48696 0.41692 0.92136 0.0
H641 H 0.55209 0.36626 0.8325 0.0
C642 C 0.54067 0.33962 0.9217 0.0
C643 C 0.52421 0.33366 0.98407 0.0
C644 C 0.50138 0.42149 0.87909 0.0
C645 C 0.52037 0.37898 0.89903 0.0
C646 C 0.50202 0.4452 0.84399 0.0
C647 C 0.52072 0.45194 0.78976 0.0
C648 C 0.51953 0.40415 0.85991 0.0
C649 C 0.53828 0.4339 0.77155 0.0
C650 C 0.53873 0.362 0.87885 0.0
C651 C 0.50549 0.35061 1.00022 0.0
N652 N 0.53727 0.41106 0.80645 0.0
N653 N 0.50417 0.37251 0.95851 0.0
H654 H 0.23226 0.54394 0.86707 0.0
H655 H 0.09579 0.48521 0.85436 0.0
H656 H 0.20745 0.49052 0.04298 0.0
H657 H 0.1174 0.54696 0.70461 0.0
H658 H 0.13827 0.48235 0.90925 0.0
H659 H 0.19245 0.54014 0.79061 0.0
C660 C 0.21871 0.53075 0.88774 0.0
C661 C 0.22328 0.51713 0.96031 0.0
C662 C 0.13375 0.49643 0.86399 0.0
C663 C 0.17735 0.5133 0.87523 0.0
C664 C 0.10945 0.49808 0.83245 0.0
C665 C 0.10279 0.51651 0.77507 0.0
C666 C 0.15174 0.51323 0.83785 0.0
C667 C 0.12147 0.5326 0.74921 0.0
C668 C 0.19587 0.52882 0.84488 0.0
C669 C 0.2048 0.50094 0.98629 0.0
N670 N 0.14498 0.53063 0.7809 0.0
N671 N 0.18263 0.49958 0.94421 0.0
H672 H 0.04264 0.82915 0.43065 0.0
H673 H 0.98145 0.95895 0.53165 0.0
H674 H 0.96424 0.84123 0.41374 0.0
H675 H 0.04808 0.9368 0.66284 0.0
H676 H 0.97738 0.91721 0.47307 0.0
H677 H 0.04758 0.86893 0.50527 0.0
C678 C 0.02643 0.83979 0.44381 0.0
C679 C 1.00299 0.83165 0.41457 0.0
C680 C 0.99289 0.92144 0.51483 0.0
C681 C 1.00864 0.8778 0.49758 0.0
C682 C 0.99527 0.94539 0.54819 0.0
C683 C 1.01508 0.95163 0.60291 0.0
C684 C 1.01074 0.90344 0.53421 0.0
C685 C 0.03237 0.93296 0.62156 0.0
C686 C 0.02929 0.86268 0.48577 0.0
C687 C 0.98276 0.8467 0.43328 0.0
N688 N 0.02996 0.90993 0.58687 0.0
N689 N 0.98609 0.86896 0.47182 0.0
H690 H 0.68794 1.01048 0.25497 0.0
H691 H 0.61673 0.03706 0.67807 0.0
H692 H 0.72504 0.03977 0.4742 0.0
H693 H 0.58205 1.00661 0.45562 0.0
H694 H 0.65662 0.0366 0.60947 0.0
H695 H 0.64989 1.00658 0.33179 0.0
C696 C 0.68827 0.01545 0.32015 0.0
C697 C 0.71008 0.02489 0.35834 0.0
C698 C 0.64031 0.02992 0.57578 0.0
C699 C 0.66574 0.02139 0.44726 0.0
C700 C 0.61739 0.03016 0.61507 0.0
C701 C 0.59562 0.02185 0.57318 0.0
C702 C 0.64177 0.02129 0.49345 0.0
C703 C 0.59804 1.01325 0.49115 0.0
C704 C 0.66636 1.0135 0.364 0.0
C705 C 0.70896 0.0318 0.44253 0.0
N706 N 0.62043 1.01325 0.45451 0.0
N707 N 0.68727 0.03007 0.48376 0.0
H708 H 0.5582 0.70869 0.33114 0.0
H709 H 0.55669 0.58814 0.48519 0.0
H710 H 0.48824 0.71479 0.44753 0.0
H711 H 0.50812 0.61577 0.66967 0.0
H712 H 0.55671 0.62869 0.41986 0.0
H713 H 0.56564 0.66998 0.4065 0.0
C714 C 0.54463 0.70213 0.37381 0.0
C715 C 0.52259 0.71507 0.38307 0.0
C716 C 0.54642 0.62614 0.47555 0.0
C717 C 0.53049 0.67018 0.46778 0.0
C718 C 0.5462 0.60278 0.51266 0.0
C719 C 0.53244 0.59831 0.58362 0.0
C720 C 0.53257 0.64542 0.50879 0.0
C721 C 0.51915 0.6182 0.61561 0.0
C722 C 0.54865 0.67974 0.4158 0.0
C723 C 0.5055 0.70545 0.43852 0.0
N724 N 0.51933 0.64066 0.57756 0.0
N725 N 0.50977 0.6837 0.47841 0.0
H726 H 0.83041 0.49187 0.46837 0.0
H727 H 0.95897 0.56189 0.51092 0.0
H728 H 0.84168 0.56393 0.36486 0.0
H729 H 0.93785 0.50593 0.68478 0.0
H730 H 0.9165 0.56244 0.45457 0.0
H731 H 0.86947 0.4963 0.54849 0.0
C732 C 0.84082 0.50891 0.46445 0.0
C733 C 0.83266 0.52772 0.41096 0.0
C734 C 0.92111 0.55021 0.50557 0.0
C735 C 0.87791 0.53253 0.49955 0.0
C736 C 0.94541 0.54979 0.53758 0.0
C737 C 0.95213 0.53378 0.60264 0.0
C738 C 0.90335 0.53417 0.5376 0.0
C739 C 0.93361 0.51861 0.63475 0.0
C740 C 0.86319 0.51138 0.50966 0.0
C741 C 0.84712 0.5492 0.40652 0.0
N742 N 0.91021 0.51897 0.60131 0.0
N743 N 0.86922 0.55087 0.44911 0.0
loop_
_geom_bond_atom_site_label_1
_geom_bond_atom_site_label_2
_geom_bond_distance
_geom_bond_site_symmetry_2
_ccdc_geom_bond_type
H0 C1 0.949 . S
C1 H0 0.949 . S
C1 C2 1.395 . S
C1 C3 1.391 . S
C2 C1 1.395 . S
C2 C5 1.390 . S
C3 C1 1.391 . S
C3 C7 1.387 . S
C3 C8 1.491 . S
H4 C5 0.950 . S
C5 C2 1.390 . S
C5 H4 0.950 . S
C5 C6 1.378 . S
C6 C5 1.378 . S
C6 C7 1.409 . S
C7 C3 1.387 . S
C7 C6 1.409 . S
C7 H9 0.951 . S
C8 C3 1.491 . S
C8 C10 1.382 . S
C8 C12 1.404 . S
H9 C7 0.951 . S
C10 C8 1.382 . S
C10 C11 1.390 . S
C10 H15 0.949 . S
C11 C10 1.390 . S
C11 C16 1.399 . S
C12 C8 1.404 . S
C12 H13 0.950 . S
C12 C14 1.375 . S
H13 C12 0.950 . S
C14 C12 1.375 . S
C14 C16 1.382 . S
C14 H18 0.950 . S
H15 C10 0.949 . S
C16 C11 1.399 . S
C16 C14 1.382 . S
C16 H17 0.952 . S
H17 C16 0.952 . S
H18 C14 0.950 . S
H19 C20 0.949 . S
C20 H19 0.949 . S
C20 C21 1.395 . S
C20 C22 1.391 . S
C21 C20 1.395 . S
C21 C24 1.390 . S
C22 C20 1.391 . S
C22 C26 1.387 . S
C22 C27 1.491 . S
H23 C24 0.950 . S
C24 C21 1.390 . S
C24 H23 0.950 . S
C24 C25 1.378 . S
C25 C24 1.378 . S
C25 C26 1.409 . S
C26 C22 1.387 . S
C26 C25 1.409 . S
C26 H28 0.951 . S
C27 C22 1.491 . S
C27 C29 1.382 . S
C27 C31 1.404 . S
H28 C26 0.951 . S
C29 C27 1.382 . S
C29 C30 1.390 . S
C29 H34 0.949 . S
C30 C29 1.390 . S
C30 C35 1.399 . S
C31 C27 1.404 . S
C31 H32 0.950 . S
C31 C33 1.375 . S
H32 C31 0.950 . S
C33 C31 1.375 . S
C33 C35 1.382 . S
C33 H37 0.950 . S
H34 C29 0.949 . S
C35 C30 1.399 . S
C35 C33 1.382 . S
C35 H36 0.952 . S
H36 C35 0.952 . S
H37 C33 0.950 . S
H38 C39 0.949 . S
C39 H38 0.949 . S
C39 C40 1.395 . S
C39 C41 1.391 . S
C40 C39 1.395 . S
C40 C43 1.390 . S
C41 C39 1.391 . S
C41 C45 1.387 . S
C41 C46 1.491 . S
H42 C43 0.950 . S
C43 C40 1.390 . S
C43 H42 0.950 . S
C43 C44 1.378 . S
C44 C43 1.378 . S
C44 C45 1.409 . S
C45 C41 1.387 . S
C45 C44 1.409 . S
C45 H47 0.951 . S
C46 C41 1.491 . S
C46 C48 1.382 . S
C46 C50 1.404 . S
H47 C45 0.951 . S
C48 C46 1.382 . S
C48 C49 1.390 . S
C48 H53 0.949 . S
C49 C48 1.390 . S
C49 C54 1.399 . S
C50 C46 1.404 . S
C50 H51 0.950 . S
C50 C52 1.375 . S
H51 C50 0.950 . S
C52 C50 1.375 . S
C52 C54 1.382 . S
C52 H56 0.950 . S
H53 C48 0.949 . S
C54 C49 1.399 . S
C54 C52 1.382 . S
C54 H55 0.952 . S
H55 C54 0.952 . S
H56 C52 0.950 . S
H57 C58 0.949 . S
C58 H57 0.949 . S
C58 C59 1.395 . S
C58 C60 1.391 . S
C59 C58 1.395 . S
C59 C62 1.390 . S
C60 C58 1.391 . S
C60 C64 1.387 . S
C60 C65 1.491 . S
H61 C62 0.950 . S
C62 C59 1.390 . S
C62 H61 0.950 . S
C62 C63 1.378 . S
C63 C62 1.378 . S
C63 C64 1.409 . S
C64 C60 1.387 . S
C64 C63 1.409 . S
C64 H66 0.951 . S
C65 C60 1.491 . S
C65 C67 1.382 . S
C65 C69 1.404 . S
H66 C64 0.951 . S
C67 C65 1.382 . S
C67 C68 1.390 . S
C67 H72 0.949 . S
C68 C67 1.390 . S
C68 C73 1.399 . S
C69 C65 1.404 . S
C69 H70 0.950 . S
C69 C71 1.375 . S
H70 C69 0.950 . S
C71 C69 1.375 . S
C71 C73 1.382 . S
C71 H75 0.950 . S
H72 C67 0.949 . S
C73 C68 1.399 . S
C73 C71 1.382 . S
C73 H74 0.952 . S
H74 C73 0.952 . S
H75 C71 0.950 . S
H76 C77 0.949 . S
C77 H76 0.949 . S
C77 C78 1.395 . S
C77 C79 1.391 . S
C78 C77 1.395 . S
C78 C81 1.390 . S
C79 C77 1.391 . S
C79 C83 1.387 1_554 S
C79 C84 1.491 . S
H80 C81 0.950 . S
C81 C78 1.390 . S
C81 H80 0.950 . S
C81 C82 1.378 1_554 S
C82 C81 1.378 1_556 S
C82 C83 1.409 . S
C83 C79 1.387 1_556 S
C83 C82 1.409 . S
C83 H85 0.951 . S
C84 C79 1.491 . S
C84 C86 1.382 . S
C84 C88 1.404 . S
H85 C83 0.951 . S
C86 C84 1.382 . S
C86 C87 1.390 . S
C86 H91 0.949 . S
C87 C86 1.390 . S
C87 C92 1.399 . S
C88 C84 1.404 . S
C88 H89 0.950 1_554 S
C88 C90 1.375 . S
H89 C88 0.950 1_556 S
C90 C88 1.375 . S
C90 C92 1.382 . S
C90 H94 0.950 1_554 S
H91 C86 0.949 . S
C92 C87 1.399 . S
C92 C90 1.382 . S
C92 H93 0.952 . S
H93 C92 0.952 . S
H94 C90 0.950 1_556 S
H95 C96 0.949 . S
C96 H95 0.949 . S
C96 C97 1.395 . S
C96 C98 1.391 . S
C97 C96 1.395 . S
C97 C100 1.390 . S
C98 C96 1.391 . S
C98 C102 1.387 1_554 S
C98 C103 1.491 . S
H99 C100 0.950 . S
C100 C97 1.390 . S
C100 H99 0.950 . S
C100 C101 1.378 1_554 S
C101 C100 1.378 1_556 S
C101 C102 1.409 . S
C102 C98 1.387 1_556 S
C102 C101 1.409 . S
C102 H104 0.951 . S
C103 C98 1.491 . S
C103 C105 1.382 . S
C103 C107 1.404 1_554 S
H104 C102 0.951 . S
C105 C103 1.382 . S
C105 C106 1.390 . S
C105 H110 0.949 . S
C106 C105 1.390 . S
C106 C111 1.399 . S
C107 C103 1.404 1_556 S
C107 H108 0.950 . S
C107 C109 1.375 . S
H108 C107 0.950 . S
C109 C107 1.375 . S
C109 C111 1.382 1_556 S
C109 H113 0.950 . S
H110 C105 0.949 . S
C111 C106 1.399 . S
C111 C109 1.382 1_554 S
C111 H112 0.952 . S
H112 C111 0.952 . S
H113 C109 0.950 . S
H114 C115 0.949 . S
C115 H114 0.949 . S
C115 C116 1.395 . S
C115 C117 1.391 1_554 S
C116 C115 1.395 . S
C116 C119 1.390 1_554 S
C117 C115 1.391 1_556 S
C117 C121 1.387 . S
C117 C122 1.491 . S
H118 C119 0.950 . S
C119 C116 1.390 1_556 S
C119 H118 0.950 . S
C119 C120 1.378 . S
C120 C119 1.378 . S
C120 C121 1.409 . S
C121 C117 1.387 . S
C121 C120 1.409 . S
C121 H123 0.951 . S
C122 C117 1.491 . S
C122 C124 1.382 1_556 S
C122 C126 1.404 . S
H123 C121 0.951 . S
C124 C122 1.382 1_554 S
C124 C125 1.390 . S
C124 H129 0.949 . S
C125 C124 1.390 . S
C125 C130 1.399 1_554 S
C126 C122 1.404 . S
C126 H127 0.950 . S
C126 C128 1.375 . S
H127 C126 0.950 . S
C128 C126 1.375 . S
C128 C130 1.382 . S
C128 H132 0.950 1_545 S
H129 C124 0.949 . S
C130 C125 1.399 1_556 S
C130 C128 1.382 . S
C130 H131 0.952 . S
H131 C130 0.952 . S
H132 C128 0.950 1_565 S
H133 C134 0.949 . S
C134 H133 0.949 . S
C134 C135 1.395 . S
C134 C136 1.391 . S
C135 C134 1.395 . S
C135 C138 1.390 . S
C136 C134 1.391 . S
C136 C140 1.387 1_554 S
C136 C141 1.491 . S
H137 C138 0.950 . S
C138 C135 1.390 . S
C138 H137 0.950 . S
C138 C139 1.378 1_554 S
C139 C138 1.378 1_556 S
C139 C140 1.409 . S
C140 C136 1.387 1_556 S
C140 C139 1.409 . S
C140 H142 0.951 . S
C141 C136 1.491 . S
C141 C143 1.382 . S
C141 C145 1.404 . S
H142 C140 0.951 . S
C143 C141 1.382 . S
C143 C144 1.390 . S
C143 H148 0.949 . S
C144 C143 1.390 . S
C144 C149 1.399 . S
C145 C141 1.404 . S
C145 H146 0.950 1_554 S
C145 C147 1.375 . S
H146 C145 0.950 1_556 S
C147 C145 1.375 . S
C147 C149 1.382 . S
C147 H151 0.950 1_554 S
H148 C143 0.949 . S
C149 C144 1.399 . S
C149 C147 1.382 . S
C149 H150 0.952 . S
H150 C149 0.952 . S
H151 C147 0.950 1_556 S
Eu152 C161 2.828 . S
Eu152 O163 2.392 . S
Eu152 O165 2.418 1_545 S
Eu152 O170 2.373 1_655 S
Eu152 O173 2.488 . S
Eu152 O174 2.471 1_655 S
Eu152 O175 2.349 1_655 S
Eu153 O162 2.375 1_455 S
Eu153 O166 2.488 . S
Eu153 O167 2.471 . S
Eu153 O168 2.349 . S
Eu153 O171 2.392 1_565 S
Eu153 O172 2.418 1_565 S
Eu153 C182 2.828 . S
C154 O172 1.244 . S
C154 O175 1.265 . S
C155 C156 1.379 . S
C155 C159 1.373 1_455 S
C155 C161 1.505 1_455 S
C156 C155 1.379 . S
C156 C158 1.369 . S
C156 H184 0.930 . S
C157 C159 1.383 . S
C157 C160 1.382 1_655 S
C157 H185 0.930 . S
C158 C156 1.369 . S
C158 C160 1.392 . S
C158 H186 0.930 . S
C159 C155 1.373 1_655 S
C159 C157 1.383 . S
C159 H187 0.931 . S
C160 C157 1.382 1_455 S
C160 C158 1.392 . S
C161 Eu152 2.828 . S
C161 C155 1.505 1_655 S
C161 O173 1.249 . S
C161 O174 1.244 1_655 S
O162 Eu153 2.375 1_655 S
O162 C164 1.255 1_565 S
O163 Eu152 2.392 . S
O163 C164 1.242 . S
C164 O162 1.255 1_545 S
C164 O163 1.242 . S
O165 Eu152 2.418 1_565 S
O165 C169 1.244 . S
O166 Eu153 2.488 . S
O166 C182 1.249 . S
O167 Eu153 2.471 . S
O167 C182 1.244 . S
O168 Eu153 2.349 . S
O168 C169 1.265 1_455 S
C169 O165 1.244 . S
C169 O168 1.265 1_655 S
O170 Eu152 2.373 1_455 S
O170 C183 1.258 . S
O171 Eu153 2.392 1_545 S
O171 C183 1.242 . S
O172 Eu153 2.418 1_545 S
O172 C154 1.244 . S
O173 Eu152 2.488 . S
O173 C161 1.249 . S
O174 Eu152 2.471 1_455 S
O174 C161 1.244 1_455 S
O175 Eu152 2.349 1_455 S
O175 C154 1.265 . S
C176 C177 1.379 . S
C176 C180 1.373 1_556 S
C176 C182 1.505 . S
C177 C176 1.379 . S
C177 C179 1.369 1_456 S
C177 H188 0.930 1_455 S
C178 C180 1.383 . S
C178 C181 1.382 . S
C178 H189 0.930 . S
C179 C177 1.369 1_654 S
C179 C181 1.392 1_655 S
C179 H190 0.930 1_554 S
C180 C176 1.373 1_554 S
C180 C178 1.383 . S
C180 H191 0.931 . S
C181 C178 1.382 . S
C181 C179 1.392 1_455 S
C182 Eu153 2.828 . S
C182 O166 1.249 . S
C182 O167 1.244 . S
C182 C176 1.505 . S
C183 O170 1.258 . S
C183 O171 1.242 . S
H184 C156 0.930 . S
H185 C157 0.930 . S
H186 C158 0.930 . S
H187 C159 0.931 . S
H188 C177 0.930 1_655 S
H189 C178 0.930 . S
H190 C179 0.930 1_556 S
H191 C180 0.931 . S
Eu192 C201 2.828 . S
Eu192 O203 2.392 . S
Eu192 O205 2.418 . S
Eu192 O210 2.373 . S
Eu192 O213 2.488 . S
Eu192 O214 2.471 . S
Eu192 O215 2.349 1_545 S
Eu193 O202 2.373 1_565 S
Eu193 O206 2.488 . S
Eu193 O207 2.471 1_565 S
Eu193 O208 2.349 1_565 S
Eu193 O211 2.392 . S
Eu193 O212 2.418 . S
Eu193 C222 2.828 . S
C194 O212 1.244 . S
C194 O215 1.265 . S
C195 C196 1.379 . S
C195 C199 1.373 . S
C195 C201 1.505 . S
C196 C195 1.379 . S
C196 C198 1.369 . S
C196 H224 0.930 1_545 S
C197 C199 1.383 . S
C197 C200 1.382 . S
C197 H225 0.930 . S
C198 C196 1.369 . S
C198 C200 1.392 . S
C198 H226 0.930 1_545 S
C199 C195 1.373 . S
C199 C197 1.383 . S
C199 H227 0.931 . S
C200 C197 1.382 . S
C200 C198 1.392 . S
C201 Eu192 2.828 . S
C201 C195 1.505 . S
C201 O213 1.249 . S
C201 O214 1.244 . S
O202 Eu193 2.373 1_545 S
O202 C204 1.258 . S
O203 Eu192 2.392 . S
O203 C204 1.242 . S
C204 O202 1.258 . S
C204 O203 1.242 . S
O205 Eu192 2.418 . S
O205 C209 1.244 . S
O206 Eu193 2.488 . S
O206 C222 1.249 . S
O207 Eu193 2.471 1_545 S
O207 C222 1.244 1_545 S
O208 Eu193 2.349 1_545 S
O208 C209 1.265 . S
C209 O205 1.244 . S
C209 O208 1.265 . S
O210 Eu192 2.373 . S
O210 C223 1.258 1_545 S
O211 Eu193 2.392 . S
O211 C223 1.242 . S
O212 Eu193 2.418 . S
O212 C194 1.244 . S
O213 Eu192 2.488 . S
O213 C201 1.249 . S
O214 Eu192 2.471 . S
O214 C201 1.244 . S
O215 Eu192 2.349 1_565 S
O215 C194 1.265 . S
C216 C217 1.379 1_565 S
C216 C220 1.373 . S
C216 C222 1.505 . S
C217 C216 1.379 1_545 S
C217 C219 1.369 . S
C217 H228 0.930 . S
C218 C220 1.383 . S
C218 C221 1.382 . S
C218 H229 0.930 . S
C219 C217 1.369 . S
C219 C221 1.392 1_545 S
C219 H230 0.930 . S
C220 C216 1.373 . S
C220 C218 1.383 . S
C220 H231 0.931 . S
C221 C218 1.382 . S
C221 C219 1.392 1_565 S
C222 Eu193 2.828 . S
C222 O206 1.249 . S
C222 O207 1.244 1_565 S
C222 C216 1.505 . S
C223 O210 1.258 1_565 S
C223 O211 1.242 . S
H224 C196 0.930 1_565 S
H225 C197 0.930 . S
H226 C198 0.930 1_565 S
H227 C199 0.931 . S
H228 C217 0.930 . S
H229 C218 0.930 . S
H230 C219 0.930 . S
H231 C220 0.931 . S
Eu232 C241 2.828 . S
Eu232 O243 2.392 . S
Eu232 O245 2.418 . S
Eu232 O250 2.373 . S
Eu232 O253 2.488 . S
Eu232 O254 2.471 . S
Eu232 O255 2.349 . S
Eu233 O242 2.373 . S
Eu233 O246 2.488 . S
Eu233 O247 2.471 . S
Eu233 O248 2.349 . S
Eu233 O251 2.392 . S
Eu233 O252 2.418 . S
Eu233 C262 2.828 . S
C234 O252 1.244 . S
C234 O255 1.265 . S
C235 C236 1.379 . S
C235 C239 1.373 . S
C235 C241 1.505 . S
C236 C235 1.379 . S
C236 C238 1.369 . S
C236 H264 0.930 . S
C237 C239 1.383 . S
C237 C240 1.382 . S
C237 H265 0.930 . S
C238 C236 1.369 . S
C238 C240 1.392 . S
C238 H266 0.930 . S
C239 C235 1.373 . S
C239 C237 1.383 . S
C239 H267 0.931 . S
C240 C237 1.382 . S
C240 C238 1.392 . S
C241 Eu232 2.828 . S
C241 C235 1.505 . S
C241 O253 1.249 . S
C241 O254 1.244 . S
O242 Eu233 2.373 . S
O242 C244 1.258 . S
O243 Eu232 2.392 . S
O243 C244 1.242 . S
C244 O242 1.258 . S
C244 O243 1.242 . S
O245 Eu232 2.418 . S
O245 C249 1.244 . S
O246 Eu233 2.488 . S
O246 C262 1.249 . S
O247 Eu233 2.471 . S
O247 C262 1.244 . S
O248 Eu233 2.349 . S
O248 C249 1.265 . S
C249 O245 1.244 . S
C249 O248 1.265 . S
O250 Eu232 2.373 . S
O250 C263 1.258 . S
O251 Eu233 2.392 . S
O251 C263 1.242 . S
O252 Eu233 2.418 . S
O252 C234 1.244 . S
O253 Eu232 2.488 . S
O253 C241 1.249 . S
O254 Eu232 2.471 . S
O254 C241 1.244 . S
O255 Eu232 2.349 . S
O255 C234 1.265 . S
C256 C257 1.379 . S
C256 C260 1.373 . S
C256 C262 1.505 . S
C257 C256 1.379 . S
C257 C259 1.369 . S
C257 H268 0.930 . S
C258 C260 1.383 . S
C258 C261 1.382 . S
C258 H269 0.930 . S
C259 C257 1.369 . S
C259 C261 1.392 . S
C259 H270 0.930 . S
C260 C256 1.373 . S
C260 C258 1.383 . S
C260 H271 0.931 . S
C261 C258 1.382 . S
C261 C259 1.392 . S
C262 Eu233 2.828 . S
C262 O246 1.249 . S
C262 O247 1.244 . S
C262 C256 1.505 . S
C263 O250 1.258 . S
C263 O251 1.242 . S
H264 C236 0.930 . S
H265 C237 0.930 . S
H266 C238 0.930 . S
H267 C239 0.931 . S
H268 C257 0.930 . S
H269 C258 0.930 . S
H270 C259 0.930 . S
H271 C260 0.931 . S
Eu272 C281 2.828 . S
Eu272 O283 2.392 . S
Eu272 O285 2.418 1_455 S
Eu272 O290 2.373 . S
Eu272 O293 2.488 . S
Eu272 O294 2.471 . S
Eu272 O295 2.349 . S
Eu273 O282 2.373 . S
Eu273 O286 2.488 . S
Eu273 O287 2.471 . S
Eu273 O288 2.349 . S
Eu273 O291 2.392 1_655 S
Eu273 O292 2.418 1_655 S
Eu273 C302 2.828 . S
C274 O292 1.244 . S
C274 O295 1.265 . S
C275 C276 1.379 . S
C275 C279 1.373 . S
C275 C281 1.505 . S
C276 C275 1.379 . S
C276 C278 1.369 . S
C276 H304 0.930 . S
C277 C279 1.383 . S
C277 C280 1.382 . S
C277 H305 0.930 . S
C278 C276 1.369 . S
C278 C280 1.392 . S
C278 H306 0.930 . S
C279 C275 1.373 . S
C279 C277 1.383 . S
C279 H307 0.931 . S
C280 C277 1.382 . S
C280 C278 1.392 . S
C281 Eu272 2.828 . S
C281 C275 1.505 . S
C281 O293 1.249 . S
C281 O294 1.244 . S
O282 Eu273 2.373 . S
O282 C284 1.258 1_655 S
O283 Eu272 2.392 . S
O283 C284 1.242 . S
C284 O282 1.258 1_455 S
C284 O283 1.242 . S
O285 Eu272 2.418 1_655 S
O285 C289 1.244 . S
O286 Eu273 2.488 . S
O286 C302 1.249 . S
O287 Eu273 2.471 . S
O287 C302 1.244 . S
O288 Eu273 2.349 . S
O288 C289 1.265 . S
C289 O285 1.244 . S
C289 O288 1.265 . S
O290 Eu272 2.373 . S
O290 C303 1.258 . S
O291 Eu273 2.392 1_455 S
O291 C303 1.242 . S
O292 Eu273 2.418 1_455 S
O292 C274 1.244 . S
O293 Eu272 2.488 . S
O293 C281 1.249 . S
O294 Eu272 2.471 . S
O294 C281 1.244 . S
O295 Eu272 2.349 . S
O295 C274 1.265 . S
C296 C297 1.379 . S
C296 C300 1.373 1_556 S
C296 C302 1.505 . S
C297 C296 1.379 . S
C297 C299 1.369 . S
C297 H308 0.930 . S
C298 C300 1.383 . S
C298 C301 1.382 . S
C298 H309 0.930 . S
C299 C297 1.369 . S
C299 C301 1.392 1_556 S
C299 H310 0.930 . S
C300 C296 1.373 1_554 S
C300 C298 1.383 . S
C300 H311 0.931 . S
C301 C298 1.382 . S
C301 C299 1.392 1_554 S
C302 Eu273 2.828 . S
C302 O286 1.249 . S
C302 O287 1.244 . S
C302 C296 1.505 . S
C303 O290 1.258 . S
C303 O291 1.242 . S
H304 C276 0.930 . S
H305 C277 0.930 . S
H306 C278 0.930 . S
H307 C279 0.931 . S
H308 C297 0.930 . S
H309 C298 0.930 . S
H310 C299 0.930 . S
H311 C300 0.931 . S
H312 C318 0.930 . S
H313 C322 0.930 . S
H314 C327 0.929 . S
H315 C325 0.929 1_565 S
H316 C320 0.929 . S
H317 C326 0.929 . S
C318 H312 0.930 . S
C318 C319 1.367 . S
C318 C326 1.378 . S
C319 C318 1.367 . S
C319 C327 1.433 . S
C320 H316 0.929 . S
C320 C322 1.378 . S
C320 C324 1.350 . S
C321 C324 1.463 . S
C321 C326 1.350 . S
C321 N329 1.427 . S
C322 H313 0.930 . S
C322 C320 1.378 . S
C322 C323 1.367 . S
C323 C322 1.367 . S
C323 C325 1.433 . S
C324 C320 1.350 . S
C324 C321 1.463 . S
C324 N328 1.427 . S
C325 H315 0.929 1_545 S
C325 C323 1.433 . S
C325 N328 1.384 . S
C326 H317 0.929 . S
C326 C318 1.378 . S
C326 C321 1.350 . S
C327 H314 0.929 . S
C327 C319 1.433 . S
C327 N329 1.384 . S
N328 C324 1.427 . S
N328 C325 1.384 . S
N329 C321 1.427 . S
N329 C327 1.384 . S
H330 C336 0.930 . S
H331 C340 0.930 . S
H332 C345 0.929 . S
H333 C343 0.929 . S
H334 C338 0.929 . S
H335 C344 0.929 . S
C336 H330 0.930 . S
C336 C337 1.367 . S
C336 C344 1.378 . S
C337 C336 1.367 . S
C337 C345 1.433 . S
C338 H334 0.929 . S
C338 C340 1.378 . S
C338 C342 1.350 . S
C339 C342 1.463 . S
C339 C344 1.350 . S
C339 N347 1.427 . S
C340 H331 0.930 . S
C340 C338 1.378 . S
C340 C341 1.367 . S
C341 C340 1.367 . S
C341 C343 1.433 . S
C342 C338 1.350 . S
C342 C339 1.463 . S
C342 N346 1.427 . S
C343 H333 0.929 . S
C343 C341 1.433 . S
C343 N346 1.384 . S
C344 H335 0.929 . S
C344 C336 1.378 . S
C344 C339 1.350 . S
C345 H332 0.929 . S
C345 C337 1.433 . S
C345 N347 1.384 . S
N346 C342 1.427 . S
N346 C343 1.384 . S
N347 C339 1.427 . S
N347 C345 1.384 . S
H348 C354 0.930 . S
H349 C358 0.930 . S
H350 C363 0.929 . S
H351 C361 0.929 . S
H352 C356 0.929 . S
H353 C362 0.929 . S
C354 H348 0.930 . S
C354 C355 1.367 . S
C354 C362 1.378 . S
C355 C354 1.367 . S
C355 C363 1.433 . S
C356 H352 0.929 . S
C356 C358 1.378 . S
C356 C360 1.350 . S
C357 C360 1.463 . S
C357 C362 1.350 . S
C357 N365 1.427 . S
C358 H349 0.930 . S
C358 C356 1.378 . S
C358 C359 1.367 . S
C359 C358 1.367 . S
C359 C361 1.433 . S
C360 C356 1.350 . S
C360 C357 1.463 . S
C360 N364 1.427 . S
C361 H351 0.929 . S
C361 C359 1.433 . S
C361 N364 1.384 . S
C362 H353 0.929 . S
C362 C354 1.378 . S
C362 C357 1.350 . S
C363 H350 0.929 . S
C363 C355 1.433 . S
C363 N365 1.384 . S
N364 C360 1.427 . S
N364 C361 1.384 . S
N365 C357 1.427 . S
N365 C363 1.384 . S
H366 C372 0.930 . S
H367 C376 0.930 . S
H368 C381 0.929 . S
H369 C379 0.929 . S
H370 C374 0.929 . S
H371 C380 0.929 . S
C372 H366 0.930 . S
C372 C373 1.367 . S
C372 C380 1.378 . S
C373 C372 1.367 . S
C373 C381 1.433 . S
C374 H370 0.929 . S
C374 C376 1.378 . S
C374 C378 1.350 . S
C375 C378 1.463 . S
C375 C380 1.350 . S
C375 N383 1.427 . S
C376 H367 0.930 . S
C376 C374 1.378 . S
C376 C377 1.367 . S
C377 C376 1.367 . S
C377 C379 1.433 . S
C378 C374 1.350 . S
C378 C375 1.463 . S
C378 N382 1.427 . S
C379 H369 0.929 . S
C379 C377 1.433 . S
C379 N382 1.384 . S
C380 H371 0.929 . S
C380 C372 1.378 . S
C380 C375 1.350 . S
C381 H368 0.929 . S
C381 C373 1.433 . S
C381 N383 1.384 . S
N382 C378 1.427 . S
N382 C379 1.384 . S
N383 C375 1.427 . S
N383 C381 1.384 . S
H384 C390 0.930 . S
H385 C394 0.930 . S
H386 C399 0.929 . S
H387 C397 0.929 . S
H388 C392 0.929 1_554 S
H389 C398 0.929 . S
C390 H384 0.930 . S
C390 C391 1.367 . S
C390 C398 1.378 . S
C391 C390 1.367 . S
C391 C399 1.433 1_565 S
C392 H388 0.929 1_556 S
C392 C394 1.378 . S
C392 C396 1.350 1_546 S
C393 C396 1.463 . S
C393 C398 1.350 . S
C393 N401 1.427 1_565 S
C394 H385 0.930 . S
C394 C392 1.378 . S
C394 C395 1.336 1_545 S
C395 C394 1.336 1_565 S
C395 C397 1.469 . S
C396 C392 1.350 1_564 S
C396 C393 1.463 . S
C396 N400 1.427 1_554 S
C397 H387 0.929 . S
C397 C395 1.469 . S
C397 N400 1.384 . S
C398 H389 0.929 . S
C398 C390 1.378 . S
C398 C393 1.350 . S
C399 H386 0.929 . S
C399 C391 1.433 1_545 S
C399 N401 1.384 . S
N400 C396 1.427 1_556 S
N400 C397 1.384 . S
N401 C393 1.427 1_545 S
N401 C399 1.384 . S
H402 C408 0.930 . S
H403 C412 0.930 . S
H404 C417 0.929 . S
H405 C415 0.929 . S
H406 C410 0.929 . S
H407 C416 0.929 . S
C408 H402 0.930 . S
C408 C409 1.367 . S
C408 C416 1.378 . S
C409 C408 1.367 . S
C409 C417 1.433 . S
C410 H406 0.929 . S
C410 C412 1.378 . S
C410 C414 1.350 . S
C411 C414 1.463 1_554 S
C411 C416 1.350 . S
C411 N419 1.427 . S
C412 H403 0.930 . S
C412 C410 1.378 . S
C412 C413 1.367 . S
C413 C412 1.367 . S
C413 C415 1.433 . S
C414 C410 1.350 . S
C414 C411 1.463 1_556 S
C414 N418 1.427 . S
C415 H405 0.929 . S
C415 C413 1.433 . S
C415 N418 1.384 . S
C416 H407 0.929 . S
C416 C408 1.378 . S
C416 C411 1.350 . S
C417 H404 0.929 . S
C417 C409 1.433 . S
C417 N419 1.384 . S
N418 C414 1.427 . S
N418 C415 1.384 . S
N419 C411 1.427 . S
N419 C417 1.384 . S
H420 C426 0.930 . S
H421 C430 0.930 . S
H422 C435 0.929 . S
H423 C433 0.929 . S
H424 C428 0.929 . S
H425 C434 0.929 . S
C426 H420 0.930 . S
C426 C427 1.367 . S
C426 C434 1.378 . S
C427 C426 1.367 . S
C427 C435 1.433 . S
C428 H424 0.929 . S
C428 C430 1.378 . S
C428 C432 1.350 . S
C429 C432 1.463 1_554 S
C429 C434 1.350 . S
C429 N437 1.427 . S
C430 H421 0.930 . S
C430 C428 1.378 . S
C430 C431 1.367 . S
C431 C430 1.367 . S
C431 C433 1.433 . S
C432 C428 1.350 . S
C432 C429 1.463 1_556 S
C432 N436 1.427 . S
C433 H423 0.929 . S
C433 C431 1.433 . S
C433 N436 1.384 . S
C434 H425 0.929 . S
C434 C426 1.378 . S
C434 C429 1.350 . S
C435 H422 0.929 . S
C435 C427 1.433 . S
C435 N437 1.384 . S
N436 C432 1.427 . S
N436 C433 1.384 . S
N437 C429 1.427 . S
N437 C435 1.384 . S
H438 C444 0.930 . S
H439 C448 0.930 . S
H440 C453 0.929 1_455 S
H441 C451 0.929 . S
H442 C446 0.929 1_554 S
H443 C452 0.929 . S
C444 H438 0.930 . S
C444 C445 1.367 . S
C444 C452 1.378 . S
C445 C444 1.367 . S
C445 C453 1.433 . S
C446 H442 0.929 1_556 S
C446 C448 1.378 . S
C446 C450 1.350 1_455 S
C447 C450 1.463 1_554 S
C447 C452 1.350 . S
C447 N455 1.427 1_655 S
C448 H439 0.930 . S
C448 C446 1.378 . S
C448 C449 1.367 1_455 S
C449 C448 1.367 1_655 S
C449 C451 1.433 . S
C450 C446 1.350 1_655 S
C450 C447 1.463 1_556 S
C450 N454 1.427 . S
C451 H441 0.929 . S
C451 C449 1.433 . S
C451 N454 1.384 . S
C452 H443 0.929 . S
C452 C444 1.378 . S
C452 C447 1.350 . S
C453 H440 0.929 1_655 S
C453 C445 1.433 . S
C453 N455 1.384 1_655 S
N454 C450 1.427 . S
N454 C451 1.384 . S
N455 C447 1.427 1_455 S
N455 C453 1.384 1_455 S
H456 C462 0.930 . S
H457 C466 0.930 . S
H458 C471 0.929 . S
H459 C469 0.929 . S
H460 C464 0.929 . S
H461 C470 0.929 . S
C462 H456 0.930 . S
C462 C463 1.367 . S
C462 C470 1.378 . S
C463 C462 1.367 . S
C463 C471 1.433 . S
C464 H460 0.929 . S
C464 C466 1.378 . S
C464 C468 1.350 . S
C465 C468 1.463 . S
C465 C470 1.350 . S
C465 N473 1.427 . S
C466 H457 0.930 . S
C466 C464 1.378 . S
C466 C467 1.367 . S
C467 C466 1.367 . S
C467 C469 1.433 . S
C468 C464 1.350 . S
C468 C465 1.463 . S
C468 N472 1.427 . S
C469 H459 0.929 . S
C469 C467 1.433 . S
C469 N472 1.384 . S
C470 H461 0.929 . S
C470 C462 1.378 . S
C470 C465 1.350 . S
C471 H458 0.929 . S
C471 C463 1.433 . S
C471 N473 1.384 . S
N472 C468 1.427 . S
N472 C469 1.384 . S
N473 C465 1.427 . S
N473 C471 1.384 . S
H474 C480 0.930 . S
H475 C484 0.930 . S
H476 C489 0.929 . S
H477 C487 0.929 . S
H478 C482 0.929 . S
H479 C488 0.929 . S
C480 H474 0.930 . S
C480 C481 1.367 . S
C480 C488 1.378 . S
C481 C480 1.367 . S
C481 C489 1.433 . S
C482 H478 0.929 . S
C482 C484 1.378 . S
C482 C486 1.350 . S
C483 C486 1.463 . S
C483 C488 1.350 . S
C483 N491 1.427 . S
C484 H475 0.930 . S
C484 C482 1.378 . S
C484 C485 1.359 1_545 S
C485 C484 1.359 1_565 S
C485 C487 1.436 . S
C486 C482 1.350 . S
C486 C483 1.463 . S
C486 N490 1.427 . S
C487 H477 0.929 . S
C487 C485 1.436 . S
C487 N490 1.384 1_565 S
C488 H479 0.929 . S
C488 C480 1.378 . S
C488 C483 1.350 . S
C489 H476 0.929 . S
C489 C481 1.433 . S
C489 N491 1.384 . S
N490 C486 1.427 . S
N490 C487 1.384 1_545 S
N491 C483 1.427 . S
N491 C489 1.384 . S
H492 C498 0.930 . S
H493 C502 0.930 . S
H494 C507 0.929 . S
H495 C505 0.929 . S
H496 C500 0.929 . S
H497 C506 0.929 . S
C498 H492 0.930 . S
C498 C499 1.367 . S
C498 C506 1.378 . S
C499 C498 1.367 . S
C499 C507 1.433 . S
C500 H496 0.929 . S
C500 C502 1.378 . S
C500 C504 1.350 . S
C501 C504 1.463 . S
C501 C506 1.350 . S
C501 N509 1.427 . S
C502 H493 0.930 . S
C502 C500 1.378 . S
C502 C503 1.367 . S
C503 C502 1.367 . S
C503 C505 1.433 . S
C504 C500 1.350 . S
C504 C501 1.463 . S
C504 N508 1.427 . S
C505 H495 0.929 . S
C505 C503 1.433 . S
C505 N508 1.384 . S
C506 H497 0.929 . S
C506 C498 1.378 . S
C506 C501 1.350 . S
C507 H494 0.929 . S
C507 C499 1.433 . S
C507 N509 1.384 . S
N508 C504 1.427 . S
N508 C505 1.384 . S
N509 C501 1.427 . S
N509 C507 1.384 . S
H510 C516 0.930 . S
H511 C520 0.930 . S
H512 C525 0.929 . S
H513 C523 0.929 . S
H514 C518 0.929 . S
H515 C524 0.929 . S
C516 H510 0.930 . S
C516 C517 1.367 . S
C516 C524 1.378 . S
C517 C516 1.367 . S
C517 C525 1.433 . S
C518 H514 0.929 . S
C518 C520 1.378 . S
C518 C522 1.350 . S
C519 C522 1.463 . S
C519 C524 1.350 . S
C519 N527 1.427 . S
C520 H511 0.930 . S
C520 C518 1.378 . S
C520 C521 1.367 . S
C521 C520 1.367 . S
C521 C523 1.433 . S
C522 C518 1.350 . S
C522 C519 1.463 . S
C522 N526 1.427 . S
C523 H513 0.929 . S
C523 C521 1.433 . S
C523 N526 1.384 . S
C524 H515 0.929 . S
C524 C516 1.378 . S
C524 C519 1.350 . S
C525 H512 0.929 . S
C525 C517 1.433 . S
C525 N527 1.384 . S
N526 C522 1.427 . S
N526 C523 1.384 . S
N527 C519 1.427 . S
N527 C525 1.384 . S
H528 C534 0.930 1_455 S
H529 C538 0.930 . S
H530 C543 0.929 . S
H531 C541 0.929 . S
H532 C536 0.929 . S
H533 C542 0.963 . S
C534 H528 0.930 1_655 S
C534 C535 1.367 . S
C534 C542 1.367 1_655 S
C535 C534 1.367 . S
C535 C543 1.433 . S
C536 H532 0.929 . S
C536 C538 1.378 . S
C536 C540 1.350 . S
C537 C540 1.463 . S
C537 C542 1.327 1_655 S
C537 N545 1.427 . S
C538 H529 0.930 . S
C538 C536 1.378 . S
C538 C539 1.367 1_655 S
C539 C538 1.367 1_455 S
C539 C541 1.433 . S
C540 C536 1.350 . S
C540 C537 1.463 . S
C540 N544 1.427 1_655 S
C541 H531 0.929 . S
C541 C539 1.433 . S
C541 N544 1.384 . S
C542 H533 0.963 . S
C542 C534 1.367 1_455 S
C542 C537 1.327 1_455 S
C543 H530 0.929 . S
C543 C535 1.433 . S
C543 N545 1.384 . S
N544 C540 1.427 1_455 S
N544 C541 1.384 . S
N545 C537 1.427 . S
N545 C543 1.384 . S
H546 C552 0.930 . S
H547 C556 0.930 1_556 S
H548 C561 0.929 . S
H549 C559 0.929 . S
H550 C554 0.929 . S
H551 C560 0.929 . S
C552 H546 0.930 . S
C552 C553 1.367 1_545 S
C552 C560 1.378 . S
C553 C552 1.367 1_565 S
C553 C561 1.433 . S
C554 H550 0.929 . S
C554 C556 1.378 . S
C554 C558 1.350 1_565 S
C555 C558 1.463 1_565 S
C555 C560 1.350 1_565 S
C555 N563 1.427 . S
C556 H547 0.930 1_554 S
C556 C554 1.378 . S
C556 C557 1.367 1_565 S
C557 C556 1.367 1_545 S
C557 C559 1.433 . S
C558 C554 1.350 1_545 S
C558 C555 1.463 1_545 S
C558 N562 1.427 . S
C559 H549 0.929 . S
C559 C557 1.433 . S
C559 N562 1.384 . S
C560 H551 0.929 . S
C560 C552 1.378 . S
C560 C555 1.350 1_545 S
C561 H548 0.929 . S
C561 C553 1.433 . S
C561 N563 1.384 . S
N562 C558 1.427 . S
N562 C559 1.384 . S
N563 C555 1.427 . S
N563 C561 1.384 . S
H564 C570 0.930 . S
H565 C574 0.930 . S
H566 C579 0.929 . S
H567 C577 0.929 . S
H568 C572 0.929 1_556 S
H569 C578 0.929 . S
C570 H564 0.930 . S
C570 C571 1.367 . S
C570 C578 1.378 . S
C571 C570 1.367 . S
C571 C579 1.433 . S
C572 H568 0.929 1_554 S
C572 C574 1.378 1_554 S
C572 C576 1.350 . S
C573 C576 1.463 . S
C573 C578 1.350 . S
C573 N581 1.427 . S
C574 H565 0.930 . S
C574 C572 1.378 1_556 S
C574 C575 1.367 . S
C575 C574 1.367 . S
C575 C577 1.433 1_556 S
C576 C572 1.350 . S
C576 C573 1.463 . S
C576 N580 1.427 . S
C577 H567 0.929 . S
C577 C575 1.433 1_554 S
C577 N580 1.384 . S
C578 H569 0.929 . S
C578 C570 1.378 . S
C578 C573 1.350 . S
C579 H566 0.929 . S
C579 C571 1.433 . S
C579 N581 1.384 . S
N580 C576 1.427 . S
N580 C577 1.384 . S
N581 C573 1.427 . S
N581 C579 1.384 . S
H582 C588 0.930 . S
H583 C592 0.930 . S
H584 C597 0.929 . S
H585 C595 0.929 . S
H586 C590 0.929 . S
H587 C596 0.929 . S
C588 H582 0.930 . S
C588 C589 1.367 . S
C588 C596 1.378 . S
C589 C588 1.367 . S
C589 C597 1.433 . S
C590 H586 0.929 . S
C590 C592 1.378 . S
C590 C594 1.350 . S
C591 C594 1.463 . S
C591 C596 1.350 . S
C591 N599 1.427 . S
C592 H583 0.930 . S
C592 C590 1.378 . S
C592 C593 1.367 . S
C593 C592 1.367 . S
C593 C595 1.433 . S
C594 C590 1.350 . S
C594 C591 1.463 . S
C594 N598 1.427 . S
C595 H585 0.929 . S
C595 C593 1.433 . S
C595 N598 1.384 . S
C596 H587 0.929 . S
C596 C588 1.378 . S
C596 C591 1.350 . S
C597 H584 0.929 . S
C597 C589 1.433 . S
C597 N599 1.384 . S
N598 C594 1.427 . S
N598 C595 1.384 . S
N599 C591 1.427 . S
N599 C597 1.384 . S
H600 C606 0.930 . S
H601 C610 0.930 . S
H602 C615 0.929 . S
H603 C613 0.929 . S
H604 C608 0.929 . S
H605 C614 0.929 . S
C606 H600 0.930 . S
C606 C607 1.367 . S
C606 C614 1.378 . S
C607 C606 1.367 . S
C607 C615 1.433 . S
C608 H604 0.929 . S
C608 C610 1.378 . S
C608 C612 1.350 . S
C609 C612 1.463 . S
C609 C614 1.350 . S
C609 N617 1.427 . S
C610 H601 0.930 . S
C610 C608 1.378 . S
C610 C611 1.367 . S
C611 C610 1.367 . S
C611 C613 1.433 . S
C612 C608 1.350 . S
C612 C609 1.463 . S
C612 N616 1.427 . S
C613 H603 0.929 . S
C613 C611 1.433 . S
C613 N616 1.384 . S
C614 H605 0.929 . S
C614 C606 1.378 . S
C614 C609 1.350 . S
C615 H602 0.929 . S
C615 C607 1.433 . S
C615 N617 1.384 . S
N616 C612 1.427 . S
N616 C613 1.384 . S
N617 C609 1.427 . S
N617 C615 1.384 . S
H618 C624 0.930 . S
H619 C628 0.930 . S
H620 C633 0.929 . S
H621 C631 0.929 1_565 S
H622 C626 0.929 . S
H623 C632 0.929 1_565 S
C624 H618 0.930 . S
C624 C625 1.367 . S
C624 C632 1.378 . S
C625 C624 1.367 . S
C625 C633 1.433 . S
C626 H622 0.929 . S
C626 C628 1.378 . S
C626 C630 1.350 . S
C627 C630 1.463 . S
C627 C632 1.350 . S
C627 N635 1.427 . S
C628 H619 0.930 . S
C628 C626 1.378 . S
C628 C629 1.367 . S
C629 C628 1.367 . S
C629 C631 1.433 . S
C630 C626 1.350 . S
C630 C627 1.463 . S
C630 N634 1.427 . S
C631 H621 0.929 1_545 S
C631 C629 1.433 . S
C631 N634 1.384 . S
C632 H623 0.929 1_545 S
C632 C624 1.378 . S
C632 C627 1.350 . S
C633 H620 0.929 . S
C633 C625 1.433 . S
C633 N635 1.384 . S
N634 C630 1.427 . S
N634 C631 1.384 . S
N635 C627 1.427 . S
N635 C633 1.384 . S
H636 C642 0.930 . S
H637 C646 0.930 . S
H638 C651 0.929 . S
H639 C649 0.929 . S
H640 C644 0.929 . S
H641 C650 0.929 . S
C642 H636 0.930 . S
C642 C643 1.367 . S
C642 C650 1.378 . S
C643 C642 1.367 . S
C643 C651 1.433 . S
C644 H640 0.929 . S
C644 C646 1.378 . S
C644 C648 1.350 . S
C645 C648 1.463 . S
C645 C650 1.350 . S
C645 N653 1.427 . S
C646 H637 0.930 . S
C646 C644 1.378 . S
C646 C647 1.367 . S
C647 C646 1.367 . S
C647 C649 1.433 . S
C648 C644 1.350 . S
C648 C645 1.463 . S
C648 N652 1.427 . S
C649 H639 0.929 . S
C649 C647 1.433 . S
C649 N652 1.384 . S
C650 H641 0.929 . S
C650 C642 1.378 . S
C650 C645 1.350 . S
C651 H638 0.929 . S
C651 C643 1.433 . S
C651 N653 1.384 . S
N652 C648 1.427 . S
N652 C649 1.384 . S
N653 C645 1.427 . S
N653 C651 1.384 . S
H654 C660 0.930 . S
H655 C664 0.930 . S
H656 C669 0.929 . S
H657 C667 0.929 . S
H658 C662 0.929 . S
H659 C668 0.929 . S
C660 H654 0.930 . S
C660 C661 1.367 . S
C660 C668 1.378 . S
C661 C660 1.367 . S
C661 C669 1.433 . S
C662 H658 0.929 . S
C662 C664 1.378 . S
C662 C666 1.350 . S
C663 C666 1.463 . S
C663 C668 1.350 . S
C663 N671 1.427 . S
C664 H655 0.930 . S
C664 C662 1.378 . S
C664 C665 1.367 . S
C665 C664 1.367 . S
C665 C667 1.433 . S
C666 C662 1.350 . S
C666 C663 1.463 . S
C666 N670 1.427 . S
C667 H657 0.929 . S
C667 C665 1.433 . S
C667 N670 1.384 . S
C668 H659 0.929 . S
C668 C660 1.378 . S
C668 C663 1.350 . S
C669 H656 0.929 . S
C669 C661 1.433 . S
C669 N671 1.384 . S
N670 C666 1.427 . S
N670 C667 1.384 . S
N671 C663 1.427 . S
N671 C669 1.384 . S
H672 C678 0.930 . S
H673 C682 0.930 . S
H674 C687 0.929 . S
H675 C685 0.944 . S
H676 C680 0.929 . S
H677 C686 0.929 . S
C678 H672 0.930 . S
C678 C679 1.367 . S
C678 C686 1.378 . S
C679 C678 1.367 . S
C679 C687 1.433 . S
C680 H676 0.929 . S
C680 C682 1.378 . S
C680 C684 1.350 . S
C681 C684 1.463 . S
C681 C686 1.350 . S
C681 N689 1.427 . S
C682 H673 0.930 . S
C682 C680 1.378 . S
C682 C683 1.367 . S
C683 C682 1.367 . S
C683 C685 1.424 1_655 S
C684 C680 1.350 . S
C684 C681 1.463 . S
C684 N688 1.427 . S
C685 H675 0.944 . S
C685 C683 1.424 1_455 S
C685 N688 1.379 1_455 S
C686 H677 0.929 . S
C686 C678 1.378 . S
C686 C681 1.350 . S
C687 H674 0.929 . S
C687 C679 1.433 . S
C687 N689 1.384 . S
N688 C684 1.427 . S
N688 C685 1.379 1_655 S
N689 C681 1.427 . S
N689 C687 1.384 . S
H690 C696 0.930 . S
H691 C700 0.930 . S
H692 C705 0.929 . S
H693 C703 0.929 . S
H694 C698 0.929 . S
H695 C704 0.929 . S
C696 H690 0.930 . S
C696 C697 1.367 . S
C696 C704 1.378 . S
C697 C696 1.367 . S
C697 C705 1.433 1_565 S
C698 H694 0.929 . S
C698 C700 1.378 . S
C698 C702 1.350 1_545 S
C699 C702 1.463 . S
C699 C704 1.350 . S
C699 N707 1.427 1_565 S
C700 H691 0.930 . S
C700 C698 1.378 . S
C700 C701 1.367 1_545 S
C701 C700 1.367 1_565 S
C701 C703 1.433 . S
C702 C698 1.350 1_565 S
C702 C699 1.463 . S
C702 N706 1.427 . S
C703 H693 0.929 . S
C703 C701 1.433 . S
C703 N706 1.384 . S
C704 H695 0.929 . S
C704 C696 1.378 . S
C704 C699 1.350 . S
C705 H692 0.929 . S
C705 C697 1.433 1_545 S
C705 N707 1.384 . S
N706 C702 1.427 . S
N706 C703 1.384 . S
N707 C699 1.427 1_545 S
N707 C705 1.384 . S
H708 C714 0.930 . S
H709 C718 0.930 . S
H710 C723 0.929 . S
H711 C721 0.929 . S
H712 C716 0.929 . S
H713 C722 0.929 . S
C714 H708 0.930 . S
C714 C715 1.367 . S
C714 C722 1.378 . S
C715 C714 1.367 . S
C715 C723 1.433 . S
C716 H712 0.929 . S
C716 C718 1.378 . S
C716 C720 1.350 . S
C717 C720 1.463 . S
C717 C722 1.350 . S
C717 N725 1.427 . S
C718 H709 0.930 . S
C718 C716 1.378 . S
C718 C719 1.367 . S
C719 C718 1.367 . S
C719 C721 1.433 . S
C720 C716 1.350 . S
C720 C717 1.463 . S
C720 N724 1.427 . S
C721 H711 0.929 . S
C721 C719 1.433 . S
C721 N724 1.384 . S
C722 H713 0.929 . S
C722 C714 1.378 . S
C722 C717 1.350 . S
C723 H710 0.929 . S
C723 C715 1.433 . S
C723 N725 1.384 . S
N724 C720 1.427 . S
N724 C721 1.384 . S
N725 C717 1.427 . S
N725 C723 1.384 . S
H726 C732 0.930 . S
H727 C736 0.930 . S
H728 C741 0.929 . S
H729 C739 0.929 . S
H730 C734 0.929 . S
H731 C740 0.929 . S
C732 H726 0.930 . S
C732 C733 1.367 . S
C732 C740 1.378 . S
C733 C732 1.367 . S
C733 C741 1.433 . S
C734 H730 0.929 . S
C734 C736 1.378 . S
C734 C738 1.350 . S
C735 C738 1.463 . S
C735 C740 1.350 . S
C735 N743 1.427 . S
C736 H727 0.930 . S
C736 C734 1.378 . S
C736 C737 1.367 . S
C737 C736 1.367 . S
C737 C739 1.433 . S
C738 C734 1.350 . S
C738 C735 1.463 . S
C738 N742 1.427 . S
C739 H729 0.929 . S
C739 C737 1.433 . S
C739 N742 1.384 . S
C740 H731 0.929 . S
C740 C732 1.378 . S
C740 C735 1.350 . S
C741 H728 0.929 . S
C741 C733 1.433 . S
C741 N743 1.384 . S
N742 C738 1.427 . S
N742 C739 1.384 . S
N743 C735 1.427 . S
N743 C741 1.384 . S
C319 C125 2.259 . S
C323 C183 2.329 . S
C341 C209 1.871 . S
C337 C144 1.851 . S
C359 C249 1.950 . S
C355 C87 1.864 . S
C377 C303 2.379 . S
C373 C106 2.289 . S
C395 C164 2.324 1_565 S
C391 C49 2.313 . S
C409 C68 1.806 . S
C413 C194 1.870 . S
C427 C11 1.925 . S
C431 C234 1.948 . S
C445 C30 2.364 . S
C449 C284 2.381 1_655 S
C467 C160 0.618 . S
C463 C97 0.646 . S
C485 C221 0.712 . S
C481 C116 0.697 . S
C503 C261 0.585 . S
C499 C135 0.611 . S
C517 C78 0.544 . S
C521 C280 0.493 . S
C535 C21 0.622 . S
C539 C181 0.603 . S
C557 C200 0.699 1_554 S
C553 C40 0.698 . S
C575 C240 0.596 . S
C571 C59 0.588 . S
C589 C2 0.567 . S
C593 C301 0.509 . S
C607 C101 1.947 . S
C611 C154 2.148 . S
C625 C120 2.404 . S
C629 C204 2.608 . S
C647 C244 2.372 . S
C643 C139 2.199 . S
C665 C274 1.889 . S
C661 C82 1.719 . S
C679 C25 1.951 . S
C683 C169 2.147 . S
C701 C223 2.605 . S
C697 C44 2.412 . S
C719 C263 2.370 . S
C715 C63 2.200 . S
C733 C6 1.717 . S
C737 C289 1.890 . S
