# Generated by pormake.
# Topology dag, (6,3)-cn, num edge types: 1
# Building blocks:
#     Node 0, Type 0, BuildingBlock: MIDCAF_clean_sbu_0, # of connection points: 6
#     Node 1, Type 0, BuildingBlock: MIDCAF_clean_sbu_0, # of connection points: 6
#     Node 2, Type 0, BuildingBlock: MIDCAF_clean_sbu_0, # of connection points: 6
#     Node 3, Type 0, BuildingBlock: MIDCAF_clean_sbu_0, # of connection points: 6
#     Node 4, Type 1, BuildingBlock: VETTIZ_charged_linker_0, # of connection points: 3
#     Node 5, Type 1, BuildingBlock: VETTIZ_charged_linker_0, # of connection points: 3
#     Node 6, Type 1, BuildingBlock: VETTIZ_charged_linker_0, # of connection points: 3
#     Node 7, Type 1, BuildingBlock: VETTIZ_charged_linker_0, # of connection points: 3
#     Node 8, Type 1, BuildingBlock: VETTIZ_charged_linker_0, # of connection points: 3
#     Node 9, Type 1, BuildingBlock: VETTIZ_charged_linker_0, # of connection points: 3
#     Node 10, Type 1, BuildingBlock: VETTIZ_charged_linker_0, # of connection points: 3
#     Node 11, Type 1, BuildingBlock: VETTIZ_charged_linker_0, # of connection points: 3
#     Edge 12, Type (0, 1), None
#     Edge 13, Type (0, 1), None
#     Edge 14, Type (0, 1), None
#     Edge 15, Type (0, 1), None
#     Edge 16, Type (0, 1), None
#     Edge 17, Type (0, 1), None
#     Edge 18, Type (0, 1), None
#     Edge 19, Type (0, 1), None
#     Edge 20, Type (0, 1), None
#     Edge 21, Type (0, 1), None
#     Edge 22, Type (0, 1), None
#     Edge 23, Type (0, 1), None
#     Edge 24, Type (0, 1), None
#     Edge 25, Type (0, 1), None
#     Edge 26, Type (0, 1), None
#     Edge 27, Type (0, 1), None
#     Edge 28, Type (0, 1), None
#     Edge 29, Type (0, 1), None
#     Edge 30, Type (0, 1), None
#     Edge 31, Type (0, 1), None
#     Edge 32, Type (0, 1), None
#     Edge 33, Type (0, 1), None
#     Edge 34, Type (0, 1), None
#     Edge 35, Type (0, 1), None
# Relax obj value: 0.317
# Max RMSD: 0.191
# Mean RMSD: 0.180
data_MOF--net-dag--node1-MIDCAF_clean_sbu_0--node2-VETTIZ_charged_linker_0--edge1-none
_symmetry_space_group_name_H-M    P1
_symmetry_Int_Tables_number       1
_symmetry_cell_setting            triclinic
loop_
_symmetry_equiv_pos_as_xyz
'x, y, z'
_cell_length_a     26.896949
_cell_length_b     26.622059
_cell_length_c     20.753
_cell_angle_alpha  90.287994
_cell_angle_beta   89.959714
_cell_angle_gamma 90.033019
loop_
_atom_site_label
_atom_site_type_symbol
_atom_site_fract_x
_atom_site_fract_y
_atom_site_fract_z
_atom_type_partial_charge
Zn0 Zn 0.162 0.77995 0.15733 0.0
Zn1 Zn 0.20209 0.82671 0.81847 0.0
Zn2 Zn 0.1613 0.83573 0.99597 0.0
C3 C 0.16799 0.9273 0.88356 0.0
C4 C 0.12008 0.77112 0.86899 0.0
O5 O 0.21279 0.77688 0.0395 0.0
O6 O 0.15395 0.73153 0.08059 0.0
C7 C 0.22941 0.85503 0.11607 0.0
O8 O 0.16163 0.90705 0.93946 0.0
O9 O 0.18145 0.90165 0.83415 0.0
O10 O 0.14474 0.77352 0.81678 0.0
O11 O 0.13572 0.79572 0.91739 0.0
O12 O 0.22243 0.83054 0.16758 0.0
O13 O 0.22197 0.83022 0.06332 0.0
O14 O 0.09594 0.83965 0.05803 0.0
O15 O 0.09515 0.81262 0.15985 0.0
C16 C 0.07377 0.83301 0.11208 0.0
O17 O 0.2373 0.8059 0.99688 0.0
O18 O 0.22812 0.84263 0.90606 0.0
C19 C 0.1989 0.73495 0.06528 0.0
C20 C 0.25271 0.81227 0.9389 0.0
Zn21 Zn 0.66169 0.71781 0.34005 0.0
Zn22 Zn 0.70045 0.67034 0.67683 0.0
Zn23 Zn 0.66176 0.66127 0.50109 0.0
C24 C 0.66814 0.5694 0.61279 0.0
C25 C 0.6184 0.72739 0.6248 0.0
O26 O 0.71286 0.72076 0.45778 0.0
O27 O 0.65389 0.76605 0.41703 0.0
C28 C 0.72933 0.64304 0.38034 0.0
O29 O 0.66256 0.58956 0.55671 0.0
O30 O 0.68032 0.59527 0.66253 0.0
O31 O 0.64335 0.72362 0.67664 0.0
O32 O 0.63239 0.7028 0.57554 0.0
O33 O 0.72241 0.66767 0.32895 0.0
O34 O 0.72182 0.66775 0.43314 0.0
O35 O 0.5959 0.65763 0.43967 0.0
O36 O 0.59478 0.685 0.33803 0.0
C37 C 0.5735 0.66452 0.38587 0.0
O38 O 0.73754 0.6918 0.50014 0.0
O39 O 0.72835 0.65451 0.59043 0.0
C40 C 0.69885 0.76275 0.43226 0.0
C41 C 0.75297 0.68513 0.55799 0.0
Zn42 Zn 0.77695 0.17254 0.81591 0.0
Zn43 Zn 0.82372 0.22466 0.14836 0.0
Zn44 Zn 0.82809 0.16334 -0.00158 0.0
C45 C 0.91542 0.17685 0.11747 0.0
C46 C 0.75549 0.14264 0.1125 0.0
O47 O 0.74958 0.18949 0.99557 0.0
O48 O 0.75429 0.15154 0.90385 0.0
C49 C 0.8604 0.22414 0.86364 0.0
O50 O 0.89598 0.16414 0.06269 0.0
O51 O 0.8906 0.1996 0.16057 0.0
O52 O 0.77424 0.16516 0.16061 0.0
O53 O 0.76108 0.16324 0.057 0.0
O54 O 0.83428 0.22487 0.81264 0.0
O55 O 0.84365 0.20037 0.91202 0.0
O56 O 0.83154 0.09606 0.93489 0.0
O57 O 0.80287 0.09996 0.83271 0.0
C58 C 0.82286 0.07583 0.87914 0.0
O59 O 0.77424 0.22026 0.03631 0.0
O60 O 0.83916 0.2624 0.0638 0.0
C61 C 0.73155 0.18243 0.93868 0.0
C62 C 0.79316 0.26217 0.05515 0.0
Zn63 Zn 0.2799 0.32524 0.68051 0.0
Zn64 Zn 0.3227 0.27243 0.34822 0.0
Zn65 Zn 0.32792 0.33508 0.49758 0.0
C66 C 0.41416 0.3218 0.37733 0.0
C67 C 0.25445 0.35413 0.38389 0.0
O68 O 0.24953 0.30856 0.5016 0.0
O69 O 0.25591 0.34593 0.5934 0.0
C70 C 0.36281 0.27293 0.63039 0.0
O71 O 0.39502 0.33472 0.43219 0.0
O72 O 0.38928 0.29836 0.33492 0.0
O73 O 0.27215 0.33101 0.33555 0.0
O74 O 0.2607 0.3338 0.43946 0.0
O75 O 0.33698 0.27273 0.68171 0.0
O76 O 0.34644 0.29702 0.58209 0.0
O77 O 0.33162 0.40284 0.5604 0.0
O78 O 0.30506 0.39816 0.66354 0.0
C79 C 0.32379 0.42276 0.61657 0.0
O80 O 0.27402 0.27751 0.4608 0.0
O81 O 0.33885 0.23537 0.43312 0.0
C82 C 0.23236 0.3154 0.559 0.0
C83 C 0.29287 0.23553 0.44213 0.0
C84 C 0.24001 0.94031 0.16683 0.0
C85 C 0.21649 0.90881 0.12118 0.0
C86 C 0.17389 0.9263 0.08998 0.0
C87 C 0.17462 0.00219 0.15345 0.0
C88 C 0.21897 0.98756 0.18105 0.0
C89 C 0.23719 0.02591 0.22952 0.0
H90 H 0.20073 0.24823 0.38572 0.0
C91 C 0.15924 0.05018 0.18254 0.0
C92 C 0.19561 0.06488 0.22694 0.0
H93 H 0.32105 0.14203 0.4084 0.0
H94 H 0.28389 0.0871 0.32985 0.0
H95 H 0.1956 0.2389 0.23066 0.0
H96 H 0.11159 0.16399 0.37927 0.0
H97 H 0.0703 0.18341 0.31871 0.0
H98 H 0.10503 0.22986 0.36314 0.0
H99 H 0.15019 0.27125 0.2788 0.0
H100 H 0.13282 0.23699 0.20701 0.0
C101 C 0.28693 0.04746 0.20428 0.0
C102 C 0.24092 0.00044 0.29637 0.0
C103 C 0.9932 0.124 0.11628 0.0
C104 C 0.96841 0.16835 0.13321 0.0
C105 C 0.99292 0.20362 0.17341 0.0
C106 C 0.04016 0.19393 0.19874 0.0
C107 C 0.06324 0.14805 0.1847 0.0
C108 C 0.04023 0.11455 0.14315 0.0
C109 C 0.07207 0.06947 0.13027 0.0
C110 C 0.11623 0.07985 0.17328 0.0
C111 C 0.11108 0.12592 0.2054 0.0
C112 C 0.08714 0.07182 0.05893 0.0
C113 C 0.04283 0.02181 0.15022 0.0
C114 C 0.21833 0.2126 0.37485 0.0
C115 C 0.26369 0.19927 0.40362 0.0
C116 C 0.2859 0.15295 0.38715 0.0
C117 C 0.26452 0.1212 0.34115 0.0
C118 C 0.22008 0.13552 0.31133 0.0
C119 C 0.19735 0.18024 0.32865 0.0
C120 C 0.15018 0.18894 0.29142 0.0
C121 C 0.148 0.14163 0.25014 0.0
C122 C 0.18961 0.11085 0.26141 0.0
C123 C 0.15704 0.23667 0.24995 0.0
C124 C 0.10676 0.19208 0.34025 0.0
H125 H 0.1167 0.97919 0.08535 0.0
H126 H 0.27273 0.92769 0.19247 0.0
H127 H 0.21419 0.96872 0.30062 0.0
H128 H 0.23093 0.02605 0.33642 0.0
H129 H 0.27879 0.9852 0.30479 0.0
H130 H 0.28423 0.05598 0.15195 0.0
H131 H 0.31761 0.02002 0.21075 0.0
H132 H 0.29746 0.08319 0.22775 0.0
H133 H 0.976 0.09667 0.08462 0.0
H134 H 0.97492 0.23862 0.18652 0.0
H135 H 0.05644 0.22215 0.22921 0.0
H136 H 0.0978 0.11086 0.04699 0.0
H137 H 0.05545 0.05966 0.02855 0.0
H138 H 0.12077 0.05055 0.046 0.0
H139 H 0.01765 0.02982 0.19157 0.0
H140 H 0.06709 0.99114 0.16727 0.0
H141 H 0.01963 0.00781 0.10974 0.0
H142 H 0.15506 0.90357 0.05561 0.0
C143 C 0.15186 0.97148 0.1072 0.0
C144 C 0.31249 0.50682 0.67268 0.0
C145 C 0.33859 0.47555 0.62888 0.0
C146 C 0.38111 0.49439 0.59863 0.0
C147 C 0.36945 0.5754 0.65016 0.0
C148 C 0.32906 0.55651 0.68327 0.0
C149 C 0.30907 0.59431 0.73164 0.0
H150 H 0.34059 0.82199 0.88135 0.0
C151 C 0.37998 0.62646 0.67475 0.0
C152 C 0.34578 0.63766 0.72397 0.0
H153 H 0.22158 0.71654 0.91279 0.0
H154 H 0.25739 0.65944 0.83341 0.0
H155 H 0.42441 0.74855 0.88397 0.0
H156 H 0.34648 0.81088 0.72291 0.0
H157 H 0.41175 0.81685 0.71241 0.0
H158 H 0.38272 0.84503 0.78129 0.0
H159 H 0.44736 0.80314 0.84395 0.0
H160 H 0.46551 0.74061 0.81886 0.0
C161 C 0.31151 0.5707 0.79944 0.0
C162 C 0.25609 0.60945 0.71069 0.0
C163 C 0.53191 0.71538 0.59142 0.0
C164 C 0.56601 0.7435 0.62785 0.0
C165 C 0.54833 0.77316 0.67924 0.0
C166 C 0.49863 0.76895 0.69932 0.0
C167 C 0.46801 0.73217 0.6706 0.0
C168 C 0.48513 0.70595 0.6175 0.0
C169 C 0.45726 0.65772 0.60686 0.0
C170 C 0.41823 0.661 0.65924 0.0
C171 C 0.42379 0.70534 0.695 0.0
C172 C 0.49402 0.61314 0.61755 0.0
C173 C 0.43352 0.65953 0.53925 0.0
C174 C 0.32319 0.7859 0.87232 0.0
C175 C 0.27954 0.77267 0.9043 0.0
C176 C 0.25659 0.72628 0.89022 0.0
C177 C 0.27702 0.69366 0.84359 0.0
C178 C 0.3209 0.70767 0.8113 0.0
C179 C 0.34314 0.7532 0.82637 0.0
C180 C 0.3894 0.76269 0.78835 0.0
C181 C 0.39014 0.71666 0.7453 0.0
C182 C 0.35051 0.68378 0.75912 0.0
C183 C 0.43405 0.7641 0.83587 0.0
C184 C 0.38254 0.81155 0.74914 0.0
H185 H 0.42594 0.55686 0.5781 0.0
H186 H 0.28043 0.49277 0.69854 0.0
H187 H 0.25481 0.61621 0.65784 0.0
H188 H 0.24347 0.64473 0.73348 0.0
H189 H 0.22896 0.57924 0.7219 0.0
H190 H 0.34734 0.55054 0.80613 0.0
H191 H 0.28087 0.54324 0.80635 0.0
H192 H 0.30989 0.59876 0.83856 0.0
H193 H 0.54448 0.69158 0.55214 0.0
H194 H 0.57379 0.79605 0.70723 0.0
H195 H 0.48742 0.79114 0.73994 0.0
H196 H 0.52895 0.62476 0.64214 0.0
H197 H 0.50493 0.59541 0.57106 0.0
H198 H 0.47875 0.5843 0.65037 0.0
H199 H 0.41014 0.69374 0.53415 0.0
H200 H 0.40919 0.62704 0.52934 0.0
H201 H 0.46274 0.66112 0.50171 0.0
H202 H 0.40364 0.46997 0.56865 0.0
C203 C 0.39522 0.54451 0.60646 0.0
C204 C 0.71797 0.83359 0.35817 0.0
C205 C 0.73426 0.79043 0.391 0.0
C206 C 0.78168 0.77074 0.37689 0.0
C207 C 0.79407 0.83478 0.29584 0.0
C208 C 0.74824 0.855 0.31088 0.0
C209 C 0.73694 0.90148 0.27241 0.0
H210 H 0.82445 0.07945 0.06816 0.0
C211 C 0.81669 0.86619 0.24547 0.0
C212 C 0.78363 0.90573 0.23171 0.0
H213 H 0.68742 0.08372 0.17565 0.0
H214 H 0.70062 0.99747 0.21076 0.0
H215 H 0.88247 0.03727 0.18866 0.0
H216 H 0.8272 0.97766 0.01315 0.0
H217 H 0.86932 0.93019 0.03686 0.0
H218 H 0.89181 0.99264 0.02267 0.0
H219 H 0.90547 0.04898 0.10901 0.0
H220 H 0.92874 0.99768 0.15634 0.0
C221 C 0.731 0.94608 0.31998 0.0
C222 C 0.69052 0.89135 0.23042 0.0
C223 C 0.99029 0.82559 0.16318 0.0
C224 C 0.02257 0.85087 0.12093 0.0
C225 C 0.00626 0.89465 0.08999 0.0
C226 C 0.95848 0.91335 0.10147 0.0
C227 C 0.92684 0.88833 0.14471 0.0
C228 C 0.94263 0.84484 0.17418 0.0
C229 C 0.90437 0.82418 0.22002 0.0
C230 C 0.86328 0.86303 0.21359 0.0
C231 C 0.87663 0.89997 0.16916 0.0
C232 C 0.92708 0.82299 0.28882 0.0
C233 C 0.88752 0.77222 0.19432 0.0
C234 C 0.79631 0.06106 0.09705 0.0
C235 C 0.75447 0.08758 0.11801 0.0
C236 C 0.71963 0.0634 0.15815 0.0
C237 C 0.7279 0.01388 0.17945 0.0
C238 C 0.77264 0.98955 0.16288 0.0
C239 C 0.80529 0.01307 0.12128 0.0
C240 C 0.85332 0.98534 0.11447 0.0
C241 C 0.84391 0.94022 0.15615 0.0
C242 C 0.79711 0.94286 0.18582 0.0
C243 C 0.89505 0.01889 0.14321 0.0
C244 C 0.86079 0.97068 0.04305 0.0
H245 H 0.84646 0.7749 0.31928 0.0
H246 H 0.6818 0.84979 0.36808 0.0
H247 H 0.69333 0.85398 0.20644 0.0
H248 H 0.68621 0.91898 0.19135 0.0
H249 H 0.65619 0.8915 0.26022 0.0
H250 H 0.75625 0.94192 0.36205 0.0
H251 H 0.69234 0.94835 0.33865 0.0
H252 H 0.74125 0.98249 0.29865 0.0
H253 H 0.00209 0.79186 0.18784 0.0
H254 H 0.03074 0.91484 0.05767 0.0
H255 H 0.94855 0.94706 0.07699 0.0
H256 H 0.96025 0.84774 0.29318 0.0
H257 H 0.93894 0.78444 0.30209 0.0
H258 H 0.90098 0.83731 0.3259 0.0
H259 H 0.87981 0.77399 0.1417 0.0
H260 H 0.8528 0.75893 0.21697 0.0
H261 H 0.91692 0.74357 0.20194 0.0
H262 H 0.79522 0.7375 0.40103 0.0
C263 C 0.81137 0.79237 0.32902 0.0
C264 C 0.66048 0.20977 0.87392 0.0
C265 C 0.70429 0.2225 0.90606 0.0
C266 C 0.7267 0.26949 0.89453 0.0
C267 C 0.66273 0.28892 0.81602 0.0
C268 C 0.64031 0.24329 0.82957 0.0
C269 C 0.59381 0.23466 0.7915 0.0
H270 H 0.43633 0.3148 0.56258 0.0
C271 C 0.63401 0.31305 0.76372 0.0
C272 C 0.59379 0.28086 0.74933 0.0
H273 H 0.40856 0.20358 0.70891 0.0
H274 H 0.495 0.20781 0.74191 0.0
H275 H 0.46437 0.38341 0.64931 0.0
H276 H 0.55812 0.29178 0.53249 0.0
H277 H 0.58937 0.34944 0.53962 0.0
H278 H 0.52724 0.34719 0.50476 0.0
H279 H 0.48421 0.40349 0.57121 0.0
H280 H 0.51781 0.41996 0.64364 0.0
C281 C 0.54915 0.2337 0.83904 0.0
C282 C 0.59974 0.18595 0.75113 0.0
C283 C 0.67777 0.48698 0.67268 0.0
C284 C 0.65643 0.51525 0.62192 0.0
C285 C 0.6203 0.49232 0.58269 0.0
C286 C 0.60358 0.44369 0.5958 0.0
C287 C 0.62296 0.41713 0.64807 0.0
C288 C 0.66092 0.43754 0.68419 0.0
C289 C 0.67827 0.40107 0.73551 0.0
C290 C 0.64105 0.35801 0.72738 0.0
C291 C 0.60898 0.36825 0.67588 0.0
C292 C 0.67385 0.42674 0.80216 0.0
C293 C 0.73169 0.38446 0.71819 0.0
C294 C 0.44921 0.28971 0.60001 0.0
C295 C 0.41574 0.25935 0.63368 0.0
C296 C 0.43376 0.2279 0.68285 0.0
C297 C 0.48349 0.23147 0.70307 0.0
C298 C 0.51423 0.26859 0.67597 0.0
C299 C 0.49688 0.29641 0.62474 0.0
C300 C 0.52925 0.34066 0.6104 0.0
C301 C 0.56859 0.33572 0.66195 0.0
C302 C 0.56067 0.29264 0.69877 0.0
C303 C 0.49765 0.38948 0.61843 0.0
C304 C 0.55199 0.33237 0.54291 0.0
H305 H 0.72512 0.33772 0.84156 0.0
H306 H 0.64322 0.17347 0.88149 0.0
H307 H 0.63583 0.18607 0.72489 0.0
H308 H 0.57043 0.18159 0.71431 0.0
H309 H 0.59886 0.15225 0.78246 0.0
H310 H 0.55899 0.24911 0.88732 0.0
H311 H 0.53542 0.1948 0.84658 0.0
H312 H 0.51794 0.25751 0.82239 0.0
H313 H 0.70626 0.50323 0.70315 0.0
H314 H 0.60319 0.51285 0.54358 0.0
H315 H 0.57492 0.42867 0.56616 0.0
H316 H 0.63811 0.44754 0.80604 0.0
H317 H 0.70461 0.45398 0.80981 0.0
H318 H 0.67382 0.39971 0.84223 0.0
H319 H 0.73481 0.37635 0.66569 0.0
H320 H 0.74289 0.34952 0.74247 0.0
H321 H 0.75892 0.41447 0.73018 0.0
H322 H 0.76154 0.27917 0.91762 0.0
C323 C 0.70608 0.30289 0.84952 0.0
C324 C 0.7398 0.55782 0.32935 0.0
C325 C 0.71625 0.5893 0.37502 0.0
C326 C 0.67343 0.57191 0.40586 0.0
C327 C 0.67379 0.49639 0.34178 0.0
C328 C 0.71849 0.51075 0.31476 0.0
C329 C 0.73688 0.47226 0.26662 0.0
H330 H 0.70088 0.24952 0.11135 0.0
C331 C 0.65834 0.44847 0.3126 0.0
C332 C 0.69503 0.43351 0.26876 0.0
H333 H 0.82155 0.35556 0.08913 0.0
H334 H 0.78399 0.41079 0.16699 0.0
H335 H 0.69434 0.2598 0.26679 0.0
H336 H 0.61233 0.33339 0.11556 0.0
H337 H 0.57021 0.31539 0.17594 0.0
H338 H 0.60478 0.26786 0.13318 0.0
H339 H 0.64961 0.22708 0.21802 0.0
H340 H 0.63125 0.2617 0.28911 0.0
C341 C 0.78627 0.45051 0.29257 0.0
C342 C 0.74135 0.49763 0.19977 0.0
C343 C 0.49185 0.37492 0.37806 0.0
C344 C 0.46701 0.33061 0.36097 0.0
C345 C 0.49152 0.2954 0.32069 0.0
C346 C 0.53885 0.30506 0.29556 0.0
C347 C 0.56196 0.35092 0.3097 0.0
C348 C 0.53881 0.38452 0.35101 0.0
C349 C 0.57063 0.42963 0.3639 0.0
C350 C 0.61513 0.41898 0.32151 0.0
C351 C 0.61003 0.37287 0.28949 0.0
C352 C 0.58499 0.42779 0.43546 0.0
C353 C 0.54175 0.47721 0.34307 0.0
C354 C 0.71851 0.28515 0.12224 0.0
C355 C 0.76405 0.29838 0.09376 0.0
C356 C 0.78628 0.34471 0.11019 0.0
C357 C 0.76465 0.37664 0.15578 0.0
C358 C 0.71999 0.36247 0.18524 0.0
C359 C 0.69729 0.3177 0.16802 0.0
C360 C 0.64973 0.3093 0.20462 0.0
C361 C 0.6473 0.35686 0.24539 0.0
C362 C 0.68914 0.38745 0.2345 0.0
C363 C 0.65605 0.26183 0.24669 0.0
C364 C 0.60677 0.30594 0.15518 0.0
H365 H 0.61552 0.51969 0.40926 0.0
H366 H 0.77277 0.57032 0.30406 0.0
H367 H 0.71498 0.52959 0.19518 0.0
H368 H 0.73139 0.47205 0.15967 0.0
H369 H 0.77943 0.5125 0.19171 0.0
H370 H 0.78301 0.44197 0.34484 0.0
H371 H 0.81714 0.47784 0.28658 0.0
H372 H 0.79687 0.41476 0.26922 0.0
H373 H 0.47482 0.40205 0.41014 0.0
H374 H 0.47353 0.26038 0.30757 0.0
H375 H 0.55521 0.2768 0.26523 0.0
H376 H 0.5946 0.38872 0.44826 0.0
H377 H 0.55345 0.44104 0.46549 0.0
H378 H 0.61918 0.44818 0.44823 0.0
H379 H 0.51744 0.46912 0.30092 0.0
H380 H 0.56632 0.50799 0.32695 0.0
H381 H 0.51776 0.4911 0.38283 0.0
H382 H 0.6548 0.59439 0.44059 0.0
C383 C 0.65096 0.52712 0.38792 0.0
C384 C 0.16092 0.28764 0.62328 0.0
C385 C 0.2052 0.2753 0.59191 0.0
C386 C 0.22784 0.22852 0.60391 0.0
C387 C 0.16294 0.20836 0.681 0.0
C388 C 0.14039 0.25384 0.66712 0.0
C389 C 0.09325 0.26193 0.70415 0.0
H390 H 0.93327 0.1801 0.92973 0.0
C391 C 0.13348 0.18367 0.73231 0.0
C392 C 0.09278 0.21545 0.74584 0.0
H393 H 0.90707 0.29311 0.78528 0.0
H394 H 0.99352 0.28821 0.75213 0.0
H395 H 0.96214 0.1123 0.83899 0.0
H396 H 0.0529 0.20131 0.96281 0.0
H397 H 0.08533 0.14453 0.95342 0.0
H398 H 0.02287 0.14441 0.98718 0.0
H399 H 0.97913 0.09137 0.91781 0.0
H400 H 0.01499 0.07511 0.84711 0.0
C401 C 0.0493 0.2629 0.65563 0.0
C402 C 0.09836 0.31043 0.74511 0.0
C403 C 0.17766 0.01005 0.82428 0.0
C404 C 0.15551 0.98122 0.87401 0.0
C405 C 0.11771 0.00318 0.91144 0.0
C406 C 0.10024 0.05136 0.89753 0.0
C407 C 0.1208 0.07864 0.84652 0.0
C408 C 0.16016 0.05914 0.8121 0.0
C409 C 0.1781 0.09601 0.76149 0.0
C410 C 0.1401 0.13847 0.76835 0.0
C411 C 0.10693 0.12747 0.81847 0.0
C412 C 0.17552 0.07037 0.69467 0.0
C413 C 0.23087 0.11346 0.78067 0.0
C414 C 0.94652 0.20548 0.89279 0.0
C415 C 0.91354 0.2367 0.85982 0.0
C416 C 0.93196 0.26829 0.81097 0.0
C417 C 0.9817 0.2644 0.79072 0.0
C418 C 0.01205 0.22688 0.81753 0.0
C419 C -0.00582 0.19865 0.86812 0.0
C420 C 0.02604 0.15404 0.88198 0.0
C421 C 0.06616 0.15964 0.83156 0.0
C422 C 0.05876 0.20304 0.79522 0.0
C423 C -0.00572 0.10559 0.87156 0.0
C424 C 0.0477 0.16094 0.95028 0.0
H425 H 0.2261 0.16023 0.65678 0.0
H426 H 0.14346 0.32376 0.61535 0.0
H427 H 0.13407 0.31039 0.77214 0.0
H428 H 0.06852 0.3144 0.78133 0.0
H429 H 0.09775 0.3443 0.71408 0.0
H430 H 0.05977 0.24716 0.60773 0.0
H431 H 0.03596 0.30184 0.64746 0.0
H432 H 0.01769 0.23936 0.67173 0.0
H433 H 0.2073 0.99446 0.79507 0.0
H434 H 0.09988 0.98217 0.94964 0.0
H435 H 0.07015 0.06534 0.92566 0.0
H436 H 0.14027 0.04886 0.68956 0.0
H437 H 0.20693 0.04377 0.68796 0.0
H438 H 0.17579 0.09748 0.65468 0.0
H439 H 0.23261 0.12193 0.83319 0.0
H440 H 0.24225 0.14836 0.75639 0.0
H441 H 0.25873 0.08375 0.77006 0.0
H442 H 0.26299 0.21914 0.5814 0.0
C443 C 0.20689 0.19489 0.64845 0.0
C444 C 0.21813 0.66401 0.13898 0.0
C445 C 0.23436 0.70734 0.10643 0.0
C446 C 0.28174 0.72713 0.12065 0.0
C447 C 0.29414 0.66283 0.20138 0.0
C448 C 0.24837 0.64253 0.18615 0.0
C449 C 0.23703 0.59591 0.22432 0.0
H450 H 0.3245 0.41691 0.4267 0.0
C451 C 0.31666 0.63133 0.25171 0.0
C452 C 0.28361 0.59165 0.26512 0.0
H453 H 0.18679 0.4135 0.3209 0.0
H454 H 0.20028 0.49977 0.28586 0.0
H455 H 0.38329 0.46202 0.3052 0.0
H456 H 0.32675 0.51742 0.48276 0.0
H457 H 0.36857 0.56561 0.46037 0.0
H458 H 0.39144 0.503 0.47281 0.0
H459 H 0.40458 0.44736 0.38478 0.0
H460 H 0.42928 0.50007 0.34137 0.0
C461 C 0.2313 0.55149 0.17645 0.0
C462 C 0.19048 0.60576 0.26623 0.0
C463 C 0.49001 0.67205 0.33482 0.0
C464 C 0.52211 0.6469 0.37736 0.0
C465 C 0.50548 0.60341 0.40876 0.0
C466 C 0.45776 0.5846 0.39695 0.0
C467 C 0.42639 0.60935 0.35319 0.0
C468 C 0.44234 0.65281 0.32371 0.0
C469 C 0.40426 0.67342 0.27767 0.0
C470 C 0.36311 0.63455 0.2839 0.0
C471 C 0.3763 0.59757 0.32832 0.0
C472 C 0.42721 0.67458 0.20897 0.0
C473 C 0.38736 0.72538 0.30326 0.0
C474 C 0.29638 0.4354 0.39799 0.0
C475 C 0.25419 0.40917 0.37767 0.0
C476 C 0.2193 0.43359 0.33792 0.0
C477 C 0.22773 0.48312 0.31666 0.0
C478 C 0.27265 0.50727 0.33288 0.0
C479 C 0.30542 0.48346 0.37391 0.0
C480 C 0.35319 0.51148 0.38138 0.0
C481 C 0.34365 0.55706 0.34069 0.0
C482 C 0.29699 0.55434 0.31074 0.0
C483 C 0.39517 0.47868 0.35202 0.0
C484 C 0.36035 0.52514 0.4531 0.0
H485 H 0.34653 0.72287 0.1782 0.0
H486 H 0.18201 0.64773 0.12897 0.0
H487 H 0.19299 0.64321 0.29007 0.0
H488 H 0.18632 0.57822 0.30545 0.0
H489 H 0.15619 0.60525 0.23642 0.0
H490 H 0.25727 0.5555 0.13503 0.0
H491 H 0.19291 0.54973 0.15683 0.0
H492 H 0.24072 0.51491 0.19783 0.0
H493 H 0.50198 0.70565 0.30995 0.0
H494 H 0.52976 0.58333 0.44136 0.0
H495 H 0.44776 0.5509 0.42142 0.0
H496 H 0.46005 0.64941 0.20464 0.0
H497 H 0.43965 0.71303 0.19601 0.0
H498 H 0.40107 0.66073 0.1717 0.0
H499 H 0.37952 0.72365 0.35587 0.0
H500 H 0.35268 0.73862 0.28053 0.0
H501 H 0.41678 0.75406 0.29566 0.0
H502 H 0.29523 0.76049 0.09668 0.0
C503 C 0.31143 0.70539 0.1684 0.0
C504 C 0.81221 0.99181 0.82269 0.0
C505 C 0.83804 0.0232 0.86666 0.0
C506 C 0.88062 0.00466 0.89695 0.0
C507 C 0.86985 0.92384 0.84459 0.0
C508 C 0.82917 0.94232 0.81185 0.0
C509 C 0.8092 0.90424 0.76378 0.0
H510 H 0.84034 0.67533 0.61682 0.0
C511 C 0.88048 0.87277 0.82022 0.0
C512 C 0.84603 0.86103 0.77157 0.0
H513 H 0.72198 0.78102 0.58348 0.0
H514 H 0.75775 0.83853 0.66239 0.0
H515 H 0.92459 0.74869 0.61361 0.0
H516 H 0.8458 0.68793 0.77524 0.0
H517 H 0.91096 0.68216 0.78654 0.0
H518 H 0.88237 0.65303 0.71793 0.0
H519 H 0.94659 0.69378 0.65377 0.0
H520 H 0.96575 0.75605 0.67864 0.0
C521 C 0.81152 0.92759 0.69583 0.0
C522 C 0.75628 0.88901 0.78501 0.0
C523 C 0.03405 0.78655 0.90203 0.0
C524 C 0.06725 0.75648 0.86694 0.0
C525 C 0.04865 0.7254 0.81746 0.0
C526 C -0.00119 0.72959 0.79794 0.0
C527 C 0.96891 0.76757 0.82529 0.0
C528 C 0.98691 0.7952 0.87669 0.0
C529 C 0.95876 0.8432 0.88675 0.0
C530 C 0.91893 0.83858 0.83575 0.0
C531 C 0.92421 0.7937 0.80107 0.0
C532 C -0.00512 0.88795 0.87352 0.0
C533 C 0.93626 0.84208 0.95512 0.0
C534 C 0.82305 0.71152 0.62539 0.0
C535 C 0.7796 0.72471 0.59298 0.0
C536 C 0.75682 0.77127 0.60641 0.0
C537 C 0.77723 0.80415 0.65275 0.0
C538 C 0.82094 0.79023 0.6854 0.0
C539 C 0.84302 0.74451 0.67099 0.0
C540 C 0.88923 0.73524 0.70918 0.0
C541 C 0.89023 0.78175 0.75137 0.0
C542 C 0.85062 0.81455 0.73717 0.0
C543 C 0.93393 0.73304 0.66173 0.0
C544 C 0.88204 0.68692 0.74937 0.0
H545 H 0.92655 0.94291 0.9162 0.0
H546 H 0.78001 0.0056 0.797 0.0
H547 H 0.75513 0.88219 0.83784 0.0
H548 H 0.74358 0.85377 0.76218 0.0
H549 H 0.72913 0.91922 0.77401 0.0
H550 H 0.84727 0.9479 0.68891 0.0
H551 H 0.78078 0.95488 0.68883 0.0
H552 H 0.80999 0.89936 0.6569 0.0
H553 H 0.04743 0.81153 0.93961 0.0
H554 H 0.07349 0.70113 0.79049 0.0
H555 H 0.98687 0.70621 0.75874 0.0
H556 H 0.02879 0.8763 0.84661 0.0
H557 H 0.00752 0.90578 0.9192 0.0
H558 H 0.97835 0.91673 0.84173 0.0
H559 H 0.91526 0.80659 0.96285 0.0
H560 H 0.90981 0.87295 0.96415 0.0
H561 H 0.96616 0.84369 0.99163 0.0
H562 H 0.9027 0.02906 0.92751 0.0
C563 C 0.89542 0.95487 0.88835 0.0
loop_
_geom_bond_atom_site_label_1
_geom_bond_atom_site_label_2
_geom_bond_distance
_geom_bond_site_symmetry_2
_ccdc_geom_bond_type
Zn0 O6 1.920 . S
Zn0 O12 1.898 . S
Zn0 O15 1.905 . S
Zn1 O9 1.905 . S
Zn1 O10 1.898 . S
Zn1 O18 1.920 . S
Zn2 O5 2.080 . S
Zn2 O8 2.114 1_554 S
Zn2 O11 2.120 1_554 S
Zn2 O13 2.120 . S
Zn2 O14 2.114 . S
Zn2 O17 2.080 1_554 S
C3 O8 1.166 . S
C3 O9 1.182 . S
C4 O10 1.167 . S
C4 O11 1.299 . S
O5 Zn2 2.080 . S
O5 C19 1.305 . S
O6 Zn0 1.920 . S
O6 C19 1.234 . S
C7 O12 1.167 . S
C7 O13 1.299 . S
O8 Zn2 2.114 1_556 S
O8 C3 1.166 . S
O9 Zn1 1.905 . S
O9 C3 1.182 . S
O10 Zn1 1.898 . S
O10 C4 1.167 . S
O11 Zn2 2.120 1_556 S
O11 C4 1.299 . S
O12 Zn0 1.898 . S
O12 C7 1.167 . S
O13 Zn2 2.120 . S
O13 C7 1.299 . S
O14 Zn2 2.114 . S
O14 C16 1.166 . S
O15 Zn0 1.905 . S
O15 C16 1.182 . S
C16 O14 1.166 . S
C16 O15 1.182 . S
O17 Zn2 2.080 1_556 S
O17 C20 1.305 . S
O18 Zn1 1.920 . S
O18 C20 1.234 . S
C19 O5 1.305 . S
C19 O6 1.234 . S
C20 O17 1.305 . S
C20 O18 1.234 . S
Zn21 O27 1.920 . S
Zn21 O33 1.898 . S
Zn21 O36 1.905 . S
Zn22 O30 1.905 . S
Zn22 O31 1.898 . S
Zn22 O39 1.920 . S
Zn23 O26 2.080 . S
Zn23 O29 2.114 . S
Zn23 O32 2.120 . S
Zn23 O34 2.120 . S
Zn23 O35 2.114 . S
Zn23 O38 2.080 . S
C24 O29 1.166 . S
C24 O30 1.182 . S
C25 O31 1.167 . S
C25 O32 1.299 . S
O26 Zn23 2.080 . S
O26 C40 1.305 . S
O27 Zn21 1.920 . S
O27 C40 1.234 . S
C28 O33 1.167 . S
C28 O34 1.299 . S
O29 Zn23 2.114 . S
O29 C24 1.166 . S
O30 Zn22 1.905 . S
O30 C24 1.182 . S
O31 Zn22 1.898 . S
O31 C25 1.167 . S
O32 Zn23 2.120 . S
O32 C25 1.299 . S
O33 Zn21 1.898 . S
O33 C28 1.167 . S
O34 Zn23 2.120 . S
O34 C28 1.299 . S
O35 Zn23 2.114 . S
O35 C37 1.166 . S
O36 Zn21 1.905 . S
O36 C37 1.182 . S
C37 O35 1.166 . S
C37 O36 1.182 . S
O38 Zn23 2.080 . S
O38 C41 1.305 . S
O39 Zn22 1.920 . S
O39 C41 1.234 . S
C40 O26 1.305 . S
C40 O27 1.234 . S
C41 O38 1.305 . S
C41 O39 1.234 . S
Zn42 O48 1.920 . S
Zn42 O54 1.898 . S
Zn42 O57 1.905 . S
Zn43 O51 1.905 . S
Zn43 O52 1.898 . S
Zn43 O60 1.920 . S
Zn44 O47 2.080 1_554 S
Zn44 O50 2.114 . S
Zn44 O53 2.120 . S
Zn44 O55 2.120 1_554 S
Zn44 O56 2.114 1_554 S
Zn44 O59 2.080 . S
C45 O50 1.166 . S
C45 O51 1.182 . S
C46 O52 1.167 . S
C46 O53 1.299 . S
O47 Zn44 2.080 1_556 S
O47 C61 1.305 . S
O48 Zn42 1.920 . S
O48 C61 1.234 . S
C49 O54 1.167 . S
C49 O55 1.299 . S
O50 Zn44 2.114 . S
O50 C45 1.166 . S
O51 Zn43 1.905 . S
O51 C45 1.182 . S
O52 Zn43 1.898 . S
O52 C46 1.167 . S
O53 Zn44 2.120 . S
O53 C46 1.299 . S
O54 Zn42 1.898 . S
O54 C49 1.167 . S
O55 Zn44 2.120 1_556 S
O55 C49 1.299 . S
O56 Zn44 2.114 1_556 S
O56 C58 1.166 . S
O57 Zn42 1.905 . S
O57 C58 1.182 . S
C58 O56 1.166 . S
C58 O57 1.182 . S
O59 Zn44 2.080 . S
O59 C62 1.305 . S
O60 Zn43 1.920 . S
O60 C62 1.234 . S
C61 O47 1.305 . S
C61 O48 1.234 . S
C62 O59 1.305 . S
C62 O60 1.234 . S
Zn63 O69 1.920 . S
Zn63 O75 1.898 . S
Zn63 O78 1.905 . S
Zn64 O72 1.905 . S
Zn64 O73 1.898 . S
Zn64 O81 1.920 . S
Zn65 O68 2.080 . S
Zn65 O71 2.114 . S
Zn65 O74 2.120 . S
Zn65 O76 2.120 . S
Zn65 O77 2.114 . S
Zn65 O80 2.080 . S
C66 O71 1.166 . S
C66 O72 1.182 . S
C67 O73 1.167 . S
C67 O74 1.299 . S
O68 Zn65 2.080 . S
O68 C82 1.305 . S
O69 Zn63 1.920 . S
O69 C82 1.234 . S
C70 O75 1.167 . S
C70 O76 1.299 . S
O71 Zn65 2.114 . S
O71 C66 1.166 . S
O72 Zn64 1.905 . S
O72 C66 1.182 . S
O73 Zn64 1.898 . S
O73 C67 1.167 . S
O74 Zn65 2.120 . S
O74 C67 1.299 . S
O75 Zn63 1.898 . S
O75 C70 1.167 . S
O76 Zn65 2.120 . S
O76 C70 1.299 . S
O77 Zn65 2.114 . S
O77 C79 1.166 . S
O78 Zn63 1.905 . S
O78 C79 1.182 . S
C79 O77 1.166 . S
C79 O78 1.182 . S
O80 Zn65 2.080 . S
O80 C83 1.305 . S
O81 Zn64 1.920 . S
O81 C83 1.234 . S
C82 O68 1.305 . S
C82 O69 1.234 . S
C83 O80 1.305 . S
C83 O81 1.234 . S
C84 C85 1.391 . S
C84 C88 1.391 1_565 S
C84 H126 0.948 . S
C85 C84 1.391 . S
C85 C86 1.391 . S
C86 C85 1.391 . S
C86 H142 0.947 . S
C86 C143 1.392 . S
C87 C88 1.391 . S
C87 C91 1.397 . S
C87 C143 1.419 1_545 S
C88 C84 1.391 1_545 S
C88 C87 1.391 . S
C88 C89 1.399 . S
C89 C88 1.399 . S
C89 C92 1.396 . S
C89 C101 1.453 . S
C89 C102 1.684 . S
H90 C114 0.948 . S
C91 C87 1.397 . S
C91 C92 1.394 . S
C91 C110 1.723 . S
C92 C89 1.396 . S
C92 C91 1.394 . S
C92 C122 1.723 . S
H93 C116 0.947 . S
H94 C117 0.948 . S
H95 C123 0.982 . S
H96 C124 0.979 . S
H97 C124 0.980 . S
H98 C124 0.983 . S
H99 C123 0.979 . S
H100 C123 0.977 . S
C101 C89 1.453 . S
C101 H130 0.982 . S
C101 H131 0.979 . S
C101 H132 0.977 . S
C102 C89 1.684 . S
C102 H127 0.979 . S
C102 H128 0.980 . S
C102 H129 0.983 . S
C103 C104 1.391 1_455 S
C103 C108 1.391 . S
C103 H133 0.948 1_455 S
C104 C103 1.391 1_655 S
C104 C105 1.391 1_655 S
C105 C104 1.391 1_455 S
C105 C106 1.392 . S
C105 H134 0.947 . S
C106 C105 1.392 . S
C106 C107 1.419 . S
C106 H135 0.948 . S
C107 C106 1.419 . S
C107 C108 1.391 . S
C107 C111 1.397 . S
C108 C103 1.391 . S
C108 C107 1.391 . S
C108 C109 1.399 . S
C109 C108 1.399 . S
C109 C110 1.396 . S
C109 C112 1.453 . S
C109 C113 1.684 . S
C110 C91 1.723 . S
C110 C109 1.396 . S
C110 C111 1.394 . S
C111 C107 1.397 . S
C111 C110 1.394 . S
C111 C121 1.723 . S
C112 C109 1.453 . S
C112 H136 0.982 . S
C112 H137 0.979 . S
C112 H138 0.977 . S
C113 C109 1.684 . S
C113 H139 0.979 . S
C113 H140 0.980 . S
C113 H141 0.983 . S
C114 H90 0.948 . S
C114 C115 1.391 . S
C114 C119 1.391 . S
C115 C114 1.391 . S
C115 C116 1.391 . S
C116 H93 0.947 . S
C116 C115 1.391 . S
C116 C117 1.392 . S
C117 H94 0.948 . S
C117 C116 1.392 . S
C117 C118 1.419 . S
C118 C117 1.419 . S
C118 C119 1.391 . S
C118 C122 1.397 . S
C119 C114 1.391 . S
C119 C118 1.391 . S
C119 C120 1.399 . S
C120 C119 1.399 . S
C120 C121 1.396 . S
C120 C123 1.453 . S
C120 C124 1.684 . S
C121 C111 1.723 . S
C121 C120 1.396 . S
C121 C122 1.394 . S
C122 C92 1.723 . S
C122 C118 1.397 . S
C122 C121 1.394 . S
C123 H95 0.982 . S
C123 H99 0.979 . S
C123 H100 0.977 . S
C123 C120 1.453 . S
C124 H96 0.979 . S
C124 H97 0.980 . S
C124 H98 0.983 . S
C124 C120 1.684 . S
H125 C143 0.948 1_545 S
H126 C84 0.948 . S
H127 C102 0.979 . S
H128 C102 0.980 . S
H129 C102 0.983 . S
H130 C101 0.982 . S
H131 C101 0.979 . S
H132 C101 0.977 . S
H133 C103 0.948 1_655 S
H134 C105 0.947 . S
H135 C106 0.948 . S
H136 C112 0.982 . S
H137 C112 0.979 . S
H138 C112 0.977 . S
H139 C113 0.979 . S
H140 C113 0.980 . S
H141 C113 0.983 . S
H142 C86 0.947 . S
C143 C86 1.392 . S
C143 C87 1.419 1_565 S
C143 H125 0.948 1_565 S
C144 C145 1.391 . S
C144 C148 1.391 . S
C144 H186 0.948 . S
C145 C144 1.391 . S
C145 C146 1.391 . S
C146 C145 1.391 . S
C146 H202 0.947 . S
C146 C203 1.392 . S
C147 C148 1.391 . S
C147 C151 1.397 . S
C147 C203 1.419 . S
C148 C144 1.391 . S
C148 C147 1.391 . S
C148 C149 1.399 . S
C149 C148 1.399 . S
C149 C152 1.396 . S
C149 C161 1.453 . S
C149 C162 1.684 . S
H150 C174 0.948 . S
C151 C147 1.397 . S
C151 C152 1.394 . S
C151 C170 1.723 . S
C152 C149 1.396 . S
C152 C151 1.394 . S
C152 C182 1.723 . S
H153 C176 0.947 . S
H154 C177 0.948 . S
H155 C183 0.982 . S
H156 C184 0.979 . S
H157 C184 0.980 . S
H158 C184 0.983 . S
H159 C183 0.979 . S
H160 C183 0.977 . S
C161 C149 1.453 . S
C161 H190 0.982 . S
C161 H191 0.979 . S
C161 H192 0.977 . S
C162 C149 1.684 . S
C162 H187 0.979 . S
C162 H188 0.980 . S
C162 H189 0.983 . S
C163 C164 1.391 . S
C163 C168 1.391 . S
C163 H193 0.948 . S
C164 C163 1.391 . S
C164 C165 1.391 . S
C165 C164 1.391 . S
C165 C166 1.392 . S
C165 H194 0.947 . S
C166 C165 1.392 . S
C166 C167 1.419 . S
C166 H195 0.948 . S
C167 C166 1.419 . S
C167 C168 1.391 . S
C167 C171 1.397 . S
C168 C163 1.391 . S
C168 C167 1.391 . S
C168 C169 1.399 . S
C169 C168 1.399 . S
C169 C170 1.396 . S
C169 C172 1.453 . S
C169 C173 1.684 . S
C170 C151 1.723 . S
C170 C169 1.396 . S
C170 C171 1.394 . S
C171 C167 1.397 . S
C171 C170 1.394 . S
C171 C181 1.723 . S
C172 C169 1.453 . S
C172 H196 0.982 . S
C172 H197 0.979 . S
C172 H198 0.977 . S
C173 C169 1.684 . S
C173 H199 0.979 . S
C173 H200 0.980 . S
C173 H201 0.983 . S
C174 H150 0.948 . S
C174 C175 1.391 . S
C174 C179 1.391 . S
C175 C174 1.391 . S
C175 C176 1.391 . S
C176 H153 0.947 . S
C176 C175 1.391 . S
C176 C177 1.392 . S
C177 H154 0.948 . S
C177 C176 1.392 . S
C177 C178 1.419 . S
C178 C177 1.419 . S
C178 C179 1.391 . S
C178 C182 1.397 . S
C179 C174 1.391 . S
C179 C178 1.391 . S
C179 C180 1.399 . S
C180 C179 1.399 . S
C180 C181 1.396 . S
C180 C183 1.453 . S
C180 C184 1.684 . S
C181 C171 1.723 . S
C181 C180 1.396 . S
C181 C182 1.394 . S
C182 C152 1.723 . S
C182 C178 1.397 . S
C182 C181 1.394 . S
C183 H155 0.982 . S
C183 H159 0.979 . S
C183 H160 0.977 . S
C183 C180 1.453 . S
C184 H156 0.979 . S
C184 H157 0.980 . S
C184 H158 0.983 . S
C184 C180 1.684 . S
H185 C203 0.948 . S
H186 C144 0.948 . S
H187 C162 0.979 . S
H188 C162 0.980 . S
H189 C162 0.983 . S
H190 C161 0.982 . S
H191 C161 0.979 . S
H192 C161 0.977 . S
H193 C163 0.948 . S
H194 C165 0.947 . S
H195 C166 0.948 . S
H196 C172 0.982 . S
H197 C172 0.979 . S
H198 C172 0.977 . S
H199 C173 0.979 . S
H200 C173 0.980 . S
H201 C173 0.983 . S
H202 C146 0.947 . S
C203 C146 1.392 . S
C203 C147 1.419 . S
C203 H185 0.948 . S
C204 C205 1.391 . S
C204 C208 1.391 . S
C204 H246 0.948 . S
C205 C204 1.391 . S
C205 C206 1.391 . S
C206 C205 1.391 . S
C206 H262 0.947 . S
C206 C263 1.392 . S
C207 C208 1.391 . S
C207 C211 1.397 . S
C207 C263 1.419 . S
C208 C204 1.391 . S
C208 C207 1.391 . S
C208 C209 1.399 . S
C209 C208 1.399 . S
C209 C212 1.396 . S
C209 C221 1.453 . S
C209 C222 1.684 . S
H210 C234 0.948 . S
C211 C207 1.397 . S
C211 C212 1.394 . S
C211 C230 1.723 . S
C212 C209 1.396 . S
C212 C211 1.394 . S
C212 C242 1.723 . S
H213 C236 0.947 . S
H214 C237 0.948 . S
H215 C243 0.982 . S
H216 C244 0.979 . S
H217 C244 0.980 . S
H218 C244 0.983 . S
H219 C243 0.979 1_545 S
H220 C243 0.977 . S
C221 C209 1.453 . S
C221 H250 0.982 . S
C221 H251 0.979 . S
C221 H252 0.977 . S
C222 C209 1.684 . S
C222 H247 0.979 . S
C222 H248 0.980 . S
C222 H249 0.983 . S
C223 C224 1.391 1_655 S
C223 C228 1.391 . S
C223 H253 0.948 . S
C224 C223 1.391 1_455 S
C224 C225 1.391 1_455 S
C225 C224 1.391 1_655 S
C225 C226 1.392 . S
C225 H254 0.947 1_655 S
C226 C225 1.392 . S
C226 C227 1.419 . S
C226 H255 0.948 . S
C227 C226 1.419 . S
C227 C228 1.391 . S
C227 C231 1.397 . S
C228 C223 1.391 . S
C228 C227 1.391 . S
C228 C229 1.399 . S
C229 C228 1.399 . S
C229 C230 1.396 . S
C229 C232 1.453 . S
C229 C233 1.684 . S
C230 C211 1.723 . S
C230 C229 1.396 . S
C230 C231 1.394 . S
C231 C227 1.397 . S
C231 C230 1.394 . S
C231 C241 1.723 . S
C232 C229 1.453 . S
C232 H256 0.982 . S
C232 H257 0.979 . S
C232 H258 0.977 . S
C233 C229 1.684 . S
C233 H259 0.979 . S
C233 H260 0.980 . S
C233 H261 0.983 . S
C234 H210 0.948 . S
C234 C235 1.391 . S
C234 C239 1.391 1_545 S
C235 C234 1.391 . S
C235 C236 1.391 . S
C236 H213 0.947 . S
C236 C235 1.391 . S
C236 C237 1.392 1_545 S
C237 H214 0.948 . S
C237 C236 1.392 1_565 S
C237 C238 1.419 . S
C238 C237 1.419 . S
C238 C239 1.391 . S
C238 C242 1.397 . S
C239 C234 1.391 1_565 S
C239 C238 1.391 . S
C239 C240 1.399 . S
C240 C239 1.399 . S
C240 C241 1.396 . S
C240 C243 1.453 . S
C240 C244 1.684 . S
C241 C231 1.723 . S
C241 C240 1.396 . S
C241 C242 1.394 . S
C242 C212 1.723 . S
C242 C238 1.397 . S
C242 C241 1.394 . S
C243 H215 0.982 . S
C243 H219 0.979 1_565 S
C243 H220 0.977 . S
C243 C240 1.453 . S
C244 H216 0.979 . S
C244 H217 0.980 . S
C244 H218 0.983 . S
C244 C240 1.684 . S
H245 C263 0.948 . S
H246 C204 0.948 . S
H247 C222 0.979 . S
H248 C222 0.980 . S
H249 C222 0.983 . S
H250 C221 0.982 . S
H251 C221 0.979 . S
H252 C221 0.977 . S
H253 C223 0.948 . S
H254 C225 0.947 1_455 S
H255 C226 0.948 . S
H256 C232 0.982 . S
H257 C232 0.979 . S
H258 C232 0.977 . S
H259 C233 0.979 . S
H260 C233 0.980 . S
H261 C233 0.983 . S
H262 C206 0.947 . S
C263 C206 1.392 . S
C263 C207 1.419 . S
C263 H245 0.948 . S
C264 C265 1.391 . S
C264 C268 1.391 . S
C264 H306 0.948 . S
C265 C264 1.391 . S
C265 C266 1.391 . S
C266 C265 1.391 . S
C266 H322 0.947 . S
C266 C323 1.392 . S
C267 C268 1.391 . S
C267 C271 1.397 . S
C267 C323 1.419 . S
C268 C264 1.391 . S
C268 C267 1.391 . S
C268 C269 1.399 . S
C269 C268 1.399 . S
C269 C272 1.396 . S
C269 C281 1.453 . S
C269 C282 1.684 . S
H270 C294 0.948 . S
C271 C267 1.397 . S
C271 C272 1.394 . S
C271 C290 1.723 . S
C272 C269 1.396 . S
C272 C271 1.394 . S
C272 C302 1.723 . S
H273 C296 0.947 . S
H274 C297 0.948 . S
H275 C303 0.982 . S
H276 C304 0.979 . S
H277 C304 0.980 . S
H278 C304 0.983 . S
H279 C303 0.979 . S
H280 C303 0.977 . S
C281 C269 1.453 . S
C281 H310 0.982 . S
C281 H311 0.979 . S
C281 H312 0.977 . S
C282 C269 1.684 . S
C282 H307 0.979 . S
C282 H308 0.980 . S
C282 H309 0.983 . S
C283 C284 1.391 . S
C283 C288 1.391 . S
C283 H313 0.948 . S
C284 C283 1.391 . S
C284 C285 1.391 . S
C285 C284 1.391 . S
C285 C286 1.392 . S
C285 H314 0.947 . S
C286 C285 1.392 . S
C286 C287 1.419 . S
C286 H315 0.948 . S
C287 C286 1.419 . S
C287 C288 1.391 . S
C287 C291 1.397 . S
C288 C283 1.391 . S
C288 C287 1.391 . S
C288 C289 1.399 . S
C289 C288 1.399 . S
C289 C290 1.396 . S
C289 C292 1.453 . S
C289 C293 1.684 . S
C290 C271 1.723 . S
C290 C289 1.396 . S
C290 C291 1.394 . S
C291 C287 1.397 . S
C291 C290 1.394 . S
C291 C301 1.723 . S
C292 C289 1.453 . S
C292 H316 0.982 . S
C292 H317 0.979 . S
C292 H318 0.977 . S
C293 C289 1.684 . S
C293 H319 0.979 . S
C293 H320 0.980 . S
C293 H321 0.983 . S
C294 H270 0.948 . S
C294 C295 1.391 . S
C294 C299 1.391 . S
C295 C294 1.391 . S
C295 C296 1.391 . S
C296 H273 0.947 . S
C296 C295 1.391 . S
C296 C297 1.392 . S
C297 H274 0.948 . S
C297 C296 1.392 . S
C297 C298 1.419 . S
C298 C297 1.419 . S
C298 C299 1.391 . S
C298 C302 1.397 . S
C299 C294 1.391 . S
C299 C298 1.391 . S
C299 C300 1.399 . S
C300 C299 1.399 . S
C300 C301 1.396 . S
C300 C303 1.453 . S
C300 C304 1.684 . S
C301 C291 1.723 . S
C301 C300 1.396 . S
C301 C302 1.394 . S
C302 C272 1.723 . S
C302 C298 1.397 . S
C302 C301 1.394 . S
C303 H275 0.982 . S
C303 H279 0.979 . S
C303 H280 0.977 . S
C303 C300 1.453 . S
C304 H276 0.979 . S
C304 H277 0.980 . S
C304 H278 0.983 . S
C304 C300 1.684 . S
H305 C323 0.948 . S
H306 C264 0.948 . S
H307 C282 0.979 . S
H308 C282 0.980 . S
H309 C282 0.983 . S
H310 C281 0.982 . S
H311 C281 0.979 . S
H312 C281 0.977 . S
H313 C283 0.948 . S
H314 C285 0.947 . S
H315 C286 0.948 . S
H316 C292 0.982 . S
H317 C292 0.979 . S
H318 C292 0.977 . S
H319 C293 0.979 . S
H320 C293 0.980 . S
H321 C293 0.983 . S
H322 C266 0.947 . S
C323 C266 1.392 . S
C323 C267 1.419 . S
C323 H305 0.948 . S
C324 C325 1.391 . S
C324 C328 1.391 . S
C324 H366 0.948 . S
C325 C324 1.391 . S
C325 C326 1.391 . S
C326 C325 1.391 . S
C326 H382 0.947 . S
C326 C383 1.392 . S
C327 C328 1.391 . S
C327 C331 1.397 . S
C327 C383 1.419 . S
C328 C324 1.391 . S
C328 C327 1.391 . S
C328 C329 1.399 . S
C329 C328 1.399 . S
C329 C332 1.396 . S
C329 C341 1.453 . S
C329 C342 1.684 . S
H330 C354 0.948 . S
C331 C327 1.397 . S
C331 C332 1.394 . S
C331 C350 1.723 . S
C332 C329 1.396 . S
C332 C331 1.394 . S
C332 C362 1.723 . S
H333 C356 0.947 . S
H334 C357 0.948 . S
H335 C363 0.982 . S
H336 C364 0.979 . S
H337 C364 0.980 . S
H338 C364 0.983 . S
H339 C363 0.979 . S
H340 C363 0.977 . S
C341 C329 1.453 . S
C341 H370 0.982 . S
C341 H371 0.979 . S
C341 H372 0.977 . S
C342 C329 1.684 . S
C342 H367 0.979 . S
C342 H368 0.980 . S
C342 H369 0.983 . S
C343 C344 1.391 . S
C343 C348 1.391 . S
C343 H373 0.948 . S
C344 C343 1.391 . S
C344 C345 1.391 . S
C345 C344 1.391 . S
C345 C346 1.392 . S
C345 H374 0.947 . S
C346 C345 1.392 . S
C346 C347 1.419 . S
C346 H375 0.948 . S
C347 C346 1.419 . S
C347 C348 1.391 . S
C347 C351 1.397 . S
C348 C343 1.391 . S
C348 C347 1.391 . S
C348 C349 1.399 . S
C349 C348 1.399 . S
C349 C350 1.396 . S
C349 C352 1.453 . S
C349 C353 1.684 . S
C350 C331 1.723 . S
C350 C349 1.396 . S
C350 C351 1.394 . S
C351 C347 1.397 . S
C351 C350 1.394 . S
C351 C361 1.723 . S
C352 C349 1.453 . S
C352 H376 0.982 . S
C352 H377 0.979 . S
C352 H378 0.977 . S
C353 C349 1.684 . S
C353 H379 0.979 . S
C353 H380 0.980 . S
C353 H381 0.983 . S
C354 H330 0.948 . S
C354 C355 1.391 . S
C354 C359 1.391 . S
C355 C354 1.391 . S
C355 C356 1.391 . S
C356 H333 0.947 . S
C356 C355 1.391 . S
C356 C357 1.392 . S
C357 H334 0.948 . S
C357 C356 1.392 . S
C357 C358 1.419 . S
C358 C357 1.419 . S
C358 C359 1.391 . S
C358 C362 1.397 . S
C359 C354 1.391 . S
C359 C358 1.391 . S
C359 C360 1.399 . S
C360 C359 1.399 . S
C360 C361 1.396 . S
C360 C363 1.453 . S
C360 C364 1.684 . S
C361 C351 1.723 . S
C361 C360 1.396 . S
C361 C362 1.394 . S
C362 C332 1.723 . S
C362 C358 1.397 . S
C362 C361 1.394 . S
C363 H335 0.982 . S
C363 H339 0.979 . S
C363 H340 0.977 . S
C363 C360 1.453 . S
C364 H336 0.979 . S
C364 H337 0.980 . S
C364 H338 0.983 . S
C364 C360 1.684 . S
H365 C383 0.948 . S
H366 C324 0.948 . S
H367 C342 0.979 . S
H368 C342 0.980 . S
H369 C342 0.983 . S
H370 C341 0.982 . S
H371 C341 0.979 . S
H372 C341 0.977 . S
H373 C343 0.948 . S
H374 C345 0.947 . S
H375 C346 0.948 . S
H376 C352 0.982 . S
H377 C352 0.979 . S
H378 C352 0.977 . S
H379 C353 0.979 . S
H380 C353 0.980 . S
H381 C353 0.983 . S
H382 C326 0.947 . S
C383 C326 1.392 . S
C383 C327 1.419 . S
C383 H365 0.948 . S
C384 C385 1.391 . S
C384 C388 1.391 . S
C384 H426 0.948 . S
C385 C384 1.391 . S
C385 C386 1.391 . S
C386 C385 1.391 . S
C386 H442 0.947 . S
C386 C443 1.392 . S
C387 C388 1.391 . S
C387 C391 1.397 . S
C387 C443 1.419 . S
C388 C384 1.391 . S
C388 C387 1.391 . S
C388 C389 1.399 . S
C389 C388 1.399 . S
C389 C392 1.396 . S
C389 C401 1.453 . S
C389 C402 1.684 . S
H390 C414 0.948 . S
C391 C387 1.397 . S
C391 C392 1.394 . S
C391 C410 1.723 . S
C392 C389 1.396 . S
C392 C391 1.394 . S
C392 C422 1.723 . S
H393 C416 0.947 . S
H394 C417 0.948 . S
H395 C423 0.982 . S
H396 C424 0.979 . S
H397 C424 0.980 . S
H398 C424 0.983 . S
H399 C423 0.979 1_655 S
H400 C423 0.977 . S
C401 C389 1.453 . S
C401 H430 0.982 . S
C401 H431 0.979 . S
C401 H432 0.977 . S
C402 C389 1.684 . S
C402 H427 0.979 . S
C402 H428 0.980 . S
C402 H429 0.983 . S
C403 C404 1.391 1_545 S
C403 C408 1.391 . S
C403 H433 0.948 . S
C404 C403 1.391 1_565 S
C404 C405 1.391 1_565 S
C405 C404 1.391 1_545 S
C405 C406 1.392 . S
C405 H434 0.947 1_545 S
C406 C405 1.392 . S
C406 C407 1.419 . S
C406 H435 0.948 . S
C407 C406 1.419 . S
C407 C408 1.391 . S
C407 C411 1.397 . S
C408 C403 1.391 . S
C408 C407 1.391 . S
C408 C409 1.399 . S
C409 C408 1.399 . S
C409 C410 1.396 . S
C409 C412 1.453 . S
C409 C413 1.684 . S
C410 C391 1.723 . S
C410 C409 1.396 . S
C410 C411 1.394 . S
C411 C407 1.397 . S
C411 C410 1.394 . S
C411 C421 1.723 . S
C412 C409 1.453 . S
C412 H436 0.982 . S
C412 H437 0.979 . S
C412 H438 0.977 . S
C413 C409 1.684 . S
C413 H439 0.979 . S
C413 H440 0.980 . S
C413 H441 0.983 . S
C414 H390 0.948 . S
C414 C415 1.391 . S
C414 C419 1.391 1_655 S
C415 C414 1.391 . S
C415 C416 1.391 . S
C416 H393 0.947 . S
C416 C415 1.391 . S
C416 C417 1.392 1_655 S
C417 H394 0.948 . S
C417 C416 1.392 1_455 S
C417 C418 1.419 . S
C418 C417 1.419 . S
C418 C419 1.391 . S
C418 C422 1.397 . S
C419 C414 1.391 1_455 S
C419 C418 1.391 . S
C419 C420 1.399 . S
C420 C419 1.399 . S
C420 C421 1.396 . S
C420 C423 1.453 . S
C420 C424 1.684 . S
C421 C411 1.723 . S
C421 C420 1.396 . S
C421 C422 1.394 . S
C422 C392 1.723 . S
C422 C418 1.397 . S
C422 C421 1.394 . S
C423 H395 0.982 . S
C423 H399 0.979 1_455 S
C423 H400 0.977 . S
C423 C420 1.453 . S
C424 H396 0.979 . S
C424 H397 0.980 . S
C424 H398 0.983 . S
C424 C420 1.684 . S
H425 C443 0.948 . S
H426 C384 0.948 . S
H427 C402 0.979 . S
H428 C402 0.980 . S
H429 C402 0.983 . S
H430 C401 0.982 . S
H431 C401 0.979 . S
H432 C401 0.977 . S
H433 C403 0.948 . S
H434 C405 0.947 1_565 S
H435 C406 0.948 . S
H436 C412 0.982 . S
H437 C412 0.979 . S
H438 C412 0.977 . S
H439 C413 0.979 . S
H440 C413 0.980 . S
H441 C413 0.983 . S
H442 C386 0.947 . S
C443 C386 1.392 . S
C443 C387 1.419 . S
C443 H425 0.948 . S
C444 C445 1.391 . S
C444 C448 1.391 . S
C444 H486 0.948 . S
C445 C444 1.391 . S
C445 C446 1.391 . S
C446 C445 1.391 . S
C446 H502 0.947 . S
C446 C503 1.392 . S
C447 C448 1.391 . S
C447 C451 1.397 . S
C447 C503 1.419 . S
C448 C444 1.391 . S
C448 C447 1.391 . S
C448 C449 1.399 . S
C449 C448 1.399 . S
C449 C452 1.396 . S
C449 C461 1.453 . S
C449 C462 1.684 . S
H450 C474 0.948 . S
C451 C447 1.397 . S
C451 C452 1.394 . S
C451 C470 1.723 . S
C452 C449 1.396 . S
C452 C451 1.394 . S
C452 C482 1.723 . S
H453 C476 0.947 . S
H454 C477 0.948 . S
H455 C483 0.982 . S
H456 C484 0.979 . S
H457 C484 0.980 . S
H458 C484 0.983 . S
H459 C483 0.979 . S
H460 C483 0.977 . S
C461 C449 1.453 . S
C461 H490 0.982 . S
C461 H491 0.979 . S
C461 H492 0.977 . S
C462 C449 1.684 . S
C462 H487 0.979 . S
C462 H488 0.980 . S
C462 H489 0.983 . S
C463 C464 1.391 . S
C463 C468 1.391 . S
C463 H493 0.948 . S
C464 C463 1.391 . S
C464 C465 1.391 . S
C465 C464 1.391 . S
C465 C466 1.392 . S
C465 H494 0.947 . S
C466 C465 1.392 . S
C466 C467 1.419 . S
C466 H495 0.948 . S
C467 C466 1.419 . S
C467 C468 1.391 . S
C467 C471 1.397 . S
C468 C463 1.391 . S
C468 C467 1.391 . S
C468 C469 1.399 . S
C469 C468 1.399 . S
C469 C470 1.396 . S
C469 C472 1.453 . S
C469 C473 1.684 . S
C470 C451 1.723 . S
C470 C469 1.396 . S
C470 C471 1.394 . S
C471 C467 1.397 . S
C471 C470 1.394 . S
C471 C481 1.723 . S
C472 C469 1.453 . S
C472 H496 0.982 . S
C472 H497 0.979 . S
C472 H498 0.977 . S
C473 C469 1.684 . S
C473 H499 0.979 . S
C473 H500 0.980 . S
C473 H501 0.983 . S
C474 H450 0.948 . S
C474 C475 1.391 . S
C474 C479 1.391 . S
C475 C474 1.391 . S
C475 C476 1.391 . S
C476 H453 0.947 . S
C476 C475 1.391 . S
C476 C477 1.392 . S
C477 H454 0.948 . S
C477 C476 1.392 . S
C477 C478 1.419 . S
C478 C477 1.419 . S
C478 C479 1.391 . S
C478 C482 1.397 . S
C479 C474 1.391 . S
C479 C478 1.391 . S
C479 C480 1.399 . S
C480 C479 1.399 . S
C480 C481 1.396 . S
C480 C483 1.453 . S
C480 C484 1.684 . S
C481 C471 1.723 . S
C481 C480 1.396 . S
C481 C482 1.394 . S
C482 C452 1.723 . S
C482 C478 1.397 . S
C482 C481 1.394 . S
C483 H455 0.982 . S
C483 H459 0.979 . S
C483 H460 0.977 . S
C483 C480 1.453 . S
C484 H456 0.979 . S
C484 H457 0.980 . S
C484 H458 0.983 . S
C484 C480 1.684 . S
H485 C503 0.948 . S
H486 C444 0.948 . S
H487 C462 0.979 . S
H488 C462 0.980 . S
H489 C462 0.983 . S
H490 C461 0.982 . S
H491 C461 0.979 . S
H492 C461 0.977 . S
H493 C463 0.948 . S
H494 C465 0.947 . S
H495 C466 0.948 . S
H496 C472 0.982 . S
H497 C472 0.979 . S
H498 C472 0.977 . S
H499 C473 0.979 . S
H500 C473 0.980 . S
H501 C473 0.983 . S
H502 C446 0.947 . S
C503 C446 1.392 . S
C503 C447 1.419 . S
C503 H485 0.948 . S
C504 C505 1.391 1_565 S
C504 C508 1.391 . S
C504 H546 0.948 . S
C505 C504 1.391 1_545 S
C505 C506 1.391 1_545 S
C506 C505 1.391 1_565 S
C506 H562 0.947 1_565 S
C506 C563 1.392 . S
C507 C508 1.391 . S
C507 C511 1.397 . S
C507 C563 1.419 . S
C508 C504 1.391 . S
C508 C507 1.391 . S
C508 C509 1.399 . S
C509 C508 1.399 . S
C509 C512 1.396 . S
C509 C521 1.453 . S
C509 C522 1.684 . S
H510 C534 0.948 . S
C511 C507 1.397 . S
C511 C512 1.394 . S
C511 C530 1.723 . S
C512 C509 1.396 . S
C512 C511 1.394 . S
C512 C542 1.723 . S
H513 C536 0.947 . S
H514 C537 0.948 . S
H515 C543 0.982 . S
H516 C544 0.979 . S
H517 C544 0.980 . S
H518 C544 0.983 . S
H519 C543 0.979 . S
H520 C543 0.977 . S
C521 C509 1.453 . S
C521 H550 0.982 . S
C521 H551 0.979 . S
C521 H552 0.977 . S
C522 C509 1.684 . S
C522 H547 0.979 . S
C522 H548 0.980 . S
C522 H549 0.983 . S
C523 C524 1.391 . S
C523 C528 1.391 1_455 S
C523 H553 0.948 . S
C524 C523 1.391 . S
C524 C525 1.391 . S
C525 C524 1.391 . S
C525 C526 1.392 1_455 S
C525 H554 0.947 . S
C526 C525 1.392 1_655 S
C526 C527 1.419 . S
C526 H555 0.948 . S
C527 C526 1.419 . S
C527 C528 1.391 . S
C527 C531 1.397 . S
C528 C523 1.391 1_655 S
C528 C527 1.391 . S
C528 C529 1.399 . S
C529 C528 1.399 . S
C529 C530 1.396 . S
C529 C532 1.453 . S
C529 C533 1.684 . S
C530 C511 1.723 . S
C530 C529 1.396 . S
C530 C531 1.394 . S
C531 C527 1.397 . S
C531 C530 1.394 . S
C531 C541 1.723 . S
C532 C529 1.453 . S
C532 H556 0.982 . S
C532 H557 0.979 1_655 S
C532 H558 0.977 . S
C533 C529 1.684 . S
C533 H559 0.979 . S
C533 H560 0.980 . S
C533 H561 0.983 . S
C534 H510 0.948 . S
C534 C535 1.391 . S
C534 C539 1.391 . S
C535 C534 1.391 . S
C535 C536 1.391 . S
C536 H513 0.947 . S
C536 C535 1.391 . S
C536 C537 1.392 . S
C537 H514 0.948 . S
C537 C536 1.392 . S
C537 C538 1.419 . S
C538 C537 1.419 . S
C538 C539 1.391 . S
C538 C542 1.397 . S
C539 C534 1.391 . S
C539 C538 1.391 . S
C539 C540 1.399 . S
C540 C539 1.399 . S
C540 C541 1.396 . S
C540 C543 1.453 . S
C540 C544 1.684 . S
C541 C531 1.723 . S
C541 C540 1.396 . S
C541 C542 1.394 . S
C542 C512 1.723 . S
C542 C538 1.397 . S
C542 C541 1.394 . S
C543 H515 0.982 . S
C543 H519 0.979 . S
C543 H520 0.977 . S
C543 C540 1.453 . S
C544 H516 0.979 . S
C544 H517 0.980 . S
C544 H518 0.983 . S
C544 C540 1.684 . S
H545 C563 0.948 . S
H546 C504 0.948 . S
H547 C522 0.979 . S
H548 C522 0.980 . S
H549 C522 0.983 . S
H550 C521 0.982 . S
H551 C521 0.979 . S
H552 C521 0.977 . S
H553 C523 0.948 . S
H554 C525 0.947 . S
H555 C526 0.948 . S
H556 C532 0.982 . S
H557 C532 0.979 1_455 S
H558 C532 0.977 . S
H559 C533 0.979 . S
H560 C533 0.980 . S
H561 C533 0.983 . S
H562 C506 0.947 1_545 S
C563 C506 1.392 . S
C563 C507 1.419 . S
C563 H545 0.948 . S
C7 C85 1.337 . S
C25 C164 1.861 . S
C46 C235 1.861 . S
C295 C70 1.861 . S
C325 C28 1.337 . S
C49 C415 1.862 . S
C67 C475 1.861 . S
C4 C524 1.862 . S
C58 C505 2.103 . S
C344 C66 2.258 . S
C404 C3 2.103 . S
C37 C464 2.103 . S
C145 C79 2.103 . S
C16 C224 2.103 . S
C284 C24 2.103 . S
C104 C45 2.258 . S
C445 C19 0.756 . S
C535 C41 0.757 . S
C62 C355 0.941 . S
C385 C82 0.757 . S
C205 C40 0.757 . S
C61 C265 0.759 . S
C115 C83 0.942 . S
C175 C20 0.759 . S
