# Generated by pormake.
# Topology rtl, (3,6)-cn, num edge types: 1
# Building blocks:
#     Node 0, Type 0, BuildingBlock: BETDIP_clean_linker_0, # of connection points: 3
#     Node 1, Type 0, BuildingBlock: BETDIP_clean_linker_0, # of connection points: 3
#     Node 2, Type 0, BuildingBlock: BETDIP_clean_linker_0, # of connection points: 3
#     Node 3, Type 0, BuildingBlock: BETDIP_clean_linker_0, # of connection points: 3
#     Node 4, Type 1, BuildingBlock: KUMBOL_clean_sbu_1, # of connection points: 6
#     Node 5, Type 1, BuildingBlock: KUMBOL_clean_sbu_1, # of connection points: 6
#     Edge 6, Type (0, 1), BuildingBlock: AJUNOK_clean_linker_0, # of connection points: 2
#     Edge 7, Type (0, 1), BuildingBlock: AJUNOK_clean_linker_0, # of connection points: 2
#     Edge 8, Type (0, 1), BuildingBlock: AJUNOK_clean_linker_0, # of connection points: 2
#     Edge 9, Type (0, 1), BuildingBlock: AJUNOK_clean_linker_0, # of connection points: 2
#     Edge 10, Type (0, 1), BuildingBlock: AJUNOK_clean_linker_0, # of connection points: 2
#     Edge 11, Type (0, 1), BuildingBlock: AJUNOK_clean_linker_0, # of connection points: 2
#     Edge 12, Type (0, 1), BuildingBlock: AJUNOK_clean_linker_0, # of connection points: 2
#     Edge 13, Type (0, 1), BuildingBlock: AJUNOK_clean_linker_0, # of connection points: 2
#     Edge 14, Type (0, 1), BuildingBlock: AJUNOK_clean_linker_0, # of connection points: 2
#     Edge 15, Type (0, 1), BuildingBlock: AJUNOK_clean_linker_0, # of connection points: 2
#     Edge 16, Type (0, 1), BuildingBlock: AJUNOK_clean_linker_0, # of connection points: 2
#     Edge 17, Type (0, 1), BuildingBlock: AJUNOK_clean_linker_0, # of connection points: 2
# Relax obj value: 0.054
# Max RMSD: 0.239
# Mean RMSD: 0.172
data_MOF--net-rtl--node1-KUMBOL_clean_sbu_1--node2-BETDIP_clean_linker_0--edge1-AJUNOK_clean_linker_0
_symmetry_space_group_name_H-M    P1
_symmetry_Int_Tables_number       1
_symmetry_cell_setting            triclinic
loop_
_symmetry_equiv_pos_as_xyz
'x, y, z'
_cell_length_a     26.230392
_cell_length_b     26.621921
_cell_length_c     20.687103
_cell_angle_alpha  73.80189
_cell_angle_beta   99.508558
_cell_angle_gamma 91.757926
loop_
_atom_site_label
_atom_site_type_symbol
_atom_site_fract_x
_atom_site_fract_y
_atom_site_fract_z
_atom_type_partial_charge
H0 H 0.23293 0.83903 0.91108 0.0
H1 H 0.23942 0.80158 0.12867 0.0
H2 H 0.11089 0.89085 0.99208 0.0
H3 H 0.30691 0.79703 0.93414 0.0
C4 C 0.3161 0.77561 0.9876 0.0
C5 C 0.21709 0.84126 0.95522 0.0
C6 C 0.1705 0.86906 0.94496 0.0
C7 C 0.24187 0.81634 0.02191 0.0
C8 C 0.21977 0.82033 0.07754 0.0
C9 C 0.17275 0.84753 0.06803 0.0
C10 C 0.14809 0.87133 1.00107 0.0
N11 N 0.2877 0.7852 0.03599 0.0
H12 H 0.71856 0.73422 0.79191 0.0
H13 H 0.72345 0.72774 0.58697 0.0
H14 H 0.61765 0.63171 0.70416 0.0
H15 H 0.81136 0.73799 0.62836 0.0
C16 C 0.8072 0.77184 0.64678 0.0
C17 C 0.70413 0.71909 0.74896 0.0
C18 C 0.66491 0.68167 0.75426 0.0
C19 C 0.72615 0.73547 0.68906 0.0
C20 C 0.70771 0.71467 0.63399 0.0
C21 C 0.66838 0.67741 0.639 0.0
C22 C 0.64706 0.66149 0.69915 0.0
N23 N 0.767 0.77227 0.68522 0.0
H24 H 0.80737 0.24273 0.99891 0.0
H25 H 0.80836 0.2031 0.21582 0.0
H26 H 0.90592 0.11808 0.1369 0.0
H27 H 0.73494 0.24409 0.19065 0.0
C28 C 0.73176 0.27226 0.14085 0.0
C29 C 0.82064 0.21754 0.04959 0.0
C30 C 0.85931 0.17894 0.0601 0.0
C31 C 0.79999 0.22535 0.10488 0.0
C32 C 0.82024 0.19572 0.17168 0.0
C33 C 0.85871 0.15774 0.18255 0.0
C34 C 0.87675 0.14846 0.12708 0.0
N35 N 0.76115 0.265 0.09184 0.0
H36 H 0.32972 0.31246 0.35093 0.0
H37 H 0.32038 0.28779 0.56326 0.0
H38 H 0.4244 0.40144 0.46919 0.0
H39 H 0.30558 0.20415 0.5561 0.0
C40 C 0.27541 0.21355 0.51152 0.0
C41 C 0.34248 0.3214 0.39899 0.0
C42 C 0.37915 0.36091 0.40269 0.0
C43 C 0.32192 0.29374 0.45731 0.0
C44 C 0.3378 0.30667 0.51885 0.0
C45 C 0.37462 0.34527 0.52353 0.0
C46 C 0.39533 0.37207 0.46545 0.0
N47 N 0.28386 0.2547 0.45324 0.0
C48 C 0.95712 0.17325 0.48272 0.0
C49 C 0.86894 0.16957 0.42603 0.0
C50 C 0.91122 0.14666 0.47617 0.0
C51 C 0.87484 0.21807 0.3791 0.0
C52 C 0.9617 0.22391 0.43927 0.0
C53 C 0.92122 0.24519 0.38566 0.0
N54 N 0.99502 0.15192 0.53597 0.0
C55 C 0.03414 0.18269 0.55495 0.0
C56 C 1.00547 0.25282 0.45347 0.0
C57 C 0.04105 0.23271 0.51277 0.0
Gd58 Gd 0.0655 0.97571 0.51534 0.0
Gd59 Gd 0.98215 0.06413 0.59697 0.0
N60 N 0.90691 0.09961 0.52171 0.0
C61 C 0.82157 0.1438 0.42612 0.0
C62 C 0.86018 0.0758 0.52499 0.0
C63 C 0.81688 0.09732 0.47683 0.0
H64 H 0.85699 0.03939 0.56357 0.0
H65 H 0.78016 0.07773 0.47828 0.0
H66 H 0.14575 0.05759 0.4267 0.0
H67 H 0.06079 0.16858 0.60211 0.0
H68 H 0.23707 0.08449 0.44412 0.0
H69 H 0.78812 0.16013 0.38847 0.0
H70 H 0.84317 0.23582 0.33921 0.0
H71 H 0.06544 0.84941 0.60301 0.0
H72 H 1.01055 0.29183 0.42132 0.0
H73 H 0.07348 0.25592 0.52646 0.0
H74 H 0.31256 0.96157 0.65397 0.0
H75 H 0.92447 0.28362 0.35099 0.0
H76 H 0.21046 0.81214 0.73727 0.0
H77 H 0.12261 0.78598 0.69501 0.0
N78 N 0.11973 0.91051 0.59537 0.0
C79 C 0.16892 0.92415 0.61414 0.0
C80 C 0.10379 0.86066 0.62098 0.0
C81 C 0.18548 0.83991 0.69707 0.0
C82 C 0.13602 0.8249 0.67312 0.0
C83 C 0.20311 0.88957 0.66605 0.0
H84 H 0.28107 0.87903 0.72293 0.0
N85 N 0.15322 0.99935 0.52205 0.0
C86 C 0.18634 0.9705 0.57601 0.0
C87 C 0.25669 0.0266 0.5411 0.0
C88 C 0.23885 0.98366 0.58782 0.0
C89 C 0.17152 0.0376 0.4726 0.0
C90 C 0.22319 0.05271 0.48214 0.0
O91 O 0.94987 0.0386 0.50256 0.0
O92 O 0.02189 0.04885 0.454 0.0
O93 O 0.10112 0.94736 0.44392 0.0
O94 O 0.01822 0.94546 0.4385 0.0
O95 O 0.94867 0.98298 0.60688 0.0
O96 O 0.99418 0.93451 0.55461 0.0
O97 O 0.05837 0.94866 0.62722 0.0
O98 O 0.05781 0.02579 0.65607 0.0
O99 O 0.96579 0.03561 0.70124 0.0
O100 O 0.94557 0.11442 0.64249 0.0
O101 O 0.07496 0.06358 0.49437 0.0
O102 O 0.06762 0.08092 0.59456 0.0
C103 C 0.97164 0.05062 0.44778 0.0
C104 C 0.95623 0.94052 0.5876 0.0
C105 C 0.05608 0.88796 0.38903 0.0
C106 C 0.07645 0.84683 0.30416 0.0
C107 C 0.02224 0.80253 0.38716 0.0
C108 C 0.02648 0.8447 0.41536 0.0
C109 C 0.04665 0.80365 0.33161 0.0
C110 C 0.08185 0.8883 0.33457 0.0
C111 C 0.05741 0.93527 0.41278 0.0
C112 C 0.27227 0.95166 0.64321 0.0
C113 C 0.25436 0.90462 0.68241 0.0
H114 H 0.29674 0.03812 0.54823 0.0
C115 C 0.06731 0.97528 0.67249 0.0
C116 C 0.09117 0.08734 0.54147 0.0
C117 C 0.97471 0.10217 0.75788 0.0
C118 C 0.9672 0.14038 0.85083 0.0
C119 C 0.04768 0.1464 0.80447 0.0
C120 C 0.02598 0.1188 0.75885 0.0
C121 C 0.01846 0.15783 0.8493 0.0
C122 C 0.94579 0.11186 0.8048 0.0
C123 C 0.94977 0.08109 0.70219 0.0
H124 H 0.99908 0.76933 0.40752 0.0
H125 H 1.00605 0.84399 0.45675 0.0
H126 H 0.04138 0.77115 0.30939 0.0
H127 H 0.10562 0.9214 0.31549 0.0
H128 H 0.08699 0.15996 0.80416 0.0
H129 H 0.04865 0.11182 0.72282 0.0
H130 H 0.03611 0.18084 0.88245 0.0
H131 H 0.90681 0.09732 0.80483 0.0
C132 C 0.66657 0.61846 0.08329 0.0
C133 C 0.63886 0.70938 0.04388 0.0
C134 C 0.62926 0.65647 0.07512 0.0
C135 C 0.68522 0.7229 0.01801 0.0
C136 C 0.7142 0.63205 0.06055 0.0
C137 C 0.72288 0.68433 0.02649 0.0
N138 N 0.65646 0.56802 0.11462 0.0
C139 C 0.6936 0.52984 0.13008 0.0
C140 C 0.75193 0.59277 0.07376 0.0
C141 C 0.74181 0.54156 0.10951 0.0
Gd142 Gd 0.47399 0.49458 0.01486 0.0
Gd143 Gd 0.57478 0.55123 0.14664 0.0
N144 N 0.58504 0.64208 0.10135 0.0
C145 C 0.60241 0.74732 0.04179 0.0
C146 C 0.55201 0.67944 0.10516 0.0
C147 C 0.55934 0.73235 0.07389 0.0
H148 H 0.52046 0.66894 0.13342 0.0
H149 H 0.53223 0.76161 0.07561 0.0
H150 H 0.5063 0.3684 0.06307 0.0
H151 H 0.68575 0.4903 0.15769 0.0
H152 H 0.47085 0.28377 0.12215 0.0
H153 H 0.6083 0.78839 0.01825 0.0
H154 H 0.69297 0.76328 0.99315 0.0
H155 H 0.3739 0.58139 0.97279 0.0
H156 H 0.78913 0.60165 0.05735 0.0
H157 H 0.77097 0.51109 0.12079 0.0
H158 H 0.30896 0.33126 0.17106 0.0
H159 H 0.75896 0.69549 1.00777 0.0
H160 H 0.25285 0.51048 0.08061 0.0
H161 H 0.28892 0.58785 1.00575 0.0
N162 N 0.38963 0.50381 0.03629 0.0
C163 C 0.36878 0.45979 0.073 0.0
C164 C 0.36033 0.54851 1.00909 0.0
C165 C 0.29107 0.50802 0.06819 0.0
C166 C 0.31137 0.55182 0.02616 0.0
C167 C 0.31915 0.46078 0.0905 0.0
H168 H 0.2606 0.41451 0.14195 0.0
N169 N 0.44338 0.41325 0.07144 0.0
C170 C 0.39594 0.41287 0.08978 0.0
C171 C 0.40203 0.31894 0.13624 0.0
C172 C 0.37436 0.36577 0.12387 0.0
C173 C 0.46966 0.36765 0.08073 0.0
C174 C 0.44961 0.31984 0.11384 0.0
O175 O 0.59493 0.55006 0.04489 0.0
O176 O 0.51786 0.56777 0.97251 0.0
O177 O 0.492 0.4596 0.93756 0.0
O178 O 0.41913 0.49993 0.92246 0.0
O179 O 0.49323 0.58585 0.11734 0.0
O180 O 0.46678 0.58084 1.00722 0.0
O181 O 0.4881 0.45553 0.1292 0.0
O182 O 0.49678 0.52455 0.17411 0.0
O183 O 0.60391 0.58721 0.22749 0.0
O184 O 0.60834 0.50326 0.2471 0.0
O185 O 0.55484 0.45979 0.03923 0.0
O186 O 0.58782 0.46659 0.14822 0.0
C187 C 0.56815 0.57306 0.98516 0.0
C188 C 0.46545 0.6034 0.05611 0.0
C189 C 0.41968 0.42884 0.87599 0.0
C190 C 0.39845 0.38237 0.78896 0.0
C191 C 0.3602 0.35642 0.89245 0.0
C192 C 0.38632 0.39624 0.91511 0.0
C193 C 0.36616 0.34943 0.82981 0.0
C194 C 0.42567 0.42182 0.8128 0.0
C195 C 0.44691 0.47125 0.89955 0.0
C196 C 0.3259 0.36692 0.14389 0.0
C197 C 0.29844 0.41437 0.12748 0.0
H198 H 0.38673 0.28189 0.1622 0.0
C199 C 0.47905 0.47785 0.17528 0.0
C200 C 0.5871 0.44501 0.09758 0.0
C201 C 0.59283 0.53672 0.33708 0.0
C202 C 0.59225 0.56371 0.44056 0.0
C203 C 0.53221 0.4982 0.41339 0.0
C204 C 0.55268 0.50189 0.35415 0.0
C205 C 0.55178 0.52886 0.4564 0.0
C206 C 0.61232 0.56764 0.38033 0.0
C207 C 0.61368 0.5426 0.27347 0.0
H208 H 0.3346 0.33143 0.92304 0.0
H209 H 0.37974 0.40194 0.96262 0.0
H210 H 0.34445 0.31904 0.81246 0.0
H211 H 0.45114 0.44714 0.7822 0.0
H212 H 0.50116 0.47139 0.4261 0.0
H213 H 0.53706 0.47765 0.3217 0.0
H214 H 0.53568 0.52486 0.50252 0.0
H215 H 0.64258 0.59528 0.36648 0.0
C216 C 0.2196 0.15051 0.58035 0.0
C217 C 0.22629 0.18431 0.51655 0.0
C218 C 0.17476 0.1209 0.58868 0.0
C219 C 0.13527 0.12328 0.53315 0.0
H220 H 0.2496 0.14652 0.62437 0.0
H221 H 0.17184 0.09454 0.63834 0.0
S222 S 0.13157 0.20762 0.35632 0.0
N223 N 0.18783 0.22026 0.3975 0.0
N224 N 0.10393 0.16387 0.41307 0.0
C225 C 0.14063 0.15777 0.46943 0.0
C226 C 0.18608 0.18846 0.46107 0.0
C227 C 0.37828 0.72045 0.95719 0.0
C228 C 0.3566 0.7337 1.00811 0.0
C229 C 0.41431 0.67918 0.97344 0.0
C230 C 0.43012 0.64931 0.04137 0.0
H231 H 0.36661 0.7416 0.90402 0.0
H232 H 0.42935 0.67016 0.93217 0.0
S233 S 0.38795 0.67054 0.19457 0.0
N234 N 0.35597 0.71558 0.13004 0.0
N235 N 0.4231 0.63775 0.16036 0.0
C236 C 0.40998 0.66322 0.09308 0.0
C237 C 0.3733 0.70538 0.07654 0.0
C238 C 0.83879 0.8627 0.64652 0.0
C239 C 0.84589 0.81409 0.63462 0.0
C240 C 0.87469 0.90307 0.63163 0.0
C241 C 0.91923 0.89648 0.60434 0.0
H242 H 0.80494 0.86999 0.66648 0.0
H243 H 0.86699 0.9399 0.64107 0.0
S244 S 0.95666 0.77441 0.56854 0.0
N245 N 0.90132 0.76054 0.59696 0.0
N246 N 0.96856 0.83545 0.56937 0.0
C247 C 0.92686 0.84735 0.59365 0.0
C248 C 0.89032 0.80652 0.60866 0.0
C249 C 0.67675 0.32742 0.18193 0.0
C250 C 0.69588 0.31758 0.12687 0.0
C251 C 0.64221 0.36907 0.17213 0.0
C252 C 0.62461 0.40203 0.10661 0.0
H253 H 0.6887 0.30268 0.23332 0.0
H254 H 0.62852 0.37488 0.2162 0.0
S255 S 0.66366 0.39404 0.94513 0.0
N256 N 0.69548 0.3452 1.00432 0.0
N257 N 0.62983 0.42286 0.98566 0.0
C258 C 0.64351 0.39282 0.05094 0.0
C259 C 0.67937 0.3508 0.06109 0.0
C260 C 0.14859 0.80363 0.18286 0.0
C261 C 0.1487 0.84907 0.12804 0.0
C262 C 0.12561 0.80346 0.23946 0.0
C263 C 0.10123 0.84858 0.24359 0.0
H264 H 0.16585 0.76749 0.18178 0.0
H265 H 0.1272 0.76759 0.28051 0.0
S266 S 0.09038 0.97795 0.11359 0.0
N267 N 0.12361 0.94105 0.08261 0.0
N268 N 0.07737 0.9398 0.18661 0.0
C269 C 0.10072 0.8943 0.18894 0.0
C270 C 0.125 0.89472 0.1318 0.0
C271 C 0.59625 0.67544 0.82652 0.0
C272 C 0.64477 0.65918 0.81869 0.0
C273 C 0.57197 0.64782 0.88128 0.0
C274 C 0.59537 0.60292 0.92962 0.0
H275 H 0.57627 0.70867 0.78884 0.0
H276 H 0.53436 0.66127 0.8853 0.0
S277 S 0.72086 0.54281 0.92861 0.0
N278 N 0.71471 0.59509 0.86211 0.0
N279 N 0.66897 0.54261 0.96432 0.0
C280 C 0.64412 0.58668 0.92244 0.0
C281 C 0.66883 0.61494 0.86702 0.0
C282 C 0.93604 0.14472 0.27249 0.0
C283 C 0.88493 0.13142 0.25198 0.0
C284 C 0.96372 0.11823 0.33604 0.0
C285 C 0.94119 0.07746 0.38119 0.0
H286 H 0.95481 0.17566 0.23882 0.0
H287 H 1.00293 0.13005 0.35004 0.0
S288 S 0.80916 0.02629 0.3496 0.0
N289 N 0.81297 0.07467 0.28032 0.0
N290 N 0.8655 0.02374 0.39998 0.0
C291 C 0.8901 0.06367 0.36114 0.0
C292 C 0.86176 0.09102 0.29641 0.0
C293 C 0.40302 0.31672 0.64964 0.0
C294 C 0.38969 0.35769 0.58961 0.0
C295 C 0.4088 0.32569 0.71392 0.0
C296 C 0.40145 0.37597 0.72068 0.0
H297 H 0.40713 0.27702 0.6469 0.0
H298 H 0.41725 0.29264 0.75883 0.0
S299 S 0.36943 0.49712 0.57915 0.0
N300 N 0.37217 0.45087 0.54064 0.0
N301 N 0.38291 0.46783 0.66178 0.0
C302 C 0.391 0.41784 0.66102 0.0
C303 C 0.38515 0.40867 0.59537 0.0
C304 C 0.59726 0.6502 0.5598 0.0
C305 C 0.65049 0.65286 0.5832 0.0
C306 C 0.57891 0.62236 0.51253 0.0
C307 C 0.61308 0.59589 0.48702 0.0
H308 H 0.56951 0.66921 0.579 0.0
H309 H 0.53756 0.62115 0.49631 0.0
S310 S 0.75607 0.5897 0.53348 0.0
N311 N 0.73718 0.62652 0.57777 0.0
N312 N 0.70277 0.57374 0.48933 0.0
C313 C 0.6665 0.59897 0.50916 0.0
C314 C 0.68518 0.62755 0.55713 0.0
C315 C 0.93845 0.16071 0.0163 0.0
C316 C 0.88489 0.17165 1.00357 0.0
C317 C 0.96383 0.14989 0.96731 0.0
C318 C 0.93761 0.15138 0.90167 0.0
H319 H 0.96145 0.1602 0.06504 0.0
H320 H 1.0046 0.13977 0.9817 0.0
S321 S 0.79764 0.18182 0.83947 0.0
N322 N 0.80625 0.18364 0.91966 0.0
N323 N 0.855 0.16824 0.82504 0.0
C324 C 0.88426 0.16405 0.88701 0.0
C325 C 0.85785 0.17343 0.93815 0.0
C326 C 0.42699 0.36526 0.3055 0.0
C327 C 0.40111 0.39106 0.34169 0.0
C328 C 0.45228 0.39359 0.25203 0.0
C329 C 0.45166 0.44873 0.2317 0.0
H330 H 0.42916 0.32292 0.32005 0.0
H331 H 0.47327 0.37205 0.22727 0.0
S332 S 0.38688 0.53455 0.30835 0.0
N333 N 0.37517 0.47466 0.35259 0.0
N334 N 0.42145 0.52774 0.2514 0.0
C335 C 0.42501 0.47481 0.26683 0.0
C336 C 0.3999 0.44604 0.32173 0.0
C337 C 0.15412 0.94801 0.84484 0.0
C338 C 0.14434 0.89525 0.87528 0.0
C339 C 0.12842 0.97406 0.77941 0.0
C340 C 0.09236 0.94797 0.74242 0.0
H341 H 0.18176 0.96921 0.87189 0.0
H342 H 0.13742 0.01459 0.75728 0.0
S343 S 0.05062 0.81071 0.80259 0.0
N344 N 0.09496 0.81844 0.86564 0.0
N345 N 0.04599 0.86731 0.74306 0.0
C346 C 0.08173 0.89538 0.7731 0.0
C347 C 0.10792 0.869 0.83953 0.0
loop_
_geom_bond_atom_site_label_1
_geom_bond_atom_site_label_2
_geom_bond_distance
_geom_bond_site_symmetry_2
_ccdc_geom_bond_type
H0 C5 0.930 . S
H1 C8 0.930 . S
H2 C10 0.930 . S
H3 C4 1.016 . S
C4 H3 1.016 . S
C4 N11 1.286 . S
C5 H0 0.930 . S
C5 C6 1.397 . S
C5 C7 1.361 1_556 S
C6 C5 1.397 . S
C6 C10 1.390 1_556 S
C7 C5 1.361 1_554 S
C7 C8 1.393 . S
C7 N11 1.413 . S
C8 H1 0.930 . S
C8 C7 1.393 . S
C8 C9 1.399 . S
C9 C8 1.399 . S
C9 C10 1.381 . S
C10 H2 0.930 . S
C10 C6 1.390 1_554 S
C10 C9 1.381 . S
N11 C4 1.286 . S
N11 C7 1.413 . S
H12 C17 0.930 . S
H13 C20 0.930 . S
H14 C22 0.930 . S
H15 C16 1.016 . S
C16 H15 1.016 . S
C16 N23 1.286 . S
C17 H12 0.930 . S
C17 C18 1.397 . S
C17 C19 1.361 . S
C18 C17 1.397 . S
C18 C22 1.390 . S
C19 C17 1.361 . S
C19 C20 1.393 . S
C19 N23 1.413 . S
C20 H13 0.930 . S
C20 C19 1.393 . S
C20 C21 1.399 . S
C21 C20 1.399 . S
C21 C22 1.381 . S
C22 H14 0.930 . S
C22 C18 1.390 . S
C22 C21 1.381 . S
N23 C16 1.286 . S
N23 C19 1.413 . S
H24 C29 0.930 1_556 S
H25 C32 0.930 . S
H26 C34 0.930 . S
H27 C28 1.016 . S
C28 H27 1.016 . S
C28 N35 1.286 . S
C29 H24 0.930 1_554 S
C29 C30 1.397 . S
C29 C31 1.361 . S
C30 C29 1.397 . S
C30 C34 1.390 . S
C31 C29 1.361 . S
C31 C32 1.393 . S
C31 N35 1.413 . S
C32 H25 0.930 . S
C32 C31 1.393 . S
C32 C33 1.399 . S
C33 C32 1.399 . S
C33 C34 1.381 . S
C34 H26 0.930 . S
C34 C30 1.390 . S
C34 C33 1.381 . S
N35 C28 1.286 . S
N35 C31 1.413 . S
H36 C41 0.930 . S
H37 C44 0.930 . S
H38 C46 0.930 . S
H39 C40 1.016 . S
C40 H39 1.016 . S
C40 N47 1.286 . S
C41 H36 0.930 . S
C41 C42 1.397 . S
C41 C43 1.361 . S
C42 C41 1.397 . S
C42 C46 1.390 . S
C43 C41 1.361 . S
C43 C44 1.393 . S
C43 N47 1.413 . S
C44 H37 0.930 . S
C44 C43 1.393 . S
C44 C45 1.399 . S
C45 C44 1.399 . S
C45 C46 1.381 . S
C46 H38 0.930 . S
C46 C42 1.390 . S
C46 C45 1.381 . S
N47 C40 1.286 . S
N47 C43 1.413 . S
C48 C50 1.422 . S
C48 C52 1.415 . S
C48 N54 1.369 . S
C49 C50 1.421 . S
C49 C51 1.417 . S
C49 C61 1.422 . S
C50 C48 1.422 . S
C50 C49 1.421 . S
C50 N60 1.359 . S
C51 C49 1.417 . S
C51 C53 1.329 . S
C51 H70 0.930 . S
C52 C48 1.415 . S
C52 C53 1.437 . S
C52 C56 1.413 . S
C53 C51 1.329 . S
C53 C52 1.437 . S
C53 H75 0.929 . S
N54 C48 1.369 . S
N54 C55 1.338 1_655 S
N54 Gd59 2.622 . S
C55 N54 1.338 1_455 S
C55 C57 1.378 . S
C55 H67 0.929 . S
C56 C52 1.413 . S
C56 C57 1.348 1_655 S
C56 H72 0.931 . S
C57 C55 1.378 . S
C57 C56 1.348 1_455 S
C57 H73 0.930 . S
Gd58 N78 2.622 . S
Gd58 N85 2.570 . S
Gd58 O92 2.353 1_465 S
Gd58 O93 2.468 . S
Gd58 O94 2.427 . S
Gd58 O96 2.388 1_455 S
Gd58 O97 2.386 . S
Gd58 O101 2.307 1_565 S
Gd58 C111 2.805 . S
Gd59 N54 2.622 . S
Gd59 N60 2.570 . S
Gd59 O91 2.386 . S
Gd59 O95 2.307 1_545 S
Gd59 O98 2.353 1_655 S
Gd59 O99 2.468 . S
Gd59 O100 2.427 . S
Gd59 O102 2.388 1_655 S
Gd59 C123 2.805 . S
N60 C50 1.359 . S
N60 Gd59 2.570 . S
N60 C62 1.343 . S
C61 C49 1.422 . S
C61 C63 1.321 . S
C61 H69 0.931 . S
C62 N60 1.343 . S
C62 C63 1.390 . S
C62 H64 0.931 . S
C63 C61 1.321 . S
C63 C62 1.390 . S
C63 H65 0.930 . S
H64 C62 0.931 . S
H65 C63 0.930 . S
H66 C89 0.931 . S
H67 C55 0.929 . S
H68 C90 0.930 . S
H69 C61 0.931 . S
H70 C51 0.930 . S
H71 C80 0.929 1_655 S
H72 C56 0.931 . S
H73 C57 0.930 . S
H74 C112 0.930 . S
H75 C53 0.929 . S
H76 C81 0.931 . S
H77 C82 0.930 1_655 S
N78 Gd58 2.622 . S
N78 C79 1.369 . S
N78 C80 1.338 . S
C79 N78 1.369 . S
C79 C83 1.415 . S
C79 C86 1.422 . S
C80 H71 0.929 1_455 S
C80 N78 1.338 . S
C80 C82 1.378 . S
C81 H76 0.931 . S
C81 C82 1.348 . S
C81 C83 1.413 . S
C82 H77 0.930 1_455 S
C82 C80 1.378 . S
C82 C81 1.348 . S
C83 C79 1.415 . S
C83 C81 1.413 . S
C83 C113 1.437 . S
H84 C113 0.929 . S
N85 Gd58 2.570 . S
N85 C86 1.359 . S
N85 C89 1.343 . S
C86 C79 1.422 . S
C86 N85 1.359 . S
C86 C88 1.421 . S
C87 C88 1.422 . S
C87 C90 1.321 . S
C87 H114 0.931 . S
C88 C86 1.421 . S
C88 C87 1.422 . S
C88 C112 1.417 . S
C89 H66 0.931 . S
C89 N85 1.343 . S
C89 C90 1.390 . S
C90 H68 0.930 . S
C90 C87 1.321 . S
C90 C89 1.390 . S
O91 Gd59 2.386 . S
O91 C103 1.265 . S
O92 Gd58 2.353 1_645 S
O92 C103 1.242 . S
O93 Gd58 2.468 . S
O93 C111 1.263 . S
O94 Gd58 2.427 . S
O94 C111 1.252 . S
O95 Gd59 2.307 1_565 S
O95 C104 1.261 . S
O96 Gd58 2.388 1_655 S
O96 C104 1.252 . S
O97 Gd58 2.386 . S
O97 C115 1.265 . S
O98 Gd59 2.353 1_455 S
O98 C115 1.242 1_545 S
O99 Gd59 2.468 . S
O99 C123 1.263 . S
O100 Gd59 2.427 . S
O100 C123 1.252 . S
O101 Gd58 2.307 1_545 S
O101 C116 1.261 . S
O102 Gd59 2.388 1_455 S
O102 C116 1.252 . S
C103 O91 1.265 . S
C103 O92 1.242 . S
C104 O95 1.261 . S
C104 O96 1.252 . S
C105 C108 1.394 . S
C105 C110 1.370 . S
C105 C111 1.500 . S
C106 C109 1.383 . S
C106 C110 1.395 . S
C107 C108 1.396 . S
C107 C109 1.365 . S
C107 H124 0.929 . S
C108 C105 1.394 . S
C108 C107 1.396 . S
C108 H125 0.930 . S
C109 C106 1.383 . S
C109 C107 1.365 . S
C109 H126 0.931 . S
C110 C105 1.370 . S
C110 C106 1.395 . S
C110 H127 0.930 . S
C111 Gd58 2.805 . S
C111 O93 1.263 . S
C111 O94 1.252 . S
C111 C105 1.500 . S
C112 H74 0.930 . S
C112 C88 1.417 . S
C112 C113 1.329 . S
C113 C83 1.437 . S
C113 H84 0.929 . S
C113 C112 1.329 . S
H114 C87 0.931 . S
C115 O97 1.265 . S
C115 O98 1.242 1_565 S
C116 O101 1.261 . S
C116 O102 1.252 . S
C117 C120 1.394 . S
C117 C122 1.370 . S
C117 C123 1.500 . S
C118 C121 1.383 . S
C118 C122 1.395 . S
C119 C120 1.396 . S
C119 C121 1.365 . S
C119 H128 0.929 . S
C120 C117 1.394 . S
C120 C119 1.396 . S
C120 H129 0.930 . S
C121 C118 1.383 . S
C121 C119 1.365 . S
C121 H130 0.931 . S
C122 C117 1.370 . S
C122 C118 1.395 . S
C122 H131 0.930 . S
C123 Gd59 2.805 . S
C123 O99 1.263 . S
C123 O100 1.252 . S
C123 C117 1.500 . S
H124 C107 0.929 . S
H125 C108 0.930 . S
H126 C109 0.931 . S
H127 C110 0.930 . S
H128 C119 0.929 . S
H129 C120 0.930 . S
H130 C121 0.931 . S
H131 C122 0.930 . S
C132 C134 1.422 . S
C132 C136 1.415 . S
C132 N138 1.369 . S
C133 C134 1.421 . S
C133 C135 1.417 . S
C133 C145 1.422 . S
C134 C132 1.422 . S
C134 C133 1.421 . S
C134 N144 1.359 . S
C135 C133 1.417 . S
C135 C137 1.329 . S
C135 H154 0.930 . S
C136 C132 1.415 . S
C136 C137 1.437 . S
C136 C140 1.413 . S
C137 C135 1.329 . S
C137 C136 1.437 . S
C137 H159 0.929 . S
N138 C132 1.369 . S
N138 C139 1.338 . S
N138 Gd143 2.622 . S
C139 N138 1.338 . S
C139 C141 1.378 . S
C139 H151 0.929 . S
C140 C136 1.413 . S
C140 C141 1.348 . S
C140 H156 0.931 . S
C141 C139 1.378 . S
C141 C140 1.348 . S
C141 H157 0.930 . S
Gd142 N162 2.622 . S
Gd142 N169 2.570 . S
Gd142 O176 2.353 1_554 S
Gd142 O177 2.468 1_554 S
Gd142 O178 2.427 1_554 S
Gd142 O180 2.388 . S
Gd142 O181 2.386 . S
Gd142 O185 2.307 . S
Gd142 C195 2.805 1_554 S
Gd143 N138 2.622 . S
Gd143 N144 2.570 . S
Gd143 O175 2.386 . S
Gd143 O179 2.307 . S
Gd143 O182 2.353 . S
Gd143 O183 2.468 . S
Gd143 O184 2.427 . S
Gd143 O186 2.388 . S
Gd143 C207 2.805 . S
N144 C134 1.359 . S
N144 Gd143 2.570 . S
N144 C146 1.343 . S
C145 C133 1.422 . S
C145 C147 1.321 . S
C145 H153 0.931 . S
C146 N144 1.343 . S
C146 C147 1.390 . S
C146 H148 0.931 . S
C147 C145 1.321 . S
C147 C146 1.390 . S
C147 H149 0.930 . S
H148 C146 0.931 . S
H149 C147 0.930 . S
H150 C173 0.931 . S
H151 C139 0.929 . S
H152 C174 0.930 . S
H153 C145 0.931 . S
H154 C135 0.930 . S
H155 C164 0.929 . S
H156 C140 0.931 . S
H157 C141 0.930 . S
H158 C196 0.930 . S
H159 C137 0.929 . S
H160 C165 0.931 . S
H161 C166 0.930 . S
N162 Gd142 2.622 . S
N162 C163 1.369 . S
N162 C164 1.338 1_554 S
C163 N162 1.369 . S
C163 C167 1.415 . S
C163 C170 1.422 . S
C164 H155 0.929 . S
C164 N162 1.338 1_556 S
C164 C166 1.378 . S
C165 H160 0.931 . S
C165 C166 1.348 1_554 S
C165 C167 1.413 . S
C166 H161 0.930 . S
C166 C164 1.378 . S
C166 C165 1.348 1_556 S
C167 C163 1.415 . S
C167 C165 1.413 . S
C167 C197 1.437 . S
H168 C197 0.929 . S
N169 Gd142 2.570 . S
N169 C170 1.359 . S
N169 C173 1.343 . S
C170 C163 1.422 . S
C170 N169 1.359 . S
C170 C172 1.421 . S
C171 C172 1.422 . S
C171 C174 1.321 . S
C171 H198 0.931 . S
C172 C170 1.421 . S
C172 C171 1.422 . S
C172 C196 1.417 . S
C173 H150 0.931 . S
C173 N169 1.343 . S
C173 C174 1.390 . S
C174 H152 0.930 . S
C174 C171 1.321 . S
C174 C173 1.390 . S
O175 Gd143 2.386 . S
O175 C187 1.265 1_554 S
O176 Gd142 2.353 1_556 S
O176 C187 1.242 . S
O177 Gd142 2.468 1_556 S
O177 C195 1.263 . S
O178 Gd142 2.427 1_556 S
O178 C195 1.252 . S
O179 Gd143 2.307 . S
O179 C188 1.261 . S
O180 Gd142 2.388 . S
O180 C188 1.252 . S
O181 Gd142 2.386 . S
O181 C199 1.265 . S
O182 Gd143 2.353 . S
O182 C199 1.242 . S
O183 Gd143 2.468 . S
O183 C207 1.263 . S
O184 Gd143 2.427 . S
O184 C207 1.252 . S
O185 Gd142 2.307 . S
O185 C200 1.261 . S
O186 Gd143 2.388 . S
O186 C200 1.252 . S
C187 O175 1.265 1_556 S
C187 O176 1.242 . S
C188 O179 1.261 . S
C188 O180 1.252 . S
C189 C192 1.394 . S
C189 C194 1.370 . S
C189 C195 1.500 . S
C190 C193 1.383 . S
C190 C194 1.395 . S
C191 C192 1.396 . S
C191 C193 1.365 . S
C191 H208 0.929 . S
C192 C189 1.394 . S
C192 C191 1.396 . S
C192 H209 0.930 . S
C193 C190 1.383 . S
C193 C191 1.365 . S
C193 H210 0.931 . S
C194 C189 1.370 . S
C194 C190 1.395 . S
C194 H211 0.930 . S
C195 Gd142 2.805 1_556 S
C195 O177 1.263 . S
C195 O178 1.252 . S
C195 C189 1.500 . S
C196 H158 0.930 . S
C196 C172 1.417 . S
C196 C197 1.329 . S
C197 C167 1.437 . S
C197 H168 0.929 . S
C197 C196 1.329 . S
H198 C171 0.931 . S
C199 O181 1.265 . S
C199 O182 1.242 . S
C200 O185 1.261 . S
C200 O186 1.252 . S
C201 C204 1.394 . S
C201 C206 1.370 . S
C201 C207 1.500 . S
C202 C205 1.383 . S
C202 C206 1.395 . S
C203 C204 1.396 . S
C203 C205 1.365 . S
C203 H212 0.929 . S
C204 C201 1.394 . S
C204 C203 1.396 . S
C204 H213 0.930 . S
C205 C202 1.383 . S
C205 C203 1.365 . S
C205 H214 0.931 . S
C206 C201 1.370 . S
C206 C202 1.395 . S
C206 H215 0.930 . S
C207 Gd143 2.805 . S
C207 O183 1.263 . S
C207 O184 1.252 . S
C207 C201 1.500 . S
H208 C191 0.929 . S
H209 C192 0.930 . S
H210 C193 0.931 . S
H211 C194 0.930 . S
H212 C203 0.929 . S
H213 C204 0.930 . S
H214 C205 0.931 . S
H215 C206 0.930 . S
C216 C217 1.369 . S
C216 C218 1.419 . S
C216 H220 0.930 . S
C217 C216 1.369 . S
C217 C226 1.429 . S
C218 C216 1.419 . S
C218 C219 1.363 . S
C218 H221 0.929 . S
C219 C218 1.363 . S
C219 C225 1.428 . S
H220 C216 0.930 . S
H221 C218 0.929 . S
S222 N223 1.613 . S
S222 N224 1.610 . S
N223 S222 1.613 . S
N223 C226 1.350 . S
N224 S222 1.610 . S
N224 C225 1.351 . S
C225 C219 1.428 . S
C225 N224 1.351 . S
C225 C226 1.434 . S
C226 C217 1.429 . S
C226 N223 1.350 . S
C226 C225 1.434 . S
C227 C228 1.369 . S
C227 C229 1.419 . S
C227 H231 0.930 . S
C228 C227 1.369 . S
C228 C237 1.429 . S
C229 C227 1.419 . S
C229 C230 1.363 . S
C229 H232 0.929 . S
C230 C229 1.363 . S
C230 C236 1.428 . S
H231 C227 0.930 . S
H232 C229 0.929 . S
S233 N234 1.613 . S
S233 N235 1.610 . S
N234 S233 1.613 . S
N234 C237 1.350 . S
N235 S233 1.610 . S
N235 C236 1.351 . S
C236 C230 1.428 . S
C236 N235 1.351 . S
C236 C237 1.434 . S
C237 C228 1.429 . S
C237 N234 1.350 . S
C237 C236 1.434 . S
C238 C239 1.369 . S
C238 C240 1.419 . S
C238 H242 0.930 . S
C239 C238 1.369 . S
C239 C248 1.429 . S
C240 C238 1.419 . S
C240 C241 1.363 . S
C240 H243 0.929 . S
C241 C240 1.363 . S
C241 C247 1.428 . S
H242 C238 0.930 . S
H243 C240 0.929 . S
S244 N245 1.613 . S
S244 N246 1.610 . S
N245 S244 1.613 . S
N245 C248 1.350 . S
N246 S244 1.610 . S
N246 C247 1.351 . S
C247 C241 1.428 . S
C247 N246 1.351 . S
C247 C248 1.434 . S
C248 C239 1.429 . S
C248 N245 1.350 . S
C248 C247 1.434 . S
C249 C250 1.369 . S
C249 C251 1.419 . S
C249 H253 0.930 . S
C250 C249 1.369 . S
C250 C259 1.429 . S
C251 C249 1.419 . S
C251 C252 1.363 . S
C251 H254 0.929 . S
C252 C251 1.363 . S
C252 C258 1.428 . S
H253 C249 0.930 . S
H254 C251 0.929 . S
S255 N256 1.613 . S
S255 N257 1.610 . S
N256 S255 1.613 . S
N256 C259 1.350 . S
N257 S255 1.610 . S
N257 C258 1.351 . S
C258 C252 1.428 . S
C258 N257 1.351 . S
C258 C259 1.434 . S
C259 C250 1.429 . S
C259 N256 1.350 . S
C259 C258 1.434 . S
C260 C261 1.369 . S
C260 C262 1.419 . S
C260 H264 0.930 . S
C261 C260 1.369 . S
C261 C270 1.429 . S
C262 C260 1.419 . S
C262 C263 1.363 . S
C262 H265 0.929 . S
C263 C262 1.363 . S
C263 C269 1.428 . S
H264 C260 0.930 . S
H265 C262 0.929 . S
S266 N267 1.613 1_545 S
S266 N268 1.610 . S
N267 S266 1.613 1_565 S
N267 C270 1.350 . S
N268 S266 1.610 . S
N268 C269 1.351 1_545 S
C269 C263 1.428 . S
C269 N268 1.351 1_565 S
C269 C270 1.434 . S
C270 C261 1.429 . S
C270 N267 1.350 . S
C270 C269 1.434 . S
C271 C272 1.369 . S
C271 C273 1.419 . S
C271 H275 0.930 . S
C272 C271 1.369 . S
C272 C281 1.429 . S
C273 C271 1.419 . S
C273 C274 1.363 . S
C273 H276 0.929 . S
C274 C273 1.363 . S
C274 C280 1.428 . S
H275 C271 0.930 . S
H276 C273 0.929 . S
S277 N278 1.613 . S
S277 N279 1.610 . S
N278 S277 1.613 . S
N278 C281 1.350 . S
N279 S277 1.610 . S
N279 C280 1.351 . S
C280 C274 1.428 . S
C280 N279 1.351 . S
C280 C281 1.434 . S
C281 C272 1.429 . S
C281 N278 1.350 . S
C281 C280 1.434 . S
C282 C283 1.369 . S
C282 C284 1.419 . S
C282 H286 0.930 . S
C283 C282 1.369 . S
C283 C292 1.429 . S
C284 C282 1.419 . S
C284 C285 1.363 . S
C284 H287 0.929 . S
C285 C284 1.363 . S
C285 C291 1.428 . S
H286 C282 0.930 . S
H287 C284 0.929 . S
S288 N289 1.613 . S
S288 N290 1.610 . S
N289 S288 1.613 . S
N289 C292 1.350 . S
N290 S288 1.610 . S
N290 C291 1.351 . S
C291 C285 1.428 . S
C291 N290 1.351 . S
C291 C292 1.434 . S
C292 C283 1.429 . S
C292 N289 1.350 . S
C292 C291 1.434 . S
C293 C294 1.369 . S
C293 C295 1.419 . S
C293 H297 0.930 . S
C294 C293 1.369 . S
C294 C303 1.429 . S
C295 C293 1.419 . S
C295 C296 1.363 . S
C295 H298 0.929 . S
C296 C295 1.363 . S
C296 C302 1.428 . S
H297 C293 0.930 . S
H298 C295 0.929 . S
S299 N300 1.613 . S
S299 N301 1.610 . S
N300 S299 1.613 . S
N300 C303 1.350 . S
N301 S299 1.610 . S
N301 C302 1.351 . S
C302 C296 1.428 . S
C302 N301 1.351 . S
C302 C303 1.434 . S
C303 C294 1.429 . S
C303 N300 1.350 . S
C303 C302 1.434 . S
C304 C305 1.369 . S
C304 C306 1.419 . S
C304 H308 0.930 . S
C305 C304 1.369 . S
C305 C314 1.429 . S
C306 C304 1.419 . S
C306 C307 1.363 . S
C306 H309 0.929 . S
C307 C306 1.363 . S
C307 C313 1.428 . S
H308 C304 0.930 . S
H309 C306 0.929 . S
S310 N311 1.613 . S
S310 N312 1.610 . S
N311 S310 1.613 . S
N311 C314 1.350 . S
N312 S310 1.610 . S
N312 C313 1.351 . S
C313 C307 1.428 . S
C313 N312 1.351 . S
C313 C314 1.434 . S
C314 C305 1.429 . S
C314 N311 1.350 . S
C314 C313 1.434 . S
C315 C316 1.369 . S
C315 C317 1.419 . S
C315 H319 0.930 1_556 S
C316 C315 1.369 . S
C316 C325 1.429 . S
C317 C315 1.419 . S
C317 C318 1.363 . S
C317 H320 0.929 . S
C318 C317 1.363 . S
C318 C324 1.428 . S
H319 C315 0.930 1_554 S
H320 C317 0.929 . S
S321 N322 1.613 . S
S321 N323 1.610 . S
N322 S321 1.613 . S
N322 C325 1.350 . S
N323 S321 1.610 . S
N323 C324 1.351 . S
C324 C318 1.428 . S
C324 N323 1.351 . S
C324 C325 1.434 . S
C325 C316 1.429 . S
C325 N322 1.350 . S
C325 C324 1.434 . S
C326 C327 1.369 . S
C326 C328 1.419 . S
C326 H330 0.930 . S
C327 C326 1.369 . S
C327 C336 1.429 . S
C328 C326 1.419 . S
C328 C329 1.363 . S
C328 H331 0.929 . S
C329 C328 1.363 . S
C329 C335 1.428 . S
H330 C326 0.930 . S
H331 C328 0.929 . S
S332 N333 1.613 . S
S332 N334 1.610 . S
N333 S332 1.613 . S
N333 C336 1.350 . S
N334 S332 1.610 . S
N334 C335 1.351 . S
C335 C329 1.428 . S
C335 N334 1.351 . S
C335 C336 1.434 . S
C336 C327 1.429 . S
C336 N333 1.350 . S
C336 C335 1.434 . S
C337 C338 1.369 . S
C337 C339 1.419 . S
C337 H341 0.930 . S
C338 C337 1.369 . S
C338 C347 1.429 . S
C339 C337 1.419 . S
C339 C340 1.363 . S
C339 H342 0.929 1_565 S
C340 C339 1.363 . S
C340 C346 1.428 . S
H341 C337 0.930 . S
H342 C339 0.929 1_545 S
S343 N344 1.613 . S
S343 N345 1.610 . S
N344 S343 1.613 . S
N344 C347 1.350 . S
N345 S343 1.610 . S
N345 C346 1.351 . S
C346 C340 1.428 . S
C346 N345 1.351 . S
C346 C347 1.434 . S
C347 C338 1.429 . S
C347 N344 1.350 . S
C347 C346 1.434 . S
C219 C116 1.636 . S
C217 C40 1.639 . S
C228 C4 1.641 . S
C230 C188 1.635 . S
C239 C16 1.629 . S
C241 C104 1.653 . S
C250 C28 1.598 . S
C252 C200 1.608 . S
C263 C106 1.410 . S
C261 C9 1.587 . S
C274 C187 1.688 . S
C272 C18 1.685 . S
C283 C33 1.624 . S
C285 C103 1.648 . S
C294 C45 1.590 . S
C296 C190 1.422 . S
C307 C202 1.392 . S
C305 C21 1.564 . S
C318 C118 1.365 . S
C316 C30 1.552 1_556 S
C329 C199 1.628 . S
C327 C42 1.611 . S
C338 C6 1.570 . S
C340 C115 1.599 . S
