# Generated by pormake.
# Topology ftw, (4,12)-cn, num edge types: 1
# Building blocks:
#     Node 0, Type 0, BuildingBlock: KUFVIS_clean_linker_0, # of connection points: 4
#     Node 1, Type 0, BuildingBlock: KUFVIS_clean_linker_0, # of connection points: 4
#     Node 2, Type 0, BuildingBlock: KUFVIS_clean_linker_0, # of connection points: 4
#     Node 3, Type 1, BuildingBlock: EZIPEK_clean_sbu_0, # of connection points: 12
#     Edge 4, Type (0, 1), BuildingBlock: KIFKEQ_clean_linker_1, # of connection points: 2
#     Edge 5, Type (0, 1), BuildingBlock: KIFKEQ_clean_linker_1, # of connection points: 2
#     Edge 6, Type (0, 1), BuildingBlock: KIFKEQ_clean_linker_1, # of connection points: 2
#     Edge 7, Type (0, 1), BuildingBlock: KIFKEQ_clean_linker_1, # of connection points: 2
#     Edge 8, Type (0, 1), BuildingBlock: KIFKEQ_clean_linker_1, # of connection points: 2
#     Edge 9, Type (0, 1), BuildingBlock: KIFKEQ_clean_linker_1, # of connection points: 2
#     Edge 10, Type (0, 1), BuildingBlock: KIFKEQ_clean_linker_1, # of connection points: 2
#     Edge 11, Type (0, 1), BuildingBlock: KIFKEQ_clean_linker_1, # of connection points: 2
#     Edge 12, Type (0, 1), BuildingBlock: KIFKEQ_clean_linker_1, # of connection points: 2
#     Edge 13, Type (0, 1), BuildingBlock: KIFKEQ_clean_linker_1, # of connection points: 2
#     Edge 14, Type (0, 1), BuildingBlock: KIFKEQ_clean_linker_1, # of connection points: 2
#     Edge 15, Type (0, 1), BuildingBlock: KIFKEQ_clean_linker_1, # of connection points: 2
# Relax obj value: 0.081
# Max RMSD: 0.235
# Mean RMSD: 0.179
data_MOF--net-ftw--node1-EZIPEK_clean_sbu_0--node2-KUFVIS_clean_linker_0--edge1-KIFKEQ_clean_linker_1
_symmetry_space_group_name_H-M    P1
_symmetry_Int_Tables_number       1
_symmetry_cell_setting            triclinic
loop_
_symmetry_equiv_pos_as_xyz
'x, y, z'
_cell_length_a     24.042482
_cell_length_b     25.312527
_cell_length_c     24.433472
_cell_angle_alpha  90.09106
_cell_angle_beta   89.903273
_cell_angle_gamma 89.984401
loop_
_atom_site_label
_atom_site_type_symbol
_atom_site_fract_x
_atom_site_fract_y
_atom_site_fract_z
_atom_type_partial_charge
H0 H -0.00105 0.36614 0.5272 0.0
H1 H -0.00016 0.51163 0.61574 0.0
H2 H 0.97764 0.51025 0.43929 0.0
H3 H 0.0027 0.59086 0.44051 0.0
H4 H 0.97905 0.73508 0.52828 0.0
H5 H 0.96539 0.5891 0.61453 0.0
C6 C -0.00323 0.40894 0.52731 0.0
C7 C -0.00903 0.43571 0.47757 0.0
C8 C -0.00135 0.43613 0.57716 0.0
C9 C -0.00486 0.49165 0.57698 0.0
C10 C -0.01235 0.5204 0.52754 0.0
C11 C -0.01556 0.49096 0.47805 0.0
C12 C -0.01557 0.58043 0.52752 0.0
C13 C -0.0074 0.61003 0.47873 0.0
C14 C -0.01015 0.6656 0.47865 0.0
C15 C 0.98036 0.69226 0.52802 0.0
C16 C 0.97283 0.66472 0.57711 0.0
C17 C 0.9739 0.60914 0.57647 0.0
H18 H 0.49038 0.95586 0.71567 0.0
H19 H 0.57636 0.9439 0.56237 0.0
H20 H 0.39976 0.97474 0.56664 0.0
H21 H 0.403 0.94076 0.48351 0.0
H22 H 0.48376 1.00175 0.34063 0.0
H23 H 0.57168 0.99939 0.49257 0.0
C24 C 0.48947 0.9545 0.67133 0.0
C25 C 0.43897 0.96245 0.64409 0.0
C26 C 0.5393 0.94936 0.64197 0.0
C27 C 0.53788 0.94975 0.58462 0.0
C28 C 0.48788 0.95955 0.55643 0.0
C29 C 0.43858 0.96576 0.58691 0.0
C30 C 0.48773 0.96791 0.49603 0.0
C31 C 0.43952 0.95814 0.46487 0.0
C32 C 0.43751 0.97144 0.4093 0.0
C33 C 0.48501 0.99179 0.38375 0.0
C34 C 0.53377 1.00052 0.41356 0.0
C35 C 0.53469 0.98937 0.46962 0.0
H36 H 0.47834 0.73407 0.99523 0.0
H37 H 0.57162 0.59233 0.01841 0.0
H38 H 0.39468 0.58585 0.98395 0.0
H39 H 0.39767 0.50822 0.0185 0.0
H40 H 0.49111 0.36646 0.99525 0.0
H41 H 0.57462 0.5147 0.98352 0.0
C42 C 0.4799 0.69125 0.99611 0.0
C43 C 0.43084 0.66233 0.99031 0.0
C44 C 0.53078 0.66593 1.0046 0.0
C45 C 0.53215 0.6107 1.00938 0.0
C46 C 0.4835 0.58002 1.00147 0.0
C47 C 0.43286 0.60701 0.99177 0.0
C48 C 0.48582 0.52051 1.00145 0.0
C49 C 0.43717 0.48984 1.00945 0.0
C50 C 0.43857 0.43458 1.00467 0.0
C51 C 0.4895 0.40928 0.99612 0.0
C52 C 0.53854 0.43821 0.99007 0.0
C53 C 0.53648 0.49353 0.99154 0.0
C54 C -0.01071 0.17792 0.89295 0.0
C55 C -0.01383 0.17938 0.15954 0.0
C56 C 0.97996 0.92092 0.89455 0.0
C57 C -0.01612 0.92243 0.1614 0.0
C58 C 0.11664 0.92007 0.02125 0.0
C59 C 0.12149 0.17606 0.02882 0.0
C60 C 0.84734 0.92469 0.03053 0.0
C61 C 0.85265 0.18036 0.01819 0.0
C62 C 0.8498 0.05798 0.15872 0.0
C63 C 0.118 0.04055 0.15962 0.0
C64 C 0.85142 0.03942 0.89471 0.0
C65 C 0.12034 0.04267 0.89627 0.0
Eu66 Eu -0.01353 0.15071 0.02637 0.0
O67 O 0.03445 0.09715 0.0761 0.0
O68 O 0.93647 0.09808 0.97734 0.0
Eu69 Eu 0.08873 0.04854 0.02767 0.0
Eu70 Eu 0.88034 0.05205 0.02661 0.0
O71 O 0.03519 0.09649 0.97796 0.0
O72 O 0.93632 0.09842 0.07525 0.0
Eu73 Eu -0.01452 0.04954 0.92324 0.0
Eu74 Eu -0.01586 0.05069 0.13075 0.0
O75 O 0.03255 1.00205 0.97934 0.0
O76 O 0.03239 1.0023 0.07614 0.0
O77 O 0.93405 1.00381 0.07619 0.0
O78 O 0.93579 1.00399 0.9791 0.0
Eu79 Eu -0.01741 0.94933 0.02789 0.0
O80 O -0.01022 0.19448 0.94499 0.0
O81 O -0.01548 0.19554 0.10743 0.0
O82 O 0.97878 0.90482 0.9467 0.0
O83 O -0.01501 0.90568 0.10943 0.0
O84 O 0.13399 0.97016 0.02318 0.0
O85 O 0.13702 0.12539 0.02874 0.0
O86 O 0.83192 0.97539 0.03029 0.0
O87 O 0.83526 0.13025 0.01884 0.0
O88 O 0.90226 0.0547 0.17603 0.0
O89 O 0.06542 0.04374 0.17686 0.0
O90 O 0.90393 0.04353 0.87747 0.0
O91 O 0.06792 0.04373 0.87836 0.0
O92 O 0.89967 0.90713 0.02981 0.0
O93 O 0.06373 0.90429 0.02319 0.0
O94 O 0.90549 0.19605 0.02188 0.0
O95 O 0.0691 0.19345 0.02821 0.0
O96 O -0.01241 0.129 0.17584 0.0
O97 O 0.98192 0.97302 0.17714 0.0
O98 O -0.01285 0.12738 0.87694 0.0
O99 O -0.01662 0.97117 0.87818 0.0
O100 O 0.13607 0.04586 0.9484 0.0
O101 O 0.13474 0.0427 0.10765 0.0
O102 O 0.83457 0.04263 0.94665 0.0
O103 O 0.83353 0.05806 0.10654 0.0
H104 H 0.92206 0.44191 0.38739 0.0
H105 H 0.06561 0.3595 0.45013 0.0
H106 H 0.92148 0.38313 0.30726 0.0
H107 H 0.06498 0.30126 0.37092 0.0
H108 H 0.0005 0.16441 0.26943 0.0
H109 H 0.0023 0.2301 0.34164 0.0
H110 H 0.97535 0.35365 0.22303 0.0
H111 H 0.97296 0.2874 0.14982 0.0
C112 C 0.95392 0.41186 0.38369 0.0
C113 C -0.00671 0.40478 0.42558 0.0
C114 C 0.95359 0.37819 0.33786 0.0
C115 C -0.00741 0.33688 0.33322 0.0
C116 C 0.03351 0.33177 0.37385 0.0
C117 C 0.03389 0.36523 0.41926 0.0
C118 C -0.00511 0.20546 0.2583 0.0
C119 C -0.01316 0.22036 0.20342 0.0
C120 C -0.00373 0.24328 0.29991 0.0
C121 C -0.01049 0.29723 0.28812 0.0
C122 C 0.98053 0.31237 0.23347 0.0
C123 C 0.97949 0.27437 0.19151 0.0
H124 H 0.63939 0.96292 0.42133 0.0
H125 H 0.54073 0.08339 0.34264 0.0
H126 H 0.719 0.98706 0.36475 0.0
H127 H 0.62057 0.10814 0.28642 0.0
H128 H 0.73767 0.06538 0.14251 0.0
H129 H 0.66471 0.06164 0.21081 0.0
H130 H 0.78806 0.05361 0.33896 0.0
H131 H 0.86173 0.05622 0.27038 0.0
C132 C 0.63526 0.99545 0.39286 0.0
C133 C 0.58386 1.02074 0.38557 0.0
C134 C 0.68082 1.00942 0.3606 0.0
C135 C 0.67574 0.04906 0.32071 0.0
C136 C 0.6253 0.07672 0.3161 0.0
C137 C 0.57971 0.06259 0.34817 0.0
C138 C 0.74953 0.06327 0.18519 0.0
C139 C 0.80568 0.0604 0.2008 0.0
C140 C 0.70756 0.06167 0.22446 0.0
C141 C 0.72069 0.05731 0.28025 0.0
C142 C 0.77678 0.05642 0.29616 0.0
C143 C 0.81891 0.05802 0.25681 0.0
H144 H 0.93821 0.65044 0.3797 0.0
H145 H 0.05537 0.75215 0.462 0.0
H146 H 0.93839 0.71002 0.30073 0.0
H147 H 0.05633 0.81109 0.38332 0.0
H148 H -0.01228 0.93879 0.27222 0.0
H149 H -0.00744 0.87363 0.34464 0.0
H150 H -0.009 0.74825 0.22459 0.0
H151 H -0.01499 0.81377 0.15145 0.0
C152 C 0.96488 0.68492 0.38042 0.0
C153 C -0.00375 0.69691 0.42734 0.0
C154 C 0.96497 0.71914 0.33521 0.0
C155 C -0.00339 0.76599 0.33593 0.0
C156 C 0.03027 0.77622 0.3818 0.0
C157 C 0.02999 0.74227 0.42685 0.0
C158 C -0.01173 0.89741 0.26088 0.0
C159 C -0.01402 0.88185 0.20561 0.0
C160 C -0.00844 0.85987 0.30266 0.0
C161 C -0.00724 0.8055 0.29063 0.0
C162 C -0.01013 0.78973 0.23544 0.0
C163 C -0.01333 0.82742 0.19344 0.0
H164 H 0.42015 0.9303 0.30763 0.0
H165 H 0.33651 1.00892 0.44146 0.0
H166 H 0.33842 0.94316 0.25012 0.0
H167 H 0.25486 1.02234 0.38377 0.0
H168 H 0.10477 1.00711 0.26566 0.0
H169 H 0.17808 0.98178 0.32972 0.0
H170 H 0.30243 1.02541 0.21023 0.0
H171 H 0.22999 0.05015 0.14638 0.0
C172 C 0.38388 0.94955 0.3249 0.0
C173 C 0.38471 0.96917 0.37862 0.0
C174 C 0.3373 0.95715 0.29203 0.0
C175 C 0.29084 0.98475 0.31221 0.0
C176 C 0.29007 1.00088 0.36722 0.0
C177 C 0.33671 0.9931 0.40022 0.0
C178 C 0.14778 1.01182 0.25334 0.0
C179 C 0.16154 1.03043 0.2008 0.0
C180 C 0.18965 0.99711 0.28994 0.0
C181 C 0.24584 1.00068 0.27451 0.0
C182 C 0.25944 1.02082 0.22269 0.0
C183 C 0.21783 1.03545 0.18626 0.0
H184 H 0.02668 0.65059 0.67491 0.0
H185 H 0.90354 0.74828 0.59607 0.0
H186 H 0.02567 0.7096 0.75446 0.0
H187 H 0.90191 0.80672 0.67539 0.0
H188 H 0.97176 0.93656 0.78404 0.0
H189 H 0.96578 0.87098 0.712 0.0
H190 H 0.97296 0.74627 0.83217 0.0
H191 H 0.98004 0.81231 0.90504 0.0
C192 C -0.00152 0.68398 0.67513 0.0
C193 C 0.96568 0.69513 0.62896 0.0
C194 C -0.00208 0.71786 0.72067 0.0
C195 C 0.96444 0.76352 0.721 0.0
C196 C 0.9293 0.77275 0.67603 0.0
C197 C 0.92999 0.7391 0.63063 0.0
C198 C 0.97216 0.89525 0.79551 0.0
C199 C 0.97644 0.88001 0.85072 0.0
C200 C 0.96819 0.85748 0.75396 0.0
C201 C 0.96832 0.8032 0.76616 0.0
C202 C 0.97298 0.78772 0.82126 0.0
C203 C 0.97681 0.82567 0.86308 0.0
H204 H 0.35974 0.03851 0.62806 0.0
H205 H 0.40233 0.90675 0.73222 0.0
H206 H 0.27906 0.05747 0.68572 0.0
H207 H 0.32209 0.92616 0.79008 0.0
H208 H 0.22988 1.0241 0.91719 0.0
H209 H 0.30275 1.00286 0.85243 0.0
H210 H 0.18663 1.01852 0.71882 0.0
H211 H 0.11258 0.04034 0.78394 0.0
C212 C 0.35128 1.01303 0.66265 0.0
C213 C 0.38745 0.97132 0.67594 0.0
C214 C 0.30519 1.02396 0.69559 0.0
C215 C 0.29484 0.99357 0.74248 0.0
C216 C 0.32979 0.95069 0.75457 0.0
C217 C 0.37564 0.93965 0.72159 0.0
C218 C 0.21952 1.02354 0.87407 0.0
C219 C 0.16514 1.0339 0.85583 0.0
C220 C 0.26135 1.01082 0.83703 0.0
C221 C 0.25002 1.00837 0.78084 0.0
C222 C 0.19625 1.02014 0.76209 0.0
C223 C 0.15398 1.03256 0.79935 0.0
H224 H 0.06965 0.35455 0.59855 0.0
H225 H 0.93889 0.44727 0.67255 0.0
H226 H 0.06914 0.29527 0.67694 0.0
H227 H 0.93816 0.38753 0.75145 0.0
H228 H -0.0156 0.28637 0.90349 0.0
H229 H -0.00959 0.35265 0.83102 0.0
H230 H 0.00525 0.22843 0.71057 0.0
H231 H 8e-05 0.16249 0.78239 0.0
C232 C 0.04097 0.36245 0.63182 0.0
C233 C 0.00381 0.40528 0.62895 0.0
C234 C 0.04051 0.32831 0.6767 0.0
C235 C 0.00289 0.33595 0.72013 0.0
C236 C 0.96776 0.38049 0.71879 0.0
C237 C 0.96823 0.41482 0.67365 0.0
C238 C -0.01094 0.27313 0.86156 0.0
C239 C -0.00807 0.21881 0.84909 0.0
C240 C -0.00778 0.31123 0.81997 0.0
C241 C -0.00121 0.296 0.76493 0.0
C242 C 0.00125 0.24174 0.75255 0.0
C243 C -0.00218 0.20376 0.79392 0.0
H244 H 0.56864 0.89646 0.73517 0.0
H245 H 0.63037 1.00843 0.61639 0.0
H246 H 0.64881 0.91464 0.79348 0.0
H247 H 0.71032 1.02647 0.67452 0.0
H248 H 0.86551 1.02201 0.78451 0.0
H249 H 0.79567 0.99173 0.71921 0.0
H250 H 0.67108 0.99503 0.84672 0.0
H251 H 0.7402 1.02464 0.91197 0.0
C252 C 0.59982 0.92423 0.72115 0.0
C253 C 0.59297 0.9514 0.67156 0.0
C254 C 0.64552 0.93478 0.75452 0.0
C255 C 0.68519 0.97267 0.73889 0.0
C256 C 0.68051 0.99693 0.68749 0.0
C257 C 0.63478 0.98642 0.65412 0.0
C258 C 0.82314 1.01672 0.79857 0.0
C259 C 0.80857 1.02598 0.85358 0.0
C260 C 0.78325 0.9992 0.76116 0.0
C261 C 0.7282 0.99032 0.7781 0.0
C262 C 0.7135 1.00038 0.83276 0.0
C263 C 0.75313 1.01803 0.87003 0.0
H264 H 0.4086 0.35633 0.93492 0.0
H265 H 0.3527 0.43992 0.07912 0.0
H266 H 0.33012 0.29618 0.94251 0.0
H267 H 0.27326 0.37936 0.08658 0.0
H268 H 0.11172 0.28352 0.04198 0.0
H269 H 0.1856 0.3496 0.03644 0.0
H270 H 0.30616 0.22577 1.00961 0.0
H271 H 0.23297 0.15985 1.01455 0.0
C272 C 0.37938 0.36184 0.96826 0.0
C273 C 0.38721 0.40225 1.00697 0.0
C274 C 0.33452 0.32736 0.97262 0.0
C275 C 0.2962 0.33255 1.01567 0.0
C276 C 0.30229 0.37452 0.05299 0.0
C277 C 0.34756 0.40915 0.0487 0.0
C278 C 0.154 0.27033 0.035 0.0
C279 C 0.16626 0.21628 0.0283 0.0
C280 C 0.19627 0.30822 0.03217 0.0
C281 C 0.25144 0.29283 0.02208 0.0
C282 C 0.26381 0.23884 1.01656 0.0
C283 C 0.22181 0.20102 0.01974 0.0
H284 H 0.33596 0.6483 0.0498 0.0
H285 H 0.40662 0.74215 0.91978 0.0
H286 H 0.25588 0.70783 0.05398 0.0
H287 H 0.32649 0.80117 0.92325 0.0
H288 H 0.22824 0.93392 1.00496 0.0
H289 H 0.2987 0.86654 0.99149 0.0
H290 H 0.17381 0.74481 1.00701 0.0
H291 H 0.10285 0.81232 0.02158 0.0
C292 C 0.33348 0.68078 0.02108 0.0
C293 C 0.37758 0.69112 0.98492 0.0
C294 C 0.28777 0.7149 0.0235 0.0
C295 C 0.28548 0.75975 0.98966 0.0
C296 C 0.32778 0.7677 0.95078 0.0
C297 C 0.37341 0.73379 0.94853 0.0
C298 C 0.21555 0.89287 1.00576 0.0
C299 C 0.15972 0.8787 1.01453 0.0
C300 C 0.25598 0.85419 0.99741 0.0
C301 C 0.2417 0.80035 0.99759 0.0
C302 C 0.18606 0.78599 1.00682 0.0
C303 C 0.14544 0.82476 1.01505 0.0
H304 H 0.56223 0.35815 0.91935 0.0
H305 H 0.63405 0.45262 0.04835 0.0
H306 H 0.64246 0.29923 0.92187 0.0
H307 H 0.71433 0.39323 0.05147 0.0
H308 H 0.86701 0.2881 1.0168 0.0
H309 H 0.7961 0.35576 1.00289 0.0
H310 H 0.67048 0.23438 0.9907 0.0
H311 H 0.74078 0.16688 1.00372 0.0
C312 C 0.5957 0.36666 0.94767 0.0
C313 C 0.5918 0.40945 0.98411 0.0
C314 C 0.64141 0.33284 0.94935 0.0
C315 C 0.6841 0.341 0.98765 0.0
C316 C 0.68211 0.38599 0.02146 0.0
C317 C 0.63629 0.42003 0.01964 0.0
C318 C 0.82427 0.27577 1.01112 0.0
C319 C 0.80974 0.22187 1.01136 0.0
C320 C 0.78369 0.31462 1.00326 0.0
C321 C 0.72786 0.30037 0.99514 0.0
C322 C 0.71335 0.2466 0.99571 0.0
C323 C 0.75372 0.20786 1.00371 0.0
H324 H 0.56159 0.74345 0.93453 0.0
H325 H 0.61557 0.66133 0.07986 0.0
H326 H 0.63991 0.80377 0.94247 0.0
H327 H 0.69471 0.72213 0.08783 0.0
H328 H 0.85658 0.81757 0.04585 0.0
H329 H 0.78282 0.75147 0.03962 0.0
H330 H 0.66314 0.87494 1.00825 0.0
H331 H 0.73631 0.94085 1.01369 0.0
C332 C 0.59039 0.73831 0.96818 0.0
C333 C 0.5821 0.69825 1.00707 0.0
C334 C 0.63512 0.7729 0.97277 0.0
C335 C 0.6728 0.76821 1.0163 0.0
C336 C 0.66622 0.72659 0.05385 0.0
C337 C 0.62112 0.69182 0.04928 0.0
C338 C 0.81451 0.83067 0.03776 0.0
C339 C 0.8025 0.88459 0.02998 0.0
C340 C 0.77229 0.79278 0.03452 0.0
C341 C 0.71742 0.80804 0.02297 0.0
C342 C 0.70527 0.86195 1.01635 0.0
C343 C 0.74723 0.89978 0.01989 0.0
loop_
_geom_bond_atom_site_label_1
_geom_bond_atom_site_label_2
_geom_bond_distance
_geom_bond_site_symmetry_2
_ccdc_geom_bond_type
H0 C6 0.929 1_655 S
H1 C9 0.931 . S
H2 C11 0.930 1_655 S
H3 C13 0.930 . S
H4 C15 0.930 . S
H5 C17 0.931 1_655 S
C6 H0 0.929 1_455 S
C6 C7 1.380 1_455 S
C6 C8 1.394 . S
C7 C6 1.380 1_655 S
C7 C11 1.382 1_655 S
C8 C6 1.394 . S
C8 C9 1.400 . S
C9 H1 0.931 . S
C9 C8 1.400 . S
C9 C10 1.375 . S
C10 C9 1.375 . S
C10 C11 1.417 . S
C10 C12 1.501 . S
C11 H2 0.930 1_455 S
C11 C7 1.382 1_455 S
C11 C10 1.417 . S
C12 C10 1.501 . S
C12 C13 1.384 . S
C12 C17 1.408 . S
C13 H3 0.930 . S
C13 C12 1.384 . S
C13 C14 1.389 . S
C14 C13 1.389 . S
C14 C15 1.405 . S
C15 H4 0.930 . S
C15 C14 1.405 . S
C15 C16 1.365 . S
C16 C15 1.365 . S
C16 C17 1.401 . S
C17 H5 0.931 1_455 S
C17 C12 1.408 . S
C17 C16 1.401 . S
H18 C24 0.930 . S
H19 C27 0.931 . S
H20 C29 0.931 . S
H21 C31 0.930 . S
H22 C33 0.930 . S
H23 C35 0.931 . S
C24 H18 0.930 . S
C24 C25 1.380 . S
C24 C26 1.394 1_545 S
C25 C24 1.380 . S
C25 C29 1.382 . S
C26 C24 1.394 1_565 S
C26 C27 1.400 . S
C27 H19 0.931 . S
C27 C26 1.400 . S
C27 C28 1.375 . S
C28 C27 1.375 . S
C28 C29 1.415 1_565 S
C28 C30 1.501 . S
C29 H20 0.931 . S
C29 C25 1.382 . S
C29 C28 1.415 1_545 S
C30 C28 1.501 . S
C30 C31 1.384 . S
C30 C35 1.408 1_565 S
C31 H21 0.930 . S
C31 C30 1.384 . S
C31 C32 1.389 . S
C32 C31 1.389 . S
C32 C33 1.405 . S
C33 H22 0.930 . S
C33 C32 1.405 . S
C33 C34 1.364 1_565 S
C34 C33 1.364 1_545 S
C34 C35 1.400 . S
C35 H23 0.931 . S
C35 C30 1.408 1_545 S
C35 C34 1.400 . S
H36 C42 0.930 . S
H37 C45 0.931 . S
H38 C47 0.931 1_556 S
H39 C49 0.930 . S
H40 C51 0.930 . S
H41 C53 0.931 1_556 S
C42 H36 0.930 . S
C42 C43 1.380 1_554 S
C42 C44 1.394 . S
C43 C42 1.380 1_556 S
C43 C47 1.382 1_556 S
C44 C42 1.394 . S
C44 C45 1.400 . S
C45 H37 0.931 . S
C45 C44 1.400 . S
C45 C46 1.375 . S
C46 C45 1.375 . S
C46 C47 1.415 . S
C46 C48 1.501 . S
C47 H38 0.931 1_554 S
C47 C43 1.382 1_554 S
C47 C46 1.415 . S
C48 C46 1.501 . S
C48 C49 1.384 . S
C48 C53 1.408 . S
C49 H39 0.930 . S
C49 C48 1.384 . S
C49 C50 1.389 . S
C50 C49 1.389 . S
C50 C51 1.405 . S
C51 H40 0.930 . S
C51 C50 1.405 . S
C51 C52 1.364 . S
C52 C51 1.364 . S
C52 C53 1.400 . S
C53 H41 0.931 1_554 S
C53 C48 1.408 . S
C53 C52 1.400 . S
C54 O80 1.283 . S
C54 O98 1.283 . S
C55 O81 1.283 . S
C55 O96 1.283 . S
C56 O82 1.283 . S
C56 O99 1.283 . S
C57 O83 1.283 . S
C57 O97 1.283 . S
C58 O84 1.283 . S
C58 O93 1.283 . S
C59 O85 1.283 . S
C59 O95 1.283 . S
C60 O86 1.283 . S
C60 O92 1.283 . S
C61 O87 1.283 . S
C61 O94 1.283 . S
C62 O88 1.283 . S
C62 O103 1.283 . S
C63 O89 1.283 . S
C63 O101 1.283 . S
C64 O90 1.283 . S
C64 O102 1.283 . S
C65 O91 1.283 . S
C65 O100 1.283 . S
Eu66 O67 2.370 . S
Eu66 O68 2.370 1_454 S
Eu66 O71 2.370 1_554 S
Eu66 O72 2.370 1_455 S
Eu66 O80 2.363 1_554 S
Eu66 O81 2.363 . S
Eu66 O94 2.363 1_455 S
Eu66 O95 2.363 . S
O67 Eu66 2.370 . S
O67 Eu69 2.370 . S
O67 Eu74 2.371 . S
O68 Eu66 2.370 1_656 S
O68 Eu70 2.371 1_556 S
O68 Eu73 2.370 1_655 S
Eu69 O67 2.370 . S
Eu69 O71 2.370 1_554 S
Eu69 O75 2.371 1_544 S
Eu69 O76 2.371 1_545 S
Eu69 O84 2.364 1_545 S
Eu69 O85 2.362 . S
Eu69 O100 2.363 1_554 S
Eu69 O101 2.363 . S
Eu70 O68 2.371 1_554 S
Eu70 O72 2.371 . S
Eu70 O77 2.370 1_545 S
Eu70 O78 2.370 1_544 S
Eu70 O86 2.362 1_545 S
Eu70 O87 2.364 . S
Eu70 O102 2.363 1_554 S
Eu70 O103 2.363 . S
O71 Eu66 2.370 1_556 S
O71 Eu69 2.370 1_556 S
O71 Eu73 2.370 . S
O72 Eu66 2.370 1_655 S
O72 Eu70 2.371 . S
O72 Eu74 2.371 1_655 S
Eu73 O68 2.370 1_455 S
Eu73 O71 2.370 . S
Eu73 O75 2.371 1_545 S
Eu73 O78 2.371 1_445 S
Eu73 O90 2.363 1_455 S
Eu73 O91 2.363 . S
Eu73 O98 2.362 . S
Eu73 O99 2.364 1_545 S
Eu74 O67 2.371 . S
Eu74 O72 2.371 1_455 S
Eu74 O76 2.370 1_545 S
Eu74 O77 2.370 1_445 S
Eu74 O88 2.363 1_455 S
Eu74 O89 2.363 . S
Eu74 O96 2.364 . S
Eu74 O97 2.362 1_545 S
O75 Eu69 2.371 1_566 S
O75 Eu73 2.371 1_565 S
O75 Eu79 2.370 1_556 S
O76 Eu69 2.371 1_565 S
O76 Eu74 2.370 1_565 S
O76 Eu79 2.370 . S
O77 Eu70 2.370 1_565 S
O77 Eu74 2.370 1_665 S
O77 Eu79 2.370 1_655 S
O78 Eu70 2.370 1_566 S
O78 Eu73 2.371 1_665 S
O78 Eu79 2.370 1_656 S
Eu79 O75 2.370 1_554 S
Eu79 O76 2.370 . S
Eu79 O77 2.370 1_455 S
Eu79 O78 2.370 1_454 S
Eu79 O82 2.363 1_554 S
Eu79 O83 2.363 . S
Eu79 O92 2.363 1_455 S
Eu79 O93 2.363 . S
O80 C54 1.283 . S
O80 Eu66 2.363 1_556 S
O81 C55 1.283 . S
O81 Eu66 2.363 . S
O82 C56 1.283 . S
O82 Eu79 2.363 1_556 S
O83 C57 1.283 . S
O83 Eu79 2.363 . S
O84 C58 1.283 . S
O84 Eu69 2.364 1_565 S
O85 C59 1.283 . S
O85 Eu69 2.362 . S
O86 C60 1.283 . S
O86 Eu70 2.362 1_565 S
O87 C61 1.283 . S
O87 Eu70 2.364 . S
O88 C62 1.283 . S
O88 Eu74 2.363 1_655 S
O89 C63 1.283 . S
O89 Eu74 2.363 . S
O90 C64 1.283 . S
O90 Eu73 2.363 1_655 S
O91 C65 1.283 . S
O91 Eu73 2.363 . S
O92 C60 1.283 . S
O92 Eu79 2.363 1_655 S
O93 C58 1.283 . S
O93 Eu79 2.363 . S
O94 C61 1.283 . S
O94 Eu66 2.363 1_655 S
O95 C59 1.283 . S
O95 Eu66 2.363 . S
O96 C55 1.283 . S
O96 Eu74 2.364 . S
O97 C57 1.283 . S
O97 Eu74 2.362 1_565 S
O98 C54 1.283 . S
O98 Eu73 2.362 . S
O99 C56 1.283 . S
O99 Eu73 2.364 1_565 S
O100 C65 1.283 . S
O100 Eu69 2.363 1_556 S
O101 C63 1.283 . S
O101 Eu69 2.363 . S
O102 C64 1.283 . S
O102 Eu70 2.363 1_556 S
O103 C62 1.283 . S
O103 Eu70 2.363 . S
H104 C112 0.950 . S
H105 C117 0.950 . S
H106 C114 0.950 . S
H107 C116 0.950 . S
H108 C118 0.950 . S
H109 C120 0.950 . S
H110 C122 0.950 . S
H111 C123 0.950 . S
C112 H104 0.950 . S
C112 C113 1.386 . S
C112 C114 1.391 . S
C113 C112 1.386 . S
C113 C117 1.393 1_655 S
C114 H106 0.950 . S
C114 C112 1.391 . S
C114 C115 1.401 . S
C115 C114 1.401 . S
C115 C116 1.398 1_655 S
C115 C121 1.491 . S
C116 H107 0.950 . S
C116 C115 1.398 1_455 S
C116 C117 1.391 . S
C117 H105 0.950 . S
C117 C113 1.393 1_455 S
C117 C116 1.391 . S
C118 H108 0.950 . S
C118 C119 1.395 . S
C118 C120 1.391 . S
C119 C118 1.395 . S
C119 C123 1.384 1_455 S
C120 H109 0.950 . S
C120 C118 1.391 . S
C120 C121 1.392 1_455 S
C121 C115 1.491 . S
C121 C120 1.392 1_655 S
C121 C122 1.406 . S
C122 H110 0.950 . S
C122 C121 1.406 . S
C122 C123 1.391 . S
C123 H111 0.950 . S
C123 C119 1.384 1_655 S
C123 C122 1.391 . S
H124 C132 0.950 . S
H125 C137 0.950 . S
H126 C134 0.950 . S
H127 C136 0.950 . S
H128 C138 0.950 . S
H129 C140 0.950 . S
H130 C142 0.950 . S
H131 C143 0.950 . S
C132 H124 0.950 . S
C132 C133 1.386 1_565 S
C132 C134 1.391 . S
C133 C132 1.386 1_545 S
C133 C137 1.393 . S
C134 H126 0.950 . S
C134 C132 1.391 . S
C134 C135 1.400 1_565 S
C135 C134 1.400 1_545 S
C135 C136 1.398 . S
C135 C141 1.491 . S
C136 H127 0.950 . S
C136 C135 1.398 . S
C136 C137 1.391 . S
C137 H125 0.950 . S
C137 C133 1.393 . S
C137 C136 1.391 . S
C138 H128 0.950 . S
C138 C139 1.386 . S
C138 C140 1.391 . S
C139 C138 1.386 . S
C139 C143 1.393 1_545 S
C140 H129 0.950 . S
C140 C138 1.391 . S
C140 C141 1.400 . S
C141 C135 1.491 . S
C141 C140 1.400 . S
C141 C142 1.398 1_545 S
C142 H130 0.950 . S
C142 C141 1.398 1_565 S
C142 C143 1.391 . S
C143 H131 0.950 . S
C143 C139 1.393 1_565 S
C143 C142 1.391 . S
H144 C152 0.950 . S
H145 C157 0.950 . S
H146 C154 0.950 . S
H147 C156 0.950 . S
H148 C158 0.950 . S
H149 C160 0.950 . S
H150 C162 0.950 . S
H151 C163 0.950 . S
C152 H144 0.950 . S
C152 C153 1.386 1_655 S
C152 C154 1.391 . S
C153 C152 1.386 1_455 S
C153 C157 1.393 . S
C154 H146 0.950 . S
C154 C152 1.391 . S
C154 C155 1.400 1_655 S
C155 C154 1.400 1_455 S
C155 C156 1.398 . S
C155 C161 1.491 . S
C156 H147 0.950 . S
C156 C155 1.398 . S
C156 C157 1.391 . S
C157 H145 0.950 . S
C157 C153 1.393 . S
C157 C156 1.391 . S
C158 H148 0.950 . S
C158 C159 1.386 . S
C158 C160 1.391 . S
C159 C158 1.386 . S
C159 C163 1.393 1_455 S
C160 H149 0.950 . S
C160 C158 1.391 . S
C160 C161 1.400 . S
C161 C155 1.491 . S
C161 C160 1.400 . S
C161 C162 1.398 1_455 S
C162 H150 0.950 . S
C162 C161 1.398 1_655 S
C162 C163 1.391 . S
C163 H151 0.950 . S
C163 C159 1.393 1_655 S
C163 C162 1.391 . S
H164 C172 0.950 . S
H165 C177 0.950 . S
H166 C174 0.950 . S
H167 C176 0.950 . S
H168 C178 0.950 . S
H169 C180 0.950 . S
H170 C182 0.950 . S
H171 C183 0.950 . S
C172 H164 0.950 . S
C172 C173 1.386 . S
C172 C174 1.391 . S
C173 C172 1.386 . S
C173 C177 1.393 1_565 S
C174 H166 0.950 . S
C174 C172 1.391 . S
C174 C175 1.400 . S
C175 C174 1.400 . S
C175 C176 1.398 1_565 S
C175 C181 1.491 . S
C176 H167 0.950 . S
C176 C175 1.398 1_545 S
C176 C177 1.391 . S
C177 H165 0.950 . S
C177 C173 1.393 1_545 S
C177 C176 1.391 . S
C178 H168 0.950 . S
C178 C179 1.398 . S
C178 C180 1.391 . S
C179 C178 1.398 . S
C179 C183 1.380 1_545 S
C180 H169 0.950 . S
C180 C178 1.391 . S
C180 C181 1.400 1_545 S
C181 C175 1.491 . S
C181 C180 1.400 1_565 S
C181 C182 1.398 . S
C182 H170 0.950 . S
C182 C181 1.398 . S
C182 C183 1.391 . S
C183 H171 0.950 . S
C183 C179 1.380 1_565 S
C183 C182 1.391 . S
H184 C192 0.950 . S
H185 C197 0.950 . S
H186 C194 0.950 . S
H187 C196 0.950 . S
H188 C198 0.950 . S
H189 C200 0.950 . S
H190 C202 0.950 . S
H191 C203 0.950 . S
C192 H184 0.950 . S
C192 C193 1.386 1_455 S
C192 C194 1.391 . S
C193 C192 1.386 1_655 S
C193 C197 1.393 . S
C194 H186 0.950 . S
C194 C192 1.391 . S
C194 C195 1.390 1_455 S
C195 C194 1.390 1_655 S
C195 C196 1.409 . S
C195 C201 1.490 . S
C196 H187 0.950 . S
C196 C195 1.409 . S
C196 C197 1.391 . S
C197 H185 0.950 . S
C197 C193 1.393 . S
C197 C196 1.391 . S
C198 H188 0.950 . S
C198 C199 1.386 1_655 S
C198 C200 1.391 . S
C199 C198 1.386 1_455 S
C199 C203 1.393 . S
C200 H189 0.950 . S
C200 C198 1.391 . S
C200 C201 1.399 . S
C201 C195 1.490 . S
C201 C200 1.399 . S
C201 C202 1.400 1_655 S
C202 H190 0.950 . S
C202 C201 1.400 1_455 S
C202 C203 1.391 . S
C203 H191 0.950 . S
C203 C199 1.393 . S
C203 C202 1.391 . S
H204 C212 0.950 . S
H205 C217 0.950 . S
H206 C214 0.950 . S
H207 C216 0.950 . S
H208 C218 0.950 . S
H209 C220 0.950 . S
H210 C222 0.950 . S
H211 C223 0.950 . S
C212 H204 0.950 . S
C212 C213 1.386 . S
C212 C214 1.391 . S
C213 C212 1.386 . S
C213 C217 1.393 1_545 S
C214 H206 0.950 . S
C214 C212 1.391 . S
C214 C215 1.400 . S
C215 C214 1.400 . S
C215 C216 1.398 1_545 S
C215 C221 1.491 . S
C216 H207 0.950 . S
C216 C215 1.398 1_565 S
C216 C217 1.391 . S
C217 H205 0.950 . S
C217 C213 1.393 1_565 S
C217 C216 1.391 . S
C218 H208 0.950 . S
C218 C219 1.386 1_565 S
C218 C220 1.391 . S
C219 C218 1.386 1_545 S
C219 C223 1.393 . S
C220 H209 0.950 . S
C220 C218 1.391 . S
C220 C221 1.400 1_565 S
C221 C215 1.491 . S
C221 C220 1.400 1_545 S
C221 C222 1.398 . S
C222 H210 0.950 . S
C222 C221 1.398 . S
C222 C223 1.391 . S
C223 H211 0.950 . S
C223 C219 1.393 . S
C223 C222 1.391 . S
H224 C232 0.950 . S
H225 C237 0.950 . S
H226 C234 0.950 . S
H227 C236 0.950 . S
H228 C238 0.950 . S
H229 C240 0.950 . S
H230 C242 0.950 . S
H231 C243 0.950 . S
C232 H224 0.950 . S
C232 C233 1.386 . S
C232 C234 1.391 . S
C233 C232 1.386 . S
C233 C237 1.393 1_455 S
C234 H226 0.950 . S
C234 C232 1.391 . S
C234 C235 1.400 . S
C235 C234 1.400 . S
C235 C236 1.398 1_455 S
C235 C241 1.491 . S
C236 H227 0.950 . S
C236 C235 1.398 1_655 S
C236 C237 1.391 . S
C237 H225 0.950 . S
C237 C233 1.393 1_655 S
C237 C236 1.391 . S
C238 H228 0.950 . S
C238 C239 1.386 1_655 S
C238 C240 1.391 . S
C239 C238 1.386 1_455 S
C239 C243 1.393 . S
C240 H229 0.950 . S
C240 C238 1.391 . S
C240 C241 1.400 1_655 S
C241 C235 1.491 . S
C241 C240 1.400 1_455 S
C241 C242 1.398 . S
C242 H230 0.950 . S
C242 C241 1.398 . S
C242 C243 1.391 . S
C243 H231 0.950 . S
C243 C239 1.393 . S
C243 C242 1.391 . S
H244 C252 0.950 . S
H245 C257 0.950 . S
H246 C254 0.950 . S
H247 C256 0.950 . S
H248 C258 0.950 . S
H249 C260 0.950 . S
H250 C262 0.950 . S
H251 C263 0.950 . S
C252 H244 0.950 . S
C252 C253 1.386 . S
C252 C254 1.391 . S
C253 C252 1.386 . S
C253 C257 1.393 1_565 S
C254 H246 0.950 . S
C254 C252 1.391 . S
C254 C255 1.400 . S
C255 C254 1.400 . S
C255 C256 1.398 1_565 S
C255 C261 1.491 . S
C256 H247 0.950 . S
C256 C255 1.398 1_545 S
C256 C257 1.391 . S
C257 H245 0.950 . S
C257 C253 1.393 1_545 S
C257 C256 1.391 . S
C258 H248 0.950 . S
C258 C259 1.397 . S
C258 C260 1.391 . S
C259 C258 1.397 . S
C259 C263 1.381 1_545 S
C260 H249 0.950 . S
C260 C258 1.391 . S
C260 C261 1.400 1_545 S
C261 C255 1.491 . S
C261 C260 1.400 1_565 S
C261 C262 1.398 . S
C262 H250 0.950 . S
C262 C261 1.398 . S
C262 C263 1.391 . S
C263 H251 0.950 . S
C263 C259 1.381 1_565 S
C263 C262 1.391 . S
H264 C272 0.950 . S
H265 C277 0.950 . S
H266 C274 0.950 . S
H267 C276 0.950 . S
H268 C278 0.950 . S
H269 C280 0.950 . S
H270 C282 0.950 . S
H271 C283 0.950 . S
C272 H264 0.950 . S
C272 C273 1.386 1_556 S
C272 C274 1.391 . S
C273 C272 1.386 1_554 S
C273 C277 1.393 . S
C274 H266 0.950 . S
C274 C272 1.391 . S
C274 C275 1.400 1_556 S
C275 C274 1.400 1_554 S
C275 C276 1.398 . S
C275 C281 1.491 . S
C276 H267 0.950 . S
C276 C275 1.398 . S
C276 C277 1.391 . S
C277 H265 0.950 . S
C277 C273 1.393 . S
C277 C276 1.391 . S
C278 H268 0.950 . S
C278 C279 1.386 . S
C278 C280 1.391 . S
C279 C278 1.386 . S
C279 C283 1.393 1_554 S
C280 H269 0.950 . S
C280 C278 1.391 . S
C280 C281 1.400 . S
C281 C275 1.491 . S
C281 C280 1.400 . S
C281 C282 1.398 1_554 S
C282 H270 0.950 . S
C282 C281 1.398 1_556 S
C282 C283 1.391 . S
C283 H271 0.950 . S
C283 C279 1.393 1_556 S
C283 C282 1.391 . S
H284 C292 0.950 . S
H285 C297 0.950 . S
H286 C294 0.950 . S
H287 C296 0.950 . S
H288 C298 0.950 . S
H289 C300 0.950 . S
H290 C302 0.950 . S
H291 C303 0.950 . S
C292 H284 0.950 . S
C292 C293 1.376 1_554 S
C292 C294 1.391 . S
C293 C292 1.376 1_556 S
C293 C297 1.402 . S
C294 H286 0.950 . S
C294 C292 1.391 . S
C294 C295 1.410 . S
C295 C294 1.410 . S
C295 C296 1.389 1_554 S
C295 C301 1.491 . S
C296 H287 0.950 . S
C296 C295 1.389 1_556 S
C296 C297 1.391 . S
C297 H285 0.950 . S
C297 C293 1.402 . S
C297 C296 1.391 . S
C298 H288 0.950 . S
C298 C299 1.386 1_556 S
C298 C300 1.391 . S
C299 C298 1.386 1_554 S
C299 C303 1.393 . S
C300 H289 0.950 . S
C300 C298 1.391 . S
C300 C301 1.394 1_556 S
C301 C295 1.491 . S
C301 C300 1.394 1_554 S
C301 C302 1.405 . S
C302 H290 0.950 . S
C302 C301 1.405 . S
C302 C303 1.391 . S
C303 H291 0.950 . S
C303 C299 1.393 . S
C303 C302 1.391 . S
H304 C312 0.950 . S
H305 C317 0.950 . S
H306 C314 0.950 . S
H307 C316 0.950 . S
H308 C318 0.950 . S
H309 C320 0.950 . S
H310 C322 0.950 . S
H311 C323 0.950 . S
C312 H304 0.950 . S
C312 C313 1.386 . S
C312 C314 1.391 . S
C313 C312 1.386 . S
C313 C317 1.393 1_556 S
C314 H306 0.950 . S
C314 C312 1.391 . S
C314 C315 1.406 . S
C315 C314 1.406 . S
C315 C316 1.394 1_556 S
C315 C321 1.490 1_556 S
C316 H307 0.950 . S
C316 C315 1.394 1_554 S
C316 C317 1.391 . S
C317 H305 0.950 . S
C317 C313 1.393 1_554 S
C317 C316 1.391 . S
C318 H308 0.950 . S
C318 C319 1.386 . S
C318 C320 1.391 . S
C319 C318 1.386 . S
C319 C323 1.393 1_554 S
C320 H309 0.950 . S
C320 C318 1.391 . S
C320 C321 1.400 . S
C321 C315 1.490 1_554 S
C321 C320 1.400 . S
C321 C322 1.398 1_554 S
C322 H310 0.950 . S
C322 C321 1.398 1_556 S
C322 C323 1.391 . S
C323 H311 0.950 . S
C323 C319 1.393 1_556 S
C323 C322 1.391 . S
H324 C332 0.950 . S
H325 C337 0.950 . S
H326 C334 0.950 . S
H327 C336 0.950 . S
H328 C338 0.950 . S
H329 C340 0.950 . S
H330 C342 0.950 . S
H331 C343 0.950 . S
C332 H324 0.950 . S
C332 C333 1.386 1_556 S
C332 C334 1.391 . S
C333 C332 1.386 1_554 S
C333 C337 1.393 . S
C334 H326 0.950 . S
C334 C332 1.391 . S
C334 C335 1.400 1_556 S
C335 C334 1.400 1_554 S
C335 C336 1.398 . S
C335 C341 1.491 . S
C336 H327 0.950 . S
C336 C335 1.398 . S
C336 C337 1.391 . S
C337 H325 0.950 . S
C337 C333 1.393 . S
C337 C336 1.391 . S
C338 H328 0.950 . S
C338 C339 1.386 . S
C338 C340 1.391 . S
C339 C338 1.386 . S
C339 C343 1.393 1_554 S
C340 H329 0.950 . S
C340 C338 1.391 . S
C340 C341 1.400 . S
C341 C335 1.491 . S
C341 C340 1.400 . S
C341 C342 1.398 1_554 S
C342 H330 0.950 . S
C342 C341 1.398 1_556 S
C342 C343 1.391 . S
C343 H331 0.950 . S
C343 C339 1.393 1_556 S
C343 C342 1.391 . S
C119 C55 1.906 . S
C113 C7 1.889 . S
C139 C62 1.204 . S
C133 C34 1.185 . S
C159 C57 1.907 . S
C153 C14 1.889 . S
C179 C63 1.206 . S
C173 C32 1.204 . S
C193 C16 1.880 1_655 S
C199 C56 1.905 . S
C219 C65 1.205 . S
C213 C25 1.195 . S
C233 C8 1.890 . S
C239 C54 1.898 . S
C253 C26 1.199 . S
C259 C64 1.199 . S
C273 C50 1.520 . S
C279 C59 1.544 . S
C293 C43 1.514 . S
C299 C58 1.544 . S
C319 C61 1.543 . S
C313 C52 1.525 1_556 S
C339 C60 1.537 . S
C333 C44 1.514 . S
