# Generated by pormake.
# Topology ctn, (3,4)-cn, num edge types: 1
# Building blocks:
#     Node 0, Type 0, BuildingBlock: MIDCAF_clean_linker_0, # of connection points: 3
#     Node 1, Type 0, BuildingBlock: MIDCAF_clean_linker_0, # of connection points: 3
#     Node 2, Type 0, BuildingBlock: MIDCAF_clean_linker_0, # of connection points: 3
#     Node 3, Type 0, BuildingBlock: MIDCAF_clean_linker_0, # of connection points: 3
#     Node 4, Type 0, BuildingBlock: MIDCAF_clean_linker_0, # of connection points: 3
#     Node 5, Type 0, BuildingBlock: MIDCAF_clean_linker_0, # of connection points: 3
#     Node 6, Type 0, BuildingBlock: MIDCAF_clean_linker_0, # of connection points: 3
#     Node 7, Type 0, BuildingBlock: MIDCAF_clean_linker_0, # of connection points: 3
#     Node 8, Type 0, BuildingBlock: MIDCAF_clean_linker_0, # of connection points: 3
#     Node 9, Type 0, BuildingBlock: MIDCAF_clean_linker_0, # of connection points: 3
#     Node 10, Type 0, BuildingBlock: MIDCAF_clean_linker_0, # of connection points: 3
#     Node 11, Type 0, BuildingBlock: MIDCAF_clean_linker_0, # of connection points: 3
#     Node 12, Type 0, BuildingBlock: MIDCAF_clean_linker_0, # of connection points: 3
#     Node 13, Type 0, BuildingBlock: MIDCAF_clean_linker_0, # of connection points: 3
#     Node 14, Type 0, BuildingBlock: MIDCAF_clean_linker_0, # of connection points: 3
#     Node 15, Type 0, BuildingBlock: MIDCAF_clean_linker_0, # of connection points: 3
#     Node 16, Type 1, BuildingBlock: QUQFOY_clean_sbu_1, # of connection points: 4
#     Node 17, Type 1, BuildingBlock: QUQFOY_clean_sbu_1, # of connection points: 4
#     Node 18, Type 1, BuildingBlock: QUQFOY_clean_sbu_1, # of connection points: 4
#     Node 19, Type 1, BuildingBlock: QUQFOY_clean_sbu_1, # of connection points: 4
#     Node 20, Type 1, BuildingBlock: QUQFOY_clean_sbu_1, # of connection points: 4
#     Node 21, Type 1, BuildingBlock: QUQFOY_clean_sbu_1, # of connection points: 4
#     Node 22, Type 1, BuildingBlock: QUQFOY_clean_sbu_1, # of connection points: 4
#     Node 23, Type 1, BuildingBlock: QUQFOY_clean_sbu_1, # of connection points: 4
#     Node 24, Type 1, BuildingBlock: QUQFOY_clean_sbu_1, # of connection points: 4
#     Node 25, Type 1, BuildingBlock: QUQFOY_clean_sbu_1, # of connection points: 4
#     Node 26, Type 1, BuildingBlock: QUQFOY_clean_sbu_1, # of connection points: 4
#     Node 27, Type 1, BuildingBlock: QUQFOY_clean_sbu_1, # of connection points: 4
#     Edge 28, Type (0, 1), None
#     Edge 29, Type (0, 1), None
#     Edge 30, Type (0, 1), None
#     Edge 31, Type (0, 1), None
#     Edge 32, Type (0, 1), None
#     Edge 33, Type (0, 1), None
#     Edge 34, Type (0, 1), None
#     Edge 35, Type (0, 1), None
#     Edge 36, Type (0, 1), None
#     Edge 37, Type (0, 1), None
#     Edge 38, Type (0, 1), None
#     Edge 39, Type (0, 1), None
#     Edge 40, Type (0, 1), None
#     Edge 41, Type (0, 1), None
#     Edge 42, Type (0, 1), None
#     Edge 43, Type (0, 1), None
#     Edge 44, Type (0, 1), None
#     Edge 45, Type (0, 1), None
#     Edge 46, Type (0, 1), None
#     Edge 47, Type (0, 1), None
#     Edge 48, Type (0, 1), None
#     Edge 49, Type (0, 1), None
#     Edge 50, Type (0, 1), None
#     Edge 51, Type (0, 1), None
#     Edge 52, Type (0, 1), None
#     Edge 53, Type (0, 1), None
#     Edge 54, Type (0, 1), None
#     Edge 55, Type (0, 1), None
#     Edge 56, Type (0, 1), None
#     Edge 57, Type (0, 1), None
#     Edge 58, Type (0, 1), None
#     Edge 59, Type (0, 1), None
#     Edge 60, Type (0, 1), None
#     Edge 61, Type (0, 1), None
#     Edge 62, Type (0, 1), None
#     Edge 63, Type (0, 1), None
#     Edge 64, Type (0, 1), None
#     Edge 65, Type (0, 1), None
#     Edge 66, Type (0, 1), None
#     Edge 67, Type (0, 1), None
#     Edge 68, Type (0, 1), None
#     Edge 69, Type (0, 1), None
#     Edge 70, Type (0, 1), None
#     Edge 71, Type (0, 1), None
#     Edge 72, Type (0, 1), None
#     Edge 73, Type (0, 1), None
#     Edge 74, Type (0, 1), None
#     Edge 75, Type (0, 1), None
# Relax obj value: 0.038
# Max RMSD: 0.147
# Mean RMSD: 0.067
data_MOF--net-ctn--node1-QUQFOY_clean_sbu_1--node2-MIDCAF_clean_linker_0--edge1-none
_symmetry_space_group_name_H-M    P1
_symmetry_Int_Tables_number       1
_symmetry_cell_setting            triclinic
loop_
_symmetry_equiv_pos_as_xyz
'x, y, z'
_cell_length_a     36.912952
_cell_length_b     37.007286
_cell_length_c     36.999996
_cell_angle_alpha  93.036723
_cell_angle_beta   89.766694
_cell_angle_gamma 95.020702
loop_
_atom_site_label
_atom_site_type_symbol
_atom_site_fract_x
_atom_site_fract_y
_atom_site_fract_z
_atom_type_partial_charge
C0 C 0.93886 0.04079 0.13946 0.0
C1 C 0.94654 0.01017 0.15794 0.0
C2 C 0.97173 0.98723 0.14309 0.0
C3 C 0.98938 -0.00501 0.11076 0.0
H4 H 0.07756 0.97039 0.05608 0.0
H5 H 0.13052 0.93788 0.04171 0.0
H6 H 0.14901 -0.00125 0.94586 0.0
H7 H 0.09595 0.03156 0.9602 0.0
H8 H 0.05303 0.10726 0.95738 0.0
H9 H 0.03712 0.16031 0.92613 0.0
H10 H 0.93323 0.15511 0.98079 0.0
H11 H 0.94898 0.10269 0.01187 0.0
H12 H 0.95034 0.07254 0.09341 0.0
H13 H 0.91947 0.05889 0.15025 0.0
H14 H 0.97818 0.96334 0.1566 0.0
H15 H 0.00884 0.97678 0.10036 0.0
N16 N 0.03108 0.01598 0.04888 0.0
N17 N 0.04144 0.05171 -0.00118 0.0
N18 N 0.99324 0.06181 0.03866 0.0
C19 C 0.05075 0.02422 0.01896 0.0
C20 C 0.01252 0.0705 0.00851 0.0
C21 C 0.00237 0.03458 0.05896 0.0
C22 C 0.08247 0.00379 0.00934 0.0
C23 C 0.09276 0.97689 0.03183 0.0
C24 C 0.12319 0.95816 0.02365 0.0
C25 C 0.14397 0.96578 0.99274 0.0
C26 C 0.1335 -0.00774 0.96993 0.0
C27 C 0.10309 0.01112 0.97817 0.0
C28 C 0.00242 0.10093 0.98737 0.0
C29 C 0.02669 0.1173 0.96244 0.0
C30 C 0.01763 0.14772 0.9446 0.0
C31 C 0.98404 0.16202 0.95119 0.0
C32 C 0.95941 0.14488 0.9752 0.0
C33 C 0.96851 0.11481 0.99315 0.0
C34 C 0.98219 0.02584 0.09239 0.0
C35 C 0.95648 0.04853 0.10688 0.0
C36 C 0.22031 0.60906 0.25749 0.0
C37 C 0.1838 0.60614 0.24662 0.0
C38 C 0.17201 0.63158 0.22322 0.0
C39 C 0.19608 0.6603 0.2122 0.0
H40 H 0.21501 0.76091 0.14837 0.0
H41 H 0.21081 0.79868 0.0961 0.0
H42 H 0.32793 0.81758 0.09429 0.0
H43 H 0.33205 0.78106 0.14653 0.0
H44 H 0.3676 0.78567 0.23246 0.0
H45 H 0.41673 0.79827 0.27668 0.0
H46 H 0.36898 0.71188 0.34059 0.0
H47 H 0.32052 0.69934 0.29703 0.0
H48 H 0.27197 0.63919 0.25617 0.0
H49 H 0.23046 0.58973 0.27506 0.0
H50 H 0.14401 0.62988 0.21418 0.0
H51 H 0.18613 0.68023 0.19519 0.0
N52 N 0.25259 0.71718 0.18897 0.0
N53 N 0.30578 0.7539 0.20628 0.0
N54 N 0.28566 0.70456 0.23996 0.0
C55 C 0.27714 0.74605 0.18322 0.0
C56 C 0.30992 0.7333 0.23497 0.0
C57 C 0.25719 0.69609 0.21733 0.0
C58 C 0.27385 0.76817 0.15153 0.0
C59 C 0.23975 0.77323 0.1367 0.0
C60 C 0.23733 0.79491 0.10699 0.0
C61 C 0.26904 0.81095 0.09117 0.0
C62 C 0.30302 0.80544 0.10582 0.0
C63 C 0.30538 0.78464 0.13587 0.0
C64 C 0.34009 0.74153 0.2611 0.0
C65 C 0.36767 0.76943 0.25596 0.0
C66 C 0.39581 0.7766 0.28126 0.0
C67 C 0.3967 0.75608 0.31216 0.0
C68 C 0.36913 0.72826 0.31716 0.0
C69 C 0.34126 0.72105 0.29199 0.0
C70 C 0.23215 0.66399 0.22459 0.0
C71 C 0.24414 0.63757 0.24661 0.0
C72 C 0.96508 0.34721 0.00761 0.0
C73 C 0.96793 0.3548 0.97083 0.0
C74 C 0.96524 0.39043 0.96059 0.0
C75 C 0.95859 0.41776 0.98644 0.0
H76 H 0.89477 0.50222 -0.00569 0.0
H77 H 0.85585 0.54679 0.97462 0.0
H78 H 0.84664 0.58933 0.08504 0.0
H79 H 0.88605 0.54456 0.10497 0.0
H80 H 0.9411 0.51946 0.16143 0.0
H81 H 0.97953 0.53748 0.2133 0.0
H82 H 0.0473 0.45077 0.18533 0.0
H83 H 0.00884 0.43262 0.13273 0.0
H84 H 0.95684 0.36846 0.06187 0.0
H85 H 0.96722 0.31993 0.01617 0.0
H86 H 0.96722 0.39702 0.93242 0.0
H87 H 0.9559 0.44487 0.97766 0.0
N88 N 0.92463 0.46434 0.03957 0.0
N89 N 0.93106 0.49417 0.09671 0.0
N90 N 0.96085 0.44152 0.0835 0.0
C91 C 0.91657 0.49184 0.063 0.0
C92 C 0.9533 0.46924 0.10719 0.0
C93 C 0.94643 0.43902 0.04966 0.0
C94 C 0.89335 0.51962 0.05127 0.0
C95 C 0.88455 0.52103 0.0145 0.0
C96 C 0.86234 0.54677 0.00315 0.0
C97 C 0.84815 0.57156 0.0283 0.0
C98 C 0.85722 0.57056 0.06504 0.0
C99 C 0.87975 0.54489 0.07643 0.0
C100 C 0.97235 0.4751 0.14237 0.0
C101 C 0.96384 0.50378 0.16644 0.0
C102 C 0.9859 0.51418 0.19625 0.0
C103 C 0.0168 0.49598 0.20286 0.0
C104 C 0.02373 0.4654 0.18067 0.0
C105 C 0.00169 0.45506 0.15055 0.0
C106 C 0.95536 0.41019 0.02313 0.0
C107 C 0.95933 0.37488 0.0337 0.0
C108 C 0.77087 0.70711 0.16281 0.0
C109 C 0.73953 0.69909 0.14162 0.0
C110 C 0.7052 0.70215 0.15741 0.0
C111 C 0.70226 0.71551 0.19314 0.0
H112 H 0.64322 0.7204 0.30578 0.0
H113 H 0.58237 0.72608 0.33159 0.0
H114 H 0.60576 0.84248 0.3432 0.0
H115 H 0.66612 0.83702 0.31877 0.0
H116 H 0.74434 0.86878 0.31838 0.0
H117 H 0.77931 0.92712 0.3138 0.0
H118 H 0.84673 0.87977 0.23135 0.0
H119 H 0.81198 0.82154 0.23589 0.0
H120 H 0.79263 0.72991 0.21343 0.0
H121 H 0.7976 0.7047 0.1512 0.0
H122 H 0.6806 0.69554 0.14167 0.0
H123 H 0.67548 0.71963 0.20383 0.0
N124 N 0.69979 0.74955 0.26616 0.0
N125 N 0.72044 0.80456 0.2967 0.0
N126 N 0.7562 0.77941 0.25143 0.0
C127 C 0.69479 0.77621 0.29196 0.0
C128 C 0.7512 0.80639 0.27666 0.0
C129 C 0.73084 0.75085 0.24612 0.0
C130 C 0.6594 0.77821 0.31025 0.0
C131 C 0.63541 0.74706 0.31436 0.0
C132 C 0.60078 0.75028 0.32915 0.0
C133 C 0.58954 0.78474 0.339 0.0
C134 C 0.61376 0.81564 0.33554 0.0
C135 C 0.64844 0.8124 0.32172 0.0
C136 C 0.77529 0.84042 0.27744 0.0
C137 C 0.76684 0.87068 0.29951 0.0
C138 C 0.78666 0.90426 0.29667 0.0
C139 C 0.81535 0.90821 0.2718 0.0
C140 C 0.82444 0.87775 0.25048 0.0
C141 C 0.80468 0.84421 0.25331 0.0
C142 C 0.73367 0.72688 0.21334 0.0
C143 C 0.76798 0.72136 0.19835 0.0
C144 C 0.03305 0.90153 0.5732 0.0
C145 C -0.00203 0.8835 0.57086 0.0
C146 C 0.97362 0.89364 0.54493 0.0
C147 C 0.98421 0.92087 0.52148 0.0
H148 H -0.00413 0.94461 0.39566 0.0
H149 H 0.95916 0.95106 0.34188 0.0
H150 H 0.95623 0.06556 0.36992 0.0
H151 H -0.00524 0.05934 0.42297 0.0
H152 H 0.11956 0.03895 0.42909 0.0
H153 H 0.17553 0.07904 0.43834 0.0
H154 H 0.15462 0.08562 0.55336 0.0
H155 H 0.09946 0.04452 0.54426 0.0
H156 H 0.07087 0.94237 0.5522 0.0
H157 H 0.05238 0.89431 0.59295 0.0
H158 H 0.94639 0.88025 0.5424 0.0
H159 H 0.96473 0.9278 0.50172 0.0
N160 N 0.00996 0.97121 0.46842 0.0
N161 N 0.05078 0.01931 0.45106 0.0
N162 N 0.0614 0.98956 0.504 0.0
C163 C 0.0199 -0.00264 0.4451 0.0
C164 C 0.07168 0.01538 0.48036 0.0
C165 C 0.03049 0.9673 0.49813 0.0
C166 C -0.0022 0.00146 0.41313 0.0
C167 C 0.98758 0.97113 0.39006 0.0
C168 C 0.96696 0.97492 0.35929 0.0
C169 C 0.95526 0.00887 0.35187 0.0
C170 C 0.9652 0.03922 0.37514 0.0
C171 C 0.98703 0.03566 0.4053 0.0
C172 C 0.10545 0.03885 0.48604 0.0
C173 C 0.12713 0.04893 0.45632 0.0
C174 C 0.15906 0.07165 0.46156 0.0
C175 C 0.16902 0.08542 0.49646 0.0
C176 C 0.14722 0.07547 0.52614 0.0
C177 C 0.11591 0.05189 0.52102 0.0
C178 C 0.01933 0.93886 0.52357 0.0
C179 C 0.04358 0.9291 0.54989 0.0
C180 C 0.26666 0.79694 0.89654 0.0
C181 C 0.24801 0.82848 0.8982 0.0
C182 C 0.23029 0.83823 0.86711 0.0
C183 C 0.23013 0.81629 0.83538 0.0
H184 H 0.19042 0.80069 0.72217 0.0
H185 H 0.13 0.8121 0.70073 0.0
H186 H 0.09435 0.69858 0.7093 0.0
H187 H 0.15487 0.68707 0.72979 0.0
H188 H 0.27358 0.65765 0.71655 0.0
H189 H 0.30615 0.60266 0.72056 0.0
H190 H 0.29885 0.61275 0.8372 0.0
H191 H 0.2675 0.66727 0.8332 0.0
H192 H 0.2802 0.75019 0.86461 0.0
H193 H 0.2809 0.78892 0.91996 0.0
H194 H 0.21607 0.86263 0.8673 0.0
H195 H 0.21549 0.8243 0.81221 0.0
N196 N 0.21814 0.7638 0.77647 0.0
N197 N 0.22582 0.70663 0.74826 0.0
N198 N 0.25926 0.7271 0.80047 0.0
C199 C 0.20941 0.7383 0.7496 0.0
C200 C 0.25137 0.70133 0.7735 0.0
C201 C 0.24289 0.75845 0.80205 0.0
C202 C 0.17727 0.74295 0.72744 0.0
C203 C 0.16992 0.77802 0.71831 0.0
C204 C 0.13533 0.78463 0.70638 0.0
C205 C 0.10736 0.75642 0.70431 0.0
C206 C 0.11533 0.72098 0.71136 0.0
C207 C 0.15011 0.71422 0.72247 0.0
C208 C 0.26825 0.66672 0.77455 0.0
C209 C 0.27882 0.64776 0.74289 0.0
C210 C 0.29759 0.61655 0.74522 0.0
C211 C 0.30515 0.60354 0.7792 0.0
C212 C 0.29347 0.62203 0.81062 0.0
C213 C 0.27557 0.65337 0.80833 0.0
C214 C 0.24758 0.78401 0.83402 0.0
C215 C 0.26647 0.7749 0.86471 0.0
C216 C 0.00347 0.67528 0.58211 0.0
C217 C 0.97274 0.69464 0.588 0.0
C218 C 0.93958 0.68185 0.57164 0.0
C219 C 0.93705 0.64952 0.55021 0.0
H220 H 0.90072 0.51103 0.559 0.0
H221 H 0.84502 0.46926 0.5585 0.0
H222 H 0.83532 0.47883 0.44317 0.0
H223 H 0.89165 0.51886 0.44345 0.0
H224 H 0.019 0.49803 0.45312 0.0
H225 H 0.05843 0.48832 0.40051 0.0
H226 H 0.05658 0.6011 0.37677 0.0
H227 H 0.01872 0.61121 0.43021 0.0
H228 H 0.02531 0.62928 0.55535 0.0
H229 H 0.02939 0.68489 0.59437 0.0
H230 H 0.9156 0.69644 0.57596 0.0
H231 H 0.91116 0.63976 0.53799 0.0
N232 N 0.93613 0.5726 0.52311 0.0
N233 N 0.95975 0.53625 0.4764 0.0
N234 N 0.99209 0.59097 0.4964 0.0
C235 C 0.93329 0.54217 0.50096 0.0
C236 C 0.98933 0.56046 0.47425 0.0
C237 C 0.96557 0.59698 0.52096 0.0
C238 C 0.9002 0.51756 0.5012 0.0
C239 C 0.88655 0.50394 0.53367 0.0
C240 C 0.85491 0.48029 0.5334 0.0
C241 C 0.83605 0.47135 0.50086 0.0
C242 C 0.84934 0.48576 0.4686 0.0
C243 C 0.88156 0.50827 0.46869 0.0
C244 C 0.0161 0.55534 0.4455 0.0
C245 C 0.02774 0.5208 0.437 0.0
C246 C 0.05023 0.51528 0.40712 0.0
C247 C 0.06014 0.54397 0.38479 0.0
C248 C 0.04907 0.57863 0.39371 0.0
C249 C 0.02768 0.58443 0.42425 0.0
C250 C 0.96794 0.63045 0.54402 0.0
C251 C 0.00122 0.64369 0.55979 0.0
C252 C 0.92023 0.79866 0.77037 0.0
C253 C 0.91901 0.81425 0.73665 0.0
C254 C 0.89148 0.83711 0.73022 0.0
C255 C 0.86528 0.84357 0.75652 0.0
H256 H 0.75483 0.87709 0.77276 0.0
H257 H 0.7098 0.92092 0.76401 0.0
H258 H 0.70938 0.94702 0.87911 0.0
H259 H 0.75311 0.90242 0.88802 0.0
H260 H 0.75867 0.81768 0.92762 0.0
H261 H 0.74765 0.77271 0.97319 0.0
H262 H 0.83769 0.7162 0.9311 0.0
H263 H 0.84886 0.76089 0.88588 0.0
H264 H 0.89533 0.79205 0.82214 0.0
H265 H 0.94106 0.78093 0.77621 0.0
H266 H 0.8898 0.84973 0.70459 0.0
H267 H 0.84421 0.86091 0.75034 0.0
N268 N 0.81146 0.85614 0.81179 0.0
N269 N 0.78328 0.84094 0.8666 0.0
N270 N 0.83481 0.81277 0.84702 0.0
C271 C 0.78479 0.86064 0.83661 0.0
C272 C 0.80809 0.81673 0.87188 0.0
C273 C 0.83687 0.83247 0.81705 0.0
C274 C 0.75745 0.88655 0.83105 0.0
C275 C 0.74486 0.89208 0.79613 0.0
C276 C 0.71898 0.91686 0.79115 0.0
C277 C 0.70626 0.93722 0.8209 0.0
C278 C 0.71885 0.93163 0.85574 0.0
C279 C 0.7438 0.90613 0.86084 0.0
C280 C 0.8043 0.79263 0.90265 0.0
C281 C 0.77644 0.79594 0.92839 0.0
C282 C 0.77016 0.77023 0.95461 0.0
C283 C 0.79145 0.74063 0.9554 0.0
C284 C 0.82049 0.73846 0.93094 0.0
C285 C 0.82693 0.7642 0.90498 0.0
C286 C 0.86583 0.82718 0.78988 0.0
C287 C 0.89387 0.80496 0.79666 0.0
C288 C 0.42022 0.29866 0.27037 0.0
C289 C 0.419 0.31425 0.23665 0.0
C290 C 0.39147 0.33711 0.23021 0.0
C291 C 0.36527 0.34357 0.25652 0.0
H292 H 0.25481 0.37707 0.27275 0.0
H293 H 0.20978 0.4209 0.26399 0.0
H294 H 0.20936 0.447 0.37909 0.0
H295 H 0.25309 0.40241 0.388 0.0
H296 H 0.25865 0.31766 0.42761 0.0
H297 H 0.24764 0.2727 0.47318 0.0
H298 H 0.3377 0.21621 0.43111 0.0
H299 H 0.34886 0.2609 0.38589 0.0
H300 H 0.39532 0.29205 0.32214 0.0
H301 H 0.44106 0.28093 0.27621 0.0
H302 H 0.3898 0.34973 0.20459 0.0
H303 H 0.3442 0.36091 0.25033 0.0
N304 N 0.31145 0.35613 0.31179 0.0
N305 N 0.28326 0.34093 0.3666 0.0
N306 N 0.3348 0.31276 0.34702 0.0
C307 C 0.28477 0.36063 0.3366 0.0
C308 C 0.30808 0.31673 0.37188 0.0
C309 C 0.33686 0.33246 0.31705 0.0
C310 C 0.25743 0.38654 0.33104 0.0
C311 C 0.24484 0.39207 0.29612 0.0
C312 C 0.21896 0.41685 0.29113 0.0
C313 C 0.20624 0.4372 0.32088 0.0
C314 C 0.21883 0.43162 0.35573 0.0
C315 C 0.24378 0.40612 0.36083 0.0
C316 C 0.30429 0.29262 0.40264 0.0
C317 C 0.27643 0.29593 0.42838 0.0
C318 C 0.27015 0.27023 0.4546 0.0
C319 C 0.29145 0.24063 0.4554 0.0
C320 C 0.3205 0.23847 0.43094 0.0
C321 C 0.32693 0.26421 0.40498 0.0
C322 C 0.36582 0.32717 0.28988 0.0
C323 C 0.39386 0.30496 0.29666 0.0
C324 C 0.46512 0.84722 0.50759 0.0
C325 C 0.46796 0.85481 0.47081 0.0
C326 C 0.46528 0.89044 0.46056 0.0
C327 C 0.45864 0.91778 0.48641 0.0
H328 H 0.39484 0.00226 0.49428 0.0
H329 H 0.3559 0.04682 0.4746 0.0
H330 H 0.34669 0.08934 0.58503 0.0
H331 H 0.38611 0.04458 0.60494 0.0
H332 H 0.44114 0.01946 0.66142 0.0
H333 H 0.47955 0.03747 0.7133 0.0
H334 H 0.54735 0.95078 0.68531 0.0
H335 H 0.50891 0.93264 0.6327 0.0
H336 H 0.45689 0.86849 0.56185 0.0
H337 H 0.46725 0.81994 0.51614 0.0
H338 H 0.46725 0.89703 0.43239 0.0
H339 H 0.45595 0.94489 0.47763 0.0
N340 N 0.42469 0.96437 0.53954 0.0
N341 N 0.43113 -0.0058 0.59668 0.0
N342 N 0.46091 0.94155 0.58347 0.0
C343 C 0.41663 -0.00813 0.56297 0.0
C344 C 0.45336 0.96926 0.60716 0.0
C345 C 0.44649 0.93905 0.54963 0.0
C346 C 0.39342 0.01965 0.55125 0.0
C347 C 0.38462 0.02107 0.51447 0.0
C348 C 0.3624 0.0468 0.50313 0.0
C349 C 0.34821 0.07158 0.52828 0.0
C350 C 0.35727 0.07058 0.56503 0.0
C351 C 0.37981 0.04491 0.57641 0.0
C352 C 0.4724 0.97512 0.64235 0.0
C353 C 0.46388 0.00379 0.66643 0.0
C354 C 0.48594 0.01418 0.69624 0.0
C355 C 0.51684 -0.00402 0.70285 0.0
C356 C 0.52378 0.96541 0.68065 0.0
C357 C 0.50174 0.95507 0.65052 0.0
C358 C 0.45542 0.91021 0.5231 0.0
C359 C 0.45938 0.8749 0.53367 0.0
C360 C 0.27086 0.20711 0.66281 0.0
C361 C 0.23952 0.19909 0.64162 0.0
C362 C 0.2052 0.20216 0.65741 0.0
C363 C 0.20225 0.21552 0.69313 0.0
H364 H 0.14321 0.22041 0.80578 0.0
H365 H 0.08237 0.22609 0.8316 0.0
H366 H 0.10576 0.34249 0.84322 0.0
H367 H 0.16611 0.33703 0.81878 0.0
H368 H 0.24433 0.3688 0.81837 0.0
H369 H 0.2793 0.42714 0.81378 0.0
H370 H 0.34672 0.37977 0.73134 0.0
H371 H 0.31197 0.32154 0.73588 0.0
H372 H 0.29261 0.2299 0.71343 0.0
H373 H 0.29759 0.20469 0.65121 0.0
H374 H 0.18059 0.19555 0.64166 0.0
H375 H 0.17547 0.21964 0.70382 0.0
N376 N 0.19977 0.24956 0.76616 0.0
N377 N 0.22043 0.30457 0.79669 0.0
N378 N 0.25618 0.27942 0.75142 0.0
C379 C 0.19478 0.27622 0.79196 0.0
C380 C 0.25119 0.3064 0.77665 0.0
C381 C 0.23083 0.25085 0.74611 0.0
C382 C 0.1594 0.27822 0.81025 0.0
C383 C 0.1354 0.24707 0.81436 0.0
C384 C 0.10077 0.25029 0.82916 0.0
C385 C 0.08954 0.28475 0.83901 0.0
C386 C 0.11376 0.31565 0.83555 0.0
C387 C 0.14844 0.31241 0.82173 0.0
C388 C 0.27528 0.34043 0.77742 0.0
C389 C 0.26683 0.37069 0.79949 0.0
C390 C 0.28665 0.40427 0.79665 0.0
C391 C 0.31534 0.40821 0.77178 0.0
C392 C 0.32443 0.37775 0.75046 0.0
C393 C 0.30467 0.34422 0.7533 0.0
C394 C 0.23365 0.22689 0.71334 0.0
C395 C 0.26797 0.22136 0.69836 0.0
C396 C 0.72032 0.10908 0.7575 0.0
C397 C 0.68381 0.10616 0.74664 0.0
C398 C 0.67202 0.1316 0.72324 0.0
C399 C 0.69608 0.16032 0.71222 0.0
H400 H 0.71501 0.26093 0.64838 0.0
H401 H 0.71082 0.29869 0.59611 0.0
H402 H 0.82793 0.3176 0.5943 0.0
H403 H 0.83206 0.28107 0.64654 0.0
H404 H 0.86759 0.2857 0.73248 0.0
H405 H 0.91673 0.29829 0.77671 0.0
H406 H 0.86901 0.21187 0.84058 0.0
H407 H 0.82055 0.19933 0.79702 0.0
H408 H 0.77199 0.1392 0.75617 0.0
H409 H 0.73047 0.08974 0.77507 0.0
H410 H 0.64402 0.12989 0.7142 0.0
H411 H 0.68614 0.18025 0.69521 0.0
N412 N 0.7526 0.2172 0.68898 0.0
N413 N 0.80579 0.25392 0.70628 0.0
N414 N 0.78567 0.20458 0.73997 0.0
C415 C 0.77715 0.24607 0.68323 0.0
C416 C 0.80993 0.23332 0.73498 0.0
C417 C 0.7572 0.1961 0.71734 0.0
C418 C 0.77386 0.26818 0.65154 0.0
C419 C 0.73976 0.27325 0.63671 0.0
C420 C 0.73734 0.29493 0.607 0.0
C421 C 0.76904 0.31096 0.59118 0.0
C422 C 0.80303 0.30545 0.60583 0.0
C423 C 0.80539 0.28466 0.63588 0.0
C424 C 0.84011 0.24154 0.7611 0.0
C425 C 0.86768 0.26945 0.75597 0.0
C426 C 0.89581 0.27662 0.78128 0.0
C427 C 0.89671 0.25608 0.81216 0.0
C428 C 0.86915 0.22826 0.81716 0.0
C429 C 0.84128 0.22105 0.79198 0.0
C430 C 0.73216 0.16401 0.7246 0.0
C431 C 0.74415 0.13758 0.74662 0.0
C432 C 0.43886 0.5408 0.63946 0.0
C433 C 0.44654 0.51018 0.65793 0.0
C434 C 0.47173 0.48724 0.64308 0.0
C435 C 0.48938 0.495 0.61076 0.0
H436 H 0.57756 0.4704 0.55607 0.0
H437 H 0.63052 0.43788 0.54171 0.0
H438 H 0.64901 0.49875 0.44586 0.0
H439 H 0.59594 0.53156 0.4602 0.0
H440 H 0.55303 0.60726 0.45736 0.0
H441 H 0.53711 0.66031 0.42611 0.0
H442 H 0.43323 0.65512 0.48079 0.0
H443 H 0.44898 0.6027 0.51188 0.0
H444 H 0.45034 0.57255 0.59341 0.0
H445 H 0.41947 0.55889 0.65025 0.0
H446 H 0.47819 0.46334 0.6566 0.0
H447 H 0.50884 0.47679 0.60036 0.0
N448 N 0.53108 0.51598 0.54887 0.0
N449 N 0.54144 0.55172 0.49881 0.0
N450 N 0.49324 0.56182 0.53866 0.0
C451 C 0.55075 0.52422 0.51895 0.0
C452 C 0.51252 0.57051 0.50851 0.0
C453 C 0.50237 0.53459 0.55895 0.0
C454 C 0.58247 0.50379 0.50933 0.0
C455 C 0.59276 0.47689 0.53183 0.0
C456 C 0.62319 0.45816 0.52364 0.0
C457 C 0.64397 0.46578 0.49274 0.0
C458 C 0.6335 0.49226 0.46993 0.0
C459 C 0.60309 0.51112 0.47816 0.0
C460 C 0.50242 0.60093 0.48737 0.0
C461 C 0.52669 0.6173 0.46243 0.0
C462 C 0.51762 0.64772 0.44459 0.0
C463 C 0.48403 0.66202 0.45118 0.0
C464 C 0.4594 0.64489 0.4752 0.0
C465 C 0.46851 0.61482 0.49315 0.0
C466 C 0.48219 0.52585 0.59239 0.0
C467 C 0.45648 0.54853 0.60687 0.0
C468 C 0.53303 0.40154 0.0732 0.0
C469 C 0.49796 0.38351 0.07086 0.0
C470 C 0.47361 0.39365 0.04494 0.0
C471 C 0.48419 0.42088 0.02148 0.0
H472 H 0.49583 0.44461 0.89568 0.0
H473 H 0.45913 0.45106 0.84189 0.0
H474 H 0.45621 0.56556 0.86991 0.0
H475 H 0.49474 0.55935 0.92296 0.0
H476 H 0.61953 0.53897 0.9291 0.0
H477 H 0.6755 0.57906 0.93834 0.0
H478 H 0.6546 0.58564 0.05337 0.0
H479 H 0.59944 0.54454 0.04427 0.0
H480 H 0.57085 0.44239 0.05221 0.0
H481 H 0.55237 0.39433 0.09296 0.0
H482 H 0.44638 0.38025 0.0424 0.0
H483 H 0.46472 0.4278 0.00173 0.0
N484 N 0.50994 0.47123 0.96843 0.0
N485 N 0.55075 0.51933 0.95107 0.0
N486 N 0.56137 0.48958 0.00401 0.0
C487 C 0.51987 0.49737 0.94511 0.0
C488 C 0.57165 0.5154 0.98037 0.0
C489 C 0.53047 0.46731 -0.00186 0.0
C490 C 0.49777 0.50147 0.91313 0.0
C491 C 0.48755 0.47114 0.89007 0.0
C492 C 0.46693 0.47493 0.85929 0.0
C493 C 0.45524 0.50887 0.85187 0.0
C494 C 0.46518 0.53923 0.87514 0.0
C495 C 0.48701 0.53567 0.9053 0.0
C496 C 0.60542 0.53888 0.98605 0.0
C497 C 0.62709 0.54895 0.95632 0.0
C498 C 0.65903 0.57167 0.96156 0.0
C499 C 0.66899 0.58544 -0.00354 0.0
C500 C 0.64719 0.57549 0.02615 0.0
C501 C 0.61588 0.55191 0.02103 0.0
C502 C 0.51931 0.43887 0.02358 0.0
C503 C 0.54356 0.42911 0.04989 0.0
C504 C 0.76666 0.29693 0.39655 0.0
C505 C 0.74801 0.32848 0.39821 0.0
C506 C 0.73029 0.33822 0.36711 0.0
C507 C 0.73012 0.31628 0.33539 0.0
H508 H 0.69042 0.30067 0.22218 0.0
H509 H 0.63 0.31208 0.20073 0.0
H510 H 0.59434 0.19857 0.20932 0.0
H511 H 0.65486 0.18706 0.22981 0.0
H512 H 0.77357 0.15763 0.21657 0.0
H513 H 0.80615 0.10265 0.22058 0.0
H514 H 0.79885 0.11274 0.33721 0.0
H515 H 0.7675 0.16726 0.33322 0.0
H516 H 0.78019 0.25018 0.36463 0.0
H517 H 0.78089 0.28891 0.41997 0.0
H518 H 0.71607 0.36263 0.3673 0.0
H519 H 0.71549 0.32429 0.31222 0.0
N520 N 0.71813 0.26379 0.27649 0.0
N521 N 0.72581 0.20661 0.24828 0.0
N522 N 0.75925 0.22708 0.30049 0.0
C523 C 0.70941 0.23828 0.24962 0.0
C524 C 0.75136 0.20132 0.27352 0.0
C525 C 0.74288 0.25844 0.30206 0.0
C526 C 0.67726 0.24293 0.22746 0.0
C527 C 0.66991 0.278 0.21831 0.0
C528 C 0.63533 0.28462 0.20639 0.0
C529 C 0.60736 0.25641 0.20432 0.0
C530 C 0.61532 0.22096 0.21138 0.0
C531 C 0.6501 0.2142 0.22248 0.0
C532 C 0.76824 0.1667 0.27457 0.0
C533 C 0.77881 0.14774 0.24291 0.0
C534 C 0.79759 0.11654 0.24524 0.0
C535 C 0.80515 0.10353 0.27922 0.0
C536 C 0.79347 0.12202 0.31063 0.0
C537 C 0.77557 0.15336 0.30835 0.0
C538 C 0.74757 0.284 0.33403 0.0
C539 C 0.76647 0.27489 0.36472 0.0
C540 C 0.50347 0.17528 0.08212 0.0
C541 C 0.47274 0.19464 0.088 0.0
C542 C 0.43958 0.18185 0.07164 0.0
C543 C 0.43705 0.14952 0.05021 0.0
H544 H 0.40072 0.01102 0.059 0.0
H545 H 0.34502 0.96926 0.05851 0.0
H546 H 0.33532 0.97883 0.94317 0.0
H547 H 0.39164 0.01886 0.94345 0.0
H548 H 0.519 -0.00197 0.95313 0.0
H549 H 0.55844 0.98832 0.90052 0.0
H550 H 0.55658 0.1011 0.87678 0.0
H551 H 0.51871 0.11121 0.93021 0.0
H552 H 0.52531 0.12927 0.05536 0.0
H553 H 0.52939 0.18488 0.09438 0.0
H554 H 0.4156 0.19644 0.07596 0.0
H555 H 0.41116 0.13976 0.03799 0.0
N556 N 0.43613 0.0726 0.02311 0.0
N557 N 0.45975 0.03625 0.9764 0.0
N558 N 0.49209 0.09097 -0.00359 0.0
C559 C 0.43329 0.04217 0.00097 0.0
C560 C 0.48933 0.06046 0.97426 0.0
C561 C 0.46557 0.09698 0.02096 0.0
C562 C 0.4002 0.01756 0.0012 0.0
C563 C 0.38655 0.00393 0.03368 0.0
C564 C 0.35492 0.98028 0.0334 0.0
C565 C 0.33605 0.97135 0.00087 0.0
C566 C 0.34934 0.98576 0.96861 0.0
C567 C 0.38156 0.00827 0.96869 0.0
C568 C 0.51611 0.05534 0.94551 0.0
C569 C 0.52775 0.0208 0.937 0.0
C570 C 0.55024 0.01529 0.90713 0.0
C571 C 0.56015 0.04397 0.8848 0.0
C572 C 0.54907 0.07863 0.89372 0.0
C573 C 0.52768 0.08443 0.92426 0.0
C574 C 0.46794 0.13045 0.04403 0.0
C575 C 0.50122 0.14368 0.0598 0.0
O576 O 0.26488 0.84398 0.95951 0.0
Cd577 Cd 0.26847 0.87047 0.0102 0.0
Cd578 Cd 0.22995 0.91928 0.97235 0.0
O579 O 0.22945 0.87939 0.93248 0.0
O580 O 0.2952 0.83702 0.03828 0.0
O581 O 0.23949 0.85015 0.05233 0.0
C582 C 0.26753 0.8332 0.05938 0.0
C583 C 0.1769 0.94689 0.98471 0.0
C584 C 0.24722 0.85155 0.93187 0.0
C585 C 0.30365 0.9456 -0.00032 0.0
O586 O 0.27762 0.95097 0.97899 0.0
O587 O 0.30357 0.91673 0.01668 0.0
O588 O 0.19546 0.95325 0.95583 0.0
O589 O 0.18835 0.92423 0.00655 0.0
O590 O 0.16916 0.55691 0.28437 0.0
Cd591 Cd 0.14388 0.51235 0.30894 0.0
Cd592 Cd 0.08617 0.53889 0.2709 0.0
O593 O 0.12551 0.57385 0.25017 0.0
O594 O 0.1845 0.49489 0.33646 0.0
O595 O 0.15698 0.46264 0.29091 0.0
C596 C 0.18159 0.46571 0.31584 0.0
C597 C 0.04321 0.51144 0.23043 0.0
C598 C 0.15824 0.57736 0.26082 0.0
C599 C 0.07983 0.53745 0.35097 0.0
O600 O 0.06883 0.55029 0.32235 0.0
O601 O 0.10708 0.51879 0.35056 0.0
O602 O 0.04267 0.54488 0.2418 0.0
O603 O 0.06845 0.49307 0.2423 0.0
O604 O 0.75906 0.7139 0.00485 0.0
Cd605 Cd 0.74252 0.67472 0.04112 0.0
Cd606 Cd 0.77957 0.63278 -0.00392 0.0
O607 O 0.7949 0.68026 0.97236 0.0
O608 O 0.71799 0.70041 0.08109 0.0
O609 O 0.76802 0.67269 0.08886 0.0
C610 C 0.7421 0.69032 0.10255 0.0
C611 C 0.82275 0.597 0.01606 0.0
C612 C 0.78184 0.71046 0.97925 0.0
C613 C 0.70192 0.61014 0.00227 0.0
O614 O 0.72998 0.60607 0.98319 0.0
O615 O 0.70231 0.63469 0.02746 0.0
O616 O 0.81545 0.59807 0.98209 0.0
O617 O 0.80612 0.61747 0.03887 0.0
O618 O 0.93557 -0.00762 0.29235 0.0
Cd619 Cd 0.90279 0.98771 0.24776 0.0
Cd620 Cd 0.85826 0.02131 0.29116 0.0
O621 O 0.90253 0.02835 0.32544 0.0
O622 O 0.93568 0.97306 0.20853 0.0
O623 O 0.90703 0.02317 0.2084 0.0
C624 C 0.92898 0.00193 0.19273 0.0
C625 C 0.82534 0.07115 0.28278 0.0
C626 C 0.93075 0.0113 0.32123 0.0
C627 C 0.83696 0.94335 0.26914 0.0
O628 O 0.83011 0.97054 0.28967 0.0
O629 O 0.86377 0.94555 0.24766 0.0
O630 O 0.82394 0.05469 0.31264 0.0
O631 O 0.84558 0.05915 0.25705 0.0
O632 O 0.25906 0.2139 0.50485 0.0
Cd633 Cd 0.24253 0.17471 0.54112 0.0
Cd634 Cd 0.2796 0.13278 0.49608 0.0
O635 O 0.29491 0.18026 0.47236 0.0
O636 O 0.21799 0.2004 0.58109 0.0
O637 O 0.26803 0.1727 0.58886 0.0
C638 C 0.2421 0.19031 0.60255 0.0
C639 C 0.32279 0.09701 0.51606 0.0
C640 C 0.28185 0.21046 0.47925 0.0
C641 C 0.20195 0.11013 0.50227 0.0
O642 O 0.23001 0.10606 0.48319 0.0
O643 O 0.20233 0.13468 0.52746 0.0
O644 O 0.31548 0.09808 0.48208 0.0
O645 O 0.30615 0.11748 0.53886 0.0
O646 O 0.43556 0.49238 0.79234 0.0
Cd647 Cd 0.40279 0.48771 0.74776 0.0
Cd648 Cd 0.35826 0.52131 0.79114 0.0
O649 O 0.40252 0.52835 0.82542 0.0
O650 O 0.43568 0.47307 0.70852 0.0
O651 O 0.40703 0.52317 0.70839 0.0
C652 C 0.42898 0.50193 0.69273 0.0
C653 C 0.32534 0.57116 0.78276 0.0
C654 C 0.43074 0.5113 0.82122 0.0
C655 C 0.33695 0.44336 0.76913 0.0
O656 O 0.33009 0.47054 0.78965 0.0
O657 O 0.36376 0.44555 0.74764 0.0
O658 O 0.32393 0.5547 0.81262 0.0
O659 O 0.34558 0.55916 0.75703 0.0
O660 O 0.76487 0.34398 0.45952 0.0
Cd661 Cd 0.76846 0.37047 0.5102 0.0
Cd662 Cd 0.72995 0.41929 0.47234 0.0
O663 O 0.72945 0.37939 0.43248 0.0
O664 O 0.7952 0.33702 0.53829 0.0
O665 O 0.73949 0.35016 0.55233 0.0
C666 C 0.76753 0.33321 0.55939 0.0
C667 C 0.6769 0.44689 0.4847 0.0
C668 C 0.74722 0.35155 0.43187 0.0
C669 C 0.80365 0.44561 0.49968 0.0
O670 O 0.77762 0.45098 0.47899 0.0
O671 O 0.80357 0.41674 0.51668 0.0
O672 O 0.69546 0.45325 0.45582 0.0
O673 O 0.68835 0.42424 0.50655 0.0
O674 O 0.66918 0.05693 0.78439 0.0
Cd675 Cd 0.6439 0.01237 0.80895 0.0
Cd676 Cd 0.58619 0.03889 0.77091 0.0
O677 O 0.62553 0.07386 0.75019 0.0
O678 O 0.68452 -0.0051 0.83648 0.0
O679 O 0.657 0.96265 0.79092 0.0
C680 C 0.68161 0.96573 0.81586 0.0
C681 C 0.54323 0.01145 0.73043 0.0
C682 C 0.65826 0.07738 0.76084 0.0
C683 C 0.57984 0.03745 0.85098 0.0
O684 O 0.56883 0.05028 0.82236 0.0
O685 O 0.60709 0.0188 0.85057 0.0
O686 O 0.54269 0.04488 0.7418 0.0
O687 O 0.56848 -0.00693 0.7423 0.0
O688 O 0.96058 0.29327 0.94837 0.0
Cd689 Cd 0.96022 0.24956 0.91134 0.0
Cd690 Cd -0.006 0.29793 0.8699 0.0
O691 O 0.9865 0.33377 0.9127 0.0
O692 O 0.94362 0.20761 0.94026 0.0
O693 O -0.00203 0.21384 0.91483 0.0
C694 C 0.97486 0.1954 0.93446 0.0
C695 C 0.05225 0.28927 0.85117 0.0
C696 C 0.97238 0.32576 0.94286 0.0
C697 C 0.926 0.26338 0.83929 0.0
O698 O 0.95234 0.2868 0.83386 0.0
O699 O 0.9246 0.24597 0.86808 0.0
O700 O 0.03712 0.31817 0.84383 0.0
O701 O 0.03404 0.26489 0.86926 0.0
O702 O 0.4606 0.79328 0.44836 0.0
Cd703 Cd 0.46022 0.74957 0.41133 0.0
Cd704 Cd 0.494 0.79792 0.36988 0.0
O705 O 0.48651 0.83376 0.41268 0.0
O706 O 0.44362 0.70762 0.44026 0.0
O707 O 0.49796 0.71384 0.41482 0.0
C708 C 0.47486 0.6954 0.43445 0.0
C709 C 0.55225 0.78926 0.35115 0.0
C710 C 0.4724 0.82577 0.44284 0.0
C711 C 0.42599 0.76337 0.33928 0.0
O712 O 0.45234 0.78678 0.33384 0.0
O713 O 0.42459 0.74597 0.36808 0.0
O714 O 0.53712 0.81815 0.3438 0.0
O715 O 0.53404 0.76488 0.36925 0.0
O716 O 0.9718 0.78732 0.71404 0.0
Cd717 Cd 0.01032 0.76931 0.67767 0.0
Cd718 Cd 0.96818 0.80535 0.62963 0.0
O719 O 0.93932 0.81524 0.67585 0.0
O720 O 0.04296 0.74205 0.70642 0.0
O721 O 0.06255 0.79051 0.67705 0.0
C722 C 0.06973 0.76356 0.69583 0.0
C723 C 0.98669 0.85374 0.59463 0.0
C724 C 0.94501 0.80551 0.70758 0.0
C725 C 0.97585 0.7279 0.6114 0.0
O726 O 0.96019 0.75537 0.60291 0.0
O727 O -0.00389 0.72916 0.63902 0.0
O728 O 0.95341 0.83984 0.5945 0.0
O729 O 0.00966 0.84036 0.61536 0.0
O730 O 0.4718 0.28732 0.21404 0.0
Cd731 Cd 0.51032 0.2693 0.17768 0.0
Cd732 Cd 0.46818 0.30535 0.12963 0.0
O733 O 0.43932 0.31524 0.17585 0.0
O734 O 0.54295 0.24204 0.20643 0.0
O735 O 0.56255 0.2905 0.17705 0.0
C736 C 0.56972 0.26355 0.19584 0.0
C737 C 0.48668 0.35374 0.09464 0.0
C738 C 0.44501 0.30551 0.20758 0.0
C739 C 0.47585 0.2279 0.1114 0.0
O740 O 0.4602 0.25537 0.10291 0.0
O741 O 0.49611 0.22916 0.13902 0.0
O742 O 0.45341 0.33984 0.0945 0.0
O743 O 0.50966 0.34036 0.11537 0.0
loop_
_geom_bond_atom_site_label_1
_geom_bond_atom_site_label_2
_geom_bond_distance
_geom_bond_site_symmetry_2
_ccdc_geom_bond_type
C0 C1 1.384 . S
C0 H13 0.947 1_455 S
C0 C35 1.382 . S
C1 C0 1.384 . S
C1 C2 1.378 . S
C2 C1 1.378 . S
C2 C3 1.378 . S
C2 H14 0.952 . S
C3 C2 1.378 . S
C3 H15 0.950 . S
C3 C34 1.383 . S
H4 C23 0.947 . S
H5 C24 0.946 . S
H6 C26 0.953 . S
H7 C27 0.945 . S
H8 C29 0.952 . S
H9 C30 0.923 1_556 S
H10 C32 0.950 . S
H11 C33 0.948 . S
H12 C35 0.951 . S
H13 C0 0.947 1_655 S
H14 C2 0.952 . S
H15 C3 0.950 . S
N16 C19 1.382 . S
N16 C21 1.363 . S
N17 C19 1.371 . S
N17 C20 1.372 . S
N18 C20 1.361 . S
N18 C21 1.377 . S
C19 N16 1.382 . S
C19 N17 1.371 . S
C19 C22 1.480 . S
C20 N17 1.372 . S
C20 N18 1.361 . S
C20 C28 1.457 . S
C21 N16 1.363 . S
C21 N18 1.377 . S
C21 C34 1.479 . S
C22 C19 1.480 . S
C22 C23 1.383 . S
C22 C27 1.385 . S
C23 H4 0.947 . S
C23 C22 1.383 . S
C23 C24 1.388 . S
C24 H5 0.946 . S
C24 C23 1.388 . S
C24 C25 1.384 . S
C25 C24 1.384 . S
C25 C26 1.377 . S
C26 H6 0.953 . S
C26 C25 1.377 . S
C26 C27 1.369 . S
C27 H7 0.945 . S
C27 C22 1.385 . S
C27 C26 1.369 . S
C28 C20 1.457 . S
C28 C29 1.372 . S
C28 C33 1.364 . S
C29 H8 0.952 . S
C29 C28 1.372 . S
C29 C30 1.389 . S
C30 H9 0.923 1_554 S
C30 C29 1.389 . S
C30 C31 1.387 . S
C31 C30 1.387 . S
C31 C32 1.372 . S
C32 H10 0.950 . S
C32 C31 1.372 . S
C32 C33 1.379 . S
C33 H11 0.948 . S
C33 C28 1.364 . S
C33 C32 1.379 . S
C34 C3 1.383 . S
C34 C21 1.479 . S
C34 C35 1.398 . S
C35 C0 1.382 . S
C35 H12 0.951 . S
C35 C34 1.398 . S
C36 C37 1.384 . S
C36 H49 0.947 . S
C36 C71 1.382 . S
C37 C36 1.384 . S
C37 C38 1.378 . S
C38 C37 1.378 . S
C38 C39 1.378 . S
C38 H50 0.952 . S
C39 C38 1.378 . S
C39 H51 0.950 . S
C39 C70 1.383 . S
H40 C59 0.947 . S
H41 C60 0.946 . S
H42 C62 0.953 . S
H43 C63 0.945 . S
H44 C65 0.952 . S
H45 C66 0.949 . S
H46 C68 0.950 . S
H47 C69 0.948 . S
H48 C71 0.951 . S
H49 C36 0.947 . S
H50 C38 0.952 . S
H51 C39 0.950 . S
N52 C55 1.382 . S
N52 C57 1.363 . S
N53 C55 1.371 . S
N53 C56 1.372 . S
N54 C56 1.361 . S
N54 C57 1.377 . S
C55 N52 1.382 . S
C55 N53 1.371 . S
C55 C58 1.480 . S
C56 N53 1.372 . S
C56 N54 1.361 . S
C56 C64 1.457 . S
C57 N52 1.363 . S
C57 N54 1.377 . S
C57 C70 1.479 . S
C58 C55 1.480 . S
C58 C59 1.383 . S
C58 C63 1.385 . S
C59 H40 0.947 . S
C59 C58 1.383 . S
C59 C60 1.388 . S
C60 H41 0.946 . S
C60 C59 1.388 . S
C60 C61 1.384 . S
C61 C60 1.384 . S
C61 C62 1.377 . S
C62 H42 0.953 . S
C62 C61 1.377 . S
C62 C63 1.369 . S
C63 H43 0.945 . S
C63 C58 1.385 . S
C63 C62 1.369 . S
C64 C56 1.457 . S
C64 C65 1.372 . S
C64 C69 1.364 . S
C65 H44 0.952 . S
C65 C64 1.372 . S
C65 C66 1.389 . S
C66 H45 0.949 . S
C66 C65 1.389 . S
C66 C67 1.387 . S
C67 C66 1.387 . S
C67 C68 1.372 . S
C68 H46 0.950 . S
C68 C67 1.372 . S
C68 C69 1.379 . S
C69 H47 0.948 . S
C69 C64 1.364 . S
C69 C68 1.379 . S
C70 C39 1.383 . S
C70 C57 1.479 . S
C70 C71 1.398 . S
C71 C36 1.382 . S
C71 H48 0.951 . S
C71 C70 1.398 . S
C72 C73 1.384 1_554 S
C72 H85 0.947 . S
C72 C107 1.382 . S
C73 C72 1.384 1_556 S
C73 C74 1.378 . S
C74 C73 1.378 . S
C74 C75 1.378 1_556 S
C74 H86 0.952 . S
C75 C74 1.378 1_554 S
C75 H87 0.950 1_554 S
C75 C106 1.383 . S
H76 C95 0.947 . S
H77 C96 0.946 . S
H78 C98 0.953 . S
H79 C99 0.945 . S
H80 C101 0.952 . S
H81 C102 0.949 . S
H82 C104 0.964 . S
H83 C105 0.948 . S
H84 C107 0.951 . S
H85 C72 0.947 . S
H86 C74 0.952 . S
H87 C75 0.950 1_556 S
N88 C91 1.382 . S
N88 C93 1.363 . S
N89 C91 1.371 . S
N89 C92 1.372 . S
N90 C92 1.361 . S
N90 C93 1.377 . S
C91 N88 1.382 . S
C91 N89 1.371 . S
C91 C94 1.480 . S
C92 N89 1.372 . S
C92 N90 1.361 . S
C92 C100 1.457 . S
C93 N88 1.363 . S
C93 N90 1.377 . S
C93 C106 1.479 . S
C94 C91 1.480 . S
C94 C95 1.383 . S
C94 C99 1.385 . S
C95 H76 0.947 . S
C95 C94 1.383 . S
C95 C96 1.388 . S
C96 H77 0.946 . S
C96 C95 1.388 . S
C96 C97 1.384 . S
C97 C96 1.384 . S
C97 C98 1.377 . S
C98 H78 0.953 . S
C98 C97 1.377 . S
C98 C99 1.369 . S
C99 H79 0.945 . S
C99 C94 1.385 . S
C99 C98 1.369 . S
C100 C92 1.457 . S
C100 C101 1.372 . S
C100 C105 1.364 . S
C101 H80 0.952 . S
C101 C100 1.372 . S
C101 C102 1.389 . S
C102 H81 0.949 . S
C102 C101 1.389 . S
C102 C103 1.387 . S
C103 C102 1.387 . S
C103 C104 1.366 1_655 S
C104 H82 0.964 . S
C104 C103 1.366 1_455 S
C104 C105 1.370 1_455 S
C105 H83 0.948 . S
C105 C100 1.364 . S
C105 C104 1.370 1_655 S
C106 C75 1.383 . S
C106 C93 1.479 . S
C106 C107 1.398 . S
C107 C72 1.382 . S
C107 H84 0.951 . S
C107 C106 1.398 . S
C108 C109 1.384 . S
C108 H121 0.947 . S
C108 C143 1.382 . S
C109 C108 1.384 . S
C109 C110 1.378 . S
C110 C109 1.378 . S
C110 C111 1.378 . S
C110 H122 0.952 . S
C111 C110 1.378 . S
C111 H123 0.950 . S
C111 C142 1.383 . S
H112 C131 0.947 . S
H113 C132 0.946 . S
H114 C134 0.953 . S
H115 C135 0.945 . S
H116 C137 0.952 . S
H117 C138 0.949 . S
H118 C140 0.950 . S
H119 C141 0.948 . S
H120 C143 0.951 . S
H121 C108 0.947 . S
H122 C110 0.952 . S
H123 C111 0.950 . S
N124 C127 1.382 . S
N124 C129 1.363 . S
N125 C127 1.371 . S
N125 C128 1.372 . S
N126 C128 1.361 . S
N126 C129 1.377 . S
C127 N124 1.382 . S
C127 N125 1.371 . S
C127 C130 1.480 . S
C128 N125 1.372 . S
C128 N126 1.361 . S
C128 C136 1.457 . S
C129 N124 1.363 . S
C129 N126 1.377 . S
C129 C142 1.479 . S
C130 C127 1.480 . S
C130 C131 1.383 . S
C130 C135 1.385 . S
C131 H112 0.947 . S
C131 C130 1.383 . S
C131 C132 1.388 . S
C132 H113 0.946 . S
C132 C131 1.388 . S
C132 C133 1.384 . S
C133 C132 1.384 . S
C133 C134 1.377 . S
C134 H114 0.953 . S
C134 C133 1.377 . S
C134 C135 1.369 . S
C135 H115 0.945 . S
C135 C130 1.385 . S
C135 C134 1.369 . S
C136 C128 1.457 . S
C136 C137 1.372 . S
C136 C141 1.364 . S
C137 H116 0.952 . S
C137 C136 1.372 . S
C137 C138 1.389 . S
C138 H117 0.949 . S
C138 C137 1.389 . S
C138 C139 1.387 . S
C139 C138 1.387 . S
C139 C140 1.372 . S
C140 H118 0.950 . S
C140 C139 1.372 . S
C140 C141 1.379 . S
C141 H119 0.948 . S
C141 C136 1.364 . S
C141 C140 1.379 . S
C142 C111 1.383 . S
C142 C129 1.479 . S
C142 C143 1.398 . S
C143 C108 1.382 . S
C143 H120 0.951 . S
C143 C142 1.398 . S
C144 C145 1.384 . S
C144 H157 0.947 . S
C144 C179 1.382 . S
C145 C144 1.384 . S
C145 C146 1.378 . S
C146 C145 1.378 . S
C146 C147 1.378 . S
C146 H158 0.952 . S
C147 C146 1.378 . S
C147 H159 0.950 . S
C147 C178 1.383 . S
H148 C167 0.947 1_655 S
H149 C168 0.946 . S
H150 C170 0.953 . S
H151 C171 0.945 1_545 S
H152 C173 0.952 . S
H153 C174 0.949 . S
H154 C176 0.950 . S
H155 C177 0.948 . S
H156 C179 0.951 . S
H157 C144 0.947 . S
H158 C146 0.952 . S
H159 C147 0.950 . S
N160 C163 1.382 . S
N160 C165 1.363 . S
N161 C163 1.371 . S
N161 C164 1.372 . S
N162 C164 1.361 . S
N162 C165 1.377 . S
C163 N160 1.382 . S
C163 N161 1.371 . S
C163 C166 1.480 . S
C164 N161 1.372 . S
C164 N162 1.361 . S
C164 C172 1.457 . S
C165 N160 1.363 . S
C165 N162 1.377 . S
C165 C178 1.479 . S
C166 C163 1.480 . S
C166 C167 1.385 . S
C166 C171 1.385 . S
C167 H148 0.947 1_455 S
C167 C166 1.385 . S
C167 C168 1.387 1_455 S
C168 H149 0.946 . S
C168 C167 1.387 1_655 S
C168 C169 1.384 . S
C169 C168 1.384 . S
C169 C170 1.377 1_665 S
C170 H150 0.953 . S
C170 C169 1.377 1_445 S
C170 C171 1.369 1_545 S
C171 H151 0.945 1_565 S
C171 C166 1.385 . S
C171 C170 1.369 1_565 S
C172 C164 1.457 . S
C172 C173 1.372 1_565 S
C172 C177 1.364 . S
C173 H152 0.952 . S
C173 C172 1.372 1_545 S
C173 C174 1.389 . S
C174 H153 0.949 . S
C174 C173 1.389 . S
C174 C175 1.387 . S
C175 C174 1.387 . S
C175 C176 1.372 . S
C176 H154 0.950 . S
C176 C175 1.372 . S
C176 C177 1.379 1_545 S
C177 H155 0.948 . S
C177 C172 1.364 . S
C177 C176 1.379 1_565 S
C178 C147 1.383 . S
C178 C165 1.479 . S
C178 C179 1.398 . S
C179 C144 1.382 . S
C179 H156 0.951 . S
C179 C178 1.398 . S
C180 C181 1.384 . S
C180 H193 0.947 . S
C180 C215 1.382 . S
C181 C180 1.384 . S
C181 C182 1.378 . S
C182 C181 1.378 . S
C182 C183 1.378 . S
C182 H194 0.952 . S
C183 C182 1.378 . S
C183 H195 0.950 . S
C183 C214 1.383 . S
H184 C203 0.947 . S
H185 C204 0.946 . S
H186 C206 0.953 . S
H187 C207 0.945 . S
H188 C209 0.952 . S
H189 C210 0.949 . S
H190 C212 0.950 . S
H191 C213 0.948 . S
H192 C215 0.951 . S
H193 C180 0.947 . S
H194 C182 0.952 . S
H195 C183 0.950 . S
N196 C199 1.382 . S
N196 C201 1.363 . S
N197 C199 1.371 . S
N197 C200 1.372 . S
N198 C200 1.361 . S
N198 C201 1.377 . S
C199 N196 1.382 . S
C199 N197 1.371 . S
C199 C202 1.480 . S
C200 N197 1.372 . S
C200 N198 1.361 . S
C200 C208 1.457 . S
C201 N196 1.363 . S
C201 N198 1.377 . S
C201 C214 1.479 . S
C202 C199 1.480 . S
C202 C203 1.383 . S
C202 C207 1.385 . S
C203 H184 0.947 . S
C203 C202 1.383 . S
C203 C204 1.388 . S
C204 H185 0.946 . S
C204 C203 1.388 . S
C204 C205 1.384 . S
C205 C204 1.384 . S
C205 C206 1.377 . S
C206 H186 0.953 . S
C206 C205 1.377 . S
C206 C207 1.369 . S
C207 H187 0.945 . S
C207 C202 1.385 . S
C207 C206 1.369 . S
C208 C200 1.457 . S
C208 C209 1.372 . S
C208 C213 1.364 . S
C209 H188 0.952 . S
C209 C208 1.372 . S
C209 C210 1.389 . S
C210 H189 0.949 . S
C210 C209 1.389 . S
C210 C211 1.387 . S
C211 C210 1.387 . S
C211 C212 1.372 . S
C212 H190 0.950 . S
C212 C211 1.372 . S
C212 C213 1.379 . S
C213 H191 0.948 . S
C213 C208 1.364 . S
C213 C212 1.379 . S
C214 C183 1.383 . S
C214 C201 1.479 . S
C214 C215 1.398 . S
C215 C180 1.382 . S
C215 H192 0.951 . S
C215 C214 1.398 . S
C216 C217 1.384 . S
C216 H229 0.947 1_655 S
C216 C251 1.382 . S
C217 C216 1.384 . S
C217 C218 1.378 . S
C218 C217 1.378 . S
C218 C219 1.378 . S
C218 H230 0.952 . S
C219 C218 1.378 . S
C219 H231 0.950 . S
C219 C250 1.383 . S
H220 C239 0.947 . S
H221 C240 0.946 . S
H222 C242 0.953 . S
H223 C243 0.945 . S
H224 C245 0.952 . S
H225 C246 0.949 . S
H226 C248 0.950 . S
H227 C249 0.948 . S
H228 C251 0.951 . S
H229 C216 0.947 1_455 S
H230 C218 0.952 . S
H231 C219 0.950 . S
N232 C235 1.382 . S
N232 C237 1.363 . S
N233 C235 1.371 . S
N233 C236 1.372 . S
N234 C236 1.361 . S
N234 C237 1.377 . S
C235 N232 1.382 . S
C235 N233 1.371 . S
C235 C238 1.480 . S
C236 N233 1.372 . S
C236 N234 1.361 . S
C236 C244 1.457 . S
C237 N232 1.363 . S
C237 N234 1.377 . S
C237 C250 1.479 . S
C238 C235 1.480 . S
C238 C239 1.383 . S
C238 C243 1.385 . S
C239 H220 0.947 . S
C239 C238 1.383 . S
C239 C240 1.388 . S
C240 H221 0.946 . S
C240 C239 1.388 . S
C240 C241 1.384 . S
C241 C240 1.384 . S
C241 C242 1.377 . S
C242 H222 0.953 . S
C242 C241 1.377 . S
C242 C243 1.369 . S
C243 H223 0.945 . S
C243 C238 1.385 . S
C243 C242 1.369 . S
C244 C236 1.457 . S
C244 C245 1.372 . S
C244 C249 1.364 1_655 S
C245 H224 0.952 . S
C245 C244 1.372 . S
C245 C246 1.389 . S
C246 H225 0.949 . S
C246 C245 1.389 . S
C246 C247 1.387 1_655 S
C247 C246 1.387 1_455 S
C247 C248 1.372 . S
C248 H226 0.950 . S
C248 C247 1.372 . S
C248 C249 1.379 . S
C249 H227 0.948 . S
C249 C244 1.364 1_455 S
C249 C248 1.379 . S
C250 C219 1.383 . S
C250 C237 1.479 . S
C250 C251 1.398 . S
C251 C216 1.382 . S
C251 H228 0.951 . S
C251 C250 1.398 . S
C252 C253 1.384 . S
C252 H265 0.947 . S
C252 C287 1.382 . S
C253 C252 1.384 . S
C253 C254 1.378 . S
C254 C253 1.378 . S
C254 C255 1.378 . S
C254 H266 0.952 . S
C255 C254 1.378 . S
C255 H267 0.950 . S
C255 C286 1.383 . S
H256 C275 0.947 . S
H257 C276 0.946 . S
H258 C278 0.953 . S
H259 C279 0.945 . S
H260 C281 0.952 . S
H261 C282 0.949 . S
H262 C284 0.950 . S
H263 C285 0.948 . S
H264 C287 0.951 . S
H265 C252 0.947 . S
H266 C254 0.952 . S
H267 C255 0.950 . S
N268 C271 1.382 . S
N268 C273 1.363 . S
N269 C271 1.371 . S
N269 C272 1.372 . S
N270 C272 1.361 . S
N270 C273 1.377 . S
C271 N268 1.382 . S
C271 N269 1.371 . S
C271 C274 1.480 . S
C272 N269 1.372 . S
C272 N270 1.361 . S
C272 C280 1.457 . S
C273 N268 1.363 . S
C273 N270 1.377 . S
C273 C286 1.479 . S
C274 C271 1.480 . S
C274 C275 1.383 . S
C274 C279 1.385 . S
C275 H256 0.947 . S
C275 C274 1.383 . S
C275 C276 1.388 . S
C276 H257 0.946 . S
C276 C275 1.388 . S
C276 C277 1.384 . S
C277 C276 1.384 . S
C277 C278 1.377 . S
C278 H258 0.953 . S
C278 C277 1.377 . S
C278 C279 1.369 . S
C279 H259 0.945 . S
C279 C274 1.385 . S
C279 C278 1.369 . S
C280 C272 1.457 . S
C280 C281 1.372 . S
C280 C285 1.364 . S
C281 H260 0.952 . S
C281 C280 1.372 . S
C281 C282 1.389 . S
C282 H261 0.949 . S
C282 C281 1.389 . S
C282 C283 1.387 . S
C283 C282 1.387 . S
C283 C284 1.372 . S
C284 H262 0.950 . S
C284 C283 1.372 . S
C284 C285 1.379 . S
C285 H263 0.948 . S
C285 C280 1.364 . S
C285 C284 1.379 . S
C286 C255 1.383 . S
C286 C273 1.479 . S
C286 C287 1.398 . S
C287 C252 1.382 . S
C287 H264 0.951 . S
C287 C286 1.398 . S
C288 C289 1.384 . S
C288 H301 0.947 . S
C288 C323 1.382 . S
C289 C288 1.384 . S
C289 C290 1.378 . S
C290 C289 1.378 . S
C290 C291 1.378 . S
C290 H302 0.952 . S
C291 C290 1.378 . S
C291 H303 0.950 . S
C291 C322 1.383 . S
H292 C311 0.947 . S
H293 C312 0.946 . S
H294 C314 0.953 . S
H295 C315 0.945 . S
H296 C317 0.952 . S
H297 C318 0.949 . S
H298 C320 0.950 . S
H299 C321 0.948 . S
H300 C323 0.951 . S
H301 C288 0.947 . S
H302 C290 0.952 . S
H303 C291 0.950 . S
N304 C307 1.382 . S
N304 C309 1.363 . S
N305 C307 1.371 . S
N305 C308 1.372 . S
N306 C308 1.361 . S
N306 C309 1.377 . S
C307 N304 1.382 . S
C307 N305 1.371 . S
C307 C310 1.480 . S
C308 N305 1.372 . S
C308 N306 1.361 . S
C308 C316 1.457 . S
C309 N304 1.363 . S
C309 N306 1.377 . S
C309 C322 1.479 . S
C310 C307 1.480 . S
C310 C311 1.383 . S
C310 C315 1.385 . S
C311 H292 0.947 . S
C311 C310 1.383 . S
C311 C312 1.388 . S
C312 H293 0.946 . S
C312 C311 1.388 . S
C312 C313 1.384 . S
C313 C312 1.384 . S
C313 C314 1.377 . S
C314 H294 0.953 . S
C314 C313 1.377 . S
C314 C315 1.369 . S
C315 H295 0.945 . S
C315 C310 1.385 . S
C315 C314 1.369 . S
C316 C308 1.457 . S
C316 C317 1.372 . S
C316 C321 1.364 . S
C317 H296 0.952 . S
C317 C316 1.372 . S
C317 C318 1.389 . S
C318 H297 0.949 . S
C318 C317 1.389 . S
C318 C319 1.387 . S
C319 C318 1.387 . S
C319 C320 1.372 . S
C320 H298 0.950 . S
C320 C319 1.372 . S
C320 C321 1.379 . S
C321 H299 0.948 . S
C321 C316 1.364 . S
C321 C320 1.379 . S
C322 C291 1.383 . S
C322 C309 1.479 . S
C322 C323 1.398 . S
C323 C288 1.382 . S
C323 H300 0.951 . S
C323 C322 1.398 . S
C324 C325 1.384 . S
C324 H337 0.947 . S
C324 C359 1.382 . S
C325 C324 1.384 . S
C325 C326 1.378 . S
C326 C325 1.378 . S
C326 C327 1.378 . S
C326 H338 0.952 . S
C327 C326 1.378 . S
C327 H339 0.950 . S
C327 C358 1.383 . S
H328 C347 0.947 . S
H329 C348 0.946 . S
H330 C350 0.953 . S
H331 C351 0.945 . S
H332 C353 0.952 . S
H333 C354 0.949 . S
H334 C356 0.950 . S
H335 C357 0.948 . S
H336 C359 0.951 . S
H337 C324 0.947 . S
H338 C326 0.952 . S
H339 C327 0.950 . S
N340 C343 1.382 . S
N340 C345 1.363 . S
N341 C343 1.371 . S
N341 C344 1.372 . S
N342 C344 1.361 . S
N342 C345 1.377 . S
C343 N340 1.382 . S
C343 N341 1.371 . S
C343 C346 1.480 . S
C344 N341 1.372 . S
C344 N342 1.361 . S
C344 C352 1.457 . S
C345 N340 1.363 . S
C345 N342 1.377 . S
C345 C358 1.479 . S
C346 C343 1.480 . S
C346 C347 1.383 . S
C346 C351 1.385 1_565 S
C347 H328 0.947 . S
C347 C346 1.383 . S
C347 C348 1.388 . S
C348 H329 0.946 . S
C348 C347 1.388 . S
C348 C349 1.384 1_565 S
C349 C348 1.384 1_545 S
C349 C350 1.377 . S
C350 H330 0.953 . S
C350 C349 1.377 . S
C350 C351 1.369 . S
C351 H331 0.945 . S
C351 C346 1.385 1_545 S
C351 C350 1.369 . S
C352 C344 1.457 . S
C352 C353 1.372 . S
C352 C357 1.364 . S
C353 H332 0.952 . S
C353 C352 1.372 . S
C353 C354 1.389 . S
C354 H333 0.949 . S
C354 C353 1.389 . S
C354 C355 1.387 . S
C355 C354 1.387 . S
C355 C356 1.372 . S
C356 H334 0.950 . S
C356 C355 1.372 . S
C356 C357 1.379 . S
C357 H335 0.948 . S
C357 C352 1.364 . S
C357 C356 1.379 . S
C358 C327 1.383 . S
C358 C345 1.479 . S
C358 C359 1.398 . S
C359 C324 1.382 . S
C359 H336 0.951 . S
C359 C358 1.398 . S
C360 C361 1.384 . S
C360 H373 0.947 . S
C360 C395 1.382 . S
C361 C360 1.384 . S
C361 C362 1.378 . S
C362 C361 1.378 . S
C362 C363 1.378 . S
C362 H374 0.952 . S
C363 C362 1.378 . S
C363 H375 0.950 . S
C363 C394 1.383 . S
H364 C383 0.947 . S
H365 C384 0.946 . S
H366 C386 0.953 . S
H367 C387 0.945 . S
H368 C389 0.952 . S
H369 C390 0.949 . S
H370 C392 0.950 . S
H371 C393 0.948 . S
H372 C395 0.951 . S
H373 C360 0.947 . S
H374 C362 0.952 . S
H375 C363 0.950 . S
N376 C379 1.382 . S
N376 C381 1.363 . S
N377 C379 1.371 . S
N377 C380 1.372 . S
N378 C380 1.361 . S
N378 C381 1.377 . S
C379 N376 1.382 . S
C379 N377 1.371 . S
C379 C382 1.480 . S
C380 N377 1.372 . S
C380 N378 1.361 . S
C380 C388 1.457 . S
C381 N376 1.363 . S
C381 N378 1.377 . S
C381 C394 1.479 . S
C382 C379 1.480 . S
C382 C383 1.383 . S
C382 C387 1.385 . S
C383 H364 0.947 . S
C383 C382 1.383 . S
C383 C384 1.388 . S
C384 H365 0.946 . S
C384 C383 1.388 . S
C384 C385 1.384 . S
C385 C384 1.384 . S
C385 C386 1.377 . S
C386 H366 0.953 . S
C386 C385 1.377 . S
C386 C387 1.369 . S
C387 H367 0.945 . S
C387 C382 1.385 . S
C387 C386 1.369 . S
C388 C380 1.457 . S
C388 C389 1.372 . S
C388 C393 1.364 . S
C389 H368 0.952 . S
C389 C388 1.372 . S
C389 C390 1.389 . S
C390 H369 0.949 . S
C390 C389 1.389 . S
C390 C391 1.387 . S
C391 C390 1.387 . S
C391 C392 1.372 . S
C392 H370 0.950 . S
C392 C391 1.372 . S
C392 C393 1.379 . S
C393 H371 0.948 . S
C393 C388 1.364 . S
C393 C392 1.379 . S
C394 C363 1.383 . S
C394 C381 1.479 . S
C394 C395 1.398 . S
C395 C360 1.382 . S
C395 H372 0.951 . S
C395 C394 1.398 . S
C396 C397 1.384 . S
C396 H409 0.947 . S
C396 C431 1.382 . S
C397 C396 1.384 . S
C397 C398 1.378 . S
C398 C397 1.378 . S
C398 C399 1.378 . S
C398 H410 0.952 . S
C399 C398 1.378 . S
C399 H411 0.950 . S
C399 C430 1.383 . S
H400 C419 0.947 . S
H401 C420 0.946 . S
H402 C422 0.953 . S
H403 C423 0.945 . S
H404 C425 0.952 . S
H405 C426 0.949 . S
H406 C428 0.950 . S
H407 C429 0.948 . S
H408 C431 0.951 . S
H409 C396 0.947 . S
H410 C398 0.952 . S
H411 C399 0.950 . S
N412 C415 1.382 . S
N412 C417 1.363 . S
N413 C415 1.371 . S
N413 C416 1.372 . S
N414 C416 1.361 . S
N414 C417 1.377 . S
C415 N412 1.382 . S
C415 N413 1.371 . S
C415 C418 1.480 . S
C416 N413 1.372 . S
C416 N414 1.361 . S
C416 C424 1.457 . S
C417 N412 1.363 . S
C417 N414 1.377 . S
C417 C430 1.479 . S
C418 C415 1.480 . S
C418 C419 1.383 . S
C418 C423 1.385 . S
C419 H400 0.947 . S
C419 C418 1.383 . S
C419 C420 1.388 . S
C420 H401 0.946 . S
C420 C419 1.388 . S
C420 C421 1.384 . S
C421 C420 1.384 . S
C421 C422 1.377 . S
C422 H402 0.953 . S
C422 C421 1.377 . S
C422 C423 1.369 . S
C423 H403 0.945 . S
C423 C418 1.385 . S
C423 C422 1.369 . S
C424 C416 1.457 . S
C424 C425 1.372 . S
C424 C429 1.364 . S
C425 H404 0.952 . S
C425 C424 1.372 . S
C425 C426 1.389 . S
C426 H405 0.949 . S
C426 C425 1.389 . S
C426 C427 1.387 . S
C427 C426 1.387 . S
C427 C428 1.372 . S
C428 H406 0.950 . S
C428 C427 1.372 . S
C428 C429 1.379 . S
C429 H407 0.948 . S
C429 C424 1.364 . S
C429 C428 1.379 . S
C430 C399 1.383 . S
C430 C417 1.479 . S
C430 C431 1.398 . S
C431 C396 1.382 . S
C431 H408 0.951 . S
C431 C430 1.398 . S
C432 C433 1.384 . S
C432 H445 0.947 . S
C432 C467 1.382 . S
C433 C432 1.384 . S
C433 C434 1.378 . S
C434 C433 1.378 . S
C434 C435 1.378 . S
C434 H446 0.952 . S
C435 C434 1.378 . S
C435 H447 0.950 . S
C435 C466 1.383 . S
H436 C455 0.947 . S
H437 C456 0.946 . S
H438 C458 0.953 . S
H439 C459 0.945 . S
H440 C461 0.952 . S
H441 C462 0.949 . S
H442 C464 0.950 . S
H443 C465 0.948 . S
H444 C467 0.951 . S
H445 C432 0.947 . S
H446 C434 0.952 . S
H447 C435 0.950 . S
N448 C451 1.382 . S
N448 C453 1.363 . S
N449 C451 1.371 . S
N449 C452 1.372 . S
N450 C452 1.361 . S
N450 C453 1.377 . S
C451 N448 1.382 . S
C451 N449 1.371 . S
C451 C454 1.480 . S
C452 N449 1.372 . S
C452 N450 1.361 . S
C452 C460 1.457 . S
C453 N448 1.363 . S
C453 N450 1.377 . S
C453 C466 1.479 . S
C454 C451 1.480 . S
C454 C455 1.383 . S
C454 C459 1.385 . S
C455 H436 0.947 . S
C455 C454 1.383 . S
C455 C456 1.388 . S
C456 H437 0.946 . S
C456 C455 1.388 . S
C456 C457 1.384 . S
C457 C456 1.384 . S
C457 C458 1.377 . S
C458 H438 0.953 . S
C458 C457 1.377 . S
C458 C459 1.369 . S
C459 H439 0.945 . S
C459 C454 1.385 . S
C459 C458 1.369 . S
C460 C452 1.457 . S
C460 C461 1.372 . S
C460 C465 1.364 . S
C461 H440 0.952 . S
C461 C460 1.372 . S
C461 C462 1.389 . S
C462 H441 0.949 . S
C462 C461 1.389 . S
C462 C463 1.387 . S
C463 C462 1.387 . S
C463 C464 1.372 . S
C464 H442 0.950 . S
C464 C463 1.372 . S
C464 C465 1.379 . S
C465 H443 0.948 . S
C465 C460 1.364 . S
C465 C464 1.379 . S
C466 C435 1.383 . S
C466 C453 1.479 . S
C466 C467 1.398 . S
C467 C432 1.382 . S
C467 H444 0.951 . S
C467 C466 1.398 . S
C468 C469 1.384 . S
C468 H481 0.947 . S
C468 C503 1.382 1_554 S
C469 C468 1.384 . S
C469 C470 1.378 1_554 S
C470 C469 1.378 1_556 S
C470 C471 1.378 . S
C470 H482 0.952 . S
C471 C470 1.378 . S
C471 H483 0.950 . S
C471 C502 1.383 . S
H472 C491 0.947 . S
H473 C492 0.946 . S
H474 C494 0.953 . S
H475 C495 0.945 . S
H476 C497 0.952 . S
H477 C498 0.949 . S
H478 C500 0.950 . S
H479 C501 0.948 . S
H480 C503 0.951 . S
H481 C468 0.947 . S
H482 C470 0.952 . S
H483 C471 0.950 . S
N484 C487 1.382 . S
N484 C489 1.363 . S
N485 C487 1.371 . S
N485 C488 1.372 . S
N486 C488 1.361 . S
N486 C489 1.377 . S
C487 N484 1.382 . S
C487 N485 1.371 . S
C487 C490 1.480 . S
C488 N485 1.372 . S
C488 N486 1.361 . S
C488 C496 1.457 . S
C489 N484 1.363 . S
C489 N486 1.377 . S
C489 C502 1.479 . S
C490 C487 1.480 . S
C490 C491 1.383 . S
C490 C495 1.385 . S
C491 H472 0.947 . S
C491 C490 1.383 . S
C491 C492 1.388 . S
C492 H473 0.946 . S
C492 C491 1.388 . S
C492 C493 1.384 . S
C493 C492 1.384 . S
C493 C494 1.377 . S
C494 H474 0.953 . S
C494 C493 1.377 . S
C494 C495 1.369 . S
C495 H475 0.945 . S
C495 C490 1.385 . S
C495 C494 1.369 . S
C496 C488 1.457 . S
C496 C497 1.372 . S
C496 C501 1.364 . S
C497 H476 0.952 . S
C497 C496 1.372 . S
C497 C498 1.389 . S
C498 H477 0.949 . S
C498 C497 1.389 . S
C498 C499 1.387 . S
C499 C498 1.387 . S
C499 C500 1.372 . S
C500 H478 0.950 . S
C500 C499 1.372 . S
C500 C501 1.379 . S
C501 H479 0.948 . S
C501 C496 1.364 . S
C501 C500 1.379 . S
C502 C471 1.383 . S
C502 C489 1.479 . S
C502 C503 1.398 . S
C503 C468 1.382 1_556 S
C503 H480 0.951 . S
C503 C502 1.398 . S
C504 C505 1.384 . S
C504 H517 0.947 . S
C504 C539 1.382 . S
C505 C504 1.384 . S
C505 C506 1.378 . S
C506 C505 1.378 . S
C506 C507 1.378 . S
C506 H518 0.952 . S
C507 C506 1.378 . S
C507 H519 0.950 . S
C507 C538 1.383 . S
H508 C527 0.947 . S
H509 C528 0.946 . S
H510 C530 0.953 . S
H511 C531 0.945 . S
H512 C533 0.952 . S
H513 C534 0.949 . S
H514 C536 0.950 . S
H515 C537 0.948 . S
H516 C539 0.951 . S
H517 C504 0.947 . S
H518 C506 0.952 . S
H519 C507 0.950 . S
N520 C523 1.382 . S
N520 C525 1.363 . S
N521 C523 1.371 . S
N521 C524 1.372 . S
N522 C524 1.361 . S
N522 C525 1.377 . S
C523 N520 1.382 . S
C523 N521 1.371 . S
C523 C526 1.480 . S
C524 N521 1.372 . S
C524 N522 1.361 . S
C524 C532 1.457 . S
C525 N520 1.363 . S
C525 N522 1.377 . S
C525 C538 1.479 . S
C526 C523 1.480 . S
C526 C527 1.383 . S
C526 C531 1.385 . S
C527 H508 0.947 . S
C527 C526 1.383 . S
C527 C528 1.388 . S
C528 H509 0.946 . S
C528 C527 1.388 . S
C528 C529 1.384 . S
C529 C528 1.384 . S
C529 C530 1.377 . S
C530 H510 0.953 . S
C530 C529 1.377 . S
C530 C531 1.369 . S
C531 H511 0.945 . S
C531 C526 1.385 . S
C531 C530 1.369 . S
C532 C524 1.457 . S
C532 C533 1.372 . S
C532 C537 1.364 . S
C533 H512 0.952 . S
C533 C532 1.372 . S
C533 C534 1.389 . S
C534 H513 0.949 . S
C534 C533 1.389 . S
C534 C535 1.387 . S
C535 C534 1.387 . S
C535 C536 1.372 . S
C536 H514 0.950 . S
C536 C535 1.372 . S
C536 C537 1.379 . S
C537 H515 0.948 . S
C537 C532 1.364 . S
C537 C536 1.379 . S
C538 C507 1.383 . S
C538 C525 1.479 . S
C538 C539 1.398 . S
C539 C504 1.382 . S
C539 H516 0.951 . S
C539 C538 1.398 . S
C540 C541 1.384 . S
C540 H553 0.939 1_554 S
C540 C575 1.382 1_554 S
C541 C540 1.384 . S
C541 C542 1.378 . S
C542 C541 1.378 . S
C542 C543 1.378 . S
C542 H554 0.952 . S
C543 C542 1.378 . S
C543 H555 0.950 . S
C543 C574 1.383 1_554 S
H544 C563 0.947 1_554 S
H545 C564 0.946 . S
H546 C566 0.953 . S
H547 C567 0.945 1_565 S
H548 C569 0.952 . S
H549 C570 0.949 . S
H550 C572 0.950 . S
H551 C573 0.948 . S
H552 C575 0.951 . S
H553 C540 0.939 1_556 S
H554 C542 0.952 . S
H555 C543 0.950 . S
N556 C559 1.382 . S
N556 C561 1.363 . S
N557 C559 1.371 . S
N557 C560 1.372 . S
N558 C560 1.361 . S
N558 C561 1.377 . S
C559 N556 1.382 . S
C559 N557 1.371 . S
C559 C562 1.480 . S
C560 N557 1.372 . S
C560 N558 1.361 . S
C560 C568 1.457 . S
C561 N556 1.363 . S
C561 N558 1.377 . S
C561 C574 1.479 . S
C562 C559 1.480 . S
C562 C563 1.383 . S
C562 C567 1.385 . S
C563 H544 0.947 1_556 S
C563 C562 1.383 . S
C563 C564 1.388 1_556 S
C564 H545 0.946 . S
C564 C563 1.388 1_554 S
C564 C565 1.384 1_544 S
C565 C564 1.384 1_566 S
C565 C566 1.377 . S
C566 H546 0.953 . S
C566 C565 1.377 . S
C566 C567 1.369 1_565 S
C567 H547 0.945 1_545 S
C567 C562 1.385 . S
C567 C566 1.369 1_545 S
C568 C560 1.457 . S
C568 C569 1.372 . S
C568 C573 1.364 . S
C569 H548 0.952 . S
C569 C568 1.372 . S
C569 C570 1.389 . S
C570 H549 0.949 . S
C570 C569 1.389 . S
C570 C571 1.387 . S
C571 C570 1.387 . S
C571 C572 1.372 . S
C572 H550 0.950 . S
C572 C571 1.372 . S
C572 C573 1.379 . S
C573 H551 0.948 . S
C573 C568 1.364 . S
C573 C572 1.379 . S
C574 C543 1.383 1_556 S
C574 C561 1.479 . S
C574 C575 1.398 . S
C575 C540 1.382 1_556 S
C575 H552 0.951 . S
C575 C574 1.398 . S
O576 Cd577 2.223 . S
O576 C584 1.315 . S
Cd577 O576 2.223 . S
Cd577 O580 2.297 . S
Cd577 O581 2.439 . S
Cd577 O587 2.240 . S
Cd578 O579 2.240 . S
Cd578 O586 2.223 1_554 S
Cd578 O588 2.297 . S
Cd578 O589 2.439 . S
O579 Cd578 2.240 . S
O579 C584 1.279 . S
O580 Cd577 2.297 . S
O580 C582 1.247 . S
O581 Cd577 2.439 . S
O581 C582 1.208 . S
C582 O580 1.247 . S
C582 O581 1.208 . S
C583 O588 1.247 . S
C583 O589 1.208 . S
C584 O576 1.315 . S
C584 O579 1.279 . S
C585 O586 1.315 1_554 S
C585 O587 1.279 . S
O586 Cd578 2.223 1_556 S
O586 C585 1.315 1_556 S
O587 Cd577 2.240 . S
O587 C585 1.279 . S
O588 Cd578 2.297 . S
O588 C583 1.247 . S
O589 Cd578 2.439 . S
O589 C583 1.208 . S
O590 Cd591 2.223 . S
O590 C598 1.315 . S
Cd591 O590 2.223 . S
Cd591 O594 2.297 . S
Cd591 O595 2.439 . S
Cd591 O601 2.240 . S
Cd592 O593 2.240 . S
Cd592 O600 2.223 . S
Cd592 O602 2.297 . S
Cd592 O603 2.439 . S
O593 Cd592 2.240 . S
O593 C598 1.279 . S
O594 Cd591 2.297 . S
O594 C596 1.247 . S
O595 Cd591 2.439 . S
O595 C596 1.208 . S
C596 O594 1.247 . S
C596 O595 1.208 . S
C597 O602 1.247 . S
C597 O603 1.208 . S
C598 O590 1.315 . S
C598 O593 1.279 . S
C599 O600 1.315 . S
C599 O601 1.279 . S
O600 Cd592 2.223 . S
O600 C599 1.315 . S
O601 Cd591 2.240 . S
O601 C599 1.279 . S
O602 Cd592 2.297 . S
O602 C597 1.247 . S
O603 Cd592 2.439 . S
O603 C597 1.208 . S
O604 Cd605 2.223 1_556 S
O604 C612 1.315 . S
Cd605 O604 2.223 1_554 S
Cd605 O608 2.297 . S
Cd605 O609 2.439 . S
Cd605 O615 2.240 . S
Cd606 O607 2.240 . S
Cd606 O614 2.223 . S
Cd606 O616 2.301 . S
Cd606 O617 2.439 1_556 S
O607 Cd606 2.240 . S
O607 C612 1.279 . S
O608 Cd605 2.297 . S
O608 C610 1.247 . S
O609 Cd605 2.439 . S
O609 C610 1.208 . S
C610 O608 1.247 . S
C610 O609 1.208 . S
C611 O616 1.238 1_554 S
C611 O617 1.208 . S
C612 O604 1.315 . S
C612 O607 1.279 . S
C613 O614 1.315 . S
C613 O615 1.279 1_556 S
O614 Cd606 2.223 . S
O614 C613 1.315 . S
O615 Cd605 2.240 . S
O615 C613 1.279 1_554 S
O616 Cd606 2.301 . S
O616 C611 1.238 1_556 S
O617 Cd606 2.439 1_554 S
O617 C611 1.208 . S
O618 Cd619 2.223 1_565 S
O618 C626 1.315 1_565 S
Cd619 O618 2.223 1_545 S
Cd619 O622 2.297 . S
Cd619 O623 2.439 . S
Cd619 O629 2.240 . S
Cd620 O621 2.240 . S
Cd620 O628 2.223 . S
Cd620 O630 2.297 . S
Cd620 O631 2.439 . S
O621 Cd620 2.240 . S
O621 C626 1.279 . S
O622 Cd619 2.297 . S
O622 C624 1.247 . S
O623 Cd619 2.439 . S
O623 C624 1.208 . S
C624 O622 1.247 . S
C624 O623 1.208 . S
C625 O630 1.247 . S
C625 O631 1.208 . S
C626 O618 1.315 1_545 S
C626 O621 1.279 . S
C627 O628 1.315 1_565 S
C627 O629 1.279 1_565 S
O628 Cd620 2.223 . S
O628 C627 1.315 1_545 S
O629 Cd619 2.240 . S
O629 C627 1.279 1_545 S
O630 Cd620 2.297 . S
O630 C625 1.247 . S
O631 Cd620 2.439 . S
O631 C625 1.208 . S
O632 Cd633 2.223 . S
O632 C640 1.315 . S
Cd633 O632 2.223 . S
Cd633 O636 2.297 . S
Cd633 O637 2.439 . S
Cd633 O643 2.240 . S
Cd634 O635 2.240 . S
Cd634 O642 2.223 . S
Cd634 O644 2.297 . S
Cd634 O645 2.439 . S
O635 Cd634 2.240 . S
O635 C640 1.279 . S
O636 Cd633 2.297 . S
O636 C638 1.247 . S
O637 Cd633 2.439 . S
O637 C638 1.208 . S
C638 O636 1.247 . S
C638 O637 1.208 . S
C639 O644 1.247 . S
C639 O645 1.208 . S
C640 O632 1.315 . S
C640 O635 1.279 . S
C641 O642 1.315 . S
C641 O643 1.279 . S
O642 Cd634 2.223 . S
O642 C641 1.315 . S
O643 Cd633 2.240 . S
O643 C641 1.279 . S
O644 Cd634 2.297 . S
O644 C639 1.247 . S
O645 Cd634 2.439 . S
O645 C639 1.208 . S
O646 Cd647 2.223 . S
O646 C654 1.315 . S
Cd647 O646 2.223 . S
Cd647 O650 2.297 . S
Cd647 O651 2.439 . S
Cd647 O657 2.240 . S
Cd648 O649 2.240 . S
Cd648 O656 2.223 . S
Cd648 O658 2.297 . S
Cd648 O659 2.439 . S
O649 Cd648 2.240 . S
O649 C654 1.279 . S
O650 Cd647 2.297 . S
O650 C652 1.247 . S
O651 Cd647 2.439 . S
O651 C652 1.208 . S
C652 O650 1.247 . S
C652 O651 1.208 . S
C653 O658 1.247 . S
C653 O659 1.208 . S
C654 O646 1.315 . S
C654 O649 1.279 . S
C655 O656 1.315 . S
C655 O657 1.279 . S
O656 Cd648 2.223 . S
O656 C655 1.315 . S
O657 Cd647 2.240 . S
O657 C655 1.279 . S
O658 Cd648 2.297 . S
O658 C653 1.247 . S
O659 Cd648 2.439 . S
O659 C653 1.208 . S
O660 Cd661 2.223 . S
O660 C668 1.315 . S
Cd661 O660 2.223 . S
Cd661 O664 2.297 . S
Cd661 O665 2.439 . S
Cd661 O671 2.240 . S
Cd662 O663 2.240 . S
Cd662 O670 2.223 . S
Cd662 O672 2.297 . S
Cd662 O673 2.439 . S
O663 Cd662 2.240 . S
O663 C668 1.279 . S
O664 Cd661 2.297 . S
O664 C666 1.247 . S
O665 Cd661 2.439 . S
O665 C666 1.208 . S
C666 O664 1.247 . S
C666 O665 1.208 . S
C667 O672 1.247 . S
C667 O673 1.208 . S
C668 O660 1.315 . S
C668 O663 1.279 . S
C669 O670 1.315 . S
C669 O671 1.279 . S
O670 Cd662 2.223 . S
O670 C669 1.315 . S
O671 Cd661 2.240 . S
O671 C669 1.279 . S
O672 Cd662 2.297 . S
O672 C667 1.247 . S
O673 Cd662 2.439 . S
O673 C667 1.208 . S
O674 Cd675 2.223 1_545 S
O674 C682 1.315 . S
Cd675 O674 2.223 1_565 S
Cd675 O678 2.297 . S
Cd675 O679 2.439 . S
Cd675 O685 2.240 1_565 S
Cd676 O677 2.240 . S
Cd676 O684 2.223 . S
Cd676 O686 2.297 . S
Cd676 O687 2.439 1_545 S
O677 Cd676 2.240 . S
O677 C682 1.279 . S
O678 Cd675 2.297 . S
O678 C680 1.247 . S
O679 Cd675 2.439 . S
O679 C680 1.208 . S
C680 O678 1.247 . S
C680 O679 1.208 . S
C681 O686 1.247 1_565 S
C681 O687 1.208 . S
C682 O674 1.315 . S
C682 O677 1.279 . S
C683 O684 1.315 . S
C683 O685 1.279 . S
O684 Cd676 2.223 . S
O684 C683 1.315 . S
O685 Cd675 2.240 1_545 S
O685 C683 1.279 . S
O686 Cd676 2.297 . S
O686 C681 1.247 1_545 S
O687 Cd676 2.439 1_565 S
O687 C681 1.208 . S
O688 Cd689 2.223 . S
O688 C696 1.315 . S
Cd689 O688 2.223 . S
Cd689 O692 2.297 1_655 S
Cd689 O693 2.439 1_655 S
Cd689 O699 2.240 . S
Cd690 O691 2.240 . S
Cd690 O698 2.223 1_455 S
Cd690 O700 2.297 . S
Cd690 O701 2.439 . S
O691 Cd690 2.240 . S
O691 C696 1.279 1_455 S
O692 Cd689 2.297 1_455 S
O692 C694 1.247 . S
O693 Cd689 2.439 1_455 S
O693 C694 1.208 . S
C694 O692 1.247 . S
C694 O693 1.208 . S
C695 O700 1.247 . S
C695 O701 1.208 . S
C696 O688 1.315 . S
C696 O691 1.279 1_655 S
C697 O698 1.315 . S
C697 O699 1.279 . S
O698 Cd690 2.223 1_655 S
O698 C697 1.315 . S
O699 Cd689 2.240 . S
O699 C697 1.279 . S
O700 Cd690 2.297 . S
O700 C695 1.247 . S
O701 Cd690 2.439 . S
O701 C695 1.208 . S
O702 Cd703 2.223 . S
O702 C710 1.315 . S
Cd703 O702 2.223 . S
Cd703 O706 2.297 . S
Cd703 O707 2.439 . S
Cd703 O713 2.240 . S
Cd704 O705 2.240 . S
Cd704 O712 2.223 . S
Cd704 O714 2.297 . S
Cd704 O715 2.439 . S
O705 Cd704 2.240 . S
O705 C710 1.279 . S
O706 Cd703 2.297 . S
O706 C708 1.247 . S
O707 Cd703 2.439 . S
O707 C708 1.208 . S
C708 O706 1.247 . S
C708 O707 1.208 . S
C709 O714 1.247 . S
C709 O715 1.208 . S
C710 O702 1.315 . S
C710 O705 1.279 . S
C711 O712 1.315 . S
C711 O713 1.279 . S
O712 Cd704 2.223 . S
O712 C711 1.315 . S
O713 Cd703 2.240 . S
O713 C711 1.279 . S
O714 Cd704 2.297 . S
O714 C709 1.247 . S
O715 Cd704 2.439 . S
O715 C709 1.208 . S
O716 Cd717 2.223 1_655 S
O716 C724 1.315 . S
Cd717 O716 2.223 1_455 S
Cd717 O720 2.297 . S
Cd717 O721 2.439 . S
Cd717 O727 2.240 . S
Cd718 O719 2.240 . S
Cd718 O726 2.223 . S
Cd718 O728 2.294 1_655 S
Cd718 O729 2.439 1_655 S
O719 Cd718 2.240 . S
O719 C724 1.279 . S
O720 Cd717 2.297 . S
O720 C722 1.247 . S
O721 Cd717 2.439 . S
O721 C722 1.208 . S
C722 O720 1.247 . S
C722 O721 1.208 . S
C723 O728 1.258 . S
C723 O729 1.208 . S
C724 O716 1.315 . S
C724 O719 1.279 . S
C725 O726 1.315 . S
C725 O727 1.279 1_655 S
O726 Cd718 2.223 . S
O726 C725 1.315 . S
O727 Cd717 2.240 . S
O727 C725 1.279 1_455 S
O728 Cd718 2.294 1_455 S
O728 C723 1.258 . S
O729 Cd718 2.439 1_455 S
O729 C723 1.208 . S
O730 Cd731 2.223 . S
O730 C738 1.315 . S
Cd731 O730 2.223 . S
Cd731 O734 2.297 . S
Cd731 O735 2.439 . S
Cd731 O741 2.240 . S
Cd732 O733 2.240 . S
Cd732 O740 2.223 . S
Cd732 O742 2.297 . S
Cd732 O743 2.439 . S
O733 Cd732 2.240 . S
O733 C738 1.279 . S
O734 Cd731 2.297 . S
O734 C736 1.247 . S
O735 Cd731 2.439 . S
O735 C736 1.208 . S
C736 O734 1.247 . S
C736 O735 1.208 . S
C737 O742 1.247 . S
C737 O743 1.208 . S
C738 O730 1.315 . S
C738 O733 1.279 . S
C739 O740 1.315 . S
C739 O741 1.279 . S
O740 Cd732 2.223 . S
O740 C739 1.315 . S
O741 Cd731 2.240 . S
O741 C739 1.279 . S
O742 Cd732 2.297 . S
O742 C737 1.247 . S
O743 Cd732 2.439 . S
O743 C737 1.208 . S
C584 C181 1.781 1_554 S
C599 C247 2.023 . S
C283 C612 1.853 . S
C626 C169 2.111 1_545 S
C638 C361 1.680 . S
C652 C433 2.181 . S
C421 C666 1.806 . S
C681 C355 1.960 . S
C427 C697 1.792 . S
C710 C325 1.964 . S
C385 C695 1.560 . S
C708 C463 2.575 . S
C253 C724 2.017 . S
C145 C723 2.259 . S
C205 C722 1.673 . S
C217 C725 1.926 . S
C139 C627 2.061 . S
C535 C625 1.447 . S
C585 C565 1.728 1_554 S
C596 C313 1.956 . S
C175 C641 2.045 . S
C682 C397 2.080 . S
C639 C349 2.231 . S
C667 C457 2.406 . S
C668 C505 1.781 . S
C571 C683 2.023 . S
C319 C640 1.853 . S
C654 C493 2.111 . S
C109 C610 1.680 . S
C624 C1 2.181 1_655 S
C582 C61 1.806 . S
C597 C103 1.959 1_455 S
C67 C711 1.792 . S
C73 C696 1.964 . S
C133 C709 1.560 . S
C31 C694 2.575 1_554 S
C738 C289 2.017 . S
C737 C469 2.259 . S
C736 C529 1.673 . S
C541 C739 1.926 . S
C391 C655 2.061 . S
C653 C211 1.447 . S
C669 C241 1.728 . S
C680 C277 1.956 . S
C499 C613 2.045 . S
C598 C37 2.080 . S
C97 C611 2.231 . S
C583 C25 2.406 1_565 S
