# Generated by pormake.
# Topology ant, (3,6)-cn, num edge types: 1
# Building blocks:
#     Node 0, Type 0, BuildingBlock: MIDCAF_clean_linker_0, # of connection points: 3
#     Node 1, Type 0, BuildingBlock: MIDCAF_clean_linker_0, # of connection points: 3
#     Node 2, Type 0, BuildingBlock: MIDCAF_clean_linker_0, # of connection points: 3
#     Node 3, Type 0, BuildingBlock: MIDCAF_clean_linker_0, # of connection points: 3
#     Node 4, Type 0, BuildingBlock: MIDCAF_clean_linker_0, # of connection points: 3
#     Node 5, Type 0, BuildingBlock: MIDCAF_clean_linker_0, # of connection points: 3
#     Node 6, Type 0, BuildingBlock: MIDCAF_clean_linker_0, # of connection points: 3
#     Node 7, Type 0, BuildingBlock: MIDCAF_clean_linker_0, # of connection points: 3
#     Node 8, Type 1, BuildingBlock: MIDCAF_clean_sbu_0, # of connection points: 6
#     Node 9, Type 1, BuildingBlock: MIDCAF_clean_sbu_0, # of connection points: 6
#     Node 10, Type 1, BuildingBlock: MIDCAF_clean_sbu_0, # of connection points: 6
#     Node 11, Type 1, BuildingBlock: MIDCAF_clean_sbu_0, # of connection points: 6
#     Edge 12, Type (0, 1), BuildingBlock: OJICUG_clean_linker_0, # of connection points: 2
#     Edge 13, Type (0, 1), BuildingBlock: OJICUG_clean_linker_0, # of connection points: 2
#     Edge 14, Type (0, 1), BuildingBlock: OJICUG_clean_linker_0, # of connection points: 2
#     Edge 15, Type (0, 1), BuildingBlock: OJICUG_clean_linker_0, # of connection points: 2
#     Edge 16, Type (0, 1), BuildingBlock: OJICUG_clean_linker_0, # of connection points: 2
#     Edge 17, Type (0, 1), BuildingBlock: OJICUG_clean_linker_0, # of connection points: 2
#     Edge 18, Type (0, 1), BuildingBlock: OJICUG_clean_linker_0, # of connection points: 2
#     Edge 19, Type (0, 1), BuildingBlock: OJICUG_clean_linker_0, # of connection points: 2
#     Edge 20, Type (0, 1), BuildingBlock: OJICUG_clean_linker_0, # of connection points: 2
#     Edge 21, Type (0, 1), BuildingBlock: OJICUG_clean_linker_0, # of connection points: 2
#     Edge 22, Type (0, 1), BuildingBlock: OJICUG_clean_linker_0, # of connection points: 2
#     Edge 23, Type (0, 1), BuildingBlock: OJICUG_clean_linker_0, # of connection points: 2
#     Edge 24, Type (0, 1), BuildingBlock: OJICUG_clean_linker_0, # of connection points: 2
#     Edge 25, Type (0, 1), BuildingBlock: OJICUG_clean_linker_0, # of connection points: 2
#     Edge 26, Type (0, 1), BuildingBlock: OJICUG_clean_linker_0, # of connection points: 2
#     Edge 27, Type (0, 1), BuildingBlock: OJICUG_clean_linker_0, # of connection points: 2
#     Edge 28, Type (0, 1), BuildingBlock: OJICUG_clean_linker_0, # of connection points: 2
#     Edge 29, Type (0, 1), BuildingBlock: OJICUG_clean_linker_0, # of connection points: 2
#     Edge 30, Type (0, 1), BuildingBlock: OJICUG_clean_linker_0, # of connection points: 2
#     Edge 31, Type (0, 1), BuildingBlock: OJICUG_clean_linker_0, # of connection points: 2
#     Edge 32, Type (0, 1), BuildingBlock: OJICUG_clean_linker_0, # of connection points: 2
#     Edge 33, Type (0, 1), BuildingBlock: OJICUG_clean_linker_0, # of connection points: 2
#     Edge 34, Type (0, 1), BuildingBlock: OJICUG_clean_linker_0, # of connection points: 2
#     Edge 35, Type (0, 1), BuildingBlock: OJICUG_clean_linker_0, # of connection points: 2
# Relax obj value: 0.104
# Max RMSD: 0.159
# Mean RMSD: 0.105
data_MOF--net-ant--node1-MIDCAF_clean_sbu_0--node2-MIDCAF_clean_linker_0--edge1-OJICUG_clean_linker_0
_symmetry_space_group_name_H-M    P1
_symmetry_Int_Tables_number       1
_symmetry_cell_setting            triclinic
loop_
_symmetry_equiv_pos_as_xyz
'x, y, z'
_cell_length_a     27.271187
_cell_length_b     26.937792
_cell_length_c     72.993036
_cell_angle_alpha  90.556238
_cell_angle_beta   94.908407
_cell_angle_gamma 90.064831
loop_
_atom_site_label
_atom_site_type_symbol
_atom_site_fract_x
_atom_site_fract_y
_atom_site_fract_z
_atom_type_partial_charge
C0 C 0.16062 0.39999 0.06371 0.0
C1 C 0.17733 0.41358 0.08182 0.0
C2 C 0.19191 0.3755 0.09425 0.0
C3 C 0.1915 0.32561 0.08861 0.0
H4 H 0.17077 0.13961 0.10033 0.0
H5 H 0.19004 0.05814 0.11347 0.0
H6 H 0.30361 0.03895 0.07614 0.0
H7 H 0.2819 0.11901 0.06244 0.0
H8 H 0.18642 0.11565 0.02055 0.0
H9 H 0.16098 0.09567 0.98846 0.0
H10 H 0.08042 0.23343 0.98353 0.0
H11 H 0.10575 0.25364 0.01557 0.0
H12 H 0.14788 0.34131 0.04389 0.0
H13 H 0.14932 0.42809 0.05372 0.0
H14 H 0.2039 0.38421 0.10845 0.0
H15 H 0.20371 0.29772 0.09856 0.0
N16 N 0.19878 0.22313 0.07528 0.0
N17 N 0.18736 0.16487 0.05112 0.0
N18 N 0.16217 0.24708 0.04634 0.0
C19 C 0.20343 0.1759 0.06877 0.0
C20 C 0.16622 0.19991 0.03986 0.0
C21 C 0.17856 0.25929 0.06397 0.0
C22 C 0.22477 0.13537 0.08038 0.0
C23 C 0.20093 0.11856 0.09543 0.0
C24 C 0.21217 0.07173 0.10295 0.0
C25 C 0.24789 0.04107 0.09567 0.0
C26 C 0.27501 0.06061 0.08182 0.0
C27 C 0.26303 0.1068 0.07408 0.0
C28 C 0.14853 0.18658 0.02063 0.0
C29 C 0.16282 0.14151 0.01272 0.0
C30 C 0.14822 0.12991 -0.00567 0.0
C31 C 0.11843 0.16273 0.98352 0.0
C32 C 0.1027 0.20692 0.9916 0.0
C33 C 0.11775 0.21883 0.00991 0.0
C34 C 0.17618 0.3121 0.07037 0.0
C35 C 0.16006 0.35 0.05807 0.0
C36 C 0.23545 0.81369 0.32487 0.0
C37 C 0.24599 0.78773 0.34134 0.0
C38 C 0.20617 0.76787 0.35007 0.0
C39 C 0.15758 0.77137 0.34197 0.0
H40 H -0.00482 0.76264 0.34859 0.0
H41 H 0.91596 0.7507 0.36135 0.0
H42 H 0.84142 0.76239 0.30691 0.0
H43 H 0.91974 0.77272 0.29422 0.0
H44 H -0.01194 0.73712 0.26092 0.0
H45 H -0.00611 0.7242 0.22794 0.0
H46 H 0.1223 0.81845 0.23046 0.0
H47 H 0.11748 0.83052 0.26351 0.0
H48 H 0.18107 0.8353 0.30363 0.0
H49 H 0.26487 0.82912 0.31762 0.0
H50 H 0.21276 0.74809 0.36289 0.0
H51 H 0.12823 0.75376 0.34864 0.0
N52 N 0.05598 0.78217 0.32254 0.0
N53 N 0.01162 0.77826 0.29346 0.0
N54 N 0.09637 0.79284 0.29561 0.0
C55 C 0.01208 0.7766 0.31207 0.0
C56 C 0.05333 0.78642 0.28513 0.0
C57 C 0.09841 0.79066 0.31426 0.0
C58 C 0.96435 0.76875 0.32035 0.0
C59 C 0.96192 0.76246 0.33935 0.0
C60 C 0.91629 0.75582 0.34667 0.0
C61 C 0.87184 0.75553 0.33519 0.0
C62 C 0.87454 0.76144 0.31621 0.0
C63 C 0.91989 0.76782 0.30893 0.0
C64 C 0.05264 0.78446 0.26484 0.0
C65 C 0.01698 0.75589 0.25439 0.0
C66 C 0.02021 0.74848 0.23554 0.0
C67 C 0.05835 0.77054 0.22673 0.0
C68 C 0.0922 0.80153 0.23693 0.0
C69 C 0.08968 0.80805 0.25585 0.0
C70 C 0.1477 0.79437 0.32485 0.0
C71 C 0.18716 0.8168 0.31674 0.0
C72 C 0.67195 0.90672 0.56456 0.0
C73 C 0.68933 0.91948 0.58268 0.0
C74 C 0.7046 0.88083 0.59477 0.0
C75 C 0.70389 0.83117 0.5888 0.0
H76 H 0.6826 0.6461 0.59986 0.0
H77 H 0.70195 0.56442 0.6128 0.0
H78 H 0.809 0.54216 0.57308 0.0
H79 H 0.78691 0.62234 0.55958 0.0
H80 H 0.67774 0.62061 0.51993 0.0
H81 H 0.64442 0.60284 0.4884 0.0
H82 H 0.58606 0.75169 0.48431 0.0
H83 H 0.61849 0.7693 0.51566 0.0
H84 H 0.6581 0.84906 0.54444 0.0
H85 H 0.66023 0.93522 0.55479 0.0
H86 H 0.71719 0.88888 0.60896 0.0
H87 H 0.71645 0.80276 0.59849 0.0
N88 N 0.70899 0.72884 0.57457 0.0
N89 N 0.6934 0.67196 0.55009 0.0
N90 N 0.67011 0.75501 0.54632 0.0
C91 C 0.71171 0.6818 0.56763 0.0
C92 C 0.67208 0.70814 0.53939 0.0
C93 C 0.68859 0.766 0.5638 0.0
C94 C 0.73313 0.64027 0.57871 0.0
C95 C 0.71131 0.62422 0.59433 0.0
C96 C 0.72263 0.57728 0.60175 0.0
C97 C 0.75651 0.54574 0.59381 0.0
C98 C 0.78172 0.56443 0.57928 0.0
C99 C 0.76954 0.6107 0.57164 0.0
C100 C 0.65103 0.69655 0.52037 0.0
C101 C 0.65745 0.64945 0.51235 0.0
C102 C 0.6384 0.63917 0.49427 0.0
C103 C 0.61212 0.67558 0.48388 0.0
C104 C 0.60514 0.72233 0.49202 0.0
C105 C 0.62432 0.73268 0.51 0.0
C106 C 0.68753 0.81853 0.57058 0.0
C107 C 0.67103 0.85704 0.55861 0.0
C108 C 0.73634 0.32831 0.82476 0.0
C109 C 0.74748 0.30195 0.84111 0.0
C110 C 0.70798 0.28151 0.84989 0.0
C111 C 0.65922 0.28461 0.8419 0.0
H112 H 0.4906 0.30125 0.8475 0.0
H113 H 0.40944 0.29481 0.85927 0.0
H114 H 0.34641 0.24969 0.80539 0.0
H115 H 0.42689 0.25496 0.79379 0.0
H116 H 0.4937 0.24215 0.76075 0.0
H117 H 0.50145 0.22789 0.72794 0.0
H118 H 0.6259 0.32744 0.73043 0.0
H119 H 0.61916 0.34088 0.76329 0.0
H120 H 0.6814 0.34971 0.80368 0.0
H121 H 0.76544 0.34422 0.81747 0.0
H122 H 0.71497 0.26145 0.86262 0.0
H123 H 0.63021 0.26634 0.84854 0.0
N124 N 0.55714 0.29428 0.82227 0.0
N125 N 0.51406 0.28682 0.79301 0.0
N126 N 0.59844 0.30349 0.79548 0.0
C127 C 0.51377 0.28674 0.81162 0.0
C128 C 0.55595 0.29534 0.78485 0.0
C129 C 0.59981 0.30281 0.81413 0.0
C130 C 0.46566 0.27909 0.81965 0.0
C131 C 0.45957 0.28942 0.83823 0.0
C132 C 0.41283 0.28609 0.84492 0.0
C133 C 0.37098 0.27213 0.83325 0.0
C134 C 0.37753 0.26019 0.81486 0.0
C135 C 0.424 0.26365 0.80817 0.0
C136 C 0.55618 0.29226 0.76462 0.0
C137 C 0.52212 0.26175 0.75422 0.0
C138 C 0.52645 0.25358 0.73548 0.0
C139 C 0.56407 0.27678 0.72673 0.0
C140 C 0.59622 0.30961 0.73685 0.0
C141 C 0.59262 0.31692 0.75566 0.0
C142 C 0.64884 0.30782 0.82484 0.0
C143 C 0.6879 0.33105 0.81675 0.0
C144 C 0.95525 0.55721 0.9029 0.0
C145 C 0.98262 0.53696 0.88913 0.0
C146 C 0.01832 0.56736 0.88186 0.0
C147 C 0.02934 0.6147 0.88934 0.0
H148 H 0.02821 0.79326 0.88597 0.0
H149 H 0.02851 0.87906 0.87593 0.0
H150 H 0.07947 0.92682 0.93094 0.0
H151 H 0.08049 0.84069 0.94092 0.0
H152 H 0.12348 0.75439 0.96933 0.0
H153 H 0.14895 0.73553 0.00132 0.0
H154 H 0.06883 0.5971 -0.00385 0.0
H155 H 0.04324 0.61572 0.96411 0.0
H156 H 0.94796 0.61674 0.92219 0.0
H157 H 0.92665 0.53573 0.90856 0.0
H158 H 0.04062 0.55324 0.8714 0.0
H159 H 0.05952 0.6356 0.88447 0.0
N160 N 0.03127 0.72038 0.90943 0.0
N161 N 0.06753 0.74602 0.93842 0.0
N162 N 0.04232 0.66351 0.93363 0.0
C163 C 0.05136 0.75721 0.92076 0.0
C164 C 0.06336 0.6992 0.94491 0.0
C165 C 0.02647 0.67352 0.91595 0.0
C166 C 0.05393 0.80962 0.91431 0.0
C167 C 0.03971 0.82186 0.89595 0.0
C168 C 0.03959 0.87136 0.89022 0.0
C169 C 0.05331 0.91033 0.90267 0.0
C170 C 0.06888 0.89802 0.92092 0.0
C171 C 0.06919 0.8484 0.92665 0.0
C172 C 0.08093 0.68687 0.96415 0.0
C173 C 0.11158 0.71973 0.97492 0.0
C174 C 0.12671 0.7086 0.99321 0.0
C175 C 0.11118 0.66459 0.00121 0.0
C176 C 0.08143 0.63121 0.99035 0.0
C177 C 0.06676 0.64204 0.97199 0.0
C178 C 0.00528 0.6323 0.90434 0.0
C179 C 0.967 0.60393 0.9106 0.0
C180 C 0.49548 0.83212 0.16129 0.0
C181 C 0.48431 0.80737 0.14441 0.0
C182 C 0.52377 0.78783 0.13527 0.0
C183 C 0.5725 0.7902 0.14337 0.0
H184 H 0.74131 0.80598 0.13814 0.0
H185 H 0.82258 0.80013 0.12637 0.0
H186 H 0.88509 0.75332 0.17976 0.0
H187 H 0.80458 0.75788 0.19132 0.0
H188 H 0.73845 0.74155 0.22363 0.0
H189 H 0.73118 0.72385 0.25611 0.0
H190 H 0.60537 0.82079 0.2558 0.0
H191 H 0.61156 0.83768 0.22319 0.0
H192 H 0.55038 0.85154 0.18284 0.0
H193 H 0.46643 0.84729 0.16887 0.0
H194 H 0.51677 0.76901 0.12213 0.0
H195 H 0.60147 0.77262 0.13639 0.0
N196 N 0.67454 0.79819 0.16328 0.0
N197 N 0.71737 0.78825 0.19239 0.0
N198 N 0.63306 0.8048 0.19019 0.0
C199 C 0.71781 0.78983 0.17381 0.0
C200 C 0.67547 0.79583 0.20067 0.0
C201 C 0.63183 0.80586 0.17154 0.0
C202 C 0.766 0.78286 0.16573 0.0
C203 C 0.77226 0.79392 0.14729 0.0
C204 C 0.81907 0.79094 0.14061 0.0
C205 C 0.86081 0.77663 0.15216 0.0
C206 C 0.85407 0.76407 0.17039 0.0
C207 C 0.80756 0.76714 0.17705 0.0
C208 C 0.67523 0.79064 0.22082 0.0
C209 C 0.70979 0.75986 0.23056 0.0
C210 C 0.70576 0.74972 0.24912 0.0
C211 C 0.66794 0.77122 0.25836 0.0
C212 C 0.6352 0.80428 0.24896 0.0
C213 C 0.6385 0.81355 0.2303 0.0
C214 C 0.58288 0.81177 0.16089 0.0
C215 C 0.54388 0.83414 0.16941 0.0
C216 C 0.48247 0.03329 0.40593 0.0
C217 C 0.48801 0.02961 0.38699 0.0
C218 C 0.49933 0.07339 0.37767 0.0
C219 C 0.50855 0.11845 0.38732 0.0
H220 H 0.5159 0.28531 0.38749 0.0
H221 H 0.51946 0.37054 0.37671 0.0
H222 H 0.5878 0.41718 0.42963 0.0
H223 H 0.58342 0.33239 0.44055 0.0
H224 H 0.62295 0.25134 0.46972 0.0
H225 H 0.65089 0.23522 0.50172 0.0
H226 H 0.57467 0.09447 0.49855 0.0
H227 H 0.54667 0.1103 0.46649 0.0
H228 H 0.48905 0.07828 0.43021 0.0
H229 H 0.47439 0.00083 0.41378 0.0
H230 H 0.50314 0.07243 0.36303 0.0
H231 H 0.51981 0.15061 0.37993 0.0
N232 N 0.52829 0.21102 0.41084 0.0
N233 N 0.56508 0.23949 0.4394 0.0
N234 N 0.54331 0.15595 0.43544 0.0
C235 C 0.54756 0.24921 0.42176 0.0
C236 C 0.56316 0.19299 0.44631 0.0
C237 C 0.52588 0.16413 0.41776 0.0
C238 C 0.54954 0.30138 0.41489 0.0
C239 C 0.53169 0.31361 0.39686 0.0
C240 C 0.53398 0.36268 0.39065 0.0
C241 C 0.55427 0.4011 0.40224 0.0
C242 C 0.57153 0.38897 0.42033 0.0
C243 C 0.56928 0.33994 0.42654 0.0
C244 C 0.58219 0.18238 0.46554 0.0
C245 C 0.61245 0.21675 0.47576 0.0
C246 C 0.62899 0.20721 0.49404 0.0
C247 C 0.61528 0.16334 0.5026 0.0
C248 C 0.5859 0.12849 0.4923 0.0
C249 C 0.56984 0.13772 0.47393 0.0
C250 C 0.50676 0.12065 0.40649 0.0
C251 C 0.4916 0.07797 0.41548 0.0
C252 C 0.00556 0.33558 0.66264 0.0
C253 C -0.0056 0.31241 0.64545 0.0
C254 C 0.03387 0.29341 0.63617 0.0
C255 C 0.08254 0.29481 0.64438 0.0
H256 H 0.25135 0.31004 0.63959 0.0
H257 H 0.33268 0.3053 0.62785 0.0
H258 H 0.39521 0.25614 0.68092 0.0
H259 H 0.31459 0.25963 0.69246 0.0
H260 H 0.24647 0.23992 0.72475 0.0
H261 H 0.23872 0.22211 0.75722 0.0
H262 H 0.11511 0.32194 0.75701 0.0
H263 H 0.12183 0.33892 0.72448 0.0
H264 H 0.0603 0.35291 0.68448 0.0
H265 H 0.97653 0.35026 0.67035 0.0
H266 H 0.02693 0.27582 0.6228 0.0
H267 H 0.11149 0.2777 0.63726 0.0
N268 N 0.18452 0.30086 0.66457 0.0
N269 N 0.227 0.28912 0.69366 0.0
N270 N 0.14272 0.30587 0.69144 0.0
C271 C 0.22767 0.29184 0.6751 0.0
C272 C 0.18497 0.29625 0.70192 0.0
C273 C 0.14169 0.30801 0.67281 0.0
C274 C 0.27599 0.28564 0.66703 0.0
C275 C 0.28231 0.29772 0.64869 0.0
C276 C 0.32917 0.29538 0.64201 0.0
C277 C 0.37094 0.28072 0.65347 0.0
C278 C 0.36418 0.26719 0.67161 0.0
C279 C 0.3176 0.26963 0.67827 0.0
C280 C 0.18443 0.29047 0.72203 0.0
C281 C 0.21819 0.25875 0.73171 0.0
C282 C 0.21385 0.24854 0.75026 0.0
C283 C 0.17653 0.27089 0.75955 0.0
C284 C 0.14456 0.30473 0.75018 0.0
C285 C 0.14815 0.31406 0.73154 0.0
C286 C 0.09286 0.31485 0.66215 0.0
C287 C 0.05388 0.33667 0.67085 0.0
Zn288 Zn 0.21153 0.67637 0.1417 0.0
Zn289 Zn 0.11428 0.78717 0.09571 0.0
Zn290 Zn 0.16587 0.73233 0.11797 0.0
C291 C 0.13172 0.70105 0.07628 0.0
C292 C 0.19975 0.84083 0.10521 0.0
O293 O 0.12499 0.73267 0.14294 0.0
O294 O 0.17252 0.689 0.16288 0.0
C295 C 0.18738 0.61324 0.11248 0.0
O296 O 0.15327 0.68858 0.09196 0.0
O297 O 0.11194 0.74308 0.07418 0.0
O298 O 0.15868 0.84446 0.09601 0.0
O299 O 0.21117 0.80078 0.11418 0.0
O300 O 0.20388 0.61191 0.12914 0.0
O301 O 0.17264 0.65503 0.10534 0.0
O302 O 0.24198 0.76605 0.12383 0.0
O303 O 0.2774 0.70685 0.14101 0.0
C304 C 0.28082 0.74694 0.13241 0.0
O305 O 0.0916 0.75135 0.12902 0.0
O306 O 0.05255 0.79592 0.10716 0.0
C307 C 0.13466 0.71515 0.15924 0.0
C308 C 0.05261 0.77503 0.12253 0.0
Zn309 Zn 0.52228 0.66252 0.34335 0.0
Zn310 Zn 0.61024 0.77113 0.38599 0.0
Zn311 Zn 0.56398 0.71851 0.36625 0.0
C312 C 0.54032 0.83218 0.37074 0.0
C313 C 0.68064 0.7448 0.36549 0.0
O314 O 0.56022 0.64175 0.37925 0.0
O315 O 0.54267 0.59803 0.35387 0.0
C316 C 0.44943 0.72741 0.35403 0.0
O317 O 0.51967 0.78903 0.36866 0.0
O318 O 0.5856 0.83469 0.37578 0.0
O319 O 0.67954 0.75651 0.38221 0.0
O320 O 0.63959 0.73407 0.35599 0.0
O321 O 0.45414 0.68495 0.34691 0.0
O322 O 0.48817 0.75127 0.36067 0.0
O323 O 0.60575 0.72077 0.34159 0.0
O324 O 0.5536 0.68306 0.32114 0.0
C325 C 0.59275 0.70746 0.32485 0.0
O326 O 0.574 0.6786 0.39266 0.0
O327 O 0.58423 0.74776 0.4089 0.0
C328 C 0.5547 0.59918 0.37094 0.0
C329 C 0.5763 0.70163 0.40825 0.0
Zn330 Zn 0.623 0.29175 0.59637 0.0
Zn331 Zn 0.72237 0.18294 0.6427 0.0
Zn332 Zn 0.6758 0.23799 0.61869 0.0
C333 C 0.79072 0.25413 0.63304 0.0
C334 C 0.69863 0.119 0.61364 0.0
O335 O 0.60154 0.2569 0.62985 0.0
O336 O 0.56175 0.30124 0.6081 0.0
C337 C 0.70873 0.34591 0.60503 0.0
O338 O 0.75173 0.2724 0.62426 0.0
O339 O 0.7877 0.21448 0.64194 0.0
O340 O 0.71568 0.11822 0.63024 0.0
O341 O 0.68309 0.16043 0.60643 0.0
O342 O 0.66739 0.34886 0.59597 0.0
O343 O 0.72058 0.30648 0.61431 0.0
O344 O 0.66277 0.19326 0.59295 0.0
O345 O 0.61981 0.24653 0.57513 0.0
C346 C 0.64025 0.20484 0.57733 0.0
O347 O 0.6353 0.23852 0.64373 0.0
O348 O 0.68294 0.19533 0.6638 0.0
C349 C 0.56233 0.28045 0.62351 0.0
C350 C 0.64494 0.22122 0.66006 0.0
Zn351 Zn 0.0208 0.17063 0.84283 0.0
Zn352 Zn 0.11688 0.2832 0.88959 0.0
Zn353 Zn 0.06565 0.22752 0.86698 0.0
C354 C 0.09892 0.19746 0.90863 0.0
C355 C 0.03147 0.33628 0.87993 0.0
O356 O 0.10691 0.22776 0.84213 0.0
O357 O 0.05996 0.18367 0.82177 0.0
C358 C 0.04458 0.1084 0.87191 0.0
O359 O 0.07783 0.18445 0.89283 0.0
O360 O 0.11852 0.23967 0.91096 0.0
O361 O 0.07239 0.34035 0.88924 0.0
O362 O 0.02021 0.29587 0.87084 0.0
O363 O 0.02886 0.10647 0.85516 0.0
O364 O 0.05869 0.15053 0.87927 0.0
O365 O -0.01043 0.26064 0.86108 0.0
O366 O 0.95473 0.2006 0.84367 0.0
C367 C 0.95092 0.24089 0.8524 0.0
O368 O 0.14021 0.24646 0.85624 0.0
O369 O 0.179 0.29156 0.87836 0.0
C370 C 0.09761 0.21023 0.82569 0.0
C371 C 0.17918 0.27029 0.86292 0.0
C372 C 0.2215 0.48249 0.09982 0.0
C373 C 0.18139 0.46701 0.08775 0.0
H374 H 0.2549 0.54061 0.1166 0.0
C375 C 0.14548 0.50266 0.08195 0.0
H376 H 0.25076 0.45693 0.10414 0.0
C377 C 0.14838 0.55168 0.08896 0.0
C378 C 0.18713 0.56572 0.10192 0.0
H379 H 0.1141 0.49219 0.07262 0.0
H380 H 0.11912 0.5776 0.08502 0.0
C381 C 0.22415 0.53084 0.10683 0.0
C382 C 0.81488 0.77389 0.35983 0.0
C383 C 0.82278 0.75112 0.34294 0.0
H384 H 0.76459 0.78998 0.37992 0.0
C385 C 0.78292 0.7257 0.33336 0.0
H386 H 0.84399 0.79465 0.36749 0.0
C387 C 0.73663 0.72341 0.34047 0.0
C388 C 0.72899 0.74645 0.35734 0.0
H389 H 0.78757 0.70703 0.32042 0.0
H390 H 0.7072 0.70296 0.33292 0.0
C391 C 0.76891 0.77147 0.36691 0.0
C392 C 0.75161 0.47476 0.61632 0.0
C393 C 0.75951 0.49166 0.59857 0.0
H394 H 0.7311 0.4132 0.63262 0.0
C395 C 0.7632 0.4559 0.58452 0.0
H396 H 0.74945 0.50085 0.62759 0.0
C397 C 0.75386 0.4058 0.58759 0.0
C398 C 0.74072 0.38994 0.60474 0.0
H399 H 0.76858 0.46683 0.57061 0.0
H400 H 0.75183 0.38024 0.57598 0.0
C401 C 0.74216 0.42432 0.61935 0.0
C402 C 0.83856 0.32498 0.84595 0.0
C403 C 0.80008 0.29034 0.84741 0.0
H404 H 0.91706 0.33722 0.84686 0.0
C405 C 0.8128 0.2419 0.85295 0.0
H406 H 0.83023 0.36278 0.84185 0.0
C407 C 0.86208 0.22753 0.85569 0.0
C408 C 0.90043 0.26114 0.85323 0.0
H409 H 0.78469 0.2139 0.85403 0.0
H410 H 0.87024 0.1891 0.85898 0.0
C411 C 0.88833 0.3106 0.84897 0.0
C412 C -0.01013 0.46388 0.86726 0.0
C413 C 0.9799 0.48249 0.88468 0.0
H414 H 0.01222 0.40077 0.85176 0.0
C415 C 0.97459 0.44816 0.89883 0.0
H416 H -0.0066 0.48889 0.85592 0.0
C417 C 0.98436 0.39779 0.89627 0.0
C418 C -0.00057 0.38028 0.87951 0.0
H419 H 0.96758 0.46052 0.91252 0.0
H420 H 0.98511 0.3734 0.90801 0.0
C421 C -0.00036 0.41319 0.86471 0.0
C422 C 0.94655 0.74009 0.1509 0.0
C423 C 0.91135 0.77675 0.14549 0.0
H424 H 0.0188 0.71042 0.14798 0.0
C425 C 0.92509 0.8144 0.13377 0.0
H426 H 0.93736 0.71032 0.15987 0.0
C427 C 0.9717 0.81461 0.12716 0.0
C428 C 0.00636 0.77723 0.13204 0.0
H429 H 0.89977 0.84399 0.12966 0.0
H430 H 0.98029 0.84393 0.11789 0.0
C431 C -0.00651 0.74027 0.14422 0.0
C432 C 0.55006 0.49532 0.40618 0.0
C433 C 0.55848 0.45306 0.39523 0.0
H434 H 0.54259 0.57508 0.4073 0.0
C435 C 0.5705 0.46065 0.37714 0.0
H436 H 0.54075 0.49105 0.4202 0.0
C437 C 0.57154 0.50834 0.36988 0.0
C438 C 0.56082 0.55044 0.38041 0.0
H439 H 0.57878 0.42953 0.36843 0.0
H440 H 0.57981 0.5121 0.3557 0.0
C441 C 0.55128 0.54358 0.39884 0.0
C442 C 0.92819 0.25563 0.63117 0.0
C443 C 0.94166 0.30252 0.6386 0.0
H444 H 0.86989 0.20443 0.62343 0.0
C445 C 0.90367 0.33678 0.64143 0.0
H446 H 0.95586 0.22792 0.62897 0.0
C447 C 0.8537 0.32318 0.63806 0.0
C448 C 0.84088 0.27491 0.63198 0.0
H449 H 0.91253 0.37346 0.64696 0.0
H450 H 0.82539 0.34912 0.64139 0.0
C451 C 0.87867 0.24203 0.62803 0.0
C452 C 0.45672 0.24445 0.65194 0.0
C453 C 0.4215 0.28132 0.6468 0.0
H454 H 0.52885 0.21489 0.64869 0.0
C455 C 0.43516 0.31951 0.63529 0.0
H456 H 0.4476 0.21427 0.66074 0.0
C457 C 0.48169 0.32003 0.6286 0.0
C458 C 0.51633 0.28243 0.63318 0.0
H459 H 0.40982 0.34926 0.63139 0.0
H460 H 0.4902 0.34972 0.61948 0.0
C461 C 0.50356 0.24493 0.64517 0.0
C462 C 0.39337 0.83075 0.14006 0.0
C463 C 0.43165 0.79638 0.13781 0.0
H464 H 0.31496 0.84281 0.13962 0.0
C465 C 0.41863 0.74857 0.13121 0.0
H466 H 0.40192 0.86809 0.14497 0.0
C467 C 0.36926 0.73438 0.12825 0.0
C468 C 0.33115 0.76756 0.13155 0.0
H469 H 0.44657 0.72078 0.1295 0.0
H470 H 0.36085 0.69628 0.12421 0.0
C471 C 0.34352 0.81656 0.13683 0.0
C472 C 0.2852 0.2354 0.83429 0.0
C473 C 0.32051 0.27207 0.83997 0.0
H474 H 0.2129 0.20561 0.83704 0.0
C475 C 0.30697 0.3096 0.85203 0.0
H476 H 0.29426 0.20574 0.82505 0.0
C477 C 0.2604 0.30973 0.85867 0.0
C478 C 0.22559 0.27237 0.85351 0.0
H479 H 0.33242 0.33918 0.85637 0.0
H480 H 0.25194 0.339 0.86818 0.0
C481 C 0.23832 0.23546 0.84103 0.0
C482 C 0.33684 0.81084 0.34665 0.0
C483 C 0.29836 0.77614 0.34791 0.0
H484 H 0.4153 0.82329 0.34806 0.0
C485 C 0.31089 0.72775 0.35356 0.0
H486 H 0.3286 0.8486 0.34248 0.0
C487 C 0.36013 0.71348 0.35662 0.0
C488 C 0.39858 0.74716 0.35437 0.0
H489 H 0.28271 0.69976 0.35451 0.0
H490 H 0.36818 0.67511 0.36004 0.0
C491 C 0.38653 0.79658 0.34999 0.0
C492 C 0.65697 0.00827 0.58319 0.0
C493 C 0.69303 0.97269 0.58891 0.0
H494 H 0.63037 0.08304 0.58632 0.0
C495 C 0.73295 0.98812 0.60108 0.0
H496 H 0.62563 -0.00214 0.57383 0.0
C497 C 0.73541 0.03642 0.60817 0.0
C498 C 0.69838 0.07127 0.60322 0.0
H499 H 0.76231 0.96264 0.60536 0.0
H500 H 0.7661 0.04621 0.61796 0.0
C501 C 0.65969 0.0572 0.59025 0.0
C502 C 0.24106 0.96935 0.11768 0.0
C503 C 0.25089 0.9869 0.10022 0.0
H504 H 0.21897 0.90712 0.1333 0.0
C505 C 0.25636 0.95167 0.08613 0.0
H506 H 0.23744 -0.00494 0.12897 0.0
C507 C 0.24683 0.9014 0.08879 0.0
C508 C 0.23183 0.88489 0.10559 0.0
H509 H 0.26328 0.96318 0.07242 0.0
H510 H 0.24615 0.87625 0.07709 0.0
C511 C 0.23151 0.91876 0.12032 0.0
C512 C 0.46167 0.93897 0.38388 0.0
C513 C 0.48959 0.97925 0.37802 0.0
H514 H 0.45495 0.8595 0.38569 0.0
C515 C 0.52549 0.96909 0.36578 0.0
H516 H 0.43282 0.94525 0.39293 0.0
C517 C 0.53726 0.92016 0.3614 0.0
C518 C 0.51357 0.87996 0.36909 0.0
H519 H 0.54804 -0.00151 0.36095 0.0
H520 H 0.56834 0.9137 0.35338 0.0
C521 C 0.47365 0.88971 0.37948 0.0
C522 C 0.08497 -0.00043 0.90273 0.0
C523 C 0.04957 0.96335 0.8966 0.0
H524 H 0.11127 0.07452 0.89992 0.0
C525 C 0.0103 0.97786 0.8841 0.0
H526 H 0.11572 0.98987 0.91239 0.0
C527 C 0.00799 0.02578 0.87703 0.0
C528 C 0.04451 0.06122 0.88233 0.0
H529 H 0.9814 0.95187 0.8795 0.0
H530 H 0.97787 0.03478 0.86696 0.0
C531 C 0.0824 0.04817 0.89568 0.0
C532 C 0.1478 0.1437 0.95271 0.0
C533 C 0.10856 0.15447 0.96339 0.0
H534 H 0.17468 0.14765 0.92603 0.0
C535 C 0.06216 0.16536 0.95443 0.0
H536 H 0.18403 0.13537 0.9592 0.0
C537 C 0.05666 0.17124 0.93534 0.0
C538 C 0.09757 0.1668 0.92504 0.0
H539 H 0.03114 0.17324 0.96232 0.0
H540 H 0.02201 0.18502 0.929 0.0
C541 C 0.1424 0.15023 0.93368 0.0
C542 C 0.07619 0.7057 0.20381 0.0
C543 C 0.06745 0.75584 0.20775 0.0
H544 H 0.10472 0.65356 0.18512 0.0
C545 C 0.07405 0.79168 0.19431 0.0
H546 H 0.07171 0.67748 0.21401 0.0
C547 C 0.09176 0.77777 0.17755 0.0
C548 C 0.10442 0.72812 0.17433 0.0
H549 H 0.06755 0.83058 0.19711 0.0
H550 H 0.099 0.80622 0.16774 0.0
C551 C 0.09512 0.69205 0.18733 0.0
C552 C 0.62685 0.64558 0.45205 0.0
C553 C 0.59522 0.66714 0.46416 0.0
H554 H 0.64418 0.63814 0.424 0.0
C555 C 0.55043 0.68752 0.45681 0.0
H556 H 0.66165 0.62958 0.45725 0.0
C557 C 0.54066 0.6924 0.43783 0.0
C558 C 0.57504 0.6762 0.42587 0.0
H559 H 0.52471 0.70333 0.46576 0.0
H560 H 0.50851 0.71316 0.43262 0.0
C561 C 0.61673 0.65005 0.43299 0.0
C562 C 0.58059 0.29712 0.69434 0.0
C563 C 0.57461 0.26162 0.70796 0.0
H564 H 0.60623 0.31148 0.66787 0.0
C565 C 0.5854 0.21169 0.70443 0.0
H566 H 0.57251 0.33586 0.69681 0.0
C567 C 0.6056 0.19806 0.6882 0.0
C568 C 0.61418 0.23391 0.67503 0.0
H569 H 0.58145 0.18375 0.71479 0.0
H570 H 0.61658 0.15984 0.68631 0.0
C571 C 0.59964 0.28319 0.67783 0.0
C572 C 0.08228 0.64621 0.03203 0.0
C573 C 0.12131 0.65699 0.0213 0.0
H574 H 0.05583 0.65049 0.0588 0.0
C575 C 0.1678 0.66834 0.03022 0.0
H576 H 0.046 0.63753 0.02558 0.0
C577 C 0.17358 0.67459 0.04933 0.0
C578 C 0.13287 0.67008 0.05972 0.0
H579 H 0.19866 0.67624 0.02229 0.0
H580 H 0.20829 0.68868 0.05567 0.0
C581 C 0.08796 0.65312 0.05109 0.0
C582 C 0.65384 0.78768 0.29141 0.0
C583 C 0.65798 0.75394 0.27682 0.0
H584 H 0.63137 0.79859 0.31868 0.0
C585 C 0.64654 0.70375 0.27919 0.0
H586 H 0.6624 0.82659 0.28981 0.0
C587 C 0.62778 0.68815 0.29536 0.0
C588 C 0.6214 0.7222 0.30962 0.0
H589 H 0.6491 0.6772 0.26807 0.0
H590 H 0.61643 0.6498 0.29645 0.0
C591 C 0.63634 0.77169 0.30786 0.0
C592 C 0.58895 0.14651 0.53392 0.0
C593 C 0.62691 0.15731 0.5227 0.0
H594 H 0.56433 0.15204 0.56096 0.0
C595 C 0.67363 0.17018 0.53106 0.0
H596 H 0.55252 0.1367 0.52788 0.0
C597 C 0.68057 0.17779 0.5501 0.0
C598 C 0.6408 0.17313 0.56094 0.0
H599 H 0.70368 0.17815 0.52275 0.0
H600 H 0.71532 0.19293 0.55597 0.0
C601 C 0.59577 0.1548 0.5529 0.0
C602 C 0.15546 0.20407 0.7808 0.0
C603 C 0.16638 0.25425 0.7781 0.0
H604 H 0.12473 0.15082 0.79819 0.0
C605 C 0.16108 0.28868 0.79238 0.0
H606 H 0.1589 0.17694 0.76993 0.0
C607 C 0.14258 0.27349 0.80874 0.0
C608 C 0.12791 0.224 0.81077 0.0
H609 H 0.16929 0.32758 0.79055 0.0
H610 H 0.13649 0.30103 0.81922 0.0
C611 C 0.13581 0.18918 0.7969 0.0
loop_
_geom_bond_atom_site_label_1
_geom_bond_atom_site_label_2
_geom_bond_distance
_geom_bond_site_symmetry_2
_ccdc_geom_bond_type
C0 C1 1.384 . S
C0 H13 0.947 . S
C0 C35 1.382 . S
C1 C0 1.384 . S
C1 C2 1.378 . S
C2 C1 1.378 . S
C2 C3 1.378 . S
C2 H14 0.952 . S
C3 C2 1.378 . S
C3 H15 0.950 . S
C3 C34 1.383 . S
H4 C23 0.947 . S
H5 C24 0.946 . S
H6 C26 0.953 . S
H7 C27 0.945 . S
H8 C29 0.952 . S
H9 C30 0.947 1_556 S
H10 C32 0.925 1_556 S
H11 C33 0.948 . S
H12 C35 0.951 . S
H13 C0 0.947 . S
H14 C2 0.952 . S
H15 C3 0.950 . S
N16 C19 1.382 . S
N16 C21 1.363 . S
N17 C19 1.371 . S
N17 C20 1.372 . S
N18 C20 1.361 . S
N18 C21 1.377 . S
C19 N16 1.382 . S
C19 N17 1.371 . S
C19 C22 1.480 . S
C20 N17 1.372 . S
C20 N18 1.361 . S
C20 C28 1.457 . S
C21 N16 1.363 . S
C21 N18 1.377 . S
C21 C34 1.479 . S
C22 C19 1.480 . S
C22 C23 1.383 . S
C22 C27 1.385 . S
C23 H4 0.947 . S
C23 C22 1.383 . S
C23 C24 1.388 . S
C24 H5 0.946 . S
C24 C23 1.388 . S
C24 C25 1.384 . S
C25 C24 1.384 . S
C25 C26 1.377 . S
C26 H6 0.953 . S
C26 C25 1.377 . S
C26 C27 1.369 . S
C27 H7 0.945 . S
C27 C22 1.385 . S
C27 C26 1.369 . S
C28 C20 1.457 . S
C28 C29 1.372 . S
C28 C33 1.364 . S
C29 H8 0.952 . S
C29 C28 1.372 . S
C29 C30 1.392 . S
C30 H9 0.947 1_554 S
C30 C29 1.392 . S
C30 C31 1.385 1_554 S
C31 C30 1.385 1_556 S
C31 C32 1.348 1_556 S
C32 H10 0.925 1_554 S
C32 C31 1.348 1_554 S
C32 C33 1.428 . S
C33 H11 0.948 . S
C33 C28 1.364 . S
C33 C32 1.428 . S
C34 C3 1.383 . S
C34 C21 1.479 . S
C34 C35 1.398 . S
C35 C0 1.382 . S
C35 H12 0.951 . S
C35 C34 1.398 . S
C36 C37 1.384 . S
C36 H49 0.947 . S
C36 C71 1.382 . S
C37 C36 1.384 . S
C37 C38 1.378 . S
C38 C37 1.378 . S
C38 C39 1.378 . S
C38 H50 0.952 . S
C39 C38 1.378 . S
C39 H51 0.950 . S
C39 C70 1.383 . S
H40 C59 0.947 . S
H41 C60 0.946 . S
H42 C62 0.953 . S
H43 C63 0.945 . S
H44 C65 0.952 . S
H45 C66 0.949 . S
H46 C68 0.950 . S
H47 C69 0.948 . S
H48 C71 0.951 . S
H49 C36 0.947 . S
H50 C38 0.952 . S
H51 C39 0.950 . S
N52 C55 1.382 . S
N52 C57 1.363 . S
N53 C55 1.371 . S
N53 C56 1.372 . S
N54 C56 1.361 . S
N54 C57 1.377 . S
C55 N52 1.382 . S
C55 N53 1.371 . S
C55 C58 1.480 . S
C56 N53 1.372 . S
C56 N54 1.361 . S
C56 C64 1.457 . S
C57 N52 1.363 . S
C57 N54 1.377 . S
C57 C70 1.479 . S
C58 C55 1.480 . S
C58 C59 1.383 . S
C58 C63 1.385 1_455 S
C59 H40 0.947 . S
C59 C58 1.383 . S
C59 C60 1.388 1_455 S
C60 H41 0.946 . S
C60 C59 1.388 1_655 S
C60 C61 1.384 . S
C61 C60 1.384 . S
C61 C62 1.377 . S
C62 H42 0.953 . S
C62 C61 1.377 . S
C62 C63 1.369 . S
C63 H43 0.945 . S
C63 C58 1.385 1_655 S
C63 C62 1.369 . S
C64 C56 1.457 . S
C64 C65 1.372 . S
C64 C69 1.364 . S
C65 H44 0.952 . S
C65 C64 1.372 . S
C65 C66 1.389 . S
C66 H45 0.949 . S
C66 C65 1.389 . S
C66 C67 1.387 . S
C67 C66 1.387 . S
C67 C68 1.372 . S
C68 H46 0.950 . S
C68 C67 1.372 . S
C68 C69 1.379 . S
C69 H47 0.948 . S
C69 C64 1.364 . S
C69 C68 1.379 . S
C70 C39 1.383 . S
C70 C57 1.479 . S
C70 C71 1.398 . S
C71 C36 1.382 . S
C71 H48 0.951 . S
C71 C70 1.398 . S
C72 C73 1.384 . S
C72 H85 0.947 . S
C72 C107 1.382 . S
C73 C72 1.384 . S
C73 C74 1.378 . S
C74 C73 1.378 . S
C74 C75 1.378 . S
C74 H86 0.952 . S
C75 C74 1.378 . S
C75 H87 0.950 . S
C75 C106 1.383 . S
H76 C95 0.947 . S
H77 C96 0.946 . S
H78 C98 0.953 . S
H79 C99 0.945 . S
H80 C101 0.952 . S
H81 C102 0.949 . S
H82 C104 0.950 . S
H83 C105 0.948 . S
H84 C107 0.951 . S
H85 C72 0.947 . S
H86 C74 0.952 . S
H87 C75 0.950 . S
N88 C91 1.382 . S
N88 C93 1.363 . S
N89 C91 1.371 . S
N89 C92 1.372 . S
N90 C92 1.361 . S
N90 C93 1.377 . S
C91 N88 1.382 . S
C91 N89 1.371 . S
C91 C94 1.480 . S
C92 N89 1.372 . S
C92 N90 1.361 . S
C92 C100 1.457 . S
C93 N88 1.363 . S
C93 N90 1.377 . S
C93 C106 1.479 . S
C94 C91 1.480 . S
C94 C95 1.383 . S
C94 C99 1.385 . S
C95 H76 0.947 . S
C95 C94 1.383 . S
C95 C96 1.388 . S
C96 H77 0.946 . S
C96 C95 1.388 . S
C96 C97 1.384 . S
C97 C96 1.384 . S
C97 C98 1.377 . S
C98 H78 0.953 . S
C98 C97 1.377 . S
C98 C99 1.369 . S
C99 H79 0.945 . S
C99 C94 1.385 . S
C99 C98 1.369 . S
C100 C92 1.457 . S
C100 C101 1.372 . S
C100 C105 1.364 . S
C101 H80 0.952 . S
C101 C100 1.372 . S
C101 C102 1.389 . S
C102 H81 0.949 . S
C102 C101 1.389 . S
C102 C103 1.387 . S
C103 C102 1.387 . S
C103 C104 1.372 . S
C104 H82 0.950 . S
C104 C103 1.372 . S
C104 C105 1.379 . S
C105 H83 0.948 . S
C105 C100 1.364 . S
C105 C104 1.379 . S
C106 C75 1.383 . S
C106 C93 1.479 . S
C106 C107 1.398 . S
C107 C72 1.382 . S
C107 H84 0.951 . S
C107 C106 1.398 . S
C108 C109 1.384 . S
C108 H121 0.947 . S
C108 C143 1.382 . S
C109 C108 1.384 . S
C109 C110 1.378 . S
C110 C109 1.378 . S
C110 C111 1.378 . S
C110 H122 0.952 . S
C111 C110 1.378 . S
C111 H123 0.950 . S
C111 C142 1.383 . S
H112 C131 0.947 . S
H113 C132 0.946 . S
H114 C134 0.953 . S
H115 C135 0.945 . S
H116 C137 0.952 . S
H117 C138 0.949 . S
H118 C140 0.950 . S
H119 C141 0.948 . S
H120 C143 0.951 . S
H121 C108 0.947 . S
H122 C110 0.952 . S
H123 C111 0.950 . S
N124 C127 1.382 . S
N124 C129 1.363 . S
N125 C127 1.371 . S
N125 C128 1.372 . S
N126 C128 1.361 . S
N126 C129 1.377 . S
C127 N124 1.382 . S
C127 N125 1.371 . S
C127 C130 1.480 . S
C128 N125 1.372 . S
C128 N126 1.361 . S
C128 C136 1.457 . S
C129 N124 1.363 . S
C129 N126 1.377 . S
C129 C142 1.479 . S
C130 C127 1.480 . S
C130 C131 1.383 . S
C130 C135 1.385 . S
C131 H112 0.947 . S
C131 C130 1.383 . S
C131 C132 1.388 . S
C132 H113 0.946 . S
C132 C131 1.388 . S
C132 C133 1.384 . S
C133 C132 1.384 . S
C133 C134 1.377 . S
C134 H114 0.953 . S
C134 C133 1.377 . S
C134 C135 1.369 . S
C135 H115 0.945 . S
C135 C130 1.385 . S
C135 C134 1.369 . S
C136 C128 1.457 . S
C136 C137 1.372 . S
C136 C141 1.364 . S
C137 H116 0.952 . S
C137 C136 1.372 . S
C137 C138 1.389 . S
C138 H117 0.949 . S
C138 C137 1.389 . S
C138 C139 1.387 . S
C139 C138 1.387 . S
C139 C140 1.372 . S
C140 H118 0.950 . S
C140 C139 1.372 . S
C140 C141 1.379 . S
C141 H119 0.948 . S
C141 C136 1.364 . S
C141 C140 1.379 . S
C142 C111 1.383 . S
C142 C129 1.479 . S
C142 C143 1.398 . S
C143 C108 1.382 . S
C143 H120 0.951 . S
C143 C142 1.398 . S
C144 C145 1.384 . S
C144 H157 0.947 . S
C144 C179 1.382 . S
C145 C144 1.384 . S
C145 C146 1.378 . S
C146 C145 1.378 . S
C146 C147 1.378 . S
C146 H158 0.952 . S
C147 C146 1.378 . S
C147 H159 0.950 . S
C147 C178 1.383 . S
H148 C167 0.947 . S
H149 C168 0.946 . S
H150 C170 0.953 . S
H151 C171 0.945 . S
H152 C173 0.952 . S
H153 C174 0.949 1_554 S
H154 C176 0.950 1_554 S
H155 C177 0.948 . S
H156 C179 0.951 . S
H157 C144 0.947 . S
H158 C146 0.952 . S
H159 C147 0.950 . S
N160 C163 1.382 . S
N160 C165 1.363 . S
N161 C163 1.371 . S
N161 C164 1.372 . S
N162 C164 1.361 . S
N162 C165 1.377 . S
C163 N160 1.382 . S
C163 N161 1.371 . S
C163 C166 1.480 . S
C164 N161 1.372 . S
C164 N162 1.361 . S
C164 C172 1.457 . S
C165 N160 1.363 . S
C165 N162 1.377 . S
C165 C178 1.479 . S
C166 C163 1.480 . S
C166 C167 1.383 . S
C166 C171 1.385 . S
C167 H148 0.947 . S
C167 C166 1.383 . S
C167 C168 1.388 . S
C168 H149 0.946 . S
C168 C167 1.388 . S
C168 C169 1.384 . S
C169 C168 1.384 . S
C169 C170 1.377 . S
C170 H150 0.953 . S
C170 C169 1.377 . S
C170 C171 1.369 . S
C171 H151 0.945 . S
C171 C166 1.385 . S
C171 C170 1.369 . S
C172 C164 1.457 . S
C172 C173 1.372 . S
C172 C177 1.364 . S
C173 H152 0.952 . S
C173 C172 1.372 . S
C173 C174 1.389 . S
C174 H153 0.949 1_556 S
C174 C173 1.389 . S
C174 C175 1.387 1_556 S
C175 C174 1.387 1_554 S
C175 C176 1.372 1_554 S
C176 H154 0.950 1_556 S
C176 C175 1.372 1_556 S
C176 C177 1.379 . S
C177 H155 0.948 . S
C177 C172 1.364 . S
C177 C176 1.379 . S
C178 C147 1.383 . S
C178 C165 1.479 . S
C178 C179 1.398 . S
C179 C144 1.382 . S
C179 H156 0.951 . S
C179 C178 1.398 . S
C180 C181 1.384 . S
C180 H193 0.947 . S
C180 C215 1.382 . S
C181 C180 1.384 . S
C181 C182 1.378 . S
C182 C181 1.378 . S
C182 C183 1.378 . S
C182 H194 0.952 . S
C183 C182 1.378 . S
C183 H195 0.950 . S
C183 C214 1.383 . S
H184 C203 0.947 . S
H185 C204 0.946 . S
H186 C206 0.953 . S
H187 C207 0.945 . S
H188 C209 0.952 . S
H189 C210 0.949 . S
H190 C212 0.950 . S
H191 C213 0.948 . S
H192 C215 0.951 . S
H193 C180 0.947 . S
H194 C182 0.952 . S
H195 C183 0.950 . S
N196 C199 1.382 . S
N196 C201 1.363 . S
N197 C199 1.371 . S
N197 C200 1.372 . S
N198 C200 1.361 . S
N198 C201 1.377 . S
C199 N196 1.382 . S
C199 N197 1.371 . S
C199 C202 1.480 . S
C200 N197 1.372 . S
C200 N198 1.361 . S
C200 C208 1.457 . S
C201 N196 1.363 . S
C201 N198 1.377 . S
C201 C214 1.479 . S
C202 C199 1.480 . S
C202 C203 1.383 . S
C202 C207 1.385 . S
C203 H184 0.947 . S
C203 C202 1.383 . S
C203 C204 1.388 . S
C204 H185 0.946 . S
C204 C203 1.388 . S
C204 C205 1.384 . S
C205 C204 1.384 . S
C205 C206 1.377 . S
C206 H186 0.953 . S
C206 C205 1.377 . S
C206 C207 1.369 . S
C207 H187 0.945 . S
C207 C202 1.385 . S
C207 C206 1.369 . S
C208 C200 1.457 . S
C208 C209 1.372 . S
C208 C213 1.364 . S
C209 H188 0.952 . S
C209 C208 1.372 . S
C209 C210 1.389 . S
C210 H189 0.949 . S
C210 C209 1.389 . S
C210 C211 1.387 . S
C211 C210 1.387 . S
C211 C212 1.372 . S
C212 H190 0.950 . S
C212 C211 1.372 . S
C212 C213 1.379 . S
C213 H191 0.948 . S
C213 C208 1.364 . S
C213 C212 1.379 . S
C214 C183 1.383 . S
C214 C201 1.479 . S
C214 C215 1.398 . S
C215 C180 1.382 . S
C215 H192 0.951 . S
C215 C214 1.398 . S
C216 C217 1.384 . S
C216 H229 0.947 . S
C216 C251 1.382 . S
C217 C216 1.384 . S
C217 C218 1.378 . S
C218 C217 1.378 . S
C218 C219 1.378 . S
C218 H230 0.952 . S
C219 C218 1.378 . S
C219 H231 0.950 . S
C219 C250 1.383 . S
H220 C239 0.947 . S
H221 C240 0.946 . S
H222 C242 0.953 . S
H223 C243 0.945 . S
H224 C245 0.952 . S
H225 C246 0.949 . S
H226 C248 0.950 . S
H227 C249 0.948 . S
H228 C251 0.951 . S
H229 C216 0.947 . S
H230 C218 0.952 . S
H231 C219 0.950 . S
N232 C235 1.382 . S
N232 C237 1.363 . S
N233 C235 1.371 . S
N233 C236 1.372 . S
N234 C236 1.361 . S
N234 C237 1.377 . S
C235 N232 1.382 . S
C235 N233 1.371 . S
C235 C238 1.480 . S
C236 N233 1.372 . S
C236 N234 1.361 . S
C236 C244 1.457 . S
C237 N232 1.363 . S
C237 N234 1.377 . S
C237 C250 1.479 . S
C238 C235 1.480 . S
C238 C239 1.383 . S
C238 C243 1.385 . S
C239 H220 0.947 . S
C239 C238 1.383 . S
C239 C240 1.388 . S
C240 H221 0.946 . S
C240 C239 1.388 . S
C240 C241 1.384 . S
C241 C240 1.384 . S
C241 C242 1.377 . S
C242 H222 0.953 . S
C242 C241 1.377 . S
C242 C243 1.369 . S
C243 H223 0.945 . S
C243 C238 1.385 . S
C243 C242 1.369 . S
C244 C236 1.457 . S
C244 C245 1.372 . S
C244 C249 1.364 . S
C245 H224 0.952 . S
C245 C244 1.372 . S
C245 C246 1.389 . S
C246 H225 0.949 . S
C246 C245 1.389 . S
C246 C247 1.387 . S
C247 C246 1.387 . S
C247 C248 1.372 . S
C248 H226 0.950 . S
C248 C247 1.372 . S
C248 C249 1.379 . S
C249 H227 0.948 . S
C249 C244 1.364 . S
C249 C248 1.379 . S
C250 C219 1.383 . S
C250 C237 1.479 . S
C250 C251 1.398 . S
C251 C216 1.382 . S
C251 H228 0.951 . S
C251 C250 1.398 . S
C252 C253 1.384 . S
C252 H265 0.947 . S
C252 C287 1.382 1_655 S
C253 C252 1.384 . S
C253 C254 1.378 1_655 S
C254 C253 1.378 1_455 S
C254 C255 1.378 . S
C254 H266 0.952 . S
C255 C254 1.378 . S
C255 H267 0.950 . S
C255 C286 1.383 . S
H256 C275 0.947 . S
H257 C276 0.946 . S
H258 C278 0.953 . S
H259 C279 0.945 . S
H260 C281 0.952 . S
H261 C282 0.949 . S
H262 C284 0.950 . S
H263 C285 0.948 . S
H264 C287 0.951 . S
H265 C252 0.947 . S
H266 C254 0.952 . S
H267 C255 0.950 . S
N268 C271 1.382 . S
N268 C273 1.363 . S
N269 C271 1.371 . S
N269 C272 1.372 . S
N270 C272 1.361 . S
N270 C273 1.377 . S
C271 N268 1.382 . S
C271 N269 1.371 . S
C271 C274 1.480 . S
C272 N269 1.372 . S
C272 N270 1.361 . S
C272 C280 1.457 . S
C273 N268 1.363 . S
C273 N270 1.377 . S
C273 C286 1.479 . S
C274 C271 1.480 . S
C274 C275 1.383 . S
C274 C279 1.385 . S
C275 H256 0.947 . S
C275 C274 1.383 . S
C275 C276 1.388 . S
C276 H257 0.946 . S
C276 C275 1.388 . S
C276 C277 1.384 . S
C277 C276 1.384 . S
C277 C278 1.377 . S
C278 H258 0.953 . S
C278 C277 1.377 . S
C278 C279 1.369 . S
C279 H259 0.945 . S
C279 C274 1.385 . S
C279 C278 1.369 . S
C280 C272 1.457 . S
C280 C281 1.372 . S
C280 C285 1.364 . S
C281 H260 0.952 . S
C281 C280 1.372 . S
C281 C282 1.389 . S
C282 H261 0.949 . S
C282 C281 1.389 . S
C282 C283 1.387 . S
C283 C282 1.387 . S
C283 C284 1.372 . S
C284 H262 0.950 . S
C284 C283 1.372 . S
C284 C285 1.379 . S
C285 H263 0.948 . S
C285 C280 1.364 . S
C285 C284 1.379 . S
C286 C255 1.383 . S
C286 C273 1.479 . S
C286 C287 1.398 . S
C287 C252 1.382 1_455 S
C287 H264 0.951 . S
C287 C286 1.398 . S
Zn288 O294 1.920 . S
Zn288 O300 1.898 . S
Zn288 O303 1.905 . S
Zn289 O297 1.905 . S
Zn289 O298 1.898 . S
Zn289 O306 1.920 . S
Zn290 O293 2.080 . S
Zn290 O296 2.114 . S
Zn290 O299 2.120 . S
Zn290 O301 2.120 . S
Zn290 O302 2.114 . S
Zn290 O305 2.080 . S
C291 O296 1.166 . S
C291 O297 1.182 . S
C292 O298 1.167 . S
C292 O299 1.299 . S
O293 Zn290 2.080 . S
O293 C307 1.305 . S
O294 Zn288 1.920 . S
O294 C307 1.234 . S
C295 O300 1.167 . S
C295 O301 1.299 . S
O296 Zn290 2.114 . S
O296 C291 1.166 . S
O297 Zn289 1.905 . S
O297 C291 1.182 . S
O298 Zn289 1.898 . S
O298 C292 1.167 . S
O299 Zn290 2.120 . S
O299 C292 1.299 . S
O300 Zn288 1.898 . S
O300 C295 1.167 . S
O301 Zn290 2.120 . S
O301 C295 1.299 . S
O302 Zn290 2.114 . S
O302 C304 1.166 . S
O303 Zn288 1.905 . S
O303 C304 1.182 . S
C304 O302 1.166 . S
C304 O303 1.182 . S
O305 Zn290 2.080 . S
O305 C308 1.305 . S
O306 Zn289 1.920 . S
O306 C308 1.234 . S
C307 O293 1.305 . S
C307 O294 1.234 . S
C308 O305 1.305 . S
C308 O306 1.234 . S
Zn309 O315 1.920 . S
Zn309 O321 1.898 . S
Zn309 O324 1.905 . S
Zn310 O318 1.905 . S
Zn310 O319 1.898 . S
Zn310 O327 1.920 . S
Zn311 O314 2.080 . S
Zn311 O317 2.114 . S
Zn311 O320 2.120 . S
Zn311 O322 2.120 . S
Zn311 O323 2.114 . S
Zn311 O326 2.080 . S
C312 O317 1.166 . S
C312 O318 1.182 . S
C313 O319 1.167 . S
C313 O320 1.299 . S
O314 Zn311 2.080 . S
O314 C328 1.305 . S
O315 Zn309 1.920 . S
O315 C328 1.234 . S
C316 O321 1.167 . S
C316 O322 1.299 . S
O317 Zn311 2.114 . S
O317 C312 1.166 . S
O318 Zn310 1.905 . S
O318 C312 1.182 . S
O319 Zn310 1.898 . S
O319 C313 1.167 . S
O320 Zn311 2.120 . S
O320 C313 1.299 . S
O321 Zn309 1.898 . S
O321 C316 1.167 . S
O322 Zn311 2.120 . S
O322 C316 1.299 . S
O323 Zn311 2.114 . S
O323 C325 1.166 . S
O324 Zn309 1.905 . S
O324 C325 1.182 . S
C325 O323 1.166 . S
C325 O324 1.182 . S
O326 Zn311 2.080 . S
O326 C329 1.305 . S
O327 Zn310 1.920 . S
O327 C329 1.234 . S
C328 O314 1.305 . S
C328 O315 1.234 . S
C329 O326 1.305 . S
C329 O327 1.234 . S
Zn330 O336 1.920 . S
Zn330 O342 1.898 . S
Zn330 O345 1.905 . S
Zn331 O339 1.905 . S
Zn331 O340 1.898 . S
Zn331 O348 1.920 . S
Zn332 O335 2.080 . S
Zn332 O338 2.114 . S
Zn332 O341 2.120 . S
Zn332 O343 2.120 . S
Zn332 O344 2.114 . S
Zn332 O347 2.080 . S
C333 O338 1.166 . S
C333 O339 1.182 . S
C334 O340 1.167 . S
C334 O341 1.299 . S
O335 Zn332 2.080 . S
O335 C349 1.305 . S
O336 Zn330 1.920 . S
O336 C349 1.234 . S
C337 O342 1.167 . S
C337 O343 1.299 . S
O338 Zn332 2.114 . S
O338 C333 1.166 . S
O339 Zn331 1.905 . S
O339 C333 1.182 . S
O340 Zn331 1.898 . S
O340 C334 1.167 . S
O341 Zn332 2.120 . S
O341 C334 1.299 . S
O342 Zn330 1.898 . S
O342 C337 1.167 . S
O343 Zn332 2.120 . S
O343 C337 1.299 . S
O344 Zn332 2.114 . S
O344 C346 1.166 . S
O345 Zn330 1.905 . S
O345 C346 1.182 . S
C346 O344 1.166 . S
C346 O345 1.182 . S
O347 Zn332 2.080 . S
O347 C350 1.305 . S
O348 Zn331 1.920 . S
O348 C350 1.234 . S
C349 O335 1.305 . S
C349 O336 1.234 . S
C350 O347 1.305 . S
C350 O348 1.234 . S
Zn351 O357 1.920 . S
Zn351 O363 1.898 . S
Zn351 O366 1.905 1_455 S
Zn352 O360 1.905 . S
Zn352 O361 1.898 . S
Zn352 O369 1.920 . S
Zn353 O356 2.080 . S
Zn353 O359 2.114 . S
Zn353 O362 2.120 . S
Zn353 O364 2.120 . S
Zn353 O365 2.114 . S
Zn353 O368 2.080 . S
C354 O359 1.166 . S
C354 O360 1.182 . S
C355 O361 1.167 . S
C355 O362 1.299 . S
O356 Zn353 2.080 . S
O356 C370 1.305 . S
O357 Zn351 1.920 . S
O357 C370 1.234 . S
C358 O363 1.167 . S
C358 O364 1.299 . S
O359 Zn353 2.114 . S
O359 C354 1.166 . S
O360 Zn352 1.905 . S
O360 C354 1.182 . S
O361 Zn352 1.898 . S
O361 C355 1.167 . S
O362 Zn353 2.120 . S
O362 C355 1.299 . S
O363 Zn351 1.898 . S
O363 C358 1.167 . S
O364 Zn353 2.120 . S
O364 C358 1.299 . S
O365 Zn353 2.114 . S
O365 C367 1.166 . S
O366 Zn351 1.905 1_655 S
O366 C367 1.182 1_655 S
C367 O365 1.166 . S
C367 O366 1.182 1_455 S
O368 Zn353 2.080 . S
O368 C371 1.305 . S
O369 Zn352 1.920 . S
O369 C371 1.234 . S
C370 O356 1.305 . S
C370 O357 1.234 . S
C371 O368 1.305 . S
C371 O369 1.234 . S
C372 C373 1.387 . S
C372 H376 0.950 . S
C372 C381 1.390 . S
C373 C372 1.387 . S
C373 C375 1.387 . S
H374 C381 0.950 . S
C375 C373 1.387 . S
C375 C377 1.390 . S
C375 H379 0.950 . S
H376 C372 0.950 . S
C377 C375 1.390 . S
C377 C378 1.387 . S
C377 H380 0.950 . S
C378 C377 1.387 . S
C378 C381 1.387 . S
H379 C375 0.950 . S
H380 C377 0.950 . S
C381 C372 1.390 . S
C381 H374 0.950 . S
C381 C378 1.387 . S
C382 C383 1.387 . S
C382 H386 0.950 . S
C382 C391 1.390 . S
C383 C382 1.387 . S
C383 C385 1.387 . S
H384 C391 0.950 . S
C385 C383 1.387 . S
C385 C387 1.390 . S
C385 H389 0.950 . S
H386 C382 0.950 . S
C387 C385 1.390 . S
C387 C388 1.387 . S
C387 H390 0.950 . S
C388 C387 1.387 . S
C388 C391 1.387 . S
H389 C385 0.950 . S
H390 C387 0.950 . S
C391 C382 1.390 . S
C391 H384 0.950 . S
C391 C388 1.387 . S
C392 C393 1.387 . S
C392 H396 0.950 . S
C392 C401 1.390 . S
C393 C392 1.387 . S
C393 C395 1.387 . S
H394 C401 0.950 . S
C395 C393 1.387 . S
C395 C397 1.390 . S
C395 H399 0.950 . S
H396 C392 0.950 . S
C397 C395 1.390 . S
C397 C398 1.387 . S
C397 H400 0.950 . S
C398 C397 1.387 . S
C398 C401 1.387 . S
H399 C395 0.950 . S
H400 C397 0.950 . S
C401 C392 1.390 . S
C401 H394 0.950 . S
C401 C398 1.387 . S
C402 C403 1.387 . S
C402 H406 0.950 . S
C402 C411 1.390 . S
C403 C402 1.387 . S
C403 C405 1.387 . S
H404 C411 0.950 . S
C405 C403 1.387 . S
C405 C407 1.390 . S
C405 H409 0.950 . S
H406 C402 0.950 . S
C407 C405 1.390 . S
C407 C408 1.387 . S
C407 H410 0.950 . S
C408 C407 1.387 . S
C408 C411 1.387 . S
H409 C405 0.950 . S
H410 C407 0.950 . S
C411 C402 1.390 . S
C411 H404 0.950 . S
C411 C408 1.387 . S
C412 C413 1.387 . S
C412 H416 0.950 . S
C412 C421 1.390 . S
C413 C412 1.387 . S
C413 C415 1.387 . S
H414 C421 0.950 . S
C415 C413 1.387 . S
C415 C417 1.390 . S
C415 H419 0.950 . S
H416 C412 0.950 . S
C417 C415 1.390 . S
C417 C418 1.387 . S
C417 H420 0.950 . S
C418 C417 1.387 . S
C418 C421 1.387 . S
H419 C415 0.950 . S
H420 C417 0.950 . S
C421 C412 1.390 . S
C421 H414 0.950 . S
C421 C418 1.387 . S
C422 C423 1.387 . S
C422 H426 0.950 . S
C422 C431 1.390 . S
C423 C422 1.387 . S
C423 C425 1.387 . S
H424 C431 0.950 . S
C425 C423 1.387 . S
C425 C427 1.390 . S
C425 H429 0.950 . S
H426 C422 0.950 . S
C427 C425 1.390 . S
C427 C428 1.387 . S
C427 H430 0.950 . S
C428 C427 1.387 . S
C428 C431 1.387 . S
H429 C425 0.950 . S
H430 C427 0.950 . S
C431 C422 1.390 . S
C431 H424 0.950 . S
C431 C428 1.387 . S
C432 C433 1.387 . S
C432 H436 0.950 . S
C432 C441 1.390 . S
C433 C432 1.387 . S
C433 C435 1.387 . S
H434 C441 0.950 . S
C435 C433 1.387 . S
C435 C437 1.390 . S
C435 H439 0.950 . S
H436 C432 0.950 . S
C437 C435 1.390 . S
C437 C438 1.387 . S
C437 H440 0.950 . S
C438 C437 1.387 . S
C438 C441 1.387 . S
H439 C435 0.950 . S
H440 C437 0.950 . S
C441 C432 1.390 . S
C441 H434 0.950 . S
C441 C438 1.387 . S
C442 C443 1.387 . S
C442 H446 0.950 . S
C442 C451 1.390 . S
C443 C442 1.387 . S
C443 C445 1.387 . S
H444 C451 0.950 . S
C445 C443 1.387 . S
C445 C447 1.390 . S
C445 H449 0.950 . S
H446 C442 0.950 . S
C447 C445 1.390 . S
C447 C448 1.387 . S
C447 H450 0.950 . S
C448 C447 1.387 . S
C448 C451 1.387 . S
H449 C445 0.950 . S
H450 C447 0.950 . S
C451 C442 1.390 . S
C451 H444 0.950 . S
C451 C448 1.387 . S
C452 C453 1.387 . S
C452 H456 0.950 . S
C452 C461 1.390 . S
C453 C452 1.387 . S
C453 C455 1.387 . S
H454 C461 0.950 . S
C455 C453 1.387 . S
C455 C457 1.390 . S
C455 H459 0.950 . S
H456 C452 0.950 . S
C457 C455 1.390 . S
C457 C458 1.387 . S
C457 H460 0.950 . S
C458 C457 1.387 . S
C458 C461 1.387 . S
H459 C455 0.950 . S
H460 C457 0.950 . S
C461 C452 1.390 . S
C461 H454 0.950 . S
C461 C458 1.387 . S
C462 C463 1.387 . S
C462 H466 0.950 . S
C462 C471 1.390 . S
C463 C462 1.387 . S
C463 C465 1.387 . S
H464 C471 0.950 . S
C465 C463 1.387 . S
C465 C467 1.390 . S
C465 H469 0.950 . S
H466 C462 0.950 . S
C467 C465 1.390 . S
C467 C468 1.387 . S
C467 H470 0.950 . S
C468 C467 1.387 . S
C468 C471 1.387 . S
H469 C465 0.950 . S
H470 C467 0.950 . S
C471 C462 1.390 . S
C471 H464 0.950 . S
C471 C468 1.387 . S
C472 C473 1.387 . S
C472 H476 0.950 . S
C472 C481 1.390 . S
C473 C472 1.387 . S
C473 C475 1.387 . S
H474 C481 0.950 . S
C475 C473 1.387 . S
C475 C477 1.390 . S
C475 H479 0.950 . S
H476 C472 0.950 . S
C477 C475 1.390 . S
C477 C478 1.387 . S
C477 H480 0.950 . S
C478 C477 1.387 . S
C478 C481 1.387 . S
H479 C475 0.950 . S
H480 C477 0.950 . S
C481 C472 1.390 . S
C481 H474 0.950 . S
C481 C478 1.387 . S
C482 C483 1.387 . S
C482 H486 0.950 . S
C482 C491 1.390 . S
C483 C482 1.387 . S
C483 C485 1.387 . S
H484 C491 0.950 . S
C485 C483 1.387 . S
C485 C487 1.390 . S
C485 H489 0.950 . S
H486 C482 0.950 . S
C487 C485 1.390 . S
C487 C488 1.387 . S
C487 H490 0.950 . S
C488 C487 1.387 . S
C488 C491 1.387 . S
H489 C485 0.950 . S
H490 C487 0.950 . S
C491 C482 1.390 . S
C491 H484 0.950 . S
C491 C488 1.387 . S
C492 C493 1.387 . S
C492 H496 0.950 . S
C492 C501 1.390 1_565 S
C493 C492 1.387 . S
C493 C495 1.387 1_565 S
H494 C501 0.950 . S
C495 C493 1.387 1_545 S
C495 C497 1.390 . S
C495 H499 0.950 1_545 S
H496 C492 0.950 . S
C497 C495 1.390 . S
C497 C498 1.387 . S
C497 H500 0.950 . S
C498 C497 1.387 . S
C498 C501 1.387 . S
H499 C495 0.950 1_565 S
H500 C497 0.950 . S
C501 C492 1.390 1_545 S
C501 H494 0.950 . S
C501 C498 1.387 . S
C502 C503 1.387 1_565 S
C502 H506 0.950 1_565 S
C502 C511 1.390 . S
C503 C502 1.387 1_545 S
C503 C505 1.387 1_545 S
H504 C511 0.950 . S
C505 C503 1.387 1_565 S
C505 C507 1.390 . S
C505 H509 0.950 . S
H506 C502 0.950 1_545 S
C507 C505 1.390 . S
C507 C508 1.387 . S
C507 H510 0.950 . S
C508 C507 1.387 . S
C508 C511 1.387 . S
H509 C505 0.950 . S
H510 C507 0.950 . S
C511 C502 1.390 . S
C511 H504 0.950 . S
C511 C508 1.387 . S
C512 C513 1.401 . S
C512 H516 0.950 . S
C512 C521 1.390 . S
C513 C512 1.401 . S
C513 C515 1.391 . S
H514 C521 0.950 . S
C515 C513 1.391 . S
C515 C517 1.390 . S
C515 H519 0.950 1_565 S
H516 C512 0.950 . S
C517 C515 1.390 . S
C517 C518 1.387 . S
C517 H520 0.950 . S
C518 C517 1.387 . S
C518 C521 1.387 . S
H519 C515 0.950 1_545 S
H520 C517 0.950 . S
C521 C512 1.390 . S
C521 H514 0.950 . S
C521 C518 1.387 . S
C522 C523 1.387 1_545 S
C522 H526 0.950 1_545 S
C522 C531 1.390 . S
C523 C522 1.387 1_565 S
C523 C525 1.390 . S
H524 C531 0.950 . S
C525 C523 1.390 . S
C525 C527 1.385 1_565 S
C525 H529 0.953 . S
H526 C522 0.950 1_565 S
C527 C525 1.385 1_545 S
C527 C528 1.387 . S
C527 H530 0.950 . S
C528 C527 1.387 . S
C528 C531 1.387 . S
H529 C525 0.953 . S
H530 C527 0.950 . S
C531 C522 1.390 . S
C531 H524 0.950 . S
C531 C528 1.387 . S
C532 C533 1.387 . S
C532 H536 0.950 . S
C532 C541 1.390 . S
C533 C532 1.387 . S
C533 C535 1.387 . S
H534 C541 0.950 . S
C535 C533 1.387 . S
C535 C537 1.390 . S
C535 H539 0.950 . S
H536 C532 0.950 . S
C537 C535 1.390 . S
C537 C538 1.387 . S
C537 H540 0.950 . S
C538 C537 1.387 . S
C538 C541 1.387 . S
H539 C535 0.950 . S
H540 C537 0.950 . S
C541 C532 1.390 . S
C541 H534 0.950 . S
C541 C538 1.387 . S
C542 C543 1.387 . S
C542 H546 0.950 . S
C542 C551 1.390 . S
C543 C542 1.387 . S
C543 C545 1.387 . S
H544 C551 0.950 . S
C545 C543 1.387 . S
C545 C547 1.390 . S
C545 H549 0.950 . S
H546 C542 0.950 . S
C547 C545 1.390 . S
C547 C548 1.387 . S
C547 H550 0.950 . S
C548 C547 1.387 . S
C548 C551 1.387 . S
H549 C545 0.950 . S
H550 C547 0.950 . S
C551 C542 1.390 . S
C551 H544 0.950 . S
C551 C548 1.387 . S
C552 C553 1.387 . S
C552 H556 0.950 . S
C552 C561 1.390 . S
C553 C552 1.387 . S
C553 C555 1.387 . S
H554 C561 0.950 . S
C555 C553 1.387 . S
C555 C557 1.390 . S
C555 H559 0.950 . S
H556 C552 0.950 . S
C557 C555 1.390 . S
C557 C558 1.387 . S
C557 H560 0.950 . S
C558 C557 1.387 . S
C558 C561 1.387 . S
H559 C555 0.950 . S
H560 C557 0.950 . S
C561 C552 1.390 . S
C561 H554 0.950 . S
C561 C558 1.387 . S
C562 C563 1.387 . S
C562 H566 0.950 . S
C562 C571 1.390 . S
C563 C562 1.387 . S
C563 C565 1.387 . S
H564 C571 0.950 . S
C565 C563 1.387 . S
C565 C567 1.390 . S
C565 H569 0.950 . S
H566 C562 0.950 . S
C567 C565 1.390 . S
C567 C568 1.387 . S
C567 H570 0.950 . S
C568 C567 1.387 . S
C568 C571 1.387 . S
H569 C565 0.950 . S
H570 C567 0.950 . S
C571 C562 1.390 . S
C571 H564 0.950 . S
C571 C568 1.387 . S
C572 C573 1.387 . S
C572 H576 0.950 . S
C572 C581 1.390 . S
C573 C572 1.387 . S
C573 C575 1.387 . S
H574 C581 0.950 . S
C575 C573 1.387 . S
C575 C577 1.390 . S
C575 H579 0.950 . S
H576 C572 0.950 . S
C577 C575 1.390 . S
C577 C578 1.387 . S
C577 H580 0.950 . S
C578 C577 1.387 . S
C578 C581 1.387 . S
H579 C575 0.950 . S
H580 C577 0.950 . S
C581 C572 1.390 . S
C581 H574 0.950 . S
C581 C578 1.387 . S
C582 C583 1.387 . S
C582 H586 0.950 . S
C582 C591 1.390 . S
C583 C582 1.387 . S
C583 C585 1.387 . S
H584 C591 0.950 . S
C585 C583 1.387 . S
C585 C587 1.390 . S
C585 H589 0.950 . S
H586 C582 0.950 . S
C587 C585 1.390 . S
C587 C588 1.387 . S
C587 H590 0.950 . S
C588 C587 1.387 . S
C588 C591 1.387 . S
H589 C585 0.950 . S
H590 C587 0.950 . S
C591 C582 1.390 . S
C591 H584 0.950 . S
C591 C588 1.387 . S
C592 C593 1.387 . S
C592 H596 0.950 . S
C592 C601 1.390 . S
C593 C592 1.387 . S
C593 C595 1.387 . S
H594 C601 0.950 . S
C595 C593 1.387 . S
C595 C597 1.390 . S
C595 H599 0.950 . S
H596 C592 0.950 . S
C597 C595 1.390 . S
C597 C598 1.387 . S
C597 H600 0.950 . S
C598 C597 1.387 . S
C598 C601 1.387 . S
H599 C595 0.950 . S
H600 C597 0.950 . S
C601 C592 1.390 . S
C601 H594 0.950 . S
C601 C598 1.387 . S
C602 C603 1.387 . S
C602 H606 0.950 . S
C602 C611 1.390 . S
C603 C602 1.387 . S
C603 C605 1.387 . S
H604 C611 0.950 . S
C605 C603 1.387 . S
C605 C607 1.390 . S
C605 H609 0.950 . S
H606 C602 0.950 . S
C607 C605 1.390 . S
C607 C608 1.387 . S
C607 H610 0.950 . S
C608 C607 1.387 . S
C608 C611 1.387 . S
H609 C605 0.950 . S
H610 C607 0.950 . S
C611 C602 1.390 . S
C611 H604 0.950 . S
C611 C608 1.387 . S
C378 C295 1.494 . S
C373 C1 1.694 . S
C388 C313 1.336 . S
C383 C61 1.428 . S
C393 C97 1.477 . S
C398 C337 1.446 . S
C408 C367 1.404 1_655 S
C403 C109 1.517 . S
C418 C355 1.450 . S
C413 C145 1.471 . S
C423 C205 1.440 . S
C428 C308 1.358 1_655 S
C433 C241 1.623 . S
C438 C328 1.500 . S
C443 C253 1.516 . S
C448 C333 1.407 . S
C453 C277 1.433 . S
C458 C349 1.349 . S
C463 C181 1.516 . S
C468 C304 1.398 . S
C478 C371 1.348 . S
C473 C133 1.433 . S
C488 C316 1.398 . S
C483 C37 1.509 . S
C493 C73 1.692 . S
C498 C334 1.493 . S
C503 C25 1.485 . S
C508 C292 1.452 . S
C518 C312 1.449 . S
C513 C217 1.447 1_565 S
C528 C358 1.499 . S
C523 C169 1.631 . S
C538 C354 1.331 . S
C533 C31 1.547 . S
C548 C307 1.416 . S
C543 C67 1.470 . S
C553 C103 1.531 . S
C558 C329 1.309 . S
C563 C139 1.484 . S
C568 C350 1.423 . S
C578 C291 1.331 . S
C573 C175 1.510 . S
C583 C211 1.505 . S
C588 C325 1.441 . S
C598 C346 1.341 . S
C593 C247 1.523 . S
C608 C370 1.423 . S
C603 C283 1.486 . S
