# Generated by pormake.
# Topology pyr, (3,6)-cn, num edge types: 1
# Building blocks:
#     Node 0, Type 0, BuildingBlock: BELTOD_clean_linker_0, # of connection points: 3
#     Node 1, Type 0, BuildingBlock: BELTOD_clean_linker_0, # of connection points: 3
#     Node 2, Type 0, BuildingBlock: BELTOD_clean_linker_0, # of connection points: 3
#     Node 3, Type 0, BuildingBlock: BELTOD_clean_linker_0, # of connection points: 3
#     Node 4, Type 0, BuildingBlock: BELTOD_clean_linker_0, # of connection points: 3
#     Node 5, Type 0, BuildingBlock: BELTOD_clean_linker_0, # of connection points: 3
#     Node 6, Type 0, BuildingBlock: BELTOD_clean_linker_0, # of connection points: 3
#     Node 7, Type 0, BuildingBlock: BELTOD_clean_linker_0, # of connection points: 3
#     Node 8, Type 1, BuildingBlock: BETFEN_clean_sbu_0, # of connection points: 6
#     Node 9, Type 1, BuildingBlock: BETFEN_clean_sbu_0, # of connection points: 6
#     Node 10, Type 1, BuildingBlock: BETFEN_clean_sbu_0, # of connection points: 6
#     Node 11, Type 1, BuildingBlock: BETFEN_clean_sbu_0, # of connection points: 6
#     Edge 12, Type (0, 1), BuildingBlock: TEMPAE_clean_linker_10, # of connection points: 2
#     Edge 13, Type (0, 1), BuildingBlock: TEMPAE_clean_linker_10, # of connection points: 2
#     Edge 14, Type (0, 1), BuildingBlock: TEMPAE_clean_linker_10, # of connection points: 2
#     Edge 15, Type (0, 1), BuildingBlock: TEMPAE_clean_linker_10, # of connection points: 2
#     Edge 16, Type (0, 1), BuildingBlock: TEMPAE_clean_linker_10, # of connection points: 2
#     Edge 17, Type (0, 1), BuildingBlock: TEMPAE_clean_linker_10, # of connection points: 2
#     Edge 18, Type (0, 1), BuildingBlock: TEMPAE_clean_linker_10, # of connection points: 2
#     Edge 19, Type (0, 1), BuildingBlock: TEMPAE_clean_linker_10, # of connection points: 2
#     Edge 20, Type (0, 1), BuildingBlock: TEMPAE_clean_linker_10, # of connection points: 2
#     Edge 21, Type (0, 1), BuildingBlock: TEMPAE_clean_linker_10, # of connection points: 2
#     Edge 22, Type (0, 1), BuildingBlock: TEMPAE_clean_linker_10, # of connection points: 2
#     Edge 23, Type (0, 1), BuildingBlock: TEMPAE_clean_linker_10, # of connection points: 2
#     Edge 24, Type (0, 1), BuildingBlock: TEMPAE_clean_linker_10, # of connection points: 2
#     Edge 25, Type (0, 1), BuildingBlock: TEMPAE_clean_linker_10, # of connection points: 2
#     Edge 26, Type (0, 1), BuildingBlock: TEMPAE_clean_linker_10, # of connection points: 2
#     Edge 27, Type (0, 1), BuildingBlock: TEMPAE_clean_linker_10, # of connection points: 2
#     Edge 28, Type (0, 1), BuildingBlock: TEMPAE_clean_linker_10, # of connection points: 2
#     Edge 29, Type (0, 1), BuildingBlock: TEMPAE_clean_linker_10, # of connection points: 2
#     Edge 30, Type (0, 1), BuildingBlock: TEMPAE_clean_linker_10, # of connection points: 2
#     Edge 31, Type (0, 1), BuildingBlock: TEMPAE_clean_linker_10, # of connection points: 2
#     Edge 32, Type (0, 1), BuildingBlock: TEMPAE_clean_linker_10, # of connection points: 2
#     Edge 33, Type (0, 1), BuildingBlock: TEMPAE_clean_linker_10, # of connection points: 2
#     Edge 34, Type (0, 1), BuildingBlock: TEMPAE_clean_linker_10, # of connection points: 2
#     Edge 35, Type (0, 1), BuildingBlock: TEMPAE_clean_linker_10, # of connection points: 2
# Relax obj value: 0.141
# Max RMSD: 0.242
# Mean RMSD: 0.116
data_MOF--net-pyr--node1-BETFEN_clean_sbu_0--node2-BELTOD_clean_linker_0--edge1-TEMPAE_clean_linker_10
_symmetry_space_group_name_H-M    P1
_symmetry_Int_Tables_number       1
_symmetry_cell_setting            triclinic
loop_
_symmetry_equiv_pos_as_xyz
'x, y, z'
_cell_length_a     42.315285
_cell_length_b     46.897622
_cell_length_c     43.522222
_cell_angle_alpha  91.489561
_cell_angle_beta   99.437877
_cell_angle_gamma 108.8358
loop_
_atom_site_label
_atom_site_type_symbol
_atom_site_fract_x
_atom_site_fract_y
_atom_site_fract_z
_atom_type_partial_charge
P0 P 0.41453 0.36215 0.31618 0.0
H1 H 0.46974 0.35772 0.28571 0.0
H2 H 0.47956 0.31491 0.26007 0.0
H3 H 0.38625 0.25464 0.28206 0.0
H4 H 0.37675 0.29717 0.30759 0.0
H5 H 0.4141 0.4238 0.30792 0.0
H6 H 0.37916 0.44428 0.27024 0.0
H7 H 0.3303 0.35524 0.22184 0.0
H8 H 0.36565 0.33528 0.25892 0.0
H9 H 0.42601 0.33467 0.3743 0.0
H10 H 0.34471 0.35917 0.3209 0.0
O11 O 0.45102 0.38805 0.33341 0.0
H12 H 0.38744 0.30774 0.40829 0.0
H13 H 0.30627 0.33217 0.3543 0.0
C14 C 0.423 0.33054 0.29922 0.0
C15 C 0.45169 0.3352 0.28534 0.0
C16 C 0.45714 0.31079 0.27054 0.0
C17 C 0.43382 0.28136 0.26931 0.0
C18 C 0.40506 0.2769 0.28322 0.0
C19 C 0.39961 0.30127 0.29784 0.0
C20 C 0.39298 0.37818 0.28585 0.0
C21 C 0.39645 0.40891 0.28871 0.0
C22 C 0.37625 0.42052 0.26732 0.0
C23 C 0.35198 0.40143 0.24294 0.0
C24 C 0.3492 0.37074 0.23987 0.0
C25 C 0.36942 0.35924 0.26117 0.0
C26 C 0.3883 0.34882 0.34501 0.0
C27 C 0.40013 0.33487 0.37035 0.0
C28 C 0.37804 0.31935 0.3896 0.0
C29 C 0.34375 0.31765 0.38381 0.0
C30 C 0.33259 0.3333 0.35957 0.0
C31 C 0.35464 0.34866 0.34027 0.0
P32 P 0.31608 0.86832 0.66581 0.0
H33 H 0.3555 0.84397 0.7135 0.0
H34 H 0.36887 0.85257 0.77047 0.0
H35 H 0.30227 0.90592 0.76732 0.0
H36 H 0.28971 0.89791 0.7105 0.0
H37 H 0.34873 0.85945 0.61439 0.0
H38 H 0.36026 0.81599 0.59328 0.0
H39 H 0.30496 0.76025 0.65748 0.0
H40 H 0.29374 0.80432 0.6788 0.0
H41 H 0.29655 0.90069 0.61391 0.0
H42 H 0.24704 0.84157 0.67862 0.0
O43 O 0.34673 0.8986 0.65818 0.0
H44 H 0.24389 0.91037 0.59433 0.0
H45 H 0.19396 0.85134 0.65915 0.0
C46 C 0.32071 0.86944 0.70773 0.0
C47 C 0.34293 0.85671 0.7251 0.0
C48 C 0.35054 0.86162 0.75771 0.0
C49 C 0.33649 0.87981 0.77339 0.0
C50 C 0.31353 0.89184 0.7559 0.0
C51 C 0.30604 0.88699 0.72338 0.0
C52 C 0.32127 0.83522 0.64873 0.0
C53 C 0.33893 0.83787 0.62386 0.0
C54 C 0.3452 0.81289 0.61157 0.0
C55 C 0.33366 0.78469 0.62382 0.0
C56 C 0.31455 0.78179 0.64786 0.0
C57 C 0.30812 0.80688 0.66003 0.0
C58 C 0.27583 0.87114 0.64829 0.0
C59 C 0.27419 0.88951 0.62366 0.0
C60 C 0.24399 0.89485 0.61233 0.0
C61 C 0.21492 0.88182 0.62545 0.0
C62 C 0.21613 0.86196 0.64893 0.0
C63 C 0.24634 0.85636 0.66 0.0
P64 P 0.63981 0.31048 0.80571 0.0
H65 H 0.7078 0.30539 0.81993 0.0
H66 H 0.75961 0.3349 0.85528 0.0
H67 H 0.70689 0.39148 0.88805 0.0
H68 H 0.65552 0.3627 0.85101 0.0
H69 H 0.58393 0.25388 0.78524 0.0
H70 H 0.55375 0.21271 0.81407 0.0
H71 H 0.60303 0.26735 0.90094 0.0
H72 H 0.63199 0.30837 0.87214 0.0
H73 H 0.67624 0.36595 0.78135 0.0
H74 H 0.57141 0.31181 0.77702 0.0
O75 O 0.65074 0.28946 0.78059 0.0
H76 H 0.65922 0.3987 0.74463 0.0
H77 H 0.55399 0.34471 0.73937 0.0
C78 C 0.67784 0.3319 0.83279 0.0
C79 C 0.70738 0.32422 0.8346 0.0
C80 C 0.73701 0.34102 0.85515 0.0
C81 C 0.73757 0.36558 0.87483 0.0
C82 C 0.70768 0.37306 0.87302 0.0
C83 C 0.67818 0.35648 0.85204 0.0
C84 C 0.61057 0.28427 0.82636 0.0
C85 C 0.5875 0.25728 0.81045 0.0
C86 C 0.57058 0.23357 0.82704 0.0
C87 C 0.57636 0.23634 0.85998 0.0
C88 C 0.59771 0.26426 0.87566 0.0
C89 C 0.61451 0.28793 0.85904 0.0
C90 C 0.62509 0.33678 0.78263 0.0
C91 C 0.64939 0.36142 0.77299 0.0
C92 C 0.63965 0.37999 0.75157 0.0
C93 C 0.60526 0.37422 0.73879 0.0
C94 C 0.58069 0.34988 0.74895 0.0
C95 C 0.59058 0.3311 0.77051 0.0
P96 P 0.84412 0.66767 0.3037 0.0
H97 H 0.88439 0.72719 0.28753 0.0
H98 H 0.91186 0.77625 0.31707 0.0
H99 H 0.88284 0.73614 0.40092 0.0
H100 H 0.85779 0.68682 0.37158 0.0
H101 H 0.83001 0.60386 0.28165 0.0
H102 H 0.85569 0.5798 0.247 0.0
H103 H 0.93422 0.66564 0.2457 0.0
H104 H 0.90962 0.6887 0.2817 0.0
H105 H 0.77642 0.66717 0.30954 0.0
H106 H 0.84374 0.61977 0.34773 0.0
O107 O 0.82166 0.67786 0.27341 0.0
H108 H 0.73546 0.64108 0.34118 0.0
H109 H 0.80217 0.59285 0.37963 0.0
C110 C 0.86924 0.70294 0.32716 0.0
C111 C 0.88483 0.72873 0.31247 0.0
C112 C 0.89999 0.75711 0.32944 0.0
C113 C 0.89934 0.76077 0.3616 0.0
C114 C 0.88441 0.7346 0.3764 0.0
C115 C 0.86979 0.7061 0.35947 0.0
C116 C 0.86816 0.6481 0.2853 0.0
C117 C 0.85348 0.61727 0.27486 0.0
C118 C 0.86796 0.60361 0.2543 0.0
C119 C 0.89718 0.62055 0.2428 0.0
C120 C 0.91221 0.65132 0.25405 0.0
C121 C 0.89796 0.66478 0.27491 0.0
C122 C 0.81292 0.6449 0.32543 0.0
C123 C 0.78214 0.65057 0.32425 0.0
C124 C 0.75854 0.6355 0.34249 0.0
C125 C 0.76503 0.6144 0.36286 0.0
C126 C 0.79616 0.60891 0.36429 0.0
C127 C 0.81987 0.62406 0.34582 0.0
P128 P 0.69066 0.72647 0.8058 0.0
H129 H 0.66176 0.73316 0.86039 0.0
H130 H 0.6208 0.75755 0.86845 0.0
H131 H 0.59296 0.75868 0.76847 0.0
H132 H 0.63474 0.73465 0.76066 0.0
H133 H 0.73277 0.69471 0.78516 0.0
H134 H 0.74526 0.65038 0.80241 0.0
H135 H 0.66416 0.63111 0.85569 0.0
H136 H 0.65166 0.67614 0.838 0.0
H137 H 0.72749 0.78676 0.79158 0.0
H138 H 0.68084 0.69847 0.74176 0.0
O139 O 0.72039 0.74728 0.83519 0.0
H140 H 0.74896 0.80708 0.74537 0.0
H141 H 0.70243 0.7188 0.69494 0.0
C142 C 0.65188 0.73282 0.81004 0.0
C143 C 0.64601 0.73766 0.84015 0.0
C144 C 0.62233 0.75152 0.84469 0.0
C145 C 0.60403 0.76068 0.81909 0.0
C146 C 0.60719 0.7525 0.78869 0.0
C147 C 0.631 0.73864 0.7842 0.0
C148 C 0.69072 0.68844 0.80961 0.0
C149 C 0.71641 0.68021 0.7992 0.0
C150 C 0.7236 0.65467 0.80922 0.0
C151 C 0.70568 0.63705 0.83046 0.0
C152 C 0.67847 0.64425 0.83939 0.0
C153 C 0.67114 0.66988 0.82911 0.0
C154 C 0.7036 0.74096 0.77034 0.0
C155 C 0.72179 0.77175 0.77059 0.0
C156 C 0.73376 0.7834 0.74402 0.0
C157 C 0.72749 0.76449 0.71654 0.0
C158 C 0.70797 0.73379 0.71592 0.0
C159 C 0.69571 0.72218 0.7426 0.0
P160 P 0.80454 0.25923 0.33918 0.0
H161 H 0.8147 0.29308 0.39958 0.0
H162 H 0.77602 0.30951 0.42654 0.0
H163 H 0.69293 0.26435 0.35112 0.0
H164 H 0.73091 0.24812 0.32476 0.0
H165 H 0.8659 0.24799 0.33047 0.0
H166 H 0.89466 0.21409 0.35387 0.0
H167 H 0.8234 0.18931 0.41716 0.0
H168 H 0.79471 0.22339 0.39361 0.0
H169 H 0.79032 0.2709 0.27332 0.0
H170 H 0.76373 0.19554 0.32982 0.0
O171 O 0.83123 0.29092 0.32918 0.0
H172 H 0.75149 0.23954 0.22796 0.0
H173 H 0.72416 0.16443 0.28512 0.0
C174 C 0.77579 0.26905 0.36036 0.0
C175 C 0.78804 0.28645 0.38915 0.0
C176 C 0.76599 0.29591 0.40442 0.0
C177 C 0.73137 0.288 0.39104 0.0
C178 C 0.71927 0.27028 0.36239 0.0
C179 C 0.74122 0.26102 0.34718 0.0
C180 C 0.82869 0.23867 0.36076 0.0
C181 C 0.85694 0.23577 0.34986 0.0
C182 C 0.87311 0.21616 0.363 0.0
C183 C 0.86116 0.19896 0.38723 0.0
C184 C 0.83334 0.20252 0.39873 0.0
C185 C 0.81703 0.22206 0.38538 0.0
C186 C 0.78039 0.23531 0.30469 0.0
C187 C 0.77655 0.24747 0.27582 0.0
C188 C 0.75403 0.22962 0.25003 0.0
C189 C 0.73465 0.19947 0.25291 0.0
C190 C 0.7391 0.18734 0.28189 0.0
C191 C 0.76177 0.20511 0.30751 0.0
P192 P 0.4371 0.68775 0.19864 0.0
H193 H 0.39067 0.70625 0.15214 0.0
H194 H 0.33057 0.68277 0.12968 0.0
H195 H 0.32354 0.61184 0.19212 0.0
H196 H 0.38352 0.63554 0.21486 0.0
H197 H 0.48996 0.72247 0.16571 0.0
H198 H 0.50253 0.77253 0.14658 0.0
H199 H 0.43259 0.79194 0.19884 0.0
H200 H 0.41922 0.74096 0.21761 0.0
H201 H 0.45171 0.63423 0.21842 0.0
H202 H 0.4456 0.71469 0.26369 0.0
O203 O 0.45248 0.66997 0.17414 0.0
H204 H 0.45997 0.61387 0.26877 0.0
H205 H 0.45459 0.69424 0.31497 0.0
C206 C 0.39161 0.67327 0.18592 0.0
C207 C 0.37609 0.68618 0.16174 0.0
C208 C 0.3417 0.67265 0.14876 0.0
C209 C 0.32235 0.64551 0.15921 0.0
C210 C 0.33786 0.6327 0.18355 0.0
C211 C 0.37217 0.64645 0.19676 0.0
C212 C 0.4534 0.72771 0.193 0.0
C213 C 0.47767 0.73751 0.17369 0.0
C214 C 0.48478 0.76616 0.16256 0.0
C215 C 0.46815 0.78594 0.17081 0.0
C216 C 0.44573 0.7771 0.19207 0.0
C217 C 0.43826 0.74808 0.20296 0.0
C218 C 0.44858 0.67627 0.23717 0.0
C219 C 0.45287 0.6479 0.23928 0.0
C220 C 0.45727 0.63607 0.26811 0.0
C221 C 0.45771 0.65235 0.29577 0.0
C222 C 0.45443 0.68125 0.29397 0.0
C223 C 0.44943 0.69298 0.26475 0.0
P224 P 0.19644 0.36212 0.73858 0.0
H225 H 0.20781 0.30379 0.73605 0.0
H226 H 0.17864 0.25603 0.70444 0.0
H227 H 0.10269 0.29227 0.65997 0.0
H228 H 0.13199 0.34038 0.69239 0.0
H229 H 0.25874 0.4147 0.75229 0.0
H230 H 0.29977 0.44126 0.72036 0.0
H231 H 0.2339 0.38792 0.6379 0.0
H232 H 0.19274 0.36229 0.66971 0.0
H233 H 0.14091 0.33578 0.77233 0.0
H234 H 0.2 0.42525 0.75424 0.0
O235 O 0.22412 0.35528 0.76693 0.0
H236 H 0.11648 0.35721 0.81028 0.0
H237 H 0.17493 0.44711 0.79151 0.0
C238 C 0.17187 0.32572 0.71711 0.0
C239 C 0.18454 0.30148 0.72 0.0
C240 C 0.16782 0.27403 0.70178 0.0
C241 C 0.13824 0.27017 0.67964 0.0
C242 C 0.12549 0.29449 0.67669 0.0
C243 C 0.14203 0.32192 0.6954 0.0
C244 C 0.22246 0.38633 0.71366 0.0
C245 C 0.25273 0.40921 0.72723 0.0
C246 C 0.27647 0.42415 0.7089 0.0
C247 C 0.27064 0.41654 0.67642 0.0
C248 C 0.23942 0.39467 0.6627 0.0
C249 C 0.21567 0.37981 0.68106 0.0
C250 C 0.17178 0.37874 0.75962 0.0
C251 C 0.14778 0.36013 0.77568 0.0
C252 C 0.13382 0.37255 0.79764 0.0
C253 C 0.1436 0.40413 0.80446 0.0
C254 C 0.16698 0.42274 0.78753 0.0
C255 C 0.18104 0.41022 0.76566 0.0
Pr256 Pr 0.98542 1.00811 0.52614 0.0
Pr257 Pr 0.04379 0.03284 0.49675 0.0
C258 C 0.93281 0.97629 0.55235 0.0
C259 C 0.91676 0.94759 0.56534 0.0
C260 C 0.91064 0.94868 0.59594 0.0
C261 C 0.8927 0.9225 0.60827 0.0
C262 C 0.88034 0.89456 0.59022 0.0
C263 C 0.88709 0.8933 0.55972 0.0
C264 C 0.90526 0.91963 0.54736 0.0
C265 C 0.02206 0.0685 0.54952 0.0
C266 C 0.05398 0.99113 0.55149 0.0
C267 C 0.09612 0.06384 0.46965 0.0
C268 C 0.1158 0.0942 0.46259 0.0
C269 C 0.12985 0.09715 0.43541 0.0
C270 C 0.15107 0.12517 0.42918 0.0
C271 C 0.15866 0.15088 0.45005 0.0
C272 C 0.14383 0.14801 0.47699 0.0
C273 C 0.12246 0.11986 0.48319 0.0
C274 C 1.0076 0.97212 0.47438 0.0
C275 C 0.97695 0.05357 0.47438 0.0
O276 O 0.93162 0.97622 0.52214 0.0
O277 O 0.96125 0.99461 0.56857 0.0
O278 O 0.03551 0.04872 0.54445 0.0
O279 O 0.98926 0.05714 0.54305 0.0
O280 O 0.07017 0.01622 0.54008 0.0
O281 O 0.02058 0.98016 0.54509 0.0
O282 O 0.09952 0.05791 0.49892 0.0
O283 O 0.06511 0.05182 0.45416 0.0
O284 O 0.99399 0.99192 0.47875 0.0
O285 O 0.04033 0.98375 0.48058 0.0
O286 O 0.95961 0.02865 0.48541 0.0
O287 O 1.01037 0.06276 0.47998 0.0
H288 H 0.91895 0.97003 0.61009 0.0
H289 H 0.88737 0.92439 0.63161 0.0
H290 H 0.87801 0.87205 0.54534 0.0
H291 H 0.90965 0.91818 0.52363 0.0
H292 H 0.12512 0.07755 0.41936 0.0
H293 H 0.16249 0.12646 0.40851 0.0
H294 H 0.14897 0.16745 0.49336 0.0
H295 H 0.11171 0.11803 0.5043 0.0
Pr296 Pr 0.48218 0.02378 0.04176 0.0
Pr297 Pr 0.54515 0.01992 1.01292 0.0
C298 C 0.43962 0.02876 0.07967 0.0
C299 C 0.44041 0.05327 0.10176 0.0
C300 C 0.4677 0.08054 0.10607 0.0
C301 C 0.46828 0.10427 0.12641 0.0
C302 C 0.44145 0.10121 0.14272 0.0
C303 C 0.41425 0.07369 0.1385 0.0
C304 C 0.41377 0.04987 0.11817 0.0
C305 C 0.50079 0.06271 0.99523 0.0
C306 C 0.56239 0.06562 0.07589 0.0
C307 C 0.58625 0.02221 0.97184 0.0
C308 C 0.58986 0.99791 0.95182 0.0
C309 C 0.60239 0.97579 0.96508 0.0
C310 C 0.60099 0.95047 0.94668 0.0
C311 C 0.58704 0.94664 0.91462 0.0
C312 C 0.57552 0.9692 0.90112 0.0
C313 C 0.57708 0.99467 0.91953 0.0
C314 C 0.52594 0.97165 0.05084 0.0
C315 C 0.46634 0.97614 0.98174 0.0
O316 O 0.46296 0.01622 0.08744 0.0
O317 O 0.43551 0.03408 0.0502 0.0
O318 O 0.52102 0.05697 1.0169 0.0
O319 O 0.46943 0.04885 0.99771 0.0
O320 O 0.57461 0.05778 0.05224 0.0
O321 O 0.52975 0.05481 0.07771 0.0
O322 O 0.5574 0.02745 0.96463 0.0
O323 O 0.59645 0.02272 1.00211 0.0
O324 O 0.51236 0.99167 0.04546 0.0
O325 O 0.55185 0.97689 0.03686 0.0
O326 O 0.45541 0.98034 1.00766 0.0
O327 O 0.49676 0.99236 0.977 0.0
H328 H 0.48837 0.08363 0.09337 0.0
H329 H 0.48934 0.12528 0.12879 0.0
H330 H 0.39339 0.07055 0.15097 0.0
H331 H 0.39254 0.02893 0.1151 0.0
H332 H 0.6122 0.9774 0.98989 0.0
H333 H 0.60977 0.93333 0.95783 0.0
H334 H 0.56504 0.96702 0.8764 0.0
H335 H 0.56723 1.01136 0.9087 0.0
Pr336 Pr 0.52846 0.549 0.53659 0.0
Pr337 Pr 0.51215 0.48014 0.50591 0.0
C338 C 0.52909 0.60611 0.54501 0.0
C339 C 0.50394 0.6208 0.54879 0.0
C340 C 0.47709 0.60721 0.56448 0.0
C341 C 0.45456 0.62221 0.56965 0.0
C342 C 0.4583 0.65098 0.55901 0.0
C343 C 0.48446 0.66393 0.5422 0.0
C344 C 0.50711 0.64897 0.53721 0.0
C345 C 0.55626 0.51454 0.5783 0.0
C346 C 0.45876 0.49502 0.54916 0.0
C347 C 0.50308 0.42124 0.49375 0.0
C348 C 0.51975 0.40386 0.47782 0.0
C349 C 0.54172 0.41759 0.45757 0.0
C350 C 0.56223 0.4028 0.44693 0.0
C351 C 0.56131 0.37424 0.45672 0.0
C352 C 0.53828 0.36013 0.47605 0.0
C353 C 0.51766 0.37486 0.48652 0.0
C354 C 0.49631 0.52102 0.46607 0.0
C355 C 0.58285 0.5334 0.4954 0.0
O356 O 0.52615 0.5929 0.51731 0.0
O357 O 0.53662 0.5906 0.568 0.0
O358 O 0.54068 0.50742 0.55067 0.0
O359 O 0.56036 0.54279 0.5853 0.0
O360 O 0.46814 0.47454 0.53483 0.0
O361 O 0.47547 0.52445 0.55045 0.0
O362 O 0.52194 0.43733 0.51917 0.0
O363 O 0.48579 0.43558 0.47639 0.0
O364 O 0.49175 0.51929 0.49413 0.0
O365 O 0.50688 0.49953 0.45715 0.0
O366 O 0.57152 0.55409 0.50669 0.0
O367 O 0.56761 0.50395 0.49666 0.0
H368 H 0.47397 0.58528 0.57334 0.0
H369 H 0.4349 0.61168 0.58287 0.0
H370 H 0.48762 0.68578 0.53315 0.0
H371 H 0.52742 0.65961 0.52471 0.0
H372 H 0.54411 0.44026 0.45112 0.0
H373 H 0.57998 0.41432 0.43231 0.0
H374 H 0.53685 0.33802 0.48369 0.0
H375 H 0.50112 0.36415 0.50247 0.0
Pr376 Pr 1.01747 0.53506 1.00465 0.0
Pr377 Pr 0.02968 0.48941 0.04754 0.0
C378 C 0.99212 0.57022 0.96705 0.0
C379 C 0.95902 0.57399 0.95729 0.0
C380 C 0.95433 0.59063 0.9318 0.0
C381 C 0.92246 0.59296 0.92088 0.0
C382 C 0.8947 0.57878 0.93541 0.0
C383 C 0.89955 0.56198 0.96102 0.0
C384 C 0.93151 0.55955 0.97185 0.0
C385 C 0.08431 0.55207 0.03731 0.0
C386 C 0.99296 0.53381 0.0743 0.0
C387 C 0.05549 0.45405 0.08447 0.0
C388 C 0.08889 0.45075 0.09546 0.0
C389 C 0.09228 0.42204 0.09358 0.0
C390 C 0.12321 0.41818 0.10558 0.0
C391 C 0.15131 0.44297 0.11994 0.0
C392 C 0.14808 0.47188 0.121 0.0
C393 C 0.11723 0.47576 0.10877 0.0
C394 C 0.96308 0.47233 1.01409 0.0
C395 C 0.05333 0.49036 0.97745 0.0
O396 O 0.99422 0.54448 0.95723 0.0
O397 O 1.00699 0.57889 0.99612 0.0
O398 O 0.05816 0.54006 0.04875 0.0
O399 O 0.07647 0.55758 1.00853 0.0
O400 O 1.01271 0.51757 0.08282 0.0
O401 O 0.98678 0.53968 0.04472 0.0
O402 O 0.051 0.47854 0.09495 0.0
O403 O 0.04197 0.44606 0.055 0.0
O404 O 0.98956 0.4843 1.0032 0.0
O405 O 0.9704 0.46675 0.04293 0.0
O406 O 0.03334 0.50639 0.96917 0.0
O407 O 0.06017 0.48487 1.00711 0.0
H408 H 0.97522 0.60146 0.92002 0.0
H409 H 0.91948 0.6055 0.90068 0.0
H410 H 0.87876 0.55093 0.97281 0.0
H411 H 0.93472 0.54625 0.99138 0.0
H412 H 0.07083 0.4025 0.08323 0.0
H413 H 0.12501 0.39569 0.10389 0.0
H414 H 0.16903 0.49138 0.13222 0.0
H415 H 0.11541 0.49824 0.1104 0.0
C416 C 0.31899 0.26733 0.40375 0.0
C417 C 0.31877 0.29692 0.40036 0.0
C418 C 0.29289 0.24591 0.41514 0.0
C419 C 0.26594 0.2543 0.42348 0.0
C420 C 0.26646 0.28454 0.42168 0.0
C421 C 0.29282 0.30549 0.40998 0.0
C422 C 0.29321 0.21385 0.41656 0.0
C423 C 0.23843 0.29441 0.43078 0.0
C424 C 0.18303 0.18923 0.41384 0.0
C425 C 0.18347 0.17998 0.44425 0.0
C426 C 0.20899 0.21426 0.40706 0.0
C427 C 0.23595 0.23065 0.43134 0.0
C428 C 0.23551 0.22256 0.46242 0.0
C429 C 0.20929 0.19723 0.46851 0.0
C430 C 0.20844 0.2222 0.37361 0.0
C431 C 0.26363 0.23966 0.48896 0.0
H432 H 0.33868 0.26043 0.39595 0.0
H433 H 0.29274 0.32843 0.40767 0.0
H434 H 0.28984 0.20606 0.44002 0.0
H435 H 0.27169 0.19858 0.39933 0.0
H436 H 0.31718 0.21155 0.41142 0.0
H437 H 0.24457 0.31934 0.43152 0.0
H438 H 0.21462 0.2837 0.41364 0.0
H439 H 0.23346 0.28689 0.45401 0.0
H440 H 0.16278 0.17633 0.39511 0.0
H441 H 0.20993 0.19012 0.49203 0.0
H442 H 0.23008 0.2183 0.36495 0.0
H443 H 0.21148 0.24649 0.37213 0.0
H444 H 0.18453 0.20855 0.35788 0.0
H445 H 0.28727 0.23505 0.48652 0.0
H446 H 0.25735 0.23308 0.51213 0.0
H447 H 0.26898 0.26438 0.48822 0.0
C448 C 0.35379 0.86832 0.82849 0.0
C449 C 0.34879 0.88914 0.80725 0.0
C450 C 0.369 0.8779 0.85988 0.0
C451 C 0.37982 0.90904 0.87 0.0
C452 C 0.37347 0.9299 0.84895 0.0
C453 C 0.358 0.91969 0.8179 0.0
C454 C 0.37491 0.85495 0.88176 0.0
C455 C 0.38492 0.96337 0.85868 0.0
C456 C 0.40847 0.94346 0.95394 0.0
C457 C 0.44378 0.95433 0.95581 0.0
C458 C 0.38706 0.92659 0.9268 0.0
C459 C 0.40144 0.92071 0.90115 0.0
C460 C 0.43715 0.92974 0.90394 0.0
C461 C 0.45782 0.94633 0.93124 0.0
C462 C 0.34909 0.91678 0.92484 0.0
C463 C 0.45364 0.92382 0.87726 0.0
H464 H 0.3464 0.84463 0.82041 0.0
H465 H 0.35469 0.93597 0.80153 0.0
H466 H 0.40226 0.85737 0.88619 0.0
H467 H 0.36797 0.85883 0.90463 0.0
H468 H 0.36014 0.83142 0.87193 0.0
H469 H 0.37572 0.97622 0.84023 0.0
H470 H 0.3757 0.96738 0.88028 0.0
H471 H 0.41309 0.97251 0.86392 0.0
H472 H 0.39747 0.94933 0.97296 0.0
H473 H 0.48515 0.95409 0.93276 0.0
H474 H 0.33689 0.89317 0.91424 0.0
H475 H 0.33861 0.93141 0.90962 0.0
H476 H 0.3421 0.91839 0.94819 0.0
H477 H 0.44313 0.89961 0.86847 0.0
H478 H 0.48165 0.93011 0.88417 0.0
H479 H 0.44808 0.93711 0.8576 0.0
C480 C 0.6145 0.40066 0.68997 0.0
C481 C 0.59577 0.3931 0.71416 0.0
C482 C 0.60746 0.41974 0.66743 0.0
C483 C 0.58104 0.43178 0.66899 0.0
C484 C 0.56153 0.42377 0.69296 0.0
C485 C 0.56902 0.40443 0.71517 0.0
C486 C 0.6286 0.42728 0.64209 0.0
C487 C 0.53318 0.43615 0.69552 0.0
C488 C 0.58606 0.50436 0.6293 0.0
C489 C 0.56326 0.49335 0.60106 0.0
C490 C 0.59184 0.48463 0.65172 0.0
C491 C 0.57434 0.4531 0.6458 0.0
C492 C 0.55108 0.44195 0.61737 0.0
C493 C 0.54564 0.46225 0.59554 0.0
C494 C 0.61674 0.49752 0.68174 0.0
C495 C 0.53181 0.40859 0.61004 0.0
H496 H 0.63482 0.39158 0.68865 0.0
H497 H 0.55455 0.39884 0.73384 0.0
H498 H 0.61195 0.42094 0.61875 0.0
H499 H 0.6421 0.45201 0.64371 0.0
H500 H 0.64768 0.41549 0.64366 0.0
H501 H 0.51976 0.42711 0.7149 0.0
H502 H 0.54357 0.46117 0.69949 0.0
H503 H 0.51446 0.43053 0.67333 0.0
H504 H 0.5994 0.52846 0.63387 0.0
H505 H 0.52685 0.45384 0.57451 0.0
H506 H 0.63775 0.48799 0.68377 0.0
H507 H 0.60399 0.49102 0.70207 0.0
H508 H 0.62773 0.52257 0.68311 0.0
H509 H 0.54986 0.39582 0.61084 0.0
H510 H 0.51515 0.40352 0.58663 0.0
H511 H 0.51591 0.40021 0.62793 0.0
C512 C 0.94592 0.61723 0.21675 0.0
C513 C 0.91107 0.60676 0.21836 0.0
C514 C 0.95892 0.60558 0.19321 0.0
C515 C 0.93692 0.58222 0.17069 0.0
C516 C 0.9019 0.57111 0.1724 0.0
C517 C 0.88944 0.5836 0.19581 0.0
C518 C 0.99635 0.61847 0.19235 0.0
C519 C 0.87741 0.54598 0.14935 0.0
C520 C 0.96436 0.56931 0.09281 0.0
C521 C 0.97767 0.54569 0.0985 0.0
C522 C 0.95121 0.58142 0.11595 0.0
C523 C 0.95059 0.56936 0.14555 0.0
C524 C 0.9634 0.54512 0.15117 0.0
C525 C 0.977 0.53387 0.12785 0.0
C526 C 0.93846 0.60753 0.10887 0.0
C527 C 0.96274 0.53098 0.18192 0.0
H528 H 0.96335 0.63457 0.23407 0.0
H529 H 0.86245 0.57542 0.19595 0.0
H530 H 1.00807 0.60047 0.19541 0.0
H531 H 1.00004 0.62708 0.16924 0.0
H532 H 1.01003 0.63718 0.21083 0.0
H533 H 0.85121 0.53897 0.15439 0.0
H534 H 0.87678 0.55338 0.12532 0.0
H535 H 0.88606 0.52601 0.14976 0.0
H536 H 0.96481 0.57882 0.07039 0.0
H537 H 0.98696 0.51553 0.13263 0.0
H538 H 0.95305 0.62722 0.12594 0.0
H539 H 0.91145 0.6013 0.11135 0.0
H540 H 0.94073 0.61449 0.08491 0.0
H541 H 0.97835 0.54811 0.20126 0.0
H542 H 0.97251 0.51164 0.18236 0.0
H543 H 0.9364 0.52292 0.18654 0.0
C544 C 0.43216 0.22746 0.26555 0.0
C545 C 0.43854 0.25542 0.25261 0.0
C546 C 0.43405 0.20214 0.24905 0.0
C547 C 0.44246 0.20482 0.21886 0.0
C548 C 0.44982 0.23317 0.206 0.0
C549 C 0.44781 0.25814 0.22306 0.0
C550 C 0.42627 0.17235 0.26363 0.0
C551 C 0.45883 0.2369 0.17384 0.0
C552 C 0.47135 0.14481 0.18319 0.0
C553 C 0.44146 0.12702 0.16324 0.0
C554 C 0.47202 0.17005 0.20166 0.0
C555 C 0.44209 0.1777 0.20012 0.0
C556 C 0.41176 0.15963 0.18033 0.0
C557 C 0.41181 0.13451 0.16215 0.0
C558 C 0.5048 0.18868 0.22262 0.0
C559 C 0.37934 0.1671 0.178 0.0
H560 H 0.42544 0.22535 0.28858 0.0
H561 H 0.4524 0.2796 0.21279 0.0
H562 H 0.4033 0.15554 0.24942 0.0
H563 H 0.44752 0.16332 0.26389 0.0
H564 H 0.42183 0.17441 0.28793 0.0
H565 H 0.46546 0.26075 0.16785 0.0
H566 H 0.48061 0.22901 0.17227 0.0
H567 H 0.43706 0.22275 0.15608 0.0
H568 H 0.49425 0.13891 0.18441 0.0
H569 H 0.38876 0.12112 0.14647 0.0
H570 H 0.50099 0.1897 0.24719 0.0
H571 H 0.51275 0.21223 0.21579 0.0
H572 H 0.52568 0.1794 0.22152 0.0
H573 H 0.37236 0.16775 0.20143 0.0
H574 H 0.35777 0.15045 0.16193 0.0
H575 H 0.38319 0.18987 0.16951 0.0
C576 C 0.17289 0.89365 0.58487 0.0
C577 C 0.18468 0.89123 0.61638 0.0
C578 C 0.14801 0.90717 0.57626 0.0
C579 C 0.13478 0.91867 0.59977 0.0
C580 C 0.14509 0.91464 0.63151 0.0
C581 C 0.16993 0.9009 0.63944 0.0
C582 C 0.13739 0.91074 0.54211 0.0
C583 C 0.13155 0.92658 0.65722 0.0
C584 C 0.10892 0.98651 0.57753 0.0
C585 C 0.07371 0.97338 0.56793 0.0
C586 C 0.12885 0.96911 0.58924 0.0
C587 C 0.1132 0.93777 0.59126 0.0
C588 C 0.07747 0.92463 0.58302 0.0
C589 C 0.05808 0.94265 0.57151 0.0
C590 C 0.16687 0.98406 0.59811 0.0
C591 C 0.05992 0.8913 0.5849 0.0
H592 H 0.18397 0.88584 0.56698 0.0
H593 H 0.17919 0.8993 0.66386 0.0
H594 H 0.1093 0.90294 0.53555 0.0
H595 H 0.1469 0.935 0.53781 0.0
H596 H 0.14743 0.89792 0.52662 0.0
H597 H 0.13856 0.91811 0.68007 0.0
H598 H 0.14202 0.95164 0.65972 0.0
H599 H 0.1035 0.92012 0.65136 0.0
H600 H 0.12113 1.0103 0.57508 0.0
H601 H 0.03087 0.93233 0.56407 0.0
H602 H 0.1796 0.97494 0.58185 0.0
H603 H 0.17608 0.97897 0.622 0.0
H604 H 0.17476 1.009 0.59731 0.0
H605 H 0.06654 0.87812 0.56693 0.0
H606 H 0.03185 0.88528 0.58102 0.0
H607 H 0.06869 0.88432 0.60802 0.0
C608 C 0.77828 0.41463 0.90309 0.0
C609 C 0.76925 0.38315 0.89702 0.0
C610 C 0.80864 0.43137 0.92321 0.0
C611 C 0.83081 0.41638 0.93718 0.0
C612 C 0.82172 0.38466 0.93144 0.0
C613 C 0.79095 0.36844 0.91181 0.0
C614 C 0.81719 0.46511 0.92923 0.0
C615 C 0.84486 0.36785 0.94555 0.0
C616 C 0.92516 0.45864 0.96192 0.0
C617 C 0.92888 0.46036 0.99458 0.0
C618 C 0.89319 0.44515 0.94291 0.0
C619 C 0.86416 0.43375 0.95692 0.0
C620 C 0.86758 0.43688 0.98988 0.0
C621 C 0.90002 0.44987 1.00837 0.0
C622 C 0.89075 0.44186 0.90791 0.0
C623 C 0.83712 0.42578 1.00564 0.0
H624 H 0.76199 0.42636 0.89161 0.0
H625 H 0.78395 0.3441 0.90802 0.0
H626 H 0.82178 0.47141 0.95473 0.0
H627 H 0.84091 0.4772 0.92075 0.0
H628 H 0.79665 0.47316 0.91753 0.0
H629 H 0.83417 0.34318 0.93858 0.0
H630 H 0.86984 0.3769 0.93811 0.0
H631 H 0.8495 0.3713 0.97142 0.0
H632 H 0.94744 0.4669 0.95118 0.0
H633 H 0.90284 0.45157 0.03363 0.0
H634 H 0.8717 0.45146 0.89602 0.0
H635 H 0.88208 0.41752 0.89964 0.0
H636 H 0.91544 0.45325 0.90063 0.0
H637 H 0.81684 0.43454 0.99484 0.0
H638 H 0.84356 0.43275 0.0311 0.0
H639 H 0.82658 0.40074 1.00236 0.0
C640 C 0.70452 0.59016 0.37087 0.0
C641 C 0.73957 0.5991 0.38282 0.0
C642 C 0.68015 0.57806 0.38978 0.0
C643 C 0.69075 0.57451 0.42166 0.0
C644 C 0.72603 0.58256 0.43368 0.0
C645 C 0.74992 0.5947 0.41422 0.0
C646 C 0.64293 0.56973 0.37574 0.0
C647 C 0.7386 0.57915 0.46743 0.0
C648 C 0.62828 0.57476 0.47604 0.0
C649 C 0.61245 0.54379 0.47873 0.0
C650 C 0.65419 0.58497 0.45826 0.0
C651 C 0.66489 0.56383 0.44257 0.0
C652 C 0.64967 0.53257 0.44578 0.0
C653 C 0.62373 0.52295 0.46372 0.0
C654 C 0.66949 0.61848 0.45559 0.0
C655 C 0.66019 0.50916 0.4296 0.0
H656 H 0.69601 0.59281 0.34657 0.0
H657 H 0.77679 0.60168 0.42394 0.0
H658 H 0.62927 0.54588 0.37932 0.0
H659 H 0.63146 0.58405 0.38769 0.0
H660 H 0.63871 0.57265 0.35032 0.0
H661 H 0.76657 0.58445 0.47275 0.0
H662 H 0.73166 0.59452 0.48284 0.0
H663 H 0.72623 0.55574 0.47326 0.0
H664 H 0.61997 0.59121 0.48737 0.0
H665 H 0.6118 0.49897 0.46541 0.0
H666 H 0.66381 0.62348 0.43092 0.0
H667 H 0.69752 0.62578 0.46258 0.0
H668 H 0.65963 0.63212 0.47034 0.0
H669 H 0.65393 0.50971 0.40389 0.0
H670 H 0.64739 0.48593 0.43576 0.0
H671 H 0.68808 0.51438 0.43586 0.0
C672 C 0.31754 0.40245 0.19044 0.0
C673 C 0.32765 0.41261 0.22229 0.0
C674 C 0.2912 0.40949 0.1717 0.0
C675 C 0.27471 0.42723 0.18509 0.0
C676 C 0.28608 0.43899 0.21673 0.0
C677 C 0.31234 0.43147 0.23497 0.0
C678 C 0.27988 0.39662 0.13802 0.0
C679 C 0.26924 0.45813 0.23183 0.0
C680 C 0.21507 0.45937 0.13337 0.0
C681 C 0.18323 0.43843 0.13526 0.0
C682 C 0.24519 0.4559 0.14911 0.0
C683 C 0.24339 0.43088 0.16708 0.0
C684 C 0.21139 0.40945 0.16866 0.0
C685 C 0.18176 0.41354 0.15285 0.0
C686 C 0.27886 0.47922 0.14693 0.0
C687 C 0.20838 0.38242 0.18756 0.0
H688 H 0.32966 0.3883 0.18034 0.0
H689 H 0.31969 0.43917 0.2596 0.0
H690 H 0.25425 0.37933 0.13503 0.0
H691 H 0.27794 0.41459 0.12247 0.0
H692 H 0.29749 0.38592 0.13031 0.0
H693 H 0.28337 0.46817 0.25553 0.0
H694 H 0.26709 0.47664 0.21716 0.0
H695 H 0.2431 0.44402 0.23387 0.0
H696 H 0.21644 0.4785 0.11957 0.0
H697 H 0.1573 0.39756 0.15493 0.0
H698 H 0.29595 0.46811 0.13896 0.0
H699 H 0.29147 0.4909 0.1704 0.0
H700 H 0.27602 0.49644 0.13064 0.0
H701 H 0.22345 0.36909 0.17974 0.0
H702 H 0.18166 0.36733 0.18553 0.0
H703 H 0.21886 0.39014 0.21258 0.0
C704 C 0.56144 0.18077 0.86793 0.0
C705 C 0.56231 0.20978 0.87803 0.0
C706 C 0.55066 0.15596 0.88573 0.0
C707 C 0.54065 0.16012 0.91456 0.0
C708 C 0.5409 0.18918 0.92467 0.0
C709 C 0.55158 0.21355 0.9063 0.0
C710 C 0.55066 0.12539 0.87397 0.0
C711 C 0.5304 0.19465 0.95521 0.0
C712 C 0.48687 0.09219 0.95083 0.0
C713 C 0.51124 0.08657 0.97359 0.0
C714 C 0.49612 0.11571 0.93118 0.0
C715 C 0.53057 0.13426 0.93445 0.0
C716 C 0.55535 0.12837 0.95713 0.0
C717 C 0.54541 0.10455 0.97631 0.0
C718 C 0.46893 0.12094 0.90713 0.0
C719 C 0.59232 0.14759 0.96151 0.0
H720 H 0.57017 0.17755 0.84646 0.0
H721 H 0.55164 0.23567 0.9142 0.0
H722 H 0.56892 0.11811 0.89047 0.0
H723 H 0.52519 0.10825 0.87283 0.0
H724 H 0.55765 0.12555 0.85045 0.0
H725 H 0.5315 0.21842 0.95957 0.0
H726 H 0.50415 0.1795 0.9553 0.0
H727 H 0.54726 0.18923 0.97483 0.0
H728 H 0.46043 0.07831 0.94852 0.0
H729 H 0.56438 0.10032 0.99384 0.0
H730 H 0.4754 0.12009 0.8835 0.0
H731 H 0.46754 0.14379 0.91204 0.0
H732 H 0.4435 0.10396 0.90683 0.0
H733 H 0.60172 0.14721 0.93922 0.0
H734 H 0.60851 0.1398 0.97981 0.0
H735 H 0.59527 0.17143 0.96818 0.0
C736 C 0.9117 0.81758 0.36415 0.0
C737 C 0.91327 0.79172 0.37922 0.0
C738 C 0.92532 0.84675 0.37994 0.0
C739 C 0.94036 0.85054 0.41201 0.0
C740 C 0.94117 0.82459 0.42771 0.0
C741 C 0.92803 0.79571 0.41116 0.0
C742 C 0.92424 0.87367 0.36204 0.0
C743 C 0.9565 0.82737 0.46197 0.0
C744 C 1.00801 0.92614 0.44421 0.0
C745 C 0.98967 0.94122 0.45838 0.0
C746 C 0.99224 0.89691 0.429 0.0
C747 C 0.95723 0.88174 0.42847 0.0
C748 C 0.93862 0.89665 0.44323 0.0
C749 C 0.95494 0.92634 0.45766 0.0
C750 C 1.0131 0.88235 0.4132 0.0
C751 C 0.90153 0.88114 0.44402 0.0
H752 H 0.89965 0.81514 0.33983 0.0
H753 H 0.92998 0.7763 0.42328 0.0
H754 H 0.91097 0.88668 0.37343 0.0
H755 H 0.95048 0.88904 0.36229 0.0
H756 H 0.91118 0.86701 0.33735 0.0
H757 H 0.95243 0.80498 0.47151 0.0
H758 H 0.98421 0.83963 0.46544 0.0
H759 H 0.94538 0.84073 0.47565 0.0
H760 H 0.03485 0.93741 0.44463 0.0
H761 H 0.94069 0.93769 0.46886 0.0
H762 H 1.00174 0.87646 0.38805 0.0
H763 H 1.013 0.86103 0.42368 0.0
H764 H 0.03986 0.89733 0.41521 0.0
H765 H 0.8867 0.87591 0.41987 0.0
H766 H 0.89097 0.89519 0.45751 0.0
H767 H 0.89802 0.85933 0.45466 0.0
C768 C 0.35691 0.74249 0.63471 0.0
C769 C 0.34397 0.7593 0.61295 0.0
C770 C 0.37188 0.72181 0.62531 0.0
C771 C 0.37398 0.71796 0.59341 0.0
C772 C 0.35902 0.73343 0.57109 0.0
C773 C 0.34416 0.75391 0.58113 0.0
C774 C 0.38736 0.70558 0.6498 0.0
C775 C 0.36054 0.72978 0.53685 0.0
C776 C 0.45023 0.69906 0.57621 0.0
C777 C 0.43615 0.66806 0.5668 0.0
C778 C 0.43015 0.71549 0.58469 0.0
C779 C 0.3951 0.70054 0.58397 0.0
C780 C 0.38062 0.66928 0.57444 0.0
C781 C 0.40132 0.6534 0.56589 0.0
C782 C 0.44657 0.74884 0.59473 0.0
C783 C 0.34336 0.65261 0.57346 0.0
H784 H 0.35708 0.74669 0.65935 0.0
H785 H 0.33365 0.76648 0.56416 0.0
H786 H 0.37962 0.68115 0.64228 0.0
H787 H 0.41546 0.71487 0.65286 0.0
H788 H 0.37993 0.70811 0.67278 0.0
H789 H 0.34444 0.74067 0.52213 0.0
H790 H 0.38715 0.74017 0.53344 0.0
H791 H 0.35228 0.7055 0.52855 0.0
H792 H 0.47721 0.71045 0.57759 0.0
H793 H 0.39019 0.6295 0.55835 0.0
H794 H 0.4437 0.75342 0.61908 0.0
H795 H 0.43374 0.76205 0.57965 0.0
H796 H 0.47404 0.75714 0.59353 0.0
H797 H 0.33707 0.65446 0.59703 0.0
H798 H 0.33602 0.62829 0.56546 0.0
H799 H 0.32778 0.66305 0.55753 0.0
C800 C 0.76125 0.76165 0.67504 0.0
C801 C 0.74335 0.77685 0.68964 0.0
C802 C 0.78176 0.77581 0.65377 0.0
C803 C 0.78452 0.80585 0.64729 0.0
C804 C 0.76442 0.82033 0.66013 0.0
C805 C 0.74397 0.80558 0.68103 0.0
C806 C 0.80226 0.75942 0.64005 0.0
C807 C 0.76641 0.8523 0.65366 0.0
C808 C 0.86682 0.86245 0.63433 0.0
C809 C 0.85859 0.8676 0.60292 0.0
C810 C 0.8436 0.84093 0.64857 0.0
C811 C 0.8115 0.82384 0.63082 0.0
C812 C 0.80417 0.82706 0.59844 0.0
C813 C 0.82779 0.84907 0.58485 0.0
C814 C 0.85254 0.83812 0.68316 0.0
C815 C 0.77053 0.80878 0.57861 0.0
H816 H 0.76089 0.73943 0.68163 0.0
H817 H 0.72958 0.81711 0.69179 0.0
H818 H 0.80214 0.76321 0.61498 0.0
H819 H 0.82904 0.76835 0.65242 0.0
H820 H 0.79248 0.73471 0.64237 0.0
H821 H 0.74693 0.85925 0.66316 0.0
H822 H 0.79188 0.86812 0.66445 0.0
H823 H 0.76306 0.85467 0.62815 0.0
H824 H 0.89093 0.87626 0.6482 0.0
H825 H 0.82124 0.85295 0.56055 0.0
H826 H 0.84774 0.81408 0.68776 0.0
H827 H 0.83619 0.84661 0.69581 0.0
H828 H 0.87951 0.85114 0.69295 0.0
H829 H 0.76291 0.78484 0.58427 0.0
H830 H 0.77134 0.80954 0.55325 0.0
H831 H 0.75061 0.81797 0.58354 0.0
C832 C 0.70446 0.15019 0.22071 0.0
C833 C 0.70897 0.18097 0.22625 0.0
C834 C 0.67947 0.13216 0.19639 0.0
C835 C 0.65879 0.14532 0.17683 0.0
C836 C 0.66331 0.17639 0.18208 0.0
C837 C 0.68824 0.19383 0.20685 0.0
C838 C 0.67528 0.09903 0.19154 0.0
C839 C 0.64186 0.19121 0.16152 0.0
C840 C 0.61922 0.10363 0.09698 0.0
C841 C 0.5862 0.08744 0.10117 0.0
C842 C 0.64276 0.12329 0.12115 0.0
C843 C 0.63315 0.1266 0.15031 0.0
C844 C 0.59961 0.11095 0.15449 0.0
C845 C 0.57644 0.09163 0.12977 0.0
C846 C 0.67814 0.14002 0.11567 0.0
C847 C 0.58853 0.11385 0.18535 0.0
H848 H 0.72066 0.14018 0.23531 0.0
H849 H 0.69115 0.21746 0.2113 0.0
H850 H 0.64872 0.08501 0.19223 0.0
H851 H 0.68043 0.09406 0.16816 0.0
H852 H 0.69259 0.09208 0.20952 0.0
H853 H 0.64864 0.21565 0.1687 0.0
H854 H 0.64499 0.18869 0.13688 0.0
H855 H 0.61462 0.17986 0.16226 0.0
H856 H 0.62686 0.10082 0.07483 0.0
H857 H 0.55094 0.07924 0.13316 0.0
H858 H 0.69686 0.13237 0.13114 0.0
H859 H 0.68466 0.16463 0.12163 0.0
H860 H 0.6809 0.13638 0.09106 0.0
H861 H 0.60313 0.10457 0.20358 0.0
H862 H 0.56101 0.10165 0.18416 0.0
H863 H 0.59399 0.13799 0.1929 0.0
C864 C 0.4871 0.65205 0.35097 0.0
C865 C 0.46058 0.63815 0.32586 0.0
C866 C 0.49295 0.63637 0.37739 0.0
C867 C 0.47152 0.60627 0.37882 0.0
C868 C 0.44338 0.59304 0.35438 0.0
C869 C 0.43843 0.60902 0.32819 0.0
C870 C 0.52328 0.65132 0.40281 0.0
C871 C 0.41956 0.56125 0.35499 0.0
C872 C 0.50572 0.5482 0.41829 0.0
C873 C 0.49189 0.54484 0.44566 0.0
C874 C 0.50058 0.56913 0.39724 0.0
C875 C 0.48071 0.58709 0.4034 0.0
C876 C 0.46765 0.5846 0.43162 0.0
C877 C 0.47346 0.56352 0.45249 0.0
C878 C 0.51555 0.57125 0.36782 0.0
C879 C 0.44644 0.6033 0.43922 0.0
H880 H 0.50434 0.67452 0.3492 0.0
H881 H 0.41769 0.59833 0.30894 0.0
H882 H 0.51614 0.6481 0.42621 0.0
H883 H 0.54299 0.64065 0.40159 0.0
H884 H 0.53454 0.67592 0.40054 0.0
H885 H 0.39686 0.55552 0.33609 0.0
H886 H 0.4331 0.54492 0.35212 0.0
H887 H 0.41102 0.55828 0.37783 0.0
H888 H 0.52039 0.53413 0.41305 0.0
H889 H 0.4628 0.56106 0.47367 0.0
H890 H 0.53007 0.59512 0.36512 0.0
H891 H 0.49482 0.56312 0.34715 0.0
H892 H 0.53269 0.55762 0.36776 0.0
H893 H 0.42121 0.59489 0.42364 0.0
H894 H 0.45846 0.6273 0.43501 0.0
H895 H 0.44258 0.60217 0.46387 0.0
C896 C 0.15141 0.44344 0.8491 0.0
C897 C 0.13053 0.41734 0.82986 0.0
C898 C 0.13984 0.45561 0.87338 0.0
C899 C 0.10651 0.44141 0.87914 0.0
C900 C 0.0853 0.41508 0.85992 0.0
C901 C 0.09741 0.40353 0.83563 0.0
C902 C 0.16343 0.48375 0.89298 0.0
C903 C 0.04961 0.39905 0.86497 0.0
C904 C 0.08529 0.45752 0.95922 0.0
C905 C 0.06795 0.47832 0.95277 0.0
C906 C 0.09795 0.44541 0.93567 0.0
C907 C 0.09359 0.45438 0.90476 0.0
C908 C 0.07651 0.47567 0.89826 0.0
C909 C 0.06387 0.48718 0.92212 0.0
C910 C 0.11571 0.42268 0.94382 0.0
C911 C 0.07143 0.48627 0.86593 0.0
H912 H 0.17721 0.45422 0.84559 0.0
H913 H 0.08062 0.38371 0.8209 0.0
H914 H 0.15173 0.50183 0.89146 0.0
H915 H 0.16759 0.47903 0.91789 0.0
H916 H 0.18846 0.49234 0.88552 0.0
H917 H 0.03652 0.37843 0.84868 0.0
H918 H 0.05011 0.39251 0.88931 0.0
H919 H 0.03449 0.41451 0.86169 0.0
H920 H 0.0886 0.45032 0.98265 0.0
H921 H 0.05069 0.50327 0.91663 0.0
H922 H 0.14178 0.43098 0.93856 0.0
H923 H 0.10195 0.40108 0.92927 0.0
H924 H 0.11737 0.41812 0.96885 0.0
H925 H 0.09633 0.49626 0.8586 0.0
H926 H 0.0583 0.50336 0.8647 0.0
H927 H 0.05622 0.46676 0.84887 0.0
C928 C 0.59359 0.80917 0.80787 0.0
C929 C 0.5874 0.78337 0.82469 0.0
C930 C 0.58692 0.83482 0.81829 0.0
C931 C 0.57402 0.83471 0.84629 0.0
C932 C 0.5642 0.80767 0.86139 0.0
C933 C 0.57089 0.78223 0.85031 0.0
C934 C 0.59722 0.86302 0.80118 0.0
C935 C 0.54994 0.80649 0.89111 0.0
C936 C 0.61078 0.90712 0.89957 0.0
C937 C 0.58392 0.91876 0.89573 0.0
C938 C 0.60774 0.87988 0.88347 0.0
C939 C 0.57709 0.86387 0.86282 0.0
C940 C 0.55003 0.87573 0.85833 0.0
C941 C 0.55376 0.9031 0.87489 0.0
C942 C 0.63734 0.8681 0.88882 0.0
C943 C 0.51706 0.85934 0.83644 0.0
H944 H 0.60645 0.81044 0.78811 0.0
H945 H 0.56532 0.76214 0.863 0.0
H946 H 0.57821 0.87479 0.80006 0.0
H947 H 0.62179 0.87883 0.81398 0.0
H948 H 0.60036 0.85789 0.77702 0.0
H949 H 0.53801 0.78287 0.89669 0.0
H950 H 0.57078 0.81831 0.91082 0.0
H951 H 0.53084 0.81821 0.88938 0.0
H952 H 0.63429 0.91938 0.91529 0.0
H953 H 0.53278 0.91187 0.87211 0.0
H954 H 0.64576 0.8655 0.86639 0.0
H955 H 0.6294 0.84546 0.89789 0.0
H956 H 0.65934 0.88331 0.90568 0.0
H957 H 0.522 0.85523 0.81274 0.0
H958 H 0.49898 0.87218 0.83467 0.0
H959 H 0.50485 0.83693 0.84469 0.0
C960 C 0.88513 0.17471 0.4317 0.0
C961 C 0.87689 0.17651 0.39945 0.0
C962 C 0.90071 0.15395 0.44338 0.0
C963 C 0.90788 0.13437 0.42226 0.0
C964 C 0.89904 0.13573 0.38967 0.0
C965 C 0.88375 0.15686 0.37867 0.0
C966 C 0.90999 0.15327 0.47831 0.0
C967 C 0.90595 0.11502 0.36643 0.0
C968 C 0.97772 0.10218 0.45178 0.0
C969 C 0.9591 0.07327 0.45895 0.0
C970 C 0.96133 0.12218 0.43961 0.0
C971 C 0.92544 0.113 0.43426 0.0
C972 C 0.90644 0.0836 0.44071 0.0
C973 C 0.9235 0.0641 0.45306 0.0
C974 C 0.98247 0.15337 0.43306 0.0
C975 C 0.86811 0.07294 0.43505 0.0
H976 H 0.88001 0.18999 0.44781 0.0
H977 H 0.87689 0.15786 0.3537 0.0
H978 H 0.89786 0.13025 0.48524 0.0
H979 H 0.93786 0.15874 0.48519 0.0
H980 H 0.9021 0.16958 0.49156 0.0
H981 H 0.89658 0.11835 0.34186 0.0
H982 H 0.93364 0.11908 0.36949 0.0
H983 H 0.89361 0.09108 0.37066 0.0
H984 H 1.00523 0.10952 0.45632 0.0
H985 H 0.90891 0.0418 0.45849 0.0
H986 H 0.97757 0.17073 0.4476 0.0
H987 H 0.9752 0.1572 0.40824 0.0
H988 H 1.01011 0.15682 0.438 0.0
H989 H 0.85936 0.08736 0.44991 0.0
H990 H 0.85707 0.04905 0.44023 0.0
H991 H 0.85801 0.07512 0.41036 0.0
C992 C 0.27528 0.59898 0.13403 0.0
C993 C 0.28659 0.62996 0.14367 0.0
C994 C 0.24215 0.58438 0.11754 0.0
C995 C 0.21975 0.60115 0.11075 0.0
C996 C 0.23076 0.63224 0.1212 0.0
C997 C 0.26411 0.64631 0.13736 0.0
C998 C 0.23157 0.55131 0.10647 0.0
C999 C 0.20745 0.65077 0.11492 0.0
C1000 C 0.14688 0.57629 0.04133 0.0
C1001 C 0.11907 0.56311 0.05587 0.0
C1002 C 0.17994 0.58796 0.05885 0.0
C1003 C 0.18521 0.58663 0.0917 0.0
C1004 C 0.15726 0.57266 0.10638 0.0
C1005 C 0.12451 0.56097 0.08825 0.0
C1006 C 0.20914 0.60221 0.04225 0.0
C1007 C 0.16185 0.57064 0.1413 0.0
H1008 H 0.29272 0.58634 0.13855 0.0
H1009 H 0.27267 0.67017 0.14507 0.0
H1010 H 0.20671 0.53865 0.11264 0.0
H1011 H 0.22846 0.54885 0.08062 0.0
H1012 H 0.25052 0.54075 0.1166 0.0
H1013 H 0.21936 0.67428 0.12594 0.0
H1014 H 0.20034 0.65166 0.08936 0.0
H1015 H 0.18366 0.63999 0.12388 0.0
H1016 H 0.14278 0.5777 1.01625 0.0
H1017 H 0.10305 0.5506 0.09953 0.0
H1018 H 0.2291 0.59163 0.04819 0.0
H1019 H 0.22081 0.62661 0.05018 0.0
H1020 H 0.20104 0.5999 1.01645 0.0
H1021 H 0.18043 0.55892 0.1488 0.0
H1022 H 0.13765 0.55834 0.14898 0.0
H1023 H 0.17226 0.59371 0.15347 0.0
C1024 C 0.33206 0.43524 0.66958 0.0
C1025 C 0.29761 0.43005 0.65728 0.0
C1026 C 0.35757 0.44659 0.6516 0.0
C1027 C 0.34872 0.45292 0.6203 0.0
C1028 C 0.3141 0.44808 0.60779 0.0
C1029 C 0.28908 0.43678 0.62634 0.0
C1030 C 0.39406 0.45133 0.66601 0.0
C1031 C 0.30341 0.45454 0.57462 0.0
C1032 C 0.41936 0.50509 0.58267 0.0
C1033 C 0.42909 0.48441 0.56566 0.0
C1034 C 0.39299 0.49526 0.60003 0.0
C1035 C 0.37565 0.4639 0.60055 0.0
C1036 C 0.38483 0.44294 0.58292 0.0
C1037 C 0.41132 0.45339 0.5658 0.0
C1038 C 0.38418 0.51847 0.6184 0.0
C1039 C 0.36707 0.40934 0.58259 0.0
H1040 H 0.33914 0.42971 0.69316 0.0
H1041 H 0.26274 0.43332 0.61656 0.0
H1042 H 0.40399 0.43655 0.65286 0.0
H1043 H 0.41001 0.47505 0.66448 0.0
H1044 H 0.39699 0.44632 0.69093 0.0
H1045 H 0.27563 0.4502 0.56848 0.0
H1046 H 0.31694 0.47845 0.57116 0.0
H1047 H 0.31051 0.44023 0.55813 0.0
H1048 H 0.43275 0.5291 0.58289 0.0
H1049 H 0.41842 0.43707 0.55286 0.0
H1050 H 0.38938 0.51551 0.64373 0.0
H1051 H 0.3567 0.51521 0.61189 0.0
H1052 H 0.39888 0.542 0.61448 0.0
H1053 H 0.37127 0.4021 0.60655 0.0
H1054 H 0.37621 0.396 0.5668 0.0
H1055 H 0.33928 0.40388 0.57501 0.0
C1056 C 0.72434 0.616 0.87973 0.0
C1057 C 0.71972 0.61521 0.84699 0.0
C1058 C 0.74693 0.60325 0.89653 0.0
C1059 C 0.76564 0.58996 0.88019 0.0
C1060 C 0.75773 0.58563 0.84717 0.0
C1061 C 0.73459 0.5981 0.83093 0.0
C1062 C 0.75349 0.60694 0.93178 0.0
C1063 C 0.77654 0.57091 0.82888 0.0
C1064 C 0.85902 0.60941 0.9138 0.0
C1065 C 0.86098 0.58171 0.92359 0.0
C1066 C 0.82802 0.6123 0.90016 0.0
C1067 C 0.7979 0.58698 0.89677 0.0
C1068 C 0.79934 0.55927 0.90797 0.0
C1069 C 0.83097 0.55687 0.92099 0.0
C1070 C 0.82771 0.64238 0.88865 0.0
C1071 C 0.76792 0.53181 0.9053 0.0
H1072 H 0.71283 0.62894 0.89246 0.0
H1073 H 0.7303 0.59662 0.8056 0.0
H1074 H 0.75669 0.58625 0.94167 0.0
H1075 H 0.77734 0.626 0.94025 0.0
H1076 H 0.73253 0.61183 0.94081 0.0
H1077 H 0.76426 0.56547 0.80387 0.0
H1078 H 0.80291 0.58648 0.83021 0.0
H1079 H 0.77803 0.54984 0.83901 0.0
H1080 H 0.88194 0.62891 0.91649 0.0
H1081 H 0.83225 0.53531 0.92835 0.0
H1082 H 0.81081 0.65094 0.90042 0.0
H1083 H 0.81758 0.63956 0.86316 0.0
H1084 H 0.85341 0.65974 0.893 0.0
H1085 H 0.74512 0.53808 0.90714 0.0
H1086 H 0.7711 0.51642 0.92366 0.0
H1087 H 0.76331 0.5191 0.88224 0.0
C1088 C 0.46715 0.81349 0.12246 0.0
C1089 C 0.47263 0.81452 0.1552 0.0
C1090 C 0.47326 0.84005 0.10685 0.0
C1091 C 0.48586 0.86858 0.12436 0.0
C1092 C 0.4906 0.86977 0.15748 0.0
C1093 C 0.48358 0.84269 0.17252 0.0
C1094 C 0.46721 0.83756 0.07156 0.0
C1095 C 0.50447 0.89963 0.17706 0.0
C1096 C 0.53872 0.93163 0.0821 0.0
C1097 C 0.51593 0.94683 0.07149 0.0
C1098 C 0.52969 0.90706 0.10044 0.0
C1099 C 0.4967 0.89685 0.10787 0.0
C1100 C 0.4737 0.91246 0.09765 0.0
C1101 C 0.48372 0.93748 0.07982 0.0
C1102 C 0.55528 0.89155 0.1112 0.0
C1103 C 0.43813 0.90205 0.10456 0.0
H1104 H 0.45826 0.79172 0.10899 0.0
H1105 H 0.48791 0.84355 0.19782 0.0
H1106 H 0.45141 0.85134 0.06233 0.0
H1107 H 0.49181 0.84654 0.06344 0.0
H1108 H 0.45442 0.81383 0.06139 0.0
H1109 H 0.50423 0.89681 0.2023 0.0
H1110 H 0.531 0.91139 0.17414 0.0
H1111 H 0.48951 0.91448 0.16913 0.0
H1112 H 0.56375 0.93889 0.07592 0.0
H1113 H 0.46599 0.94912 0.07158 0.0
H1114 H 0.54631 0.86823 0.09972 0.0
H1115 H 0.55796 0.88973 0.1368 0.0
H1116 H 0.58068 0.90374 0.10568 0.0
H1117 H 0.42385 0.87931 0.09243 0.0
H1118 H 0.42411 0.91773 0.09686 0.0
H1119 H 0.43879 0.89997 0.12996 0.0
C1120 C 0.1112 0.24067 0.62716 0.0
C1121 C 0.12133 0.24096 0.65959 0.0
C1122 C 0.09648 0.21324 0.60801 0.0
C1123 C 0.09115 0.18526 0.62156 0.0
C1124 C 0.10116 0.18546 0.65432 0.0
C1125 C 0.11627 0.21317 0.67281 0.0
C1126 C 0.0867 0.21421 0.5732 0.0
C1127 C 0.09547 0.15632 0.66997 0.0
C1128 C 0.02162 0.11484 0.57912 0.0
C1129 C 0.04024 0.09868 0.56705 0.0
C1130 C 0.03783 0.14295 0.59662 0.0
C1131 C 0.0737 0.15577 0.60185 0.0
C1132 C 0.09266 0.13991 0.58902 0.0
C1133 C 0.07575 0.11146 0.57203 0.0
C1134 C 1.01648 0.1587 0.60999 0.0
C1135 C 0.13084 0.15292 0.59342 0.0
H1136 H 0.1154 0.26197 0.61664 0.0
H1137 H 0.12374 0.21311 0.69785 0.0
H1138 H 0.09927 0.20143 0.56053 0.0
H1139 H 0.0589 0.20314 0.56573 0.0
H1140 H 0.09376 0.23769 0.56607 0.0
H1141 H 0.10498 0.16025 0.6956 0.0
H1142 H 0.06795 0.14311 0.66576 0.0
H1143 H 0.10843 0.14227 0.65975 0.0
H1144 H 0.99417 0.10523 0.57537 0.0
H1145 H 0.0903 0.09927 0.56254 0.0
H1146 H 0.02124 0.18154 0.60151 0.0
H1147 H 0.02369 0.16173 0.63586 0.0
H1148 H 0.98887 0.1459 0.60363 0.0
H1149 H 0.13855 0.17604 0.58542 0.0
H1150 H 0.14173 0.1388 0.58041 0.0
H1151 H 0.14201 0.15486 0.6186 0.0
C1152 C 0.67471 0.28036 0.40593 0.0
C1153 C 0.70792 0.29939 0.40562 0.0
C1154 C 0.65082 0.29165 0.41584 0.0
C1155 C 0.66045 0.32269 0.42585 0.0
C1156 C 0.69433 0.34175 0.42693 0.0
C1157 C 0.7177 0.32986 0.41677 0.0
C1158 C 0.61497 0.27058 0.41451 0.0
C1159 C 0.70556 0.37495 0.43767 0.0
C1160 C 0.5919 0.35934 0.41785 0.0
C1161 C 0.58585 0.36015 0.4485 0.0
C1162 C 0.61599 0.34702 0.41013 0.0
C1163 C 0.63463 0.3355 0.43373 0.0
C1164 C 0.62857 0.33619 0.4647 0.0
C1165 C 0.60415 0.34844 0.4717 0.0
C1166 C 0.62152 0.34637 0.37675 0.0
C1167 C 0.64814 0.32434 0.4905 0.0
H1168 H 0.66719 0.25668 0.39777 0.0
H1169 H 0.74322 0.34474 0.4163 0.0
H1170 H 0.60724 0.27169 0.43755 0.0
H1171 H 0.59722 0.27774 0.39728 0.0
H1172 H 0.61209 0.24674 0.40777 0.0
H1173 H 0.73333 0.38618 0.4393 0.0
H1174 H 0.69203 0.38653 0.42104 0.0
H1175 H 0.69891 0.378 0.46086 0.0
H1176 H 0.57761 0.36821 0.39986 0.0
H1177 H 0.5999 0.34947 0.49554 0.0
H1178 H 0.61677 0.32276 0.36762 0.0
H1179 H 0.64831 0.35942 0.37575 0.0
H1180 H 0.6047 0.35596 0.36115 0.0
H1181 H 0.64457 0.30025 0.48444 0.0
H1182 H 0.64014 0.3263 0.51332 0.0
H1183 H 0.67569 0.33704 0.49316 0.0
loop_
_geom_bond_atom_site_label_1
_geom_bond_atom_site_label_2
_geom_bond_distance
_geom_bond_site_symmetry_2
_ccdc_geom_bond_type
P0 O11 1.490 . S
P0 C14 1.812 . S
P0 C20 1.803 . S
P0 C26 1.819 . S
H1 C15 0.941 . S
H2 C16 0.939 . S
H3 C18 0.940 . S
H4 C19 0.940 . S
H5 C21 0.939 . S
H6 C22 0.942 . S
H7 C24 0.940 . S
H8 C25 0.939 . S
H9 C27 0.941 . S
H10 C31 0.939 . S
O11 P0 1.490 . S
H12 C28 0.939 . S
H13 C30 0.940 . S
C14 P0 1.812 . S
C14 C15 1.389 . S
C14 C19 1.391 . S
C15 H1 0.941 . S
C15 C14 1.389 . S
C15 C16 1.397 . S
C16 H2 0.939 . S
C16 C15 1.397 . S
C16 C17 1.378 . S
C17 C16 1.378 . S
C17 C18 1.378 . S
C18 H3 0.940 . S
C18 C17 1.378 . S
C18 C19 1.396 . S
C19 H4 0.940 . S
C19 C14 1.391 . S
C19 C18 1.396 . S
C20 P0 1.803 . S
C20 C21 1.378 . S
C20 C25 1.400 . S
C21 H5 0.939 . S
C21 C20 1.378 . S
C21 C22 1.361 . S
C22 H6 0.942 . S
C22 C21 1.361 . S
C22 C23 1.369 . S
C23 C22 1.369 . S
C23 C24 1.404 . S
C24 H7 0.940 . S
C24 C23 1.404 . S
C24 C25 1.389 . S
C25 H8 0.939 . S
C25 C20 1.400 . S
C25 C24 1.389 . S
C26 P0 1.819 . S
C26 C27 1.391 . S
C26 C31 1.391 . S
C27 H9 0.941 . S
C27 C26 1.391 . S
C27 C28 1.396 . S
C28 H12 0.939 . S
C28 C27 1.396 . S
C28 C29 1.397 . S
C29 C28 1.397 . S
C29 C30 1.385 . S
C30 H13 0.940 . S
C30 C29 1.385 . S
C30 C31 1.388 . S
C31 H10 0.939 . S
C31 C26 1.391 . S
C31 C30 1.388 . S
P32 O43 1.490 . S
P32 C46 1.812 . S
P32 C52 1.803 . S
P32 C58 1.819 . S
H33 C47 0.941 . S
H34 C48 0.939 . S
H35 C50 0.940 . S
H36 C51 0.940 . S
H37 C53 0.939 . S
H38 C54 0.942 . S
H39 C56 0.940 . S
H40 C57 0.939 . S
H41 C59 0.941 . S
H42 C63 0.939 . S
O43 P32 1.490 . S
H44 C60 0.939 . S
H45 C62 0.940 . S
C46 P32 1.812 . S
C46 C47 1.389 . S
C46 C51 1.391 . S
C47 H33 0.941 . S
C47 C46 1.389 . S
C47 C48 1.397 . S
C48 H34 0.939 . S
C48 C47 1.397 . S
C48 C49 1.378 . S
C49 C48 1.378 . S
C49 C50 1.378 . S
C50 H35 0.940 . S
C50 C49 1.378 . S
C50 C51 1.396 . S
C51 H36 0.940 . S
C51 C46 1.391 . S
C51 C50 1.396 . S
C52 P32 1.803 . S
C52 C53 1.378 . S
C52 C57 1.400 . S
C53 H37 0.939 . S
C53 C52 1.378 . S
C53 C54 1.361 . S
C54 H38 0.942 . S
C54 C53 1.361 . S
C54 C55 1.369 . S
C55 C54 1.369 . S
C55 C56 1.404 . S
C56 H39 0.940 . S
C56 C55 1.404 . S
C56 C57 1.389 . S
C57 H40 0.939 . S
C57 C52 1.400 . S
C57 C56 1.389 . S
C58 P32 1.819 . S
C58 C59 1.391 . S
C58 C63 1.391 . S
C59 H41 0.941 . S
C59 C58 1.391 . S
C59 C60 1.396 . S
C60 H44 0.939 . S
C60 C59 1.396 . S
C60 C61 1.397 . S
C61 C60 1.397 . S
C61 C62 1.385 . S
C62 H45 0.940 . S
C62 C61 1.385 . S
C62 C63 1.388 . S
C63 H42 0.939 . S
C63 C58 1.391 . S
C63 C62 1.388 . S
P64 O75 1.490 . S
P64 C78 1.812 . S
P64 C84 1.803 . S
P64 C90 1.819 . S
H65 C79 0.941 . S
H66 C80 0.939 . S
H67 C82 0.940 . S
H68 C83 0.940 . S
H69 C85 0.939 . S
H70 C86 0.942 . S
H71 C88 0.940 . S
H72 C89 0.939 . S
H73 C91 0.941 . S
H74 C95 0.939 . S
O75 P64 1.490 . S
H76 C92 0.939 . S
H77 C94 0.940 . S
C78 P64 1.812 . S
C78 C79 1.389 . S
C78 C83 1.391 . S
C79 H65 0.941 . S
C79 C78 1.389 . S
C79 C80 1.397 . S
C80 H66 0.939 . S
C80 C79 1.397 . S
C80 C81 1.378 . S
C81 C80 1.378 . S
C81 C82 1.378 . S
C82 H67 0.940 . S
C82 C81 1.378 . S
C82 C83 1.396 . S
C83 H68 0.940 . S
C83 C78 1.391 . S
C83 C82 1.396 . S
C84 P64 1.803 . S
C84 C85 1.378 . S
C84 C89 1.400 . S
C85 H69 0.939 . S
C85 C84 1.378 . S
C85 C86 1.361 . S
C86 H70 0.942 . S
C86 C85 1.361 . S
C86 C87 1.369 . S
C87 C86 1.369 . S
C87 C88 1.404 . S
C88 H71 0.940 . S
C88 C87 1.404 . S
C88 C89 1.389 . S
C89 H72 0.939 . S
C89 C84 1.400 . S
C89 C88 1.389 . S
C90 P64 1.819 . S
C90 C91 1.391 . S
C90 C95 1.391 . S
C91 H73 0.941 . S
C91 C90 1.391 . S
C91 C92 1.396 . S
C92 H76 0.939 . S
C92 C91 1.396 . S
C92 C93 1.397 . S
C93 C92 1.397 . S
C93 C94 1.385 . S
C94 H77 0.940 . S
C94 C93 1.385 . S
C94 C95 1.388 . S
C95 H74 0.939 . S
C95 C90 1.391 . S
C95 C94 1.388 . S
P96 O107 1.490 . S
P96 C110 1.812 . S
P96 C116 1.803 . S
P96 C122 1.819 . S
H97 C111 0.941 . S
H98 C112 0.939 . S
H99 C114 0.940 . S
H100 C115 0.940 . S
H101 C117 0.939 . S
H102 C118 0.942 . S
H103 C120 0.940 . S
H104 C121 0.939 . S
H105 C123 0.941 . S
H106 C127 0.939 . S
O107 P96 1.490 . S
H108 C124 0.939 . S
H109 C126 0.940 . S
C110 P96 1.812 . S
C110 C111 1.389 . S
C110 C115 1.391 . S
C111 H97 0.941 . S
C111 C110 1.389 . S
C111 C112 1.397 . S
C112 H98 0.939 . S
C112 C111 1.397 . S
C112 C113 1.378 . S
C113 C112 1.378 . S
C113 C114 1.378 . S
C114 H99 0.940 . S
C114 C113 1.378 . S
C114 C115 1.396 . S
C115 H100 0.940 . S
C115 C110 1.391 . S
C115 C114 1.396 . S
C116 P96 1.803 . S
C116 C117 1.378 . S
C116 C121 1.400 . S
C117 H101 0.939 . S
C117 C116 1.378 . S
C117 C118 1.361 . S
C118 H102 0.942 . S
C118 C117 1.361 . S
C118 C119 1.369 . S
C119 C118 1.369 . S
C119 C120 1.404 . S
C120 H103 0.940 . S
C120 C119 1.404 . S
C120 C121 1.389 . S
C121 H104 0.939 . S
C121 C116 1.400 . S
C121 C120 1.389 . S
C122 P96 1.819 . S
C122 C123 1.391 . S
C122 C127 1.391 . S
C123 H105 0.941 . S
C123 C122 1.391 . S
C123 C124 1.396 . S
C124 H108 0.939 . S
C124 C123 1.396 . S
C124 C125 1.397 . S
C125 C124 1.397 . S
C125 C126 1.385 . S
C126 H109 0.940 . S
C126 C125 1.385 . S
C126 C127 1.388 . S
C127 H106 0.939 . S
C127 C122 1.391 . S
C127 C126 1.388 . S
P128 O139 1.490 . S
P128 C142 1.812 . S
P128 C148 1.803 . S
P128 C154 1.819 . S
H129 C143 0.941 . S
H130 C144 0.939 . S
H131 C146 0.940 . S
H132 C147 0.940 . S
H133 C149 0.939 . S
H134 C150 0.942 . S
H135 C152 0.940 . S
H136 C153 0.939 . S
H137 C155 0.941 . S
H138 C159 0.939 . S
O139 P128 1.490 . S
H140 C156 0.939 . S
H141 C158 0.940 . S
C142 P128 1.812 . S
C142 C143 1.389 . S
C142 C147 1.391 . S
C143 H129 0.941 . S
C143 C142 1.389 . S
C143 C144 1.397 . S
C144 H130 0.939 . S
C144 C143 1.397 . S
C144 C145 1.378 . S
C145 C144 1.378 . S
C145 C146 1.378 . S
C146 H131 0.940 . S
C146 C145 1.378 . S
C146 C147 1.396 . S
C147 H132 0.940 . S
C147 C142 1.391 . S
C147 C146 1.396 . S
C148 P128 1.803 . S
C148 C149 1.378 . S
C148 C153 1.400 . S
C149 H133 0.939 . S
C149 C148 1.378 . S
C149 C150 1.361 . S
C150 H134 0.942 . S
C150 C149 1.361 . S
C150 C151 1.369 . S
C151 C150 1.369 . S
C151 C152 1.404 . S
C152 H135 0.940 . S
C152 C151 1.404 . S
C152 C153 1.389 . S
C153 H136 0.939 . S
C153 C148 1.400 . S
C153 C152 1.389 . S
C154 P128 1.819 . S
C154 C155 1.391 . S
C154 C159 1.391 . S
C155 H137 0.941 . S
C155 C154 1.391 . S
C155 C156 1.396 . S
C156 H140 0.939 . S
C156 C155 1.396 . S
C156 C157 1.397 . S
C157 C156 1.397 . S
C157 C158 1.385 . S
C158 H141 0.940 . S
C158 C157 1.385 . S
C158 C159 1.388 . S
C159 H138 0.939 . S
C159 C154 1.391 . S
C159 C158 1.388 . S
P160 O171 1.490 . S
P160 C174 1.812 . S
P160 C180 1.803 . S
P160 C186 1.819 . S
H161 C175 0.941 . S
H162 C176 0.939 . S
H163 C178 0.940 . S
H164 C179 0.940 . S
H165 C181 0.939 . S
H166 C182 0.942 . S
H167 C184 0.940 . S
H168 C185 0.939 . S
H169 C187 0.941 . S
H170 C191 0.939 . S
O171 P160 1.490 . S
H172 C188 0.939 . S
H173 C190 0.940 . S
C174 P160 1.812 . S
C174 C175 1.389 . S
C174 C179 1.391 . S
C175 H161 0.941 . S
C175 C174 1.389 . S
C175 C176 1.397 . S
C176 H162 0.939 . S
C176 C175 1.397 . S
C176 C177 1.378 . S
C177 C176 1.378 . S
C177 C178 1.378 . S
C178 H163 0.940 . S
C178 C177 1.378 . S
C178 C179 1.396 . S
C179 H164 0.940 . S
C179 C174 1.391 . S
C179 C178 1.396 . S
C180 P160 1.803 . S
C180 C181 1.378 . S
C180 C185 1.400 . S
C181 H165 0.939 . S
C181 C180 1.378 . S
C181 C182 1.361 . S
C182 H166 0.942 . S
C182 C181 1.361 . S
C182 C183 1.369 . S
C183 C182 1.369 . S
C183 C184 1.404 . S
C184 H167 0.940 . S
C184 C183 1.404 . S
C184 C185 1.389 . S
C185 H168 0.939 . S
C185 C180 1.400 . S
C185 C184 1.389 . S
C186 P160 1.819 . S
C186 C187 1.391 . S
C186 C191 1.391 . S
C187 H169 0.941 . S
C187 C186 1.391 . S
C187 C188 1.396 . S
C188 H172 0.939 . S
C188 C187 1.396 . S
C188 C189 1.397 . S
C189 C188 1.397 . S
C189 C190 1.385 . S
C190 H173 0.940 . S
C190 C189 1.385 . S
C190 C191 1.388 . S
C191 H170 0.939 . S
C191 C186 1.391 . S
C191 C190 1.388 . S
P192 O203 1.490 . S
P192 C206 1.812 . S
P192 C212 1.803 . S
P192 C218 1.819 . S
H193 C207 0.941 . S
H194 C208 0.939 . S
H195 C210 0.940 . S
H196 C211 0.940 . S
H197 C213 0.939 . S
H198 C214 0.942 . S
H199 C216 0.940 . S
H200 C217 0.939 . S
H201 C219 0.941 . S
H202 C223 0.939 . S
O203 P192 1.490 . S
H204 C220 0.939 . S
H205 C222 0.940 . S
C206 P192 1.812 . S
C206 C207 1.389 . S
C206 C211 1.391 . S
C207 H193 0.941 . S
C207 C206 1.389 . S
C207 C208 1.397 . S
C208 H194 0.939 . S
C208 C207 1.397 . S
C208 C209 1.378 . S
C209 C208 1.378 . S
C209 C210 1.378 . S
C210 H195 0.940 . S
C210 C209 1.378 . S
C210 C211 1.396 . S
C211 H196 0.940 . S
C211 C206 1.391 . S
C211 C210 1.396 . S
C212 P192 1.803 . S
C212 C213 1.378 . S
C212 C217 1.400 . S
C213 H197 0.939 . S
C213 C212 1.378 . S
C213 C214 1.361 . S
C214 H198 0.942 . S
C214 C213 1.361 . S
C214 C215 1.369 . S
C215 C214 1.369 . S
C215 C216 1.404 . S
C216 H199 0.940 . S
C216 C215 1.404 . S
C216 C217 1.389 . S
C217 H200 0.939 . S
C217 C212 1.400 . S
C217 C216 1.389 . S
C218 P192 1.819 . S
C218 C219 1.391 . S
C218 C223 1.391 . S
C219 H201 0.941 . S
C219 C218 1.391 . S
C219 C220 1.396 . S
C220 H204 0.939 . S
C220 C219 1.396 . S
C220 C221 1.397 . S
C221 C220 1.397 . S
C221 C222 1.385 . S
C222 H205 0.940 . S
C222 C221 1.385 . S
C222 C223 1.388 . S
C223 H202 0.939 . S
C223 C218 1.391 . S
C223 C222 1.388 . S
P224 O235 1.490 . S
P224 C238 1.812 . S
P224 C244 1.803 . S
P224 C250 1.819 . S
H225 C239 0.941 . S
H226 C240 0.939 . S
H227 C242 0.940 . S
H228 C243 0.940 . S
H229 C245 0.939 . S
H230 C246 0.942 . S
H231 C248 0.940 . S
H232 C249 0.939 . S
H233 C251 0.941 . S
H234 C255 0.939 . S
O235 P224 1.490 . S
H236 C252 0.939 . S
H237 C254 0.940 . S
C238 P224 1.812 . S
C238 C239 1.389 . S
C238 C243 1.391 . S
C239 H225 0.941 . S
C239 C238 1.389 . S
C239 C240 1.397 . S
C240 H226 0.939 . S
C240 C239 1.397 . S
C240 C241 1.378 . S
C241 C240 1.378 . S
C241 C242 1.378 . S
C242 H227 0.940 . S
C242 C241 1.378 . S
C242 C243 1.396 . S
C243 H228 0.940 . S
C243 C238 1.391 . S
C243 C242 1.396 . S
C244 P224 1.803 . S
C244 C245 1.378 . S
C244 C249 1.400 . S
C245 H229 0.939 . S
C245 C244 1.378 . S
C245 C246 1.361 . S
C246 H230 0.942 . S
C246 C245 1.361 . S
C246 C247 1.369 . S
C247 C246 1.369 . S
C247 C248 1.404 . S
C248 H231 0.940 . S
C248 C247 1.404 . S
C248 C249 1.389 . S
C249 H232 0.939 . S
C249 C244 1.400 . S
C249 C248 1.389 . S
C250 P224 1.819 . S
C250 C251 1.391 . S
C250 C255 1.391 . S
C251 H233 0.941 . S
C251 C250 1.391 . S
C251 C252 1.396 . S
C252 H236 0.939 . S
C252 C251 1.396 . S
C252 C253 1.397 . S
C253 C252 1.397 . S
C253 C254 1.385 . S
C254 H237 0.940 . S
C254 C253 1.385 . S
C254 C255 1.388 . S
C255 H234 0.939 . S
C255 C250 1.391 . S
C255 C254 1.388 . S
Pr256 C258 2.880 . S
Pr256 O276 2.562 . S
Pr256 O277 2.490 . S
Pr256 O278 2.695 1_665 S
Pr256 O279 2.512 1_665 S
Pr256 O281 2.437 1_655 S
Pr256 O284 2.436 . S
Pr256 O286 2.438 1_565 S
Pr257 C267 2.880 . S
Pr257 O278 2.436 . S
Pr257 O280 2.438 1_545 S
Pr257 O282 2.562 . S
Pr257 O283 2.490 . S
Pr257 O284 2.695 1_445 S
Pr257 O285 2.512 1_545 S
Pr257 O287 2.437 1_455 S
C258 Pr256 2.880 . S
C258 C259 1.491 . S
C258 O276 1.254 . S
C258 O277 1.225 . S
C259 C258 1.491 . S
C259 C260 1.392 . S
C259 C264 1.356 . S
C260 C259 1.392 . S
C260 C261 1.368 . S
C260 H288 0.929 . S
C261 C260 1.368 . S
C261 C262 1.386 . S
C261 H289 0.929 . S
C262 C261 1.386 . S
C262 C263 1.373 . S
C263 C262 1.373 . S
C263 C264 1.409 . S
C263 H290 0.931 . S
C264 C259 1.356 . S
C264 C263 1.409 . S
C264 H291 0.930 . S
C265 O278 1.270 . S
C265 O279 1.248 . S
C266 O280 1.267 . S
C266 O281 1.278 . S
C267 Pr257 2.880 . S
C267 C268 1.491 . S
C267 O282 1.254 . S
C267 O283 1.225 . S
C268 C267 1.491 . S
C268 C269 1.392 . S
C268 C273 1.356 . S
C269 C268 1.392 . S
C269 C270 1.368 . S
C269 H292 0.929 . S
C270 C269 1.368 . S
C270 C271 1.386 . S
C270 H293 0.929 . S
C271 C270 1.386 . S
C271 C272 1.373 . S
C272 C271 1.373 . S
C272 C273 1.409 . S
C272 H294 0.931 . S
C273 C268 1.356 . S
C273 C272 1.409 . S
C273 H295 0.930 . S
C274 O284 1.270 . S
C274 O285 1.248 1_655 S
C275 O286 1.267 . S
C275 O287 1.278 . S
O276 Pr256 2.562 . S
O276 C258 1.254 . S
O277 Pr256 2.490 . S
O277 C258 1.225 . S
O278 Pr256 2.695 1_445 S
O278 Pr257 2.436 . S
O278 C265 1.270 . S
O279 Pr256 2.512 1_445 S
O279 C265 1.248 . S
O280 Pr257 2.438 1_565 S
O280 C266 1.267 . S
O281 Pr256 2.437 1_455 S
O281 C266 1.278 . S
O282 Pr257 2.562 . S
O282 C267 1.254 . S
O283 Pr257 2.490 . S
O283 C267 1.225 . S
O284 Pr256 2.436 . S
O284 Pr257 2.695 1_665 S
O284 C274 1.270 . S
O285 Pr257 2.512 1_565 S
O285 C274 1.248 1_455 S
O286 Pr256 2.438 1_545 S
O286 C275 1.267 . S
O287 Pr257 2.437 1_655 S
O287 C275 1.278 . S
H288 C260 0.929 . S
H289 C261 0.929 . S
H290 C263 0.931 . S
H291 C264 0.930 . S
H292 C269 0.929 . S
H293 C270 0.929 . S
H294 C272 0.931 . S
H295 C273 0.930 . S
Pr296 C298 2.880 . S
Pr296 O316 2.562 . S
Pr296 O317 2.490 . S
Pr296 O318 2.695 1_554 S
Pr296 O319 2.512 1_554 S
Pr296 O321 2.437 . S
Pr296 O324 2.436 1_545 S
Pr296 O326 2.438 1_544 S
Pr297 C307 2.880 1_554 S
Pr297 O318 2.436 1_564 S
Pr297 O320 2.438 1_565 S
Pr297 O322 2.562 1_554 S
Pr297 O323 2.490 1_554 S
Pr297 O324 2.695 . S
Pr297 O325 2.512 . S
Pr297 O327 2.437 1_554 S
C298 Pr296 2.880 . S
C298 C299 1.491 . S
C298 O316 1.254 . S
C298 O317 1.225 . S
C299 C298 1.491 . S
C299 C300 1.392 . S
C299 C304 1.356 . S
C300 C299 1.392 . S
C300 C301 1.368 . S
C300 H328 0.929 . S
C301 C300 1.368 . S
C301 C302 1.386 . S
C301 H329 0.929 . S
C302 C301 1.386 . S
C302 C303 1.373 . S
C303 C302 1.373 . S
C303 C304 1.409 . S
C303 H330 0.931 . S
C304 C299 1.356 . S
C304 C303 1.409 . S
C304 H331 0.930 . S
C305 O318 1.270 . S
C305 O319 1.248 . S
C306 O320 1.267 . S
C306 O321 1.278 . S
C307 Pr297 2.880 1_556 S
C307 C308 1.491 . S
C307 O322 1.254 . S
C307 O323 1.225 . S
C308 C307 1.491 . S
C308 C309 1.392 . S
C308 C313 1.356 . S
C309 C308 1.392 . S
C309 C310 1.368 . S
C309 H332 0.929 . S
C310 C309 1.368 . S
C310 C311 1.386 . S
C310 H333 0.929 . S
C311 C310 1.386 . S
C311 C312 1.373 . S
C312 C311 1.373 . S
C312 C313 1.409 . S
C312 H334 0.931 . S
C313 C308 1.356 . S
C313 C312 1.409 . S
C313 H335 0.930 . S
C314 O324 1.270 . S
C314 O325 1.248 . S
C315 O326 1.267 . S
C315 O327 1.278 . S
O316 Pr296 2.562 . S
O316 C298 1.254 . S
O317 Pr296 2.490 . S
O317 C298 1.225 . S
O318 Pr296 2.695 1_556 S
O318 Pr297 2.436 1_546 S
O318 C305 1.270 . S
O319 Pr296 2.512 1_556 S
O319 C305 1.248 . S
O320 Pr297 2.438 1_545 S
O320 C306 1.267 . S
O321 Pr296 2.437 . S
O321 C306 1.278 . S
O322 Pr297 2.562 1_556 S
O322 C307 1.254 . S
O323 Pr297 2.490 1_556 S
O323 C307 1.225 . S
O324 Pr296 2.436 1_565 S
O324 Pr297 2.695 . S
O324 C314 1.270 . S
O325 Pr297 2.512 . S
O325 C314 1.248 . S
O326 Pr296 2.438 1_566 S
O326 C315 1.267 . S
O327 Pr297 2.437 1_556 S
O327 C315 1.278 . S
H328 C300 0.929 . S
H329 C301 0.929 . S
H330 C303 0.931 . S
H331 C304 0.930 . S
H332 C309 0.929 . S
H333 C310 0.929 . S
H334 C312 0.931 . S
H335 C313 0.930 . S
Pr336 C338 2.880 . S
Pr336 O356 2.562 . S
Pr336 O357 2.490 . S
Pr336 O358 2.695 . S
Pr336 O359 2.512 . S
Pr336 O361 2.437 . S
Pr336 O364 2.436 . S
Pr336 O366 2.438 . S
Pr337 C347 2.880 . S
Pr337 O358 2.436 . S
Pr337 O360 2.438 . S
Pr337 O362 2.562 . S
Pr337 O363 2.490 . S
Pr337 O364 2.695 . S
Pr337 O365 2.512 . S
Pr337 O367 2.437 . S
C338 Pr336 2.880 . S
C338 C339 1.491 . S
C338 O356 1.254 . S
C338 O357 1.225 . S
C339 C338 1.491 . S
C339 C340 1.392 . S
C339 C344 1.356 . S
C340 C339 1.392 . S
C340 C341 1.368 . S
C340 H368 0.929 . S
C341 C340 1.368 . S
C341 C342 1.386 . S
C341 H369 0.929 . S
C342 C341 1.386 . S
C342 C343 1.373 . S
C343 C342 1.373 . S
C343 C344 1.409 . S
C343 H370 0.931 . S
C344 C339 1.356 . S
C344 C343 1.409 . S
C344 H371 0.930 . S
C345 O358 1.270 . S
C345 O359 1.248 . S
C346 O360 1.267 . S
C346 O361 1.278 . S
C347 Pr337 2.880 . S
C347 C348 1.491 . S
C347 O362 1.254 . S
C347 O363 1.225 . S
C348 C347 1.491 . S
C348 C349 1.392 . S
C348 C353 1.356 . S
C349 C348 1.392 . S
C349 C350 1.368 . S
C349 H372 0.929 . S
C350 C349 1.368 . S
C350 C351 1.386 . S
C350 H373 0.929 . S
C351 C350 1.386 . S
C351 C352 1.373 . S
C352 C351 1.373 . S
C352 C353 1.409 . S
C352 H374 0.931 . S
C353 C348 1.356 . S
C353 C352 1.409 . S
C353 H375 0.930 . S
C354 O364 1.270 . S
C354 O365 1.248 . S
C355 O366 1.267 . S
C355 O367 1.278 . S
O356 Pr336 2.562 . S
O356 C338 1.254 . S
O357 Pr336 2.490 . S
O357 C338 1.225 . S
O358 Pr336 2.695 . S
O358 Pr337 2.436 . S
O358 C345 1.270 . S
O359 Pr336 2.512 . S
O359 C345 1.248 . S
O360 Pr337 2.438 . S
O360 C346 1.267 . S
O361 Pr336 2.437 . S
O361 C346 1.278 . S
O362 Pr337 2.562 . S
O362 C347 1.254 . S
O363 Pr337 2.490 . S
O363 C347 1.225 . S
O364 Pr336 2.436 . S
O364 Pr337 2.695 . S
O364 C354 1.270 . S
O365 Pr337 2.512 . S
O365 C354 1.248 . S
O366 Pr336 2.438 . S
O366 C355 1.267 . S
O367 Pr337 2.437 . S
O367 C355 1.278 . S
H368 C340 0.929 . S
H369 C341 0.929 . S
H370 C343 0.931 . S
H371 C344 0.930 . S
H372 C349 0.929 . S
H373 C350 0.929 . S
H374 C352 0.931 . S
H375 C353 0.930 . S
Pr376 C378 2.901 . S
Pr376 O396 2.589 . S
Pr376 O397 2.502 . S
Pr376 O398 2.681 1_656 S
Pr376 O399 2.497 1_656 S
Pr376 O401 2.452 1_556 S
Pr376 O404 2.445 . S
Pr376 O406 2.416 1_655 S
Pr377 C387 2.880 . S
Pr377 O398 2.436 . S
Pr377 O400 2.438 1_455 S
Pr377 O402 2.562 . S
Pr377 O403 2.490 . S
Pr377 O404 2.695 1_454 S
Pr377 O405 2.512 1_454 S
Pr377 O407 2.437 1_554 S
C378 Pr376 2.901 . S
C378 C379 1.491 . S
C378 O396 1.254 . S
C378 O397 1.225 . S
C379 C378 1.491 . S
C379 C380 1.392 . S
C379 C384 1.356 . S
C380 C379 1.392 . S
C380 C381 1.368 . S
C380 H408 0.929 . S
C381 C380 1.368 . S
C381 C382 1.386 . S
C381 H409 0.929 . S
C382 C381 1.386 . S
C382 C383 1.373 . S
C383 C382 1.373 . S
C383 C384 1.409 . S
C383 H410 0.931 . S
C384 C379 1.356 . S
C384 C383 1.409 . S
C384 H411 0.930 . S
C385 O398 1.270 . S
C385 O399 1.248 . S
C386 O400 1.267 . S
C386 O401 1.278 . S
C387 Pr377 2.880 . S
C387 C388 1.491 . S
C387 O402 1.254 . S
C387 O403 1.225 . S
C388 C387 1.491 . S
C388 C389 1.392 . S
C388 C393 1.356 . S
C389 C388 1.392 . S
C389 C390 1.368 . S
C389 H412 0.929 . S
C390 C389 1.368 . S
C390 C391 1.386 . S
C390 H413 0.929 . S
C391 C390 1.386 . S
C391 C392 1.373 . S
C392 C391 1.373 . S
C392 C393 1.409 . S
C392 H414 0.931 . S
C393 C388 1.356 . S
C393 C392 1.409 . S
C393 H415 0.930 . S
C394 O404 1.270 . S
C394 O405 1.248 . S
C395 O406 1.267 . S
C395 O407 1.278 . S
O396 Pr376 2.589 . S
O396 C378 1.254 . S
O397 Pr376 2.502 . S
O397 C378 1.225 . S
O398 Pr376 2.681 1_454 S
O398 Pr377 2.436 . S
O398 C385 1.270 . S
O399 Pr376 2.497 1_454 S
O399 C385 1.248 . S
O400 Pr377 2.438 1_655 S
O400 C386 1.267 . S
O401 Pr376 2.452 1_554 S
O401 C386 1.278 . S
O402 Pr377 2.562 . S
O402 C387 1.254 . S
O403 Pr377 2.490 . S
O403 C387 1.225 . S
O404 Pr376 2.445 . S
O404 Pr377 2.695 1_656 S
O404 C394 1.270 . S
O405 Pr377 2.512 1_656 S
O405 C394 1.248 . S
O406 Pr376 2.416 1_455 S
O406 C395 1.267 . S
O407 Pr377 2.437 1_556 S
O407 C395 1.278 . S
H408 C380 0.929 . S
H409 C381 0.929 . S
H410 C383 0.931 . S
H411 C384 0.930 . S
H412 C389 0.929 . S
H413 C390 0.929 . S
H414 C392 0.931 . S
H415 C393 0.930 . S
C416 C417 1.391 . S
C416 C418 1.394 . S
C416 H432 0.931 . S
C417 C416 1.391 . S
C417 C421 1.376 . S
C418 C416 1.394 . S
C418 C419 1.369 . S
C418 C422 1.531 . S
C419 C418 1.369 . S
C419 C420 1.410 . S
C419 C427 1.503 . S
C420 C419 1.410 . S
C420 C421 1.392 . S
C420 C423 1.511 . S
C421 C417 1.376 . S
C421 C420 1.392 . S
C421 H433 0.929 . S
C422 C418 1.531 . S
C422 H434 0.960 . S
C422 H435 0.962 . S
C422 H436 0.960 . S
C423 C420 1.511 . S
C423 H437 0.961 . S
C423 H438 0.961 . S
C423 H439 0.961 . S
C424 C425 1.370 . S
C424 C426 1.363 . S
C424 H440 0.931 . S
C425 C424 1.370 . S
C425 C429 1.408 . S
C426 C424 1.363 . S
C426 C427 1.370 . S
C426 C430 1.524 . S
C427 C419 1.503 . S
C427 C426 1.370 . S
C427 C428 1.403 . S
C428 C427 1.403 . S
C428 C429 1.404 . S
C428 C431 1.539 . S
C429 C425 1.408 . S
C429 C428 1.404 . S
C429 H441 0.930 . S
C430 C426 1.524 . S
C430 H442 0.956 . S
C430 H443 0.961 . S
C430 H444 0.961 . S
C431 C428 1.539 . S
C431 H445 0.958 . S
C431 H446 0.961 . S
C431 H447 0.960 . S
H432 C416 0.931 . S
H433 C421 0.929 . S
H434 C422 0.960 . S
H435 C422 0.962 . S
H436 C422 0.960 . S
H437 C423 0.961 . S
H438 C423 0.961 . S
H439 C423 0.961 . S
H440 C424 0.931 . S
H441 C429 0.930 . S
H442 C430 0.956 . S
H443 C430 0.961 . S
H444 C430 0.961 . S
H445 C431 0.958 . S
H446 C431 0.961 . S
H447 C431 0.960 . S
C448 C449 1.391 . S
C448 C450 1.394 . S
C448 H464 0.931 . S
C449 C448 1.391 . S
C449 C453 1.376 . S
C450 C448 1.394 . S
C450 C451 1.369 . S
C450 C454 1.531 . S
C451 C450 1.369 . S
C451 C452 1.410 . S
C451 C459 1.503 . S
C452 C451 1.410 . S
C452 C453 1.392 . S
C452 C455 1.511 . S
C453 C449 1.376 . S
C453 C452 1.392 . S
C453 H465 0.929 . S
C454 C450 1.531 . S
C454 H466 0.960 . S
C454 H467 0.962 . S
C454 H468 0.960 . S
C455 C452 1.511 . S
C455 H469 0.961 . S
C455 H470 0.961 . S
C455 H471 0.961 . S
C456 C457 1.370 . S
C456 C458 1.363 . S
C456 H472 0.931 . S
C457 C456 1.370 . S
C457 C461 1.408 . S
C458 C456 1.363 . S
C458 C459 1.370 . S
C458 C462 1.524 . S
C459 C451 1.503 . S
C459 C458 1.370 . S
C459 C460 1.403 . S
C460 C459 1.403 . S
C460 C461 1.404 . S
C460 C463 1.539 . S
C461 C457 1.408 . S
C461 C460 1.404 . S
C461 H473 0.930 . S
C462 C458 1.524 . S
C462 H474 0.956 . S
C462 H475 0.961 . S
C462 H476 0.961 . S
C463 C460 1.539 . S
C463 H477 0.958 . S
C463 H478 0.961 . S
C463 H479 0.960 . S
H464 C448 0.931 . S
H465 C453 0.929 . S
H466 C454 0.960 . S
H467 C454 0.962 . S
H468 C454 0.960 . S
H469 C455 0.961 . S
H470 C455 0.961 . S
H471 C455 0.961 . S
H472 C456 0.931 . S
H473 C461 0.930 . S
H474 C462 0.956 . S
H475 C462 0.961 . S
H476 C462 0.961 . S
H477 C463 0.958 . S
H478 C463 0.961 . S
H479 C463 0.960 . S
C480 C481 1.391 . S
C480 C482 1.394 . S
C480 H496 0.931 . S
C481 C480 1.391 . S
C481 C485 1.376 . S
C482 C480 1.394 . S
C482 C483 1.369 . S
C482 C486 1.531 . S
C483 C482 1.369 . S
C483 C484 1.410 . S
C483 C491 1.503 . S
C484 C483 1.410 . S
C484 C485 1.392 . S
C484 C487 1.511 . S
C485 C481 1.376 . S
C485 C484 1.392 . S
C485 H497 0.929 . S
C486 C482 1.531 . S
C486 H498 0.960 . S
C486 H499 0.962 . S
C486 H500 0.960 . S
C487 C484 1.511 . S
C487 H501 0.961 . S
C487 H502 0.961 . S
C487 H503 0.961 . S
C488 C489 1.370 . S
C488 C490 1.363 . S
C488 H504 0.931 . S
C489 C488 1.370 . S
C489 C493 1.408 . S
C490 C488 1.363 . S
C490 C491 1.370 . S
C490 C494 1.524 . S
C491 C483 1.503 . S
C491 C490 1.370 . S
C491 C492 1.403 . S
C492 C491 1.403 . S
C492 C493 1.404 . S
C492 C495 1.539 . S
C493 C489 1.408 . S
C493 C492 1.404 . S
C493 H505 0.930 . S
C494 C490 1.524 . S
C494 H506 0.956 . S
C494 H507 0.961 . S
C494 H508 0.961 . S
C495 C492 1.539 . S
C495 H509 0.958 . S
C495 H510 0.961 . S
C495 H511 0.960 . S
H496 C480 0.931 . S
H497 C485 0.929 . S
H498 C486 0.960 . S
H499 C486 0.962 . S
H500 C486 0.960 . S
H501 C487 0.961 . S
H502 C487 0.961 . S
H503 C487 0.961 . S
H504 C488 0.931 . S
H505 C493 0.930 . S
H506 C494 0.956 . S
H507 C494 0.961 . S
H508 C494 0.961 . S
H509 C495 0.958 . S
H510 C495 0.961 . S
H511 C495 0.960 . S
C512 C513 1.391 . S
C512 C514 1.394 . S
C512 H528 0.931 . S
C513 C512 1.391 . S
C513 C517 1.376 . S
C514 C512 1.394 . S
C514 C515 1.369 . S
C514 C518 1.531 . S
C515 C514 1.369 . S
C515 C516 1.410 . S
C515 C523 1.503 . S
C516 C515 1.410 . S
C516 C517 1.392 . S
C516 C519 1.511 . S
C517 C513 1.376 . S
C517 C516 1.392 . S
C517 H529 0.929 . S
C518 C514 1.531 . S
C518 H530 0.960 . S
C518 H531 0.962 . S
C518 H532 0.960 . S
C519 C516 1.511 . S
C519 H533 0.961 . S
C519 H534 0.961 . S
C519 H535 0.961 . S
C520 C521 1.370 . S
C520 C522 1.363 . S
C520 H536 0.931 . S
C521 C520 1.370 . S
C521 C525 1.408 . S
C522 C520 1.363 . S
C522 C523 1.370 . S
C522 C526 1.524 . S
C523 C515 1.503 . S
C523 C522 1.370 . S
C523 C524 1.403 . S
C524 C523 1.403 . S
C524 C525 1.404 . S
C524 C527 1.539 . S
C525 C521 1.408 . S
C525 C524 1.404 . S
C525 H537 0.930 . S
C526 C522 1.524 . S
C526 H538 0.956 . S
C526 H539 0.961 . S
C526 H540 0.961 . S
C527 C524 1.539 . S
C527 H541 0.958 . S
C527 H542 0.961 . S
C527 H543 0.960 . S
H528 C512 0.931 . S
H529 C517 0.929 . S
H530 C518 0.960 . S
H531 C518 0.962 . S
H532 C518 0.960 . S
H533 C519 0.961 . S
H534 C519 0.961 . S
H535 C519 0.961 . S
H536 C520 0.931 . S
H537 C525 0.930 . S
H538 C526 0.956 . S
H539 C526 0.961 . S
H540 C526 0.961 . S
H541 C527 0.958 . S
H542 C527 0.961 . S
H543 C527 0.960 . S
C544 C545 1.391 . S
C544 C546 1.394 . S
C544 H560 0.931 . S
C545 C544 1.391 . S
C545 C549 1.376 . S
C546 C544 1.394 . S
C546 C547 1.369 . S
C546 C550 1.531 . S
C547 C546 1.369 . S
C547 C548 1.410 . S
C547 C555 1.503 . S
C548 C547 1.410 . S
C548 C549 1.392 . S
C548 C551 1.511 . S
C549 C545 1.376 . S
C549 C548 1.392 . S
C549 H561 0.929 . S
C550 C546 1.531 . S
C550 H562 0.960 . S
C550 H563 0.962 . S
C550 H564 0.960 . S
C551 C548 1.511 . S
C551 H565 0.961 . S
C551 H566 0.961 . S
C551 H567 0.961 . S
C552 C553 1.370 . S
C552 C554 1.363 . S
C552 H568 0.931 . S
C553 C552 1.370 . S
C553 C557 1.408 . S
C554 C552 1.363 . S
C554 C555 1.370 . S
C554 C558 1.524 . S
C555 C547 1.503 . S
C555 C554 1.370 . S
C555 C556 1.403 . S
C556 C555 1.403 . S
C556 C557 1.404 . S
C556 C559 1.539 . S
C557 C553 1.408 . S
C557 C556 1.404 . S
C557 H569 0.930 . S
C558 C554 1.524 . S
C558 H570 0.956 . S
C558 H571 0.961 . S
C558 H572 0.961 . S
C559 C556 1.539 . S
C559 H573 0.958 . S
C559 H574 0.961 . S
C559 H575 0.960 . S
H560 C544 0.931 . S
H561 C549 0.929 . S
H562 C550 0.960 . S
H563 C550 0.962 . S
H564 C550 0.960 . S
H565 C551 0.961 . S
H566 C551 0.961 . S
H567 C551 0.961 . S
H568 C552 0.931 . S
H569 C557 0.930 . S
H570 C558 0.956 . S
H571 C558 0.961 . S
H572 C558 0.961 . S
H573 C559 0.958 . S
H574 C559 0.961 . S
H575 C559 0.960 . S
C576 C577 1.391 . S
C576 C578 1.394 . S
C576 H592 0.931 . S
C577 C576 1.391 . S
C577 C581 1.376 . S
C578 C576 1.394 . S
C578 C579 1.369 . S
C578 C582 1.531 . S
C579 C578 1.369 . S
C579 C580 1.410 . S
C579 C587 1.503 . S
C580 C579 1.410 . S
C580 C581 1.392 . S
C580 C583 1.511 . S
C581 C577 1.376 . S
C581 C580 1.392 . S
C581 H593 0.929 . S
C582 C578 1.531 . S
C582 H594 0.960 . S
C582 H595 0.962 . S
C582 H596 0.960 . S
C583 C580 1.511 . S
C583 H597 0.961 . S
C583 H598 0.961 . S
C583 H599 0.961 . S
C584 C585 1.370 . S
C584 C586 1.363 . S
C584 H600 0.931 . S
C585 C584 1.370 . S
C585 C589 1.408 . S
C586 C584 1.363 . S
C586 C587 1.370 . S
C586 C590 1.524 . S
C587 C579 1.503 . S
C587 C586 1.370 . S
C587 C588 1.403 . S
C588 C587 1.403 . S
C588 C589 1.404 . S
C588 C591 1.539 . S
C589 C585 1.408 . S
C589 C588 1.404 . S
C589 H601 0.930 . S
C590 C586 1.524 . S
C590 H602 0.956 . S
C590 H603 0.961 . S
C590 H604 0.961 . S
C591 C588 1.539 . S
C591 H605 0.958 . S
C591 H606 0.961 . S
C591 H607 0.960 . S
H592 C576 0.931 . S
H593 C581 0.929 . S
H594 C582 0.960 . S
H595 C582 0.962 . S
H596 C582 0.960 . S
H597 C583 0.961 . S
H598 C583 0.961 . S
H599 C583 0.961 . S
H600 C584 0.931 . S
H601 C589 0.930 . S
H602 C590 0.956 . S
H603 C590 0.961 . S
H604 C590 0.961 . S
H605 C591 0.958 . S
H606 C591 0.961 . S
H607 C591 0.960 . S
C608 C609 1.391 . S
C608 C610 1.394 . S
C608 H624 0.931 . S
C609 C608 1.391 . S
C609 C613 1.376 . S
C610 C608 1.394 . S
C610 C611 1.369 . S
C610 C614 1.531 . S
C611 C610 1.369 . S
C611 C612 1.410 . S
C611 C619 1.503 . S
C612 C611 1.410 . S
C612 C613 1.392 . S
C612 C615 1.511 . S
C613 C609 1.376 . S
C613 C612 1.392 . S
C613 H625 0.929 . S
C614 C610 1.531 . S
C614 H626 0.960 . S
C614 H627 0.962 . S
C614 H628 0.960 . S
C615 C612 1.511 . S
C615 H629 0.961 . S
C615 H630 0.961 . S
C615 H631 0.961 . S
C616 C617 1.370 . S
C616 C618 1.363 . S
C616 H632 0.931 . S
C617 C616 1.370 . S
C617 C621 1.408 . S
C618 C616 1.363 . S
C618 C619 1.370 . S
C618 C622 1.524 . S
C619 C611 1.503 . S
C619 C618 1.370 . S
C619 C620 1.403 . S
C620 C619 1.403 . S
C620 C621 1.404 . S
C620 C623 1.539 . S
C621 C617 1.408 . S
C621 C620 1.404 . S
C621 H633 0.930 . S
C622 C618 1.524 . S
C622 H634 0.956 . S
C622 H635 0.961 . S
C622 H636 0.961 . S
C623 C620 1.539 . S
C623 H637 0.958 . S
C623 H638 0.961 . S
C623 H639 0.960 . S
H624 C608 0.931 . S
H625 C613 0.929 . S
H626 C614 0.960 . S
H627 C614 0.962 . S
H628 C614 0.960 . S
H629 C615 0.961 . S
H630 C615 0.961 . S
H631 C615 0.961 . S
H632 C616 0.931 . S
H633 C621 0.930 . S
H634 C622 0.956 . S
H635 C622 0.961 . S
H636 C622 0.961 . S
H637 C623 0.958 . S
H638 C623 0.961 . S
H639 C623 0.960 . S
C640 C641 1.391 . S
C640 C642 1.394 . S
C640 H656 0.931 . S
C641 C640 1.391 . S
C641 C645 1.376 . S
C642 C640 1.394 . S
C642 C643 1.369 . S
C642 C646 1.531 . S
C643 C642 1.369 . S
C643 C644 1.410 . S
C643 C651 1.503 . S
C644 C643 1.410 . S
C644 C645 1.392 . S
C644 C647 1.511 . S
C645 C641 1.376 . S
C645 C644 1.392 . S
C645 H657 0.929 . S
C646 C642 1.531 . S
C646 H658 0.960 . S
C646 H659 0.962 . S
C646 H660 0.960 . S
C647 C644 1.511 . S
C647 H661 0.961 . S
C647 H662 0.961 . S
C647 H663 0.961 . S
C648 C649 1.370 . S
C648 C650 1.363 . S
C648 H664 0.931 . S
C649 C648 1.370 . S
C649 C653 1.408 . S
C650 C648 1.363 . S
C650 C651 1.370 . S
C650 C654 1.524 . S
C651 C643 1.503 . S
C651 C650 1.370 . S
C651 C652 1.403 . S
C652 C651 1.403 . S
C652 C653 1.404 . S
C652 C655 1.539 . S
C653 C649 1.408 . S
C653 C652 1.404 . S
C653 H665 0.930 . S
C654 C650 1.524 . S
C654 H666 0.956 . S
C654 H667 0.961 . S
C654 H668 0.961 . S
C655 C652 1.539 . S
C655 H669 0.958 . S
C655 H670 0.961 . S
C655 H671 0.960 . S
H656 C640 0.931 . S
H657 C645 0.929 . S
H658 C646 0.960 . S
H659 C646 0.962 . S
H660 C646 0.960 . S
H661 C647 0.961 . S
H662 C647 0.961 . S
H663 C647 0.961 . S
H664 C648 0.931 . S
H665 C653 0.930 . S
H666 C654 0.956 . S
H667 C654 0.961 . S
H668 C654 0.961 . S
H669 C655 0.958 . S
H670 C655 0.961 . S
H671 C655 0.960 . S
C672 C673 1.391 . S
C672 C674 1.394 . S
C672 H688 0.931 . S
C673 C672 1.391 . S
C673 C677 1.376 . S
C674 C672 1.394 . S
C674 C675 1.369 . S
C674 C678 1.531 . S
C675 C674 1.369 . S
C675 C676 1.410 . S
C675 C683 1.503 . S
C676 C675 1.410 . S
C676 C677 1.392 . S
C676 C679 1.511 . S
C677 C673 1.376 . S
C677 C676 1.392 . S
C677 H689 0.929 . S
C678 C674 1.531 . S
C678 H690 0.960 . S
C678 H691 0.962 . S
C678 H692 0.960 . S
C679 C676 1.511 . S
C679 H693 0.961 . S
C679 H694 0.961 . S
C679 H695 0.961 . S
C680 C681 1.370 . S
C680 C682 1.363 . S
C680 H696 0.931 . S
C681 C680 1.370 . S
C681 C685 1.408 . S
C682 C680 1.363 . S
C682 C683 1.370 . S
C682 C686 1.524 . S
C683 C675 1.503 . S
C683 C682 1.370 . S
C683 C684 1.403 . S
C684 C683 1.403 . S
C684 C685 1.404 . S
C684 C687 1.539 . S
C685 C681 1.408 . S
C685 C684 1.404 . S
C685 H697 0.930 . S
C686 C682 1.524 . S
C686 H698 0.956 . S
C686 H699 0.961 . S
C686 H700 0.961 . S
C687 C684 1.539 . S
C687 H701 0.958 . S
C687 H702 0.961 . S
C687 H703 0.960 . S
H688 C672 0.931 . S
H689 C677 0.929 . S
H690 C678 0.960 . S
H691 C678 0.962 . S
H692 C678 0.960 . S
H693 C679 0.961 . S
H694 C679 0.961 . S
H695 C679 0.961 . S
H696 C680 0.931 . S
H697 C685 0.930 . S
H698 C686 0.956 . S
H699 C686 0.961 . S
H700 C686 0.961 . S
H701 C687 0.958 . S
H702 C687 0.961 . S
H703 C687 0.960 . S
C704 C705 1.391 . S
C704 C706 1.394 . S
C704 H720 0.931 . S
C705 C704 1.391 . S
C705 C709 1.376 . S
C706 C704 1.394 . S
C706 C707 1.369 . S
C706 C710 1.531 . S
C707 C706 1.369 . S
C707 C708 1.410 . S
C707 C715 1.503 . S
C708 C707 1.410 . S
C708 C709 1.392 . S
C708 C711 1.511 . S
C709 C705 1.376 . S
C709 C708 1.392 . S
C709 H721 0.929 . S
C710 C706 1.531 . S
C710 H722 0.960 . S
C710 H723 0.962 . S
C710 H724 0.960 . S
C711 C708 1.511 . S
C711 H725 0.961 . S
C711 H726 0.961 . S
C711 H727 0.961 . S
C712 C713 1.370 . S
C712 C714 1.363 . S
C712 H728 0.931 . S
C713 C712 1.370 . S
C713 C717 1.408 . S
C714 C712 1.363 . S
C714 C715 1.370 . S
C714 C718 1.524 . S
C715 C707 1.503 . S
C715 C714 1.370 . S
C715 C716 1.403 . S
C716 C715 1.403 . S
C716 C717 1.404 . S
C716 C719 1.539 . S
C717 C713 1.408 . S
C717 C716 1.404 . S
C717 H729 0.930 . S
C718 C714 1.524 . S
C718 H730 0.956 . S
C718 H731 0.961 . S
C718 H732 0.961 . S
C719 C716 1.539 . S
C719 H733 0.958 . S
C719 H734 0.961 . S
C719 H735 0.960 . S
H720 C704 0.931 . S
H721 C709 0.929 . S
H722 C710 0.960 . S
H723 C710 0.962 . S
H724 C710 0.960 . S
H725 C711 0.961 . S
H726 C711 0.961 . S
H727 C711 0.961 . S
H728 C712 0.931 . S
H729 C717 0.930 . S
H730 C718 0.956 . S
H731 C718 0.961 . S
H732 C718 0.961 . S
H733 C719 0.958 . S
H734 C719 0.961 . S
H735 C719 0.960 . S
C736 C737 1.391 . S
C736 C738 1.394 . S
C736 H752 0.931 . S
C737 C736 1.391 . S
C737 C741 1.376 . S
C738 C736 1.394 . S
C738 C739 1.369 . S
C738 C742 1.531 . S
C739 C738 1.369 . S
C739 C740 1.410 . S
C739 C747 1.503 . S
C740 C739 1.410 . S
C740 C741 1.392 . S
C740 C743 1.511 . S
C741 C737 1.376 . S
C741 C740 1.392 . S
C741 H753 0.929 . S
C742 C738 1.531 . S
C742 H754 0.960 . S
C742 H755 0.962 . S
C742 H756 0.960 . S
C743 C740 1.511 . S
C743 H757 0.961 . S
C743 H758 0.961 . S
C743 H759 0.961 . S
C744 C745 1.370 . S
C744 C746 1.363 . S
C744 H760 0.931 . S
C745 C744 1.370 . S
C745 C749 1.408 . S
C746 C744 1.363 . S
C746 C747 1.370 . S
C746 C750 1.524 . S
C747 C739 1.503 . S
C747 C746 1.370 . S
C747 C748 1.403 . S
C748 C747 1.403 . S
C748 C749 1.404 . S
C748 C751 1.539 . S
C749 C745 1.408 . S
C749 C748 1.404 . S
C749 H761 0.930 . S
C750 C746 1.524 . S
C750 H762 0.956 . S
C750 H763 0.961 . S
C750 H764 0.961 . S
C751 C748 1.539 . S
C751 H765 0.958 . S
C751 H766 0.961 . S
C751 H767 0.960 . S
H752 C736 0.931 . S
H753 C741 0.929 . S
H754 C742 0.960 . S
H755 C742 0.962 . S
H756 C742 0.960 . S
H757 C743 0.961 . S
H758 C743 0.961 . S
H759 C743 0.961 . S
H760 C744 0.931 . S
H761 C749 0.930 . S
H762 C750 0.956 . S
H763 C750 0.961 . S
H764 C750 0.961 . S
H765 C751 0.958 . S
H766 C751 0.961 . S
H767 C751 0.960 . S
C768 C769 1.391 . S
C768 C770 1.394 . S
C768 H784 0.931 . S
C769 C768 1.391 . S
C769 C773 1.376 . S
C770 C768 1.394 . S
C770 C771 1.369 . S
C770 C774 1.531 . S
C771 C770 1.369 . S
C771 C772 1.410 . S
C771 C779 1.503 . S
C772 C771 1.410 . S
C772 C773 1.392 . S
C772 C775 1.511 . S
C773 C769 1.376 . S
C773 C772 1.392 . S
C773 H785 0.929 . S
C774 C770 1.531 . S
C774 H786 0.960 . S
C774 H787 0.962 . S
C774 H788 0.960 . S
C775 C772 1.511 . S
C775 H789 0.961 . S
C775 H790 0.961 . S
C775 H791 0.961 . S
C776 C777 1.370 . S
C776 C778 1.363 . S
C776 H792 0.931 . S
C777 C776 1.370 . S
C777 C781 1.408 . S
C778 C776 1.363 . S
C778 C779 1.370 . S
C778 C782 1.524 . S
C779 C771 1.503 . S
C779 C778 1.370 . S
C779 C780 1.403 . S
C780 C779 1.403 . S
C780 C781 1.404 . S
C780 C783 1.539 . S
C781 C777 1.408 . S
C781 C780 1.404 . S
C781 H793 0.930 . S
C782 C778 1.524 . S
C782 H794 0.956 . S
C782 H795 0.961 . S
C782 H796 0.961 . S
C783 C780 1.539 . S
C783 H797 0.958 . S
C783 H798 0.961 . S
C783 H799 0.960 . S
H784 C768 0.931 . S
H785 C773 0.929 . S
H786 C774 0.960 . S
H787 C774 0.962 . S
H788 C774 0.960 . S
H789 C775 0.961 . S
H790 C775 0.961 . S
H791 C775 0.961 . S
H792 C776 0.931 . S
H793 C781 0.930 . S
H794 C782 0.956 . S
H795 C782 0.961 . S
H796 C782 0.961 . S
H797 C783 0.958 . S
H798 C783 0.961 . S
H799 C783 0.960 . S
C800 C801 1.391 . S
C800 C802 1.394 . S
C800 H816 0.931 . S
C801 C800 1.391 . S
C801 C805 1.376 . S
C802 C800 1.394 . S
C802 C803 1.369 . S
C802 C806 1.531 . S
C803 C802 1.369 . S
C803 C804 1.410 . S
C803 C811 1.503 . S
C804 C803 1.410 . S
C804 C805 1.392 . S
C804 C807 1.511 . S
C805 C801 1.376 . S
C805 C804 1.392 . S
C805 H817 0.929 . S
C806 C802 1.531 . S
C806 H818 0.960 . S
C806 H819 0.962 . S
C806 H820 0.960 . S
C807 C804 1.511 . S
C807 H821 0.961 . S
C807 H822 0.961 . S
C807 H823 0.961 . S
C808 C809 1.370 . S
C808 C810 1.363 . S
C808 H824 0.931 . S
C809 C808 1.370 . S
C809 C813 1.408 . S
C810 C808 1.363 . S
C810 C811 1.370 . S
C810 C814 1.524 . S
C811 C803 1.503 . S
C811 C810 1.370 . S
C811 C812 1.403 . S
C812 C811 1.403 . S
C812 C813 1.404 . S
C812 C815 1.539 . S
C813 C809 1.408 . S
C813 C812 1.404 . S
C813 H825 0.930 . S
C814 C810 1.524 . S
C814 H826 0.956 . S
C814 H827 0.961 . S
C814 H828 0.961 . S
C815 C812 1.539 . S
C815 H829 0.958 . S
C815 H830 0.961 . S
C815 H831 0.960 . S
H816 C800 0.931 . S
H817 C805 0.929 . S
H818 C806 0.960 . S
H819 C806 0.962 . S
H820 C806 0.960 . S
H821 C807 0.961 . S
H822 C807 0.961 . S
H823 C807 0.961 . S
H824 C808 0.931 . S
H825 C813 0.930 . S
H826 C814 0.956 . S
H827 C814 0.961 . S
H828 C814 0.961 . S
H829 C815 0.958 . S
H830 C815 0.961 . S
H831 C815 0.960 . S
C832 C833 1.391 . S
C832 C834 1.394 . S
C832 H848 0.931 . S
C833 C832 1.391 . S
C833 C837 1.376 . S
C834 C832 1.394 . S
C834 C835 1.369 . S
C834 C838 1.531 . S
C835 C834 1.369 . S
C835 C836 1.410 . S
C835 C843 1.503 . S
C836 C835 1.410 . S
C836 C837 1.392 . S
C836 C839 1.511 . S
C837 C833 1.376 . S
C837 C836 1.392 . S
C837 H849 0.929 . S
C838 C834 1.531 . S
C838 H850 0.960 . S
C838 H851 0.962 . S
C838 H852 0.960 . S
C839 C836 1.511 . S
C839 H853 0.961 . S
C839 H854 0.961 . S
C839 H855 0.961 . S
C840 C841 1.370 . S
C840 C842 1.363 . S
C840 H856 0.931 . S
C841 C840 1.370 . S
C841 C845 1.408 . S
C842 C840 1.363 . S
C842 C843 1.370 . S
C842 C846 1.524 . S
C843 C835 1.503 . S
C843 C842 1.370 . S
C843 C844 1.403 . S
C844 C843 1.403 . S
C844 C845 1.404 . S
C844 C847 1.539 . S
C845 C841 1.408 . S
C845 C844 1.404 . S
C845 H857 0.930 . S
C846 C842 1.524 . S
C846 H858 0.956 . S
C846 H859 0.961 . S
C846 H860 0.961 . S
C847 C844 1.539 . S
C847 H861 0.958 . S
C847 H862 0.961 . S
C847 H863 0.960 . S
H848 C832 0.931 . S
H849 C837 0.929 . S
H850 C838 0.960 . S
H851 C838 0.962 . S
H852 C838 0.960 . S
H853 C839 0.961 . S
H854 C839 0.961 . S
H855 C839 0.961 . S
H856 C840 0.931 . S
H857 C845 0.930 . S
H858 C846 0.956 . S
H859 C846 0.961 . S
H860 C846 0.961 . S
H861 C847 0.958 . S
H862 C847 0.961 . S
H863 C847 0.960 . S
C864 C865 1.391 . S
C864 C866 1.394 . S
C864 H880 0.931 . S
C865 C864 1.391 . S
C865 C869 1.376 . S
C866 C864 1.394 . S
C866 C867 1.369 . S
C866 C870 1.531 . S
C867 C866 1.369 . S
C867 C868 1.410 . S
C867 C875 1.503 . S
C868 C867 1.410 . S
C868 C869 1.392 . S
C868 C871 1.511 . S
C869 C865 1.376 . S
C869 C868 1.392 . S
C869 H881 0.929 . S
C870 C866 1.531 . S
C870 H882 0.960 . S
C870 H883 0.962 . S
C870 H884 0.960 . S
C871 C868 1.511 . S
C871 H885 0.961 . S
C871 H886 0.961 . S
C871 H887 0.961 . S
C872 C873 1.370 . S
C872 C874 1.363 . S
C872 H888 0.931 . S
C873 C872 1.370 . S
C873 C877 1.408 . S
C874 C872 1.363 . S
C874 C875 1.370 . S
C874 C878 1.524 . S
C875 C867 1.503 . S
C875 C874 1.370 . S
C875 C876 1.403 . S
C876 C875 1.403 . S
C876 C877 1.404 . S
C876 C879 1.539 . S
C877 C873 1.408 . S
C877 C876 1.404 . S
C877 H889 0.930 . S
C878 C874 1.524 . S
C878 H890 0.956 . S
C878 H891 0.961 . S
C878 H892 0.961 . S
C879 C876 1.539 . S
C879 H893 0.958 . S
C879 H894 0.961 . S
C879 H895 0.960 . S
H880 C864 0.931 . S
H881 C869 0.929 . S
H882 C870 0.960 . S
H883 C870 0.962 . S
H884 C870 0.960 . S
H885 C871 0.961 . S
H886 C871 0.961 . S
H887 C871 0.961 . S
H888 C872 0.931 . S
H889 C877 0.930 . S
H890 C878 0.956 . S
H891 C878 0.961 . S
H892 C878 0.961 . S
H893 C879 0.958 . S
H894 C879 0.961 . S
H895 C879 0.960 . S
C896 C897 1.391 . S
C896 C898 1.394 . S
C896 H912 0.931 . S
C897 C896 1.391 . S
C897 C901 1.376 . S
C898 C896 1.394 . S
C898 C899 1.369 . S
C898 C902 1.531 . S
C899 C898 1.369 . S
C899 C900 1.410 . S
C899 C907 1.503 . S
C900 C899 1.410 . S
C900 C901 1.392 . S
C900 C903 1.511 . S
C901 C897 1.376 . S
C901 C900 1.392 . S
C901 H913 0.929 . S
C902 C898 1.531 . S
C902 H914 0.960 . S
C902 H915 0.962 . S
C902 H916 0.960 . S
C903 C900 1.511 . S
C903 H917 0.961 . S
C903 H918 0.961 . S
C903 H919 0.961 . S
C904 C905 1.370 . S
C904 C906 1.363 . S
C904 H920 0.931 . S
C905 C904 1.370 . S
C905 C909 1.408 . S
C906 C904 1.363 . S
C906 C907 1.370 . S
C906 C910 1.524 . S
C907 C899 1.503 . S
C907 C906 1.370 . S
C907 C908 1.403 . S
C908 C907 1.403 . S
C908 C909 1.404 . S
C908 C911 1.539 . S
C909 C905 1.408 . S
C909 C908 1.404 . S
C909 H921 0.930 . S
C910 C906 1.524 . S
C910 H922 0.956 . S
C910 H923 0.961 . S
C910 H924 0.961 . S
C911 C908 1.539 . S
C911 H925 0.958 . S
C911 H926 0.961 . S
C911 H927 0.960 . S
H912 C896 0.931 . S
H913 C901 0.929 . S
H914 C902 0.960 . S
H915 C902 0.962 . S
H916 C902 0.960 . S
H917 C903 0.961 . S
H918 C903 0.961 . S
H919 C903 0.961 . S
H920 C904 0.931 . S
H921 C909 0.930 . S
H922 C910 0.956 . S
H923 C910 0.961 . S
H924 C910 0.961 . S
H925 C911 0.958 . S
H926 C911 0.961 . S
H927 C911 0.960 . S
C928 C929 1.391 . S
C928 C930 1.394 . S
C928 H944 0.931 . S
C929 C928 1.391 . S
C929 C933 1.376 . S
C930 C928 1.394 . S
C930 C931 1.369 . S
C930 C934 1.531 . S
C931 C930 1.369 . S
C931 C932 1.410 . S
C931 C939 1.503 . S
C932 C931 1.410 . S
C932 C933 1.392 . S
C932 C935 1.511 . S
C933 C929 1.376 . S
C933 C932 1.392 . S
C933 H945 0.929 . S
C934 C930 1.531 . S
C934 H946 0.960 . S
C934 H947 0.962 . S
C934 H948 0.960 . S
C935 C932 1.511 . S
C935 H949 0.961 . S
C935 H950 0.961 . S
C935 H951 0.961 . S
C936 C937 1.370 . S
C936 C938 1.363 . S
C936 H952 0.931 . S
C937 C936 1.370 . S
C937 C941 1.408 . S
C938 C936 1.363 . S
C938 C939 1.370 . S
C938 C942 1.524 . S
C939 C931 1.503 . S
C939 C938 1.370 . S
C939 C940 1.403 . S
C940 C939 1.403 . S
C940 C941 1.404 . S
C940 C943 1.539 . S
C941 C937 1.408 . S
C941 C940 1.404 . S
C941 H953 0.930 . S
C942 C938 1.524 . S
C942 H954 0.956 . S
C942 H955 0.961 . S
C942 H956 0.961 . S
C943 C940 1.539 . S
C943 H957 0.958 . S
C943 H958 0.961 . S
C943 H959 0.960 . S
H944 C928 0.931 . S
H945 C933 0.929 . S
H946 C934 0.960 . S
H947 C934 0.962 . S
H948 C934 0.960 . S
H949 C935 0.961 . S
H950 C935 0.961 . S
H951 C935 0.961 . S
H952 C936 0.931 . S
H953 C941 0.930 . S
H954 C942 0.956 . S
H955 C942 0.961 . S
H956 C942 0.961 . S
H957 C943 0.958 . S
H958 C943 0.961 . S
H959 C943 0.960 . S
C960 C961 1.391 . S
C960 C962 1.394 . S
C960 H976 0.931 . S
C961 C960 1.391 . S
C961 C965 1.376 . S
C962 C960 1.394 . S
C962 C963 1.369 . S
C962 C966 1.531 . S
C963 C962 1.369 . S
C963 C964 1.410 . S
C963 C971 1.503 . S
C964 C963 1.410 . S
C964 C965 1.392 . S
C964 C967 1.511 . S
C965 C961 1.376 . S
C965 C964 1.392 . S
C965 H977 0.929 . S
C966 C962 1.531 . S
C966 H978 0.960 . S
C966 H979 0.962 . S
C966 H980 0.960 . S
C967 C964 1.511 . S
C967 H981 0.961 . S
C967 H982 0.961 . S
C967 H983 0.961 . S
C968 C969 1.370 . S
C968 C970 1.363 . S
C968 H984 0.931 . S
C969 C968 1.370 . S
C969 C973 1.408 . S
C970 C968 1.363 . S
C970 C971 1.370 . S
C970 C974 1.524 . S
C971 C963 1.503 . S
C971 C970 1.370 . S
C971 C972 1.403 . S
C972 C971 1.403 . S
C972 C973 1.404 . S
C972 C975 1.539 . S
C973 C969 1.408 . S
C973 C972 1.404 . S
C973 H985 0.930 . S
C974 C970 1.524 . S
C974 H986 0.956 . S
C974 H987 0.961 . S
C974 H988 0.961 . S
C975 C972 1.539 . S
C975 H989 0.958 . S
C975 H990 0.961 . S
C975 H991 0.960 . S
H976 C960 0.931 . S
H977 C965 0.929 . S
H978 C966 0.960 . S
H979 C966 0.962 . S
H980 C966 0.960 . S
H981 C967 0.961 . S
H982 C967 0.961 . S
H983 C967 0.961 . S
H984 C968 0.931 . S
H985 C973 0.930 . S
H986 C974 0.956 . S
H987 C974 0.961 . S
H988 C974 0.961 . S
H989 C975 0.958 . S
H990 C975 0.961 . S
H991 C975 0.960 . S
C992 C993 1.391 . S
C992 C994 1.394 . S
C992 H1008 0.931 . S
C993 C992 1.391 . S
C993 C997 1.376 . S
C994 C992 1.394 . S
C994 C995 1.369 . S
C994 C998 1.531 . S
C995 C994 1.369 . S
C995 C996 1.410 . S
C995 C1003 1.503 . S
C996 C995 1.410 . S
C996 C997 1.392 . S
C996 C999 1.511 . S
C997 C993 1.376 . S
C997 C996 1.392 . S
C997 H1009 0.929 . S
C998 C994 1.531 . S
C998 H1010 0.960 . S
C998 H1011 0.962 . S
C998 H1012 0.960 . S
C999 C996 1.511 . S
C999 H1013 0.961 . S
C999 H1014 0.961 . S
C999 H1015 0.961 . S
C1000 C1001 1.370 . S
C1000 C1002 1.363 . S
C1000 H1016 0.931 . S
C1001 C1000 1.370 . S
C1001 C1005 1.408 . S
C1002 C1000 1.363 . S
C1002 C1003 1.370 . S
C1002 C1006 1.524 . S
C1003 C995 1.503 . S
C1003 C1002 1.370 . S
C1003 C1004 1.403 . S
C1004 C1003 1.403 . S
C1004 C1005 1.404 . S
C1004 C1007 1.539 . S
C1005 C1001 1.408 . S
C1005 C1004 1.404 . S
C1005 H1017 0.930 . S
C1006 C1002 1.524 . S
C1006 H1018 0.956 . S
C1006 H1019 0.961 . S
C1006 H1020 0.961 . S
C1007 C1004 1.539 . S
C1007 H1021 0.958 . S
C1007 H1022 0.961 . S
C1007 H1023 0.960 . S
H1008 C992 0.931 . S
H1009 C997 0.929 . S
H1010 C998 0.960 . S
H1011 C998 0.962 . S
H1012 C998 0.960 . S
H1013 C999 0.961 . S
H1014 C999 0.961 . S
H1015 C999 0.961 . S
H1016 C1000 0.931 . S
H1017 C1005 0.930 . S
H1018 C1006 0.956 . S
H1019 C1006 0.961 . S
H1020 C1006 0.961 . S
H1021 C1007 0.958 . S
H1022 C1007 0.961 . S
H1023 C1007 0.960 . S
C1024 C1025 1.391 . S
C1024 C1026 1.394 . S
C1024 H1040 0.931 . S
C1025 C1024 1.391 . S
C1025 C1029 1.376 . S
C1026 C1024 1.394 . S
C1026 C1027 1.369 . S
C1026 C1030 1.531 . S
C1027 C1026 1.369 . S
C1027 C1028 1.410 . S
C1027 C1035 1.503 . S
C1028 C1027 1.410 . S
C1028 C1029 1.392 . S
C1028 C1031 1.511 . S
C1029 C1025 1.376 . S
C1029 C1028 1.392 . S
C1029 H1041 0.929 . S
C1030 C1026 1.531 . S
C1030 H1042 0.960 . S
C1030 H1043 0.962 . S
C1030 H1044 0.960 . S
C1031 C1028 1.511 . S
C1031 H1045 0.961 . S
C1031 H1046 0.961 . S
C1031 H1047 0.961 . S
C1032 C1033 1.370 . S
C1032 C1034 1.363 . S
C1032 H1048 0.931 . S
C1033 C1032 1.370 . S
C1033 C1037 1.408 . S
C1034 C1032 1.363 . S
C1034 C1035 1.370 . S
C1034 C1038 1.524 . S
C1035 C1027 1.503 . S
C1035 C1034 1.370 . S
C1035 C1036 1.403 . S
C1036 C1035 1.403 . S
C1036 C1037 1.404 . S
C1036 C1039 1.539 . S
C1037 C1033 1.408 . S
C1037 C1036 1.404 . S
C1037 H1049 0.930 . S
C1038 C1034 1.524 . S
C1038 H1050 0.956 . S
C1038 H1051 0.961 . S
C1038 H1052 0.961 . S
C1039 C1036 1.539 . S
C1039 H1053 0.958 . S
C1039 H1054 0.961 . S
C1039 H1055 0.960 . S
H1040 C1024 0.931 . S
H1041 C1029 0.929 . S
H1042 C1030 0.960 . S
H1043 C1030 0.962 . S
H1044 C1030 0.960 . S
H1045 C1031 0.961 . S
H1046 C1031 0.961 . S
H1047 C1031 0.961 . S
H1048 C1032 0.931 . S
H1049 C1037 0.930 . S
H1050 C1038 0.956 . S
H1051 C1038 0.961 . S
H1052 C1038 0.961 . S
H1053 C1039 0.958 . S
H1054 C1039 0.961 . S
H1055 C1039 0.960 . S
C1056 C1057 1.391 . S
C1056 C1058 1.394 . S
C1056 H1072 0.931 . S
C1057 C1056 1.391 . S
C1057 C1061 1.376 . S
C1058 C1056 1.394 . S
C1058 C1059 1.369 . S
C1058 C1062 1.531 . S
C1059 C1058 1.369 . S
C1059 C1060 1.410 . S
C1059 C1067 1.503 . S
C1060 C1059 1.410 . S
C1060 C1061 1.392 . S
C1060 C1063 1.511 . S
C1061 C1057 1.376 . S
C1061 C1060 1.392 . S
C1061 H1073 0.929 . S
C1062 C1058 1.531 . S
C1062 H1074 0.960 . S
C1062 H1075 0.962 . S
C1062 H1076 0.960 . S
C1063 C1060 1.511 . S
C1063 H1077 0.961 . S
C1063 H1078 0.961 . S
C1063 H1079 0.961 . S
C1064 C1065 1.370 . S
C1064 C1066 1.363 . S
C1064 H1080 0.931 . S
C1065 C1064 1.370 . S
C1065 C1069 1.408 . S
C1066 C1064 1.363 . S
C1066 C1067 1.370 . S
C1066 C1070 1.524 . S
C1067 C1059 1.503 . S
C1067 C1066 1.370 . S
C1067 C1068 1.403 . S
C1068 C1067 1.403 . S
C1068 C1069 1.404 . S
C1068 C1071 1.539 . S
C1069 C1065 1.408 . S
C1069 C1068 1.404 . S
C1069 H1081 0.930 . S
C1070 C1066 1.524 . S
C1070 H1082 0.956 . S
C1070 H1083 0.961 . S
C1070 H1084 0.961 . S
C1071 C1068 1.539 . S
C1071 H1085 0.958 . S
C1071 H1086 0.961 . S
C1071 H1087 0.960 . S
H1072 C1056 0.931 . S
H1073 C1061 0.929 . S
H1074 C1062 0.960 . S
H1075 C1062 0.962 . S
H1076 C1062 0.960 . S
H1077 C1063 0.961 . S
H1078 C1063 0.961 . S
H1079 C1063 0.961 . S
H1080 C1064 0.931 . S
H1081 C1069 0.930 . S
H1082 C1070 0.956 . S
H1083 C1070 0.961 . S
H1084 C1070 0.961 . S
H1085 C1071 0.958 . S
H1086 C1071 0.961 . S
H1087 C1071 0.960 . S
C1088 C1089 1.391 . S
C1088 C1090 1.394 . S
C1088 H1104 0.931 . S
C1089 C1088 1.391 . S
C1089 C1093 1.376 . S
C1090 C1088 1.394 . S
C1090 C1091 1.369 . S
C1090 C1094 1.531 . S
C1091 C1090 1.369 . S
C1091 C1092 1.410 . S
C1091 C1099 1.503 . S
C1092 C1091 1.410 . S
C1092 C1093 1.392 . S
C1092 C1095 1.511 . S
C1093 C1089 1.376 . S
C1093 C1092 1.392 . S
C1093 H1105 0.929 . S
C1094 C1090 1.531 . S
C1094 H1106 0.960 . S
C1094 H1107 0.962 . S
C1094 H1108 0.960 . S
C1095 C1092 1.511 . S
C1095 H1109 0.961 . S
C1095 H1110 0.961 . S
C1095 H1111 0.961 . S
C1096 C1097 1.370 . S
C1096 C1098 1.363 . S
C1096 H1112 0.931 . S
C1097 C1096 1.370 . S
C1097 C1101 1.408 . S
C1098 C1096 1.363 . S
C1098 C1099 1.370 . S
C1098 C1102 1.524 . S
C1099 C1091 1.503 . S
C1099 C1098 1.370 . S
C1099 C1100 1.403 . S
C1100 C1099 1.403 . S
C1100 C1101 1.404 . S
C1100 C1103 1.539 . S
C1101 C1097 1.408 . S
C1101 C1100 1.404 . S
C1101 H1113 0.930 . S
C1102 C1098 1.524 . S
C1102 H1114 0.956 . S
C1102 H1115 0.961 . S
C1102 H1116 0.961 . S
C1103 C1100 1.539 . S
C1103 H1117 0.958 . S
C1103 H1118 0.961 . S
C1103 H1119 0.960 . S
H1104 C1088 0.931 . S
H1105 C1093 0.929 . S
H1106 C1094 0.960 . S
H1107 C1094 0.962 . S
H1108 C1094 0.960 . S
H1109 C1095 0.961 . S
H1110 C1095 0.961 . S
H1111 C1095 0.961 . S
H1112 C1096 0.931 . S
H1113 C1101 0.930 . S
H1114 C1102 0.956 . S
H1115 C1102 0.961 . S
H1116 C1102 0.961 . S
H1117 C1103 0.958 . S
H1118 C1103 0.961 . S
H1119 C1103 0.960 . S
C1120 C1121 1.391 . S
C1120 C1122 1.394 . S
C1120 H1136 0.931 . S
C1121 C1120 1.391 . S
C1121 C1125 1.376 . S
C1122 C1120 1.394 . S
C1122 C1123 1.369 . S
C1122 C1126 1.531 . S
C1123 C1122 1.369 . S
C1123 C1124 1.410 . S
C1123 C1131 1.503 . S
C1124 C1123 1.410 . S
C1124 C1125 1.392 . S
C1124 C1127 1.511 . S
C1125 C1121 1.376 . S
C1125 C1124 1.392 . S
C1125 H1137 0.929 . S
C1126 C1122 1.531 . S
C1126 H1138 0.960 . S
C1126 H1139 0.962 . S
C1126 H1140 0.960 . S
C1127 C1124 1.511 . S
C1127 H1141 0.961 . S
C1127 H1142 0.961 . S
C1127 H1143 0.961 . S
C1128 C1129 1.370 . S
C1128 C1130 1.363 . S
C1128 H1144 0.931 . S
C1129 C1128 1.370 . S
C1129 C1133 1.408 . S
C1130 C1128 1.363 . S
C1130 C1131 1.370 . S
C1130 C1134 1.524 . S
C1131 C1123 1.503 . S
C1131 C1130 1.370 . S
C1131 C1132 1.403 . S
C1132 C1131 1.403 . S
C1132 C1133 1.404 . S
C1132 C1135 1.539 . S
C1133 C1129 1.408 . S
C1133 C1132 1.404 . S
C1133 H1145 0.930 . S
C1134 C1130 1.524 . S
C1134 H1146 0.956 . S
C1134 H1147 0.961 . S
C1134 H1148 0.961 . S
C1135 C1132 1.539 . S
C1135 H1149 0.958 . S
C1135 H1150 0.961 . S
C1135 H1151 0.960 . S
H1136 C1120 0.931 . S
H1137 C1125 0.929 . S
H1138 C1126 0.960 . S
H1139 C1126 0.962 . S
H1140 C1126 0.960 . S
H1141 C1127 0.961 . S
H1142 C1127 0.961 . S
H1143 C1127 0.961 . S
H1144 C1128 0.931 . S
H1145 C1133 0.930 . S
H1146 C1134 0.956 . S
H1147 C1134 0.961 . S
H1148 C1134 0.961 . S
H1149 C1135 0.958 . S
H1150 C1135 0.961 . S
H1151 C1135 0.960 . S
C1152 C1153 1.391 . S
C1152 C1154 1.394 . S
C1152 H1168 0.931 . S
C1153 C1152 1.391 . S
C1153 C1157 1.376 . S
C1154 C1152 1.394 . S
C1154 C1155 1.369 . S
C1154 C1158 1.531 . S
C1155 C1154 1.369 . S
C1155 C1156 1.410 . S
C1155 C1163 1.503 . S
C1156 C1155 1.410 . S
C1156 C1157 1.392 . S
C1156 C1159 1.511 . S
C1157 C1153 1.376 . S
C1157 C1156 1.392 . S
C1157 H1169 0.929 . S
C1158 C1154 1.531 . S
C1158 H1170 0.960 . S
C1158 H1171 0.962 . S
C1158 H1172 0.960 . S
C1159 C1156 1.511 . S
C1159 H1173 0.961 . S
C1159 H1174 0.961 . S
C1159 H1175 0.961 . S
C1160 C1161 1.370 . S
C1160 C1162 1.363 . S
C1160 H1176 0.931 . S
C1161 C1160 1.370 . S
C1161 C1165 1.408 . S
C1162 C1160 1.363 . S
C1162 C1163 1.370 . S
C1162 C1166 1.524 . S
C1163 C1155 1.503 . S
C1163 C1162 1.370 . S
C1163 C1164 1.403 . S
C1164 C1163 1.403 . S
C1164 C1165 1.404 . S
C1164 C1167 1.539 . S
C1165 C1161 1.408 . S
C1165 C1164 1.404 . S
C1165 H1177 0.930 . S
C1166 C1162 1.524 . S
C1166 H1178 0.956 . S
C1166 H1179 0.961 . S
C1166 H1180 0.961 . S
C1167 C1164 1.539 . S
C1167 H1181 0.958 . S
C1167 H1182 0.961 . S
C1167 H1183 0.960 . S
H1168 C1152 0.931 . S
H1169 C1157 0.929 . S
H1170 C1158 0.960 . S
H1171 C1158 0.962 . S
H1172 C1158 0.960 . S
H1173 C1159 0.961 . S
H1174 C1159 0.961 . S
H1175 C1159 0.961 . S
H1176 C1160 0.931 . S
H1177 C1165 0.930 . S
H1178 C1166 0.956 . S
H1179 C1166 0.961 . S
H1180 C1166 0.961 . S
H1181 C1167 0.958 . S
H1182 C1167 0.961 . S
H1183 C1167 0.960 . S
C417 C29 1.065 . S
C425 C271 1.043 . S
C449 C49 1.371 . S
C457 C315 1.499 . S
C489 C345 2.202 . S
C481 C93 2.201 . S
C513 C119 2.719 . S
C521 C386 2.695 . S
C553 C302 0.714 . S
C545 C17 0.713 . S
C585 C266 2.504 . S
C577 C61 2.357 . S
C617 C394 1.154 . S
C609 C81 1.146 . S
C649 C355 2.260 . S
C641 C125 2.344 . S
C673 C23 0.990 . S
C681 C391 1.001 . S
C713 C305 2.023 . S
C705 C87 2.027 . S
C737 C113 2.090 . S
C745 C274 2.051 . S
C769 C55 1.808 . S
C777 C342 1.915 . S
C809 C262 1.026 . S
C801 C157 0.996 . S
C833 C189 1.605 . S
C841 C306 1.569 . S
C865 C221 2.108 . S
C873 C354 2.174 . S
C897 C253 2.779 . S
C905 C395 2.750 . S
C929 C145 0.828 . S
C937 C311 0.780 . S
C969 C275 2.442 . S
C961 C183 2.446 . S
C1001 C385 1.191 . S
C993 C209 1.189 . S
C1033 C346 2.241 . S
C1025 C247 2.274 . S
C1057 C151 0.964 . S
C1065 C382 0.946 . S
C1097 C314 2.009 . S
C1089 C215 1.953 . S
C1129 C265 2.043 . S
C1121 C241 2.046 . S
C1153 C177 1.951 . S
C1161 C351 1.912 . S
