# Generated by pormake.
# Topology rtl, (3,6)-cn, num edge types: 1
# Building blocks:
#     Node 0, Type 0, BuildingBlock: BETDIP_clean_linker_0, # of connection points: 3
#     Node 1, Type 0, BuildingBlock: BETDIP_clean_linker_0, # of connection points: 3
#     Node 2, Type 0, BuildingBlock: BETDIP_clean_linker_0, # of connection points: 3
#     Node 3, Type 0, BuildingBlock: BETDIP_clean_linker_0, # of connection points: 3
#     Node 4, Type 1, BuildingBlock: KUMBOL_clean_sbu_1, # of connection points: 6
#     Node 5, Type 1, BuildingBlock: KUMBOL_clean_sbu_1, # of connection points: 6
#     Edge 6, Type (0, 1), BuildingBlock: KIFKEQ_clean_linker_1, # of connection points: 2
#     Edge 7, Type (0, 1), BuildingBlock: KIFKEQ_clean_linker_1, # of connection points: 2
#     Edge 8, Type (0, 1), BuildingBlock: KIFKEQ_clean_linker_1, # of connection points: 2
#     Edge 9, Type (0, 1), BuildingBlock: KIFKEQ_clean_linker_1, # of connection points: 2
#     Edge 10, Type (0, 1), BuildingBlock: KIFKEQ_clean_linker_1, # of connection points: 2
#     Edge 11, Type (0, 1), BuildingBlock: KIFKEQ_clean_linker_1, # of connection points: 2
#     Edge 12, Type (0, 1), BuildingBlock: KIFKEQ_clean_linker_1, # of connection points: 2
#     Edge 13, Type (0, 1), BuildingBlock: KIFKEQ_clean_linker_1, # of connection points: 2
#     Edge 14, Type (0, 1), BuildingBlock: KIFKEQ_clean_linker_1, # of connection points: 2
#     Edge 15, Type (0, 1), BuildingBlock: KIFKEQ_clean_linker_1, # of connection points: 2
#     Edge 16, Type (0, 1), BuildingBlock: KIFKEQ_clean_linker_1, # of connection points: 2
#     Edge 17, Type (0, 1), BuildingBlock: KIFKEQ_clean_linker_1, # of connection points: 2
# Relax obj value: 0.052
# Max RMSD: 0.219
# Mean RMSD: 0.160
data_MOF--net-rtl--node1-KUMBOL_clean_sbu_1--node2-BETDIP_clean_linker_0--edge1-KIFKEQ_clean_linker_1
_symmetry_space_group_name_H-M    P1
_symmetry_Int_Tables_number       1
_symmetry_cell_setting            triclinic
loop_
_symmetry_equiv_pos_as_xyz
'x, y, z'
_cell_length_a     35.817849
_cell_length_b     35.783383
_cell_length_c     27.569905
_cell_angle_alpha  78.530711
_cell_angle_beta   100.44264
_cell_angle_gamma 91.055983
loop_
_atom_site_label
_atom_site_type_symbol
_atom_site_fract_x
_atom_site_fract_y
_atom_site_fract_z
_atom_type_partial_charge
H0 H 0.24905 0.85805 0.93944 0.0
H1 H 0.27111 0.84658 0.10071 0.0
H2 H 0.18729 0.92726 0.01044 0.0
H3 H 0.31289 0.80338 0.10203 0.0
C4 C 0.31328 0.79756 0.06504 0.0
C5 C 0.24395 0.86723 0.97288 0.0
C6 C 0.21584 0.8952 0.96887 0.0
C7 C 0.26444 0.84949 0.01993 0.0
C8 C 0.25684 0.86034 0.06368 0.0
C9 C 0.22929 0.88861 0.06 0.0
C10 C 0.20908 0.906 0.01276 0.0
N11 N 0.29085 0.81982 0.02127 0.0
H12 H 0.68266 0.7552 0.7169 0.0
H13 H 0.68483 0.76177 0.55969 0.0
H14 H 0.61897 0.6763 0.63549 0.0
H15 H 0.75146 0.7615 0.60113 0.0
C16 C 0.74813 0.78674 0.6165 0.0
C17 C 0.67315 0.74486 0.68246 0.0
C18 C 0.64761 0.7143 0.68167 0.0
C19 C 0.68754 0.76138 0.63892 0.0
C20 C 0.67449 0.74878 0.59362 0.0
C21 C 0.64964 0.71824 0.59251 0.0
C22 C 0.63701 0.70087 0.63658 0.0
N23 N 0.71701 0.78864 0.64161 0.0
H24 H 0.77001 0.19261 0.97432 0.0
H25 H 0.78892 0.18727 0.13358 0.0
H26 H 0.84427 0.10557 0.07319 0.0
H27 H 0.71499 0.20027 0.0978 0.0
C28 C 0.72221 0.22618 0.0735 0.0
C29 C 0.78359 0.17882 0.01187 0.0
C30 C 0.80789 0.14708 0.01876 0.0
C31 C 0.7758 0.1925 0.05317 0.0
C32 C 0.7937 0.17529 0.10207 0.0
C33 C 0.81919 0.1442 0.10984 0.0
C34 C 0.82521 0.12978 0.06785 0.0
N35 N 0.75097 0.22457 0.04464 0.0
H36 H 0.33947 0.28853 0.37858 0.0
H37 H 0.33703 0.27881 0.53618 0.0
H38 H 0.41198 0.35766 0.46675 0.0
H39 H 0.32461 0.21476 0.52325 0.0
C40 C 0.30101 0.22261 0.49207 0.0
C41 C 0.34995 0.29729 0.41391 0.0
C42 C 0.37883 0.32458 0.4171 0.0
C43 C 0.33505 0.28021 0.45673 0.0
C44 C 0.34898 0.29079 0.50319 0.0
C45 C 0.37691 0.3185 0.50653 0.0
C46 C 0.39133 0.33534 0.46364 0.0
N47 N 0.30533 0.2534 0.45214 0.0
C48 C 0.96524 0.13867 0.50929 0.0
C49 C 0.89646 0.13819 0.48695 0.0
C50 C 0.93127 0.11952 0.51102 0.0
C51 C 0.8964 0.1758 0.45981 0.0
C52 C 0.96507 0.17695 0.48349 0.0
C53 C 0.93062 0.19509 0.45798 0.0
N54 N 0.99821 0.12042 0.53432 0.0
C55 C 0.03118 0.1403 0.53964 0.0
C56 C 0.99944 0.19628 0.48521 0.0
C57 C 0.0325 0.17807 0.5142 0.0
Gd58 Gd 0.04094 0.97872 0.50961 0.0
Gd59 Gd 0.99243 0.05624 0.57365 0.0
N60 N 0.93218 0.08262 0.53593 0.0
C61 C 0.86273 0.11827 0.49033 0.0
C62 C 0.8993 0.06363 0.54101 0.0
C63 C 0.86416 0.08096 0.51794 0.0
H64 H 0.89996 0.03553 0.56412 0.0
H65 H 0.83819 0.06564 0.52185 0.0
H66 H 0.12988 1.00795 0.52386 0.0
H67 H 0.05656 0.1277 0.5643 0.0
H68 H 0.19383 0.98252 0.5672 0.0
H69 H 0.83546 0.13156 0.47229 0.0
H70 H 0.87 0.19033 0.44046 0.0
H71 H 0.98502 0.90064 0.50872 0.0
H72 H 1.00049 0.22567 0.46589 0.0
H73 H 0.05893 0.19331 0.5177 0.0
H74 H 0.17075 0.85496 0.64912 0.0
H75 H 0.93007 0.22433 0.43754 0.0
H76 H 0.04598 0.80654 0.61014 0.0
H77 H 0.98765 0.83345 0.55203 0.0
N78 N 0.03967 0.91346 0.54689 0.0
C79 C 0.07301 0.89851 0.57574 0.0
C80 C 1.00999 0.89001 0.5361 0.0
C81 C 0.04461 0.8365 0.5925 0.0
C82 C 0.01162 0.85158 0.55977 0.0
C83 C 0.07624 0.85964 0.59957 0.0
H84 H 0.11419 0.81494 0.64648 0.0
N85 N 0.10157 0.95818 0.55295 0.0
C86 C 0.10502 0.92118 0.57772 0.0
C87 C 0.17296 0.9281 0.59973 0.0
C88 C 0.14083 0.90541 0.60281 0.0
C89 C 0.13295 0.97964 0.54697 0.0
C90 C 0.16906 0.96517 0.57101 0.0
O91 O 0.97847 0.06222 0.48814 0.0
O92 O 0.98349 1.00218 0.46841 0.0
O93 O 0.06375 0.99878 0.44062 0.0
O94 O 0.05116 0.93927 0.46335 0.0
O95 O 0.96023 1.00163 0.57648 0.0
O96 O 0.98292 0.96183 0.52932 0.0
O97 O 0.06926 0.98887 0.58586 0.0
O98 O 0.01748 0.99956 0.61881 0.0
O99 O 0.95859 0.06226 0.62997 0.0
O100 O 0.01712 0.08234 0.63677 0.0
O101 O 0.0532 0.0418 0.49178 0.0
O102 O 0.05419 0.06123 0.56645 0.0
C103 C 0.97095 0.03783 0.45731 0.0
C104 C 0.95872 0.97107 0.55636 0.0
C105 C 0.05821 0.95948 0.37905 0.0
C106 C 0.08488 0.94671 0.30871 0.0
C107 C 0.01715 0.94067 0.30823 0.0
C108 C 0.02198 0.95085 0.35529 0.0
C109 C 0.04845 0.93833 0.28517 0.0
C110 C 0.08962 0.95772 0.35545 0.0
C111 C 0.0651 0.96464 0.43126 0.0
C112 C 0.1436 0.86737 0.62893 0.0
C113 C 0.11135 0.8446 0.62751 0.0
H114 H 0.20095 0.91697 0.61832 0.0
C115 C 0.05333 0.98966 0.62489 0.0
C116 C 0.06773 0.06214 0.52502 0.0
C117 C 0.98239 0.09098 0.70236 0.0
C118 C 0.94764 0.09425 0.76991 0.0
C119 C 1.00978 0.12256 0.77044 0.0
C120 C 0.01214 0.11107 0.72567 0.0
C121 C 0.97788 0.11405 0.7926 0.0
C122 C 0.94973 0.0829 0.72444 0.0
C123 C 0.98605 0.07836 0.65558 0.0
H124 H 0.98926 0.93354 0.29022 0.0
H125 H 0.99777 0.95078 0.3738 0.0
H126 H 0.04443 0.92918 0.24943 0.0
H127 H 0.1179 0.963 0.3745 0.0
H128 H 0.03278 0.13815 0.78805 0.0
H129 H 0.03733 0.11794 0.70932 0.0
H130 H 0.97649 0.12344 0.82727 0.0
H131 H 0.92634 0.06768 0.70683 0.0
C132 C 0.63795 0.56287 0.07919 0.0
C133 C 0.63104 0.63141 0.04894 0.0
C134 C 0.61524 0.59587 0.06588 0.0
C135 C 0.66967 0.63335 0.04532 0.0
C136 C 0.67667 0.56475 0.07526 0.0
C137 C 0.69238 0.60014 0.05839 0.0
N138 N 0.62197 0.52885 0.09478 0.0
C139 C 0.64309 0.49584 0.10801 0.0
C140 C 0.69843 0.53093 0.08818 0.0
C141 C 0.68156 0.49636 0.10466 0.0
Gd142 Gd 0.47724 0.49907 0.99877 0.0
Gd143 Gd 0.55836 0.53207 0.10267 0.0
N144 N 0.57763 0.59309 0.06857 0.0
C145 C 0.60757 0.66402 0.03624 0.0
C146 C 0.55512 0.625 0.05844 0.0
C147 C 0.56953 0.66082 0.0414 0.0
H148 H 0.52644 0.62337 0.06489 0.0
H149 H 0.55143 0.68602 0.03304 0.0
H150 H 0.50669 0.4075 0.03273 0.0
H151 H 0.6306 0.46922 0.12249 0.0
H152 H 0.48079 0.34497 0.06425 0.0
H153 H 0.61867 0.69185 0.0232 0.0
H154 H 0.68225 0.66042 0.03237 0.0
H155 H 0.4055 0.5629 0.97801 0.0
H156 H 0.72829 0.53123 0.08572 0.0
H157 H 0.69826 0.47014 0.11525 0.0
H158 H 0.35176 0.37326 0.0718 0.0
H159 H 0.72209 0.60213 0.0552 0.0
H160 H 0.30811 0.50333 0.02022 0.0
H161 H 0.33859 0.56354 0.98821 0.0
N162 N 0.41367 0.50342 0.00721 0.0
C163 C 0.39724 0.46981 0.02352 0.0
C164 C 0.39299 0.53671 0.99382 0.0
C165 C 0.33771 0.50296 0.01654 0.0
C166 C 0.35485 0.53705 0.99871 0.0
C167 C 0.35881 0.46875 0.0289 0.0
H168 H 0.31324 0.43239 0.05099 0.0
N169 N 0.45665 0.43847 0.03209 0.0
C170 C 0.41925 0.4364 0.03598 0.0
C171 C 0.42566 0.36807 0.0642 0.0
C172 C 0.40297 0.40118 0.05313 0.0
C173 C 0.47832 0.40615 0.04049 0.0
C174 C 0.46337 0.37054 0.0573 0.0
O175 O 0.56916 0.54265 0.02197 0.0
O176 O 0.50941 0.55173 0.97363 0.0
O177 O 0.48181 0.46891 0.93704 0.0
O178 O 0.43819 0.51282 0.92888 0.0
O179 O 0.49903 0.55714 0.0904 0.0
O180 O 0.47527 0.56068 0.00605 0.0
O181 O 0.46701 0.48789 0.07966 0.0
O182 O 0.5266 0.47922 0.12868 0.0
O183 O 0.55342 0.5624 0.16399 0.0
O184 O 0.5972 0.51847 0.17291 0.0
O185 O 0.53645 0.47272 0.01149 0.0
O186 O 0.56004 0.47049 0.09579 0.0
C187 C 0.54637 0.55538 0.97886 0.0
C188 C 0.47581 0.57218 0.04863 0.0
C189 C 0.43456 0.48255 0.85769 0.0
C190 C 0.43082 0.45258 0.78472 0.0
C191 C 0.38184 0.49774 0.78727 0.0
C192 C 0.40045 0.50255 0.83437 0.0
C193 C 0.39689 0.47303 0.76256 0.0
C194 C 0.4497 0.45707 0.83274 0.0
C195 C 0.45194 0.48739 0.90899 0.0
C196 C 0.36468 0.40006 0.05847 0.0
C197 C 0.34271 0.43374 0.04654 0.0
H198 H 0.41416 0.34043 0.07719 0.0
C199 C 0.48965 0.47523 0.12291 0.0
C200 C 0.55981 0.45858 0.05363 0.0
C201 C 0.59956 0.54856 0.24421 0.0
C202 C 0.60262 0.57899 0.31672 0.0
C203 C 0.65005 0.53133 0.3171 0.0
C204 C 0.6324 0.52704 0.26935 0.0
C205 C 0.63528 0.55701 0.34068 0.0
C206 C 0.58471 0.57502 0.26803 0.0
C207 C 0.58302 0.5438 0.19259 0.0
H208 H 0.35549 0.51309 0.76995 0.0
H209 H 0.38769 0.52176 0.85278 0.0
H210 H 0.38173 0.46952 0.726 0.0
H211 H 0.47563 0.44096 0.8503 0.0
H212 H 0.67542 0.51478 0.33583 0.0
H213 H 0.64487 0.50695 0.25195 0.0
H214 H 0.64969 0.56007 0.37778 0.0
H215 H 0.55975 0.59223 0.24913 0.0
H216 H 0.29529 0.15329 0.5489 0.0
H217 H 0.22938 0.23831 0.43406 0.0
H218 H 0.24018 0.11354 0.55265 0.0
H219 H 0.17262 0.2001 0.44048 0.0
H220 H 0.07913 0.11142 0.43995 0.0
H221 H 0.13511 0.14979 0.42797 0.0
H222 H 0.18671 0.10412 0.58283 0.0
H223 H 0.13163 0.06511 0.593 0.0
C224 C 0.26868 0.16356 0.52464 0.0
C225 C 0.26665 0.19883 0.49134 0.0
C226 C 0.23666 0.14097 0.52725 0.0
C227 C 0.20105 0.15355 0.49783 0.0
C228 C 0.19925 0.18889 0.46363 0.0
C229 C 0.2318 0.21109 0.46007 0.0
C230 C 0.10293 0.10941 0.47089 0.0
C231 C 0.10144 0.0852 0.51721 0.0
C232 C 0.13493 0.13177 0.46441 0.0
C233 C 0.16628 0.13018 0.50414 0.0
C234 C 0.16409 0.10584 0.55059 0.0
C235 C 0.13218 0.08371 0.55694 0.0
H236 H 0.32264 0.77196 0.98025 0.0
H237 H 0.35851 0.75085 0.14131 0.0
H238 H 0.35989 0.71784 0.97551 0.0
H239 H 0.39892 0.69892 0.13722 0.0
H240 H 0.45159 0.58909 0.1296 0.0
H241 H 0.41212 0.6417 0.13293 0.0
H242 H 0.40865 0.68428 0.97322 0.0
H243 H 0.44523 0.62905 0.97013 0.0
C244 C 0.33895 0.75581 0.01476 0.0
C245 C 0.33743 0.76546 0.06124 0.0
C246 C 0.36105 0.72465 0.01216 0.0
C247 C 0.38309 0.70264 0.05595 0.0
C248 C 0.38197 0.71343 0.10233 0.0
C249 C 0.35908 0.74393 0.10491 0.0
C250 C 0.44196 0.60964 0.09516 0.0
C251 C 0.4513 0.60477 0.0496 0.0
C252 C 0.4195 0.64062 0.09699 0.0
C253 C 0.40666 0.66871 0.05349 0.0
C254 C 0.41662 0.66364 0.00779 0.0
C255 C 0.43812 0.63187 0.00581 0.0
H256 H 0.81814 0.77416 0.60199 0.0
H257 H 0.74762 0.86241 0.62688 0.0
H258 H 0.86888 0.81905 0.5912 0.0
H259 H 0.79919 0.90813 0.61653 0.0
H260 H 0.88237 0.98403 0.52752 0.0
H261 H 0.83146 0.94128 0.54998 0.0
H262 H 0.91538 0.85553 0.63221 0.0
H263 H 0.96592 0.89875 0.61018 0.0
C264 C 0.81376 0.80325 0.60579 0.0
C265 C 0.77905 0.81477 0.61528 0.0
C266 C 0.84301 0.82901 0.59997 0.0
C267 C 0.83834 0.86731 0.60304 0.0
C268 C 0.80367 0.87888 0.61355 0.0
C269 C 0.77427 0.85272 0.61991 0.0
C270 C 0.88977 0.9562 0.55088 0.0
C271 C 0.92796 0.94445 0.56681 0.0
C272 C 0.86064 0.9317 0.56388 0.0
C273 C 0.86917 0.89482 0.59285 0.0
C274 C 0.90762 0.88343 0.60913 0.0
C275 C 0.93664 0.90798 0.59621 0.0
H276 H 0.74051 0.30085 0.04207 0.0
H277 H 0.64984 0.22931 0.08774 0.0
H278 H 0.70191 0.35758 0.03668 0.0
H279 H 0.60997 0.28543 0.07879 0.0
H280 H 0.56178 0.38956 0.11564 0.0
H281 H 0.60086 0.3341 0.11804 0.0
H282 H 0.65137 0.39793 0.99629 0.0
H283 H 0.61229 0.45356 0.99517 0.0
C284 C 0.712 0.29735 0.05009 0.0
C285 C 0.6982 0.26081 0.06585 0.0
C286 C 0.68966 0.32987 0.0467 0.0
C287 C 0.6527 0.32649 0.05793 0.0
C288 C 0.6386 0.28958 0.07151 0.0
C289 C 0.66128 0.25725 0.07617 0.0
C290 C 0.58143 0.39156 0.08966 0.0
C291 C 0.58394 0.42543 0.05492 0.0
C292 C 0.60359 0.35964 0.09046 0.0
C293 C 0.62923 0.36097 0.0569 0.0
C294 C 0.63217 0.39552 0.02283 0.0
C295 C 0.60956 0.42735 0.0217 0.0
H296 H 0.25301 0.94479 0.11254 0.0
H297 H 0.17738 0.85003 0.10768 0.0
H298 H 0.22735 0.95967 0.18379 0.0
H299 H 0.15114 0.86492 0.17717 0.0
H300 H 0.1205 0.87948 0.31688 0.0
H301 H 0.1653 0.86503 0.26583 0.0
H302 H 0.16644 0.98444 0.19653 0.0
H303 H 0.1223 0.99874 0.24917 0.0
C304 C 0.23126 0.92696 0.12734 0.0
C305 C 0.21725 0.89608 0.10551 0.0
C306 C 0.21648 0.93549 0.16774 0.0
C307 C 0.18749 0.91322 0.1866 0.0
C308 C 0.17414 0.88204 0.1647 0.0
C309 C 0.18892 0.87357 0.12471 0.0
C310 C 0.13128 0.90266 0.29174 0.0
C311 C 0.11785 0.94005 0.28621 0.0
C312 C 0.15668 0.89445 0.26229 0.0
C313 C 0.16864 0.92344 0.22615 0.0
C314 C 0.15772 0.96144 0.22388 0.0
C315 C 0.13237 0.96967 0.25373 0.0
H316 H 0.68297 0.69995 0.7819 0.0
H317 H 0.57709 0.68461 0.6852 0.0
H318 H 0.6588 0.66424 0.85358 0.0
H319 H 0.55517 0.6445 0.75361 0.0
H320 H 0.5074 0.58767 0.88611 0.0
H321 H 0.53025 0.62834 0.81848 0.0
H322 H 0.64501 0.61337 0.90454 0.0
H323 H 0.62082 0.5742 0.97344 0.0
C324 C 0.65455 0.68887 0.77579 0.0
C325 C 0.63237 0.69491 0.72723 0.0
C326 C 0.64073 0.66731 0.81708 0.0
C327 C 0.60469 0.65014 0.81091 0.0
C328 C 0.58259 0.65706 0.76202 0.0
C329 C 0.59573 0.67973 0.72155 0.0
C330 C 0.53752 0.59336 0.89086 0.0
C331 C 0.56199 0.57834 0.93611 0.0
C332 C 0.55115 0.61666 0.85113 0.0
C333 C 0.59013 0.62519 0.85443 0.0
C334 C 0.61476 0.60904 0.89966 0.0
C335 C 0.60088 0.58608 0.93977 0.0
H336 H 0.79485 0.1335 0.20078 0.0
H337 H 0.89311 0.11797 0.1357 0.0
H338 H 0.83033 0.10641 0.28389 0.0
H339 H 0.92857 0.09111 0.21854 0.0
H340 H 0.97478 0.0149 0.36924 0.0
H341 H 0.93724 0.03869 0.28582 0.0
H342 H 0.87842 0.11734 0.34777 0.0
H343 H 0.91407 0.09133 0.43038 0.0
C344 C 0.82407 0.12455 0.20411 0.0
C345 C 0.84082 0.12771 0.16115 0.0
C346 C 0.84456 0.10897 0.25197 0.0
C347 C 0.88249 0.09626 0.25832 0.0
C348 C 0.89925 0.09966 0.21534 0.0
C349 C 0.87878 0.11517 0.16756 0.0
C350 C 0.95342 0.03685 0.36495 0.0
C351 C 0.94769 0.05161 0.40665 0.0
C352 C 0.93217 0.05096 0.31695 0.0
C353 C 0.90468 0.08027 0.30951 0.0
C354 C 0.89886 0.09456 0.35155 0.0
C355 C 0.91992 0.08022 0.39924 0.0
H356 H 0.36299 0.38822 0.52236 0.0
H357 H 0.4198 0.28119 0.59509 0.0
H358 H 0.38871 0.41569 0.5952 0.0
H359 H 0.44646 0.30895 0.66878 0.0
H360 H 0.42949 0.37477 0.80369 0.0
H361 H 0.42312 0.33651 0.73809 0.0
H362 H 0.45298 0.43433 0.6338 0.0
H363 H 0.45887 0.47226 0.69897 0.0
C364 C 0.38097 0.37062 0.55427 0.0
C365 C 0.38945 0.33275 0.55345 0.0
C366 C 0.39611 0.38638 0.5957 0.0
C367 C 0.42045 0.36476 0.63722 0.0
C368 C 0.42803 0.32632 0.63717 0.0
C369 C 0.41267 0.31042 0.59537 0.0
C370 C 0.43661 0.38736 0.76748 0.0
C371 C 0.44433 0.42645 0.75605 0.0
C372 C 0.43269 0.36559 0.72982 0.0
C373 C 0.43624 0.38288 0.68042 0.0
C374 C 0.44914 0.42053 0.67124 0.0
C375 C 0.45308 0.44213 0.70869 0.0
H376 H 0.65956 0.64565 0.58275 0.0
H377 H 0.6139 0.75505 0.49904 0.0
H378 H 0.63669 0.61703 0.51019 0.0
H379 H 0.59 0.72614 0.42569 0.0
H380 H 0.60805 0.65649 0.29781 0.0
H381 H 0.61361 0.69539 0.36252 0.0
H382 H 0.57591 0.60042 0.46428 0.0
H383 H 0.57114 0.56176 0.40004 0.0
C384 C 0.6444 0.66349 0.54866 0.0
C385 C 0.63819 0.70239 0.54646 0.0
C386 C 0.63092 0.64709 0.50722 0.0
C387 C 0.61054 0.66908 0.46252 0.0
C388 C 0.60533 0.7084 0.45969 0.0
C389 C 0.6191 0.72495 0.50142 0.0
C390 C 0.5992 0.64471 0.33319 0.0
C391 C 0.58944 0.60615 0.34424 0.0
C392 C 0.60266 0.66684 0.37042 0.0
C393 C 0.59653 0.65048 0.41908 0.0
C394 C 0.5819 0.61348 0.4276 0.0
C395 C 0.57853 0.5915 0.39059 0.0
H396 H 0.8137 0.07321 0.00623 0.0
H397 H 0.824 0.19018 0.93208 0.0
H398 H 0.83602 0.05142 0.93758 0.0
H399 H 0.8463 0.16868 0.8641 0.0
H400 H 0.87908 0.1306 0.73903 0.0
H401 H 0.83369 0.13715 0.79345 0.0
H402 H 0.89713 0.05203 0.91165 0.0
H403 H 0.94178 0.04532 0.85675 0.0
C404 C 0.82039 0.09425 0.97506 0.0
C405 C 0.81726 0.13345 0.97472 0.0
C406 C 0.83304 0.08177 0.93568 0.0
C407 C 0.84284 0.10824 0.89512 0.0
C408 C 0.83818 0.14739 0.89398 0.0
C409 C 0.82552 0.15981 0.93319 0.0
C410 C 0.88212 0.11209 0.7758 0.0
C411 C 0.91388 0.08768 0.79404 0.0
C412 C 0.85649 0.11614 0.80724 0.0
C413 C 0.86239 0.09594 0.85744 0.0
C414 C 0.89168 0.06816 0.87336 0.0
C415 C 0.91732 0.06422 0.84196 0.0
H416 H 0.45212 0.34782 0.41557 0.0
H417 H 0.34469 0.34241 0.31684 0.0
H418 H 0.47755 0.38507 0.34791 0.0
H419 H 0.37162 0.37487 0.24646 0.0
H420 H 0.41485 0.45976 0.12779 0.0
H421 H 0.38894 0.42261 0.19584 0.0
H422 H 0.5029 0.4028 0.28378 0.0
H423 H 0.52768 0.44158 0.21606 0.0
C424 C 0.4338 0.35442 0.37905 0.0
C425 C 0.39578 0.34287 0.37253 0.0
C426 C 0.44888 0.37545 0.33901 0.0
C427 C 0.42712 0.38441 0.28994 0.0
C428 C 0.38964 0.37055 0.28305 0.0
C429 C 0.37408 0.35073 0.32373 0.0
C430 C 0.43431 0.44708 0.16152 0.0
C431 C 0.47348 0.45296 0.16557 0.0
C432 C 0.4194 0.42521 0.20133 0.0
C433 C 0.4432 0.40821 0.24686 0.0
C434 C 0.48259 0.41495 0.25072 0.0
C435 C 0.49732 0.43719 0.21106 0.0
H436 H 0.13886 0.90669 0.94649 0.0
H437 H 0.23928 0.92067 0.87931 0.0
H438 H 0.09969 0.93066 0.86525 0.0
H439 H 0.20105 0.94741 0.79865 0.0
H440 H 0.12638 0.9636 0.64973 0.0
H441 H 0.1632 0.9393 0.73054 0.0
H442 H 0.0741 0.97511 0.79972 0.0
H443 H 0.03459 0.99368 0.71673 0.0
C444 C 0.15263 0.91557 0.91427 0.0
C445 C 0.19218 0.91161 0.91929 0.0
C446 C 0.1301 0.9297 0.86734 0.0
C447 C 0.14653 0.94108 0.82407 0.0
C448 C 0.18648 0.93797 0.82986 0.0
C449 C 0.20881 0.92292 0.87654 0.0
C450 C 0.11388 0.96485 0.68187 0.0
C451 C 0.07671 0.97881 0.67616 0.0
C452 C 0.13579 0.95198 0.72919 0.0
C453 C 0.12234 0.95496 0.77317 0.0
C454 C 0.08556 0.97093 0.76748 0.0
C455 C 0.06282 0.98212 0.71962 0.0
loop_
_geom_bond_atom_site_label_1
_geom_bond_atom_site_label_2
_geom_bond_distance
_geom_bond_site_symmetry_2
_ccdc_geom_bond_type
H0 C5 0.930 . S
H1 C8 0.930 . S
H2 C10 0.930 . S
H3 C4 1.016 . S
C4 H3 1.016 . S
C4 N11 1.286 . S
C5 H0 0.930 . S
C5 C6 1.397 . S
C5 C7 1.361 1_556 S
C6 C5 1.397 . S
C6 C10 1.390 1_556 S
C7 C5 1.361 1_554 S
C7 C8 1.393 . S
C7 N11 1.413 . S
C8 H1 0.930 . S
C8 C7 1.393 . S
C8 C9 1.399 . S
C9 C8 1.399 . S
C9 C10 1.381 . S
C10 H2 0.930 . S
C10 C6 1.390 1_554 S
C10 C9 1.381 . S
N11 C4 1.286 . S
N11 C7 1.413 . S
H12 C17 0.930 . S
H13 C20 0.930 . S
H14 C22 0.930 . S
H15 C16 1.016 . S
C16 H15 1.016 . S
C16 N23 1.286 . S
C17 H12 0.930 . S
C17 C18 1.397 . S
C17 C19 1.361 . S
C18 C17 1.397 . S
C18 C22 1.390 . S
C19 C17 1.361 . S
C19 C20 1.393 . S
C19 N23 1.413 . S
C20 H13 0.930 . S
C20 C19 1.393 . S
C20 C21 1.399 . S
C21 C20 1.399 . S
C21 C22 1.381 . S
C22 H14 0.930 . S
C22 C18 1.390 . S
C22 C21 1.381 . S
N23 C16 1.286 . S
N23 C19 1.413 . S
H24 C29 0.930 1_556 S
H25 C32 0.930 . S
H26 C34 0.930 . S
H27 C28 1.016 . S
C28 H27 1.016 . S
C28 N35 1.286 . S
C29 H24 0.930 1_554 S
C29 C30 1.397 . S
C29 C31 1.361 . S
C30 C29 1.397 . S
C30 C34 1.390 . S
C31 C29 1.361 . S
C31 C32 1.393 . S
C31 N35 1.413 . S
C32 H25 0.930 . S
C32 C31 1.393 . S
C32 C33 1.399 . S
C33 C32 1.399 . S
C33 C34 1.381 . S
C34 H26 0.930 . S
C34 C30 1.390 . S
C34 C33 1.381 . S
N35 C28 1.286 . S
N35 C31 1.413 . S
H36 C41 0.930 . S
H37 C44 0.930 . S
H38 C46 0.930 . S
H39 C40 1.016 . S
C40 H39 1.016 . S
C40 N47 1.286 . S
C41 H36 0.930 . S
C41 C42 1.397 . S
C41 C43 1.361 . S
C42 C41 1.397 . S
C42 C46 1.390 . S
C43 C41 1.361 . S
C43 C44 1.393 . S
C43 N47 1.413 . S
C44 H37 0.930 . S
C44 C43 1.393 . S
C44 C45 1.399 . S
C45 C44 1.399 . S
C45 C46 1.381 . S
C46 H38 0.930 . S
C46 C42 1.390 . S
C46 C45 1.381 . S
N47 C40 1.286 . S
N47 C43 1.413 . S
C48 C50 1.422 . S
C48 C52 1.415 . S
C48 N54 1.369 . S
C49 C50 1.421 . S
C49 C51 1.417 . S
C49 C61 1.422 . S
C50 C48 1.422 . S
C50 C49 1.421 . S
C50 N60 1.359 . S
C51 C49 1.417 . S
C51 C53 1.329 . S
C51 H70 0.930 . S
C52 C48 1.415 . S
C52 C53 1.437 . S
C52 C56 1.413 . S
C53 C51 1.329 . S
C53 C52 1.437 . S
C53 H75 0.929 . S
N54 C48 1.369 . S
N54 C55 1.338 1_655 S
N54 Gd59 2.622 . S
C55 N54 1.338 1_455 S
C55 C57 1.378 . S
C55 H67 0.929 . S
C56 C52 1.413 . S
C56 C57 1.348 1_655 S
C56 H72 0.931 . S
C57 C55 1.378 . S
C57 C56 1.348 1_455 S
C57 H73 0.930 . S
Gd58 N78 2.622 . S
Gd58 N85 2.570 . S
Gd58 O92 2.353 1_465 S
Gd58 O93 2.468 . S
Gd58 O94 2.427 . S
Gd58 O96 2.388 1_455 S
Gd58 O97 2.386 . S
Gd58 O101 2.307 1_565 S
Gd58 C111 2.805 . S
Gd59 N54 2.622 . S
Gd59 N60 2.570 . S
Gd59 O91 2.386 . S
Gd59 O95 2.307 1_545 S
Gd59 O98 2.353 1_655 S
Gd59 O99 2.468 . S
Gd59 O100 2.427 . S
Gd59 O102 2.388 1_655 S
Gd59 C123 2.805 . S
N60 C50 1.359 . S
N60 Gd59 2.570 . S
N60 C62 1.343 . S
C61 C49 1.422 . S
C61 C63 1.321 . S
C61 H69 0.931 . S
C62 N60 1.343 . S
C62 C63 1.390 . S
C62 H64 0.931 . S
C63 C61 1.321 . S
C63 C62 1.390 . S
C63 H65 0.930 . S
H64 C62 0.931 . S
H65 C63 0.930 . S
H66 C89 0.931 . S
H67 C55 0.929 . S
H68 C90 0.930 . S
H69 C61 0.931 . S
H70 C51 0.930 . S
H71 C80 0.929 1_655 S
H72 C56 0.931 . S
H73 C57 0.930 . S
H74 C112 0.930 . S
H75 C53 0.929 . S
H76 C81 0.931 . S
H77 C82 0.930 1_655 S
N78 Gd58 2.622 . S
N78 C79 1.369 . S
N78 C80 1.338 . S
C79 N78 1.369 . S
C79 C83 1.415 . S
C79 C86 1.422 . S
C80 H71 0.929 1_455 S
C80 N78 1.338 . S
C80 C82 1.378 . S
C81 H76 0.931 . S
C81 C82 1.348 . S
C81 C83 1.413 . S
C82 H77 0.930 1_455 S
C82 C80 1.378 . S
C82 C81 1.348 . S
C83 C79 1.415 . S
C83 C81 1.413 . S
C83 C113 1.437 . S
H84 C113 0.929 . S
N85 Gd58 2.570 . S
N85 C86 1.359 . S
N85 C89 1.343 . S
C86 C79 1.422 . S
C86 N85 1.359 . S
C86 C88 1.421 . S
C87 C88 1.422 . S
C87 C90 1.321 . S
C87 H114 0.931 . S
C88 C86 1.421 . S
C88 C87 1.422 . S
C88 C112 1.417 . S
C89 H66 0.931 . S
C89 N85 1.343 . S
C89 C90 1.390 . S
C90 H68 0.930 . S
C90 C87 1.321 . S
C90 C89 1.390 . S
O91 Gd59 2.386 . S
O91 C103 1.265 . S
O92 Gd58 2.353 1_645 S
O92 C103 1.242 . S
O93 Gd58 2.468 . S
O93 C111 1.263 . S
O94 Gd58 2.427 . S
O94 C111 1.252 . S
O95 Gd59 2.307 1_565 S
O95 C104 1.261 . S
O96 Gd58 2.388 1_655 S
O96 C104 1.252 . S
O97 Gd58 2.386 . S
O97 C115 1.265 . S
O98 Gd59 2.353 1_455 S
O98 C115 1.242 1_545 S
O99 Gd59 2.468 . S
O99 C123 1.263 . S
O100 Gd59 2.427 . S
O100 C123 1.252 . S
O101 Gd58 2.307 1_545 S
O101 C116 1.261 . S
O102 Gd59 2.388 1_455 S
O102 C116 1.252 . S
C103 O91 1.265 . S
C103 O92 1.242 . S
C104 O95 1.261 . S
C104 O96 1.252 . S
C105 C108 1.394 . S
C105 C110 1.370 . S
C105 C111 1.500 . S
C106 C109 1.383 . S
C106 C110 1.395 . S
C107 C108 1.396 . S
C107 C109 1.365 . S
C107 H124 0.929 . S
C108 C105 1.394 . S
C108 C107 1.396 . S
C108 H125 0.930 . S
C109 C106 1.383 . S
C109 C107 1.365 . S
C109 H126 0.931 . S
C110 C105 1.370 . S
C110 C106 1.395 . S
C110 H127 0.930 . S
C111 Gd58 2.805 . S
C111 O93 1.263 . S
C111 O94 1.252 . S
C111 C105 1.500 . S
C112 H74 0.930 . S
C112 C88 1.417 . S
C112 C113 1.329 . S
C113 C83 1.437 . S
C113 H84 0.929 . S
C113 C112 1.329 . S
H114 C87 0.931 . S
C115 O97 1.265 . S
C115 O98 1.242 1_565 S
C116 O101 1.261 . S
C116 O102 1.252 . S
C117 C120 1.394 . S
C117 C122 1.370 . S
C117 C123 1.500 . S
C118 C121 1.383 . S
C118 C122 1.395 . S
C119 C120 1.396 . S
C119 C121 1.365 . S
C119 H128 0.929 . S
C120 C117 1.394 . S
C120 C119 1.396 . S
C120 H129 0.930 . S
C121 C118 1.383 . S
C121 C119 1.365 . S
C121 H130 0.931 . S
C122 C117 1.370 . S
C122 C118 1.395 . S
C122 H131 0.930 . S
C123 Gd59 2.805 . S
C123 O99 1.263 . S
C123 O100 1.252 . S
C123 C117 1.500 . S
H124 C107 0.929 . S
H125 C108 0.930 . S
H126 C109 0.931 . S
H127 C110 0.930 . S
H128 C119 0.929 . S
H129 C120 0.930 . S
H130 C121 0.931 . S
H131 C122 0.930 . S
C132 C134 1.422 . S
C132 C136 1.415 . S
C132 N138 1.369 . S
C133 C134 1.421 . S
C133 C135 1.417 . S
C133 C145 1.422 . S
C134 C132 1.422 . S
C134 C133 1.421 . S
C134 N144 1.359 . S
C135 C133 1.417 . S
C135 C137 1.329 . S
C135 H154 0.930 . S
C136 C132 1.415 . S
C136 C137 1.437 . S
C136 C140 1.413 . S
C137 C135 1.329 . S
C137 C136 1.437 . S
C137 H159 0.929 . S
N138 C132 1.369 . S
N138 C139 1.338 . S
N138 Gd143 2.622 . S
C139 N138 1.338 . S
C139 C141 1.378 . S
C139 H151 0.929 . S
C140 C136 1.413 . S
C140 C141 1.348 . S
C140 H156 0.931 . S
C141 C139 1.378 . S
C141 C140 1.348 . S
C141 H157 0.930 . S
Gd142 N162 2.618 1_556 S
Gd142 N169 2.568 1_556 S
Gd142 O176 2.360 . S
Gd142 O177 2.480 . S
Gd142 O178 2.440 . S
Gd142 O180 2.383 1_556 S
Gd142 O181 2.371 1_556 S
Gd142 O185 2.304 1_556 S
Gd142 C195 2.819 . S
Gd143 N138 2.622 . S
Gd143 N144 2.570 . S
Gd143 O175 2.386 . S
Gd143 O179 2.307 . S
Gd143 O182 2.353 . S
Gd143 O183 2.468 . S
Gd143 O184 2.427 . S
Gd143 O186 2.388 . S
Gd143 C207 2.805 . S
N144 C134 1.359 . S
N144 Gd143 2.570 . S
N144 C146 1.343 . S
C145 C133 1.422 . S
C145 C147 1.321 . S
C145 H153 0.931 . S
C146 N144 1.343 . S
C146 C147 1.390 . S
C146 H148 0.931 . S
C147 C145 1.321 . S
C147 C146 1.390 . S
C147 H149 0.930 . S
H148 C146 0.931 . S
H149 C147 0.930 . S
H150 C173 0.931 . S
H151 C139 0.929 . S
H152 C174 0.930 . S
H153 C145 0.931 . S
H154 C135 0.930 . S
H155 C164 0.929 . S
H156 C140 0.931 . S
H157 C141 0.930 . S
H158 C196 0.930 . S
H159 C137 0.929 . S
H160 C165 0.931 . S
H161 C166 0.929 . S
N162 Gd142 2.618 1_554 S
N162 C163 1.369 . S
N162 C164 1.338 1_554 S
C163 N162 1.369 . S
C163 C167 1.415 . S
C163 C170 1.422 . S
C164 H155 0.929 . S
C164 N162 1.338 1_556 S
C164 C166 1.384 . S
C165 H160 0.931 . S
C165 C166 1.343 1_554 S
C165 C167 1.413 . S
C166 H161 0.929 . S
C166 C164 1.384 . S
C166 C165 1.343 1_556 S
C167 C163 1.415 . S
C167 C165 1.413 . S
C167 C197 1.437 . S
H168 C197 0.929 . S
N169 Gd142 2.568 1_554 S
N169 C170 1.359 . S
N169 C173 1.343 . S
C170 C163 1.422 . S
C170 N169 1.359 . S
C170 C172 1.421 . S
C171 C172 1.422 . S
C171 C174 1.321 . S
C171 H198 0.931 . S
C172 C170 1.421 . S
C172 C171 1.422 . S
C172 C196 1.417 . S
C173 H150 0.931 . S
C173 N169 1.343 . S
C173 C174 1.390 . S
C174 H152 0.930 . S
C174 C171 1.321 . S
C174 C173 1.390 . S
O175 Gd143 2.386 . S
O175 C187 1.265 1_554 S
O176 Gd142 2.360 . S
O176 C187 1.242 . S
O177 Gd142 2.480 . S
O177 C195 1.263 . S
O178 Gd142 2.440 . S
O178 C195 1.252 . S
O179 Gd143 2.307 . S
O179 C188 1.261 . S
O180 Gd142 2.383 1_554 S
O180 C188 1.252 . S
O181 Gd142 2.371 1_554 S
O181 C199 1.265 . S
O182 Gd143 2.353 . S
O182 C199 1.242 . S
O183 Gd143 2.468 . S
O183 C207 1.263 . S
O184 Gd143 2.427 . S
O184 C207 1.252 . S
O185 Gd142 2.304 1_554 S
O185 C200 1.261 . S
O186 Gd143 2.388 . S
O186 C200 1.252 . S
C187 O175 1.265 1_556 S
C187 O176 1.242 . S
C188 O179 1.261 . S
C188 O180 1.252 . S
C189 C192 1.394 . S
C189 C194 1.370 . S
C189 C195 1.500 . S
C190 C193 1.383 . S
C190 C194 1.395 . S
C191 C192 1.396 . S
C191 C193 1.365 . S
C191 H208 0.929 . S
C192 C189 1.394 . S
C192 C191 1.396 . S
C192 H209 0.930 . S
C193 C190 1.383 . S
C193 C191 1.365 . S
C193 H210 0.931 . S
C194 C189 1.370 . S
C194 C190 1.395 . S
C194 H211 0.930 . S
C195 Gd142 2.819 . S
C195 O177 1.263 . S
C195 O178 1.252 . S
C195 C189 1.500 . S
C196 H158 0.930 . S
C196 C172 1.417 . S
C196 C197 1.329 . S
C197 C167 1.437 . S
C197 H168 0.929 . S
C197 C196 1.329 . S
H198 C171 0.931 . S
C199 O181 1.265 . S
C199 O182 1.242 . S
C200 O185 1.261 . S
C200 O186 1.252 . S
C201 C204 1.394 . S
C201 C206 1.370 . S
C201 C207 1.500 . S
C202 C205 1.383 . S
C202 C206 1.395 . S
C203 C204 1.396 . S
C203 C205 1.365 . S
C203 H212 0.929 . S
C204 C201 1.394 . S
C204 C203 1.396 . S
C204 H213 0.930 . S
C205 C202 1.383 . S
C205 C203 1.365 . S
C205 H214 0.931 . S
C206 C201 1.370 . S
C206 C202 1.395 . S
C206 H215 0.930 . S
C207 Gd143 2.805 . S
C207 O183 1.263 . S
C207 O184 1.252 . S
C207 C201 1.500 . S
H208 C191 0.929 . S
H209 C192 0.930 . S
H210 C193 0.931 . S
H211 C194 0.930 . S
H212 C203 0.929 . S
H213 C204 0.930 . S
H214 C205 0.931 . S
H215 C206 0.930 . S
H216 C224 0.950 . S
H217 C229 0.950 . S
H218 C226 0.950 . S
H219 C228 0.950 . S
H220 C230 0.950 . S
H221 C232 0.950 . S
H222 C234 0.950 . S
H223 C235 0.950 . S
C224 H216 0.950 . S
C224 C225 1.386 . S
C224 C226 1.391 . S
C225 C224 1.386 . S
C225 C229 1.393 . S
C226 H218 0.950 . S
C226 C224 1.391 . S
C226 C227 1.400 . S
C227 C226 1.400 . S
C227 C228 1.398 . S
C227 C233 1.491 . S
C228 H219 0.950 . S
C228 C227 1.398 . S
C228 C229 1.391 . S
C229 H217 0.950 . S
C229 C225 1.393 . S
C229 C228 1.391 . S
C230 H220 0.950 . S
C230 C231 1.386 . S
C230 C232 1.391 . S
C231 C230 1.386 . S
C231 C235 1.393 . S
C232 H221 0.950 . S
C232 C230 1.391 . S
C232 C233 1.400 . S
C233 C227 1.491 . S
C233 C232 1.400 . S
C233 C234 1.398 . S
C234 H222 0.950 . S
C234 C233 1.398 . S
C234 C235 1.391 . S
C235 H223 0.950 . S
C235 C231 1.393 . S
C235 C234 1.391 . S
H236 C244 0.950 1_556 S
H237 C249 0.950 . S
H238 C246 0.950 1_556 S
H239 C248 0.950 . S
H240 C250 0.950 . S
H241 C252 0.950 . S
H242 C254 0.950 1_556 S
H243 C255 0.950 1_556 S
C244 H236 0.950 1_554 S
C244 C245 1.386 . S
C244 C246 1.391 . S
C245 C244 1.386 . S
C245 C249 1.393 . S
C246 H238 0.950 1_554 S
C246 C244 1.391 . S
C246 C247 1.400 . S
C247 C246 1.400 . S
C247 C248 1.398 . S
C247 C253 1.491 . S
C248 H239 0.950 . S
C248 C247 1.398 . S
C248 C249 1.391 . S
C249 H237 0.950 . S
C249 C245 1.393 . S
C249 C248 1.391 . S
C250 H240 0.950 . S
C250 C251 1.386 . S
C250 C252 1.391 . S
C251 C250 1.386 . S
C251 C255 1.393 . S
C252 H241 0.950 . S
C252 C250 1.391 . S
C252 C253 1.400 . S
C253 C247 1.491 . S
C253 C252 1.400 . S
C253 C254 1.398 . S
C254 H242 0.950 1_554 S
C254 C253 1.398 . S
C254 C255 1.391 . S
C255 H243 0.950 1_554 S
C255 C251 1.393 . S
C255 C254 1.391 . S
H256 C264 0.950 . S
H257 C269 0.950 . S
H258 C266 0.950 . S
H259 C268 0.950 . S
H260 C270 0.950 . S
H261 C272 0.950 . S
H262 C274 0.950 . S
H263 C275 0.950 . S
C264 H256 0.950 . S
C264 C265 1.386 . S
C264 C266 1.391 . S
C265 C264 1.386 . S
C265 C269 1.393 . S
C266 H258 0.950 . S
C266 C264 1.391 . S
C266 C267 1.400 . S
C267 C266 1.400 . S
C267 C268 1.398 . S
C267 C273 1.491 . S
C268 H259 0.950 . S
C268 C267 1.398 . S
C268 C269 1.391 . S
C269 H257 0.950 . S
C269 C265 1.393 . S
C269 C268 1.391 . S
C270 H260 0.950 . S
C270 C271 1.386 . S
C270 C272 1.391 . S
C271 C270 1.386 . S
C271 C275 1.393 . S
C272 H261 0.950 . S
C272 C270 1.391 . S
C272 C273 1.400 . S
C273 C267 1.491 . S
C273 C272 1.400 . S
C273 C274 1.398 . S
C274 H262 0.950 . S
C274 C273 1.398 . S
C274 C275 1.391 . S
C275 H263 0.950 . S
C275 C271 1.393 . S
C275 C274 1.391 . S
H276 C284 0.950 . S
H277 C289 0.950 . S
H278 C286 0.950 . S
H279 C288 0.950 . S
H280 C290 0.950 . S
H281 C292 0.950 . S
H282 C294 0.950 . S
H283 C295 0.950 . S
C284 H276 0.950 . S
C284 C285 1.386 . S
C284 C286 1.391 . S
C285 C284 1.386 . S
C285 C289 1.393 . S
C286 H278 0.950 . S
C286 C284 1.391 . S
C286 C287 1.400 . S
C287 C286 1.400 . S
C287 C288 1.398 . S
C287 C293 1.491 . S
C288 H279 0.950 . S
C288 C287 1.398 . S
C288 C289 1.391 . S
C289 H277 0.950 . S
C289 C285 1.393 . S
C289 C288 1.391 . S
C290 H280 0.950 . S
C290 C291 1.386 . S
C290 C292 1.391 . S
C291 C290 1.386 . S
C291 C295 1.393 . S
C292 H281 0.950 . S
C292 C290 1.391 . S
C292 C293 1.400 . S
C293 C287 1.491 . S
C293 C292 1.400 . S
C293 C294 1.398 . S
C294 H282 0.950 . S
C294 C293 1.398 . S
C294 C295 1.391 . S
C295 H283 0.950 . S
C295 C291 1.393 . S
C295 C294 1.391 . S
H296 C304 0.950 . S
H297 C309 0.950 . S
H298 C306 0.950 . S
H299 C308 0.950 . S
H300 C310 0.950 . S
H301 C312 0.950 . S
H302 C314 0.950 . S
H303 C315 0.950 . S
C304 H296 0.950 . S
C304 C305 1.386 . S
C304 C306 1.391 . S
C305 C304 1.386 . S
C305 C309 1.393 . S
C306 H298 0.950 . S
C306 C304 1.391 . S
C306 C307 1.400 . S
C307 C306 1.400 . S
C307 C308 1.398 . S
C307 C313 1.491 . S
C308 H299 0.950 . S
C308 C307 1.398 . S
C308 C309 1.391 . S
C309 H297 0.950 . S
C309 C305 1.393 . S
C309 C308 1.391 . S
C310 H300 0.950 . S
C310 C311 1.386 . S
C310 C312 1.391 . S
C311 C310 1.386 . S
C311 C315 1.393 . S
C312 H301 0.950 . S
C312 C310 1.391 . S
C312 C313 1.400 . S
C313 C307 1.491 . S
C313 C312 1.400 . S
C313 C314 1.398 . S
C314 H302 0.950 . S
C314 C313 1.398 . S
C314 C315 1.391 . S
C315 H303 0.950 . S
C315 C311 1.393 . S
C315 C314 1.391 . S
H316 C324 0.950 . S
H317 C329 0.950 . S
H318 C326 0.950 . S
H319 C328 0.950 . S
H320 C330 0.950 . S
H321 C332 0.950 . S
H322 C334 0.950 . S
H323 C335 0.950 . S
C324 H316 0.950 . S
C324 C325 1.386 . S
C324 C326 1.391 . S
C325 C324 1.386 . S
C325 C329 1.393 . S
C326 H318 0.950 . S
C326 C324 1.391 . S
C326 C327 1.400 . S
C327 C326 1.400 . S
C327 C328 1.398 . S
C327 C333 1.491 . S
C328 H319 0.950 . S
C328 C327 1.398 . S
C328 C329 1.391 . S
C329 H317 0.950 . S
C329 C325 1.393 . S
C329 C328 1.391 . S
C330 H320 0.950 . S
C330 C331 1.386 . S
C330 C332 1.391 . S
C331 C330 1.386 . S
C331 C335 1.393 . S
C332 H321 0.950 . S
C332 C330 1.391 . S
C332 C333 1.400 . S
C333 C327 1.491 . S
C333 C332 1.400 . S
C333 C334 1.398 . S
C334 H322 0.950 . S
C334 C333 1.398 . S
C334 C335 1.391 . S
C335 H323 0.950 . S
C335 C331 1.393 . S
C335 C334 1.391 . S
H336 C344 0.950 . S
H337 C349 0.950 . S
H338 C346 0.950 . S
H339 C348 0.950 . S
H340 C350 0.950 . S
H341 C352 0.950 . S
H342 C354 0.950 . S
H343 C355 0.950 . S
C344 H336 0.950 . S
C344 C345 1.386 . S
C344 C346 1.391 . S
C345 C344 1.386 . S
C345 C349 1.393 . S
C346 H338 0.950 . S
C346 C344 1.391 . S
C346 C347 1.400 . S
C347 C346 1.400 . S
C347 C348 1.398 . S
C347 C353 1.491 . S
C348 H339 0.950 . S
C348 C347 1.398 . S
C348 C349 1.391 . S
C349 H337 0.950 . S
C349 C345 1.393 . S
C349 C348 1.391 . S
C350 H340 0.950 . S
C350 C351 1.386 . S
C350 C352 1.391 . S
C351 C350 1.386 . S
C351 C355 1.393 . S
C352 H341 0.950 . S
C352 C350 1.391 . S
C352 C353 1.400 . S
C353 C347 1.491 . S
C353 C352 1.400 . S
C353 C354 1.398 . S
C354 H342 0.950 . S
C354 C353 1.398 . S
C354 C355 1.391 . S
C355 H343 0.950 . S
C355 C351 1.393 . S
C355 C354 1.391 . S
H356 C364 0.950 . S
H357 C369 0.950 . S
H358 C366 0.950 . S
H359 C368 0.950 . S
H360 C370 0.950 . S
H361 C372 0.950 . S
H362 C374 0.950 . S
H363 C375 0.950 . S
C364 H356 0.950 . S
C364 C365 1.386 . S
C364 C366 1.391 . S
C365 C364 1.386 . S
C365 C369 1.393 . S
C366 H358 0.950 . S
C366 C364 1.391 . S
C366 C367 1.400 . S
C367 C366 1.400 . S
C367 C368 1.398 . S
C367 C373 1.491 . S
C368 H359 0.950 . S
C368 C367 1.398 . S
C368 C369 1.391 . S
C369 H357 0.950 . S
C369 C365 1.393 . S
C369 C368 1.391 . S
C370 H360 0.950 . S
C370 C371 1.386 . S
C370 C372 1.391 . S
C371 C370 1.386 . S
C371 C375 1.393 . S
C372 H361 0.950 . S
C372 C370 1.391 . S
C372 C373 1.400 . S
C373 C367 1.491 . S
C373 C372 1.400 . S
C373 C374 1.398 . S
C374 H362 0.950 . S
C374 C373 1.398 . S
C374 C375 1.391 . S
C375 H363 0.950 . S
C375 C371 1.393 . S
C375 C374 1.391 . S
H376 C384 0.950 . S
H377 C389 0.950 . S
H378 C386 0.950 . S
H379 C388 0.950 . S
H380 C390 0.950 . S
H381 C392 0.950 . S
H382 C394 0.950 . S
H383 C395 0.950 . S
C384 H376 0.950 . S
C384 C385 1.386 . S
C384 C386 1.391 . S
C385 C384 1.386 . S
C385 C389 1.393 . S
C386 H378 0.950 . S
C386 C384 1.391 . S
C386 C387 1.400 . S
C387 C386 1.400 . S
C387 C388 1.398 . S
C387 C393 1.491 . S
C388 H379 0.950 . S
C388 C387 1.398 . S
C388 C389 1.391 . S
C389 H377 0.950 . S
C389 C385 1.393 . S
C389 C388 1.391 . S
C390 H380 0.950 . S
C390 C391 1.386 . S
C390 C392 1.391 . S
C391 C390 1.386 . S
C391 C395 1.393 . S
C392 H381 0.950 . S
C392 C390 1.391 . S
C392 C393 1.400 . S
C393 C387 1.491 . S
C393 C392 1.400 . S
C393 C394 1.398 . S
C394 H382 0.950 . S
C394 C393 1.398 . S
C394 C395 1.391 . S
C395 H383 0.950 . S
C395 C391 1.393 . S
C395 C394 1.391 . S
H396 C404 0.950 1_554 S
H397 C409 0.950 . S
H398 C406 0.950 . S
H399 C408 0.950 . S
H400 C410 0.950 . S
H401 C412 0.950 . S
H402 C414 0.950 . S
H403 C415 0.950 . S
C404 H396 0.950 1_556 S
C404 C405 1.386 . S
C404 C406 1.391 . S
C405 C404 1.386 . S
C405 C409 1.393 . S
C406 H398 0.950 . S
C406 C404 1.391 . S
C406 C407 1.400 . S
C407 C406 1.400 . S
C407 C408 1.398 . S
C407 C413 1.491 . S
C408 H399 0.950 . S
C408 C407 1.398 . S
C408 C409 1.391 . S
C409 H397 0.950 . S
C409 C405 1.393 . S
C409 C408 1.391 . S
C410 H400 0.950 . S
C410 C411 1.386 . S
C410 C412 1.391 . S
C411 C410 1.386 . S
C411 C415 1.393 . S
C412 H401 0.950 . S
C412 C410 1.391 . S
C412 C413 1.400 . S
C413 C407 1.491 . S
C413 C412 1.400 . S
C413 C414 1.398 . S
C414 H402 0.950 . S
C414 C413 1.398 . S
C414 C415 1.391 . S
C415 H403 0.950 . S
C415 C411 1.393 . S
C415 C414 1.391 . S
H416 C424 0.950 . S
H417 C429 0.950 . S
H418 C426 0.950 . S
H419 C428 0.950 . S
H420 C430 0.950 . S
H421 C432 0.950 . S
H422 C434 0.950 . S
H423 C435 0.950 . S
C424 H416 0.950 . S
C424 C425 1.386 . S
C424 C426 1.391 . S
C425 C424 1.386 . S
C425 C429 1.393 . S
C426 H418 0.950 . S
C426 C424 1.391 . S
C426 C427 1.400 . S
C427 C426 1.400 . S
C427 C428 1.398 . S
C427 C433 1.491 . S
C428 H419 0.950 . S
C428 C427 1.398 . S
C428 C429 1.391 . S
C429 H417 0.950 . S
C429 C425 1.393 . S
C429 C428 1.391 . S
C430 H420 0.950 . S
C430 C431 1.386 . S
C430 C432 1.391 . S
C431 C430 1.386 . S
C431 C435 1.393 . S
C432 H421 0.950 . S
C432 C430 1.391 . S
C432 C433 1.400 . S
C433 C427 1.491 . S
C433 C432 1.400 . S
C433 C434 1.398 . S
C434 H422 0.950 . S
C434 C433 1.398 . S
C434 C435 1.391 . S
C435 H423 0.950 . S
C435 C431 1.393 . S
C435 C434 1.391 . S
H436 C444 0.950 . S
H437 C449 0.950 . S
H438 C446 0.950 . S
H439 C448 0.950 . S
H440 C450 0.950 . S
H441 C452 0.950 . S
H442 C454 0.950 . S
H443 C455 0.950 . S
C444 H436 0.950 . S
C444 C445 1.386 . S
C444 C446 1.391 . S
C445 C444 1.386 . S
C445 C449 1.393 . S
C446 H438 0.950 . S
C446 C444 1.391 . S
C446 C447 1.400 . S
C447 C446 1.400 . S
C447 C448 1.398 . S
C447 C453 1.491 . S
C448 H439 0.950 . S
C448 C447 1.398 . S
C448 C449 1.391 . S
C449 H437 0.950 . S
C449 C445 1.393 . S
C449 C448 1.391 . S
C450 H440 0.950 . S
C450 C451 1.386 . S
C450 C452 1.391 . S
C451 C450 1.386 . S
C451 C455 1.393 . S
C452 H441 0.950 . S
C452 C450 1.391 . S
C452 C453 1.400 . S
C453 C447 1.491 . S
C453 C452 1.400 . S
C453 C454 1.398 . S
C454 H442 0.950 . S
C454 C453 1.398 . S
C454 C455 1.391 . S
C455 H443 0.950 . S
C455 C451 1.393 . S
C455 C454 1.391 . S
C231 C116 1.660 . S
C225 C40 1.654 . S
C245 C4 1.665 . S
C251 C188 1.643 . S
C265 C16 1.653 . S
C271 C104 1.676 . S
C285 C28 1.636 . S
C291 C200 1.622 . S
C311 C106 1.434 . S
C305 C9 1.601 . S
C331 C187 1.707 . S
C325 C18 1.710 . S
C345 C33 1.641 . S
C351 C103 1.651 . S
C365 C45 1.609 . S
C371 C190 1.447 . S
C391 C202 1.384 . S
C385 C21 1.566 . S
C411 C118 1.374 . S
C405 C30 1.569 1_556 S
C431 C199 1.639 . S
C425 C42 1.636 . S
C445 C6 1.584 . S
C451 C115 1.592 . S
