# Generated by pormake.
# Topology pyr, (3,6)-cn, num edge types: 1
# Building blocks:
#     Node 0, Type 0, BuildingBlock: BETDIP_clean_linker_0, # of connection points: 3
#     Node 1, Type 0, BuildingBlock: BETDIP_clean_linker_0, # of connection points: 3
#     Node 2, Type 0, BuildingBlock: BETDIP_clean_linker_0, # of connection points: 3
#     Node 3, Type 0, BuildingBlock: BETDIP_clean_linker_0, # of connection points: 3
#     Node 4, Type 0, BuildingBlock: BETDIP_clean_linker_0, # of connection points: 3
#     Node 5, Type 0, BuildingBlock: BETDIP_clean_linker_0, # of connection points: 3
#     Node 6, Type 0, BuildingBlock: BETDIP_clean_linker_0, # of connection points: 3
#     Node 7, Type 0, BuildingBlock: BETDIP_clean_linker_0, # of connection points: 3
#     Node 8, Type 1, BuildingBlock: VOLQOD_clean_sbu_1, # of connection points: 6
#     Node 9, Type 1, BuildingBlock: VOLQOD_clean_sbu_1, # of connection points: 6
#     Node 10, Type 1, BuildingBlock: VOLQOD_clean_sbu_1, # of connection points: 6
#     Node 11, Type 1, BuildingBlock: VOLQOD_clean_sbu_1, # of connection points: 6
#     Edge 12, Type (0, 1), BuildingBlock: XUDNAN_clean_linker_2, # of connection points: 2
#     Edge 13, Type (0, 1), BuildingBlock: XUDNAN_clean_linker_2, # of connection points: 2
#     Edge 14, Type (0, 1), BuildingBlock: XUDNAN_clean_linker_2, # of connection points: 2
#     Edge 15, Type (0, 1), BuildingBlock: XUDNAN_clean_linker_2, # of connection points: 2
#     Edge 16, Type (0, 1), BuildingBlock: XUDNAN_clean_linker_2, # of connection points: 2
#     Edge 17, Type (0, 1), BuildingBlock: XUDNAN_clean_linker_2, # of connection points: 2
#     Edge 18, Type (0, 1), BuildingBlock: XUDNAN_clean_linker_2, # of connection points: 2
#     Edge 19, Type (0, 1), BuildingBlock: XUDNAN_clean_linker_2, # of connection points: 2
#     Edge 20, Type (0, 1), BuildingBlock: XUDNAN_clean_linker_2, # of connection points: 2
#     Edge 21, Type (0, 1), BuildingBlock: XUDNAN_clean_linker_2, # of connection points: 2
#     Edge 22, Type (0, 1), BuildingBlock: XUDNAN_clean_linker_2, # of connection points: 2
#     Edge 23, Type (0, 1), BuildingBlock: XUDNAN_clean_linker_2, # of connection points: 2
#     Edge 24, Type (0, 1), BuildingBlock: XUDNAN_clean_linker_2, # of connection points: 2
#     Edge 25, Type (0, 1), BuildingBlock: XUDNAN_clean_linker_2, # of connection points: 2
#     Edge 26, Type (0, 1), BuildingBlock: XUDNAN_clean_linker_2, # of connection points: 2
#     Edge 27, Type (0, 1), BuildingBlock: XUDNAN_clean_linker_2, # of connection points: 2
#     Edge 28, Type (0, 1), BuildingBlock: XUDNAN_clean_linker_2, # of connection points: 2
#     Edge 29, Type (0, 1), BuildingBlock: XUDNAN_clean_linker_2, # of connection points: 2
#     Edge 30, Type (0, 1), BuildingBlock: XUDNAN_clean_linker_2, # of connection points: 2
#     Edge 31, Type (0, 1), BuildingBlock: XUDNAN_clean_linker_2, # of connection points: 2
#     Edge 32, Type (0, 1), BuildingBlock: XUDNAN_clean_linker_2, # of connection points: 2
#     Edge 33, Type (0, 1), BuildingBlock: XUDNAN_clean_linker_2, # of connection points: 2
#     Edge 34, Type (0, 1), BuildingBlock: XUDNAN_clean_linker_2, # of connection points: 2
#     Edge 35, Type (0, 1), BuildingBlock: XUDNAN_clean_linker_2, # of connection points: 2
# Relax obj value: 0.107
# Max RMSD: 0.184
# Mean RMSD: 0.150
data_MOF--net-pry--node1-VOLQOD_clean_sbu_1--node2-BETDIP_clean_linker_0--edge1-XUDNAN_clean_linker_2
_symmetry_space_group_name_H-M    P1
_symmetry_Int_Tables_number       1
_symmetry_cell_setting            triclinic
loop_
_symmetry_equiv_pos_as_xyz
'x, y, z'
_cell_length_a     36.68799
_cell_length_b     36.202136
_cell_length_c     38.378187
_cell_angle_alpha  93.507543
_cell_angle_beta   85.502782
_cell_angle_gamma 97.436157
loop_
_atom_site_label
_atom_site_type_symbol
_atom_site_fract_x
_atom_site_fract_y
_atom_site_fract_z
_atom_type_partial_charge
H0 H 0.09405 0.15205 0.18696 0.0
H1 H 0.17865 0.1492 0.10247 0.0
H2 H 0.19425 0.1078 0.20196 0.0
H3 H 0.15092 0.19105 0.08012 0.0
C4 C 0.12323 0.19166 0.09207 0.0
C5 C 0.12054 0.1444 0.17657 0.0
C6 C 0.14285 0.12906 0.19838 0.0
C7 C 0.13328 0.15244 0.14207 0.0
C8 C 0.16826 0.14341 0.12894 0.0
C9 C 0.19065 0.12766 0.15058 0.0
C10 C 0.1774 0.12021 0.18505 0.0
N11 N 0.11102 0.17162 0.12245 0.0
H12 H 0.34566 0.90462 0.71 0.0
H13 H 0.35351 0.82413 0.62339 0.0
H14 H 0.4179 0.82065 0.71185 0.0
H15 H 0.34954 0.88416 0.5944 0.0
C16 C 0.32486 0.8897 0.6104 0.0
C17 C 0.35799 0.8811 0.69752 0.0
C18 C 0.38252 0.8637 0.71525 0.0
C19 C 0.34871 0.86788 0.66382 0.0
C20 C 0.36274 0.83578 0.64832 0.0
C21 C 0.3867 0.81752 0.66618 0.0
C22 C 0.39782 0.83311 0.69868 0.0
N23 N 0.32322 0.88584 0.64709 0.0
H24 H 0.69034 0.42472 0.87915 0.0
H25 H 0.58212 0.36283 0.88313 0.0
H26 H 0.65098 0.35887 0.96745 0.0
H27 H 0.58879 0.36875 0.82518 0.0
C28 C 0.60392 0.39628 0.82189 0.0
C29 C 0.66897 0.40678 0.89322 0.0
C30 C 0.67529 0.39319 0.92549 0.0
C31 C 0.63564 0.39613 0.87775 0.0
C32 C 0.60809 0.37136 0.8946 0.0
C33 C 0.61382 0.3576 0.92679 0.0
C34 C 0.64693 0.36942 0.94244 0.0
N35 N 0.6308 0.41114 0.84536 0.0
H36 H 0.86698 0.55336 0.38848 0.0
H37 H 0.96055 0.63475 0.36491 0.0
H38 H 0.87107 0.66544 0.43442 0.0
H39 H 0.98874 0.57745 0.36269 0.0
C40 C 0.96995 0.56536 0.3433 0.0
C41 C 0.88105 0.58141 0.39201 0.0
C42 C 0.86486 0.60807 0.41423 0.0
C43 C 0.91589 0.59053 0.37479 0.0
C44 C 0.93414 0.627 0.37892 0.0
C45 C 0.91821 0.65389 0.40068 0.0
C46 C 0.88376 0.64422 0.41837 0.0
N47 N 0.93143 0.5634 0.35199 0.0
H48 H 0.84817 0.90236 0.93931 0.0
H49 H 0.91837 0.87393 0.84963 0.0
H50 H 0.84308 0.95449 0.8422 0.0
H51 H 0.8982 0.81494 0.87374 0.0
C52 C 0.90674 0.82324 0.89988 0.0
C53 C 0.85808 0.90631 0.91227 0.0
C54 C 0.8433 0.93177 0.89282 0.0
C55 C 0.88458 0.88486 0.89658 0.0
C56 C 0.89702 0.88969 0.86144 0.0
C57 C 0.8821 0.91445 0.84135 0.0
C58 C 0.85559 0.93595 0.85748 0.0
N59 N 0.89763 0.85762 0.91598 0.0
H60 H 0.64213 0.08274 0.34534 0.0
H61 H 0.64688 0.16415 0.43174 0.0
H62 H 0.57363 0.17094 0.35069 0.0
H63 H 0.69043 0.13466 0.4498 0.0
C64 C 0.69579 0.11125 0.43199 0.0
C65 C 0.63311 0.10769 0.35854 0.0
C66 C 0.60646 0.12541 0.34428 0.0
C67 C 0.64828 0.12149 0.38966 0.0
C68 C 0.63598 0.15329 0.40729 0.0
C69 C 0.60907 0.17138 0.3933 0.0
C70 C 0.59488 0.15768 0.36133 0.0
N71 N 0.67555 0.10204 0.40193 0.0
H72 H 0.36264 0.55866 0.12613 0.0
H73 H 0.44518 0.65013 0.15049 0.0
H74 H 0.37594 0.65706 0.06643 0.0
H75 H 0.41529 0.63081 0.20815 0.0
C76 C 0.42065 0.60202 0.20338 0.0
C77 C 0.37689 0.58602 0.12054 0.0
C78 C 0.36596 0.60593 0.09367 0.0
C79 C 0.40455 0.60233 0.14179 0.0
C80 C 0.4231 0.63778 0.13468 0.0
C81 C 0.41297 0.6575 0.10742 0.0
C82 C 0.38398 0.64174 0.08741 0.0
N83 N 0.41273 0.58316 0.17079 0.0
H84 H 0.03792 0.39663 0.60298 0.0
H85 H 0.13618 0.47455 0.61032 0.0
H86 H 0.14433 0.35737 0.5937 0.0
H87 H 0.06145 0.52325 0.6368 0.0
C88 C 0.06856 0.4961 0.64231 0.0
C89 C 0.06772 0.40194 0.60233 0.0
C90 C 0.08903 0.37225 0.59748 0.0
C91 C 0.08456 0.43859 0.60772 0.0
C92 C 0.12319 0.44613 0.60637 0.0
C93 C 0.14484 0.41677 0.60113 0.0
C94 C 0.12755 0.38004 0.59699 0.0
N95 N 0.06205 0.46736 0.61575 0.0
O96 O 0.99569 0.08221 0.56111 0.0
Zn97 Zn 0.97713 0.02928 0.54659 0.0
O98 O 0.01448 0.00672 0.51569 0.0
Zn99 Zn 0.99676 0.99512 0.46899 0.0
Zn100 Zn 0.05979 0.04135 0.51135 0.0
Zn101 Zn 0.02452 0.96094 0.53543 0.0
O102 O 0.99719 0.9409 0.45479 0.0
O103 O 0.01183 0.91628 0.50266 0.0
O104 O 0.93078 0.03067 0.52164 0.0
O105 O 0.9446 0.00591 0.46858 0.0
O106 O 0.02704 0.02525 0.43188 0.0
O107 O 0.07191 0.0557 0.46171 0.0
O108 O 0.10322 0.01878 0.52638 0.0
O109 O 0.9635 0.00078 0.59056 0.0
O110 O 0.07833 0.96331 0.54442 0.0
O111 O 0.9947 0.95206 0.5809 0.0
C112 C 0.02668 0.1022 0.55634 0.0
C113 C 0.00253 0.91282 0.47123 0.0
C114 C 0.05651 0.04795 0.43315 0.0
C115 C 0.92205 0.02011 0.49078 0.0
C116 C 0.10621 0.9877 0.53908 0.0
C117 C 0.97231 0.97013 0.59988 0.0
O118 O 0.05377 0.08957 0.53882 0.0
O119 O 0.50036 0.08895 0.98053 0.0
Zn120 Zn 0.47763 0.03648 0.99148 0.0
O121 O 0.51007 0.01303 0.01961 0.0
Zn122 Zn 0.52849 0.97129 0.99374 0.0
Zn123 Zn 0.55121 0.04909 0.03348 0.0
Zn124 Zn 0.48234 0.99325 0.06071 0.0
O125 O 0.51996 0.92501 0.02097 0.0
O126 O 0.47396 0.93711 0.05926 0.0
O127 O 0.46574 0.00458 0.94727 0.0
O128 O 0.5006 0.95914 0.95085 0.0
O129 O 0.5827 0.98173 0.98115 0.0
O130 O 0.59962 0.03629 0.00885 0.0
O131 O 0.55527 0.05179 0.08612 0.0
O132 O 0.42985 0.04411 0.0202 0.0
O133 O 0.50914 0.00947 0.10333 0.0
O134 O 0.43524 0.01511 0.06861 0.0
C135 C 0.52358 0.11103 0.99733 0.0
C136 C 0.49477 0.9145 0.04424 0.0
C137 C 0.60741 0.00827 0.98916 0.0
C138 C 0.477 0.97398 0.93553 0.0
C139 C 0.53654 0.03337 0.11015 0.0
C140 C 0.41783 0.03462 0.05084 0.0
O141 O 0.54267 0.0996 0.01985 0.0
O142 O 0.5477 0.51807 0.58903 0.0
Zn143 Zn 0.53752 0.53954 0.5446 0.0
O144 O 0.50757 0.50374 0.5157 0.0
Zn145 Zn 0.53703 0.48916 0.47348 0.0
Zn146 Zn 0.49134 0.45976 0.54251 0.0
Zn147 Zn 0.46498 0.52696 0.50341 0.0
O148 O 0.51372 0.50162 0.43066 0.0
O149 O 0.46553 0.53019 0.45097 0.0
O150 O 0.58685 0.55473 0.5204 0.0
O151 O 0.58902 0.51652 0.47294 0.0
O152 O 0.54043 0.43358 0.47002 0.0
O153 O 0.50676 0.41345 0.51729 0.0
O154 O 0.43651 0.4534 0.5514 0.0
O155 O 0.51165 0.58391 0.5593 0.0
O156 O 0.4174 0.49694 0.52138 0.0
O157 O 0.46322 0.57851 0.52727 0.0
C158 C 0.53598 0.48784 0.60366 0.0
C159 C 0.48615 0.5182 0.42559 0.0
C160 C 0.5266 0.40719 0.48937 0.0
C161 C 0.60427 0.54228 0.49312 0.0
C162 C 0.41065 0.46946 0.54117 0.0
C163 C 0.48315 0.59625 0.55004 0.0
O164 O 0.51348 0.46303 0.58913 0.0
O165 O 0.99758 0.50899 0.07684 0.0
Zn166 Zn 0.99571 0.48341 0.02889 0.0
O167 O 0.02673 0.51208 0.9939 0.0
Zn168 Zn 0.99622 0.52532 0.95838 0.0
Zn169 Zn 0.05114 0.55789 0.01625 0.0
Zn170 Zn 0.06327 0.48134 0.97204 0.0
O171 O 0.01683 0.51073 0.91011 0.0
O172 O 0.06117 0.47689 0.91953 0.0
O173 O 0.94366 0.47325 0.0157 0.0
O174 O 0.94385 0.50019 0.96519 0.0
O175 O 0.99455 0.58039 0.96025 0.0
O176 O 0.03381 0.60449 0.99926 0.0
O177 O 0.10651 0.55987 0.00913 0.0
O178 O 0.01198 0.4331 0.03245 0.0
O179 O 0.11403 0.50484 0.98251 0.0
O180 O 0.05724 0.42979 0.99101 0.0
C181 C 0.01755 0.53773 0.08861 0.0
C182 C 0.04199 0.491 0.89874 0.0
C183 C 0.01067 0.60842 0.97704 0.0
C184 C 0.92716 0.48081 0.98958 0.0
C185 C 0.1273 0.53593 0.9966 0.0
C186 C 0.03598 0.4152 0.01567 0.0
O187 O 0.03968 0.55812 0.0684 0.0
H188 H 0.08148 0.08813 0.22895 0.0
H189 H 0.18127 0.1604 0.25227 0.0
H190 H 0.1681 0.14992 0.31521 0.0
H191 H 0.02524 0.11397 0.30897 0.0
H192 H 0.00292 0.067 0.31371 0.0
H193 H 0.01817 0.08303 0.27081 0.0
H194 H 0.05643 0.02761 0.25941 0.0
H195 H 0.04155 0.01159 0.30233 0.0
H196 H 0.09005 0.02097 0.28954 0.0
H197 H 0.14695 0.12873 0.37434 0.0
H198 H 0.11851 0.09853 0.42724 0.0
H199 H 0.0324 0.03861 0.36642 0.0
C200 C 0.09999 0.10228 0.24752 0.0
C201 C 0.13226 0.1252 0.23605 0.0
C202 C 0.15641 0.14276 0.26078 0.0
C203 C 0.14913 0.13704 0.29649 0.0
C204 C 0.11759 0.11362 0.30701 0.0
C205 C 0.09328 0.09658 0.28341 0.0
C206 C 0.06258 0.07103 0.30168 0.0
C207 C 0.025 0.08458 0.29861 0.0
C208 C 0.06268 0.0304 0.28739 0.0
C209 C 0.07388 0.07597 0.33903 0.0
C210 C 0.10553 0.1009 0.34145 0.0
C211 C 0.12198 0.10936 0.3729 0.0
C212 C 0.10562 0.09193 0.40281 0.0
C213 C 0.07317 0.06614 0.40111 0.0
C214 C 0.05712 0.05823 0.36869 0.0
H215 H 0.39965 0.93499 0.74509 0.0
H216 H 0.38375 0.81787 0.76846 0.0
H217 H 0.40371 0.83438 0.82764 0.0
H218 H 0.47974 0.96082 0.78987 0.0
H219 H 0.46802 0.0055 0.80724 0.0
H220 H 0.44991 0.98541 0.76711 0.0
H221 H 0.3834 0.99034 0.79335 0.0
H222 H 0.40132 0.01079 0.83351 0.0
H223 H 0.3679 0.96966 0.83432 0.0
H224 H 0.43144 0.86152 0.88087 0.0
H225 H 0.4602 0.89929 0.92924 0.0
H226 H 0.45495 0.00016 0.87519 0.0
C227 C 0.3997 0.91299 0.76296 0.0
C228 C 0.39072 0.87508 0.75195 0.0
C229 C 0.3913 0.84702 0.77603 0.0
C230 C 0.40237 0.8561 0.8098 0.0
C231 C 0.4122 0.89346 0.81947 0.0
C232 C 0.41045 0.92163 0.79716 0.0
C233 C 0.42355 0.95945 0.81436 0.0
C234 C 0.45731 0.97893 0.79339 0.0
C235 C 0.39217 0.98401 0.81917 0.0
C236 C 0.43378 0.94785 0.84935 0.0
C237 C 0.42701 0.90957 0.85146 0.0
C238 C 0.43632 0.89158 0.87988 0.0
C239 C 0.45289 0.91325 0.90707 0.0
C240 C 0.4596 0.95256 0.90595 0.0
C241 C 0.44961 0.97017 0.87684 0.0
H242 H 0.55922 0.37249 0.76968 0.0
H243 H 0.63539 0.46662 0.80518 0.0
H244 H 0.62519 0.50055 0.7537 0.0
H245 H 0.58627 0.3783 0.67811 0.0
H246 H 0.54024 0.36553 0.66441 0.0
H247 H 0.55298 0.34888 0.70446 0.0
H248 H 0.4986 0.37731 0.73869 0.0
H249 H 0.48573 0.39409 0.69874 0.0
H250 H 0.49475 0.42615 0.73577 0.0
H251 H 0.60731 0.52395 0.69838 0.0
H252 H 0.58353 0.5352 0.64221 0.0
H253 H 0.51903 0.42569 0.6424 0.0
C254 C 0.57365 0.40028 0.76657 0.0
C255 C 0.59807 0.41694 0.79127 0.0
C256 C 0.6166 0.45328 0.78648 0.0
C257 C 0.61095 0.47281 0.75737 0.0
C258 C 0.58673 0.45557 0.73342 0.0
C259 C 0.5684 0.42013 0.73763 0.0
C260 C 0.54425 0.40779 0.70777 0.0
C261 C 0.5567 0.37308 0.68749 0.0
C262 C 0.50341 0.40095 0.72104 0.0
C263 C 0.55198 0.44182 0.68606 0.0
C264 C 0.57647 0.46907 0.70139 0.0
C265 C 0.58807 0.50287 0.68612 0.0
C266 C 0.57438 0.50897 0.65419 0.0
C267 C 0.54938 0.48134 0.63784 0.0
C268 C 0.53802 0.44741 0.6542 0.0
H269 H 0.93435 0.53123 0.28709 0.0
H270 H 0.03797 0.5922 0.31672 0.0
H271 H 0.06142 0.59232 0.25452 0.0
H272 H 0.97478 0.47272 0.21734 0.0
H273 H 0.93725 0.47314 0.18981 0.0
H274 H 0.92909 0.47728 0.2367 0.0
H275 H 0.90131 0.5388 0.23132 0.0
H276 H 0.90972 0.53505 0.18446 0.0
H277 H 0.92825 0.57651 0.20877 0.0
H278 H 0.07175 0.58976 0.18922 0.0
H279 H 0.07127 0.57845 0.12517 0.0
H280 H 0.96212 0.51617 0.13819 0.0
C281 C 0.96207 0.5443 0.28046 0.0
C282 C 0.98444 0.56187 0.30649 0.0
C283 C 0.02058 0.57853 0.29698 0.0
C284 C 0.03403 0.57887 0.2618 0.0
C285 C 0.01108 0.56194 0.23662 0.0
C286 C 0.97612 0.54441 0.2455 0.0
C287 C 0.9573 0.52792 0.21334 0.0
C288 C 0.94914 0.48523 0.21437 0.0
C289 C 0.92206 0.54564 0.20924 0.0
C290 C 0.98697 0.53935 0.18499 0.0
C291 C 0.01762 0.55925 0.19898 0.0
C292 C 0.04807 0.57389 0.17795 0.0
C293 C 0.04744 0.56752 0.14161 0.0
C294 C 0.01672 0.54631 0.12675 0.0
C295 C 0.9861 0.53221 0.14883 0.0
H296 H 0.21574 0.09688 0.08669 0.0
H297 H 0.25189 0.14317 0.18719 0.0
H298 H 0.31371 0.12574 0.17109 0.0
H299 H 0.26505 0.01968 0.07963 0.0
H300 H 0.27812 0.02181 0.03346 0.0
H301 H 0.2367 0.03975 0.05141 0.0
H302 H 0.25993 0.10396 0.0261 0.0
H303 H 0.3013 0.0861 0.00771 0.0
H304 H 0.30444 0.1275 0.03645 0.0
H305 H 0.36835 0.09754 0.14818 0.0
H306 H 0.41733 0.06632 0.11584 0.0
H307 H 0.34989 0.04251 0.02723 0.0
C308 C 0.2369 0.10399 0.10496 0.0
C309 C 0.22874 0.12072 0.13851 0.0
C310 C 0.25716 0.12945 0.16175 0.0
C311 C 0.29247 0.11993 0.15277 0.0
C312 C 0.29928 0.10238 0.12012 0.0
C313 C 0.27272 0.0951 0.09619 0.0
C314 C 0.28772 0.07543 0.06304 0.0
C315 C 0.26557 0.03688 0.05652 0.0
C316 C 0.28839 0.0997 0.03145 0.0
C317 C 0.32646 0.07197 0.07266 0.0
C318 C 0.33221 0.08761 0.10586 0.0
C319 C 0.36454 0.08578 0.12191 0.0
C320 C 0.39202 0.06773 0.10347 0.0
C321 C 0.38728 0.05221 0.06914 0.0
C322 C 0.35421 0.05459 0.05333 0.0
H323 H 0.25155 0.8873 0.6318 0.0
H324 H 0.33474 0.9325 0.55398 0.0
H325 H 0.2883 0.96491 0.52863 0.0
H326 H 0.17896 0.86892 0.57266 0.0
H327 H 0.14332 0.88001 0.60521 0.0
H328 H 0.18354 0.8622 0.6182 0.0
H329 H 0.1961 0.91986 0.66099 0.0
H330 H 0.15601 0.93794 0.64799 0.0
H331 H 0.20034 0.96599 0.64467 0.0
H332 H 0.23329 0.99432 0.51356 0.0
H333 H 0.172 0.01221 0.50472 0.0
H334 H 0.12354 0.9431 0.58901 0.0
C335 C 0.25994 0.90423 0.60955 0.0
C336 C 0.2967 0.90801 0.59501 0.0
C337 C 0.30665 0.92958 0.56547 0.0
C338 C 0.28055 0.94813 0.55105 0.0
C339 C 0.24451 0.9441 0.56612 0.0
C340 C 0.23403 0.92214 0.59431 0.0
C341 C 0.19309 0.92064 0.60424 0.0
C342 C 0.17358 0.88056 0.5998 0.0
C343 C 0.18598 0.9371 0.64169 0.0
C344 C 0.18222 0.9454 0.5774 0.0
C345 C 0.21239 0.95913 0.55602 0.0
C346 C 0.20941 0.98349 0.52994 0.0
C347 C 0.17456 0.99364 0.52523 0.0
C348 C 0.14309 0.97887 0.54605 0.0
C349 C 0.14711 0.95454 0.57252 0.0
H350 H 0.72556 0.45728 0.92001 0.0
H351 H 0.70967 0.34779 0.96389 0.0
H352 H 0.76951 0.36139 0.98899 0.0
H353 H 0.82028 0.45265 0.89238 0.0
H354 H 0.8343 0.50176 0.90081 0.0
H355 H 0.78795 0.48569 0.88963 0.0
H356 H 0.76241 0.51873 0.94645 0.0
H357 H 0.80872 0.53478 0.9579 0.0
H358 H 0.77712 0.50816 0.98806 0.0
H359 H 0.83092 0.38577 0.00912 0.0
H360 H 0.89374 0.41675 0.01729 0.0
H361 H 0.87391 0.50698 0.95451 0.0
C362 C 0.73449 0.43599 0.93477 0.0
C363 C 0.71192 0.40177 0.94057 0.0
C364 C 0.72525 0.37491 0.96014 0.0
C365 C 0.75955 0.38216 0.97432 0.0
C366 C 0.78083 0.41605 0.96813 0.0
C367 C 0.7692 0.4423 0.94835 0.0
C368 C 0.79892 0.47512 0.94322 0.0
C369 C 0.81108 0.47901 0.90419 0.0
C370 C 0.78601 0.51134 0.95991 0.0
C371 C 0.82908 0.46295 0.96303 0.0
C372 C 0.81767 0.42913 0.97776 0.0
C373 C 0.8403 0.41222 0.99766 0.0
C374 C 0.87585 0.4301 0.00224 0.0
C375 C 0.88865 0.46415 0.98643 0.0
C376 C 0.86485 0.48085 0.96671 0.0
H377 H 0.80304 0.56678 0.38893 0.0
H378 H 0.84331 0.62894 0.48156 0.0
H379 H 0.78096 0.61939 0.51096 0.0
H380 H 0.7161 0.59985 0.39252 0.0
H381 H 0.69095 0.5559 0.37894 0.0
H382 H 0.73902 0.56642 0.36505 0.0
H383 H 0.75305 0.50597 0.39131 0.0
H384 H 0.70493 0.49501 0.40492 0.0
H385 H 0.73912 0.49772 0.43655 0.0
H386 H 0.71446 0.60657 0.52915 0.0
H387 H 0.64795 0.58624 0.53753 0.0
H388 H 0.65033 0.52964 0.43431 0.0
C389 C 0.79889 0.5778 0.41561 0.0
C390 C 0.82802 0.59897 0.43281 0.0
C391 C 0.8213 0.61327 0.46761 0.0
C392 C 0.78603 0.60786 0.4846 0.0
C393 C 0.7578 0.58771 0.46663 0.0
C394 C 0.76381 0.57242 0.43314 0.0
C395 C 0.72844 0.55196 0.41986 0.0
C396 C 0.71803 0.5696 0.38716 0.0
C397 C 0.73158 0.51018 0.41275 0.0
C398 C 0.70163 0.55855 0.45104 0.0
C399 C 0.71923 0.57941 0.47759 0.0
C400 C 0.70035 0.58995 0.5087 0.0
C401 C 0.66248 0.57839 0.51309 0.0
C402 C 0.64381 0.55625 0.48661 0.0
C403 C 0.66377 0.54641 0.45509 0.0
H404 H 0.14471 0.24374 0.04395 0.0
H405 H 0.052 0.20217 0.11415 0.0
H406 H 0.0176 0.25207 0.09802 0.0
H407 H 0.13953 0.33845 0.0638 0.0
H408 H 0.15193 0.35323 0.01997 0.0
H409 H 0.16775 0.31186 0.0339 0.0
H410 H 0.1383 0.27327 0.98184 0.0
H411 H 0.12248 0.31462 0.96766 0.0
H412 H 0.09009 0.27372 0.97595 0.0
H413 H 0.9957 0.30956 0.07876 0.0
H414 H 0.9873 0.37041 0.05714 0.0
H415 H 0.09403 0.37478 0.99891 0.0
C416 C 0.11688 0.24477 0.05534 0.0
C417 C 0.10098 0.21912 0.08019 0.0
C418 C 0.06473 0.22152 0.09502 0.0
C419 C 0.04492 0.24971 0.08595 0.0
C420 C 0.06168 0.27508 0.06189 0.0
C421 C 0.09676 0.27277 0.04661 0.0
C422 C 0.10932 0.30493 0.02323 0.0
C423 C 0.14418 0.3285 0.03601 0.0
C424 C 0.1154 0.29078 0.98489 0.0
C425 C 0.0762 0.32619 0.02847 0.0
C426 C 0.04893 0.3083 0.05064 0.0
C427 C 0.01663 0.32359 0.06101 0.0
C428 C 0.01219 0.35825 0.04867 0.0
C429 C 0.03993 0.37732 0.02619 0.0
C430 C 0.07209 0.36069 0.01564 0.0
H431 H 0.58241 0.29366 0.89423 0.0
H432 H 0.58773 0.35361 0.99538 0.0
H433 H 0.55586 0.29785 0.02377 0.0
H434 H 0.49051 0.2334 0.91534 0.0
H435 H 0.50647 0.19411 0.89029 0.0
H436 H 0.52204 0.24089 0.87726 0.0
H437 H 0.58968 0.2281 0.87903 0.0
H438 H 0.57449 0.1817 0.89267 0.0
H439 H 0.60483 0.21311 0.91885 0.0
H440 H 0.53716 0.23367 0.0419 0.0
H441 H 0.52659 0.16568 0.04854 0.0
H442 H 0.52987 0.14672 0.93579 0.0
C443 C 0.57524 0.29554 0.92214 0.0
C444 C 0.58733 0.32788 0.94267 0.0
C445 C 0.57868 0.32902 0.97927 0.0
C446 C 0.56047 0.29757 0.99556 0.0
C447 C 0.55062 0.26544 0.97479 0.0
C448 C 0.55697 0.26436 0.93878 0.0
C449 C 0.54748 0.22518 0.92298 0.0
C450 C 0.51466 0.22329 0.90012 0.0
C451 C 0.58113 0.21123 0.90218 0.0
C452 C 0.53694 0.20408 0.95588 0.0
C453 C 0.53857 0.22798 0.98543 0.0
C454 C 0.53461 0.21478 0.01901 0.0
C455 C 0.52896 0.1762 0.02252 0.0
C456 C 0.52703 0.15132 0.99265 0.0
C457 C 0.53033 0.16539 0.95896 0.0
H458 H 0.93114 0.69581 0.46108 0.0
H459 H 0.94655 0.69896 0.34807 0.0
H460 H 0.97379 0.76507 0.35379 0.0
H461 H 0.90461 0.78536 0.47754 0.0
H462 H 0.92853 0.79568 0.51694 0.0
H463 H 0.91272 0.74808 0.50389 0.0
H464 H 0.97907 0.731 0.50513 0.0
H465 H 0.99509 0.7786 0.51825 0.0
H466 H 0.01631 0.75669 0.4798 0.0
H467 H 0.99328 0.83214 0.37184 0.0
H468 H 0.00746 0.89459 0.40101 0.0
H469 H 0.98215 0.84666 0.50231 0.0
C470 C 0.9406 0.71041 0.4376 0.0
C471 C 0.93684 0.69251 0.40414 0.0
C472 C 0.94957 0.71225 0.37393 0.0
C473 C 0.96494 0.74973 0.37693 0.0
C474 C 0.96782 0.76675 0.41034 0.0
C475 C 0.95642 0.74761 0.44015 0.0
C476 C 0.96171 0.77257 0.47292 0.0
C477 C 0.92469 0.7756 0.49405 0.0
C478 C 0.98972 0.7589 0.49534 0.0
C479 C 0.977 0.80901 0.45687 0.0
C480 C 0.98029 0.80509 0.42074 0.0
C481 C 0.99143 0.83545 0.40011 0.0
C482 C 0.99928 0.87078 0.41688 0.0
C483 C 0.99627 0.8753 0.45386 0.0
C484 C 0.9854 0.84389 0.47401 0.0
H485 H 0.40359 0.7915 0.59747 0.0
H486 H 0.39439 0.759 0.70539 0.0
H487 H 0.41891 0.70079 0.68659 0.0
H488 H 0.37378 0.69613 0.5616 0.0
H489 H 0.40407 0.70131 0.52242 0.0
H490 H 0.38601 0.74145 0.54394 0.0
H491 H 0.45246 0.77487 0.54802 0.0
H492 H 0.47074 0.73472 0.52685 0.0
H493 H 0.48554 0.75266 0.56899 0.0
H494 H 0.44944 0.64957 0.65841 0.0
H495 H 0.4757 0.60123 0.62005 0.0
H496 H 0.45873 0.66021 0.52872 0.0
C497 C 0.40633 0.77197 0.61708 0.0
C498 C 0.39827 0.78079 0.65316 0.0
C499 C 0.4019 0.75402 0.67781 0.0
C500 C 0.41549 0.72053 0.6674 0.0
C501 C 0.42436 0.71335 0.63204 0.0
C502 C 0.41914 0.73762 0.60702 0.0
C503 C 0.42996 0.7218 0.57058 0.0
C504 C 0.39645 0.71475 0.54832 0.0
C505 C 0.46156 0.74755 0.55256 0.0
C506 C 0.44272 0.68536 0.57938 0.0
C507 C 0.43959 0.68158 0.61513 0.0
C508 C 0.45151 0.65178 0.63031 0.0
C509 C 0.46662 0.62466 0.60836 0.0
C510 C 0.46906 0.62706 0.5716 0.0
C511 C 0.45681 0.6577 0.55679 0.0
H512 H 0.89478 0.97601 0.80069 0.0
H513 H 0.89306 0.85558 0.7954 0.0
H514 H 0.91403 0.85699 0.73301 0.0
H515 H 0.86139 0.98094 0.71347 0.0
H516 H 0.89015 0.0241 0.70471 0.0
H517 H 0.87397 0.01381 0.74904 0.0
H518 H 0.94129 0.02326 0.76701 0.0
H519 H 0.95767 0.03344 0.72275 0.0
H520 H 0.9747 0.99664 0.74387 0.0
H521 H 0.93892 0.87122 0.67277 0.0
H522 H 0.96338 0.8974 0.61662 0.0
H523 H 0.9459 0.00826 0.65886 0.0
C524 C 0.89833 0.9499 0.78629 0.0
C525 C 0.8928 0.91575 0.80319 0.0
C526 C 0.89799 0.88222 0.78337 0.0
C527 C 0.9096 0.88265 0.74779 0.0
C528 C 0.91543 0.91675 0.73213 0.0
C529 C 0.90965 0.94975 0.75052 0.0
C530 C 0.91851 0.98258 0.72722 0.0
C531 C 0.88394 0.00147 0.72338 0.0
C532 C 0.94991 0.01063 0.74104 0.0
C533 C 0.93072 0.96284 0.69311 0.0
C534 C 0.92873 0.92487 0.69666 0.0
C535 C 0.94021 0.90085 0.66948 0.0
C536 C 0.9542 0.916 0.63775 0.0
C537 C 0.95632 0.9548 0.63333 0.0
C538 C 0.94409 0.97843 0.66134 0.0
H539 H 0.61222 0.1522 0.2785 0.0
H540 H 0.56405 0.05885 0.3394 0.0
H541 H 0.54083 0.02535 0.28591 0.0
H542 H 0.53993 0.14597 0.21641 0.0
H543 H 0.57223 0.15772 0.17971 0.0
H544 H 0.58253 0.1755 0.22319 0.0
H545 H 0.64409 0.14698 0.21583 0.0
H546 H 0.63374 0.12868 0.17253 0.0
H547 H 0.6435 0.0978 0.20475 0.0
H548 H 0.52499 0.00123 0.2265 0.0
H549 H 0.51558 0.98787 0.16395 0.0
H550 H 0.57587 0.09579 0.14015 0.0
C551 C 0.5961 0.12505 0.28045 0.0
C552 C 0.58936 0.10806 0.31283 0.0
C553 C 0.56904 0.0722 0.31467 0.0
C554 C 0.55589 0.05303 0.28451 0.0
C555 C 0.5636 0.07008 0.25276 0.0
C556 C 0.58308 0.10529 0.25042 0.0
C557 C 0.58874 0.11639 0.21271 0.0
C558 C 0.56972 0.15094 0.20772 0.0
C559 C 0.62997 0.12283 0.20076 0.0
C560 C 0.5696 0.08183 0.19432 0.0
C561 C 0.55519 0.05561 0.21803 0.0
C562 C 0.53605 0.02153 0.20763 0.0
C563 C 0.53091 0.01421 0.17202 0.0
C564 C 0.54508 0.04073 0.14714 0.0
C565 C 0.56505 0.07482 0.15849 0.0
H566 H 0.41565 0.62346 0.27225 0.0
H567 H 0.45077 0.53613 0.19979 0.0
H568 H 0.47091 0.5046 0.24909 0.0
H569 H 0.488 0.62799 0.3297 0.0
H570 H 0.45883 0.63517 0.36891 0.0
H571 H 0.44727 0.65065 0.32793 0.0
H572 H 0.38289 0.61175 0.33506 0.0
H573 H 0.39424 0.59619 0.37611 0.0
H574 H 0.37962 0.56255 0.34181 0.0
H575 H 0.49026 0.4848 0.30604 0.0
H576 H 0.50318 0.47542 0.36693 0.0
H577 H 0.45151 0.57361 0.4024 0.0
C578 C 0.42751 0.59763 0.26687 0.0
C579 C 0.43178 0.58215 0.23242 0.0
C580 C 0.44716 0.54828 0.22614 0.0
C581 C 0.45874 0.53028 0.25392 0.0
C582 C 0.4542 0.54633 0.2877 0.0
C583 C 0.43855 0.57901 0.2943 0.0
C584 C 0.43617 0.59017 0.33299 0.0
C585 C 0.45893 0.62824 0.3403 0.0
C586 C 0.39583 0.59015 0.34733 0.0
C587 C 0.45335 0.5589 0.34713 0.0
C588 C 0.46385 0.53406 0.32057 0.0
C589 C 0.4818 0.50382 0.32709 0.0
C590 C 0.48912 0.49881 0.36169 0.0
C591 C 0.47805 0.52363 0.38932 0.0
C592 C 0.45978 0.5539 0.38185 0.0
H593 H 0.04518 0.53839 0.6981 0.0
H594 H 0.09342 0.43572 0.67248 0.0
H595 H 0.09248 0.42454 0.73452 0.0
H596 H 0.09219 0.56565 0.77664 0.0
H597 H 0.05271 0.5829 0.79991 0.0
H598 H 0.05858 0.58397 0.75293 0.0
H599 H 0.99393 0.54632 0.74807 0.0
H600 H 0.98791 0.54509 0.79502 0.0
H601 H 0.98341 0.50222 0.76836 0.0
H602 H 0.08735 0.42448 0.80012 0.0
H603 H 0.0748 0.43431 0.86404 0.0
H604 H 0.02662 0.5346 0.84731 0.0
C605 C 0.05578 0.51364 0.70552 0.0
C606 C 0.06938 0.48821 0.67987 0.0
C607 C 0.08261 0.45593 0.6908 0.0
C608 C 0.08235 0.44921 0.7264 0.0
C609 C 0.06847 0.47472 0.75085 0.0
C610 C 0.05515 0.50617 0.74091 0.0
C611 C 0.04039 0.52844 0.77238 0.0
C612 C 0.06228 0.56755 0.77565 0.0
C613 C 0.99895 0.53062 0.77086 0.0
C614 C 0.04755 0.50456 0.80154 0.0
C615 C 0.06413 0.47391 0.7886 0.0
C616 C 0.07419 0.44828 0.81058 0.0
C617 C 0.06702 0.45411 0.84681 0.0
C618 C 0.0495 0.48502 0.86057 0.0
C619 C 0.03964 0.51045 0.83752 0.0
H620 H 0.77646 0.90017 0.91913 0.0
H621 H 0.84058 0.00708 0.90029 0.0
H622 H 0.78783 0.0393 0.92511 0.0
H623 H 0.69204 0.92516 0.89358 0.0
H624 H 0.66365 0.89799 0.92565 0.0
H625 H 0.70727 0.88401 0.90887 0.0
H626 H 0.72789 0.88502 0.97205 0.0
H627 H 0.68428 0.89894 0.98904 0.0
H628 H 0.72661 0.92679 -3e-05 0.0
H629 H 0.7274 0.05929 0.95302 0.0
H630 H 0.66338 0.06522 0.97663 0.0
H631 H 0.63859 0.94465 0.97256 0.0
C632 C 0.77945 0.93038 0.9207 0.0
C633 C 0.81253 0.95133 0.90843 0.0
C634 C 0.81538 0.99074 0.90993 0.0
C635 C 0.78566 0.00916 0.924 0.0
C636 C 0.75324 0.98763 0.93587 0.0
C637 C 0.74991 0.94907 0.93397 0.0
C638 C 0.7116 0.93221 0.94645 0.0
C639 C 0.69252 0.90845 0.91687 0.0
C640 C 0.71268 0.9094 0.9788 0.0
C641 C 0.69378 0.96724 0.95574 0.0
C642 C 0.71826 0.99899 0.94996 0.0
C643 C 0.70797 0.03459 0.95743 0.0
C644 C 0.67164 0.03771 0.97088 0.0
C645 C 0.646 0.00542 0.97607 0.0
C646 C 0.65744 0.96986 0.96843 0.0
H647 H 0.74309 0.12316 0.48433 0.0
H648 H 0.71723 0.05081 0.39278 0.0
H649 H 0.76982 0.01722 0.40072 0.0
H650 H 0.83972 0.13197 0.46848 0.0
H651 H 0.84952 0.13116 0.51371 0.0
H652 H 0.80804 0.148 0.50267 0.0
H653 H 0.76897 0.09995 0.54218 0.0
H654 H 0.8104 0.08298 0.55338 0.0
H655 H 0.77404 0.05112 0.53513 0.0
H656 H 0.82753 0.99472 0.41518 0.0
H657 H 0.88663 0.98358 0.43643 0.0
H658 H 0.87516 0.06893 0.51972 0.0
C659 C 0.74831 0.09992 0.4663 0.0
C660 C 0.7261 0.08966 0.43799 0.0
C661 C 0.73381 0.05929 0.41469 0.0
C662 C 0.76362 0.0399 0.419 0.0
C663 C 0.78528 0.05099 0.44688 0.0
C664 C 0.77796 0.0801 0.4703 0.0
C665 C 0.80659 0.08719 0.49716 0.0
C666 C 0.82718 0.12693 0.49537 0.0
C667 C 0.78894 0.07986 0.53415 0.0
C668 C 0.83154 0.0581 0.48458 0.0
C669 C 0.81857 0.03745 0.45564 0.0
C670 C 0.83779 0.01035 0.4381 0.0
C671 C 0.87139 0.00433 0.4503 0.0
C672 C 0.88538 0.02523 0.47983 0.0
C673 C 0.86487 0.05213 0.49742 0.0
H674 H 0.30563 0.63897 0.08249 0.0
H675 H 0.35557 0.53724 0.05952 0.0
H676 H 0.30217 0.51064 0.02632 0.0
H677 H 0.21526 0.59506 0.09836 0.0
H678 H 0.19358 0.63034 0.07957 0.0
H679 H 0.23735 0.64253 0.09808 0.0
H680 H 0.26527 0.66943 0.03937 0.0
H681 H 0.22153 0.65714 0.02061 0.0
H682 H 0.26235 0.64037 0.99958 0.0
H683 H 0.24233 0.49443 0.99813 0.0
H684 H 0.17819 0.4871 0.98151 0.0
H685 H 0.16656 0.59905 0.02478 0.0
C686 C 0.30555 0.61135 0.0699 0.0
C687 C 0.3347 0.59018 0.07311 0.0
C688 C 0.33338 0.55379 0.05719 0.0
C689 C 0.30337 0.53864 0.03815 0.0
C690 C 0.27496 0.56025 0.03553 0.0
C691 C 0.27567 0.59571 0.05121 0.0
C692 C 0.24035 0.61191 0.04703 0.0
C693 C 0.22047 0.62044 0.08289 0.0
C694 C 0.24784 0.64678 0.02535 0.0
C695 C 0.2193 0.57975 0.0271 0.0
C696 C 0.24 0.55049 0.02019 0.0
C697 C 0.22594 0.51723 0.0032 0.0
C698 C 0.18944 0.51339 0.99381 0.0
C699 C 0.16723 0.5425 0.00184 0.0
C700 C 0.18279 0.57635 0.01807 0.0
H701 H 0.19143 0.46697 0.56263 0.0
H702 H 0.18981 0.38126 0.63714 0.0
H703 H 0.25769 0.38648 0.63051 0.0
H704 H 0.26267 0.43784 0.50507 0.0
H705 H 0.2841 0.48399 0.49502 0.0
H706 H 0.23552 0.47615 0.5076 0.0
H707 H 0.24363 0.5268 0.55804 0.0
H708 H 0.2922 0.53518 0.54532 0.0
H709 H 0.2769 0.52359 0.58955 0.0
H710 H 0.32449 0.39717 0.61273 0.0
H711 H 0.38755 0.41582 0.58791 0.0
H712 H 0.34681 0.49542 0.525 0.0
C713 C 0.20552 0.44999 0.5781 0.0
C714 C 0.18553 0.42365 0.60034 0.0
C715 C 0.20473 0.40138 0.61977 0.0
C716 C 0.24321 0.4042 0.61624 0.0
C717 C 0.26208 0.42957 0.5933 0.0
C718 C 0.24404 0.45241 0.57484 0.0
C719 C 0.27103 0.47631 0.55099 0.0
C720 C 0.26283 0.46806 0.51239 0.0
C721 C 0.27093 0.51794 0.56162 0.0
C722 C 0.3069 0.46285 0.55859 0.0
C723 C 0.301 0.43593 0.5831 0.0
C724 C 0.32957 0.41849 0.59374 0.0
C725 C 0.36532 0.42919 0.57931 0.0
C726 C 0.37228 0.45716 0.55448 0.0
C727 C 0.3425 0.47403 0.54395 0.0
H728 H 0.91553 0.75263 0.87789 0.0
H729 H 0.93991 0.83467 0.96265 0.0
H730 H 0.97195 0.78948 0.99104 0.0
H731 H 0.89621 0.67372 0.93086 0.0
H732 H 0.91624 0.64258 0.89854 0.0
H733 H 0.89663 0.68199 0.88497 0.0
H734 H 0.95852 0.70468 0.85085 0.0
H735 H 0.97837 0.66543 0.8645 0.0
H736 H 0.00031 0.71217 0.87348 0.0
H737 H 0.00181 0.73414 0.0096 0.0
H738 H 0.02268 0.67315 0.01853 0.0
H739 H 0.97643 0.62829 0.9218 0.0
C740 C 0.92766 0.76109 0.90243 0.0
C741 C 0.92535 0.797 0.91812 0.0
C742 C 0.94134 0.80716 0.95028 0.0
C743 C 0.95969 0.78174 0.96647 0.0
C744 C 0.96154 0.7464 0.95017 0.0
C745 C 0.94567 0.7361 0.91895 0.0
C746 C 0.95026 0.69628 0.90714 0.0
C747 C 0.9126 0.67224 0.90529 0.0
C748 C 0.97324 0.69456 0.87191 0.0
C749 C 0.97111 0.68556 0.9366 0.0
C750 C 0.97776 0.7148 0.96108 0.0
C751 C 0.99668 0.71108 0.99059 0.0
C752 C 0.00855 0.67641 0.99538 0.0
C753 C 0.00107 0.6459 0.97096 0.0
C754 C 0.98243 0.65093 0.9411 0.0
H755 H 0.38315 0.72223 0.10363 0.0
H756 H 0.48683 0.67577 0.0936 0.0
H757 H 0.51958 0.73718 0.07732 0.0
H758 H 0.401 0.78143 0.03232 0.0
H759 H 0.37896 0.81914 0.05398 0.0
H760 H 0.36398 0.77184 0.06554 0.0
H761 H 0.3753 0.7904 0.13048 0.0
H762 H 0.3902 0.83781 0.11914 0.0
H763 H 0.41995 0.81287 0.14162 0.0
H764 H 0.53989 0.80204 0.0579 0.0
H765 H 0.5476 0.86779 0.04176 0.0
H766 H 0.43114 0.87296 0.06829 0.0
C767 C 0.41277 0.72518 0.09814 0.0
C768 C 0.43265 0.69455 0.09966 0.0
C769 C 0.47134 0.69917 0.09265 0.0
C770 C 0.49006 0.7338 0.08331 0.0
C771 C 0.46962 0.76345 0.08169 0.0
C772 C 0.43192 0.75965 0.08939 0.0
C773 C 0.41649 0.79596 0.08599 0.0
C774 C 0.38846 0.79183 0.05777 0.0
C775 C 0.39949 0.81009 0.12142 0.0
C776 C 0.45133 0.82066 0.07462 0.0
C777 C 0.48161 0.8013 0.07204 0.0
C778 C 0.5165 0.81765 0.06027 0.0
C779 C 0.52057 0.85489 0.05103 0.0
C780 C 0.49001 0.87539 0.0541 0.0
C781 C 0.45504 0.85805 0.06622 0.0
H782 H 0.11224 0.31524 0.55457 0.0
H783 H 0.02673 0.34002 0.63411 0.0
H784 H 0.00087 0.27347 0.6322 0.0
H785 H 0.05776 0.24342 0.50509 0.0
H786 H 0.09503 0.21547 0.4965 0.0
H787 H 0.10481 0.2654 0.50252 0.0
H788 H 0.1468 0.25734 0.5521 0.0
H789 H 0.13688 0.2074 0.54647 0.0
H790 H 0.12828 0.2303 0.5888 0.0
H791 H 0.98552 0.20353 0.62248 0.0
H792 H 0.98142 0.13628 0.60506 0.0
H793 H 0.07968 0.15793 0.53496 0.0
C794 C 0.08809 0.30678 0.57167 0.0
C795 C 0.07152 0.33293 0.59447 0.0
C796 C 0.03959 0.32065 0.61599 0.0
C797 C 0.02489 0.28286 0.61532 0.0
C798 C 0.04254 0.25775 0.59313 0.0
C799 C 0.07341 0.26927 0.57166 0.0
C800 C 0.08799 0.23676 0.55097 0.0
C801 C 0.08628 0.24049 0.51143 0.0
C802 C 0.12731 0.23272 0.56015 0.0
C803 C 0.0606 0.20502 0.56423 0.0
C804 C 0.03444 0.21762 0.58837 0.0
C805 C 0.00591 0.19334 0.60367 0.0
C806 C 0.00386 0.15522 0.59367 0.0
C807 C 0.03039 0.14182 0.56887 0.0
C808 C 0.05926 0.16716 0.55433 0.0
H809 H 0.60263 0.24034 0.37001 0.0
H810 H 0.58226 0.17384 0.46138 0.0
H811 H 0.55708 0.22632 0.49517 0.0
H812 H 0.63237 0.32662 0.41678 0.0
H813 H 0.61138 0.3551 0.38913 0.0
H814 H 0.62634 0.31181 0.37166 0.0
H815 H 0.56068 0.28938 0.3523 0.0
H816 H 0.5455 0.33259 0.36977 0.0
H817 H 0.52184 0.2888 0.38417 0.0
H818 H 0.53366 0.28523 0.51872 0.0
H819 H 0.51725 0.34867 0.53219 0.0
H820 H 0.55526 0.37854 0.42634 0.0
C821 C 0.59264 0.2369 0.39707 0.0
C822 C 0.59427 0.20315 0.4132 0.0
C823 C 0.58141 0.19963 0.44873 0.0
C824 C 0.56692 0.22915 0.46802 0.0
C825 C 0.56577 0.26211 0.45144 0.0
C826 C 0.57855 0.26633 0.41689 0.0
C827 C 0.57546 0.30526 0.40586 0.0
C828 C 0.61366 0.32591 0.39524 0.0
C829 C 0.54931 0.30391 0.37627 0.0
C830 C 0.559 0.32222 0.43964 0.0
C831 C 0.55328 0.29666 0.46543 0.0
C832 C 0.53807 0.30555 0.49878 0.0
C833 C 0.52875 0.34167 0.50613 0.0
C834 C 0.53502 0.36867 0.48037 0.0
C835 C 0.55026 0.35862 0.44664 0.0
loop_
_geom_bond_atom_site_label_1
_geom_bond_atom_site_label_2
_geom_bond_distance
_geom_bond_site_symmetry_2
_ccdc_geom_bond_type
H0 C5 0.930 . S
H1 C8 0.930 . S
H2 C10 0.930 . S
H3 C4 1.016 . S
C4 H3 1.016 . S
C4 N11 1.286 . S
C5 H0 0.930 . S
C5 C6 1.397 . S
C5 C7 1.361 . S
C6 C5 1.397 . S
C6 C10 1.390 . S
C7 C5 1.361 . S
C7 C8 1.393 . S
C7 N11 1.413 . S
C8 H1 0.930 . S
C8 C7 1.393 . S
C8 C9 1.399 . S
C9 C8 1.399 . S
C9 C10 1.381 . S
C10 H2 0.930 . S
C10 C6 1.390 . S
C10 C9 1.381 . S
N11 C4 1.286 . S
N11 C7 1.413 . S
H12 C17 0.930 . S
H13 C20 0.930 . S
H14 C22 0.930 . S
H15 C16 1.016 . S
C16 H15 1.016 . S
C16 N23 1.286 . S
C17 H12 0.930 . S
C17 C18 1.397 . S
C17 C19 1.361 . S
C18 C17 1.397 . S
C18 C22 1.390 . S
C19 C17 1.361 . S
C19 C20 1.393 . S
C19 N23 1.413 . S
C20 H13 0.930 . S
C20 C19 1.393 . S
C20 C21 1.399 . S
C21 C20 1.399 . S
C21 C22 1.381 . S
C22 H14 0.930 . S
C22 C18 1.390 . S
C22 C21 1.381 . S
N23 C16 1.286 . S
N23 C19 1.413 . S
H24 C29 0.930 . S
H25 C32 0.930 . S
H26 C34 0.930 . S
H27 C28 1.016 . S
C28 H27 1.016 . S
C28 N35 1.286 . S
C29 H24 0.930 . S
C29 C30 1.397 . S
C29 C31 1.361 . S
C30 C29 1.397 . S
C30 C34 1.390 . S
C31 C29 1.361 . S
C31 C32 1.393 . S
C31 N35 1.413 . S
C32 H25 0.930 . S
C32 C31 1.393 . S
C32 C33 1.399 . S
C33 C32 1.399 . S
C33 C34 1.381 . S
C34 H26 0.930 . S
C34 C30 1.390 . S
C34 C33 1.381 . S
N35 C28 1.286 . S
N35 C31 1.413 . S
H36 C41 0.930 . S
H37 C44 0.930 . S
H38 C46 0.930 . S
H39 C40 1.016 . S
C40 H39 1.016 . S
C40 N47 1.286 . S
C41 H36 0.930 . S
C41 C42 1.397 . S
C41 C43 1.361 . S
C42 C41 1.397 . S
C42 C46 1.390 . S
C43 C41 1.361 . S
C43 C44 1.393 . S
C43 N47 1.413 . S
C44 H37 0.930 . S
C44 C43 1.393 . S
C44 C45 1.399 . S
C45 C44 1.399 . S
C45 C46 1.381 . S
C46 H38 0.930 . S
C46 C42 1.390 . S
C46 C45 1.381 . S
N47 C40 1.286 . S
N47 C43 1.413 . S
H48 C53 0.930 . S
H49 C56 0.930 . S
H50 C58 0.930 . S
H51 C52 1.016 . S
C52 H51 1.016 . S
C52 N59 1.286 . S
C53 H48 0.930 . S
C53 C54 1.397 . S
C53 C55 1.361 . S
C54 C53 1.397 . S
C54 C58 1.390 . S
C55 C53 1.361 . S
C55 C56 1.393 . S
C55 N59 1.413 . S
C56 H49 0.930 . S
C56 C55 1.393 . S
C56 C57 1.399 . S
C57 C56 1.399 . S
C57 C58 1.381 . S
C58 H50 0.930 . S
C58 C54 1.390 . S
C58 C57 1.381 . S
N59 C52 1.286 . S
N59 C55 1.413 . S
H60 C65 0.930 . S
H61 C68 0.930 . S
H62 C70 0.930 . S
H63 C64 1.016 . S
C64 H63 1.016 . S
C64 N71 1.286 . S
C65 H60 0.930 . S
C65 C66 1.397 . S
C65 C67 1.361 . S
C66 C65 1.397 . S
C66 C70 1.390 . S
C67 C65 1.361 . S
C67 C68 1.393 . S
C67 N71 1.413 . S
C68 H61 0.930 . S
C68 C67 1.393 . S
C68 C69 1.399 . S
C69 C68 1.399 . S
C69 C70 1.381 . S
C70 H62 0.930 . S
C70 C66 1.390 . S
C70 C69 1.381 . S
N71 C64 1.286 . S
N71 C67 1.413 . S
H72 C77 0.930 . S
H73 C80 0.930 . S
H74 C82 0.930 . S
H75 C76 1.016 . S
C76 H75 1.016 . S
C76 N83 1.286 . S
C77 H72 0.930 . S
C77 C78 1.397 . S
C77 C79 1.361 . S
C78 C77 1.397 . S
C78 C82 1.390 . S
C79 C77 1.361 . S
C79 C80 1.393 . S
C79 N83 1.413 . S
C80 H73 0.930 . S
C80 C79 1.393 . S
C80 C81 1.399 . S
C81 C80 1.399 . S
C81 C82 1.381 . S
C82 H74 0.930 . S
C82 C78 1.390 . S
C82 C81 1.381 . S
N83 C76 1.286 . S
N83 C79 1.413 . S
H84 C89 0.930 . S
H85 C92 0.930 . S
H86 C94 0.930 . S
H87 C88 1.016 . S
C88 H87 1.016 . S
C88 N95 1.286 . S
C89 H84 0.930 . S
C89 C90 1.397 . S
C89 C91 1.361 . S
C90 C89 1.397 . S
C90 C94 1.390 . S
C91 C89 1.361 . S
C91 C92 1.393 . S
C91 N95 1.413 . S
C92 H85 0.930 . S
C92 C91 1.393 . S
C92 C93 1.399 . S
C93 C92 1.399 . S
C93 C94 1.381 . S
C94 H86 0.930 . S
C94 C90 1.390 . S
C94 C93 1.381 . S
N95 C88 1.286 . S
N95 C91 1.413 . S
O96 Zn97 1.958 . S
O96 C112 1.213 1_655 S
Zn97 O96 1.958 . S
Zn97 O98 1.949 1_655 S
Zn97 O104 1.919 . S
Zn97 O109 1.924 . S
O98 Zn97 1.949 1_455 S
O98 Zn99 1.923 1_445 S
O98 Zn100 1.950 . S
O98 Zn101 1.945 1_545 S
Zn99 O98 1.923 1_665 S
Zn99 O102 1.933 . S
Zn99 O105 1.941 1_565 S
Zn99 O106 1.965 1_665 S
Zn100 O98 1.950 . S
Zn100 O107 1.938 . S
Zn100 O108 1.902 1_545 S
Zn100 O118 1.953 . S
Zn101 O98 1.945 1_565 S
Zn101 O103 1.932 1_455 S
Zn101 O110 1.977 . S
Zn101 O111 1.910 1_455 S
O102 Zn99 1.933 . S
O102 C113 1.226 . S
O103 Zn101 1.932 1_655 S
O103 C113 1.307 . S
O104 Zn97 1.919 . S
O104 C115 1.253 . S
O105 Zn99 1.941 1_545 S
O105 C115 1.283 . S
O106 Zn99 1.965 1_445 S
O106 C114 1.303 . S
O107 Zn100 1.938 . S
O107 C114 1.247 . S
O108 Zn100 1.902 1_565 S
O108 C116 1.310 . S
O109 Zn97 1.924 . S
O109 C117 1.311 1_545 S
O110 Zn101 1.977 . S
O110 C116 1.272 . S
O111 Zn101 1.910 1_655 S
O111 C117 1.231 . S
C112 O96 1.213 1_455 S
C112 O118 1.298 . S
C113 O102 1.226 . S
C113 O103 1.307 . S
C114 O106 1.303 . S
C114 O107 1.247 . S
C115 O104 1.253 . S
C115 O105 1.283 . S
C116 O108 1.310 . S
C116 O110 1.272 . S
C117 O109 1.311 1_565 S
C117 O111 1.231 . S
O118 Zn100 1.953 . S
O118 C112 1.298 . S
O119 Zn120 1.953 . S
O119 C135 1.225 . S
Zn120 O119 1.953 . S
Zn120 O121 1.949 1_556 S
Zn120 O127 1.919 . S
Zn120 O132 1.924 1_556 S
O121 Zn120 1.949 1_554 S
O121 Zn122 1.923 1_544 S
O121 Zn123 1.950 . S
O121 Zn124 1.940 1_545 S
Zn122 O121 1.923 1_566 S
Zn122 O125 1.933 1_556 S
Zn122 O128 1.941 . S
Zn122 O129 1.965 . S
Zn123 O121 1.950 . S
Zn123 O130 1.938 . S
Zn123 O131 1.906 . S
Zn123 O141 1.953 . S
Zn124 O121 1.940 1_565 S
Zn124 O126 1.952 . S
Zn124 O133 1.972 1_565 S
Zn124 O134 1.898 1_565 S
O125 Zn122 1.933 1_554 S
O125 C136 1.226 . S
O126 Zn124 1.952 . S
O126 C136 1.307 . S
O127 Zn120 1.919 . S
O127 C138 1.253 1_545 S
O128 Zn122 1.941 . S
O128 C138 1.283 . S
O129 Zn122 1.965 . S
O129 C137 1.303 1_565 S
O130 Zn123 1.938 . S
O130 C137 1.247 1_554 S
O131 Zn123 1.906 . S
O131 C139 1.304 . S
O132 Zn120 1.924 1_554 S
O132 C140 1.311 . S
O133 Zn124 1.972 1_545 S
O133 C139 1.272 . S
O134 Zn124 1.898 1_545 S
O134 C140 1.231 . S
C135 O119 1.225 . S
C135 O141 1.298 1_556 S
C136 O125 1.226 . S
C136 O126 1.307 . S
C137 O129 1.303 1_545 S
C137 O130 1.247 1_556 S
C138 O127 1.253 1_565 S
C138 O128 1.283 . S
C139 O131 1.304 . S
C139 O133 1.272 . S
C140 O132 1.311 . S
C140 O134 1.231 . S
O141 Zn123 1.953 . S
O141 C135 1.298 1_554 S
O142 Zn143 1.953 . S
O142 C158 1.225 . S
Zn143 O142 1.953 . S
Zn143 O144 1.949 . S
Zn143 O150 1.919 . S
Zn143 O155 1.924 . S
O144 Zn143 1.949 . S
O144 Zn145 1.923 . S
O144 Zn146 1.950 . S
O144 Zn147 1.945 . S
Zn145 O144 1.923 . S
Zn145 O148 1.933 . S
Zn145 O151 1.941 . S
Zn145 O152 1.965 . S
Zn146 O144 1.950 . S
Zn146 O153 1.938 . S
Zn146 O154 1.906 . S
Zn146 O164 1.953 . S
Zn147 O144 1.945 . S
Zn147 O149 1.932 . S
Zn147 O156 1.977 . S
Zn147 O157 1.910 . S
O148 Zn145 1.933 . S
O148 C159 1.226 . S
O149 Zn147 1.932 . S
O149 C159 1.307 . S
O150 Zn143 1.919 . S
O150 C161 1.253 . S
O151 Zn145 1.941 . S
O151 C161 1.283 . S
O152 Zn145 1.965 . S
O152 C160 1.303 . S
O153 Zn146 1.938 . S
O153 C160 1.247 . S
O154 Zn146 1.906 . S
O154 C162 1.304 . S
O155 Zn143 1.924 . S
O155 C163 1.311 . S
O156 Zn147 1.977 . S
O156 C162 1.272 . S
O157 Zn147 1.910 . S
O157 C163 1.231 . S
C158 O142 1.225 . S
C158 O164 1.298 . S
C159 O148 1.226 . S
C159 O149 1.307 . S
C160 O152 1.303 . S
C160 O153 1.247 . S
C161 O150 1.253 . S
C161 O151 1.283 . S
C162 O154 1.304 . S
C162 O156 1.272 . S
C163 O155 1.311 . S
C163 O157 1.231 . S
O164 Zn146 1.953 . S
O164 C158 1.298 . S
O165 Zn166 1.953 . S
O165 C181 1.225 . S
Zn166 O165 1.953 . S
Zn166 O167 1.949 1_655 S
Zn166 O173 1.919 . S
Zn166 O178 1.924 . S
O167 Zn166 1.949 1_455 S
O167 Zn168 1.923 1_554 S
O167 Zn169 1.950 . S
O167 Zn170 1.945 1_554 S
Zn168 O167 1.923 1_556 S
Zn168 O171 1.933 . S
Zn168 O174 1.941 1_455 S
Zn168 O175 1.965 . S
Zn169 O167 1.950 . S
Zn169 O176 1.938 . S
Zn169 O177 1.906 . S
Zn169 O187 1.953 . S
Zn170 O167 1.945 1_556 S
Zn170 O172 1.932 . S
Zn170 O179 1.977 1_556 S
Zn170 O180 1.910 1_556 S
O171 Zn168 1.933 . S
O171 C182 1.226 . S
O172 Zn170 1.932 . S
O172 C182 1.307 . S
O173 Zn166 1.919 . S
O173 C184 1.253 1_554 S
O174 Zn168 1.941 1_655 S
O174 C184 1.283 . S
O175 Zn168 1.965 . S
O175 C183 1.303 . S
O176 Zn169 1.938 . S
O176 C183 1.247 1_554 S
O177 Zn169 1.906 . S
O177 C185 1.304 . S
O178 Zn166 1.924 . S
O178 C186 1.311 1_655 S
O179 Zn170 1.977 1_554 S
O179 C185 1.272 . S
O180 Zn170 1.910 1_554 S
O180 C186 1.231 . S
C181 O165 1.225 . S
C181 O187 1.298 1_655 S
C182 O171 1.226 . S
C182 O172 1.307 . S
C183 O175 1.303 . S
C183 O176 1.247 1_556 S
C184 O173 1.253 1_556 S
C184 O174 1.283 . S
C185 O177 1.304 . S
C185 O179 1.272 . S
C186 O178 1.311 1_455 S
C186 O180 1.231 . S
O187 Zn169 1.953 . S
O187 C181 1.298 1_455 S
H188 C200 0.930 . S
H189 C202 0.930 . S
H190 C203 0.930 . S
H191 C207 0.959 . S
H192 C207 0.959 . S
H193 C207 0.961 . S
H194 C208 0.960 . S
H195 C208 0.961 1_565 S
H196 C208 0.959 . S
H197 C211 0.929 . S
H198 C212 0.931 . S
H199 C214 0.930 . S
C200 H188 0.930 . S
C200 C201 1.399 . S
C200 C205 1.399 . S
C201 C200 1.399 . S
C201 C202 1.376 . S
C202 H189 0.930 . S
C202 C201 1.376 . S
C202 C203 1.388 . S
C203 H190 0.930 . S
C203 C202 1.388 . S
C203 C204 1.390 . S
C204 C203 1.390 . S
C204 C205 1.394 . S
C204 C210 1.465 . S
C205 C200 1.399 . S
C205 C204 1.394 . S
C205 C206 1.516 . S
C206 C205 1.516 . S
C206 C207 1.502 . S
C206 C208 1.561 . S
C206 C209 1.526 . S
C207 H191 0.959 . S
C207 H192 0.959 . S
C207 H193 0.961 . S
C207 C206 1.502 . S
C208 H194 0.960 . S
C208 H195 0.961 1_545 S
C208 H196 0.959 . S
C208 C206 1.561 . S
C209 C206 1.526 . S
C209 C210 1.396 . S
C209 C214 1.390 . S
C210 C204 1.465 . S
C210 C209 1.396 . S
C210 C211 1.399 . S
C211 H197 0.929 . S
C211 C210 1.399 . S
C211 C212 1.385 . S
C212 H198 0.931 . S
C212 C211 1.385 . S
C212 C213 1.389 . S
C213 C212 1.389 . S
C213 C214 1.387 . S
C214 H199 0.930 . S
C214 C209 1.390 . S
C214 C213 1.387 . S
H215 C227 0.930 . S
H216 C229 0.930 . S
H217 C230 0.930 . S
H218 C234 0.959 . S
H219 C234 0.959 1_545 S
H220 C234 0.961 . S
H221 C235 0.960 . S
H222 C235 0.961 1_545 S
H223 C235 0.959 . S
H224 C238 0.929 . S
H225 C239 0.931 . S
H226 C241 0.930 . S
C227 H215 0.930 . S
C227 C228 1.399 . S
C227 C232 1.399 . S
C228 C227 1.399 . S
C228 C229 1.376 . S
C229 H216 0.930 . S
C229 C228 1.376 . S
C229 C230 1.388 . S
C230 H217 0.930 . S
C230 C229 1.388 . S
C230 C231 1.390 . S
C231 C230 1.390 . S
C231 C232 1.394 . S
C231 C237 1.465 . S
C232 C227 1.399 . S
C232 C231 1.394 . S
C232 C233 1.516 . S
C233 C232 1.516 . S
C233 C234 1.502 . S
C233 C235 1.561 . S
C233 C236 1.526 . S
C234 H218 0.959 . S
C234 H219 0.959 1_565 S
C234 H220 0.961 . S
C234 C233 1.502 . S
C235 H221 0.960 . S
C235 H222 0.961 1_565 S
C235 H223 0.959 . S
C235 C233 1.561 . S
C236 C233 1.526 . S
C236 C237 1.396 . S
C236 C241 1.390 . S
C237 C231 1.465 . S
C237 C236 1.396 . S
C237 C238 1.399 . S
C238 H224 0.929 . S
C238 C237 1.399 . S
C238 C239 1.385 . S
C239 H225 0.931 . S
C239 C238 1.385 . S
C239 C240 1.389 . S
C240 C239 1.389 . S
C240 C241 1.387 . S
C241 H226 0.930 . S
C241 C236 1.390 . S
C241 C240 1.387 . S
H242 C254 0.930 . S
H243 C256 0.930 . S
H244 C257 0.930 . S
H245 C261 0.959 . S
H246 C261 0.959 . S
H247 C261 0.961 . S
H248 C262 0.960 . S
H249 C262 0.961 . S
H250 C262 0.959 . S
H251 C265 0.929 . S
H252 C266 0.931 . S
H253 C268 0.930 . S
C254 H242 0.930 . S
C254 C255 1.399 . S
C254 C259 1.399 . S
C255 C254 1.399 . S
C255 C256 1.376 . S
C256 H243 0.930 . S
C256 C255 1.376 . S
C256 C257 1.388 . S
C257 H244 0.930 . S
C257 C256 1.388 . S
C257 C258 1.390 . S
C258 C257 1.390 . S
C258 C259 1.394 . S
C258 C264 1.465 . S
C259 C254 1.399 . S
C259 C258 1.394 . S
C259 C260 1.516 . S
C260 C259 1.516 . S
C260 C261 1.502 . S
C260 C262 1.561 . S
C260 C263 1.526 . S
C261 H245 0.959 . S
C261 H246 0.959 . S
C261 H247 0.961 . S
C261 C260 1.502 . S
C262 H248 0.960 . S
C262 H249 0.961 . S
C262 H250 0.959 . S
C262 C260 1.561 . S
C263 C260 1.526 . S
C263 C264 1.396 . S
C263 C268 1.390 . S
C264 C258 1.465 . S
C264 C263 1.396 . S
C264 C265 1.399 . S
C265 H251 0.929 . S
C265 C264 1.399 . S
C265 C266 1.385 . S
C266 H252 0.931 . S
C266 C265 1.385 . S
C266 C267 1.389 . S
C267 C266 1.389 . S
C267 C268 1.387 . S
C268 H253 0.930 . S
C268 C263 1.390 . S
C268 C267 1.387 . S
H269 C281 0.930 . S
H270 C283 0.930 . S
H271 C284 0.930 . S
H272 C288 0.959 1_455 S
H273 C288 0.959 1_455 S
H274 C288 0.961 . S
H275 C289 0.960 . S
H276 C289 0.961 . S
H277 C289 0.959 . S
H278 C292 0.929 . S
H279 C293 0.931 . S
H280 C295 0.930 . S
C281 H269 0.930 . S
C281 C282 1.399 . S
C281 C286 1.399 . S
C282 C281 1.399 . S
C282 C283 1.376 . S
C283 H270 0.930 . S
C283 C282 1.376 . S
C283 C284 1.388 . S
C284 H271 0.930 . S
C284 C283 1.388 . S
C284 C285 1.390 . S
C285 C284 1.390 . S
C285 C286 1.394 . S
C285 C291 1.465 . S
C286 C281 1.399 . S
C286 C285 1.394 . S
C286 C287 1.516 . S
C287 C286 1.516 . S
C287 C288 1.502 . S
C287 C289 1.561 . S
C287 C290 1.526 . S
C288 H272 0.959 1_655 S
C288 H273 0.959 1_655 S
C288 H274 0.961 . S
C288 C287 1.502 . S
C289 H275 0.960 . S
C289 H276 0.961 . S
C289 H277 0.959 . S
C289 C287 1.561 . S
C290 C287 1.526 . S
C290 C291 1.396 . S
C290 C295 1.390 . S
C291 C285 1.465 . S
C291 C290 1.396 . S
C291 C292 1.399 . S
C292 H278 0.929 . S
C292 C291 1.399 . S
C292 C293 1.385 . S
C293 H279 0.931 . S
C293 C292 1.385 . S
C293 C294 1.389 . S
C294 C293 1.389 . S
C294 C295 1.387 . S
C295 H280 0.930 . S
C295 C290 1.390 . S
C295 C294 1.387 . S
H296 C308 0.930 . S
H297 C310 0.930 . S
H298 C311 0.930 . S
H299 C315 0.959 . S
H300 C315 0.959 . S
H301 C315 0.961 . S
H302 C316 0.960 . S
H303 C316 0.961 . S
H304 C316 0.959 . S
H305 C319 0.929 . S
H306 C320 0.931 . S
H307 C322 0.930 . S
C308 H296 0.930 . S
C308 C309 1.399 . S
C308 C313 1.399 . S
C309 C308 1.399 . S
C309 C310 1.376 . S
C310 H297 0.930 . S
C310 C309 1.376 . S
C310 C311 1.388 . S
C311 H298 0.930 . S
C311 C310 1.388 . S
C311 C312 1.390 . S
C312 C311 1.390 . S
C312 C313 1.394 . S
C312 C318 1.465 . S
C313 C308 1.399 . S
C313 C312 1.394 . S
C313 C314 1.516 . S
C314 C313 1.516 . S
C314 C315 1.502 . S
C314 C316 1.561 . S
C314 C317 1.526 . S
C315 H299 0.959 . S
C315 H300 0.959 . S
C315 H301 0.961 . S
C315 C314 1.502 . S
C316 H302 0.960 . S
C316 H303 0.961 . S
C316 H304 0.959 . S
C316 C314 1.561 . S
C317 C314 1.526 . S
C317 C318 1.396 . S
C317 C322 1.390 . S
C318 C312 1.465 . S
C318 C317 1.396 . S
C318 C319 1.399 . S
C319 H305 0.929 . S
C319 C318 1.399 . S
C319 C320 1.385 . S
C320 H306 0.931 . S
C320 C319 1.385 . S
C320 C321 1.389 . S
C321 C320 1.389 . S
C321 C322 1.387 . S
C322 H307 0.930 . S
C322 C317 1.390 . S
C322 C321 1.387 . S
H323 C335 0.930 . S
H324 C337 0.930 . S
H325 C338 0.930 . S
H326 C342 0.959 . S
H327 C342 0.959 . S
H328 C342 0.961 . S
H329 C343 0.960 . S
H330 C343 0.961 . S
H331 C343 0.959 . S
H332 C346 0.929 . S
H333 C347 0.931 . S
H334 C349 0.930 . S
C335 H323 0.930 . S
C335 C336 1.399 . S
C335 C340 1.399 . S
C336 C335 1.399 . S
C336 C337 1.376 . S
C337 H324 0.930 . S
C337 C336 1.376 . S
C337 C338 1.388 . S
C338 H325 0.930 . S
C338 C337 1.388 . S
C338 C339 1.390 . S
C339 C338 1.390 . S
C339 C340 1.394 . S
C339 C345 1.465 . S
C340 C335 1.399 . S
C340 C339 1.394 . S
C340 C341 1.516 . S
C341 C340 1.516 . S
C341 C342 1.502 . S
C341 C343 1.561 . S
C341 C344 1.526 . S
C342 H326 0.959 . S
C342 H327 0.959 . S
C342 H328 0.961 . S
C342 C341 1.502 . S
C343 H329 0.960 . S
C343 H330 0.961 . S
C343 H331 0.959 . S
C343 C341 1.561 . S
C344 C341 1.526 . S
C344 C345 1.396 . S
C344 C349 1.390 . S
C345 C339 1.465 . S
C345 C344 1.396 . S
C345 C346 1.399 . S
C346 H332 0.929 . S
C346 C345 1.399 . S
C346 C347 1.385 . S
C347 H333 0.931 . S
C347 C346 1.385 . S
C347 C348 1.389 . S
C348 C347 1.389 . S
C348 C349 1.387 . S
C349 H334 0.930 . S
C349 C344 1.390 . S
C349 C348 1.387 . S
H350 C362 0.930 . S
H351 C364 0.930 . S
H352 C365 0.930 . S
H353 C369 0.959 . S
H354 C369 0.959 . S
H355 C369 0.961 . S
H356 C370 0.960 . S
H357 C370 0.961 . S
H358 C370 0.959 . S
H359 C373 0.929 . S
H360 C374 0.931 . S
H361 C376 0.930 . S
C362 H350 0.930 . S
C362 C363 1.399 . S
C362 C367 1.399 . S
C363 C362 1.399 . S
C363 C364 1.376 . S
C364 H351 0.930 . S
C364 C363 1.376 . S
C364 C365 1.388 . S
C365 H352 0.930 . S
C365 C364 1.388 . S
C365 C366 1.390 . S
C366 C365 1.390 . S
C366 C367 1.394 . S
C366 C372 1.465 . S
C367 C362 1.399 . S
C367 C366 1.394 . S
C367 C368 1.516 . S
C368 C367 1.516 . S
C368 C369 1.502 . S
C368 C370 1.561 . S
C368 C371 1.526 . S
C369 H353 0.959 . S
C369 H354 0.959 . S
C369 H355 0.961 . S
C369 C368 1.502 . S
C370 H356 0.960 . S
C370 H357 0.961 . S
C370 H358 0.959 . S
C370 C368 1.561 . S
C371 C368 1.526 . S
C371 C372 1.396 . S
C371 C376 1.390 . S
C372 C366 1.465 . S
C372 C371 1.396 . S
C372 C373 1.399 . S
C373 H359 0.929 . S
C373 C372 1.399 . S
C373 C374 1.385 . S
C374 H360 0.931 . S
C374 C373 1.385 . S
C374 C375 1.389 . S
C375 C374 1.389 . S
C375 C376 1.387 . S
C376 H361 0.930 . S
C376 C371 1.390 . S
C376 C375 1.387 . S
H377 C389 0.930 . S
H378 C391 0.930 . S
H379 C392 0.930 . S
H380 C396 0.959 . S
H381 C396 0.959 . S
H382 C396 0.961 . S
H383 C397 0.960 . S
H384 C397 0.961 . S
H385 C397 0.959 . S
H386 C400 0.929 . S
H387 C401 0.931 . S
H388 C403 0.930 . S
C389 H377 0.930 . S
C389 C390 1.399 . S
C389 C394 1.399 . S
C390 C389 1.399 . S
C390 C391 1.376 . S
C391 H378 0.930 . S
C391 C390 1.376 . S
C391 C392 1.388 . S
C392 H379 0.930 . S
C392 C391 1.388 . S
C392 C393 1.390 . S
C393 C392 1.390 . S
C393 C394 1.394 . S
C393 C399 1.465 . S
C394 C389 1.399 . S
C394 C393 1.394 . S
C394 C395 1.516 . S
C395 C394 1.516 . S
C395 C396 1.502 . S
C395 C397 1.561 . S
C395 C398 1.526 . S
C396 H380 0.959 . S
C396 H381 0.959 . S
C396 H382 0.961 . S
C396 C395 1.502 . S
C397 H383 0.960 . S
C397 H384 0.961 . S
C397 H385 0.959 . S
C397 C395 1.561 . S
C398 C395 1.526 . S
C398 C399 1.396 . S
C398 C403 1.390 . S
C399 C393 1.465 . S
C399 C398 1.396 . S
C399 C400 1.399 . S
C400 H386 0.929 . S
C400 C399 1.399 . S
C400 C401 1.385 . S
C401 H387 0.931 . S
C401 C400 1.385 . S
C401 C402 1.389 . S
C402 C401 1.389 . S
C402 C403 1.387 . S
C403 H388 0.930 . S
C403 C398 1.390 . S
C403 C402 1.387 . S
H404 C416 0.930 . S
H405 C418 0.930 . S
H406 C419 0.930 . S
H407 C423 0.959 . S
H408 C423 0.959 1_556 S
H409 C423 0.961 . S
H410 C424 0.960 . S
H411 C424 0.961 1_655 S
H412 C424 0.959 1_655 S
H413 C427 0.929 . S
H414 C428 0.931 . S
H415 C430 0.930 . S
C416 H404 0.930 . S
C416 C417 1.399 . S
C416 C421 1.399 . S
C417 C416 1.399 . S
C417 C418 1.376 . S
C418 H405 0.930 . S
C418 C417 1.376 . S
C418 C419 1.388 . S
C419 H406 0.930 . S
C419 C418 1.388 . S
C419 C420 1.390 . S
C420 C419 1.390 . S
C420 C421 1.394 . S
C420 C426 1.465 . S
C421 C416 1.399 . S
C421 C420 1.394 . S
C421 C422 1.516 . S
C422 C421 1.516 . S
C422 C423 1.502 . S
C422 C424 1.561 . S
C422 C425 1.526 . S
C423 H407 0.959 . S
C423 H408 0.959 1_554 S
C423 H409 0.961 . S
C423 C422 1.502 . S
C424 H410 0.960 . S
C424 H411 0.961 1_455 S
C424 H412 0.959 1_455 S
C424 C422 1.561 . S
C425 C422 1.526 . S
C425 C426 1.396 . S
C425 C430 1.390 . S
C426 C420 1.465 . S
C426 C425 1.396 . S
C426 C427 1.399 . S
C427 H413 0.929 . S
C427 C426 1.399 . S
C427 C428 1.385 . S
C428 H414 0.931 . S
C428 C427 1.385 . S
C428 C429 1.389 . S
C429 C428 1.389 . S
C429 C430 1.387 . S
C430 H415 0.930 . S
C430 C425 1.390 . S
C430 C429 1.387 . S
H431 C443 0.930 . S
H432 C445 0.930 . S
H433 C446 0.930 1_554 S
H434 C450 0.959 . S
H435 C450 0.959 . S
H436 C450 0.961 . S
H437 C451 0.960 . S
H438 C451 0.961 . S
H439 C451 0.959 . S
H440 C454 0.929 . S
H441 C455 0.931 . S
H442 C457 0.930 . S
C443 H431 0.930 . S
C443 C444 1.399 . S
C443 C448 1.399 . S
C444 C443 1.399 . S
C444 C445 1.376 . S
C445 H432 0.930 . S
C445 C444 1.376 . S
C445 C446 1.388 . S
C446 H433 0.930 1_556 S
C446 C445 1.388 . S
C446 C447 1.390 . S
C447 C446 1.390 . S
C447 C448 1.394 . S
C447 C453 1.465 . S
C448 C443 1.399 . S
C448 C447 1.394 . S
C448 C449 1.516 . S
C449 C448 1.516 . S
C449 C450 1.502 . S
C449 C451 1.561 . S
C449 C452 1.526 . S
C450 H434 0.959 . S
C450 H435 0.959 . S
C450 H436 0.961 . S
C450 C449 1.502 . S
C451 H437 0.960 . S
C451 H438 0.961 . S
C451 H439 0.959 . S
C451 C449 1.561 . S
C452 C449 1.526 . S
C452 C453 1.396 . S
C452 C457 1.390 . S
C453 C447 1.465 . S
C453 C452 1.396 . S
C453 C454 1.399 1_556 S
C454 H440 0.929 . S
C454 C453 1.399 1_554 S
C454 C455 1.385 . S
C455 H441 0.931 . S
C455 C454 1.385 . S
C455 C456 1.389 1_554 S
C456 C455 1.389 1_556 S
C456 C457 1.387 . S
C457 H442 0.930 . S
C457 C452 1.390 . S
C457 C456 1.387 . S
H458 C470 0.930 . S
H459 C472 0.930 . S
H460 C473 0.930 . S
H461 C477 0.959 . S
H462 C477 0.946 1_455 S
H463 C477 0.961 . S
H464 C478 0.960 . S
H465 C478 0.961 . S
H466 C478 0.959 . S
H467 C481 0.929 . S
H468 C482 0.931 . S
H469 C484 0.927 . S
C470 H458 0.930 . S
C470 C471 1.399 . S
C470 C475 1.399 . S
C471 C470 1.399 . S
C471 C472 1.376 . S
C472 H459 0.930 . S
C472 C471 1.376 . S
C472 C473 1.388 . S
C473 H460 0.930 . S
C473 C472 1.388 . S
C473 C474 1.390 . S
C474 C473 1.390 . S
C474 C475 1.394 . S
C474 C480 1.465 . S
C475 C470 1.399 . S
C475 C474 1.394 . S
C475 C476 1.516 . S
C476 C475 1.516 . S
C476 C477 1.502 . S
C476 C478 1.561 1_655 S
C476 C479 1.526 . S
C477 H461 0.959 . S
C477 H462 0.946 1_655 S
C477 H463 0.961 . S
C477 C476 1.502 . S
C478 H464 0.960 . S
C478 H465 0.961 . S
C478 H466 0.959 . S
C478 C476 1.561 1_455 S
C479 C476 1.526 . S
C479 C480 1.396 . S
C479 C484 1.390 . S
C480 C474 1.465 . S
C480 C479 1.396 . S
C480 C481 1.399 . S
C481 H467 0.929 . S
C481 C480 1.399 . S
C481 C482 1.385 . S
C482 H468 0.931 . S
C482 C481 1.385 . S
C482 C483 1.389 . S
C483 C482 1.389 . S
C483 C484 1.387 . S
C484 H469 0.927 . S
C484 C479 1.390 . S
C484 C483 1.387 . S
H485 C497 0.930 . S
H486 C499 0.930 . S
H487 C500 0.930 . S
H488 C504 0.959 . S
H489 C504 0.959 . S
H490 C504 0.961 . S
H491 C505 0.960 . S
H492 C505 0.961 . S
H493 C505 0.959 . S
H494 C508 0.929 . S
H495 C509 0.931 . S
H496 C511 0.930 . S
C497 H485 0.930 . S
C497 C498 1.399 . S
C497 C502 1.399 . S
C498 C497 1.399 . S
C498 C499 1.376 . S
C499 H486 0.930 . S
C499 C498 1.376 . S
C499 C500 1.388 . S
C500 H487 0.930 . S
C500 C499 1.388 . S
C500 C501 1.390 . S
C501 C500 1.390 . S
C501 C502 1.394 . S
C501 C507 1.465 . S
C502 C497 1.399 . S
C502 C501 1.394 . S
C502 C503 1.516 . S
C503 C502 1.516 . S
C503 C504 1.502 . S
C503 C505 1.561 . S
C503 C506 1.526 . S
C504 H488 0.959 . S
C504 H489 0.959 . S
C504 H490 0.961 . S
C504 C503 1.502 . S
C505 H491 0.960 . S
C505 H492 0.961 . S
C505 H493 0.959 . S
C505 C503 1.561 . S
C506 C503 1.526 . S
C506 C507 1.396 . S
C506 C511 1.390 . S
C507 C501 1.465 . S
C507 C506 1.396 . S
C507 C508 1.399 . S
C508 H494 0.929 . S
C508 C507 1.399 . S
C508 C509 1.385 . S
C509 H495 0.931 . S
C509 C508 1.385 . S
C509 C510 1.389 . S
C510 C509 1.389 . S
C510 C511 1.387 . S
C511 H496 0.930 . S
C511 C506 1.390 . S
C511 C510 1.387 . S
H512 C524 0.930 1_545 S
H513 C526 0.930 . S
H514 C527 0.930 . S
H515 C531 0.959 1_565 S
H516 C531 0.959 . S
H517 C531 0.961 . S
H518 C532 0.960 . S
H519 C532 0.961 . S
H520 C532 0.959 . S
H521 C535 0.929 1_455 S
H522 C536 0.931 1_455 S
H523 C538 0.930 . S
C524 H512 0.930 1_565 S
C524 C525 1.399 . S
C524 C529 1.399 . S
C525 C524 1.399 . S
C525 C526 1.376 . S
C526 H513 0.930 . S
C526 C525 1.376 . S
C526 C527 1.388 . S
C527 H514 0.930 . S
C527 C526 1.388 . S
C527 C528 1.390 . S
C528 C527 1.390 . S
C528 C529 1.394 . S
C528 C534 1.465 . S
C529 C524 1.399 . S
C529 C528 1.394 . S
C529 C530 1.516 1_565 S
C530 C529 1.516 1_545 S
C530 C531 1.502 . S
C530 C532 1.561 . S
C530 C533 1.526 . S
C531 H515 0.959 1_545 S
C531 H516 0.959 . S
C531 H517 0.961 . S
C531 C530 1.502 . S
C532 H518 0.960 . S
C532 H519 0.961 . S
C532 H520 0.959 . S
C532 C530 1.561 . S
C533 C530 1.526 . S
C533 C534 1.396 1_545 S
C533 C538 1.390 . S
C534 C528 1.465 . S
C534 C533 1.396 1_565 S
C534 C535 1.399 . S
C535 H521 0.929 1_655 S
C535 C534 1.399 . S
C535 C536 1.385 . S
C536 H522 0.931 1_655 S
C536 C535 1.385 . S
C536 C537 1.389 . S
C537 C536 1.389 . S
C537 C538 1.387 1_565 S
C538 H523 0.930 . S
C538 C533 1.390 . S
C538 C537 1.387 1_545 S
H539 C551 0.930 . S
H540 C553 0.930 . S
H541 C554 0.930 1_565 S
H542 C558 0.959 . S
H543 C558 0.959 . S
H544 C558 0.961 . S
H545 C559 0.960 . S
H546 C559 0.961 . S
H547 C559 0.959 . S
H548 C562 0.929 . S
H549 C563 0.931 . S
H550 C565 0.930 . S
C551 H539 0.930 . S
C551 C552 1.399 . S
C551 C556 1.399 . S
C552 C551 1.399 . S
C552 C553 1.376 . S
C553 H540 0.930 . S
C553 C552 1.376 . S
C553 C554 1.388 . S
C554 H541 0.930 1_545 S
C554 C553 1.388 . S
C554 C555 1.390 . S
C555 C554 1.390 . S
C555 C556 1.394 . S
C555 C561 1.465 . S
C556 C551 1.399 . S
C556 C555 1.394 . S
C556 C557 1.516 . S
C557 C556 1.516 . S
C557 C558 1.502 . S
C557 C559 1.561 . S
C557 C560 1.526 . S
C558 H542 0.959 . S
C558 H543 0.959 . S
C558 H544 0.961 . S
C558 C557 1.502 . S
C559 H545 0.960 . S
C559 H546 0.961 . S
C559 H547 0.959 . S
C559 C557 1.561 . S
C560 C557 1.526 . S
C560 C561 1.396 . S
C560 C565 1.390 . S
C561 C555 1.465 . S
C561 C560 1.396 . S
C561 C562 1.399 1_545 S
C562 H548 0.929 . S
C562 C561 1.399 1_565 S
C562 C563 1.385 . S
C563 H549 0.931 . S
C563 C562 1.385 . S
C563 C564 1.389 1_565 S
C564 C563 1.389 1_545 S
C564 C565 1.387 . S
C565 H550 0.930 . S
C565 C560 1.390 . S
C565 C564 1.387 . S
H566 C578 0.930 . S
H567 C580 0.930 . S
H568 C581 0.930 . S
H569 C585 0.959 . S
H570 C585 0.959 . S
H571 C585 0.961 . S
H572 C586 0.960 . S
H573 C586 0.961 . S
H574 C586 0.959 . S
H575 C589 0.929 . S
H576 C590 0.931 . S
H577 C592 0.930 . S
C578 H566 0.930 . S
C578 C579 1.399 . S
C578 C583 1.399 . S
C579 C578 1.399 . S
C579 C580 1.376 . S
C580 H567 0.930 . S
C580 C579 1.376 . S
C580 C581 1.388 . S
C581 H568 0.930 . S
C581 C580 1.388 . S
C581 C582 1.390 . S
C582 C581 1.390 . S
C582 C583 1.394 . S
C582 C588 1.465 . S
C583 C578 1.399 . S
C583 C582 1.394 . S
C583 C584 1.516 . S
C584 C583 1.516 . S
C584 C585 1.502 . S
C584 C586 1.561 . S
C584 C587 1.526 . S
C585 H569 0.959 . S
C585 H570 0.959 . S
C585 H571 0.961 . S
C585 C584 1.502 . S
C586 H572 0.960 . S
C586 H573 0.961 . S
C586 H574 0.959 . S
C586 C584 1.561 . S
C587 C584 1.526 . S
C587 C588 1.396 . S
C587 C592 1.390 . S
C588 C582 1.465 . S
C588 C587 1.396 . S
C588 C589 1.399 . S
C589 H575 0.929 . S
C589 C588 1.399 . S
C589 C590 1.385 . S
C590 H576 0.931 . S
C590 C589 1.385 . S
C590 C591 1.389 . S
C591 C590 1.389 . S
C591 C592 1.387 . S
C592 H577 0.930 . S
C592 C587 1.390 . S
C592 C591 1.387 . S
H593 C605 0.930 . S
H594 C607 0.930 . S
H595 C608 0.930 . S
H596 C612 0.959 . S
H597 C612 0.959 . S
H598 C612 0.961 . S
H599 C613 0.960 . S
H600 C613 0.961 . S
H601 C613 0.959 . S
H602 C616 0.929 . S
H603 C617 0.931 . S
H604 C619 0.930 . S
C605 H593 0.930 . S
C605 C606 1.399 . S
C605 C610 1.399 . S
C606 C605 1.399 . S
C606 C607 1.376 . S
C607 H594 0.930 . S
C607 C606 1.376 . S
C607 C608 1.388 . S
C608 H595 0.930 . S
C608 C607 1.388 . S
C608 C609 1.390 . S
C609 C608 1.390 . S
C609 C610 1.394 . S
C609 C615 1.465 . S
C610 C605 1.399 . S
C610 C609 1.394 . S
C610 C611 1.516 . S
C611 C610 1.516 . S
C611 C612 1.502 . S
C611 C613 1.561 . S
C611 C614 1.526 . S
C612 H596 0.959 . S
C612 H597 0.959 . S
C612 H598 0.961 . S
C612 C611 1.502 . S
C613 H599 0.960 . S
C613 H600 0.961 . S
C613 H601 0.959 . S
C613 C611 1.561 . S
C614 C611 1.526 . S
C614 C615 1.396 . S
C614 C619 1.390 . S
C615 C609 1.465 . S
C615 C614 1.396 . S
C615 C616 1.399 . S
C616 H602 0.929 . S
C616 C615 1.399 . S
C616 C617 1.385 . S
C617 H603 0.931 . S
C617 C616 1.385 . S
C617 C618 1.389 . S
C618 C617 1.389 . S
C618 C619 1.387 . S
C619 H604 0.930 . S
C619 C614 1.390 . S
C619 C618 1.387 . S
H620 C632 0.930 . S
H621 C634 0.930 . S
H622 C635 0.930 . S
H623 C639 0.959 . S
H624 C639 0.959 . S
H625 C639 0.961 . S
H626 C640 0.960 . S
H627 C640 0.961 . S
H628 C640 0.959 1_554 S
H629 C643 0.929 . S
H630 C644 0.931 . S
H631 C646 0.930 . S
C632 H620 0.930 . S
C632 C633 1.399 . S
C632 C637 1.399 . S
C633 C632 1.399 . S
C633 C634 1.376 1_565 S
C634 H621 0.930 . S
C634 C633 1.376 1_545 S
C634 C635 1.388 . S
C635 H622 0.930 . S
C635 C634 1.388 . S
C635 C636 1.390 . S
C636 C635 1.390 . S
C636 C637 1.394 1_545 S
C636 C642 1.465 . S
C637 C632 1.399 . S
C637 C636 1.394 1_565 S
C637 C638 1.516 . S
C638 C637 1.516 . S
C638 C639 1.502 . S
C638 C640 1.561 . S
C638 C641 1.526 . S
C639 H623 0.959 . S
C639 H624 0.959 . S
C639 H625 0.961 . S
C639 C638 1.502 . S
C640 H626 0.960 . S
C640 H627 0.961 . S
C640 H628 0.959 1_556 S
C640 C638 1.561 . S
C641 C638 1.526 . S
C641 C642 1.396 1_565 S
C641 C646 1.390 . S
C642 C636 1.465 . S
C642 C641 1.396 1_545 S
C642 C643 1.399 . S
C643 H629 0.929 . S
C643 C642 1.399 . S
C643 C644 1.385 . S
C644 H630 0.931 . S
C644 C643 1.385 . S
C644 C645 1.389 . S
C645 C644 1.389 . S
C645 C646 1.387 1_545 S
C646 H631 0.930 . S
C646 C641 1.390 . S
C646 C645 1.387 1_565 S
H647 C659 0.930 1_565 S
H648 C661 0.930 . S
H649 C662 0.930 . S
H650 C666 0.959 . S
H651 C666 0.959 . S
H652 C666 0.961 . S
H653 C667 0.960 . S
H654 C667 0.961 . S
H655 C667 0.959 . S
H656 C670 0.929 . S
H657 C671 0.931 . S
H658 C673 0.930 . S
C659 H647 0.930 1_545 S
C659 C660 1.399 . S
C659 C664 1.399 . S
C660 C659 1.399 . S
C660 C661 1.376 . S
C661 H648 0.930 . S
C661 C660 1.376 . S
C661 C662 1.388 . S
C662 H649 0.930 . S
C662 C661 1.388 . S
C662 C663 1.390 . S
C663 C662 1.390 . S
C663 C664 1.394 . S
C663 C669 1.465 . S
C664 C659 1.399 . S
C664 C663 1.394 . S
C664 C665 1.516 1_545 S
C665 C664 1.516 1_565 S
C665 C666 1.502 . S
C665 C667 1.561 . S
C665 C668 1.526 1_565 S
C666 H650 0.959 . S
C666 H651 0.959 . S
C666 H652 0.961 . S
C666 C665 1.502 . S
C667 H653 0.960 . S
C667 H654 0.961 . S
C667 H655 0.959 . S
C667 C665 1.561 . S
C668 C665 1.526 1_545 S
C668 C669 1.396 . S
C668 C673 1.390 1_545 S
C669 C663 1.465 . S
C669 C668 1.396 . S
C669 C670 1.399 . S
C670 H656 0.929 . S
C670 C669 1.399 . S
C670 C671 1.385 . S
C671 H657 0.931 . S
C671 C670 1.385 . S
C671 C672 1.389 . S
C672 C671 1.389 . S
C672 C673 1.387 1_545 S
C673 H658 0.930 . S
C673 C668 1.390 1_565 S
C673 C672 1.387 1_565 S
H674 C686 0.930 . S
H675 C688 0.930 . S
H676 C689 0.930 . S
H677 C693 0.959 . S
H678 C693 0.959 . S
H679 C693 0.961 . S
H680 C694 0.960 . S
H681 C694 0.961 . S
H682 C694 0.959 . S
H683 C697 0.929 1_556 S
H684 C698 0.937 . S
H685 C700 0.930 . S
C686 H674 0.930 . S
C686 C687 1.399 . S
C686 C691 1.399 . S
C687 C686 1.399 . S
C687 C688 1.376 . S
C688 H675 0.930 . S
C688 C687 1.376 . S
C688 C689 1.388 . S
C689 H676 0.930 . S
C689 C688 1.388 . S
C689 C690 1.390 . S
C690 C689 1.390 . S
C690 C691 1.394 . S
C690 C696 1.465 . S
C691 C686 1.399 . S
C691 C690 1.394 . S
C691 C692 1.516 . S
C692 C691 1.516 . S
C692 C693 1.502 . S
C692 C694 1.561 . S
C692 C695 1.526 . S
C693 H677 0.959 . S
C693 H678 0.959 . S
C693 H679 0.961 . S
C693 C692 1.502 . S
C694 H680 0.960 . S
C694 H681 0.961 . S
C694 H682 0.959 . S
C694 C692 1.561 . S
C695 C692 1.526 . S
C695 C696 1.396 . S
C695 C700 1.390 . S
C696 C690 1.465 . S
C696 C695 1.396 . S
C696 C697 1.399 . S
C697 H683 0.929 1_554 S
C697 C696 1.399 . S
C697 C698 1.382 1_554 S
C698 H684 0.937 . S
C698 C697 1.382 1_556 S
C698 C699 1.386 1_556 S
C699 C698 1.386 1_554 S
C699 C700 1.387 . S
C700 H685 0.930 . S
C700 C695 1.390 . S
C700 C699 1.387 . S
H701 C713 0.930 . S
H702 C715 0.930 . S
H703 C716 0.930 . S
H704 C720 0.959 . S
H705 C720 0.959 . S
H706 C720 0.961 . S
H707 C721 0.960 . S
H708 C721 0.961 . S
H709 C721 0.959 . S
H710 C724 0.929 . S
H711 C725 0.931 . S
H712 C727 0.930 . S
C713 H701 0.930 . S
C713 C714 1.399 . S
C713 C718 1.399 . S
C714 C713 1.399 . S
C714 C715 1.376 . S
C715 H702 0.930 . S
C715 C714 1.376 . S
C715 C716 1.388 . S
C716 H703 0.930 . S
C716 C715 1.388 . S
C716 C717 1.390 . S
C717 C716 1.390 . S
C717 C718 1.394 . S
C717 C723 1.465 . S
C718 C713 1.399 . S
C718 C717 1.394 . S
C718 C719 1.516 . S
C719 C718 1.516 . S
C719 C720 1.502 . S
C719 C721 1.561 . S
C719 C722 1.526 . S
C720 H704 0.959 . S
C720 H705 0.959 . S
C720 H706 0.961 . S
C720 C719 1.502 . S
C721 H707 0.960 . S
C721 H708 0.961 . S
C721 H709 0.959 . S
C721 C719 1.561 . S
C722 C719 1.526 . S
C722 C723 1.396 . S
C722 C727 1.390 . S
C723 C717 1.465 . S
C723 C722 1.396 . S
C723 C724 1.399 . S
C724 H710 0.929 . S
C724 C723 1.399 . S
C724 C725 1.385 . S
C725 H711 0.931 . S
C725 C724 1.385 . S
C725 C726 1.389 . S
C726 C725 1.389 . S
C726 C727 1.387 . S
C727 H712 0.930 . S
C727 C722 1.390 . S
C727 C726 1.387 . S
H728 C740 0.930 . S
H729 C742 0.930 1_554 S
H730 C743 0.930 . S
H731 C747 0.959 . S
H732 C747 0.959 . S
H733 C747 0.961 . S
H734 C748 0.965 . S
H735 C748 0.961 . S
H736 C748 0.959 . S
H737 C751 0.929 1_455 S
H738 C752 0.931 . S
H739 C754 0.930 . S
C740 H728 0.930 . S
C740 C741 1.399 . S
C740 C745 1.399 . S
C741 C740 1.399 . S
C741 C742 1.376 . S
C742 H729 0.930 1_556 S
C742 C741 1.376 . S
C742 C743 1.388 1_556 S
C743 H730 0.930 . S
C743 C742 1.388 1_554 S
C743 C744 1.390 1_554 S
C744 C743 1.390 1_556 S
C744 C745 1.394 . S
C744 C750 1.465 . S
C745 C740 1.399 . S
C745 C744 1.394 . S
C745 C746 1.516 . S
C746 C745 1.516 . S
C746 C747 1.502 . S
C746 C748 1.561 1_655 S
C746 C749 1.526 . S
C747 H731 0.959 . S
C747 H732 0.959 . S
C747 H733 0.961 . S
C747 C746 1.502 . S
C748 H734 0.965 . S
C748 H735 0.961 . S
C748 H736 0.959 . S
C748 C746 1.561 1_455 S
C749 C746 1.526 . S
C749 C750 1.396 . S
C749 C754 1.390 . S
C750 C744 1.465 . S
C750 C749 1.396 . S
C750 C751 1.399 1_556 S
C751 H737 0.929 1_655 S
C751 C750 1.399 1_554 S
C751 C752 1.385 1_655 S
C752 H738 0.931 . S
C752 C751 1.385 1_455 S
C752 C753 1.389 1_454 S
C753 C752 1.389 1_656 S
C753 C754 1.387 . S
C754 H739 0.930 . S
C754 C749 1.390 . S
C754 C753 1.387 . S
H755 C767 0.930 . S
H756 C769 0.930 . S
H757 C770 0.930 . S
H758 C774 0.959 . S
H759 C774 0.959 . S
H760 C774 0.961 . S
H761 C775 0.960 . S
H762 C775 0.961 . S
H763 C775 0.959 . S
H764 C778 0.929 . S
H765 C779 0.931 . S
H766 C781 0.930 . S
C767 H755 0.930 . S
C767 C768 1.399 . S
C767 C772 1.399 . S
C768 C767 1.399 . S
C768 C769 1.376 . S
C769 H756 0.930 . S
C769 C768 1.376 . S
C769 C770 1.388 . S
C770 H757 0.930 . S
C770 C769 1.388 . S
C770 C771 1.390 . S
C771 C770 1.390 . S
C771 C772 1.394 . S
C771 C777 1.465 . S
C772 C767 1.399 . S
C772 C771 1.394 . S
C772 C773 1.516 . S
C773 C772 1.516 . S
C773 C774 1.502 . S
C773 C775 1.561 . S
C773 C776 1.526 . S
C774 H758 0.959 . S
C774 H759 0.959 . S
C774 H760 0.961 . S
C774 C773 1.502 . S
C775 H761 0.960 . S
C775 H762 0.961 . S
C775 H763 0.959 . S
C775 C773 1.561 . S
C776 C773 1.526 . S
C776 C777 1.396 . S
C776 C781 1.390 . S
C777 C771 1.465 . S
C777 C776 1.396 . S
C777 C778 1.399 . S
C778 H764 0.929 . S
C778 C777 1.399 . S
C778 C779 1.385 . S
C779 H765 0.931 . S
C779 C778 1.385 . S
C779 C780 1.389 . S
C780 C779 1.389 . S
C780 C781 1.387 . S
C781 H766 0.930 . S
C781 C776 1.390 . S
C781 C780 1.387 . S
H782 C794 0.930 . S
H783 C796 0.930 . S
H784 C797 0.930 . S
H785 C801 0.959 . S
H786 C801 0.959 . S
H787 C801 0.961 . S
H788 C802 0.960 . S
H789 C802 0.961 . S
H790 C802 0.959 . S
H791 C805 0.929 . S
H792 C806 0.931 . S
H793 C808 0.930 . S
C794 H782 0.930 . S
C794 C795 1.399 . S
C794 C799 1.399 . S
C795 C794 1.399 . S
C795 C796 1.376 . S
C796 H783 0.930 . S
C796 C795 1.376 . S
C796 C797 1.388 . S
C797 H784 0.930 . S
C797 C796 1.388 . S
C797 C798 1.390 . S
C798 C797 1.390 . S
C798 C799 1.394 . S
C798 C804 1.465 . S
C799 C794 1.399 . S
C799 C798 1.394 . S
C799 C800 1.516 . S
C800 C799 1.516 . S
C800 C801 1.502 . S
C800 C802 1.561 . S
C800 C803 1.526 . S
C801 H785 0.959 . S
C801 H786 0.959 . S
C801 H787 0.961 . S
C801 C800 1.502 . S
C802 H788 0.960 . S
C802 H789 0.961 . S
C802 H790 0.959 . S
C802 C800 1.561 . S
C803 C800 1.526 . S
C803 C804 1.396 . S
C803 C808 1.390 . S
C804 C798 1.465 . S
C804 C803 1.396 . S
C804 C805 1.399 . S
C805 H791 0.929 . S
C805 C804 1.399 . S
C805 C806 1.385 . S
C806 H792 0.931 . S
C806 C805 1.385 . S
C806 C807 1.389 . S
C807 C806 1.389 . S
C807 C808 1.387 . S
C808 H793 0.930 . S
C808 C803 1.390 . S
C808 C807 1.387 . S
H809 C821 0.930 . S
H810 C823 0.930 . S
H811 C824 0.930 . S
H812 C828 0.959 . S
H813 C828 0.959 . S
H814 C828 0.961 . S
H815 C829 0.960 . S
H816 C829 0.961 . S
H817 C829 0.959 . S
H818 C832 0.929 . S
H819 C833 0.931 . S
H820 C835 0.930 . S
C821 H809 0.930 . S
C821 C822 1.399 . S
C821 C826 1.399 . S
C822 C821 1.399 . S
C822 C823 1.376 . S
C823 H810 0.930 . S
C823 C822 1.376 . S
C823 C824 1.388 . S
C824 H811 0.930 . S
C824 C823 1.388 . S
C824 C825 1.390 . S
C825 C824 1.390 . S
C825 C826 1.394 . S
C825 C831 1.465 . S
C826 C821 1.399 . S
C826 C825 1.394 . S
C826 C827 1.516 . S
C827 C826 1.516 . S
C827 C828 1.502 . S
C827 C829 1.561 . S
C827 C830 1.526 . S
C828 H812 0.959 . S
C828 H813 0.959 . S
C828 H814 0.961 . S
C828 C827 1.502 . S
C829 H815 0.960 . S
C829 H816 0.961 . S
C829 H817 0.959 . S
C829 C827 1.561 . S
C830 C827 1.526 . S
C830 C831 1.396 . S
C830 C835 1.390 . S
C831 C825 1.465 . S
C831 C830 1.396 . S
C831 C832 1.399 . S
C832 H818 0.929 . S
C832 C831 1.399 . S
C832 C833 1.385 . S
C833 H819 0.931 . S
C833 C832 1.385 . S
C833 C834 1.389 . S
C834 C833 1.389 . S
C834 C835 1.387 . S
C835 H820 0.930 . S
C835 C830 1.390 . S
C835 C834 1.387 . S
C201 C6 1.749 . S
C213 C114 1.732 . S
C228 C18 1.839 . S
C240 C138 1.855 . S
C267 C158 1.431 . S
C255 C28 1.432 . S
C282 C40 0.906 . S
C294 C181 0.973 . S
C321 C140 1.911 . S
C309 C9 1.943 . S
C348 C116 1.596 . S
C336 C16 1.656 . S
C375 C184 1.570 . S
C363 C30 1.598 . S
C402 C161 1.222 . S
C390 C42 1.319 . S
C417 C4 1.413 . S
C429 C186 1.414 . S
C456 C135 1.665 . S
C444 C33 1.645 . S
C471 C45 1.356 . S
C483 C113 1.373 . S
C498 C21 1.649 . S
C510 C163 1.649 . S
C537 C117 1.817 . S
C525 C57 1.823 . S
C552 C66 1.817 . S
C564 C139 1.828 . S
C579 C76 1.746 . S
C591 C159 1.760 . S
C606 C88 1.204 . S
C618 C182 1.197 . S
C633 C54 1.777 . S
C645 C137 1.729 . S
C672 C115 1.521 . S
C660 C64 1.508 . S
C699 C185 1.360 . S
C687 C78 1.423 . S
C726 C162 1.253 . S
C714 C93 1.224 . S
C741 C52 1.686 . S
C753 C183 1.663 1_655 S
C780 C136 1.553 . S
C768 C81 1.564 . S
C807 C112 1.354 . S
C795 C90 1.299 . S
C822 C69 2.005 . S
C834 C160 1.959 . S
