# Generated by pormake.
# Topology rtl, (3,6)-cn, num edge types: 1
# Building blocks:
#     Node 0, Type 0, BuildingBlock: VETTIZ_charged_linker_0, # of connection points: 3
#     Node 1, Type 0, BuildingBlock: VETTIZ_charged_linker_0, # of connection points: 3
#     Node 2, Type 0, BuildingBlock: VETTIZ_charged_linker_0, # of connection points: 3
#     Node 3, Type 0, BuildingBlock: VETTIZ_charged_linker_0, # of connection points: 3
#     Node 4, Type 1, BuildingBlock: LEVNOQ01_clean_sbu_1, # of connection points: 6
#     Node 5, Type 1, BuildingBlock: LEVNOQ01_clean_sbu_1, # of connection points: 6
#     Edge 6, Type (0, 1), BuildingBlock: AJUNOK_clean_linker_0, # of connection points: 2
#     Edge 7, Type (0, 1), BuildingBlock: AJUNOK_clean_linker_0, # of connection points: 2
#     Edge 8, Type (0, 1), BuildingBlock: AJUNOK_clean_linker_0, # of connection points: 2
#     Edge 9, Type (0, 1), BuildingBlock: AJUNOK_clean_linker_0, # of connection points: 2
#     Edge 10, Type (0, 1), BuildingBlock: AJUNOK_clean_linker_0, # of connection points: 2
#     Edge 11, Type (0, 1), BuildingBlock: AJUNOK_clean_linker_0, # of connection points: 2
#     Edge 12, Type (0, 1), BuildingBlock: AJUNOK_clean_linker_0, # of connection points: 2
#     Edge 13, Type (0, 1), BuildingBlock: AJUNOK_clean_linker_0, # of connection points: 2
#     Edge 14, Type (0, 1), BuildingBlock: AJUNOK_clean_linker_0, # of connection points: 2
#     Edge 15, Type (0, 1), BuildingBlock: AJUNOK_clean_linker_0, # of connection points: 2
#     Edge 16, Type (0, 1), BuildingBlock: AJUNOK_clean_linker_0, # of connection points: 2
#     Edge 17, Type (0, 1), BuildingBlock: AJUNOK_clean_linker_0, # of connection points: 2
# Relax obj value: 0.027
# Max RMSD: 0.061
# Mean RMSD: 0.047
data_MOF--net-rtl--node1-LEVNOQ01_clean_sbu_1--node2-VETTIZ_charged_linker_0--edge1-AJUNOK_clean_linker_0
_symmetry_space_group_name_H-M    P1
_symmetry_Int_Tables_number       1
_symmetry_cell_setting            triclinic
loop_
_symmetry_equiv_pos_as_xyz
'x, y, z'
_cell_length_a     29.020674
_cell_length_b     32.939112
_cell_length_c     23.302001
_cell_angle_alpha  89.927765
_cell_angle_beta   98.124485
_cell_angle_gamma 90.643418
loop_
_atom_site_label
_atom_site_type_symbol
_atom_site_fract_x
_atom_site_fract_y
_atom_site_fract_z
_atom_type_partial_charge
C0 C 0.2169 0.89847 0.89937 0.0
C1 C 0.17745 0.92258 0.8839 0.0
C2 C 0.15679 0.94185 0.92754 0.0
C3 C 0.21417 0.91283 1.00107 0.0
C4 C 0.2344 0.89372 0.95828 0.0
C5 C 0.27501 0.86803 0.98314 0.0
H6 H 0.37937 0.76387 0.21273 0.0
C7 C 0.23963 0.90099 0.05778 0.0
C8 C 0.27526 0.87464 0.04794 0.0
H9 H 0.40951 0.7627 0.03641 0.0
H10 H 0.36027 0.82062 0.01307 0.0
H11 H 0.39019 0.86344 0.22118 0.0
H12 H 0.27072 0.78365 0.18997 0.0
H13 H 0.26192 0.81994 0.243 0.0
H14 H 0.30984 0.7857 0.25702 0.0
H15 H 0.36639 0.8394 0.2797 0.0
H16 H 0.34504 0.88755 0.25028 0.0
C17 C 0.31974 0.8851 0.96205 0.0
C18 C 0.26315 0.82354 0.96479 0.0
C19 C 0.18071 0.94813 0.24028 0.0
C20 C 0.19138 0.93719 0.29877 0.0
C21 C 0.22967 0.91194 0.31611 0.0
C22 C 0.25551 0.8961 0.27486 0.0
C23 C 0.24243 0.90536 0.21587 0.0
C24 C 0.20622 0.9317 0.19974 0.0
C25 C 0.19544 0.93676 0.13529 0.0
C26 C 0.23191 0.90977 0.11516 0.0
C27 C 0.25906 0.89118 0.16239 0.0
C28 C 0.20347 0.98194 0.12067 0.0
C29 C 0.1451 0.92065 0.11552 0.0
C30 C 0.37557 0.7766 0.16947 0.0
C31 C 0.39741 0.75869 0.126 0.0
C32 C 0.39268 0.77619 0.07033 0.0
C33 C 0.36366 0.80932 0.05659 0.0
C34 C 0.33895 0.82491 0.09888 0.0
C35 C 0.34725 0.81045 0.15513 0.0
C36 C 0.3213 0.83422 0.19519 0.0
C37 C 0.29361 0.86293 0.15258 0.0
C38 C 0.30305 0.85624 0.09591 0.0
C39 C 0.35732 0.85723 0.23927 0.0
C40 C 0.2893 0.80451 0.22322 0.0
H41 H 0.15805 0.95327 0.01687 0.0
H42 H 0.23356 0.88364 0.8664 0.0
H43 H 0.22788 0.81495 0.9745 0.0
H44 H 0.28719 0.80128 0.98745 0.0
H45 H 0.26336 0.81959 0.91748 0.0
H46 H 0.31601 0.9176 0.94934 0.0
H47 H 0.32815 0.86807 0.92381 0.0
H48 H 0.35015 0.88458 0.99661 0.0
H49 H 0.15133 0.96744 0.22585 0.0
H50 H 0.23809 0.9028 0.36101 0.0
H51 H 0.28338 0.87597 0.29014 0.0
H52 H 0.23544 0.99409 0.14742 0.0
H53 H 0.17375 0.00076 0.12956 0.0
H54 H 0.2091 0.98667 0.07524 0.0
H55 H 0.13363 0.89881 0.14726 0.0
H56 H 0.14196 0.90322 0.07457 0.0
H57 H 0.11968 0.9458 0.11047 0.0
H58 H 0.12691 0.96119 0.91628 0.0
C59 C 0.17512 0.93739 0.9859 0.0
C60 C 0.73239 0.59024 0.77851 0.0
C61 C 0.69538 0.56281 0.78235 0.0
C62 C 0.67549 0.54193 0.73188 0.0
C63 C 0.72182 0.58227 0.67392 0.0
C64 C 0.74402 0.60043 0.7239 0.0
C65 C 0.77535 0.63503 0.71106 0.0
H66 H 0.84708 0.76343 0.51386 0.0
C67 C 0.73574 0.60436 0.62376 0.0
C68 C 0.76687 0.63555 0.64524 0.0
H69 H 0.88922 0.7637 0.69926 0.0
H70 H 0.84149 0.70376 0.7084 0.0
H71 H 0.85399 0.66415 0.49731 0.0
H72 H 0.74292 0.7464 0.51598 0.0
H73 H 0.71858 0.70812 0.4685 0.0
H74 H 0.76448 0.7402 0.44813 0.0
H75 H 0.83262 0.70102 0.44349 0.0
H76 H 0.80603 0.65146 0.44509 0.0
C77 C 0.82611 0.62368 0.7346 0.0
C78 C 0.75824 0.67437 0.73746 0.0
C79 C 0.66147 0.56656 0.41948 0.0
C80 C 0.66189 0.585 0.36495 0.0
C81 C 0.68894 0.62063 0.36179 0.0
C82 C 0.71571 0.63693 0.41141 0.0
C83 C 0.7148 0.61813 0.46541 0.0
C84 C 0.68756 0.5838 0.46888 0.0
C85 C 0.68751 0.57004 0.53052 0.0
C86 C 0.72062 0.60091 0.56321 0.0
C87 C 0.73666 0.62884 0.52483 0.0
C88 C 0.70748 0.52665 0.5366 0.0
C89 C 0.63715 0.57358 0.54535 0.0
C90 C 0.84634 0.75036 0.55642 0.0
C91 C 0.87183 0.76827 0.60596 0.0
C92 C 0.86948 0.75068 0.66061 0.0
C93 C 0.84194 0.7158 0.66568 0.0
C94 C 0.81614 0.69861 0.61563 0.0
C95 C 0.81902 0.7158 0.56215 0.0
C96 C 0.7894 0.69378 0.51353 0.0
C97 C 0.76835 0.66024 0.54647 0.0
C98 C 0.78382 0.66333 0.60627 0.0
C99 C 0.82187 0.67679 0.4722 0.0
C100 C 0.75199 0.72348 0.48449 0.0
H101 H 0.67114 0.53542 0.64084 0.0
H102 H 0.74938 0.60597 0.81663 0.0
H103 H 0.71957 0.67457 0.73329 0.0
H104 H 0.76749 0.70223 0.7152 0.0
H105 H 0.77205 0.67697 0.78427 0.0
H106 H 0.832 0.59075 0.7284 0.0
H107 H 0.83421 0.63028 0.7817 0.0
H108 H 0.85187 0.63937 0.7115 0.0
H109 H 0.64081 0.53945 0.42393 0.0
H110 H 0.68865 0.63662 0.32115 0.0
H111 H 0.73545 0.66403 0.40591 0.0
H112 H 0.73896 0.52438 0.51457 0.0
H113 H 0.68154 0.50393 0.51652 0.0
H114 H 0.71877 0.51791 0.58214 0.0
H115 H 0.61606 0.59524 0.51611 0.0
H116 H 0.63625 0.58587 0.58934 0.0
H117 H 0.61863 0.54381 0.54127 0.0
H118 H 0.64709 0.52051 0.73334 0.0
C119 C 0.68886 0.55122 0.67786 0.0
C120 C 0.83934 0.14791 0.21232 0.0
C121 C 0.86969 0.11544 0.22625 0.0
C122 C 0.88468 0.09273 0.18126 0.0
C123 C 0.83695 0.13343 0.10962 0.0
C124 C 0.8236 0.15641 0.15401 0.0
C125 C 0.79111 0.18987 0.13193 0.0
H126 H 0.65563 0.2801 0.90937 0.0
C127 C 0.81218 0.14894 0.05416 0.0
C128 C 0.78531 0.18199 0.06713 0.0
H129 H 0.68146 0.31685 0.08894 0.0
H130 H 0.73498 0.26172 0.1109 0.0
H131 H 0.76595 0.26443 0.90194 0.0
H132 H 0.65194 0.18529 0.92853 0.0
H133 H 0.68556 0.15893 0.88407 0.0
H134 H 0.65811 0.2058 0.8586 0.0
H135 H 0.71951 0.25179 0.84527 0.0
H136 H 0.77039 0.22066 0.86049 0.0
C137 C 0.81591 0.23113 0.1484 0.0
C138 C 0.74487 0.18338 0.15692 0.0
C139 C 0.84124 0.0899 0.86111 0.0
C140 C 0.82373 0.10006 0.80355 0.0
C141 C 0.78475 0.12543 0.79275 0.0
C142 C 0.76625 0.14356 0.83861 0.0
C143 C 0.78709 0.13636 0.89582 0.0
C144 C 0.82241 0.1084 0.90659 0.0
C145 C 0.83919 0.10389 0.97051 0.0
C146 C 0.81049 0.1359 0.99571 0.0
C147 C 0.78038 0.155 0.95153 0.0
C148 C 0.89192 0.11408 0.98182 0.0
C149 C 0.82648 0.06044 0.98882 0.0
C150 C 0.67342 0.27627 0.95311 0.0
C151 C 0.66498 0.3026 0.99759 0.0
C152 C 0.68827 0.29698 0.05412 0.0
C153 C 0.71904 0.26486 0.06679 0.0
C154 C 0.72686 0.23822 0.02231 0.0
C155 C 0.70506 0.24461 0.96636 0.0
C156 C 0.72017 0.21463 0.9243 0.0
C157 C 0.75367 0.18873 0.9646 0.0
C158 C 0.75686 0.20248 0.02194 0.0
C159 C 0.74508 0.23879 0.88025 0.0
C160 C 0.67687 0.18991 0.89687 0.0
H161 H 0.88053 0.08282 0.09063 0.0
H162 H 0.82784 0.1661 0.24621 0.0
H163 H 0.73418 0.15081 0.15423 0.0
H164 H 0.71546 0.20005 0.13297 0.0
H165 H 0.74868 0.19257 0.20322 0.0
H166 H 0.85443 0.22805 0.15664 0.0
H167 H 0.80483 0.24401 0.18824 0.0
H168 H 0.80977 0.25372 0.11297 0.0
H169 H 0.87108 0.07029 0.87052 0.0
H170 H 0.77019 0.13292 0.74866 0.0
H171 H 0.73766 0.1638 0.8276 0.0
H172 H 0.90021 0.14048 0.9551 0.0
H173 H 0.91286 0.08799 0.97056 0.0
H174 H 0.90407 0.12303 0.02708 0.0
H175 H 0.79276 0.05008 0.96415 0.0
H176 H 0.82133 0.05848 0.03479 0.0
H177 H 0.85346 0.03841 0.98045 0.0
H178 H 0.90811 0.06752 0.19132 0.0
C179 C 0.86832 0.10144 0.12299 0.0
C180 C 0.26054 0.43524 0.28675 0.0
C181 C 0.29496 0.46547 0.28381 0.0
C182 C 0.31709 0.48265 0.33625 0.0
C183 C 0.27449 0.43693 0.39194 0.0
C184 C 0.25199 0.42064 0.3408 0.0
C185 C 0.22381 0.38329 0.35091 0.0
H186 H 0.1679 0.23946 0.53783 0.0
C187 C 0.26208 0.41191 0.44041 0.0
C188 C 0.23293 0.38002 0.41651 0.0
H189 H 0.12735 0.24223 0.35248 0.0
H190 H 0.16503 0.30843 0.34791 0.0
H191 H 0.2715 0.27327 0.54094 0.0
H192 H 0.14203 0.33083 0.55846 0.0
H193 H 0.18493 0.35755 0.60453 0.0
H194 H 0.17486 0.30432 0.61761 0.0
H195 H 0.24121 0.26611 0.60232 0.0
H196 H 0.28198 0.30738 0.59948 0.0
C197 C 0.24391 0.34686 0.32079 0.0
C198 C 0.17203 0.3919 0.32899 0.0
C199 C 0.32441 0.4497 0.64911 0.0
C200 C 0.31957 0.4317 0.70281 0.0
C201 C 0.29348 0.39548 0.70362 0.0
C202 C 0.27241 0.37749 0.65182 0.0
C203 C 0.27752 0.39584 0.59846 0.0
C204 C 0.30319 0.43135 0.5977 0.0
C205 C 0.30546 0.44615 0.53691 0.0
C206 C 0.27531 0.41451 0.50146 0.0
C207 C 0.25953 0.38497 0.53776 0.0
C208 C 0.35691 0.44483 0.52578 0.0
C209 C 0.2836 0.48881 0.53034 0.0
C210 C 0.16746 0.25433 0.49622 0.0
C211 C 0.14575 0.23566 0.44526 0.0
C212 C 0.14453 0.2561 0.39204 0.0
C213 C 0.16647 0.29431 0.38965 0.0
C214 C 0.18968 0.31197 0.44106 0.0
C215 C 0.18891 0.29223 0.49326 0.0
C216 C 0.21364 0.31567 0.5439 0.0
C217 C 0.23123 0.35215 0.5135 0.0
C218 C 0.21743 0.34986 0.45328 0.0
C219 C 0.25411 0.2894 0.57378 0.0
C220 C 0.17735 0.32762 0.58365 0.0
H221 H 0.32532 0.48275 0.42813 0.0
H222 H 0.2427 0.42115 0.24774 0.0
H223 H 0.16293 0.42325 0.34075 0.0
H224 H 0.14805 0.37171 0.34878 0.0
H225 H 0.16458 0.38909 0.28107 0.0
H226 H 0.28231 0.34996 0.32266 0.0
H227 H 0.22861 0.34482 0.2744 0.0
H228 H 0.23878 0.31752 0.34196 0.0
H229 H 0.34462 0.4774 0.64718 0.0
H230 H 0.28872 0.38141 0.74446 0.0
H231 H 0.25294 0.34996 0.65539 0.0
H232 H 0.37734 0.42245 0.55448 0.0
H233 H 0.37436 0.47488 0.5338 0.0
H234 H 0.36028 0.43469 0.48132 0.0
H235 H 0.25039 0.4893 0.54903 0.0
H236 H 0.27475 0.49826 0.48471 0.0
H237 H 0.30737 0.51202 0.55344 0.0
H238 H 0.34485 0.50485 0.33633 0.0
C239 C 0.3065 0.46903 0.39001 0.0
O240 O 0.99407 0.08701 0.66971 0.0
Mg241 Mg 0.0596 0.07767 0.64364 0.0
O242 O 0.95898 0.03736 0.61517 0.0
Mg243 Mg 0.01209 0.01264 0.5571 0.0
O244 O 0.05389 0.07297 0.55608 0.0
O245 O 0.0909 0.12436 0.60645 0.0
O246 O 0.06456 0.98809 0.50062 0.0
O247 O 0.96984 0.04741 0.47625 0.0
Mg248 Mg 0.96021 0.97496 0.48145 0.0
O249 O 0.97154 0.94802 0.56133 0.0
O250 O 0.01223 0.97395 0.42611 0.0
O251 O 0.904 0.01449 0.46055 0.0
O252 O 0.93571 0.91819 0.47973 0.0
C253 C 0.09227 0.99497 0.67571 0.0
C254 C 0.95832 0.06544 0.65277 0.0
C255 C 0.0774 0.10682 0.55739 0.0
C256 C 0.0545 0.97743 0.44797 0.0
C257 C 0.9279 0.04527 0.45116 0.0
C258 C 0.94986 0.91697 0.53458 0.0
O259 O 0.10233 0.03218 0.68371 0.0
O260 O 0.05909 0.98341 0.63696 0.0
O261 O 0.51978 0.48678 0.16912 0.0
Mg262 Mg 0.48639 0.45446 0.09408 0.0
O263 O 0.54282 0.53426 0.11257 0.0
Mg264 Mg 0.49116 0.51916 0.03052 0.0
O265 O 0.52108 0.45274 0.02421 0.0
O266 O 0.51515 0.40024 0.08484 0.0
O267 O 0.43881 0.50126 0.94707 0.0
O268 O 0.55192 0.53319 0.97547 0.0
Mg269 Mg 0.46676 0.59098 0.94768 0.0
O270 O 0.46793 0.58579 0.03503 0.0
O271 O 0.41535 0.55613 0.89744 0.0
O272 O 0.53408 0.58963 0.9259 0.0
O273 O 0.44754 0.64243 0.98483 0.0
C274 C 0.40177 0.48013 0.09342 0.0
C275 C 0.54421 0.51819 0.1625 0.0
C276 C 0.52973 0.41527 0.03949 0.0
C277 C 0.41364 0.51806 0.90427 0.0
C278 C 0.56229 0.56136 0.94155 0.0
C279 C 0.45474 0.62334 0.03362 0.0
O280 O 0.41437 0.446 0.07797 0.0
O281 O 0.42861 0.51041 0.08782 0.0
C282 C 0.15445 0.16319 0.47229 0.0
C283 C 0.12506 0.19483 0.45004 0.0
C284 C 0.13687 0.12966 0.49949 0.0
C285 C 0.08943 0.12681 0.50519 0.0
H286 H 0.19184 0.16652 0.47425 0.0
H287 H 0.1613 0.10843 0.52217 0.0
S288 S 0.99697 0.19737 0.4439 0.0
N289 N 0.04549 0.21807 0.42712 0.0
N290 N 0.01239 0.15473 0.47849 0.0
C291 C 0.05895 0.15543 0.47649 0.0
C292 C 0.07685 0.1897 0.44879 0.0
C293 C 0.38977 0.68425 0.12581 0.0
C294 C 0.41924 0.71858 0.1335 0.0
C295 C 0.40459 0.64853 0.10175 0.0
C296 C 0.44937 0.64625 0.08591 0.0
H297 H 0.35328 0.68689 0.13044 0.0
H298 H 0.37899 0.62501 0.08814 0.0
S299 S 0.54287 0.72407 0.11161 0.0
N300 N 0.49743 0.74544 0.13424 0.0
N301 N 0.52567 0.67783 0.09028 0.0
C302 C 0.4812 0.6779 0.10236 0.0
C303 C 0.466 0.71437 0.12601 0.0
C304 C 0.9293 0.80585 0.55561 0.0
C305 C 0.9003 0.80524 0.59908 0.0
C306 C 0.94877 0.84217 0.53871 0.0
C307 C 0.94051 0.87922 0.56506 0.0
H308 H 0.93486 0.77835 0.53218 0.0
H309 H 0.96829 0.84159 0.50235 0.0
S310 S 0.87165 0.89369 0.68545 0.0
N311 N 0.86753 0.84445 0.67169 0.0
N312 N 0.90513 0.91291 0.64018 0.0
C313 C 0.91496 0.87875 0.61186 0.0
C314 C 0.89461 0.84163 0.62888 0.0
C315 C 0.58215 0.32077 0.98956 0.0
C316 C 0.62834 0.33328 0.98825 0.0
C317 C 0.54853 0.34873 1.00043 0.0
C318 C 0.56005 0.39003 0.00933 0.0
H319 H 0.57299 0.28876 0.98751 0.0
H320 H 0.51423 0.33754 0.0062 0.0
S321 S 0.67466 0.43855 1.00135 0.0
N322 N 0.68299 0.38977 0.99037 0.0
N323 N 0.61921 0.44279 0.00925 0.0
C324 C 0.6049 0.40348 0.00207 0.0
C325 C 0.63937 0.37486 0.99205 0.0
C326 C 0.11092 0.93884 0.32252 0.0
C327 C 0.15838 0.94767 0.33908 0.0
C328 C 0.078 0.94868 0.35817 0.0
C329 C 0.0911 0.96767 0.41214 0.0
H330 H 0.09906 0.92391 0.28158 0.0
H331 H 0.04191 0.94104 0.34313 0.0
S332 S 0.2113 0.99786 0.47516 0.0
N333 N 0.21728 0.97676 0.41237 0.0
N334 N 0.15514 0.99531 0.48032 0.0
C335 C 0.13864 0.97653 0.42957 0.0
C336 C 0.17235 0.96643 0.39288 0.0
C337 C 0.65335 0.52457 0.85358 0.0
C338 C 0.67149 0.56148 0.83493 0.0
C339 C 0.62098 0.52405 0.89318 0.0
C340 C 0.60566 0.56045 0.91516 0.0
H341 H 0.66211 0.4961 0.83482 0.0
H342 H 0.60519 0.49536 0.90287 0.0
S343 S 0.64713 0.66454 0.88743 0.0
N344 N 0.67471 0.63504 0.8467 0.0
N345 N 0.61541 0.63364 0.92203 0.0
C346 C 0.62673 0.59706 0.90121 0.0
C347 C 0.6593 0.59771 0.86088 0.0
C348 C 0.93111 0.10158 0.31044 0.0
C349 C 0.88375 0.10364 0.28747 0.0
C350 C 0.9451 0.08597 0.36614 0.0
C351 C 0.91219 0.07098 0.40015 0.0
H352 H 0.9575 0.11099 0.28448 0.0
H353 H 0.98204 0.08321 0.38097 0.0
S354 S 0.78381 0.07307 0.3614 0.0
N355 N 0.80388 0.09261 0.30437 0.0
N356 N 0.8301 0.06238 0.40855 0.0
C357 C 0.86467 0.07493 0.37873 0.0
C358 C 0.85047 0.09143 0.32246 0.0
C359 C 0.33305 0.493 0.76597 0.0
C360 C 0.34068 0.45155 0.75763 0.0
C361 C 0.35487 0.51349 0.81514 0.0
C362 C 0.3856 0.49351 0.85808 0.0
H363 H 0.31044 0.50994 0.73371 0.0
H364 H 0.34847 0.54568 0.81854 0.0
S365 S 0.41588 0.38428 0.85773 0.0
N366 N 0.37965 0.39059 0.79711 0.0
N367 N 0.42092 0.42911 0.88983 0.0
C368 C 0.39217 0.45156 0.85138 0.0
C369 C 0.36971 0.43061 0.8011 0.0
C370 C 0.58742 0.55313 0.31591 0.0
C371 C 0.63265 0.56808 0.31225 0.0
C372 C 0.55917 0.53689 0.26736 0.0
C373 C 0.57453 0.53579 0.21286 0.0
H374 H 0.57339 0.5543 0.35653 0.0
H375 H 0.52471 0.52569 0.27235 0.0
S376 S 0.69053 0.56843 0.17974 0.0
N377 N 0.69227 0.57807 0.24955 0.0
N378 N 0.63803 0.54961 0.1579 0.0
C379 C 0.61939 0.55066 0.2082 0.0
C380 C 0.64868 0.56632 0.25791 0.0
C381 C 0.86464 0.0498 0.74784 0.0
C382 C 0.85074 0.08993 0.75622 0.0
C383 C 0.89672 0.04122 0.7097 0.0
C384 C 0.91645 0.07267 0.68001 0.0
H385 H 0.85202 0.02522 0.77257 0.0
H386 H 0.9085 0.0103 0.70653 0.0
S387 S 0.88961 0.18218 0.68418 0.0
N388 N 0.85723 0.16086 0.72894 0.0
N389 N 0.91785 0.14468 0.65832 0.0
C390 C 0.90113 0.11246 0.68588 0.0
C391 C 0.86815 0.12112 0.72377 0.0
C392 C 0.3179 0.44066 0.19046 0.0
C393 C 0.3133 0.47347 0.22785 0.0
C394 C 0.34268 0.44457 0.14354 0.0
C395 C 0.36531 0.48119 0.13238 0.0
H396 H 0.30505 0.41066 0.19938 0.0
H397 H 0.34679 0.41756 0.11835 0.0
S398 S 0.35621 0.57875 0.20922 0.0
N399 N 0.32646 0.54603 0.24377 0.0
N400 N 0.37572 0.55268 0.15731 0.0
C401 C 0.35783 0.51527 0.16609 0.0
C402 C 0.33147 0.51152 0.2135 0.0
C403 C 0.11153 0.92418 0.80257 0.0
C404 C 0.15909 0.9308 0.82265 0.0
C405 C 0.09058 0.94128 0.75027 0.0
C406 C 0.11652 0.96609 0.71735 0.0
H407 H 0.08984 0.90793 0.82933 0.0
H408 H 0.05323 0.93818 0.73847 0.0
S409 S 0.24315 0.9881 0.74713 0.0
N410 N 0.2324 0.9597 0.8023 0.0
N411 N 0.19286 0.99256 0.70461 0.0
C412 C 0.16475 0.97002 0.7345 0.0
C413 C 0.18615 0.95214 0.78713 0.0
loop_
_geom_bond_atom_site_label_1
_geom_bond_atom_site_label_2
_geom_bond_distance
_geom_bond_site_symmetry_2
_ccdc_geom_bond_type
C0 C1 1.391 . S
C0 C4 1.391 . S
C0 H42 0.948 . S
C1 C0 1.391 . S
C1 C2 1.391 . S
C2 C1 1.391 . S
C2 H58 0.947 1_565 S
C2 C59 1.392 . S
C3 C4 1.391 . S
C3 C7 1.397 1_556 S
C3 C59 1.419 . S
C4 C0 1.391 . S
C4 C3 1.391 . S
C4 C5 1.399 . S
C5 C4 1.399 . S
C5 C8 1.396 1_556 S
C5 C17 1.453 . S
C5 C18 1.684 . S
H6 C30 0.948 . S
C7 C3 1.397 1_554 S
C7 C8 1.394 . S
C7 C26 1.723 . S
C8 C5 1.396 1_554 S
C8 C7 1.394 . S
C8 C38 1.723 . S
H9 C32 0.947 1_556 S
H10 C33 0.948 1_556 S
H11 C39 0.982 . S
H12 C40 0.979 . S
H13 C40 0.980 . S
H14 C40 0.983 . S
H15 C39 0.979 . S
H16 C39 0.977 . S
C17 C5 1.453 . S
C17 H46 0.982 . S
C17 H47 0.979 . S
C17 H48 0.977 . S
C18 C5 1.684 . S
C18 H43 0.979 . S
C18 H44 0.980 . S
C18 H45 0.983 . S
C19 C20 1.391 . S
C19 C24 1.391 . S
C19 H49 0.948 . S
C20 C19 1.391 . S
C20 C21 1.391 . S
C21 C20 1.391 . S
C21 C22 1.392 . S
C21 H50 0.947 . S
C22 C21 1.392 . S
C22 C23 1.419 . S
C22 H51 0.948 . S
C23 C22 1.419 . S
C23 C24 1.391 . S
C23 C27 1.397 . S
C24 C19 1.391 . S
C24 C23 1.391 . S
C24 C25 1.399 . S
C25 C24 1.399 . S
C25 C26 1.396 . S
C25 C28 1.453 . S
C25 C29 1.684 . S
C26 C7 1.723 . S
C26 C25 1.396 . S
C26 C27 1.394 . S
C27 C23 1.397 . S
C27 C26 1.394 . S
C27 C37 1.723 . S
C28 C25 1.453 . S
C28 H52 0.982 . S
C28 H53 0.979 1_565 S
C28 H54 0.977 . S
C29 C25 1.684 . S
C29 H55 0.979 . S
C29 H56 0.980 . S
C29 H57 0.983 . S
C30 H6 0.948 . S
C30 C31 1.391 . S
C30 C35 1.391 . S
C31 C30 1.391 . S
C31 C32 1.391 . S
C32 H9 0.947 1_554 S
C32 C31 1.391 . S
C32 C33 1.392 . S
C33 H10 0.948 1_554 S
C33 C32 1.392 . S
C33 C34 1.419 . S
C34 C33 1.419 . S
C34 C35 1.391 . S
C34 C38 1.397 . S
C35 C30 1.391 . S
C35 C34 1.391 . S
C35 C36 1.399 . S
C36 C35 1.399 . S
C36 C37 1.396 . S
C36 C39 1.453 . S
C36 C40 1.684 . S
C37 C27 1.723 . S
C37 C36 1.396 . S
C37 C38 1.394 . S
C38 C8 1.723 . S
C38 C34 1.397 . S
C38 C37 1.394 . S
C39 H11 0.982 . S
C39 H15 0.979 . S
C39 H16 0.977 . S
C39 C36 1.453 . S
C40 H12 0.979 . S
C40 H13 0.980 . S
C40 H14 0.983 . S
C40 C36 1.684 . S
H41 C59 0.948 1_554 S
H42 C0 0.948 . S
H43 C18 0.979 . S
H44 C18 0.980 . S
H45 C18 0.983 . S
H46 C17 0.982 . S
H47 C17 0.979 . S
H48 C17 0.977 . S
H49 C19 0.948 . S
H50 C21 0.947 . S
H51 C22 0.948 . S
H52 C28 0.982 . S
H53 C28 0.979 1_545 S
H54 C28 0.977 . S
H55 C29 0.979 . S
H56 C29 0.980 . S
H57 C29 0.983 . S
H58 C2 0.947 1_545 S
C59 C2 1.392 . S
C59 C3 1.419 . S
C59 H41 0.948 1_556 S
C60 C61 1.391 . S
C60 C64 1.391 . S
C60 H102 0.948 . S
C61 C60 1.391 . S
C61 C62 1.391 . S
C62 C61 1.391 . S
C62 H118 0.947 . S
C62 C119 1.392 . S
C63 C64 1.391 . S
C63 C67 1.397 . S
C63 C119 1.419 . S
C64 C60 1.391 . S
C64 C63 1.391 . S
C64 C65 1.399 . S
C65 C64 1.399 . S
C65 C68 1.396 . S
C65 C77 1.453 . S
C65 C78 1.684 . S
H66 C90 0.948 . S
C67 C63 1.397 . S
C67 C68 1.394 . S
C67 C86 1.723 . S
C68 C65 1.396 . S
C68 C67 1.394 . S
C68 C98 1.723 . S
H69 C92 0.947 . S
H70 C93 0.948 . S
H71 C99 0.982 . S
H72 C100 0.979 . S
H73 C100 0.980 . S
H74 C100 0.983 . S
H75 C99 0.979 . S
H76 C99 0.977 . S
C77 C65 1.453 . S
C77 H106 0.982 . S
C77 H107 0.979 . S
C77 H108 0.977 . S
C78 C65 1.684 . S
C78 H103 0.979 . S
C78 H104 0.980 . S
C78 H105 0.983 . S
C79 C80 1.391 . S
C79 C84 1.391 . S
C79 H109 0.948 . S
C80 C79 1.391 . S
C80 C81 1.391 . S
C81 C80 1.391 . S
C81 C82 1.392 . S
C81 H110 0.947 . S
C82 C81 1.392 . S
C82 C83 1.419 . S
C82 H111 0.948 . S
C83 C82 1.419 . S
C83 C84 1.391 . S
C83 C87 1.397 . S
C84 C79 1.391 . S
C84 C83 1.391 . S
C84 C85 1.399 . S
C85 C84 1.399 . S
C85 C86 1.396 . S
C85 C88 1.453 . S
C85 C89 1.684 . S
C86 C67 1.723 . S
C86 C85 1.396 . S
C86 C87 1.394 . S
C87 C83 1.397 . S
C87 C86 1.394 . S
C87 C97 1.723 . S
C88 C85 1.453 . S
C88 H112 0.982 . S
C88 H113 0.979 . S
C88 H114 0.977 . S
C89 C85 1.684 . S
C89 H115 0.979 . S
C89 H116 0.980 . S
C89 H117 0.983 . S
C90 H66 0.948 . S
C90 C91 1.391 . S
C90 C95 1.391 . S
C91 C90 1.391 . S
C91 C92 1.391 . S
C92 H69 0.947 . S
C92 C91 1.391 . S
C92 C93 1.392 . S
C93 H70 0.948 . S
C93 C92 1.392 . S
C93 C94 1.419 . S
C94 C93 1.419 . S
C94 C95 1.391 . S
C94 C98 1.397 . S
C95 C90 1.391 . S
C95 C94 1.391 . S
C95 C96 1.399 . S
C96 C95 1.399 . S
C96 C97 1.396 . S
C96 C99 1.453 . S
C96 C100 1.684 . S
C97 C87 1.723 . S
C97 C96 1.396 . S
C97 C98 1.394 . S
C98 C68 1.723 . S
C98 C94 1.397 . S
C98 C97 1.394 . S
C99 H71 0.982 . S
C99 H75 0.979 . S
C99 H76 0.977 . S
C99 C96 1.453 . S
C100 H72 0.979 . S
C100 H73 0.980 . S
C100 H74 0.983 . S
C100 C96 1.684 . S
H101 C119 0.948 . S
H102 C60 0.948 . S
H103 C78 0.979 . S
H104 C78 0.980 . S
H105 C78 0.983 . S
H106 C77 0.982 . S
H107 C77 0.979 . S
H108 C77 0.977 . S
H109 C79 0.948 . S
H110 C81 0.947 . S
H111 C82 0.948 . S
H112 C88 0.982 . S
H113 C88 0.979 . S
H114 C88 0.977 . S
H115 C89 0.979 . S
H116 C89 0.980 . S
H117 C89 0.983 . S
H118 C62 0.947 . S
C119 C62 1.392 . S
C119 C63 1.419 . S
C119 H101 0.948 . S
C120 C121 1.391 . S
C120 C124 1.391 . S
C120 H162 0.948 . S
C121 C120 1.391 . S
C121 C122 1.391 . S
C122 C121 1.391 . S
C122 H178 0.947 . S
C122 C179 1.392 . S
C123 C124 1.391 . S
C123 C127 1.397 . S
C123 C179 1.419 . S
C124 C120 1.391 . S
C124 C123 1.391 . S
C124 C125 1.399 . S
C125 C124 1.399 . S
C125 C128 1.396 . S
C125 C137 1.453 . S
C125 C138 1.684 . S
H126 C150 0.948 . S
C127 C123 1.397 . S
C127 C128 1.394 . S
C127 C146 1.723 1_554 S
C128 C125 1.396 . S
C128 C127 1.394 . S
C128 C158 1.723 . S
H129 C152 0.947 . S
H130 C153 0.948 . S
H131 C159 0.982 . S
H132 C160 0.979 . S
H133 C160 0.980 . S
H134 C160 0.983 . S
H135 C159 0.979 . S
H136 C159 0.977 . S
C137 C125 1.453 . S
C137 H166 0.982 . S
C137 H167 0.979 . S
C137 H168 0.977 . S
C138 C125 1.684 . S
C138 H163 0.979 . S
C138 H164 0.980 . S
C138 H165 0.983 . S
C139 C140 1.391 . S
C139 C144 1.391 . S
C139 H169 0.948 . S
C140 C139 1.391 . S
C140 C141 1.391 . S
C141 C140 1.391 . S
C141 C142 1.392 . S
C141 H170 0.947 . S
C142 C141 1.392 . S
C142 C143 1.419 . S
C142 H171 0.948 . S
C143 C142 1.419 . S
C143 C144 1.391 . S
C143 C147 1.397 . S
C144 C139 1.391 . S
C144 C143 1.391 . S
C144 C145 1.399 . S
C145 C144 1.399 . S
C145 C146 1.396 . S
C145 C148 1.453 . S
C145 C149 1.684 . S
C146 C127 1.723 1_556 S
C146 C145 1.396 . S
C146 C147 1.394 . S
C147 C143 1.397 . S
C147 C146 1.394 . S
C147 C157 1.723 . S
C148 C145 1.453 . S
C148 H172 0.982 . S
C148 H173 0.979 . S
C148 H174 0.977 1_556 S
C149 C145 1.684 . S
C149 H175 0.979 . S
C149 H176 0.980 1_556 S
C149 H177 0.983 . S
C150 H126 0.948 . S
C150 C151 1.391 . S
C150 C155 1.391 . S
C151 C150 1.391 . S
C151 C152 1.391 1_556 S
C152 H129 0.947 . S
C152 C151 1.391 1_554 S
C152 C153 1.392 . S
C153 H130 0.948 . S
C153 C152 1.392 . S
C153 C154 1.419 . S
C154 C153 1.419 . S
C154 C155 1.391 1_554 S
C154 C158 1.397 . S
C155 C150 1.391 . S
C155 C154 1.391 1_556 S
C155 C156 1.399 . S
C156 C155 1.399 . S
C156 C157 1.396 . S
C156 C159 1.453 . S
C156 C160 1.684 . S
C157 C147 1.723 . S
C157 C156 1.396 . S
C157 C158 1.394 1_556 S
C158 C128 1.723 . S
C158 C154 1.397 . S
C158 C157 1.394 1_554 S
C159 H131 0.982 . S
C159 H135 0.979 . S
C159 H136 0.977 . S
C159 C156 1.453 . S
C160 H132 0.979 . S
C160 H133 0.980 . S
C160 H134 0.983 . S
C160 C156 1.684 . S
H161 C179 0.948 . S
H162 C120 0.948 . S
H163 C138 0.979 . S
H164 C138 0.980 . S
H165 C138 0.983 . S
H166 C137 0.982 . S
H167 C137 0.979 . S
H168 C137 0.977 . S
H169 C139 0.948 . S
H170 C141 0.947 . S
H171 C142 0.948 . S
H172 C148 0.982 . S
H173 C148 0.979 . S
H174 C148 0.977 1_554 S
H175 C149 0.979 . S
H176 C149 0.980 1_554 S
H177 C149 0.983 . S
H178 C122 0.947 . S
C179 C122 1.392 . S
C179 C123 1.419 . S
C179 H161 0.948 . S
C180 C181 1.391 . S
C180 C184 1.391 . S
C180 H222 0.948 . S
C181 C180 1.391 . S
C181 C182 1.391 . S
C182 C181 1.391 . S
C182 H238 0.947 . S
C182 C239 1.392 . S
C183 C184 1.391 . S
C183 C187 1.397 . S
C183 C239 1.419 . S
C184 C180 1.391 . S
C184 C183 1.391 . S
C184 C185 1.399 . S
C185 C184 1.399 . S
C185 C188 1.396 . S
C185 C197 1.453 . S
C185 C198 1.684 . S
H186 C210 0.948 . S
C187 C183 1.397 . S
C187 C188 1.394 . S
C187 C206 1.723 . S
C188 C185 1.396 . S
C188 C187 1.394 . S
C188 C218 1.723 . S
H189 C212 0.947 . S
H190 C213 0.948 . S
H191 C219 0.982 . S
H192 C220 0.979 . S
H193 C220 0.980 . S
H194 C220 0.983 . S
H195 C219 0.979 . S
H196 C219 0.977 . S
C197 C185 1.453 . S
C197 H226 0.982 . S
C197 H227 0.979 . S
C197 H228 0.977 . S
C198 C185 1.684 . S
C198 H223 0.979 . S
C198 H224 0.980 . S
C198 H225 0.983 . S
C199 C200 1.391 . S
C199 C204 1.391 . S
C199 H229 0.948 . S
C200 C199 1.391 . S
C200 C201 1.391 . S
C201 C200 1.391 . S
C201 C202 1.392 . S
C201 H230 0.947 . S
C202 C201 1.392 . S
C202 C203 1.419 . S
C202 H231 0.948 . S
C203 C202 1.419 . S
C203 C204 1.391 . S
C203 C207 1.397 . S
C204 C199 1.391 . S
C204 C203 1.391 . S
C204 C205 1.399 . S
C205 C204 1.399 . S
C205 C206 1.396 . S
C205 C208 1.453 . S
C205 C209 1.684 . S
C206 C187 1.723 . S
C206 C205 1.396 . S
C206 C207 1.394 . S
C207 C203 1.397 . S
C207 C206 1.394 . S
C207 C217 1.723 . S
C208 C205 1.453 . S
C208 H232 0.982 . S
C208 H233 0.979 . S
C208 H234 0.977 . S
C209 C205 1.684 . S
C209 H235 0.979 . S
C209 H236 0.980 . S
C209 H237 0.983 . S
C210 H186 0.948 . S
C210 C211 1.391 . S
C210 C215 1.391 . S
C211 C210 1.391 . S
C211 C212 1.391 . S
C212 H189 0.947 . S
C212 C211 1.391 . S
C212 C213 1.392 . S
C213 H190 0.948 . S
C213 C212 1.392 . S
C213 C214 1.419 . S
C214 C213 1.419 . S
C214 C215 1.391 . S
C214 C218 1.397 . S
C215 C210 1.391 . S
C215 C214 1.391 . S
C215 C216 1.399 . S
C216 C215 1.399 . S
C216 C217 1.396 . S
C216 C219 1.453 . S
C216 C220 1.684 . S
C217 C207 1.723 . S
C217 C216 1.396 . S
C217 C218 1.394 . S
C218 C188 1.723 . S
C218 C214 1.397 . S
C218 C217 1.394 . S
C219 H191 0.982 . S
C219 H195 0.979 . S
C219 H196 0.977 . S
C219 C216 1.453 . S
C220 H192 0.979 . S
C220 H193 0.980 . S
C220 H194 0.983 . S
C220 C216 1.684 . S
H221 C239 0.948 . S
H222 C180 0.948 . S
H223 C198 0.979 . S
H224 C198 0.980 . S
H225 C198 0.983 . S
H226 C197 0.982 . S
H227 C197 0.979 . S
H228 C197 0.977 . S
H229 C199 0.948 . S
H230 C201 0.947 . S
H231 C202 0.948 . S
H232 C208 0.982 . S
H233 C208 0.979 . S
H234 C208 0.977 . S
H235 C209 0.979 . S
H236 C209 0.980 . S
H237 C209 0.983 . S
H238 C182 0.947 . S
C239 C182 1.392 . S
C239 C183 1.419 . S
C239 H221 0.948 . S
O240 Mg241 1.990 1_655 S
O240 C254 1.253 . S
Mg241 O240 1.990 1_455 S
Mg241 O244 2.180 . S
Mg241 O245 2.117 . S
Mg241 O259 2.030 . S
O242 Mg243 2.072 1_655 S
O242 C254 1.260 . S
Mg243 O242 2.072 1_455 S
Mg243 O244 2.099 . S
Mg243 O246 2.079 1_545 S
Mg243 O247 2.072 1_455 S
Mg243 O249 2.099 1_445 S
Mg243 O260 2.079 1_545 S
O244 Mg241 2.180 . S
O244 Mg243 2.099 . S
O244 C255 1.279 . S
O245 Mg241 2.117 . S
O245 C255 1.250 . S
O246 Mg243 2.079 1_565 S
O246 C256 1.264 . S
O247 Mg243 2.072 1_655 S
O247 C257 1.260 . S
Mg248 O249 2.180 . S
Mg248 O250 2.030 1_655 S
Mg248 O251 1.990 . S
Mg248 O252 2.117 . S
O249 Mg243 2.099 1_665 S
O249 Mg248 2.180 . S
O249 C258 1.279 . S
O250 Mg248 2.030 1_455 S
O250 C256 1.248 . S
O251 Mg248 1.990 . S
O251 C257 1.253 1_565 S
O252 Mg248 2.117 . S
O252 C258 1.250 . S
C253 O259 1.248 1_565 S
C253 O260 1.264 . S
C254 O240 1.253 . S
C254 O242 1.260 . S
C255 O244 1.279 . S
C255 O245 1.250 . S
C256 O246 1.264 . S
C256 O250 1.248 . S
C257 O247 1.260 . S
C257 O251 1.253 1_545 S
C258 O249 1.279 . S
C258 O252 1.250 . S
O259 Mg241 2.030 . S
O259 C253 1.248 1_545 S
O260 Mg243 2.079 1_565 S
O260 C253 1.264 . S
O261 Mg262 1.990 . S
O261 C275 1.253 . S
Mg262 O261 1.990 . S
Mg262 O265 2.180 . S
Mg262 O266 2.117 . S
Mg262 O280 2.030 . S
O263 Mg264 2.072 . S
O263 C275 1.260 . S
Mg264 O263 2.072 . S
Mg264 O265 2.099 . S
Mg264 O267 2.079 1_554 S
Mg264 O268 2.072 1_554 S
Mg264 O270 2.099 . S
Mg264 O281 2.079 . S
O265 Mg262 2.180 . S
O265 Mg264 2.099 . S
O265 C276 1.279 . S
O266 Mg262 2.117 . S
O266 C276 1.250 . S
O267 Mg264 2.079 1_556 S
O267 C277 1.264 . S
O268 Mg264 2.072 1_556 S
O268 C278 1.260 . S
Mg269 O270 2.180 1_556 S
Mg269 O271 2.030 . S
Mg269 O272 1.990 . S
Mg269 O273 2.117 . S
O270 Mg264 2.099 . S
O270 Mg269 2.180 1_554 S
O270 C279 1.279 . S
O271 Mg269 2.030 . S
O271 C277 1.248 . S
O272 Mg269 1.990 . S
O272 C278 1.253 . S
O273 Mg269 2.117 . S
O273 C279 1.250 1_556 S
C274 O280 1.248 . S
C274 O281 1.264 . S
C275 O261 1.253 . S
C275 O263 1.260 . S
C276 O265 1.279 . S
C276 O266 1.250 . S
C277 O267 1.264 . S
C277 O271 1.248 . S
C278 O268 1.260 . S
C278 O272 1.253 . S
C279 O270 1.279 . S
C279 O273 1.250 1_554 S
O280 Mg262 2.030 . S
O280 C274 1.248 . S
O281 Mg264 2.079 . S
O281 C274 1.264 . S
C282 C283 1.369 . S
C282 C284 1.419 . S
C282 H286 0.930 . S
C283 C282 1.369 . S
C283 C292 1.429 . S
C284 C282 1.419 . S
C284 C285 1.363 . S
C284 H287 0.929 . S
C285 C284 1.363 . S
C285 C291 1.428 . S
H286 C282 0.930 . S
H287 C284 0.929 . S
S288 N289 1.613 1_655 S
S288 N290 1.610 . S
N289 S288 1.613 1_455 S
N289 C292 1.350 . S
N290 S288 1.610 . S
N290 C291 1.351 1_655 S
C291 C285 1.428 . S
C291 N290 1.351 1_455 S
C291 C292 1.434 . S
C292 C283 1.429 . S
C292 N289 1.350 . S
C292 C291 1.434 . S
C293 C294 1.369 . S
C293 C295 1.419 . S
C293 H297 0.930 . S
C294 C293 1.369 . S
C294 C303 1.429 . S
C295 C293 1.419 . S
C295 C296 1.363 . S
C295 H298 0.929 . S
C296 C295 1.363 . S
C296 C302 1.428 . S
H297 C293 0.930 . S
H298 C295 0.929 . S
S299 N300 1.613 . S
S299 N301 1.610 . S
N300 S299 1.613 . S
N300 C303 1.350 . S
N301 S299 1.610 . S
N301 C302 1.351 . S
C302 C296 1.428 . S
C302 N301 1.351 . S
C302 C303 1.434 . S
C303 C294 1.429 . S
C303 N300 1.350 . S
C303 C302 1.434 . S
C304 C305 1.369 . S
C304 C306 1.419 . S
C304 H308 0.930 . S
C305 C304 1.369 . S
C305 C314 1.429 . S
C306 C304 1.419 . S
C306 C307 1.363 . S
C306 H309 0.929 . S
C307 C306 1.363 . S
C307 C313 1.428 . S
H308 C304 0.930 . S
H309 C306 0.929 . S
S310 N311 1.613 . S
S310 N312 1.610 . S
N311 S310 1.613 . S
N311 C314 1.350 . S
N312 S310 1.610 . S
N312 C313 1.351 . S
C313 C307 1.428 . S
C313 N312 1.351 . S
C313 C314 1.434 . S
C314 C305 1.429 . S
C314 N311 1.350 . S
C314 C313 1.434 . S
C315 C316 1.369 . S
C315 C317 1.419 . S
C315 H319 0.930 . S
C316 C315 1.369 . S
C316 C325 1.429 1_556 S
C317 C315 1.419 . S
C317 C318 1.363 1_556 S
C317 H320 0.929 . S
C318 C317 1.363 1_554 S
C318 C324 1.428 . S
H319 C315 0.930 . S
H320 C317 0.929 . S
S321 N322 1.613 . S
S321 N323 1.610 . S
N322 S321 1.613 . S
N322 C325 1.350 . S
N323 S321 1.610 . S
N323 C324 1.351 . S
C324 C318 1.428 . S
C324 N323 1.351 . S
C324 C325 1.434 . S
C325 C316 1.429 1_554 S
C325 N322 1.350 . S
C325 C324 1.434 . S
C326 C327 1.369 . S
C326 C328 1.419 . S
C326 H330 0.930 . S
C327 C326 1.369 . S
C327 C336 1.429 . S
C328 C326 1.419 . S
C328 C329 1.363 . S
C328 H331 0.929 . S
C329 C328 1.363 . S
C329 C335 1.428 . S
H330 C326 0.930 . S
H331 C328 0.929 . S
S332 N333 1.613 . S
S332 N334 1.610 . S
N333 S332 1.613 . S
N333 C336 1.350 1_545 S
N334 S332 1.610 . S
N334 C335 1.351 1_545 S
C335 C329 1.428 . S
C335 N334 1.351 1_565 S
C335 C336 1.434 . S
C336 C327 1.429 . S
C336 N333 1.350 1_565 S
C336 C335 1.434 . S
C337 C338 1.369 . S
C337 C339 1.419 . S
C337 H341 0.930 . S
C338 C337 1.369 . S
C338 C347 1.429 . S
C339 C337 1.419 . S
C339 C340 1.363 . S
C339 H342 0.929 . S
C340 C339 1.363 . S
C340 C346 1.428 . S
H341 C337 0.930 . S
H342 C339 0.929 . S
S343 N344 1.613 . S
S343 N345 1.610 . S
N344 S343 1.613 . S
N344 C347 1.350 . S
N345 S343 1.610 . S
N345 C346 1.351 . S
C346 C340 1.428 . S
C346 N345 1.351 . S
C346 C347 1.434 . S
C347 C338 1.429 . S
C347 N344 1.350 . S
C347 C346 1.434 . S
C348 C349 1.369 . S
C348 C350 1.419 . S
C348 H352 0.930 . S
C349 C348 1.369 . S
C349 C358 1.429 . S
C350 C348 1.419 . S
C350 C351 1.363 . S
C350 H353 0.929 . S
C351 C350 1.363 . S
C351 C357 1.428 . S
H352 C348 0.930 . S
H353 C350 0.929 . S
S354 N355 1.613 . S
S354 N356 1.610 . S
N355 S354 1.613 . S
N355 C358 1.350 . S
N356 S354 1.610 . S
N356 C357 1.351 . S
C357 C351 1.428 . S
C357 N356 1.351 . S
C357 C358 1.434 . S
C358 C349 1.429 . S
C358 N355 1.350 . S
C358 C357 1.434 . S
C359 C360 1.369 . S
C359 C361 1.419 . S
C359 H363 0.930 . S
C360 C359 1.369 . S
C360 C369 1.429 . S
C361 C359 1.419 . S
C361 C362 1.363 . S
C361 H364 0.929 . S
C362 C361 1.363 . S
C362 C368 1.428 . S
H363 C359 0.930 . S
H364 C361 0.929 . S
S365 N366 1.613 . S
S365 N367 1.610 . S
N366 S365 1.613 . S
N366 C369 1.350 . S
N367 S365 1.610 . S
N367 C368 1.351 . S
C368 C362 1.428 . S
C368 N367 1.351 . S
C368 C369 1.434 . S
C369 C360 1.429 . S
C369 N366 1.350 . S
C369 C368 1.434 . S
C370 C371 1.369 . S
C370 C372 1.419 . S
C370 H374 0.930 . S
C371 C370 1.369 . S
C371 C380 1.429 . S
C372 C370 1.419 . S
C372 C373 1.363 . S
C372 H375 0.929 . S
C373 C372 1.363 . S
C373 C379 1.428 . S
H374 C370 0.930 . S
H375 C372 0.929 . S
S376 N377 1.613 . S
S376 N378 1.610 . S
N377 S376 1.613 . S
N377 C380 1.350 . S
N378 S376 1.610 . S
N378 C379 1.351 . S
C379 C373 1.428 . S
C379 N378 1.351 . S
C379 C380 1.434 . S
C380 C371 1.429 . S
C380 N377 1.350 . S
C380 C379 1.434 . S
C381 C382 1.369 . S
C381 C383 1.419 . S
C381 H385 0.930 . S
C382 C381 1.369 . S
C382 C391 1.429 . S
C383 C381 1.419 . S
C383 C384 1.363 . S
C383 H386 0.929 1_545 S
C384 C383 1.363 . S
C384 C390 1.428 . S
H385 C381 0.930 . S
H386 C383 0.929 1_565 S
S387 N388 1.613 . S
S387 N389 1.610 . S
N388 S387 1.613 . S
N388 C391 1.350 . S
N389 S387 1.610 . S
N389 C390 1.351 . S
C390 C384 1.428 . S
C390 N389 1.351 . S
C390 C391 1.434 . S
C391 C382 1.429 . S
C391 N388 1.350 . S
C391 C390 1.434 . S
C392 C393 1.369 . S
C392 C394 1.419 . S
C392 H396 0.930 . S
C393 C392 1.369 . S
C393 C402 1.429 . S
C394 C392 1.419 . S
C394 C395 1.363 . S
C394 H397 0.929 . S
C395 C394 1.363 . S
C395 C401 1.428 . S
H396 C392 0.930 . S
H397 C394 0.929 . S
S398 N399 1.613 . S
S398 N400 1.610 . S
N399 S398 1.613 . S
N399 C402 1.350 . S
N400 S398 1.610 . S
N400 C401 1.351 . S
C401 C395 1.428 . S
C401 N400 1.351 . S
C401 C402 1.434 . S
C402 C393 1.429 . S
C402 N399 1.350 . S
C402 C401 1.434 . S
C403 C404 1.369 . S
C403 C405 1.419 . S
C403 H407 0.930 . S
C404 C403 1.369 . S
C404 C413 1.429 . S
C405 C403 1.419 . S
C405 C406 1.363 . S
C405 H408 0.929 . S
C406 C405 1.363 . S
C406 C412 1.428 . S
H407 C403 0.930 . S
H408 C405 0.929 . S
S409 N410 1.613 . S
S409 N411 1.610 . S
N410 S409 1.613 . S
N410 C413 1.350 . S
N411 S409 1.610 . S
N411 C412 1.351 . S
C412 C406 1.428 . S
C412 N411 1.351 . S
C412 C413 1.434 . S
C413 C404 1.429 . S
C413 N410 1.350 . S
C413 C412 1.434 . S
C285 C255 1.429 . S
C283 C211 1.608 . S
C294 C31 1.486 . S
C296 C279 1.426 . S
C305 C91 1.629 . S
C307 C258 1.509 . S
C316 C151 1.655 . S
C318 C276 1.500 . S
C329 C256 1.690 . S
C327 C20 1.605 . S
C340 C278 1.626 . S
C338 C61 1.545 . S
C349 C121 1.614 . S
C351 C257 1.525 . S
C360 C200 1.637 . S
C362 C277 1.551 . S
C373 C275 1.525 . S
C371 C80 1.558 . S
C384 C254 1.625 . S
C382 C140 1.658 . S
C395 C274 1.689 . S
C393 C181 1.616 . S
C404 C1 1.557 . S
C406 C253 1.548 . S
