# Generated by pormake.
# Topology zzz, (3,6)-cn, num edge types: 1
# Building blocks:
#     Node 0, Type 0, BuildingBlock: BETDAH_clean_linker_0, # of connection points: 3
#     Node 1, Type 0, BuildingBlock: BETDAH_clean_linker_0, # of connection points: 3
#     Node 2, Type 0, BuildingBlock: BETDAH_clean_linker_0, # of connection points: 3
#     Node 3, Type 0, BuildingBlock: BETDAH_clean_linker_0, # of connection points: 3
#     Node 4, Type 0, BuildingBlock: BETDAH_clean_linker_0, # of connection points: 3
#     Node 5, Type 0, BuildingBlock: BETDAH_clean_linker_0, # of connection points: 3
#     Node 6, Type 0, BuildingBlock: BETDAH_clean_linker_0, # of connection points: 3
#     Node 7, Type 0, BuildingBlock: BETDAH_clean_linker_0, # of connection points: 3
#     Node 8, Type 1, BuildingBlock: HISSIN_clean_sbu_0, # of connection points: 6
#     Node 9, Type 1, BuildingBlock: HISSIN_clean_sbu_0, # of connection points: 6
#     Node 10, Type 1, BuildingBlock: HISSIN_clean_sbu_0, # of connection points: 6
#     Node 11, Type 1, BuildingBlock: HISSIN_clean_sbu_0, # of connection points: 6
#     Edge 12, Type (0, 1), BuildingBlock: XIVTED_clean_linker_0, # of connection points: 2
#     Edge 13, Type (0, 1), BuildingBlock: XIVTED_clean_linker_0, # of connection points: 2
#     Edge 14, Type (0, 1), BuildingBlock: XIVTED_clean_linker_0, # of connection points: 2
#     Edge 15, Type (0, 1), BuildingBlock: XIVTED_clean_linker_0, # of connection points: 2
#     Edge 16, Type (0, 1), BuildingBlock: XIVTED_clean_linker_0, # of connection points: 2
#     Edge 17, Type (0, 1), BuildingBlock: XIVTED_clean_linker_0, # of connection points: 2
#     Edge 18, Type (0, 1), BuildingBlock: XIVTED_clean_linker_0, # of connection points: 2
#     Edge 19, Type (0, 1), BuildingBlock: XIVTED_clean_linker_0, # of connection points: 2
#     Edge 20, Type (0, 1), BuildingBlock: XIVTED_clean_linker_0, # of connection points: 2
#     Edge 21, Type (0, 1), BuildingBlock: XIVTED_clean_linker_0, # of connection points: 2
#     Edge 22, Type (0, 1), BuildingBlock: XIVTED_clean_linker_0, # of connection points: 2
#     Edge 23, Type (0, 1), BuildingBlock: XIVTED_clean_linker_0, # of connection points: 2
#     Edge 24, Type (0, 1), BuildingBlock: XIVTED_clean_linker_0, # of connection points: 2
#     Edge 25, Type (0, 1), BuildingBlock: XIVTED_clean_linker_0, # of connection points: 2
#     Edge 26, Type (0, 1), BuildingBlock: XIVTED_clean_linker_0, # of connection points: 2
#     Edge 27, Type (0, 1), BuildingBlock: XIVTED_clean_linker_0, # of connection points: 2
#     Edge 28, Type (0, 1), BuildingBlock: XIVTED_clean_linker_0, # of connection points: 2
#     Edge 29, Type (0, 1), BuildingBlock: XIVTED_clean_linker_0, # of connection points: 2
#     Edge 30, Type (0, 1), BuildingBlock: XIVTED_clean_linker_0, # of connection points: 2
#     Edge 31, Type (0, 1), BuildingBlock: XIVTED_clean_linker_0, # of connection points: 2
#     Edge 32, Type (0, 1), BuildingBlock: XIVTED_clean_linker_0, # of connection points: 2
#     Edge 33, Type (0, 1), BuildingBlock: XIVTED_clean_linker_0, # of connection points: 2
#     Edge 34, Type (0, 1), BuildingBlock: XIVTED_clean_linker_0, # of connection points: 2
#     Edge 35, Type (0, 1), BuildingBlock: XIVTED_clean_linker_0, # of connection points: 2
# Relax obj value: 0.268
# Max RMSD: 0.185
# Mean RMSD: 0.096
data_MOF--net-zzz--node1-HISSIN_clean_sbu_0--node2-BETDAH_clean_linker_0--edge1-XIVTED_clean_linker_0
_symmetry_space_group_name_H-M    P1
_symmetry_Int_Tables_number       1
_symmetry_cell_setting            triclinic
loop_
_symmetry_equiv_pos_as_xyz
'x, y, z'
_cell_length_a     50.017852
_cell_length_b     50.419245
_cell_length_c     16.49924
_cell_angle_alpha  89.723724
_cell_angle_beta   91.267195
_cell_angle_gamma 90.287177
loop_
_atom_site_label
_atom_site_type_symbol
_atom_site_fract_x
_atom_site_fract_y
_atom_site_fract_z
_atom_type_partial_charge
H0 H 0.81335 0.49208 0.3352 0.0
H1 H 0.74101 0.51241 0.20613 0.0
H2 H 0.76629 0.55755 0.41599 0.0
C3 C 0.79538 0.50399 0.32991 0.0
C4 C 0.79185 0.52484 0.38434 0.0
C5 C 0.77729 0.49962 0.2652 0.0
C6 C 0.75471 0.51581 0.25654 0.0
C7 C 0.75024 0.53654 0.31132 0.0
C8 C 0.76921 0.54126 0.37458 0.0
N9 N 0.72725 0.55312 0.30303 0.0
C10 C 0.70728 0.5501 0.24286 0.0
H11 H 0.06433 0.81923 0.30527 0.0
H12 H 0.04267 0.74641 0.18625 0.0
H13 H 0.99928 0.77233 0.39459 0.0
C14 C 0.05228 0.80129 0.30256 0.0
C15 C 0.03183 0.79783 0.35828 0.0
C16 C 0.05604 0.78304 0.23986 0.0
C17 C 0.0397 0.76038 0.23482 0.0
C18 C 0.01938 0.75609 0.2912 0.0
C19 C 1.01526 0.77518 0.35209 0.0
N20 N 1.00255 0.73317 0.28715 0.0
C21 C 1.0049 0.71281 0.23042 0.0
H22 H 0.73112 0.06573 0.29506 0.0
H23 H 0.8048 0.04638 0.1812 0.0
H24 H 0.77732 0.99954 0.38293 0.0
C25 C 0.74911 0.05385 0.29323 0.0
C26 C 0.75212 0.03264 0.34783 0.0
C27 C 0.76781 0.05873 0.23259 0.0
C28 C 0.79045 0.04256 0.22809 0.0
C29 C 0.79424 0.02126 0.28246 0.0
C30 C 0.77475 0.01616 0.34167 0.0
N31 N 0.81709 1.00449 0.27774 0.0
C32 C 0.83743 1.0076 0.22133 0.0
H33 H 0.49905 0.73163 0.30059 0.0
H34 H 0.51541 0.80508 0.17831 0.0
H35 H 0.56553 0.77971 0.3803 0.0
C36 C 0.51054 0.74986 0.29601 0.0
C37 C 0.53248 0.75367 0.34878 0.0
C38 C 0.50445 0.7681 0.23393 0.0
C39 C 0.52014 0.7911 0.22637 0.0
C40 C 0.54209 0.79568 0.27957 0.0
C41 C 0.54839 0.77661 0.3401 0.0
N42 N 0.55839 0.81886 0.27265 0.0
C43 C 0.55425 0.83902 0.21522 0.0
H44 H 0.233 0.48589 0.1228 0.0
H45 H 0.31417 0.49976 0.19552 0.0
H46 H 0.29016 0.50824 0.9433 0.0
C47 C 0.25345 0.49009 0.10601 0.0
C48 C 0.25901 0.49586 0.02494 0.0
C49 C 0.27322 0.49175 0.16704 0.0
C50 C 0.29929 0.49856 0.14721 0.0
C51 C 0.30584 0.50439 0.06656 0.0
C52 C 0.28545 0.50334 1.00536 0.0
N53 N 0.3325 0.51191 0.04686 0.0
C54 C 0.3533 0.51383 0.10494 0.0
H55 H 0.98462 0.22202 0.13559 0.0
H56 H 1.00414 0.29472 0.25834 0.0
H57 H 0.05123 0.26903 0.05752 0.0
C58 C 0.9966 0.23996 0.14032 0.0
C59 C 0.01796 0.2435 0.08765 0.0
C60 C 0.99168 0.25813 0.20248 0.0
C61 C 1.00798 0.28073 0.21043 0.0
C62 C 0.02942 0.28499 0.15802 0.0
C63 C 0.03453 0.26606 0.09733 0.0
N64 N 0.04632 0.30778 0.16599 0.0
C65 C 0.04296 0.32787 0.22315 0.0
H66 H 0.32359 0.98069 0.10936 0.0
H67 H 0.25033 0.99782 0.22946 0.0
H68 H 0.27543 0.04639 0.0288 0.0
C69 C 0.30535 0.9921 0.11329 0.0
C70 C 0.30146 0.01356 0.06013 0.0
C71 C 0.28728 0.98656 0.17529 0.0
C72 C 0.26428 1.00219 0.18195 0.0
C73 C 0.25966 0.02372 0.12905 0.0
C74 C 0.27857 0.02953 0.06877 0.0
N75 N 0.23664 0.04015 0.13638 0.0
C76 C 0.21688 0.0369 0.19467 0.0
H77 H 0.56848 0.32306 0.08575 0.0
H78 H 0.55057 0.25137 0.21629 0.0
H79 H 0.4997 0.27662 0.01608 0.0
C80 C 0.55646 0.30527 0.0929 0.0
C81 C 0.53393 0.30173 0.04221 0.0
C82 C 0.56244 0.28745 0.15639 0.0
C83 C 0.546 0.26509 0.16729 0.0
C84 C 0.52346 0.26082 0.11618 0.0
C85 C 0.51732 0.27949 0.05447 0.0
N86 N 0.50635 0.23838 0.12636 0.0
C87 C 0.51018 0.21845 0.18467 0.0
Eu88 Eu 1.0062 0.03241 0.6414 0.0
Eu89 Eu 0.04939 0.01304 0.78023 0.0
C90 C 0.03166 0.07453 0.77013 0.0
C91 C 0.95328 0.0728 0.53016 0.0
C92 C 0.95025 0.08914 0.59791 0.0
C93 C 0.93082 0.10557 0.44582 0.0
C94 C 0.93844 0.11409 0.58895 0.0
C95 C 0.94253 0.08064 0.45495 0.0
C96 C 0.92979 0.12311 0.51192 0.0
C97 C 0.9709 0.04971 0.53465 0.0
O98 O 1.01161 0.02182 0.84843 0.0
O99 O 0.9817 0.01564 0.74366 0.0
C100 C 0.98699 0.01784 0.82168 0.0
O101 O 1.01581 0.99046 0.60505 0.0
O102 O 0.05858 0.99251 0.89362 0.0
O103 O 0.09053 1.01117 0.82718 0.0
O104 O 0.0321 0.97498 0.72746 0.0
C105 C 0.02316 0.97076 0.65292 0.0
O106 O 0.04712 0.0408 0.58924 0.0
O107 O 0.07113 1.01018 0.66205 0.0
O108 O 0.05149 0.05797 0.78468 0.0
O109 O 0.99632 0.05527 0.53264 0.0
O110 O 0.96561 0.0319 0.58947 0.0
O111 O 1.01052 0.06731 0.72662 0.0
C112 C 0.09925 0.97025 0.89208 0.0
C113 C 0.10963 0.96196 0.96728 0.0
C114 C 0.10851 0.92686 0.83627 0.0
C115 C 0.11844 0.93593 0.97793 0.0
C116 C 0.09959 0.95291 0.82582 0.0
C117 C 0.11691 0.91771 0.91339 0.0
C118 C 0.08436 0.99517 0.88635 0.0
C119 C 0.06871 0.02629 0.59969 0.0
H120 H 0.95845 0.0833 0.65661 0.0
H121 H 0.92476 0.11184 0.38534 0.0
H122 H 0.93765 0.12693 0.64125 0.0
H123 H 0.94482 0.06826 0.40207 0.0
H124 H 0.10929 0.97507 0.01911 0.0
H125 H 0.10737 0.91351 0.78508 0.0
H126 H 0.12437 0.92963 0.03849 0.0
H127 H 0.0915 0.95903 0.76722 0.0
Eu128 Eu 0.53553 0.05108 0.76521 0.0
Eu129 Eu 0.51636 1.00639 0.63367 0.0
C130 C 0.53358 0.98916 0.81441 0.0
C131 C 0.5793 0.10137 0.87415 0.0
C132 C 0.58692 0.11025 0.95146 0.0
C133 C 0.62367 0.11189 0.82597 0.0
C134 C 0.61301 0.11915 0.96671 0.0
C135 C 0.5976 0.10285 0.81092 0.0
C136 C 0.63194 0.1193 0.9047 0.0
C137 C 0.5531 0.08865 0.86155 0.0
O138 O 0.4776 0.02026 0.68989 0.0
O139 O 0.49379 0.04111 0.8049 0.0
C140 C 0.47386 0.03098 0.76162 0.0
O141 O 0.51294 0.07196 0.66369 0.0
O142 O 0.51655 0.96574 0.58863 0.0
O143 O 0.49446 0.99616 0.52273 0.0
O144 O 0.52464 0.0441 0.56328 0.0
C145 C 0.51743 0.06775 0.58691 0.0
O146 O 0.57107 0.04613 0.6839 0.0
O147 O 0.56169 1.00519 0.63003 0.0
O148 O 0.51618 0.9857 0.75477 0.0
O149 O 0.54133 0.09302 0.79168 0.0
O150 O 0.55157 0.06381 0.8832 0.0
O151 O 0.54747 1.01134 0.82054 0.0
C152 C 0.47587 0.95362 0.52361 0.0
C153 C 0.46858 0.94281 0.44843 0.0
C154 C 0.43358 0.93891 0.57801 0.0
C155 C 0.44346 0.93108 0.437 0.0
C156 C 0.4587 0.95079 0.58923 0.0
C157 C 0.42518 0.93004 0.50074 0.0
C158 C 0.49947 0.97087 0.52979 0.0
C159 C 0.57843 0.02498 0.64378 0.0
H160 H 0.57305 0.10917 1.00092 0.0
H161 H 0.63763 0.112 0.77673 0.0
H162 H 0.61873 0.12424 0.0284 0.0
H163 H 0.59206 0.09611 0.75059 0.0
H164 H 0.48159 0.94497 0.39714 0.0
H165 H 0.42018 0.93812 0.62862 0.0
H166 H 0.43768 0.92488 0.37635 0.0
H167 H 0.46409 0.95909 0.64785 0.0
Eu168 Eu 0.50443 0.53536 0.73694 0.0
Eu169 Eu 0.55296 0.51537 0.62204 0.0
C170 C 0.56461 0.53258 0.80579 0.0
C171 C 0.45879 0.58133 0.84566 0.0
C172 C 0.47714 0.60187 0.83217 0.0
C173 C 0.42817 0.61295 0.90301 0.0
C174 C 0.47124 0.62773 0.85491 0.0
C175 C 0.43415 0.58698 0.88021 0.0
C176 C 0.44679 0.63359 0.89132 0.0
C177 C 0.46526 0.55428 0.82108 0.0
O178 O 0.53418 0.47729 0.6692 0.0
O179 O 0.51098 0.49307 0.7777 0.0
C180 C 0.52126 0.47334 0.73709 0.0
O181 O 0.48532 0.51453 0.62913 0.0
O182 O 0.59567 0.50987 0.60096 0.0
O183 O 0.56633 0.4977 0.51016 0.0
O184 O 0.51762 0.5244 0.53877 0.0
C185 C 0.49271 0.51827 0.55411 0.0
O186 O 0.51484 0.57105 0.66074 0.0
O187 O 0.55673 0.56022 0.61751 0.0
O188 O 0.56854 0.51429 0.75116 0.0
O189 O 0.46368 0.55014 0.7433 0.0
O190 O 0.48696 0.54422 0.85382 0.0
O191 O 0.54318 0.54758 0.80132 0.0
C192 C 0.60399 0.4708 0.5278 0.0
C193 C 0.59059 0.4483 0.55636 0.0
C194 C 0.63807 0.44244 0.47242 0.0
C195 C 0.60016 0.42302 0.54019 0.0
C196 C 0.62825 0.46783 0.48812 0.0
C197 C 0.62354 0.41967 0.49538 0.0
C198 C 0.59138 0.49694 0.53366 0.0
C199 C 0.53754 0.57764 0.62726 0.0
H200 H 0.49621 0.59783 0.80499 0.0
H201 H 0.40911 0.61683 0.93039 0.0
H202 H 0.48632 0.64292 0.84652 0.0
H203 H 0.41965 0.57132 0.89 0.0
H204 H 0.57183 0.45025 0.5871 0.0
H205 H 0.65639 0.44069 0.43918 0.0
H206 H 0.58805 0.40621 0.55799 0.0
H207 H 0.639 0.48507 0.46635 0.0
Eu208 Eu 0.0311 0.53916 0.66182 0.0
Eu209 Eu 1.01177 0.49689 0.79826 0.0
C210 C 0.07413 0.51036 0.78454 0.0
C211 C 0.07856 0.55673 0.51441 0.0
C212 C 0.08385 0.52956 0.52308 0.0
C213 C 0.1239 0.56357 0.46939 0.0
C214 C 0.10897 0.51957 0.50786 0.0
C215 C 0.09866 0.57376 0.48705 0.0
C216 C 0.12944 0.53636 0.481 0.0
C217 C 0.05419 0.56676 0.55081 0.0
O218 O 1.00515 0.53667 0.85858 0.0
O219 O 0.02655 0.56504 0.77131 0.0
C220 C 1.01451 0.56035 0.83989 0.0
O221 O 0.98656 0.54586 0.66263 0.0
O222 O 0.99725 0.48527 0.91745 0.0
O223 O 1.00256 0.45557 0.82544 0.0
O224 O 0.97548 0.50541 0.71712 0.0
C225 C 0.96875 0.52734 0.67808 0.0
O226 O 0.02173 0.50071 0.59668 0.0
O227 O 0.03213 0.47313 0.70146 0.0
O228 O 0.05493 0.50422 0.83447 0.0
O229 O 0.03263 0.55274 0.53587 0.0
O230 O 0.05723 0.57198 0.62773 0.0
O231 O 0.06868 0.519 0.71079 0.0
C232 C 0.96578 0.45059 0.91044 0.0
C233 C 0.94645 0.44981 0.84741 0.0
C234 C 0.93215 0.4368 1.00543 0.0
C235 C 0.92 0.44301 0.86361 0.0
C236 C 0.95862 0.44341 0.98902 0.0
C237 C 0.91236 0.43721 0.94329 0.0
C238 C 0.9928 0.46078 0.89601 0.0
C239 C 0.02835 0.4771 0.62352 0.0
H240 H 0.06889 0.51608 0.54603 0.0
H241 H 0.13907 0.57704 0.44749 0.0
H242 H 0.11244 0.49873 0.51981 0.0
H243 H 0.09513 0.59488 0.48179 0.0
H244 H 0.95158 0.45531 0.78611 0.0
H245 H 0.92699 0.43294 0.06779 0.0
H246 H 0.90537 0.44325 0.81423 0.0
H247 H 0.97327 0.44401 0.03837 0.0
H248 H 0.16951 0.06257 0.18685 0.0
H249 H 0.11654 0.99956 0.60301 0.0
H250 H 0.21521 1.00775 0.33424 0.0
H251 H 0.0716 0.05635 0.45952 0.0
H252 H 0.15245 1.00196 0.50506 0.0
H253 H 0.13327 0.06023 0.28488 0.0
C254 C 0.17184 0.05 0.23995 0.0
C255 C 0.19529 0.03529 0.25254 0.0
C256 C 0.13476 0.01392 0.49488 0.0
C257 C 0.15394 0.03246 0.36533 0.0
C258 C 0.11414 0.01258 0.55097 0.0
C259 C 0.09081 0.02779 0.53998 0.0
C260 C 0.13225 0.03059 0.42661 0.0
C261 C 0.08911 0.04424 0.47093 0.0
C262 C 0.15118 0.04867 0.29597 0.0
C263 C 0.1974 0.01935 0.32226 0.0
N264 N 0.10945 0.04518 0.41712 0.0
N265 N 0.17702 0.01835 0.37595 0.0
H266 H 0.52314 0.16747 0.15408 0.0
H267 H 0.50475 0.11982 0.61556 0.0
H268 H 0.50187 0.22014 0.34661 0.0
H269 H 0.52627 0.06705 0.42275 0.0
H270 H 0.50355 0.15663 0.51847 0.0
H271 H 0.5248 0.13049 0.25162 0.0
C272 C 0.51898 0.1712 0.21717 0.0
C273 C 0.51246 0.19677 0.24275 0.0
C274 C 0.50849 0.137 0.49726 0.0
C275 C 0.51406 0.15465 0.3547 0.0
C276 C 0.50912 0.11589 0.55276 0.0
C277 C 0.51557 0.09014 0.52757 0.0
C278 C 0.51437 0.13251 0.41554 0.0
C279 C 0.52114 0.08646 0.44521 0.0
C280 C 0.51984 0.15012 0.27281 0.0
C281 C 0.50706 0.20065 0.3248 0.0
N282 N 0.52043 0.10734 0.39238 0.0
N283 N 0.50795 0.17983 0.37786 0.0
H284 H 0.34625 0.52702 0.26206 0.0
H285 H 0.50135 0.51656 0.39009 0.0
H286 H 0.40656 0.50399 0.09418 0.0
H287 H 0.43791 0.51672 0.56308 0.0
H288 H 0.46772 0.51561 0.27973 0.0
H289 H 0.38019 0.52736 0.37152 0.0
C290 C 0.36667 0.52197 0.24833 0.0
C291 C 0.37364 0.51522 0.16929 0.0
C292 C 0.46117 0.51576 0.34185 0.0
C293 C 0.41273 0.51592 0.29407 0.0
C294 C 0.48037 0.51634 0.40502 0.0
C295 C 0.47253 0.51667 0.48633 0.0
C296 C 0.43382 0.51589 0.35974 0.0
C297 C 0.44498 0.51635 0.50157 0.0
C298 C 0.38605 0.52217 0.31085 0.0
C299 C 0.40043 0.50924 0.15454 0.0
N300 N 0.4267 0.51614 0.43907 0.0
N301 N 0.41904 0.50978 0.21629 0.0
H302 H 0.03367 0.37961 0.18913 0.0
H303 H 0.03867 0.42448 0.65677 0.0
H304 H 0.04646 0.32507 0.3876 0.0
H305 H 0.02421 0.47846 0.45705 0.0
H306 H 0.04205 0.388 0.56002 0.0
H307 H 0.03031 0.41608 0.28651 0.0
C308 C 0.03569 0.37537 0.25342 0.0
C309 C 0.0403 0.34942 0.28068 0.0
C310 C 0.03815 0.40783 0.53731 0.0
C311 C 0.03662 0.39097 0.39272 0.0
C312 C 0.03625 0.42873 0.59263 0.0
C313 C 0.03109 0.45471 0.56535 0.0
C314 C 0.03491 0.4128 0.4537 0.0
C315 C 0.02813 0.45884 0.48125 0.0
C316 C 0.03382 0.39617 0.30904 0.0
C317 C 0.04286 0.34489 0.36439 0.0
N318 N 0.03007 0.43818 0.4287 0.0
N319 N 0.04101 0.36544 0.41746 0.0
H320 H 0.89039 0.01279 0.25642 0.0
H321 H 0.93304 0.01225 0.78884 0.0
H322 H 0.83381 1.00742 0.05668 0.0
H323 H 0.98959 0.01994 0.98877 0.0
H324 H 0.89666 1.01025 0.88541 0.0
H325 H 0.92698 0.01543 0.1596 0.0
C326 C 0.88573 0.01224 0.192 0.0
C327 C 0.85915 1.0099 0.16425 0.0
C328 C 0.91701 0.01236 0.90828 0.0
C329 C 0.90084 0.01279 0.05282 0.0
C330 C 0.9379 0.01346 0.85301 0.0
C331 C 0.96461 0.01622 0.8803 0.0
C332 C 0.92269 0.01398 0.99198 0.0
C333 C 0.96941 0.01778 0.96452 0.0
C334 C 0.9066 0.01372 0.1367 0.0
C335 C 0.8541 1.00922 0.08035 0.0
N336 N 0.94875 0.01662 0.01708 0.0
N337 N 0.87473 1.01062 0.02764 0.0
H338 H 0.52435 0.83919 0.07577 0.0
H339 H 0.56603 0.98819 0.95231 0.0
H340 H 0.57705 0.88782 0.22263 0.0
H341 H 0.50949 0.94021 0.81573 0.0
H342 H 0.57122 0.95176 0.05061 0.0
H343 H 0.51942 0.87591 0.97855 0.0
C344 C 0.53482 0.85767 0.08751 0.0
C345 C 0.55103 0.86062 0.15718 0.0
C346 C 0.55767 0.94924 0.9991 0.0
C347 C 0.5457 0.90275 0.04617 0.0
C348 C 0.55471 0.97006 0.94283 0.0
C349 C 0.53728 0.9674 0.87532 0.0
C350 C 0.54316 0.92549 0.98789 0.0
C351 C 0.52316 0.94333 0.8666 0.0
C352 C 0.53206 0.87865 0.03202 0.0
C353 C 0.56432 0.88488 0.16947 0.0
N354 N 0.52643 0.92343 0.92191 0.0
N355 N 0.56139 0.90502 0.11455 0.0
H356 H 0.70085 0.51032 0.13353 0.0
H357 H 0.567 0.57042 0.92692 0.0
H358 H 0.66589 0.58357 0.21133 0.0
H359 H 0.60865 0.50203 0.83825 0.0
H360 H 0.60138 0.57498 0.0349 0.0
H361 H 0.66579 0.50629 0.02869 0.0
C362 C 0.6858 0.52561 0.12842 0.0
C363 C 0.68632 0.54738 0.18079 0.0
C364 C 0.60294 0.55899 0.99173 0.0
C365 C 0.64581 0.54287 0.06089 0.0
C366 C 0.58327 0.55634 0.93009 0.0
C367 C 0.58483 0.53582 0.873 0.0
C368 C 0.62428 0.54091 0.99671 0.0
C369 C 0.60649 0.51822 0.88042 0.0
C370 C 0.6657 0.5233 0.06848 0.0
C371 C 0.66616 0.5665 0.17179 0.0
N372 N 0.62521 0.52116 0.94082 0.0
N373 N 0.6467 0.56382 0.11302 0.0
H374 H 0.0242 0.71415 0.07793 0.0
H375 H 0.99295 0.55982 0.99276 0.0
H376 H 0.98864 0.66204 0.25324 0.0
H377 H 0.0304 0.61221 0.82098 0.0
H378 H 0.99036 0.59685 0.08801 0.0
H379 H 0.02605 0.67704 0.98228 0.0
C380 C 1.01683 0.69483 0.09616 0.0
C381 C 1.00633 0.69101 0.17333 0.0
C382 C 0.9991 0.60024 0.0294 0.0
C383 C 1.00821 0.64844 0.06445 0.0
C384 C 1.00056 0.57906 0.97478 0.0
C385 C 1.01193 0.58273 0.89833 0.0
C386 C 1.00907 0.62539 0.0077 0.0
C387 C 0.02147 0.60825 0.87898 0.0
C388 C 0.01784 0.67364 0.04163 0.0
C389 C 0.99693 0.66568 0.19412 0.0
N390 N 0.01984 0.62847 0.93307 0.0
N391 N 0.99808 0.64536 0.14007 0.0
H392 H 0.99703 0.26222 0.36739 0.0
H393 H 0.89331 0.14658 0.40639 0.0
H394 H 0.94095 0.23813 0.17908 0.0
H395 H 0.95624 0.1654 0.58032 0.0
H396 H 0.89816 0.19086 0.34752 0.0
H397 H 0.97004 0.23907 0.46682 0.0
C398 C 0.97857 0.25279 0.34721 0.0
C399 C 0.97168 0.25133 0.26443 0.0
C400 C 0.91034 0.18555 0.40014 0.0
C401 C 0.94111 0.22417 0.37767 0.0
C402 C 0.90762 0.16023 0.43371 0.0
C403 C 0.92515 0.15181 0.49626 0.0
C404 C 0.93083 0.20239 0.42913 0.0
C405 C 0.94259 0.17069 0.53116 0.0
C406 C 0.96322 0.2394 0.40406 0.0
C407 C 0.94745 0.23892 0.24205 0.0
N408 N 0.9455 0.19484 0.4957 0.0
N409 N 0.93339 0.22523 0.29804 0.0
H410 H 0.28282 0.99142 0.33961 0.0
H411 H 0.40275 0.89333 0.3954 0.0
H412 H 0.30927 0.93713 0.15691 0.0
H413 H 0.38168 0.9553 0.56173 0.0
H414 H 0.35825 0.89665 0.33213 0.0
H415 H 0.3071 0.96573 0.44231 0.0
C416 C 0.29301 0.9736 0.32128 0.0
C417 C 0.29477 0.96692 0.23908 0.0
C418 C 0.36314 0.90897 0.38404 0.0
C419 C 0.32328 0.93787 0.35625 0.0
C420 C 0.38858 0.90714 0.42008 0.0
C421 C 0.39642 0.9248 0.48191 0.0
C422 C 0.34553 0.92866 0.4099 0.0
C423 C 0.37686 0.94155 0.51337 0.0
C424 C 0.30706 0.959 0.38007 0.0
C425 C 0.30821 0.94352 0.21931 0.0
N426 N 0.35258 0.94354 0.47566 0.0
N427 N 0.32254 0.93021 0.27718 0.0
H428 H 0.61271 0.30692 0.12799 0.0
H429 H 0.61689 0.37027 0.56608 0.0
H430 H 0.56043 0.28504 0.32205 0.0
H431 H 0.64402 0.4079 0.34669 0.0
H432 H 0.61283 0.32833 0.49288 0.0
H433 H 0.64052 0.33195 0.22475 0.0
C434 C 0.6075 0.30676 0.19138 0.0
C435 C 0.58373 0.29465 0.21657 0.0
C436 C 0.62042 0.34567 0.46173 0.0
C437 C 0.61543 0.32312 0.3272 0.0
C438 C 0.62259 0.36969 0.50319 0.0
C439 C 0.62973 0.39305 0.4618 0.0
C440 C 0.62576 0.34497 0.37868 0.0
C441 C 0.63803 0.39069 0.38133 0.0
C442 C 0.6234 0.321 0.2465 0.0
C443 C 0.57835 0.29441 0.29972 0.0
N444 N 0.63526 0.36723 0.34199 0.0
N445 N 0.59373 0.30905 0.35186 0.0
H446 H 0.28057 0.52948 0.28253 0.0
H447 H 0.14084 0.48706 0.42181 0.0
H448 H 0.24603 0.45206 0.24256 0.0
H449 H 0.17921 0.55957 0.50283 0.0
H450 H 0.18388 0.46956 0.38788 0.0
H451 H 0.25085 0.53578 0.39615 0.0
C452 C 0.26755 0.51331 0.30018 0.0
C453 C 0.26495 0.49058 0.25203 0.0
C454 C 0.18309 0.48916 0.41421 0.0
C455 C 0.2305 0.49792 0.37932 0.0
C456 C 0.15833 0.49926 0.43398 0.0
C457 C 0.15613 0.52512 0.46432 0.0
C458 C 0.20592 0.50529 0.42176 0.0
C459 C 0.17973 0.53989 0.47704 0.0
C460 C 0.25039 0.517 0.36458 0.0
C461 C 0.248 0.47016 0.27732 0.0
N462 N 0.20361 0.52997 0.45409 0.0
N463 N 0.23082 0.4746 0.33802 0.0
H464 H 0.10788 0.8004 0.25479 0.0
H465 H 0.08649 0.87713 0.84971 0.0
H466 H 0.0463 0.78213 0.07648 0.0
H467 H 0.15208 0.89211 0.01812 0.0
H468 H 0.08083 0.83343 0.90909 0.0
H469 H 0.1327 0.82414 0.15097 0.0
C470 C 0.09996 0.8008 0.19313 0.0
C471 C 0.07471 0.78994 0.17452 0.0
C472 C 0.09692 0.84596 0.93197 0.0
C473 C 0.10262 0.81748 0.05588 0.0
C474 C 0.10035 0.871 0.89744 0.0
C475 C 0.11922 0.88883 0.93085 0.0
C476 C 0.11207 0.83889 1.00135 0.0
C477 C 0.13654 0.87946 0.99261 0.0
C478 C 0.11412 0.81435 0.13381 0.0
C479 C 0.06556 0.79053 0.09358 0.0
N480 N 0.13207 0.85542 0.02743 0.0
N481 N 0.07918 0.80473 0.03764 0.0
H482 H 0.77214 0.05296 0.06869 0.0
H483 H 0.65542 0.15457 0.0121 0.0
H484 H 0.74823 0.10912 0.24941 0.0
H485 H 0.67437 0.0918 0.84612 0.0
H486 H 0.69987 0.15001 0.07493 0.0
H487 H 0.7486 0.07906 0.96524 0.0
C488 C 0.76271 0.07128 0.0863 0.0
C489 C 0.76134 0.07842 0.16817 0.0
C490 C 0.69455 0.13776 0.02326 0.0
C491 C 0.7337 0.10792 0.05046 0.0
C492 C 0.66912 0.14027 0.98758 0.0
C493 C 0.66076 0.12289 0.9257 0.0
C494 C 0.71156 0.11757 0.99722 0.0
C495 C 0.67968 0.1054 0.89445 0.0
C496 C 0.74908 0.08611 0.02717 0.0
C497 C 0.74894 0.10244 0.18722 0.0
N498 N 0.70395 0.10274 0.93187 0.0
N499 N 0.73497 0.11598 0.12912 0.0
H500 H 0.45425 0.74773 0.25654 0.0
H501 H 0.46001 0.68179 0.82381 0.0
H502 H 0.50857 0.77084 0.06916 0.0
H503 H 0.42356 0.64704 0.03429 0.0
H504 H 0.46331 0.72412 0.89502 0.0
H505 H 0.42842 0.72191 0.15689 0.0
C506 C 0.46027 0.748 0.19385 0.0
C507 C 0.48405 0.7607 0.17147 0.0
C508 C 0.45398 0.70737 0.92472 0.0
C509 C 0.45482 0.73113 0.05772 0.0
C510 C 0.45223 0.68316 0.88438 0.0
C511 C 0.44233 0.66056 0.92415 0.0
C512 C 0.44575 0.70898 1.00528 0.0
C513 C 0.43165 0.66377 1.00143 0.0
C514 C 0.44555 0.73325 0.13709 0.0
C515 C 0.49059 0.761 0.08924 0.0
N516 N 0.43415 0.68738 0.04011 0.0
N517 N 0.47643 0.74581 0.03559 0.0
H518 H 0.79514 0.44861 0.28402 0.0
H519 H 0.87051 0.46586 0.87877 0.0
H520 H 0.7762 0.50747 0.10139 0.0
H521 H 0.88852 0.40491 0.05623 0.0
H522 H 0.8269 0.47146 0.93769 0.0
H523 H 0.81931 0.42335 0.18332 0.0
C524 C 0.79549 0.45583 0.22209 0.0
C525 C 0.78436 0.4805 0.20142 0.0
C526 C 0.8401 0.45642 0.96279 0.0
C527 C 0.81228 0.45205 0.08641 0.0
C528 C 0.86508 0.45304 0.92865 0.0
C529 C 0.88366 0.43545 0.96422 0.0
C530 C 0.83385 0.44252 0.03391 0.0
C531 C 0.87525 0.41946 0.02882 0.0
C532 C 0.80927 0.44142 0.16458 0.0
C533 C 0.78481 0.4887 0.12014 0.0
N534 N 0.85122 0.42385 0.06293 0.0
N535 N 0.79919 0.47485 0.06601 0.0
H536 H 0.98247 0.22378 0.97528 0.0
H537 H 0.07114 0.09737 0.86722 0.0
H538 H 0.06375 0.21461 0.0622 0.0
H539 H 0.99349 0.11351 0.75933 0.0
H540 H 0.07003 0.14061 0.9347 0.0
H541 H 0.98742 0.18451 0.89071 0.0
C542 C 1.00155 0.2137 0.97546 0.0
C543 C 0.02275 0.22258 0.02577 0.0
C544 C 0.05334 0.13476 0.89575 0.0
C545 C 0.02846 0.17693 0.92996 0.0
C546 C 0.05393 0.11001 0.85711 0.0
C547 C 0.03232 0.10153 0.80747 0.0
C548 C 0.03091 0.15125 0.88527 0.0
C549 C 1.01062 0.11896 0.79702 0.0
C550 C 1.00436 0.19117 0.92735 0.0
C551 C 0.04699 0.20863 0.02378 0.0
N552 N 1.01042 0.14275 0.83582 0.0
N553 N 0.04909 0.18634 0.97752 0.0
H554 H 0.31926 0.98159 0.93965 0.0
H555 H 0.45538 0.0617 0.88528 0.0
H556 H 0.3333 0.05798 0.04846 0.0
H557 H 0.42976 1.00042 0.71894 0.0
H558 H 0.41145 0.06004 0.94764 0.0
H559 H 0.35953 0.98762 0.85906 0.0
C560 C 0.33055 0.99991 0.9452 0.0
C561 C 0.3227 0.01945 1.00016 0.0
C562 C 0.41532 0.0471 0.89708 0.0
C563 C 0.36951 0.02615 0.90997 0.0
C564 C 0.44051 0.04795 0.86148 0.0
C565 C 0.44647 0.03114 0.79654 0.0
C566 C 0.39586 0.02897 0.86886 0.0
C567 C 0.42617 0.01383 0.76852 0.0
C568 C 0.35362 1.00329 0.89947 0.0
C569 C 0.33836 0.0426 1.00595 0.0
N570 N 0.40196 0.013 0.80531 0.0
N571 N 0.36116 0.04515 0.96238 0.0
H572 H 0.56455 0.3178 0.91628 0.0
H573 H 0.48897 0.45538 0.85876 0.0
H574 H 0.49026 0.33444 0.03238 0.0
H575 H 0.54928 0.42864 0.69548 0.0
H576 H 0.48871 0.41139 0.92218 0.0
H577 H 0.5588 0.35781 0.83286 0.0
C578 C 0.54669 0.32961 0.92276 0.0
C579 C 0.52771 0.32266 0.98065 0.0
C580 C 0.5018 0.41506 0.87192 0.0
C581 C 0.52138 0.36909 0.88726 0.0
C582 C 0.50204 0.44025 0.83567 0.0
C583 C 0.51927 0.44594 0.77152 0.0
C584 C 0.5192 0.39533 0.84489 0.0
C585 C 0.53564 0.42534 0.74444 0.0
C586 C 0.54347 0.35254 0.87546 0.0
C587 C 0.50516 0.3389 0.98762 0.0
N588 N 0.53541 0.40115 0.78172 0.0
N589 N 0.5028 0.36154 0.94237 0.0
H590 H 0.24266 0.53438 0.91436 0.0
H591 H 0.09408 0.47923 0.90823 0.0
H592 H 0.2218 0.45668 1.00368 0.0
H593 H 0.11933 0.53335 0.72129 0.0
H594 H 0.1408 0.47392 0.95198 0.0
H595 H 0.19832 0.537 0.84602 0.0
C596 C 0.22913 0.51759 0.91769 0.0
C597 C 0.23596 0.49535 0.9654 0.0
C598 C 0.13617 0.48688 0.90111 0.0
C599 C 0.18496 0.49863 0.89013 0.0
C600 C 0.10943 0.49004 0.87636 0.0
C601 C 0.10264 0.50678 0.81098 0.0
C602 C 0.15647 0.50096 0.86156 0.0
C603 C 0.12359 0.52018 0.77191 0.0
C604 C 0.20373 0.51921 0.87942 0.0
C605 C 0.21735 0.47435 0.9684 0.0
N606 N 0.1495 0.51723 0.79832 0.0
N607 N 0.19268 0.47671 0.93289 0.0
H608 H 0.06617 0.81394 0.4789 0.0
H609 H 0.04631 0.92581 0.71824 0.0
H610 H 0.98917 0.83146 0.37045 0.0
H611 H 0.99811 0.95243 0.51378 0.0
H612 H 0.04673 0.88125 0.66018 0.0
H613 H 0.06331 0.85417 0.56058 0.0
C614 C 0.04828 0.82593 0.47421 0.0
C615 C 0.02765 0.8191 0.41905 0.0
C616 C 0.03621 0.89685 0.62762 0.0
C617 C 0.02431 0.86565 0.51152 0.0
C618 C 0.03574 0.92232 0.66123 0.0
C619 C 0.02235 0.94312 0.62065 0.0
C620 C 0.02309 0.89194 0.55279 0.0
C621 C 1.00894 0.93718 0.54701 0.0
C622 C 0.04661 0.84894 0.52093 0.0
C623 C 1.00524 0.83573 0.41353 0.0
N624 N 1.00963 0.91223 0.51564 0.0
N625 N 1.00435 0.85843 0.4582 0.0
H626 H 0.7221 0.98731 0.37278 0.0
H627 H 0.61841 0.0624 0.65797 0.0
H628 H 0.7317 0.06782 0.45504 0.0
H629 H 0.60176 0.98573 0.5526 0.0
H630 H 0.66242 0.06207 0.59718 0.0
H631 H 0.68104 0.98354 0.45209 0.0
C632 C 0.71595 1.00395 0.40909 0.0
C633 C 0.73043 0.02789 0.4074 0.0
C634 C 0.64924 0.04522 0.58748 0.0
C635 C 0.68322 0.02393 0.49728 0.0
C636 C 0.62397 0.04538 0.62238 0.0
C637 C 0.60603 0.02412 0.61031 0.0
C638 C 0.65698 0.02364 0.53979 0.0
C639 C 0.61474 1.00264 0.56356 0.0
C640 C 0.69234 1.00191 0.45366 0.0
C641 C 0.72119 0.04899 0.45451 0.0
N642 N 0.63946 1.003 0.52986 0.0
N643 N 0.69825 0.04655 0.49692 0.0
H644 H 0.50174 0.73766 0.47366 0.0
H645 H 0.5777 0.59906 0.534 0.0
H646 H 0.57555 0.72004 0.35632 0.0
H647 H 0.50458 0.61994 0.65175 0.0
H648 H 0.58019 0.64431 0.47848 0.0
H649 H 0.50575 0.69641 0.55134 0.0
C650 C 0.5192 0.72537 0.46602 0.0
C651 C 0.5385 0.73242 0.40928 0.0
C652 C 0.56374 0.639 0.51702 0.0
C653 C 0.54283 0.68443 0.4959 0.0
C654 C 0.5623 0.61314 0.54882 0.0
C655 C 0.54077 0.60544 0.59723 0.0
C656 C 0.54353 0.65738 0.53379 0.0
C657 C 0.52145 0.62469 0.61422 0.0
C658 C 0.52139 0.70165 0.50977 0.0
C659 C 0.56047 0.71552 0.40046 0.0
N660 N 0.52323 0.64956 0.58234 0.0
N661 N 0.56189 0.69214 0.44252 0.0
H662 H 0.80872 0.49075 0.50292 0.0
H663 H 0.94682 0.56803 0.586 0.0
H664 H 0.82485 0.56824 0.40409 0.0
H665 H 0.92634 0.49318 0.6971 0.0
H666 H 0.90142 0.57047 0.52722 0.0
H667 H 0.85008 0.49355 0.58433 0.0
C668 C 0.8207 0.50868 0.50006 0.0
C669 C 0.81321 0.52939 0.44727 0.0
C670 C 0.90681 0.55362 0.56501 0.0
C671 C 0.86131 0.53246 0.53846 0.0
C672 C 0.93279 0.55218 0.59865 0.0
C673 C 0.94067 0.53025 0.64634 0.0
C674 C 0.88845 0.53295 0.57878 0.0
C675 C 0.92143 0.51041 0.66046 0.0
C676 C 0.84447 0.51021 0.54604 0.0
C677 C 0.82971 0.552 0.44489 0.0
N678 N 0.89642 0.51217 0.62654 0.0
N679 N 0.85315 0.5528 0.48895 0.0
loop_
_geom_bond_atom_site_label_1
_geom_bond_atom_site_label_2
_geom_bond_distance
_geom_bond_site_symmetry_2
_ccdc_geom_bond_type
H0 C3 0.929 . S
H1 C6 0.929 . S
H2 C8 0.930 . S
C3 H0 0.929 . S
C3 C4 1.398 . S
C3 C5 1.396 . S
C4 C3 1.398 . S
C4 C8 1.407 . S
C5 C3 1.396 . S
C5 C6 1.394 . S
C6 H1 0.929 . S
C6 C5 1.394 . S
C6 C7 1.382 . S
C7 C6 1.382 . S
C7 C8 1.392 . S
C7 N9 1.420 . S
C8 H2 0.930 . S
C8 C4 1.407 . S
C8 C7 1.392 . S
N9 C7 1.420 . S
N9 C10 1.244 . S
C10 N9 1.244 . S
H11 C14 0.929 . S
H12 C17 0.929 . S
H13 C19 0.930 . S
C14 H11 0.929 . S
C14 C15 1.398 . S
C14 C16 1.396 . S
C15 C14 1.398 . S
C15 C19 1.407 . S
C16 C14 1.396 . S
C16 C17 1.394 . S
C17 H12 0.929 . S
C17 C16 1.394 . S
C17 C18 1.382 . S
C18 C17 1.382 . S
C18 C19 1.392 . S
C18 N20 1.420 . S
C19 H13 0.930 . S
C19 C15 1.407 . S
C19 C18 1.392 . S
N20 C18 1.420 . S
N20 C21 1.244 . S
C21 N20 1.244 . S
H22 C25 0.929 . S
H23 C28 0.929 . S
H24 C30 0.930 . S
C25 H22 0.929 . S
C25 C26 1.398 . S
C25 C27 1.396 . S
C26 C25 1.398 . S
C26 C30 1.407 . S
C27 C25 1.396 . S
C27 C28 1.394 . S
C28 H23 0.929 . S
C28 C27 1.394 . S
C28 C29 1.382 . S
C29 C28 1.382 . S
C29 C30 1.392 . S
C29 N31 1.420 . S
C30 H24 0.930 . S
C30 C26 1.407 . S
C30 C29 1.392 . S
N31 C29 1.420 . S
N31 C32 1.244 . S
C32 N31 1.244 . S
H33 C36 0.929 . S
H34 C39 0.929 . S
H35 C41 0.930 . S
C36 H33 0.929 . S
C36 C37 1.398 . S
C36 C38 1.396 . S
C37 C36 1.398 . S
C37 C41 1.407 . S
C38 C36 1.396 . S
C38 C39 1.394 . S
C39 H34 0.929 . S
C39 C38 1.394 . S
C39 C40 1.382 . S
C40 C39 1.382 . S
C40 C41 1.392 . S
C40 N42 1.420 . S
C41 H35 0.930 . S
C41 C37 1.407 . S
C41 C40 1.392 . S
N42 C40 1.420 . S
N42 C43 1.244 . S
C43 N42 1.244 . S
H44 C47 0.929 . S
H45 C50 0.929 . S
H46 C52 0.930 1_556 S
C47 H44 0.929 . S
C47 C48 1.398 1_554 S
C47 C49 1.396 . S
C48 C47 1.398 1_556 S
C48 C52 1.407 1_556 S
C49 C47 1.396 . S
C49 C50 1.394 . S
C50 H45 0.929 . S
C50 C49 1.394 . S
C50 C51 1.382 . S
C51 C50 1.382 . S
C51 C52 1.392 . S
C51 N53 1.420 . S
C52 H46 0.930 1_554 S
C52 C48 1.407 1_554 S
C52 C51 1.392 . S
N53 C51 1.420 . S
N53 C54 1.244 . S
C54 N53 1.244 . S
H55 C58 0.929 . S
H56 C61 0.929 . S
H57 C63 0.930 . S
C58 H55 0.929 . S
C58 C59 1.398 1_554 S
C58 C60 1.396 . S
C59 C58 1.398 1_556 S
C59 C63 1.407 . S
C60 C58 1.396 . S
C60 C61 1.394 . S
C61 H56 0.929 . S
C61 C60 1.394 . S
C61 C62 1.382 . S
C62 C61 1.382 . S
C62 C63 1.392 1_554 S
C62 N64 1.420 . S
C63 H57 0.930 . S
C63 C59 1.407 . S
C63 C62 1.392 1_556 S
N64 C62 1.420 . S
N64 C65 1.244 . S
C65 N64 1.244 . S
H66 C69 0.927 1_556 S
H67 C72 0.929 . S
H68 C74 0.930 . S
C69 H66 0.927 1_554 S
C69 C70 1.388 1_554 S
C69 C71 1.408 . S
C70 C69 1.388 1_556 S
C70 C74 1.407 . S
C71 C69 1.408 . S
C71 C72 1.394 . S
C72 H67 0.929 . S
C72 C71 1.394 . S
C72 C73 1.382 . S
C73 C72 1.382 . S
C73 C74 1.392 1_554 S
C73 N75 1.420 . S
C74 H68 0.930 . S
C74 C70 1.407 . S
C74 C73 1.392 1_556 S
N75 C73 1.420 . S
N75 C76 1.244 . S
C76 N75 1.244 . S
H77 C80 0.929 . S
H78 C83 0.929 . S
H79 C85 0.930 . S
C80 H77 0.929 . S
C80 C81 1.398 1_554 S
C80 C82 1.396 . S
C81 C80 1.398 1_556 S
C81 C85 1.407 . S
C82 C80 1.396 . S
C82 C83 1.394 . S
C83 H78 0.929 . S
C83 C82 1.394 . S
C83 C84 1.382 . S
C84 C83 1.382 . S
C84 C85 1.392 1_554 S
C84 N86 1.420 . S
C85 H79 0.930 . S
C85 C81 1.407 . S
C85 C84 1.392 1_556 S
N86 C84 1.420 . S
N86 C87 1.244 . S
C87 N86 1.244 . S
Eu88 C97 2.828 . S
Eu88 O99 2.392 . S
Eu88 O101 2.418 1_545 S
Eu88 O106 2.373 1_655 S
Eu88 O109 2.488 . S
Eu88 O110 2.471 . S
Eu88 O111 2.349 1_655 S
Eu89 O98 2.373 1_455 S
Eu89 O102 2.488 . S
Eu89 O103 2.471 . S
Eu89 O104 2.349 . S
Eu89 O107 2.392 1_565 S
Eu89 O108 2.418 1_565 S
Eu89 C118 2.828 . S
C90 O108 1.244 . S
C90 O111 1.265 . S
C91 C92 1.379 1_655 S
C91 C95 1.373 . S
C91 C97 1.505 . S
C92 C91 1.379 1_455 S
C92 C94 1.369 . S
C92 H120 0.930 . S
C93 C95 1.383 . S
C93 C96 1.382 1_655 S
C93 H121 0.930 . S
C94 C92 1.369 . S
C94 C96 1.392 . S
C94 H122 0.930 . S
C95 C91 1.373 . S
C95 C93 1.383 . S
C95 H123 0.931 . S
C96 C93 1.382 1_455 S
C96 C94 1.392 . S
C97 Eu88 2.828 . S
C97 C91 1.505 . S
C97 O109 1.249 . S
C97 O110 1.244 . S
O98 Eu89 2.373 1_655 S
O98 C100 1.258 1_565 S
O99 Eu88 2.392 . S
O99 C100 1.242 . S
C100 O98 1.258 1_545 S
C100 O99 1.242 . S
O101 Eu88 2.418 1_565 S
O101 C105 1.244 . S
O102 Eu89 2.488 . S
O102 C118 1.249 . S
O103 Eu89 2.471 . S
O103 C118 1.244 . S
O104 Eu89 2.349 . S
O104 C105 1.265 1_455 S
C105 O101 1.244 . S
C105 O104 1.265 1_655 S
O106 Eu88 2.373 1_455 S
O106 C119 1.258 . S
O107 Eu89 2.392 1_545 S
O107 C119 1.242 . S
O108 Eu89 2.418 1_545 S
O108 C90 1.244 . S
O109 Eu88 2.488 . S
O109 C97 1.249 . S
O110 Eu88 2.471 . S
O110 C97 1.244 . S
O111 Eu88 2.349 1_455 S
O111 C90 1.265 . S
C112 C113 1.379 . S
C112 C116 1.373 1_556 S
C112 C118 1.505 . S
C113 C112 1.379 . S
C113 C115 1.372 1_556 S
C113 H124 0.930 1_455 S
C114 C116 1.383 . S
C114 C117 1.382 . S
C114 H125 0.930 . S
C115 C113 1.372 1_554 S
C115 C117 1.398 . S
C115 H126 0.921 1_455 S
C116 C112 1.373 1_554 S
C116 C114 1.383 . S
C116 H127 0.931 . S
C117 C114 1.382 . S
C117 C115 1.398 . S
C118 Eu89 2.828 . S
C118 O102 1.249 . S
C118 O103 1.244 . S
C118 C112 1.505 . S
C119 O106 1.258 . S
C119 O107 1.242 . S
H120 C92 0.930 . S
H121 C93 0.930 . S
H122 C94 0.930 . S
H123 C95 0.931 . S
H124 C113 0.930 1_655 S
H125 C114 0.930 . S
H126 C115 0.921 1_655 S
H127 C116 0.931 . S
Eu128 C137 2.828 . S
Eu128 O139 2.392 . S
Eu128 O141 2.418 . S
Eu128 O146 2.373 . S
Eu128 O149 2.488 . S
Eu128 O150 2.471 . S
Eu128 O151 2.349 1_545 S
Eu129 O138 2.373 1_565 S
Eu129 O142 2.488 . S
Eu129 O143 2.471 1_565 S
Eu129 O144 2.349 1_565 S
Eu129 O147 2.392 . S
Eu129 O148 2.418 . S
Eu129 C158 2.828 . S
C130 O148 1.244 . S
C130 O151 1.265 . S
C131 C132 1.379 . S
C131 C135 1.373 . S
C131 C137 1.505 . S
C132 C131 1.379 . S
C132 C134 1.369 . S
C132 H160 0.930 1_545 S
C133 C135 1.383 . S
C133 C136 1.382 . S
C133 H161 0.930 . S
C134 C132 1.369 . S
C134 C136 1.392 . S
C134 H162 0.930 1_545 S
C135 C131 1.373 . S
C135 C133 1.383 . S
C135 H163 0.931 . S
C136 C133 1.382 . S
C136 C134 1.392 . S
C137 Eu128 2.828 . S
C137 C131 1.505 . S
C137 O149 1.249 . S
C137 O150 1.244 . S
O138 Eu129 2.373 1_545 S
O138 C140 1.258 . S
O139 Eu128 2.392 . S
O139 C140 1.242 . S
C140 O138 1.258 . S
C140 O139 1.242 . S
O141 Eu128 2.418 . S
O141 C145 1.244 . S
O142 Eu129 2.488 . S
O142 C158 1.249 . S
O143 Eu129 2.471 1_545 S
O143 C158 1.244 1_545 S
O144 Eu129 2.349 1_545 S
O144 C145 1.265 . S
C145 O141 1.244 . S
C145 O144 1.265 . S
O146 Eu128 2.373 . S
O146 C159 1.258 1_545 S
O147 Eu129 2.392 . S
O147 C159 1.242 . S
O148 Eu129 2.418 . S
O148 C130 1.244 . S
O149 Eu128 2.488 . S
O149 C137 1.249 . S
O150 Eu128 2.471 . S
O150 C137 1.244 . S
O151 Eu128 2.349 1_565 S
O151 C130 1.265 . S
C152 C153 1.379 1_565 S
C152 C156 1.373 . S
C152 C158 1.505 . S
C153 C152 1.379 1_545 S
C153 C155 1.369 . S
C153 H164 0.930 . S
C154 C156 1.383 . S
C154 C157 1.382 . S
C154 H165 0.930 . S
C155 C153 1.369 . S
C155 C157 1.392 1_545 S
C155 H166 0.930 . S
C156 C152 1.373 . S
C156 C154 1.383 . S
C156 H167 0.931 . S
C157 C154 1.382 . S
C157 C155 1.392 1_565 S
C158 Eu129 2.828 . S
C158 O142 1.249 . S
C158 O143 1.244 1_565 S
C158 C152 1.505 . S
C159 O146 1.258 1_565 S
C159 O147 1.242 . S
H160 C132 0.930 1_565 S
H161 C133 0.930 . S
H162 C134 0.930 1_565 S
H163 C135 0.931 . S
H164 C153 0.930 . S
H165 C154 0.930 . S
H166 C155 0.930 . S
H167 C156 0.931 . S
Eu168 C177 2.828 . S
Eu168 O179 2.392 . S
Eu168 O181 2.418 . S
Eu168 O186 2.373 . S
Eu168 O189 2.488 . S
Eu168 O190 2.471 . S
Eu168 O191 2.349 . S
Eu169 O178 2.373 . S
Eu169 O182 2.488 . S
Eu169 O183 2.471 . S
Eu169 O184 2.349 . S
Eu169 O187 2.392 . S
Eu169 O188 2.418 . S
Eu169 C198 2.828 . S
C170 O188 1.244 . S
C170 O191 1.265 . S
C171 C172 1.379 . S
C171 C175 1.373 . S
C171 C177 1.505 . S
C172 C171 1.379 . S
C172 C174 1.369 . S
C172 H200 0.930 . S
C173 C175 1.383 . S
C173 C176 1.382 . S
C173 H201 0.930 . S
C174 C172 1.369 . S
C174 C176 1.392 . S
C174 H202 0.930 . S
C175 C171 1.373 . S
C175 C173 1.383 . S
C175 H203 0.931 . S
C176 C173 1.382 . S
C176 C174 1.392 . S
C177 Eu168 2.828 . S
C177 C171 1.505 . S
C177 O189 1.249 . S
C177 O190 1.244 . S
O178 Eu169 2.373 . S
O178 C180 1.258 . S
O179 Eu168 2.392 . S
O179 C180 1.242 . S
C180 O178 1.258 . S
C180 O179 1.242 . S
O181 Eu168 2.418 . S
O181 C185 1.244 . S
O182 Eu169 2.488 . S
O182 C198 1.249 . S
O183 Eu169 2.471 . S
O183 C198 1.244 . S
O184 Eu169 2.349 . S
O184 C185 1.265 . S
C185 O181 1.244 . S
C185 O184 1.265 . S
O186 Eu168 2.373 . S
O186 C199 1.258 . S
O187 Eu169 2.392 . S
O187 C199 1.242 . S
O188 Eu169 2.418 . S
O188 C170 1.244 . S
O189 Eu168 2.488 . S
O189 C177 1.249 . S
O190 Eu168 2.471 . S
O190 C177 1.244 . S
O191 Eu168 2.349 . S
O191 C170 1.265 . S
C192 C193 1.379 . S
C192 C196 1.373 . S
C192 C198 1.505 . S
C193 C192 1.379 . S
C193 C195 1.369 . S
C193 H204 0.930 . S
C194 C196 1.383 . S
C194 C197 1.382 . S
C194 H205 0.930 . S
C195 C193 1.369 . S
C195 C197 1.392 . S
C195 H206 0.930 . S
C196 C192 1.373 . S
C196 C194 1.383 . S
C196 H207 0.931 . S
C197 C194 1.382 . S
C197 C195 1.392 . S
C198 Eu169 2.828 . S
C198 O182 1.249 . S
C198 O183 1.244 . S
C198 C192 1.505 . S
C199 O186 1.258 . S
C199 O187 1.242 . S
H200 C172 0.930 . S
H201 C173 0.930 . S
H202 C174 0.930 . S
H203 C175 0.931 . S
H204 C193 0.930 . S
H205 C194 0.930 . S
H206 C195 0.930 . S
H207 C196 0.931 . S
Eu208 C217 2.828 . S
Eu208 O219 2.392 . S
Eu208 O221 2.418 1_455 S
Eu208 O226 2.373 . S
Eu208 O229 2.488 . S
Eu208 O230 2.471 . S
Eu208 O231 2.349 . S
Eu209 O218 2.373 . S
Eu209 O222 2.488 . S
Eu209 O223 2.471 . S
Eu209 O224 2.349 . S
Eu209 O227 2.392 1_655 S
Eu209 O228 2.418 1_655 S
Eu209 C238 2.828 . S
C210 O228 1.244 . S
C210 O231 1.265 . S
C211 C212 1.379 . S
C211 C215 1.373 . S
C211 C217 1.505 . S
C212 C211 1.379 . S
C212 C214 1.369 . S
C212 H240 0.930 . S
C213 C215 1.383 . S
C213 C216 1.382 . S
C213 H241 0.930 . S
C214 C212 1.369 . S
C214 C216 1.392 . S
C214 H242 0.930 . S
C215 C211 1.373 . S
C215 C213 1.383 . S
C215 H243 0.931 . S
C216 C213 1.382 . S
C216 C214 1.392 . S
C217 Eu208 2.828 . S
C217 C211 1.505 . S
C217 O229 1.249 . S
C217 O230 1.244 . S
O218 Eu209 2.373 . S
O218 C220 1.255 1_655 S
O219 Eu208 2.392 . S
O219 C220 1.248 . S
C220 O218 1.255 1_455 S
C220 O219 1.248 . S
O221 Eu208 2.418 1_655 S
O221 C225 1.244 . S
O222 Eu209 2.488 . S
O222 C238 1.249 . S
O223 Eu209 2.471 . S
O223 C238 1.244 . S
O224 Eu209 2.349 . S
O224 C225 1.265 . S
C225 O221 1.244 . S
C225 O224 1.265 . S
O226 Eu208 2.373 . S
O226 C239 1.258 . S
O227 Eu209 2.392 1_455 S
O227 C239 1.242 . S
O228 Eu209 2.418 1_455 S
O228 C210 1.244 . S
O229 Eu208 2.488 . S
O229 C217 1.249 . S
O230 Eu208 2.471 . S
O230 C217 1.244 . S
O231 Eu208 2.349 . S
O231 C210 1.265 . S
C232 C233 1.379 . S
C232 C236 1.373 1_556 S
C232 C238 1.505 . S
C233 C232 1.379 . S
C233 C235 1.369 . S
C233 H244 0.930 . S
C234 C236 1.383 . S
C234 C237 1.382 . S
C234 H245 0.930 . S
C235 C233 1.369 . S
C235 C237 1.392 1_556 S
C235 H246 0.930 . S
C236 C232 1.373 1_554 S
C236 C234 1.383 . S
C236 H247 0.931 . S
C237 C234 1.382 . S
C237 C235 1.392 1_554 S
C238 Eu209 2.828 . S
C238 O222 1.249 . S
C238 O223 1.244 . S
C238 C232 1.505 . S
C239 O226 1.258 . S
C239 O227 1.242 . S
H240 C212 0.930 . S
H241 C213 0.930 . S
H242 C214 0.930 . S
H243 C215 0.931 . S
H244 C233 0.930 . S
H245 C234 0.930 . S
H246 C235 0.930 . S
H247 C236 0.931 . S
H248 C254 0.930 . S
H249 C258 0.930 1_565 S
H250 C263 0.929 1_565 S
H251 C261 0.929 . S
H252 C256 0.929 1_565 S
H253 C262 0.929 . S
C254 H248 0.930 . S
C254 C255 1.367 . S
C254 C262 1.378 . S
C255 C254 1.367 . S
C255 C263 1.433 . S
C256 H252 0.929 1_545 S
C256 C258 1.378 . S
C256 C260 1.350 . S
C257 C260 1.463 . S
C257 C262 1.350 . S
C257 N265 1.427 . S
C258 H249 0.930 1_545 S
C258 C256 1.378 . S
C258 C259 1.367 . S
C259 C258 1.367 . S
C259 C261 1.433 . S
C260 C256 1.350 . S
C260 C257 1.463 . S
C260 N264 1.427 . S
C261 H251 0.929 . S
C261 C259 1.433 . S
C261 N264 1.384 . S
C262 H253 0.929 . S
C262 C254 1.378 . S
C262 C257 1.350 . S
C263 H250 0.929 1_545 S
C263 C255 1.433 . S
C263 N265 1.384 . S
N264 C260 1.427 . S
N264 C261 1.384 . S
N265 C257 1.427 . S
N265 C263 1.384 . S
H266 C272 0.930 . S
H267 C276 0.930 . S
H268 C281 0.929 . S
H269 C279 0.929 . S
H270 C274 0.929 . S
H271 C280 0.929 . S
C272 H266 0.930 . S
C272 C273 1.367 . S
C272 C280 1.378 . S
C273 C272 1.367 . S
C273 C281 1.433 . S
C274 H270 0.929 . S
C274 C276 1.378 . S
C274 C278 1.350 . S
C275 C278 1.463 . S
C275 C280 1.350 . S
C275 N283 1.427 . S
C276 H267 0.930 . S
C276 C274 1.378 . S
C276 C277 1.367 . S
C277 C276 1.367 . S
C277 C279 1.433 . S
C278 C274 1.350 . S
C278 C275 1.463 . S
C278 N282 1.427 . S
C279 H269 0.929 . S
C279 C277 1.433 . S
C279 N282 1.384 . S
C280 H271 0.929 . S
C280 C272 1.378 . S
C280 C275 1.350 . S
C281 H268 0.929 . S
C281 C273 1.433 . S
C281 N283 1.384 . S
N282 C278 1.427 . S
N282 C279 1.384 . S
N283 C275 1.427 . S
N283 C281 1.384 . S
H284 C290 0.930 . S
H285 C294 0.930 . S
H286 C299 0.929 . S
H287 C297 0.929 . S
H288 C292 0.929 . S
H289 C298 0.929 . S
C290 H284 0.930 . S
C290 C291 1.367 . S
C290 C298 1.378 . S
C291 C290 1.367 . S
C291 C299 1.433 . S
C292 H288 0.929 . S
C292 C294 1.378 . S
C292 C296 1.350 . S
C293 C296 1.463 . S
C293 C298 1.350 . S
C293 N301 1.427 . S
C294 H285 0.930 . S
C294 C292 1.378 . S
C294 C295 1.367 . S
C295 C294 1.367 . S
C295 C297 1.433 . S
C296 C292 1.350 . S
C296 C293 1.463 . S
C296 N300 1.427 . S
C297 H287 0.929 . S
C297 C295 1.433 . S
C297 N300 1.384 . S
C298 H289 0.929 . S
C298 C290 1.378 . S
C298 C293 1.350 . S
C299 H286 0.929 . S
C299 C291 1.433 . S
C299 N301 1.384 . S
N300 C296 1.427 . S
N300 C297 1.384 . S
N301 C293 1.427 . S
N301 C299 1.384 . S
H302 C308 0.930 . S
H303 C312 0.930 . S
H304 C317 0.929 . S
H305 C315 0.929 . S
H306 C310 0.929 . S
H307 C316 0.929 . S
C308 H302 0.930 . S
C308 C309 1.367 . S
C308 C316 1.378 . S
C309 C308 1.367 . S
C309 C317 1.433 . S
C310 H306 0.929 . S
C310 C312 1.378 . S
C310 C314 1.350 . S
C311 C314 1.463 . S
C311 C316 1.350 . S
C311 N319 1.427 . S
C312 H303 0.930 . S
C312 C310 1.378 . S
C312 C313 1.367 . S
C313 C312 1.367 . S
C313 C315 1.433 . S
C314 C310 1.350 . S
C314 C311 1.463 . S
C314 N318 1.427 . S
C315 H305 0.929 . S
C315 C313 1.433 . S
C315 N318 1.384 . S
C316 H307 0.929 . S
C316 C308 1.378 . S
C316 C311 1.350 . S
C317 H304 0.929 . S
C317 C309 1.433 . S
C317 N319 1.384 . S
N318 C314 1.427 . S
N318 C315 1.384 . S
N319 C311 1.427 . S
N319 C317 1.384 . S
H320 C326 0.930 . S
H321 C330 0.930 . S
H322 C335 0.929 . S
H323 C333 0.929 . S
H324 C328 0.929 1_554 S
H325 C334 0.929 . S
C326 H320 0.930 . S
C326 C327 1.367 . S
C326 C334 1.378 . S
C327 C326 1.367 . S
C327 C335 1.433 1_565 S
C328 H324 0.929 1_556 S
C328 C330 1.378 . S
C328 C332 1.350 1_546 S
C329 C332 1.463 . S
C329 C334 1.350 . S
C329 N337 1.427 1_565 S
C330 H321 0.930 . S
C330 C328 1.378 . S
C330 C331 1.367 1_545 S
C331 C330 1.367 1_565 S
C331 C333 1.433 . S
C332 C328 1.350 1_564 S
C332 C329 1.463 . S
C332 N336 1.427 . S
C333 H323 0.929 . S
C333 C331 1.433 . S
C333 N336 1.384 1_556 S
C334 H325 0.929 . S
C334 C326 1.378 . S
C334 C329 1.350 . S
C335 H322 0.929 . S
C335 C327 1.433 1_545 S
C335 N337 1.384 . S
N336 C332 1.427 . S
N336 C333 1.384 1_554 S
N337 C329 1.427 1_545 S
N337 C335 1.384 . S
H338 C344 0.930 . S
H339 C348 0.930 . S
H340 C353 0.929 . S
H341 C351 0.929 . S
H342 C346 0.929 . S
H343 C352 0.929 . S
C344 H338 0.930 . S
C344 C345 1.367 . S
C344 C352 1.378 . S
C345 C344 1.367 . S
C345 C353 1.433 . S
C346 H342 0.929 . S
C346 C348 1.378 1_554 S
C346 C350 1.350 1_554 S
C347 C350 1.463 1_554 S
C347 C352 1.350 . S
C347 N355 1.427 . S
C348 H339 0.930 . S
C348 C346 1.378 1_556 S
C348 C349 1.367 . S
C349 C348 1.367 . S
C349 C351 1.433 . S
C350 C346 1.350 1_556 S
C350 C347 1.463 1_556 S
C350 N354 1.427 . S
C351 H341 0.929 . S
C351 C349 1.433 . S
C351 N354 1.384 . S
C352 H343 0.929 . S
C352 C344 1.378 . S
C352 C347 1.350 . S
C353 H340 0.929 . S
C353 C345 1.433 . S
C353 N355 1.384 . S
N354 C350 1.427 . S
N354 C351 1.384 . S
N355 C347 1.427 . S
N355 C353 1.384 . S
H356 C362 0.930 . S
H357 C366 0.930 . S
H358 C371 0.929 . S
H359 C369 0.929 . S
H360 C364 0.929 . S
H361 C370 0.929 . S
C362 H356 0.930 . S
C362 C363 1.367 . S
C362 C370 1.378 . S
C363 C362 1.367 . S
C363 C371 1.433 . S
C364 H360 0.929 . S
C364 C366 1.378 . S
C364 C368 1.350 . S
C365 C368 1.463 1_554 S
C365 C370 1.350 . S
C365 N373 1.427 . S
C366 H357 0.930 . S
C366 C364 1.378 . S
C366 C367 1.367 . S
C367 C366 1.367 . S
C367 C369 1.433 . S
C368 C364 1.350 . S
C368 C365 1.463 1_556 S
C368 N372 1.427 . S
C369 H359 0.929 . S
C369 C367 1.433 . S
C369 N372 1.384 . S
C370 H361 0.929 . S
C370 C362 1.378 . S
C370 C365 1.350 . S
C371 H358 0.929 . S
C371 C363 1.433 . S
C371 N373 1.384 . S
N372 C368 1.427 . S
N372 C369 1.384 . S
N373 C365 1.427 . S
N373 C371 1.384 . S
H374 C380 0.930 1_455 S
H375 C384 0.930 . S
H376 C389 0.929 . S
H377 C387 0.929 . S
H378 C382 0.929 . S
H379 C388 0.929 1_455 S
C380 H374 0.930 1_655 S
C380 C381 1.367 . S
C380 C388 1.378 . S
C381 C380 1.367 . S
C381 C389 1.433 . S
C382 H378 0.929 . S
C382 C384 1.378 1_554 S
C382 C386 1.350 . S
C383 C386 1.463 . S
C383 C388 1.350 . S
C383 N391 1.427 . S
C384 H375 0.930 . S
C384 C382 1.378 1_556 S
C384 C385 1.367 . S
C385 C384 1.367 . S
C385 C387 1.433 1_655 S
C386 C382 1.350 . S
C386 C383 1.463 . S
C386 N390 1.427 1_654 S
C387 H377 0.929 . S
C387 C385 1.433 1_455 S
C387 N390 1.384 . S
C388 H379 0.929 1_655 S
C388 C380 1.378 . S
C388 C383 1.350 . S
C389 H376 0.929 . S
C389 C381 1.433 . S
C389 N391 1.384 . S
N390 C386 1.427 1_456 S
N390 C387 1.384 . S
N391 C383 1.427 . S
N391 C389 1.384 . S
H392 C398 0.930 . S
H393 C402 0.930 . S
H394 C407 0.929 . S
H395 C405 0.929 . S
H396 C400 0.929 . S
H397 C406 0.929 . S
C398 H392 0.930 . S
C398 C399 1.367 . S
C398 C406 1.378 . S
C399 C398 1.367 . S
C399 C407 1.433 . S
C400 H396 0.929 . S
C400 C402 1.378 . S
C400 C404 1.350 1_655 S
C401 C404 1.463 . S
C401 C406 1.350 . S
C401 N409 1.427 . S
C402 H393 0.930 . S
C402 C400 1.378 . S
C402 C403 1.367 1_655 S
C403 C402 1.367 1_455 S
C403 C405 1.433 . S
C404 C400 1.350 1_455 S
C404 C401 1.463 . S
C404 N408 1.427 . S
C405 H395 0.929 . S
C405 C403 1.433 . S
C405 N408 1.384 . S
C406 H397 0.929 . S
C406 C398 1.378 . S
C406 C401 1.350 . S
C407 H394 0.929 . S
C407 C399 1.433 . S
C407 N409 1.384 . S
N408 C404 1.427 . S
N408 C405 1.384 . S
N409 C401 1.427 . S
N409 C407 1.384 . S
H410 C416 0.930 . S
H411 C420 0.930 . S
H412 C425 0.929 . S
H413 C423 0.929 . S
H414 C418 0.929 . S
H415 C424 0.929 . S
C416 H410 0.930 . S
C416 C417 1.367 . S
C416 C424 1.378 . S
C417 C416 1.367 . S
C417 C425 1.433 . S
C418 H414 0.929 . S
C418 C420 1.378 . S
C418 C422 1.350 1_565 S
C419 C422 1.463 . S
C419 C424 1.350 . S
C419 N427 1.427 . S
C420 H411 0.930 . S
C420 C418 1.378 . S
C420 C421 1.367 . S
C421 C420 1.367 . S
C421 C423 1.433 1_565 S
C422 C418 1.350 1_545 S
C422 C419 1.463 . S
C422 N426 1.427 . S
C423 H413 0.929 . S
C423 C421 1.433 1_545 S
C423 N426 1.384 . S
C424 H415 0.929 . S
C424 C416 1.378 . S
C424 C419 1.350 . S
C425 H412 0.929 . S
C425 C417 1.433 . S
C425 N427 1.384 . S
N426 C422 1.427 . S
N426 C423 1.384 . S
N427 C419 1.427 . S
N427 C425 1.384 . S
H428 C434 0.930 . S
H429 C438 0.930 . S
H430 C443 0.929 . S
H431 C441 0.929 . S
H432 C436 0.929 . S
H433 C442 0.929 . S
C434 H428 0.930 . S
C434 C435 1.367 . S
C434 C442 1.378 . S
C435 C434 1.367 . S
C435 C443 1.433 . S
C436 H432 0.929 . S
C436 C438 1.378 . S
C436 C440 1.350 . S
C437 C440 1.463 . S
C437 C442 1.350 . S
C437 N445 1.427 . S
C438 H429 0.930 . S
C438 C436 1.378 . S
C438 C439 1.367 . S
C439 C438 1.367 . S
C439 C441 1.433 . S
C440 C436 1.350 . S
C440 C437 1.463 . S
C440 N444 1.427 . S
C441 H431 0.929 . S
C441 C439 1.433 . S
C441 N444 1.384 . S
C442 H433 0.929 . S
C442 C434 1.378 . S
C442 C437 1.350 . S
C443 H430 0.929 . S
C443 C435 1.433 . S
C443 N445 1.384 . S
N444 C440 1.427 . S
N444 C441 1.384 . S
N445 C437 1.427 . S
N445 C443 1.384 . S
H446 C452 0.930 . S
H447 C456 0.930 . S
H448 C461 0.929 . S
H449 C459 0.929 . S
H450 C454 0.929 . S
H451 C460 0.929 . S
C452 H446 0.930 . S
C452 C453 1.367 . S
C452 C460 1.378 . S
C453 C452 1.367 . S
C453 C461 1.433 . S
C454 H450 0.929 . S
C454 C456 1.378 . S
C454 C458 1.350 . S
C455 C458 1.463 . S
C455 C460 1.350 . S
C455 N463 1.427 . S
C456 H447 0.930 . S
C456 C454 1.378 . S
C456 C457 1.367 . S
C457 C456 1.367 . S
C457 C459 1.433 . S
C458 C454 1.350 . S
C458 C455 1.463 . S
C458 N462 1.427 . S
C459 H449 0.929 . S
C459 C457 1.433 . S
C459 N462 1.384 . S
C460 H451 0.929 . S
C460 C452 1.378 . S
C460 C455 1.350 . S
C461 H448 0.929 . S
C461 C453 1.433 . S
C461 N463 1.384 . S
N462 C458 1.427 . S
N462 C459 1.384 . S
N463 C455 1.427 . S
N463 C461 1.384 . S
H464 C470 0.930 . S
H465 C474 0.930 . S
H466 C479 0.929 . S
H467 C477 0.929 . S
H468 C472 0.929 . S
H469 C478 0.929 1_455 S
C470 H464 0.930 . S
C470 C471 1.367 . S
C470 C478 1.378 . S
C471 C470 1.367 . S
C471 C479 1.433 . S
C472 H468 0.929 . S
C472 C474 1.378 . S
C472 C476 1.350 . S
C473 C476 1.463 . S
C473 C478 1.350 . S
C473 N481 1.427 . S
C474 H465 0.930 . S
C474 C472 1.378 . S
C474 C475 1.367 1_655 S
C475 C474 1.367 1_455 S
C475 C477 1.433 . S
C476 C472 1.350 . S
C476 C473 1.463 . S
C476 N480 1.427 1_655 S
C477 H467 0.929 . S
C477 C475 1.433 . S
C477 N480 1.384 . S
C478 H469 0.929 1_655 S
C478 C470 1.378 . S
C478 C473 1.350 . S
C479 H466 0.929 . S
C479 C471 1.433 . S
C479 N481 1.384 . S
N480 C476 1.427 1_455 S
N480 C477 1.384 . S
N481 C473 1.427 . S
N481 C479 1.384 . S
H482 C488 0.930 . S
H483 C492 0.930 . S
H484 C497 0.929 . S
H485 C495 0.929 1_556 S
H486 C490 0.929 . S
H487 C496 0.929 . S
C488 H482 0.930 . S
C488 C489 1.367 . S
C488 C496 1.378 . S
C489 C488 1.367 . S
C489 C497 1.433 1_565 S
C490 H486 0.929 . S
C490 C492 1.378 . S
C490 C494 1.350 . S
C491 C494 1.463 1_565 S
C491 C496 1.350 . S
C491 N499 1.427 1_565 S
C492 H483 0.930 . S
C492 C490 1.378 . S
C492 C493 1.367 . S
C493 C492 1.367 . S
C493 C495 1.433 1_545 S
C494 C490 1.350 . S
C494 C491 1.463 1_545 S
C494 N498 1.427 1_545 S
C495 H485 0.929 1_554 S
C495 C493 1.433 1_565 S
C495 N498 1.384 . S
C496 H487 0.929 . S
C496 C488 1.378 . S
C496 C491 1.350 . S
C497 H484 0.929 . S
C497 C489 1.433 1_545 S
C497 N499 1.384 . S
N498 C494 1.427 1_565 S
N498 C495 1.384 . S
N499 C491 1.427 1_545 S
N499 C497 1.384 . S
H500 C506 0.930 . S
H501 C510 0.930 . S
H502 C515 0.929 . S
H503 C513 0.929 . S
H504 C508 0.929 1_556 S
H505 C514 0.929 . S
C506 H500 0.930 . S
C506 C507 1.367 . S
C506 C514 1.378 . S
C507 C506 1.367 . S
C507 C515 1.433 . S
C508 H504 0.929 1_554 S
C508 C510 1.378 1_554 S
C508 C512 1.350 . S
C509 C512 1.463 . S
C509 C514 1.350 . S
C509 N517 1.427 . S
C510 H501 0.930 . S
C510 C508 1.378 1_556 S
C510 C511 1.367 . S
C511 C510 1.367 . S
C511 C513 1.433 1_556 S
C512 C508 1.350 . S
C512 C509 1.463 . S
C512 N516 1.427 . S
C513 H503 0.929 . S
C513 C511 1.433 1_554 S
C513 N516 1.384 . S
C514 H505 0.929 . S
C514 C506 1.378 . S
C514 C509 1.350 . S
C515 H502 0.929 . S
C515 C507 1.433 . S
C515 N517 1.384 . S
N516 C512 1.427 . S
N516 C513 1.384 . S
N517 C509 1.427 . S
N517 C515 1.384 . S
H518 C524 0.930 . S
H519 C528 0.930 . S
H520 C533 0.929 . S
H521 C531 0.929 . S
H522 C526 0.929 . S
H523 C532 0.929 . S
C524 H518 0.930 . S
C524 C525 1.367 . S
C524 C532 1.378 . S
C525 C524 1.367 . S
C525 C533 1.433 . S
C526 H522 0.929 . S
C526 C528 1.378 . S
C526 C530 1.350 . S
C527 C530 1.463 . S
C527 C532 1.350 . S
C527 N535 1.427 . S
C528 H519 0.930 . S
C528 C526 1.378 . S
C528 C529 1.367 . S
C529 C528 1.367 . S
C529 C531 1.433 . S
C530 C526 1.350 . S
C530 C527 1.463 . S
C530 N534 1.427 . S
C531 H521 0.929 . S
C531 C529 1.433 . S
C531 N534 1.384 . S
C532 H523 0.929 . S
C532 C524 1.378 . S
C532 C527 1.350 . S
C533 H520 0.929 . S
C533 C525 1.433 . S
C533 N535 1.384 . S
N534 C530 1.427 . S
N534 C531 1.384 . S
N535 C527 1.427 . S
N535 C533 1.384 . S
H536 C542 0.930 . S
H537 C546 0.930 . S
H538 C551 0.929 . S
H539 C549 0.929 1_655 S
H540 C544 0.929 . S
H541 C550 0.929 . S
C542 H536 0.930 . S
C542 C543 1.367 . S
C542 C550 1.378 . S
C543 C542 1.367 . S
C543 C551 1.433 . S
C544 H540 0.929 . S
C544 C546 1.378 . S
C544 C548 1.350 . S
C545 C548 1.463 . S
C545 C550 1.350 . S
C545 N553 1.427 . S
C546 H537 0.930 . S
C546 C544 1.378 . S
C546 C547 1.367 . S
C547 C546 1.367 . S
C547 C549 1.433 . S
C548 C544 1.350 . S
C548 C545 1.463 . S
C548 N552 1.427 . S
C549 H539 0.929 1_455 S
C549 C547 1.433 . S
C549 N552 1.384 . S
C550 H541 0.929 . S
C550 C542 1.378 . S
C550 C545 1.350 . S
C551 H538 0.929 . S
C551 C543 1.433 . S
C551 N553 1.384 . S
N552 C548 1.427 . S
N552 C549 1.384 . S
N553 C545 1.427 . S
N553 C551 1.384 . S
H554 C560 0.930 . S
H555 C564 0.930 . S
H556 C569 0.929 . S
H557 C567 0.929 1_565 S
H558 C562 0.929 . S
H559 C568 0.929 1_565 S
C560 H554 0.930 . S
C560 C561 1.367 . S
C560 C568 1.378 . S
C561 C560 1.367 . S
C561 C569 1.433 . S
C562 H558 0.929 . S
C562 C564 1.378 . S
C562 C566 1.350 . S
C563 C566 1.463 . S
C563 C568 1.350 . S
C563 N571 1.427 . S
C564 H555 0.930 . S
C564 C562 1.378 . S
C564 C565 1.367 . S
C565 C564 1.367 . S
C565 C567 1.433 . S
C566 C562 1.350 . S
C566 C563 1.463 . S
C566 N570 1.427 . S
C567 H557 0.929 1_545 S
C567 C565 1.433 . S
C567 N570 1.384 . S
C568 H559 0.929 1_545 S
C568 C560 1.378 . S
C568 C563 1.350 . S
C569 H556 0.929 . S
C569 C561 1.433 . S
C569 N571 1.384 . S
N570 C566 1.427 . S
N570 C567 1.384 . S
N571 C563 1.427 . S
N571 C569 1.384 . S
H572 C578 0.930 . S
H573 C582 0.930 . S
H574 C587 0.929 . S
H575 C585 0.929 . S
H576 C580 0.929 . S
H577 C586 0.929 . S
C578 H572 0.930 . S
C578 C579 1.367 . S
C578 C586 1.378 . S
C579 C578 1.367 . S
C579 C587 1.433 . S
C580 H576 0.929 . S
C580 C582 1.378 . S
C580 C584 1.350 . S
C581 C584 1.463 . S
C581 C586 1.350 . S
C581 N589 1.427 . S
C582 H573 0.930 . S
C582 C580 1.378 . S
C582 C583 1.367 . S
C583 C582 1.367 . S
C583 C585 1.433 . S
C584 C580 1.350 . S
C584 C581 1.463 . S
C584 N588 1.427 . S
C585 H575 0.929 . S
C585 C583 1.433 . S
C585 N588 1.384 . S
C586 H577 0.929 . S
C586 C578 1.378 . S
C586 C581 1.350 . S
C587 H574 0.929 . S
C587 C579 1.433 . S
C587 N589 1.384 . S
N588 C584 1.427 . S
N588 C585 1.384 . S
N589 C581 1.427 . S
N589 C587 1.384 . S
H590 C596 0.930 . S
H591 C600 0.930 . S
H592 C605 0.929 . S
H593 C603 0.929 . S
H594 C598 0.929 . S
H595 C604 0.929 . S
C596 H590 0.930 . S
C596 C597 1.367 . S
C596 C604 1.378 . S
C597 C596 1.367 . S
C597 C605 1.433 . S
C598 H594 0.929 . S
C598 C600 1.378 . S
C598 C602 1.350 . S
C599 C602 1.463 . S
C599 C604 1.350 . S
C599 N607 1.427 . S
C600 H591 0.930 . S
C600 C598 1.378 . S
C600 C601 1.367 . S
C601 C600 1.367 . S
C601 C603 1.433 . S
C602 C598 1.350 . S
C602 C599 1.463 . S
C602 N606 1.427 . S
C603 H593 0.929 . S
C603 C601 1.433 . S
C603 N606 1.384 . S
C604 H595 0.929 . S
C604 C596 1.378 . S
C604 C599 1.350 . S
C605 H592 0.929 . S
C605 C597 1.433 . S
C605 N607 1.384 . S
N606 C602 1.427 . S
N606 C603 1.384 . S
N607 C599 1.427 . S
N607 C605 1.384 . S
H608 C614 0.930 . S
H609 C618 0.930 1_455 S
H610 C623 0.929 . S
H611 C621 0.929 . S
H612 C616 0.929 . S
H613 C622 0.929 . S
C614 H608 0.930 . S
C614 C615 1.367 . S
C614 C622 1.378 . S
C615 C614 1.367 . S
C615 C623 1.433 . S
C616 H612 0.929 . S
C616 C618 1.378 . S
C616 C620 1.350 . S
C617 C620 1.463 . S
C617 C622 1.350 . S
C617 N625 1.427 . S
C618 H609 0.930 1_655 S
C618 C616 1.378 . S
C618 C619 1.367 . S
C619 C618 1.367 . S
C619 C621 1.433 . S
C620 C616 1.350 . S
C620 C617 1.463 . S
C620 N624 1.427 . S
C621 H611 0.929 . S
C621 C619 1.433 . S
C621 N624 1.384 . S
C622 H613 0.929 . S
C622 C614 1.378 . S
C622 C617 1.350 . S
C623 H610 0.929 . S
C623 C615 1.433 . S
C623 N625 1.384 . S
N624 C620 1.427 . S
N624 C621 1.384 . S
N625 C617 1.427 . S
N625 C623 1.384 . S
H626 C632 0.930 . S
H627 C636 0.930 . S
H628 C641 0.929 . S
H629 C639 0.929 . S
H630 C634 0.929 . S
H631 C640 0.929 . S
C632 H626 0.930 . S
C632 C633 1.367 . S
C632 C640 1.378 . S
C633 C632 1.367 . S
C633 C641 1.433 1_565 S
C634 H630 0.929 . S
C634 C636 1.378 . S
C634 C638 1.350 1_545 S
C635 C638 1.463 . S
C635 C640 1.350 . S
C635 N643 1.427 1_565 S
C636 H627 0.930 . S
C636 C634 1.378 . S
C636 C637 1.367 1_545 S
C637 C636 1.367 1_565 S
C637 C639 1.433 . S
C638 C634 1.350 1_565 S
C638 C635 1.463 . S
C638 N642 1.427 . S
C639 H629 0.929 . S
C639 C637 1.433 . S
C639 N642 1.384 . S
C640 H631 0.929 . S
C640 C632 1.378 . S
C640 C635 1.350 . S
C641 H628 0.929 . S
C641 C633 1.433 1_545 S
C641 N643 1.384 . S
N642 C638 1.427 . S
N642 C639 1.384 . S
N643 C635 1.427 1_545 S
N643 C641 1.384 . S
H644 C650 0.930 . S
H645 C654 0.930 . S
H646 C659 0.929 . S
H647 C657 0.929 . S
H648 C652 0.929 . S
H649 C658 0.929 . S
C650 H644 0.930 . S
C650 C651 1.367 . S
C650 C658 1.378 . S
C651 C650 1.367 . S
C651 C659 1.433 . S
C652 H648 0.929 . S
C652 C654 1.378 . S
C652 C656 1.350 . S
C653 C656 1.463 . S
C653 C658 1.350 . S
C653 N661 1.427 . S
C654 H645 0.930 . S
C654 C652 1.378 . S
C654 C655 1.367 . S
C655 C654 1.367 . S
C655 C657 1.433 . S
C656 C652 1.350 . S
C656 C653 1.463 . S
C656 N660 1.427 . S
C657 H647 0.929 . S
C657 C655 1.433 . S
C657 N660 1.384 . S
C658 H649 0.929 . S
C658 C650 1.378 . S
C658 C653 1.350 . S
C659 H646 0.929 . S
C659 C651 1.433 . S
C659 N661 1.384 . S
N660 C656 1.427 . S
N660 C657 1.384 . S
N661 C653 1.427 . S
N661 C659 1.384 . S
H662 C668 0.930 . S
H663 C672 0.930 . S
H664 C677 0.929 . S
H665 C675 0.929 . S
H666 C670 0.929 . S
H667 C676 0.929 . S
C668 H662 0.930 . S
C668 C669 1.367 . S
C668 C676 1.378 . S
C669 C668 1.367 . S
C669 C677 1.433 . S
C670 H666 0.929 . S
C670 C672 1.378 . S
C670 C674 1.350 . S
C671 C674 1.463 . S
C671 C676 1.350 . S
C671 N679 1.427 . S
C672 H663 0.930 . S
C672 C670 1.378 . S
C672 C673 1.367 . S
C673 C672 1.367 . S
C673 C675 1.433 . S
C674 C670 1.350 . S
C674 C671 1.463 . S
C674 N678 1.427 . S
C675 H665 0.929 . S
C675 C673 1.433 . S
C675 N678 1.384 . S
C676 H667 0.929 . S
C676 C668 1.378 . S
C676 C671 1.350 . S
C677 H664 0.929 . S
C677 C669 1.433 . S
C677 N679 1.384 . S
N678 C674 1.427 . S
N678 C675 1.384 . S
N679 C671 1.427 . S
N679 C677 1.384 . S
C255 C76 2.158 . S
C259 C119 2.330 . S
C277 C145 1.887 . S
C273 C87 1.737 . S
C295 C185 1.955 . S
C291 C54 1.814 . S
C313 C239 2.374 . S
C309 C65 2.222 . S
C331 C100 2.330 1_565 S
C327 C32 2.161 . S
C345 C43 1.715 . S
C349 C130 1.887 . S
C363 C10 1.820 . S
C367 C170 1.955 . S
C381 C21 2.217 . S
C385 C220 2.368 1_655 S
C403 C96 0.527 . S
C399 C60 0.560 . S
C421 C157 0.670 . S
C417 C71 0.681 . S
C439 C197 0.558 . S
C435 C82 0.540 . S
C453 C49 0.455 . S
C457 C216 0.408 . S
C471 C16 0.533 . S
C475 C117 0.501 . S
C493 C136 0.683 1_554 S
C489 C27 0.685 . S
C511 C176 0.563 . S
C507 C38 0.541 . S
C525 C5 0.480 . S
C529 C237 0.427 . S
C543 C59 1.889 . S
C547 C90 2.120 . S
C561 C70 2.376 . S
C565 C140 2.602 . S
C583 C180 2.388 . S
C579 C81 2.181 . S
C601 C210 1.885 . S
C597 C48 1.692 . S
C615 C15 1.878 . S
C619 C105 2.122 . S
C637 C159 2.599 . S
C633 C26 2.378 . S
C655 C199 2.388 . S
C651 C37 2.187 . S
C669 C4 1.697 . S
C673 C225 1.885 . S
