# Generated by pormake.
# Topology llk, (3,12)-cn, num edge types: 1
# Building blocks:
#     Node 0, Type 0, BuildingBlock: BETDAH_clean_linker_0, # of connection points: 3
#     Node 1, Type 0, BuildingBlock: BETDAH_clean_linker_0, # of connection points: 3
#     Node 2, Type 0, BuildingBlock: BETDAH_clean_linker_0, # of connection points: 3
#     Node 3, Type 0, BuildingBlock: BETDAH_clean_linker_0, # of connection points: 3
#     Node 4, Type 0, BuildingBlock: BETDAH_clean_linker_0, # of connection points: 3
#     Node 5, Type 0, BuildingBlock: BETDAH_clean_linker_0, # of connection points: 3
#     Node 6, Type 0, BuildingBlock: BETDAH_clean_linker_0, # of connection points: 3
#     Node 7, Type 0, BuildingBlock: BETDAH_clean_linker_0, # of connection points: 3
#     Node 8, Type 0, BuildingBlock: BETDAH_clean_linker_0, # of connection points: 3
#     Node 9, Type 0, BuildingBlock: BETDAH_clean_linker_0, # of connection points: 3
#     Node 10, Type 0, BuildingBlock: BETDAH_clean_linker_0, # of connection points: 3
#     Node 11, Type 0, BuildingBlock: BETDAH_clean_linker_0, # of connection points: 3
#     Node 12, Type 0, BuildingBlock: BETDAH_clean_linker_0, # of connection points: 3
#     Node 13, Type 0, BuildingBlock: BETDAH_clean_linker_0, # of connection points: 3
#     Node 14, Type 0, BuildingBlock: BETDAH_clean_linker_0, # of connection points: 3
#     Node 15, Type 0, BuildingBlock: BETDAH_clean_linker_0, # of connection points: 3
#     Node 16, Type 0, BuildingBlock: BETDAH_clean_linker_0, # of connection points: 3
#     Node 17, Type 0, BuildingBlock: BETDAH_clean_linker_0, # of connection points: 3
#     Node 18, Type 0, BuildingBlock: BETDAH_clean_linker_0, # of connection points: 3
#     Node 19, Type 0, BuildingBlock: BETDAH_clean_linker_0, # of connection points: 3
#     Node 20, Type 0, BuildingBlock: BETDAH_clean_linker_0, # of connection points: 3
#     Node 21, Type 0, BuildingBlock: BETDAH_clean_linker_0, # of connection points: 3
#     Node 22, Type 0, BuildingBlock: BETDAH_clean_linker_0, # of connection points: 3
#     Node 23, Type 0, BuildingBlock: BETDAH_clean_linker_0, # of connection points: 3
#     Node 24, Type 1, BuildingBlock: EZIPEK_clean_sbu_0, # of connection points: 12
#     Node 25, Type 1, BuildingBlock: EZIPEK_clean_sbu_0, # of connection points: 12
#     Node 26, Type 1, BuildingBlock: EZIPEK_clean_sbu_0, # of connection points: 12
#     Node 27, Type 1, BuildingBlock: EZIPEK_clean_sbu_0, # of connection points: 12
#     Node 28, Type 1, BuildingBlock: EZIPEK_clean_sbu_0, # of connection points: 12
#     Node 29, Type 1, BuildingBlock: EZIPEK_clean_sbu_0, # of connection points: 12
#     Edge 30, Type (0, 1), BuildingBlock: KIFKEQ_clean_linker_1, # of connection points: 2
#     Edge 31, Type (0, 1), BuildingBlock: KIFKEQ_clean_linker_1, # of connection points: 2
#     Edge 32, Type (0, 1), BuildingBlock: KIFKEQ_clean_linker_1, # of connection points: 2
#     Edge 33, Type (0, 1), BuildingBlock: KIFKEQ_clean_linker_1, # of connection points: 2
#     Edge 34, Type (0, 1), BuildingBlock: KIFKEQ_clean_linker_1, # of connection points: 2
#     Edge 35, Type (0, 1), BuildingBlock: KIFKEQ_clean_linker_1, # of connection points: 2
#     Edge 36, Type (0, 1), BuildingBlock: KIFKEQ_clean_linker_1, # of connection points: 2
#     Edge 37, Type (0, 1), BuildingBlock: KIFKEQ_clean_linker_1, # of connection points: 2
#     Edge 38, Type (0, 1), BuildingBlock: KIFKEQ_clean_linker_1, # of connection points: 2
#     Edge 39, Type (0, 1), BuildingBlock: KIFKEQ_clean_linker_1, # of connection points: 2
#     Edge 40, Type (0, 1), BuildingBlock: KIFKEQ_clean_linker_1, # of connection points: 2
#     Edge 41, Type (0, 1), BuildingBlock: KIFKEQ_clean_linker_1, # of connection points: 2
#     Edge 42, Type (0, 1), BuildingBlock: KIFKEQ_clean_linker_1, # of connection points: 2
#     Edge 43, Type (0, 1), BuildingBlock: KIFKEQ_clean_linker_1, # of connection points: 2
#     Edge 44, Type (0, 1), BuildingBlock: KIFKEQ_clean_linker_1, # of connection points: 2
#     Edge 45, Type (0, 1), BuildingBlock: KIFKEQ_clean_linker_1, # of connection points: 2
#     Edge 46, Type (0, 1), BuildingBlock: KIFKEQ_clean_linker_1, # of connection points: 2
#     Edge 47, Type (0, 1), BuildingBlock: KIFKEQ_clean_linker_1, # of connection points: 2
#     Edge 48, Type (0, 1), BuildingBlock: KIFKEQ_clean_linker_1, # of connection points: 2
#     Edge 49, Type (0, 1), BuildingBlock: KIFKEQ_clean_linker_1, # of connection points: 2
#     Edge 50, Type (0, 1), BuildingBlock: KIFKEQ_clean_linker_1, # of connection points: 2
#     Edge 51, Type (0, 1), BuildingBlock: KIFKEQ_clean_linker_1, # of connection points: 2
#     Edge 52, Type (0, 1), BuildingBlock: KIFKEQ_clean_linker_1, # of connection points: 2
#     Edge 53, Type (0, 1), BuildingBlock: KIFKEQ_clean_linker_1, # of connection points: 2
#     Edge 54, Type (0, 1), BuildingBlock: KIFKEQ_clean_linker_1, # of connection points: 2
#     Edge 55, Type (0, 1), BuildingBlock: KIFKEQ_clean_linker_1, # of connection points: 2
#     Edge 56, Type (0, 1), BuildingBlock: KIFKEQ_clean_linker_1, # of connection points: 2
#     Edge 57, Type (0, 1), BuildingBlock: KIFKEQ_clean_linker_1, # of connection points: 2
#     Edge 58, Type (0, 1), BuildingBlock: KIFKEQ_clean_linker_1, # of connection points: 2
#     Edge 59, Type (0, 1), BuildingBlock: KIFKEQ_clean_linker_1, # of connection points: 2
#     Edge 60, Type (0, 1), BuildingBlock: KIFKEQ_clean_linker_1, # of connection points: 2
#     Edge 61, Type (0, 1), BuildingBlock: KIFKEQ_clean_linker_1, # of connection points: 2
#     Edge 62, Type (0, 1), BuildingBlock: KIFKEQ_clean_linker_1, # of connection points: 2
#     Edge 63, Type (0, 1), BuildingBlock: KIFKEQ_clean_linker_1, # of connection points: 2
#     Edge 64, Type (0, 1), BuildingBlock: KIFKEQ_clean_linker_1, # of connection points: 2
#     Edge 65, Type (0, 1), BuildingBlock: KIFKEQ_clean_linker_1, # of connection points: 2
#     Edge 66, Type (0, 1), BuildingBlock: KIFKEQ_clean_linker_1, # of connection points: 2
#     Edge 67, Type (0, 1), BuildingBlock: KIFKEQ_clean_linker_1, # of connection points: 2
#     Edge 68, Type (0, 1), BuildingBlock: KIFKEQ_clean_linker_1, # of connection points: 2
#     Edge 69, Type (0, 1), BuildingBlock: KIFKEQ_clean_linker_1, # of connection points: 2
#     Edge 70, Type (0, 1), BuildingBlock: KIFKEQ_clean_linker_1, # of connection points: 2
#     Edge 71, Type (0, 1), BuildingBlock: KIFKEQ_clean_linker_1, # of connection points: 2
#     Edge 72, Type (0, 1), BuildingBlock: KIFKEQ_clean_linker_1, # of connection points: 2
#     Edge 73, Type (0, 1), BuildingBlock: KIFKEQ_clean_linker_1, # of connection points: 2
#     Edge 74, Type (0, 1), BuildingBlock: KIFKEQ_clean_linker_1, # of connection points: 2
#     Edge 75, Type (0, 1), BuildingBlock: KIFKEQ_clean_linker_1, # of connection points: 2
#     Edge 76, Type (0, 1), BuildingBlock: KIFKEQ_clean_linker_1, # of connection points: 2
#     Edge 77, Type (0, 1), BuildingBlock: KIFKEQ_clean_linker_1, # of connection points: 2
#     Edge 78, Type (0, 1), BuildingBlock: KIFKEQ_clean_linker_1, # of connection points: 2
#     Edge 79, Type (0, 1), BuildingBlock: KIFKEQ_clean_linker_1, # of connection points: 2
#     Edge 80, Type (0, 1), BuildingBlock: KIFKEQ_clean_linker_1, # of connection points: 2
#     Edge 81, Type (0, 1), BuildingBlock: KIFKEQ_clean_linker_1, # of connection points: 2
#     Edge 82, Type (0, 1), BuildingBlock: KIFKEQ_clean_linker_1, # of connection points: 2
#     Edge 83, Type (0, 1), BuildingBlock: KIFKEQ_clean_linker_1, # of connection points: 2
#     Edge 84, Type (0, 1), BuildingBlock: KIFKEQ_clean_linker_1, # of connection points: 2
#     Edge 85, Type (0, 1), BuildingBlock: KIFKEQ_clean_linker_1, # of connection points: 2
#     Edge 86, Type (0, 1), BuildingBlock: KIFKEQ_clean_linker_1, # of connection points: 2
#     Edge 87, Type (0, 1), BuildingBlock: KIFKEQ_clean_linker_1, # of connection points: 2
#     Edge 88, Type (0, 1), BuildingBlock: KIFKEQ_clean_linker_1, # of connection points: 2
#     Edge 89, Type (0, 1), BuildingBlock: KIFKEQ_clean_linker_1, # of connection points: 2
#     Edge 90, Type (0, 1), BuildingBlock: KIFKEQ_clean_linker_1, # of connection points: 2
#     Edge 91, Type (0, 1), BuildingBlock: KIFKEQ_clean_linker_1, # of connection points: 2
#     Edge 92, Type (0, 1), BuildingBlock: KIFKEQ_clean_linker_1, # of connection points: 2
#     Edge 93, Type (0, 1), BuildingBlock: KIFKEQ_clean_linker_1, # of connection points: 2
#     Edge 94, Type (0, 1), BuildingBlock: KIFKEQ_clean_linker_1, # of connection points: 2
#     Edge 95, Type (0, 1), BuildingBlock: KIFKEQ_clean_linker_1, # of connection points: 2
#     Edge 96, Type (0, 1), BuildingBlock: KIFKEQ_clean_linker_1, # of connection points: 2
#     Edge 97, Type (0, 1), BuildingBlock: KIFKEQ_clean_linker_1, # of connection points: 2
#     Edge 98, Type (0, 1), BuildingBlock: KIFKEQ_clean_linker_1, # of connection points: 2
#     Edge 99, Type (0, 1), BuildingBlock: KIFKEQ_clean_linker_1, # of connection points: 2
#     Edge 100, Type (0, 1), BuildingBlock: KIFKEQ_clean_linker_1, # of connection points: 2
#     Edge 101, Type (0, 1), BuildingBlock: KIFKEQ_clean_linker_1, # of connection points: 2
# Relax obj value: 0.069
# Max RMSD: 0.164
# Mean RMSD: 0.122
data_MOF--net-llk--node1-EZIPEK_clean_sbu_0--node2-BETDAH_clean_linker_0--edge1-KIFKEQ_clean_linker_1
_symmetry_space_group_name_H-M    P1
_symmetry_Int_Tables_number       1
_symmetry_cell_setting            triclinic
loop_
_symmetry_equiv_pos_as_xyz
'x, y, z'
_cell_length_a     47.828104
_cell_length_b     48.070264
_cell_length_c     48.281433
_cell_angle_alpha  90.037205
_cell_angle_beta   90.013557
_cell_angle_gamma 90.000879
loop_
_atom_site_label
_atom_site_type_symbol
_atom_site_fract_x
_atom_site_fract_y
_atom_site_fract_z
_atom_type_partial_charge
H0 H 0.01716 0.25381 0.34116 0.0
H1 H 0.01875 0.29872 0.26441 0.0
H2 H 0.00886 0.20948 0.26424 0.0
C3 C 0.01629 0.25382 0.31871 0.0
C4 C 0.01252 0.22864 0.30459 0.0
C5 C 0.01871 0.27904 0.3044 0.0
C6 C 0.01703 0.27916 0.27539 0.0
C7 C 0.01364 0.25403 0.26072 0.0
C8 C 0.01168 0.22881 0.27546 0.0
N9 N 0.01198 0.25342 0.23129 0.0
C10 C 0.01208 0.27704 0.21453 0.0
H11 H 0.6838 0.99061 0.26001 0.0
H12 H 0.76066 1.00156 0.30449 0.0
H13 H 0.76047 0.00326 0.21523 0.0
C14 C 0.7063 0.99341 0.2599 0.0
C15 C 0.72033 0.99615 0.23454 0.0
C16 C 0.72067 0.99535 0.28514 0.0
C17 C 0.74959 1.00016 0.28498 0.0
C18 C 0.76409 0.00294 0.25973 0.0
C19 C 0.74929 1.00114 0.23464 0.0
N20 N 0.79344 0.00747 0.25888 0.0
C21 C 0.81035 0.00818 0.28234 0.0
H22 H 0.00494 0.67086 0.26066 0.0
H23 H 0.01342 0.74734 0.3057 0.0
H24 H 0.01642 0.74763 0.21642 0.0
C25 C 0.00724 0.69331 0.26068 0.0
C26 C 0.00994 0.70742 0.23542 0.0
C27 C 0.00847 0.70751 0.28601 0.0
C28 C 0.01258 0.7364 0.28611 0.0
C29 C 0.01536 0.75104 0.26098 0.0
C30 C 0.01432 0.73637 0.23575 0.0
N31 N 0.01905 0.78041 0.26043 0.0
C32 C 0.01788 0.79736 0.28383 0.0
H33 H 0.26648 0.01479 0.34114 0.0
H34 H 0.31172 0.00489 0.26506 0.0
H35 H 0.22159 1.0019 0.26503 0.0
C36 C 0.26643 0.01211 0.31883 0.0
C37 C 0.2409 0.00913 0.30489 0.0
C38 C 0.29196 0.01061 0.30467 0.0
C39 C 0.29197 0.00597 0.27598 0.0
C40 C 0.26656 0.00294 0.26152 0.0
C41 C 0.24114 0.00423 0.27616 0.0
N42 N 0.26586 0.99867 0.23236 0.0
C43 C 0.28938 0.99962 0.21535 0.0
H44 H 0.0255 0.75154 0.67791 0.0
H45 H 0.01727 0.70632 0.75403 0.0
H46 H 0.01378 0.79601 0.75433 0.0
C47 C 0.02321 0.75154 0.70026 0.0
C48 C 0.02037 0.77692 0.71428 0.0
C49 C 0.02212 0.72612 0.71439 0.0
C50 C 0.01802 0.72601 0.74315 0.0
C51 C 0.01512 0.75123 0.75775 0.0
C52 C 0.016 0.77659 0.74313 0.0
N53 N 0.01144 0.75176 0.78701 0.0
C54 C 0.01259 0.72826 0.80393 0.0
H55 H 0.26428 0.99109 0.67786 0.0
H56 H 0.31087 1.00155 0.75311 0.0
H57 H 0.22073 0.00366 0.75471 0.0
C58 C 0.26466 0.9938 0.70015 0.0
C59 C 0.23938 0.99654 0.71456 0.0
C60 C 0.29044 0.9956 0.71384 0.0
C61 C 0.29094 1.00025 0.74253 0.0
C62 C 0.26576 0.00305 0.75744 0.0
C63 C 0.24009 1.0015 0.74326 0.0
N64 N 0.26555 0.00734 0.7866 0.0
C65 C 0.28932 0.00635 0.80326 0.0
H66 H 0.0169 0.33508 0.75824 0.0
H67 H 0.01793 0.25803 0.71336 0.0
H68 H 0.00921 0.25776 0.80231 0.0
C69 C 0.01602 0.31253 0.7582 0.0
C70 C 0.01261 0.29832 0.78331 0.0
C71 C 0.0181 0.29817 0.73302 0.0
C72 C 0.01645 0.26904 0.73288 0.0
C73 C 0.0134 0.25428 0.7579 0.0
C74 C 0.01177 0.26906 0.78306 0.0
N75 N 0.01176 0.22472 0.75842 0.0
C76 C 0.01161 0.20795 0.73484 0.0
H77 H 0.76393 1.00088 0.67921 0.0
H78 H 0.71966 0.99873 0.75644 0.0
H79 H 0.80919 0.00997 0.75559 0.0
C80 C 0.76412 1.00181 0.70167 0.0
C81 C 0.78947 0.00598 0.71554 0.0
C82 C 0.739 0.99899 0.71626 0.0
C83 C 0.73918 1.00071 0.74525 0.0
C84 C 0.76459 0.00449 0.75961 0.0
C85 C 0.78967 0.00688 0.74461 0.0
N86 N 0.76562 0.00612 0.78898 0.0
C87 C 0.74211 0.00453 0.80587 0.0
H88 H 0.34589 0.25281 0.00786 0.0
H89 H 0.268 0.297 0.006 0.0
H90 H 0.26869 0.20792 0.01671 0.0
C91 C 0.32323 0.25267 0.00878 0.0
C92 C 0.30915 0.22745 0.0128 0.0
C93 C 0.30854 0.27772 0.00613 0.0
C94 C 0.27928 0.27755 0.00787 0.0
C95 C 0.26476 0.25228 0.01151 0.0
C96 C 0.27983 0.22732 0.01369 0.0
N97 N 0.23514 0.25127 0.01324 0.0
C98 C 0.21827 0.27481 0.01322 0.0
H99 H 0.34601 0.7533 0.01035 0.0
H100 H 0.26855 0.70843 0.00702 0.0
H101 H 0.26825 0.79756 0.01743 0.0
C102 C 0.32334 0.75323 0.01086 0.0
C103 C 0.30895 0.77836 0.01442 0.0
C104 C 0.30892 0.72803 0.00801 0.0
C105 C 0.27962 0.72797 0.00911 0.0
C106 C 0.26482 0.75314 0.01237 0.0
C107 C 0.27962 0.77824 0.01478 0.0
N108 N 0.23515 0.75389 0.01337 0.0
C109 C 0.21851 0.73026 0.01166 0.0
H110 H 0.76428 0.33368 0.02007 0.0
H111 H 0.71906 0.25747 0.00846 0.0
H112 H 0.80916 0.25758 0.00552 0.0
C113 C 0.7643 0.31133 0.01692 0.0
C114 C 0.78981 0.29738 0.01361 0.0
C115 C 0.73878 0.29714 0.01507 0.0
C116 C 0.7388 0.26843 0.00984 0.0
C117 C 0.76425 0.25401 0.00652 0.0
C118 C 0.78961 0.26868 0.00811 0.0
N119 N 0.76505 0.22487 1.00162 0.0
C120 C 0.74163 0.20775 1.00292 0.0
H121 H 0.76466 0.6716 0.02279 0.0
H122 H 0.71894 0.74739 0.01055 0.0
H123 H 0.80906 0.74805 0.00877 0.0
C124 C 0.76452 0.69394 0.01967 0.0
C125 C 0.78995 0.7081 0.01663 0.0
C126 C 0.7389 0.70791 0.0175 0.0
C127 C 0.73874 0.73661 0.0122 0.0
C128 C 0.76411 0.75123 0.00916 0.0
C129 C 0.78957 0.7368 0.01116 0.0
N130 N 0.76475 0.78034 1.00408 0.0
C131 C 0.74105 0.7971 1.00331 0.0
H132 H 0.51287 0.75392 0.84132 0.0
H133 H 0.5117 0.79856 0.76441 0.0
H134 H 0.52142 0.70931 0.76459 0.0
C135 C 0.51385 0.75385 0.81888 0.0
C136 C 0.51764 0.72861 0.80486 0.0
C137 C 0.51153 0.77903 0.80446 0.0
C138 C 0.51333 0.77904 0.77546 0.0
C139 C 0.51672 0.75385 0.76089 0.0
C140 C 0.51859 0.72868 0.77573 0.0
N141 N 0.51846 0.75313 0.73147 0.0
C142 C 0.51827 0.77667 0.71461 0.0
H143 H 0.18385 0.51394 0.76003 0.0
H144 H 0.26061 0.50306 0.80468 0.0
H145 H 0.26056 0.50092 0.71542 0.0
C146 C 0.20635 0.5111 0.75996 0.0
C147 C 0.2204 0.5082 0.73465 0.0
C148 C 0.22067 0.50928 0.78523 0.0
C149 C 0.24958 0.5044 0.78514 0.0
C150 C 0.26411 0.50148 0.75992 0.0
C151 C 0.24935 0.50316 0.7348 0.0
N152 N 0.29346 0.49692 0.75912 0.0
C153 C 0.31039 0.49657 0.78257 0.0
H154 H 0.50444 0.17098 0.76081 0.0
H155 H 0.51365 0.24745 0.80571 0.0
H156 H 0.51617 0.24762 0.71641 0.0
C157 C 0.50687 0.19341 0.76078 0.0
C158 C 0.50956 0.20746 0.73549 0.0
C159 C 0.50831 0.20764 0.78609 0.0
C160 C 0.51264 0.2365 0.78613 0.0
C161 C 0.51538 0.25109 0.76098 0.0
C162 C 0.51408 0.2364 0.73576 0.0
N163 N 0.51933 0.28044 0.76038 0.0
C164 C 0.51957 0.29732 0.78388 0.0
H165 H 0.76613 0.49049 0.8409 0.0
H166 H 0.8114 0.50011 0.76482 0.0
H167 H 0.72124 0.50236 0.76466 0.0
C168 C 0.7661 0.49295 0.81857 0.0
C169 C 0.74056 0.49564 0.80459 0.0
C170 C 0.79163 0.49454 0.80443 0.0
C171 C 0.79164 0.49895 0.77571 0.0
C172 C 0.76623 0.50166 0.76119 0.0
C173 C 0.74079 0.50025 0.77581 0.0
N174 N 0.76553 0.50574 0.73201 0.0
C175 C 0.78918 0.50616 0.71515 0.0
H176 H 0.51636 0.25138 0.17761 0.0
H177 H 0.51912 0.20644 0.25431 0.0
H178 H 0.50853 0.2956 0.25465 0.0
C179 C 0.5157 0.25136 0.20006 0.0
C180 C 0.51191 0.27652 0.21423 0.0
C181 C 0.51847 0.22614 0.21434 0.0
C182 C 0.51714 0.226 0.24336 0.0
C183 C 0.51373 0.25109 0.25809 0.0
C184 C 0.51136 0.2763 0.24338 0.0
N185 N 0.51247 0.25163 0.28756 0.0
C186 C 0.51419 0.22808 0.30434 0.0
H187 H 0.76428 0.51489 0.17805 0.0
H188 H 0.81095 0.50481 0.25328 0.0
H189 H 0.72082 0.50284 0.25503 0.0
C190 C 0.76469 0.51233 0.20036 0.0
C191 C 0.73942 0.50967 0.21481 0.0
C192 C 0.79048 0.51057 0.21402 0.0
C193 C 0.79101 0.50607 0.24273 0.0
C194 C 0.76586 0.50339 0.25769 0.0
C195 C 0.74017 0.50494 0.24355 0.0
N196 N 0.76567 0.49918 0.28686 0.0
C197 C 0.78961 0.49864 0.30331 0.0
H198 H 0.52647 0.83464 0.2581 0.0
H199 H 0.51694 0.75832 0.213 0.0
H200 H 0.51505 0.75784 0.3023 0.0
C201 C 0.52404 0.81221 0.25807 0.0
C202 C 0.52153 0.79808 0.28334 0.0
C203 C 0.52242 0.79807 0.23272 0.0
C204 C 0.51808 0.76921 0.2326 0.0
C205 C 0.51551 0.75452 0.25771 0.0
C206 C 0.51699 0.76913 0.28298 0.0
N207 N 0.51155 0.72518 0.25823 0.0
C208 C 0.51099 0.70833 0.23469 0.0
H209 H 0.26382 0.4885 0.17975 0.0
H210 H 0.21907 0.49987 0.25589 0.0
H211 H 0.3092 0.5028 0.25527 0.0
C212 C 0.26399 0.49152 0.20202 0.0
C213 C 0.28957 0.4948 0.21575 0.0
C214 C 0.23857 0.49332 0.2163 0.0
C215 C 0.23875 0.49848 0.24489 0.0
C216 C 0.26429 0.50175 0.25912 0.0
C217 C 0.28958 0.5002 0.24436 0.0
N218 N 0.26525 0.5066 0.28815 0.0
C219 C 0.24184 0.50578 0.30524 0.0
H220 H 0.84603 0.75268 0.5076 0.0
H221 H 0.76809 0.79681 0.5059 0.0
H222 H 0.76886 0.70768 0.5162 0.0
C223 C 0.82336 0.75252 0.5085 0.0
C224 C 0.8093 0.72728 0.51239 0.0
C225 C 0.80865 0.77758 0.50597 0.0
C226 C 0.77939 0.77737 0.50769 0.0
C227 C 0.76489 0.75206 0.51121 0.0
C228 C 0.77998 0.72711 0.51326 0.0
N229 N 0.73528 0.75101 0.51293 0.0
C230 C 0.7184 0.77453 0.51312 0.0
H231 H 0.84605 0.2531 0.51006 0.0
H232 H 0.76844 0.20846 0.5075 0.0
H233 H 0.7685 0.29758 0.51806 0.0
C234 C 0.82338 0.25311 0.51081 0.0
C235 C 0.80911 0.27826 0.51457 0.0
C236 C 0.80886 0.22796 0.50809 0.0
C237 C 0.77958 0.22797 0.50949 0.0
C238 C 0.76488 0.25318 0.51294 0.0
C239 C 0.77978 0.27823 0.51525 0.0
N240 N 0.73523 0.25401 0.51425 0.0
C241 C 0.71851 0.23043 0.51257 0.0
H242 H 0.26425 0.8339 0.49584 0.0
H243 H 0.21906 0.75774 0.50767 0.0
H244 H 0.30919 0.75759 0.50896 0.0
C245 C 0.26427 0.81153 0.49878 0.0
C246 C 0.2898 0.7975 0.50157 0.0
C247 C 0.23875 0.79739 0.50094 0.0
C248 C 0.23879 0.76865 0.50601 0.0
C249 C 0.26426 0.75415 0.50878 0.0
C250 C 0.28963 0.76876 0.50678 0.0
N251 N 0.26512 0.72499 0.51355 0.0
C252 C 0.24155 0.70805 0.51413 0.0
H253 H 0.26513 0.17055 0.51006 0.0
H254 H 0.21968 0.24745 0.51354 0.0
H255 H 0.30927 0.24812 0.50321 0.0
C256 C 0.26497 0.19311 0.50962 0.0
C257 C 0.29016 0.20752 0.5061 0.0
C258 C 0.23957 0.20733 0.51251 0.0
C259 C 0.23936 0.2365 0.51146 0.0
C260 C 0.26459 0.25136 0.50825 0.0
C261 C 0.2899 0.23672 0.50583 0.0
N262 N 0.26524 0.28089 0.5073 0.0
C263 C 0.24153 0.29756 0.50891 0.0
C264 C 0.01346 0.93439 0.57586 0.0
C265 C 0.01414 0.9359 0.44092 0.0
C266 C 0.01307 0.06939 0.57754 0.0
C267 C 0.01398 0.07088 0.44256 0.0
C268 C 0.94578 0.06998 0.50848 0.0
C269 C 0.94553 0.93553 0.50721 0.0
C270 C 0.08133 0.07014 0.51149 0.0
C271 C 0.08103 0.93494 0.50764 0.0
C272 C 0.08212 0.00388 0.44239 0.0
C273 C 0.9467 0.00397 0.4411 0.0
C274 C 0.08097 1.00114 0.57702 0.0
C275 C 0.94563 0.00289 0.57604 0.0
Eu276 Eu 0.01346 0.94992 0.5085 0.0
O277 O 0.98899 0.97827 0.48396 0.0
O278 O 0.03825 0.97755 0.53362 0.0
Eu279 Eu 0.9607 0.00271 0.50866 0.0
Eu280 Eu 0.06656 0.00257 0.50959 0.0
O281 O 0.98843 0.97757 0.53336 0.0
O282 O 0.03866 0.97815 0.48451 0.0
Eu283 Eu 0.01331 1.00199 0.56157 0.0
Eu284 Eu 0.01428 0.00329 0.45681 0.0
O285 O 0.98866 0.02712 0.53387 0.0
O286 O 0.98922 0.02766 0.48476 0.0
O287 O 0.03881 0.02782 0.4851 0.0
O288 O 0.03831 0.02708 0.53428 0.0
Eu289 Eu 0.01368 0.05546 0.50991 0.0
O290 O 0.01371 0.92622 0.54935 0.0
O291 O 0.01382 0.92698 0.46717 0.0
O292 O 0.01308 0.07835 0.5513 0.0
O293 O 0.01385 0.07906 0.46905 0.0
O294 O 0.93723 0.04356 0.50831 0.0
O295 O 0.93705 0.96197 0.50771 0.0
O296 O 0.08977 0.04365 0.51122 0.0
O297 O 0.08962 0.96139 0.50805 0.0
O298 O 0.0556 0.00345 0.43378 0.0
O299 O 0.97345 0.00394 0.43327 0.0
O300 O 0.05431 1.00169 0.58523 0.0
O301 O 0.97216 1.00232 0.58454 0.0
O302 O 0.05479 0.0787 0.5109 0.0
O303 O 0.97237 0.07843 0.50919 0.0
O304 O 0.05446 0.9265 0.508 0.0
O305 O 0.97211 0.92702 0.5075 0.0
O306 O 0.01432 0.96256 0.43311 0.0
O307 O 0.01427 0.04448 0.43392 0.0
O308 O 0.01305 0.96079 0.58449 0.0
O309 O 0.01324 0.04272 0.58531 0.0
O310 O 0.93722 0.00304 0.54961 0.0
O311 O 0.93767 0.00345 0.46732 0.0
O312 O 0.08962 1.0011 0.55069 0.0
O313 O 0.09036 0.0039 0.46886 0.0
C314 C 0.5162 0.93443 0.07547 0.0
C315 C 0.51651 0.06922 0.07731 0.0
C316 C 0.51363 0.93615 0.94116 0.0
C317 C 0.51406 0.07105 0.94303 0.0
C318 C 0.58317 0.00289 0.94232 0.0
C319 C 0.58275 1.00126 0.07652 0.0
C320 C 0.44702 0.00359 0.942 0.0
C321 C 0.44682 1.00217 0.07632 0.0
C322 C 0.44753 0.07017 0.01079 0.0
C323 C 0.58342 0.06986 0.00939 0.0
C324 C 0.44711 0.93559 0.00982 0.0
C325 C 0.58301 0.93522 0.0077 0.0
Eu326 Eu 0.51483 1.00211 0.06173 0.0
O327 O 0.5399 0.02712 0.03432 0.0
O328 O 0.49017 0.97763 0.03355 0.0
Eu329 Eu 0.56776 0.00258 0.00941 0.0
Eu330 Eu 0.46236 0.00284 0.00919 0.0
O331 O 0.53969 0.97765 0.03366 0.0
O332 O 0.49033 0.02737 0.03411 0.0
Eu333 Eu 0.51507 0.94997 0.00861 0.0
Eu334 Eu 0.51543 0.05543 0.00986 0.0
O335 O 0.53981 0.97821 0.98427 0.0
O336 O 0.54003 0.02767 0.98477 0.0
O337 O 0.49052 0.02777 0.98489 0.0
O338 O 0.49033 0.97829 0.98425 0.0
Eu339 Eu 0.5151 0.00331 0.9566 0.0
O340 O 0.51546 0.96081 0.08413 0.0
O341 O 0.51567 0.04272 0.08549 0.0
O342 O 0.51435 0.96265 0.93294 0.0
O343 O 0.51443 0.04468 0.93431 0.0
O344 O 0.59125 0.00266 0.96879 0.0
O345 O 0.59132 1.00188 0.0502 0.0
O346 O 0.43886 0.00326 0.96845 0.0
O347 O 0.43872 0.00256 0.04985 0.0
O348 O 0.47416 0.07857 0.01101 0.0
O349 O 0.5569 0.07867 0.00926 0.0
O350 O 0.47369 0.92705 0.00965 0.0
O351 O 0.55644 0.92655 0.00747 0.0
O352 O 0.4736 0.00368 0.93336 0.0
O353 O 0.55664 0.00327 0.93353 0.0
O354 O 0.47338 1.00194 0.085 0.0
O355 O 0.55611 1.00124 0.08484 0.0
O356 O 0.51658 0.07794 0.05105 0.0
O357 O 0.51445 0.0793 0.96944 0.0
O358 O 0.51615 0.92614 0.04907 0.0
O359 O 0.51373 0.92745 0.96743 0.0
O360 O 0.5912 0.96175 0.0086 0.0
O361 O 0.59146 0.04328 0.00966 0.0
O362 O 0.43869 0.96206 0.00939 0.0
O363 O 0.43896 0.04376 0.00993 0.0
C364 C 0.01489 0.43419 0.0759 0.0
C365 C 0.01585 0.43593 0.94154 0.0
C366 C 0.01568 0.56972 0.0775 0.0
C367 C 0.01596 0.57139 0.94311 0.0
C368 C 0.94835 0.57053 0.01041 0.0
C369 C 0.94795 0.43545 0.00922 0.0
C370 C 0.08372 0.57022 0.01016 0.0
C371 C 0.0832 0.43481 0.00947 0.0
C372 C 0.08437 0.50441 0.94316 0.0
C373 C 0.94883 0.50232 0.94187 0.0
C374 C 0.08292 0.50084 0.07755 0.0
C375 C 0.94787 0.50357 0.07644 0.0
Eu376 Eu 0.01563 0.45032 0.00886 0.0
O377 O 0.99119 0.47864 0.98443 0.0
O378 O 0.04049 0.47773 0.03408 0.0
Eu379 Eu 0.96302 0.50296 0.00926 0.0
Eu380 Eu 0.06903 0.50256 0.01009 0.0
O381 O 0.99071 0.47784 0.03386 0.0
O382 O 0.04098 0.47834 0.98475 0.0
Eu383 Eu 0.01555 0.50208 0.06211 0.0
Eu384 Eu 0.01635 0.50352 0.95709 0.0
O385 O 0.99109 0.52717 0.03433 0.0
O386 O 0.9912 0.52796 0.98498 0.0
O387 O 0.04101 0.52762 0.98561 0.0
O388 O 0.04073 0.52715 0.03479 0.0
Eu389 Eu 0.016 0.55536 0.01022 0.0
O390 O 0.01515 0.42637 0.04934 0.0
O391 O 0.01554 0.42724 0.96782 0.0
O392 O 0.01611 0.57842 0.05124 0.0
O393 O 0.01601 0.57925 0.96966 0.0
O394 O 0.93979 0.54408 0.00968 0.0
O395 O 0.93954 0.46195 0.00981 0.0
O396 O 0.09252 0.54381 0.01062 0.0
O397 O 0.09222 0.46115 0.0097 0.0
O398 O 0.05782 0.50456 0.9346 0.0
O399 O 0.97544 0.50305 0.93358 0.0
O400 O 0.05629 0.50126 0.0857 0.0
O401 O 0.97436 0.50266 0.08504 0.0
O402 O 0.05707 0.57837 0.00994 0.0
O403 O 0.97495 0.57892 0.01063 0.0
O404 O 0.05648 0.4269 0.00911 0.0
O405 O 0.97451 0.42696 0.00847 0.0
O406 O 0.0164 0.46255 0.93349 0.0
O407 O 0.01599 0.54501 0.93424 0.0
O408 O 0.01495 0.46055 0.08484 0.0
O409 O 0.01542 0.54312 0.0856 0.0
O410 O 0.93951 0.50378 0.05003 0.0
O411 O 0.94014 0.50225 0.96817 0.0
O412 O 0.09177 0.50128 0.0513 0.0
O413 O 0.0928 0.50343 0.96951 0.0
C414 C 0.51248 0.43436 0.07611 0.0
C415 C 0.51284 0.56937 0.07766 0.0
C416 C 0.515 0.43578 0.94113 0.0
C417 C 0.5151 0.57077 0.94274 0.0
C418 C 0.58235 0.50249 0.94272 0.0
C419 C 0.58094 0.50275 0.07739 0.0
C420 C 0.44692 0.50257 0.94116 0.0
C421 C 0.4456 0.50163 0.0761 0.0
C422 C 0.44578 0.56987 0.00849 0.0
C423 C 0.58129 0.57009 0.01156 0.0
C424 C 0.44564 0.43543 0.00695 0.0
C425 C 0.58114 0.43482 0.01073 0.0
Eu426 Eu 0.51331 0.50195 0.06174 0.0
O427 O 0.53828 0.52698 0.03443 0.0
O428 O 0.48859 0.47754 0.03339 0.0
Eu429 Eu 0.56666 0.50248 0.00995 0.0
Eu430 Eu 0.46077 0.50261 0.00876 0.0
O431 O 0.53831 0.4774 0.0339 0.0
O432 O 0.48857 0.52708 0.03406 0.0
Eu433 Eu 0.51359 0.44976 0.00873 0.0
Eu434 Eu 0.51367 0.55533 0.01006 0.0
O435 O 0.53883 0.478 0.98478 0.0
O436 O 0.53892 0.52767 0.98538 0.0
O437 O 0.4892 0.52763 0.98475 0.0
O438 O 0.48924 0.47819 0.98421 0.0
Eu439 Eu 0.51448 0.50319 0.95702 0.0
O440 O 0.51298 0.46077 0.08471 0.0
O441 O 0.51305 0.5427 0.08545 0.0
O442 O 0.51495 0.46245 0.93333 0.0
O443 O 0.51487 0.54437 0.93409 0.0
O444 O 0.59055 0.50205 0.96921 0.0
O445 O 0.58963 0.50302 0.05108 0.0
O446 O 0.43784 0.50251 0.96737 0.0
O447 O 0.4372 0.50176 0.04967 0.0
O448 O 0.47238 0.57831 0.00905 0.0
O449 O 0.55473 0.5786 0.01133 0.0
O450 O 0.47222 0.4269 0.00717 0.0
O451 O 0.55459 0.42638 0.00968 0.0
O452 O 0.47369 0.50294 0.93338 0.0
O453 O 0.55584 0.50321 0.9341 0.0
O454 O 0.47212 0.50182 0.08464 0.0
O455 O 0.55427 0.50205 0.08555 0.0
O456 O 0.51288 0.5783 0.05141 0.0
O457 O 0.51481 0.57894 0.96923 0.0
O458 O 0.51242 0.42617 0.04961 0.0
O459 O 0.5146 0.42684 0.96737 0.0
O460 O 0.58971 0.46128 0.01103 0.0
O461 O 0.58983 0.54363 0.01091 0.0
O462 O 0.43717 0.46186 0.00766 0.0
O463 O 0.43723 0.54345 0.00849 0.0
C464 C 0.0159 0.43451 0.57572 0.0
C465 C 0.01659 0.43595 0.44142 0.0
C466 C 0.01618 0.56932 0.57724 0.0
C467 C 0.0142 0.57083 0.44293 0.0
C468 C 0.94757 0.56996 0.51029 0.0
C469 C 0.94744 0.4354 0.50963 0.0
C470 C 0.08348 0.56988 0.51002 0.0
C471 C 0.08326 0.43525 0.50972 0.0
C472 C 0.08354 0.50311 0.44257 0.0
C473 C 0.94741 0.50228 0.44185 0.0
C474 C 0.08272 0.50284 0.57681 0.0
C475 C 0.94672 0.50277 0.57618 0.0
Eu476 Eu 0.01536 0.44998 0.50884 0.0
O477 O 0.99057 0.47808 0.48425 0.0
O478 O 0.03985 0.47773 0.53398 0.0
Eu479 Eu 0.96253 0.50266 0.50909 0.0
Eu480 Eu 0.06794 0.50258 0.50964 0.0
O481 O 0.99028 0.47762 0.53367 0.0
O482 O 0.04013 0.47818 0.48451 0.0
Eu483 Eu 0.0148 0.50218 0.56188 0.0
Eu484 Eu 0.01544 0.50312 0.4567 0.0
O485 O 0.99041 0.52728 0.53404 0.0
O486 O 0.9907 0.52764 0.48482 0.0
O487 O 0.04027 0.52763 0.48488 0.0
O488 O 0.03983 0.52706 0.53435 0.0
Eu489 Eu 0.01551 0.55537 0.5098 0.0
O490 O 0.01583 0.42619 0.54933 0.0
O491 O 0.01607 0.4273 0.4677 0.0
O492 O 0.01644 0.57799 0.55096 0.0
O493 O 0.01477 0.57914 0.46932 0.0
O494 O 0.93905 0.54354 0.50935 0.0
O495 O 0.93897 0.46184 0.5096 0.0
O496 O 0.09156 0.54331 0.50994 0.0
O497 O 0.09144 0.46178 0.51007 0.0
O498 O 0.05703 0.50377 0.43376 0.0
O499 O 0.97402 0.5025 0.43329 0.0
O500 O 0.05605 0.50264 0.58508 0.0
O501 O 0.97325 0.50229 0.58495 0.0
O502 O 0.05695 0.57867 0.5099 0.0
O503 O 0.97418 0.5784 0.51073 0.0
O504 O 0.05671 0.42656 0.50905 0.0
O505 O 0.97403 0.42691 0.50915 0.0
O506 O 0.01638 0.46243 0.43315 0.0
O507 O 0.0144 0.54443 0.43428 0.0
O508 O 0.01543 0.4609 0.58434 0.0
O509 O 0.01522 0.54284 0.58549 0.0
O510 O 0.93871 0.50299 0.54968 0.0
O511 O 0.93918 0.50239 0.46828 0.0
O512 O 0.09134 0.5027 0.5505 0.0
O513 O 0.09157 0.50241 0.46905 0.0
C514 C 0.51552 0.93389 0.57603 0.0
C515 C 0.51694 0.93561 0.44168 0.0
C516 C 0.51529 0.06942 0.57774 0.0
C517 C 0.51726 0.07108 0.44336 0.0
C518 C 0.44869 0.07018 0.50928 0.0
C519 C 0.44825 0.93514 0.50742 0.0
C520 C 0.584 0.07004 0.51093 0.0
C521 C 0.58348 0.93459 0.51018 0.0
C522 C 0.58498 1.00161 0.44352 0.0
C523 C 0.44949 0.00465 0.44175 0.0
C524 C 0.58297 1.00084 0.57796 0.0
C525 C 0.4479 1.00102 0.57628 0.0
Eu526 Eu 0.5159 0.95002 0.509 0.0
O527 O 0.49151 0.97821 0.4843 0.0
O528 O 0.54065 0.97753 0.53423 0.0
Eu529 Eu 0.46336 0.00259 0.50917 0.0
Eu530 Eu 0.56937 0.00236 0.51043 0.0
O531 O 0.49094 0.97752 0.5339 0.0
O532 O 0.5413 0.97815 0.48517 0.0
Eu533 Eu 0.51563 1.0018 0.56227 0.0
Eu534 Eu 0.51696 0.00319 0.45724 0.0
O535 O 0.49113 0.02697 0.53452 0.0
O536 O 0.4919 0.02743 0.48525 0.0
O537 O 0.54157 0.02749 0.48573 0.0
O538 O 0.54096 0.02685 0.53509 0.0
Eu539 Eu 0.51633 0.05504 0.51047 0.0
O540 O 0.5155 0.92608 0.54947 0.0
O541 O 0.51643 0.92692 0.46795 0.0
O542 O 0.51589 0.07811 0.55148 0.0
O543 O 0.51679 0.07893 0.46992 0.0
O544 O 0.44016 0.04371 0.50928 0.0
O545 O 0.43984 0.96165 0.50744 0.0
O546 O 0.59286 0.04364 0.51079 0.0
O547 O 0.5925 0.96093 0.5106 0.0
O548 O 0.55847 1.00229 0.43489 0.0
O549 O 0.47614 0.00413 0.43356 0.0
O550 O 0.55631 1.00112 0.58602 0.0
O551 O 0.47437 1.00122 0.58499 0.0
O552 O 0.55733 0.07811 0.51095 0.0
O553 O 0.47529 0.07858 0.50976 0.0
O554 O 0.55677 0.92667 0.50946 0.0
O555 O 0.4748 0.92664 0.50818 0.0
O556 O 0.51712 0.96223 0.43361 0.0
O557 O 0.51756 0.04471 0.43446 0.0
O558 O 0.51558 0.96023 0.58497 0.0
O559 O 0.51505 0.04281 0.58583 0.0
O560 O 0.43963 1.00143 0.54984 0.0
O561 O 0.4407 0.00419 0.46801 0.0
O562 O 0.59189 1.00134 0.55174 0.0
O563 O 0.59334 1.00176 0.46992 0.0
H564 H 0.19029 0.21273 0.48422 0.0
H565 H 0.23043 0.16514 0.54876 0.0
H566 H 0.15034 0.18086 0.48537 0.0
H567 H 0.19062 0.13355 0.55014 0.0
H568 H 0.13792 0.06272 0.51527 0.0
H569 H 0.17396 0.09816 0.51765 0.0
H570 H 0.11098 0.16241 0.51347 0.0
H571 H 0.07464 0.12692 0.51065 0.0
C572 C 0.19024 0.19584 0.49905 0.0
C573 C 0.21353 0.19112 0.51613 0.0
C574 C 0.16744 0.17759 0.49971 0.0
C575 C 0.16761 0.15443 0.51751 0.0
C576 C 0.1902 0.15081 0.53573 0.0
C577 C 0.21292 0.16894 0.53503 0.0
C578 C 0.13161 0.08435 0.51486 0.0
C579 C 0.10328 0.09187 0.5128 0.0
C580 C 0.15232 0.1047 0.51644 0.0
C581 C 0.14528 0.13308 0.516 0.0
C582 C 0.11703 0.1407 0.51373 0.0
C583 C 0.09623 0.12031 0.51222 0.0
H584 H 0.85069 0.21834 0.47131 0.0
H585 H 0.8033 0.17913 0.5366 0.0
H586 H 0.88208 0.17844 0.4697 0.0
H587 H 0.83497 0.13911 0.53523 0.0
H588 H 0.88872 0.06339 0.50991 0.0
H589 H 0.85309 0.09962 0.50712 0.0
H590 H 0.9178 0.1621 0.50217 0.0
H591 H 0.95333 0.1262 0.50448 0.0
C592 C 0.84689 0.20101 0.48514 0.0
C593 C 0.82486 0.20191 0.50433 0.0
C594 C 0.86489 0.17825 0.48431 0.0
C595 C 0.86128 0.15591 0.5027 0.0
C596 C 0.83822 0.15602 0.52077 0.0
C597 C 0.8201 0.17886 0.52155 0.0
C598 C 0.89538 0.08485 0.50818 0.0
C599 C 0.92397 0.09182 0.50737 0.0
C600 C 0.87493 0.10558 0.50668 0.0
C601 C 0.88265 0.13365 0.50418 0.0
C602 C 0.91118 0.1406 0.50355 0.0
C603 C 0.93158 0.11997 0.50512 0.0
H604 H 0.80313 0.82625 0.53482 0.0
H605 H 0.85007 0.78759 0.46884 0.0
H606 H 0.83472 0.86633 0.53355 0.0
H607 H 0.88137 0.82756 0.46733 0.0
H608 H 0.95292 0.87934 0.50242 0.0
H609 H 0.91731 0.84354 0.49978 0.0
H610 H 0.85275 0.90609 0.50575 0.0
H611 H 0.88847 0.94222 0.50885 0.0
C612 C 0.81979 0.82667 0.51963 0.0
C613 C 0.82447 0.80374 0.5022 0.0
C614 C 0.83787 0.84955 0.5189 0.0
C615 C 0.86081 0.84981 0.50068 0.0
C616 C 0.86429 0.82763 0.48205 0.0
C617 C 0.84633 0.80483 0.48283 0.0
C618 C 0.93119 0.88562 0.5032 0.0
C619 C 0.92365 0.91375 0.50584 0.0
C620 C 0.91074 0.86504 0.50144 0.0
C621 C 0.88223 0.87204 0.50228 0.0
C622 C 0.87458 0.90009 0.50515 0.0
C623 C 0.89508 0.92077 0.50683 0.0
H624 H 0.22509 0.83625 0.46229 0.0
H625 H 0.19311 0.79486 0.53505 0.0
H626 H 0.18533 0.86794 0.46291 0.0
H627 H 0.15315 0.82667 0.53567 0.0
H628 H 0.07458 0.8785 0.51351 0.0
H629 H 0.11057 0.84268 0.5098 0.0
H630 H 0.17271 0.90612 0.49498 0.0
H631 H 0.13698 0.94187 0.49832 0.0
C632 C 0.20937 0.83379 0.47827 0.0
C633 C 0.21235 0.81336 0.49885 0.0
C634 C 0.18669 0.85197 0.47867 0.0
C635 C 0.16643 0.85008 0.49962 0.0
C636 C 0.16844 0.82856 0.51924 0.0
C637 C 0.19125 0.81033 0.51886 0.0
C638 C 0.09591 0.88484 0.50941 0.0
C639 C 0.10284 0.91312 0.50615 0.0
C640 C 0.1165 0.86429 0.50741 0.0
C641 C 0.14436 0.87159 0.50187 0.0
C642 C 0.15131 0.89983 0.49879 0.0
C643 C 0.13082 0.92035 0.50095 0.0
H644 H 0.48937 0.17745 0.21955 0.0
H645 H 0.55547 0.21654 0.17278 0.0
H646 H 0.49035 0.13766 0.18784 0.0
H647 H 0.55672 0.17686 0.14136 0.0
H648 H 0.52104 0.12549 0.07039 0.0
H649 H 0.52378 0.16105 0.10591 0.0
H650 H 0.51828 0.09807 0.16943 0.0
H651 H 0.51509 0.06215 0.1338 0.0
C652 C 0.50452 0.17719 0.20288 0.0
C653 C 0.52208 0.20015 0.19832 0.0
C654 C 0.50509 0.15447 0.18474 0.0
C655 C 0.52327 0.15441 0.16184 0.0
C656 C 0.54201 0.17664 0.15843 0.0
C657 C 0.54139 0.19927 0.17645 0.0
C658 C 0.5204 0.11906 0.09187 0.0
C659 C 0.51788 0.09086 0.09914 0.0
C660 C 0.5222 0.1395 0.11227 0.0
C661 C 0.52153 0.13232 0.14047 0.0
C662 C 0.51875 0.10421 0.14785 0.0
C663 C 0.51702 0.08366 0.1274 0.0
H664 H 0.80316 0.54864 0.17425 0.0
H665 H 0.83642 0.47673 0.21652 0.0
H666 H 0.84263 0.54789 0.14234 0.0
H667 H 0.87605 0.47595 0.18448 0.0
H668 H 0.95414 0.49815 0.13268 0.0
H669 H 0.91806 0.50191 0.16817 0.0
H670 H 0.85595 0.5158 0.10473 0.0
H671 H 0.89183 0.51247 0.06926 0.0
C672 C 0.81907 0.53281 0.17683 0.0
C673 C 0.81658 0.51253 0.19762 0.0
C674 C 0.84159 0.53232 0.15852 0.0
C675 C 0.86215 0.51158 0.16063 0.0
C676 C 0.86054 0.49223 0.18241 0.0
C677 C 0.83792 0.4927 0.20077 0.0
C678 C 0.9328 0.50203 0.12625 0.0
C679 C 0.92594 0.50504 0.09804 0.0
C680 C 0.91214 0.50407 0.14662 0.0
C681 C 0.88425 0.50934 0.13924 0.0
C682 C 0.87737 0.51218 0.11108 0.0
C683 C 0.89794 0.51002 0.09072 0.0
H684 H 0.4888 0.79467 0.18692 0.0
H685 H 0.56079 0.83775 0.21977 0.0
H686 H 0.48849 0.82604 0.14698 0.0
H687 H 0.56052 0.86895 0.18002 0.0
H688 H 0.52463 0.9417 0.13095 0.0
H689 H 0.52788 0.9063 0.16655 0.0
H690 H 0.51509 0.84222 0.10511 0.0
H691 H 0.51142 0.87779 0.06915 0.0
C692 C 0.50489 0.81044 0.18528 0.0
C693 C 0.52458 0.81406 0.20659 0.0
C694 C 0.5047 0.82839 0.16247 0.0
C695 C 0.5242 0.85021 0.16066 0.0
C696 C 0.54485 0.85272 0.18119 0.0
C697 C 0.54504 0.83485 0.20389 0.0
C698 C 0.52242 0.92012 0.12488 0.0
C699 C 0.51776 0.91266 0.0971 0.0
C700 C 0.52454 0.89979 0.14532 0.0
C701 C 0.52201 0.87148 0.13857 0.0
C702 C 0.51705 0.8639 0.1109 0.0
C703 C 0.51507 0.8843 0.09032 0.0
H704 H 0.19304 0.52766 0.2185 0.0
H705 H 0.22491 0.45403 0.17808 0.0
H706 H 0.1535 0.52843 0.18631 0.0
H707 H 0.18554 0.45477 0.14601 0.0
H708 H 0.13889 0.49089 0.07146 0.0
H709 H 0.17401 0.48712 0.10767 0.0
H710 H 0.11098 0.50277 0.16979 0.0
H711 H 0.07567 0.50692 0.13357 0.0
C712 C 0.19119 0.51127 0.20319 0.0
C713 C 0.21216 0.49099 0.20051 0.0
C714 C 0.16865 0.51175 0.18474 0.0
C715 C 0.16678 0.49195 0.16336 0.0
C716 C 0.18682 0.47066 0.16188 0.0
C717 C 0.20925 0.47017 0.18028 0.0
C718 C 0.13243 0.49363 0.09279 0.0
C719 C 0.10441 0.49919 0.09955 0.0
C720 C 0.15254 0.49121 0.11357 0.0
C721 C 0.14515 0.4944 0.14156 0.0
C722 C 0.11725 0.50029 0.14837 0.0
C723 C 0.09705 0.50255 0.12759 0.0
H724 H 0.54112 0.82745 0.79945 0.0
H725 H 0.47405 0.78911 0.84549 0.0
H726 H 0.54012 0.86733 0.83104 0.0
H727 H 0.47282 0.82887 0.87681 0.0
H728 H 0.50846 0.87995 0.94811 0.0
H729 H 0.50566 0.84437 0.9126 0.0
H730 H 0.51225 0.90723 0.84907 0.0
H731 H 0.51551 0.94315 0.88468 0.0
C732 C 0.52575 0.8279 0.81592 0.0
C733 C 0.50792 0.80512 0.82032 0.0
C734 C 0.52518 0.85066 0.834 0.0
C735 C 0.50672 0.85095 0.85668 0.0
C736 C 0.48772 0.82891 0.85992 0.0
C737 C 0.48834 0.80624 0.84196 0.0
C738 C 0.50934 0.88634 0.92663 0.0
C739 C 0.51219 0.91451 0.91935 0.0
C740 C 0.50749 0.8659 0.90624 0.0
C741 C 0.50845 0.87304 0.87804 0.0
C742 C 0.51155 0.90112 0.87065 0.0
C743 C 0.51331 0.92167 0.89109 0.0
H744 H 0.18145 0.54807 0.79848 0.0
H745 H 0.2239 0.47581 0.83098 0.0
H746 H 0.15036 0.54825 0.83846 0.0
H747 H 0.19265 0.47596 0.87113 0.0
H748 H 0.1413 0.49911 0.94923 0.0
H749 H 0.17695 0.50254 0.91314 0.0
H750 H 0.11246 0.51629 0.85204 0.0
H751 H 0.07698 0.51326 0.88776 0.0
C752 C 0.18425 0.53236 0.81433 0.0
C753 C 0.2048 0.51169 0.81147 0.0
C754 C 0.16644 0.53243 0.83716 0.0
C755 C 0.16879 0.51185 0.85766 0.0
C756 C 0.19042 0.49213 0.85567 0.0
C757 C 0.2083 0.49206 0.83274 0.0
C758 C 0.13471 0.50292 0.92811 0.0
C759 C 0.10621 0.50594 0.92146 0.0
C760 C 0.15515 0.50478 0.90746 0.0
C761 C 0.14749 0.50992 0.87985 0.0
C762 C 0.11905 0.51281 0.87323 0.0
C763 C 0.09867 0.51082 0.89374 0.0
H764 H 0.46976 0.16812 0.79896 0.0
H765 H 0.54175 0.21106 0.83199 0.0
H766 H 0.4699 0.13689 0.83869 0.0
H767 H 0.54193 0.17966 0.87191 0.0
H768 H 0.51877 0.12768 0.94956 0.0
H769 H 0.51517 0.16337 0.91371 0.0
H770 H 0.50265 0.0995 0.85201 0.0
H771 H 0.50586 0.06396 0.88748 0.0
C772 C 0.48547 0.171 0.81488 0.0
C773 C 0.50599 0.19173 0.81224 0.0
C774 C 0.48559 0.15311 0.83756 0.0
C775 C 0.50622 0.15556 0.85813 0.0
C776 C 0.52574 0.17735 0.85638 0.0
C777 C 0.52563 0.19532 0.83359 0.0
C778 C 0.5152 0.12124 0.92835 0.0
C779 C 0.51256 0.09289 0.92146 0.0
C780 C 0.51325 0.1417 0.90785 0.0
C781 C 0.50838 0.13422 0.88014 0.0
C782 C 0.50591 0.10593 0.87327 0.0
C783 C 0.50801 0.08553 0.89364 0.0
H784 H 0.80499 0.45619 0.84365 0.0
H785 H 0.83745 0.5285 0.80148 0.0
H786 H 0.84469 0.45707 0.87529 0.0
H787 H 0.87732 0.52942 0.83327 0.0
H788 H 0.95557 0.50767 0.88563 0.0
H789 H 0.91974 0.50363 0.84983 0.0
H790 H 0.85723 0.48973 0.91285 0.0
H791 H 0.89279 0.49337 0.94857 0.0
C792 C 0.82081 0.47211 0.84101 0.0
C793 C 0.818 0.4925 0.82037 0.0
C794 C 0.84345 0.47267 0.85916 0.0
C795 C 0.86381 0.49361 0.85705 0.0
C796 C 0.86195 0.51301 0.83534 0.0
C797 C 0.8392 0.51246 0.81712 0.0
C798 C 0.93419 0.50373 0.89189 0.0
C799 C 0.92711 0.50079 0.92005 0.0
C800 C 0.91369 0.50153 0.87135 0.0
C801 C 0.88577 0.49612 0.87854 0.0
C802 C 0.87868 0.49341 0.90665 0.0
C803 C 0.89907 0.49576 0.92715 0.0
H804 H 0.72556 0.66913 0.05637 0.0
H805 H 0.69318 0.71 0.98347 0.0
H806 H 0.68589 0.6373 0.05606 0.0
H807 H 0.65335 0.67805 0.98314 0.0
H808 H 0.57497 0.62648 0.0053 0.0
H809 H 0.61097 0.66226 0.00893 0.0
H810 H 0.67295 0.59886 0.02467 0.0
H811 H 0.63715 0.56314 0.02147 0.0
C812 C 0.70979 0.67144 0.04042 0.0
C813 C 0.7126 0.69178 0.01974 0.0
C814 C 0.68715 0.65318 0.04019 0.0
C815 C 0.6668 0.6549 0.0193 0.0
C816 C 0.6687 0.67629 0.99954 0.0
C817 C 0.69143 0.69461 0.99976 0.0
C818 C 0.59626 0.62013 0.0096 0.0
C819 C 0.60313 0.59187 0.01312 0.0
C820 C 0.61687 0.64066 0.01155 0.0
C821 C 0.6447 0.63337 0.01728 0.0
C822 C 0.65157 0.60516 0.02069 0.0
C823 C 0.63106 0.58465 0.01859 0.0
H824 H 0.30307 0.679 0.03617 0.0
H825 H 0.35128 0.71868 0.97175 0.0
H826 H 0.33473 0.63896 0.03487 0.0
H827 H 0.38266 0.67879 0.97023 0.0
H828 H 0.45342 0.62614 0.00532 0.0
H829 H 0.41796 0.66211 1.00305 0.0
H830 H 0.35313 0.59967 0.00647 0.0
H831 H 0.38868 0.56334 0.00918 0.0
C832 C 0.32006 0.67885 0.02134 0.0
C833 C 0.32503 0.70202 1.00435 0.0
C834 C 0.33817 0.65599 0.02059 0.0
C835 C 0.36145 0.656 1.00279 0.0
C836 C 0.3653 0.67849 0.98463 0.0
C837 C 0.34731 0.70126 0.98543 0.0
C838 C 0.43165 0.61992 0.00561 0.0
C839 C 0.42399 0.59175 0.0074 0.0
C840 C 0.4113 0.6406 1.00409 0.0
C841 C 0.38276 0.63368 1.0043 0.0
C842 C 0.37498 0.60559 0.00636 0.0
C843 C 0.39539 0.58481 0.00781 0.0
H844 H 0.34984 0.28757 0.96884 0.0
H845 H 0.30319 0.32646 0.03488 0.0
H846 H 0.38121 0.32748 0.96713 0.0
H847 H 0.33485 0.36647 0.03343 0.0
H848 H 0.38861 0.44219 0.00868 0.0
H849 H 0.35284 0.40612 0.00562 0.0
H850 H 0.41729 0.34349 0.99933 0.0
H851 H 0.45297 0.37924 1.00192 0.0
C852 C 0.34618 0.30484 0.98281 0.0
C853 C 0.32438 0.30385 1.00224 0.0
C854 C 0.36417 0.32761 0.98191 0.0
C855 C 0.3608 0.34984 1.0005 0.0
C856 C 0.33792 0.34965 0.01881 0.0
C857 C 0.3198 0.32681 0.01964 0.0
C858 C 0.39519 0.42073 0.00658 0.0
C859 C 0.42375 0.41368 0.00549 0.0
C860 C 0.37466 0.40009 1.00492 0.0
C861 C 0.38226 0.37203 1.002 0.0
C862 C 0.41076 0.365 1.00104 0.0
C863 C 0.43124 0.38554 1.00276 0.0
H864 H 0.72556 0.33559 0.05431 0.0
H865 H 0.69277 0.2949 0.98145 0.0
H866 H 0.68579 0.3673 0.05446 0.0
H867 H 0.65283 0.32675 0.98155 0.0
H868 H 0.57464 0.37843 1.00442 0.0
H869 H 0.61058 0.34256 0.00771 0.0
H870 H 0.67281 0.4058 0.02315 0.0
H871 H 0.6371 0.4416 0.02026 0.0
C872 C 0.70966 0.33329 0.03848 0.0
C873 C 0.71239 0.31305 0.01766 0.0
C874 C 0.68697 0.35148 0.03851 0.0
C875 C 0.6665 0.3498 0.01773 0.0
C876 C 0.66829 0.32847 0.99786 0.0
C877 C 0.69108 0.31022 0.99783 0.0
C878 C 0.59597 0.38472 0.00858 0.0
C879 C 0.60293 0.41297 0.01213 0.0
C880 C 0.61655 0.36414 0.01034 0.0
C881 C 0.64443 0.37136 0.0159 0.0
C882 C 0.65139 0.39956 0.01932 0.0
C883 C 0.63092 0.42012 0.01741 0.0
H884 H 0.98878 0.67996 0.71757 0.0
H885 H 0.06063 0.71345 0.67493 0.0
H886 H 0.98843 0.64017 0.68587 0.0
H887 H 0.06036 0.67384 0.64341 0.0
H888 H 0.0244 0.62518 0.57045 0.0
H889 H 0.02766 0.66066 0.60607 0.0
H890 H 0.015 0.59839 0.66927 0.0
H891 H 0.01134 0.5626 0.63354 0.0
C892 C 0.00485 0.67847 0.70183 0.0
C893 C 0.0245 0.69992 0.69842 0.0
C894 C 0.00463 0.65576 0.68369 0.0
C895 C 0.02407 0.6542 0.66189 0.0
C896 C 0.04472 0.67483 0.65962 0.0
C897 C 0.04494 0.69743 0.67769 0.0
C898 C 0.02223 0.61891 0.59188 0.0
C899 C 0.01762 0.59095 0.59905 0.0
C900 C 0.02435 0.63927 0.61233 0.0
C901 C 0.02186 0.63224 0.64046 0.0
C902 C 0.01692 0.60439 0.64773 0.0
C903 C 0.01493 0.58392 0.62724 0.0
H904 H 0.30303 0.95723 0.6743 0.0
H905 H 0.33647 0.02936 0.71615 0.0
H906 H 0.34244 0.95771 0.64233 0.0
H907 H 0.37607 0.02985 0.68405 0.0
H908 H 0.45412 0.00673 0.63248 0.0
H909 H 0.41799 0.00347 0.66794 0.0
H910 H 0.35584 0.98964 0.60451 0.0
H911 H 0.3918 0.99249 0.56904 0.0
C912 C 0.31897 0.97305 0.67677 0.0
C913 C 0.31654 0.99347 0.69747 0.0
C914 C 0.34145 0.97338 0.65843 0.0
C915 C 0.36205 0.9941 0.66041 0.0
C916 C 0.36051 0.01359 0.68209 0.0
C917 C 0.33792 0.01328 0.70048 0.0
C918 C 0.43276 0.00294 0.62604 0.0
C919 C 0.42591 0.99979 0.59784 0.0
C920 C 0.41208 1.00121 0.6464 0.0
C921 C 0.38416 0.9961 0.63901 0.0
C922 C 0.37728 0.99314 0.61086 0.0
C923 C 0.39789 0.99502 0.5905 0.0
H924 H 0.98853 0.29268 0.68479 0.0
H925 H 0.05494 0.33996 0.72294 0.0
H926 H 0.98935 0.32412 0.64488 0.0
H927 H 0.05594 0.37115 0.68319 0.0
H928 H 0.02003 0.4419 0.63169 0.0
H929 H 0.02264 0.40655 0.66736 0.0
H930 H 0.01748 0.34219 0.60511 0.0
H931 H 0.01444 0.37769 0.56905 0.0
C932 C 0.0037 0.30941 0.68432 0.0
C933 C 0.0214 0.31419 0.70705 0.0
C934 C 0.00416 0.32739 0.66154 0.0
C935 C 0.02238 0.35036 0.66117 0.0
C936 C 0.04122 0.35402 0.68319 0.0
C937 C 0.04072 0.33615 0.70589 0.0
C938 C 0.01941 0.42026 0.62543 0.0
C939 C 0.01707 0.41272 0.59739 0.0
C940 C 0.02115 0.39997 0.64594 0.0
C941 C 0.02057 0.37159 0.639 0.0
C942 C 0.0179 0.36392 0.61105 0.0
C943 C 0.01626 0.38428 0.59042 0.0
H944 H 0.72913 0.96111 0.67575 0.0
H945 H 0.69024 0.02826 0.72094 0.0
H946 H 0.68956 0.95979 0.64395 0.0
H947 H 0.65056 0.02719 0.68886 0.0
H948 H 0.57519 0.00291 0.63426 0.0
H949 H 0.61069 0.99952 0.67036 0.0
H950 H 0.6748 0.99253 0.60777 0.0
H951 H 0.63956 0.99547 0.5717 0.0
C952 C 0.71188 0.97535 0.67903 0.0
C953 C 0.7128 0.99502 0.70052 0.0
C954 C 0.68933 0.9747 0.66078 0.0
C955 C 0.66727 0.99375 0.66361 0.0
C956 C 0.66728 0.01223 0.68622 0.0
C957 C 0.68991 0.01283 0.70458 0.0
C958 C 0.59685 1.00061 0.62814 0.0
C959 C 0.60447 0.99943 0.59999 0.0
C960 C 0.61716 0.99876 0.64888 0.0
C961 C 0.64545 0.99553 0.64189 0.0
C962 C 0.65308 0.9945 0.6138 0.0
C963 C 0.63285 0.99643 0.5931 0.0
H964 H 0.98922 0.32752 0.29943 0.0
H965 H 0.056 0.2889 0.34568 0.0
H966 H 0.99012 0.36727 0.33118 0.0
H967 H 0.05712 0.32853 0.37717 0.0
H968 H 0.02151 0.37971 0.44841 0.0
H969 H 0.02426 0.34411 0.41289 0.0
H970 H 0.01799 0.40702 0.34935 0.0
H971 H 0.01477 0.44292 0.38496 0.0
C972 C 0.0045 0.32788 0.31598 0.0
C973 C 0.02228 0.30506 0.32039 0.0
C974 C 0.00502 0.35057 0.33416 0.0
C975 C 0.02336 0.35074 0.35694 0.0
C976 C 0.0423 0.32866 0.3602 0.0
C977 C 0.04175 0.30606 0.34214 0.0
C978 C 0.02067 0.3861 0.42692 0.0
C979 C 0.01793 0.41427 0.41963 0.0
C980 C 0.0225 0.36565 0.40652 0.0
C981 C 0.02162 0.37281 0.37832 0.0
C982 C 0.01862 0.4009 0.37093 0.0
C983 C 0.01688 0.42144 0.39138 0.0
H984 H 0.68119 0.9569 0.29862 0.0
H985 H 0.72432 0.02893 0.33083 0.0
H986 H 0.65032 0.95703 0.33877 0.0
H987 H 0.6933 0.02908 0.37115 0.0
H988 H 0.64198 0.00641 0.44953 0.0
H989 H 0.67753 0.00261 0.41333 0.0
H990 H 0.61277 0.98947 0.35238 0.0
H991 H 0.57741 0.99286 0.38816 0.0
C992 C 0.68418 0.97263 0.31443 0.0
C993 C 0.70487 0.99315 0.31144 0.0
C994 C 0.66651 0.97273 0.33737 0.0
C995 C 0.66913 0.99334 0.35784 0.0
C996 C 0.69087 0.01289 0.35572 0.0
C997 C 0.70862 0.0128 0.33268 0.0
C998 C 0.63533 0.00266 0.42841 0.0
C999 C 0.60678 0.99994 0.42181 0.0
C1000 C 0.6557 1.00059 0.4077 0.0
C1001 C 0.64792 0.9955 0.3801 0.0
C1002 C 0.61944 0.99291 0.37355 0.0
C1003 C 0.59913 0.99512 0.3941 0.0
H1004 H 0.97014 0.6677 0.29864 0.0
H1005 H 0.04167 0.71108 0.33208 0.0
H1006 H 0.97032 0.63639 0.3383 0.0
H1007 H 0.04189 0.67959 0.37193 0.0
H1008 H 0.0186 0.62748 0.44944 0.0
H1009 H 0.01503 0.66313 0.41356 0.0
H1010 H 0.00316 0.59918 0.35182 0.0
H1011 H 0.00634 0.56366 0.38733 0.0
C1012 C 0.98576 0.67065 0.31463 0.0
C1013 C 0.00614 0.69154 0.31213 0.0
C1014 C 0.9859 0.65271 0.33728 0.0
C1015 C 0.00641 0.65527 0.35794 0.0
C1016 C 0.02579 0.6772 0.35633 0.0
C1017 C 0.02566 0.69522 0.33357 0.0
C1018 C 0.01519 0.621 0.42822 0.0
C1019 C 0.01271 0.59264 0.42133 0.0
C1020 C 0.01326 0.64145 0.40769 0.0
C1021 C 0.00857 0.63393 0.37997 0.0
C1022 C 0.00628 0.60563 0.3731 0.0
C1023 C 0.00835 0.58524 0.39349 0.0
H1024 H 0.33813 0.9771 0.30181 0.0
H1025 H 0.30503 0.0494 0.3436 0.0
H1026 H 0.37815 0.9769 0.33345 0.0
H1027 H 0.34488 0.04926 0.37507 0.0
H1028 H 0.39349 0.01376 0.44847 0.0
H1029 H 0.35788 0.01711 0.4128 0.0
H1030 H 0.42035 0.00319 0.34973 0.0
H1031 H 0.45625 0.99945 0.38549 0.0
C1032 C 0.33977 0.9933 0.31734 0.0
C1033 C 0.31835 0.01304 0.32054 0.0
C1034 C 0.36261 0.99317 0.33546 0.0
C1035 C 0.36434 0.01278 0.35701 0.0
C1036 C 0.34375 0.0335 0.35906 0.0
C1037 C 0.32102 0.03364 0.34101 0.0
C1038 C 0.39977 0.01134 0.42705 0.0
C1039 C 0.42781 0.00633 0.41992 0.0
C1040 C 0.37934 0.01351 0.40657 0.0
C1041 C 0.38639 0.01066 0.37846 0.0
C1042 C 0.41433 0.00539 0.37124 0.0
C1043 C 0.43487 0.00337 0.39176 0.0
H1044 H 0.04087 0.17926 0.29885 0.0
H1045 H 0.97734 0.21976 0.34783 0.0
H1046 H 0.04071 0.13985 0.33113 0.0
H1047 H 0.97685 0.18056 0.37974 0.0
H1048 H 0.01063 0.12736 0.4499 0.0
H1049 H 0.00886 0.16334 0.41464 0.0
H1050 H 0.0137 0.10078 0.3506 0.0
H1051 H 0.01596 0.06457 0.38592 0.0
C1052 C 0.02646 0.17942 0.31615 0.0
C1053 C 0.00936 0.20268 0.32101 0.0
C1054 C 0.02639 0.15692 0.33468 0.0
C1055 C 0.00915 0.15729 0.35835 0.0
C1056 C 0.99093 0.1799 0.36218 0.0
C1057 C 0.99106 0.20228 0.34379 0.0
C1058 C 0.01137 0.12114 0.42835 0.0
C1059 C 0.01338 0.09292 0.4209 0.0
C1060 C 0.01014 0.14184 0.40806 0.0
C1061 C 0.01087 0.13497 0.37973 0.0
C1062 C 0.01324 0.10681 0.37221 0.0
C1063 C 0.0144 0.08604 0.39254 0.0
H1064 H 0.85527 0.04087 0.28973 0.0
H1065 H 0.80592 0.97675 0.32844 0.0
H1066 H 0.88722 0.04088 0.32933 0.0
H1067 H 0.83808 0.97623 0.36806 0.0
H1068 H 0.88922 1.00192 0.44533 0.0
H1069 H 0.85504 0.00399 0.40772 0.0
H1070 H 0.92218 0.00965 0.34821 0.0
H1071 H 0.95615 0.00806 0.38538 0.0
C1072 C 0.85134 0.02683 0.30685 0.0
C1073 C 0.82842 0.00876 0.30625 0.0
C1074 C 0.86964 0.02669 0.32943 0.0
C1075 C 0.86533 0.00841 0.35181 0.0
C1076 C 0.84187 0.99072 0.35131 0.0
C1077 C 0.82358 0.99087 0.32865 0.0
C1078 C 0.8967 0.00366 0.42424 0.0
C1079 C 0.92553 0.00488 0.41853 0.0
C1080 C 0.87708 0.00471 0.40267 0.0
C1081 C 0.88587 0.00716 0.37496 0.0
C1082 C 0.91465 0.00826 0.36932 0.0
C1083 C 0.93419 0.00713 0.39076 0.0
H1084 H 0.04605 0.7932 0.33225 0.0
H1085 H 0.98617 0.84331 0.28802 0.0
H1086 H 0.04478 0.82612 0.37112 0.0
H1087 H 0.98429 0.87598 0.32685 0.0
H1088 H 0.01344 0.94477 0.38487 0.0
H1089 H 0.01395 0.91056 0.34793 0.0
H1090 H 0.0153 0.84437 0.40835 0.0
H1091 H 0.0153 0.87874 0.44564 0.0
C1092 C 0.03248 0.81121 0.33105 0.0
C1093 C 0.0163 0.81598 0.30731 0.0
C1094 C 0.0316 0.82996 0.3533 0.0
C1095 C 0.01455 0.85384 0.3521 0.0
C1096 C 0.99801 0.85812 0.32833 0.0
C1097 C 0.99892 0.83938 0.30616 0.0
C1098 C 0.01384 0.92296 0.39046 0.0
C1099 C 0.0143 0.91466 0.41842 0.0
C1100 C 0.01394 0.90327 0.36916 0.0
C1101 C 0.0145 0.87465 0.37509 0.0
C1102 C 0.0151 0.86625 0.40301 0.0
C1103 C 0.01494 0.886 0.42441 0.0
H1104 H 0.22692 0.0476 0.34389 0.0
H1105 H 0.19541 0.9742 0.30285 0.0
H1106 H 0.18747 0.04663 0.37572 0.0
H1107 H 0.15559 0.97326 0.33485 0.0
H1108 H 0.07638 0.99639 0.3862 0.0
H1109 H 0.11275 0.99888 0.35078 0.0
H1110 H 0.17431 0.01545 0.41409 0.0
H1111 H 0.13817 0.01326 0.44943 0.0
C1112 C 0.2114 0.03135 0.34156 0.0
C1113 C 0.21448 0.01074 0.32109 0.0
C1114 C 0.18885 0.03074 0.35987 0.0
C1115 C 0.16867 0.00958 0.35816 0.0
C1116 C 0.1708 0.98985 0.33669 0.0
C1117 C 0.19353 0.99042 0.31831 0.0
C1118 C 0.09766 1.0006 0.39261 0.0
C1119 C 0.10425 0.00474 0.42076 0.0
C1120 C 0.11852 1.00187 0.37227 0.0
C1121 C 0.14637 0.00757 0.37957 0.0
C1122 C 0.15297 0.01146 0.4077 0.0
C1123 C 0.13222 0.01 0.42803 0.0
H1124 H 0.05851 0.79096 0.67486 0.0
H1125 H 0.98501 0.82207 0.71648 0.0
H1126 H 0.05687 0.82994 0.64275 0.0
H1127 H 0.98338 0.86143 0.68416 0.0
H1128 H 0.00555 0.94014 0.63202 0.0
H1129 H 0.00829 0.90412 0.66757 0.0
H1130 H 0.02545 0.84275 0.60452 0.0
H1131 H 0.02302 0.87857 0.56903 0.0
C1132 C 0.04209 0.8063 0.67727 0.0
C1133 C 0.02167 0.80322 0.698 0.0
C1134 C 0.04108 0.82858 0.65877 0.0
C1135 C 0.01968 0.84852 0.66051 0.0
C1136 C 0.00014 0.84641 0.68225 0.0
C1137 C 0.00112 0.82395 0.70082 0.0
C1138 C 0.00991 0.91897 0.62568 0.0
C1139 C 0.01417 0.91237 0.59754 0.0
C1140 C 0.01133 0.8983 0.64611 0.0
C1141 C 0.01731 0.87059 0.63895 0.0
C1142 C 0.02126 0.86397 0.61082 0.0
C1143 C 0.01965 0.88453 0.5904 0.0
H1144 H 0.19392 0.03147 0.71661 0.0
H1145 H 0.2249 0.9573 0.67659 0.0
H1146 H 0.15389 0.03204 0.68481 0.0
H1147 H 0.18521 0.95785 0.645 0.0
H1148 H 0.13694 0.9912 0.57062 0.0
H1149 H 0.17272 0.98896 0.60628 0.0
H1150 H 0.11076 0.0064 0.66894 0.0
H1151 H 0.07469 0.00893 0.63314 0.0
C1152 C 0.19184 0.01498 0.70145 0.0
C1153 C 0.21271 0.99456 0.69884 0.0
C1154 C 0.169 0.01533 0.6832 0.0
C1155 C 0.1667 0.99529 0.66204 0.0
C1156 C 0.18673 0.97398 0.66061 0.0
C1157 C 0.2094 0.9736 0.67879 0.0
C1158 C 0.13081 0.99463 0.59194 0.0
C1159 C 0.10282 1.00016 0.59891 0.0
C1160 C 0.15135 0.99313 0.61245 0.0
C1161 C 0.14454 0.99725 0.64049 0.0
C1162 C 0.11667 0.0032 0.64752 0.0
C1163 C 0.096 0.0045 0.62697 0.0
H1164 H 0.98055 0.16167 0.72969 0.0
H1165 H 0.04131 0.21229 0.6873 0.0
H1166 H 0.98018 0.12896 0.69086 0.0
H1167 H 0.04153 0.17935 0.64841 0.0
H1168 H 0.01431 0.12658 0.57297 0.0
H1169 H 0.01327 0.1609 0.6103 0.0
H1170 H 0.01065 0.09461 0.67056 0.0
H1171 H 0.01118 0.06045 0.63356 0.0
C1172 C 0.99381 0.16571 0.71195 0.0
C1173 C 0.01098 0.18929 0.71132 0.0
C1174 C 0.99377 0.14694 0.68978 0.0
C1175 C 0.01098 0.15136 0.66651 0.0
C1176 C 0.02784 0.17539 0.66583 0.0
C1177 C 0.02787 0.19417 0.6881 0.0
C1178 C 0.01346 0.11929 0.59417 0.0
C1179 C 0.01274 0.09061 0.60009 0.0
C1180 C 0.01302 0.13901 0.61561 0.0
C1181 C 0.01173 0.13058 0.64349 0.0
C1182 C 0.01116 0.10193 0.64936 0.0
C1183 C 0.01165 0.08227 0.62802 0.0
H1184 H 0.83882 0.97757 0.72072 0.0
H1185 H 0.79793 0.04128 0.67256 0.0
H1186 H 0.87796 0.97752 0.68793 0.0
H1187 H 0.83693 0.0416 0.64011 0.0
H1188 H 0.88884 0.00658 0.56924 0.0
H1189 H 0.85319 0.00907 0.60502 0.0
H1190 H 0.91697 0.00448 0.66819 0.0
H1191 H 0.95278 1.00148 0.63246 0.0
C1192 C 0.83857 0.99201 0.7035 0.0
C1193 C 0.81531 0.00921 0.69895 0.0
C1194 C 0.86088 0.99196 0.6847 0.0
C1195 C 0.86027 0.00919 0.66113 0.0
C1196 C 0.83771 0.02756 0.65764 0.0
C1197 C 0.81548 0.02753 0.6763 0.0
C1198 C 0.89537 0.00604 0.59072 0.0
C1199 C 0.92378 0.00387 0.59785 0.0
C1200 C 0.8749 0.00768 0.61127 0.0
C1201 C 0.88227 0.00722 0.63948 0.0
C1202 C 0.9106 0.00473 0.64667 0.0
C1203 C 0.93113 0.00313 0.6261 0.0
H1204 H 0.33858 0.97223 0.21983 0.0
H1205 H 0.29285 0.03 0.16882 0.0
H1206 H 0.37753 0.97309 0.18674 0.0
H1207 H 0.33176 0.0315 0.13598 0.0
H1208 H 0.39018 1.00182 0.06783 0.0
H1209 H 0.35315 1.00152 0.10212 0.0
H1210 H 0.41462 0.00233 0.16765 0.0
H1211 H 0.45201 1.00211 0.13321 0.0
C1212 C 0.33707 0.98525 0.20157 0.0
C1213 C 0.3129 1.00096 0.19661 0.0
C1214 C 0.35936 0.9859 0.18272 0.0
C1215 C 0.35777 1.00225 0.15856 0.0
C1216 C 0.33355 0.01832 0.15407 0.0
C1217 C 0.31134 0.01763 0.17291 0.0
C1218 C 0.39598 1.00195 0.08951 0.0
C1219 C 0.42426 1.00203 0.09761 0.0
C1220 C 0.37462 1.00196 0.10925 0.0
C1221 C 0.38082 1.00209 0.13771 0.0
C1222 C 0.40906 1.002 0.14591 0.0
C1223 C 0.43053 1.00201 0.12611 0.0
H1224 H 0.9804 0.28259 0.16892 0.0
H1225 H 0.04296 0.32411 0.2181 0.0
H1226 H 0.98043 0.32135 0.1361 0.0
H1227 H 0.04356 0.36291 0.18506 0.0
H1228 H 0.017 0.43896 0.13277 0.0
H1229 H 0.01569 0.40165 0.16705 0.0
H1230 H 0.0109 0.3409 0.10129 0.0
H1231 H 0.01172 0.37793 0.06714 0.0
C1232 C 0.99415 0.30012 0.17262 0.0
C1233 C 0.0117 0.30053 0.19583 0.0
C1234 C 0.99434 0.32224 0.15378 0.0
C1235 C 0.01215 0.34524 0.15778 0.0
C1236 C 0.02941 0.3457 0.18144 0.0
C1237 C 0.02921 0.32349 0.20027 0.0
C1238 C 0.01562 0.41766 0.12558 0.0
C1239 C 0.01439 0.41161 0.09706 0.0
C1240 C 0.01503 0.39623 0.14529 0.0
C1241 C 0.01306 0.36822 0.13699 0.0
C1242 C 0.01196 0.36222 0.1085 0.0
C1243 C 0.01262 0.38356 0.08884 0.0
H1244 H 0.68084 0.95772 0.22091 0.0
H1245 H 0.72282 0.03058 0.18924 0.0
H1246 H 0.64921 0.95824 0.18138 0.0
H1247 H 0.691 0.03111 0.14944 0.0
H1248 H 0.63959 0.00808 0.07091 0.0
H1249 H 0.67519 0.00528 0.10712 0.0
H1250 H 0.61086 0.98944 0.16783 0.0
H1251 H 0.57541 0.99186 0.13192 0.0
C1252 C 0.6834 0.97376 0.20536 0.0
C1253 C 0.70406 0.99434 0.20837 0.0
C1254 C 0.66524 0.9741 0.18276 0.0
C1255 C 0.66728 0.995 0.16254 0.0
C1256 C 0.68894 0.0147 0.16467 0.0
C1257 C 0.70718 0.01438 0.1874 0.0
C1258 C 0.63302 0.00394 0.09197 0.0
C1259 C 0.60455 1.00013 0.09841 0.0
C1260 C 0.65345 0.00249 0.11272 0.0
C1261 C 0.64588 0.99693 0.14029 0.0
C1262 C 0.61744 0.99329 0.14671 0.0
C1263 C 0.59706 0.99491 0.12608 0.0
H1264 H 0.04478 0.71008 0.19015 0.0
H1265 H 0.97183 0.66771 0.22161 0.0
H1266 H 0.04597 0.67805 0.15057 0.0
H1267 H 0.97303 0.63589 0.1824 0.0
H1268 H 0.00692 0.56246 0.1331 0.0
H1269 H 0.0047 0.59783 0.16903 0.0
H1270 H 0.02035 0.66172 0.10818 0.0
H1271 H 0.02289 0.62626 0.07199 0.0
C1272 C 0.02871 0.69431 0.18832 0.0
C1273 C 0.00845 0.69118 0.20919 0.0
C1274 C 0.02942 0.67593 0.16572 0.0
C1275 C 0.00991 0.65408 0.16364 0.0
C1276 C 0.98879 0.65202 0.18374 0.0
C1277 C 0.98804 0.67033 0.20616 0.0
C1278 C 0.00999 0.584 0.12725 0.0
C1279 C 0.015 0.5914 0.09952 0.0
C1280 C 0.0085 0.60434 0.14789 0.0
C1281 C 0.01209 0.63265 0.14144 0.0
C1282 C 0.01758 0.6401 0.11383 0.0
C1283 C 0.01889 0.61973 0.09308 0.0
H1284 H 0.33825 0.03428 0.79894 0.0
H1285 H 0.29338 0.97525 0.84924 0.0
H1286 H 0.37735 0.03336 0.8319 0.0
H1287 H 0.33242 0.9737 0.88194 0.0
H1288 H 0.39039 0.00333 0.95043 0.0
H1289 H 0.35338 0.00366 0.91612 0.0
H1290 H 0.41486 0.00423 0.85063 0.0
H1291 H 0.45225 0.00442 0.88511 0.0
C1292 C 0.33696 0.02096 0.817 0.0
C1293 C 0.31299 0.00492 0.82182 0.0
C1294 C 0.35934 0.02028 0.83577 0.0
C1295 C 0.358 0.00358 0.85971 0.0
C1296 C 0.334 0.98716 0.86403 0.0
C1297 C 0.31172 0.98787 0.84527 0.0
C1298 C 0.39621 0.00352 0.92875 0.0
C1299 C 0.42449 0.00379 0.92068 0.0
C1300 C 0.37486 0.00352 0.90901 0.0
C1301 C 0.38106 0.00377 0.88055 0.0
C1302 C 0.40931 0.00425 0.87237 0.0
C1303 C 0.43077 0.00422 0.89218 0.0
H1304 H 0.97808 0.34223 0.79264 0.0
H1305 H 0.04113 0.29194 0.83235 0.0
H1306 H 0.97812 0.37397 0.83195 0.0
H1307 H 0.04145 0.32404 0.8719 0.0
H1308 H 0.01718 0.37895 0.94746 0.0
H1309 H 0.0146 0.3437 0.91111 0.0
H1310 H 0.01073 0.40846 0.84929 0.0
H1311 H 0.01284 0.44361 0.88536 0.0
C1312 C 0.99184 0.33788 0.80994 0.0
C1313 C 0.00984 0.31478 0.80928 0.0
C1314 C 0.99198 0.35616 0.83241 0.0
C1315 C 0.01019 0.35191 0.85486 0.0
C1316 C 0.02714 0.32792 0.85495 0.0
C1317 C 0.02694 0.3095 0.83236 0.0
C1318 C 0.01577 0.38573 0.92612 0.0
C1319 C 0.01512 0.41427 0.91947 0.0
C1320 C 0.01443 0.36545 0.90526 0.0
C1321 C 0.01221 0.3732 0.87728 0.0
C1322 C 0.01188 0.4017 0.87065 0.0
C1323 C 0.01331 0.42193 0.89142 0.0
H1324 H 0.7358 0.97051 0.84952 0.0
H1325 H 0.69488 0.03502 0.80266 0.0
H1326 H 0.69616 0.96886 0.88152 0.0
H1327 H 0.65525 0.03397 0.83492 0.0
H1328 H 0.57837 0.00611 0.88552 0.0
H1329 H 0.61602 0.00527 0.85132 0.0
H1330 H 0.67677 0.99859 0.91717 0.0
H1331 H 0.63953 0.9989 0.95116 0.0
C1332 C 0.71819 0.98429 0.84616 0.0
C1333 C 0.71818 0.00295 0.82394 0.0
C1334 C 0.69559 0.9835 0.86449 0.0
C1335 C 0.67259 1.00144 0.86091 0.0
C1336 C 0.67248 0.01972 0.83814 0.0
C1337 C 0.69515 0.02048 0.8198 0.0
C1338 C 0.59974 0.0044 0.89272 0.0
C1339 C 0.60578 0.00256 0.92119 0.0
C1340 C 0.62134 0.00406 0.87309 0.0
C1341 C 0.64941 1.00173 0.88149 0.0
C1342 C 0.65538 0.99993 0.90992 0.0
C1343 C 0.63391 1.00033 0.92948 0.0
H1344 H 0.04519 0.72382 0.8491 0.0
H1345 H 0.98327 0.68019 0.80096 0.0
H1346 H 0.0469 0.68517 0.88202 0.0
H1347 H 0.98436 0.64152 0.83412 0.0
H1348 H 0.01316 0.56646 0.88627 0.0
H1349 H 0.0132 0.60367 0.85189 0.0
H1350 H 0.018 0.66469 0.9174 0.0
H1351 H 0.01849 0.62775 0.95165 0.0
C1352 C 0.03196 0.70584 0.84565 0.0
C1353 C 0.01408 0.70483 0.8227 0.0
C1354 C 0.03276 0.68378 0.86455 0.0
C1355 C 0.01562 0.66022 0.8609 0.0
C1356 C 0.99803 0.65916 0.83749 0.0
C1357 C 0.99725 0.68131 0.81859 0.0
C1358 C 0.01429 0.5878 0.89339 0.0
C1359 C 0.01587 0.59393 0.92188 0.0
C1360 C 0.01415 0.60918 0.87362 0.0
C1361 C 0.0157 0.63726 0.88179 0.0
C1362 C 0.01724 0.64335 0.91025 0.0
C1363 C 0.01731 0.62204 0.92998 0.0
H1364 H 0.17245 0.28176 0.04443 0.0
H1365 H 0.22403 0.32166 0.98295 0.0
H1366 H 0.14087 0.3218 0.04441 0.0
H1367 H 0.19225 0.36177 0.98245 0.0
H1368 H 0.14072 0.43906 0.0095 0.0
H1369 H 0.17472 0.40106 0.01128 0.0
H1370 H 0.10723 0.34138 0.0119 0.0
H1371 H 0.07347 0.37883 0.01054 0.0
C1372 C 0.17693 0.29922 0.03095 0.0
C1373 C 0.20034 0.29886 0.01361 0.0
C1374 C 0.15888 0.32205 0.03082 0.0
C1375 C 0.16396 0.34488 0.01327 0.0
C1376 C 0.18789 0.34462 0.99634 0.0
C1377 C 0.20594 0.32169 0.99647 0.0
C1378 C 0.13314 0.41783 0.01002 0.0
C1379 C 0.10428 0.41213 0.00997 0.0
C1380 C 0.15264 0.39608 0.01093 0.0
C1381 C 0.14365 0.36823 0.01195 0.0
C1382 C 0.11486 0.3626 0.01165 0.0
C1383 C 0.09546 0.3842 0.01067 0.0
H1384 H 0.1771 0.72131 0.9752 0.0
H1385 H 0.22102 0.68477 0.04413 0.0
H1386 H 0.14595 0.68096 0.97325 0.0
H1387 H 0.18958 0.64443 0.04273 0.0
H1388 H 0.14094 0.56588 0.01574 0.0
H1389 H 0.17526 0.60363 0.01461 0.0
H1390 H 0.10869 0.66308 1.00248 0.0
H1391 H 0.07468 0.62584 1.00311 0.0
C1392 C 0.18001 0.7045 0.98987 0.0
C1393 C 0.20108 0.70593 0.00991 0.0
C1394 C 0.16219 0.6815 0.98888 0.0
C1395 C 0.16516 0.65958 0.00799 0.0
C1396 C 0.1869 0.66084 0.0276 0.0
C1397 C 0.20472 0.68391 0.02856 0.0
C1398 C 0.13365 0.587 0.01274 0.0
C1399 C 0.10498 0.59271 0.00955 0.0
C1400 C 0.15331 0.60862 0.01222 0.0
C1401 C 0.1447 0.63633 0.0083 0.0
C1402 C 0.11609 0.64195 0.00507 0.0
C1403 C 0.09652 0.62049 0.00569 0.0
H1404 H 0.35282 0.21898 0.04761 0.0
H1405 H 0.30297 0.17806 0.98518 0.0
H1406 H 0.38471 0.17948 0.04852 0.0
H1407 H 0.33521 0.13842 0.98575 0.0
H1408 H 0.39044 0.06347 0.01069 0.0
H1409 H 0.35477 0.09965 0.0135 0.0
H1410 H 0.41935 0.16241 0.01568 0.0
H1411 H 0.45495 0.12655 0.01336 0.0
C1412 C 0.34861 0.20136 0.03423 0.0
C1413 C 0.32567 0.20164 0.01608 0.0
C1414 C 0.36692 0.17883 0.03464 0.0
C1415 C 0.36278 0.15608 0.01683 0.0
C1416 C 0.33892 0.15563 0.99976 0.0
C1417 C 0.32046 0.17825 0.99943 0.0
C1418 C 0.39708 0.08499 0.0118 0.0
C1419 C 0.42567 0.09202 0.01191 0.0
C1420 C 0.37658 0.1057 0.0133 0.0
C1421 C 0.38423 0.13385 0.01506 0.0
C1422 C 0.41276 0.14086 0.0149 0.0
C1423 C 0.43321 0.12024 0.01337 0.0
H1424 H 0.80414 0.33558 0.0527 0.0
H1425 H 0.83486 0.29593 0.97843 0.0
H1426 H 0.8437 0.36747 0.05209 0.0
H1427 H 0.87473 0.32797 0.97784 0.0
H1428 H 0.95401 0.37917 1.00111 0.0
H1429 H 0.91784 0.34339 1.00357 0.0
H1430 H 0.85609 0.40652 0.02108 0.0
H1431 H 0.89201 0.44221 0.01894 0.0
C1432 C 0.81952 0.33356 0.03635 0.0
C1433 C 0.81621 0.31352 0.0154 0.0
C1434 C 0.84211 0.35187 0.03595 0.0
C1435 C 0.86204 0.35055 0.01464 0.0
C1436 C 0.8597 0.32946 0.99455 0.0
C1437 C 0.83695 0.31108 0.99492 0.0
C1438 C 0.93273 0.38546 0.00552 0.0
C1439 C 0.926 0.41364 0.00993 0.0
C1440 C 0.91201 0.36493 0.00678 0.0
C1441 C 0.88419 0.37211 0.01274 0.0
C1442 C 0.87744 0.40027 0.0169 0.0
C1443 C 0.89805 0.42078 0.01545 0.0
H1444 H 0.69388 0.79284 0.03371 0.0
H1445 H 0.73491 0.84249 0.97152 0.0
H1446 H 0.65448 0.82557 0.03428 0.0
H1447 H 0.69554 0.87501 0.97154 0.0
H1448 H 0.63945 0.9439 1.0046 0.0
H1449 H 0.6765 0.90955 1.00294 0.0
H1450 H 0.61529 0.84359 0.00636 0.0
H1451 H 0.57785 0.87812 0.00853 0.0
C1452 C 0.69422 0.81068 0.02001 0.0
C1453 C 0.71719 0.81542 1.00264 0.0
C1454 C 0.67169 0.82931 0.02019 0.0
C1455 C 0.67192 0.853 1.00306 0.0
C1456 C 0.69488 0.85723 0.9853 0.0
C1457 C 0.71732 0.8386 0.98513 0.0
C1458 C 0.6337 0.92212 0.00503 0.0
C1459 C 0.6055 0.91389 0.00669 0.0
C1460 C 0.65505 0.90237 1.00386 0.0
C1461 C 0.64889 0.8738 1.00432 0.0
C1462 C 0.62075 0.86545 0.00616 0.0
C1463 C 0.59928 0.88528 0.00726 0.0
H1464 H 0.80441 0.66972 0.05549 0.0
H1465 H 0.83514 0.71015 0.98169 0.0
H1466 H 0.84417 0.63805 0.05467 0.0
H1467 H 0.87518 0.67834 0.98089 0.0
H1468 H 0.95447 0.62691 1.00318 0.0
H1469 H 0.91831 0.66269 0.00636 0.0
H1470 H 0.85662 0.59936 0.02325 0.0
H1471 H 0.8925 0.56369 0.02041 0.0
C1472 C 0.81984 0.67197 0.03921 0.0
C1473 C 0.81648 0.69216 0.01843 0.0
C1474 C 0.84255 0.65379 0.0387 0.0
C1475 C 0.86251 0.65538 0.01744 0.0
C1476 C 0.86012 0.67665 0.99756 0.0
C1477 C 0.83727 0.69489 0.99805 0.0
C1478 C 0.93319 0.6206 0.00761 0.0
C1479 C 0.92645 0.59236 0.01158 0.0
C1480 C 0.91249 0.64112 0.0093 0.0
C1481 C 0.88469 0.63387 0.01527 0.0
C1482 C 0.87795 0.60566 0.01906 0.0
C1483 C 0.89853 0.58517 0.01718 0.0
H1484 H 0.35212 0.78793 0.04961 0.0
H1485 H 0.30266 0.82712 0.98584 0.0
H1486 H 0.38388 0.82755 0.04984 0.0
H1487 H 0.33475 0.86688 0.98576 0.0
H1488 H 0.39003 0.94246 0.00927 0.0
H1489 H 0.35424 0.90644 0.0128 0.0
H1490 H 0.41865 0.84357 0.01643 0.0
H1491 H 0.45435 0.87926 0.01336 0.0
C1492 C 0.34794 0.80522 0.03582 0.0
C1493 C 0.32518 0.80439 0.01747 0.0
C1494 C 0.36618 0.82782 0.03584 0.0
C1495 C 0.36213 0.85007 0.01744 0.0
C1496 C 0.33838 0.85004 1.00021 0.0
C1497 C 0.32001 0.82736 1.00026 0.0
C1498 C 0.3966 0.92095 0.01083 0.0
C1499 C 0.42517 0.91384 0.01112 0.0
C1500 C 0.37604 0.90034 0.01275 0.0
C1501 C 0.38362 0.87222 0.01516 0.0
C1502 C 0.41213 0.86511 0.01515 0.0
C1503 C 0.43263 0.88563 0.01316 0.0
H1504 H 0.73633 0.16416 0.0372 0.0
H1505 H 0.69396 0.21002 0.97303 0.0
H1506 H 0.69701 0.13173 0.03993 0.0
H1507 H 0.65461 0.1773 0.97517 0.0
H1508 H 0.57847 0.12683 0.00544 0.0
H1509 H 0.61606 0.16124 1.00483 0.0
H1510 H 0.67706 0.09534 0.01144 0.0
H1511 H 0.63986 0.06113 0.01257 0.0
C1512 C 0.71849 0.16719 0.0237 0.0
C1513 C 0.71797 0.18928 1.00485 0.0
C1514 C 0.69606 0.14861 0.02511 0.0
C1515 C 0.67271 0.15179 0.00763 0.0
C1516 C 0.67212 0.17439 0.98909 0.0
C1517 C 0.69464 0.19298 0.9877 0.0
C1518 C 0.59989 0.11967 0.00686 0.0
C1519 C 0.60601 0.09111 0.0091 0.0
C1520 C 0.62145 0.13941 0.00635 0.0
C1521 C 0.64958 0.13106 0.0082 0.0
C1522 C 0.65564 0.10255 0.01043 0.0
C1523 C 0.63419 0.08287 0.01088 0.0
H1524 H 0.55238 0.71985 0.8485 0.0
H1525 H 0.48945 0.67916 0.79888 0.0
H1526 H 0.55268 0.68065 0.8804 0.0
H1527 H 0.48944 0.63974 0.83114 0.0
H1528 H 0.5139 0.56449 0.88607 0.0
H1529 H 0.51644 0.60075 0.85082 0.0
H1530 H 0.52041 0.66326 0.91497 0.0
H1531 H 0.51835 0.62724 0.95017 0.0
C1532 C 0.53874 0.70235 0.84433 0.0
C1533 C 0.52067 0.70268 0.82137 0.0
C1534 C 0.53877 0.67995 0.8627 0.0
C1535 C 0.52068 0.65727 0.85867 0.0
C1536 C 0.50367 0.65686 0.83484 0.0
C1537 C 0.50369 0.67937 0.81632 0.0
C1538 C 0.51534 0.58596 0.89273 0.0
C1539 C 0.51603 0.59282 0.92111 0.0
C1540 C 0.51666 0.60676 0.87244 0.0
C1541 C 0.51885 0.63492 0.88001 0.0
C1542 C 0.51927 0.64176 0.90836 0.0
C1543 C 0.51787 0.62103 0.92861 0.0
H1544 H 0.30467 0.52676 0.82941 0.0
H1545 H 0.35693 0.466 0.78901 0.0
H1546 H 0.33695 0.52795 0.86892 0.0
H1547 H 0.38903 0.46667 0.82848 0.0
H1548 H 0.45645 0.501 0.88531 0.0
H1549 H 0.42252 0.49909 0.84812 0.0
H1550 H 0.3553 0.49999 0.90781 0.0
H1551 H 0.38942 0.50235 0.94545 0.0
C1552 C 0.323 0.51351 0.82921 0.0
C1553 C 0.32859 0.49637 0.80639 0.0
C1554 C 0.34137 0.51405 0.85181 0.0
C1555 C 0.36567 0.49752 0.8518 0.0
C1556 C 0.37077 0.47998 0.82897 0.0
C1557 C 0.35239 0.47945 0.80647 0.0
C1558 C 0.43448 0.50083 0.89072 0.0
C1559 C 0.42579 0.50179 0.91856 0.0
C1560 C 0.41497 0.49952 0.86927 0.0
C1561 C 0.38618 0.49915 0.87495 0.0
C1562 C 0.37734 0.50041 0.90272 0.0
C1563 C 0.39693 0.50165 0.9243 0.0
H1564 H 0.54925 0.34454 0.78881 0.0
H1565 H 0.49043 0.29203 0.83163 0.0
H1566 H 0.54885 0.37725 0.82765 0.0
H1567 H 0.48944 0.32494 0.87051 0.0
H1568 H 0.51548 0.37859 0.94575 0.0
H1569 H 0.51734 0.3443 0.90843 0.0
H1570 H 0.51736 0.41059 0.84812 0.0
H1571 H 0.51601 0.44474 0.88509 0.0
C1572 C 0.53626 0.34008 0.80666 0.0
C1573 C 0.51986 0.31597 0.80741 0.0
C1574 C 0.53585 0.35884 0.82882 0.0
C1575 C 0.51895 0.35388 0.85221 0.0
C1576 C 0.50288 0.32933 0.853 0.0
C1577 C 0.5033 0.31056 0.83074 0.0
C1578 C 0.5159 0.38589 0.92454 0.0
C1579 C 0.51569 0.41456 0.9186 0.0
C1580 C 0.51683 0.36617 0.90311 0.0
C1581 C 0.51766 0.37463 0.87521 0.0
C1582 C 0.51726 0.40327 0.86933 0.0
C1583 C 0.51629 0.42292 0.89066 0.0
H1584 H 0.69515 0.53064 0.8024 0.0
H1585 H 0.72658 0.45751 0.84388 0.0
H1586 H 0.65554 0.53208 0.83463 0.0
H1587 H 0.6873 0.45895 0.87592 0.0
H1588 H 0.63841 0.49292 0.94962 0.0
H1589 H 0.6744 0.49032 0.91414 0.0
H1590 H 0.61272 0.5071 0.85102 0.0
H1591 H 0.57653 0.51004 0.88656 0.0
C1592 C 0.69328 0.51457 0.818 0.0
C1593 C 0.71416 0.49418 0.82083 0.0
C1594 C 0.67067 0.51543 0.83651 0.0
C1595 C 0.66858 0.49593 0.85818 0.0
C1596 C 0.68866 0.47468 0.85993 0.0
C1597 C 0.7111 0.47379 0.84149 0.0
C1598 C 0.63241 0.49617 0.92823 0.0
C1599 C 0.60445 0.50162 0.92106 0.0
C1600 C 0.65307 0.49445 0.90783 0.0
C1601 C 0.6464 0.49826 0.8797 0.0
C1602 C 0.61856 0.50417 0.8725 0.0
C1603 C 0.5978 0.50571 0.89292 0.0
H1604 H 0.47645 0.28526 0.17113 0.0
H1605 H 0.54002 0.32609 0.21982 0.0
H1606 H 0.47562 0.32444 0.13921 0.0
H1607 H 0.53951 0.36549 0.18753 0.0
H1608 H 0.51457 0.44066 0.13276 0.0
H1609 H 0.51247 0.40446 0.1681 0.0
H1610 H 0.50711 0.34189 0.10411 0.0
H1611 H 0.50873 0.37787 0.06883 0.0
C1612 C 0.49011 0.3028 0.17511 0.0
C1613 C 0.50851 0.30249 0.19782 0.0
C1614 C 0.48978 0.32518 0.15671 0.0
C1615 C 0.5079 0.3479 0.16043 0.0
C1616 C 0.52524 0.34834 0.18404 0.0
C1617 C 0.52551 0.32584 0.20259 0.0
C1618 C 0.5129 0.41919 0.12616 0.0
C1619 C 0.51171 0.41232 0.09779 0.0
C1620 C 0.51184 0.39841 0.1465 0.0
C1621 C 0.5094 0.37025 0.13902 0.0
C1622 C 0.50845 0.36339 0.11068 0.0
C1623 C 0.50959 0.3841 0.09038 0.0
H1624 H 0.69416 0.47452 0.21728 0.0
H1625 H 0.72465 0.54839 0.17644 0.0
H1626 H 0.65411 0.47331 0.18553 0.0
H1627 H 0.68491 0.54723 0.14492 0.0
H1628 H 0.63684 0.51295 0.07094 0.0
H1629 H 0.67259 0.51576 0.10656 0.0
H1630 H 0.6108 0.49824 0.16935 0.0
H1631 H 0.57474 0.4951 0.13357 0.0
C1632 C 0.69197 0.49082 0.20195 0.0
C1633 C 0.71272 0.51133 0.1991 0.0
C1634 C 0.66911 0.4901 0.18373 0.0
C1635 C 0.66665 0.50987 0.16237 0.0
C1636 C 0.68656 0.5313 0.1607 0.0
C1637 C 0.70926 0.53203 0.17883 0.0
C1638 C 0.63074 0.50959 0.09228 0.0
C1639 C 0.60279 0.50385 0.09928 0.0
C1640 C 0.65127 0.51144 0.11277 0.0
C1641 C 0.6445 0.50749 0.14084 0.0
C1642 C 0.61668 0.50131 0.1479 0.0
C1643 C 0.59602 0.49965 0.12737 0.0
H1644 H 0.48215 0.6605 0.23091 0.0
H1645 H 0.53844 0.71394 0.18597 0.0
H1646 H 0.48187 0.62763 0.19222 0.0
H1647 H 0.53877 0.68087 0.14721 0.0
H1648 H 0.51141 0.62655 0.07299 0.0
H1649 H 0.51022 0.66089 0.11028 0.0
H1650 H 0.51289 0.59472 0.17069 0.0
H1651 H 0.51354 0.56052 0.13374 0.0
C1652 C 0.49444 0.66513 0.21263 0.0
C1653 C 0.51032 0.68956 0.21125 0.0
C1654 C 0.49447 0.64627 0.19054 0.0
C1655 C 0.51046 0.65144 0.16657 0.0
C1656 C 0.52602 0.6763 0.16517 0.0
C1657 C 0.52598 0.69517 0.18736 0.0
C1658 C 0.51172 0.61928 0.09422 0.0
C1659 C 0.51247 0.59062 0.10019 0.0
C1660 C 0.51118 0.63903 0.11563 0.0
C1661 C 0.51131 0.63064 0.14357 0.0
C1662 C 0.51225 0.60201 0.14948 0.0
C1663 C 0.5128 0.58232 0.12815 0.0
H1664 H 0.33415 0.53071 0.21664 0.0
H1665 H 0.30384 0.45577 0.17748 0.0
H1666 H 0.3733 0.53212 0.18392 0.0
H1667 H 0.34269 0.45719 0.14489 0.0
H1668 H 0.38966 0.49118 0.06979 0.0
H1669 H 0.35412 0.48851 0.10578 0.0
H1670 H 0.41634 0.50706 0.16791 0.0
H1671 H 0.45201 0.51007 0.13194 0.0
C1672 C 0.33621 0.51423 0.20146 0.0
C1673 C 0.31579 0.49332 0.19938 0.0
C1674 C 0.35853 0.51508 0.18267 0.0
C1675 C 0.36073 0.49505 0.16151 0.0
C1676 C 0.34117 0.4733 0.16053 0.0
C1677 C 0.31901 0.47241 0.17926 0.0
C1678 C 0.39583 0.49481 0.09107 0.0
C1679 C 0.42376 0.50075 0.0979 0.0
C1680 C 0.37547 0.49305 0.11174 0.0
C1681 C 0.3825 0.49734 0.13971 0.0
C1682 C 0.41029 0.50375 0.14654 0.0
C1683 C 0.43073 0.50532 0.12589 0.0
H1684 H 0.83639 0.47538 0.71863 0.0
H1685 H 0.79484 0.53788 0.66968 0.0
H1686 H 0.87534 0.47469 0.68554 0.0
H1687 H 0.83378 0.53777 0.63681 0.0
H1688 H 0.89017 0.50615 0.56765 0.0
H1689 H 0.8531 0.50725 0.60194 0.0
H1690 H 0.91437 0.50226 0.66746 0.0
H1691 H 0.95174 0.50066 0.63303 0.0
C1692 C 0.83581 0.48912 0.70085 0.0
C1693 C 0.81281 0.50663 0.69648 0.0
C1694 C 0.85811 0.48886 0.68199 0.0
C1695 C 0.85767 0.50608 0.65839 0.0
C1696 C 0.83464 0.52391 0.65447 0.0
C1697 C 0.81243 0.52415 0.67333 0.0
C1698 C 0.89591 0.50525 0.58933 0.0
C1699 C 0.92412 0.50333 0.59744 0.0
C1700 C 0.87455 0.50609 0.60906 0.0
C1701 C 0.88069 0.50502 0.63752 0.0
C1702 C 0.90885 0.5029 0.64571 0.0
C1703 C 0.93031 0.50212 0.62593 0.0
H1704 H 0.49067 0.82554 0.7203 0.0
H1705 H 0.54638 0.7802 0.66661 0.0
H1706 H 0.4899 0.86431 0.68725 0.0
H1707 H 0.54621 0.8189 0.63374 0.0
H1708 H 0.51411 0.87756 0.56719 0.0
H1709 H 0.5148 0.84049 0.60126 0.0
H1710 H 0.51845 0.90124 0.66709 0.0
H1711 H 0.51725 0.93864 0.63292 0.0
C1712 C 0.50289 0.82406 0.70146 0.0
C1713 C 0.51852 0.80006 0.69578 0.0
C1714 C 0.50259 0.84625 0.6826 0.0
C1715 C 0.51788 0.84473 0.6577 0.0
C1716 C 0.53382 0.82065 0.65243 0.0
C1717 C 0.5341 0.79856 0.67128 0.0
C1718 C 0.51505 0.88319 0.58889 0.0
C1719 C 0.51568 0.91128 0.59716 0.0
C1720 C 0.51562 0.8618 0.60849 0.0
C1721 C 0.51687 0.86778 0.63698 0.0
C1722 C 0.51724 0.89584 0.64534 0.0
C1723 C 0.51669 0.91732 0.62569 0.0
H1724 H 0.22288 0.47355 0.68946 0.0
H1725 H 0.18098 0.54662 0.72086 0.0
H1726 H 0.19101 0.47282 0.6497 0.0
H1727 H 0.14926 0.54585 0.68141 0.0
H1728 H 0.07537 0.51178 0.63229 0.0
H1729 H 0.11089 0.5142 0.66817 0.0
H1730 H 0.17517 0.49879 0.60729 0.0
H1731 H 0.13953 0.49603 0.57111 0.0
C1732 C 0.20726 0.48975 0.68757 0.0
C1733 C 0.20417 0.50991 0.70846 0.0
C1734 C 0.18898 0.4893 0.66487 0.0
C1735 C 0.16731 0.50899 0.66271 0.0
C1736 C 0.1653 0.53001 0.68283 0.0
C1737 C 0.18352 0.53049 0.70538 0.0
C1738 C 0.09702 0.50881 0.62642 0.0
C1739 C 0.1045 0.50376 0.5987 0.0
C1740 C 0.11744 0.51042 0.64702 0.0
C1741 C 0.14587 0.50694 0.64052 0.0
C1742 C 0.15342 0.50148 0.61293 0.0
C1743 C 0.13297 0.50004 0.5922 0.0
H1744 H 0.47137 0.16776 0.7218 0.0
H1745 H 0.54434 0.20994 0.69015 0.0
H1746 H 0.4725 0.13582 0.68267 0.0
H1747 H 0.54546 0.17781 0.65067 0.0
H1748 H 0.52257 0.12594 0.57223 0.0
H1749 H 0.51998 0.16144 0.60837 0.0
H1750 H 0.50386 0.09765 0.66921 0.0
H1751 H 0.50612 0.06224 0.63331 0.0
C1752 C 0.48757 0.17032 0.70633 0.0
C1753 C 0.508 0.19116 0.70928 0.0
C1754 C 0.48828 0.15193 0.68396 0.0
C1755 C 0.50938 0.15391 0.66382 0.0
C1756 C 0.52892 0.17574 0.66584 0.0
C1757 C 0.52824 0.1942 0.68839 0.0
C1758 C 0.51844 0.11944 0.59331 0.0
C1759 C 0.51445 0.09112 0.59974 0.0
C1760 C 0.51711 0.13983 0.61404 0.0
C1761 C 0.5115 0.13243 0.64164 0.0
C1762 C 0.50776 0.10413 0.64808 0.0
C1763 C 0.50927 0.08376 0.62746 0.0
H1764 H 0.79545 0.46707 0.34882 0.0
H1765 H 0.83709 0.52894 0.29916 0.0
H1766 H 0.83461 0.46712 0.38141 0.0
H1767 H 0.87631 0.52955 0.33199 0.0
H1768 H 0.95267 0.50368 0.38496 0.0
H1769 H 0.91534 0.5019 0.35042 0.0
H1770 H 0.85391 0.49815 0.41585 0.0
H1771 H 0.89086 0.49943 0.4502 0.0
C1772 C 0.81312 0.48063 0.34494 0.0
C1773 C 0.81345 0.49802 0.3217 0.0
C1774 C 0.83547 0.48083 0.36364 0.0
C1775 C 0.85858 0.49851 0.35947 0.0
C1776 C 0.859 0.51553 0.33573 0.0
C1777 C 0.83656 0.51531 0.31703 0.0
C1778 C 0.93121 0.50243 0.392 0.0
C1779 C 0.92493 0.50162 0.42049 0.0
C1780 C 0.90978 0.50156 0.37216 0.0
C1781 C 0.88159 0.49971 0.38032 0.0
C1782 C 0.87537 0.49907 0.40876 0.0
C1783 C 0.89669 0.50001 0.42853 0.0
H1784 H 0.48714 0.79542 0.32898 0.0
H1785 H 0.55982 0.83775 0.29688 0.0
H1786 H 0.48637 0.82739 0.36861 0.0
H1787 H 0.55906 0.86951 0.33616 0.0
H1788 H 0.52598 0.94291 0.38612 0.0
H1789 H 0.52801 0.90763 0.35009 0.0
H1790 H 0.51201 0.84366 0.41078 0.0
H1791 H 0.50964 0.87906 0.44706 0.0
C1792 C 0.50326 0.81116 0.33067 0.0
C1793 C 0.52331 0.81429 0.3096 0.0
C1794 C 0.50278 0.82953 0.35331 0.0
C1795 C 0.52234 0.85135 0.35527 0.0
C1796 C 0.54326 0.85341 0.33494 0.0
C1797 C 0.54376 0.83512 0.31248 0.0
C1798 C 0.5228 0.92138 0.39191 0.0
C1799 C 0.51771 0.91395 0.41962 0.0
C1800 C 0.52419 0.90107 0.37121 0.0
C1801 C 0.52041 0.87276 0.37756 0.0
C1802 C 0.5149 0.86528 0.40517 0.0
C1803 C 0.5137 0.88562 0.42598 0.0
H1804 H 0.19562 0.538 0.3038 0.0
H1805 H 0.23493 0.47051 0.34777 0.0
H1806 H 0.15624 0.53688 0.33638 0.0
H1807 H 0.19555 0.46883 0.38008 0.0
H1808 H 0.1398 0.49738 0.45115 0.0
H1809 H 0.17702 0.49759 0.41706 0.0
H1810 H 0.11634 0.50841 0.3517 0.0
H1811 H 0.07878 0.50869 0.38598 0.0
C1812 C 0.19561 0.52282 0.32039 0.0
C1813 C 0.21811 0.50444 0.32361 0.0
C1814 C 0.17308 0.52203 0.33891 0.0
C1815 C 0.1728 0.50285 0.36095 0.0
C1816 C 0.19529 0.48414 0.36364 0.0
C1817 C 0.21775 0.48496 0.34513 0.0
C1818 C 0.13422 0.49984 0.42955 0.0
C1819 C 0.10613 0.50304 0.42142 0.0
C1820 C 0.15565 0.49974 0.40993 0.0
C1821 C 0.14969 0.50287 0.38161 0.0
C1822 C 0.12166 0.50617 0.37338 0.0
C1823 C 0.10011 0.50617 0.39305 0.0
H1824 H 0.48676 0.17902 0.30013 0.0
H1825 H 0.54528 0.22457 0.35063 0.0
H1826 H 0.48789 0.14033 0.33325 0.0
H1827 H 0.54705 0.1859 0.38352 0.0
H1828 H 0.51793 0.12749 0.452 0.0
H1829 H 0.51765 0.16444 0.41777 0.0
H1830 H 0.51703 0.1034 0.35211 0.0
H1831 H 0.51676 0.06615 0.38646 0.0
C1832 C 0.50004 0.18054 0.31826 0.0
C1833 C 0.51588 0.2046 0.32304 0.0
C1834 C 0.50083 0.15839 0.33715 0.0
C1835 C 0.51746 0.15998 0.36121 0.0
C1836 C 0.53365 0.18408 0.36553 0.0
C1837 C 0.53283 0.20616 0.34664 0.0
C1838 C 0.51775 0.12178 0.4303 0.0
C1839 C 0.51739 0.09365 0.42214 0.0
C1840 C 0.51778 0.14309 0.41059 0.0
C1841 C 0.51746 0.137 0.38209 0.0
C1842 C 0.51702 0.1089 0.37386 0.0
C1843 C 0.51703 0.08751 0.39362 0.0
H1844 H 0.72395 0.82141 0.4829 0.0
H1845 H 0.67291 0.78148 0.54478 0.0
H1846 H 0.69223 0.86156 0.48276 0.0
H1847 H 0.64138 0.82156 0.54514 0.0
H1848 H 0.57373 0.87863 0.51171 0.0
H1849 H 0.60748 0.84118 0.51296 0.0
H1850 H 0.67499 0.90083 0.51173 0.0
H1851 H 0.64099 0.93883 0.51003 0.0
C1852 C 0.706 0.82145 0.49659 0.0
C1853 C 0.70052 0.79859 0.51373 0.0
C1854 C 0.68798 0.8444 0.49666 0.0
C1855 C 0.66421 0.84466 0.51382 0.0
C1856 C 0.65927 0.82181 0.53138 0.0
C1857 C 0.67728 0.79896 0.5313 0.0
C1858 C 0.59572 0.88399 0.51169 0.0
C1859 C 0.60455 0.91192 0.51081 0.0
C1860 C 0.61511 0.86239 0.51261 0.0
C1861 C 0.64391 0.86801 0.51269 0.0
C1862 C 0.6529 0.89585 0.51155 0.0
C1863 C 0.63341 0.91761 0.5107 0.0
H1864 H 0.67315 0.22423 0.48048 0.0
H1865 H 0.72467 0.1824 0.54072 0.0
H1866 H 0.64193 0.18395 0.47869 0.0
H1867 H 0.69319 0.14206 0.53953 0.0
H1868 H 0.64155 0.06564 0.51085 0.0
H1869 H 0.67564 0.10361 0.50989 0.0
H1870 H 0.60825 0.16341 0.51024 0.0
H1871 H 0.57445 0.12604 0.51077 0.0
C1872 C 0.6777 0.20628 0.49328 0.0
C1873 C 0.70094 0.20619 0.51085 0.0
C1874 C 0.65985 0.1833 0.4924 0.0
C1875 C 0.66495 0.15989 0.50916 0.0
C1876 C 0.68881 0.15967 0.52623 0.0
C1877 C 0.70667 0.18272 0.52708 0.0
C1878 C 0.63402 0.08689 0.51069 0.0
C1879 C 0.60517 0.09265 0.5108 0.0
C1880 C 0.65356 0.10863 0.51025 0.0
C1881 C 0.64463 0.13652 0.50975 0.0
C1882 C 0.61585 0.14218 0.51006 0.0
C1883 C 0.59642 0.12061 0.51056 0.0
H1884 H 0.85299 0.71869 0.54714 0.0
H1885 H 0.80306 0.67797 0.48464 0.0
H1886 H 0.88483 0.67916 0.54795 0.0
H1887 H 0.83526 0.63828 0.48513 0.0
H1888 H 0.89048 0.56323 0.51021 0.0
H1889 H 0.8548 0.59942 0.51296 0.0
H1890 H 0.91939 0.66219 0.51487 0.0
H1891 H 0.95498 0.62634 0.51256 0.0
C1892 C 0.84876 0.70111 0.53372 0.0
C1893 C 0.82582 0.70146 0.51558 0.0
C1894 C 0.86704 0.67855 0.53408 0.0
C1895 C 0.86285 0.65586 0.51622 0.0
C1896 C 0.83899 0.65546 0.49917 0.0
C1897 C 0.82057 0.67811 0.49888 0.0
C1898 C 0.89711 0.58475 0.51122 0.0
C1899 C 0.9257 0.5918 0.51127 0.0
C1900 C 0.87662 0.60546 0.5127 0.0
C1901 C 0.88428 0.63362 0.51439 0.0
C1902 C 0.9128 0.64064 0.51415 0.0
C1903 C 0.93324 0.62002 0.51262 0.0
H1904 H 0.30373 0.8363 0.46293 0.0
H1905 H 0.33528 0.79539 0.53614 0.0
H1906 H 0.34341 0.86806 0.46362 0.0
H1907 H 0.37524 0.8273 0.53682 0.0
H1908 H 0.45428 0.87869 0.51415 0.0
H1909 H 0.41804 0.84303 0.51108 0.0
H1910 H 0.35633 0.90657 0.49502 0.0
H1911 H 0.39231 0.94215 0.49775 0.0
C1912 C 0.31932 0.83397 0.47906 0.0
C1913 C 0.31622 0.81361 0.49971 0.0
C1914 C 0.34198 0.85221 0.4795 0.0
C1915 C 0.36217 0.85049 0.50055 0.0
C1916 C 0.36002 0.82909 0.5203 0.0
C1917 C 0.33721 0.81079 0.51989 0.0
C1918 C 0.43299 0.8851 0.5099 0.0
C1919 C 0.42628 0.91337 0.50611 0.0
C1920 C 0.41223 0.86463 0.50829 0.0
C1921 C 0.3844 0.87197 0.5026 0.0
C1922 C 0.37769 0.90021 0.49898 0.0
C1923 C 0.39833 0.92065 0.50077 0.0
H1924 H 0.19539 0.29568 0.47683 0.0
H1925 H 0.23403 0.33992 0.54441 0.0
H1926 H 0.15585 0.3282 0.47775 0.0
H1927 H 0.19447 0.37218 0.5459 0.0
H1928 H 0.13944 0.44364 0.5162 0.0
H1929 H 0.17648 0.40924 0.5168 0.0
H1930 H 0.11565 0.34377 0.50566 0.0
H1931 H 0.07825 0.37839 0.50456 0.0
C1932 C 0.19517 0.31228 0.49203 0.0
C1933 C 0.21753 0.31562 0.51046 0.0
C1934 C 0.17255 0.33076 0.4927 0.0
C1935 C 0.17207 0.3529 0.5118 0.0
C1936 C 0.19438 0.35565 0.53064 0.0
C1937 C 0.21692 0.33717 0.52994 0.0
C1938 C 0.13378 0.42196 0.51384 0.0
C1939 C 0.10572 0.41389 0.5103 0.0
C1940 C 0.15511 0.40216 0.51442 0.0
C1941 C 0.14905 0.37372 0.51144 0.0
C1942 C 0.12104 0.36555 0.50782 0.0
C1943 C 0.09959 0.38541 0.50733 0.0
H1944 H 0.29986 0.16486 0.47057 0.0
H1945 H 0.33924 0.21359 0.53474 0.0
H1946 H 0.33973 0.13333 0.47002 0.0
H1947 H 0.37925 0.18169 0.53454 0.0
H1948 H 0.45536 0.12701 0.51082 0.0
H1949 H 0.41906 0.16258 0.50771 0.0
H1950 H 0.35611 0.09836 0.50259 0.0
H1951 H 0.39209 0.06291 0.5052 0.0
C1952 C 0.31724 0.16892 0.48439 0.0
C1953 C 0.31638 0.19143 0.50292 0.0
C1954 C 0.33999 0.1508 0.4842 0.0
C1955 C 0.36239 0.15468 0.50263 0.0
C1956 C 0.36232 0.17817 0.52006 0.0
C1957 C 0.33949 0.19644 0.52017 0.0
C1958 C 0.43378 0.12044 0.50902 0.0
C1959 C 0.42674 0.092 0.50819 0.0
C1960 C 0.41299 0.14087 0.50734 0.0
C1961 C 0.38474 0.13331 0.50465 0.0
C1962 C 0.37773 0.10491 0.5041 0.0
C1963 C 0.39842 0.08454 0.50584 0.0
H1964 H 0.85273 0.28755 0.54929 0.0
H1965 H 0.80263 0.32717 0.48628 0.0
H1966 H 0.8846 0.32708 0.54935 0.0
H1967 H 0.83482 0.36686 0.48604 0.0
H1968 H 0.89037 0.44223 0.50952 0.0
H1969 H 0.85462 0.4062 0.51309 0.0
H1970 H 0.91904 0.3433 0.51571 0.0
H1971 H 0.95473 0.37903 0.51261 0.0
C1972 C 0.84844 0.30491 0.53563 0.0
C1973 C 0.82546 0.30423 0.51754 0.0
C1974 C 0.86674 0.32746 0.53555 0.0
C1975 C 0.86253 0.34982 0.5173 0.0
C1976 C 0.83858 0.34993 0.50035 0.0
C1977 C 0.82015 0.32729 0.5005 0.0
C1978 C 0.89695 0.42072 0.51085 0.0
C1979 C 0.92552 0.41361 0.51087 0.0
C1980 C 0.87641 0.40009 0.5128 0.0
C1981 C 0.88401 0.37196 0.51495 0.0
C1982 C 0.91252 0.36485 0.51464 0.0
C1983 C 0.933 0.38539 0.51263 0.0
H1984 H 0.19259 0.71438 0.48693 0.0
H1985 H 0.23757 0.66008 0.54224 0.0
H1986 H 0.1533 0.68155 0.48612 0.0
H1987 H 0.19835 0.6274 0.54196 0.0
H1988 H 0.13996 0.56114 0.50797 0.0
H1989 H 0.17714 0.59537 0.50936 0.0
H1990 H 0.11604 0.66128 0.51495 0.0
H1991 H 0.07844 0.62691 0.51311 0.0
C1992 C 0.19385 0.69547 0.49908 0.0
C1993 C 0.21786 0.6895 0.5146 0.0
C1994 C 0.17139 0.67677 0.49875 0.0
C1995 C 0.17273 0.65176 0.51386 0.0
C1996 C 0.19679 0.64623 0.52975 0.0
C1997 C 0.21916 0.66494 0.53008 0.0
C1998 C 0.13426 0.58289 0.50951 0.0
C1999 C 0.10605 0.59115 0.5105 0.0
C2000 C 0.1557 0.60255 0.51048 0.0
C2001 C 0.14961 0.63107 0.5125 0.0
C2002 C 0.12144 0.63947 0.51319 0.0
C2003 C 0.09989 0.61973 0.51224 0.0
loop_
_geom_bond_atom_site_label_1
_geom_bond_atom_site_label_2
_geom_bond_distance
_geom_bond_site_symmetry_2
_ccdc_geom_bond_type
H0 C3 0.929 . S
H1 C6 0.929 . S
H2 C8 0.930 . S
C3 H0 0.929 . S
C3 C4 1.398 . S
C3 C5 1.396 . S
C4 C3 1.398 . S
C4 C8 1.407 . S
C5 C3 1.396 . S
C5 C6 1.394 . S
C6 H1 0.929 . S
C6 C5 1.394 . S
C6 C7 1.382 . S
C7 C6 1.382 . S
C7 C8 1.392 . S
C7 N9 1.420 . S
C8 H2 0.930 . S
C8 C4 1.407 . S
C8 C7 1.392 . S
N9 C7 1.420 . S
N9 C10 1.244 . S
C10 N9 1.244 . S
H11 C14 0.929 . S
H12 C17 0.929 . S
H13 C19 0.930 . S
C14 H11 0.929 . S
C14 C15 1.395 1_545 S
C14 C16 1.394 1_545 S
C15 C14 1.395 1_565 S
C15 C19 1.414 . S
C16 C14 1.394 1_565 S
C16 C17 1.397 . S
C17 H12 0.929 . S
C17 C16 1.397 . S
C17 C18 1.382 . S
C18 C17 1.382 . S
C18 C19 1.392 . S
C18 N20 1.420 . S
C19 H13 0.930 . S
C19 C15 1.414 . S
C19 C18 1.392 . S
N20 C18 1.420 . S
N20 C21 1.232 1_565 S
C21 N20 1.232 1_545 S
H22 C25 0.929 . S
H23 C28 0.929 . S
H24 C30 0.930 . S
C25 H22 0.929 . S
C25 C26 1.398 . S
C25 C27 1.396 . S
C26 C25 1.398 . S
C26 C30 1.407 . S
C27 C25 1.396 . S
C27 C28 1.394 . S
C28 H23 0.929 . S
C28 C27 1.394 . S
C28 C29 1.382 . S
C29 C28 1.382 . S
C29 C30 1.392 . S
C29 N31 1.420 . S
C30 H24 0.930 . S
C30 C26 1.407 . S
C30 C29 1.392 . S
N31 C29 1.420 . S
N31 C32 1.244 . S
C32 N31 1.244 . S
H33 C36 0.929 . S
H34 C39 0.929 . S
H35 C41 0.930 . S
C36 H33 0.929 . S
C36 C37 1.395 1_545 S
C36 C38 1.394 1_545 S
C37 C36 1.395 1_565 S
C37 C41 1.414 . S
C38 C36 1.394 1_565 S
C38 C39 1.397 . S
C39 H34 0.929 . S
C39 C38 1.397 . S
C39 C40 1.382 . S
C40 C39 1.382 . S
C40 C41 1.392 . S
C40 N42 1.420 . S
C41 H35 0.930 . S
C41 C37 1.414 . S
C41 C40 1.392 . S
N42 C40 1.420 . S
N42 C43 1.232 1_565 S
C43 N42 1.232 1_545 S
H44 C47 0.929 . S
H45 C50 0.929 . S
H46 C52 0.930 . S
C47 H44 0.929 . S
C47 C48 1.398 . S
C47 C49 1.396 . S
C48 C47 1.398 . S
C48 C52 1.407 . S
C49 C47 1.396 . S
C49 C50 1.394 . S
C50 H45 0.929 . S
C50 C49 1.394 . S
C50 C51 1.382 . S
C51 C50 1.382 . S
C51 C52 1.392 . S
C51 N53 1.420 . S
C52 H46 0.930 . S
C52 C48 1.407 . S
C52 C51 1.392 . S
N53 C51 1.420 . S
N53 C54 1.244 . S
C54 N53 1.244 . S
H55 C58 0.929 . S
H56 C61 0.929 . S
H57 C63 0.930 . S
C58 H55 0.929 . S
C58 C59 1.398 1_565 S
C58 C60 1.396 1_565 S
C59 C58 1.398 1_545 S
C59 C63 1.407 . S
C60 C58 1.396 1_545 S
C60 C61 1.394 . S
C61 H56 0.929 . S
C61 C60 1.394 . S
C61 C62 1.382 . S
C62 C61 1.382 . S
C62 C63 1.392 . S
C62 N64 1.420 . S
C63 H57 0.930 . S
C63 C59 1.407 . S
C63 C62 1.392 . S
N64 C62 1.420 . S
N64 C65 1.244 1_545 S
C65 N64 1.244 1_565 S
H66 C69 0.929 . S
H67 C72 0.929 . S
H68 C74 0.930 . S
C69 H66 0.929 . S
C69 C70 1.398 . S
C69 C71 1.396 . S
C70 C69 1.398 . S
C70 C74 1.407 . S
C71 C69 1.396 . S
C71 C72 1.394 . S
C72 H67 0.929 . S
C72 C71 1.394 . S
C72 C73 1.382 . S
C73 C72 1.382 . S
C73 C74 1.392 . S
C73 N75 1.420 . S
C74 H68 0.930 . S
C74 C70 1.407 . S
C74 C73 1.392 . S
N75 C73 1.420 . S
N75 C76 1.244 . S
C76 N75 1.244 . S
H77 C80 0.929 . S
H78 C83 0.929 . S
H79 C85 0.930 . S
C80 H77 0.929 . S
C80 C81 1.397 1_545 S
C80 C82 1.396 1_545 S
C81 C80 1.397 1_565 S
C81 C85 1.410 . S
C82 C80 1.396 1_565 S
C82 C83 1.394 . S
C83 H78 0.929 . S
C83 C82 1.394 . S
C83 C84 1.382 . S
C84 C83 1.382 . S
C84 C85 1.392 . S
C84 N86 1.420 . S
C85 H79 0.930 . S
C85 C81 1.410 . S
C85 C84 1.392 . S
N86 C84 1.420 . S
N86 C87 1.244 1_565 S
C87 N86 1.244 1_545 S
H88 C91 0.929 . S
H89 C94 0.931 . S
H90 C96 0.930 . S
C91 H88 0.929 . S
C91 C92 1.398 . S
C91 C93 1.396 . S
C92 C91 1.398 . S
C92 C96 1.407 1_554 S
C93 C91 1.396 . S
C93 C94 1.391 1_554 S
C94 H89 0.931 . S
C94 C93 1.391 1_556 S
C94 C95 1.383 . S
C95 C94 1.383 . S
C95 C96 1.392 . S
C95 N97 1.420 . S
C96 H90 0.930 . S
C96 C92 1.407 1_556 S
C96 C95 1.392 . S
N97 C95 1.420 . S
N97 C98 1.244 1_556 S
C98 N97 1.244 1_554 S
H99 C102 0.923 1_556 S
H100 C105 0.929 . S
H101 C107 0.930 . S
C102 H99 0.923 1_554 S
C102 C103 1.398 . S
C102 C104 1.396 . S
C103 C102 1.398 . S
C103 C107 1.407 . S
C104 C102 1.396 . S
C104 C105 1.394 . S
C105 H100 0.929 . S
C105 C104 1.394 . S
C105 C106 1.382 . S
C106 C105 1.382 . S
C106 C107 1.392 . S
C106 N108 1.420 . S
C107 H101 0.930 . S
C107 C103 1.407 . S
C107 C106 1.392 . S
N108 C106 1.420 . S
N108 C109 1.244 . S
C109 N108 1.244 . S
H110 C113 0.929 . S
H111 C116 0.930 . S
H112 C118 0.930 . S
C113 H110 0.929 . S
C113 C114 1.398 . S
C113 C115 1.396 . S
C114 C113 1.398 . S
C114 C118 1.407 1_554 S
C115 C113 1.396 . S
C115 C116 1.392 1_554 S
C116 H111 0.930 . S
C116 C115 1.392 1_556 S
C116 C117 1.383 . S
C117 C116 1.383 . S
C117 C118 1.392 . S
C117 N119 1.420 . S
C118 H112 0.930 . S
C118 C114 1.407 1_556 S
C118 C117 1.392 . S
N119 C117 1.420 . S
N119 C120 1.244 1_556 S
C120 N119 1.244 1_554 S
H121 C124 0.929 1_556 S
H122 C127 0.929 . S
H123 C129 0.930 . S
C124 H121 0.929 1_554 S
C124 C125 1.398 . S
C124 C126 1.396 . S
C125 C124 1.398 . S
C125 C129 1.407 . S
C126 C124 1.396 . S
C126 C127 1.394 . S
C127 H122 0.929 . S
C127 C126 1.394 . S
C127 C128 1.382 . S
C128 C127 1.382 . S
C128 C129 1.392 . S
C128 N130 1.420 . S
C129 H123 0.930 . S
C129 C125 1.407 . S
C129 C128 1.392 . S
N130 C128 1.420 . S
N130 C131 1.244 . S
C131 N130 1.244 . S
H132 C135 0.929 . S
H133 C138 0.929 . S
H134 C140 0.930 . S
C135 H132 0.929 . S
C135 C136 1.398 . S
C135 C137 1.396 . S
C136 C135 1.398 . S
C136 C140 1.407 . S
C137 C135 1.396 . S
C137 C138 1.394 . S
C138 H133 0.929 . S
C138 C137 1.394 . S
C138 C139 1.382 . S
C139 C138 1.382 . S
C139 C140 1.392 . S
C139 N141 1.420 . S
C140 H134 0.930 . S
C140 C136 1.407 . S
C140 C139 1.392 . S
N141 C139 1.420 . S
N141 C142 1.244 . S
C142 N141 1.244 . S
H143 C146 0.929 . S
H144 C149 0.929 . S
H145 C151 0.930 . S
C146 H143 0.929 . S
C146 C147 1.398 . S
C146 C148 1.396 . S
C147 C146 1.398 . S
C147 C151 1.407 . S
C148 C146 1.396 . S
C148 C149 1.394 . S
C149 H144 0.929 . S
C149 C148 1.394 . S
C149 C150 1.382 . S
C150 C149 1.382 . S
C150 C151 1.392 . S
C150 N152 1.420 . S
C151 H145 0.930 . S
C151 C147 1.407 . S
C151 C150 1.392 . S
N152 C150 1.420 . S
N152 C153 1.244 . S
C153 N152 1.244 . S
H154 C157 0.929 . S
H155 C160 0.929 . S
H156 C162 0.930 . S
C157 H154 0.929 . S
C157 C158 1.398 . S
C157 C159 1.396 . S
C158 C157 1.398 . S
C158 C162 1.407 . S
C159 C157 1.396 . S
C159 C160 1.394 . S
C160 H155 0.929 . S
C160 C159 1.394 . S
C160 C161 1.382 . S
C161 C160 1.382 . S
C161 C162 1.392 . S
C161 N163 1.420 . S
C162 H156 0.930 . S
C162 C158 1.407 . S
C162 C161 1.392 . S
N163 C161 1.420 . S
N163 C164 1.244 . S
C164 N163 1.244 . S
H165 C168 0.929 . S
H166 C171 0.929 . S
H167 C173 0.930 . S
C168 H165 0.929 . S
C168 C169 1.398 . S
C168 C170 1.396 . S
C169 C168 1.398 . S
C169 C173 1.407 . S
C170 C168 1.396 . S
C170 C171 1.394 . S
C171 H166 0.929 . S
C171 C170 1.394 . S
C171 C172 1.382 . S
C172 C171 1.382 . S
C172 C173 1.392 . S
C172 N174 1.420 . S
C173 H167 0.930 . S
C173 C169 1.407 . S
C173 C172 1.392 . S
N174 C172 1.420 . S
N174 C175 1.244 . S
C175 N174 1.244 . S
H176 C179 0.929 . S
H177 C182 0.929 . S
H178 C184 0.930 . S
C179 H176 0.929 . S
C179 C180 1.398 . S
C179 C181 1.396 . S
C180 C179 1.398 . S
C180 C184 1.407 . S
C181 C179 1.396 . S
C181 C182 1.394 . S
C182 H177 0.929 . S
C182 C181 1.394 . S
C182 C183 1.382 . S
C183 C182 1.382 . S
C183 C184 1.392 . S
C183 N185 1.420 . S
C184 H178 0.930 . S
C184 C180 1.407 . S
C184 C183 1.392 . S
N185 C183 1.420 . S
N185 C186 1.244 . S
C186 N185 1.244 . S
H187 C190 0.929 . S
H188 C193 0.929 . S
H189 C195 0.930 . S
C190 H187 0.929 . S
C190 C191 1.398 . S
C190 C192 1.396 . S
C191 C190 1.398 . S
C191 C195 1.407 . S
C192 C190 1.396 . S
C192 C193 1.394 . S
C193 H188 0.929 . S
C193 C192 1.394 . S
C193 C194 1.382 . S
C194 C193 1.382 . S
C194 C195 1.392 . S
C194 N196 1.420 . S
C195 H189 0.930 . S
C195 C191 1.407 . S
C195 C194 1.392 . S
N196 C194 1.420 . S
N196 C197 1.244 . S
C197 N196 1.244 . S
H198 C201 0.929 . S
H199 C204 0.929 . S
H200 C206 0.930 . S
C201 H198 0.929 . S
C201 C202 1.398 . S
C201 C203 1.396 . S
C202 C201 1.398 . S
C202 C206 1.407 . S
C203 C201 1.396 . S
C203 C204 1.394 . S
C204 H199 0.929 . S
C204 C203 1.394 . S
C204 C205 1.382 . S
C205 C204 1.382 . S
C205 C206 1.392 . S
C205 N207 1.420 . S
C206 H200 0.930 . S
C206 C202 1.407 . S
C206 C205 1.392 . S
N207 C205 1.420 . S
N207 C208 1.244 . S
C208 N207 1.244 . S
H209 C212 0.929 . S
H210 C215 0.929 . S
H211 C217 0.930 . S
C212 H209 0.929 . S
C212 C213 1.398 . S
C212 C214 1.396 . S
C213 C212 1.398 . S
C213 C217 1.407 . S
C214 C212 1.396 . S
C214 C215 1.394 . S
C215 H210 0.929 . S
C215 C214 1.394 . S
C215 C216 1.382 . S
C216 C215 1.382 . S
C216 C217 1.392 . S
C216 N218 1.420 . S
C217 H211 0.930 . S
C217 C213 1.407 . S
C217 C216 1.392 . S
N218 C216 1.420 . S
N218 C219 1.244 . S
C219 N218 1.244 . S
H220 C223 0.929 . S
H221 C226 0.929 . S
H222 C228 0.930 . S
C223 H220 0.929 . S
C223 C224 1.398 . S
C223 C225 1.396 . S
C224 C223 1.398 . S
C224 C228 1.407 . S
C225 C223 1.396 . S
C225 C226 1.394 . S
C226 H221 0.929 . S
C226 C225 1.394 . S
C226 C227 1.382 . S
C227 C226 1.382 . S
C227 C228 1.392 . S
C227 N229 1.420 . S
C228 H222 0.930 . S
C228 C224 1.407 . S
C228 C227 1.392 . S
N229 C227 1.420 . S
N229 C230 1.244 . S
C230 N229 1.244 . S
H231 C234 0.929 . S
H232 C237 0.929 . S
H233 C239 0.930 . S
C234 H231 0.929 . S
C234 C235 1.398 . S
C234 C236 1.396 . S
C235 C234 1.398 . S
C235 C239 1.407 . S
C236 C234 1.396 . S
C236 C237 1.394 . S
C237 H232 0.929 . S
C237 C236 1.394 . S
C237 C238 1.382 . S
C238 C237 1.382 . S
C238 C239 1.392 . S
C238 N240 1.420 . S
C239 H233 0.930 . S
C239 C235 1.407 . S
C239 C238 1.392 . S
N240 C238 1.420 . S
N240 C241 1.244 . S
C241 N240 1.244 . S
H242 C245 0.929 . S
H243 C248 0.929 . S
H244 C250 0.930 . S
C245 H242 0.929 . S
C245 C246 1.398 . S
C245 C247 1.396 . S
C246 C245 1.398 . S
C246 C250 1.407 . S
C247 C245 1.396 . S
C247 C248 1.394 . S
C248 H243 0.929 . S
C248 C247 1.394 . S
C248 C249 1.382 . S
C249 C248 1.382 . S
C249 C250 1.392 . S
C249 N251 1.420 . S
C250 H244 0.930 . S
C250 C246 1.407 . S
C250 C249 1.392 . S
N251 C249 1.420 . S
N251 C252 1.244 . S
C252 N251 1.244 . S
H253 C256 0.929 . S
H254 C259 0.929 . S
H255 C261 0.930 . S
C256 H253 0.929 . S
C256 C257 1.398 . S
C256 C258 1.396 . S
C257 C256 1.398 . S
C257 C261 1.407 . S
C258 C256 1.396 . S
C258 C259 1.394 . S
C259 H254 0.929 . S
C259 C258 1.394 . S
C259 C260 1.382 . S
C260 C259 1.382 . S
C260 C261 1.392 . S
C260 N262 1.420 . S
C261 H255 0.930 . S
C261 C257 1.407 . S
C261 C260 1.392 . S
N262 C260 1.420 . S
N262 C263 1.244 . S
C263 N262 1.244 . S
C264 O290 1.283 . S
C264 O308 1.283 . S
C265 O291 1.283 . S
C265 O306 1.283 . S
C266 O292 1.283 . S
C266 O309 1.283 . S
C267 O293 1.283 . S
C267 O307 1.283 . S
C268 O294 1.283 . S
C268 O303 1.283 . S
C269 O295 1.283 . S
C269 O305 1.283 . S
C270 O296 1.283 . S
C270 O302 1.283 . S
C271 O297 1.283 . S
C271 O304 1.283 . S
C272 O298 1.283 . S
C272 O313 1.283 . S
C273 O299 1.283 . S
C273 O311 1.283 . S
C274 O300 1.283 . S
C274 O312 1.283 . S
C275 O301 1.283 . S
C275 O310 1.283 . S
Eu276 O277 2.356 1_455 S
Eu276 O278 2.370 . S
Eu276 O281 2.356 1_455 S
Eu276 O282 2.370 . S
Eu276 O290 2.363 . S
Eu276 O291 2.363 . S
Eu276 O304 2.363 . S
Eu276 O305 2.363 1_455 S
O277 Eu276 2.356 1_655 S
O277 Eu279 2.384 1_565 S
O277 Eu284 2.354 1_665 S
O278 Eu276 2.370 . S
O278 Eu280 2.367 1_565 S
O278 Eu283 2.366 1_565 S
Eu279 O277 2.384 1_545 S
Eu279 O281 2.384 1_545 S
Eu279 O285 2.390 . S
Eu279 O286 2.391 . S
Eu279 O294 2.369 . S
Eu279 O295 2.357 1_545 S
Eu279 O310 2.363 . S
Eu279 O311 2.363 . S
Eu280 O278 2.367 1_545 S
Eu280 O282 2.367 1_545 S
Eu280 O287 2.373 . S
Eu280 O288 2.373 . S
Eu280 O296 2.368 . S
Eu280 O297 2.358 1_545 S
Eu280 O312 2.363 . S
Eu280 O313 2.363 . S
O281 Eu276 2.356 1_655 S
O281 Eu279 2.384 1_565 S
O281 Eu283 2.352 1_665 S
O282 Eu276 2.370 . S
O282 Eu280 2.367 1_565 S
O282 Eu284 2.368 1_565 S
Eu283 O278 2.366 1_545 S
Eu283 O281 2.352 1_445 S
Eu283 O285 2.360 1_455 S
Eu283 O288 2.374 . S
Eu283 O300 2.363 . S
Eu283 O301 2.363 1_455 S
Eu283 O308 2.356 1_545 S
Eu283 O309 2.370 . S
Eu284 O277 2.354 1_445 S
Eu284 O282 2.368 1_545 S
Eu284 O286 2.358 1_455 S
Eu284 O287 2.372 . S
Eu284 O298 2.363 . S
Eu284 O299 2.363 1_455 S
Eu284 O306 2.359 1_545 S
Eu284 O307 2.367 . S
O285 Eu279 2.390 . S
O285 Eu283 2.360 1_655 S
O285 Eu289 2.356 1_655 S
O286 Eu279 2.391 . S
O286 Eu284 2.358 1_655 S
O286 Eu289 2.356 1_655 S
O287 Eu280 2.373 . S
O287 Eu284 2.372 . S
O287 Eu289 2.370 . S
O288 Eu280 2.373 . S
O288 Eu283 2.374 . S
O288 Eu289 2.370 . S
Eu289 O285 2.356 1_455 S
Eu289 O286 2.356 1_455 S
Eu289 O287 2.370 . S
Eu289 O288 2.370 . S
Eu289 O292 2.363 . S
Eu289 O293 2.363 . S
Eu289 O302 2.363 . S
Eu289 O303 2.363 1_455 S
O290 C264 1.283 . S
O290 Eu276 2.363 . S
O291 C265 1.283 . S
O291 Eu276 2.363 . S
O292 C266 1.283 . S
O292 Eu289 2.363 . S
O293 C267 1.283 . S
O293 Eu289 2.363 . S
O294 C268 1.283 . S
O294 Eu279 2.369 . S
O295 C269 1.283 . S
O295 Eu279 2.357 1_565 S
O296 C270 1.283 . S
O296 Eu280 2.368 . S
O297 C271 1.283 . S
O297 Eu280 2.358 1_565 S
O298 C272 1.283 . S
O298 Eu284 2.363 . S
O299 C273 1.283 . S
O299 Eu284 2.363 1_655 S
O300 C274 1.283 . S
O300 Eu283 2.363 . S
O301 C275 1.283 . S
O301 Eu283 2.363 1_655 S
O302 C270 1.283 . S
O302 Eu289 2.363 . S
O303 C268 1.283 . S
O303 Eu289 2.363 1_655 S
O304 C271 1.283 . S
O304 Eu276 2.363 . S
O305 C269 1.283 . S
O305 Eu276 2.363 1_655 S
O306 C265 1.283 . S
O306 Eu284 2.359 1_565 S
O307 C267 1.283 . S
O307 Eu284 2.367 . S
O308 C264 1.283 . S
O308 Eu283 2.356 1_565 S
O309 C266 1.283 . S
O309 Eu283 2.370 . S
O310 C275 1.283 . S
O310 Eu279 2.363 . S
O311 C273 1.283 . S
O311 Eu279 2.363 . S
O312 C274 1.283 . S
O312 Eu280 2.363 . S
O313 C272 1.283 . S
O313 Eu280 2.363 . S
C314 O340 1.283 . S
C314 O358 1.283 . S
C315 O341 1.283 . S
C315 O356 1.283 . S
C316 O342 1.283 . S
C316 O359 1.283 . S
C317 O343 1.283 . S
C317 O357 1.283 . S
C318 O344 1.283 . S
C318 O353 1.283 . S
C319 O345 1.283 . S
C319 O355 1.283 . S
C320 O346 1.283 . S
C320 O352 1.283 . S
C321 O347 1.283 . S
C321 O354 1.283 . S
C322 O348 1.283 . S
C322 O363 1.283 . S
C323 O349 1.283 . S
C323 O361 1.283 . S
C324 O350 1.283 . S
C324 O362 1.283 . S
C325 O351 1.283 . S
C325 O360 1.283 . S
Eu326 O327 2.372 . S
Eu326 O328 2.369 1_545 S
Eu326 O331 2.369 1_545 S
Eu326 O332 2.372 . S
Eu326 O340 2.360 1_545 S
Eu326 O341 2.366 . S
Eu326 O354 2.363 . S
Eu326 O355 2.363 . S
O327 Eu326 2.372 . S
O327 Eu329 2.373 . S
O327 Eu334 2.370 . S
O328 Eu326 2.369 1_565 S
O328 Eu330 2.367 1_565 S
O328 Eu333 2.370 . S
Eu329 O327 2.373 . S
Eu329 O331 2.367 1_545 S
Eu329 O335 2.367 1_544 S
Eu329 O336 2.373 1_554 S
Eu329 O344 2.363 1_554 S
Eu329 O345 2.363 . S
Eu329 O360 2.358 1_545 S
Eu329 O361 2.368 . S
Eu330 O328 2.367 1_545 S
Eu330 O332 2.373 . S
Eu330 O337 2.373 1_554 S
Eu330 O338 2.367 1_544 S
Eu330 O346 2.363 1_554 S
Eu330 O347 2.363 . S
Eu330 O362 2.358 1_545 S
Eu330 O363 2.368 . S
O331 Eu326 2.369 1_565 S
O331 Eu329 2.367 1_565 S
O331 Eu333 2.370 . S
O332 Eu326 2.372 . S
O332 Eu330 2.373 . S
O332 Eu334 2.370 . S
Eu333 O328 2.370 . S
Eu333 O331 2.370 . S
Eu333 O335 2.370 1_554 S
Eu333 O338 2.370 1_554 S
Eu333 O350 2.363 . S
Eu333 O351 2.363 . S
Eu333 O358 2.363 . S
Eu333 O359 2.363 1_554 S
Eu334 O327 2.370 . S
Eu334 O332 2.370 . S
Eu334 O336 2.370 1_554 S
Eu334 O337 2.370 1_554 S
Eu334 O348 2.363 . S
Eu334 O349 2.363 . S
Eu334 O356 2.363 . S
Eu334 O357 2.363 1_554 S
O335 Eu329 2.367 1_566 S
O335 Eu333 2.370 1_556 S
O335 Eu339 2.365 1_565 S
O336 Eu329 2.373 1_556 S
O336 Eu334 2.370 1_556 S
O336 Eu339 2.375 . S
O337 Eu330 2.373 1_556 S
O337 Eu334 2.370 1_556 S
O337 Eu339 2.375 . S
O338 Eu330 2.367 1_566 S
O338 Eu333 2.370 1_556 S
O338 Eu339 2.365 1_565 S
Eu339 O335 2.365 1_545 S
Eu339 O336 2.375 . S
Eu339 O337 2.375 . S
Eu339 O338 2.365 1_545 S
Eu339 O342 2.355 1_545 S
Eu339 O343 2.371 . S
Eu339 O352 2.363 . S
Eu339 O353 2.363 . S
O340 C314 1.283 . S
O340 Eu326 2.360 1_565 S
O341 C315 1.283 . S
O341 Eu326 2.366 . S
O342 C316 1.283 . S
O342 Eu339 2.355 1_565 S
O343 C317 1.283 . S
O343 Eu339 2.371 . S
O344 C318 1.283 . S
O344 Eu329 2.363 1_556 S
O345 C319 1.283 . S
O345 Eu329 2.363 . S
O346 C320 1.283 . S
O346 Eu330 2.363 1_556 S
O347 C321 1.283 . S
O347 Eu330 2.363 . S
O348 C322 1.283 . S
O348 Eu334 2.363 . S
O349 C323 1.283 . S
O349 Eu334 2.363 . S
O350 C324 1.283 . S
O350 Eu333 2.363 . S
O351 C325 1.283 . S
O351 Eu333 2.363 . S
O352 C320 1.283 . S
O352 Eu339 2.363 . S
O353 C318 1.283 . S
O353 Eu339 2.363 . S
O354 C321 1.283 . S
O354 Eu326 2.363 . S
O355 C319 1.283 . S
O355 Eu326 2.363 . S
O356 C315 1.283 . S
O356 Eu334 2.363 . S
O357 C317 1.283 . S
O357 Eu334 2.363 1_556 S
O358 C314 1.283 . S
O358 Eu333 2.363 . S
O359 C316 1.283 . S
O359 Eu333 2.363 1_556 S
O360 C325 1.283 . S
O360 Eu329 2.358 1_565 S
O361 C323 1.283 . S
O361 Eu329 2.368 . S
O362 C324 1.283 . S
O362 Eu330 2.358 1_565 S
O363 C322 1.283 . S
O363 Eu330 2.368 . S
C364 O390 1.283 . S
C364 O408 1.283 . S
C365 O391 1.283 . S
C365 O406 1.283 . S
C366 O392 1.283 . S
C366 O409 1.283 . S
C367 O393 1.283 . S
C367 O407 1.283 . S
C368 O394 1.283 . S
C368 O403 1.283 . S
C369 O395 1.283 . S
C369 O405 1.283 . S
C370 O396 1.283 . S
C370 O402 1.283 . S
C371 O397 1.283 . S
C371 O404 1.283 . S
C372 O398 1.283 . S
C372 O413 1.283 . S
C373 O399 1.283 . S
C373 O411 1.283 . S
C374 O400 1.283 . S
C374 O412 1.283 . S
C375 O401 1.283 . S
C375 O410 1.283 . S
Eu376 O377 2.348 1_454 S
Eu376 O378 2.392 . S
Eu376 O381 2.392 1_455 S
Eu376 O382 2.348 1_554 S
Eu376 O390 2.400 . S
Eu376 O391 2.326 1_554 S
Eu376 O404 2.363 . S
Eu376 O405 2.363 1_455 S
O377 Eu376 2.348 1_656 S
O377 Eu379 2.350 1_556 S
O377 Eu384 2.370 1_655 S
O378 Eu376 2.392 . S
O378 Eu380 2.392 . S
O378 Eu383 2.370 . S
Eu379 O377 2.350 1_554 S
Eu379 O381 2.391 . S
Eu379 O385 2.391 . S
Eu379 O386 2.350 1_554 S
Eu379 O394 2.363 . S
Eu379 O395 2.363 . S
Eu379 O410 2.398 . S
Eu379 O411 2.328 1_554 S
Eu380 O378 2.392 . S
Eu380 O382 2.348 1_554 S
Eu380 O387 2.348 1_554 S
Eu380 O388 2.392 . S
Eu380 O396 2.363 . S
Eu380 O397 2.363 . S
Eu380 O412 2.400 . S
Eu380 O413 2.326 1_554 S
O381 Eu376 2.392 1_655 S
O381 Eu379 2.391 . S
O381 Eu383 2.370 1_655 S
O382 Eu376 2.348 1_556 S
O382 Eu380 2.348 1_556 S
O382 Eu384 2.370 . S
Eu383 O378 2.370 . S
Eu383 O381 2.370 1_455 S
Eu383 O385 2.370 1_455 S
Eu383 O388 2.370 . S
Eu383 O400 2.363 . S
Eu383 O401 2.363 1_455 S
Eu383 O408 2.363 . S
Eu383 O409 2.363 . S
Eu384 O377 2.370 1_455 S
Eu384 O382 2.370 . S
Eu384 O386 2.370 1_455 S
Eu384 O387 2.370 . S
Eu384 O398 2.363 . S
Eu384 O399 2.363 1_455 S
Eu384 O406 2.363 . S
Eu384 O407 2.363 . S
O385 Eu379 2.391 . S
O385 Eu383 2.370 1_655 S
O385 Eu389 2.391 1_655 S
O386 Eu379 2.350 1_556 S
O386 Eu384 2.370 1_655 S
O386 Eu389 2.350 1_656 S
O387 Eu380 2.348 1_556 S
O387 Eu384 2.370 . S
O387 Eu389 2.350 1_556 S
O388 Eu380 2.392 . S
O388 Eu383 2.370 . S
O388 Eu389 2.391 . S
Eu389 O385 2.391 1_455 S
Eu389 O386 2.350 1_454 S
Eu389 O387 2.350 1_554 S
Eu389 O388 2.391 . S
Eu389 O392 2.397 . S
Eu389 O393 2.329 1_554 S
Eu389 O402 2.363 . S
Eu389 O403 2.363 1_455 S
O390 C364 1.283 . S
O390 Eu376 2.400 . S
O391 C365 1.283 . S
O391 Eu376 2.326 1_556 S
O392 C366 1.283 . S
O392 Eu389 2.397 . S
O393 C367 1.283 . S
O393 Eu389 2.329 1_556 S
O394 C368 1.283 . S
O394 Eu379 2.363 . S
O395 C369 1.283 . S
O395 Eu379 2.363 . S
O396 C370 1.283 . S
O396 Eu380 2.363 . S
O397 C371 1.283 . S
O397 Eu380 2.363 . S
O398 C372 1.283 . S
O398 Eu384 2.363 . S
O399 C373 1.283 . S
O399 Eu384 2.363 1_655 S
O400 C374 1.283 . S
O400 Eu383 2.363 . S
O401 C375 1.283 . S
O401 Eu383 2.363 1_655 S
O402 C370 1.283 . S
O402 Eu389 2.363 . S
O403 C368 1.283 . S
O403 Eu389 2.363 1_655 S
O404 C371 1.283 . S
O404 Eu376 2.363 . S
O405 C369 1.283 . S
O405 Eu376 2.363 1_655 S
O406 C365 1.283 . S
O406 Eu384 2.363 . S
O407 C367 1.283 . S
O407 Eu384 2.363 . S
O408 C364 1.283 . S
O408 Eu383 2.363 . S
O409 C366 1.283 . S
O409 Eu383 2.363 . S
O410 C375 1.283 . S
O410 Eu379 2.398 . S
O411 C373 1.283 . S
O411 Eu379 2.328 1_556 S
O412 C374 1.283 . S
O412 Eu380 2.400 . S
O413 C372 1.283 . S
O413 Eu380 2.326 1_556 S
C414 O440 1.283 . S
C414 O458 1.283 . S
C415 O441 1.283 . S
C415 O456 1.283 . S
C416 O442 1.283 . S
C416 O459 1.283 . S
C417 O443 1.283 . S
C417 O457 1.283 . S
C418 O444 1.283 . S
C418 O453 1.283 . S
C419 O445 1.283 . S
C419 O455 1.283 . S
C420 O446 1.283 . S
C420 O452 1.283 . S
C421 O447 1.283 . S
C421 O454 1.283 . S
C422 O448 1.283 . S
C422 O463 1.283 . S
C423 O449 1.283 . S
C423 O461 1.283 . S
C424 O450 1.283 . S
C424 O462 1.283 . S
C425 O451 1.283 . S
C425 O460 1.283 . S
Eu426 O427 2.370 . S
Eu426 O428 2.370 . S
Eu426 O431 2.370 . S
Eu426 O432 2.370 . S
Eu426 O440 2.363 . S
Eu426 O441 2.363 . S
Eu426 O454 2.363 . S
Eu426 O455 2.363 . S
O427 Eu426 2.370 . S
O427 Eu429 2.370 . S
O427 Eu434 2.370 . S
O428 Eu426 2.370 . S
O428 Eu430 2.370 . S
O428 Eu433 2.370 . S
Eu429 O427 2.370 . S
Eu429 O431 2.370 . S
Eu429 O435 2.370 1_554 S
Eu429 O436 2.370 1_554 S
Eu429 O444 2.363 1_554 S
Eu429 O445 2.363 . S
Eu429 O460 2.363 . S
Eu429 O461 2.363 . S
Eu430 O428 2.370 . S
Eu430 O432 2.370 . S
Eu430 O437 2.370 1_554 S
Eu430 O438 2.370 1_554 S
Eu430 O446 2.363 1_554 S
Eu430 O447 2.363 . S
Eu430 O462 2.363 . S
Eu430 O463 2.363 . S
O431 Eu426 2.370 . S
O431 Eu429 2.370 . S
O431 Eu433 2.370 . S
O432 Eu426 2.370 . S
O432 Eu430 2.370 . S
O432 Eu434 2.370 . S
Eu433 O428 2.370 . S
Eu433 O431 2.370 . S
Eu433 O435 2.370 1_554 S
Eu433 O438 2.370 1_554 S
Eu433 O450 2.363 . S
Eu433 O451 2.363 . S
Eu433 O458 2.363 . S
Eu433 O459 2.363 1_554 S
Eu434 O427 2.370 . S
Eu434 O432 2.370 . S
Eu434 O436 2.370 1_554 S
Eu434 O437 2.370 1_554 S
Eu434 O448 2.363 . S
Eu434 O449 2.363 . S
Eu434 O456 2.363 . S
Eu434 O457 2.363 1_554 S
O435 Eu429 2.370 1_556 S
O435 Eu433 2.370 1_556 S
O435 Eu439 2.370 . S
O436 Eu429 2.370 1_556 S
O436 Eu434 2.370 1_556 S
O436 Eu439 2.370 . S
O437 Eu430 2.370 1_556 S
O437 Eu434 2.370 1_556 S
O437 Eu439 2.370 . S
O438 Eu430 2.370 1_556 S
O438 Eu433 2.370 1_556 S
O438 Eu439 2.370 . S
Eu439 O435 2.370 . S
Eu439 O436 2.370 . S
Eu439 O437 2.370 . S
Eu439 O438 2.370 . S
Eu439 O442 2.363 . S
Eu439 O443 2.363 . S
Eu439 O452 2.363 . S
Eu439 O453 2.363 . S
O440 C414 1.283 . S
O440 Eu426 2.363 . S
O441 C415 1.283 . S
O441 Eu426 2.363 . S
O442 C416 1.283 . S
O442 Eu439 2.363 . S
O443 C417 1.283 . S
O443 Eu439 2.363 . S
O444 C418 1.283 . S
O444 Eu429 2.363 1_556 S
O445 C419 1.283 . S
O445 Eu429 2.363 . S
O446 C420 1.283 . S
O446 Eu430 2.363 1_556 S
O447 C421 1.283 . S
O447 Eu430 2.363 . S
O448 C422 1.283 . S
O448 Eu434 2.363 . S
O449 C423 1.283 . S
O449 Eu434 2.363 . S
O450 C424 1.283 . S
O450 Eu433 2.363 . S
O451 C425 1.283 . S
O451 Eu433 2.363 . S
O452 C420 1.283 . S
O452 Eu439 2.363 . S
O453 C418 1.283 . S
O453 Eu439 2.363 . S
O454 C421 1.283 . S
O454 Eu426 2.363 . S
O455 C419 1.283 . S
O455 Eu426 2.363 . S
O456 C415 1.283 . S
O456 Eu434 2.363 . S
O457 C417 1.283 . S
O457 Eu434 2.363 1_556 S
O458 C414 1.283 . S
O458 Eu433 2.363 . S
O459 C416 1.283 . S
O459 Eu433 2.363 1_556 S
O460 C425 1.283 . S
O460 Eu429 2.363 . S
O461 C423 1.283 . S
O461 Eu429 2.363 . S
O462 C424 1.283 . S
O462 Eu430 2.363 . S
O463 C422 1.283 . S
O463 Eu430 2.363 . S
C464 O490 1.283 . S
C464 O508 1.283 . S
C465 O491 1.283 . S
C465 O506 1.283 . S
C466 O492 1.283 . S
C466 O509 1.283 . S
C467 O493 1.283 . S
C467 O507 1.283 . S
C468 O494 1.283 . S
C468 O503 1.283 . S
C469 O495 1.283 . S
C469 O505 1.283 . S
C470 O496 1.283 . S
C470 O502 1.283 . S
C471 O497 1.283 . S
C471 O504 1.283 . S
C472 O498 1.283 . S
C472 O513 1.283 . S
C473 O499 1.283 . S
C473 O511 1.283 . S
C474 O500 1.283 . S
C474 O512 1.283 . S
C475 O501 1.283 . S
C475 O510 1.283 . S
Eu476 O477 2.370 1_455 S
Eu476 O478 2.370 . S
Eu476 O481 2.370 1_455 S
Eu476 O482 2.370 . S
Eu476 O490 2.363 . S
Eu476 O491 2.363 . S
Eu476 O504 2.363 . S
Eu476 O505 2.363 1_455 S
O477 Eu476 2.370 1_655 S
O477 Eu479 2.370 . S
O477 Eu484 2.370 1_655 S
O478 Eu476 2.370 . S
O478 Eu480 2.370 . S
O478 Eu483 2.370 . S
Eu479 O477 2.370 . S
Eu479 O481 2.370 . S
Eu479 O485 2.370 . S
Eu479 O486 2.370 . S
Eu479 O494 2.363 . S
Eu479 O495 2.363 . S
Eu479 O510 2.363 . S
Eu479 O511 2.363 . S
Eu480 O478 2.370 . S
Eu480 O482 2.370 . S
Eu480 O487 2.370 . S
Eu480 O488 2.370 . S
Eu480 O496 2.363 . S
Eu480 O497 2.363 . S
Eu480 O512 2.363 . S
Eu480 O513 2.363 . S
O481 Eu476 2.370 1_655 S
O481 Eu479 2.370 . S
O481 Eu483 2.370 1_655 S
O482 Eu476 2.370 . S
O482 Eu480 2.370 . S
O482 Eu484 2.370 . S
Eu483 O478 2.370 . S
Eu483 O481 2.370 1_455 S
Eu483 O485 2.370 1_455 S
Eu483 O488 2.370 . S
Eu483 O500 2.363 . S
Eu483 O501 2.363 1_455 S
Eu483 O508 2.363 . S
Eu483 O509 2.363 . S
Eu484 O477 2.370 1_455 S
Eu484 O482 2.370 . S
Eu484 O486 2.370 1_455 S
Eu484 O487 2.370 . S
Eu484 O498 2.363 . S
Eu484 O499 2.363 1_455 S
Eu484 O506 2.363 . S
Eu484 O507 2.363 . S
O485 Eu479 2.370 . S
O485 Eu483 2.370 1_655 S
O485 Eu489 2.370 1_655 S
O486 Eu479 2.370 . S
O486 Eu484 2.370 1_655 S
O486 Eu489 2.370 1_655 S
O487 Eu480 2.370 . S
O487 Eu484 2.370 . S
O487 Eu489 2.370 . S
O488 Eu480 2.370 . S
O488 Eu483 2.370 . S
O488 Eu489 2.370 . S
Eu489 O485 2.370 1_455 S
Eu489 O486 2.370 1_455 S
Eu489 O487 2.370 . S
Eu489 O488 2.370 . S
Eu489 O492 2.363 . S
Eu489 O493 2.363 . S
Eu489 O502 2.363 . S
Eu489 O503 2.363 1_455 S
O490 C464 1.283 . S
O490 Eu476 2.363 . S
O491 C465 1.283 . S
O491 Eu476 2.363 . S
O492 C466 1.283 . S
O492 Eu489 2.363 . S
O493 C467 1.283 . S
O493 Eu489 2.363 . S
O494 C468 1.283 . S
O494 Eu479 2.363 . S
O495 C469 1.283 . S
O495 Eu479 2.363 . S
O496 C470 1.283 . S
O496 Eu480 2.363 . S
O497 C471 1.283 . S
O497 Eu480 2.363 . S
O498 C472 1.283 . S
O498 Eu484 2.363 . S
O499 C473 1.283 . S
O499 Eu484 2.363 1_655 S
O500 C474 1.283 . S
O500 Eu483 2.363 . S
O501 C475 1.283 . S
O501 Eu483 2.363 1_655 S
O502 C470 1.283 . S
O502 Eu489 2.363 . S
O503 C468 1.283 . S
O503 Eu489 2.363 1_655 S
O504 C471 1.283 . S
O504 Eu476 2.363 . S
O505 C469 1.283 . S
O505 Eu476 2.363 1_655 S
O506 C465 1.283 . S
O506 Eu484 2.363 . S
O507 C467 1.283 . S
O507 Eu484 2.363 . S
O508 C464 1.283 . S
O508 Eu483 2.363 . S
O509 C466 1.283 . S
O509 Eu483 2.363 . S
O510 C475 1.283 . S
O510 Eu479 2.363 . S
O511 C473 1.283 . S
O511 Eu479 2.363 . S
O512 C474 1.283 . S
O512 Eu480 2.363 . S
O513 C472 1.283 . S
O513 Eu480 2.363 . S
C514 O540 1.283 . S
C514 O558 1.283 . S
C515 O541 1.283 . S
C515 O556 1.283 . S
C516 O542 1.283 . S
C516 O559 1.283 . S
C517 O543 1.283 . S
C517 O557 1.283 . S
C518 O544 1.283 . S
C518 O553 1.283 . S
C519 O545 1.283 . S
C519 O555 1.283 . S
C520 O546 1.283 . S
C520 O552 1.283 . S
C521 O547 1.283 . S
C521 O554 1.283 . S
C522 O548 1.283 . S
C522 O563 1.283 . S
C523 O549 1.283 . S
C523 O561 1.283 . S
C524 O550 1.283 . S
C524 O562 1.283 . S
C525 O551 1.283 . S
C525 O560 1.283 . S
Eu526 O527 2.370 . S
Eu526 O528 2.370 . S
Eu526 O531 2.370 . S
Eu526 O532 2.370 . S
Eu526 O540 2.363 . S
Eu526 O541 2.363 . S
Eu526 O554 2.363 . S
Eu526 O555 2.363 . S
O527 Eu526 2.370 . S
O527 Eu529 2.367 1_565 S
O527 Eu534 2.367 1_565 S
O528 Eu526 2.370 . S
O528 Eu530 2.367 1_565 S
O528 Eu533 2.366 1_565 S
Eu529 O527 2.367 1_545 S
Eu529 O531 2.367 1_545 S
Eu529 O535 2.374 . S
Eu529 O536 2.374 . S
Eu529 O544 2.369 . S
Eu529 O545 2.357 1_545 S
Eu529 O560 2.363 . S
Eu529 O561 2.363 . S
Eu530 O528 2.367 1_545 S
Eu530 O532 2.367 1_545 S
Eu530 O537 2.374 . S
Eu530 O538 2.374 . S
Eu530 O546 2.369 . S
Eu530 O547 2.357 1_545 S
Eu530 O562 2.363 . S
Eu530 O563 2.363 . S
O531 Eu526 2.370 . S
O531 Eu529 2.367 1_565 S
O531 Eu533 2.366 1_565 S
O532 Eu526 2.370 . S
O532 Eu530 2.367 1_565 S
O532 Eu534 2.367 1_565 S
Eu533 O528 2.366 1_545 S
Eu533 O531 2.366 1_545 S
Eu533 O535 2.374 . S
Eu533 O538 2.374 . S
Eu533 O550 2.363 . S
Eu533 O551 2.363 . S
Eu533 O558 2.356 1_545 S
Eu533 O559 2.370 . S
Eu534 O527 2.367 1_545 S
Eu534 O532 2.367 1_545 S
Eu534 O536 2.373 . S
Eu534 O537 2.373 . S
Eu534 O548 2.363 . S
Eu534 O549 2.363 . S
Eu534 O556 2.358 1_545 S
Eu534 O557 2.367 . S
O535 Eu529 2.374 . S
O535 Eu533 2.374 . S
O535 Eu539 2.370 . S
O536 Eu529 2.374 . S
O536 Eu534 2.373 . S
O536 Eu539 2.370 . S
O537 Eu530 2.374 . S
O537 Eu534 2.373 . S
O537 Eu539 2.370 . S
O538 Eu530 2.374 . S
O538 Eu533 2.374 . S
O538 Eu539 2.370 . S
Eu539 O535 2.370 . S
Eu539 O536 2.370 . S
Eu539 O537 2.370 . S
Eu539 O538 2.370 . S
Eu539 O542 2.363 . S
Eu539 O543 2.363 . S
Eu539 O552 2.363 . S
Eu539 O553 2.363 . S
O540 C514 1.283 . S
O540 Eu526 2.363 . S
O541 C515 1.283 . S
O541 Eu526 2.363 . S
O542 C516 1.283 . S
O542 Eu539 2.363 . S
O543 C517 1.283 . S
O543 Eu539 2.363 . S
O544 C518 1.283 . S
O544 Eu529 2.369 . S
O545 C519 1.283 . S
O545 Eu529 2.357 1_565 S
O546 C520 1.283 . S
O546 Eu530 2.369 . S
O547 C521 1.283 . S
O547 Eu530 2.357 1_565 S
O548 C522 1.283 . S
O548 Eu534 2.363 . S
O549 C523 1.283 . S
O549 Eu534 2.363 . S
O550 C524 1.283 . S
O550 Eu533 2.363 . S
O551 C525 1.283 . S
O551 Eu533 2.363 . S
O552 C520 1.283 . S
O552 Eu539 2.363 . S
O553 C518 1.283 . S
O553 Eu539 2.363 . S
O554 C521 1.283 . S
O554 Eu526 2.363 . S
O555 C519 1.283 . S
O555 Eu526 2.363 . S
O556 C515 1.283 . S
O556 Eu534 2.358 1_565 S
O557 C517 1.283 . S
O557 Eu534 2.367 . S
O558 C514 1.283 . S
O558 Eu533 2.356 1_565 S
O559 C516 1.283 . S
O559 Eu533 2.370 . S
O560 C525 1.283 . S
O560 Eu529 2.363 . S
O561 C523 1.283 . S
O561 Eu529 2.363 . S
O562 C524 1.283 . S
O562 Eu530 2.363 . S
O563 C522 1.283 . S
O563 Eu530 2.363 . S
H564 C572 0.950 . S
H565 C577 0.950 . S
H566 C574 0.950 . S
H567 C576 0.950 . S
H568 C578 0.950 . S
H569 C580 0.950 . S
H570 C582 0.950 . S
H571 C583 0.950 . S
C572 H564 0.950 . S
C572 C573 1.386 . S
C572 C574 1.391 . S
C573 C572 1.386 . S
C573 C577 1.393 . S
C574 H566 0.950 . S
C574 C572 1.391 . S
C574 C575 1.400 . S
C575 C574 1.400 . S
C575 C576 1.398 . S
C575 C581 1.491 . S
C576 H567 0.950 . S
C576 C575 1.398 . S
C576 C577 1.391 . S
C577 H565 0.950 . S
C577 C573 1.393 . S
C577 C576 1.391 . S
C578 H568 0.950 . S
C578 C579 1.386 . S
C578 C580 1.391 . S
C579 C578 1.386 . S
C579 C583 1.393 . S
C580 H569 0.950 . S
C580 C578 1.391 . S
C580 C581 1.400 . S
C581 C575 1.491 . S
C581 C580 1.400 . S
C581 C582 1.398 . S
C582 H570 0.950 . S
C582 C581 1.398 . S
C582 C583 1.391 . S
C583 H571 0.950 . S
C583 C579 1.393 . S
C583 C582 1.391 . S
H584 C592 0.950 . S
H585 C597 0.950 . S
H586 C594 0.950 . S
H587 C596 0.950 . S
H588 C598 0.950 . S
H589 C600 0.950 . S
H590 C602 0.950 . S
H591 C603 0.950 . S
C592 H584 0.950 . S
C592 C593 1.386 . S
C592 C594 1.391 . S
C593 C592 1.386 . S
C593 C597 1.393 . S
C594 H586 0.950 . S
C594 C592 1.391 . S
C594 C595 1.400 . S
C595 C594 1.400 . S
C595 C596 1.398 . S
C595 C601 1.491 . S
C596 H587 0.950 . S
C596 C595 1.398 . S
C596 C597 1.391 . S
C597 H585 0.950 . S
C597 C593 1.393 . S
C597 C596 1.391 . S
C598 H588 0.950 . S
C598 C599 1.386 . S
C598 C600 1.391 . S
C599 C598 1.386 . S
C599 C603 1.393 . S
C600 H589 0.950 . S
C600 C598 1.391 . S
C600 C601 1.400 . S
C601 C595 1.491 . S
C601 C600 1.400 . S
C601 C602 1.398 . S
C602 H590 0.950 . S
C602 C601 1.398 . S
C602 C603 1.391 . S
C603 H591 0.950 . S
C603 C599 1.393 . S
C603 C602 1.391 . S
H604 C612 0.950 . S
H605 C617 0.950 . S
H606 C614 0.950 . S
H607 C616 0.950 . S
H608 C618 0.950 . S
H609 C620 0.950 . S
H610 C622 0.950 . S
H611 C623 0.950 . S
C612 H604 0.950 . S
C612 C613 1.386 . S
C612 C614 1.391 . S
C613 C612 1.386 . S
C613 C617 1.393 . S
C614 H606 0.950 . S
C614 C612 1.391 . S
C614 C615 1.400 . S
C615 C614 1.400 . S
C615 C616 1.398 . S
C615 C621 1.491 . S
C616 H607 0.950 . S
C616 C615 1.398 . S
C616 C617 1.391 . S
C617 H605 0.950 . S
C617 C613 1.393 . S
C617 C616 1.391 . S
C618 H608 0.950 . S
C618 C619 1.386 . S
C618 C620 1.391 . S
C619 C618 1.386 . S
C619 C623 1.393 . S
C620 H609 0.950 . S
C620 C618 1.391 . S
C620 C621 1.400 . S
C621 C615 1.491 . S
C621 C620 1.400 . S
C621 C622 1.398 . S
C622 H610 0.950 . S
C622 C621 1.398 . S
C622 C623 1.391 . S
C623 H611 0.950 . S
C623 C619 1.393 . S
C623 C622 1.391 . S
H624 C632 0.950 . S
H625 C637 0.950 . S
H626 C634 0.950 . S
H627 C636 0.950 . S
H628 C638 0.950 . S
H629 C640 0.950 . S
H630 C642 0.950 . S
H631 C643 0.950 . S
C632 H624 0.950 . S
C632 C633 1.386 . S
C632 C634 1.391 . S
C633 C632 1.386 . S
C633 C637 1.393 . S
C634 H626 0.950 . S
C634 C632 1.391 . S
C634 C635 1.400 . S
C635 C634 1.400 . S
C635 C636 1.398 . S
C635 C641 1.491 . S
C636 H627 0.950 . S
C636 C635 1.398 . S
C636 C637 1.391 . S
C637 H625 0.950 . S
C637 C633 1.393 . S
C637 C636 1.391 . S
C638 H628 0.950 . S
C638 C639 1.386 . S
C638 C640 1.391 . S
C639 C638 1.386 . S
C639 C643 1.393 . S
C640 H629 0.950 . S
C640 C638 1.391 . S
C640 C641 1.400 . S
C641 C635 1.491 . S
C641 C640 1.400 . S
C641 C642 1.398 . S
C642 H630 0.950 . S
C642 C641 1.398 . S
C642 C643 1.391 . S
C643 H631 0.950 . S
C643 C639 1.393 . S
C643 C642 1.391 . S
H644 C652 0.950 . S
H645 C657 0.950 . S
H646 C654 0.950 . S
H647 C656 0.950 . S
H648 C658 0.950 . S
H649 C660 0.950 . S
H650 C662 0.950 . S
H651 C663 0.950 . S
C652 H644 0.950 . S
C652 C653 1.386 . S
C652 C654 1.391 . S
C653 C652 1.386 . S
C653 C657 1.393 . S
C654 H646 0.950 . S
C654 C652 1.391 . S
C654 C655 1.400 . S
C655 C654 1.400 . S
C655 C656 1.398 . S
C655 C661 1.491 . S
C656 H647 0.950 . S
C656 C655 1.398 . S
C656 C657 1.391 . S
C657 H645 0.950 . S
C657 C653 1.393 . S
C657 C656 1.391 . S
C658 H648 0.950 . S
C658 C659 1.386 . S
C658 C660 1.391 . S
C659 C658 1.386 . S
C659 C663 1.393 . S
C660 H649 0.950 . S
C660 C658 1.391 . S
C660 C661 1.400 . S
C661 C655 1.491 . S
C661 C660 1.400 . S
C661 C662 1.398 . S
C662 H650 0.950 . S
C662 C661 1.398 . S
C662 C663 1.391 . S
C663 H651 0.950 . S
C663 C659 1.393 . S
C663 C662 1.391 . S
H664 C672 0.950 . S
H665 C677 0.950 . S
H666 C674 0.950 . S
H667 C676 0.950 . S
H668 C678 0.950 . S
H669 C680 0.950 . S
H670 C682 0.950 . S
H671 C683 0.950 . S
C672 H664 0.950 . S
C672 C673 1.386 . S
C672 C674 1.391 . S
C673 C672 1.386 . S
C673 C677 1.393 . S
C674 H666 0.950 . S
C674 C672 1.391 . S
C674 C675 1.400 . S
C675 C674 1.400 . S
C675 C676 1.398 . S
C675 C681 1.491 . S
C676 H667 0.950 . S
C676 C675 1.398 . S
C676 C677 1.391 . S
C677 H665 0.950 . S
C677 C673 1.393 . S
C677 C676 1.391 . S
C678 H668 0.950 . S
C678 C679 1.386 . S
C678 C680 1.391 . S
C679 C678 1.386 . S
C679 C683 1.393 . S
C680 H669 0.950 . S
C680 C678 1.391 . S
C680 C681 1.400 . S
C681 C675 1.491 . S
C681 C680 1.400 . S
C681 C682 1.398 . S
C682 H670 0.950 . S
C682 C681 1.398 . S
C682 C683 1.391 . S
C683 H671 0.950 . S
C683 C679 1.393 . S
C683 C682 1.391 . S
H684 C692 0.950 . S
H685 C697 0.950 . S
H686 C694 0.950 . S
H687 C696 0.950 . S
H688 C698 0.950 . S
H689 C700 0.950 . S
H690 C702 0.950 . S
H691 C703 0.950 . S
C692 H684 0.950 . S
C692 C693 1.386 . S
C692 C694 1.391 . S
C693 C692 1.386 . S
C693 C697 1.393 . S
C694 H686 0.950 . S
C694 C692 1.391 . S
C694 C695 1.400 . S
C695 C694 1.400 . S
C695 C696 1.398 . S
C695 C701 1.491 . S
C696 H687 0.950 . S
C696 C695 1.398 . S
C696 C697 1.391 . S
C697 H685 0.950 . S
C697 C693 1.393 . S
C697 C696 1.391 . S
C698 H688 0.950 . S
C698 C699 1.386 . S
C698 C700 1.391 . S
C699 C698 1.386 . S
C699 C703 1.393 . S
C700 H689 0.950 . S
C700 C698 1.391 . S
C700 C701 1.400 . S
C701 C695 1.491 . S
C701 C700 1.400 . S
C701 C702 1.398 . S
C702 H690 0.950 . S
C702 C701 1.398 . S
C702 C703 1.391 . S
C703 H691 0.950 . S
C703 C699 1.393 . S
C703 C702 1.391 . S
H704 C712 0.950 . S
H705 C717 0.950 . S
H706 C714 0.950 . S
H707 C716 0.950 . S
H708 C718 0.950 . S
H709 C720 0.950 . S
H710 C722 0.950 . S
H711 C723 0.950 . S
C712 H704 0.950 . S
C712 C713 1.386 . S
C712 C714 1.391 . S
C713 C712 1.386 . S
C713 C717 1.393 . S
C714 H706 0.950 . S
C714 C712 1.391 . S
C714 C715 1.400 . S
C715 C714 1.400 . S
C715 C716 1.398 . S
C715 C721 1.491 . S
C716 H707 0.950 . S
C716 C715 1.398 . S
C716 C717 1.391 . S
C717 H705 0.950 . S
C717 C713 1.393 . S
C717 C716 1.391 . S
C718 H708 0.950 . S
C718 C719 1.386 . S
C718 C720 1.391 . S
C719 C718 1.386 . S
C719 C723 1.393 . S
C720 H709 0.950 . S
C720 C718 1.391 . S
C720 C721 1.400 . S
C721 C715 1.491 . S
C721 C720 1.400 . S
C721 C722 1.398 . S
C722 H710 0.950 . S
C722 C721 1.398 . S
C722 C723 1.391 . S
C723 H711 0.950 . S
C723 C719 1.393 . S
C723 C722 1.391 . S
H724 C732 0.950 . S
H725 C737 0.950 . S
H726 C734 0.950 . S
H727 C736 0.950 . S
H728 C738 0.950 . S
H729 C740 0.950 . S
H730 C742 0.950 . S
H731 C743 0.950 . S
C732 H724 0.950 . S
C732 C733 1.386 . S
C732 C734 1.391 . S
C733 C732 1.386 . S
C733 C737 1.393 . S
C734 H726 0.950 . S
C734 C732 1.391 . S
C734 C735 1.400 . S
C735 C734 1.400 . S
C735 C736 1.398 . S
C735 C741 1.491 . S
C736 H727 0.950 . S
C736 C735 1.398 . S
C736 C737 1.391 . S
C737 H725 0.950 . S
C737 C733 1.393 . S
C737 C736 1.391 . S
C738 H728 0.950 . S
C738 C739 1.386 . S
C738 C740 1.391 . S
C739 C738 1.386 . S
C739 C743 1.393 . S
C740 H729 0.950 . S
C740 C738 1.391 . S
C740 C741 1.400 . S
C741 C735 1.491 . S
C741 C740 1.400 . S
C741 C742 1.398 . S
C742 H730 0.950 . S
C742 C741 1.398 . S
C742 C743 1.391 . S
C743 H731 0.950 . S
C743 C739 1.393 . S
C743 C742 1.391 . S
H744 C752 0.950 . S
H745 C757 0.950 . S
H746 C754 0.950 . S
H747 C756 0.950 . S
H748 C758 0.950 . S
H749 C760 0.950 . S
H750 C762 0.950 . S
H751 C763 0.950 . S
C752 H744 0.950 . S
C752 C753 1.386 . S
C752 C754 1.391 . S
C753 C752 1.386 . S
C753 C757 1.393 . S
C754 H746 0.950 . S
C754 C752 1.391 . S
C754 C755 1.400 . S
C755 C754 1.400 . S
C755 C756 1.398 . S
C755 C761 1.491 . S
C756 H747 0.950 . S
C756 C755 1.398 . S
C756 C757 1.391 . S
C757 H745 0.950 . S
C757 C753 1.393 . S
C757 C756 1.391 . S
C758 H748 0.950 . S
C758 C759 1.386 . S
C758 C760 1.391 . S
C759 C758 1.386 . S
C759 C763 1.393 . S
C760 H749 0.950 . S
C760 C758 1.391 . S
C760 C761 1.400 . S
C761 C755 1.491 . S
C761 C760 1.400 . S
C761 C762 1.398 . S
C762 H750 0.950 . S
C762 C761 1.398 . S
C762 C763 1.391 . S
C763 H751 0.950 . S
C763 C759 1.393 . S
C763 C762 1.391 . S
H764 C772 0.950 . S
H765 C777 0.950 . S
H766 C774 0.950 . S
H767 C776 0.950 . S
H768 C778 0.950 . S
H769 C780 0.950 . S
H770 C782 0.950 . S
H771 C783 0.950 . S
C772 H764 0.950 . S
C772 C773 1.386 . S
C772 C774 1.391 . S
C773 C772 1.386 . S
C773 C777 1.393 . S
C774 H766 0.950 . S
C774 C772 1.391 . S
C774 C775 1.400 . S
C775 C774 1.400 . S
C775 C776 1.398 . S
C775 C781 1.491 . S
C776 H767 0.950 . S
C776 C775 1.398 . S
C776 C777 1.391 . S
C777 H765 0.950 . S
C777 C773 1.393 . S
C777 C776 1.391 . S
C778 H768 0.950 . S
C778 C779 1.386 . S
C778 C780 1.391 . S
C779 C778 1.386 . S
C779 C783 1.393 . S
C780 H769 0.950 . S
C780 C778 1.391 . S
C780 C781 1.400 . S
C781 C775 1.491 . S
C781 C780 1.400 . S
C781 C782 1.398 . S
C782 H770 0.950 . S
C782 C781 1.398 . S
C782 C783 1.391 . S
C783 H771 0.950 . S
C783 C779 1.393 . S
C783 C782 1.391 . S
H784 C792 0.950 . S
H785 C797 0.950 . S
H786 C794 0.950 . S
H787 C796 0.950 . S
H788 C798 0.950 . S
H789 C800 0.950 . S
H790 C802 0.950 . S
H791 C803 0.950 . S
C792 H784 0.950 . S
C792 C793 1.386 . S
C792 C794 1.391 . S
C793 C792 1.386 . S
C793 C797 1.393 . S
C794 H786 0.950 . S
C794 C792 1.391 . S
C794 C795 1.400 . S
C795 C794 1.400 . S
C795 C796 1.398 . S
C795 C801 1.491 . S
C796 H787 0.950 . S
C796 C795 1.398 . S
C796 C797 1.391 . S
C797 H785 0.950 . S
C797 C793 1.393 . S
C797 C796 1.391 . S
C798 H788 0.950 . S
C798 C799 1.386 . S
C798 C800 1.391 . S
C799 C798 1.386 . S
C799 C803 1.393 . S
C800 H789 0.950 . S
C800 C798 1.391 . S
C800 C801 1.400 . S
C801 C795 1.491 . S
C801 C800 1.400 . S
C801 C802 1.398 . S
C802 H790 0.950 . S
C802 C801 1.398 . S
C802 C803 1.391 . S
C803 H791 0.950 . S
C803 C799 1.393 . S
C803 C802 1.391 . S
H804 C812 0.950 . S
H805 C817 0.950 . S
H806 C814 0.950 . S
H807 C816 0.950 . S
H808 C818 0.950 . S
H809 C820 0.950 . S
H810 C822 0.950 . S
H811 C823 0.950 . S
C812 H804 0.950 . S
C812 C813 1.386 . S
C812 C814 1.391 . S
C813 C812 1.386 . S
C813 C817 1.393 1_554 S
C814 H806 0.950 . S
C814 C812 1.391 . S
C814 C815 1.400 . S
C815 C814 1.400 . S
C815 C816 1.398 1_554 S
C815 C821 1.491 . S
C816 H807 0.950 . S
C816 C815 1.398 1_556 S
C816 C817 1.391 . S
C817 H805 0.950 . S
C817 C813 1.393 1_556 S
C817 C816 1.391 . S
C818 H808 0.950 . S
C818 C819 1.386 1_556 S
C818 C820 1.391 . S
C819 C818 1.386 1_554 S
C819 C823 1.393 . S
C820 H809 0.950 . S
C820 C818 1.391 . S
C820 C821 1.400 1_556 S
C821 C815 1.491 . S
C821 C820 1.400 1_554 S
C821 C822 1.398 . S
C822 H810 0.950 . S
C822 C821 1.398 . S
C822 C823 1.391 . S
C823 H811 0.950 . S
C823 C819 1.393 . S
C823 C822 1.391 . S
H824 C832 0.950 . S
H825 C837 0.950 . S
H826 C834 0.950 . S
H827 C836 0.952 . S
H828 C838 0.951 . S
H829 C840 0.948 1_556 S
H830 C842 0.950 . S
H831 C843 0.950 . S
C832 H824 0.950 . S
C832 C833 1.386 . S
C832 C834 1.391 . S
C833 C832 1.386 . S
C833 C837 1.392 1_554 S
C834 H826 0.950 . S
C834 C832 1.391 . S
C834 C835 1.400 . S
C835 C834 1.400 . S
C835 C836 1.396 1_554 S
C835 C841 1.491 . S
C836 H827 0.952 . S
C836 C835 1.396 1_556 S
C836 C837 1.391 . S
C837 H825 0.950 . S
C837 C833 1.392 1_556 S
C837 C836 1.391 . S
C838 H828 0.951 . S
C838 C839 1.386 . S
C838 C840 1.391 . S
C839 C838 1.386 . S
C839 C843 1.393 . S
C840 H829 0.948 1_554 S
C840 C838 1.391 . S
C840 C841 1.400 . S
C841 C835 1.491 . S
C841 C840 1.400 . S
C841 C842 1.398 . S
C842 H830 0.950 . S
C842 C841 1.398 . S
C842 C843 1.391 . S
C843 H831 0.950 . S
C843 C839 1.393 . S
C843 C842 1.391 . S
H844 C852 0.950 . S
H845 C857 0.950 . S
H846 C854 0.950 . S
H847 C856 0.950 . S
H848 C858 0.950 . S
H849 C860 0.950 . S
H850 C862 0.950 . S
H851 C863 0.950 . S
C852 H844 0.950 . S
C852 C853 1.386 1_556 S
C852 C854 1.391 . S
C853 C852 1.386 1_554 S
C853 C857 1.393 . S
C854 H846 0.950 . S
C854 C852 1.391 . S
C854 C855 1.400 1_556 S
C855 C854 1.400 1_554 S
C855 C856 1.398 . S
C855 C861 1.491 . S
C856 H847 0.950 . S
C856 C855 1.398 . S
C856 C857 1.391 . S
C857 H845 0.950 . S
C857 C853 1.393 . S
C857 C856 1.391 . S
C858 H848 0.950 . S
C858 C859 1.386 . S
C858 C860 1.391 . S
C859 C858 1.386 . S
C859 C863 1.393 1_554 S
C860 H849 0.950 . S
C860 C858 1.391 . S
C860 C861 1.400 . S
C861 C855 1.491 . S
C861 C860 1.400 . S
C861 C862 1.398 1_554 S
C862 H850 0.950 . S
C862 C861 1.398 1_556 S
C862 C863 1.391 . S
C863 H851 0.950 . S
C863 C859 1.393 1_556 S
C863 C862 1.391 . S
H864 C872 0.950 . S
H865 C877 0.950 . S
H866 C874 0.950 . S
H867 C876 0.950 . S
H868 C878 0.950 . S
H869 C880 0.950 . S
H870 C882 0.950 . S
H871 C883 0.950 . S
C872 H864 0.950 . S
C872 C873 1.386 . S
C872 C874 1.391 . S
C873 C872 1.386 . S
C873 C877 1.393 1_554 S
C874 H866 0.950 . S
C874 C872 1.391 . S
C874 C875 1.400 . S
C875 C874 1.400 . S
C875 C876 1.398 1_554 S
C875 C881 1.491 . S
C876 H867 0.950 . S
C876 C875 1.398 1_556 S
C876 C877 1.391 . S
C877 H865 0.950 . S
C877 C873 1.393 1_556 S
C877 C876 1.391 . S
C878 H868 0.950 . S
C878 C879 1.386 1_556 S
C878 C880 1.391 . S
C879 C878 1.386 1_554 S
C879 C883 1.393 . S
C880 H869 0.950 . S
C880 C878 1.391 . S
C880 C881 1.400 1_556 S
C881 C875 1.491 . S
C881 C880 1.400 1_554 S
C881 C882 1.398 . S
C882 H870 0.950 . S
C882 C881 1.398 . S
C882 C883 1.391 . S
C883 H871 0.950 . S
C883 C879 1.393 . S
C883 C882 1.391 . S
H884 C892 0.950 . S
H885 C897 0.950 . S
H886 C894 0.950 . S
H887 C896 0.950 . S
H888 C898 0.950 . S
H889 C900 0.950 . S
H890 C902 0.950 . S
H891 C903 0.950 . S
C892 H884 0.950 . S
C892 C893 1.386 1_655 S
C892 C894 1.391 . S
C893 C892 1.386 1_455 S
C893 C897 1.393 . S
C894 H886 0.950 . S
C894 C892 1.391 . S
C894 C895 1.400 1_655 S
C895 C894 1.400 1_455 S
C895 C896 1.398 . S
C895 C901 1.491 . S
C896 H887 0.950 . S
C896 C895 1.398 . S
C896 C897 1.391 . S
C897 H885 0.950 . S
C897 C893 1.393 . S
C897 C896 1.391 . S
C898 H888 0.950 . S
C898 C899 1.386 . S
C898 C900 1.391 . S
C899 C898 1.386 . S
C899 C903 1.393 1_455 S
C900 H889 0.950 . S
C900 C898 1.391 . S
C900 C901 1.400 . S
C901 C895 1.491 . S
C901 C900 1.400 . S
C901 C902 1.398 1_455 S
C902 H890 0.950 . S
C902 C901 1.398 1_655 S
C902 C903 1.391 . S
C903 H891 0.950 . S
C903 C899 1.393 1_655 S
C903 C902 1.391 . S
H904 C912 0.950 . S
H905 C917 0.950 . S
H906 C914 0.950 . S
H907 C916 0.950 . S
H908 C918 0.950 . S
H909 C920 0.950 . S
H910 C922 0.950 . S
H911 C923 0.950 . S
C912 H904 0.950 . S
C912 C913 1.386 1_565 S
C912 C914 1.391 . S
C913 C912 1.386 1_545 S
C913 C917 1.393 . S
C914 H906 0.950 . S
C914 C912 1.391 . S
C914 C915 1.380 1_565 S
C915 C914 1.380 1_545 S
C915 C916 1.420 . S
C915 C921 1.490 1_545 S
C916 H907 0.950 . S
C916 C915 1.420 . S
C916 C917 1.391 . S
C917 H905 0.950 . S
C917 C913 1.393 . S
C917 C916 1.391 . S
C918 H908 0.950 . S
C918 C919 1.374 1_545 S
C918 C920 1.391 . S
C919 C918 1.374 1_565 S
C919 C923 1.405 . S
C920 H909 0.950 . S
C920 C918 1.391 . S
C920 C921 1.402 1_545 S
C921 C915 1.490 1_565 S
C921 C920 1.402 1_565 S
C921 C922 1.397 . S
C922 H910 0.950 . S
C922 C921 1.397 . S
C922 C923 1.391 . S
C923 H911 0.950 . S
C923 C919 1.405 . S
C923 C922 1.391 . S
H924 C932 0.950 1_655 S
H925 C937 0.950 . S
H926 C934 0.940 1_655 S
H927 C936 0.950 . S
H928 C938 0.950 . S
H929 C940 0.950 . S
H930 C942 0.950 . S
H931 C943 0.950 . S
C932 H924 0.950 1_455 S
C932 C933 1.386 . S
C932 C934 1.391 . S
C933 C932 1.386 . S
C933 C937 1.393 . S
C934 H926 0.940 1_455 S
C934 C932 1.391 . S
C934 C935 1.400 . S
C935 C934 1.400 . S
C935 C936 1.398 . S
C935 C941 1.491 . S
C936 H927 0.950 . S
C936 C935 1.398 . S
C936 C937 1.391 . S
C937 H925 0.950 . S
C937 C933 1.393 . S
C937 C936 1.391 . S
C938 H928 0.950 . S
C938 C939 1.386 . S
C938 C940 1.391 . S
C939 C938 1.386 . S
C939 C943 1.393 . S
C940 H929 0.950 . S
C940 C938 1.391 . S
C940 C941 1.400 . S
C941 C935 1.491 . S
C941 C940 1.400 . S
C941 C942 1.398 . S
C942 H930 0.950 . S
C942 C941 1.398 . S
C942 C943 1.391 . S
C943 H931 0.950 . S
C943 C939 1.393 . S
C943 C942 1.391 . S
H944 C952 0.950 . S
H945 C957 0.950 . S
H946 C954 0.950 . S
H947 C956 0.950 . S
H948 C958 0.950 . S
H949 C960 0.950 . S
H950 C962 0.950 . S
H951 C963 0.950 . S
C952 H944 0.950 . S
C952 C953 1.390 . S
C952 C954 1.391 . S
C953 C952 1.390 . S
C953 C957 1.389 1_565 S
C954 H946 0.950 . S
C954 C952 1.391 . S
C954 C955 1.400 . S
C955 C954 1.400 . S
C955 C956 1.398 1_565 S
C955 C961 1.490 1_565 S
C956 H947 0.950 . S
C956 C955 1.398 1_545 S
C956 C957 1.391 . S
C957 H945 0.950 . S
C957 C953 1.389 1_545 S
C957 C956 1.391 . S
C958 H948 0.950 . S
C958 C959 1.386 . S
C958 C960 1.391 . S
C959 C958 1.386 . S
C959 C963 1.393 1_545 S
C960 H949 0.950 . S
C960 C958 1.391 . S
C960 C961 1.409 . S
C961 C955 1.490 1_545 S
C961 C960 1.409 . S
C961 C962 1.392 1_545 S
C962 H950 0.950 . S
C962 C961 1.392 1_565 S
C962 C963 1.391 . S
C963 H951 0.950 . S
C963 C959 1.393 1_565 S
C963 C962 1.391 . S
H964 C972 0.950 . S
H965 C977 0.950 . S
H966 C974 0.950 . S
H967 C976 0.950 . S
H968 C978 0.950 . S
H969 C980 0.950 . S
H970 C982 0.950 . S
H971 C983 0.950 . S
C972 H964 0.950 . S
C972 C973 1.386 1_655 S
C972 C974 1.391 . S
C973 C972 1.386 1_455 S
C973 C977 1.393 . S
C974 H966 0.950 . S
C974 C972 1.391 . S
C974 C975 1.400 1_655 S
C975 C974 1.400 1_455 S
C975 C976 1.398 . S
C975 C981 1.491 . S
C976 H967 0.950 . S
C976 C975 1.398 . S
C976 C977 1.391 . S
C977 H965 0.950 . S
C977 C973 1.393 . S
C977 C976 1.391 . S
C978 H968 0.950 . S
C978 C979 1.386 . S
C978 C980 1.391 . S
C979 C978 1.386 . S
C979 C983 1.393 1_455 S
C980 H969 0.950 . S
C980 C978 1.391 . S
C980 C981 1.400 . S
C981 C975 1.491 . S
C981 C980 1.400 . S
C981 C982 1.398 1_455 S
C982 H970 0.950 . S
C982 C981 1.398 1_655 S
C982 C983 1.391 . S
C983 H971 0.950 . S
C983 C979 1.393 1_655 S
C983 C982 1.391 . S
H984 C992 0.950 . S
H985 C997 0.950 . S
H986 C994 0.950 . S
H987 C996 0.950 . S
H988 C998 0.950 . S
H989 C1000 0.950 . S
H990 C1002 0.950 . S
H991 C1003 0.950 . S
C992 H984 0.950 . S
C992 C993 1.401 . S
C992 C994 1.391 . S
C993 C992 1.401 . S
C993 C997 1.379 1_565 S
C994 H986 0.950 . S
C994 C992 1.391 . S
C994 C995 1.406 . S
C995 C994 1.406 . S
C995 C996 1.393 1_565 S
C995 C1001 1.490 1_565 S
C996 H987 0.950 . S
C996 C995 1.393 1_545 S
C996 C997 1.391 . S
C997 H985 0.950 . S
C997 C993 1.379 1_545 S
C997 C996 1.391 . S
C998 H988 0.950 . S
C998 C999 1.405 . S
C998 C1000 1.391 . S
C999 C998 1.405 . S
C999 C1003 1.375 1_545 S
C1000 H989 0.950 . S
C1000 C998 1.391 . S
C1000 C1001 1.410 . S
C1001 C995 1.490 1_545 S
C1001 C1000 1.410 . S
C1001 C1002 1.390 1_545 S
C1002 H990 0.950 . S
C1002 C1001 1.390 1_565 S
C1002 C1003 1.391 . S
C1003 H991 0.950 . S
C1003 C999 1.375 1_565 S
C1003 C1002 1.391 . S
H1004 C1012 0.950 . S
H1005 C1017 0.950 . S
H1006 C1014 0.950 . S
H1007 C1016 0.950 . S
H1008 C1018 0.950 . S
H1009 C1020 0.950 . S
H1010 C1022 0.950 . S
H1011 C1023 0.950 . S
C1012 H1004 0.950 . S
C1012 C1013 1.386 1_655 S
C1012 C1014 1.391 . S
C1013 C1012 1.386 1_455 S
C1013 C1017 1.393 . S
C1014 H1006 0.950 . S
C1014 C1012 1.391 . S
C1014 C1015 1.400 1_655 S
C1015 C1014 1.400 1_455 S
C1015 C1016 1.398 . S
C1015 C1021 1.491 . S
C1016 H1007 0.950 . S
C1016 C1015 1.398 . S
C1016 C1017 1.391 . S
C1017 H1005 0.950 . S
C1017 C1013 1.393 . S
C1017 C1016 1.391 . S
C1018 H1008 0.950 . S
C1018 C1019 1.386 . S
C1018 C1020 1.391 . S
C1019 C1018 1.386 . S
C1019 C1023 1.393 1_455 S
C1020 H1009 0.950 . S
C1020 C1018 1.391 . S
C1020 C1021 1.400 . S
C1021 C1015 1.491 . S
C1021 C1020 1.400 . S
C1021 C1022 1.398 1_455 S
C1022 H1010 0.950 . S
C1022 C1021 1.398 1_655 S
C1022 C1023 1.391 . S
C1023 H1011 0.950 . S
C1023 C1019 1.393 1_655 S
C1023 C1022 1.391 . S
H1024 C1032 0.950 . S
H1025 C1037 0.950 . S
H1026 C1034 0.950 1_565 S
H1027 C1036 0.950 . S
H1028 C1038 0.950 . S
H1029 C1040 0.950 1_545 S
H1030 C1042 0.950 . S
H1031 C1043 0.950 . S
C1032 H1024 0.950 . S
C1032 C1033 1.386 . S
C1032 C1034 1.391 . S
C1033 C1032 1.386 . S
C1033 C1037 1.393 . S
C1034 H1026 0.950 1_545 S
C1034 C1032 1.391 . S
C1034 C1035 1.400 . S
C1035 C1034 1.400 . S
C1035 C1036 1.400 . S
C1035 C1041 1.490 1_545 S
C1036 H1027 0.950 . S
C1036 C1035 1.400 . S
C1036 C1037 1.391 . S
C1037 H1025 0.950 . S
C1037 C1033 1.393 . S
C1037 C1036 1.391 . S
C1038 H1028 0.950 . S
C1038 C1039 1.386 . S
C1038 C1040 1.391 . S
C1039 C1038 1.386 . S
C1039 C1043 1.394 . S
C1040 H1029 0.950 1_565 S
C1040 C1038 1.391 . S
C1040 C1041 1.400 . S
C1041 C1035 1.490 1_565 S
C1041 C1040 1.400 . S
C1041 C1042 1.399 . S
C1042 H1030 0.950 . S
C1042 C1041 1.399 . S
C1042 C1043 1.391 . S
C1043 H1031 0.950 . S
C1043 C1039 1.394 . S
C1043 C1042 1.391 . S
H1044 C1052 0.950 . S
H1045 C1057 0.950 . S
H1046 C1054 0.950 . S
H1047 C1056 0.950 . S
H1048 C1058 0.950 . S
H1049 C1060 0.950 . S
H1050 C1062 0.950 . S
H1051 C1063 0.950 . S
C1052 H1044 0.950 . S
C1052 C1053 1.386 . S
C1052 C1054 1.391 . S
C1053 C1052 1.386 . S
C1053 C1057 1.393 . S
C1054 H1046 0.950 . S
C1054 C1052 1.391 . S
C1054 C1055 1.400 . S
C1055 C1054 1.400 . S
C1055 C1056 1.398 . S
C1055 C1061 1.491 . S
C1056 H1047 0.950 . S
C1056 C1055 1.398 . S
C1056 C1057 1.391 . S
C1057 H1045 0.950 . S
C1057 C1053 1.393 . S
C1057 C1056 1.391 . S
C1058 H1048 0.950 . S
C1058 C1059 1.386 . S
C1058 C1060 1.391 . S
C1059 C1058 1.386 . S
C1059 C1063 1.393 . S
C1060 H1049 0.950 . S
C1060 C1058 1.391 . S
C1060 C1061 1.400 . S
C1061 C1055 1.491 . S
C1061 C1060 1.400 . S
C1061 C1062 1.398 . S
C1062 H1050 0.950 . S
C1062 C1061 1.398 . S
C1062 C1063 1.391 . S
C1063 H1051 0.950 . S
C1063 C1059 1.393 . S
C1063 C1062 1.391 . S
H1064 C1072 0.950 . S
H1065 C1077 0.950 . S
H1066 C1074 0.950 . S
H1067 C1076 0.950 . S
H1068 C1078 0.950 . S
H1069 C1080 0.950 . S
H1070 C1082 0.950 . S
H1071 C1083 0.950 . S
C1072 H1064 0.950 . S
C1072 C1073 1.404 . S
C1072 C1074 1.391 . S
C1073 C1072 1.404 . S
C1073 C1077 1.375 1_545 S
C1074 H1066 0.950 . S
C1074 C1072 1.391 . S
C1074 C1075 1.412 . S
C1075 C1074 1.412 . S
C1075 C1076 1.387 1_545 S
C1075 C1081 1.490 1_545 S
C1076 H1067 0.950 . S
C1076 C1075 1.387 1_565 S
C1076 C1077 1.391 . S
C1077 H1065 0.950 . S
C1077 C1073 1.375 1_565 S
C1077 C1076 1.391 . S
C1078 H1068 0.950 . S
C1078 C1079 1.393 . S
C1078 C1080 1.391 . S
C1079 C1078 1.393 . S
C1079 C1083 1.386 1_565 S
C1080 H1069 0.950 . S
C1080 C1078 1.391 . S
C1080 C1081 1.401 . S
C1081 C1075 1.490 1_565 S
C1081 C1080 1.401 . S
C1081 C1082 1.398 1_565 S
C1082 H1070 0.950 . S
C1082 C1081 1.398 1_545 S
C1082 C1083 1.391 . S
C1083 H1071 0.950 . S
C1083 C1079 1.386 1_545 S
C1083 C1082 1.391 . S
H1084 C1092 0.950 . S
H1085 C1097 0.950 . S
H1086 C1094 0.950 . S
H1087 C1096 0.933 1_655 S
H1088 C1098 0.950 1_655 S
H1089 C1100 0.950 1_655 S
H1090 C1102 0.950 . S
H1091 C1103 0.950 . S
C1092 H1084 0.950 . S
C1092 C1093 1.386 . S
C1092 C1094 1.391 . S
C1093 C1092 1.386 . S
C1093 C1097 1.393 1_455 S
C1094 H1086 0.950 . S
C1094 C1092 1.391 . S
C1094 C1095 1.400 . S
C1095 C1094 1.400 . S
C1095 C1096 1.416 . S
C1095 C1101 1.491 . S
C1096 H1087 0.933 1_455 S
C1096 C1095 1.416 . S
C1096 C1097 1.389 1_455 S
C1097 H1085 0.950 . S
C1097 C1093 1.393 1_655 S
C1097 C1096 1.389 1_655 S
C1098 H1088 0.950 1_455 S
C1098 C1099 1.386 . S
C1098 C1100 1.391 . S
C1099 C1098 1.386 . S
C1099 C1103 1.393 . S
C1100 H1089 0.950 1_455 S
C1100 C1098 1.391 . S
C1100 C1101 1.400 . S
C1101 C1095 1.491 . S
C1101 C1100 1.400 . S
C1101 C1102 1.398 . S
C1102 H1090 0.950 . S
C1102 C1101 1.398 . S
C1102 C1103 1.391 . S
C1103 H1091 0.950 . S
C1103 C1099 1.393 . S
C1103 C1102 1.391 . S
H1104 C1112 0.950 . S
H1105 C1117 0.950 . S
H1106 C1114 0.950 . S
H1107 C1116 0.950 . S
H1108 C1118 0.950 . S
H1109 C1120 0.950 . S
H1110 C1122 0.950 . S
H1111 C1123 0.950 . S
C1112 H1104 0.950 . S
C1112 C1113 1.405 . S
C1112 C1114 1.391 . S
C1113 C1112 1.405 . S
C1113 C1117 1.375 1_545 S
C1114 H1106 0.950 . S
C1114 C1112 1.391 . S
C1114 C1115 1.412 . S
C1115 C1114 1.412 . S
C1115 C1116 1.387 1_545 S
C1115 C1121 1.490 1_545 S
C1116 H1107 0.950 . S
C1116 C1115 1.387 1_565 S
C1116 C1117 1.391 . S
C1117 H1105 0.950 . S
C1117 C1113 1.375 1_565 S
C1117 C1116 1.391 . S
C1118 H1108 0.950 . S
C1118 C1119 1.393 . S
C1118 C1120 1.391 . S
C1119 C1118 1.393 . S
C1119 C1123 1.385 1_565 S
C1120 H1109 0.950 . S
C1120 C1118 1.391 . S
C1120 C1121 1.401 . S
C1121 C1115 1.490 1_565 S
C1121 C1120 1.401 . S
C1121 C1122 1.397 1_565 S
C1122 H1110 0.950 . S
C1122 C1121 1.397 1_545 S
C1122 C1123 1.391 . S
C1123 H1111 0.950 . S
C1123 C1119 1.385 1_545 S
C1123 C1122 1.391 . S
H1124 C1132 0.950 . S
H1125 C1137 0.950 . S
H1126 C1134 0.950 . S
H1127 C1136 0.950 . S
H1128 C1138 0.950 . S
H1129 C1140 0.950 . S
H1130 C1142 0.950 . S
H1131 C1143 0.950 . S
C1132 H1124 0.950 . S
C1132 C1133 1.386 . S
C1132 C1134 1.391 . S
C1133 C1132 1.386 . S
C1133 C1137 1.393 . S
C1134 H1126 0.950 . S
C1134 C1132 1.391 . S
C1134 C1135 1.400 . S
C1135 C1134 1.400 . S
C1135 C1136 1.398 . S
C1135 C1141 1.491 . S
C1136 H1127 0.950 . S
C1136 C1135 1.398 . S
C1136 C1137 1.391 . S
C1137 H1125 0.950 . S
C1137 C1133 1.393 . S
C1137 C1136 1.391 . S
C1138 H1128 0.950 . S
C1138 C1139 1.386 . S
C1138 C1140 1.391 . S
C1139 C1138 1.386 . S
C1139 C1143 1.393 . S
C1140 H1129 0.950 . S
C1140 C1138 1.391 . S
C1140 C1141 1.400 . S
C1141 C1135 1.491 . S
C1141 C1140 1.400 . S
C1141 C1142 1.398 . S
C1142 H1130 0.950 . S
C1142 C1141 1.398 . S
C1142 C1143 1.391 . S
C1143 H1131 0.950 . S
C1143 C1139 1.393 . S
C1143 C1142 1.391 . S
H1144 C1152 0.950 . S
H1145 C1157 0.950 . S
H1146 C1154 0.950 . S
H1147 C1156 0.950 . S
H1148 C1158 0.950 . S
H1149 C1160 0.950 . S
H1150 C1162 0.950 . S
H1151 C1163 0.950 . S
C1152 H1144 0.950 . S
C1152 C1153 1.414 . S
C1152 C1154 1.391 . S
C1153 C1152 1.414 . S
C1153 C1157 1.365 1_545 S
C1154 H1146 0.950 . S
C1154 C1152 1.391 . S
C1154 C1155 1.419 . S
C1155 C1154 1.419 . S
C1155 C1156 1.380 1_545 S
C1155 C1161 1.490 . S
C1156 H1147 0.950 . S
C1156 C1155 1.380 1_565 S
C1156 C1157 1.391 . S
C1157 H1145 0.950 . S
C1157 C1153 1.365 1_565 S
C1157 C1156 1.391 . S
C1158 H1148 0.950 . S
C1158 C1159 1.387 . S
C1158 C1160 1.391 . S
C1159 C1158 1.387 . S
C1159 C1163 1.391 1_565 S
C1160 H1149 0.950 . S
C1160 C1158 1.391 . S
C1160 C1161 1.399 1_565 S
C1161 C1155 1.490 . S
C1161 C1160 1.399 1_545 S
C1161 C1162 1.399 . S
C1162 H1150 0.950 . S
C1162 C1161 1.399 . S
C1162 C1163 1.391 . S
C1163 H1151 0.950 . S
C1163 C1159 1.391 1_545 S
C1163 C1162 1.391 . S
H1164 C1172 0.948 . S
H1165 C1177 0.950 . S
H1166 C1174 0.950 1_655 S
H1167 C1176 0.950 . S
H1168 C1178 0.950 . S
H1169 C1180 0.950 . S
H1170 C1182 0.950 1_655 S
H1171 C1183 0.950 1_655 S
C1172 H1164 0.948 . S
C1172 C1173 1.387 1_655 S
C1172 C1174 1.391 1_655 S
C1173 C1172 1.387 1_455 S
C1173 C1177 1.393 . S
C1174 H1166 0.950 1_455 S
C1174 C1172 1.391 1_455 S
C1174 C1175 1.400 . S
C1175 C1174 1.400 . S
C1175 C1176 1.398 . S
C1175 C1181 1.491 . S
C1176 H1167 0.950 . S
C1176 C1175 1.398 . S
C1176 C1177 1.391 . S
C1177 H1165 0.950 . S
C1177 C1173 1.393 . S
C1177 C1176 1.391 . S
C1178 H1168 0.950 . S
C1178 C1179 1.386 . S
C1178 C1180 1.391 . S
C1179 C1178 1.386 . S
C1179 C1183 1.393 . S
C1180 H1169 0.950 . S
C1180 C1178 1.391 . S
C1180 C1181 1.400 . S
C1181 C1175 1.491 . S
C1181 C1180 1.400 . S
C1181 C1182 1.398 . S
C1182 H1170 0.950 1_455 S
C1182 C1181 1.398 . S
C1182 C1183 1.391 . S
C1183 H1171 0.950 1_455 S
C1183 C1179 1.393 . S
C1183 C1182 1.391 . S
H1184 C1192 0.950 . S
H1185 C1197 0.950 . S
H1186 C1194 0.950 . S
H1187 C1196 0.950 . S
H1188 C1198 0.950 . S
H1189 C1200 0.950 . S
H1190 C1202 0.950 . S
H1191 C1203 0.950 . S
C1192 H1184 0.950 . S
C1192 C1193 1.388 . S
C1192 C1194 1.391 . S
C1193 C1192 1.388 . S
C1193 C1197 1.390 1_565 S
C1194 H1186 0.950 . S
C1194 C1192 1.391 . S
C1194 C1195 1.402 1_565 S
C1195 C1194 1.402 1_545 S
C1195 C1196 1.397 . S
C1195 C1201 1.490 . S
C1196 H1187 0.950 . S
C1196 C1195 1.397 . S
C1196 C1197 1.391 . S
C1197 H1185 0.950 . S
C1197 C1193 1.390 1_545 S
C1197 C1196 1.391 . S
C1198 H1188 0.950 . S
C1198 C1199 1.410 . S
C1198 C1200 1.391 . S
C1199 C1198 1.410 . S
C1199 C1203 1.370 1_545 S
C1200 H1189 0.950 . S
C1200 C1198 1.391 . S
C1200 C1201 1.418 . S
C1201 C1195 1.490 . S
C1201 C1200 1.418 . S
C1201 C1202 1.382 1_545 S
C1202 H1190 0.950 . S
C1202 C1201 1.382 1_565 S
C1202 C1203 1.391 . S
C1203 H1191 0.950 . S
C1203 C1199 1.370 1_565 S
C1203 C1202 1.391 . S
H1204 C1212 0.950 . S
H1205 C1217 0.950 . S
H1206 C1214 0.950 . S
H1207 C1216 0.950 . S
H1208 C1218 0.950 . S
H1209 C1220 0.950 . S
H1210 C1222 0.950 . S
H1211 C1223 0.950 . S
C1212 H1204 0.950 . S
C1212 C1213 1.398 . S
C1212 C1214 1.391 . S
C1213 C1212 1.398 . S
C1213 C1217 1.381 1_565 S
C1214 H1206 0.950 . S
C1214 C1212 1.391 . S
C1214 C1215 1.405 . S
C1215 C1214 1.405 . S
C1215 C1216 1.394 1_565 S
C1215 C1221 1.490 1_565 S
C1216 H1207 0.950 . S
C1216 C1215 1.394 1_545 S
C1216 C1217 1.391 . S
C1217 H1205 0.950 . S
C1217 C1213 1.381 1_545 S
C1217 C1216 1.391 . S
C1218 H1208 0.950 . S
C1218 C1219 1.386 . S
C1218 C1220 1.391 . S
C1219 C1218 1.386 . S
C1219 C1223 1.393 1_545 S
C1220 H1209 0.950 . S
C1220 C1218 1.391 . S
C1220 C1221 1.407 . S
C1221 C1215 1.490 1_545 S
C1221 C1220 1.407 . S
C1221 C1222 1.392 1_545 S
C1222 H1210 0.950 . S
C1222 C1221 1.392 1_565 S
C1222 C1223 1.391 . S
C1223 H1211 0.950 . S
C1223 C1219 1.393 1_565 S
C1223 C1222 1.391 . S
H1224 C1232 0.950 . S
H1225 C1237 0.950 . S
H1226 C1234 0.950 . S
H1227 C1236 0.950 . S
H1228 C1238 0.950 . S
H1229 C1240 0.950 . S
H1230 C1242 0.950 . S
H1231 C1243 0.950 . S
C1232 H1224 0.950 . S
C1232 C1233 1.386 1_655 S
C1232 C1234 1.391 . S
C1233 C1232 1.386 1_455 S
C1233 C1237 1.393 . S
C1234 H1226 0.950 . S
C1234 C1232 1.391 . S
C1234 C1235 1.400 1_655 S
C1235 C1234 1.400 1_455 S
C1235 C1236 1.398 . S
C1235 C1241 1.491 . S
C1236 H1227 0.950 . S
C1236 C1235 1.398 . S
C1236 C1237 1.391 . S
C1237 H1225 0.950 . S
C1237 C1233 1.393 . S
C1237 C1236 1.391 . S
C1238 H1228 0.950 . S
C1238 C1239 1.386 . S
C1238 C1240 1.391 . S
C1239 C1238 1.386 . S
C1239 C1243 1.393 1_455 S
C1240 H1229 0.950 . S
C1240 C1238 1.391 . S
C1240 C1241 1.400 . S
C1241 C1235 1.491 . S
C1241 C1240 1.400 . S
C1241 C1242 1.398 1_455 S
C1242 H1230 0.950 . S
C1242 C1241 1.398 1_655 S
C1242 C1243 1.391 . S
C1243 H1231 0.950 . S
C1243 C1239 1.393 1_655 S
C1243 C1242 1.391 . S
H1244 C1252 0.950 . S
H1245 C1257 0.950 . S
H1246 C1254 0.950 . S
H1247 C1256 0.950 . S
H1248 C1258 0.950 . S
H1249 C1260 0.950 . S
H1250 C1262 0.950 . S
H1251 C1263 0.950 . S
C1252 H1244 0.950 . S
C1252 C1253 1.365 1_565 S
C1252 C1254 1.391 . S
C1253 C1252 1.365 1_545 S
C1253 C1257 1.414 . S
C1254 H1246 0.950 . S
C1254 C1252 1.391 . S
C1254 C1255 1.390 1_565 S
C1255 C1254 1.390 1_545 S
C1255 C1256 1.409 . S
C1255 C1261 1.490 1_545 S
C1256 H1247 0.950 . S
C1256 C1255 1.409 . S
C1256 C1257 1.391 . S
C1257 H1245 0.950 . S
C1257 C1253 1.414 . S
C1257 C1256 1.391 . S
C1258 H1248 0.950 . S
C1258 C1259 1.369 1_545 S
C1258 C1260 1.391 . S
C1259 C1258 1.369 1_565 S
C1259 C1263 1.410 . S
C1260 H1249 0.950 . S
C1260 C1258 1.391 . S
C1260 C1261 1.394 1_545 S
C1261 C1255 1.490 1_565 S
C1261 C1260 1.394 1_565 S
C1261 C1262 1.405 . S
C1262 H1250 0.950 . S
C1262 C1261 1.405 . S
C1262 C1263 1.391 . S
C1263 H1251 0.950 . S
C1263 C1259 1.410 . S
C1263 C1262 1.391 . S
H1264 C1272 0.950 . S
H1265 C1277 0.950 . S
H1266 C1274 0.950 . S
H1267 C1276 0.950 . S
H1268 C1278 0.950 . S
H1269 C1280 0.950 . S
H1270 C1282 0.950 . S
H1271 C1283 0.950 . S
C1272 H1264 0.950 . S
C1272 C1273 1.386 . S
C1272 C1274 1.391 . S
C1273 C1272 1.386 . S
C1273 C1277 1.393 1_455 S
C1274 H1266 0.950 . S
C1274 C1272 1.391 . S
C1274 C1275 1.400 . S
C1275 C1274 1.400 . S
C1275 C1276 1.398 1_455 S
C1275 C1281 1.491 . S
C1276 H1267 0.950 . S
C1276 C1275 1.398 1_655 S
C1276 C1277 1.391 . S
C1277 H1265 0.950 . S
C1277 C1273 1.393 1_655 S
C1277 C1276 1.391 . S
C1278 H1268 0.950 . S
C1278 C1279 1.386 1_655 S
C1278 C1280 1.391 . S
C1279 C1278 1.386 1_455 S
C1279 C1283 1.393 . S
C1280 H1269 0.950 . S
C1280 C1278 1.391 . S
C1280 C1281 1.400 1_655 S
C1281 C1275 1.491 . S
C1281 C1280 1.400 1_455 S
C1281 C1282 1.398 . S
C1282 H1270 0.950 . S
C1282 C1281 1.398 . S
C1282 C1283 1.391 . S
C1283 H1271 0.950 . S
C1283 C1279 1.393 . S
C1283 C1282 1.391 . S
H1284 C1292 0.950 . S
H1285 C1297 0.950 . S
H1286 C1294 0.950 . S
H1287 C1296 0.950 . S
H1288 C1298 0.950 . S
H1289 C1300 0.950 . S
H1290 C1302 0.950 . S
H1291 C1303 0.950 . S
C1292 H1284 0.950 . S
C1292 C1293 1.386 . S
C1292 C1294 1.391 . S
C1293 C1292 1.386 . S
C1293 C1297 1.393 1_545 S
C1294 H1286 0.950 . S
C1294 C1292 1.391 . S
C1294 C1295 1.413 . S
C1295 C1294 1.413 . S
C1295 C1296 1.387 1_545 S
C1295 C1301 1.490 1_545 S
C1296 H1287 0.950 . S
C1296 C1295 1.387 1_565 S
C1296 C1297 1.391 . S
C1297 H1285 0.950 . S
C1297 C1293 1.393 1_565 S
C1297 C1296 1.391 . S
C1298 H1288 0.950 . S
C1298 C1299 1.393 . S
C1298 C1300 1.391 . S
C1299 C1298 1.393 . S
C1299 C1303 1.386 1_565 S
C1300 H1289 0.950 . S
C1300 C1298 1.391 . S
C1300 C1301 1.400 . S
C1301 C1295 1.490 1_565 S
C1301 C1300 1.400 . S
C1301 C1302 1.399 1_565 S
C1302 H1290 0.950 . S
C1302 C1301 1.399 1_545 S
C1302 C1303 1.391 . S
C1303 H1291 0.950 . S
C1303 C1299 1.386 1_545 S
C1303 C1302 1.391 . S
H1304 C1312 0.950 . S
H1305 C1317 0.950 . S
H1306 C1314 0.950 . S
H1307 C1316 0.950 . S
H1308 C1318 0.950 . S
H1309 C1320 0.950 . S
H1310 C1322 0.950 . S
H1311 C1323 0.950 . S
C1312 H1304 0.950 . S
C1312 C1313 1.386 1_655 S
C1312 C1314 1.391 . S
C1313 C1312 1.386 1_455 S
C1313 C1317 1.393 . S
C1314 H1306 0.950 . S
C1314 C1312 1.391 . S
C1314 C1315 1.400 1_655 S
C1315 C1314 1.400 1_455 S
C1315 C1316 1.398 . S
C1315 C1321 1.491 . S
C1316 H1307 0.950 . S
C1316 C1315 1.398 . S
C1316 C1317 1.391 . S
C1317 H1305 0.950 . S
C1317 C1313 1.393 . S
C1317 C1316 1.391 . S
C1318 H1308 0.950 . S
C1318 C1319 1.386 . S
C1318 C1320 1.391 . S
C1319 C1318 1.386 . S
C1319 C1323 1.393 1_455 S
C1320 H1309 0.950 . S
C1320 C1318 1.391 . S
C1320 C1321 1.400 . S
C1321 C1315 1.491 . S
C1321 C1320 1.400 . S
C1321 C1322 1.398 1_455 S
C1322 H1310 0.950 . S
C1322 C1321 1.398 1_655 S
C1322 C1323 1.391 . S
C1323 H1311 0.950 . S
C1323 C1319 1.393 1_655 S
C1323 C1322 1.391 . S
H1324 C1332 0.950 . S
H1325 C1337 0.950 . S
H1326 C1334 0.950 . S
H1327 C1336 0.950 . S
H1328 C1338 0.950 . S
H1329 C1340 0.950 . S
H1330 C1342 0.950 . S
H1331 C1343 0.950 . S
C1332 H1324 0.950 . S
C1332 C1333 1.352 1_565 S
C1332 C1334 1.391 . S
C1333 C1332 1.352 1_545 S
C1333 C1337 1.427 . S
C1334 H1326 0.950 . S
C1334 C1332 1.391 . S
C1334 C1335 1.379 1_565 S
C1335 C1334 1.379 1_545 S
C1335 C1336 1.420 . S
C1335 C1341 1.490 . S
C1336 H1327 0.950 . S
C1336 C1335 1.420 . S
C1336 C1337 1.391 . S
C1337 H1325 0.950 . S
C1337 C1333 1.427 . S
C1337 C1336 1.391 . S
C1338 H1328 0.950 . S
C1338 C1339 1.383 1_545 S
C1338 C1340 1.391 . S
C1339 C1338 1.383 1_565 S
C1339 C1343 1.395 . S
C1340 H1329 0.950 . S
C1340 C1338 1.391 . S
C1340 C1341 1.402 . S
C1341 C1335 1.490 . S
C1341 C1340 1.402 . S
C1341 C1342 1.397 1_545 S
C1342 H1330 0.950 . S
C1342 C1341 1.397 1_565 S
C1342 C1343 1.391 . S
C1343 H1331 0.950 . S
C1343 C1339 1.395 . S
C1343 C1342 1.391 . S
H1344 C1352 0.950 . S
H1345 C1357 0.950 . S
H1346 C1354 0.950 . S
H1347 C1356 0.950 . S
H1348 C1358 0.950 . S
H1349 C1360 0.950 . S
H1350 C1362 0.950 . S
H1351 C1363 0.950 . S
C1352 H1344 0.950 . S
C1352 C1353 1.386 . S
C1352 C1354 1.391 . S
C1353 C1352 1.386 . S
C1353 C1357 1.393 1_455 S
C1354 H1346 0.950 . S
C1354 C1352 1.391 . S
C1354 C1355 1.400 . S
C1355 C1354 1.400 . S
C1355 C1356 1.398 1_455 S
C1355 C1361 1.491 . S
C1356 H1347 0.950 . S
C1356 C1355 1.398 1_655 S
C1356 C1357 1.391 . S
C1357 H1345 0.950 . S
C1357 C1353 1.393 1_655 S
C1357 C1356 1.391 . S
C1358 H1348 0.950 . S
C1358 C1359 1.386 1_655 S
C1358 C1360 1.391 . S
C1359 C1358 1.386 1_455 S
C1359 C1363 1.393 . S
C1360 H1349 0.950 . S
C1360 C1358 1.391 . S
C1360 C1361 1.400 1_655 S
C1361 C1355 1.491 . S
C1361 C1360 1.400 1_455 S
C1361 C1362 1.398 . S
C1362 H1350 0.950 . S
C1362 C1361 1.398 . S
C1362 C1363 1.391 . S
C1363 H1351 0.950 . S
C1363 C1359 1.393 . S
C1363 C1362 1.391 . S
H1364 C1372 0.950 . S
H1365 C1377 0.950 . S
H1366 C1374 0.950 . S
H1367 C1376 0.950 . S
H1368 C1378 0.950 . S
H1369 C1380 0.950 . S
H1370 C1382 0.950 . S
H1371 C1383 0.950 . S
C1372 H1364 0.950 . S
C1372 C1373 1.386 . S
C1372 C1374 1.391 . S
C1373 C1372 1.386 . S
C1373 C1377 1.393 1_554 S
C1374 H1366 0.950 . S
C1374 C1372 1.391 . S
C1374 C1375 1.400 . S
C1375 C1374 1.400 . S
C1375 C1376 1.398 1_554 S
C1375 C1381 1.491 . S
C1376 H1367 0.950 . S
C1376 C1375 1.398 1_556 S
C1376 C1377 1.391 . S
C1377 H1365 0.950 . S
C1377 C1373 1.393 1_556 S
C1377 C1376 1.391 . S
C1378 H1368 0.950 . S
C1378 C1379 1.379 1_556 S
C1378 C1380 1.391 . S
C1379 C1378 1.379 1_554 S
C1379 C1383 1.399 . S
C1380 H1369 0.950 . S
C1380 C1378 1.391 . S
C1380 C1381 1.400 1_556 S
C1381 C1375 1.491 . S
C1381 C1380 1.400 1_554 S
C1381 C1382 1.398 . S
C1382 H1370 0.950 . S
C1382 C1381 1.398 . S
C1382 C1383 1.391 . S
C1383 H1371 0.950 . S
C1383 C1379 1.399 . S
C1383 C1382 1.391 . S
H1384 C1392 0.950 . S
H1385 C1397 0.950 . S
H1386 C1394 0.950 . S
H1387 C1396 0.950 . S
H1388 C1398 0.950 . S
H1389 C1400 0.950 . S
H1390 C1402 0.950 . S
H1391 C1403 0.950 . S
C1392 H1384 0.950 . S
C1392 C1393 1.386 1_556 S
C1392 C1394 1.391 . S
C1393 C1392 1.386 1_554 S
C1393 C1397 1.393 . S
C1394 H1386 0.950 . S
C1394 C1392 1.391 . S
C1394 C1395 1.400 1_556 S
C1395 C1394 1.400 1_554 S
C1395 C1396 1.398 . S
C1395 C1401 1.491 . S
C1396 H1387 0.950 . S
C1396 C1395 1.398 . S
C1396 C1397 1.391 . S
C1397 H1385 0.950 . S
C1397 C1393 1.393 . S
C1397 C1396 1.391 . S
C1398 H1388 0.950 . S
C1398 C1399 1.386 . S
C1398 C1400 1.391 . S
C1399 C1398 1.386 . S
C1399 C1403 1.393 1_554 S
C1400 H1389 0.950 . S
C1400 C1398 1.391 . S
C1400 C1401 1.400 . S
C1401 C1395 1.491 . S
C1401 C1400 1.400 . S
C1401 C1402 1.398 1_554 S
C1402 H1390 0.950 . S
C1402 C1401 1.398 1_556 S
C1402 C1403 1.391 . S
C1403 H1391 0.950 . S
C1403 C1399 1.393 1_556 S
C1403 C1402 1.391 . S
H1404 C1412 0.950 . S
H1405 C1417 0.950 . S
H1406 C1414 0.950 . S
H1407 C1416 0.961 . S
H1408 C1418 0.950 . S
H1409 C1420 0.950 . S
H1410 C1422 0.950 . S
H1411 C1423 0.950 . S
C1412 H1404 0.950 . S
C1412 C1413 1.386 . S
C1412 C1414 1.391 . S
C1413 C1412 1.386 . S
C1413 C1417 1.393 1_554 S
C1414 H1406 0.950 . S
C1414 C1412 1.391 . S
C1414 C1415 1.400 . S
C1415 C1414 1.400 . S
C1415 C1416 1.388 1_554 S
C1415 C1421 1.491 . S
C1416 H1407 0.961 . S
C1416 C1415 1.388 1_556 S
C1416 C1417 1.392 . S
C1417 H1405 0.950 . S
C1417 C1413 1.393 1_556 S
C1417 C1416 1.392 . S
C1418 H1408 0.950 . S
C1418 C1419 1.386 1_556 S
C1418 C1420 1.391 . S
C1419 C1418 1.386 1_554 S
C1419 C1423 1.393 . S
C1420 H1409 0.950 . S
C1420 C1418 1.391 . S
C1420 C1421 1.400 1_556 S
C1421 C1415 1.491 . S
C1421 C1420 1.400 1_554 S
C1421 C1422 1.398 . S
C1422 H1410 0.950 . S
C1422 C1421 1.398 . S
C1422 C1423 1.391 . S
C1423 H1411 0.950 . S
C1423 C1419 1.393 . S
C1423 C1422 1.391 . S
H1424 C1432 0.950 . S
H1425 C1437 0.950 . S
H1426 C1434 0.950 . S
H1427 C1436 0.950 . S
H1428 C1438 0.950 . S
H1429 C1440 0.950 . S
H1430 C1442 0.950 . S
H1431 C1443 0.950 . S
C1432 H1424 0.950 . S
C1432 C1433 1.386 . S
C1432 C1434 1.391 . S
C1433 C1432 1.386 . S
C1433 C1437 1.393 1_554 S
C1434 H1426 0.950 . S
C1434 C1432 1.391 . S
C1434 C1435 1.400 . S
C1435 C1434 1.400 . S
C1435 C1436 1.398 1_554 S
C1435 C1441 1.491 . S
C1436 H1427 0.950 . S
C1436 C1435 1.398 1_556 S
C1436 C1437 1.391 . S
C1437 H1425 0.950 . S
C1437 C1433 1.393 1_556 S
C1437 C1436 1.391 . S
C1438 H1428 0.950 . S
C1438 C1439 1.364 1_556 S
C1438 C1440 1.391 . S
C1439 C1438 1.364 1_554 S
C1439 C1443 1.415 . S
C1440 H1429 0.950 . S
C1440 C1438 1.391 . S
C1440 C1441 1.400 1_556 S
C1441 C1435 1.491 . S
C1441 C1440 1.400 1_554 S
C1441 C1442 1.398 . S
C1442 H1430 0.950 . S
C1442 C1441 1.398 . S
C1442 C1443 1.391 . S
C1443 H1431 0.950 . S
C1443 C1439 1.415 . S
C1443 C1442 1.391 . S
H1444 C1452 0.950 . S
H1445 C1457 0.950 . S
H1446 C1454 0.950 . S
H1447 C1456 0.950 . S
H1448 C1458 0.950 . S
H1449 C1460 0.950 . S
H1450 C1462 0.950 . S
H1451 C1463 0.950 . S
C1452 H1444 0.950 . S
C1452 C1453 1.386 . S
C1452 C1454 1.391 . S
C1453 C1452 1.386 . S
C1453 C1457 1.393 1_554 S
C1454 H1446 0.950 . S
C1454 C1452 1.391 . S
C1454 C1455 1.400 . S
C1455 C1454 1.400 . S
C1455 C1456 1.398 1_554 S
C1455 C1461 1.491 . S
C1456 H1447 0.950 . S
C1456 C1455 1.398 1_556 S
C1456 C1457 1.391 . S
C1457 H1445 0.950 . S
C1457 C1453 1.393 1_556 S
C1457 C1456 1.391 . S
C1458 H1448 0.950 . S
C1458 C1459 1.386 1_556 S
C1458 C1460 1.391 . S
C1459 C1458 1.386 1_554 S
C1459 C1463 1.393 . S
C1460 H1449 0.950 . S
C1460 C1458 1.391 . S
C1460 C1461 1.400 1_556 S
C1461 C1455 1.491 . S
C1461 C1460 1.400 1_554 S
C1461 C1462 1.398 . S
C1462 H1450 0.950 . S
C1462 C1461 1.398 . S
C1462 C1463 1.391 . S
C1463 H1451 0.950 . S
C1463 C1459 1.393 . S
C1463 C1462 1.391 . S
H1464 C1472 0.950 . S
H1465 C1477 0.950 . S
H1466 C1474 0.950 . S
H1467 C1476 0.950 . S
H1468 C1478 0.950 . S
H1469 C1480 0.950 . S
H1470 C1482 0.950 . S
H1471 C1483 0.950 . S
C1472 H1464 0.950 . S
C1472 C1473 1.386 . S
C1472 C1474 1.391 . S
C1473 C1472 1.386 . S
C1473 C1477 1.393 1_554 S
C1474 H1466 0.950 . S
C1474 C1472 1.391 . S
C1474 C1475 1.400 . S
C1475 C1474 1.400 . S
C1475 C1476 1.398 1_554 S
C1475 C1481 1.491 . S
C1476 H1467 0.950 . S
C1476 C1475 1.398 1_556 S
C1476 C1477 1.391 . S
C1477 H1465 0.950 . S
C1477 C1473 1.393 1_556 S
C1477 C1476 1.391 . S
C1478 H1468 0.950 . S
C1478 C1479 1.386 1_556 S
C1478 C1480 1.391 . S
C1479 C1478 1.386 1_554 S
C1479 C1483 1.393 . S
C1480 H1469 0.950 . S
C1480 C1478 1.391 . S
C1480 C1481 1.400 1_556 S
C1481 C1475 1.491 . S
C1481 C1480 1.400 1_554 S
C1481 C1482 1.398 . S
C1482 H1470 0.950 . S
C1482 C1481 1.398 . S
C1482 C1483 1.391 . S
C1483 H1471 0.950 . S
C1483 C1479 1.393 . S
C1483 C1482 1.391 . S
H1484 C1492 0.950 . S
H1485 C1497 0.950 . S
H1486 C1494 0.950 . S
H1487 C1496 0.950 . S
H1488 C1498 0.950 . S
H1489 C1500 0.950 . S
H1490 C1502 0.950 . S
H1491 C1503 0.950 . S
C1492 H1484 0.950 . S
C1492 C1493 1.386 . S
C1492 C1494 1.391 . S
C1493 C1492 1.386 . S
C1493 C1497 1.393 1_554 S
C1494 H1486 0.950 . S
C1494 C1492 1.391 . S
C1494 C1495 1.400 . S
C1495 C1494 1.400 . S
C1495 C1496 1.398 1_554 S
C1495 C1501 1.491 . S
C1496 H1487 0.950 . S
C1496 C1495 1.398 1_556 S
C1496 C1497 1.391 . S
C1497 H1485 0.950 . S
C1497 C1493 1.393 1_556 S
C1497 C1496 1.391 . S
C1498 H1488 0.950 . S
C1498 C1499 1.386 1_556 S
C1498 C1500 1.391 . S
C1499 C1498 1.386 1_554 S
C1499 C1503 1.393 . S
C1500 H1489 0.950 . S
C1500 C1498 1.391 . S
C1500 C1501 1.400 1_556 S
C1501 C1495 1.491 . S
C1501 C1500 1.400 1_554 S
C1501 C1502 1.398 . S
C1502 H1490 0.950 . S
C1502 C1501 1.398 . S
C1502 C1503 1.391 . S
C1503 H1491 0.950 . S
C1503 C1499 1.393 . S
C1503 C1502 1.391 . S
H1504 C1512 0.950 . S
H1505 C1517 0.950 . S
H1506 C1514 0.950 . S
H1507 C1516 0.950 . S
H1508 C1518 0.950 . S
H1509 C1520 0.950 . S
H1510 C1522 0.950 . S
H1511 C1523 0.950 . S
C1512 H1504 0.950 . S
C1512 C1513 1.386 . S
C1512 C1514 1.391 . S
C1513 C1512 1.386 . S
C1513 C1517 1.393 1_554 S
C1514 H1506 0.950 . S
C1514 C1512 1.391 . S
C1514 C1515 1.400 . S
C1515 C1514 1.400 . S
C1515 C1516 1.398 1_554 S
C1515 C1521 1.491 . S
C1516 H1507 0.950 . S
C1516 C1515 1.398 1_556 S
C1516 C1517 1.391 . S
C1517 H1505 0.950 . S
C1517 C1513 1.393 1_556 S
C1517 C1516 1.391 . S
C1518 H1508 0.950 . S
C1518 C1519 1.386 1_556 S
C1518 C1520 1.391 . S
C1519 C1518 1.386 1_554 S
C1519 C1523 1.393 . S
C1520 H1509 0.950 . S
C1520 C1518 1.391 . S
C1520 C1521 1.400 1_556 S
C1521 C1515 1.491 . S
C1521 C1520 1.400 1_554 S
C1521 C1522 1.398 . S
C1522 H1510 0.950 . S
C1522 C1521 1.398 . S
C1522 C1523 1.391 . S
C1523 H1511 0.950 . S
C1523 C1519 1.393 . S
C1523 C1522 1.391 . S
H1524 C1532 0.950 . S
H1525 C1537 0.950 . S
H1526 C1534 0.950 . S
H1527 C1536 0.950 . S
H1528 C1538 0.950 . S
H1529 C1540 0.950 . S
H1530 C1542 0.950 . S
H1531 C1543 0.950 . S
C1532 H1524 0.950 . S
C1532 C1533 1.386 . S
C1532 C1534 1.391 . S
C1533 C1532 1.386 . S
C1533 C1537 1.393 . S
C1534 H1526 0.950 . S
C1534 C1532 1.391 . S
C1534 C1535 1.400 . S
C1535 C1534 1.400 . S
C1535 C1536 1.398 . S
C1535 C1541 1.491 . S
C1536 H1527 0.950 . S
C1536 C1535 1.398 . S
C1536 C1537 1.391 . S
C1537 H1525 0.950 . S
C1537 C1533 1.393 . S
C1537 C1536 1.391 . S
C1538 H1528 0.950 . S
C1538 C1539 1.386 . S
C1538 C1540 1.391 . S
C1539 C1538 1.386 . S
C1539 C1543 1.393 . S
C1540 H1529 0.950 . S
C1540 C1538 1.391 . S
C1540 C1541 1.400 . S
C1541 C1535 1.491 . S
C1541 C1540 1.400 . S
C1541 C1542 1.398 . S
C1542 H1530 0.950 . S
C1542 C1541 1.398 . S
C1542 C1543 1.391 . S
C1543 H1531 0.950 . S
C1543 C1539 1.393 . S
C1543 C1542 1.391 . S
H1544 C1552 0.950 . S
H1545 C1557 0.950 . S
H1546 C1554 0.950 . S
H1547 C1556 0.950 . S
H1548 C1558 0.950 . S
H1549 C1560 0.950 . S
H1550 C1562 0.950 . S
H1551 C1563 0.950 . S
C1552 H1544 0.950 . S
C1552 C1553 1.386 . S
C1552 C1554 1.391 . S
C1553 C1552 1.386 . S
C1553 C1557 1.393 . S
C1554 H1546 0.950 . S
C1554 C1552 1.391 . S
C1554 C1555 1.400 . S
C1555 C1554 1.400 . S
C1555 C1556 1.398 . S
C1555 C1561 1.491 . S
C1556 H1547 0.950 . S
C1556 C1555 1.398 . S
C1556 C1557 1.391 . S
C1557 H1545 0.950 . S
C1557 C1553 1.393 . S
C1557 C1556 1.391 . S
C1558 H1548 0.950 . S
C1558 C1559 1.386 . S
C1558 C1560 1.391 . S
C1559 C1558 1.386 . S
C1559 C1563 1.393 . S
C1560 H1549 0.950 . S
C1560 C1558 1.391 . S
C1560 C1561 1.400 . S
C1561 C1555 1.491 . S
C1561 C1560 1.400 . S
C1561 C1562 1.398 . S
C1562 H1550 0.950 . S
C1562 C1561 1.398 . S
C1562 C1563 1.391 . S
C1563 H1551 0.950 . S
C1563 C1559 1.393 . S
C1563 C1562 1.391 . S
H1564 C1572 0.950 . S
H1565 C1577 0.950 . S
H1566 C1574 0.950 . S
H1567 C1576 0.950 . S
H1568 C1578 0.950 . S
H1569 C1580 0.950 . S
H1570 C1582 0.950 . S
H1571 C1583 0.950 . S
C1572 H1564 0.950 . S
C1572 C1573 1.386 . S
C1572 C1574 1.391 . S
C1573 C1572 1.386 . S
C1573 C1577 1.393 . S
C1574 H1566 0.950 . S
C1574 C1572 1.391 . S
C1574 C1575 1.400 . S
C1575 C1574 1.400 . S
C1575 C1576 1.398 . S
C1575 C1581 1.491 . S
C1576 H1567 0.950 . S
C1576 C1575 1.398 . S
C1576 C1577 1.391 . S
C1577 H1565 0.950 . S
C1577 C1573 1.393 . S
C1577 C1576 1.391 . S
C1578 H1568 0.950 . S
C1578 C1579 1.386 . S
C1578 C1580 1.391 . S
C1579 C1578 1.386 . S
C1579 C1583 1.393 . S
C1580 H1569 0.950 . S
C1580 C1578 1.391 . S
C1580 C1581 1.400 . S
C1581 C1575 1.491 . S
C1581 C1580 1.400 . S
C1581 C1582 1.398 . S
C1582 H1570 0.950 . S
C1582 C1581 1.398 . S
C1582 C1583 1.391 . S
C1583 H1571 0.950 . S
C1583 C1579 1.393 . S
C1583 C1582 1.391 . S
H1584 C1592 0.950 . S
H1585 C1597 0.950 . S
H1586 C1594 0.950 . S
H1587 C1596 0.950 . S
H1588 C1598 0.950 . S
H1589 C1600 0.950 . S
H1590 C1602 0.950 . S
H1591 C1603 0.950 . S
C1592 H1584 0.950 . S
C1592 C1593 1.386 . S
C1592 C1594 1.391 . S
C1593 C1592 1.386 . S
C1593 C1597 1.393 . S
C1594 H1586 0.950 . S
C1594 C1592 1.391 . S
C1594 C1595 1.400 . S
C1595 C1594 1.400 . S
C1595 C1596 1.398 . S
C1595 C1601 1.491 . S
C1596 H1587 0.950 . S
C1596 C1595 1.398 . S
C1596 C1597 1.391 . S
C1597 H1585 0.950 . S
C1597 C1593 1.393 . S
C1597 C1596 1.391 . S
C1598 H1588 0.950 . S
C1598 C1599 1.386 . S
C1598 C1600 1.391 . S
C1599 C1598 1.386 . S
C1599 C1603 1.393 . S
C1600 H1589 0.950 . S
C1600 C1598 1.391 . S
C1600 C1601 1.400 . S
C1601 C1595 1.491 . S
C1601 C1600 1.400 . S
C1601 C1602 1.398 . S
C1602 H1590 0.950 . S
C1602 C1601 1.398 . S
C1602 C1603 1.391 . S
C1603 H1591 0.950 . S
C1603 C1599 1.393 . S
C1603 C1602 1.391 . S
H1604 C1612 0.950 . S
H1605 C1617 0.950 . S
H1606 C1614 0.950 . S
H1607 C1616 0.950 . S
H1608 C1618 0.950 . S
H1609 C1620 0.950 . S
H1610 C1622 0.950 . S
H1611 C1623 0.950 . S
C1612 H1604 0.950 . S
C1612 C1613 1.386 . S
C1612 C1614 1.391 . S
C1613 C1612 1.386 . S
C1613 C1617 1.393 . S
C1614 H1606 0.950 . S
C1614 C1612 1.391 . S
C1614 C1615 1.400 . S
C1615 C1614 1.400 . S
C1615 C1616 1.398 . S
C1615 C1621 1.491 . S
C1616 H1607 0.950 . S
C1616 C1615 1.398 . S
C1616 C1617 1.391 . S
C1617 H1605 0.950 . S
C1617 C1613 1.393 . S
C1617 C1616 1.391 . S
C1618 H1608 0.950 . S
C1618 C1619 1.386 . S
C1618 C1620 1.391 . S
C1619 C1618 1.386 . S
C1619 C1623 1.393 . S
C1620 H1609 0.950 . S
C1620 C1618 1.391 . S
C1620 C1621 1.400 . S
C1621 C1615 1.491 . S
C1621 C1620 1.400 . S
C1621 C1622 1.398 . S
C1622 H1610 0.950 . S
C1622 C1621 1.398 . S
C1622 C1623 1.391 . S
C1623 H1611 0.950 . S
C1623 C1619 1.393 . S
C1623 C1622 1.391 . S
H1624 C1632 0.950 . S
H1625 C1637 0.950 . S
H1626 C1634 0.950 . S
H1627 C1636 0.950 . S
H1628 C1638 0.950 . S
H1629 C1640 0.950 . S
H1630 C1642 0.950 . S
H1631 C1643 0.950 . S
C1632 H1624 0.950 . S
C1632 C1633 1.386 . S
C1632 C1634 1.391 . S
C1633 C1632 1.386 . S
C1633 C1637 1.393 . S
C1634 H1626 0.950 . S
C1634 C1632 1.391 . S
C1634 C1635 1.400 . S
C1635 C1634 1.400 . S
C1635 C1636 1.398 . S
C1635 C1641 1.491 . S
C1636 H1627 0.950 . S
C1636 C1635 1.398 . S
C1636 C1637 1.391 . S
C1637 H1625 0.950 . S
C1637 C1633 1.393 . S
C1637 C1636 1.391 . S
C1638 H1628 0.950 . S
C1638 C1639 1.386 . S
C1638 C1640 1.391 . S
C1639 C1638 1.386 . S
C1639 C1643 1.393 . S
C1640 H1629 0.950 . S
C1640 C1638 1.391 . S
C1640 C1641 1.400 . S
C1641 C1635 1.491 . S
C1641 C1640 1.400 . S
C1641 C1642 1.398 . S
C1642 H1630 0.950 . S
C1642 C1641 1.398 . S
C1642 C1643 1.391 . S
C1643 H1631 0.950 . S
C1643 C1639 1.393 . S
C1643 C1642 1.391 . S
H1644 C1652 0.950 . S
H1645 C1657 0.950 . S
H1646 C1654 0.950 . S
H1647 C1656 0.950 . S
H1648 C1658 0.950 . S
H1649 C1660 0.950 . S
H1650 C1662 0.950 . S
H1651 C1663 0.950 . S
C1652 H1644 0.950 . S
C1652 C1653 1.386 . S
C1652 C1654 1.391 . S
C1653 C1652 1.386 . S
C1653 C1657 1.393 . S
C1654 H1646 0.950 . S
C1654 C1652 1.391 . S
C1654 C1655 1.400 . S
C1655 C1654 1.400 . S
C1655 C1656 1.398 . S
C1655 C1661 1.491 . S
C1656 H1647 0.950 . S
C1656 C1655 1.398 . S
C1656 C1657 1.391 . S
C1657 H1645 0.950 . S
C1657 C1653 1.393 . S
C1657 C1656 1.391 . S
C1658 H1648 0.950 . S
C1658 C1659 1.386 . S
C1658 C1660 1.391 . S
C1659 C1658 1.386 . S
C1659 C1663 1.393 . S
C1660 H1649 0.950 . S
C1660 C1658 1.391 . S
C1660 C1661 1.400 . S
C1661 C1655 1.491 . S
C1661 C1660 1.400 . S
C1661 C1662 1.398 . S
C1662 H1650 0.950 . S
C1662 C1661 1.398 . S
C1662 C1663 1.391 . S
C1663 H1651 0.950 . S
C1663 C1659 1.393 . S
C1663 C1662 1.391 . S
H1664 C1672 0.950 . S
H1665 C1677 0.950 . S
H1666 C1674 0.950 . S
H1667 C1676 0.950 . S
H1668 C1678 0.950 . S
H1669 C1680 0.950 . S
H1670 C1682 0.950 . S
H1671 C1683 0.950 . S
C1672 H1664 0.950 . S
C1672 C1673 1.386 . S
C1672 C1674 1.391 . S
C1673 C1672 1.386 . S
C1673 C1677 1.393 . S
C1674 H1666 0.950 . S
C1674 C1672 1.391 . S
C1674 C1675 1.400 . S
C1675 C1674 1.400 . S
C1675 C1676 1.398 . S
C1675 C1681 1.491 . S
C1676 H1667 0.950 . S
C1676 C1675 1.398 . S
C1676 C1677 1.391 . S
C1677 H1665 0.950 . S
C1677 C1673 1.393 . S
C1677 C1676 1.391 . S
C1678 H1668 0.950 . S
C1678 C1679 1.386 . S
C1678 C1680 1.391 . S
C1679 C1678 1.386 . S
C1679 C1683 1.393 . S
C1680 H1669 0.950 . S
C1680 C1678 1.391 . S
C1680 C1681 1.400 . S
C1681 C1675 1.491 . S
C1681 C1680 1.400 . S
C1681 C1682 1.398 . S
C1682 H1670 0.950 . S
C1682 C1681 1.398 . S
C1682 C1683 1.391 . S
C1683 H1671 0.950 . S
C1683 C1679 1.393 . S
C1683 C1682 1.391 . S
H1684 C1692 0.950 . S
H1685 C1697 0.950 . S
H1686 C1694 0.950 . S
H1687 C1696 0.950 . S
H1688 C1698 0.950 . S
H1689 C1700 0.950 . S
H1690 C1702 0.950 . S
H1691 C1703 0.950 . S
C1692 H1684 0.950 . S
C1692 C1693 1.386 . S
C1692 C1694 1.391 . S
C1693 C1692 1.386 . S
C1693 C1697 1.393 . S
C1694 H1686 0.950 . S
C1694 C1692 1.391 . S
C1694 C1695 1.400 . S
C1695 C1694 1.400 . S
C1695 C1696 1.398 . S
C1695 C1701 1.491 . S
C1696 H1687 0.950 . S
C1696 C1695 1.398 . S
C1696 C1697 1.391 . S
C1697 H1685 0.950 . S
C1697 C1693 1.393 . S
C1697 C1696 1.391 . S
C1698 H1688 0.950 . S
C1698 C1699 1.386 . S
C1698 C1700 1.391 . S
C1699 C1698 1.386 . S
C1699 C1703 1.393 . S
C1700 H1689 0.950 . S
C1700 C1698 1.391 . S
C1700 C1701 1.400 . S
C1701 C1695 1.491 . S
C1701 C1700 1.400 . S
C1701 C1702 1.398 . S
C1702 H1690 0.950 . S
C1702 C1701 1.398 . S
C1702 C1703 1.391 . S
C1703 H1691 0.950 . S
C1703 C1699 1.393 . S
C1703 C1702 1.391 . S
H1704 C1712 0.950 . S
H1705 C1717 0.950 . S
H1706 C1714 0.950 . S
H1707 C1716 0.950 . S
H1708 C1718 0.950 . S
H1709 C1720 0.950 . S
H1710 C1722 0.950 . S
H1711 C1723 0.950 . S
C1712 H1704 0.950 . S
C1712 C1713 1.386 . S
C1712 C1714 1.391 . S
C1713 C1712 1.386 . S
C1713 C1717 1.393 . S
C1714 H1706 0.950 . S
C1714 C1712 1.391 . S
C1714 C1715 1.400 . S
C1715 C1714 1.400 . S
C1715 C1716 1.398 . S
C1715 C1721 1.491 . S
C1716 H1707 0.950 . S
C1716 C1715 1.398 . S
C1716 C1717 1.391 . S
C1717 H1705 0.950 . S
C1717 C1713 1.393 . S
C1717 C1716 1.391 . S
C1718 H1708 0.950 . S
C1718 C1719 1.386 . S
C1718 C1720 1.391 . S
C1719 C1718 1.386 . S
C1719 C1723 1.393 . S
C1720 H1709 0.950 . S
C1720 C1718 1.391 . S
C1720 C1721 1.400 . S
C1721 C1715 1.491 . S
C1721 C1720 1.400 . S
C1721 C1722 1.398 . S
C1722 H1710 0.950 . S
C1722 C1721 1.398 . S
C1722 C1723 1.391 . S
C1723 H1711 0.950 . S
C1723 C1719 1.393 . S
C1723 C1722 1.391 . S
H1724 C1732 0.950 . S
H1725 C1737 0.950 . S
H1726 C1734 0.950 . S
H1727 C1736 0.950 . S
H1728 C1738 0.950 . S
H1729 C1740 0.950 . S
H1730 C1742 0.950 . S
H1731 C1743 0.950 . S
C1732 H1724 0.950 . S
C1732 C1733 1.386 . S
C1732 C1734 1.391 . S
C1733 C1732 1.386 . S
C1733 C1737 1.393 . S
C1734 H1726 0.950 . S
C1734 C1732 1.391 . S
C1734 C1735 1.400 . S
C1735 C1734 1.400 . S
C1735 C1736 1.398 . S
C1735 C1741 1.491 . S
C1736 H1727 0.950 . S
C1736 C1735 1.398 . S
C1736 C1737 1.391 . S
C1737 H1725 0.950 . S
C1737 C1733 1.393 . S
C1737 C1736 1.391 . S
C1738 H1728 0.950 . S
C1738 C1739 1.386 . S
C1738 C1740 1.391 . S
C1739 C1738 1.386 . S
C1739 C1743 1.393 . S
C1740 H1729 0.950 . S
C1740 C1738 1.391 . S
C1740 C1741 1.400 . S
C1741 C1735 1.491 . S
C1741 C1740 1.400 . S
C1741 C1742 1.398 . S
C1742 H1730 0.950 . S
C1742 C1741 1.398 . S
C1742 C1743 1.391 . S
C1743 H1731 0.950 . S
C1743 C1739 1.393 . S
C1743 C1742 1.391 . S
H1744 C1752 0.950 . S
H1745 C1757 0.950 . S
H1746 C1754 0.950 . S
H1747 C1756 0.950 . S
H1748 C1758 0.950 . S
H1749 C1760 0.950 . S
H1750 C1762 0.950 . S
H1751 C1763 0.950 . S
C1752 H1744 0.950 . S
C1752 C1753 1.386 . S
C1752 C1754 1.391 . S
C1753 C1752 1.386 . S
C1753 C1757 1.393 . S
C1754 H1746 0.950 . S
C1754 C1752 1.391 . S
C1754 C1755 1.400 . S
C1755 C1754 1.400 . S
C1755 C1756 1.398 . S
C1755 C1761 1.491 . S
C1756 H1747 0.950 . S
C1756 C1755 1.398 . S
C1756 C1757 1.391 . S
C1757 H1745 0.950 . S
C1757 C1753 1.393 . S
C1757 C1756 1.391 . S
C1758 H1748 0.950 . S
C1758 C1759 1.386 . S
C1758 C1760 1.391 . S
C1759 C1758 1.386 . S
C1759 C1763 1.393 . S
C1760 H1749 0.950 . S
C1760 C1758 1.391 . S
C1760 C1761 1.400 . S
C1761 C1755 1.491 . S
C1761 C1760 1.400 . S
C1761 C1762 1.398 . S
C1762 H1750 0.950 . S
C1762 C1761 1.398 . S
C1762 C1763 1.391 . S
C1763 H1751 0.950 . S
C1763 C1759 1.393 . S
C1763 C1762 1.391 . S
H1764 C1772 0.950 . S
H1765 C1777 0.950 . S
H1766 C1774 0.950 . S
H1767 C1776 0.950 . S
H1768 C1778 0.950 . S
H1769 C1780 0.950 . S
H1770 C1782 0.950 . S
H1771 C1783 0.950 . S
C1772 H1764 0.950 . S
C1772 C1773 1.386 . S
C1772 C1774 1.391 . S
C1773 C1772 1.386 . S
C1773 C1777 1.393 . S
C1774 H1766 0.950 . S
C1774 C1772 1.391 . S
C1774 C1775 1.400 . S
C1775 C1774 1.400 . S
C1775 C1776 1.398 . S
C1775 C1781 1.491 . S
C1776 H1767 0.950 . S
C1776 C1775 1.398 . S
C1776 C1777 1.391 . S
C1777 H1765 0.950 . S
C1777 C1773 1.393 . S
C1777 C1776 1.391 . S
C1778 H1768 0.950 . S
C1778 C1779 1.386 . S
C1778 C1780 1.391 . S
C1779 C1778 1.386 . S
C1779 C1783 1.393 . S
C1780 H1769 0.950 . S
C1780 C1778 1.391 . S
C1780 C1781 1.400 . S
C1781 C1775 1.491 . S
C1781 C1780 1.400 . S
C1781 C1782 1.398 . S
C1782 H1770 0.950 . S
C1782 C1781 1.398 . S
C1782 C1783 1.391 . S
C1783 H1771 0.950 . S
C1783 C1779 1.393 . S
C1783 C1782 1.391 . S
H1784 C1792 0.950 . S
H1785 C1797 0.950 . S
H1786 C1794 0.950 . S
H1787 C1796 0.950 . S
H1788 C1798 0.950 . S
H1789 C1800 0.950 . S
H1790 C1802 0.950 . S
H1791 C1803 0.950 . S
C1792 H1784 0.950 . S
C1792 C1793 1.386 . S
C1792 C1794 1.391 . S
C1793 C1792 1.386 . S
C1793 C1797 1.393 . S
C1794 H1786 0.950 . S
C1794 C1792 1.391 . S
C1794 C1795 1.400 . S
C1795 C1794 1.400 . S
C1795 C1796 1.398 . S
C1795 C1801 1.491 . S
C1796 H1787 0.950 . S
C1796 C1795 1.398 . S
C1796 C1797 1.391 . S
C1797 H1785 0.950 . S
C1797 C1793 1.393 . S
C1797 C1796 1.391 . S
C1798 H1788 0.950 . S
C1798 C1799 1.386 . S
C1798 C1800 1.391 . S
C1799 C1798 1.386 . S
C1799 C1803 1.393 . S
C1800 H1789 0.950 . S
C1800 C1798 1.391 . S
C1800 C1801 1.400 . S
C1801 C1795 1.491 . S
C1801 C1800 1.400 . S
C1801 C1802 1.398 . S
C1802 H1790 0.950 . S
C1802 C1801 1.398 . S
C1802 C1803 1.391 . S
C1803 H1791 0.950 . S
C1803 C1799 1.393 . S
C1803 C1802 1.391 . S
H1804 C1812 0.950 . S
H1805 C1817 0.950 . S
H1806 C1814 0.950 . S
H1807 C1816 0.950 . S
H1808 C1818 0.950 . S
H1809 C1820 0.950 . S
H1810 C1822 0.950 . S
H1811 C1823 0.950 . S
C1812 H1804 0.950 . S
C1812 C1813 1.386 . S
C1812 C1814 1.391 . S
C1813 C1812 1.386 . S
C1813 C1817 1.393 . S
C1814 H1806 0.950 . S
C1814 C1812 1.391 . S
C1814 C1815 1.400 . S
C1815 C1814 1.400 . S
C1815 C1816 1.398 . S
C1815 C1821 1.491 . S
C1816 H1807 0.950 . S
C1816 C1815 1.398 . S
C1816 C1817 1.391 . S
C1817 H1805 0.950 . S
C1817 C1813 1.393 . S
C1817 C1816 1.391 . S
C1818 H1808 0.950 . S
C1818 C1819 1.386 . S
C1818 C1820 1.391 . S
C1819 C1818 1.386 . S
C1819 C1823 1.393 . S
C1820 H1809 0.950 . S
C1820 C1818 1.391 . S
C1820 C1821 1.400 . S
C1821 C1815 1.491 . S
C1821 C1820 1.400 . S
C1821 C1822 1.398 . S
C1822 H1810 0.950 . S
C1822 C1821 1.398 . S
C1822 C1823 1.391 . S
C1823 H1811 0.950 . S
C1823 C1819 1.393 . S
C1823 C1822 1.391 . S
H1824 C1832 0.950 . S
H1825 C1837 0.950 . S
H1826 C1834 0.950 . S
H1827 C1836 0.950 . S
H1828 C1838 0.950 . S
H1829 C1840 0.950 . S
H1830 C1842 0.950 . S
H1831 C1843 0.950 . S
C1832 H1824 0.950 . S
C1832 C1833 1.386 . S
C1832 C1834 1.391 . S
C1833 C1832 1.386 . S
C1833 C1837 1.393 . S
C1834 H1826 0.950 . S
C1834 C1832 1.391 . S
C1834 C1835 1.400 . S
C1835 C1834 1.400 . S
C1835 C1836 1.398 . S
C1835 C1841 1.491 . S
C1836 H1827 0.950 . S
C1836 C1835 1.398 . S
C1836 C1837 1.391 . S
C1837 H1825 0.950 . S
C1837 C1833 1.393 . S
C1837 C1836 1.391 . S
C1838 H1828 0.950 . S
C1838 C1839 1.386 . S
C1838 C1840 1.391 . S
C1839 C1838 1.386 . S
C1839 C1843 1.393 . S
C1840 H1829 0.950 . S
C1840 C1838 1.391 . S
C1840 C1841 1.400 . S
C1841 C1835 1.491 . S
C1841 C1840 1.400 . S
C1841 C1842 1.398 . S
C1842 H1830 0.950 . S
C1842 C1841 1.398 . S
C1842 C1843 1.391 . S
C1843 H1831 0.950 . S
C1843 C1839 1.393 . S
C1843 C1842 1.391 . S
H1844 C1852 0.950 . S
H1845 C1857 0.950 . S
H1846 C1854 0.950 . S
H1847 C1856 0.950 . S
H1848 C1858 0.950 . S
H1849 C1860 0.950 . S
H1850 C1862 0.950 . S
H1851 C1863 0.950 . S
C1852 H1844 0.950 . S
C1852 C1853 1.386 . S
C1852 C1854 1.391 . S
C1853 C1852 1.386 . S
C1853 C1857 1.393 . S
C1854 H1846 0.950 . S
C1854 C1852 1.391 . S
C1854 C1855 1.400 . S
C1855 C1854 1.400 . S
C1855 C1856 1.398 . S
C1855 C1861 1.491 . S
C1856 H1847 0.950 . S
C1856 C1855 1.398 . S
C1856 C1857 1.391 . S
C1857 H1845 0.950 . S
C1857 C1853 1.393 . S
C1857 C1856 1.391 . S
C1858 H1848 0.950 . S
C1858 C1859 1.386 . S
C1858 C1860 1.391 . S
C1859 C1858 1.386 . S
C1859 C1863 1.393 . S
C1860 H1849 0.950 . S
C1860 C1858 1.391 . S
C1860 C1861 1.400 . S
C1861 C1855 1.491 . S
C1861 C1860 1.400 . S
C1861 C1862 1.398 . S
C1862 H1850 0.950 . S
C1862 C1861 1.398 . S
C1862 C1863 1.391 . S
C1863 H1851 0.950 . S
C1863 C1859 1.393 . S
C1863 C1862 1.391 . S
H1864 C1872 0.950 . S
H1865 C1877 0.950 . S
H1866 C1874 0.950 . S
H1867 C1876 0.950 . S
H1868 C1878 0.950 . S
H1869 C1880 0.950 . S
H1870 C1882 0.950 . S
H1871 C1883 0.950 . S
C1872 H1864 0.950 . S
C1872 C1873 1.386 . S
C1872 C1874 1.391 . S
C1873 C1872 1.386 . S
C1873 C1877 1.393 . S
C1874 H1866 0.950 . S
C1874 C1872 1.391 . S
C1874 C1875 1.400 . S
C1875 C1874 1.400 . S
C1875 C1876 1.398 . S
C1875 C1881 1.491 . S
C1876 H1867 0.950 . S
C1876 C1875 1.398 . S
C1876 C1877 1.391 . S
C1877 H1865 0.950 . S
C1877 C1873 1.393 . S
C1877 C1876 1.391 . S
C1878 H1868 0.950 . S
C1878 C1879 1.386 . S
C1878 C1880 1.391 . S
C1879 C1878 1.386 . S
C1879 C1883 1.393 . S
C1880 H1869 0.950 . S
C1880 C1878 1.391 . S
C1880 C1881 1.400 . S
C1881 C1875 1.491 . S
C1881 C1880 1.400 . S
C1881 C1882 1.398 . S
C1882 H1870 0.950 . S
C1882 C1881 1.398 . S
C1882 C1883 1.391 . S
C1883 H1871 0.950 . S
C1883 C1879 1.393 . S
C1883 C1882 1.391 . S
H1884 C1892 0.950 . S
H1885 C1897 0.950 . S
H1886 C1894 0.950 . S
H1887 C1896 0.950 . S
H1888 C1898 0.950 . S
H1889 C1900 0.950 . S
H1890 C1902 0.950 . S
H1891 C1903 0.950 . S
C1892 H1884 0.950 . S
C1892 C1893 1.386 . S
C1892 C1894 1.391 . S
C1893 C1892 1.386 . S
C1893 C1897 1.393 . S
C1894 H1886 0.950 . S
C1894 C1892 1.391 . S
C1894 C1895 1.400 . S
C1895 C1894 1.400 . S
C1895 C1896 1.398 . S
C1895 C1901 1.491 . S
C1896 H1887 0.950 . S
C1896 C1895 1.398 . S
C1896 C1897 1.391 . S
C1897 H1885 0.950 . S
C1897 C1893 1.393 . S
C1897 C1896 1.391 . S
C1898 H1888 0.950 . S
C1898 C1899 1.386 . S
C1898 C1900 1.391 . S
C1899 C1898 1.386 . S
C1899 C1903 1.393 . S
C1900 H1889 0.950 . S
C1900 C1898 1.391 . S
C1900 C1901 1.400 . S
C1901 C1895 1.491 . S
C1901 C1900 1.400 . S
C1901 C1902 1.398 . S
C1902 H1890 0.950 . S
C1902 C1901 1.398 . S
C1902 C1903 1.391 . S
C1903 H1891 0.950 . S
C1903 C1899 1.393 . S
C1903 C1902 1.391 . S
H1904 C1912 0.950 . S
H1905 C1917 0.950 . S
H1906 C1914 0.950 . S
H1907 C1916 0.950 . S
H1908 C1918 0.950 . S
H1909 C1920 0.950 . S
H1910 C1922 0.950 . S
H1911 C1923 0.950 . S
C1912 H1904 0.950 . S
C1912 C1913 1.386 . S
C1912 C1914 1.391 . S
C1913 C1912 1.386 . S
C1913 C1917 1.393 . S
C1914 H1906 0.950 . S
C1914 C1912 1.391 . S
C1914 C1915 1.400 . S
C1915 C1914 1.400 . S
C1915 C1916 1.398 . S
C1915 C1921 1.491 . S
C1916 H1907 0.950 . S
C1916 C1915 1.398 . S
C1916 C1917 1.391 . S
C1917 H1905 0.950 . S
C1917 C1913 1.393 . S
C1917 C1916 1.391 . S
C1918 H1908 0.950 . S
C1918 C1919 1.386 . S
C1918 C1920 1.391 . S
C1919 C1918 1.386 . S
C1919 C1923 1.393 . S
C1920 H1909 0.950 . S
C1920 C1918 1.391 . S
C1920 C1921 1.400 . S
C1921 C1915 1.491 . S
C1921 C1920 1.400 . S
C1921 C1922 1.398 . S
C1922 H1910 0.950 . S
C1922 C1921 1.398 . S
C1922 C1923 1.391 . S
C1923 H1911 0.950 . S
C1923 C1919 1.393 . S
C1923 C1922 1.391 . S
H1924 C1932 0.950 . S
H1925 C1937 0.950 . S
H1926 C1934 0.950 . S
H1927 C1936 0.950 . S
H1928 C1938 0.950 . S
H1929 C1940 0.950 . S
H1930 C1942 0.950 . S
H1931 C1943 0.950 . S
C1932 H1924 0.950 . S
C1932 C1933 1.386 . S
C1932 C1934 1.391 . S
C1933 C1932 1.386 . S
C1933 C1937 1.393 . S
C1934 H1926 0.950 . S
C1934 C1932 1.391 . S
C1934 C1935 1.400 . S
C1935 C1934 1.400 . S
C1935 C1936 1.398 . S
C1935 C1941 1.491 . S
C1936 H1927 0.950 . S
C1936 C1935 1.398 . S
C1936 C1937 1.391 . S
C1937 H1925 0.950 . S
C1937 C1933 1.393 . S
C1937 C1936 1.391 . S
C1938 H1928 0.950 . S
C1938 C1939 1.386 . S
C1938 C1940 1.391 . S
C1939 C1938 1.386 . S
C1939 C1943 1.393 . S
C1940 H1929 0.950 . S
C1940 C1938 1.391 . S
C1940 C1941 1.400 . S
C1941 C1935 1.491 . S
C1941 C1940 1.400 . S
C1941 C1942 1.398 . S
C1942 H1930 0.950 . S
C1942 C1941 1.398 . S
C1942 C1943 1.391 . S
C1943 H1931 0.950 . S
C1943 C1939 1.393 . S
C1943 C1942 1.391 . S
H1944 C1952 0.950 . S
H1945 C1957 0.950 . S
H1946 C1954 0.950 . S
H1947 C1956 0.950 . S
H1948 C1958 0.950 . S
H1949 C1960 0.950 . S
H1950 C1962 0.950 . S
H1951 C1963 0.950 . S
C1952 H1944 0.950 . S
C1952 C1953 1.386 . S
C1952 C1954 1.391 . S
C1953 C1952 1.386 . S
C1953 C1957 1.393 . S
C1954 H1946 0.950 . S
C1954 C1952 1.391 . S
C1954 C1955 1.400 . S
C1955 C1954 1.400 . S
C1955 C1956 1.398 . S
C1955 C1961 1.491 . S
C1956 H1947 0.950 . S
C1956 C1955 1.398 . S
C1956 C1957 1.391 . S
C1957 H1945 0.950 . S
C1957 C1953 1.393 . S
C1957 C1956 1.391 . S
C1958 H1948 0.950 . S
C1958 C1959 1.386 . S
C1958 C1960 1.391 . S
C1959 C1958 1.386 . S
C1959 C1963 1.393 . S
C1960 H1949 0.950 . S
C1960 C1958 1.391 . S
C1960 C1961 1.400 . S
C1961 C1955 1.491 . S
C1961 C1960 1.400 . S
C1961 C1962 1.398 . S
C1962 H1950 0.950 . S
C1962 C1961 1.398 . S
C1962 C1963 1.391 . S
C1963 H1951 0.950 . S
C1963 C1959 1.393 . S
C1963 C1962 1.391 . S
H1964 C1972 0.950 . S
H1965 C1977 0.950 . S
H1966 C1974 0.950 . S
H1967 C1976 0.950 . S
H1968 C1978 0.950 . S
H1969 C1980 0.950 . S
H1970 C1982 0.950 . S
H1971 C1983 0.950 . S
C1972 H1964 0.950 . S
C1972 C1973 1.386 . S
C1972 C1974 1.391 . S
C1973 C1972 1.386 . S
C1973 C1977 1.393 . S
C1974 H1966 0.950 . S
C1974 C1972 1.391 . S
C1974 C1975 1.400 . S
C1975 C1974 1.400 . S
C1975 C1976 1.398 . S
C1975 C1981 1.491 . S
C1976 H1967 0.950 . S
C1976 C1975 1.398 . S
C1976 C1977 1.391 . S
C1977 H1965 0.950 . S
C1977 C1973 1.393 . S
C1977 C1976 1.391 . S
C1978 H1968 0.950 . S
C1978 C1979 1.386 . S
C1978 C1980 1.391 . S
C1979 C1978 1.386 . S
C1979 C1983 1.393 . S
C1980 H1969 0.950 . S
C1980 C1978 1.391 . S
C1980 C1981 1.400 . S
C1981 C1975 1.491 . S
C1981 C1980 1.400 . S
C1981 C1982 1.398 . S
C1982 H1970 0.950 . S
C1982 C1981 1.398 . S
C1982 C1983 1.391 . S
C1983 H1971 0.950 . S
C1983 C1979 1.393 . S
C1983 C1982 1.391 . S
H1984 C1992 0.950 . S
H1985 C1997 0.950 . S
H1986 C1994 0.950 . S
H1987 C1996 0.950 . S
H1988 C1998 0.950 . S
H1989 C2000 0.950 . S
H1990 C2002 0.950 . S
H1991 C2003 0.950 . S
C1992 H1984 0.950 . S
C1992 C1993 1.386 . S
C1992 C1994 1.391 . S
C1993 C1992 1.386 . S
C1993 C1997 1.393 . S
C1994 H1986 0.950 . S
C1994 C1992 1.391 . S
C1994 C1995 1.400 . S
C1995 C1994 1.400 . S
C1995 C1996 1.398 . S
C1995 C2001 1.491 . S
C1996 H1987 0.950 . S
C1996 C1995 1.398 . S
C1996 C1997 1.391 . S
C1997 H1985 0.950 . S
C1997 C1993 1.393 . S
C1997 C1996 1.391 . S
C1998 H1988 0.950 . S
C1998 C1999 1.386 . S
C1998 C2000 1.391 . S
C1999 C1998 1.386 . S
C1999 C2003 1.393 . S
C2000 H1989 0.950 . S
C2000 C1998 1.391 . S
C2000 C2001 1.400 . S
C2001 C1995 1.491 . S
C2001 C2000 1.400 . S
C2001 C2002 1.398 . S
C2002 H1990 0.950 . S
C2002 C2001 1.398 . S
C2002 C2003 1.391 . S
C2003 H1991 0.950 . S
C2003 C1999 1.393 . S
C2003 C2002 1.391 . S
C579 C270 1.310 . S
C573 C258 1.308 . S
C593 C236 1.580 . S
C599 C268 1.583 . S
C619 C269 1.584 . S
C613 C225 1.581 . S
C633 C247 1.307 . S
C639 C271 1.310 . S
C659 C315 1.448 . S
C653 C181 1.447 . S
C679 C375 1.377 . S
C673 C192 1.376 . S
C693 C203 1.445 . S
C699 C314 1.446 . S
C719 C374 1.656 . S
C713 C214 1.657 . S
C733 C137 1.536 . S
C739 C316 1.535 . S
C759 C372 1.563 . S
C753 C148 1.559 . S
C773 C159 1.543 . S
C779 C317 1.545 . S
C793 C170 1.281 . S
C799 C373 1.282 . S
C819 C423 1.310 . S
C813 C126 1.311 . S
C833 C104 1.582 . S
C839 C422 1.583 . S
C853 C93 1.583 . S
C859 C424 1.583 . S
C879 C425 1.310 . S
C873 C115 1.305 . S
C893 C49 1.446 . S
C899 C466 1.449 . S
C913 C60 1.371 . S
C919 C525 1.375 1_565 S
C933 C71 1.445 . S
C939 C464 1.446 . S
C953 C82 1.656 . S
C959 C524 1.656 . S
C979 C465 1.536 . S
C973 C5 1.533 . S
C999 C522 1.563 . S
C993 C16 1.562 . S
C1013 C27 1.543 . S
C1019 C467 1.545 . S
C1039 C523 1.281 1_565 S
C1033 C38 1.280 1_545 S
C1059 C267 1.676 . S
C1053 C4 1.628 . S
C1073 C21 1.363 . S
C1079 C273 1.463 1_565 S
C1093 C32 1.352 . S
C1099 C265 1.433 . S
C1113 C37 1.404 1_545 S
C1119 C272 1.446 1_565 S
C1133 C48 1.620 . S
C1139 C264 1.665 . S
C1159 C274 1.490 1_565 S
C1153 C59 1.429 . S
C1173 C76 1.309 . S
C1179 C266 1.418 . S
C1199 C275 1.780 . S
C1193 C81 1.736 . S
C1219 C321 1.357 . S
C1213 C43 1.272 1_565 S
C1233 C10 1.385 . S
C1239 C364 1.492 . S
C1259 C319 1.664 1_565 S
C1253 C15 1.615 1_545 S
C1279 C366 1.756 . S
C1273 C26 1.710 . S
C1293 C65 1.338 1_545 S
C1299 C320 1.415 1_565 S
C1319 C365 1.646 . S
C1313 C70 1.612 . S
C1339 C318 1.484 1_565 S
C1333 C87 1.408 . S
C1359 C367 1.407 . S
C1353 C54 1.326 . S
C1379 C371 1.449 . S
C1373 C98 1.354 . S
C1393 C109 1.348 . S
C1399 C370 1.450 . S
C1419 C322 1.666 . S
C1413 C92 1.631 . S
C1439 C369 1.459 . S
C1433 C114 1.419 . S
C1453 C131 1.240 . S
C1459 C325 1.315 . S
C1473 C125 1.406 . S
C1479 C368 1.457 . S
C1499 C324 1.667 . S
C1493 C103 1.618 . S
C1519 C323 1.311 . S
C1513 C120 1.209 . S
C1539 C417 1.678 . S
C1533 C136 1.634 . S
C1559 C420 1.464 . S
C1553 C153 1.371 . S
C1573 C164 1.340 . S
C1579 C416 1.433 . S
C1599 C418 1.444 . S
C1593 C169 1.393 . S
C1619 C414 1.665 . S
C1613 C180 1.629 . S
C1633 C191 1.443 . S
C1639 C419 1.492 . S
C1653 C208 1.321 . S
C1659 C415 1.421 . S
C1679 C421 1.780 . S
C1673 C213 1.740 . S
C1699 C475 1.358 . S
C1693 C175 1.283 . S
C1713 C142 1.404 . S
C1719 C514 1.495 . S
C1739 C474 1.664 . S
C1733 C147 1.618 . S
C1759 C516 1.753 . S
C1753 C158 1.724 . S
C1779 C473 1.413 . S
C1773 C197 1.313 . S
C1793 C202 1.604 . S
C1799 C515 1.648 . S
C1819 C472 1.481 . S
C1813 C219 1.376 . S
C1839 C517 1.404 . S
C1833 C186 1.300 . S
C1859 C521 1.451 . S
C1853 C230 1.375 . S
C1873 C241 1.354 . S
C1879 C520 1.449 . S
C1899 C468 1.666 . S
C1893 C224 1.633 . S
C1913 C246 1.412 . S
C1919 C519 1.458 . S
C1939 C471 1.310 . S
C1933 C263 1.208 . S
C1959 C518 1.458 . S
C1953 C257 1.419 . S
C1979 C469 1.667 . S
C1973 C235 1.628 . S
C1993 C252 1.227 . S
C1999 C470 1.314 . S
