# Generated by pormake.
# Topology sqc, (4,8)-cn, num edge types: 1
# Building blocks:
#     Node 0, Type 0, BuildingBlock: MUDLON_clean_linker_0, # of connection points: 4
#     Node 1, Type 0, BuildingBlock: MUDLON_clean_linker_0, # of connection points: 4
#     Node 2, Type 0, BuildingBlock: MUDLON_clean_linker_0, # of connection points: 4
#     Node 3, Type 0, BuildingBlock: MUDLON_clean_linker_0, # of connection points: 4
#     Node 4, Type 0, BuildingBlock: MUDLON_clean_linker_0, # of connection points: 4
#     Node 5, Type 0, BuildingBlock: MUDLON_clean_linker_0, # of connection points: 4
#     Node 6, Type 0, BuildingBlock: MUDLON_clean_linker_0, # of connection points: 4
#     Node 7, Type 0, BuildingBlock: MUDLON_clean_linker_0, # of connection points: 4
#     Node 8, Type 1, BuildingBlock: TAGTUT_clean_sbu_3, # of connection points: 8
#     Node 9, Type 1, BuildingBlock: TAGTUT_clean_sbu_3, # of connection points: 8
#     Node 10, Type 1, BuildingBlock: TAGTUT_clean_sbu_3, # of connection points: 8
#     Node 11, Type 1, BuildingBlock: TAGTUT_clean_sbu_3, # of connection points: 8
#     Edge 12, Type (0, 1), BuildingBlock: UVAHIK_clean_linker_0, # of connection points: 2
#     Edge 13, Type (0, 1), BuildingBlock: UVAHIK_clean_linker_0, # of connection points: 2
#     Edge 14, Type (0, 1), BuildingBlock: UVAHIK_clean_linker_0, # of connection points: 2
#     Edge 15, Type (0, 1), BuildingBlock: UVAHIK_clean_linker_0, # of connection points: 2
#     Edge 16, Type (0, 1), BuildingBlock: UVAHIK_clean_linker_0, # of connection points: 2
#     Edge 17, Type (0, 1), BuildingBlock: UVAHIK_clean_linker_0, # of connection points: 2
#     Edge 18, Type (0, 1), BuildingBlock: UVAHIK_clean_linker_0, # of connection points: 2
#     Edge 19, Type (0, 1), BuildingBlock: UVAHIK_clean_linker_0, # of connection points: 2
#     Edge 20, Type (0, 1), BuildingBlock: UVAHIK_clean_linker_0, # of connection points: 2
#     Edge 21, Type (0, 1), BuildingBlock: UVAHIK_clean_linker_0, # of connection points: 2
#     Edge 22, Type (0, 1), BuildingBlock: UVAHIK_clean_linker_0, # of connection points: 2
#     Edge 23, Type (0, 1), BuildingBlock: UVAHIK_clean_linker_0, # of connection points: 2
#     Edge 24, Type (0, 1), BuildingBlock: UVAHIK_clean_linker_0, # of connection points: 2
#     Edge 25, Type (0, 1), BuildingBlock: UVAHIK_clean_linker_0, # of connection points: 2
#     Edge 26, Type (0, 1), BuildingBlock: UVAHIK_clean_linker_0, # of connection points: 2
#     Edge 27, Type (0, 1), BuildingBlock: UVAHIK_clean_linker_0, # of connection points: 2
#     Edge 28, Type (0, 1), BuildingBlock: UVAHIK_clean_linker_0, # of connection points: 2
#     Edge 29, Type (0, 1), BuildingBlock: UVAHIK_clean_linker_0, # of connection points: 2
#     Edge 30, Type (0, 1), BuildingBlock: UVAHIK_clean_linker_0, # of connection points: 2
#     Edge 31, Type (0, 1), BuildingBlock: UVAHIK_clean_linker_0, # of connection points: 2
#     Edge 32, Type (0, 1), BuildingBlock: UVAHIK_clean_linker_0, # of connection points: 2
#     Edge 33, Type (0, 1), BuildingBlock: UVAHIK_clean_linker_0, # of connection points: 2
#     Edge 34, Type (0, 1), BuildingBlock: UVAHIK_clean_linker_0, # of connection points: 2
#     Edge 35, Type (0, 1), BuildingBlock: UVAHIK_clean_linker_0, # of connection points: 2
#     Edge 36, Type (0, 1), BuildingBlock: UVAHIK_clean_linker_0, # of connection points: 2
#     Edge 37, Type (0, 1), BuildingBlock: UVAHIK_clean_linker_0, # of connection points: 2
#     Edge 38, Type (0, 1), BuildingBlock: UVAHIK_clean_linker_0, # of connection points: 2
#     Edge 39, Type (0, 1), BuildingBlock: UVAHIK_clean_linker_0, # of connection points: 2
#     Edge 40, Type (0, 1), BuildingBlock: UVAHIK_clean_linker_0, # of connection points: 2
#     Edge 41, Type (0, 1), BuildingBlock: UVAHIK_clean_linker_0, # of connection points: 2
#     Edge 42, Type (0, 1), BuildingBlock: UVAHIK_clean_linker_0, # of connection points: 2
#     Edge 43, Type (0, 1), BuildingBlock: UVAHIK_clean_linker_0, # of connection points: 2
# Relax obj value: 0.180
# Max RMSD: 0.279
# Mean RMSD: 0.217
data_MOF--net-sqc--node1-TAGTUT_clean_sbu_3--node2-MUDLON_clean_linker_0--edge1-UVAHIK_clean_linker_0
_symmetry_space_group_name_H-M    P1
_symmetry_Int_Tables_number       1
_symmetry_cell_setting            triclinic
loop_
_symmetry_equiv_pos_as_xyz
'x, y, z'
_cell_length_a     38.40094
_cell_length_b     38.371946
_cell_length_c     109.14889
_cell_angle_alpha  90.505036
_cell_angle_beta   89.969759
_cell_angle_gamma 89.938614
loop_
_atom_site_label
_atom_site_type_symbol
_atom_site_fract_x
_atom_site_fract_y
_atom_site_fract_z
_atom_type_partial_charge
H0 H 0.87786 0.92204 0.5391 0.0
N1 N 0.91207 0.95863 0.52255 0.0
H2 H 0.83229 0.94312 0.55295 0.0
H3 H 0.89889 0.02755 0.52808 0.0
H4 H 0.85436 0.04885 0.54207 0.0
H5 H 0.87973 0.00564 0.50753 0.0
H6 H 0.83791 0.99195 0.49144 0.0
H7 H 0.89568 0.89601 0.51388 0.0
H8 H 0.8523 0.88219 0.49803 0.0
H9 H 0.96933 0.92512 0.52916 0.0
H10 H 0.93471 0.01932 0.51167 0.0
H11 H 0.0299 0.94159 0.52533 0.0
H12 H 0.9945 0.03662 0.50836 0.0
H13 H 0.197 0.99818 0.52317 0.0
H14 H 0.23983 0.028 0.53587 0.0
H15 H 0.21267 0.12582 0.51909 0.0
H16 H 0.16942 0.09557 0.50629 0.0
H17 H 0.19205 0.03975 0.48392 0.0
H18 H 0.23057 0.00028 0.47254 0.0
H19 H 0.20642 0.9179 0.49789 0.0
H20 H 0.168 0.95762 0.50922 0.0
H21 H 0.13564 0.99546 0.52574 0.0
H22 H 0.07561 0.98073 0.53069 0.0
H23 H 0.04238 0.02163 0.4958 0.0
N24 N 0.15866 0.02721 0.50466 0.0
H25 H 0.10246 0.03764 0.49119 0.0
C26 C 0.89195 0.97298 0.53255 0.0
C27 C 0.87346 0.94984 0.53998 0.0
C28 C 0.84734 0.96195 0.54786 0.0
C29 C 0.83925 0.99765 0.54847 0.0
C30 C 0.85936 0.02109 0.5416 0.0
C31 C 0.88533 0.00891 0.53367 0.0
C32 C 0.89169 0.95169 0.51173 0.0
C33 C 0.87533 0.97862 0.5052 0.0
C34 C 0.85102 0.97081 0.49607 0.0
C35 C 0.84195 0.93608 0.49357 0.0
C36 C 0.8589 0.90918 0.49985 0.0
C37 C 0.88378 0.91699 0.50879 0.0
C38 C 0.94726 0.97079 0.5208 0.0
C39 C 0.97478 0.94958 0.52467 0.0
C40 C 0.00938 0.95917 0.52253 0.0
C41 C 0.01722 0.99045 0.51649 0.0
C42 C 0.98954 0.01205 0.51284 0.0
C43 C 0.955 0.00226 0.51488 0.0
C44 C 0.17993 0.0447 0.5137 0.0
C45 C 0.19963 0.02608 0.52232 0.0
C46 C 0.2244 0.04314 0.52954 0.0
C47 C 0.22993 0.07914 0.52834 0.0
C48 C 0.2089 0.09807 0.52022 0.0
C49 C 0.18421 0.08089 0.51294 0.0
C50 C 0.1772 0.00175 0.49737 0.0
C51 C 0.19461 0.01298 0.48686 0.0
C52 C 0.21654 0.99039 0.48038 0.0
C53 C 0.22163 0.95601 0.48436 0.0
C54 C 0.2033 0.94437 0.4947 0.0
C55 C 0.18115 0.96699 0.50113 0.0
C56 C 0.12355 0.0182 0.5081 0.0
C57 C 0.11551 0.00165 0.5192 0.0
C58 C 0.08104 0.9929 0.52198 0.0
C59 C 0.05396 0.00012 0.51369 0.0
C60 C 0.0623 0.01634 0.50255 0.0
C61 C 0.09665 0.02532 0.49984 0.0
H62 H 0.41271 0.57777 0.80247 0.0
N63 N 0.40024 0.59851 0.77974 0.0
H64 H 0.38049 0.53433 0.81424 0.0
H65 H 0.33924 0.5669 0.77284 0.0
H66 H 0.30645 0.52437 0.7846 0.0
H67 H 0.37028 0.60626 0.75707 0.0
H68 H 0.38696 0.57572 0.73831 0.0
H69 H 0.45402 0.55618 0.77646 0.0
H70 H 0.46995 0.5241 0.75788 0.0
H71 H 0.4442 0.65099 0.78254 0.0
H72 H 0.33565 0.62847 0.7763 0.0
H73 H 0.43189 0.71334 0.78137 0.0
H74 H 0.32288 0.6906 0.77554 0.0
H75 H 0.36766 0.90274 0.79005 0.0
H76 H 0.32399 0.93973 0.80012 0.0
H77 H 0.24257 0.88609 0.78027 0.0
H78 H 0.28644 0.84854 0.77047 0.0
H79 H 0.31696 0.85979 0.75235 0.0
H80 H 0.33299 0.88895 0.73344 0.0
H81 H 0.43572 0.90876 0.74807 0.0
H82 H 0.41902 0.8801 0.76716 0.0
H83 H 0.39615 0.82279 0.78948 0.0
H84 H 0.4043 0.7601 0.79217 0.0
H85 H 0.33185 0.74024 0.76261 0.0
N86 N 0.35716 0.85449 0.77299 0.0
H87 H 0.32298 0.80288 0.76036 0.0
C88 C 0.37839 0.57578 0.78685 0.0
C89 C 0.38928 0.56645 0.79862 0.0
C90 C 0.37084 0.54165 0.80531 0.0
C91 C 0.34102 0.52567 0.80032 0.0
C92 C 0.32966 0.53569 0.78862 0.0
C93 C 0.34817 0.5604 0.78194 0.0
C94 C 0.41122 0.58369 0.76819 0.0
C95 C 0.39255 0.58901 0.75727 0.0
C96 C 0.4019 0.57117 0.74655 0.0
C97 C 0.42973 0.54726 0.74656 0.0
C98 C 0.4488 0.54271 0.75743 0.0
C99 C 0.43966 0.56085 0.76809 0.0
C100 C 0.39104 0.63498 0.77964 0.0
C101 C 0.41764 0.65956 0.7811 0.0
C102 C 0.41047 0.69516 0.78049 0.0
C103 C 0.37631 0.70706 0.77843 0.0
C104 C 0.34952 0.68237 0.77703 0.0
C105 C 0.35678 0.64668 0.77759 0.0
C106 C 0.33036 0.8732 0.77949 0.0
C107 C 0.34034 0.89868 0.78803 0.0
C108 C 0.31541 0.9197 0.79375 0.0
C109 C 0.27994 0.91583 0.79091 0.0
C110 C 0.2698 0.88979 0.78251 0.0
C111 C 0.29481 0.86835 0.77692 0.0
C112 C 0.36684 0.86803 0.76123 0.0
C113 C 0.34304 0.86998 0.75148 0.0
C114 C 0.35233 0.88654 0.7406 0.0
C115 C 0.38555 0.90142 0.73928 0.0
C116 C 0.40974 0.89807 0.74887 0.0
C117 C 0.40038 0.88156 0.75973 0.0
C118 C 0.35933 0.81746 0.77469 0.0
C119 C 0.38183 0.80477 0.78369 0.0
C120 C 0.38662 0.76899 0.78512 0.0
C121 C 0.36906 0.74506 0.7775 0.0
C122 C 0.3456 0.75787 0.7687 0.0
C123 C 0.34067 0.79378 0.76733 0.0
H124 H 0.76757 0.07828 0.04666 0.0
N125 N 0.72782 0.06538 0.02722 0.0
H126 H 0.80044 0.03639 0.05887 0.0
H127 H 0.72473 0.99355 0.02523 0.0
H128 H 0.75594 0.95192 0.03763 0.0
H129 H 0.7745 0.02914 0.01284 0.0
H130 H 0.81121 0.05277 0.99688 0.0
H131 H 0.73323 0.1317 0.02047 0.0
H132 H 0.76955 0.15562 0.00405 0.0
H133 H 0.66777 0.07873 0.03846 0.0
H134 H 0.71045 0.03078 0.00584 0.0
H135 H 0.60921 0.06075 0.03208 0.0
H136 H 0.65267 0.01267 -0.00045 0.0
H137 H 0.45938 0.01526 0.01827 0.0
H138 H 0.42448 0.99503 0.0354 0.0
H139 H 0.4432 0.88831 0.02415 0.0
H140 H 0.47894 0.90904 0.00709 0.0
H141 H 0.46814 0.94444 0.98164 0.0
H142 H 0.4322 0.97115 0.96574 0.0
H143 H 0.43955 0.07037 0.9846 0.0
H144 H 0.47611 0.04365 0.00025 0.0
H145 H 0.52422 0.97835 0.02475 0.0
H146 H 0.57902 0.00443 0.03022 0.0
H147 H 0.59607 0.03342 0.99259 0.0
N148 N 0.49435 0.97462 0.00159 0.0
H149 H 0.54088 0.00685 0.98687 0.0
C150 C 0.7435 0.03946 0.03505 0.0
C151 C 0.76464 0.05069 0.04477 0.0
C152 C 0.78325 0.02667 0.05176 0.0
C153 C 0.78095 0.99074 0.04919 0.0
C154 C 0.75877 0.9794 0.03973 0.0
C155 C 0.74046 0.0034 0.03269 0.0
C156 C 0.75112 0.07879 0.01799 0.0
C157 C 0.77342 0.05684 0.01117 0.0
C158 C 0.7942 0.07036 0.00189 0.0
C159 C 0.79305 0.10603 -0.00089 0.0
C160 C 0.77119 0.12807 0.00603 0.0
C161 C 0.75039 0.11449 0.01537 0.0
C162 C 0.69357 0.05645 0.02268 0.0
C163 C 0.66448 0.06471 0.02989 0.0
C164 C 0.63117 0.05427 0.02626 0.0
C165 C 0.62636 0.03531 0.0153 0.0
C166 C 0.65542 0.02775 0.00793 0.0
C167 C 0.68865 0.03812 0.01157 0.0
C168 C 0.47169 0.96352 0.01137 0.0
C169 C 0.45552 0.98756 0.01935 0.0
C170 C 0.43558 0.97589 0.02918 0.0
C171 C 0.43107 0.94001 0.03118 0.0
C172 C 0.44662 0.91609 0.023 0.0
C173 C 0.46676 0.92782 0.0132 0.0
C174 C 0.47467 0.99187 0.99212 0.0
C175 C 0.46216 0.97198 0.98226 0.0
C176 C 0.44152 0.98725 0.97324 0.0
C177 C 0.43291 0.02285 0.97394 0.0
C178 C 0.44599 0.04297 0.98374 0.0
C179 C 0.46658 0.02764 0.99277 0.0
C180 C 0.52636 0.99217 0.00535 0.0
C181 C 0.5386 0.99119 0.01758 0.0
C182 C 0.57041 0.00614 0.0208 0.0
C183 C 0.59156 0.02163 0.0119 0.0
C184 C 0.58018 0.02191 -0.00031 0.0
C185 C 0.54828 0.007 0.99644 0.0
H186 H 0.27597 0.43619 0.29113 0.0
N187 N 0.2868 0.41902 0.2679 0.0
H188 H 0.31841 0.45909 0.30576 0.0
H189 H 0.35699 0.42322 0.26417 0.0
H190 H 0.40003 0.44493 0.27884 0.0
H191 H 0.31983 0.41892 0.24571 0.0
H192 H 0.3153 0.46451 0.23009 0.0
H193 H 0.24404 0.47289 0.26794 0.0
H194 H 0.2388 0.51809 0.25242 0.0
H195 H 0.22562 0.38882 0.27111 0.0
H196 H 0.33153 0.36755 0.2604 0.0
H197 H 0.21279 0.32642 0.27075 0.0
H198 H 0.31964 0.30507 0.26059 0.0
H199 H 0.23213 0.13034 0.2953 0.0
H200 H 0.2733 0.10318 0.3094 0.0
H201 H 0.35898 0.142 0.28775 0.0
H202 H 0.31758 0.16843 0.27361 0.0
H203 H 0.28852 0.13207 0.25806 0.0
H204 H 0.27076 0.08811 0.24308 0.0
H205 H 0.16407 0.09857 0.25517 0.0
H206 H 0.18224 0.14255 0.27029 0.0
H207 H 0.21896 0.21734 0.28732 0.0
H208 H 0.22712 0.2795 0.28384 0.0
H209 H 0.28995 0.25572 0.25195 0.0
N210 N 0.24635 0.16459 0.27495 0.0
H211 H 0.28265 0.19365 0.2558 0.0
C212 C 0.31329 0.42812 0.27663 0.0
C213 C 0.30314 0.43754 0.28851 0.0
C214 C 0.32752 0.45037 0.29686 0.0
C215 C 0.3627 0.45389 0.29348 0.0
C216 C 0.37309 0.44293 0.28169 0.0
C217 C 0.34856 0.43025 0.27332 0.0
C218 C 0.28212 0.44273 0.25793 0.0
C219 C 0.30193 0.44037 0.24713 0.0
C220 C 0.29932 0.46641 0.23825 0.0
C221 C 0.2771 0.49518 0.24013 0.0
C222 C 0.25675 0.49673 0.25082 0.0
C223 C 0.25932 0.47078 0.25962 0.0
C224 C 0.27948 0.3827 0.26597 0.0
C225 C 0.24598 0.37058 0.26857 0.0
C226 C 0.23887 0.33494 0.26847 0.0
C227 C 0.26536 0.31062 0.26588 0.0
C228 C 0.29856 0.323 0.26259 0.0
C229 C 0.30552 0.35879 0.26256 0.0
C230 C 0.27166 0.1513 0.28345 0.0
C231 C 0.25981 0.13323 0.29371 0.0
C232 C 0.28339 0.11797 0.30178 0.0
C233 C 0.31945 0.1205 0.29971 0.0
C234 C 0.33136 0.13932 0.28953 0.0
C235 C 0.3077 0.15458 0.28146 0.0
C236 C 0.23653 0.14075 0.26528 0.0
C237 C 0.26126 0.12532 0.25742 0.0
C238 C 0.25106 0.10015 0.24882 0.0
C239 C 0.21603 0.08976 0.24798 0.0
C240 C 0.19131 0.10569 0.25571 0.0
C241 C 0.20154 0.13098 0.26426 0.0
C242 C 0.24987 0.20083 0.27184 0.0
C243 C 0.23418 0.22564 0.27952 0.0
C244 C 0.23872 0.26115 0.27744 0.0
C245 C 0.25903 0.27271 0.26754 0.0
C246 C 0.27439 0.24775 0.2597 0.0
C247 C 0.26997 0.21212 0.26185 0.0
H248 H 0.84854 0.06488 0.2747 0.0
N249 N 0.80886 0.0924 0.25633 0.0
H250 H 0.82985 0.02194 0.28967 0.0
H251 H 0.74581 0.06568 0.25891 0.0
H252 H 0.72719 0.02114 0.27332 0.0
H253 H 0.79441 0.05982 0.23553 0.0
H254 H 0.83541 0.0353 0.22066 0.0
H255 H 0.8798 0.09378 0.25823 0.0
H256 H 0.9214 0.06944 0.24331 0.0
H257 H 0.82989 0.12455 0.27791 0.0
H258 H 0.79636 0.14341 0.24084 0.0
H259 H 0.83611 0.18673 0.28138 0.0
H260 H 0.80516 0.20558 0.24389 0.0
H261 H 0.86894 0.38956 0.28646 0.0
H262 H 0.83481 0.43181 0.29844 0.0
H263 H 0.74145 0.39791 0.27981 0.0
H264 H 0.77531 0.35614 0.26798 0.0
H265 H 0.80612 0.37564 0.25013 0.0
H266 H 0.82627 0.40812 0.2325 0.0
H267 H 0.93284 0.39267 0.24394 0.0
H268 H 0.91225 0.36023 0.2618 0.0
H269 H 0.87995 0.2973 0.27958 0.0
H270 H 0.87045 0.23466 0.27721 0.0
H271 H 0.78434 0.25554 0.25275 0.0
N272 N 0.84682 0.3486 0.26842 0.0
H273 H 0.79623 0.31723 0.25431 0.0
C274 C 0.79822 0.06894 0.26585 0.0
C275 C 0.82185 0.05594 0.27452 0.0
C276 C 0.81119 0.03096 0.28297 0.0
C277 C 0.77694 0.01788 0.28275 0.0
C278 C 0.75351 0.03103 0.274 0.0
C279 C 0.76406 0.05641 0.26571 0.0
C280 C 0.83409 0.07839 0.2479 0.0
C281 C 0.82211 0.06201 0.23723 0.0
C282 C 0.84558 0.04835 0.22874 0.0
C283 C 0.88166 0.05083 0.23075 0.0
C284 C 0.89375 0.06711 0.24153 0.0
C285 C 0.8701 0.08094 0.25005 0.0
C286 C 0.81221 0.1291 0.25907 0.0
C287 C 0.8239 0.14188 0.27046 0.0
C288 C 0.82787 0.17774 0.27242 0.0
C289 C 0.82113 0.20154 0.26295 0.0
C290 C 0.80975 0.18845 0.25155 0.0
C291 C 0.80499 0.15279 0.24972 0.0
C292 C 0.82499 0.36959 0.27632 0.0
C293 C 0.84101 0.39088 0.28514 0.0
C294 C 0.82152 0.41495 0.29195 0.0
C295 C 0.78553 0.41832 0.28996 0.0
C296 C 0.76925 0.39621 0.2814 0.0
C297 C 0.78872 0.37202 0.27466 0.0
C298 C 0.85781 0.36546 0.25734 0.0
C299 C 0.83381 0.37866 0.24882 0.0
C300 C 0.8454 0.39721 0.23866 0.0
C301 C 0.88115 0.40303 0.23683 0.0
C302 C 0.90511 0.38895 0.24518 0.0
C303 C 0.89347 0.3703 0.25532 0.0
C304 C 0.83865 0.31209 0.26731 0.0
C305 C 0.85901 0.28814 0.27374 0.0
C306 C 0.85328 0.25234 0.27244 0.0
C307 C 0.82651 0.23972 0.26478 0.0
C308 C 0.80563 0.26399 0.25855 0.0
C309 C 0.812 0.29967 0.25962 0.0
H310 H 0.83047 0.93676 0.76514 0.0
N311 N 0.87661 0.90696 0.74908 0.0
H312 H 0.84477 0.96779 0.78405 0.0
H313 H 0.93902 0.91294 0.75944 0.0
H314 H 0.95383 0.9448 0.77829 0.0
H315 H 0.90702 0.95499 0.73548 0.0
H316 H 0.87906 0.0001 0.7233 0.0
H317 H 0.80663 0.91245 0.74462 0.0
H318 H 0.77829 0.95642 0.73197 0.0
H319 H 0.83907 0.87173 0.76682 0.0
H320 H 0.88666 0.86082 0.73115 0.0
H321 H 0.82757 0.81004 0.7672 0.0
H322 H 0.87239 0.79888 0.73099 0.0
H323 H 0.79909 0.62696 0.7733 0.0
H324 H 0.8134 0.60451 0.79331 0.0
H325 H 0.92051 0.63653 0.78827 0.0
H326 H 0.90634 0.65572 0.76763 0.0
H327 H 0.86846 0.59884 0.74223 0.0
H328 H 0.83361 0.55479 0.73138 0.0
H329 H 0.73951 0.60607 0.74361 0.0
H330 H 0.77439 0.65016 0.75423 0.0
H331 H 0.79763 0.69818 0.76445 0.0
H332 H 0.79825 0.76093 0.76088 0.0
H333 H 0.89309 0.74883 0.73976 0.0
N334 N 0.84561 0.65099 0.75615 0.0
H335 H 0.8902 0.68606 0.74258 0.0
C336 C 0.88385 0.92267 0.76086 0.0
C337 C 0.85741 0.9381 0.768 0.0
C338 C 0.86565 0.95594 0.77879 0.0
C339 C 0.90047 0.95904 0.78261 0.0
C340 C 0.92672 0.94259 0.77567 0.0
C341 C 0.9184 0.92455 0.76489 0.0
C342 C 0.85905 0.93023 0.74083 0.0
C343 C 0.87892 0.955 0.7346 0.0
C344 C 0.86284 0.98069 0.72762 0.0
C345 C 0.82635 0.98201 0.72664 0.0
C346 C 0.80641 0.95659 0.73268 0.0
C347 C 0.82257 0.93108 0.73978 0.0
C348 C 0.86481 0.87114 0.74903 0.0
C349 C 0.84665 0.85636 0.75893 0.0
C350 C 0.83952 0.82068 0.75907 0.0
C351 C 0.84945 0.79898 0.74921 0.0
C352 C 0.86531 0.81436 0.73895 0.0
C353 C 0.87321 0.84989 0.73895 0.0
C354 C 0.85203 0.64192 0.76873 0.0
C355 C 0.82572 0.62894 0.7764 0.0
C356 C 0.83393 0.61654 0.78804 0.0
C357 C 0.86838 0.61795 0.79246 0.0
C358 C 0.89397 0.63368 0.78509 0.0
C359 C 0.88591 0.64506 0.77332 0.0
C360 C 0.82416 0.62768 0.74903 0.0
C361 C 0.84032 0.60077 0.7424 0.0
C362 C 0.82044 0.57572 0.73625 0.0
C363 C 0.78391 0.57697 0.73676 0.0
C364 C 0.76764 0.60435 0.7432 0.0
C365 C 0.78759 0.62971 0.74919 0.0
C366 C 0.84361 0.68756 0.75356 0.0
C367 C 0.81778 0.70906 0.75871 0.0
C368 C 0.81861 0.74507 0.75682 0.0
C369 C 0.84582 0.76034 0.75004 0.0
C370 C 0.87122 0.73833 0.74477 0.0
C371 C 0.86988 0.70238 0.74645 0.0
H372 H 0.41142 0.55393 0.97943 0.0
N373 N 0.4247 0.53255 0.00202 0.0
H374 H 0.36742 0.53063 0.96529 0.0
H375 H 0.38926 0.47093 0.00464 0.0
H376 H 0.34595 0.44749 0.99062 0.0
H377 H 0.41541 0.49501 0.02311 0.0
H378 H 0.37436 0.50854 0.03943 0.0
H379 H 0.38985 0.59153 0.00529 0.0
H380 H 0.34936 0.60599 0.0219 0.0
H381 H 0.48081 0.57226 0.00056 0.0
H382 H 0.44859 0.46653 0.00728 0.0
H383 H 0.54152 0.55568 0.00429 0.0
H384 H 0.50888 0.44991 0.01107 0.0
H385 H 0.70929 0.49953 0.00266 0.0
H386 H 0.75428 0.47153 0.99039 0.0
H387 H 0.73079 0.37285 0.00718 0.0
H388 H 0.68533 0.40127 0.01959 0.0
H389 H 0.70438 0.45877 0.04191 0.0
H390 H 0.74231 0.49977 0.05284 0.0
H391 H 0.71522 0.58006 0.02703 0.0
H392 H 0.67744 0.53915 0.01622 0.0
H393 H 0.649 0.50464 0.00057 0.0
H394 H 0.58886 0.51821 0.99526 0.0
H395 H 0.55338 0.46335 0.02731 0.0
N396 N 0.67118 0.46906 0.02097 0.0
H397 H 0.61391 0.44995 0.03262 0.0
C398 C 0.40385 0.51431 0.99306 0.0
C399 C 0.3978 0.53019 0.98175 0.0
C400 C 0.37263 0.51691 0.97373 0.0
C401 C 0.35293 0.48753 0.97695 0.0
C402 C 0.36032 0.47053 0.98799 0.0
C403 C 0.38552 0.48373 0.99597 0.0
C404 C 0.40572 0.54236 0.01291 0.0
C405 C 0.40163 0.51954 0.02283 0.0
C406 C 0.37806 0.52735 0.03221 0.0
C407 C 0.35821 0.55815 0.0319 0.0
C408 C 0.36367 0.58168 0.02228 0.0
C409 C 0.38711 0.57376 0.01289 0.0
C410 C 0.46008 0.5209 0.00367 0.0
C411 C 0.48688 0.54546 0.00275 0.0
C412 C 0.52147 0.53591 0.00483 0.0
C413 C 0.52991 0.5015 0.008 0.0
C414 C 0.50309 0.47671 0.00877 0.0
C415 C 0.46851 0.48623 0.00656 0.0
C416 C 0.69383 0.45243 0.01214 0.0
C417 C 0.71313 0.4718 0.0036 0.0
C418 C 0.73917 0.45581 0.99664 0.0
C419 C 0.74635 0.42015 -0.00203 0.0
C420 C 0.72576 0.40038 0.00597 0.0
C421 C 0.69982 0.4165 0.01302 0.0
C422 C 0.68809 0.49563 0.02826 0.0
C423 C 0.706 0.48546 0.03882 0.0
C424 C 0.72764 0.5089 0.04502 0.0
C425 C 0.73194 0.54303 0.04071 0.0
C426 C 0.71273 0.55377 0.03046 0.0
C427 C 0.69087 0.53036 0.02432 0.0
C428 C 0.63604 0.47629 0.01709 0.0
C429 C 0.62847 0.4954 0.00647 0.0
C430 C 0.59399 0.50326 0.00344 0.0
C431 C 0.56642 0.49189 0.01088 0.0
C432 C 0.57404 0.47217 0.02133 0.0
C433 C 0.60852 0.46463 0.02441 0.0
H434 H 0.26079 0.57779 0.54297 0.0
N435 N 0.21938 0.5575 0.52481 0.0
H436 H 0.2954 0.54132 0.55662 0.0
H437 H 0.21984 0.48515 0.52549 0.0
H438 H 0.2524 0.44915 0.53935 0.0
H439 H 0.26343 0.51968 0.51 0.0
H440 H 0.29808 0.54189 0.49313 0.0
H441 H 0.22205 0.62256 0.51677 0.0
H442 H 0.25585 0.64498 0.49951 0.0
H443 H 0.16061 0.58194 0.53445 0.0
H444 H 0.19974 0.51033 0.50711 0.0
H445 H 0.10113 0.56427 0.52961 0.0
H446 H 0.14143 0.48973 0.50311 0.0
H447 H 0.9301 0.50558 0.51996 0.0
H448 H 0.89752 0.48871 0.53791 0.0
H449 H 0.95367 0.39094 0.53881 0.0
H450 H 0.98457 0.40722 0.52012 0.0
H451 H 0.94621 0.43474 0.48947 0.0
H452 H 0.91256 0.4618 0.47302 0.0
H453 H 0.93442 0.56349 0.48854 0.0
H454 H 0.96849 0.53624 0.50475 0.0
H455 H 0.00363 0.49897 0.52894 0.0
H456 H 0.06121 0.52188 0.53235 0.0
H457 H 0.0886 0.49704 0.49477 0.0
N458 N 0.97954 0.46641 0.50777 0.0
H459 H 0.03185 0.47035 0.49188 0.0
C460 C 0.23732 0.53472 0.53322 0.0
C461 C 0.25875 0.5497 0.54221 0.0
C462 C 0.27834 0.52877 0.55004 0.0
C463 C 0.2767 0.49219 0.54911 0.0
C464 C 0.25477 0.47717 0.54023 0.0
C465 C 0.23559 0.49808 0.53231 0.0
C466 C 0.24034 0.56967 0.51475 0.0
C467 C 0.26173 0.54709 0.50785 0.0
C468 C 0.28131 0.5598 0.49809 0.0
C469 C 0.2797 0.59524 0.49493 0.0
C470 C 0.25808 0.61767 0.5018 0.0
C471 C 0.23865 0.60494 0.51161 0.0
C472 C 0.18463 0.5471 0.52136 0.0
C473 C 0.1563 0.5621 0.5275 0.0
C474 C 0.12233 0.55157 0.52479 0.0
C475 C 0.11604 0.52499 0.51607 0.0
C476 C 0.14468 0.51061 0.50973 0.0
C477 C 0.17843 0.52206 0.51214 0.0
C478 C 0.95934 0.45717 0.51844 0.0
C479 C 0.93505 0.48021 0.52381 0.0
C480 C 0.91676 0.47073 0.5343 0.0
C481 C 0.92289 0.43842 0.53991 0.0
C482 C 0.94767 0.41573 0.53465 0.0
C483 C 0.9655 0.42499 0.524 0.0
C484 C 0.95978 0.48335 0.49828 0.0
C485 C 0.9437 0.46284 0.48926 0.0
C486 C 0.92443 0.47835 0.47993 0.0
C487 C 0.92085 0.5148 0.47948 0.0
C488 C 0.93711 0.53539 0.48853 0.0
C489 C 0.9564 0.51985 0.49784 0.0
C490 C 0.01323 0.48212 0.51011 0.0
C491 C 0.02195 0.49784 0.52142 0.0
C492 C 0.05513 0.51168 0.52333 0.0
C493 C 0.08011 0.51143 0.51388 0.0
C494 C 0.07077 0.49692 0.50245 0.0
C495 C 0.03807 0.48191 0.5007 0.0
C496 C 0.1177 0.69749 0.15185 0.0
C497 C 0.99141 0.65227 0.14775 0.0
C498 C 0.99502 0.70029 0.11195 0.0
Mg499 Mg 0.1564 0.76375 0.13975 0.0
Mg500 Mg 0.11395 0.831 0.12857 0.0
O501 O 0.11892 0.78267 0.12874 0.0
Mg502 Mg 0.07963 0.75233 0.13407 0.0
O503 O 0.04343 0.71864 0.13948 0.0
Mg504 Mg 0.06101 0.67584 0.13073 0.0
Mg505 Mg 0.99588 0.72827 0.1384 0.0
C506 C 0.04414 0.80974 0.11502 0.0
O507 O 0.05512 0.79262 0.14719 0.0
O508 O 0.19505 0.79889 0.12886 0.0
O509 O 0.99753 0.7803 0.14655 0.0
O510 O 0.1491 0.80803 0.15447 0.0
O511 O 0.16389 0.84299 0.12097 0.0
O512 O 0.11268 0.8481 0.14712 0.0
O513 O 0.10208 0.71064 0.12124 0.0
O514 O 0.15871 0.71985 0.12548 0.0
C515 C 0.13445 0.70278 0.11998 0.0
C516 C 0.19272 0.8267 0.12241 0.0
O517 O 0.04511 0.77852 0.11926 0.0
O518 O 0.01943 0.64541 0.14173 0.0
O519 O 0.06668 0.83313 0.11787 0.0
O520 O 0.02162 0.68156 0.11456 0.0
O521 O 0.97802 0.6829 0.14812 0.0
O522 O 0.98225 0.72207 0.1196 0.0
O523 O 0.1147 0.72957 0.1488 0.0
O524 O 0.09934 0.67351 0.14675 0.0
C525 C 0.1311 0.83599 0.1558 0.0
C526 C 0.02326 0.79966 0.14983 0.0
C527 C 0.62193 0.80255 0.40333 0.0
C528 C 0.674 0.67713 0.40029 0.0
C529 C 0.6238 0.67425 0.36518 0.0
Mg530 Mg 0.55317 0.83565 0.39151 0.0
Mg531 Mg 0.48676 0.7892 0.38142 0.0
O532 O 0.53483 0.79569 0.38134 0.0
Mg533 Mg 0.56764 0.75853 0.38677 0.0
O534 O 0.60405 0.72501 0.39221 0.0
Mg535 Mg 0.64513 0.74397 0.38295 0.0
Mg536 Mg 0.59706 0.67699 0.39168 0.0
C537 C 0.50992 0.71837 0.3686 0.0
O538 O 0.5303 0.73311 0.4006 0.0
O539 O 0.51577 0.87133 0.38037 0.0
O540 O 0.54624 0.67634 0.40055 0.0
O541 O 0.51014 0.82921 0.40658 0.0
O542 O 0.47275 0.83752 0.37295 0.0
O543 O 0.47071 0.79057 0.40006 0.0
O544 O 0.60683 0.78132 0.3733 0.0
O545 O 0.59568 0.83802 0.37674 0.0
C546 C 0.61312 0.81368 0.37139 0.0
C547 C 0.48792 0.86713 0.37399 0.0
O548 O 0.54154 0.72126 0.37248 0.0
O549 O 0.67919 0.70519 0.39418 0.0
O550 O 0.48587 0.74022 0.3715 0.0
O551 O 0.64067 0.7024 0.36737 0.0
O552 O 0.64404 0.66256 0.40094 0.0
O553 O 0.60352 0.66099 0.37312 0.0
O554 O 0.5898 0.79648 0.40093 0.0
O555 O 0.6466 0.78532 0.39815 0.0
C556 C 0.48274 0.8108 0.40835 0.0
C557 C 0.52572 0.70127 0.4038 0.0
C558 C 0.60491 0.18686 0.65222 0.0
C559 C 0.47734 0.14182 0.64589 0.0
C560 C 0.48227 0.20312 0.61253 0.0
Mg561 Mg 0.64134 0.25827 0.6434 0.0
Mg562 Mg 0.59749 0.3284 0.63572 0.0
O563 O 0.60289 0.28038 0.63367 0.0
Mg564 Mg 0.56445 0.24707 0.63741 0.0
O565 O 0.5289 0.21097 0.64118 0.0
Mg566 Mg 0.54747 0.17212 0.63059 0.0
Mg567 Mg 0.48122 0.22084 0.63984 0.0
C568 C 0.5263 0.31046 0.62215 0.0
O569 O 0.53834 0.28174 0.65218 0.0
O570 O 0.67826 0.2975 0.63388 0.0
O571 O 0.48111 0.26858 0.6508 0.0
O572 O 0.63564 0.29688 0.65999 0.0
O573 O 0.64667 0.34382 0.62792 0.0
O574 O 0.59913 0.33946 0.65477 0.0
O575 O 0.58784 0.21064 0.62275 0.0
O576 O 0.64387 0.22103 0.62718 0.0
C577 C 0.62048 0.20503 0.62092 0.0
C578 C 0.67556 0.32714 0.62857 0.0
O579 O 0.52942 0.27747 0.62388 0.0
O580 O 0.5063 0.13724 0.64017 0.0
O581 O 0.54784 0.33303 0.62647 0.0
O582 O 0.50834 0.18336 0.61482 0.0
O583 O 0.46304 0.17191 0.64701 0.0
O584 O 0.46898 0.22284 0.62075 0.0
O585 O 0.60055 0.21985 0.65098 0.0
O586 O 0.58658 0.16485 0.64609 0.0
C587 C 0.6185 0.32463 0.66263 0.0
C588 C 0.50629 0.28697 0.65514 0.0
C589 C 0.12879 0.30204 0.89921 0.0
C590 C 0.17629 0.17448 0.89479 0.0
C591 C 0.11542 0.1731 0.86152 0.0
Mg592 Mg 0.05605 0.33479 0.89062 0.0
Mg593 Mg 0.9863 0.28942 0.88311 0.0
O594 O 0.0343 0.29552 0.88109 0.0
Mg595 Mg 0.06882 0.25827 0.88528 0.0
O596 O 0.10611 0.22422 0.88934 0.0
Mg597 Mg 0.14445 0.24209 0.87851 0.0
Mg598 Mg 0.09707 0.17642 0.88876 0.0
C599 C 0.00561 0.21849 0.86954 0.0
O600 O 0.03601 0.23402 0.90062 0.0
O601 O 0.0151 0.37075 0.88159 0.0
O602 O 0.04978 0.17677 0.89983 0.0
O603 O 0.01914 0.32737 0.90746 0.0
O604 O 0.96874 0.33866 0.87595 0.0
O605 O 0.97717 0.28972 0.90232 0.0
O606 O 0.10397 0.28041 0.87025 0.0
O607 O 0.0919 0.33694 0.87392 0.0
C608 C 0.10815 0.31297 0.86791 0.0
C609 C 0.9849 0.36782 0.87664 0.0
O610 O 0.03805 0.22116 0.8724 0.0
O611 O 0.1807 0.20278 0.88873 0.0
O612 O 0.98238 0.24059 0.87302 0.0
O613 O 0.13444 0.20011 0.86328 0.0
O614 O 0.1463 0.1603 0.8961 0.0
O615 O 0.09609 0.16103 0.86996 0.0
O616 O 0.09606 0.29606 0.89817 0.0
O617 O 0.15145 0.28391 0.89332 0.0
C618 C 0.99237 0.30906 0.91022 0.0
C619 C 0.03154 0.20235 0.90401 0.0
C620 C 0.27128 0.91337 0.48481 0.0
C621 C 0.2473 0.93314 0.47804 0.0
C622 C 0.29731 0.89411 0.47885 0.0
C623 C 0.32184 0.8569 0.44867 0.0
H624 H 0.41658 0.86526 0.46065 0.0
C625 C 0.46696 0.8451 0.42726 0.0
C626 C 0.46172 0.81592 0.41961 0.0
C627 C 0.44265 0.85362 0.43637 0.0
C628 C 0.39026 0.86261 0.45721 0.0
H629 H 0.23106 0.94721 0.45972 0.0
H630 H 0.27654 0.91394 0.44934 0.0
H631 H 0.3688 0.89159 0.4723 0.0
H632 H 0.42849 0.77106 0.4163 0.0
H633 H 0.38705 0.78519 0.4324 0.0
H634 H 0.34314 0.82945 0.43332 0.0
C635 C 0.27518 0.91312 0.45925 0.0
C636 C 0.36285 0.8774 0.46394 0.0
C637 C 0.24931 0.93246 0.46519 0.0
C638 C 0.43321 0.79394 0.42193 0.0
C639 C 0.40924 0.80219 0.43111 0.0
C640 C 0.34914 0.84215 0.44197 0.0
C641 C 0.29973 0.89404 0.46601 0.0
C642 C 0.32841 0.87531 0.4596 0.0
C643 C 0.41281 0.83294 0.43808 0.0
C644 C 0.38377 0.84532 0.44603 0.0
H645 H 0.27059 0.91364 0.49473 0.0
H646 H 0.31566 0.87944 0.48431 0.0
H647 H 0.29557 0.85445 0.44516 0.0
H648 H 0.48862 0.86258 0.42572 0.0
H649 H 0.44618 0.87757 0.44154 0.0
C650 C 0.38339 0.91191 0.71654 0.0
C651 C 0.39407 0.92248 0.72833 0.0
C652 C 0.38972 0.93308 0.7064 0.0
C653 C 0.40636 0.02478 0.69868 0.0
H654 H 0.44064 0.98791 0.66775 0.0
C655 C 0.48048 0.08089 0.65397 0.0
C656 C 0.46167 0.11202 0.65244 0.0
C657 C 0.46811 0.05494 0.66175 0.0
C658 C 0.43104 0.99855 0.67634 0.0
H659 H 0.4199 0.96349 0.73867 0.0
H660 H 0.43151 -0.00011 0.72103 0.0
H661 H 0.42869 0.94819 0.68466 0.0
H662 H 0.41371 0.13902 0.65713 0.0
H663 H 0.39195 0.09355 0.67052 0.0
H664 H 0.40978 0.07512 0.69063 0.0
C665 C 0.41793 0.97545 0.71962 0.0
C666 C 0.42394 0.9758 0.68598 0.0
C667 C 0.41169 0.95434 0.72971 0.0
C668 C 0.42912 0.11559 0.65823 0.0
C669 C 0.4167 0.08959 0.66595 0.0
C670 C 0.41337 0.04743 0.68908 0.0
C671 C 0.40665 0.9653 0.70788 0.0
C672 C 0.4121 0.98879 0.69732 0.0
C673 C 0.43659 0.0595 0.66812 0.0
C674 C 0.4262 0.03469 0.67784 0.0
H675 H 0.37 0.88736 0.71516 0.0
H676 H 0.38064 0.92461 0.69747 0.0
H677 H 0.39673 0.03554 0.70725 0.0
H678 H 0.50562 0.07721 0.64964 0.0
H679 H 0.48419 0.03218 0.66327 0.0
C680 C 0.41562 0.07195 0.96007 0.0
C681 C 0.40921 0.03855 0.96477 0.0
C682 C 0.39241 0.08704 0.95178 0.0
C683 C 0.30072 0.08262 0.9423 0.0
H684 H 0.33147 0.13178 0.91335 0.0
C685 C 0.2032 0.12445 0.9058 0.0
C686 C 0.20629 0.15827 0.90109 0.0
C687 C 0.2298 0.11008 0.91282 0.0
C688 C 0.32253 0.11843 0.92146 0.0
H689 H 0.37344 0.99484 0.96444 0.0
H690 H 0.33332 0.0209 0.94989 0.0
H691 H 0.37458 0.10647 0.9272 0.0
H692 H 0.2405 0.20302 0.89966 0.0
H693 H 0.28699 0.17795 0.91211 0.0
H694 H 0.24885 0.09462 0.93672 0.0
C695 C 0.35614 0.03554 0.95266 0.0
C696 C 0.34719 0.10395 0.92938 0.0
C697 C 0.37934 0.02044 0.9609 0.0
C698 C 0.23731 0.17688 0.90315 0.0
C699 C 0.26397 0.1625 0.91026 0.0
C700 C 0.27618 0.0971 0.93443 0.0
C701 C 0.36222 0.06913 0.9481 0.0
C702 C 0.33647 0.08556 0.93982 0.0
C703 C 0.26013 0.12922 0.91539 0.0
C704 C 0.28673 0.11483 0.92385 0.0
H705 H 0.43859 0.08641 0.9628 0.0
H706 H 0.39768 0.11304 0.94847 0.0
H707 H 0.29165 0.06931 0.95041 0.0
H708 H 0.17989 0.10915 0.90425 0.0
H709 H 0.22638 0.08404 0.91637 0.0
C710 C 0.18225 0.03564 0.24278 0.0
C711 C 0.20545 0.062 0.2392 0.0
C712 C 0.17247 0.00936 0.23453 0.0
C713 C 0.16606 0.99082 0.20154 0.0
H714 H 0.16189 0.89395 0.21134 0.0
C715 C 0.15896 0.84913 0.17618 0.0
C716 C 0.13385 0.8569 0.16724 0.0
C717 C 0.16476 0.87211 0.18601 0.0
C718 C 0.16299 0.92089 0.20848 0.0
H719 H 0.23647 0.08151 0.22414 0.0
H720 H 0.2196 0.03552 0.20977 0.0
H721 H 0.17927 0.9387 0.22625 0.0
H722 H 0.09345 0.8937 0.16212 0.0
H723 H 0.10309 0.93305 0.1793 0.0
H724 H 0.15055 0.97322 0.18375 0.0
C725 C 0.20881 0.0353 0.21894 0.0
C726 C 0.17266 0.94651 0.21703 0.0
C727 C 0.21872 0.06145 0.2272 0.0
C728 C 0.11329 0.887 0.16875 0.0
C729 C 0.11892 0.90974 0.17857 0.0
C730 C 0.15627 0.96532 0.19304 0.0
C731 C 0.18552 0.00901 0.2225 0.0
C732 C 0.17453 0.98172 0.21361 0.0
C733 C 0.14548 0.90318 0.18708 0.0
C734 C 0.15471 0.93006 0.19639 0.0
H735 H 0.17191 0.03514 0.25201 0.0
H736 H 0.15429 0.9896 0.23751 0.0
H737 H 0.16687 0.01775 0.19866 0.0
H738 H 0.17522 0.82616 0.17531 0.0
H739 H 0.18549 0.86638 0.19241 0.0
C740 C 0.25416 0.12827 0.54114 0.0
C741 C 0.25895 0.09626 0.53502 0.0
C742 C 0.28157 0.14351 0.54773 0.0
C743 C 0.36411 0.11936 0.5628 0.0
H744 H 0.3785 0.21925 0.56494 0.0
C745 C 0.47451 0.17383 0.5921 0.0
C746 C 0.46414 0.19958 0.60059 0.0
C747 C 0.45331 0.16537 0.58212 0.0
C748 C 0.37477 0.1913 0.56442 0.0
H749 H 0.2966 0.05612 0.5304 0.0
H750 H 0.34439 0.08278 0.54169 0.0
H751 H 0.33312 0.19588 0.55145 0.0
H752 H 0.42505 0.23909 0.60452 0.0
H753 H 0.38799 0.22404 0.58719 0.0
H754 H 0.40512 0.11463 0.57586 0.0
C755 C 0.3193 0.0957 0.54175 0.0
C756 C 0.3487 0.17792 0.55674 0.0
C757 C 0.29192 0.08039 0.53528 0.0
C758 C 0.43364 0.21879 0.59825 0.0
C759 C 0.41243 0.2103 0.58826 0.0
C760 C 0.39013 0.13268 0.5704 0.0
C761 C 0.31437 0.12715 0.54823 0.0
C762 C 0.3429 0.14176 0.55592 0.0
C763 C 0.42131 0.18248 0.5804 0.0
C764 C 0.39564 0.16879 0.57139 0.0
H765 H 0.22899 0.14103 0.54111 0.0
H766 H 0.27675 0.16756 0.55271 0.0
H767 H 0.35994 0.09145 0.56261 0.0
H768 H 0.49806 0.15883 0.59351 0.0
H769 H 0.46125 0.14435 0.57604 0.0
C770 C 0.25477 0.94676 0.80913 0.0
C771 C 0.254 0.93978 0.79649 0.0
C772 C 0.23221 0.97132 0.81431 0.0
C773 C 0.18461 0.05064 0.80714 0.0
H774 H 0.14069 0.03387 0.83852 0.0
C775 C 0.09873 0.1225 0.84815 0.0
C776 C 0.1197 0.15204 0.85016 0.0
C777 C 0.10756 0.0979 0.83918 0.0
C778 C 0.15219 0.03891 0.82965 0.0
H779 H 0.22882 0.95267 0.77935 0.0
H780 H 0.18936 0.99607 0.78844 0.0
H781 H 0.17032 0.98634 0.82791 0.0
H782 H 0.16456 0.18048 0.84347 0.0
H783 H 0.18026 0.13728 0.82793 0.0
H784 H 0.16731 0.10359 0.8091 0.0
C785 C 0.20741 0.98237 0.79432 0.0
C786 C 0.1695 0.01172 0.82364 0.0
C787 C 0.22974 0.95739 0.78915 0.0
C788 C 0.1479 0.15797 0.84222 0.0
C789 C 0.15685 0.13322 0.83327 0.0
C790 C 0.16746 0.078 0.81321 0.0
C791 C 0.20861 0.98972 0.80694 0.0
C792 C 0.18656 0.01747 0.81247 0.0
C793 C 0.13768 0.10216 0.83204 0.0
C794 C 0.15164 0.07257 0.82465 0.0
H795 H 0.27313 0.93345 0.815 0.0
H796 H 0.23398 0.97669 0.82405 0.0
H797 H 0.19768 0.05584 0.79855 0.0
H798 H 0.07665 0.11721 0.85401 0.0
H799 H 0.09181 0.07461 0.83827 0.0
C800 C 0.38028 0.94534 0.04555 0.0
C801 C 0.41069 0.9277 0.04187 0.0
C802 C 0.36153 0.93436 0.05576 0.0
C803 C 0.3439 0.85815 0.0746 0.0
H804 H 0.30666 0.92686 0.09737 0.0
C805 C 0.25408 0.81925 0.11472 0.0
C806 C 0.22372 0.83959 0.11577 0.0
C807 C 0.28175 0.83021 0.10735 0.0
C808 C 0.31682 0.90736 0.09108 0.0
H809 H 0.44533 0.88476 0.04615 0.0
H810 H 0.41205 0.86518 0.06387 0.0
H811 H 0.34541 0.94532 0.08095 0.0
H812 H 0.19936 0.88816 0.11032 0.0
H813 H 0.2471 0.9069 0.09747 0.0
H814 H 0.31432 0.82034 0.08445 0.0
C815 C 0.4028 0.88747 0.05879 0.0
C816 C 0.33896 0.91793 0.08168 0.0
C817 C 0.42173 0.89861 0.04861 0.0
C818 C 0.22225 0.87172 0.1097 0.0
C819 C 0.24982 0.88266 0.10239 0.0
C820 C 0.32157 0.84756 0.08397 0.0
C821 C 0.3726 0.90536 0.0625 0.0
C822 C 0.35208 0.89356 0.07318 0.0
C823 C 0.27965 0.8618 0.10095 0.0
C824 C 0.30712 0.87219 0.09213 0.0
H825 H 0.37067 0.96743 0.04045 0.0
H826 H 0.33796 0.94824 0.05826 0.0
H827 H 0.35347 0.83882 0.06813 0.0
H828 H 0.25609 0.79439 0.11929 0.0
H829 H 0.30457 0.81374 0.10651 0.0
C830 C 0.37211 0.08278 0.30262 0.0
C831 C 0.34421 0.10167 0.30774 0.0
C832 C 0.39294 0.06167 0.30996 0.0
C833 C 0.41546 0.04049 0.34215 0.0
H834 H 0.42913 0.94751 0.32878 0.0
C835 C 0.44415 0.89231 0.35959 0.0
C836 C 0.47352 0.897 0.36711 0.0
C837 C 0.43153 0.9196 0.35251 0.0
C838 C 0.42549 0.97335 0.33265 0.0
H839 H 0.31775 0.11497 0.32471 0.0
H840 H 0.35363 0.07751 0.33749 0.0
H841 H 0.4028 0.99221 0.31613 0.0
H842 H 0.51212 0.93453 0.37329 0.0
H843 H 0.48983 0.98238 0.36088 0.0
H844 H 0.4372 0.02099 0.35884 0.0
C845 C 0.35955 0.07918 0.32781 0.0
C846 C 0.41081 0.99911 0.32535 0.0
C847 C 0.33872 0.10032 0.32046 0.0
C848 C 0.48947 0.92999 0.36759 0.0
C849 C 0.47668 0.95743 0.36052 0.0
C850 C 0.43031 0.01465 0.34946 0.0
C851 C 0.38632 0.05893 0.32259 0.0
C852 C 0.40512 0.03284 0.33006 0.0
C853 C 0.44787 0.95232 0.35278 0.0
C854 C 0.43483 0.98065 0.34484 0.0
H855 H 0.37694 0.08307 0.29284 0.0
H856 H 0.41368 0.04674 0.3057 0.0
H857 H 0.41166 0.06633 0.346 0.0
H858 H 0.43103 0.86738 0.35902 0.0
H859 H 0.40887 0.91506 0.34681 0.0
C860 C 0.787 0.03638 0.551 0.0
C861 C 0.80882 0.01024 0.55569 0.0
C862 C 0.75884 0.04893 0.55783 0.0
C863 C 0.73185 0.05924 0.58976 0.0
H864 H 0.64824 0.09747 0.57505 0.0
C865 C 0.66802 0.17974 0.60836 0.0
C866 C 0.63294 0.17851 0.61202 0.0
C867 C 0.68251 0.153 0.60141 0.0
C868 C 0.67105 0.08623 0.57932 0.0
H869 H 0.81727 0.97593 0.5711 0.0
H870 H 0.76773 0.99747 0.58295 0.0
H871 H 0.68667 0.05955 0.56286 0.0
H872 H 0.58486 0.14918 0.61051 0.0
H873 H 0.61064 0.10187 0.59795 0.0
H874 H 0.7171 0.08711 0.606 0.0
C875 C 0.77273 0.00857 0.57403 0.0
C876 C 0.69327 0.06491 0.57234 0.0
C877 C 0.80102 0.99608 0.56721 0.0
C878 C 0.612 0.15073 0.60788 0.0
C879 C 0.62668 0.12372 0.60076 0.0
C880 C 0.70977 0.08047 0.59668 0.0
C881 C 0.75163 0.03556 0.56951 0.0
C882 C 0.72461 0.0523 0.57736 0.0
C883 C 0.66235 0.12432 0.59783 0.0
C884 C 0.67996 0.09524 0.59139 0.0
H885 H 0.79175 0.04732 0.54205 0.0
H886 H 0.74349 0.07004 0.55411 0.0
H887 H 0.75579 0.0503 0.59393 0.0
H888 H 0.68481 0.20106 0.61115 0.0
H889 H 0.70987 0.15442 0.59902 0.0
C890 C 0.7314 0.98998 0.296 0.0
C891 C 0.76569 0.99037 0.29146 0.0
C892 C 0.72045 0.96378 0.30389 0.0
C893 C 0.75002 0.90546 0.32731 0.0
H894 H 0.6622 0.85824 0.32144 0.0
C895 C 0.65841 0.85557 0.36464 0.0
C896 C 0.64084 0.82388 0.3628 0.0
C897 C 0.68088 0.86831 0.35571 0.0
C898 C 0.68709 0.87068 0.3231 0.0
H899 H 0.8153 0.96304 0.29174 0.0
H900 H 0.79636 0.91817 0.30603 0.0
H901 H 0.68647 0.89618 0.30572 0.0
H902 H 0.6343 0.77966 0.35055 0.0
H903 H 0.67304 0.80266 0.33463 0.0
H904 H 0.74954 0.88156 0.34501 0.0
C905 C 0.77804 0.93813 0.30329 0.0
C906 C 0.70077 0.89259 0.31417 0.0
C907 C 0.78888 0.96403 0.29519 0.0
C908 C 0.64758 0.80417 0.35216 0.0
C909 C 0.66958 0.81733 0.34307 0.0
C910 C 0.73603 0.88396 0.33634 0.0
C911 C 0.74365 0.93766 0.30761 0.0
C912 C 0.73188 0.91082 0.31632 0.0
C913 C 0.68577 0.8499 0.34467 0.0
C914 C 0.70402 0.86706 0.33442 0.0
H915 H 0.71298 0.01018 0.2936 0.0
H916 H 0.69395 0.96433 0.3073 0.0
H917 H 0.77401 0.91934 0.32919 0.0
H918 H 0.65388 0.87111 0.37282 0.0
H919 H 0.69278 0.89361 0.35714 0.0
C920 C 0.80989 0.96954 0.06843 0.0
C921 C 0.80314 0.96539 0.05584 0.0
C922 C 0.83276 0.94703 0.07442 0.0
C923 C 0.87171 0.88713 0.08624 0.0
H924 H 0.95701 0.86475 0.06882 0.0
C925 C 0.9818 0.80641 0.10841 0.0
C926 C 0.01537 0.82012 0.10689 0.0
C927 C 0.95397 0.81901 0.10146 0.0
C928 C 0.93333 0.87075 0.07381 0.0
H929 H 0.81478 0.93377 0.03975 0.0
H930 H 0.85366 0.894 0.05027 0.0
H931 H 0.91128 0.89702 0.05849 0.0
H932 H 0.0464 0.85736 0.09683 0.0
H933 H 0.99803 0.87957 0.08481 0.0
H934 H 0.89463 0.86228 0.10176 0.0
C935 C 0.8417 0.91498 0.05547 0.0
C936 C 0.9069 0.88891 0.06785 0.0
C937 C 0.81901 0.93756 0.04948 0.0
C938 C 0.02079 0.84617 0.09814 0.0
C939 C 0.9931 0.85869 0.09119 0.0
C940 C 0.89823 0.86901 0.09223 0.0
C941 C 0.84933 0.91979 0.06796 0.0
C942 C 0.87601 0.89784 0.07405 0.0
C943 C 0.95928 0.84558 0.09286 0.0
C944 C 0.92961 0.86122 0.08614 0.0
H945 H 0.79777 0.99042 0.07364 0.0
H946 H 0.83829 0.95171 0.08402 0.0
H947 H 0.84804 0.89318 0.09122 0.0
H948 H 0.97675 0.78709 0.11533 0.0
H949 H 0.92823 0.80833 0.10294 0.0
C950 C 0.93561 0.97126 0.80162 0.0
C951 C 0.90951 0.98128 0.79333 0.0
C952 C 0.94515 0.99336 0.8113 0.0
C953 C 0.91504 0.07012 0.82918 0.0
H954 H 0.01351 0.08643 0.83464 0.0
C955 C 0.96624 0.19245 0.8538 0.0
C956 C 0.99423 0.1887 0.86195 0.0
C957 C 0.95535 0.16434 0.84658 0.0
C958 C 0.98593 0.08177 0.83335 0.0
H959 H 0.87317 0.02243 0.78866 0.0
H960 H 0.88966 0.06073 0.8055 0.0
H961 H 0.99518 0.04149 0.82005 0.0
H962 H 0.03123 0.15225 0.86953 0.0
H963 H 0.01255 0.10302 0.85676 0.0
H964 H 0.90578 0.11097 0.84225 0.0
C965 C 0.90233 0.03558 0.80468 0.0
C966 C 0.97543 0.05601 0.82502 0.0
C967 C 0.89286 0.01358 0.79503 0.0
C968 C 0.01061 0.15614 0.86295 0.0
C969 C -0.0003 0.12797 0.85573 0.0
C970 C 0.92552 0.09589 0.83748 0.0
C971 C 0.92872 0.02585 0.81288 0.0
C972 C 0.93987 0.05041 0.82267 0.0
C973 C 0.97208 0.13185 0.84743 0.0
C974 C 0.96105 0.10244 0.83946 0.0
H975 H 0.94865 0.94636 0.80062 0.0
H976 H 0.96535 0.98503 0.81755 0.0
H977 H 0.88745 0.06594 0.82774 0.0
H978 H 0.95309 0.21728 0.85287 0.0
H979 H 0.93422 0.16823 0.84016 0.0
C980 C 0.78469 0.90825 0.48904 0.0
C981 C 0.8131 0.92811 0.48506 0.0
C982 C 0.7569 0.90125 0.48116 0.0
C983 C 0.71864 0.92665 0.45095 0.0
H984 H 0.67838 0.83416 0.45244 0.0
C985 C 0.66152 0.84932 0.41056 0.0
C986 C 0.63165 0.82907 0.41249 0.0
C987 C 0.67564 0.86912 0.4201 0.0
C988 C 0.6888 0.86036 0.45208 0.0
H989 H 0.835 0.95639 0.46984 0.0
H990 H 0.78746 0.9427 0.45578 0.0
H991 H 0.72041 0.8522 0.46784 0.0
H992 H 0.59172 0.81508 0.42556 0.0
H993 H 0.61725 0.84903 0.4425 0.0
H994 H 0.68868 0.9334 0.43455 0.0
C995 C 0.78581 0.93345 0.46511 0.0
C996 C 0.71296 0.87081 0.46092 0.0
C997 C 0.81328 0.94102 0.47309 0.0
C998 C 0.6147 0.83068 0.42388 0.0
C999 C 0.62933 0.84991 0.43354 0.0
C1000 C 0.69491 0.91591 0.44198 0.0
C1001 C 0.75723 0.9134 0.46903 0.0
C1002 C 0.72881 0.90382 0.46034 0.0
C1003 C 0.66052 0.86839 0.4318 0.0
C1004 C 0.68032 0.88243 0.44235 0.0
H1005 H 0.78376 0.89857 0.49833 0.0
H1006 H 0.73512 0.8864 0.48462 0.0
H1007 H 0.72957 0.95258 0.45036 0.0
H1008 H 0.67493 0.84849 0.40182 0.0
H1009 H 0.69983 0.88291 0.41854 0.0
C1010 C 0.89951 0.03857 0.20913 0.0
C1011 C 0.90606 0.0352 0.22173 0.0
C1012 C 0.91836 0.01897 0.20061 0.0
C1013 C 0.99466 0.96405 0.19474 0.0
H1014 H 0.92939 0.90799 0.17599 0.0
C1015 C 0.03516 0.84028 0.1673 0.0
C1016 C 0.01559 0.83148 0.15688 0.0
C1017 C 0.02564 0.86894 0.17457 0.0
C1018 C 0.94817 0.92387 0.18088 0.0
H1019 H 0.93942 0.01088 0.23522 0.0
H1020 H 0.97273 0.97667 0.2202 0.0
H1021 H 0.90774 0.95315 0.18961 0.0
H1022 H 0.97252 0.84656 0.14531 0.0
H1023 H 0.95701 0.89764 0.1575 0.0
H1024 H 0.03522 0.93486 0.18587 0.0
C1025 C 0.9529 0.9945 0.21699 0.0
C1026 C 0.93565 0.94967 0.18875 0.0
C1027 C 0.93384 0.01403 0.22556 0.0
C1028 C 0.98758 0.85262 0.15345 0.0
C1029 C 0.97863 0.88172 0.16049 0.0
C1030 C 0.00734 0.93846 0.18665 0.0
C1031 C 0.94431 0.99582 0.2045 0.0
C1032 C 0.95869 0.96992 0.19577 0.0
C1033 C 0.99682 0.88968 0.17136 0.0
C1034 C 0.98416 0.91797 0.17964 0.0
H1035 H 0.87881 0.05532 0.20589 0.0
H1036 H 0.91162 0.02075 0.19099 0.0
H1037 H 0.01288 0.97937 0.2001 0.0
H1038 H 0.05689 0.82417 0.17009 0.0
H1039 H 0.0401 0.87402 0.1829 0.0
C1040 C 0.83249 0.15143 0.99009 0.0
C1041 C 0.8144 0.11973 0.9889 0.0
C1042 C 0.85441 0.16284 0.9807 0.0
C1043 C 0.90669 0.12772 0.95547 0.0
H1044 H 0.90916 0.2226 0.94358 0.0
C1045 C 0.98688 0.1633 0.91313 0.0
C1046 C 0.00492 0.19505 0.91334 0.0
C1047 C 0.96248 0.15583 0.92221 0.0
C1048 C 0.90906 0.1961 0.9469 0.0
H1049 H 0.80341 0.07631 0.97664 0.0
H1050 H 0.84188 0.09597 0.96039 0.0
H1051 H 0.8683 0.20704 0.95984 0.0
H1052 H 0.01229 0.24361 0.92325 0.0
H1053 H 0.97029 0.23023 0.93934 0.0
H1054 H 0.94766 0.11667 0.94281 0.0
C1055 C 0.83963 0.11166 0.96865 0.0
C1056 C 0.88562 0.18722 0.95619 0.0
C1057 C 0.81768 0.10038 0.97797 0.0
C1058 C 0.99816 0.21923 0.92277 0.0
C1059 C 0.9741 0.21156 0.93196 0.0
C1060 C 0.9302 0.1366 0.9463 0.0
C1061 C 0.85868 0.14266 0.97 0.0
C1062 C 0.88399 0.15282 0.96045 0.0
C1063 C 0.95609 0.17968 0.93182 0.0
C1064 C 0.93144 0.17078 0.9418 0.0
H1065 H 0.83062 0.16683 -0.00157 0.0
H1066 H 0.86894 0.18677 0.98199 0.0
H1067 H 0.90651 0.10117 0.95877 0.0
H1068 H 0.99149 0.14432 0.9059 0.0
H1069 H 0.94861 0.1313 0.92168 0.0
C1070 C 0.82435 0.02203 0.70852 0.0
C1071 C 0.80926 0.01003 0.71944 0.0
C1072 C 0.80809 0.04792 0.70166 0.0
C1073 C 0.73665 0.11414 0.70247 0.0
H1074 H 0.73483 0.0962 0.66748 0.0
C1075 C 0.6528 0.19431 0.66792 0.0
C1076 C 0.63311 0.17289 0.66002 0.0
C1077 C 0.67911 0.17986 0.67523 0.0
C1078 C 0.73525 0.10173 0.67723 0.0
H1079 H 0.76569 0.01698 0.73191 0.0
H1080 H 0.73646 0.06077 0.71963 0.0
H1081 H 0.77139 0.06066 0.68049 0.0
H1082 H 0.6259 0.11955 0.6536 0.0
H1083 H 0.671 0.09489 0.6662 0.0
H1084 H 0.6986 0.15396 0.69913 0.0
C1085 C 0.7613 0.05072 0.7165 0.0
C1086 C 0.75652 0.08156 0.6847 0.0
C1087 C 0.77776 0.02506 0.72343 0.0
C1088 C 0.64043 0.13699 0.65954 0.0
C1089 C 0.66661 0.12277 0.66671 0.0
C1090 C 0.71516 0.1343 0.69496 0.0
C1091 C 0.77606 0.06219 0.70545 0.0
C1092 C 0.75681 0.08683 0.69746 0.0
C1093 C 0.68634 0.14391 0.67461 0.0
C1094 C 0.71345 0.12748 0.68232 0.0
H1095 H 0.84843 0.01093 0.7051 0.0
H1096 H 0.82047 0.05643 0.69329 0.0
H1097 H 0.73674 0.11933 0.71224 0.0
H1098 H 0.64776 0.22206 0.6685 0.0
H1099 H 0.69395 0.19674 0.68128 0.0
C1100 C 0.77318 0.37253 0.98515 0.0
C1101 C 0.77645 0.40433 0.9915 0.0
C1102 C 0.80141 0.35878 0.97858 0.0
C1103 C 0.88278 0.3875 0.96381 0.0
H1104 H 0.89919 0.28831 0.95983 0.0
C1105 C 0.9884 0.33766 0.93098 0.0
C1106 C 0.97607 0.3129 0.92247 0.0
C1107 C 0.96937 0.34515 0.94162 0.0
C1108 C 0.89497 0.3161 0.9609 0.0
H1109 H 0.81222 0.4456 0.99662 0.0
H1110 H 0.86155 0.42145 0.98537 0.0
H1111 H 0.8548 0.30882 0.97426 0.0
H1112 H 0.93543 0.27472 0.91896 0.0
H1113 H 0.90243 0.28796 0.93736 0.0
H1114 H 0.92221 0.39485 0.95028 0.0
C1115 C 0.83701 0.40757 0.98512 0.0
C1116 C 0.86945 0.32784 0.96911 0.0
C1117 C 0.80877 0.42142 0.99157 0.0
C1118 C 0.94563 0.29417 0.92525 0.0
C1119 C 0.92677 0.30152 0.93588 0.0
C1120 C 0.90832 0.3758 0.95567 0.0
C1121 C 0.83354 0.37643 0.97835 0.0
C1122 C 0.86262 0.36368 0.97049 0.0
C1123 C 0.93778 0.32791 0.94397 0.0
C1124 C 0.91427 0.33997 0.95394 0.0
H1125 H 0.74851 0.35888 0.98494 0.0
H1126 H 0.79767 0.33497 0.97335 0.0
H1127 H 0.87787 0.41525 0.96447 0.0
H1128 H 0.01186 0.3524 0.92918 0.0
H1129 H 0.97873 0.36531 0.94779 0.0
C1130 C 0.87784 0.4229 0.215 0.0
C1131 C 0.89309 0.4255 0.22668 0.0
C1132 C 0.88738 0.44588 0.20572 0.0
C1133 C 0.92408 0.53327 0.20148 0.0
H1134 H 0.93938 0.50276 0.16794 0.0
C1135 C 0.99002 0.59063 0.15517 0.0
C1136 C 0.97553 0.62432 0.15517 0.0
C1137 C 0.97729 0.56521 0.16308 0.0
C1138 C 0.93522 0.51163 0.17727 0.0
H1139 H 0.93061 0.45395 0.23773 0.0
H1140 H 0.94763 0.49365 0.2215 0.0
H1141 H 0.92424 0.46003 0.18355 0.0
H1142 H 0.93515 0.65713 0.16312 0.0
H1143 H 0.91288 0.61265 0.17684 0.0
H1144 H 0.93571 0.58468 0.19532 0.0
C1145 C 0.92806 0.47406 0.21955 0.0
C1146 C 0.92631 0.48723 0.18618 0.0
C1147 C 0.91862 0.45104 0.2288 0.0
C1148 C 0.9471 0.63155 0.16292 0.0
C1149 C 0.93444 0.60613 0.17084 0.0
C1150 C 0.93282 0.55763 0.19259 0.0
C1151 C 0.91222 0.47203 0.20797 0.0
C1152 C 0.92096 0.49779 0.1984 0.0
C1153 C 0.94983 0.57291 0.17117 0.0
C1154 C 0.9387 0.54707 0.1804 0.0
H1155 H 0.85831 0.40327 0.21306 0.0
H1156 H 0.87463 0.44378 0.1969 0.0
H1157 H 0.91965 0.54227 0.21079 0.0
H1158 H 0.01188 0.58408 0.14931 0.0
H1159 H 0.98987 0.53993 0.16318 0.0
C1160 C 0.91075 0.56212 0.46412 0.0
C1161 C 0.89962 0.53126 0.46976 0.0
C1162 C 0.89014 0.5781 0.45524 0.0
C1163 C 0.81712 0.56131 0.43393 0.0
H1164 H 0.80155 0.661 0.43653 0.0
C1165 C 0.69906 0.62815 0.41239 0.0
C1166 C 0.70344 0.6608 0.40686 0.0
C1167 C 0.72633 0.61268 0.41877 0.0
C1168 C 0.8061 0.63325 0.43555 0.0
H1169 H 0.85807 0.4931 0.47054 0.0
H1170 H 0.82221 0.52087 0.45506 0.0
H1171 H 0.84343 0.63306 0.4501 0.0
H1172 H 0.7402 0.70266 0.40361 0.0
H1173 H 0.788 0.67547 0.41485 0.0
H1174 H 0.77922 0.56135 0.41959 0.0
C1175 C 0.84711 0.53244 0.45735 0.0
C1176 C 0.83007 0.61724 0.44332 0.0
C1177 C 0.86766 0.51652 0.46623 0.0
C1178 C 0.73593 0.67751 0.40778 0.0
C1179 C 0.76326 0.66203 0.41424 0.0
C1180 C 0.79319 0.57729 0.42618 0.0
C1181 C 0.85804 0.56348 0.45179 0.0
C1182 C 0.83528 0.58099 0.44276 0.0
C1183 C 0.75867 0.62947 0.41981 0.0
C1184 C 0.78688 0.6133 0.42708 0.0
H1185 H 0.93549 0.57384 0.46653 0.0
H1186 H 0.8994 0.60179 0.45102 0.0
H1187 H 0.8211 0.53343 0.43312 0.0
H1188 H 0.67444 0.61446 0.41187 0.0
H1189 H 0.7218 0.58783 0.42312 0.0
C1190 C 0.76987 0.53966 0.71854 0.0
C1191 C 0.76292 0.54946 0.73072 0.0
C1192 C 0.75018 0.51367 0.71282 0.0
C1193 C 0.69732 0.4367 0.71826 0.0
H1194 H 0.65976 0.45643 0.68609 0.0
C1195 C 0.60689 0.37447 0.6769 0.0
C1196 C 0.62518 0.34348 0.6743 0.0
C1197 C 0.61833 0.39718 0.68607 0.0
C1198 C 0.66967 0.45062 0.69513 0.0
H1199 H 0.73056 0.53942 0.74657 0.0
H1200 H 0.69625 0.49341 0.73656 0.0
H1201 H 0.69142 0.50162 0.6972 0.0
H1202 H 0.66789 0.31051 0.68014 0.0
H1203 H 0.68818 0.35063 0.69612 0.0
H1204 H 0.67626 0.38519 0.71596 0.0
C1205 C 0.7168 0.50608 0.73146 0.0
C1206 C 0.68809 0.47639 0.70143 0.0
C1207 C 0.73618 0.53251 0.73713 0.0
C1208 C 0.65328 0.33421 0.68187 0.0
C1209 C 0.66487 0.35714 0.69105 0.0
C1210 C 0.67921 0.41062 0.71186 0.0
C1211 C 0.72349 0.49664 0.71923 0.0
C1212 C 0.70238 0.46961 0.71298 0.0
C1213 C 0.64846 0.38959 0.6928 0.0
C1214 C 0.66535 0.41735 0.7002 0.0
H1215 H 0.79027 0.55241 0.7134 0.0
H1216 H 0.75597 0.50667 0.7034 0.0
H1217 H 0.70825 0.43087 0.72716 0.0
H1218 H 0.58499 0.38241 0.67133 0.0
H1219 H 0.60477 0.4217 0.6874 0.0
C1220 C 0.78163 0.58505 0.03905 0.0
C1221 C 0.75815 0.56644 0.04641 0.0
C1222 C 0.80819 0.60489 0.04439 0.0
C1223 C 0.83481 0.64724 0.07333 0.0
H1224 H 0.92893 0.63494 0.06108 0.0
C1225 C 0.94772 0.71564 0.09723 0.0
C1226 C 0.97516 0.69334 0.10056 0.0
C1227 C 0.92368 0.70549 0.08832 0.0
C1228 C 0.90278 0.63874 0.06456 0.0
H1229 H 0.7434 0.55488 0.0651 0.0
H1230 H 0.78976 0.58951 0.07443 0.0
H1231 H 0.88032 0.60664 0.05048 0.0
H1232 H 0.0006 0.64419 0.09632 0.0
H1233 H 0.95829 0.62623 0.08087 0.0
H1234 H 0.8571 0.67814 0.08766 0.0
C1235 C 0.78759 0.58884 0.06454 0.0
C1236 C 0.87493 0.62278 0.05845 0.0
C1237 C 0.76122 0.5688 0.05921 0.0
C1238 C 0.97974 0.66197 0.094 0.0
C1239 C 0.95549 0.65169 0.08511 0.0
C1240 C 0.86254 0.66329 0.07939 0.0
C1241 C 0.81161 0.60677 0.05719 0.0
C1242 C 0.84074 0.62633 0.06293 0.0
C1243 C 0.92636 0.6727 0.08258 0.0
C1244 C 0.89692 0.65878 0.0752 0.0
H1245 H 0.78013 0.58342 0.02915 0.0
H1246 H 0.82616 0.61863 0.0385 0.0
H1247 H 0.80872 0.65074 0.07692 0.0
H1248 H 0.94359 0.74015 0.10199 0.0
H1249 H 0.90199 0.72263 0.08636 0.0
C1250 C 0.74156 0.46659 0.29002 0.0
C1251 C 0.76523 0.44562 0.29646 0.0
C1252 C 0.72282 0.49278 0.29608 0.0
C1253 C 0.70394 0.55937 0.31039 0.0
H1254 H 0.6628 0.53813 0.34189 0.0
C1255 C 0.6599 0.66216 0.34644 0.0
C1256 C 0.63137 0.65375 0.35394 0.0
C1257 C 0.67162 0.63856 0.3375 0.0
C1258 C 0.67369 0.54441 0.33302 0.0
H1259 H 0.78772 0.43544 0.31428 0.0
H1260 H 0.75494 0.48119 0.3249 0.0
H1261 H 0.69306 0.4926 0.33046 0.0
H1262 H 0.59081 0.61546 0.35708 0.0
H1263 H 0.61069 0.575 0.34135 0.0
H1264 H 0.68479 0.61143 0.31308 0.0
C1265 C 0.75081 0.47728 0.31516 0.0
C1266 C 0.69141 0.51841 0.32656 0.0
C1267 C 0.76976 0.4513 0.30909 0.0
C1268 C 0.613 0.62274 0.35156 0.0
C1269 C 0.62456 0.59934 0.3426 0.0
C1270 C 0.68635 0.58554 0.31691 0.0
C1271 C 0.72717 0.49828 0.30872 0.0
C1272 C 0.70703 0.52568 0.31524 0.0
C1273 C 0.6549 0.60627 0.33587 0.0
C1274 C 0.67123 0.57835 0.32834 0.0
H1275 H 0.73786 0.46305 0.28025 0.0
H1276 H 0.70463 0.50845 0.29091 0.0
H1277 H 0.71591 0.56571 0.3017 0.0
H1278 H 0.67458 0.68587 0.34799 0.0
H1279 H 0.69511 0.64463 0.33245 0.0
C1280 C 0.89296 0.45378 0.55978 0.0
C1281 C 0.90306 0.4284 0.55108 0.0
C1282 C 0.87219 0.44482 0.56978 0.0
C1283 C 0.84571 0.37417 0.58957 0.0
H1284 H 0.75596 0.42032 0.59127 0.0
C1285 C 0.73201 0.31865 0.61759 0.0
C1286 C 0.70629 0.34128 0.62219 0.0
C1287 C 0.75916 0.33139 0.61041 0.0
C1288 C 0.78117 0.40768 0.59119 0.0
H1289 H 0.89974 0.37334 0.54637 0.0
H1290 H 0.86474 0.35767 0.56412 0.0
H1291 H 0.7986 0.43878 0.57618 0.0
H1292 H 0.68986 0.39522 0.6235 0.0
H1293 H 0.7382 0.41781 0.61149 0.0
H1294 H 0.82888 0.34345 0.60468 0.0
C1295 C 0.87283 0.38452 0.56307 0.0
C1296 C 0.80549 0.41818 0.58246 0.0
C1297 C 0.89302 0.39356 0.55293 0.0
C1298 C 0.70914 0.37713 0.61995 0.0
C1299 C 0.73674 0.39 0.61298 0.0
C1300 C 0.82169 0.36412 0.59848 0.0
C1301 C 0.86178 0.41018 0.57144 0.0
C1302 C 0.83764 0.40108 0.58143 0.0
C1303 C 0.76166 0.36719 0.60784 0.0
C1304 C 0.78876 0.38023 0.59925 0.0
H1305 H 0.90088 0.4807 0.55888 0.0
H1306 H 0.86413 0.46496 0.5762 0.0
H1307 H 0.87055 0.36084 0.58898 0.0
H1308 H 0.73032 0.29083 0.61908 0.0
H1309 H 0.77733 0.31283 0.60648 0.0
C1310 C 0.85403 0.59769 0.81388 0.0
C1311 C 0.87809 0.60065 0.80417 0.0
C1312 C 0.862 0.57781 0.82419 0.0
C1313 C 0.92937 0.54432 0.84338 0.0
H1314 H 0.88354 0.45434 0.84337 0.0
C1315 C 0.99021 0.42615 0.8669 0.0
C1316 C 0.969 0.39896 0.87108 0.0
C1317 C 0.97566 0.45456 0.86086 0.0
C1318 C 0.89603 0.47959 0.8438 0.0
H1319 H 0.92997 0.58538 0.79809 0.0
H1320 H 0.9442 0.5527 0.81635 0.0
H1321 H 0.86391 0.49934 0.82937 0.0
H1322 H 0.91578 0.38096 0.8728 0.0
H1323 H 0.89009 0.43133 0.86276 0.0
H1324 H 0.96145 0.5251 0.8578 0.0
C1325 C 0.91913 0.5656 0.81582 0.0
C1326 C 0.88479 0.50527 0.83572 0.0
C1327 C 0.91093 0.58464 0.8054 0.0
C1328 C 0.93279 0.40137 0.86953 0.0
C1329 C 0.91812 0.4302 0.86371 0.0
C1330 C 0.94014 0.51895 0.85166 0.0
C1331 C 0.89449 0.56144 0.82515 0.0
C1332 C 0.90205 0.53736 0.83522 0.0
C1333 C 0.93942 0.45689 0.85908 0.0
C1334 C 0.92445 0.48576 0.85169 0.0
H1335 H 0.82879 0.61019 0.81346 0.0
H1336 H 0.84268 0.57482 0.83134 0.0
H1337 H 0.94296 0.56903 0.8431 0.0
H1338 H 0.01825 0.42489 0.86788 0.0
H1339 H 0.99313 0.47401 0.85722 0.0
C1340 C 0.29888 0.57975 0.03799 0.0
C1341 C 0.33111 0.56519 0.04132 0.0
C1342 C 0.27356 0.58696 0.04685 0.0
C1343 C 0.26581 0.6056 0.07974 0.0
H1344 H 0.16666 0.59562 0.07385 0.0
C1345 C 0.17129 0.65102 0.11622 0.0
C1346 C 0.14528 0.67366 0.11205 0.0
C1347 C 0.1889 0.62931 0.10801 0.0
C1348 C 0.19426 0.59854 0.07561 0.0
H1349 H 0.36164 0.54609 0.05658 0.0
H1350 H 0.3172 0.558 0.07199 0.0
H1351 H 0.20838 0.57425 0.05854 0.0
H1352 H 0.11509 0.68965 0.09635 0.0
H1353 H 0.14669 0.65231 0.08179 0.0
H1354 H 0.25212 0.63069 0.09655 0.0
C1355 C 0.31171 0.56431 0.06253 0.0
C1356 C 0.21814 0.58639 0.06685 0.0
C1357 C 0.33708 0.55721 0.05368 0.0
C1358 C 0.13498 0.67217 0.09974 0.0
C1359 C 0.1531 0.6508 0.09143 0.0
C1360 C 0.24208 0.61766 0.08845 0.0
C1361 C 0.27983 0.57969 0.05924 0.0
C1362 C 0.25419 0.59012 0.06879 0.0
C1363 C 0.18141 0.63046 0.09542 0.0
C1364 C 0.20602 0.61454 0.08647 0.0
H1365 H 0.29316 0.58559 0.02851 0.0
H1366 H 0.24944 0.59911 0.04401 0.0
H1367 H 0.29332 0.60961 0.08142 0.0
H1368 H 0.17938 0.6516 0.12573 0.0
H1369 H 0.20987 0.61319 0.11143 0.0
C1370 C 0.31629 0.5025 0.81993 0.0
C1371 C 0.32182 0.49863 0.80727 0.0
C1372 C 0.29684 0.47793 0.82635 0.0
C1373 C 0.2594 0.38873 0.82475 0.0
H1374 H 0.19054 0.42869 0.84674 0.0
C1375 C 0.16639 0.3109 0.85742 0.0
C1376 C 0.13258 0.32463 0.85841 0.0
C1377 C 0.19147 0.32802 0.8503 0.0
C1378 C 0.20954 0.41709 0.84059 0.0
H1379 H 0.31263 0.46492 0.79153 0.0
H1380 H 0.27782 0.42254 0.80268 0.0
H1381 H 0.23173 0.46661 0.83658 0.0
H1382 H 0.09739 0.36461 0.85194 0.0
H1383 H 0.14052 0.39371 0.83937 0.0
H1384 H 0.23621 0.33908 0.82868 0.0
C1385 C 0.28881 0.44443 0.80766 0.0
C1386 C 0.23348 0.43881 0.83489 0.0
C1387 C 0.30832 0.46901 0.80124 0.0
C1388 C 0.12344 0.35378 0.85144 0.0
C1389 C 0.14817 0.37056 0.84431 0.0
C1390 C 0.23537 0.36684 0.83054 0.0
C1391 C 0.28235 0.44893 0.82025 0.0
C1392 C 0.2585 0.42501 0.82681 0.0
C1393 C 0.18281 0.35886 0.8441 0.0
C1394 C 0.20983 0.38096 0.83835 0.0
H1395 H 0.32617 0.52504 0.82485 0.0
H1396 H 0.2927 0.48192 0.83607 0.0
H1397 H 0.2786 0.37732 0.81865 0.0
H1398 H 0.17403 0.28855 0.86278 0.0
H1399 H 0.218 0.31841 0.85026 0.0
C1400 C 0.31378 0.43902 0.55245 0.0
C1401 C 0.29848 0.46979 0.5571 0.0
C1402 C 0.33531 0.41866 0.55982 0.0
C1403 C 0.39471 0.42716 0.58533 0.0
H1404 H 0.38681 0.32688 0.58864 0.0
C1405 C 0.48157 0.35597 0.619 0.0
C1406 C 0.49598 0.32387 0.61542 0.0
C1407 C 0.45475 0.37085 0.61227 0.0
C1408 C 0.38961 0.3548 0.58769 0.0
H1409 H 0.29292 0.50241 0.57334 0.0
H1410 H 0.33147 0.46742 0.58605 0.0
H1411 H 0.3448 0.35853 0.57599 0.0
H1412 H 0.49267 0.28116 0.60238 0.0
H1413 H 0.44631 0.30792 0.59019 0.0
H1414 H 0.43994 0.42387 0.59653 0.0
C1415 C 0.32667 0.45921 0.57668 0.0
C1416 C 0.36549 0.37287 0.5805 0.0
C1417 C 0.3048 0.47933 0.56937 0.0
C1418 C 0.48203 0.30607 0.60526 0.0
C1419 C 0.45543 0.32136 0.59834 0.0
C1420 C 0.41898 0.40918 0.59233 0.0
C1421 C 0.34236 0.42889 0.57193 0.0
C1422 C 0.36767 0.40926 0.5794 0.0
C1423 C 0.44213 0.35441 0.60161 0.0
C1424 C 0.41652 0.37284 0.59376 0.0
H1425 H 0.30999 0.43112 0.543 0.0
H1426 H 0.34744 0.39559 0.55592 0.0
H1427 H 0.3974 0.45512 0.5844 0.0
H1428 H 0.49127 0.36982 0.62699 0.0
H1429 H 0.44429 0.39565 0.61535 0.0
C1430 C 0.41092 0.49673 0.29718 0.0
C1431 C 0.38741 0.47204 0.30183 0.0
C1432 C 0.43007 0.51804 0.30512 0.0
C1433 C 0.4196 0.55853 0.33486 0.0
H1434 H 0.51466 0.59004 0.3303 0.0
C1435 C 0.46828 0.6887 0.35432 0.0
C1436 C 0.50001 0.68831 0.36075 0.0
C1437 C 0.45764 0.65968 0.34752 0.0
C1438 C 0.48817 0.58126 0.33172 0.0
H1439 H 0.36794 0.44832 0.31845 0.0
H1440 H 0.40091 0.48612 0.33231 0.0
H1441 H 0.49249 0.54105 0.31801 0.0
H1442 H 0.54494 0.65696 0.3651 0.0
H1443 H 0.52684 0.60636 0.35295 0.0
H1444 H 0.41485 0.59919 0.34829 0.0
C1445 C 0.40416 0.48912 0.32251 0.0
C1446 C 0.4755 0.5534 0.32469 0.0
C1447 C 0.38522 0.46761 0.31458 0.0
C1448 C 0.521 0.65839 0.36003 0.0
C1449 C 0.5105 0.62939 0.35314 0.0
C1450 C 0.4321 0.58656 0.34176 0.0
C1451 C 0.42592 0.51524 0.31785 0.0
C1452 C 0.44096 0.54205 0.32611 0.0
C1453 C 0.47851 0.62966 0.34695 0.0
C1454 C 0.4663 0.59852 0.34013 0.0
H1455 H 0.413 0.50115 0.28742 0.0
H1456 H 0.44643 0.53817 0.30128 0.0
H1457 H 0.39274 0.55062 0.33605 0.0
H1458 H 0.45144 0.71136 0.3546 0.0
H1459 H 0.43301 0.66072 0.34269 0.0
C1460 C 0.32711 0.47318 0.95641 0.0
C1461 C 0.32353 0.47566 0.96918 0.0
C1462 C 0.29942 0.46146 0.94917 0.0
C1463 C 0.21948 0.40884 0.95109 0.0
H1464 H 0.20529 0.44313 0.91815 0.0
C1465 C 0.12421 0.34178 0.91753 0.0
C1466 C 0.14141 0.33147 0.90673 0.0
C1467 C 0.13948 0.36647 0.92539 0.0
C1468 C 0.20875 0.43352 0.92738 0.0
H1469 H 0.2877 0.46931 0.98436 0.0
H1470 H 0.23931 0.44905 0.97175 0.0
H1471 H 0.24633 0.47283 0.93175 0.0
H1472 H 0.18634 0.34066 0.89516 0.0
H1473 H 0.21257 0.38375 0.9087 0.0
H1474 H 0.18265 0.36893 0.94656 0.0
C1475 C 0.26371 0.45543 0.96733 0.0
C1476 C 0.23241 0.45033 0.93513 0.0
C1477 C 0.29145 0.46696 0.97455 0.0
C1478 C 0.17274 0.34784 0.90351 0.0
C1479 C 0.1876 0.37279 0.91121 0.0
C1480 C 0.19567 0.39216 0.94335 0.0
C1481 C 0.26745 0.45221 0.95456 0.0
C1482 C 0.2389 0.43749 0.94694 0.0
C1483 C 0.17168 0.38166 0.92239 0.0
C1484 C 0.19096 0.40364 0.93129 0.0
H1485 H 0.3516 0.47952 0.95203 0.0
H1486 H 0.30342 0.45871 0.93939 0.0
H1487 H 0.22402 0.39805 0.96008 0.0
H1488 H 0.09996 0.32956 0.92018 0.0
H1489 H 0.12665 0.373 0.93395 0.0
C1490 C 0.47198 0.51603 0.73266 0.0
C1491 C 0.43752 0.52545 0.73556 0.0
C1492 C 0.47895 0.4927 0.72307 0.0
C1493 C 0.43601 0.42319 0.70489 0.0
H1494 H 0.51994 0.42868 0.68523 0.0
C1495 C 0.46426 0.32986 0.66424 0.0
C1496 C 0.49792 0.31545 0.66385 0.0
C1497 C 0.4564 0.3569 0.67244 0.0
C1498 C 0.49647 0.4268 0.69069 0.0
H1499 H 0.38344 0.51846 0.73028 0.0
H1500 H 0.39572 0.47924 0.71324 0.0
H1501 H 0.50687 0.47489 0.70004 0.0
H1502 H 0.54924 0.31713 0.67206 0.0
H1503 H 0.53548 0.36446 0.68638 0.0
H1504 H 0.42555 0.37524 0.69542 0.0
C1505 C 0.41734 0.48911 0.7186 0.0
C1506 C 0.489 0.45318 0.69921 0.0
C1507 C 0.41034 0.51211 0.72828 0.0
C1508 C 0.52341 0.32837 0.67191 0.0
C1509 C 0.51554 0.3554 0.68011 0.0
C1510 C 0.44329 0.39705 0.69629 0.0
C1511 C 0.45167 0.47851 0.71605 0.0
C1512 C 0.45882 0.45155 0.70649 0.0
C1513 C 0.48203 0.37002 0.68041 0.0
C1514 C 0.47372 0.39845 0.68919 0.0
H1515 H 0.49362 0.52623 0.73794 0.0
H1516 H 0.5057 0.48498 0.72145 0.0
H1517 H 0.41291 0.42062 0.7105 0.0
H1518 H 0.44406 0.32052 0.65812 0.0
H1519 H 0.43037 0.36781 0.67246 0.0
C1520 C 0.31743 0.64124 0.48545 0.0
C1521 C 0.3008 0.60866 0.48459 0.0
C1522 C 0.33871 0.65298 0.47595 0.0
C1523 C 0.39332 0.61949 0.45121 0.0
H1524 H 0.39109 0.71407 0.43898 0.0
C1525 C 0.48039 0.66 0.41115 0.0
C1526 C 0.49626 0.69286 0.41189 0.0
C1527 C 0.45393 0.65107 0.4193 0.0
C1528 C 0.39228 0.68766 0.44239 0.0
H1529 H 0.29224 0.56366 0.47279 0.0
H1530 H 0.32992 0.58387 0.45635 0.0
H1531 H 0.3495 0.69625 0.4547 0.0
H1532 H 0.49708 0.7422 0.42167 0.0
H1533 H 0.45156 0.72629 0.4362 0.0
H1534 H 0.43657 0.61091 0.43929 0.0
C1535 C 0.32672 0.60012 0.46444 0.0
C1536 C 0.3684 0.67749 0.45135 0.0
C1537 C 0.30527 0.58851 0.47388 0.0
C1538 C 0.48488 0.71686 0.42081 0.0
C1539 C 0.45876 0.70774 0.4291 0.0
C1540 C 0.41733 0.6297 0.44236 0.0
C1541 C 0.34397 0.63226 0.46545 0.0
C1542 C 0.36869 0.64326 0.45581 0.0
C1543 C 0.44322 0.67458 0.42853 0.0
C1544 C 0.4171 0.66387 0.43781 0.0
H1545 H 0.31489 0.65725 0.49363 0.0
H1546 H 0.35198 0.67772 0.47701 0.0
H1547 H 0.39454 0.59312 0.45465 0.0
H1548 H 0.48849 0.64114 0.40427 0.0
H1549 H 0.44204 0.6256 0.41841 0.0
C1550 C 0.27157 0.51602 0.21845 0.0
C1551 C 0.27452 0.52358 0.23102 0.0
C1552 C 0.26425 0.54257 0.21013 0.0
C1553 C 0.21697 0.62437 0.20982 0.0
H1554 H 0.24753 0.62839 0.17598 0.0
C1555 C 0.1301 0.66108 0.1699 0.0
C1556 C 0.14108 0.68723 0.16187 0.0
C1557 C 0.15225 0.64893 0.17898 0.0
C1558 C 0.23931 0.62805 0.18547 0.0
H1559 H 0.27539 0.56523 0.24458 0.0
H1560 H 0.26229 0.61143 0.23009 0.0
H1561 H 0.27885 0.59128 0.19051 0.0
H1562 H 0.18364 0.72146 0.15702 0.0
H1563 H 0.2234 0.69894 0.17286 0.0
H1564 H 0.17616 0.65928 0.2046 0.0
C1565 C 0.26504 0.58496 0.22669 0.0
C1566 C 0.25695 0.60663 0.19374 0.0
C1567 C 0.27239 0.55849 0.23499 0.0
C1568 C 0.1746 0.70143 0.16318 0.0
C1569 C 0.19726 0.68852 0.17215 0.0
C1570 C 0.19918 0.64535 0.20154 0.0
C1571 C 0.25977 0.57714 0.21424 0.0
C1572 C 0.24532 0.60386 0.20591 0.0
C1573 C 0.18612 0.66214 0.18009 0.0
C1574 C 0.20959 0.64658 0.18924 0.0
H1575 H 0.27299 0.48937 0.21513 0.0
H1576 H 0.26002 0.53568 0.2006 0.0
H1577 H 0.20711 0.62254 0.21909 0.0
H1578 H 0.10433 0.64981 0.1691 0.0
H1579 H 0.14323 0.62837 0.18495 0.0
loop_
_geom_bond_atom_site_label_1
_geom_bond_atom_site_label_2
_geom_bond_distance
_geom_bond_site_symmetry_2
_ccdc_geom_bond_type
H0 C27 0.929 1_565 S
N1 C26 1.433 1_565 S
N1 C32 1.435 . S
N1 C38 1.423 . S
H2 C28 0.930 . S
H3 C31 0.931 . S
H4 C30 0.929 . S
H5 C33 0.930 1_545 S
H6 C34 0.940 . S
H7 C37 0.929 . S
H8 C36 0.931 . S
H9 C39 0.929 . S
H10 C43 0.932 . S
H11 C40 0.931 . S
H12 C42 0.929 . S
H13 C45 0.929 1_565 S
H14 C46 0.930 . S
H15 C48 0.929 . S
H16 C49 0.931 . S
H17 C51 0.930 1_545 S
H18 C52 0.943 . S
H19 C54 0.931 . S
H20 C55 0.929 . S
H21 C57 0.929 . S
H22 C58 0.931 . S
H23 C60 0.929 . S
N24 C44 1.433 1_565 S
N24 C50 1.435 . S
N24 C56 1.423 . S
H25 C61 0.932 . S
C26 N1 1.433 1_545 S
C26 C27 1.363 . S
C26 C31 1.370 . S
C27 H0 0.929 1_545 S
C27 C26 1.363 . S
C27 C28 1.385 . S
C28 H2 0.930 . S
C28 C27 1.385 . S
C28 C29 1.357 . S
C29 C28 1.357 . S
C29 C30 1.406 . S
C30 H4 0.929 . S
C30 C29 1.406 . S
C30 C31 1.391 . S
C31 H3 0.931 . S
C31 C26 1.370 . S
C31 C30 1.391 . S
C32 N1 1.435 . S
C32 C33 1.358 . S
C32 C37 1.371 . S
C33 H5 0.930 1_565 S
C33 C32 1.358 . S
C33 C34 1.405 . S
C34 H6 0.940 . S
C34 C33 1.405 . S
C34 C35 1.383 . S
C35 C34 1.383 . S
C35 C36 1.393 . S
C36 H8 0.931 . S
C36 C35 1.393 . S
C36 C37 1.382 . S
C37 H7 0.929 . S
C37 C32 1.371 . S
C37 C36 1.382 . S
C38 N1 1.423 . S
C38 C39 1.362 . S
C38 C43 1.388 . S
C39 H9 0.929 . S
C39 C38 1.362 . S
C39 C40 1.376 . S
C40 H11 0.931 . S
C40 C39 1.376 . S
C40 C41 1.396 1_655 S
C41 C40 1.396 1_455 S
C41 C42 1.348 1_455 S
C41 C59 1.472 . S
C42 H12 0.929 . S
C42 C41 1.348 1_655 S
C42 C43 1.443 . S
C43 H10 0.932 . S
C43 C38 1.388 . S
C43 C42 1.443 . S
C44 N24 1.433 1_545 S
C44 C45 1.363 . S
C44 C49 1.370 . S
C45 H13 0.929 1_545 S
C45 C44 1.363 . S
C45 C46 1.385 . S
C46 H14 0.930 . S
C46 C45 1.385 . S
C46 C47 1.357 . S
C47 C46 1.357 . S
C47 C48 1.406 . S
C48 H15 0.929 . S
C48 C47 1.406 . S
C48 C49 1.391 . S
C49 H16 0.931 . S
C49 C44 1.370 . S
C49 C48 1.391 . S
C50 N24 1.435 . S
C50 C51 1.358 . S
C50 C55 1.371 . S
C51 H17 0.930 1_565 S
C51 C50 1.358 . S
C51 C52 1.405 . S
C52 H18 0.943 . S
C52 C51 1.405 . S
C52 C53 1.383 . S
C53 C52 1.383 . S
C53 C54 1.393 . S
C54 H19 0.931 . S
C54 C53 1.393 . S
C54 C55 1.382 . S
C55 H20 0.929 . S
C55 C50 1.371 . S
C55 C54 1.382 . S
C56 N24 1.423 . S
C56 C57 1.362 . S
C56 C61 1.388 . S
C57 H21 0.929 . S
C57 C56 1.362 . S
C57 C58 1.376 . S
C58 H22 0.931 . S
C58 C57 1.376 . S
C58 C59 1.396 . S
C59 C41 1.472 . S
C59 C58 1.396 . S
C59 C60 1.348 . S
C60 H23 0.929 . S
C60 C59 1.348 . S
C60 C61 1.443 . S
C61 H25 0.932 . S
C61 C56 1.388 . S
C61 C60 1.443 . S
H62 C89 0.929 . S
N63 C88 1.433 . S
N63 C94 1.435 . S
N63 C100 1.423 . S
H64 C90 0.930 . S
H65 C93 0.931 . S
H66 C92 0.929 . S
H67 C95 0.930 . S
H68 C96 0.932 . S
H69 C99 0.929 . S
H70 C98 0.931 . S
H71 C101 0.929 . S
H72 C105 0.932 . S
H73 C102 0.931 . S
H74 C104 0.929 . S
H75 C107 0.929 . S
H76 C108 0.930 . S
H77 C110 0.929 . S
H78 C111 0.931 . S
H79 C113 0.930 . S
H80 C114 0.932 . S
H81 C116 0.931 . S
H82 C117 0.929 . S
H83 C119 0.929 . S
H84 C120 0.931 . S
H85 C122 0.929 . S
N86 C106 1.433 . S
N86 C112 1.435 . S
N86 C118 1.423 . S
H87 C123 0.932 . S
C88 N63 1.433 . S
C88 C89 1.363 . S
C88 C93 1.370 . S
C89 H62 0.929 . S
C89 C88 1.363 . S
C89 C90 1.385 . S
C90 H64 0.930 . S
C90 C89 1.385 . S
C90 C91 1.357 . S
C91 C90 1.357 . S
C91 C92 1.406 . S
C92 H66 0.929 . S
C92 C91 1.406 . S
C92 C93 1.391 . S
C93 H65 0.931 . S
C93 C88 1.370 . S
C93 C92 1.391 . S
C94 N63 1.435 . S
C94 C95 1.358 . S
C94 C99 1.371 . S
C95 H67 0.930 . S
C95 C94 1.358 . S
C95 C96 1.405 . S
C96 H68 0.932 . S
C96 C95 1.405 . S
C96 C97 1.383 . S
C97 C96 1.383 . S
C97 C98 1.393 . S
C98 H70 0.931 . S
C98 C97 1.393 . S
C98 C99 1.382 . S
C99 H69 0.929 . S
C99 C94 1.371 . S
C99 C98 1.382 . S
C100 N63 1.423 . S
C100 C101 1.362 . S
C100 C105 1.388 . S
C101 H71 0.929 . S
C101 C100 1.362 . S
C101 C102 1.376 . S
C102 H73 0.931 . S
C102 C101 1.376 . S
C102 C103 1.396 . S
C103 C102 1.396 . S
C103 C104 1.348 . S
C103 C121 1.472 . S
C104 H74 0.929 . S
C104 C103 1.348 . S
C104 C105 1.443 . S
C105 H72 0.932 . S
C105 C100 1.388 . S
C105 C104 1.443 . S
C106 N86 1.433 . S
C106 C107 1.363 . S
C106 C111 1.370 . S
C107 H75 0.929 . S
C107 C106 1.363 . S
C107 C108 1.385 . S
C108 H76 0.930 . S
C108 C107 1.385 . S
C108 C109 1.357 . S
C109 C108 1.357 . S
C109 C110 1.406 . S
C110 H77 0.929 . S
C110 C109 1.406 . S
C110 C111 1.391 . S
C111 H78 0.931 . S
C111 C106 1.370 . S
C111 C110 1.391 . S
C112 N86 1.435 . S
C112 C113 1.358 . S
C112 C117 1.371 . S
C113 H79 0.930 . S
C113 C112 1.358 . S
C113 C114 1.405 . S
C114 H80 0.932 . S
C114 C113 1.405 . S
C114 C115 1.383 . S
C115 C114 1.383 . S
C115 C116 1.393 . S
C116 H81 0.931 . S
C116 C115 1.393 . S
C116 C117 1.382 . S
C117 H82 0.929 . S
C117 C112 1.371 . S
C117 C116 1.382 . S
C118 N86 1.423 . S
C118 C119 1.362 . S
C118 C123 1.388 . S
C119 H83 0.929 . S
C119 C118 1.362 . S
C119 C120 1.376 . S
C120 H84 0.931 . S
C120 C119 1.376 . S
C120 C121 1.396 . S
C121 C103 1.472 . S
C121 C120 1.396 . S
C121 C122 1.348 . S
C122 H85 0.929 . S
C122 C121 1.348 . S
C122 C123 1.443 . S
C123 H87 0.932 . S
C123 C118 1.388 . S
C123 C122 1.443 . S
H124 C151 0.929 . S
N125 C150 1.423 1_545 S
N125 C156 1.435 . S
N125 C162 1.423 . S
H126 C152 0.930 . S
H127 C155 0.931 . S
H128 C154 0.929 . S
H129 C157 0.930 1_565 S
H130 C158 0.932 . S
H131 C161 0.929 . S
H132 C160 0.931 . S
H133 C163 0.929 . S
H134 C167 0.932 . S
H135 C164 0.931 . S
H136 C166 0.933 . S
H137 C169 0.929 . S
H138 C170 0.930 . S
H139 C172 0.929 . S
H140 C173 0.931 . S
H141 C175 0.930 1_565 S
H142 C176 0.932 . S
H143 C178 0.931 . S
H144 C179 0.929 . S
H145 C181 0.929 . S
H146 C182 0.931 . S
H147 C184 0.933 . S
N148 C168 1.424 1_545 S
N148 C174 1.435 . S
N148 C180 1.423 . S
H149 C185 0.931 . S
C150 N125 1.423 1_565 S
C150 C151 1.361 1_565 S
C150 C155 1.382 . S
C151 H124 0.929 . S
C151 C150 1.361 1_545 S
C151 C152 1.385 1_545 S
C152 H126 0.930 . S
C152 C151 1.385 1_565 S
C152 C153 1.357 . S
C153 C152 1.357 . S
C153 C154 1.406 . S
C154 H128 0.929 . S
C154 C153 1.406 . S
C154 C155 1.391 . S
C155 H127 0.931 . S
C155 C150 1.382 . S
C155 C154 1.391 . S
C156 N125 1.435 . S
C156 C157 1.358 . S
C156 C161 1.371 . S
C157 H129 0.930 1_545 S
C157 C156 1.358 . S
C157 C158 1.405 1_554 S
C158 H130 0.932 . S
C158 C157 1.405 1_556 S
C158 C159 1.383 . S
C159 C158 1.383 . S
C159 C160 1.393 . S
C160 H132 0.931 . S
C160 C159 1.393 . S
C160 C161 1.382 1_556 S
C161 H131 0.929 . S
C161 C156 1.371 . S
C161 C160 1.382 1_554 S
C162 N125 1.423 . S
C162 C163 1.362 . S
C162 C167 1.388 . S
C163 H133 0.929 . S
C163 C162 1.362 . S
C163 C164 1.376 . S
C164 H135 0.931 . S
C164 C163 1.376 . S
C164 C165 1.396 . S
C165 C164 1.396 . S
C165 C166 1.348 . S
C165 C183 1.472 . S
C166 H136 0.933 . S
C166 C165 1.348 . S
C166 C167 1.443 . S
C167 H134 0.932 . S
C167 C162 1.388 . S
C167 C166 1.443 . S
C168 N148 1.424 1_565 S
C168 C169 1.361 1_565 S
C168 C173 1.382 . S
C169 H137 0.929 . S
C169 C168 1.361 1_545 S
C169 C170 1.385 1_545 S
C170 H138 0.930 . S
C170 C169 1.385 1_565 S
C170 C171 1.357 . S
C171 C170 1.357 . S
C171 C172 1.406 . S
C172 H139 0.929 . S
C172 C171 1.406 . S
C172 C173 1.391 . S
C173 H140 0.931 . S
C173 C168 1.382 . S
C173 C172 1.391 . S
C174 N148 1.435 . S
C174 C175 1.358 . S
C174 C179 1.371 . S
C175 H141 0.930 1_545 S
C175 C174 1.358 . S
C175 C176 1.405 1_554 S
C176 H142 0.932 . S
C176 C175 1.405 1_556 S
C176 C177 1.383 . S
C177 C176 1.383 . S
C177 C178 1.393 . S
C178 H143 0.931 . S
C178 C177 1.393 . S
C178 C179 1.382 1_556 S
C179 H144 0.929 . S
C179 C174 1.371 . S
C179 C178 1.382 1_554 S
C180 N148 1.423 . S
C180 C181 1.362 . S
C180 C185 1.388 . S
C181 H145 0.929 . S
C181 C180 1.362 . S
C181 C182 1.376 . S
C182 H146 0.931 . S
C182 C181 1.376 . S
C182 C183 1.396 . S
C183 C165 1.472 . S
C183 C182 1.396 . S
C183 C184 1.348 . S
C184 H147 0.933 . S
C184 C183 1.348 . S
C184 C185 1.443 . S
C185 H149 0.931 . S
C185 C180 1.388 . S
C185 C184 1.443 . S
H186 C213 0.929 . S
N187 C212 1.433 . S
N187 C218 1.435 . S
N187 C224 1.423 . S
H188 C214 0.930 . S
H189 C217 0.931 . S
H190 C216 0.929 . S
H191 C219 0.930 . S
H192 C220 0.932 . S
H193 C223 0.929 . S
H194 C222 0.931 . S
H195 C225 0.929 . S
H196 C229 0.932 . S
H197 C226 0.931 . S
H198 C228 0.929 . S
H199 C231 0.929 . S
H200 C232 0.930 . S
H201 C234 0.929 . S
H202 C235 0.931 . S
H203 C237 0.930 . S
H204 C238 0.932 . S
H205 C240 0.931 . S
H206 C241 0.929 . S
H207 C243 0.929 . S
H208 C244 0.931 . S
H209 C246 0.929 . S
N210 C230 1.433 . S
N210 C236 1.435 . S
N210 C242 1.423 . S
H211 C247 0.932 . S
C212 N187 1.433 . S
C212 C213 1.363 . S
C212 C217 1.370 . S
C213 H186 0.929 . S
C213 C212 1.363 . S
C213 C214 1.385 . S
C214 H188 0.930 . S
C214 C213 1.385 . S
C214 C215 1.357 . S
C215 C214 1.357 . S
C215 C216 1.406 . S
C216 H190 0.929 . S
C216 C215 1.406 . S
C216 C217 1.391 . S
C217 H189 0.931 . S
C217 C212 1.370 . S
C217 C216 1.391 . S
C218 N187 1.435 . S
C218 C219 1.358 . S
C218 C223 1.371 . S
C219 H191 0.930 . S
C219 C218 1.358 . S
C219 C220 1.405 . S
C220 H192 0.932 . S
C220 C219 1.405 . S
C220 C221 1.383 . S
C221 C220 1.383 . S
C221 C222 1.393 . S
C222 H194 0.931 . S
C222 C221 1.393 . S
C222 C223 1.382 . S
C223 H193 0.929 . S
C223 C218 1.371 . S
C223 C222 1.382 . S
C224 N187 1.423 . S
C224 C225 1.362 . S
C224 C229 1.388 . S
C225 H195 0.929 . S
C225 C224 1.362 . S
C225 C226 1.376 . S
C226 H197 0.931 . S
C226 C225 1.376 . S
C226 C227 1.396 . S
C227 C226 1.396 . S
C227 C228 1.348 . S
C227 C245 1.472 . S
C228 H198 0.929 . S
C228 C227 1.348 . S
C228 C229 1.443 . S
C229 H196 0.932 . S
C229 C224 1.388 . S
C229 C228 1.443 . S
C230 N210 1.433 . S
C230 C231 1.363 . S
C230 C235 1.370 . S
C231 H199 0.929 . S
C231 C230 1.363 . S
C231 C232 1.385 . S
C232 H200 0.930 . S
C232 C231 1.385 . S
C232 C233 1.357 . S
C233 C232 1.357 . S
C233 C234 1.406 . S
C234 H201 0.929 . S
C234 C233 1.406 . S
C234 C235 1.391 . S
C235 H202 0.931 . S
C235 C230 1.370 . S
C235 C234 1.391 . S
C236 N210 1.435 . S
C236 C237 1.358 . S
C236 C241 1.371 . S
C237 H203 0.930 . S
C237 C236 1.358 . S
C237 C238 1.405 . S
C238 H204 0.932 . S
C238 C237 1.405 . S
C238 C239 1.383 . S
C239 C238 1.383 . S
C239 C240 1.393 . S
C240 H205 0.931 . S
C240 C239 1.393 . S
C240 C241 1.382 . S
C241 H206 0.929 . S
C241 C236 1.371 . S
C241 C240 1.382 . S
C242 N210 1.423 . S
C242 C243 1.362 . S
C242 C247 1.388 . S
C243 H207 0.929 . S
C243 C242 1.362 . S
C243 C244 1.376 . S
C244 H208 0.931 . S
C244 C243 1.376 . S
C244 C245 1.396 . S
C245 C227 1.472 . S
C245 C244 1.396 . S
C245 C246 1.348 . S
C246 H209 0.929 . S
C246 C245 1.348 . S
C246 C247 1.443 . S
C247 H211 0.932 . S
C247 C242 1.388 . S
C247 C246 1.443 . S
H248 C275 0.929 . S
N249 C274 1.433 . S
N249 C280 1.435 . S
N249 C286 1.423 . S
H250 C276 0.930 1_565 S
H251 C279 0.931 . S
H252 C278 0.929 . S
H253 C281 0.930 . S
H254 C282 0.924 1_565 S
H255 C285 0.929 . S
H256 C284 0.931 . S
H257 C287 0.929 . S
H258 C291 0.932 . S
H259 C288 0.931 . S
H260 C290 0.929 . S
H261 C293 0.929 . S
H262 C294 0.930 . S
H263 C296 0.929 . S
H264 C297 0.931 . S
H265 C299 0.930 . S
H266 C300 0.932 . S
H267 C302 0.931 . S
H268 C303 0.929 . S
H269 C305 0.929 . S
H270 C306 0.931 . S
H271 C308 0.929 . S
N272 C292 1.433 . S
N272 C298 1.435 . S
N272 C304 1.423 . S
H273 C309 0.932 . S
C274 N249 1.433 . S
C274 C275 1.363 . S
C274 C279 1.370 . S
C275 H248 0.929 . S
C275 C274 1.363 . S
C275 C276 1.385 . S
C276 H250 0.930 1_545 S
C276 C275 1.385 . S
C276 C277 1.357 . S
C277 C276 1.357 . S
C277 C278 1.406 . S
C278 H252 0.929 . S
C278 C277 1.406 . S
C278 C279 1.391 . S
C279 H251 0.931 . S
C279 C274 1.370 . S
C279 C278 1.391 . S
C280 N249 1.435 . S
C280 C281 1.358 . S
C280 C285 1.371 . S
C281 H253 0.930 . S
C281 C280 1.358 . S
C281 C282 1.412 . S
C282 H254 0.924 1_545 S
C282 C281 1.412 . S
C282 C283 1.384 . S
C283 C282 1.384 . S
C283 C284 1.393 . S
C284 H256 0.931 . S
C284 C283 1.393 . S
C284 C285 1.382 . S
C285 H255 0.929 . S
C285 C280 1.371 . S
C285 C284 1.382 . S
C286 N249 1.423 . S
C286 C287 1.362 . S
C286 C291 1.388 . S
C287 H257 0.929 . S
C287 C286 1.362 . S
C287 C288 1.376 . S
C288 H259 0.931 . S
C288 C287 1.376 . S
C288 C289 1.396 . S
C289 C288 1.396 . S
C289 C290 1.348 . S
C289 C307 1.472 . S
C290 H260 0.929 . S
C290 C289 1.348 . S
C290 C291 1.443 . S
C291 H258 0.932 . S
C291 C286 1.388 . S
C291 C290 1.443 . S
C292 N272 1.433 . S
C292 C293 1.363 . S
C292 C297 1.370 . S
C293 H261 0.929 . S
C293 C292 1.363 . S
C293 C294 1.385 . S
C294 H262 0.930 . S
C294 C293 1.385 . S
C294 C295 1.357 . S
C295 C294 1.357 . S
C295 C296 1.406 . S
C296 H263 0.929 . S
C296 C295 1.406 . S
C296 C297 1.391 . S
C297 H264 0.931 . S
C297 C292 1.370 . S
C297 C296 1.391 . S
C298 N272 1.435 . S
C298 C299 1.358 . S
C298 C303 1.371 . S
C299 H265 0.930 . S
C299 C298 1.358 . S
C299 C300 1.405 . S
C300 H266 0.932 . S
C300 C299 1.405 . S
C300 C301 1.383 . S
C301 C300 1.383 . S
C301 C302 1.393 . S
C302 H267 0.931 . S
C302 C301 1.393 . S
C302 C303 1.382 . S
C303 H268 0.929 . S
C303 C298 1.371 . S
C303 C302 1.382 . S
C304 N272 1.423 . S
C304 C305 1.362 . S
C304 C309 1.388 . S
C305 H269 0.929 . S
C305 C304 1.362 . S
C305 C306 1.376 . S
C306 H270 0.931 . S
C306 C305 1.376 . S
C306 C307 1.396 . S
C307 C289 1.472 . S
C307 C306 1.396 . S
C307 C308 1.348 . S
C308 H271 0.929 . S
C308 C307 1.348 . S
C308 C309 1.443 . S
C309 H273 0.932 . S
C309 C304 1.388 . S
C309 C308 1.443 . S
H310 C337 0.929 . S
N311 C336 1.433 . S
N311 C342 1.435 . S
N311 C348 1.423 . S
H312 C338 0.930 1_545 S
H313 C341 0.931 . S
H314 C340 0.929 . S
H315 C343 0.930 . S
H316 C344 0.932 . S
H317 C347 0.929 . S
H318 C346 0.931 . S
H319 C349 0.929 . S
H320 C353 0.932 . S
H321 C350 0.931 . S
H322 C352 0.929 . S
H323 C355 0.929 . S
H324 C356 0.930 . S
H325 C358 0.929 . S
H326 C359 0.931 . S
H327 C361 0.930 . S
H328 C362 0.932 . S
H329 C364 0.931 . S
H330 C365 0.929 . S
H331 C367 0.929 . S
H332 C368 0.931 . S
H333 C370 0.929 . S
N334 C354 1.433 . S
N334 C360 1.435 . S
N334 C366 1.423 . S
H335 C371 0.932 . S
C336 N311 1.433 . S
C336 C337 1.363 . S
C336 C341 1.370 . S
C337 H310 0.929 . S
C337 C336 1.363 . S
C337 C338 1.385 . S
C338 H312 0.930 1_565 S
C338 C337 1.385 . S
C338 C339 1.357 . S
C339 C338 1.357 . S
C339 C340 1.406 . S
C340 H314 0.929 . S
C340 C339 1.406 . S
C340 C341 1.391 . S
C341 H313 0.931 . S
C341 C336 1.370 . S
C341 C340 1.391 . S
C342 N311 1.435 . S
C342 C343 1.358 . S
C342 C347 1.371 . S
C343 H315 0.930 . S
C343 C342 1.358 . S
C343 C344 1.405 1_565 S
C344 H316 0.932 . S
C344 C343 1.405 1_545 S
C344 C345 1.383 . S
C345 C344 1.383 . S
C345 C346 1.393 1_545 S
C346 H318 0.931 . S
C346 C345 1.393 1_565 S
C346 C347 1.382 . S
C347 H317 0.929 . S
C347 C342 1.371 . S
C347 C346 1.382 . S
C348 N311 1.423 . S
C348 C349 1.362 . S
C348 C353 1.388 . S
C349 H319 0.929 . S
C349 C348 1.362 . S
C349 C350 1.376 . S
C350 H321 0.931 . S
C350 C349 1.376 . S
C350 C351 1.396 . S
C351 C350 1.396 . S
C351 C352 1.348 . S
C351 C369 1.472 . S
C352 H322 0.929 . S
C352 C351 1.348 . S
C352 C353 1.443 . S
C353 H320 0.932 . S
C353 C348 1.388 . S
C353 C352 1.443 . S
C354 N334 1.433 . S
C354 C355 1.363 . S
C354 C359 1.370 . S
C355 H323 0.929 . S
C355 C354 1.363 . S
C355 C356 1.385 . S
C356 H324 0.930 . S
C356 C355 1.385 . S
C356 C357 1.357 . S
C357 C356 1.357 . S
C357 C358 1.406 . S
C358 H325 0.929 . S
C358 C357 1.406 . S
C358 C359 1.391 . S
C359 H326 0.931 . S
C359 C354 1.370 . S
C359 C358 1.391 . S
C360 N334 1.435 . S
C360 C361 1.358 . S
C360 C365 1.371 . S
C361 H327 0.930 . S
C361 C360 1.358 . S
C361 C362 1.405 . S
C362 H328 0.932 . S
C362 C361 1.405 . S
C362 C363 1.383 . S
C363 C362 1.383 . S
C363 C364 1.393 . S
C364 H329 0.931 . S
C364 C363 1.393 . S
C364 C365 1.382 . S
C365 H330 0.929 . S
C365 C360 1.371 . S
C365 C364 1.382 . S
C366 N334 1.423 . S
C366 C367 1.362 . S
C366 C371 1.388 . S
C367 H331 0.929 . S
C367 C366 1.362 . S
C367 C368 1.376 . S
C368 H332 0.931 . S
C368 C367 1.376 . S
C368 C369 1.396 . S
C369 C351 1.472 . S
C369 C368 1.396 . S
C369 C370 1.348 . S
C370 H333 0.929 . S
C370 C369 1.348 . S
C370 C371 1.443 . S
C371 H335 0.932 . S
C371 C366 1.388 . S
C371 C370 1.443 . S
H372 C399 0.929 . S
N373 C398 1.433 . S
N373 C404 1.435 . S
N373 C410 1.423 . S
H374 C400 0.930 . S
H375 C403 0.931 1_554 S
H376 C402 0.929 . S
H377 C405 0.930 . S
H378 C406 0.932 . S
H379 C409 0.929 . S
H380 C408 0.931 . S
H381 C411 0.890 1_556 S
H382 C415 0.932 . S
H383 C412 0.868 1_556 S
H384 C414 0.929 . S
H385 C417 0.929 . S
H386 C418 0.930 . S
H387 C420 0.929 . S
H388 C421 0.931 1_554 S
H389 C423 0.930 . S
H390 C424 0.932 . S
H391 C426 0.931 . S
H392 C427 0.929 . S
H393 C429 0.891 1_556 S
H394 C430 0.869 1_556 S
H395 C432 0.929 . S
N396 C416 1.433 . S
N396 C422 1.435 . S
N396 C428 1.423 . S
H397 C433 0.932 . S
C398 N373 1.433 . S
C398 C399 1.363 1_554 S
C398 C403 1.370 1_554 S
C399 H372 0.929 . S
C399 C398 1.363 1_556 S
C399 C400 1.385 . S
C400 H374 0.930 . S
C400 C399 1.385 . S
C400 C401 1.357 . S
C401 C400 1.357 . S
C401 C402 1.406 . S
C402 H376 0.929 . S
C402 C401 1.406 . S
C402 C403 1.391 . S
C403 H375 0.931 1_556 S
C403 C398 1.370 1_556 S
C403 C402 1.391 . S
C404 N373 1.435 . S
C404 C405 1.358 . S
C404 C409 1.371 . S
C405 H377 0.930 . S
C405 C404 1.358 . S
C405 C406 1.405 . S
C406 H378 0.932 . S
C406 C405 1.405 . S
C406 C407 1.383 . S
C407 C406 1.383 . S
C407 C408 1.393 . S
C408 H380 0.931 . S
C408 C407 1.393 . S
C408 C409 1.382 . S
C409 H379 0.929 . S
C409 C404 1.371 . S
C409 C408 1.382 . S
C410 N373 1.423 . S
C410 C411 1.400 . S
C410 C415 1.388 . S
C411 H381 0.890 1_554 S
C411 C410 1.400 . S
C411 C412 1.376 . S
C412 H383 0.868 1_554 S
C412 C411 1.376 . S
C412 C413 1.459 . S
C413 C412 1.459 . S
C413 C414 1.348 . S
C413 C431 1.472 . S
C414 H384 0.929 . S
C414 C413 1.348 . S
C414 C415 1.443 . S
C415 H382 0.932 . S
C415 C410 1.388 . S
C415 C414 1.443 . S
C416 N396 1.433 . S
C416 C417 1.363 1_554 S
C416 C421 1.370 1_554 S
C417 H385 0.929 . S
C417 C416 1.363 1_556 S
C417 C418 1.385 . S
C418 H386 0.930 . S
C418 C417 1.385 . S
C418 C419 1.357 . S
C419 C418 1.357 . S
C419 C420 1.406 . S
C420 H387 0.929 . S
C420 C419 1.406 . S
C420 C421 1.391 . S
C421 H388 0.931 1_556 S
C421 C416 1.370 1_556 S
C421 C420 1.391 . S
C422 N396 1.435 . S
C422 C423 1.358 . S
C422 C427 1.371 . S
C423 H389 0.930 . S
C423 C422 1.358 . S
C423 C424 1.405 . S
C424 H390 0.932 . S
C424 C423 1.405 . S
C424 C425 1.383 . S
C425 C424 1.383 . S
C425 C426 1.393 . S
C426 H391 0.931 . S
C426 C425 1.393 . S
C426 C427 1.382 . S
C427 H392 0.929 . S
C427 C422 1.371 . S
C427 C426 1.382 . S
C428 N396 1.423 . S
C428 C429 1.399 . S
C428 C433 1.388 . S
C429 H393 0.891 1_554 S
C429 C428 1.399 . S
C429 C430 1.376 . S
C430 H394 0.869 1_554 S
C430 C429 1.376 . S
C430 C431 1.458 . S
C431 C413 1.472 . S
C431 C430 1.458 . S
C431 C432 1.348 . S
C432 H395 0.929 . S
C432 C431 1.348 . S
C432 C433 1.443 . S
C433 H397 0.932 . S
C433 C428 1.388 . S
C433 C432 1.443 . S
H434 C461 0.929 . S
N435 C460 1.433 . S
N435 C466 1.435 . S
N435 C472 1.423 . S
H436 C462 0.930 . S
H437 C465 0.931 . S
H438 C464 0.929 . S
H439 C467 0.930 . S
H440 C468 0.932 . S
H441 C471 0.929 . S
H442 C470 0.931 . S
H443 C473 0.929 . S
H444 C477 0.932 . S
H445 C474 0.931 . S
H446 C476 0.929 . S
H447 C479 0.929 . S
H448 C480 0.930 . S
H449 C482 0.929 1_455 S
H450 C483 0.931 . S
H451 C485 0.930 . S
H452 C486 0.932 . S
H453 C488 0.931 . S
H454 C489 0.929 1_455 S
H455 C491 0.929 . S
H456 C492 0.931 . S
H457 C494 0.929 . S
N458 C478 1.433 1_455 S
N458 C484 1.435 1_455 S
N458 C490 1.423 . S
H459 C495 0.932 . S
C460 N435 1.433 . S
C460 C461 1.363 . S
C460 C465 1.370 . S
C461 H434 0.929 . S
C461 C460 1.363 . S
C461 C462 1.385 . S
C462 H436 0.930 . S
C462 C461 1.385 . S
C462 C463 1.357 . S
C463 C462 1.357 . S
C463 C464 1.406 . S
C464 H438 0.929 . S
C464 C463 1.406 . S
C464 C465 1.391 . S
C465 H437 0.931 . S
C465 C460 1.370 . S
C465 C464 1.391 . S
C466 N435 1.435 . S
C466 C467 1.358 . S
C466 C471 1.371 . S
C467 H439 0.930 . S
C467 C466 1.358 . S
C467 C468 1.405 . S
C468 H440 0.932 . S
C468 C467 1.405 . S
C468 C469 1.383 . S
C469 C468 1.383 . S
C469 C470 1.393 . S
C470 H442 0.931 . S
C470 C469 1.393 . S
C470 C471 1.382 . S
C471 H441 0.929 . S
C471 C466 1.371 . S
C471 C470 1.382 . S
C472 N435 1.423 . S
C472 C473 1.362 . S
C472 C477 1.388 . S
C473 H443 0.929 . S
C473 C472 1.362 . S
C473 C474 1.376 . S
C474 H445 0.931 . S
C474 C473 1.376 . S
C474 C475 1.396 . S
C475 C474 1.396 . S
C475 C476 1.348 . S
C475 C493 1.472 . S
C476 H446 0.929 . S
C476 C475 1.348 . S
C476 C477 1.443 . S
C477 H444 0.932 . S
C477 C472 1.388 . S
C477 C476 1.443 . S
C478 N458 1.433 1_655 S
C478 C479 1.363 . S
C478 C483 1.370 1_655 S
C479 H447 0.929 . S
C479 C478 1.363 . S
C479 C480 1.385 . S
C480 H448 0.930 . S
C480 C479 1.385 . S
C480 C481 1.357 . S
C481 C480 1.357 . S
C481 C482 1.406 . S
C482 H449 0.929 1_655 S
C482 C481 1.406 . S
C482 C483 1.391 1_655 S
C483 H450 0.931 . S
C483 C478 1.370 1_455 S
C483 C482 1.391 1_455 S
C484 N458 1.435 1_655 S
C484 C485 1.358 . S
C484 C489 1.371 . S
C485 H451 0.930 . S
C485 C484 1.358 . S
C485 C486 1.405 . S
C486 H452 0.932 . S
C486 C485 1.405 . S
C486 C487 1.383 . S
C487 C486 1.383 . S
C487 C488 1.393 . S
C488 H453 0.931 . S
C488 C487 1.393 . S
C488 C489 1.382 . S
C489 H454 0.929 1_655 S
C489 C484 1.371 . S
C489 C488 1.382 . S
C490 N458 1.423 . S
C490 C491 1.362 . S
C490 C495 1.388 . S
C491 H455 0.929 . S
C491 C490 1.362 . S
C491 C492 1.376 . S
C492 H456 0.931 . S
C492 C491 1.376 . S
C492 C493 1.396 . S
C493 C475 1.472 . S
C493 C492 1.396 . S
C493 C494 1.348 . S
C494 H457 0.929 . S
C494 C493 1.348 . S
C494 C495 1.443 . S
C495 H459 0.932 . S
C495 C490 1.388 . S
C495 C494 1.443 . S
C496 O523 1.312 . S
C496 O524 1.208 . S
C497 O518 1.331 1_655 S
C497 O521 1.244 . S
C498 O520 1.239 1_655 S
C498 O522 1.287 . S
Mg499 O501 1.936 . S
Mg499 O508 2.081 . S
Mg499 O510 2.023 . S
Mg499 O514 2.031 . S
Mg499 O523 2.291 . S
Mg500 O501 1.963 . S
Mg500 O511 1.942 . S
Mg500 O512 1.955 . S
Mg500 O519 1.986 . S
O501 Mg499 1.936 . S
O501 Mg500 1.963 . S
O501 Mg502 1.915 . S
Mg502 O501 1.915 . S
Mg502 O503 1.915 . S
Mg502 O507 2.013 . S
Mg502 O513 2.114 . S
Mg502 O517 2.013 . S
Mg502 O523 2.114 . S
O503 Mg502 1.915 . S
O503 Mg504 1.936 . S
O503 Mg505 1.963 1_455 S
Mg504 O503 1.936 . S
Mg504 O513 2.291 . S
Mg504 O518 2.081 . S
Mg504 O520 2.023 . S
Mg504 O524 2.031 . S
Mg505 O503 1.963 1_655 S
Mg505 O509 1.989 . S
Mg505 O521 1.942 . S
Mg505 O522 1.955 . S
C506 O517 1.191 . S
C506 O519 1.307 . S
O507 Mg502 2.013 . S
O507 C526 1.191 . S
O508 Mg499 2.081 . S
O508 C516 1.331 . S
O509 Mg505 1.989 . S
O509 C526 1.292 1_655 S
O510 Mg499 2.023 . S
O510 C525 1.264 . S
O511 Mg500 1.942 . S
O511 C516 1.244 . S
O512 Mg500 1.955 . S
O512 C525 1.273 . S
O513 Mg502 2.114 . S
O513 Mg504 2.291 . S
O513 C515 1.312 . S
O514 Mg499 2.031 . S
O514 C515 1.208 . S
C515 O513 1.312 . S
C515 O514 1.208 . S
C516 O508 1.331 . S
C516 O511 1.244 . S
O517 Mg502 2.013 . S
O517 C506 1.191 . S
O518 C497 1.331 1_455 S
O518 Mg504 2.081 . S
O519 Mg500 1.986 . S
O519 C506 1.307 . S
O520 C498 1.239 1_455 S
O520 Mg504 2.023 . S
O521 C497 1.244 . S
O521 Mg505 1.942 . S
O522 C498 1.287 . S
O522 Mg505 1.955 . S
O523 C496 1.312 . S
O523 Mg499 2.291 . S
O523 Mg502 2.114 . S
O524 C496 1.208 . S
O524 Mg504 2.031 . S
C525 O510 1.264 . S
C525 O512 1.273 . S
C526 O507 1.191 . S
C526 O509 1.292 1_455 S
C527 O554 1.312 . S
C527 O555 1.208 . S
C528 O549 1.331 . S
C528 O552 1.244 . S
C529 O551 1.264 . S
C529 O553 1.273 . S
Mg530 O532 1.936 . S
Mg530 O539 2.081 . S
Mg530 O541 2.023 . S
Mg530 O545 2.031 . S
Mg530 O554 2.291 . S
Mg531 O532 1.963 . S
Mg531 O542 1.942 . S
Mg531 O543 1.955 . S
Mg531 O550 1.986 . S
O532 Mg530 1.936 . S
O532 Mg531 1.963 . S
O532 Mg533 1.915 . S
Mg533 O532 1.915 . S
Mg533 O534 1.915 . S
Mg533 O538 2.013 . S
Mg533 O544 2.114 . S
Mg533 O548 2.013 . S
Mg533 O554 2.114 . S
O534 Mg533 1.915 . S
O534 Mg535 1.936 . S
O534 Mg536 1.963 . S
Mg535 O534 1.936 . S
Mg535 O544 2.291 . S
Mg535 O549 2.081 . S
Mg535 O551 2.023 . S
Mg535 O555 2.031 . S
Mg536 O534 1.963 . S
Mg536 O540 1.986 . S
Mg536 O552 1.942 . S
Mg536 O553 1.955 . S
C537 O548 1.191 . S
C537 O550 1.307 . S
O538 Mg533 2.013 . S
O538 C557 1.191 . S
O539 Mg530 2.081 . S
O539 C547 1.331 . S
O540 Mg536 1.986 . S
O540 C557 1.307 . S
O541 Mg530 2.023 . S
O541 C556 1.264 . S
O542 Mg531 1.942 . S
O542 C547 1.244 . S
O543 Mg531 1.955 . S
O543 C556 1.273 . S
O544 Mg533 2.114 . S
O544 Mg535 2.291 . S
O544 C546 1.312 . S
O545 Mg530 2.031 . S
O545 C546 1.208 . S
C546 O544 1.312 . S
C546 O545 1.208 . S
C547 O539 1.331 . S
C547 O542 1.244 . S
O548 Mg533 2.013 . S
O548 C537 1.191 . S
O549 C528 1.331 . S
O549 Mg535 2.081 . S
O550 Mg531 1.986 . S
O550 C537 1.307 . S
O551 C529 1.264 . S
O551 Mg535 2.023 . S
O552 C528 1.244 . S
O552 Mg536 1.942 . S
O553 C529 1.273 . S
O553 Mg536 1.955 . S
O554 C527 1.312 . S
O554 Mg530 2.291 . S
O554 Mg533 2.114 . S
O555 C527 1.208 . S
O555 Mg535 2.031 . S
C556 O541 1.264 . S
C556 O543 1.273 . S
C557 O538 1.191 . S
C557 O540 1.307 . S
C558 O585 1.312 . S
C558 O586 1.208 . S
C559 O580 1.331 . S
C559 O583 1.244 . S
C560 O582 1.264 . S
C560 O584 1.273 . S
Mg561 O563 1.936 . S
Mg561 O570 2.081 . S
Mg561 O572 2.023 . S
Mg561 O576 2.031 . S
Mg561 O585 2.291 . S
Mg562 O563 1.963 . S
Mg562 O573 1.942 . S
Mg562 O574 1.955 . S
Mg562 O581 1.986 . S
O563 Mg561 1.936 . S
O563 Mg562 1.963 . S
O563 Mg564 1.915 . S
Mg564 O563 1.915 . S
Mg564 O565 1.915 . S
Mg564 O569 2.013 . S
Mg564 O575 2.114 . S
Mg564 O579 2.013 . S
Mg564 O585 2.114 . S
O565 Mg564 1.915 . S
O565 Mg566 1.936 . S
O565 Mg567 1.963 . S
Mg566 O565 1.936 . S
Mg566 O575 2.291 . S
Mg566 O580 2.081 . S
Mg566 O582 2.023 . S
Mg566 O586 2.031 . S
Mg567 O565 1.963 . S
Mg567 O571 1.986 . S
Mg567 O583 1.942 . S
Mg567 O584 1.955 . S
C568 O579 1.191 . S
C568 O581 1.307 . S
O569 Mg564 2.013 . S
O569 C588 1.191 . S
O570 Mg561 2.081 . S
O570 C578 1.331 . S
O571 Mg567 1.986 . S
O571 C588 1.307 . S
O572 Mg561 2.023 . S
O572 C587 1.264 . S
O573 Mg562 1.942 . S
O573 C578 1.244 . S
O574 Mg562 1.955 . S
O574 C587 1.273 . S
O575 Mg564 2.114 . S
O575 Mg566 2.291 . S
O575 C577 1.312 . S
O576 Mg561 2.031 . S
O576 C577 1.208 . S
C577 O575 1.312 . S
C577 O576 1.208 . S
C578 O570 1.331 . S
C578 O573 1.244 . S
O579 Mg564 2.013 . S
O579 C568 1.191 . S
O580 C559 1.331 . S
O580 Mg566 2.081 . S
O581 Mg562 1.986 . S
O581 C568 1.307 . S
O582 C560 1.264 . S
O582 Mg566 2.023 . S
O583 C559 1.244 . S
O583 Mg567 1.942 . S
O584 C560 1.273 . S
O584 Mg567 1.955 . S
O585 C558 1.312 . S
O585 Mg561 2.291 . S
O585 Mg564 2.114 . S
O586 C558 1.208 . S
O586 Mg566 2.031 . S
C587 O572 1.264 . S
C587 O574 1.273 . S
C588 O569 1.191 . S
C588 O571 1.307 . S
C589 O616 1.312 . S
C589 O617 1.208 . S
C590 O611 1.331 . S
C590 O614 1.244 . S
C591 O613 1.264 . S
C591 O615 1.273 . S
Mg592 O594 1.936 . S
Mg592 O601 2.081 . S
Mg592 O603 2.023 . S
Mg592 O607 2.031 . S
Mg592 O616 2.291 . S
Mg593 O594 1.963 1_655 S
Mg593 O604 1.942 . S
Mg593 O605 1.955 . S
Mg593 O612 1.990 . S
O594 Mg592 1.936 . S
O594 Mg593 1.963 1_455 S
O594 Mg595 1.915 . S
Mg595 O594 1.915 . S
Mg595 O596 1.915 . S
Mg595 O600 2.013 . S
Mg595 O606 2.114 . S
Mg595 O610 2.013 . S
Mg595 O616 2.114 . S
O596 Mg595 1.915 . S
O596 Mg597 1.936 . S
O596 Mg598 1.963 . S
Mg597 O596 1.936 . S
Mg597 O606 2.291 . S
Mg597 O611 2.081 . S
Mg597 O613 2.023 . S
Mg597 O617 2.031 . S
Mg598 O596 1.963 . S
Mg598 O602 1.986 . S
Mg598 O614 1.942 . S
Mg598 O615 1.955 . S
C599 O610 1.191 . S
C599 O612 1.288 1_455 S
O600 Mg595 2.013 . S
O600 C619 1.191 . S
O601 Mg592 2.081 . S
O601 C609 1.331 1_455 S
O602 Mg598 1.986 . S
O602 C619 1.307 . S
O603 Mg592 2.023 . S
O603 C618 1.264 1_455 S
O604 Mg593 1.942 . S
O604 C609 1.244 . S
O605 Mg593 1.955 . S
O605 C618 1.273 . S
O606 Mg595 2.114 . S
O606 Mg597 2.291 . S
O606 C608 1.312 . S
O607 Mg592 2.031 . S
O607 C608 1.208 . S
C608 O606 1.312 . S
C608 O607 1.208 . S
C609 O601 1.331 1_655 S
C609 O604 1.244 . S
O610 Mg595 2.013 . S
O610 C599 1.191 . S
O611 C590 1.331 . S
O611 Mg597 2.081 . S
O612 Mg593 1.990 . S
O612 C599 1.288 1_655 S
O613 C591 1.264 . S
O613 Mg597 2.023 . S
O614 C590 1.244 . S
O614 Mg598 1.942 . S
O615 C591 1.273 . S
O615 Mg598 1.955 . S
O616 C589 1.312 . S
O616 Mg592 2.291 . S
O616 Mg595 2.114 . S
O617 C589 1.208 . S
O617 Mg597 2.031 . S
C618 O603 1.264 1_655 S
C618 O605 1.273 . S
C619 O600 1.191 . S
C619 O602 1.307 . S
C620 C621 1.349 . S
C620 C622 1.327 . S
C620 H645 0.950 . S
C621 C620 1.349 . S
C621 C637 1.349 . S
C622 C620 1.327 . S
C622 C641 1.429 . S
C622 H646 0.950 . S
C623 C640 1.574 . S
C623 C642 1.368 . S
C623 H647 0.949 . S
H624 C628 0.949 . S
C625 C626 1.349 . S
C625 C627 1.327 . S
C625 H648 0.950 . S
C626 C625 1.349 . S
C626 C638 1.349 . S
C627 C625 1.327 . S
C627 C643 1.429 . S
C627 H649 0.950 . S
C628 H624 0.949 . S
C628 C636 1.574 . S
C628 C644 1.368 . S
H629 C637 0.950 . S
H630 C635 0.950 . S
H631 C636 0.949 . S
H632 C638 0.950 . S
H633 C639 0.950 . S
H634 C640 0.949 . S
C635 H630 0.950 . S
C635 C637 1.327 . S
C635 C641 1.429 . S
C636 C628 1.574 . S
C636 H631 0.949 . S
C636 C642 1.368 . S
C637 C621 1.349 . S
C637 H629 0.950 . S
C637 C635 1.327 . S
C638 C626 1.349 . S
C638 H632 0.950 . S
C638 C639 1.327 . S
C639 H633 0.950 . S
C639 C638 1.327 . S
C639 C643 1.429 . S
C640 C623 1.574 . S
C640 H634 0.949 . S
C640 C644 1.368 . S
C641 C622 1.429 . S
C641 C635 1.429 . S
C641 C642 1.523 . S
C642 C623 1.368 . S
C642 C636 1.368 . S
C642 C641 1.523 . S
C643 C627 1.429 . S
C643 C639 1.429 . S
C643 C644 1.523 . S
C644 C628 1.368 . S
C644 C640 1.368 . S
C644 C643 1.523 . S
H645 C620 0.950 . S
H646 C622 0.950 . S
H647 C623 0.949 . S
H648 C625 0.950 . S
H649 C627 0.950 . S
C650 C651 1.349 . S
C650 C652 1.327 . S
C650 H675 0.950 . S
C651 C650 1.349 . S
C651 C667 1.349 . S
C652 C650 1.327 . S
C652 C671 1.429 . S
C652 H676 0.950 . S
C653 C670 1.574 . S
C653 C672 1.368 . S
C653 H677 0.949 . S
H654 C658 0.949 . S
C655 C656 1.349 . S
C655 C657 1.327 . S
C655 H678 0.950 . S
C656 C655 1.349 . S
C656 C668 1.349 . S
C657 C655 1.327 . S
C657 C673 1.429 . S
C657 H679 0.950 . S
C658 H654 0.949 . S
C658 C666 1.574 . S
C658 C674 1.368 . S
H659 C667 0.950 . S
H660 C665 0.950 . S
H661 C666 0.949 1_565 S
H662 C668 0.950 . S
H663 C669 0.950 . S
H664 C670 0.949 . S
C665 H660 0.950 . S
C665 C667 1.327 . S
C665 C671 1.429 . S
C666 C658 1.574 . S
C666 H661 0.949 1_545 S
C666 C672 1.368 . S
C667 C651 1.349 . S
C667 H659 0.950 . S
C667 C665 1.327 . S
C668 C656 1.349 . S
C668 H662 0.950 . S
C668 C669 1.327 . S
C669 H663 0.950 . S
C669 C668 1.327 . S
C669 C673 1.429 . S
C670 C653 1.574 . S
C670 H664 0.949 . S
C670 C674 1.368 . S
C671 C652 1.429 . S
C671 C665 1.429 . S
C671 C672 1.523 1_565 S
C672 C653 1.368 . S
C672 C666 1.368 . S
C672 C671 1.523 1_545 S
C673 C657 1.429 . S
C673 C669 1.429 . S
C673 C674 1.523 . S
C674 C658 1.368 . S
C674 C670 1.368 . S
C674 C673 1.523 . S
H675 C650 0.950 . S
H676 C652 0.950 . S
H677 C653 0.949 . S
H678 C655 0.950 . S
H679 C657 0.950 . S
C680 C681 1.349 . S
C680 C682 1.327 . S
C680 H705 0.950 . S
C681 C680 1.349 . S
C681 C697 1.349 . S
C682 C680 1.327 . S
C682 C701 1.429 . S
C682 H706 0.950 . S
C683 C700 1.574 . S
C683 C702 1.368 . S
C683 H707 0.949 . S
H684 C688 0.949 . S
C685 C686 1.349 . S
C685 C687 1.327 . S
C685 H708 0.950 . S
C686 C685 1.349 . S
C686 C698 1.349 . S
C687 C685 1.327 . S
C687 C703 1.429 . S
C687 H709 0.950 . S
C688 H684 0.949 . S
C688 C696 1.574 . S
C688 C704 1.368 . S
H689 C697 0.950 . S
H690 C695 0.950 . S
H691 C696 0.949 . S
H692 C698 0.950 . S
H693 C699 0.950 . S
H694 C700 0.949 . S
C695 H690 0.950 . S
C695 C697 1.327 . S
C695 C701 1.429 . S
C696 C688 1.574 . S
C696 H691 0.949 . S
C696 C702 1.368 . S
C697 C681 1.349 . S
C697 H689 0.950 . S
C697 C695 1.327 . S
C698 C686 1.349 . S
C698 H692 0.950 . S
C698 C699 1.327 . S
C699 H693 0.950 . S
C699 C698 1.327 . S
C699 C703 1.429 . S
C700 C683 1.574 . S
C700 H694 0.949 . S
C700 C704 1.368 . S
C701 C682 1.429 . S
C701 C695 1.429 . S
C701 C702 1.523 . S
C702 C683 1.368 . S
C702 C696 1.368 . S
C702 C701 1.523 . S
C703 C687 1.429 . S
C703 C699 1.429 . S
C703 C704 1.523 . S
C704 C688 1.368 . S
C704 C700 1.368 . S
C704 C703 1.523 . S
H705 C680 0.950 . S
H706 C682 0.950 . S
H707 C683 0.949 . S
H708 C685 0.950 . S
H709 C687 0.950 . S
C710 C711 1.349 . S
C710 C712 1.327 . S
C710 H735 0.950 . S
C711 C710 1.349 . S
C711 C727 1.349 . S
C712 C710 1.327 . S
C712 C731 1.429 . S
C712 H736 0.950 . S
C713 C730 1.574 . S
C713 C732 1.368 . S
C713 H737 0.949 1_565 S
H714 C718 0.949 . S
C715 C716 1.349 . S
C715 C717 1.327 . S
C715 H738 0.950 . S
C716 C715 1.349 . S
C716 C728 1.349 . S
C717 C715 1.327 . S
C717 C733 1.429 . S
C717 H739 0.950 . S
C718 H714 0.949 . S
C718 C726 1.574 . S
C718 C734 1.368 . S
H719 C727 0.950 . S
H720 C725 0.950 . S
H721 C726 0.949 . S
H722 C728 0.950 . S
H723 C729 0.950 . S
H724 C730 0.949 . S
C725 H720 0.950 . S
C725 C727 1.327 . S
C725 C731 1.429 . S
C726 C718 1.574 . S
C726 H721 0.949 . S
C726 C732 1.368 . S
C727 C711 1.349 . S
C727 H719 0.950 . S
C727 C725 1.327 . S
C728 C716 1.349 . S
C728 H722 0.950 . S
C728 C729 1.327 . S
C729 H723 0.950 . S
C729 C728 1.327 . S
C729 C733 1.429 . S
C730 C713 1.574 . S
C730 H724 0.949 . S
C730 C734 1.368 . S
C731 C712 1.429 . S
C731 C725 1.429 . S
C731 C732 1.523 1_545 S
C732 C713 1.368 . S
C732 C726 1.368 . S
C732 C731 1.523 1_565 S
C733 C717 1.429 . S
C733 C729 1.429 . S
C733 C734 1.523 . S
C734 C718 1.368 . S
C734 C730 1.368 . S
C734 C733 1.523 . S
H735 C710 0.950 . S
H736 C712 0.950 . S
H737 C713 0.949 1_545 S
H738 C715 0.950 . S
H739 C717 0.950 . S
C740 C741 1.349 . S
C740 C742 1.327 . S
C740 H765 0.950 . S
C741 C740 1.349 . S
C741 C757 1.349 . S
C742 C740 1.327 . S
C742 C761 1.429 . S
C742 H766 0.950 . S
C743 C760 1.574 . S
C743 C762 1.368 . S
C743 H767 0.949 . S
H744 C748 0.949 . S
C745 C746 1.349 . S
C745 C747 1.327 . S
C745 H768 0.950 . S
C746 C745 1.349 . S
C746 C758 1.349 . S
C747 C745 1.327 . S
C747 C763 1.429 . S
C747 H769 0.950 . S
C748 H744 0.949 . S
C748 C756 1.574 . S
C748 C764 1.368 . S
H749 C757 0.950 . S
H750 C755 0.950 . S
H751 C756 0.949 . S
H752 C758 0.950 . S
H753 C759 0.950 . S
H754 C760 0.949 . S
C755 H750 0.950 . S
C755 C757 1.327 . S
C755 C761 1.429 . S
C756 C748 1.574 . S
C756 H751 0.949 . S
C756 C762 1.368 . S
C757 C741 1.349 . S
C757 H749 0.950 . S
C757 C755 1.327 . S
C758 C746 1.349 . S
C758 H752 0.950 . S
C758 C759 1.327 . S
C759 H753 0.950 . S
C759 C758 1.327 . S
C759 C763 1.429 . S
C760 C743 1.574 . S
C760 H754 0.949 . S
C760 C764 1.368 . S
C761 C742 1.429 . S
C761 C755 1.429 . S
C761 C762 1.523 . S
C762 C743 1.368 . S
C762 C756 1.368 . S
C762 C761 1.523 . S
C763 C747 1.429 . S
C763 C759 1.429 . S
C763 C764 1.523 . S
C764 C748 1.368 . S
C764 C760 1.368 . S
C764 C763 1.523 . S
H765 C740 0.950 . S
H766 C742 0.950 . S
H767 C743 0.949 . S
H768 C745 0.950 . S
H769 C747 0.950 . S
C770 C771 1.349 . S
C770 C772 1.327 . S
C770 H795 0.950 . S
C771 C770 1.349 . S
C771 C787 1.349 . S
C772 C770 1.327 . S
C772 C791 1.429 . S
C772 H796 0.950 . S
C773 C790 1.574 . S
C773 C792 1.368 1_545 S
C773 H797 0.949 . S
H774 C778 0.949 . S
C775 C776 1.349 . S
C775 C777 1.327 . S
C775 H798 0.950 . S
C776 C775 1.349 . S
C776 C788 1.349 . S
C777 C775 1.327 . S
C777 C793 1.429 . S
C777 H799 0.950 . S
C778 H774 0.949 . S
C778 C786 1.574 1_545 S
C778 C794 1.368 . S
H779 C787 0.950 . S
H780 C785 0.950 . S
H781 C786 0.949 . S
H782 C788 0.950 . S
H783 C789 0.950 . S
H784 C790 0.949 . S
C785 H780 0.950 . S
C785 C787 1.327 . S
C785 C791 1.429 . S
C786 C778 1.574 1_565 S
C786 H781 0.949 . S
C786 C792 1.368 . S
C787 C771 1.349 . S
C787 H779 0.950 . S
C787 C785 1.327 . S
C788 C776 1.349 . S
C788 H782 0.950 . S
C788 C789 1.327 . S
C789 H783 0.950 . S
C789 C788 1.327 . S
C789 C793 1.429 . S
C790 C773 1.574 . S
C790 H784 0.949 . S
C790 C794 1.368 . S
C791 C772 1.429 . S
C791 C785 1.429 . S
C791 C792 1.523 . S
C792 C773 1.368 1_565 S
C792 C786 1.368 . S
C792 C791 1.523 . S
C793 C777 1.429 . S
C793 C789 1.429 . S
C793 C794 1.523 . S
C794 C778 1.368 . S
C794 C790 1.368 . S
C794 C793 1.523 . S
H795 C770 0.950 . S
H796 C772 0.950 . S
H797 C773 0.949 . S
H798 C775 0.950 . S
H799 C777 0.950 . S
C800 C801 1.349 . S
C800 C802 1.327 . S
C800 H825 0.950 . S
C801 C800 1.349 . S
C801 C817 1.349 . S
C802 C800 1.327 . S
C802 C821 1.429 . S
C802 H826 0.950 . S
C803 C820 1.574 . S
C803 C822 1.368 . S
C803 H827 0.949 . S
H804 C808 0.949 . S
C805 C806 1.349 . S
C805 C807 1.327 . S
C805 H828 0.950 . S
C806 C805 1.349 . S
C806 C818 1.349 . S
C807 C805 1.327 . S
C807 C823 1.429 . S
C807 H829 0.950 . S
C808 H804 0.949 . S
C808 C816 1.574 . S
C808 C824 1.368 . S
H809 C817 0.950 . S
H810 C815 0.950 . S
H811 C816 0.949 . S
H812 C818 0.950 . S
H813 C819 0.950 . S
H814 C820 0.949 . S
C815 H810 0.950 . S
C815 C817 1.327 . S
C815 C821 1.429 . S
C816 C808 1.574 . S
C816 H811 0.949 . S
C816 C822 1.368 . S
C817 C801 1.349 . S
C817 H809 0.950 . S
C817 C815 1.327 . S
C818 C806 1.349 . S
C818 H812 0.950 . S
C818 C819 1.327 . S
C819 H813 0.950 . S
C819 C818 1.327 . S
C819 C823 1.429 . S
C820 C803 1.574 . S
C820 H814 0.949 . S
C820 C824 1.368 . S
C821 C802 1.429 . S
C821 C815 1.429 . S
C821 C822 1.523 . S
C822 C803 1.368 . S
C822 C816 1.368 . S
C822 C821 1.523 . S
C823 C807 1.429 . S
C823 C819 1.429 . S
C823 C824 1.523 . S
C824 C808 1.368 . S
C824 C820 1.368 . S
C824 C823 1.523 . S
H825 C800 0.950 . S
H826 C802 0.950 . S
H827 C803 0.949 . S
H828 C805 0.950 . S
H829 C807 0.950 . S
C830 C831 1.349 . S
C830 C832 1.327 . S
C830 H855 0.950 . S
C831 C830 1.349 . S
C831 C847 1.349 . S
C832 C830 1.327 . S
C832 C851 1.429 . S
C832 H856 0.950 . S
C833 C850 1.574 1_545 S
C833 C852 1.368 . S
C833 H857 0.949 . S
H834 C838 0.949 . S
C835 C836 1.349 . S
C835 C837 1.327 . S
C835 H858 0.950 . S
C836 C835 1.349 . S
C836 C848 1.349 . S
C837 C835 1.327 . S
C837 C853 1.429 . S
C837 H859 0.950 . S
C838 H834 0.949 . S
C838 C846 1.574 . S
C838 C854 1.368 . S
H839 C847 0.950 . S
H840 C845 0.950 . S
H841 C846 0.949 . S
H842 C848 0.950 . S
H843 C849 0.950 . S
H844 C850 0.949 . S
C845 H840 0.950 . S
C845 C847 1.327 . S
C845 C851 1.429 . S
C846 C838 1.574 . S
C846 H841 0.949 . S
C846 C852 1.368 1_565 S
C847 C831 1.349 . S
C847 H839 0.950 . S
C847 C845 1.327 . S
C848 C836 1.349 . S
C848 H842 0.950 . S
C848 C849 1.327 . S
C849 H843 0.950 . S
C849 C848 1.327 . S
C849 C853 1.429 . S
C850 C833 1.574 1_565 S
C850 H844 0.949 . S
C850 C854 1.368 . S
C851 C832 1.429 . S
C851 C845 1.429 . S
C851 C852 1.523 . S
C852 C833 1.368 . S
C852 C846 1.368 1_545 S
C852 C851 1.523 . S
C853 C837 1.429 . S
C853 C849 1.429 . S
C853 C854 1.523 . S
C854 C838 1.368 . S
C854 C850 1.368 . S
C854 C853 1.523 . S
H855 C830 0.950 . S
H856 C832 0.950 . S
H857 C833 0.949 . S
H858 C835 0.950 . S
H859 C837 0.950 . S
C860 C861 1.349 . S
C860 C862 1.327 . S
C860 H885 0.950 . S
C861 C860 1.349 . S
C861 C877 1.349 . S
C862 C860 1.327 . S
C862 C881 1.429 . S
C862 H886 0.950 . S
C863 C880 1.574 . S
C863 C882 1.368 . S
C863 H887 0.949 . S
H864 C868 0.949 . S
C865 C866 1.349 . S
C865 C867 1.327 . S
C865 H888 0.950 . S
C866 C865 1.349 . S
C866 C878 1.349 . S
C867 C865 1.327 . S
C867 C883 1.429 . S
C867 H889 0.950 . S
C868 H864 0.949 . S
C868 C876 1.574 . S
C868 C884 1.368 . S
H869 C877 0.950 . S
H870 C875 0.950 . S
H871 C876 0.949 . S
H872 C878 0.950 . S
H873 C879 0.950 . S
H874 C880 0.949 . S
C875 H870 0.950 . S
C875 C877 1.327 . S
C875 C881 1.429 . S
C876 C868 1.574 . S
C876 H871 0.949 . S
C876 C882 1.368 . S
C877 C861 1.349 . S
C877 H869 0.950 . S
C877 C875 1.327 . S
C878 C866 1.349 . S
C878 H872 0.950 . S
C878 C879 1.327 . S
C879 H873 0.950 . S
C879 C878 1.327 . S
C879 C883 1.429 . S
C880 C863 1.574 . S
C880 H874 0.949 . S
C880 C884 1.368 . S
C881 C862 1.429 . S
C881 C875 1.429 . S
C881 C882 1.523 . S
C882 C863 1.368 . S
C882 C876 1.368 . S
C882 C881 1.523 . S
C883 C867 1.429 . S
C883 C879 1.429 . S
C883 C884 1.523 . S
C884 C868 1.368 . S
C884 C880 1.368 . S
C884 C883 1.523 . S
H885 C860 0.950 . S
H886 C862 0.950 . S
H887 C863 0.949 . S
H888 C865 0.950 . S
H889 C867 0.950 . S
C890 C891 1.349 . S
C890 C892 1.345 . S
C890 H915 0.950 . S
C891 C890 1.349 . S
C891 C907 1.349 1_545 S
C892 C890 1.345 . S
C892 C911 1.405 1_545 S
C892 H916 0.957 . S
C893 C910 1.574 . S
C893 C912 1.368 . S
C893 H917 0.949 . S
H894 C898 0.949 . S
C895 C896 1.349 . S
C895 C897 1.327 . S
C895 H918 0.950 . S
C896 C895 1.349 . S
C896 C908 1.349 . S
C897 C895 1.327 . S
C897 C913 1.429 . S
C897 H919 0.950 . S
C898 H894 0.949 . S
C898 C906 1.574 . S
C898 C914 1.368 . S
H899 C907 0.950 . S
H900 C905 0.950 . S
H901 C906 0.949 . S
H902 C908 0.950 . S
H903 C909 0.950 . S
H904 C910 0.949 . S
C905 H900 0.950 . S
C905 C907 1.327 . S
C905 C911 1.429 . S
C906 C898 1.574 . S
C906 H901 0.949 . S
C906 C912 1.368 . S
C907 C891 1.349 1_565 S
C907 H899 0.950 . S
C907 C905 1.327 . S
C908 C896 1.349 . S
C908 H902 0.950 . S
C908 C909 1.327 . S
C909 H903 0.950 . S
C909 C908 1.327 . S
C909 C913 1.429 . S
C910 C893 1.574 . S
C910 H904 0.949 . S
C910 C914 1.368 . S
C911 C892 1.405 1_565 S
C911 C905 1.429 . S
C911 C912 1.523 . S
C912 C893 1.368 . S
C912 C906 1.368 . S
C912 C911 1.523 . S
C913 C897 1.429 . S
C913 C909 1.429 . S
C913 C914 1.523 . S
C914 C898 1.368 . S
C914 C910 1.368 . S
C914 C913 1.523 . S
H915 C890 0.950 . S
H916 C892 0.957 . S
H917 C893 0.949 . S
H918 C895 0.950 . S
H919 C897 0.950 . S
C920 C921 1.349 . S
C920 C922 1.327 . S
C920 H945 0.950 . S
C921 C920 1.349 . S
C921 C937 1.349 . S
C922 C920 1.327 . S
C922 C941 1.429 . S
C922 H946 0.950 . S
C923 C940 1.574 . S
C923 C942 1.368 . S
C923 H947 0.949 . S
H924 C928 0.949 . S
C925 C926 1.349 . S
C925 C927 1.327 1_455 S
C925 H948 0.950 . S
C926 C925 1.349 . S
C926 C938 1.349 . S
C927 C925 1.327 1_655 S
C927 C943 1.429 . S
C927 H949 0.950 . S
C928 H924 0.949 . S
C928 C936 1.574 . S
C928 C944 1.368 . S
H929 C937 0.950 . S
H930 C935 0.950 . S
H931 C936 0.949 . S
H932 C938 0.950 . S
H933 C939 0.950 . S
H934 C940 0.949 . S
C935 H930 0.950 . S
C935 C937 1.327 . S
C935 C941 1.429 . S
C936 C928 1.574 . S
C936 H931 0.949 . S
C936 C942 1.368 . S
C937 C921 1.349 . S
C937 H929 0.950 . S
C937 C935 1.327 . S
C938 C926 1.349 . S
C938 H932 0.950 . S
C938 C939 1.327 1_455 S
C939 H933 0.950 . S
C939 C938 1.327 1_655 S
C939 C943 1.429 . S
C940 C923 1.574 . S
C940 H934 0.949 . S
C940 C944 1.368 . S
C941 C922 1.429 . S
C941 C935 1.429 . S
C941 C942 1.523 . S
C942 C923 1.368 . S
C942 C936 1.368 . S
C942 C941 1.523 . S
C943 C927 1.429 . S
C943 C939 1.429 . S
C943 C944 1.523 . S
C944 C928 1.368 . S
C944 C940 1.368 . S
C944 C943 1.523 . S
H945 C920 0.950 . S
H946 C922 0.950 . S
H947 C923 0.949 . S
H948 C925 0.950 . S
H949 C927 0.950 . S
C950 C951 1.349 . S
C950 C952 1.327 1_565 S
C950 H975 0.950 . S
C951 C950 1.349 . S
C951 C967 1.349 1_565 S
C952 C950 1.327 1_545 S
C952 C971 1.429 . S
C952 H976 0.950 . S
C953 C970 1.574 . S
C953 C972 1.368 . S
C953 H977 0.949 . S
H954 C958 0.949 1_455 S
C955 C956 1.349 1_655 S
C955 C957 1.327 . S
C955 H978 0.950 . S
C956 C955 1.349 1_455 S
C956 C968 1.349 . S
C957 C955 1.327 . S
C957 C973 1.429 . S
C957 H979 0.950 . S
C958 H954 0.949 1_655 S
C958 C966 1.574 . S
C958 C974 1.368 . S
H959 C967 0.950 . S
H960 C965 0.950 . S
H961 C966 0.949 . S
H962 C968 0.950 . S
H963 C969 0.950 . S
H964 C970 0.949 . S
C965 H960 0.950 . S
C965 C967 1.327 . S
C965 C971 1.429 . S
C966 C958 1.574 . S
C966 H961 0.949 . S
C966 C972 1.368 . S
C967 C951 1.349 1_545 S
C967 H959 0.950 . S
C967 C965 1.327 . S
C968 C956 1.349 . S
C968 H962 0.950 . S
C968 C969 1.327 . S
C969 H963 0.950 . S
C969 C968 1.327 . S
C969 C973 1.429 1_455 S
C970 C953 1.574 . S
C970 H964 0.949 . S
C970 C974 1.368 . S
C971 C952 1.429 . S
C971 C965 1.429 . S
C971 C972 1.523 . S
C972 C953 1.368 . S
C972 C966 1.368 . S
C972 C971 1.523 . S
C973 C957 1.429 . S
C973 C969 1.429 1_655 S
C973 C974 1.523 . S
C974 C958 1.368 . S
C974 C970 1.368 . S
C974 C973 1.523 . S
H975 C950 0.950 . S
H976 C952 0.950 . S
H977 C953 0.949 . S
H978 C955 0.950 . S
H979 C957 0.950 . S
C980 C981 1.349 . S
C980 C982 1.327 . S
C980 H1005 0.950 . S
C981 C980 1.349 . S
C981 C997 1.349 . S
C982 C980 1.327 . S
C982 C1001 1.429 . S
C982 H1006 0.950 . S
C983 C1000 1.574 . S
C983 C1002 1.368 . S
C983 H1007 0.949 . S
H984 C988 0.949 . S
C985 C986 1.349 . S
C985 C987 1.327 . S
C985 H1008 0.950 . S
C986 C985 1.349 . S
C986 C998 1.349 . S
C987 C985 1.327 . S
C987 C1003 1.429 . S
C987 H1009 0.950 . S
C988 H984 0.949 . S
C988 C996 1.574 . S
C988 C1004 1.368 . S
H989 C997 0.950 . S
H990 C995 0.950 . S
H991 C996 0.949 . S
H992 C998 0.950 . S
H993 C999 0.950 . S
H994 C1000 0.949 . S
C995 H990 0.950 . S
C995 C997 1.327 . S
C995 C1001 1.429 . S
C996 C988 1.574 . S
C996 H991 0.949 . S
C996 C1002 1.368 . S
C997 C981 1.349 . S
C997 H989 0.950 . S
C997 C995 1.327 . S
C998 C986 1.349 . S
C998 H992 0.950 . S
C998 C999 1.327 . S
C999 H993 0.950 . S
C999 C998 1.327 . S
C999 C1003 1.429 . S
C1000 C983 1.574 . S
C1000 H994 0.949 . S
C1000 C1004 1.368 . S
C1001 C982 1.429 . S
C1001 C995 1.429 . S
C1001 C1002 1.523 . S
C1002 C983 1.368 . S
C1002 C996 1.368 . S
C1002 C1001 1.523 . S
C1003 C987 1.429 . S
C1003 C999 1.429 . S
C1003 C1004 1.523 . S
C1004 C988 1.368 . S
C1004 C1000 1.368 . S
C1004 C1003 1.523 . S
H1005 C980 0.950 . S
H1006 C982 0.950 . S
H1007 C983 0.949 . S
H1008 C985 0.950 . S
H1009 C987 0.950 . S
C1010 C1011 1.349 . S
C1010 C1012 1.327 . S
C1010 H1035 0.950 . S
C1011 C1010 1.349 . S
C1011 C1027 1.349 . S
C1012 C1010 1.327 . S
C1012 C1031 1.429 . S
C1012 H1036 0.950 . S
C1013 C1030 1.574 . S
C1013 C1032 1.368 . S
C1013 H1037 0.949 . S
H1014 C1018 0.949 . S
C1015 C1016 1.349 . S
C1015 C1017 1.327 . S
C1015 H1038 0.950 . S
C1016 C1015 1.349 . S
C1016 C1028 1.349 1_455 S
C1017 C1015 1.327 . S
C1017 C1033 1.429 1_455 S
C1017 H1039 0.950 . S
C1018 H1014 0.949 . S
C1018 C1026 1.574 . S
C1018 C1034 1.368 . S
H1019 C1027 0.950 . S
H1020 C1025 0.950 . S
H1021 C1026 0.949 . S
H1022 C1028 0.950 . S
H1023 C1029 0.950 . S
H1024 C1030 0.949 1_455 S
C1025 H1020 0.950 . S
C1025 C1027 1.327 . S
C1025 C1031 1.429 . S
C1026 C1018 1.574 . S
C1026 H1021 0.949 . S
C1026 C1032 1.368 . S
C1027 C1011 1.349 . S
C1027 H1019 0.950 . S
C1027 C1025 1.327 . S
C1028 C1016 1.349 1_655 S
C1028 H1022 0.950 . S
C1028 C1029 1.327 . S
C1029 H1023 0.950 . S
C1029 C1028 1.327 . S
C1029 C1033 1.429 . S
C1030 C1013 1.574 . S
C1030 H1024 0.949 1_655 S
C1030 C1034 1.368 . S
C1031 C1012 1.429 . S
C1031 C1025 1.429 . S
C1031 C1032 1.523 . S
C1032 C1013 1.368 . S
C1032 C1026 1.368 . S
C1032 C1031 1.523 . S
C1033 C1017 1.429 1_655 S
C1033 C1029 1.429 . S
C1033 C1034 1.523 . S
C1034 C1018 1.368 . S
C1034 C1030 1.368 . S
C1034 C1033 1.523 . S
H1035 C1010 0.950 . S
H1036 C1012 0.950 . S
H1037 C1013 0.949 . S
H1038 C1015 0.950 . S
H1039 C1017 0.950 . S
C1040 C1041 1.349 . S
C1040 C1042 1.327 . S
C1040 H1065 0.950 . S
C1041 C1040 1.349 . S
C1041 C1057 1.349 . S
C1042 C1040 1.327 . S
C1042 C1061 1.429 . S
C1042 H1066 0.950 . S
C1043 C1060 1.574 . S
C1043 C1062 1.368 . S
C1043 H1067 0.949 . S
H1044 C1048 0.949 . S
C1045 C1046 1.349 . S
C1045 C1047 1.327 1_455 S
C1045 H1068 0.950 . S
C1046 C1045 1.349 . S
C1046 C1058 1.349 . S
C1047 C1045 1.327 1_655 S
C1047 C1063 1.429 . S
C1047 H1069 0.950 . S
C1048 H1044 0.949 . S
C1048 C1056 1.574 . S
C1048 C1064 1.368 . S
H1049 C1057 0.950 . S
H1050 C1055 0.950 . S
H1051 C1056 0.949 . S
H1052 C1058 0.950 . S
H1053 C1059 0.950 . S
H1054 C1060 0.949 . S
C1055 H1050 0.950 . S
C1055 C1057 1.327 . S
C1055 C1061 1.429 . S
C1056 C1048 1.574 . S
C1056 H1051 0.949 . S
C1056 C1062 1.368 . S
C1057 C1041 1.349 . S
C1057 H1049 0.950 . S
C1057 C1055 1.327 . S
C1058 C1046 1.349 . S
C1058 H1052 0.950 . S
C1058 C1059 1.327 1_455 S
C1059 H1053 0.950 . S
C1059 C1058 1.327 1_655 S
C1059 C1063 1.429 . S
C1060 C1043 1.574 . S
C1060 H1054 0.949 . S
C1060 C1064 1.368 . S
C1061 C1042 1.429 . S
C1061 C1055 1.429 . S
C1061 C1062 1.523 . S
C1062 C1043 1.368 . S
C1062 C1056 1.368 . S
C1062 C1061 1.523 . S
C1063 C1047 1.429 . S
C1063 C1059 1.429 . S
C1063 C1064 1.523 . S
C1064 C1048 1.368 . S
C1064 C1060 1.368 . S
C1064 C1063 1.523 . S
H1065 C1040 0.950 . S
H1066 C1042 0.950 . S
H1067 C1043 0.949 . S
H1068 C1045 0.950 . S
H1069 C1047 0.950 . S
C1070 C1071 1.349 . S
C1070 C1072 1.327 . S
C1070 H1095 0.950 1_545 S
C1071 C1070 1.349 . S
C1071 C1087 1.349 . S
C1072 C1070 1.327 . S
C1072 C1091 1.429 . S
C1072 H1096 0.950 . S
C1073 C1090 1.574 . S
C1073 C1092 1.368 . S
C1073 H1097 0.949 . S
H1074 C1078 0.949 . S
C1075 C1076 1.349 . S
C1075 C1077 1.327 . S
C1075 H1098 0.950 . S
C1076 C1075 1.349 . S
C1076 C1088 1.349 . S
C1077 C1075 1.327 . S
C1077 C1093 1.429 . S
C1077 H1099 0.950 . S
C1078 H1074 0.949 . S
C1078 C1086 1.574 . S
C1078 C1094 1.368 . S
H1079 C1087 0.950 . S
H1080 C1085 0.950 . S
H1081 C1086 0.949 . S
H1082 C1088 0.950 . S
H1083 C1089 0.950 . S
H1084 C1090 0.949 . S
C1085 H1080 0.950 . S
C1085 C1087 1.327 . S
C1085 C1091 1.429 . S
C1086 C1078 1.574 . S
C1086 H1081 0.949 . S
C1086 C1092 1.368 . S
C1087 C1071 1.349 . S
C1087 H1079 0.950 . S
C1087 C1085 1.327 . S
C1088 C1076 1.349 . S
C1088 H1082 0.950 . S
C1088 C1089 1.327 . S
C1089 H1083 0.950 . S
C1089 C1088 1.327 . S
C1089 C1093 1.429 . S
C1090 C1073 1.574 . S
C1090 H1084 0.949 . S
C1090 C1094 1.368 . S
C1091 C1072 1.429 . S
C1091 C1085 1.429 . S
C1091 C1092 1.523 . S
C1092 C1073 1.368 . S
C1092 C1086 1.368 . S
C1092 C1091 1.523 . S
C1093 C1077 1.429 . S
C1093 C1089 1.429 . S
C1093 C1094 1.523 . S
C1094 C1078 1.368 . S
C1094 C1090 1.368 . S
C1094 C1093 1.523 . S
H1095 C1070 0.950 1_565 S
H1096 C1072 0.950 . S
H1097 C1073 0.949 . S
H1098 C1075 0.950 . S
H1099 C1077 0.950 . S
C1100 C1101 1.349 . S
C1100 C1102 1.327 . S
C1100 H1125 0.950 . S
C1101 C1100 1.349 . S
C1101 C1117 1.349 . S
C1102 C1100 1.327 . S
C1102 C1121 1.429 . S
C1102 H1126 0.950 . S
C1103 C1120 1.574 . S
C1103 C1122 1.368 . S
C1103 H1127 0.949 . S
H1104 C1108 0.949 . S
C1105 C1106 1.349 . S
C1105 C1107 1.327 . S
C1105 H1128 0.950 . S
C1106 C1105 1.349 . S
C1106 C1118 1.349 . S
C1107 C1105 1.327 . S
C1107 C1123 1.429 . S
C1107 H1129 0.950 . S
C1108 H1104 0.949 . S
C1108 C1116 1.574 . S
C1108 C1124 1.368 . S
H1109 C1117 0.950 . S
H1110 C1115 0.950 . S
H1111 C1116 0.949 . S
H1112 C1118 0.950 . S
H1113 C1119 0.950 . S
H1114 C1120 0.949 . S
C1115 H1110 0.950 . S
C1115 C1117 1.327 . S
C1115 C1121 1.429 . S
C1116 C1108 1.574 . S
C1116 H1111 0.949 . S
C1116 C1122 1.368 . S
C1117 C1101 1.349 . S
C1117 H1109 0.950 . S
C1117 C1115 1.327 . S
C1118 C1106 1.349 . S
C1118 H1112 0.950 . S
C1118 C1119 1.327 . S
C1119 H1113 0.950 . S
C1119 C1118 1.327 . S
C1119 C1123 1.429 . S
C1120 C1103 1.574 . S
C1120 H1114 0.949 . S
C1120 C1124 1.368 . S
C1121 C1102 1.429 . S
C1121 C1115 1.429 . S
C1121 C1122 1.523 . S
C1122 C1103 1.368 . S
C1122 C1116 1.368 . S
C1122 C1121 1.523 . S
C1123 C1107 1.429 . S
C1123 C1119 1.429 . S
C1123 C1124 1.523 . S
C1124 C1108 1.368 . S
C1124 C1120 1.368 . S
C1124 C1123 1.523 . S
H1125 C1100 0.950 . S
H1126 C1102 0.950 . S
H1127 C1103 0.949 . S
H1128 C1105 0.950 . S
H1129 C1107 0.950 . S
C1130 C1131 1.349 . S
C1130 C1132 1.327 . S
C1130 H1155 0.950 . S
C1131 C1130 1.349 . S
C1131 C1147 1.349 . S
C1132 C1130 1.327 . S
C1132 C1151 1.429 . S
C1132 H1156 0.950 . S
C1133 C1150 1.574 . S
C1133 C1152 1.368 . S
C1133 H1157 0.949 . S
H1134 C1138 0.949 . S
C1135 C1136 1.349 . S
C1135 C1137 1.327 . S
C1135 H1158 0.950 1_655 S
C1136 C1135 1.349 . S
C1136 C1148 1.349 . S
C1137 C1135 1.327 . S
C1137 C1153 1.429 . S
C1137 H1159 0.950 . S
C1138 H1134 0.949 . S
C1138 C1146 1.574 . S
C1138 C1154 1.368 . S
H1139 C1147 0.950 . S
H1140 C1145 0.950 . S
H1141 C1146 0.949 . S
H1142 C1148 0.950 . S
H1143 C1149 0.950 . S
H1144 C1150 0.949 . S
C1145 H1140 0.950 . S
C1145 C1147 1.327 . S
C1145 C1151 1.429 . S
C1146 C1138 1.574 . S
C1146 H1141 0.949 . S
C1146 C1152 1.368 . S
C1147 C1131 1.349 . S
C1147 H1139 0.950 . S
C1147 C1145 1.327 . S
C1148 C1136 1.349 . S
C1148 H1142 0.950 . S
C1148 C1149 1.327 . S
C1149 H1143 0.950 . S
C1149 C1148 1.327 . S
C1149 C1153 1.429 . S
C1150 C1133 1.574 . S
C1150 H1144 0.949 . S
C1150 C1154 1.368 . S
C1151 C1132 1.429 . S
C1151 C1145 1.429 . S
C1151 C1152 1.523 . S
C1152 C1133 1.368 . S
C1152 C1146 1.368 . S
C1152 C1151 1.523 . S
C1153 C1137 1.429 . S
C1153 C1149 1.429 . S
C1153 C1154 1.523 . S
C1154 C1138 1.368 . S
C1154 C1150 1.368 . S
C1154 C1153 1.523 . S
H1155 C1130 0.950 . S
H1156 C1132 0.950 . S
H1157 C1133 0.949 . S
H1158 C1135 0.950 1_455 S
H1159 C1137 0.950 . S
C1160 C1161 1.349 . S
C1160 C1162 1.327 . S
C1160 H1185 0.950 . S
C1161 C1160 1.349 . S
C1161 C1177 1.349 . S
C1162 C1160 1.327 . S
C1162 C1181 1.429 . S
C1162 H1186 0.950 . S
C1163 C1180 1.574 . S
C1163 C1182 1.368 . S
C1163 H1187 0.949 . S
H1164 C1168 0.949 . S
C1165 C1166 1.349 . S
C1165 C1167 1.327 . S
C1165 H1188 0.950 . S
C1166 C1165 1.349 . S
C1166 C1178 1.349 . S
C1167 C1165 1.327 . S
C1167 C1183 1.429 . S
C1167 H1189 0.950 . S
C1168 H1164 0.949 . S
C1168 C1176 1.574 . S
C1168 C1184 1.368 . S
H1169 C1177 0.950 . S
H1170 C1175 0.950 . S
H1171 C1176 0.949 . S
H1172 C1178 0.950 . S
H1173 C1179 0.950 . S
H1174 C1180 0.949 . S
C1175 H1170 0.950 . S
C1175 C1177 1.327 . S
C1175 C1181 1.429 . S
C1176 C1168 1.574 . S
C1176 H1171 0.949 . S
C1176 C1182 1.368 . S
C1177 C1161 1.349 . S
C1177 H1169 0.950 . S
C1177 C1175 1.327 . S
C1178 C1166 1.349 . S
C1178 H1172 0.950 . S
C1178 C1179 1.327 . S
C1179 H1173 0.950 . S
C1179 C1178 1.327 . S
C1179 C1183 1.429 . S
C1180 C1163 1.574 . S
C1180 H1174 0.949 . S
C1180 C1184 1.368 . S
C1181 C1162 1.429 . S
C1181 C1175 1.429 . S
C1181 C1182 1.523 . S
C1182 C1163 1.368 . S
C1182 C1176 1.368 . S
C1182 C1181 1.523 . S
C1183 C1167 1.429 . S
C1183 C1179 1.429 . S
C1183 C1184 1.523 . S
C1184 C1168 1.368 . S
C1184 C1180 1.368 . S
C1184 C1183 1.523 . S
H1185 C1160 0.950 . S
H1186 C1162 0.950 . S
H1187 C1163 0.949 . S
H1188 C1165 0.950 . S
H1189 C1167 0.950 . S
C1190 C1191 1.349 . S
C1190 C1192 1.327 . S
C1190 H1215 0.950 . S
C1191 C1190 1.349 . S
C1191 C1207 1.349 . S
C1192 C1190 1.327 . S
C1192 C1211 1.429 . S
C1192 H1216 0.950 . S
C1193 C1210 1.574 . S
C1193 C1212 1.368 . S
C1193 H1217 0.949 . S
H1194 C1198 0.949 . S
C1195 C1196 1.349 . S
C1195 C1197 1.327 . S
C1195 H1218 0.950 . S
C1196 C1195 1.349 . S
C1196 C1208 1.349 . S
C1197 C1195 1.327 . S
C1197 C1213 1.429 . S
C1197 H1219 0.950 . S
C1198 H1194 0.949 . S
C1198 C1206 1.574 . S
C1198 C1214 1.368 . S
H1199 C1207 0.950 . S
H1200 C1205 0.950 . S
H1201 C1206 0.949 . S
H1202 C1208 0.950 . S
H1203 C1209 0.950 . S
H1204 C1210 0.949 . S
C1205 H1200 0.950 . S
C1205 C1207 1.327 . S
C1205 C1211 1.429 . S
C1206 C1198 1.574 . S
C1206 H1201 0.949 . S
C1206 C1212 1.368 . S
C1207 C1191 1.349 . S
C1207 H1199 0.950 . S
C1207 C1205 1.327 . S
C1208 C1196 1.349 . S
C1208 H1202 0.950 . S
C1208 C1209 1.327 . S
C1209 H1203 0.950 . S
C1209 C1208 1.327 . S
C1209 C1213 1.429 . S
C1210 C1193 1.574 . S
C1210 H1204 0.949 . S
C1210 C1214 1.368 . S
C1211 C1192 1.429 . S
C1211 C1205 1.429 . S
C1211 C1212 1.523 . S
C1212 C1193 1.368 . S
C1212 C1206 1.368 . S
C1212 C1211 1.523 . S
C1213 C1197 1.429 . S
C1213 C1209 1.429 . S
C1213 C1214 1.523 . S
C1214 C1198 1.368 . S
C1214 C1210 1.368 . S
C1214 C1213 1.523 . S
H1215 C1190 0.950 . S
H1216 C1192 0.950 . S
H1217 C1193 0.949 . S
H1218 C1195 0.950 . S
H1219 C1197 0.950 . S
C1220 C1221 1.349 . S
C1220 C1222 1.327 . S
C1220 H1245 0.950 . S
C1221 C1220 1.349 . S
C1221 C1237 1.349 . S
C1222 C1220 1.327 . S
C1222 C1241 1.429 . S
C1222 H1246 0.950 . S
C1223 C1240 1.574 . S
C1223 C1242 1.368 . S
C1223 H1247 0.949 . S
H1224 C1228 0.949 . S
C1225 C1226 1.349 . S
C1225 C1227 1.327 . S
C1225 H1248 0.950 . S
C1226 C1225 1.349 . S
C1226 C1238 1.349 . S
C1227 C1225 1.327 . S
C1227 C1243 1.429 . S
C1227 H1249 0.950 . S
C1228 H1224 0.949 . S
C1228 C1236 1.574 . S
C1228 C1244 1.368 . S
H1229 C1237 0.950 . S
H1230 C1235 0.950 . S
H1231 C1236 0.949 . S
H1232 C1238 0.950 . S
H1233 C1239 0.950 . S
H1234 C1240 0.949 . S
C1235 H1230 0.950 . S
C1235 C1237 1.327 . S
C1235 C1241 1.429 . S
C1236 C1228 1.574 . S
C1236 H1231 0.949 . S
C1236 C1242 1.368 . S
C1237 C1221 1.349 . S
C1237 H1229 0.950 . S
C1237 C1235 1.327 . S
C1238 C1226 1.349 . S
C1238 H1232 0.950 . S
C1238 C1239 1.327 . S
C1239 H1233 0.950 . S
C1239 C1238 1.327 . S
C1239 C1243 1.429 . S
C1240 C1223 1.574 . S
C1240 H1234 0.949 . S
C1240 C1244 1.368 . S
C1241 C1222 1.429 . S
C1241 C1235 1.429 . S
C1241 C1242 1.523 . S
C1242 C1223 1.368 . S
C1242 C1236 1.368 . S
C1242 C1241 1.523 . S
C1243 C1227 1.429 . S
C1243 C1239 1.429 . S
C1243 C1244 1.523 . S
C1244 C1228 1.368 . S
C1244 C1240 1.368 . S
C1244 C1243 1.523 . S
H1245 C1220 0.950 . S
H1246 C1222 0.950 . S
H1247 C1223 0.949 . S
H1248 C1225 0.950 . S
H1249 C1227 0.950 . S
C1250 C1251 1.349 . S
C1250 C1252 1.327 . S
C1250 H1275 0.950 . S
C1251 C1250 1.349 . S
C1251 C1267 1.349 . S
C1252 C1250 1.327 . S
C1252 C1271 1.429 . S
C1252 H1276 0.950 . S
C1253 C1270 1.574 . S
C1253 C1272 1.368 . S
C1253 H1277 0.949 . S
H1254 C1258 0.949 . S
C1255 C1256 1.349 . S
C1255 C1257 1.327 . S
C1255 H1278 0.950 . S
C1256 C1255 1.349 . S
C1256 C1268 1.349 . S
C1257 C1255 1.327 . S
C1257 C1273 1.429 . S
C1257 H1279 0.950 . S
C1258 H1254 0.949 . S
C1258 C1266 1.574 . S
C1258 C1274 1.368 . S
H1259 C1267 0.950 . S
H1260 C1265 0.950 . S
H1261 C1266 0.949 . S
H1262 C1268 0.950 . S
H1263 C1269 0.950 . S
H1264 C1270 0.949 . S
C1265 H1260 0.950 . S
C1265 C1267 1.327 . S
C1265 C1271 1.429 . S
C1266 C1258 1.574 . S
C1266 H1261 0.949 . S
C1266 C1272 1.368 . S
C1267 C1251 1.349 . S
C1267 H1259 0.950 . S
C1267 C1265 1.327 . S
C1268 C1256 1.349 . S
C1268 H1262 0.950 . S
C1268 C1269 1.327 . S
C1269 H1263 0.950 . S
C1269 C1268 1.327 . S
C1269 C1273 1.429 . S
C1270 C1253 1.574 . S
C1270 H1264 0.949 . S
C1270 C1274 1.368 . S
C1271 C1252 1.429 . S
C1271 C1265 1.429 . S
C1271 C1272 1.523 . S
C1272 C1253 1.368 . S
C1272 C1266 1.368 . S
C1272 C1271 1.523 . S
C1273 C1257 1.429 . S
C1273 C1269 1.429 . S
C1273 C1274 1.523 . S
C1274 C1258 1.368 . S
C1274 C1270 1.368 . S
C1274 C1273 1.523 . S
H1275 C1250 0.950 . S
H1276 C1252 0.950 . S
H1277 C1253 0.949 . S
H1278 C1255 0.950 . S
H1279 C1257 0.950 . S
C1280 C1281 1.349 . S
C1280 C1282 1.327 . S
C1280 H1305 0.950 . S
C1281 C1280 1.349 . S
C1281 C1297 1.349 . S
C1282 C1280 1.327 . S
C1282 C1301 1.429 . S
C1282 H1306 0.950 . S
C1283 C1300 1.574 . S
C1283 C1302 1.368 . S
C1283 H1307 0.949 . S
H1284 C1288 0.949 . S
C1285 C1286 1.349 . S
C1285 C1287 1.327 . S
C1285 H1308 0.950 . S
C1286 C1285 1.349 . S
C1286 C1298 1.349 . S
C1287 C1285 1.327 . S
C1287 C1303 1.429 . S
C1287 H1309 0.950 . S
C1288 H1284 0.949 . S
C1288 C1296 1.574 . S
C1288 C1304 1.368 . S
H1289 C1297 0.950 . S
H1290 C1295 0.950 . S
H1291 C1296 0.949 . S
H1292 C1298 0.950 . S
H1293 C1299 0.950 . S
H1294 C1300 0.949 . S
C1295 H1290 0.950 . S
C1295 C1297 1.327 . S
C1295 C1301 1.429 . S
C1296 C1288 1.574 . S
C1296 H1291 0.949 . S
C1296 C1302 1.368 . S
C1297 C1281 1.349 . S
C1297 H1289 0.950 . S
C1297 C1295 1.327 . S
C1298 C1286 1.349 . S
C1298 H1292 0.950 . S
C1298 C1299 1.327 . S
C1299 H1293 0.950 . S
C1299 C1298 1.327 . S
C1299 C1303 1.429 . S
C1300 C1283 1.574 . S
C1300 H1294 0.949 . S
C1300 C1304 1.368 . S
C1301 C1282 1.429 . S
C1301 C1295 1.429 . S
C1301 C1302 1.523 . S
C1302 C1283 1.368 . S
C1302 C1296 1.368 . S
C1302 C1301 1.523 . S
C1303 C1287 1.429 . S
C1303 C1299 1.429 . S
C1303 C1304 1.523 . S
C1304 C1288 1.368 . S
C1304 C1300 1.368 . S
C1304 C1303 1.523 . S
H1305 C1280 0.950 . S
H1306 C1282 0.950 . S
H1307 C1283 0.949 . S
H1308 C1285 0.950 . S
H1309 C1287 0.950 . S
C1310 C1311 1.349 . S
C1310 C1312 1.327 . S
C1310 H1335 0.950 . S
C1311 C1310 1.349 . S
C1311 C1327 1.349 . S
C1312 C1310 1.327 . S
C1312 C1331 1.429 . S
C1312 H1336 0.950 . S
C1313 C1330 1.574 . S
C1313 C1332 1.368 . S
C1313 H1337 0.949 . S
H1314 C1318 0.949 . S
C1315 C1316 1.349 1_455 S
C1315 C1317 1.327 1_455 S
C1315 H1338 0.950 . S
C1316 C1315 1.349 1_655 S
C1316 C1328 1.349 . S
C1317 C1315 1.327 1_655 S
C1317 C1333 1.429 . S
C1317 H1339 0.950 1_655 S
C1318 H1314 0.949 . S
C1318 C1326 1.574 . S
C1318 C1334 1.368 . S
H1319 C1327 0.950 . S
H1320 C1325 0.950 . S
H1321 C1326 0.949 . S
H1322 C1328 0.950 . S
H1323 C1329 0.950 . S
H1324 C1330 0.949 1_455 S
C1325 H1320 0.950 . S
C1325 C1327 1.327 . S
C1325 C1331 1.429 . S
C1326 C1318 1.574 . S
C1326 H1321 0.949 . S
C1326 C1332 1.368 . S
C1327 C1311 1.349 . S
C1327 H1319 0.950 . S
C1327 C1325 1.327 . S
C1328 C1316 1.349 . S
C1328 H1322 0.950 . S
C1328 C1329 1.327 . S
C1329 H1323 0.950 . S
C1329 C1328 1.327 . S
C1329 C1333 1.429 . S
C1330 C1313 1.574 . S
C1330 H1324 0.949 1_655 S
C1330 C1334 1.368 . S
C1331 C1312 1.429 . S
C1331 C1325 1.429 . S
C1331 C1332 1.523 . S
C1332 C1313 1.368 . S
C1332 C1326 1.368 . S
C1332 C1331 1.523 . S
C1333 C1317 1.429 . S
C1333 C1329 1.429 . S
C1333 C1334 1.523 . S
C1334 C1318 1.368 . S
C1334 C1330 1.368 . S
C1334 C1333 1.523 . S
H1335 C1310 0.950 . S
H1336 C1312 0.950 . S
H1337 C1313 0.949 . S
H1338 C1315 0.950 . S
H1339 C1317 0.950 1_455 S
C1340 C1341 1.349 . S
C1340 C1342 1.327 . S
C1340 H1365 0.950 . S
C1341 C1340 1.349 . S
C1341 C1357 1.349 . S
C1342 C1340 1.327 . S
C1342 C1361 1.429 . S
C1342 H1366 0.950 . S
C1343 C1360 1.574 . S
C1343 C1362 1.368 . S
C1343 H1367 0.949 . S
H1344 C1348 0.949 . S
C1345 C1346 1.349 . S
C1345 C1347 1.327 . S
C1345 H1368 0.950 . S
C1346 C1345 1.349 . S
C1346 C1358 1.349 . S
C1347 C1345 1.327 . S
C1347 C1363 1.429 . S
C1347 H1369 0.950 . S
C1348 H1344 0.949 . S
C1348 C1356 1.574 . S
C1348 C1364 1.368 . S
H1349 C1357 0.950 . S
H1350 C1355 0.950 . S
H1351 C1356 0.949 . S
H1352 C1358 0.950 . S
H1353 C1359 0.950 . S
H1354 C1360 0.949 . S
C1355 H1350 0.950 . S
C1355 C1357 1.327 . S
C1355 C1361 1.429 . S
C1356 C1348 1.574 . S
C1356 H1351 0.949 . S
C1356 C1362 1.368 . S
C1357 C1341 1.349 . S
C1357 H1349 0.950 . S
C1357 C1355 1.327 . S
C1358 C1346 1.349 . S
C1358 H1352 0.950 . S
C1358 C1359 1.327 . S
C1359 H1353 0.950 . S
C1359 C1358 1.327 . S
C1359 C1363 1.429 . S
C1360 C1343 1.574 . S
C1360 H1354 0.949 . S
C1360 C1364 1.368 . S
C1361 C1342 1.429 . S
C1361 C1355 1.429 . S
C1361 C1362 1.523 . S
C1362 C1343 1.368 . S
C1362 C1356 1.368 . S
C1362 C1361 1.523 . S
C1363 C1347 1.429 . S
C1363 C1359 1.429 . S
C1363 C1364 1.523 . S
C1364 C1348 1.368 . S
C1364 C1360 1.368 . S
C1364 C1363 1.523 . S
H1365 C1340 0.950 . S
H1366 C1342 0.950 . S
H1367 C1343 0.949 . S
H1368 C1345 0.950 . S
H1369 C1347 0.950 . S
C1370 C1371 1.349 . S
C1370 C1372 1.327 . S
C1370 H1395 0.950 . S
C1371 C1370 1.349 . S
C1371 C1387 1.349 . S
C1372 C1370 1.327 . S
C1372 C1391 1.429 . S
C1372 H1396 0.950 . S
C1373 C1390 1.574 . S
C1373 C1392 1.368 . S
C1373 H1397 0.949 . S
H1374 C1378 0.949 . S
C1375 C1376 1.349 . S
C1375 C1377 1.327 . S
C1375 H1398 0.950 . S
C1376 C1375 1.349 . S
C1376 C1388 1.349 . S
C1377 C1375 1.327 . S
C1377 C1393 1.429 . S
C1377 H1399 0.950 . S
C1378 H1374 0.949 . S
C1378 C1386 1.574 . S
C1378 C1394 1.368 . S
H1379 C1387 0.950 . S
H1380 C1385 0.950 . S
H1381 C1386 0.949 . S
H1382 C1388 0.950 . S
H1383 C1389 0.950 . S
H1384 C1390 0.949 . S
C1385 H1380 0.950 . S
C1385 C1387 1.327 . S
C1385 C1391 1.429 . S
C1386 C1378 1.574 . S
C1386 H1381 0.949 . S
C1386 C1392 1.368 . S
C1387 C1371 1.349 . S
C1387 H1379 0.950 . S
C1387 C1385 1.327 . S
C1388 C1376 1.349 . S
C1388 H1382 0.950 . S
C1388 C1389 1.327 . S
C1389 H1383 0.950 . S
C1389 C1388 1.327 . S
C1389 C1393 1.429 . S
C1390 C1373 1.574 . S
C1390 H1384 0.949 . S
C1390 C1394 1.368 . S
C1391 C1372 1.429 . S
C1391 C1385 1.429 . S
C1391 C1392 1.523 . S
C1392 C1373 1.368 . S
C1392 C1386 1.368 . S
C1392 C1391 1.523 . S
C1393 C1377 1.429 . S
C1393 C1389 1.429 . S
C1393 C1394 1.523 . S
C1394 C1378 1.368 . S
C1394 C1390 1.368 . S
C1394 C1393 1.523 . S
H1395 C1370 0.950 . S
H1396 C1372 0.950 . S
H1397 C1373 0.949 . S
H1398 C1375 0.950 . S
H1399 C1377 0.950 . S
C1400 C1401 1.349 . S
C1400 C1402 1.327 . S
C1400 H1425 0.950 . S
C1401 C1400 1.349 . S
C1401 C1417 1.349 . S
C1402 C1400 1.327 . S
C1402 C1421 1.429 . S
C1402 H1426 0.950 . S
C1403 C1420 1.574 . S
C1403 C1422 1.368 . S
C1403 H1427 0.949 . S
H1404 C1408 0.949 . S
C1405 C1406 1.349 . S
C1405 C1407 1.327 . S
C1405 H1428 0.950 . S
C1406 C1405 1.349 . S
C1406 C1418 1.349 . S
C1407 C1405 1.327 . S
C1407 C1423 1.429 . S
C1407 H1429 0.950 . S
C1408 H1404 0.949 . S
C1408 C1416 1.574 . S
C1408 C1424 1.368 . S
H1409 C1417 0.950 . S
H1410 C1415 0.950 . S
H1411 C1416 0.949 . S
H1412 C1418 0.950 . S
H1413 C1419 0.950 . S
H1414 C1420 0.949 . S
C1415 H1410 0.950 . S
C1415 C1417 1.327 . S
C1415 C1421 1.429 . S
C1416 C1408 1.574 . S
C1416 H1411 0.949 . S
C1416 C1422 1.368 . S
C1417 C1401 1.349 . S
C1417 H1409 0.950 . S
C1417 C1415 1.327 . S
C1418 C1406 1.349 . S
C1418 H1412 0.950 . S
C1418 C1419 1.327 . S
C1419 H1413 0.950 . S
C1419 C1418 1.327 . S
C1419 C1423 1.429 . S
C1420 C1403 1.574 . S
C1420 H1414 0.949 . S
C1420 C1424 1.368 . S
C1421 C1402 1.429 . S
C1421 C1415 1.429 . S
C1421 C1422 1.523 . S
C1422 C1403 1.368 . S
C1422 C1416 1.368 . S
C1422 C1421 1.523 . S
C1423 C1407 1.429 . S
C1423 C1419 1.429 . S
C1423 C1424 1.523 . S
C1424 C1408 1.368 . S
C1424 C1420 1.368 . S
C1424 C1423 1.523 . S
H1425 C1400 0.950 . S
H1426 C1402 0.950 . S
H1427 C1403 0.949 . S
H1428 C1405 0.950 . S
H1429 C1407 0.950 . S
C1430 C1431 1.349 . S
C1430 C1432 1.327 . S
C1430 H1455 0.950 . S
C1431 C1430 1.349 . S
C1431 C1447 1.349 . S
C1432 C1430 1.327 . S
C1432 C1451 1.429 . S
C1432 H1456 0.950 . S
C1433 C1450 1.574 . S
C1433 C1452 1.368 . S
C1433 H1457 0.949 . S
H1434 C1438 0.949 . S
C1435 C1436 1.349 . S
C1435 C1437 1.327 . S
C1435 H1458 0.950 . S
C1436 C1435 1.349 . S
C1436 C1448 1.349 . S
C1437 C1435 1.327 . S
C1437 C1453 1.429 . S
C1437 H1459 0.950 . S
C1438 H1434 0.949 . S
C1438 C1446 1.574 . S
C1438 C1454 1.368 . S
H1439 C1447 0.950 . S
H1440 C1445 0.950 . S
H1441 C1446 0.949 . S
H1442 C1448 0.950 . S
H1443 C1449 0.950 . S
H1444 C1450 0.949 . S
C1445 H1440 0.950 . S
C1445 C1447 1.327 . S
C1445 C1451 1.429 . S
C1446 C1438 1.574 . S
C1446 H1441 0.949 . S
C1446 C1452 1.368 . S
C1447 C1431 1.349 . S
C1447 H1439 0.950 . S
C1447 C1445 1.327 . S
C1448 C1436 1.349 . S
C1448 H1442 0.950 . S
C1448 C1449 1.327 . S
C1449 H1443 0.950 . S
C1449 C1448 1.327 . S
C1449 C1453 1.429 . S
C1450 C1433 1.574 . S
C1450 H1444 0.949 . S
C1450 C1454 1.368 . S
C1451 C1432 1.429 . S
C1451 C1445 1.429 . S
C1451 C1452 1.523 . S
C1452 C1433 1.368 . S
C1452 C1446 1.368 . S
C1452 C1451 1.523 . S
C1453 C1437 1.429 . S
C1453 C1449 1.429 . S
C1453 C1454 1.523 . S
C1454 C1438 1.368 . S
C1454 C1450 1.368 . S
C1454 C1453 1.523 . S
H1455 C1430 0.950 . S
H1456 C1432 0.950 . S
H1457 C1433 0.949 . S
H1458 C1435 0.950 . S
H1459 C1437 0.950 . S
C1460 C1461 1.349 . S
C1460 C1462 1.327 . S
C1460 H1485 0.950 . S
C1461 C1460 1.349 . S
C1461 C1477 1.349 . S
C1462 C1460 1.327 . S
C1462 C1481 1.429 . S
C1462 H1486 0.950 . S
C1463 C1480 1.574 . S
C1463 C1482 1.368 . S
C1463 H1487 0.949 . S
H1464 C1468 0.949 . S
C1465 C1466 1.349 . S
C1465 C1467 1.327 . S
C1465 H1488 0.950 . S
C1466 C1465 1.349 . S
C1466 C1478 1.349 . S
C1467 C1465 1.327 . S
C1467 C1483 1.429 . S
C1467 H1489 0.950 . S
C1468 H1464 0.949 . S
C1468 C1476 1.574 . S
C1468 C1484 1.368 . S
H1469 C1477 0.950 . S
H1470 C1475 0.950 . S
H1471 C1476 0.949 . S
H1472 C1478 0.950 . S
H1473 C1479 0.950 . S
H1474 C1480 0.949 . S
C1475 H1470 0.950 . S
C1475 C1477 1.327 . S
C1475 C1481 1.429 . S
C1476 C1468 1.574 . S
C1476 H1471 0.949 . S
C1476 C1482 1.368 . S
C1477 C1461 1.349 . S
C1477 H1469 0.950 . S
C1477 C1475 1.327 . S
C1478 C1466 1.349 . S
C1478 H1472 0.950 . S
C1478 C1479 1.327 . S
C1479 H1473 0.950 . S
C1479 C1478 1.327 . S
C1479 C1483 1.429 . S
C1480 C1463 1.574 . S
C1480 H1474 0.949 . S
C1480 C1484 1.368 . S
C1481 C1462 1.429 . S
C1481 C1475 1.429 . S
C1481 C1482 1.523 . S
C1482 C1463 1.368 . S
C1482 C1476 1.368 . S
C1482 C1481 1.523 . S
C1483 C1467 1.429 . S
C1483 C1479 1.429 . S
C1483 C1484 1.523 . S
C1484 C1468 1.368 . S
C1484 C1480 1.368 . S
C1484 C1483 1.523 . S
H1485 C1460 0.950 . S
H1486 C1462 0.950 . S
H1487 C1463 0.949 . S
H1488 C1465 0.950 . S
H1489 C1467 0.950 . S
C1490 C1491 1.349 . S
C1490 C1492 1.327 . S
C1490 H1515 0.950 . S
C1491 C1490 1.349 . S
C1491 C1507 1.349 . S
C1492 C1490 1.327 . S
C1492 C1511 1.429 . S
C1492 H1516 0.950 . S
C1493 C1510 1.574 . S
C1493 C1512 1.368 . S
C1493 H1517 0.949 . S
H1494 C1498 0.949 . S
C1495 C1496 1.349 . S
C1495 C1497 1.327 . S
C1495 H1518 0.950 . S
C1496 C1495 1.349 . S
C1496 C1508 1.349 . S
C1497 C1495 1.327 . S
C1497 C1513 1.429 . S
C1497 H1519 0.950 . S
C1498 H1494 0.949 . S
C1498 C1506 1.574 . S
C1498 C1514 1.368 . S
H1499 C1507 0.950 . S
H1500 C1505 0.950 . S
H1501 C1506 0.949 . S
H1502 C1508 0.950 . S
H1503 C1509 0.950 . S
H1504 C1510 0.949 . S
C1505 H1500 0.950 . S
C1505 C1507 1.327 . S
C1505 C1511 1.429 . S
C1506 C1498 1.574 . S
C1506 H1501 0.949 . S
C1506 C1512 1.368 . S
C1507 C1491 1.349 . S
C1507 H1499 0.950 . S
C1507 C1505 1.327 . S
C1508 C1496 1.349 . S
C1508 H1502 0.950 . S
C1508 C1509 1.327 . S
C1509 H1503 0.950 . S
C1509 C1508 1.327 . S
C1509 C1513 1.429 . S
C1510 C1493 1.574 . S
C1510 H1504 0.949 . S
C1510 C1514 1.368 . S
C1511 C1492 1.429 . S
C1511 C1505 1.429 . S
C1511 C1512 1.523 . S
C1512 C1493 1.368 . S
C1512 C1506 1.368 . S
C1512 C1511 1.523 . S
C1513 C1497 1.429 . S
C1513 C1509 1.429 . S
C1513 C1514 1.523 . S
C1514 C1498 1.368 . S
C1514 C1510 1.368 . S
C1514 C1513 1.523 . S
H1515 C1490 0.950 . S
H1516 C1492 0.950 . S
H1517 C1493 0.949 . S
H1518 C1495 0.950 . S
H1519 C1497 0.950 . S
C1520 C1521 1.349 . S
C1520 C1522 1.327 . S
C1520 H1545 0.950 . S
C1521 C1520 1.349 . S
C1521 C1537 1.349 . S
C1522 C1520 1.327 . S
C1522 C1541 1.429 . S
C1522 H1546 0.950 . S
C1523 C1540 1.574 . S
C1523 C1542 1.368 . S
C1523 H1547 0.949 . S
H1524 C1528 0.949 . S
C1525 C1526 1.349 . S
C1525 C1527 1.327 . S
C1525 H1548 0.950 . S
C1526 C1525 1.349 . S
C1526 C1538 1.349 . S
C1527 C1525 1.327 . S
C1527 C1543 1.429 . S
C1527 H1549 0.950 . S
C1528 H1524 0.949 . S
C1528 C1536 1.574 . S
C1528 C1544 1.368 . S
H1529 C1537 0.950 . S
H1530 C1535 0.950 . S
H1531 C1536 0.949 . S
H1532 C1538 0.950 . S
H1533 C1539 0.950 . S
H1534 C1540 0.949 . S
C1535 H1530 0.950 . S
C1535 C1537 1.327 . S
C1535 C1541 1.429 . S
C1536 C1528 1.574 . S
C1536 H1531 0.949 . S
C1536 C1542 1.368 . S
C1537 C1521 1.349 . S
C1537 H1529 0.950 . S
C1537 C1535 1.327 . S
C1538 C1526 1.349 . S
C1538 H1532 0.950 . S
C1538 C1539 1.327 . S
C1539 H1533 0.950 . S
C1539 C1538 1.327 . S
C1539 C1543 1.429 . S
C1540 C1523 1.574 . S
C1540 H1534 0.949 . S
C1540 C1544 1.368 . S
C1541 C1522 1.429 . S
C1541 C1535 1.429 . S
C1541 C1542 1.523 . S
C1542 C1523 1.368 . S
C1542 C1536 1.368 . S
C1542 C1541 1.523 . S
C1543 C1527 1.429 . S
C1543 C1539 1.429 . S
C1543 C1544 1.523 . S
C1544 C1528 1.368 . S
C1544 C1540 1.368 . S
C1544 C1543 1.523 . S
H1545 C1520 0.950 . S
H1546 C1522 0.950 . S
H1547 C1523 0.949 . S
H1548 C1525 0.950 . S
H1549 C1527 0.950 . S
C1550 C1551 1.349 . S
C1550 C1552 1.327 . S
C1550 H1575 0.950 . S
C1551 C1550 1.349 . S
C1551 C1567 1.349 . S
C1552 C1550 1.327 . S
C1552 C1571 1.429 . S
C1552 H1576 0.950 . S
C1553 C1570 1.574 . S
C1553 C1572 1.368 . S
C1553 H1577 0.949 . S
H1554 C1558 0.949 . S
C1555 C1556 1.349 . S
C1555 C1557 1.327 . S
C1555 H1578 0.950 . S
C1556 C1555 1.349 . S
C1556 C1568 1.349 . S
C1557 C1555 1.327 . S
C1557 C1573 1.429 . S
C1557 H1579 0.950 . S
C1558 H1554 0.949 . S
C1558 C1566 1.574 . S
C1558 C1574 1.368 . S
H1559 C1567 0.950 . S
H1560 C1565 0.950 . S
H1561 C1566 0.949 . S
H1562 C1568 0.950 . S
H1563 C1569 0.950 . S
H1564 C1570 0.949 . S
C1565 H1560 0.950 . S
C1565 C1567 1.327 . S
C1565 C1571 1.429 . S
C1566 C1558 1.574 . S
C1566 H1561 0.949 . S
C1566 C1572 1.368 . S
C1567 C1551 1.349 . S
C1567 H1559 0.950 . S
C1567 C1565 1.327 . S
C1568 C1556 1.349 . S
C1568 H1562 0.950 . S
C1568 C1569 1.327 . S
C1569 H1563 0.950 . S
C1569 C1568 1.327 . S
C1569 C1573 1.429 . S
C1570 C1553 1.574 . S
C1570 H1564 0.949 . S
C1570 C1574 1.368 . S
C1571 C1552 1.429 . S
C1571 C1565 1.429 . S
C1571 C1572 1.523 . S
C1572 C1553 1.368 . S
C1572 C1566 1.368 . S
C1572 C1571 1.523 . S
C1573 C1557 1.429 . S
C1573 C1569 1.429 . S
C1573 C1574 1.523 . S
C1574 C1558 1.368 . S
C1574 C1570 1.368 . S
C1574 C1573 1.523 . S
H1575 C1550 0.950 . S
H1576 C1552 0.950 . S
H1577 C1553 0.949 . S
H1578 C1555 0.950 . S
H1579 C1557 0.950 . S
C626 C556 1.749 . S
C621 C53 1.782 . S
C651 C115 1.726 . S
C656 C559 1.706 . S
C681 C177 1.693 . S
C686 C590 1.672 . S
C716 C525 1.755 . S
C711 C239 1.788 . S
C746 C560 2.046 . S
C741 C47 2.007 . S
C776 C591 1.991 . S
C771 C109 1.950 . S
C806 C516 1.949 . S
C801 C171 1.895 . S
C836 C547 1.966 . S
C831 C233 1.912 . S
C861 C29 1.348 . S
C866 C577 1.295 . S
C891 C277 1.337 . S
C896 C546 1.285 . S
C921 C153 1.254 . S
C926 C506 1.266 . S
C956 C599 1.284 . S
C951 C339 1.267 . S
C986 C527 1.142 . S
C981 C35 1.197 . S
C1011 C283 1.135 1_565 S
C1016 C526 1.119 . S
C1041 C159 1.116 . S
C1046 C619 1.101 . S
C1076 C558 1.119 . S
C1071 C345 1.173 . S
C1101 C419 1.946 . S
C1106 C618 1.988 . S
C1131 C301 1.724 . S
C1136 C497 1.704 . S
C1161 C487 1.682 . S
C1166 C528 1.662 . S
C1191 C363 1.758 . S
C1196 C587 1.725 . S
C1226 C498 1.833 . S
C1221 C425 1.847 . S
C1251 C295 1.977 . S
C1256 C529 2.019 . S
C1281 C481 1.903 . S
C1286 C578 1.958 . S
C1316 C609 1.968 . S
C1311 C357 1.913 . S
C1341 C407 1.253 . S
C1346 C515 1.195 . S
C1371 C91 1.327 . S
C1376 C608 1.274 . S
C1401 C463 1.264 . S
C1406 C568 1.278 . S
C1436 C537 1.279 . S
C1431 C215 1.264 . S
C1466 C589 1.249 . S
C1461 C401 1.300 . S
C1496 C588 1.122 . S
C1491 C97 1.138 . S
C1526 C557 1.088 . S
C1521 C469 1.103 . S
C1556 C496 1.133 . S
C1551 C221 1.187 . S
