# Generated by pormake.
# Topology ptr, (4,4)-cn, num edge types: 1
# Building blocks:
#     Node 0, Type 0, BuildingBlock: KUFVIS_clean_sbu_0, # of connection points: 4
#     Node 1, Type 0, BuildingBlock: KUFVIS_clean_sbu_0, # of connection points: 4
#     Node 2, Type 0, BuildingBlock: KUFVIS_clean_sbu_0, # of connection points: 4
#     Node 3, Type 0, BuildingBlock: KUFVIS_clean_sbu_0, # of connection points: 4
#     Node 4, Type 0, BuildingBlock: KUFVIS_clean_sbu_0, # of connection points: 4
#     Node 5, Type 0, BuildingBlock: KUFVIS_clean_sbu_0, # of connection points: 4
#     Node 6, Type 0, BuildingBlock: KUFVIS_clean_sbu_0, # of connection points: 4
#     Node 7, Type 0, BuildingBlock: KUFVIS_clean_sbu_0, # of connection points: 4
#     Node 8, Type 0, BuildingBlock: KUFVIS_clean_sbu_0, # of connection points: 4
#     Node 9, Type 0, BuildingBlock: KUFVIS_clean_sbu_0, # of connection points: 4
#     Node 10, Type 0, BuildingBlock: KUFVIS_clean_sbu_0, # of connection points: 4
#     Node 11, Type 0, BuildingBlock: KUFVIS_clean_sbu_0, # of connection points: 4
#     Node 12, Type 0, BuildingBlock: KUFVIS_clean_sbu_0, # of connection points: 4
#     Node 13, Type 0, BuildingBlock: KUFVIS_clean_sbu_0, # of connection points: 4
#     Node 14, Type 0, BuildingBlock: KUFVIS_clean_sbu_0, # of connection points: 4
#     Node 15, Type 0, BuildingBlock: KUFVIS_clean_sbu_0, # of connection points: 4
#     Node 16, Type 0, BuildingBlock: KUFVIS_clean_sbu_0, # of connection points: 4
#     Node 17, Type 0, BuildingBlock: KUFVIS_clean_sbu_0, # of connection points: 4
#     Node 18, Type 1, BuildingBlock: MUDLON_clean_linker_0, # of connection points: 4
#     Node 19, Type 1, BuildingBlock: MUDLON_clean_linker_0, # of connection points: 4
#     Node 20, Type 1, BuildingBlock: MUDLON_clean_linker_0, # of connection points: 4
#     Node 21, Type 1, BuildingBlock: MUDLON_clean_linker_0, # of connection points: 4
#     Node 22, Type 1, BuildingBlock: MUDLON_clean_linker_0, # of connection points: 4
#     Node 23, Type 1, BuildingBlock: MUDLON_clean_linker_0, # of connection points: 4
#     Node 24, Type 1, BuildingBlock: MUDLON_clean_linker_0, # of connection points: 4
#     Node 25, Type 1, BuildingBlock: MUDLON_clean_linker_0, # of connection points: 4
#     Node 26, Type 1, BuildingBlock: MUDLON_clean_linker_0, # of connection points: 4
#     Node 27, Type 1, BuildingBlock: MUDLON_clean_linker_0, # of connection points: 4
#     Node 28, Type 1, BuildingBlock: MUDLON_clean_linker_0, # of connection points: 4
#     Node 29, Type 1, BuildingBlock: MUDLON_clean_linker_0, # of connection points: 4
#     Node 30, Type 1, BuildingBlock: MUDLON_clean_linker_0, # of connection points: 4
#     Node 31, Type 1, BuildingBlock: MUDLON_clean_linker_0, # of connection points: 4
#     Node 32, Type 1, BuildingBlock: MUDLON_clean_linker_0, # of connection points: 4
#     Node 33, Type 1, BuildingBlock: MUDLON_clean_linker_0, # of connection points: 4
#     Node 34, Type 1, BuildingBlock: MUDLON_clean_linker_0, # of connection points: 4
#     Node 35, Type 1, BuildingBlock: MUDLON_clean_linker_0, # of connection points: 4
#     Edge 36, Type (0, 1), BuildingBlock: CIFDUS_clean_linker_0, # of connection points: 2
#     Edge 37, Type (0, 1), BuildingBlock: CIFDUS_clean_linker_0, # of connection points: 2
#     Edge 38, Type (0, 1), BuildingBlock: CIFDUS_clean_linker_0, # of connection points: 2
#     Edge 39, Type (0, 1), BuildingBlock: CIFDUS_clean_linker_0, # of connection points: 2
#     Edge 40, Type (0, 1), BuildingBlock: CIFDUS_clean_linker_0, # of connection points: 2
#     Edge 41, Type (0, 1), BuildingBlock: CIFDUS_clean_linker_0, # of connection points: 2
#     Edge 42, Type (0, 1), BuildingBlock: CIFDUS_clean_linker_0, # of connection points: 2
#     Edge 43, Type (0, 1), BuildingBlock: CIFDUS_clean_linker_0, # of connection points: 2
#     Edge 44, Type (0, 1), BuildingBlock: CIFDUS_clean_linker_0, # of connection points: 2
#     Edge 45, Type (0, 1), BuildingBlock: CIFDUS_clean_linker_0, # of connection points: 2
#     Edge 46, Type (0, 1), BuildingBlock: CIFDUS_clean_linker_0, # of connection points: 2
#     Edge 47, Type (0, 1), BuildingBlock: CIFDUS_clean_linker_0, # of connection points: 2
#     Edge 48, Type (0, 1), BuildingBlock: CIFDUS_clean_linker_0, # of connection points: 2
#     Edge 49, Type (0, 1), BuildingBlock: CIFDUS_clean_linker_0, # of connection points: 2
#     Edge 50, Type (0, 1), BuildingBlock: CIFDUS_clean_linker_0, # of connection points: 2
#     Edge 51, Type (0, 1), BuildingBlock: CIFDUS_clean_linker_0, # of connection points: 2
#     Edge 52, Type (0, 1), BuildingBlock: CIFDUS_clean_linker_0, # of connection points: 2
#     Edge 53, Type (0, 1), BuildingBlock: CIFDUS_clean_linker_0, # of connection points: 2
#     Edge 54, Type (0, 1), BuildingBlock: CIFDUS_clean_linker_0, # of connection points: 2
#     Edge 55, Type (0, 1), BuildingBlock: CIFDUS_clean_linker_0, # of connection points: 2
#     Edge 56, Type (0, 1), BuildingBlock: CIFDUS_clean_linker_0, # of connection points: 2
#     Edge 57, Type (0, 1), BuildingBlock: CIFDUS_clean_linker_0, # of connection points: 2
#     Edge 58, Type (0, 1), BuildingBlock: CIFDUS_clean_linker_0, # of connection points: 2
#     Edge 59, Type (0, 1), BuildingBlock: CIFDUS_clean_linker_0, # of connection points: 2
#     Edge 60, Type (0, 1), BuildingBlock: CIFDUS_clean_linker_0, # of connection points: 2
#     Edge 61, Type (0, 1), BuildingBlock: CIFDUS_clean_linker_0, # of connection points: 2
#     Edge 62, Type (0, 1), BuildingBlock: CIFDUS_clean_linker_0, # of connection points: 2
#     Edge 63, Type (0, 1), BuildingBlock: CIFDUS_clean_linker_0, # of connection points: 2
#     Edge 64, Type (0, 1), BuildingBlock: CIFDUS_clean_linker_0, # of connection points: 2
#     Edge 65, Type (0, 1), BuildingBlock: CIFDUS_clean_linker_0, # of connection points: 2
#     Edge 66, Type (0, 1), BuildingBlock: CIFDUS_clean_linker_0, # of connection points: 2
#     Edge 67, Type (0, 1), BuildingBlock: CIFDUS_clean_linker_0, # of connection points: 2
#     Edge 68, Type (0, 1), BuildingBlock: CIFDUS_clean_linker_0, # of connection points: 2
#     Edge 69, Type (0, 1), BuildingBlock: CIFDUS_clean_linker_0, # of connection points: 2
#     Edge 70, Type (0, 1), BuildingBlock: CIFDUS_clean_linker_0, # of connection points: 2
#     Edge 71, Type (0, 1), BuildingBlock: CIFDUS_clean_linker_0, # of connection points: 2
#     Edge 72, Type (0, 1), BuildingBlock: CIFDUS_clean_linker_0, # of connection points: 2
#     Edge 73, Type (0, 1), BuildingBlock: CIFDUS_clean_linker_0, # of connection points: 2
#     Edge 74, Type (0, 1), BuildingBlock: CIFDUS_clean_linker_0, # of connection points: 2
#     Edge 75, Type (0, 1), BuildingBlock: CIFDUS_clean_linker_0, # of connection points: 2
#     Edge 76, Type (0, 1), BuildingBlock: CIFDUS_clean_linker_0, # of connection points: 2
#     Edge 77, Type (0, 1), BuildingBlock: CIFDUS_clean_linker_0, # of connection points: 2
#     Edge 78, Type (0, 1), BuildingBlock: CIFDUS_clean_linker_0, # of connection points: 2
#     Edge 79, Type (0, 1), BuildingBlock: CIFDUS_clean_linker_0, # of connection points: 2
#     Edge 80, Type (0, 1), BuildingBlock: CIFDUS_clean_linker_0, # of connection points: 2
#     Edge 81, Type (0, 1), BuildingBlock: CIFDUS_clean_linker_0, # of connection points: 2
#     Edge 82, Type (0, 1), BuildingBlock: CIFDUS_clean_linker_0, # of connection points: 2
#     Edge 83, Type (0, 1), BuildingBlock: CIFDUS_clean_linker_0, # of connection points: 2
#     Edge 84, Type (0, 1), BuildingBlock: CIFDUS_clean_linker_0, # of connection points: 2
#     Edge 85, Type (0, 1), BuildingBlock: CIFDUS_clean_linker_0, # of connection points: 2
#     Edge 86, Type (0, 1), BuildingBlock: CIFDUS_clean_linker_0, # of connection points: 2
#     Edge 87, Type (0, 1), BuildingBlock: CIFDUS_clean_linker_0, # of connection points: 2
#     Edge 88, Type (0, 1), BuildingBlock: CIFDUS_clean_linker_0, # of connection points: 2
#     Edge 89, Type (0, 1), BuildingBlock: CIFDUS_clean_linker_0, # of connection points: 2
#     Edge 90, Type (0, 1), BuildingBlock: CIFDUS_clean_linker_0, # of connection points: 2
#     Edge 91, Type (0, 1), BuildingBlock: CIFDUS_clean_linker_0, # of connection points: 2
#     Edge 92, Type (0, 1), BuildingBlock: CIFDUS_clean_linker_0, # of connection points: 2
#     Edge 93, Type (0, 1), BuildingBlock: CIFDUS_clean_linker_0, # of connection points: 2
#     Edge 94, Type (0, 1), BuildingBlock: CIFDUS_clean_linker_0, # of connection points: 2
#     Edge 95, Type (0, 1), BuildingBlock: CIFDUS_clean_linker_0, # of connection points: 2
#     Edge 96, Type (0, 1), BuildingBlock: CIFDUS_clean_linker_0, # of connection points: 2
#     Edge 97, Type (0, 1), BuildingBlock: CIFDUS_clean_linker_0, # of connection points: 2
#     Edge 98, Type (0, 1), BuildingBlock: CIFDUS_clean_linker_0, # of connection points: 2
#     Edge 99, Type (0, 1), BuildingBlock: CIFDUS_clean_linker_0, # of connection points: 2
#     Edge 100, Type (0, 1), BuildingBlock: CIFDUS_clean_linker_0, # of connection points: 2
#     Edge 101, Type (0, 1), BuildingBlock: CIFDUS_clean_linker_0, # of connection points: 2
#     Edge 102, Type (0, 1), BuildingBlock: CIFDUS_clean_linker_0, # of connection points: 2
#     Edge 103, Type (0, 1), BuildingBlock: CIFDUS_clean_linker_0, # of connection points: 2
#     Edge 104, Type (0, 1), BuildingBlock: CIFDUS_clean_linker_0, # of connection points: 2
#     Edge 105, Type (0, 1), BuildingBlock: CIFDUS_clean_linker_0, # of connection points: 2
#     Edge 106, Type (0, 1), BuildingBlock: CIFDUS_clean_linker_0, # of connection points: 2
#     Edge 107, Type (0, 1), BuildingBlock: CIFDUS_clean_linker_0, # of connection points: 2
# Relax obj value: 0.036
# Max RMSD: 0.126
# Mean RMSD: 0.072
data_MOF--net-ptr--node1-KUFVIS_clean_sbu_0--node2-MUDLON_clean_linker_0--edge1-CIFDUS_clean_linker_0
_symmetry_space_group_name_H-M    P1
_symmetry_Int_Tables_number       1
_symmetry_cell_setting            triclinic
loop_
_symmetry_equiv_pos_as_xyz
'x, y, z'
_cell_length_a     94.900114
_cell_length_b     94.477376
_cell_length_c     57.676988
_cell_angle_alpha  89.722553
_cell_angle_beta   90.705956
_cell_angle_gamma 119.46922
loop_
_atom_site_label
_atom_site_type_symbol
_atom_site_fract_x
_atom_site_fract_y
_atom_site_fract_z
_atom_type_partial_charge
Mn0 Mn 0.99667 0.36164 0.00084 0.0
Mn1 Mn 0.03163 0.39741 0.00089 0.0
C2 C 0.99951 0.38194 0.9758 0.0
C3 C 0.98183 0.33487 0.98784 0.0
C4 C 0.00575 0.3881 0.03751 0.0
O5 O 0.01219 0.35666 0.01889 0.0
O6 O 0.03551 0.38029 0.01512 0.0
C7 C 0.04974 0.38887 0.96757 0.0
N8 N 0.04369 0.39868 0.97392 0.0
C9 C 0.05436 0.41513 0.93978 0.0
C10 C 0.06081 0.40528 0.93296 0.0
C11 C 0.05846 0.39207 0.9469 0.0
C12 C 0.04582 0.41138 0.96059 0.0
H13 H 0.04789 0.37865 0.97818 0.0
C14 C 0.02742 0.3655 0.02201 0.0
O15 O 0.9782 0.33943 0.00702 0.0
O16 O 0.99413 0.34577 0.97649 0.0
N17 N 0.02987 0.41508 0.98755 0.0
C18 C 0.02229 0.42298 0.99609 0.0
C19 C 0.02313 0.43627 0.98388 0.0
C20 C 0.03187 0.44139 0.96317 0.0
C21 C 0.03979 0.43325 0.95492 0.0
C22 C 0.03863 0.42016 0.96792 0.0
H23 H 0.01555 0.4191 0.01199 0.0
O24 O 0.98526 0.37008 0.98078 0.0
O25 O 0.01177 0.38129 0.98508 0.0
O26 O 0.99548 0.37446 0.02858 0.0
O27 O 0.01972 0.39731 0.02891 0.0
C28 C 0.04855 0.43741 0.93411 0.0
C29 C 0.05581 0.42835 0.92653 0.0
H30 H 0.06747 0.40766 0.91697 0.0
H31 H 0.06333 0.38436 0.94169 0.0
H32 H 0.017 0.44251 0.99038 0.0
H33 H 0.03235 0.45154 0.95369 0.0
H34 H 0.04958 0.44742 0.92363 0.0
H35 H 0.06232 0.43153 0.91033 0.0
Mn36 Mn 0.64115 0.64 0.02276 0.0
Mn37 Mn 0.645 0.60642 0.02754 0.0
C38 C 0.62746 0.62118 0.05145 0.0
C39 C 0.6507 0.66732 0.03189 0.0
C40 C 0.62435 0.61062 0.99037 0.0
O41 O 0.66111 0.64558 0.00366 0.0
O42 O 0.66395 0.62362 0.01068 0.0
C43 C 0.67373 0.61926 0.05861 0.0
N44 N 0.65799 0.60811 0.05409 0.0
C45 C 0.65602 0.59414 0.08993 0.0
C46 C 0.67225 0.60542 0.0949 0.0
C47 C 0.68113 0.61805 0.07919 0.0
C48 C 0.64933 0.59591 0.06909 0.0
H49 H 0.68058 0.62902 0.04661 0.0
C50 C 0.66883 0.63774 0.00184 0.0
O51 O 0.64159 0.66072 0.01372 0.0
O52 O 0.65438 0.65815 0.04442 0.0
N53 N 0.62762 0.5889 0.04372 0.0
C54 C 0.61184 0.57965 0.03704 0.0
C55 C 0.60115 0.56682 0.05126 0.0
C56 C 0.60682 0.56355 0.07209 0.0
C57 C 0.62316 0.57311 0.07847 0.0
C58 C 0.63327 0.58568 0.06353 0.0
H59 H 0.60739 0.58213 0.02108 0.0
O60 O 0.62271 0.63133 0.04487 0.0
O61 O 0.64018 0.62249 0.04122 0.0
O62 O 0.62649 0.62439 0.99726 0.0
O63 O 0.63111 0.60328 1.00009 0.0
C64 C 0.62972 0.57091 0.09934 0.0
C65 C 0.64614 0.58142 0.10507 0.0
H66 H 0.67797 0.60458 0.11082 0.0
H67 H 0.69363 0.62684 0.08296 0.0
H68 H 0.58855 0.55952 0.04624 0.0
H69 H 0.5985 0.55376 0.08314 0.0
H70 H 0.62218 0.56134 0.11127 0.0
H71 H 0.65098 0.57976 0.12132 0.0
Mn72 Mn 0.36232 0.00358 0.02003 0.0
Mn73 Mn 0.39989 0.03627 0.02276 0.0
C74 C 0.38173 0.00322 0.04418 0.0
C75 C 0.3357 0.9898 0.03331 0.0
C76 C 0.38856 0.01157 0.98367 0.0
O77 O 0.35911 0.0213 0.00494 0.0
O78 O 0.38438 0.04244 0.00865 0.0
C79 C 0.39316 0.0553 0.05715 0.0
N80 N 0.40194 0.04819 0.05047 0.0
C81 C 0.41862 0.05764 0.08488 0.0
C82 C 0.40983 0.06515 0.09206 0.0
C83 C 0.39701 0.06393 0.07816 0.0
C84 C 0.41423 0.04921 0.06377 0.0
H85 H 0.38329 0.05438 0.04653 0.0
C86 C 0.36951 0.03629 0.00234 0.0
O87 O 0.33937 0.9866 0.0131 0.0
O88 O 0.34734 1.00121 0.04531 0.0
N89 N 0.41626 0.03242 0.03618 0.0
C90 C 0.42296 0.02374 0.02744 0.0
C91 C 0.43567 0.02334 0.03958 0.0
C92 C 0.44147 0.03198 0.06047 0.0
C93 C 0.43452 0.04098 0.06901 0.0
C94 C 0.42193 0.041 0.05609 0.0
H95 H 0.41847 0.01696 0.01151 0.0
O96 O 0.3692 0.98977 0.03763 0.0
O97 O 0.38243 0.0166 0.03682 0.0
O98 O 0.37419 1.00244 0.99105 0.0
O99 O 0.39899 0.02447 0.99414 0.0
C100 C 0.43937 0.04967 0.09006 0.0
C101 C 0.43141 0.05798 0.09801 0.0
H102 H 0.41272 0.07178 0.10828 0.0
H103 H 0.39011 0.06963 0.08363 0.0
H104 H 0.44093 0.01631 0.03292 0.0
H105 H 0.45117 0.03151 0.06991 0.0
H106 H 0.44902 0.04982 0.10048 0.0
H107 H 0.43507 0.0644 0.11441 0.0
Mn108 Mn 1.00198 0.64481 0.00166 0.0
Mn109 Mn 0.03699 0.64366 0.00489 0.0
C110 C 0.00565 0.6274 0.97776 0.0
C111 C 0.98702 0.65651 0.98712 0.0
C112 C 0.01009 0.62742 0.03991 0.0
O113 O 0.01712 0.66539 0.01969 0.0
O114 O 0.04044 0.66463 0.01785 0.0
C115 C 0.05626 0.66984 0.97151 0.0
N116 N 0.04997 0.65411 0.97847 0.0
C117 C 0.06245 0.64812 0.94675 0.0
C118 C 0.06914 0.66429 0.93932 0.0
C119 C 0.06599 0.67518 0.95171 0.0
C120 C 0.05285 0.64351 0.9666 0.0
H121 H 0.05385 0.67824 0.981 0.0
C122 C 0.03231 0.67159 0.02352 0.0
O123 O 0.9832 0.64844 0.00645 0.0
O124 O 0.99968 0.65805 0.97652 0.0
N125 N 0.03559 0.62414 0.99289 0.0
C126 C 0.02746 0.60876 0.00157 0.0
C127 C 0.02884 0.59625 0.99065 0.0
C128 C 0.0387 0.59971 0.97111 0.0
C129 C 0.04714 0.61568 0.96271 0.0
C130 C 0.04533 0.62766 0.97434 0.0
H131 H 0.01989 0.60603 0.0166 0.0
O132 O 0.99124 0.62509 0.98168 0.0
O133 O 0.01761 0.64019 0.98739 0.0
O134 O 0.99994 0.63061 0.0298 0.0
O135 O 0.0244 0.63228 0.03262 0.0
C136 C 0.05703 0.62012 0.94298 0.0
C137 C 0.06468 0.63633 0.93501 0.0
H138 H 0.0766 0.66844 0.92402 0.0
H139 H 0.07104 0.68766 0.94602 0.0
H140 H 0.0223 0.58396 0.99725 0.0
H141 H 0.03963 0.59001 0.96263 0.0
H142 H 0.05861 0.61112 0.93358 0.0
H143 H 0.07203 0.63954 0.9196 0.0
Mn144 Mn 0.36406 0.36421 0.02652 0.0
Mn145 Mn 0.39827 0.36159 0.03204 0.0
C146 C 0.38367 0.38032 0.05347 0.0
C147 C 0.33705 0.35592 0.03511 0.0
C148 C 0.39214 0.3791 0.99247 0.0
O149 O 0.35816 0.34275 0.01035 0.0
O150 O 0.38098 0.34147 0.01717 0.0
C151 C 0.38735 0.33476 0.06603 0.0
N152 N 0.39797 0.35032 0.05976 0.0
C153 C 0.41445 0.35427 0.09377 0.0
C154 C 0.40372 0.33826 0.10056 0.0
C155 C 0.39007 0.3285 0.08668 0.0
C156 C 0.41108 0.35986 0.07305 0.0
H157 H 0.37693 0.3272 0.05529 0.0
C158 C 0.36655 0.33555 0.009 0.0
O159 O 0.34362 0.36326 0.01591 0.0
O160 O 0.34602 0.35284 0.04914 0.0
N161 N 0.41605 0.38017 0.04615 0.0
C162 C 0.42445 0.39569 0.03805 0.0
C163 C 0.43794 0.40731 0.05062 0.0
C164 C 0.4428 0.40279 0.07116 0.0
C165 C 0.43408 0.3867 0.07901 0.0
C166 C 0.42068 0.37568 0.06583 0.0
H167 H 0.4208 0.39919 0.0222 0.0
O168 O 0.37318 0.38431 0.04583 0.0
O169 O 0.3823 0.36683 0.04535 0.0
O170 O 0.37865 0.37714 0.99958 0.0
O171 O 0.40024 0.37349 0.00296 0.0
C172 C 0.43796 0.38122 0.09961 0.0
C173 C 0.42818 0.36501 0.10695 0.0
H174 H 0.40577 0.33339 0.1165 0.0
H175 H 0.38171 0.31615 0.09185 0.0
H176 H 0.4446 0.41971 0.04447 0.0
H177 H 0.45319 0.4118 0.08085 0.0
H178 H 0.44826 0.38946 0.11016 0.0
H179 H 0.43112 0.36103 0.12303 0.0
Mn180 Mn 0.63986 1.00147 0.99491 0.0
Mn181 Mn 0.60392 0.9667 0.99754 0.0
C182 C 0.61901 0.99748 0.96986 0.0
C183 C 0.66615 0.01629 0.98068 0.0
C184 C 0.61455 0.99424 0.03227 0.0
O185 O 0.64529 0.98635 0.01335 0.0
O186 O 0.62116 0.96329 0.01216 0.0
C187 C 0.61082 0.94605 0.96648 0.0
N188 N 0.60156 0.95286 0.97201 0.0
C189 C 0.58332 0.9394 0.94003 0.0
C190 C 0.59262 0.93217 0.93406 0.0
C191 C 0.60646 0.93556 0.9473 0.0
C192 C 0.58825 0.94973 0.95934 0.0
H193 H 0.62145 0.9486 0.97663 0.0
C194 C 0.63622 0.97126 0.01779 0.0
O195 O 0.66206 0.02033 0.99991 0.0
O196 O 0.65509 0.00346 0.9701 0.0
N197 N 0.58623 0.96817 0.98377 0.0
C198 C 0.5793 0.97707 0.99079 0.0
C199 C 0.56578 0.97572 0.97865 0.0
C200 C 0.55942 0.96514 0.95959 0.0
C201 C 0.56667 0.95599 0.95283 0.0
C202 C 0.58011 0.95782 0.9656 0.0
H203 H 0.58414 0.98524 0.00541 0.0
O204 O 0.63071 0.01204 0.97428 0.0
O205 O 0.61989 0.98563 0.98013 0.0
O206 O 0.62808 0.00384 0.02293 0.0
O207 O 0.60483 0.98008 0.02434 0.0
C208 C 0.56127 0.94537 0.93364 0.0
C209 C 0.56957 0.93705 0.92728 0.0
H210 H 0.58934 0.92414 0.91922 0.0
H211 H 0.61374 0.93008 0.94274 0.0
H212 H 0.56028 0.98285 0.98395 0.0
H213 H 0.54906 0.96422 0.95018 0.0
H214 H 0.55092 0.94372 0.92341 0.0
H215 H 0.56547 0.92913 0.91226 0.0
Mn216 Mn 0.67842 0.69591 0.33012 0.0
Mn217 Mn 0.71367 0.731 0.32412 0.0
C218 C 0.68078 0.71432 0.30173 0.0
C219 C 0.66224 0.66844 0.32063 0.0
C220 C 0.68971 0.72507 0.36257 0.0
O221 O 0.69457 0.69171 0.34833 0.0
O222 O 0.71778 0.71465 0.34018 0.0
C223 C 0.73028 0.72005 0.29165 0.0
N224 N 0.72463 0.73038 0.29692 0.0
C225 C 0.73473 0.74503 0.26121 0.0
C226 C 0.74078 0.73463 0.2555 0.0
C227 C 0.73851 0.72206 0.27076 0.0
C228 C 0.72674 0.74251 0.28236 0.0
H229 H 0.7285 0.71033 0.30329 0.0
C230 C 0.70998 0.70047 0.34929 0.0
O231 O 0.65971 0.67443 0.33935 0.0
O232 O 0.67435 0.67826 0.308 0.0
N233 N 0.71147 0.74779 0.30861 0.0
C234 C 0.70376 0.7559 0.31582 0.0
C235 C 0.70419 0.76837 0.30197 0.0
C236 C 0.71263 0.77245 0.28097 0.0
C237 C 0.72059 0.76403 0.27402 0.0
C238 C 0.71981 0.75177 0.28859 0.0
H239 H 0.69722 0.75279 0.33191 0.0
O240 O 0.66663 0.70345 0.30891 0.0
O241 O 0.69312 0.71397 0.3112 0.0
O242 O 0.67876 0.71094 0.35603 0.0
O243 O 0.70323 0.73313 0.35225 0.0
C244 C 0.7289 0.76703 0.2529 0.0
C245 C 0.73596 0.75754 0.2465 0.0
H246 H 0.74703 0.73607 0.23933 0.0
H247 H 0.74305 0.71392 0.26641 0.0
H248 H 0.69797 0.77477 0.30742 0.0
H249 H 0.71278 0.78196 0.27022 0.0
H250 H 0.72967 0.77641 0.24126 0.0
H251 H 0.74207 0.75977 0.23004 0.0
Mn252 Mn 0.30995 0.97557 0.35257 0.0
Mn253 Mn 0.30739 0.9393 0.36403 0.0
C254 C 0.29234 0.95853 0.38059 0.0
C255 C 0.3215 0.00344 0.35973 0.0
C256 C 0.29237 0.9457 0.3212 0.0
O257 O 0.33063 0.9779 0.33811 0.0
O258 O 0.32852 0.95406 0.34955 0.0
C259 C 0.33308 0.94988 0.40009 0.0
N260 N 0.31738 0.9402 0.39338 0.0
C261 C 0.31054 0.92726 0.43076 0.0
C262 C 0.32666 0.937 0.43801 0.0
C263 C 0.33797 0.94839 0.42263 0.0
C264 C 0.30638 0.92927 0.40808 0.0
H265 H 0.34179 0.9587 0.38836 0.0
C266 C 0.3362 0.96804 0.33983 0.0
O267 O 0.31403 0.99707 0.3403 0.0
O268 O 0.32283 0.99374 0.37446 0.0
N269 N 0.28758 0.92395 0.37841 0.0
C270 C 0.27237 0.91599 0.36905 0.0
C271 C 0.25956 0.90438 0.38237 0.0
C272 C 0.26254 0.90099 0.40507 0.0
C273 C 0.27832 0.90923 0.41425 0.0
C274 C 0.29062 0.92058 0.4001 0.0
H275 H 0.27 0.91851 0.3516 0.0
O276 O 0.29001 0.96969 0.37111 0.0
O277 O 0.30483 0.95774 0.3734 0.0
O278 O 0.29623 0.96032 0.32626 0.0
O279 O 0.29637 0.93703 0.33378 0.0
C280 C 0.28228 0.90681 0.437 0.0
C281 C 0.29837 0.91585 0.44527 0.0
H282 H 0.33047 0.93594 0.45541 0.0
H283 H 0.35041 0.95601 0.42814 0.0
H284 H 0.24741 0.8981 0.37518 0.0
H285 H 0.25261 0.89216 0.41537 0.0
H286 H 0.273 0.8982 0.4484 0.0
H287 H 0.30122 0.91405 0.46291 0.0
Mn288 Mn 0.02891 0.33533 0.35288 0.0
Mn289 Mn 0.064 0.37059 0.3602 0.0
C290 C 0.04714 0.33765 0.38175 0.0
C291 C 1.0015 0.31873 0.36156 0.0
C292 C 0.05858 0.34656 0.32174 0.0
O293 O 0.02462 0.35162 0.33509 0.0
O294 O 0.04829 0.3745 0.34206 0.0
C295 C 0.05179 0.38719 0.39068 0.0
N296 N 0.06236 0.38165 0.38679 0.0
C297 C 0.07551 0.39177 0.42373 0.0
C298 C 0.06483 0.39769 0.42807 0.0
C299 C 0.0529 0.39535 0.4115 0.0
C300 C 0.07384 0.38376 0.40267 0.0
H301 H 0.04258 0.38538 0.378 0.0
C302 C 0.03404 0.36693 0.33308 0.0
O303 O 0.00763 0.31653 0.3428 0.0
O304 O 0.01115 0.33082 0.3747 0.0
N305 N 0.0804 0.36878 0.37747 0.0
C306 C 0.08935 0.3618 0.37099 0.0
C307 C 0.10165 0.36279 0.38584 0.0
C308 C 0.10473 0.37109 0.40707 0.0
C309 C 0.09552 0.37838 0.4132 0.0
C310 C 0.0835 0.37709 0.39763 0.0
H311 H 0.08706 0.35543 0.35468 0.0
O312 O 0.03648 0.32345 0.37401 0.0
O313 O 0.04679 0.35003 0.37243 0.0
O314 O 0.04409 0.33599 0.32704 0.0
O315 O 0.06688 0.35982 0.33296 0.0
C316 C 0.09761 0.38664 0.43434 0.0
C317 C 0.08757 0.39329 0.43963 0.0
H318 H 0.06561 0.40394 0.44414 0.0
H319 H 0.04456 0.39981 0.41477 0.0
H320 H 0.10869 0.35712 0.38099 0.0
H321 H 0.11409 0.37166 0.4186 0.0
H322 H 0.10673 0.38773 0.4468 0.0
H323 H 0.08915 0.39941 0.45607 0.0
Mn324 Mn 0.67515 0.98478 0.33482 0.0
Mn325 Mn 0.70982 0.98302 0.3315 0.0
C326 C 0.67796 0.96891 0.30681 0.0
C327 C 0.65871 0.996 0.32529 0.0
C328 C 0.68426 0.96464 0.36743 0.0
O329 O 0.69108 0.00469 0.35355 0.0
O330 O 0.71348 1.00233 0.34987 0.0
C331 C 0.72831 0.0124 0.30275 0.0
N332 N 0.72218 0.99614 0.3061 0.0
C333 C 0.73338 0.99352 0.27022 0.0
C334 C 0.73991 0.01025 0.26647 0.0
C335 C 0.73733 0.01972 0.28278 0.0
C336 C 0.72453 0.98691 0.29047 0.0
H337 H 0.72631 0.0197 0.31521 0.0
C338 C 0.70607 0.0096 0.35749 0.0
O339 O 0.65648 0.98748 0.34398 0.0
O340 O 0.67096 0.99861 0.31258 0.0
N341 N 0.70822 0.96504 0.31419 0.0
C342 C 0.70066 0.949 0.32004 0.0
C343 C 0.70182 0.93782 0.30533 0.0
C344 C 0.71087 0.94326 0.28491 0.0
C345 C 0.71877 0.95987 0.27947 0.0
C346 C 0.71727 0.97046 0.29487 0.0
H347 H 0.6937 0.94474 0.33571 0.0
O348 O 0.66369 0.96586 0.31324 0.0
O349 O 0.69018 0.98118 0.31684 0.0
O350 O 0.67465 0.96971 0.36081 0.0
O351 O 0.69777 0.96885 0.3577 0.0
C352 C 0.72784 0.9663 0.25916 0.0
C353 C 0.7351 0.9831 0.25451 0.0
H354 H 0.74683 0.01594 0.25105 0.0
H355 H 0.74227 0.03263 0.27995 0.0
H356 H 0.69569 0.92502 0.30966 0.0
H357 H 0.71158 0.93458 0.27348 0.0
H358 H 0.72913 0.9584 0.24686 0.0
H359 H 0.74188 0.98787 0.2387 0.0
Mn360 Mn 0.03166 0.69565 0.35222 0.0
Mn361 Mn 0.0688 0.69892 0.3553 0.0
C362 C 0.05077 0.71349 0.3783 0.0
C363 C 0.0046 0.68341 0.36338 0.0
C364 C 0.05892 0.71477 0.31752 0.0
O365 O 0.02823 0.67522 0.33547 0.0
O366 O 0.0533 0.67837 0.33925 0.0
C367 C 0.06087 0.67149 0.38734 0.0
N368 N 0.07004 0.68754 0.38203 0.0
C369 C 0.08625 0.69253 0.41664 0.0
C370 C 0.07703 0.67604 0.42242 0.0
C371 C 0.06425 0.66548 0.40774 0.0
C372 C 0.08228 0.69782 0.39613 0.0
H373 H 0.05105 0.66334 0.37608 0.0
C374 C 0.03852 0.67044 0.3323 0.0
O375 O 0.00937 0.69132 0.34399 0.0
O376 O 0.01542 0.68224 0.37593 0.0
N377 N 0.08517 0.71809 0.37037 0.0
C378 C 0.09242 0.73377 0.36282 0.0
C379 C 0.10514 0.74597 0.37591 0.0
C380 C 0.11045 0.74187 0.39641 0.0
C381 C 0.10302 0.72561 0.40359 0.0
C382 C 0.0904 0.71398 0.38983 0.0
H383 H 0.08844 0.73698 0.34702 0.0
O384 O 0.0387 0.71542 0.37172 0.0
O385 O 0.05123 0.70099 0.36972 0.0
O386 O 0.04453 0.7098 0.32462 0.0
O387 O 0.06886 0.7113 0.32767 0.0
C388 C 0.10746 0.7205 0.42406 0.0
C389 C 0.09907 0.70398 0.43059 0.0
H390 H 0.07959 0.67136 0.43815 0.0
H391 H 0.05704 0.65275 0.41213 0.0
H392 H 0.11084 0.75849 0.37023 0.0
H393 H 0.12019 0.75133 0.40654 0.0
H394 H 0.11712 0.72923 0.43511 0.0
H395 H 0.10242 0.70025 0.44656 0.0
Mn396 Mn 0.30844 0.33959 0.33627 0.0
Mn397 Mn 0.27425 0.30325 0.33296 0.0
C398 C 0.28802 0.33594 0.31075 0.0
C399 C 0.33468 0.35682 0.32342 0.0
C400 C 0.2812 0.32758 0.37171 0.0
O401 O 0.31488 0.32439 0.35234 0.0
O402 O 0.29189 0.30048 0.34758 0.0
C403 C 0.28506 0.28717 0.2992 0.0
N404 N 0.27446 0.29226 0.30535 0.0
C405 C 0.2592 0.28188 0.26989 0.0
C406 C 0.26989 0.27643 0.26325 0.0
C407 C 0.28288 0.27911 0.27796 0.0
C408 C 0.2619 0.28972 0.29135 0.0
H409 H 0.29511 0.28928 0.31039 0.0
C410 C 0.30662 0.30897 0.35459 0.0
O411 O 0.33 0.3591 0.34347 0.0
O412 O 0.3244 0.34428 0.3116 0.0
N413 N 0.25632 0.30414 0.31892 0.0
C414 C 0.24768 0.31099 0.32726 0.0
C415 C 0.23458 0.30989 0.31423 0.0
C416 C 0.23043 0.30168 0.29286 0.0
C417 C 0.23938 0.29457 0.28476 0.0
C418 C 0.25224 0.29595 0.29858 0.0
H419 H 0.25085 0.31739 0.34362 0.0
O420 O 0.29871 0.35043 0.31744 0.0
O421 O 0.28969 0.32403 0.3191 0.0
O422 O 0.29491 0.33865 0.3644 0.0
O423 O 0.2728 0.31391 0.36147 0.0
C424 C 0.23628 0.28648 0.26327 0.0
C425 C 0.24619 0.28015 0.25584 0.0
H426 H 0.26832 0.27031 0.2468 0.0
H427 H 0.29123 0.27501 0.2729 0.0
H428 H 0.22775 0.31544 0.32057 0.0
H429 H 0.22044 0.30102 0.28273 0.0
H430 H 0.22646 0.28528 0.25217 0.0
H431 H 0.24382 0.27416 0.23914 0.0
Mn432 Mn 0.33504 0.02922 0.66985 0.0
Mn433 Mn 0.37111 0.0637 0.66621 0.0
C434 C 0.33927 0.04792 0.641 0.0
C435 C 0.3188 1.00188 0.65988 0.0
C436 C 0.3457 0.05857 0.70189 0.0
O437 O 0.34985 0.02422 0.68981 0.0
O438 O 0.37368 0.04702 0.68421 0.0
C439 C 0.38828 0.05136 0.63724 0.0
N440 N 0.38301 0.06222 0.64073 0.0
C441 C 0.395 0.07614 0.60516 0.0
C442 C 0.40066 0.06517 0.60127 0.0
C443 C 0.39725 0.0527 0.61735 0.0
C444 C 0.3862 0.07425 0.62535 0.0
H445 H 0.38565 0.04172 0.64951 0.0
C446 C 0.36516 0.03272 0.69266 0.0
O447 O 0.3156 0.00795 0.67794 0.0
O448 O 0.33146 0.01159 0.64809 0.0
N449 N 0.3705 0.08077 0.64897 0.0
C450 C 0.36316 0.0896 0.6544 0.0
C451 C 0.36493 0.10223 0.63967 0.0
C452 C 0.37426 0.10571 0.61956 0.0
C453 C 0.38175 0.09651 0.61437 0.0
C454 C 0.37967 0.08415 0.6298 0.0
H455 H 0.35584 0.08687 0.66968 0.0
O456 O 0.32468 0.03741 0.64708 0.0
O457 O 0.35092 0.0471 0.65188 0.0
O458 O 0.33493 0.04439 0.69522 0.0
O459 O 0.35958 0.06657 0.69249 0.0
C460 C 0.39085 0.09885 0.59418 0.0
C461 C 0.39745 0.08866 0.58957 0.0
H462 H 0.4075 0.0661 0.58588 0.0
H463 H 0.4015 0.04413 0.6144 0.0
H464 H 0.35901 0.10919 0.64371 0.0
H465 H 0.37541 0.11532 0.60808 0.0
H466 H 0.3926 0.10827 0.58188 0.0
H467 H 0.40421 0.09041 0.57381 0.0
Mn468 Mn 0.98089 0.30892 0.68589 0.0
Mn469 Mn 0.9802 0.27296 0.69168 0.0
C470 C 0.96505 0.29058 0.71397 0.0
C471 C 0.99202 0.33644 0.69533 0.0
C472 C 0.96174 0.27949 0.65377 0.0
O473 O 1.00099 0.31278 0.66825 0.0
O474 O 0.99949 0.2884 0.67367 0.0
C475 C 0.00914 0.28435 0.72204 0.0
N476 N 0.99307 0.27414 0.71812 0.0
C477 C 0.9903 0.261 0.75496 0.0
C478 C 0.00685 0.27131 0.75933 0.0
C479 C 0.0163 0.28305 0.74282 0.0
C480 C 0.98385 0.26285 0.73393 0.0
H481 H 0.01643 0.29344 0.70944 0.0
C482 C 0.00635 0.30288 0.66548 0.0
O483 O 0.9836 0.33051 0.67641 0.0
O484 O 0.99441 0.32653 0.70823 0.0
N485 N 0.96228 0.25677 0.70871 0.0
C486 C 0.94642 0.24807 0.7021 0.0
C487 C 0.93528 0.23594 0.71682 0.0
C488 C 0.94059 0.23277 0.73806 0.0
C489 C 0.95701 0.24168 0.74431 0.0
C490 C 0.96757 0.25353 0.72884 0.0
H491 H 0.94228 0.25044 0.68578 0.0
O492 O 0.96184 0.3017 0.70667 0.0
O493 O 0.97749 0.29058 0.70475 0.0
O494 O 0.96616 0.29414 0.65962 0.0
O495 O 0.96635 0.27061 0.66457 0.0
C496 C 0.96328 0.23945 0.76543 0.0
C497 C 0.9799 0.24914 0.77078 0.0
H498 H 0.0124 0.27038 0.77536 0.0
H499 H 0.02906 0.2911 0.74611 0.0
H500 H 0.92263 0.2291 0.71187 0.0
H501 H 0.93193 0.22354 0.7495 0.0
H502 H 0.95538 0.23046 0.77781 0.0
H503 H 0.98454 0.24744 0.78719 0.0
Mn504 Mn 0.69188 0.66099 0.68591 0.0
Mn505 Mn 0.72778 0.69587 0.6837 0.0
C506 C 0.71206 0.6655 0.71258 0.0
C507 C 0.6652 0.64667 0.69852 0.0
C508 C 0.71834 0.66755 0.65075 0.0
O509 O 0.68683 0.6756 0.66558 0.0
O510 O 0.71081 0.69878 0.66712 0.0
C511 C 0.71998 0.71712 0.712 0.0
N512 N 0.7295 0.71037 0.70794 0.0
C513 C 0.74756 0.72549 0.7393 0.0
C514 C 0.73799 0.73268 0.74375 0.0
C515 C 0.7241 0.72841 0.73011 0.0
C516 C 0.74283 0.7143 0.72106 0.0
H517 H 0.70935 0.71395 0.70145 0.0
C518 C 0.69591 0.6906 0.66077 0.0
O519 O 0.66984 0.64197 0.68046 0.0
O520 O 0.67593 0.6597 0.70907 0.0
N521 N 0.74531 0.69504 0.69915 0.0
C522 C 0.75246 0.68602 0.6938 0.0
C523 C 0.76601 0.68813 0.70668 0.0
C524 C 0.77221 0.69963 0.7247 0.0
C525 C 0.76475 0.70889 0.72973 0.0
C526 C 0.75124 0.7062 0.71637 0.0
H527 H 0.74777 0.6772 0.67993 0.0
O528 O 0.7004 0.65089 0.70837 0.0
O529 O 0.71148 0.6772 0.70132 0.0
O530 O 0.70453 0.65799 0.65943 0.0
O531 O 0.72761 0.68192 0.65832 0.0
C532 C 0.77 0.72044 0.74777 0.0
C533 C 0.76144 0.72877 0.75252 0.0
H534 H 0.74111 0.74137 0.75773 0.0
H535 H 0.71661 0.73386 0.7335 0.0
H536 H 0.77168 0.68091 0.70273 0.0
H537 H 0.78262 0.70117 0.73466 0.0
H538 H 0.78042 0.72278 0.7584 0.0
H539 H 0.76541 0.73739 0.76671 0.0
Mn540 Mn 0.34007 0.31259 0.66963 0.0
Mn541 Mn 0.3749 0.3113 0.66509 0.0
C542 C 0.34176 0.29527 0.64302 0.0
C543 C 0.32404 0.32423 0.65978 0.0
C544 C 0.35087 0.29498 0.70381 0.0
O545 O 0.35665 0.33302 0.68697 0.0
O546 O 0.37951 0.33232 0.67922 0.0
C547 C 0.39116 0.33731 0.63022 0.0
N548 N 0.38552 0.32163 0.63699 0.0
C549 C 0.39487 0.31542 0.60192 0.0
C550 C 0.40088 0.33154 0.59463 0.0
C551 C 0.39896 0.34252 0.60882 0.0
C552 C 0.38716 0.31093 0.62338 0.0
H553 H 0.38968 0.34577 0.64106 0.0
C554 C 0.37205 0.33925 0.68777 0.0
O555 O 0.3219 0.31619 0.67895 0.0
O556 O 0.33582 0.32593 0.64672 0.0
N557 N 0.37245 0.29174 0.65156 0.0
C558 C 0.36551 0.27649 0.66078 0.0
C559 C 0.36612 0.26399 0.64855 0.0
C560 C 0.37401 0.26732 0.62713 0.0
C561 C 0.38131 0.28315 0.61819 0.0
C562 C 0.38039 0.29514 0.63122 0.0
H563 H 0.3595 0.27387 0.67728 0.0
O564 O 0.32777 0.29296 0.6496 0.0
O565 O 0.35436 0.30796 0.65162 0.0
O566 O 0.3401 0.29819 0.69614 0.0
O567 O 0.36462 0.29998 0.69431 0.0
C568 C 0.38927 0.28746 0.59672 0.0
C569 C 0.39602 0.30358 0.58857 0.0
H570 H 0.40688 0.3356 0.57812 0.0
H571 H 0.40349 0.35496 0.60326 0.0
H572 H 0.3605 0.25181 0.65559 0.0
H573 H 0.37433 0.25761 0.61765 0.0
H574 H 0.39007 0.27843 0.58618 0.0
H575 H 0.4019 0.30669 0.57188 0.0
Mn576 Mn 0.69462 0.02511 0.68247 0.0
Mn577 Mn 0.73017 0.02501 0.68198 0.0
C578 C 0.71512 0.04116 0.70824 0.0
C579 C 0.66831 0.01504 0.69627 0.0
C580 C 0.72119 0.04307 0.64646 0.0
O581 O 0.6889 0.00432 0.66468 0.0
O582 O 0.71309 0.0052 0.66602 0.0
C583 C 0.72126 0.99662 0.7125 0.0
N584 N 0.7311 0.01267 0.70772 0.0
C585 C 0.74719 0.0162 0.74204 0.0
C586 C 0.7373 0.99969 0.74724 0.0
C587 C 0.72426 0.98987 0.73242 0.0
C588 C 0.74369 0.02222 0.72185 0.0
H589 H 0.71118 0.98905 0.70122 0.0
C590 C 0.69807 0.99835 0.66015 0.0
O591 O 0.67268 0.0227 0.67662 0.0
O592 O 0.67896 0.0126 0.70717 0.0
N593 N 0.74766 0.04336 0.69709 0.0
C594 C 0.75542 0.05924 0.69037 0.0
C595 C 0.76842 0.07079 0.7038 0.0
C596 C 0.77338 0.06588 0.72387 0.0
C597 C 0.76532 0.04945 0.7303 0.0
C598 C 0.75251 0.03847 0.71616 0.0
H599 H 0.75162 0.0631 0.67502 0.0
O600 O 0.70394 0.04476 0.70288 0.0
O601 O 0.71403 0.02836 0.69824 0.0
O602 O 0.70724 0.03902 0.65459 0.0
O603 O 0.73059 0.03837 0.6553 0.0
C604 C 0.76924 0.04359 0.75048 0.0
C605 C 0.76019 0.02698 0.75635 0.0
H606 H 0.7395 0.99446 0.76268 0.0
H607 H 0.71652 0.97714 0.73639 0.0
H608 H 0.77456 0.08345 0.69875 0.0
H609 H 0.78329 0.07485 0.73433 0.0
H610 H 0.77904 0.05181 0.7618 0.0
H611 H 0.76317 0.02268 0.77209 0.0
Mn612 Mn 0.97617 0.67286 0.66844 0.0
Mn613 Mn 0.94043 0.63794 0.67134 0.0
C614 C 0.95536 0.66867 0.64329 0.0
C615 C 1.00248 0.68758 0.65448 0.0
C616 C 0.9509 0.66564 0.70571 0.0
O617 O 0.98172 0.65785 0.68702 0.0
O618 O 0.95774 0.6346 0.6859 0.0
C619 C 0.94718 0.61717 0.64032 0.0
N620 N 0.93795 0.62401 0.64588 0.0
C621 C 0.91955 0.61042 0.61412 0.0
C622 C 0.92881 0.60315 0.60813 0.0
C623 C 0.94271 0.60659 0.62124 0.0
C624 C 0.92458 0.62083 0.63335 0.0
H625 H 0.95786 0.61976 0.65038 0.0
C626 C 0.9728 0.64275 0.69144 0.0
O627 O 0.99829 0.69175 0.67351 0.0
O628 O 0.99148 0.67473 0.64387 0.0
N629 N 0.92271 0.63939 0.65769 0.0
C630 C 0.91591 0.64843 0.6646 0.0
C631 C 0.90241 0.64715 0.65246 0.0
C632 C 0.89595 0.63648 0.63351 0.0
C633 C 0.90307 0.62719 0.62684 0.0
C634 C 0.9165 0.62898 0.63959 0.0
H635 H 0.92083 0.65665 0.67916 0.0
O636 O 0.96703 0.68327 0.6476 0.0
O637 O 0.95628 0.65688 0.6537 0.0
O638 O 0.96425 0.67542 0.69613 0.0
O639 O 0.94143 0.65132 0.69814 0.0
C640 C 0.89757 0.61649 0.60774 0.0
C641 C 0.90577 0.60806 0.60144 0.0
H642 H 0.92545 0.59505 0.59335 0.0
H643 H 0.94996 0.60108 0.61665 0.0
H644 H 0.89701 0.65438 0.65768 0.0
H645 H 0.8856 0.6356 0.6241 0.0
H646 H 0.88722 0.61487 0.59754 0.0
H647 H 0.9016 0.60009 0.58648 0.0
H648 H 0.23681 0.36941 0.16685 0.0
N649 N 0.22159 0.34526 0.13663 0.0
H650 H 0.24636 0.36782 0.20602 0.0
H651 H 0.21542 0.31745 0.15974 0.0
H652 H 0.22495 0.31579 0.19854 0.0
H653 H 0.21906 0.3168 0.12052 0.0
H654 H 0.23985 0.31458 0.0986 0.0
H655 H 0.24599 0.36894 0.11403 0.0
H656 H 0.26651 0.36679 0.09135 0.0
H657 H 0.21149 0.36627 0.12719 0.0
H658 H 0.19454 0.31512 0.13571 0.0
H659 H 0.18353 0.36091 0.12507 0.0
H660 H 0.16657 0.30963 0.13473 0.0
H661 H 0.11089 0.34969 0.16097 0.0
H662 H 0.09932 0.35066 0.19775 0.0
H663 H 0.0785 0.29866 0.20479 0.0
H664 H 0.09015 0.29774 0.16738 0.0
H665 H 0.08049 0.30471 0.11329 0.0
H666 H 0.06786 0.31438 0.08485 0.0
H667 H 0.10705 0.36353 0.09492 0.0
H668 H 0.11996 0.35356 0.12214 0.0
H669 H 0.13477 0.34891 0.15507 0.0
H670 H 0.16225 0.3538 0.15163 0.0
H671 H 0.14467 0.30904 0.11302 0.0
N672 N 0.10702 0.32234 0.13854 0.0
H673 H 0.1169 0.30392 0.11736 0.0
C674 C 0.22557 0.34364 0.16029 0.0
C675 C 0.234 0.35766 0.17387 0.0
C676 C 0.23936 0.35672 0.1962 0.0
C677 C 0.23646 0.34168 0.20522 0.0
C678 C 0.22749 0.32755 0.1919 0.0
C679 C 0.22202 0.3285 0.16967 0.0
C680 C 0.23111 0.34312 0.11917 0.0
C681 C 0.22923 0.32775 0.11397 0.0
C682 C 0.24113 0.32649 0.10144 0.0
C683 C 0.25487 0.34052 0.09345 0.0
C684 C 0.25602 0.35575 0.09715 0.0
C685 C 0.2443 0.35701 0.11002 0.0
C686 C 0.20512 0.34117 0.13171 0.0
C687 C 0.20169 0.35385 0.12829 0.0
C688 C 0.1857 0.35076 0.12741 0.0
C689 C 0.17273 0.33486 0.13019 0.0
C690 C 0.1762 0.32202 0.13244 0.0
C691 C 0.19225 0.32514 0.13312 0.0
C692 C 0.10153 0.32358 0.16134 0.0
C693 C 0.10409 0.33848 0.1704 0.0
C694 C 0.09744 0.33904 0.19161 0.0
C695 C 0.088 0.32474 0.20429 0.0
C696 C 0.0856 0.30987 0.19537 0.0
C697 C 0.09235 0.30934 0.17414 0.0
C698 C 0.10104 0.32835 0.12001 0.0
C699 C 0.08646 0.31751 0.10897 0.0
C700 C 0.07919 0.32313 0.09293 0.0
C701 C 0.08626 0.33982 0.08781 0.0
C702 C 0.10127 0.35059 0.09823 0.0
C703 C 0.10864 0.34491 0.11403 0.0
C704 C 0.12361 0.32587 0.13667 0.0
C705 C 0.13668 0.34006 0.14595 0.0
C706 C 0.15254 0.34295 0.14372 0.0
C707 C 0.15578 0.33185 0.13195 0.0
C708 C 0.14268 0.31776 0.12245 0.0
C709 C 0.1268 0.31484 0.12482 0.0
H710 H 0.68505 0.76348 0.1361 0.0
N711 N 0.68094 0.78927 0.12799 0.0
H712 H 0.68192 0.7491 0.17188 0.0
H713 H 0.67254 0.79627 0.17066 0.0
H714 H 0.67137 0.78308 0.20722 0.0
H715 H 0.64966 0.76589 0.11967 0.0
H716 H 0.64096 0.74363 0.09164 0.0
H717 H 0.69787 0.78845 0.09222 0.0
H718 H 0.68935 0.76615 0.0643 0.0
H719 H 0.7059 0.81866 0.13502 0.0
H720 H 0.65458 0.79353 0.12126 0.0
H721 H 0.70592 0.84442 0.13714 0.0
H722 H 0.65452 0.81938 0.12185 0.0
H723 H 0.68043 0.92348 0.14207 0.0
H724 H 0.67748 0.9342 0.17826 0.0
H725 H 0.6808 0.89611 0.2153 0.0
H726 H 0.68312 0.88476 0.17877 0.0
H727 H 0.65071 0.88559 0.12853 0.0
H728 H 0.6387 0.89614 0.10044 0.0
H729 H 0.68554 0.92511 0.06915 0.0
H730 H 0.69746 0.91468 0.09771 0.0
H731 H 0.70542 0.89028 0.1185 0.0
H732 H 0.70429 0.86403 0.11508 0.0
H733 H 0.65659 0.84061 0.14527 0.0
N734 N 0.68303 0.89649 0.13453 0.0
H735 H 0.6576 0.86698 0.14732 0.0
C736 C 0.6787 0.78086 0.15001 0.0
C737 C 0.68167 0.76769 0.15136 0.0
C738 C 0.68021 0.75961 0.1722 0.0
C739 C 0.67661 0.76495 0.19289 0.0
C740 C 0.67387 0.77831 0.19174 0.0
C741 C 0.67471 0.78605 0.17059 0.0
C742 C 0.67444 0.77886 0.10792 0.0
C743 C 0.65817 0.76643 0.1069 0.0
C744 C 0.65325 0.75367 0.09097 0.0
C745 C 0.66455 0.75308 0.07601 0.0
C746 C 0.68044 0.76623 0.07578 0.0
C747 C 0.68529 0.77904 0.09153 0.0
C748 C 0.68038 0.80426 0.12758 0.0
C749 C 0.69468 0.81881 0.13199 0.0
C750 C 0.69464 0.83354 0.13304 0.0
C751 C 0.68025 0.83416 0.12937 0.0
C752 C 0.66583 0.81946 0.12497 0.0
C753 C 0.66586 0.80463 0.12429 0.0
C754 C 0.68087 0.90243 0.15685 0.0
C755 C 0.68005 0.91694 0.15772 0.0
C756 C 0.67868 0.92337 0.17869 0.0
C757 C 0.67878 0.91598 0.19979 0.0
C758 C 0.68024 0.90188 0.19931 0.0
C759 C 0.68149 0.89529 0.17817 0.0
C760 C 0.67502 0.89945 0.1152 0.0
C761 C 0.65826 0.89378 0.11514 0.0
C762 C 0.65144 0.89989 0.0991 0.0
C763 C 0.66123 0.91169 0.08279 0.0
C764 C 0.67774 0.91631 0.0818 0.0
C765 C 0.68454 0.91023 0.09788 0.0
C766 C 0.68178 0.88064 0.13348 0.0
C767 C 0.69475 0.87945 0.12437 0.0
C768 C 0.69408 0.8644 0.1226 0.0
C769 C 0.68044 0.85008 0.13023 0.0
C770 C 0.66725 0.85127 0.13901 0.0
C771 C 0.66783 0.86638 0.14037 0.0
H772 H 0.12257 0.77187 0.15728 0.0
N773 N 0.11324 0.79319 0.14082 0.0
H774 H 0.11528 0.7578 0.19454 0.0
H775 H 0.09794 0.79821 0.17538 0.0
H776 H 0.09067 0.78428 0.21294 0.0
H777 H 0.08206 0.77687 0.12983 0.0
H778 H 0.06829 0.75324 0.10458 0.0
H779 H 0.12815 0.78206 0.1108 0.0
H780 H 0.11466 0.75922 0.08438 0.0
H781 H 0.14387 0.79693 0.14293 0.0
H782 H 0.11725 0.82242 0.13158 0.0
H783 H 0.16928 0.82224 0.1387 0.0
H784 H 0.14255 0.84806 0.12903 0.0
H785 H 0.23942 0.89617 0.15664 0.0
H786 H 0.2539 0.90693 0.19321 0.0
H787 H 0.22271 0.92693 0.20834 0.0
H788 H 0.20851 0.9164 0.17124 0.0
H789 H 0.2225 0.92888 0.11876 0.0
H790 H 0.24373 0.94394 0.09048 0.0
H791 H 0.25405 0.90424 0.08785 0.0
H792 H 0.23237 0.88907 0.11573 0.0
H793 H 0.21103 0.87244 0.15888 0.0
H794 H 0.18672 0.84609 0.15737 0.0
H795 H 0.16522 0.86502 0.10844 0.0
N796 N 0.21515 0.90077 0.13863 0.0
H797 H 0.18925 0.8918 0.1116 0.0
C798 C 0.11085 0.78618 0.16366 0.0
C799 C 0.11592 0.7749 0.16951 0.0
C800 C 0.1117 0.76684 0.19083 0.0
C801 C 0.10231 0.76985 0.20667 0.0
C802 C 0.09771 0.78152 0.201 0.0
C803 C 0.10197 0.7896 0.17971 0.0
C804 C 0.10612 0.78136 0.12236 0.0
C805 C 0.08924 0.77322 0.11962 0.0
C806 C 0.08139 0.7597 0.10503 0.0
C807 C 0.09028 0.75409 0.09243 0.0
C808 C 0.10731 0.76286 0.0942 0.0
C809 C 0.11514 0.77619 0.10919 0.0
C810 C 0.12856 0.80772 0.13712 0.0
C811 C 0.14346 0.80796 0.13932 0.0
C812 C 0.15807 0.82259 0.13723 0.0
C813 C 0.15817 0.8374 0.13351 0.0
C814 C 0.14316 0.837 0.13129 0.0
C815 C 0.1286 0.82234 0.13291 0.0
C816 C 0.22286 0.90553 0.16117 0.0
C817 C 0.23561 0.90277 0.16785 0.0
C818 C 0.24384 0.90886 0.18889 0.0
C819 C 0.23953 0.91787 0.20371 0.0
C820 C 0.2265 0.92025 0.19721 0.0
C821 C 0.21827 0.91413 0.17615 0.0
C822 C 0.22596 0.90798 0.11941 0.0
C823 C 0.22913 0.92332 0.11166 0.0
C824 C 0.24136 0.93194 0.09568 0.0
C825 C 0.25078 0.92542 0.08716 0.0
C826 C 0.24699 0.9096 0.09398 0.0
C827 C 0.23466 0.90094 0.10999 0.0
C828 C 0.20191 0.88435 0.13569 0.0
C829 C 0.20115 0.87103 0.14782 0.0
C830 C 0.18716 0.85576 0.14672 0.0
C831 C 0.17371 0.85328 0.13303 0.0
C832 C 0.175 0.86644 0.11978 0.0
C833 C 0.18884 0.88176 0.12131 0.0
H834 H 0.3588 0.23651 0.86687 0.0
N835 N 0.32825 0.2182 0.88386 0.0
H836 H 0.36615 0.25152 0.83068 0.0
H837 H 0.30837 0.21915 0.852 0.0
H838 H 0.31553 0.23574 0.81716 0.0
H839 H 0.31277 0.23343 0.89776 0.0
H840 H 0.32231 0.25594 0.9249 0.0
H841 H 0.35466 0.22844 0.9127 0.0
H842 H 0.3638 0.25012 0.94153 0.0
H843 H 0.35272 0.21103 0.87624 0.0
H844 H 0.30328 0.19064 0.89819 0.0
H845 H 0.35026 0.18423 0.87676 0.0
H846 H 0.30096 0.16374 0.90033 0.0
H847 H 0.34323 0.11996 0.85384 0.0
H848 H 0.34608 0.10798 0.81813 0.0
H849 H 0.29574 0.07069 0.82197 0.0
H850 H 0.29356 0.08209 0.8588 0.0
H851 H 0.29868 0.08683 0.91533 0.0
H852 H 0.30618 0.07183 0.94303 0.0
H853 H 0.35498 0.09649 0.91682 0.0
H854 H 0.34754 0.11163 0.89 0.0
H855 H 0.34484 0.1349 0.89442 0.0
H856 H 0.34806 0.16204 0.89769 0.0
H857 H 0.29821 0.14308 0.87586 0.0
N858 N 0.3169 0.10686 0.88212 0.0
H859 H 0.29493 0.11585 0.87399 0.0
C860 C 0.33293 0.22616 0.86167 0.0
C861 C 0.34925 0.23564 0.85552 0.0
C862 C 0.35346 0.24467 0.83499 0.0
C863 C 0.34151 0.24508 0.82065 0.0
C864 C 0.32517 0.23553 0.82708 0.0
C865 C 0.32098 0.22605 0.84715 0.0
C866 C 0.33289 0.22919 0.90328 0.0
C867 C 0.32379 0.23688 0.9076 0.0
C868 C 0.32928 0.24975 0.92332 0.0
C869 C 0.34396 0.2551 0.93559 0.0
C870 C 0.35265 0.24671 0.93211 0.0
C871 C 0.34731 0.23407 0.91586 0.0
C872 C 0.328 0.20287 0.88669 0.0
C873 C 0.34134 0.20085 0.88141 0.0
C874 C 0.33997 0.18539 0.88199 0.0
C875 C 0.32532 0.17161 0.88827 0.0
C876 C 0.3123 0.17389 0.89474 0.0
C877 C 0.31363 0.1893 0.8938 0.0
C878 C 0.31823 0.10169 0.85918 0.0
C879 C 0.33285 0.10918 0.847 0.0
C880 C 0.33437 0.10237 0.82633 0.0
C881 C 0.32119 0.08816 0.81708 0.0
C882 C 0.30632 0.08132 0.82876 0.0
C883 C 0.30494 0.08793 0.84966 0.0
C884 C 0.32245 0.10038 0.90059 0.0
C885 C 0.31108 0.08926 0.91604 0.0
C886 C 0.31536 0.08058 0.93165 0.0
C887 C 0.33116 0.08281 0.93203 0.0
C888 C 0.34275 0.09455 0.91725 0.0
C889 C 0.33846 0.10324 0.90174 0.0
C890 C 0.31949 0.1232 0.88427 0.0
C891 C 0.33454 0.1365 0.89062 0.0
C892 C 0.33641 0.15215 0.89227 0.0
C893 C 0.32338 0.1549 0.88721 0.0
C894 C 0.30844 0.14152 0.88053 0.0
C895 C 0.30655 0.12591 0.87922 0.0
H896 H 0.76973 0.11543 0.86077 0.0
N897 N 0.7903 0.10719 0.88305 0.0
H898 H 0.75765 0.10641 0.82225 0.0
H899 H 0.79587 0.08919 0.85328 0.0
H900 H 0.78336 0.07966 0.81483 0.0
H901 H 0.78214 0.07906 0.90329 0.0
H902 H 0.75939 0.06362 0.92923 0.0
H903 H 0.77176 0.11858 0.90286 0.0
H904 H 0.74867 0.10309 0.92846 0.0
H905 H 0.79373 0.13723 0.87313 0.0
H906 H 0.81816 0.1129 0.90206 0.0
H907 H 0.81883 0.16306 0.87474 0.0
H908 H 0.84319 0.13891 0.90531 0.0
H909 H 0.8804 0.22534 0.85574 0.0
H910 H 0.89122 0.23971 0.81914 0.0
H911 H 0.93028 0.22865 0.82396 0.0
H912 H 0.91964 0.21486 0.86089 0.0
H913 H 0.91714 0.21572 0.91423 0.0
H914 H 0.93143 0.2379 0.94227 0.0
H915 H 0.90032 0.25747 0.92312 0.0
H916 H 0.88642 0.23562 0.89486 0.0
H917 H 0.8649 0.20974 0.89282 0.0
H918 H 0.83916 0.1846 0.89611 0.0
H919 H 0.86326 0.15705 0.88074 0.0
N920 N 0.8945 0.21235 0.88383 0.0
H921 H 0.88904 0.18227 0.87888 0.0
C922 C 0.78394 0.10317 0.85975 0.0
C923 C 0.77316 0.10802 0.85067 0.0
C924 C 0.76621 0.10282 0.82867 0.0
C925 C 0.76963 0.09239 0.81561 0.0
C926 C 0.78054 0.0877 0.82459 0.0
C927 C 0.7877 0.09315 0.84642 0.0
C928 C 0.77858 0.09987 0.90114 0.0
C929 C 0.77508 0.08449 0.90918 0.0
C930 C 0.762 0.07565 0.92378 0.0
C931 C 0.75207 0.08202 0.93063 0.0
C932 C 0.75611 0.09786 0.92356 0.0
C933 C 0.76927 0.10672 0.90887 0.0
C934 C 0.80416 0.123 0.88701 0.0
C935 C 0.80443 0.13744 0.88017 0.0
C936 C 0.81885 0.15233 0.88133 0.0
C937 C 0.83324 0.15315 0.88977 0.0
C938 C 0.83256 0.13877 0.89801 0.0
C939 C 0.81822 0.12389 0.89647 0.0
C940 C 0.89935 0.21916 0.86104 0.0
C941 C 0.89123 0.22596 0.84882 0.0
C942 C 0.89739 0.23409 0.82783 0.0
C943 C 0.91174 0.23551 0.81874 0.0
C944 C 0.91942 0.2281 0.83068 0.0
C945 C 0.91329 0.22008 0.85164 0.0
C946 C 0.9006 0.22384 0.90269 0.0
C947 C 0.91317 0.22458 0.91654 0.0
C948 C 0.92136 0.23727 0.93239 0.0
C949 C 0.91695 0.24936 0.93484 0.0
C950 C 0.90381 0.24817 0.9218 0.0
C951 C 0.89579 0.23561 0.90568 0.0
C952 C 0.879 0.19786 0.88595 0.0
C953 C 0.86471 0.19832 0.89051 0.0
C954 C 0.8499 0.18385 0.89216 0.0
C955 C 0.84902 0.16866 0.88889 0.0
C956 C 0.8634 0.16839 0.88403 0.0
C957 C 0.87816 0.18281 0.88272 0.0
H958 H 0.77388 0.7055 0.88247 0.0
N959 N 0.79215 0.69205 0.89171 0.0
H960 H 0.75782 0.70238 0.84822 0.0
H961 H 0.79254 0.67684 0.85118 0.0
H962 H 0.77855 0.67571 0.81528 0.0
H963 H 0.77035 0.6596 0.89146 0.0
H964 H 0.74688 0.64577 0.91684 0.0
H965 H 0.78681 0.7039 0.93029 0.0
H966 H 0.76343 0.69018 0.95588 0.0
H967 H 0.81936 0.71281 0.87044 0.0
H968 H 0.79893 0.66932 0.9123 0.0
H969 H 0.84466 0.71229 0.86844 0.0
H970 H 0.82446 0.6695 0.91198 0.0
H971 H 0.92584 0.70857 0.86218 0.0
H972 H 0.93482 0.70141 0.82688 0.0
H973 H 0.88725 0.6594 0.81826 0.0
H974 H 0.87887 0.666 0.8542 0.0
H975 H 0.88941 0.66023 0.89524 0.0
H976 H 0.90379 0.65203 0.92293 0.0
H977 H 0.93565 0.70237 0.94066 0.0
H978 H 0.92088 0.71047 0.91333 0.0
H979 H 0.89319 0.71694 0.88408 0.0
H980 H 0.86773 0.71717 0.88765 0.0
H981 H 0.84215 0.66462 0.89168 0.0
N982 N 0.89782 0.69149 0.88357 0.0
H983 H 0.86777 0.66477 0.89022 0.0
C984 C 0.78456 0.69158 0.86955 0.0
C985 C 0.77492 0.69897 0.86778 0.0
C986 C 0.76584 0.69731 0.84778 0.0
C987 C 0.7667 0.68885 0.82823 0.0
C988 C 0.77696 0.68196 0.82979 0.0
C989 C 0.78539 0.6829 0.85036 0.0
C990 C 0.78034 0.68278 0.90913 0.0
C991 C 0.76913 0.66619 0.9059 0.0
C992 C 0.75573 0.65833 0.92038 0.0
C993 C 0.75323 0.66696 0.93819 0.0
C994 C 0.76493 0.68329 0.94211 0.0
C995 C 0.77837 0.69109 0.92773 0.0
C996 C 0.80698 0.69111 0.89121 0.0
C997 C 0.82034 0.70321 0.87935 0.0
C998 C 0.83494 0.70299 0.8785 0.0
C999 C 0.83685 0.6909 0.89018 0.0
C1000 C 0.82351 0.67885 0.90234 0.0
C1001 C 0.80874 0.67883 0.90268 0.0
C1002 C 0.90168 0.68801 0.8609 0.0
C1003 C 0.91733 0.69793 0.85245 0.0
C1004 C 0.9224 0.69383 0.83216 0.0
C1005 C 0.91182 0.67974 0.81961 0.0
C1006 C 0.8959 0.67015 0.82765 0.0
C1007 C 0.89096 0.67408 0.84821 0.0
C1008 C 0.90393 0.686 0.90252 0.0
C1009 C 0.89902 0.66946 0.90575 0.0
C1010 C 0.90734 0.66478 0.92147 0.0
C1011 C 0.92087 0.67658 0.93384 0.0
C1012 C 0.9253 0.69304 0.93127 0.0
C1013 C 0.91683 0.69767 0.91585 0.0
C1014 C 0.88246 0.69091 0.88647 0.0
C1015 C 0.88205 0.70551 0.88594 0.0
C1016 C 0.8674 0.70555 0.8877 0.0
C1017 C 0.85263 0.69088 0.88956 0.0
C1018 C 0.85315 0.67622 0.89052 0.0
C1019 C 0.86789 0.67625 0.88936 0.0
H1020 H 0.75888 0.6235 0.50866 0.0
N1021 N 0.77548 0.6452 0.47599 0.0
H1022 H 0.7507 0.62863 0.54656 0.0
H1023 H 0.78454 0.67503 0.49515 0.0
H1024 H 0.77639 0.68019 0.53245 0.0
H1025 H 0.78738 0.67479 0.45472 0.0
H1026 H 0.77211 0.68324 0.42929 0.0
H1027 H 0.74688 0.62614 0.45636 0.0
H1028 H 0.73182 0.63408 0.42963 0.0
H1029 H 0.78032 0.62306 0.45515 0.0
H1030 H 0.80594 0.67074 0.48598 0.0
H1031 H 0.80598 0.62374 0.44827 0.0
H1032 H 0.83153 0.67117 0.48052 0.0
H1033 H 0.9022 0.63566 0.46847 0.0
H1034 H 0.91701 0.63837 0.5039 0.0
H1035 H 0.8904 0.65867 0.5377 0.0
H1036 H 0.87721 0.6579 0.50114 0.0
H1037 H 0.90409 0.67723 0.4542 0.0
H1038 H 0.92681 0.68715 0.42725 0.0
H1039 H 0.90598 0.63937 0.39666 0.0
H1040 H 0.88301 0.62968 0.42311 0.0
H1041 H 0.85129 0.62074 0.46588 0.0
H1042 H 0.82593 0.62125 0.46874 0.0
H1043 H 0.85152 0.67295 0.45509 0.0
N1044 N 0.88076 0.64553 0.45949 0.0
H1045 H 0.87693 0.67235 0.45351 0.0
C1046 C 0.77246 0.64881 0.49911 0.0
C1047 C 0.76295 0.63591 0.51401 0.0
C1048 C 0.75817 0.63885 0.53551 0.0
C1049 C 0.76289 0.65482 0.54254 0.0
C1050 C 0.77274 0.66776 0.52777 0.0
C1051 C 0.77743 0.6648 0.5063 0.0
C1052 C 0.76811 0.64987 0.45771 0.0
C1053 C 0.77529 0.66585 0.44923 0.0
C1054 C 0.76654 0.67061 0.43447 0.0
C1055 C 0.75055 0.65941 0.42759 0.0
C1056 C 0.74388 0.64318 0.43502 0.0
C1057 C 0.75253 0.63853 0.45004 0.0
C1058 C 0.79106 0.64663 0.47142 0.0
C1059 C 0.7915 0.63365 0.46053 0.0
C1060 C 0.80621 0.63402 0.45682 0.0
C1061 C 0.82095 0.6474 0.46418 0.0
C1062 C 0.82052 0.66069 0.47445 0.0
C1063 C 0.80576 0.66038 0.47786 0.0
C1064 C 0.88863 0.64668 0.48169 0.0
C1065 C 0.89969 0.6409 0.48343 0.0
C1066 C 0.908 0.64221 0.50409 0.0
C1067 C 0.90494 0.64858 0.52424 0.0
C1068 C 0.8935 0.654 0.52268 0.0
C1069 C 0.88567 0.65335 0.50161 0.0
C1070 C 0.89171 0.65274 0.44038 0.0
C1071 C 0.90398 0.66913 0.44091 0.0
C1072 C 0.91703 0.67473 0.42566 0.0
C1073 C 0.91815 0.66397 0.41003 0.0
C1074 C 0.90539 0.64789 0.40859 0.0
C1075 C 0.89222 0.64239 0.42349 0.0
C1076 C 0.86596 0.64638 0.45917 0.0
C1077 C 0.85136 0.63213 0.4633 0.0
C1078 C 0.83684 0.63247 0.46478 0.0
C1079 C 0.83652 0.64713 0.46195 0.0
C1080 C 0.85123 0.66145 0.45759 0.0
C1081 C 0.86582 0.66111 0.45638 0.0
H1082 H 0.37701 0.12951 0.49868 0.0
N1083 N 0.35511 0.12626 0.46688 0.0
H1084 H 0.37204 0.11557 0.53627 0.0
H1085 H 0.32559 0.10654 0.48594 0.0
H1086 H 0.32056 0.09312 0.52371 0.0
H1087 H 0.32737 0.10562 0.44349 0.0
H1088 H 0.32367 0.08264 0.41928 0.0
H1089 H 0.37833 0.12186 0.44944 0.0
H1090 H 0.37484 0.09914 0.42518 0.0
H1091 H 0.3791 0.15537 0.45563 0.0
H1092 H 0.32789 0.12932 0.46853 0.0
H1093 H 0.37844 0.18084 0.45335 0.0
H1094 H 0.32722 0.15477 0.46814 0.0
H1095 H 0.37882 0.25917 0.48395 0.0
H1096 H 0.37851 0.2732 0.51924 0.0
H1097 H 0.33019 0.23421 0.53353 0.0
H1098 H 0.33121 0.21982 0.49898 0.0
H1099 H 0.32279 0.22341 0.46206 0.0
H1100 H 0.31125 0.23516 0.43547 0.0
H1101 H 0.35796 0.26366 0.40374 0.0
H1102 H 0.36952 0.25185 0.43078 0.0
H1103 H 0.3776 0.22524 0.47948 0.0
H1104 H 0.37699 0.1992 0.47812 0.0
H1105 H 0.32872 0.177 0.44839 0.0
N1106 N 0.35482 0.23208 0.46615 0.0
H1107 H 0.32906 0.2028 0.45128 0.0
C1108 C 0.35173 0.11931 0.48974 0.0
C1109 C 0.36468 0.12177 0.50425 0.0
C1110 C 0.36183 0.11378 0.52556 0.0
C1111 C 0.34592 0.10338 0.53281 0.0
C1112 C 0.33292 0.10127 0.51858 0.0
C1113 C 0.33579 0.10901 0.49706 0.0
C1114 C 0.35315 0.11536 0.44827 0.0
C1115 C 0.33782 0.10452 0.43896 0.0
C1116 C 0.33575 0.09143 0.42512 0.0
C1117 C 0.34895 0.08899 0.42061 0.0
C1118 C 0.36443 0.1006 0.42859 0.0
C1119 C 0.36647 0.11364 0.44225 0.0
C1120 C 0.35367 0.14051 0.46259 0.0
C1121 C 0.36769 0.15518 0.45789 0.0
C1122 C 0.3673 0.16976 0.45697 0.0
C1123 C 0.35285 0.17006 0.46119 0.0
C1124 C 0.33859 0.15514 0.46477 0.0
C1125 C 0.33896 0.14049 0.46523 0.0
C1126 C 0.355 0.23865 0.48871 0.0
C1127 C 0.36834 0.25354 0.49504 0.0
C1128 C 0.36801 0.26162 0.51504 0.0
C1129 C 0.35415 0.25508 0.52902 0.0
C1130 C 0.34108 0.23966 0.52327 0.0
C1131 C 0.34156 0.23145 0.50338 0.0
C1132 C 0.34707 0.23668 0.44829 0.0
C1133 C 0.33052 0.2319 0.44912 0.0
C1134 C 0.3239 0.23863 0.43382 0.0
C1135 C 0.3337 0.2504 0.41755 0.0
C1136 C 0.35013 0.25474 0.41623 0.0
C1137 C 0.35672 0.24791 0.43146 0.0
C1138 C 0.35352 0.21619 0.46543 0.0
C1139 C 0.36685 0.21471 0.47283 0.0
C1140 C 0.36653 0.19979 0.47172 0.0
C1141 C 0.3529 0.1859 0.46274 0.0
C1142 C 0.3394 0.18733 0.45557 0.0
C1143 C 0.33964 0.20225 0.45709 0.0
H1144 H 0.78718 0.1082 0.49079 0.0
N1145 N 0.7779 0.13027 0.47769 0.0
H1146 H 0.77929 0.09191 0.52614 0.0
H1147 H 0.76246 0.13345 0.51365 0.0
H1148 H 0.75466 0.11735 0.54939 0.0
H1149 H 0.74738 0.11924 0.46467 0.0
H1150 H 0.73146 0.09735 0.43722 0.0
H1151 H 0.79003 0.11643 0.44774 0.0
H1152 H 0.77448 0.09512 0.41958 0.0
H1153 H 0.80818 0.13314 0.47594 0.0
H1154 H 0.78252 0.16009 0.4725 0.0
H1155 H 0.83379 0.1582 0.47111 0.0
H1156 H 0.80809 0.1854 0.46932 0.0
H1157 H 0.90465 0.23124 0.492 0.0
H1158 H 0.91943 0.24159 0.52843 0.0
H1159 H 0.88935 0.26269 0.54464 0.0
H1160 H 0.87477 0.25247 0.50766 0.0
H1161 H 0.88642 0.26473 0.45622 0.0
H1162 H 0.9086 0.28232 0.43064 0.0
H1163 H 0.92238 0.24517 0.42548 0.0
H1164 H 0.89973 0.22742 0.45068 0.0
H1165 H 0.8773 0.20773 0.49113 0.0
H1166 H 0.85267 0.18157 0.48991 0.0
H1167 H 0.8298 0.20231 0.44685 0.0
N1168 N 0.88088 0.23674 0.47453 0.0
H1169 H 0.85423 0.22881 0.44975 0.0
C1170 C 0.77546 0.12213 0.49968 0.0
C1171 C 0.78039 0.11052 0.50368 0.0
C1172 C 0.77583 0.10118 0.52394 0.0
C1173 C 0.76623 0.10323 0.54055 0.0
C1174 C 0.76183 0.11527 0.53681 0.0
C1175 C 0.76641 0.12461 0.51657 0.0
C1176 C 0.76989 0.1196 0.45828 0.0
C1177 C 0.7534 0.11423 0.45449 0.0
C1178 C 0.74434 0.10171 0.43873 0.0
C1179 C 0.75161 0.09429 0.42626 0.0
C1180 C 0.76837 0.10028 0.42922 0.0
C1181 C 0.77739 0.1127 0.44518 0.0
C1182 C 0.79332 0.1447 0.47417 0.0
C1183 C 0.80801 0.14443 0.47396 0.0
C1184 C 0.82276 0.15891 0.47151 0.0
C1185 C 0.82321 0.17402 0.46972 0.0
C1186 C 0.8084 0.17411 0.47001 0.0
C1187 C 0.7937 0.15964 0.47204 0.0
C1188 C 0.88852 0.24104 0.49715 0.0
C1189 C 0.90108 0.23791 0.50346 0.0
C1190 C 0.9095 0.24381 0.52441 0.0
C1191 C 0.9056 0.25301 0.53947 0.0
C1192 C 0.89278 0.25581 0.53332 0.0
C1193 C 0.88434 0.24986 0.51236 0.0
C1194 C 0.89156 0.24491 0.45551 0.0
C1195 C 0.89393 0.26021 0.44897 0.0
C1196 C 0.90669 0.27027 0.43454 0.0
C1197 C 0.91746 0.26527 0.42641 0.0
C1198 C 0.91431 0.24938 0.43146 0.0
C1199 C 0.90142 0.23925 0.44592 0.0
C1200 C 0.86756 0.22046 0.4709 0.0
C1201 C 0.86706 0.20673 0.48136 0.0
C1202 C 0.85287 0.19159 0.48046 0.0
C1203 C 0.83895 0.1897 0.46863 0.0
C1204 C 0.83998 0.20326 0.45681 0.0
C1205 C 0.85404 0.21843 0.45814 0.0
H1206 H 0.01567 0.56689 0.20121 0.0
N1207 N 0.9852 0.54725 0.21762 0.0
H1208 H 0.02281 0.58333 0.16635 0.0
H1209 H 0.96507 0.54837 0.18621 0.0
H1210 H 0.97194 0.5662 0.15263 0.0
H1211 H 0.96664 0.55828 0.2346 0.0
H1212 H 0.97437 0.58036 0.26227 0.0
H1213 H 0.01296 0.56097 0.24388 0.0
H1214 H 0.02073 0.58274 0.27252 0.0
H1215 H 0.00634 0.53904 0.19605 0.0
H1216 H 0.96775 0.52244 0.24575 0.0
H1217 H 0.00629 0.51361 0.19918 0.0
H1218 H 0.9682 0.49691 0.24977 0.0
H1219 H 0.01254 0.44694 0.20386 0.0
H1220 H 0.0196 0.44013 0.16658 0.0
H1221 H 0.97001 0.4204 0.14319 0.0
H1222 H 0.96303 0.42709 0.18082 0.0
H1223 H 0.96391 0.40896 0.22875 0.0
H1224 H 0.97064 0.39271 0.25489 0.0
H1225 H 0.01489 0.43599 0.27473 0.0
H1226 H 0.00841 0.4519 0.24776 0.0
H1227 H 0.01024 0.46956 0.21745 0.0
H1228 H 0.01218 0.49615 0.22107 0.0
H1229 H 0.96024 0.47286 0.22876 0.0
N1230 N 0.9823 0.43993 0.21759 0.0
H1231 H 0.95861 0.4463 0.22627 0.0
C1232 C 0.98977 0.55592 0.19587 0.0
C1233 C 0.00606 0.56623 0.19019 0.0
C1234 C 0.01011 0.57598 0.1704 0.0
C1235 C 0.99802 0.57639 0.15641 0.0
C1236 C 0.9817 0.56607 0.16234 0.0
C1237 C 0.97767 0.55586 0.18167 0.0
C1238 C 0.98916 0.55798 0.23725 0.0
C1239 C 0.97832 0.56336 0.24324 0.0
C1240 C 0.98279 0.57598 0.25915 0.0
C1241 C 0.99825 0.5835 0.26964 0.0
C1242 C 0.00884 0.57748 0.26449 0.0
C1243 C 0.00438 0.56491 0.24833 0.0
C1244 C 0.98691 0.5329 0.22065 0.0
C1245 C 0.99801 0.53019 0.20805 0.0
C1246 C 0.99808 0.51545 0.20997 0.0
C1247 C 0.9872 0.50303 0.22467 0.0
C1248 C 0.97656 0.506 0.23792 0.0
C1249 C 0.97638 0.52068 0.23581 0.0
C1250 C 0.9872 0.43752 0.19507 0.0
C1251 C 1.00324 0.44138 0.19062 0.0
C1252 C 0.00726 0.43748 0.16925 0.0
C1253 C 0.99535 0.42963 0.15193 0.0
C1254 C 0.97942 0.42622 0.15626 0.0
C1255 C 0.97543 0.43014 0.17763 0.0
C1256 C 0.98552 0.43164 0.23626 0.0
C1257 C 0.97491 0.41496 0.2391 0.0
C1258 C 0.97879 0.4057 0.25413 0.0
C1259 C 0.99341 0.41296 0.26688 0.0
C1260 C 1.00369 0.42988 0.26485 0.0
C1261 C 0.99988 0.4391 0.24957 0.0
C1262 C 0.98422 0.45585 0.22183 0.0
C1263 C 0.99931 0.47013 0.22045 0.0
C1264 C 1.00037 0.48541 0.22225 0.0
C1265 C 0.98636 0.48679 0.22508 0.0
C1266 C 0.97136 0.47241 0.22699 0.0
C1267 C 0.97035 0.45717 0.22545 0.0
H1268 H 0.55519 0.56539 0.2039 0.0
N1269 N 0.56437 0.54555 0.22617 0.0
H1270 H 0.56404 0.57777 0.16575 0.0
H1271 H 0.58363 0.54147 0.19712 0.0
H1272 H 0.5931 0.55445 0.15913 0.0
H1273 H 0.55539 0.5662 0.24545 0.0
H1274 H 0.57215 0.58892 0.27161 0.0
H1275 H 0.59096 0.55052 0.24855 0.0
H1276 H 0.60751 0.57272 0.27533 0.0
H1277 H 0.55933 0.51761 0.24425 0.0
H1278 H 0.53421 0.54157 0.21658 0.0
H1279 H 0.53368 0.49235 0.24772 0.0
H1280 H 0.50871 0.5162 0.21806 0.0
H1281 H 0.43917 0.4085 0.22858 0.0
H1282 H 0.42345 0.39463 0.1948 0.0
H1283 H 0.44934 0.43908 0.15506 0.0
H1284 H 0.46325 0.45335 0.19012 0.0
H1285 H 0.43467 0.44594 0.23157 0.0
H1286 H 0.41147 0.43451 0.25767 0.0
H1287 H 0.43622 0.41716 0.30293 0.0
H1288 H 0.45929 0.42833 0.27644 0.0
H1289 H 0.48976 0.44537 0.22675 0.0
H1290 H 0.51479 0.47135 0.22543 0.0
H1291 H 0.48777 0.49626 0.23902 0.0
N1292 N 0.45999 0.44001 0.23403 0.0
H1293 H 0.46274 0.47027 0.2385 0.0
C1294 C 0.56849 0.55217 0.20314 0.0
C1295 C 0.56305 0.5625 0.19404 0.0
C1296 C 0.56819 0.56966 0.17228 0.0
C1297 C 0.57917 0.56698 0.15955 0.0
C1298 C 0.5846 0.55667 0.16864 0.0
C1299 C 0.57918 0.54923 0.19019 0.0
C1300 C 0.5721 0.55685 0.24491 0.0
C1301 C 0.56664 0.56746 0.2522 0.0
C1302 C 0.5762 0.58037 0.26726 0.0
C1303 C 0.59133 0.58281 0.27528 0.0
C1304 C 0.59612 0.57143 0.26911 0.0
C1305 C 0.58663 0.55864 0.25402 0.0
C1306 C 0.5488 0.5314 0.22981 0.0
C1307 C 0.54825 0.51737 0.23886 0.0
C1308 C 0.53355 0.50288 0.24049 0.0
C1309 C 0.51899 0.50196 0.23265 0.0
C1310 C 0.51954 0.5163 0.22438 0.0
C1311 C 0.53425 0.5309 0.22325 0.0
C1312 C 0.45237 0.43203 0.2123 0.0
C1313 C 0.44139 0.41529 0.21257 0.0
C1314 C 0.4325 0.40725 0.19281 0.0
C1315 C 0.43493 0.41544 0.17146 0.0
C1316 C 0.44655 0.43218 0.17097 0.0
C1317 C 0.45488 0.44044 0.19118 0.0
C1318 C 0.44861 0.43778 0.25201 0.0
C1319 C 0.43536 0.44022 0.24754 0.0
C1320 C 0.42212 0.43367 0.26239 0.0
C1321 C 0.42208 0.42489 0.28215 0.0
C1322 C 0.43603 0.42398 0.28788 0.0
C1323 C 0.44918 0.43033 0.27281 0.0
C1324 C 0.47442 0.45577 0.23308 0.0
C1325 C 0.48929 0.45648 0.22933 0.0
C1326 C 0.50362 0.47139 0.22887 0.0
C1327 C 0.5035 0.48607 0.23256 0.0
C1328 C 0.48846 0.48533 0.23595 0.0
C1329 C 0.47406 0.47037 0.2359 0.0
H1330 H 0.55243 0.99252 0.19272 0.0
N1331 N 0.56621 0.02308 0.21144 0.0
H1332 H 0.55902 0.98512 0.1556 0.0
H1333 H 0.58521 0.0431 0.17889 0.0
H1334 H 0.59136 0.03595 0.14106 0.0
H1335 H 0.59123 0.04775 0.2324 0.0
H1336 H 0.61187 0.04659 0.25722 0.0
H1337 H 0.56491 0.99538 0.22928 0.0
H1338 H 0.58496 0.9942 0.2546 0.0
H1339 H 0.54141 0.9952 0.23061 0.0
H1340 H 0.55399 0.04259 0.20388 0.0
H1341 H 0.51374 0.98931 0.23614 0.0
H1342 H 0.52599 0.03654 0.20848 0.0
H1343 H 0.43098 0.97396 0.18854 0.0
H1344 H 0.41923 0.97862 0.15326 0.0
H1345 H 0.44729 0.03045 0.16478 0.0
H1346 H 0.45903 0.02562 0.19998 0.0
H1347 H 0.4505 0.02217 0.23931 0.0
H1348 H 0.43013 0.02092 0.26601 0.0
H1349 H 0.40807 0.96855 0.26761 0.0
H1350 H 0.42869 0.97002 0.24128 0.0
H1351 H 0.46243 0.97633 0.21197 0.0
H1352 H 0.49076 0.98302 0.21285 0.0
H1353 H 0.50465 0.03205 0.23408 0.0
N1354 N 0.45053 0.99601 0.21902 0.0
H1355 H 0.47623 0.02527 0.23233 0.0
C1356 C 0.56846 0.01841 0.18863 0.0
C1357 C 0.56091 1.00207 0.18156 0.0
C1358 C 0.56462 0.99787 0.16016 0.0
C1359 C 0.57583 0.00992 0.14529 0.0
C1360 C 0.58293 0.0263 0.1522 0.0
C1361 C 0.57932 0.03045 0.17368 0.0
C1362 C 0.57627 0.02174 0.22932 0.0
C1363 C 0.58959 0.03603 0.2377 0.0
C1364 C 0.60139 0.03536 0.25171 0.0
C1365 C 0.59994 0.0203 0.2579 0.0
C1366 C 0.58623 0.00596 0.25041 0.0
C1367 C 0.57462 0.00665 0.23602 0.0
C1368 C 0.54997 0.0195 0.21694 0.0
C1369 C 0.53836 0.00446 0.22611 0.0
C1370 C 0.52236 1.00101 0.22907 0.0
C1371 C 0.51749 0.01239 0.22265 0.0
C1372 C 0.52925 0.02755 0.21398 0.0
C1373 C 0.54527 0.03102 0.21121 0.0
C1374 C 0.44576 0.99939 0.19685 0.0
C1375 C 0.43481 0.98631 0.18313 0.0
C1376 C 0.42816 0.98901 0.16301 0.0
C1377 C 0.43228 0.00491 0.15634 0.0
C1378 C 0.44376 0.01807 0.16966 0.0
C1379 C 0.45052 0.01534 0.18972 0.0
C1380 C 0.44118 0.99613 0.23842 0.0
C1381 C 0.44161 0.01047 0.24595 0.0
C1382 C 0.42979 0.00972 0.26103 0.0
C1383 C 0.41734 0.99463 0.26885 0.0
C1384 C 0.41755 0.98041 0.26225 0.0
C1385 C 0.42934 0.98119 0.24722 0.0
C1386 C 0.4672 1.00021 0.22218 0.0
C1387 C 0.47161 0.98845 0.2171 0.0
C1388 C 0.48783 0.99231 0.21775 0.0
C1389 C 0.5001 0.0081 0.22361 0.0
C1390 C 0.49559 0.01982 0.22923 0.0
C1391 C 0.47929 0.01593 0.22844 0.0
H1392 H 0.4186 0.96755 0.83258 0.0
N1393 N 0.44397 0.98777 0.80768 0.0
H1394 H 0.41064 0.97258 0.87045 0.0
H1395 H 0.46182 0.01432 0.83516 0.0
H1396 H 0.45347 0.02013 0.87208 0.0
H1397 H 0.45371 0.01992 0.79949 0.0
H1398 H 0.44108 0.03043 0.7728 0.0
H1399 H 0.42097 0.97107 0.77633 0.0
H1400 H 0.40825 0.9816 0.74915 0.0
H1401 H 0.4486 0.96279 0.81593 0.0
H1402 H 0.47331 0.01244 0.7922 0.0
H1403 H 0.47316 0.96109 0.81068 0.0
H1404 H 0.49763 0.01059 0.78547 0.0
H1405 H 0.56613 0.9688 0.79506 0.0
H1406 H 0.58057 0.96976 0.83033 0.0
H1407 H 0.55006 0.98317 0.86883 0.0
H1408 H 0.53657 0.98356 0.83332 0.0
H1409 H 0.57031 0.00807 0.79166 0.0
H1410 H 0.5938 0.01849 0.76611 0.0
H1411 H 0.56734 0.97776 0.72006 0.0
H1412 H 0.54404 0.96705 0.74612 0.0
H1413 H 0.51317 0.95583 0.77968 0.0
H1414 H 0.48918 0.9589 0.78259 0.0
H1415 H 0.51956 0.00926 0.80236 0.0
N1416 N 0.54367 0.97784 0.78856 0.0
H1417 H 0.54352 0.00616 0.79801 0.0
C1418 C 0.44065 0.99058 0.831 0.0
C1419 C 0.42636 0.97892 0.84142 0.0
C1420 C 0.42174 0.98194 0.86292 0.0
C1421 C 0.43122 0.9969 0.87433 0.0
C1422 C 0.44586 0.0084 0.86407 0.0
C1423 C 0.45062 0.0052 0.84275 0.0
C1424 C 0.43835 0.99462 0.78982 0.0
C1425 C 0.44405 0.01144 0.78831 0.0
C1426 C 0.43679 0.01747 0.77295 0.0
C1427 C 0.42361 0.00685 0.7589 0.0
C1428 C 0.41826 0.99008 0.75993 0.0
C1429 C 0.4256 0.98407 0.77524 0.0
C1430 C 0.45891 0.98757 0.80419 0.0
C1431 C 0.45929 0.97327 0.80931 0.0
C1432 C 0.47335 0.9723 0.80605 0.0
C1433 C 0.48744 0.98562 0.79721 0.0
C1434 C 0.48712 1.0001 0.79241 0.0
C1435 C 0.47306 1.00113 0.79605 0.0
C1436 C 0.55069 0.97688 0.81076 0.0
C1437 C 0.56261 0.97214 0.81103 0.0
C1438 C 0.57077 0.97247 0.83147 0.0
C1439 C 0.56674 0.97679 0.85268 0.0
C1440 C 0.554 0.98039 0.8528 0.0
C1441 C 0.54614 0.98054 0.83217 0.0
C1442 C 0.55547 0.98664 0.77087 0.0
C1443 C 0.56933 1.00169 0.77566 0.0
C1444 C 0.58276 0.00758 0.76115 0.0
C1445 C 0.58233 0.99882 0.74129 0.0
C1446 C 0.5679 0.98473 0.73524 0.0
C1447 C 0.5546 0.97865 0.75003 0.0
C1448 C 0.53004 0.98066 0.78879 0.0
C1449 C 0.5146 0.96756 0.78434 0.0
C1450 C 0.5009 0.96934 0.78631 0.0
C1451 C 0.50229 0.98426 0.79321 0.0
C1452 C 0.51793 0.99761 0.79686 0.0
C1453 C 0.53169 0.99587 0.79444 0.0
H1454 H 0.99388 0.55973 0.82782 0.0
N1455 N 0.02037 0.56401 0.80372 0.0
H1456 H 0.9942 0.57306 0.86411 0.0
H1457 H 0.04586 0.58171 0.83102 0.0
H1458 H 0.04629 0.59562 0.86716 0.0
H1459 H 0.0351 0.594 0.78712 0.0
H1460 H 0.02328 0.60729 0.76434 0.0
H1461 H 0.99029 0.54865 0.78257 0.0
H1462 H 0.97871 0.56142 0.75803 0.0
H1463 H 0.99479 0.53619 0.8216 0.0
H1464 H 0.03751 0.55389 0.77977 0.0
H1465 H 0.99007 0.50867 0.81782 0.0
H1466 H 0.03244 0.52601 0.77496 0.0
H1467 H 0.97632 0.43197 0.82769 0.0
H1468 H 0.98014 0.42047 0.86382 0.0
H1469 H 0.03138 0.4429 0.85038 0.0
H1470 H 0.02738 0.45419 0.8143 0.0
H1471 H 0.02483 0.45144 0.77396 0.0
H1472 H 0.0244 0.43212 0.74527 0.0
H1473 H 0.97213 0.40719 0.74479 0.0
H1474 H 0.97272 0.42629 0.77384 0.0
H1475 H 0.9768 0.45887 0.79218 0.0
H1476 H 0.98173 0.48683 0.79172 0.0
H1477 H 0.03327 0.50447 0.79553 0.0
N1478 N 0.99846 0.44901 0.79618 0.0
H1479 H 0.02811 0.47644 0.79482 0.0
C1480 C 0.01988 0.56944 0.82692 0.0
C1481 C 0.00532 0.56695 0.83673 0.0
C1482 C 0.00552 0.57469 0.85741 0.0
C1483 C 0.02027 0.58535 0.86839 0.0
C1484 C 0.03476 0.58745 0.85899 0.0
C1485 C 0.03453 0.57945 0.83852 0.0
C1486 C 0.01374 0.57034 0.78651 0.0
C1487 C 0.02286 0.58679 0.78046 0.0
C1488 C 0.01604 0.59435 0.76727 0.0
C1489 C 0.99991 0.58554 0.75922 0.0
C1490 C 0.99102 0.56878 0.76429 0.0
C1491 C 0.99775 0.56132 0.77807 0.0
C1492 C 0.01672 0.54731 0.80117 0.0
C1493 C 1.00318 0.53424 0.8115 0.0
C1494 C 1.00036 0.51833 0.80907 0.0
C1495 C 0.01085 0.515 0.79603 0.0
C1496 C 0.02423 0.52808 0.78542 0.0
C1497 C 0.0271 0.54402 0.788 0.0
C1498 C 1.00149 0.44387 0.81832 0.0
C1499 C 0.98838 0.43456 0.83278 0.0
C1500 C 0.99062 0.42808 0.85341 0.0
C1501 C 0.00607 0.43075 0.85994 0.0
C1502 C 0.0193 0.44048 0.8457 0.0
C1503 C 0.01704 0.44702 0.82509 0.0
C1504 C 0.99875 0.44013 0.77618 0.0
C1505 C 0.01331 0.44196 0.76744 0.0
C1506 C 0.01304 0.43091 0.75106 0.0
C1507 C 0.99823 0.41808 0.74288 0.0
C1508 C 0.98374 0.41701 0.75057 0.0
C1509 C 0.98403 0.42789 0.76715 0.0
C1510 C 1.00203 0.46559 0.79373 0.0
C1511 C 0.98915 0.46883 0.79257 0.0
C1512 C 0.99202 0.48482 0.79257 0.0
C1513 C 0.00791 0.498 0.79397 0.0
C1514 C 0.02088 0.49469 0.7943 0.0
C1515 C 0.01796 0.47863 0.79407 0.0
H1516 H 0.45025 0.43884 0.83733 0.0
N1517 N 0.441 0.45833 0.81422 0.0
H1518 H 0.44139 0.42675 0.87525 0.0
H1519 H 0.42092 0.46185 0.84233 0.0
H1520 H 0.41052 0.44842 0.87943 0.0
H1521 H 0.41401 0.45175 0.79147 0.0
H1522 H 0.39848 0.42924 0.76467 0.0
H1523 H 0.45121 0.43833 0.79607 0.0
H1524 H 0.43543 0.4152 0.77014 0.0
H1525 H 0.47051 0.46537 0.83402 0.0
H1526 H 0.44764 0.48298 0.78569 0.0
H1527 H 0.49565 0.49061 0.83086 0.0
H1528 H 0.47333 0.50806 0.78101 0.0
H1529 H 0.56764 0.55902 0.82873 0.0
H1530 H 0.58196 0.56913 0.86574 0.0
H1531 H 0.55029 0.58835 0.88225 0.0
H1532 H 0.53639 0.57856 0.84485 0.0
H1533 H 0.56337 0.5963 0.80443 0.0
H1534 H 0.58609 0.60958 0.77856 0.0
H1535 H 0.57371 0.5629 0.74856 0.0
H1536 H 0.55197 0.54963 0.77611 0.0
H1537 H 0.54276 0.53511 0.81389 0.0
H1538 H 0.51847 0.50846 0.81095 0.0
H1539 H 0.4896 0.53196 0.80041 0.0
N1540 N 0.54412 0.56472 0.81097 0.0
H1541 H 0.51413 0.55839 0.80189 0.0
C1542 C 0.43662 0.4517 0.83727 0.0
C1543 C 0.44197 0.44141 0.84671 0.0
C1544 C 0.43656 0.43417 0.86835 0.0
C1545 C 0.42505 0.43639 0.88067 0.0
C1546 C 0.41963 0.44662 0.87096 0.0
C1547 C 0.42548 0.45428 0.84963 0.0
C1548 C 0.43364 0.44661 0.79582 0.0
C1549 C 0.41888 0.444 0.78641 0.0
C1550 C 0.40994 0.43099 0.77135 0.0
C1551 C 0.41551 0.42015 0.76552 0.0
C1552 C 0.43076 0.4233 0.77413 0.0
C1553 C 0.43978 0.43646 0.78908 0.0
C1554 C 0.45685 0.47223 0.81039 0.0
C1555 C 0.47083 0.47447 0.82236 0.0
C1556 C 0.48547 0.48905 0.82032 0.0
C1557 C 0.48667 0.50167 0.80588 0.0
C1558 C 0.47289 0.49894 0.79286 0.0
C1559 C 0.45818 0.48449 0.79527 0.0
C1560 C 0.55098 0.56811 0.83409 0.0
C1561 C 0.5636 0.56511 0.84056 0.0
C1562 C 0.57176 0.57092 0.86175 0.0
C1563 C 0.5674 0.57974 0.87691 0.0
C1564 C 0.55419 0.58191 0.87082 0.0
C1565 C 0.5461 0.57618 0.84961 0.0
C1566 C 0.55594 0.57194 0.79269 0.0
C1567 C 0.56552 0.58893 0.79218 0.0
C1568 C 0.5785 0.59655 0.77704 0.0
C1569 C 0.582 0.58744 0.76117 0.0
C1570 C 0.57182 0.57041 0.76083 0.0
C1571 C 0.55911 0.56273 0.77659 0.0
C1572 C 0.53025 0.54876 0.80775 0.0
C1573 C 0.53122 0.53446 0.8105 0.0
C1574 C 0.51722 0.51919 0.80906 0.0
C1575 C 0.50187 0.51786 0.80546 0.0
C1576 C 0.5011 0.53229 0.80263 0.0
C1577 C 0.51512 0.54749 0.80362 0.0
H1578 H 0.68966 0.90157 0.52361 0.0
N1579 N 0.65931 0.87931 0.53782 0.0
H1580 H 0.69659 0.91694 0.48743 0.0
H1581 H 0.63955 0.87537 0.50222 0.0
H1582 H 0.64642 0.89055 0.46562 0.0
H1583 H 0.64387 0.89489 0.55064 0.0
H1584 H 0.65351 0.91794 0.57693 0.0
H1585 H 0.68569 0.89003 0.56692 0.0
H1586 H 0.69498 0.91239 0.59468 0.0
H1587 H 0.68086 0.87141 0.51737 0.0
H1588 H 0.64181 0.85465 0.56622 0.0
H1589 H 0.68032 0.84569 0.51981 0.0
H1590 H 0.64212 0.82909 0.57034 0.0
H1591 H 0.68388 0.77672 0.52268 0.0
H1592 H 0.68798 0.76621 0.48634 0.0
H1593 H 0.6372 0.74612 0.46931 0.0
H1594 H 0.63319 0.75639 0.50616 0.0
H1595 H 0.63995 0.74008 0.55189 0.0
H1596 H 0.65005 0.72627 0.57713 0.0
H1597 H 0.69113 0.7727 0.59579 0.0
H1598 H 0.68153 0.78619 0.5694 0.0
H1599 H 0.68275 0.80049 0.535 0.0
H1600 H 0.68537 0.82733 0.53843 0.0
H1601 H 0.634 0.80501 0.55156 0.0
N1602 N 0.6549 0.77114 0.53988 0.0
H1603 H 0.63194 0.77828 0.54998 0.0
C1604 C 0.66402 0.8873 0.51558 0.0
C1605 C 0.68017 0.89898 0.51096 0.0
C1606 C 0.68413 0.9077 0.4902 0.0
C1607 C 0.67204 0.90501 0.47368 0.0
C1608 C 0.65597 0.89303 0.47811 0.0
C1609 C 0.65204 0.88427 0.49887 0.0
C1610 C 0.66395 0.89068 0.55687 0.0
C1611 C 0.65488 0.89849 0.56058 0.0
C1612 C 0.66043 0.91168 0.57576 0.0
C1613 C 0.67515 0.91725 0.58801 0.0
C1614 C 0.68379 0.90876 0.58523 0.0
C1615 C 0.67837 0.89575 0.56961 0.0
C1616 C 0.66107 0.86503 0.54132 0.0
C1617 C 0.6723 0.86237 0.52901 0.0
C1618 C 0.67212 0.8475 0.53065 0.0
C1619 C 0.66104 0.83499 0.54508 0.0
C1620 C 0.65052 0.83811 0.55845 0.0
C1621 C 0.65045 0.85284 0.55638 0.0
C1622 C 0.65818 0.76733 0.51709 0.0
C1623 C 0.67371 0.77036 0.51092 0.0
C1624 C 0.67602 0.76431 0.49008 0.0
C1625 C 0.66289 0.75518 0.47494 0.0
C1626 C 0.64752 0.75284 0.48073 0.0
C1627 C 0.64522 0.75884 0.50162 0.0
C1628 C 0.65985 0.76416 0.55851 0.0
C1629 C 0.651 0.74728 0.56176 0.0
C1630 C 0.65681 0.73941 0.57633 0.0
C1631 C 0.67156 0.74828 0.58848 0.0
C1632 C 0.67995 0.76535 0.58629 0.0
C1633 C 0.6743 0.77319 0.57128 0.0
C1634 C 0.65714 0.78731 0.54268 0.0
C1635 C 0.67213 0.80138 0.53915 0.0
C1636 C 0.67355 0.81681 0.5408 0.0
C1637 C 0.6599 0.81858 0.54524 0.0
C1638 C 0.64492 0.80437 0.5487 0.0
C1639 C 0.64364 0.78899 0.54761 0.0
H1640 H 0.2457 0.91748 0.54728 0.0
N1641 N 0.2269 0.88432 0.55454 0.0
H1642 H 0.25352 0.93131 0.51073 0.0
H1643 H 0.21632 0.8718 0.51136 0.0
H1644 H 0.22474 0.88603 0.47446 0.0
H1645 H 0.21641 0.90317 0.57593 0.0
H1646 H 0.23114 0.9234 0.6061 0.0
H1647 H 0.25133 0.88667 0.58027 0.0
H1648 H 0.26589 0.90646 0.61103 0.0
H1649 H 0.22352 0.85489 0.55779 0.0
H1650 H 0.1963 0.88027 0.55577 0.0
H1651 H 0.1985 0.82895 0.55977 0.0
H1652 H 0.17102 0.85438 0.55916 0.0
H1653 H 0.10414 0.78071 0.5326 0.0
H1654 H 0.09006 0.76711 0.49681 0.0
H1655 H 0.11798 0.74235 0.49423 0.0
H1656 H 0.13239 0.75637 0.52992 0.0
H1657 H 0.10767 0.78752 0.57406 0.0
H1658 H 0.08481 0.77289 0.60039 0.0
H1659 H 0.09674 0.73439 0.6066 0.0
H1660 H 0.1193 0.74897 0.58002 0.0
H1661 H 0.15335 0.78484 0.58083 0.0
H1662 H 0.17712 0.81185 0.58335 0.0
H1663 H 0.15327 0.83061 0.53853 0.0
N1664 N 0.12644 0.77571 0.55642 0.0
H1665 H 0.12927 0.80386 0.53745 0.0
C1666 C 0.22971 0.89331 0.53285 0.0
C1667 C 0.24038 0.91027 0.53185 0.0
C1668 C 0.24517 0.91834 0.51067 0.0
C1669 C 0.23981 0.90978 0.4897 0.0
C1670 C 0.22889 0.89301 0.49037 0.0
C1671 C 0.22404 0.88486 0.51163 0.0
C1672 C 0.23295 0.89357 0.5757 0.0
C1673 C 0.22687 0.90346 0.58407 0.0
C1674 C 0.23536 0.91506 0.60133 0.0
C1675 C 0.24992 0.9168 0.61066 0.0
C1676 C 0.25498 0.90574 0.60379 0.0
C1677 C 0.24661 0.89433 0.58639 0.0
C1678 C 0.21176 0.86943 0.55688 0.0
C1679 C 0.21207 0.85481 0.55822 0.0
C1680 C 0.19771 0.84 0.55956 0.0
C1681 C 0.18262 0.83946 0.55991 0.0
C1682 C 0.18236 0.85425 0.55877 0.0
C1683 C 0.19681 0.86911 0.55713 0.0
C1684 C 0.11957 0.76976 0.53374 0.0
C1685 C 0.10765 0.77279 0.524 0.0
C1686 C 0.09953 0.76495 0.50358 0.0
C1687 C 0.10293 0.75367 0.49284 0.0
C1688 C 0.11511 0.75095 0.50226 0.0
C1689 C 0.12341 0.75901 0.52247 0.0
C1690 C 0.11507 0.76921 0.57506 0.0
C1691 C 0.10552 0.7761 0.58149 0.0
C1692 C 0.09251 0.76775 0.59657 0.0
C1693 C 0.08886 0.75238 0.6053 0.0
C1694 C 0.09909 0.74607 0.59987 0.0
C1695 C 0.11204 0.75441 0.58489 0.0
C1696 C 0.13964 0.79215 0.55864 0.0
C1697 C 0.15322 0.79486 0.5718 0.0
C1698 C 0.16686 0.8103 0.57301 0.0
C1699 C 0.16735 0.82345 0.56072 0.0
C1700 C 0.1534 0.82086 0.5483 0.0
C1701 C 0.13962 0.80541 0.54745 0.0
H1702 H 0.23571 0.33626 0.53458 0.0
N1703 N 0.23962 0.36518 0.5507 0.0
H1704 H 0.24552 0.33184 0.49811 0.0
H1705 H 0.25209 0.3861 0.51572 0.0
H1706 H 0.26157 0.38166 0.47852 0.0
H1707 H 0.26876 0.387 0.56578 0.0
H1708 H 0.28731 0.38196 0.58968 0.0
H1709 H 0.23098 0.33763 0.57622 0.0
H1710 H 0.24958 0.33235 0.59991 0.0
H1711 H 0.21108 0.33775 0.53846 0.0
H1712 H 0.2309 0.384 0.57326 0.0
H1713 H 0.18405 0.33432 0.54118 0.0
H1714 H 0.20369 0.38019 0.57762 0.0
H1715 H 0.11424 0.32417 0.53003 0.0
H1716 H 0.09903 0.31828 0.49327 0.0
H1717 H 0.11204 0.36886 0.48759 0.0
H1718 H 0.12721 0.37459 0.52425 0.0
H1719 H 0.12103 0.37348 0.57262 0.0
H1720 H 0.09863 0.36644 0.59896 0.0
H1721 H 0.08968 0.31691 0.60137 0.0
H1722 H 0.11131 0.32392 0.57375 0.0
H1723 H 0.13494 0.32785 0.55862 0.0
H1724 H 0.16138 0.32959 0.56228 0.0
H1725 H 0.18437 0.38185 0.5548 0.0
N1726 N 0.12909 0.35335 0.5525 0.0
H1727 H 0.15781 0.37992 0.55267 0.0
C1728 C 0.24317 0.36158 0.52791 0.0
C1729 C 0.24113 0.34619 0.52239 0.0
C1730 C 0.24671 0.34366 0.50138 0.0
C1731 C 0.25441 0.35641 0.48535 0.0
C1732 C 0.25592 0.37164 0.49059 0.0
C1733 C 0.25036 0.37417 0.51169 0.0
C1734 C 0.24858 0.36272 0.56913 0.0
C1735 C 0.26436 0.3752 0.57381 0.0
C1736 C 0.27497 0.37224 0.58725 0.0
C1737 C 0.26999 0.35668 0.59632 0.0
C1738 C 0.25376 0.34447 0.59318 0.0
C1739 C 0.24312 0.34746 0.57964 0.0
C1740 C 0.22318 0.3614 0.55519 0.0
C1741 C 0.20965 0.34708 0.54706 0.0
C1742 C 0.19404 0.34505 0.54886 0.0
C1743 C 0.19155 0.35711 0.55926 0.0
C1744 C 0.20507 0.37085 0.56881 0.0
C1745 C 0.22066 0.373 0.56661 0.0
C1746 C 0.12189 0.34986 0.52971 0.0
C1747 C 0.11407 0.33401 0.52061 0.0
C1748 C 0.10538 0.33067 0.49965 0.0
C1749 C 0.10424 0.3431 0.48771 0.0
C1750 C 0.11254 0.35902 0.49656 0.0
C1751 C 0.1213 0.36234 0.51734 0.0
C1752 C 0.11804 0.34935 0.57145 0.0
C1753 C 0.11441 0.36119 0.57927 0.0
C1754 C 0.10158 0.35711 0.59441 0.0
C1755 C 0.09213 0.34103 0.60233 0.0
C1756 C 0.09638 0.32934 0.59533 0.0
C1757 C 0.10904 0.3334 0.57982 0.0
C1758 C 0.14439 0.35384 0.5558 0.0
C1759 C 0.14563 0.33969 0.55834 0.0
C1760 C 0.16087 0.34072 0.5601 0.0
C1761 C 0.17519 0.35588 0.55894 0.0
C1762 C 0.17376 0.36997 0.55641 0.0
C1763 C 0.15856 0.36893 0.55499 0.0
H1764 H 0.02302 0.41719 0.05981 0.0
H1765 H 0.97837 0.37144 0.06343 0.0
H1766 H 0.97116 0.3804 0.09871 0.0
H1767 H 0.97772 0.40095 0.12902 0.0
H1768 H 0.02218 0.44674 0.12523 0.0
H1769 H 0.02931 0.43792 0.08964 0.0
C1770 C 0.0117 0.40913 0.06827 0.0
C1771 C 1.0013 0.39361 0.0589 0.0
C1772 C 0.00759 0.41435 0.08859 0.0
C1773 C 0.98665 0.38344 0.07016 0.0
C1774 C 0.98249 0.38855 0.09038 0.0
C1775 C 0.98887 0.40909 0.12025 0.0
C1776 C 0.99939 0.42449 0.1298 0.0
C1777 C 0.99288 0.40396 0.09977 0.0
C1778 C 0.01395 0.43476 0.11842 0.0
C1779 C 0.018 0.42975 0.098 0.0
H1780 H 0.59597 0.60097 0.06133 0.0
H1781 H 0.64425 0.6213 0.08963 0.0
H1782 H 0.63363 0.60582 0.12544 0.0
H1783 H 0.61055 0.58632 0.14854 0.0
H1784 H 0.56206 0.56717 0.1214 0.0
H1785 H 0.57271 0.58212 0.08511 0.0
C1786 C 0.60409 0.60186 0.07536 0.0
C1787 C 0.62086 0.61162 0.07267 0.0
C1788 C 0.59785 0.59308 0.09595 0.0
C1789 C 0.63133 0.61327 0.09112 0.0
C1790 C 0.62526 0.60454 0.1116 0.0
C1791 C 0.60237 0.58537 0.13458 0.0
C1792 C 0.58559 0.57562 0.13742 0.0
C1793 C 0.60855 0.59428 0.11411 0.0
C1794 C 0.57503 0.57464 0.11946 0.0
C1795 C 0.58111 0.58317 0.09879 0.0
H1796 H 0.38991 0.01928 0.08496 0.0
H1797 H 0.39655 0.98501 0.04417 0.0
H1798 H 0.41342 0.9829 0.07502 0.0
H1799 H 0.42594 0.99061 0.11381 0.0
H1800 H 0.41922 0.02494 0.15463 0.0
H1801 H 0.40307 0.02758 0.12336 0.0
C1802 C 0.39535 0.01162 0.08275 0.0
C1803 C 0.39259 0.00276 0.06216 0.0
C1804 C 0.40498 0.0105 0.10053 0.0
C1805 C 0.39893 0.99222 0.05977 0.0
C1806 C 0.40853 0.99101 0.07736 0.0
C1807 C 0.42097 0.99871 0.1158 0.0
C1808 C 0.42376 0.00755 0.13649 0.0
C1809 C 0.41163 1.0001 0.09782 0.0
C1810 C 0.41739 0.01813 0.13877 0.0
C1811 C 0.40802 0.01952 0.121 0.0
H1812 H 0.4193 0.02109 0.97034 0.0
H1813 H 0.36946 0.9917 0.94849 0.0
H1814 H 0.37825 0.98466 0.91273 0.0
H1815 H 0.40011 0.98743 0.88743 0.0
H1816 H 0.44977 0.01488 0.91138 0.0
H1817 H 0.44093 0.02226 0.94648 0.0
C1818 C 0.4103 0.01308 0.95785 0.0
C1819 C 0.39372 0.00697 0.96213 0.0
C1820 C 0.41541 0.00882 0.93763 0.0
C1821 C 0.38229 0.99655 0.9457 0.0
C1822 C 0.38731 0.99255 0.92523 0.0
C1823 C 0.40904 0.99477 0.90044 0.0
C1824 C 0.42566 1.00067 0.89644 0.0
C1825 C 0.40385 0.99863 0.92101 0.0
C1826 C 0.43695 0.01044 0.91353 0.0
C1827 C 0.4319 0.01458 0.93378 0.0
H1828 H 0.01629 0.38821 0.93609 0.0
H1829 H 0.9848 0.40019 0.9741 0.0
H1830 H 0.98474 0.41724 0.94199 0.0
H1831 H 0.99277 0.42775 0.90249 0.0
H1832 H 0.02391 0.41532 0.86412 0.0
H1833 H 0.02543 0.39985 0.89719 0.0
C1834 C 0.00976 0.3949 0.93744 0.0
C1835 C 1.00101 0.39349 0.95757 0.0
C1836 C 0.00969 0.40453 0.91886 0.0
C1837 C 0.99191 0.40149 0.95887 0.0
C1838 C 0.99185 0.41117 0.94054 0.0
C1839 C 0.9999 0.42167 0.90139 0.0
C1840 C 0.00813 0.42262 0.88081 0.0
C1841 C 1.00057 0.41264 0.92036 0.0
C1842 C 0.01755 0.4149 0.8798 0.0
C1843 C 0.01831 0.40592 0.89862 0.0
H1844 H 0.60962 0.62272 0.96162 0.0
H1845 H 0.6144 0.58009 0.9736 0.0
H1846 H 0.59699 0.56673 0.94025 0.0
H1847 H 0.58059 0.56708 0.90729 0.0
H1848 H 0.57635 0.60989 0.89451 0.0
H1849 H 0.59304 0.623 0.92869 0.0
C1850 C 0.60683 0.6105 0.95701 0.0
C1851 C 0.61344 0.60253 0.97017 0.0
C1852 C 0.5968 0.60281 0.93765 0.0
C1853 C 0.60963 0.58665 0.96381 0.0
C1854 C 0.59962 0.57893 0.94471 0.0
C1855 C 0.58338 0.57931 0.91189 0.0
C1856 C 0.57714 0.58742 0.8983 0.0
C1857 C 0.59321 0.58691 0.93142 0.0
C1858 C 0.58073 0.6032 0.9048 0.0
C1859 C 0.5904 0.61079 0.92428 0.0
H1860 H 0.02462 0.63769 0.93999 0.0
H1861 H 0.99021 0.59456 0.97581 0.0
H1862 H 0.99195 0.57748 0.94537 0.0
H1863 H 1.00289 0.57496 0.90802 0.0
H1864 H 0.03798 0.61818 0.87286 0.0
H1865 H 0.03661 0.63514 0.90369 0.0
C1866 C 0.01782 0.62454 0.9413 0.0
C1867 C 0.00776 0.61729 0.96038 0.0
C1868 C 0.01897 0.61487 0.92383 0.0
C1869 C 0.99833 0.6003 0.96145 0.0
C1870 C 0.99931 0.59058 0.94408 0.0
C1871 C 0.01032 0.58808 0.90729 0.0
C1872 C 0.02052 0.59534 0.88828 0.0
C1873 C 0.00956 0.59773 0.92515 0.0
C1874 C 0.03015 0.61234 0.88747 0.0
C1875 C 0.02928 0.62203 0.90497 0.0
H1876 H 0.39463 0.40784 0.9791 0.0
H1877 H 0.40422 0.36992 0.95699 0.0
H1878 H 0.41466 0.38393 0.92015 0.0
H1879 H 0.42059 0.4066 0.89421 0.0
H1880 H 0.4144 0.44648 0.91818 0.0
H1881 H 0.40272 0.43186 0.95399 0.0
C1882 C 0.399 0.4027 0.96613 0.0
C1883 C 0.39858 0.38786 0.97054 0.0
C1884 C 0.40547 0.41109 0.9453 0.0
C1885 C 0.40447 0.38136 0.95388 0.0
C1886 C 0.4104 0.38934 0.93284 0.0
C1887 C 0.41708 0.41238 0.90734 0.0
C1888 C 0.41841 0.42772 0.90311 0.0
C1889 C 0.41098 0.40423 0.92838 0.0
C1890 C 0.41325 0.43458 0.92043 0.0
C1891 C 0.40668 0.42628 0.94112 0.0
H1892 H 0.61213 0.97681 0.93413 0.0
H1893 H 0.60228 0.01343 0.96107 0.0
H1894 H 0.58508 0.01026 0.92718 0.0
H1895 H 0.57355 0.99751 0.88961 0.0
H1896 H 0.58133 0.95876 0.86489 0.0
H1897 H 0.59886 0.96254 0.89803 0.0
C1898 C 0.60586 0.98377 0.93279 0.0
C1899 C 0.60789 0.99487 0.95033 0.0
C1900 C 0.59586 0.9817 0.91352 0.0
C1901 C 0.6005 0.00452 0.94793 0.0
C1902 C 0.59071 0.00271 0.9286 0.0
C1903 C 0.57868 0.98955 0.89162 0.0
C1904 C 0.57616 0.97801 0.8743 0.0
C1905 C 0.58829 0.9913 0.91129 0.0
C1906 C 0.58334 0.96812 0.87733 0.0
C1907 C 0.5933 0.97015 0.89647 0.0
H1908 H 0.58459 0.98104 0.05127 0.0
H1909 H 0.63385 0.01963 0.06105 0.0
H1910 H 0.62618 0.02793 0.09661 0.0
H1911 H 0.60571 0.02371 0.12552 0.0
H1912 H 0.55623 0.98586 0.11476 0.0
H1913 H 0.56389 0.97766 0.07918 0.0
C1914 C 0.59368 0.99128 0.06114 0.0
C1915 C 0.60981 0.99963 0.05349 0.0
C1916 C 0.58918 0.99607 0.0815 0.0
C1917 C 0.62135 0.01298 0.06645 0.0
C1918 C 0.61698 0.01772 0.08684 0.0
C1919 C 0.59652 0.01383 0.11525 0.0
C1920 C 0.5804 0.00539 0.123 0.0
C1921 C 0.60095 0.00931 0.09458 0.0
C1922 C 0.56877 0.99242 0.10955 0.0
C1923 C 0.57312 0.98777 0.08907 0.0
H1924 H 0.02736 0.63124 0.07927 0.0
H1925 H 0.9813 0.59991 0.04647 0.0
H1926 H 0.97364 0.581 0.07919 0.0
H1927 H 0.98063 0.57294 0.11614 0.0
H1928 H 0.02537 0.60632 0.15118 0.0
H1929 H 0.0331 0.62453 0.11823 0.0
C1930 C 0.01561 0.62031 0.07943 0.0
C1931 C 0.00491 0.61689 0.06056 0.0
C1932 C 0.01116 0.60973 0.09849 0.0
C1933 C 0.98966 0.60281 0.06095 0.0
C1934 C 0.98534 0.59197 0.07956 0.0
C1935 C 0.99195 0.58431 0.11698 0.0
C1936 C 1.00245 0.58788 0.1363 0.0
C1937 C 0.99606 0.59526 0.09836 0.0
C1938 C 0.01718 0.60271 0.13644 0.0
C1939 C 0.02158 0.61336 0.11764 0.0
H1940 H 0.38881 0.36768 0.09266 0.0
H1941 H 0.40107 0.41306 0.05926 0.0
H1942 H 0.4176 0.42806 0.09297 0.0
H1943 H 0.42816 0.42805 0.13191 0.0
H1944 H 0.41934 0.3823 0.16199 0.0
H1945 H 0.40143 0.36781 0.13012 0.0
C1946 C 0.39548 0.38086 0.09256 0.0
C1947 C 0.39431 0.3893 0.07323 0.0
C1948 C 0.40528 0.38936 0.11167 0.0
C1949 C 0.40217 0.40635 0.07379 0.0
C1950 C 0.4116 0.4149 0.09304 0.0
C1951 C 0.42284 0.41497 0.1315 0.0
C1952 C 0.42512 0.40657 0.15027 0.0
C1953 C 0.41333 0.40651 0.11206 0.0
C1954 C 0.41751 0.38944 0.14884 0.0
C1955 C 0.40735 0.38097 0.13023 0.0
H1956 H 0.66342 0.71232 0.39119 0.0
H1957 H 0.70934 0.75562 0.37958 0.0
H1958 H 0.70487 0.76876 0.41256 0.0
H1959 H 0.68814 0.76814 0.44493 0.0
H1960 H 0.64258 0.72478 0.4575 0.0
H1961 H 0.64659 0.71173 0.42375 0.0
C1962 C 0.67246 0.72462 0.39585 0.0
C1963 C 0.68672 0.73286 0.38284 0.0
C1964 C 0.66985 0.73222 0.41498 0.0
C1965 C 0.69826 0.74886 0.38923 0.0
C1966 C 0.69572 0.75646 0.40812 0.0
C1967 C 0.67913 0.7558 0.4404 0.0
C1968 C 0.66508 0.74751 0.45379 0.0
C1969 C 0.6816 0.74825 0.42117 0.0
C1970 C 0.65341 0.73159 0.44736 0.0
C1971 C 0.65574 0.72404 0.42814 0.0
H1972 H 0.2601 0.93948 0.38875 0.0
H1973 H 0.30716 0.9616 0.42163 0.0
H1974 H 0.29498 0.94905 0.45856 0.0
H1975 H 0.27127 0.93068 0.48087 0.0
H1976 H 0.22399 0.9074 0.44843 0.0
H1977 H 0.2359 0.92111 0.41176 0.0
C1978 C 0.26757 0.94152 0.4041 0.0
C1979 C 0.28447 0.95106 0.40256 0.0
C1980 C 0.26048 0.93395 0.4252 0.0
C1981 C 0.29414 0.95395 0.42247 0.0
C1982 C 0.28719 0.94683 0.44354 0.0
C1983 C 0.26351 0.9288 0.4659 0.0
C1984 C 0.24675 0.91818 0.46743 0.0
C1985 C 0.27042 0.93662 0.44501 0.0
C1986 C 0.23694 0.9155 0.44766 0.0
C1987 C 0.24373 0.92341 0.42676 0.0
H1988 H 0.06669 0.32486 0.39133 0.0
H1989 H 0.04647 0.35261 0.421 0.0
H1990 H 0.06178 0.35608 0.45695 0.0
H1991 H 0.08216 0.3527 0.47893 0.0
H1992 H 0.10281 0.32519 0.44964 0.0
H1993 H 0.08623 0.32021 0.41447 0.0
C1994 C 0.06569 0.33162 0.40576 0.0
C1995 C 0.05604 0.33902 0.40342 0.0
C1996 C 0.07468 0.3337 0.42629 0.0
C1997 C 0.05433 0.34733 0.4223 0.0
C1998 C 0.06299 0.34923 0.44284 0.0
C1999 C 0.08305 0.34564 0.46482 0.0
C2000 C 0.09381 0.33947 0.46673 0.0
C2001 C 0.07349 0.34281 0.44481 0.0
C2002 C 0.0946 0.33005 0.44854 0.0
C2003 C 0.08515 0.32723 0.42845 0.0
H2004 H 0.04516 0.32181 0.28959 0.0
H2005 H 0.08994 0.36488 0.30825 0.0
H2006 H 0.10296 0.36142 0.27452 0.0
H2007 H 0.1017 0.34692 0.23896 0.0
H2008 H 0.05716 0.30418 0.21922 0.0
H2009 H 0.04419 0.30661 0.25424 0.0
C2010 C 0.05778 0.3304 0.28636 0.0
C2011 C 0.06643 0.34367 0.3015 0.0
C2012 C 0.06533 0.3284 0.2667 0.0
C2013 C 0.08283 0.35461 0.29694 0.0
C2014 C 0.09037 0.35266 0.2776 0.0
C2015 C 0.08913 0.33815 0.24226 0.0
C2016 C 0.08041 0.32546 0.22638 0.0
C2017 C 0.08171 0.33973 0.26223 0.0
C2018 C 0.06422 0.31401 0.23122 0.0
C2019 C 0.05675 0.31546 0.25118 0.0
H2020 H 0.66548 0.7315 0.29195 0.0
H2021 H 0.6976 0.71627 0.26336 0.0
H2022 H 0.70002 0.73149 0.22783 0.0
H2023 H 0.69364 0.7496 0.20566 0.0
H2024 H 0.65809 0.76148 0.23141 0.0
H2025 H 0.65705 0.74782 0.26777 0.0
C2026 C 0.67307 0.73166 0.27792 0.0
C2027 C 0.68207 0.72359 0.28057 0.0
C2028 C 0.67399 0.74003 0.25727 0.0
C2029 C 0.69127 0.72316 0.26203 0.0
C2030 C 0.69251 0.73171 0.24168 0.0
C2031 C 0.68529 0.74895 0.21882 0.0
C2032 C 0.67592 0.75665 0.21538 0.0
C2033 C 0.68405 0.74031 0.23922 0.0
C2034 C 0.66573 0.75603 0.23341 0.0
C2035 C 0.66495 0.74801 0.25422 0.0
H2036 H 0.28014 0.95918 0.29049 0.0
H2037 H 0.28226 0.91522 0.30387 0.0
H2038 H 0.26602 0.90276 0.26916 0.0
H2039 H 0.25113 0.9042 0.23493 0.0
H2040 H 0.24923 0.94818 0.22126 0.0
H2041 H 0.26521 0.96059 0.2563 0.0
C2042 C 0.2771 0.94688 0.28585 0.0
C2043 C 0.28254 0.93823 0.29987 0.0
C2044 C 0.26767 0.9397 0.26583 0.0
C2045 C 0.27834 0.92225 0.29349 0.0
C2046 C 0.26901 0.91507 0.2736 0.0
C2047 C 0.2543 0.91654 0.23952 0.0
C2048 C 0.24894 0.92521 0.22544 0.0
C2049 C 0.26362 0.92368 0.25962 0.0
C2050 C 0.25297 0.94111 0.2319 0.0
C2051 C 0.26222 0.94828 0.25187 0.0
H2052 H 0.66443 0.93667 0.29741 0.0
H2053 H 0.69465 0.98425 0.26862 0.0
H2054 H 0.69796 0.97211 0.23321 0.0
H2055 H 0.69287 0.94808 0.21099 0.0
H2056 H 0.66193 0.90021 0.23881 0.0
H2057 H 0.65887 0.9123 0.27447 0.0
C2058 C 0.67175 0.94428 0.28332 0.0
C2059 C 0.67974 0.96127 0.28572 0.0
C2060 C 0.67365 0.93718 0.26306 0.0
C2061 C 0.68884 0.97113 0.26729 0.0
C2062 C 0.69066 0.9642 0.24705 0.0
C2063 C 0.68526 0.94024 0.22469 0.0
C2064 C 0.67753 0.92323 0.22205 0.0
C2065 C 0.68326 0.94725 0.24486 0.0
C2066 C 0.66814 0.91332 0.24038 0.0
C2067 C 0.66625 0.92023 0.2607 0.0
H2068 H 0.08909 0.72927 0.29899 0.0
H2069 H 0.04151 0.72384 0.28865 0.0
H2070 H 0.05087 0.7407 0.2539 0.0
H2071 H 0.07238 0.75645 0.22591 0.0
H2072 H 0.11989 0.76187 0.23654 0.0
H2073 H 0.11063 0.7454 0.27166 0.0
C2074 C 0.0807 0.73172 0.28919 0.0
C2075 C 0.06456 0.72518 0.29649 0.0
C2076 C 0.08614 0.74141 0.26922 0.0
C2077 C 0.05398 0.72865 0.28351 0.0
C2078 C 0.05932 0.73831 0.2636 0.0
C2079 C 0.08077 0.7542 0.23607 0.0
C2080 C 0.09681 0.7604 0.22857 0.0
C2081 C 0.07536 0.74471 0.25626 0.0
C2082 C 0.10744 0.75712 0.24175 0.0
C2083 C 0.10217 0.74775 0.26189 0.0
H2084 H 0.26837 0.34881 0.30438 0.0
H2085 H 0.28621 0.32014 0.27106 0.0
H2086 H 0.27081 0.31836 0.23585 0.0
H2087 H 0.25329 0.32604 0.21406 0.0
H2088 H 0.23644 0.35596 0.24636 0.0
H2089 H 0.25033 0.35617 0.28256 0.0
C2090 C 0.26866 0.34204 0.28943 0.0
C2091 C 0.2778 0.33406 0.29042 0.0
C2092 C 0.26001 0.34136 0.26915 0.0
C2093 C 0.27867 0.32579 0.27085 0.0
C2094 C 0.27 0.32491 0.2507 0.0
C2095 C 0.25246 0.33239 0.22915 0.0
C2096 C 0.24383 0.34092 0.22764 0.0
C2097 C 0.26068 0.33269 0.24964 0.0
C2098 C 0.24309 0.34937 0.24714 0.0
C2099 C 0.25101 0.34949 0.2678 0.0
H2100 H 0.29409 0.35504 0.39872 0.0
H2101 H 0.25232 0.30712 0.39197 0.0
H2102 H 0.24027 0.31205 0.42572 0.0
H2103 H 0.24136 0.3298 0.45719 0.0
H2104 H 0.28325 0.37742 0.465 0.0
H2105 H 0.29522 0.37286 0.43057 0.0
C2106 C 0.28238 0.34565 0.40464 0.0
C2107 C 0.27422 0.3307 0.39273 0.0
C2108 C 0.27541 0.34854 0.42418 0.0
C2109 C 0.25899 0.31873 0.40072 0.0
C2110 C 0.25201 0.32153 0.42005 0.0
C2111 C 0.25317 0.33916 0.4515 0.0
C2112 C 0.26136 0.35392 0.46375 0.0
C2113 C 0.26011 0.33637 0.43192 0.0
C2114 C 0.27653 0.36602 0.45577 0.0
C2115 C 0.28346 0.36337 0.43617 0.0
H2116 H 0.70018 0.94949 0.38521 0.0
H2117 H 0.65748 0.95406 0.39463 0.0
H2118 H 0.64975 0.93566 0.42766 0.0
H2119 H 0.65541 0.91886 0.4546 0.0
H2120 H 0.69798 0.91419 0.44525 0.0
H2121 H 0.70547 0.93213 0.41156 0.0
C2122 C 0.68917 0.94649 0.39444 0.0
C2123 C 0.67949 0.95326 0.38739 0.0
C2124 C 0.68476 0.93589 0.4135 0.0
C2125 C 0.66522 0.9491 0.3996 0.0
C2126 C 0.66076 0.93855 0.41854 0.0
C2127 C 0.66621 0.92158 0.445 0.0
C2128 C 0.67611 0.91518 0.45244 0.0
C2129 C 0.67046 0.93193 0.42569 0.0
C2130 C 0.69023 0.91908 0.44003 0.0
C2131 C 0.69449 0.9293 0.42072 0.0
H2132 H 0.05746 0.70259 0.41786 0.0
H2133 H 0.06636 0.74633 0.38227 0.0
H2134 H 0.08329 0.76284 0.41477 0.0
H2135 H 0.0959 0.76471 0.45315 0.0
H2136 H 0.08752 0.72083 0.48806 0.0
H2137 H 0.07014 0.70443 0.456 0.0
C2138 C 0.06335 0.71575 0.41717 0.0
C2139 C 0.06128 0.72335 0.39751 0.0
C2140 C 0.07308 0.72508 0.43581 0.0
C2141 C 0.06821 0.74033 0.39711 0.0
C2142 C 0.07785 0.74973 0.41565 0.0
C2143 C 0.09028 0.75156 0.45363 0.0
C2144 C 0.09301 0.74396 0.47282 0.0
C2145 C 0.08046 0.74223 0.43502 0.0
C2146 C 0.08572 0.72693 0.47332 0.0
C2147 C 0.0757 0.71756 0.4551 0.0
H2148 H 0.32385 0.04395 0.73661 0.0
H2149 H 0.35979 0.09097 0.71136 0.0
H2150 H 0.35461 0.10421 0.74363 0.0
H2151 H 0.34035 0.10257 0.77939 0.0
H2152 H 0.30651 0.05546 0.80712 0.0
H2153 H 0.31011 0.0423 0.77333 0.0
C2154 C 0.33047 0.0571 0.7381 0.0
C2155 C 0.34211 0.06642 0.72143 0.0
C2156 C 0.32777 0.06469 0.75715 0.0
C2157 C 0.35072 0.08345 0.72383 0.0
C2158 C 0.34779 0.09107 0.74234 0.0
C2159 C 0.33387 0.08941 0.7783 0.0
C2160 C 0.32311 0.08014 0.79597 0.0
C2161 C 0.33644 0.08181 0.75921 0.0
C2162 C 0.31461 0.06307 0.79371 0.0
C2163 C 0.31679 0.05545 0.77444 0.0
H2164 H 0.93296 0.2715 0.72179 0.0
H2165 H 0.98003 0.29021 0.75379 0.0
H2166 H 0.96768 0.27524 0.78939 0.0
H2167 H 0.9436 0.2563 0.81089 0.0
H2168 H 0.89638 0.23655 0.77864 0.0
H2169 H 0.90862 0.25242 0.74366 0.0
C2170 C 0.94042 0.2722 0.73661 0.0
C2171 C 0.95734 0.28142 0.73511 0.0
C2172 C 0.93322 0.26338 0.75688 0.0
C2173 C 0.96698 0.28271 0.75447 0.0
C2174 C 0.95993 0.27425 0.77481 0.0
C2175 C 0.93597 0.25532 0.79615 0.0
C2176 C 0.91909 0.24516 0.79739 0.0
C2177 C 0.94308 0.26435 0.77607 0.0
C2178 C 0.90939 0.24436 0.77826 0.0
C2179 C 0.91638 0.2534 0.75821 0.0
H2180 H 0.72041 0.68768 0.74681 0.0
H2181 H 0.72725 0.64835 0.72326 0.0
H2182 H 0.74434 0.65164 0.75727 0.0
H2183 H 0.75675 0.6654 0.79374 0.0
H2184 H 0.7536 0.70799 0.81333 0.0
H2185 H 0.73518 0.70325 0.78138 0.0
C2186 C 0.72607 0.68018 0.74883 0.0
C2187 C 0.7232 0.66826 0.73219 0.0
C2188 C 0.73622 0.68246 0.76801 0.0
C2189 C 0.7297 0.6579 0.73564 0.0
C2190 C 0.73944 0.65977 0.75505 0.0
C2191 C 0.7526 0.67408 0.79093 0.0
C2192 C 0.75661 0.68688 0.80686 0.0
C2193 C 0.74284 0.67209 0.77132 0.0
C2194 C 0.75044 0.69755 0.80247 0.0
C2195 C 0.74 0.69504 0.78378 0.0
H2196 H 0.74895 0.68153 0.63431 0.0
H2197 H 0.70099 0.64101 0.62245 0.0
H2198 H 0.71072 0.63296 0.58858 0.0
H2199 H 0.73262 0.63837 0.56115 0.0
H2200 H 0.78048 0.67881 0.5739 0.0
H2201 H 0.77093 0.68597 0.60859 0.0
C2202 C 0.74056 0.6709 0.6244 0.0
C2203 C 0.72419 0.66198 0.63087 0.0
C2204 C 0.74621 0.66636 0.60502 0.0
C2205 C 0.71363 0.64813 0.61789 0.0
C2206 C 0.71919 0.64354 0.59848 0.0
C2207 C 0.74102 0.64859 0.57173 0.0
C2208 C 0.75723 0.65813 0.56478 0.0
C2209 C 0.73543 0.65267 0.59174 0.0
C2210 C 0.76789 0.67143 0.57859 0.0
C2211 C 0.76246 0.6755 0.59849 0.0
H2212 H 0.32677 0.06734 0.62948 0.0
H2213 H 0.35647 0.04816 0.60399 0.0
H2214 H 0.36132 0.06379 0.56817 0.0
H2215 H 0.35777 0.08359 0.5447 0.0
H2216 H 0.32711 0.10198 0.56908 0.0
H2217 H 0.32211 0.08623 0.60495 0.0
C2218 C 0.33433 0.0667 0.61603 0.0
C2219 C 0.34187 0.05728 0.61956 0.0
C2220 C 0.33696 0.07566 0.59547 0.0
C2221 C 0.35113 0.05593 0.60185 0.0
C2222 C 0.3538 0.06475 0.58137 0.0
C2223 C 0.35005 0.08417 0.55795 0.0
C2224 C 0.34293 0.09399 0.5545 0.0
C2225 C 0.347 0.07487 0.57817 0.0
C2226 C 0.33272 0.09448 0.5715 0.0
C2227 C 0.32986 0.08549 0.59194 0.0
H2228 H 0.94907 0.29368 0.62487 0.0
H2229 H 0.9494 0.24864 0.63682 0.0
H2230 H 0.93182 0.23649 0.60328 0.0
H2231 H 0.91663 0.23856 0.57008 0.0
H2232 H 0.91642 0.2835 0.55737 0.0
H2233 H 0.93337 0.29558 0.59181 0.0
C2234 C 0.94529 0.2812 0.62019 0.0
C2235 C 0.95071 0.2722 0.63343 0.0
C2236 C 0.9351 0.27418 0.60074 0.0
C2237 C 0.94556 0.25599 0.62702 0.0
C2238 C 0.93546 0.24896 0.60779 0.0
C2239 C 0.92035 0.25103 0.57477 0.0
C2240 C 0.91527 0.26009 0.56108 0.0
C2241 C 0.93023 0.25796 0.59444 0.0
C2242 C 0.91999 0.27615 0.5677 0.0
C2243 C 0.92979 0.28312 0.58732 0.0
H2244 H 0.35599 0.30601 0.60173 0.0
H2245 H 0.32843 0.26245 0.64155 0.0
H2246 H 0.3298 0.24595 0.60983 0.0
H2247 H 0.33972 0.2442 0.57127 0.0
H2248 H 0.36588 0.28794 0.5307 0.0
H2249 H 0.3645 0.30409 0.56236 0.0
C2250 C 0.35042 0.29291 0.60342 0.0
C2251 C 0.34267 0.28541 0.62409 0.0
C2252 C 0.35107 0.28357 0.58504 0.0
C2253 C 0.33482 0.26842 0.62589 0.0
C2254 C 0.33559 0.25903 0.60779 0.0
C2255 C 0.34498 0.25723 0.5692 0.0
C2256 C 0.35309 0.26477 0.54861 0.0
C2257 C 0.34383 0.2665 0.58734 0.0
C2258 C 0.35993 0.28175 0.54648 0.0
C2259 C 0.35898 0.29104 0.56449 0.0
H2260 H 0.75129 0.05732 0.62762 0.0
H2261 H 0.7044 0.05389 0.61944 0.0
H2262 H 0.71427 0.07232 0.58632 0.0
H2263 H 0.73611 0.08917 0.55938 0.0
H2264 H 0.78304 0.09286 0.56811 0.0
H2265 H 0.77315 0.07442 0.60121 0.0
C2266 C 0.74316 0.06052 0.61861 0.0
C2267 C 0.72706 0.05412 0.62608 0.0
C2268 C 0.74892 0.07118 0.59963 0.0
C2269 C 0.71682 0.05858 0.61415 0.0
C2270 C 0.72246 0.06914 0.59518 0.0
C2271 C 0.74424 0.08611 0.56869 0.0
C2272 C 0.76032 0.09243 0.56123 0.0
C2273 C 0.73849 0.07552 0.58778 0.0
C2274 C 0.77058 0.08806 0.57328 0.0
C2275 C 0.76495 0.07756 0.59228 0.0
H2276 H 0.94801 0.64738 0.60825 0.0
H2277 H 0.93946 0.6853 0.63329 0.0
H2278 H 0.92315 0.68266 0.59856 0.0
H2279 H 0.91229 0.67014 0.56063 0.0
H2280 H 0.9177 0.62927 0.53888 0.0
H2281 H 0.93458 0.6328 0.57249 0.0
C2282 C 0.94211 0.65467 0.60642 0.0
C2283 C 0.94432 0.66604 0.6236 0.0
C2284 C 0.93251 0.65281 0.58676 0.0
C2285 C 0.93751 0.67616 0.62045 0.0
C2286 C 0.92824 0.67466 0.60062 0.0
C2287 C 0.91669 0.66163 0.56334 0.0
C2288 C 0.91386 0.64971 0.54645 0.0
C2289 C 0.92568 0.66302 0.58361 0.0
C2290 C 0.9201 0.63909 0.55065 0.0
C2291 C 0.92964 0.64091 0.57019 0.0
H2292 H 0.92912 0.6467 0.73793 0.0
H2293 H 0.96108 0.69687 0.71996 0.0
H2294 H 0.95153 0.70569 0.75318 0.0
H2295 H 0.93362 0.69907 0.78676 0.0
H2296 H 0.90321 0.64874 0.80595 0.0
H2297 H 0.91234 0.64015 0.77241 0.0
C2298 C 0.93402 0.65958 0.74125 0.0
C2299 C 0.94575 0.6711 0.7264 0.0
C2300 C 0.9286 0.66456 0.76045 0.0
C2301 C 0.95208 0.68774 0.73115 0.0
C2302 C 0.94657 0.69279 0.75009 0.0
C2303 C 0.9291 0.68622 0.78385 0.0
C2304 C 0.91754 0.67463 0.79891 0.0
C2305 C 0.93479 0.68129 0.76482 0.0
C2306 C 0.91174 0.65801 0.79446 0.0
C2307 C 0.9171 0.65304 0.77536 0.0
H2308 H 0.36989 0.29853 0.7413 0.0
H2309 H 0.32285 0.26707 0.71123 0.0
H2310 H 0.31621 0.24826 0.74384 0.0
H2311 H 0.32389 0.24075 0.78049 0.0
H2312 H 0.36945 0.27429 0.81343 0.0
H2313 H 0.37673 0.29191 0.77977 0.0
C2314 C 0.35819 0.28755 0.742 0.0
C2315 C 0.34686 0.28412 0.724 0.0
C2316 C 0.35427 0.27706 0.76115 0.0
C2317 C 0.33169 0.26997 0.72505 0.0
C2318 C 0.32793 0.2592 0.74362 0.0
C2319 C 0.3353 0.25202 0.78072 0.0
C2320 C 0.34606 0.2559 0.79977 0.0
C2321 C 0.33912 0.26265 0.7618 0.0
C2322 C 0.36098 0.27052 0.799 0.0
C2323 C 0.36514 0.28082 0.77979 0.0
H2324 H 0.73347 0.07323 0.71839 0.0
H2325 H 0.7182 0.02526 0.74516 0.0
H2326 H 0.73444 0.03689 0.78033 0.0
H2327 H 0.75276 0.06071 0.80363 0.0
H2328 H 0.76686 0.1088 0.7783 0.0
H2329 H 0.7515 0.09724 0.74228 0.0
C2330 C 0.73386 0.06542 0.73193 0.0
C2331 C 0.72529 0.04848 0.72895 0.0
C2332 C 0.74304 0.07222 0.75224 0.0
C2333 C 0.7253 0.03836 0.74681 0.0
C2334 C 0.73446 0.045 0.76696 0.0
C2335 C 0.75258 0.06863 0.79009 0.0
C2336 C 0.76098 0.08554 0.79343 0.0
C2337 C 0.74345 0.0619 0.76979 0.0
C2338 C 0.76045 0.09572 0.77602 0.0
C2339 C 0.75168 0.08913 0.75549 0.0
H2340 H 0.05987 0.37598 0.02254 0.0
H2341 H 0.01445 0.3389 0.05019 0.0
H2342 H 0.02859 0.32762 0.07246 0.0
H2343 H 0.0538 0.32888 0.08535 0.0
H2344 H 0.09921 0.36496 0.05639 0.0
H2345 H 0.08511 0.37616 0.03372 0.0
C2346 C 0.05306 0.36543 0.03342 0.0
C2347 C 0.03612 0.35838 0.03476 0.0
C2348 C 0.06126 0.35887 0.04609 0.0
C2349 C 0.02749 0.34458 0.04876 0.0
C2350 C 0.03557 0.33813 0.06158 0.0
C2351 C 0.06065 0.33899 0.07376 0.0
C2352 C 0.07761 0.34604 0.07273 0.0
C2353 C 0.05245 0.34522 0.06048 0.0
C2354 C 0.0862 0.3594 0.05791 0.0
C2355 C 0.07813 0.36578 0.0448 0.0
H2356 H 0.63578 0.68535 0.02412 0.0
H2357 H 0.67814 0.68725 0.05563 0.0
H2358 H 0.68679 0.71455 0.07026 0.0
H2359 H 0.68145 0.73704 0.07645 0.0
H2360 H 0.63819 0.73473 0.04793 0.0
H2361 H 0.63068 0.70846 0.02981 0.0
C2362 C 0.647 0.69187 0.03392 0.0
C2363 C 0.65635 0.68435 0.03875 0.0
C2364 C 0.65166 0.70742 0.04295 0.0
C2365 C 0.67073 0.69279 0.05176 0.0
C2366 C 0.67568 0.70839 0.06013 0.0
C2367 C 0.67053 0.73092 0.0659 0.0
C2368 C 0.66047 0.73788 0.06329 0.0
C2369 C 0.66612 0.71571 0.05616 0.0
C2370 C 0.64613 0.72962 0.05011 0.0
C2371 C 0.64186 0.71461 0.03978 0.0
H2372 H 0.31181 0.9592 0.02154 0.0
H2373 H 0.32307 0.99918 0.06793 0.0
H2374 H 0.29748 0.98305 0.08775 0.0
H2375 H 0.27289 0.95716 0.09378 0.0
H2376 H 0.26149 0.91656 0.04866 0.0
H2377 H 0.2862 0.93326 0.02669 0.0
C2378 C 0.30851 0.96443 0.03576 0.0
C2379 C 0.31932 0.98038 0.04324 0.0
C2380 C 0.29386 0.95491 0.04752 0.0
C2381 C 0.31499 0.98693 0.06187 0.0
C2382 C 0.30037 0.9777 0.07327 0.0
C2383 C 0.27562 0.95201 0.07888 0.0
C2384 C 0.26528 0.93563 0.07283 0.0
C2385 C 0.28985 0.96161 0.0665 0.0
C2386 C 0.26928 0.92909 0.0538 0.0
C2387 C 0.28338 0.93866 0.04118 0.0
H2388 H 0.34008 0.02812 0.98264 0.0
H2389 H 0.3872 0.06931 0.99729 0.0
H2390 H 0.37921 0.08732 0.97811 0.0
H2391 H 0.35922 0.09142 0.95611 0.0
H2392 H 0.31247 0.05018 0.9402 0.0
H2393 H 0.31985 0.03234 0.96138 0.0
C2394 C 0.34861 0.04104 0.98175 0.0
C2395 C 0.36428 0.04724 0.99132 0.0
C2396 C 0.34398 0.05141 0.97054 0.0
C2397 C 0.3751 0.06408 0.98997 0.0
C2398 C 0.37054 0.07445 0.97901 0.0
C2399 C 0.35065 0.07852 0.9572 0.0
C2400 C 0.33531 0.07222 0.9465 0.0
C2401 C 0.35508 0.06823 0.96903 0.0
C2402 C 0.32427 0.05548 0.94851 0.0
C2403 C 0.32854 0.0452 0.96045 0.0
H2404 H 0.95009 0.31333 0.99573 0.0
H2405 H 0.9919 0.31927 0.95879 0.0
H2406 H 0.97571 0.29265 0.94068 0.0
H2407 H 0.94937 0.26855 0.93328 0.0
H2408 H 0.90698 0.26325 0.96767 0.0
H2409 H 0.92361 0.28872 0.98884 0.0
C2410 C 0.95565 0.30867 0.98394 0.0
C2411 C 0.97215 0.3182 0.97861 0.0
C2412 C 0.94614 0.29353 0.97302 0.0
C2413 C 0.9792 0.31215 0.96309 0.0
C2414 C 0.96996 0.29695 0.95272 0.0
C2415 C 0.94384 0.27286 0.94571 0.0
C2416 C 0.92703 0.26403 0.94909 0.0
C2417 C 0.95338 0.28765 0.95727 0.0
C2418 C 0.91992 0.26988 0.96483 0.0
C2419 C 0.92942 0.28442 0.97691 0.0
H2420 H 0.68836 0.6248 0.99286 0.0
H2421 H 0.68466 0.66821 0.98273 0.0
H2422 H 0.71055 0.6811 0.96287 0.0
H2423 H 0.73412 0.68002 0.94797 0.0
H2424 H 0.73777 0.63663 0.95763 0.0
H2425 H 0.71196 0.62375 0.97804 0.0
C2426 C 0.69316 0.63708 0.98632 0.0
C2427 C 0.68446 0.64547 0.98933 0.0
C2428 C 0.70808 0.64444 0.97484 0.0
C2429 C 0.69099 0.66139 0.98066 0.0
C2430 C 0.70584 0.66881 0.96932 0.0
C2431 C 0.72937 0.66782 0.95481 0.0
C2432 C 0.73791 0.65933 0.95144 0.0
C2433 C 0.71449 0.66046 0.96633 0.0
C2434 C 0.73141 0.64339 0.95994 0.0
C2435 C 0.71667 0.63604 0.97163 0.0
H2436 H 0.95529 0.6465 0.99516 0.0
H2437 H 0.99638 0.68111 0.95596 0.0
H2438 H 0.97972 0.69108 0.93723 0.0
H2439 H 0.9532 0.68906 0.93052 0.0
H2440 H 0.91158 0.65324 0.96744 0.0
H2441 H 0.92865 0.64458 0.98853 0.0
C2442 C 0.96061 0.65634 0.98269 0.0
C2443 C 0.97705 0.66311 0.977 0.0
C2444 C 0.95083 0.66171 0.97151 0.0
C2445 C 0.98375 0.67569 0.96059 0.0
C2446 C 0.97423 0.68139 0.94988 0.0
C2447 C 0.94793 0.67951 0.94343 0.0
C2448 C 0.93122 0.67188 0.94761 0.0
C2449 C 0.95773 0.67437 0.955 0.0
C2450 C 0.92444 0.65928 0.96398 0.0
C2451 C 0.93419 0.65435 0.97602 0.0
H2452 H 0.3829 0.3224 0.98827 0.0
H2453 H 0.33451 0.31296 0.00254 0.0
H2454 H 0.32329 0.28668 0.98272 0.0
H2455 H 0.3273 0.2666 0.9611 0.0
H2456 H 0.37588 0.27777 0.94352 0.0
H2457 H 0.38686 0.3028 0.96572 0.0
C2458 C 0.36988 0.31457 0.98717 0.0
C2459 C 0.35956 0.31963 0.99696 0.0
C2460 C 0.36353 0.29967 0.97539 0.0
C2461 C 0.34273 0.3094 0.99508 0.0
C2462 C 0.33631 0.29435 0.98382 0.0
C2463 C 0.34029 0.27453 0.9618 0.0
C2464 C 0.35064 0.27002 0.95051 0.0
C2465 C 0.34661 0.2894 0.97379 0.0
C2466 C 0.36748 0.28049 0.95233 0.0
C2467 C 0.37384 0.29501 0.96482 0.0
H2468 H 0.68912 0.04725 0.99223 0.0
H2469 H 0.6795 0.00767 0.94591 0.0
H2470 H 0.7054 0.02434 0.92703 0.0
H2471 H 0.73016 0.05042 0.92243 0.0
H2472 H 0.73984 0.09047 0.96771 0.0
H2473 H 0.71446 0.07344 0.98806 0.0
C2474 C 0.69278 0.04224 0.97815 0.0
C2475 C 0.68239 0.02622 0.97051 0.0
C2476 C 0.70762 0.05202 0.96705 0.0
C2477 C 0.68723 0.01996 0.95211 0.0
C2478 C 0.70204 0.02949 0.94127 0.0
C2479 C 0.72685 0.05538 0.93698 0.0
C2480 C 0.73694 0.07167 0.94363 0.0
C2481 C 0.71225 0.04557 0.94843 0.0
C2482 C 0.73225 0.07799 0.96216 0.0
C2483 C 0.71778 0.06824 0.97385 0.0
H2484 H 0.62246 0.93856 0.02481 0.0
H2485 H 0.66629 0.98395 0.03799 0.0
H2486 H 0.67798 0.96941 0.05836 0.0
H2487 H 0.67548 0.94403 0.07357 0.0
H2488 H 0.63188 0.89859 0.06014 0.0
H2489 H 0.62034 0.91302 0.03887 0.0
C2490 C 0.63457 0.94532 0.03214 0.0
C2491 C 0.64341 0.96238 0.02993 0.0
C2492 C 0.64127 0.93689 0.04383 0.0
C2493 C 0.65916 0.97084 0.03941 0.0
C2494 C 0.66587 0.96254 0.05109 0.0
C2495 C 0.66357 0.93722 0.06564 0.0
C2496 C 0.65459 0.92022 0.0684 0.0
C2497 C 0.65702 0.94558 0.05348 0.0
C2498 C 0.63901 0.91168 0.05845 0.0
C2499 C 0.63242 0.91992 0.04624 0.0
H2500 H 0.06195 0.68518 0.04439 0.0
H2501 H 0.02261 0.69438 0.02851 0.0
H2502 H 0.03741 0.72102 0.04719 0.0
H2503 H 0.06148 0.74162 0.06817 0.0
H2504 H 0.09974 0.73119 0.08648 0.0
H2505 H 0.0856 0.7054 0.06603 0.0
C2506 C 0.05659 0.693 0.04493 0.0
C2507 C 0.04116 0.68773 0.03502 0.0
C2508 C 0.06507 0.70821 0.05593 0.0
C2509 C 0.03441 0.69804 0.03609 0.0
C2510 C 0.0429 0.71332 0.04671 0.0
C2511 C 0.06671 0.73369 0.06793 0.0
C2512 C 0.08181 0.73859 0.07887 0.0
C2513 C 0.05822 0.71851 0.05677 0.0
C2514 C 0.0884 0.72811 0.07785 0.0
C2515 C 0.0802 0.71319 0.06636 0.0
H2516 H 0.31814 0.33721 0.07069 0.0
H2517 H 0.31894 0.36725 0.01354 0.0
H2518 H 0.29314 0.36437 0.02564 0.0
H2519 H 0.2712 0.35493 0.05401 0.0
H2520 H 0.26983 0.32432 0.11059 0.0
H2521 H 0.29476 0.32561 0.09704 0.0
C2522 C 0.31258 0.34299 0.06077 0.0
C2523 C 0.32056 0.35255 0.04136 0.0
C2524 C 0.29761 0.3412 0.06775 0.0
C2525 C 0.31311 0.35984 0.02858 0.0
C2526 C 0.29835 0.35825 0.03552 0.0
C2527 C 0.2763 0.34842 0.0632 0.0
C2528 C 0.26873 0.3396 0.08331 0.0
C2529 C 0.29063 0.3492 0.0553 0.0
C2530 C 0.27536 0.33108 0.09495 0.0
C2531 C 0.28969 0.33192 0.08731 0.0
H2532 H 0.69948 0.67594 0.3811 0.0
H2533 H 0.74215 0.7106 0.34463 0.0
H2534 H 0.75823 0.70058 0.36475 0.0
H2535 H 0.76036 0.68223 0.393 0.0
H2536 H 0.71809 0.64886 0.43146 0.0
H2537 H 0.70174 0.65786 0.40989 0.0
C2538 C 0.71228 0.68125 0.37747 0.0
C2539 C 0.71955 0.69402 0.36136 0.0
C2540 C 0.72158 0.6756 0.38937 0.0
C2541 C 0.7362 0.70083 0.35703 0.0
C2542 C 0.74544 0.69508 0.3685 0.0
C2543 C 0.74761 0.67699 0.39687 0.0
C2544 C 0.74055 0.66477 0.41383 0.0
C2545 C 0.73829 0.68254 0.38483 0.0
C2546 C 0.72389 0.65801 0.4182 0.0
C2547 C 0.7145 0.66327 0.40601 0.0
H2548 H 0.34147 0.02077 0.39515 0.0
H2549 H 0.31341 0.02449 0.33847 0.0
H2550 H 0.31965 0.05154 0.35185 0.0
H2551 H 0.33185 0.07355 0.38126 0.0
H2552 H 0.36022 0.06955 0.43729 0.0
H2553 H 0.35513 0.0433 0.42257 0.0
C2554 C 0.33685 0.02756 0.38557 0.0
C2555 C 0.32692 0.02058 0.36593 0.0
C2556 C 0.34047 0.04306 0.39335 0.0
C2557 C 0.32112 0.0296 0.35362 0.0
C2558 C 0.32461 0.04503 0.36135 0.0
C2559 C 0.33695 0.06693 0.39011 0.0
C2560 C 0.34641 0.07351 0.41031 0.0
C2561 C 0.33405 0.05179 0.38144 0.0
C2562 C 0.35305 0.06486 0.42156 0.0
C2563 C 0.35009 0.04979 0.41323 0.0
H2564 H 0.98514 0.32314 0.39626 0.0
H2565 H 0.98012 0.2888 0.34338 0.0
H2566 H 0.95344 0.26918 0.35831 0.0
H2567 H 0.93201 0.26133 0.38786 0.0
H2568 H 0.9377 0.29623 0.44035 0.0
H2569 H 0.96352 0.31602 0.42406 0.0
C2570 C 0.97818 0.31141 0.38785 0.0
C2571 C 0.98467 0.30742 0.36881 0.0
C2572 C 0.96293 0.30023 0.39654 0.0
C2573 C 0.97541 0.2922 0.35805 0.0
C2574 C 0.96017 0.28094 0.36666 0.0
C2575 C 0.93891 0.27329 0.39564 0.0
C2576 C 0.93284 0.27729 0.41524 0.0
C2577 C 0.95389 0.28473 0.38614 0.0
C2578 C 0.94191 0.29288 0.42505 0.0
C2579 C 0.95676 0.30421 0.41584 0.0
H2580 H 1.00322 0.36191 0.32719 0.0
H2581 H 0.05287 0.39418 0.30846 0.0
H2582 H 0.04474 0.41117 0.28661 0.0
H2583 H 0.02369 0.41683 0.27247 0.0
H2584 H 0.97415 0.38588 0.29306 0.0
H2585 H 0.98206 0.36838 0.31419 0.0
C2586 C 0.01221 0.37261 0.31821 0.0
C2587 C 0.02862 0.37673 0.3194 0.0
C2588 C 0.0075 0.3826 0.30599 0.0
C2589 C 0.04017 0.39076 0.30791 0.0
C2590 C 0.03554 0.4005 0.29538 0.0
C2591 C 0.01461 0.40645 0.28191 0.0
C2592 C 0.99832 0.40277 0.28106 0.0
C2593 C 0.01926 0.39659 0.29438 0.0
C2594 C 0.98675 0.38896 0.29304 0.0
C2595 C 0.99127 0.37895 0.30526 0.0
H2596 H 0.63083 0.64804 0.33303 0.0
H2597 H 0.66916 0.65108 0.29013 0.0
H2598 H 0.65081 0.62455 0.27338 0.0
H2599 H 0.6236 0.6015 0.26873 0.0
H2600 H 0.58468 0.59823 0.3104 0.0
H2601 H 0.60345 0.6239 0.32958 0.0
C2602 C 0.63519 0.64275 0.32029 0.0
C2603 C 0.65135 0.65153 0.31284 0.0
C2604 C 0.62442 0.62756 0.31027 0.0
C2605 C 0.65678 0.64462 0.29611 0.0
C2606 C 0.64629 0.62945 0.28647 0.0
C2607 C 0.61924 0.60619 0.28233 0.0
C2608 C 0.60274 0.59787 0.28817 0.0
C2609 C 0.63004 0.62095 0.29311 0.0
C2610 C 0.59728 0.60443 0.30544 0.0
C2611 C 0.60803 0.61908 0.31648 0.0
H2612 H 0.35432 0.99232 0.30881 0.0
H2613 H 0.35466 0.95401 0.34961 0.0
H2614 H 0.38024 0.95975 0.33275 0.0
H2615 H 0.40188 0.97449 0.30505 0.0
H2616 H 0.40139 0.012 0.26268 0.0
H2617 H 0.37691 0.00802 0.28191 0.0
C2618 C 0.36006 0.98533 0.31414 0.0
C2619 C 0.35239 0.97263 0.33031 0.0
C2620 C 0.37484 0.98856 0.30414 0.0
C2621 C 0.36008 0.96372 0.337 0.0
C2622 C 0.37479 0.96701 0.32741 0.0
C2623 C 0.39644 0.9818 0.29998 0.0
C2624 C 0.40348 0.99345 0.28232 0.0
C2625 C 0.38215 0.97919 0.3107 0.0
C2626 C 0.39639 0.00305 0.27638 0.0
C2627 C 0.38226 1.00067 0.28723 0.0
H2628 H 0.66211 0.01755 0.29125 0.0
H2629 H 0.62846 0.9854 0.34207 0.0
H2630 H 0.60747 0.99068 0.32651 0.0
H2631 H 0.598 0.00282 0.29651 0.0
H2632 H 0.63178 0.03564 0.2465 0.0
H2633 H 0.65338 0.03186 0.26375 0.0
C2634 C 0.65024 0.01186 0.29908 0.0
C2635 C 0.64683 1.00099 0.31766 0.0
C2636 C 0.6382 0.01502 0.29011 0.0
C2637 C 0.63143 0.99381 0.32775 0.0
C2638 C 0.61937 0.99677 0.31879 0.0
C2639 C 0.61015 0.00925 0.2896 0.0
C2640 C 0.6133 0.01942 0.27023 0.0
C2641 C 0.62252 0.00709 0.29969 0.0
C2642 C 0.6291 0.02783 0.26151 0.0
C2643 C 0.64143 0.02559 0.27127 0.0
H2644 H 0.00866 0.64331 0.33146 0.0
H2645 H 0.05706 0.66291 0.30509 0.0
H2646 H 0.04907 0.63769 0.28405 0.0
H2647 H 0.02821 0.61046 0.27211 0.0
H2648 H 0.98023 0.5899 0.30054 0.0
H2649 H 0.98817 0.6151 0.32159 0.0
C2650 C 0.01742 0.64204 0.32104 0.0
C2651 C 0.03339 0.65501 0.31969 0.0
C2652 C 0.01283 0.62734 0.30932 0.0
C2653 C 0.04469 0.65311 0.30643 0.0
C2654 C 0.04013 0.63869 0.29437 0.0
C2655 C 0.01954 0.61129 0.28326 0.0
C2656 C 1.00358 0.59823 0.28448 0.0
C2657 C 0.02424 0.62574 0.29565 0.0
C2658 C 0.99251 0.5998 0.29881 0.0
C2659 C 0.99705 0.61421 0.31098 0.0
H2660 H 0.36143 0.38162 0.34493 0.0
H2661 H 0.34317 0.35829 0.27859 0.0
H2662 H 0.36815 0.37781 0.26016 0.0
H2663 H 0.39517 0.40134 0.26247 0.0
H2664 H 0.41496 0.42412 0.32837 0.0
H2665 H 0.38945 0.40511 0.34742 0.0
C2666 C 0.36298 0.38083 0.32648 0.0
C2667 C 0.35042 0.3685 0.31319 0.0
C2668 C 0.3776 0.39205 0.31588 0.0
C2669 C 0.35263 0.36757 0.2893 0.0
C2670 C 0.36691 0.37878 0.27866 0.0
C2671 C 0.3938 0.40225 0.28097 0.0
C2672 C 0.40669 0.41423 0.294 0.0
C2673 C 0.37942 0.39107 0.29173 0.0
C2674 C 0.40504 0.41505 0.31804 0.0
C2675 C 0.39051 0.40417 0.32887 0.0
H2676 H 0.29399 0.27627 0.36008 0.0
H2677 H 0.33682 0.32223 0.37467 0.0
H2678 H 0.34922 0.30809 0.39429 0.0
H2679 H 0.34749 0.28279 0.40877 0.0
H2680 H 0.30467 0.23691 0.39434 0.0
H2681 H 0.29268 0.25096 0.37326 0.0
C2682 C 0.30605 0.28325 0.36751 0.0
C2683 C 0.31437 0.30034 0.36597 0.0
C2684 C 0.31312 0.27505 0.37885 0.0
C2685 C 0.33006 0.30909 0.3756 0.0
C2686 C 0.33718 0.30101 0.38685 0.0
C2687 C 0.33565 0.27584 0.40069 0.0
C2688 C 0.32699 0.25882 0.40314 0.0
C2689 C 0.32878 0.28401 0.38873 0.0
C2690 C 0.31153 0.25003 0.3929 0.0
C2691 C 0.30468 0.25805 0.38081 0.0
H2692 H 0.7016 0.03594 0.36269 0.0
H2693 H 0.73233 0.01643 0.38429 0.0
H2694 H 0.74903 0.04077 0.40714 0.0
H2695 H 0.7549 0.06742 0.42128 0.0
H2696 H 0.72545 0.08807 0.39826 0.0
H2697 H 0.70822 0.06345 0.37598 0.0
C2698 C 0.7119 0.03701 0.37251 0.0
C2699 C 0.71567 0.02435 0.37181 0.0
C2700 C 0.72172 0.05126 0.38537 0.0
C2701 C 0.72918 0.026 0.38442 0.0
C2702 C 0.73875 0.03992 0.39753 0.0
C2703 C 0.74491 0.06673 0.41108 0.0
C2704 C 0.74158 0.07969 0.4115 0.0
C2705 C 0.7352 0.05265 0.39804 0.0
C2706 C 0.72826 0.07826 0.39855 0.0
C2707 C 0.71841 0.06419 0.3857 0.0
H2708 H 0.98406 0.69528 0.3552 0.0
H2709 H 0.9878 0.65693 0.39058 0.0
H2710 H 0.96079 0.64683 0.40666 0.0
H2711 H 0.93674 0.64975 0.41237 0.0
H2712 H 0.93389 0.68953 0.38024 0.0
H2713 H 0.95989 0.6983 0.36116 0.0
C2714 C 0.97884 0.68459 0.3662 0.0
C2715 C 0.98782 0.67676 0.37158 0.0
C2716 C 0.96353 0.67921 0.37606 0.0
C2717 C 0.98109 0.66313 0.3862 0.0
C2718 C 0.96567 0.65737 0.3954 0.0
C2719 C 0.94176 0.66022 0.40094 0.0
C2720 C 0.9334 0.6689 0.39743 0.0
C2721 C 0.95687 0.66543 0.39069 0.0
C2722 C 0.94013 0.68265 0.38305 0.0
C2723 C 0.95497 0.68764 0.37219 0.0
H2724 H 0.39768 0.04457 0.69679 0.0
H2725 H 0.35176 0.00462 0.71821 0.0
H2726 H 0.36578 0.99285 0.73979 0.0
H2727 H 0.39108 0.99422 0.75339 0.0
H2728 H 0.4369 0.034 0.73161 0.0
H2729 H 0.42287 0.04553 0.70945 0.0
C2730 C 0.39069 0.03331 0.70622 0.0
C2731 C 0.37366 0.02558 0.70593 0.0
C2732 C 0.39881 0.02656 0.71854 0.0
C2733 C 0.36487 0.01089 0.71811 0.0
C2734 C 0.37288 0.00413 0.73047 0.0
C2735 C 0.39799 0.00528 0.74352 0.0
C2736 C 0.41502 0.01323 0.74418 0.0
C2737 C 0.38984 0.01187 0.73084 0.0
C2738 C 0.42379 0.02772 0.7316 0.0
C2739 C 0.41577 0.0343 0.71888 0.0
H2740 H 0.9809 0.35669 0.68079 0.0
H2741 H 0.0149 0.35372 0.72811 0.0
H2742 H 0.0212 0.37979 0.74524 0.0
H2743 H 0.01496 0.40195 0.74956 0.0
H2744 H 0.97983 0.40425 0.70392 0.0
H2745 H 0.97608 0.38003 0.68332 0.0
C2746 C 0.9899 0.36191 0.69455 0.0
C2747 C 0.99738 0.35325 0.70321 0.0
C2748 C 0.99313 0.37672 0.7048 0.0
C2749 C 0.00891 0.3601 0.7212 0.0
C2750 C 0.0125 0.375 0.73105 0.0
C2751 C 0.00676 0.39736 0.73476 0.0
C2752 C 0.99768 0.40488 0.72828 0.0
C2753 C 0.00439 0.38321 0.72339 0.0
C2754 C 0.98688 0.39862 0.70932 0.0
C2755 C 0.98474 0.38476 0.69756 0.0
H2756 H 0.64779 0.61423 0.70601 0.0
H2757 H 0.64575 0.65865 0.7113 0.0
H2758 H 0.61885 0.64382 0.72856 0.0
H2759 H 0.5967 0.6186 0.74376 0.0
H2760 H 0.60088 0.57503 0.74444 0.0
H2761 H 0.62572 0.58894 0.72247 0.0
C2762 C 0.64131 0.62056 0.71072 0.0
C2763 C 0.64856 0.63742 0.70728 0.0
C2764 C 0.6262 0.61208 0.72164 0.0
C2765 C 0.6403 0.64564 0.71381 0.0
C2766 C 0.62496 0.63717 0.72367 0.0
C2767 C 0.60305 0.61209 0.73954 0.0
C2768 C 0.59668 0.59566 0.74612 0.0
C2769 C 0.61792 0.62043 0.72805 0.0
C2770 C 0.60508 0.58751 0.73946 0.0
C2771 C 0.6195 0.59554 0.72706 0.0
H2772 H 0.71189 0.71944 0.63793 0.0
H2773 H 0.66385 0.68131 0.65493 0.0
H2774 H 0.65216 0.69611 0.63517 0.0
H2775 H 0.65557 0.71999 0.61347 0.0
H2776 H 0.70362 0.75702 0.59396 0.0
H2777 H 0.71522 0.74277 0.61498 0.0
C2778 C 0.69885 0.71434 0.63732 0.0
C2779 C 0.68879 0.69927 0.64793 0.0
C2780 C 0.69218 0.72283 0.62574 0.0
C2781 C 0.67191 0.69283 0.6468 0.0
C2782 C 0.6652 0.70132 0.63559 0.0
C2783 C 0.66858 0.72491 0.61352 0.0
C2784 C 0.67862 0.73972 0.60214 0.0
C2785 C 0.67522 0.71634 0.625 0.0
C2786 C 0.69549 0.74592 0.60294 0.0
C2787 C 0.70219 0.73766 0.61476 0.0
H2788 H 0.28706 0.98123 0.67056 0.0
H2789 H 0.32695 0.98466 0.63102 0.0
H2790 H 0.30937 0.95811 0.61385 0.0
H2791 H 0.28244 0.93519 0.60733 0.0
H2792 H 0.24193 0.93134 0.64559 0.0
H2793 H 0.25992 0.95684 0.66581 0.0
C2794 C 0.29191 0.97602 0.65846 0.0
C2795 C 0.30827 0.98494 0.65199 0.0
C2796 C 0.2816 0.96078 0.6482 0.0
C2797 C 0.31438 0.97811 0.63617 0.0
C2798 C 0.30434 0.96292 0.62631 0.0
C2799 C 0.27754 0.93965 0.62051 0.0
C2800 C 0.26084 0.93127 0.62498 0.0
C2801 C 0.28788 0.95431 0.63182 0.0
C2802 C 0.25472 0.93758 0.64168 0.0
C2803 C 0.26501 0.95214 0.65328 0.0
H2804 H 0.03414 0.33223 0.66602 0.0
H2805 H 0.01161 0.28473 0.63434 0.0
H2806 H 0.03598 0.29232 0.61197 0.0
H2807 H 0.06349 0.31238 0.6012 0.0
H2808 H 0.0873 0.3591 0.63552 0.0
H2809 H 0.06262 0.35197 0.65674 0.0
C2810 C 0.0346 0.32363 0.6541 0.0
C2811 C 0.02109 0.308 0.65167 0.0
C2812 C 0.04887 0.32791 0.64176 0.0
C2813 C 0.02188 0.29683 0.63648 0.0
C2814 C 0.0358 0.30116 0.6237 0.0
C2815 C 0.06351 0.32095 0.61364 0.0
C2816 C 0.07739 0.33631 0.61655 0.0
C2817 C 0.0494 0.31663 0.62628 0.0
C2818 C 0.07681 0.34729 0.63246 0.0
C2819 C 0.06269 0.34319 0.64477 0.0
H2820 H 0.32731 0.3436 0.62298 0.0
H2821 H 0.29563 0.31819 0.67981 0.0
H2822 H 0.27617 0.32619 0.66562 0.0
H2823 H 0.26761 0.33954 0.63597 0.0
H2824 H 0.29967 0.365 0.5795 0.0
H2825 H 0.31947 0.35794 0.5947 0.0
C2826 C 0.31621 0.3399 0.63237 0.0
C2827 C 0.31292 0.33025 0.65236 0.0
C2828 C 0.30508 0.34453 0.62413 0.0
C2829 C 0.29849 0.32564 0.66437 0.0
C2830 C 0.28731 0.33015 0.65622 0.0
C2831 C 0.27896 0.34355 0.62707 0.0
C2832 C 0.28216 0.35284 0.60668 0.0
C2833 C 0.29038 0.33944 0.63594 0.0
C2834 C 0.29697 0.35805 0.59541 0.0
C2835 C 0.30829 0.35393 0.604 0.0
H2836 H 0.71438 0.98554 0.63803 0.0
H2837 H 0.66607 0.97542 0.65461 0.0
H2838 H 0.6548 0.94908 0.63512 0.0
H2839 H 0.65869 0.92896 0.61342 0.0
H2840 H 0.70706 0.94036 0.59429 0.0
H2841 H 0.71821 0.96584 0.6155 0.0
C2842 C 0.70137 0.97759 0.63744 0.0
C2843 C 0.69111 0.98251 0.64782 0.0
C2844 C 0.69497 0.96255 0.626 0.0
C2845 C 0.67428 0.97204 0.64668 0.0
C2846 C 0.66782 0.95692 0.63561 0.0
C2847 C 0.67167 0.93704 0.61361 0.0
C2848 C 0.68193 0.9325 0.6022 0.0
C2849 C 0.67806 0.95207 0.62516 0.0
C2850 C 0.69877 0.94315 0.60324 0.0
C2851 C 0.7052 0.95791 0.61517 0.0
H2852 H 0.02519 0.71873 0.66533 0.0
H2853 H 0.01632 0.67831 0.62126 0.0
H2854 H 0.04253 0.69462 0.60301 0.0
H2855 H 0.06734 0.72062 0.59823 0.0
H2856 H 0.07618 0.76157 0.64096 0.0
H2857 H 0.05054 0.74486 0.66096 0.0
C2858 C 0.02909 0.71347 0.65188 0.0
C2859 C 0.01883 0.69732 0.64467 0.0
C2860 C 0.04409 0.72304 0.64111 0.0
C2861 C 0.02396 0.69071 0.62708 0.0
C2862 C 0.03895 0.70003 0.61662 0.0
C2863 C 0.06378 0.72584 0.61217 0.0
C2864 C 0.0737 0.74227 0.61824 0.0
C2865 C 0.04902 0.71624 0.62332 0.0
C2866 C 0.06872 0.74896 0.63593 0.0
C2867 C 0.0541 0.7394 0.64739 0.0
H2868 H 0.95796 0.61527 0.71748 0.0
H2869 H 0.00454 0.65043 0.69076 0.0
H2870 H 0.01678 0.63533 0.70806 0.0
H2871 H 0.0142 0.61204 0.7303 0.0
H2872 H 0.9681 0.57846 0.76043 0.0
H2873 H 0.95569 0.59271 0.74149 0.0
C2874 C 0.97079 0.61963 0.71545 0.0
C2875 C 0.98031 0.63395 0.70283 0.0
C2876 C 0.97782 0.61104 0.72576 0.0
C2877 C 0.99695 0.63951 0.70054 0.0
C2878 C 0.00395 0.63083 0.71032 0.0
C2879 C 1.00149 0.60789 0.73311 0.0
C2880 C 0.9922 0.59402 0.74684 0.0
C2881 C 0.9945 0.61658 0.72298 0.0
C2882 C 0.97561 0.58878 0.74959 0.0
C2883 C 0.96848 0.59707 0.73897 0.0
H2884 H 0.36226 0.35488 0.71803 0.0
H2885 H 0.40454 0.35962 0.68368 0.0
H2886 H 0.42153 0.38512 0.70394 0.0
H2887 H 0.42465 0.40587 0.73213 0.0
H2888 H 0.38263 0.40056 0.76789 0.0
H2889 H 0.3654 0.37581 0.74613 0.0
C2890 C 0.37516 0.36154 0.71484 0.0
C2891 C 0.38205 0.35523 0.69937 0.0
C2892 C 0.38499 0.37619 0.72681 0.0
C2893 C 0.39885 0.36405 0.69559 0.0
C2894 C 0.40863 0.37869 0.70717 0.0
C2895 C 0.41175 0.39927 0.7353 0.0
C2896 C 0.40503 0.40522 0.75163 0.0
C2897 C 0.40187 0.38481 0.723 0.0
C2898 C 0.38819 0.39653 0.75516 0.0
C2899 C 0.37828 0.38224 0.74284 0.0
H2900 H 0.64216 0.01582 0.67683 0.0
H2901 H 0.65919 0.00451 0.74025 0.0
H2902 H 0.63449 0.99925 0.75975 0.0
H2903 H 0.6082 0.99822 0.75926 0.0
H2904 H 0.58991 0.00773 0.69589 0.0
H2905 H 0.61491 0.01344 0.67589 0.0
C2906 C 0.64039 0.0121 0.69486 0.0
C2907 C 0.65256 0.0106 0.70704 0.0
C2908 C 0.626 0.00893 0.70604 0.0
C2909 C 0.65005 0.00571 0.73039 0.0
C2910 C 0.63594 0.00277 0.74164 0.0
C2911 C 0.6098 1.00168 0.74111 0.0
C2912 C 0.59748 0.00287 0.72908 0.0
C2913 C 0.62391 0.00447 0.72972 0.0
C2914 C 0.59939 0.00695 0.70546 0.0
C2915 C 0.61363 0.01015 0.69407 0.0
loop_
_geom_bond_atom_site_label_1
_geom_bond_atom_site_label_2
_geom_bond_distance
_geom_bond_site_symmetry_2
_ccdc_geom_bond_type
Mn0 O5 2.095 1_655 S
Mn0 O15 2.162 . S
Mn0 O16 2.297 1_554 S
Mn0 O24 2.385 1_554 S
Mn0 O25 2.209 1_654 S
Mn0 O26 2.094 . S
Mn1 O6 2.121 . S
Mn1 N8 2.257 1_554 S
Mn1 N17 2.282 . S
Mn1 O25 2.215 1_554 S
Mn1 O27 2.117 . S
C2 O24 1.234 1_455 S
C2 O25 1.283 . S
C3 O15 1.281 1_556 S
C3 O16 1.236 . S
C4 O26 1.231 1_455 S
C4 O27 1.287 . S
O5 Mn0 2.095 1_455 S
O5 C14 1.250 . S
O6 Mn1 2.121 . S
O6 C14 1.258 . S
C7 N8 1.326 . S
C7 C11 1.460 . S
C7 H13 0.929 . S
N8 Mn1 2.257 1_556 S
N8 C7 1.326 . S
N8 C12 1.362 . S
C9 C10 1.258 . S
C9 C12 1.431 . S
C9 C29 1.449 . S
C10 C9 1.258 . S
C10 C11 1.477 . S
C10 H30 0.931 . S
C11 C7 1.460 . S
C11 C10 1.477 . S
C11 H31 0.930 . S
C12 N8 1.362 . S
C12 C9 1.431 . S
C12 C22 1.476 . S
H13 C7 0.929 . S
C14 O5 1.250 . S
C14 O6 1.258 . S
O15 Mn0 2.162 . S
O15 C3 1.281 1_554 S
O16 Mn0 2.297 1_556 S
O16 C3 1.236 . S
N17 Mn1 2.282 . S
N17 C18 1.328 . S
N17 C22 1.318 1_554 S
C18 N17 1.328 . S
C18 C19 1.457 1_554 S
C18 H23 0.929 . S
C19 C18 1.457 1_556 S
C19 C20 1.291 . S
C19 H32 0.932 . S
C20 C19 1.291 . S
C20 C21 1.373 . S
C20 H33 0.929 . S
C21 C20 1.373 . S
C21 C22 1.396 . S
C21 C28 1.403 . S
C22 C12 1.476 . S
C22 N17 1.318 1_556 S
C22 C21 1.396 . S
H23 C18 0.929 . S
O24 Mn0 2.385 1_556 S
O24 C2 1.234 1_655 S
O25 Mn0 2.209 1_456 S
O25 Mn1 2.215 1_556 S
O25 C2 1.283 . S
O26 Mn0 2.094 . S
O26 C4 1.231 1_655 S
O27 Mn1 2.117 . S
O27 C4 1.287 . S
C28 C21 1.403 . S
C28 C29 1.399 . S
C28 H34 0.929 . S
C29 C9 1.449 . S
C29 C28 1.399 . S
C29 H35 0.930 . S
H30 C10 0.931 . S
H31 C11 0.930 . S
H32 C19 0.932 . S
H33 C20 0.929 . S
H34 C28 0.929 . S
H35 C29 0.930 . S
Mn36 O41 2.095 1_554 S
Mn36 O51 2.162 . S
Mn36 O52 2.297 . S
Mn36 O60 2.385 . S
Mn36 O61 2.209 . S
Mn36 O62 2.094 1_554 S
Mn37 O42 2.121 1_554 S
Mn37 N44 2.257 . S
Mn37 N53 2.282 . S
Mn37 O61 2.215 . S
Mn37 O63 2.117 1_554 S
C38 O60 1.234 . S
C38 O61 1.283 . S
C39 O51 1.281 . S
C39 O52 1.236 . S
C40 O62 1.240 . S
C40 O63 1.264 . S
O41 Mn36 2.095 1_556 S
O41 C50 1.250 . S
O42 Mn37 2.121 1_556 S
O42 C50 1.258 . S
C43 N44 1.326 . S
C43 C47 1.460 . S
C43 H49 0.929 . S
N44 Mn37 2.257 . S
N44 C43 1.326 . S
N44 C48 1.362 . S
C45 C46 1.258 . S
C45 C48 1.431 . S
C45 C65 1.449 . S
C46 C45 1.258 . S
C46 C47 1.477 . S
C46 H66 0.931 . S
C47 C43 1.460 . S
C47 C46 1.477 . S
C47 H67 0.930 . S
C48 N44 1.362 . S
C48 C45 1.431 . S
C48 C58 1.476 . S
H49 C43 0.929 . S
C50 O41 1.250 . S
C50 O42 1.258 . S
O51 Mn36 2.162 . S
O51 C39 1.281 . S
O52 Mn36 2.297 . S
O52 C39 1.236 . S
N53 Mn37 2.282 . S
N53 C54 1.328 . S
N53 C58 1.318 . S
C54 N53 1.328 . S
C54 C55 1.457 . S
C54 H59 0.933 . S
C55 C54 1.457 . S
C55 C56 1.291 . S
C55 H68 0.931 . S
C56 C55 1.291 . S
C56 C57 1.373 . S
C56 H69 0.929 . S
C57 C56 1.373 . S
C57 C58 1.396 . S
C57 C64 1.403 . S
C58 C48 1.476 . S
C58 N53 1.318 . S
C58 C57 1.396 . S
H59 C54 0.933 . S
O60 Mn36 2.385 . S
O60 C38 1.234 . S
O61 Mn36 2.209 . S
O61 Mn37 2.215 . S
O61 C38 1.283 . S
O62 Mn36 2.094 1_556 S
O62 C40 1.240 . S
O63 Mn37 2.117 1_556 S
O63 C40 1.264 . S
C64 C57 1.403 . S
C64 C65 1.399 . S
C64 H70 0.929 . S
C65 C45 1.449 . S
C65 C64 1.399 . S
C65 H71 0.930 . S
H66 C46 0.931 . S
H67 C47 0.930 . S
H68 C55 0.931 . S
H69 C56 0.929 . S
H70 C64 0.929 . S
H71 C65 0.930 . S
Mn72 O77 2.095 1_564 S
Mn72 O87 2.162 . S
Mn72 O88 2.297 . S
Mn72 O96 2.385 . S
Mn72 O97 2.209 1_565 S
Mn72 O98 2.094 1_554 S
Mn73 O78 2.126 . S
Mn73 N80 2.257 . S
Mn73 N89 2.282 . S
Mn73 O97 2.215 . S
Mn73 O99 2.117 1_554 S
C74 O96 1.212 1_545 S
C74 O97 1.306 . S
C75 O87 1.281 . S
C75 O88 1.236 . S
C76 O98 1.244 . S
C76 O99 1.256 1_565 S
O77 Mn72 2.095 1_546 S
O77 C86 1.250 . S
O78 Mn73 2.126 . S
O78 C86 1.247 1_554 S
C79 N80 1.326 . S
C79 C83 1.460 . S
C79 H85 0.929 . S
N80 Mn73 2.257 . S
N80 C79 1.326 . S
N80 C84 1.362 . S
C81 C82 1.258 . S
C81 C84 1.431 . S
C81 C101 1.449 . S
C82 C81 1.258 . S
C82 C83 1.477 . S
C82 H102 0.931 . S
C83 C79 1.460 . S
C83 C82 1.477 . S
C83 H103 0.930 . S
C84 N80 1.362 . S
C84 C81 1.431 . S
C84 C94 1.476 . S
H85 C79 0.929 . S
C86 O77 1.250 . S
C86 O78 1.247 1_556 S
O87 Mn72 2.162 . S
O87 C75 1.281 . S
O88 Mn72 2.297 . S
O88 C75 1.236 . S
N89 Mn73 2.282 . S
N89 C90 1.328 . S
N89 C94 1.318 . S
C90 N89 1.328 . S
C90 C91 1.457 . S
C90 H95 0.929 . S
C91 C90 1.457 . S
C91 C92 1.291 . S
C91 H104 0.931 . S
C92 C91 1.291 . S
C92 C93 1.373 . S
C92 H105 0.929 . S
C93 C92 1.373 . S
C93 C94 1.396 . S
C93 C100 1.403 . S
C94 C84 1.476 . S
C94 N89 1.318 . S
C94 C93 1.396 . S
H95 C90 0.929 . S
O96 Mn72 2.385 . S
O96 C74 1.212 1_565 S
O97 Mn72 2.209 1_545 S
O97 Mn73 2.215 . S
O97 C74 1.306 . S
O98 Mn72 2.094 1_556 S
O98 C76 1.244 . S
O99 Mn73 2.117 1_556 S
O99 C76 1.256 1_545 S
C100 C93 1.403 . S
C100 C101 1.399 . S
C100 H106 0.929 . S
C101 C81 1.449 . S
C101 C100 1.399 . S
C101 H107 0.930 . S
H102 C82 0.931 . S
H103 C83 0.930 . S
H104 C91 0.931 . S
H105 C92 0.929 . S
H106 C100 0.929 . S
H107 C101 0.930 . S
Mn108 O113 2.095 1_655 S
Mn108 O123 2.162 . S
Mn108 O124 2.297 1_554 S
Mn108 O132 2.385 1_554 S
Mn108 O133 2.209 1_654 S
Mn108 O134 2.094 . S
Mn109 O114 2.121 . S
Mn109 N116 2.257 1_554 S
Mn109 N125 2.282 . S
Mn109 O133 2.215 1_554 S
Mn109 O135 2.117 . S
C110 O132 1.185 1_455 S
C110 O133 1.305 . S
C111 O123 1.281 1_556 S
C111 O124 1.236 . S
C112 O134 1.228 1_455 S
C112 O135 1.275 . S
O113 Mn108 2.095 1_455 S
O113 C122 1.250 . S
O114 Mn109 2.121 . S
O114 C122 1.258 . S
C115 N116 1.326 . S
C115 C119 1.460 . S
C115 H121 0.929 . S
N116 Mn109 2.257 1_556 S
N116 C115 1.326 . S
N116 C120 1.362 . S
C117 C118 1.258 . S
C117 C120 1.431 . S
C117 C137 1.449 . S
C118 C117 1.258 . S
C118 C119 1.477 . S
C118 H138 0.931 . S
C119 C115 1.460 . S
C119 C118 1.477 . S
C119 H139 0.930 . S
C120 N116 1.362 . S
C120 C117 1.431 . S
C120 C130 1.476 . S
H121 C115 0.929 . S
C122 O113 1.250 . S
C122 O114 1.258 . S
O123 Mn108 2.162 . S
O123 C111 1.281 1_554 S
O124 Mn108 2.297 1_556 S
O124 C111 1.236 . S
N125 Mn109 2.282 . S
N125 C126 1.328 . S
N125 C130 1.318 1_554 S
C126 N125 1.328 . S
C126 C127 1.457 1_554 S
C126 H131 0.929 . S
C127 C126 1.457 1_556 S
C127 C128 1.291 . S
C127 H140 0.928 1_556 S
C128 C127 1.291 . S
C128 C129 1.373 . S
C128 H141 0.929 . S
C129 C128 1.373 . S
C129 C130 1.396 . S
C129 C136 1.403 . S
C130 C120 1.476 . S
C130 N125 1.318 1_556 S
C130 C129 1.396 . S
H131 C126 0.929 . S
O132 Mn108 2.385 1_556 S
O132 C110 1.185 1_655 S
O133 Mn108 2.209 1_456 S
O133 Mn109 2.215 1_556 S
O133 C110 1.305 . S
O134 Mn108 2.094 . S
O134 C112 1.228 1_655 S
O135 Mn109 2.117 . S
O135 C112 1.275 . S
C136 C129 1.403 . S
C136 C137 1.399 . S
C136 H142 0.929 . S
C137 C117 1.449 . S
C137 C136 1.399 . S
C137 H143 0.930 . S
H138 C118 0.931 . S
H139 C119 0.930 . S
H140 C127 0.928 1_554 S
H141 C128 0.929 . S
H142 C136 0.929 . S
H143 C137 0.930 . S
Mn144 O149 2.095 1_554 S
Mn144 O159 2.162 . S
Mn144 O160 2.297 . S
Mn144 O168 2.385 . S
Mn144 O169 2.209 . S
Mn144 O170 2.094 1_554 S
Mn145 O150 2.120 1_554 S
Mn145 N152 2.257 . S
Mn145 N161 2.282 . S
Mn145 O169 2.215 . S
Mn145 O171 2.117 1_554 S
C146 O168 1.234 . S
C146 O169 1.283 . S
C147 O159 1.281 . S
C147 O160 1.236 . S
C148 O170 1.240 . S
C148 O171 1.264 . S
O149 Mn144 2.095 1_556 S
O149 C158 1.250 . S
O150 Mn145 2.120 1_556 S
O150 C158 1.262 . S
C151 N152 1.326 . S
C151 C155 1.460 . S
C151 H157 0.929 . S
N152 Mn145 2.257 . S
N152 C151 1.326 . S
N152 C156 1.362 . S
C153 C154 1.258 . S
C153 C156 1.431 . S
C153 C173 1.449 . S
C154 C153 1.258 . S
C154 C155 1.477 . S
C154 H174 0.931 . S
C155 C151 1.460 . S
C155 C154 1.477 . S
C155 H175 0.930 . S
C156 N152 1.362 . S
C156 C153 1.431 . S
C156 C166 1.476 . S
H157 C151 0.929 . S
C158 O149 1.250 . S
C158 O150 1.262 . S
O159 Mn144 2.162 . S
O159 C147 1.281 . S
O160 Mn144 2.297 . S
O160 C147 1.236 . S
N161 Mn145 2.282 . S
N161 C162 1.328 . S
N161 C166 1.318 . S
C162 N161 1.328 . S
C162 C163 1.457 . S
C162 H167 0.929 . S
C163 C162 1.457 . S
C163 C164 1.291 . S
C163 H176 0.931 . S
C164 C163 1.291 . S
C164 C165 1.373 . S
C164 H177 0.929 . S
C165 C164 1.373 . S
C165 C166 1.396 . S
C165 C172 1.403 . S
C166 C156 1.476 . S
C166 N161 1.318 . S
C166 C165 1.396 . S
H167 C162 0.929 . S
O168 Mn144 2.385 . S
O168 C146 1.234 . S
O169 Mn144 2.209 . S
O169 Mn145 2.215 . S
O169 C146 1.283 . S
O170 Mn144 2.094 1_556 S
O170 C148 1.240 . S
O171 Mn145 2.117 1_556 S
O171 C148 1.264 . S
C172 C165 1.403 . S
C172 C173 1.399 . S
C172 H178 0.929 . S
C173 C153 1.449 . S
C173 C172 1.399 . S
C173 H179 0.930 . S
H174 C154 0.931 . S
H175 C155 0.930 . S
H176 C163 0.931 . S
H177 C164 0.929 . S
H178 C172 0.929 . S
H179 C173 0.930 . S
Mn180 O185 2.095 1_545 S
Mn180 O195 2.162 . S
Mn180 O196 2.297 1_554 S
Mn180 O204 2.385 1_554 S
Mn180 O205 2.209 1_544 S
Mn180 O206 2.094 . S
Mn181 O186 2.121 . S
Mn181 N188 2.257 1_554 S
Mn181 N197 2.282 . S
Mn181 O205 2.215 1_554 S
Mn181 O207 2.117 . S
C182 O204 1.234 . S
C182 O205 1.283 1_545 S
C183 O195 1.281 1_556 S
C183 O196 1.236 . S
C184 O206 1.240 . S
C184 O207 1.264 1_545 S
O185 Mn180 2.095 1_565 S
O185 C194 1.250 . S
O186 Mn181 2.121 . S
O186 C194 1.258 . S
C187 N188 1.326 . S
C187 C191 1.460 . S
C187 H193 0.929 . S
N188 Mn181 2.257 1_556 S
N188 C187 1.326 . S
N188 C192 1.362 . S
C189 C190 1.258 . S
C189 C192 1.431 . S
C189 C209 1.449 . S
C190 C189 1.258 . S
C190 C191 1.477 . S
C190 H210 0.931 . S
C191 C187 1.460 . S
C191 C190 1.477 . S
C191 H211 0.930 . S
C192 N188 1.362 . S
C192 C189 1.431 . S
C192 C202 1.476 . S
H193 C187 0.929 . S
C194 O185 1.250 . S
C194 O186 1.258 . S
O195 Mn180 2.162 . S
O195 C183 1.281 1_554 S
O196 Mn180 2.297 1_556 S
O196 C183 1.236 . S
N197 Mn181 2.282 . S
N197 C198 1.328 . S
N197 C202 1.318 1_554 S
C198 N197 1.328 . S
C198 C199 1.457 1_554 S
C198 H203 0.929 . S
C199 C198 1.457 1_556 S
C199 C200 1.291 . S
C199 H212 0.942 . S
C200 C199 1.291 . S
C200 C201 1.373 . S
C200 H213 0.929 . S
C201 C200 1.373 . S
C201 C202 1.396 . S
C201 C208 1.403 . S
C202 C192 1.476 . S
C202 N197 1.318 1_556 S
C202 C201 1.396 . S
H203 C198 0.929 . S
O204 Mn180 2.385 1_556 S
O204 C182 1.234 . S
O205 Mn180 2.209 1_566 S
O205 Mn181 2.215 1_556 S
O205 C182 1.283 1_565 S
O206 Mn180 2.094 . S
O206 C184 1.240 . S
O207 Mn181 2.117 . S
O207 C184 1.264 1_565 S
C208 C201 1.403 . S
C208 C209 1.399 . S
C208 H214 0.929 . S
C209 C189 1.449 . S
C209 C208 1.399 . S
C209 H215 0.930 . S
H210 C190 0.931 . S
H211 C191 0.930 . S
H212 C199 0.942 . S
H213 C200 0.929 . S
H214 C208 0.929 . S
H215 C209 0.930 . S
Mn216 O221 2.095 . S
Mn216 O231 2.162 . S
Mn216 O232 2.297 . S
Mn216 O240 2.385 . S
Mn216 O241 2.209 . S
Mn216 O242 2.094 . S
Mn217 O222 2.121 . S
Mn217 N224 2.257 . S
Mn217 N233 2.282 . S
Mn217 O241 2.215 . S
Mn217 O243 2.117 . S
C218 O240 1.234 . S
C218 O241 1.283 . S
C219 O231 1.281 . S
C219 O232 1.236 . S
C220 O242 1.240 . S
C220 O243 1.264 . S
O221 Mn216 2.095 . S
O221 C230 1.250 . S
O222 Mn217 2.121 . S
O222 C230 1.258 . S
C223 N224 1.326 . S
C223 C227 1.460 . S
C223 H229 0.929 . S
N224 Mn217 2.257 . S
N224 C223 1.326 . S
N224 C228 1.362 . S
C225 C226 1.258 . S
C225 C228 1.431 . S
C225 C245 1.449 . S
C226 C225 1.258 . S
C226 C227 1.477 . S
C226 H246 0.931 . S
C227 C223 1.460 . S
C227 C226 1.477 . S
C227 H247 0.930 . S
C228 N224 1.362 . S
C228 C225 1.431 . S
C228 C238 1.476 . S
H229 C223 0.929 . S
C230 O221 1.250 . S
C230 O222 1.258 . S
O231 Mn216 2.162 . S
O231 C219 1.281 . S
O232 Mn216 2.297 . S
O232 C219 1.236 . S
N233 Mn217 2.282 . S
N233 C234 1.328 . S
N233 C238 1.318 . S
C234 N233 1.328 . S
C234 C235 1.457 . S
C234 H239 0.929 . S
C235 C234 1.457 . S
C235 C236 1.291 . S
C235 H248 0.931 . S
C236 C235 1.291 . S
C236 C237 1.373 . S
C236 H249 0.929 . S
C237 C236 1.373 . S
C237 C238 1.396 . S
C237 C244 1.403 . S
C238 C228 1.476 . S
C238 N233 1.318 . S
C238 C237 1.396 . S
H239 C234 0.929 . S
O240 Mn216 2.385 . S
O240 C218 1.234 . S
O241 Mn216 2.209 . S
O241 Mn217 2.215 . S
O241 C218 1.283 . S
O242 Mn216 2.094 . S
O242 C220 1.240 . S
O243 Mn217 2.117 . S
O243 C220 1.264 . S
C244 C237 1.403 . S
C244 C245 1.399 . S
C244 H250 0.929 . S
C245 C225 1.449 . S
C245 C244 1.399 . S
C245 H251 0.930 . S
H246 C226 0.931 . S
H247 C227 0.930 . S
H248 C235 0.931 . S
H249 C236 0.929 . S
H250 C244 0.929 . S
H251 C245 0.930 . S
Mn252 O257 2.095 . S
Mn252 O267 2.162 1_565 S
Mn252 O268 2.297 . S
Mn252 O276 2.385 . S
Mn252 O277 2.209 . S
Mn252 O278 2.094 . S
Mn253 O258 2.121 . S
Mn253 N260 2.257 . S
Mn253 N269 2.282 . S
Mn253 O277 2.215 . S
Mn253 O279 2.117 . S
C254 O276 1.234 . S
C254 O277 1.283 . S
C255 O267 1.281 . S
C255 O268 1.236 1_545 S
C256 O278 1.240 . S
C256 O279 1.264 . S
O257 Mn252 2.095 . S
O257 C266 1.250 . S
O258 Mn253 2.121 . S
O258 C266 1.258 . S
C259 N260 1.326 . S
C259 C263 1.460 . S
C259 H265 0.929 . S
N260 Mn253 2.257 . S
N260 C259 1.326 . S
N260 C264 1.362 . S
C261 C262 1.258 . S
C261 C264 1.431 . S
C261 C281 1.449 . S
C262 C261 1.258 . S
C262 C263 1.477 . S
C262 H282 0.931 . S
C263 C259 1.460 . S
C263 C262 1.477 . S
C263 H283 0.930 . S
C264 N260 1.362 . S
C264 C261 1.431 . S
C264 C274 1.476 . S
H265 C259 0.929 . S
C266 O257 1.250 . S
C266 O258 1.258 . S
O267 Mn252 2.162 1_545 S
O267 C255 1.281 . S
O268 Mn252 2.297 . S
O268 C255 1.236 1_565 S
N269 Mn253 2.282 . S
N269 C270 1.328 . S
N269 C274 1.318 . S
C270 N269 1.328 . S
C270 C271 1.457 . S
C270 H275 0.929 . S
C271 C270 1.457 . S
C271 C272 1.291 . S
C271 H284 0.931 . S
C272 C271 1.291 . S
C272 C273 1.373 . S
C272 H285 0.929 . S
C273 C272 1.373 . S
C273 C274 1.396 . S
C273 C280 1.403 . S
C274 C264 1.476 . S
C274 N269 1.318 . S
C274 C273 1.396 . S
H275 C270 0.929 . S
O276 Mn252 2.385 . S
O276 C254 1.234 . S
O277 Mn252 2.209 . S
O277 Mn253 2.215 . S
O277 C254 1.283 . S
O278 Mn252 2.094 . S
O278 C256 1.240 . S
O279 Mn253 2.117 . S
O279 C256 1.264 . S
C280 C273 1.403 . S
C280 C281 1.399 . S
C280 H286 0.929 . S
C281 C261 1.449 . S
C281 C280 1.399 . S
C281 H287 0.930 . S
H282 C262 0.931 . S
H283 C263 0.930 . S
H284 C271 0.931 . S
H285 C272 0.929 . S
H286 C280 0.929 . S
H287 C281 0.930 . S
Mn288 O293 2.095 . S
Mn288 O303 2.162 1_455 S
Mn288 O304 2.297 . S
Mn288 O312 2.385 . S
Mn288 O313 2.209 . S
Mn288 O314 2.094 . S
Mn289 O294 2.121 . S
Mn289 N296 2.257 . S
Mn289 N305 2.282 . S
Mn289 O313 2.215 . S
Mn289 O315 2.117 . S
C290 O312 1.234 . S
C290 O313 1.283 . S
C291 O303 1.281 . S
C291 O304 1.236 1_655 S
C292 O314 1.240 . S
C292 O315 1.264 . S
O293 Mn288 2.095 . S
O293 C302 1.250 . S
O294 Mn289 2.121 . S
O294 C302 1.258 . S
C295 N296 1.326 . S
C295 C299 1.460 . S
C295 H301 0.929 . S
N296 Mn289 2.257 . S
N296 C295 1.326 . S
N296 C300 1.362 . S
C297 C298 1.258 . S
C297 C300 1.431 . S
C297 C317 1.449 . S
C298 C297 1.258 . S
C298 C299 1.477 . S
C298 H318 0.931 . S
C299 C295 1.460 . S
C299 C298 1.477 . S
C299 H319 0.930 . S
C300 N296 1.362 . S
C300 C297 1.431 . S
C300 C310 1.476 . S
H301 C295 0.929 . S
C302 O293 1.250 . S
C302 O294 1.258 . S
O303 Mn288 2.162 1_655 S
O303 C291 1.281 . S
O304 Mn288 2.297 . S
O304 C291 1.236 1_455 S
N305 Mn289 2.282 . S
N305 C306 1.328 . S
N305 C310 1.318 . S
C306 N305 1.328 . S
C306 C307 1.457 . S
C306 H311 0.929 . S
C307 C306 1.457 . S
C307 C308 1.291 . S
C307 H320 0.931 . S
C308 C307 1.291 . S
C308 C309 1.373 . S
C308 H321 0.929 . S
C309 C308 1.373 . S
C309 C310 1.396 . S
C309 C316 1.403 . S
C310 C300 1.476 . S
C310 N305 1.318 . S
C310 C309 1.396 . S
H311 C306 0.929 . S
O312 Mn288 2.385 . S
O312 C290 1.234 . S
O313 Mn288 2.209 . S
O313 Mn289 2.215 . S
O313 C290 1.283 . S
O314 Mn288 2.094 . S
O314 C292 1.240 . S
O315 Mn289 2.117 . S
O315 C292 1.264 . S
C316 C309 1.403 . S
C316 C317 1.399 . S
C316 H322 0.929 . S
C317 C297 1.449 . S
C317 C316 1.399 . S
C317 H323 0.930 . S
H318 C298 0.931 . S
H319 C299 0.930 . S
H320 C307 0.931 . S
H321 C308 0.929 . S
H322 C316 0.929 . S
H323 C317 0.930 . S
Mn324 O329 2.095 . S
Mn324 O339 2.162 . S
Mn324 O340 2.297 . S
Mn324 O348 2.385 . S
Mn324 O349 2.209 . S
Mn324 O350 2.094 . S
Mn325 O330 2.121 . S
Mn325 N332 2.257 . S
Mn325 N341 2.282 . S
Mn325 O349 2.215 . S
Mn325 O351 2.117 . S
C326 O348 1.234 . S
C326 O349 1.283 . S
C327 O339 1.281 . S
C327 O340 1.236 . S
C328 O350 1.240 . S
C328 O351 1.264 . S
O329 Mn324 2.095 . S
O329 C338 1.243 1_565 S
O330 Mn325 2.121 . S
O330 C338 1.230 1_565 S
C331 N332 1.326 . S
C331 C335 1.460 . S
C331 H337 0.929 1_565 S
N332 Mn325 2.257 . S
N332 C331 1.326 . S
N332 C336 1.362 . S
C333 C334 1.258 . S
C333 C336 1.431 . S
C333 C353 1.449 . S
C334 C333 1.258 . S
C334 C335 1.478 . S
C334 H354 0.931 . S
C335 C331 1.460 . S
C335 C334 1.478 . S
C335 H355 0.930 1_565 S
C336 N332 1.362 . S
C336 C333 1.431 . S
C336 C346 1.476 . S
H337 C331 0.929 1_545 S
C338 O329 1.243 1_545 S
C338 O330 1.230 1_545 S
O339 Mn324 2.162 . S
O339 C327 1.281 . S
O340 Mn324 2.297 . S
O340 C327 1.236 . S
N341 Mn325 2.282 . S
N341 C342 1.328 . S
N341 C346 1.318 . S
C342 N341 1.328 . S
C342 C343 1.457 . S
C342 H347 0.929 . S
C343 C342 1.457 . S
C343 C344 1.291 . S
C343 H356 0.931 . S
C344 C343 1.291 . S
C344 C345 1.373 . S
C344 H357 0.929 . S
C345 C344 1.373 . S
C345 C346 1.396 . S
C345 C352 1.403 . S
C346 C336 1.476 . S
C346 N341 1.318 . S
C346 C345 1.396 . S
H347 C342 0.929 . S
O348 Mn324 2.385 . S
O348 C326 1.234 . S
O349 Mn324 2.209 . S
O349 Mn325 2.215 . S
O349 C326 1.283 . S
O350 Mn324 2.094 . S
O350 C328 1.240 . S
O351 Mn325 2.117 . S
O351 C328 1.264 . S
C352 C345 1.403 . S
C352 C353 1.399 . S
C352 H358 0.929 . S
C353 C333 1.449 . S
C353 C352 1.399 . S
C353 H359 0.930 . S
H354 C334 0.931 . S
H355 C335 0.930 1_545 S
H356 C343 0.931 . S
H357 C344 0.929 . S
H358 C352 0.929 . S
H359 C353 0.930 . S
Mn360 O365 2.095 . S
Mn360 O375 2.233 . S
Mn360 O376 2.297 . S
Mn360 O384 2.385 . S
Mn360 O385 2.209 . S
Mn360 O386 2.094 . S
Mn361 O366 2.121 . S
Mn361 N368 2.257 . S
Mn361 N377 2.282 . S
Mn361 O385 2.215 . S
Mn361 O387 2.117 . S
C362 O384 1.234 . S
C362 O385 1.283 . S
C363 O375 1.284 1_655 S
C363 O376 1.236 1_655 S
C364 O386 1.240 . S
C364 O387 1.264 . S
O365 Mn360 2.095 . S
O365 C374 1.250 . S
O366 Mn361 2.121 . S
O366 C374 1.258 . S
C367 N368 1.326 . S
C367 C371 1.460 . S
C367 H373 0.929 . S
N368 Mn361 2.257 . S
N368 C367 1.326 . S
N368 C372 1.362 . S
C369 C370 1.258 . S
C369 C372 1.431 . S
C369 C389 1.449 . S
C370 C369 1.258 . S
C370 C371 1.477 . S
C370 H390 0.931 . S
C371 C367 1.460 . S
C371 C370 1.477 . S
C371 H391 0.930 . S
C372 N368 1.362 . S
C372 C369 1.431 . S
C372 C382 1.476 . S
H373 C367 0.929 . S
C374 O365 1.250 . S
C374 O366 1.258 . S
O375 Mn360 2.233 . S
O375 C363 1.284 1_455 S
O376 Mn360 2.297 . S
O376 C363 1.236 1_455 S
N377 Mn361 2.282 . S
N377 C378 1.328 . S
N377 C382 1.318 . S
C378 N377 1.328 . S
C378 C379 1.457 . S
C378 H383 0.929 . S
C379 C378 1.457 . S
C379 C380 1.291 . S
C379 H392 0.931 . S
C380 C379 1.291 . S
C380 C381 1.373 . S
C380 H393 0.929 . S
C381 C380 1.373 . S
C381 C382 1.396 . S
C381 C388 1.403 . S
C382 C372 1.476 . S
C382 N377 1.318 . S
C382 C381 1.396 . S
H383 C378 0.929 . S
O384 Mn360 2.385 . S
O384 C362 1.234 . S
O385 Mn360 2.209 . S
O385 Mn361 2.215 . S
O385 C362 1.283 . S
O386 Mn360 2.094 . S
O386 C364 1.240 . S
O387 Mn361 2.117 . S
O387 C364 1.264 . S
C388 C381 1.403 . S
C388 C389 1.399 . S
C388 H394 0.929 . S
C389 C369 1.449 . S
C389 C388 1.399 . S
C389 H395 0.930 . S
H390 C370 0.931 . S
H391 C371 0.930 . S
H392 C379 0.931 . S
H393 C380 0.929 . S
H394 C388 0.929 . S
H395 C389 0.930 . S
Mn396 O401 2.095 . S
Mn396 O411 2.162 . S
Mn396 O412 2.297 . S
Mn396 O420 2.385 . S
Mn396 O421 2.209 . S
Mn396 O422 2.094 . S
Mn397 O402 2.121 . S
Mn397 N404 2.257 . S
Mn397 N413 2.282 . S
Mn397 O421 2.215 . S
Mn397 O423 2.117 . S
C398 O420 1.234 . S
C398 O421 1.283 . S
C399 O411 1.281 . S
C399 O412 1.236 . S
C400 O422 1.240 . S
C400 O423 1.264 . S
O401 Mn396 2.095 . S
O401 C410 1.250 . S
O402 Mn397 2.121 . S
O402 C410 1.258 . S
C403 N404 1.326 . S
C403 C407 1.460 . S
C403 H409 0.929 . S
N404 Mn397 2.257 . S
N404 C403 1.326 . S
N404 C408 1.362 . S
C405 C406 1.258 . S
C405 C408 1.431 . S
C405 C425 1.449 . S
C406 C405 1.258 . S
C406 C407 1.477 . S
C406 H426 0.931 . S
C407 C403 1.460 . S
C407 C406 1.477 . S
C407 H427 0.930 . S
C408 N404 1.362 . S
C408 C405 1.431 . S
C408 C418 1.476 . S
H409 C403 0.929 . S
C410 O401 1.250 . S
C410 O402 1.258 . S
O411 Mn396 2.162 . S
O411 C399 1.281 . S
O412 Mn396 2.297 . S
O412 C399 1.236 . S
N413 Mn397 2.282 . S
N413 C414 1.328 . S
N413 C418 1.318 . S
C414 N413 1.328 . S
C414 C415 1.457 . S
C414 H419 0.929 . S
C415 C414 1.457 . S
C415 C416 1.291 . S
C415 H428 0.931 . S
C416 C415 1.291 . S
C416 C417 1.373 . S
C416 H429 0.929 . S
C417 C416 1.373 . S
C417 C418 1.396 . S
C417 C424 1.403 . S
C418 C408 1.476 . S
C418 N413 1.318 . S
C418 C417 1.396 . S
H419 C414 0.929 . S
O420 Mn396 2.385 . S
O420 C398 1.234 . S
O421 Mn396 2.209 . S
O421 Mn397 2.215 . S
O421 C398 1.283 . S
O422 Mn396 2.094 . S
O422 C400 1.240 . S
O423 Mn397 2.117 . S
O423 C400 1.264 . S
C424 C417 1.403 . S
C424 C425 1.399 . S
C424 H430 0.929 . S
C425 C405 1.449 . S
C425 C424 1.399 . S
C425 H431 0.930 . S
H426 C406 0.931 . S
H427 C407 0.930 . S
H428 C415 0.931 . S
H429 C416 0.929 . S
H430 C424 0.929 . S
H431 C425 0.930 . S
Mn432 O437 2.095 . S
Mn432 O447 2.207 . S
Mn432 O448 2.297 . S
Mn432 O456 2.385 . S
Mn432 O457 2.209 . S
Mn432 O458 2.094 . S
Mn433 O438 2.121 . S
Mn433 N440 2.257 . S
Mn433 N449 2.282 . S
Mn433 O457 2.215 . S
Mn433 O459 2.117 . S
C434 O456 1.234 . S
C434 O457 1.283 . S
C435 O447 1.243 1_565 S
C435 O448 1.236 1_565 S
C436 O458 1.240 . S
C436 O459 1.264 . S
O437 Mn432 2.095 . S
O437 C446 1.250 . S
O438 Mn433 2.121 . S
O438 C446 1.258 . S
C439 N440 1.326 . S
C439 C443 1.460 . S
C439 H445 0.929 . S
N440 Mn433 2.257 . S
N440 C439 1.326 . S
N440 C444 1.362 . S
C441 C442 1.258 . S
C441 C444 1.431 . S
C441 C461 1.449 . S
C442 C441 1.258 . S
C442 C443 1.477 . S
C442 H462 0.931 . S
C443 C439 1.460 . S
C443 C442 1.477 . S
C443 H463 0.930 . S
C444 N440 1.362 . S
C444 C441 1.431 . S
C444 C454 1.476 . S
H445 C439 0.929 . S
C446 O437 1.250 . S
C446 O438 1.258 . S
O447 Mn432 2.207 . S
O447 C435 1.243 1_545 S
O448 Mn432 2.297 . S
O448 C435 1.236 1_545 S
N449 Mn433 2.282 . S
N449 C450 1.328 . S
N449 C454 1.318 . S
C450 N449 1.328 . S
C450 C451 1.457 . S
C450 H455 0.929 . S
C451 C450 1.457 . S
C451 C452 1.291 . S
C451 H464 0.931 . S
C452 C451 1.291 . S
C452 C453 1.373 . S
C452 H465 0.929 . S
C453 C452 1.373 . S
C453 C454 1.396 . S
C453 C460 1.403 . S
C454 C444 1.476 . S
C454 N449 1.318 . S
C454 C453 1.396 . S
H455 C450 0.929 . S
O456 Mn432 2.385 . S
O456 C434 1.234 . S
O457 Mn432 2.209 . S
O457 Mn433 2.215 . S
O457 C434 1.283 . S
O458 Mn432 2.094 . S
O458 C436 1.240 . S
O459 Mn433 2.117 . S
O459 C436 1.264 . S
C460 C453 1.403 . S
C460 C461 1.399 . S
C460 H466 0.929 . S
C461 C441 1.449 . S
C461 C460 1.399 . S
C461 H467 0.930 . S
H462 C442 0.931 . S
H463 C443 0.930 . S
H464 C451 0.931 . S
H465 C452 0.929 . S
H466 C460 0.929 . S
H467 C461 0.930 . S
Mn468 O473 2.095 . S
Mn468 O483 2.162 . S
Mn468 O484 2.297 . S
Mn468 O492 2.385 . S
Mn468 O493 2.209 . S
Mn468 O494 2.094 . S
Mn469 O474 2.121 . S
Mn469 N476 2.257 . S
Mn469 N485 2.282 . S
Mn469 O493 2.215 . S
Mn469 O495 2.117 . S
C470 O492 1.234 . S
C470 O493 1.283 . S
C471 O483 1.281 . S
C471 O484 1.236 . S
C472 O494 1.240 . S
C472 O495 1.264 . S
O473 Mn468 2.095 . S
O473 C482 1.250 . S
O474 Mn469 2.121 . S
O474 C482 1.258 . S
C475 N476 1.326 . S
C475 C479 1.460 . S
C475 H481 0.929 1_655 S
N476 Mn469 2.257 . S
N476 C475 1.326 . S
N476 C480 1.362 . S
C477 C478 1.258 . S
C477 C480 1.431 . S
C477 C497 1.449 . S
C478 C477 1.258 . S
C478 C479 1.477 . S
C478 H498 0.931 . S
C479 C475 1.460 . S
C479 C478 1.477 . S
C479 H499 0.930 1_655 S
C480 N476 1.362 . S
C480 C477 1.431 . S
C480 C490 1.476 . S
H481 C475 0.929 1_455 S
C482 O473 1.250 . S
C482 O474 1.258 . S
O483 Mn468 2.162 . S
O483 C471 1.281 . S
O484 Mn468 2.297 . S
O484 C471 1.236 . S
N485 Mn469 2.282 . S
N485 C486 1.328 . S
N485 C490 1.318 . S
C486 N485 1.328 . S
C486 C487 1.457 . S
C486 H491 0.929 . S
C487 C486 1.457 . S
C487 C488 1.291 . S
C487 H500 0.931 . S
C488 C487 1.291 . S
C488 C489 1.373 . S
C488 H501 0.929 . S
C489 C488 1.373 . S
C489 C490 1.396 . S
C489 C496 1.403 . S
C490 C480 1.476 . S
C490 N485 1.318 . S
C490 C489 1.396 . S
H491 C486 0.929 . S
O492 Mn468 2.385 . S
O492 C470 1.234 . S
O493 Mn468 2.209 . S
O493 Mn469 2.215 . S
O493 C470 1.283 . S
O494 Mn468 2.094 . S
O494 C472 1.240 . S
O495 Mn469 2.117 . S
O495 C472 1.264 . S
C496 C489 1.403 . S
C496 C497 1.399 . S
C496 H502 0.929 . S
C497 C477 1.449 . S
C497 C496 1.399 . S
C497 H503 0.930 . S
H498 C478 0.931 . S
H499 C479 0.930 1_455 S
H500 C487 0.931 . S
H501 C488 0.929 . S
H502 C496 0.929 . S
H503 C497 0.930 . S
Mn504 O509 2.095 . S
Mn504 O519 2.162 . S
Mn504 O520 2.297 . S
Mn504 O528 2.385 . S
Mn504 O529 2.209 . S
Mn504 O530 2.094 . S
Mn505 O510 2.121 . S
Mn505 N512 2.257 . S
Mn505 N521 2.282 . S
Mn505 O529 2.215 . S
Mn505 O531 2.117 . S
C506 O528 1.234 . S
C506 O529 1.283 . S
C507 O519 1.281 . S
C507 O520 1.236 . S
C508 O530 1.240 . S
C508 O531 1.264 . S
O509 Mn504 2.095 . S
O509 C518 1.250 . S
O510 Mn505 2.121 . S
O510 C518 1.258 . S
C511 N512 1.326 . S
C511 C515 1.460 . S
C511 H517 0.929 . S
N512 Mn505 2.257 . S
N512 C511 1.326 . S
N512 C516 1.362 . S
C513 C514 1.258 . S
C513 C516 1.431 . S
C513 C533 1.449 . S
C514 C513 1.258 . S
C514 C515 1.477 . S
C514 H534 0.931 . S
C515 C511 1.460 . S
C515 C514 1.477 . S
C515 H535 0.930 . S
C516 N512 1.362 . S
C516 C513 1.431 . S
C516 C526 1.476 . S
H517 C511 0.929 . S
C518 O509 1.250 . S
C518 O510 1.258 . S
O519 Mn504 2.162 . S
O519 C507 1.281 . S
O520 Mn504 2.297 . S
O520 C507 1.236 . S
N521 Mn505 2.282 . S
N521 C522 1.328 . S
N521 C526 1.318 . S
C522 N521 1.328 . S
C522 C523 1.457 . S
C522 H527 0.929 . S
C523 C522 1.457 . S
C523 C524 1.291 . S
C523 H536 0.931 . S
C524 C523 1.291 . S
C524 C525 1.373 . S
C524 H537 0.929 . S
C525 C524 1.373 . S
C525 C526 1.396 . S
C525 C532 1.403 . S
C526 C516 1.476 . S
C526 N521 1.318 . S
C526 C525 1.396 . S
H527 C522 0.929 . S
O528 Mn504 2.385 . S
O528 C506 1.234 . S
O529 Mn504 2.209 . S
O529 Mn505 2.215 . S
O529 C506 1.283 . S
O530 Mn504 2.094 . S
O530 C508 1.240 . S
O531 Mn505 2.117 . S
O531 C508 1.264 . S
C532 C525 1.403 . S
C532 C533 1.399 . S
C532 H538 0.929 . S
C533 C513 1.449 . S
C533 C532 1.399 . S
C533 H539 0.930 . S
H534 C514 0.931 . S
H535 C515 0.930 . S
H536 C523 0.931 . S
H537 C524 0.929 . S
H538 C532 0.929 . S
H539 C533 0.930 . S
Mn540 O545 2.095 . S
Mn540 O555 2.162 . S
Mn540 O556 2.297 . S
Mn540 O564 2.385 . S
Mn540 O565 2.209 . S
Mn540 O566 2.094 . S
Mn541 O546 2.121 . S
Mn541 N548 2.257 . S
Mn541 N557 2.282 . S
Mn541 O565 2.215 . S
Mn541 O567 2.117 . S
C542 O564 1.234 . S
C542 O565 1.283 . S
C543 O555 1.281 . S
C543 O556 1.236 . S
C544 O566 1.240 . S
C544 O567 1.264 . S
O545 Mn540 2.095 . S
O545 C554 1.250 . S
O546 Mn541 2.121 . S
O546 C554 1.258 . S
C547 N548 1.326 . S
C547 C551 1.460 . S
C547 H553 0.929 . S
N548 Mn541 2.257 . S
N548 C547 1.326 . S
N548 C552 1.362 . S
C549 C550 1.258 . S
C549 C552 1.431 . S
C549 C569 1.449 . S
C550 C549 1.258 . S
C550 C551 1.477 . S
C550 H570 0.931 . S
C551 C547 1.460 . S
C551 C550 1.477 . S
C551 H571 0.930 . S
C552 N548 1.362 . S
C552 C549 1.431 . S
C552 C562 1.476 . S
H553 C547 0.929 . S
C554 O545 1.250 . S
C554 O546 1.258 . S
O555 Mn540 2.162 . S
O555 C543 1.281 . S
O556 Mn540 2.297 . S
O556 C543 1.236 . S
N557 Mn541 2.282 . S
N557 C558 1.328 . S
N557 C562 1.318 . S
C558 N557 1.328 . S
C558 C559 1.457 . S
C558 H563 0.929 . S
C559 C558 1.457 . S
C559 C560 1.291 . S
C559 H572 0.931 . S
C560 C559 1.291 . S
C560 C561 1.373 . S
C560 H573 0.929 . S
C561 C560 1.373 . S
C561 C562 1.396 . S
C561 C568 1.403 . S
C562 C552 1.476 . S
C562 N557 1.318 . S
C562 C561 1.396 . S
H563 C558 0.929 . S
O564 Mn540 2.385 . S
O564 C542 1.234 . S
O565 Mn540 2.209 . S
O565 Mn541 2.215 . S
O565 C542 1.283 . S
O566 Mn540 2.094 . S
O566 C544 1.240 . S
O567 Mn541 2.117 . S
O567 C544 1.264 . S
C568 C561 1.403 . S
C568 C569 1.399 . S
C568 H574 0.929 . S
C569 C549 1.449 . S
C569 C568 1.399 . S
C569 H575 0.930 . S
H570 C550 0.931 . S
H571 C551 0.930 . S
H572 C559 0.931 . S
H573 C560 0.929 . S
H574 C568 0.929 . S
H575 C569 0.930 . S
Mn576 O581 2.095 . S
Mn576 O591 2.162 . S
Mn576 O592 2.297 . S
Mn576 O600 2.385 . S
Mn576 O601 2.209 . S
Mn576 O602 2.094 . S
Mn577 O582 2.121 . S
Mn577 N584 2.257 . S
Mn577 N593 2.282 . S
Mn577 O601 2.215 . S
Mn577 O603 2.117 . S
C578 O600 1.234 . S
C578 O601 1.283 . S
C579 O591 1.281 . S
C579 O592 1.236 . S
C580 O602 1.240 . S
C580 O603 1.264 . S
O581 Mn576 2.095 . S
O581 C590 1.211 1_545 S
O582 Mn577 2.121 . S
O582 C590 1.268 1_545 S
C583 N584 1.326 . S
C583 C587 1.465 . S
C583 H589 0.929 1_545 S
N584 Mn577 2.257 . S
N584 C583 1.326 . S
N584 C588 1.362 . S
C585 C586 1.258 . S
C585 C588 1.431 . S
C585 C605 1.449 . S
C586 C585 1.258 . S
C586 C587 1.481 . S
C586 H606 0.931 . S
C587 C583 1.465 . S
C587 C586 1.481 . S
C587 H607 0.922 1_545 S
C588 N584 1.362 . S
C588 C585 1.431 . S
C588 C598 1.476 . S
H589 C583 0.929 1_565 S
C590 O581 1.211 1_565 S
C590 O582 1.268 1_565 S
O591 Mn576 2.162 . S
O591 C579 1.281 . S
O592 Mn576 2.297 . S
O592 C579 1.236 . S
N593 Mn577 2.282 . S
N593 C594 1.328 . S
N593 C598 1.318 . S
C594 N593 1.328 . S
C594 C595 1.457 . S
C594 H599 0.929 . S
C595 C594 1.457 . S
C595 C596 1.291 . S
C595 H608 0.931 . S
C596 C595 1.291 . S
C596 C597 1.373 . S
C596 H609 0.929 . S
C597 C596 1.373 . S
C597 C598 1.396 . S
C597 C604 1.403 . S
C598 C588 1.476 . S
C598 N593 1.318 . S
C598 C597 1.396 . S
H599 C594 0.929 . S
O600 Mn576 2.385 . S
O600 C578 1.234 . S
O601 Mn576 2.209 . S
O601 Mn577 2.215 . S
O601 C578 1.283 . S
O602 Mn576 2.094 . S
O602 C580 1.240 . S
O603 Mn577 2.117 . S
O603 C580 1.264 . S
C604 C597 1.403 . S
C604 C605 1.399 . S
C604 H610 0.929 . S
C605 C585 1.449 . S
C605 C604 1.399 . S
C605 H611 0.930 . S
H606 C586 0.931 . S
H607 C587 0.922 1_565 S
H608 C595 0.931 . S
H609 C596 0.929 . S
H610 C604 0.929 . S
H611 C605 0.930 . S
Mn612 O617 2.095 . S
Mn612 O627 2.162 1_655 S
Mn612 O628 2.297 . S
Mn612 O636 2.385 . S
Mn612 O637 2.209 . S
Mn612 O638 2.094 . S
Mn613 O618 2.121 . S
Mn613 N620 2.257 . S
Mn613 N629 2.282 . S
Mn613 O637 2.215 . S
Mn613 O639 2.117 . S
C614 O636 1.234 . S
C614 O637 1.283 . S
C615 O627 1.281 . S
C615 O628 1.236 1_455 S
C616 O638 1.240 . S
C616 O639 1.264 . S
O617 Mn612 2.095 . S
O617 C626 1.250 . S
O618 Mn613 2.121 . S
O618 C626 1.258 . S
C619 N620 1.326 . S
C619 C623 1.460 . S
C619 H625 0.929 . S
N620 Mn613 2.257 . S
N620 C619 1.326 . S
N620 C624 1.362 . S
C621 C622 1.258 . S
C621 C624 1.431 . S
C621 C641 1.449 . S
C622 C621 1.258 . S
C622 C623 1.477 . S
C622 H642 0.931 . S
C623 C619 1.460 . S
C623 C622 1.477 . S
C623 H643 0.930 . S
C624 N620 1.362 . S
C624 C621 1.431 . S
C624 C634 1.476 . S
H625 C619 0.929 . S
C626 O617 1.250 . S
C626 O618 1.258 . S
O627 Mn612 2.162 1_455 S
O627 C615 1.281 . S
O628 Mn612 2.297 . S
O628 C615 1.236 1_655 S
N629 Mn613 2.282 . S
N629 C630 1.328 . S
N629 C634 1.318 . S
C630 N629 1.328 . S
C630 C631 1.457 . S
C630 H635 0.929 . S
C631 C630 1.457 . S
C631 C632 1.291 . S
C631 H644 0.931 . S
C632 C631 1.291 . S
C632 C633 1.373 . S
C632 H645 0.929 . S
C633 C632 1.373 . S
C633 C634 1.396 . S
C633 C640 1.403 . S
C634 C624 1.476 . S
C634 N629 1.318 . S
C634 C633 1.396 . S
H635 C630 0.929 . S
O636 Mn612 2.385 . S
O636 C614 1.234 . S
O637 Mn612 2.209 . S
O637 Mn613 2.215 . S
O637 C614 1.283 . S
O638 Mn612 2.094 . S
O638 C616 1.240 . S
O639 Mn613 2.117 . S
O639 C616 1.264 . S
C640 C633 1.403 . S
C640 C641 1.399 . S
C640 H646 0.929 . S
C641 C621 1.449 . S
C641 C640 1.399 . S
C641 H647 0.930 . S
H642 C622 0.931 . S
H643 C623 0.930 . S
H644 C631 0.931 . S
H645 C632 0.929 . S
H646 C640 0.929 . S
H647 C641 0.930 . S
H648 C675 0.929 . S
N649 C674 1.433 . S
N649 C680 1.435 . S
N649 C686 1.423 . S
H650 C676 0.930 . S
H651 C679 0.931 . S
H652 C678 0.929 . S
H653 C681 0.930 . S
H654 C682 0.932 . S
H655 C685 0.929 . S
H656 C684 0.931 . S
H657 C687 0.929 . S
H658 C691 0.932 . S
H659 C688 0.931 . S
H660 C690 0.929 . S
H661 C693 0.929 . S
H662 C694 0.930 . S
H663 C696 0.929 . S
H664 C697 0.931 . S
H665 C699 0.930 . S
H666 C700 0.932 . S
H667 C702 0.931 . S
H668 C703 0.929 . S
H669 C705 0.929 . S
H670 C706 0.931 . S
H671 C708 0.929 . S
N672 C692 1.433 . S
N672 C698 1.435 . S
N672 C704 1.423 . S
H673 C709 0.932 . S
C674 N649 1.433 . S
C674 C675 1.363 . S
C674 C679 1.370 . S
C675 H648 0.929 . S
C675 C674 1.363 . S
C675 C676 1.385 . S
C676 H650 0.930 . S
C676 C675 1.385 . S
C676 C677 1.357 . S
C677 C676 1.357 . S
C677 C678 1.406 . S
C678 H652 0.929 . S
C678 C677 1.406 . S
C678 C679 1.391 . S
C679 H651 0.931 . S
C679 C674 1.370 . S
C679 C678 1.391 . S
C680 N649 1.435 . S
C680 C681 1.358 . S
C680 C685 1.371 . S
C681 H653 0.930 . S
C681 C680 1.358 . S
C681 C682 1.405 . S
C682 H654 0.932 . S
C682 C681 1.405 . S
C682 C683 1.383 . S
C683 C682 1.383 . S
C683 C684 1.393 . S
C684 H656 0.931 . S
C684 C683 1.393 . S
C684 C685 1.382 . S
C685 H655 0.929 . S
C685 C680 1.371 . S
C685 C684 1.382 . S
C686 N649 1.423 . S
C686 C687 1.362 . S
C686 C691 1.388 . S
C687 H657 0.929 . S
C687 C686 1.362 . S
C687 C688 1.376 . S
C688 H659 0.931 . S
C688 C687 1.376 . S
C688 C689 1.396 . S
C689 C688 1.396 . S
C689 C690 1.348 . S
C689 C707 1.472 . S
C690 H660 0.929 . S
C690 C689 1.348 . S
C690 C691 1.443 . S
C691 H658 0.932 . S
C691 C686 1.388 . S
C691 C690 1.443 . S
C692 N672 1.433 . S
C692 C693 1.363 . S
C692 C697 1.370 . S
C693 H661 0.929 . S
C693 C692 1.363 . S
C693 C694 1.385 . S
C694 H662 0.930 . S
C694 C693 1.385 . S
C694 C695 1.357 . S
C695 C694 1.357 . S
C695 C696 1.406 . S
C696 H663 0.929 . S
C696 C695 1.406 . S
C696 C697 1.391 . S
C697 H664 0.931 . S
C697 C692 1.370 . S
C697 C696 1.391 . S
C698 N672 1.435 . S
C698 C699 1.358 . S
C698 C703 1.371 . S
C699 H665 0.930 . S
C699 C698 1.358 . S
C699 C700 1.405 . S
C700 H666 0.932 . S
C700 C699 1.405 . S
C700 C701 1.383 . S
C701 C700 1.383 . S
C701 C702 1.393 . S
C702 H667 0.931 . S
C702 C701 1.393 . S
C702 C703 1.382 . S
C703 H668 0.929 . S
C703 C698 1.371 . S
C703 C702 1.382 . S
C704 N672 1.423 . S
C704 C705 1.362 . S
C704 C709 1.388 . S
C705 H669 0.929 . S
C705 C704 1.362 . S
C705 C706 1.376 . S
C706 H670 0.931 . S
C706 C705 1.376 . S
C706 C707 1.396 . S
C707 C689 1.472 . S
C707 C706 1.396 . S
C707 C708 1.348 . S
C708 H671 0.929 . S
C708 C707 1.348 . S
C708 C709 1.443 . S
C709 H673 0.932 . S
C709 C704 1.388 . S
C709 C708 1.443 . S
H710 C737 0.929 . S
N711 C736 1.433 . S
N711 C742 1.435 . S
N711 C748 1.423 . S
H712 C738 0.930 . S
H713 C741 0.931 . S
H714 C740 0.929 . S
H715 C743 0.930 . S
H716 C744 0.932 . S
H717 C747 0.929 . S
H718 C746 0.931 . S
H719 C749 0.929 . S
H720 C753 0.932 . S
H721 C750 0.931 . S
H722 C752 0.929 . S
H723 C755 0.929 . S
H724 C756 0.930 . S
H725 C758 0.929 . S
H726 C759 0.931 . S
H727 C761 0.930 . S
H728 C762 0.932 . S
H729 C764 0.931 . S
H730 C765 0.929 . S
H731 C767 0.929 . S
H732 C768 0.931 . S
H733 C770 0.929 . S
N734 C754 1.433 . S
N734 C760 1.435 . S
N734 C766 1.423 . S
H735 C771 0.932 . S
C736 N711 1.433 . S
C736 C737 1.363 . S
C736 C741 1.370 . S
C737 H710 0.929 . S
C737 C736 1.363 . S
C737 C738 1.385 . S
C738 H712 0.930 . S
C738 C737 1.385 . S
C738 C739 1.357 . S
C739 C738 1.357 . S
C739 C740 1.406 . S
C740 H714 0.929 . S
C740 C739 1.406 . S
C740 C741 1.391 . S
C741 H713 0.931 . S
C741 C736 1.370 . S
C741 C740 1.391 . S
C742 N711 1.435 . S
C742 C743 1.358 . S
C742 C747 1.371 . S
C743 H715 0.930 . S
C743 C742 1.358 . S
C743 C744 1.405 . S
C744 H716 0.932 . S
C744 C743 1.405 . S
C744 C745 1.383 . S
C745 C744 1.383 . S
C745 C746 1.393 . S
C746 H718 0.931 . S
C746 C745 1.393 . S
C746 C747 1.382 . S
C747 H717 0.929 . S
C747 C742 1.371 . S
C747 C746 1.382 . S
C748 N711 1.423 . S
C748 C749 1.362 . S
C748 C753 1.388 . S
C749 H719 0.929 . S
C749 C748 1.362 . S
C749 C750 1.376 . S
C750 H721 0.931 . S
C750 C749 1.376 . S
C750 C751 1.396 . S
C751 C750 1.396 . S
C751 C752 1.348 . S
C751 C769 1.472 . S
C752 H722 0.929 . S
C752 C751 1.348 . S
C752 C753 1.443 . S
C753 H720 0.932 . S
C753 C748 1.388 . S
C753 C752 1.443 . S
C754 N734 1.433 . S
C754 C755 1.363 . S
C754 C759 1.370 . S
C755 H723 0.929 . S
C755 C754 1.363 . S
C755 C756 1.385 . S
C756 H724 0.930 . S
C756 C755 1.385 . S
C756 C757 1.357 . S
C757 C756 1.357 . S
C757 C758 1.406 . S
C758 H725 0.929 . S
C758 C757 1.406 . S
C758 C759 1.391 . S
C759 H726 0.931 . S
C759 C754 1.370 . S
C759 C758 1.391 . S
C760 N734 1.435 . S
C760 C761 1.358 . S
C760 C765 1.371 . S
C761 H727 0.930 . S
C761 C760 1.358 . S
C761 C762 1.405 . S
C762 H728 0.932 . S
C762 C761 1.405 . S
C762 C763 1.383 . S
C763 C762 1.383 . S
C763 C764 1.393 . S
C764 H729 0.931 . S
C764 C763 1.393 . S
C764 C765 1.382 . S
C765 H730 0.929 . S
C765 C760 1.371 . S
C765 C764 1.382 . S
C766 N734 1.423 . S
C766 C767 1.362 . S
C766 C771 1.388 . S
C767 H731 0.929 . S
C767 C766 1.362 . S
C767 C768 1.376 . S
C768 H732 0.931 . S
C768 C767 1.376 . S
C768 C769 1.396 . S
C769 C751 1.472 . S
C769 C768 1.396 . S
C769 C770 1.348 . S
C770 H733 0.929 . S
C770 C769 1.348 . S
C770 C771 1.443 . S
C771 H735 0.932 . S
C771 C766 1.388 . S
C771 C770 1.443 . S
H772 C799 0.929 . S
N773 C798 1.433 . S
N773 C804 1.435 . S
N773 C810 1.423 . S
H774 C800 0.930 . S
H775 C803 0.931 . S
H776 C802 0.929 . S
H777 C805 0.930 . S
H778 C806 0.932 . S
H779 C809 0.929 . S
H780 C808 0.931 . S
H781 C811 0.929 . S
H782 C815 0.932 . S
H783 C812 0.931 . S
H784 C814 0.929 . S
H785 C817 0.929 . S
H786 C818 0.930 . S
H787 C820 0.929 . S
H788 C821 0.931 . S
H789 C823 0.930 . S
H790 C824 0.932 . S
H791 C826 0.931 . S
H792 C827 0.929 . S
H793 C829 0.929 . S
H794 C830 0.931 . S
H795 C832 0.929 . S
N796 C816 1.433 . S
N796 C822 1.435 . S
N796 C828 1.423 . S
H797 C833 0.932 . S
C798 N773 1.433 . S
C798 C799 1.363 . S
C798 C803 1.370 . S
C799 H772 0.929 . S
C799 C798 1.363 . S
C799 C800 1.385 . S
C800 H774 0.930 . S
C800 C799 1.385 . S
C800 C801 1.357 . S
C801 C800 1.357 . S
C801 C802 1.406 . S
C802 H776 0.929 . S
C802 C801 1.406 . S
C802 C803 1.391 . S
C803 H775 0.931 . S
C803 C798 1.370 . S
C803 C802 1.391 . S
C804 N773 1.435 . S
C804 C805 1.358 . S
C804 C809 1.371 . S
C805 H777 0.930 . S
C805 C804 1.358 . S
C805 C806 1.405 . S
C806 H778 0.932 . S
C806 C805 1.405 . S
C806 C807 1.383 . S
C807 C806 1.383 . S
C807 C808 1.393 . S
C808 H780 0.931 . S
C808 C807 1.393 . S
C808 C809 1.382 . S
C809 H779 0.929 . S
C809 C804 1.371 . S
C809 C808 1.382 . S
C810 N773 1.423 . S
C810 C811 1.362 . S
C810 C815 1.388 . S
C811 H781 0.929 . S
C811 C810 1.362 . S
C811 C812 1.376 . S
C812 H783 0.931 . S
C812 C811 1.376 . S
C812 C813 1.396 . S
C813 C812 1.396 . S
C813 C814 1.348 . S
C813 C831 1.472 . S
C814 H784 0.929 . S
C814 C813 1.348 . S
C814 C815 1.443 . S
C815 H782 0.932 . S
C815 C810 1.388 . S
C815 C814 1.443 . S
C816 N796 1.433 . S
C816 C817 1.363 . S
C816 C821 1.370 . S
C817 H785 0.929 . S
C817 C816 1.363 . S
C817 C818 1.385 . S
C818 H786 0.930 . S
C818 C817 1.385 . S
C818 C819 1.357 . S
C819 C818 1.357 . S
C819 C820 1.406 . S
C820 H787 0.929 . S
C820 C819 1.406 . S
C820 C821 1.391 . S
C821 H788 0.931 . S
C821 C816 1.370 . S
C821 C820 1.391 . S
C822 N796 1.435 . S
C822 C823 1.358 . S
C822 C827 1.371 . S
C823 H789 0.930 . S
C823 C822 1.358 . S
C823 C824 1.405 . S
C824 H790 0.932 . S
C824 C823 1.405 . S
C824 C825 1.383 . S
C825 C824 1.383 . S
C825 C826 1.393 . S
C826 H791 0.931 . S
C826 C825 1.393 . S
C826 C827 1.382 . S
C827 H792 0.929 . S
C827 C822 1.371 . S
C827 C826 1.382 . S
C828 N796 1.423 . S
C828 C829 1.362 . S
C828 C833 1.388 . S
C829 H793 0.929 . S
C829 C828 1.362 . S
C829 C830 1.376 . S
C830 H794 0.931 . S
C830 C829 1.376 . S
C830 C831 1.396 . S
C831 C813 1.472 . S
C831 C830 1.396 . S
C831 C832 1.348 . S
C832 H795 0.929 . S
C832 C831 1.348 . S
C832 C833 1.443 . S
C833 H797 0.932 . S
C833 C828 1.388 . S
C833 C832 1.443 . S
H834 C861 0.929 . S
N835 C860 1.433 . S
N835 C866 1.435 . S
N835 C872 1.423 . S
H836 C862 0.930 . S
H837 C865 0.931 . S
H838 C864 0.929 . S
H839 C867 0.930 . S
H840 C868 0.932 . S
H841 C871 0.929 . S
H842 C870 0.931 . S
H843 C873 0.929 . S
H844 C877 0.932 . S
H845 C874 0.931 . S
H846 C876 0.929 . S
H847 C879 0.929 . S
H848 C880 0.930 . S
H849 C882 0.929 . S
H850 C883 0.931 . S
H851 C885 0.930 . S
H852 C886 0.932 . S
H853 C888 0.931 . S
H854 C889 0.929 . S
H855 C891 0.929 . S
H856 C892 0.931 . S
H857 C894 0.929 . S
N858 C878 1.433 . S
N858 C884 1.435 . S
N858 C890 1.423 . S
H859 C895 0.932 . S
C860 N835 1.433 . S
C860 C861 1.363 . S
C860 C865 1.370 . S
C861 H834 0.929 . S
C861 C860 1.363 . S
C861 C862 1.385 . S
C862 H836 0.930 . S
C862 C861 1.385 . S
C862 C863 1.357 . S
C863 C862 1.357 . S
C863 C864 1.406 . S
C864 H838 0.929 . S
C864 C863 1.406 . S
C864 C865 1.391 . S
C865 H837 0.931 . S
C865 C860 1.370 . S
C865 C864 1.391 . S
C866 N835 1.435 . S
C866 C867 1.358 . S
C866 C871 1.371 . S
C867 H839 0.930 . S
C867 C866 1.358 . S
C867 C868 1.405 . S
C868 H840 0.932 . S
C868 C867 1.405 . S
C868 C869 1.383 . S
C869 C868 1.383 . S
C869 C870 1.393 . S
C870 H842 0.931 . S
C870 C869 1.393 . S
C870 C871 1.382 . S
C871 H841 0.929 . S
C871 C866 1.371 . S
C871 C870 1.382 . S
C872 N835 1.423 . S
C872 C873 1.362 . S
C872 C877 1.388 . S
C873 H843 0.929 . S
C873 C872 1.362 . S
C873 C874 1.376 . S
C874 H845 0.931 . S
C874 C873 1.376 . S
C874 C875 1.396 . S
C875 C874 1.396 . S
C875 C876 1.348 . S
C875 C893 1.472 . S
C876 H846 0.929 . S
C876 C875 1.348 . S
C876 C877 1.443 . S
C877 H844 0.932 . S
C877 C872 1.388 . S
C877 C876 1.443 . S
C878 N858 1.433 . S
C878 C879 1.363 . S
C878 C883 1.370 . S
C879 H847 0.929 . S
C879 C878 1.363 . S
C879 C880 1.385 . S
C880 H848 0.930 . S
C880 C879 1.385 . S
C880 C881 1.357 . S
C881 C880 1.357 . S
C881 C882 1.406 . S
C882 H849 0.929 . S
C882 C881 1.406 . S
C882 C883 1.391 . S
C883 H850 0.931 . S
C883 C878 1.370 . S
C883 C882 1.391 . S
C884 N858 1.435 . S
C884 C885 1.358 . S
C884 C889 1.371 . S
C885 H851 0.930 . S
C885 C884 1.358 . S
C885 C886 1.405 . S
C886 H852 0.932 . S
C886 C885 1.405 . S
C886 C887 1.383 . S
C887 C886 1.383 . S
C887 C888 1.393 . S
C888 H853 0.931 . S
C888 C887 1.393 . S
C888 C889 1.382 . S
C889 H854 0.929 . S
C889 C884 1.371 . S
C889 C888 1.382 . S
C890 N858 1.423 . S
C890 C891 1.362 . S
C890 C895 1.388 . S
C891 H855 0.929 . S
C891 C890 1.362 . S
C891 C892 1.376 . S
C892 H856 0.931 . S
C892 C891 1.376 . S
C892 C893 1.396 . S
C893 C875 1.472 . S
C893 C892 1.396 . S
C893 C894 1.348 . S
C894 H857 0.929 . S
C894 C893 1.348 . S
C894 C895 1.443 . S
C895 H859 0.932 . S
C895 C890 1.388 . S
C895 C894 1.443 . S
H896 C923 0.929 . S
N897 C922 1.433 . S
N897 C928 1.435 . S
N897 C934 1.423 . S
H898 C924 0.930 . S
H899 C927 0.931 . S
H900 C926 0.929 . S
H901 C929 0.930 . S
H902 C930 0.932 . S
H903 C933 0.929 . S
H904 C932 0.931 . S
H905 C935 0.929 . S
H906 C939 0.932 . S
H907 C936 0.931 . S
H908 C938 0.929 . S
H909 C941 0.929 . S
H910 C942 0.930 . S
H911 C944 0.929 . S
H912 C945 0.931 . S
H913 C947 0.930 . S
H914 C948 0.932 . S
H915 C950 0.931 . S
H916 C951 0.929 . S
H917 C953 0.929 . S
H918 C954 0.931 . S
H919 C956 0.929 . S
N920 C940 1.433 . S
N920 C946 1.435 . S
N920 C952 1.423 . S
H921 C957 0.932 . S
C922 N897 1.433 . S
C922 C923 1.363 . S
C922 C927 1.370 . S
C923 H896 0.929 . S
C923 C922 1.363 . S
C923 C924 1.385 . S
C924 H898 0.930 . S
C924 C923 1.385 . S
C924 C925 1.357 . S
C925 C924 1.357 . S
C925 C926 1.406 . S
C926 H900 0.929 . S
C926 C925 1.406 . S
C926 C927 1.391 . S
C927 H899 0.931 . S
C927 C922 1.370 . S
C927 C926 1.391 . S
C928 N897 1.435 . S
C928 C929 1.358 . S
C928 C933 1.371 . S
C929 H901 0.930 . S
C929 C928 1.358 . S
C929 C930 1.405 . S
C930 H902 0.932 . S
C930 C929 1.405 . S
C930 C931 1.383 . S
C931 C930 1.383 . S
C931 C932 1.393 . S
C932 H904 0.931 . S
C932 C931 1.393 . S
C932 C933 1.382 . S
C933 H903 0.929 . S
C933 C928 1.371 . S
C933 C932 1.382 . S
C934 N897 1.423 . S
C934 C935 1.362 . S
C934 C939 1.388 . S
C935 H905 0.929 . S
C935 C934 1.362 . S
C935 C936 1.376 . S
C936 H907 0.931 . S
C936 C935 1.376 . S
C936 C937 1.396 . S
C937 C936 1.396 . S
C937 C938 1.348 . S
C937 C955 1.472 . S
C938 H908 0.929 . S
C938 C937 1.348 . S
C938 C939 1.443 . S
C939 H906 0.932 . S
C939 C934 1.388 . S
C939 C938 1.443 . S
C940 N920 1.433 . S
C940 C941 1.363 . S
C940 C945 1.370 . S
C941 H909 0.929 . S
C941 C940 1.363 . S
C941 C942 1.385 . S
C942 H910 0.930 . S
C942 C941 1.385 . S
C942 C943 1.357 . S
C943 C942 1.357 . S
C943 C944 1.406 . S
C944 H911 0.929 . S
C944 C943 1.406 . S
C944 C945 1.391 . S
C945 H912 0.931 . S
C945 C940 1.370 . S
C945 C944 1.391 . S
C946 N920 1.435 . S
C946 C947 1.358 . S
C946 C951 1.371 . S
C947 H913 0.930 . S
C947 C946 1.358 . S
C947 C948 1.405 . S
C948 H914 0.932 . S
C948 C947 1.405 . S
C948 C949 1.383 . S
C949 C948 1.383 . S
C949 C950 1.393 . S
C950 H915 0.931 . S
C950 C949 1.393 . S
C950 C951 1.382 . S
C951 H916 0.929 . S
C951 C946 1.371 . S
C951 C950 1.382 . S
C952 N920 1.423 . S
C952 C953 1.362 . S
C952 C957 1.388 . S
C953 H917 0.929 . S
C953 C952 1.362 . S
C953 C954 1.376 . S
C954 H918 0.931 . S
C954 C953 1.376 . S
C954 C955 1.396 . S
C955 C937 1.472 . S
C955 C954 1.396 . S
C955 C956 1.348 . S
C956 H919 0.929 . S
C956 C955 1.348 . S
C956 C957 1.443 . S
C957 H921 0.932 . S
C957 C952 1.388 . S
C957 C956 1.443 . S
H958 C985 0.929 . S
N959 C984 1.433 . S
N959 C990 1.435 . S
N959 C996 1.423 . S
H960 C986 0.930 . S
H961 C989 0.931 . S
H962 C988 0.929 . S
H963 C991 0.930 . S
H964 C992 0.932 . S
H965 C995 0.929 . S
H966 C994 0.931 . S
H967 C997 0.929 . S
H968 C1001 0.932 . S
H969 C998 0.931 . S
H970 C1000 0.929 . S
H971 C1003 0.929 . S
H972 C1004 0.930 . S
H973 C1006 0.929 . S
H974 C1007 0.931 . S
H975 C1009 0.930 . S
H976 C1010 0.932 . S
H977 C1012 0.931 . S
H978 C1013 0.929 . S
H979 C1015 0.929 . S
H980 C1016 0.931 . S
H981 C1018 0.929 . S
N982 C1002 1.433 . S
N982 C1008 1.435 . S
N982 C1014 1.423 . S
H983 C1019 0.932 . S
C984 N959 1.433 . S
C984 C985 1.363 . S
C984 C989 1.370 . S
C985 H958 0.929 . S
C985 C984 1.363 . S
C985 C986 1.385 . S
C986 H960 0.930 . S
C986 C985 1.385 . S
C986 C987 1.357 . S
C987 C986 1.357 . S
C987 C988 1.406 . S
C988 H962 0.929 . S
C988 C987 1.406 . S
C988 C989 1.391 . S
C989 H961 0.931 . S
C989 C984 1.370 . S
C989 C988 1.391 . S
C990 N959 1.435 . S
C990 C991 1.358 . S
C990 C995 1.371 . S
C991 H963 0.930 . S
C991 C990 1.358 . S
C991 C992 1.405 . S
C992 H964 0.932 . S
C992 C991 1.405 . S
C992 C993 1.383 . S
C993 C992 1.383 . S
C993 C994 1.393 . S
C994 H966 0.931 . S
C994 C993 1.393 . S
C994 C995 1.382 . S
C995 H965 0.929 . S
C995 C990 1.371 . S
C995 C994 1.382 . S
C996 N959 1.423 . S
C996 C997 1.362 . S
C996 C1001 1.388 . S
C997 H967 0.929 . S
C997 C996 1.362 . S
C997 C998 1.376 . S
C998 H969 0.931 . S
C998 C997 1.376 . S
C998 C999 1.396 . S
C999 C998 1.396 . S
C999 C1000 1.348 . S
C999 C1017 1.472 . S
C1000 H970 0.929 . S
C1000 C999 1.348 . S
C1000 C1001 1.443 . S
C1001 H968 0.932 . S
C1001 C996 1.388 . S
C1001 C1000 1.443 . S
C1002 N982 1.433 . S
C1002 C1003 1.363 . S
C1002 C1007 1.370 . S
C1003 H971 0.929 . S
C1003 C1002 1.363 . S
C1003 C1004 1.385 . S
C1004 H972 0.930 . S
C1004 C1003 1.385 . S
C1004 C1005 1.357 . S
C1005 C1004 1.357 . S
C1005 C1006 1.406 . S
C1006 H973 0.929 . S
C1006 C1005 1.406 . S
C1006 C1007 1.391 . S
C1007 H974 0.931 . S
C1007 C1002 1.370 . S
C1007 C1006 1.391 . S
C1008 N982 1.435 . S
C1008 C1009 1.358 . S
C1008 C1013 1.371 . S
C1009 H975 0.930 . S
C1009 C1008 1.358 . S
C1009 C1010 1.405 . S
C1010 H976 0.932 . S
C1010 C1009 1.405 . S
C1010 C1011 1.383 . S
C1011 C1010 1.383 . S
C1011 C1012 1.393 . S
C1012 H977 0.931 . S
C1012 C1011 1.393 . S
C1012 C1013 1.382 . S
C1013 H978 0.929 . S
C1013 C1008 1.371 . S
C1013 C1012 1.382 . S
C1014 N982 1.423 . S
C1014 C1015 1.362 . S
C1014 C1019 1.388 . S
C1015 H979 0.929 . S
C1015 C1014 1.362 . S
C1015 C1016 1.376 . S
C1016 H980 0.931 . S
C1016 C1015 1.376 . S
C1016 C1017 1.396 . S
C1017 C999 1.472 . S
C1017 C1016 1.396 . S
C1017 C1018 1.348 . S
C1018 H981 0.929 . S
C1018 C1017 1.348 . S
C1018 C1019 1.443 . S
C1019 H983 0.932 . S
C1019 C1014 1.388 . S
C1019 C1018 1.443 . S
H1020 C1047 0.929 . S
N1021 C1046 1.433 . S
N1021 C1052 1.435 . S
N1021 C1058 1.423 . S
H1022 C1048 0.930 . S
H1023 C1051 0.931 . S
H1024 C1050 0.929 . S
H1025 C1053 0.930 . S
H1026 C1054 0.932 . S
H1027 C1057 0.929 . S
H1028 C1056 0.931 . S
H1029 C1059 0.929 . S
H1030 C1063 0.932 . S
H1031 C1060 0.931 . S
H1032 C1062 0.929 . S
H1033 C1065 0.929 . S
H1034 C1066 0.930 . S
H1035 C1068 0.929 . S
H1036 C1069 0.931 . S
H1037 C1071 0.930 . S
H1038 C1072 0.932 . S
H1039 C1074 0.931 . S
H1040 C1075 0.929 . S
H1041 C1077 0.929 . S
H1042 C1078 0.931 . S
H1043 C1080 0.929 . S
N1044 C1064 1.433 . S
N1044 C1070 1.435 . S
N1044 C1076 1.423 . S
H1045 C1081 0.932 . S
C1046 N1021 1.433 . S
C1046 C1047 1.363 . S
C1046 C1051 1.370 . S
C1047 H1020 0.929 . S
C1047 C1046 1.363 . S
C1047 C1048 1.385 . S
C1048 H1022 0.930 . S
C1048 C1047 1.385 . S
C1048 C1049 1.357 . S
C1049 C1048 1.357 . S
C1049 C1050 1.406 . S
C1050 H1024 0.929 . S
C1050 C1049 1.406 . S
C1050 C1051 1.391 . S
C1051 H1023 0.931 . S
C1051 C1046 1.370 . S
C1051 C1050 1.391 . S
C1052 N1021 1.435 . S
C1052 C1053 1.358 . S
C1052 C1057 1.371 . S
C1053 H1025 0.930 . S
C1053 C1052 1.358 . S
C1053 C1054 1.405 . S
C1054 H1026 0.932 . S
C1054 C1053 1.405 . S
C1054 C1055 1.383 . S
C1055 C1054 1.383 . S
C1055 C1056 1.393 . S
C1056 H1028 0.931 . S
C1056 C1055 1.393 . S
C1056 C1057 1.382 . S
C1057 H1027 0.929 . S
C1057 C1052 1.371 . S
C1057 C1056 1.382 . S
C1058 N1021 1.423 . S
C1058 C1059 1.362 . S
C1058 C1063 1.388 . S
C1059 H1029 0.929 . S
C1059 C1058 1.362 . S
C1059 C1060 1.376 . S
C1060 H1031 0.931 . S
C1060 C1059 1.376 . S
C1060 C1061 1.396 . S
C1061 C1060 1.396 . S
C1061 C1062 1.348 . S
C1061 C1079 1.472 . S
C1062 H1032 0.929 . S
C1062 C1061 1.348 . S
C1062 C1063 1.443 . S
C1063 H1030 0.932 . S
C1063 C1058 1.388 . S
C1063 C1062 1.443 . S
C1064 N1044 1.433 . S
C1064 C1065 1.363 . S
C1064 C1069 1.370 . S
C1065 H1033 0.929 . S
C1065 C1064 1.363 . S
C1065 C1066 1.385 . S
C1066 H1034 0.930 . S
C1066 C1065 1.385 . S
C1066 C1067 1.357 . S
C1067 C1066 1.357 . S
C1067 C1068 1.406 . S
C1068 H1035 0.929 . S
C1068 C1067 1.406 . S
C1068 C1069 1.391 . S
C1069 H1036 0.931 . S
C1069 C1064 1.370 . S
C1069 C1068 1.391 . S
C1070 N1044 1.435 . S
C1070 C1071 1.358 . S
C1070 C1075 1.371 . S
C1071 H1037 0.930 . S
C1071 C1070 1.358 . S
C1071 C1072 1.405 . S
C1072 H1038 0.932 . S
C1072 C1071 1.405 . S
C1072 C1073 1.383 . S
C1073 C1072 1.383 . S
C1073 C1074 1.393 . S
C1074 H1039 0.931 . S
C1074 C1073 1.393 . S
C1074 C1075 1.382 . S
C1075 H1040 0.929 . S
C1075 C1070 1.371 . S
C1075 C1074 1.382 . S
C1076 N1044 1.423 . S
C1076 C1077 1.362 . S
C1076 C1081 1.388 . S
C1077 H1041 0.929 . S
C1077 C1076 1.362 . S
C1077 C1078 1.376 . S
C1078 H1042 0.931 . S
C1078 C1077 1.376 . S
C1078 C1079 1.396 . S
C1079 C1061 1.472 . S
C1079 C1078 1.396 . S
C1079 C1080 1.348 . S
C1080 H1043 0.929 . S
C1080 C1079 1.348 . S
C1080 C1081 1.443 . S
C1081 H1045 0.932 . S
C1081 C1076 1.388 . S
C1081 C1080 1.443 . S
H1082 C1109 0.929 . S
N1083 C1108 1.433 . S
N1083 C1114 1.435 . S
N1083 C1120 1.423 . S
H1084 C1110 0.930 . S
H1085 C1113 0.931 . S
H1086 C1112 0.929 . S
H1087 C1115 0.930 . S
H1088 C1116 0.932 . S
H1089 C1119 0.929 . S
H1090 C1118 0.931 . S
H1091 C1121 0.929 . S
H1092 C1125 0.932 . S
H1093 C1122 0.931 . S
H1094 C1124 0.929 . S
H1095 C1127 0.929 . S
H1096 C1128 0.930 . S
H1097 C1130 0.929 . S
H1098 C1131 0.931 . S
H1099 C1133 0.930 . S
H1100 C1134 0.932 . S
H1101 C1136 0.931 . S
H1102 C1137 0.929 . S
H1103 C1139 0.929 . S
H1104 C1140 0.931 . S
H1105 C1142 0.929 . S
N1106 C1126 1.433 . S
N1106 C1132 1.435 . S
N1106 C1138 1.423 . S
H1107 C1143 0.932 . S
C1108 N1083 1.433 . S
C1108 C1109 1.363 . S
C1108 C1113 1.370 . S
C1109 H1082 0.929 . S
C1109 C1108 1.363 . S
C1109 C1110 1.385 . S
C1110 H1084 0.930 . S
C1110 C1109 1.385 . S
C1110 C1111 1.357 . S
C1111 C1110 1.357 . S
C1111 C1112 1.406 . S
C1112 H1086 0.929 . S
C1112 C1111 1.406 . S
C1112 C1113 1.391 . S
C1113 H1085 0.931 . S
C1113 C1108 1.370 . S
C1113 C1112 1.391 . S
C1114 N1083 1.435 . S
C1114 C1115 1.358 . S
C1114 C1119 1.371 . S
C1115 H1087 0.930 . S
C1115 C1114 1.358 . S
C1115 C1116 1.405 . S
C1116 H1088 0.932 . S
C1116 C1115 1.405 . S
C1116 C1117 1.383 . S
C1117 C1116 1.383 . S
C1117 C1118 1.393 . S
C1118 H1090 0.931 . S
C1118 C1117 1.393 . S
C1118 C1119 1.382 . S
C1119 H1089 0.929 . S
C1119 C1114 1.371 . S
C1119 C1118 1.382 . S
C1120 N1083 1.423 . S
C1120 C1121 1.362 . S
C1120 C1125 1.388 . S
C1121 H1091 0.929 . S
C1121 C1120 1.362 . S
C1121 C1122 1.376 . S
C1122 H1093 0.931 . S
C1122 C1121 1.376 . S
C1122 C1123 1.396 . S
C1123 C1122 1.396 . S
C1123 C1124 1.348 . S
C1123 C1141 1.472 . S
C1124 H1094 0.929 . S
C1124 C1123 1.348 . S
C1124 C1125 1.443 . S
C1125 H1092 0.932 . S
C1125 C1120 1.388 . S
C1125 C1124 1.443 . S
C1126 N1106 1.433 . S
C1126 C1127 1.363 . S
C1126 C1131 1.370 . S
C1127 H1095 0.929 . S
C1127 C1126 1.363 . S
C1127 C1128 1.385 . S
C1128 H1096 0.930 . S
C1128 C1127 1.385 . S
C1128 C1129 1.357 . S
C1129 C1128 1.357 . S
C1129 C1130 1.406 . S
C1130 H1097 0.929 . S
C1130 C1129 1.406 . S
C1130 C1131 1.391 . S
C1131 H1098 0.931 . S
C1131 C1126 1.370 . S
C1131 C1130 1.391 . S
C1132 N1106 1.435 . S
C1132 C1133 1.358 . S
C1132 C1137 1.371 . S
C1133 H1099 0.930 . S
C1133 C1132 1.358 . S
C1133 C1134 1.405 . S
C1134 H1100 0.932 . S
C1134 C1133 1.405 . S
C1134 C1135 1.383 . S
C1135 C1134 1.383 . S
C1135 C1136 1.393 . S
C1136 H1101 0.931 . S
C1136 C1135 1.393 . S
C1136 C1137 1.382 . S
C1137 H1102 0.929 . S
C1137 C1132 1.371 . S
C1137 C1136 1.382 . S
C1138 N1106 1.423 . S
C1138 C1139 1.362 . S
C1138 C1143 1.388 . S
C1139 H1103 0.929 . S
C1139 C1138 1.362 . S
C1139 C1140 1.376 . S
C1140 H1104 0.931 . S
C1140 C1139 1.376 . S
C1140 C1141 1.396 . S
C1141 C1123 1.472 . S
C1141 C1140 1.396 . S
C1141 C1142 1.348 . S
C1142 H1105 0.929 . S
C1142 C1141 1.348 . S
C1142 C1143 1.443 . S
C1143 H1107 0.932 . S
C1143 C1138 1.388 . S
C1143 C1142 1.443 . S
H1144 C1171 0.929 . S
N1145 C1170 1.433 . S
N1145 C1176 1.435 . S
N1145 C1182 1.423 . S
H1146 C1172 0.930 . S
H1147 C1175 0.931 . S
H1148 C1174 0.929 . S
H1149 C1177 0.930 . S
H1150 C1178 0.932 . S
H1151 C1181 0.929 . S
H1152 C1180 0.931 . S
H1153 C1183 0.929 . S
H1154 C1187 0.932 . S
H1155 C1184 0.931 . S
H1156 C1186 0.929 . S
H1157 C1189 0.929 . S
H1158 C1190 0.930 . S
H1159 C1192 0.929 . S
H1160 C1193 0.931 . S
H1161 C1195 0.930 . S
H1162 C1196 0.932 . S
H1163 C1198 0.931 . S
H1164 C1199 0.929 . S
H1165 C1201 0.929 . S
H1166 C1202 0.931 . S
H1167 C1204 0.929 . S
N1168 C1188 1.433 . S
N1168 C1194 1.435 . S
N1168 C1200 1.423 . S
H1169 C1205 0.932 . S
C1170 N1145 1.433 . S
C1170 C1171 1.363 . S
C1170 C1175 1.370 . S
C1171 H1144 0.929 . S
C1171 C1170 1.363 . S
C1171 C1172 1.385 . S
C1172 H1146 0.930 . S
C1172 C1171 1.385 . S
C1172 C1173 1.357 . S
C1173 C1172 1.357 . S
C1173 C1174 1.406 . S
C1174 H1148 0.929 . S
C1174 C1173 1.406 . S
C1174 C1175 1.391 . S
C1175 H1147 0.931 . S
C1175 C1170 1.370 . S
C1175 C1174 1.391 . S
C1176 N1145 1.435 . S
C1176 C1177 1.358 . S
C1176 C1181 1.371 . S
C1177 H1149 0.930 . S
C1177 C1176 1.358 . S
C1177 C1178 1.405 . S
C1178 H1150 0.932 . S
C1178 C1177 1.405 . S
C1178 C1179 1.383 . S
C1179 C1178 1.383 . S
C1179 C1180 1.393 . S
C1180 H1152 0.931 . S
C1180 C1179 1.393 . S
C1180 C1181 1.382 . S
C1181 H1151 0.929 . S
C1181 C1176 1.371 . S
C1181 C1180 1.382 . S
C1182 N1145 1.423 . S
C1182 C1183 1.362 . S
C1182 C1187 1.388 . S
C1183 H1153 0.929 . S
C1183 C1182 1.362 . S
C1183 C1184 1.376 . S
C1184 H1155 0.931 . S
C1184 C1183 1.376 . S
C1184 C1185 1.396 . S
C1185 C1184 1.396 . S
C1185 C1186 1.348 . S
C1185 C1203 1.472 . S
C1186 H1156 0.929 . S
C1186 C1185 1.348 . S
C1186 C1187 1.443 . S
C1187 H1154 0.932 . S
C1187 C1182 1.388 . S
C1187 C1186 1.443 . S
C1188 N1168 1.433 . S
C1188 C1189 1.363 . S
C1188 C1193 1.370 . S
C1189 H1157 0.929 . S
C1189 C1188 1.363 . S
C1189 C1190 1.385 . S
C1190 H1158 0.930 . S
C1190 C1189 1.385 . S
C1190 C1191 1.357 . S
C1191 C1190 1.357 . S
C1191 C1192 1.406 . S
C1192 H1159 0.929 . S
C1192 C1191 1.406 . S
C1192 C1193 1.391 . S
C1193 H1160 0.931 . S
C1193 C1188 1.370 . S
C1193 C1192 1.391 . S
C1194 N1168 1.435 . S
C1194 C1195 1.358 . S
C1194 C1199 1.371 . S
C1195 H1161 0.930 . S
C1195 C1194 1.358 . S
C1195 C1196 1.405 . S
C1196 H1162 0.932 . S
C1196 C1195 1.405 . S
C1196 C1197 1.383 . S
C1197 C1196 1.383 . S
C1197 C1198 1.393 . S
C1198 H1163 0.931 . S
C1198 C1197 1.393 . S
C1198 C1199 1.382 . S
C1199 H1164 0.929 . S
C1199 C1194 1.371 . S
C1199 C1198 1.382 . S
C1200 N1168 1.423 . S
C1200 C1201 1.362 . S
C1200 C1205 1.388 . S
C1201 H1165 0.929 . S
C1201 C1200 1.362 . S
C1201 C1202 1.376 . S
C1202 H1166 0.931 . S
C1202 C1201 1.376 . S
C1202 C1203 1.396 . S
C1203 C1185 1.472 . S
C1203 C1202 1.396 . S
C1203 C1204 1.348 . S
C1204 H1167 0.929 . S
C1204 C1203 1.348 . S
C1204 C1205 1.443 . S
C1205 H1169 0.932 . S
C1205 C1200 1.388 . S
C1205 C1204 1.443 . S
H1206 C1233 0.929 . S
N1207 C1232 1.433 . S
N1207 C1238 1.435 . S
N1207 C1244 1.423 . S
H1208 C1234 0.930 . S
H1209 C1237 0.931 . S
H1210 C1236 0.929 . S
H1211 C1239 0.930 . S
H1212 C1240 0.932 . S
H1213 C1243 0.929 . S
H1214 C1242 0.931 . S
H1215 C1245 0.929 . S
H1216 C1249 0.932 1_655 S
H1217 C1246 0.931 . S
H1218 C1248 0.942 . S
H1219 C1251 0.929 . S
H1220 C1252 0.930 . S
H1221 C1254 0.929 . S
H1222 C1255 0.931 . S
H1223 C1257 0.930 . S
H1224 C1258 0.932 . S
H1225 C1260 0.931 . S
H1226 C1261 0.929 . S
H1227 C1263 0.929 . S
H1228 C1264 0.931 . S
H1229 C1266 0.977 . S
N1230 C1250 1.433 . S
N1230 C1256 1.435 . S
N1230 C1262 1.423 . S
H1231 C1267 0.932 1_655 S
C1232 N1207 1.433 . S
C1232 C1233 1.363 . S
C1232 C1237 1.370 1_455 S
C1233 H1206 0.929 . S
C1233 C1232 1.363 . S
C1233 C1234 1.385 . S
C1234 H1208 0.930 . S
C1234 C1233 1.385 . S
C1234 C1235 1.357 1_455 S
C1235 C1234 1.357 1_655 S
C1235 C1236 1.406 . S
C1236 H1210 0.929 . S
C1236 C1235 1.406 . S
C1236 C1237 1.391 . S
C1237 H1209 0.931 . S
C1237 C1232 1.370 1_655 S
C1237 C1236 1.391 . S
C1238 N1207 1.435 . S
C1238 C1239 1.358 1_455 S
C1238 C1243 1.371 . S
C1239 H1211 0.930 . S
C1239 C1238 1.358 1_655 S
C1239 C1240 1.405 . S
C1240 H1212 0.932 . S
C1240 C1239 1.405 . S
C1240 C1241 1.383 1_655 S
C1241 C1240 1.383 1_455 S
C1241 C1242 1.393 . S
C1242 H1214 0.931 . S
C1242 C1241 1.393 . S
C1242 C1243 1.382 . S
C1243 H1213 0.929 . S
C1243 C1238 1.371 . S
C1243 C1242 1.382 . S
C1244 N1207 1.423 . S
C1244 C1245 1.362 . S
C1244 C1249 1.388 . S
C1245 H1215 0.929 . S
C1245 C1244 1.362 . S
C1245 C1246 1.376 . S
C1246 H1217 0.931 . S
C1246 C1245 1.376 . S
C1246 C1247 1.396 . S
C1247 C1246 1.396 . S
C1247 C1248 1.348 . S
C1247 C1265 1.472 . S
C1248 H1218 0.942 . S
C1248 C1247 1.348 . S
C1248 C1249 1.443 . S
C1249 H1216 0.932 1_455 S
C1249 C1244 1.388 . S
C1249 C1248 1.443 . S
C1250 N1230 1.433 . S
C1250 C1251 1.363 . S
C1250 C1255 1.370 1_455 S
C1251 H1219 0.929 . S
C1251 C1250 1.363 . S
C1251 C1252 1.385 . S
C1252 H1220 0.930 . S
C1252 C1251 1.385 . S
C1252 C1253 1.357 1_455 S
C1253 C1252 1.357 1_655 S
C1253 C1254 1.406 . S
C1254 H1221 0.929 . S
C1254 C1253 1.406 . S
C1254 C1255 1.391 . S
C1255 H1222 0.931 . S
C1255 C1250 1.370 1_655 S
C1255 C1254 1.391 . S
C1256 N1230 1.435 . S
C1256 C1257 1.358 1_455 S
C1256 C1261 1.371 . S
C1257 H1223 0.930 . S
C1257 C1256 1.358 1_655 S
C1257 C1258 1.405 . S
C1258 H1224 0.932 . S
C1258 C1257 1.405 . S
C1258 C1259 1.383 1_655 S
C1259 C1258 1.383 1_455 S
C1259 C1260 1.393 . S
C1260 H1225 0.931 . S
C1260 C1259 1.393 . S
C1260 C1261 1.382 . S
C1261 H1226 0.929 . S
C1261 C1256 1.371 . S
C1261 C1260 1.382 . S
C1262 N1230 1.423 . S
C1262 C1263 1.362 . S
C1262 C1267 1.388 . S
C1263 H1227 0.929 . S
C1263 C1262 1.362 . S
C1263 C1264 1.376 . S
C1264 H1228 0.931 . S
C1264 C1263 1.376 . S
C1264 C1265 1.396 . S
C1265 C1247 1.472 . S
C1265 C1264 1.396 . S
C1265 C1266 1.348 . S
C1266 H1229 0.977 . S
C1266 C1265 1.348 . S
C1266 C1267 1.443 . S
C1267 H1231 0.932 1_455 S
C1267 C1262 1.388 . S
C1267 C1266 1.443 . S
H1268 C1295 0.929 . S
N1269 C1294 1.433 . S
N1269 C1300 1.435 . S
N1269 C1306 1.423 . S
H1270 C1296 0.930 . S
H1271 C1299 0.931 . S
H1272 C1298 0.929 . S
H1273 C1301 0.930 . S
H1274 C1302 0.932 . S
H1275 C1305 0.929 . S
H1276 C1304 0.931 . S
H1277 C1307 0.929 . S
H1278 C1311 0.932 . S
H1279 C1308 0.931 . S
H1280 C1310 0.929 . S
H1281 C1313 0.929 . S
H1282 C1314 0.930 . S
H1283 C1316 0.929 . S
H1284 C1317 0.931 . S
H1285 C1319 0.930 . S
H1286 C1320 0.932 . S
H1287 C1322 0.931 . S
H1288 C1323 0.929 . S
H1289 C1325 0.929 . S
H1290 C1326 0.931 . S
H1291 C1328 0.929 . S
N1292 C1312 1.433 . S
N1292 C1318 1.435 . S
N1292 C1324 1.423 . S
H1293 C1329 0.932 . S
C1294 N1269 1.433 . S
C1294 C1295 1.363 . S
C1294 C1299 1.370 . S
C1295 H1268 0.929 . S
C1295 C1294 1.363 . S
C1295 C1296 1.385 . S
C1296 H1270 0.930 . S
C1296 C1295 1.385 . S
C1296 C1297 1.357 . S
C1297 C1296 1.357 . S
C1297 C1298 1.406 . S
C1298 H1272 0.929 . S
C1298 C1297 1.406 . S
C1298 C1299 1.391 . S
C1299 H1271 0.931 . S
C1299 C1294 1.370 . S
C1299 C1298 1.391 . S
C1300 N1269 1.435 . S
C1300 C1301 1.358 . S
C1300 C1305 1.371 . S
C1301 H1273 0.930 . S
C1301 C1300 1.358 . S
C1301 C1302 1.405 . S
C1302 H1274 0.932 . S
C1302 C1301 1.405 . S
C1302 C1303 1.383 . S
C1303 C1302 1.383 . S
C1303 C1304 1.393 . S
C1304 H1276 0.931 . S
C1304 C1303 1.393 . S
C1304 C1305 1.382 . S
C1305 H1275 0.929 . S
C1305 C1300 1.371 . S
C1305 C1304 1.382 . S
C1306 N1269 1.423 . S
C1306 C1307 1.362 . S
C1306 C1311 1.388 . S
C1307 H1277 0.929 . S
C1307 C1306 1.362 . S
C1307 C1308 1.376 . S
C1308 H1279 0.931 . S
C1308 C1307 1.376 . S
C1308 C1309 1.396 . S
C1309 C1308 1.396 . S
C1309 C1310 1.348 . S
C1309 C1327 1.472 . S
C1310 H1280 0.929 . S
C1310 C1309 1.348 . S
C1310 C1311 1.443 . S
C1311 H1278 0.932 . S
C1311 C1306 1.388 . S
C1311 C1310 1.443 . S
C1312 N1292 1.433 . S
C1312 C1313 1.363 . S
C1312 C1317 1.370 . S
C1313 H1281 0.929 . S
C1313 C1312 1.363 . S
C1313 C1314 1.385 . S
C1314 H1282 0.930 . S
C1314 C1313 1.385 . S
C1314 C1315 1.357 . S
C1315 C1314 1.357 . S
C1315 C1316 1.406 . S
C1316 H1283 0.929 . S
C1316 C1315 1.406 . S
C1316 C1317 1.391 . S
C1317 H1284 0.931 . S
C1317 C1312 1.370 . S
C1317 C1316 1.391 . S
C1318 N1292 1.435 . S
C1318 C1319 1.358 . S
C1318 C1323 1.371 . S
C1319 H1285 0.930 . S
C1319 C1318 1.358 . S
C1319 C1320 1.405 . S
C1320 H1286 0.932 . S
C1320 C1319 1.405 . S
C1320 C1321 1.383 . S
C1321 C1320 1.383 . S
C1321 C1322 1.393 . S
C1322 H1287 0.931 . S
C1322 C1321 1.393 . S
C1322 C1323 1.382 . S
C1323 H1288 0.929 . S
C1323 C1318 1.371 . S
C1323 C1322 1.382 . S
C1324 N1292 1.423 . S
C1324 C1325 1.362 . S
C1324 C1329 1.388 . S
C1325 H1289 0.929 . S
C1325 C1324 1.362 . S
C1325 C1326 1.376 . S
C1326 H1290 0.931 . S
C1326 C1325 1.376 . S
C1326 C1327 1.396 . S
C1327 C1309 1.472 . S
C1327 C1326 1.396 . S
C1327 C1328 1.348 . S
C1328 H1291 0.929 . S
C1328 C1327 1.348 . S
C1328 C1329 1.443 . S
C1329 H1293 0.932 . S
C1329 C1324 1.388 . S
C1329 C1328 1.443 . S
H1330 C1357 0.929 . S
N1331 C1356 1.433 . S
N1331 C1362 1.435 . S
N1331 C1368 1.423 . S
H1332 C1358 0.930 . S
H1333 C1361 0.931 . S
H1334 C1360 0.929 . S
H1335 C1363 0.930 . S
H1336 C1364 0.932 . S
H1337 C1367 0.929 . S
H1338 C1366 0.931 . S
H1339 C1369 0.929 . S
H1340 C1373 0.932 1_545 S
H1341 C1370 0.931 . S
H1342 C1372 0.929 . S
H1343 C1375 0.929 . S
H1344 C1376 0.930 . S
H1345 C1378 0.929 . S
H1346 C1379 0.931 . S
H1347 C1381 0.930 . S
H1348 C1382 0.932 . S
H1349 C1384 0.931 . S
H1350 C1385 0.929 . S
H1351 C1387 0.929 . S
H1352 C1388 0.931 . S
H1353 C1390 0.929 . S
N1354 C1374 1.433 . S
N1354 C1380 1.435 . S
N1354 C1386 1.423 . S
H1355 C1391 0.932 1_545 S
C1356 N1331 1.433 . S
C1356 C1357 1.363 . S
C1356 C1361 1.370 1_565 S
C1357 H1330 0.929 . S
C1357 C1356 1.363 . S
C1357 C1358 1.385 . S
C1358 H1332 0.930 . S
C1358 C1357 1.385 . S
C1358 C1359 1.357 1_565 S
C1359 C1358 1.357 1_545 S
C1359 C1360 1.406 . S
C1360 H1334 0.929 . S
C1360 C1359 1.406 . S
C1360 C1361 1.391 . S
C1361 H1333 0.931 . S
C1361 C1356 1.370 1_545 S
C1361 C1360 1.391 . S
C1362 N1331 1.435 . S
C1362 C1363 1.358 1_565 S
C1362 C1367 1.371 . S
C1363 H1335 0.930 . S
C1363 C1362 1.358 1_545 S
C1363 C1364 1.405 . S
C1364 H1336 0.932 . S
C1364 C1363 1.405 . S
C1364 C1365 1.383 1_545 S
C1365 C1364 1.383 1_565 S
C1365 C1366 1.393 . S
C1366 H1338 0.931 . S
C1366 C1365 1.393 . S
C1366 C1367 1.382 . S
C1367 H1337 0.929 . S
C1367 C1362 1.371 . S
C1367 C1366 1.382 . S
C1368 N1331 1.423 . S
C1368 C1369 1.362 . S
C1368 C1373 1.388 . S
C1369 H1339 0.929 . S
C1369 C1368 1.362 . S
C1369 C1370 1.376 . S
C1370 H1341 0.931 . S
C1370 C1369 1.376 . S
C1370 C1371 1.396 . S
C1371 C1370 1.396 . S
C1371 C1372 1.348 . S
C1371 C1389 1.472 . S
C1372 H1342 0.929 . S
C1372 C1371 1.348 . S
C1372 C1373 1.443 . S
C1373 H1340 0.932 1_565 S
C1373 C1368 1.388 . S
C1373 C1372 1.443 . S
C1374 N1354 1.433 . S
C1374 C1375 1.363 . S
C1374 C1379 1.370 1_565 S
C1375 H1343 0.929 . S
C1375 C1374 1.363 . S
C1375 C1376 1.385 . S
C1376 H1344 0.930 . S
C1376 C1375 1.385 . S
C1376 C1377 1.357 1_565 S
C1377 C1376 1.357 1_545 S
C1377 C1378 1.406 . S
C1378 H1345 0.929 . S
C1378 C1377 1.406 . S
C1378 C1379 1.391 . S
C1379 H1346 0.931 . S
C1379 C1374 1.370 1_545 S
C1379 C1378 1.391 . S
C1380 N1354 1.435 . S
C1380 C1381 1.358 1_565 S
C1380 C1385 1.371 . S
C1381 H1347 0.930 . S
C1381 C1380 1.358 1_545 S
C1381 C1382 1.405 . S
C1382 H1348 0.932 . S
C1382 C1381 1.405 . S
C1382 C1383 1.383 1_545 S
C1383 C1382 1.383 1_565 S
C1383 C1384 1.393 . S
C1384 H1349 0.931 . S
C1384 C1383 1.393 . S
C1384 C1385 1.382 . S
C1385 H1350 0.929 . S
C1385 C1380 1.371 . S
C1385 C1384 1.382 . S
C1386 N1354 1.423 . S
C1386 C1387 1.362 . S
C1386 C1391 1.388 . S
C1387 H1351 0.929 . S
C1387 C1386 1.362 . S
C1387 C1388 1.376 . S
C1388 H1352 0.931 . S
C1388 C1387 1.376 . S
C1388 C1389 1.396 . S
C1389 C1371 1.472 . S
C1389 C1388 1.396 . S
C1389 C1390 1.348 . S
C1390 H1353 0.929 . S
C1390 C1389 1.348 . S
C1390 C1391 1.443 . S
C1391 H1355 0.932 1_565 S
C1391 C1386 1.388 . S
C1391 C1390 1.443 . S
H1392 C1419 0.929 . S
N1393 C1418 1.433 . S
N1393 C1424 1.435 . S
N1393 C1430 1.423 . S
H1394 C1420 0.930 . S
H1395 C1423 0.931 . S
H1396 C1422 0.929 . S
H1397 C1425 0.930 . S
H1398 C1426 0.932 . S
H1399 C1429 0.929 . S
H1400 C1428 0.931 . S
H1401 C1431 0.929 . S
H1402 C1435 1.002 . S
H1403 C1432 0.931 . S
H1404 C1434 0.916 1_545 S
H1405 C1437 0.929 . S
H1406 C1438 0.930 . S
H1407 C1440 0.929 . S
H1408 C1441 0.931 . S
H1409 C1443 0.930 . S
H1410 C1444 0.932 . S
H1411 C1446 0.931 . S
H1412 C1447 0.929 . S
H1413 C1449 0.929 . S
H1414 C1450 0.931 . S
H1415 C1452 0.889 1_545 S
N1416 C1436 1.433 . S
N1416 C1442 1.435 . S
N1416 C1448 1.423 . S
H1417 C1453 0.932 . S
C1418 N1393 1.433 . S
C1418 C1419 1.363 . S
C1418 C1423 1.361 1_565 S
C1419 H1392 0.929 . S
C1419 C1418 1.363 . S
C1419 C1420 1.385 . S
C1420 H1394 0.930 . S
C1420 C1419 1.385 . S
C1420 C1421 1.357 . S
C1421 C1420 1.357 . S
C1421 C1422 1.406 1_565 S
C1422 H1396 0.929 . S
C1422 C1421 1.406 1_545 S
C1422 C1423 1.408 . S
C1423 H1395 0.931 . S
C1423 C1418 1.361 1_545 S
C1423 C1422 1.408 . S
C1424 N1393 1.435 . S
C1424 C1425 1.358 1_565 S
C1424 C1429 1.371 . S
C1425 H1397 0.930 . S
C1425 C1424 1.358 1_545 S
C1425 C1426 1.405 . S
C1426 H1398 0.932 . S
C1426 C1425 1.405 . S
C1426 C1427 1.383 . S
C1427 C1426 1.383 . S
C1427 C1428 1.393 1_545 S
C1428 H1400 0.931 . S
C1428 C1427 1.393 1_565 S
C1428 C1429 1.382 . S
C1429 H1399 0.929 . S
C1429 C1424 1.371 . S
C1429 C1428 1.382 . S
C1430 N1393 1.423 . S
C1430 C1431 1.362 . S
C1430 C1435 1.368 1_565 S
C1431 H1401 0.929 . S
C1431 C1430 1.362 . S
C1431 C1432 1.376 . S
C1432 H1403 0.931 . S
C1432 C1431 1.376 . S
C1432 C1433 1.396 . S
C1433 C1432 1.396 . S
C1433 C1434 1.400 . S
C1433 C1451 1.472 . S
C1434 H1404 0.916 1_565 S
C1434 C1433 1.400 . S
C1434 C1435 1.363 1_565 S
C1435 H1402 1.002 . S
C1435 C1430 1.368 1_545 S
C1435 C1434 1.363 1_545 S
C1436 N1416 1.433 . S
C1436 C1437 1.363 . S
C1436 C1441 1.370 1_565 S
C1437 H1405 0.929 . S
C1437 C1436 1.363 . S
C1437 C1438 1.385 . S
C1438 H1406 0.930 . S
C1438 C1437 1.385 . S
C1438 C1439 1.357 . S
C1439 C1438 1.357 . S
C1439 C1440 1.406 1_565 S
C1440 H1407 0.929 . S
C1440 C1439 1.406 1_545 S
C1440 C1441 1.391 . S
C1441 H1408 0.931 . S
C1441 C1436 1.370 1_545 S
C1441 C1440 1.391 . S
C1442 N1416 1.435 . S
C1442 C1443 1.358 1_565 S
C1442 C1447 1.371 . S
C1443 H1409 0.930 . S
C1443 C1442 1.358 1_545 S
C1443 C1444 1.405 . S
C1444 H1410 0.932 . S
C1444 C1443 1.405 . S
C1444 C1445 1.383 . S
C1445 C1444 1.383 . S
C1445 C1446 1.393 1_545 S
C1446 H1411 0.931 . S
C1446 C1445 1.393 1_565 S
C1446 C1447 1.382 . S
C1447 H1412 0.929 . S
C1447 C1442 1.371 . S
C1447 C1446 1.382 . S
C1448 N1416 1.423 . S
C1448 C1449 1.362 . S
C1448 C1453 1.388 1_565 S
C1449 H1413 0.929 . S
C1449 C1448 1.362 . S
C1449 C1450 1.376 . S
C1450 H1414 0.931 . S
C1450 C1449 1.376 . S
C1450 C1451 1.396 . S
C1451 C1433 1.472 . S
C1451 C1450 1.396 . S
C1451 C1452 1.365 . S
C1452 H1415 0.889 1_565 S
C1452 C1451 1.365 . S
C1452 C1453 1.467 1_565 S
C1453 H1417 0.932 . S
C1453 C1448 1.388 1_545 S
C1453 C1452 1.467 1_545 S
H1454 C1481 0.929 . S
N1455 C1480 1.433 . S
N1455 C1486 1.435 . S
N1455 C1492 1.423 . S
H1456 C1482 0.930 . S
H1457 C1485 0.931 . S
H1458 C1484 0.929 . S
H1459 C1487 0.930 . S
H1460 C1488 0.932 . S
H1461 C1491 0.929 . S
H1462 C1490 0.931 . S
H1463 C1493 0.929 . S
H1464 C1497 0.932 1_455 S
H1465 C1494 0.931 . S
H1466 C1496 0.929 . S
H1467 C1499 0.929 . S
H1468 C1500 0.930 . S
H1469 C1502 0.929 . S
H1470 C1503 0.931 . S
H1471 C1505 0.930 . S
H1472 C1506 0.932 . S
H1473 C1508 0.931 . S
H1474 C1509 0.929 . S
H1475 C1511 0.929 . S
H1476 C1512 0.931 . S
H1477 C1514 0.929 . S
N1478 C1498 1.433 . S
N1478 C1504 1.435 . S
N1478 C1510 1.423 . S
H1479 C1515 0.932 1_455 S
C1480 N1455 1.433 . S
C1480 C1481 1.363 . S
C1480 C1485 1.370 1_655 S
C1481 H1454 0.929 . S
C1481 C1480 1.363 . S
C1481 C1482 1.385 . S
C1482 H1456 0.930 . S
C1482 C1481 1.385 . S
C1482 C1483 1.357 1_655 S
C1483 C1482 1.357 1_455 S
C1483 C1484 1.406 . S
C1484 H1458 0.929 . S
C1484 C1483 1.406 . S
C1484 C1485 1.391 . S
C1485 H1457 0.931 . S
C1485 C1480 1.370 1_455 S
C1485 C1484 1.391 . S
C1486 N1455 1.435 . S
C1486 C1487 1.358 1_655 S
C1486 C1491 1.371 . S
C1487 H1459 0.930 . S
C1487 C1486 1.358 1_455 S
C1487 C1488 1.405 . S
C1488 H1460 0.932 . S
C1488 C1487 1.405 . S
C1488 C1489 1.383 1_455 S
C1489 C1488 1.383 1_655 S
C1489 C1490 1.393 . S
C1490 H1462 0.931 . S
C1490 C1489 1.393 . S
C1490 C1491 1.382 . S
C1491 H1461 0.929 . S
C1491 C1486 1.371 . S
C1491 C1490 1.382 . S
C1492 N1455 1.423 . S
C1492 C1493 1.362 . S
C1492 C1497 1.388 . S
C1493 H1463 0.929 . S
C1493 C1492 1.362 . S
C1493 C1494 1.376 . S
C1494 H1465 0.931 . S
C1494 C1493 1.376 . S
C1494 C1495 1.396 . S
C1495 C1494 1.396 . S
C1495 C1496 1.348 . S
C1495 C1513 1.472 . S
C1496 H1466 0.929 . S
C1496 C1495 1.348 . S
C1496 C1497 1.443 . S
C1497 H1464 0.932 1_655 S
C1497 C1492 1.388 . S
C1497 C1496 1.443 . S
C1498 N1478 1.433 . S
C1498 C1499 1.363 . S
C1498 C1503 1.370 1_655 S
C1499 H1467 0.929 . S
C1499 C1498 1.363 . S
C1499 C1500 1.385 . S
C1500 H1468 0.930 . S
C1500 C1499 1.385 . S
C1500 C1501 1.357 1_655 S
C1501 C1500 1.357 1_455 S
C1501 C1502 1.406 . S
C1502 H1469 0.929 . S
C1502 C1501 1.406 . S
C1502 C1503 1.391 . S
C1503 H1470 0.931 . S
C1503 C1498 1.370 1_455 S
C1503 C1502 1.391 . S
C1504 N1478 1.435 . S
C1504 C1505 1.358 1_655 S
C1504 C1509 1.371 . S
C1505 H1471 0.930 . S
C1505 C1504 1.358 1_455 S
C1505 C1506 1.405 . S
C1506 H1472 0.932 . S
C1506 C1505 1.405 . S
C1506 C1507 1.383 1_455 S
C1507 C1506 1.383 1_655 S
C1507 C1508 1.393 . S
C1508 H1473 0.931 . S
C1508 C1507 1.393 . S
C1508 C1509 1.382 . S
C1509 H1474 0.929 . S
C1509 C1504 1.371 . S
C1509 C1508 1.382 . S
C1510 N1478 1.423 . S
C1510 C1511 1.362 . S
C1510 C1515 1.388 . S
C1511 H1475 0.929 . S
C1511 C1510 1.362 . S
C1511 C1512 1.376 . S
C1512 H1476 0.931 . S
C1512 C1511 1.376 . S
C1512 C1513 1.396 . S
C1513 C1495 1.472 . S
C1513 C1512 1.396 . S
C1513 C1514 1.348 . S
C1514 H1477 0.929 . S
C1514 C1513 1.348 . S
C1514 C1515 1.443 . S
C1515 H1479 0.932 1_655 S
C1515 C1510 1.388 . S
C1515 C1514 1.443 . S
H1516 C1543 0.929 . S
N1517 C1542 1.433 . S
N1517 C1548 1.435 . S
N1517 C1554 1.423 . S
H1518 C1544 0.930 . S
H1519 C1547 0.931 . S
H1520 C1546 0.929 . S
H1521 C1549 0.930 . S
H1522 C1550 0.932 . S
H1523 C1553 0.929 . S
H1524 C1552 0.931 . S
H1525 C1555 0.929 . S
H1526 C1559 0.932 . S
H1527 C1556 0.931 . S
H1528 C1558 0.929 . S
H1529 C1561 0.929 . S
H1530 C1562 0.930 . S
H1531 C1564 0.929 . S
H1532 C1565 0.931 . S
H1533 C1567 0.930 . S
H1534 C1568 0.932 . S
H1535 C1570 0.931 . S
H1536 C1571 0.929 . S
H1537 C1573 0.929 . S
H1538 C1574 0.931 . S
H1539 C1576 0.929 . S
N1540 C1560 1.433 . S
N1540 C1566 1.435 . S
N1540 C1572 1.423 . S
H1541 C1577 0.932 . S
C1542 N1517 1.433 . S
C1542 C1543 1.363 . S
C1542 C1547 1.370 . S
C1543 H1516 0.929 . S
C1543 C1542 1.363 . S
C1543 C1544 1.385 . S
C1544 H1518 0.930 . S
C1544 C1543 1.385 . S
C1544 C1545 1.357 . S
C1545 C1544 1.357 . S
C1545 C1546 1.406 . S
C1546 H1520 0.929 . S
C1546 C1545 1.406 . S
C1546 C1547 1.391 . S
C1547 H1519 0.931 . S
C1547 C1542 1.370 . S
C1547 C1546 1.391 . S
C1548 N1517 1.435 . S
C1548 C1549 1.358 . S
C1548 C1553 1.371 . S
C1549 H1521 0.930 . S
C1549 C1548 1.358 . S
C1549 C1550 1.405 . S
C1550 H1522 0.932 . S
C1550 C1549 1.405 . S
C1550 C1551 1.383 . S
C1551 C1550 1.383 . S
C1551 C1552 1.393 . S
C1552 H1524 0.931 . S
C1552 C1551 1.393 . S
C1552 C1553 1.382 . S
C1553 H1523 0.929 . S
C1553 C1548 1.371 . S
C1553 C1552 1.382 . S
C1554 N1517 1.423 . S
C1554 C1555 1.362 . S
C1554 C1559 1.388 . S
C1555 H1525 0.929 . S
C1555 C1554 1.362 . S
C1555 C1556 1.376 . S
C1556 H1527 0.931 . S
C1556 C1555 1.376 . S
C1556 C1557 1.396 . S
C1557 C1556 1.396 . S
C1557 C1558 1.348 . S
C1557 C1575 1.472 . S
C1558 H1528 0.929 . S
C1558 C1557 1.348 . S
C1558 C1559 1.443 . S
C1559 H1526 0.932 . S
C1559 C1554 1.388 . S
C1559 C1558 1.443 . S
C1560 N1540 1.433 . S
C1560 C1561 1.363 . S
C1560 C1565 1.370 . S
C1561 H1529 0.929 . S
C1561 C1560 1.363 . S
C1561 C1562 1.385 . S
C1562 H1530 0.930 . S
C1562 C1561 1.385 . S
C1562 C1563 1.357 . S
C1563 C1562 1.357 . S
C1563 C1564 1.406 . S
C1564 H1531 0.929 . S
C1564 C1563 1.406 . S
C1564 C1565 1.391 . S
C1565 H1532 0.931 . S
C1565 C1560 1.370 . S
C1565 C1564 1.391 . S
C1566 N1540 1.435 . S
C1566 C1567 1.358 . S
C1566 C1571 1.371 . S
C1567 H1533 0.930 . S
C1567 C1566 1.358 . S
C1567 C1568 1.405 . S
C1568 H1534 0.932 . S
C1568 C1567 1.405 . S
C1568 C1569 1.383 . S
C1569 C1568 1.383 . S
C1569 C1570 1.393 . S
C1570 H1535 0.931 . S
C1570 C1569 1.393 . S
C1570 C1571 1.382 . S
C1571 H1536 0.929 . S
C1571 C1566 1.371 . S
C1571 C1570 1.382 . S
C1572 N1540 1.423 . S
C1572 C1573 1.362 . S
C1572 C1577 1.388 . S
C1573 H1537 0.929 . S
C1573 C1572 1.362 . S
C1573 C1574 1.376 . S
C1574 H1538 0.931 . S
C1574 C1573 1.376 . S
C1574 C1575 1.396 . S
C1575 C1557 1.472 . S
C1575 C1574 1.396 . S
C1575 C1576 1.348 . S
C1576 H1539 0.929 . S
C1576 C1575 1.348 . S
C1576 C1577 1.443 . S
C1577 H1541 0.932 . S
C1577 C1572 1.388 . S
C1577 C1576 1.443 . S
H1578 C1605 0.929 . S
N1579 C1604 1.433 . S
N1579 C1610 1.435 . S
N1579 C1616 1.423 . S
H1580 C1606 0.930 . S
H1581 C1609 0.931 . S
H1582 C1608 0.929 . S
H1583 C1611 0.930 . S
H1584 C1612 0.932 . S
H1585 C1615 0.929 . S
H1586 C1614 0.931 . S
H1587 C1617 0.929 . S
H1588 C1621 0.932 . S
H1589 C1618 0.931 . S
H1590 C1620 0.929 . S
H1591 C1623 0.929 . S
H1592 C1624 0.930 . S
H1593 C1626 0.929 . S
H1594 C1627 0.931 . S
H1595 C1629 0.930 . S
H1596 C1630 0.932 . S
H1597 C1632 0.931 . S
H1598 C1633 0.929 . S
H1599 C1635 0.929 . S
H1600 C1636 0.931 . S
H1601 C1638 0.929 . S
N1602 C1622 1.433 . S
N1602 C1628 1.435 . S
N1602 C1634 1.423 . S
H1603 C1639 0.932 . S
C1604 N1579 1.433 . S
C1604 C1605 1.363 . S
C1604 C1609 1.370 . S
C1605 H1578 0.929 . S
C1605 C1604 1.363 . S
C1605 C1606 1.385 . S
C1606 H1580 0.930 . S
C1606 C1605 1.385 . S
C1606 C1607 1.357 . S
C1607 C1606 1.357 . S
C1607 C1608 1.406 . S
C1608 H1582 0.929 . S
C1608 C1607 1.406 . S
C1608 C1609 1.391 . S
C1609 H1581 0.931 . S
C1609 C1604 1.370 . S
C1609 C1608 1.391 . S
C1610 N1579 1.435 . S
C1610 C1611 1.358 . S
C1610 C1615 1.371 . S
C1611 H1583 0.930 . S
C1611 C1610 1.358 . S
C1611 C1612 1.405 . S
C1612 H1584 0.932 . S
C1612 C1611 1.405 . S
C1612 C1613 1.383 . S
C1613 C1612 1.383 . S
C1613 C1614 1.393 . S
C1614 H1586 0.931 . S
C1614 C1613 1.393 . S
C1614 C1615 1.382 . S
C1615 H1585 0.929 . S
C1615 C1610 1.371 . S
C1615 C1614 1.382 . S
C1616 N1579 1.423 . S
C1616 C1617 1.362 . S
C1616 C1621 1.388 . S
C1617 H1587 0.929 . S
C1617 C1616 1.362 . S
C1617 C1618 1.376 . S
C1618 H1589 0.931 . S
C1618 C1617 1.376 . S
C1618 C1619 1.396 . S
C1619 C1618 1.396 . S
C1619 C1620 1.348 . S
C1619 C1637 1.472 . S
C1620 H1590 0.929 . S
C1620 C1619 1.348 . S
C1620 C1621 1.443 . S
C1621 H1588 0.932 . S
C1621 C1616 1.388 . S
C1621 C1620 1.443 . S
C1622 N1602 1.433 . S
C1622 C1623 1.363 . S
C1622 C1627 1.370 . S
C1623 H1591 0.929 . S
C1623 C1622 1.363 . S
C1623 C1624 1.385 . S
C1624 H1592 0.930 . S
C1624 C1623 1.385 . S
C1624 C1625 1.357 . S
C1625 C1624 1.357 . S
C1625 C1626 1.406 . S
C1626 H1593 0.929 . S
C1626 C1625 1.406 . S
C1626 C1627 1.391 . S
C1627 H1594 0.931 . S
C1627 C1622 1.370 . S
C1627 C1626 1.391 . S
C1628 N1602 1.435 . S
C1628 C1629 1.358 . S
C1628 C1633 1.371 . S
C1629 H1595 0.930 . S
C1629 C1628 1.358 . S
C1629 C1630 1.405 . S
C1630 H1596 0.932 . S
C1630 C1629 1.405 . S
C1630 C1631 1.383 . S
C1631 C1630 1.383 . S
C1631 C1632 1.393 . S
C1632 H1597 0.931 . S
C1632 C1631 1.393 . S
C1632 C1633 1.382 . S
C1633 H1598 0.929 . S
C1633 C1628 1.371 . S
C1633 C1632 1.382 . S
C1634 N1602 1.423 . S
C1634 C1635 1.362 . S
C1634 C1639 1.388 . S
C1635 H1599 0.929 . S
C1635 C1634 1.362 . S
C1635 C1636 1.376 . S
C1636 H1600 0.931 . S
C1636 C1635 1.376 . S
C1636 C1637 1.396 . S
C1637 C1619 1.472 . S
C1637 C1636 1.396 . S
C1637 C1638 1.348 . S
C1638 H1601 0.929 . S
C1638 C1637 1.348 . S
C1638 C1639 1.443 . S
C1639 H1603 0.932 . S
C1639 C1634 1.388 . S
C1639 C1638 1.443 . S
H1640 C1667 0.929 . S
N1641 C1666 1.433 . S
N1641 C1672 1.435 . S
N1641 C1678 1.423 . S
H1642 C1668 0.930 . S
H1643 C1671 0.931 . S
H1644 C1670 0.929 . S
H1645 C1673 0.930 . S
H1646 C1674 0.932 . S
H1647 C1677 0.929 . S
H1648 C1676 0.931 . S
H1649 C1679 0.929 . S
H1650 C1683 0.932 . S
H1651 C1680 0.931 . S
H1652 C1682 0.929 . S
H1653 C1685 0.929 . S
H1654 C1686 0.930 . S
H1655 C1688 0.929 . S
H1656 C1689 0.931 . S
H1657 C1691 0.930 . S
H1658 C1692 0.932 . S
H1659 C1694 0.931 . S
H1660 C1695 0.929 . S
H1661 C1697 0.929 . S
H1662 C1698 0.931 . S
H1663 C1700 0.929 . S
N1664 C1684 1.433 . S
N1664 C1690 1.435 . S
N1664 C1696 1.423 . S
H1665 C1701 0.932 . S
C1666 N1641 1.433 . S
C1666 C1667 1.363 . S
C1666 C1671 1.370 . S
C1667 H1640 0.929 . S
C1667 C1666 1.363 . S
C1667 C1668 1.385 . S
C1668 H1642 0.930 . S
C1668 C1667 1.385 . S
C1668 C1669 1.357 . S
C1669 C1668 1.357 . S
C1669 C1670 1.406 . S
C1670 H1644 0.929 . S
C1670 C1669 1.406 . S
C1670 C1671 1.391 . S
C1671 H1643 0.931 . S
C1671 C1666 1.370 . S
C1671 C1670 1.391 . S
C1672 N1641 1.435 . S
C1672 C1673 1.358 . S
C1672 C1677 1.371 . S
C1673 H1645 0.930 . S
C1673 C1672 1.358 . S
C1673 C1674 1.405 . S
C1674 H1646 0.932 . S
C1674 C1673 1.405 . S
C1674 C1675 1.383 . S
C1675 C1674 1.383 . S
C1675 C1676 1.393 . S
C1676 H1648 0.931 . S
C1676 C1675 1.393 . S
C1676 C1677 1.382 . S
C1677 H1647 0.929 . S
C1677 C1672 1.371 . S
C1677 C1676 1.382 . S
C1678 N1641 1.423 . S
C1678 C1679 1.362 . S
C1678 C1683 1.388 . S
C1679 H1649 0.929 . S
C1679 C1678 1.362 . S
C1679 C1680 1.376 . S
C1680 H1651 0.931 . S
C1680 C1679 1.376 . S
C1680 C1681 1.396 . S
C1681 C1680 1.396 . S
C1681 C1682 1.348 . S
C1681 C1699 1.472 . S
C1682 H1652 0.929 . S
C1682 C1681 1.348 . S
C1682 C1683 1.443 . S
C1683 H1650 0.932 . S
C1683 C1678 1.388 . S
C1683 C1682 1.443 . S
C1684 N1664 1.433 . S
C1684 C1685 1.363 . S
C1684 C1689 1.370 . S
C1685 H1653 0.929 . S
C1685 C1684 1.363 . S
C1685 C1686 1.385 . S
C1686 H1654 0.930 . S
C1686 C1685 1.385 . S
C1686 C1687 1.357 . S
C1687 C1686 1.357 . S
C1687 C1688 1.406 . S
C1688 H1655 0.929 . S
C1688 C1687 1.406 . S
C1688 C1689 1.391 . S
C1689 H1656 0.931 . S
C1689 C1684 1.370 . S
C1689 C1688 1.391 . S
C1690 N1664 1.435 . S
C1690 C1691 1.358 . S
C1690 C1695 1.371 . S
C1691 H1657 0.930 . S
C1691 C1690 1.358 . S
C1691 C1692 1.405 . S
C1692 H1658 0.932 . S
C1692 C1691 1.405 . S
C1692 C1693 1.383 . S
C1693 C1692 1.383 . S
C1693 C1694 1.393 . S
C1694 H1659 0.931 . S
C1694 C1693 1.393 . S
C1694 C1695 1.382 . S
C1695 H1660 0.929 . S
C1695 C1690 1.371 . S
C1695 C1694 1.382 . S
C1696 N1664 1.423 . S
C1696 C1697 1.362 . S
C1696 C1701 1.388 . S
C1697 H1661 0.929 . S
C1697 C1696 1.362 . S
C1697 C1698 1.376 . S
C1698 H1662 0.931 . S
C1698 C1697 1.376 . S
C1698 C1699 1.396 . S
C1699 C1681 1.472 . S
C1699 C1698 1.396 . S
C1699 C1700 1.348 . S
C1700 H1663 0.929 . S
C1700 C1699 1.348 . S
C1700 C1701 1.443 . S
C1701 H1665 0.932 . S
C1701 C1696 1.388 . S
C1701 C1700 1.443 . S
H1702 C1729 0.929 . S
N1703 C1728 1.433 . S
N1703 C1734 1.435 . S
N1703 C1740 1.423 . S
H1704 C1730 0.930 . S
H1705 C1733 0.931 . S
H1706 C1732 0.929 . S
H1707 C1735 0.930 . S
H1708 C1736 0.932 . S
H1709 C1739 0.929 . S
H1710 C1738 0.931 . S
H1711 C1741 0.929 . S
H1712 C1745 0.932 . S
H1713 C1742 0.931 . S
H1714 C1744 0.929 . S
H1715 C1747 0.929 . S
H1716 C1748 0.930 . S
H1717 C1750 0.929 . S
H1718 C1751 0.931 . S
H1719 C1753 0.930 . S
H1720 C1754 0.932 . S
H1721 C1756 0.931 . S
H1722 C1757 0.929 . S
H1723 C1759 0.929 . S
H1724 C1760 0.931 . S
H1725 C1762 0.929 . S
N1726 C1746 1.433 . S
N1726 C1752 1.435 . S
N1726 C1758 1.423 . S
H1727 C1763 0.932 . S
C1728 N1703 1.433 . S
C1728 C1729 1.363 . S
C1728 C1733 1.370 . S
C1729 H1702 0.929 . S
C1729 C1728 1.363 . S
C1729 C1730 1.385 . S
C1730 H1704 0.930 . S
C1730 C1729 1.385 . S
C1730 C1731 1.357 . S
C1731 C1730 1.357 . S
C1731 C1732 1.406 . S
C1732 H1706 0.929 . S
C1732 C1731 1.406 . S
C1732 C1733 1.391 . S
C1733 H1705 0.931 . S
C1733 C1728 1.370 . S
C1733 C1732 1.391 . S
C1734 N1703 1.435 . S
C1734 C1735 1.358 . S
C1734 C1739 1.371 . S
C1735 H1707 0.930 . S
C1735 C1734 1.358 . S
C1735 C1736 1.405 . S
C1736 H1708 0.932 . S
C1736 C1735 1.405 . S
C1736 C1737 1.383 . S
C1737 C1736 1.383 . S
C1737 C1738 1.393 . S
C1738 H1710 0.931 . S
C1738 C1737 1.393 . S
C1738 C1739 1.382 . S
C1739 H1709 0.929 . S
C1739 C1734 1.371 . S
C1739 C1738 1.382 . S
C1740 N1703 1.423 . S
C1740 C1741 1.362 . S
C1740 C1745 1.388 . S
C1741 H1711 0.929 . S
C1741 C1740 1.362 . S
C1741 C1742 1.376 . S
C1742 H1713 0.931 . S
C1742 C1741 1.376 . S
C1742 C1743 1.396 . S
C1743 C1742 1.396 . S
C1743 C1744 1.348 . S
C1743 C1761 1.472 . S
C1744 H1714 0.929 . S
C1744 C1743 1.348 . S
C1744 C1745 1.443 . S
C1745 H1712 0.932 . S
C1745 C1740 1.388 . S
C1745 C1744 1.443 . S
C1746 N1726 1.433 . S
C1746 C1747 1.363 . S
C1746 C1751 1.370 . S
C1747 H1715 0.929 . S
C1747 C1746 1.363 . S
C1747 C1748 1.385 . S
C1748 H1716 0.930 . S
C1748 C1747 1.385 . S
C1748 C1749 1.357 . S
C1749 C1748 1.357 . S
C1749 C1750 1.406 . S
C1750 H1717 0.929 . S
C1750 C1749 1.406 . S
C1750 C1751 1.391 . S
C1751 H1718 0.931 . S
C1751 C1746 1.370 . S
C1751 C1750 1.391 . S
C1752 N1726 1.435 . S
C1752 C1753 1.358 . S
C1752 C1757 1.371 . S
C1753 H1719 0.930 . S
C1753 C1752 1.358 . S
C1753 C1754 1.405 . S
C1754 H1720 0.932 . S
C1754 C1753 1.405 . S
C1754 C1755 1.383 . S
C1755 C1754 1.383 . S
C1755 C1756 1.393 . S
C1756 H1721 0.931 . S
C1756 C1755 1.393 . S
C1756 C1757 1.382 . S
C1757 H1722 0.929 . S
C1757 C1752 1.371 . S
C1757 C1756 1.382 . S
C1758 N1726 1.423 . S
C1758 C1759 1.362 . S
C1758 C1763 1.388 . S
C1759 H1723 0.929 . S
C1759 C1758 1.362 . S
C1759 C1760 1.376 . S
C1760 H1724 0.931 . S
C1760 C1759 1.376 . S
C1760 C1761 1.396 . S
C1761 C1743 1.472 . S
C1761 C1760 1.396 . S
C1761 C1762 1.348 . S
C1762 H1725 0.929 . S
C1762 C1761 1.348 . S
C1762 C1763 1.443 . S
C1763 H1727 0.932 . S
C1763 C1758 1.388 . S
C1763 C1762 1.443 . S
H1764 C1770 0.930 . S
H1765 C1773 0.930 . S
H1766 C1774 0.930 . S
H1767 C1775 0.930 . S
H1768 C1778 0.930 . S
H1769 C1779 0.930 . S
C1770 H1764 0.930 . S
C1770 C1771 1.355 1_455 S
C1770 C1772 1.415 . S
C1771 C1770 1.355 1_655 S
C1771 C1773 1.419 . S
C1772 C1770 1.415 . S
C1772 C1777 1.425 1_455 S
C1772 C1779 1.409 . S
C1773 H1765 0.930 . S
C1773 C1771 1.419 . S
C1773 C1774 1.362 . S
C1774 H1766 0.930 . S
C1774 C1773 1.362 . S
C1774 C1777 1.409 . S
C1775 H1767 0.930 . S
C1775 C1776 1.355 . S
C1775 C1777 1.415 . S
C1776 C1775 1.355 . S
C1776 C1778 1.419 1_655 S
C1777 C1772 1.425 1_655 S
C1777 C1774 1.409 . S
C1777 C1775 1.415 . S
C1778 H1768 0.930 . S
C1778 C1776 1.419 1_455 S
C1778 C1779 1.362 . S
C1779 H1769 0.930 . S
C1779 C1772 1.409 . S
C1779 C1778 1.362 . S
H1780 C1786 0.930 . S
H1781 C1789 0.930 . S
H1782 C1790 0.930 . S
H1783 C1791 0.930 . S
H1784 C1794 0.930 . S
H1785 C1795 0.930 . S
C1786 H1780 0.930 . S
C1786 C1787 1.355 . S
C1786 C1788 1.415 . S
C1787 C1786 1.355 . S
C1787 C1789 1.419 . S
C1788 C1786 1.415 . S
C1788 C1793 1.425 . S
C1788 C1795 1.409 . S
C1789 H1781 0.930 . S
C1789 C1787 1.419 . S
C1789 C1790 1.362 . S
C1790 H1782 0.930 . S
C1790 C1789 1.362 . S
C1790 C1793 1.409 . S
C1791 H1783 0.930 . S
C1791 C1792 1.355 . S
C1791 C1793 1.415 . S
C1792 C1791 1.355 . S
C1792 C1794 1.419 . S
C1793 C1788 1.425 . S
C1793 C1790 1.409 . S
C1793 C1791 1.415 . S
C1794 H1784 0.930 . S
C1794 C1792 1.419 . S
C1794 C1795 1.362 . S
C1795 H1785 0.930 . S
C1795 C1788 1.409 . S
C1795 C1794 1.362 . S
H1796 C1802 0.930 . S
H1797 C1805 0.930 . S
H1798 C1806 0.930 . S
H1799 C1807 0.930 . S
H1800 C1810 0.930 . S
H1801 C1811 0.930 . S
C1802 H1796 0.930 . S
C1802 C1803 1.355 . S
C1802 C1804 1.415 . S
C1803 C1802 1.355 . S
C1803 C1805 1.419 1_545 S
C1804 C1802 1.415 . S
C1804 C1809 1.425 1_545 S
C1804 C1811 1.409 . S
C1805 H1797 0.930 . S
C1805 C1803 1.419 1_565 S
C1805 C1806 1.362 . S
C1806 H1798 0.930 . S
C1806 C1805 1.362 . S
C1806 C1809 1.409 . S
C1807 H1799 0.930 . S
C1807 C1808 1.355 1_565 S
C1807 C1809 1.415 . S
C1808 C1807 1.355 1_545 S
C1808 C1810 1.419 . S
C1809 C1804 1.425 1_565 S
C1809 C1806 1.409 . S
C1809 C1807 1.415 . S
C1810 H1800 0.930 . S
C1810 C1808 1.419 . S
C1810 C1811 1.362 . S
C1811 H1801 0.930 . S
C1811 C1804 1.409 . S
C1811 C1810 1.362 . S
H1812 C1818 0.930 1_545 S
H1813 C1821 0.930 . S
H1814 C1822 0.930 . S
H1815 C1823 0.930 . S
H1816 C1826 0.932 . S
H1817 C1827 0.930 1_545 S
C1818 H1812 0.930 1_565 S
C1818 C1819 1.358 . S
C1818 C1820 1.411 . S
C1819 C1818 1.358 . S
C1819 C1821 1.419 . S
C1820 C1818 1.411 . S
C1820 C1825 1.425 . S
C1820 C1827 1.408 . S
C1821 H1813 0.930 . S
C1821 C1819 1.419 . S
C1821 C1822 1.362 . S
C1822 H1814 0.930 . S
C1822 C1821 1.362 . S
C1822 C1825 1.409 . S
C1823 H1815 0.930 . S
C1823 C1824 1.355 . S
C1823 C1825 1.415 . S
C1824 C1823 1.355 . S
C1824 C1826 1.419 . S
C1825 C1820 1.425 . S
C1825 C1822 1.409 . S
C1825 C1823 1.415 . S
C1826 H1816 0.932 . S
C1826 C1824 1.419 . S
C1826 C1827 1.363 . S
C1827 H1817 0.930 1_565 S
C1827 C1820 1.408 . S
C1827 C1826 1.363 . S
H1828 C1834 0.930 . S
H1829 C1837 0.930 . S
H1830 C1838 0.930 . S
H1831 C1839 0.930 . S
H1832 C1842 0.930 . S
H1833 C1843 0.930 . S
C1834 H1828 0.930 . S
C1834 C1835 1.355 . S
C1834 C1836 1.415 . S
C1835 C1834 1.355 . S
C1835 C1837 1.419 1_455 S
C1836 C1834 1.415 . S
C1836 C1841 1.417 . S
C1836 C1843 1.409 . S
C1837 H1829 0.930 . S
C1837 C1835 1.419 1_655 S
C1837 C1838 1.362 . S
C1838 H1830 0.930 . S
C1838 C1837 1.362 . S
C1838 C1841 1.413 1_655 S
C1839 H1831 0.930 . S
C1839 C1840 1.355 1_655 S
C1839 C1841 1.419 1_655 S
C1840 C1839 1.355 1_455 S
C1840 C1842 1.419 . S
C1841 C1836 1.417 . S
C1841 C1838 1.413 1_455 S
C1841 C1839 1.419 1_455 S
C1842 H1832 0.930 . S
C1842 C1840 1.419 . S
C1842 C1843 1.362 . S
C1843 H1833 0.930 . S
C1843 C1836 1.409 . S
C1843 C1842 1.362 . S
H1844 C1850 0.930 . S
H1845 C1853 0.930 . S
H1846 C1854 0.930 . S
H1847 C1855 0.930 . S
H1848 C1858 0.930 . S
H1849 C1859 0.930 . S
C1850 H1844 0.930 . S
C1850 C1851 1.355 . S
C1850 C1852 1.415 . S
C1851 C1850 1.355 . S
C1851 C1853 1.419 . S
C1852 C1850 1.415 . S
C1852 C1857 1.425 . S
C1852 C1859 1.409 . S
C1853 H1845 0.930 . S
C1853 C1851 1.419 . S
C1853 C1854 1.362 . S
C1854 H1846 0.930 . S
C1854 C1853 1.362 . S
C1854 C1857 1.409 . S
C1855 H1847 0.930 . S
C1855 C1856 1.355 . S
C1855 C1857 1.415 . S
C1856 C1855 1.355 . S
C1856 C1858 1.419 . S
C1857 C1852 1.425 . S
C1857 C1854 1.409 . S
C1857 C1855 1.415 . S
C1858 H1848 0.930 . S
C1858 C1856 1.419 . S
C1858 C1859 1.362 . S
C1859 H1849 0.930 . S
C1859 C1852 1.409 . S
C1859 C1858 1.362 . S
H1860 C1866 0.930 . S
H1861 C1869 0.930 . S
H1862 C1870 0.930 . S
H1863 C1871 0.930 . S
H1864 C1874 0.930 . S
H1865 C1875 0.930 . S
C1866 H1860 0.930 . S
C1866 C1867 1.355 1_655 S
C1866 C1868 1.412 . S
C1867 C1866 1.355 1_455 S
C1867 C1869 1.419 . S
C1868 C1866 1.412 . S
C1868 C1873 1.430 1_655 S
C1868 C1875 1.408 . S
C1869 H1861 0.930 . S
C1869 C1867 1.419 . S
C1869 C1870 1.362 . S
C1870 H1862 0.930 . S
C1870 C1869 1.362 . S
C1870 C1873 1.409 . S
C1871 H1863 0.930 . S
C1871 C1872 1.355 . S
C1871 C1873 1.415 . S
C1872 C1871 1.355 . S
C1872 C1874 1.419 1_455 S
C1873 C1868 1.430 1_455 S
C1873 C1870 1.409 . S
C1873 C1871 1.415 . S
C1874 H1864 0.930 . S
C1874 C1872 1.419 1_655 S
C1874 C1875 1.362 . S
C1875 H1865 0.930 . S
C1875 C1868 1.408 . S
C1875 C1874 1.362 . S
H1876 C1882 0.930 . S
H1877 C1885 0.930 . S
H1878 C1886 0.930 . S
H1879 C1887 0.930 . S
H1880 C1890 0.930 . S
H1881 C1891 0.930 . S
C1882 H1876 0.930 . S
C1882 C1883 1.355 . S
C1882 C1884 1.415 . S
C1883 C1882 1.355 . S
C1883 C1885 1.419 . S
C1884 C1882 1.415 . S
C1884 C1889 1.425 . S
C1884 C1891 1.409 . S
C1885 H1877 0.930 . S
C1885 C1883 1.419 . S
C1885 C1886 1.362 . S
C1886 H1878 0.930 . S
C1886 C1885 1.362 . S
C1886 C1889 1.409 . S
C1887 H1879 0.930 . S
C1887 C1888 1.355 . S
C1887 C1889 1.415 . S
C1888 C1887 1.355 . S
C1888 C1890 1.419 . S
C1889 C1884 1.425 . S
C1889 C1886 1.409 . S
C1889 C1887 1.415 . S
C1890 H1880 0.930 . S
C1890 C1888 1.419 . S
C1890 C1891 1.362 . S
C1891 H1881 0.930 . S
C1891 C1884 1.409 . S
C1891 C1890 1.362 . S
H1892 C1898 0.930 . S
H1893 C1901 0.930 . S
H1894 C1902 0.930 . S
H1895 C1903 0.930 . S
H1896 C1906 0.930 . S
H1897 C1907 0.930 . S
C1898 H1892 0.930 . S
C1898 C1899 1.357 . S
C1898 C1900 1.415 . S
C1899 C1898 1.357 . S
C1899 C1901 1.414 1_565 S
C1900 C1898 1.415 . S
C1900 C1905 1.425 1_565 S
C1900 C1907 1.409 . S
C1901 H1893 0.930 . S
C1901 C1899 1.414 1_545 S
C1901 C1902 1.362 . S
C1902 H1894 0.930 . S
C1902 C1901 1.362 . S
C1902 C1905 1.409 . S
C1903 H1895 0.930 . S
C1903 C1904 1.355 1_545 S
C1903 C1905 1.415 . S
C1904 C1903 1.355 1_565 S
C1904 C1906 1.419 . S
C1905 C1900 1.425 1_545 S
C1905 C1902 1.409 . S
C1905 C1903 1.415 . S
C1906 H1896 0.930 . S
C1906 C1904 1.419 . S
C1906 C1907 1.362 . S
C1907 H1897 0.930 . S
C1907 C1900 1.409 . S
C1907 C1906 1.362 . S
H1908 C1914 0.930 . S
H1909 C1917 0.930 . S
H1910 C1918 0.930 . S
H1911 C1919 0.930 . S
H1912 C1922 0.930 . S
H1913 C1923 0.930 . S
C1914 H1908 0.930 . S
C1914 C1915 1.355 1_565 S
C1914 C1916 1.436 . S
C1915 C1914 1.355 1_545 S
C1915 C1917 1.419 . S
C1916 C1914 1.436 . S
C1916 C1921 1.397 1_565 S
C1916 C1923 1.416 . S
C1917 H1909 0.930 . S
C1917 C1915 1.419 . S
C1917 C1918 1.362 . S
C1918 H1910 0.930 . S
C1918 C1917 1.362 . S
C1918 C1921 1.409 . S
C1919 H1911 0.930 . S
C1919 C1920 1.355 . S
C1919 C1921 1.415 . S
C1920 C1919 1.355 . S
C1920 C1922 1.419 1_545 S
C1921 C1916 1.397 1_545 S
C1921 C1918 1.409 . S
C1921 C1919 1.415 . S
C1922 H1912 0.930 . S
C1922 C1920 1.419 1_565 S
C1922 C1923 1.362 . S
C1923 H1913 0.930 . S
C1923 C1916 1.416 . S
C1923 C1922 1.362 . S
H1924 C1930 0.930 . S
H1925 C1933 0.930 . S
H1926 C1934 0.930 . S
H1927 C1935 0.930 . S
H1928 C1938 0.930 . S
H1929 C1939 0.930 . S
C1930 H1924 0.930 . S
C1930 C1931 1.355 1_455 S
C1930 C1932 1.419 1_455 S
C1931 C1930 1.355 1_655 S
C1931 C1933 1.419 . S
C1932 C1930 1.419 1_655 S
C1932 C1937 1.424 . S
C1932 C1939 1.407 1_655 S
C1933 H1925 0.930 . S
C1933 C1931 1.419 . S
C1933 C1934 1.362 . S
C1934 H1926 0.930 . S
C1934 C1933 1.362 . S
C1934 C1937 1.409 . S
C1935 H1927 0.930 . S
C1935 C1936 1.355 . S
C1935 C1937 1.415 . S
C1936 C1935 1.355 . S
C1936 C1938 1.419 1_655 S
C1937 C1932 1.424 . S
C1937 C1934 1.409 . S
C1937 C1935 1.415 . S
C1938 H1928 0.930 . S
C1938 C1936 1.419 1_455 S
C1938 C1939 1.362 . S
C1939 H1929 0.930 . S
C1939 C1932 1.407 1_455 S
C1939 C1938 1.362 . S
H1940 C1946 0.930 . S
H1941 C1949 0.930 . S
H1942 C1950 0.930 . S
H1943 C1951 0.930 . S
H1944 C1954 0.930 . S
H1945 C1955 0.930 . S
C1946 H1940 0.930 . S
C1946 C1947 1.355 . S
C1946 C1948 1.415 . S
C1947 C1946 1.355 . S
C1947 C1949 1.419 . S
C1948 C1946 1.415 . S
C1948 C1953 1.425 . S
C1948 C1955 1.409 . S
C1949 H1941 0.930 . S
C1949 C1947 1.419 . S
C1949 C1950 1.362 . S
C1950 H1942 0.930 . S
C1950 C1949 1.362 . S
C1950 C1953 1.409 . S
C1951 H1943 0.930 . S
C1951 C1952 1.355 . S
C1951 C1953 1.415 . S
C1952 C1951 1.355 . S
C1952 C1954 1.419 . S
C1953 C1948 1.425 . S
C1953 C1950 1.409 . S
C1953 C1951 1.415 . S
C1954 H1944 0.930 . S
C1954 C1952 1.419 . S
C1954 C1955 1.362 . S
C1955 H1945 0.930 . S
C1955 C1948 1.409 . S
C1955 C1954 1.362 . S
H1956 C1962 0.930 . S
H1957 C1965 0.930 . S
H1958 C1966 0.930 . S
H1959 C1967 0.930 . S
H1960 C1970 0.930 . S
H1961 C1971 0.930 . S
C1962 H1956 0.930 . S
C1962 C1963 1.355 . S
C1962 C1964 1.415 . S
C1963 C1962 1.355 . S
C1963 C1965 1.419 . S
C1964 C1962 1.415 . S
C1964 C1969 1.425 . S
C1964 C1971 1.409 . S
C1965 H1957 0.930 . S
C1965 C1963 1.419 . S
C1965 C1966 1.362 . S
C1966 H1958 0.930 . S
C1966 C1965 1.362 . S
C1966 C1969 1.409 . S
C1967 H1959 0.930 . S
C1967 C1968 1.355 . S
C1967 C1969 1.415 . S
C1968 C1967 1.355 . S
C1968 C1970 1.419 . S
C1969 C1964 1.425 . S
C1969 C1966 1.409 . S
C1969 C1967 1.415 . S
C1970 H1960 0.930 . S
C1970 C1968 1.419 . S
C1970 C1971 1.362 . S
C1971 H1961 0.930 . S
C1971 C1964 1.409 . S
C1971 C1970 1.362 . S
H1972 C1978 0.930 . S
H1973 C1981 0.930 . S
H1974 C1982 0.930 . S
H1975 C1983 0.930 . S
H1976 C1986 0.930 . S
H1977 C1987 0.930 . S
C1978 H1972 0.930 . S
C1978 C1979 1.355 . S
C1978 C1980 1.415 . S
C1979 C1978 1.355 . S
C1979 C1981 1.419 . S
C1980 C1978 1.415 . S
C1980 C1985 1.425 . S
C1980 C1987 1.409 . S
C1981 H1973 0.930 . S
C1981 C1979 1.419 . S
C1981 C1982 1.362 . S
C1982 H1974 0.930 . S
C1982 C1981 1.362 . S
C1982 C1985 1.409 . S
C1983 H1975 0.930 . S
C1983 C1984 1.355 . S
C1983 C1985 1.415 . S
C1984 C1983 1.355 . S
C1984 C1986 1.419 . S
C1985 C1980 1.425 . S
C1985 C1982 1.409 . S
C1985 C1983 1.415 . S
C1986 H1976 0.930 . S
C1986 C1984 1.419 . S
C1986 C1987 1.362 . S
C1987 H1977 0.930 . S
C1987 C1980 1.409 . S
C1987 C1986 1.362 . S
H1988 C1994 0.930 . S
H1989 C1997 0.930 . S
H1990 C1998 0.930 . S
H1991 C1999 0.930 . S
H1992 C2002 0.930 . S
H1993 C2003 0.930 . S
C1994 H1988 0.930 . S
C1994 C1995 1.355 . S
C1994 C1996 1.415 . S
C1995 C1994 1.355 . S
C1995 C1997 1.419 . S
C1996 C1994 1.415 . S
C1996 C2001 1.425 . S
C1996 C2003 1.409 . S
C1997 H1989 0.930 . S
C1997 C1995 1.419 . S
C1997 C1998 1.362 . S
C1998 H1990 0.930 . S
C1998 C1997 1.362 . S
C1998 C2001 1.409 . S
C1999 H1991 0.930 . S
C1999 C2000 1.355 . S
C1999 C2001 1.415 . S
C2000 C1999 1.355 . S
C2000 C2002 1.419 . S
C2001 C1996 1.425 . S
C2001 C1998 1.409 . S
C2001 C1999 1.415 . S
C2002 H1992 0.930 . S
C2002 C2000 1.419 . S
C2002 C2003 1.362 . S
C2003 H1993 0.930 . S
C2003 C1996 1.409 . S
C2003 C2002 1.362 . S
H2004 C2010 0.930 . S
H2005 C2013 0.930 . S
H2006 C2014 0.930 . S
H2007 C2015 0.930 . S
H2008 C2018 0.930 . S
H2009 C2019 0.930 . S
C2010 H2004 0.930 . S
C2010 C2011 1.355 . S
C2010 C2012 1.415 . S
C2011 C2010 1.355 . S
C2011 C2013 1.419 . S
C2012 C2010 1.415 . S
C2012 C2017 1.425 . S
C2012 C2019 1.409 . S
C2013 H2005 0.930 . S
C2013 C2011 1.419 . S
C2013 C2014 1.362 . S
C2014 H2006 0.930 . S
C2014 C2013 1.362 . S
C2014 C2017 1.409 . S
C2015 H2007 0.930 . S
C2015 C2016 1.355 . S
C2015 C2017 1.415 . S
C2016 C2015 1.355 . S
C2016 C2018 1.419 . S
C2017 C2012 1.425 . S
C2017 C2014 1.409 . S
C2017 C2015 1.415 . S
C2018 H2008 0.930 . S
C2018 C2016 1.419 . S
C2018 C2019 1.362 . S
C2019 H2009 0.930 . S
C2019 C2012 1.409 . S
C2019 C2018 1.362 . S
H2020 C2026 0.930 . S
H2021 C2029 0.930 . S
H2022 C2030 0.930 . S
H2023 C2031 0.930 . S
H2024 C2034 0.930 . S
H2025 C2035 0.930 . S
C2026 H2020 0.930 . S
C2026 C2027 1.355 . S
C2026 C2028 1.415 . S
C2027 C2026 1.355 . S
C2027 C2029 1.419 . S
C2028 C2026 1.415 . S
C2028 C2033 1.425 . S
C2028 C2035 1.409 . S
C2029 H2021 0.930 . S
C2029 C2027 1.419 . S
C2029 C2030 1.362 . S
C2030 H2022 0.930 . S
C2030 C2029 1.362 . S
C2030 C2033 1.409 . S
C2031 H2023 0.930 . S
C2031 C2032 1.355 . S
C2031 C2033 1.415 . S
C2032 C2031 1.355 . S
C2032 C2034 1.419 . S
C2033 C2028 1.425 . S
C2033 C2030 1.409 . S
C2033 C2031 1.415 . S
C2034 H2024 0.930 . S
C2034 C2032 1.419 . S
C2034 C2035 1.362 . S
C2035 H2025 0.930 . S
C2035 C2028 1.409 . S
C2035 C2034 1.362 . S
H2036 C2042 0.930 . S
H2037 C2045 0.930 . S
H2038 C2046 0.930 . S
H2039 C2047 0.930 . S
H2040 C2050 0.930 . S
H2041 C2051 0.930 . S
C2042 H2036 0.930 . S
C2042 C2043 1.355 . S
C2042 C2044 1.415 . S
C2043 C2042 1.355 . S
C2043 C2045 1.419 . S
C2044 C2042 1.415 . S
C2044 C2049 1.425 . S
C2044 C2051 1.409 . S
C2045 H2037 0.930 . S
C2045 C2043 1.419 . S
C2045 C2046 1.362 . S
C2046 H2038 0.930 . S
C2046 C2045 1.362 . S
C2046 C2049 1.409 . S
C2047 H2039 0.930 . S
C2047 C2048 1.355 . S
C2047 C2049 1.415 . S
C2048 C2047 1.355 . S
C2048 C2050 1.419 . S
C2049 C2044 1.425 . S
C2049 C2046 1.409 . S
C2049 C2047 1.415 . S
C2050 H2040 0.930 . S
C2050 C2048 1.419 . S
C2050 C2051 1.362 . S
C2051 H2041 0.930 . S
C2051 C2044 1.409 . S
C2051 C2050 1.362 . S
H2052 C2058 0.930 . S
H2053 C2061 0.930 . S
H2054 C2062 0.930 . S
H2055 C2063 0.930 . S
H2056 C2066 0.930 . S
H2057 C2067 0.930 . S
C2058 H2052 0.930 . S
C2058 C2059 1.355 . S
C2058 C2060 1.415 . S
C2059 C2058 1.355 . S
C2059 C2061 1.419 . S
C2060 C2058 1.415 . S
C2060 C2065 1.425 . S
C2060 C2067 1.409 . S
C2061 H2053 0.930 . S
C2061 C2059 1.419 . S
C2061 C2062 1.362 . S
C2062 H2054 0.930 . S
C2062 C2061 1.362 . S
C2062 C2065 1.409 . S
C2063 H2055 0.930 . S
C2063 C2064 1.355 . S
C2063 C2065 1.415 . S
C2064 C2063 1.355 . S
C2064 C2066 1.419 . S
C2065 C2060 1.425 . S
C2065 C2062 1.409 . S
C2065 C2063 1.415 . S
C2066 H2056 0.930 . S
C2066 C2064 1.419 . S
C2066 C2067 1.362 . S
C2067 H2057 0.930 . S
C2067 C2060 1.409 . S
C2067 C2066 1.362 . S
H2068 C2074 0.930 . S
H2069 C2077 0.930 . S
H2070 C2078 0.930 . S
H2071 C2079 0.930 . S
H2072 C2082 0.930 . S
H2073 C2083 0.930 . S
C2074 H2068 0.930 . S
C2074 C2075 1.355 . S
C2074 C2076 1.415 . S
C2075 C2074 1.355 . S
C2075 C2077 1.419 . S
C2076 C2074 1.415 . S
C2076 C2081 1.425 . S
C2076 C2083 1.409 . S
C2077 H2069 0.930 . S
C2077 C2075 1.419 . S
C2077 C2078 1.362 . S
C2078 H2070 0.930 . S
C2078 C2077 1.362 . S
C2078 C2081 1.409 . S
C2079 H2071 0.930 . S
C2079 C2080 1.355 . S
C2079 C2081 1.415 . S
C2080 C2079 1.355 . S
C2080 C2082 1.419 . S
C2081 C2076 1.425 . S
C2081 C2078 1.409 . S
C2081 C2079 1.415 . S
C2082 H2072 0.930 . S
C2082 C2080 1.419 . S
C2082 C2083 1.362 . S
C2083 H2073 0.930 . S
C2083 C2076 1.409 . S
C2083 C2082 1.362 . S
H2084 C2090 0.930 . S
H2085 C2093 0.930 . S
H2086 C2094 0.930 . S
H2087 C2095 0.930 . S
H2088 C2098 0.930 . S
H2089 C2099 0.930 . S
C2090 H2084 0.930 . S
C2090 C2091 1.355 . S
C2090 C2092 1.415 . S
C2091 C2090 1.355 . S
C2091 C2093 1.419 . S
C2092 C2090 1.415 . S
C2092 C2097 1.425 . S
C2092 C2099 1.409 . S
C2093 H2085 0.930 . S
C2093 C2091 1.419 . S
C2093 C2094 1.362 . S
C2094 H2086 0.930 . S
C2094 C2093 1.362 . S
C2094 C2097 1.409 . S
C2095 H2087 0.930 . S
C2095 C2096 1.355 . S
C2095 C2097 1.415 . S
C2096 C2095 1.355 . S
C2096 C2098 1.419 . S
C2097 C2092 1.425 . S
C2097 C2094 1.409 . S
C2097 C2095 1.415 . S
C2098 H2088 0.930 . S
C2098 C2096 1.419 . S
C2098 C2099 1.362 . S
C2099 H2089 0.930 . S
C2099 C2092 1.409 . S
C2099 C2098 1.362 . S
H2100 C2106 0.930 . S
H2101 C2109 0.930 . S
H2102 C2110 0.930 . S
H2103 C2111 0.930 . S
H2104 C2114 0.930 . S
H2105 C2115 0.930 . S
C2106 H2100 0.930 . S
C2106 C2107 1.355 . S
C2106 C2108 1.415 . S
C2107 C2106 1.355 . S
C2107 C2109 1.419 . S
C2108 C2106 1.415 . S
C2108 C2113 1.425 . S
C2108 C2115 1.409 . S
C2109 H2101 0.930 . S
C2109 C2107 1.419 . S
C2109 C2110 1.362 . S
C2110 H2102 0.930 . S
C2110 C2109 1.362 . S
C2110 C2113 1.409 . S
C2111 H2103 0.930 . S
C2111 C2112 1.355 . S
C2111 C2113 1.415 . S
C2112 C2111 1.355 . S
C2112 C2114 1.419 . S
C2113 C2108 1.425 . S
C2113 C2110 1.409 . S
C2113 C2111 1.415 . S
C2114 H2104 0.930 . S
C2114 C2112 1.419 . S
C2114 C2115 1.362 . S
C2115 H2105 0.930 . S
C2115 C2108 1.409 . S
C2115 C2114 1.362 . S
H2116 C2122 0.930 . S
H2117 C2125 0.930 . S
H2118 C2126 0.930 . S
H2119 C2127 0.930 . S
H2120 C2130 0.930 . S
H2121 C2131 0.930 . S
C2122 H2116 0.930 . S
C2122 C2123 1.355 . S
C2122 C2124 1.415 . S
C2123 C2122 1.355 . S
C2123 C2125 1.419 . S
C2124 C2122 1.415 . S
C2124 C2129 1.425 . S
C2124 C2131 1.409 . S
C2125 H2117 0.930 . S
C2125 C2123 1.419 . S
C2125 C2126 1.362 . S
C2126 H2118 0.930 . S
C2126 C2125 1.362 . S
C2126 C2129 1.409 . S
C2127 H2119 0.930 . S
C2127 C2128 1.355 . S
C2127 C2129 1.415 . S
C2128 C2127 1.355 . S
C2128 C2130 1.419 . S
C2129 C2124 1.425 . S
C2129 C2126 1.409 . S
C2129 C2127 1.415 . S
C2130 H2120 0.930 . S
C2130 C2128 1.419 . S
C2130 C2131 1.362 . S
C2131 H2121 0.930 . S
C2131 C2124 1.409 . S
C2131 C2130 1.362 . S
H2132 C2138 0.930 . S
H2133 C2141 0.930 . S
H2134 C2142 0.930 . S
H2135 C2143 0.930 . S
H2136 C2146 0.930 . S
H2137 C2147 0.930 . S
C2138 H2132 0.930 . S
C2138 C2139 1.355 . S
C2138 C2140 1.415 . S
C2139 C2138 1.355 . S
C2139 C2141 1.419 . S
C2140 C2138 1.415 . S
C2140 C2145 1.425 . S
C2140 C2147 1.409 . S
C2141 H2133 0.930 . S
C2141 C2139 1.419 . S
C2141 C2142 1.362 . S
C2142 H2134 0.930 . S
C2142 C2141 1.362 . S
C2142 C2145 1.409 . S
C2143 H2135 0.930 . S
C2143 C2144 1.355 . S
C2143 C2145 1.415 . S
C2144 C2143 1.355 . S
C2144 C2146 1.419 . S
C2145 C2140 1.425 . S
C2145 C2142 1.409 . S
C2145 C2143 1.415 . S
C2146 H2136 0.930 . S
C2146 C2144 1.419 . S
C2146 C2147 1.362 . S
C2147 H2137 0.930 . S
C2147 C2140 1.409 . S
C2147 C2146 1.362 . S
H2148 C2154 0.930 . S
H2149 C2157 0.930 . S
H2150 C2158 0.930 . S
H2151 C2159 0.930 . S
H2152 C2162 0.930 . S
H2153 C2163 0.930 . S
C2154 H2148 0.930 . S
C2154 C2155 1.355 . S
C2154 C2156 1.415 . S
C2155 C2154 1.355 . S
C2155 C2157 1.419 . S
C2156 C2154 1.415 . S
C2156 C2161 1.425 . S
C2156 C2163 1.409 . S
C2157 H2149 0.930 . S
C2157 C2155 1.419 . S
C2157 C2158 1.362 . S
C2158 H2150 0.930 . S
C2158 C2157 1.362 . S
C2158 C2161 1.409 . S
C2159 H2151 0.930 . S
C2159 C2160 1.355 . S
C2159 C2161 1.415 . S
C2160 C2159 1.355 . S
C2160 C2162 1.419 . S
C2161 C2156 1.425 . S
C2161 C2158 1.409 . S
C2161 C2159 1.415 . S
C2162 H2152 0.930 . S
C2162 C2160 1.419 . S
C2162 C2163 1.362 . S
C2163 H2153 0.930 . S
C2163 C2156 1.409 . S
C2163 C2162 1.362 . S
H2164 C2170 0.930 . S
H2165 C2173 0.930 . S
H2166 C2174 0.930 . S
H2167 C2175 0.930 . S
H2168 C2178 0.930 . S
H2169 C2179 0.930 . S
C2170 H2164 0.930 . S
C2170 C2171 1.355 . S
C2170 C2172 1.415 . S
C2171 C2170 1.355 . S
C2171 C2173 1.419 . S
C2172 C2170 1.415 . S
C2172 C2177 1.425 . S
C2172 C2179 1.409 . S
C2173 H2165 0.930 . S
C2173 C2171 1.419 . S
C2173 C2174 1.362 . S
C2174 H2166 0.930 . S
C2174 C2173 1.362 . S
C2174 C2177 1.409 . S
C2175 H2167 0.930 . S
C2175 C2176 1.355 . S
C2175 C2177 1.415 . S
C2176 C2175 1.355 . S
C2176 C2178 1.419 . S
C2177 C2172 1.425 . S
C2177 C2174 1.409 . S
C2177 C2175 1.415 . S
C2178 H2168 0.930 . S
C2178 C2176 1.419 . S
C2178 C2179 1.362 . S
C2179 H2169 0.930 . S
C2179 C2172 1.409 . S
C2179 C2178 1.362 . S
H2180 C2186 0.930 . S
H2181 C2189 0.930 . S
H2182 C2190 0.930 . S
H2183 C2191 0.930 . S
H2184 C2194 0.930 . S
H2185 C2195 0.930 . S
C2186 H2180 0.930 . S
C2186 C2187 1.355 . S
C2186 C2188 1.415 . S
C2187 C2186 1.355 . S
C2187 C2189 1.419 . S
C2188 C2186 1.415 . S
C2188 C2193 1.425 . S
C2188 C2195 1.409 . S
C2189 H2181 0.930 . S
C2189 C2187 1.419 . S
C2189 C2190 1.362 . S
C2190 H2182 0.930 . S
C2190 C2189 1.362 . S
C2190 C2193 1.409 . S
C2191 H2183 0.930 . S
C2191 C2192 1.355 . S
C2191 C2193 1.415 . S
C2192 C2191 1.355 . S
C2192 C2194 1.419 . S
C2193 C2188 1.425 . S
C2193 C2190 1.409 . S
C2193 C2191 1.415 . S
C2194 H2184 0.930 . S
C2194 C2192 1.419 . S
C2194 C2195 1.362 . S
C2195 H2185 0.930 . S
C2195 C2188 1.409 . S
C2195 C2194 1.362 . S
H2196 C2202 0.930 . S
H2197 C2205 0.930 . S
H2198 C2206 0.930 . S
H2199 C2207 0.930 . S
H2200 C2210 0.930 . S
H2201 C2211 0.930 . S
C2202 H2196 0.930 . S
C2202 C2203 1.355 . S
C2202 C2204 1.415 . S
C2203 C2202 1.355 . S
C2203 C2205 1.419 . S
C2204 C2202 1.415 . S
C2204 C2209 1.425 . S
C2204 C2211 1.409 . S
C2205 H2197 0.930 . S
C2205 C2203 1.419 . S
C2205 C2206 1.362 . S
C2206 H2198 0.930 . S
C2206 C2205 1.362 . S
C2206 C2209 1.409 . S
C2207 H2199 0.930 . S
C2207 C2208 1.355 . S
C2207 C2209 1.415 . S
C2208 C2207 1.355 . S
C2208 C2210 1.419 . S
C2209 C2204 1.425 . S
C2209 C2206 1.409 . S
C2209 C2207 1.415 . S
C2210 H2200 0.930 . S
C2210 C2208 1.419 . S
C2210 C2211 1.362 . S
C2211 H2201 0.930 . S
C2211 C2204 1.409 . S
C2211 C2210 1.362 . S
H2212 C2218 0.930 . S
H2213 C2221 0.930 . S
H2214 C2222 0.930 . S
H2215 C2223 0.930 . S
H2216 C2226 0.930 . S
H2217 C2227 0.930 . S
C2218 H2212 0.930 . S
C2218 C2219 1.355 . S
C2218 C2220 1.415 . S
C2219 C2218 1.355 . S
C2219 C2221 1.419 . S
C2220 C2218 1.415 . S
C2220 C2225 1.425 . S
C2220 C2227 1.409 . S
C2221 H2213 0.930 . S
C2221 C2219 1.419 . S
C2221 C2222 1.362 . S
C2222 H2214 0.930 . S
C2222 C2221 1.362 . S
C2222 C2225 1.409 . S
C2223 H2215 0.930 . S
C2223 C2224 1.355 . S
C2223 C2225 1.415 . S
C2224 C2223 1.355 . S
C2224 C2226 1.419 . S
C2225 C2220 1.425 . S
C2225 C2222 1.409 . S
C2225 C2223 1.415 . S
C2226 H2216 0.930 . S
C2226 C2224 1.419 . S
C2226 C2227 1.362 . S
C2227 H2217 0.930 . S
C2227 C2220 1.409 . S
C2227 C2226 1.362 . S
H2228 C2234 0.930 . S
H2229 C2237 0.930 . S
H2230 C2238 0.930 . S
H2231 C2239 0.930 . S
H2232 C2242 0.930 . S
H2233 C2243 0.930 . S
C2234 H2228 0.930 . S
C2234 C2235 1.355 . S
C2234 C2236 1.415 . S
C2235 C2234 1.355 . S
C2235 C2237 1.419 . S
C2236 C2234 1.415 . S
C2236 C2241 1.425 . S
C2236 C2243 1.409 . S
C2237 H2229 0.930 . S
C2237 C2235 1.419 . S
C2237 C2238 1.362 . S
C2238 H2230 0.930 . S
C2238 C2237 1.362 . S
C2238 C2241 1.409 . S
C2239 H2231 0.930 . S
C2239 C2240 1.355 . S
C2239 C2241 1.415 . S
C2240 C2239 1.355 . S
C2240 C2242 1.419 . S
C2241 C2236 1.425 . S
C2241 C2238 1.409 . S
C2241 C2239 1.415 . S
C2242 H2232 0.930 . S
C2242 C2240 1.419 . S
C2242 C2243 1.362 . S
C2243 H2233 0.930 . S
C2243 C2236 1.409 . S
C2243 C2242 1.362 . S
H2244 C2250 0.930 . S
H2245 C2253 0.930 . S
H2246 C2254 0.930 . S
H2247 C2255 0.930 . S
H2248 C2258 0.930 . S
H2249 C2259 0.930 . S
C2250 H2244 0.930 . S
C2250 C2251 1.355 . S
C2250 C2252 1.415 . S
C2251 C2250 1.355 . S
C2251 C2253 1.419 . S
C2252 C2250 1.415 . S
C2252 C2257 1.425 . S
C2252 C2259 1.409 . S
C2253 H2245 0.930 . S
C2253 C2251 1.419 . S
C2253 C2254 1.362 . S
C2254 H2246 0.930 . S
C2254 C2253 1.362 . S
C2254 C2257 1.409 . S
C2255 H2247 0.930 . S
C2255 C2256 1.355 . S
C2255 C2257 1.415 . S
C2256 C2255 1.355 . S
C2256 C2258 1.419 . S
C2257 C2252 1.425 . S
C2257 C2254 1.409 . S
C2257 C2255 1.415 . S
C2258 H2248 0.930 . S
C2258 C2256 1.419 . S
C2258 C2259 1.362 . S
C2259 H2249 0.930 . S
C2259 C2252 1.409 . S
C2259 C2258 1.362 . S
H2260 C2266 0.930 . S
H2261 C2269 0.930 . S
H2262 C2270 0.930 . S
H2263 C2271 0.930 . S
H2264 C2274 0.930 . S
H2265 C2275 0.930 . S
C2266 H2260 0.930 . S
C2266 C2267 1.355 . S
C2266 C2268 1.415 . S
C2267 C2266 1.355 . S
C2267 C2269 1.419 . S
C2268 C2266 1.415 . S
C2268 C2273 1.425 . S
C2268 C2275 1.409 . S
C2269 H2261 0.930 . S
C2269 C2267 1.419 . S
C2269 C2270 1.362 . S
C2270 H2262 0.930 . S
C2270 C2269 1.362 . S
C2270 C2273 1.409 . S
C2271 H2263 0.930 . S
C2271 C2272 1.355 . S
C2271 C2273 1.415 . S
C2272 C2271 1.355 . S
C2272 C2274 1.419 . S
C2273 C2268 1.425 . S
C2273 C2270 1.409 . S
C2273 C2271 1.415 . S
C2274 H2264 0.930 . S
C2274 C2272 1.419 . S
C2274 C2275 1.362 . S
C2275 H2265 0.930 . S
C2275 C2268 1.409 . S
C2275 C2274 1.362 . S
H2276 C2282 0.930 . S
H2277 C2285 0.930 . S
H2278 C2286 0.930 . S
H2279 C2287 0.930 . S
H2280 C2290 0.930 . S
H2281 C2291 0.930 . S
C2282 H2276 0.930 . S
C2282 C2283 1.355 . S
C2282 C2284 1.415 . S
C2283 C2282 1.355 . S
C2283 C2285 1.419 . S
C2284 C2282 1.415 . S
C2284 C2289 1.425 . S
C2284 C2291 1.409 . S
C2285 H2277 0.930 . S
C2285 C2283 1.419 . S
C2285 C2286 1.362 . S
C2286 H2278 0.930 . S
C2286 C2285 1.362 . S
C2286 C2289 1.409 . S
C2287 H2279 0.930 . S
C2287 C2288 1.355 . S
C2287 C2289 1.415 . S
C2288 C2287 1.355 . S
C2288 C2290 1.419 . S
C2289 C2284 1.425 . S
C2289 C2286 1.409 . S
C2289 C2287 1.415 . S
C2290 H2280 0.930 . S
C2290 C2288 1.419 . S
C2290 C2291 1.362 . S
C2291 H2281 0.930 . S
C2291 C2284 1.409 . S
C2291 C2290 1.362 . S
H2292 C2298 0.930 . S
H2293 C2301 0.930 . S
H2294 C2302 0.930 . S
H2295 C2303 0.930 . S
H2296 C2306 0.930 . S
H2297 C2307 0.930 . S
C2298 H2292 0.930 . S
C2298 C2299 1.355 . S
C2298 C2300 1.415 . S
C2299 C2298 1.355 . S
C2299 C2301 1.419 . S
C2300 C2298 1.415 . S
C2300 C2305 1.425 . S
C2300 C2307 1.409 . S
C2301 H2293 0.930 . S
C2301 C2299 1.419 . S
C2301 C2302 1.362 . S
C2302 H2294 0.930 . S
C2302 C2301 1.362 . S
C2302 C2305 1.409 . S
C2303 H2295 0.930 . S
C2303 C2304 1.355 . S
C2303 C2305 1.415 . S
C2304 C2303 1.355 . S
C2304 C2306 1.419 . S
C2305 C2300 1.425 . S
C2305 C2302 1.409 . S
C2305 C2303 1.415 . S
C2306 H2296 0.930 . S
C2306 C2304 1.419 . S
C2306 C2307 1.362 . S
C2307 H2297 0.930 . S
C2307 C2300 1.409 . S
C2307 C2306 1.362 . S
H2308 C2314 0.930 . S
H2309 C2317 0.930 . S
H2310 C2318 0.930 . S
H2311 C2319 0.930 . S
H2312 C2322 0.930 . S
H2313 C2323 0.930 . S
C2314 H2308 0.930 . S
C2314 C2315 1.355 . S
C2314 C2316 1.415 . S
C2315 C2314 1.355 . S
C2315 C2317 1.419 . S
C2316 C2314 1.415 . S
C2316 C2321 1.425 . S
C2316 C2323 1.409 . S
C2317 H2309 0.930 . S
C2317 C2315 1.419 . S
C2317 C2318 1.362 . S
C2318 H2310 0.930 . S
C2318 C2317 1.362 . S
C2318 C2321 1.409 . S
C2319 H2311 0.930 . S
C2319 C2320 1.355 . S
C2319 C2321 1.415 . S
C2320 C2319 1.355 . S
C2320 C2322 1.419 . S
C2321 C2316 1.425 . S
C2321 C2318 1.409 . S
C2321 C2319 1.415 . S
C2322 H2312 0.930 . S
C2322 C2320 1.419 . S
C2322 C2323 1.362 . S
C2323 H2313 0.930 . S
C2323 C2316 1.409 . S
C2323 C2322 1.362 . S
H2324 C2330 0.930 . S
H2325 C2333 0.930 . S
H2326 C2334 0.930 . S
H2327 C2335 0.930 . S
H2328 C2338 0.930 . S
H2329 C2339 0.930 . S
C2330 H2324 0.930 . S
C2330 C2331 1.355 . S
C2330 C2332 1.415 . S
C2331 C2330 1.355 . S
C2331 C2333 1.419 . S
C2332 C2330 1.415 . S
C2332 C2337 1.425 . S
C2332 C2339 1.409 . S
C2333 H2325 0.930 . S
C2333 C2331 1.419 . S
C2333 C2334 1.362 . S
C2334 H2326 0.930 . S
C2334 C2333 1.362 . S
C2334 C2337 1.409 . S
C2335 H2327 0.930 . S
C2335 C2336 1.355 . S
C2335 C2337 1.415 . S
C2336 C2335 1.355 . S
C2336 C2338 1.419 . S
C2337 C2332 1.425 . S
C2337 C2334 1.409 . S
C2337 C2335 1.415 . S
C2338 H2328 0.930 . S
C2338 C2336 1.419 . S
C2338 C2339 1.362 . S
C2339 H2329 0.930 . S
C2339 C2332 1.409 . S
C2339 C2338 1.362 . S
H2340 C2346 0.930 . S
H2341 C2349 0.930 . S
H2342 C2350 0.930 . S
H2343 C2351 0.930 . S
H2344 C2354 0.930 . S
H2345 C2355 0.930 . S
C2346 H2340 0.930 . S
C2346 C2347 1.355 . S
C2346 C2348 1.415 . S
C2347 C2346 1.355 . S
C2347 C2349 1.419 . S
C2348 C2346 1.415 . S
C2348 C2353 1.425 . S
C2348 C2355 1.409 . S
C2349 H2341 0.930 . S
C2349 C2347 1.419 . S
C2349 C2350 1.362 . S
C2350 H2342 0.930 . S
C2350 C2349 1.362 . S
C2350 C2353 1.409 . S
C2351 H2343 0.930 . S
C2351 C2352 1.355 . S
C2351 C2353 1.415 . S
C2352 C2351 1.355 . S
C2352 C2354 1.419 . S
C2353 C2348 1.425 . S
C2353 C2350 1.409 . S
C2353 C2351 1.415 . S
C2354 H2344 0.930 . S
C2354 C2352 1.419 . S
C2354 C2355 1.362 . S
C2355 H2345 0.930 . S
C2355 C2348 1.409 . S
C2355 C2354 1.362 . S
H2356 C2362 0.930 . S
H2357 C2365 0.930 . S
H2358 C2366 0.930 . S
H2359 C2367 0.930 . S
H2360 C2370 0.930 . S
H2361 C2371 0.930 . S
C2362 H2356 0.930 . S
C2362 C2363 1.355 . S
C2362 C2364 1.415 . S
C2363 C2362 1.355 . S
C2363 C2365 1.419 . S
C2364 C2362 1.415 . S
C2364 C2369 1.425 . S
C2364 C2371 1.409 . S
C2365 H2357 0.930 . S
C2365 C2363 1.419 . S
C2365 C2366 1.362 . S
C2366 H2358 0.930 . S
C2366 C2365 1.362 . S
C2366 C2369 1.409 . S
C2367 H2359 0.930 . S
C2367 C2368 1.355 . S
C2367 C2369 1.415 . S
C2368 C2367 1.355 . S
C2368 C2370 1.419 . S
C2369 C2364 1.425 . S
C2369 C2366 1.409 . S
C2369 C2367 1.415 . S
C2370 H2360 0.930 . S
C2370 C2368 1.419 . S
C2370 C2371 1.362 . S
C2371 H2361 0.930 . S
C2371 C2364 1.409 . S
C2371 C2370 1.362 . S
H2372 C2378 0.930 . S
H2373 C2381 0.930 . S
H2374 C2382 0.930 . S
H2375 C2383 0.930 . S
H2376 C2386 0.930 . S
H2377 C2387 0.930 . S
C2378 H2372 0.930 . S
C2378 C2379 1.355 . S
C2378 C2380 1.415 . S
C2379 C2378 1.355 . S
C2379 C2381 1.419 . S
C2380 C2378 1.415 . S
C2380 C2385 1.425 . S
C2380 C2387 1.409 . S
C2381 H2373 0.930 . S
C2381 C2379 1.419 . S
C2381 C2382 1.362 . S
C2382 H2374 0.930 . S
C2382 C2381 1.362 . S
C2382 C2385 1.409 . S
C2383 H2375 0.930 . S
C2383 C2384 1.355 . S
C2383 C2385 1.415 . S
C2384 C2383 1.355 . S
C2384 C2386 1.419 . S
C2385 C2380 1.425 . S
C2385 C2382 1.409 . S
C2385 C2383 1.415 . S
C2386 H2376 0.930 . S
C2386 C2384 1.419 . S
C2386 C2387 1.362 . S
C2387 H2377 0.930 . S
C2387 C2380 1.409 . S
C2387 C2386 1.362 . S
H2388 C2394 0.930 . S
H2389 C2397 0.930 . S
H2390 C2398 0.930 1_554 S
H2391 C2399 0.930 . S
H2392 C2402 0.930 . S
H2393 C2403 0.930 . S
C2394 H2388 0.930 . S
C2394 C2395 1.355 . S
C2394 C2396 1.415 . S
C2395 C2394 1.355 . S
C2395 C2397 1.419 1_556 S
C2396 C2394 1.415 . S
C2396 C2401 1.425 . S
C2396 C2403 1.409 . S
C2397 H2389 0.930 . S
C2397 C2395 1.419 1_554 S
C2397 C2398 1.362 1_554 S
C2398 H2390 0.930 1_556 S
C2398 C2397 1.362 1_556 S
C2398 C2401 1.409 . S
C2399 H2391 0.930 . S
C2399 C2400 1.355 . S
C2399 C2401 1.415 . S
C2400 C2399 1.355 . S
C2400 C2402 1.419 . S
C2401 C2396 1.425 . S
C2401 C2398 1.409 . S
C2401 C2399 1.415 . S
C2402 H2392 0.930 . S
C2402 C2400 1.419 . S
C2402 C2403 1.362 . S
C2403 H2393 0.930 . S
C2403 C2396 1.409 . S
C2403 C2402 1.362 . S
H2404 C2410 0.930 1_554 S
H2405 C2413 0.930 . S
H2406 C2414 0.930 . S
H2407 C2415 0.930 . S
H2408 C2418 0.930 . S
H2409 C2419 0.930 1_554 S
C2410 H2404 0.930 1_556 S
C2410 C2411 1.355 . S
C2410 C2412 1.415 . S
C2411 C2410 1.355 . S
C2411 C2413 1.419 . S
C2412 C2410 1.415 . S
C2412 C2417 1.425 . S
C2412 C2419 1.409 . S
C2413 H2405 0.930 . S
C2413 C2411 1.419 . S
C2413 C2414 1.362 . S
C2414 H2406 0.930 . S
C2414 C2413 1.362 . S
C2414 C2417 1.409 . S
C2415 H2407 0.930 . S
C2415 C2416 1.355 . S
C2415 C2417 1.415 . S
C2416 C2415 1.355 . S
C2416 C2418 1.419 . S
C2417 C2412 1.425 . S
C2417 C2414 1.409 . S
C2417 C2415 1.415 . S
C2418 H2408 0.930 . S
C2418 C2416 1.419 . S
C2418 C2419 1.362 . S
C2419 H2409 0.930 1_556 S
C2419 C2412 1.409 . S
C2419 C2418 1.362 . S
H2420 C2426 0.930 . S
H2421 C2429 0.930 1_554 S
H2422 C2430 0.930 . S
H2423 C2431 0.930 . S
H2424 C2434 0.930 . S
H2425 C2435 0.930 . S
C2426 H2420 0.930 . S
C2426 C2427 1.355 . S
C2426 C2428 1.415 . S
C2427 C2426 1.355 . S
C2427 C2429 1.419 . S
C2428 C2426 1.415 . S
C2428 C2433 1.425 . S
C2428 C2435 1.409 . S
C2429 H2421 0.930 1_556 S
C2429 C2427 1.419 . S
C2429 C2430 1.362 . S
C2430 H2422 0.930 . S
C2430 C2429 1.362 . S
C2430 C2433 1.409 . S
C2431 H2423 0.930 . S
C2431 C2432 1.355 . S
C2431 C2433 1.415 . S
C2432 C2431 1.355 . S
C2432 C2434 1.419 . S
C2433 C2428 1.425 . S
C2433 C2430 1.409 . S
C2433 C2431 1.415 . S
C2434 H2424 0.930 . S
C2434 C2432 1.419 . S
C2434 C2435 1.362 . S
C2435 H2425 0.930 . S
C2435 C2428 1.409 . S
C2435 C2434 1.362 . S
H2436 C2442 0.930 . S
H2437 C2445 0.930 . S
H2438 C2446 0.930 . S
H2439 C2447 0.930 . S
H2440 C2450 0.930 . S
H2441 C2451 0.930 . S
C2442 H2436 0.930 . S
C2442 C2443 1.355 . S
C2442 C2444 1.415 . S
C2443 C2442 1.355 . S
C2443 C2445 1.419 . S
C2444 C2442 1.415 . S
C2444 C2449 1.425 . S
C2444 C2451 1.409 . S
C2445 H2437 0.930 . S
C2445 C2443 1.419 . S
C2445 C2446 1.362 . S
C2446 H2438 0.930 . S
C2446 C2445 1.362 . S
C2446 C2449 1.409 . S
C2447 H2439 0.930 . S
C2447 C2448 1.355 . S
C2447 C2449 1.415 . S
C2448 C2447 1.355 . S
C2448 C2450 1.419 . S
C2449 C2444 1.425 . S
C2449 C2446 1.409 . S
C2449 C2447 1.415 . S
C2450 H2440 0.930 . S
C2450 C2448 1.419 . S
C2450 C2451 1.362 . S
C2451 H2441 0.930 . S
C2451 C2444 1.409 . S
C2451 C2450 1.362 . S
H2452 C2458 0.930 . S
H2453 C2461 0.930 . S
H2454 C2462 0.930 . S
H2455 C2463 0.930 . S
H2456 C2466 0.930 . S
H2457 C2467 0.930 . S
C2458 H2452 0.930 . S
C2458 C2459 1.355 . S
C2458 C2460 1.415 . S
C2459 C2458 1.355 . S
C2459 C2461 1.419 . S
C2460 C2458 1.415 . S
C2460 C2465 1.425 . S
C2460 C2467 1.409 . S
C2461 H2453 0.930 . S
C2461 C2459 1.419 . S
C2461 C2462 1.362 . S
C2462 H2454 0.930 . S
C2462 C2461 1.362 . S
C2462 C2465 1.409 . S
C2463 H2455 0.930 . S
C2463 C2464 1.355 . S
C2463 C2465 1.415 . S
C2464 C2463 1.355 . S
C2464 C2466 1.419 . S
C2465 C2460 1.425 . S
C2465 C2462 1.409 . S
C2465 C2463 1.415 . S
C2466 H2456 0.930 . S
C2466 C2464 1.419 . S
C2466 C2467 1.362 . S
C2467 H2457 0.930 . S
C2467 C2460 1.409 . S
C2467 C2466 1.362 . S
H2468 C2474 0.930 1_554 S
H2469 C2477 0.930 . S
H2470 C2478 0.930 . S
H2471 C2479 0.930 . S
H2472 C2482 0.930 . S
H2473 C2483 0.930 1_554 S
C2474 H2468 0.930 1_556 S
C2474 C2475 1.355 . S
C2474 C2476 1.415 . S
C2475 C2474 1.355 . S
C2475 C2477 1.419 . S
C2476 C2474 1.415 . S
C2476 C2481 1.425 . S
C2476 C2483 1.409 . S
C2477 H2469 0.930 . S
C2477 C2475 1.419 . S
C2477 C2478 1.362 . S
C2478 H2470 0.930 . S
C2478 C2477 1.362 . S
C2478 C2481 1.409 . S
C2479 H2471 0.930 . S
C2479 C2480 1.355 . S
C2479 C2481 1.415 . S
C2480 C2479 1.355 . S
C2480 C2482 1.419 . S
C2481 C2476 1.425 . S
C2481 C2478 1.409 . S
C2481 C2479 1.415 . S
C2482 H2472 0.930 . S
C2482 C2480 1.419 . S
C2482 C2483 1.362 . S
C2483 H2473 0.930 1_556 S
C2483 C2476 1.409 . S
C2483 C2482 1.362 . S
H2484 C2490 0.930 . S
H2485 C2493 0.930 . S
H2486 C2494 0.930 . S
H2487 C2495 0.930 . S
H2488 C2498 0.930 . S
H2489 C2499 0.930 . S
C2490 H2484 0.930 . S
C2490 C2491 1.355 . S
C2490 C2492 1.415 . S
C2491 C2490 1.355 . S
C2491 C2493 1.419 . S
C2492 C2490 1.415 . S
C2492 C2497 1.425 . S
C2492 C2499 1.409 . S
C2493 H2485 0.930 . S
C2493 C2491 1.419 . S
C2493 C2494 1.362 . S
C2494 H2486 0.930 . S
C2494 C2493 1.362 . S
C2494 C2497 1.409 . S
C2495 H2487 0.930 . S
C2495 C2496 1.355 . S
C2495 C2497 1.415 . S
C2496 C2495 1.355 . S
C2496 C2498 1.419 . S
C2497 C2492 1.425 . S
C2497 C2494 1.409 . S
C2497 C2495 1.415 . S
C2498 H2488 0.930 . S
C2498 C2496 1.419 . S
C2498 C2499 1.362 . S
C2499 H2489 0.930 . S
C2499 C2492 1.409 . S
C2499 C2498 1.362 . S
H2500 C2506 0.930 . S
H2501 C2509 0.930 . S
H2502 C2510 0.930 . S
H2503 C2511 0.930 . S
H2504 C2514 0.930 . S
H2505 C2515 0.930 . S
C2506 H2500 0.930 . S
C2506 C2507 1.355 . S
C2506 C2508 1.415 . S
C2507 C2506 1.355 . S
C2507 C2509 1.419 . S
C2508 C2506 1.415 . S
C2508 C2513 1.425 . S
C2508 C2515 1.409 . S
C2509 H2501 0.930 . S
C2509 C2507 1.419 . S
C2509 C2510 1.362 . S
C2510 H2502 0.930 . S
C2510 C2509 1.362 . S
C2510 C2513 1.409 . S
C2511 H2503 0.930 . S
C2511 C2512 1.355 . S
C2511 C2513 1.415 . S
C2512 C2511 1.355 . S
C2512 C2514 1.419 . S
C2513 C2508 1.425 . S
C2513 C2510 1.409 . S
C2513 C2511 1.415 . S
C2514 H2504 0.930 . S
C2514 C2512 1.419 . S
C2514 C2515 1.362 . S
C2515 H2505 0.930 . S
C2515 C2508 1.409 . S
C2515 C2514 1.362 . S
H2516 C2522 0.930 . S
H2517 C2525 0.930 . S
H2518 C2526 0.930 . S
H2519 C2527 0.930 . S
H2520 C2530 0.930 . S
H2521 C2531 0.930 . S
C2522 H2516 0.930 . S
C2522 C2523 1.355 . S
C2522 C2524 1.415 . S
C2523 C2522 1.355 . S
C2523 C2525 1.419 . S
C2524 C2522 1.415 . S
C2524 C2529 1.425 . S
C2524 C2531 1.409 . S
C2525 H2517 0.930 . S
C2525 C2523 1.419 . S
C2525 C2526 1.362 . S
C2526 H2518 0.930 . S
C2526 C2525 1.362 . S
C2526 C2529 1.409 . S
C2527 H2519 0.930 . S
C2527 C2528 1.355 . S
C2527 C2529 1.415 . S
C2528 C2527 1.355 . S
C2528 C2530 1.419 . S
C2529 C2524 1.425 . S
C2529 C2526 1.409 . S
C2529 C2527 1.415 . S
C2530 H2520 0.930 . S
C2530 C2528 1.419 . S
C2530 C2531 1.362 . S
C2531 H2521 0.930 . S
C2531 C2524 1.409 . S
C2531 C2530 1.362 . S
H2532 C2538 0.930 . S
H2533 C2541 0.930 . S
H2534 C2542 0.930 . S
H2535 C2543 0.930 . S
H2536 C2546 0.930 . S
H2537 C2547 0.930 . S
C2538 H2532 0.930 . S
C2538 C2539 1.355 . S
C2538 C2540 1.415 . S
C2539 C2538 1.355 . S
C2539 C2541 1.419 . S
C2540 C2538 1.415 . S
C2540 C2545 1.425 . S
C2540 C2547 1.409 . S
C2541 H2533 0.930 . S
C2541 C2539 1.419 . S
C2541 C2542 1.362 . S
C2542 H2534 0.930 . S
C2542 C2541 1.362 . S
C2542 C2545 1.409 . S
C2543 H2535 0.930 . S
C2543 C2544 1.355 . S
C2543 C2545 1.415 . S
C2544 C2543 1.355 . S
C2544 C2546 1.419 . S
C2545 C2540 1.425 . S
C2545 C2542 1.409 . S
C2545 C2543 1.415 . S
C2546 H2536 0.930 . S
C2546 C2544 1.419 . S
C2546 C2547 1.362 . S
C2547 H2537 0.930 . S
C2547 C2540 1.409 . S
C2547 C2546 1.362 . S
H2548 C2554 0.930 . S
H2549 C2557 0.930 . S
H2550 C2558 0.930 . S
H2551 C2559 0.930 . S
H2552 C2562 0.930 . S
H2553 C2563 0.930 . S
C2554 H2548 0.930 . S
C2554 C2555 1.355 . S
C2554 C2556 1.415 . S
C2555 C2554 1.355 . S
C2555 C2557 1.419 . S
C2556 C2554 1.415 . S
C2556 C2561 1.425 . S
C2556 C2563 1.409 . S
C2557 H2549 0.930 . S
C2557 C2555 1.419 . S
C2557 C2558 1.362 . S
C2558 H2550 0.930 . S
C2558 C2557 1.362 . S
C2558 C2561 1.409 . S
C2559 H2551 0.930 . S
C2559 C2560 1.355 . S
C2559 C2561 1.415 . S
C2560 C2559 1.355 . S
C2560 C2562 1.419 . S
C2561 C2556 1.425 . S
C2561 C2558 1.409 . S
C2561 C2559 1.415 . S
C2562 H2552 0.930 . S
C2562 C2560 1.419 . S
C2562 C2563 1.362 . S
C2563 H2553 0.930 . S
C2563 C2556 1.409 . S
C2563 C2562 1.362 . S
H2564 C2570 0.930 . S
H2565 C2573 0.930 . S
H2566 C2574 0.930 . S
H2567 C2575 0.930 . S
H2568 C2578 0.930 . S
H2569 C2579 0.930 . S
C2570 H2564 0.930 . S
C2570 C2571 1.355 . S
C2570 C2572 1.415 . S
C2571 C2570 1.355 . S
C2571 C2573 1.419 . S
C2572 C2570 1.415 . S
C2572 C2577 1.425 . S
C2572 C2579 1.409 . S
C2573 H2565 0.930 . S
C2573 C2571 1.419 . S
C2573 C2574 1.362 . S
C2574 H2566 0.930 . S
C2574 C2573 1.362 . S
C2574 C2577 1.409 . S
C2575 H2567 0.930 . S
C2575 C2576 1.355 . S
C2575 C2577 1.415 . S
C2576 C2575 1.355 . S
C2576 C2578 1.419 . S
C2577 C2572 1.425 . S
C2577 C2574 1.409 . S
C2577 C2575 1.415 . S
C2578 H2568 0.930 . S
C2578 C2576 1.419 . S
C2578 C2579 1.362 . S
C2579 H2569 0.930 . S
C2579 C2572 1.409 . S
C2579 C2578 1.362 . S
H2580 C2586 0.930 1_655 S
H2581 C2589 0.930 . S
H2582 C2590 0.930 . S
H2583 C2591 0.930 . S
H2584 C2594 0.930 . S
H2585 C2595 0.930 . S
C2586 H2580 0.930 1_455 S
C2586 C2587 1.355 . S
C2586 C2588 1.415 . S
C2587 C2586 1.355 . S
C2587 C2589 1.419 . S
C2588 C2586 1.415 . S
C2588 C2593 1.425 . S
C2588 C2595 1.409 1_455 S
C2589 H2581 0.930 . S
C2589 C2587 1.419 . S
C2589 C2590 1.362 . S
C2590 H2582 0.930 . S
C2590 C2589 1.362 . S
C2590 C2593 1.409 . S
C2591 H2583 0.930 . S
C2591 C2592 1.355 . S
C2591 C2593 1.415 . S
C2592 C2591 1.355 . S
C2592 C2594 1.419 1_455 S
C2593 C2588 1.425 . S
C2593 C2590 1.409 . S
C2593 C2591 1.415 . S
C2594 H2584 0.930 . S
C2594 C2592 1.419 1_655 S
C2594 C2595 1.362 . S
C2595 H2585 0.930 . S
C2595 C2588 1.409 1_655 S
C2595 C2594 1.362 . S
H2596 C2602 0.930 . S
H2597 C2605 0.930 . S
H2598 C2606 0.930 . S
H2599 C2607 0.930 . S
H2600 C2610 0.930 . S
H2601 C2611 0.930 . S
C2602 H2596 0.930 . S
C2602 C2603 1.355 . S
C2602 C2604 1.415 . S
C2603 C2602 1.355 . S
C2603 C2605 1.419 . S
C2604 C2602 1.415 . S
C2604 C2609 1.425 . S
C2604 C2611 1.409 . S
C2605 H2597 0.930 . S
C2605 C2603 1.419 . S
C2605 C2606 1.362 . S
C2606 H2598 0.930 . S
C2606 C2605 1.362 . S
C2606 C2609 1.409 . S
C2607 H2599 0.930 . S
C2607 C2608 1.355 . S
C2607 C2609 1.415 . S
C2608 C2607 1.355 . S
C2608 C2610 1.419 . S
C2609 C2604 1.425 . S
C2609 C2606 1.409 . S
C2609 C2607 1.415 . S
C2610 H2600 0.930 . S
C2610 C2608 1.419 . S
C2610 C2611 1.362 . S
C2611 H2601 0.930 . S
C2611 C2604 1.409 . S
C2611 C2610 1.362 . S
H2612 C2618 0.930 . S
H2613 C2621 0.930 . S
H2614 C2622 0.930 . S
H2615 C2623 0.930 . S
H2616 C2626 0.953 . S
H2617 C2627 0.920 1_545 S
C2618 H2612 0.930 . S
C2618 C2619 1.355 . S
C2618 C2620 1.415 . S
C2619 C2618 1.355 . S
C2619 C2621 1.419 . S
C2620 C2618 1.415 . S
C2620 C2625 1.425 . S
C2620 C2627 1.413 . S
C2621 H2613 0.930 . S
C2621 C2619 1.419 . S
C2621 C2622 1.362 . S
C2622 H2614 0.930 . S
C2622 C2621 1.362 . S
C2622 C2625 1.409 . S
C2623 H2615 0.930 . S
C2623 C2624 1.355 . S
C2623 C2625 1.415 . S
C2624 C2623 1.355 . S
C2624 C2626 1.368 1_565 S
C2625 C2620 1.425 . S
C2625 C2622 1.409 . S
C2625 C2623 1.415 . S
C2626 H2616 0.953 . S
C2626 C2624 1.368 1_545 S
C2626 C2627 1.403 1_545 S
C2627 H2617 0.920 1_565 S
C2627 C2620 1.413 . S
C2627 C2626 1.403 1_565 S
H2628 C2634 0.930 . S
H2629 C2637 0.930 . S
H2630 C2638 0.930 . S
H2631 C2639 0.930 . S
H2632 C2642 0.930 . S
H2633 C2643 0.930 . S
C2634 H2628 0.930 . S
C2634 C2635 1.355 . S
C2634 C2636 1.415 . S
C2635 C2634 1.355 . S
C2635 C2637 1.419 . S
C2636 C2634 1.415 . S
C2636 C2641 1.425 . S
C2636 C2643 1.409 . S
C2637 H2629 0.930 . S
C2637 C2635 1.419 . S
C2637 C2638 1.362 . S
C2638 H2630 0.930 . S
C2638 C2637 1.362 . S
C2638 C2641 1.409 . S
C2639 H2631 0.930 . S
C2639 C2640 1.355 . S
C2639 C2641 1.415 . S
C2640 C2639 1.355 . S
C2640 C2642 1.419 . S
C2641 C2636 1.425 . S
C2641 C2638 1.409 . S
C2641 C2639 1.415 . S
C2642 H2632 0.930 . S
C2642 C2640 1.419 . S
C2642 C2643 1.362 . S
C2643 H2633 0.930 . S
C2643 C2636 1.409 . S
C2643 C2642 1.362 . S
H2644 C2650 0.930 . S
H2645 C2653 0.930 . S
H2646 C2654 0.930 . S
H2647 C2655 0.930 . S
H2648 C2658 0.937 . S
H2649 C2659 0.930 1_655 S
C2650 H2644 0.930 . S
C2650 C2651 1.355 . S
C2650 C2652 1.415 . S
C2651 C2650 1.355 . S
C2651 C2653 1.419 . S
C2652 C2650 1.415 . S
C2652 C2657 1.425 . S
C2652 C2659 1.409 . S
C2653 H2645 0.930 . S
C2653 C2651 1.419 . S
C2653 C2654 1.362 . S
C2654 H2646 0.930 . S
C2654 C2653 1.362 . S
C2654 C2657 1.409 . S
C2655 H2647 0.930 . S
C2655 C2656 1.355 . S
C2655 C2657 1.415 . S
C2656 C2655 1.355 . S
C2656 C2658 1.396 1_455 S
C2657 C2652 1.425 . S
C2657 C2654 1.409 . S
C2657 C2655 1.415 . S
C2658 H2648 0.937 . S
C2658 C2656 1.396 1_655 S
C2658 C2659 1.382 1_655 S
C2659 H2649 0.930 1_455 S
C2659 C2652 1.409 . S
C2659 C2658 1.382 1_455 S
H2660 C2666 0.930 . S
H2661 C2669 0.930 . S
H2662 C2670 0.930 . S
H2663 C2671 0.930 . S
H2664 C2674 0.930 . S
H2665 C2675 0.930 . S
C2666 H2660 0.930 . S
C2666 C2667 1.355 . S
C2666 C2668 1.415 . S
C2667 C2666 1.355 . S
C2667 C2669 1.419 . S
C2668 C2666 1.415 . S
C2668 C2673 1.425 . S
C2668 C2675 1.409 . S
C2669 H2661 0.930 . S
C2669 C2667 1.419 . S
C2669 C2670 1.362 . S
C2670 H2662 0.930 . S
C2670 C2669 1.362 . S
C2670 C2673 1.409 . S
C2671 H2663 0.930 . S
C2671 C2672 1.355 . S
C2671 C2673 1.415 . S
C2672 C2671 1.355 . S
C2672 C2674 1.419 . S
C2673 C2668 1.425 . S
C2673 C2670 1.409 . S
C2673 C2671 1.415 . S
C2674 H2664 0.930 . S
C2674 C2672 1.419 . S
C2674 C2675 1.362 . S
C2675 H2665 0.930 . S
C2675 C2668 1.409 . S
C2675 C2674 1.362 . S
H2676 C2682 0.930 . S
H2677 C2685 0.930 . S
H2678 C2686 0.930 . S
H2679 C2687 0.930 . S
H2680 C2690 0.930 . S
H2681 C2691 0.930 . S
C2682 H2676 0.930 . S
C2682 C2683 1.355 . S
C2682 C2684 1.415 . S
C2683 C2682 1.355 . S
C2683 C2685 1.419 . S
C2684 C2682 1.415 . S
C2684 C2689 1.425 . S
C2684 C2691 1.409 . S
C2685 H2677 0.930 . S
C2685 C2683 1.419 . S
C2685 C2686 1.362 . S
C2686 H2678 0.930 . S
C2686 C2685 1.362 . S
C2686 C2689 1.409 . S
C2687 H2679 0.930 . S
C2687 C2688 1.355 . S
C2687 C2689 1.415 . S
C2688 C2687 1.355 . S
C2688 C2690 1.419 . S
C2689 C2684 1.425 . S
C2689 C2686 1.409 . S
C2689 C2687 1.415 . S
C2690 H2680 0.930 . S
C2690 C2688 1.419 . S
C2690 C2691 1.362 . S
C2691 H2681 0.930 . S
C2691 C2684 1.409 . S
C2691 C2690 1.362 . S
H2692 C2698 0.930 . S
H2693 C2701 0.930 . S
H2694 C2702 0.930 . S
H2695 C2703 0.930 . S
H2696 C2706 0.930 . S
H2697 C2707 0.930 . S
C2698 H2692 0.930 . S
C2698 C2699 1.355 . S
C2698 C2700 1.415 . S
C2699 C2698 1.355 . S
C2699 C2701 1.419 . S
C2700 C2698 1.415 . S
C2700 C2705 1.425 . S
C2700 C2707 1.409 . S
C2701 H2693 0.930 . S
C2701 C2699 1.419 . S
C2701 C2702 1.362 . S
C2702 H2694 0.930 . S
C2702 C2701 1.362 . S
C2702 C2705 1.409 . S
C2703 H2695 0.930 . S
C2703 C2704 1.355 . S
C2703 C2705 1.415 . S
C2704 C2703 1.355 . S
C2704 C2706 1.419 . S
C2705 C2700 1.425 . S
C2705 C2702 1.409 . S
C2705 C2703 1.415 . S
C2706 H2696 0.930 . S
C2706 C2704 1.419 . S
C2706 C2707 1.362 . S
C2707 H2697 0.930 . S
C2707 C2700 1.409 . S
C2707 C2706 1.362 . S
H2708 C2714 0.930 . S
H2709 C2717 0.930 . S
H2710 C2718 0.930 . S
H2711 C2719 0.930 . S
H2712 C2722 0.930 . S
H2713 C2723 0.930 . S
C2714 H2708 0.930 . S
C2714 C2715 1.355 . S
C2714 C2716 1.415 . S
C2715 C2714 1.355 . S
C2715 C2717 1.419 . S
C2716 C2714 1.415 . S
C2716 C2721 1.425 . S
C2716 C2723 1.409 . S
C2717 H2709 0.930 . S
C2717 C2715 1.419 . S
C2717 C2718 1.362 . S
C2718 H2710 0.930 . S
C2718 C2717 1.362 . S
C2718 C2721 1.409 . S
C2719 H2711 0.930 . S
C2719 C2720 1.355 . S
C2719 C2721 1.415 . S
C2720 C2719 1.355 . S
C2720 C2722 1.419 . S
C2721 C2716 1.425 . S
C2721 C2718 1.409 . S
C2721 C2719 1.415 . S
C2722 H2712 0.930 . S
C2722 C2720 1.419 . S
C2722 C2723 1.362 . S
C2723 H2713 0.930 . S
C2723 C2716 1.409 . S
C2723 C2722 1.362 . S
H2724 C2730 0.930 . S
H2725 C2733 0.930 . S
H2726 C2734 0.930 . S
H2727 C2735 0.930 . S
H2728 C2738 0.930 1_565 S
H2729 C2739 0.930 . S
C2730 H2724 0.930 . S
C2730 C2731 1.355 . S
C2730 C2732 1.415 . S
C2731 C2730 1.355 . S
C2731 C2733 1.419 . S
C2732 C2730 1.415 . S
C2732 C2737 1.425 . S
C2732 C2739 1.409 . S
C2733 H2725 0.930 . S
C2733 C2731 1.419 . S
C2733 C2734 1.362 . S
C2734 H2726 0.930 . S
C2734 C2733 1.362 . S
C2734 C2737 1.409 . S
C2735 H2727 0.930 . S
C2735 C2736 1.355 . S
C2735 C2737 1.415 . S
C2736 C2735 1.355 . S
C2736 C2738 1.419 . S
C2737 C2732 1.425 . S
C2737 C2734 1.409 . S
C2737 C2735 1.415 . S
C2738 H2728 0.930 1_545 S
C2738 C2736 1.419 . S
C2738 C2739 1.362 . S
C2739 H2729 0.930 . S
C2739 C2732 1.409 . S
C2739 C2738 1.362 . S
H2740 C2746 0.930 . S
H2741 C2749 0.930 . S
H2742 C2750 0.930 . S
H2743 C2751 0.930 . S
H2744 C2754 0.930 . S
H2745 C2755 0.930 . S
C2746 H2740 0.930 . S
C2746 C2747 1.355 . S
C2746 C2748 1.415 . S
C2747 C2746 1.355 . S
C2747 C2749 1.419 . S
C2748 C2746 1.415 . S
C2748 C2753 1.425 . S
C2748 C2755 1.409 . S
C2749 H2741 0.930 . S
C2749 C2747 1.419 . S
C2749 C2750 1.362 . S
C2750 H2742 0.930 . S
C2750 C2749 1.362 . S
C2750 C2753 1.409 . S
C2751 H2743 0.930 . S
C2751 C2752 1.355 . S
C2751 C2753 1.415 . S
C2752 C2751 1.355 . S
C2752 C2754 1.419 . S
C2753 C2748 1.425 . S
C2753 C2750 1.409 . S
C2753 C2751 1.415 . S
C2754 H2744 0.930 . S
C2754 C2752 1.419 . S
C2754 C2755 1.362 . S
C2755 H2745 0.930 . S
C2755 C2748 1.409 . S
C2755 C2754 1.362 . S
H2756 C2762 0.930 . S
H2757 C2765 0.930 . S
H2758 C2766 0.930 . S
H2759 C2767 0.930 . S
H2760 C2770 0.930 . S
H2761 C2771 0.930 . S
C2762 H2756 0.930 . S
C2762 C2763 1.355 . S
C2762 C2764 1.415 . S
C2763 C2762 1.355 . S
C2763 C2765 1.419 . S
C2764 C2762 1.415 . S
C2764 C2769 1.425 . S
C2764 C2771 1.409 . S
C2765 H2757 0.930 . S
C2765 C2763 1.419 . S
C2765 C2766 1.362 . S
C2766 H2758 0.930 . S
C2766 C2765 1.362 . S
C2766 C2769 1.409 . S
C2767 H2759 0.930 . S
C2767 C2768 1.355 . S
C2767 C2769 1.415 . S
C2768 C2767 1.355 . S
C2768 C2770 1.419 . S
C2769 C2764 1.425 . S
C2769 C2766 1.409 . S
C2769 C2767 1.415 . S
C2770 H2760 0.930 . S
C2770 C2768 1.419 . S
C2770 C2771 1.362 . S
C2771 H2761 0.930 . S
C2771 C2764 1.409 . S
C2771 C2770 1.362 . S
H2772 C2778 0.930 . S
H2773 C2781 0.930 . S
H2774 C2782 0.930 . S
H2775 C2783 0.930 . S
H2776 C2786 0.930 . S
H2777 C2787 0.930 . S
C2778 H2772 0.930 . S
C2778 C2779 1.355 . S
C2778 C2780 1.415 . S
C2779 C2778 1.355 . S
C2779 C2781 1.419 . S
C2780 C2778 1.415 . S
C2780 C2785 1.425 . S
C2780 C2787 1.409 . S
C2781 H2773 0.930 . S
C2781 C2779 1.419 . S
C2781 C2782 1.362 . S
C2782 H2774 0.930 . S
C2782 C2781 1.362 . S
C2782 C2785 1.409 . S
C2783 H2775 0.930 . S
C2783 C2784 1.355 . S
C2783 C2785 1.415 . S
C2784 C2783 1.355 . S
C2784 C2786 1.419 . S
C2785 C2780 1.425 . S
C2785 C2782 1.409 . S
C2785 C2783 1.415 . S
C2786 H2776 0.930 . S
C2786 C2784 1.419 . S
C2786 C2787 1.362 . S
C2787 H2777 0.930 . S
C2787 C2780 1.409 . S
C2787 C2786 1.362 . S
H2788 C2794 0.930 . S
H2789 C2797 0.930 . S
H2790 C2798 0.930 . S
H2791 C2799 0.930 . S
H2792 C2802 0.930 . S
H2793 C2803 0.930 . S
C2794 H2788 0.930 . S
C2794 C2795 1.355 . S
C2794 C2796 1.415 . S
C2795 C2794 1.355 . S
C2795 C2797 1.419 . S
C2796 C2794 1.415 . S
C2796 C2801 1.425 . S
C2796 C2803 1.409 . S
C2797 H2789 0.930 . S
C2797 C2795 1.419 . S
C2797 C2798 1.362 . S
C2798 H2790 0.930 . S
C2798 C2797 1.362 . S
C2798 C2801 1.409 . S
C2799 H2791 0.930 . S
C2799 C2800 1.355 . S
C2799 C2801 1.415 . S
C2800 C2799 1.355 . S
C2800 C2802 1.419 . S
C2801 C2796 1.425 . S
C2801 C2798 1.409 . S
C2801 C2799 1.415 . S
C2802 H2792 0.930 . S
C2802 C2800 1.419 . S
C2802 C2803 1.362 . S
C2803 H2793 0.930 . S
C2803 C2796 1.409 . S
C2803 C2802 1.362 . S
H2804 C2810 0.930 . S
H2805 C2813 0.930 . S
H2806 C2814 0.930 . S
H2807 C2815 0.930 . S
H2808 C2818 0.930 . S
H2809 C2819 0.930 . S
C2810 H2804 0.930 . S
C2810 C2811 1.355 . S
C2810 C2812 1.415 . S
C2811 C2810 1.355 . S
C2811 C2813 1.419 . S
C2812 C2810 1.415 . S
C2812 C2817 1.425 . S
C2812 C2819 1.409 . S
C2813 H2805 0.930 . S
C2813 C2811 1.419 . S
C2813 C2814 1.362 . S
C2814 H2806 0.930 . S
C2814 C2813 1.362 . S
C2814 C2817 1.409 . S
C2815 H2807 0.930 . S
C2815 C2816 1.355 . S
C2815 C2817 1.415 . S
C2816 C2815 1.355 . S
C2816 C2818 1.419 . S
C2817 C2812 1.425 . S
C2817 C2814 1.409 . S
C2817 C2815 1.415 . S
C2818 H2808 0.930 . S
C2818 C2816 1.419 . S
C2818 C2819 1.362 . S
C2819 H2809 0.930 . S
C2819 C2812 1.409 . S
C2819 C2818 1.362 . S
H2820 C2826 0.930 . S
H2821 C2829 0.930 . S
H2822 C2830 0.930 . S
H2823 C2831 0.930 . S
H2824 C2834 0.930 . S
H2825 C2835 0.930 . S
C2826 H2820 0.930 . S
C2826 C2827 1.355 . S
C2826 C2828 1.415 . S
C2827 C2826 1.355 . S
C2827 C2829 1.419 . S
C2828 C2826 1.415 . S
C2828 C2833 1.425 . S
C2828 C2835 1.409 . S
C2829 H2821 0.930 . S
C2829 C2827 1.419 . S
C2829 C2830 1.362 . S
C2830 H2822 0.930 . S
C2830 C2829 1.362 . S
C2830 C2833 1.409 . S
C2831 H2823 0.930 . S
C2831 C2832 1.355 . S
C2831 C2833 1.415 . S
C2832 C2831 1.355 . S
C2832 C2834 1.419 . S
C2833 C2828 1.425 . S
C2833 C2830 1.409 . S
C2833 C2831 1.415 . S
C2834 H2824 0.930 . S
C2834 C2832 1.419 . S
C2834 C2835 1.362 . S
C2835 H2825 0.930 . S
C2835 C2828 1.409 . S
C2835 C2834 1.362 . S
H2836 C2842 0.930 . S
H2837 C2845 0.930 . S
H2838 C2846 0.930 . S
H2839 C2847 0.930 . S
H2840 C2850 0.930 . S
H2841 C2851 0.930 . S
C2842 H2836 0.930 . S
C2842 C2843 1.355 . S
C2842 C2844 1.415 . S
C2843 C2842 1.355 . S
C2843 C2845 1.419 . S
C2844 C2842 1.415 . S
C2844 C2849 1.425 . S
C2844 C2851 1.409 . S
C2845 H2837 0.930 . S
C2845 C2843 1.419 . S
C2845 C2846 1.362 . S
C2846 H2838 0.930 . S
C2846 C2845 1.362 . S
C2846 C2849 1.409 . S
C2847 H2839 0.930 . S
C2847 C2848 1.355 . S
C2847 C2849 1.415 . S
C2848 C2847 1.355 . S
C2848 C2850 1.419 . S
C2849 C2844 1.425 . S
C2849 C2846 1.409 . S
C2849 C2847 1.415 . S
C2850 H2840 0.930 . S
C2850 C2848 1.419 . S
C2850 C2851 1.362 . S
C2851 H2841 0.930 . S
C2851 C2844 1.409 . S
C2851 C2850 1.362 . S
H2852 C2858 0.930 . S
H2853 C2861 0.930 . S
H2854 C2862 0.930 . S
H2855 C2863 0.930 . S
H2856 C2866 0.930 . S
H2857 C2867 0.930 . S
C2858 H2852 0.930 . S
C2858 C2859 1.355 . S
C2858 C2860 1.415 . S
C2859 C2858 1.355 . S
C2859 C2861 1.419 . S
C2860 C2858 1.415 . S
C2860 C2865 1.425 . S
C2860 C2867 1.409 . S
C2861 H2853 0.930 . S
C2861 C2859 1.419 . S
C2861 C2862 1.362 . S
C2862 H2854 0.930 . S
C2862 C2861 1.362 . S
C2862 C2865 1.409 . S
C2863 H2855 0.930 . S
C2863 C2864 1.355 . S
C2863 C2865 1.415 . S
C2864 C2863 1.355 . S
C2864 C2866 1.419 . S
C2865 C2860 1.425 . S
C2865 C2862 1.409 . S
C2865 C2863 1.415 . S
C2866 H2856 0.930 . S
C2866 C2864 1.419 . S
C2866 C2867 1.362 . S
C2867 H2857 0.930 . S
C2867 C2860 1.409 . S
C2867 C2866 1.362 . S
H2868 C2874 0.930 . S
H2869 C2877 0.930 1_455 S
H2870 C2878 0.930 . S
H2871 C2879 0.856 1_455 S
H2872 C2882 0.930 . S
H2873 C2883 0.930 . S
C2874 H2868 0.930 . S
C2874 C2875 1.355 . S
C2874 C2876 1.415 . S
C2875 C2874 1.355 . S
C2875 C2877 1.419 . S
C2876 C2874 1.415 . S
C2876 C2881 1.425 . S
C2876 C2883 1.409 . S
C2877 H2869 0.930 1_655 S
C2877 C2875 1.419 . S
C2877 C2878 1.362 1_655 S
C2878 H2870 0.930 . S
C2878 C2877 1.362 1_455 S
C2878 C2881 1.409 1_455 S
C2879 H2871 0.856 1_655 S
C2879 C2880 1.371 . S
C2879 C2881 1.475 . S
C2880 C2879 1.371 . S
C2880 C2882 1.419 . S
C2881 C2876 1.425 . S
C2881 C2878 1.409 1_655 S
C2881 C2879 1.475 . S
C2882 H2872 0.930 . S
C2882 C2880 1.419 . S
C2882 C2883 1.362 . S
C2883 H2873 0.930 . S
C2883 C2876 1.409 . S
C2883 C2882 1.362 . S
H2884 C2890 0.930 . S
H2885 C2893 0.930 . S
H2886 C2894 0.930 . S
H2887 C2895 0.930 . S
H2888 C2898 0.930 . S
H2889 C2899 0.930 . S
C2890 H2884 0.930 . S
C2890 C2891 1.355 . S
C2890 C2892 1.415 . S
C2891 C2890 1.355 . S
C2891 C2893 1.419 . S
C2892 C2890 1.415 . S
C2892 C2897 1.425 . S
C2892 C2899 1.409 . S
C2893 H2885 0.930 . S
C2893 C2891 1.419 . S
C2893 C2894 1.362 . S
C2894 H2886 0.930 . S
C2894 C2893 1.362 . S
C2894 C2897 1.409 . S
C2895 H2887 0.930 . S
C2895 C2896 1.355 . S
C2895 C2897 1.415 . S
C2896 C2895 1.355 . S
C2896 C2898 1.419 . S
C2897 C2892 1.425 . S
C2897 C2894 1.409 . S
C2897 C2895 1.415 . S
C2898 H2888 0.930 . S
C2898 C2896 1.419 . S
C2898 C2899 1.362 . S
C2899 H2889 0.930 . S
C2899 C2892 1.409 . S
C2899 C2898 1.362 . S
H2900 C2906 0.930 . S
H2901 C2909 0.930 . S
H2902 C2910 0.930 . S
H2903 C2911 0.930 . S
H2904 C2914 0.930 1_565 S
H2905 C2915 0.930 . S
C2906 H2900 0.930 . S
C2906 C2907 1.355 . S
C2906 C2908 1.415 . S
C2907 C2906 1.355 . S
C2907 C2909 1.419 . S
C2908 C2906 1.415 . S
C2908 C2913 1.425 . S
C2908 C2915 1.409 . S
C2909 H2901 0.930 . S
C2909 C2907 1.419 . S
C2909 C2910 1.362 . S
C2910 H2902 0.930 . S
C2910 C2909 1.362 . S
C2910 C2913 1.409 . S
C2911 H2903 0.930 . S
C2911 C2912 1.355 . S
C2911 C2913 1.415 . S
C2912 C2911 1.355 . S
C2912 C2914 1.419 . S
C2913 C2908 1.425 . S
C2913 C2910 1.409 . S
C2913 C2911 1.415 . S
C2914 H2904 0.930 1_545 S
C2914 C2912 1.419 . S
C2914 C2915 1.362 . S
C2915 H2905 0.930 . S
C2915 C2908 1.409 . S
C2915 C2914 1.362 . S
C1771 C4 1.544 1_655 S
C1776 C1253 1.474 . S
C1787 C38 1.754 . S
C1792 C1297 1.712 . S
C1808 C1377 1.527 . S
C1803 C74 1.535 . S
C1819 C76 1.544 . S
C1824 C1421 1.525 . S
C1835 C2 1.622 . S
C1840 C1501 1.583 . S
C1851 C40 1.572 . S
C1856 C1563 1.508 . S
C1867 C110 1.637 . S
C1872 C1483 1.531 . S
C1888 C1545 1.540 . S
C1883 C148 1.599 . S
C1904 C1439 1.622 . S
C1899 C182 1.626 1_565 S
C1915 C184 1.589 . S
C1920 C1359 1.517 . S
C1936 C1235 1.457 . S
C1931 C112 1.522 1_655 S
C1947 C146 1.665 . S
C1952 C1315 1.635 . S
C1963 C220 1.644 . S
C1968 C1625 1.607 . S
C1979 C254 1.790 . S
C1984 C1669 1.728 . S
C2000 C1749 1.618 . S
C1995 C290 1.688 . S
C2011 C292 1.577 . S
C2016 C695 1.537 . S
C2027 C218 1.719 . S
C2032 C739 1.664 . S
C2043 C256 1.589 . S
C2048 C819 1.533 . S
C2059 C326 1.722 . S
C2064 C757 1.663 . S
C2075 C364 1.632 . S
C2080 C801 1.520 . S
C2096 C677 1.637 . S
C2091 C398 1.736 . S
C2112 C1731 1.605 . S
C2107 C400 1.657 . S
C2128 C1607 1.490 . S
C2123 C328 1.573 . S
C2144 C1687 1.709 . S
C2139 C362 1.725 . S
C2155 C436 1.619 . S
C2160 C881 1.585 . S
C2171 C470 1.788 . S
C2176 C943 1.701 . S
C2187 C506 1.671 . S
C2192 C987 1.652 . S
C2203 C508 1.617 . S
C2208 C1049 1.599 . S
C2224 C1111 1.711 . S
C2219 C434 1.726 . S
C2240 C1191 1.560 . S
C2235 C472 1.609 . S
C2256 C1129 1.688 . S
C2251 C542 1.747 . S
C2272 C1173 1.549 . S
C2267 C580 1.642 . S
C2283 C614 1.710 . S
C2288 C1067 1.694 . S
C2304 C1005 1.591 . S
C2299 C616 1.637 . S
C2315 C544 1.558 . S
C2320 C863 1.479 . S
C2336 C925 1.596 . S
C2331 C578 1.710 . S
C2352 C701 1.499 . S
C2347 C14 1.601 . S
C2363 C39 1.540 . S
C2368 C745 1.484 . S
C2384 C825 1.492 . S
C2379 C75 1.561 . S
C2400 C887 1.364 . S
C2395 C86 1.409 . S
C2416 C949 1.530 . S
C2411 C3 1.575 . S
C2432 C993 1.456 . S
C2427 C50 1.549 . S
C2443 C111 1.567 . S
C2448 C1011 1.530 . S
C2459 C158 1.512 . S
C2464 C869 1.428 . S
C2475 C183 1.649 . S
C2480 C931 1.596 . S
C2491 C194 1.556 . S
C2496 C763 1.541 . S
C2512 C807 1.414 . S
C2507 C122 1.511 . S
C2523 C147 1.474 . S
C2528 C683 1.378 . S
C2544 C1055 1.513 . S
C2539 C230 1.549 . S
C2555 C255 1.601 . S
C2560 C1117 1.517 . S
C2571 C291 1.568 . S
C2576 C1197 1.475 . S
C2592 C1259 1.364 . S
C2587 C302 1.339 . S
C2603 C219 1.551 . S
C2608 C1303 1.512 . S
C2619 C266 1.407 . S
C2624 C1383 1.393 . S
C2635 C327 1.413 . S
C2640 C1365 1.302 . S
C2651 C374 1.397 . S
C2656 C1241 1.420 . S
C2672 C1321 1.598 . S
C2667 C399 1.628 . S
C2683 C410 1.549 . S
C2688 C1135 1.552 . S
C2699 C338 1.556 . S
C2704 C1179 1.452 . S
C2720 C1073 1.499 . S
C2715 C363 1.532 . S
C2736 C1427 1.472 . S
C2731 C446 1.445 . S
C2747 C471 1.475 . S
C2752 C1507 1.443 . S
C2763 C507 1.502 . S
C2768 C1569 1.382 . S
C2784 C1631 1.358 . S
C2779 C518 1.476 . S
C2800 C1675 1.574 . S
C2795 C435 1.610 . S
C2811 C482 1.544 1_455 S
C2816 C1755 1.527 . S
C2827 C543 1.525 . S
C2832 C1737 1.402 . S
C2843 C590 1.589 . S
C2848 C1613 1.481 . S
C2864 C1693 1.581 . S
C2859 C615 1.646 . S
C2880 C1489 1.395 . S
C2875 C626 1.463 . S
C2896 C1551 1.391 . S
C2891 C554 1.518 . S
C2907 C579 1.427 . S
C2912 C1445 1.397 . S
