# Generated by pormake.
# Topology pyr, (3,6)-cn, num edge types: 1
# Building blocks:
#     Node 0, Type 0, BuildingBlock: CUQRIR_clean_linker_1, # of connection points: 3
#     Node 1, Type 0, BuildingBlock: CUQRIR_clean_linker_1, # of connection points: 3
#     Node 2, Type 0, BuildingBlock: CUQRIR_clean_linker_1, # of connection points: 3
#     Node 3, Type 0, BuildingBlock: CUQRIR_clean_linker_1, # of connection points: 3
#     Node 4, Type 0, BuildingBlock: CUQRIR_clean_linker_1, # of connection points: 3
#     Node 5, Type 0, BuildingBlock: CUQRIR_clean_linker_1, # of connection points: 3
#     Node 6, Type 0, BuildingBlock: CUQRIR_clean_linker_1, # of connection points: 3
#     Node 7, Type 0, BuildingBlock: CUQRIR_clean_linker_1, # of connection points: 3
#     Node 8, Type 1, BuildingBlock: MIDCAF_clean_sbu_0, # of connection points: 6
#     Node 9, Type 1, BuildingBlock: MIDCAF_clean_sbu_0, # of connection points: 6
#     Node 10, Type 1, BuildingBlock: MIDCAF_clean_sbu_0, # of connection points: 6
#     Node 11, Type 1, BuildingBlock: MIDCAF_clean_sbu_0, # of connection points: 6
#     Edge 12, Type (0, 1), BuildingBlock: KIFKEQ_clean_linker_1, # of connection points: 2
#     Edge 13, Type (0, 1), BuildingBlock: KIFKEQ_clean_linker_1, # of connection points: 2
#     Edge 14, Type (0, 1), BuildingBlock: KIFKEQ_clean_linker_1, # of connection points: 2
#     Edge 15, Type (0, 1), BuildingBlock: KIFKEQ_clean_linker_1, # of connection points: 2
#     Edge 16, Type (0, 1), BuildingBlock: KIFKEQ_clean_linker_1, # of connection points: 2
#     Edge 17, Type (0, 1), BuildingBlock: KIFKEQ_clean_linker_1, # of connection points: 2
#     Edge 18, Type (0, 1), BuildingBlock: KIFKEQ_clean_linker_1, # of connection points: 2
#     Edge 19, Type (0, 1), BuildingBlock: KIFKEQ_clean_linker_1, # of connection points: 2
#     Edge 20, Type (0, 1), BuildingBlock: KIFKEQ_clean_linker_1, # of connection points: 2
#     Edge 21, Type (0, 1), BuildingBlock: KIFKEQ_clean_linker_1, # of connection points: 2
#     Edge 22, Type (0, 1), BuildingBlock: KIFKEQ_clean_linker_1, # of connection points: 2
#     Edge 23, Type (0, 1), BuildingBlock: KIFKEQ_clean_linker_1, # of connection points: 2
#     Edge 24, Type (0, 1), BuildingBlock: KIFKEQ_clean_linker_1, # of connection points: 2
#     Edge 25, Type (0, 1), BuildingBlock: KIFKEQ_clean_linker_1, # of connection points: 2
#     Edge 26, Type (0, 1), BuildingBlock: KIFKEQ_clean_linker_1, # of connection points: 2
#     Edge 27, Type (0, 1), BuildingBlock: KIFKEQ_clean_linker_1, # of connection points: 2
#     Edge 28, Type (0, 1), BuildingBlock: KIFKEQ_clean_linker_1, # of connection points: 2
#     Edge 29, Type (0, 1), BuildingBlock: KIFKEQ_clean_linker_1, # of connection points: 2
#     Edge 30, Type (0, 1), BuildingBlock: KIFKEQ_clean_linker_1, # of connection points: 2
#     Edge 31, Type (0, 1), BuildingBlock: KIFKEQ_clean_linker_1, # of connection points: 2
#     Edge 32, Type (0, 1), BuildingBlock: KIFKEQ_clean_linker_1, # of connection points: 2
#     Edge 33, Type (0, 1), BuildingBlock: KIFKEQ_clean_linker_1, # of connection points: 2
#     Edge 34, Type (0, 1), BuildingBlock: KIFKEQ_clean_linker_1, # of connection points: 2
#     Edge 35, Type (0, 1), BuildingBlock: KIFKEQ_clean_linker_1, # of connection points: 2
# Relax obj value: 0.103
# Max RMSD: 0.208
# Mean RMSD: 0.152
data_MOF--net-pyr--node1-MIDCAF_clean_sbu_0--node2-CUQRIR_clean_linker_1--edge1-KIFKEQ_clean_linker_1
_symmetry_space_group_name_H-M    P1
_symmetry_Int_Tables_number       1
_symmetry_cell_setting            triclinic
loop_
_symmetry_equiv_pos_as_xyz
'x, y, z'
_cell_length_a     33.271051
_cell_length_b     33.257317
_cell_length_c     32.489421
_cell_angle_alpha  88.147056
_cell_angle_beta   91.826595
_cell_angle_gamma 93.015455
loop_
_atom_site_label
_atom_site_type_symbol
_atom_site_fract_x
_atom_site_fract_y
_atom_site_fract_z
_atom_type_partial_charge
C0 C 0.20472 0.27567 0.26325 0.0
N1 N 0.22871 0.24475 0.27267 0.0
N2 N 0.22034 0.2996 0.23267 0.0
C3 C 0.16537 0.28201 0.28317 0.0
C4 C 0.25487 0.28225 0.22385 0.0
N5 N 0.26038 0.24918 0.24864 0.0
C6 C 0.28231 0.2965 0.1899 0.0
H7 H 0.14083 0.26508 0.26621 0.0
H8 H 0.15839 0.31424 0.28216 0.0
H9 H 0.16601 0.27085 0.31573 0.0
H10 H 0.26818 0.31899 0.1689 0.0
H11 H 0.29077 0.27051 0.17204 0.0
H12 H 0.31033 0.31059 0.20369 0.0
C13 C 0.30318 0.7968 0.73172 0.0
N14 N 0.29855 0.82691 0.75815 0.0
N15 N 0.33884 0.77968 0.73904 0.0
C16 C 0.27456 0.78662 0.69625 0.0
C17 C 0.35599 0.8007 0.77063 0.0
N18 N 0.33183 0.82984 0.78201 0.0
C19 C 0.39514 0.79075 0.79214 0.0
H20 H 0.2509 0.76447 0.70728 0.0
H21 H 0.29033 0.77325 0.67086 0.0
H22 H 0.25968 0.81379 0.68401 0.0
H23 H 0.42004 0.80949 0.77822 0.0
H24 H 0.4013 0.75859 0.78868 0.0
H25 H 0.39459 0.79717 0.82541 0.0
C26 C 0.68148 0.29899 0.79404 0.0
N27 N 0.70321 0.29621 0.82983 0.0
N28 N 0.69677 0.32913 0.76931 0.0
C29 C 0.64399 0.27343 0.78411 0.0
C30 C 0.72876 0.34472 0.79145 0.0
N31 N 0.7329 0.32452 0.82818 0.0
C32 C 0.75234 0.38314 0.77974 0.0
H33 H 0.64688 0.24229 0.79682 0.0
H34 H 0.63805 0.27264 0.75033 0.0
H35 H 0.61796 0.28623 0.79861 0.0
H36 H 0.73451 0.40288 0.75888 0.0
H37 H 0.77964 0.37542 0.76355 0.0
H38 H 0.76201 0.40027 0.80739 0.0
C39 C 0.77793 0.73063 0.3056 0.0
N40 N 0.81327 0.7521 0.29972 0.0
N41 N 0.76201 0.73968 0.34185 0.0
C42 C 0.7611 0.69785 0.27809 0.0
C43 C 0.78895 0.76719 0.35791 0.0
N44 N 0.82035 0.77434 0.33274 0.0
C45 C 0.78359 0.78863 0.39735 0.0
H46 H 0.74159 0.71139 0.25363 0.0
H47 H 0.74277 0.67478 0.29564 0.0
H48 H 0.78558 0.68288 0.26313 0.0
H49 H 0.79907 0.7723 0.42307 0.0
H50 H 0.75124 0.78963 0.40435 0.0
H51 H 0.79707 0.81985 0.39534 0.0
C52 C 0.84765 0.91709 0.92856 0.0
N53 N 0.88204 0.90369 0.91398 0.0
N54 N 0.84062 0.95423 0.91252 0.0
C55 C 0.82254 0.89528 0.96085 0.0
C56 C 0.87221 0.9632 0.88808 0.0
N57 N 0.8976 0.93261 0.88918 0.0
C58 C 0.87746 1.00107 0.86182 0.0
H59 H 0.80042 0.87414 0.94545 0.0
H60 H 0.80584 0.91663 0.97852 0.0
H61 H 0.8416 0.87758 0.98258 0.0
H62 H 0.89979 0.02194 0.87729 0.0
H63 H 0.84867 0.01624 0.85724 0.0
H64 H 0.88924 0.99425 0.83139 0.0
C65 C 0.7052 0.18441 0.46134 0.0
N66 N 0.70422 0.15334 0.43505 0.0
N67 N 0.66993 0.20316 0.45914 0.0
C68 C 0.73946 0.19476 0.49106 0.0
C69 C 0.64755 0.18254 0.43053 0.0
N70 N 0.66799 0.15196 0.41647 0.0
C71 C 0.60681 0.19418 0.41388 0.0
H72 H 0.75431 0.16718 0.50218 0.0
H73 H 0.72885 0.21069 0.51783 0.0
H74 H 0.76209 0.21476 0.47502 0.0
H75 H 0.60337 0.22704 0.416 0.0
H76 H 0.58314 0.17792 0.4322 0.0
H77 H 0.60201 0.18582 0.38125 0.0
C78 C 0.39249 0.59534 0.12617 0.0
N79 N 0.41889 0.62754 0.12928 0.0
N80 N 0.36614 0.60065 0.09423 0.0
C81 C 0.38812 0.5619 0.15833 0.0
C82 C 0.37749 0.63729 0.07793 0.0
N83 N 0.40946 0.65366 0.09922 0.0
C84 C 0.35395 0.65934 0.04487 0.0
H85 H 0.4181 0.55283 0.17002 0.0
H86 H 0.371 0.53528 0.14576 0.0
H87 H 0.3717 0.5728 0.18465 0.0
H88 H 0.33542 0.68139 0.05946 0.0
H89 H 0.33381 0.63818 0.02704 0.0
H90 H 0.37468 0.67628 0.02369 0.0
C91 C 0.09342 0.36704 0.68901 0.0
N92 N 0.12441 0.3686 0.66295 0.0
N93 N 0.09392 0.40089 0.71088 0.0
C94 C 0.06288 0.3323 0.69327 0.0
C95 C 0.12629 0.42326 0.69721 0.0
N96 N 0.1447 0.4038 0.66754 0.0
C97 C 0.14059 0.46326 0.71414 0.0
H98 H 0.05464 0.32 0.66261 0.0
H99 H 0.03538 0.34132 0.70821 0.0
H100 H 0.07637 0.308 0.71246 0.0
H101 H 0.17389 0.46726 0.71343 0.0
H102 H 0.13088 0.4662 0.74618 0.0
H103 H 0.12735 0.48766 0.6949 0.0
Zn104 Zn 0.99655 0.07005 0.58093 0.0
Zn105 Zn 0.09242 0.97685 0.50879 0.0
Zn106 Zn 0.04237 0.02451 0.54381 0.0
C107 C 0.12035 0.05562 0.49027 0.0
C108 C 0.01505 0.96373 0.47136 0.0
O109 O 0.04113 0.0055 0.61093 0.0
O110 O 1.00547 0.05133 0.63847 0.0
C111 C 0.05396 0.12178 0.54518 0.0
O112 O 0.08914 0.06272 0.51101 0.0
O113 O 0.13007 0.01982 0.48608 0.0
O114 O 0.05089 0.95316 0.46996 0.0
O115 O 1.00563 0.98987 0.49745 0.0
O116 O 0.02142 0.12286 0.5639 0.0
O117 O 0.06718 0.08766 0.53559 0.0
O118 O 0.97994 0.01782 0.51417 0.0
O119 O 0.94455 0.05409 0.55426 0.0
C120 C 0.94605 0.03183 0.52372 0.0
O121 O 0.07167 0.98528 0.59249 0.0
O122 O 0.10979 0.94563 0.55887 0.0
C123 C 0.02541 0.02016 0.64269 0.0
C124 C 0.09694 0.95707 0.59248 0.0
Zn125 Zn 0.46192 0.08148 0.03229 0.0
Zn126 Zn 0.56559 0.99215 0.10578 0.0
Zn127 Zn 0.51432 0.0357 0.07041 0.0
C128 C 0.61016 0.03684 0.05104 0.0
C129 C 0.51192 0.93837 0.06863 0.0
O130 O 0.48534 0.07006 0.11903 0.0
O131 O 0.44177 0.10544 0.08203 0.0
C132 C 0.53756 0.107 1.00313 0.0
O133 O 0.57437 0.04836 0.04213 0.0
O134 O 0.61598 0.0132 0.08148 0.0
O135 O 0.54557 0.93933 0.08757 0.0
O136 O 0.4944 0.97143 0.05983 0.0
O137 O 0.50091 0.11491 0.9989 0.0
O138 O 0.54799 0.07782 0.02764 0.0
O139 O 0.46935 0.99613 0.03491 0.0
O140 O 0.42808 0.03878 1.00465 0.0
C141 C 0.43874 1.00314 0.01067 0.0
O142 O 0.51804 0.04954 0.13794 0.0
O143 O 0.55832 1.00355 0.16342 0.0
C144 C 0.45718 0.09542 0.11659 0.0
C145 C 0.53694 0.03295 0.1689 0.0
Zn146 Zn 0.55476 0.60633 0.56949 0.0
Zn147 Zn 0.45464 0.46609 0.45697 0.0
Zn148 Zn 0.48283 0.52405 0.50195 0.0
C149 C 0.5234 0.44039 0.50174 0.0
C150 C 0.47137 0.52806 0.40101 0.0
O151 O 0.44037 0.55053 0.54158 0.0
O152 O 0.49768 0.58122 0.55551 0.0
C153 C 0.56783 0.51733 0.56998 0.0
O154 O 0.52203 0.47514 0.51757 0.0
O155 O 0.49809 0.42941 0.47401 0.0
O156 O 0.45625 0.49243 0.40076 0.0
O157 O 0.48328 0.54371 0.43541 0.0
O158 O 0.58007 0.55249 0.5818 0.0
O159 O 0.53688 0.51071 0.54494 0.0
O160 O 0.50458 0.57029 0.45887 0.0
O161 O 0.5248 0.59228 0.51734 0.0
C162 C 0.52712 0.59547 0.47868 0.0
O163 O 0.42138 0.51368 0.52523 0.0
O164 O 0.40324 0.46145 0.48732 0.0
C165 C 0.4602 0.57756 0.56199 0.0
C166 C 0.39546 0.48524 0.5153 0.0
Zn167 Zn 0.02896 0.58238 0.97748 0.0
Zn168 Zn 0.94694 0.51133 0.09586 0.0
Zn169 Zn 0.98834 0.54777 0.03358 0.0
C170 C 0.02716 0.49242 0.10905 0.0
C171 C 0.91705 0.47889 0.0204 0.0
O172 O 0.97672 0.61422 0.03093 0.0
O173 O 0.0213 0.63898 0.98669 0.0
C174 C 0.08464 0.54503 0.02601 0.0
O175 O 0.03018 0.51479 0.07596 0.0
O176 O 0.99353 0.48664 0.12584 0.0
O177 O 0.91203 0.47659 0.05883 0.0
O178 O 0.94442 0.50356 1.00536 0.0
O179 O 0.08252 0.56289 0.99128 0.0
O180 O 0.05267 0.53789 0.04697 0.0
O181 O 0.97138 0.5187 0.97404 0.0
O182 O 1.00198 0.55944 0.92857 0.0
C183 C 0.97992 0.52835 0.9364 0.0
O184 O 0.95798 0.59563 0.06571 0.0
O185 O 0.92573 0.56193 0.11573 0.0
C186 C 0.99358 0.64459 0.01106 0.0
C187 C 0.93537 0.59489 0.09731 0.0
H188 H 0.16416 0.19308 0.27278 0.0
H189 H 0.27368 0.22567 0.34058 0.0
H190 H 0.14121 0.15015 0.33086 0.0
H191 H 0.25134 0.18153 0.39889 0.0
H192 H 0.19858 0.05829 0.46707 0.0
H193 H 0.22983 0.10372 0.41508 0.0
H194 H 0.12181 0.17013 0.40533 0.0
H195 H 0.09062 0.125 0.45739 0.0
C196 C 0.1836 0.19025 0.29998 0.0
C197 C 0.22038 0.21278 0.30262 0.0
C198 C 0.1704 0.1661 0.33327 0.0
C199 C 0.19409 0.16335 0.3697 0.0
C200 C 0.23237 0.18347 0.37126 0.0
C201 C 0.24533 0.20828 0.33794 0.0
C202 C 0.18192 0.08326 0.4546 0.0
C203 C 0.14213 0.08811 0.46636 0.0
C204 C 0.19983 0.10919 0.42487 0.0
C205 C 0.17801 0.13998 0.40581 0.0
C206 C 0.13912 0.14629 0.41928 0.0
C207 C 0.12144 0.12077 0.44946 0.0
H208 H 0.39784 0.87956 0.7884 0.0
H209 H 0.28766 0.84335 0.84846 0.0
H210 H 0.42141 0.91688 0.84889 0.0
H211 H 0.31064 0.88192 0.90916 0.0
H212 H 0.36029 0.99783 0.98386 0.0
H213 H 0.33057 0.95549 0.9295 0.0
H214 H 0.44222 0.8959 0.92317 0.0
H215 H 0.47192 0.93818 0.97772 0.0
C216 C 0.37846 0.88017 0.8145 0.0
C217 C 0.34116 0.85833 0.81402 0.0
C218 C 0.39205 0.90117 0.84925 0.0
C219 C 0.36834 0.90154 0.88423 0.0
C220 C 0.32975 0.88188 0.8828 0.0
C221 C 0.31638 0.86022 0.84802 0.0
C222 C 0.37814 0.97491 0.97164 0.0
C223 C 0.41845 0.97126 0.98524 0.0
C224 C 0.36109 0.9507 0.94047 0.0
C225 C 0.38419 0.92278 0.92161 0.0
C226 C 0.4238 0.91754 0.93679 0.0
C227 C 0.44067 0.94135 0.96844 0.0
H228 H 0.72641 0.34556 0.69394 0.0
H229 H 0.62278 0.35739 0.76786 0.0
H230 H 0.69473 0.3853 0.6378 0.0
H231 H 0.59105 0.39684 0.71263 0.0
H232 H 0.53106 0.44905 0.60146 0.0
H233 H 0.56178 0.39601 0.64337 0.0
H234 H 0.67878 0.45659 0.62854 0.0
H235 H 0.64791 0.50901 0.58559 0.0
C236 C 0.69654 0.35613 0.69766 0.0
C237 C 0.67667 0.34823 0.7347 0.0
C238 C 0.67852 0.37893 0.66585 0.0
C239 C 0.6403 0.3941 0.67071 0.0
C240 C 0.62008 0.38494 0.70746 0.0
C241 C 0.63815 0.36236 0.73912 0.0
C242 C 0.56348 0.45031 0.6062 0.0
C243 C 0.58725 0.4827 0.58994 0.0
C244 C 0.58103 0.42023 0.63054 0.0
C245 C 0.62269 0.4222 0.63948 0.0
C246 C 0.64669 0.45386 0.62178 0.0
C247 C 0.62906 0.484 0.59745 0.0
H248 H 0.7957 0.7663 0.21966 0.0
H249 H 0.88869 0.72551 0.30357 0.0
H250 H 0.83005 0.73933 0.16182 0.0
H251 H 0.92363 0.69858 0.24576 0.0
H252 H 0.85838 0.6132 0.10738 0.0
H253 H 0.83458 0.6644 0.15143 0.0
H254 H 0.95715 0.70919 0.17432 0.0
H255 H 0.98085 0.65811 0.12885 0.0
C256 C 0.82441 0.75293 0.22534 0.0
C257 C 0.83958 0.7478 0.26588 0.0
C258 C 0.84394 0.73726 0.19238 0.0
C259 C 0.87929 0.71635 0.19925 0.0
C260 C 0.89659 0.71475 0.23939 0.0
C261 C 0.87677 0.73026 0.27249 0.0
C262 C 0.88006 0.63502 0.12052 0.0
C263 C 0.92131 0.63209 0.11441 0.0
C264 C 0.8665 0.66434 0.14583 0.0
C265 C 0.894 0.69083 0.16653 0.0
C266 C 0.93528 0.68918 0.15883 0.0
C267 C 0.9488 0.66028 0.13256 0.0
H268 H 0.33949 0.266 0.26224 0.0
H269 H 0.25329 0.17131 0.22742 0.0
H270 H 0.39469 0.22487 0.24376 0.0
H271 H 0.30813 0.12999 0.20786 0.0
H272 H 0.41326 0.05864 0.17817 0.0
H273 H 0.36829 0.09245 0.22295 0.0
H274 H 0.41715 0.20791 0.17773 0.0
H275 H 0.4616 0.17407 0.1338 0.0
C276 C 0.33258 0.23591 0.25137 0.0
C277 C 0.29236 0.22178 0.24597 0.0
C278 C 0.36407 0.21239 0.24054 0.0
C279 C 0.35603 0.17422 0.22365 0.0
C280 C 0.31566 0.15901 0.22106 0.0
C281 C 0.28416 0.18259 0.23216 0.0
C282 C 0.4155 0.09119 0.17943 0.0
C283 C 0.44127 0.11381 0.15307 0.0
C284 C 0.38932 0.11062 0.20451 0.0
C285 C 0.38866 0.15302 0.20379 0.0
C286 C 0.41693 0.17533 0.17971 0.0
C287 C 0.44264 0.15596 0.15452 0.0
H288 H 0.22131 0.80635 0.77277 0.0
H289 H 0.30121 0.90562 0.73505 0.0
H290 H 0.16359 0.84167 0.74397 0.0
H291 H 0.24352 0.94156 0.70634 0.0
H292 H 0.12654 0.99761 0.65991 0.0
H293 H 0.17183 0.97125 0.7146 0.0
H294 H 0.15397 0.85233 0.66561 0.0
H295 H 0.11015 0.87879 0.61077 0.0
C296 C 0.22614 0.83669 0.76014 0.0
C297 C 0.26552 0.85338 0.75612 0.0
C298 C 0.19324 0.85674 0.74328 0.0
C299 C 0.19903 0.89416 0.72235 0.0
C300 C 0.23802 0.91288 0.72246 0.0
C301 C 0.27105 0.89252 0.7391 0.0
C302 C 0.13139 0.96563 0.66177 0.0
C303 C 0.1148 0.94015 0.63121 0.0
C304 C 0.15753 0.95064 0.69281 0.0
C305 C 0.16653 0.90972 0.69442 0.0
C306 C 0.14738 0.88389 0.66557 0.0
C307 C 0.12225 0.899 0.63411 0.0
H308 H 0.71531 0.34701 0.90459 0.0
H309 H 0.8133 0.33038 0.82436 0.0
H310 H 0.76221 0.38024 0.95401 0.0
H311 H 0.8601 0.36521 0.87282 0.0
H312 H 0.90025 0.4881 0.93746 0.0
H313 H 0.8589 0.44307 0.89357 0.0
H314 H 0.82985 0.36691 0.99959 0.0
H315 H 0.87338 0.41044 0.04312 0.0
C316 C 0.74708 0.34914 0.89831 0.0
C317 C 0.76092 0.33578 0.86101 0.0
C318 C 0.77383 0.36856 0.92627 0.0
C319 C 0.8146 0.37559 0.91688 0.0
C320 C 0.82873 0.36041 0.88055 0.0
C321 C 0.80217 0.34032 0.85309 0.0
C322 C 0.88643 0.46101 0.95114 0.0
C323 C 0.89135 0.45226 0.99349 0.0
C324 C 0.86231 0.43548 0.92614 0.0
C325 C 0.8416 0.40134 0.94325 0.0
C326 C 0.84566 0.39297 0.9857 0.0
C327 C 0.87052 0.41799 0.01052 0.0
H328 H 0.6864 0.73218 0.30942 0.0
H329 H 0.75915 0.70515 0.41785 0.0
H330 H 0.62703 0.70021 0.34255 0.0
H331 H 0.7001 0.67386 0.45142 0.0
H332 H 0.57794 0.65414 0.51203 0.0
H333 H 0.6338 0.69175 0.47862 0.0
H334 H 0.60472 0.63026 0.36564 0.0
H335 H 0.54988 0.59224 0.39908 0.0
C336 C 0.6895 0.71938 0.34035 0.0
C337 C 0.72706 0.72117 0.36125 0.0
C338 C 0.65571 0.7012 0.35933 0.0
C339 C 0.65889 0.68479 0.39971 0.0
C340 C 0.69653 0.68688 0.42061 0.0
C341 C 0.73029 0.70469 0.40147 0.0
C342 C 0.58335 0.64888 0.48001 0.0
C343 C 0.55911 0.62053 0.45808 0.0
C344 C 0.61535 0.67032 0.46092 0.0
C345 C 0.62354 0.66403 0.41946 0.0
C346 C 0.59877 0.63629 0.39738 0.0
C347 C 0.56715 0.61461 0.41655 0.0
H348 H 0.18353 0.29745 0.15795 0.0
H349 H 0.21238 0.37412 0.25997 0.0
H350 H 0.14146 0.34891 0.12594 0.0
H351 H 0.17078 0.42622 0.22821 0.0
H352 H 0.04594 0.4749 0.1896 0.0
H353 H 0.09845 0.43214 0.21722 0.0
H354 H 0.13875 0.41634 0.09395 0.0
H355 H 0.08527 0.45819 0.06639 0.0
C356 C 0.18151 0.3259 0.17285 0.0
C357 C 0.20101 0.33217 0.21116 0.0
C358 C 0.15755 0.3554 0.15466 0.0
C359 C 0.15248 0.39169 0.17462 0.0
C360 C 0.17356 0.39845 0.21225 0.0
C361 C 0.19759 0.36895 0.2303 0.0
C362 C 0.0664 0.46272 0.16851 0.0
C363 C 0.06193 0.47044 0.12592 0.0
C364 C 0.0967 0.43842 0.18432 0.0
C365 C 0.12299 0.42081 0.15785 0.0
C366 C 0.11893 0.4292 0.11522 0.0
C367 C 0.08864 0.45361 0.09944 0.0
H368 H 0.73166 0.22614 0.85953 0.0
H369 H 0.6433 0.31326 0.87771 0.0
H370 H 0.6959 0.17814 0.90693 0.0
H371 H 0.60746 0.2659 0.9246 0.0
H372 H 0.61782 0.12319 0.02323 0.0
H373 H 0.66547 0.1695 0.9867 0.0
H374 H 0.57158 0.19777 0.89743 0.0
H375 H 0.52486 0.15044 0.93235 0.0
C376 C 0.70557 0.23544 0.87512 0.0
C377 C 0.6902 0.27323 0.86563 0.0
C378 C 0.68505 0.2081 0.90191 0.0
C379 C 0.64873 0.21828 0.91891 0.0
C380 C 0.63524 0.25725 0.91164 0.0
C381 C 0.6558 0.28442 0.88527 0.0
C382 C 0.60785 0.13818 0.995 0.0
C383 C 0.56777 0.13249 0.98026 0.0
C384 C 0.63495 0.16505 0.97447 0.0
C385 C 0.62198 0.18741 0.93958 0.0
C386 C 0.58217 0.18124 0.9246 0.0
C387 C 0.55547 0.15407 0.94458 0.0
H388 H 0.84486 0.84347 0.29287 0.0
H389 H 0.87246 0.76387 0.39582 0.0
H390 H 0.89218 0.89582 0.32171 0.0
H391 H 0.9184 0.81605 0.42528 0.0
H392 H 0.93649 0.94171 0.48744 0.0
H393 H 0.89122 0.89659 0.44675 0.0
H394 H 0.97972 0.89489 0.35283 0.0
H395 H 0.02537 0.93917 0.39371 0.0
C396 C 0.86213 0.83685 0.32085 0.0
C397 C 0.85545 0.79985 0.34219 0.0
C398 C 0.88858 0.86678 0.3376 0.0
C399 C 0.90799 0.86001 0.37609 0.0
C400 C 0.90323 0.82207 0.39589 0.0
C401 C 0.8775 0.79217 0.37887 0.0
C402 C 0.9458 0.93262 0.45764 0.0
C403 C 0.98445 0.94377 0.44381 0.0
C404 C 0.92007 0.9067 0.43452 0.0
C405 C 0.93227 0.89235 0.39686 0.0
C406 C 0.96971 0.90573 0.38168 0.0
C407 C 0.99573 0.93092 0.40514 0.0
H408 H 0.30572 0.7058 0.72269 0.0
H409 H 0.41065 0.78455 0.70281 0.0
H410 H 0.33442 0.6542 0.68179 0.0
H411 H 0.43954 0.73357 0.6618 0.0
H412 H 0.49747 0.6215 0.62274 0.0
H413 H 0.46785 0.66839 0.66769 0.0
H414 H 0.35077 0.64121 0.61095 0.0
H415 H 0.3806 0.59409 0.56603 0.0
C416 C 0.33496 0.7119 0.70947 0.0
C417 C 0.35616 0.74889 0.71596 0.0
C418 C 0.35137 0.68255 0.68598 0.0
C419 C 0.38941 0.6896 0.66854 0.0
C420 C 0.41055 0.72671 0.67533 0.0
C421 C 0.39409 0.75598 0.69874 0.0
C422 C 0.46534 0.62528 0.62008 0.0
C423 C 0.44129 0.6037 0.59114 0.0
C424 C 0.44837 0.65236 0.64571 0.0
C425 C 0.4069 0.65881 0.6429 0.0
C426 C 0.3827 0.63661 0.61442 0.0
C427 C 0.39974 0.60944 0.58875 0.0
H428 H 0.89845 0.89027 0.82053 0.0
H429 H 0.97026 0.97112 0.89687 0.0
H430 H 0.9446 0.90369 0.76408 0.0
H431 H 0.01798 0.98355 0.84149 0.0
H432 H 0.02651 0.05538 0.71645 0.0
H433 H 0.00814 0.02408 0.78182 0.0
H434 H 1.00699 0.90671 0.72817 0.0
H435 H 0.02478 0.93886 0.66169 0.0
C436 C 0.92544 0.9093 0.82574 0.0
C437 C 0.93107 0.92972 0.8627 0.0
C438 C 0.95198 0.91711 0.79346 0.0
C439 C 0.98476 0.94543 0.79776 0.0
C440 C 0.9926 0.96231 0.83664 0.0
C441 C 0.9657 0.9549 0.86859 0.0
C442 C 0.02357 0.02279 0.71886 0.0
C443 C 0.02658 0.99964 0.68383 0.0
C444 C 0.01323 0.00464 0.75661 0.0
C445 C 1.00546 0.96271 0.76046 0.0
C446 C 0.0121 0.93913 0.72622 0.0
C447 C 0.02275 0.95746 0.68823 0.0
H448 H 0.68957 0.15744 0.33763 0.0
H449 H 0.61081 0.09263 0.42183 0.0
H450 H 0.64999 0.12965 0.2791 0.0
H451 H 0.57078 0.06476 0.36386 0.0
H452 H 0.5397 0.99407 0.24323 0.0
H453 H 0.57274 0.0201 0.30556 0.0
H454 H 0.58124 0.13914 0.24832 0.0
H455 H 0.54812 0.11274 0.18558 0.0
C456 C 0.66467 0.13592 0.34339 0.0
C457 C 0.65362 0.12626 0.3839 0.0
C458 C 0.64139 0.12082 0.3101 0.0
C459 C 0.60669 0.09565 0.31684 0.0
C460 C 0.59725 0.08405 0.35755 0.0
C461 C 0.6204 0.09941 0.39072 0.0
C462 C 0.54714 0.02613 0.2446 0.0
C463 C 0.54132 0.0514 0.20961 0.0
C464 C 0.56643 0.04099 0.2802 0.0
C465 C 0.58063 0.08145 0.28151 0.0
C466 C 0.57152 0.10756 0.24784 0.0
C467 C 0.55176 0.09269 0.21224 0.0
H468 H 0.49299 0.60239 0.14538 0.0
H469 H 0.39752 0.66608 0.19537 0.0
H470 H 0.51895 0.5869 0.21515 0.0
H471 H 0.42278 0.65084 0.26502 0.0
H472 H 0.4716 0.60997 0.38887 0.0
H473 H 0.47364 0.64798 0.32305 0.0
H474 H 0.48117 0.53674 0.25929 0.0
H475 H 0.47962 0.49911 0.32471 0.0
C476 C 0.4792 0.61523 0.17134 0.0
C477 C 0.44357 0.63556 0.16535 0.0
C478 C 0.49354 0.60587 0.21123 0.0
C479 C 0.47229 0.6168 0.24556 0.0
C480 C 0.43994 0.64207 0.2393 0.0
C481 C 0.42564 0.65127 0.1994 0.0
C482 C 0.47442 0.59382 0.36078 0.0
C483 C 0.47534 0.55157 0.36184 0.0
C484 C 0.47561 0.61557 0.32317 0.0
C485 C 0.47798 0.59545 0.286 0.0
C486 C 0.48025 0.55331 0.28738 0.0
C487 C 0.47875 0.53163 0.32482 0.0
H488 H 0.1076 0.39371 0.79238 0.0
H489 H 0.02002 0.42888 0.69974 0.0
H490 H 0.06439 0.41483 0.84646 0.0
H491 H 0.9758 0.44961 0.75354 0.0
H492 H 0.96365 0.54645 0.85592 0.0
H493 H 0.9814 0.50617 0.79886 0.0
H494 H 1.00132 0.40568 0.88338 0.0
H495 H 0.98391 0.44663 0.94079 0.0
C496 C 0.07861 0.40542 0.78394 0.0
C497 C 0.067 0.41031 0.7424 0.0
C498 C 0.0536 0.41705 0.81471 0.0
C499 C 0.01646 0.43384 0.80438 0.0
C500 C 1.00425 0.43703 0.76255 0.0
C501 C 0.02937 0.42532 0.73182 0.0
C502 C 0.97 0.51516 0.86205 0.0
C503 C 0.97301 0.49983 0.90275 0.0
C504 C 0.98026 0.49198 0.8293 0.0
C505 C 0.9939 0.45303 0.83669 0.0
C506 C 0.99183 0.43595 0.87685 0.0
C507 C 0.98129 0.45917 0.90968 0.0
H508 H 0.762 0.93549 0.89918 0.0
H509 H 0.84559 0.02737 0.946 0.0
H510 H 0.7057 0.97127 0.92426 0.0
H511 H 0.78936 0.06383 0.97114 0.0
H512 H 0.68873 0.0504 0.07295 0.0
H513 H 0.74583 0.04279 0.0295 0.0
H514 H 0.66525 0.03288 0.92299 0.0
H515 H 0.60778 0.04069 0.96693 0.0
C516 C 0.76799 0.96399 0.91399 0.0
C517 C 0.80775 0.97871 0.92112 0.0
C518 C 0.73591 0.98471 0.928 0.0
C519 C 0.74308 0.02041 0.94975 0.0
C520 C 0.78292 0.03636 0.95461 0.0
C521 C 0.81501 0.01569 0.94024 0.0
C522 C 0.68338 0.04817 0.04001 0.0
C523 C 0.64394 0.04565 0.02331 0.0
C524 C 0.71612 0.04395 0.01502 0.0
C525 C 0.70999 0.03657 0.97289 0.0
C526 C 0.67078 0.03805 0.95547 0.0
C527 C 0.63796 0.04283 0.98051 0.0
H528 H 0.78011 0.17087 0.41174 0.0
H529 H 0.69905 0.07316 0.45111 0.0
H530 H 0.83707 0.12775 0.42154 0.0
H531 H 0.75591 0.02918 0.46063 0.0
H532 H 0.87094 0.01033 0.54823 0.0
H533 H 0.80885 0.03052 0.51402 0.0
H534 H 0.87503 0.06906 0.40624 0.0
H535 H 0.93755 0.04852 0.44105 0.0
C536 C 0.77451 0.13961 0.42118 0.0
C537 C 0.73542 0.12529 0.4309 0.0
C538 C 0.80706 0.11473 0.42664 0.0
C539 C 0.80131 0.07491 0.44227 0.0
C540 C 0.76157 0.05976 0.44896 0.0
C541 C 0.72894 0.08471 0.4432 0.0
C542 C 0.87191 0.02122 0.51645 0.0
C543 C 0.90906 0.0278 0.49731 0.0
C544 C 0.83623 0.033 0.49676 0.0
C545 C 0.83685 0.05221 0.45755 0.0
C546 C 0.8735 0.05493 0.43669 0.0
C547 C 0.90928 0.04259 0.45634 0.0
H548 H 0.34379 0.5312 0.0577 0.0
H549 H 0.30032 0.62838 0.12527 0.0
H550 H 0.27455 0.50202 0.04949 0.0
H551 H 0.2314 0.60053 0.11676 0.0
H552 H 0.11119 0.54682 0.10627 0.0
H553 H 0.18131 0.54676 0.13105 0.0
H554 H 0.21819 0.5253 1.00758 0.0
H555 H 0.1483 0.52373 0.9835 0.0
C556 C 0.3192 0.5459 0.07097 0.0
C557 C 0.32647 0.58207 0.09137 0.0
C558 C 0.27985 0.52936 0.06651 0.0
C559 C 0.24752 0.54895 0.08252 0.0
C560 C 0.25556 0.58423 0.1047 0.0
C561 C 0.29473 0.60058 0.10908 0.0
C562 C 0.13422 0.54049 0.08492 0.0
C563 C 0.12461 0.53568 0.04298 0.0
C564 C 0.17433 0.54075 0.09897 0.0
C565 C 0.20531 0.5368 0.0711 0.0
C566 C 0.19512 0.52823 0.02992 0.0
C567 C 0.15511 0.52777 0.01599 0.0
H568 H 0.21124 0.36233 0.65812 0.0
H569 H 0.15911 0.47613 0.6288 0.0
H570 H 0.27174 0.38504 0.6211 0.0
H571 H 0.22077 0.49984 0.59389 0.0
H572 H 0.3673 0.52467 0.58154 0.0
H573 H 0.30534 0.50757 0.619 0.0
H574 H 0.27698 0.40928 0.53796 0.0
H575 H 0.3371 0.42698 0.4996 0.0
C576 C 0.21273 0.39212 0.64367 0.0
C577 C 0.18047 0.41739 0.64608 0.0
C578 C 0.24742 0.40526 0.62298 0.0
C579 C 0.25085 0.44426 0.60508 0.0
C580 C 0.21894 0.46985 0.60798 0.0
C581 C 0.18384 0.45634 0.62792 0.0
C582 C 0.34738 0.50012 0.57112 0.0
C583 C 0.35716 0.4776 0.53726 0.0
C584 C 0.31213 0.49018 0.59271 0.0
C585 C 0.28675 0.45699 0.58133 0.0
C586 C 0.29626 0.43482 0.54742 0.0
C587 C 0.33077 0.44517 0.52545 0.0
H588 H 0.85172 0.82773 0.90655 0.0
H589 H 0.95326 0.89887 0.95447 0.0
H590 H 0.87849 0.7669 0.93901 0.0
H591 H 0.97989 0.83866 0.98849 0.0
H592 H 0.03636 0.71462 0.99647 0.0
H593 H 0.00997 0.77863 0.97496 0.0
H594 H 0.88989 0.73239 1.0037 0.0
H595 H 0.91662 0.66711 0.02377 0.0
C596 C 0.8801 0.82999 0.92379 0.0
C597 C 0.9009 0.8675 0.92766 0.0
C598 C 0.8951 0.79544 0.94306 0.0
C599 C 0.93115 0.79776 0.96699 0.0
C600 C 0.95226 0.83549 0.97009 0.0
C601 C 0.93734 0.86995 0.95044 0.0
C602 C 1.00441 0.71837 0.9992 0.0
C603 C 0.9785 0.68564 0.01133 0.0
C604 C 0.98921 0.75527 0.98689 0.0
C605 C 0.94761 0.76062 0.98663 0.0
C606 C 0.92201 0.72899 1.00242 0.0
C607 C 0.93734 0.69178 0.01469 0.0
H608 H 0.46178 0.67987 0.0426 0.0
H609 H 0.39046 0.71826 0.14071 0.0
H610 H 0.48216 0.7501 0.02541 0.0
H611 H 0.41169 0.78869 0.12512 0.0
H612 H 0.43183 0.91375 0.07037 0.0
H613 H 0.40495 0.84356 0.0739 0.0
H614 H 0.52394 0.80307 0.0539 0.0
H615 H 0.55005 0.87239 0.04943 0.0
C616 C 0.45147 0.7036 0.06108 0.0
C617 C 0.42582 0.69412 0.09369 0.0
C618 C 0.46274 0.7437 0.05119 0.0
C619 C 0.4485 0.77512 0.07384 0.0
C620 C 0.42277 0.76534 0.10667 0.0
C621 C 0.41137 0.72515 0.11632 0.0
C622 C 0.45174 0.88974 0.06538 0.0
C623 C 0.493 0.89834 0.05997 0.0
C624 C 0.43658 0.8496 0.06801 0.0
C625 C 0.46247 0.81765 0.06496 0.0
C626 C 0.50305 0.82673 0.05625 0.0
C627 C 0.51808 0.86655 0.05379 0.0
H628 H 0.15053 0.29553 0.68238 0.0
H629 H 0.11456 0.37255 0.58041 0.0
H630 H 0.14758 0.2378 0.63764 0.0
H631 H 0.11144 0.31479 0.5348 0.0
H632 H 0.02683 0.19436 0.52157 0.0
H633 H 0.05916 0.25923 0.53819 0.0
H634 H 0.16754 0.20063 0.57678 0.0
H635 H 0.13477 0.13527 0.55968 0.0
C636 C 0.14345 0.3001 0.64985 0.0
C637 C 0.13255 0.33797 0.63459 0.0
C638 C 0.142 0.26724 0.62409 0.0
C639 C 0.12902 0.2716 0.58261 0.0
C640 C 0.12136 0.31044 0.56663 0.0
C641 C 0.12324 0.34344 0.59249 0.0
C642 C 0.05819 0.19557 0.5318 0.0
C643 C 0.07815 0.15991 0.53995 0.0
C644 C 0.07685 0.23281 0.54124 0.0
C645 C 0.11569 0.23504 0.55961 0.0
C646 C 0.13738 0.19976 0.56315 0.0
C647 C 0.11878 0.1624 0.55308 0.0
H648 H 0.71048 0.2756 0.46478 0.0
H649 H 0.60279 0.20858 0.50185 0.0
H650 H 0.68443 0.33723 0.49035 0.0
H651 H 0.57486 0.26979 0.5241 0.0
H652 H 0.52232 0.37906 0.55891 0.0
H653 H 0.56775 0.32375 0.56354 0.0
H654 H 0.63861 0.38232 0.46713 0.0
H655 H 0.59514 0.43883 0.46589 0.0
C656 C 0.68148 0.27408 0.4791 0.0
C657 C 0.65826 0.23766 0.48082 0.0
C658 C 0.66615 0.30945 0.49322 0.0
C659 C 0.62693 0.30919 0.50861 0.0
C660 C 0.60521 0.27181 0.51297 0.0
C661 C 0.62092 0.23654 0.49968 0.0
C662 C 0.54879 0.38068 0.54022 0.0
C663 C 0.5558 0.41327 0.51257 0.0
C664 C 0.57451 0.34867 0.5422 0.0
C665 C 0.60652 0.34757 0.51486 0.0
C666 C 0.6148 0.38176 0.48908 0.0
C667 C 0.58978 0.41431 0.48815 0.0
loop_
_geom_bond_atom_site_label_1
_geom_bond_atom_site_label_2
_geom_bond_distance
_geom_bond_site_symmetry_2
_ccdc_geom_bond_type
C0 N1 1.317 . S
C0 N2 1.348 . S
C0 C3 1.485 . S
N1 C0 1.317 . S
N1 N5 1.370 . S
N2 C0 1.348 . S
N2 C4 1.346 . S
C3 C0 1.485 . S
C3 H7 0.960 . S
C3 H8 0.961 . S
C3 H9 0.960 . S
C4 N2 1.346 . S
C4 N5 1.307 . S
C4 C6 1.486 . S
N5 N1 1.370 . S
N5 C4 1.307 . S
C6 C4 1.486 . S
C6 H10 0.960 . S
C6 H11 0.960 . S
C6 H12 0.959 . S
H7 C3 0.960 . S
H8 C3 0.961 . S
H9 C3 0.960 . S
H10 C6 0.960 . S
H11 C6 0.960 . S
H12 C6 0.959 . S
C13 N14 1.317 . S
C13 N15 1.348 . S
C13 C16 1.485 . S
N14 C13 1.317 . S
N14 N18 1.370 . S
N15 C13 1.348 . S
N15 C17 1.346 . S
C16 C13 1.485 . S
C16 H20 0.960 . S
C16 H21 0.961 . S
C16 H22 0.960 . S
C17 N15 1.346 . S
C17 N18 1.307 . S
C17 C19 1.486 . S
N18 N14 1.370 . S
N18 C17 1.307 . S
C19 C17 1.486 . S
C19 H23 0.960 . S
C19 H24 0.960 . S
C19 H25 0.959 . S
H20 C16 0.960 . S
H21 C16 0.961 . S
H22 C16 0.960 . S
H23 C19 0.960 . S
H24 C19 0.960 . S
H25 C19 0.959 . S
C26 N27 1.317 . S
C26 N28 1.348 . S
C26 C29 1.485 . S
N27 C26 1.317 . S
N27 N31 1.370 . S
N28 C26 1.348 . S
N28 C30 1.346 . S
C29 C26 1.485 . S
C29 H33 0.960 . S
C29 H34 0.961 . S
C29 H35 0.960 . S
C30 N28 1.346 . S
C30 N31 1.307 . S
C30 C32 1.486 . S
N31 N27 1.370 . S
N31 C30 1.307 . S
C32 C30 1.486 . S
C32 H36 0.960 . S
C32 H37 0.960 . S
C32 H38 0.959 . S
H33 C29 0.960 . S
H34 C29 0.961 . S
H35 C29 0.960 . S
H36 C32 0.960 . S
H37 C32 0.960 . S
H38 C32 0.959 . S
C39 N40 1.317 . S
C39 N41 1.348 . S
C39 C42 1.485 . S
N40 C39 1.317 . S
N40 N44 1.370 . S
N41 C39 1.348 . S
N41 C43 1.346 . S
C42 C39 1.485 . S
C42 H46 0.960 . S
C42 H47 0.961 . S
C42 H48 0.960 . S
C43 N41 1.346 . S
C43 N44 1.307 . S
C43 C45 1.486 . S
N44 N40 1.370 . S
N44 C43 1.307 . S
C45 C43 1.486 . S
C45 H49 0.960 . S
C45 H50 0.960 . S
C45 H51 0.959 . S
H46 C42 0.960 . S
H47 C42 0.961 . S
H48 C42 0.960 . S
H49 C45 0.960 . S
H50 C45 0.960 . S
H51 C45 0.959 . S
C52 N53 1.317 . S
C52 N54 1.348 . S
C52 C55 1.485 1_556 S
N53 C52 1.317 . S
N53 N57 1.370 . S
N54 C52 1.348 . S
N54 C56 1.346 . S
C55 C52 1.485 1_554 S
C55 H59 0.960 . S
C55 H60 0.961 . S
C55 H61 0.960 . S
C56 N54 1.346 . S
C56 N57 1.307 . S
C56 C58 1.486 1_565 S
N57 N53 1.370 . S
N57 C56 1.307 . S
C58 C56 1.486 1_545 S
C58 H62 0.960 . S
C58 H63 0.960 . S
C58 H64 0.959 . S
H59 C55 0.960 . S
H60 C55 0.961 . S
H61 C55 0.960 . S
H62 C58 0.960 . S
H63 C58 0.960 . S
H64 C58 0.959 . S
C65 N66 1.317 . S
C65 N67 1.348 . S
C65 C68 1.485 . S
N66 C65 1.317 . S
N66 N70 1.370 . S
N67 C65 1.348 . S
N67 C69 1.346 . S
C68 C65 1.485 . S
C68 H72 0.960 . S
C68 H73 0.961 . S
C68 H74 0.960 . S
C69 N67 1.346 . S
C69 N70 1.307 . S
C69 C71 1.486 . S
N70 N66 1.370 . S
N70 C69 1.307 . S
C71 C69 1.486 . S
C71 H75 0.960 . S
C71 H76 0.960 . S
C71 H77 0.959 . S
H72 C68 0.960 . S
H73 C68 0.961 . S
H74 C68 0.960 . S
H75 C71 0.960 . S
H76 C71 0.960 . S
H77 C71 0.959 . S
C78 N79 1.317 . S
C78 N80 1.348 . S
C78 C81 1.485 . S
N79 C78 1.317 . S
N79 N83 1.370 . S
N80 C78 1.348 . S
N80 C82 1.346 . S
C81 C78 1.485 . S
C81 H85 0.960 . S
C81 H86 0.961 . S
C81 H87 0.960 . S
C82 N80 1.346 . S
C82 N83 1.307 . S
C82 C84 1.486 . S
N83 N79 1.370 . S
N83 C82 1.307 . S
C84 C82 1.486 . S
C84 H88 0.960 . S
C84 H89 0.960 . S
C84 H90 0.959 . S
H85 C81 0.960 . S
H86 C81 0.961 . S
H87 C81 0.960 . S
H88 C84 0.960 . S
H89 C84 0.960 . S
H90 C84 0.959 . S
C91 N92 1.317 . S
C91 N93 1.348 . S
C91 C94 1.485 . S
N92 C91 1.317 . S
N92 N96 1.370 . S
N93 C91 1.348 . S
N93 C95 1.346 . S
C94 C91 1.485 . S
C94 H98 0.963 . S
C94 H99 0.961 . S
C94 H100 0.960 . S
C95 N93 1.346 . S
C95 N96 1.307 . S
C95 C97 1.486 . S
N96 N92 1.370 . S
N96 C95 1.307 . S
C97 C95 1.486 . S
C97 H101 0.960 . S
C97 H102 0.960 . S
C97 H103 0.959 . S
H98 C94 0.963 . S
H99 C94 0.961 . S
H100 C94 0.960 . S
H101 C97 0.960 . S
H102 C97 0.960 . S
H103 C97 0.959 . S
Zn104 O110 1.920 . S
Zn104 O116 1.898 1_655 S
Zn104 O119 1.905 . S
Zn105 O113 1.905 1_565 S
Zn105 O114 1.898 . S
Zn105 O122 1.920 . S
Zn106 O109 2.080 . S
Zn106 O112 2.114 . S
Zn106 O115 2.120 1_545 S
Zn106 O117 2.120 . S
Zn106 O118 2.114 1_455 S
Zn106 O121 2.080 . S
C107 O112 1.166 . S
C107 O113 1.182 . S
C108 O114 1.167 . S
C108 O115 1.299 . S
O109 Zn106 2.080 . S
O109 C123 1.305 . S
O110 Zn104 1.920 . S
O110 C123 1.234 1_655 S
C111 O116 1.167 . S
C111 O117 1.299 . S
O112 Zn106 2.114 . S
O112 C107 1.166 . S
O113 Zn105 1.905 1_545 S
O113 C107 1.182 . S
O114 Zn105 1.898 . S
O114 C108 1.167 . S
O115 Zn106 2.120 1_565 S
O115 C108 1.299 . S
O116 Zn104 1.898 1_455 S
O116 C111 1.167 . S
O117 Zn106 2.120 . S
O117 C111 1.299 . S
O118 Zn106 2.114 1_655 S
O118 C120 1.166 . S
O119 Zn104 1.905 . S
O119 C120 1.182 . S
C120 O118 1.166 . S
C120 O119 1.182 . S
O121 Zn106 2.080 . S
O121 C124 1.305 1_545 S
O122 Zn105 1.920 . S
O122 C124 1.234 . S
C123 O109 1.305 . S
C123 O110 1.234 1_455 S
C124 O121 1.305 1_565 S
C124 O122 1.234 . S
Zn125 O131 1.920 . S
Zn125 O137 1.898 1_554 S
Zn125 O140 1.905 1_554 S
Zn126 O134 1.905 . S
Zn126 O135 1.898 . S
Zn126 O143 1.920 . S
Zn127 O130 2.080 . S
Zn127 O133 2.114 1_545 S
Zn127 O136 2.120 1_545 S
Zn127 O138 2.120 . S
Zn127 O139 2.114 . S
Zn127 O142 2.080 . S
C128 O133 1.166 . S
C128 O134 1.182 . S
C129 O135 1.167 . S
C129 O136 1.299 . S
O130 Zn127 2.080 . S
O130 C144 1.305 . S
O131 Zn125 1.920 . S
O131 C144 1.234 . S
C132 O137 1.167 1_554 S
C132 O138 1.299 . S
O133 Zn127 2.114 1_565 S
O133 C128 1.166 . S
O134 Zn126 1.905 . S
O134 C128 1.182 . S
O135 Zn126 1.898 . S
O135 C129 1.167 . S
O136 Zn127 2.120 1_565 S
O136 C129 1.299 . S
O137 Zn125 1.898 1_556 S
O137 C132 1.167 1_556 S
O138 Zn127 2.120 . S
O138 C132 1.299 . S
O139 Zn127 2.114 . S
O139 C141 1.166 1_554 S
O140 Zn125 1.905 1_556 S
O140 C141 1.182 . S
C141 O139 1.166 1_556 S
C141 O140 1.182 . S
O142 Zn127 2.080 . S
O142 C145 1.305 . S
O143 Zn126 1.920 . S
O143 C145 1.234 1_565 S
C144 O130 1.305 . S
C144 O131 1.234 . S
C145 O142 1.305 . S
C145 O143 1.234 1_545 S
Zn146 O152 1.920 . S
Zn146 O158 1.898 . S
Zn146 O161 1.905 . S
Zn147 O155 1.905 . S
Zn147 O156 1.898 . S
Zn147 O164 1.920 . S
Zn148 O151 2.080 . S
Zn148 O154 2.114 . S
Zn148 O157 2.120 . S
Zn148 O159 2.120 . S
Zn148 O160 2.114 . S
Zn148 O163 2.080 . S
C149 O154 1.166 . S
C149 O155 1.182 . S
C150 O156 1.167 . S
C150 O157 1.299 . S
O151 Zn148 2.080 . S
O151 C165 1.305 . S
O152 Zn146 1.920 . S
O152 C165 1.234 . S
C153 O158 1.167 . S
C153 O159 1.299 . S
O154 Zn148 2.114 . S
O154 C149 1.166 . S
O155 Zn147 1.905 . S
O155 C149 1.182 . S
O156 Zn147 1.898 . S
O156 C150 1.167 . S
O157 Zn148 2.120 . S
O157 C150 1.299 . S
O158 Zn146 1.898 . S
O158 C153 1.167 . S
O159 Zn148 2.120 . S
O159 C153 1.299 . S
O160 Zn148 2.114 . S
O160 C162 1.166 . S
O161 Zn146 1.905 . S
O161 C162 1.182 . S
C162 O160 1.166 . S
C162 O161 1.182 . S
O163 Zn148 2.080 . S
O163 C166 1.305 . S
O164 Zn147 1.920 . S
O164 C166 1.234 . S
C165 O151 1.305 . S
C165 O152 1.234 . S
C166 O163 1.305 . S
C166 O164 1.234 . S
Zn167 O173 1.920 . S
Zn167 O179 1.898 . S
Zn167 O182 1.905 . S
Zn168 O176 1.905 . S
Zn168 O177 1.898 . S
Zn168 O185 1.920 . S
Zn169 O172 2.080 1_454 S
Zn169 O175 2.114 . S
Zn169 O178 2.120 1_454 S
Zn169 O180 2.120 . S
Zn169 O181 2.114 1_554 S
Zn169 O184 2.080 1_455 S
C170 O175 1.166 . S
C170 O176 1.182 1_455 S
C171 O177 1.167 1_556 S
C171 O178 1.299 . S
O172 Zn169 2.080 1_656 S
O172 C186 1.305 1_655 S
O173 Zn167 1.920 . S
O173 C186 1.234 . S
C174 O179 1.167 1_554 S
C174 O180 1.299 . S
O175 Zn169 2.114 . S
O175 C170 1.166 . S
O176 Zn168 1.905 . S
O176 C170 1.182 1_655 S
O177 Zn168 1.898 . S
O177 C171 1.167 1_554 S
O178 Zn169 2.120 1_656 S
O178 C171 1.299 . S
O179 Zn167 1.898 . S
O179 C174 1.167 1_556 S
O180 Zn169 2.120 . S
O180 C174 1.299 . S
O181 Zn169 2.114 1_556 S
O181 C183 1.166 . S
O182 Zn167 1.905 . S
O182 C183 1.182 . S
C183 O181 1.166 . S
C183 O182 1.182 . S
O184 Zn169 2.080 1_655 S
O184 C187 1.305 . S
O185 Zn168 1.920 . S
O185 C187 1.234 . S
C186 O172 1.305 1_455 S
C186 O173 1.234 . S
C187 O184 1.305 . S
C187 O185 1.234 . S
H188 C196 0.950 . S
H189 C201 0.950 . S
H190 C198 0.950 . S
H191 C200 0.950 . S
H192 C202 0.950 . S
H193 C204 0.950 . S
H194 C206 0.950 . S
H195 C207 0.950 . S
C196 H188 0.950 . S
C196 C197 1.386 . S
C196 C198 1.391 . S
C197 C196 1.386 . S
C197 C201 1.393 . S
C198 H190 0.950 . S
C198 C196 1.391 . S
C198 C199 1.400 . S
C199 C198 1.400 . S
C199 C200 1.398 . S
C199 C205 1.491 . S
C200 H191 0.950 . S
C200 C199 1.398 . S
C200 C201 1.391 . S
C201 H189 0.950 . S
C201 C197 1.393 . S
C201 C200 1.391 . S
C202 H192 0.950 . S
C202 C203 1.386 . S
C202 C204 1.391 . S
C203 C202 1.386 . S
C203 C207 1.393 . S
C204 H193 0.950 . S
C204 C202 1.391 . S
C204 C205 1.400 . S
C205 C199 1.491 . S
C205 C204 1.400 . S
C205 C206 1.398 . S
C206 H194 0.950 . S
C206 C205 1.398 . S
C206 C207 1.391 . S
C207 H195 0.950 . S
C207 C203 1.393 . S
C207 C206 1.391 . S
H208 C216 0.950 . S
H209 C221 0.950 . S
H210 C218 0.950 . S
H211 C220 0.950 . S
H212 C222 0.950 . S
H213 C224 0.950 . S
H214 C226 0.950 . S
H215 C227 0.950 . S
C216 H208 0.950 . S
C216 C217 1.386 . S
C216 C218 1.391 . S
C217 C216 1.386 . S
C217 C221 1.393 . S
C218 H210 0.950 . S
C218 C216 1.391 . S
C218 C219 1.400 . S
C219 C218 1.400 . S
C219 C220 1.398 . S
C219 C225 1.491 . S
C220 H211 0.950 . S
C220 C219 1.398 . S
C220 C221 1.391 . S
C221 H209 0.950 . S
C221 C217 1.393 . S
C221 C220 1.391 . S
C222 H212 0.950 . S
C222 C223 1.386 . S
C222 C224 1.391 . S
C223 C222 1.386 . S
C223 C227 1.393 . S
C224 H213 0.950 . S
C224 C222 1.391 . S
C224 C225 1.400 . S
C225 C219 1.491 . S
C225 C224 1.400 . S
C225 C226 1.398 . S
C226 H214 0.950 . S
C226 C225 1.398 . S
C226 C227 1.391 . S
C227 H215 0.950 . S
C227 C223 1.393 . S
C227 C226 1.391 . S
H228 C236 0.950 . S
H229 C241 0.950 . S
H230 C238 0.950 . S
H231 C240 0.950 . S
H232 C242 0.950 . S
H233 C244 0.950 . S
H234 C246 0.950 . S
H235 C247 0.950 . S
C236 H228 0.950 . S
C236 C237 1.386 . S
C236 C238 1.391 . S
C237 C236 1.386 . S
C237 C241 1.393 . S
C238 H230 0.950 . S
C238 C236 1.391 . S
C238 C239 1.400 . S
C239 C238 1.400 . S
C239 C240 1.398 . S
C239 C245 1.491 . S
C240 H231 0.950 . S
C240 C239 1.398 . S
C240 C241 1.391 . S
C241 H229 0.950 . S
C241 C237 1.393 . S
C241 C240 1.391 . S
C242 H232 0.950 . S
C242 C243 1.386 . S
C242 C244 1.391 . S
C243 C242 1.386 . S
C243 C247 1.393 . S
C244 H233 0.950 . S
C244 C242 1.391 . S
C244 C245 1.400 . S
C245 C239 1.491 . S
C245 C244 1.400 . S
C245 C246 1.398 . S
C246 H234 0.950 . S
C246 C245 1.398 . S
C246 C247 1.391 . S
C247 H235 0.950 . S
C247 C243 1.393 . S
C247 C246 1.391 . S
H248 C256 0.950 . S
H249 C261 0.950 . S
H250 C258 0.950 . S
H251 C260 0.950 . S
H252 C262 0.950 . S
H253 C264 0.950 . S
H254 C266 0.950 . S
H255 C267 0.950 . S
C256 H248 0.950 . S
C256 C257 1.386 . S
C256 C258 1.391 . S
C257 C256 1.386 . S
C257 C261 1.393 . S
C258 H250 0.950 . S
C258 C256 1.391 . S
C258 C259 1.400 . S
C259 C258 1.400 . S
C259 C260 1.398 . S
C259 C265 1.491 . S
C260 H251 0.950 . S
C260 C259 1.398 . S
C260 C261 1.391 . S
C261 H249 0.950 . S
C261 C257 1.393 . S
C261 C260 1.391 . S
C262 H252 0.950 . S
C262 C263 1.386 . S
C262 C264 1.391 . S
C263 C262 1.386 . S
C263 C267 1.393 . S
C264 H253 0.950 . S
C264 C262 1.391 . S
C264 C265 1.400 . S
C265 C259 1.491 . S
C265 C264 1.400 . S
C265 C266 1.398 . S
C266 H254 0.950 . S
C266 C265 1.398 . S
C266 C267 1.391 . S
C267 H255 0.950 . S
C267 C263 1.393 . S
C267 C266 1.391 . S
H268 C276 0.950 . S
H269 C281 0.950 . S
H270 C278 0.950 . S
H271 C280 0.950 . S
H272 C282 0.950 . S
H273 C284 0.950 . S
H274 C286 0.950 . S
H275 C287 0.950 . S
C276 H268 0.950 . S
C276 C277 1.386 . S
C276 C278 1.391 . S
C277 C276 1.386 . S
C277 C281 1.393 . S
C278 H270 0.950 . S
C278 C276 1.391 . S
C278 C279 1.400 . S
C279 C278 1.400 . S
C279 C280 1.398 . S
C279 C285 1.491 . S
C280 H271 0.950 . S
C280 C279 1.398 . S
C280 C281 1.391 . S
C281 H269 0.950 . S
C281 C277 1.393 . S
C281 C280 1.391 . S
C282 H272 0.950 . S
C282 C283 1.386 . S
C282 C284 1.391 . S
C283 C282 1.386 . S
C283 C287 1.393 . S
C284 H273 0.950 . S
C284 C282 1.391 . S
C284 C285 1.400 . S
C285 C279 1.491 . S
C285 C284 1.400 . S
C285 C286 1.398 . S
C286 H274 0.950 . S
C286 C285 1.398 . S
C286 C287 1.391 . S
C287 H275 0.950 . S
C287 C283 1.393 . S
C287 C286 1.391 . S
H288 C296 0.950 . S
H289 C301 0.950 . S
H290 C298 0.950 . S
H291 C300 0.950 . S
H292 C302 0.950 1_545 S
H293 C304 0.950 . S
H294 C306 0.950 . S
H295 C307 0.950 . S
C296 H288 0.950 . S
C296 C297 1.386 . S
C296 C298 1.391 . S
C297 C296 1.386 . S
C297 C301 1.393 . S
C298 H290 0.950 . S
C298 C296 1.391 . S
C298 C299 1.400 . S
C299 C298 1.400 . S
C299 C300 1.398 . S
C299 C305 1.491 . S
C300 H291 0.950 . S
C300 C299 1.398 . S
C300 C301 1.391 . S
C301 H289 0.950 . S
C301 C297 1.393 . S
C301 C300 1.391 . S
C302 H292 0.950 1_565 S
C302 C303 1.386 . S
C302 C304 1.391 . S
C303 C302 1.386 . S
C303 C307 1.393 . S
C304 H293 0.950 . S
C304 C302 1.391 . S
C304 C305 1.400 . S
C305 C299 1.491 . S
C305 C304 1.400 . S
C305 C306 1.398 . S
C306 H294 0.950 . S
C306 C305 1.398 . S
C306 C307 1.391 . S
C307 H295 0.950 . S
C307 C303 1.393 . S
C307 C306 1.391 . S
H308 C316 0.950 . S
H309 C321 0.950 . S
H310 C318 0.950 . S
H311 C320 0.950 . S
H312 C322 0.950 . S
H313 C324 0.950 . S
H314 C326 0.950 . S
H315 C327 0.950 1_554 S
C316 H308 0.950 . S
C316 C317 1.386 . S
C316 C318 1.391 . S
C317 C316 1.386 . S
C317 C321 1.393 . S
C318 H310 0.950 . S
C318 C316 1.391 . S
C318 C319 1.400 . S
C319 C318 1.400 . S
C319 C320 1.398 . S
C319 C325 1.491 . S
C320 H311 0.950 . S
C320 C319 1.398 . S
C320 C321 1.391 . S
C321 H309 0.950 . S
C321 C317 1.393 . S
C321 C320 1.391 . S
C322 H312 0.950 . S
C322 C323 1.386 . S
C322 C324 1.391 . S
C323 C322 1.386 . S
C323 C327 1.393 . S
C324 H313 0.950 . S
C324 C322 1.391 . S
C324 C325 1.400 . S
C325 C319 1.491 . S
C325 C324 1.400 . S
C325 C326 1.398 . S
C326 H314 0.950 . S
C326 C325 1.398 . S
C326 C327 1.391 . S
C327 H315 0.950 1_556 S
C327 C323 1.393 . S
C327 C326 1.391 . S
H328 C336 0.950 . S
H329 C341 0.950 . S
H330 C338 0.950 . S
H331 C340 0.950 . S
H332 C342 0.950 . S
H333 C344 0.950 . S
H334 C346 0.950 . S
H335 C347 0.950 . S
C336 H328 0.950 . S
C336 C337 1.386 . S
C336 C338 1.391 . S
C337 C336 1.386 . S
C337 C341 1.393 . S
C338 H330 0.950 . S
C338 C336 1.391 . S
C338 C339 1.400 . S
C339 C338 1.400 . S
C339 C340 1.398 . S
C339 C345 1.491 . S
C340 H331 0.950 . S
C340 C339 1.398 . S
C340 C341 1.391 . S
C341 H329 0.950 . S
C341 C337 1.393 . S
C341 C340 1.391 . S
C342 H332 0.950 . S
C342 C343 1.386 . S
C342 C344 1.391 . S
C343 C342 1.386 . S
C343 C347 1.393 . S
C344 H333 0.950 . S
C344 C342 1.391 . S
C344 C345 1.400 . S
C345 C339 1.491 . S
C345 C344 1.400 . S
C345 C346 1.398 . S
C346 H334 0.950 . S
C346 C345 1.398 . S
C346 C347 1.391 . S
C347 H335 0.950 . S
C347 C343 1.393 . S
C347 C346 1.391 . S
H348 C356 0.950 . S
H349 C361 0.950 . S
H350 C358 0.950 . S
H351 C360 0.950 . S
H352 C362 0.950 . S
H353 C364 0.950 . S
H354 C366 0.950 . S
H355 C367 0.950 . S
C356 H348 0.950 . S
C356 C357 1.386 . S
C356 C358 1.391 . S
C357 C356 1.386 . S
C357 C361 1.393 . S
C358 H350 0.950 . S
C358 C356 1.391 . S
C358 C359 1.400 . S
C359 C358 1.400 . S
C359 C360 1.398 . S
C359 C365 1.491 . S
C360 H351 0.950 . S
C360 C359 1.398 . S
C360 C361 1.391 . S
C361 H349 0.950 . S
C361 C357 1.393 . S
C361 C360 1.391 . S
C362 H352 0.950 . S
C362 C363 1.386 . S
C362 C364 1.391 . S
C363 C362 1.386 . S
C363 C367 1.393 . S
C364 H353 0.950 . S
C364 C362 1.391 . S
C364 C365 1.400 . S
C365 C359 1.491 . S
C365 C364 1.400 . S
C365 C366 1.398 . S
C366 H354 0.950 . S
C366 C365 1.398 . S
C366 C367 1.391 . S
C367 H355 0.950 . S
C367 C363 1.393 . S
C367 C366 1.391 . S
H368 C376 0.950 . S
H369 C381 0.950 . S
H370 C378 0.950 . S
H371 C380 0.950 . S
H372 C382 0.950 . S
H373 C384 0.950 1_554 S
H374 C386 0.950 . S
H375 C387 0.950 . S
C376 H368 0.950 . S
C376 C377 1.386 . S
C376 C378 1.391 . S
C377 C376 1.386 . S
C377 C381 1.393 . S
C378 H370 0.950 . S
C378 C376 1.391 . S
C378 C379 1.400 . S
C379 C378 1.400 . S
C379 C380 1.398 . S
C379 C385 1.491 . S
C380 H371 0.950 . S
C380 C379 1.398 . S
C380 C381 1.391 . S
C381 H369 0.950 . S
C381 C377 1.393 . S
C381 C380 1.391 . S
C382 H372 0.950 . S
C382 C383 1.379 1_554 S
C382 C384 1.391 1_554 S
C383 C382 1.379 1_556 S
C383 C387 1.411 . S
C384 H373 0.950 1_556 S
C384 C382 1.391 1_556 S
C384 C385 1.400 . S
C385 C379 1.491 . S
C385 C384 1.400 . S
C385 C386 1.398 . S
C386 H374 0.950 . S
C386 C385 1.398 . S
C386 C387 1.391 . S
C387 H375 0.950 . S
C387 C383 1.411 . S
C387 C386 1.391 . S
H388 C396 0.950 . S
H389 C401 0.950 . S
H390 C398 0.950 . S
H391 C400 0.950 . S
H392 C402 0.950 . S
H393 C404 0.950 . S
H394 C406 0.950 . S
H395 C407 0.950 . S
C396 H388 0.950 . S
C396 C397 1.386 . S
C396 C398 1.391 . S
C397 C396 1.386 . S
C397 C401 1.393 . S
C398 H390 0.950 . S
C398 C396 1.391 . S
C398 C399 1.400 . S
C399 C398 1.400 . S
C399 C400 1.398 . S
C399 C405 1.491 . S
C400 H391 0.950 . S
C400 C399 1.398 . S
C400 C401 1.391 . S
C401 H389 0.950 . S
C401 C397 1.393 . S
C401 C400 1.391 . S
C402 H392 0.950 . S
C402 C403 1.386 . S
C402 C404 1.391 . S
C403 C402 1.386 . S
C403 C407 1.393 . S
C404 H393 0.950 . S
C404 C402 1.391 . S
C404 C405 1.400 . S
C405 C399 1.491 . S
C405 C404 1.400 . S
C405 C406 1.398 . S
C406 H394 0.950 . S
C406 C405 1.398 . S
C406 C407 1.391 . S
C407 H395 0.950 . S
C407 C403 1.393 . S
C407 C406 1.391 . S
H408 C416 0.950 . S
H409 C421 0.950 . S
H410 C418 0.950 . S
H411 C420 0.950 . S
H412 C422 0.950 . S
H413 C424 0.950 . S
H414 C426 0.950 . S
H415 C427 0.950 . S
C416 H408 0.950 . S
C416 C417 1.386 . S
C416 C418 1.391 . S
C417 C416 1.386 . S
C417 C421 1.393 . S
C418 H410 0.950 . S
C418 C416 1.391 . S
C418 C419 1.400 . S
C419 C418 1.400 . S
C419 C420 1.398 . S
C419 C425 1.491 . S
C420 H411 0.950 . S
C420 C419 1.398 . S
C420 C421 1.391 . S
C421 H409 0.950 . S
C421 C417 1.393 . S
C421 C420 1.391 . S
C422 H412 0.950 . S
C422 C423 1.386 . S
C422 C424 1.391 . S
C423 C422 1.386 . S
C423 C427 1.393 . S
C424 H413 0.950 . S
C424 C422 1.391 . S
C424 C425 1.400 . S
C425 C419 1.491 . S
C425 C424 1.400 . S
C425 C426 1.398 . S
C426 H414 0.950 . S
C426 C425 1.398 . S
C426 C427 1.391 . S
C427 H415 0.950 . S
C427 C423 1.393 . S
C427 C426 1.391 . S
H428 C436 0.950 . S
H429 C441 0.950 . S
H430 C438 0.950 1_455 S
H431 C440 0.950 . S
H432 C442 0.950 . S
H433 C444 0.950 . S
H434 C446 0.950 . S
H435 C447 0.950 . S
C436 H428 0.950 . S
C436 C437 1.386 . S
C436 C438 1.391 . S
C437 C436 1.386 . S
C437 C441 1.393 1_565 S
C438 H430 0.950 1_655 S
C438 C436 1.391 . S
C438 C439 1.400 . S
C439 C438 1.400 . S
C439 C440 1.398 1_565 S
C439 C445 1.491 . S
C440 H431 0.950 . S
C440 C439 1.398 1_545 S
C440 C441 1.391 . S
C441 H429 0.950 . S
C441 C437 1.393 1_545 S
C441 C440 1.391 . S
C442 H432 0.950 . S
C442 C443 1.401 1_655 S
C442 C444 1.391 . S
C443 C442 1.401 1_455 S
C443 C447 1.376 1_545 S
C444 H433 0.950 . S
C444 C442 1.391 . S
C444 C445 1.400 1_545 S
C445 C439 1.491 . S
C445 C444 1.400 1_565 S
C445 C446 1.398 1_655 S
C446 H434 0.950 . S
C446 C445 1.398 1_455 S
C446 C447 1.391 . S
C447 H435 0.950 . S
C447 C443 1.376 1_565 S
C447 C446 1.391 . S
H448 C456 0.950 . S
H449 C461 0.950 . S
H450 C458 0.950 . S
H451 C460 0.950 . S
H452 C462 0.950 . S
H453 C464 0.950 . S
H454 C466 0.950 . S
H455 C467 0.950 . S
C456 H448 0.950 . S
C456 C457 1.386 . S
C456 C458 1.391 . S
C457 C456 1.386 . S
C457 C461 1.393 . S
C458 H450 0.950 . S
C458 C456 1.391 . S
C458 C459 1.400 . S
C459 C458 1.400 . S
C459 C460 1.398 . S
C459 C465 1.491 . S
C460 H451 0.950 . S
C460 C459 1.398 . S
C460 C461 1.391 . S
C461 H449 0.950 . S
C461 C457 1.393 . S
C461 C460 1.391 . S
C462 H452 0.950 . S
C462 C463 1.386 . S
C462 C464 1.391 . S
C463 C462 1.386 . S
C463 C467 1.393 . S
C464 H453 0.950 . S
C464 C462 1.391 . S
C464 C465 1.400 . S
C465 C459 1.491 . S
C465 C464 1.400 . S
C465 C466 1.398 . S
C466 H454 0.950 . S
C466 C465 1.398 . S
C466 C467 1.391 . S
C467 H455 0.950 . S
C467 C463 1.393 . S
C467 C466 1.391 . S
H468 C476 0.950 . S
H469 C481 0.950 . S
H470 C478 0.950 . S
H471 C480 0.950 . S
H472 C482 0.950 . S
H473 C484 0.950 . S
H474 C486 0.950 . S
H475 C487 0.950 . S
C476 H468 0.950 . S
C476 C477 1.386 . S
C476 C478 1.391 . S
C477 C476 1.386 . S
C477 C481 1.393 . S
C478 H470 0.950 . S
C478 C476 1.391 . S
C478 C479 1.400 . S
C479 C478 1.400 . S
C479 C480 1.398 . S
C479 C485 1.491 . S
C480 H471 0.950 . S
C480 C479 1.398 . S
C480 C481 1.391 . S
C481 H469 0.950 . S
C481 C477 1.393 . S
C481 C480 1.391 . S
C482 H472 0.950 . S
C482 C483 1.386 . S
C482 C484 1.391 . S
C483 C482 1.386 . S
C483 C487 1.393 . S
C484 H473 0.950 . S
C484 C482 1.391 . S
C484 C485 1.400 . S
C485 C479 1.491 . S
C485 C484 1.400 . S
C485 C486 1.398 . S
C486 H474 0.950 . S
C486 C485 1.398 . S
C486 C487 1.391 . S
C487 H475 0.950 . S
C487 C483 1.393 . S
C487 C486 1.391 . S
H488 C496 0.950 . S
H489 C501 0.950 . S
H490 C498 0.950 . S
H491 C500 0.950 . S
H492 C502 0.950 . S
H493 C504 0.950 . S
H494 C506 0.950 . S
H495 C507 0.950 . S
C496 H488 0.950 . S
C496 C497 1.386 . S
C496 C498 1.391 . S
C497 C496 1.386 . S
C497 C501 1.393 . S
C498 H490 0.950 . S
C498 C496 1.391 . S
C498 C499 1.400 . S
C499 C498 1.400 . S
C499 C500 1.398 . S
C499 C505 1.491 . S
C500 H491 0.950 . S
C500 C499 1.398 . S
C500 C501 1.391 . S
C501 H489 0.950 . S
C501 C497 1.393 . S
C501 C500 1.391 . S
C502 H492 0.950 . S
C502 C503 1.386 . S
C502 C504 1.391 . S
C503 C502 1.386 . S
C503 C507 1.393 . S
C504 H493 0.950 . S
C504 C502 1.391 . S
C504 C505 1.400 . S
C505 C499 1.491 . S
C505 C504 1.400 . S
C505 C506 1.398 . S
C506 H494 0.950 . S
C506 C505 1.398 . S
C506 C507 1.391 . S
C507 H495 0.950 . S
C507 C503 1.393 . S
C507 C506 1.391 . S
H508 C516 0.950 . S
H509 C521 0.950 1_545 S
H510 C518 0.950 . S
H511 C520 0.950 1_545 S
H512 C522 0.950 . S
H513 C524 0.950 . S
H514 C526 0.950 . S
H515 C527 0.950 1_556 S
C516 H508 0.950 . S
C516 C517 1.386 . S
C516 C518 1.391 . S
C517 C516 1.386 . S
C517 C521 1.393 1_556 S
C518 H510 0.950 . S
C518 C516 1.391 . S
C518 C519 1.400 1_556 S
C519 C518 1.400 1_554 S
C519 C520 1.398 . S
C519 C525 1.491 . S
C520 H511 0.950 1_565 S
C520 C519 1.398 . S
C520 C521 1.391 . S
C521 H509 0.950 1_565 S
C521 C517 1.393 1_554 S
C521 C520 1.391 . S
C522 H512 0.950 . S
C522 C523 1.386 . S
C522 C524 1.391 . S
C523 C522 1.386 . S
C523 C527 1.393 1_545 S
C524 H513 0.950 . S
C524 C522 1.391 . S
C524 C525 1.400 1_545 S
C525 C519 1.491 . S
C525 C524 1.400 1_565 S
C525 C526 1.398 1_554 S
C526 H514 0.950 . S
C526 C525 1.398 1_556 S
C526 C527 1.391 1_556 S
C527 H515 0.950 1_554 S
C527 C523 1.393 1_565 S
C527 C526 1.391 1_554 S
H528 C536 0.950 . S
H529 C541 0.950 . S
H530 C538 0.950 . S
H531 C540 0.950 . S
H532 C542 0.950 . S
H533 C544 0.950 . S
H534 C546 0.950 . S
H535 C547 0.950 . S
C536 H528 0.950 . S
C536 C537 1.386 . S
C536 C538 1.391 . S
C537 C536 1.386 . S
C537 C541 1.393 . S
C538 H530 0.950 . S
C538 C536 1.391 . S
C538 C539 1.400 . S
C539 C538 1.400 . S
C539 C540 1.398 . S
C539 C545 1.491 . S
C540 H531 0.950 . S
C540 C539 1.398 . S
C540 C541 1.391 . S
C541 H529 0.950 . S
C541 C537 1.393 . S
C541 C540 1.391 . S
C542 H532 0.950 . S
C542 C543 1.386 . S
C542 C544 1.391 . S
C543 C542 1.386 . S
C543 C547 1.393 . S
C544 H533 0.950 . S
C544 C542 1.391 . S
C544 C545 1.400 . S
C545 C539 1.491 . S
C545 C544 1.400 . S
C545 C546 1.398 . S
C546 H534 0.950 . S
C546 C545 1.398 . S
C546 C547 1.391 . S
C547 H535 0.950 . S
C547 C543 1.393 . S
C547 C546 1.391 . S
H548 C556 0.950 . S
H549 C561 0.950 . S
H550 C558 0.950 . S
H551 C560 0.950 . S
H552 C562 0.950 . S
H553 C564 0.950 . S
H554 C566 0.950 1_556 S
H555 C567 0.950 1_556 S
C556 H548 0.950 . S
C556 C557 1.386 . S
C556 C558 1.391 . S
C557 C556 1.386 . S
C557 C561 1.393 . S
C558 H550 0.950 . S
C558 C556 1.391 . S
C558 C559 1.400 . S
C559 C558 1.400 . S
C559 C560 1.398 . S
C559 C565 1.491 . S
C560 H551 0.950 . S
C560 C559 1.398 . S
C560 C561 1.391 . S
C561 H549 0.950 . S
C561 C557 1.393 . S
C561 C560 1.391 . S
C562 H552 0.950 . S
C562 C563 1.386 . S
C562 C564 1.391 . S
C563 C562 1.386 . S
C563 C567 1.393 . S
C564 H553 0.950 . S
C564 C562 1.391 . S
C564 C565 1.400 . S
C565 C559 1.491 . S
C565 C564 1.400 . S
C565 C566 1.398 . S
C566 H554 0.950 1_554 S
C566 C565 1.398 . S
C566 C567 1.391 . S
C567 H555 0.950 1_554 S
C567 C563 1.393 . S
C567 C566 1.391 . S
H568 C576 0.950 . S
H569 C581 0.950 . S
H570 C578 0.950 . S
H571 C580 0.950 . S
H572 C582 0.950 . S
H573 C584 0.950 . S
H574 C586 0.950 . S
H575 C587 0.950 . S
C576 H568 0.950 . S
C576 C577 1.386 . S
C576 C578 1.391 . S
C577 C576 1.386 . S
C577 C581 1.393 . S
C578 H570 0.950 . S
C578 C576 1.391 . S
C578 C579 1.400 . S
C579 C578 1.400 . S
C579 C580 1.398 . S
C579 C585 1.491 . S
C580 H571 0.950 . S
C580 C579 1.398 . S
C580 C581 1.391 . S
C581 H569 0.950 . S
C581 C577 1.393 . S
C581 C580 1.391 . S
C582 H572 0.950 . S
C582 C583 1.386 . S
C582 C584 1.391 . S
C583 C582 1.386 . S
C583 C587 1.393 . S
C584 H573 0.950 . S
C584 C582 1.391 . S
C584 C585 1.400 . S
C585 C579 1.491 . S
C585 C584 1.400 . S
C585 C586 1.398 . S
C586 H574 0.950 . S
C586 C585 1.398 . S
C586 C587 1.391 . S
C587 H575 0.950 . S
C587 C583 1.393 . S
C587 C586 1.391 . S
H588 C596 0.950 1_554 S
H589 C601 0.950 . S
H590 C598 0.950 1_554 S
H591 C600 0.950 . S
H592 C602 0.950 . S
H593 C604 0.950 1_455 S
H594 C606 0.950 . S
H595 C607 0.950 . S
C596 H588 0.950 1_556 S
C596 C597 1.386 . S
C596 C598 1.391 . S
C597 C596 1.386 . S
C597 C601 1.393 . S
C598 H590 0.950 1_556 S
C598 C596 1.391 . S
C598 C599 1.400 . S
C599 C598 1.400 . S
C599 C600 1.398 . S
C599 C605 1.491 . S
C600 H591 0.950 . S
C600 C599 1.398 . S
C600 C601 1.391 . S
C601 H589 0.950 . S
C601 C597 1.393 . S
C601 C600 1.391 . S
C602 H592 0.950 . S
C602 C603 1.386 1_455 S
C602 C604 1.391 1_455 S
C603 C602 1.386 1_655 S
C603 C607 1.393 1_556 S
C604 H593 0.950 1_655 S
C604 C602 1.391 1_655 S
C604 C605 1.400 . S
C605 C599 1.491 . S
C605 C604 1.400 . S
C605 C606 1.398 1_556 S
C606 H594 0.950 . S
C606 C605 1.398 1_554 S
C606 C607 1.391 . S
C607 H595 0.950 . S
C607 C603 1.393 1_554 S
C607 C606 1.391 . S
H608 C616 0.950 . S
H609 C621 0.950 . S
H610 C618 0.950 . S
H611 C620 0.950 . S
H612 C622 0.950 . S
H613 C624 0.950 . S
H614 C626 0.950 . S
H615 C627 0.950 . S
C616 H608 0.950 . S
C616 C617 1.386 . S
C616 C618 1.391 . S
C617 C616 1.386 . S
C617 C621 1.393 . S
C618 H610 0.950 . S
C618 C616 1.391 . S
C618 C619 1.400 . S
C619 C618 1.400 . S
C619 C620 1.398 . S
C619 C625 1.491 . S
C620 H611 0.950 . S
C620 C619 1.398 . S
C620 C621 1.391 . S
C621 H609 0.950 . S
C621 C617 1.393 . S
C621 C620 1.391 . S
C622 H612 0.950 . S
C622 C623 1.386 . S
C622 C624 1.391 . S
C623 C622 1.386 . S
C623 C627 1.393 . S
C624 H613 0.950 . S
C624 C622 1.391 . S
C624 C625 1.400 . S
C625 C619 1.491 . S
C625 C624 1.400 . S
C625 C626 1.398 . S
C626 H614 0.950 . S
C626 C625 1.398 . S
C626 C627 1.391 . S
C627 H615 0.950 . S
C627 C623 1.393 . S
C627 C626 1.391 . S
H628 C636 0.950 . S
H629 C641 0.950 . S
H630 C638 0.950 . S
H631 C640 0.950 . S
H632 C642 0.950 1_655 S
H633 C644 0.950 . S
H634 C646 0.950 . S
H635 C647 0.950 . S
C636 H628 0.950 . S
C636 C637 1.386 . S
C636 C638 1.391 . S
C637 C636 1.386 . S
C637 C641 1.393 . S
C638 H630 0.950 . S
C638 C636 1.391 . S
C638 C639 1.400 . S
C639 C638 1.400 . S
C639 C640 1.398 . S
C639 C645 1.491 . S
C640 H631 0.950 . S
C640 C639 1.398 . S
C640 C641 1.391 . S
C641 H629 0.950 . S
C641 C637 1.393 . S
C641 C640 1.391 . S
C642 H632 0.950 1_455 S
C642 C643 1.386 . S
C642 C644 1.391 . S
C643 C642 1.386 . S
C643 C647 1.393 . S
C644 H633 0.950 . S
C644 C642 1.391 . S
C644 C645 1.400 . S
C645 C639 1.491 . S
C645 C644 1.400 . S
C645 C646 1.398 . S
C646 H634 0.950 . S
C646 C645 1.398 . S
C646 C647 1.391 . S
C647 H635 0.950 . S
C647 C643 1.393 . S
C647 C646 1.391 . S
H648 C656 0.950 . S
H649 C661 0.950 . S
H650 C658 0.950 . S
H651 C660 0.950 . S
H652 C662 0.950 . S
H653 C664 0.950 . S
H654 C666 0.950 . S
H655 C667 0.950 . S
C656 H648 0.950 . S
C656 C657 1.386 . S
C656 C658 1.391 . S
C657 C656 1.386 . S
C657 C661 1.393 . S
C658 H650 0.950 . S
C658 C656 1.391 . S
C658 C659 1.400 . S
C659 C658 1.400 . S
C659 C660 1.398 . S
C659 C665 1.491 . S
C660 H651 0.950 . S
C660 C659 1.398 . S
C660 C661 1.391 . S
C661 H649 0.950 . S
C661 C657 1.393 . S
C661 C660 1.391 . S
C662 H652 0.950 . S
C662 C663 1.386 . S
C662 C664 1.391 . S
C663 C662 1.386 . S
C663 C667 1.393 . S
C664 H653 0.950 . S
C664 C662 1.391 . S
C664 C665 1.400 . S
C665 C659 1.491 . S
C665 C664 1.400 . S
C665 C666 1.398 . S
C666 H654 0.950 . S
C666 C665 1.398 . S
C666 C667 1.391 . S
C667 H655 0.950 . S
C667 C663 1.393 . S
C667 C666 1.391 . S
C197 N1 1.496 . S
C203 C107 1.435 . S
C217 N18 1.833 . S
C223 C141 1.742 1_565 S
C243 C153 0.999 . S
C237 N28 1.095 . S
C257 N40 1.630 . S
C263 C187 1.556 . S
C283 C144 1.702 . S
C277 N5 1.855 . S
C303 C124 1.480 . S
C297 N14 1.549 . S
C323 C171 1.382 . S
C317 N31 1.480 . S
C343 C162 1.123 . S
C337 N41 1.187 . S
C357 N2 1.447 . S
C363 C170 1.391 . S
C383 C132 1.448 1_556 S
C377 N27 1.587 . S
C397 N44 1.624 . S
C403 C108 1.534 1_655 S
C417 N15 1.379 . S
C423 C165 1.275 . S
C443 C123 1.684 . S
C437 N57 1.813 . S
C457 N70 1.341 . S
C463 C145 1.280 . S
C477 N79 1.448 . S
C483 C150 1.415 . S
C497 N93 1.403 . S
C503 C183 1.359 . S
C517 N54 1.520 . S
C523 C128 1.468 1_545 S
C543 C120 1.881 . S
C537 N66 1.973 . S
C563 C174 1.050 . S
C557 N80 1.121 . S
C583 C166 1.459 . S
C577 N96 1.519 . S
C597 N53 1.543 . S
C603 C186 1.458 1_655 S
C623 C129 1.482 . S
C617 N83 1.531 . S
C643 C111 1.574 . S
C637 N92 1.673 . S
C657 N67 1.497 . S
C663 C149 1.478 . S
