# Generated by pormake.
# Topology ptr, (4,4)-cn, num edge types: 1
# Building blocks:
#     Node 0, Type 0, BuildingBlock: UXUYUI_clean_sbu_0, # of connection points: 4
#     Node 1, Type 0, BuildingBlock: UXUYUI_clean_sbu_0, # of connection points: 4
#     Node 2, Type 0, BuildingBlock: UXUYUI_clean_sbu_0, # of connection points: 4
#     Node 3, Type 0, BuildingBlock: UXUYUI_clean_sbu_0, # of connection points: 4
#     Node 4, Type 0, BuildingBlock: UXUYUI_clean_sbu_0, # of connection points: 4
#     Node 5, Type 0, BuildingBlock: UXUYUI_clean_sbu_0, # of connection points: 4
#     Node 6, Type 0, BuildingBlock: UXUYUI_clean_sbu_0, # of connection points: 4
#     Node 7, Type 0, BuildingBlock: UXUYUI_clean_sbu_0, # of connection points: 4
#     Node 8, Type 0, BuildingBlock: UXUYUI_clean_sbu_0, # of connection points: 4
#     Node 9, Type 0, BuildingBlock: UXUYUI_clean_sbu_0, # of connection points: 4
#     Node 10, Type 0, BuildingBlock: UXUYUI_clean_sbu_0, # of connection points: 4
#     Node 11, Type 0, BuildingBlock: UXUYUI_clean_sbu_0, # of connection points: 4
#     Node 12, Type 0, BuildingBlock: UXUYUI_clean_sbu_0, # of connection points: 4
#     Node 13, Type 0, BuildingBlock: UXUYUI_clean_sbu_0, # of connection points: 4
#     Node 14, Type 0, BuildingBlock: UXUYUI_clean_sbu_0, # of connection points: 4
#     Node 15, Type 0, BuildingBlock: UXUYUI_clean_sbu_0, # of connection points: 4
#     Node 16, Type 0, BuildingBlock: UXUYUI_clean_sbu_0, # of connection points: 4
#     Node 17, Type 0, BuildingBlock: UXUYUI_clean_sbu_0, # of connection points: 4
#     Node 18, Type 1, BuildingBlock: AZAVOO_clean_linker_0, # of connection points: 4
#     Node 19, Type 1, BuildingBlock: AZAVOO_clean_linker_0, # of connection points: 4
#     Node 20, Type 1, BuildingBlock: AZAVOO_clean_linker_0, # of connection points: 4
#     Node 21, Type 1, BuildingBlock: AZAVOO_clean_linker_0, # of connection points: 4
#     Node 22, Type 1, BuildingBlock: AZAVOO_clean_linker_0, # of connection points: 4
#     Node 23, Type 1, BuildingBlock: AZAVOO_clean_linker_0, # of connection points: 4
#     Node 24, Type 1, BuildingBlock: AZAVOO_clean_linker_0, # of connection points: 4
#     Node 25, Type 1, BuildingBlock: AZAVOO_clean_linker_0, # of connection points: 4
#     Node 26, Type 1, BuildingBlock: AZAVOO_clean_linker_0, # of connection points: 4
#     Node 27, Type 1, BuildingBlock: AZAVOO_clean_linker_0, # of connection points: 4
#     Node 28, Type 1, BuildingBlock: AZAVOO_clean_linker_0, # of connection points: 4
#     Node 29, Type 1, BuildingBlock: AZAVOO_clean_linker_0, # of connection points: 4
#     Node 30, Type 1, BuildingBlock: AZAVOO_clean_linker_0, # of connection points: 4
#     Node 31, Type 1, BuildingBlock: AZAVOO_clean_linker_0, # of connection points: 4
#     Node 32, Type 1, BuildingBlock: AZAVOO_clean_linker_0, # of connection points: 4
#     Node 33, Type 1, BuildingBlock: AZAVOO_clean_linker_0, # of connection points: 4
#     Node 34, Type 1, BuildingBlock: AZAVOO_clean_linker_0, # of connection points: 4
#     Node 35, Type 1, BuildingBlock: AZAVOO_clean_linker_0, # of connection points: 4
#     Edge 36, Type (0, 1), BuildingBlock: KIFKEQ_clean_linker_1, # of connection points: 2
#     Edge 37, Type (0, 1), BuildingBlock: KIFKEQ_clean_linker_1, # of connection points: 2
#     Edge 38, Type (0, 1), BuildingBlock: KIFKEQ_clean_linker_1, # of connection points: 2
#     Edge 39, Type (0, 1), BuildingBlock: KIFKEQ_clean_linker_1, # of connection points: 2
#     Edge 40, Type (0, 1), BuildingBlock: KIFKEQ_clean_linker_1, # of connection points: 2
#     Edge 41, Type (0, 1), BuildingBlock: KIFKEQ_clean_linker_1, # of connection points: 2
#     Edge 42, Type (0, 1), BuildingBlock: KIFKEQ_clean_linker_1, # of connection points: 2
#     Edge 43, Type (0, 1), BuildingBlock: KIFKEQ_clean_linker_1, # of connection points: 2
#     Edge 44, Type (0, 1), BuildingBlock: KIFKEQ_clean_linker_1, # of connection points: 2
#     Edge 45, Type (0, 1), BuildingBlock: KIFKEQ_clean_linker_1, # of connection points: 2
#     Edge 46, Type (0, 1), BuildingBlock: KIFKEQ_clean_linker_1, # of connection points: 2
#     Edge 47, Type (0, 1), BuildingBlock: KIFKEQ_clean_linker_1, # of connection points: 2
#     Edge 48, Type (0, 1), BuildingBlock: KIFKEQ_clean_linker_1, # of connection points: 2
#     Edge 49, Type (0, 1), BuildingBlock: KIFKEQ_clean_linker_1, # of connection points: 2
#     Edge 50, Type (0, 1), BuildingBlock: KIFKEQ_clean_linker_1, # of connection points: 2
#     Edge 51, Type (0, 1), BuildingBlock: KIFKEQ_clean_linker_1, # of connection points: 2
#     Edge 52, Type (0, 1), BuildingBlock: KIFKEQ_clean_linker_1, # of connection points: 2
#     Edge 53, Type (0, 1), BuildingBlock: KIFKEQ_clean_linker_1, # of connection points: 2
#     Edge 54, Type (0, 1), BuildingBlock: KIFKEQ_clean_linker_1, # of connection points: 2
#     Edge 55, Type (0, 1), BuildingBlock: KIFKEQ_clean_linker_1, # of connection points: 2
#     Edge 56, Type (0, 1), BuildingBlock: KIFKEQ_clean_linker_1, # of connection points: 2
#     Edge 57, Type (0, 1), BuildingBlock: KIFKEQ_clean_linker_1, # of connection points: 2
#     Edge 58, Type (0, 1), BuildingBlock: KIFKEQ_clean_linker_1, # of connection points: 2
#     Edge 59, Type (0, 1), BuildingBlock: KIFKEQ_clean_linker_1, # of connection points: 2
#     Edge 60, Type (0, 1), BuildingBlock: KIFKEQ_clean_linker_1, # of connection points: 2
#     Edge 61, Type (0, 1), BuildingBlock: KIFKEQ_clean_linker_1, # of connection points: 2
#     Edge 62, Type (0, 1), BuildingBlock: KIFKEQ_clean_linker_1, # of connection points: 2
#     Edge 63, Type (0, 1), BuildingBlock: KIFKEQ_clean_linker_1, # of connection points: 2
#     Edge 64, Type (0, 1), BuildingBlock: KIFKEQ_clean_linker_1, # of connection points: 2
#     Edge 65, Type (0, 1), BuildingBlock: KIFKEQ_clean_linker_1, # of connection points: 2
#     Edge 66, Type (0, 1), BuildingBlock: KIFKEQ_clean_linker_1, # of connection points: 2
#     Edge 67, Type (0, 1), BuildingBlock: KIFKEQ_clean_linker_1, # of connection points: 2
#     Edge 68, Type (0, 1), BuildingBlock: KIFKEQ_clean_linker_1, # of connection points: 2
#     Edge 69, Type (0, 1), BuildingBlock: KIFKEQ_clean_linker_1, # of connection points: 2
#     Edge 70, Type (0, 1), BuildingBlock: KIFKEQ_clean_linker_1, # of connection points: 2
#     Edge 71, Type (0, 1), BuildingBlock: KIFKEQ_clean_linker_1, # of connection points: 2
#     Edge 72, Type (0, 1), BuildingBlock: KIFKEQ_clean_linker_1, # of connection points: 2
#     Edge 73, Type (0, 1), BuildingBlock: KIFKEQ_clean_linker_1, # of connection points: 2
#     Edge 74, Type (0, 1), BuildingBlock: KIFKEQ_clean_linker_1, # of connection points: 2
#     Edge 75, Type (0, 1), BuildingBlock: KIFKEQ_clean_linker_1, # of connection points: 2
#     Edge 76, Type (0, 1), BuildingBlock: KIFKEQ_clean_linker_1, # of connection points: 2
#     Edge 77, Type (0, 1), BuildingBlock: KIFKEQ_clean_linker_1, # of connection points: 2
#     Edge 78, Type (0, 1), BuildingBlock: KIFKEQ_clean_linker_1, # of connection points: 2
#     Edge 79, Type (0, 1), BuildingBlock: KIFKEQ_clean_linker_1, # of connection points: 2
#     Edge 80, Type (0, 1), BuildingBlock: KIFKEQ_clean_linker_1, # of connection points: 2
#     Edge 81, Type (0, 1), BuildingBlock: KIFKEQ_clean_linker_1, # of connection points: 2
#     Edge 82, Type (0, 1), BuildingBlock: KIFKEQ_clean_linker_1, # of connection points: 2
#     Edge 83, Type (0, 1), BuildingBlock: KIFKEQ_clean_linker_1, # of connection points: 2
#     Edge 84, Type (0, 1), BuildingBlock: KIFKEQ_clean_linker_1, # of connection points: 2
#     Edge 85, Type (0, 1), BuildingBlock: KIFKEQ_clean_linker_1, # of connection points: 2
#     Edge 86, Type (0, 1), BuildingBlock: KIFKEQ_clean_linker_1, # of connection points: 2
#     Edge 87, Type (0, 1), BuildingBlock: KIFKEQ_clean_linker_1, # of connection points: 2
#     Edge 88, Type (0, 1), BuildingBlock: KIFKEQ_clean_linker_1, # of connection points: 2
#     Edge 89, Type (0, 1), BuildingBlock: KIFKEQ_clean_linker_1, # of connection points: 2
#     Edge 90, Type (0, 1), BuildingBlock: KIFKEQ_clean_linker_1, # of connection points: 2
#     Edge 91, Type (0, 1), BuildingBlock: KIFKEQ_clean_linker_1, # of connection points: 2
#     Edge 92, Type (0, 1), BuildingBlock: KIFKEQ_clean_linker_1, # of connection points: 2
#     Edge 93, Type (0, 1), BuildingBlock: KIFKEQ_clean_linker_1, # of connection points: 2
#     Edge 94, Type (0, 1), BuildingBlock: KIFKEQ_clean_linker_1, # of connection points: 2
#     Edge 95, Type (0, 1), BuildingBlock: KIFKEQ_clean_linker_1, # of connection points: 2
#     Edge 96, Type (0, 1), BuildingBlock: KIFKEQ_clean_linker_1, # of connection points: 2
#     Edge 97, Type (0, 1), BuildingBlock: KIFKEQ_clean_linker_1, # of connection points: 2
#     Edge 98, Type (0, 1), BuildingBlock: KIFKEQ_clean_linker_1, # of connection points: 2
#     Edge 99, Type (0, 1), BuildingBlock: KIFKEQ_clean_linker_1, # of connection points: 2
#     Edge 100, Type (0, 1), BuildingBlock: KIFKEQ_clean_linker_1, # of connection points: 2
#     Edge 101, Type (0, 1), BuildingBlock: KIFKEQ_clean_linker_1, # of connection points: 2
#     Edge 102, Type (0, 1), BuildingBlock: KIFKEQ_clean_linker_1, # of connection points: 2
#     Edge 103, Type (0, 1), BuildingBlock: KIFKEQ_clean_linker_1, # of connection points: 2
#     Edge 104, Type (0, 1), BuildingBlock: KIFKEQ_clean_linker_1, # of connection points: 2
#     Edge 105, Type (0, 1), BuildingBlock: KIFKEQ_clean_linker_1, # of connection points: 2
#     Edge 106, Type (0, 1), BuildingBlock: KIFKEQ_clean_linker_1, # of connection points: 2
#     Edge 107, Type (0, 1), BuildingBlock: KIFKEQ_clean_linker_1, # of connection points: 2
# Relax obj value: 0.130
# Max RMSD: 0.319
# Mean RMSD: 0.191
data_MOF--net-ptr--node1-UXUYUI_clean_sbu_0--node2-AZAVOO_clean_linker_0--edge1-KIFKEQ_clean_linker_1
_symmetry_space_group_name_H-M    P1
_symmetry_Int_Tables_number       1
_symmetry_cell_setting            triclinic
loop_
_symmetry_equiv_pos_as_xyz
'x, y, z'
_cell_length_a     99.526784
_cell_length_b     98.691607
_cell_length_c     81.218414
_cell_angle_alpha  92.542477
_cell_angle_beta   92.228454
_cell_angle_gamma 120.27394
loop_
_atom_site_label
_atom_site_type_symbol
_atom_site_fract_x
_atom_site_fract_y
_atom_site_fract_z
_atom_type_partial_charge
Li0 Li 0.99665 0.34862 0.01139 0.0
Li1 Li 0.02229 0.36282 0.02588 0.0
Li2 Li 0.00293 0.37118 0.03029 0.0
Li3 Li 0.01543 0.37535 0.00453 0.0
C4 C 0.99247 0.33854 0.04348 0.0
N5 N 0.97323 0.31226 0.05976 0.0
C6 C 0.99655 0.32712 0.04599 0.0
C7 C 0.9788 0.33679 0.04961 0.0
C8 C 0.98661 0.31386 0.05413 0.0
C9 C 0.96917 0.32337 0.05771 0.0
C10 C 0.03045 0.35973 0.99418 0.0
C11 C 0.05797 0.37673 0.99138 0.0
N12 N 0.05716 0.36707 0.97842 0.0
C13 C 0.02989 0.34997 0.98085 0.0
C14 C 0.04461 0.37322 0.99953 0.0
C15 C 0.04351 0.35389 0.97303 0.0
C16 C 0.96905 0.3257 0.99245 0.0
N17 N 0.9815 0.32815 0.00239 0.0
C18 C 0.97386 0.30099 0.99851 0.0
C19 C 0.98422 0.31625 0.00524 0.0
C20 C 0.96071 0.29802 0.98847 0.0
C21 C 0.95841 0.31064 0.98542 0.0
H22 H 0.96753 0.33546 0.98969 0.0
H23 H 0.99458 0.31865 0.01257 0.0
C24 C 0.04554 0.36857 0.05066 0.0
N25 N 0.03746 0.35958 0.03668 0.0
C26 C 0.05531 0.36497 0.05992 0.0
C27 C 0.04841 0.34313 0.03998 0.0
C28 C 0.03881 0.34716 0.03111 0.0
C29 C 0.05662 0.35192 0.05474 0.0
H30 H 0.04398 0.3782 0.0549 0.0
H31 H 0.03203 0.34008 0.02007 0.0
C32 C 0.97919 0.36609 0.00684 0.0
N33 N 0.9515 0.36628 0.00594 0.0
C34 C 0.97775 0.37738 0.99836 0.0
C35 C 0.9665 0.35484 0.01475 0.0
C36 C 0.96367 0.37729 0.99808 0.0
C37 C 0.95261 0.35515 0.01418 0.0
C38 C 0.03009 0.40012 0.02942 0.0
C39 C 0.02104 0.4057 0.02212 0.0
C40 C 0.04353 0.41045 0.03939 0.0
C41 C 0.0256 0.42155 0.02492 0.0
C42 C 0.0477 0.42623 0.0419 0.0
N43 N 0.03872 0.4314 0.03467 0.0
C44 C 0.00105 0.37962 0.0627 0.0
C45 C 0.98907 0.3885 0.04364 0.0
C46 C 0.99881 0.38771 0.07582 0.0
N47 N 0.99636 0.38029 0.04698 0.0
C48 C 0.98646 0.39665 0.05641 0.0
C49 C 0.99165 0.39657 0.0727 0.0
H50 H 0.00704 0.37321 0.06496 0.0
H51 H 0.9859 0.38936 0.03106 0.0
C52 C 0.01151 0.38444 0.97383 0.0
N53 N 0.02216 0.38867 0.98684 0.0
C54 C 0.01439 0.39448 0.96121 0.0
C55 C 0.03951 0.41274 0.97523 0.0
C56 C 0.03615 0.40229 0.98759 0.0
C57 C 0.02839 0.40902 0.962 0.0
H58 H 0.00049 0.37351 0.97361 0.0
H59 H 0.04445 0.40532 0.99806 0.0
O60 O 0.00211 0.35165 0.03562 0.0
O61 O 0.01716 0.356 0.00189 0.0
O62 O 0.99296 0.36612 0.00737 0.0
O63 O 0.0258 0.38461 0.02701 0.0
H64 H 0.00724 0.32843 0.0416 0.0
H65 H 0.97572 0.34576 0.0483 0.0
H66 H 0.98955 0.30485 0.05601 0.0
H67 H 0.95851 0.32183 0.06245 0.0
H68 H 0.069 0.38713 0.99538 0.0
H69 H 0.01901 0.33948 0.97658 0.0
H70 H 0.04531 0.3809 0.00985 0.0
H71 H 0.04325 0.34644 0.96269 0.0
H72 H 0.97611 0.29164 0.0012 0.0
H73 H 0.94866 0.30897 0.97739 0.0
H74 H 0.06128 0.37194 0.07132 0.0
H75 H 0.04923 0.3331 0.03545 0.0
H76 H 0.98746 0.3862 0.99219 0.0
H77 H 0.96733 0.34587 0.02109 0.0
H78 H 0.96242 0.386 0.99164 0.0
H79 H 0.94271 0.3465 0.02025 0.0
H80 H 0.01061 0.39788 0.01437 0.0
H81 H 0.05065 0.4063 0.04515 0.0
H82 H 0.01869 0.42601 0.01935 0.0
H83 H 0.05807 0.43435 0.04959 0.0
H84 H 0.00291 0.3873 0.08824 0.0
H85 H 0.98112 0.40356 0.05348 0.0
H86 H 0.0054 0.39121 0.95138 0.0
H87 H 0.05053 0.42374 0.9762 0.0
Li88 Li 0.64656 0.62807 0.05629 0.0
Li89 Li 0.63554 0.64145 0.0713 0.0
Li90 Li 0.62672 0.61379 0.07577 0.0
Li91 Li 0.61898 0.62089 0.05052 0.0
C92 C 0.65748 0.62811 0.08825 0.0
N93 N 0.67645 0.61899 0.10397 0.0
C94 C 0.6672 0.63703 0.10214 0.0
C95 C 0.65741 0.61455 0.08233 0.0
C96 C 0.67671 0.63223 0.10991 0.0
C97 C 0.66708 0.61013 0.09046 0.0
C98 C 0.64243 0.65531 0.04241 0.0
C99 C 0.63562 0.67408 0.03305 0.0
N100 N 0.65103 0.68499 0.03286 0.0
C101 C 0.65819 0.66663 0.04187 0.0
C102 C 0.63104 0.65899 0.03776 0.0
C103 C 0.6623 0.68159 0.03711 0.0
C104 C 0.6643 0.62344 0.03276 0.0
N105 N 0.66505 0.63172 0.04692 0.0
C106 C 0.69267 0.64799 0.04641 0.0
C107 C 0.67884 0.64367 0.05393 0.0
C108 C 0.69224 0.63989 0.03156 0.0
C109 C 0.67786 0.62728 0.02487 0.0
H110 H 0.65311 0.6142 0.02733 0.0
H111 H 0.67902 0.65017 0.06509 0.0
C112 C 0.631 0.66436 0.08893 0.0
N113 N 0.64144 0.66139 0.08174 0.0
C114 C 0.63588 0.67921 0.09661 0.0
C115 C 0.66217 0.68754 0.0895 0.0
C116 C 0.65681 0.6725 0.08215 0.0
C117 C 0.65166 0.69109 0.09687 0.0
H118 H 0.61893 0.65518 0.08888 0.0
H119 H 0.6649 0.66965 0.07669 0.0
C120 C 0.61656 0.59144 0.04769 0.0
N121 N 0.59387 0.56102 0.03709 0.0
C122 C 0.60189 0.58456 0.05408 0.0
C123 C 0.6197 0.58284 0.03591 0.0
C124 C 0.59058 0.56918 0.04857 0.0
C125 C 0.60807 0.56748 0.03071 0.0
C126 C 0.59934 0.62158 0.07336 0.0
C127 C 0.58768 0.60856 0.08056 0.0
C128 C 0.59577 0.63208 0.06615 0.0
C129 C 0.57257 0.60613 0.08017 0.0
C130 C 0.58052 0.62924 0.066 0.0
N131 N 0.56933 0.61642 0.07294 0.0
C132 C 0.61701 0.60396 0.1067 0.0
C133 C 0.61889 0.58475 0.08997 0.0
C134 C 0.61118 0.59375 0.11927 0.0
N135 N 0.62043 0.59921 0.09231 0.0
C136 C 0.61289 0.57406 0.10215 0.0
C137 C 0.60878 0.57849 0.11694 0.0
H138 H 0.61844 0.61557 0.10819 0.0
H139 H 0.62202 0.58138 0.07854 0.0
C140 C 0.60897 0.61914 0.01777 0.0
N141 N 0.6034 0.61421 0.03269 0.0
C142 C 0.59889 0.61399 0.00355 0.0
C143 C 0.57739 0.59887 0.02027 0.0
C144 C 0.58792 0.60429 0.03419 0.0
C145 C 0.58286 0.60359 0.00464 0.0
H146 H 0.62137 0.62677 0.01686 0.0
H147 H 0.58373 0.60021 0.04607 0.0
O148 O 0.64813 0.63273 0.08055 0.0
O149 O 0.63817 0.64063 0.04718 0.0
O150 O 0.62776 0.60657 0.05277 0.0
O151 O 0.61419 0.6241 0.07358 0.0
H152 H 0.6674 0.64757 0.10684 0.0
H153 H 0.65001 0.60751 0.07158 0.0
H154 H 0.6843 0.63902 0.12068 0.0
H155 H 0.66714 0.59967 0.08602 0.0
H156 H 0.62692 0.6771 0.02949 0.0
H157 H 0.66715 0.66393 0.04525 0.0
H158 H 0.61879 0.65025 0.03764 0.0
H159 H 0.67446 0.69051 0.0368 0.0
H160 H 0.70353 0.65769 0.05202 0.0
H161 H 0.67702 0.62089 0.01332 0.0
H162 H 0.62742 0.68127 0.10246 0.0
H163 H 0.6744 0.69631 0.08923 0.0
H164 H 0.5993 0.59104 0.06321 0.0
H165 H 0.63099 0.58797 0.03084 0.0
H166 H 0.57918 0.56374 0.05342 0.0
H167 H 0.61034 0.56068 0.02159 0.0
H168 H 0.59024 0.60038 0.08636 0.0
H169 H 0.60468 0.64234 0.06078 0.0
H170 H 0.56343 0.59606 0.08562 0.0
H171 H 0.57759 0.63725 0.0604 0.0
H172 H 0.60801 0.59755 0.13044 0.0
H173 H 0.61133 0.56243 0.1 0.0
H174 H 0.60371 0.61769 0.99174 0.0
H175 H 0.56513 0.59093 0.02173 0.0
Li176 Li 0.37793 0.98966 0.00511 0.0
Li177 Li 0.38362 0.00037 0.03404 0.0
Li178 Li 0.35607 0.98032 0.02323 0.0
Li179 Li 0.36853 0.00742 0.01565 0.0
C180 C 0.37716 0.96571 0.02544 0.0
N181 N 0.38192 0.94046 0.02583 0.0
C182 C 0.39117 0.96771 0.03239 0.0
C183 C 0.36548 0.95082 0.01891 0.0
C184 C 0.39338 0.95481 0.03241 0.0
C185 C 0.36813 0.93821 0.01916 0.0
C186 C 0.40562 0.02352 0.01624 0.0
C187 C 0.42578 0.04909 0.02783 0.0
N188 N 0.43673 0.0465 0.02128 0.0
C189 C 0.41706 0.02116 0.00949 0.0
C190 C 0.40998 0.03765 0.02535 0.0
C191 C 0.43273 0.0329 0.01223 0.0
C192 C 0.38429 0.98987 0.97197 0.0
N193 N 0.38633 0.98482 0.98664 0.0
C194 C 0.40254 0.97613 0.97481 0.0
C195 C 0.3951 0.9779 0.98825 0.0
C196 C 0.40107 0.9817 0.95961 0.0
C197 C 0.39156 0.98839 0.9582 0.0
H198 H 0.37741 0.99553 0.97112 0.0
H199 H 0.39683 0.97425 6e-05 0.0
C200 C 0.39085 0.00369 0.06781 0.0
N201 N 0.39756 0.00603 0.05316 0.0
C202 C 0.39949 0.00543 0.08248 0.0
C203 C 0.42197 0.01239 0.06684 0.0
C204 C 0.41285 0.0104 0.05241 0.0
C205 C 0.41518 0.00955 0.08207 0.0
H206 H 0.37861 -9e-05 0.06803 0.0
H207 H 0.41779 0.01162 0.04061 0.0
C208 C 0.34594 0.97663 0.9898 0.0
N209 N 0.32318 0.95394 0.9675 0.0
C210 C 0.33391 0.97862 0.98325 0.0
C211 C 0.34651 0.9632 0.98486 0.0
C212 C 0.32247 0.96699 0.97204 0.0
C213 C 0.33487 0.95184 0.97361 0.0
C214 C 0.36008 0.00936 0.04661 0.0
C215 C 0.34451 0.00434 0.04927 0.0
C216 C 0.37181 0.02431 0.05289 0.0
C217 C 0.34092 0.01452 0.05793 0.0
C218 C 0.36774 0.03415 0.06149 0.0
N219 N 0.35251 0.0291 0.06379 0.0
C220 C 0.33701 0.95451 0.04119 0.0
C221 C 0.32354 0.96335 0.02411 0.0
C222 C 0.32327 0.94439 0.0484 0.0
N223 N 0.33691 0.96386 0.02947 0.0
C224 C 0.30954 0.95339 0.03095 0.0
C225 C 0.30939 0.94407 0.0436 0.0
H226 H 0.3479 0.9555 0.04553 0.0
H227 H 0.32393 0.9714 0.0153 0.0
C228 C 0.37381 0.0366 0.00442 0.0
N229 N 0.3633 0.02266 0.01012 0.0
C230 C 0.36908 0.04701 0.99936 0.0
C231 C 0.34295 0.02859 0.0065 0.0
C232 C 0.34813 0.0185 0.01118 0.0
C233 C 0.3534 0.04299 0.00023 0.0
H234 H 0.38574 0.03946 0.0034 0.0
H235 H 0.33997 0.00716 0.0154 0.0
O236 O 0.37476 0.9782 0.02546 0.0
O237 O 0.39023 0.0122 0.01361 0.0
O238 O 0.3572 0.98791 0.0008 0.0
O239 O 0.36381 -0.00038 0.03803 0.0
H240 H 0.40029 0.97913 0.0376 0.0
H241 H 0.35441 0.94896 0.01385 0.0
H242 H 0.40421 0.95622 0.03765 0.0
H243 H 0.3592 0.92663 0.01412 0.0
H244 H 0.42932 0.06005 0.03491 0.0
H245 H 0.41389 0.01036 0.00232 0.0
H246 H 0.40127 0.03979 0.0304 0.0
H247 H 0.44171 0.0312 0.00716 0.0
H248 H 0.40962 0.97075 0.97641 0.0
H249 H 0.39027 0.99306 0.94681 0.0
H250 H 0.39385 0.00321 0.094 0.0
H251 H 0.43397 0.01534 0.06599 0.0
H252 H 0.33336 0.98902 0.98687 0.0
H253 H 0.35588 0.96161 0.98956 0.0
H254 H 0.31304 0.96833 0.96694 0.0
H255 H 0.33516 0.94137 0.9697 0.0
H256 H 0.3353 0.99275 0.0446 0.0
H257 H 0.38392 0.02825 0.05119 0.0
H258 H 0.32892 0.01084 0.05998 0.0
H259 H 0.3767 0.04578 0.06637 0.0
H260 H 0.32363 0.93734 0.05807 0.0
H261 H 0.29919 0.95376 0.02713 0.0
H262 H 0.37751 0.05781 0.99432 0.0
H263 H 0.33083 0.02505 0.00765 0.0
Li264 Li 0.00929 0.65649 0.05294 0.0
Li265 Li 0.99201 0.62919 0.05951 0.0
Li266 Li 0.00335 0.63532 0.03363 0.0
Li267 Li 0.98398 0.64209 0.03873 0.0
C268 C 0.02733 0.63949 0.0516 0.0
N269 N 0.05282 0.63807 0.04156 0.0
C270 C 0.02842 0.62613 0.05395 0.0
C271 C 0.03922 0.65216 0.04421 0.0
C272 C 0.0414 0.62563 0.04876 0.0
C273 C 0.05202 0.65121 0.03922 0.0
C274 C 0.9918 0.65781 0.07592 0.0
C275 C 0.9901 0.67926 0.08901 0.0
N276 N 0.99962 0.68004 0.10196 0.0
C277 C 0.00147 0.65875 0.08941 0.0
C278 C 0.98599 0.66808 0.07574 0.0
C279 C 0.00533 0.6701 0.10243 0.0
C280 C 0.02103 0.68868 0.05903 0.0
N281 N 0.02402 0.67701 0.06213 0.0
C282 C 0.04616 0.69457 0.08024 0.0
C283 C 0.03632 0.67964 0.07241 0.0
C284 C 0.04313 0.70683 0.0777 0.0
C285 C 0.03038 0.7037 0.06682 0.0
H286 H 0.01103 0.68614 0.05092 0.0
H287 H 0.0383 0.67006 0.07479 0.0
C288 C 0.98731 0.60156 0.07162 0.0
N289 N 0.98585 0.61424 0.07559 0.0
C290 C 0.98446 0.59049 0.0831 0.0
C291 C 0.97788 0.60534 0.10229 0.0
C292 C 0.9809 0.61617 0.0904 0.0
C293 C 0.97994 0.59243 0.0988 0.0
H294 H 0.99106 0.60027 0.05963 0.0
H295 H 0.97954 0.62621 0.0931 0.0
C296 C 0.00162 0.65572 0.01258 0.0
N297 N 0.99616 0.65686 0.97918 0.0
C298 C 0.99057 0.64214 0.00308 0.0
C299 C 0.00987 0.66987 0.00508 0.0
C300 C 0.98799 0.64297 0.98622 0.0
C301 C 0.00695 0.6702 0.98819 0.0
C302 C 0.96608 0.60923 0.03843 0.0
C303 C 0.95893 0.5959 0.02732 0.0
C304 C 0.95759 0.61091 0.05089 0.0
C305 C 0.94336 0.58448 0.0288 0.0
C306 C 0.94206 0.59921 0.05196 0.0
N307 N 0.93532 0.58636 0.04098 0.0
C308 C 0.00458 0.61103 0.0167 0.0
C309 C 0.02145 0.63584 0.00664 0.0
C310 C 0.00871 0.60349 0.00474 0.0
N311 N 0.01082 0.62687 0.0173 0.0
C312 C 0.02592 0.62877 0.99443 0.0
C313 C 0.01938 0.61234 0.99327 0.0
H314 H 0.99619 0.60423 0.0254 0.0
H315 H 0.02634 0.64845 0.00751 0.0
C316 C 0.97259 0.66084 0.02883 0.0
N317 N 0.96831 0.64542 0.02884 0.0
C318 C 0.9632 0.66536 0.02036 0.0
C319 C 0.94492 0.63797 0.01227 0.0
C320 C 0.95478 0.63399 0.02078 0.0
C321 C 0.94918 0.65387 0.01181 0.0
H322 H 0.98364 0.6697 0.03494 0.0
H323 H 0.95178 0.62184 0.0205 0.0
O324 O 0.01453 0.64006 0.05616 0.0
O325 O 0.9883 0.64711 0.06282 0.0
O326 O 0.00433 0.65537 0.02916 0.0
O327 O 0.98136 0.6204 0.03708 0.0
H328 H 0.01934 0.61623 0.05965 0.0
H329 H 0.03846 0.66251 0.04211 0.0
H330 H 0.04237 0.61534 0.05044 0.0
H331 H 0.06126 0.66088 0.03339 0.0
H332 H 0.98575 0.68733 0.08901 0.0
H333 H 0.00619 0.65098 0.08965 0.0
H334 H 0.97845 0.66748 0.06542 0.0
H335 H 0.01292 0.67106 0.11287 0.0
H336 H 0.05598 0.69643 0.08826 0.0
H337 H 0.02734 0.7126 0.06466 0.0
H338 H 0.98634 0.58083 0.07989 0.0
H339 H 0.97415 0.60714 0.11412 0.0
H340 H 0.98402 0.63108 0.0086 0.0
H341 H 0.01842 0.68049 0.01228 0.0
H342 H 0.97947 0.63255 0.97873 0.0
H343 H 0.01325 0.68108 0.98223 0.0
H344 H 0.96535 0.59443 0.01762 0.0
H345 H 0.96286 0.62109 0.05963 0.0
H346 H 0.93767 0.57412 0.02026 0.0
H347 H 0.93535 0.60036 0.06152 0.0
H348 H 0.00318 0.59079 0.00417 0.0
H349 H 0.0343 0.63605 0.98594 0.0
H350 H 0.96719 0.67777 0.02008 0.0
H351 H 0.93418 0.62869 0.00598 0.0
Li352 Li 0.35318 0.37062 0.00957 0.0
Li353 Li 0.38055 0.37788 0.0197 0.0
Li354 Li 0.37588 0.38649 0.99334 0.0
Li355 Li 0.36678 0.35952 0.99567 0.0
C356 C 0.37655 0.40726 0.01529 0.0
N357 N 0.38684 0.43871 0.01224 0.0
C358 C 0.39062 0.41881 0.02346 0.0
C359 C 0.36766 0.41169 0.00564 0.0
C360 C 0.39563 0.43466 0.02175 0.0
C361 C 0.37308 0.42765 0.00422 0.0
C362 C 0.36287 0.34646 0.02687 0.0
C363 C 0.37766 0.33372 0.03242 0.0
N364 N 0.36727 0.32498 0.0434 0.0
C365 C 0.35232 0.33733 0.03818 0.0
C366 C 0.37564 0.34464 0.02394 0.0
C367 C 0.35475 0.32654 0.04642 0.0
C368 C 0.32353 0.35058 0.01895 0.0
N369 N 0.33383 0.36603 0.01732 0.0
C370 C 0.31713 0.37351 0.03016 0.0
C371 C 0.33088 0.37748 0.02259 0.0
C372 C 0.30643 0.35764 0.03238 0.0
C373 C 0.30966 0.34609 0.0264 0.0
H374 H 0.32639 0.34179 0.01496 0.0
H375 H 0.33941 0.38969 0.02142 0.0
C376 C 0.40965 0.39462 0.03788 0.0
N377 N 0.39434 0.38375 0.03879 0.0
C378 C 0.4197 0.4005 0.05219 0.0
C379 C 0.39815 0.38331 0.0679 0.0
C380 C 0.38849 0.37796 0.05336 0.0
C381 C 0.41391 0.39504 0.06754 0.0
H382 H 0.4139 0.39918 0.02612 0.0
H383 H 0.37622 0.3695 0.05377 0.0
C384 C 0.34746 0.3585 0.97218 0.0
N385 N 0.33272 0.33651 0.94565 0.0
C386 C 0.35477 0.36039 0.95741 0.0
C387 C 0.33257 0.34554 0.97338 0.0
C388 C 0.34714 0.34912 0.94415 0.0
C389 C 0.32534 0.33452 0.95985 0.0
C390 C 0.39987 0.37665 0.98966 0.0
C391 C 0.40105 0.37997 0.97304 0.0
C392 C 0.4107 0.37356 0.99747 0.0
C393 C 0.41286 0.37982 0.96443 0.0
C394 C 0.42234 0.3735 0.98843 0.0
N395 N 0.42316 0.3766 0.97223 0.0
C396 C 0.40103 0.41406 0.98405 0.0
C397 C 0.37837 0.40459 0.96592 0.0
C398 C 0.40975 0.4259 0.97376 0.0
N399 N 0.38575 0.40356 0.97983 0.0
C400 C 0.38669 0.41622 0.95516 0.0
C401 C 0.4027 0.42683 0.95885 0.0
H402 H 0.40656 0.41287 0.99519 0.0
H403 H 0.36618 0.39605 0.9629 0.0
C404 C 0.34985 0.32686 0.98964 0.0
N405 N 0.36222 0.33999 0.98449 0.0
C406 C 0.34481 0.31217 0.98158 0.0
C407 C 0.36504 0.32471 0.9627 0.0
C408 C 0.36983 0.33917 0.97129 0.0
C409 C 0.35232 0.31093 0.96779 0.0
H410 H 0.34364 0.32784 -0.00019 0.0
H411 H 0.37926 0.34973 0.96702 0.0
O412 O 0.37164 0.39169 0.01648 0.0
O413 O 0.36065 0.35709 0.01874 0.0
O414 O 0.35492 0.36917 0.98546 0.0
O415 O 0.38866 0.37713 0.99848 0.0
H416 H 0.39764 0.41558 0.03096 0.0
H417 H 0.35683 0.40287 0.99907 0.0
H418 H 0.40652 0.44373 0.02796 0.0
H419 H 0.36639 0.43125 0.9967 0.0
H420 H 0.38749 0.33219 0.03025 0.0
H421 H 0.34238 0.33861 0.04059 0.0
H422 H 0.38381 0.35151 0.01514 0.0
H423 H 0.34669 0.31941 0.05523 0.0
H424 H 0.31504 0.38278 0.03452 0.0
H425 H 0.30191 0.33376 0.02814 0.0
H426 H 0.43169 0.40968 0.05129 0.0
H427 H 0.3932 0.37853 0.07937 0.0
H428 H 0.36627 0.37035 0.95624 0.0
H429 H 0.32672 0.34392 0.98468 0.0
H430 H 0.35272 0.35037 0.9327 0.0
H431 H 0.31387 0.32436 0.96066 0.0
H432 H 0.39288 0.3825 0.96679 0.0
H433 H 0.4102 0.3713 0.01041 0.0
H434 H 0.41383 0.38227 0.95154 0.0
H435 H 0.43075 0.37107 0.99431 0.0
H436 H 0.42197 0.434 0.97725 0.0
H437 H 0.38082 0.41643 0.94375 0.0
H438 H 0.33508 0.30191 0.98613 0.0
H439 H 0.371 0.32442 0.95193 0.0
Li440 Li 0.63057 0.99387 0.05082 0.0
Li441 Li 0.62257 0.01155 0.06011 0.0
Li442 Li 0.61513 0.99953 0.03205 0.0
Li443 Li 0.64239 0.01921 0.0406 0.0
C444 C 0.60255 0.98055 0.06616 0.0
N445 N 0.58973 0.96412 0.09349 0.0
C446 C 0.61201 0.98308 0.0805 0.0
C447 C 0.58658 0.96968 0.06574 0.0
C448 C 0.6053 0.97465 0.09418 0.0
C449 C 0.58032 0.96148 0.07968 0.0
C450 C 0.6533 0.0279 0.07304 0.0
C451 C 0.6624 0.05524 0.08057 0.0
N452 N 0.67292 0.05551 0.09199 0.0
C453 C 0.66421 0.02846 0.08482 0.0
C454 C 0.65238 0.0414 0.07086 0.0
C455 C 0.67402 0.04252 0.09429 0.0
C456 C 0.65122 0.98441 0.06058 0.0
N457 N 0.63577 0.9787 0.05707 0.0
C458 C 0.62977 0.95293 0.0634 0.0
C459 C 0.62504 0.96326 0.05814 0.0
C460 C 0.64567 0.95859 0.06746 0.0
C461 C 0.65647 0.97452 0.0658 0.0
H462 H 0.65946 0.99675 0.05951 0.0
H463 H 0.61283 0.959 0.05505 0.0
C464 C 0.60055 0.01649 0.07484 0.0
N465 N 0.61439 0.01723 0.07818 0.0
C466 C 0.59215 0.01756 0.08769 0.0
C467 C 0.61276 0.02087 0.10717 0.0
C468 C 0.6207 0.01957 0.09394 0.0
C469 C 0.59811 0.01946 0.10412 0.0
H470 H 0.5957 0.01431 0.06219 0.0
H471 H 0.63145 0.01958 0.09636 0.0
C472 C 0.63405 0.98588 0.02089 0.0
N473 N 0.63401 0.95927 0.00868 0.0
C474 C 0.64783 0.98696 0.01591 0.0
C475 C 0.62024 0.97128 0.01957 0.0
C476 C 0.64757 0.97336 0.0098 0.0
C477 C 0.62046 0.95797 0.01338 0.0
C478 C 0.62391 0.03039 0.02645 0.0
C479 C 0.62878 0.0278 0.01131 0.0
C480 C 0.61883 0.04122 0.028 0.0
C481 C 0.62852 0.03615 0.99797 0.0
C482 C 0.61876 0.04934 0.01438 0.0
N483 N 0.62356 0.04666 -0.00023 0.0
C484 C 0.58629 0.99285 0.01726 0.0
C485 C 0.60221 0.98865 0.99919 0.0
C486 C 0.57523 0.98947 0.00423 0.0
N487 N 0.59949 0.9925 0.01448 0.0
C488 C 0.59139 0.98501 0.98586 0.0
C489 C 0.5778 0.98562 0.98826 0.0
H490 H 0.5846 0.99621 0.02953 0.0
H491 H 0.61301 0.98892 0.99721 0.0
C492 C 0.67253 0.03053 0.033 0.0
N493 N 0.66173 0.03505 0.03367 0.0
C494 C 0.68673 0.04005 0.02635 0.0
C495 C 0.67895 0.05932 0.02232 0.0
C496 C 0.66481 0.04935 0.02902 0.0
C497 C 0.68997 0.05452 0.02053 0.0
H498 H 0.66987 0.01927 0.03722 0.0
H499 H 0.6562 0.05288 0.03013 0.0
O500 O 0.60873 0.98883 0.05267 0.0
O501 O 0.64374 0.01418 0.06366 0.0
O502 O 0.63409 0.99896 0.02731 0.0
O503 O 0.6238 0.02222 0.03967 0.0
H504 H 0.62438 0.99148 0.08112 0.0
H505 H 0.5791 0.96765 0.05475 0.0
H506 H 0.61248 0.97651 0.10535 0.0
H507 H 0.56797 0.95304 0.07952 0.0
H508 H 0.66182 0.06576 0.07903 0.0
H509 H 0.66508 0.01812 0.08662 0.0
H510 H 0.64406 0.04126 0.06184 0.0
H511 H 0.68251 0.04312 0.10347 0.0
H512 H 0.6211 0.94069 0.06435 0.0
H513 H 0.6688 0.97941 0.06901 0.0
H514 H 0.58091 0.01649 0.08484 0.0
H515 H 0.61763 0.02207 0.11967 0.0
H516 H 0.6586 0.99814 0.01671 0.0
H517 H 0.6095 0.9702 0.02351 0.0
H518 H 0.65815 0.97402 0.00594 0.0
H519 H 0.60988 0.94658 0.01239 0.0
H520 H 0.63278 0.0195 0.00983 0.0
H521 H 0.61496 0.04329 0.03963 0.0
H522 H 0.63227 0.03428 0.98619 0.0
H523 H 0.61486 0.05777 0.01541 0.0
H524 H 0.56488 0.99005 0.00656 0.0
H525 H 0.59396 0.9824 0.97368 0.0
H526 H 0.69477 0.03576 0.02515 0.0
H527 H 0.68109 0.07052 0.01832 0.0
Li528 Li 0.66052 0.68606 0.34545 0.0
Li529 Li 0.68446 0.6987 0.36345 0.0
Li530 Li 0.66401 0.706 0.36609 0.0
Li531 Li 0.6806 0.71456 0.34308 0.0
C532 C 0.6526 0.67059 0.3731 0.0
N533 N 0.63207 0.63963 0.37891 0.0
C534 C 0.65821 0.6612 0.37916 0.0
C535 C 0.63653 0.66428 0.3702 0.0
C536 C 0.64764 0.64557 0.38198 0.0
C537 C 0.62635 0.64859 0.37314 0.0
C538 C 0.69302 0.69378 0.33054 0.0
C539 C 0.7175 0.705 0.31769 0.0
N540 N 0.71447 0.69029 0.31292 0.0
C541 C 0.69005 0.67878 0.32523 0.0
C542 C 0.70678 0.70701 0.32651 0.0
C543 C 0.70107 0.67726 0.31646 0.0
C544 C 0.63473 0.66579 0.32306 0.0
N545 N 0.64625 0.66674 0.33343 0.0
C546 C 0.63724 0.63945 0.32754 0.0
C547 C 0.64779 0.65401 0.33565 0.0
C548 C 0.62504 0.63801 0.3169 0.0
C549 C 0.62393 0.65146 0.31461 0.0
H550 H 0.63389 0.67616 0.3214 0.0
H551 H 0.6571 0.6551 0.34395 0.0
C552 C 0.70618 0.70296 0.38963 0.0
N553 N 0.69877 0.69457 0.37512 0.0
C554 C 0.71602 0.69941 0.39879 0.0
C555 C 0.71014 0.67844 0.37809 0.0
C556 C 0.7005 0.68246 0.36929 0.0
C557 C 0.71801 0.68694 0.39308 0.0
H558 H 0.70425 0.71225 0.39421 0.0
H559 H 0.69405 0.67562 0.35806 0.0
C560 C 0.64729 0.70961 0.34294 0.0
N561 N 0.62707 0.72097 0.34538 0.0
C562 C 0.6525 0.72543 0.34078 0.0
C563 C 0.63175 0.69952 0.34616 0.0
C564 C 0.64211 0.73096 0.3421 0.0
C565 C 0.62172 0.70551 0.3474 0.0
C566 C 0.70193 0.73267 0.37051 0.0
C567 C 0.70439 0.74611 0.37976 0.0
C568 C 0.71471 0.73198 0.36502 0.0
C569 C 0.71958 0.75876 0.38307 0.0
C570 C 0.72973 0.74485 0.3686 0.0
N571 N 0.73183 0.75788 0.37745 0.0
C572 C 0.64296 0.70277 0.3906 0.0
C573 C 0.65906 0.72851 0.38225 0.0
C574 C 0.63636 0.70832 0.40198 0.0
N575 N 0.65416 0.7129 0.38112 0.0
C576 C 0.65288 0.73458 0.39352 0.0
C577 C 0.64145 0.72448 0.40372 0.0
H578 H 0.6393 0.69043 0.38952 0.0
H579 H 0.66794 0.73627 0.37449 0.0
C580 C 0.68649 0.72531 0.31156 0.0
N581 N 0.68954 0.73031 0.32784 0.0
C582 C 0.691 0.73617 0.29952 0.0
C583 C 0.70208 0.75715 0.32126 0.0
C584 C 0.6973 0.74588 0.33287 0.0
C585 C 0.69866 0.75234 0.30433 0.0
H586 H 0.68006 0.71283 0.30795 0.0
H587 H 0.69925 0.74959 0.34586 0.0
O588 O 0.66279 0.68587 0.37006 0.0
O589 O 0.6822 0.69547 0.33892 0.0
O590 O 0.65739 0.70407 0.34209 0.0
O591 O 0.68709 0.7202 0.36713 0.0
H592 H 0.67057 0.6659 0.38165 0.0
H593 H 0.63198 0.67136 0.3655 0.0
H594 H 0.65183 0.63815 0.3866 0.0
H595 H 0.6139 0.64353 0.37081 0.0
H596 H 0.72821 0.71516 0.31458 0.0
H597 H 0.67939 0.6684 0.32794 0.0
H598 H 0.70914 0.71874 0.32997 0.0
H599 H 0.69895 0.66571 0.31243 0.0
H600 H 0.63843 0.62938 0.32989 0.0
H601 H 0.61485 0.65094 0.30634 0.0
H602 H 0.72169 0.70608 0.41042 0.0
H603 H 0.7114 0.66878 0.37322 0.0
H604 H 0.66448 0.73341 0.33831 0.0
H605 H 0.62749 0.68723 0.34777 0.0
H606 H 0.64601 0.7432 0.34056 0.0
H607 H 0.60969 0.69785 0.34999 0.0
H608 H 0.69467 0.74681 0.38432 0.0
H609 H 0.7131 0.72151 0.35835 0.0
H610 H 0.72163 0.76926 0.39013 0.0
H611 H 0.73971 0.74444 0.36441 0.0
H612 H 0.62745 0.70005 0.40942 0.0
H613 H 0.65738 0.74714 0.39456 0.0
H614 H 0.68788 0.7319 0.28664 0.0
H615 H 0.70807 0.76949 0.32553 0.0
Li616 Li 0.2836 0.95185 0.38413 0.0
Li617 Li 0.29061 0.94424 0.41008 0.0
Li618 Li 0.30081 0.97242 0.40508 0.0
Li619 Li 0.31121 0.95783 0.3909 0.0
C620 C 0.26367 0.95153 0.40688 0.0
N621 N 0.23269 0.94331 0.4065 0.0
C622 C 0.25267 0.93732 0.41286 0.0
C623 C 0.25893 0.96163 0.40086 0.0
C624 C 0.23706 0.93336 0.41254 0.0
C625 C 0.2432 0.95723 0.40071 0.0
C626 C 0.28703 0.92171 0.38383 0.0
C627 C 0.29271 0.90065 0.383 0.0
N628 N 0.27777 0.8904 0.3771 0.0
C629 C 0.27177 0.91098 0.37762 0.0
C630 C 0.29763 0.91654 0.38643 0.0
C631 C 0.2673 0.89519 0.37435 0.0
C632 C 0.27376 0.95167 0.35148 0.0
N633 N 0.26828 0.94577 0.36613 0.0
C634 C 0.24234 0.93042 0.35356 0.0
C635 C 0.25289 0.93534 0.36741 0.0
C636 C 0.2477 0.93608 0.33815 0.0
C637 C 0.26366 0.94698 0.33728 0.0
H638 H 0.2861 0.95972 0.3507 0.0
H639 H 0.24882 0.93042 0.37903 0.0
C640 C 0.28651 0.93648 0.44262 0.0
N641 N 0.28328 0.9298 0.42691 0.0
C642 C 0.28065 0.92713 0.45589 0.0
C643 C 0.26852 0.90413 0.43659 0.0
C644 C 0.27457 0.91394 0.4237 0.0
C645 C 0.27136 0.91073 0.45292 0.0
H646 H 0.2934 0.94915 0.44479 0.0
H647 H 0.27185 0.90884 0.41116 0.0
C648 C 0.30819 0.98585 0.37646 0.0
N649 N 0.31723 0.01584 0.36768 0.0
C650 C 0.32387 0.9965 0.37434 0.0
C651 C 0.29708 0.99036 0.37389 0.0
C652 C 0.32821 0.01163 0.36996 0.0
C653 C 0.30188 0.00559 0.36951 0.0
C654 C 0.32341 0.96113 0.42326 0.0
C655 C 0.33638 0.97432 0.43131 0.0
C656 C 0.32205 0.94636 0.42376 0.0
C657 C 0.3479 0.97253 0.43958 0.0
C658 C 0.3338 0.94505 0.43218 0.0
N659 N 0.34639 0.95805 0.43983 0.0
C660 C 0.29681 0.99579 0.42217 0.0
C661 C 0.32248 0.00379 0.41499 0.0
C662 C 0.30174 0.01082 0.42936 0.0
N663 N 0.30716 0.99264 0.41506 0.0
C664 C 0.32789 0.019 0.42186 0.0
C665 C 0.31747 0.02273 0.42917 0.0
H666 H 0.28475 0.98661 0.42235 0.0
H667 H 0.33049 0.00085 0.40945 0.0
C668 C 0.32822 0.95031 0.36891 0.0
N669 N 0.32941 0.96012 0.38188 0.0
C670 C 0.34154 0.95286 0.36124 0.0
C671 C 0.35701 0.97555 0.38046 0.0
C672 C 0.34341 0.97253 0.38778 0.0
C673 C 0.35615 0.96576 0.36688 0.0
H674 H 0.31687 0.94079 0.3642 0.0
H675 H 0.34395 0.98038 0.39782 0.0
O676 O 0.27901 0.95563 0.40717 0.0
O677 O 0.29163 0.93724 0.38697 0.0
O678 O 0.30374 0.97108 0.38104 0.0
O679 O 0.3121 0.96272 0.41501 0.0
H680 H 0.25612 0.92938 0.41763 0.0
H681 H 0.26729 0.97273 0.39633 0.0
H682 H 0.22842 0.92238 0.41706 0.0
H683 H 0.23936 0.9649 0.39602 0.0
H684 H 0.30079 0.89648 0.385 0.0
H685 H 0.26342 0.91477 0.3755 0.0
H686 H 0.30957 0.9247 0.39093 0.0
H687 H 0.25549 0.88675 0.36963 0.0
H688 H 0.23014 0.92209 0.35489 0.0
H689 H 0.26844 0.95143 0.32566 0.0
H690 H 0.28322 0.93268 0.46831 0.0
H691 H 0.26121 0.89156 0.43374 0.0
H692 H 0.33261 0.99317 0.3762 0.0
H693 H 0.28488 0.98217 0.37525 0.0
H694 H 0.34032 0.02004 0.36839 0.0
H695 H 0.29342 0.00927 0.36756 0.0
H696 H 0.33757 0.98583 0.43109 0.0
H697 H 0.31201 0.93602 0.41779 0.0
H698 H 0.35804 0.98265 0.4458 0.0
H699 H 0.33291 0.93369 0.43264 0.0
H700 H 0.29334 0.01303 0.43515 0.0
H701 H 0.34006 0.02779 0.42121 0.0
H702 H 0.34033 0.94519 0.35063 0.0
H703 H 0.36805 0.98558 0.38523 0.0
Li704 Li 0.05144 0.32321 0.33767 0.0
Li705 Li 0.05928 0.33458 0.36571 0.0
Li706 Li 0.03124 0.31678 0.35706 0.0
Li707 Li 0.04549 0.34323 0.34806 0.0
C708 C 0.05783 0.30564 0.36041 0.0
N709 N 0.07726 0.29356 0.36547 0.0
C710 C 0.0732 0.31385 0.35591 0.0
C711 C 0.05232 0.29128 0.36747 0.0
C712 C 0.08285 0.30756 0.35857 0.0
C713 C 0.06232 0.28536 0.36992 0.0
C714 C 0.08139 0.35709 0.34688 0.0
C715 C 0.10175 0.38236 0.35892 0.0
N716 N 0.11244 0.38042 0.35081 0.0
C717 C 0.09255 0.35542 0.33851 0.0
C718 C 0.08599 0.37073 0.35703 0.0
C719 C 0.10819 0.36732 0.34072 0.0
C720 C 0.06128 0.32567 0.30602 0.0
N721 N 0.05688 0.31593 0.31852 0.0
C722 C 0.06121 0.29754 0.30293 0.0
C723 C 0.05646 0.30193 0.31717 0.0
C724 C 0.06607 0.30752 0.28993 0.0
C725 C 0.06589 0.32165 0.29149 0.0
H726 H 0.06138 0.33666 0.30745 0.0
H727 H 0.05255 0.29421 0.32713 0.0
C728 C 0.06661 0.33637 0.39884 0.0
N729 N 0.07363 0.33993 0.38438 0.0
C730 C 0.07534 0.33879 0.41363 0.0
C731 C 0.09849 0.3486 0.39846 0.0
C732 C 0.08926 0.34589 0.38389 0.0
C733 C 0.09147 0.34487 0.41355 0.0
H734 H 0.05414 0.33144 0.39885 0.0
H735 H 0.09456 0.34825 0.37223 0.0
C736 C 0.02131 0.31072 0.32384 0.0
N737 N 0.00094 0.2853 0.30246 0.0
C738 C 0.01304 0.31269 0.31078 0.0
C739 C 0.01921 0.29582 0.32605 0.0
C740 C 0.00279 0.29969 0.3001 0.0
C741 C 0.00886 0.28312 0.3151 0.0
C742 C 0.03869 0.34721 0.37953 0.0
C743 C 0.02345 0.34398 0.38124 0.0
C744 C 0.05122 0.36112 0.38702 0.0
C745 C 0.02103 0.35495 0.39006 0.0
C746 C 0.04832 0.37179 0.39576 0.0
N747 N 0.03341 0.36853 0.39705 0.0
C748 C 0.01118 0.29261 0.37623 0.0
C749 C 0.99881 0.30206 0.35838 0.0
C750 C 0.99715 0.28302 0.38323 0.0
N751 N 0.01175 0.30197 0.36421 0.0
C752 C 0.98454 0.2927 0.36505 0.0
C753 C 0.98365 0.28324 0.37788 0.0
H754 H 0.02174 0.29299 0.38075 0.0
H755 H -0.00027 0.30989 0.34902 0.0
C756 C 0.05386 0.37342 0.33704 0.0
N757 N 0.04233 0.35986 0.34246 0.0
C758 C 0.05076 0.38509 0.3324 0.0
C759 C 0.02403 0.36858 0.33908 0.0
C760 C 0.02761 0.35719 0.34338 0.0
C761 C 0.03564 0.38272 0.33334 0.0
H762 H 0.06535 0.37505 0.33594 0.0
H763 H 0.01858 0.3461 0.3473 0.0
O764 O 0.0482 0.31163 0.35805 0.0
O765 O 0.06602 0.34553 0.34486 0.0
O766 O 0.03141 0.32339 0.33433 0.0
O767 O 0.04128 0.33663 0.37088 0.0
H768 H 0.07761 0.32492 0.3504 0.0
H769 H 0.04043 0.28475 0.37099 0.0
H770 H 0.09478 0.31381 0.35515 0.0
H771 H 0.05821 0.27425 0.37537 0.0
H772 H 0.10548 0.39294 0.3668 0.0
H773 H 0.08918 0.34504 0.33042 0.0
H774 H 0.07749 0.37235 0.36333 0.0
H775 H 0.11696 0.36615 0.3344 0.0
H776 H 0.06106 0.28648 0.30207 0.0
H777 H 0.06969 0.32971 0.28178 0.0
H778 H 0.06949 0.3359 0.42502 0.0
H779 H 0.11088 0.35313 0.39788 0.0
H780 H 0.01454 0.32416 0.30892 0.0
H781 H 0.02548 0.29404 0.33608 0.0
H782 H 0.99631 0.30104 0.28993 0.0
H783 H 0.00713 0.27153 0.31665 0.0
H784 H 0.0136 0.33317 0.3757 0.0
H785 H 0.06306 0.3636 0.38623 0.0
H786 H 0.0093 0.35267 0.39135 0.0
H787 H 0.05793 0.38264 0.40156 0.0
H788 H 0.99694 0.27577 0.39295 0.0
H789 H 0.9745 0.29341 0.36072 0.0
H790 H 0.06 0.39563 0.32769 0.0
H791 H 0.01226 0.36626 0.34018 0.0
Li792 Li 0.67797 0.98054 0.38776 0.0
Li793 Li 0.65901 0.95227 0.39189 0.0
Li794 Li 0.67422 0.95956 0.36824 0.0
Li795 Li 0.6535 0.96513 0.36973 0.0
C796 C 0.69309 0.95891 0.39114 0.0
N797 N 0.71483 0.94952 0.38829 0.0
C798 C 0.69001 0.94443 0.39652 0.0
C799 C 0.7073 0.9687 0.38449 0.0
C800 C 0.70114 0.93987 0.39494 0.0
C801 C 0.71812 0.96371 0.38309 0.0
C802 C 0.64156 0.96685 0.39948 0.0
C803 C 0.61419 0.9482 0.40098 0.0
N804 N 0.61277 0.9591 0.41038 0.0
C805 C 0.63984 0.97788 0.40913 0.0
C806 C 0.62865 0.95189 0.39534 0.0
C807 C 0.62518 0.97373 0.41454 0.0
C808 C 0.68652 0.0112 0.39894 0.0
N809 N 0.69146 0.00063 0.39843 0.0
C810 C 0.71584 0.01938 0.41252 0.0
C811 C 0.70571 0.00431 0.40517 0.0
C812 C 0.71112 0.0306 0.41313 0.0
C813 C 0.6962 0.02634 0.40638 0.0
H814 H 0.67509 0.00787 0.39345 0.0
H815 H 0.70924 0.9956 0.40472 0.0
C816 C 0.64671 0.92233 0.40353 0.0
N817 N 0.65052 0.93735 0.4079 0.0
C818 C 0.64186 0.91121 0.41529 0.0
C819 C 0.64421 0.93107 0.43564 0.0
C820 C 0.64923 0.94186 0.42352 0.0
C821 C 0.64074 0.91555 0.4317 0.0
H822 H 0.64803 0.91917 0.39102 0.0
H823 H 0.65238 0.95393 0.42662 0.0
C824 C 0.68474 0.98918 0.35286 0.0
N825 N 0.70477 0.00931 0.33109 0.0
C826 C 0.67913 0.98949 0.33691 0.0
C827 C 0.7005 0.99927 0.35779 0.0
C828 C 0.68945 -0.0003 0.32607 0.0
C829 C 0.71045 0.00932 0.34659 0.0
C830 C 0.6448 0.93607 0.35384 0.0
C831 C 0.64975 0.94356 0.33925 0.0
C832 C 0.63287 0.92034 0.35309 0.0
C833 C 0.64267 0.93519 0.32409 0.0
C834 C 0.62606 0.91235 0.33769 0.0
N835 N 0.63106 0.91988 0.32363 0.0
C836 C 0.6793 0.9363 0.35485 0.0
C837 C 0.69411 0.96035 0.34252 0.0
C838 C 0.68484 0.9289 0.34441 0.0
N839 N 0.68387 0.95171 0.35366 0.0
C840 C 0.69988 0.9534 0.33174 0.0
C841 C 0.6951 0.93741 0.33246 0.0
H842 H 0.67118 0.9297 0.36385 0.0
H843 H 0.69766 0.97255 0.34172 0.0
C844 C 0.64282 0.98245 0.35383 0.0
N845 N 0.63825 0.96757 0.35774 0.0
C846 C 0.63265 0.98553 0.34467 0.0
C847 C 0.6131 0.95792 0.34397 0.0
C848 C 0.6237 0.95536 0.35313 0.0
C849 C 0.61756 0.97318 0.33959 0.0
H850 H 0.65446 0.99193 0.35775 0.0
H851 H 0.62031 0.94366 0.35656 0.0
O852 O 0.68217 0.9634 0.39223 0.0
O853 O 0.65582 0.97081 0.39399 0.0
O854 O 0.67475 0.97937 0.3637 0.0
O855 O 0.65153 0.944 0.36885 0.0
H856 H 0.67914 0.93675 0.40179 0.0
H857 H 0.70987 0.9799 0.38019 0.0
H858 H 0.69887 0.92865 0.39898 0.0
H859 H 0.7291 0.97111 0.37782 0.0
H860 H 0.6041 0.93667 0.39787 0.0
H861 H 0.64973 0.98953 0.41239 0.0
H862 H 0.62975 0.94322 0.38783 0.0
H863 H 0.62367 0.98215 0.42202 0.0
H864 H 0.72721 0.0222 0.41776 0.0
H865 H 0.6922 0.03472 0.40655 0.0
H866 H 0.63961 0.89952 0.41167 0.0
H867 H 0.64327 0.93491 0.44802 0.0
H868 H 0.66692 0.98196 0.33293 0.0
H869 H 0.70505 0.99932 0.37009 0.0
H870 H 0.68527 1e-05 0.31367 0.0
H871 H 0.72269 0.01713 0.35023 0.0
H872 H 0.65901 0.95568 0.33961 0.0
H873 H 0.62889 0.91438 0.3643 0.0
H874 H 0.64641 0.94085 0.3127 0.0
H875 H 0.6168 0.90017 0.33692 0.0
H876 H 0.68102 0.91662 0.3456 0.0
H877 H 0.70761 0.96038 0.3226 0.0
H878 H 0.63668 0.99744 0.34141 0.0
H879 H 0.60151 0.9481 0.34052 0.0
Li880 Li 0.05038 0.72158 0.35703 0.0
Li881 Li 0.02226 0.71146 0.34699 0.0
Li882 Li 0.03811 0.70251 0.33347 0.0
Li883 Li 0.04419 0.72868 0.33033 0.0
C884 C 0.03426 0.69084 0.36681 0.0
N885 N 0.03929 0.67272 0.38836 0.0
C886 C 0.02432 0.68417 0.37948 0.0
C887 C 0.04669 0.68823 0.36504 0.0
C888 C 0.02708 0.67507 0.39027 0.0
C889 C 0.04906 0.67905 0.37607 0.0
C890 C 0.0439 0.74893 0.35226 0.0
C891 C 0.03928 0.76892 0.3421 0.0
N892 N 0.05346 0.7802 0.34907 0.0
C893 C 0.05841 0.76071 0.35936 0.0
C894 C 0.03422 0.75303 0.3436 0.0
C895 C 0.06303 0.77647 0.3576 0.0
C896 C 0.07973 0.73807 0.37523 0.0
N897 N 0.06415 0.72844 0.37627 0.0
C898 C 0.06762 0.72878 0.40555 0.0
C899 C 0.05797 0.72385 0.39102 0.0
C900 C 0.08379 0.73896 0.40502 0.0
C901 C 0.08981 0.74357 0.38953 0.0
H902 H 0.08428 0.74171 0.36332 0.0
H903 H 0.04551 0.71641 0.39151 0.0
C904 C 0.99277 0.68939 0.35562 0.0
N905 N 0.00243 0.70508 0.35462 0.0
C906 C 0.97863 0.68385 0.3629 0.0
C907 C 0.98459 0.71074 0.36775 0.0
C908 C 0.99862 0.71576 0.36035 0.0
C909 C 0.97451 0.6946 0.36932 0.0
H910 H 0.99633 0.68123 0.35131 0.0
H911 H 0.00667 0.72818 0.35965 0.0
C912 C 0.06995 0.72051 0.32718 0.0
N913 N 0.09234 0.71844 0.30996 0.0
C914 C 0.07186 0.72435 0.31073 0.0
C915 C 0.07965 0.71593 0.33496 0.0
C916 C 0.08318 0.72314 0.30222 0.0
C917 C 0.09083 0.71486 0.32601 0.0
C918 C 0.01821 0.69924 0.30934 0.0
C919 C 0.02597 0.70278 0.29477 0.0
C920 C 0.00447 0.6848 0.31004 0.0
C921 C 0.01991 0.69172 0.28117 0.0
C922 C 0.99881 0.67403 0.2962 0.0
N923 N 0.0066 0.67768 0.28217 0.0
C924 C 0.02517 0.66988 0.32916 0.0
C925 C 0.04273 0.6834 0.3089 0.0
C926 C 0.02174 0.65542 0.32166 0.0
N927 N 0.03564 0.68353 0.32285 0.0
C928 C 0.03946 0.66917 0.30083 0.0
C929 C 0.02886 0.65496 0.30725 0.0
H930 H 0.0191 0.67017 0.33978 0.0
H931 H 0.05049 0.69426 0.30365 0.0
C932 C 0.06697 0.75691 0.31889 0.0
N933 N 0.05177 0.74542 0.31623 0.0
C934 C 0.07361 0.76895 0.30823 0.0
C935 C 0.04871 0.75729 0.29247 0.0
C936 C 0.04251 0.74551 0.30354 0.0
C937 C 0.06452 0.76908 0.29464 0.0
H938 H 0.07404 0.75645 0.32908 0.0
H939 H 0.03042 0.73626 0.30182 0.0
O940 O 0.03181 0.69994 0.35626 0.0
O941 O 0.03937 0.73345 0.35344 0.0
O942 O 0.05914 0.7219 0.33584 0.0
O943 O 0.02418 0.70974 0.32292 0.0
H944 H 0.01465 0.68611 0.38102 0.0
H945 H 0.05436 0.69318 0.3552 0.0
H946 H 0.01952 0.66988 0.40018 0.0
H947 H 0.05865 0.67694 0.37485 0.0
H948 H 0.03196 0.77227 0.33533 0.0
H949 H 0.06606 0.75773 0.36604 0.0
H950 H 0.02304 0.74403 0.33784 0.0
H951 H 0.07425 0.78572 0.36298 0.0
H952 H 0.06239 0.72462 0.41707 0.0
H953 H 0.10212 0.7516 0.38845 0.0
H954 H 0.97136 0.67134 0.36412 0.0
H955 H 0.9818 0.7194 0.37246 0.0
H956 H 0.06455 0.72801 0.30452 0.0
H957 H 0.07866 0.71335 0.34781 0.0
H958 H 0.08468 0.72594 0.28945 0.0
H959 H 0.09836 0.71125 0.33186 0.0
H960 H 0.03666 0.71386 0.29403 0.0
H961 H 0.99833 0.68187 0.32121 0.0
H962 H 0.02586 0.69426 0.26986 0.0
H963 H 0.98826 0.66276 0.29661 0.0
H964 H 0.01325 0.64468 0.32678 0.0
H965 H 0.0451 0.66926 0.28966 0.0
H966 H 0.08589 0.77768 0.31023 0.0
H967 H 0.04128 0.75706 0.28223 0.0
Li968 Li 0.28322 0.34448 0.3922 0.0
Li969 Li 0.29241 0.32583 0.3871 0.0
Li970 Li 0.30196 0.3494 0.373 0.0
Li971 Li 0.27553 0.3294 0.36607 0.0
C972 C 0.3185 0.36025 0.40088 0.0
N973 N 0.34795 0.3863 0.40702 0.0
C974 C 0.33153 0.35844 0.40229 0.0
C975 C 0.32041 0.37528 0.40272 0.0
C976 C 0.34634 0.37177 0.40536 0.0
C977 C 0.33541 0.38831 0.40579 0.0
C978 C 0.2604 0.31692 0.40035 0.0
C979 C 0.23473 0.30811 0.40963 0.0
N980 N 0.2406 0.31033 0.42556 0.0
C981 C 0.26614 0.31896 0.41681 0.0
C982 C 0.24455 0.31134 0.3967 0.0
C983 C 0.25596 0.31563 0.42938 0.0
C984 C 0.26182 0.35165 0.40571 0.0
N985 N 0.27585 0.35272 0.40882 0.0
C986 C 0.27689 0.36123 0.43706 0.0
C987 C 0.2836 0.35771 0.424 0.0
C988 C 0.26203 0.35944 0.43444 0.0
C989 C 0.25462 0.35492 0.41844 0.0
H990 H 0.2559 0.34751 0.39352 0.0
H991 H 0.29461 0.35816 0.42617 0.0
C992 C 0.31166 0.31328 0.38936 0.0
N993 N 0.29859 0.31204 0.39546 0.0
C994 C 0.31755 0.30401 0.3949 0.0
C995 C 0.29647 0.29239 0.41304 0.0
C996 C 0.29082 0.30172 0.40692 0.0
C997 C 0.31002 0.29355 0.40702 0.0
H998 H 0.31759 0.32162 0.38026 0.0
H999 H 0.28032 0.30076 0.41137 0.0
C1000 C 0.28374 0.35846 0.35547 0.0
N1001 N 0.28339 0.37067 0.32558 0.0
C1002 C 0.28872 0.35392 0.3415 0.0
C1003 C 0.27857 0.3692 0.35422 0.0
C1004 C 0.28846 0.36023 0.32652 0.0
C1005 C 0.27849 0.37524 0.339 0.0
C1006 C 0.2915 0.31419 0.3552 0.0
C1007 C 0.30077 0.31397 0.34283 0.0
C1008 C 0.27897 0.30003 0.35961 0.0
C1009 C 0.29732 0.29958 0.33499 0.0
C1010 C 0.27592 0.28588 0.35148 0.0
N1011 N 0.28507 0.28595 0.33944 0.0
C1012 C 0.33044 0.35895 0.36042 0.0
C1013 C 0.32438 0.37933 0.36151 0.0
C1014 C 0.34447 0.36865 0.35356 0.0
N1015 N 0.32071 0.36437 0.36413 0.0
C1016 C 0.33833 0.38946 0.35459 0.0
C1017 C 0.34854 0.38409 0.35046 0.0
H1018 H 0.32722 0.34702 0.36275 0.0
H1019 H 0.31646 0.38335 0.36474 0.0
C1020 C 0.24658 0.32165 0.35074 0.0
N1021 N 0.25926 0.32012 0.34868 0.0
C1022 C 0.23487 0.31659 0.33798 0.0
C1023 C 0.24946 0.30845 0.32124 0.0
C1024 C 0.26093 0.31379 0.33423 0.0
C1025 C 0.23629 0.30995 0.32297 0.0
H1026 H 0.2458 0.32724 0.36212 0.0
H1027 H 0.27139 0.31339 0.33242 0.0
O1028 O 0.30395 0.3474 0.39742 0.0
O1029 O 0.27029 0.32061 0.38789 0.0
O1030 O 0.28373 0.35242 0.37033 0.0
O1031 O 0.29494 0.32822 0.36309 0.0
H1032 H 0.33024 0.34688 0.40089 0.0
H1033 H 0.31042 0.37687 0.40153 0.0
H1034 H 0.35655 0.37056 0.40638 0.0
H1035 H 0.33708 0.40003 0.40713 0.0
H1036 H 0.22245 0.30386 0.40699 0.0
H1037 H 0.27842 0.32348 0.41986 0.0
H1038 H 0.23987 0.30954 0.38405 0.0
H1039 H 0.26029 0.31735 0.44217 0.0
H1040 H 0.28289 0.3645 0.44926 0.0
H1041 H 0.24321 0.35352 0.4159 0.0
H1042 H 0.32809 0.30528 0.39006 0.0
H1043 H 0.2903 0.28432 0.4223 0.0
H1044 H 0.29276 0.34564 0.34215 0.0
H1045 H 0.27464 0.3728 0.3649 0.0
H1046 H 0.29228 0.35681 0.31562 0.0
H1047 H 0.27451 0.38356 0.33786 0.0
H1048 H 0.31053 0.32482 0.33931 0.0
H1049 H 0.27168 0.2999 0.36918 0.0
H1050 H 0.30439 0.29924 0.32538 0.0
H1051 H 0.26627 0.27485 0.35475 0.0
H1052 H 0.35186 0.36395 0.35035 0.0
H1053 H 0.34111 0.40133 0.35251 0.0
H1054 H 0.22493 0.31805 0.33977 0.0
H1055 H 0.25122 0.30381 0.30971 0.0
Li1056 Li 0.32648 0.01923 0.67724 0.0
Li1057 Li 0.35008 0.03424 0.69547 0.0
Li1058 Li 0.32877 0.03972 0.6962 0.0
Li1059 Li 0.3453 0.04658 0.67298 0.0
C1060 C 0.32002 0.00504 0.70494 0.0
N1061 N 0.30275 0.97336 0.70988 0.0
C1062 C 0.32751 0.9969 0.7096 0.0
C1063 C 0.30374 0.99708 0.70288 0.0
C1064 C 0.31857 0.98089 0.71204 0.0
C1065 C 0.29522 0.98106 0.70539 0.0
C1066 C 0.3555 0.03009 0.65736 0.0
C1067 C 0.37822 0.0434 0.64177 0.0
N1068 N 0.36954 0.0348 0.62782 0.0
C1069 C 0.34682 0.02133 0.64288 0.0
C1070 C 0.37134 0.04116 0.65684 0.0
C1071 C 0.35414 0.0239 0.62806 0.0
C1072 C 0.29933 0.99583 0.65849 0.0
N1073 N 0.31293 0.99903 0.66656 0.0
C1074 C 0.30714 0.97265 0.66061 0.0
C1075 C 0.31714 0.98794 0.66745 0.0
C1076 C 0.29278 0.96882 0.65256 0.0
C1077 C 0.28902 0.98072 0.65135 0.0
H1078 H 0.29644 0.00498 0.6577 0.0
H1079 H 0.32815 0.99092 0.67379 0.0
C1080 C 0.3656 0.03455 0.72536 0.0
N1081 N 0.36531 0.03267 0.70865 0.0
C1082 C 0.37642 0.03308 0.7354 0.0
C1083 C 0.38607 0.02721 0.71084 0.0
C1084 C 0.3752 0.02902 0.70127 0.0
C1085 C 0.38682 0.02927 0.72817 0.0
H1086 H 0.35733 0.03711 0.73089 0.0
H1087 H 0.37447 0.02724 0.68797 0.0
C1088 C 0.31211 0.04153 0.67212 0.0
N1089 N 0.29214 0.05326 0.67359 0.0
C1090 C 0.31716 0.05695 0.66822 0.0
C1091 C 0.2969 0.03206 0.67673 0.0
C1092 C 0.30688 0.06266 0.66903 0.0
C1093 C 0.28699 0.03821 0.67742 0.0
C1094 C 0.36369 0.06369 0.70734 0.0
C1095 C 0.36111 0.06679 0.72351 0.0
C1096 C 0.37892 0.06904 0.70296 0.0
C1097 C 0.37385 0.07515 0.73507 0.0
C1098 C 0.39133 0.07734 0.71488 0.0
N1099 N 0.38856 0.08019 0.73056 0.0
C1100 C 0.30683 0.03682 0.71933 0.0
C1101 C 0.32332 0.06248 0.71099 0.0
C1102 C 0.30002 0.04249 0.73028 0.0
N1103 N 0.31835 0.04686 0.71011 0.0
C1104 C 0.31696 0.06868 0.72188 0.0
C1105 C 0.30528 0.05868 0.73191 0.0
H1106 H 0.30313 0.02446 0.71842 0.0
H1107 H 0.33259 0.07019 0.70355 0.0
C1108 C 0.34734 0.05668 0.641 0.0
N1109 N 0.35394 0.06129 0.6567 0.0
C1110 C 0.35213 0.06748 0.62892 0.0
C1111 C 0.37044 0.08759 0.64939 0.0
C1112 C 0.36537 0.07636 0.66106 0.0
C1113 C 0.36363 0.08324 0.63313 0.0
H1114 H 0.33796 0.04472 0.63803 0.0
H1115 H 0.37016 0.07978 0.67371 0.0
O1116 O 0.32858 0.02066 0.70222 0.0
O1117 O 0.3485 0.02794 0.67194 0.0
O1118 O 0.32213 0.03585 0.67184 0.0
O1119 O 0.35137 0.05532 0.69589 0.0
H1120 H 0.34009 0.00282 0.71119 0.0
H1121 H 0.29775 0.00313 0.69904 0.0
H1122 H 0.32422 0.97443 0.71559 0.0
H1123 H 0.28262 0.97473 0.70368 0.0
H1124 H 0.39045 0.05199 0.64117 0.0
H1125 H 0.33454 0.01276 0.64303 0.0
H1126 H 0.37822 0.04803 0.66793 0.0
H1127 H 0.34755 0.01727 0.61675 0.0
H1128 H 0.31047 0.96385 0.66199 0.0
H1129 H 0.27824 0.9784 0.64496 0.0
H1130 H 0.37663 0.03497 0.74866 0.0
H1131 H 0.39357 0.02391 0.70469 0.0
H1132 H 0.32892 0.0645 0.66479 0.0
H1133 H 0.29287 0.02016 0.68 0.0
H1134 H 0.31064 0.07459 0.66611 0.0
H1135 H 0.27522 0.03105 0.68107 0.0
H1136 H 0.34941 0.06261 0.72718 0.0
H1137 H 0.38112 0.06667 0.69053 0.0
H1138 H 0.37202 0.07757 0.74765 0.0
H1139 H 0.40317 0.08147 0.71169 0.0
H1140 H 0.2909 0.03429 0.73757 0.0
H1141 H 0.32162 0.08127 0.72287 0.0
H1142 H 0.34637 0.06371 0.61662 0.0
H1143 H 0.37936 0.09962 0.65311 0.0
Li1144 Li 0.98265 0.29273 0.72108 0.0
Li1145 Li 0.96666 0.3023 0.7332 0.0
Li1146 Li 0.96187 0.27594 0.73769 0.0
Li1147 Li 0.95553 0.28236 0.71083 0.0
C1148 C 0.9954 0.30352 0.75145 0.0
N1149 N 0.02617 0.31847 0.76377 0.0
C1150 C 0.00372 0.31983 0.75494 0.0
C1151 C 0.00267 0.2948 0.75435 0.0
C1152 C 0.01928 0.32717 0.76114 0.0
C1153 C 0.01825 0.30258 0.76054 0.0
C1154 C 0.97182 0.30759 0.6949 0.0
C1155 C 0.95843 0.31398 0.67401 0.0
N1156 N 0.96765 0.31313 0.66257 0.0
C1157 C 0.98121 0.30684 0.68295 0.0
C1158 C 0.96038 0.31126 0.69043 0.0
C1159 C 0.97891 0.30967 0.66667 0.0
C1160 C 0.00652 0.28871 0.70787 0.0
N1161 N 0.00301 0.29928 0.71466 0.0
C1162 C 0.02839 0.3206 0.71041 0.0
C1163 C 0.01354 0.31495 0.71599 0.0
C1164 C 0.03232 0.31004 0.70299 0.0
C1165 C 0.02117 0.29386 0.7019 0.0
H1166 H 0.99778 0.27634 0.70664 0.0
H1167 H 0.01028 0.3231 0.7211 0.0
C1168 C 0.96698 0.32137 0.76016 0.0
N1169 N 0.96785 0.32047 0.74353 0.0
C1170 C 0.96936 0.33521 0.76836 0.0
C1171 C 0.97342 0.34689 0.74211 0.0
C1172 C 0.97089 0.3328 0.73442 0.0
C1173 C 0.97287 0.34828 0.75932 0.0
H1174 H 0.9649 0.31147 0.76711 0.0
H1175 H 0.97178 0.33184 0.72126 0.0
C1176 C 0.96243 0.25531 0.71594 0.0
N1177 N 0.95374 0.22408 0.71776 0.0
C1178 C 0.94839 0.24347 0.70797 0.0
C1179 C 0.97211 0.25129 0.72472 0.0
C1180 C 0.94419 0.22775 0.70905 0.0
C1181 C 0.96749 0.23543 0.72554 0.0
C1182 C 0.93773 0.28672 0.74074 0.0
C1183 C 0.93485 0.28267 0.75703 0.0
C1184 C 0.93224 0.2959 0.73384 0.0
C1185 C 0.92662 0.28799 0.76621 0.0
C1186 C 0.92408 0.30102 0.74344 0.0
N1187 N 0.92146 0.297 0.75929 0.0
C1188 C 0.96283 0.26441 0.76854 0.0
C1189 C 0.9416 0.24654 0.74989 0.0
C1190 C 0.95693 0.25412 0.78107 0.0
N1191 N 0.95504 0.26051 0.75338 0.0
C1192 C 0.93545 0.23577 0.76195 0.0
C1193 C 0.94299 0.23968 0.77785 0.0
H1194 H 0.97327 0.27576 0.7711 0.0
H1195 H 0.93534 0.244 0.73794 0.0
C1196 C 0.94704 0.27089 0.67771 0.0
N1197 N 0.94171 0.27427 0.69153 0.0
C1198 C 0.93748 0.26498 0.66311 0.0
C1199 C 0.917 0.26585 0.67731 0.0
C1200 C 0.92701 0.27185 0.69165 0.0
C1201 C 0.92219 0.2623 0.66278 0.0
H1202 H 0.95876 0.27283 0.67805 0.0
H1203 H 0.92303 0.27447 0.70288 0.0
O1204 O 0.98023 0.29613 0.74514 0.0
O1205 O 0.97367 0.30455 0.71084 0.0
O1206 O 0.9667 0.27077 0.71512 0.0
O1207 O 0.94601 0.28186 0.73163 0.0
H1208 H 0.99831 0.32677 0.75271 0.0
H1209 H 0.99637 0.28217 0.75176 0.0
H1210 H 0.0259 0.33979 0.76381 0.0
H1211 H 0.02405 0.29599 0.76276 0.0
H1212 H 0.94954 0.31671 0.67035 0.0
H1213 H 0.99006 0.30394 0.68616 0.0
H1214 H 0.95295 0.3118 0.69949 0.0
H1215 H 0.98604 0.30905 0.65728 0.0
H1216 H 0.03661 0.33313 0.71173 0.0
H1217 H 0.02352 0.28529 0.69599 0.0
H1218 H 0.96905 0.33588 0.78167 0.0
H1219 H 0.97597 0.35665 0.73469 0.0
H1220 H 0.94074 0.24637 0.70115 0.0
H1221 H 0.98304 0.26031 0.73091 0.0
H1222 H 0.93332 0.21846 0.70302 0.0
H1223 H 0.97483 0.23213 0.73236 0.0
H1224 H 0.93903 0.27559 0.76258 0.0
H1225 H 0.93445 0.29922 0.72129 0.0
H1226 H 0.92436 0.285 0.77886 0.0
H1227 H 0.91986 0.30823 0.73831 0.0
H1228 H 0.963 0.25753 0.79324 0.0
H1229 H 0.92451 0.22487 0.75914 0.0
H1230 H 0.94209 0.26265 0.65217 0.0
H1231 H 0.90524 0.26376 0.6777 0.0
Li1232 Li 0.70751 0.67524 0.68187 0.0
Li1233 Li 0.69827 0.64965 0.69274 0.0
Li1234 Li 0.72517 0.67121 0.69822 0.0
Li1235 Li 0.71747 0.6584 0.67096 0.0
C1236 C 0.70192 0.67984 0.71274 0.0
N1237 N 0.69362 0.70007 0.72748 0.0
C1238 C 0.68674 0.67409 0.71747 0.0
C1239 C 0.71294 0.69583 0.71573 0.0
C1240 C 0.68275 0.68452 0.72484 0.0
C1241 C 0.7085 0.70588 0.72313 0.0
C1242 C 0.6862 0.64111 0.65959 0.0
C1243 C 0.67661 0.61379 0.65143 0.0
N1244 N 0.66752 0.61446 0.63891 0.0
C1245 C 0.67677 0.64153 0.64667 0.0
C1246 C 0.68614 0.62714 0.66202 0.0
C1247 C 0.6674 0.62792 0.63634 0.0
C1248 C 0.70928 0.70267 0.66962 0.0
N1249 N 0.70003 0.68868 0.67602 0.0
C1250 C 0.67807 0.69224 0.67345 0.0
C1251 C 0.6847 0.68332 0.67793 0.0
C1252 C 0.6872 0.70666 0.66651 0.0
C1253 C 0.70306 0.71189 0.66471 0.0
H1254 H 0.72139 0.70649 0.66801 0.0
H1255 H 0.6776 0.67202 0.68284 0.0
C1256 C 0.6803 0.62322 0.71158 0.0
N1257 N 0.68002 0.63316 0.7007 0.0
C1258 C 0.66669 0.61282 0.71887 0.0
C1259 C 0.65274 0.62259 0.70295 0.0
C1260 C 0.66659 0.6328 0.69604 0.0
C1261 C 0.65275 0.61268 0.71483 0.0
H1262 H 0.69113 0.6237 0.71499 0.0
H1263 H 0.6668 0.64099 0.68749 0.0
C1264 C 0.74443 0.69245 0.6774 0.0
N1265 N 0.7757 0.71505 0.67826 0.0
C1266 C 0.75487 0.68913 0.66969 0.0
C1267 C 0.74985 0.70733 0.68533 0.0
C1268 C 0.77065 0.7007 0.6703 0.0
C1269 C 0.76572 0.71857 0.68571 0.0
C1270 C 0.72901 0.64703 0.69994 0.0
C1271 C 0.74242 0.64977 0.6923 0.0
C1272 C 0.72758 0.64353 0.7165 0.0
C1273 C 0.75415 0.64889 0.70135 0.0
C1274 C 0.73959 0.64283 0.72514 0.0
N1275 N 0.75252 0.64548 0.71745 0.0
C1276 C 0.73674 0.68061 0.73112 0.0
C1277 C 0.75662 0.68489 0.71338 0.0
C1278 C 0.74725 0.68537 0.74494 0.0
N1279 N 0.7415 0.68036 0.71571 0.0
C1280 C 0.76758 0.68981 0.72688 0.0
C1281 C 0.76289 0.68991 0.74296 0.0
H1282 H 0.72459 0.67649 0.73277 0.0
H1283 H 0.76013 0.68409 0.70116 0.0
C1284 C 0.72536 0.6606 0.63823 0.0
N1285 N 0.72277 0.65171 0.65134 0.0
C1286 C 0.72992 0.65669 0.62359 0.0
C1287 C 0.72866 0.63433 0.6361 0.0
C1288 C 0.72401 0.6386 0.65047 0.0
C1289 C 0.73183 0.64353 0.62249 0.0
H1290 H 0.72416 0.6709 0.63931 0.0
H1291 H 0.72157 0.6316 0.66101 0.0
O1292 O 0.706 0.66986 0.70528 0.0
O1293 O 0.6955 0.65438 0.6697 0.0
O1294 O 0.72891 0.68136 0.67673 0.0
O1295 O 0.71754 0.64816 0.69137 0.0
H1296 H 0.6781 0.66173 0.71539 0.0
H1297 H 0.72479 0.70041 0.71236 0.0
H1298 H 0.67101 0.68026 0.72847 0.0
H1299 H 0.7169 0.7183 0.72544 0.0
H1300 H 0.67645 0.60291 0.65315 0.0
H1301 H 0.67671 0.65227 0.64464 0.0
H1302 H 0.69336 0.62659 0.67195 0.0
H1303 H 0.66004 0.62808 0.62628 0.0
H1304 H 0.66588 0.68781 0.67534 0.0
H1305 H 0.71051 0.72277 0.65915 0.0
H1306 H 0.66714 0.60522 0.72783 0.0
H1307 H 0.64233 0.62303 0.69964 0.0
H1308 H 0.75091 0.67771 0.66346 0.0
H1309 H 0.74191 0.7102 0.6911 0.0
H1310 H 0.77887 0.69826 0.66449 0.0
H1311 H 0.77009 0.73011 0.69188 0.0
H1312 H 0.74391 0.65282 0.67962 0.0
H1313 H 0.71746 0.64175 0.72273 0.0
H1314 H 0.76462 0.65105 0.69561 0.0
H1315 H 0.73869 0.64026 0.738 0.0
H1316 H 0.74298 0.68486 0.75709 0.0
H1317 H 0.77951 0.69323 0.72474 0.0
H1318 H 0.73238 0.66417 0.61343 0.0
H1319 H 0.72983 0.62398 0.63566 0.0
Li1320 Li 0.34534 0.31919 0.71955 0.0
Li1321 Li 0.32536 0.29177 0.72301 0.0
Li1322 Li 0.34113 0.29862 0.69773 0.0
Li1323 Li 0.32092 0.30545 0.70125 0.0
C1324 C 0.36096 0.30237 0.72996 0.0
N1325 N 0.38676 0.30505 0.74729 0.0
C1326 C 0.3607 0.30025 0.74687 0.0
C1327 C 0.37425 0.30554 0.7218 0.0
C1328 C 0.37388 0.30175 0.75543 0.0
C1329 C 0.3872 0.30694 0.73079 0.0
C1330 C 0.31446 0.30972 0.73795 0.0
C1331 C 0.28968 0.29667 0.7501 0.0
N1332 N 0.29612 0.30692 0.76372 0.0
C1333 C 0.32082 0.32018 0.75203 0.0
C1334 C 0.29876 0.29792 0.73692 0.0
C1335 C 0.31136 0.31855 0.76494 0.0
C1336 C 0.36381 0.35227 0.72411 0.0
N1337 N 0.35983 0.33867 0.73128 0.0
C1338 C 0.37532 0.35307 0.75596 0.0
C1339 C 0.3652 0.33883 0.74697 0.0
C1340 C 0.37989 0.36733 0.74876 0.0
C1341 C 0.37399 0.36677 0.73258 0.0
H1342 H 0.35897 0.35188 0.71184 0.0
H1343 H 0.36132 0.32791 0.75268 0.0
C1344 C 0.3118 0.26127 0.73383 0.0
N1345 N 0.31702 0.27653 0.73891 0.0
C1346 C 0.30761 0.24995 0.74536 0.0
C1347 C 0.31356 0.27014 0.76704 0.0
C1348 C 0.31787 0.28108 0.75514 0.0
C1349 C 0.30874 0.25438 0.76229 0.0
H1350 H 0.31152 0.25804 0.72086 0.0
H1351 H 0.32252 0.29333 0.75898 0.0
C1352 C 0.35517 0.32962 0.68705 0.0
N1353 N 0.38063 0.35055 0.67089 0.0
C1354 C 0.35306 0.3363 0.67309 0.0
C1355 C 0.37022 0.33365 0.69286 0.0
C1356 C 0.36608 0.34684 0.66507 0.0
C1357 C 0.38294 0.34424 0.68451 0.0
C1358 C 0.3057 0.27552 0.68861 0.0
C1359 C 0.30765 0.27422 0.67178 0.0
C1360 C 0.29071 0.26805 0.69423 0.0
C1361 C 0.2945 0.2657 0.66077 0.0
C1362 C 0.27786 0.25963 0.68283 0.0
N1363 N 0.28 0.25866 0.66648 0.0
C1364 C 0.35107 0.27822 0.68579 0.0
C1365 C 0.35434 0.2976 0.66759 0.0
C1366 C 0.3562 0.27127 0.67417 0.0
N1367 N 0.35014 0.29107 0.68226 0.0
C1368 C 0.35975 0.29121 0.65575 0.0
C1369 C 0.36046 0.27766 0.65879 0.0
H1370 H 0.3474 0.27311 0.69747 0.0
H1371 H 0.3531 0.30752 0.66482 0.0
C1372 C 0.29736 0.31337 0.69671 0.0
N1373 N 0.30647 0.30887 0.68891 0.0
C1374 C 0.28791 0.31743 0.68758 0.0
C1375 C 0.29729 0.31202 0.66255 0.0
C1376 C 0.30663 0.30817 0.67218 0.0
C1377 C 0.28789 0.31692 0.67024 0.0
H1378 H 0.29781 0.31432 0.71003 0.0
H1379 H 0.31434 0.30501 0.66632 0.0
O1380 O 0.34806 0.30067 0.72131 0.0
O1381 O 0.3236 0.31106 0.72526 0.0
O1382 O 0.34252 0.31922 0.69496 0.0
O1383 O 0.31842 0.28393 0.69954 0.0
H1384 H 0.35048 0.29762 0.75336 0.0
H1385 H 0.37455 0.30679 0.70864 0.0
H1386 H 0.37387 0.30027 0.76855 0.0
H1387 H 0.39757 0.30945 0.72464 0.0
H1388 H 0.27752 0.28755 0.74949 0.0
H1389 H 0.33294 0.32943 0.75299 0.0
H1390 H 0.29365 0.2898 0.72608 0.0
H1391 H 0.31613 0.32652 0.77593 0.0
H1392 H 0.37924 0.35291 0.76853 0.0
H1393 H 0.37725 0.37743 0.72647 0.0
H1394 H 0.30422 0.23804 0.74108 0.0
H1395 H 0.31441 0.27412 0.77988 0.0
H1396 H 0.34147 0.33333 0.66847 0.0
H1397 H 0.37205 0.32881 0.70381 0.0
H1398 H 0.36462 0.35206 0.65421 0.0
H1399 H 0.39466 0.34748 0.68889 0.0
H1400 H 0.31919 0.27987 0.66724 0.0
H1401 H 0.28903 0.26869 0.70725 0.0
H1402 H 0.29583 0.2647 0.64769 0.0
H1403 H 0.26617 0.25384 0.68699 0.0
H1404 H 0.3563 0.2607 0.67701 0.0
H1405 H 0.36311 0.29673 0.64422 0.0
H1406 H 0.28114 0.32147 0.69409 0.0
H1407 H 0.29756 0.31131 0.64923 0.0
Li1408 Li 0.69086 0.04103 0.67667 0.0
Li1409 Li 0.71656 0.04559 0.68423 0.0
Li1410 Li 0.71093 0.05329 0.65804 0.0
Li1411 Li 0.69969 0.02557 0.66144 0.0
C1412 C 0.7111 0.06896 0.6954 0.0
N1413 N 0.71262 0.08383 0.72564 0.0
C1414 C 0.70461 0.06013 0.70892 0.0
C1415 C 0.71836 0.08535 0.69726 0.0
C1416 C 0.7055 0.06787 0.7241 0.0
C1417 C 0.719 0.09265 0.71265 0.0
C1418 C 0.6981 0.01449 0.69261 0.0
C1419 C 0.71232 0.00082 0.69591 0.0
N1420 N 0.70213 0.99176 0.70689 0.0
C1421 C 0.68777 0.00503 0.70391 0.0
C1422 C 0.71049 0.01237 0.68856 0.0
C1423 C 0.69 0.99361 0.711 0.0
C1424 C 0.66164 0.02499 0.68898 0.0
N1425 N 0.6728 0.03955 0.68529 0.0
C1426 C 0.65834 0.05085 0.696 0.0
C1427 C 0.67131 0.05237 0.68837 0.0
C1428 C 0.64681 0.036 0.7004 0.0
C1429 C 0.64848 0.02292 0.69657 0.0
H1430 H 0.66318 0.01503 0.68635 0.0
H1431 H 0.68035 0.06382 0.68524 0.0
C1432 C 0.74578 0.06527 0.7014 0.0
N1433 N 0.73174 0.05199 0.70244 0.0
C1434 C 0.75646 0.07183 0.7152 0.0
C1435 C 0.73807 0.05087 0.73083 0.0
C1436 C 0.72778 0.04474 0.71678 0.0
C1437 C 0.7525 0.06476 0.73026 0.0
H1438 H 0.7484 0.07114 0.69003 0.0
H1439 H 0.71636 0.03462 0.71763 0.0
C1440 C 0.67991 0.04126 0.6451 0.0
N1441 N 0.66123 0.05131 0.63052 0.0
C1442 C 0.66731 0.03104 0.63406 0.0
C1443 C 0.683 0.05658 0.64877 0.0
C1444 C 0.65801 0.03634 0.6268 0.0
C1445 C 0.67342 0.06144 0.64126 0.0
C1446 C 0.73439 0.04601 0.65262 0.0
C1447 C 0.73215 0.04536 0.63545 0.0
C1448 C 0.74922 0.05077 0.65986 0.0
C1449 C 0.74485 0.04979 0.62582 0.0
C1450 C 0.76161 0.05502 0.64981 0.0
N1451 N 0.7592 0.05447 0.63313 0.0
C1452 C 0.73347 0.0823 0.64725 0.0
C1453 C 0.71372 0.06565 0.6266 0.0
C1454 C 0.7413 0.0934 0.63585 0.0
N1455 N 0.72005 0.0687 0.64241 0.0
C1456 C 0.7211 0.07643 0.61483 0.0
C1457 C 0.73522 0.09043 0.61932 0.0
H1458 H 0.7383 0.08431 0.65989 0.0
H1459 H 0.70318 0.05462 0.62298 0.0
C1460 C 0.68067 0.99275 0.65678 0.0
N1461 N 0.69301 0.00541 0.65093 0.0
C1462 C 0.67525 0.97768 0.64945 0.0
C1463 C 0.69497 0.98901 0.62979 0.0
C1464 C 0.70016 0.00383 0.63769 0.0
C1465 C 0.6824 0.97563 0.63571 0.0
H1466 H 0.67503 0.99436 0.66718 0.0
H1467 H 0.70982 0.01405 0.63314 0.0
O1468 O 0.71057 0.06174 0.68041 0.0
O1469 O 0.69595 0.02566 0.68558 0.0
O1470 O 0.68898 0.03612 0.65242 0.0
O1471 O 0.7221 0.04154 0.66233 0.0
H1472 H 0.69896 0.04744 0.70775 0.0
H1473 H 0.72347 0.09235 0.68691 0.0
H1474 H 0.70054 0.06118 0.73466 0.0
H1475 H 0.72459 0.10532 0.71427 0.0
H1476 H 0.72185 0.99906 0.69289 0.0
H1477 H 0.67813 0.00652 0.70718 0.0
H1478 H 0.71863 0.01953 0.67986 0.0
H1479 H 0.6821 0.98621 0.71977 0.0
H1480 H 0.65741 0.0612 0.69858 0.0
H1481 H 0.63998 0.0113 0.69993 0.0
H1482 H 0.76734 0.08271 0.7143 0.0
H1483 H 0.73456 0.04501 0.74217 0.0
H1484 H 0.66474 0.01912 0.63114 0.0
H1485 H 0.69267 0.06466 0.65732 0.0
H1486 H 0.64822 0.02856 0.61822 0.0
H1487 H 0.67568 0.07326 0.64399 0.0
H1488 H 0.72071 0.04146 0.62961 0.0
H1489 H 0.7511 0.05094 0.67309 0.0
H1490 H 0.74328 0.04943 0.61252 0.0
H1491 H 0.77314 0.0587 0.65526 0.0
H1492 H 0.75227 0.10392 0.63981 0.0
H1493 H 0.71589 0.07372 0.60229 0.0
H1494 H 0.66568 0.96775 0.65464 0.0
H1495 H 0.70067 0.98812 0.61905 0.0
Li1496 Li 0.94816 0.67883 0.72471 0.0
Li1497 Li 0.95304 0.6571 0.71826 0.0
Li1498 Li 0.96619 0.68146 0.70534 0.0
Li1499 Li 0.93911 0.66471 0.6979 0.0
C1500 C 0.9825 0.68915 0.73342 0.0
N1501 N 0.01346 0.71182 0.74055 0.0
C1502 C 0.99381 0.68479 0.73507 0.0
C1503 C 0.98691 0.70503 0.73552 0.0
C1504 C 0.00941 0.69643 0.73864 0.0
C1505 C 0.00263 0.71631 0.7391 0.0
C1506 C 0.92323 0.65229 0.73245 0.0
C1507 C 0.89861 0.64527 0.74358 0.0
N1508 N 0.90506 0.64651 0.75905 0.0
C1509 C 0.92957 0.65335 0.74845 0.0
C1510 C 0.90761 0.64814 0.72997 0.0
C1511 C 0.92021 0.65044 0.76174 0.0
C1512 C 0.92953 0.68877 0.74074 0.0
N1513 N 0.94291 0.68826 0.74232 0.0
C1514 C 0.9464 0.6964 0.77104 0.0
C1515 C 0.95153 0.69229 0.75698 0.0
C1516 C 0.93213 0.69613 0.77007 0.0
C1517 C 0.92387 0.69266 0.75456 0.0
H1518 H 0.92279 0.68523 0.72897 0.0
H1519 H 0.96196 0.69149 0.75797 0.0
C1520 C 0.96815 0.64015 0.72136 0.0
N1521 N 0.95523 0.6404 0.72572 0.0
C1522 C 0.97103 0.62856 0.72668 0.0
C1523 C 0.94702 0.61744 0.74052 0.0
C1524 C 0.94452 0.62917 0.73477 0.0
C1525 C 0.96052 0.61718 0.73662 0.0
H1526 H 0.97629 0.64908 0.71387 0.0
H1527 H 0.93409 0.62931 0.7376 0.0
C1528 C 0.95145 0.69493 0.68869 0.0
N1529 N 0.95368 0.70909 0.65951 0.0
C1530 C 0.95587 0.68996 0.67457 0.0
C1531 C 0.94816 0.70709 0.68795 0.0
C1532 C 0.95694 0.69727 0.65994 0.0
C1533 C 0.94936 0.7141 0.67309 0.0
C1534 C 0.95108 0.6458 0.68621 0.0
C1535 C 0.96003 0.64404 0.6744 0.0
C1536 C 0.93682 0.63281 0.68957 0.0
C1537 C 0.95454 0.62932 0.66606 0.0
C1538 C 0.93175 0.61829 0.68097 0.0
N1539 N 0.94063 0.61686 0.6695 0.0
C1540 C 0.99421 0.68797 0.69291 0.0
C1541 C 0.99145 0.71046 0.69548 0.0
C1542 C 0.00879 0.69674 0.68668 0.0
N1543 N 0.98587 0.6949 0.69707 0.0
C1544 C 0.006 0.71969 0.68924 0.0
C1545 C 0.01484 0.71281 0.68469 0.0
H1546 H 0.98949 0.67558 0.69445 0.0
H1547 H 0.98463 0.71569 0.69909 0.0
C1548 C 0.91014 0.65812 0.6828 0.0
N1549 N 0.92321 0.65741 0.68029 0.0
C1550 C 0.8984 0.65315 0.67008 0.0
C1551 C 0.9139 0.64704 0.65241 0.0
C1552 C 0.92539 0.65231 0.66534 0.0
C1553 C 0.90019 0.64739 0.65471 0.0
H1554 H 0.90895 0.66275 0.69461 0.0
H1555 H 0.93615 0.65258 0.66327 0.0
O1556 O 0.96722 0.67798 0.72949 0.0
O1557 O 0.93238 0.65564 0.71934 0.0
O1558 O 0.95025 0.68799 0.70321 0.0
O1559 O 0.95645 0.66015 0.69456 0.0
H1560 H 0.9906 0.67256 0.73354 0.0
H1561 H 0.9783 0.7086 0.73415 0.0
H1562 H 0.0183 0.69324 0.73986 0.0
H1563 H 0.00622 0.72865 0.74064 0.0
H1564 H 0.88652 0.6421 0.74185 0.0
H1565 H 0.94169 0.65667 0.7506 0.0
H1566 H 0.90246 0.64713 0.71768 0.0
H1567 H 0.92502 0.65139 0.7742 0.0
H1568 H 0.95328 0.69923 0.78267 0.0
H1569 H 0.91272 0.69208 0.75325 0.0
H1570 H 0.9816 0.62878 0.72348 0.0
H1571 H 0.93853 0.6087 0.74795 0.0
H1572 H 0.95852 0.68062 0.67484 0.0
H1573 H 0.9447 0.71105 0.69877 0.0
H1574 H 0.96035 0.69355 0.64894 0.0
H1575 H 0.94684 0.72353 0.67235 0.0
H1576 H 0.9711 0.65396 0.67168 0.0
H1577 H 0.92972 0.63389 0.69868 0.0
H1578 H 0.96134 0.6278 0.65687 0.0
H1579 H 0.92074 0.60816 0.68343 0.0
H1580 H 0.0151 0.6909 0.68314 0.0
H1581 H 0.01032 0.73209 0.68808 0.0
H1582 H 0.88804 0.65376 0.67225 0.0
H1583 H 0.91592 0.64313 0.64057 0.0
H1584 H 0.17507 0.34753 0.05083 0.0
H1585 H 0.24046 0.28242 0.17555 0.0
H1586 H 0.15963 0.33815 0.13903 0.0
H1587 H 0.14097 0.3445 0.12645 0.0
H1588 H 0.10617 0.29499 0.12084 0.0
H1589 H 0.12512 0.28876 0.13327 0.0
H1590 H 0.18632 0.33958 0.11998 0.0
H1591 H 0.18535 0.34735 0.09197 0.0
H1592 H 0.14583 0.30104 0.07807 0.0
H1593 H 0.14706 0.29337 0.10609 0.0
H1594 H 0.2092 0.33382 0.14223 0.0
H1595 H 0.23037 0.34133 0.12394 0.0
H1596 H 0.20049 0.30026 0.09101 0.0
H1597 H 0.17928 0.29287 0.10944 0.0
H1598 H 0.20391 0.32351 0.17711 0.0
H1599 H 0.22527 0.31994 0.18739 0.0
H1600 H 0.20754 0.27807 0.1543 0.0
H1601 H 0.18612 0.28167 0.14428 0.0
H1602 H 0.17474 0.32259 0.19173 0.0
H1603 H 0.18068 0.31925 0.22019 0.0
H1604 H 0.17242 0.27295 0.20525 0.0
H1605 H 0.16622 0.27631 0.17672 0.0
H1606 H 0.15309 0.32833 0.17357 0.0
H1607 H 0.13466 0.326 0.19377 0.0
H1608 H 0.11384 0.27538 0.1894 0.0
H1609 H 0.13281 0.27798 0.1696 0.0
O1610 O 0.17528 0.3442 0.06181 0.0
O1611 O 0.15493 0.32025 0.05532 0.0
O1612 O 0.24072 0.30567 0.18855 0.0
O1613 O 0.23213 0.28412 0.1717 0.0
C1614 C 0.15574 0.30932 0.14267 0.0
C1615 C 0.16737 0.31121 0.13205 0.0
C1616 C 0.17971 0.3091 0.13777 0.0
C1617 C 0.18028 0.30479 0.15403 0.0
C1618 C 0.16854 0.30276 0.16463 0.0
C1619 C 0.15624 0.30497 0.15889 0.0
C1620 C 0.1437 0.31302 0.13699 0.0
C1621 C 0.1479 0.32871 0.1353 0.0
C1622 C 0.1372 0.3323 0.12818 0.0
C1623 C 0.12211 0.32024 0.1226 0.0
C1624 C 0.11777 0.30452 0.12486 0.0
C1625 C 0.1285 0.30094 0.13205 0.0
C1626 C 0.16682 0.31589 0.11501 0.0
C1627 C 0.17753 0.33111 0.11083 0.0
C1628 C 0.17691 0.33552 0.09484 0.0
C1629 C 0.16552 0.32481 0.08277 0.0
C1630 C 0.15476 0.30957 0.08705 0.0
C1631 C 0.15542 0.30516 0.10304 0.0
C1632 C 0.19277 0.31277 0.12719 0.0
C1633 C 0.20731 0.32633 0.13119 0.0
C1634 C 0.21938 0.33059 0.12073 0.0
C1635 C 0.21709 0.32138 0.10603 0.0
C1636 C 0.20254 0.30767 0.10216 0.0
C1637 C 0.19047 0.30338 0.11269 0.0
C1638 C 0.19342 0.30279 0.16004 0.0
C1639 C 0.20462 0.31354 0.17216 0.0
C1640 C 0.21683 0.31149 0.17797 0.0
C1641 C 0.2181 0.29869 0.17168 0.0
C1642 C 0.2069 0.28803 0.15942 0.0
C1643 C 0.19467 0.29007 0.15366 0.0
C1644 C 0.16998 0.29967 0.18216 0.0
C1645 C 0.17375 0.31154 0.19467 0.0
C1646 C 0.17716 0.30961 0.21093 0.0
C1647 C 0.17704 0.29585 0.21493 0.0
C1648 C 0.1727 0.28372 0.20248 0.0
C1649 C 0.16911 0.28559 0.18623 0.0
C1650 C 0.14423 0.30333 0.17014 0.0
C1651 C 0.14443 0.31674 0.17687 0.0
C1652 C 0.13382 0.31535 0.18835 0.0
C1653 C 0.12271 0.30048 0.19322 0.0
C1654 C 0.12236 0.28702 0.18612 0.0
C1655 C 0.13309 0.28845 0.17473 0.0
C1656 C 0.16487 0.32955 0.0658 0.0
C1657 C 0.23101 0.29643 0.17786 0.0
H1658 H 0.66623 0.83068 0.06318 0.0
H1659 H 0.73061 0.96231 0.19802 0.0
H1660 H 0.6729 0.82496 0.1504 0.0
H1661 H 0.66524 0.79825 0.14036 0.0
H1662 H 0.71248 0.8085 0.1513 0.0
H1663 H 0.72021 0.83561 0.16048 0.0
H1664 H 0.67225 0.84943 0.13363 0.0
H1665 H 0.66537 0.84097 0.10424 0.0
H1666 H 0.7111 0.84693 0.09907 0.0
H1667 H 0.7179 0.85556 0.12846 0.0
H1668 H 0.67609 0.87486 0.15947 0.0
H1669 H 0.66721 0.88916 0.14283 0.0
H1670 H 0.70769 0.90516 0.11439 0.0
H1671 H 0.71643 0.89049 0.13114 0.0
H1672 H 0.68851 0.88387 0.19396 0.0
H1673 H 0.69262 0.90937 0.20457 0.0
H1674 H 0.73417 0.93281 0.17773 0.0
H1675 H 0.73003 0.90721 0.1674 0.0
H1676 H 0.68853 0.85575 0.20864 0.0
H1677 H 0.69142 0.86637 0.23706 0.0
H1678 H 0.73832 0.90321 0.22953 0.0
H1679 H 0.73527 0.89242 0.20095 0.0
H1680 H 0.68142 0.82636 0.18783 0.0
H1681 H 0.68166 0.80921 0.20847 0.0
H1682 H 0.73147 0.83987 0.21791 0.0
H1683 H 0.73117 0.85671 0.19677 0.0
O1684 O 0.66922 0.83412 0.07476 0.0
O1685 O 0.69286 0.83731 0.07277 0.0
O1686 O 0.70732 0.93944 0.20767 0.0
O1687 O 0.7287 0.95206 0.19401 0.0
C1688 C 0.70153 0.84852 0.16193 0.0
C1689 C 0.69987 0.8584 0.15097 0.0
C1690 C 0.70197 0.873 0.15706 0.0
C1691 C 0.70674 0.87822 0.17385 0.0
C1692 C 0.70866 0.86849 0.18479 0.0
C1693 C 0.70585 0.85353 0.17888 0.0
C1694 C 0.69715 0.83228 0.15596 0.0
C1695 C 0.68164 0.82149 0.15041 0.0
C1696 C 0.67724 0.80615 0.14491 0.0
C1697 C 0.68822 0.80116 0.14509 0.0
C1698 C 0.70377 0.81199 0.15079 0.0
C1699 C 0.7082 0.82744 0.15614 0.0
C1700 C 0.69564 0.85328 0.13312 0.0
C1701 C 0.68082 0.84905 0.12609 0.0
C1702 C 0.67689 0.84414 0.10932 0.0
C1703 C 0.6877 0.84331 0.09929 0.0
C1704 C 0.70251 0.84748 0.10643 0.0
C1705 C 0.70643 0.85241 0.1232 0.0
C1706 C 0.69696 0.88179 0.14658 0.0
C1707 C 0.68308 0.88151 0.14969 0.0
C1708 C 0.67806 0.88973 0.14021 0.0
C1709 C 0.68684 0.89843 0.12741 0.0
C1710 C 0.70066 0.8985 0.12412 0.0
C1711 C 0.7057 0.89022 0.13368 0.0
C1712 C 0.70907 0.89371 0.18007 0.0
C1713 C 0.69855 0.89453 0.19049 0.0
C1714 C 0.70089 0.9091 0.19647 0.0
C1715 C 0.71376 0.92314 0.19203 0.0
C1716 C 0.72418 0.92225 0.18143 0.0
C1717 C 0.72184 0.90765 0.17549 0.0
C1718 C 0.7117 0.87329 0.20275 0.0
C1719 C 0.69961 0.8658 0.21328 0.0
C1720 C 0.70129 0.87191 0.22953 0.0
C1721 C 0.71508 0.88569 0.23553 0.0
C1722 C 0.7275 0.89268 0.22521 0.0
C1723 C 0.72583 0.88649 0.20894 0.0
C1724 C 0.70629 0.84271 0.19073 0.0
C1725 C 0.69242 0.82923 0.19416 0.0
C1726 C 0.69256 0.81955 0.20608 0.0
C1727 C 0.70658 0.82325 0.21491 0.0
C1728 C 0.72052 0.83662 0.21121 0.0
C1729 C 0.72037 0.84629 0.19922 0.0
C1730 C 0.68348 0.83808 0.08148 0.0
C1731 C 0.71634 0.93866 0.19841 0.0
H1732 H 0.14162 0.84039 0.05166 0.0
H1733 H 0.26905 0.94678 0.1815 0.0
H1734 H 0.13066 0.85277 0.13471 0.0
H1735 H 0.10836 0.82769 0.12318 0.0
H1736 H 0.12386 0.80262 0.15342 0.0
H1737 H 0.14646 0.8276 0.16434 0.0
H1738 H 0.1601 0.87661 0.11574 0.0
H1739 H 0.1523 0.86524 0.08719 0.0
H1740 H 0.15356 0.82412 0.10129 0.0
H1741 H 0.16158 0.83573 0.12973 0.0
H1742 H 0.19271 0.9057 0.13326 0.0
H1743 H 0.21304 0.91671 0.11356 0.0
H1744 H 0.21462 0.8737 0.11135 0.0
H1745 H 0.19445 0.86289 0.13105 0.0
H1746 H 0.19151 0.91295 0.17321 0.0
H1747 H 0.21711 0.93629 0.18049 0.0
H1748 H 0.23912 0.90905 0.16942 0.0
H1749 H 0.21345 0.88577 0.16238 0.0
H1750 H 0.16407 0.89047 0.19675 0.0
H1751 H 0.17313 0.89965 0.22581 0.0
H1752 H 0.20692 0.8846 0.22192 0.0
H1753 H 0.1974 0.87497 0.19327 0.0
H1754 H 0.13212 0.86117 0.17664 0.0
H1755 H 0.11464 0.84777 0.19838 0.0
H1756 H 0.14651 0.83335 0.2168 0.0
H1757 H 0.16388 0.84686 0.19521 0.0
O1758 O 0.14484 0.84472 0.06299 0.0
O1759 O 0.14552 0.82378 0.07092 0.0
O1760 O 0.2469 0.95119 0.18438 0.0
O1761 O 0.25879 0.93773 0.17875 0.0
C1762 C 0.15531 0.85678 0.15465 0.0
C1763 C 0.16576 0.86381 0.14219 0.0
C1764 C 0.18064 0.87713 0.1463 0.0
C1765 C 0.18504 0.88359 0.16283 0.0
C1766 C 0.17474 0.87641 0.17533 0.0
C1767 C 0.15985 0.86303 0.17124 0.0
C1768 C 0.14021 0.84202 0.15035 0.0
C1769 C 0.12907 0.84187 0.13908 0.0
C1770 C 0.1164 0.8276 0.13249 0.0
C1771 C 0.11449 0.81331 0.13741 0.0
C1772 C 0.12503 0.81351 0.14956 0.0
C1773 C 0.13789 0.82776 0.15586 0.0
C1774 C 0.16131 0.85696 0.1248 0.0
C1775 C 0.15875 0.86518 0.1126 0.0
C1776 C 0.15426 0.85864 0.09632 0.0
C1777 C 0.15225 0.84374 0.09196 0.0
C1778 C 0.15496 0.8356 0.10423 0.0
C1779 C 0.1595 0.84218 0.12048 0.0
C1780 C 0.19211 0.88351 0.13353 0.0
C1781 C 0.1974 0.89866 0.1284 0.0
C1782 C 0.209 0.90491 0.11722 0.0
C1783 C 0.21539 0.89604 0.11092 0.0
C1784 C 0.20977 0.88072 0.1158 0.0
C1785 C 0.19828 0.87454 0.12707 0.0
C1786 C 0.20064 0.89771 0.16717 0.0
C1787 C 0.20188 0.91206 0.17239 0.0
C1788 C 0.21652 0.92536 0.17652 0.0
C1789 C 0.23017 0.92454 0.17549 0.0
C1790 C 0.22885 0.9101 0.1703 0.0
C1791 C 0.21421 0.8968 0.16622 0.0
C1792 C 0.18014 0.88214 0.1929 0.0
C1793 C 0.17337 0.88912 0.20226 0.0
C1794 C 0.17862 0.89443 0.2188 0.0
C1795 C 0.19072 0.89282 0.22621 0.0
C1796 C 0.19742 0.88579 0.21672 0.0
C1797 C 0.19212 0.88044 0.20028 0.0
C1798 C 0.14931 0.85508 0.18446 0.0
C1799 C 0.1353 0.85514 0.18543 0.0
C1800 C 0.12533 0.84745 0.1978 0.0
C1801 C 0.12924 0.83958 0.20938 0.0
C1802 C 0.1433 0.83956 0.20829 0.0
C1803 C 0.15322 0.84722 0.19594 0.0
C1804 C 0.14734 0.83677 0.07469 0.0
C1805 C 0.24575 0.93865 0.17982 0.0
H1806 H 0.30311 0.16916 0.00275 0.0
H1807 H 0.31146 0.05641 0.87618 0.0
H1808 H 0.28461 0.16498 0.91491 0.0
H1809 H 0.2923 0.19222 0.92381 0.0
H1810 H 0.33667 0.20868 0.9028 0.0
H1811 H 0.32892 0.18154 0.8939 0.0
H1812 H 0.28364 0.1356 0.93721 0.0
H1813 H 0.2875 0.14628 0.96589 0.0
H1814 H 0.33408 0.18292 0.95685 0.0
H1815 H 0.33014 0.17199 0.92828 0.0
H1816 H 0.28473 0.10317 0.92147 0.0
H1817 H 0.29298 0.08956 0.94015 0.0
H1818 H 0.33904 0.13096 0.94665 0.0
H1819 H 0.33099 0.14392 0.92704 0.0
H1820 H 0.27477 0.09716 0.88304 0.0
H1821 H 0.27386 0.07227 0.87628 0.0
H1822 H 0.32369 0.09531 0.88764 0.0
H1823 H 0.32445 0.12015 0.89418 0.0
H1824 H 0.2717 0.11852 0.8599 0.0
H1825 H 0.26853 0.10632 0.83182 0.0
H1826 H 0.31784 0.12257 0.83401 0.0
H1827 H 0.32083 0.13442 0.86199 0.0
H1828 H 0.27787 0.15667 0.87681 0.0
H1829 H 0.27813 0.17382 0.85581 0.0
H1830 H 0.32061 0.17793 0.83883 0.0
H1831 H 0.32074 0.16168 0.86049 0.0
O1832 O 0.30186 0.16509 0.99138 0.0
O1833 O 0.32569 0.18372 0.98607 0.0
O1834 O 0.28591 0.05484 0.87293 0.0
O1835 O 0.31149 0.0661 0.87873 0.0
C1836 C 0.30265 0.15497 0.90021 0.0
C1837 C 0.30399 0.14657 0.91321 0.0
C1838 C 0.30315 0.13201 0.90964 0.0
C1839 C 0.30016 0.1255 0.89313 0.0
C1840 C 0.29838 0.13371 0.8802 0.0
C1841 C 0.29978 0.14853 0.8837 0.0
C1842 C 0.30622 0.17135 0.90378 0.0
C1843 C 0.29586 0.17452 0.91198 0.0
C1844 C 0.30024 0.19002 0.91701 0.0
C1845 C 0.3151 0.20247 0.91406 0.0
C1846 C 0.3252 0.19926 0.90533 0.0
C1847 C 0.32076 0.18382 0.90016 0.0
C1848 C 0.30654 0.15311 0.93063 0.0
C1849 C 0.29467 0.14592 0.94147 0.0
C1850 C 0.2969 0.15206 0.95783 0.0
C1851 C 0.31107 0.1655 0.96365 0.0
C1852 C 0.323 0.1726 0.95276 0.0
C1853 C 0.32076 0.16642 0.93641 0.0
C1854 C 0.30726 0.12452 0.92285 0.0
C1855 C 0.29656 0.1093 0.92705 0.0
C1856 C 0.30128 0.1016 0.93784 0.0
C1857 C 0.31675 0.1091 0.94482 0.0
C1858 C 0.32716 0.12468 0.94124 0.0
C1859 C 0.32251 0.13222 0.93023 0.0
C1860 C 0.29966 0.11041 0.88916 0.0
C1861 C 0.28547 0.09679 0.88403 0.0
C1862 C 0.28498 0.0826 0.8802 0.0
C1863 C 0.29871 0.0818 0.88145 0.0
C1864 C 0.31291 0.09551 0.88657 0.0
C1865 C 0.31338 0.1097 0.89035 0.0
C1866 C 0.2965 0.12735 0.86287 0.0
C1867 C 0.2818 0.11954 0.85419 0.0
C1868 C 0.28001 0.11257 0.83826 0.0
C1869 C 0.29297 0.11362 0.83077 0.0
C1870 C 0.30771 0.12179 0.83941 0.0
C1871 C 0.30943 0.12849 0.85538 0.0
C1872 C 0.29919 0.15779 0.87007 0.0
C1873 C 0.28717 0.16124 0.86847 0.0
C1874 C 0.28729 0.17095 0.85639 0.0
C1875 C 0.29941 0.17731 0.84561 0.0
C1876 C 0.31123 0.17348 0.84705 0.0
C1877 C 0.3112 0.16397 0.85926 0.0
C1878 C 0.31338 0.17203 0.98102 0.0
C1879 C 0.29825 0.06674 0.87743 0.0
H1880 H 0.83188 0.16398 0.01217 0.0
H1881 H 0.74768 0.04064 0.87095 0.0
H1882 H 0.84295 0.17216 0.92487 0.0
H1883 H 0.86399 0.19696 0.93809 0.0
H1884 H 0.89652 0.18069 0.93129 0.0
H1885 H 0.87518 0.15561 0.91816 0.0
H1886 H 0.81646 0.14862 0.94106 0.0
H1887 H 0.81952 0.15621 0.97065 0.0
H1888 H 0.8557 0.1444 0.9766 0.0
H1889 H 0.85238 0.13666 0.94701 0.0
H1890 H 0.791 0.12319 0.91431 0.0
H1891 H 0.76945 0.11126 0.93228 0.0
H1892 H 0.79469 0.09456 0.96137 0.0
H1893 H 0.8162 0.10636 0.94306 0.0
H1894 H 0.79445 0.11866 0.87892 0.0
H1895 H 0.77061 0.09546 0.86679 0.0
H1896 H 0.78278 0.0656 0.89319 0.0
H1897 H 0.80669 0.0889 0.90507 0.0
H1898 H 0.82609 0.146 0.86635 0.0
H1899 H 0.81789 0.13814 0.8371 0.0
H1900 H 0.8169 0.09438 0.84335 0.0
H1901 H 0.82591 0.10273 0.87245 0.0
H1902 H 0.85284 0.17269 0.88981 0.0
H1903 H 0.8729 0.1887 0.87134 0.0
H1904 H 0.87982 0.14971 0.85936 0.0
H1905 H 0.86027 0.13392 0.87855 0.0
O1906 O 0.83082 0.16086 0.00051 0.0
O1907 O 0.84942 0.15471 0.00289 0.0
O1908 O 0.75136 0.06589 0.86218 0.0
O1909 O 0.75703 0.05002 0.87555 0.0
C1910 C 0.84426 0.14674 0.9137 0.0
C1911 C 0.8323 0.13737 0.92393 0.0
C1912 C 0.81853 0.12394 0.91701 0.0
C1913 C 0.81696 0.11953 0.89995 0.0
C1914 C 0.82906 0.12871 0.88973 0.0
C1915 C 0.84276 0.14233 0.89661 0.0
C1916 C 0.85751 0.16203 0.92077 0.0
C1917 C 0.8546 0.17391 0.92629 0.0
C1918 C 0.86661 0.18803 0.93386 0.0
C1919 C 0.88182 0.19064 0.93589 0.0
C1920 C 0.88487 0.17895 0.92986 0.0
C1921 C 0.87275 0.16467 0.92241 0.0
C1922 C 0.8341 0.14195 0.94193 0.0
C1923 C 0.82495 0.14756 0.9488 0.0
C1924 C 0.82677 0.15195 0.9657 0.0
C1925 C 0.83784 0.15088 0.976 0.0
C1926 C 0.84705 0.14534 0.96902 0.0
C1927 C 0.84519 0.14092 0.95213 0.0
C1928 C 0.8051 0.11553 0.9273 0.0
C1929 C 0.79175 0.11669 0.92436 0.0
C1930 C 0.77949 0.10991 0.93465 0.0
C1931 C 0.78042 0.102 0.94821 0.0
C1932 C 0.79374 0.10071 0.95107 0.0
C1933 C 0.80596 0.10734 0.94061 0.0
C1934 C 0.80236 0.10544 0.89276 0.0
C1935 C 0.79199 0.10709 0.88199 0.0
C1936 C 0.77836 0.09382 0.87512 0.0
C1937 C 0.7748 0.07866 0.87899 0.0
C1938 C 0.78517 0.07709 0.88992 0.0
C1939 C 0.79882 0.09037 0.89674 0.0
C1940 C 0.82653 0.12491 0.87155 0.0
C1941 C 0.82456 0.13492 0.86129 0.0
C1942 C 0.81969 0.13033 0.84462 0.0
C1943 C 0.81649 0.11552 0.83794 0.0
C1944 C 0.81936 0.1059 0.84805 0.0
C1945 C 0.82441 0.1106 0.8647 0.0
C1946 C 0.85524 0.1522 0.88575 0.0
C1947 C 0.85894 0.16771 0.88354 0.0
C1948 C 0.87032 0.1768 0.87296 0.0
C1949 C 0.87788 0.1704 0.86406 0.0
C1950 C 0.87412 0.15486 0.86614 0.0
C1951 C 0.863 0.14588 0.87705 0.0
C1952 C 0.83975 0.15558 0.99394 0.0
C1953 C 0.76035 0.06452 0.87171 0.0
H1954 H 0.85454 0.68988 0.02615 0.0
H1955 H 0.73941 0.67823 0.89037 0.0
H1956 H 0.87155 0.71257 0.94441 0.0
H1957 H 0.89157 0.70842 0.95773 0.0
H1958 H 0.87397 0.66495 0.92751 0.0
H1959 H 0.85378 0.66899 0.9145 0.0
H1960 H 0.84225 0.70881 0.96269 0.0
H1961 H 0.84781 0.70498 0.99118 0.0
H1962 H 0.84206 0.6599 0.975 0.0
H1963 H 0.8363 0.66378 0.94662 0.0
H1964 H 0.81269 0.7077 0.94567 0.0
H1965 H 0.79136 0.69973 0.9641 0.0
H1966 H 0.78288 0.6522 0.96014 0.0
H1967 H 0.80403 0.66022 0.94165 0.0
H1968 H 0.81672 0.71645 0.90583 0.0
H1969 H 0.793 0.71678 0.89743 0.0
H1970 H 0.76559 0.66677 0.9029 0.0
H1971 H 0.78941 0.66659 0.91109 0.0
H1972 H 0.84436 0.71888 0.8837 0.0
H1973 H 0.83741 0.72063 0.85486 0.0
H1974 H 0.79977 0.67226 0.85298 0.0
H1975 H 0.80716 0.67052 0.88145 0.0
H1976 H 0.87305 0.71788 0.90269 0.0
H1977 H 0.89011 0.71975 0.88079 0.0
H1978 H 0.85509 0.67327 0.86038 0.0
H1979 H 0.83841 0.67139 0.88246 0.0
O1980 O 0.85216 0.69108 0.01483 0.0
O1981 O 0.84923 0.66806 0.00585 0.0
O1982 O 0.76359 0.70412 0.89096 0.0
O1983 O 0.74897 0.67844 0.89365 0.0
C1984 C 0.84701 0.69165 0.92346 0.0
C1985 C 0.83605 0.68923 0.93526 0.0
C1986 C 0.8221 0.68892 0.93051 0.0
C1987 C 0.81924 0.69142 0.91409 0.0
C1988 C 0.83001 0.69351 0.90222 0.0
C1989 C 0.84385 0.6935 0.90687 0.0
C1990 C 0.8612 0.69107 0.92852 0.0
C1991 C 0.87228 0.70236 0.94038 0.0
C1992 C 0.88361 0.69992 0.94804 0.0
C1993 C 0.88419 0.68628 0.94375 0.0
C1994 C 0.87383 0.6756 0.93097 0.0
C1995 C 0.86235 0.67793 0.92348 0.0
C1996 C 0.83896 0.68662 0.9526 0.0
C1997 C 0.84211 0.69808 0.96536 0.0
C1998 C 0.84532 0.69588 0.9816 0.0
C1999 C 0.84544 0.68216 0.98536 0.0
C2000 C 0.84211 0.67062 0.97253 0.0
C2001 C 0.83884 0.67281 0.95631 0.0
C2002 C 0.80986 0.68452 0.94237 0.0
C2003 C 0.80626 0.69561 0.9489 0.0
C2004 C 0.79415 0.69106 0.95944 0.0
C2005 C 0.78544 0.67533 0.96348 0.0
C2006 C 0.78928 0.66434 0.95708 0.0
C2007 C 0.8014 0.66892 0.94664 0.0
C2008 C 0.80476 0.69153 0.90918 0.0
C2009 C 0.80557 0.70559 0.90521 0.0
C2010 C 0.79201 0.70574 0.90042 0.0
C2011 C 0.77739 0.6918 0.89953 0.0
C2012 C 0.77665 0.67772 0.9035 0.0
C2013 C 0.79022 0.67759 0.90824 0.0
C2014 C 0.82619 0.6946 0.88466 0.0
C2015 C 0.83471 0.70866 0.87695 0.0
C2016 C 0.83067 0.70965 0.86054 0.0
C2017 C 0.81804 0.69658 0.8516 0.0
C2018 C 0.80971 0.68247 0.85938 0.0
C2019 C 0.81379 0.68149 0.87571 0.0
C2020 C 0.85451 0.69451 0.89411 0.0
C2021 C 0.86917 0.70808 0.89354 0.0
C2022 C 0.87882 0.70917 0.88097 0.0
C2023 C 0.87395 0.69666 0.86884 0.0
C2024 C 0.85929 0.68303 0.86964 0.0
C2025 C 0.8497 0.68196 0.88217 0.0
C2026 C 0.84904 0.67995 0.0026 0.0
C2027 C 0.76295 0.69189 0.89445 0.0
H2028 H 0.84299 0.68349 0.38318 0.0
H2029 H 0.90237 0.61394 0.50908 0.0
H2030 H 0.82549 0.67329 0.4709 0.0
H2031 H 0.80741 0.68078 0.45911 0.0
H2032 H 0.77157 0.63168 0.45191 0.0
H2033 H 0.78973 0.62437 0.46415 0.0
H2034 H 0.85209 0.67405 0.45239 0.0
H2035 H 0.85209 0.68238 0.42446 0.0
H2036 H 0.81195 0.63678 0.40942 0.0
H2037 H 0.8122 0.62855 0.43737 0.0
H2038 H 0.87379 0.66729 0.47522 0.0
H2039 H 0.89549 0.6745 0.45777 0.0
H2040 H 0.86582 0.63414 0.42389 0.0
H2041 H 0.84406 0.62705 0.44149 0.0
H2042 H 0.86757 0.65672 0.50964 0.0
H2043 H 0.8883 0.65239 0.52042 0.0
H2044 H 0.87023 0.61062 0.48711 0.0
H2045 H 0.84943 0.61498 0.47659 0.0
H2046 H 0.83831 0.65683 0.52323 0.0
H2047 H 0.84365 0.65358 0.55191 0.0
H2048 H 0.83514 0.60704 0.53774 0.0
H2049 H 0.82943 0.61026 0.50897 0.0
H2050 H 0.81727 0.66307 0.50441 0.0
H2051 H 0.79894 0.66114 0.52458 0.0
H2052 H 0.77798 0.61052 0.52113 0.0
H2053 H 0.79673 0.61269 0.50125 0.0
O2054 O 0.84281 0.67994 0.39412 0.0
O2055 O 0.82213 0.65634 0.38704 0.0
O2056 O 0.90306 0.63744 0.52199 0.0
O2057 O 0.8943 0.61593 0.50503 0.0
C2058 C 0.82041 0.64399 0.47415 0.0
C2059 C 0.83217 0.64566 0.46383 0.0
C2060 C 0.84413 0.64308 0.46985 0.0
C2061 C 0.84418 0.63856 0.4861 0.0
C2062 C 0.83235 0.6368 0.49641 0.0
C2063 C 0.8204 0.63942 0.49037 0.0
C2064 C 0.80889 0.64831 0.46828 0.0
C2065 C 0.81367 0.66419 0.46691 0.0
C2066 C 0.80337 0.66842 0.46007 0.0
C2067 C 0.7881 0.65681 0.4544 0.0
C2068 C 0.7832 0.6409 0.45628 0.0
C2069 C 0.79354 0.63668 0.46321 0.0
C2070 C 0.83221 0.65068 0.44685 0.0
C2071 C 0.84337 0.66586 0.44301 0.0
C2072 C 0.84331 0.67059 0.42706 0.0
C2073 C 0.83203 0.66024 0.4147 0.0
C2074 C 0.82081 0.64504 0.41864 0.0
C2075 C 0.82092 0.64031 0.43458 0.0
C2076 C 0.85741 0.64661 0.45966 0.0
C2077 C 0.87205 0.65988 0.46416 0.0
C2078 C 0.88442 0.66396 0.45418 0.0
C2079 C 0.88237 0.65486 0.43947 0.0
C2080 C 0.8677 0.64145 0.43507 0.0
C2081 C 0.85531 0.63734 0.44513 0.0
C2082 C 0.85694 0.63609 0.49243 0.0
C2083 C 0.86807 0.6466 0.50475 0.0
C2084 C 0.87992 0.64412 0.51085 0.0
C2085 C 0.8809 0.63113 0.50465 0.0
C2086 C 0.8698 0.62072 0.49218 0.0
C2087 C 0.85793 0.62319 0.48613 0.0
C2088 C 0.83342 0.63376 0.51402 0.0
C2089 C 0.83711 0.64574 0.52638 0.0
C2090 C 0.84017 0.64387 0.54276 0.0
C2091 C 0.83983 0.63006 0.54704 0.0
C2092 C 0.83556 0.61783 0.53474 0.0
C2093 C 0.83227 0.61963 0.51836 0.0
C2094 C 0.80827 0.63802 0.50135 0.0
C2095 C 0.80855 0.65156 0.50783 0.0
C2096 C 0.79802 0.65041 0.51932 0.0
C2097 C 0.78696 0.63566 0.5245 0.0
C2098 C 0.78647 0.62207 0.51759 0.0
C2099 C 0.79708 0.62325 0.50616 0.0
C2100 C 0.83197 0.66532 0.39778 0.0
C2101 C 0.89344 0.62842 0.51112 0.0
H2102 H 0.3347 0.15932 0.39351 0.0
H2103 H 0.38988 0.29209 0.5309 0.0
H2104 H 0.33707 0.15592 0.48278 0.0
H2105 H 0.33002 0.12945 0.47211 0.0
H2106 H 0.37782 0.14108 0.48131 0.0
H2107 H 0.38492 0.16784 0.49166 0.0
H2108 H 0.3363 0.17686 0.46359 0.0
H2109 H 0.33103 0.16821 0.43418 0.0
H2110 H 0.37946 0.18186 0.43088 0.0
H2111 H 0.38459 0.19062 0.46031 0.0
H2112 H 0.3371 0.19952 0.48101 0.0
H2113 H 0.32931 0.21457 0.46395 0.0
H2114 H 0.37718 0.24435 0.45263 0.0
H2115 H 0.38485 0.22879 0.46935 0.0
H2116 H 0.349 0.21366 0.52062 0.0
H2117 H 0.35131 0.23837 0.5314 0.0
H2118 H 0.39659 0.26425 0.5117 0.0
H2119 H 0.39418 0.23944 0.50117 0.0
H2120 H 0.35252 0.18865 0.53998 0.0
H2121 H 0.35545 0.20115 0.56758 0.0
H2122 H 0.40191 0.23769 0.55831 0.0
H2123 H 0.399 0.22492 0.53076 0.0
H2124 H 0.34559 0.15937 0.52103 0.0
H2125 H 0.34649 0.14272 0.542 0.0
H2126 H 0.39668 0.17198 0.54776 0.0
H2127 H 0.39567 0.18859 0.52666 0.0
O2128 O 0.33706 0.1629 0.40511 0.0
O2129 O 0.36207 0.17007 0.40408 0.0
O2130 O 0.36536 0.26829 0.5367 0.0
O2131 O 0.38861 0.28216 0.52667 0.0
C2132 C 0.36567 0.1801 0.4933 0.0
C2133 C 0.36413 0.18971 0.48187 0.0
C2134 C 0.36596 0.20431 0.48742 0.0
C2135 C 0.37022 0.20976 0.5042 0.0
C2136 C 0.37234 0.20044 0.51557 0.0
C2137 C 0.36982 0.18549 0.51016 0.0
C2138 C 0.36154 0.16385 0.48772 0.0
C2139 C 0.34605 0.1528 0.48238 0.0
C2140 C 0.34205 0.13772 0.47631 0.0
C2141 C 0.35342 0.13331 0.47574 0.0
C2142 C 0.36885 0.14421 0.48163 0.0
C2143 C 0.37291 0.15944 0.48751 0.0
C2144 C 0.36087 0.18456 0.464 0.0
C2145 C 0.34579 0.17815 0.45645 0.0
C2146 C 0.34279 0.17313 0.43967 0.0
C2147 C 0.35483 0.17439 0.43016 0.0
C2148 C 0.36993 0.18076 0.43783 0.0
C2149 C 0.3729 0.18579 0.45462 0.0
C2150 C 0.36148 0.21299 0.47621 0.0
C2151 C 0.34585 0.20908 0.47456 0.0
C2152 C 0.34143 0.21766 0.46485 0.0
C2153 C 0.35265 0.23052 0.45695 0.0
C2154 C 0.36834 0.23444 0.4586 0.0
C2155 C 0.37272 0.22561 0.46807 0.0
C2156 C 0.37141 0.22481 0.51011 0.0
C2157 C 0.35938 0.2247 0.51862 0.0
C2158 C 0.36074 0.23881 0.52477 0.0
C2159 C 0.37415 0.2533 0.52242 0.0
C2160 C 0.38611 0.25332 0.51372 0.0
C2161 C 0.38475 0.23918 0.50764 0.0
C2162 C 0.37555 0.20587 0.53338 0.0
C2163 C 0.36356 0.19899 0.54415 0.0
C2164 C 0.36524 0.20618 0.55989 0.0
C2165 C 0.37886 0.22046 0.56501 0.0
C2166 C 0.39125 0.22676 0.5546 0.0
C2167 C 0.38964 0.21945 0.53894 0.0
C2168 C 0.37057 0.17512 0.52234 0.0
C2169 C 0.35678 0.1621 0.52674 0.0
C2170 C 0.35731 0.15269 0.53877 0.0
C2171 C 0.37166 0.15612 0.54653 0.0
C2172 C 0.38549 0.16902 0.54188 0.0
C2173 C 0.38493 0.17852 0.52992 0.0
C2174 C 0.35161 0.16901 0.41234 0.0
C2175 C 0.37571 0.26832 0.52904 0.0
H2176 H 0.81118 0.1718 0.37783 0.0
H2177 H 0.93675 0.2798 0.5083 0.0
H2178 H 0.79891 0.17786 0.46235 0.0
H2179 H 0.77803 0.15152 0.45217 0.0
H2180 H 0.79971 0.13121 0.48145 0.0
H2181 H 0.821 0.15746 0.49047 0.0
H2182 H 0.82752 0.20567 0.44313 0.0
H2183 H 0.82013 0.19508 0.4143 0.0
H2184 H 0.82582 0.15587 0.42609 0.0
H2185 H 0.83338 0.16669 0.45482 0.0
H2186 H 0.86097 0.23581 0.45925 0.0
H2187 H 0.88245 0.24786 0.44097 0.0
H2188 H 0.88552 0.20567 0.43936 0.0
H2189 H 0.86453 0.19402 0.45797 0.0
H2190 H 0.85899 0.24252 0.49916 0.0
H2191 H 0.88396 0.26666 0.5065 0.0
H2192 H 0.90818 0.24145 0.49629 0.0
H2193 H 0.88313 0.21737 0.48917 0.0
H2194 H 0.83531 0.22092 0.52377 0.0
H2195 H 0.84532 0.22986 0.55279 0.0
H2196 H 0.87611 0.21122 0.54769 0.0
H2197 H 0.86626 0.20256 0.51886 0.0
H2198 H 0.80126 0.18634 0.5047 0.0
H2199 H 0.78455 0.16991 0.52559 0.0
H2200 H 0.82065 0.16035 0.54184 0.0
H2201 H 0.83688 0.17618 0.52056 0.0
O2202 O 0.81419 0.1758 0.38929 0.0
O2203 O 0.81722 0.15585 0.396 0.0
O2204 O 0.91371 0.28283 0.51069 0.0
O2205 O 0.92672 0.27043 0.5055 0.0
C2206 C 0.82547 0.1854 0.48122 0.0
C2207 C 0.83528 0.19339 0.46857 0.0
C2208 C 0.8497 0.20735 0.47259 0.0
C2209 C 0.85408 0.21366 0.48916 0.0
C2210 C 0.84432 0.2057 0.50179 0.0
C2211 C 0.83003 0.19156 0.49785 0.0
C2212 C 0.81147 0.1696 0.47717 0.0
C2213 C 0.79901 0.16769 0.46668 0.0
C2214 C 0.78705 0.15261 0.46096 0.0
C2215 C 0.78726 0.1392 0.46583 0.0
C2216 C 0.79933 0.14123 0.47712 0.0
C2217 C 0.8114 0.15626 0.48255 0.0
C2218 C 0.83083 0.18687 0.45108 0.0
C2219 C 0.82717 0.1948 0.43945 0.0
C2220 C 0.82294 0.18872 0.423 0.0
C2221 C 0.82233 0.1746 0.4179 0.0
C2222 C 0.82612 0.16674 0.42961 0.0
C2223 C 0.83039 0.17286 0.44604 0.0
C2224 C 0.86121 0.21406 0.4599 0.0
C2225 C 0.86619 0.22915 0.45475 0.0
C2226 C 0.87838 0.23596 0.44427 0.0
C2227 C 0.88575 0.22774 0.43885 0.0
C2228 C 0.88025 0.21238 0.44353 0.0
C2229 C 0.86815 0.20564 0.45401 0.0
C2230 C 0.86929 0.22827 0.4935 0.0
C2231 C 0.86971 0.24226 0.49852 0.0
C2232 C 0.88398 0.25601 0.5027 0.0
C2233 C 0.89807 0.25599 0.50193 0.0
C2234 C 0.89756 0.24189 0.49697 0.0
C2235 C 0.88328 0.22814 0.49284 0.0
C2236 C 0.85009 0.21112 0.51929 0.0
C2237 C 0.84421 0.21881 0.52898 0.0
C2238 C 0.84994 0.2239 0.54546 0.0
C2239 C 0.86138 0.2211 0.55245 0.0
C2240 C 0.86714 0.21334 0.54267 0.0
C2241 C 0.86162 0.20849 0.52621 0.0
C2242 C 0.82034 0.18259 0.51124 0.0
C2243 C 0.80555 0.18077 0.51288 0.0
C2244 C 0.79608 0.17146 0.52485 0.0
C2245 C 0.80126 0.1638 0.53535 0.0
C2246 C 0.81622 0.16592 0.53382 0.0
C2247 C 0.82561 0.17514 0.52183 0.0
C2248 C 0.81777 0.16814 0.40043 0.0
C2249 C 0.91326 0.27058 0.50632 0.0
H2250 H 0.99582 0.51691 0.34021 0.0
H2251 H 0.0145 0.41221 0.21271 0.0
H2252 H 0.97466 0.50995 0.25261 0.0
H2253 H 0.97796 0.53547 0.26186 0.0
H2254 H 0.02314 0.55883 0.24154 0.0
H2255 H 0.0194 0.53332 0.23186 0.0
H2256 H 0.97788 0.48398 0.27435 0.0
H2257 H 0.9812 0.49418 0.30316 0.0
H2258 H 0.02652 0.53323 0.2942 0.0
H2259 H 0.02312 0.5228 0.26548 0.0
H2260 H 0.97898 0.4535 0.25652 0.0
H2261 H 0.98556 0.43884 0.27545 0.0
H2262 H 0.03182 0.47942 0.28534 0.0
H2263 H 0.02534 0.49365 0.26568 0.0
H2264 H 0.9729 0.44804 0.21764 0.0
H2265 H 0.97425 0.42442 0.21048 0.0
H2266 H 0.02353 0.44993 0.22559 0.0
H2267 H 0.02205 0.47351 0.23249 0.0
H2268 H 0.96834 0.47021 0.19529 0.0
H2269 H 0.96622 0.45772 0.16774 0.0
H2270 H 0.01546 0.47346 0.17285 0.0
H2271 H 0.01747 0.48622 0.19996 0.0
H2272 H 0.96802 0.50157 0.21568 0.0
H2273 H 0.96349 0.51612 0.19462 0.0
H2274 H 0.00794 0.52869 0.17557 0.0
H2275 H 0.01241 0.5142 0.19673 0.0
O2276 O 0.99477 0.51305 0.32879 0.0
O2277 O 0.01796 0.53294 0.32352 0.0
O2278 O 0.9883 0.40883 0.20768 0.0
O2279 O 0.01364 0.42138 0.21541 0.0
C2280 C 0.99569 0.50451 0.23756 0.0
C2281 C 0.99806 0.49651 0.25034 0.0
C2282 C 0.99844 0.48264 0.24644 0.0
C2283 C 0.99651 0.47681 0.22979 0.0
C2284 C 0.99408 0.4848 0.21703 0.0
C2285 C 0.99344 0.49853 0.22093 0.0
C2286 C 0.9968 0.51985 0.2416 0.0
C2287 C 0.98512 0.52063 0.24994 0.0
C2288 C 0.98711 0.53521 0.25533 0.0
C2289 C 0.00088 0.54924 0.25258 0.0
C2290 C 0.0123 0.54833 0.24368 0.0
C2291 C 0.01023 0.53377 0.23819 0.0
C2292 C 0.00022 0.5027 0.26783 0.0
C2293 C 0.98853 0.49471 0.27866 0.0
C2294 C 0.99045 0.50058 0.29509 0.0
C2295 C 0.00412 0.51454 0.30097 0.0
C2296 C 0.01584 0.52247 0.29006 0.0
C2297 C 0.01392 0.51657 0.27365 0.0
C2298 C 0.0017 0.47459 0.25968 0.0
C2299 C 0.99047 0.45925 0.26292 0.0
C2300 C 0.99424 0.45095 0.27385 0.0
C2301 C 0.00927 0.45792 0.28187 0.0
C2302 C 0.02023 0.4736 0.27917 0.0
C2303 C 0.0165 0.48183 0.2681 0.0
C2304 C 0.99736 0.46245 0.22561 0.0
C2305 C 0.98398 0.4485 0.21936 0.0
C2306 C 0.98478 0.43503 0.2153 0.0
C2307 C 0.99901 0.43529 0.21748 0.0
C2308 C 0.0124 0.44932 0.22378 0.0
C2309 C 0.01158 0.46279 0.22777 0.0
C2310 C 0.99304 0.47905 0.19958 0.0
C2311 C 0.97869 0.47121 0.19024 0.0
C2312 C 0.97749 0.46398 0.17461 0.0
C2313 C 0.99065 0.46451 0.16812 0.0
C2314 C 0.00513 0.47298 0.17732 0.0
C2315 C 0.0063 0.48021 0.19286 0.0
C2316 C 0.9905 0.50678 0.20767 0.0
C2317 C 0.97674 0.50744 0.20691 0.0
C2318 C 0.97421 0.51579 0.19494 0.0
C2319 C 0.98536 0.52353 0.18345 0.0
C2320 C 0.99905 0.52267 0.18412 0.0
C2321 C 0.00163 0.51442 0.19619 0.0
C2322 C 0.00609 0.52078 0.31842 0.0
C2323 C -7e-05 0.42101 0.21321 0.0
H2324 H 0.49325 0.50557 0.3459 0.0
H2325 H 0.41092 0.37594 0.21006 0.0
H2326 H 0.50412 0.51001 0.25799 0.0
H2327 H 0.52503 0.53592 0.26903 0.0
H2328 H 0.55834 0.52032 0.26462 0.0
H2329 H 0.53718 0.49421 0.25366 0.0
H2330 H 0.47797 0.48688 0.27524 0.0
H2331 H 0.48089 0.49575 0.30444 0.0
H2332 H 0.51783 0.48528 0.31243 0.0
H2333 H 0.51465 0.47626 0.28322 0.0
H2334 H 0.45325 0.46082 0.24988 0.0
H2335 H 0.43131 0.44845 0.26727 0.0
H2336 H 0.45636 0.43183 0.29688 0.0
H2337 H 0.47839 0.44439 0.27935 0.0
H2338 H 0.45658 0.45409 0.21441 0.0
H2339 H 0.43296 0.43023 0.20302 0.0
H2340 H 0.44587 0.40219 0.23183 0.0
H2341 H 0.46956 0.42615 0.24297 0.0
H2342 H 0.48802 0.48076 0.2007 0.0
H2343 H 0.47972 0.47117 0.17187 0.0
H2344 H 0.47921 0.42824 0.1819 0.0
H2345 H 0.48872 0.43854 0.2105 0.0
H2346 H 0.51104 0.50726 0.22108 0.0
H2347 H 0.53099 0.52338 0.20271 0.0
H2348 H 0.54604 0.48921 0.20019 0.0
H2349 H 0.52566 0.47293 0.21829 0.0
O2350 O 0.49225 0.50195 0.33441 0.0
O2351 O 0.51122 0.49644 0.33784 0.0
O2352 O 0.41411 0.4005 0.19973 0.0
O2353 O 0.42017 0.38556 0.21436 0.0
C2354 C 0.50612 0.48446 0.24893 0.0
C2355 C 0.49428 0.47542 0.25942 0.0
C2356 C 0.48073 0.46154 0.25294 0.0
C2357 C 0.47929 0.45631 0.23615 0.0
C2358 C 0.49135 0.46513 0.22571 0.0
C2359 C 0.50474 0.47924 0.23213 0.0
C2360 C 0.51913 0.5002 0.25522 0.0
C2361 C 0.51592 0.51215 0.25951 0.0
C2362 C 0.52785 0.52692 0.26582 0.0
C2363 C 0.54328 0.53008 0.26781 0.0
C2364 C 0.54655 0.5182 0.26315 0.0
C2365 C 0.53453 0.50332 0.25695 0.0
C2366 C 0.49599 0.48078 0.27717 0.0
C2367 C 0.48659 0.48639 0.28335 0.0
C2368 C 0.48833 0.49151 0.30002 0.0
C2369 C 0.49957 0.4912 0.31079 0.0
C2370 C 0.50904 0.48565 0.30449 0.0
C2371 C 0.50726 0.4805 0.28782 0.0
C2372 C 0.46733 0.45338 0.26329 0.0
C2373 C 0.45392 0.45436 0.26002 0.0
C2374 C 0.44141 0.44728 0.26995 0.0
C2375 C 0.44209 0.43912 0.28341 0.0
C2376 C 0.45556 0.43816 0.28668 0.0
C2377 C 0.46809 0.44522 0.27666 0.0
C2378 C 0.46483 0.44182 0.2294 0.0
C2379 C 0.45432 0.44277 0.21817 0.0
C2380 C 0.44082 0.42913 0.21172 0.0
C2381 C 0.43754 0.41429 0.21649 0.0
C2382 C 0.44805 0.41342 0.22788 0.0
C2383 C 0.46158 0.42708 0.23428 0.0
C2384 C 0.489 0.46037 0.20773 0.0
C2385 C 0.48671 0.46956 0.19654 0.0
C2386 C 0.48169 0.46391 0.1801 0.0
C2387 C 0.47845 0.44877 0.1746 0.0
C2388 C 0.48166 0.43998 0.18563 0.0
C2389 C 0.48701 0.4458 0.20202 0.0
C2390 C 0.51698 0.48899 0.22105 0.0
C2391 C 0.51871 0.50331 0.21661 0.0
C2392 C 0.53018 0.51254 0.20618 0.0
C2393 C 0.54022 0.50766 0.20006 0.0
C2394 C 0.53841 0.49325 0.20455 0.0
C2395 C 0.52685 0.48397 0.21493 0.0
C2396 C 0.50141 0.49667 0.32849 0.0
C2397 C 0.42323 0.39975 0.20966 0.0
H2398 H 0.51647 0.99954 0.35738 0.0
H2399 H 0.39713 0.98689 0.22575 0.0
H2400 H 0.53045 0.02139 0.27396 0.0
H2401 H 0.55152 0.0183 0.28621 0.0
H2402 H 0.53238 0.97317 0.25875 0.0
H2403 H 0.51136 0.9764 0.24652 0.0
H2404 H 0.50277 0.01796 0.29428 0.0
H2405 H 0.50921 0.01448 0.32259 0.0
H2406 H 0.50094 0.96831 0.30679 0.0
H2407 H 0.49434 0.97187 0.27859 0.0
H2408 H 0.47455 0.01918 0.27725 0.0
H2409 H 0.45497 0.0147 0.29697 0.0
H2410 H 0.44216 0.96578 0.2966 0.0
H2411 H 0.46199 0.97052 0.27717 0.0
H2412 H 0.47472 0.02453 0.23787 0.0
H2413 H 0.45093 0.02494 0.2301 0.0
H2414 H 0.42337 0.97547 0.23816 0.0
H2415 H 0.44727 0.97518 0.24568 0.0
H2416 H 0.50091 0.02646 0.2155 0.0
H2417 H 0.49075 0.02902 0.18843 0.0
H2418 H 0.45337 0.9807 0.18759 0.0
H2419 H 0.46368 0.97815 0.21436 0.0
H2420 H 0.53092 0.02559 0.23597 0.0
H2421 H 0.54847 0.02902 0.21421 0.0
H2422 H 0.51307 0.98471 0.18944 0.0
H2423 H 0.49601 0.98105 0.21169 0.0
O2424 O 0.51376 0.00062 0.34615 0.0
O2425 O 0.50947 0.97701 0.33736 0.0
O2426 O 0.42142 0.01247 0.22476 0.0
O2427 O 0.40672 0.98707 0.22882 0.0
C2428 C 0.50501 0.99948 0.25487 0.0
C2429 C 0.49459 0.9975 0.26717 0.0
C2430 C 0.48076 0.99763 0.26306 0.0
C2431 C 0.47723 0.99958 0.24667 0.0
C2432 C 0.48741 0.00115 0.23427 0.0
C2433 C 0.5014 0.00124 0.23837 0.0
C2434 C 0.51937 0.99908 0.25944 0.0
C2435 C 0.53104 0.01101 0.27031 0.0
C2436 C 0.54296 0.00917 0.27739 0.0
C2437 C 0.54345 0.99539 0.27362 0.0
C2438 C 0.53234 0.98394 0.26183 0.0
C2439 C 0.52035 0.98577 0.25481 0.0
C2440 C 0.49812 0.99518 0.28441 0.0
C2441 C 0.50227 0.00707 0.297 0.0
C2442 C 0.50598 0.00507 0.31313 0.0
C2443 C 0.50563 0.99113 0.31695 0.0
C2444 C 0.50136 0.9792 0.30427 0.0
C2445 C 0.4976 0.9812 0.28816 0.0
C2446 C 0.46965 0.99517 0.27582 0.0
C2447 C 0.46759 0.00755 0.28157 0.0
C2448 C 0.45634 0.00493 0.29274 0.0
C2449 C 0.44694 0.98985 0.2983 0.0
C2450 C 0.44933 0.97757 0.29275 0.0
C2451 C 0.4606 0.98022 0.28161 0.0
C2452 C 0.4627 -0.00015 0.24239 0.0
C2453 C 0.46353 0.0138 0.23795 0.0
C2454 C 0.44993 0.014 0.23353 0.0
C2455 C 0.43524 0.00023 0.23352 0.0
C2456 C 0.43448 0.98628 0.23805 0.0
C2457 C 0.4481 0.98609 0.24242 0.0
C2458 C 0.48293 0.00217 0.21692 0.0
C2459 C 0.49075 0.01636 0.20926 0.0
C2460 C 0.48494 0.0178 0.19387 0.0
C2461 C 0.47117 0.00512 0.1861 0.0
C2462 C 0.46387 0.99072 0.19346 0.0
C2463 C 0.46976 0.98923 0.20867 0.0
C2464 C 0.51218 0.00309 0.22539 0.0
C2465 C 0.52706 0.01656 0.22592 0.0
C2466 C 0.537 0.01856 0.21338 0.0
C2467 C 0.53218 0.00718 0.2 0.0
C2468 C 0.51728 0.99362 0.19964 0.0
C2469 C 0.50744 0.99156 0.21226 0.0
C2470 C 0.50972 0.9891 0.33407 0.0
C2471 C 0.42075 0.00036 0.22876 0.0
H2472 H 0.51517 0.04642 0.72465 0.0
H2473 H 0.58802 0.97934 0.83826 0.0
H2474 H 0.50027 0.03095 0.81451 0.0
H2475 H 0.48012 0.0359 0.80336 0.0
H2476 H 0.45063 0.98622 0.78897 0.0
H2477 H 0.47059 0.9814 0.80105 0.0
H2478 H 0.52818 0.03559 0.79213 0.0
H2479 H 0.52621 0.04467 0.76506 0.0
H2480 H 0.48954 0.99753 0.74854 0.0
H2481 H 0.49174 0.98861 0.77563 0.0
H2482 H 0.55336 0.02942 0.80963 0.0
H2483 H 0.57392 0.036 0.79062 0.0
H2484 H 0.54284 0.99393 0.75952 0.0
H2485 H 0.52228 0.9876 0.77852 0.0
H2486 H 0.54913 0.01782 0.8456 0.0
H2487 H 0.57135 0.01491 0.85407 0.0
H2488 H 0.55401 0.97437 0.81908 0.0
H2489 H 0.53174 0.97731 0.81088 0.0
H2490 H 0.51964 0.01386 0.86306 0.0
H2491 H 0.52565 0.00802 0.89042 0.0
H2492 H 0.51821 0.96343 0.86982 0.0
H2493 H 0.51198 0.96929 0.8425 0.0
H2494 H 0.49662 0.0206 0.84515 0.0
H2495 H 0.47824 0.01681 0.86604 0.0
H2496 H 0.46108 0.96681 0.8619 0.0
H2497 H 0.4792 0.97069 0.84056 0.0
O2498 O 0.51579 0.04258 0.73524 0.0
O2499 O 0.49696 0.01815 0.72737 0.0
O2500 O 0.58772 0.00162 0.853 0.0
O2501 O 0.57935 0.98077 0.83514 0.0
C2502 C 0.49977 0.00325 0.81351 0.0
C2503 C 0.51122 0.00607 0.80229 0.0
C2504 C 0.52397 0.00423 0.80694 0.0
C2505 C 0.52521 0.9994 0.82275 0.0
C2506 C 0.51366 0.99646 0.83396 0.0
C2507 C 0.50095 0.99844 0.82934 0.0
C2508 C 0.4868 0.00583 0.80863 0.0
C2509 C 0.48929 0.02113 0.80928 0.0
C2510 C 0.47783 0.02393 0.80271 0.0
C2511 C 0.46378 0.01149 0.79505 0.0
C2512 C 0.46118 0.99607 0.79494 0.0
C2513 C 0.47258 0.99326 0.80178 0.0
C2514 C 0.5101 0.01147 0.7858 0.0
C2515 C 0.51977 0.02725 0.78261 0.0
C2516 C 0.5186 0.0324 0.76716 0.0
C2517 C 0.50771 0.02183 0.75463 0.0
C2518 C 0.49805 0.00598 0.7579 0.0
C2519 C 0.49926 0.00086 0.77336 0.0
C2520 C 0.5364 0.00802 0.79544 0.0
C2521 C 0.55104 0.02163 0.79872 0.0
C2522 C 0.56276 0.02532 0.78789 0.0
C2523 C 0.56001 0.01547 0.77357 0.0
C2524 C 0.54525 0.00186 0.77032 0.0
C2525 C 0.53354 0.99818 0.78118 0.0
C2526 C 0.53882 0.99775 0.82768 0.0
C2527 C 0.55013 0.0083 0.83983 0.0
C2528 C 0.56282 0.00662 0.84461 0.0
C2529 C 0.56445 0.99439 0.83725 0.0
C2530 C 0.55311 0.98391 0.825 0.0
C2531 C 0.5404 0.98558 0.82026 0.0
C2532 C 0.51539 0.99201 0.85081 0.0
C2533 C 0.51893 0.00267 0.86454 0.0
C2534 C 0.52236 0.99931 0.88014 0.0
C2535 C 0.52246 0.9853 0.88222 0.0
C2536 C 0.51835 0.97438 0.86854 0.0
C2537 C 0.51476 0.97768 0.85297 0.0
C2538 C 0.48914 0.99591 0.84128 0.0
C2539 C 0.48869 0.0088 0.84855 0.0
C2540 C 0.47831 0.00663 0.86061 0.0
C2541 C 0.46826 0.99152 0.86569 0.0
C2542 C 0.46855 0.97857 0.85813 0.0
C2543 C 0.47893 0.98076 0.84602 0.0
C2544 C 0.50645 0.02734 0.73824 0.0
C2545 C 0.57789 0.99253 0.84231 0.0
H2546 H 0.97023 0.46183 0.73507 0.0
H2547 H 0.02209 0.60751 0.86634 0.0
H2548 H 0.98594 0.47113 0.83975 0.0
H2549 H 0.98093 0.44496 0.83062 0.0
H2550 H 0.02021 0.46605 0.80025 0.0
H2551 H 0.02548 0.49221 0.81 0.0
H2552 H 0.97788 0.48077 0.80564 0.0
H2553 H 0.97049 0.46916 0.77717 0.0
H2554 H 0.01423 0.50656 0.76203 0.0
H2555 H 0.02156 0.51795 0.79061 0.0
H2556 H 0.97727 0.5117 0.80578 0.0
H2557 H 0.97011 0.52683 0.78803 0.0
H2558 H 0.01796 0.56502 0.79244 0.0
H2559 H 0.02508 0.54972 0.80998 0.0
H2560 H 0.98384 0.53142 0.84004 0.0
H2561 H 0.98343 0.55533 0.84844 0.0
H2562 H 0.03375 0.58081 0.85593 0.0
H2563 H 0.03399 0.55686 0.84729 0.0
H2564 H 0.98989 0.51641 0.87067 0.0
H2565 H 0.99347 0.53151 0.89678 0.0
H2566 H 0.04345 0.55318 0.89534 0.0
H2567 H 0.0397 0.53776 0.86921 0.0
H2568 H 0.99484 0.49046 0.87182 0.0
H2569 H 0.00059 0.476 0.8919 0.0
H2570 H 0.04354 0.48844 0.86922 0.0
H2571 H 0.03757 0.50275 0.84909 0.0
O2572 O 0.9734 0.46661 0.74626 0.0
O2573 O 0.99603 0.48612 0.7391 0.0
O2574 O 0.99608 0.58436 0.85853 0.0
O2575 O 0.02192 0.59793 0.86281 0.0
C2576 C 0.00798 0.49921 0.82982 0.0
C2577 C 0.00477 0.5071 0.81751 0.0
C2578 C 0.00552 0.52149 0.82177 0.0
C2579 C 0.0091 0.52779 0.83835 0.0
C2580 C 0.01219 0.51986 0.85064 0.0
C2581 C 0.01196 0.50575 0.84636 0.0
C2582 C 0.00607 0.48354 0.82553 0.0
C2583 C 0.99365 0.47008 0.8314 0.0
C2584 C 0.99071 0.45515 0.82602 0.0
C2585 C 8e-05 0.45341 0.81459 0.0
C2586 C 0.01286 0.46697 0.80918 0.0
C2587 C 0.01585 0.48192 0.81465 0.0
C2588 C 0.00028 0.50014 0.80018 0.0
C2589 C 0.98588 0.48639 0.79617 0.0
C2590 C 0.98167 0.47981 0.77989 0.0
C2591 C 0.99178 0.48693 0.76732 0.0
C2592 C 0.00618 0.50078 0.77141 0.0
C2593 C 0.01039 0.50732 0.7877 0.0
C2594 C 0.00168 0.52965 0.80916 0.0
C2595 C 0.98627 0.52316 0.80254 0.0
C2596 C 0.9822 0.5318 0.79244 0.0
C2597 C 0.99347 0.54712 0.78899 0.0
C2598 C 0.00903 0.5533 0.79506 0.0
C2599 C 0.01312 0.54458 0.805 0.0
C2600 C 0.00894 0.54244 0.84306 0.0
C2601 C 0.99476 0.54221 0.8434 0.0
C2602 C 0.99456 0.55587 0.84825 0.0
C2603 C 0.00856 0.56998 0.85289 0.0
C2604 C 0.02276 0.57015 0.85246 0.0
C2605 C 0.02294 0.55649 0.84755 0.0
C2606 C 0.01453 0.52604 0.86811 0.0
C2607 C 0.00159 0.52405 0.87627 0.0
C2608 C 0.00367 0.53281 0.89105 0.0
C2609 C 0.01875 0.54373 0.89791 0.0
C2610 C 0.0317 0.54482 0.89035 0.0
C2611 C 0.0296 0.53602 0.87548 0.0
C2612 C 0.01585 0.49774 0.8591 0.0
C2613 C 0.00558 0.49024 0.87136 0.0
C2614 C 0.00891 0.482 0.88281 0.0
C2615 C 0.02255 0.48109 0.88217 0.0
C2616 C 0.03287 0.48878 0.86994 0.0
C2617 C 0.02954 0.49702 0.85851 0.0
C2618 C 0.98726 0.47991 0.75003 0.0
C2619 C 0.00841 0.58448 0.85823 0.0
H2620 H 0.48395 0.50403 0.71783 0.0
H2621 H 0.60581 0.61552 0.85005 0.0
H2622 H 0.46897 0.51217 0.80305 0.0
H2623 H 0.44769 0.48583 0.79306 0.0
H2624 H 0.47059 0.46514 0.8195 0.0
H2625 H 0.49185 0.49142 0.82915 0.0
H2626 H 0.49879 0.53886 0.78246 0.0
H2627 H 0.49203 0.52783 0.75374 0.0
H2628 H 0.49795 0.48916 0.76727 0.0
H2629 H 0.50488 0.50043 0.79587 0.0
H2630 H 0.53249 0.56914 0.7986 0.0
H2631 H 0.55416 0.58023 0.78047 0.0
H2632 H 0.5568 0.53788 0.78176 0.0
H2633 H 0.53567 0.52723 0.80028 0.0
H2634 H 0.52815 0.57645 0.83837 0.0
H2635 H 0.55263 0.60102 0.84598 0.0
H2636 H 0.57819 0.57679 0.8382 0.0
H2637 H 0.55362 0.55228 0.8308 0.0
H2638 H 0.50128 0.55289 0.86212 0.0
H2639 H 0.50934 0.5626 0.89125 0.0
H2640 H 0.54541 0.55049 0.88948 0.0
H2641 H 0.53702 0.54048 0.8607 0.0
H2642 H 0.47084 0.52098 0.84318 0.0
H2643 H 0.4534 0.50471 0.86375 0.0
H2644 H 0.48862 0.49455 0.88162 0.0
H2645 H 0.50578 0.51054 0.86092 0.0
O2646 O 0.48672 0.50821 0.72924 0.0
O2647 O 0.48987 0.48856 0.73685 0.0
O2648 O 0.58228 0.61786 0.85105 0.0
O2649 O 0.59597 0.60598 0.84713 0.0
C2650 C 0.49583 0.51942 0.821 0.0
C2651 C 0.50615 0.52712 0.80867 0.0
C2652 C 0.52051 0.54106 0.81294 0.0
C2653 C 0.5242 0.54778 0.8294 0.0
C2654 C 0.51387 0.54009 0.84173 0.0
C2655 C 0.49973 0.52586 0.83755 0.0
C2656 C 0.4819 0.50366 0.81684 0.0
C2657 C 0.46921 0.50192 0.80689 0.0
C2658 C 0.45708 0.4869 0.80125 0.0
C2659 C 0.45757 0.47347 0.80542 0.0
C2660 C 0.47001 0.4753 0.81594 0.0
C2661 C 0.48206 0.49027 0.82159 0.0
C2662 C 0.50216 0.52036 0.79125 0.0
C2663 C 0.49863 0.52801 0.77917 0.0
C2664 C 0.49476 0.52168 0.76279 0.0
C2665 C 0.49439 0.50757 0.75822 0.0
C2666 C 0.49807 0.5 0.77038 0.0
C2667 C 0.50197 0.50638 0.78673 0.0
C2668 C 0.53252 0.54739 0.80071 0.0
C2669 C 0.53771 0.56226 0.79483 0.0
C2670 C 0.55001 0.56852 0.78443 0.0
C2671 C 0.55725 0.55996 0.77977 0.0
C2672 C 0.55165 0.54487 0.78533 0.0
C2673 C 0.53946 0.53869 0.79575 0.0
C2674 C 0.53914 0.56264 0.8339 0.0
C2675 C 0.53906 0.57649 0.83831 0.0
C2676 C 0.55305 0.5905 0.84264 0.0
C2677 C 0.56738 0.59088 0.84265 0.0
C2678 C 0.56738 0.57693 0.83828 0.0
C2679 C 0.55337 0.56292 0.83399 0.0
C2680 C 0.51865 0.5461 0.85931 0.0
C2681 C 0.51089 0.55233 0.8681 0.0
C2682 C 0.51555 0.55792 0.88467 0.0
C2683 C 0.52799 0.55727 0.89269 0.0
C2684 C 0.53564 0.55094 0.88378 0.0
C2685 C 0.53098 0.54537 0.86728 0.0
C2686 C 0.48957 0.51697 0.85065 0.0
C2687 C 0.47478 0.51532 0.85165 0.0
C2688 C 0.46489 0.5061 0.86341 0.0
C2689 C 0.46964 0.49831 0.87422 0.0
C2690 C 0.48458 0.50025 0.87332 0.0
C2691 C 0.49444 0.50948 0.86163 0.0
C2692 C 0.49021 0.50083 0.74082 0.0
C2693 C 0.58228 0.60574 0.8472 0.0
H2694 H 0.63561 0.83231 0.67454 0.0
H2695 H 0.64294 0.72009 0.54775 0.0
H2696 H 0.61612 0.82828 0.58679 0.0
H2697 H 0.62336 0.85538 0.59576 0.0
H2698 H 0.66778 0.8726 0.57462 0.0
H2699 H 0.66047 0.84559 0.56568 0.0
H2700 H 0.61517 0.79938 0.60871 0.0
H2701 H 0.61939 0.80988 0.63751 0.0
H2702 H 0.66628 0.84576 0.62841 0.0
H2703 H 0.66197 0.83502 0.59971 0.0
H2704 H 0.61407 0.76672 0.59163 0.0
H2705 H 0.62045 0.75138 0.61003 0.0
H2706 H 0.66779 0.7903 0.61777 0.0
H2707 H 0.66148 0.80535 0.59906 0.0
H2708 H 0.60649 0.76114 0.55335 0.0
H2709 H 0.60556 0.73625 0.5466 0.0
H2710 H 0.65518 0.75898 0.55926 0.0
H2711 H 0.65596 0.78383 0.56574 0.0
H2712 H 0.60411 0.78208 0.53057 0.0
H2713 H 0.60184 0.77009 0.50259 0.0
H2714 H 0.65154 0.78831 0.50577 0.0
H2715 H 0.65364 0.79993 0.53367 0.0
H2716 H 0.60905 0.81989 0.54915 0.0
H2717 H 0.60787 0.83622 0.52785 0.0
H2718 H 0.65078 0.84235 0.51002 0.0
H2719 H 0.65215 0.82649 0.53162 0.0
O2720 O 0.6342 0.82832 0.66311 0.0
O2721 O 0.65819 0.84657 0.65777 0.0
O2722 O 0.61753 0.7187 0.54368 0.0
O2723 O 0.64298 0.72979 0.55023 0.0
C2724 C 0.63437 0.81876 0.57178 0.0
C2725 C 0.6355 0.8101 0.58463 0.0
C2726 C 0.63432 0.79543 0.58083 0.0
C2727 C 0.63177 0.78931 0.56421 0.0
C2728 C 0.6304 0.79786 0.55142 0.0
C2729 C 0.63164 0.81257 0.55518 0.0
C2730 C 0.63779 0.83504 0.57562 0.0
C2731 C 0.62729 0.83796 0.58389 0.0
C2732 C 0.63142 0.85337 0.58895 0.0
C2733 C 0.64616 0.866 0.58594 0.0
C2734 C 0.65642 0.86304 0.5772 0.0
C2735 C 0.65223 0.84768 0.57201 0.0
C2736 C 0.6382 0.81652 0.60211 0.0
C2737 C 0.62634 0.80949 0.61298 0.0
C2738 C 0.62879 0.81553 0.62941 0.0
C2739 C 0.64316 0.82869 0.63525 0.0
C2740 C 0.65506 0.83564 0.62431 0.0
C2741 C 0.65261 0.82957 0.6079 0.0
C2742 C 0.63732 0.78713 0.59401 0.0
C2743 C 0.62574 0.772 0.59752 0.0
C2744 C 0.62939 0.76327 0.60797 0.0
C2745 C 0.64461 0.76968 0.61526 0.0
C2746 C 0.65593 0.78516 0.61245 0.0
C2747 C 0.65234 0.79377 0.60181 0.0
C2748 C 0.63128 0.77425 0.56005 0.0
C2749 C 0.61714 0.76072 0.55458 0.0
C2750 C 0.61664 0.74652 0.55078 0.0
C2751 C 0.6303 0.74562 0.55242 0.0
C2752 C 0.64445 0.75925 0.55787 0.0
C2753 C 0.64494 0.77345 0.56161 0.0
C2754 C 0.62904 0.79191 0.53402 0.0
C2755 C 0.61449 0.78361 0.52508 0.0
C2756 C 0.61321 0.77676 0.50921 0.0
C2757 C 0.62654 0.77838 0.50205 0.0
C2758 C 0.64113 0.78708 0.51092 0.0
C2759 C 0.64235 0.79367 0.52682 0.0
C2760 C 0.63055 0.82179 0.54176 0.0
C2761 C 0.61815 0.82471 0.54059 0.0
C2762 C 0.61751 0.83405 0.52848 0.0
C2763 C 0.62918 0.84042 0.51724 0.0
C2764 C 0.64151 0.83736 0.51836 0.0
C2765 C 0.64227 0.82825 0.53063 0.0
C2766 C 0.6457 0.83511 0.6527 0.0
C2767 C 0.62982 0.73054 0.5485 0.0
H2768 H 0.16475 0.82986 0.68769 0.0
H2769 H 0.08007 0.70635 0.54607 0.0
H2770 H 0.17391 0.83839 0.60092 0.0
H2771 H 0.19519 0.86383 0.6126 0.0
H2772 H 0.2283 0.84906 0.60219 0.0
H2773 H 0.20676 0.82328 0.59083 0.0
H2774 H 0.14806 0.81468 0.61673 0.0
H2775 H 0.15158 0.82209 0.64639 0.0
H2776 H 0.18836 0.811 0.65093 0.0
H2777 H 0.18458 0.80343 0.62126 0.0
H2778 H 0.12315 0.79045 0.59034 0.0
H2779 H 0.10143 0.77786 0.60799 0.0
H2780 H 0.12591 0.75917 0.63516 0.0
H2781 H 0.14757 0.77163 0.61711 0.0
H2782 H 0.12587 0.78449 0.55397 0.0
H2783 H 0.10226 0.76106 0.54179 0.0
H2784 H 0.11488 0.73173 0.56858 0.0
H2785 H 0.13857 0.75526 0.58049 0.0
H2786 H 0.15682 0.81094 0.53999 0.0
H2787 H 0.14847 0.80153 0.51096 0.0
H2788 H 0.14913 0.75909 0.52002 0.0
H2789 H 0.15813 0.76885 0.54896 0.0
H2790 H 0.18077 0.83834 0.56395 0.0
H2791 H 0.20001 0.8556 0.54551 0.0
H2792 H 0.21242 0.82019 0.5348 0.0
H2793 H 0.19326 0.80301 0.55357 0.0
O2794 O 0.1635 0.82679 0.67599 0.0
O2795 O 0.18237 0.82098 0.67765 0.0
O2796 O 0.08342 0.73141 0.53712 0.0
O2797 O 0.0893 0.71581 0.55074 0.0
C2798 C 0.17556 0.81347 0.58843 0.0
C2799 C 0.1639 0.8039 0.59885 0.0
C2800 C 0.1502 0.79032 0.59207 0.0
C2801 C 0.14854 0.78579 0.57505 0.0
C2802 C 0.16046 0.79503 0.56467 0.0
C2803 C 0.17388 0.80903 0.57132 0.0
C2804 C 0.18877 0.82891 0.59526 0.0
C2805 C 0.18573 0.84055 0.60135 0.0
C2806 C 0.19787 0.85505 0.60799 0.0
C2807 C 0.21334 0.85831 0.60842 0.0
C2808 C 0.21646 0.84679 0.60199 0.0
C2809 C 0.20422 0.83212 0.59554 0.0
C2810 C 0.16595 0.80836 0.61689 0.0
C2811 C 0.15676 0.81372 0.62418 0.0
C2812 C 0.15885 0.81802 0.64111 0.0
C2813 C 0.17023 0.81711 0.65104 0.0
C2814 C 0.17947 0.81181 0.64365 0.0
C2815 C 0.17734 0.80748 0.62672 0.0
C2816 C 0.13687 0.78188 0.60243 0.0
C2817 C 0.12375 0.78351 0.6 0.0
C2818 C 0.11144 0.77646 0.6102 0.0
C2819 C 0.11204 0.76765 0.62305 0.0
C2820 C 0.12511 0.76582 0.6253 0.0
C2821 C 0.13747 0.77293 0.61507 0.0
C2822 C 0.13398 0.77156 0.56801 0.0
C2823 C 0.12354 0.77299 0.55714 0.0
C2824 C 0.11005 0.75959 0.55023 0.0
C2825 C 0.1067 0.74451 0.55418 0.0
C2826 C 0.11712 0.74316 0.56525 0.0
C2827 C 0.13063 0.75657 0.5721 0.0
C2828 C 0.1581 0.79059 0.54661 0.0
C2829 C 0.15574 0.79989 0.5356 0.0
C2830 C 0.15093 0.79448 0.51905 0.0
C2831 C 0.14811 0.77958 0.51335 0.0
C2832 C 0.15119 0.77061 0.52418 0.0
C2833 C 0.15633 0.77616 0.54065 0.0
C2834 C 0.18573 0.81949 0.56023 0.0
C2835 C 0.18779 0.83439 0.55781 0.0
C2836 C 0.19878 0.84423 0.54729 0.0
C2837 C 0.20777 0.83926 0.53881 0.0
C2838 C 0.20561 0.82428 0.54115 0.0
C2839 C 0.19472 0.81449 0.55185 0.0
C2840 C 0.17245 0.82173 0.66902 0.0
C2841 C 0.09243 0.73023 0.5468 0.0
H2842 H 0.2069 0.36728 0.69457 0.0
H2843 H 0.07373 0.33993 0.57408 0.0
H2844 H 0.21237 0.38055 0.61014 0.0
H2845 H 0.23334 0.37637 0.62061 0.0
H2846 H 0.21135 0.33117 0.59283 0.0
H2847 H 0.19035 0.33531 0.58266 0.0
H2848 H 0.18522 0.37939 0.63197 0.0
H2849 H 0.1948 0.37852 0.65988 0.0
H2850 H 0.18871 0.33281 0.64616 0.0
H2851 H 0.17891 0.33372 0.61839 0.0
H2852 H 0.15126 0.37536 0.61661 0.0
H2853 H 0.13128 0.36826 0.63642 0.0
H2854 H 0.12904 0.32363 0.64068 0.0
H2855 H 0.14812 0.3304 0.62002 0.0
H2856 H 0.15155 0.38082 0.57749 0.0
H2857 H 0.12657 0.37954 0.57204 0.0
H2858 H 0.10233 0.33092 0.58396 0.0
H2859 H 0.12738 0.3323 0.58919 0.0
H2860 H 0.17684 0.38216 0.55225 0.0
H2861 H 0.16579 0.38118 0.52431 0.0
H2862 H 0.12974 0.33303 0.52897 0.0
H2863 H 0.14087 0.33406 0.55665 0.0
H2864 H 0.20874 0.38337 0.56986 0.0
H2865 H 0.22345 0.38494 0.54573 0.0
H2866 H 0.1868 0.33851 0.52728 0.0
H2867 H 0.17234 0.33692 0.5515 0.0
O2868 O 0.20292 0.36731 0.68351 0.0
O2869 O 0.19975 0.34391 0.67577 0.0
O2870 O 0.09679 0.36575 0.57003 0.0
O2871 O 0.08377 0.34075 0.57614 0.0
C2872 C 0.18537 0.35889 0.5927 0.0
C2873 C 0.17612 0.35752 0.60606 0.0
C2874 C 0.16162 0.35666 0.60317 0.0
C2875 C 0.1565 0.35753 0.58698 0.0
C2876 C 0.16568 0.35879 0.57363 0.0
C2877 C 0.18011 0.35943 0.57647 0.0
C2878 C 0.1998 0.35819 0.59574 0.0
C2879 C 0.21233 0.36994 0.60599 0.0
C2880 C 0.22421 0.3675 0.61201 0.0
C2881 C 0.22385 0.35337 0.60766 0.0
C2882 C 0.21197 0.34221 0.5963 0.0
C2883 C 0.2 0.34457 0.59044 0.0
C2884 C 0.18148 0.35668 0.62314 0.0
C2885 C 0.18589 0.36917 0.63505 0.0
C2886 C 0.1914 0.36865 0.65097 0.0
C2887 C 0.19258 0.35562 0.65524 0.0
C2888 C 0.18799 0.34304 0.64328 0.0
C2889 C 0.18242 0.34354 0.6274 0.0
C2890 C 0.1511 0.35338 0.61682 0.0
C2891 C 0.14648 0.3641 0.62192 0.0
C2892 C 0.13515 0.36005 0.63335 0.0
C2893 C 0.12841 0.34529 0.64009 0.0
C2894 C 0.13369 0.33494 0.63551 0.0
C2895 C 0.14478 0.33888 0.62387 0.0
C2896 C 0.14127 0.35669 0.58383 0.0
C2897 C 0.14083 0.3699 0.57891 0.0
C2898 C 0.12655 0.36914 0.57581 0.0
C2899 C 0.11244 0.35513 0.5776 0.0
C2900 C 0.11296 0.3419 0.58251 0.0
C2901 C 0.12725 0.34267 0.58555 0.0
C2902 C 0.15952 0.35824 0.55652 0.0
C2903 C 0.16661 0.3714 0.54715 0.0
C2904 C 0.16033 0.37081 0.53123 0.0
C2905 C 0.14682 0.35709 0.52458 0.0
C2906 C 0.13999 0.34385 0.53391 0.0
C2907 C 0.14633 0.34441 0.54969 0.0
C2908 C 0.1894 0.3601 0.56233 0.0
C2909 C 0.20398 0.3735 0.56066 0.0
C2910 C 0.21235 0.37438 0.54691 0.0
C2911 C 0.20617 0.36191 0.53457 0.0
C2912 C 0.1917 0.3484 0.53646 0.0
C2913 C 0.18346 0.34746 0.55028 0.0
C2914 C 0.19862 0.3552 0.6721 0.0
C2915 C 0.09724 0.35426 0.57435 0.0
H2916 H 0.01449 0.41616 0.09599 0.0
H2917 H 0.96658 0.3997 0.07962 0.0
H2918 H 0.01323 0.43312 0.11789 0.0
H2919 H 0.96536 0.41686 0.10156 0.0
H2920 H 0.96725 0.4349 0.15713 0.0
H2921 H 0.96665 0.41879 0.1331 0.0
H2922 H 0.01054 0.4572 0.11988 0.0
H2923 H 0.01102 0.47346 0.14366 0.0
C2924 C 0.00365 0.4161 0.09716 0.0
C2925 C 0.9906 0.40655 0.08618 0.0
C2926 C 0.00299 0.42595 0.10956 0.0
C2927 C 0.98923 0.42637 0.11134 0.0
C2928 C 0.9761 0.41673 0.10047 0.0
C2929 C 0.97682 0.40698 0.0879 0.0
C2930 C 0.97658 0.44006 0.14888 0.0
C2931 C 0.98926 0.45544 0.15241 0.0
C2932 C 0.97625 0.4308 0.13515 0.0
C2933 C 0.98864 0.4367 0.12476 0.0
C2934 C 0.00097 0.45227 0.12787 0.0
C2935 C 0.00124 0.46156 0.14149 0.0
H2936 H 0.58444 0.54843 0.11177 0.0
H2937 H 0.61552 0.58284 0.15034 0.0
H2938 H 0.56945 0.53076 0.13249 0.0
H2939 H 0.60087 0.565 0.17117 0.0
H2940 H 0.55848 0.53974 0.20193 0.0
H2941 H 0.57639 0.556 0.18219 0.0
H2942 H 0.5681 0.51421 0.15347 0.0
H2943 H 0.54935 0.49791 0.17272 0.0
C2944 C 0.58828 0.55203 0.1247 0.0
C2945 C 0.60106 0.56703 0.12947 0.0
C2946 C 0.57972 0.54189 0.1366 0.0
C2947 C 0.58385 0.54648 0.15354 0.0
C2948 C 0.59714 0.56121 0.15825 0.0
C2949 C 0.60558 0.57141 0.14635 0.0
C2950 C 0.56039 0.534 0.19135 0.0
C2951 C 0.5523 0.51751 0.18881 0.0
C2952 C 0.57088 0.54334 0.18014 0.0
C2953 C 0.5737 0.53645 0.16618 0.0
C2954 C 0.56605 0.51994 0.16396 0.0
C2955 C 0.55544 0.51058 0.17512 0.0
H2956 H 0.40531 0.9874 0.10442 0.0
H2957 H 0.44493 0.03171 0.09378 0.0
H2958 H 0.41943 0.98706 0.12931 0.0
H2959 H 0.45908 0.03166 0.11912 0.0
H2960 H 0.48446 0.01707 0.15734 0.0
H2961 H 0.47139 0.01875 0.13197 0.0
H2962 H 0.42818 -0.00015 0.15608 0.0
H2963 H 0.44112 0.99772 0.18102 0.0
C2964 C 0.41699 0.9972 0.10757 0.0
C2965 C 0.42397 0.00967 0.09728 0.0
C2966 C 0.4251 0.99704 0.12187 0.0
C2967 C 0.44035 0.00943 0.12636 0.0
C2968 C 0.4474 0.02186 0.11596 0.0
C2969 C 0.43931 0.02194 0.1015 0.0
C2970 C 0.47219 0.01335 0.15713 0.0
C2971 C 0.46372 0.00704 0.17098 0.0
C2972 C 0.46471 0.01436 0.14266 0.0
C2973 C 0.44867 0.00925 0.1419 0.0
C2974 C 0.44042 0.00349 0.15604 0.0
C2975 C 0.44783 0.00231 0.17036 0.0
H2976 H 0.43119 0.98812 0.96123 0.0
H2977 H 0.39189 0.97521 0.9265 0.0
H2978 H 0.44686 0.98932 0.93851 0.0
H2979 H 0.40786 0.9771 0.90365 0.0
H2980 H 0.43782 0.96832 0.86773 0.0
H2981 H 0.42119 0.96475 0.89046 0.0
H2982 H 0.45877 0.0067 0.91676 0.0
H2983 H 0.47549 0.00989 0.89445 0.0
C2984 C 0.42583 0.98537 0.94875 0.0
C2985 C 0.41027 0.98155 0.94569 0.0
C2986 C 0.4349 0.98628 0.93571 0.0
C2987 C 0.42866 0.98345 0.91927 0.0
C2988 C 0.41298 0.97926 0.91618 0.0
C2989 C 0.40389 0.97834 0.92926 0.0
C2990 C 0.44254 0.97668 0.87844 0.0
C2991 C 0.45796 0.9894 0.87927 0.0
C2992 C 0.43298 0.97473 0.89138 0.0
C2993 C 0.43867 0.98542 0.90543 0.0
C2994 C 0.45408 0.99813 0.90622 0.0
C2995 C 0.46361 8e-05 0.89332 0.0
H2996 H 0.04056 0.4407 0.96785 0.0
H2997 H 0.02115 0.40359 0.92858 0.0
H2998 H 0.04153 0.45924 0.94842 0.0
H2999 H 0.02151 0.42198 0.90931 0.0
H3000 H 0.03368 0.46124 0.87564 0.0
H3001 H 0.03781 0.44508 0.89475 0.0
H3002 H 0.02206 0.46325 0.93423 0.0
H3003 H 0.01854 0.47986 0.9153 0.0
C3004 C 0.03673 0.43655 0.95502 0.0
C3005 C 0.0307 0.42064 0.94978 0.0
C3006 C 0.0371 0.44714 0.94393 0.0
C3007 C 0.03144 0.44206 0.92736 0.0
C3008 C 0.02605 0.42631 0.92196 0.0
C3009 C 0.02569 0.41572 0.93304 0.0
C3010 C 0.03136 0.46199 0.88846 0.0
C3011 C 0.02573 0.4718 0.89394 0.0
C3012 C 0.03358 0.45261 0.89937 0.0
C3013 C 0.03023 0.45285 0.916 0.0
C3014 C 0.02493 0.46292 0.92155 0.0
C3015 C 0.02271 0.47229 0.91065 0.0
H3016 H 0.58285 0.61877 0.97719 0.0
H3017 H 0.55877 0.57338 0.99752 0.0
H3018 H 0.56757 0.60717 0.951 0.0
H3019 H 0.54292 0.56196 0.97162 0.0
H3020 H 0.5364 0.54406 0.91686 0.0
H3021 H 0.54771 0.5553 0.94462 0.0
H3022 H 0.54227 0.59526 0.93623 0.0
H3023 H 0.53156 0.58429 0.90808 0.0
C3024 C 0.57417 0.60636 0.97614 0.0
C3025 C 0.57218 0.59699 0.98941 0.0
C3026 C 0.56525 0.59974 0.96118 0.0
C3027 C 0.55408 0.5836 0.95915 0.0
C3028 C 0.55159 0.57439 0.97268 0.0
C3029 C 0.56055 0.58099 0.98761 0.0
C3030 C 0.53762 0.55525 0.92093 0.0
C3031 C 0.53325 0.56337 0.91019 0.0
C3032 C 0.54392 0.56161 0.93694 0.0
C3033 C 0.54595 0.57622 0.94267 0.0
C3034 C 0.54104 0.58408 0.93214 0.0
C3035 C 0.53475 0.57771 0.91607 0.0
H3036 H 0.02208 0.61898 0.96084 0.0
H3037 H 0.0241 0.58733 0.99463 0.0
H3038 H 0.02446 0.60386 0.93779 0.0
H3039 H 0.02584 0.57183 0.97144 0.0
H3040 H 0.03861 0.55276 0.92586 0.0
H3041 H 0.04153 0.57114 0.94895 0.0
H3042 H 0.0063 0.578 0.92447 0.0
H3043 H 0.00375 0.56014 0.90141 0.0
C3044 C 0.02329 0.60895 0.9634 0.0
C3045 C 0.02275 0.60427 0.97957 0.0
C3046 C 0.02447 0.60018 0.95016 0.0
C3047 C 0.02512 0.58652 0.95277 0.0
C3048 C 0.02541 0.58231 0.96902 0.0
C3049 C 0.02424 0.59109 0.98228 0.0
C3050 C 0.03161 0.55832 0.92543 0.0
C3051 C 0.02082 0.55488 0.91196 0.0
C3052 C 0.03322 0.56876 0.93865 0.0
C3053 C 0.02417 0.57605 0.93852 0.0
C3054 C 0.0136 0.57276 0.92488 0.0
C3055 C 0.01195 0.56233 0.91177 0.0
H3056 H 0.43189 0.43436 0.95085 0.0
H3057 H 0.39518 0.44438 0.9392 0.0
H3058 H 0.44756 0.45199 0.93059 0.0
H3059 H 0.4107 0.4616 0.91824 0.0
H3060 H 0.45124 0.50377 0.89452 0.0
H3061 H 0.43462 0.48678 0.91504 0.0
H3062 H 0.44719 0.45211 0.90091 0.0
H3063 H 0.46383 0.46909 0.88064 0.0
C3064 C 0.42719 0.44043 0.94406 0.0
C3065 C 0.4123 0.43802 0.94673 0.0
C3066 C 0.4361 0.45037 0.93224 0.0
C3067 C 0.43032 0.45809 0.92269 0.0
C3068 C 0.41551 0.45588 0.92547 0.0
C3069 C 0.40657 0.44591 0.93736 0.0
C3070 C 0.45032 0.49246 0.89575 0.0
C3071 C 0.45897 0.48783 0.88614 0.0
C3072 C 0.4408 0.48273 0.90747 0.0
C3073 C 0.43973 0.46818 0.90973 0.0
C3074 C 0.44805 0.4634 0.89976 0.0
C3075 C 0.45757 0.47312 0.88813 0.0
H3076 H 0.56518 0.00371 0.98087 0.0
H3077 H 0.56628 0.96241 0.96318 0.0
H3078 H 0.54986 0.00172 0.95581 0.0
H3079 H 0.55057 0.9601 0.93823 0.0
H3080 H 0.54328 0.97551 0.88755 0.0
H3081 H 0.55461 0.97377 0.91387 0.0
H3082 H 0.52564 0.98754 0.93962 0.0
H3083 H 0.51456 0.98962 0.91312 0.0
C3084 C 0.56181 0.99398 0.97178 0.0
C3085 C 0.56699 0.98326 0.97392 0.0
C3086 C 0.55299 0.9928 0.95741 0.0
C3087 C 0.54904 0.9808 0.94492 0.0
C3088 C 0.55367 0.96968 0.94743 0.0
C3089 C 0.56261 0.97095 0.96174 0.0
C3090 C 0.53912 0.97788 0.89884 0.0
C3091 C 0.52805 0.98271 0.8983 0.0
C3092 C 0.5456 0.97686 0.91396 0.0
C3093 C 0.54107 0.98054 0.92892 0.0
C3094 C 0.52959 0.98487 0.92835 0.0
C3095 C 0.5232 0.98601 0.9132 0.0
H3096 H 0.60726 0.03855 0.13276 0.0
H3097 H 0.56746 0.99821 0.10695 0.0
H3098 H 0.59165 0.03596 0.15629 0.0
H3099 H 0.55189 0.99571 0.13033 0.0
H3100 H 0.5362 0.98498 0.18301 0.0
H3101 H 0.55215 0.98854 0.15978 0.0
H3102 H 0.56792 0.03817 0.16297 0.0
H3103 H 0.55161 0.03462 0.18594 0.0
C3104 C 0.59517 0.0292 0.1321 0.0
C3105 C 0.58855 0.01862 0.11801 0.0
C3106 C 0.58624 0.02777 0.1455 0.0
C3107 C 0.57059 0.0156 0.14514 0.0
C3108 C 0.56396 0.00512 0.131 0.0
C3109 C 0.57282 0.00665 0.11755 0.0
C3110 C 0.54292 0.99664 0.17868 0.0
C3111 C 0.54251 0.00949 0.18632 0.0
C3112 C 0.55209 0.99867 0.1654 0.0
C3113 C 0.56121 0.01361 0.15954 0.0
C3114 C 0.56111 0.02654 0.16734 0.0
C3115 C 0.55179 0.02449 0.18054 0.0
H3116 H 0.98932 0.59983 0.13169 0.0
H3117 H 0.96708 0.56041 0.09502 0.0
H3118 H 0.98903 0.58244 0.15222 0.0
H3119 H 0.967 0.54307 0.11555 0.0
H3120 H 0.99038 0.52388 0.15061 0.0
H3121 H 0.9874 0.53994 0.13041 0.0
H3122 H 0.97151 0.55989 0.16796 0.0
H3123 H 0.97483 0.54408 0.18826 0.0
C3124 C 0.98409 0.58741 0.12807 0.0
C3125 C 0.9783 0.58154 0.11167 0.0
C3126 C 0.98397 0.57745 0.13984 0.0
C3127 C 0.97809 0.56141 0.13546 0.0
C3128 C 0.97184 0.55543 0.11921 0.0
C3129 C 0.9719 0.56537 0.10746 0.0
C3130 C 0.98627 0.53172 0.15454 0.0
C3131 C 0.98289 0.53276 0.17101 0.0
C3132 C 0.98441 0.54078 0.14294 0.0
C3133 C 0.9792 0.55116 0.1476 0.0
C3134 C 0.97564 0.55207 0.16404 0.0
C3135 C 0.97742 0.54293 0.17562 0.0
H3136 H 0.44516 0.40528 0.07346 0.0
H3137 H 0.40533 0.4015 0.09708 0.0
H3138 H 0.46162 0.41883 0.09871 0.0
H3139 H 0.42146 0.41401 0.12241 0.0
H3140 H 0.45565 0.45207 0.15886 0.0
H3141 H 0.4412 0.43952 0.1327 0.0
H3142 H 0.46715 0.41549 0.12707 0.0
H3143 H 0.48247 0.42897 0.15294 0.0
C3144 C 0.43988 0.40723 0.08403 0.0
C3145 C 0.42389 0.40229 0.08317 0.0
C3146 C 0.44929 0.41484 0.09857 0.0
C3147 C 0.4429 0.41764 0.11256 0.0
C3148 C 0.42686 0.41234 0.11179 0.0
C3149 C 0.41752 0.40489 0.09729 0.0
C3150 C 0.45862 0.44444 0.15191 0.0
C3151 C 0.47033 0.44163 0.15804 0.0
C3152 C 0.45009 0.43698 0.137 0.0
C3153 C 0.45283 0.42629 0.12787 0.0
C3154 C 0.46477 0.4237 0.13376 0.0
C3155 C 0.47344 0.4313 0.14868 0.0
H3156 H 0.63529 0.74858 0.40192 0.0
H3157 H 0.63466 0.7152 0.43509 0.0
H3158 H 0.62893 0.7612 0.42439 0.0
H3159 H 0.62789 0.72755 0.45728 0.0
H3160 H 0.60669 0.74757 0.49186 0.0
H3161 H 0.60727 0.73346 0.46656 0.0
H3162 H 0.64457 0.77692 0.45066 0.0
H3163 H 0.64393 0.79098 0.47587 0.0
C3164 C 0.63369 0.74385 0.41394 0.0
C3165 C 0.63566 0.73095 0.41671 0.0
C3166 C 0.62997 0.75104 0.42676 0.0
C3167 C 0.62796 0.74537 0.44256 0.0
C3168 C 0.62917 0.73204 0.44515 0.0
C3169 C 0.63304 0.72495 0.4324 0.0
C3170 C 0.61475 0.75412 0.48275 0.0
C3171 C 0.62531 0.77032 0.48579 0.0
C3172 C 0.61516 0.74605 0.46837 0.0
C3173 C 0.626 0.75409 0.4567 0.0
C3174 C 0.63599 0.77044 0.45937 0.0
C3175 C 0.63571 0.77847 0.47382 0.0
H3176 H 0.257 0.91626 0.47807 0.0
H3177 H 0.26859 0.88229 0.45856 0.0
H3178 H 0.24313 0.89903 0.49951 0.0
H3179 H 0.25486 0.86506 0.48023 0.0
H3180 H 0.21164 0.83122 0.5075 0.0
H3181 H 0.22845 0.84867 0.48753 0.0
H3182 H 0.24617 0.88805 0.52409 0.0
H3183 H 0.2291 0.8706 0.54391 0.0
C3184 C 0.25684 0.90523 0.47856 0.0
C3185 C 0.26389 0.90063 0.46663 0.0
C3186 C 0.2489 0.89534 0.49088 0.0
C3187 C 0.24787 0.88064 0.49161 0.0
C3188 C 0.25522 0.87619 0.47987 0.0
C3189 C 0.26311 0.88607 0.46749 0.0
C3190 C 0.2193 0.84357 0.51131 0.0
C3191 C 0.21899 0.84958 0.5272 0.0
C3192 C 0.22897 0.85357 0.49989 0.0
C3193 C 0.2386 0.8698 0.50416 0.0
C3194 C 0.23867 0.87568 0.52028 0.0
C3195 C 0.22893 0.86569 0.53165 0.0
H3196 H 0.11977 0.37009 0.42504 0.0
H3197 H 0.08403 0.32405 0.43721 0.0
H3198 H 0.13391 0.37384 0.45178 0.0
H3199 H 0.09814 0.32766 0.46367 0.0
H3200 H 0.11611 0.34588 0.51641 0.0
H3201 H 0.10357 0.34345 0.48926 0.0
H3202 H 0.14841 0.36447 0.46832 0.0
H3203 H 0.16102 0.36709 0.49573 0.0
C3204 C 0.11505 0.36072 0.43335 0.0
C3205 C 0.10071 0.34687 0.42916 0.0
C3206 C 0.12314 0.36285 0.44863 0.0
C3207 C 0.11703 0.35113 0.45994 0.0
C3208 C 0.10296 0.33708 0.45543 0.0
C3209 C 0.09489 0.33499 0.44025 0.0
C3210 C 0.12328 0.34994 0.506 0.0
C3211 C 0.13951 0.35651 0.50813 0.0
C3212 C 0.11611 0.34852 0.49043 0.0
C3213 C 0.12497 0.35355 0.47658 0.0
C3214 C 0.14128 0.36055 0.47877 0.0
C3215 C 0.14849 0.36204 0.49443 0.0
H3216 H 0.08759 0.29829 0.28886 0.0
H3217 H 0.05807 0.30831 0.25763 0.0
H3218 H 0.09954 0.29476 0.26468 0.0
H3219 H 0.06953 0.30419 0.23327 0.0
H3220 H 0.10828 0.31765 0.19775 0.0
H3221 H 0.09322 0.31754 0.22058 0.0
H3222 H 0.0969 0.27947 0.24032 0.0
H3223 H 0.11296 0.28039 0.21811 0.0
C3224 C 0.08342 0.29938 0.27675 0.0
C3225 C 0.072 0.30367 0.27509 0.0
C3226 C 0.09021 0.2973 0.26286 0.0
C3227 C 0.08558 0.29928 0.24697 0.0
C3228 C 0.07364 0.30291 0.24531 0.0
C3229 C 0.06701 0.30519 0.25924 0.0
C3230 C 0.10597 0.30931 0.20701 0.0
C3231 C 0.11202 0.29917 0.20616 0.0
C3232 C 0.09709 0.30907 0.22 0.0
C3233 C 0.09386 0.29853 0.23239 0.0
C3234 C 0.09937 0.28793 0.23117 0.0
C3235 C 0.10841 0.2883 0.21826 0.0
H3236 H 0.70917 0.75278 0.27347 0.0
H3237 H 0.69529 0.77815 0.3068 0.0
H3238 H 0.71192 0.77046 0.25209 0.0
H3239 H 0.69874 0.79618 0.28575 0.0
H3240 H 0.68549 0.81091 0.23829 0.0
H3241 H 0.68483 0.79445 0.26 0.0
H3242 H 0.72718 0.79753 0.24417 0.0
H3243 H 0.72749 0.81356 0.22192 0.0
C3244 C 0.70685 0.7622 0.27629 0.0
C3245 C 0.70193 0.76399 0.29183 0.0
C3246 C 0.70859 0.77244 0.2641 0.0
C3247 C 0.70544 0.78466 0.26718 0.0
C3248 C 0.70103 0.78674 0.2829 0.0
C3249 C 0.69927 0.77652 0.29505 0.0
C3250 C 0.69458 0.80796 0.23932 0.0
C3251 C 0.70648 0.81346 0.22831 0.0
C3252 C 0.69433 0.7987 0.25192 0.0
C3253 C 0.706 0.79475 0.25388 0.0
C3254 C 0.71796 0.80028 0.24292 0.0
C3255 C 0.71821 0.80958 0.23028 0.0
H3256 H 0.24756 0.9522 0.3115 0.0
H3257 H 0.22363 0.90599 0.33009 0.0
H3258 H 0.23213 0.94145 0.28529 0.0
H3259 H 0.20753 0.89548 0.30431 0.0
H3260 H 0.19911 0.8787 0.24939 0.0
H3261 H 0.21126 0.88929 0.277 0.0
H3262 H 0.20712 0.93033 0.27068 0.0
H3263 H 0.19572 0.92008 0.24259 0.0
C3264 C 0.2389 0.93978 0.31008 0.0
C3265 C 0.237 0.92995 0.32289 0.0
C3266 C 0.22987 0.93365 0.29511 0.0
C3267 C 0.21864 0.91755 0.29261 0.0
C3268 C 0.21625 0.90788 0.30569 0.0
C3269 C 0.22537 0.91398 0.3206 0.0
C3270 C 0.20084 0.89002 0.25385 0.0
C3271 C 0.19662 0.89863 0.24368 0.0
C3272 C 0.20762 0.896 0.26981 0.0
C3273 C 0.21023 0.9107 0.27611 0.0
C3274 C 0.20549 0.91907 0.26616 0.0
C3275 C 0.19877 0.91311 0.25012 0.0
H3276 H 0.72386 0.94888 0.32003 0.0
H3277 H 0.67753 0.90794 0.31703 0.0
H3278 H 0.73119 0.9364 0.29831 0.0
H3279 H 0.68492 0.89548 0.29562 0.0
H3280 H 0.70464 0.87208 0.26457 0.0
H3281 H 0.7018 0.88448 0.28985 0.0
H3282 H 0.72382 0.92936 0.26838 0.0
H3283 H 0.72656 0.91699 0.24313 0.0
C3284 C 0.71526 0.93722 0.31481 0.0
C3285 C 0.70009 0.92944 0.32026 0.0
C3286 C 0.71948 0.93006 0.30242 0.0
C3287 C 0.70865 0.91495 0.29529 0.0
C3288 C 0.69364 0.90701 0.30108 0.0
C3289 C 0.6894 0.91418 0.31337 0.0
C3290 C 0.70903 0.88463 0.26534 0.0
C3291 C 0.71572 0.89353 0.25181 0.0
C3292 C 0.7074 0.89172 0.2798 0.0
C3293 C 0.71246 0.90786 0.28104 0.0
C3294 C 0.71996 0.91693 0.26787 0.0
C3295 C 0.72156 0.90983 0.2534 0.0
H3296 H 0.08516 0.80066 0.30019 0.0
H3297 H 0.06067 0.76392 0.26107 0.0
H3298 H 0.09956 0.81924 0.27982 0.0
H3299 H 0.07515 0.78237 0.24074 0.0
H3300 H 0.0974 0.82102 0.20626 0.0
H3301 H 0.0802 0.80558 0.22715 0.0
H3302 H 0.12001 0.82294 0.26242 0.0
H3303 H 0.13705 0.83887 0.24181 0.0
C3304 C 0.08279 0.7966 0.28723 0.0
C3305 C 0.07186 0.78082 0.28223 0.0
C3306 C 0.09106 0.80722 0.27556 0.0
C3307 C 0.08862 0.80227 0.25866 0.0
C3308 C 0.07719 0.78664 0.25363 0.0
C3309 C 0.06888 0.77605 0.26529 0.0
C3310 C 0.10242 0.82178 0.21858 0.0
C3311 C 0.1186 0.83108 0.22235 0.0
C3312 C 0.09259 0.81281 0.2305 0.0
C3313 C 0.09873 0.81295 0.24644 0.0
C3314 C 0.11485 0.82267 0.25034 0.0
C3315 C 0.12466 0.83164 0.23845 0.0
H3316 H 0.22337 0.32679 0.31173 0.0
H3317 H 0.22336 0.28343 0.30188 0.0
H3318 H 0.20683 0.32121 0.28653 0.0
H3319 H 0.20652 0.27763 0.27677 0.0
H3320 H 0.19751 0.28612 0.22291 0.0
H3321 H 0.20961 0.28762 0.25005 0.0
H3322 H 0.18179 0.30497 0.27207 0.0
H3323 H 0.16988 0.30371 0.24474 0.0
C3324 C 0.21951 0.31587 0.30436 0.0
C3325 C 0.22473 0.30559 0.30872 0.0
C3326 C 0.21 0.31264 0.28991 0.0
C3327 C 0.2054 0.299 0.27954 0.0
C3328 C 0.21008 0.28839 0.2843 0.0
C3329 C 0.21969 0.29168 0.2987 0.0
C3330 C 0.19373 0.28992 0.23359 0.0
C3331 C 0.18278 0.29484 0.2317 0.0
C3332 C 0.20066 0.29078 0.24918 0.0
C3333 C 0.19674 0.2965 0.26328 0.0
C3334 C 0.18528 0.30078 0.26145 0.0
C3335 C 0.17842 0.30001 0.24582 0.0
H3336 H 0.23195 0.33971 0.44125 0.0
H3337 H 0.27366 0.38262 0.45968 0.0
H3338 H 0.21873 0.34126 0.46519 0.0
H3339 H 0.26033 0.38442 0.48359 0.0
H3340 H 0.23705 0.37143 0.53301 0.0
H3341 H 0.25064 0.37178 0.5085 0.0
H3342 H 0.20802 0.35549 0.47794 0.0
H3343 H 0.19443 0.35479 0.5025 0.0
C3344 C 0.2382 0.34965 0.45028 0.0
C3345 C 0.25382 0.36109 0.44856 0.0
C3346 C 0.23061 0.35056 0.46402 0.0
C3347 C 0.23843 0.36299 0.47634 0.0
C3348 C 0.25402 0.37457 0.47448 0.0
C3349 C 0.26165 0.37359 0.46076 0.0
C3350 C 0.23066 0.36805 0.52102 0.0
C3351 C 0.21467 0.36295 0.51965 0.0
C3352 C 0.23844 0.3683 0.50696 0.0
C3353 C 0.23041 0.36358 0.49122 0.0
C3354 C 0.21449 0.35889 0.48988 0.0
C3355 C 0.20671 0.35851 0.50393 0.0
H3356 H 0.62026 0.8836 0.42904 0.0
H3357 H 0.65268 0.92176 0.46394 0.0
H3358 H 0.61599 0.86489 0.44974 0.0
H3359 H 0.64788 0.90307 0.48468 0.0
H3360 H 0.62488 0.86548 0.52187 0.0
H3361 H 0.62588 0.88334 0.50132 0.0
H3362 H 0.63375 0.85625 0.46377 0.0
H3363 H 0.63277 0.83842 0.4843 0.0
C3364 C 0.62644 0.88804 0.4411 0.0
C3365 C 0.6369 0.90424 0.44473 0.0
C3366 C 0.62392 0.87731 0.45296 0.0
C3367 C 0.63162 0.88255 0.46878 0.0
C3368 C 0.64164 0.89873 0.47264 0.0
C3369 C 0.64433 0.90945 0.46073 0.0
C3370 C 0.62663 0.86326 0.50918 0.0
C3371 C 0.62879 0.85062 0.50464 0.0
C3372 C 0.62729 0.87351 0.49747 0.0
C3373 C 0.62989 0.87116 0.48099 0.0
C3374 C 0.6316 0.85825 0.47637 0.0
C3375 C 0.63117 0.84814 0.48811 0.0
H3376 H 0.11416 0.74556 0.40989 0.0
H3377 H 0.07708 0.7461 0.43551 0.0
H3378 H 0.13088 0.75527 0.43558 0.0
H3379 H 0.09353 0.75486 0.46114 0.0
H3380 H 0.12154 0.75165 0.50592 0.0
H3381 H 0.10666 0.74153 0.47915 0.0
H3382 H 0.14194 0.78203 0.4567 0.0
H3383 H 0.15677 0.79236 0.48366 0.0
C3384 C 0.10955 0.74777 0.42089 0.0
C3385 C 0.09415 0.7449 0.42056 0.0
C3386 C 0.11912 0.75323 0.43559 0.0
C3387 C 0.11338 0.75562 0.45027 0.0
C3388 C 0.0981 0.75284 0.44999 0.0
C3389 C 0.08865 0.74771 0.43529 0.0
C3390 C 0.12625 0.75823 0.4952 0.0
C3391 C 0.14029 0.77273 0.49677 0.0
C3392 C 0.1177 0.75251 0.47996 0.0
C3393 C 0.12319 0.76105 0.46597 0.0
C3394 C 0.13755 0.77523 0.46735 0.0
C3395 C 0.14597 0.78113 0.4827 0.0
H3396 H 0.29799 0.0493 0.76316 0.0
H3397 H 0.29984 0.08329 0.73012 0.0
H3398 H 0.29162 0.06197 0.78534 0.0
H3399 H 0.29391 0.09626 0.75263 0.0
H3400 H 0.31019 0.12587 0.8044 0.0
H3401 H 0.30993 0.11161 0.77892 0.0
H3402 H 0.2717 0.0688 0.79482 0.0
H3403 H 0.27202 0.08311 0.8204 0.0
C3404 C 0.29669 0.05924 0.76047 0.0
C3405 C 0.29956 0.06532 0.74483 0.0
C3406 C 0.29306 0.06653 0.77324 0.0
C3407 C 0.29234 0.08014 0.77072 0.0
C3408 C 0.29456 0.08587 0.75494 0.0
C3409 C 0.29804 0.07848 0.7421 0.0
C3410 C 0.30157 0.11347 0.8023 0.0
C3411 C 0.29119 0.10555 0.81436 0.0
C3412 C 0.30134 0.10534 0.78768 0.0
C3413 C 0.29083 0.08909 0.78494 0.0
C3414 C 0.27997 0.08131 0.79669 0.0
C3415 C 0.28009 0.0895 0.81124 0.0
H3416 H 0.93214 0.20818 0.77821 0.0
H3417 H 0.93684 0.24798 0.80766 0.0
H3418 H 0.91829 0.19096 0.79984 0.0
H3419 H 0.92233 0.23086 0.82888 0.0
H3420 H 0.90397 0.19921 0.86996 0.0
H3421 H 0.92173 0.21552 0.84991 0.0
H3422 H 0.89411 0.17926 0.81102 0.0
H3423 H 0.87703 0.16274 0.83135 0.0
C3424 C 0.93019 0.2132 0.78935 0.0
C3425 C 0.93557 0.22937 0.79134 0.0
C3426 C 0.92216 0.20335 0.80171 0.0
C3427 C 0.91907 0.20944 0.81617 0.0
C3428 C 0.92473 0.22572 0.81816 0.0
C3429 C 0.93299 0.23557 0.80595 0.0
C3430 C 0.9019 0.19474 0.85713 0.0
C3431 C 0.8892 0.17979 0.85213 0.0
C3432 C 0.91197 0.20409 0.84559 0.0
C3433 C 0.90933 0.19884 0.82873 0.0
C3434 C 0.89674 0.18367 0.82387 0.0
C3435 C 0.88687 0.1742 0.83548 0.0
H3436 H 0.78528 0.68176 0.74732 0.0
H3437 H 0.76527 0.70642 0.77201 0.0
H3438 H 0.8015 0.68573 0.77234 0.0
H3439 H 0.78077 0.70955 0.79729 0.0
H3440 H 0.81646 0.72105 0.83891 0.0
H3441 H 0.80602 0.72176 0.81151 0.0
H3442 H 0.7971 0.67485 0.79851 0.0
H3443 H 0.8083 0.67452 0.82549 0.0
C3444 C 0.78448 0.68822 0.75801 0.0
C3445 C 0.77388 0.69368 0.75767 0.0
C3446 C 0.79364 0.6903 0.77244 0.0
C3447 C 0.79234 0.69781 0.78692 0.0
C3448 C 0.7822 0.70383 0.78637 0.0
C3449 C 0.77313 0.70184 0.77191 0.0
C3450 C 0.81262 0.71105 0.83006 0.0
C3451 C 0.81309 0.69767 0.83445 0.0
C3452 C 0.80645 0.71137 0.81441 0.0
C3453 C 0.80057 0.6983 0.80283 0.0
C3454 C 0.80164 0.68519 0.80702 0.0
C3455 C 0.80787 0.6849 0.82261 0.0
H3456 H 0.75462 0.636 0.62109 0.0
H3457 H 0.72284 0.64323 0.59016 0.0
H3458 H 0.76624 0.6324 0.59669 0.0
H3459 H 0.7342 0.63926 0.56561 0.0
H3460 H 0.7724 0.65273 0.52896 0.0
H3461 H 0.75781 0.65304 0.55216 0.0
H3462 H 0.76269 0.61595 0.57269 0.0
H3463 H 0.77813 0.61634 0.55002 0.0
C3464 C 0.74991 0.63649 0.60902 0.0
C3465 C 0.73787 0.63995 0.60752 0.0
C3466 C 0.75654 0.63439 0.59501 0.0
C3467 C 0.7512 0.63558 0.57914 0.0
C3468 C 0.7388 0.63855 0.57764 0.0
C3469 C 0.73225 0.64078 0.59168 0.0
C3470 C 0.77042 0.64468 0.53845 0.0
C3471 C 0.77659 0.63463 0.53768 0.0
C3472 C 0.76185 0.64469 0.55166 0.0
C3473 C 0.75912 0.63457 0.56437 0.0
C3474 C 0.76477 0.62408 0.56326 0.0
C3475 C 0.77345 0.62415 0.55011 0.0
H3476 H 0.3688 0.08116 0.60049 0.0
H3477 H 0.36686 0.11225 0.63825 0.0
H3478 H 0.37225 0.09979 0.57988 0.0
H3479 H 0.3706 0.13095 0.61775 0.0
H3480 H 0.35351 0.14662 0.57262 0.0
H3481 H 0.35343 0.12996 0.59394 0.0
H3482 H 0.39079 0.12719 0.57172 0.0
H3483 H 0.39073 0.14379 0.55018 0.0
C3484 C 0.36929 0.09205 0.6044 0.0
C3485 C 0.3675 0.09522 0.62096 0.0
C3486 C 0.37139 0.10275 0.59265 0.0
C3487 C 0.37159 0.11676 0.59721 0.0
C3488 C 0.37033 0.12016 0.61386 0.0
C3489 C 0.36835 0.10953 0.62562 0.0
C3490 C 0.36168 0.14243 0.57228 0.0
C3491 C 0.37207 0.14641 0.55972 0.0
C3492 C 0.36175 0.13303 0.58457 0.0
C3493 C 0.37214 0.12732 0.58451 0.0
C3494 C 0.38261 0.13138 0.57201 0.0
C3495 C 0.38264 0.14094 0.55977 0.0
H3496 H 0.90114 0.2701 0.65027 0.0
H3497 H 0.91953 0.23937 0.64048 0.0
H3498 H 0.88433 0.25932 0.62478 0.0
H3499 H 0.90348 0.2293 0.61469 0.0
H3500 H 0.8644 0.2039 0.57599 0.0
H3501 H 0.87733 0.21321 0.60363 0.0
H3502 H 0.88609 0.25989 0.59537 0.0
H3503 H 0.87265 0.25032 0.56787 0.0
C3504 C 0.90156 0.26102 0.64273 0.0
C3505 C 0.91174 0.25565 0.64741 0.0
C3506 C 0.89205 0.25496 0.62802 0.0
C3507 C 0.89252 0.24343 0.61766 0.0
C3508 C 0.90261 0.23799 0.62245 0.0
C3509 C 0.91202 0.24396 0.63715 0.0
C3510 C 0.86896 0.2161 0.58019 0.0
C3511 C 0.86766 0.22643 0.5698 0.0
C3512 C 0.87645 0.22148 0.59597 0.0
C3513 C 0.88298 0.23737 0.60165 0.0
C3514 C 0.88109 0.24755 0.59147 0.0
C3515 C 0.87343 0.24211 0.57571 0.0
H3516 H 0.35337 0.27483 0.62545 0.0
H3517 H 0.37715 0.26245 0.66225 0.0
H3518 H 0.36022 0.26204 0.60388 0.0
H3519 H 0.38346 0.24905 0.64047 0.0
H3520 H 0.37042 0.21022 0.59581 0.0
H3521 H 0.36763 0.2248 0.61939 0.0
H3522 H 0.38495 0.26592 0.59149 0.0
H3523 H 0.38763 0.2514 0.56799 0.0
C3524 C 0.36024 0.26959 0.62898 0.0
C3525 C 0.36482 0.26986 0.64566 0.0
C3526 C 0.3641 0.26219 0.61658 0.0
C3527 C 0.37246 0.25467 0.62051 0.0
C3528 C 0.37695 0.25474 0.63713 0.0
C3529 C 0.37327 0.26235 0.64958 0.0
C3530 C 0.37384 0.22244 0.59486 0.0
C3531 C 0.37925 0.22969 0.5801 0.0
C3532 C 0.37233 0.23079 0.60834 0.0
C3533 C 0.37599 0.24644 0.60718 0.0
C3534 C 0.38195 0.25383 0.59265 0.0
C3535 C 0.38362 0.24557 0.57927 0.0
H3536 H 0.75136 0.12274 0.62229 0.0
H3537 H 0.73895 0.08299 0.58768 0.0
H3538 H 0.76692 0.14059 0.60186 0.0
H3539 H 0.75382 0.10079 0.56709 0.0
H3540 H 0.79712 0.13526 0.54254 0.0
H3541 H 0.78087 0.11799 0.56279 0.0
H3542 H 0.76518 0.15053 0.57534 0.0
H3543 H 0.78207 0.16823 0.55549 0.0
C3544 C 0.75188 0.11781 0.61031 0.0
C3545 C 0.74394 0.10143 0.60665 0.0
C3546 C 0.76064 0.12805 0.59854 0.0
C3547 C 0.76167 0.12211 0.58287 0.0
C3548 C 0.75346 0.10575 0.57912 0.0
C3549 C 0.74475 0.09554 0.59087 0.0
C3550 C 0.79035 0.13884 0.54974 0.0
C3551 C 0.79098 0.15318 0.54748 0.0
C3552 C 0.78085 0.12883 0.56119 0.0
C3553 C 0.77166 0.13284 0.57064 0.0
C3554 C 0.77222 0.14716 0.56835 0.0
C3555 C 0.78177 0.15721 0.55686 0.0
H3556 H 0.88587 0.66298 0.64366 0.0
H3557 H 0.88779 0.62063 0.63424 0.0
H3558 H 0.86884 0.65645 0.61861 0.0
H3559 H 0.87035 0.61375 0.60943 0.0
H3560 H 0.86057 0.62087 0.55545 0.0
H3561 H 0.8728 0.62304 0.58268 0.0
H3562 H 0.84413 0.63968 0.60405 0.0
H3563 H 0.83217 0.63784 0.57657 0.0
C3564 C 0.88232 0.65208 0.63642 0.0
C3565 C 0.88824 0.64239 0.64077 0.0
C3566 C 0.87251 0.64828 0.62208 0.0
C3567 C 0.86831 0.63462 0.61188 0.0
C3568 C 0.87362 0.62453 0.61678 0.0
C3569 C 0.88355 0.62842 0.63101 0.0
C3570 C 0.85663 0.62464 0.56602 0.0
C3571 C 0.84545 0.62922 0.5639 0.0
C3572 C 0.86363 0.62588 0.58167 0.0
C3573 C 0.85952 0.63162 0.59561 0.0
C3574 C 0.84778 0.6355 0.59356 0.0
C3575 C 0.84087 0.63438 0.57785 0.0
H3576 H 0.93281 0.68492 0.80006 0.0
H3577 H 0.91571 0.7114 0.77462 0.0
H3578 H 0.92046 0.68661 0.82464 0.0
H3579 H 0.90261 0.71238 0.79907 0.0
H3580 H 0.89107 0.72188 0.85068 0.0
H3581 H 0.90659 0.72316 0.82758 0.0
H3582 H 0.89424 0.67492 0.83282 0.0
H3583 H 0.87935 0.67388 0.85623 0.0
C3584 C 0.92657 0.69128 0.79975 0.0
C3585 C 0.9253 0.69807 0.78534 0.0
C3586 C 0.91929 0.69205 0.8138 0.0
C3587 C 0.91043 0.6995 0.81379 0.0
C3588 C 0.90945 0.70664 0.79954 0.0
C3589 C 0.91681 0.70593 0.78546 0.0
C3590 C 0.89189 0.71164 0.84704 0.0
C3591 C 0.88395 0.69776 0.85526 0.0
C3592 C 0.90063 0.71232 0.8337 0.0
C3593 C 0.90165 0.69914 0.82833 0.0
C3594 C 0.89388 0.68535 0.83674 0.0
C3595 C 0.88518 0.68469 0.85005 0.0
H3596 H 0.28716 0.22267 0.76087 0.0
H3597 H 0.32457 0.26022 0.79251 0.0
H3598 H 0.28458 0.20389 0.78081 0.0
H3599 H 0.3212 0.24176 0.81284 0.0
H3600 H 0.32527 0.20357 0.83653 0.0
H3601 H 0.32672 0.22153 0.81636 0.0
H3602 H 0.27654 0.19499 0.80751 0.0
H3603 H 0.27518 0.17628 0.82697 0.0
C3604 C 0.29475 0.22696 0.7721 0.0
C3605 C 0.30611 0.243 0.77499 0.0
C3606 C 0.29313 0.21621 0.78366 0.0
C3607 C 0.30276 0.22126 0.79841 0.0
C3608 C 0.31378 0.23736 0.80149 0.0
C3609 C 0.31552 0.24805 0.7899 0.0
C3610 C 0.31454 0.20136 0.8301 0.0
C3611 C 0.30012 0.18838 0.83334 0.0
C3612 C 0.31535 0.21186 0.8187 0.0
C3613 C 0.30173 0.20983 0.81037 0.0
C3614 C 0.28728 0.19686 0.81359 0.0
C3615 C 0.28648 0.18623 0.82491 0.0
H3616 H 0.78439 0.07873 0.73448 0.0
H3617 H 0.7437 0.06837 0.76069 0.0
H3618 H 0.80102 0.09204 0.75983 0.0
H3619 H 0.76013 0.08111 0.78593 0.0
H3620 H 0.79336 0.11901 0.82345 0.0
H3621 H 0.77912 0.10767 0.79681 0.0
H3622 H 0.80694 0.08616 0.78782 0.0
H3623 H 0.82177 0.09814 0.81436 0.0
C3624 C 0.77901 0.07926 0.74564 0.0
C3625 C 0.76273 0.07244 0.7456 0.0
C3626 C 0.78851 0.08676 0.76016 0.0
C3627 C 0.78189 0.0877 0.77485 0.0
C3628 C 0.76562 0.08079 0.77477 0.0
C3629 C 0.75617 0.07329 0.76034 0.0
C3630 C 0.79673 0.11218 0.81567 0.0
C3631 C 0.80874 0.10951 0.82106 0.0
C3632 C 0.7884 0.10548 0.80048 0.0
C3633 C 0.79177 0.09586 0.7903 0.0
C3634 C 0.8041 0.09357 0.79537 0.0
C3635 C 0.81249 0.1003 0.81063 0.0
H3636 H 0.04881 0.32215 0.06189 0.0
H3637 H 0.08535 0.37074 0.071 0.0
H3638 H 0.06387 0.31409 0.07893 0.0
H3639 H 0.10046 0.36267 0.08803 0.0
H3640 H 0.11645 0.3441 0.13031 0.0
H3641 H 0.10025 0.35158 0.1143 0.0
H3642 H 0.08751 0.3127 0.07835 0.0
H3643 H 0.10364 0.30521 0.09439 0.0
C3644 C 0.06014 0.3311 0.06739 0.0
C3645 C 0.06592 0.34709 0.06502 0.0
C3646 C 0.06876 0.32648 0.07718 0.0
C3647 C 0.08337 0.33773 0.08484 0.0
C3648 C 0.08914 0.35373 0.08251 0.0
C3649 C 0.0805 0.35836 0.07273 0.0
C3650 C 0.11016 0.33715 0.119 0.0
C3651 C 0.11132 0.32407 0.11361 0.0
C3652 C 0.10093 0.34146 0.1098 0.0
C3653 C 0.09266 0.33279 0.095 0.0
C3654 C 0.09357 0.31951 0.0898 0.0
C3655 C 0.10279 0.3152 0.09901 0.0
H3656 H 0.63639 0.70772 0.09681 0.0
H3657 H 0.6794 0.71079 0.11479 0.0
H3658 H 0.64548 0.734 0.10951 0.0
H3659 H 0.68862 0.73732 0.12697 0.0
H3660 H 0.70452 0.79092 0.12695 0.0
H3661 H 0.69589 0.76407 0.11619 0.0
H3662 H 0.6522 0.74752 0.13866 0.0
H3663 H 0.66092 0.77419 0.1499 0.0
C3664 C 0.64771 0.7139 0.10358 0.0
C3665 C 0.65714 0.70708 0.10475 0.0
C3666 C 0.65292 0.72899 0.11079 0.0
C3667 C 0.66775 0.73766 0.11919 0.0
C3668 C 0.67721 0.73093 0.12039 0.0
C3669 C 0.67193 0.71576 0.11335 0.0
C3670 C 0.69319 0.78153 0.12987 0.0
C3671 C 0.68338 0.78476 0.1392 0.0
C3672 C 0.68824 0.76618 0.12365 0.0
C3673 C 0.67334 0.75378 0.12651 0.0
C3674 C 0.66365 0.75692 0.13607 0.0
C3675 C 0.66864 0.77221 0.14244 0.0
H3676 H 0.2789 0.92633 0.0313 0.0
H3677 H 0.30802 0.9428 0.07695 0.0
H3678 H 0.25564 0.91456 0.04703 0.0
H3679 H 0.28489 0.93075 0.09257 0.0
H3680 H 0.24127 0.92528 0.11459 0.0
H3681 H 0.26363 0.9362 0.09771 0.0
H3682 H 0.24172 0.89316 0.06606 0.0
H3683 H 0.21913 0.88235 0.08278 0.0
C3684 C 0.28032 0.9273 0.04467 0.0
C3685 C 0.29528 0.93547 0.05289 0.0
C3686 C 0.26703 0.9205 0.05365 0.0
C3687 C 0.26847 0.92186 0.07102 0.0
C3688 C 0.28343 0.9297 0.0792 0.0
C3689 C 0.29668 0.93641 0.07024 0.0
C3690 C 0.24112 0.91825 0.10389 0.0
C3691 C 0.22847 0.90297 0.1 0.0
C3692 C 0.254 0.92442 0.09434 0.0
C3693 C 0.25447 0.91547 0.08067 0.0
C3694 C 0.24164 0.90034 0.0765 0.0
C3695 C 0.22878 0.89412 0.08612 0.0
H3696 H 0.36878 0.07533 0.00218 0.0
H3697 H 0.32531 0.03412 0.98374 0.0
H3698 H 0.35997 0.09207 0.99031 0.0
H3699 H 0.31641 0.05091 0.97252 0.0
H3700 H 0.30093 0.08731 0.96725 0.0
H3701 H 0.30966 0.07183 0.98214 0.0
H3702 H 0.35397 0.09599 0.96041 0.0
H3703 H 0.34517 0.111 0.94505 0.0
C3704 C 0.35736 0.06982 0.99566 0.0
C3705 C 0.34779 0.05334 0.99392 0.0
C3706 C 0.3523 0.07942 0.98896 0.0
C3707 C 0.3375 0.07276 0.98057 0.0
C3708 C 0.32778 0.05635 0.97916 0.0
C3709 C 0.3329 0.04674 0.98565 0.0
C3710 C 0.3125 0.08929 0.96558 0.0
C3711 C 0.32232 0.10043 0.95492 0.0
C3712 C 0.31751 0.08048 0.97417 0.0
C3713 C 0.3325 0.08278 0.97245 0.0
C3714 C 0.34245 0.09416 0.96216 0.0
C3715 C 0.33739 0.10281 0.95341 0.0
H3716 H 0.96722 0.27612 0.97513 0.0
H3717 H 0.92892 0.28346 0.98506 0.0
H3718 H 0.94876 0.24955 0.96332 0.0
H3719 H 0.91057 0.25726 0.97258 0.0
H3720 H 0.88056 0.20464 0.96489 0.0
H3721 H 0.90009 0.23015 0.97809 0.0
H3722 H 0.93069 0.23597 0.93928 0.0
H3723 H 0.91114 0.21021 0.92623 0.0
C3724 C 0.95487 0.27206 0.97483 0.0
C3725 C 0.94954 0.2819 0.98109 0.0
C3726 C 0.94431 0.2569 0.96788 0.0
C3727 C 0.92819 0.25126 0.96704 0.0
C3728 C 0.92289 0.26114 0.97325 0.0
C3729 C 0.93343 0.27625 0.98022 0.0
C3730 C 0.89148 0.21137 0.95922 0.0
C3731 C 0.8943 0.20555 0.94446 0.0
C3732 C 0.90265 0.226 0.96674 0.0
C3733 C 0.91687 0.2352 0.95963 0.0
C3734 C 0.9199 0.22913 0.94514 0.0
C3735 C 0.90873 0.21441 0.93765 0.0
H3736 H 0.70251 0.62162 0.01691 0.0
H3737 H 0.71417 0.66991 0.02589 0.0
H3738 H 0.72551 0.6302 0.00119 0.0
H3739 H 0.73697 0.67851 0.00995 0.0
H3740 H 0.78428 0.68983 0.99243 0.0
H3741 H 0.76228 0.68115 0.00978 0.0
H3742 H 0.73447 0.64079 0.97523 0.0
H3743 H 0.75651 0.64933 0.95815 0.0
C3744 C 0.70998 0.63406 0.01547 0.0
C3745 C 0.70656 0.64509 0.02263 0.0
C3746 C 0.72312 0.63899 0.00643 0.0
C3747 C 0.73306 0.65505 0.00424 0.0
C3748 C 0.72972 0.66608 0.0116 0.0
C3749 C 0.71664 0.66116 0.02073 0.0
C3750 C 0.77343 0.67914 0.98857 0.0
C3751 C 0.77211 0.67022 0.97399 0.0
C3752 C 0.76082 0.67417 0.99847 0.0
C3753 C 0.74661 0.66023 0.99394 0.0
C3754 C 0.74532 0.65139 0.97929 0.0
C3755 C 0.75794 0.6563 0.96946 0.0
H3756 H 0.94346 0.67777 0.01943 0.0
H3757 H 0.93291 0.64074 0.98182 0.0
H3758 H 0.92881 0.68641 0.0027 0.0
H3759 H 0.91735 0.6487 0.9656 0.0
H3760 H 0.90354 0.6763 0.93253 0.0
H3761 H 0.9195 0.66878 0.94898 0.0
H3762 H 0.90313 0.67925 0.99364 0.0
H3763 H 0.88766 0.6872 0.97719 0.0
C3764 C 0.93798 0.67142 0.00762 0.0
C3765 C 0.93943 0.65857 0.002 0.0
C3766 C 0.92938 0.67626 0.99809 0.0
C3767 C 0.92186 0.66827 0.98276 0.0
C3768 C 0.92316 0.65529 0.97722 0.0
C3769 C 0.93188 0.65055 0.98668 0.0
C3770 C 0.90348 0.67706 0.94587 0.0
C3771 C 0.89451 0.68245 0.9536 0.0
C3772 C 0.91252 0.67266 0.95531 0.0
C3773 C 0.91261 0.67336 0.97267 0.0
C3774 C 0.90362 0.67883 0.98035 0.0
C3775 C 0.89474 0.68339 0.97093 0.0
H3776 H 0.36988 0.30004 0.95332 0.0
H3777 H 0.32221 0.28655 0.96162 0.0
H3778 H 0.36085 0.27451 0.93892 0.0
H3779 H 0.31331 0.26061 0.94839 0.0
H3780 H 0.30028 0.21932 0.91143 0.0
H3781 H 0.3094 0.24604 0.92313 0.0
H3782 H 0.35092 0.2482 0.94475 0.0
H3783 H 0.34204 0.22187 0.93247 0.0
C3784 C 0.35747 0.29166 0.95207 0.0
C3785 C 0.3468 0.29538 0.95875 0.0
C3786 C 0.3523 0.2769 0.94401 0.0
C3787 C 0.33634 0.26538 0.9426 0.0
C3788 C 0.32566 0.26919 0.94908 0.0
C3789 C 0.33081 0.28402 0.95694 0.0
C3790 C 0.31137 0.22561 0.91865 0.0
C3791 C 0.32052 0.21864 0.92098 0.0
C3792 C 0.31658 0.24086 0.92542 0.0
C3793 C 0.33094 0.24935 0.93488 0.0
C3794 C 0.34 0.24223 0.93724 0.0
C3795 C 0.33489 0.2271 0.93028 0.0
H3796 H 0.71937 0.05941 0.02752 0.0
H3797 H 0.69276 0.07047 0.99299 0.0
H3798 H 0.74148 0.07126 0.01042 0.0
H3799 H 0.71515 0.08314 0.97644 0.0
H3800 H 0.74921 0.08449 0.93983 0.0
H3801 H 0.72802 0.07445 0.9582 0.0
H3802 H 0.76154 0.09514 0.00045 0.0
H3803 H 0.78277 0.1049 0.98196 0.0
C3804 C 0.71829 0.06454 0.01639 0.0
C3805 C 0.7042 0.06381 0.01154 0.0
C3806 C 0.73104 0.07149 0.00668 0.0
C3807 C 0.73004 0.07798 0.99194 0.0
C3808 C 0.71622 0.07795 0.98753 0.0
C3809 C 0.70344 0.07091 0.99718 0.0
C3810 C 0.75203 0.08691 0.95304 0.0
C3811 C 0.76762 0.09546 0.95948 0.0
C3812 C 0.73989 0.08125 0.96358 0.0
C3813 C 0.74306 0.08412 0.98082 0.0
C3814 C 0.75869 0.09258 0.98725 0.0
C3815 C 0.77085 0.09816 0.97669 0.0
H3816 H 0.67138 0.95673 0.06021 0.0
H3817 H 0.63203 0.93733 0.09052 0.0
H3818 H 0.68157 0.94192 0.07401 0.0
H3819 H 0.64198 0.92223 0.10393 0.0
H3820 H 0.67517 0.91638 0.13917 0.0
H3821 H 0.66474 0.92986 0.12346 0.0
H3822 H 0.67609 0.91462 0.0781 0.0
H3823 H 0.68647 0.90092 0.09389 0.0
C3824 C 0.66484 0.94919 0.0697 0.0
C3825 C 0.65096 0.94827 0.07437 0.0
C3826 C 0.67061 0.94062 0.07749 0.0
C3827 C 0.66265 0.93106 0.09015 0.0
C3828 C 0.64848 0.92969 0.09438 0.0
C3829 C 0.64269 0.9382 0.08656 0.0
C3830 C 0.67535 0.91579 0.12583 0.0
C3831 C 0.68149 0.90744 0.11775 0.0
C3832 C 0.66935 0.9235 0.11684 0.0
C3833 C 0.6694 0.9231 0.09954 0.0
C3834 C 0.67594 0.91514 0.09143 0.0
C3835 C 0.68192 0.90735 0.10047 0.0
H3836 H 0.0571 0.71396 0.10918 0.0
H3837 H 0.05143 0.7357 0.06643 0.0
H3838 H 0.07366 0.73974 0.12334 0.0
H3839 H 0.06682 0.76139 0.08117 0.0
H3840 H 0.10997 0.80564 0.10443 0.0
H3841 H 0.09236 0.78006 0.09009 0.0
H3842 H 0.07427 0.76147 0.13666 0.0
H3843 H 0.09259 0.78699 0.15099 0.0
C3844 C 0.05934 0.72421 0.10277 0.0
C3845 C 0.05297 0.72266 0.08656 0.0
C3846 C 0.06863 0.73905 0.11106 0.0
C3847 C 0.0716 0.75275 0.10348 0.0
C3848 C 0.06502 0.75118 0.08736 0.0
C3849 C 0.05595 0.73636 0.07897 0.0
C3850 C 0.10205 0.7961 0.11151 0.0
C3851 C 0.10255 0.79822 0.12876 0.0
C3852 C 0.09191 0.78142 0.10332 0.0
C3853 C 0.08184 0.76859 0.11217 0.0
C3854 C 0.08205 0.77094 0.12944 0.0
C3855 C 0.09242 0.78557 0.13767 0.0
H3856 H 0.2768 0.33256 0.02583 0.0
H3857 H 0.30484 0.37245 0.0608 0.0
H3858 H 0.2549 0.32368 0.0433 0.0
H3859 H 0.28281 0.36389 0.07793 0.0
H3860 H 0.24804 0.33289 0.11406 0.0
H3861 H 0.26913 0.34216 0.09555 0.0
H3862 H 0.236 0.33047 0.05376 0.0
H3863 H 0.21485 0.32119 0.07232 0.0
C3864 C 0.27824 0.3395 0.03716 0.0
C3865 C 0.29258 0.35317 0.04197 0.0
C3866 C 0.26566 0.33449 0.0471 0.0
C3867 C 0.26718 0.34302 0.06206 0.0
C3868 C 0.28136 0.35694 0.06659 0.0
C3869 C 0.29392 0.36196 0.05666 0.0
C3870 C 0.24526 0.33238 0.10093 0.0
C3871 C 0.22979 0.32636 0.09465 0.0
C3872 C 0.25735 0.33773 0.09033 0.0
C3873 C 0.25424 0.33717 0.07321 0.0
C3874 C 0.23874 0.33092 0.06689 0.0
C3875 C 0.22663 0.32558 0.07751 0.0
H3876 H 0.74679 0.70663 0.40864 0.0
H3877 H 0.71182 0.65747 0.3995 0.0
H3878 H 0.76344 0.69945 0.42429 0.0
H3879 H 0.72862 0.65028 0.41478 0.0
H3880 H 0.75682 0.64477 0.45753 0.0
H3881 H 0.73963 0.65215 0.44327 0.0
H3882 H 0.77849 0.68643 0.41801 0.0
H3883 H 0.79559 0.67898 0.43204 0.0
C3884 C 0.74264 0.69431 0.41004 0.0
C3885 C 0.72804 0.68261 0.40279 0.0
C3886 C 0.75222 0.69019 0.41887 0.0
C3887 C 0.74735 0.6743 0.42071 0.0
C3888 C 0.73264 0.66262 0.41368 0.0
C3889 C 0.7231 0.66673 0.40478 0.0
C3890 C 0.76166 0.65381 0.44885 0.0
C3891 C 0.77759 0.66134 0.44598 0.0
C3892 C 0.75183 0.65804 0.44071 0.0
C3893 C 0.75774 0.66991 0.42958 0.0
C3894 C 0.77366 0.67744 0.42674 0.0
C3895 C 0.78345 0.67317 0.4348 0.0
H3896 H 0.3454 0.04315 0.44638 0.0
H3897 H 0.30201 0.03913 0.42831 0.0
H3898 H 0.35476 0.07006 0.4571 0.0
H3899 H 0.31093 0.06561 0.44001 0.0
H3900 H 0.33696 0.11861 0.44663 0.0
H3901 H 0.32876 0.09209 0.43539 0.0
H3902 H 0.35144 0.08541 0.4782 0.0
H3903 H 0.36006 0.11225 0.48912 0.0
C3904 C 0.33783 0.04798 0.4447 0.0
C3905 C 0.32296 0.03895 0.43638 0.0
C3906 C 0.34313 0.06336 0.45107 0.0
C3907 C 0.33364 0.07006 0.4494 0.0
C3908 C 0.31868 0.06095 0.4413 0.0
C3909 C 0.31345 0.04563 0.4348 0.0
C3910 C 0.34018 0.11145 0.4536 0.0
C3911 C 0.34906 0.11741 0.46876 0.0
C3912 C 0.33543 0.09622 0.44723 0.0
C3913 C 0.33928 0.08651 0.45596 0.0
C3914 C 0.3484 0.0926 0.47104 0.0
C3915 C 0.35331 0.10794 0.47733 0.0
H3916 H 0.98062 0.28024 0.41096 0.0
H3917 H 0.95358 0.26673 0.36403 0.0
H3918 H 0.95673 0.2666 0.42512 0.0
H3919 H 0.92957 0.25311 0.37831 0.0
H3920 H 0.8906 0.24602 0.41273 0.0
H3921 H 0.91415 0.25921 0.39757 0.0
H3922 H 0.93577 0.23965 0.42799 0.0
H3923 H 0.91257 0.22695 0.4434 0.0
C3924 C 0.96958 0.27416 0.40363 0.0
C3925 C 0.96902 0.27446 0.38634 0.0
C3926 C 0.95589 0.26639 0.41177 0.0
C3927 C 0.94128 0.25874 0.40282 0.0
C3928 C 0.94066 0.25905 0.38554 0.0
C3929 C 0.9544 0.26682 0.37737 0.0
C3930 C 0.90043 0.24462 0.41618 0.0
C3931 C 0.89973 0.23543 0.42921 0.0
C3932 C 0.91383 0.25203 0.40742 0.0
C3933 C 0.9268 0.25047 0.41161 0.0
C3934 C 0.92603 0.2412 0.42457 0.0
C3935 C 0.91266 0.23378 0.43327 0.0
H3936 H 0.05381 0.41495 0.33713 0.0
H3937 H 0.00883 0.37739 0.31656 0.0
H3938 H 0.04779 0.43425 0.32661 0.0
H3939 H 0.00274 0.39668 0.30659 0.0
H3940 H 0.99168 0.43591 0.30325 0.0
H3941 H 0.9982 0.41844 0.31742 0.0
H3942 H 0.04359 0.44124 0.29782 0.0
H3943 H 0.03701 0.45839 0.28328 0.0
C3944 C 0.04265 0.41079 0.33041 0.0
C3945 C 0.03181 0.39459 0.32771 0.0
C3946 C 0.0392 0.42185 0.32447 0.0
C3947 C 0.02478 0.41694 0.31588 0.0
C3948 C 0.01384 0.4008 0.31344 0.0
C3949 C 0.01734 0.38975 0.3192 0.0
C3950 C 0.00305 0.43721 0.30196 0.0
C3951 C 0.01377 0.4485 0.29203 0.0
C3952 C 0.00679 0.42725 0.31012 0.0
C3953 C 0.02137 0.42848 0.30865 0.0
C3954 C 0.03233 0.44017 0.29931 0.0
C3955 C 0.02855 0.45002 0.29102 0.0
H3956 H 0.63004 0.61515 0.30324 0.0
H3957 H 0.59354 0.62561 0.31198 0.0
H3958 H 0.61058 0.58895 0.29145 0.0
H3959 H 0.57421 0.59976 0.29943 0.0
H3960 H 0.54246 0.54674 0.29495 0.0
H3961 H 0.56244 0.57288 0.30624 0.0
H3962 H 0.59223 0.575 0.26789 0.0
H3963 H 0.57223 0.54864 0.25676 0.0
C3964 C 0.61787 0.61189 0.30258 0.0
C3965 C 0.61334 0.62245 0.30865 0.0
C3966 C 0.60674 0.59694 0.29564 0.0
C3967 C 0.59083 0.59222 0.29458 0.0
C3968 C 0.58635 0.60292 0.3003 0.0
C3969 C 0.59746 0.61784 0.30729 0.0
C3970 C 0.55326 0.55283 0.28891 0.0
C3971 C 0.55577 0.54572 0.27493 0.0
C3972 C 0.56469 0.56782 0.29533 0.0
C3973 C 0.57888 0.57611 0.28787 0.0
C3974 C 0.58149 0.56888 0.27402 0.0
C3975 C 0.57005 0.5538 0.26764 0.0
H3976 H 0.37881 0.99456 0.3586 0.0
H3977 H 0.36524 0.94542 0.35504 0.0
H3978 H 0.40144 0.00071 0.34307 0.0
H3979 H 0.38771 0.95155 0.3391 0.0
H3980 H 0.4382 0.97148 0.32465 0.0
H3981 H 0.41674 0.96577 0.34204 0.0
H3982 H 0.40568 0.99562 0.31425 0.0
H3983 H 0.42693 0.00117 0.29676 0.0
C3984 C 0.38075 0.98509 0.35464 0.0
C3985 C 0.37025 0.9695 0.35806 0.0
C3986 C 0.39362 0.9886 0.34559 0.0
C3987 C 0.39631 0.97661 0.33981 0.0
C3988 C 0.386 0.96105 0.3435 0.0
C3989 C 0.37306 0.95752 0.35249 0.0
C3990 C 0.43114 0.97676 0.3222 0.0
C3991 C 0.4343 0.98681 0.30933 0.0
C3992 C 0.41886 0.97349 0.33217 0.0
C3993 C 0.40956 0.98027 0.32952 0.0
C3994 C 0.41281 0.99042 0.31676 0.0
C3995 C 0.42501 0.99363 0.30676 0.0
H3996 H 0.59712 0.95515 0.31335 0.0
H3997 H 0.6132 0.99832 0.3437 0.0
H3998 H 0.57923 0.96045 0.29733 0.0
H3999 H 0.59591 0.00396 0.32724 0.0
H4000 H 0.55085 0.00021 0.30678 0.0
H4001 H 0.56857 0.99465 0.32254 0.0
H4002 H 0.57908 0.97806 0.27744 0.0
H4003 H 0.56111 0.98349 0.26165 0.0
C4004 C 0.59682 0.96575 0.31662 0.0
C4005 C 0.60659 0.9763 0.32982 0.0
C4006 C 0.58672 0.96889 0.3073 0.0
C4007 C 0.58615 0.98264 0.31098 0.0
C4008 C 0.59592 0.99318 0.32418 0.0
C4009 C 0.60598 0.99003 0.3335 0.0
C4010 C 0.5571 0.99557 0.3002 0.0
C4011 C 0.55471 0.99243 0.28296 0.0
C4012 C 0.56725 0.99236 0.30923 0.0
C4013 C 0.57531 0.98597 0.30125 0.0
C4014 C 0.57291 0.9828 0.28399 0.0
C4015 C 0.56268 0.98597 0.27494 0.0
H4016 H 0.028 0.62992 0.321 0.0
H4017 H 0.02062 0.64559 0.27453 0.0
H4018 H 0.02085 0.60448 0.30733 0.0
H4019 H 0.01289 0.61993 0.26084 0.0
H4020 H 0.01547 0.5778 0.23899 0.0
H4021 H 0.02248 0.60339 0.25203 0.0
H4022 H 0.99915 0.58115 0.29521 0.0
H4023 H 0.99315 0.55576 0.28269 0.0
C4024 C 0.02472 0.62783 0.30786 0.0
C4025 C 0.02487 0.63968 0.2988 0.0
C4026 C 0.02052 0.61323 0.30002 0.0
C4027 C 0.01616 0.61006 0.28298 0.0
C4028 C 0.01638 0.622 0.27392 0.0
C4029 C 0.02078 0.63669 0.28175 0.0
C4030 C 0.01194 0.57838 0.25132 0.0
C4031 C 0.00382 0.56469 0.2598 0.0
C4032 C 0.01579 0.59306 0.25873 0.0
C4033 C 0.01148 0.59439 0.27474 0.0
C4034 C 0.00293 0.58063 0.283 0.0
C4035 C 0.99923 0.56599 0.27567 0.0
H4036 H 0.37732 0.38746 0.35661 0.0
H4037 H 0.35247 0.40334 0.32566 0.0
H4038 H 0.40024 0.40147 0.34092 0.0
H4039 H 0.37559 0.41785 0.31036 0.0
H4040 H 0.41111 0.42219 0.27348 0.0
H4041 H 0.38908 0.41042 0.29069 0.0
H4042 H 0.4208 0.42753 0.33445 0.0
H4043 H 0.44291 0.43934 0.31717 0.0
C4044 C 0.37681 0.39407 0.34655 0.0
C4045 C 0.36304 0.39417 0.34226 0.0
C4046 C 0.39 0.40223 0.33767 0.0
C4047 C 0.38969 0.41066 0.32431 0.0
C4048 C 0.37611 0.41126 0.32044 0.0
C4049 C 0.36293 0.40311 0.32933 0.0
C4050 C 0.41338 0.42357 0.28678 0.0
C4051 C 0.42874 0.43171 0.29397 0.0
C4052 C 0.40076 0.41686 0.29665 0.0
C4053 C 0.40319 0.41814 0.31395 0.0
C4054 C 0.41856 0.42623 0.32116 0.0
C4055 C 0.43121 0.43295 0.31127 0.0
H4056 H 0.3186 0.27519 0.38964 0.0
H4057 H 0.31634 0.29113 0.43927 0.0
H4058 H 0.33004 0.26023 0.4007 0.0
H4059 H 0.32793 0.27634 0.4503 0.0
H4060 H 0.36477 0.26212 0.46141 0.0
H4061 H 0.35492 0.27774 0.44857 0.0
H4062 H 0.31993 0.23626 0.41935 0.0
H4063 H 0.32966 0.22061 0.43234 0.0
C4064 C 0.32059 0.27549 0.40289 0.0
C4065 C 0.31657 0.28423 0.41364 0.0
C4066 C 0.32708 0.26694 0.40919 0.0
C4067 C 0.32992 0.26725 0.42631 0.0
C4068 C 0.32597 0.27606 0.43704 0.0
C4069 C 0.31924 0.28437 0.43076 0.0
C4070 C 0.35514 0.25644 0.45205 0.0
C4071 C 0.34794 0.24022 0.44781 0.0
C4072 C 0.34945 0.26531 0.44483 0.0
C4073 C 0.33665 0.25814 0.43307 0.0
C4074 C 0.32986 0.24204 0.42835 0.0
C4075 C 0.33537 0.23312 0.43578 0.0
H4076 H 0.74148 0.04987 0.40716 0.0
H4077 H 0.70485 0.04766 0.4357 0.0
H4078 H 0.7594 0.07628 0.41952 0.0
H4079 H 0.72291 0.07393 0.44865 0.0
H4080 H 0.75596 0.12708 0.45769 0.0
H4081 H 0.73736 0.10124 0.44432 0.0
H4082 H 0.77345 0.08906 0.44473 0.0
H4083 H 0.79217 0.11511 0.45687 0.0
C4084 C 0.73734 0.05502 0.41622 0.0
C4085 C 0.72184 0.04673 0.42056 0.0
C4086 C 0.7476 0.07013 0.42338 0.0
C4087 C 0.74267 0.07722 0.43524 0.0
C4088 C 0.72707 0.06894 0.43943 0.0
C4089 C 0.71673 0.05388 0.43208 0.0
C4090 C 0.75995 0.11894 0.45475 0.0
C4091 C 0.77558 0.12322 0.45842 0.0
C4092 C 0.74923 0.10404 0.44727 0.0
C4093 C 0.75389 0.09304 0.44338 0.0
C4094 C 0.76947 0.09728 0.44726 0.0
C4095 C 0.78018 0.11218 0.45454 0.0
H4096 H 0.97159 0.70769 0.39826 0.0
H4097 H 0.94551 0.66879 0.36162 0.0
H4098 H 0.94892 0.69776 0.41459 0.0
H4099 H 0.92292 0.65855 0.37828 0.0
H4100 H 0.88137 0.65519 0.40576 0.0
H4101 H 0.90327 0.66476 0.38816 0.0
H4102 H 0.93478 0.67513 0.43114 0.0
H4103 H 0.91294 0.66553 0.44869 0.0
C4104 C 0.96096 0.69711 0.3936 0.0
C4105 C 0.96034 0.68903 0.37864 0.0
C4106 C 0.94804 0.6913 0.40307 0.0
C4107 C 0.93419 0.67729 0.3978 0.0
C4108 C 0.93342 0.66941 0.38263 0.0
C4109 C 0.94638 0.6752 0.37317 0.0
C4110 C 0.89295 0.65931 0.4114 0.0
C4111 C 0.89545 0.65969 0.42862 0.0
C4112 C 0.90548 0.66482 0.40134 0.0
C4113 C 0.92075 0.67084 0.40829 0.0
C4114 C 0.92318 0.67087 0.42546 0.0
C4115 C 0.91068 0.66535 0.4355 0.0
H4116 H 0.38273 0.01649 0.75822 0.0
H4117 H 0.4167 0.03728 0.72184 0.0
H4118 H 0.40135 0.01323 0.77529 0.0
H4119 H 0.43483 0.03286 0.73825 0.0
H4120 H 0.46986 0.03667 0.77725 0.0
H4121 H 0.4514 0.04168 0.7624 0.0
H4122 H 0.41332 0.99793 0.7769 0.0
H4123 H 0.43176 0.99354 0.79291 0.0
C4124 C 0.39417 0.0204 0.75385 0.0
C4125 C 0.39818 0.02719 0.73862 0.0
C4126 C 0.40478 0.01829 0.76354 0.0
C4127 C 0.41962 0.02273 0.75818 0.0
C4128 C 0.42362 0.0295 0.74295 0.0
C4129 C 0.41309 0.03181 0.73336 0.0
C4130 C 0.45754 0.02828 0.77763 0.0
C4131 C 0.45234 0.01471 0.78637 0.0
C4132 C 0.44693 0.03102 0.76883 0.0
C4133 C 0.43084 0.02016 0.76828 0.0
C4134 C 0.42561 0.00666 0.77716 0.0
C4135 C 0.43622 0.00402 0.78617 0.0
H4136 H 0.99659 0.37752 0.75377 0.0
H4137 H 0.95792 0.35339 0.78432 0.0
H4138 H 0.0031 0.40263 0.76786 0.0
H4139 H 0.9647 0.37854 0.79874 0.0
H4140 H 0.97113 0.42846 0.80511 0.0
H4141 H 0.96454 0.40281 0.79249 0.0
H4142 H 0.01333 0.41687 0.79539 0.0
H4143 H 0.01996 0.44252 0.80821 0.0
C4144 C 0.98944 0.3776 0.76346 0.0
C4145 C 0.97669 0.36351 0.76788 0.0
C4146 C 0.99329 0.39195 0.77167 0.0
C4147 C 0.98445 0.39254 0.78444 0.0
C4148 C 0.97167 0.37845 0.78886 0.0
C4149 C 0.96786 0.36406 0.7807 0.0
C4150 C 0.98044 0.426 0.80333 0.0
C4151 C 0.99608 0.43754 0.80767 0.0
C4152 C 0.97665 0.41131 0.79607 0.0
C4153 C 0.98842 0.40785 0.79291 0.0
C4154 C 0.00404 0.41929 0.79746 0.0
C4155 C 0.00782 0.43397 0.80479 0.0
H4156 H 0.65116 0.60893 0.74789 0.0
H4157 H 0.62237 0.59551 0.70217 0.0
H4158 H 0.62791 0.59559 0.76314 0.0
H4159 H 0.59902 0.58205 0.71746 0.0
H4160 H 0.56184 0.57715 0.75278 0.0
H4161 H 0.58483 0.589 0.73676 0.0
H4162 H 0.60646 0.56981 0.76775 0.0
H4163 H 0.58383 0.55856 0.78414 0.0
C4164 C 0.63987 0.60286 0.74106 0.0
C4165 C 0.63861 0.60326 0.72382 0.0
C4166 C 0.62653 0.59523 0.7498 0.0
C4167 C 0.61161 0.5878 0.74152 0.0
C4168 C 0.61034 0.58789 0.72423 0.0
C4169 C 0.62371 0.59555 0.71547 0.0
C4170 C 0.57156 0.57556 0.75622 0.0
C4171 C 0.57101 0.56691 0.76971 0.0
C4172 C 0.58464 0.58218 0.74693 0.0
C4173 C 0.59746 0.58032 0.75097 0.0
C4174 C 0.59685 0.57158 0.76441 0.0
C4175 C 0.5838 0.56499 0.77368 0.0
H4176 H 0.65787 0.69532 0.65184 0.0
H4177 H 0.7003 0.73878 0.66762 0.0
H4178 H 0.64631 0.71012 0.64162 0.0
H4179 H 0.68912 0.75359 0.6562 0.0
H4180 H 0.66112 0.77702 0.64521 0.0
H4181 H 0.67042 0.76152 0.65912 0.0
H4182 H 0.64833 0.7251 0.61918 0.0
H4183 H 0.63867 0.74036 0.60574 0.0
C4184 C 0.66474 0.70804 0.65324 0.0
C4185 C 0.68006 0.71583 0.66059 0.0
C4186 C 0.65816 0.71655 0.64712 0.0
C4187 C 0.6668 0.73307 0.64794 0.0
C4188 C 0.68204 0.74088 0.65551 0.0
C4189 C 0.68856 0.73237 0.66183 0.0
C4190 C 0.65814 0.76561 0.63957 0.0
C4191 C 0.64912 0.75982 0.62448 0.0
C4192 C 0.66354 0.75677 0.64745 0.0
C4193 C 0.66019 0.74206 0.64026 0.0
C4194 C 0.65091 0.73621 0.62528 0.0
C4195 C 0.64537 0.74496 0.61753 0.0
H4196 H 0.29913 0.94773 0.63671 0.0
H4197 H 0.26106 0.95275 0.65345 0.0
H4198 H 0.28071 0.92052 0.62682 0.0
H4199 H 0.24265 0.92596 0.64274 0.0
H4200 H 0.21465 0.87323 0.63787 0.0
H4201 H 0.23444 0.89961 0.64878 0.0
H4202 H 0.26029 0.90493 0.6056 0.0
H4203 H 0.24058 0.87827 0.59493 0.0
C4204 C 0.28684 0.94305 0.63826 0.0
C4205 C 0.28159 0.95243 0.6459 0.0
C4206 C 0.27627 0.9275 0.63241 0.0
C4207 C 0.2602 0.92102 0.63404 0.0
C4208 C 0.25496 0.93047 0.64152 0.0
C4209 C 0.26551 0.94595 0.64744 0.0
C4210 C 0.22462 0.88004 0.63077 0.0
C4211 C 0.22607 0.8738 0.61552 0.0
C4212 C 0.23592 0.89517 0.63696 0.0
C4213 C 0.24885 0.90448 0.62796 0.0
C4214 C 0.25054 0.89803 0.61291 0.0
C4215 C 0.23927 0.88279 0.60678 0.0
H4216 H 0.04868 0.33688 0.68681 0.0
H4217 H 0.0506 0.29649 0.70236 0.0
H4218 H 0.07299 0.34583 0.67357 0.0
H4219 H 0.07468 0.30527 0.68851 0.0
H4220 H 0.10264 0.316 0.64095 0.0
H4221 H 0.0807 0.30797 0.65803 0.0
H4222 H 0.10194 0.35528 0.68062 0.0
H4223 H 0.12434 0.36332 0.66397 0.0
C4224 C 0.05438 0.33002 0.68766 0.0
C4225 C 0.04761 0.31592 0.69567 0.0
C4226 C 0.0683 0.33516 0.68001 0.0
C4227 C 0.07567 0.32622 0.68001 0.0
C4228 C 0.06912 0.31229 0.68822 0.0
C4229 C 0.05529 0.30724 0.69606 0.0
C4230 C 0.1029 0.32466 0.64982 0.0
C4231 C 0.11535 0.34033 0.65108 0.0
C4232 C 0.09026 0.32003 0.65956 0.0
C4233 C 0.08965 0.331 0.67064 0.0
C4234 C 0.10209 0.34662 0.67207 0.0
C4235 C 0.11486 0.35123 0.66247 0.0
H4236 H 0.25871 0.31189 0.67536 0.0
H4237 H 0.29611 0.33382 0.64277 0.0
H4238 H 0.24411 0.32156 0.65999 0.0
H4239 H 0.28126 0.34311 0.62718 0.0
H4240 H 0.24035 0.34082 0.5942 0.0
H4241 H 0.25614 0.33198 0.60902 0.0
H4242 H 0.24718 0.348 0.65543 0.0
H4243 H 0.23132 0.35663 0.64068 0.0
C4244 C 0.26385 0.3188 0.66497 0.0
C4245 C 0.27862 0.32211 0.66036 0.0
C4246 C 0.25547 0.32432 0.65616 0.0
C4247 C 0.2616 0.33315 0.64246 0.0
C4248 C 0.27621 0.33621 0.63762 0.0
C4249 C 0.28466 0.33082 0.64652 0.0
C4250 C 0.24189 0.34254 0.60755 0.0
C4251 C 0.2347 0.34947 0.61629 0.0
C4252 C 0.25095 0.33756 0.61601 0.0
C4253 C 0.25278 0.33922 0.63337 0.0
C4254 C 0.24583 0.34642 0.64206 0.0
C4255 C 0.23692 0.35154 0.63361 0.0
H4256 H 0.65235 0.95067 0.63124 0.0
H4257 H 0.69988 0.96432 0.62194 0.0
H4258 H 0.64355 0.92428 0.61931 0.0
H4259 H 0.69092 0.93836 0.60881 0.0
H4260 H 0.67309 0.88605 0.60405 0.0
H4261 H 0.68158 0.91246 0.61579 0.0
H4262 H 0.63932 0.90892 0.59442 0.0
H4263 H 0.63061 0.88214 0.58326 0.0
C4264 C 0.66094 0.94809 0.62662 0.0
C4265 C 0.67686 0.95967 0.6277 0.0
C4266 C 0.65584 0.93299 0.61951 0.0
C4267 C 0.66651 0.92912 0.6131 0.0
C4268 C 0.68238 0.9408 0.61387 0.0
C4269 C 0.6875 0.95582 0.62118 0.0
C4270 C 0.66568 0.89099 0.60181 0.0
C4271 C 0.65124 0.88214 0.59271 0.0
C4272 C 0.67056 0.90616 0.60846 0.0
C4273 C 0.6612 0.91292 0.60598 0.0
C4274 C 0.64673 0.90402 0.5968 0.0
C4275 C 0.64176 0.88873 0.59033 0.0
H4276 H 0.04166 0.71205 0.691 0.0
H4277 H 0.02231 0.73449 0.66175 0.0
H4278 H 0.06607 0.72605 0.67756 0.0
H4279 H 0.04666 0.74846 0.64834 0.0
H4280 H 0.09662 0.78108 0.63698 0.0
H4281 H 0.07398 0.76876 0.65337 0.0
H4282 H 0.07525 0.7256 0.65014 0.0
H4283 H 0.09797 0.73798 0.63379 0.0
C4284 C 0.04262 0.71997 0.6817 0.0
C4285 C 0.03004 0.72213 0.67739 0.0
C4286 C 0.05659 0.72798 0.674 0.0
C4287 C 0.05828 0.73833 0.66185 0.0
C4288 C 0.04581 0.74074 0.65783 0.0
C4289 C 0.03186 0.73274 0.66552 0.0
C4290 C 0.09205 0.76896 0.63977 0.0
C4291 C 0.09897 0.76044 0.63397 0.0
C4292 C 0.07909 0.7619 0.64915 0.0
C4293 C 0.07275 0.74617 0.65295 0.0
C4294 C 0.07996 0.7378 0.64757 0.0
C4295 C 0.09296 0.74487 0.6382 0.0
H4296 H 0.9587 0.60923 0.76842 0.0
H4297 H 0.97052 0.59932 0.72052 0.0
H4298 H 0.96632 0.59166 0.78048 0.0
H4299 H 0.97827 0.58177 0.73266 0.0
H4300 H 0.97491 0.53952 0.76038 0.0
H4301 H 0.96608 0.55579 0.74708 0.0
H4302 H 0.99251 0.59327 0.78503 0.0
H4303 H 0.00121 0.57706 0.79831 0.0
C4304 C 0.96274 0.60313 0.76045 0.0
C4305 C 0.96405 0.60563 0.74356 0.0
C4306 C 0.96723 0.59321 0.76736 0.0
C4307 C 0.97297 0.58548 0.7575 0.0
C4308 C 0.97383 0.58757 0.7405 0.0
C4309 C 0.9695 0.59765 0.7336 0.0
C4310 C 0.97883 0.55126 0.7658 0.0
C4311 C 0.98878 0.55709 0.7803 0.0
C4312 C 0.97386 0.56056 0.75818 0.0
C4313 C 0.97856 0.57572 0.76511 0.0
C4314 C 0.98859 0.58156 0.77954 0.0
C4315 C 0.9937 0.57236 0.78702 0.0
H4316 H 0.37897 0.39464 0.74896 0.0
H4317 H 0.40532 0.37476 0.76962 0.0
H4318 H 0.39747 0.42008 0.76305 0.0
H4319 H 0.42327 0.39994 0.78448 0.0
H4320 H 0.46268 0.45107 0.79144 0.0
H4321 H 0.44356 0.42535 0.77847 0.0
H4322 H 0.40652 0.43435 0.78966 0.0
H4323 H 0.42583 0.46033 0.80239 0.0
C4324 C 0.38868 0.39567 0.75654 0.0
C4325 C 0.39072 0.38266 0.75803 0.0
C4326 C 0.39917 0.41022 0.76482 0.0
C4327 C 0.41189 0.41208 0.77488 0.0
C4328 C 0.41373 0.39899 0.77664 0.0
C4329 C 0.40331 0.38447 0.76828 0.0
C4330 C 0.45044 0.44748 0.79129 0.0
C4331 C 0.44572 0.45766 0.798 0.0
C4332 C 0.43946 0.43272 0.78388 0.0
C4333 C 0.42347 0.42772 0.78308 0.0
C4334 C 0.41875 0.4379 0.78988 0.0
C4335 C 0.42978 0.45275 0.7972 0.0
H4336 H 0.61619 0.01262 0.69602 0.0
H4337 H 0.6476 0.05521 0.72614 0.0
H4338 H 0.59503 0.00831 0.71327 0.0
H4339 H 0.62635 0.05118 0.74303 0.0
H4340 H 0.59084 0.02643 0.78178 0.0
H4341 H 0.61147 0.0324 0.76325 0.0
H4342 H 0.57828 0.01893 0.72115 0.0
H4343 H 0.55759 0.01303 0.73973 0.0
C4344 C 0.61853 0.02113 0.70624 0.0
C4345 C 0.63358 0.0342 0.70978 0.0
C4346 C 0.60639 0.01874 0.71601 0.0
C4347 C 0.60906 0.02936 0.72957 0.0
C4348 C 0.62399 0.04269 0.73279 0.0
C4349 C 0.63611 0.04509 0.723 0.0
C4350 C 0.58797 0.02494 0.76857 0.0
C4351 C 0.57258 0.01927 0.76222 0.0
C4352 C 0.5998 0.02837 0.75796 0.0
C4353 C 0.59651 0.02619 0.74074 0.0
C4354 C 0.58113 0.02057 0.73437 0.0
C4355 C 0.56929 0.01716 0.745 0.0
loop_
_geom_bond_atom_site_label_1
_geom_bond_atom_site_label_2
_geom_bond_distance
_geom_bond_site_symmetry_2
_ccdc_geom_bond_type
Li0 N17 1.990 . S
Li0 O60 1.951 1_655 S
Li0 O61 1.970 1_655 S
Li0 O62 1.961 . S
Li1 N25 1.990 . S
Li1 O60 1.981 . S
Li1 O61 1.956 . S
Li1 O63 1.961 . S
Li2 N47 2.021 . S
Li2 O60 1.926 1_655 S
Li2 O62 1.975 . S
Li2 O63 1.929 1_655 S
Li3 N53 1.990 1_554 S
Li3 O61 1.961 . S
Li3 O62 1.970 1_455 S
Li3 O63 1.956 . S
C4 C6 1.348 1_655 S
C4 C7 1.356 . S
C4 O60 1.325 1_655 S
N5 C8 1.314 . S
N5 C9 1.279 . S
C6 C4 1.348 1_455 S
C6 C8 1.353 1_455 S
C6 H64 0.929 . S
C7 C4 1.356 . S
C7 C9 1.358 . S
C7 H65 0.930 . S
C8 N5 1.314 . S
C8 C6 1.353 1_655 S
C8 H66 0.930 1_655 S
C9 N5 1.279 . S
C9 C7 1.358 . S
C9 H67 0.930 . S
C10 C13 1.348 . S
C10 C14 1.356 . S
C10 O61 1.325 1_556 S
C11 N12 1.279 . S
C11 C14 1.358 . S
C11 H68 0.930 . S
N12 C11 1.279 . S
N12 C15 1.314 . S
C13 C10 1.348 . S
C13 C15 1.353 . S
C13 H69 0.929 1_455 S
C14 C10 1.356 . S
C14 C11 1.358 . S
C14 H70 0.930 . S
C15 N12 1.314 . S
C15 C13 1.353 . S
C15 H71 0.930 . S
C16 N17 1.314 1_556 S
C16 C21 1.353 . S
C16 H22 0.930 . S
N17 Li0 1.990 . S
N17 C16 1.314 1_554 S
N17 C19 1.279 . S
C18 C19 1.358 . S
C18 C20 1.356 1_554 S
C18 H72 0.930 . S
C19 N17 1.279 . S
C19 C18 1.358 . S
C19 H23 0.930 . S
C20 C18 1.356 1_556 S
C20 C21 1.348 . S
C21 C16 1.353 . S
C21 C20 1.348 . S
C21 H73 0.929 . S
H22 C16 0.930 . S
H23 C19 0.930 . S
C24 N25 1.314 . S
C24 C26 1.353 . S
C24 H30 0.930 . S
N25 Li1 1.990 . S
N25 C24 1.314 . S
N25 C28 1.279 . S
C26 C24 1.353 . S
C26 C29 1.348 . S
C26 H74 0.929 . S
C27 C28 1.358 . S
C27 C29 1.356 . S
C27 H75 0.930 . S
C28 N25 1.279 . S
C28 C27 1.358 . S
C28 H31 0.930 . S
C29 C26 1.348 . S
C29 C27 1.356 . S
H30 C24 0.930 . S
H31 C28 0.930 . S
C32 C34 1.348 . S
C32 C35 1.356 . S
C32 O62 1.325 . S
N33 C36 1.306 1_554 S
N33 C37 1.279 . S
C34 C32 1.348 . S
C34 C36 1.348 1_554 S
C34 H76 0.947 . S
C35 C32 1.356 . S
C35 C37 1.358 . S
C35 H77 0.930 . S
C36 N33 1.306 1_556 S
C36 C34 1.348 1_556 S
C36 H78 0.946 . S
C37 N33 1.279 . S
C37 C35 1.358 . S
C37 H79 0.930 . S
C38 C39 1.348 . S
C38 C40 1.356 . S
C38 O63 1.325 . S
C39 C38 1.348 . S
C39 C41 1.353 . S
C39 H80 0.929 . S
C40 C38 1.356 . S
C40 C42 1.358 . S
C40 H81 0.930 . S
C41 C39 1.353 . S
C41 N43 1.314 . S
C41 H82 0.930 . S
C42 C40 1.358 . S
C42 N43 1.279 . S
C42 H83 0.930 . S
N43 C41 1.314 . S
N43 C42 1.279 . S
C44 C46 1.353 . S
C44 N47 1.314 . S
C44 H50 0.930 1_655 S
C45 N47 1.279 . S
C45 C48 1.358 . S
C45 H51 0.930 . S
C46 C44 1.353 . S
C46 C49 1.348 . S
C46 H84 0.929 . S
N47 Li2 2.021 . S
N47 C44 1.314 . S
N47 C45 1.279 . S
C48 C45 1.358 . S
C48 C49 1.356 . S
C48 H85 0.930 . S
C49 C46 1.348 . S
C49 C48 1.356 . S
H50 C44 0.930 1_455 S
H51 C45 0.930 . S
C52 N53 1.314 . S
C52 C54 1.353 . S
C52 H58 0.930 . S
N53 Li3 1.990 1_556 S
N53 C52 1.314 . S
N53 C56 1.279 . S
C54 C52 1.353 . S
C54 C57 1.348 . S
C54 H86 0.929 . S
C55 C56 1.358 . S
C55 C57 1.356 . S
C55 H87 0.930 . S
C56 N53 1.279 . S
C56 C55 1.358 . S
C56 H59 0.930 1_556 S
C57 C54 1.348 . S
C57 C55 1.356 . S
H58 C52 0.930 . S
H59 C56 0.930 1_554 S
O60 Li0 1.951 1_455 S
O60 Li1 1.981 . S
O60 Li2 1.926 1_455 S
O60 C4 1.325 1_455 S
O61 Li0 1.970 1_455 S
O61 Li1 1.956 . S
O61 Li3 1.961 . S
O61 C10 1.325 1_554 S
O62 Li0 1.961 . S
O62 Li2 1.975 . S
O62 Li3 1.970 1_655 S
O62 C32 1.325 . S
O63 Li1 1.961 . S
O63 Li2 1.929 1_455 S
O63 Li3 1.956 . S
O63 C38 1.325 . S
H64 C6 0.929 . S
H65 C7 0.930 . S
H66 C8 0.930 1_455 S
H67 C9 0.930 . S
H68 C11 0.930 . S
H69 C13 0.929 1_655 S
H70 C14 0.930 . S
H71 C15 0.930 . S
H72 C18 0.930 . S
H73 C21 0.929 . S
H74 C26 0.929 . S
H75 C27 0.930 . S
H76 C34 0.947 . S
H77 C35 0.930 . S
H78 C36 0.946 . S
H79 C37 0.930 . S
H80 C39 0.929 . S
H81 C40 0.930 . S
H82 C41 0.930 . S
H83 C42 0.930 . S
H84 C46 0.929 . S
H85 C48 0.930 . S
H86 C54 0.929 . S
H87 C55 0.930 . S
Li88 N105 1.990 . S
Li88 O148 1.956 . S
Li88 O149 1.970 . S
Li88 O150 1.961 . S
Li89 N113 1.990 . S
Li89 O148 1.970 . S
Li89 O149 1.956 . S
Li89 O151 1.961 . S
Li90 N135 1.990 . S
Li90 O148 1.961 . S
Li90 O150 1.956 . S
Li90 O151 1.970 . S
Li91 N141 1.990 . S
Li91 O149 1.961 . S
Li91 O150 1.970 . S
Li91 O151 1.956 . S
C92 C94 1.348 . S
C92 C95 1.356 . S
C92 O148 1.325 . S
N93 C96 1.314 . S
N93 C97 1.279 . S
C94 C92 1.348 . S
C94 C96 1.353 . S
C94 H152 0.929 . S
C95 C92 1.356 . S
C95 C97 1.358 . S
C95 H153 0.930 . S
C96 N93 1.314 . S
C96 C94 1.353 . S
C96 H154 0.930 . S
C97 N93 1.279 . S
C97 C95 1.358 . S
C97 H155 0.930 . S
C98 C101 1.348 . S
C98 C102 1.356 . S
C98 O149 1.325 . S
C99 N100 1.279 . S
C99 C102 1.358 . S
C99 H156 0.930 . S
N100 C99 1.279 . S
N100 C103 1.314 . S
C101 C98 1.348 . S
C101 C103 1.353 . S
C101 H157 0.929 . S
C102 C98 1.356 . S
C102 C99 1.358 . S
C102 H158 0.930 . S
C103 N100 1.314 . S
C103 C101 1.353 . S
C103 H159 0.930 . S
C104 N105 1.314 . S
C104 C109 1.353 . S
C104 H110 0.930 . S
N105 Li88 1.990 . S
N105 C104 1.314 . S
N105 C107 1.279 . S
C106 C107 1.358 . S
C106 C108 1.356 . S
C106 H160 0.930 . S
C107 N105 1.279 . S
C107 C106 1.358 . S
C107 H111 0.930 . S
C108 C106 1.356 . S
C108 C109 1.348 . S
C109 C104 1.353 . S
C109 C108 1.348 . S
C109 H161 0.929 . S
H110 C104 0.930 . S
H111 C107 0.930 . S
C112 N113 1.314 . S
C112 C114 1.353 . S
C112 H118 0.930 . S
N113 Li89 1.990 . S
N113 C112 1.314 . S
N113 C116 1.279 . S
C114 C112 1.353 . S
C114 C117 1.348 . S
C114 H162 0.929 . S
C115 C116 1.358 . S
C115 C117 1.356 . S
C115 H163 0.930 . S
C116 N113 1.279 . S
C116 C115 1.358 . S
C116 H119 0.930 . S
C117 C114 1.348 . S
C117 C115 1.356 . S
H118 C112 0.930 . S
H119 C116 0.930 . S
C120 C122 1.348 . S
C120 C123 1.356 . S
C120 O150 1.325 . S
N121 C124 1.314 . S
N121 C125 1.279 . S
C122 C120 1.348 . S
C122 C124 1.353 . S
C122 H164 0.929 . S
C123 C120 1.356 . S
C123 C125 1.358 . S
C123 H165 0.930 . S
C124 N121 1.314 . S
C124 C122 1.353 . S
C124 H166 0.930 . S
C125 N121 1.279 . S
C125 C123 1.358 . S
C125 H167 0.930 . S
C126 C127 1.348 . S
C126 C128 1.356 . S
C126 O151 1.325 . S
C127 C126 1.348 . S
C127 C129 1.353 . S
C127 H168 0.929 . S
C128 C126 1.356 . S
C128 C130 1.358 . S
C128 H169 0.930 . S
C129 C127 1.353 . S
C129 N131 1.314 . S
C129 H170 0.930 . S
C130 C128 1.358 . S
C130 N131 1.279 . S
C130 H171 0.930 . S
N131 C129 1.314 . S
N131 C130 1.279 . S
C132 C134 1.353 . S
C132 N135 1.314 . S
C132 H138 0.930 . S
C133 N135 1.279 . S
C133 C136 1.358 . S
C133 H139 0.930 . S
C134 C132 1.353 . S
C134 C137 1.348 . S
C134 H172 0.929 . S
N135 Li90 1.990 . S
N135 C132 1.314 . S
N135 C133 1.279 . S
C136 C133 1.358 . S
C136 C137 1.356 . S
C136 H173 0.930 . S
C137 C134 1.348 . S
C137 C136 1.356 . S
H138 C132 0.930 . S
H139 C133 0.930 . S
C140 N141 1.314 . S
C140 C142 1.353 1_554 S
C140 H146 0.930 . S
N141 Li91 1.990 . S
N141 C140 1.314 . S
N141 C144 1.279 . S
C142 C140 1.353 1_556 S
C142 C145 1.348 . S
C142 H174 0.929 . S
C143 C144 1.358 . S
C143 C145 1.356 1_554 S
C143 H175 0.930 . S
C144 N141 1.279 . S
C144 C143 1.358 . S
C144 H147 0.930 . S
C145 C142 1.348 . S
C145 C143 1.356 1_556 S
H146 C140 0.930 . S
H147 C144 0.930 . S
O148 Li88 1.956 . S
O148 Li89 1.970 . S
O148 Li90 1.961 . S
O148 C92 1.325 . S
O149 Li88 1.970 . S
O149 Li89 1.956 . S
O149 Li91 1.961 . S
O149 C98 1.325 . S
O150 Li88 1.961 . S
O150 Li90 1.956 . S
O150 Li91 1.970 . S
O150 C120 1.325 . S
O151 Li89 1.961 . S
O151 Li90 1.970 . S
O151 Li91 1.956 . S
O151 C126 1.325 . S
H152 C94 0.929 . S
H153 C95 0.930 . S
H154 C96 0.930 . S
H155 C97 0.930 . S
H156 C99 0.930 . S
H157 C101 0.929 . S
H158 C102 0.930 . S
H159 C103 0.930 . S
H160 C106 0.930 . S
H161 C109 0.929 . S
H162 C114 0.929 . S
H163 C115 0.930 . S
H164 C122 0.929 . S
H165 C123 0.930 . S
H166 C124 0.930 . S
H167 C125 0.930 . S
H168 C127 0.929 . S
H169 C128 0.930 . S
H170 C129 0.930 . S
H171 C130 0.930 . S
H172 C134 0.929 . S
H173 C136 0.930 . S
H174 C142 0.929 . S
H175 C143 0.930 . S
Li176 N193 1.990 1_554 S
Li176 O236 1.956 . S
Li176 O237 1.970 1_565 S
Li176 O238 1.961 . S
Li177 N201 1.990 . S
Li177 O236 1.970 1_545 S
Li177 O237 1.956 . S
Li177 O239 1.961 . S
Li178 N223 1.990 . S
Li178 O236 1.961 . S
Li178 O238 1.956 . S
Li178 O239 1.970 1_565 S
Li179 N229 1.990 . S
Li179 O237 1.961 . S
Li179 O238 1.970 1_545 S
Li179 O239 1.956 . S
C180 C182 1.348 . S
C180 C183 1.356 . S
C180 O236 1.325 . S
N181 C184 1.314 . S
N181 C185 1.279 . S
C182 C180 1.348 . S
C182 C184 1.353 . S
C182 H240 0.929 . S
C183 C180 1.356 . S
C183 C185 1.358 . S
C183 H241 0.930 . S
C184 N181 1.314 . S
C184 C182 1.353 . S
C184 H242 0.930 . S
C185 N181 1.279 . S
C185 C183 1.358 . S
C185 H243 0.930 . S
C186 C189 1.348 . S
C186 C190 1.356 . S
C186 O237 1.325 . S
C187 N188 1.279 . S
C187 C190 1.358 . S
C187 H244 0.930 . S
N188 C187 1.279 . S
N188 C191 1.314 . S
C189 C186 1.348 . S
C189 C191 1.353 . S
C189 H245 0.929 . S
C190 C186 1.356 . S
C190 C187 1.358 . S
C190 H246 0.930 . S
C191 N188 1.314 . S
C191 C189 1.353 . S
C191 H247 0.930 1_554 S
C192 N193 1.314 . S
C192 C197 1.353 . S
C192 H198 0.930 . S
N193 Li176 1.990 1_556 S
N193 C192 1.314 . S
N193 C195 1.279 . S
C194 C195 1.358 . S
C194 C196 1.356 . S
C194 H248 0.930 . S
C195 N193 1.279 . S
C195 C194 1.358 . S
C195 H199 0.930 1_556 S
C196 C194 1.356 . S
C196 C197 1.348 . S
C197 C192 1.353 . S
C197 C196 1.348 . S
C197 H249 0.929 . S
H198 C192 0.930 . S
H199 C195 0.930 1_554 S
C200 N201 1.314 . S
C200 C202 1.353 . S
C200 H206 0.930 . S
N201 Li177 1.990 . S
N201 C200 1.314 . S
N201 C204 1.279 . S
C202 C200 1.353 . S
C202 C205 1.348 . S
C202 H250 0.929 . S
C203 C204 1.358 . S
C203 C205 1.356 . S
C203 H251 0.930 . S
C204 N201 1.279 . S
C204 C203 1.358 . S
C204 H207 0.930 . S
C205 C202 1.348 . S
C205 C203 1.356 . S
H206 C200 0.930 . S
H207 C204 0.930 . S
C208 C210 1.348 . S
C208 C211 1.356 . S
C208 O238 1.325 1_556 S
N209 C212 1.314 . S
N209 C213 1.279 . S
C210 C208 1.348 . S
C210 C212 1.353 . S
C210 H252 0.929 1_565 S
C211 C208 1.356 . S
C211 C213 1.358 . S
C211 H253 0.930 . S
C212 N209 1.314 . S
C212 C210 1.353 . S
C212 H254 0.930 . S
C213 N209 1.279 . S
C213 C211 1.358 . S
C213 H255 0.930 . S
C214 C215 1.348 . S
C214 C216 1.356 . S
C214 O239 1.325 . S
C215 C214 1.348 . S
C215 C217 1.353 . S
C215 H256 0.929 1_545 S
C216 C214 1.356 . S
C216 C218 1.358 . S
C216 H257 0.930 . S
C217 C215 1.353 . S
C217 N219 1.314 . S
C217 H258 0.930 . S
C218 C216 1.358 . S
C218 N219 1.279 . S
C218 H259 0.930 . S
N219 C217 1.314 . S
N219 C218 1.279 . S
C220 C222 1.353 . S
C220 N223 1.314 . S
C220 H226 0.930 . S
C221 N223 1.279 . S
C221 C224 1.358 . S
C221 H227 0.930 . S
C222 C220 1.353 . S
C222 C225 1.348 . S
C222 H260 0.929 . S
N223 Li178 1.990 . S
N223 C220 1.314 . S
N223 C221 1.279 . S
C224 C221 1.358 . S
C224 C225 1.356 . S
C224 H261 0.930 . S
C225 C222 1.348 . S
C225 C224 1.356 . S
H226 C220 0.930 . S
H227 C221 0.930 . S
C228 N229 1.311 1_556 S
C228 C230 1.355 . S
C228 H234 0.932 . S
N229 Li179 1.990 . S
N229 C228 1.311 1_554 S
N229 C232 1.279 . S
C230 C228 1.355 . S
C230 C233 1.348 1_556 S
C230 H262 0.929 . S
C231 C232 1.358 . S
C231 C233 1.356 . S
C231 H263 0.930 . S
C232 N229 1.279 . S
C232 C231 1.358 . S
C232 H235 0.930 . S
C233 C230 1.348 1_554 S
C233 C231 1.356 . S
H234 C228 0.932 . S
H235 C232 0.930 . S
O236 Li176 1.956 . S
O236 Li177 1.970 1_565 S
O236 Li178 1.961 . S
O236 C180 1.325 . S
O237 Li176 1.970 1_545 S
O237 Li177 1.956 . S
O237 Li179 1.961 . S
O237 C186 1.325 . S
O238 Li176 1.961 . S
O238 Li178 1.956 . S
O238 Li179 1.970 1_565 S
O238 C208 1.325 1_554 S
O239 Li177 1.961 . S
O239 Li178 1.970 1_545 S
O239 Li179 1.956 . S
O239 C214 1.325 . S
H240 C182 0.929 . S
H241 C183 0.930 . S
H242 C184 0.930 . S
H243 C185 0.930 . S
H244 C187 0.930 . S
H245 C189 0.929 . S
H246 C190 0.930 . S
H247 C191 0.930 1_556 S
H248 C194 0.930 . S
H249 C197 0.929 . S
H250 C202 0.929 . S
H251 C203 0.930 . S
H252 C210 0.929 1_545 S
H253 C211 0.930 . S
H254 C212 0.930 . S
H255 C213 0.930 . S
H256 C215 0.929 1_565 S
H257 C216 0.930 . S
H258 C217 0.930 . S
H259 C218 0.930 . S
H260 C222 0.929 . S
H261 C224 0.930 . S
H262 C230 0.929 . S
H263 C231 0.930 . S
Li264 N281 1.990 . S
Li264 O324 1.956 . S
Li264 O325 1.970 1_455 S
Li264 O326 1.961 . S
Li265 N289 1.990 . S
Li265 O324 1.970 1_655 S
Li265 O325 1.956 . S
Li265 O327 1.961 . S
Li266 N311 1.990 . S
Li266 O324 1.961 . S
Li266 O326 1.956 . S
Li266 O327 1.970 1_455 S
Li267 N317 1.990 . S
Li267 O325 1.961 . S
Li267 O326 1.970 1_655 S
Li267 O327 1.956 . S
C268 C270 1.348 . S
C268 C271 1.356 . S
C268 O324 1.325 . S
N269 C272 1.314 . S
N269 C273 1.279 . S
C270 C268 1.348 . S
C270 C272 1.353 . S
C270 H328 0.929 . S
C271 C268 1.356 . S
C271 C273 1.358 . S
C271 H329 0.930 . S
C272 N269 1.314 . S
C272 C270 1.353 . S
C272 H330 0.930 . S
C273 N269 1.279 . S
C273 C271 1.358 . S
C273 H331 0.930 . S
C274 C277 1.348 1_655 S
C274 C278 1.356 . S
C274 O325 1.325 . S
C275 N276 1.279 . S
C275 C278 1.358 . S
C275 H332 0.930 . S
N276 C275 1.279 . S
N276 C279 1.314 . S
C277 C274 1.348 1_455 S
C277 C279 1.353 1_455 S
C277 H333 0.929 . S
C278 C274 1.356 . S
C278 C275 1.358 . S
C278 H334 0.930 . S
C279 N276 1.314 . S
C279 C277 1.353 1_655 S
C279 H335 0.930 1_655 S
C280 N281 1.314 . S
C280 C285 1.353 . S
C280 H286 0.930 . S
N281 Li264 1.990 . S
N281 C280 1.314 . S
N281 C283 1.279 . S
C282 C283 1.358 . S
C282 C284 1.356 . S
C282 H336 0.930 . S
C283 N281 1.279 . S
C283 C282 1.358 . S
C283 H287 0.930 . S
C284 C282 1.356 . S
C284 C285 1.348 . S
C285 C280 1.353 . S
C285 C284 1.348 . S
C285 H337 0.929 . S
H286 C280 0.930 . S
H287 C283 0.930 . S
C288 N289 1.314 . S
C288 C290 1.353 . S
C288 H294 0.930 . S
N289 Li265 1.990 . S
N289 C288 1.314 . S
N289 C292 1.279 . S
C290 C288 1.353 . S
C290 C293 1.348 . S
C290 H338 0.929 . S
C291 C292 1.358 . S
C291 C293 1.356 . S
C291 H339 0.930 . S
C292 N289 1.279 . S
C292 C291 1.358 . S
C292 H295 0.930 . S
C293 C290 1.348 . S
C293 C291 1.356 . S
H294 C288 0.930 . S
H295 C292 0.930 . S
C296 C298 1.309 1_455 S
C296 C299 1.356 . S
C296 O326 1.325 . S
N297 C300 1.314 . S
N297 C301 1.279 . S
C298 C296 1.309 1_655 S
C298 C300 1.351 1_654 S
C298 H340 0.972 . S
C299 C296 1.356 . S
C299 C301 1.358 1_554 S
C299 H341 0.930 . S
C300 N297 1.314 . S
C300 C298 1.351 1_456 S
C300 H342 0.930 1_455 S
C301 N297 1.279 . S
C301 C299 1.358 1_556 S
C301 H343 0.930 . S
C302 C303 1.348 . S
C302 C304 1.356 . S
C302 O327 1.325 . S
C303 C302 1.348 . S
C303 C305 1.353 . S
C303 H344 0.929 . S
C304 C302 1.356 . S
C304 C306 1.358 . S
C304 H345 0.930 . S
C305 C303 1.353 . S
C305 N307 1.314 . S
C305 H346 0.938 . S
C306 C304 1.358 . S
C306 N307 1.279 . S
C306 H347 0.930 . S
N307 C305 1.314 . S
N307 C306 1.279 . S
C308 C310 1.353 1_554 S
C308 N311 1.314 . S
C308 H314 0.930 . S
C309 N311 1.279 1_556 S
C309 C312 1.358 . S
C309 H315 0.930 . S
C310 C308 1.353 1_556 S
C310 C313 1.348 . S
C310 H348 0.934 . S
N311 Li266 1.990 . S
N311 C308 1.314 . S
N311 C309 1.279 1_554 S
C312 C309 1.358 . S
C312 C313 1.356 . S
C312 H349 0.930 . S
C313 C310 1.348 . S
C313 C312 1.356 . S
H314 C308 0.930 . S
H315 C309 0.930 . S
C316 N317 1.314 . S
C316 C318 1.353 . S
C316 H322 0.930 . S
N317 Li267 1.990 . S
N317 C316 1.314 . S
N317 C320 1.279 . S
C318 C316 1.353 . S
C318 C321 1.348 . S
C318 H350 0.929 . S
C319 C320 1.358 . S
C319 C321 1.356 . S
C319 H351 0.930 . S
C320 N317 1.279 . S
C320 C319 1.358 . S
C320 H323 0.930 . S
C321 C318 1.348 . S
C321 C319 1.356 . S
H322 C316 0.930 . S
H323 C320 0.930 . S
O324 Li264 1.956 . S
O324 Li265 1.970 1_455 S
O324 Li266 1.961 . S
O324 C268 1.325 . S
O325 Li264 1.970 1_655 S
O325 Li265 1.956 . S
O325 Li267 1.961 . S
O325 C274 1.325 . S
O326 Li264 1.961 . S
O326 Li266 1.956 . S
O326 Li267 1.970 1_455 S
O326 C296 1.325 . S
O327 Li265 1.961 . S
O327 Li266 1.970 1_655 S
O327 Li267 1.956 . S
O327 C302 1.325 . S
H328 C270 0.929 . S
H329 C271 0.930 . S
H330 C272 0.930 . S
H331 C273 0.930 . S
H332 C275 0.930 . S
H333 C277 0.929 . S
H334 C278 0.930 . S
H335 C279 0.930 1_455 S
H336 C282 0.930 . S
H337 C285 0.929 . S
H338 C290 0.929 . S
H339 C291 0.930 . S
H340 C298 0.972 . S
H341 C299 0.930 . S
H342 C300 0.930 1_655 S
H343 C301 0.930 . S
H344 C303 0.929 . S
H345 C304 0.930 . S
H346 C305 0.938 . S
H347 C306 0.930 . S
H348 C310 0.934 . S
H349 C312 0.930 . S
H350 C318 0.929 . S
H351 C319 0.930 . S
Li352 N369 1.990 . S
Li352 O412 1.956 . S
Li352 O413 1.970 . S
Li352 O414 1.961 1_554 S
Li353 N377 1.990 . S
Li353 O412 1.970 . S
Li353 O413 1.956 . S
Li353 O415 1.997 . S
Li354 N399 1.990 . S
Li354 O412 1.961 1_556 S
Li354 O414 1.956 . S
Li354 O415 1.960 1_556 S
Li355 N405 1.998 . S
Li355 O413 1.939 1_556 S
Li355 O414 1.979 . S
Li355 O415 1.960 1_556 S
C356 C358 1.348 . S
C356 C359 1.356 . S
C356 O412 1.325 . S
N357 C360 1.314 . S
N357 C361 1.279 . S
C358 C356 1.348 . S
C358 C360 1.353 . S
C358 H416 0.929 . S
C359 C356 1.356 . S
C359 C361 1.358 . S
C359 H417 0.930 . S
C360 N357 1.314 . S
C360 C358 1.353 . S
C360 H418 0.930 . S
C361 N357 1.279 . S
C361 C359 1.358 . S
C361 H419 0.930 . S
C362 C365 1.348 . S
C362 C366 1.356 . S
C362 O413 1.325 . S
C363 N364 1.279 . S
C363 C366 1.358 . S
C363 H420 0.930 . S
N364 C363 1.279 . S
N364 C367 1.314 . S
C365 C362 1.348 . S
C365 C367 1.353 . S
C365 H421 0.929 . S
C366 C362 1.356 . S
C366 C363 1.358 . S
C366 H422 0.930 . S
C367 N364 1.314 . S
C367 C365 1.353 . S
C367 H423 0.930 . S
C368 N369 1.314 . S
C368 C373 1.353 . S
C368 H374 0.930 . S
N369 Li352 1.990 . S
N369 C368 1.314 . S
N369 C371 1.279 . S
C370 C371 1.358 . S
C370 C372 1.356 . S
C370 H424 0.930 . S
C371 N369 1.279 . S
C371 C370 1.358 . S
C371 H375 0.930 . S
C372 C370 1.356 . S
C372 C373 1.348 . S
C373 C368 1.353 . S
C373 C372 1.348 . S
C373 H425 0.929 . S
H374 C368 0.930 . S
H375 C371 0.930 . S
C376 N377 1.314 . S
C376 C378 1.353 . S
C376 H382 0.930 . S
N377 Li353 1.990 . S
N377 C376 1.314 . S
N377 C380 1.279 . S
C378 C376 1.353 . S
C378 C381 1.348 . S
C378 H426 0.929 . S
C379 C380 1.358 . S
C379 C381 1.356 . S
C379 H427 0.930 . S
C380 N377 1.279 . S
C380 C379 1.358 . S
C380 H383 0.930 . S
C381 C378 1.348 . S
C381 C379 1.356 . S
H382 C376 0.930 . S
H383 C380 0.930 . S
C384 C386 1.348 . S
C384 C387 1.356 . S
C384 O414 1.325 . S
N385 C388 1.314 . S
N385 C389 1.279 . S
C386 C384 1.348 . S
C386 C388 1.353 . S
C386 H428 0.929 . S
C387 C384 1.356 . S
C387 C389 1.358 . S
C387 H429 0.930 . S
C388 N385 1.314 . S
C388 C386 1.353 . S
C388 H430 0.930 . S
C389 N385 1.279 . S
C389 C387 1.358 . S
C389 H431 0.930 . S
C390 C391 1.348 . S
C390 C392 1.356 1_556 S
C390 O415 1.311 1_556 S
C391 C390 1.348 . S
C391 C393 1.353 . S
C391 H432 0.929 . S
C392 C390 1.356 1_554 S
C392 C394 1.358 1_554 S
C392 H433 0.930 . S
C393 C391 1.353 . S
C393 N395 1.314 . S
C393 H434 0.930 . S
C394 C392 1.358 1_556 S
C394 N395 1.279 . S
C394 H435 0.930 1_556 S
N395 C393 1.314 . S
N395 C394 1.279 . S
C396 C398 1.353 . S
C396 N399 1.314 . S
C396 H402 0.930 . S
C397 N399 1.279 . S
C397 C400 1.358 . S
C397 H403 0.930 . S
C398 C396 1.353 . S
C398 C401 1.348 . S
C398 H436 0.929 . S
N399 Li354 1.990 . S
N399 C396 1.314 . S
N399 C397 1.279 . S
C400 C397 1.358 . S
C400 C401 1.356 . S
C400 H437 0.930 . S
C401 C398 1.348 . S
C401 C400 1.356 . S
H402 C396 0.930 . S
H403 C397 0.930 . S
C404 N405 1.314 . S
C404 C406 1.353 . S
C404 H410 0.949 . S
N405 Li355 1.998 . S
N405 C404 1.314 . S
N405 C408 1.279 . S
C406 C404 1.353 . S
C406 C409 1.348 . S
C406 H438 0.929 . S
C407 C408 1.358 . S
C407 C409 1.356 . S
C407 H439 0.930 . S
C408 N405 1.279 . S
C408 C407 1.358 . S
C408 H411 0.930 . S
C409 C406 1.348 . S
C409 C407 1.356 . S
H410 C404 0.949 . S
H411 C408 0.930 . S
O412 Li352 1.956 . S
O412 Li353 1.970 . S
O412 Li354 1.961 1_554 S
O412 C356 1.325 . S
O413 Li352 1.970 . S
O413 Li353 1.956 . S
O413 Li355 1.939 1_554 S
O413 C362 1.325 . S
O414 Li352 1.961 1_556 S
O414 Li354 1.956 . S
O414 Li355 1.979 . S
O414 C384 1.325 . S
O415 Li353 1.997 . S
O415 Li354 1.960 1_554 S
O415 Li355 1.960 1_554 S
O415 C390 1.311 1_554 S
H416 C358 0.929 . S
H417 C359 0.930 . S
H418 C360 0.930 . S
H419 C361 0.930 . S
H420 C363 0.930 . S
H421 C365 0.929 . S
H422 C366 0.930 . S
H423 C367 0.930 . S
H424 C370 0.930 . S
H425 C373 0.929 . S
H426 C378 0.929 . S
H427 C379 0.930 . S
H428 C386 0.929 . S
H429 C387 0.930 . S
H430 C388 0.930 . S
H431 C389 0.930 . S
H432 C391 0.929 . S
H433 C392 0.930 . S
H434 C393 0.930 . S
H435 C394 0.930 1_554 S
H436 C398 0.929 . S
H437 C400 0.930 . S
H438 C406 0.929 . S
H439 C407 0.930 . S
Li440 N457 1.990 . S
Li440 O500 1.956 . S
Li440 O501 1.970 1_565 S
Li440 O502 1.961 . S
Li441 N465 1.990 . S
Li441 O500 1.970 1_545 S
Li441 O501 1.956 . S
Li441 O503 1.961 . S
Li442 N487 1.990 . S
Li442 O500 1.961 . S
Li442 O502 1.956 . S
Li442 O503 1.970 1_565 S
Li443 N493 1.990 . S
Li443 O501 1.961 . S
Li443 O502 1.970 1_545 S
Li443 O503 1.956 . S
C444 C446 1.348 . S
C444 C447 1.356 . S
C444 O500 1.325 . S
N445 C448 1.314 . S
N445 C449 1.279 . S
C446 C444 1.348 . S
C446 C448 1.353 . S
C446 H504 0.929 . S
C447 C444 1.356 . S
C447 C449 1.358 . S
C447 H505 0.930 . S
C448 N445 1.314 . S
C448 C446 1.353 . S
C448 H506 0.930 . S
C449 N445 1.279 . S
C449 C447 1.358 . S
C449 H507 0.930 . S
C450 C453 1.348 . S
C450 C454 1.356 . S
C450 O501 1.325 . S
C451 N452 1.279 . S
C451 C454 1.358 . S
C451 H508 0.930 . S
N452 C451 1.279 . S
N452 C455 1.314 . S
C453 C450 1.348 . S
C453 C455 1.353 . S
C453 H509 0.929 1_545 S
C454 C450 1.356 . S
C454 C451 1.358 . S
C454 H510 0.930 . S
C455 N452 1.314 . S
C455 C453 1.353 . S
C455 H511 0.930 . S
C456 N457 1.314 . S
C456 C461 1.353 . S
C456 H462 0.930 . S
N457 Li440 1.990 . S
N457 C456 1.314 . S
N457 C459 1.279 . S
C458 C459 1.358 . S
C458 C460 1.356 . S
C458 H512 0.930 . S
C459 N457 1.279 . S
C459 C458 1.358 . S
C459 H463 0.930 . S
C460 C458 1.356 . S
C460 C461 1.348 . S
C461 C456 1.353 . S
C461 C460 1.348 . S
C461 H513 0.929 . S
H462 C456 0.930 . S
H463 C459 0.930 . S
C464 N465 1.314 . S
C464 C466 1.353 . S
C464 H470 0.930 . S
N465 Li441 1.990 . S
N465 C464 1.314 . S
N465 C468 1.279 . S
C466 C464 1.353 . S
C466 C469 1.348 . S
C466 H514 0.929 . S
C467 C468 1.358 . S
C467 C469 1.356 . S
C467 H515 0.930 . S
C468 N465 1.279 . S
C468 C467 1.358 . S
C468 H471 0.930 . S
C469 C466 1.348 . S
C469 C467 1.356 . S
H470 C464 0.930 . S
H471 C468 0.930 . S
C472 C474 1.348 1_565 S
C472 C475 1.356 . S
C472 O502 1.325 . S
N473 C476 1.314 . S
N473 C477 1.279 . S
C474 C472 1.348 1_545 S
C474 C476 1.353 1_544 S
C474 H516 0.929 . S
C475 C472 1.356 . S
C475 C477 1.358 1_554 S
C475 H517 0.930 . S
C476 N473 1.314 . S
C476 C474 1.353 1_566 S
C476 H518 0.930 1_565 S
C477 N473 1.279 . S
C477 C475 1.358 1_556 S
C477 H519 0.930 . S
C478 C479 1.348 . S
C478 C480 1.356 . S
C478 O503 1.325 . S
C479 C478 1.348 . S
C479 C481 1.353 . S
C479 H520 0.929 . S
C480 C478 1.356 . S
C480 C482 1.358 . S
C480 H521 0.930 . S
C481 C479 1.353 . S
C481 N483 1.314 . S
C481 H522 0.930 . S
C482 C480 1.358 . S
C482 N483 1.279 . S
C482 H523 0.930 . S
N483 C481 1.314 . S
N483 C482 1.279 . S
C484 C486 1.353 1_554 S
C484 N487 1.314 . S
C484 H490 0.930 . S
C485 N487 1.279 1_556 S
C485 C488 1.358 . S
C485 H491 0.930 . S
C486 C484 1.353 1_556 S
C486 C489 1.348 . S
C486 H524 0.935 . S
N487 Li442 1.990 . S
N487 C484 1.314 . S
N487 C485 1.279 1_554 S
C488 C485 1.358 . S
C488 C489 1.356 . S
C488 H525 0.930 . S
C489 C486 1.348 . S
C489 C488 1.356 . S
H490 C484 0.930 . S
H491 C485 0.930 . S
C492 N493 1.314 . S
C492 C494 1.353 . S
C492 H498 0.930 . S
N493 Li443 1.990 . S
N493 C492 1.314 . S
N493 C496 1.279 . S
C494 C492 1.353 . S
C494 C497 1.348 . S
C494 H526 0.929 . S
C495 C496 1.358 . S
C495 C497 1.356 . S
C495 H527 0.930 . S
C496 N493 1.279 . S
C496 C495 1.358 . S
C496 H499 0.930 . S
C497 C494 1.348 . S
C497 C495 1.356 . S
H498 C492 0.930 . S
H499 C496 0.930 . S
O500 Li440 1.956 . S
O500 Li441 1.970 1_565 S
O500 Li442 1.961 . S
O500 C444 1.325 . S
O501 Li440 1.970 1_545 S
O501 Li441 1.956 . S
O501 Li443 1.961 . S
O501 C450 1.325 . S
O502 Li440 1.961 . S
O502 Li442 1.956 . S
O502 Li443 1.970 1_565 S
O502 C472 1.325 . S
O503 Li441 1.961 . S
O503 Li442 1.970 1_545 S
O503 Li443 1.956 . S
O503 C478 1.325 . S
H504 C446 0.929 . S
H505 C447 0.930 . S
H506 C448 0.930 . S
H507 C449 0.930 . S
H508 C451 0.930 . S
H509 C453 0.929 1_565 S
H510 C454 0.930 . S
H511 C455 0.930 . S
H512 C458 0.930 . S
H513 C461 0.929 . S
H514 C466 0.929 . S
H515 C467 0.930 . S
H516 C474 0.929 . S
H517 C475 0.930 . S
H518 C476 0.930 1_545 S
H519 C477 0.930 . S
H520 C479 0.929 . S
H521 C480 0.930 . S
H522 C481 0.930 . S
H523 C482 0.930 . S
H524 C486 0.935 . S
H525 C488 0.930 . S
H526 C494 0.929 . S
H527 C495 0.930 . S
Li528 N545 1.990 . S
Li528 O588 1.956 . S
Li528 O589 1.970 . S
Li528 O590 1.961 . S
Li529 N553 1.990 . S
Li529 O588 1.970 . S
Li529 O589 1.956 . S
Li529 O591 1.961 . S
Li530 N575 1.990 . S
Li530 O588 1.961 . S
Li530 O590 1.956 . S
Li530 O591 1.970 . S
Li531 N581 1.990 . S
Li531 O589 1.961 . S
Li531 O590 1.970 . S
Li531 O591 1.956 . S
C532 C534 1.348 . S
C532 C535 1.356 . S
C532 O588 1.325 . S
N533 C536 1.314 . S
N533 C537 1.279 . S
C534 C532 1.348 . S
C534 C536 1.353 . S
C534 H592 0.929 . S
C535 C532 1.356 . S
C535 C537 1.358 . S
C535 H593 0.930 . S
C536 N533 1.314 . S
C536 C534 1.353 . S
C536 H594 0.930 . S
C537 N533 1.279 . S
C537 C535 1.358 . S
C537 H595 0.930 . S
C538 C541 1.348 . S
C538 C542 1.356 . S
C538 O589 1.325 . S
C539 N540 1.279 . S
C539 C542 1.358 . S
C539 H596 0.930 . S
N540 C539 1.279 . S
N540 C543 1.314 . S
C541 C538 1.348 . S
C541 C543 1.353 . S
C541 H597 0.929 . S
C542 C538 1.356 . S
C542 C539 1.358 . S
C542 H598 0.930 . S
C543 N540 1.314 . S
C543 C541 1.353 . S
C543 H599 0.930 . S
C544 N545 1.314 . S
C544 C549 1.353 . S
C544 H550 0.930 . S
N545 Li528 1.990 . S
N545 C544 1.314 . S
N545 C547 1.279 . S
C546 C547 1.358 . S
C546 C548 1.356 . S
C546 H600 0.930 . S
C547 N545 1.279 . S
C547 C546 1.358 . S
C547 H551 0.930 . S
C548 C546 1.356 . S
C548 C549 1.348 . S
C549 C544 1.353 . S
C549 C548 1.348 . S
C549 H601 0.929 . S
H550 C544 0.930 . S
H551 C547 0.930 . S
C552 N553 1.314 . S
C552 C554 1.353 . S
C552 H558 0.930 . S
N553 Li529 1.990 . S
N553 C552 1.314 . S
N553 C556 1.279 . S
C554 C552 1.353 . S
C554 C557 1.348 . S
C554 H602 0.929 . S
C555 C556 1.358 . S
C555 C557 1.356 . S
C555 H603 0.930 . S
C556 N553 1.279 . S
C556 C555 1.358 . S
C556 H559 0.930 . S
C557 C554 1.348 . S
C557 C555 1.356 . S
H558 C552 0.930 . S
H559 C556 0.930 . S
C560 C562 1.348 . S
C560 C563 1.356 . S
C560 O590 1.325 . S
N561 C564 1.314 . S
N561 C565 1.279 . S
C562 C560 1.348 . S
C562 C564 1.353 . S
C562 H604 0.929 . S
C563 C560 1.356 . S
C563 C565 1.358 . S
C563 H605 0.930 . S
C564 N561 1.314 . S
C564 C562 1.353 . S
C564 H606 0.930 . S
C565 N561 1.279 . S
C565 C563 1.358 . S
C565 H607 0.930 . S
C566 C567 1.348 . S
C566 C568 1.356 . S
C566 O591 1.325 . S
C567 C566 1.348 . S
C567 C569 1.353 . S
C567 H608 0.929 . S
C568 C566 1.356 . S
C568 C570 1.358 . S
C568 H609 0.930 . S
C569 C567 1.353 . S
C569 N571 1.314 . S
C569 H610 0.930 . S
C570 C568 1.358 . S
C570 N571 1.279 . S
C570 H611 0.930 . S
N571 C569 1.314 . S
N571 C570 1.279 . S
C572 C574 1.353 . S
C572 N575 1.314 . S
C572 H578 0.930 . S
C573 N575 1.279 . S
C573 C576 1.358 . S
C573 H579 0.930 . S
C574 C572 1.353 . S
C574 C577 1.348 . S
C574 H612 0.929 . S
N575 Li530 1.990 . S
N575 C572 1.314 . S
N575 C573 1.279 . S
C576 C573 1.358 . S
C576 C577 1.356 . S
C576 H613 0.930 . S
C577 C574 1.348 . S
C577 C576 1.356 . S
H578 C572 0.930 . S
H579 C573 0.930 . S
C580 N581 1.314 . S
C580 C582 1.353 . S
C580 H586 0.930 . S
N581 Li531 1.990 . S
N581 C580 1.314 . S
N581 C584 1.279 . S
C582 C580 1.353 . S
C582 C585 1.348 . S
C582 H614 0.929 . S
C583 C584 1.358 . S
C583 C585 1.356 . S
C583 H615 0.930 . S
C584 N581 1.279 . S
C584 C583 1.358 . S
C584 H587 0.930 . S
C585 C582 1.348 . S
C585 C583 1.356 . S
H586 C580 0.930 . S
H587 C584 0.930 . S
O588 Li528 1.956 . S
O588 Li529 1.970 . S
O588 Li530 1.961 . S
O588 C532 1.325 . S
O589 Li528 1.970 . S
O589 Li529 1.956 . S
O589 Li531 1.961 . S
O589 C538 1.325 . S
O590 Li528 1.961 . S
O590 Li530 1.956 . S
O590 Li531 1.970 . S
O590 C560 1.325 . S
O591 Li529 1.961 . S
O591 Li530 1.970 . S
O591 Li531 1.956 . S
O591 C566 1.325 . S
H592 C534 0.929 . S
H593 C535 0.930 . S
H594 C536 0.930 . S
H595 C537 0.930 . S
H596 C539 0.930 . S
H597 C541 0.929 . S
H598 C542 0.930 . S
H599 C543 0.930 . S
H600 C546 0.930 . S
H601 C549 0.929 . S
H602 C554 0.929 . S
H603 C555 0.930 . S
H604 C562 0.929 . S
H605 C563 0.930 . S
H606 C564 0.930 . S
H607 C565 0.930 . S
H608 C567 0.929 . S
H609 C568 0.930 . S
H610 C569 0.930 . S
H611 C570 0.930 . S
H612 C574 0.929 . S
H613 C576 0.930 . S
H614 C582 0.929 . S
H615 C583 0.930 . S
Li616 N633 1.990 . S
Li616 O676 1.956 . S
Li616 O677 1.970 . S
Li616 O678 1.961 . S
Li617 N641 1.990 . S
Li617 O676 1.970 . S
Li617 O677 1.956 . S
Li617 O679 1.961 . S
Li618 N663 1.931 1_565 S
Li618 O676 1.961 . S
Li618 O678 1.956 . S
Li618 O679 1.970 . S
Li619 N669 1.990 . S
Li619 O677 1.961 . S
Li619 O678 1.970 . S
Li619 O679 1.956 . S
C620 C622 1.348 . S
C620 C623 1.356 . S
C620 O676 1.325 . S
N621 C624 1.314 . S
N621 C625 1.279 . S
C622 C620 1.348 . S
C622 C624 1.353 . S
C622 H680 0.929 . S
C623 C620 1.356 . S
C623 C625 1.358 . S
C623 H681 0.930 . S
C624 N621 1.314 . S
C624 C622 1.353 . S
C624 H682 0.930 . S
C625 N621 1.279 . S
C625 C623 1.358 . S
C625 H683 0.930 . S
C626 C629 1.348 . S
C626 C630 1.356 . S
C626 O677 1.325 . S
C627 N628 1.279 . S
C627 C630 1.358 . S
C627 H684 0.930 . S
N628 C627 1.279 . S
N628 C631 1.314 . S
C629 C626 1.348 . S
C629 C631 1.353 . S
C629 H685 0.929 . S
C630 C626 1.356 . S
C630 C627 1.358 . S
C630 H686 0.930 . S
C631 N628 1.314 . S
C631 C629 1.353 . S
C631 H687 0.930 . S
C632 N633 1.314 . S
C632 C637 1.353 . S
C632 H638 0.930 . S
N633 Li616 1.990 . S
N633 C632 1.314 . S
N633 C635 1.279 . S
C634 C635 1.358 . S
C634 C636 1.356 . S
C634 H688 0.930 . S
C635 N633 1.279 . S
C635 C634 1.358 . S
C635 H639 0.930 . S
C636 C634 1.356 . S
C636 C637 1.348 . S
C637 C632 1.353 . S
C637 C636 1.348 . S
C637 H689 0.929 . S
H638 C632 0.930 . S
H639 C635 0.930 . S
C640 N641 1.314 . S
C640 C642 1.353 . S
C640 H646 0.930 . S
N641 Li617 1.990 . S
N641 C640 1.314 . S
N641 C644 1.279 . S
C642 C640 1.353 . S
C642 C645 1.348 . S
C642 H690 0.929 . S
C643 C644 1.358 . S
C643 C645 1.356 . S
C643 H691 0.930 . S
C644 N641 1.279 . S
C644 C643 1.358 . S
C644 H647 0.930 . S
C645 C642 1.348 . S
C645 C643 1.356 . S
H646 C640 0.930 . S
H647 C644 0.930 . S
C648 C650 1.348 . S
C648 C651 1.356 . S
C648 O678 1.325 . S
N649 C652 1.314 . S
N649 C653 1.279 . S
C650 C648 1.348 . S
C650 C652 1.353 1_565 S
C650 H692 0.929 . S
C651 C648 1.356 . S
C651 C653 1.358 1_565 S
C651 H693 0.930 . S
C652 N649 1.314 . S
C652 C650 1.353 1_545 S
C652 H694 0.930 . S
C653 N649 1.279 . S
C653 C651 1.358 1_545 S
C653 H695 0.930 . S
C654 C655 1.348 . S
C654 C656 1.356 . S
C654 O679 1.325 . S
C655 C654 1.348 . S
C655 C657 1.353 . S
C655 H696 0.929 . S
C656 C654 1.356 . S
C656 C658 1.358 . S
C656 H697 0.930 . S
C657 C655 1.353 . S
C657 N659 1.314 . S
C657 H698 0.930 1_565 S
C658 C656 1.358 . S
C658 N659 1.279 . S
C658 H699 0.930 . S
N659 C657 1.314 . S
N659 C658 1.279 . S
C660 C662 1.353 . S
C660 N663 1.335 . S
C660 H666 0.930 1_545 S
C661 N663 1.325 . S
C661 C664 1.358 . S
C661 H667 0.930 . S
C662 C660 1.353 . S
C662 C665 1.348 . S
C662 H700 0.929 . S
N663 Li618 1.931 1_545 S
N663 C660 1.335 . S
N663 C661 1.325 . S
C664 C661 1.358 . S
C664 C665 1.356 . S
C664 H701 0.930 . S
C665 C662 1.348 . S
C665 C664 1.356 . S
H666 C660 0.930 1_565 S
H667 C661 0.930 . S
C668 N669 1.314 . S
C668 C670 1.353 . S
C668 H674 0.930 . S
N669 Li619 1.990 . S
N669 C668 1.314 . S
N669 C672 1.279 . S
C670 C668 1.353 . S
C670 C673 1.348 . S
C670 H702 0.929 . S
C671 C672 1.358 . S
C671 C673 1.356 . S
C671 H703 0.930 . S
C672 N669 1.279 . S
C672 C671 1.358 . S
C672 H675 0.930 . S
C673 C670 1.348 . S
C673 C671 1.356 . S
H674 C668 0.930 . S
H675 C672 0.930 . S
O676 Li616 1.956 . S
O676 Li617 1.970 . S
O676 Li618 1.961 . S
O676 C620 1.325 . S
O677 Li616 1.970 . S
O677 Li617 1.956 . S
O677 Li619 1.961 . S
O677 C626 1.325 . S
O678 Li616 1.961 . S
O678 Li618 1.956 . S
O678 Li619 1.970 . S
O678 C648 1.325 . S
O679 Li617 1.961 . S
O679 Li618 1.970 . S
O679 Li619 1.956 . S
O679 C654 1.325 . S
H680 C622 0.929 . S
H681 C623 0.930 . S
H682 C624 0.930 . S
H683 C625 0.930 . S
H684 C627 0.930 . S
H685 C629 0.929 . S
H686 C630 0.930 . S
H687 C631 0.930 . S
H688 C634 0.930 . S
H689 C637 0.929 . S
H690 C642 0.929 . S
H691 C643 0.930 . S
H692 C650 0.929 . S
H693 C651 0.930 . S
H694 C652 0.930 . S
H695 C653 0.930 . S
H696 C655 0.929 . S
H697 C656 0.930 . S
H698 C657 0.930 1_545 S
H699 C658 0.930 . S
H700 C662 0.929 . S
H701 C664 0.930 . S
H702 C670 0.929 . S
H703 C671 0.930 . S
Li704 N721 1.990 . S
Li704 O764 1.956 . S
Li704 O765 1.970 . S
Li704 O766 1.961 . S
Li705 N729 1.990 . S
Li705 O764 1.970 . S
Li705 O765 1.956 . S
Li705 O767 1.961 . S
Li706 N751 1.990 . S
Li706 O764 1.961 . S
Li706 O766 1.956 . S
Li706 O767 1.970 . S
Li707 N757 1.990 . S
Li707 O765 1.961 . S
Li707 O766 1.970 . S
Li707 O767 1.956 . S
C708 C710 1.348 . S
C708 C711 1.356 . S
C708 O764 1.325 . S
N709 C712 1.314 . S
N709 C713 1.279 . S
C710 C708 1.348 . S
C710 C712 1.353 . S
C710 H768 0.929 . S
C711 C708 1.356 . S
C711 C713 1.358 . S
C711 H769 0.930 . S
C712 N709 1.314 . S
C712 C710 1.353 . S
C712 H770 0.930 . S
C713 N709 1.279 . S
C713 C711 1.358 . S
C713 H771 0.930 . S
C714 C717 1.348 . S
C714 C718 1.356 . S
C714 O765 1.325 . S
C715 N716 1.279 . S
C715 C718 1.358 . S
C715 H772 0.930 . S
N716 C715 1.279 . S
N716 C719 1.314 . S
C717 C714 1.348 . S
C717 C719 1.353 . S
C717 H773 0.929 . S
C718 C714 1.356 . S
C718 C715 1.358 . S
C718 H774 0.930 . S
C719 N716 1.314 . S
C719 C717 1.353 . S
C719 H775 0.930 . S
C720 N721 1.314 . S
C720 C725 1.353 . S
C720 H726 0.930 . S
N721 Li704 1.990 . S
N721 C720 1.314 . S
N721 C723 1.279 . S
C722 C723 1.358 . S
C722 C724 1.356 . S
C722 H776 0.930 . S
C723 N721 1.279 . S
C723 C722 1.358 . S
C723 H727 0.930 . S
C724 C722 1.356 . S
C724 C725 1.348 . S
C725 C720 1.353 . S
C725 C724 1.348 . S
C725 H777 0.929 . S
H726 C720 0.930 . S
H727 C723 0.930 . S
C728 N729 1.314 . S
C728 C730 1.353 . S
C728 H734 0.930 . S
N729 Li705 1.990 . S
N729 C728 1.314 . S
N729 C732 1.279 . S
C730 C728 1.353 . S
C730 C733 1.348 . S
C730 H778 0.929 . S
C731 C732 1.358 . S
C731 C733 1.356 . S
C731 H779 0.930 . S
C732 N729 1.279 . S
C732 C731 1.358 . S
C732 H735 0.930 . S
C733 C730 1.348 . S
C733 C731 1.356 . S
H734 C728 0.930 . S
H735 C732 0.930 . S
C736 C738 1.348 . S
C736 C739 1.356 . S
C736 O766 1.325 . S
N737 C740 1.314 1_655 S
N737 C741 1.279 1_655 S
C738 C736 1.348 . S
C738 C740 1.353 . S
C738 H780 0.929 . S
C739 C736 1.356 . S
C739 C741 1.358 . S
C739 H781 0.930 . S
C740 N737 1.314 1_455 S
C740 C738 1.353 . S
C740 H782 0.887 1_455 S
C741 N737 1.279 1_455 S
C741 C739 1.358 . S
C741 H783 0.930 . S
C742 C743 1.348 . S
C742 C744 1.356 . S
C742 O767 1.325 . S
C743 C742 1.348 . S
C743 C745 1.353 . S
C743 H784 0.929 . S
C744 C742 1.356 . S
C744 C746 1.358 . S
C744 H785 0.930 . S
C745 C743 1.353 . S
C745 N747 1.314 . S
C745 H786 0.930 . S
C746 C744 1.358 . S
C746 N747 1.279 . S
C746 H787 0.930 . S
N747 C745 1.314 . S
N747 C746 1.279 . S
C748 C750 1.353 1_455 S
C748 N751 1.314 . S
C748 H754 0.930 . S
C749 N751 1.279 1_655 S
C749 C752 1.358 . S
C749 H755 0.930 . S
C750 C748 1.353 1_655 S
C750 C753 1.348 . S
C750 H788 0.929 . S
N751 Li706 1.990 . S
N751 C748 1.314 . S
N751 C749 1.279 1_455 S
C752 C749 1.358 . S
C752 C753 1.356 . S
C752 H789 0.930 . S
C753 C750 1.348 . S
C753 C752 1.356 . S
H754 C748 0.930 . S
H755 C749 0.930 . S
C756 N757 1.314 . S
C756 C758 1.353 . S
C756 H762 0.930 . S
N757 Li707 1.990 . S
N757 C756 1.314 . S
N757 C760 1.279 . S
C758 C756 1.353 . S
C758 C761 1.348 . S
C758 H790 0.929 . S
C759 C760 1.358 . S
C759 C761 1.356 . S
C759 H791 0.930 . S
C760 N757 1.279 . S
C760 C759 1.358 . S
C760 H763 0.930 . S
C761 C758 1.348 . S
C761 C759 1.356 . S
H762 C756 0.930 . S
H763 C760 0.930 . S
O764 Li704 1.956 . S
O764 Li705 1.970 . S
O764 Li706 1.961 . S
O764 C708 1.325 . S
O765 Li704 1.970 . S
O765 Li705 1.956 . S
O765 Li707 1.961 . S
O765 C714 1.325 . S
O766 Li704 1.961 . S
O766 Li706 1.956 . S
O766 Li707 1.970 . S
O766 C736 1.325 . S
O767 Li705 1.961 . S
O767 Li706 1.970 . S
O767 Li707 1.956 . S
O767 C742 1.325 . S
H768 C710 0.929 . S
H769 C711 0.930 . S
H770 C712 0.930 . S
H771 C713 0.930 . S
H772 C715 0.930 . S
H773 C717 0.929 . S
H774 C718 0.930 . S
H775 C719 0.930 . S
H776 C722 0.930 . S
H777 C725 0.929 . S
H778 C730 0.929 . S
H779 C731 0.930 . S
H780 C738 0.929 . S
H781 C739 0.930 . S
H782 C740 0.887 1_655 S
H783 C741 0.930 . S
H784 C743 0.929 . S
H785 C744 0.930 . S
H786 C745 0.930 . S
H787 C746 0.930 . S
H788 C750 0.929 . S
H789 C752 0.930 . S
H790 C758 0.929 . S
H791 C759 0.930 . S
Li792 N809 1.990 1_565 S
Li792 O852 1.956 . S
Li792 O853 1.970 . S
Li792 O854 1.961 . S
Li793 N817 1.990 . S
Li793 O852 1.970 . S
Li793 O853 1.956 . S
Li793 O855 1.961 . S
Li794 N839 1.990 . S
Li794 O852 1.961 . S
Li794 O854 1.956 . S
Li794 O855 1.970 . S
Li795 N845 1.990 . S
Li795 O853 1.961 . S
Li795 O854 1.970 . S
Li795 O855 1.956 . S
C796 C798 1.348 . S
C796 C799 1.356 . S
C796 O852 1.325 . S
N797 C800 1.314 . S
N797 C801 1.279 . S
C798 C796 1.348 . S
C798 C800 1.353 . S
C798 H856 0.929 . S
C799 C796 1.356 . S
C799 C801 1.358 . S
C799 H857 0.930 . S
C800 N797 1.314 . S
C800 C798 1.353 . S
C800 H858 0.930 . S
C801 N797 1.279 . S
C801 C799 1.358 . S
C801 H859 0.930 . S
C802 C805 1.348 . S
C802 C806 1.356 . S
C802 O853 1.325 . S
C803 N804 1.279 . S
C803 C806 1.358 . S
C803 H860 0.930 . S
N804 C803 1.279 . S
N804 C807 1.314 . S
C805 C802 1.348 . S
C805 C807 1.353 . S
C805 H861 0.929 . S
C806 C802 1.356 . S
C806 C803 1.358 . S
C806 H862 0.930 . S
C807 N804 1.314 . S
C807 C805 1.353 . S
C807 H863 0.930 . S
C808 N809 1.314 . S
C808 C813 1.353 . S
C808 H814 0.930 . S
N809 Li792 1.990 1_545 S
N809 C808 1.314 . S
N809 C811 1.279 . S
C810 C811 1.358 . S
C810 C812 1.356 . S
C810 H864 0.930 . S
C811 N809 1.279 . S
C811 C810 1.358 . S
C811 H815 0.930 1_545 S
C812 C810 1.356 . S
C812 C813 1.348 . S
C813 C808 1.353 . S
C813 C812 1.348 . S
C813 H865 0.929 . S
H814 C808 0.930 . S
H815 C811 0.930 1_565 S
C816 N817 1.314 . S
C816 C818 1.353 . S
C816 H822 0.930 . S
N817 Li793 1.990 . S
N817 C816 1.314 . S
N817 C820 1.279 . S
C818 C816 1.353 . S
C818 C821 1.348 . S
C818 H866 0.929 . S
C819 C820 1.358 . S
C819 C821 1.356 . S
C819 H867 0.930 . S
C820 N817 1.279 . S
C820 C819 1.358 . S
C820 H823 0.930 . S
C821 C818 1.348 . S
C821 C819 1.356 . S
H822 C816 0.930 . S
H823 C820 0.930 . S
C824 C826 1.348 . S
C824 C827 1.356 . S
C824 O854 1.325 . S
N825 C828 1.314 1_545 S
N825 C829 1.279 . S
C826 C824 1.348 . S
C826 C828 1.353 . S
C826 H868 0.929 . S
C827 C824 1.356 . S
C827 C829 1.358 1_565 S
C827 H869 0.930 . S
C828 N825 1.314 1_565 S
C828 C826 1.353 . S
C828 H870 0.930 . S
C829 N825 1.279 . S
C829 C827 1.358 1_545 S
C829 H871 0.930 . S
C830 C831 1.348 . S
C830 C832 1.356 . S
C830 O855 1.325 . S
C831 C830 1.348 . S
C831 C833 1.353 . S
C831 H872 0.929 . S
C832 C830 1.356 . S
C832 C834 1.358 . S
C832 H873 0.930 . S
C833 C831 1.353 . S
C833 N835 1.314 . S
C833 H874 0.930 . S
C834 C832 1.358 . S
C834 N835 1.279 . S
C834 H875 0.930 . S
N835 C833 1.314 . S
N835 C834 1.279 . S
C836 C838 1.353 . S
C836 N839 1.314 . S
C836 H842 0.930 . S
C837 N839 1.279 . S
C837 C840 1.358 . S
C837 H843 0.930 . S
C838 C836 1.353 . S
C838 C841 1.348 . S
C838 H876 0.929 . S
N839 Li794 1.990 . S
N839 C836 1.314 . S
N839 C837 1.279 . S
C840 C837 1.358 . S
C840 C841 1.356 . S
C840 H877 0.930 . S
C841 C838 1.348 . S
C841 C840 1.356 . S
H842 C836 0.930 . S
H843 C837 0.930 . S
C844 N845 1.314 . S
C844 C846 1.353 . S
C844 H850 0.930 . S
N845 Li795 1.990 . S
N845 C844 1.314 . S
N845 C848 1.279 . S
C846 C844 1.353 . S
C846 C849 1.348 . S
C846 H878 0.929 . S
C847 C848 1.358 . S
C847 C849 1.356 . S
C847 H879 0.930 . S
C848 N845 1.279 . S
C848 C847 1.358 . S
C848 H851 0.930 . S
C849 C846 1.348 . S
C849 C847 1.356 . S
H850 C844 0.930 . S
H851 C848 0.930 . S
O852 Li792 1.956 . S
O852 Li793 1.970 . S
O852 Li794 1.961 . S
O852 C796 1.325 . S
O853 Li792 1.970 . S
O853 Li793 1.956 . S
O853 Li795 1.961 . S
O853 C802 1.325 . S
O854 Li792 1.961 . S
O854 Li794 1.956 . S
O854 Li795 1.970 . S
O854 C824 1.325 . S
O855 Li793 1.961 . S
O855 Li794 1.970 . S
O855 Li795 1.956 . S
O855 C830 1.325 . S
H856 C798 0.929 . S
H857 C799 0.930 . S
H858 C800 0.930 . S
H859 C801 0.930 . S
H860 C803 0.930 . S
H861 C805 0.929 . S
H862 C806 0.930 . S
H863 C807 0.930 . S
H864 C810 0.930 . S
H865 C813 0.929 . S
H866 C818 0.929 . S
H867 C819 0.930 . S
H868 C826 0.929 . S
H869 C827 0.930 . S
H870 C828 0.930 . S
H871 C829 0.930 . S
H872 C831 0.929 . S
H873 C832 0.930 . S
H874 C833 0.930 . S
H875 C834 0.930 . S
H876 C838 0.929 . S
H877 C840 0.930 . S
H878 C846 0.929 . S
H879 C847 0.930 . S
Li880 N897 1.990 . S
Li880 O940 1.956 . S
Li880 O941 1.970 . S
Li880 O942 1.961 . S
Li881 N905 1.990 . S
Li881 O940 1.970 . S
Li881 O941 1.956 . S
Li881 O943 1.961 . S
Li882 N927 1.990 . S
Li882 O940 1.961 . S
Li882 O942 1.956 . S
Li882 O943 1.970 . S
Li883 N933 1.990 . S
Li883 O941 1.961 . S
Li883 O942 1.970 . S
Li883 O943 1.956 . S
C884 C886 1.348 . S
C884 C887 1.356 . S
C884 O940 1.325 . S
N885 C888 1.314 . S
N885 C889 1.279 . S
C886 C884 1.348 . S
C886 C888 1.353 . S
C886 H944 0.929 . S
C887 C884 1.356 . S
C887 C889 1.358 . S
C887 H945 0.930 . S
C888 N885 1.314 . S
C888 C886 1.353 . S
C888 H946 0.930 . S
C889 N885 1.279 . S
C889 C887 1.358 . S
C889 H947 0.930 . S
C890 C893 1.348 . S
C890 C894 1.356 . S
C890 O941 1.325 . S
C891 N892 1.279 . S
C891 C894 1.358 . S
C891 H948 0.930 . S
N892 C891 1.279 . S
N892 C895 1.314 . S
C893 C890 1.348 . S
C893 C895 1.353 . S
C893 H949 0.929 . S
C894 C890 1.356 . S
C894 C891 1.358 . S
C894 H950 0.930 . S
C895 N892 1.314 . S
C895 C893 1.353 . S
C895 H951 0.930 . S
C896 N897 1.314 . S
C896 C901 1.353 . S
C896 H902 0.930 . S
N897 Li880 1.990 . S
N897 C896 1.314 . S
N897 C899 1.279 . S
C898 C899 1.358 . S
C898 C900 1.356 . S
C898 H952 0.930 . S
C899 N897 1.279 . S
C899 C898 1.358 . S
C899 H903 0.930 . S
C900 C898 1.356 . S
C900 C901 1.348 . S
C901 C896 1.353 . S
C901 C900 1.348 . S
C901 H953 0.929 . S
H902 C896 0.930 . S
H903 C899 0.930 . S
C904 N905 1.314 1_655 S
C904 C906 1.353 . S
C904 H910 0.930 . S
N905 Li881 1.990 . S
N905 C904 1.314 1_455 S
N905 C908 1.327 . S
C906 C904 1.353 . S
C906 C909 1.348 . S
C906 H954 0.929 . S
C907 C908 1.282 1_655 S
C907 C909 1.356 . S
C907 H955 0.930 . S
C908 N905 1.327 . S
C908 C907 1.282 1_455 S
C908 H911 0.969 . S
C909 C906 1.348 . S
C909 C907 1.356 . S
H910 C904 0.930 . S
H911 C908 0.969 . S
C912 C914 1.348 . S
C912 C915 1.356 . S
C912 O942 1.325 . S
N913 C916 1.314 . S
N913 C917 1.279 . S
C914 C912 1.348 . S
C914 C916 1.353 . S
C914 H956 0.929 . S
C915 C912 1.356 . S
C915 C917 1.358 . S
C915 H957 0.930 . S
C916 N913 1.314 . S
C916 C914 1.353 . S
C916 H958 0.930 . S
C917 N913 1.279 . S
C917 C915 1.358 . S
C917 H959 0.930 . S
C918 C919 1.348 . S
C918 C920 1.356 . S
C918 O943 1.325 . S
C919 C918 1.348 . S
C919 C921 1.353 . S
C919 H960 0.929 . S
C920 C918 1.356 . S
C920 C922 1.358 1_455 S
C920 H961 0.930 . S
C921 C919 1.353 . S
C921 N923 1.314 1_455 S
C921 H962 0.930 . S
C922 C920 1.358 1_655 S
C922 N923 1.279 . S
C922 H963 0.930 . S
N923 C921 1.314 1_655 S
N923 C922 1.279 . S
C924 C926 1.353 . S
C924 N927 1.314 . S
C924 H930 0.930 . S
C925 N927 1.279 . S
C925 C928 1.358 . S
C925 H931 0.930 . S
C926 C924 1.353 . S
C926 C929 1.348 . S
C926 H964 0.929 . S
N927 Li882 1.990 . S
N927 C924 1.314 . S
N927 C925 1.279 . S
C928 C925 1.358 . S
C928 C929 1.356 . S
C928 H965 0.930 . S
C929 C926 1.348 . S
C929 C928 1.356 . S
H930 C924 0.930 . S
H931 C925 0.930 . S
C932 N933 1.314 . S
C932 C934 1.353 . S
C932 H938 0.930 . S
N933 Li883 1.990 . S
N933 C932 1.314 . S
N933 C936 1.279 . S
C934 C932 1.353 . S
C934 C937 1.348 . S
C934 H966 0.929 . S
C935 C936 1.358 . S
C935 C937 1.356 . S
C935 H967 0.930 . S
C936 N933 1.279 . S
C936 C935 1.358 . S
C936 H939 0.930 . S
C937 C934 1.348 . S
C937 C935 1.356 . S
H938 C932 0.930 . S
H939 C936 0.930 . S
O940 Li880 1.956 . S
O940 Li881 1.970 . S
O940 Li882 1.961 . S
O940 C884 1.325 . S
O941 Li880 1.970 . S
O941 Li881 1.956 . S
O941 Li883 1.961 . S
O941 C890 1.325 . S
O942 Li880 1.961 . S
O942 Li882 1.956 . S
O942 Li883 1.970 . S
O942 C912 1.325 . S
O943 Li881 1.961 . S
O943 Li882 1.970 . S
O943 Li883 1.956 . S
O943 C918 1.325 . S
H944 C886 0.929 . S
H945 C887 0.930 . S
H946 C888 0.930 . S
H947 C889 0.930 . S
H948 C891 0.930 . S
H949 C893 0.929 . S
H950 C894 0.930 . S
H951 C895 0.930 . S
H952 C898 0.930 . S
H953 C901 0.929 . S
H954 C906 0.929 . S
H955 C907 0.930 . S
H956 C914 0.929 . S
H957 C915 0.930 . S
H958 C916 0.930 . S
H959 C917 0.930 . S
H960 C919 0.929 . S
H961 C920 0.930 . S
H962 C921 0.930 . S
H963 C922 0.930 . S
H964 C926 0.929 . S
H965 C928 0.930 . S
H966 C934 0.929 . S
H967 C935 0.930 . S
Li968 N985 1.990 . S
Li968 O1028 1.956 . S
Li968 O1029 1.970 . S
Li968 O1030 1.961 . S
Li969 N993 1.990 . S
Li969 O1028 1.970 . S
Li969 O1029 1.956 . S
Li969 O1031 1.961 . S
Li970 N1015 1.990 . S
Li970 O1028 1.961 . S
Li970 O1030 1.956 . S
Li970 O1031 1.970 . S
Li971 N1021 1.990 . S
Li971 O1029 1.961 . S
Li971 O1030 1.970 . S
Li971 O1031 1.956 . S
C972 C974 1.348 . S
C972 C975 1.356 . S
C972 O1028 1.325 . S
N973 C976 1.314 . S
N973 C977 1.279 . S
C974 C972 1.348 . S
C974 C976 1.353 . S
C974 H1032 0.929 . S
C975 C972 1.356 . S
C975 C977 1.358 . S
C975 H1033 0.930 . S
C976 N973 1.314 . S
C976 C974 1.353 . S
C976 H1034 0.930 . S
C977 N973 1.279 . S
C977 C975 1.358 . S
C977 H1035 0.930 . S
C978 C981 1.348 . S
C978 C982 1.356 . S
C978 O1029 1.325 . S
C979 N980 1.279 . S
C979 C982 1.358 . S
C979 H1036 0.930 . S
N980 C979 1.279 . S
N980 C983 1.314 . S
C981 C978 1.348 . S
C981 C983 1.353 . S
C981 H1037 0.929 . S
C982 C978 1.356 . S
C982 C979 1.358 . S
C982 H1038 0.930 . S
C983 N980 1.314 . S
C983 C981 1.353 . S
C983 H1039 0.930 . S
C984 N985 1.314 . S
C984 C989 1.353 . S
C984 H990 0.930 . S
N985 Li968 1.990 . S
N985 C984 1.314 . S
N985 C987 1.279 . S
C986 C987 1.358 . S
C986 C988 1.356 . S
C986 H1040 0.930 . S
C987 N985 1.279 . S
C987 C986 1.358 . S
C987 H991 0.930 . S
C988 C986 1.356 . S
C988 C989 1.348 . S
C989 C984 1.353 . S
C989 C988 1.348 . S
C989 H1041 0.929 . S
H990 C984 0.930 . S
H991 C987 0.930 . S
C992 N993 1.314 . S
C992 C994 1.353 . S
C992 H998 0.930 . S
N993 Li969 1.990 . S
N993 C992 1.314 . S
N993 C996 1.279 . S
C994 C992 1.353 . S
C994 C997 1.348 . S
C994 H1042 0.929 . S
C995 C996 1.358 . S
C995 C997 1.356 . S
C995 H1043 0.930 . S
C996 N993 1.279 . S
C996 C995 1.358 . S
C996 H999 0.930 . S
C997 C994 1.348 . S
C997 C995 1.356 . S
H998 C992 0.930 . S
H999 C996 0.930 . S
C1000 C1002 1.348 . S
C1000 C1003 1.356 . S
C1000 O1030 1.325 . S
N1001 C1004 1.314 . S
N1001 C1005 1.279 . S
C1002 C1000 1.348 . S
C1002 C1004 1.353 . S
C1002 H1044 0.929 . S
C1003 C1000 1.356 . S
C1003 C1005 1.358 . S
C1003 H1045 0.930 . S
C1004 N1001 1.314 . S
C1004 C1002 1.353 . S
C1004 H1046 0.930 . S
C1005 N1001 1.279 . S
C1005 C1003 1.358 . S
C1005 H1047 0.930 . S
C1006 C1007 1.348 . S
C1006 C1008 1.356 . S
C1006 O1031 1.325 . S
C1007 C1006 1.348 . S
C1007 C1009 1.353 . S
C1007 H1048 0.929 . S
C1008 C1006 1.356 . S
C1008 C1010 1.358 . S
C1008 H1049 0.930 . S
C1009 C1007 1.353 . S
C1009 N1011 1.314 . S
C1009 H1050 0.930 . S
C1010 C1008 1.358 . S
C1010 N1011 1.279 . S
C1010 H1051 0.930 . S
N1011 C1009 1.314 . S
N1011 C1010 1.279 . S
C1012 C1014 1.353 . S
C1012 N1015 1.314 . S
C1012 H1018 0.930 . S
C1013 N1015 1.279 . S
C1013 C1016 1.358 . S
C1013 H1019 0.930 . S
C1014 C1012 1.353 . S
C1014 C1017 1.348 . S
C1014 H1052 0.929 . S
N1015 Li970 1.990 . S
N1015 C1012 1.314 . S
N1015 C1013 1.279 . S
C1016 C1013 1.358 . S
C1016 C1017 1.356 . S
C1016 H1053 0.930 . S
C1017 C1014 1.348 . S
C1017 C1016 1.356 . S
H1018 C1012 0.930 . S
H1019 C1013 0.930 . S
C1020 N1021 1.314 . S
C1020 C1022 1.353 . S
C1020 H1026 0.930 . S
N1021 Li971 1.990 . S
N1021 C1020 1.314 . S
N1021 C1024 1.279 . S
C1022 C1020 1.353 . S
C1022 C1025 1.348 . S
C1022 H1054 0.929 . S
C1023 C1024 1.358 . S
C1023 C1025 1.356 . S
C1023 H1055 0.930 . S
C1024 N1021 1.279 . S
C1024 C1023 1.358 . S
C1024 H1027 0.930 . S
C1025 C1022 1.348 . S
C1025 C1023 1.356 . S
H1026 C1020 0.930 . S
H1027 C1024 0.930 . S
O1028 Li968 1.956 . S
O1028 Li969 1.970 . S
O1028 Li970 1.961 . S
O1028 C972 1.325 . S
O1029 Li968 1.970 . S
O1029 Li969 1.956 . S
O1029 Li971 1.961 . S
O1029 C978 1.325 . S
O1030 Li968 1.961 . S
O1030 Li970 1.956 . S
O1030 Li971 1.970 . S
O1030 C1000 1.325 . S
O1031 Li969 1.961 . S
O1031 Li970 1.970 . S
O1031 Li971 1.956 . S
O1031 C1006 1.325 . S
H1032 C974 0.929 . S
H1033 C975 0.930 . S
H1034 C976 0.930 . S
H1035 C977 0.930 . S
H1036 C979 0.930 . S
H1037 C981 0.929 . S
H1038 C982 0.930 . S
H1039 C983 0.930 . S
H1040 C986 0.930 . S
H1041 C989 0.929 . S
H1042 C994 0.929 . S
H1043 C995 0.930 . S
H1044 C1002 0.929 . S
H1045 C1003 0.930 . S
H1046 C1004 0.930 . S
H1047 C1005 0.930 . S
H1048 C1007 0.929 . S
H1049 C1008 0.930 . S
H1050 C1009 0.930 . S
H1051 C1010 0.930 . S
H1052 C1014 0.929 . S
H1053 C1016 0.930 . S
H1054 C1022 0.929 . S
H1055 C1023 0.930 . S
Li1056 N1073 1.980 1_545 S
Li1056 O1116 1.956 . S
Li1056 O1117 1.970 . S
Li1056 O1118 1.961 . S
Li1057 N1081 1.990 . S
Li1057 O1116 1.970 . S
Li1057 O1117 1.956 . S
Li1057 O1119 1.961 . S
Li1058 N1103 1.990 . S
Li1058 O1116 1.961 . S
Li1058 O1118 1.956 . S
Li1058 O1119 1.970 . S
Li1059 N1109 1.990 . S
Li1059 O1117 1.961 . S
Li1059 O1118 1.970 . S
Li1059 O1119 1.956 . S
C1060 C1062 1.348 . S
C1060 C1063 1.356 . S
C1060 O1116 1.325 . S
N1061 C1064 1.314 . S
N1061 C1065 1.279 . S
C1062 C1060 1.348 . S
C1062 C1064 1.353 1_545 S
C1062 H1120 0.929 . S
C1063 C1060 1.356 . S
C1063 C1065 1.358 1_545 S
C1063 H1121 0.930 . S
C1064 N1061 1.314 . S
C1064 C1062 1.353 1_565 S
C1064 H1122 0.930 . S
C1065 N1061 1.279 . S
C1065 C1063 1.358 1_565 S
C1065 H1123 0.930 . S
C1066 C1069 1.348 . S
C1066 C1070 1.356 . S
C1066 O1117 1.325 . S
C1067 N1068 1.279 . S
C1067 C1070 1.358 . S
C1067 H1124 0.930 . S
N1068 C1067 1.279 . S
N1068 C1071 1.314 . S
C1069 C1066 1.348 . S
C1069 C1071 1.353 . S
C1069 H1125 0.929 . S
C1070 C1066 1.356 . S
C1070 C1067 1.358 . S
C1070 H1126 0.930 . S
C1071 N1068 1.314 . S
C1071 C1069 1.353 . S
C1071 H1127 0.930 1_545 S
C1072 N1073 1.312 . S
C1072 C1077 1.353 . S
C1072 H1078 0.930 1_565 S
N1073 Li1056 1.980 1_565 S
N1073 C1072 1.312 . S
N1073 C1075 1.294 . S
C1074 C1075 1.358 . S
C1074 C1076 1.356 . S
C1074 H1128 0.930 . S
C1075 N1073 1.294 . S
C1075 C1074 1.358 . S
C1075 H1079 0.930 . S
C1076 C1074 1.356 . S
C1076 C1077 1.348 . S
C1077 C1072 1.353 . S
C1077 C1076 1.348 . S
C1077 H1129 0.929 . S
H1078 C1072 0.930 1_545 S
H1079 C1075 0.930 . S
C1080 N1081 1.314 . S
C1080 C1082 1.353 . S
C1080 H1086 0.930 . S
N1081 Li1057 1.990 . S
N1081 C1080 1.314 . S
N1081 C1084 1.279 . S
C1082 C1080 1.353 . S
C1082 C1085 1.348 . S
C1082 H1130 0.929 . S
C1083 C1084 1.358 . S
C1083 C1085 1.356 . S
C1083 H1131 0.930 . S
C1084 N1081 1.279 . S
C1084 C1083 1.358 . S
C1084 H1087 0.930 . S
C1085 C1082 1.348 . S
C1085 C1083 1.356 . S
H1086 C1080 0.930 . S
H1087 C1084 0.930 . S
C1088 C1090 1.348 . S
C1088 C1091 1.356 . S
C1088 O1118 1.325 . S
N1089 C1092 1.314 . S
N1089 C1093 1.279 . S
C1090 C1088 1.348 . S
C1090 C1092 1.353 . S
C1090 H1132 0.929 . S
C1091 C1088 1.356 . S
C1091 C1093 1.358 . S
C1091 H1133 0.930 . S
C1092 N1089 1.314 . S
C1092 C1090 1.353 . S
C1092 H1134 0.930 . S
C1093 N1089 1.279 . S
C1093 C1091 1.358 . S
C1093 H1135 0.930 . S
C1094 C1095 1.348 . S
C1094 C1096 1.356 . S
C1094 O1119 1.325 . S
C1095 C1094 1.348 . S
C1095 C1097 1.353 . S
C1095 H1136 0.929 . S
C1096 C1094 1.356 . S
C1096 C1098 1.358 . S
C1096 H1137 0.930 . S
C1097 C1095 1.353 . S
C1097 N1099 1.314 . S
C1097 H1138 0.930 . S
C1098 C1096 1.358 . S
C1098 N1099 1.279 . S
C1098 H1139 0.930 . S
N1099 C1097 1.314 . S
N1099 C1098 1.279 . S
C1100 C1102 1.353 . S
C1100 N1103 1.314 . S
C1100 H1106 0.930 . S
C1101 N1103 1.279 . S
C1101 C1104 1.358 . S
C1101 H1107 0.930 . S
C1102 C1100 1.353 . S
C1102 C1105 1.348 . S
C1102 H1140 0.929 . S
N1103 Li1058 1.990 . S
N1103 C1100 1.314 . S
N1103 C1101 1.279 . S
C1104 C1101 1.358 . S
C1104 C1105 1.356 . S
C1104 H1141 0.930 . S
C1105 C1102 1.348 . S
C1105 C1104 1.356 . S
H1106 C1100 0.930 . S
H1107 C1101 0.930 . S
C1108 N1109 1.314 . S
C1108 C1110 1.353 . S
C1108 H1114 0.930 . S
N1109 Li1059 1.990 . S
N1109 C1108 1.314 . S
N1109 C1112 1.279 . S
C1110 C1108 1.353 . S
C1110 C1113 1.348 . S
C1110 H1142 0.929 . S
C1111 C1112 1.358 . S
C1111 C1113 1.356 . S
C1111 H1143 0.930 . S
C1112 N1109 1.279 . S
C1112 C1111 1.358 . S
C1112 H1115 0.930 . S
C1113 C1110 1.348 . S
C1113 C1111 1.356 . S
H1114 C1108 0.930 . S
H1115 C1112 0.930 . S
O1116 Li1056 1.956 . S
O1116 Li1057 1.970 . S
O1116 Li1058 1.961 . S
O1116 C1060 1.325 . S
O1117 Li1056 1.970 . S
O1117 Li1057 1.956 . S
O1117 Li1059 1.961 . S
O1117 C1066 1.325 . S
O1118 Li1056 1.961 . S
O1118 Li1058 1.956 . S
O1118 Li1059 1.970 . S
O1118 C1088 1.325 . S
O1119 Li1057 1.961 . S
O1119 Li1058 1.970 . S
O1119 Li1059 1.956 . S
O1119 C1094 1.325 . S
H1120 C1062 0.929 . S
H1121 C1063 0.930 . S
H1122 C1064 0.930 . S
H1123 C1065 0.930 . S
H1124 C1067 0.930 . S
H1125 C1069 0.929 . S
H1126 C1070 0.930 . S
H1127 C1071 0.930 1_565 S
H1128 C1074 0.930 . S
H1129 C1077 0.929 . S
H1130 C1082 0.929 . S
H1131 C1083 0.930 . S
H1132 C1090 0.929 . S
H1133 C1091 0.930 . S
H1134 C1092 0.930 . S
H1135 C1093 0.930 . S
H1136 C1095 0.929 . S
H1137 C1096 0.930 . S
H1138 C1097 0.930 . S
H1139 C1098 0.930 . S
H1140 C1102 0.929 . S
H1141 C1104 0.930 . S
H1142 C1110 0.929 . S
H1143 C1111 0.930 . S
Li1144 N1161 1.957 1_655 S
Li1144 O1204 1.956 . S
Li1144 O1205 1.970 . S
Li1144 O1206 1.961 . S
Li1145 N1169 1.990 . S
Li1145 O1204 1.970 . S
Li1145 O1205 1.956 . S
Li1145 O1207 1.961 . S
Li1146 N1191 1.990 . S
Li1146 O1204 1.961 . S
Li1146 O1206 1.956 . S
Li1146 O1207 1.970 . S
Li1147 N1197 1.990 . S
Li1147 O1205 1.961 . S
Li1147 O1206 1.970 . S
Li1147 O1207 1.956 . S
C1148 C1150 1.348 . S
C1148 C1151 1.356 . S
C1148 O1204 1.325 . S
N1149 C1152 1.314 . S
N1149 C1153 1.279 . S
C1150 C1148 1.348 . S
C1150 C1152 1.353 1_655 S
C1150 H1208 0.929 . S
C1151 C1148 1.356 . S
C1151 C1153 1.358 1_655 S
C1151 H1209 0.930 . S
C1152 N1149 1.314 . S
C1152 C1150 1.353 1_455 S
C1152 H1210 0.930 . S
C1153 N1149 1.279 . S
C1153 C1151 1.358 1_455 S
C1153 H1211 0.930 . S
C1154 C1157 1.348 . S
C1154 C1158 1.356 . S
C1154 O1205 1.325 . S
C1155 N1156 1.279 . S
C1155 C1158 1.358 . S
C1155 H1212 0.930 . S
N1156 C1155 1.279 . S
N1156 C1159 1.314 . S
C1157 C1154 1.348 . S
C1157 C1159 1.353 . S
C1157 H1213 0.929 . S
C1158 C1154 1.356 . S
C1158 C1155 1.358 . S
C1158 H1214 0.930 . S
C1159 N1156 1.314 . S
C1159 C1157 1.353 . S
C1159 H1215 0.930 1_655 S
C1160 N1161 1.327 . S
C1160 C1165 1.353 . S
C1160 H1166 0.930 1_455 S
N1161 Li1144 1.957 1_455 S
N1161 C1160 1.327 . S
N1161 C1163 1.303 . S
C1162 C1163 1.358 . S
C1162 C1164 1.356 . S
C1162 H1216 0.930 . S
C1163 N1161 1.303 . S
C1163 C1162 1.358 . S
C1163 H1167 0.930 . S
C1164 C1162 1.356 . S
C1164 C1165 1.348 . S
C1165 C1160 1.353 . S
C1165 C1164 1.348 . S
C1165 H1217 0.929 . S
H1166 C1160 0.930 1_655 S
H1167 C1163 0.930 . S
C1168 N1169 1.314 . S
C1168 C1170 1.353 . S
C1168 H1174 0.930 . S
N1169 Li1145 1.990 . S
N1169 C1168 1.314 . S
N1169 C1172 1.279 . S
C1170 C1168 1.353 . S
C1170 C1173 1.348 . S
C1170 H1218 0.929 . S
C1171 C1172 1.358 . S
C1171 C1173 1.356 . S
C1171 H1219 0.930 . S
C1172 N1169 1.279 . S
C1172 C1171 1.358 . S
C1172 H1175 0.930 . S
C1173 C1170 1.348 . S
C1173 C1171 1.356 . S
H1174 C1168 0.930 . S
H1175 C1172 0.930 . S
C1176 C1178 1.348 . S
C1176 C1179 1.356 . S
C1176 O1206 1.325 . S
N1177 C1180 1.314 . S
N1177 C1181 1.279 . S
C1178 C1176 1.348 . S
C1178 C1180 1.353 . S
C1178 H1220 0.929 . S
C1179 C1176 1.356 . S
C1179 C1181 1.358 . S
C1179 H1221 0.930 . S
C1180 N1177 1.314 . S
C1180 C1178 1.353 . S
C1180 H1222 0.930 . S
C1181 N1177 1.279 . S
C1181 C1179 1.358 . S
C1181 H1223 0.930 . S
C1182 C1183 1.348 . S
C1182 C1184 1.356 . S
C1182 O1207 1.325 . S
C1183 C1182 1.348 . S
C1183 C1185 1.353 . S
C1183 H1224 0.929 . S
C1184 C1182 1.356 . S
C1184 C1186 1.358 . S
C1184 H1225 0.930 . S
C1185 C1183 1.353 . S
C1185 N1187 1.314 . S
C1185 H1226 0.930 . S
C1186 C1184 1.358 . S
C1186 N1187 1.279 . S
C1186 H1227 0.930 . S
N1187 C1185 1.314 . S
N1187 C1186 1.279 . S
C1188 C1190 1.353 . S
C1188 N1191 1.314 . S
C1188 H1194 0.930 . S
C1189 N1191 1.279 . S
C1189 C1192 1.358 . S
C1189 H1195 0.930 . S
C1190 C1188 1.353 . S
C1190 C1193 1.348 . S
C1190 H1228 0.929 . S
N1191 Li1146 1.990 . S
N1191 C1188 1.314 . S
N1191 C1189 1.279 . S
C1192 C1189 1.358 . S
C1192 C1193 1.356 . S
C1192 H1229 0.930 . S
C1193 C1190 1.348 . S
C1193 C1192 1.356 . S
H1194 C1188 0.930 . S
H1195 C1189 0.930 . S
C1196 N1197 1.314 . S
C1196 C1198 1.353 . S
C1196 H1202 0.930 . S
N1197 Li1147 1.990 . S
N1197 C1196 1.314 . S
N1197 C1200 1.279 . S
C1198 C1196 1.353 . S
C1198 C1201 1.348 . S
C1198 H1230 0.929 . S
C1199 C1200 1.358 . S
C1199 C1201 1.356 . S
C1199 H1231 0.930 . S
C1200 N1197 1.279 . S
C1200 C1199 1.358 . S
C1200 H1203 0.930 . S
C1201 C1198 1.348 . S
C1201 C1199 1.356 . S
H1202 C1196 0.930 . S
H1203 C1200 0.930 . S
O1204 Li1144 1.956 . S
O1204 Li1145 1.970 . S
O1204 Li1146 1.961 . S
O1204 C1148 1.325 . S
O1205 Li1144 1.970 . S
O1205 Li1145 1.956 . S
O1205 Li1147 1.961 . S
O1205 C1154 1.325 . S
O1206 Li1144 1.961 . S
O1206 Li1146 1.956 . S
O1206 Li1147 1.970 . S
O1206 C1176 1.325 . S
O1207 Li1145 1.961 . S
O1207 Li1146 1.970 . S
O1207 Li1147 1.956 . S
O1207 C1182 1.325 . S
H1208 C1150 0.929 . S
H1209 C1151 0.930 . S
H1210 C1152 0.930 . S
H1211 C1153 0.930 . S
H1212 C1155 0.930 . S
H1213 C1157 0.929 . S
H1214 C1158 0.930 . S
H1215 C1159 0.930 1_455 S
H1216 C1162 0.930 . S
H1217 C1165 0.929 . S
H1218 C1170 0.929 . S
H1219 C1171 0.930 . S
H1220 C1178 0.929 . S
H1221 C1179 0.930 . S
H1222 C1180 0.930 . S
H1223 C1181 0.930 . S
H1224 C1183 0.929 . S
H1225 C1184 0.930 . S
H1226 C1185 0.930 . S
H1227 C1186 0.930 . S
H1228 C1190 0.929 . S
H1229 C1192 0.930 . S
H1230 C1198 0.929 . S
H1231 C1199 0.930 . S
Li1232 N1249 1.990 . S
Li1232 O1292 1.956 . S
Li1232 O1293 1.970 . S
Li1232 O1294 1.961 . S
Li1233 N1257 1.990 . S
Li1233 O1292 1.970 . S
Li1233 O1293 1.956 . S
Li1233 O1295 1.961 . S
Li1234 N1279 1.990 . S
Li1234 O1292 1.961 . S
Li1234 O1294 1.956 . S
Li1234 O1295 1.970 . S
Li1235 N1285 1.990 . S
Li1235 O1293 1.961 . S
Li1235 O1294 1.970 . S
Li1235 O1295 1.956 . S
C1236 C1238 1.348 . S
C1236 C1239 1.356 . S
C1236 O1292 1.325 . S
N1237 C1240 1.314 . S
N1237 C1241 1.279 . S
C1238 C1236 1.348 . S
C1238 C1240 1.353 . S
C1238 H1296 0.929 . S
C1239 C1236 1.356 . S
C1239 C1241 1.358 . S
C1239 H1297 0.930 . S
C1240 N1237 1.314 . S
C1240 C1238 1.353 . S
C1240 H1298 0.930 . S
C1241 N1237 1.279 . S
C1241 C1239 1.358 . S
C1241 H1299 0.930 . S
C1242 C1245 1.348 . S
C1242 C1246 1.356 . S
C1242 O1293 1.325 . S
C1243 N1244 1.279 . S
C1243 C1246 1.358 . S
C1243 H1300 0.930 . S
N1244 C1243 1.279 . S
N1244 C1247 1.314 . S
C1245 C1242 1.348 . S
C1245 C1247 1.353 . S
C1245 H1301 0.929 . S
C1246 C1242 1.356 . S
C1246 C1243 1.358 . S
C1246 H1302 0.930 . S
C1247 N1244 1.314 . S
C1247 C1245 1.353 . S
C1247 H1303 0.930 . S
C1248 N1249 1.314 . S
C1248 C1253 1.353 . S
C1248 H1254 0.930 . S
N1249 Li1232 1.990 . S
N1249 C1248 1.314 . S
N1249 C1251 1.279 . S
C1250 C1251 1.358 . S
C1250 C1252 1.356 . S
C1250 H1304 0.930 . S
C1251 N1249 1.279 . S
C1251 C1250 1.358 . S
C1251 H1255 0.930 . S
C1252 C1250 1.356 . S
C1252 C1253 1.348 . S
C1253 C1248 1.353 . S
C1253 C1252 1.348 . S
C1253 H1305 0.929 . S
H1254 C1248 0.930 . S
H1255 C1251 0.930 . S
C1256 N1257 1.314 . S
C1256 C1258 1.353 . S
C1256 H1262 0.930 . S
N1257 Li1233 1.990 . S
N1257 C1256 1.314 . S
N1257 C1260 1.279 . S
C1258 C1256 1.353 . S
C1258 C1261 1.348 . S
C1258 H1306 0.929 . S
C1259 C1260 1.358 . S
C1259 C1261 1.356 . S
C1259 H1307 0.930 . S
C1260 N1257 1.279 . S
C1260 C1259 1.358 . S
C1260 H1263 0.930 . S
C1261 C1258 1.348 . S
C1261 C1259 1.356 . S
H1262 C1256 0.930 . S
H1263 C1260 0.930 . S
C1264 C1266 1.348 . S
C1264 C1267 1.356 . S
C1264 O1294 1.325 . S
N1265 C1268 1.314 . S
N1265 C1269 1.279 . S
C1266 C1264 1.348 . S
C1266 C1268 1.353 . S
C1266 H1308 0.929 . S
C1267 C1264 1.356 . S
C1267 C1269 1.358 . S
C1267 H1309 0.930 . S
C1268 N1265 1.314 . S
C1268 C1266 1.353 . S
C1268 H1310 0.930 . S
C1269 N1265 1.279 . S
C1269 C1267 1.358 . S
C1269 H1311 0.930 . S
C1270 C1271 1.348 . S
C1270 C1272 1.356 . S
C1270 O1295 1.325 . S
C1271 C1270 1.348 . S
C1271 C1273 1.353 . S
C1271 H1312 0.929 . S
C1272 C1270 1.356 . S
C1272 C1274 1.358 . S
C1272 H1313 0.930 . S
C1273 C1271 1.353 . S
C1273 N1275 1.314 . S
C1273 H1314 0.930 . S
C1274 C1272 1.358 . S
C1274 N1275 1.279 . S
C1274 H1315 0.930 . S
N1275 C1273 1.314 . S
N1275 C1274 1.279 . S
C1276 C1278 1.353 . S
C1276 N1279 1.314 . S
C1276 H1282 0.930 . S
C1277 N1279 1.279 . S
C1277 C1280 1.358 . S
C1277 H1283 0.930 . S
C1278 C1276 1.353 . S
C1278 C1281 1.348 . S
C1278 H1316 0.929 . S
N1279 Li1234 1.990 . S
N1279 C1276 1.314 . S
N1279 C1277 1.279 . S
C1280 C1277 1.358 . S
C1280 C1281 1.356 . S
C1280 H1317 0.930 . S
C1281 C1278 1.348 . S
C1281 C1280 1.356 . S
H1282 C1276 0.930 . S
H1283 C1277 0.930 . S
C1284 N1285 1.314 . S
C1284 C1286 1.353 . S
C1284 H1290 0.930 . S
N1285 Li1235 1.990 . S
N1285 C1284 1.314 . S
N1285 C1288 1.279 . S
C1286 C1284 1.353 . S
C1286 C1289 1.348 . S
C1286 H1318 0.929 . S
C1287 C1288 1.358 . S
C1287 C1289 1.356 . S
C1287 H1319 0.930 . S
C1288 N1285 1.279 . S
C1288 C1287 1.358 . S
C1288 H1291 0.930 . S
C1289 C1286 1.348 . S
C1289 C1287 1.356 . S
H1290 C1284 0.930 . S
H1291 C1288 0.930 . S
O1292 Li1232 1.956 . S
O1292 Li1233 1.970 . S
O1292 Li1234 1.961 . S
O1292 C1236 1.325 . S
O1293 Li1232 1.970 . S
O1293 Li1233 1.956 . S
O1293 Li1235 1.961 . S
O1293 C1242 1.325 . S
O1294 Li1232 1.961 . S
O1294 Li1234 1.956 . S
O1294 Li1235 1.970 . S
O1294 C1264 1.325 . S
O1295 Li1233 1.961 . S
O1295 Li1234 1.970 . S
O1295 Li1235 1.956 . S
O1295 C1270 1.325 . S
H1296 C1238 0.929 . S
H1297 C1239 0.930 . S
H1298 C1240 0.930 . S
H1299 C1241 0.930 . S
H1300 C1243 0.930 . S
H1301 C1245 0.929 . S
H1302 C1246 0.930 . S
H1303 C1247 0.930 . S
H1304 C1250 0.930 . S
H1305 C1253 0.929 . S
H1306 C1258 0.929 . S
H1307 C1259 0.930 . S
H1308 C1266 0.929 . S
H1309 C1267 0.930 . S
H1310 C1268 0.930 . S
H1311 C1269 0.930 . S
H1312 C1271 0.929 . S
H1313 C1272 0.930 . S
H1314 C1273 0.930 . S
H1315 C1274 0.930 . S
H1316 C1278 0.929 . S
H1317 C1280 0.930 . S
H1318 C1286 0.929 . S
H1319 C1287 0.930 . S
Li1320 N1337 1.990 . S
Li1320 O1380 1.956 . S
Li1320 O1381 1.970 . S
Li1320 O1382 1.961 . S
Li1321 N1345 1.990 . S
Li1321 O1380 1.970 . S
Li1321 O1381 1.956 . S
Li1321 O1383 1.961 . S
Li1322 N1367 1.990 . S
Li1322 O1380 1.961 . S
Li1322 O1382 1.956 . S
Li1322 O1383 1.970 . S
Li1323 N1373 1.990 . S
Li1323 O1381 1.961 . S
Li1323 O1382 1.970 . S
Li1323 O1383 1.956 . S
C1324 C1326 1.348 . S
C1324 C1327 1.356 . S
C1324 O1380 1.325 . S
N1325 C1328 1.314 . S
N1325 C1329 1.279 . S
C1326 C1324 1.348 . S
C1326 C1328 1.353 . S
C1326 H1384 0.929 . S
C1327 C1324 1.356 . S
C1327 C1329 1.358 . S
C1327 H1385 0.930 . S
C1328 N1325 1.314 . S
C1328 C1326 1.353 . S
C1328 H1386 0.930 . S
C1329 N1325 1.279 . S
C1329 C1327 1.358 . S
C1329 H1387 0.930 . S
C1330 C1333 1.348 . S
C1330 C1334 1.356 . S
C1330 O1381 1.325 . S
C1331 N1332 1.279 . S
C1331 C1334 1.358 . S
C1331 H1388 0.930 . S
N1332 C1331 1.279 . S
N1332 C1335 1.314 . S
C1333 C1330 1.348 . S
C1333 C1335 1.353 . S
C1333 H1389 0.929 . S
C1334 C1330 1.356 . S
C1334 C1331 1.358 . S
C1334 H1390 0.930 . S
C1335 N1332 1.314 . S
C1335 C1333 1.353 . S
C1335 H1391 0.930 . S
C1336 N1337 1.314 . S
C1336 C1341 1.353 . S
C1336 H1342 0.930 . S
N1337 Li1320 1.990 . S
N1337 C1336 1.314 . S
N1337 C1339 1.279 . S
C1338 C1339 1.358 . S
C1338 C1340 1.356 . S
C1338 H1392 0.930 . S
C1339 N1337 1.279 . S
C1339 C1338 1.358 . S
C1339 H1343 0.930 . S
C1340 C1338 1.356 . S
C1340 C1341 1.348 . S
C1341 C1336 1.353 . S
C1341 C1340 1.348 . S
C1341 H1393 0.929 . S
H1342 C1336 0.930 . S
H1343 C1339 0.930 . S
C1344 N1345 1.314 . S
C1344 C1346 1.353 . S
C1344 H1350 0.930 . S
N1345 Li1321 1.990 . S
N1345 C1344 1.314 . S
N1345 C1348 1.279 . S
C1346 C1344 1.353 . S
C1346 C1349 1.348 . S
C1346 H1394 0.929 . S
C1347 C1348 1.358 . S
C1347 C1349 1.356 . S
C1347 H1395 0.930 . S
C1348 N1345 1.279 . S
C1348 C1347 1.358 . S
C1348 H1351 0.930 . S
C1349 C1346 1.348 . S
C1349 C1347 1.356 . S
H1350 C1344 0.930 . S
H1351 C1348 0.930 . S
C1352 C1354 1.348 . S
C1352 C1355 1.356 . S
C1352 O1382 1.325 . S
N1353 C1356 1.314 . S
N1353 C1357 1.279 . S
C1354 C1352 1.348 . S
C1354 C1356 1.353 . S
C1354 H1396 0.929 . S
C1355 C1352 1.356 . S
C1355 C1357 1.358 . S
C1355 H1397 0.930 . S
C1356 N1353 1.314 . S
C1356 C1354 1.353 . S
C1356 H1398 0.930 . S
C1357 N1353 1.279 . S
C1357 C1355 1.358 . S
C1357 H1399 0.930 . S
C1358 C1359 1.348 . S
C1358 C1360 1.356 . S
C1358 O1383 1.325 . S
C1359 C1358 1.348 . S
C1359 C1361 1.353 . S
C1359 H1400 0.929 . S
C1360 C1358 1.356 . S
C1360 C1362 1.358 . S
C1360 H1401 0.930 . S
C1361 C1359 1.353 . S
C1361 N1363 1.314 . S
C1361 H1402 0.930 . S
C1362 C1360 1.358 . S
C1362 N1363 1.279 . S
C1362 H1403 0.930 . S
N1363 C1361 1.314 . S
N1363 C1362 1.279 . S
C1364 C1366 1.353 . S
C1364 N1367 1.314 . S
C1364 H1370 0.930 . S
C1365 N1367 1.279 . S
C1365 C1368 1.358 . S
C1365 H1371 0.930 . S
C1366 C1364 1.353 . S
C1366 C1369 1.348 . S
C1366 H1404 0.929 . S
N1367 Li1322 1.990 . S
N1367 C1364 1.314 . S
N1367 C1365 1.279 . S
C1368 C1365 1.358 . S
C1368 C1369 1.356 . S
C1368 H1405 0.930 . S
C1369 C1366 1.348 . S
C1369 C1368 1.356 . S
H1370 C1364 0.930 . S
H1371 C1365 0.930 . S
C1372 N1373 1.314 . S
C1372 C1374 1.353 . S
C1372 H1378 0.930 . S
N1373 Li1323 1.990 . S
N1373 C1372 1.314 . S
N1373 C1376 1.279 . S
C1374 C1372 1.353 . S
C1374 C1377 1.348 . S
C1374 H1406 0.929 . S
C1375 C1376 1.358 . S
C1375 C1377 1.356 . S
C1375 H1407 0.930 . S
C1376 N1373 1.279 . S
C1376 C1375 1.358 . S
C1376 H1379 0.930 . S
C1377 C1374 1.348 . S
C1377 C1375 1.356 . S
H1378 C1372 0.930 . S
H1379 C1376 0.930 . S
O1380 Li1320 1.956 . S
O1380 Li1321 1.970 . S
O1380 Li1322 1.961 . S
O1380 C1324 1.325 . S
O1381 Li1320 1.970 . S
O1381 Li1321 1.956 . S
O1381 Li1323 1.961 . S
O1381 C1330 1.325 . S
O1382 Li1320 1.961 . S
O1382 Li1322 1.956 . S
O1382 Li1323 1.970 . S
O1382 C1352 1.325 . S
O1383 Li1321 1.961 . S
O1383 Li1322 1.970 . S
O1383 Li1323 1.956 . S
O1383 C1358 1.325 . S
H1384 C1326 0.929 . S
H1385 C1327 0.930 . S
H1386 C1328 0.930 . S
H1387 C1329 0.930 . S
H1388 C1331 0.930 . S
H1389 C1333 0.929 . S
H1390 C1334 0.930 . S
H1391 C1335 0.930 . S
H1392 C1338 0.930 . S
H1393 C1341 0.929 . S
H1394 C1346 0.929 . S
H1395 C1347 0.930 . S
H1396 C1354 0.929 . S
H1397 C1355 0.930 . S
H1398 C1356 0.930 . S
H1399 C1357 0.930 . S
H1400 C1359 0.929 . S
H1401 C1360 0.930 . S
H1402 C1361 0.930 . S
H1403 C1362 0.930 . S
H1404 C1366 0.929 . S
H1405 C1368 0.930 . S
H1406 C1374 0.929 . S
H1407 C1375 0.930 . S
Li1408 N1425 1.990 . S
Li1408 O1468 1.956 . S
Li1408 O1469 1.970 . S
Li1408 O1470 1.961 . S
Li1409 N1433 1.990 . S
Li1409 O1468 1.970 . S
Li1409 O1469 1.956 . S
Li1409 O1471 1.961 . S
Li1410 N1455 1.990 . S
Li1410 O1468 1.961 . S
Li1410 O1470 1.956 . S
Li1410 O1471 1.970 . S
Li1411 N1461 1.990 . S
Li1411 O1469 1.961 . S
Li1411 O1470 1.970 . S
Li1411 O1471 1.956 . S
C1412 C1414 1.348 . S
C1412 C1415 1.356 . S
C1412 O1468 1.325 . S
N1413 C1416 1.314 . S
N1413 C1417 1.279 . S
C1414 C1412 1.348 . S
C1414 C1416 1.353 . S
C1414 H1472 0.929 . S
C1415 C1412 1.356 . S
C1415 C1417 1.358 . S
C1415 H1473 0.930 . S
C1416 N1413 1.314 . S
C1416 C1414 1.353 . S
C1416 H1474 0.930 . S
C1417 N1413 1.279 . S
C1417 C1415 1.358 . S
C1417 H1475 0.930 . S
C1418 C1421 1.348 . S
C1418 C1422 1.356 . S
C1418 O1469 1.325 . S
C1419 N1420 1.279 . S
C1419 C1422 1.358 1_565 S
C1419 H1476 0.930 . S
N1420 C1419 1.279 . S
N1420 C1423 1.314 1_565 S
C1421 C1418 1.348 . S
C1421 C1423 1.353 . S
C1421 H1477 0.929 . S
C1422 C1418 1.356 . S
C1422 C1419 1.358 1_545 S
C1422 H1478 0.930 . S
C1423 N1420 1.314 1_545 S
C1423 C1421 1.353 . S
C1423 H1479 0.930 . S
C1424 N1425 1.314 . S
C1424 C1429 1.353 . S
C1424 H1430 0.930 . S
N1425 Li1408 1.990 . S
N1425 C1424 1.314 . S
N1425 C1427 1.279 . S
C1426 C1427 1.358 . S
C1426 C1428 1.356 . S
C1426 H1480 0.930 . S
C1427 N1425 1.279 . S
C1427 C1426 1.358 . S
C1427 H1431 0.930 . S
C1428 C1426 1.356 . S
C1428 C1429 1.348 . S
C1429 C1424 1.353 . S
C1429 C1428 1.348 . S
C1429 H1481 0.929 . S
H1430 C1424 0.930 . S
H1431 C1427 0.930 . S
C1432 N1433 1.314 . S
C1432 C1434 1.353 . S
C1432 H1438 0.930 . S
N1433 Li1409 1.990 . S
N1433 C1432 1.314 . S
N1433 C1436 1.279 . S
C1434 C1432 1.353 . S
C1434 C1437 1.348 . S
C1434 H1482 0.929 . S
C1435 C1436 1.358 . S
C1435 C1437 1.356 . S
C1435 H1483 0.930 . S
C1436 N1433 1.279 . S
C1436 C1435 1.358 . S
C1436 H1439 0.930 . S
C1437 C1434 1.348 . S
C1437 C1435 1.356 . S
H1438 C1432 0.930 . S
H1439 C1436 0.930 . S
C1440 C1442 1.348 . S
C1440 C1443 1.356 . S
C1440 O1470 1.325 . S
N1441 C1444 1.314 . S
N1441 C1445 1.279 . S
C1442 C1440 1.348 . S
C1442 C1444 1.353 . S
C1442 H1484 0.929 . S
C1443 C1440 1.356 . S
C1443 C1445 1.358 . S
C1443 H1485 0.930 . S
C1444 N1441 1.314 . S
C1444 C1442 1.353 . S
C1444 H1486 0.930 . S
C1445 N1441 1.279 . S
C1445 C1443 1.358 . S
C1445 H1487 0.930 . S
C1446 C1447 1.348 . S
C1446 C1448 1.356 . S
C1446 O1471 1.325 . S
C1447 C1446 1.348 . S
C1447 C1449 1.353 . S
C1447 H1488 0.929 . S
C1448 C1446 1.356 . S
C1448 C1450 1.358 . S
C1448 H1489 0.930 . S
C1449 C1447 1.353 . S
C1449 N1451 1.314 . S
C1449 H1490 0.930 . S
C1450 C1448 1.358 . S
C1450 N1451 1.279 . S
C1450 H1491 0.930 . S
N1451 C1449 1.314 . S
N1451 C1450 1.279 . S
C1452 C1454 1.353 . S
C1452 N1455 1.314 . S
C1452 H1458 0.930 . S
C1453 N1455 1.279 . S
C1453 C1456 1.358 . S
C1453 H1459 0.930 . S
C1454 C1452 1.353 . S
C1454 C1457 1.348 . S
C1454 H1492 0.929 . S
N1455 Li1410 1.990 . S
N1455 C1452 1.314 . S
N1455 C1453 1.279 . S
C1456 C1453 1.358 . S
C1456 C1457 1.356 . S
C1456 H1493 0.930 . S
C1457 C1454 1.348 . S
C1457 C1456 1.356 . S
H1458 C1452 0.930 . S
H1459 C1453 0.930 . S
C1460 N1461 1.314 1_565 S
C1460 C1462 1.353 . S
C1460 H1466 0.930 . S
N1461 Li1411 1.990 . S
N1461 C1460 1.314 1_545 S
N1461 C1464 1.242 1_545 S
C1462 C1460 1.353 . S
C1462 C1465 1.348 . S
C1462 H1494 0.929 . S
C1463 C1464 1.428 . S
C1463 C1465 1.356 . S
C1463 H1495 0.930 . S
C1464 N1461 1.242 1_565 S
C1464 C1463 1.428 . S
C1464 H1467 0.899 1_565 S
C1465 C1462 1.348 . S
C1465 C1463 1.356 . S
H1466 C1460 0.930 . S
H1467 C1464 0.899 1_545 S
O1468 Li1408 1.956 . S
O1468 Li1409 1.970 . S
O1468 Li1410 1.961 . S
O1468 C1412 1.325 . S
O1469 Li1408 1.970 . S
O1469 Li1409 1.956 . S
O1469 Li1411 1.961 . S
O1469 C1418 1.325 . S
O1470 Li1408 1.961 . S
O1470 Li1410 1.956 . S
O1470 Li1411 1.970 . S
O1470 C1440 1.325 . S
O1471 Li1409 1.961 . S
O1471 Li1410 1.970 . S
O1471 Li1411 1.956 . S
O1471 C1446 1.325 . S
H1472 C1414 0.929 . S
H1473 C1415 0.930 . S
H1474 C1416 0.930 . S
H1475 C1417 0.930 . S
H1476 C1419 0.930 . S
H1477 C1421 0.929 . S
H1478 C1422 0.930 . S
H1479 C1423 0.930 . S
H1480 C1426 0.930 . S
H1481 C1429 0.929 . S
H1482 C1434 0.929 . S
H1483 C1435 0.930 . S
H1484 C1442 0.929 . S
H1485 C1443 0.930 . S
H1486 C1444 0.930 . S
H1487 C1445 0.930 . S
H1488 C1447 0.929 . S
H1489 C1448 0.930 . S
H1490 C1449 0.930 . S
H1491 C1450 0.930 . S
H1492 C1454 0.929 . S
H1493 C1456 0.930 . S
H1494 C1462 0.929 . S
H1495 C1463 0.930 . S
Li1496 N1513 1.990 . S
Li1496 O1556 1.956 . S
Li1496 O1557 1.970 . S
Li1496 O1558 1.961 . S
Li1497 N1521 1.990 . S
Li1497 O1556 1.970 . S
Li1497 O1557 1.956 . S
Li1497 O1559 1.961 . S
Li1498 N1543 1.990 . S
Li1498 O1556 1.961 . S
Li1498 O1558 1.956 . S
Li1498 O1559 1.970 . S
Li1499 N1549 1.990 . S
Li1499 O1557 1.961 . S
Li1499 O1558 1.970 . S
Li1499 O1559 1.956 . S
C1500 C1502 1.348 . S
C1500 C1503 1.356 . S
C1500 O1556 1.325 . S
N1501 C1504 1.314 1_455 S
N1501 C1505 1.318 . S
C1502 C1500 1.348 . S
C1502 C1504 1.353 . S
C1502 H1560 0.929 . S
C1503 C1500 1.356 . S
C1503 C1505 1.314 1_655 S
C1503 H1561 0.930 . S
C1504 N1501 1.314 1_655 S
C1504 C1502 1.353 . S
C1504 H1562 0.930 . S
C1505 N1501 1.318 . S
C1505 C1503 1.314 1_455 S
C1505 H1563 0.946 . S
C1506 C1509 1.348 . S
C1506 C1510 1.356 . S
C1506 O1557 1.325 . S
C1507 N1508 1.279 . S
C1507 C1510 1.358 . S
C1507 H1564 0.930 . S
N1508 C1507 1.279 . S
N1508 C1511 1.314 . S
C1509 C1506 1.348 . S
C1509 C1511 1.353 . S
C1509 H1565 0.929 . S
C1510 C1506 1.356 . S
C1510 C1507 1.358 . S
C1510 H1566 0.930 . S
C1511 N1508 1.314 . S
C1511 C1509 1.353 . S
C1511 H1567 0.930 . S
C1512 N1513 1.314 . S
C1512 C1517 1.353 . S
C1512 H1518 0.930 . S
N1513 Li1496 1.990 . S
N1513 C1512 1.314 . S
N1513 C1515 1.279 . S
C1514 C1515 1.358 . S
C1514 C1516 1.356 . S
C1514 H1568 0.930 . S
C1515 N1513 1.279 . S
C1515 C1514 1.358 . S
C1515 H1519 0.930 . S
C1516 C1514 1.356 . S
C1516 C1517 1.348 . S
C1517 C1512 1.353 . S
C1517 C1516 1.348 . S
C1517 H1569 0.929 . S
H1518 C1512 0.930 . S
H1519 C1515 0.930 . S
C1520 N1521 1.314 . S
C1520 C1522 1.353 . S
C1520 H1526 0.930 . S
N1521 Li1497 1.990 . S
N1521 C1520 1.314 . S
N1521 C1524 1.279 . S
C1522 C1520 1.353 . S
C1522 C1525 1.348 . S
C1522 H1570 0.929 . S
C1523 C1524 1.358 . S
C1523 C1525 1.356 . S
C1523 H1571 0.930 . S
C1524 N1521 1.279 . S
C1524 C1523 1.358 . S
C1524 H1527 0.930 . S
C1525 C1522 1.348 . S
C1525 C1523 1.356 . S
H1526 C1520 0.930 . S
H1527 C1524 0.930 . S
C1528 C1530 1.348 . S
C1528 C1531 1.356 . S
C1528 O1558 1.325 . S
N1529 C1532 1.314 . S
N1529 C1533 1.279 . S
C1530 C1528 1.348 . S
C1530 C1532 1.353 . S
C1530 H1572 0.929 . S
C1531 C1528 1.356 . S
C1531 C1533 1.358 . S
C1531 H1573 0.930 . S
C1532 N1529 1.314 . S
C1532 C1530 1.353 . S
C1532 H1574 0.930 . S
C1533 N1529 1.279 . S
C1533 C1531 1.358 . S
C1533 H1575 0.930 . S
C1534 C1535 1.348 . S
C1534 C1536 1.356 . S
C1534 O1559 1.325 . S
C1535 C1534 1.348 . S
C1535 C1537 1.353 . S
C1535 H1576 0.929 . S
C1536 C1534 1.356 . S
C1536 C1538 1.358 . S
C1536 H1577 0.930 . S
C1537 C1535 1.353 . S
C1537 N1539 1.314 . S
C1537 H1578 0.930 . S
C1538 C1536 1.358 . S
C1538 N1539 1.279 . S
C1538 H1579 0.930 . S
N1539 C1537 1.314 . S
N1539 C1538 1.279 . S
C1540 C1542 1.353 . S
C1540 N1543 1.314 1_455 S
C1540 H1546 0.930 . S
C1541 N1543 1.279 . S
C1541 C1544 1.358 1_655 S
C1541 H1547 0.930 . S
C1542 C1540 1.353 . S
C1542 C1545 1.348 . S
C1542 H1580 0.929 . S
N1543 Li1498 1.990 . S
N1543 C1540 1.314 1_655 S
N1543 C1541 1.279 . S
C1544 C1541 1.358 1_455 S
C1544 C1545 1.356 . S
C1544 H1581 0.930 . S
C1545 C1542 1.348 . S
C1545 C1544 1.356 . S
H1546 C1540 0.930 . S
H1547 C1541 0.930 . S
C1548 N1549 1.314 . S
C1548 C1550 1.353 . S
C1548 H1554 0.930 . S
N1549 Li1499 1.990 . S
N1549 C1548 1.314 . S
N1549 C1552 1.279 . S
C1550 C1548 1.353 . S
C1550 C1553 1.348 . S
C1550 H1582 0.929 . S
C1551 C1552 1.358 . S
C1551 C1553 1.356 . S
C1551 H1583 0.930 . S
C1552 N1549 1.279 . S
C1552 C1551 1.358 . S
C1552 H1555 0.930 . S
C1553 C1550 1.348 . S
C1553 C1551 1.356 . S
H1554 C1548 0.930 . S
H1555 C1552 0.930 . S
O1556 Li1496 1.956 . S
O1556 Li1497 1.970 . S
O1556 Li1498 1.961 . S
O1556 C1500 1.325 . S
O1557 Li1496 1.970 . S
O1557 Li1497 1.956 . S
O1557 Li1499 1.961 . S
O1557 C1506 1.325 . S
O1558 Li1496 1.961 . S
O1558 Li1498 1.956 . S
O1558 Li1499 1.970 . S
O1558 C1528 1.325 . S
O1559 Li1497 1.961 . S
O1559 Li1498 1.970 . S
O1559 Li1499 1.956 . S
O1559 C1534 1.325 . S
H1560 C1502 0.929 . S
H1561 C1503 0.930 . S
H1562 C1504 0.930 . S
H1563 C1505 0.946 . S
H1564 C1507 0.930 . S
H1565 C1509 0.929 . S
H1566 C1510 0.930 . S
H1567 C1511 0.930 . S
H1568 C1514 0.930 . S
H1569 C1517 0.929 . S
H1570 C1522 0.929 . S
H1571 C1523 0.930 . S
H1572 C1530 0.929 . S
H1573 C1531 0.930 . S
H1574 C1532 0.930 . S
H1575 C1533 0.930 . S
H1576 C1535 0.929 . S
H1577 C1536 0.930 . S
H1578 C1537 0.930 . S
H1579 C1538 0.930 . S
H1580 C1542 0.929 . S
H1581 C1544 0.930 . S
H1582 C1550 0.929 . S
H1583 C1551 0.930 . S
H1584 O1610 0.856 . S
H1585 O1613 0.854 . S
H1586 C1621 0.930 . S
H1587 C1622 0.930 . S
H1588 C1624 0.930 . S
H1589 C1625 0.930 . S
H1590 C1627 0.931 . S
H1591 C1628 0.930 . S
H1592 C1630 0.930 . S
H1593 C1631 0.929 . S
H1594 C1633 0.930 . S
H1595 C1634 0.931 . S
H1596 C1636 0.930 . S
H1597 C1637 0.929 . S
H1598 C1639 0.931 . S
H1599 C1640 0.930 . S
H1600 C1642 0.930 . S
H1601 C1643 0.932 . S
H1602 C1645 0.930 . S
H1603 C1646 0.929 . S
H1604 C1648 0.931 . S
H1605 C1649 0.930 . S
H1606 C1651 0.929 . S
H1607 C1652 0.931 . S
H1608 C1654 0.930 . S
H1609 C1655 0.929 . S
O1610 H1584 0.856 . S
O1610 C1656 1.300 . S
O1611 C1656 1.209 . S
O1612 C1657 1.199 . S
O1613 H1585 0.854 . S
O1613 C1657 1.297 . S
C1614 C1615 1.404 . S
C1614 C1619 1.397 . S
C1614 C1620 1.492 . S
C1615 C1614 1.404 . S
C1615 C1616 1.396 . S
C1615 C1626 1.492 . S
C1616 C1615 1.396 . S
C1616 C1617 1.397 . S
C1616 C1632 1.509 . S
C1617 C1616 1.397 . S
C1617 C1618 1.412 . S
C1617 C1638 1.485 . S
C1618 C1617 1.412 . S
C1618 C1619 1.388 . S
C1618 C1644 1.490 . S
C1619 C1614 1.397 . S
C1619 C1618 1.388 . S
C1619 C1650 1.519 . S
C1620 C1614 1.492 . S
C1620 C1621 1.363 . S
C1620 C1625 1.390 . S
C1621 H1586 0.930 . S
C1621 C1620 1.363 . S
C1621 C1622 1.372 . S
C1622 H1587 0.930 . S
C1622 C1621 1.372 . S
C1622 C1623 1.383 . S
C1623 C1622 1.383 . S
C1623 C1624 1.395 . S
C1624 H1588 0.930 . S
C1624 C1623 1.395 . S
C1624 C1625 1.362 . S
C1625 H1589 0.930 . S
C1625 C1620 1.390 . S
C1625 C1624 1.362 . S
C1626 C1615 1.492 . S
C1626 C1627 1.377 . S
C1626 C1631 1.397 . S
C1627 H1590 0.931 . S
C1627 C1626 1.377 . S
C1627 C1628 1.376 . S
C1628 H1591 0.930 . S
C1628 C1627 1.376 . S
C1628 C1629 1.376 . S
C1629 C1628 1.376 . S
C1629 C1630 1.378 . S
C1629 C1656 1.486 . S
C1630 H1592 0.930 . S
C1630 C1629 1.378 . S
C1630 C1631 1.376 . S
C1631 H1593 0.929 . S
C1631 C1626 1.397 . S
C1631 C1630 1.376 . S
C1632 C1616 1.509 . S
C1632 C1633 1.391 . S
C1632 C1637 1.386 . S
C1633 H1594 0.930 . S
C1633 C1632 1.391 . S
C1633 C1634 1.375 . S
C1634 H1595 0.931 . S
C1634 C1633 1.375 . S
C1634 C1635 1.375 . S
C1635 C1634 1.375 . S
C1635 C1636 1.361 . S
C1636 H1596 0.930 . S
C1636 C1635 1.361 . S
C1636 C1637 1.399 . S
C1637 H1597 0.929 . S
C1637 C1632 1.386 . S
C1637 C1636 1.399 . S
C1638 C1617 1.485 . S
C1638 C1639 1.394 . S
C1638 C1643 1.360 . S
C1639 H1598 0.931 . S
C1639 C1638 1.394 . S
C1639 C1640 1.372 . S
C1640 H1599 0.930 . S
C1640 C1639 1.372 . S
C1640 C1641 1.397 . S
C1641 C1640 1.397 . S
C1641 C1642 1.390 . S
C1641 C1657 1.476 . S
C1642 H1600 0.930 . S
C1642 C1641 1.390 . S
C1642 C1643 1.366 . S
C1643 H1601 0.932 . S
C1643 C1638 1.360 . S
C1643 C1642 1.366 . S
C1644 C1618 1.490 . S
C1644 C1645 1.380 . S
C1644 C1649 1.386 . S
C1645 H1602 0.930 . S
C1645 C1644 1.380 . S
C1645 C1646 1.381 . S
C1646 H1603 0.929 . S
C1646 C1645 1.381 . S
C1646 C1647 1.371 . S
C1647 C1646 1.371 . S
C1647 C1648 1.380 . S
C1648 H1604 0.931 . S
C1648 C1647 1.380 . S
C1648 C1649 1.387 . S
C1649 H1605 0.930 . S
C1649 C1644 1.386 . S
C1649 C1648 1.387 . S
C1650 C1619 1.519 . S
C1650 C1651 1.377 . S
C1650 C1655 1.361 . S
C1651 H1606 0.929 . S
C1651 C1650 1.377 . S
C1651 C1652 1.386 . S
C1652 H1607 0.931 . S
C1652 C1651 1.386 . S
C1652 C1653 1.363 . S
C1653 C1652 1.363 . S
C1653 C1654 1.385 . S
C1654 H1608 0.930 . S
C1654 C1653 1.385 . S
C1654 C1655 1.396 . S
C1655 H1609 0.929 . S
C1655 C1650 1.361 . S
C1655 C1654 1.396 . S
C1656 O1610 1.300 . S
C1656 O1611 1.209 . S
C1656 C1629 1.486 . S
C1657 O1612 1.199 . S
C1657 O1613 1.297 . S
C1657 C1641 1.476 . S
H1658 O1684 0.856 . S
H1659 O1687 0.854 . S
H1660 C1695 0.930 . S
H1661 C1696 0.930 . S
H1662 C1698 0.930 . S
H1663 C1699 0.930 . S
H1664 C1701 0.931 . S
H1665 C1702 0.930 . S
H1666 C1704 0.930 . S
H1667 C1705 0.929 . S
H1668 C1707 0.930 . S
H1669 C1708 0.931 . S
H1670 C1710 0.930 . S
H1671 C1711 0.929 . S
H1672 C1713 0.931 . S
H1673 C1714 0.930 . S
H1674 C1716 0.930 . S
H1675 C1717 0.932 . S
H1676 C1719 0.930 . S
H1677 C1720 0.929 . S
H1678 C1722 0.931 . S
H1679 C1723 0.930 . S
H1680 C1725 0.929 . S
H1681 C1726 0.931 . S
H1682 C1728 0.930 . S
H1683 C1729 0.929 . S
O1684 H1658 0.856 . S
O1684 C1730 1.300 . S
O1685 C1730 1.209 . S
O1686 C1731 1.199 . S
O1687 H1659 0.854 . S
O1687 C1731 1.297 . S
C1688 C1689 1.404 . S
C1688 C1693 1.397 . S
C1688 C1694 1.492 . S
C1689 C1688 1.404 . S
C1689 C1690 1.396 . S
C1689 C1700 1.492 . S
C1690 C1689 1.396 . S
C1690 C1691 1.397 . S
C1690 C1706 1.509 . S
C1691 C1690 1.397 . S
C1691 C1692 1.412 . S
C1691 C1712 1.485 . S
C1692 C1691 1.412 . S
C1692 C1693 1.388 . S
C1692 C1718 1.490 . S
C1693 C1688 1.397 . S
C1693 C1692 1.388 . S
C1693 C1724 1.519 . S
C1694 C1688 1.492 . S
C1694 C1695 1.363 . S
C1694 C1699 1.390 . S
C1695 H1660 0.930 . S
C1695 C1694 1.363 . S
C1695 C1696 1.372 . S
C1696 H1661 0.930 . S
C1696 C1695 1.372 . S
C1696 C1697 1.383 . S
C1697 C1696 1.383 . S
C1697 C1698 1.395 . S
C1698 H1662 0.930 . S
C1698 C1697 1.395 . S
C1698 C1699 1.362 . S
C1699 H1663 0.930 . S
C1699 C1694 1.390 . S
C1699 C1698 1.362 . S
C1700 C1689 1.492 . S
C1700 C1701 1.377 . S
C1700 C1705 1.397 . S
C1701 H1664 0.931 . S
C1701 C1700 1.377 . S
C1701 C1702 1.376 . S
C1702 H1665 0.930 . S
C1702 C1701 1.376 . S
C1702 C1703 1.376 . S
C1703 C1702 1.376 . S
C1703 C1704 1.378 . S
C1703 C1730 1.486 . S
C1704 H1666 0.930 . S
C1704 C1703 1.378 . S
C1704 C1705 1.376 . S
C1705 H1667 0.929 . S
C1705 C1700 1.397 . S
C1705 C1704 1.376 . S
C1706 C1690 1.509 . S
C1706 C1707 1.391 . S
C1706 C1711 1.386 . S
C1707 H1668 0.930 . S
C1707 C1706 1.391 . S
C1707 C1708 1.375 . S
C1708 H1669 0.931 . S
C1708 C1707 1.375 . S
C1708 C1709 1.375 . S
C1709 C1708 1.375 . S
C1709 C1710 1.361 . S
C1710 H1670 0.930 . S
C1710 C1709 1.361 . S
C1710 C1711 1.399 . S
C1711 H1671 0.929 . S
C1711 C1706 1.386 . S
C1711 C1710 1.399 . S
C1712 C1691 1.485 . S
C1712 C1713 1.394 . S
C1712 C1717 1.360 . S
C1713 H1672 0.931 . S
C1713 C1712 1.394 . S
C1713 C1714 1.372 . S
C1714 H1673 0.930 . S
C1714 C1713 1.372 . S
C1714 C1715 1.397 . S
C1715 C1714 1.397 . S
C1715 C1716 1.390 . S
C1715 C1731 1.476 . S
C1716 H1674 0.930 . S
C1716 C1715 1.390 . S
C1716 C1717 1.366 . S
C1717 H1675 0.932 . S
C1717 C1712 1.360 . S
C1717 C1716 1.366 . S
C1718 C1692 1.490 . S
C1718 C1719 1.380 . S
C1718 C1723 1.386 . S
C1719 H1676 0.930 . S
C1719 C1718 1.380 . S
C1719 C1720 1.381 . S
C1720 H1677 0.929 . S
C1720 C1719 1.381 . S
C1720 C1721 1.371 . S
C1721 C1720 1.371 . S
C1721 C1722 1.380 . S
C1722 H1678 0.931 . S
C1722 C1721 1.380 . S
C1722 C1723 1.387 . S
C1723 H1679 0.930 . S
C1723 C1718 1.386 . S
C1723 C1722 1.387 . S
C1724 C1693 1.519 . S
C1724 C1725 1.377 . S
C1724 C1729 1.361 . S
C1725 H1680 0.929 . S
C1725 C1724 1.377 . S
C1725 C1726 1.386 . S
C1726 H1681 0.931 . S
C1726 C1725 1.386 . S
C1726 C1727 1.363 . S
C1727 C1726 1.363 . S
C1727 C1728 1.385 . S
C1728 H1682 0.930 . S
C1728 C1727 1.385 . S
C1728 C1729 1.396 . S
C1729 H1683 0.929 . S
C1729 C1724 1.361 . S
C1729 C1728 1.396 . S
C1730 O1684 1.300 . S
C1730 O1685 1.209 . S
C1730 C1703 1.486 . S
C1731 O1686 1.199 . S
C1731 O1687 1.297 . S
C1731 C1715 1.476 . S
H1732 O1758 0.856 . S
H1733 O1761 0.854 . S
H1734 C1769 0.930 . S
H1735 C1770 0.930 . S
H1736 C1772 0.930 . S
H1737 C1773 0.930 . S
H1738 C1775 0.931 . S
H1739 C1776 0.930 . S
H1740 C1778 0.930 . S
H1741 C1779 0.929 . S
H1742 C1781 0.930 . S
H1743 C1782 0.931 . S
H1744 C1784 0.930 . S
H1745 C1785 0.929 . S
H1746 C1787 0.931 . S
H1747 C1788 0.930 . S
H1748 C1790 0.930 . S
H1749 C1791 0.932 . S
H1750 C1793 0.930 . S
H1751 C1794 0.929 . S
H1752 C1796 0.931 . S
H1753 C1797 0.930 . S
H1754 C1799 0.929 . S
H1755 C1800 0.931 . S
H1756 C1802 0.930 . S
H1757 C1803 0.929 . S
O1758 H1732 0.856 . S
O1758 C1804 1.300 . S
O1759 C1804 1.209 . S
O1760 C1805 1.199 . S
O1761 H1733 0.854 . S
O1761 C1805 1.297 . S
C1762 C1763 1.404 . S
C1762 C1767 1.397 . S
C1762 C1768 1.492 . S
C1763 C1762 1.404 . S
C1763 C1764 1.396 . S
C1763 C1774 1.492 . S
C1764 C1763 1.396 . S
C1764 C1765 1.397 . S
C1764 C1780 1.509 . S
C1765 C1764 1.397 . S
C1765 C1766 1.412 . S
C1765 C1786 1.485 . S
C1766 C1765 1.412 . S
C1766 C1767 1.388 . S
C1766 C1792 1.490 . S
C1767 C1762 1.397 . S
C1767 C1766 1.388 . S
C1767 C1798 1.519 . S
C1768 C1762 1.492 . S
C1768 C1769 1.363 . S
C1768 C1773 1.390 . S
C1769 H1734 0.930 . S
C1769 C1768 1.363 . S
C1769 C1770 1.372 . S
C1770 H1735 0.930 . S
C1770 C1769 1.372 . S
C1770 C1771 1.383 . S
C1771 C1770 1.383 . S
C1771 C1772 1.395 . S
C1772 H1736 0.930 . S
C1772 C1771 1.395 . S
C1772 C1773 1.362 . S
C1773 H1737 0.930 . S
C1773 C1768 1.390 . S
C1773 C1772 1.362 . S
C1774 C1763 1.492 . S
C1774 C1775 1.377 . S
C1774 C1779 1.397 . S
C1775 H1738 0.931 . S
C1775 C1774 1.377 . S
C1775 C1776 1.376 . S
C1776 H1739 0.930 . S
C1776 C1775 1.376 . S
C1776 C1777 1.376 . S
C1777 C1776 1.376 . S
C1777 C1778 1.378 . S
C1777 C1804 1.486 . S
C1778 H1740 0.930 . S
C1778 C1777 1.378 . S
C1778 C1779 1.376 . S
C1779 H1741 0.929 . S
C1779 C1774 1.397 . S
C1779 C1778 1.376 . S
C1780 C1764 1.509 . S
C1780 C1781 1.391 . S
C1780 C1785 1.386 . S
C1781 H1742 0.930 . S
C1781 C1780 1.391 . S
C1781 C1782 1.375 . S
C1782 H1743 0.931 . S
C1782 C1781 1.375 . S
C1782 C1783 1.375 . S
C1783 C1782 1.375 . S
C1783 C1784 1.361 . S
C1784 H1744 0.930 . S
C1784 C1783 1.361 . S
C1784 C1785 1.399 . S
C1785 H1745 0.929 . S
C1785 C1780 1.386 . S
C1785 C1784 1.399 . S
C1786 C1765 1.485 . S
C1786 C1787 1.394 . S
C1786 C1791 1.360 . S
C1787 H1746 0.931 . S
C1787 C1786 1.394 . S
C1787 C1788 1.372 . S
C1788 H1747 0.930 . S
C1788 C1787 1.372 . S
C1788 C1789 1.397 . S
C1789 C1788 1.397 . S
C1789 C1790 1.390 . S
C1789 C1805 1.476 . S
C1790 H1748 0.930 . S
C1790 C1789 1.390 . S
C1790 C1791 1.366 . S
C1791 H1749 0.932 . S
C1791 C1786 1.360 . S
C1791 C1790 1.366 . S
C1792 C1766 1.490 . S
C1792 C1793 1.380 . S
C1792 C1797 1.386 . S
C1793 H1750 0.930 . S
C1793 C1792 1.380 . S
C1793 C1794 1.381 . S
C1794 H1751 0.929 . S
C1794 C1793 1.381 . S
C1794 C1795 1.371 . S
C1795 C1794 1.371 . S
C1795 C1796 1.380 . S
C1796 H1752 0.931 . S
C1796 C1795 1.380 . S
C1796 C1797 1.387 . S
C1797 H1753 0.930 . S
C1797 C1792 1.386 . S
C1797 C1796 1.387 . S
C1798 C1767 1.519 . S
C1798 C1799 1.377 . S
C1798 C1803 1.361 . S
C1799 H1754 0.929 . S
C1799 C1798 1.377 . S
C1799 C1800 1.386 . S
C1800 H1755 0.931 . S
C1800 C1799 1.386 . S
C1800 C1801 1.363 . S
C1801 C1800 1.363 . S
C1801 C1802 1.385 . S
C1802 H1756 0.930 . S
C1802 C1801 1.385 . S
C1802 C1803 1.396 . S
C1803 H1757 0.929 . S
C1803 C1798 1.361 . S
C1803 C1802 1.396 . S
C1804 O1758 1.300 . S
C1804 O1759 1.209 . S
C1804 C1777 1.486 . S
C1805 O1760 1.199 . S
C1805 O1761 1.297 . S
C1805 C1789 1.476 . S
H1806 O1832 0.856 1_554 S
H1807 O1835 0.854 . S
H1808 C1843 0.930 . S
H1809 C1844 0.930 . S
H1810 C1846 0.930 . S
H1811 C1847 0.930 . S
H1812 C1849 0.931 . S
H1813 C1850 0.930 . S
H1814 C1852 0.930 . S
H1815 C1853 0.929 . S
H1816 C1855 0.930 . S
H1817 C1856 0.931 . S
H1818 C1858 0.930 . S
H1819 C1859 0.929 . S
H1820 C1861 0.931 . S
H1821 C1862 0.930 . S
H1822 C1864 0.930 . S
H1823 C1865 0.932 . S
H1824 C1867 0.930 . S
H1825 C1868 0.929 . S
H1826 C1870 0.931 . S
H1827 C1871 0.930 . S
H1828 C1873 0.929 . S
H1829 C1874 0.931 . S
H1830 C1876 0.930 . S
H1831 C1877 0.929 . S
O1832 H1806 0.856 1_556 S
O1832 C1878 1.300 . S
O1833 C1878 1.209 . S
O1834 C1879 1.199 . S
O1835 H1807 0.854 . S
O1835 C1879 1.297 . S
C1836 C1837 1.404 . S
C1836 C1841 1.397 . S
C1836 C1842 1.492 . S
C1837 C1836 1.404 . S
C1837 C1838 1.396 . S
C1837 C1848 1.492 . S
C1838 C1837 1.396 . S
C1838 C1839 1.397 . S
C1838 C1854 1.509 . S
C1839 C1838 1.397 . S
C1839 C1840 1.412 . S
C1839 C1860 1.485 . S
C1840 C1839 1.412 . S
C1840 C1841 1.388 . S
C1840 C1866 1.490 . S
C1841 C1836 1.397 . S
C1841 C1840 1.388 . S
C1841 C1872 1.519 . S
C1842 C1836 1.492 . S
C1842 C1843 1.363 . S
C1842 C1847 1.390 . S
C1843 H1808 0.930 . S
C1843 C1842 1.363 . S
C1843 C1844 1.372 . S
C1844 H1809 0.930 . S
C1844 C1843 1.372 . S
C1844 C1845 1.383 . S
C1845 C1844 1.383 . S
C1845 C1846 1.395 . S
C1846 H1810 0.930 . S
C1846 C1845 1.395 . S
C1846 C1847 1.362 . S
C1847 H1811 0.930 . S
C1847 C1842 1.390 . S
C1847 C1846 1.362 . S
C1848 C1837 1.492 . S
C1848 C1849 1.377 . S
C1848 C1853 1.397 . S
C1849 H1812 0.931 . S
C1849 C1848 1.377 . S
C1849 C1850 1.376 . S
C1850 H1813 0.930 . S
C1850 C1849 1.376 . S
C1850 C1851 1.376 . S
C1851 C1850 1.376 . S
C1851 C1852 1.378 . S
C1851 C1878 1.486 . S
C1852 H1814 0.930 . S
C1852 C1851 1.378 . S
C1852 C1853 1.376 . S
C1853 H1815 0.929 . S
C1853 C1848 1.397 . S
C1853 C1852 1.376 . S
C1854 C1838 1.509 . S
C1854 C1855 1.391 . S
C1854 C1859 1.386 . S
C1855 H1816 0.930 . S
C1855 C1854 1.391 . S
C1855 C1856 1.375 . S
C1856 H1817 0.931 . S
C1856 C1855 1.375 . S
C1856 C1857 1.375 . S
C1857 C1856 1.375 . S
C1857 C1858 1.361 . S
C1858 H1818 0.930 . S
C1858 C1857 1.361 . S
C1858 C1859 1.399 . S
C1859 H1819 0.929 . S
C1859 C1854 1.386 . S
C1859 C1858 1.399 . S
C1860 C1839 1.485 . S
C1860 C1861 1.394 . S
C1860 C1865 1.360 . S
C1861 H1820 0.931 . S
C1861 C1860 1.394 . S
C1861 C1862 1.372 . S
C1862 H1821 0.930 . S
C1862 C1861 1.372 . S
C1862 C1863 1.397 . S
C1863 C1862 1.397 . S
C1863 C1864 1.390 . S
C1863 C1879 1.476 . S
C1864 H1822 0.930 . S
C1864 C1863 1.390 . S
C1864 C1865 1.366 . S
C1865 H1823 0.932 . S
C1865 C1860 1.360 . S
C1865 C1864 1.366 . S
C1866 C1840 1.490 . S
C1866 C1867 1.380 . S
C1866 C1871 1.386 . S
C1867 H1824 0.930 . S
C1867 C1866 1.380 . S
C1867 C1868 1.381 . S
C1868 H1825 0.929 . S
C1868 C1867 1.381 . S
C1868 C1869 1.371 . S
C1869 C1868 1.371 . S
C1869 C1870 1.380 . S
C1870 H1826 0.931 . S
C1870 C1869 1.380 . S
C1870 C1871 1.387 . S
C1871 H1827 0.930 . S
C1871 C1866 1.386 . S
C1871 C1870 1.387 . S
C1872 C1841 1.519 . S
C1872 C1873 1.377 . S
C1872 C1877 1.361 . S
C1873 H1828 0.929 . S
C1873 C1872 1.377 . S
C1873 C1874 1.386 . S
C1874 H1829 0.931 . S
C1874 C1873 1.386 . S
C1874 C1875 1.363 . S
C1875 C1874 1.363 . S
C1875 C1876 1.385 . S
C1876 H1830 0.930 . S
C1876 C1875 1.385 . S
C1876 C1877 1.396 . S
C1877 H1831 0.929 . S
C1877 C1872 1.361 . S
C1877 C1876 1.396 . S
C1878 O1832 1.300 . S
C1878 O1833 1.209 . S
C1878 C1851 1.486 . S
C1879 O1834 1.199 . S
C1879 O1835 1.297 . S
C1879 C1863 1.476 . S
H1880 O1906 0.856 . S
H1881 O1909 0.854 . S
H1882 C1917 0.930 . S
H1883 C1918 0.930 . S
H1884 C1920 0.930 . S
H1885 C1921 0.930 . S
H1886 C1923 0.931 . S
H1887 C1924 0.930 . S
H1888 C1926 0.930 . S
H1889 C1927 0.929 . S
H1890 C1929 0.930 . S
H1891 C1930 0.931 . S
H1892 C1932 0.930 . S
H1893 C1933 0.929 . S
H1894 C1935 0.931 . S
H1895 C1936 0.930 . S
H1896 C1938 0.930 . S
H1897 C1939 0.932 . S
H1898 C1941 0.930 . S
H1899 C1942 0.929 . S
H1900 C1944 0.931 . S
H1901 C1945 0.930 . S
H1902 C1947 0.929 . S
H1903 C1948 0.931 . S
H1904 C1950 0.930 . S
H1905 C1951 0.929 . S
O1906 H1880 0.856 . S
O1906 C1952 1.300 1_554 S
O1907 C1952 1.209 1_554 S
O1908 C1953 1.199 . S
O1909 H1881 0.854 . S
O1909 C1953 1.297 . S
C1910 C1911 1.404 . S
C1910 C1915 1.397 . S
C1910 C1916 1.492 . S
C1911 C1910 1.404 . S
C1911 C1912 1.396 . S
C1911 C1922 1.492 . S
C1912 C1911 1.396 . S
C1912 C1913 1.397 . S
C1912 C1928 1.509 . S
C1913 C1912 1.397 . S
C1913 C1914 1.412 . S
C1913 C1934 1.485 . S
C1914 C1913 1.412 . S
C1914 C1915 1.388 . S
C1914 C1940 1.490 . S
C1915 C1910 1.397 . S
C1915 C1914 1.388 . S
C1915 C1946 1.519 . S
C1916 C1910 1.492 . S
C1916 C1917 1.363 . S
C1916 C1921 1.390 . S
C1917 H1882 0.930 . S
C1917 C1916 1.363 . S
C1917 C1918 1.372 . S
C1918 H1883 0.930 . S
C1918 C1917 1.372 . S
C1918 C1919 1.383 . S
C1919 C1918 1.383 . S
C1919 C1920 1.395 . S
C1920 H1884 0.930 . S
C1920 C1919 1.395 . S
C1920 C1921 1.362 . S
C1921 H1885 0.930 . S
C1921 C1916 1.390 . S
C1921 C1920 1.362 . S
C1922 C1911 1.492 . S
C1922 C1923 1.377 . S
C1922 C1927 1.397 . S
C1923 H1886 0.931 . S
C1923 C1922 1.377 . S
C1923 C1924 1.376 . S
C1924 H1887 0.930 . S
C1924 C1923 1.376 . S
C1924 C1925 1.376 . S
C1925 C1924 1.376 . S
C1925 C1926 1.378 . S
C1925 C1952 1.486 . S
C1926 H1888 0.930 . S
C1926 C1925 1.378 . S
C1926 C1927 1.376 . S
C1927 H1889 0.929 . S
C1927 C1922 1.397 . S
C1927 C1926 1.376 . S
C1928 C1912 1.509 . S
C1928 C1929 1.391 . S
C1928 C1933 1.386 . S
C1929 H1890 0.930 . S
C1929 C1928 1.391 . S
C1929 C1930 1.375 . S
C1930 H1891 0.931 . S
C1930 C1929 1.375 . S
C1930 C1931 1.375 . S
C1931 C1930 1.375 . S
C1931 C1932 1.361 . S
C1932 H1892 0.930 . S
C1932 C1931 1.361 . S
C1932 C1933 1.399 . S
C1933 H1893 0.929 . S
C1933 C1928 1.386 . S
C1933 C1932 1.399 . S
C1934 C1913 1.485 . S
C1934 C1935 1.394 . S
C1934 C1939 1.360 . S
C1935 H1894 0.931 . S
C1935 C1934 1.394 . S
C1935 C1936 1.372 . S
C1936 H1895 0.930 . S
C1936 C1935 1.372 . S
C1936 C1937 1.397 . S
C1937 C1936 1.397 . S
C1937 C1938 1.390 . S
C1937 C1953 1.476 . S
C1938 H1896 0.930 . S
C1938 C1937 1.390 . S
C1938 C1939 1.366 . S
C1939 H1897 0.932 . S
C1939 C1934 1.360 . S
C1939 C1938 1.366 . S
C1940 C1914 1.490 . S
C1940 C1941 1.380 . S
C1940 C1945 1.386 . S
C1941 H1898 0.930 . S
C1941 C1940 1.380 . S
C1941 C1942 1.381 . S
C1942 H1899 0.929 . S
C1942 C1941 1.381 . S
C1942 C1943 1.371 . S
C1943 C1942 1.371 . S
C1943 C1944 1.380 . S
C1944 H1900 0.931 . S
C1944 C1943 1.380 . S
C1944 C1945 1.387 . S
C1945 H1901 0.930 . S
C1945 C1940 1.386 . S
C1945 C1944 1.387 . S
C1946 C1915 1.519 . S
C1946 C1947 1.377 . S
C1946 C1951 1.361 . S
C1947 H1902 0.929 . S
C1947 C1946 1.377 . S
C1947 C1948 1.386 . S
C1948 H1903 0.931 . S
C1948 C1947 1.386 . S
C1948 C1949 1.363 . S
C1949 C1948 1.363 . S
C1949 C1950 1.385 . S
C1950 H1904 0.930 . S
C1950 C1949 1.385 . S
C1950 C1951 1.396 . S
C1951 H1905 0.929 . S
C1951 C1946 1.361 . S
C1951 C1950 1.396 . S
C1952 O1906 1.300 1_556 S
C1952 O1907 1.209 1_556 S
C1952 C1925 1.486 . S
C1953 O1908 1.199 . S
C1953 O1909 1.297 . S
C1953 C1937 1.476 . S
H1954 O1980 0.856 . S
H1955 O1983 0.854 . S
H1956 C1991 0.930 . S
H1957 C1992 0.930 . S
H1958 C1994 0.930 . S
H1959 C1995 0.930 . S
H1960 C1997 0.931 . S
H1961 C1998 0.930 . S
H1962 C2000 0.930 . S
H1963 C2001 0.929 . S
H1964 C2003 0.930 . S
H1965 C2004 0.931 . S
H1966 C2006 0.930 . S
H1967 C2007 0.929 . S
H1968 C2009 0.931 . S
H1969 C2010 0.930 . S
H1970 C2012 0.930 . S
H1971 C2013 0.932 . S
H1972 C2015 0.930 . S
H1973 C2016 0.929 . S
H1974 C2018 0.931 . S
H1975 C2019 0.930 . S
H1976 C2021 0.929 . S
H1977 C2022 0.931 . S
H1978 C2024 0.930 . S
H1979 C2025 0.929 . S
O1980 H1954 0.856 . S
O1980 C2026 1.300 . S
O1981 C2026 1.209 . S
O1982 C2027 1.199 . S
O1983 H1955 0.854 . S
O1983 C2027 1.297 . S
C1984 C1985 1.404 . S
C1984 C1989 1.397 . S
C1984 C1990 1.492 . S
C1985 C1984 1.404 . S
C1985 C1986 1.396 . S
C1985 C1996 1.492 . S
C1986 C1985 1.396 . S
C1986 C1987 1.397 . S
C1986 C2002 1.509 . S
C1987 C1986 1.397 . S
C1987 C1988 1.412 . S
C1987 C2008 1.485 . S
C1988 C1987 1.412 . S
C1988 C1989 1.388 . S
C1988 C2014 1.490 . S
C1989 C1984 1.397 . S
C1989 C1988 1.388 . S
C1989 C2020 1.519 . S
C1990 C1984 1.492 . S
C1990 C1991 1.363 . S
C1990 C1995 1.390 . S
C1991 H1956 0.930 . S
C1991 C1990 1.363 . S
C1991 C1992 1.372 . S
C1992 H1957 0.930 . S
C1992 C1991 1.372 . S
C1992 C1993 1.383 . S
C1993 C1992 1.383 . S
C1993 C1994 1.395 . S
C1994 H1958 0.930 . S
C1994 C1993 1.395 . S
C1994 C1995 1.362 . S
C1995 H1959 0.930 . S
C1995 C1990 1.390 . S
C1995 C1994 1.362 . S
C1996 C1985 1.492 . S
C1996 C1997 1.377 . S
C1996 C2001 1.397 . S
C1997 H1960 0.931 . S
C1997 C1996 1.377 . S
C1997 C1998 1.376 . S
C1998 H1961 0.930 . S
C1998 C1997 1.376 . S
C1998 C1999 1.376 . S
C1999 C1998 1.376 . S
C1999 C2000 1.378 . S
C1999 C2026 1.486 1_556 S
C2000 H1962 0.930 . S
C2000 C1999 1.378 . S
C2000 C2001 1.376 . S
C2001 H1963 0.929 . S
C2001 C1996 1.397 . S
C2001 C2000 1.376 . S
C2002 C1986 1.509 . S
C2002 C2003 1.391 . S
C2002 C2007 1.386 . S
C2003 H1964 0.930 . S
C2003 C2002 1.391 . S
C2003 C2004 1.375 . S
C2004 H1965 0.931 . S
C2004 C2003 1.375 . S
C2004 C2005 1.375 . S
C2005 C2004 1.375 . S
C2005 C2006 1.361 . S
C2006 H1966 0.930 . S
C2006 C2005 1.361 . S
C2006 C2007 1.399 . S
C2007 H1967 0.929 . S
C2007 C2002 1.386 . S
C2007 C2006 1.399 . S
C2008 C1987 1.485 . S
C2008 C2009 1.394 . S
C2008 C2013 1.360 . S
C2009 H1968 0.931 . S
C2009 C2008 1.394 . S
C2009 C2010 1.372 . S
C2010 H1969 0.930 . S
C2010 C2009 1.372 . S
C2010 C2011 1.397 . S
C2011 C2010 1.397 . S
C2011 C2012 1.390 . S
C2011 C2027 1.476 . S
C2012 H1970 0.930 . S
C2012 C2011 1.390 . S
C2012 C2013 1.366 . S
C2013 H1971 0.932 . S
C2013 C2008 1.360 . S
C2013 C2012 1.366 . S
C2014 C1988 1.490 . S
C2014 C2015 1.380 . S
C2014 C2019 1.386 . S
C2015 H1972 0.930 . S
C2015 C2014 1.380 . S
C2015 C2016 1.381 . S
C2016 H1973 0.929 . S
C2016 C2015 1.381 . S
C2016 C2017 1.371 . S
C2017 C2016 1.371 . S
C2017 C2018 1.380 . S
C2018 H1974 0.931 . S
C2018 C2017 1.380 . S
C2018 C2019 1.387 . S
C2019 H1975 0.930 . S
C2019 C2014 1.386 . S
C2019 C2018 1.387 . S
C2020 C1989 1.519 . S
C2020 C2021 1.377 . S
C2020 C2025 1.361 . S
C2021 H1976 0.929 . S
C2021 C2020 1.377 . S
C2021 C2022 1.386 . S
C2022 H1977 0.931 . S
C2022 C2021 1.386 . S
C2022 C2023 1.363 . S
C2023 C2022 1.363 . S
C2023 C2024 1.385 . S
C2024 H1978 0.930 . S
C2024 C2023 1.385 . S
C2024 C2025 1.396 . S
C2025 H1979 0.929 . S
C2025 C2020 1.361 . S
C2025 C2024 1.396 . S
C2026 O1980 1.300 . S
C2026 O1981 1.209 . S
C2026 C1999 1.486 1_554 S
C2027 O1982 1.199 . S
C2027 O1983 1.297 . S
C2027 C2011 1.476 . S
H2028 O2054 0.856 . S
H2029 O2057 0.854 . S
H2030 C2065 0.930 . S
H2031 C2066 0.930 . S
H2032 C2068 0.930 . S
H2033 C2069 0.930 . S
H2034 C2071 0.931 . S
H2035 C2072 0.930 . S
H2036 C2074 0.930 . S
H2037 C2075 0.929 . S
H2038 C2077 0.930 . S
H2039 C2078 0.931 . S
H2040 C2080 0.930 . S
H2041 C2081 0.929 . S
H2042 C2083 0.931 . S
H2043 C2084 0.930 . S
H2044 C2086 0.930 . S
H2045 C2087 0.932 . S
H2046 C2089 0.930 . S
H2047 C2090 0.929 . S
H2048 C2092 0.931 . S
H2049 C2093 0.930 . S
H2050 C2095 0.929 . S
H2051 C2096 0.931 . S
H2052 C2098 0.930 . S
H2053 C2099 0.929 . S
O2054 H2028 0.856 . S
O2054 C2100 1.300 . S
O2055 C2100 1.209 . S
O2056 C2101 1.199 . S
O2057 H2029 0.854 . S
O2057 C2101 1.297 . S
C2058 C2059 1.404 . S
C2058 C2063 1.397 . S
C2058 C2064 1.492 . S
C2059 C2058 1.404 . S
C2059 C2060 1.396 . S
C2059 C2070 1.492 . S
C2060 C2059 1.396 . S
C2060 C2061 1.397 . S
C2060 C2076 1.509 . S
C2061 C2060 1.397 . S
C2061 C2062 1.412 . S
C2061 C2082 1.485 . S
C2062 C2061 1.412 . S
C2062 C2063 1.388 . S
C2062 C2088 1.490 . S
C2063 C2058 1.397 . S
C2063 C2062 1.388 . S
C2063 C2094 1.519 . S
C2064 C2058 1.492 . S
C2064 C2065 1.363 . S
C2064 C2069 1.390 . S
C2065 H2030 0.930 . S
C2065 C2064 1.363 . S
C2065 C2066 1.372 . S
C2066 H2031 0.930 . S
C2066 C2065 1.372 . S
C2066 C2067 1.383 . S
C2067 C2066 1.383 . S
C2067 C2068 1.395 . S
C2068 H2032 0.930 . S
C2068 C2067 1.395 . S
C2068 C2069 1.362 . S
C2069 H2033 0.930 . S
C2069 C2064 1.390 . S
C2069 C2068 1.362 . S
C2070 C2059 1.492 . S
C2070 C2071 1.377 . S
C2070 C2075 1.397 . S
C2071 H2034 0.931 . S
C2071 C2070 1.377 . S
C2071 C2072 1.376 . S
C2072 H2035 0.930 . S
C2072 C2071 1.376 . S
C2072 C2073 1.376 . S
C2073 C2072 1.376 . S
C2073 C2074 1.378 . S
C2073 C2100 1.486 . S
C2074 H2036 0.930 . S
C2074 C2073 1.378 . S
C2074 C2075 1.376 . S
C2075 H2037 0.929 . S
C2075 C2070 1.397 . S
C2075 C2074 1.376 . S
C2076 C2060 1.509 . S
C2076 C2077 1.391 . S
C2076 C2081 1.386 . S
C2077 H2038 0.930 . S
C2077 C2076 1.391 . S
C2077 C2078 1.375 . S
C2078 H2039 0.931 . S
C2078 C2077 1.375 . S
C2078 C2079 1.375 . S
C2079 C2078 1.375 . S
C2079 C2080 1.361 . S
C2080 H2040 0.930 . S
C2080 C2079 1.361 . S
C2080 C2081 1.399 . S
C2081 H2041 0.929 . S
C2081 C2076 1.386 . S
C2081 C2080 1.399 . S
C2082 C2061 1.485 . S
C2082 C2083 1.394 . S
C2082 C2087 1.360 . S
C2083 H2042 0.931 . S
C2083 C2082 1.394 . S
C2083 C2084 1.372 . S
C2084 H2043 0.930 . S
C2084 C2083 1.372 . S
C2084 C2085 1.397 . S
C2085 C2084 1.397 . S
C2085 C2086 1.390 . S
C2085 C2101 1.476 . S
C2086 H2044 0.930 . S
C2086 C2085 1.390 . S
C2086 C2087 1.366 . S
C2087 H2045 0.932 . S
C2087 C2082 1.360 . S
C2087 C2086 1.366 . S
C2088 C2062 1.490 . S
C2088 C2089 1.380 . S
C2088 C2093 1.386 . S
C2089 H2046 0.930 . S
C2089 C2088 1.380 . S
C2089 C2090 1.381 . S
C2090 H2047 0.929 . S
C2090 C2089 1.381 . S
C2090 C2091 1.371 . S
C2091 C2090 1.371 . S
C2091 C2092 1.380 . S
C2092 H2048 0.931 . S
C2092 C2091 1.380 . S
C2092 C2093 1.387 . S
C2093 H2049 0.930 . S
C2093 C2088 1.386 . S
C2093 C2092 1.387 . S
C2094 C2063 1.519 . S
C2094 C2095 1.377 . S
C2094 C2099 1.361 . S
C2095 H2050 0.929 . S
C2095 C2094 1.377 . S
C2095 C2096 1.386 . S
C2096 H2051 0.931 . S
C2096 C2095 1.386 . S
C2096 C2097 1.363 . S
C2097 C2096 1.363 . S
C2097 C2098 1.385 . S
C2098 H2052 0.930 . S
C2098 C2097 1.385 . S
C2098 C2099 1.396 . S
C2099 H2053 0.929 . S
C2099 C2094 1.361 . S
C2099 C2098 1.396 . S
C2100 O2054 1.300 . S
C2100 O2055 1.209 . S
C2100 C2073 1.486 . S
C2101 O2056 1.199 . S
C2101 O2057 1.297 . S
C2101 C2085 1.476 . S
H2102 O2128 0.856 . S
H2103 O2131 0.854 . S
H2104 C2139 0.930 . S
H2105 C2140 0.930 . S
H2106 C2142 0.930 . S
H2107 C2143 0.930 . S
H2108 C2145 0.931 . S
H2109 C2146 0.930 . S
H2110 C2148 0.930 . S
H2111 C2149 0.929 . S
H2112 C2151 0.930 . S
H2113 C2152 0.931 . S
H2114 C2154 0.930 . S
H2115 C2155 0.929 . S
H2116 C2157 0.931 . S
H2117 C2158 0.930 . S
H2118 C2160 0.930 . S
H2119 C2161 0.932 . S
H2120 C2163 0.930 . S
H2121 C2164 0.929 . S
H2122 C2166 0.931 . S
H2123 C2167 0.930 . S
H2124 C2169 0.929 . S
H2125 C2170 0.931 . S
H2126 C2172 0.930 . S
H2127 C2173 0.929 . S
O2128 H2102 0.856 . S
O2128 C2174 1.300 . S
O2129 C2174 1.209 . S
O2130 C2175 1.199 . S
O2131 H2103 0.854 . S
O2131 C2175 1.297 . S
C2132 C2133 1.404 . S
C2132 C2137 1.397 . S
C2132 C2138 1.492 . S
C2133 C2132 1.404 . S
C2133 C2134 1.396 . S
C2133 C2144 1.492 . S
C2134 C2133 1.396 . S
C2134 C2135 1.397 . S
C2134 C2150 1.509 . S
C2135 C2134 1.397 . S
C2135 C2136 1.412 . S
C2135 C2156 1.485 . S
C2136 C2135 1.412 . S
C2136 C2137 1.388 . S
C2136 C2162 1.490 . S
C2137 C2132 1.397 . S
C2137 C2136 1.388 . S
C2137 C2168 1.519 . S
C2138 C2132 1.492 . S
C2138 C2139 1.363 . S
C2138 C2143 1.390 . S
C2139 H2104 0.930 . S
C2139 C2138 1.363 . S
C2139 C2140 1.372 . S
C2140 H2105 0.930 . S
C2140 C2139 1.372 . S
C2140 C2141 1.383 . S
C2141 C2140 1.383 . S
C2141 C2142 1.395 . S
C2142 H2106 0.930 . S
C2142 C2141 1.395 . S
C2142 C2143 1.362 . S
C2143 H2107 0.930 . S
C2143 C2138 1.390 . S
C2143 C2142 1.362 . S
C2144 C2133 1.492 . S
C2144 C2145 1.377 . S
C2144 C2149 1.397 . S
C2145 H2108 0.931 . S
C2145 C2144 1.377 . S
C2145 C2146 1.376 . S
C2146 H2109 0.930 . S
C2146 C2145 1.376 . S
C2146 C2147 1.376 . S
C2147 C2146 1.376 . S
C2147 C2148 1.378 . S
C2147 C2174 1.486 . S
C2148 H2110 0.930 . S
C2148 C2147 1.378 . S
C2148 C2149 1.376 . S
C2149 H2111 0.929 . S
C2149 C2144 1.397 . S
C2149 C2148 1.376 . S
C2150 C2134 1.509 . S
C2150 C2151 1.391 . S
C2150 C2155 1.386 . S
C2151 H2112 0.930 . S
C2151 C2150 1.391 . S
C2151 C2152 1.375 . S
C2152 H2113 0.931 . S
C2152 C2151 1.375 . S
C2152 C2153 1.375 . S
C2153 C2152 1.375 . S
C2153 C2154 1.361 . S
C2154 H2114 0.930 . S
C2154 C2153 1.361 . S
C2154 C2155 1.399 . S
C2155 H2115 0.929 . S
C2155 C2150 1.386 . S
C2155 C2154 1.399 . S
C2156 C2135 1.485 . S
C2156 C2157 1.394 . S
C2156 C2161 1.360 . S
C2157 H2116 0.931 . S
C2157 C2156 1.394 . S
C2157 C2158 1.372 . S
C2158 H2117 0.930 . S
C2158 C2157 1.372 . S
C2158 C2159 1.397 . S
C2159 C2158 1.397 . S
C2159 C2160 1.390 . S
C2159 C2175 1.476 . S
C2160 H2118 0.930 . S
C2160 C2159 1.390 . S
C2160 C2161 1.366 . S
C2161 H2119 0.932 . S
C2161 C2156 1.360 . S
C2161 C2160 1.366 . S
C2162 C2136 1.490 . S
C2162 C2163 1.380 . S
C2162 C2167 1.386 . S
C2163 H2120 0.930 . S
C2163 C2162 1.380 . S
C2163 C2164 1.381 . S
C2164 H2121 0.929 . S
C2164 C2163 1.381 . S
C2164 C2165 1.371 . S
C2165 C2164 1.371 . S
C2165 C2166 1.380 . S
C2166 H2122 0.931 . S
C2166 C2165 1.380 . S
C2166 C2167 1.387 . S
C2167 H2123 0.930 . S
C2167 C2162 1.386 . S
C2167 C2166 1.387 . S
C2168 C2137 1.519 . S
C2168 C2169 1.377 . S
C2168 C2173 1.361 . S
C2169 H2124 0.929 . S
C2169 C2168 1.377 . S
C2169 C2170 1.386 . S
C2170 H2125 0.931 . S
C2170 C2169 1.386 . S
C2170 C2171 1.363 . S
C2171 C2170 1.363 . S
C2171 C2172 1.385 . S
C2172 H2126 0.930 . S
C2172 C2171 1.385 . S
C2172 C2173 1.396 . S
C2173 H2127 0.929 . S
C2173 C2168 1.361 . S
C2173 C2172 1.396 . S
C2174 O2128 1.300 . S
C2174 O2129 1.209 . S
C2174 C2147 1.486 . S
C2175 O2130 1.199 . S
C2175 O2131 1.297 . S
C2175 C2159 1.476 . S
H2176 O2202 0.856 . S
H2177 O2205 0.854 . S
H2178 C2213 0.930 . S
H2179 C2214 0.930 . S
H2180 C2216 0.930 . S
H2181 C2217 0.930 . S
H2182 C2219 0.931 . S
H2183 C2220 0.930 . S
H2184 C2222 0.930 . S
H2185 C2223 0.929 . S
H2186 C2225 0.930 . S
H2187 C2226 0.931 . S
H2188 C2228 0.930 . S
H2189 C2229 0.929 . S
H2190 C2231 0.931 . S
H2191 C2232 0.930 . S
H2192 C2234 0.930 . S
H2193 C2235 0.932 . S
H2194 C2237 0.930 . S
H2195 C2238 0.929 . S
H2196 C2240 0.931 . S
H2197 C2241 0.930 . S
H2198 C2243 0.929 . S
H2199 C2244 0.931 . S
H2200 C2246 0.930 . S
H2201 C2247 0.929 . S
O2202 H2176 0.856 . S
O2202 C2248 1.300 . S
O2203 C2248 1.209 . S
O2204 C2249 1.199 . S
O2205 H2177 0.854 . S
O2205 C2249 1.297 . S
C2206 C2207 1.404 . S
C2206 C2211 1.397 . S
C2206 C2212 1.492 . S
C2207 C2206 1.404 . S
C2207 C2208 1.396 . S
C2207 C2218 1.492 . S
C2208 C2207 1.396 . S
C2208 C2209 1.397 . S
C2208 C2224 1.509 . S
C2209 C2208 1.397 . S
C2209 C2210 1.412 . S
C2209 C2230 1.485 . S
C2210 C2209 1.412 . S
C2210 C2211 1.388 . S
C2210 C2236 1.490 . S
C2211 C2206 1.397 . S
C2211 C2210 1.388 . S
C2211 C2242 1.519 . S
C2212 C2206 1.492 . S
C2212 C2213 1.363 . S
C2212 C2217 1.390 . S
C2213 H2178 0.930 . S
C2213 C2212 1.363 . S
C2213 C2214 1.372 . S
C2214 H2179 0.930 . S
C2214 C2213 1.372 . S
C2214 C2215 1.383 . S
C2215 C2214 1.383 . S
C2215 C2216 1.395 . S
C2216 H2180 0.930 . S
C2216 C2215 1.395 . S
C2216 C2217 1.362 . S
C2217 H2181 0.930 . S
C2217 C2212 1.390 . S
C2217 C2216 1.362 . S
C2218 C2207 1.492 . S
C2218 C2219 1.377 . S
C2218 C2223 1.397 . S
C2219 H2182 0.931 . S
C2219 C2218 1.377 . S
C2219 C2220 1.376 . S
C2220 H2183 0.930 . S
C2220 C2219 1.376 . S
C2220 C2221 1.376 . S
C2221 C2220 1.376 . S
C2221 C2222 1.378 . S
C2221 C2248 1.486 . S
C2222 H2184 0.930 . S
C2222 C2221 1.378 . S
C2222 C2223 1.376 . S
C2223 H2185 0.929 . S
C2223 C2218 1.397 . S
C2223 C2222 1.376 . S
C2224 C2208 1.509 . S
C2224 C2225 1.391 . S
C2224 C2229 1.386 . S
C2225 H2186 0.930 . S
C2225 C2224 1.391 . S
C2225 C2226 1.375 . S
C2226 H2187 0.931 . S
C2226 C2225 1.375 . S
C2226 C2227 1.375 . S
C2227 C2226 1.375 . S
C2227 C2228 1.361 . S
C2228 H2188 0.930 . S
C2228 C2227 1.361 . S
C2228 C2229 1.399 . S
C2229 H2189 0.929 . S
C2229 C2224 1.386 . S
C2229 C2228 1.399 . S
C2230 C2209 1.485 . S
C2230 C2231 1.394 . S
C2230 C2235 1.360 . S
C2231 H2190 0.931 . S
C2231 C2230 1.394 . S
C2231 C2232 1.372 . S
C2232 H2191 0.930 . S
C2232 C2231 1.372 . S
C2232 C2233 1.397 . S
C2233 C2232 1.397 . S
C2233 C2234 1.390 . S
C2233 C2249 1.476 . S
C2234 H2192 0.930 . S
C2234 C2233 1.390 . S
C2234 C2235 1.366 . S
C2235 H2193 0.932 . S
C2235 C2230 1.360 . S
C2235 C2234 1.366 . S
C2236 C2210 1.490 . S
C2236 C2237 1.380 . S
C2236 C2241 1.386 . S
C2237 H2194 0.930 . S
C2237 C2236 1.380 . S
C2237 C2238 1.381 . S
C2238 H2195 0.929 . S
C2238 C2237 1.381 . S
C2238 C2239 1.371 . S
C2239 C2238 1.371 . S
C2239 C2240 1.380 . S
C2240 H2196 0.931 . S
C2240 C2239 1.380 . S
C2240 C2241 1.387 . S
C2241 H2197 0.930 . S
C2241 C2236 1.386 . S
C2241 C2240 1.387 . S
C2242 C2211 1.519 . S
C2242 C2243 1.377 . S
C2242 C2247 1.361 . S
C2243 H2198 0.929 . S
C2243 C2242 1.377 . S
C2243 C2244 1.386 . S
C2244 H2199 0.931 . S
C2244 C2243 1.386 . S
C2244 C2245 1.363 . S
C2245 C2244 1.363 . S
C2245 C2246 1.385 . S
C2246 H2200 0.930 . S
C2246 C2245 1.385 . S
C2246 C2247 1.396 . S
C2247 H2201 0.929 . S
C2247 C2242 1.361 . S
C2247 C2246 1.396 . S
C2248 O2202 1.300 . S
C2248 O2203 1.209 . S
C2248 C2221 1.486 . S
C2249 O2204 1.199 . S
C2249 O2205 1.297 . S
C2249 C2233 1.476 . S
H2250 O2276 0.856 . S
H2251 O2279 0.854 . S
H2252 C2287 0.930 . S
H2253 C2288 0.930 . S
H2254 C2290 0.930 . S
H2255 C2291 0.930 . S
H2256 C2293 0.931 . S
H2257 C2294 0.930 1_655 S
H2258 C2296 0.930 . S
H2259 C2297 0.929 . S
H2260 C2299 0.930 . S
H2261 C2300 0.910 1_655 S
H2262 C2302 0.930 . S
H2263 C2303 0.929 . S
H2264 C2305 0.931 . S
H2265 C2306 0.930 . S
H2266 C2308 0.930 . S
H2267 C2309 0.932 . S
H2268 C2311 0.930 . S
H2269 C2312 0.929 . S
H2270 C2314 0.931 . S
H2271 C2315 0.930 . S
H2272 C2317 0.929 . S
H2273 C2318 0.931 . S
H2274 C2320 0.930 . S
H2275 C2321 0.929 . S
O2276 H2250 0.856 . S
O2276 C2322 1.300 . S
O2277 C2322 1.209 . S
O2278 C2323 1.199 1_655 S
O2279 H2251 0.854 . S
O2279 C2323 1.297 . S
C2280 C2281 1.404 . S
C2280 C2285 1.395 . S
C2280 C2286 1.492 . S
C2281 C2280 1.404 . S
C2281 C2282 1.396 . S
C2281 C2292 1.492 . S
C2282 C2281 1.396 . S
C2282 C2283 1.397 . S
C2282 C2298 1.509 . S
C2283 C2282 1.397 . S
C2283 C2284 1.423 . S
C2283 C2304 1.485 . S
C2284 C2283 1.423 . S
C2284 C2285 1.405 . S
C2284 C2310 1.490 1_455 S
C2285 C2280 1.395 . S
C2285 C2284 1.405 . S
C2285 C2316 1.489 1_455 S
C2286 C2280 1.492 . S
C2286 C2287 1.363 1_455 S
C2286 C2291 1.390 . S
C2287 H2252 0.930 . S
C2287 C2286 1.363 1_655 S
C2287 C2288 1.372 . S
C2288 H2253 0.930 . S
C2288 C2287 1.372 . S
C2288 C2289 1.383 . S
C2289 C2288 1.383 . S
C2289 C2290 1.395 1_655 S
C2290 H2254 0.930 . S
C2290 C2289 1.395 1_455 S
C2290 C2291 1.362 . S
C2291 H2255 0.930 . S
C2291 C2286 1.390 . S
C2291 C2290 1.362 . S
C2292 C2281 1.492 . S
C2292 C2293 1.377 1_455 S
C2292 C2297 1.397 . S
C2293 H2256 0.931 . S
C2293 C2292 1.377 1_655 S
C2293 C2294 1.376 1_655 S
C2294 H2257 0.930 1_455 S
C2294 C2293 1.376 1_455 S
C2294 C2295 1.376 . S
C2295 C2294 1.376 . S
C2295 C2296 1.378 . S
C2295 C2322 1.486 . S
C2296 H2258 0.930 . S
C2296 C2295 1.378 . S
C2296 C2297 1.376 . S
C2297 H2259 0.929 . S
C2297 C2292 1.397 . S
C2297 C2296 1.376 . S
C2298 C2282 1.509 . S
C2298 C2299 1.391 1_455 S
C2298 C2303 1.386 . S
C2299 H2260 0.930 . S
C2299 C2298 1.391 1_655 S
C2299 C2300 1.346 1_655 S
C2300 H2261 0.910 1_455 S
C2300 C2299 1.346 1_455 S
C2300 C2301 1.427 . S
C2301 C2300 1.427 . S
C2301 C2302 1.361 . S
C2302 H2262 0.930 . S
C2302 C2301 1.361 . S
C2302 C2303 1.399 . S
C2303 H2263 0.929 . S
C2303 C2298 1.386 . S
C2303 C2302 1.399 . S
C2304 C2283 1.485 . S
C2304 C2305 1.394 1_455 S
C2304 C2309 1.360 . S
C2305 H2264 0.931 . S
C2305 C2304 1.394 1_655 S
C2305 C2306 1.372 . S
C2306 H2265 0.930 . S
C2306 C2305 1.372 . S
C2306 C2307 1.397 1_655 S
C2307 C2306 1.397 1_455 S
C2307 C2308 1.390 . S
C2307 C2323 1.476 . S
C2308 H2266 0.930 . S
C2308 C2307 1.390 . S
C2308 C2309 1.366 . S
C2309 H2267 0.932 . S
C2309 C2304 1.360 . S
C2309 C2308 1.366 . S
C2310 C2284 1.490 1_655 S
C2310 C2311 1.380 . S
C2310 C2315 1.386 1_655 S
C2311 H2268 0.930 . S
C2311 C2310 1.380 . S
C2311 C2312 1.381 . S
C2312 H2269 0.929 . S
C2312 C2311 1.381 . S
C2312 C2313 1.371 . S
C2313 C2312 1.371 . S
C2313 C2314 1.380 1_655 S
C2314 H2270 0.931 . S
C2314 C2313 1.380 1_455 S
C2314 C2315 1.387 . S
C2315 H2271 0.930 . S
C2315 C2310 1.386 1_455 S
C2315 C2314 1.387 . S
C2316 C2285 1.489 1_655 S
C2316 C2317 1.407 . S
C2316 C2321 1.341 1_655 S
C2317 H2272 0.929 . S
C2317 C2316 1.407 . S
C2317 C2318 1.386 . S
C2318 H2273 0.931 . S
C2318 C2317 1.386 . S
C2318 C2319 1.381 . S
C2319 C2318 1.381 . S
C2319 C2320 1.359 1_655 S
C2320 H2274 0.930 . S
C2320 C2319 1.359 1_455 S
C2320 C2321 1.396 . S
C2321 H2275 0.929 . S
C2321 C2316 1.341 1_455 S
C2321 C2320 1.396 . S
C2322 O2276 1.300 . S
C2322 O2277 1.209 . S
C2322 C2295 1.486 . S
C2323 O2278 1.199 1_455 S
C2323 O2279 1.297 . S
C2323 C2307 1.476 . S
H2324 O2350 0.856 . S
H2325 O2353 0.854 . S
H2326 C2361 0.930 . S
H2327 C2362 0.930 . S
H2328 C2364 0.930 . S
H2329 C2365 0.930 . S
H2330 C2367 0.931 . S
H2331 C2368 0.930 . S
H2332 C2370 0.930 . S
H2333 C2371 0.929 . S
H2334 C2373 0.930 . S
H2335 C2374 0.931 . S
H2336 C2376 0.930 . S
H2337 C2377 0.929 . S
H2338 C2379 0.931 . S
H2339 C2380 0.930 . S
H2340 C2382 0.930 . S
H2341 C2383 0.932 . S
H2342 C2385 0.930 . S
H2343 C2386 0.929 . S
H2344 C2388 0.931 . S
H2345 C2389 0.930 . S
H2346 C2391 0.929 . S
H2347 C2392 0.931 . S
H2348 C2394 0.930 . S
H2349 C2395 0.929 . S
O2350 H2324 0.856 . S
O2350 C2396 1.300 . S
O2351 C2396 1.209 . S
O2352 C2397 1.199 . S
O2353 H2325 0.854 . S
O2353 C2397 1.297 . S
C2354 C2355 1.404 . S
C2354 C2359 1.397 . S
C2354 C2360 1.492 . S
C2355 C2354 1.404 . S
C2355 C2356 1.396 . S
C2355 C2366 1.492 . S
C2356 C2355 1.396 . S
C2356 C2357 1.397 . S
C2356 C2372 1.509 . S
C2357 C2356 1.397 . S
C2357 C2358 1.412 . S
C2357 C2378 1.485 . S
C2358 C2357 1.412 . S
C2358 C2359 1.388 . S
C2358 C2384 1.490 . S
C2359 C2354 1.397 . S
C2359 C2358 1.388 . S
C2359 C2390 1.519 . S
C2360 C2354 1.492 . S
C2360 C2361 1.363 . S
C2360 C2365 1.390 . S
C2361 H2326 0.930 . S
C2361 C2360 1.363 . S
C2361 C2362 1.372 . S
C2362 H2327 0.930 . S
C2362 C2361 1.372 . S
C2362 C2363 1.383 . S
C2363 C2362 1.383 . S
C2363 C2364 1.395 . S
C2364 H2328 0.930 . S
C2364 C2363 1.395 . S
C2364 C2365 1.362 . S
C2365 H2329 0.930 . S
C2365 C2360 1.390 . S
C2365 C2364 1.362 . S
C2366 C2355 1.492 . S
C2366 C2367 1.377 . S
C2366 C2371 1.397 . S
C2367 H2330 0.931 . S
C2367 C2366 1.377 . S
C2367 C2368 1.376 . S
C2368 H2331 0.930 . S
C2368 C2367 1.376 . S
C2368 C2369 1.376 . S
C2369 C2368 1.376 . S
C2369 C2370 1.378 . S
C2369 C2396 1.486 . S
C2370 H2332 0.930 . S
C2370 C2369 1.378 . S
C2370 C2371 1.376 . S
C2371 H2333 0.929 . S
C2371 C2366 1.397 . S
C2371 C2370 1.376 . S
C2372 C2356 1.509 . S
C2372 C2373 1.391 . S
C2372 C2377 1.386 . S
C2373 H2334 0.930 . S
C2373 C2372 1.391 . S
C2373 C2374 1.375 . S
C2374 H2335 0.931 . S
C2374 C2373 1.375 . S
C2374 C2375 1.375 . S
C2375 C2374 1.375 . S
C2375 C2376 1.361 . S
C2376 H2336 0.930 . S
C2376 C2375 1.361 . S
C2376 C2377 1.399 . S
C2377 H2337 0.929 . S
C2377 C2372 1.386 . S
C2377 C2376 1.399 . S
C2378 C2357 1.485 . S
C2378 C2379 1.394 . S
C2378 C2383 1.360 . S
C2379 H2338 0.931 . S
C2379 C2378 1.394 . S
C2379 C2380 1.372 . S
C2380 H2339 0.930 . S
C2380 C2379 1.372 . S
C2380 C2381 1.397 . S
C2381 C2380 1.397 . S
C2381 C2382 1.390 . S
C2381 C2397 1.476 . S
C2382 H2340 0.930 . S
C2382 C2381 1.390 . S
C2382 C2383 1.366 . S
C2383 H2341 0.932 . S
C2383 C2378 1.360 . S
C2383 C2382 1.366 . S
C2384 C2358 1.490 . S
C2384 C2385 1.380 . S
C2384 C2389 1.386 . S
C2385 H2342 0.930 . S
C2385 C2384 1.380 . S
C2385 C2386 1.381 . S
C2386 H2343 0.929 . S
C2386 C2385 1.381 . S
C2386 C2387 1.371 . S
C2387 C2386 1.371 . S
C2387 C2388 1.380 . S
C2388 H2344 0.931 . S
C2388 C2387 1.380 . S
C2388 C2389 1.387 . S
C2389 H2345 0.930 . S
C2389 C2384 1.386 . S
C2389 C2388 1.387 . S
C2390 C2359 1.519 . S
C2390 C2391 1.377 . S
C2390 C2395 1.361 . S
C2391 H2346 0.929 . S
C2391 C2390 1.377 . S
C2391 C2392 1.386 . S
C2392 H2347 0.931 . S
C2392 C2391 1.386 . S
C2392 C2393 1.363 . S
C2393 C2392 1.363 . S
C2393 C2394 1.385 . S
C2394 H2348 0.930 . S
C2394 C2393 1.385 . S
C2394 C2395 1.396 . S
C2395 H2349 0.929 . S
C2395 C2390 1.361 . S
C2395 C2394 1.396 . S
C2396 O2350 1.300 . S
C2396 O2351 1.209 . S
C2396 C2369 1.486 . S
C2397 O2352 1.199 . S
C2397 O2353 1.297 . S
C2397 C2381 1.476 . S
H2398 O2424 0.856 . S
H2399 O2427 0.854 . S
H2400 C2435 0.930 . S
H2401 C2436 0.930 . S
H2402 C2438 0.930 . S
H2403 C2439 0.930 . S
H2404 C2441 0.931 . S
H2405 C2442 0.932 . S
H2406 C2444 0.930 . S
H2407 C2445 0.929 . S
H2408 C2447 0.930 . S
H2409 C2448 1.000 . S
H2410 C2450 0.930 . S
H2411 C2451 0.929 . S
H2412 C2453 0.931 . S
H2413 C2454 0.930 . S
H2414 C2456 0.930 . S
H2415 C2457 0.932 . S
H2416 C2459 0.930 . S
H2417 C2460 0.929 . S
H2418 C2462 0.931 . S
H2419 C2463 0.930 . S
H2420 C2465 0.929 . S
H2421 C2466 0.931 . S
H2422 C2468 0.930 . S
H2423 C2469 0.929 . S
O2424 H2398 0.856 . S
O2424 C2470 1.300 . S
O2425 C2470 1.209 . S
O2426 C2471 1.199 1_545 S
O2427 H2399 0.854 . S
O2427 C2471 1.297 . S
C2428 C2429 1.404 . S
C2428 C2433 1.413 . S
C2428 C2434 1.492 . S
C2429 C2428 1.404 . S
C2429 C2430 1.396 . S
C2429 C2440 1.492 . S
C2430 C2429 1.396 . S
C2430 C2431 1.397 . S
C2430 C2446 1.509 . S
C2431 C2430 1.397 . S
C2431 C2432 1.410 . S
C2431 C2452 1.485 . S
C2432 C2431 1.410 . S
C2432 C2433 1.368 . S
C2432 C2458 1.487 1_565 S
C2433 C2428 1.413 . S
C2433 C2432 1.368 . S
C2433 C2464 1.534 1_565 S
C2434 C2428 1.492 . S
C2434 C2435 1.363 1_565 S
C2434 C2439 1.390 . S
C2435 H2400 0.930 . S
C2435 C2434 1.363 1_545 S
C2435 C2436 1.372 . S
C2436 H2401 0.930 . S
C2436 C2435 1.372 . S
C2436 C2437 1.383 . S
C2437 C2436 1.383 . S
C2437 C2438 1.395 1_545 S
C2438 H2402 0.930 . S
C2438 C2437 1.395 1_565 S
C2438 C2439 1.362 . S
C2439 H2403 0.930 . S
C2439 C2434 1.390 . S
C2439 C2438 1.362 . S
C2440 C2429 1.492 . S
C2440 C2441 1.377 1_565 S
C2440 C2445 1.397 . S
C2441 H2404 0.931 . S
C2441 C2440 1.377 1_545 S
C2441 C2442 1.377 . S
C2442 H2405 0.932 . S
C2442 C2441 1.377 . S
C2442 C2443 1.372 1_545 S
C2443 C2442 1.372 1_565 S
C2443 C2444 1.378 . S
C2443 C2470 1.486 . S
C2444 H2406 0.930 . S
C2444 C2443 1.378 . S
C2444 C2445 1.376 . S
C2445 H2407 0.929 . S
C2445 C2440 1.397 . S
C2445 C2444 1.376 . S
C2446 C2430 1.509 . S
C2446 C2447 1.391 1_565 S
C2446 C2451 1.386 . S
C2447 H2408 0.930 . S
C2447 C2446 1.391 1_545 S
C2447 C2448 1.365 . S
C2448 H2409 1.000 . S
C2448 C2447 1.365 . S
C2448 C2449 1.321 1_545 S
C2449 C2448 1.321 1_565 S
C2449 C2450 1.361 . S
C2450 H2410 0.930 . S
C2450 C2449 1.361 . S
C2450 C2451 1.399 . S
C2451 H2411 0.929 . S
C2451 C2446 1.386 . S
C2451 C2450 1.399 . S
C2452 C2431 1.485 . S
C2452 C2453 1.394 1_565 S
C2452 C2457 1.360 . S
C2453 H2412 0.931 . S
C2453 C2452 1.394 1_545 S
C2453 C2454 1.372 . S
C2454 H2413 0.930 . S
C2454 C2453 1.372 . S
C2454 C2455 1.397 1_545 S
C2455 C2454 1.397 1_565 S
C2455 C2456 1.390 . S
C2455 C2471 1.476 . S
C2456 H2414 0.930 . S
C2456 C2455 1.390 . S
C2456 C2457 1.366 . S
C2457 H2415 0.932 . S
C2457 C2452 1.360 . S
C2457 C2456 1.366 . S
C2458 C2432 1.487 1_545 S
C2458 C2459 1.380 . S
C2458 C2463 1.386 1_545 S
C2459 H2416 0.930 . S
C2459 C2458 1.380 . S
C2459 C2460 1.381 . S
C2460 H2417 0.929 . S
C2460 C2459 1.381 . S
C2460 C2461 1.371 . S
C2461 C2460 1.371 . S
C2461 C2462 1.380 1_545 S
C2462 H2418 0.931 . S
C2462 C2461 1.380 1_565 S
C2462 C2463 1.387 . S
C2463 H2419 0.930 . S
C2463 C2458 1.386 1_565 S
C2463 C2462 1.387 . S
C2464 C2433 1.534 1_545 S
C2464 C2465 1.377 . S
C2464 C2469 1.361 1_545 S
C2465 H2420 0.929 . S
C2465 C2464 1.377 . S
C2465 C2466 1.386 . S
C2466 H2421 0.931 . S
C2466 C2465 1.386 . S
C2466 C2467 1.328 1_545 S
C2467 C2466 1.328 1_565 S
C2467 C2468 1.403 . S
C2468 H2422 0.930 . S
C2468 C2467 1.403 . S
C2468 C2469 1.396 . S
C2469 H2423 0.929 . S
C2469 C2464 1.361 1_565 S
C2469 C2468 1.396 . S
C2470 O2424 1.300 . S
C2470 O2425 1.209 . S
C2470 C2443 1.486 . S
C2471 O2426 1.199 1_565 S
C2471 O2427 1.297 . S
C2471 C2455 1.476 . S
H2472 O2498 0.856 . S
H2473 O2501 0.854 . S
H2474 C2509 0.930 . S
H2475 C2510 0.930 . S
H2476 C2512 0.930 . S
H2477 C2513 0.930 . S
H2478 C2515 0.931 . S
H2479 C2516 0.930 . S
H2480 C2518 0.930 . S
H2481 C2519 0.929 . S
H2482 C2521 0.930 . S
H2483 C2522 0.931 . S
H2484 C2524 0.930 . S
H2485 C2525 0.929 . S
H2486 C2527 0.931 . S
H2487 C2528 0.930 . S
H2488 C2530 0.930 . S
H2489 C2531 0.932 . S
H2490 C2533 0.930 . S
H2491 C2534 0.929 . S
H2492 C2536 0.931 . S
H2493 C2537 0.930 . S
H2494 C2539 0.929 . S
H2495 C2540 0.931 . S
H2496 C2542 0.930 . S
H2497 C2543 0.929 . S
O2498 H2472 0.856 . S
O2498 C2544 1.300 . S
O2499 C2544 1.209 1_565 S
O2500 C2545 1.199 1_545 S
O2501 H2473 0.854 . S
O2501 C2545 1.297 . S
C2502 C2503 1.404 . S
C2502 C2507 1.398 1_545 S
C2502 C2508 1.492 . S
C2503 C2502 1.404 . S
C2503 C2504 1.432 . S
C2503 C2514 1.492 . S
C2504 C2503 1.432 . S
C2504 C2505 1.379 1_545 S
C2504 C2520 1.505 . S
C2505 C2504 1.379 1_565 S
C2505 C2506 1.417 . S
C2505 C2526 1.497 . S
C2506 C2505 1.417 . S
C2506 C2507 1.367 . S
C2506 C2532 1.488 . S
C2507 C2502 1.398 1_565 S
C2507 C2506 1.367 . S
C2507 C2538 1.520 . S
C2508 C2502 1.492 . S
C2508 C2509 1.363 . S
C2508 C2513 1.390 1_545 S
C2509 H2474 0.930 . S
C2509 C2508 1.363 . S
C2509 C2510 1.372 . S
C2510 H2475 0.930 . S
C2510 C2509 1.372 . S
C2510 C2511 1.383 . S
C2511 C2510 1.383 . S
C2511 C2512 1.395 1_545 S
C2512 H2476 0.930 . S
C2512 C2511 1.395 1_565 S
C2512 C2513 1.362 . S
C2513 H2477 0.930 . S
C2513 C2508 1.390 1_565 S
C2513 C2512 1.362 . S
C2514 C2503 1.492 . S
C2514 C2515 1.377 . S
C2514 C2519 1.397 1_545 S
C2515 H2478 0.931 . S
C2515 C2514 1.377 . S
C2515 C2516 1.376 . S
C2516 H2479 0.930 . S
C2516 C2515 1.376 . S
C2516 C2517 1.376 . S
C2517 C2516 1.376 . S
C2517 C2518 1.378 1_545 S
C2517 C2544 1.486 . S
C2518 H2480 0.930 . S
C2518 C2517 1.378 1_565 S
C2518 C2519 1.376 . S
C2519 H2481 0.929 . S
C2519 C2514 1.397 1_565 S
C2519 C2518 1.376 . S
C2520 C2504 1.505 . S
C2520 C2521 1.413 . S
C2520 C2525 1.349 1_545 S
C2521 H2482 0.930 . S
C2521 C2520 1.413 . S
C2521 C2522 1.375 . S
C2522 H2483 0.931 . S
C2522 C2521 1.375 . S
C2522 C2523 1.392 . S
C2523 C2522 1.392 . S
C2523 C2524 1.352 1_545 S
C2524 H2484 0.930 . S
C2524 C2523 1.352 1_565 S
C2524 C2525 1.399 . S
C2525 H2485 0.929 . S
C2525 C2520 1.349 1_565 S
C2525 C2524 1.399 . S
C2526 C2505 1.497 . S
C2526 C2527 1.394 1_565 S
C2526 C2531 1.360 . S
C2527 H2486 0.931 . S
C2527 C2526 1.394 1_545 S
C2527 C2528 1.372 . S
C2528 H2487 0.930 . S
C2528 C2527 1.372 . S
C2528 C2529 1.397 1_545 S
C2529 C2528 1.397 1_565 S
C2529 C2530 1.390 . S
C2529 C2545 1.476 . S
C2530 H2488 0.930 . S
C2530 C2529 1.390 . S
C2530 C2531 1.366 . S
C2531 H2489 0.932 . S
C2531 C2526 1.360 . S
C2531 C2530 1.366 . S
C2532 C2506 1.488 . S
C2532 C2533 1.342 1_565 S
C2532 C2537 1.433 . S
C2533 H2490 0.930 . S
C2533 C2532 1.342 1_545 S
C2533 C2534 1.381 . S
C2534 H2491 0.929 . S
C2534 C2533 1.381 . S
C2534 C2535 1.381 . S
C2535 C2534 1.381 . S
C2535 C2536 1.372 1_545 S
C2536 H2492 0.931 . S
C2536 C2535 1.372 1_565 S
C2536 C2537 1.387 . S
C2537 H2493 0.930 . S
C2537 C2532 1.433 . S
C2537 C2536 1.387 . S
C2538 C2507 1.520 . S
C2538 C2539 1.377 1_565 S
C2538 C2543 1.361 . S
C2539 H2494 0.929 . S
C2539 C2538 1.377 1_545 S
C2539 C2540 1.386 . S
C2540 H2495 0.931 . S
C2540 C2539 1.386 . S
C2540 C2541 1.363 1_545 S
C2541 C2540 1.363 1_565 S
C2541 C2542 1.385 . S
C2542 H2496 0.930 . S
C2542 C2541 1.385 . S
C2542 C2543 1.396 . S
C2543 H2497 0.929 . S
C2543 C2538 1.361 . S
C2543 C2542 1.396 . S
C2544 O2498 1.300 . S
C2544 O2499 1.209 1_545 S
C2544 C2517 1.486 . S
C2545 O2500 1.199 1_565 S
C2545 O2501 1.297 . S
C2545 C2529 1.476 . S
H2546 O2572 0.856 . S
H2547 O2575 0.854 . S
H2548 C2583 0.930 . S
H2549 C2584 0.930 . S
H2550 C2586 0.930 . S
H2551 C2587 0.930 . S
H2552 C2589 0.931 . S
H2553 C2590 0.930 . S
H2554 C2592 0.930 . S
H2555 C2593 0.929 . S
H2556 C2595 0.930 . S
H2557 C2596 0.931 . S
H2558 C2598 0.930 . S
H2559 C2599 0.929 . S
H2560 C2601 0.931 . S
H2561 C2602 0.930 . S
H2562 C2604 0.930 . S
H2563 C2605 0.932 . S
H2564 C2607 0.930 . S
H2565 C2608 0.929 . S
H2566 C2610 0.931 . S
H2567 C2611 0.930 . S
H2568 C2613 0.929 . S
H2569 C2614 0.931 . S
H2570 C2616 0.930 . S
H2571 C2617 0.929 . S
O2572 H2546 0.856 . S
O2572 C2618 1.300 . S
O2573 C2618 1.209 1_455 S
O2574 C2619 1.199 1_655 S
O2575 H2547 0.854 . S
O2575 C2619 1.297 . S
C2576 C2577 1.404 . S
C2576 C2581 1.398 . S
C2576 C2582 1.492 . S
C2577 C2576 1.404 . S
C2577 C2578 1.396 . S
C2577 C2588 1.492 . S
C2578 C2577 1.396 . S
C2578 C2579 1.397 . S
C2578 C2594 1.509 . S
C2579 C2578 1.397 . S
C2579 C2580 1.397 1_655 S
C2579 C2600 1.524 1_655 S
C2580 C2579 1.397 1_455 S
C2580 C2581 1.404 1_455 S
C2580 C2606 1.486 . S
C2581 C2576 1.398 . S
C2581 C2580 1.404 1_655 S
C2581 C2612 1.523 1_655 S
C2582 C2576 1.492 . S
C2582 C2583 1.363 . S
C2582 C2587 1.390 1_655 S
C2583 H2548 0.930 . S
C2583 C2582 1.363 . S
C2583 C2584 1.372 . S
C2584 H2549 0.930 . S
C2584 C2583 1.372 . S
C2584 C2585 1.383 . S
C2585 C2584 1.383 . S
C2585 C2586 1.395 1_655 S
C2586 H2550 0.930 . S
C2586 C2585 1.395 1_455 S
C2586 C2587 1.362 . S
C2587 H2551 0.930 . S
C2587 C2582 1.390 1_455 S
C2587 C2586 1.362 . S
C2588 C2577 1.492 . S
C2588 C2589 1.377 . S
C2588 C2593 1.397 1_655 S
C2589 H2552 0.931 . S
C2589 C2588 1.377 . S
C2589 C2590 1.376 . S
C2590 H2553 0.930 . S
C2590 C2589 1.376 . S
C2590 C2591 1.376 . S
C2591 C2590 1.376 . S
C2591 C2592 1.378 1_655 S
C2591 C2618 1.486 . S
C2592 H2554 0.930 . S
C2592 C2591 1.378 1_455 S
C2592 C2593 1.376 . S
C2593 H2555 0.929 . S
C2593 C2588 1.397 1_455 S
C2593 C2592 1.376 . S
C2594 C2578 1.509 . S
C2594 C2595 1.391 . S
C2594 C2599 1.386 1_655 S
C2595 H2556 0.930 . S
C2595 C2594 1.391 . S
C2595 C2596 1.375 . S
C2596 H2557 0.931 . S
C2596 C2595 1.375 . S
C2596 C2597 1.375 . S
C2597 C2596 1.375 . S
C2597 C2598 1.361 1_655 S
C2598 H2558 0.930 . S
C2598 C2597 1.361 1_455 S
C2598 C2599 1.399 . S
C2599 H2559 0.929 . S
C2599 C2594 1.386 1_455 S
C2599 C2598 1.399 . S
C2600 C2579 1.524 1_455 S
C2600 C2601 1.328 1_455 S
C2600 C2605 1.392 . S
C2601 H2560 0.931 . S
C2601 C2600 1.328 1_655 S
C2601 C2602 1.372 . S
C2602 H2561 0.930 . S
C2602 C2601 1.372 . S
C2602 C2603 1.397 1_655 S
C2603 C2602 1.397 1_455 S
C2603 C2604 1.390 . S
C2603 C2619 1.476 . S
C2604 H2562 0.930 . S
C2604 C2603 1.390 . S
C2604 C2605 1.366 . S
C2605 H2563 0.932 . S
C2605 C2600 1.392 . S
C2605 C2604 1.366 . S
C2606 C2580 1.486 . S
C2606 C2607 1.380 1_455 S
C2606 C2611 1.386 . S
C2607 H2564 0.930 . S
C2607 C2606 1.380 1_655 S
C2607 C2608 1.381 . S
C2608 H2565 0.929 . S
C2608 C2607 1.381 . S
C2608 C2609 1.371 1_655 S
C2609 C2608 1.371 1_455 S
C2609 C2610 1.380 . S
C2610 H2566 0.931 . S
C2610 C2609 1.380 . S
C2610 C2611 1.387 . S
C2611 H2567 0.930 . S
C2611 C2606 1.386 . S
C2611 C2610 1.387 . S
C2612 C2581 1.523 1_455 S
C2612 C2613 1.377 1_455 S
C2612 C2617 1.361 . S
C2613 H2568 0.929 . S
C2613 C2612 1.377 1_655 S
C2613 C2614 1.386 . S
C2614 H2569 0.931 . S
C2614 C2613 1.386 . S
C2614 C2615 1.363 1_655 S
C2615 C2614 1.363 1_455 S
C2615 C2616 1.385 . S
C2616 H2570 0.930 . S
C2616 C2615 1.385 . S
C2616 C2617 1.396 . S
C2617 H2571 0.929 . S
C2617 C2612 1.361 . S
C2617 C2616 1.396 . S
C2618 O2572 1.300 . S
C2618 O2573 1.209 1_655 S
C2618 C2591 1.486 . S
C2619 O2574 1.199 1_455 S
C2619 O2575 1.297 . S
C2619 C2603 1.476 . S
H2620 O2646 0.856 . S
H2621 O2649 0.854 . S
H2622 C2657 0.930 . S
H2623 C2658 0.930 . S
H2624 C2660 0.930 . S
H2625 C2661 0.930 . S
H2626 C2663 0.931 . S
H2627 C2664 0.930 . S
H2628 C2666 0.930 . S
H2629 C2667 0.929 . S
H2630 C2669 0.930 . S
H2631 C2670 0.931 . S
H2632 C2672 0.930 . S
H2633 C2673 0.929 . S
H2634 C2675 0.931 . S
H2635 C2676 0.930 . S
H2636 C2678 0.930 . S
H2637 C2679 0.932 . S
H2638 C2681 0.930 . S
H2639 C2682 0.929 . S
H2640 C2684 0.931 . S
H2641 C2685 0.930 . S
H2642 C2687 0.929 . S
H2643 C2688 0.931 . S
H2644 C2690 0.930 . S
H2645 C2691 0.929 . S
O2646 H2620 0.856 . S
O2646 C2692 1.300 . S
O2647 C2692 1.209 . S
O2648 C2693 1.199 . S
O2649 H2621 0.854 . S
O2649 C2693 1.297 . S
C2650 C2651 1.404 . S
C2650 C2655 1.397 . S
C2650 C2656 1.492 . S
C2651 C2650 1.404 . S
C2651 C2652 1.396 . S
C2651 C2662 1.492 . S
C2652 C2651 1.396 . S
C2652 C2653 1.397 . S
C2652 C2668 1.509 . S
C2653 C2652 1.397 . S
C2653 C2654 1.412 . S
C2653 C2674 1.485 . S
C2654 C2653 1.412 . S
C2654 C2655 1.388 . S
C2654 C2680 1.490 . S
C2655 C2650 1.397 . S
C2655 C2654 1.388 . S
C2655 C2686 1.519 . S
C2656 C2650 1.492 . S
C2656 C2657 1.363 . S
C2656 C2661 1.390 . S
C2657 H2622 0.930 . S
C2657 C2656 1.363 . S
C2657 C2658 1.372 . S
C2658 H2623 0.930 . S
C2658 C2657 1.372 . S
C2658 C2659 1.383 . S
C2659 C2658 1.383 . S
C2659 C2660 1.395 . S
C2660 H2624 0.930 . S
C2660 C2659 1.395 . S
C2660 C2661 1.362 . S
C2661 H2625 0.930 . S
C2661 C2656 1.390 . S
C2661 C2660 1.362 . S
C2662 C2651 1.492 . S
C2662 C2663 1.377 . S
C2662 C2667 1.397 . S
C2663 H2626 0.931 . S
C2663 C2662 1.377 . S
C2663 C2664 1.376 . S
C2664 H2627 0.930 . S
C2664 C2663 1.376 . S
C2664 C2665 1.376 . S
C2665 C2664 1.376 . S
C2665 C2666 1.378 . S
C2665 C2692 1.486 . S
C2666 H2628 0.930 . S
C2666 C2665 1.378 . S
C2666 C2667 1.376 . S
C2667 H2629 0.929 . S
C2667 C2662 1.397 . S
C2667 C2666 1.376 . S
C2668 C2652 1.509 . S
C2668 C2669 1.391 . S
C2668 C2673 1.386 . S
C2669 H2630 0.930 . S
C2669 C2668 1.391 . S
C2669 C2670 1.375 . S
C2670 H2631 0.931 . S
C2670 C2669 1.375 . S
C2670 C2671 1.375 . S
C2671 C2670 1.375 . S
C2671 C2672 1.361 . S
C2672 H2632 0.930 . S
C2672 C2671 1.361 . S
C2672 C2673 1.399 . S
C2673 H2633 0.929 . S
C2673 C2668 1.386 . S
C2673 C2672 1.399 . S
C2674 C2653 1.485 . S
C2674 C2675 1.394 . S
C2674 C2679 1.360 . S
C2675 H2634 0.931 . S
C2675 C2674 1.394 . S
C2675 C2676 1.372 . S
C2676 H2635 0.930 . S
C2676 C2675 1.372 . S
C2676 C2677 1.397 . S
C2677 C2676 1.397 . S
C2677 C2678 1.390 . S
C2677 C2693 1.476 . S
C2678 H2636 0.930 . S
C2678 C2677 1.390 . S
C2678 C2679 1.366 . S
C2679 H2637 0.932 . S
C2679 C2674 1.360 . S
C2679 C2678 1.366 . S
C2680 C2654 1.490 . S
C2680 C2681 1.380 . S
C2680 C2685 1.386 . S
C2681 H2638 0.930 . S
C2681 C2680 1.380 . S
C2681 C2682 1.381 . S
C2682 H2639 0.929 . S
C2682 C2681 1.381 . S
C2682 C2683 1.371 . S
C2683 C2682 1.371 . S
C2683 C2684 1.380 . S
C2684 H2640 0.931 . S
C2684 C2683 1.380 . S
C2684 C2685 1.387 . S
C2685 H2641 0.930 . S
C2685 C2680 1.386 . S
C2685 C2684 1.387 . S
C2686 C2655 1.519 . S
C2686 C2687 1.377 . S
C2686 C2691 1.361 . S
C2687 H2642 0.929 . S
C2687 C2686 1.377 . S
C2687 C2688 1.386 . S
C2688 H2643 0.931 . S
C2688 C2687 1.386 . S
C2688 C2689 1.363 . S
C2689 C2688 1.363 . S
C2689 C2690 1.385 . S
C2690 H2644 0.930 . S
C2690 C2689 1.385 . S
C2690 C2691 1.396 . S
C2691 H2645 0.929 . S
C2691 C2686 1.361 . S
C2691 C2690 1.396 . S
C2692 O2646 1.300 . S
C2692 O2647 1.209 . S
C2692 C2665 1.486 . S
C2693 O2648 1.199 . S
C2693 O2649 1.297 . S
C2693 C2677 1.476 . S
H2694 O2720 0.856 . S
H2695 O2723 0.854 . S
H2696 C2731 0.930 . S
H2697 C2732 0.930 . S
H2698 C2734 0.930 . S
H2699 C2735 0.930 . S
H2700 C2737 0.931 . S
H2701 C2738 0.930 . S
H2702 C2740 0.930 . S
H2703 C2741 0.929 . S
H2704 C2743 0.930 . S
H2705 C2744 0.931 . S
H2706 C2746 0.930 . S
H2707 C2747 0.929 . S
H2708 C2749 0.931 . S
H2709 C2750 0.930 . S
H2710 C2752 0.930 . S
H2711 C2753 0.932 . S
H2712 C2755 0.930 . S
H2713 C2756 0.929 . S
H2714 C2758 0.931 . S
H2715 C2759 0.930 . S
H2716 C2761 0.929 . S
H2717 C2762 0.931 . S
H2718 C2764 0.930 . S
H2719 C2765 0.929 . S
O2720 H2694 0.856 . S
O2720 C2766 1.300 . S
O2721 C2766 1.209 . S
O2722 C2767 1.199 . S
O2723 H2695 0.854 . S
O2723 C2767 1.297 . S
C2724 C2725 1.404 . S
C2724 C2729 1.397 . S
C2724 C2730 1.492 . S
C2725 C2724 1.404 . S
C2725 C2726 1.396 . S
C2725 C2736 1.492 . S
C2726 C2725 1.396 . S
C2726 C2727 1.397 . S
C2726 C2742 1.509 . S
C2727 C2726 1.397 . S
C2727 C2728 1.412 . S
C2727 C2748 1.485 . S
C2728 C2727 1.412 . S
C2728 C2729 1.388 . S
C2728 C2754 1.490 . S
C2729 C2724 1.397 . S
C2729 C2728 1.388 . S
C2729 C2760 1.519 . S
C2730 C2724 1.492 . S
C2730 C2731 1.363 . S
C2730 C2735 1.390 . S
C2731 H2696 0.930 . S
C2731 C2730 1.363 . S
C2731 C2732 1.372 . S
C2732 H2697 0.930 . S
C2732 C2731 1.372 . S
C2732 C2733 1.383 . S
C2733 C2732 1.383 . S
C2733 C2734 1.395 . S
C2734 H2698 0.930 . S
C2734 C2733 1.395 . S
C2734 C2735 1.362 . S
C2735 H2699 0.930 . S
C2735 C2730 1.390 . S
C2735 C2734 1.362 . S
C2736 C2725 1.492 . S
C2736 C2737 1.377 . S
C2736 C2741 1.397 . S
C2737 H2700 0.931 . S
C2737 C2736 1.377 . S
C2737 C2738 1.376 . S
C2738 H2701 0.930 . S
C2738 C2737 1.376 . S
C2738 C2739 1.376 . S
C2739 C2738 1.376 . S
C2739 C2740 1.378 . S
C2739 C2766 1.486 . S
C2740 H2702 0.930 . S
C2740 C2739 1.378 . S
C2740 C2741 1.376 . S
C2741 H2703 0.929 . S
C2741 C2736 1.397 . S
C2741 C2740 1.376 . S
C2742 C2726 1.509 . S
C2742 C2743 1.391 . S
C2742 C2747 1.386 . S
C2743 H2704 0.930 . S
C2743 C2742 1.391 . S
C2743 C2744 1.375 . S
C2744 H2705 0.931 . S
C2744 C2743 1.375 . S
C2744 C2745 1.375 . S
C2745 C2744 1.375 . S
C2745 C2746 1.361 . S
C2746 H2706 0.930 . S
C2746 C2745 1.361 . S
C2746 C2747 1.399 . S
C2747 H2707 0.929 . S
C2747 C2742 1.386 . S
C2747 C2746 1.399 . S
C2748 C2727 1.485 . S
C2748 C2749 1.394 . S
C2748 C2753 1.360 . S
C2749 H2708 0.931 . S
C2749 C2748 1.394 . S
C2749 C2750 1.372 . S
C2750 H2709 0.930 . S
C2750 C2749 1.372 . S
C2750 C2751 1.397 . S
C2751 C2750 1.397 . S
C2751 C2752 1.390 . S
C2751 C2767 1.476 . S
C2752 H2710 0.930 . S
C2752 C2751 1.390 . S
C2752 C2753 1.366 . S
C2753 H2711 0.932 . S
C2753 C2748 1.360 . S
C2753 C2752 1.366 . S
C2754 C2728 1.490 . S
C2754 C2755 1.380 . S
C2754 C2759 1.386 . S
C2755 H2712 0.930 . S
C2755 C2754 1.380 . S
C2755 C2756 1.381 . S
C2756 H2713 0.929 . S
C2756 C2755 1.381 . S
C2756 C2757 1.371 . S
C2757 C2756 1.371 . S
C2757 C2758 1.380 . S
C2758 H2714 0.931 . S
C2758 C2757 1.380 . S
C2758 C2759 1.387 . S
C2759 H2715 0.930 . S
C2759 C2754 1.386 . S
C2759 C2758 1.387 . S
C2760 C2729 1.519 . S
C2760 C2761 1.377 . S
C2760 C2765 1.361 . S
C2761 H2716 0.929 . S
C2761 C2760 1.377 . S
C2761 C2762 1.386 . S
C2762 H2717 0.931 . S
C2762 C2761 1.386 . S
C2762 C2763 1.363 . S
C2763 C2762 1.363 . S
C2763 C2764 1.385 . S
C2764 H2718 0.930 . S
C2764 C2763 1.385 . S
C2764 C2765 1.396 . S
C2765 H2719 0.929 . S
C2765 C2760 1.361 . S
C2765 C2764 1.396 . S
C2766 O2720 1.300 . S
C2766 O2721 1.209 . S
C2766 C2739 1.486 . S
C2767 O2722 1.199 . S
C2767 O2723 1.297 . S
C2767 C2751 1.476 . S
H2768 O2794 0.856 . S
H2769 O2797 0.854 . S
H2770 C2805 0.930 . S
H2771 C2806 0.930 . S
H2772 C2808 0.930 . S
H2773 C2809 0.930 . S
H2774 C2811 0.931 . S
H2775 C2812 0.930 . S
H2776 C2814 0.930 . S
H2777 C2815 0.929 . S
H2778 C2817 0.930 . S
H2779 C2818 0.931 . S
H2780 C2820 0.930 . S
H2781 C2821 0.929 . S
H2782 C2823 0.931 . S
H2783 C2824 0.930 . S
H2784 C2826 0.930 . S
H2785 C2827 0.932 . S
H2786 C2829 0.930 . S
H2787 C2830 0.929 . S
H2788 C2832 0.931 . S
H2789 C2833 0.930 . S
H2790 C2835 0.929 . S
H2791 C2836 0.931 . S
H2792 C2838 0.930 . S
H2793 C2839 0.929 . S
O2794 H2768 0.856 . S
O2794 C2840 1.300 . S
O2795 C2840 1.209 . S
O2796 C2841 1.199 . S
O2797 H2769 0.854 . S
O2797 C2841 1.297 . S
C2798 C2799 1.404 . S
C2798 C2803 1.397 . S
C2798 C2804 1.492 . S
C2799 C2798 1.404 . S
C2799 C2800 1.396 . S
C2799 C2810 1.492 . S
C2800 C2799 1.396 . S
C2800 C2801 1.397 . S
C2800 C2816 1.509 . S
C2801 C2800 1.397 . S
C2801 C2802 1.412 . S
C2801 C2822 1.485 . S
C2802 C2801 1.412 . S
C2802 C2803 1.388 . S
C2802 C2828 1.490 . S
C2803 C2798 1.397 . S
C2803 C2802 1.388 . S
C2803 C2834 1.519 . S
C2804 C2798 1.492 . S
C2804 C2805 1.363 . S
C2804 C2809 1.390 . S
C2805 H2770 0.930 . S
C2805 C2804 1.363 . S
C2805 C2806 1.372 . S
C2806 H2771 0.930 . S
C2806 C2805 1.372 . S
C2806 C2807 1.383 . S
C2807 C2806 1.383 . S
C2807 C2808 1.395 . S
C2808 H2772 0.930 . S
C2808 C2807 1.395 . S
C2808 C2809 1.362 . S
C2809 H2773 0.930 . S
C2809 C2804 1.390 . S
C2809 C2808 1.362 . S
C2810 C2799 1.492 . S
C2810 C2811 1.377 . S
C2810 C2815 1.397 . S
C2811 H2774 0.931 . S
C2811 C2810 1.377 . S
C2811 C2812 1.376 . S
C2812 H2775 0.930 . S
C2812 C2811 1.376 . S
C2812 C2813 1.376 . S
C2813 C2812 1.376 . S
C2813 C2814 1.378 . S
C2813 C2840 1.486 . S
C2814 H2776 0.930 . S
C2814 C2813 1.378 . S
C2814 C2815 1.376 . S
C2815 H2777 0.929 . S
C2815 C2810 1.397 . S
C2815 C2814 1.376 . S
C2816 C2800 1.509 . S
C2816 C2817 1.391 . S
C2816 C2821 1.386 . S
C2817 H2778 0.930 . S
C2817 C2816 1.391 . S
C2817 C2818 1.375 . S
C2818 H2779 0.931 . S
C2818 C2817 1.375 . S
C2818 C2819 1.375 . S
C2819 C2818 1.375 . S
C2819 C2820 1.361 . S
C2820 H2780 0.930 . S
C2820 C2819 1.361 . S
C2820 C2821 1.399 . S
C2821 H2781 0.929 . S
C2821 C2816 1.386 . S
C2821 C2820 1.399 . S
C2822 C2801 1.485 . S
C2822 C2823 1.394 . S
C2822 C2827 1.360 . S
C2823 H2782 0.931 . S
C2823 C2822 1.394 . S
C2823 C2824 1.372 . S
C2824 H2783 0.930 . S
C2824 C2823 1.372 . S
C2824 C2825 1.397 . S
C2825 C2824 1.397 . S
C2825 C2826 1.390 . S
C2825 C2841 1.476 . S
C2826 H2784 0.930 . S
C2826 C2825 1.390 . S
C2826 C2827 1.366 . S
C2827 H2785 0.932 . S
C2827 C2822 1.360 . S
C2827 C2826 1.366 . S
C2828 C2802 1.490 . S
C2828 C2829 1.380 . S
C2828 C2833 1.386 . S
C2829 H2786 0.930 . S
C2829 C2828 1.380 . S
C2829 C2830 1.381 . S
C2830 H2787 0.929 . S
C2830 C2829 1.381 . S
C2830 C2831 1.371 . S
C2831 C2830 1.371 . S
C2831 C2832 1.380 . S
C2832 H2788 0.931 . S
C2832 C2831 1.380 . S
C2832 C2833 1.387 . S
C2833 H2789 0.930 . S
C2833 C2828 1.386 . S
C2833 C2832 1.387 . S
C2834 C2803 1.519 . S
C2834 C2835 1.377 . S
C2834 C2839 1.361 . S
C2835 H2790 0.929 . S
C2835 C2834 1.377 . S
C2835 C2836 1.386 . S
C2836 H2791 0.931 . S
C2836 C2835 1.386 . S
C2836 C2837 1.363 . S
C2837 C2836 1.363 . S
C2837 C2838 1.385 . S
C2838 H2792 0.930 . S
C2838 C2837 1.385 . S
C2838 C2839 1.396 . S
C2839 H2793 0.929 . S
C2839 C2834 1.361 . S
C2839 C2838 1.396 . S
C2840 O2794 1.300 . S
C2840 O2795 1.209 . S
C2840 C2813 1.486 . S
C2841 O2796 1.199 . S
C2841 O2797 1.297 . S
C2841 C2825 1.476 . S
H2842 O2868 0.856 . S
H2843 O2871 0.854 . S
H2844 C2879 0.930 . S
H2845 C2880 0.930 . S
H2846 C2882 0.930 . S
H2847 C2883 0.930 . S
H2848 C2885 0.931 . S
H2849 C2886 0.930 . S
H2850 C2888 0.930 . S
H2851 C2889 0.929 . S
H2852 C2891 0.930 . S
H2853 C2892 0.931 . S
H2854 C2894 0.930 . S
H2855 C2895 0.929 . S
H2856 C2897 0.931 . S
H2857 C2898 0.930 . S
H2858 C2900 0.930 . S
H2859 C2901 0.932 . S
H2860 C2903 0.930 . S
H2861 C2904 0.929 . S
H2862 C2906 0.931 . S
H2863 C2907 0.930 . S
H2864 C2909 0.929 . S
H2865 C2910 0.931 . S
H2866 C2912 0.930 . S
H2867 C2913 0.929 . S
O2868 H2842 0.856 . S
O2868 C2914 1.300 . S
O2869 C2914 1.209 . S
O2870 C2915 1.199 . S
O2871 H2843 0.854 . S
O2871 C2915 1.297 . S
C2872 C2873 1.404 . S
C2872 C2877 1.397 . S
C2872 C2878 1.492 . S
C2873 C2872 1.404 . S
C2873 C2874 1.396 . S
C2873 C2884 1.492 . S
C2874 C2873 1.396 . S
C2874 C2875 1.397 . S
C2874 C2890 1.509 . S
C2875 C2874 1.397 . S
C2875 C2876 1.412 . S
C2875 C2896 1.485 . S
C2876 C2875 1.412 . S
C2876 C2877 1.388 . S
C2876 C2902 1.490 . S
C2877 C2872 1.397 . S
C2877 C2876 1.388 . S
C2877 C2908 1.519 . S
C2878 C2872 1.492 . S
C2878 C2879 1.363 . S
C2878 C2883 1.390 . S
C2879 H2844 0.930 . S
C2879 C2878 1.363 . S
C2879 C2880 1.372 . S
C2880 H2845 0.930 . S
C2880 C2879 1.372 . S
C2880 C2881 1.383 . S
C2881 C2880 1.383 . S
C2881 C2882 1.395 . S
C2882 H2846 0.930 . S
C2882 C2881 1.395 . S
C2882 C2883 1.362 . S
C2883 H2847 0.930 . S
C2883 C2878 1.390 . S
C2883 C2882 1.362 . S
C2884 C2873 1.492 . S
C2884 C2885 1.377 . S
C2884 C2889 1.397 . S
C2885 H2848 0.931 . S
C2885 C2884 1.377 . S
C2885 C2886 1.376 . S
C2886 H2849 0.930 . S
C2886 C2885 1.376 . S
C2886 C2887 1.376 . S
C2887 C2886 1.376 . S
C2887 C2888 1.378 . S
C2887 C2914 1.486 . S
C2888 H2850 0.930 . S
C2888 C2887 1.378 . S
C2888 C2889 1.376 . S
C2889 H2851 0.929 . S
C2889 C2884 1.397 . S
C2889 C2888 1.376 . S
C2890 C2874 1.509 . S
C2890 C2891 1.391 . S
C2890 C2895 1.386 . S
C2891 H2852 0.930 . S
C2891 C2890 1.391 . S
C2891 C2892 1.375 . S
C2892 H2853 0.931 . S
C2892 C2891 1.375 . S
C2892 C2893 1.375 . S
C2893 C2892 1.375 . S
C2893 C2894 1.361 . S
C2894 H2854 0.930 . S
C2894 C2893 1.361 . S
C2894 C2895 1.399 . S
C2895 H2855 0.929 . S
C2895 C2890 1.386 . S
C2895 C2894 1.399 . S
C2896 C2875 1.485 . S
C2896 C2897 1.394 . S
C2896 C2901 1.360 . S
C2897 H2856 0.931 . S
C2897 C2896 1.394 . S
C2897 C2898 1.372 . S
C2898 H2857 0.930 . S
C2898 C2897 1.372 . S
C2898 C2899 1.397 . S
C2899 C2898 1.397 . S
C2899 C2900 1.390 . S
C2899 C2915 1.476 . S
C2900 H2858 0.930 . S
C2900 C2899 1.390 . S
C2900 C2901 1.366 . S
C2901 H2859 0.932 . S
C2901 C2896 1.360 . S
C2901 C2900 1.366 . S
C2902 C2876 1.490 . S
C2902 C2903 1.380 . S
C2902 C2907 1.386 . S
C2903 H2860 0.930 . S
C2903 C2902 1.380 . S
C2903 C2904 1.381 . S
C2904 H2861 0.929 . S
C2904 C2903 1.381 . S
C2904 C2905 1.371 . S
C2905 C2904 1.371 . S
C2905 C2906 1.380 . S
C2906 H2862 0.931 . S
C2906 C2905 1.380 . S
C2906 C2907 1.387 . S
C2907 H2863 0.930 . S
C2907 C2902 1.386 . S
C2907 C2906 1.387 . S
C2908 C2877 1.519 . S
C2908 C2909 1.377 . S
C2908 C2913 1.361 . S
C2909 H2864 0.929 . S
C2909 C2908 1.377 . S
C2909 C2910 1.386 . S
C2910 H2865 0.931 . S
C2910 C2909 1.386 . S
C2910 C2911 1.363 . S
C2911 C2910 1.363 . S
C2911 C2912 1.385 . S
C2912 H2866 0.930 . S
C2912 C2911 1.385 . S
C2912 C2913 1.396 . S
C2913 H2867 0.929 . S
C2913 C2908 1.361 . S
C2913 C2912 1.396 . S
C2914 O2868 1.300 . S
C2914 O2869 1.209 . S
C2914 C2887 1.486 . S
C2915 O2870 1.199 . S
C2915 O2871 1.297 . S
C2915 C2899 1.476 . S
H2916 C2924 0.950 1_455 S
H2917 C2929 0.950 . S
H2918 C2926 0.950 1_455 S
H2919 C2928 0.950 . S
H2920 C2930 0.950 . S
H2921 C2932 0.950 . S
H2922 C2934 0.950 1_455 S
H2923 C2935 0.926 1_455 S
C2924 H2916 0.950 1_655 S
C2924 C2925 1.386 . S
C2924 C2926 1.391 . S
C2925 C2924 1.386 . S
C2925 C2929 1.393 . S
C2926 H2918 0.950 1_655 S
C2926 C2924 1.391 . S
C2926 C2927 1.400 . S
C2927 C2926 1.400 . S
C2927 C2928 1.398 . S
C2927 C2933 1.491 . S
C2928 H2919 0.950 . S
C2928 C2927 1.398 . S
C2928 C2929 1.391 . S
C2929 H2917 0.950 . S
C2929 C2925 1.393 . S
C2929 C2928 1.391 . S
C2930 H2920 0.950 . S
C2930 C2931 1.386 . S
C2930 C2932 1.391 . S
C2931 C2930 1.386 . S
C2931 C2935 1.435 . S
C2932 H2921 0.950 . S
C2932 C2930 1.391 . S
C2932 C2933 1.400 . S
C2933 C2927 1.491 . S
C2933 C2932 1.400 . S
C2933 C2934 1.398 . S
C2934 H2922 0.950 1_655 S
C2934 C2933 1.398 . S
C2934 C2935 1.374 . S
C2935 H2923 0.926 1_655 S
C2935 C2931 1.435 . S
C2935 C2934 1.374 . S
H2936 C2944 0.950 . S
H2937 C2949 0.950 . S
H2938 C2946 0.950 . S
H2939 C2948 0.950 . S
H2940 C2950 0.950 . S
H2941 C2952 0.950 . S
H2942 C2954 0.950 . S
H2943 C2955 0.950 . S
C2944 H2936 0.950 . S
C2944 C2945 1.386 . S
C2944 C2946 1.391 . S
C2945 C2944 1.386 . S
C2945 C2949 1.393 . S
C2946 H2938 0.950 . S
C2946 C2944 1.391 . S
C2946 C2947 1.400 . S
C2947 C2946 1.400 . S
C2947 C2948 1.398 . S
C2947 C2953 1.491 . S
C2948 H2939 0.950 . S
C2948 C2947 1.398 . S
C2948 C2949 1.391 . S
C2949 H2937 0.950 . S
C2949 C2945 1.393 . S
C2949 C2948 1.391 . S
C2950 H2940 0.950 . S
C2950 C2951 1.386 . S
C2950 C2952 1.391 . S
C2951 C2950 1.386 . S
C2951 C2955 1.393 . S
C2952 H2941 0.950 . S
C2952 C2950 1.391 . S
C2952 C2953 1.400 . S
C2953 C2947 1.491 . S
C2953 C2952 1.400 . S
C2953 C2954 1.398 . S
C2954 H2942 0.950 . S
C2954 C2953 1.398 . S
C2954 C2955 1.391 . S
C2955 H2943 0.950 . S
C2955 C2951 1.393 . S
C2955 C2954 1.391 . S
H2956 C2964 0.950 . S
H2957 C2969 0.950 . S
H2958 C2966 0.996 . S
H2959 C2968 0.950 . S
H2960 C2970 0.950 . S
H2961 C2972 0.950 . S
H2962 C2974 0.950 1_565 S
H2963 C2975 0.950 1_565 S
C2964 H2956 0.950 . S
C2964 C2965 1.386 . S
C2964 C2966 1.391 . S
C2965 C2964 1.386 . S
C2965 C2969 1.393 . S
C2966 H2958 0.996 . S
C2966 C2964 1.391 . S
C2966 C2967 1.400 . S
C2967 C2966 1.400 . S
C2967 C2968 1.398 . S
C2967 C2973 1.491 . S
C2968 H2959 0.950 . S
C2968 C2967 1.398 . S
C2968 C2969 1.391 . S
C2969 H2957 0.950 . S
C2969 C2965 1.393 . S
C2969 C2968 1.391 . S
C2970 H2960 0.950 . S
C2970 C2971 1.386 . S
C2970 C2972 1.391 . S
C2971 C2970 1.386 . S
C2971 C2975 1.393 . S
C2972 H2961 0.950 . S
C2972 C2970 1.391 . S
C2972 C2973 1.400 . S
C2973 C2967 1.491 . S
C2973 C2972 1.400 . S
C2973 C2974 1.398 . S
C2974 H2962 0.950 1_545 S
C2974 C2973 1.398 . S
C2974 C2975 1.391 . S
C2975 H2963 0.950 1_545 S
C2975 C2971 1.393 . S
C2975 C2974 1.391 . S
H2976 C2984 0.950 . S
H2977 C2989 0.950 . S
H2978 C2986 0.950 . S
H2979 C2988 0.950 . S
H2980 C2990 0.950 . S
H2981 C2992 0.950 . S
H2982 C2994 0.951 1_545 S
H2983 C2995 0.950 1_545 S
C2984 H2976 0.950 . S
C2984 C2985 1.386 . S
C2984 C2986 1.391 . S
C2985 C2984 1.386 . S
C2985 C2989 1.393 . S
C2986 H2978 0.950 . S
C2986 C2984 1.391 . S
C2986 C2987 1.400 . S
C2987 C2986 1.400 . S
C2987 C2988 1.398 . S
C2987 C2993 1.491 . S
C2988 H2979 0.950 . S
C2988 C2987 1.398 . S
C2988 C2989 1.391 . S
C2989 H2977 0.950 . S
C2989 C2985 1.393 . S
C2989 C2988 1.391 . S
C2990 H2980 0.950 . S
C2990 C2991 1.386 . S
C2990 C2992 1.391 . S
C2991 C2990 1.386 . S
C2991 C2995 1.393 . S
C2992 H2981 0.950 . S
C2992 C2990 1.391 . S
C2992 C2993 1.400 . S
C2993 C2987 1.491 . S
C2993 C2992 1.400 . S
C2993 C2994 1.398 . S
C2994 H2982 0.951 1_565 S
C2994 C2993 1.398 . S
C2994 C2995 1.391 . S
C2995 H2983 0.950 1_565 S
C2995 C2991 1.393 . S
C2995 C2994 1.391 . S
H2996 C3004 0.950 . S
H2997 C3009 0.950 . S
H2998 C3006 0.950 . S
H2999 C3008 0.950 . S
H3000 C3010 0.950 . S
H3001 C3012 0.950 . S
H3002 C3014 0.950 . S
H3003 C3015 0.950 . S
C3004 H2996 0.950 . S
C3004 C3005 1.386 . S
C3004 C3006 1.391 . S
C3005 C3004 1.386 . S
C3005 C3009 1.393 . S
C3006 H2998 0.950 . S
C3006 C3004 1.391 . S
C3006 C3007 1.400 . S
C3007 C3006 1.400 . S
C3007 C3008 1.398 . S
C3007 C3013 1.491 . S
C3008 H2999 0.950 . S
C3008 C3007 1.398 . S
C3008 C3009 1.391 . S
C3009 H2997 0.950 . S
C3009 C3005 1.393 . S
C3009 C3008 1.391 . S
C3010 H3000 0.950 . S
C3010 C3011 1.386 . S
C3010 C3012 1.391 . S
C3011 C3010 1.386 . S
C3011 C3015 1.393 . S
C3012 H3001 0.950 . S
C3012 C3010 1.391 . S
C3012 C3013 1.400 . S
C3013 C3007 1.491 . S
C3013 C3012 1.400 . S
C3013 C3014 1.398 . S
C3014 H3002 0.950 . S
C3014 C3013 1.398 . S
C3014 C3015 1.391 . S
C3015 H3003 0.950 . S
C3015 C3011 1.393 . S
C3015 C3014 1.391 . S
H3016 C3024 0.950 . S
H3017 C3029 0.950 . S
H3018 C3026 0.950 . S
H3019 C3028 0.950 . S
H3020 C3030 0.950 . S
H3021 C3032 0.950 . S
H3022 C3034 0.950 . S
H3023 C3035 0.950 . S
C3024 H3016 0.950 . S
C3024 C3025 1.386 . S
C3024 C3026 1.391 . S
C3025 C3024 1.386 . S
C3025 C3029 1.393 . S
C3026 H3018 0.950 . S
C3026 C3024 1.391 . S
C3026 C3027 1.400 . S
C3027 C3026 1.400 . S
C3027 C3028 1.398 . S
C3027 C3033 1.491 . S
C3028 H3019 0.950 . S
C3028 C3027 1.398 . S
C3028 C3029 1.391 . S
C3029 H3017 0.950 . S
C3029 C3025 1.393 . S
C3029 C3028 1.391 . S
C3030 H3020 0.950 . S
C3030 C3031 1.386 . S
C3030 C3032 1.391 . S
C3031 C3030 1.386 . S
C3031 C3035 1.393 . S
C3032 H3021 0.950 . S
C3032 C3030 1.391 . S
C3032 C3033 1.400 . S
C3033 C3027 1.491 . S
C3033 C3032 1.400 . S
C3033 C3034 1.398 . S
C3034 H3022 0.950 . S
C3034 C3033 1.398 . S
C3034 C3035 1.391 . S
C3035 H3023 0.950 . S
C3035 C3031 1.393 . S
C3035 C3034 1.391 . S
H3036 C3044 0.950 . S
H3037 C3049 0.950 . S
H3038 C3046 0.950 . S
H3039 C3048 0.950 . S
H3040 C3050 0.950 . S
H3041 C3052 0.950 . S
H3042 C3054 0.950 . S
H3043 C3055 0.950 1_655 S
C3044 H3036 0.950 . S
C3044 C3045 1.386 . S
C3044 C3046 1.391 . S
C3045 C3044 1.386 . S
C3045 C3049 1.393 . S
C3046 H3038 0.950 . S
C3046 C3044 1.391 . S
C3046 C3047 1.400 . S
C3047 C3046 1.400 . S
C3047 C3048 1.398 . S
C3047 C3053 1.491 . S
C3048 H3039 0.950 . S
C3048 C3047 1.398 . S
C3048 C3049 1.391 . S
C3049 H3037 0.950 . S
C3049 C3045 1.393 . S
C3049 C3048 1.391 . S
C3050 H3040 0.950 . S
C3050 C3051 1.386 . S
C3050 C3052 1.391 . S
C3051 C3050 1.386 . S
C3051 C3055 1.393 . S
C3052 H3041 0.950 . S
C3052 C3050 1.391 . S
C3052 C3053 1.400 . S
C3053 C3047 1.491 . S
C3053 C3052 1.400 . S
C3053 C3054 1.398 . S
C3054 H3042 0.950 . S
C3054 C3053 1.398 . S
C3054 C3055 1.391 . S
C3055 H3043 0.950 1_455 S
C3055 C3051 1.393 . S
C3055 C3054 1.391 . S
H3056 C3064 0.950 . S
H3057 C3069 0.950 . S
H3058 C3066 0.950 . S
H3059 C3068 0.950 . S
H3060 C3070 0.950 . S
H3061 C3072 0.950 . S
H3062 C3074 0.950 . S
H3063 C3075 0.950 . S
C3064 H3056 0.950 . S
C3064 C3065 1.386 . S
C3064 C3066 1.391 . S
C3065 C3064 1.386 . S
C3065 C3069 1.393 . S
C3066 H3058 0.950 . S
C3066 C3064 1.391 . S
C3066 C3067 1.400 . S
C3067 C3066 1.400 . S
C3067 C3068 1.398 . S
C3067 C3073 1.491 . S
C3068 H3059 0.950 . S
C3068 C3067 1.398 . S
C3068 C3069 1.391 . S
C3069 H3057 0.950 . S
C3069 C3065 1.393 . S
C3069 C3068 1.391 . S
C3070 H3060 0.950 . S
C3070 C3071 1.386 . S
C3070 C3072 1.391 . S
C3071 C3070 1.386 . S
C3071 C3075 1.393 . S
C3072 H3061 0.950 . S
C3072 C3070 1.391 . S
C3072 C3073 1.400 . S
C3073 C3067 1.491 . S
C3073 C3072 1.400 . S
C3073 C3074 1.398 . S
C3074 H3062 0.950 . S
C3074 C3073 1.398 . S
C3074 C3075 1.391 . S
C3075 H3063 0.950 . S
C3075 C3071 1.393 . S
C3075 C3074 1.391 . S
H3076 C3084 0.950 . S
H3077 C3089 0.950 . S
H3078 C3086 0.950 . S
H3079 C3088 0.950 . S
H3080 C3090 0.950 . S
H3081 C3092 0.950 . S
H3082 C3094 0.935 1_545 S
H3083 C3095 0.950 . S
C3084 H3076 0.950 . S
C3084 C3085 1.386 . S
C3084 C3086 1.391 . S
C3085 C3084 1.386 . S
C3085 C3089 1.393 . S
C3086 H3078 0.950 . S
C3086 C3084 1.391 . S
C3086 C3087 1.400 . S
C3087 C3086 1.400 . S
C3087 C3088 1.398 . S
C3087 C3093 1.491 . S
C3088 H3079 0.950 . S
C3088 C3087 1.398 . S
C3088 C3089 1.391 . S
C3089 H3077 0.950 . S
C3089 C3085 1.393 . S
C3089 C3088 1.391 . S
C3090 H3080 0.950 . S
C3090 C3091 1.386 . S
C3090 C3092 1.391 . S
C3091 C3090 1.386 . S
C3091 C3095 1.393 1_565 S
C3092 H3081 0.950 . S
C3092 C3090 1.391 . S
C3092 C3093 1.400 . S
C3093 C3087 1.491 . S
C3093 C3092 1.400 . S
C3093 C3094 1.445 . S
C3094 H3082 0.935 1_565 S
C3094 C3093 1.445 . S
C3094 C3095 1.361 1_565 S
C3095 H3083 0.950 . S
C3095 C3091 1.393 1_545 S
C3095 C3094 1.361 1_545 S
H3096 C3104 0.950 . S
H3097 C3109 0.950 . S
H3098 C3106 0.950 . S
H3099 C3108 0.950 1_565 S
H3100 C3110 0.950 . S
H3101 C3112 0.950 . S
H3102 C3114 0.950 . S
H3103 C3115 0.950 . S
C3104 H3096 0.950 . S
C3104 C3105 1.386 . S
C3104 C3106 1.391 . S
C3105 C3104 1.386 . S
C3105 C3109 1.393 . S
C3106 H3098 0.950 . S
C3106 C3104 1.391 . S
C3106 C3107 1.400 . S
C3107 C3106 1.400 . S
C3107 C3108 1.398 . S
C3107 C3113 1.491 . S
C3108 H3099 0.950 1_545 S
C3108 C3107 1.398 . S
C3108 C3109 1.391 . S
C3109 H3097 0.950 . S
C3109 C3105 1.393 . S
C3109 C3108 1.391 . S
C3110 H3100 0.950 . S
C3110 C3111 1.386 1_565 S
C3110 C3112 1.391 . S
C3111 C3110 1.386 1_545 S
C3111 C3115 1.393 . S
C3112 H3101 0.950 . S
C3112 C3110 1.391 . S
C3112 C3113 1.400 1_565 S
C3113 C3107 1.491 . S
C3113 C3112 1.400 1_545 S
C3113 C3114 1.398 . S
C3114 H3102 0.950 . S
C3114 C3113 1.398 . S
C3114 C3115 1.391 . S
C3115 H3103 0.950 . S
C3115 C3111 1.393 . S
C3115 C3114 1.391 . S
H3116 C3124 0.950 . S
H3117 C3129 0.950 . S
H3118 C3126 0.950 . S
H3119 C3128 0.950 . S
H3120 C3130 0.950 . S
H3121 C3132 0.950 . S
H3122 C3134 0.950 . S
H3123 C3135 0.950 1_455 S
C3124 H3116 0.950 . S
C3124 C3125 1.386 . S
C3124 C3126 1.391 . S
C3125 C3124 1.386 . S
C3125 C3129 1.393 . S
C3126 H3118 0.950 . S
C3126 C3124 1.391 . S
C3126 C3127 1.400 . S
C3127 C3126 1.400 . S
C3127 C3128 1.398 . S
C3127 C3133 1.491 . S
C3128 H3119 0.950 . S
C3128 C3127 1.398 . S
C3128 C3129 1.391 . S
C3129 H3117 0.950 . S
C3129 C3125 1.393 . S
C3129 C3128 1.391 . S
C3130 H3120 0.950 . S
C3130 C3131 1.386 . S
C3130 C3132 1.391 . S
C3131 C3130 1.386 . S
C3131 C3135 1.358 . S
C3132 H3121 0.950 . S
C3132 C3130 1.391 . S
C3132 C3133 1.400 . S
C3133 C3127 1.491 . S
C3133 C3132 1.400 . S
C3133 C3134 1.398 . S
C3134 H3122 0.950 . S
C3134 C3133 1.398 . S
C3134 C3135 1.432 . S
C3135 H3123 0.950 1_655 S
C3135 C3131 1.358 . S
C3135 C3134 1.432 . S
H3136 C3144 0.950 . S
H3137 C3149 0.950 . S
H3138 C3146 0.950 . S
H3139 C3148 0.950 . S
H3140 C3150 0.950 . S
H3141 C3152 0.950 . S
H3142 C3154 0.950 . S
H3143 C3155 0.950 . S
C3144 H3136 0.950 . S
C3144 C3145 1.386 . S
C3144 C3146 1.391 . S
C3145 C3144 1.386 . S
C3145 C3149 1.393 . S
C3146 H3138 0.950 . S
C3146 C3144 1.391 . S
C3146 C3147 1.400 . S
C3147 C3146 1.400 . S
C3147 C3148 1.398 . S
C3147 C3153 1.491 . S
C3148 H3139 0.950 . S
C3148 C3147 1.398 . S
C3148 C3149 1.391 . S
C3149 H3137 0.950 . S
C3149 C3145 1.393 . S
C3149 C3148 1.391 . S
C3150 H3140 0.950 . S
C3150 C3151 1.386 . S
C3150 C3152 1.391 . S
C3151 C3150 1.386 . S
C3151 C3155 1.393 . S
C3152 H3141 0.950 . S
C3152 C3150 1.391 . S
C3152 C3153 1.400 . S
C3153 C3147 1.491 . S
C3153 C3152 1.400 . S
C3153 C3154 1.398 . S
C3154 H3142 0.950 . S
C3154 C3153 1.398 . S
C3154 C3155 1.391 . S
C3155 H3143 0.950 . S
C3155 C3151 1.393 . S
C3155 C3154 1.391 . S
H3156 C3164 0.950 . S
H3157 C3169 0.950 . S
H3158 C3166 0.950 . S
H3159 C3168 0.950 . S
H3160 C3170 0.950 . S
H3161 C3172 0.950 . S
H3162 C3174 0.950 . S
H3163 C3175 0.950 . S
C3164 H3156 0.950 . S
C3164 C3165 1.386 . S
C3164 C3166 1.391 . S
C3165 C3164 1.386 . S
C3165 C3169 1.393 . S
C3166 H3158 0.950 . S
C3166 C3164 1.391 . S
C3166 C3167 1.400 . S
C3167 C3166 1.400 . S
C3167 C3168 1.398 . S
C3167 C3173 1.491 . S
C3168 H3159 0.950 . S
C3168 C3167 1.398 . S
C3168 C3169 1.391 . S
C3169 H3157 0.950 . S
C3169 C3165 1.393 . S
C3169 C3168 1.391 . S
C3170 H3160 0.950 . S
C3170 C3171 1.386 . S
C3170 C3172 1.391 . S
C3171 C3170 1.386 . S
C3171 C3175 1.393 . S
C3172 H3161 0.950 . S
C3172 C3170 1.391 . S
C3172 C3173 1.400 . S
C3173 C3167 1.491 . S
C3173 C3172 1.400 . S
C3173 C3174 1.398 . S
C3174 H3162 0.950 . S
C3174 C3173 1.398 . S
C3174 C3175 1.391 . S
C3175 H3163 0.950 . S
C3175 C3171 1.393 . S
C3175 C3174 1.391 . S
H3176 C3184 0.950 . S
H3177 C3189 0.950 . S
H3178 C3186 0.950 . S
H3179 C3188 0.950 . S
H3180 C3190 0.950 . S
H3181 C3192 0.950 . S
H3182 C3194 0.950 . S
H3183 C3195 0.950 . S
C3184 H3176 0.950 . S
C3184 C3185 1.386 . S
C3184 C3186 1.391 . S
C3185 C3184 1.386 . S
C3185 C3189 1.393 . S
C3186 H3178 0.950 . S
C3186 C3184 1.391 . S
C3186 C3187 1.400 . S
C3187 C3186 1.400 . S
C3187 C3188 1.398 . S
C3187 C3193 1.491 . S
C3188 H3179 0.950 . S
C3188 C3187 1.398 . S
C3188 C3189 1.391 . S
C3189 H3177 0.950 . S
C3189 C3185 1.393 . S
C3189 C3188 1.391 . S
C3190 H3180 0.950 . S
C3190 C3191 1.386 . S
C3190 C3192 1.391 . S
C3191 C3190 1.386 . S
C3191 C3195 1.393 . S
C3192 H3181 0.950 . S
C3192 C3190 1.391 . S
C3192 C3193 1.400 . S
C3193 C3187 1.491 . S
C3193 C3192 1.400 . S
C3193 C3194 1.398 . S
C3194 H3182 0.950 . S
C3194 C3193 1.398 . S
C3194 C3195 1.391 . S
C3195 H3183 0.950 . S
C3195 C3191 1.393 . S
C3195 C3194 1.391 . S
H3196 C3204 0.950 . S
H3197 C3209 0.950 . S
H3198 C3206 0.950 . S
H3199 C3208 0.950 . S
H3200 C3210 0.950 . S
H3201 C3212 0.950 . S
H3202 C3214 0.950 . S
H3203 C3215 0.950 . S
C3204 H3196 0.950 . S
C3204 C3205 1.386 . S
C3204 C3206 1.391 . S
C3205 C3204 1.386 . S
C3205 C3209 1.393 . S
C3206 H3198 0.950 . S
C3206 C3204 1.391 . S
C3206 C3207 1.400 . S
C3207 C3206 1.400 . S
C3207 C3208 1.398 . S
C3207 C3213 1.491 . S
C3208 H3199 0.950 . S
C3208 C3207 1.398 . S
C3208 C3209 1.391 . S
C3209 H3197 0.950 . S
C3209 C3205 1.393 . S
C3209 C3208 1.391 . S
C3210 H3200 0.950 . S
C3210 C3211 1.386 . S
C3210 C3212 1.391 . S
C3211 C3210 1.386 . S
C3211 C3215 1.393 . S
C3212 H3201 0.950 . S
C3212 C3210 1.391 . S
C3212 C3213 1.400 . S
C3213 C3207 1.491 . S
C3213 C3212 1.400 . S
C3213 C3214 1.398 . S
C3214 H3202 0.950 . S
C3214 C3213 1.398 . S
C3214 C3215 1.391 . S
C3215 H3203 0.950 . S
C3215 C3211 1.393 . S
C3215 C3214 1.391 . S
H3216 C3224 0.950 . S
H3217 C3229 0.950 . S
H3218 C3226 0.950 . S
H3219 C3228 0.950 . S
H3220 C3230 0.950 . S
H3221 C3232 0.950 . S
H3222 C3234 0.950 . S
H3223 C3235 0.950 . S
C3224 H3216 0.950 . S
C3224 C3225 1.386 . S
C3224 C3226 1.391 . S
C3225 C3224 1.386 . S
C3225 C3229 1.393 . S
C3226 H3218 0.950 . S
C3226 C3224 1.391 . S
C3226 C3227 1.400 . S
C3227 C3226 1.400 . S
C3227 C3228 1.398 . S
C3227 C3233 1.491 . S
C3228 H3219 0.950 . S
C3228 C3227 1.398 . S
C3228 C3229 1.391 . S
C3229 H3217 0.950 . S
C3229 C3225 1.393 . S
C3229 C3228 1.391 . S
C3230 H3220 0.950 . S
C3230 C3231 1.386 . S
C3230 C3232 1.391 . S
C3231 C3230 1.386 . S
C3231 C3235 1.393 . S
C3232 H3221 0.950 . S
C3232 C3230 1.391 . S
C3232 C3233 1.400 . S
C3233 C3227 1.491 . S
C3233 C3232 1.400 . S
C3233 C3234 1.398 . S
C3234 H3222 0.950 . S
C3234 C3233 1.398 . S
C3234 C3235 1.391 . S
C3235 H3223 0.950 . S
C3235 C3231 1.393 . S
C3235 C3234 1.391 . S
H3236 C3244 0.950 . S
H3237 C3249 0.950 . S
H3238 C3246 0.950 . S
H3239 C3248 0.950 . S
H3240 C3250 0.950 . S
H3241 C3252 0.950 . S
H3242 C3254 0.950 . S
H3243 C3255 0.950 . S
C3244 H3236 0.950 . S
C3244 C3245 1.386 . S
C3244 C3246 1.391 . S
C3245 C3244 1.386 . S
C3245 C3249 1.393 . S
C3246 H3238 0.950 . S
C3246 C3244 1.391 . S
C3246 C3247 1.400 . S
C3247 C3246 1.400 . S
C3247 C3248 1.398 . S
C3247 C3253 1.491 . S
C3248 H3239 0.950 . S
C3248 C3247 1.398 . S
C3248 C3249 1.391 . S
C3249 H3237 0.950 . S
C3249 C3245 1.393 . S
C3249 C3248 1.391 . S
C3250 H3240 0.950 . S
C3250 C3251 1.386 . S
C3250 C3252 1.391 . S
C3251 C3250 1.386 . S
C3251 C3255 1.393 . S
C3252 H3241 0.950 . S
C3252 C3250 1.391 . S
C3252 C3253 1.400 . S
C3253 C3247 1.491 . S
C3253 C3252 1.400 . S
C3253 C3254 1.398 . S
C3254 H3242 0.950 . S
C3254 C3253 1.398 . S
C3254 C3255 1.391 . S
C3255 H3243 0.950 . S
C3255 C3251 1.393 . S
C3255 C3254 1.391 . S
H3256 C3264 0.950 . S
H3257 C3269 0.950 . S
H3258 C3266 0.950 . S
H3259 C3268 0.950 . S
H3260 C3270 0.950 . S
H3261 C3272 0.950 . S
H3262 C3274 0.950 . S
H3263 C3275 0.950 . S
C3264 H3256 0.950 . S
C3264 C3265 1.386 . S
C3264 C3266 1.391 . S
C3265 C3264 1.386 . S
C3265 C3269 1.393 . S
C3266 H3258 0.950 . S
C3266 C3264 1.391 . S
C3266 C3267 1.400 . S
C3267 C3266 1.400 . S
C3267 C3268 1.398 . S
C3267 C3273 1.491 . S
C3268 H3259 0.950 . S
C3268 C3267 1.398 . S
C3268 C3269 1.391 . S
C3269 H3257 0.950 . S
C3269 C3265 1.393 . S
C3269 C3268 1.391 . S
C3270 H3260 0.950 . S
C3270 C3271 1.386 . S
C3270 C3272 1.391 . S
C3271 C3270 1.386 . S
C3271 C3275 1.393 . S
C3272 H3261 0.950 . S
C3272 C3270 1.391 . S
C3272 C3273 1.400 . S
C3273 C3267 1.491 . S
C3273 C3272 1.400 . S
C3273 C3274 1.398 . S
C3274 H3262 0.950 . S
C3274 C3273 1.398 . S
C3274 C3275 1.391 . S
C3275 H3263 0.950 . S
C3275 C3271 1.393 . S
C3275 C3274 1.391 . S
H3276 C3284 0.950 . S
H3277 C3289 0.950 . S
H3278 C3286 0.950 . S
H3279 C3288 0.950 . S
H3280 C3290 0.950 . S
H3281 C3292 0.950 . S
H3282 C3294 0.950 . S
H3283 C3295 0.950 . S
C3284 H3276 0.950 . S
C3284 C3285 1.386 . S
C3284 C3286 1.391 . S
C3285 C3284 1.386 . S
C3285 C3289 1.393 . S
C3286 H3278 0.950 . S
C3286 C3284 1.391 . S
C3286 C3287 1.400 . S
C3287 C3286 1.400 . S
C3287 C3288 1.398 . S
C3287 C3293 1.491 . S
C3288 H3279 0.950 . S
C3288 C3287 1.398 . S
C3288 C3289 1.391 . S
C3289 H3277 0.950 . S
C3289 C3285 1.393 . S
C3289 C3288 1.391 . S
C3290 H3280 0.950 . S
C3290 C3291 1.386 . S
C3290 C3292 1.391 . S
C3291 C3290 1.386 . S
C3291 C3295 1.393 . S
C3292 H3281 0.950 . S
C3292 C3290 1.391 . S
C3292 C3293 1.400 . S
C3293 C3287 1.491 . S
C3293 C3292 1.400 . S
C3293 C3294 1.398 . S
C3294 H3282 0.950 . S
C3294 C3293 1.398 . S
C3294 C3295 1.391 . S
C3295 H3283 0.950 . S
C3295 C3291 1.393 . S
C3295 C3294 1.391 . S
H3296 C3304 0.950 . S
H3297 C3309 0.950 . S
H3298 C3306 0.950 . S
H3299 C3308 0.950 . S
H3300 C3310 0.950 . S
H3301 C3312 0.950 . S
H3302 C3314 0.950 . S
H3303 C3315 0.950 . S
C3304 H3296 0.950 . S
C3304 C3305 1.386 . S
C3304 C3306 1.391 . S
C3305 C3304 1.386 . S
C3305 C3309 1.393 . S
C3306 H3298 0.950 . S
C3306 C3304 1.391 . S
C3306 C3307 1.400 . S
C3307 C3306 1.400 . S
C3307 C3308 1.398 . S
C3307 C3313 1.491 . S
C3308 H3299 0.950 . S
C3308 C3307 1.398 . S
C3308 C3309 1.391 . S
C3309 H3297 0.950 . S
C3309 C3305 1.393 . S
C3309 C3308 1.391 . S
C3310 H3300 0.950 . S
C3310 C3311 1.386 . S
C3310 C3312 1.391 . S
C3311 C3310 1.386 . S
C3311 C3315 1.393 . S
C3312 H3301 0.950 . S
C3312 C3310 1.391 . S
C3312 C3313 1.400 . S
C3313 C3307 1.491 . S
C3313 C3312 1.400 . S
C3313 C3314 1.398 . S
C3314 H3302 0.950 . S
C3314 C3313 1.398 . S
C3314 C3315 1.391 . S
C3315 H3303 0.950 . S
C3315 C3311 1.393 . S
C3315 C3314 1.391 . S
H3316 C3324 0.950 . S
H3317 C3329 0.950 . S
H3318 C3326 0.950 . S
H3319 C3328 0.950 . S
H3320 C3330 0.950 . S
H3321 C3332 0.950 . S
H3322 C3334 0.950 . S
H3323 C3335 0.950 . S
C3324 H3316 0.950 . S
C3324 C3325 1.386 . S
C3324 C3326 1.391 . S
C3325 C3324 1.386 . S
C3325 C3329 1.393 . S
C3326 H3318 0.950 . S
C3326 C3324 1.391 . S
C3326 C3327 1.400 . S
C3327 C3326 1.400 . S
C3327 C3328 1.398 . S
C3327 C3333 1.491 . S
C3328 H3319 0.950 . S
C3328 C3327 1.398 . S
C3328 C3329 1.391 . S
C3329 H3317 0.950 . S
C3329 C3325 1.393 . S
C3329 C3328 1.391 . S
C3330 H3320 0.950 . S
C3330 C3331 1.386 . S
C3330 C3332 1.391 . S
C3331 C3330 1.386 . S
C3331 C3335 1.393 . S
C3332 H3321 0.950 . S
C3332 C3330 1.391 . S
C3332 C3333 1.400 . S
C3333 C3327 1.491 . S
C3333 C3332 1.400 . S
C3333 C3334 1.398 . S
C3334 H3322 0.950 . S
C3334 C3333 1.398 . S
C3334 C3335 1.391 . S
C3335 H3323 0.950 . S
C3335 C3331 1.393 . S
C3335 C3334 1.391 . S
H3336 C3344 0.950 . S
H3337 C3349 0.950 . S
H3338 C3346 0.950 . S
H3339 C3348 0.950 . S
H3340 C3350 0.950 . S
H3341 C3352 0.950 . S
H3342 C3354 0.950 . S
H3343 C3355 0.950 . S
C3344 H3336 0.950 . S
C3344 C3345 1.386 . S
C3344 C3346 1.391 . S
C3345 C3344 1.386 . S
C3345 C3349 1.393 . S
C3346 H3338 0.950 . S
C3346 C3344 1.391 . S
C3346 C3347 1.400 . S
C3347 C3346 1.400 . S
C3347 C3348 1.398 . S
C3347 C3353 1.491 . S
C3348 H3339 0.950 . S
C3348 C3347 1.398 . S
C3348 C3349 1.391 . S
C3349 H3337 0.950 . S
C3349 C3345 1.393 . S
C3349 C3348 1.391 . S
C3350 H3340 0.950 . S
C3350 C3351 1.386 . S
C3350 C3352 1.391 . S
C3351 C3350 1.386 . S
C3351 C3355 1.393 . S
C3352 H3341 0.950 . S
C3352 C3350 1.391 . S
C3352 C3353 1.400 . S
C3353 C3347 1.491 . S
C3353 C3352 1.400 . S
C3353 C3354 1.398 . S
C3354 H3342 0.950 . S
C3354 C3353 1.398 . S
C3354 C3355 1.391 . S
C3355 H3343 0.950 . S
C3355 C3351 1.393 . S
C3355 C3354 1.391 . S
H3356 C3364 0.950 . S
H3357 C3369 0.950 . S
H3358 C3366 0.950 . S
H3359 C3368 0.950 . S
H3360 C3370 0.950 . S
H3361 C3372 0.950 . S
H3362 C3374 0.950 . S
H3363 C3375 0.950 . S
C3364 H3356 0.950 . S
C3364 C3365 1.386 . S
C3364 C3366 1.391 . S
C3365 C3364 1.386 . S
C3365 C3369 1.393 . S
C3366 H3358 0.950 . S
C3366 C3364 1.391 . S
C3366 C3367 1.400 . S
C3367 C3366 1.400 . S
C3367 C3368 1.398 . S
C3367 C3373 1.491 . S
C3368 H3359 0.950 . S
C3368 C3367 1.398 . S
C3368 C3369 1.391 . S
C3369 H3357 0.950 . S
C3369 C3365 1.393 . S
C3369 C3368 1.391 . S
C3370 H3360 0.950 . S
C3370 C3371 1.386 . S
C3370 C3372 1.391 . S
C3371 C3370 1.386 . S
C3371 C3375 1.393 . S
C3372 H3361 0.950 . S
C3372 C3370 1.391 . S
C3372 C3373 1.400 . S
C3373 C3367 1.491 . S
C3373 C3372 1.400 . S
C3373 C3374 1.398 . S
C3374 H3362 0.950 . S
C3374 C3373 1.398 . S
C3374 C3375 1.391 . S
C3375 H3363 0.950 . S
C3375 C3371 1.393 . S
C3375 C3374 1.391 . S
H3376 C3384 0.950 . S
H3377 C3389 0.950 . S
H3378 C3386 0.950 . S
H3379 C3388 0.950 . S
H3380 C3390 0.950 . S
H3381 C3392 0.950 . S
H3382 C3394 0.950 . S
H3383 C3395 0.950 . S
C3384 H3376 0.950 . S
C3384 C3385 1.386 . S
C3384 C3386 1.391 . S
C3385 C3384 1.386 . S
C3385 C3389 1.393 . S
C3386 H3378 0.950 . S
C3386 C3384 1.391 . S
C3386 C3387 1.400 . S
C3387 C3386 1.400 . S
C3387 C3388 1.398 . S
C3387 C3393 1.491 . S
C3388 H3379 0.950 . S
C3388 C3387 1.398 . S
C3388 C3389 1.391 . S
C3389 H3377 0.950 . S
C3389 C3385 1.393 . S
C3389 C3388 1.391 . S
C3390 H3380 0.950 . S
C3390 C3391 1.386 . S
C3390 C3392 1.391 . S
C3391 C3390 1.386 . S
C3391 C3395 1.393 . S
C3392 H3381 0.950 . S
C3392 C3390 1.391 . S
C3392 C3393 1.400 . S
C3393 C3387 1.491 . S
C3393 C3392 1.400 . S
C3393 C3394 1.398 . S
C3394 H3382 0.950 . S
C3394 C3393 1.398 . S
C3394 C3395 1.391 . S
C3395 H3383 0.950 . S
C3395 C3391 1.393 . S
C3395 C3394 1.391 . S
H3396 C3404 0.950 . S
H3397 C3409 0.950 . S
H3398 C3406 0.950 . S
H3399 C3408 0.950 . S
H3400 C3410 0.950 . S
H3401 C3412 0.950 . S
H3402 C3414 0.950 . S
H3403 C3415 0.950 . S
C3404 H3396 0.950 . S
C3404 C3405 1.386 . S
C3404 C3406 1.391 . S
C3405 C3404 1.386 . S
C3405 C3409 1.393 . S
C3406 H3398 0.950 . S
C3406 C3404 1.391 . S
C3406 C3407 1.400 . S
C3407 C3406 1.400 . S
C3407 C3408 1.398 . S
C3407 C3413 1.491 . S
C3408 H3399 0.950 . S
C3408 C3407 1.398 . S
C3408 C3409 1.391 . S
C3409 H3397 0.950 . S
C3409 C3405 1.393 . S
C3409 C3408 1.391 . S
C3410 H3400 0.950 . S
C3410 C3411 1.386 . S
C3410 C3412 1.391 . S
C3411 C3410 1.386 . S
C3411 C3415 1.393 . S
C3412 H3401 0.950 . S
C3412 C3410 1.391 . S
C3412 C3413 1.400 . S
C3413 C3407 1.491 . S
C3413 C3412 1.400 . S
C3413 C3414 1.398 . S
C3414 H3402 0.950 . S
C3414 C3413 1.398 . S
C3414 C3415 1.391 . S
C3415 H3403 0.950 . S
C3415 C3411 1.393 . S
C3415 C3414 1.391 . S
H3416 C3424 0.950 . S
H3417 C3429 0.950 . S
H3418 C3426 0.950 . S
H3419 C3428 0.950 . S
H3420 C3430 0.950 . S
H3421 C3432 0.950 . S
H3422 C3434 0.950 . S
H3423 C3435 0.950 . S
C3424 H3416 0.950 . S
C3424 C3425 1.386 . S
C3424 C3426 1.391 . S
C3425 C3424 1.386 . S
C3425 C3429 1.393 . S
C3426 H3418 0.950 . S
C3426 C3424 1.391 . S
C3426 C3427 1.400 . S
C3427 C3426 1.400 . S
C3427 C3428 1.398 . S
C3427 C3433 1.491 . S
C3428 H3419 0.950 . S
C3428 C3427 1.398 . S
C3428 C3429 1.391 . S
C3429 H3417 0.950 . S
C3429 C3425 1.393 . S
C3429 C3428 1.391 . S
C3430 H3420 0.950 . S
C3430 C3431 1.386 . S
C3430 C3432 1.391 . S
C3431 C3430 1.386 . S
C3431 C3435 1.393 . S
C3432 H3421 0.950 . S
C3432 C3430 1.391 . S
C3432 C3433 1.400 . S
C3433 C3427 1.491 . S
C3433 C3432 1.400 . S
C3433 C3434 1.398 . S
C3434 H3422 0.950 . S
C3434 C3433 1.398 . S
C3434 C3435 1.391 . S
C3435 H3423 0.950 . S
C3435 C3431 1.393 . S
C3435 C3434 1.391 . S
H3436 C3444 0.950 . S
H3437 C3449 0.950 . S
H3438 C3446 0.950 . S
H3439 C3448 0.950 . S
H3440 C3450 0.950 . S
H3441 C3452 0.950 . S
H3442 C3454 0.950 . S
H3443 C3455 0.950 . S
C3444 H3436 0.950 . S
C3444 C3445 1.386 . S
C3444 C3446 1.391 . S
C3445 C3444 1.386 . S
C3445 C3449 1.393 . S
C3446 H3438 0.950 . S
C3446 C3444 1.391 . S
C3446 C3447 1.400 . S
C3447 C3446 1.400 . S
C3447 C3448 1.398 . S
C3447 C3453 1.491 . S
C3448 H3439 0.950 . S
C3448 C3447 1.398 . S
C3448 C3449 1.391 . S
C3449 H3437 0.950 . S
C3449 C3445 1.393 . S
C3449 C3448 1.391 . S
C3450 H3440 0.950 . S
C3450 C3451 1.386 . S
C3450 C3452 1.391 . S
C3451 C3450 1.386 . S
C3451 C3455 1.393 . S
C3452 H3441 0.950 . S
C3452 C3450 1.391 . S
C3452 C3453 1.400 . S
C3453 C3447 1.491 . S
C3453 C3452 1.400 . S
C3453 C3454 1.398 . S
C3454 H3442 0.950 . S
C3454 C3453 1.398 . S
C3454 C3455 1.391 . S
C3455 H3443 0.950 . S
C3455 C3451 1.393 . S
C3455 C3454 1.391 . S
H3456 C3464 0.950 . S
H3457 C3469 0.950 . S
H3458 C3466 0.950 . S
H3459 C3468 0.950 . S
H3460 C3470 0.950 . S
H3461 C3472 0.950 . S
H3462 C3474 0.950 . S
H3463 C3475 0.950 . S
C3464 H3456 0.950 . S
C3464 C3465 1.386 . S
C3464 C3466 1.391 . S
C3465 C3464 1.386 . S
C3465 C3469 1.393 . S
C3466 H3458 0.950 . S
C3466 C3464 1.391 . S
C3466 C3467 1.400 . S
C3467 C3466 1.400 . S
C3467 C3468 1.398 . S
C3467 C3473 1.491 . S
C3468 H3459 0.950 . S
C3468 C3467 1.398 . S
C3468 C3469 1.391 . S
C3469 H3457 0.950 . S
C3469 C3465 1.393 . S
C3469 C3468 1.391 . S
C3470 H3460 0.950 . S
C3470 C3471 1.386 . S
C3470 C3472 1.391 . S
C3471 C3470 1.386 . S
C3471 C3475 1.393 . S
C3472 H3461 0.950 . S
C3472 C3470 1.391 . S
C3472 C3473 1.400 . S
C3473 C3467 1.491 . S
C3473 C3472 1.400 . S
C3473 C3474 1.398 . S
C3474 H3462 0.950 . S
C3474 C3473 1.398 . S
C3474 C3475 1.391 . S
C3475 H3463 0.950 . S
C3475 C3471 1.393 . S
C3475 C3474 1.391 . S
H3476 C3484 0.950 . S
H3477 C3489 0.950 . S
H3478 C3486 0.950 . S
H3479 C3488 0.950 . S
H3480 C3490 0.950 . S
H3481 C3492 0.950 . S
H3482 C3494 0.950 . S
H3483 C3495 0.950 . S
C3484 H3476 0.950 . S
C3484 C3485 1.386 . S
C3484 C3486 1.391 . S
C3485 C3484 1.386 . S
C3485 C3489 1.393 . S
C3486 H3478 0.950 . S
C3486 C3484 1.391 . S
C3486 C3487 1.400 . S
C3487 C3486 1.400 . S
C3487 C3488 1.398 . S
C3487 C3493 1.491 . S
C3488 H3479 0.950 . S
C3488 C3487 1.398 . S
C3488 C3489 1.391 . S
C3489 H3477 0.950 . S
C3489 C3485 1.393 . S
C3489 C3488 1.391 . S
C3490 H3480 0.950 . S
C3490 C3491 1.386 . S
C3490 C3492 1.391 . S
C3491 C3490 1.386 . S
C3491 C3495 1.393 . S
C3492 H3481 0.950 . S
C3492 C3490 1.391 . S
C3492 C3493 1.400 . S
C3493 C3487 1.491 . S
C3493 C3492 1.400 . S
C3493 C3494 1.398 . S
C3494 H3482 0.950 . S
C3494 C3493 1.398 . S
C3494 C3495 1.391 . S
C3495 H3483 0.950 . S
C3495 C3491 1.393 . S
C3495 C3494 1.391 . S
H3496 C3504 0.950 . S
H3497 C3509 0.950 . S
H3498 C3506 0.950 . S
H3499 C3508 0.950 . S
H3500 C3510 0.950 . S
H3501 C3512 0.950 . S
H3502 C3514 0.950 . S
H3503 C3515 0.950 . S
C3504 H3496 0.950 . S
C3504 C3505 1.386 . S
C3504 C3506 1.391 . S
C3505 C3504 1.386 . S
C3505 C3509 1.393 . S
C3506 H3498 0.950 . S
C3506 C3504 1.391 . S
C3506 C3507 1.400 . S
C3507 C3506 1.400 . S
C3507 C3508 1.398 . S
C3507 C3513 1.491 . S
C3508 H3499 0.950 . S
C3508 C3507 1.398 . S
C3508 C3509 1.391 . S
C3509 H3497 0.950 . S
C3509 C3505 1.393 . S
C3509 C3508 1.391 . S
C3510 H3500 0.950 . S
C3510 C3511 1.386 . S
C3510 C3512 1.391 . S
C3511 C3510 1.386 . S
C3511 C3515 1.393 . S
C3512 H3501 0.950 . S
C3512 C3510 1.391 . S
C3512 C3513 1.400 . S
C3513 C3507 1.491 . S
C3513 C3512 1.400 . S
C3513 C3514 1.398 . S
C3514 H3502 0.950 . S
C3514 C3513 1.398 . S
C3514 C3515 1.391 . S
C3515 H3503 0.950 . S
C3515 C3511 1.393 . S
C3515 C3514 1.391 . S
H3516 C3524 0.950 . S
H3517 C3529 0.950 . S
H3518 C3526 0.950 . S
H3519 C3528 0.950 . S
H3520 C3530 0.950 . S
H3521 C3532 0.950 . S
H3522 C3534 0.950 . S
H3523 C3535 0.950 . S
C3524 H3516 0.950 . S
C3524 C3525 1.386 . S
C3524 C3526 1.391 . S
C3525 C3524 1.386 . S
C3525 C3529 1.393 . S
C3526 H3518 0.950 . S
C3526 C3524 1.391 . S
C3526 C3527 1.400 . S
C3527 C3526 1.400 . S
C3527 C3528 1.398 . S
C3527 C3533 1.491 . S
C3528 H3519 0.950 . S
C3528 C3527 1.398 . S
C3528 C3529 1.391 . S
C3529 H3517 0.950 . S
C3529 C3525 1.393 . S
C3529 C3528 1.391 . S
C3530 H3520 0.950 . S
C3530 C3531 1.386 . S
C3530 C3532 1.391 . S
C3531 C3530 1.386 . S
C3531 C3535 1.393 . S
C3532 H3521 0.950 . S
C3532 C3530 1.391 . S
C3532 C3533 1.400 . S
C3533 C3527 1.491 . S
C3533 C3532 1.400 . S
C3533 C3534 1.398 . S
C3534 H3522 0.950 . S
C3534 C3533 1.398 . S
C3534 C3535 1.391 . S
C3535 H3523 0.950 . S
C3535 C3531 1.393 . S
C3535 C3534 1.391 . S
H3536 C3544 0.950 . S
H3537 C3549 0.950 . S
H3538 C3546 0.950 . S
H3539 C3548 0.950 . S
H3540 C3550 0.950 . S
H3541 C3552 0.950 . S
H3542 C3554 0.950 . S
H3543 C3555 0.950 . S
C3544 H3536 0.950 . S
C3544 C3545 1.386 . S
C3544 C3546 1.391 . S
C3545 C3544 1.386 . S
C3545 C3549 1.393 . S
C3546 H3538 0.950 . S
C3546 C3544 1.391 . S
C3546 C3547 1.400 . S
C3547 C3546 1.400 . S
C3547 C3548 1.398 . S
C3547 C3553 1.491 . S
C3548 H3539 0.950 . S
C3548 C3547 1.398 . S
C3548 C3549 1.391 . S
C3549 H3537 0.950 . S
C3549 C3545 1.393 . S
C3549 C3548 1.391 . S
C3550 H3540 0.950 . S
C3550 C3551 1.386 . S
C3550 C3552 1.391 . S
C3551 C3550 1.386 . S
C3551 C3555 1.393 . S
C3552 H3541 0.950 . S
C3552 C3550 1.391 . S
C3552 C3553 1.400 . S
C3553 C3547 1.491 . S
C3553 C3552 1.400 . S
C3553 C3554 1.398 . S
C3554 H3542 0.950 . S
C3554 C3553 1.398 . S
C3554 C3555 1.391 . S
C3555 H3543 0.950 . S
C3555 C3551 1.393 . S
C3555 C3554 1.391 . S
H3556 C3564 0.950 . S
H3557 C3569 0.950 . S
H3558 C3566 0.950 . S
H3559 C3568 0.950 . S
H3560 C3570 0.950 . S
H3561 C3572 0.950 . S
H3562 C3574 0.950 . S
H3563 C3575 0.950 . S
C3564 H3556 0.950 . S
C3564 C3565 1.386 . S
C3564 C3566 1.391 . S
C3565 C3564 1.386 . S
C3565 C3569 1.393 . S
C3566 H3558 0.950 . S
C3566 C3564 1.391 . S
C3566 C3567 1.400 . S
C3567 C3566 1.400 . S
C3567 C3568 1.398 . S
C3567 C3573 1.491 . S
C3568 H3559 0.950 . S
C3568 C3567 1.398 . S
C3568 C3569 1.391 . S
C3569 H3557 0.950 . S
C3569 C3565 1.393 . S
C3569 C3568 1.391 . S
C3570 H3560 0.950 . S
C3570 C3571 1.386 . S
C3570 C3572 1.391 . S
C3571 C3570 1.386 . S
C3571 C3575 1.393 . S
C3572 H3561 0.950 . S
C3572 C3570 1.391 . S
C3572 C3573 1.400 . S
C3573 C3567 1.491 . S
C3573 C3572 1.400 . S
C3573 C3574 1.398 . S
C3574 H3562 0.950 . S
C3574 C3573 1.398 . S
C3574 C3575 1.391 . S
C3575 H3563 0.950 . S
C3575 C3571 1.393 . S
C3575 C3574 1.391 . S
H3576 C3584 0.950 . S
H3577 C3589 0.950 . S
H3578 C3586 0.950 . S
H3579 C3588 0.950 . S
H3580 C3590 0.950 . S
H3581 C3592 0.950 . S
H3582 C3594 0.950 . S
H3583 C3595 0.950 . S
C3584 H3576 0.950 . S
C3584 C3585 1.386 . S
C3584 C3586 1.391 . S
C3585 C3584 1.386 . S
C3585 C3589 1.393 . S
C3586 H3578 0.950 . S
C3586 C3584 1.391 . S
C3586 C3587 1.400 . S
C3587 C3586 1.400 . S
C3587 C3588 1.398 . S
C3587 C3593 1.491 . S
C3588 H3579 0.950 . S
C3588 C3587 1.398 . S
C3588 C3589 1.391 . S
C3589 H3577 0.950 . S
C3589 C3585 1.393 . S
C3589 C3588 1.391 . S
C3590 H3580 0.950 . S
C3590 C3591 1.386 . S
C3590 C3592 1.391 . S
C3591 C3590 1.386 . S
C3591 C3595 1.393 . S
C3592 H3581 0.950 . S
C3592 C3590 1.391 . S
C3592 C3593 1.400 . S
C3593 C3587 1.491 . S
C3593 C3592 1.400 . S
C3593 C3594 1.398 . S
C3594 H3582 0.950 . S
C3594 C3593 1.398 . S
C3594 C3595 1.391 . S
C3595 H3583 0.950 . S
C3595 C3591 1.393 . S
C3595 C3594 1.391 . S
H3596 C3604 0.950 . S
H3597 C3609 0.950 . S
H3598 C3606 0.950 . S
H3599 C3608 0.950 . S
H3600 C3610 0.950 . S
H3601 C3612 0.950 . S
H3602 C3614 0.950 . S
H3603 C3615 0.950 . S
C3604 H3596 0.950 . S
C3604 C3605 1.386 . S
C3604 C3606 1.391 . S
C3605 C3604 1.386 . S
C3605 C3609 1.393 . S
C3606 H3598 0.950 . S
C3606 C3604 1.391 . S
C3606 C3607 1.400 . S
C3607 C3606 1.400 . S
C3607 C3608 1.398 . S
C3607 C3613 1.491 . S
C3608 H3599 0.950 . S
C3608 C3607 1.398 . S
C3608 C3609 1.391 . S
C3609 H3597 0.950 . S
C3609 C3605 1.393 . S
C3609 C3608 1.391 . S
C3610 H3600 0.950 . S
C3610 C3611 1.386 . S
C3610 C3612 1.391 . S
C3611 C3610 1.386 . S
C3611 C3615 1.393 . S
C3612 H3601 0.950 . S
C3612 C3610 1.391 . S
C3612 C3613 1.400 . S
C3613 C3607 1.491 . S
C3613 C3612 1.400 . S
C3613 C3614 1.398 . S
C3614 H3602 0.950 . S
C3614 C3613 1.398 . S
C3614 C3615 1.391 . S
C3615 H3603 0.950 . S
C3615 C3611 1.393 . S
C3615 C3614 1.391 . S
H3616 C3624 0.950 . S
H3617 C3629 0.950 . S
H3618 C3626 0.950 . S
H3619 C3628 0.950 . S
H3620 C3630 0.950 . S
H3621 C3632 0.950 . S
H3622 C3634 0.950 . S
H3623 C3635 0.950 . S
C3624 H3616 0.950 . S
C3624 C3625 1.386 . S
C3624 C3626 1.391 . S
C3625 C3624 1.386 . S
C3625 C3629 1.393 . S
C3626 H3618 0.950 . S
C3626 C3624 1.391 . S
C3626 C3627 1.400 . S
C3627 C3626 1.400 . S
C3627 C3628 1.398 . S
C3627 C3633 1.491 . S
C3628 H3619 0.950 . S
C3628 C3627 1.398 . S
C3628 C3629 1.391 . S
C3629 H3617 0.950 . S
C3629 C3625 1.393 . S
C3629 C3628 1.391 . S
C3630 H3620 0.950 . S
C3630 C3631 1.386 . S
C3630 C3632 1.391 . S
C3631 C3630 1.386 . S
C3631 C3635 1.393 . S
C3632 H3621 0.950 . S
C3632 C3630 1.391 . S
C3632 C3633 1.400 . S
C3633 C3627 1.491 . S
C3633 C3632 1.400 . S
C3633 C3634 1.398 . S
C3634 H3622 0.950 . S
C3634 C3633 1.398 . S
C3634 C3635 1.391 . S
C3635 H3623 0.950 . S
C3635 C3631 1.393 . S
C3635 C3634 1.391 . S
H3636 C3644 0.950 . S
H3637 C3649 0.950 . S
H3638 C3646 0.950 . S
H3639 C3648 0.950 . S
H3640 C3650 0.950 . S
H3641 C3652 0.950 . S
H3642 C3654 0.950 . S
H3643 C3655 0.950 . S
C3644 H3636 0.950 . S
C3644 C3645 1.386 . S
C3644 C3646 1.391 . S
C3645 C3644 1.386 . S
C3645 C3649 1.393 . S
C3646 H3638 0.950 . S
C3646 C3644 1.391 . S
C3646 C3647 1.400 . S
C3647 C3646 1.400 . S
C3647 C3648 1.398 . S
C3647 C3653 1.491 . S
C3648 H3639 0.950 . S
C3648 C3647 1.398 . S
C3648 C3649 1.391 . S
C3649 H3637 0.950 . S
C3649 C3645 1.393 . S
C3649 C3648 1.391 . S
C3650 H3640 0.950 . S
C3650 C3651 1.386 . S
C3650 C3652 1.391 . S
C3651 C3650 1.386 . S
C3651 C3655 1.393 . S
C3652 H3641 0.950 . S
C3652 C3650 1.391 . S
C3652 C3653 1.400 . S
C3653 C3647 1.491 . S
C3653 C3652 1.400 . S
C3653 C3654 1.398 . S
C3654 H3642 0.950 . S
C3654 C3653 1.398 . S
C3654 C3655 1.391 . S
C3655 H3643 0.950 . S
C3655 C3651 1.393 . S
C3655 C3654 1.391 . S
H3656 C3664 0.950 . S
H3657 C3669 0.950 . S
H3658 C3666 0.950 . S
H3659 C3668 0.950 . S
H3660 C3670 0.950 . S
H3661 C3672 0.950 . S
H3662 C3674 0.950 . S
H3663 C3675 0.950 . S
C3664 H3656 0.950 . S
C3664 C3665 1.386 . S
C3664 C3666 1.391 . S
C3665 C3664 1.386 . S
C3665 C3669 1.393 . S
C3666 H3658 0.950 . S
C3666 C3664 1.391 . S
C3666 C3667 1.400 . S
C3667 C3666 1.400 . S
C3667 C3668 1.398 . S
C3667 C3673 1.491 . S
C3668 H3659 0.950 . S
C3668 C3667 1.398 . S
C3668 C3669 1.391 . S
C3669 H3657 0.950 . S
C3669 C3665 1.393 . S
C3669 C3668 1.391 . S
C3670 H3660 0.950 . S
C3670 C3671 1.386 . S
C3670 C3672 1.391 . S
C3671 C3670 1.386 . S
C3671 C3675 1.393 . S
C3672 H3661 0.950 . S
C3672 C3670 1.391 . S
C3672 C3673 1.400 . S
C3673 C3667 1.491 . S
C3673 C3672 1.400 . S
C3673 C3674 1.398 . S
C3674 H3662 0.950 . S
C3674 C3673 1.398 . S
C3674 C3675 1.391 . S
C3675 H3663 0.950 . S
C3675 C3671 1.393 . S
C3675 C3674 1.391 . S
H3676 C3684 0.950 . S
H3677 C3689 0.950 . S
H3678 C3686 0.950 . S
H3679 C3688 0.950 . S
H3680 C3690 0.950 . S
H3681 C3692 0.950 . S
H3682 C3694 0.950 . S
H3683 C3695 0.950 . S
C3684 H3676 0.950 . S
C3684 C3685 1.386 . S
C3684 C3686 1.391 . S
C3685 C3684 1.386 . S
C3685 C3689 1.393 . S
C3686 H3678 0.950 . S
C3686 C3684 1.391 . S
C3686 C3687 1.400 . S
C3687 C3686 1.400 . S
C3687 C3688 1.398 . S
C3687 C3693 1.491 . S
C3688 H3679 0.950 . S
C3688 C3687 1.398 . S
C3688 C3689 1.391 . S
C3689 H3677 0.950 . S
C3689 C3685 1.393 . S
C3689 C3688 1.391 . S
C3690 H3680 0.950 . S
C3690 C3691 1.386 . S
C3690 C3692 1.391 . S
C3691 C3690 1.386 . S
C3691 C3695 1.393 . S
C3692 H3681 0.950 . S
C3692 C3690 1.391 . S
C3692 C3693 1.400 . S
C3693 C3687 1.491 . S
C3693 C3692 1.400 . S
C3693 C3694 1.398 . S
C3694 H3682 0.950 . S
C3694 C3693 1.398 . S
C3694 C3695 1.391 . S
C3695 H3683 0.950 . S
C3695 C3691 1.393 . S
C3695 C3694 1.391 . S
H3696 C3704 0.950 . S
H3697 C3709 0.950 1_554 S
H3698 C3706 0.950 . S
H3699 C3708 0.950 . S
H3700 C3710 0.950 . S
H3701 C3712 0.950 . S
H3702 C3714 0.950 . S
H3703 C3715 0.950 . S
C3704 H3696 0.950 . S
C3704 C3705 1.386 . S
C3704 C3706 1.391 . S
C3705 C3704 1.386 . S
C3705 C3709 1.393 . S
C3706 H3698 0.950 . S
C3706 C3704 1.391 . S
C3706 C3707 1.400 . S
C3707 C3706 1.400 . S
C3707 C3708 1.398 . S
C3707 C3713 1.491 . S
C3708 H3699 0.950 . S
C3708 C3707 1.398 . S
C3708 C3709 1.391 . S
C3709 H3697 0.950 1_556 S
C3709 C3705 1.393 . S
C3709 C3708 1.391 . S
C3710 H3700 0.950 . S
C3710 C3711 1.386 . S
C3710 C3712 1.391 . S
C3711 C3710 1.386 . S
C3711 C3715 1.393 . S
C3712 H3701 0.950 . S
C3712 C3710 1.391 . S
C3712 C3713 1.400 . S
C3713 C3707 1.491 . S
C3713 C3712 1.400 . S
C3713 C3714 1.398 . S
C3714 H3702 0.950 . S
C3714 C3713 1.398 . S
C3714 C3715 1.391 . S
C3715 H3703 0.950 . S
C3715 C3711 1.393 . S
C3715 C3714 1.391 . S
H3716 C3724 0.950 . S
H3717 C3729 0.950 . S
H3718 C3726 0.950 . S
H3719 C3728 0.950 . S
H3720 C3730 0.950 . S
H3721 C3732 0.950 . S
H3722 C3734 0.950 . S
H3723 C3735 0.950 . S
C3724 H3716 0.950 . S
C3724 C3725 1.386 . S
C3724 C3726 1.391 . S
C3725 C3724 1.386 . S
C3725 C3729 1.393 . S
C3726 H3718 0.950 . S
C3726 C3724 1.391 . S
C3726 C3727 1.400 . S
C3727 C3726 1.400 . S
C3727 C3728 1.398 . S
C3727 C3733 1.491 . S
C3728 H3719 0.950 . S
C3728 C3727 1.398 . S
C3728 C3729 1.391 . S
C3729 H3717 0.950 . S
C3729 C3725 1.393 . S
C3729 C3728 1.391 . S
C3730 H3720 0.950 . S
C3730 C3731 1.386 . S
C3730 C3732 1.391 . S
C3731 C3730 1.386 . S
C3731 C3735 1.393 . S
C3732 H3721 0.950 . S
C3732 C3730 1.391 . S
C3732 C3733 1.400 . S
C3733 C3727 1.491 . S
C3733 C3732 1.400 . S
C3733 C3734 1.398 . S
C3734 H3722 0.950 . S
C3734 C3733 1.398 . S
C3734 C3735 1.391 . S
C3735 H3723 0.950 . S
C3735 C3731 1.393 . S
C3735 C3734 1.391 . S
H3736 C3744 0.950 . S
H3737 C3749 0.950 . S
H3738 C3746 0.937 1_556 S
H3739 C3748 0.950 . S
H3740 C3750 0.950 . S
H3741 C3752 0.958 . S
H3742 C3754 0.950 . S
H3743 C3755 0.950 . S
C3744 H3736 0.950 . S
C3744 C3745 1.386 . S
C3744 C3746 1.391 . S
C3745 C3744 1.386 . S
C3745 C3749 1.393 . S
C3746 H3738 0.937 1_554 S
C3746 C3744 1.391 . S
C3746 C3747 1.400 . S
C3747 C3746 1.400 . S
C3747 C3748 1.398 . S
C3747 C3753 1.491 1_554 S
C3748 H3739 0.950 . S
C3748 C3747 1.398 . S
C3748 C3749 1.391 . S
C3749 H3737 0.950 . S
C3749 C3745 1.393 . S
C3749 C3748 1.391 . S
C3750 H3740 0.950 . S
C3750 C3751 1.386 . S
C3750 C3752 1.384 1_556 S
C3751 C3750 1.386 . S
C3751 C3755 1.393 . S
C3752 H3741 0.958 . S
C3752 C3750 1.384 1_554 S
C3752 C3753 1.400 1_554 S
C3753 C3747 1.491 1_556 S
C3753 C3752 1.400 1_556 S
C3753 C3754 1.398 . S
C3754 H3742 0.950 . S
C3754 C3753 1.398 . S
C3754 C3755 1.391 . S
C3755 H3743 0.950 . S
C3755 C3751 1.393 . S
C3755 C3754 1.391 . S
H3756 C3764 0.950 . S
H3757 C3769 0.950 . S
H3758 C3766 0.950 . S
H3759 C3768 0.950 . S
H3760 C3770 0.950 . S
H3761 C3772 0.950 . S
H3762 C3774 0.950 . S
H3763 C3775 0.950 . S
C3764 H3756 0.950 . S
C3764 C3765 1.386 . S
C3764 C3766 1.391 . S
C3765 C3764 1.386 . S
C3765 C3769 1.393 1_554 S
C3766 H3758 0.950 . S
C3766 C3764 1.391 . S
C3766 C3767 1.400 1_554 S
C3767 C3766 1.400 1_556 S
C3767 C3768 1.398 . S
C3767 C3773 1.491 . S
C3768 H3759 0.950 . S
C3768 C3767 1.398 . S
C3768 C3769 1.391 . S
C3769 H3757 0.950 . S
C3769 C3765 1.393 1_556 S
C3769 C3768 1.391 . S
C3770 H3760 0.950 . S
C3770 C3771 1.386 . S
C3770 C3772 1.391 . S
C3771 C3770 1.386 . S
C3771 C3775 1.393 . S
C3772 H3761 0.950 . S
C3772 C3770 1.391 . S
C3772 C3773 1.400 . S
C3773 C3767 1.491 . S
C3773 C3772 1.400 . S
C3773 C3774 1.398 . S
C3774 H3762 0.950 . S
C3774 C3773 1.398 . S
C3774 C3775 1.391 . S
C3775 H3763 0.950 . S
C3775 C3771 1.393 . S
C3775 C3774 1.391 . S
H3776 C3784 0.950 . S
H3777 C3789 0.950 . S
H3778 C3786 0.950 . S
H3779 C3788 0.950 . S
H3780 C3790 0.950 . S
H3781 C3792 0.950 . S
H3782 C3794 0.950 . S
H3783 C3795 0.950 . S
C3784 H3776 0.950 . S
C3784 C3785 1.386 . S
C3784 C3786 1.391 . S
C3785 C3784 1.386 . S
C3785 C3789 1.393 . S
C3786 H3778 0.950 . S
C3786 C3784 1.391 . S
C3786 C3787 1.400 . S
C3787 C3786 1.400 . S
C3787 C3788 1.398 . S
C3787 C3793 1.491 . S
C3788 H3779 0.950 . S
C3788 C3787 1.398 . S
C3788 C3789 1.391 . S
C3789 H3777 0.950 . S
C3789 C3785 1.393 . S
C3789 C3788 1.391 . S
C3790 H3780 0.950 . S
C3790 C3791 1.386 . S
C3790 C3792 1.391 . S
C3791 C3790 1.386 . S
C3791 C3795 1.393 . S
C3792 H3781 0.950 . S
C3792 C3790 1.391 . S
C3792 C3793 1.400 . S
C3793 C3787 1.491 . S
C3793 C3792 1.400 . S
C3793 C3794 1.398 . S
C3794 H3782 0.950 . S
C3794 C3793 1.398 . S
C3794 C3795 1.391 . S
C3795 H3783 0.950 . S
C3795 C3791 1.393 . S
C3795 C3794 1.391 . S
H3796 C3804 0.950 . S
H3797 C3809 0.950 . S
H3798 C3806 0.950 . S
H3799 C3808 0.950 . S
H3800 C3810 0.950 . S
H3801 C3812 0.950 . S
H3802 C3814 0.950 1_554 S
H3803 C3815 0.950 . S
C3804 H3796 0.950 . S
C3804 C3805 1.386 . S
C3804 C3806 1.391 . S
C3805 C3804 1.386 . S
C3805 C3809 1.393 1_554 S
C3806 H3798 0.950 . S
C3806 C3804 1.391 . S
C3806 C3807 1.400 1_554 S
C3807 C3806 1.400 1_556 S
C3807 C3808 1.398 . S
C3807 C3813 1.491 . S
C3808 H3799 0.950 . S
C3808 C3807 1.398 . S
C3808 C3809 1.391 . S
C3809 H3797 0.950 . S
C3809 C3805 1.393 1_556 S
C3809 C3808 1.391 . S
C3810 H3800 0.950 . S
C3810 C3811 1.386 . S
C3810 C3812 1.391 . S
C3811 C3810 1.386 . S
C3811 C3815 1.393 . S
C3812 H3801 0.950 . S
C3812 C3810 1.391 . S
C3812 C3813 1.400 . S
C3813 C3807 1.491 . S
C3813 C3812 1.400 . S
C3813 C3814 1.398 . S
C3814 H3802 0.950 1_556 S
C3814 C3813 1.398 . S
C3814 C3815 1.391 . S
C3815 H3803 0.950 . S
C3815 C3811 1.393 . S
C3815 C3814 1.391 . S
H3816 C3824 0.950 . S
H3817 C3829 0.950 . S
H3818 C3826 0.950 . S
H3819 C3828 0.950 . S
H3820 C3830 0.950 . S
H3821 C3832 0.950 . S
H3822 C3834 0.950 . S
H3823 C3835 0.950 . S
C3824 H3816 0.950 . S
C3824 C3825 1.386 . S
C3824 C3826 1.391 . S
C3825 C3824 1.386 . S
C3825 C3829 1.393 . S
C3826 H3818 0.950 . S
C3826 C3824 1.391 . S
C3826 C3827 1.400 . S
C3827 C3826 1.400 . S
C3827 C3828 1.398 . S
C3827 C3833 1.491 . S
C3828 H3819 0.950 . S
C3828 C3827 1.398 . S
C3828 C3829 1.391 . S
C3829 H3817 0.950 . S
C3829 C3825 1.393 . S
C3829 C3828 1.391 . S
C3830 H3820 0.950 . S
C3830 C3831 1.386 . S
C3830 C3832 1.391 . S
C3831 C3830 1.386 . S
C3831 C3835 1.393 . S
C3832 H3821 0.950 . S
C3832 C3830 1.391 . S
C3832 C3833 1.400 . S
C3833 C3827 1.491 . S
C3833 C3832 1.400 . S
C3833 C3834 1.398 . S
C3834 H3822 0.950 . S
C3834 C3833 1.398 . S
C3834 C3835 1.391 . S
C3835 H3823 0.950 . S
C3835 C3831 1.393 . S
C3835 C3834 1.391 . S
H3836 C3844 0.950 . S
H3837 C3849 0.950 . S
H3838 C3846 0.950 . S
H3839 C3848 0.950 . S
H3840 C3850 0.950 . S
H3841 C3852 0.950 . S
H3842 C3854 0.950 . S
H3843 C3855 0.950 . S
C3844 H3836 0.950 . S
C3844 C3845 1.386 . S
C3844 C3846 1.391 . S
C3845 C3844 1.386 . S
C3845 C3849 1.393 . S
C3846 H3838 0.950 . S
C3846 C3844 1.391 . S
C3846 C3847 1.400 . S
C3847 C3846 1.400 . S
C3847 C3848 1.398 . S
C3847 C3853 1.491 . S
C3848 H3839 0.950 . S
C3848 C3847 1.398 . S
C3848 C3849 1.391 . S
C3849 H3837 0.950 . S
C3849 C3845 1.393 . S
C3849 C3848 1.391 . S
C3850 H3840 0.950 . S
C3850 C3851 1.386 . S
C3850 C3852 1.391 . S
C3851 C3850 1.386 . S
C3851 C3855 1.393 . S
C3852 H3841 0.950 . S
C3852 C3850 1.391 . S
C3852 C3853 1.400 . S
C3853 C3847 1.491 . S
C3853 C3852 1.400 . S
C3853 C3854 1.398 . S
C3854 H3842 0.950 . S
C3854 C3853 1.398 . S
C3854 C3855 1.391 . S
C3855 H3843 0.950 . S
C3855 C3851 1.393 . S
C3855 C3854 1.391 . S
H3856 C3864 0.950 . S
H3857 C3869 0.950 . S
H3858 C3866 0.950 . S
H3859 C3868 0.950 . S
H3860 C3870 0.950 . S
H3861 C3872 0.950 . S
H3862 C3874 0.950 . S
H3863 C3875 0.950 . S
C3864 H3856 0.950 . S
C3864 C3865 1.386 . S
C3864 C3866 1.391 . S
C3865 C3864 1.386 . S
C3865 C3869 1.393 . S
C3866 H3858 0.950 . S
C3866 C3864 1.391 . S
C3866 C3867 1.400 . S
C3867 C3866 1.400 . S
C3867 C3868 1.398 . S
C3867 C3873 1.491 . S
C3868 H3859 0.950 . S
C3868 C3867 1.398 . S
C3868 C3869 1.391 . S
C3869 H3857 0.950 . S
C3869 C3865 1.393 . S
C3869 C3868 1.391 . S
C3870 H3860 0.950 . S
C3870 C3871 1.386 . S
C3870 C3872 1.391 . S
C3871 C3870 1.386 . S
C3871 C3875 1.393 . S
C3872 H3861 0.950 . S
C3872 C3870 1.391 . S
C3872 C3873 1.400 . S
C3873 C3867 1.491 . S
C3873 C3872 1.400 . S
C3873 C3874 1.398 . S
C3874 H3862 0.950 . S
C3874 C3873 1.398 . S
C3874 C3875 1.391 . S
C3875 H3863 0.950 . S
C3875 C3871 1.393 . S
C3875 C3874 1.391 . S
H3876 C3884 0.950 . S
H3877 C3889 0.950 . S
H3878 C3886 0.950 . S
H3879 C3888 0.950 . S
H3880 C3890 0.950 . S
H3881 C3892 0.950 . S
H3882 C3894 0.950 . S
H3883 C3895 0.950 . S
C3884 H3876 0.950 . S
C3884 C3885 1.386 . S
C3884 C3886 1.391 . S
C3885 C3884 1.386 . S
C3885 C3889 1.393 . S
C3886 H3878 0.950 . S
C3886 C3884 1.391 . S
C3886 C3887 1.400 . S
C3887 C3886 1.400 . S
C3887 C3888 1.398 . S
C3887 C3893 1.491 . S
C3888 H3879 0.950 . S
C3888 C3887 1.398 . S
C3888 C3889 1.391 . S
C3889 H3877 0.950 . S
C3889 C3885 1.393 . S
C3889 C3888 1.391 . S
C3890 H3880 0.950 . S
C3890 C3891 1.386 . S
C3890 C3892 1.391 . S
C3891 C3890 1.386 . S
C3891 C3895 1.393 . S
C3892 H3881 0.950 . S
C3892 C3890 1.391 . S
C3892 C3893 1.400 . S
C3893 C3887 1.491 . S
C3893 C3892 1.400 . S
C3893 C3894 1.398 . S
C3894 H3882 0.950 . S
C3894 C3893 1.398 . S
C3894 C3895 1.391 . S
C3895 H3883 0.950 . S
C3895 C3891 1.393 . S
C3895 C3894 1.391 . S
H3896 C3904 0.950 . S
H3897 C3909 0.950 . S
H3898 C3906 0.950 . S
H3899 C3908 0.950 . S
H3900 C3910 0.950 . S
H3901 C3912 0.950 . S
H3902 C3914 0.950 . S
H3903 C3915 0.950 . S
C3904 H3896 0.950 . S
C3904 C3905 1.386 . S
C3904 C3906 1.391 . S
C3905 C3904 1.386 . S
C3905 C3909 1.393 . S
C3906 H3898 0.950 . S
C3906 C3904 1.391 . S
C3906 C3907 1.400 . S
C3907 C3906 1.400 . S
C3907 C3908 1.398 . S
C3907 C3913 1.491 . S
C3908 H3899 0.950 . S
C3908 C3907 1.398 . S
C3908 C3909 1.391 . S
C3909 H3897 0.950 . S
C3909 C3905 1.393 . S
C3909 C3908 1.391 . S
C3910 H3900 0.950 . S
C3910 C3911 1.386 . S
C3910 C3912 1.391 . S
C3911 C3910 1.386 . S
C3911 C3915 1.393 . S
C3912 H3901 0.950 . S
C3912 C3910 1.391 . S
C3912 C3913 1.400 . S
C3913 C3907 1.491 . S
C3913 C3912 1.400 . S
C3913 C3914 1.398 . S
C3914 H3902 0.950 . S
C3914 C3913 1.398 . S
C3914 C3915 1.391 . S
C3915 H3903 0.950 . S
C3915 C3911 1.393 . S
C3915 C3914 1.391 . S
H3916 C3924 0.950 . S
H3917 C3929 0.950 . S
H3918 C3926 0.950 . S
H3919 C3928 0.950 . S
H3920 C3930 0.950 . S
H3921 C3932 0.950 . S
H3922 C3934 0.950 . S
H3923 C3935 0.950 . S
C3924 H3916 0.950 . S
C3924 C3925 1.386 . S
C3924 C3926 1.391 . S
C3925 C3924 1.386 . S
C3925 C3929 1.393 . S
C3926 H3918 0.950 . S
C3926 C3924 1.391 . S
C3926 C3927 1.400 . S
C3927 C3926 1.400 . S
C3927 C3928 1.398 . S
C3927 C3933 1.491 . S
C3928 H3919 0.950 . S
C3928 C3927 1.398 . S
C3928 C3929 1.391 . S
C3929 H3917 0.950 . S
C3929 C3925 1.393 . S
C3929 C3928 1.391 . S
C3930 H3920 0.950 . S
C3930 C3931 1.386 . S
C3930 C3932 1.391 . S
C3931 C3930 1.386 . S
C3931 C3935 1.393 . S
C3932 H3921 0.950 . S
C3932 C3930 1.391 . S
C3932 C3933 1.400 . S
C3933 C3927 1.491 . S
C3933 C3932 1.400 . S
C3933 C3934 1.398 . S
C3934 H3922 0.950 . S
C3934 C3933 1.398 . S
C3934 C3935 1.391 . S
C3935 H3923 0.950 . S
C3935 C3931 1.393 . S
C3935 C3934 1.391 . S
H3936 C3944 0.950 . S
H3937 C3949 0.950 . S
H3938 C3946 0.950 . S
H3939 C3948 0.950 . S
H3940 C3950 0.950 1_655 S
H3941 C3952 0.950 . S
H3942 C3954 0.950 . S
H3943 C3955 0.950 . S
C3944 H3936 0.950 . S
C3944 C3945 1.386 . S
C3944 C3946 1.391 . S
C3945 C3944 1.386 . S
C3945 C3949 1.393 . S
C3946 H3938 0.950 . S
C3946 C3944 1.391 . S
C3946 C3947 1.400 . S
C3947 C3946 1.400 . S
C3947 C3948 1.398 . S
C3947 C3953 1.491 . S
C3948 H3939 0.950 . S
C3948 C3947 1.398 . S
C3948 C3949 1.391 . S
C3949 H3937 0.950 . S
C3949 C3945 1.393 . S
C3949 C3948 1.391 . S
C3950 H3940 0.950 1_455 S
C3950 C3951 1.386 . S
C3950 C3952 1.391 . S
C3951 C3950 1.386 . S
C3951 C3955 1.393 . S
C3952 H3941 0.950 . S
C3952 C3950 1.391 . S
C3952 C3953 1.400 . S
C3953 C3947 1.491 . S
C3953 C3952 1.400 . S
C3953 C3954 1.398 . S
C3954 H3942 0.950 . S
C3954 C3953 1.398 . S
C3954 C3955 1.391 . S
C3955 H3943 0.950 . S
C3955 C3951 1.393 . S
C3955 C3954 1.391 . S
H3956 C3964 0.950 . S
H3957 C3969 0.950 . S
H3958 C3966 0.950 . S
H3959 C3968 0.950 . S
H3960 C3970 0.950 . S
H3961 C3972 0.950 . S
H3962 C3974 0.950 . S
H3963 C3975 0.950 . S
C3964 H3956 0.950 . S
C3964 C3965 1.386 . S
C3964 C3966 1.391 . S
C3965 C3964 1.386 . S
C3965 C3969 1.393 . S
C3966 H3958 0.950 . S
C3966 C3964 1.391 . S
C3966 C3967 1.400 . S
C3967 C3966 1.400 . S
C3967 C3968 1.398 . S
C3967 C3973 1.491 . S
C3968 H3959 0.950 . S
C3968 C3967 1.398 . S
C3968 C3969 1.391 . S
C3969 H3957 0.950 . S
C3969 C3965 1.393 . S
C3969 C3968 1.391 . S
C3970 H3960 0.950 . S
C3970 C3971 1.386 . S
C3970 C3972 1.391 . S
C3971 C3970 1.386 . S
C3971 C3975 1.393 . S
C3972 H3961 0.950 . S
C3972 C3970 1.391 . S
C3972 C3973 1.400 . S
C3973 C3967 1.491 . S
C3973 C3972 1.400 . S
C3973 C3974 1.398 . S
C3974 H3962 0.950 . S
C3974 C3973 1.398 . S
C3974 C3975 1.391 . S
C3975 H3963 0.950 . S
C3975 C3971 1.393 . S
C3975 C3974 1.391 . S
H3976 C3984 0.950 . S
H3977 C3989 0.950 . S
H3978 C3986 0.950 . S
H3979 C3988 0.950 . S
H3980 C3990 0.950 . S
H3981 C3992 0.950 . S
H3982 C3994 0.950 . S
H3983 C3995 0.950 . S
C3984 H3976 0.950 . S
C3984 C3985 1.386 . S
C3984 C3986 1.391 . S
C3985 C3984 1.386 . S
C3985 C3989 1.393 . S
C3986 H3978 0.950 . S
C3986 C3984 1.391 . S
C3986 C3987 1.400 . S
C3987 C3986 1.400 . S
C3987 C3988 1.398 . S
C3987 C3993 1.491 . S
C3988 H3979 0.950 . S
C3988 C3987 1.398 . S
C3988 C3989 1.391 . S
C3989 H3977 0.950 . S
C3989 C3985 1.393 . S
C3989 C3988 1.391 . S
C3990 H3980 0.950 . S
C3990 C3991 1.386 . S
C3990 C3992 1.391 . S
C3991 C3990 1.386 . S
C3991 C3995 1.393 . S
C3992 H3981 0.950 . S
C3992 C3990 1.391 . S
C3992 C3993 1.400 . S
C3993 C3987 1.491 . S
C3993 C3992 1.400 . S
C3993 C3994 1.398 . S
C3994 H3982 0.950 . S
C3994 C3993 1.398 . S
C3994 C3995 1.391 . S
C3995 H3983 0.950 . S
C3995 C3991 1.393 . S
C3995 C3994 1.391 . S
H3996 C4004 0.950 . S
H3997 C4009 0.950 . S
H3998 C4006 0.950 . S
H3999 C4008 0.950 . S
H4000 C4010 0.950 . S
H4001 C4012 0.950 1_545 S
H4002 C4014 0.950 . S
H4003 C4015 0.950 . S
C4004 H3996 0.950 . S
C4004 C4005 1.386 . S
C4004 C4006 1.391 . S
C4005 C4004 1.386 . S
C4005 C4009 1.393 . S
C4006 H3998 0.950 . S
C4006 C4004 1.391 . S
C4006 C4007 1.400 . S
C4007 C4006 1.400 . S
C4007 C4008 1.398 . S
C4007 C4013 1.491 . S
C4008 H3999 0.950 . S
C4008 C4007 1.398 . S
C4008 C4009 1.391 . S
C4009 H3997 0.950 . S
C4009 C4005 1.393 . S
C4009 C4008 1.391 . S
C4010 H4000 0.950 . S
C4010 C4011 1.377 1_545 S
C4010 C4012 1.391 1_545 S
C4011 C4010 1.377 1_565 S
C4011 C4015 1.435 . S
C4012 H4001 0.950 1_565 S
C4012 C4010 1.391 1_565 S
C4012 C4013 1.400 . S
C4013 C4007 1.491 . S
C4013 C4012 1.400 . S
C4013 C4014 1.398 . S
C4014 H4002 0.950 . S
C4014 C4013 1.398 . S
C4014 C4015 1.391 . S
C4015 H4003 0.950 . S
C4015 C4011 1.435 . S
C4015 C4014 1.391 . S
H4016 C4024 0.950 . S
H4017 C4029 0.950 . S
H4018 C4026 0.950 . S
H4019 C4028 0.950 . S
H4020 C4030 0.938 1_655 S
H4021 C4032 0.950 . S
H4022 C4034 0.950 . S
H4023 C4035 0.950 . S
C4024 H4016 0.950 . S
C4024 C4025 1.386 . S
C4024 C4026 1.391 . S
C4025 C4024 1.386 . S
C4025 C4029 1.393 . S
C4026 H4018 0.950 . S
C4026 C4024 1.391 . S
C4026 C4027 1.400 . S
C4027 C4026 1.400 . S
C4027 C4028 1.398 . S
C4027 C4033 1.491 . S
C4028 H4019 0.950 . S
C4028 C4027 1.398 . S
C4028 C4029 1.391 . S
C4029 H4017 0.950 . S
C4029 C4025 1.393 . S
C4029 C4028 1.391 . S
C4030 H4020 0.938 1_455 S
C4030 C4031 1.404 1_455 S
C4030 C4032 1.386 . S
C4031 C4030 1.404 1_655 S
C4031 C4035 1.393 1_655 S
C4032 H4021 0.950 . S
C4032 C4030 1.386 . S
C4032 C4033 1.400 . S
C4033 C4027 1.491 . S
C4033 C4032 1.400 . S
C4033 C4034 1.398 . S
C4034 H4022 0.950 . S
C4034 C4033 1.398 . S
C4034 C4035 1.391 . S
C4035 H4023 0.950 . S
C4035 C4031 1.393 1_455 S
C4035 C4034 1.391 . S
H4036 C4044 0.950 . S
H4037 C4049 0.950 . S
H4038 C4046 0.950 . S
H4039 C4048 0.950 . S
H4040 C4050 0.950 . S
H4041 C4052 0.950 . S
H4042 C4054 0.950 . S
H4043 C4055 0.950 . S
C4044 H4036 0.950 . S
C4044 C4045 1.386 . S
C4044 C4046 1.391 . S
C4045 C4044 1.386 . S
C4045 C4049 1.393 . S
C4046 H4038 0.950 . S
C4046 C4044 1.391 . S
C4046 C4047 1.400 . S
C4047 C4046 1.400 . S
C4047 C4048 1.398 . S
C4047 C4053 1.491 . S
C4048 H4039 0.950 . S
C4048 C4047 1.398 . S
C4048 C4049 1.391 . S
C4049 H4037 0.950 . S
C4049 C4045 1.393 . S
C4049 C4048 1.391 . S
C4050 H4040 0.950 . S
C4050 C4051 1.386 . S
C4050 C4052 1.391 . S
C4051 C4050 1.386 . S
C4051 C4055 1.393 . S
C4052 H4041 0.950 . S
C4052 C4050 1.391 . S
C4052 C4053 1.400 . S
C4053 C4047 1.491 . S
C4053 C4052 1.400 . S
C4053 C4054 1.398 . S
C4054 H4042 0.950 . S
C4054 C4053 1.398 . S
C4054 C4055 1.391 . S
C4055 H4043 0.950 . S
C4055 C4051 1.393 . S
C4055 C4054 1.391 . S
H4056 C4064 0.950 . S
H4057 C4069 0.950 . S
H4058 C4066 0.950 . S
H4059 C4068 0.950 . S
H4060 C4070 0.950 . S
H4061 C4072 0.950 . S
H4062 C4074 0.950 . S
H4063 C4075 0.950 . S
C4064 H4056 0.950 . S
C4064 C4065 1.386 . S
C4064 C4066 1.391 . S
C4065 C4064 1.386 . S
C4065 C4069 1.393 . S
C4066 H4058 0.950 . S
C4066 C4064 1.391 . S
C4066 C4067 1.400 . S
C4067 C4066 1.400 . S
C4067 C4068 1.398 . S
C4067 C4073 1.491 . S
C4068 H4059 0.950 . S
C4068 C4067 1.398 . S
C4068 C4069 1.391 . S
C4069 H4057 0.950 . S
C4069 C4065 1.393 . S
C4069 C4068 1.391 . S
C4070 H4060 0.950 . S
C4070 C4071 1.386 . S
C4070 C4072 1.391 . S
C4071 C4070 1.386 . S
C4071 C4075 1.393 . S
C4072 H4061 0.950 . S
C4072 C4070 1.391 . S
C4072 C4073 1.400 . S
C4073 C4067 1.491 . S
C4073 C4072 1.400 . S
C4073 C4074 1.398 . S
C4074 H4062 0.950 . S
C4074 C4073 1.398 . S
C4074 C4075 1.391 . S
C4075 H4063 0.950 . S
C4075 C4071 1.393 . S
C4075 C4074 1.391 . S
H4076 C4084 0.950 . S
H4077 C4089 0.950 . S
H4078 C4086 0.950 . S
H4079 C4088 0.950 . S
H4080 C4090 0.950 . S
H4081 C4092 0.950 . S
H4082 C4094 0.950 . S
H4083 C4095 0.950 . S
C4084 H4076 0.950 . S
C4084 C4085 1.386 . S
C4084 C4086 1.391 . S
C4085 C4084 1.386 . S
C4085 C4089 1.393 . S
C4086 H4078 0.950 . S
C4086 C4084 1.391 . S
C4086 C4087 1.400 . S
C4087 C4086 1.400 . S
C4087 C4088 1.398 . S
C4087 C4093 1.491 . S
C4088 H4079 0.950 . S
C4088 C4087 1.398 . S
C4088 C4089 1.391 . S
C4089 H4077 0.950 . S
C4089 C4085 1.393 . S
C4089 C4088 1.391 . S
C4090 H4080 0.950 . S
C4090 C4091 1.386 . S
C4090 C4092 1.391 . S
C4091 C4090 1.386 . S
C4091 C4095 1.393 . S
C4092 H4081 0.950 . S
C4092 C4090 1.391 . S
C4092 C4093 1.400 . S
C4093 C4087 1.491 . S
C4093 C4092 1.400 . S
C4093 C4094 1.398 . S
C4094 H4082 0.950 . S
C4094 C4093 1.398 . S
C4094 C4095 1.391 . S
C4095 H4083 0.950 . S
C4095 C4091 1.393 . S
C4095 C4094 1.391 . S
H4096 C4104 0.950 . S
H4097 C4109 0.950 . S
H4098 C4106 0.950 . S
H4099 C4108 0.950 . S
H4100 C4110 0.950 . S
H4101 C4112 0.950 . S
H4102 C4114 0.950 . S
H4103 C4115 0.950 . S
C4104 H4096 0.950 . S
C4104 C4105 1.386 . S
C4104 C4106 1.391 . S
C4105 C4104 1.386 . S
C4105 C4109 1.393 . S
C4106 H4098 0.950 . S
C4106 C4104 1.391 . S
C4106 C4107 1.400 . S
C4107 C4106 1.400 . S
C4107 C4108 1.398 . S
C4107 C4113 1.491 . S
C4108 H4099 0.950 . S
C4108 C4107 1.398 . S
C4108 C4109 1.391 . S
C4109 H4097 0.950 . S
C4109 C4105 1.393 . S
C4109 C4108 1.391 . S
C4110 H4100 0.950 . S
C4110 C4111 1.386 . S
C4110 C4112 1.391 . S
C4111 C4110 1.386 . S
C4111 C4115 1.393 . S
C4112 H4101 0.950 . S
C4112 C4110 1.391 . S
C4112 C4113 1.400 . S
C4113 C4107 1.491 . S
C4113 C4112 1.400 . S
C4113 C4114 1.398 . S
C4114 H4102 0.950 . S
C4114 C4113 1.398 . S
C4114 C4115 1.391 . S
C4115 H4103 0.950 . S
C4115 C4111 1.393 . S
C4115 C4114 1.391 . S
H4116 C4124 0.950 . S
H4117 C4129 0.950 . S
H4118 C4126 0.950 . S
H4119 C4128 0.950 . S
H4120 C4130 0.950 . S
H4121 C4132 0.950 . S
H4122 C4134 0.950 . S
H4123 C4135 0.950 . S
C4124 H4116 0.950 . S
C4124 C4125 1.386 . S
C4124 C4126 1.391 . S
C4125 C4124 1.386 . S
C4125 C4129 1.393 . S
C4126 H4118 0.950 . S
C4126 C4124 1.391 . S
C4126 C4127 1.400 . S
C4127 C4126 1.400 . S
C4127 C4128 1.398 . S
C4127 C4133 1.491 . S
C4128 H4119 0.950 . S
C4128 C4127 1.398 . S
C4128 C4129 1.391 . S
C4129 H4117 0.950 . S
C4129 C4125 1.393 . S
C4129 C4128 1.391 . S
C4130 H4120 0.950 . S
C4130 C4131 1.386 . S
C4130 C4132 1.391 . S
C4131 C4130 1.386 . S
C4131 C4135 1.393 . S
C4132 H4121 0.950 . S
C4132 C4130 1.391 . S
C4132 C4133 1.400 . S
C4133 C4127 1.491 . S
C4133 C4132 1.400 . S
C4133 C4134 1.398 . S
C4134 H4122 0.950 . S
C4134 C4133 1.398 . S
C4134 C4135 1.391 . S
C4135 H4123 0.950 . S
C4135 C4131 1.393 . S
C4135 C4134 1.391 . S
H4136 C4144 0.950 . S
H4137 C4149 0.950 . S
H4138 C4146 1.002 . S
H4139 C4148 0.950 . S
H4140 C4150 0.950 . S
H4141 C4152 0.950 . S
H4142 C4154 0.950 1_455 S
H4143 C4155 0.960 . S
C4144 H4136 0.950 . S
C4144 C4145 1.386 . S
C4144 C4146 1.391 . S
C4145 C4144 1.386 . S
C4145 C4149 1.393 . S
C4146 H4138 1.002 . S
C4146 C4144 1.391 . S
C4146 C4147 1.400 . S
C4147 C4146 1.400 . S
C4147 C4148 1.398 . S
C4147 C4153 1.491 . S
C4148 H4139 0.950 . S
C4148 C4147 1.398 . S
C4148 C4149 1.391 . S
C4149 H4137 0.950 . S
C4149 C4145 1.393 . S
C4149 C4148 1.391 . S
C4150 H4140 0.950 . S
C4150 C4151 1.386 . S
C4150 C4152 1.391 . S
C4151 C4150 1.386 . S
C4151 C4155 1.378 1_655 S
C4152 H4141 0.950 . S
C4152 C4150 1.391 . S
C4152 C4153 1.400 . S
C4153 C4147 1.491 . S
C4153 C4152 1.400 . S
C4153 C4154 1.398 . S
C4154 H4142 0.950 1_655 S
C4154 C4153 1.398 . S
C4154 C4155 1.394 1_655 S
C4155 H4143 0.960 . S
C4155 C4151 1.378 1_455 S
C4155 C4154 1.394 1_455 S
H4156 C4164 0.950 . S
H4157 C4169 0.950 . S
H4158 C4166 0.950 . S
H4159 C4168 0.950 . S
H4160 C4170 0.950 . S
H4161 C4172 0.950 . S
H4162 C4174 0.950 . S
H4163 C4175 0.950 . S
C4164 H4156 0.950 . S
C4164 C4165 1.386 . S
C4164 C4166 1.391 . S
C4165 C4164 1.386 . S
C4165 C4169 1.393 . S
C4166 H4158 0.950 . S
C4166 C4164 1.391 . S
C4166 C4167 1.400 . S
C4167 C4166 1.400 . S
C4167 C4168 1.398 . S
C4167 C4173 1.491 . S
C4168 H4159 0.950 . S
C4168 C4167 1.398 . S
C4168 C4169 1.391 . S
C4169 H4157 0.950 . S
C4169 C4165 1.393 . S
C4169 C4168 1.391 . S
C4170 H4160 0.950 . S
C4170 C4171 1.386 . S
C4170 C4172 1.391 . S
C4171 C4170 1.386 . S
C4171 C4175 1.393 . S
C4172 H4161 0.950 . S
C4172 C4170 1.391 . S
C4172 C4173 1.400 . S
C4173 C4167 1.491 . S
C4173 C4172 1.400 . S
C4173 C4174 1.398 . S
C4174 H4162 0.950 . S
C4174 C4173 1.398 . S
C4174 C4175 1.391 . S
C4175 H4163 0.950 . S
C4175 C4171 1.393 . S
C4175 C4174 1.391 . S
H4176 C4184 0.950 . S
H4177 C4189 0.950 . S
H4178 C4186 0.950 . S
H4179 C4188 0.950 . S
H4180 C4190 0.950 . S
H4181 C4192 0.950 . S
H4182 C4194 0.950 . S
H4183 C4195 0.950 . S
C4184 H4176 0.950 . S
C4184 C4185 1.386 . S
C4184 C4186 1.391 . S
C4185 C4184 1.386 . S
C4185 C4189 1.393 . S
C4186 H4178 0.950 . S
C4186 C4184 1.391 . S
C4186 C4187 1.400 . S
C4187 C4186 1.400 . S
C4187 C4188 1.398 . S
C4187 C4193 1.491 . S
C4188 H4179 0.950 . S
C4188 C4187 1.398 . S
C4188 C4189 1.391 . S
C4189 H4177 0.950 . S
C4189 C4185 1.393 . S
C4189 C4188 1.391 . S
C4190 H4180 0.950 . S
C4190 C4191 1.386 . S
C4190 C4192 1.391 . S
C4191 C4190 1.386 . S
C4191 C4195 1.393 . S
C4192 H4181 0.950 . S
C4192 C4190 1.391 . S
C4192 C4193 1.400 . S
C4193 C4187 1.491 . S
C4193 C4192 1.400 . S
C4193 C4194 1.398 . S
C4194 H4182 0.950 . S
C4194 C4193 1.398 . S
C4194 C4195 1.391 . S
C4195 H4183 0.950 . S
C4195 C4191 1.393 . S
C4195 C4194 1.391 . S
H4196 C4204 0.950 . S
H4197 C4209 0.950 . S
H4198 C4206 0.950 . S
H4199 C4208 0.950 . S
H4200 C4210 0.950 . S
H4201 C4212 0.950 . S
H4202 C4214 0.950 . S
H4203 C4215 0.950 . S
C4204 H4196 0.950 . S
C4204 C4205 1.386 . S
C4204 C4206 1.391 . S
C4205 C4204 1.386 . S
C4205 C4209 1.393 . S
C4206 H4198 0.950 . S
C4206 C4204 1.391 . S
C4206 C4207 1.400 . S
C4207 C4206 1.400 . S
C4207 C4208 1.398 . S
C4207 C4213 1.491 . S
C4208 H4199 0.950 . S
C4208 C4207 1.398 . S
C4208 C4209 1.391 . S
C4209 H4197 0.950 . S
C4209 C4205 1.393 . S
C4209 C4208 1.391 . S
C4210 H4200 0.950 . S
C4210 C4211 1.386 . S
C4210 C4212 1.391 . S
C4211 C4210 1.386 . S
C4211 C4215 1.393 . S
C4212 H4201 0.950 . S
C4212 C4210 1.391 . S
C4212 C4213 1.400 . S
C4213 C4207 1.491 . S
C4213 C4212 1.400 . S
C4213 C4214 1.398 . S
C4214 H4202 0.950 . S
C4214 C4213 1.398 . S
C4214 C4215 1.391 . S
C4215 H4203 0.950 . S
C4215 C4211 1.393 . S
C4215 C4214 1.391 . S
H4216 C4224 0.950 . S
H4217 C4229 0.950 . S
H4218 C4226 0.950 . S
H4219 C4228 0.950 . S
H4220 C4230 0.950 . S
H4221 C4232 0.950 . S
H4222 C4234 0.950 . S
H4223 C4235 0.950 . S
C4224 H4216 0.950 . S
C4224 C4225 1.386 . S
C4224 C4226 1.391 . S
C4225 C4224 1.386 . S
C4225 C4229 1.393 . S
C4226 H4218 0.950 . S
C4226 C4224 1.391 . S
C4226 C4227 1.400 . S
C4227 C4226 1.400 . S
C4227 C4228 1.398 . S
C4227 C4233 1.491 . S
C4228 H4219 0.950 . S
C4228 C4227 1.398 . S
C4228 C4229 1.391 . S
C4229 H4217 0.950 . S
C4229 C4225 1.393 . S
C4229 C4228 1.391 . S
C4230 H4220 0.950 . S
C4230 C4231 1.386 . S
C4230 C4232 1.391 . S
C4231 C4230 1.386 . S
C4231 C4235 1.393 . S
C4232 H4221 0.950 . S
C4232 C4230 1.391 . S
C4232 C4233 1.400 . S
C4233 C4227 1.491 . S
C4233 C4232 1.400 . S
C4233 C4234 1.398 . S
C4234 H4222 0.950 . S
C4234 C4233 1.398 . S
C4234 C4235 1.391 . S
C4235 H4223 0.950 . S
C4235 C4231 1.393 . S
C4235 C4234 1.391 . S
H4236 C4244 0.950 . S
H4237 C4249 0.950 . S
H4238 C4246 0.950 . S
H4239 C4248 0.950 . S
H4240 C4250 0.950 . S
H4241 C4252 0.950 . S
H4242 C4254 0.950 . S
H4243 C4255 0.950 . S
C4244 H4236 0.950 . S
C4244 C4245 1.386 . S
C4244 C4246 1.391 . S
C4245 C4244 1.386 . S
C4245 C4249 1.393 . S
C4246 H4238 0.950 . S
C4246 C4244 1.391 . S
C4246 C4247 1.400 . S
C4247 C4246 1.400 . S
C4247 C4248 1.398 . S
C4247 C4253 1.491 . S
C4248 H4239 0.950 . S
C4248 C4247 1.398 . S
C4248 C4249 1.391 . S
C4249 H4237 0.950 . S
C4249 C4245 1.393 . S
C4249 C4248 1.391 . S
C4250 H4240 0.950 . S
C4250 C4251 1.386 . S
C4250 C4252 1.391 . S
C4251 C4250 1.386 . S
C4251 C4255 1.393 . S
C4252 H4241 0.950 . S
C4252 C4250 1.391 . S
C4252 C4253 1.400 . S
C4253 C4247 1.491 . S
C4253 C4252 1.400 . S
C4253 C4254 1.398 . S
C4254 H4242 0.950 . S
C4254 C4253 1.398 . S
C4254 C4255 1.391 . S
C4255 H4243 0.950 . S
C4255 C4251 1.393 . S
C4255 C4254 1.391 . S
H4256 C4264 0.950 . S
H4257 C4269 0.950 . S
H4258 C4266 0.950 . S
H4259 C4268 0.950 . S
H4260 C4270 0.950 . S
H4261 C4272 0.950 . S
H4262 C4274 0.950 . S
H4263 C4275 0.950 . S
C4264 H4256 0.950 . S
C4264 C4265 1.386 . S
C4264 C4266 1.391 . S
C4265 C4264 1.386 . S
C4265 C4269 1.393 . S
C4266 H4258 0.950 . S
C4266 C4264 1.391 . S
C4266 C4267 1.400 . S
C4267 C4266 1.400 . S
C4267 C4268 1.398 . S
C4267 C4273 1.491 . S
C4268 H4259 0.950 . S
C4268 C4267 1.398 . S
C4268 C4269 1.391 . S
C4269 H4257 0.950 . S
C4269 C4265 1.393 . S
C4269 C4268 1.391 . S
C4270 H4260 0.950 . S
C4270 C4271 1.386 . S
C4270 C4272 1.391 . S
C4271 C4270 1.386 . S
C4271 C4275 1.393 . S
C4272 H4261 0.950 . S
C4272 C4270 1.391 . S
C4272 C4273 1.400 . S
C4273 C4267 1.491 . S
C4273 C4272 1.400 . S
C4273 C4274 1.398 . S
C4274 H4262 0.950 . S
C4274 C4273 1.398 . S
C4274 C4275 1.391 . S
C4275 H4263 0.950 . S
C4275 C4271 1.393 . S
C4275 C4274 1.391 . S
H4276 C4284 0.950 . S
H4277 C4289 0.950 . S
H4278 C4286 0.950 . S
H4279 C4288 0.950 . S
H4280 C4290 0.950 . S
H4281 C4292 0.950 . S
H4282 C4294 0.950 . S
H4283 C4295 0.950 . S
C4284 H4276 0.950 . S
C4284 C4285 1.386 . S
C4284 C4286 1.391 . S
C4285 C4284 1.386 . S
C4285 C4289 1.393 . S
C4286 H4278 0.950 . S
C4286 C4284 1.391 . S
C4286 C4287 1.400 . S
C4287 C4286 1.400 . S
C4287 C4288 1.398 . S
C4287 C4293 1.491 . S
C4288 H4279 0.950 . S
C4288 C4287 1.398 . S
C4288 C4289 1.391 . S
C4289 H4277 0.950 . S
C4289 C4285 1.393 . S
C4289 C4288 1.391 . S
C4290 H4280 0.950 . S
C4290 C4291 1.386 . S
C4290 C4292 1.391 . S
C4291 C4290 1.386 . S
C4291 C4295 1.393 . S
C4292 H4281 0.950 . S
C4292 C4290 1.391 . S
C4292 C4293 1.400 . S
C4293 C4287 1.491 . S
C4293 C4292 1.400 . S
C4293 C4294 1.398 . S
C4294 H4282 0.950 . S
C4294 C4293 1.398 . S
C4294 C4295 1.391 . S
C4295 H4283 0.950 . S
C4295 C4291 1.393 . S
C4295 C4294 1.391 . S
H4296 C4304 0.950 . S
H4297 C4309 0.950 . S
H4298 C4306 0.950 . S
H4299 C4308 0.950 . S
H4300 C4310 0.950 . S
H4301 C4312 0.950 . S
H4302 C4314 0.950 . S
H4303 C4315 0.950 1_455 S
C4304 H4296 0.950 . S
C4304 C4305 1.386 . S
C4304 C4306 1.391 . S
C4305 C4304 1.386 . S
C4305 C4309 1.393 . S
C4306 H4298 0.950 . S
C4306 C4304 1.391 . S
C4306 C4307 1.400 . S
C4307 C4306 1.400 . S
C4307 C4308 1.398 . S
C4307 C4313 1.491 . S
C4308 H4299 0.950 . S
C4308 C4307 1.398 . S
C4308 C4309 1.391 . S
C4309 H4297 0.950 . S
C4309 C4305 1.393 . S
C4309 C4308 1.391 . S
C4310 H4300 0.950 . S
C4310 C4311 1.386 . S
C4310 C4312 1.391 . S
C4311 C4310 1.386 . S
C4311 C4315 1.393 . S
C4312 H4301 0.950 . S
C4312 C4310 1.391 . S
C4312 C4313 1.400 . S
C4313 C4307 1.491 . S
C4313 C4312 1.400 . S
C4313 C4314 1.398 . S
C4314 H4302 0.950 . S
C4314 C4313 1.398 . S
C4314 C4315 1.391 . S
C4315 H4303 0.950 1_655 S
C4315 C4311 1.393 . S
C4315 C4314 1.391 . S
H4316 C4324 0.950 . S
H4317 C4329 0.950 . S
H4318 C4326 0.950 . S
H4319 C4328 0.950 . S
H4320 C4330 0.950 . S
H4321 C4332 0.950 . S
H4322 C4334 0.950 . S
H4323 C4335 0.950 . S
C4324 H4316 0.950 . S
C4324 C4325 1.386 . S
C4324 C4326 1.391 . S
C4325 C4324 1.386 . S
C4325 C4329 1.393 . S
C4326 H4318 0.950 . S
C4326 C4324 1.391 . S
C4326 C4327 1.400 . S
C4327 C4326 1.400 . S
C4327 C4328 1.398 . S
C4327 C4333 1.491 . S
C4328 H4319 0.950 . S
C4328 C4327 1.398 . S
C4328 C4329 1.391 . S
C4329 H4317 0.950 . S
C4329 C4325 1.393 . S
C4329 C4328 1.391 . S
C4330 H4320 0.950 . S
C4330 C4331 1.386 . S
C4330 C4332 1.391 . S
C4331 C4330 1.386 . S
C4331 C4335 1.393 . S
C4332 H4321 0.950 . S
C4332 C4330 1.391 . S
C4332 C4333 1.400 . S
C4333 C4327 1.491 . S
C4333 C4332 1.400 . S
C4333 C4334 1.398 . S
C4334 H4322 0.950 . S
C4334 C4333 1.398 . S
C4334 C4335 1.391 . S
C4335 H4323 0.950 . S
C4335 C4331 1.393 . S
C4335 C4334 1.391 . S
H4336 C4344 0.950 . S
H4337 C4349 0.950 . S
H4338 C4346 0.950 . S
H4339 C4348 0.950 . S
H4340 C4350 0.950 . S
H4341 C4352 0.950 . S
H4342 C4354 0.950 . S
H4343 C4355 0.950 . S
C4344 H4336 0.950 . S
C4344 C4345 1.386 . S
C4344 C4346 1.391 . S
C4345 C4344 1.386 . S
C4345 C4349 1.393 . S
C4346 H4338 0.950 . S
C4346 C4344 1.391 . S
C4346 C4347 1.400 . S
C4347 C4346 1.400 . S
C4347 C4348 1.398 . S
C4347 C4353 1.491 . S
C4348 H4339 0.950 . S
C4348 C4347 1.398 . S
C4348 C4349 1.391 . S
C4349 H4337 0.950 . S
C4349 C4345 1.393 . S
C4349 C4348 1.391 . S
C4350 H4340 0.950 . S
C4350 C4351 1.386 . S
C4350 C4352 1.391 . S
C4351 C4350 1.386 . S
C4351 C4355 1.393 1_545 S
C4352 H4341 0.950 . S
C4352 C4350 1.391 . S
C4352 C4353 1.400 . S
C4353 C4347 1.491 . S
C4353 C4352 1.400 . S
C4353 C4354 1.398 . S
C4354 H4342 0.950 . S
C4354 C4353 1.398 . S
C4354 C4355 1.391 1_545 S
C4355 H4343 0.950 . S
C4355 C4351 1.393 1_565 S
C4355 C4354 1.391 1_565 S
C2925 C49 1.162 . S
C2931 C2313 1.117 . S
C2945 C137 1.613 . S
C2951 C2393 1.574 . S
C2971 C2461 1.368 . S
C2965 C205 1.373 . S
C2985 C196 1.797 . S
C2991 C2541 1.827 . S
C3005 C57 1.590 . S
C3011 C2615 1.615 . S
C3025 C145 1.620 . S
C3031 C2683 1.575 . S
C3045 C313 1.190 . S
C3051 C2609 1.159 . S
C3071 C2689 1.504 . S
C3065 C401 1.494 . S
C3091 C2535 1.410 1_565 S
C3085 C489 1.402 . S
C3105 C469 1.845 . S
C3111 C2467 1.900 1_545 S
C3131 C2319 1.650 . S
C3125 C293 1.611 . S
C3145 C381 1.490 . S
C3151 C2387 1.479 . S
C3165 C577 1.406 . S
C3171 C2757 1.314 . S
C3185 C645 1.631 . S
C3191 C2837 1.588 . S
C3211 C2905 1.461 . S
C3205 C733 1.526 . S
C3225 C724 1.903 . S
C3231 C1653 1.860 . S
C3245 C585 1.744 . S
C3251 C1727 1.716 . S
C3265 C636 1.656 . S
C3271 C1795 1.607 . S
C3285 C841 1.104 . S
C3291 C1721 1.067 . S
C3305 C937 1.549 . S
C3311 C1801 1.566 . S
C3331 C1647 1.448 . S
C3325 C1025 1.443 . S
C3351 C2911 1.905 . S
C3345 C988 1.893 . S
C3371 C2763 1.543 . S
C3365 C821 1.536 . S
C3391 C2831 1.491 . S
C3385 C900 1.498 . S
C3405 C1105 1.280 . S
C3411 C1869 1.198 . S
C3425 C1193 1.688 . S
C3431 C1949 1.636 . S
C3445 C1281 1.600 . S
C3451 C2017 1.520 . S
C3465 C1289 2.002 . S
C3471 C2097 1.955 . S
C3491 C2171 1.650 . S
C3485 C1113 1.685 . S
C3511 C2239 1.601 . S
C3505 C1201 1.666 . S
C3531 C2165 1.207 . S
C3525 C1369 1.240 . S
C3551 C2245 1.494 . S
C3545 C1457 1.487 . S
C3565 C1553 1.339 . S
C3571 C2091 1.341 . S
C3591 C2023 1.798 . S
C3585 C1516 1.791 . S
C3605 C1349 1.624 . S
C3611 C1875 1.639 . S
C3631 C1943 1.506 . S
C3625 C1437 1.510 . S
C3651 C1623 2.095 . S
C3645 C29 2.099 . S
C3665 C117 1.423 . S
C3671 C1697 1.414 . S
C3691 C1783 1.680 . S
C3685 C225 1.652 . S
C3711 C1857 1.234 . S
C3705 C233 1.214 1_556 S
C3731 C1919 1.662 . S
C3725 C20 1.664 . S
C3751 C2005 1.599 . S
C3745 C108 1.577 . S
C3765 C321 2.308 . S
C3771 C1993 2.220 . S
C3785 C409 1.688 . S
C3791 C1845 1.599 . S
C3805 C497 1.941 . S
C3811 C1931 1.926 . S
C3825 C460 1.548 . S
C3831 C1709 1.488 . S
C3851 C1771 1.848 . S
C3845 C284 1.934 . S
C3865 C372 1.853 . S
C3871 C1635 1.812 . S
C3891 C2067 1.924 . S
C3885 C557 1.947 . S
C3905 C665 1.552 . S
C3911 C2141 1.543 . S
C3925 C753 1.597 . S
C3931 C2227 1.598 . S
C3951 C2301 0.821 . S
C3945 C761 0.802 . S
C3965 C548 1.474 . S
C3971 C2363 1.472 . S
C3985 C673 1.283 . S
C3991 C2449 1.291 . S
C4005 C849 1.757 . S
C4011 C2437 1.679 1_565 S
C4025 C929 1.204 . S
C4031 C2289 1.168 . S
C4051 C2375 1.712 . S
C4045 C1017 1.744 . S
C4065 C997 1.489 . S
C4071 C2153 1.409 . S
C4085 C812 1.859 . S
C4091 C2215 1.767 . S
C4111 C2079 1.899 . S
C4105 C909 1.943 . S
C4131 C2511 1.656 . S
C4125 C1085 1.668 . S
C4145 C1173 1.056 . S
C4151 C2585 1.061 . S
C4165 C1261 1.454 . S
C4171 C2671 1.469 . S
C4191 C2745 1.133 . S
C4185 C1252 1.158 . S
C4211 C2807 1.617 . S
C4205 C1076 1.626 . S
C4225 C1164 1.680 . S
C4231 C2893 1.676 . S
C4245 C1377 2.183 . S
C4251 C2881 2.076 . S
C4265 C1465 1.800 . S
C4271 C2733 1.702 . S
C4291 C2819 1.827 . S
C4285 C1545 1.876 . S
C4311 C2597 0.944 . S
C4305 C1525 0.951 . S
C4331 C2659 1.637 . S
C4325 C1340 1.721 . S
C4345 C1428 1.397 . S
C4351 C2523 1.399 . S
