# Generated by pormake.
# Topology pyr, (3,6)-cn, num edge types: 1
# Building blocks:
#     Node 0, Type 0, BuildingBlock: KAKCAD_clean_linker_0, # of connection points: 3
#     Node 1, Type 0, BuildingBlock: KAKCAD_clean_linker_0, # of connection points: 3
#     Node 2, Type 0, BuildingBlock: KAKCAD_clean_linker_0, # of connection points: 3
#     Node 3, Type 0, BuildingBlock: KAKCAD_clean_linker_0, # of connection points: 3
#     Node 4, Type 0, BuildingBlock: KAKCAD_clean_linker_0, # of connection points: 3
#     Node 5, Type 0, BuildingBlock: KAKCAD_clean_linker_0, # of connection points: 3
#     Node 6, Type 0, BuildingBlock: KAKCAD_clean_linker_0, # of connection points: 3
#     Node 7, Type 0, BuildingBlock: KAKCAD_clean_linker_0, # of connection points: 3
#     Node 8, Type 1, BuildingBlock: MIFKUJ_clean_sbu_0, # of connection points: 6
#     Node 9, Type 1, BuildingBlock: MIFKUJ_clean_sbu_0, # of connection points: 6
#     Node 10, Type 1, BuildingBlock: MIFKUJ_clean_sbu_0, # of connection points: 6
#     Node 11, Type 1, BuildingBlock: MIFKUJ_clean_sbu_0, # of connection points: 6
#     Edge 12, Type (0, 1), BuildingBlock: MIFKUJ_clean_linker_0, # of connection points: 2
#     Edge 13, Type (0, 1), BuildingBlock: MIFKUJ_clean_linker_0, # of connection points: 2
#     Edge 14, Type (0, 1), BuildingBlock: MIFKUJ_clean_linker_0, # of connection points: 2
#     Edge 15, Type (0, 1), BuildingBlock: MIFKUJ_clean_linker_0, # of connection points: 2
#     Edge 16, Type (0, 1), BuildingBlock: MIFKUJ_clean_linker_0, # of connection points: 2
#     Edge 17, Type (0, 1), BuildingBlock: MIFKUJ_clean_linker_0, # of connection points: 2
#     Edge 18, Type (0, 1), BuildingBlock: MIFKUJ_clean_linker_0, # of connection points: 2
#     Edge 19, Type (0, 1), BuildingBlock: MIFKUJ_clean_linker_0, # of connection points: 2
#     Edge 20, Type (0, 1), BuildingBlock: MIFKUJ_clean_linker_0, # of connection points: 2
#     Edge 21, Type (0, 1), BuildingBlock: MIFKUJ_clean_linker_0, # of connection points: 2
#     Edge 22, Type (0, 1), BuildingBlock: MIFKUJ_clean_linker_0, # of connection points: 2
#     Edge 23, Type (0, 1), BuildingBlock: MIFKUJ_clean_linker_0, # of connection points: 2
#     Edge 24, Type (0, 1), BuildingBlock: MIFKUJ_clean_linker_0, # of connection points: 2
#     Edge 25, Type (0, 1), BuildingBlock: MIFKUJ_clean_linker_0, # of connection points: 2
#     Edge 26, Type (0, 1), BuildingBlock: MIFKUJ_clean_linker_0, # of connection points: 2
#     Edge 27, Type (0, 1), BuildingBlock: MIFKUJ_clean_linker_0, # of connection points: 2
#     Edge 28, Type (0, 1), BuildingBlock: MIFKUJ_clean_linker_0, # of connection points: 2
#     Edge 29, Type (0, 1), BuildingBlock: MIFKUJ_clean_linker_0, # of connection points: 2
#     Edge 30, Type (0, 1), BuildingBlock: MIFKUJ_clean_linker_0, # of connection points: 2
#     Edge 31, Type (0, 1), BuildingBlock: MIFKUJ_clean_linker_0, # of connection points: 2
#     Edge 32, Type (0, 1), BuildingBlock: MIFKUJ_clean_linker_0, # of connection points: 2
#     Edge 33, Type (0, 1), BuildingBlock: MIFKUJ_clean_linker_0, # of connection points: 2
#     Edge 34, Type (0, 1), BuildingBlock: MIFKUJ_clean_linker_0, # of connection points: 2
#     Edge 35, Type (0, 1), BuildingBlock: MIFKUJ_clean_linker_0, # of connection points: 2
# Relax obj value: 0.025
# Max RMSD: 0.077
# Mean RMSD: 0.046
data_MOF--net-pyr--node1-MIFKUJ_clean_sbu_0--node2-KAKCAD_clean_linker_0--edge1-MIFKUJ_clean_linker_0
_symmetry_space_group_name_H-M    P1
_symmetry_Int_Tables_number       1
_symmetry_cell_setting            triclinic
loop_
_symmetry_equiv_pos_as_xyz
'x, y, z'
_cell_length_a     59.702954
_cell_length_b     53.436821
_cell_length_c     58.294994
_cell_angle_alpha  87.122748
_cell_angle_beta   88.359023
_cell_angle_gamma 95.38667
loop_
_atom_site_label
_atom_site_type_symbol
_atom_site_fract_x
_atom_site_fract_y
_atom_site_fract_z
_atom_type_partial_charge
C0 C 0.15201 0.15457 0.26534 0.0
C1 C 0.16534 0.15075 0.28445 0.0
C2 C 0.16178 0.16448 0.24444 0.0
C3 C 0.18514 0.17082 0.2421 0.0
C4 C 0.19856 0.16684 0.26112 0.0
C5 C 0.18874 0.15691 0.28211 0.0
C6 C 0.19527 0.18132 0.21971 0.0
C7 C 0.18449 0.19922 0.20674 0.0
C8 C 0.19291 0.20803 0.18483 0.0
C9 C 0.2124 0.19891 0.17582 0.0
C10 C 0.22337 0.18094 0.18853 0.0
C11 C 0.21492 0.17249 0.21059 0.0
C12 C 0.24249 0.16942 0.17801 0.0
C13 C 0.24041 0.15934 0.15631 0.0
C14 C 0.2625 0.16755 0.18983 0.0
C15 C 0.28016 0.1558 0.18004 0.0
C16 C 0.27785 0.1453 0.15852 0.0
C17 C 0.18063 0.22592 0.17104 0.0
C18 C 0.15745 0.22071 0.16797 0.0
C19 C 0.19182 0.24836 0.16122 0.0
C20 C 0.17986 0.26561 0.14896 0.0
C21 C 0.15665 0.2604 0.14596 0.0
C22 C 0.1456 0.23771 0.1554 0.0
C23 C 0.25787 0.14724 0.14673 0.0
H24 H 0.13401 0.14946 0.2664 0.0
H25 H 0.15104 0.16678 0.22997 0.0
H26 H 0.21659 0.17171 0.25985 0.0
H27 H 0.19943 0.15433 0.29658 0.0
H28 H 0.16947 0.20639 0.21372 0.0
H29 H 0.22295 0.15805 0.22011 0.0
H30 H 0.21871 0.2053 0.15869 0.0
H31 H 0.22507 0.16034 0.14696 0.0
H32 H 0.26446 0.17521 0.20659 0.0
H33 H 0.29542 0.15446 0.18945 0.0
H34 H 0.14851 0.20342 0.17526 0.0
H35 H 0.20968 0.25278 0.16344 0.0
H36 H 0.25579 0.13944 0.13003 0.0
H37 H 0.12768 0.23336 0.15346 0.0
H38 H 0.18875 0.28295 0.14173 0.0
C39 C 0.34883 0.8772 0.76294 0.0
C40 C 0.37168 0.88636 0.7628 0.0
C41 C 0.3395 0.86691 0.74335 0.0
C42 C 0.35297 0.86515 0.72344 0.0
C43 C 0.37581 0.87433 0.72331 0.0
C44 C 0.38503 0.88503 0.74274 0.0
C45 C 0.34338 0.85332 0.70298 0.0
C46 C 0.32365 0.86118 0.69358 0.0
C47 C 0.31459 0.85018 0.67402 0.0
C48 C 0.32552 0.83091 0.66413 0.0
C49 C 0.34522 0.82263 0.67342 0.0
C50 C 0.35403 0.8341 0.69284 0.0
C51 C 0.35642 0.80188 0.66302 0.0
C52 C 0.34358 0.78139 0.6541 0.0
C53 C 0.38003 0.80229 0.66201 0.0
C54 C 0.39048 0.78265 0.65254 0.0
C55 C 0.37763 0.76219 0.64357 0.0
C56 C 0.29383 0.85884 0.66383 0.0
C57 C 0.27597 0.86529 0.67794 0.0
C58 C 0.29164 0.86061 0.63985 0.0
C59 C 0.27208 0.86838 0.63026 0.0
C60 C 0.25423 0.87488 0.64435 0.0
C61 C 0.25648 0.87329 0.66834 0.0
C62 C 0.35403 0.76193 0.64438 0.0
H63 H 0.33818 0.87809 0.77818 0.0
H64 H 0.32187 0.85985 0.7439 0.0
H65 H 0.38652 0.87328 0.70813 0.0
H66 H 0.40273 0.8918 0.74225 0.0
H67 H 0.31575 0.87638 0.70117 0.0
H68 H 0.3689 0.82764 0.70057 0.0
H69 H 0.31863 0.82228 0.64913 0.0
H70 H 0.32536 0.78016 0.65485 0.0
H71 H 0.39052 0.81788 0.6684 0.0
H72 H 0.40867 0.78342 0.65253 0.0
H73 H 0.27691 0.8639 0.69648 0.0
H74 H 0.30513 0.85618 0.62838 0.0
H75 H 0.34352 0.74676 0.63734 0.0
H76 H 0.24326 0.87845 0.67977 0.0
H77 H 0.2709 0.86901 0.61174 0.0
C78 C 0.7465 0.38722 0.82703 0.0
C79 C 0.76183 0.37048 0.83476 0.0
C80 C 0.72672 0.37827 0.81665 0.0
C81 C 0.72187 0.35239 0.81378 0.0
C82 C 0.73756 0.33578 0.82083 0.0
C83 C 0.75729 0.34471 0.83123 0.0
C84 C 0.70002 0.34256 0.8046 0.0
C85 C 0.69062 0.35509 0.78596 0.0
C86 C 0.66972 0.34589 0.77767 0.0
C87 C 0.65811 0.32412 0.78836 0.0
C88 C 0.66723 0.31149 0.80702 0.0
C89 C 0.68818 0.32076 0.81498 0.0
C90 C 0.65469 0.28896 0.81868 0.0
C91 C 0.63183 0.28907 0.82499 0.0
C92 C 0.66571 0.26748 0.82422 0.0
C93 C 0.65417 0.24662 0.83612 0.0
C94 C 0.6314 0.24688 0.84292 0.0
C95 C 0.65988 0.35891 0.75789 0.0
C96 C 0.65914 0.38514 0.75695 0.0
C97 C 0.65061 0.34501 0.74007 0.0
C98 C 0.64049 0.35701 0.72185 0.0
C99 C 0.63922 0.38318 0.72111 0.0
C100 C 0.64885 0.39716 0.73878 0.0
C101 C 0.62032 0.26829 0.83707 0.0
H102 H 0.74966 0.40723 0.8292 0.0
H103 H 0.71491 0.39153 0.81153 0.0
H104 H 0.73446 0.31577 0.81856 0.0
H105 H 0.76865 0.33128 0.83713 0.0
H106 H 0.69977 0.37171 0.77758 0.0
H107 H 0.69491 0.31141 0.82983 0.0
H108 H 0.64188 0.31704 0.78221 0.0
H109 H 0.62301 0.30552 0.82116 0.0
H110 H 0.68327 0.2668 0.81929 0.0
H111 H 0.66311 0.23027 0.83994 0.0
H112 H 0.666 0.39627 0.77059 0.0
H113 H 0.65127 0.32481 0.74017 0.0
H114 H 0.6029 0.2693 0.84233 0.0
H115 H 0.64797 0.4173 0.73887 0.0
H116 H 0.63373 0.34574 0.70827 0.0
C117 C 0.84943 0.62323 0.22876 0.0
C118 C 0.87282 0.62161 0.22727 0.0
C119 C 0.83955 0.63376 0.24763 0.0
C120 C 0.85278 0.64295 0.26554 0.0
C121 C 0.87617 0.64141 0.264 0.0
C122 C 0.88605 0.63092 0.24513 0.0
C123 C 0.84225 0.65386 0.28585 0.0
C124 C 0.82151 0.6429 0.29558 0.0
C125 C 0.81183 0.65265 0.31508 0.0
C126 C 0.82291 0.67376 0.3247 0.0
C127 C 0.8434 0.68529 0.31512 0.0
C128 C 0.85302 0.67512 0.29578 0.0
C129 C 0.85456 0.70794 0.32551 0.0
C130 C 0.84172 0.72701 0.33278 0.0
C131 C 0.87785 0.71029 0.32901 0.0
C132 C 0.88793 0.73088 0.34017 0.0
C133 C 0.87494 0.74957 0.34803 0.0
C134 C 0.7902 0.64088 0.32569 0.0
C135 C 0.77131 0.63576 0.31226 0.0
C136 C 0.78809 0.63561 0.34954 0.0
C137 C 0.76748 0.62578 0.35982 0.0
C138 C 0.74832 0.62126 0.34656 0.0
C139 C 0.75058 0.62621 0.32259 0.0
C140 C 0.85177 0.74754 0.34387 0.0
H141 H 0.83866 0.61605 0.21548 0.0
H142 H 0.82153 0.63487 0.24808 0.0
H143 H 0.88688 0.64801 0.27756 0.0
H144 H 0.90413 0.63029 0.24447 0.0
H145 H 0.81318 0.62628 0.28845 0.0
H146 H 0.86865 0.68418 0.28812 0.0
H147 H 0.81548 0.68126 0.33977 0.0
H148 H 0.82382 0.72605 0.32992 0.0
H149 H 0.88818 0.69583 0.32377 0.0
H150 H 0.90579 0.73175 0.34323 0.0
H151 H 0.77242 0.63986 0.29385 0.0
H152 H 0.80246 0.63906 0.36027 0.0
H153 H 0.84133 0.76187 0.3492 0.0
H154 H 0.73621 0.62332 0.31179 0.0
H155 H 0.76665 0.62164 0.37822 0.0
C156 C 0.8332 0.83347 0.71161 0.0
C157 C 0.83752 0.85962 0.70713 0.0
C158 C 0.82351 0.82379 0.73269 0.0
C159 C 0.81783 0.84003 0.74971 0.0
C160 C 0.82133 0.86616 0.7449 0.0
C161 C 0.83111 0.87584 0.72387 0.0
C162 C 0.8098 0.82994 0.77297 0.0
C163 C 0.82064 0.8108 0.78416 0.0
C164 C 0.81472 0.80284 0.80698 0.0
C165 C 0.79763 0.81393 0.81861 0.0
C166 C 0.78609 0.83261 0.80752 0.0
C167 C 0.79233 0.84045 0.78463 0.0
C168 C 0.76787 0.84419 0.81998 0.0
C169 C 0.75313 0.82963 0.83576 0.0
C170 C 0.76521 0.86995 0.81642 0.0
C171 C 0.7483 0.88086 0.82832 0.0
C172 C 0.73379 0.86639 0.84438 0.0
C173 C 0.82685 0.78335 0.81886 0.0
C174 C 0.82904 0.7603 0.80886 0.0
C175 C 0.83635 0.78773 0.84022 0.0
C176 C 0.84791 0.76937 0.85138 0.0
C177 C 0.84983 0.74618 0.84155 0.0
C178 C 0.84027 0.74177 0.82021 0.0
C179 C 0.73644 0.84061 0.84792 0.0
H180 H 0.83758 0.82047 0.69892 0.0
H181 H 0.82071 0.80356 0.73581 0.0
H182 H 0.81742 0.87916 0.75778 0.0
H183 H 0.83449 0.89606 0.72116 0.0
H184 H 0.83441 0.80285 0.77549 0.0
H185 H 0.7835 0.85465 0.77573 0.0
H186 H 0.79346 0.80803 0.8364 0.0
H187 H 0.7544 0.80966 0.83873 0.0
H188 H 0.77639 0.88188 0.80465 0.0
H189 H 0.74659 0.90066 0.82482 0.0
H190 H 0.8218 0.75651 0.79242 0.0
H191 H 0.83499 0.80544 0.84817 0.0
H192 H 0.72582 0.82889 0.86033 0.0
H193 H 0.84162 0.72406 0.81227 0.0
H194 H 0.85503 0.77311 0.86789 0.0
C195 C 0.64152 0.09601 0.26131 0.0
C196 C 0.63204 0.11133 0.24459 0.0
C197 C 0.65213 0.1066 0.28015 0.0
C198 C 0.6535 0.13274 0.28265 0.0
C199 C 0.64443 0.14805 0.26566 0.0
C200 C 0.63385 0.13749 0.24689 0.0
C201 C 0.66399 0.14415 0.30302 0.0
C202 C 0.68406 0.13614 0.31157 0.0
C203 C 0.69429 0.14756 0.33033 0.0
C204 C 0.68417 0.16711 0.34063 0.0
C205 C 0.66386 0.17507 0.33264 0.0
C206 C 0.65392 0.16339 0.31386 0.0
C207 C 0.65286 0.19538 0.34398 0.0
C208 C 0.65286 0.19695 0.368 0.0
C209 C 0.64198 0.21316 0.33089 0.0
C210 C 0.63113 0.23178 0.34153 0.0
C211 C 0.63103 0.2333 0.36555 0.0
C212 C 0.71554 0.1391 0.33928 0.0
C213 C 0.71782 0.11335 0.34346 0.0
C214 C 0.73351 0.15676 0.34415 0.0
C215 C 0.7533 0.14884 0.35311 0.0
C216 C 0.75546 0.12311 0.35764 0.0
C217 C 0.73752 0.10544 0.35267 0.0
C218 C 0.64217 0.21571 0.37863 0.0
H219 H 0.64025 0.07576 0.26015 0.0
H220 H 0.65878 0.09426 0.29303 0.0
H221 H 0.64562 0.1683 0.26679 0.0
H222 H 0.62717 0.1499 0.23408 0.0
H223 H 0.69211 0.1215 0.30322 0.0
H224 H 0.63797 0.16888 0.30794 0.0
H225 H 0.69213 0.17604 0.35498 0.0
H226 H 0.66082 0.18344 0.37869 0.0
H227 H 0.64188 0.2128 0.31233 0.0
H228 H 0.62252 0.24476 0.33088 0.0
H229 H 0.70419 0.09934 0.34 0.0
H230 H 0.73228 0.17672 0.34094 0.0
H231 H 0.64276 0.21648 0.39713 0.0
H232 H 0.73879 0.08548 0.3558 0.0
H233 H 0.76678 0.16289 0.35689 0.0
C234 C 0.252 0.6278 0.18244 0.0
C235 C 0.25074 0.62718 0.15841 0.0
C236 C 0.27218 0.6362 0.19245 0.0
C237 C 0.2914 0.64427 0.1786 0.0
C238 C 0.29019 0.64327 0.15462 0.0
C239 C 0.27011 0.63486 0.14465 0.0
C240 C 0.31262 0.65433 0.18888 0.0
C241 C 0.32097 0.64221 0.20832 0.0
C242 C 0.34167 0.6512 0.21716 0.0
C243 C 0.35385 0.67273 0.20667 0.0
C244 C 0.34553 0.68525 0.18745 0.0
C245 C 0.32489 0.67596 0.17876 0.0
C246 C 0.35828 0.70792 0.17618 0.0
C247 C 0.3679 0.72731 0.18924 0.0
C248 C 0.36025 0.71062 0.1521 0.0
C249 C 0.37106 0.7325 0.14127 0.0
C250 C 0.38013 0.75223 0.15425 0.0
C251 C 0.35091 0.63775 0.237 0.0
C252 C 0.33772 0.6317 0.25721 0.0
C253 C 0.37308 0.63102 0.23586 0.0
C254 C 0.38194 0.61851 0.25461 0.0
C255 C 0.36891 0.61285 0.27497 0.0
C256 C 0.34673 0.61955 0.27612 0.0
C257 C 0.37873 0.74929 0.17837 0.0
H258 H 0.23741 0.62176 0.19349 0.0
H259 H 0.2726 0.63687 0.21097 0.0
H260 H 0.30481 0.64905 0.14351 0.0
H261 H 0.26965 0.63486 0.12609 0.0
H262 H 0.3118 0.62526 0.21607 0.0
H263 H 0.31817 0.68585 0.1642 0.0
H264 H 0.36989 0.67963 0.21339 0.0
H265 H 0.36649 0.72581 0.20784 0.0
H266 H 0.35341 0.69578 0.14159 0.0
H267 H 0.37234 0.73395 0.12266 0.0
H268 H 0.3206 0.63678 0.25849 0.0
H269 H 0.3835 0.63532 0.22039 0.0
H270 H 0.38546 0.76423 0.18883 0.0
H271 H 0.33633 0.61527 0.29162 0.0
H272 H 0.39915 0.61368 0.25338 0.0
C273 C 0.14766 0.25312 0.66668 0.0
C274 C 0.12449 0.25237 0.66266 0.0
C275 C 0.15887 0.27373 0.67679 0.0
C276 C 0.14722 0.29413 0.68316 0.0
C277 C 0.12398 0.2932 0.6795 0.0
C278 C 0.11276 0.2726 0.66935 0.0
C279 C 0.1594 0.31661 0.69293 0.0
C280 C 0.1806 0.32639 0.68367 0.0
C281 C 0.19204 0.34798 0.69218 0.0
C282 C 0.18203 0.35991 0.71026 0.0
C283 C 0.16093 0.35028 0.72009 0.0
C284 C 0.14978 0.3286 0.71122 0.0
C285 C 0.1506 0.36269 0.73967 0.0
C286 C 0.16396 0.37265 0.75717 0.0
C287 C 0.12724 0.3645 0.74116 0.0
C288 C 0.11751 0.37576 0.75967 0.0
C289 C 0.13086 0.38569 0.77719 0.0
C290 C 0.21434 0.35812 0.68186 0.0
C291 C 0.23111 0.34193 0.67778 0.0
C292 C 0.21883 0.38386 0.67549 0.0
C293 C 0.2395 0.39312 0.66485 0.0
C294 C 0.25622 0.37689 0.66066 0.0
C295 C 0.25186 0.35123 0.66743 0.0
C296 C 0.15424 0.38403 0.77563 0.0
H297 H 0.15728 0.238 0.66158 0.0
H298 H 0.17672 0.27368 0.67959 0.0
H299 H 0.11451 0.30867 0.68402 0.0
H300 H 0.09487 0.27252 0.66675 0.0
H301 H 0.18798 0.31763 0.66927 0.0
H302 H 0.13379 0.32065 0.71891 0.0
H303 H 0.19074 0.37672 0.71667 0.0
H304 H 0.18196 0.37137 0.75681 0.0
H305 H 0.11641 0.35735 0.72791 0.0
H306 H 0.09943 0.37637 0.76037 0.0
H307 H 0.22818 0.32203 0.68264 0.0
H308 H 0.20618 0.39675 0.67828 0.0
H309 H 0.16514 0.39171 0.78859 0.0
H310 H 0.26435 0.33824 0.6643 0.0
H311 H 0.24244 0.41301 0.65999 0.0
Zn312 Zn 0.03099 0.99655 0.5183 0.0
Zn313 Zn 0.9824 0.00833 0.48422 0.0
C314 C 0.02743 0.04712 0.53553 0.0
O315 O 0.018 0.0521 0.51594 0.0
C316 C 0.9585 0.96125 0.47518 0.0
O317 O 0.94379 0.97017 0.48904 0.0
O318 O 0.05601 0.97594 0.52811 0.0
O319 O 0.00189 0.97444 0.52364 0.0
O320 O 0.97927 0.00435 0.51878 0.0
C321 C 0.05517 0.96484 0.54797 0.0
O322 O 0.03721 0.96581 0.56135 0.0
O323 O 0.03294 0.02503 0.54007 0.0
C324 C 0.95658 0.03816 0.45362 0.0
O325 O 0.97489 0.03909 0.44044 0.0
O326 O 0.95617 0.02671 0.47332 0.0
O327 O 0.01085 0.02629 0.46967 0.0
O328 O 0.04005 0.01137 0.48672 0.0
O329 O 0.97736 0.97402 0.47092 0.0
C330 C 0.98334 0.98332 0.52804 0.0
C331 C 0.03184 0.02413 0.47059 0.0
Zn332 Zn 0.52155 0.98896 0.99115 0.0
Zn333 Zn 0.4851 0.01628 0.01177 0.0
C334 C 0.4923 0.96164 0.9612 0.0
O335 O 0.49896 0.94274 0.97369 0.0
C336 C 0.50912 0.04134 0.04684 0.0
O337 O 0.49697 0.05919 0.03949 0.0
O338 O 0.5485 0.97222 0.98033 0.0
O339 O 0.53129 0.02594 0.9926 0.0
O340 O 0.49782 0.03588 0.98326 0.0
C341 C 0.56375 0.98446 0.96748 0.0
O342 O 0.56232 0.00843 0.96226 0.0
O343 O 0.49946 0.984 0.96563 0.0
C344 C 0.44277 0.02068 0.03569 0.0
O345 O 0.4433 0.99637 0.03988 0.0
O346 O 0.4583 0.03285 0.02319 0.0
O347 O 0.47517 0.97951 0.00994 0.0
O348 O 0.50855 0.97003 0.02007 0.0
O349 O 0.50759 0.02054 0.03706 0.0
C350 C 0.51904 0.04096 0.98253 0.0
C351 C 0.48732 0.96499 0.02076 0.0
Zn352 Zn 0.51168 0.47707 0.48417 0.0
Zn353 Zn 0.49044 0.51759 0.51676 0.0
C354 C 0.54041 0.50672 0.45223 0.0
O355 O 0.52703 0.49365 0.43878 0.0
C356 C 0.46451 0.48295 0.54939 0.0
O357 O 0.48048 0.49087 0.56307 0.0
O358 O 0.51998 0.44628 0.46819 0.0
O359 O 0.51275 0.4689 0.51819 0.0
O360 O 0.52061 0.50811 0.52726 0.0
C361 C 0.52002 0.4244 0.47783 0.0
O362 O 0.5131 0.42051 0.49942 0.0
O363 O 0.5368 0.50388 0.47388 0.0
C364 C 0.46318 0.55276 0.53615 0.0
O365 O 0.44739 0.53659 0.52881 0.0
O366 O 0.48372 0.54898 0.53277 0.0
O367 O 0.48648 0.52569 0.48314 0.0
O368 O 0.48283 0.48704 0.47108 0.0
O369 O 0.46576 0.49073 0.52835 0.0
C370 C 0.52256 0.4848 0.53093 0.0
C371 C 0.47896 0.51001 0.46888 0.0
Zn372 Zn 0.97426 0.50965 0.98033 0.0
Zn373 Zn 0.02751 0.49775 0.02294 0.0
C374 C 0.95189 0.4651 0.96003 0.0
O375 O 0.97225 0.46044 0.95348 0.0
C376 C 0.05039 0.53772 0.04756 0.0
O377 O 0.03072 0.53745 0.05829 0.0
O378 O 0.96724 0.54151 0.96317 0.0
O379 O 0.96997 0.51607 0.01392 0.0
O380 O 0.99863 0.50894 0.03586 0.0
C381 C 0.94662 0.54566 0.96417 0.0
O382 O 0.93225 0.52984 0.97639 0.0
O383 O 0.94937 0.48378 0.9722 0.0
C384 C 0.03234 0.44446 0.03277 0.0
O385 O 0.02431 0.44144 0.01224 0.0
O386 O 0.03409 0.46626 0.04067 0.0
O387 O 0.03172 0.49162 0.98928 0.0
O388 O 0.00323 0.49878 0.96703 0.0
O389 O 0.05264 0.52318 0.03121 0.0
C390 C 0.9789 0.51549 0.03343 0.0
C391 C 0.02297 0.49227 0.96966 0.0
H392 H 0.18045 0.11482 0.31382 0.0
H393 H 0.1611 0.0946 0.34844 0.0
H394 H 0.10651 0.1412 0.33899 0.0
H395 H 0.12611 0.16213 0.30494 0.0
H396 H 0.11556 0.13568 0.38355 0.0
H397 H 0.10342 0.08137 0.32046 0.0
H398 H 0.115 0.05631 0.28855 0.0
H399 H 0.1501 0.01056 0.33538 0.0
H400 H 0.13897 0.0356 0.36754 0.0
H401 H 0.02311 0.06202 0.43978 0.0
H402 H 0.04909 0.08441 0.41085 0.0
H403 H 0.10144 0.03874 0.43201 0.0
H404 H 0.07566 0.01632 0.46112 0.0
H405 H 0.09656 0.04321 0.38401 0.0
H406 H 0.10535 0.09563 0.44782 0.0
H407 H 0.09239 0.12021 0.47946 0.0
H408 H 0.06241 0.16919 0.43106 0.0
H409 H 0.0749 0.14465 0.39913 0.0
C410 C 0.16453 0.1211 0.31937 0.0
C411 C 0.15468 0.13988 0.30649 0.0
C412 C 0.15341 0.10938 0.33904 0.0
C413 C 0.13219 0.11611 0.34605 0.0
C414 C 0.12281 0.13562 0.33382 0.0
C415 C 0.13393 0.14738 0.31424 0.0
C416 C 0.11913 0.10206 0.36538 0.0
C417 C 0.11129 0.11549 0.38358 0.0
C418 C 0.11394 0.07564 0.36564 0.0
C419 C 0.12059 0.06053 0.34634 0.0
C420 C 0.11376 0.06609 0.32392 0.0
C421 C 0.12021 0.05188 0.30579 0.0
C422 C 0.13333 0.0319 0.30992 0.0
C423 C 0.13997 0.02607 0.3322 0.0
C424 C 0.13359 0.04026 0.35038 0.0
C425 C 0.04013 0.05669 0.43827 0.0
C426 C 0.04733 0.0374 0.45276 0.0
C427 C 0.05497 0.06959 0.42182 0.0
C428 C 0.07719 0.06332 0.41949 0.0
C429 C 0.08436 0.04386 0.43365 0.0
C430 C 0.06961 0.03114 0.45028 0.0
C431 C 0.09281 0.07688 0.40195 0.0
C432 C 0.10108 0.06336 0.38409 0.0
C433 C 0.09828 0.1032 0.40196 0.0
C434 C 0.09089 0.11815 0.42109 0.0
C435 C 0.09583 0.11152 0.44393 0.0
C436 C 0.0886 0.12546 0.46192 0.0
C437 C 0.07654 0.14621 0.45728 0.0
C438 C 0.07174 0.15309 0.43463 0.0
C439 C 0.07891 0.13919 0.41658 0.0
H440 H 0.07095 0.15699 0.47123 0.0
H441 H 0.13831 0.02091 0.29587 0.0
H442 H 0.39706 0.93112 0.76628 0.0
H443 H 0.41514 0.94729 0.80042 0.0
H444 H 0.38797 0.88043 0.84022 0.0
H445 H 0.36911 0.8648 0.80629 0.0
H446 H 0.38598 0.91825 0.86543 0.0
H447 H 0.44428 0.88973 0.81782 0.0
H448 H 0.4673 0.88726 0.78234 0.0
H449 H 0.48895 0.96612 0.78339 0.0
H450 H 0.4658 0.96912 0.81872 0.0
H451 H 0.46666 0.91815 0.95344 0.0
H452 H 0.44375 0.90898 0.92023 0.0
H453 H 0.46164 0.98439 0.89152 0.0
H454 H 0.48445 0.99386 0.92491 0.0
H455 H 0.46784 0.94541 0.86078 0.0
H456 H 0.41077 0.97128 0.91179 0.0
H457 H 0.38894 0.97075 0.94839 0.0
H458 H 0.36645 0.89276 0.9421 0.0
H459 H 0.38842 0.89271 0.90561 0.0
C460 C 0.39491 0.91998 0.78237 0.0
C461 C 0.38181 0.89667 0.78367 0.0
C462 C 0.40531 0.92916 0.80186 0.0
C463 C 0.40334 0.91487 0.82286 0.0
C464 C 0.38979 0.89183 0.82426 0.0
C465 C 0.37904 0.88288 0.80488 0.0
C466 C 0.41576 0.92359 0.84325 0.0
C467 C 0.40392 0.92395 0.8644 0.0
C468 C 0.43914 0.93147 0.84197 0.0
C469 C 0.45312 0.9297 0.82077 0.0
C470 C 0.45382 0.90658 0.81038 0.0
C471 C 0.46691 0.90508 0.79032 0.0
C472 C 0.47953 0.92653 0.78058 0.0
C473 C 0.47913 0.94952 0.79093 0.0
C474 C 0.46604 0.95113 0.81098 0.0
C475 C 0.4656 0.93286 0.94015 0.0
C476 C 0.4774 0.95671 0.94176 0.0
C477 C 0.45243 0.92761 0.92124 0.0
C478 C 0.45095 0.94604 0.90348 0.0
C479 C 0.46255 0.96995 0.90509 0.0
C480 C 0.47549 0.97534 0.92419 0.0
C481 C 0.43807 0.93985 0.88281 0.0
C482 C 0.44986 0.93991 0.86166 0.0
C483 C 0.41478 0.93191 0.8842 0.0
C484 C 0.4014 0.93195 0.90605 0.0
C485 C 0.40131 0.95396 0.9183 0.0
C486 C 0.38889 0.95378 0.93901 0.0
C487 C 0.37635 0.93173 0.94759 0.0
C488 C 0.37618 0.90983 0.93544 0.0
C489 C 0.3886 0.9099 0.91473 0.0
H490 H 0.36674 0.93162 0.96363 0.0
H491 H 0.48965 0.92533 0.76504 0.0
H492 H 0.6004 0.36582 0.70095 0.0
H493 H 0.58211 0.38529 0.66866 0.0
H494 H 0.63267 0.44861 0.66638 0.0
H495 H 0.65154 0.42893 0.69838 0.0
H496 H 0.58749 0.46176 0.66268 0.0
H497 H 0.6374 0.40739 0.62831 0.0
H498 H 0.65375 0.36716 0.62374 0.0
H499 H 0.58885 0.33168 0.60809 0.0
H500 H 0.57204 0.37162 0.6129 0.0
H501 H 0.55521 0.51146 0.55409 0.0
H502 H 0.57638 0.49621 0.58642 0.0
H503 H 0.53853 0.42336 0.58536 0.0
H504 H 0.51813 0.43816 0.55246 0.0
H505 H 0.57994 0.41682 0.59045 0.0
H506 H 0.52897 0.46853 0.62649 0.0
H507 H 0.5108 0.5074 0.63239 0.0
H508 H 0.57478 0.5463 0.64639 0.0
H509 H 0.59339 0.50773 0.64026 0.0
C510 C 0.60781 0.38376 0.69347 0.0
C511 C 0.62761 0.39566 0.7021 0.0
C512 C 0.59724 0.39493 0.67512 0.0
C513 C 0.60618 0.41824 0.66505 0.0
C514 C 0.62553 0.43059 0.67397 0.0
C515 C 0.63624 0.41934 0.69229 0.0
C516 C 0.59551 0.42929 0.64483 0.0
C517 C 0.5861 0.4522 0.64673 0.0
C518 C 0.5933 0.41642 0.6243 0.0
C519 C 0.60344 0.39245 0.62114 0.0
C520 C 0.62659 0.39097 0.62405 0.0
C521 C 0.63594 0.36822 0.62139 0.0
C522 C 0.62234 0.34687 0.61567 0.0
C523 C 0.59936 0.34823 0.61254 0.0
C524 C 0.58992 0.37092 0.6152 0.0
C525 C 0.55142 0.49221 0.56081 0.0
C526 C 0.53505 0.47598 0.55077 0.0
C527 C 0.56343 0.48355 0.57936 0.0
C528 C 0.55887 0.45871 0.58856 0.0
C529 C 0.54243 0.44257 0.57855 0.0
C530 C 0.53074 0.45106 0.55977 0.0
C531 C 0.57143 0.44921 0.6083 0.0
C532 C 0.58133 0.42655 0.60631 0.0
C533 C 0.57377 0.46216 0.62885 0.0
C534 C 0.5626 0.48532 0.63268 0.0
C535 C 0.53918 0.48542 0.63067 0.0
C536 C 0.5288 0.50739 0.63407 0.0
C537 C 0.54164 0.52932 0.6397 0.0
C538 C 0.56487 0.52931 0.642 0.0
C539 C 0.57534 0.5074 0.63857 0.0
H540 H 0.53357 0.54631 0.64232 0.0
H541 H 0.62961 0.32927 0.61363 0.0
H542 H 0.86251 0.62647 0.1817 0.0
H543 H 0.87974 0.60749 0.14909 0.0
H544 H 0.92442 0.57215 0.19467 0.0
H545 H 0.90712 0.59078 0.22742 0.0
H546 H 0.94686 0.59344 0.15656 0.0
H547 H 0.87938 0.53827 0.17314 0.0
H548 H 0.83854 0.52766 0.17972 0.0
H549 H 0.82659 0.55761 0.11191 0.0
H550 H 0.86736 0.56873 0.10504 0.0
H551 H 0.98918 0.51051 0.07886 0.0
H552 H 0.97059 0.52755 0.11167 0.0
H553 H 0.92285 0.55839 0.06661 0.0
H554 H 0.94101 0.54083 0.03376 0.0
H555 H 0.90184 0.5396 0.10449 0.0
H556 H 0.96894 0.59481 0.08753 0.0
H557 H 0.00963 0.60662 0.08088 0.0
H558 H 0.02227 0.57797 0.14894 0.0
H559 H 0.98169 0.5656 0.15587 0.0
C560 C 0.87583 0.61444 0.18487 0.0
C561 C 0.88335 0.61015 0.20727 0.0
C562 C 0.88571 0.60364 0.16616 0.0
C563 C 0.90326 0.58819 0.16942 0.0
C564 C 0.91095 0.58404 0.1917 0.0
C565 C 0.90107 0.59481 0.21042 0.0
C566 C 0.91376 0.57652 0.14961 0.0
C567 C 0.93707 0.58138 0.14535 0.0
C568 C 0.90092 0.56132 0.1346 0.0
C569 C 0.87641 0.55456 0.13866 0.0
C570 C 0.86803 0.54278 0.1597 0.0
C571 C 0.84489 0.53664 0.16347 0.0
C572 C 0.82997 0.54202 0.14626 0.0
C573 C 0.83817 0.55349 0.12523 0.0
C574 C 0.86129 0.55969 0.12138 0.0
C575 C 0.97467 0.52083 0.0759 0.0
C576 C 0.96671 0.52442 0.0536 0.0
C577 C 0.96411 0.5307 0.0947 0.0
C578 C 0.94556 0.54474 0.09162 0.0
C579 C 0.93718 0.54773 0.06947 0.0
C580 C 0.94761 0.53766 0.05067 0.0
C581 C 0.93501 0.55645 0.11141 0.0
C582 C 0.91168 0.55164 0.11567 0.0
C583 C 0.94782 0.57182 0.12636 0.0
C584 C 0.97227 0.57908 0.12214 0.0
C585 C 0.98041 0.59083 0.10101 0.0
C586 C 0.00345 0.59765 0.0972 0.0
C587 C 0.01852 0.59305 0.11448 0.0
C588 C 0.01058 0.58153 0.13557 0.0
C589 C 0.98756 0.57461 0.13945 0.0
H590 H 0.03633 0.59847 0.11156 0.0
H591 H 0.81206 0.53725 0.14921 0.0
H592 H 0.32211 0.16268 0.1517 0.0
H593 H 0.35165 0.14173 0.13219 0.0
H594 H 0.30412 0.07735 0.12316 0.0
H595 H 0.27451 0.09834 0.1423 0.0
H596 H 0.34904 0.06653 0.13887 0.0
H597 H 0.31243 0.11504 0.08031 0.0
H598 H 0.29946 0.15423 0.06355 0.0
H599 H 0.36728 0.18928 0.06105 0.0
H600 H 0.3806 0.15039 0.07814 0.0
H601 H 0.40239 0.00091 0.05492 0.0
H602 H 0.37526 0.02276 0.0766 0.0
H603 H 0.4181 0.09233 0.06586 0.0
H604 H 0.44475 0.07079 0.04326 0.0
H605 H 0.37722 0.10207 0.06199 0.0
H606 H 0.41551 0.05528 0.11746 0.0
H607 H 0.43049 0.01771 0.13511 0.0
H608 H 0.36336 0.98184 0.14607 0.0
H609 H 0.34796 0.01901 0.12801 0.0
C610 C 0.3181 0.14396 0.14575 0.0
C611 C 0.29609 0.13212 0.14832 0.0
C612 C 0.33491 0.13207 0.13462 0.0
C613 C 0.32996 0.10807 0.12624 0.0
C614 C 0.30821 0.09586 0.12957 0.0
C615 C 0.29133 0.10789 0.14034 0.0
C616 C 0.34709 0.0962 0.11286 0.0
C617 C 0.35513 0.0741 0.12198 0.0
C618 C 0.35545 0.10664 0.0912 0.0
C619 C 0.34746 0.12992 0.08074 0.0
C620 C 0.32454 0.13118 0.07638 0.0
C621 C 0.31714 0.15332 0.06678 0.0
C622 C 0.33253 0.17426 0.0613 0.0
C623 C 0.35537 0.17307 0.06534 0.0
C624 C 0.36286 0.15098 0.07497 0.0
C625 C 0.40591 0.02091 0.05703 0.0
C626 C 0.42568 0.03414 0.04745 0.0
C627 C 0.39049 0.03335 0.06957 0.0
C628 C 0.39487 0.0591 0.07333 0.0
C629 C 0.41437 0.07245 0.06327 0.0
C630 C 0.42958 0.06012 0.05034 0.0
C631 C 0.37918 0.07206 0.08781 0.0
C632 C 0.37137 0.09444 0.07894 0.0
C633 C 0.37142 0.06213 0.10994 0.0
C634 C 0.38058 0.03988 0.1212 0.0
C635 C 0.40393 0.03933 0.12351 0.0
C636 C 0.41251 0.0181 0.1336 0.0
C637 C 0.39789 0.9974 0.14171 0.0
C638 C 0.37467 0.9979 0.13977 0.0
C639 C 0.366 0.01905 0.12961 0.0
H640 H 0.40456 0.98098 0.14952 0.0
H641 H 0.32676 0.19138 0.05387 0.0
H642 H 0.21043 0.8647 0.66051 0.0
H643 H 0.17655 0.87898 0.64383 0.0
H644 H 0.21663 0.91715 0.58754 0.0
H645 H 0.25073 0.90431 0.60486 0.0
H646 H 0.18703 0.94598 0.60081 0.0
H647 H 0.18372 0.85948 0.58241 0.0
H648 H 0.18382 0.81368 0.59002 0.0
H649 H 0.12482 0.81285 0.63405 0.0
H650 H 0.12454 0.85872 0.62694 0.0
H651 H 0.09699 0.96555 0.5273 0.0
H652 H 0.13034 0.94876 0.54313 0.0
H653 H 0.09164 0.92069 0.60418 0.0
H654 H 0.05814 0.93739 0.58848 0.0
H655 H 0.12017 0.88647 0.58812 0.0
H656 H 0.12439 0.97419 0.60542 0.0
H657 H 0.12475 0.01975 0.59595 0.0
H658 H 0.18295 0.01752 0.55136 0.0
H659 H 0.18275 0.97188 0.5603 0.0
C660 C 0.21212 0.87639 0.64474 0.0
C661 C 0.23341 0.88326 0.63405 0.0
C662 C 0.19264 0.88426 0.63502 0.0
C663 C 0.19393 0.8988 0.61418 0.0
C664 C 0.21514 0.90583 0.60356 0.0
C665 C 0.23465 0.89821 0.61338 0.0
C666 C 0.17326 0.90715 0.60367 0.0
C667 C 0.17256 0.93286 0.59775 0.0
C668 C 0.15414 0.89018 0.60002 0.0
C669 C 0.15425 0.86258 0.60432 0.0
C670 C 0.17087 0.84956 0.59386 0.0
C671 C 0.17094 0.82358 0.59805 0.0
C672 C 0.15438 0.81037 0.61256 0.0
C673 C 0.13766 0.82311 0.62284 0.0
C674 C 0.13753 0.8491 0.61872 0.0
C675 C 0.09549 0.95562 0.54401 0.0
C676 C 0.07492 0.95294 0.55669 0.0
C677 C 0.1146 0.94612 0.55307 0.0
C678 C 0.11351 0.93375 0.57495 0.0
C679 C 0.09284 0.93024 0.58729 0.0
C680 C 0.07374 0.93986 0.57831 0.0
C681 C 0.13409 0.92517 0.58525 0.0
C682 C 0.13472 0.89948 0.59117 0.0
C683 C 0.15325 0.94209 0.58865 0.0
C684 C 0.15342 0.96957 0.58336 0.0
C685 C 0.13716 0.98338 0.59345 0.0
C686 C 0.13735 0.00922 0.5882 0.0
C687 C 0.15383 0.02149 0.57303 0.0
C688 C 0.17018 0.00797 0.56309 0.0
C689 C 0.17004 0.98213 0.56825 0.0
H690 H 0.15399 0.04148 0.569 0.0
H691 H 0.15446 0.79026 0.61578 0.0
H692 H 0.76459 0.40552 0.86738 0.0
H693 H 0.79737 0.41978 0.88899 0.0
H694 H 0.83729 0.37007 0.85298 0.0
H695 H 0.80458 0.3559 0.83099 0.0
H696 H 0.84369 0.36737 0.89933 0.0
H697 H 0.84399 0.4316 0.83914 0.0
H698 H 0.82809 0.46381 0.81442 0.0
H699 H 0.81473 0.50571 0.87344 0.0
H700 H 0.83026 0.47353 0.89858 0.0
H701 H 0.95077 0.42557 0.9318 0.0
H702 H 0.91824 0.40694 0.91194 0.0
H703 H 0.87552 0.45506 0.94638 0.0
H704 H 0.90785 0.47385 0.96622 0.0
H705 H 0.87131 0.45783 0.90001 0.0
H706 H 0.87099 0.39319 0.96024 0.0
H707 H 0.88716 0.36095 0.9847 0.0
H708 H 0.90114 0.31995 0.92527 0.0
H709 H 0.88533 0.35216 0.9004 0.0
C710 C 0.78041 0.39789 0.86377 0.0
C711 C 0.782 0.37968 0.84735 0.0
C712 C 0.7991 0.40597 0.87623 0.0
C713 C 0.81978 0.3961 0.87245 0.0
C714 C 0.82145 0.37786 0.85617 0.0
C715 C 0.80275 0.36977 0.84366 0.0
C716 C 0.83959 0.40482 0.88565 0.0
C717 C 0.84997 0.3871 0.89925 0.0
C718 C 0.84744 0.43061 0.88584 0.0
C719 C 0.83809 0.45001 0.87077 0.0
C720 C 0.83749 0.44756 0.84688 0.0
C721 C 0.82857 0.46584 0.83278 0.0
C722 C 0.82035 0.48676 0.84236 0.0
C723 C 0.82108 0.48947 0.86605 0.0
C724 C 0.82995 0.47123 0.88023 0.0
C725 C 0.93439 0.4319 0.93544 0.0
C726 C 0.93193 0.45131 0.95048 0.0
C727 C 0.91581 0.42119 0.92411 0.0
C728 C 0.8945 0.42967 0.92768 0.0
C729 C 0.89186 0.44834 0.94334 0.0
C730 C 0.91036 0.45898 0.95473 0.0
C731 C 0.87527 0.42045 0.91392 0.0
C732 C 0.86505 0.43809 0.90012 0.0
C733 C 0.86765 0.39461 0.91352 0.0
C734 C 0.8772 0.37524 0.92843 0.0
C735 C 0.87771 0.37743 0.95236 0.0
C736 C 0.88677 0.35913 0.9663 0.0
C737 C 0.89524 0.33845 0.95654 0.0
C738 C 0.89461 0.336 0.93281 0.0
C739 C 0.88558 0.35426 0.91878 0.0
H740 H 0.90223 0.3243 0.96736 0.0
H741 H 0.81347 0.5009 0.83142 0.0
H742 H 0.73084 0.63276 0.3885 0.0
H743 H 0.6951 0.61612 0.40732 0.0
H744 H 0.679 0.57247 0.3488 0.0
H745 H 0.71514 0.58814 0.33012 0.0
H746 H 0.64298 0.59958 0.36578 0.0
H747 H 0.69645 0.54325 0.39372 0.0
H748 H 0.73148 0.53343 0.41215 0.0
H749 H 0.71055 0.56709 0.47359 0.0
H750 H 0.67551 0.57743 0.4554 0.0
H751 H 0.55478 0.51144 0.40733 0.0
H752 H 0.58903 0.5344 0.39081 0.0
H753 H 0.60575 0.56112 0.45741 0.0
H754 H 0.5716 0.53733 0.47432 0.0
H755 H 0.64148 0.54618 0.43807 0.0
H756 H 0.58849 0.60159 0.41312 0.0
H757 H 0.5537 0.61435 0.39619 0.0
H758 H 0.57323 0.58654 0.33148 0.0
H759 H 0.60818 0.57355 0.34806 0.0
C760 C 0.71992 0.61935 0.37967 0.0
C761 C 0.72611 0.61169 0.35778 0.0
C762 C 0.69937 0.61002 0.39043 0.0
C763 C 0.68445 0.59299 0.3795 0.0
C764 C 0.69026 0.58569 0.35749 0.0
C765 C 0.71093 0.59478 0.3468 0.0
C766 C 0.66297 0.58242 0.39119 0.0
C767 C 0.6426 0.58768 0.38145 0.0
C768 C 0.66251 0.56774 0.41212 0.0
C769 C 0.68348 0.56134 0.42311 0.0
C770 C 0.6994 0.54874 0.41109 0.0
C771 C 0.71924 0.54305 0.42151 0.0
C772 C 0.72327 0.5497 0.444 0.0
C773 C 0.70742 0.56198 0.45616 0.0
C774 C 0.68757 0.56775 0.44581 0.0
C775 C 0.56558 0.52238 0.4185 0.0
C776 C 0.5604 0.52253 0.44218 0.0
C777 C 0.58517 0.53567 0.40896 0.0
C778 C 0.59991 0.54987 0.42274 0.0
C779 C 0.59465 0.55037 0.44638 0.0
C780 C 0.57508 0.53683 0.45602 0.0
C781 C 0.62129 0.56301 0.41253 0.0
C782 C 0.64171 0.55825 0.42251 0.0
C783 C 0.62178 0.57856 0.39205 0.0
C784 C 0.60086 0.58641 0.3819 0.0
C785 C 0.5853 0.59805 0.39532 0.0
C786 C 0.56557 0.60537 0.38577 0.0
C787 C 0.56118 0.60115 0.3628 0.0
C788 C 0.57662 0.58976 0.34928 0.0
C789 C 0.59644 0.58249 0.35872 0.0
H790 H 0.54585 0.60676 0.35547 0.0
H791 H 0.73864 0.54528 0.45204 0.0
H792 H 0.12765 0.25164 0.11136 0.0
H793 H 0.10506 0.28181 0.09188 0.0
H794 H 0.13363 0.34048 0.13345 0.0
H795 H 0.15642 0.31043 0.15282 0.0
H796 H 0.08523 0.33623 0.13124 0.0
H797 H 0.15167 0.3422 0.08165 0.0
H798 H 0.18067 0.32552 0.05734 0.0
H799 H 0.12974 0.29565 0.01296 0.0
H800 H 0.10038 0.31185 0.03724 0.0
H801 H 0.05372 0.446 0.0735 0.0
H802 H 0.07257 0.41272 0.09268 0.0
H803 H 0.0512 0.36201 0.04051 0.0
H804 H 0.03269 0.39555 0.02079 0.0
H805 H 0.09437 0.35994 0.04787 0.0
H806 H 0.02789 0.35524 0.09574 0.0
H807 H 0.99834 0.37102 0.11998 0.0
H808 H 0.04789 0.39697 0.16751 0.0
H809 H 0.0778 0.38166 0.14338 0.0
C810 C 0.12912 0.271 0.11625 0.0
C811 C 0.14376 0.27879 0.13352 0.0
C812 C 0.1163 0.28818 0.10511 0.0
C813 C 0.11774 0.3133 0.11126 0.0
C814 C 0.13232 0.32113 0.12851 0.0
C815 C 0.1454 0.30405 0.13942 0.0
C816 C 0.10381 0.33138 0.09986 0.0
C817 C 0.08733 0.34168 0.11307 0.0
C818 C 0.10618 0.33773 0.07604 0.0
C819 C 0.1238 0.32798 0.06142 0.0
C820 C 0.14663 0.33186 0.06685 0.0
C821 C 0.16314 0.32254 0.05304 0.0
C822 C 0.15705 0.30946 0.03366 0.0
C823 C 0.13443 0.30574 0.02801 0.0
C824 C 0.11785 0.315 0.04178 0.0
C825 C 0.05277 0.4277 0.06619 0.0
C826 C 0.04171 0.42344 0.04557 0.0
C827 C 0.06349 0.40863 0.07727 0.0
C828 C 0.06312 0.38478 0.06817 0.0
C829 C 0.05169 0.38028 0.04784 0.0
C830 C 0.04104 0.39943 0.03665 0.0
C831 C 0.07575 0.36508 0.07926 0.0
C832 C 0.09204 0.35442 0.06601 0.0
C833 C 0.07307 0.35825 0.10304 0.0
C834 C 0.05512 0.36748 0.11763 0.0
C835 C 0.03252 0.36448 0.11126 0.0
C836 C 0.01569 0.37332 0.12501 0.0
C837 C 0.02124 0.38504 0.14525 0.0
C838 C 0.04362 0.38791 0.15182 0.0
C839 C 0.06052 0.37912 0.13813 0.0
H840 H 0.00819 0.39186 0.15586 0.0
H841 H 0.16985 0.30227 0.02299 0.0
H842 H 0.58779 0.22652 0.83933 0.0
H843 H 0.56792 0.19174 0.86288 0.0
H844 H 0.62807 0.18301 0.90054 0.0
H845 H 0.6479 0.21815 0.87757 0.0
H846 H 0.60684 0.1375 0.88742 0.0
H847 H 0.58784 0.21179 0.92434 0.0
H848 H 0.57343 0.25344 0.92598 0.0
H849 H 0.50889 0.22245 0.90452 0.0
H850 H 0.52303 0.18066 0.90243 0.0
H851 H 0.56289 0.06053 0.98246 0.0
H852 H 0.58099 0.09579 0.95841 0.0
H853 H 0.51759 0.10666 0.92745 0.0
H854 H 0.49919 0.07171 0.95192 0.0
H855 H 0.5396 0.1507 0.93577 0.0
H856 H 0.55762 0.07615 0.90004 0.0
H857 H 0.57158 0.03427 0.89832 0.0
H858 H 0.63728 0.06511 0.91654 0.0
H859 H 0.62362 0.10712 0.91877 0.0
C860 C 0.59675 0.21736 0.85275 0.0
C861 C 0.61944 0.22519 0.85659 0.0
C862 C 0.5854 0.19743 0.8661 0.0
C863 C 0.59653 0.18495 0.88349 0.0
C864 C 0.61924 0.19237 0.88712 0.0
C865 C 0.63056 0.21239 0.87389 0.0
C866 C 0.58444 0.16432 0.89815 0.0
C867 C 0.59228 0.14039 0.89819 0.0
C868 C 0.56512 0.16807 0.91169 0.0
C869 C 0.55657 0.19316 0.91298 0.0
C870 C 0.57064 0.2139 0.91977 0.0
C871 C 0.56251 0.23753 0.92082 0.0
C872 C 0.54028 0.24061 0.91529 0.0
C873 C 0.52612 0.22005 0.90876 0.0
C874 C 0.53418 0.19639 0.90765 0.0
C875 C 0.55276 0.07048 0.97061 0.0
C876 C 0.52964 0.06322 0.96894 0.0
C877 C 0.56315 0.09057 0.95681 0.0
C878 C 0.55072 0.10351 0.94082 0.0
C879 C 0.5275 0.09682 0.93961 0.0
C880 C 0.51703 0.07685 0.95357 0.0
C881 C 0.56206 0.12382 0.9252 0.0
C882 C 0.55409 0.14771 0.92493 0.0
C883 C 0.58119 0.11998 0.91133 0.0
C884 C 0.58954 0.09477 0.90974 0.0
C885 C 0.57501 0.07398 0.90383 0.0
C886 C 0.58287 0.05022 0.90275 0.0
C887 C 0.6053 0.04703 0.90733 0.0
C888 C 0.61991 0.06761 0.91299 0.0
C889 C 0.61212 0.09141 0.91416 0.0
H890 H 0.61137 0.02864 0.90642 0.0
H891 H 0.53401 0.25891 0.91612 0.0
H892 H 0.85747 0.76984 0.38599 0.0
H893 H 0.87363 0.80531 0.40679 0.0
H894 H 0.93206 0.81278 0.36085 0.0
H895 H 0.91586 0.77725 0.33974 0.0
H896 H 0.94374 0.81751 0.40542 0.0
H897 H 0.89226 0.8532 0.35475 0.0
H898 H 0.85592 0.85672 0.33636 0.0
H899 H 0.82438 0.8667 0.40197 0.0
H900 H 0.86048 0.86288 0.4208 0.0
H901 H 0.98231 0.94054 0.44111 0.0
H902 H 0.97012 0.90395 0.41935 0.0
H903 H 0.9084 0.89251 0.46042 0.0
H904 H 0.92027 0.92918 0.48195 0.0
H905 H 0.89986 0.89068 0.41612 0.0
H906 H 0.95123 0.85364 0.46693 0.0
H907 H 0.98762 0.85008 0.48521 0.0
H908 H 0.01952 0.84299 0.4192 0.0
H909 H 0.98335 0.84684 0.40049 0.0
C910 C 0.87366 0.77914 0.38012 0.0
C911 C 0.88524 0.77083 0.361 0.0
C912 C 0.88292 0.7994 0.3921 0.0
C913 C 0.90392 0.81197 0.38519 0.0
C914 C 0.91582 0.80339 0.36647 0.0
C915 C 0.90655 0.78305 0.35445 0.0
C916 C 0.91322 0.83417 0.39749 0.0
C917 C 0.93431 0.8337 0.40748 0.0
C918 C 0.90077 0.85511 0.4005 0.0
C919 C 0.87904 0.85753 0.38921 0.0
C920 C 0.87754 0.85595 0.36528 0.0
C921 C 0.85699 0.85804 0.35477 0.0
C922 C 0.83785 0.86188 0.368 0.0
C923 C 0.83922 0.8637 0.39175 0.0
C924 C 0.85973 0.8616 0.40235 0.0
C925 C 0.96624 0.93007 0.44567 0.0
C926 C 0.95224 0.93785 0.46324 0.0
C927 C 0.95932 0.9091 0.43324 0.0
C928 C 0.93836 0.89537 0.43829 0.0
C929 C 0.92459 0.90283 0.45614 0.0
C930 C 0.93146 0.92379 0.46849 0.0
C931 C 0.93022 0.87388 0.42444 0.0
C932 C 0.90935 0.87454 0.41405 0.0
C933 C 0.9429 0.85317 0.42107 0.0
C934 C 0.96464 0.8508 0.43229 0.0
C935 C 0.96604 0.85153 0.4563 0.0
C936 C 0.98662 0.84942 0.46674 0.0
C937 C 0.00588 0.84639 0.45337 0.0
C938 C 0.00459 0.84538 0.42953 0.0
C939 C 0.98406 0.8475 0.419 0.0
H940 H 0.02179 0.84475 0.46149 0.0
H941 H 0.82195 0.86349 0.35983 0.0
H942 H 0.36298 0.7118 0.64603 0.0
H943 H 0.3804 0.67769 0.62863 0.0
H944 H 0.43563 0.73006 0.60223 0.0
H945 H 0.41745 0.76469 0.61818 0.0
H946 H 0.42471 0.69973 0.57082 0.0
H947 H 0.44031 0.68742 0.64986 0.0
H948 H 0.43237 0.68254 0.69167 0.0
H949 H 0.38836 0.61573 0.68259 0.0
H950 H 0.39579 0.6204 0.64068 0.0
H951 H 0.48918 0.59671 0.54295 0.0
H952 H 0.47772 0.63348 0.56234 0.0
H953 H 0.41172 0.59492 0.5767 0.0
H954 H 0.42283 0.55844 0.55707 0.0
H955 H 0.43254 0.61949 0.61518 0.0
H956 H 0.41607 0.63542 0.53487 0.0
H957 H 0.42617 0.64072 0.49349 0.0
H958 H 0.47549 0.70176 0.50635 0.0
H959 H 0.46589 0.69656 0.54789 0.0
C960 C 0.37868 0.71623 0.63628 0.0
C961 C 0.38873 0.74115 0.63354 0.0
C962 C 0.38885 0.69655 0.62663 0.0
C963 C 0.40961 0.70114 0.61447 0.0
C964 C 0.4197 0.72596 0.61166 0.0
C965 C 0.40937 0.74575 0.62103 0.0
C966 C 0.42034 0.68011 0.60414 0.0
C967 C 0.4268 0.6824 0.58069 0.0
C968 C 0.42297 0.65732 0.61687 0.0
C969 C 0.41848 0.65438 0.64209 0.0
C970 C 0.42881 0.67179 0.65676 0.0
C971 C 0.42442 0.66904 0.68048 0.0
C972 C 0.40984 0.64887 0.68977 0.0
C973 C 0.39965 0.63136 0.67536 0.0
C974 C 0.40396 0.63403 0.65162 0.0
C975 C 0.47227 0.59608 0.55031 0.0
C976 C 0.45686 0.57476 0.54841 0.0
C977 C 0.46575 0.61707 0.56133 0.0
C978 C 0.44387 0.61686 0.57089 0.0
C979 C 0.42868 0.59539 0.56945 0.0
C980 C 0.43503 0.57464 0.55813 0.0
C981 C 0.43647 0.63914 0.58199 0.0
C982 C 0.43067 0.63703 0.60553 0.0
C983 C 0.43479 0.66219 0.56947 0.0
C984 C 0.44046 0.6654 0.5445 0.0
C985 C 0.42922 0.64982 0.5289 0.0
C986 C 0.43482 0.65283 0.50541 0.0
C987 C 0.45152 0.67151 0.4973 0.0
C988 C 0.4626 0.68726 0.51266 0.0
C989 C 0.45707 0.6843 0.53617 0.0
H990 H 0.45583 0.67382 0.47911 0.0
H991 H 0.40646 0.64677 0.70814 0.0
H992 H 0.83016 0.90163 0.68039 0.0
H993 H 0.85333 0.92086 0.64777 0.0
H994 H 0.896 0.8601 0.65267 0.0
H995 H 0.87354 0.84135 0.68587 0.0
H996 H 0.92046 0.90399 0.64979 0.0
H997 H 0.85901 0.86577 0.60858 0.0
H998 H 0.81928 0.85625 0.59896 0.0
H999 H 0.81395 0.93465 0.5825 0.0
H1000 H 0.85359 0.94469 0.59233 0.0
H1001 H 0.98531 0.93635 0.54816 0.0
H1002 H 0.95859 0.91369 0.57607 0.0
H1003 H 0.91711 0.9756 0.57291 0.0
H1004 H 0.94356 0.99825 0.54452 0.0
H1005 H 0.89177 0.9307 0.57426 0.0
H1006 H 0.95279 0.96889 0.6166 0.0
H1007 H 0.99268 0.97838 0.62567 0.0
H1008 H 0.99866 0.89972 0.63997 0.0
H1009 H 0.95886 0.88973 0.63066 0.0
C1010 C 0.84446 0.89233 0.6745 0.0
C1011 C 0.85002 0.86997 0.68579 0.0
C1012 C 0.85755 0.90321 0.65569 0.0
C1013 C 0.87631 0.89181 0.64767 0.0
C1014 C 0.88157 0.86918 0.65855 0.0
C1015 C 0.86856 0.85836 0.6774 0.0
C1016 C 0.89128 0.90423 0.62887 0.0
C1017 C 0.91422 0.90945 0.63315 0.0
C1018 C 0.88305 0.91199 0.60738 0.0
C1019 C 0.85922 0.906 0.60141 0.0
C1020 C 0.84932 0.881 0.60309 0.0
C1021 C 0.82682 0.87551 0.59756 0.0
C1022 C 0.81408 0.89484 0.59018 0.0
C1023 C 0.82384 0.9197 0.58825 0.0
C1024 C 0.84632 0.9253 0.59377 0.0
C1025 C 0.97047 0.94515 0.55331 0.0
C1026 C 0.96669 0.96924 0.54431 0.0
C1027 C 0.95523 0.93217 0.56929 0.0
C1028 C 0.93606 0.94314 0.57683 0.0
C1029 C 0.93185 0.96684 0.56736 0.0
C1030 C 0.94703 0.97979 0.55123 0.0
C1031 C 0.92088 0.93026 0.5952 0.0
C1032 C 0.89795 0.92509 0.59088 0.0
C1033 C 0.92908 0.92253 0.6167 0.0
C1034 C 0.9529 0.92855 0.62273 0.0
C1035 C 0.96265 0.95361 0.62155 0.0
C1036 C 0.98524 0.95908 0.62674 0.0
C1037 C 0.99822 0.93966 0.63333 0.0
C1038 C 0.9886 0.91474 0.63483 0.0
C1039 C 0.96602 0.90916 0.62962 0.0
H1040 H 0.01571 0.94393 0.63731 0.0
H1041 H 0.79667 0.89055 0.5859 0.0
H1042 H 0.64393 0.07315 0.2182 0.0
H1043 H 0.62418 0.0558 0.1854 0.0
H1044 H 0.57345 0.10735 0.19361 0.0
H1045 H 0.59265 0.12419 0.22671 0.0
H1046 H 0.55456 0.0613 0.18538 0.0
H1047 H 0.61618 0.11861 0.15275 0.0
H1048 H 0.65605 0.1349 0.1466 0.0
H1049 H 0.67112 0.06425 0.12085 0.0
H1050 H 0.63136 0.04744 0.12714 0.0
H1051 H 0.50732 0.07781 0.07754 0.0
H1052 H 0.5295 0.08368 0.11169 0.0
H1053 H 0.56516 0.01972 0.09627 0.0
H1054 H 0.54264 0.01338 0.06199 0.0
H1055 H 0.59309 0.06497 0.10853 0.0
H1056 H 0.53054 0.00932 0.13721 0.0
H1057 H 0.49053 0.99355 0.14258 0.0
H1058 H 0.47708 0.06107 0.17525 0.0
H1059 H 0.51703 0.07742 0.1698 0.0
C1060 C 0.62843 0.08059 0.21316 0.0
C1061 C 0.61996 0.1002 0.22498 0.0
C1062 C 0.61726 0.07079 0.1943 0.0
C1063 C 0.59745 0.08046 0.18689 0.0
C1064 C 0.58873 0.09963 0.19898 0.0
C1065 C 0.59986 0.10942 0.21777 0.0
C1066 C 0.58587 0.0711 0.16631 0.0
C1067 C 0.56298 0.06222 0.16858 0.0
C1068 C 0.597 0.07157 0.14447 0.0
C1069 C 0.62087 0.08167 0.14068 0.0
C1070 C 0.62804 0.10648 0.14596 0.0
C1071 C 0.6506 0.11582 0.14241 0.0
C1072 C 0.66612 0.10059 0.13341 0.0
C1073 C 0.65909 0.07601 0.12787 0.0
C1074 C 0.63654 0.06657 0.13141 0.0
C1075 C 0.51991 0.06499 0.0813 0.0
C1076 C 0.52322 0.0451 0.06707 0.0
C1077 C 0.53251 0.06834 0.10089 0.0
C1078 C 0.54884 0.05204 0.10654 0.0
C1079 C 0.55258 0.03245 0.09217 0.0
C1080 C 0.53969 0.02883 0.07267 0.0
C1081 C 0.56176 0.05577 0.12762 0.0
C1082 C 0.58483 0.06364 0.12543 0.0
C1083 C 0.55082 0.05439 0.14954 0.0
C1084 C 0.52677 0.04468 0.15294 0.0
C1085 C 0.51902 0.02091 0.14536 0.0
C1086 C 0.49635 0.01185 0.14845 0.0
C1087 C 0.48125 0.02632 0.15921 0.0
C1088 C 0.4888 0.04989 0.16691 0.0
C1089 C 0.51147 0.05905 0.16386 0.0
H1090 H 0.46371 0.01923 0.16166 0.0
H1091 H 0.68359 0.10786 0.13067 0.0
H1092 H 0.39114 0.57049 0.27624 0.0
H1093 H 0.40869 0.55119 0.30943 0.0
H1094 H 0.38676 0.60857 0.35199 0.0
H1095 H 0.36896 0.62776 0.31894 0.0
H1096 H 0.43412 0.60008 0.35397 0.0
H1097 H 0.35999 0.55462 0.35927 0.0
H1098 H 0.32795 0.5285 0.34435 0.0
H1099 H 0.37067 0.46995 0.33191 0.0
H1100 H 0.40306 0.4959 0.34645 0.0
H1101 H 0.45961 0.55407 0.46382 0.0
H1102 H 0.43998 0.56965 0.4307 0.0
H1103 H 0.45053 0.50213 0.39587 0.0
H1104 H 0.46969 0.48605 0.42932 0.0
H1105 H 0.40964 0.5148 0.38858 0.0
H1106 H 0.48328 0.55747 0.38265 0.0
H1107 H 0.51688 0.58229 0.39585 0.0
H1108 H 0.47804 0.64467 0.40641 0.0
H1109 H 0.44405 0.62001 0.39367 0.0
C1110 C 0.39002 0.57888 0.29272 0.0
C1111 C 0.37871 0.60056 0.29511 0.0
C1112 C 0.39995 0.56782 0.31162 0.0
C1113 C 0.39894 0.57847 0.33309 0.0
C1114 C 0.38765 0.6001 0.33552 0.0
C1115 C 0.37742 0.61093 0.31672 0.0
C1116 C 0.4102 0.56746 0.3529 0.0
C1117 C 0.42863 0.58158 0.36178 0.0
C1118 C 0.40348 0.54296 0.36238 0.0
C1119 C 0.384 0.52732 0.35371 0.0
C1120 C 0.3626 0.53628 0.35315 0.0
C1121 C 0.34437 0.52148 0.34481 0.0
C1122 C 0.34728 0.49761 0.33712 0.0
C1123 C 0.36844 0.48846 0.33783 0.0
C1124 C 0.38674 0.5032 0.34614 0.0
C1125 C 0.45773 0.54249 0.44914 0.0
C1126 C 0.46635 0.51891 0.44911 0.0
C1127 C 0.44656 0.55146 0.43018 0.0
C1128 C 0.44416 0.53727 0.41062 0.0
C1129 C 0.45225 0.51343 0.41075 0.0
C1130 C 0.46322 0.50429 0.42985 0.0
C1131 C 0.43346 0.54756 0.38999 0.0
C1132 C 0.41521 0.5333 0.38084 0.0
C1133 C 0.44062 0.57178 0.37993 0.0
C1134 C 0.46106 0.5868 0.3874 0.0
C1135 C 0.48186 0.57642 0.38794 0.0
C1136 C 0.50099 0.59048 0.39532 0.0
C1137 C 0.4996 0.61505 0.40199 0.0
C1138 C 0.47908 0.62563 0.40125 0.0
C1139 C 0.45988 0.61162 0.39395 0.0
H1140 H 0.51441 0.62591 0.40772 0.0
H1141 H 0.33314 0.48618 0.33067 0.0
H1142 H 0.14228 0.38291 0.82257 0.0
H1143 H 0.12521 0.40234 0.8549 0.0
H1144 H 0.07804 0.43384 0.80961 0.0
H1145 H 0.09578 0.41557 0.77696 0.0
H1146 H 0.09234 0.46758 0.83824 0.0
H1147 H 0.06328 0.38078 0.8464 0.0
H1148 H 0.06515 0.33484 0.84967 0.0
H1149 H 0.10273 0.34229 0.91107 0.0
H1150 H 0.10134 0.38833 0.90799 0.0
H1151 H 0.01174 0.49441 0.92432 0.0
H1152 H 0.03119 0.47764 0.89183 0.0
H1153 H 0.08167 0.45296 0.93694 0.0
H1154 H 0.06234 0.46961 0.96957 0.0
H1155 H 0.0661 0.41611 0.90877 0.0
H1156 H 0.09403 0.50341 0.90056 0.0
H1157 H 0.09099 0.54913 0.89714 0.0
H1158 H 0.05397 0.5403 0.83553 0.0
H1159 H 0.05652 0.49444 0.83875 0.0
C1160 C 0.12847 0.39423 0.81936 0.0
C1161 C 0.12042 0.39754 0.79705 0.0
C1162 C 0.11851 0.4051 0.83798 0.0
C1163 C 0.10005 0.41926 0.83483 0.0
C1164 C 0.09217 0.4229 0.81255 0.0
C1165 C 0.10221 0.41218 0.7939 0.0
C1166 C 0.089 0.43034 0.85471 0.0
C1167 C 0.08635 0.45622 0.85353 0.0
C1168 C 0.08155 0.41572 0.87492 0.0
C1169 C 0.0824 0.38803 0.87683 0.0
C1170 C 0.07209 0.37264 0.8605 0.0
C1171 C 0.07304 0.34658 0.86233 0.0
C1172 C 0.0841 0.33566 0.88053 0.0
C1173 C 0.09419 0.35078 0.89696 0.0
C1174 C 0.09332 0.37685 0.89519 0.0
C1175 C 0.02708 0.4856 0.92735 0.0
C1176 C 0.03548 0.48347 0.94962 0.0
C1177 C 0.03821 0.47607 0.90871 0.0
C1178 C 0.05798 0.46416 0.9119 0.0
C1179 C 0.06646 0.46208 0.93406 0.0
C1180 C 0.05543 0.47175 0.95269 0.0
C1181 C 0.06945 0.45327 0.89225 0.0
C1182 C 0.07215 0.42743 0.89348 0.0
C1183 C 0.07678 0.46788 0.87204 0.0
C1184 C 0.07528 0.49546 0.87002 0.0
C1185 C 0.08508 0.51118 0.88638 0.0
C1186 C 0.08348 0.53713 0.88446 0.0
C1187 C 0.07225 0.54761 0.86616 0.0
C1188 C 0.06264 0.53216 0.84971 0.0
C1189 C 0.06418 0.50619 0.85156 0.0
H1190 H 0.07103 0.5677 0.86471 0.0
H1191 H 0.08481 0.31548 0.88192 0.0
H1192 H 0.69123 0.84577 0.85784 0.0
H1193 H 0.66286 0.86478 0.88022 0.0
H1194 H 0.70716 0.93324 0.88182 0.0
H1195 H 0.7363 0.91371 0.86101 0.0
H1196 H 0.68812 0.92406 0.92162 0.0
H1197 H 0.66085 0.92609 0.84519 0.0
H1198 H 0.64915 0.90898 0.80842 0.0
H1199 H 0.59686 0.85987 0.84381 0.0
H1200 H 0.60845 0.87645 0.88085 0.0
H1201 H 0.60343 0.00578 0.94784 0.0
H1202 H 0.63257 0.98454 0.92833 0.0
H1203 H 0.59414 0.91288 0.9434 0.0
H1204 H 0.565 0.93393 0.96317 0.0
H1205 H 0.60954 0.92312 0.89595 0.0
H1206 H 0.63753 0.92378 0.97269 0.0
H1207 H 0.64926 0.94369 0.00823 0.0
H1208 H 0.7005 0.99155 0.96999 0.0
H1209 H 0.68886 0.97216 0.93415 0.0
C1210 C 0.69513 0.86474 0.86321 0.0
C1211 C 0.71613 0.87817 0.8575 0.0
C1212 C 0.6787 0.87574 0.87574 0.0
C1213 C 0.68267 0.90063 0.88237 0.0
C1214 C 0.70363 0.91405 0.87681 0.0
C1215 C 0.7202 0.90293 0.86462 0.0
C1216 C 0.66514 0.91261 0.89537 0.0
C1217 C 0.67103 0.9241 0.91579 0.0
C1218 C 0.64268 0.91235 0.88806 0.0
C1219 C 0.63567 0.90233 0.86582 0.0
C1220 C 0.64697 0.9115 0.84515 0.0
C1221 C 0.64034 0.90192 0.82426 0.0
C1222 C 0.62231 0.8833 0.82378 0.0
C1223 C 0.61084 0.87427 0.8442 0.0
C1224 C 0.61742 0.88376 0.86515 0.0
C1225 C 0.60126 0.98549 0.94712 0.0
C1226 C 0.58196 0.9715 0.95702 0.0
C1227 C 0.61792 0.9734 0.93604 0.0
C1228 C 0.61545 0.94718 0.9345 0.0
C1229 C 0.59629 0.93314 0.94445 0.0
C1230 C 0.57976 0.94518 0.95583 0.0
C1231 C 0.63265 0.93452 0.92196 0.0
C1232 C 0.62667 0.92295 0.90167 0.0
C1233 C 0.65508 0.93509 0.92915 0.0
C1234 C 0.66218 0.94668 0.9507 0.0
C1235 C 0.65117 0.9387 0.97182 0.0
C1236 C 0.65783 0.94986 0.99203 0.0
C1237 C 0.67558 0.96892 0.99136 0.0
C1238 C 0.68674 0.97681 0.97048 0.0
C1239 C 0.68013 0.96572 0.95022 0.0
H1240 H 0.68071 0.97753 0.00703 0.0
H1241 H 0.6172 0.87592 0.80759 0.0
H1242 H 0.79914 0.13885 0.34482 0.0
H1243 H 0.8334 0.12523 0.36172 0.0
H1244 H 0.79306 0.07508 0.41016 0.0
H1245 H 0.75873 0.08867 0.39338 0.0
H1246 H 0.82851 0.10385 0.43033 0.0
H1247 H 0.81696 0.05092 0.36641 0.0
H1248 H 0.81083 0.04224 0.3258 0.0
H1249 H 0.87345 0.08512 0.30601 0.0
H1250 H 0.8798 0.09436 0.34649 0.0
H1251 H 0.9135 0.03046 0.47168 0.0
H1252 H 0.87963 0.04597 0.4559 0.0
H1253 H 0.91969 0.0859 0.40045 0.0
H1254 H 0.95352 0.06975 0.41574 0.0
H1255 H 0.8842 0.06305 0.38377 0.0
H1256 H 0.89659 0.11629 0.44661 0.0
H1257 H 0.90317 0.12662 0.48677 0.0
H1258 H 0.84005 0.08578 0.50821 0.0
H1259 H 0.83323 0.07492 0.46821 0.0
C1260 C 0.79759 0.12499 0.35913 0.0
C1261 C 0.77626 0.11477 0.36774 0.0
C1262 C 0.81715 0.11715 0.36868 0.0
C1263 C 0.81575 0.09905 0.38711 0.0
C1264 C 0.7945 0.08904 0.39593 0.0
C1265 C 0.77492 0.09668 0.38622 0.0
C1266 C 0.83648 0.09051 0.39713 0.0
C1267 C 0.84059 0.09465 0.42027 0.0
C1268 C 0.85249 0.07916 0.38379 0.0
C1269 C 0.84874 0.07355 0.35945 0.0
C1270 C 0.82933 0.05868 0.35338 0.0
C1271 C 0.82583 0.05362 0.33039 0.0
C1272 C 0.84171 0.06318 0.31333 0.0
C1273 C 0.86115 0.07776 0.31923 0.0
C1274 C 0.86472 0.0829 0.3422 0.0
C1275 C 0.91513 0.04272 0.45623 0.0
C1276 C 0.93623 0.0489 0.44499 0.0
C1277 C 0.89574 0.05168 0.44726 0.0
C1278 C 0.89707 0.06739 0.4271 0.0
C1279 C 0.91818 0.0738 0.41601 0.0
C1280 C 0.93754 0.06461 0.42481 0.0
C1281 C 0.87641 0.07641 0.4171 0.0
C1282 C 0.87224 0.07233 0.39391 0.0
C1283 C 0.86047 0.08807 0.43036 0.0
C1284 C 0.8645 0.09459 0.45444 0.0
C1285 C 0.88419 0.10935 0.45992 0.0
C1286 C 0.88795 0.11533 0.48265 0.0
C1287 C 0.87207 0.1068 0.50004 0.0
C1288 C 0.85236 0.09234 0.49472 0.0
C1289 C 0.84852 0.08629 0.47202 0.0
H1290 H 0.87501 0.11146 0.51763 0.0
H1291 H 0.83897 0.05924 0.29554 0.0
H1292 H 0.20844 0.63923 0.16989 0.0
H1293 H 0.17338 0.62734 0.15071 0.0
H1294 H 0.20956 0.58539 0.10301 0.0
H1295 H 0.24459 0.597 0.12219 0.0
H1296 H 0.18143 0.61512 0.08118 0.0
H1297 H 0.17739 0.55541 0.14639 0.0
H1298 H 0.1776 0.54237 0.18756 0.0
H1299 H 0.12045 0.58332 0.20075 0.0
H1300 H 0.1201 0.59689 0.15968 0.0
H1301 H 0.09453 0.53628 0.03433 0.0
H1302 H 0.12751 0.55589 0.05253 0.0
H1303 H 0.08446 0.59149 0.09909 0.0
H1304 H 0.05132 0.57141 0.08125 0.0
H1305 H 0.11486 0.56878 0.12199 0.0
H1306 H 0.11694 0.62589 0.0562 0.0
H1307 H 0.11658 0.63873 0.015 0.0
H1308 H 0.17704 0.60314 0.00272 0.0
H1309 H 0.1776 0.58978 0.0438 0.0
C1310 C 0.20886 0.62719 0.15552 0.0
C1311 C 0.22928 0.61905 0.14755 0.0
C1312 C 0.18885 0.62051 0.14452 0.0
C1313 C 0.18889 0.60544 0.12548 0.0
C1314 C 0.2092 0.59717 0.11759 0.0
C1315 C 0.22919 0.60384 0.12855 0.0
C1316 C 0.16782 0.59836 0.1136 0.0
C1317 C 0.16692 0.60479 0.09002 0.0
C1318 C 0.1487 0.58558 0.12533 0.0
C1319 C 0.14888 0.5774 0.15002 0.0
C1320 C 0.16499 0.56181 0.15811 0.0
C1321 C 0.16511 0.55429 0.18142 0.0
C1322 C 0.14909 0.56207 0.19678 0.0
C1323 C 0.13288 0.57734 0.18884 0.0
C1324 C 0.1327 0.58494 0.16555 0.0
C1325 C 0.09206 0.5486 0.0482 0.0
C1326 C 0.0703 0.55221 0.05644 0.0
C1327 C 0.11096 0.5599 0.05853 0.0
C1328 C 0.10848 0.5753 0.07708 0.0
C1329 C 0.08677 0.57965 0.08482 0.0
C1330 C 0.06785 0.56823 0.07457 0.0
C1331 C 0.12849 0.58527 0.08943 0.0
C1332 C 0.12923 0.57937 0.11313 0.0
C1333 C 0.14744 0.59858 0.0778 0.0
C1334 C 0.14721 0.60667 0.05307 0.0
C1335 C 0.13007 0.62064 0.04469 0.0
C1336 C 0.12985 0.62804 0.02136 0.0
C1337 C 0.14675 0.62171 0.00624 0.0
C1338 C 0.16395 0.60801 0.01444 0.0
C1339 C 0.16425 0.60055 0.03776 0.0
H1340 H 0.14654 0.62745 0.98819 0.0
H1341 H 0.14921 0.55622 0.21482 0.0
H1342 H 0.29867 0.36731 0.67278 0.0
H1343 H 0.33452 0.38309 0.65327 0.0
H1344 H 0.2989 0.4239 0.60259 0.0
H1345 H 0.26299 0.40819 0.62202 0.0
H1346 H 0.33306 0.39649 0.58374 0.0
H1347 H 0.32351 0.4554 0.64273 0.0
H1348 H 0.31717 0.46743 0.68252 0.0
H1349 H 0.37677 0.43425 0.70296 0.0
H1350 H 0.38329 0.42171 0.66333 0.0
H1351 H 0.42258 0.47842 0.5315 0.0
H1352 H 0.38787 0.45803 0.54985 0.0
H1353 H 0.42527 0.43294 0.60756 0.0
H1354 H 0.45989 0.45437 0.58968 0.0
H1355 H 0.39032 0.45048 0.62332 0.0
H1356 H 0.40142 0.3921 0.56574 0.0
H1357 H 0.40839 0.37799 0.52676 0.0
H1358 H 0.34732 0.40661 0.5045 0.0
H1359 H 0.34013 0.42121 0.54328 0.0
C1360 C 0.29849 0.37957 0.65743 0.0
C1361 C 0.27802 0.38658 0.64897 0.0
C1362 C 0.31897 0.38865 0.64636 0.0
C1363 C 0.31937 0.40474 0.62653 0.0
C1364 C 0.29896 0.41151 0.61787 0.0
C1365 C 0.27849 0.40268 0.62908 0.0
C1366 C 0.34109 0.41474 0.61493 0.0
C1367 C 0.34553 0.40852 0.59225 0.0
C1368 C 0.35761 0.42975 0.62633 0.0
C1369 C 0.35375 0.43738 0.65012 0.0
C1370 C 0.33516 0.45048 0.65575 0.0
C1371 C 0.33155 0.45743 0.67827 0.0
C1372 C 0.34652 0.45154 0.69527 0.0
C1373 C 0.36517 0.43876 0.68978 0.0
C1374 C 0.36884 0.43175 0.66729 0.0
C1375 C 0.42346 0.46823 0.54794 0.0
C1376 C 0.44399 0.46796 0.55913 0.0
C1377 C 0.40357 0.45647 0.55842 0.0
C1378 C 0.40384 0.44361 0.58006 0.0
C1379 C 0.4245 0.44276 0.59092 0.0
C1380 C 0.44433 0.45492 0.58064 0.0
C1381 C 0.3825 0.4323 0.59192 0.0
C1382 C 0.37804 0.43831 0.61471 0.0
C1383 C 0.36612 0.41675 0.58071 0.0
C1384 C 0.37035 0.40795 0.55737 0.0
C1385 C 0.38956 0.39555 0.55249 0.0
C1386 C 0.39354 0.38744 0.53044 0.0
C1387 C 0.37833 0.39145 0.51315 0.0
C1388 C 0.35909 0.40354 0.5179 0.0
C1389 C 0.35504 0.41171 0.53992 0.0
H1390 H 0.38144 0.38516 0.49609 0.0
H1391 H 0.3437 0.45694 0.71269 0.0
H1392 H 0.89165 0.7507 0.85946 0.0
H1393 H 0.91043 0.7179 0.88031 0.0
H1394 H 0.85255 0.66476 0.87236 0.0
H1395 H 0.83389 0.69732 0.85121 0.0
H1396 H 0.86972 0.66858 0.91902 0.0
H1397 H 0.89423 0.65837 0.84021 0.0
H1398 H 0.91201 0.67342 0.80272 0.0
H1399 H 0.974 0.69446 0.83544 0.0
H1400 H 0.95646 0.67986 0.87319 0.0
H1401 H 0.90372 0.55134 0.9523 0.0
H1402 H 0.8897 0.58705 0.93163 0.0
H1403 H 0.95677 0.62532 0.92705 0.0
H1404 H 0.97114 0.58888 0.947 0.0
H1405 H 0.93739 0.63254 0.8883 0.0
H1406 H 0.91552 0.64147 0.96624 0.0
H1407 H 0.89901 0.62849 0.00474 0.0
H1408 H 0.83404 0.61331 0.97595 0.0
H1409 H 0.85022 0.62586 0.93721 0.0
C1410 C 0.88301 0.73198 0.86216 0.0
C1411 C 0.86138 0.72643 0.85375 0.0
C1412 C 0.89374 0.71332 0.87396 0.0
C1413 C 0.88283 0.689 0.87778 0.0
C1414 C 0.86119 0.68347 0.86952 0.0
C1415 C 0.85063 0.70197 0.85739 0.0
C1416 C 0.89377 0.66932 0.89076 0.0
C1417 C 0.88439 0.66048 0.91228 0.0
C1418 C 0.9134 0.65962 0.88224 0.0
C1419 C 0.92395 0.66831 0.85955 0.0
C1420 C 0.91158 0.66644 0.83944 0.0
C1421 C 0.92163 0.67483 0.81814 0.0
C1422 C 0.9441 0.68497 0.81671 0.0
C1423 C 0.95658 0.68666 0.83658 0.0
C1424 C 0.9466 0.67831 0.85793 0.0
C1425 C 0.91551 0.56736 0.94694 0.0
C1426 C 0.9385 0.56743 0.95145 0.0
C1427 C 0.90744 0.58785 0.93522 0.0
C1428 C 0.92206 0.60918 0.92827 0.0
C1429 C 0.94514 0.60914 0.93238 0.0
C1430 C 0.95333 0.58837 0.9438 0.0
C1431 C 0.91309 0.63126 0.91654 0.0
C1432 C 0.92285 0.64069 0.89525 0.0
C1433 C 0.894 0.64187 0.92548 0.0
C1434 C 0.88414 0.63444 0.94879 0.0
C1435 C 0.89774 0.63521 0.96809 0.0
C1436 C 0.88844 0.62795 0.98997 0.0
C1437 C 0.8655 0.62004 0.99279 0.0
C1438 C 0.85181 0.61943 0.97374 0.0
C1439 C 0.86103 0.62665 0.95182 0.0
H1440 H 0.85833 0.61442 0.00973 0.0
H1441 H 0.95185 0.69145 0.8002 0.0
H1442 H 0.36486 0.77792 0.11721 0.0
H1443 H 0.38337 0.8151 0.09603 0.0
H1444 H 0.4375 0.81752 0.14354 0.0
H1445 H 0.41912 0.78002 0.16481 0.0
H1446 H 0.42393 0.8652 0.13161 0.0
H1447 H 0.44533 0.79266 0.09387 0.0
H1448 H 0.43855 0.75206 0.07573 0.0
H1449 H 0.39986 0.78654 0.02408 0.0
H1450 H 0.40612 0.82729 0.04213 0.0
H1451 H 0.5046 0.94043 0.05737 0.0
H1452 H 0.4859 0.9053 0.08159 0.0
H1453 H 0.4275 0.90506 0.03972 0.0
H1454 H 0.44585 0.94047 0.01571 0.0
H1455 H 0.44416 0.8565 0.04937 0.0
H1456 H 0.42157 0.92825 0.08672 0.0
H1457 H 0.42726 0.96919 0.10444 0.0
H1458 H 0.4673 0.93687 0.15612 0.0
H1459 H 0.46211 0.89576 0.13847 0.0
C1460 C 0.38074 0.78629 0.12313 0.0
C1461 C 0.39071 0.77583 0.14248 0.0
C1462 C 0.39123 0.8076 0.11108 0.0
C1463 C 0.41194 0.8188 0.11806 0.0
C1464 C 0.42153 0.80908 0.1379 0.0
C1465 C 0.41101 0.7877 0.15001 0.0
C1466 C 0.42395 0.83993 0.10394 0.0
C1467 C 0.42867 0.86323 0.11374 0.0
C1468 C 0.42966 0.83742 0.08048 0.0
C1469 C 0.42603 0.81298 0.06948 0.0
C1470 C 0.43524 0.79154 0.07875 0.0
C1471 C 0.43151 0.76851 0.06847 0.0
C1472 C 0.41874 0.76671 0.0488 0.0
C1473 C 0.40973 0.78796 0.03933 0.0
C1474 C 0.41338 0.81103 0.04957 0.0
C1475 C 0.48782 0.93279 0.05329 0.0
C1476 C 0.47664 0.94311 0.0347 0.0
C1477 C 0.47715 0.91288 0.06718 0.0
C1478 C 0.45534 0.9028 0.06243 0.0
C1479 C 0.44434 0.9127 0.04361 0.0
C1480 C 0.45481 0.9329 0.02998 0.0
C1481 C 0.44405 0.88171 0.07702 0.0
C1482 C 0.4395 0.85842 0.06728 0.0
C1483 C 0.43844 0.8843 0.10045 0.0
C1484 C 0.44167 0.90898 0.11111 0.0
C1485 C 0.4318 0.92992 0.10171 0.0
C1486 C 0.43487 0.95314 0.11178 0.0
C1487 C 0.44767 0.95564 0.13136 0.0
C1488 C 0.45741 0.9349 0.14093 0.0
C1489 C 0.45439 0.91163 0.13091 0.0
H1490 H 0.44996 0.9736 0.13918 0.0
H1491 H 0.41587 0.74885 0.04086 0.0
H1492 H 0.09282 0.25381 0.62959 0.0
H1493 H 0.07439 0.2186 0.60989 0.0
H1494 H 0.1113 0.16693 0.6495 0.0
H1495 H 0.12974 0.20207 0.66936 0.0
H1496 H 0.11242 0.15676 0.60517 0.0
H1497 H 0.05504 0.17146 0.66072 0.0
H1498 H 0.02928 0.19661 0.68146 0.0
H1499 H 0.99735 0.21447 0.61843 0.0
H1500 H 0.02314 0.1897 0.59724 0.0
H1501 H 0.05168 0.04427 0.57456 0.0
H1502 H 0.06604 0.07886 0.59756 0.0
H1503 H 0.03318 0.13112 0.55438 0.0
H1504 H 0.01866 0.09657 0.53121 0.0
H1505 H 0.02945 0.14069 0.60084 0.0
H1506 H 0.08737 0.12707 0.54529 0.0
H1507 H 0.11296 0.10184 0.52442 0.0
H1508 H 0.14375 0.08201 0.58764 0.0
H1509 H 0.1181 0.10684 0.60893 0.0
C1510 C 0.0968 0.23493 0.63436 0.0
C1511 C 0.11275 0.23081 0.65112 0.0
C1512 C 0.08626 0.21479 0.62304 0.0
C1513 C 0.09128 0.19004 0.62834 0.0
C1514 C 0.10717 0.18585 0.64507 0.0
C1515 C 0.11775 0.20598 0.65637 0.0
C1516 C 0.08044 0.16861 0.616 0.0
C1517 C 0.09427 0.15305 0.60455 0.0
C1518 C 0.05675 0.16407 0.61465 0.0
C1519 C 0.04117 0.17892 0.62736 0.0
C1520 C 0.04264 0.18091 0.65125 0.0
C1521 C 0.02801 0.19507 0.66309 0.0
C1522 C 0.01172 0.20718 0.65126 0.0
C1523 C 0.00999 0.2051 0.62756 0.0
C1524 C 0.0246 0.19099 0.61563 0.0
C1525 C 0.04726 0.06306 0.57006 0.0
C1526 C 0.03412 0.06765 0.55091 0.0
C1527 C 0.05557 0.08283 0.58321 0.0
C1528 C 0.05093 0.10762 0.57751 0.0
C1529 C 0.03701 0.11214 0.55904 0.0
C1530 C 0.02877 0.09237 0.54579 0.0
C1531 C 0.06145 0.12889 0.59018 0.0
C1532 C 0.04759 0.14442 0.60159 0.0
C1533 C 0.08511 0.13343 0.59151 0.0
C1534 C 0.10067 0.11862 0.57873 0.0
C1535 C 0.09948 0.11717 0.55476 0.0
C1536 C 0.11401 0.10296 0.54285 0.0
C1537 C 0.12993 0.09026 0.55469 0.0
C1538 C 0.13138 0.0918 0.57848 0.0
C1539 C 0.11686 0.10596 0.59048 0.0
H1540 H 0.14118 0.07931 0.54542 0.0
H1541 H 1.00041 0.21814 0.66046 0.0
H1542 H 0.62828 0.2824 0.35029 0.0
H1543 H 0.60825 0.31422 0.36854 0.0
H1544 H 0.58792 0.26133 0.42534 0.0
H1545 H 0.60675 0.2289 0.40654 0.0
H1546 H 0.55398 0.28618 0.41409 0.0
H1547 H 0.6316 0.30967 0.42867 0.0
H1548 H 0.67187 0.32062 0.41871 0.0
H1549 H 0.65572 0.38431 0.37666 0.0
H1550 H 0.61531 0.37355 0.38613 0.0
H1551 H 0.52317 0.37564 0.49327 0.0
H1552 H 0.54094 0.34301 0.47346 0.0
H1553 H 0.55614 0.39443 0.41447 0.0
H1554 H 0.53859 0.42725 0.4342 0.0
H1555 H 0.59239 0.37054 0.42664 0.0
H1556 H 0.51441 0.34685 0.41317 0.0
H1557 H 0.47438 0.33578 0.42419 0.0
H1558 H 0.49172 0.27219 0.46564 0.0
H1559 H 0.5319 0.28308 0.45512 0.0
C1560 C 0.61934 0.27737 0.36653 0.0
C1561 C 0.61924 0.253 0.37692 0.0
C1562 C 0.60811 0.29574 0.37711 0.0
C1563 C 0.59685 0.29034 0.39853 0.0
C1564 C 0.59657 0.26602 0.40888 0.0
C1565 C 0.6076 0.24755 0.3982 0.0
C1566 C 0.5852 0.30996 0.41006 0.0
C1567 C 0.56249 0.3045 0.4171 0.0
C1568 C 0.59611 0.3341 0.41359 0.0
C1569 C 0.62041 0.34066 0.40793 0.0
C1570 C 0.63662 0.3259 0.41716 0.0
C1571 C 0.65948 0.33209 0.41163 0.0
C1572 C 0.66634 0.35311 0.39701 0.0
C1573 C 0.65037 0.36802 0.38795 0.0
C1574 C 0.62749 0.3619 0.39341 0.0
C1575 C 0.53012 0.37997 0.47601 0.0
C1576 C 0.52943 0.40407 0.46532 0.0
C1577 C 0.54022 0.36126 0.46468 0.0
C1578 C 0.54975 0.36623 0.44242 0.0
C1579 C 0.5489 0.39019 0.43164 0.0
C1580 C 0.53878 0.40889 0.44292 0.0
C1581 C 0.56124 0.34672 0.43065 0.0
C1582 C 0.58391 0.35221 0.42359 0.0
C1583 C 0.55035 0.32257 0.42726 0.0
C1584 C 0.52618 0.31593 0.43352 0.0
C1585 C 0.5097 0.33062 0.42478 0.0
C1586 C 0.48699 0.32436 0.43091 0.0
C1587 C 0.48052 0.30333 0.44565 0.0
C1588 C 0.49676 0.28849 0.45424 0.0
C1589 C 0.5195 0.29468 0.44818 0.0
H1590 H 0.46292 0.29852 0.45038 0.0
H1591 H 0.68405 0.35787 0.39275 0.0
loop_
_geom_bond_atom_site_label_1
_geom_bond_atom_site_label_2
_geom_bond_distance
_geom_bond_site_symmetry_2
_ccdc_geom_bond_type
C0 C1 1.386 . S
C0 C2 1.397 . S
C0 H24 0.931 . S
C1 C0 1.386 . S
C1 C5 1.397 . S
C2 C0 1.397 . S
C2 C3 1.384 . S
C2 H25 0.930 . S
C3 C2 1.384 . S
C3 C4 1.377 . S
C3 C6 1.481 . S
C4 C3 1.377 . S
C4 C5 1.389 . S
C4 H26 0.929 . S
C5 C1 1.397 . S
C5 C4 1.389 . S
C5 H27 0.931 . S
C6 C3 1.481 . S
C6 C7 1.387 . S
C6 C11 1.390 . S
C7 C6 1.387 . S
C7 C8 1.401 . S
C7 H28 0.930 . S
C8 C7 1.401 . S
C8 C9 1.376 . S
C8 C17 1.511 . S
C9 C8 1.376 . S
C9 C10 1.392 . S
C9 H30 0.931 . S
C10 C9 1.392 . S
C10 C11 1.361 . S
C10 C12 1.500 . S
C11 C6 1.390 . S
C11 C10 1.361 . S
C11 H29 0.931 . S
C12 C10 1.500 . S
C12 C13 1.371 . S
C12 C14 1.365 . S
C13 C12 1.371 . S
C13 C23 1.386 . S
C13 H31 0.931 . S
C14 C12 1.365 . S
C14 C15 1.409 . S
C14 H32 0.929 . S
C15 C14 1.409 . S
C15 C16 1.380 . S
C15 H33 0.930 . S
C16 C15 1.380 . S
C16 C23 1.357 . S
C17 C8 1.511 . S
C17 C18 1.341 . S
C17 C19 1.371 . S
C18 C17 1.341 . S
C18 C22 1.394 . S
C18 H34 0.930 . S
C19 C17 1.371 . S
C19 C20 1.392 . S
C19 H35 0.931 . S
C20 C19 1.392 . S
C20 C21 1.331 . S
C20 H38 0.932 . S
C21 C20 1.331 . S
C21 C22 1.336 . S
C22 C18 1.394 . S
C22 C21 1.336 . S
C22 H37 0.929 . S
C23 C13 1.386 . S
C23 C16 1.357 . S
C23 H36 0.928 . S
H24 C0 0.931 . S
H25 C2 0.930 . S
H26 C4 0.929 . S
H27 C5 0.931 . S
H28 C7 0.930 . S
H29 C11 0.931 . S
H30 C9 0.931 . S
H31 C13 0.931 . S
H32 C14 0.929 . S
H33 C15 0.930 . S
H34 C18 0.930 . S
H35 C19 0.931 . S
H36 C23 0.928 . S
H37 C22 0.929 . S
H38 C20 0.932 . S
C39 C40 1.386 . S
C39 C41 1.397 . S
C39 H63 0.931 . S
C40 C39 1.386 . S
C40 C44 1.397 . S
C41 C39 1.397 . S
C41 C42 1.384 . S
C41 H64 0.930 . S
C42 C41 1.384 . S
C42 C43 1.377 . S
C42 C45 1.481 . S
C43 C42 1.377 . S
C43 C44 1.389 . S
C43 H65 0.929 . S
C44 C40 1.397 . S
C44 C43 1.389 . S
C44 H66 0.931 . S
C45 C42 1.481 . S
C45 C46 1.387 . S
C45 C50 1.390 . S
C46 C45 1.387 . S
C46 C47 1.401 . S
C46 H67 0.930 . S
C47 C46 1.401 . S
C47 C48 1.376 . S
C47 C56 1.511 . S
C48 C47 1.376 . S
C48 C49 1.392 . S
C48 H69 0.931 . S
C49 C48 1.392 . S
C49 C50 1.361 . S
C49 C51 1.500 . S
C50 C45 1.390 . S
C50 C49 1.361 . S
C50 H68 0.931 . S
C51 C49 1.500 . S
C51 C52 1.371 . S
C51 C53 1.365 . S
C52 C51 1.371 . S
C52 C62 1.386 . S
C52 H70 0.931 . S
C53 C51 1.365 . S
C53 C54 1.409 . S
C53 H71 0.929 . S
C54 C53 1.409 . S
C54 C55 1.380 . S
C54 H72 0.930 . S
C55 C54 1.380 . S
C55 C62 1.357 . S
C56 C47 1.511 . S
C56 C57 1.341 . S
C56 C58 1.371 . S
C57 C56 1.341 . S
C57 C61 1.394 . S
C57 H73 0.930 . S
C58 C56 1.371 . S
C58 C59 1.392 . S
C58 H74 0.931 . S
C59 C58 1.392 . S
C59 C60 1.331 . S
C59 H77 0.932 . S
C60 C59 1.331 . S
C60 C61 1.336 . S
C61 C57 1.394 . S
C61 C60 1.336 . S
C61 H76 0.929 . S
C62 C52 1.386 . S
C62 C55 1.357 . S
C62 H75 0.928 . S
H63 C39 0.931 . S
H64 C41 0.930 . S
H65 C43 0.929 . S
H66 C44 0.931 . S
H67 C46 0.930 . S
H68 C50 0.931 . S
H69 C48 0.931 . S
H70 C52 0.931 . S
H71 C53 0.929 . S
H72 C54 0.930 . S
H73 C57 0.930 . S
H74 C58 0.931 . S
H75 C62 0.928 . S
H76 C61 0.929 . S
H77 C59 0.932 . S
C78 C79 1.386 . S
C78 C80 1.397 . S
C78 H102 0.931 . S
C79 C78 1.386 . S
C79 C83 1.397 . S
C80 C78 1.397 . S
C80 C81 1.384 . S
C80 H103 0.930 . S
C81 C80 1.384 . S
C81 C82 1.377 . S
C81 C84 1.481 . S
C82 C81 1.377 . S
C82 C83 1.389 . S
C82 H104 0.929 . S
C83 C79 1.397 . S
C83 C82 1.389 . S
C83 H105 0.931 . S
C84 C81 1.481 . S
C84 C85 1.387 . S
C84 C89 1.390 . S
C85 C84 1.387 . S
C85 C86 1.401 . S
C85 H106 0.930 . S
C86 C85 1.401 . S
C86 C87 1.376 . S
C86 C95 1.511 . S
C87 C86 1.376 . S
C87 C88 1.392 . S
C87 H108 0.931 . S
C88 C87 1.392 . S
C88 C89 1.361 . S
C88 C90 1.500 . S
C89 C84 1.390 . S
C89 C88 1.361 . S
C89 H107 0.931 . S
C90 C88 1.500 . S
C90 C91 1.371 . S
C90 C92 1.365 . S
C91 C90 1.371 . S
C91 C101 1.386 . S
C91 H109 0.931 . S
C92 C90 1.365 . S
C92 C93 1.409 . S
C92 H110 0.929 . S
C93 C92 1.409 . S
C93 C94 1.380 . S
C93 H111 0.930 . S
C94 C93 1.380 . S
C94 C101 1.357 . S
C95 C86 1.511 . S
C95 C96 1.341 . S
C95 C97 1.371 . S
C96 C95 1.341 . S
C96 C100 1.394 . S
C96 H112 0.930 . S
C97 C95 1.371 . S
C97 C98 1.392 . S
C97 H113 0.931 . S
C98 C97 1.392 . S
C98 C99 1.331 . S
C98 H116 0.932 . S
C99 C98 1.331 . S
C99 C100 1.336 . S
C100 C96 1.394 . S
C100 C99 1.336 . S
C100 H115 0.929 . S
C101 C91 1.386 . S
C101 C94 1.357 . S
C101 H114 0.928 . S
H102 C78 0.931 . S
H103 C80 0.930 . S
H104 C82 0.929 . S
H105 C83 0.931 . S
H106 C85 0.930 . S
H107 C89 0.931 . S
H108 C87 0.931 . S
H109 C91 0.931 . S
H110 C92 0.929 . S
H111 C93 0.930 . S
H112 C96 0.930 . S
H113 C97 0.931 . S
H114 C101 0.928 . S
H115 C100 0.929 . S
H116 C98 0.932 . S
C117 C118 1.386 . S
C117 C119 1.397 . S
C117 H141 0.931 . S
C118 C117 1.386 . S
C118 C122 1.397 . S
C119 C117 1.397 . S
C119 C120 1.384 . S
C119 H142 0.930 . S
C120 C119 1.384 . S
C120 C121 1.377 . S
C120 C123 1.481 . S
C121 C120 1.377 . S
C121 C122 1.389 . S
C121 H143 0.929 . S
C122 C118 1.397 . S
C122 C121 1.389 . S
C122 H144 0.931 . S
C123 C120 1.481 . S
C123 C124 1.387 . S
C123 C128 1.390 . S
C124 C123 1.387 . S
C124 C125 1.401 . S
C124 H145 0.930 . S
C125 C124 1.401 . S
C125 C126 1.376 . S
C125 C134 1.511 . S
C126 C125 1.376 . S
C126 C127 1.392 . S
C126 H147 0.931 . S
C127 C126 1.392 . S
C127 C128 1.361 . S
C127 C129 1.500 . S
C128 C123 1.390 . S
C128 C127 1.361 . S
C128 H146 0.931 . S
C129 C127 1.500 . S
C129 C130 1.371 . S
C129 C131 1.365 . S
C130 C129 1.371 . S
C130 C140 1.386 . S
C130 H148 0.931 . S
C131 C129 1.365 . S
C131 C132 1.409 . S
C131 H149 0.929 . S
C132 C131 1.409 . S
C132 C133 1.380 . S
C132 H150 0.930 . S
C133 C132 1.380 . S
C133 C140 1.357 . S
C134 C125 1.511 . S
C134 C135 1.341 . S
C134 C136 1.371 . S
C135 C134 1.341 . S
C135 C139 1.394 . S
C135 H151 0.930 . S
C136 C134 1.371 . S
C136 C137 1.392 . S
C136 H152 0.931 . S
C137 C136 1.392 . S
C137 C138 1.331 . S
C137 H155 0.932 . S
C138 C137 1.331 . S
C138 C139 1.336 . S
C139 C135 1.394 . S
C139 C138 1.336 . S
C139 H154 0.929 . S
C140 C130 1.386 . S
C140 C133 1.357 . S
C140 H153 0.928 . S
H141 C117 0.931 . S
H142 C119 0.930 . S
H143 C121 0.929 . S
H144 C122 0.931 . S
H145 C124 0.930 . S
H146 C128 0.931 . S
H147 C126 0.931 . S
H148 C130 0.931 . S
H149 C131 0.929 . S
H150 C132 0.930 . S
H151 C135 0.930 . S
H152 C136 0.931 . S
H153 C140 0.928 . S
H154 C139 0.929 . S
H155 C137 0.932 . S
C156 C157 1.386 . S
C156 C158 1.397 . S
C156 H180 0.931 . S
C157 C156 1.386 . S
C157 C161 1.397 . S
C158 C156 1.397 . S
C158 C159 1.384 . S
C158 H181 0.930 . S
C159 C158 1.384 . S
C159 C160 1.377 . S
C159 C162 1.481 . S
C160 C159 1.377 . S
C160 C161 1.389 . S
C160 H182 0.929 . S
C161 C157 1.397 . S
C161 C160 1.389 . S
C161 H183 0.931 . S
C162 C159 1.481 . S
C162 C163 1.387 . S
C162 C167 1.390 . S
C163 C162 1.387 . S
C163 C164 1.401 . S
C163 H184 0.930 . S
C164 C163 1.401 . S
C164 C165 1.376 . S
C164 C173 1.511 . S
C165 C164 1.376 . S
C165 C166 1.392 . S
C165 H186 0.931 . S
C166 C165 1.392 . S
C166 C167 1.361 . S
C166 C168 1.500 . S
C167 C162 1.390 . S
C167 C166 1.361 . S
C167 H185 0.931 . S
C168 C166 1.500 . S
C168 C169 1.371 . S
C168 C170 1.365 . S
C169 C168 1.371 . S
C169 C179 1.386 . S
C169 H187 0.931 . S
C170 C168 1.365 . S
C170 C171 1.409 . S
C170 H188 0.929 . S
C171 C170 1.409 . S
C171 C172 1.380 . S
C171 H189 0.930 . S
C172 C171 1.380 . S
C172 C179 1.357 . S
C173 C164 1.511 . S
C173 C174 1.341 . S
C173 C175 1.371 . S
C174 C173 1.341 . S
C174 C178 1.394 . S
C174 H190 0.930 . S
C175 C173 1.371 . S
C175 C176 1.392 . S
C175 H191 0.931 . S
C176 C175 1.392 . S
C176 C177 1.331 . S
C176 H194 0.932 . S
C177 C176 1.331 . S
C177 C178 1.336 . S
C178 C174 1.394 . S
C178 C177 1.336 . S
C178 H193 0.929 . S
C179 C169 1.386 . S
C179 C172 1.357 . S
C179 H192 0.928 . S
H180 C156 0.931 . S
H181 C158 0.930 . S
H182 C160 0.929 . S
H183 C161 0.931 . S
H184 C163 0.930 . S
H185 C167 0.931 . S
H186 C165 0.931 . S
H187 C169 0.931 . S
H188 C170 0.929 . S
H189 C171 0.930 . S
H190 C174 0.930 . S
H191 C175 0.931 . S
H192 C179 0.928 . S
H193 C178 0.929 . S
H194 C176 0.932 . S
C195 C196 1.386 . S
C195 C197 1.397 . S
C195 H219 0.931 . S
C196 C195 1.386 . S
C196 C200 1.397 . S
C197 C195 1.397 . S
C197 C198 1.384 . S
C197 H220 0.930 . S
C198 C197 1.384 . S
C198 C199 1.377 . S
C198 C201 1.481 . S
C199 C198 1.377 . S
C199 C200 1.389 . S
C199 H221 0.929 . S
C200 C196 1.397 . S
C200 C199 1.389 . S
C200 H222 0.931 . S
C201 C198 1.481 . S
C201 C202 1.387 . S
C201 C206 1.390 . S
C202 C201 1.387 . S
C202 C203 1.401 . S
C202 H223 0.930 . S
C203 C202 1.401 . S
C203 C204 1.376 . S
C203 C212 1.511 . S
C204 C203 1.376 . S
C204 C205 1.392 . S
C204 H225 0.931 . S
C205 C204 1.392 . S
C205 C206 1.361 . S
C205 C207 1.500 . S
C206 C201 1.390 . S
C206 C205 1.361 . S
C206 H224 0.931 . S
C207 C205 1.500 . S
C207 C208 1.371 . S
C207 C209 1.365 . S
C208 C207 1.371 . S
C208 C218 1.386 . S
C208 H226 0.931 . S
C209 C207 1.365 . S
C209 C210 1.409 . S
C209 H227 0.929 . S
C210 C209 1.409 . S
C210 C211 1.380 . S
C210 H228 0.930 . S
C211 C210 1.380 . S
C211 C218 1.357 . S
C212 C203 1.511 . S
C212 C213 1.341 . S
C212 C214 1.371 . S
C213 C212 1.341 . S
C213 C217 1.394 . S
C213 H229 0.930 . S
C214 C212 1.371 . S
C214 C215 1.392 . S
C214 H230 0.931 . S
C215 C214 1.392 . S
C215 C216 1.331 . S
C215 H233 0.932 . S
C216 C215 1.331 . S
C216 C217 1.336 . S
C217 C213 1.394 . S
C217 C216 1.336 . S
C217 H232 0.929 . S
C218 C208 1.386 . S
C218 C211 1.357 . S
C218 H231 0.928 . S
H219 C195 0.931 . S
H220 C197 0.930 . S
H221 C199 0.929 . S
H222 C200 0.931 . S
H223 C202 0.930 . S
H224 C206 0.931 . S
H225 C204 0.931 . S
H226 C208 0.931 . S
H227 C209 0.929 . S
H228 C210 0.930 . S
H229 C213 0.930 . S
H230 C214 0.931 . S
H231 C218 0.928 . S
H232 C217 0.929 . S
H233 C215 0.932 . S
C234 C235 1.386 . S
C234 C236 1.397 . S
C234 H258 0.931 . S
C235 C234 1.386 . S
C235 C239 1.397 . S
C236 C234 1.397 . S
C236 C237 1.384 . S
C236 H259 0.930 . S
C237 C236 1.384 . S
C237 C238 1.377 . S
C237 C240 1.481 . S
C238 C237 1.377 . S
C238 C239 1.389 . S
C238 H260 0.929 . S
C239 C235 1.397 . S
C239 C238 1.389 . S
C239 H261 0.931 . S
C240 C237 1.481 . S
C240 C241 1.387 . S
C240 C245 1.390 . S
C241 C240 1.387 . S
C241 C242 1.401 . S
C241 H262 0.930 . S
C242 C241 1.401 . S
C242 C243 1.376 . S
C242 C251 1.511 . S
C243 C242 1.376 . S
C243 C244 1.392 . S
C243 H264 0.931 . S
C244 C243 1.392 . S
C244 C245 1.361 . S
C244 C246 1.500 . S
C245 C240 1.390 . S
C245 C244 1.361 . S
C245 H263 0.931 . S
C246 C244 1.500 . S
C246 C247 1.371 . S
C246 C248 1.365 . S
C247 C246 1.371 . S
C247 C257 1.386 . S
C247 H265 0.931 . S
C248 C246 1.365 . S
C248 C249 1.409 . S
C248 H266 0.929 . S
C249 C248 1.409 . S
C249 C250 1.380 . S
C249 H267 0.930 . S
C250 C249 1.380 . S
C250 C257 1.357 . S
C251 C242 1.511 . S
C251 C252 1.341 . S
C251 C253 1.371 . S
C252 C251 1.341 . S
C252 C256 1.394 . S
C252 H268 0.930 . S
C253 C251 1.371 . S
C253 C254 1.392 . S
C253 H269 0.931 . S
C254 C253 1.392 . S
C254 C255 1.331 . S
C254 H272 0.932 . S
C255 C254 1.331 . S
C255 C256 1.336 . S
C256 C252 1.394 . S
C256 C255 1.336 . S
C256 H271 0.929 . S
C257 C247 1.386 . S
C257 C250 1.357 . S
C257 H270 0.928 . S
H258 C234 0.931 . S
H259 C236 0.930 . S
H260 C238 0.929 . S
H261 C239 0.931 . S
H262 C241 0.930 . S
H263 C245 0.931 . S
H264 C243 0.931 . S
H265 C247 0.931 . S
H266 C248 0.929 . S
H267 C249 0.930 . S
H268 C252 0.930 . S
H269 C253 0.931 . S
H270 C257 0.928 . S
H271 C256 0.929 . S
H272 C254 0.932 . S
C273 C274 1.386 . S
C273 C275 1.397 . S
C273 H297 0.931 . S
C274 C273 1.386 . S
C274 C278 1.397 . S
C275 C273 1.397 . S
C275 C276 1.384 . S
C275 H298 0.930 . S
C276 C275 1.384 . S
C276 C277 1.377 . S
C276 C279 1.481 . S
C277 C276 1.377 . S
C277 C278 1.389 . S
C277 H299 0.929 . S
C278 C274 1.397 . S
C278 C277 1.389 . S
C278 H300 0.931 . S
C279 C276 1.481 . S
C279 C280 1.387 . S
C279 C284 1.390 . S
C280 C279 1.387 . S
C280 C281 1.401 . S
C280 H301 0.930 . S
C281 C280 1.401 . S
C281 C282 1.376 . S
C281 C290 1.511 . S
C282 C281 1.376 . S
C282 C283 1.392 . S
C282 H303 0.931 . S
C283 C282 1.392 . S
C283 C284 1.361 . S
C283 C285 1.500 . S
C284 C279 1.390 . S
C284 C283 1.361 . S
C284 H302 0.931 . S
C285 C283 1.500 . S
C285 C286 1.371 . S
C285 C287 1.365 . S
C286 C285 1.371 . S
C286 C296 1.386 . S
C286 H304 0.931 . S
C287 C285 1.365 . S
C287 C288 1.409 . S
C287 H305 0.929 . S
C288 C287 1.409 . S
C288 C289 1.380 . S
C288 H306 0.930 . S
C289 C288 1.380 . S
C289 C296 1.357 . S
C290 C281 1.511 . S
C290 C291 1.341 . S
C290 C292 1.371 . S
C291 C290 1.341 . S
C291 C295 1.394 . S
C291 H307 0.930 . S
C292 C290 1.371 . S
C292 C293 1.392 . S
C292 H308 0.931 . S
C293 C292 1.392 . S
C293 C294 1.331 . S
C293 H311 0.932 . S
C294 C293 1.331 . S
C294 C295 1.336 . S
C295 C291 1.394 . S
C295 C294 1.336 . S
C295 H310 0.929 . S
C296 C286 1.386 . S
C296 C289 1.357 . S
C296 H309 0.928 . S
H297 C273 0.931 . S
H298 C275 0.930 . S
H299 C277 0.929 . S
H300 C278 0.931 . S
H301 C280 0.930 . S
H302 C284 0.931 . S
H303 C282 0.931 . S
H304 C286 0.931 . S
H305 C287 0.929 . S
H306 C288 0.930 . S
H307 C291 0.930 . S
H308 C292 0.931 . S
H309 C296 0.928 . S
H310 C295 0.929 . S
H311 C293 0.932 . S
Zn312 O318 1.969 1_545 S
Zn312 O319 1.965 1_545 S
Zn312 O323 2.024 . S
Zn312 O328 1.969 . S
Zn313 O320 1.969 . S
Zn313 O326 1.969 1_565 S
Zn313 O327 1.991 1_565 S
Zn313 O329 2.024 . S
C314 O315 1.229 . S
C314 O323 1.058 . S
O315 C314 1.229 . S
C316 O317 1.229 . S
C316 O329 1.058 . S
O317 C316 1.229 . S
O318 Zn312 1.969 1_565 S
O318 C321 1.267 . S
O319 Zn312 1.965 1_565 S
O319 C330 1.260 1_455 S
O320 Zn313 1.969 . S
O320 C330 1.258 . S
C321 O318 1.267 . S
C321 O322 1.228 . S
O322 C321 1.228 . S
O323 Zn312 2.024 . S
O323 C314 1.058 . S
C324 O325 1.228 . S
C324 O326 1.267 . S
O325 C324 1.228 . S
O326 Zn313 1.969 1_545 S
O326 C324 1.267 . S
O327 Zn313 1.991 1_545 S
O327 C331 1.225 1_655 S
O328 Zn312 1.969 . S
O328 C331 1.258 . S
O329 Zn313 2.024 . S
O329 C316 1.058 . S
C330 O319 1.260 1_655 S
C330 O320 1.258 . S
C331 O327 1.225 1_455 S
C331 O328 1.258 . S
Zn332 O338 1.969 . S
Zn332 O339 1.965 1_565 S
Zn332 O343 2.024 . S
Zn332 O348 2.002 . S
Zn333 O340 1.969 . S
Zn333 O346 1.969 . S
Zn333 O347 1.965 1_545 S
Zn333 O349 2.024 . S
C334 O335 1.229 . S
C334 O343 1.058 . S
O335 C334 1.229 . S
C336 O337 1.229 . S
C336 O349 1.058 . S
O337 C336 1.229 . S
O338 Zn332 1.969 . S
O338 C341 1.267 . S
O339 Zn332 1.965 1_545 S
O339 C350 1.260 . S
O340 Zn333 1.969 . S
O340 C350 1.258 1_554 S
C341 O338 1.267 . S
C341 O342 1.228 . S
O342 C341 1.228 . S
O343 Zn332 2.024 . S
O343 C334 1.058 . S
C344 O345 1.228 . S
C344 O346 1.267 . S
O345 C344 1.228 . S
O346 Zn333 1.969 . S
O346 C344 1.267 . S
O347 Zn333 1.965 1_565 S
O347 C351 1.260 . S
O348 Zn332 2.002 . S
O348 C351 1.223 1_556 S
O349 Zn333 2.024 . S
O349 C336 1.058 . S
C350 O339 1.260 . S
C350 O340 1.258 1_556 S
C351 O347 1.260 . S
C351 O348 1.223 1_554 S
Zn352 O358 1.969 . S
Zn352 O359 1.965 . S
Zn352 O363 2.024 . S
Zn352 O368 1.969 . S
Zn353 O360 1.969 . S
Zn353 O366 1.969 . S
Zn353 O367 1.965 . S
Zn353 O369 2.024 . S
C354 O355 1.229 . S
C354 O363 1.058 . S
O355 C354 1.229 . S
C356 O357 1.229 . S
C356 O369 1.058 . S
O357 C356 1.229 . S
O358 Zn352 1.969 . S
O358 C361 1.267 . S
O359 Zn352 1.965 . S
O359 C370 1.260 . S
O360 Zn353 1.969 . S
O360 C370 1.258 . S
C361 O358 1.267 . S
C361 O362 1.228 . S
O362 C361 1.228 . S
O363 Zn352 2.024 . S
O363 C354 1.058 . S
C364 O365 1.228 . S
C364 O366 1.267 . S
O365 C364 1.228 . S
O366 Zn353 1.969 . S
O366 C364 1.267 . S
O367 Zn353 1.965 . S
O367 C371 1.260 . S
O368 Zn352 1.969 . S
O368 C371 1.258 . S
O369 Zn353 2.024 . S
O369 C356 1.058 . S
C370 O359 1.260 . S
C370 O360 1.258 . S
C371 O367 1.260 . S
C371 O368 1.258 . S
Zn372 O378 1.969 . S
Zn372 O379 1.965 1_556 S
Zn372 O383 2.024 . S
Zn372 O388 1.938 1_655 S
Zn373 O380 1.969 . S
Zn373 O386 1.969 . S
Zn373 O387 1.965 1_554 S
Zn373 O389 2.024 . S
C374 O375 1.229 . S
C374 O383 1.058 . S
O375 C374 1.229 . S
C376 O377 1.229 . S
C376 O389 1.058 . S
O377 C376 1.229 . S
O378 Zn372 1.969 . S
O378 C381 1.267 . S
O379 Zn372 1.965 1_554 S
O379 C390 1.260 . S
O380 Zn373 1.969 . S
O380 C390 1.258 1_455 S
C381 O378 1.267 . S
C381 O382 1.228 . S
O382 C381 1.228 . S
O383 Zn372 2.024 . S
O383 C374 1.058 . S
C384 O385 1.228 . S
C384 O386 1.267 . S
O385 C384 1.228 . S
O386 Zn373 1.969 . S
O386 C384 1.267 . S
O387 Zn373 1.965 1_556 S
O387 C391 1.260 . S
O388 Zn372 1.938 1_455 S
O388 C391 1.290 . S
O389 Zn373 2.024 . S
O389 C376 1.058 . S
C390 O379 1.260 . S
C390 O380 1.258 1_655 S
C391 O387 1.260 . S
C391 O388 1.290 . S
H392 C410 0.951 . S
H393 C412 0.951 . S
H394 C414 0.950 . S
H395 C415 0.950 . S
H396 C417 0.950 . S
H397 C420 0.950 . S
H398 C421 0.950 . S
H399 C423 0.950 . S
H400 C424 0.950 . S
H401 C425 0.951 . S
H402 C427 0.951 . S
H403 C429 0.950 . S
H404 C430 0.950 . S
H405 C432 0.950 . S
H406 C435 0.950 . S
H407 C436 0.950 . S
H408 C438 0.950 . S
H409 C439 0.950 . S
C410 H392 0.951 . S
C410 C411 1.366 . S
C410 C412 1.388 . S
C411 C410 1.366 . S
C411 C415 1.385 . S
C412 H393 0.951 . S
C412 C410 1.388 . S
C412 C413 1.366 . S
C413 C412 1.366 . S
C413 C414 1.414 . S
C413 C416 1.499 . S
C414 H394 0.950 . S
C414 C413 1.414 . S
C414 C415 1.374 . S
C415 H395 0.950 . S
C415 C411 1.385 . S
C415 C414 1.374 . S
C416 C413 1.499 . S
C416 C417 1.373 . S
C416 C418 1.389 . S
C417 H396 0.950 . S
C417 C416 1.373 . S
C417 C433 1.377 . S
C418 C416 1.389 . S
C418 C419 1.524 . S
C418 C432 1.377 . S
C419 C418 1.524 . S
C419 C420 1.397 . S
C419 C424 1.363 . S
C420 H397 0.950 . S
C420 C419 1.397 . S
C420 C421 1.334 . S
C421 H398 0.950 . S
C421 C420 1.334 . S
C421 C422 1.287 . S
C422 C421 1.287 . S
C422 C423 1.524 . S
C422 H441 0.913 . S
C423 H399 0.950 . S
C423 C422 1.524 . S
C423 C424 1.415 . S
C424 H400 0.950 . S
C424 C419 1.363 . S
C424 C423 1.415 . S
C425 H401 0.951 . S
C425 C426 1.366 . S
C425 C427 1.388 . S
C426 C425 1.366 . S
C426 C430 1.385 . S
C427 H402 0.951 . S
C427 C425 1.388 . S
C427 C428 1.366 . S
C428 C427 1.366 . S
C428 C429 1.414 . S
C428 C431 1.499 . S
C429 H403 0.950 . S
C429 C428 1.414 . S
C429 C430 1.374 . S
C430 H404 0.950 . S
C430 C426 1.385 . S
C430 C429 1.374 . S
C431 C428 1.499 . S
C431 C432 1.373 . S
C431 C433 1.389 . S
C432 H405 0.950 . S
C432 C418 1.377 . S
C432 C431 1.373 . S
C433 C417 1.377 . S
C433 C431 1.389 . S
C433 C434 1.524 . S
C434 C433 1.524 . S
C434 C435 1.397 . S
C434 C439 1.363 . S
C435 H406 0.950 . S
C435 C434 1.397 . S
C435 C436 1.334 . S
C436 H407 0.950 . S
C436 C435 1.334 . S
C436 C437 1.287 . S
C437 C436 1.287 . S
C437 C438 1.524 . S
C437 H440 0.999 . S
C438 H408 0.950 . S
C438 C437 1.524 . S
C438 C439 1.415 . S
C439 H409 0.950 . S
C439 C434 1.363 . S
C439 C438 1.415 . S
H440 C437 0.999 . S
H441 C422 0.913 . S
H442 C460 0.951 . S
H443 C462 0.951 . S
H444 C464 0.950 . S
H445 C465 0.950 . S
H446 C467 0.950 . S
H447 C470 0.950 . S
H448 C471 0.950 . S
H449 C473 0.950 . S
H450 C474 0.950 . S
H451 C475 0.951 . S
H452 C477 0.951 . S
H453 C479 0.950 . S
H454 C480 0.950 . S
H455 C482 0.950 . S
H456 C485 0.950 . S
H457 C486 0.950 . S
H458 C488 0.950 . S
H459 C489 0.950 . S
C460 H442 0.951 . S
C460 C461 1.366 . S
C460 C462 1.388 . S
C461 C460 1.366 . S
C461 C465 1.385 . S
C462 H443 0.951 . S
C462 C460 1.388 . S
C462 C463 1.366 . S
C463 C462 1.366 . S
C463 C464 1.414 . S
C463 C466 1.499 . S
C464 H444 0.950 . S
C464 C463 1.414 . S
C464 C465 1.374 . S
C465 H445 0.950 . S
C465 C461 1.385 . S
C465 C464 1.374 . S
C466 C463 1.499 . S
C466 C467 1.373 . S
C466 C468 1.389 . S
C467 H446 0.950 . S
C467 C466 1.373 . S
C467 C483 1.377 . S
C468 C466 1.389 . S
C468 C469 1.524 . S
C468 C482 1.377 . S
C469 C468 1.524 . S
C469 C470 1.397 . S
C469 C474 1.363 . S
C470 H447 0.950 . S
C470 C469 1.397 . S
C470 C471 1.334 . S
C471 H448 0.950 . S
C471 C470 1.334 . S
C471 C472 1.287 . S
C472 C471 1.287 . S
C472 C473 1.524 . S
C472 H491 0.913 . S
C473 H449 0.950 . S
C473 C472 1.524 . S
C473 C474 1.415 . S
C474 H450 0.950 . S
C474 C469 1.363 . S
C474 C473 1.415 . S
C475 H451 0.951 . S
C475 C476 1.366 . S
C475 C477 1.388 . S
C476 C475 1.366 . S
C476 C480 1.385 . S
C477 H452 0.951 . S
C477 C475 1.388 . S
C477 C478 1.366 . S
C478 C477 1.366 . S
C478 C479 1.414 . S
C478 C481 1.499 . S
C479 H453 0.950 . S
C479 C478 1.414 . S
C479 C480 1.374 . S
C480 H454 0.950 . S
C480 C476 1.385 . S
C480 C479 1.374 . S
C481 C478 1.499 . S
C481 C482 1.373 . S
C481 C483 1.389 . S
C482 H455 0.950 . S
C482 C468 1.377 . S
C482 C481 1.373 . S
C483 C467 1.377 . S
C483 C481 1.389 . S
C483 C484 1.524 . S
C484 C483 1.524 . S
C484 C485 1.397 . S
C484 C489 1.363 . S
C485 H456 0.950 . S
C485 C484 1.397 . S
C485 C486 1.334 . S
C486 H457 0.950 . S
C486 C485 1.334 . S
C486 C487 1.287 . S
C487 C486 1.287 . S
C487 C488 1.524 . S
C487 H490 0.999 . S
C488 H458 0.950 . S
C488 C487 1.524 . S
C488 C489 1.415 . S
C489 H459 0.950 . S
C489 C484 1.363 . S
C489 C488 1.415 . S
H490 C487 0.999 . S
H491 C472 0.913 . S
H492 C510 0.951 . S
H493 C512 0.951 . S
H494 C514 0.950 . S
H495 C515 0.950 . S
H496 C517 0.950 . S
H497 C520 0.950 . S
H498 C521 0.950 . S
H499 C523 0.950 . S
H500 C524 0.950 . S
H501 C525 0.951 . S
H502 C527 0.951 . S
H503 C529 0.950 . S
H504 C530 0.950 . S
H505 C532 0.950 . S
H506 C535 0.950 . S
H507 C536 0.950 . S
H508 C538 0.950 . S
H509 C539 0.950 . S
C510 H492 0.951 . S
C510 C511 1.366 . S
C510 C512 1.388 . S
C511 C510 1.366 . S
C511 C515 1.385 . S
C512 H493 0.951 . S
C512 C510 1.388 . S
C512 C513 1.366 . S
C513 C512 1.366 . S
C513 C514 1.414 . S
C513 C516 1.499 . S
C514 H494 0.950 . S
C514 C513 1.414 . S
C514 C515 1.374 . S
C515 H495 0.950 . S
C515 C511 1.385 . S
C515 C514 1.374 . S
C516 C513 1.499 . S
C516 C517 1.373 . S
C516 C518 1.389 . S
C517 H496 0.950 . S
C517 C516 1.373 . S
C517 C533 1.377 . S
C518 C516 1.389 . S
C518 C519 1.524 . S
C518 C532 1.377 . S
C519 C518 1.524 . S
C519 C520 1.397 . S
C519 C524 1.363 . S
C520 H497 0.950 . S
C520 C519 1.397 . S
C520 C521 1.334 . S
C521 H498 0.950 . S
C521 C520 1.334 . S
C521 C522 1.287 . S
C522 C521 1.287 . S
C522 C523 1.524 . S
C522 H541 0.913 . S
C523 H499 0.950 . S
C523 C522 1.524 . S
C523 C524 1.415 . S
C524 H500 0.950 . S
C524 C519 1.363 . S
C524 C523 1.415 . S
C525 H501 0.951 . S
C525 C526 1.366 . S
C525 C527 1.388 . S
C526 C525 1.366 . S
C526 C530 1.385 . S
C527 H502 0.951 . S
C527 C525 1.388 . S
C527 C528 1.366 . S
C528 C527 1.366 . S
C528 C529 1.414 . S
C528 C531 1.499 . S
C529 H503 0.950 . S
C529 C528 1.414 . S
C529 C530 1.374 . S
C530 H504 0.950 . S
C530 C526 1.385 . S
C530 C529 1.374 . S
C531 C528 1.499 . S
C531 C532 1.373 . S
C531 C533 1.389 . S
C532 H505 0.950 . S
C532 C518 1.377 . S
C532 C531 1.373 . S
C533 C517 1.377 . S
C533 C531 1.389 . S
C533 C534 1.524 . S
C534 C533 1.524 . S
C534 C535 1.397 . S
C534 C539 1.363 . S
C535 H506 0.950 . S
C535 C534 1.397 . S
C535 C536 1.334 . S
C536 H507 0.950 . S
C536 C535 1.334 . S
C536 C537 1.287 . S
C537 C536 1.287 . S
C537 C538 1.524 . S
C537 H540 0.999 . S
C538 H508 0.950 . S
C538 C537 1.524 . S
C538 C539 1.415 . S
C539 H509 0.950 . S
C539 C534 1.363 . S
C539 C538 1.415 . S
H540 C537 0.999 . S
H541 C522 0.913 . S
H542 C560 0.951 . S
H543 C562 0.951 . S
H544 C564 0.950 . S
H545 C565 0.950 . S
H546 C567 0.950 . S
H547 C570 0.950 . S
H548 C571 0.950 . S
H549 C573 0.950 . S
H550 C574 0.950 . S
H551 C575 0.951 . S
H552 C577 0.951 . S
H553 C579 0.950 . S
H554 C580 0.950 . S
H555 C582 0.950 . S
H556 C585 0.950 . S
H557 C586 0.950 1_455 S
H558 C588 0.950 . S
H559 C589 0.950 . S
C560 H542 0.951 . S
C560 C561 1.366 . S
C560 C562 1.388 . S
C561 C560 1.366 . S
C561 C565 1.385 . S
C562 H543 0.951 . S
C562 C560 1.388 . S
C562 C563 1.366 . S
C563 C562 1.366 . S
C563 C564 1.414 . S
C563 C566 1.499 . S
C564 H544 0.950 . S
C564 C563 1.414 . S
C564 C565 1.374 . S
C565 H545 0.950 . S
C565 C561 1.385 . S
C565 C564 1.374 . S
C566 C563 1.499 . S
C566 C567 1.373 . S
C566 C568 1.389 . S
C567 H546 0.950 . S
C567 C566 1.373 . S
C567 C583 1.377 . S
C568 C566 1.389 . S
C568 C569 1.524 . S
C568 C582 1.377 . S
C569 C568 1.524 . S
C569 C570 1.397 . S
C569 C574 1.363 . S
C570 H547 0.950 . S
C570 C569 1.397 . S
C570 C571 1.334 . S
C571 H548 0.950 . S
C571 C570 1.334 . S
C571 C572 1.287 . S
C572 C571 1.287 . S
C572 C573 1.524 . S
C572 H591 0.913 . S
C573 H549 0.950 . S
C573 C572 1.524 . S
C573 C574 1.415 . S
C574 H550 0.950 . S
C574 C569 1.363 . S
C574 C573 1.415 . S
C575 H551 0.951 . S
C575 C576 1.366 . S
C575 C577 1.388 . S
C576 C575 1.366 . S
C576 C580 1.385 . S
C577 H552 0.951 . S
C577 C575 1.388 . S
C577 C578 1.366 . S
C578 C577 1.366 . S
C578 C579 1.414 . S
C578 C581 1.499 . S
C579 H553 0.950 . S
C579 C578 1.414 . S
C579 C580 1.374 . S
C580 H554 0.950 . S
C580 C576 1.385 . S
C580 C579 1.374 . S
C581 C578 1.499 . S
C581 C582 1.373 . S
C581 C583 1.389 . S
C582 H555 0.950 . S
C582 C568 1.377 . S
C582 C581 1.373 . S
C583 C567 1.377 . S
C583 C581 1.389 . S
C583 C584 1.524 . S
C584 C583 1.524 . S
C584 C585 1.397 . S
C584 C589 1.363 . S
C585 H556 0.950 . S
C585 C584 1.397 . S
C585 C586 1.334 . S
C586 H557 0.950 1_655 S
C586 C585 1.334 . S
C586 C587 1.287 1_655 S
C587 C586 1.287 1_455 S
C587 C588 1.524 . S
C587 H590 0.999 . S
C588 H558 0.950 . S
C588 C587 1.524 . S
C588 C589 1.415 1_455 S
C589 H559 0.950 . S
C589 C584 1.363 . S
C589 C588 1.415 1_655 S
H590 C587 0.999 . S
H591 C572 0.913 . S
H592 C610 0.951 . S
H593 C612 0.951 . S
H594 C614 0.950 . S
H595 C615 0.950 . S
H596 C617 0.950 . S
H597 C620 0.950 . S
H598 C621 0.950 . S
H599 C623 0.950 . S
H600 C624 0.950 . S
H601 C625 0.951 . S
H602 C627 0.951 . S
H603 C629 0.950 . S
H604 C630 0.950 . S
H605 C632 0.950 . S
H606 C635 0.950 . S
H607 C636 0.950 . S
H608 C638 0.950 1_565 S
H609 C639 0.950 . S
C610 H592 0.951 . S
C610 C611 1.366 . S
C610 C612 1.388 . S
C611 C610 1.366 . S
C611 C615 1.385 . S
C612 H593 0.951 . S
C612 C610 1.388 . S
C612 C613 1.366 . S
C613 C612 1.366 . S
C613 C614 1.414 . S
C613 C616 1.499 . S
C614 H594 0.950 . S
C614 C613 1.414 . S
C614 C615 1.374 . S
C615 H595 0.950 . S
C615 C611 1.385 . S
C615 C614 1.374 . S
C616 C613 1.499 . S
C616 C617 1.373 . S
C616 C618 1.389 . S
C617 H596 0.950 . S
C617 C616 1.373 . S
C617 C633 1.377 . S
C618 C616 1.389 . S
C618 C619 1.524 . S
C618 C632 1.377 . S
C619 C618 1.524 . S
C619 C620 1.397 . S
C619 C624 1.363 . S
C620 H597 0.950 . S
C620 C619 1.397 . S
C620 C621 1.334 . S
C621 H598 0.950 . S
C621 C620 1.334 . S
C621 C622 1.287 . S
C622 C621 1.287 . S
C622 C623 1.524 . S
C622 H641 0.913 . S
C623 H599 0.950 . S
C623 C622 1.524 . S
C623 C624 1.415 . S
C624 H600 0.950 . S
C624 C619 1.363 . S
C624 C623 1.415 . S
C625 H601 0.951 . S
C625 C626 1.366 . S
C625 C627 1.388 . S
C626 C625 1.366 . S
C626 C630 1.385 . S
C627 H602 0.951 . S
C627 C625 1.388 . S
C627 C628 1.366 . S
C628 C627 1.366 . S
C628 C629 1.414 . S
C628 C631 1.499 . S
C629 H603 0.950 . S
C629 C628 1.414 . S
C629 C630 1.374 . S
C630 H604 0.950 . S
C630 C626 1.385 . S
C630 C629 1.374 . S
C631 C628 1.499 . S
C631 C632 1.373 . S
C631 C633 1.389 . S
C632 H605 0.950 . S
C632 C618 1.377 . S
C632 C631 1.373 . S
C633 C617 1.377 . S
C633 C631 1.389 . S
C633 C634 1.524 . S
C634 C633 1.524 . S
C634 C635 1.397 . S
C634 C639 1.363 . S
C635 H606 0.950 . S
C635 C634 1.397 . S
C635 C636 1.334 . S
C636 H607 0.950 . S
C636 C635 1.334 . S
C636 C637 1.287 . S
C637 C636 1.287 . S
C637 C638 1.524 . S
C637 H640 0.999 1_545 S
C638 H608 0.950 1_545 S
C638 C637 1.524 . S
C638 C639 1.415 . S
C639 H609 0.950 . S
C639 C634 1.363 . S
C639 C638 1.415 . S
H640 C637 0.999 1_565 S
H641 C622 0.913 . S
H642 C660 0.951 . S
H643 C662 0.951 . S
H644 C664 0.950 . S
H645 C665 0.950 . S
H646 C667 0.950 . S
H647 C670 0.950 . S
H648 C671 0.950 . S
H649 C673 0.950 . S
H650 C674 0.950 . S
H651 C675 0.951 . S
H652 C677 0.951 . S
H653 C679 0.950 . S
H654 C680 0.950 . S
H655 C682 0.950 . S
H656 C685 0.950 . S
H657 C686 0.950 . S
H658 C688 0.950 . S
H659 C689 0.950 . S
C660 H642 0.951 . S
C660 C661 1.366 . S
C660 C662 1.388 . S
C661 C660 1.366 . S
C661 C665 1.385 . S
C662 H643 0.951 . S
C662 C660 1.388 . S
C662 C663 1.366 . S
C663 C662 1.366 . S
C663 C664 1.414 . S
C663 C666 1.499 . S
C664 H644 0.950 . S
C664 C663 1.414 . S
C664 C665 1.374 . S
C665 H645 0.950 . S
C665 C661 1.385 . S
C665 C664 1.374 . S
C666 C663 1.499 . S
C666 C667 1.373 . S
C666 C668 1.389 . S
C667 H646 0.950 . S
C667 C666 1.373 . S
C667 C683 1.377 . S
C668 C666 1.389 . S
C668 C669 1.524 . S
C668 C682 1.377 . S
C669 C668 1.524 . S
C669 C670 1.397 . S
C669 C674 1.363 . S
C670 H647 0.950 . S
C670 C669 1.397 . S
C670 C671 1.334 . S
C671 H648 0.950 . S
C671 C670 1.334 . S
C671 C672 1.287 . S
C672 C671 1.287 . S
C672 C673 1.524 . S
C672 H691 0.913 . S
C673 H649 0.950 . S
C673 C672 1.524 . S
C673 C674 1.415 . S
C674 H650 0.950 . S
C674 C669 1.363 . S
C674 C673 1.415 . S
C675 H651 0.951 . S
C675 C676 1.366 . S
C675 C677 1.388 . S
C676 C675 1.366 . S
C676 C680 1.385 . S
C677 H652 0.951 . S
C677 C675 1.388 . S
C677 C678 1.366 . S
C678 C677 1.366 . S
C678 C679 1.414 . S
C678 C681 1.499 . S
C679 H653 0.950 . S
C679 C678 1.414 . S
C679 C680 1.374 . S
C680 H654 0.950 . S
C680 C676 1.385 . S
C680 C679 1.374 . S
C681 C678 1.499 . S
C681 C682 1.373 . S
C681 C683 1.389 . S
C682 H655 0.950 . S
C682 C668 1.377 . S
C682 C681 1.373 . S
C683 C667 1.377 . S
C683 C681 1.389 . S
C683 C684 1.524 . S
C684 C683 1.524 . S
C684 C685 1.397 . S
C684 C689 1.363 . S
C685 H656 0.950 . S
C685 C684 1.397 . S
C685 C686 1.334 1_565 S
C686 H657 0.950 . S
C686 C685 1.334 1_545 S
C686 C687 1.287 . S
C687 C686 1.287 . S
C687 C688 1.524 . S
C687 H690 0.999 . S
C688 H658 0.950 . S
C688 C687 1.524 . S
C688 C689 1.415 1_545 S
C689 H659 0.950 . S
C689 C684 1.363 . S
C689 C688 1.415 1_565 S
H690 C687 0.999 . S
H691 C672 0.913 . S
H692 C710 0.951 . S
H693 C712 0.951 . S
H694 C714 0.950 . S
H695 C715 0.950 . S
H696 C717 0.950 . S
H697 C720 0.950 . S
H698 C721 0.950 . S
H699 C723 0.950 . S
H700 C724 0.950 . S
H701 C725 0.951 . S
H702 C727 0.951 . S
H703 C729 0.950 . S
H704 C730 0.950 . S
H705 C732 0.950 . S
H706 C735 0.950 . S
H707 C736 0.950 1_554 S
H708 C738 0.950 . S
H709 C739 0.950 . S
C710 H692 0.951 . S
C710 C711 1.366 . S
C710 C712 1.388 . S
C711 C710 1.366 . S
C711 C715 1.385 . S
C712 H693 0.951 . S
C712 C710 1.388 . S
C712 C713 1.366 . S
C713 C712 1.366 . S
C713 C714 1.414 . S
C713 C716 1.499 . S
C714 H694 0.950 . S
C714 C713 1.414 . S
C714 C715 1.374 . S
C715 H695 0.950 . S
C715 C711 1.385 . S
C715 C714 1.374 . S
C716 C713 1.499 . S
C716 C717 1.373 . S
C716 C718 1.389 . S
C717 H696 0.950 . S
C717 C716 1.373 . S
C717 C733 1.377 . S
C718 C716 1.389 . S
C718 C719 1.524 . S
C718 C732 1.377 . S
C719 C718 1.524 . S
C719 C720 1.397 . S
C719 C724 1.363 . S
C720 H697 0.950 . S
C720 C719 1.397 . S
C720 C721 1.334 . S
C721 H698 0.950 . S
C721 C720 1.334 . S
C721 C722 1.287 . S
C722 C721 1.287 . S
C722 C723 1.524 . S
C722 H741 0.913 . S
C723 H699 0.950 . S
C723 C722 1.524 . S
C723 C724 1.415 . S
C724 H700 0.950 . S
C724 C719 1.363 . S
C724 C723 1.415 . S
C725 H701 0.951 . S
C725 C726 1.366 . S
C725 C727 1.388 . S
C726 C725 1.366 . S
C726 C730 1.385 . S
C727 H702 0.951 . S
C727 C725 1.388 . S
C727 C728 1.366 . S
C728 C727 1.366 . S
C728 C729 1.414 . S
C728 C731 1.499 . S
C729 H703 0.950 . S
C729 C728 1.414 . S
C729 C730 1.374 . S
C730 H704 0.950 . S
C730 C726 1.385 . S
C730 C729 1.374 . S
C731 C728 1.499 . S
C731 C732 1.373 . S
C731 C733 1.389 . S
C732 H705 0.950 . S
C732 C718 1.377 . S
C732 C731 1.373 . S
C733 C717 1.377 . S
C733 C731 1.389 . S
C733 C734 1.524 . S
C734 C733 1.524 . S
C734 C735 1.397 . S
C734 C739 1.363 . S
C735 H706 0.950 . S
C735 C734 1.397 . S
C735 C736 1.334 . S
C736 H707 0.950 1_556 S
C736 C735 1.334 . S
C736 C737 1.287 . S
C737 C736 1.287 . S
C737 C738 1.524 . S
C737 H740 0.999 1_556 S
C738 H708 0.950 . S
C738 C737 1.524 . S
C738 C739 1.415 . S
C739 H709 0.950 . S
C739 C734 1.363 . S
C739 C738 1.415 . S
H740 C737 0.999 1_554 S
H741 C722 0.913 . S
H742 C760 0.951 . S
H743 C762 0.951 . S
H744 C764 0.950 . S
H745 C765 0.950 . S
H746 C767 0.950 . S
H747 C770 0.950 . S
H748 C771 0.950 . S
H749 C773 0.950 . S
H750 C774 0.950 . S
H751 C775 0.951 . S
H752 C777 0.951 . S
H753 C779 0.950 . S
H754 C780 0.950 . S
H755 C782 0.950 . S
H756 C785 0.950 . S
H757 C786 0.950 . S
H758 C788 0.950 . S
H759 C789 0.950 . S
C760 H742 0.951 . S
C760 C761 1.366 . S
C760 C762 1.388 . S
C761 C760 1.366 . S
C761 C765 1.385 . S
C762 H743 0.951 . S
C762 C760 1.388 . S
C762 C763 1.366 . S
C763 C762 1.366 . S
C763 C764 1.414 . S
C763 C766 1.499 . S
C764 H744 0.950 . S
C764 C763 1.414 . S
C764 C765 1.374 . S
C765 H745 0.950 . S
C765 C761 1.385 . S
C765 C764 1.374 . S
C766 C763 1.499 . S
C766 C767 1.373 . S
C766 C768 1.389 . S
C767 H746 0.950 . S
C767 C766 1.373 . S
C767 C783 1.377 . S
C768 C766 1.389 . S
C768 C769 1.524 . S
C768 C782 1.377 . S
C769 C768 1.524 . S
C769 C770 1.397 . S
C769 C774 1.363 . S
C770 H747 0.950 . S
C770 C769 1.397 . S
C770 C771 1.334 . S
C771 H748 0.950 . S
C771 C770 1.334 . S
C771 C772 1.287 . S
C772 C771 1.287 . S
C772 C773 1.524 . S
C772 H791 0.913 . S
C773 H749 0.950 . S
C773 C772 1.524 . S
C773 C774 1.415 . S
C774 H750 0.950 . S
C774 C769 1.363 . S
C774 C773 1.415 . S
C775 H751 0.951 . S
C775 C776 1.366 . S
C775 C777 1.388 . S
C776 C775 1.366 . S
C776 C780 1.385 . S
C777 H752 0.951 . S
C777 C775 1.388 . S
C777 C778 1.366 . S
C778 C777 1.366 . S
C778 C779 1.414 . S
C778 C781 1.499 . S
C779 H753 0.950 . S
C779 C778 1.414 . S
C779 C780 1.374 . S
C780 H754 0.950 . S
C780 C776 1.385 . S
C780 C779 1.374 . S
C781 C778 1.499 . S
C781 C782 1.373 . S
C781 C783 1.389 . S
C782 H755 0.950 . S
C782 C768 1.377 . S
C782 C781 1.373 . S
C783 C767 1.377 . S
C783 C781 1.389 . S
C783 C784 1.524 . S
C784 C783 1.524 . S
C784 C785 1.397 . S
C784 C789 1.363 . S
C785 H756 0.950 . S
C785 C784 1.397 . S
C785 C786 1.334 . S
C786 H757 0.950 . S
C786 C785 1.334 . S
C786 C787 1.287 . S
C787 C786 1.287 . S
C787 C788 1.524 . S
C787 H790 0.999 . S
C788 H758 0.950 . S
C788 C787 1.524 . S
C788 C789 1.415 . S
C789 H759 0.950 . S
C789 C784 1.363 . S
C789 C788 1.415 . S
H790 C787 0.999 . S
H791 C772 0.913 . S
H792 C810 0.951 . S
H793 C812 0.951 . S
H794 C814 0.950 . S
H795 C815 0.950 . S
H796 C817 0.950 . S
H797 C820 0.950 . S
H798 C821 0.950 . S
H799 C823 0.950 . S
H800 C824 0.950 . S
H801 C825 0.951 . S
H802 C827 0.951 . S
H803 C829 0.950 . S
H804 C830 0.950 . S
H805 C832 0.950 . S
H806 C835 0.950 . S
H807 C836 0.950 . S
H808 C838 0.950 . S
H809 C839 0.950 . S
C810 H792 0.951 . S
C810 C811 1.366 . S
C810 C812 1.388 . S
C811 C810 1.366 . S
C811 C815 1.385 . S
C812 H793 0.951 . S
C812 C810 1.388 . S
C812 C813 1.366 . S
C813 C812 1.366 . S
C813 C814 1.414 . S
C813 C816 1.499 . S
C814 H794 0.950 . S
C814 C813 1.414 . S
C814 C815 1.374 . S
C815 H795 0.950 . S
C815 C811 1.385 . S
C815 C814 1.374 . S
C816 C813 1.499 . S
C816 C817 1.373 . S
C816 C818 1.389 . S
C817 H796 0.950 . S
C817 C816 1.373 . S
C817 C833 1.377 . S
C818 C816 1.389 . S
C818 C819 1.524 . S
C818 C832 1.377 . S
C819 C818 1.524 . S
C819 C820 1.397 . S
C819 C824 1.363 . S
C820 H797 0.950 . S
C820 C819 1.397 . S
C820 C821 1.334 . S
C821 H798 0.950 . S
C821 C820 1.334 . S
C821 C822 1.287 . S
C822 C821 1.287 . S
C822 C823 1.524 . S
C822 H841 0.913 . S
C823 H799 0.950 . S
C823 C822 1.524 . S
C823 C824 1.415 . S
C824 H800 0.950 . S
C824 C819 1.363 . S
C824 C823 1.415 . S
C825 H801 0.951 . S
C825 C826 1.366 . S
C825 C827 1.388 . S
C826 C825 1.366 . S
C826 C830 1.385 . S
C827 H802 0.951 . S
C827 C825 1.388 . S
C827 C828 1.366 . S
C828 C827 1.366 . S
C828 C829 1.414 . S
C828 C831 1.499 . S
C829 H803 0.950 . S
C829 C828 1.414 . S
C829 C830 1.374 . S
C830 H804 0.950 . S
C830 C826 1.385 . S
C830 C829 1.374 . S
C831 C828 1.499 . S
C831 C832 1.373 . S
C831 C833 1.389 . S
C832 H805 0.950 . S
C832 C818 1.377 . S
C832 C831 1.373 . S
C833 C817 1.377 . S
C833 C831 1.389 . S
C833 C834 1.524 . S
C834 C833 1.524 . S
C834 C835 1.397 . S
C834 C839 1.363 . S
C835 H806 0.950 . S
C835 C834 1.397 . S
C835 C836 1.334 . S
C836 H807 0.950 . S
C836 C835 1.334 . S
C836 C837 1.287 . S
C837 C836 1.287 . S
C837 C838 1.524 . S
C837 H840 0.999 . S
C838 H808 0.950 . S
C838 C837 1.524 . S
C838 C839 1.415 . S
C839 H809 0.950 . S
C839 C834 1.363 . S
C839 C838 1.415 . S
H840 C837 0.999 . S
H841 C822 0.913 . S
H842 C860 0.951 . S
H843 C862 0.951 . S
H844 C864 0.950 . S
H845 C865 0.950 . S
H846 C867 0.950 . S
H847 C870 0.950 . S
H848 C871 0.950 . S
H849 C873 0.950 . S
H850 C874 0.950 . S
H851 C875 0.951 . S
H852 C877 0.951 . S
H853 C879 0.950 . S
H854 C880 0.950 . S
H855 C882 0.950 . S
H856 C885 0.950 . S
H857 C886 0.950 . S
H858 C888 0.950 . S
H859 C889 0.950 . S
C860 H842 0.951 . S
C860 C861 1.366 . S
C860 C862 1.388 . S
C861 C860 1.366 . S
C861 C865 1.385 . S
C862 H843 0.951 . S
C862 C860 1.388 . S
C862 C863 1.366 . S
C863 C862 1.366 . S
C863 C864 1.414 . S
C863 C866 1.499 . S
C864 H844 0.950 . S
C864 C863 1.414 . S
C864 C865 1.374 . S
C865 H845 0.950 . S
C865 C861 1.385 . S
C865 C864 1.374 . S
C866 C863 1.499 . S
C866 C867 1.373 . S
C866 C868 1.389 . S
C867 H846 0.950 . S
C867 C866 1.373 . S
C867 C883 1.377 . S
C868 C866 1.389 . S
C868 C869 1.524 . S
C868 C882 1.377 . S
C869 C868 1.524 . S
C869 C870 1.397 . S
C869 C874 1.363 . S
C870 H847 0.950 . S
C870 C869 1.397 . S
C870 C871 1.334 . S
C871 H848 0.950 . S
C871 C870 1.334 . S
C871 C872 1.287 . S
C872 C871 1.287 . S
C872 C873 1.524 . S
C872 H891 0.913 . S
C873 H849 0.950 . S
C873 C872 1.524 . S
C873 C874 1.415 . S
C874 H850 0.950 . S
C874 C869 1.363 . S
C874 C873 1.415 . S
C875 H851 0.951 . S
C875 C876 1.366 . S
C875 C877 1.388 . S
C876 C875 1.366 . S
C876 C880 1.385 . S
C877 H852 0.951 . S
C877 C875 1.388 . S
C877 C878 1.366 . S
C878 C877 1.366 . S
C878 C879 1.414 . S
C878 C881 1.499 . S
C879 H853 0.950 . S
C879 C878 1.414 . S
C879 C880 1.374 . S
C880 H854 0.950 . S
C880 C876 1.385 . S
C880 C879 1.374 . S
C881 C878 1.499 . S
C881 C882 1.373 . S
C881 C883 1.389 . S
C882 H855 0.950 . S
C882 C868 1.377 . S
C882 C881 1.373 . S
C883 C867 1.377 . S
C883 C881 1.389 . S
C883 C884 1.524 . S
C884 C883 1.524 . S
C884 C885 1.397 . S
C884 C889 1.363 . S
C885 H856 0.950 . S
C885 C884 1.397 . S
C885 C886 1.334 . S
C886 H857 0.950 . S
C886 C885 1.334 . S
C886 C887 1.287 . S
C887 C886 1.287 . S
C887 C888 1.524 . S
C887 H890 0.999 . S
C888 H858 0.950 . S
C888 C887 1.524 . S
C888 C889 1.415 . S
C889 H859 0.950 . S
C889 C884 1.363 . S
C889 C888 1.415 . S
H890 C887 0.999 . S
H891 C872 0.913 . S
H892 C910 0.951 . S
H893 C912 0.951 . S
H894 C914 0.950 . S
H895 C915 0.950 . S
H896 C917 0.950 . S
H897 C920 0.950 . S
H898 C921 0.950 . S
H899 C923 0.950 . S
H900 C924 0.950 . S
H901 C925 0.951 . S
H902 C927 0.951 . S
H903 C929 0.950 . S
H904 C930 0.950 . S
H905 C932 0.950 . S
H906 C935 0.950 . S
H907 C936 0.950 . S
H908 C938 0.950 . S
H909 C939 0.950 . S
C910 H892 0.951 . S
C910 C911 1.366 . S
C910 C912 1.388 . S
C911 C910 1.366 . S
C911 C915 1.385 . S
C912 H893 0.951 . S
C912 C910 1.388 . S
C912 C913 1.366 . S
C913 C912 1.366 . S
C913 C914 1.414 . S
C913 C916 1.499 . S
C914 H894 0.950 . S
C914 C913 1.414 . S
C914 C915 1.374 . S
C915 H895 0.950 . S
C915 C911 1.385 . S
C915 C914 1.374 . S
C916 C913 1.499 . S
C916 C917 1.373 . S
C916 C918 1.389 . S
C917 H896 0.950 . S
C917 C916 1.373 . S
C917 C933 1.377 . S
C918 C916 1.389 . S
C918 C919 1.524 . S
C918 C932 1.377 . S
C919 C918 1.524 . S
C919 C920 1.397 . S
C919 C924 1.363 . S
C920 H897 0.950 . S
C920 C919 1.397 . S
C920 C921 1.334 . S
C921 H898 0.950 . S
C921 C920 1.334 . S
C921 C922 1.287 . S
C922 C921 1.287 . S
C922 C923 1.524 . S
C922 H941 0.913 . S
C923 H899 0.950 . S
C923 C922 1.524 . S
C923 C924 1.415 . S
C924 H900 0.950 . S
C924 C919 1.363 . S
C924 C923 1.415 . S
C925 H901 0.951 . S
C925 C926 1.366 . S
C925 C927 1.388 . S
C926 C925 1.366 . S
C926 C930 1.385 . S
C927 H902 0.951 . S
C927 C925 1.388 . S
C927 C928 1.366 . S
C928 C927 1.366 . S
C928 C929 1.414 . S
C928 C931 1.499 . S
C929 H903 0.950 . S
C929 C928 1.414 . S
C929 C930 1.374 . S
C930 H904 0.950 . S
C930 C926 1.385 . S
C930 C929 1.374 . S
C931 C928 1.499 . S
C931 C932 1.373 . S
C931 C933 1.389 . S
C932 H905 0.950 . S
C932 C918 1.377 . S
C932 C931 1.373 . S
C933 C917 1.377 . S
C933 C931 1.389 . S
C933 C934 1.524 . S
C934 C933 1.524 . S
C934 C935 1.397 . S
C934 C939 1.363 . S
C935 H906 0.950 . S
C935 C934 1.397 . S
C935 C936 1.334 . S
C936 H907 0.950 . S
C936 C935 1.334 . S
C936 C937 1.287 1_655 S
C937 C936 1.287 1_455 S
C937 C938 1.524 . S
C937 H940 0.999 . S
C938 H908 0.950 . S
C938 C937 1.524 . S
C938 C939 1.415 1_455 S
C939 H909 0.950 . S
C939 C934 1.363 . S
C939 C938 1.415 1_655 S
H940 C937 0.999 . S
H941 C922 0.913 . S
H942 C960 0.951 . S
H943 C962 0.951 . S
H944 C964 0.950 . S
H945 C965 0.950 . S
H946 C967 0.950 . S
H947 C970 0.950 . S
H948 C971 0.950 . S
H949 C973 0.950 . S
H950 C974 0.950 . S
H951 C975 0.951 . S
H952 C977 0.951 . S
H953 C979 0.950 . S
H954 C980 0.950 . S
H955 C982 0.950 . S
H956 C985 0.950 . S
H957 C986 0.950 . S
H958 C988 0.950 . S
H959 C989 0.950 . S
C960 H942 0.951 . S
C960 C961 1.366 . S
C960 C962 1.388 . S
C961 C960 1.366 . S
C961 C965 1.385 . S
C962 H943 0.951 . S
C962 C960 1.388 . S
C962 C963 1.366 . S
C963 C962 1.366 . S
C963 C964 1.414 . S
C963 C966 1.499 . S
C964 H944 0.950 . S
C964 C963 1.414 . S
C964 C965 1.374 . S
C965 H945 0.950 . S
C965 C961 1.385 . S
C965 C964 1.374 . S
C966 C963 1.499 . S
C966 C967 1.373 . S
C966 C968 1.389 . S
C967 H946 0.950 . S
C967 C966 1.373 . S
C967 C983 1.377 . S
C968 C966 1.389 . S
C968 C969 1.524 . S
C968 C982 1.377 . S
C969 C968 1.524 . S
C969 C970 1.397 . S
C969 C974 1.363 . S
C970 H947 0.950 . S
C970 C969 1.397 . S
C970 C971 1.334 . S
C971 H948 0.950 . S
C971 C970 1.334 . S
C971 C972 1.287 . S
C972 C971 1.287 . S
C972 C973 1.524 . S
C972 H991 0.913 . S
C973 H949 0.950 . S
C973 C972 1.524 . S
C973 C974 1.415 . S
C974 H950 0.950 . S
C974 C969 1.363 . S
C974 C973 1.415 . S
C975 H951 0.951 . S
C975 C976 1.366 . S
C975 C977 1.388 . S
C976 C975 1.366 . S
C976 C980 1.385 . S
C977 H952 0.951 . S
C977 C975 1.388 . S
C977 C978 1.366 . S
C978 C977 1.366 . S
C978 C979 1.414 . S
C978 C981 1.499 . S
C979 H953 0.950 . S
C979 C978 1.414 . S
C979 C980 1.374 . S
C980 H954 0.950 . S
C980 C976 1.385 . S
C980 C979 1.374 . S
C981 C978 1.499 . S
C981 C982 1.373 . S
C981 C983 1.389 . S
C982 H955 0.950 . S
C982 C968 1.377 . S
C982 C981 1.373 . S
C983 C967 1.377 . S
C983 C981 1.389 . S
C983 C984 1.524 . S
C984 C983 1.524 . S
C984 C985 1.397 . S
C984 C989 1.363 . S
C985 H956 0.950 . S
C985 C984 1.397 . S
C985 C986 1.334 . S
C986 H957 0.950 . S
C986 C985 1.334 . S
C986 C987 1.287 . S
C987 C986 1.287 . S
C987 C988 1.524 . S
C987 H990 0.999 . S
C988 H958 0.950 . S
C988 C987 1.524 . S
C988 C989 1.415 . S
C989 H959 0.950 . S
C989 C984 1.363 . S
C989 C988 1.415 . S
H990 C987 0.999 . S
H991 C972 0.913 . S
H992 C1010 0.951 . S
H993 C1012 0.951 . S
H994 C1014 0.950 . S
H995 C1015 0.950 . S
H996 C1017 0.950 . S
H997 C1020 0.950 . S
H998 C1021 0.950 . S
H999 C1023 0.950 . S
H1000 C1024 0.950 . S
H1001 C1025 0.951 . S
H1002 C1027 0.951 . S
H1003 C1029 0.950 . S
H1004 C1030 0.933 1_545 S
H1005 C1032 0.950 . S
H1006 C1035 0.950 . S
H1007 C1036 0.950 1_455 S
H1008 C1038 0.950 . S
H1009 C1039 0.950 . S
C1010 H992 0.951 . S
C1010 C1011 1.366 . S
C1010 C1012 1.388 . S
C1011 C1010 1.366 . S
C1011 C1015 1.385 . S
C1012 H993 0.951 . S
C1012 C1010 1.388 . S
C1012 C1013 1.366 . S
C1013 C1012 1.366 . S
C1013 C1014 1.414 . S
C1013 C1016 1.499 . S
C1014 H994 0.950 . S
C1014 C1013 1.414 . S
C1014 C1015 1.374 . S
C1015 H995 0.950 . S
C1015 C1011 1.385 . S
C1015 C1014 1.374 . S
C1016 C1013 1.499 . S
C1016 C1017 1.373 . S
C1016 C1018 1.389 . S
C1017 H996 0.950 . S
C1017 C1016 1.373 . S
C1017 C1033 1.377 . S
C1018 C1016 1.389 . S
C1018 C1019 1.524 . S
C1018 C1032 1.377 . S
C1019 C1018 1.524 . S
C1019 C1020 1.397 . S
C1019 C1024 1.363 . S
C1020 H997 0.950 . S
C1020 C1019 1.397 . S
C1020 C1021 1.334 . S
C1021 H998 0.950 . S
C1021 C1020 1.334 . S
C1021 C1022 1.287 . S
C1022 C1021 1.287 . S
C1022 C1023 1.524 . S
C1022 H1041 0.913 . S
C1023 H999 0.950 . S
C1023 C1022 1.524 . S
C1023 C1024 1.415 . S
C1024 H1000 0.950 . S
C1024 C1019 1.363 . S
C1024 C1023 1.415 . S
C1025 H1001 0.951 . S
C1025 C1026 1.366 . S
C1025 C1027 1.388 . S
C1026 C1025 1.366 . S
C1026 C1030 1.385 . S
C1027 H1002 0.951 . S
C1027 C1025 1.388 . S
C1027 C1028 1.366 . S
C1028 C1027 1.366 . S
C1028 C1029 1.414 . S
C1028 C1031 1.499 . S
C1029 H1003 0.950 . S
C1029 C1028 1.414 . S
C1029 C1030 1.374 . S
C1030 H1004 0.933 1_565 S
C1030 C1026 1.385 . S
C1030 C1029 1.374 . S
C1031 C1028 1.499 . S
C1031 C1032 1.373 . S
C1031 C1033 1.389 . S
C1032 H1005 0.950 . S
C1032 C1018 1.377 . S
C1032 C1031 1.373 . S
C1033 C1017 1.377 . S
C1033 C1031 1.389 . S
C1033 C1034 1.524 . S
C1034 C1033 1.524 . S
C1034 C1035 1.397 . S
C1034 C1039 1.363 . S
C1035 H1006 0.950 . S
C1035 C1034 1.397 . S
C1035 C1036 1.334 . S
C1036 H1007 0.950 1_655 S
C1036 C1035 1.334 . S
C1036 C1037 1.287 1_655 S
C1037 C1036 1.287 1_455 S
C1037 C1038 1.524 1_455 S
C1037 H1040 0.999 . S
C1038 H1008 0.950 . S
C1038 C1037 1.524 1_655 S
C1038 C1039 1.415 . S
C1039 H1009 0.950 . S
C1039 C1034 1.363 . S
C1039 C1038 1.415 . S
H1040 C1037 0.999 . S
H1041 C1022 0.913 . S
H1042 C1060 0.951 . S
H1043 C1062 0.951 . S
H1044 C1064 0.950 . S
H1045 C1065 0.950 . S
H1046 C1067 0.950 . S
H1047 C1070 0.950 . S
H1048 C1071 0.950 . S
H1049 C1073 0.950 . S
H1050 C1074 0.950 . S
H1051 C1075 0.951 . S
H1052 C1077 0.951 . S
H1053 C1079 0.950 . S
H1054 C1080 0.950 . S
H1055 C1082 0.950 . S
H1056 C1085 0.950 . S
H1057 C1086 0.950 1_565 S
H1058 C1088 0.950 . S
H1059 C1089 0.950 . S
C1060 H1042 0.951 . S
C1060 C1061 1.366 . S
C1060 C1062 1.388 . S
C1061 C1060 1.366 . S
C1061 C1065 1.385 . S
C1062 H1043 0.951 . S
C1062 C1060 1.388 . S
C1062 C1063 1.366 . S
C1063 C1062 1.366 . S
C1063 C1064 1.414 . S
C1063 C1066 1.499 . S
C1064 H1044 0.950 . S
C1064 C1063 1.414 . S
C1064 C1065 1.374 . S
C1065 H1045 0.950 . S
C1065 C1061 1.385 . S
C1065 C1064 1.374 . S
C1066 C1063 1.499 . S
C1066 C1067 1.373 . S
C1066 C1068 1.389 . S
C1067 H1046 0.950 . S
C1067 C1066 1.373 . S
C1067 C1083 1.377 . S
C1068 C1066 1.389 . S
C1068 C1069 1.524 . S
C1068 C1082 1.377 . S
C1069 C1068 1.524 . S
C1069 C1070 1.397 . S
C1069 C1074 1.363 . S
C1070 H1047 0.950 . S
C1070 C1069 1.397 . S
C1070 C1071 1.334 . S
C1071 H1048 0.950 . S
C1071 C1070 1.334 . S
C1071 C1072 1.287 . S
C1072 C1071 1.287 . S
C1072 C1073 1.524 . S
C1072 H1091 0.913 . S
C1073 H1049 0.950 . S
C1073 C1072 1.524 . S
C1073 C1074 1.415 . S
C1074 H1050 0.950 . S
C1074 C1069 1.363 . S
C1074 C1073 1.415 . S
C1075 H1051 0.951 . S
C1075 C1076 1.366 . S
C1075 C1077 1.388 . S
C1076 C1075 1.366 . S
C1076 C1080 1.385 . S
C1077 H1052 0.951 . S
C1077 C1075 1.388 . S
C1077 C1078 1.366 . S
C1078 C1077 1.366 . S
C1078 C1079 1.414 . S
C1078 C1081 1.499 . S
C1079 H1053 0.950 . S
C1079 C1078 1.414 . S
C1079 C1080 1.374 . S
C1080 H1054 0.950 . S
C1080 C1076 1.385 . S
C1080 C1079 1.374 . S
C1081 C1078 1.499 . S
C1081 C1082 1.373 . S
C1081 C1083 1.389 . S
C1082 H1055 0.950 . S
C1082 C1068 1.377 . S
C1082 C1081 1.373 . S
C1083 C1067 1.377 . S
C1083 C1081 1.389 . S
C1083 C1084 1.524 . S
C1084 C1083 1.524 . S
C1084 C1085 1.397 . S
C1084 C1089 1.363 . S
C1085 H1056 0.950 . S
C1085 C1084 1.397 . S
C1085 C1086 1.334 . S
C1086 H1057 0.950 1_545 S
C1086 C1085 1.334 . S
C1086 C1087 1.287 . S
C1087 C1086 1.287 . S
C1087 C1088 1.524 . S
C1087 H1090 0.999 . S
C1088 H1058 0.950 . S
C1088 C1087 1.524 . S
C1088 C1089 1.415 . S
C1089 H1059 0.950 . S
C1089 C1084 1.363 . S
C1089 C1088 1.415 . S
H1090 C1087 0.999 . S
H1091 C1072 0.913 . S
H1092 C1110 0.951 . S
H1093 C1112 0.951 . S
H1094 C1114 0.950 . S
H1095 C1115 0.950 . S
H1096 C1117 0.950 . S
H1097 C1120 0.950 . S
H1098 C1121 0.950 . S
H1099 C1123 0.950 . S
H1100 C1124 0.950 . S
H1101 C1125 0.951 . S
H1102 C1127 0.951 . S
H1103 C1129 0.950 . S
H1104 C1130 0.950 . S
H1105 C1132 0.950 . S
H1106 C1135 0.950 . S
H1107 C1136 0.950 . S
H1108 C1138 0.950 . S
H1109 C1139 0.950 . S
C1110 H1092 0.951 . S
C1110 C1111 1.366 . S
C1110 C1112 1.388 . S
C1111 C1110 1.366 . S
C1111 C1115 1.385 . S
C1112 H1093 0.951 . S
C1112 C1110 1.388 . S
C1112 C1113 1.366 . S
C1113 C1112 1.366 . S
C1113 C1114 1.414 . S
C1113 C1116 1.499 . S
C1114 H1094 0.950 . S
C1114 C1113 1.414 . S
C1114 C1115 1.374 . S
C1115 H1095 0.950 . S
C1115 C1111 1.385 . S
C1115 C1114 1.374 . S
C1116 C1113 1.499 . S
C1116 C1117 1.373 . S
C1116 C1118 1.389 . S
C1117 H1096 0.950 . S
C1117 C1116 1.373 . S
C1117 C1133 1.377 . S
C1118 C1116 1.389 . S
C1118 C1119 1.524 . S
C1118 C1132 1.377 . S
C1119 C1118 1.524 . S
C1119 C1120 1.397 . S
C1119 C1124 1.363 . S
C1120 H1097 0.950 . S
C1120 C1119 1.397 . S
C1120 C1121 1.334 . S
C1121 H1098 0.950 . S
C1121 C1120 1.334 . S
C1121 C1122 1.287 . S
C1122 C1121 1.287 . S
C1122 C1123 1.524 . S
C1122 H1141 0.913 . S
C1123 H1099 0.950 . S
C1123 C1122 1.524 . S
C1123 C1124 1.415 . S
C1124 H1100 0.950 . S
C1124 C1119 1.363 . S
C1124 C1123 1.415 . S
C1125 H1101 0.951 . S
C1125 C1126 1.366 . S
C1125 C1127 1.388 . S
C1126 C1125 1.366 . S
C1126 C1130 1.385 . S
C1127 H1102 0.951 . S
C1127 C1125 1.388 . S
C1127 C1128 1.366 . S
C1128 C1127 1.366 . S
C1128 C1129 1.414 . S
C1128 C1131 1.499 . S
C1129 H1103 0.950 . S
C1129 C1128 1.414 . S
C1129 C1130 1.374 . S
C1130 H1104 0.950 . S
C1130 C1126 1.385 . S
C1130 C1129 1.374 . S
C1131 C1128 1.499 . S
C1131 C1132 1.373 . S
C1131 C1133 1.389 . S
C1132 H1105 0.950 . S
C1132 C1118 1.377 . S
C1132 C1131 1.373 . S
C1133 C1117 1.377 . S
C1133 C1131 1.389 . S
C1133 C1134 1.524 . S
C1134 C1133 1.524 . S
C1134 C1135 1.397 . S
C1134 C1139 1.363 . S
C1135 H1106 0.950 . S
C1135 C1134 1.397 . S
C1135 C1136 1.334 . S
C1136 H1107 0.950 . S
C1136 C1135 1.334 . S
C1136 C1137 1.287 . S
C1137 C1136 1.287 . S
C1137 C1138 1.524 . S
C1137 H1140 0.999 . S
C1138 H1108 0.950 . S
C1138 C1137 1.524 . S
C1138 C1139 1.415 . S
C1139 H1109 0.950 . S
C1139 C1134 1.363 . S
C1139 C1138 1.415 . S
H1140 C1137 0.999 . S
H1141 C1122 0.913 . S
H1142 C1160 0.951 . S
H1143 C1162 0.951 . S
H1144 C1164 0.950 . S
H1145 C1165 0.950 . S
H1146 C1167 0.950 . S
H1147 C1170 0.950 . S
H1148 C1171 0.950 . S
H1149 C1173 0.950 . S
H1150 C1174 0.950 . S
H1151 C1175 0.951 . S
H1152 C1177 0.951 . S
H1153 C1179 0.950 . S
H1154 C1180 0.950 . S
H1155 C1182 0.950 . S
H1156 C1185 0.950 . S
H1157 C1186 0.950 . S
H1158 C1188 0.950 . S
H1159 C1189 0.950 . S
C1160 H1142 0.951 . S
C1160 C1161 1.366 . S
C1160 C1162 1.388 . S
C1161 C1160 1.366 . S
C1161 C1165 1.385 . S
C1162 H1143 0.951 . S
C1162 C1160 1.388 . S
C1162 C1163 1.366 . S
C1163 C1162 1.366 . S
C1163 C1164 1.414 . S
C1163 C1166 1.499 . S
C1164 H1144 0.950 . S
C1164 C1163 1.414 . S
C1164 C1165 1.374 . S
C1165 H1145 0.950 . S
C1165 C1161 1.385 . S
C1165 C1164 1.374 . S
C1166 C1163 1.499 . S
C1166 C1167 1.373 . S
C1166 C1168 1.389 . S
C1167 H1146 0.950 . S
C1167 C1166 1.373 . S
C1167 C1183 1.377 . S
C1168 C1166 1.389 . S
C1168 C1169 1.524 . S
C1168 C1182 1.377 . S
C1169 C1168 1.524 . S
C1169 C1170 1.397 . S
C1169 C1174 1.363 . S
C1170 H1147 0.950 . S
C1170 C1169 1.397 . S
C1170 C1171 1.334 . S
C1171 H1148 0.950 . S
C1171 C1170 1.334 . S
C1171 C1172 1.287 . S
C1172 C1171 1.287 . S
C1172 C1173 1.524 . S
C1172 H1191 0.913 . S
C1173 H1149 0.950 . S
C1173 C1172 1.524 . S
C1173 C1174 1.415 . S
C1174 H1150 0.950 . S
C1174 C1169 1.363 . S
C1174 C1173 1.415 . S
C1175 H1151 0.951 . S
C1175 C1176 1.366 . S
C1175 C1177 1.388 . S
C1176 C1175 1.366 . S
C1176 C1180 1.385 . S
C1177 H1152 0.951 . S
C1177 C1175 1.388 . S
C1177 C1178 1.366 . S
C1178 C1177 1.366 . S
C1178 C1179 1.414 . S
C1178 C1181 1.499 . S
C1179 H1153 0.950 . S
C1179 C1178 1.414 . S
C1179 C1180 1.374 . S
C1180 H1154 0.950 . S
C1180 C1176 1.385 . S
C1180 C1179 1.374 . S
C1181 C1178 1.499 . S
C1181 C1182 1.373 . S
C1181 C1183 1.389 . S
C1182 H1155 0.950 . S
C1182 C1168 1.377 . S
C1182 C1181 1.373 . S
C1183 C1167 1.377 . S
C1183 C1181 1.389 . S
C1183 C1184 1.524 . S
C1184 C1183 1.524 . S
C1184 C1185 1.397 . S
C1184 C1189 1.363 . S
C1185 H1156 0.950 . S
C1185 C1184 1.397 . S
C1185 C1186 1.334 . S
C1186 H1157 0.950 . S
C1186 C1185 1.334 . S
C1186 C1187 1.287 . S
C1187 C1186 1.287 . S
C1187 C1188 1.524 . S
C1187 H1190 0.999 . S
C1188 H1158 0.950 . S
C1188 C1187 1.524 . S
C1188 C1189 1.415 . S
C1189 H1159 0.950 . S
C1189 C1184 1.363 . S
C1189 C1188 1.415 . S
H1190 C1187 0.999 . S
H1191 C1172 0.913 . S
H1192 C1210 0.951 . S
H1193 C1212 0.951 . S
H1194 C1214 0.950 . S
H1195 C1215 0.950 . S
H1196 C1217 0.950 . S
H1197 C1220 0.950 . S
H1198 C1221 0.950 . S
H1199 C1223 0.950 . S
H1200 C1224 0.950 . S
H1201 C1225 0.951 . S
H1202 C1227 0.951 . S
H1203 C1229 0.950 . S
H1204 C1230 0.950 . S
H1205 C1232 0.950 . S
H1206 C1235 0.950 . S
H1207 C1236 0.950 . S
H1208 C1238 0.950 . S
H1209 C1239 0.950 . S
C1210 H1192 0.951 . S
C1210 C1211 1.366 . S
C1210 C1212 1.388 . S
C1211 C1210 1.366 . S
C1211 C1215 1.385 . S
C1212 H1193 0.951 . S
C1212 C1210 1.388 . S
C1212 C1213 1.366 . S
C1213 C1212 1.366 . S
C1213 C1214 1.414 . S
C1213 C1216 1.499 . S
C1214 H1194 0.950 . S
C1214 C1213 1.414 . S
C1214 C1215 1.374 . S
C1215 H1195 0.950 . S
C1215 C1211 1.385 . S
C1215 C1214 1.374 . S
C1216 C1213 1.499 . S
C1216 C1217 1.373 . S
C1216 C1218 1.389 . S
C1217 H1196 0.950 . S
C1217 C1216 1.373 . S
C1217 C1233 1.377 . S
C1218 C1216 1.389 . S
C1218 C1219 1.524 . S
C1218 C1232 1.377 . S
C1219 C1218 1.524 . S
C1219 C1220 1.397 . S
C1219 C1224 1.363 . S
C1220 H1197 0.950 . S
C1220 C1219 1.397 . S
C1220 C1221 1.334 . S
C1221 H1198 0.950 . S
C1221 C1220 1.334 . S
C1221 C1222 1.287 . S
C1222 C1221 1.287 . S
C1222 C1223 1.524 . S
C1222 H1241 0.913 . S
C1223 H1199 0.950 . S
C1223 C1222 1.524 . S
C1223 C1224 1.415 . S
C1224 H1200 0.950 . S
C1224 C1219 1.363 . S
C1224 C1223 1.415 . S
C1225 H1201 0.951 . S
C1225 C1226 1.366 . S
C1225 C1227 1.388 . S
C1226 C1225 1.366 . S
C1226 C1230 1.385 . S
C1227 H1202 0.951 . S
C1227 C1225 1.388 . S
C1227 C1228 1.366 . S
C1228 C1227 1.366 . S
C1228 C1229 1.414 . S
C1228 C1231 1.499 . S
C1229 H1203 0.950 . S
C1229 C1228 1.414 . S
C1229 C1230 1.374 . S
C1230 H1204 0.950 . S
C1230 C1226 1.385 . S
C1230 C1229 1.374 . S
C1231 C1228 1.499 . S
C1231 C1232 1.373 . S
C1231 C1233 1.389 . S
C1232 H1205 0.950 . S
C1232 C1218 1.377 . S
C1232 C1231 1.373 . S
C1233 C1217 1.377 . S
C1233 C1231 1.389 . S
C1233 C1234 1.524 . S
C1234 C1233 1.524 . S
C1234 C1235 1.397 . S
C1234 C1239 1.363 . S
C1235 H1206 0.950 . S
C1235 C1234 1.397 . S
C1235 C1236 1.334 . S
C1236 H1207 0.950 . S
C1236 C1235 1.334 . S
C1236 C1237 1.287 . S
C1237 C1236 1.287 . S
C1237 C1238 1.524 . S
C1237 H1240 0.999 . S
C1238 H1208 0.950 . S
C1238 C1237 1.524 . S
C1238 C1239 1.415 . S
C1239 H1209 0.950 . S
C1239 C1234 1.363 . S
C1239 C1238 1.415 . S
H1240 C1237 0.999 . S
H1241 C1222 0.913 . S
H1242 C1260 0.951 . S
H1243 C1262 0.951 . S
H1244 C1264 0.950 . S
H1245 C1265 0.950 . S
H1246 C1267 0.950 . S
H1247 C1270 0.950 . S
H1248 C1271 0.950 . S
H1249 C1273 0.950 . S
H1250 C1274 0.950 . S
H1251 C1275 0.951 . S
H1252 C1277 0.951 . S
H1253 C1279 0.950 . S
H1254 C1280 0.950 . S
H1255 C1282 0.950 . S
H1256 C1285 0.950 . S
H1257 C1286 0.950 . S
H1258 C1288 0.950 . S
H1259 C1289 0.950 . S
C1260 H1242 0.951 . S
C1260 C1261 1.366 . S
C1260 C1262 1.388 . S
C1261 C1260 1.366 . S
C1261 C1265 1.385 . S
C1262 H1243 0.951 . S
C1262 C1260 1.388 . S
C1262 C1263 1.366 . S
C1263 C1262 1.366 . S
C1263 C1264 1.414 . S
C1263 C1266 1.499 . S
C1264 H1244 0.950 . S
C1264 C1263 1.414 . S
C1264 C1265 1.374 . S
C1265 H1245 0.950 . S
C1265 C1261 1.385 . S
C1265 C1264 1.374 . S
C1266 C1263 1.499 . S
C1266 C1267 1.373 . S
C1266 C1268 1.389 . S
C1267 H1246 0.950 . S
C1267 C1266 1.373 . S
C1267 C1283 1.377 . S
C1268 C1266 1.389 . S
C1268 C1269 1.524 . S
C1268 C1282 1.377 . S
C1269 C1268 1.524 . S
C1269 C1270 1.397 . S
C1269 C1274 1.363 . S
C1270 H1247 0.950 . S
C1270 C1269 1.397 . S
C1270 C1271 1.334 . S
C1271 H1248 0.950 . S
C1271 C1270 1.334 . S
C1271 C1272 1.287 . S
C1272 C1271 1.287 . S
C1272 C1273 1.524 . S
C1272 H1291 0.913 . S
C1273 H1249 0.950 . S
C1273 C1272 1.524 . S
C1273 C1274 1.415 . S
C1274 H1250 0.950 . S
C1274 C1269 1.363 . S
C1274 C1273 1.415 . S
C1275 H1251 0.951 . S
C1275 C1276 1.366 . S
C1275 C1277 1.388 . S
C1276 C1275 1.366 . S
C1276 C1280 1.385 . S
C1277 H1252 0.951 . S
C1277 C1275 1.388 . S
C1277 C1278 1.366 . S
C1278 C1277 1.366 . S
C1278 C1279 1.414 . S
C1278 C1281 1.499 . S
C1279 H1253 0.950 . S
C1279 C1278 1.414 . S
C1279 C1280 1.374 . S
C1280 H1254 0.950 . S
C1280 C1276 1.385 . S
C1280 C1279 1.374 . S
C1281 C1278 1.499 . S
C1281 C1282 1.373 . S
C1281 C1283 1.389 . S
C1282 H1255 0.950 . S
C1282 C1268 1.377 . S
C1282 C1281 1.373 . S
C1283 C1267 1.377 . S
C1283 C1281 1.389 . S
C1283 C1284 1.524 . S
C1284 C1283 1.524 . S
C1284 C1285 1.397 . S
C1284 C1289 1.363 . S
C1285 H1256 0.950 . S
C1285 C1284 1.397 . S
C1285 C1286 1.334 . S
C1286 H1257 0.950 . S
C1286 C1285 1.334 . S
C1286 C1287 1.287 . S
C1287 C1286 1.287 . S
C1287 C1288 1.524 . S
C1287 H1290 0.999 . S
C1288 H1258 0.950 . S
C1288 C1287 1.524 . S
C1288 C1289 1.415 . S
C1289 H1259 0.950 . S
C1289 C1284 1.363 . S
C1289 C1288 1.415 . S
H1290 C1287 0.999 . S
H1291 C1272 0.913 . S
H1292 C1310 0.951 . S
H1293 C1312 0.951 . S
H1294 C1314 0.950 . S
H1295 C1315 0.950 . S
H1296 C1317 0.950 . S
H1297 C1320 0.950 . S
H1298 C1321 0.950 . S
H1299 C1323 0.950 . S
H1300 C1324 0.950 . S
H1301 C1325 0.951 . S
H1302 C1327 0.951 . S
H1303 C1329 0.950 . S
H1304 C1330 0.950 . S
H1305 C1332 0.950 . S
H1306 C1335 0.950 . S
H1307 C1336 0.950 . S
H1308 C1338 0.967 . S
H1309 C1339 0.950 . S
C1310 H1292 0.951 . S
C1310 C1311 1.366 . S
C1310 C1312 1.388 . S
C1311 C1310 1.366 . S
C1311 C1315 1.385 . S
C1312 H1293 0.951 . S
C1312 C1310 1.388 . S
C1312 C1313 1.366 . S
C1313 C1312 1.366 . S
C1313 C1314 1.414 . S
C1313 C1316 1.499 . S
C1314 H1294 0.950 . S
C1314 C1313 1.414 . S
C1314 C1315 1.374 . S
C1315 H1295 0.950 . S
C1315 C1311 1.385 . S
C1315 C1314 1.374 . S
C1316 C1313 1.499 . S
C1316 C1317 1.373 . S
C1316 C1318 1.389 . S
C1317 H1296 0.950 . S
C1317 C1316 1.373 . S
C1317 C1333 1.377 . S
C1318 C1316 1.389 . S
C1318 C1319 1.524 . S
C1318 C1332 1.377 . S
C1319 C1318 1.524 . S
C1319 C1320 1.397 . S
C1319 C1324 1.363 . S
C1320 H1297 0.950 . S
C1320 C1319 1.397 . S
C1320 C1321 1.334 . S
C1321 H1298 0.950 . S
C1321 C1320 1.334 . S
C1321 C1322 1.287 . S
C1322 C1321 1.287 . S
C1322 C1323 1.524 . S
C1322 H1341 0.913 . S
C1323 H1299 0.950 . S
C1323 C1322 1.524 . S
C1323 C1324 1.415 . S
C1324 H1300 0.950 . S
C1324 C1319 1.363 . S
C1324 C1323 1.415 . S
C1325 H1301 0.951 . S
C1325 C1326 1.366 . S
C1325 C1327 1.388 . S
C1326 C1325 1.366 . S
C1326 C1330 1.385 . S
C1327 H1302 0.951 . S
C1327 C1325 1.388 . S
C1327 C1328 1.366 . S
C1328 C1327 1.366 . S
C1328 C1329 1.414 . S
C1328 C1331 1.499 . S
C1329 H1303 0.950 . S
C1329 C1328 1.414 . S
C1329 C1330 1.374 . S
C1330 H1304 0.950 . S
C1330 C1326 1.385 . S
C1330 C1329 1.374 . S
C1331 C1328 1.499 . S
C1331 C1332 1.373 . S
C1331 C1333 1.389 . S
C1332 H1305 0.950 . S
C1332 C1318 1.377 . S
C1332 C1331 1.373 . S
C1333 C1317 1.377 . S
C1333 C1331 1.389 . S
C1333 C1334 1.524 . S
C1334 C1333 1.524 . S
C1334 C1335 1.397 . S
C1334 C1339 1.363 . S
C1335 H1306 0.950 . S
C1335 C1334 1.397 . S
C1335 C1336 1.334 . S
C1336 H1307 0.950 . S
C1336 C1335 1.334 . S
C1336 C1337 1.285 . S
C1337 C1336 1.285 . S
C1337 C1338 1.523 . S
C1337 H1340 1.002 1_554 S
C1338 H1308 0.967 . S
C1338 C1337 1.523 . S
C1338 C1339 1.415 . S
C1339 H1309 0.950 . S
C1339 C1334 1.363 . S
C1339 C1338 1.415 . S
H1340 C1337 1.002 1_556 S
H1341 C1322 0.913 . S
H1342 C1360 0.951 . S
H1343 C1362 0.951 . S
H1344 C1364 0.950 . S
H1345 C1365 0.950 . S
H1346 C1367 0.950 . S
H1347 C1370 0.950 . S
H1348 C1371 0.950 . S
H1349 C1373 0.950 . S
H1350 C1374 0.950 . S
H1351 C1375 0.951 . S
H1352 C1377 0.951 . S
H1353 C1379 0.950 . S
H1354 C1380 0.950 . S
H1355 C1382 0.950 . S
H1356 C1385 0.950 . S
H1357 C1386 0.950 . S
H1358 C1388 0.950 . S
H1359 C1389 0.950 . S
C1360 H1342 0.951 . S
C1360 C1361 1.366 . S
C1360 C1362 1.388 . S
C1361 C1360 1.366 . S
C1361 C1365 1.385 . S
C1362 H1343 0.951 . S
C1362 C1360 1.388 . S
C1362 C1363 1.366 . S
C1363 C1362 1.366 . S
C1363 C1364 1.414 . S
C1363 C1366 1.499 . S
C1364 H1344 0.950 . S
C1364 C1363 1.414 . S
C1364 C1365 1.374 . S
C1365 H1345 0.950 . S
C1365 C1361 1.385 . S
C1365 C1364 1.374 . S
C1366 C1363 1.499 . S
C1366 C1367 1.373 . S
C1366 C1368 1.389 . S
C1367 H1346 0.950 . S
C1367 C1366 1.373 . S
C1367 C1383 1.377 . S
C1368 C1366 1.389 . S
C1368 C1369 1.524 . S
C1368 C1382 1.377 . S
C1369 C1368 1.524 . S
C1369 C1370 1.397 . S
C1369 C1374 1.363 . S
C1370 H1347 0.950 . S
C1370 C1369 1.397 . S
C1370 C1371 1.334 . S
C1371 H1348 0.950 . S
C1371 C1370 1.334 . S
C1371 C1372 1.287 . S
C1372 C1371 1.287 . S
C1372 C1373 1.524 . S
C1372 H1391 0.913 . S
C1373 H1349 0.950 . S
C1373 C1372 1.524 . S
C1373 C1374 1.415 . S
C1374 H1350 0.950 . S
C1374 C1369 1.363 . S
C1374 C1373 1.415 . S
C1375 H1351 0.951 . S
C1375 C1376 1.366 . S
C1375 C1377 1.388 . S
C1376 C1375 1.366 . S
C1376 C1380 1.385 . S
C1377 H1352 0.951 . S
C1377 C1375 1.388 . S
C1377 C1378 1.366 . S
C1378 C1377 1.366 . S
C1378 C1379 1.414 . S
C1378 C1381 1.499 . S
C1379 H1353 0.950 . S
C1379 C1378 1.414 . S
C1379 C1380 1.374 . S
C1380 H1354 0.950 . S
C1380 C1376 1.385 . S
C1380 C1379 1.374 . S
C1381 C1378 1.499 . S
C1381 C1382 1.373 . S
C1381 C1383 1.389 . S
C1382 H1355 0.950 . S
C1382 C1368 1.377 . S
C1382 C1381 1.373 . S
C1383 C1367 1.377 . S
C1383 C1381 1.389 . S
C1383 C1384 1.524 . S
C1384 C1383 1.524 . S
C1384 C1385 1.397 . S
C1384 C1389 1.363 . S
C1385 H1356 0.950 . S
C1385 C1384 1.397 . S
C1385 C1386 1.334 . S
C1386 H1357 0.950 . S
C1386 C1385 1.334 . S
C1386 C1387 1.287 . S
C1387 C1386 1.287 . S
C1387 C1388 1.524 . S
C1387 H1390 0.999 . S
C1388 H1358 0.950 . S
C1388 C1387 1.524 . S
C1388 C1389 1.415 . S
C1389 H1359 0.950 . S
C1389 C1384 1.363 . S
C1389 C1388 1.415 . S
H1390 C1387 0.999 . S
H1391 C1372 0.913 . S
H1392 C1410 0.951 . S
H1393 C1412 0.951 . S
H1394 C1414 0.950 . S
H1395 C1415 0.950 . S
H1396 C1417 0.950 . S
H1397 C1420 0.950 . S
H1398 C1421 0.950 . S
H1399 C1423 0.950 . S
H1400 C1424 0.950 . S
H1401 C1425 0.951 . S
H1402 C1427 0.951 . S
H1403 C1429 0.950 . S
H1404 C1430 0.950 . S
H1405 C1432 0.950 . S
H1406 C1435 0.950 . S
H1407 C1436 0.950 . S
H1408 C1438 0.950 . S
H1409 C1439 0.950 . S
C1410 H1392 0.951 . S
C1410 C1411 1.366 . S
C1410 C1412 1.388 . S
C1411 C1410 1.366 . S
C1411 C1415 1.385 . S
C1412 H1393 0.951 . S
C1412 C1410 1.388 . S
C1412 C1413 1.366 . S
C1413 C1412 1.366 . S
C1413 C1414 1.414 . S
C1413 C1416 1.499 . S
C1414 H1394 0.950 . S
C1414 C1413 1.414 . S
C1414 C1415 1.374 . S
C1415 H1395 0.950 . S
C1415 C1411 1.385 . S
C1415 C1414 1.374 . S
C1416 C1413 1.499 . S
C1416 C1417 1.373 . S
C1416 C1418 1.389 . S
C1417 H1396 0.950 . S
C1417 C1416 1.373 . S
C1417 C1433 1.377 . S
C1418 C1416 1.389 . S
C1418 C1419 1.524 . S
C1418 C1432 1.377 . S
C1419 C1418 1.524 . S
C1419 C1420 1.397 . S
C1419 C1424 1.363 . S
C1420 H1397 0.950 . S
C1420 C1419 1.397 . S
C1420 C1421 1.334 . S
C1421 H1398 0.950 . S
C1421 C1420 1.334 . S
C1421 C1422 1.287 . S
C1422 C1421 1.287 . S
C1422 C1423 1.524 . S
C1422 H1441 0.913 . S
C1423 H1399 0.950 . S
C1423 C1422 1.524 . S
C1423 C1424 1.415 . S
C1424 H1400 0.950 . S
C1424 C1419 1.363 . S
C1424 C1423 1.415 . S
C1425 H1401 0.951 . S
C1425 C1426 1.366 . S
C1425 C1427 1.388 . S
C1426 C1425 1.366 . S
C1426 C1430 1.385 . S
C1427 H1402 0.951 . S
C1427 C1425 1.388 . S
C1427 C1428 1.366 . S
C1428 C1427 1.366 . S
C1428 C1429 1.414 . S
C1428 C1431 1.499 . S
C1429 H1403 0.950 . S
C1429 C1428 1.414 . S
C1429 C1430 1.374 . S
C1430 H1404 0.950 . S
C1430 C1426 1.385 . S
C1430 C1429 1.374 . S
C1431 C1428 1.499 . S
C1431 C1432 1.373 . S
C1431 C1433 1.389 . S
C1432 H1405 0.950 . S
C1432 C1418 1.377 . S
C1432 C1431 1.373 . S
C1433 C1417 1.377 . S
C1433 C1431 1.389 . S
C1433 C1434 1.524 . S
C1434 C1433 1.524 . S
C1434 C1435 1.397 . S
C1434 C1439 1.363 . S
C1435 H1406 0.950 . S
C1435 C1434 1.397 . S
C1435 C1436 1.334 . S
C1436 H1407 0.950 . S
C1436 C1435 1.334 . S
C1436 C1437 1.287 . S
C1437 C1436 1.287 . S
C1437 C1438 1.524 . S
C1437 H1440 0.999 . S
C1438 H1408 0.950 . S
C1438 C1437 1.524 . S
C1438 C1439 1.415 . S
C1439 H1409 0.950 . S
C1439 C1434 1.363 . S
C1439 C1438 1.415 . S
H1440 C1437 0.999 . S
H1441 C1422 0.913 . S
H1442 C1460 0.951 . S
H1443 C1462 0.951 . S
H1444 C1464 0.950 . S
H1445 C1465 0.950 . S
H1446 C1467 0.950 . S
H1447 C1470 0.950 . S
H1448 C1471 0.950 . S
H1449 C1473 0.950 . S
H1450 C1474 0.950 . S
H1451 C1475 0.951 . S
H1452 C1477 0.951 . S
H1453 C1479 0.950 . S
H1454 C1480 0.950 . S
H1455 C1482 0.950 . S
H1456 C1485 0.950 . S
H1457 C1486 0.950 . S
H1458 C1488 0.950 . S
H1459 C1489 0.950 . S
C1460 H1442 0.951 . S
C1460 C1461 1.366 . S
C1460 C1462 1.388 . S
C1461 C1460 1.366 . S
C1461 C1465 1.385 . S
C1462 H1443 0.951 . S
C1462 C1460 1.388 . S
C1462 C1463 1.366 . S
C1463 C1462 1.366 . S
C1463 C1464 1.414 . S
C1463 C1466 1.499 . S
C1464 H1444 0.950 . S
C1464 C1463 1.414 . S
C1464 C1465 1.374 . S
C1465 H1445 0.950 . S
C1465 C1461 1.385 . S
C1465 C1464 1.374 . S
C1466 C1463 1.499 . S
C1466 C1467 1.373 . S
C1466 C1468 1.389 . S
C1467 H1446 0.950 . S
C1467 C1466 1.373 . S
C1467 C1483 1.377 . S
C1468 C1466 1.389 . S
C1468 C1469 1.524 . S
C1468 C1482 1.377 . S
C1469 C1468 1.524 . S
C1469 C1470 1.397 . S
C1469 C1474 1.363 . S
C1470 H1447 0.950 . S
C1470 C1469 1.397 . S
C1470 C1471 1.334 . S
C1471 H1448 0.950 . S
C1471 C1470 1.334 . S
C1471 C1472 1.287 . S
C1472 C1471 1.287 . S
C1472 C1473 1.524 . S
C1472 H1491 0.913 . S
C1473 H1449 0.950 . S
C1473 C1472 1.524 . S
C1473 C1474 1.415 . S
C1474 H1450 0.950 . S
C1474 C1469 1.363 . S
C1474 C1473 1.415 . S
C1475 H1451 0.951 . S
C1475 C1476 1.366 . S
C1475 C1477 1.388 . S
C1476 C1475 1.366 . S
C1476 C1480 1.385 . S
C1477 H1452 0.951 . S
C1477 C1475 1.388 . S
C1477 C1478 1.366 . S
C1478 C1477 1.366 . S
C1478 C1479 1.414 . S
C1478 C1481 1.499 . S
C1479 H1453 0.950 . S
C1479 C1478 1.414 . S
C1479 C1480 1.374 . S
C1480 H1454 0.950 . S
C1480 C1476 1.385 . S
C1480 C1479 1.374 . S
C1481 C1478 1.499 . S
C1481 C1482 1.373 . S
C1481 C1483 1.389 . S
C1482 H1455 0.950 . S
C1482 C1468 1.377 . S
C1482 C1481 1.373 . S
C1483 C1467 1.377 . S
C1483 C1481 1.389 . S
C1483 C1484 1.524 . S
C1484 C1483 1.524 . S
C1484 C1485 1.397 . S
C1484 C1489 1.363 . S
C1485 H1456 0.950 . S
C1485 C1484 1.397 . S
C1485 C1486 1.334 . S
C1486 H1457 0.950 . S
C1486 C1485 1.334 . S
C1486 C1487 1.287 . S
C1487 C1486 1.287 . S
C1487 C1488 1.524 . S
C1487 H1490 0.999 . S
C1488 H1458 0.950 . S
C1488 C1487 1.524 . S
C1488 C1489 1.415 . S
C1489 H1459 0.950 . S
C1489 C1484 1.363 . S
C1489 C1488 1.415 . S
H1490 C1487 0.999 . S
H1491 C1472 0.913 . S
H1492 C1510 0.951 . S
H1493 C1512 0.951 . S
H1494 C1514 0.950 . S
H1495 C1515 0.950 . S
H1496 C1517 0.950 . S
H1497 C1520 0.950 . S
H1498 C1521 0.950 . S
H1499 C1523 0.950 . S
H1500 C1524 0.950 . S
H1501 C1525 0.951 . S
H1502 C1527 0.951 . S
H1503 C1529 0.950 . S
H1504 C1530 0.950 . S
H1505 C1532 0.950 . S
H1506 C1535 0.950 . S
H1507 C1536 0.950 . S
H1508 C1538 0.950 . S
H1509 C1539 0.950 . S
C1510 H1492 0.951 . S
C1510 C1511 1.366 . S
C1510 C1512 1.388 . S
C1511 C1510 1.366 . S
C1511 C1515 1.385 . S
C1512 H1493 0.951 . S
C1512 C1510 1.388 . S
C1512 C1513 1.366 . S
C1513 C1512 1.366 . S
C1513 C1514 1.414 . S
C1513 C1516 1.499 . S
C1514 H1494 0.950 . S
C1514 C1513 1.414 . S
C1514 C1515 1.374 . S
C1515 H1495 0.950 . S
C1515 C1511 1.385 . S
C1515 C1514 1.374 . S
C1516 C1513 1.499 . S
C1516 C1517 1.373 . S
C1516 C1518 1.389 . S
C1517 H1496 0.950 . S
C1517 C1516 1.373 . S
C1517 C1533 1.377 . S
C1518 C1516 1.389 . S
C1518 C1519 1.524 . S
C1518 C1532 1.377 . S
C1519 C1518 1.524 . S
C1519 C1520 1.397 . S
C1519 C1524 1.363 . S
C1520 H1497 0.950 . S
C1520 C1519 1.397 . S
C1520 C1521 1.334 . S
C1521 H1498 0.950 . S
C1521 C1520 1.334 . S
C1521 C1522 1.287 . S
C1522 C1521 1.287 . S
C1522 C1523 1.524 . S
C1522 H1541 0.913 . S
C1523 H1499 0.950 . S
C1523 C1522 1.524 . S
C1523 C1524 1.415 . S
C1524 H1500 0.950 . S
C1524 C1519 1.363 . S
C1524 C1523 1.415 . S
C1525 H1501 0.951 . S
C1525 C1526 1.366 . S
C1525 C1527 1.388 . S
C1526 C1525 1.366 . S
C1526 C1530 1.385 . S
C1527 H1502 0.951 . S
C1527 C1525 1.388 . S
C1527 C1528 1.366 . S
C1528 C1527 1.366 . S
C1528 C1529 1.414 . S
C1528 C1531 1.499 . S
C1529 H1503 0.950 . S
C1529 C1528 1.414 . S
C1529 C1530 1.374 . S
C1530 H1504 0.950 . S
C1530 C1526 1.385 . S
C1530 C1529 1.374 . S
C1531 C1528 1.499 . S
C1531 C1532 1.373 . S
C1531 C1533 1.389 . S
C1532 H1505 0.950 . S
C1532 C1518 1.377 . S
C1532 C1531 1.373 . S
C1533 C1517 1.377 . S
C1533 C1531 1.389 . S
C1533 C1534 1.524 . S
C1534 C1533 1.524 . S
C1534 C1535 1.397 . S
C1534 C1539 1.363 . S
C1535 H1506 0.950 . S
C1535 C1534 1.397 . S
C1535 C1536 1.334 . S
C1536 H1507 0.950 . S
C1536 C1535 1.334 . S
C1536 C1537 1.287 . S
C1537 C1536 1.287 . S
C1537 C1538 1.524 . S
C1537 H1540 0.999 . S
C1538 H1508 0.950 . S
C1538 C1537 1.524 . S
C1538 C1539 1.415 . S
C1539 H1509 0.950 . S
C1539 C1534 1.363 . S
C1539 C1538 1.415 . S
H1540 C1537 0.999 . S
H1541 C1522 0.913 . S
H1542 C1560 0.951 . S
H1543 C1562 0.951 . S
H1544 C1564 0.950 . S
H1545 C1565 0.950 . S
H1546 C1567 0.950 . S
H1547 C1570 0.950 . S
H1548 C1571 0.950 . S
H1549 C1573 0.950 . S
H1550 C1574 0.950 . S
H1551 C1575 0.951 . S
H1552 C1577 0.951 . S
H1553 C1579 0.950 . S
H1554 C1580 0.950 . S
H1555 C1582 0.950 . S
H1556 C1585 0.950 . S
H1557 C1586 0.950 . S
H1558 C1588 0.950 . S
H1559 C1589 0.950 . S
C1560 H1542 0.951 . S
C1560 C1561 1.366 . S
C1560 C1562 1.388 . S
C1561 C1560 1.366 . S
C1561 C1565 1.385 . S
C1562 H1543 0.951 . S
C1562 C1560 1.388 . S
C1562 C1563 1.366 . S
C1563 C1562 1.366 . S
C1563 C1564 1.414 . S
C1563 C1566 1.499 . S
C1564 H1544 0.950 . S
C1564 C1563 1.414 . S
C1564 C1565 1.374 . S
C1565 H1545 0.950 . S
C1565 C1561 1.385 . S
C1565 C1564 1.374 . S
C1566 C1563 1.499 . S
C1566 C1567 1.373 . S
C1566 C1568 1.389 . S
C1567 H1546 0.950 . S
C1567 C1566 1.373 . S
C1567 C1583 1.377 . S
C1568 C1566 1.389 . S
C1568 C1569 1.524 . S
C1568 C1582 1.377 . S
C1569 C1568 1.524 . S
C1569 C1570 1.397 . S
C1569 C1574 1.363 . S
C1570 H1547 0.950 . S
C1570 C1569 1.397 . S
C1570 C1571 1.334 . S
C1571 H1548 0.950 . S
C1571 C1570 1.334 . S
C1571 C1572 1.287 . S
C1572 C1571 1.287 . S
C1572 C1573 1.524 . S
C1572 H1591 0.913 . S
C1573 H1549 0.950 . S
C1573 C1572 1.524 . S
C1573 C1574 1.415 . S
C1574 H1550 0.950 . S
C1574 C1569 1.363 . S
C1574 C1573 1.415 . S
C1575 H1551 0.951 . S
C1575 C1576 1.366 . S
C1575 C1577 1.388 . S
C1576 C1575 1.366 . S
C1576 C1580 1.385 . S
C1577 H1552 0.951 . S
C1577 C1575 1.388 . S
C1577 C1578 1.366 . S
C1578 C1577 1.366 . S
C1578 C1579 1.414 . S
C1578 C1581 1.499 . S
C1579 H1553 0.950 . S
C1579 C1578 1.414 . S
C1579 C1580 1.374 . S
C1580 H1554 0.950 . S
C1580 C1576 1.385 . S
C1580 C1579 1.374 . S
C1581 C1578 1.499 . S
C1581 C1582 1.373 . S
C1581 C1583 1.389 . S
C1582 H1555 0.950 . S
C1582 C1568 1.377 . S
C1582 C1581 1.373 . S
C1583 C1567 1.377 . S
C1583 C1581 1.389 . S
C1583 C1584 1.524 . S
C1584 C1583 1.524 . S
C1584 C1585 1.397 . S
C1584 C1589 1.363 . S
C1585 H1556 0.950 . S
C1585 C1584 1.397 . S
C1585 C1586 1.334 . S
C1586 H1557 0.950 . S
C1586 C1585 1.334 . S
C1586 C1587 1.287 . S
C1587 C1586 1.287 . S
C1587 C1588 1.524 . S
C1587 H1590 0.999 . S
C1588 H1558 0.950 . S
C1588 C1587 1.524 . S
C1588 C1589 1.415 . S
C1589 H1559 0.950 . S
C1589 C1584 1.363 . S
C1589 C1588 1.415 . S
H1590 C1587 0.999 . S
H1591 C1572 0.913 . S
C411 C1 1.528 . S
C426 C331 1.502 . S
C461 C40 1.319 . S
C476 C334 1.267 . S
C526 C370 1.721 . S
C511 C99 1.746 . S
C561 C118 1.635 . S
C576 C390 1.611 . S
C626 C344 1.755 . S
C611 C16 1.789 . S
C676 C321 1.556 . S
C661 C60 1.584 . S
C726 C374 1.537 . S
C711 C79 1.651 . S
C776 C354 1.349 . S
C761 C138 1.426 . S
C811 C21 1.350 . S
C826 C384 1.305 . S
C876 C350 1.589 . S
C861 C94 1.612 . S
C911 C133 1.640 . S
C926 C316 1.574 . S
C961 C55 1.348 . S
C976 C364 1.317 . S
C1026 C330 1.506 . S
C1011 C157 1.536 . S
C1061 C196 1.319 . S
C1076 C336 1.269 . S
C1111 C255 1.745 . S
C1126 C371 1.719 . S
C1161 C289 1.629 . S
C1176 C391 1.606 . S
C1211 C172 1.785 . S
C1226 C341 1.752 . S
C1276 C324 1.556 . S
C1261 C216 1.584 . S
C1326 C376 1.537 . S
C1311 C235 1.652 . S
C1376 C356 1.345 . S
C1361 C294 1.427 . S
C1411 C177 1.356 . S
C1426 C381 1.306 . S
C1476 C351 1.591 . S
C1461 C250 1.613 . S
C1526 C314 1.579 . S
C1511 C274 1.644 . S
C1561 C211 1.343 . S
C1576 C361 1.312 . S
