# Generated by pormake.
# Topology rtl, (3,6)-cn, num edge types: 1
# Building blocks:
#     Node 0, Type 0, BuildingBlock: PAMTOO_clean_linker_0, # of connection points: 3
#     Node 1, Type 0, BuildingBlock: PAMTOO_clean_linker_0, # of connection points: 3
#     Node 2, Type 0, BuildingBlock: PAMTOO_clean_linker_0, # of connection points: 3
#     Node 3, Type 0, BuildingBlock: PAMTOO_clean_linker_0, # of connection points: 3
#     Node 4, Type 1, BuildingBlock: FUNLAD_clean_sbu_0, # of connection points: 6
#     Node 5, Type 1, BuildingBlock: FUNLAD_clean_sbu_0, # of connection points: 6
#     Edge 6, Type (0, 1), BuildingBlock: FUNLAD_clean_linker_1, # of connection points: 2
#     Edge 7, Type (0, 1), BuildingBlock: FUNLAD_clean_linker_1, # of connection points: 2
#     Edge 8, Type (0, 1), BuildingBlock: FUNLAD_clean_linker_1, # of connection points: 2
#     Edge 9, Type (0, 1), BuildingBlock: FUNLAD_clean_linker_1, # of connection points: 2
#     Edge 10, Type (0, 1), BuildingBlock: FUNLAD_clean_linker_1, # of connection points: 2
#     Edge 11, Type (0, 1), BuildingBlock: FUNLAD_clean_linker_1, # of connection points: 2
#     Edge 12, Type (0, 1), BuildingBlock: FUNLAD_clean_linker_1, # of connection points: 2
#     Edge 13, Type (0, 1), BuildingBlock: FUNLAD_clean_linker_1, # of connection points: 2
#     Edge 14, Type (0, 1), BuildingBlock: FUNLAD_clean_linker_1, # of connection points: 2
#     Edge 15, Type (0, 1), BuildingBlock: FUNLAD_clean_linker_1, # of connection points: 2
#     Edge 16, Type (0, 1), BuildingBlock: FUNLAD_clean_linker_1, # of connection points: 2
#     Edge 17, Type (0, 1), BuildingBlock: FUNLAD_clean_linker_1, # of connection points: 2
# Relax obj value: 0.003
# Max RMSD: 0.042
# Mean RMSD: 0.032
data_MOF--net-rtl--node1-FUNLAD_clean_sbu_0--node2-PAMTOO_clean_linker_0--edge1-FUNLAD_clean_linker_1
_symmetry_space_group_name_H-M    P1
_symmetry_Int_Tables_number       1
_symmetry_cell_setting            triclinic
loop_
_symmetry_equiv_pos_as_xyz
'x, y, z'
_cell_length_a     41.407024
_cell_length_b     41.505907
_cell_length_c     21.785892
_cell_angle_alpha  92.260368
_cell_angle_beta   90.923331
_cell_angle_gamma 90.014847
loop_
_atom_site_label
_atom_site_type_symbol
_atom_site_fract_x
_atom_site_fract_y
_atom_site_fract_z
_atom_type_partial_charge
H0 H 0.12697 0.88258 0.99255 0.0
H1 H 0.18025 0.8152 0.09907 0.0
H2 H 0.20131 0.82417 0.90796 0.0
H3 H 0.18985 0.7573 0.96102 0.0
C4 C 0.20658 0.76111 0.00117 0.0
O5 O 0.21538 0.79319 0.00748 0.0
H6 H 0.19411 0.75379 0.04324 0.0
C7 C 0.14509 0.86381 0.99482 0.0
C8 C 0.16302 0.85489 0.94262 0.0
C9 C 0.15122 0.84994 0.05132 0.0
C10 C 0.17558 0.8266 0.05593 0.0
C11 C 0.19321 0.81697 0.00388 0.0
C12 C 0.1873 0.8315 0.9477 0.0
H13 H 0.62448 0.62891 0.53651 0.0
H14 H 0.67785 0.6951 0.43056 0.0
H15 H 0.70263 0.68422 0.62089 0.0
H16 H 0.70367 0.75128 0.58355 0.0
C17 C 0.70902 0.74726 0.53393 0.0
O18 O 0.71579 0.71514 0.52157 0.0
H19 H 0.68752 0.75461 0.50657 0.0
C20 C 0.64313 0.64711 0.53439 0.0
C21 C 0.66238 0.65522 0.58651 0.0
C22 C 0.64867 0.66101 0.47802 0.0
C23 C 0.67363 0.68365 0.47354 0.0
C24 C 0.69274 0.69226 0.52533 0.0
C25 C 0.6875 0.67763 0.58131 0.0
H26 H 0.90256 0.13717 0.01398 0.0
H27 H 0.84133 0.20272 0.91795 0.0
H28 H 0.8421 0.20394 0.11512 0.0
H29 H 0.77778 0.2123 0.05879 0.0
C30 C 0.78466 0.22484 0.01672 0.0
O31 O 0.81753 0.23025 0.01751 0.0
H32 H 0.77771 0.20967 0.97532 0.0
C33 C 0.88383 0.15535 0.01469 0.0
C34 C 0.87279 0.16803 0.07137 0.0
C35 C 0.87233 0.16734 0.95896 0.0
C36 C 0.85014 0.19287 0.9604 0.0
C37 C 0.83902 0.20575 0.01661 0.0
C38 C 0.85057 0.19356 0.07189 0.0
H39 H 0.38541 0.38976 0.50087 0.0
H40 H 0.31999 0.32818 0.59321 0.0
H41 H 0.33705 0.31177 0.40078 0.0
H42 H 0.26919 0.30207 0.4363 0.0
C43 C 0.27331 0.29447 0.48419 0.0
O44 O 0.30601 0.29168 0.49582 0.0
H45 H 0.26273 0.31272 0.51687 0.0
C46 C 0.36881 0.36965 0.49952 0.0
C47 C 0.36271 0.35232 0.44364 0.0
C48 C 0.35375 0.361 0.55395 0.0
C49 C 0.33196 0.33509 0.55184 0.0
C50 C 0.32607 0.31738 0.49675 0.0
C51 C 0.34165 0.32579 0.44304 0.0
C52 C 0.04499 0.97049 0.41715 0.0
N53 N 0.05873 0.05902 0.51409 0.0
C54 C 0.09109 0.05333 0.51339 0.0
C55 C 0.113 0.07898 0.51269 0.0
C56 C 0.10145 0.11092 0.51284 0.0
C57 C 0.06795 0.11592 0.51456 0.0
C58 C 0.04697 0.08963 0.51513 0.0
Zn59 Zn 0.02647 0.02145 0.51016 0.0
C60 C 0.97375 0.03226 0.41735 0.0
N61 N 0.9578 0.94401 0.49919 0.0
C62 C 0.96798 0.91284 0.49917 0.0
C63 C 0.9258 0.95138 0.50003 0.0
C64 C 0.90262 0.92704 0.50213 0.0
C65 C 0.9124 0.89457 0.50296 0.0
C66 C 0.94558 0.88769 0.50123 0.0
Zn67 Zn 0.99067 0.98106 0.50292 0.0
O68 O 0.05379 0.99751 0.44123 0.0
C69 C 0.04325 0.96976 0.59494 0.0
O70 O 0.01885 0.95755 0.43382 0.0
H71 H 0.9182 0.97632 0.50056 0.0
H72 H 0.09994 0.0288 0.51249 0.0
H73 H 0.99354 0.90748 0.49878 0.0
O74 O 0.0532 0.99705 0.57839 0.0
O75 O 0.01757 0.9577 0.57114 0.0
H76 H 0.02118 0.09369 0.51556 0.0
O77 O 0.96336 1.00523 0.57263 0.0
O78 O 0.99872 0.0447 0.57951 0.0
O79 O 0.96429 1.005 0.43447 0.0
O80 O 0.99915 0.04494 0.44141 0.0
C81 C 0.97269 0.032 0.59701 0.0
H82 H 0.13846 0.07343 0.51117 0.0
H83 H 0.05796 0.14005 0.51469 0.0
H84 H 0.87754 0.93401 0.50517 0.0
H85 H 0.95415 0.86306 0.50227 0.0
C86 C 0.47382 0.47624 0.91964 0.0
N87 N 0.55994 0.45203 0.01024 0.0
C88 C 0.54924 0.42102 0.00807 0.0
C89 C 0.57114 0.39547 0.00836 0.0
C90 C 0.60448 0.40167 0.01093 0.0
C91 C 0.61489 0.43402 0.01285 0.0
C92 C 0.59209 0.45888 0.01238 0.0
Zn93 Zn 0.52667 0.48863 0.01192 0.0
C94 C 0.54266 0.54071 0.92775 0.0
N95 N 0.45613 0.56431 0.01633 0.0
C96 C 0.4241 0.55698 0.01274 0.0
C97 C 0.46632 0.59547 0.02239 0.0
C98 C 0.44395 0.62066 0.02541 0.0
C99 C 0.41078 0.61387 0.0214 0.0
C100 C 0.40091 0.58144 0.01521 0.0
Zn101 Zn 0.48956 0.5278 0.01418 0.0
O102 O 0.50016 0.46492 0.94009 0.0
C103 C 0.47326 0.47635 0.09904 0.0
O104 O 0.463 0.50275 0.94227 0.0
H105 H 0.49188 0.60083 0.02525 0.0
H106 H 0.52359 0.41604 0.00648 0.0
H107 H 0.41648 0.53205 0.00861 0.0
O108 O 0.49926 0.46421 0.07808 0.0
O109 O 0.46341 0.50326 0.08032 0.0
H110 H 0.6001 0.48371 0.0142 0.0
O111 O 0.51701 0.55193 0.08591 0.0
O112 O 0.55286 0.51288 0.08325 0.0
O113 O 0.51622 0.5519 0.94815 0.0
O114 O 0.55332 0.51397 0.9463 0.0
C115 C 0.54316 0.53974 0.10579 0.0
H116 H 0.56202 0.37098 0.00693 0.0
H117 H 0.64014 0.44051 0.01525 0.0
H118 H 0.45252 0.6453 0.0307 0.0
H119 H 0.37565 0.57478 0.01377 0.0
H120 H 0.27181 0.24079 0.49292 0.0
C121 C 0.25713 0.26249 0.49162 0.0
H122 H 0.21008 0.28167 0.48921 0.0
H123 H 0.1441 0.15119 0.39459 0.0
H124 H 0.14215 0.18163 0.30191 0.0
H125 H 0.17028 0.23385 0.29736 0.0
H126 H 0.20071 0.25585 0.38538 0.0
C127 C 0.22484 0.26021 0.49376 0.0
C128 C 0.2082 0.22852 0.49704 0.0
C129 C 0.19004 0.21626 0.44555 0.0
C130 C 0.17339 0.18638 0.44849 0.0
C131 C 0.15643 0.17418 0.39556 0.0
C132 C 0.1553 0.1913 0.34185 0.0
C133 C 0.17117 0.22069 0.33927 0.0
C134 C 0.18847 0.23308 0.39024 0.0
H135 H 0.1112 0.1631 0.5068 0.0
C136 C 0.12286 0.13968 0.50943 0.0
H137 H 0.16864 0.11659 0.51287 0.0
H138 H 0.23952 0.24579 0.60524 0.0
H139 H 0.24186 0.21505 0.69749 0.0
H140 H 0.21358 0.16291 0.70204 0.0
H141 H 0.18261 0.14127 0.61434 0.0
C142 C 0.15535 0.13884 0.50817 0.0
C143 C 0.17438 0.16912 0.50344 0.0
C144 C 0.19304 0.18105 0.55452 0.0
C145 C 0.20974 0.21093 0.55157 0.0
C146 C 0.22704 0.22289 0.60427 0.0
C147 C 0.22843 0.20557 0.65773 0.0
C148 C 0.21248 0.17623 0.66032 0.0
C149 C 0.19483 0.16406 0.60959 0.0
H150 H 0.23417 0.72109 0.95542 0.0
C151 C 0.23564 0.74 0.99135 0.0
H152 H 0.26237 0.75944 0.06702 0.0
H153 H 0.33887 0.63092 0.11482 0.0
H154 H 0.30848 0.63879 0.20846 0.0
H155 H 0.26823 0.68239 0.21883 0.0
H156 H 0.25816 0.7184 0.13584 0.0
C157 C 0.26168 0.74171 0.02896 0.0
C158 C 0.28796 0.71718 0.02416 0.0
C159 C 0.29374 0.6965 0.07353 0.0
C160 C 0.31686 0.67125 0.06754 0.0
C161 C 0.32173 0.65059 0.11706 0.0
C162 C 0.3044 0.65478 0.17104 0.0
C163 C 0.28175 0.67933 0.17688 0.0
C164 C 0.27627 0.69992 0.12882 0.0
H165 H 0.39559 0.66359 0.04822 0.0
C166 C 0.38733 0.64095 0.02649 0.0
H167 H 0.34806 0.61772 0.97933 0.0
H168 H 0.28721 0.75592 0.92506 0.0
H169 H 0.31795 0.74807 0.83182 0.0
H170 H 0.35615 0.70273 0.8198 0.0
H171 H 0.36414 0.66519 0.90139 0.0
C172 C 0.35682 0.6391 0.00457 0.0
C173 C 0.33417 0.66673 0.01228 0.0
C174 C 0.32919 0.68796 0.96371 0.0
C175 C 0.30647 0.71356 0.97 0.0
C176 C 0.30316 0.73531 0.92182 0.0
C177 C 0.32089 0.73126 0.86825 0.0
C178 C 0.34244 0.70577 0.86153 0.0
C179 C 0.34674 0.68437 0.90863 0.0
H180 H 0.73558 0.78047 0.47427 0.0
C181 C 0.73707 0.76782 0.51698 0.0
H182 H 0.7642 0.75962 0.59741 0.0
H183 H 0.86878 0.82831 0.41045 0.0
H184 H 0.86485 0.7786 0.34829 0.0
H185 H 0.8267 0.7358 0.37462 0.0
H186 H 0.79197 0.7426 0.46288 0.0
C187 C 0.76315 0.77161 0.55396 0.0
C188 C 0.78858 0.79571 0.54109 0.0
C189 C 0.80934 0.79095 0.49034 0.0
C190 C 0.83203 0.81524 0.47622 0.0
C191 C 0.85165 0.81036 0.42405 0.0
C192 C 0.84957 0.78198 0.38787 0.0
C193 C 0.82803 0.75791 0.40261 0.0
C194 C 0.80811 0.76219 0.45321 0.0
H195 H 0.8985 0.84484 0.52525 0.0
C196 C 0.88909 0.86763 0.50962 0.0
H197 H 0.84658 0.89209 0.48223 0.0
H198 H 0.7533 0.81199 0.64308 0.0
H199 H 0.75861 0.86082 0.7072 0.0
H200 H 0.79877 0.90234 0.68398 0.0
H201 H 0.83379 0.89531 0.59631 0.0
C202 C 0.85714 0.87005 0.49845 0.0
C203 C 0.83443 0.84386 0.51374 0.0
C204 C 0.81433 0.84819 0.56547 0.0
C205 C 0.79142 0.82409 0.57922 0.0
C206 C 0.77135 0.82931 0.63075 0.0
C207 C 0.77411 0.85728 0.66795 0.0
C208 C 0.79669 0.88067 0.65485 0.0
C209 C 0.81661 0.87633 0.60429 0.0
H210 H 0.7806 0.27878 0.01532 0.0
C211 C 0.76695 0.25638 0.01494 0.0
H212 H 0.7209 0.23484 0.01481 0.0
H213 H 0.65104 0.3592 0.125 0.0
H214 H 0.65233 0.32572 0.21367 0.0
H215 H 0.6828 0.27464 0.21189 0.0
H216 H 0.71237 0.25687 0.12152 0.0
C217 C 0.73454 0.25716 0.01308 0.0
C218 C 0.71637 0.28812 0.01359 0.0
C219 C 0.69872 0.29788 0.06635 0.0
C220 C 0.6807 0.32707 0.06701 0.0
C221 C 0.66433 0.3368 0.12124 0.0
C222 C 0.66506 0.31792 0.1727 0.0
C223 C 0.68225 0.28919 0.17172 0.0
C224 C 0.69904 0.27923 0.11944 0.0
H225 H 0.61627 0.34974 0.01353 0.0
C226 C 0.62699 0.37366 0.01255 0.0
H227 H 0.67176 0.3986 0.00995 0.0
H228 H 0.74616 0.27569 0.90368 0.0
H229 H 0.74515 0.30939 0.81533 0.0
H230 H 0.71441 0.3603 0.81695 0.0
H231 H 0.68434 0.37774 0.90691 0.0
C232 C 0.65946 0.37573 0.01324 0.0
C233 C 0.67978 0.34611 0.01432 0.0
C234 C 0.69786 0.33664 0.96193 0.0
C235 C 0.71596 0.30747 0.96131 0.0
C236 C 0.73268 0.29797 0.90736 0.0
C237 C 0.73215 0.317 0.8561 0.0
C238 C 0.71481 0.34565 0.85698 0.0
C239 C 0.69771 0.3554 0.90901 0.0
H240 H 0.10624 0.86709 0.09396 0.0
C241 C 0.13116 0.86044 0.10389 0.0
H242 H 0.16826 0.86125 0.17181 0.0
H243 H 0.05285 0.96759 0.25416 0.0
H244 H 0.0688 0.99635 0.16491 0.0
H245 H 0.11141 0.97485 0.09686 0.0
H246 H 0.13752 0.92401 0.11678 0.0
C247 C 0.14328 0.86686 0.16057 0.0
C248 C 0.12285 0.88302 0.20839 0.0
C249 C 0.10967 0.91405 0.19866 0.0
C250 C 0.08689 0.92761 0.24037 0.0
C251 C 0.07175 0.95708 0.22617 0.0
C252 C 0.08045 0.97374 0.1747 0.0
C253 C 0.1043 0.96156 0.13623 0.0
C254 C 0.11886 0.93213 0.14789 0.0
H255 H 0.08808 0.96653 0.35962 0.0
C256 C 0.06559 0.95465 0.37055 0.0
H257 H 0.03574 0.91396 0.35271 0.0
H258 H 0.14486 0.82405 0.24214 0.0
H259 H 0.13183 0.79701 0.33537 0.0
H260 H 0.09524 0.82224 0.41148 0.0
H261 H 0.07111 0.87444 0.39456 0.0
C262 C 0.05761 0.92668 0.34107 0.0
C263 C 0.07947 0.91146 0.29464 0.0
C264 C 0.09368 0.88108 0.30564 0.0
C265 C 0.11524 0.86676 0.26227 0.0
C266 C 0.12858 0.83614 0.27383 0.0
C267 C 0.12131 0.82036 0.32716 0.0
C268 C 0.10069 0.83455 0.36999 0.0
C269 C 0.08696 0.86453 0.35964 0.0
H270 H 0.67807 0.63608 0.67607 0.0
C271 C 0.65738 0.63929 0.64556 0.0
H272 H 0.6071 0.63195 0.63283 0.0
H273 H 0.59253 0.50645 0.77586 0.0
H274 H 0.59658 0.48336 0.67222 0.0
H275 H 0.61361 0.51666 0.58713 0.0
H276 H 0.62663 0.57329 0.60517 0.0
C277 C 0.62828 0.62828 0.66169 0.0
C278 C 0.62389 0.60756 0.71492 0.0
C279 C 0.6171 0.57433 0.70387 0.0
C280 C 0.60759 0.55508 0.75298 0.0
C281 C 0.60008 0.52216 0.74032 0.0
C282 C 0.6023 0.50858 0.68102 0.0
C283 C 0.61187 0.52734 0.6331 0.0
C284 C 0.61918 0.55983 0.64408 0.0
H285 H 0.54871 0.5806 0.86555 0.0
C286 C 0.56027 0.5591 0.88254 0.0
H287 H 0.60119 0.52872 0.87688 0.0
H288 H 0.63722 0.66999 0.75231 0.0
H289 H 0.63623 0.6923 0.85696 0.0
H290 H 0.62208 0.65823 0.94288 0.0
H291 H 0.6084 0.6017 0.9245 0.0
C292 C 0.58949 0.55051 0.86168 0.0
C293 C 0.60482 0.56916 0.81295 0.0
C294 C 0.61409 0.60176 0.82482 0.0
C295 C 0.62322 0.62114 0.77555 0.0
C296 C 0.63074 0.65403 0.7882 0.0
C297 C 0.63023 0.66715 0.84805 0.0
C298 C 0.62219 0.64798 0.89641 0.0
C299 C 0.6142 0.61565 0.88521 0.0
H300 H 0.88769 0.17307 0.16957 0.0
C301 C 0.88577 0.15616 0.13026 0.0
H302 H 0.89304 0.10805 0.09793 0.0
H303 H 0.00902 0.07418 0.27014 0.0
H304 H 0.03555 0.07787 0.17229 0.0
H305 H 1.00659 0.09902 0.0826 0.0
H306 H 0.95089 0.1164 0.09013 0.0
C307 C 0.89539 0.12546 0.13628 0.0
C308 C 0.91295 0.11484 0.19203 0.0
C309 C 0.94574 0.10531 0.1871 0.0
C310 C 0.9626 0.09359 0.23901 0.0
C311 C 0.99513 0.08362 0.2324 0.0
C312 C 0.01068 0.08557 0.17644 0.0
C313 C 0.99437 0.09744 0.12594 0.0
C314 C 0.96232 0.10725 0.13091 0.0
H315 H 0.93463 0.03598 0.34819 0.0
C316 C 0.95545 0.04844 0.36888 0.0
H317 H 0.98532 0.08969 0.36753 0.0
H318 H 0.84963 0.129 0.21639 0.0
H319 H 0.82376 0.12723 0.31524 0.0
H320 H 0.85412 0.11034 0.40688 0.0
H321 H 0.9104 0.09458 0.3999 0.0
C322 C 0.96399 0.07736 0.34874 0.0
C323 C 0.94668 0.09153 0.29583 0.0
C324 C 0.91419 0.10198 0.3013 0.0
C325 C 0.89709 0.11305 0.24902 0.0
C326 C 0.86414 0.12155 0.25501 0.0
C327 C 0.84892 0.12046 0.31145 0.0
C328 C 0.86597 0.11085 0.363 0.0
C329 C 0.89822 0.10169 0.35828 0.0
H330 H 0.34109 0.38007 0.64709 0.0
C331 C 0.36013 0.37896 0.61325 0.0
H332 H 0.40851 0.39129 0.59498 0.0
H333 H 0.4248 0.51254 0.76962 0.0
H334 H 0.42003 0.53744 0.67106 0.0
H335 H 0.40307 0.50559 0.57809 0.0
H336 H 0.39097 0.44858 0.58305 0.0
C337 C 0.38886 0.39273 0.62735 0.0
C338 C 0.39471 0.41228 0.68517 0.0
C339 C 0.40098 0.44575 0.68178 0.0
C340 C 0.41031 0.46422 0.73553 0.0
C341 C 0.41733 0.4974 0.73039 0.0
C342 C 0.41469 0.51203 0.67406 0.0
C343 C 0.40517 0.49409 0.62171 0.0
C344 C 0.39839 0.46135 0.62521 0.0
H345 H 0.46852 0.43706 0.84946 0.0
C346 C 0.45674 0.45839 0.86919 0.0
H347 H 0.41605 0.48897 0.86447 0.0
H348 H 0.38499 0.34843 0.70824 0.0
H349 H 0.38617 0.3245 0.80788 0.0
H350 H 0.39812 0.3576 0.90208 0.0
H351 H 0.40965 0.41477 0.89683 0.0
C352 C 0.42789 0.4673 0.84653 0.0
C353 C 0.41322 0.44919 0.79262 0.0
C354 C 0.40469 0.41623 0.79679 0.0
C355 C 0.39623 0.39752 0.7428 0.0
C356 C 0.39026 0.36413 0.74787 0.0
C357 C 0.39104 0.35001 0.80485 0.0
C358 C 0.39788 0.36861 0.85785 0.0
C359 C 0.40467 0.40134 0.85415 0.0
H360 H 0.60278 0.64476 0.43464 0.0
C361 C 0.62768 0.65101 0.42515 0.0
H362 H 0.66401 0.64962 0.35799 0.0
H363 H 0.54806 0.54383 0.26995 0.0
H364 H 0.56378 0.51514 0.36042 0.0
H365 H 0.60626 0.53676 0.43136 0.0
H366 H 0.63243 0.58759 0.41314 0.0
C367 C 0.63906 0.64442 0.36869 0.0
C368 C 0.61799 0.62853 0.32032 0.0
C369 C 0.60472 0.59752 0.32936 0.0
C370 C 0.58204 0.58389 0.28612 0.0
C371 C 0.56687 0.55438 0.29929 0.0
C372 C 0.57545 0.53778 0.3514 0.0
C373 C 0.59922 0.55002 0.39149 0.0
C374 C 0.61381 0.57947 0.38078 0.0
H375 H 0.58532 0.54498 0.16797 0.0
C376 C 0.56275 0.55627 0.1544 0.0
H377 H 0.53184 0.5963 0.16846 0.0
H378 H 0.63967 0.68772 0.28824 0.0
H379 H 0.62659 0.71476 0.19427 0.0
H380 H 0.59017 0.68937 0.11573 0.0
H381 H 0.56626 0.637 0.13094 0.0
C382 C 0.55381 0.58413 0.1826 0.0
C383 C 0.57482 0.5999 0.23118 0.0
C384 C 0.58881 0.63041 0.22126 0.0
C385 C 0.61027 0.64483 0.26607 0.0
C386 C 0.62349 0.67554 0.25545 0.0
C387 C 0.61618 0.69133 0.20171 0.0
C388 C 0.59565 0.67705 0.15752 0.0
C389 C 0.58207 0.64696 0.16688 0.0
H390 H 0.88677 0.17126 0.86194 0.0
C391 C 0.88484 0.15474 0.89922 0.0
H392 H 0.8917 0.10686 0.9264 0.0
H393 H 0.90842 0.09325 0.62251 0.0
H394 H 0.8523 0.10954 0.61489 0.0
H395 H 0.82211 0.12618 0.70756 0.0
H396 H 0.84804 0.12721 0.8082 0.0
C397 C 0.89407 0.12386 0.8901 0.0
C398 C 0.91129 0.11256 0.83385 0.0
C399 C 0.89535 0.11105 0.77567 0.0
C400 C 0.91232 0.10004 0.72256 0.0
C401 C 0.89634 0.10023 0.66462 0.0
C402 C 0.86417 0.10971 0.65954 0.0
C403 C 0.84722 0.11918 0.71168 0.0
C404 C 0.86247 0.11986 0.76918 0.0
H405 H 0.93256 0.03481 0.6624 0.0
C406 C 0.95368 0.04746 0.64661 0.0
H407 H 0.98381 0.08831 0.65975 0.0
H408 H 0.94925 0.11308 0.9383 0.0
H409 H 1.00461 0.09471 0.94636 0.0
H410 H 0.03322 0.07335 0.855 0.0
H411 H 1.00668 0.07051 0.75499 0.0
C412 C 0.96218 0.07589 0.67376 0.0
C413 C 0.94472 0.08926 0.72822 0.0
C414 C 0.96059 0.09067 0.78641 0.0
C415 C 0.94391 0.10243 0.83922 0.0
C416 C 0.96051 0.10389 0.89671 0.0
C417 C 0.99238 0.0935 0.90203 0.0
C418 C 0.0085 0.08153 0.8506 0.0
C419 C 0.99294 0.08008 0.79339 0.0
H420 H 0.38255 0.34158 0.35101 0.0
C421 C 0.3791 0.36061 0.38605 0.0
H422 H 0.38574 0.41032 0.4086 0.0
H423 H 0.50764 0.43238 0.25006 0.0
H424 H 0.53259 0.42948 0.35113 0.0
H425 H 0.50136 0.41162 0.43911 0.0
H426 H 0.44491 0.39673 0.4266 0.0
C427 C 0.38944 0.39058 0.37533 0.0
C428 C 0.40868 0.39779 0.32046 0.0
C429 C 0.44181 0.40587 0.32828 0.0
C430 C 0.45992 0.41577 0.27741 0.0
C431 C 0.49278 0.4244 0.28693 0.0
C432 C 0.50743 0.42287 0.34476 0.0
C433 C 0.48984 0.41285 0.3943 0.0
C434 C 0.45742 0.40444 0.38648 0.0
H435 H 0.43342 0.47248 0.16398 0.0
C436 C 0.45458 0.46011 0.14581 0.0
H437 H 0.48457 0.4191 0.15126 0.0
H438 H 0.34553 0.38434 0.28957 0.0
H439 H 0.32128 0.38476 0.18754 0.0
H440 H 0.35355 0.3989 0.09825 0.0
H441 H 0.41019 0.41321 0.1107 0.0
C442 C 0.46296 0.43139 0.16748 0.0
C443 C 0.44485 0.41756 0.21877 0.0
C444 C 0.41215 0.40789 0.21028 0.0
C445 C 0.39386 0.39854 0.2614 0.0
C446 C 0.36081 0.39071 0.25214 0.0
C447 C 0.34654 0.39097 0.19381 0.0
C448 C 0.36468 0.39903 0.14357 0.0
C449 C 0.39711 0.40739 0.15141 0.0
H450 H 0.1779 0.87413 0.85363 0.0
C451 C 0.15751 0.87097 0.88364 0.0
H452 H 0.10752 0.8787 0.89592 0.0
H453 H 0.08812 1.00391 0.75489 0.0
H454 H 0.089 0.02553 0.85999 0.0
H455 H 0.10635 0.99183 0.94532 0.0
H456 H 0.12267 0.93627 0.92607 0.0
C457 C 0.1283 0.8823 0.86722 0.0
C458 C 0.1234 0.90347 0.81448 0.0
C459 C 0.11482 0.93619 0.82634 0.0
C460 C 0.10528 0.95575 0.77713 0.0
C461 C 0.09583 0.98805 0.79051 0.0
C462 C 0.09624 1.00078 0.85065 0.0
C463 C 0.10596 0.9818 0.89868 0.0
C464 C 0.11516 0.94989 0.88698 0.0
H465 H 0.04987 0.92943 0.6562 0.0
C466 C 0.0608 0.95164 0.64159 0.0
H467 H 0.10027 0.98373 0.65385 0.0
H468 H 0.13931 0.84196 0.77543 0.0
H469 H 0.14135 0.8214 0.6698 0.0
H470 H 0.12782 0.85638 0.58408 0.0
H471 H 0.11167 0.91206 0.60369 0.0
C472 C 0.08924 0.96123 0.66652 0.0
C473 C 0.10444 0.94255 0.7162 0.0
C474 C 0.11536 0.91058 0.70386 0.0
C475 C 0.12431 0.89078 0.75317 0.0
C476 C 0.13316 0.85835 0.73973 0.0
C477 C 0.13433 0.8462 0.67926 0.0
C478 C 0.12663 0.86587 0.631 0.0
C479 C 0.11722 0.89769 0.64288 0.0
loop_
_geom_bond_atom_site_label_1
_geom_bond_atom_site_label_2
_geom_bond_distance
_geom_bond_site_symmetry_2
_ccdc_geom_bond_type
H0 C7 0.929 . S
H1 C10 0.930 . S
H2 C12 0.929 . S
H3 C4 0.969 . S
C4 H3 0.969 . S
C4 O5 1.550 1_554 S
C4 H6 0.973 . S
O5 C4 1.550 1_556 S
O5 C11 1.410 1_556 S
H6 C4 0.973 . S
C7 H0 0.929 . S
C7 C8 1.400 1_554 S
C7 C9 1.364 . S
C8 C7 1.400 1_556 S
C8 C12 1.377 . S
C9 C7 1.364 . S
C9 C10 1.374 . S
C10 H1 0.930 . S
C10 C9 1.374 . S
C10 C11 1.392 . S
C11 O5 1.410 1_554 S
C11 C10 1.392 . S
C11 C12 1.386 1_554 S
C12 H2 0.929 . S
C12 C8 1.377 . S
C12 C11 1.386 1_556 S
H13 C20 0.929 . S
H14 C23 0.930 . S
H15 C25 0.929 . S
H16 C17 0.969 . S
C17 H16 0.969 . S
C17 O18 1.550 . S
C17 H19 0.973 . S
O18 C17 1.550 . S
O18 C24 1.412 . S
H19 C17 0.973 . S
C20 H13 0.929 . S
C20 C21 1.400 . S
C20 C22 1.364 . S
C21 C20 1.400 . S
C21 C25 1.377 . S
C22 C20 1.364 . S
C22 C23 1.374 . S
C23 H14 0.930 . S
C23 C22 1.374 . S
C23 C24 1.383 . S
C24 O18 1.412 . S
C24 C23 1.383 . S
C24 C25 1.394 . S
C25 H15 0.929 . S
C25 C21 1.377 . S
C25 C24 1.394 . S
H26 C33 0.929 . S
H27 C36 0.930 . S
H28 C38 0.929 . S
H29 C30 0.969 . S
C30 H29 0.969 . S
C30 O31 1.550 1_556 S
C30 H32 0.973 . S
O31 C30 1.550 1_554 S
O31 C37 1.412 . S
H32 C30 0.973 . S
C33 H26 0.929 . S
C33 C34 1.400 . S
C33 C35 1.364 1_554 S
C34 C33 1.400 . S
C34 C38 1.377 . S
C35 C33 1.364 1_556 S
C35 C36 1.374 . S
C36 H27 0.930 . S
C36 C35 1.374 . S
C36 C37 1.383 1_556 S
C37 O31 1.412 . S
C37 C36 1.383 1_554 S
C37 C38 1.394 . S
C38 H28 0.929 . S
C38 C34 1.377 . S
C38 C37 1.394 . S
H39 C46 0.929 . S
H40 C49 0.930 . S
H41 C51 0.929 . S
H42 C43 0.969 . S
C43 H42 0.969 . S
C43 O44 1.550 . S
C43 H45 0.973 . S
O44 C43 1.550 . S
O44 C50 1.412 . S
H45 C43 0.973 . S
C46 H39 0.929 . S
C46 C47 1.400 . S
C46 C48 1.364 . S
C47 C46 1.400 . S
C47 C51 1.377 . S
C48 C46 1.364 . S
C48 C49 1.374 . S
C49 H40 0.930 . S
C49 C48 1.374 . S
C49 C50 1.383 . S
C50 O44 1.412 . S
C50 C49 1.383 . S
C50 C51 1.394 . S
C51 H41 0.929 . S
C51 C47 1.377 . S
C51 C50 1.394 . S
C52 O68 1.251 . S
C52 O70 1.254 . S
N53 C54 1.333 . S
N53 C58 1.307 . S
N53 Zn59 2.020 . S
C54 N53 1.333 . S
C54 C55 1.379 . S
C54 H72 0.952 . S
C55 C54 1.379 . S
C55 C56 1.390 . S
C55 H82 0.949 . S
C56 C55 1.390 . S
C56 C57 1.357 . S
C57 C56 1.357 . S
C57 C58 1.370 . S
C57 H83 0.950 . S
C58 N53 1.307 . S
C58 C57 1.370 . S
C58 H76 0.948 . S
Zn59 N53 2.020 . S
Zn59 O68 2.039 1_545 S
Zn59 O74 2.034 1_545 S
Zn59 O78 2.025 1_455 S
Zn59 O80 2.024 1_455 S
C60 O79 1.246 . S
C60 O80 1.249 . S
N61 C62 1.307 . S
N61 C63 1.333 . S
N61 Zn67 2.020 . S
C62 N61 1.307 . S
C62 C66 1.370 . S
C62 H73 0.948 . S
C63 N61 1.333 . S
C63 C64 1.379 . S
C63 H71 0.952 . S
C64 C63 1.379 . S
C64 C65 1.390 . S
C64 H84 0.949 . S
C65 C64 1.390 . S
C65 C66 1.357 . S
C66 C62 1.370 . S
C66 C65 1.357 . S
C66 H85 0.950 . S
Zn67 N61 2.020 . S
Zn67 O70 2.025 1_655 S
Zn67 O75 2.024 1_655 S
Zn67 O77 2.039 1_565 S
Zn67 O79 2.034 1_565 S
O68 C52 1.251 . S
O68 Zn59 2.039 1_565 S
C69 O74 1.246 . S
C69 O75 1.249 . S
O70 C52 1.254 . S
O70 Zn67 2.025 1_455 S
H71 C63 0.952 . S
H72 C54 0.952 . S
H73 C62 0.948 . S
O74 Zn59 2.034 1_565 S
O74 C69 1.246 . S
O75 Zn67 2.024 1_455 S
O75 C69 1.249 . S
H76 C58 0.948 . S
O77 Zn67 2.039 1_545 S
O77 C81 1.251 . S
O78 Zn59 2.025 1_655 S
O78 C81 1.254 . S
O79 C60 1.246 . S
O79 Zn67 2.034 1_545 S
O80 Zn59 2.024 1_655 S
O80 C60 1.249 . S
C81 O77 1.251 . S
C81 O78 1.254 . S
H82 C55 0.949 . S
H83 C57 0.950 . S
H84 C64 0.949 . S
H85 C66 0.950 . S
C86 O102 1.251 . S
C86 O104 1.254 . S
N87 C88 1.333 1_554 S
N87 C92 1.307 . S
N87 Zn93 2.020 . S
C88 N87 1.333 1_556 S
C88 C89 1.379 . S
C88 H106 0.952 . S
C89 C88 1.379 . S
C89 C90 1.390 1_556 S
C89 H116 0.949 . S
C90 C89 1.390 1_554 S
C90 C91 1.357 . S
C91 C90 1.357 . S
C91 C92 1.370 . S
C91 H117 0.950 . S
C92 N87 1.307 . S
C92 C91 1.370 . S
C92 H110 0.948 . S
Zn93 N87 2.020 . S
Zn93 O102 2.039 1_554 S
Zn93 O108 2.034 . S
Zn93 O112 2.025 . S
Zn93 O114 2.024 1_554 S
C94 O113 1.246 . S
C94 O114 1.249 . S
N95 C96 1.307 1_554 S
N95 C97 1.333 . S
N95 Zn101 2.020 . S
C96 N95 1.307 1_556 S
C96 C100 1.370 . S
C96 H107 0.948 . S
C97 N95 1.333 . S
C97 C98 1.379 . S
C97 H105 0.952 . S
C98 C97 1.379 . S
C98 C99 1.390 . S
C98 H118 0.949 . S
C99 C98 1.390 . S
C99 C100 1.354 1_554 S
C100 C96 1.370 . S
C100 C99 1.354 1_556 S
C100 H119 0.953 . S
Zn101 N95 2.020 . S
Zn101 O104 2.025 1_554 S
Zn101 O109 2.024 . S
Zn101 O111 2.039 . S
Zn101 O113 2.034 1_554 S
O102 C86 1.251 . S
O102 Zn93 2.039 1_556 S
C103 O108 1.246 . S
C103 O109 1.249 . S
O104 C86 1.254 . S
O104 Zn101 2.025 1_556 S
H105 C97 0.952 . S
H106 C88 0.952 . S
H107 C96 0.948 . S
O108 Zn93 2.034 . S
O108 C103 1.246 . S
O109 Zn101 2.024 . S
O109 C103 1.249 . S
H110 C92 0.948 . S
O111 Zn101 2.039 . S
O111 C115 1.251 . S
O112 Zn93 2.025 . S
O112 C115 1.254 . S
O113 C94 1.246 . S
O113 Zn101 2.034 1_556 S
O114 Zn93 2.024 1_556 S
O114 C94 1.249 . S
C115 O111 1.251 . S
C115 O112 1.254 . S
H116 C89 0.949 . S
H117 C91 0.950 . S
H118 C98 0.949 . S
H119 C100 0.953 . S
H120 C121 0.951 . S
C121 H120 0.951 . S
C121 C127 1.265 . S
H122 C127 0.950 . S
H123 C131 0.949 . S
H124 C132 0.950 . S
H125 C133 0.951 . S
H126 C134 0.951 . S
C127 C121 1.265 . S
C127 H122 0.950 . S
C127 C128 1.478 . S
C128 C127 1.478 . S
C128 C129 1.397 . S
C128 C145 1.394 . S
C129 C128 1.397 . S
C129 C130 1.438 . S
C129 C134 1.429 . S
C130 C129 1.438 . S
C130 C131 1.428 . S
C130 C143 1.394 . S
C131 H123 0.949 . S
C131 C130 1.428 . S
C131 C132 1.345 . S
C132 H124 0.950 . S
C132 C131 1.345 . S
C132 C133 1.424 . S
C133 H125 0.951 . S
C133 C132 1.424 . S
C133 C134 1.347 . S
C134 H126 0.951 . S
C134 C129 1.429 . S
C134 C133 1.347 . S
H135 C136 0.951 . S
C136 H135 0.951 . S
C136 C142 1.265 . S
H137 C142 0.950 . S
H138 C146 0.949 . S
H139 C147 0.950 . S
H140 C148 0.951 . S
H141 C149 0.951 . S
C142 C136 1.265 . S
C142 H137 0.950 . S
C142 C143 1.478 . S
C143 C130 1.394 . S
C143 C142 1.478 . S
C143 C144 1.397 . S
C144 C143 1.397 . S
C144 C145 1.438 . S
C144 C149 1.429 . S
C145 C128 1.394 . S
C145 C144 1.438 . S
C145 C146 1.428 . S
C146 H138 0.949 . S
C146 C145 1.428 . S
C146 C147 1.345 . S
C147 H139 0.950 . S
C147 C146 1.345 . S
C147 C148 1.424 . S
C148 H140 0.951 . S
C148 C147 1.424 . S
C148 C149 1.347 . S
C149 H141 0.951 . S
C149 C144 1.429 . S
C149 C148 1.347 . S
H150 C151 0.951 . S
C151 H150 0.951 . S
C151 C157 1.265 . S
H152 C157 0.950 . S
H153 C161 0.949 . S
H154 C162 0.950 . S
H155 C163 0.951 . S
H156 C164 0.951 . S
C157 C151 1.265 . S
C157 H152 0.950 . S
C157 C158 1.478 . S
C158 C157 1.478 . S
C158 C159 1.397 . S
C158 C175 1.394 1_554 S
C159 C158 1.397 . S
C159 C160 1.438 . S
C159 C164 1.429 . S
C160 C159 1.438 . S
C160 C161 1.428 . S
C160 C173 1.394 . S
C161 H153 0.949 . S
C161 C160 1.428 . S
C161 C162 1.345 . S
C162 H154 0.950 . S
C162 C161 1.345 . S
C162 C163 1.424 . S
C163 H155 0.951 . S
C163 C162 1.424 . S
C163 C164 1.347 . S
C164 H156 0.951 . S
C164 C159 1.429 . S
C164 C163 1.347 . S
H165 C166 0.951 . S
C166 H165 0.951 . S
C166 C172 1.265 . S
H167 C172 0.950 1_556 S
H168 C176 0.949 . S
H169 C177 0.950 . S
H170 C178 0.951 . S
H171 C179 0.951 . S
C172 C166 1.265 . S
C172 H167 0.950 1_554 S
C172 C173 1.478 . S
C173 C160 1.394 . S
C173 C172 1.478 . S
C173 C174 1.397 1_554 S
C174 C173 1.397 1_556 S
C174 C175 1.438 . S
C174 C179 1.429 . S
C175 C158 1.394 1_556 S
C175 C174 1.438 . S
C175 C176 1.428 . S
C176 H168 0.949 . S
C176 C175 1.428 . S
C176 C177 1.345 . S
C177 H169 0.950 . S
C177 C176 1.345 . S
C177 C178 1.424 . S
C178 H170 0.951 . S
C178 C177 1.424 . S
C178 C179 1.347 . S
C179 H171 0.951 . S
C179 C174 1.429 . S
C179 C178 1.347 . S
H180 C181 0.951 . S
C181 H180 0.951 . S
C181 C187 1.265 . S
H182 C187 0.950 . S
H183 C191 0.949 . S
H184 C192 0.950 . S
H185 C193 0.951 . S
H186 C194 0.951 . S
C187 C181 1.265 . S
C187 H182 0.950 . S
C187 C188 1.478 . S
C188 C187 1.478 . S
C188 C189 1.397 . S
C188 C205 1.394 . S
C189 C188 1.397 . S
C189 C190 1.438 . S
C189 C194 1.429 . S
C190 C189 1.438 . S
C190 C191 1.428 . S
C190 C203 1.394 . S
C191 H183 0.949 . S
C191 C190 1.428 . S
C191 C192 1.345 . S
C192 H184 0.950 . S
C192 C191 1.345 . S
C192 C193 1.424 . S
C193 H185 0.951 . S
C193 C192 1.424 . S
C193 C194 1.347 . S
C194 H186 0.951 . S
C194 C189 1.429 . S
C194 C193 1.347 . S
H195 C196 0.951 . S
C196 H195 0.951 . S
C196 C202 1.265 . S
H197 C202 0.950 . S
H198 C206 0.949 . S
H199 C207 0.950 . S
H200 C208 0.951 . S
H201 C209 0.951 . S
C202 C196 1.265 . S
C202 H197 0.950 . S
C202 C203 1.478 . S
C203 C190 1.394 . S
C203 C202 1.478 . S
C203 C204 1.397 . S
C204 C203 1.397 . S
C204 C205 1.438 . S
C204 C209 1.429 . S
C205 C188 1.394 . S
C205 C204 1.438 . S
C205 C206 1.428 . S
C206 H198 0.949 . S
C206 C205 1.428 . S
C206 C207 1.345 . S
C207 H199 0.950 . S
C207 C206 1.345 . S
C207 C208 1.424 . S
C208 H200 0.951 . S
C208 C207 1.424 . S
C208 C209 1.347 . S
C209 H201 0.951 . S
C209 C204 1.429 . S
C209 C208 1.347 . S
H210 C211 0.951 . S
C211 H210 0.951 . S
C211 C217 1.265 1_556 S
H212 C217 0.950 . S
H213 C221 0.949 . S
H214 C222 0.950 . S
H215 C223 0.951 . S
H216 C224 0.951 . S
C217 C211 1.265 1_554 S
C217 H212 0.950 . S
C217 C218 1.478 . S
C218 C217 1.478 . S
C218 C219 1.397 . S
C218 C235 1.394 1_554 S
C219 C218 1.397 . S
C219 C220 1.438 . S
C219 C224 1.429 . S
C220 C219 1.438 . S
C220 C221 1.428 . S
C220 C233 1.387 1_554 S
C221 H213 0.949 . S
C221 C220 1.428 . S
C221 C222 1.345 . S
C222 H214 0.950 . S
C222 C221 1.345 . S
C222 C223 1.424 . S
C223 H215 0.951 . S
C223 C222 1.424 . S
C223 C224 1.347 . S
C224 H216 0.951 . S
C224 C219 1.429 . S
C224 C223 1.347 . S
H225 C226 0.951 . S
C226 H225 0.951 . S
C226 C232 1.265 1_554 S
H227 C232 0.950 . S
H228 C236 0.949 . S
H229 C237 0.950 . S
H230 C238 0.951 . S
H231 C239 0.951 . S
C232 C226 1.265 1_556 S
C232 H227 0.950 . S
C232 C233 1.479 . S
C233 C220 1.387 1_556 S
C233 C232 1.479 . S
C233 C234 1.403 . S
C234 C233 1.403 . S
C234 C235 1.438 . S
C234 C239 1.429 . S
C235 C218 1.394 1_556 S
C235 C234 1.438 . S
C235 C236 1.428 . S
C236 H228 0.949 . S
C236 C235 1.428 . S
C236 C237 1.345 . S
C237 H229 0.950 . S
C237 C236 1.345 . S
C237 C238 1.424 . S
C238 H230 0.951 . S
C238 C237 1.424 . S
C238 C239 1.347 . S
C239 H231 0.951 . S
C239 C234 1.429 . S
C239 C238 1.347 . S
H240 C241 0.951 . S
C241 H240 0.951 . S
C241 C247 1.265 . S
H242 C247 0.950 . S
H243 C251 0.949 . S
H244 C252 0.945 1_545 S
H245 C253 0.951 1_545 S
H246 C254 0.951 . S
C247 C241 1.265 . S
C247 H242 0.950 . S
C247 C248 1.478 . S
C248 C247 1.478 . S
C248 C249 1.397 . S
C248 C265 1.394 . S
C249 C248 1.397 . S
C249 C250 1.438 . S
C249 C254 1.429 . S
C250 C249 1.438 . S
C250 C251 1.428 . S
C250 C263 1.394 . S
C251 H243 0.949 . S
C251 C250 1.428 . S
C251 C252 1.348 . S
C252 H244 0.945 1_565 S
C252 C251 1.348 . S
C252 C253 1.426 . S
C253 H245 0.951 1_565 S
C253 C252 1.426 . S
C253 C254 1.347 . S
C254 H246 0.951 . S
C254 C249 1.429 . S
C254 C253 1.347 . S
H255 C256 0.951 . S
C256 H255 0.951 . S
C256 C262 1.265 . S
H257 C262 0.950 . S
H258 C266 0.949 . S
H259 C267 0.950 . S
H260 C268 0.951 . S
H261 C269 0.951 . S
C262 C256 1.265 . S
C262 H257 0.950 . S
C262 C263 1.478 . S
C263 C250 1.394 . S
C263 C262 1.478 . S
C263 C264 1.397 . S
C264 C263 1.397 . S
C264 C265 1.438 . S
C264 C269 1.429 . S
C265 C248 1.394 . S
C265 C264 1.438 . S
C265 C266 1.428 . S
C266 H258 0.949 . S
C266 C265 1.428 . S
C266 C267 1.345 . S
C267 H259 0.950 . S
C267 C266 1.345 . S
C267 C268 1.424 . S
C268 H260 0.951 . S
C268 C267 1.424 . S
C268 C269 1.347 . S
C269 H261 0.951 . S
C269 C264 1.429 . S
C269 C268 1.347 . S
H270 C271 0.951 . S
C271 H270 0.951 . S
C271 C277 1.265 . S
H272 C277 0.950 . S
H273 C281 0.949 . S
H274 C282 0.950 . S
H275 C283 0.951 . S
H276 C284 0.951 . S
C277 C271 1.265 . S
C277 H272 0.950 . S
C277 C278 1.478 . S
C278 C277 1.478 . S
C278 C279 1.397 . S
C278 C295 1.394 . S
C279 C278 1.397 . S
C279 C280 1.438 . S
C279 C284 1.429 . S
C280 C279 1.438 . S
C280 C281 1.428 . S
C280 C293 1.394 . S
C281 H273 0.949 . S
C281 C280 1.428 . S
C281 C282 1.345 . S
C282 H274 0.950 . S
C282 C281 1.345 . S
C282 C283 1.424 . S
C283 H275 0.951 . S
C283 C282 1.424 . S
C283 C284 1.347 . S
C284 H276 0.951 . S
C284 C279 1.429 . S
C284 C283 1.347 . S
H285 C286 0.951 . S
C286 H285 0.951 . S
C286 C292 1.265 . S
H287 C292 0.950 . S
H288 C296 0.949 . S
H289 C297 0.950 . S
H290 C298 0.951 . S
H291 C299 0.951 . S
C292 C286 1.265 . S
C292 H287 0.950 . S
C292 C293 1.478 . S
C293 C280 1.394 . S
C293 C292 1.478 . S
C293 C294 1.397 . S
C294 C293 1.397 . S
C294 C295 1.438 . S
C294 C299 1.429 . S
C295 C278 1.394 . S
C295 C294 1.438 . S
C295 C296 1.428 . S
C296 H288 0.949 . S
C296 C295 1.428 . S
C296 C297 1.345 . S
C297 H289 0.950 . S
C297 C296 1.345 . S
C297 C298 1.424 . S
C298 H290 0.951 . S
C298 C297 1.424 . S
C298 C299 1.347 . S
C299 H291 0.951 . S
C299 C294 1.429 . S
C299 C298 1.347 . S
H300 C301 0.951 . S
C301 H300 0.951 . S
C301 C307 1.265 . S
H302 C307 0.950 . S
H303 C311 0.949 . S
H304 C312 0.950 1_455 S
H305 C313 0.951 . S
H306 C314 0.951 . S
C307 C301 1.265 . S
C307 H302 0.950 . S
C307 C308 1.478 . S
C308 C307 1.478 . S
C308 C309 1.397 . S
C308 C325 1.394 . S
C309 C308 1.397 . S
C309 C310 1.438 . S
C309 C314 1.429 . S
C310 C309 1.438 . S
C310 C311 1.428 . S
C310 C323 1.394 . S
C311 H303 0.949 . S
C311 C310 1.428 . S
C311 C312 1.345 . S
C312 H304 0.950 1_655 S
C312 C311 1.345 . S
C312 C313 1.424 . S
C313 H305 0.951 . S
C313 C312 1.424 . S
C313 C314 1.347 . S
C314 H306 0.951 . S
C314 C309 1.429 . S
C314 C313 1.347 . S
H315 C316 0.951 . S
C316 H315 0.951 . S
C316 C322 1.265 . S
H317 C322 0.950 . S
H318 C326 0.949 . S
H319 C327 0.950 . S
H320 C328 0.951 . S
H321 C329 0.951 . S
C322 C316 1.265 . S
C322 H317 0.950 . S
C322 C323 1.478 . S
C323 C310 1.394 . S
C323 C322 1.478 . S
C323 C324 1.397 . S
C324 C323 1.397 . S
C324 C325 1.438 . S
C324 C329 1.429 . S
C325 C308 1.394 . S
C325 C324 1.438 . S
C325 C326 1.428 . S
C326 H318 0.949 . S
C326 C325 1.428 . S
C326 C327 1.345 . S
C327 H319 0.950 . S
C327 C326 1.345 . S
C327 C328 1.424 . S
C328 H320 0.951 . S
C328 C327 1.424 . S
C328 C329 1.347 . S
C329 H321 0.951 . S
C329 C324 1.429 . S
C329 C328 1.347 . S
H330 C331 0.951 . S
C331 H330 0.951 . S
C331 C337 1.265 . S
H332 C337 0.950 . S
H333 C341 0.949 . S
H334 C342 0.950 . S
H335 C343 0.951 . S
H336 C344 0.951 . S
C337 C331 1.265 . S
C337 H332 0.950 . S
C337 C338 1.478 . S
C338 C337 1.478 . S
C338 C339 1.397 . S
C338 C355 1.394 . S
C339 C338 1.397 . S
C339 C340 1.438 . S
C339 C344 1.429 . S
C340 C339 1.438 . S
C340 C341 1.428 . S
C340 C353 1.394 . S
C341 H333 0.949 . S
C341 C340 1.428 . S
C341 C342 1.345 . S
C342 H334 0.950 . S
C342 C341 1.345 . S
C342 C343 1.424 . S
C343 H335 0.951 . S
C343 C342 1.424 . S
C343 C344 1.347 . S
C344 H336 0.951 . S
C344 C339 1.429 . S
C344 C343 1.347 . S
H345 C346 0.951 . S
C346 H345 0.951 . S
C346 C352 1.265 . S
H347 C352 0.950 . S
H348 C356 0.949 . S
H349 C357 0.950 . S
H350 C358 0.951 . S
H351 C359 0.951 . S
C352 C346 1.265 . S
C352 H347 0.950 . S
C352 C353 1.478 . S
C353 C340 1.394 . S
C353 C352 1.478 . S
C353 C354 1.397 . S
C354 C353 1.397 . S
C354 C355 1.438 . S
C354 C359 1.429 . S
C355 C338 1.394 . S
C355 C354 1.438 . S
C355 C356 1.428 . S
C356 H348 0.949 . S
C356 C355 1.428 . S
C356 C357 1.345 . S
C357 H349 0.950 . S
C357 C356 1.345 . S
C357 C358 1.424 . S
C358 H350 0.951 . S
C358 C357 1.424 . S
C358 C359 1.347 . S
C359 H351 0.951 . S
C359 C354 1.429 . S
C359 C358 1.347 . S
H360 C361 0.951 . S
C361 H360 0.951 . S
C361 C367 1.265 . S
H362 C367 0.950 . S
H363 C371 0.949 . S
H364 C372 0.950 . S
H365 C373 0.951 . S
H366 C374 0.951 . S
C367 C361 1.265 . S
C367 H362 0.950 . S
C367 C368 1.478 . S
C368 C367 1.478 . S
C368 C369 1.397 . S
C368 C385 1.394 . S
C369 C368 1.397 . S
C369 C370 1.438 . S
C369 C374 1.429 . S
C370 C369 1.438 . S
C370 C371 1.428 . S
C370 C383 1.394 . S
C371 H363 0.949 . S
C371 C370 1.428 . S
C371 C372 1.345 . S
C372 H364 0.950 . S
C372 C371 1.345 . S
C372 C373 1.424 . S
C373 H365 0.951 . S
C373 C372 1.424 . S
C373 C374 1.347 . S
C374 H366 0.951 . S
C374 C369 1.429 . S
C374 C373 1.347 . S
H375 C376 0.951 . S
C376 H375 0.951 . S
C376 C382 1.265 . S
H377 C382 0.950 . S
H378 C386 0.949 . S
H379 C387 0.950 . S
H380 C388 0.951 . S
H381 C389 0.951 . S
C382 C376 1.265 . S
C382 H377 0.950 . S
C382 C383 1.478 . S
C383 C370 1.394 . S
C383 C382 1.478 . S
C383 C384 1.397 . S
C384 C383 1.397 . S
C384 C385 1.438 . S
C384 C389 1.429 . S
C385 C368 1.394 . S
C385 C384 1.438 . S
C385 C386 1.428 . S
C386 H378 0.949 . S
C386 C385 1.428 . S
C386 C387 1.345 . S
C387 H379 0.950 . S
C387 C386 1.345 . S
C387 C388 1.424 . S
C388 H380 0.951 . S
C388 C387 1.424 . S
C388 C389 1.347 . S
C389 H381 0.951 . S
C389 C384 1.429 . S
C389 C388 1.347 . S
H390 C391 0.951 . S
C391 H390 0.951 . S
C391 C397 1.265 . S
H392 C397 0.950 . S
H393 C401 0.949 . S
H394 C402 0.950 . S
H395 C403 0.951 . S
H396 C404 0.951 . S
C397 C391 1.265 . S
C397 H392 0.950 . S
C397 C398 1.478 . S
C398 C397 1.478 . S
C398 C399 1.397 . S
C398 C415 1.394 . S
C399 C398 1.397 . S
C399 C400 1.438 . S
C399 C404 1.429 . S
C400 C399 1.438 . S
C400 C401 1.428 . S
C400 C413 1.394 . S
C401 H393 0.949 . S
C401 C400 1.428 . S
C401 C402 1.345 . S
C402 H394 0.950 . S
C402 C401 1.345 . S
C402 C403 1.424 . S
C403 H395 0.951 . S
C403 C402 1.424 . S
C403 C404 1.347 . S
C404 H396 0.951 . S
C404 C399 1.429 . S
C404 C403 1.347 . S
H405 C406 0.951 . S
C406 H405 0.951 . S
C406 C412 1.265 . S
H407 C412 0.950 . S
H408 C416 0.949 . S
H409 C417 0.950 . S
H410 C418 0.923 1_455 S
H411 C419 0.951 . S
C412 C406 1.265 . S
C412 H407 0.950 . S
C412 C413 1.478 . S
C413 C400 1.394 . S
C413 C412 1.478 . S
C413 C414 1.397 . S
C414 C413 1.397 . S
C414 C415 1.438 . S
C414 C419 1.429 . S
C415 C398 1.394 . S
C415 C414 1.438 . S
C415 C416 1.428 . S
C416 H408 0.949 . S
C416 C415 1.428 . S
C416 C417 1.345 . S
C417 H409 0.950 . S
C417 C416 1.345 . S
C417 C418 1.424 . S
C418 H410 0.923 1_655 S
C418 C417 1.424 . S
C418 C419 1.347 . S
C419 H411 0.951 . S
C419 C414 1.429 . S
C419 C418 1.347 . S
H420 C421 0.951 . S
C421 H420 0.951 . S
C421 C427 1.265 . S
H422 C427 0.950 . S
H423 C431 0.949 . S
H424 C432 0.950 . S
H425 C433 0.951 . S
H426 C434 0.951 . S
C427 C421 1.265 . S
C427 H422 0.950 . S
C427 C428 1.478 . S
C428 C427 1.478 . S
C428 C429 1.397 . S
C428 C445 1.394 . S
C429 C428 1.397 . S
C429 C430 1.438 . S
C429 C434 1.429 . S
C430 C429 1.438 . S
C430 C431 1.428 . S
C430 C443 1.394 . S
C431 H423 0.949 . S
C431 C430 1.428 . S
C431 C432 1.345 . S
C432 H424 0.950 . S
C432 C431 1.345 . S
C432 C433 1.424 . S
C433 H425 0.951 . S
C433 C432 1.424 . S
C433 C434 1.347 . S
C434 H426 0.951 . S
C434 C429 1.429 . S
C434 C433 1.347 . S
H435 C436 0.951 . S
C436 H435 0.951 . S
C436 C442 1.265 . S
H437 C442 0.950 . S
H438 C446 0.949 . S
H439 C447 0.950 . S
H440 C448 0.951 . S
H441 C449 0.951 . S
C442 C436 1.265 . S
C442 H437 0.950 . S
C442 C443 1.478 . S
C443 C430 1.394 . S
C443 C442 1.478 . S
C443 C444 1.397 . S
C444 C443 1.397 . S
C444 C445 1.438 . S
C444 C449 1.429 . S
C445 C428 1.394 . S
C445 C444 1.438 . S
C445 C446 1.428 . S
C446 H438 0.949 . S
C446 C445 1.428 . S
C446 C447 1.345 . S
C447 H439 0.950 . S
C447 C446 1.345 . S
C447 C448 1.424 . S
C448 H440 0.951 . S
C448 C447 1.424 . S
C448 C449 1.347 . S
C449 H441 0.951 . S
C449 C444 1.429 . S
C449 C448 1.347 . S
H450 C451 0.951 . S
C451 H450 0.951 . S
C451 C457 1.265 . S
H452 C457 0.950 . S
H453 C461 0.949 . S
H454 C462 0.950 1_545 S
H455 C463 0.951 . S
H456 C464 0.951 . S
C457 C451 1.265 . S
C457 H452 0.950 . S
C457 C458 1.478 . S
C458 C457 1.478 . S
C458 C459 1.397 . S
C458 C475 1.394 . S
C459 C458 1.397 . S
C459 C460 1.438 . S
C459 C464 1.429 . S
C460 C459 1.438 . S
C460 C461 1.428 . S
C460 C473 1.394 . S
C461 H453 0.949 . S
C461 C460 1.428 . S
C461 C462 1.345 . S
C462 H454 0.950 1_565 S
C462 C461 1.345 . S
C462 C463 1.424 . S
C463 H455 0.951 . S
C463 C462 1.424 . S
C463 C464 1.347 . S
C464 H456 0.951 . S
C464 C459 1.429 . S
C464 C463 1.347 . S
H465 C466 0.951 . S
C466 H465 0.951 . S
C466 C472 1.265 . S
H467 C472 0.950 . S
H468 C476 0.949 . S
H469 C477 0.950 . S
H470 C478 0.951 . S
H471 C479 0.951 . S
C472 C466 1.265 . S
C472 H467 0.950 . S
C472 C473 1.478 . S
C473 C460 1.394 . S
C473 C472 1.478 . S
C473 C474 1.397 . S
C474 C473 1.397 . S
C474 C475 1.438 . S
C474 C479 1.429 . S
C475 C458 1.394 . S
C475 C474 1.438 . S
C475 C476 1.428 . S
C476 H468 0.949 . S
C476 C475 1.428 . S
C476 C477 1.345 . S
C477 H469 0.950 . S
C477 C476 1.345 . S
C477 C478 1.424 . S
C478 H470 0.951 . S
C478 C477 1.424 . S
C478 C479 1.347 . S
C479 H471 0.951 . S
C479 C474 1.429 . S
C479 C478 1.347 . S
C136 C56 1.493 . S
C121 C43 1.467 . S
C151 C4 1.436 . S
C166 C99 1.506 . S
C181 C17 1.419 . S
C196 C65 1.495 . S
C211 C30 1.476 . S
C226 C90 1.503 . S
C256 C52 1.498 . S
C241 C9 1.463 . S
C286 C94 1.509 . S
C271 C21 1.508 . S
C301 C34 1.508 . S
C316 C60 1.509 . S
C331 C48 1.506 . S
C346 C86 1.503 . S
C376 C115 1.496 . S
C361 C22 1.472 . S
C406 C81 1.502 . S
C391 C35 1.501 . S
C436 C103 1.509 . S
C421 C47 1.509 . S
C451 C8 1.508 . S
C466 C69 1.500 . S
