# Generated by pormake.
# Topology anh, (6,3)-cn, num edge types: 1
# Building blocks:
#     Node 0, Type 0, BuildingBlock: BETFEN_clean_sbu_0, # of connection points: 6
#     Node 1, Type 0, BuildingBlock: BETFEN_clean_sbu_0, # of connection points: 6
#     Node 2, Type 0, BuildingBlock: BETFEN_clean_sbu_0, # of connection points: 6
#     Node 3, Type 1, BuildingBlock: BETDIP_clean_linker_0, # of connection points: 3
#     Node 4, Type 1, BuildingBlock: BETDIP_clean_linker_0, # of connection points: 3
#     Node 5, Type 1, BuildingBlock: BETDIP_clean_linker_0, # of connection points: 3
#     Node 6, Type 1, BuildingBlock: BETDIP_clean_linker_0, # of connection points: 3
#     Node 7, Type 1, BuildingBlock: BETDIP_clean_linker_0, # of connection points: 3
#     Node 8, Type 1, BuildingBlock: BETDIP_clean_linker_0, # of connection points: 3
#     Edge 9, Type (0, 1), BuildingBlock: XIVTED_clean_linker_0, # of connection points: 2
#     Edge 10, Type (0, 1), BuildingBlock: XIVTED_clean_linker_0, # of connection points: 2
#     Edge 11, Type (0, 1), BuildingBlock: XIVTED_clean_linker_0, # of connection points: 2
#     Edge 12, Type (0, 1), BuildingBlock: XIVTED_clean_linker_0, # of connection points: 2
#     Edge 13, Type (0, 1), BuildingBlock: XIVTED_clean_linker_0, # of connection points: 2
#     Edge 14, Type (0, 1), BuildingBlock: XIVTED_clean_linker_0, # of connection points: 2
#     Edge 15, Type (0, 1), BuildingBlock: XIVTED_clean_linker_0, # of connection points: 2
#     Edge 16, Type (0, 1), BuildingBlock: XIVTED_clean_linker_0, # of connection points: 2
#     Edge 17, Type (0, 1), BuildingBlock: XIVTED_clean_linker_0, # of connection points: 2
#     Edge 18, Type (0, 1), BuildingBlock: XIVTED_clean_linker_0, # of connection points: 2
#     Edge 19, Type (0, 1), BuildingBlock: XIVTED_clean_linker_0, # of connection points: 2
#     Edge 20, Type (0, 1), BuildingBlock: XIVTED_clean_linker_0, # of connection points: 2
#     Edge 21, Type (0, 1), BuildingBlock: XIVTED_clean_linker_0, # of connection points: 2
#     Edge 22, Type (0, 1), BuildingBlock: XIVTED_clean_linker_0, # of connection points: 2
#     Edge 23, Type (0, 1), BuildingBlock: XIVTED_clean_linker_0, # of connection points: 2
#     Edge 24, Type (0, 1), BuildingBlock: XIVTED_clean_linker_0, # of connection points: 2
#     Edge 25, Type (0, 1), BuildingBlock: XIVTED_clean_linker_0, # of connection points: 2
#     Edge 26, Type (0, 1), BuildingBlock: XIVTED_clean_linker_0, # of connection points: 2
# Relax obj value: 0.162
# Max RMSD: 0.182
# Mean RMSD: 0.131
data_MOF--net-anh--node1-BETFEN_clean_sbu_0--node2-BETDIP_clean_linker_0--edge1-XIVTED_clean_linker_0
_symmetry_space_group_name_H-M    P1
_symmetry_Int_Tables_number       1
_symmetry_cell_setting            triclinic
loop_
_symmetry_equiv_pos_as_xyz
'x, y, z'
_cell_length_a     30.28794
_cell_length_b     31.235889
_cell_length_c     49.596878
_cell_angle_alpha  92.523895
_cell_angle_beta   93.955446
_cell_angle_gamma 102.54148
loop_
_atom_site_label
_atom_site_type_symbol
_atom_site_fract_x
_atom_site_fract_y
_atom_site_fract_z
_atom_type_partial_charge
Pr0 Pr 0.03157 0.57133 0.15942 0.0
Pr1 Pr 0.04515 0.66733 0.14981 0.0
C2 C 1.00405 0.48988 0.17676 0.0
C3 C 0.9602 0.46051 0.18078 0.0
C4 C 0.95527 0.41484 0.17784 0.0
C5 C 0.91359 0.38671 0.18144 0.0
C6 C 0.87606 0.40383 0.18798 0.0
C7 C 0.8812 0.44974 0.19064 0.0
C8 C 0.92285 0.47774 0.18714 0.0
C9 C 0.03329 0.58967 0.105 0.0
C10 C 0.94068 0.61727 0.15208 0.0
C11 C 0.07521 0.74891 0.13351 0.0
C12 C 0.11927 0.78025 0.13801 0.0
C13 C 0.15095 0.7744 0.15873 0.0
C14 C 0.19292 0.80391 0.16315 0.0
C15 C 0.20435 0.83973 0.14676 0.0
C16 C 0.1726 0.84504 0.12572 0.0
C17 C 0.1304 0.81552 0.12141 0.0
C18 C 0.0427 0.6491 0.20411 0.0
C19 C 0.13625 0.62116 0.15582 0.0
O20 O 1.01616 0.52523 0.19308 0.0
O21 O 1.01249 0.49723 0.15169 0.0
O22 O 1.01213 0.60671 0.12202 0.0
O23 O 0.05462 0.56196 0.1158 0.0
O24 O 0.96651 0.65093 0.14154 0.0
O25 O 0.95844 0.58615 0.16287 0.0
O26 O 0.07492 0.71342 0.11843 0.0
O27 O 0.05255 0.74089 0.15493 0.0
O28 O 0.06409 0.6319 0.18729 0.0
O29 O 1.02283 0.6778 0.19335 0.0
O30 O 0.11062 0.58617 0.16515 0.0
O31 O 0.1184 0.65337 0.14676 0.0
H32 H 0.98372 0.40094 0.1729 0.0
H33 H 0.91103 0.35157 0.17955 0.0
H34 H 0.85291 0.46412 0.19523 0.0
H35 H 0.92586 0.5129 0.18946 0.0
H36 H 0.14306 0.74711 0.17164 0.0
H37 H 0.216 0.79905 0.17981 0.0
H38 H 0.18043 0.87181 0.11246 0.0
H39 H 0.1065 0.82021 0.10513 0.0
Pr40 Pr 0.5836 0.08257 0.50494 0.0
Pr41 Pr 0.49187 0.06553 0.52305 0.0
C42 C 0.65983 0.11465 0.48063 0.0
C43 C 0.68959 0.15838 0.47833 0.0
C44 C 0.70277 0.18839 0.50093 0.0
C45 C 0.73017 0.23003 0.49821 0.0
C46 C 0.74445 0.24268 0.47279 0.0
C47 C 0.73111 0.21256 0.45023 0.0
C48 C 0.70408 0.17081 0.453 0.0
C49 C 0.58377 0.0738 0.56039 0.0
C50 C 0.53648 0.16992 0.52057 0.0
C51 C 0.4124 1.03156 0.54354 0.0
C52 C 0.37996 0.98916 0.53757 0.0
C53 C 0.38456 0.96211 0.51508 0.0
C54 C 0.35395 0.9219 0.50902 0.0
C55 C 0.31812 0.9076 0.52544 0.0
C56 C 0.31389 0.93478 0.54815 0.0
C57 C 0.34458 0.97523 0.55414 0.0
C58 C 0.49473 0.07037 0.46712 0.0
C59 C 0.53905 0.97782 0.51052 0.0
O60 O 0.61926 0.10778 0.4681 0.0
O61 O 0.66 0.09826 0.50443 0.0
O62 O 0.5599 0.09609 0.54752 0.0
O63 O 0.60808 1.05587 0.54468 0.0
O64 O 0.50609 0.142 0.53276 0.0
O65 O 0.56662 0.15477 0.5068 0.0
O66 O 0.45175 1.02954 0.55539 0.0
O67 O 0.41602 1.05834 0.5239 0.0
O68 O 0.51686 1.04924 0.48176 0.0
O69 O 0.46966 0.09006 0.48117 0.0
O70 O 0.57097 1.00463 0.49856 0.0
O71 O 0.50832 0.99415 0.52283 0.0
H72 H 0.69161 0.17987 0.52068 0.0
H73 H 0.73939 0.25266 0.5159 0.0
H74 H 0.74188 0.22116 0.43042 0.0
H75 H 0.69423 0.14826 0.4353 0.0
H76 H 0.41174 0.9723 0.50204 0.0
H77 H 0.35796 0.90244 0.49112 0.0
H78 H 0.28712 0.92468 0.56144 0.0
H79 H 0.34069 0.99559 0.57169 0.0
Pr80 Pr 0.46937 0.5504 0.82057 0.0
Pr81 Pr 0.49531 0.64641 0.83093 0.0
C82 C 0.46307 0.46544 0.8058 0.0
C83 C 0.49288 0.43506 0.81225 0.0
C84 C 0.47796 0.39965 0.82829 0.0
C85 C 0.50719 0.37289 0.83655 0.0
C86 C 0.55187 0.38082 0.82874 0.0
C87 C 0.56653 0.41603 0.81241 0.0
C88 C 0.53746 0.44293 0.80434 0.0
C89 C 0.46832 0.57643 0.87503 0.0
C90 C 0.58035 0.59863 0.83243 0.0
C91 C 0.51009 0.73303 0.84444 0.0
C92 C 0.54714 0.77033 0.84021 0.0
C93 C 0.58827 0.76299 0.83176 0.0
C94 C 0.6227 0.79832 0.82617 0.0
C95 C 0.61648 0.84159 0.82881 0.0
C96 C 0.57524 0.84872 0.83755 0.0
C97 C 0.54083 0.81331 0.84318 0.0
C98 C 0.50205 0.6192 0.77741 0.0
C99 C 0.38591 0.59801 0.82276 0.0
O100 O 0.47838 0.4973 0.79029 0.0
O101 O 0.44269 0.47814 0.82606 0.0
O102 O 0.49911 0.59219 0.86008 0.0
O103 O 0.43709 0.5461 0.86208 0.0
O104 O 0.56788 0.63479 0.84015 0.0
O105 O 0.54988 0.56345 0.82252 0.0
O106 O 0.48595 0.71456 0.82247 0.0
O107 O 0.52008 0.70458 0.86109 0.0
O108 O 0.46881 0.60431 0.79094 0.0
O109 O 0.53227 0.6494 0.79122 0.0
O110 O 0.39802 0.56523 0.80975 0.0
O111 O 0.41693 0.62912 0.83643 0.0
H112 H 0.44386 0.39314 0.83484 0.0
H113 H 0.49488 0.34627 0.84927 0.0
H114 H 0.60033 0.42252 0.80546 0.0
H115 H 0.55017 0.47009 0.79209 0.0
H116 H 0.59355 0.72988 0.82921 0.0
H117 H 0.65421 0.79172 0.81985 0.0
H118 H 0.56913 0.88157 0.83943 0.0
H119 H 0.50906 0.81941 0.84943 0.0
H120 H 0.50663 0.09601 0.1885 0.0
H121 H 0.56176 0.15018 0.26819 0.0
H122 H 0.45942 1.0306 0.25916 0.0
H123 H 0.56587 0.21466 0.24484 0.0
C124 C 0.58303 0.20449 0.22794 0.0
C125 C 0.50781 0.09425 0.2103 0.0
C126 C 0.47963 1.05907 0.22184 0.0
C127 C 0.53725 0.1275 0.22685 0.0
C128 C 0.53851 0.12528 0.25517 0.0
C129 C 0.51081 0.09021 0.2669 0.0
C130 C 0.4818 1.05709 0.25011 0.0
N131 N 0.5663 0.16215 0.21472 0.0
H132 H 0.53904 0.52897 0.50328 0.0
H133 H 0.5296 0.61385 0.57274 0.0
H134 H 0.52445 0.47743 0.58252 0.0
H135 H 0.47789 0.63361 0.53594 0.0
C136 C 0.50811 0.64579 0.52548 0.0
C137 C 0.53585 0.53376 0.52474 0.0
C138 C 0.53131 0.49686 0.54148 0.0
C139 C 0.53396 0.57652 0.53592 0.0
C140 C 0.5301 0.58167 0.56384 0.0
C141 C 0.52675 0.54634 0.58058 0.0
C142 C 0.52685 0.50443 0.56928 0.0
N143 N 0.53579 0.61457 0.51993 0.0
H144 H 0.93572 0.58453 0.82593 0.0
H145 H 0.03096 0.58368 0.89401 0.0
H146 H 0.8944 0.59418 0.90682 0.0
H147 H 0.06165 0.65024 0.85811 0.0
C148 C 0.06391 0.62072 0.84628 0.0
C149 C 0.9432 0.58495 0.84763 0.0
C150 C 0.90939 0.58848 0.86529 0.0
C151 C 0.98762 0.58503 0.85822 0.0
C152 C 0.99715 0.58561 0.88634 0.0
C153 C 0.96379 0.58832 0.90429 0.0
C154 C 0.92024 0.59048 0.89341 0.0
N155 N 1.02371 0.58706 0.841 0.0
H156 H 0.05259 0.61516 0.4827 0.0
H157 H 0.99073 0.56306 0.40391 0.0
H158 H 0.11012 0.66711 0.41065 0.0
H159 H 0.92647 0.55722 0.4291 0.0
C160 C 0.93921 0.53939 0.44515 0.0
C161 C 0.05213 0.61512 0.46083 0.0
C162 C 0.08591 0.64456 0.44862 0.0
C163 C 1.01736 0.58588 0.44487 0.0
C164 C 1.01676 0.58605 0.41648 0.0
C165 C 0.05026 0.61502 0.40405 0.0
C166 C 0.08493 0.64384 0.42022 0.0
N167 N 0.98389 0.55579 0.45751 0.0
H168 H 0.80299 0.18789 0.81391 0.0
H169 H 0.78364 0.11432 0.73711 0.0
H170 H 0.67463 0.16632 0.76687 0.0
H171 H 0.88207 0.09439 0.76962 0.0
C172 C 0.85036 0.0983 0.77726 0.0
C173 C 0.78137 0.17401 0.79593 0.0
C174 C 0.73647 0.17904 0.79291 0.0
C175 C 0.79767 0.14914 0.7763 0.0
C176 C 0.76997 0.13183 0.75269 0.0
C177 C 0.72579 0.13897 0.74873 0.0
C178 C 0.709 0.16139 0.76939 0.0
N179 N 0.84194 0.14121 0.78049 0.0
H180 H 0.49879 0.62234 0.15688 0.0
H181 H 0.56114 0.60152 0.08336 0.0
H182 H 0.4241 0.6191 0.07946 0.0
H183 H 0.58376 0.54774 0.1188 0.0
C184 C 0.60126 0.57792 0.13019 0.0
C185 C 0.49695 0.61893 0.13497 0.0
C186 C 0.45666 0.6214 0.11964 0.0
C187 C 0.53478 0.6116 0.12189 0.0
C188 C 0.5321 0.6071 0.09345 0.0
C189 C 0.49229 0.6097 0.078 0.0
C190 C 0.45496 0.61701 0.09128 0.0
N191 N 0.57579 0.60955 0.1372 0.0
H192 H 0.19922 0.68918 0.13859 0.0
H193 H 0.40806 0.56955 0.15557 0.0
H194 H 0.18714 0.5615 0.17102 0.0
H195 H 0.40954 0.6852 0.11112 0.0
H196 H 0.33138 0.57176 0.16832 0.0
H197 H 0.27983 0.69333 0.13486 0.0
C198 C 0.21346 0.66198 0.14503 0.0
C199 C 0.18597 0.62468 0.15489 0.0
C200 C 0.34879 0.59703 0.15612 0.0
C201 C 0.27901 0.62938 0.15068 0.0
C202 C 0.39269 0.59603 0.14911 0.0
C203 C 0.4151 0.62728 0.13231 0.0
C204 C 0.32738 0.62967 0.14636 0.0
C205 C 0.39339 0.66048 0.12409 0.0
C206 C 0.25968 0.66443 0.1429 0.0
C207 C 0.20681 0.59077 0.16313 0.0
N208 N 0.35078 0.66065 0.13104 0.0
N209 N 0.25197 0.59383 0.16071 0.0
H210 H 0.73422 0.29868 0.43312 0.0
H211 H 0.9563 0.48258 0.4839 0.0
H212 H 0.81832 0.28853 0.50534 0.0
H213 H 0.85701 0.4997 0.42106 0.0
H214 H 0.90816 0.41081 0.49177 0.0
H215 H 0.78098 0.37148 0.42769 0.0
C216 C 0.76269 0.31172 0.44779 0.0
C217 C 0.77247 0.28735 0.46965 0.0
C218 C 0.89685 0.43042 0.47637 0.0
C219 C 0.82624 0.37106 0.46365 0.0
C220 C 0.9243 0.47134 0.47188 0.0
C221 C 0.91053 0.497 0.45176 0.0
C222 C 0.85565 0.41505 0.46047 0.0
C223 C 0.86882 0.48088 0.43676 0.0
C224 C 0.78924 0.35345 0.44479 0.0
C225 C 0.80939 0.30629 0.48828 0.0
N226 N 0.84301 0.44094 0.44131 0.0
N227 N 0.8351 0.3469 0.48478 0.0
H228 H 0.6441 0.92266 0.85565 0.0
H229 H 0.83321 1.01475 0.75458 0.0
H230 H 0.67111 0.84599 0.78662 0.0
H231 H 0.79527 0.09312 0.81907 0.0
H232 H 0.7774 0.95086 0.76742 0.0
H233 H 0.70224 0.98442 0.84364 0.0
C234 C 0.66213 0.91885 0.8379 0.0
C235 C 0.65256 0.87908 0.82209 0.0
C236 C 0.78119 0.98212 0.77867 0.0
C237 C 0.71968 0.94962 0.80835 0.0
C238 C 0.81303 1.01841 0.77139 0.0
C239 C 0.81785 1.05931 0.78533 0.0
C240 C 0.75461 0.98687 0.8003 0.0
C241 C 0.79146 0.06248 0.80717 0.0
C242 C 0.69552 0.95408 0.83112 0.0
C243 C 0.67768 0.87584 0.79959 0.0
N244 N 0.7609 1.02679 0.81393 0.0
N245 N 0.71002 0.91067 0.79336 0.0
H246 H 0.89272 0.68159 0.1438 0.0
H247 H 0.65087 0.51578 0.12978 0.0
H248 H 0.87449 0.54375 0.15783 0.0
H249 H 0.66464 0.65512 0.14512 0.0
H250 H 0.73326 0.52583 0.13713 0.0
H251 H 0.81 0.67332 0.14114 0.0
C252 C 0.8714 0.64962 0.14638 0.0
C253 C 0.89072 0.61331 0.15108 0.0
C254 C 0.71836 0.55423 0.13914 0.0
C255 C 0.796 0.60361 0.14783 0.0
C256 C 0.67133 0.5485 0.13495 0.0
C257 C 0.65091 0.58459 0.13701 0.0
C258 C 0.74555 0.5966 0.1449 0.0
C259 C 0.679 0.62634 0.14357 0.0
C260 C 0.8242 0.64501 0.14498 0.0
C261 C 0.86131 0.57274 0.15436 0.0
N262 N 0.72499 0.63129 0.14702 0.0
N263 N 0.81557 0.56894 0.15245 0.0
H264 H 0.33468 0.83005 0.5046 0.0
H265 H 0.07393 0.7015 0.48972 0.0
H266 H 0.2258 0.88748 0.5302 0.0
H267 H 0.17749 0.66437 0.44426 0.0
H268 H 0.13124 0.76292 0.51217 0.0
H269 H 0.27926 0.76276 0.48947 0.0
C270 C 0.29916 0.82865 0.50705 0.0
C271 C 0.28501 0.86499 0.51838 0.0
C272 C 0.14146 0.74104 0.49748 0.0
C273 C 0.22128 0.78732 0.50149 0.0
C274 C 0.10888 0.70582 0.48485 0.0
C275 C 0.12101 0.67798 0.46504 0.0
C276 C 0.18653 0.74812 0.49044 0.0
C277 C 0.16667 0.68532 0.45926 0.0
C278 C 0.26754 0.79003 0.49853 0.0
C279 C 0.2385 0.86042 0.52173 0.0
N280 N 0.19771 0.71971 0.47182 0.0
N281 N 0.20831 0.82244 0.5132 0.0
H282 H 0.64388 0.40233 0.84265 0.0
H283 H 0.65935 0.15371 0.81849 0.0
H284 H 0.52962 0.29134 0.83159 0.0
H285 H 0.77058 0.26407 0.81162 0.0
H286 H 0.61737 0.20292 0.83964 0.0
H287 H 0.69479 0.35152 0.84633 0.0
C288 C 0.62942 0.36733 0.8413 0.0
C289 C 0.58241 0.3511 0.83605 0.0
C290 C 0.6514 0.2163 0.83415 0.0
C291 C 0.64044 0.29297 0.84074 0.0
C292 C 0.67538 0.18821 0.82223 0.0
C293 C 0.71794 0.20522 0.81291 0.0
C294 C 0.66994 0.26171 0.83633 0.0
C295 C 0.73762 0.24992 0.81838 0.0
C296 C 0.65851 0.33841 0.84363 0.0
C297 C 0.56554 0.30549 0.83547 0.0
N298 N 0.71296 0.27695 0.82919 0.0
N299 N 0.59459 0.27805 0.83734 0.0
H300 H 0.47122 0.91404 0.5278 0.0
H301 H 0.58367 0.70332 0.50517 0.0
H302 H 0.6004 0.92774 0.49381 0.0
H303 H 0.45206 0.70026 0.53382 0.0
H304 H 0.59298 0.78364 0.50012 0.0
H305 H 0.46612 0.83544 0.52957 0.0
C306 C 0.49876 0.90072 0.52064 0.0
C307 C 0.5364 0.92855 0.51066 0.0
C308 C 0.562 0.76522 0.50739 0.0
C309 C 0.5307 0.83613 0.51278 0.0
C310 C 0.55663 0.71917 0.5102 0.0
C311 C 0.51683 0.69434 0.51991 0.0
C312 C 0.52745 0.78681 0.51439 0.0
C313 C 0.48333 0.71742 0.52623 0.0
C314 C 0.49575 0.85528 0.52166 0.0
C315 C 0.5706 0.90812 0.50166 0.0
N316 N 0.48941 0.76155 0.52346 0.0
N317 N 0.56704 0.86351 0.50301 0.0
H318 H 0.65142 0.66437 0.85303 0.0
H319 H 0.84636 0.5311 0.83057 0.0
H320 H 0.622 0.53161 0.81745 0.0
H321 H 0.86621 0.65346 0.8782 0.0
H322 H 0.7661 0.53357 0.82031 0.0
H323 H 0.73173 0.6634 0.85759 0.0
C324 C 0.66175 0.63491 0.84614 0.0
C325 C 0.62955 0.59791 0.83497 0.0
C326 C 0.78818 0.56005 0.83278 0.0
C327 C 0.7224 0.5967 0.84007 0.0
C328 C 0.83401 0.55883 0.83842 0.0
C329 C 0.86289 0.59211 0.85527 0.0
C330 C 0.77138 0.59502 0.8439 0.0
C331 C 0.84506 0.62704 0.86521 0.0
C332 C 0.70783 0.63441 0.84875 0.0
C333 C 0.64545 0.56086 0.8263 0.0
N334 N 0.80065 0.62751 0.85946 0.0
N335 N 0.6907 0.56117 0.82906 0.0
H336 H 0.22225 0.92946 0.14306 0.0
H337 H 0.46469 0.96981 0.22316 0.0
H338 H 0.28767 0.8239 0.16327 0.0
H339 H 0.41652 0.07233 0.18279 0.0
H340 H 0.40104 0.91555 0.2003 0.0
H341 H 0.29356 0.98214 0.15606 0.0
C342 C 0.25167 0.91719 0.14984 0.0
C343 C 0.24856 0.872 0.15232 0.0
C344 C 0.40469 0.94981 0.19609 0.0
C345 C 0.33028 0.93249 0.16779 0.0
C346 C 0.44097 0.98074 0.20915 0.0
C347 C 0.44566 1.02554 0.2049 0.0
C348 C 0.37235 0.96385 0.17902 0.0
C349 C 0.41417 1.03804 0.1865 0.0
C350 C 0.2924 0.94741 0.15738 0.0
C351 C 0.28794 0.85839 0.16163 0.0
N352 N 0.37842 1.00742 0.17452 0.0
N353 N 0.32692 0.88848 0.16929 0.0
H354 H 0.47485 0.21129 0.54329 0.0
H355 H 0.59367 0.46127 0.51332 0.0
H356 H 0.59609 0.24098 0.5007 0.0
H357 H 0.46658 0.42316 0.54914 0.0
H358 H 0.59562 0.3826 0.50679 0.0
H359 H 0.47252 0.2891 0.54488 0.0
C360 C 0.5012 0.23402 0.53427 0.0
C361 C 0.53578 0.21864 0.52187 0.0
C362 C 0.56701 0.39144 0.51577 0.0
C363 C 0.53323 0.30981 0.52364 0.0
C364 C 0.56563 0.43655 0.51921 0.0
C365 C 0.52971 0.44952 0.53168 0.0
C366 C 0.53233 0.35859 0.52493 0.0
C367 C 0.495 0.41533 0.5394 0.0
C368 C 0.49975 0.27888 0.53513 0.0
C369 C 0.56867 0.25068 0.51052 0.0
N370 N 0.49735 0.37218 0.5361 0.0
N371 N 0.56666 0.29434 0.51175 0.0
H372 H 0.30919 0.53498 0.8041 0.0
H373 H 0.14073 0.6832 0.85371 0.0
H374 H 0.35126 0.66537 0.84284 0.0
H375 H 0.09162 0.54866 0.8232 0.0
H376 H 0.21772 0.67755 0.8459 0.0
H377 H 0.22947 0.53935 0.80732 0.0
C378 C 0.30178 0.56457 0.81314 0.0
C379 C 0.3372 0.59982 0.82328 0.0
C380 C 0.19032 0.64914 0.84075 0.0
C381 C 0.24611 0.60501 0.82697 0.0
C382 C 0.14621 0.65243 0.84515 0.0
C383 C 0.1097 0.61641 0.83913 0.0
C384 C 0.19853 0.60933 0.83028 0.0
C385 C 0.11883 0.5773 0.82808 0.0
C386 C 0.25625 0.56697 0.81502 0.0
C387 C 0.32539 0.63723 0.83483 0.0
N388 N 0.16245 0.57471 0.8241 0.0
N389 N 0.28115 0.63875 0.83634 0.0
H390 H 0.83378 0.32596 0.15997 0.0
H391 H 0.62104 0.28547 0.25056 0.0
H392 H 0.8177 0.41374 0.22647 0.0
H393 H 0.63928 0.19174 0.18815 0.0
H394 H 0.69135 0.33457 0.24006 0.0
H395 H 0.76153 0.27756 0.16841 0.0
C396 C 0.81521 0.33502 0.1764 0.0
C397 C 0.83197 0.3741 0.19252 0.0
C398 C 0.68003 0.30335 0.22856 0.0
C399 C 0.74894 0.31902 0.20208 0.0
C400 C 0.63984 0.27538 0.23452 0.0
C401 C 0.62442 0.23458 0.22024 0.0
C402 C 0.70517 0.29043 0.20813 0.0
C403 C 0.65 0.22297 0.19967 0.0
C404 C 0.77382 0.30747 0.1811 0.0
C405 C 0.80596 0.38438 0.21325 0.0
N406 N 0.68925 0.25076 0.19426 0.0
N407 N 0.7659 0.35705 0.21742 0.0
H408 H 0.08899 0.57678 0.06589 0.0
H409 H 0.90682 0.55599 0.94337 0.0
H410 H 0.95948 0.60814 0.07743 0.0
H411 H 0.04537 0.62301 0.93425 0.0
H412 H 0.92464 0.55971 0.99223 0.0
H413 H 0.0732 0.57839 0.01659 0.0
C414 C 0.05735 0.58406 0.05801 0.0
C415 C 1.02548 0.59241 0.07557 0.0
C416 C 0.95095 0.57354 0.97937 0.0
C417 C 1.00691 0.59311 0.01975 0.0
C418 C 0.94085 0.57181 0.95143 0.0
C419 C 0.97445 0.58946 0.93426 0.0
C420 C 0.99523 0.59184 0.99032 0.0
C421 C 1.01836 0.60811 0.9463 0.0
C422 C 0.04848 0.58509 0.03004 0.0
C423 C 0.98498 0.60174 0.06449 0.0
N424 N 1.02757 0.60843 0.97355 0.0
N425 N 0.97651 0.60121 0.0372 0.0
H426 H 0.5334 1.02016 0.43361 0.0
H427 H 0.50328 0.15557 0.30357 0.0
H428 H 0.464 0.12703 0.43402 0.0
H429 H 0.51832 1.02139 0.29779 0.0
H430 H 0.50029 0.1514 0.35271 0.0
H431 H 0.53914 1.02558 0.38477 0.0
C432 C 0.51935 1.04473 0.42337 0.0
C433 C 0.49794 0.07303 0.43772 0.0
C434 C 0.50431 0.12292 0.34066 0.0
C435 C 0.50494 0.07978 0.38215 0.0
C436 C 0.50633 0.12538 0.31272 0.0
C437 C 0.51099 0.08873 0.2967 0.0
C438 C 0.5077 0.08377 0.35266 0.0
C439 C 0.51438 1.05024 0.30947 0.0
C440 C 0.52257 1.04775 0.39556 0.0
C441 C 0.48047 0.1044 0.4236 0.0
N442 N 0.51286 1.0488 0.33674 0.0
N443 N 0.48456 0.10711 0.39656 0.0
H444 H 0.5685 0.65433 0.7458 0.0
H445 H 0.46782 0.498 0.61346 0.0
H446 H 0.44425 0.55529 0.7439 0.0
H447 H 0.57818 0.61183 0.61485 0.0
H448 H 0.46149 0.51361 0.66187 0.0
H449 H 0.57523 0.63455 0.69849 0.0
C450 C 0.54254 0.62836 0.73537 0.0
C451 C 0.50559 0.6066 0.74872 0.0
C452 C 0.48708 0.53509 0.65154 0.0
C453 C 0.51318 0.58354 0.69435 0.0
C454 C 0.4909 0.52605 0.624 0.0
C455 C 0.52343 0.55381 0.6101 0.0
C456 C 0.51631 0.57189 0.66527 0.0
C457 C 0.55223 0.5899 0.62466 0.0
C458 C 0.5464 0.61707 0.7083 0.0
C459 C 0.47312 0.57304 0.73424 0.0
N460 N 0.54799 0.59785 0.65138 0.0
N461 N 0.47765 0.56248 0.70776 0.0
H462 H 0.62395 1.02036 0.59023 0.0
H463 H 0.67184 0.1851 0.7212 0.0
H464 H 0.56773 0.13551 0.59757 0.0
H465 H 0.71662 0.06303 0.71641 0.0
H466 H 0.62855 0.1647 0.6776 0.0
H467 H 0.65219 1.03206 0.63781 0.0
C468 C 0.61709 1.04787 0.60203 0.0
C469 C 0.59398 0.07733 0.58997 0.0
C470 C 0.64748 0.14216 0.68615 0.0
C471 C 0.62678 0.09134 0.64438 0.0
C472 C 0.67211 0.15366 0.71117 0.0
C473 C 0.698 0.12571 0.72259 0.0
C474 C 0.64895 0.10255 0.67218 0.0
C475 C 0.69771 0.08588 0.70826 0.0
C476 C 0.63327 1.05456 0.62919 0.0
C477 C 0.58558 0.11215 0.60615 0.0
N478 N 0.67379 0.07562 0.68375 0.0
N479 N 0.60257 0.11857 0.63251 0.0
H480 H 0.53805 0.62886 0.90737 0.0
H481 H 0.42204 0.56168 0.04433 0.0
H482 H 0.4075 0.54074 0.91016 0.0
H483 H 0.55537 0.64558 0.04333 0.0
H484 H 0.41594 0.55518 0.99499 0.0
H485 H 0.54474 0.63743 0.95699 0.0
C486 C 0.51075 0.61149 0.91845 0.0
C487 C 0.47224 0.58393 0.90473 0.0
C488 C 0.44658 0.57503 0.0055 0.0
C489 C 0.47964 0.59343 0.96129 0.0
C490 C 0.44999 0.5789 0.0337 0.0
C491 C 0.48918 0.6044 0.04798 0.0
C492 C 0.48259 0.59685 0.99133 0.0
C493 C 0.52469 0.62531 0.03313 0.0
C494 C 0.51462 0.61629 0.94673 0.0
C495 C 0.43784 0.5622 0.91997 0.0
N496 N 0.5205 0.62119 0.00559 0.0
N497 N 0.44239 0.56735 0.94741 0.0
H498 H 0.09975 0.60826 0.23344 0.0
H499 H 0.97718 0.62023 0.37006 0.0
H500 H 0.98708 0.67089 0.2406 0.0
H501 H 0.11796 0.61361 0.3703 0.0
H502 H 0.97433 0.62568 0.32088 0.0
H503 H 0.10121 0.5972 0.28223 0.0
C504 C 0.07525 0.61949 0.24528 0.0
C505 C 0.04343 0.64077 0.23314 0.0
C506 C 1.0058 0.62291 0.3317 0.0
C507 C 0.04453 0.62778 0.28853 0.0
C508 C 1.00736 0.61954 0.35967 0.0
C509 C 0.04789 0.61655 0.37418 0.0
C510 C 0.04485 0.62265 0.31806 0.0
C511 C 0.08617 0.6162 0.35982 0.0
C512 C 0.0762 0.61331 0.27305 0.0
C513 C 1.01236 0.65464 0.24928 0.0
N514 N 0.0837 0.61905 0.33248 0.0
N515 N 1.01356 0.64775 0.27615 0.0
loop_
_geom_bond_atom_site_label_1
_geom_bond_atom_site_label_2
_geom_bond_distance
_geom_bond_site_symmetry_2
_ccdc_geom_bond_type
Pr0 C2 2.880 1_455 S
Pr0 O20 2.562 1_455 S
Pr0 O21 2.490 1_455 S
Pr0 O22 2.695 . S
Pr0 O23 2.512 . S
Pr0 O25 2.437 1_455 S
Pr0 O28 2.436 . S
Pr0 O30 2.438 . S
Pr1 C11 2.880 . S
Pr1 O22 2.436 . S
Pr1 O24 2.438 1_455 S
Pr1 O26 2.562 . S
Pr1 O27 2.490 . S
Pr1 O28 2.695 . S
Pr1 O29 2.512 . S
Pr1 O31 2.437 . S
C2 Pr0 2.880 1_655 S
C2 C3 1.491 . S
C2 O20 1.254 . S
C2 O21 1.225 . S
C3 C2 1.491 . S
C3 C4 1.392 . S
C3 C8 1.356 . S
C4 C3 1.392 . S
C4 C5 1.368 . S
C4 H32 0.929 . S
C5 C4 1.368 . S
C5 C6 1.386 . S
C5 H33 0.929 . S
C6 C5 1.386 . S
C6 C7 1.373 . S
C7 C6 1.373 . S
C7 C8 1.409 . S
C7 H34 0.931 . S
C8 C3 1.356 . S
C8 C7 1.409 . S
C8 H35 0.930 . S
C9 O22 1.270 . S
C9 O23 1.248 . S
C10 O24 1.267 . S
C10 O25 1.278 . S
C11 Pr1 2.880 . S
C11 C12 1.491 . S
C11 O26 1.254 . S
C11 O27 1.225 . S
C12 C11 1.491 . S
C12 C13 1.392 . S
C12 C17 1.356 . S
C13 C12 1.392 . S
C13 C14 1.368 . S
C13 H36 0.929 . S
C14 C13 1.368 . S
C14 C15 1.386 . S
C14 H37 0.929 . S
C15 C14 1.386 . S
C15 C16 1.373 . S
C16 C15 1.373 . S
C16 C17 1.409 . S
C16 H38 0.931 . S
C17 C12 1.356 . S
C17 C16 1.409 . S
C17 H39 0.930 . S
C18 O28 1.270 . S
C18 O29 1.248 . S
C19 O30 1.267 . S
C19 O31 1.278 . S
O20 Pr0 2.562 1_655 S
O20 C2 1.254 . S
O21 Pr0 2.490 1_655 S
O21 C2 1.225 . S
O22 Pr0 2.695 . S
O22 Pr1 2.436 . S
O22 C9 1.270 . S
O23 Pr0 2.512 . S
O23 C9 1.248 . S
O24 Pr1 2.438 1_655 S
O24 C10 1.267 . S
O25 Pr0 2.437 1_655 S
O25 C10 1.278 . S
O26 Pr1 2.562 . S
O26 C11 1.254 . S
O27 Pr1 2.490 . S
O27 C11 1.225 . S
O28 Pr0 2.436 . S
O28 Pr1 2.695 . S
O28 C18 1.270 . S
O29 Pr1 2.512 . S
O29 C18 1.248 . S
O30 Pr0 2.438 . S
O30 C19 1.267 . S
O31 Pr1 2.437 . S
O31 C19 1.278 . S
H32 C4 0.929 . S
H33 C5 0.929 . S
H34 C7 0.931 . S
H35 C8 0.930 . S
H36 C13 0.929 . S
H37 C14 0.929 . S
H38 C16 0.931 . S
H39 C17 0.930 . S
Pr40 C42 2.880 . S
Pr40 O60 2.562 . S
Pr40 O61 2.490 . S
Pr40 O62 2.695 . S
Pr40 O63 2.512 . S
Pr40 O65 2.437 . S
Pr40 O68 2.436 . S
Pr40 O70 2.438 1_545 S
Pr41 C51 2.880 1_545 S
Pr41 O62 2.436 . S
Pr41 O64 2.438 . S
Pr41 O66 2.562 1_545 S
Pr41 O67 2.490 1_545 S
Pr41 O68 2.695 . S
Pr41 O69 2.512 . S
Pr41 O71 2.437 1_545 S
C42 Pr40 2.880 . S
C42 C43 1.491 . S
C42 O60 1.254 . S
C42 O61 1.225 . S
C43 C42 1.491 . S
C43 C44 1.392 . S
C43 C48 1.356 . S
C44 C43 1.392 . S
C44 C45 1.368 . S
C44 H72 0.929 . S
C45 C44 1.368 . S
C45 C46 1.386 . S
C45 H73 0.929 . S
C46 C45 1.386 . S
C46 C47 1.373 . S
C47 C46 1.373 . S
C47 C48 1.409 . S
C47 H74 0.931 . S
C48 C43 1.356 . S
C48 C47 1.409 . S
C48 H75 0.930 . S
C49 O62 1.270 . S
C49 O63 1.248 . S
C50 O64 1.267 . S
C50 O65 1.278 . S
C51 Pr41 2.880 1_565 S
C51 C52 1.491 . S
C51 O66 1.254 . S
C51 O67 1.225 . S
C52 C51 1.491 . S
C52 C53 1.392 . S
C52 C57 1.356 . S
C53 C52 1.392 . S
C53 C54 1.368 . S
C53 H76 0.929 . S
C54 C53 1.368 . S
C54 C55 1.386 . S
C54 H77 0.929 . S
C55 C54 1.386 . S
C55 C56 1.373 . S
C56 C55 1.373 . S
C56 C57 1.409 . S
C56 H78 0.931 . S
C57 C52 1.356 . S
C57 C56 1.409 . S
C57 H79 0.930 . S
C58 O68 1.270 . S
C58 O69 1.248 . S
C59 O70 1.267 . S
C59 O71 1.278 . S
O60 Pr40 2.562 . S
O60 C42 1.254 . S
O61 Pr40 2.490 . S
O61 C42 1.225 . S
O62 Pr40 2.695 . S
O62 Pr41 2.436 . S
O62 C49 1.270 . S
O63 Pr40 2.512 . S
O63 C49 1.248 . S
O64 Pr41 2.438 . S
O64 C50 1.267 . S
O65 Pr40 2.437 . S
O65 C50 1.278 . S
O66 Pr41 2.562 1_565 S
O66 C51 1.254 . S
O67 Pr41 2.490 1_565 S
O67 C51 1.225 . S
O68 Pr40 2.436 . S
O68 Pr41 2.695 . S
O68 C58 1.270 . S
O69 Pr41 2.512 . S
O69 C58 1.248 . S
O70 Pr40 2.438 1_565 S
O70 C59 1.267 . S
O71 Pr41 2.437 1_565 S
O71 C59 1.278 . S
H72 C44 0.929 . S
H73 C45 0.929 . S
H74 C47 0.931 . S
H75 C48 0.930 . S
H76 C53 0.929 . S
H77 C54 0.929 . S
H78 C56 0.931 . S
H79 C57 0.930 . S
Pr80 C82 2.880 . S
Pr80 O100 2.562 . S
Pr80 O101 2.490 . S
Pr80 O102 2.695 . S
Pr80 O103 2.512 . S
Pr80 O105 2.437 . S
Pr80 O108 2.436 . S
Pr80 O110 2.438 . S
Pr81 C91 2.880 . S
Pr81 O102 2.436 . S
Pr81 O104 2.438 . S
Pr81 O106 2.562 . S
Pr81 O107 2.490 . S
Pr81 O108 2.695 . S
Pr81 O109 2.512 . S
Pr81 O111 2.437 . S
C82 Pr80 2.880 . S
C82 C83 1.491 . S
C82 O100 1.254 . S
C82 O101 1.225 . S
C83 C82 1.491 . S
C83 C84 1.392 . S
C83 C88 1.356 . S
C84 C83 1.392 . S
C84 C85 1.368 . S
C84 H112 0.929 . S
C85 C84 1.368 . S
C85 C86 1.386 . S
C85 H113 0.929 . S
C86 C85 1.386 . S
C86 C87 1.373 . S
C87 C86 1.373 . S
C87 C88 1.409 . S
C87 H114 0.931 . S
C88 C83 1.356 . S
C88 C87 1.409 . S
C88 H115 0.930 . S
C89 O102 1.270 . S
C89 O103 1.248 . S
C90 O104 1.267 . S
C90 O105 1.278 . S
C91 Pr81 2.880 . S
C91 C92 1.491 . S
C91 O106 1.254 . S
C91 O107 1.225 . S
C92 C91 1.491 . S
C92 C93 1.392 . S
C92 C97 1.356 . S
C93 C92 1.392 . S
C93 C94 1.368 . S
C93 H116 0.929 . S
C94 C93 1.368 . S
C94 C95 1.386 . S
C94 H117 0.929 . S
C95 C94 1.386 . S
C95 C96 1.373 . S
C96 C95 1.373 . S
C96 C97 1.409 . S
C96 H118 0.931 . S
C97 C92 1.356 . S
C97 C96 1.409 . S
C97 H119 0.930 . S
C98 O108 1.270 . S
C98 O109 1.248 . S
C99 O110 1.267 . S
C99 O111 1.278 . S
O100 Pr80 2.562 . S
O100 C82 1.254 . S
O101 Pr80 2.490 . S
O101 C82 1.225 . S
O102 Pr80 2.695 . S
O102 Pr81 2.436 . S
O102 C89 1.270 . S
O103 Pr80 2.512 . S
O103 C89 1.248 . S
O104 Pr81 2.438 . S
O104 C90 1.267 . S
O105 Pr80 2.437 . S
O105 C90 1.278 . S
O106 Pr81 2.562 . S
O106 C91 1.254 . S
O107 Pr81 2.490 . S
O107 C91 1.225 . S
O108 Pr80 2.436 . S
O108 Pr81 2.695 . S
O108 C98 1.270 . S
O109 Pr81 2.512 . S
O109 C98 1.248 . S
O110 Pr80 2.438 . S
O110 C99 1.267 . S
O111 Pr81 2.437 . S
O111 C99 1.278 . S
H112 C84 0.929 . S
H113 C85 0.929 . S
H114 C87 0.931 . S
H115 C88 0.930 . S
H116 C93 0.929 . S
H117 C94 0.929 . S
H118 C96 0.931 . S
H119 C97 0.930 . S
H120 C125 0.930 . S
H121 C128 0.930 . S
H122 C130 0.930 . S
H123 C124 1.016 . S
C124 H123 1.016 . S
C124 N131 1.286 . S
C125 H120 0.930 . S
C125 C126 1.397 . S
C125 C127 1.361 . S
C126 C125 1.397 . S
C126 C130 1.390 . S
C127 C125 1.361 . S
C127 C128 1.393 . S
C127 N131 1.413 . S
C128 H121 0.930 . S
C128 C127 1.393 . S
C128 C129 1.399 . S
C129 C128 1.399 . S
C129 C130 1.381 . S
C130 H122 0.930 . S
C130 C126 1.390 . S
C130 C129 1.381 . S
N131 C124 1.286 . S
N131 C127 1.413 . S
H132 C137 0.930 . S
H133 C140 0.930 . S
H134 C142 0.930 . S
H135 C136 1.016 . S
C136 H135 1.016 . S
C136 N143 1.286 . S
C137 H132 0.930 . S
C137 C138 1.397 . S
C137 C139 1.361 . S
C138 C137 1.397 . S
C138 C142 1.390 . S
C139 C137 1.361 . S
C139 C140 1.393 . S
C139 N143 1.413 . S
C140 H133 0.930 . S
C140 C139 1.393 . S
C140 C141 1.399 . S
C141 C140 1.399 . S
C141 C142 1.381 . S
C142 H134 0.930 . S
C142 C138 1.390 . S
C142 C141 1.381 . S
N143 C136 1.286 . S
N143 C139 1.413 . S
H144 C149 0.930 . S
H145 C152 0.930 . S
H146 C154 0.930 . S
H147 C148 1.016 . S
C148 H147 1.016 . S
C148 N155 1.286 . S
C149 H144 0.930 . S
C149 C150 1.397 . S
C149 C151 1.361 1_655 S
C150 C149 1.397 . S
C150 C154 1.390 . S
C151 C149 1.361 1_455 S
C151 C152 1.393 . S
C151 N155 1.413 . S
C152 H145 0.930 . S
C152 C151 1.393 . S
C152 C153 1.399 . S
C153 C152 1.399 . S
C153 C154 1.381 1_455 S
C154 H146 0.930 . S
C154 C150 1.390 . S
C154 C153 1.381 1_655 S
N155 C148 1.286 . S
N155 C151 1.413 . S
H156 C161 0.930 . S
H157 C164 0.930 . S
H158 C166 0.930 . S
H159 C160 1.016 . S
C160 H159 1.016 . S
C160 N167 1.286 . S
C161 H156 0.930 . S
C161 C162 1.397 . S
C161 C163 1.361 1_455 S
C162 C161 1.397 . S
C162 C166 1.390 . S
C163 C161 1.361 1_655 S
C163 C164 1.393 . S
C163 N167 1.413 . S
C164 H157 0.930 . S
C164 C163 1.393 . S
C164 C165 1.399 1_655 S
C165 C164 1.399 1_455 S
C165 C166 1.381 . S
C166 H158 0.930 . S
C166 C162 1.390 . S
C166 C165 1.381 . S
N167 C160 1.286 . S
N167 C163 1.413 . S
H168 C173 0.930 . S
H169 C176 0.952 . S
H170 C178 0.930 . S
H171 C172 1.016 . S
C172 H171 1.016 . S
C172 N179 1.286 . S
C173 H168 0.930 . S
C173 C174 1.397 . S
C173 C175 1.361 . S
C174 C173 1.397 . S
C174 C178 1.390 . S
C175 C173 1.361 . S
C175 C176 1.393 1_545 S
C175 N179 1.413 1_545 S
C176 H169 0.952 . S
C176 C175 1.393 1_565 S
C176 C177 1.378 1_565 S
C177 C176 1.378 1_545 S
C177 C178 1.381 . S
C178 H170 0.930 . S
C178 C174 1.390 . S
C178 C177 1.381 . S
N179 C172 1.286 . S
N179 C175 1.413 1_565 S
H180 C185 0.930 . S
H181 C188 0.930 . S
H182 C190 0.930 . S
H183 C184 1.016 . S
C184 H183 1.016 . S
C184 N191 1.286 . S
C185 H180 0.930 . S
C185 C186 1.397 . S
C185 C187 1.361 . S
C186 C185 1.397 . S
C186 C190 1.390 . S
C187 C185 1.361 . S
C187 C188 1.393 . S
C187 N191 1.413 . S
C188 H181 0.930 . S
C188 C187 1.393 . S
C188 C189 1.399 . S
C189 C188 1.399 . S
C189 C190 1.381 . S
C190 H182 0.930 . S
C190 C186 1.390 . S
C190 C189 1.381 . S
N191 C184 1.286 . S
N191 C187 1.413 . S
H192 C198 0.930 . S
H193 C202 0.930 . S
H194 C207 0.929 . S
H195 C205 0.929 . S
H196 C200 0.929 . S
H197 C206 0.929 . S
C198 H192 0.930 . S
C198 C199 1.367 . S
C198 C206 1.378 . S
C199 C198 1.367 . S
C199 C207 1.433 . S
C200 H196 0.929 . S
C200 C202 1.378 . S
C200 C204 1.350 . S
C201 C204 1.463 . S
C201 C206 1.350 . S
C201 N209 1.427 . S
C202 H193 0.930 . S
C202 C200 1.378 . S
C202 C203 1.367 . S
C203 C202 1.367 . S
C203 C205 1.433 . S
C204 C200 1.350 . S
C204 C201 1.463 . S
C204 N208 1.427 . S
C205 H195 0.929 . S
C205 C203 1.433 . S
C205 N208 1.384 . S
C206 H197 0.929 . S
C206 C198 1.378 . S
C206 C201 1.350 . S
C207 H194 0.929 . S
C207 C199 1.433 . S
C207 N209 1.384 . S
N208 C204 1.427 . S
N208 C205 1.384 . S
N209 C201 1.427 . S
N209 C207 1.384 . S
H210 C216 0.930 . S
H211 C220 0.930 . S
H212 C225 0.929 . S
H213 C223 0.929 . S
H214 C218 0.929 . S
H215 C224 0.929 . S
C216 H210 0.930 . S
C216 C217 1.367 . S
C216 C224 1.378 . S
C217 C216 1.367 . S
C217 C225 1.433 . S
C218 H214 0.929 . S
C218 C220 1.378 . S
C218 C222 1.350 . S
C219 C222 1.463 . S
C219 C224 1.350 . S
C219 N227 1.427 . S
C220 H211 0.930 . S
C220 C218 1.378 . S
C220 C221 1.367 . S
C221 C220 1.367 . S
C221 C223 1.433 . S
C222 C218 1.350 . S
C222 C219 1.463 . S
C222 N226 1.427 . S
C223 H213 0.929 . S
C223 C221 1.433 . S
C223 N226 1.384 . S
C224 H215 0.929 . S
C224 C216 1.378 . S
C224 C219 1.350 . S
C225 H212 0.929 . S
C225 C217 1.433 . S
C225 N227 1.384 . S
N226 C222 1.427 . S
N226 C223 1.384 . S
N227 C219 1.427 . S
N227 C225 1.384 . S
H228 C234 0.930 . S
H229 C238 0.930 . S
H230 C243 0.929 . S
H231 C241 0.929 . S
H232 C236 0.929 . S
H233 C242 0.929 . S
C234 H228 0.930 . S
C234 C235 1.367 . S
C234 C242 1.378 . S
C235 C234 1.367 . S
C235 C243 1.433 . S
C236 H232 0.929 . S
C236 C238 1.378 . S
C236 C240 1.350 . S
C237 C240 1.463 . S
C237 C242 1.350 . S
C237 N245 1.427 . S
C238 H229 0.930 . S
C238 C236 1.378 . S
C238 C239 1.367 . S
C239 C238 1.367 . S
C239 C241 1.433 . S
C240 C236 1.350 . S
C240 C237 1.463 . S
C240 N244 1.427 . S
C241 H231 0.929 . S
C241 C239 1.433 . S
C241 N244 1.384 . S
C242 H233 0.929 . S
C242 C234 1.378 . S
C242 C237 1.350 . S
C243 H230 0.929 . S
C243 C235 1.433 . S
C243 N245 1.384 . S
N244 C240 1.427 . S
N244 C241 1.384 . S
N245 C237 1.427 . S
N245 C243 1.384 . S
H246 C252 0.930 . S
H247 C256 0.930 . S
H248 C261 0.929 . S
H249 C259 0.929 . S
H250 C254 0.929 . S
H251 C260 0.929 . S
C252 H246 0.930 . S
C252 C253 1.367 . S
C252 C260 1.378 . S
C253 C252 1.367 . S
C253 C261 1.433 . S
C254 H250 0.929 . S
C254 C256 1.378 . S
C254 C258 1.350 . S
C255 C258 1.463 . S
C255 C260 1.350 . S
C255 N263 1.427 . S
C256 H247 0.930 . S
C256 C254 1.378 . S
C256 C257 1.367 . S
C257 C256 1.367 . S
C257 C259 1.433 . S
C258 C254 1.350 . S
C258 C255 1.463 . S
C258 N262 1.427 . S
C259 H249 0.929 . S
C259 C257 1.433 . S
C259 N262 1.384 . S
C260 H251 0.929 . S
C260 C252 1.378 . S
C260 C255 1.350 . S
C261 H248 0.929 . S
C261 C253 1.433 . S
C261 N263 1.384 . S
N262 C258 1.427 . S
N262 C259 1.384 . S
N263 C255 1.427 . S
N263 C261 1.384 . S
H264 C270 0.930 . S
H265 C274 0.930 . S
H266 C279 0.929 . S
H267 C277 0.929 . S
H268 C272 0.929 . S
H269 C278 0.929 . S
C270 H264 0.930 . S
C270 C271 1.367 . S
C270 C278 1.378 . S
C271 C270 1.367 . S
C271 C279 1.433 . S
C272 H268 0.929 . S
C272 C274 1.378 . S
C272 C276 1.350 . S
C273 C276 1.463 . S
C273 C278 1.350 . S
C273 N281 1.427 . S
C274 H265 0.930 . S
C274 C272 1.378 . S
C274 C275 1.367 . S
C275 C274 1.367 . S
C275 C277 1.433 . S
C276 C272 1.350 . S
C276 C273 1.463 . S
C276 N280 1.427 . S
C277 H267 0.929 . S
C277 C275 1.433 . S
C277 N280 1.384 . S
C278 H269 0.929 . S
C278 C270 1.378 . S
C278 C273 1.350 . S
C279 H266 0.929 . S
C279 C271 1.433 . S
C279 N281 1.384 . S
N280 C276 1.427 . S
N280 C277 1.384 . S
N281 C273 1.427 . S
N281 C279 1.384 . S
H282 C288 0.930 . S
H283 C292 0.930 . S
H284 C297 0.929 . S
H285 C295 0.929 . S
H286 C290 0.929 . S
H287 C296 0.929 . S
C288 H282 0.930 . S
C288 C289 1.367 . S
C288 C296 1.378 . S
C289 C288 1.367 . S
C289 C297 1.433 . S
C290 H286 0.929 . S
C290 C292 1.378 . S
C290 C294 1.350 . S
C291 C294 1.463 . S
C291 C296 1.350 . S
C291 N299 1.427 . S
C292 H283 0.930 . S
C292 C290 1.378 . S
C292 C293 1.367 . S
C293 C292 1.367 . S
C293 C295 1.433 . S
C294 C290 1.350 . S
C294 C291 1.463 . S
C294 N298 1.427 . S
C295 H285 0.929 . S
C295 C293 1.433 . S
C295 N298 1.384 . S
C296 H287 0.929 . S
C296 C288 1.378 . S
C296 C291 1.350 . S
C297 H284 0.929 . S
C297 C289 1.433 . S
C297 N299 1.384 . S
N298 C294 1.427 . S
N298 C295 1.384 . S
N299 C291 1.427 . S
N299 C297 1.384 . S
H300 C306 0.930 . S
H301 C310 0.930 . S
H302 C315 0.929 . S
H303 C313 0.929 . S
H304 C308 0.929 . S
H305 C314 0.929 . S
C306 H300 0.930 . S
C306 C307 1.367 . S
C306 C314 1.378 . S
C307 C306 1.367 . S
C307 C315 1.433 . S
C308 H304 0.929 . S
C308 C310 1.378 . S
C308 C312 1.350 . S
C309 C312 1.463 . S
C309 C314 1.350 . S
C309 N317 1.427 . S
C310 H301 0.930 . S
C310 C308 1.378 . S
C310 C311 1.367 . S
C311 C310 1.367 . S
C311 C313 1.433 . S
C312 C308 1.350 . S
C312 C309 1.463 . S
C312 N316 1.427 . S
C313 H303 0.929 . S
C313 C311 1.433 . S
C313 N316 1.384 . S
C314 H305 0.929 . S
C314 C306 1.378 . S
C314 C309 1.350 . S
C315 H302 0.929 . S
C315 C307 1.433 . S
C315 N317 1.384 . S
N316 C312 1.427 . S
N316 C313 1.384 . S
N317 C309 1.427 . S
N317 C315 1.384 . S
H318 C324 0.930 . S
H319 C328 0.930 . S
H320 C333 0.929 . S
H321 C331 0.929 . S
H322 C326 0.929 . S
H323 C332 0.929 . S
C324 H318 0.930 . S
C324 C325 1.367 . S
C324 C332 1.378 . S
C325 C324 1.367 . S
C325 C333 1.433 . S
C326 H322 0.929 . S
C326 C328 1.378 . S
C326 C330 1.350 . S
C327 C330 1.463 . S
C327 C332 1.350 . S
C327 N335 1.427 . S
C328 H319 0.930 . S
C328 C326 1.378 . S
C328 C329 1.367 . S
C329 C328 1.367 . S
C329 C331 1.433 . S
C330 C326 1.350 . S
C330 C327 1.463 . S
C330 N334 1.427 . S
C331 H321 0.929 . S
C331 C329 1.433 . S
C331 N334 1.384 . S
C332 H323 0.929 . S
C332 C324 1.378 . S
C332 C327 1.350 . S
C333 H320 0.929 . S
C333 C325 1.433 . S
C333 N335 1.384 . S
N334 C330 1.427 . S
N334 C331 1.384 . S
N335 C327 1.427 . S
N335 C333 1.384 . S
H336 C342 0.930 . S
H337 C346 0.930 . S
H338 C351 0.929 . S
H339 C349 0.929 . S
H340 C344 0.929 . S
H341 C350 0.929 . S
C342 H336 0.930 . S
C342 C343 1.367 . S
C342 C350 1.378 . S
C343 C342 1.367 . S
C343 C351 1.433 . S
C344 H340 0.929 . S
C344 C346 1.378 . S
C344 C348 1.350 . S
C345 C348 1.463 . S
C345 C350 1.350 . S
C345 N353 1.427 . S
C346 H337 0.930 . S
C346 C344 1.378 . S
C346 C347 1.367 . S
C347 C346 1.367 . S
C347 C349 1.433 . S
C348 C344 1.350 . S
C348 C345 1.463 . S
C348 N352 1.427 . S
C349 H339 0.929 . S
C349 C347 1.433 . S
C349 N352 1.384 . S
C350 H341 0.929 . S
C350 C342 1.378 . S
C350 C345 1.350 . S
C351 H338 0.929 . S
C351 C343 1.433 . S
C351 N353 1.384 . S
N352 C348 1.427 . S
N352 C349 1.384 . S
N353 C345 1.427 . S
N353 C351 1.384 . S
H354 C360 0.930 . S
H355 C364 0.930 . S
H356 C369 0.929 . S
H357 C367 0.929 . S
H358 C362 0.929 . S
H359 C368 0.929 . S
C360 H354 0.930 . S
C360 C361 1.367 . S
C360 C368 1.378 . S
C361 C360 1.367 . S
C361 C369 1.433 . S
C362 H358 0.929 . S
C362 C364 1.378 . S
C362 C366 1.350 . S
C363 C366 1.463 . S
C363 C368 1.350 . S
C363 N371 1.427 . S
C364 H355 0.930 . S
C364 C362 1.378 . S
C364 C365 1.367 . S
C365 C364 1.367 . S
C365 C367 1.433 . S
C366 C362 1.350 . S
C366 C363 1.463 . S
C366 N370 1.427 . S
C367 H357 0.929 . S
C367 C365 1.433 . S
C367 N370 1.384 . S
C368 H359 0.929 . S
C368 C360 1.378 . S
C368 C363 1.350 . S
C369 H356 0.929 . S
C369 C361 1.433 . S
C369 N371 1.384 . S
N370 C366 1.427 . S
N370 C367 1.384 . S
N371 C363 1.427 . S
N371 C369 1.384 . S
H372 C378 0.930 . S
H373 C382 0.930 . S
H374 C387 0.929 . S
H375 C385 0.929 . S
H376 C380 0.929 . S
H377 C386 0.929 . S
C378 H372 0.930 . S
C378 C379 1.367 . S
C378 C386 1.378 . S
C379 C378 1.367 . S
C379 C387 1.433 . S
C380 H376 0.929 . S
C380 C382 1.378 . S
C380 C384 1.350 . S
C381 C384 1.463 . S
C381 C386 1.350 . S
C381 N389 1.427 . S
C382 H373 0.930 . S
C382 C380 1.378 . S
C382 C383 1.367 . S
C383 C382 1.367 . S
C383 C385 1.433 . S
C384 C380 1.350 . S
C384 C381 1.463 . S
C384 N388 1.427 . S
C385 H375 0.929 . S
C385 C383 1.433 . S
C385 N388 1.384 . S
C386 H377 0.929 . S
C386 C378 1.378 . S
C386 C381 1.350 . S
C387 H374 0.929 . S
C387 C379 1.433 . S
C387 N389 1.384 . S
N388 C384 1.427 . S
N388 C385 1.384 . S
N389 C381 1.427 . S
N389 C387 1.384 . S
H390 C396 0.930 . S
H391 C400 0.930 . S
H392 C405 0.929 . S
H393 C403 0.929 . S
H394 C398 0.929 . S
H395 C404 0.929 . S
C396 H390 0.930 . S
C396 C397 1.367 . S
C396 C404 1.378 . S
C397 C396 1.367 . S
C397 C405 1.433 . S
C398 H394 0.929 . S
C398 C400 1.378 . S
C398 C402 1.350 . S
C399 C402 1.463 . S
C399 C404 1.350 . S
C399 N407 1.427 . S
C400 H391 0.930 . S
C400 C398 1.378 . S
C400 C401 1.367 . S
C401 C400 1.367 . S
C401 C403 1.433 . S
C402 C398 1.350 . S
C402 C399 1.463 . S
C402 N406 1.427 . S
C403 H393 0.929 . S
C403 C401 1.433 . S
C403 N406 1.384 . S
C404 H395 0.929 . S
C404 C396 1.378 . S
C404 C399 1.350 . S
C405 H392 0.929 . S
C405 C397 1.433 . S
C405 N407 1.384 . S
N406 C402 1.427 . S
N406 C403 1.384 . S
N407 C399 1.427 . S
N407 C405 1.384 . S
H408 C414 0.930 . S
H409 C418 0.930 . S
H410 C423 0.929 . S
H411 C421 0.929 . S
H412 C416 0.929 . S
H413 C422 0.929 . S
C414 H408 0.930 . S
C414 C415 1.367 . S
C414 C422 1.378 . S
C415 C414 1.367 . S
C415 C423 1.433 1_455 S
C416 H412 0.929 . S
C416 C418 1.378 . S
C416 C420 1.350 1_655 S
C417 C420 1.463 1_554 S
C417 C422 1.350 . S
C417 N425 1.427 1_455 S
C418 H409 0.930 . S
C418 C416 1.378 . S
C418 C419 1.367 1_655 S
C419 C418 1.367 1_455 S
C419 C421 1.433 . S
C420 C416 1.350 1_455 S
C420 C417 1.463 1_556 S
C420 N424 1.427 . S
C421 H411 0.929 . S
C421 C419 1.433 . S
C421 N424 1.384 . S
C422 H413 0.929 . S
C422 C414 1.378 . S
C422 C417 1.350 . S
C423 H410 0.929 . S
C423 C415 1.433 1_655 S
C423 N425 1.384 . S
N424 C420 1.427 . S
N424 C421 1.384 . S
N425 C417 1.427 1_655 S
N425 C423 1.384 . S
H426 C432 0.930 1_565 S
H427 C436 0.930 . S
H428 C441 0.929 . S
H429 C439 0.915 1_565 S
H430 C434 0.929 . S
H431 C440 0.929 1_565 S
C432 H426 0.930 1_545 S
C432 C433 1.367 . S
C432 C440 1.378 . S
C433 C432 1.367 . S
C433 C441 1.433 . S
C434 H430 0.929 . S
C434 C436 1.378 . S
C434 C438 1.350 . S
C435 C438 1.463 . S
C435 C440 1.350 . S
C435 N443 1.427 . S
C436 H427 0.930 . S
C436 C434 1.378 . S
C436 C437 1.367 . S
C437 C436 1.367 . S
C437 C439 1.433 . S
C438 C434 1.350 . S
C438 C435 1.463 . S
C438 N442 1.427 . S
C439 H429 0.915 1_545 S
C439 C437 1.433 . S
C439 N442 1.384 . S
C440 H431 0.929 1_545 S
C440 C432 1.378 . S
C440 C435 1.350 . S
C441 H428 0.929 . S
C441 C433 1.433 . S
C441 N443 1.384 . S
N442 C438 1.427 . S
N442 C439 1.384 . S
N443 C435 1.427 . S
N443 C441 1.384 . S
H444 C450 0.930 . S
H445 C454 0.930 . S
H446 C459 0.929 . S
H447 C457 0.929 . S
H448 C452 0.929 . S
H449 C458 0.929 . S
C450 H444 0.930 . S
C450 C451 1.367 . S
C450 C458 1.378 . S
C451 C450 1.367 . S
C451 C459 1.433 . S
C452 H448 0.929 . S
C452 C454 1.378 . S
C452 C456 1.350 . S
C453 C456 1.463 . S
C453 C458 1.350 . S
C453 N461 1.427 . S
C454 H445 0.930 . S
C454 C452 1.378 . S
C454 C455 1.367 . S
C455 C454 1.367 . S
C455 C457 1.433 . S
C456 C452 1.350 . S
C456 C453 1.463 . S
C456 N460 1.427 . S
C457 H447 0.929 . S
C457 C455 1.433 . S
C457 N460 1.384 . S
C458 H449 0.929 . S
C458 C450 1.378 . S
C458 C453 1.350 . S
C459 H446 0.929 . S
C459 C451 1.433 . S
C459 N461 1.384 . S
N460 C456 1.427 . S
N460 C457 1.384 . S
N461 C453 1.427 . S
N461 C459 1.384 . S
H462 C468 0.930 1_565 S
H463 C472 0.930 . S
H464 C477 0.929 . S
H465 C475 0.929 . S
H466 C470 0.929 . S
H467 C476 0.929 1_565 S
C468 H462 0.930 1_545 S
C468 C469 1.367 . S
C468 C476 1.378 . S
C469 C468 1.367 . S
C469 C477 1.433 . S
C470 H466 0.929 . S
C470 C472 1.378 . S
C470 C474 1.350 . S
C471 C474 1.463 . S
C471 C476 1.350 . S
C471 N479 1.427 . S
C472 H463 0.930 . S
C472 C470 1.378 . S
C472 C473 1.367 . S
C473 C472 1.367 . S
C473 C475 1.433 1_545 S
C474 C470 1.350 . S
C474 C471 1.463 . S
C474 N478 1.427 1_545 S
C475 H465 0.929 . S
C475 C473 1.433 1_565 S
C475 N478 1.384 . S
C476 H467 0.929 1_545 S
C476 C468 1.378 . S
C476 C471 1.350 . S
C477 H464 0.929 . S
C477 C469 1.433 . S
C477 N479 1.384 . S
N478 C474 1.427 1_565 S
N478 C475 1.384 . S
N479 C471 1.427 . S
N479 C477 1.384 . S
H480 C486 0.930 . S
H481 C490 0.930 . S
H482 C495 0.929 . S
H483 C493 0.929 . S
H484 C488 0.929 . S
H485 C494 0.929 . S
C486 H480 0.930 . S
C486 C487 1.367 . S
C486 C494 1.378 . S
C487 C486 1.367 . S
C487 C495 1.433 . S
C488 H484 0.929 . S
C488 C490 1.378 . S
C488 C492 1.350 . S
C489 C492 1.463 1_556 S
C489 C494 1.350 . S
C489 N497 1.427 . S
C490 H481 0.930 . S
C490 C488 1.378 . S
C490 C491 1.367 . S
C491 C490 1.367 . S
C491 C493 1.433 . S
C492 C488 1.350 . S
C492 C489 1.463 1_554 S
C492 N496 1.427 . S
C493 H483 0.929 . S
C493 C491 1.433 . S
C493 N496 1.384 . S
C494 H485 0.929 . S
C494 C486 1.378 . S
C494 C489 1.350 . S
C495 H482 0.929 . S
C495 C487 1.433 . S
C495 N497 1.384 . S
N496 C492 1.427 . S
N496 C493 1.384 . S
N497 C489 1.427 . S
N497 C495 1.384 . S
H498 C504 0.930 . S
H499 C508 0.944 . S
H500 C513 0.929 . S
H501 C511 0.929 . S
H502 C506 0.929 . S
H503 C512 0.929 . S
C504 H498 0.930 . S
C504 C505 1.367 . S
C504 C512 1.378 . S
C505 C504 1.367 . S
C505 C513 1.433 . S
C506 H502 0.929 . S
C506 C508 1.378 . S
C506 C510 1.350 . S
C507 C510 1.463 . S
C507 C512 1.350 . S
C507 N515 1.427 . S
C508 H499 0.944 . S
C508 C506 1.378 . S
C508 C509 1.367 . S
C509 C508 1.367 . S
C509 C511 1.433 . S
C510 C506 1.350 . S
C510 C507 1.463 . S
C510 N514 1.427 . S
C511 H501 0.929 . S
C511 C509 1.433 . S
C511 N514 1.384 . S
C512 H503 0.929 . S
C512 C504 1.378 . S
C512 C507 1.350 . S
C513 H500 0.929 . S
C513 C505 1.433 . S
C513 N515 1.384 . S
N514 C510 1.427 . S
N514 C511 1.384 . S
N515 C507 1.427 . S
N515 C513 1.384 . S
C199 C19 2.115 . S
C203 C186 2.098 . S
C217 C46 1.283 . S
C221 C160 1.284 . S
C235 C95 0.549 . S
C239 C172 0.474 . S
C253 C10 1.759 . S
C257 C184 1.658 . S
C275 C162 1.175 . S
C271 C55 1.163 . S
C293 C174 0.416 . S
C289 C86 0.434 . S
C307 C59 3.167 . S
C311 C136 3.078 . S
C325 C90 2.175 . S
C329 C150 2.195 . S
C343 C15 1.152 . S
C347 C126 1.148 1_565 S
C365 C138 2.918 . S
C361 C50 2.945 . S
C383 C148 1.623 . S
C379 C99 1.700 . S
C397 C6 1.273 . S
C401 C124 1.252 . S
C419 C153 1.483 . S
C415 C9 1.426 . S
C433 C58 1.520 . S
C437 C129 1.547 . S
C451 C98 1.656 . S
C455 C141 1.752 . S
C473 C177 1.241 . S
C469 C49 1.193 . S
C491 C189 1.495 . S
C487 C89 1.459 . S
C505 C18 1.503 . S
C509 C165 1.517 . S
